# Generated by pormake.
# Topology zzz, (3,6)-cn, num edge types: 1
# Building blocks:
#     Node 0, Type 0, BuildingBlock: CUQRIR_clean_linker_1, # of connection points: 3
#     Node 1, Type 0, BuildingBlock: CUQRIR_clean_linker_1, # of connection points: 3
#     Node 2, Type 0, BuildingBlock: CUQRIR_clean_linker_1, # of connection points: 3
#     Node 3, Type 0, BuildingBlock: CUQRIR_clean_linker_1, # of connection points: 3
#     Node 4, Type 0, BuildingBlock: CUQRIR_clean_linker_1, # of connection points: 3
#     Node 5, Type 0, BuildingBlock: CUQRIR_clean_linker_1, # of connection points: 3
#     Node 6, Type 0, BuildingBlock: CUQRIR_clean_linker_1, # of connection points: 3
#     Node 7, Type 0, BuildingBlock: CUQRIR_clean_linker_1, # of connection points: 3
#     Node 8, Type 1, BuildingBlock: KUMBUR_clean_sbu_1, # of connection points: 6
#     Node 9, Type 1, BuildingBlock: KUMBUR_clean_sbu_1, # of connection points: 6
#     Node 10, Type 1, BuildingBlock: KUMBUR_clean_sbu_1, # of connection points: 6
#     Node 11, Type 1, BuildingBlock: KUMBUR_clean_sbu_1, # of connection points: 6
#     Edge 12, Type (0, 1), BuildingBlock: XUDNAN_clean_linker_2, # of connection points: 2
#     Edge 13, Type (0, 1), BuildingBlock: XUDNAN_clean_linker_2, # of connection points: 2
#     Edge 14, Type (0, 1), BuildingBlock: XUDNAN_clean_linker_2, # of connection points: 2
#     Edge 15, Type (0, 1), BuildingBlock: XUDNAN_clean_linker_2, # of connection points: 2
#     Edge 16, Type (0, 1), BuildingBlock: XUDNAN_clean_linker_2, # of connection points: 2
#     Edge 17, Type (0, 1), BuildingBlock: XUDNAN_clean_linker_2, # of connection points: 2
#     Edge 18, Type (0, 1), BuildingBlock: XUDNAN_clean_linker_2, # of connection points: 2
#     Edge 19, Type (0, 1), BuildingBlock: XUDNAN_clean_linker_2, # of connection points: 2
#     Edge 20, Type (0, 1), BuildingBlock: XUDNAN_clean_linker_2, # of connection points: 2
#     Edge 21, Type (0, 1), BuildingBlock: XUDNAN_clean_linker_2, # of connection points: 2
#     Edge 22, Type (0, 1), BuildingBlock: XUDNAN_clean_linker_2, # of connection points: 2
#     Edge 23, Type (0, 1), BuildingBlock: XUDNAN_clean_linker_2, # of connection points: 2
#     Edge 24, Type (0, 1), BuildingBlock: XUDNAN_clean_linker_2, # of connection points: 2
#     Edge 25, Type (0, 1), BuildingBlock: XUDNAN_clean_linker_2, # of connection points: 2
#     Edge 26, Type (0, 1), BuildingBlock: XUDNAN_clean_linker_2, # of connection points: 2
#     Edge 27, Type (0, 1), BuildingBlock: XUDNAN_clean_linker_2, # of connection points: 2
#     Edge 28, Type (0, 1), BuildingBlock: XUDNAN_clean_linker_2, # of connection points: 2
#     Edge 29, Type (0, 1), BuildingBlock: XUDNAN_clean_linker_2, # of connection points: 2
#     Edge 30, Type (0, 1), BuildingBlock: XUDNAN_clean_linker_2, # of connection points: 2
#     Edge 31, Type (0, 1), BuildingBlock: XUDNAN_clean_linker_2, # of connection points: 2
#     Edge 32, Type (0, 1), BuildingBlock: XUDNAN_clean_linker_2, # of connection points: 2
#     Edge 33, Type (0, 1), BuildingBlock: XUDNAN_clean_linker_2, # of connection points: 2
#     Edge 34, Type (0, 1), BuildingBlock: XUDNAN_clean_linker_2, # of connection points: 2
#     Edge 35, Type (0, 1), BuildingBlock: XUDNAN_clean_linker_2, # of connection points: 2
# Relax obj value: 0.218
# Max RMSD: 0.113
# Mean RMSD: 0.090
data_MOF--net-zzz--node1-KUMBUR_clean_sbu_1--node2-CUQRIR_clean_linker_1--edge1-XUDNAN_clean_linker_2
_symmetry_space_group_name_H-M    P1
_symmetry_Int_Tables_number       1
_symmetry_cell_setting            triclinic
loop_
_symmetry_equiv_pos_as_xyz
'x, y, z'
_cell_length_a     46.701161
_cell_length_b     46.616705
_cell_length_c     14.275857
_cell_angle_alpha  90.349531
_cell_angle_beta   90.06951
_cell_angle_gamma 89.936207
loop_
_atom_site_label
_atom_site_type_symbol
_atom_site_fract_x
_atom_site_fract_y
_atom_site_fract_z
_atom_type_partial_charge
C0 C 0.75507 0.54475 0.33588 0.0
N1 N 0.78129 0.532 0.35133 0.0
N2 N 0.74098 0.53301 0.25924 0.0
C3 C 0.74281 0.56769 0.39794 0.0
C4 C 0.7603 0.51323 0.22826 0.0
N5 N 0.78376 0.51245 0.28394 0.0
C6 C 0.75843 0.49734 0.13604 0.0
H7 H 0.71914 0.56592 0.40105 0.0
H8 H 0.74843 0.58899 0.36902 0.0
H9 H 0.75189 0.5662 0.46963 0.0
H10 H 0.74637 0.50987 0.08329 0.0
H11 H 0.74757 0.47648 0.14704 0.0
H12 H 0.78003 0.49275 0.10731 0.0
C13 C 1.01208 0.76267 0.34623 0.0
N14 N 1.00305 0.79088 0.34995 0.0
N15 N 1.0033 0.74892 0.26525 0.0
C16 C 0.03011 0.74876 0.41986 0.0
C17 C 0.98852 0.76983 0.22063 0.0
N18 N 0.98825 0.79483 0.27096 0.0
C19 C 0.97583 0.76625 0.12383 0.0
H20 H 0.053 0.7512 0.40075 0.0
H21 H 0.02528 0.7255 0.4239 0.0
H22 H 0.02657 0.75915 0.48904 0.0
H23 H 0.95215 0.76622 0.12904 0.0
H24 H 0.98218 0.74595 0.0892 0.0
H25 H 0.9824 0.78428 0.07828 0.0
C26 C 0.79446 0.03895 0.30228 0.0
N27 N 0.77149 0.02255 0.32976 0.0
N28 N 0.81432 0.02334 0.25139 0.0
C29 C 0.79718 0.07033 0.3238 0.0
C30 C 0.80252 0.99667 0.25172 0.0
N31 N 0.77671 0.99628 0.29644 0.0
C32 C 0.81602 0.97068 0.20584 0.0
H33 H 0.78402 0.08257 0.27309 0.0
H34 H 0.8198 0.0774 0.31837 0.0
H35 H 0.78896 0.07511 0.39506 0.0
H36 H 0.80214 0.95147 0.20771 0.0
H37 H 0.83577 0.96488 0.24434 0.0
H38 H 0.82182 0.97553 0.13225 0.0
C39 C 0.52418 0.79046 0.26782 0.0
N40 N 0.54087 0.76838 0.301 0.0
N41 N 0.54013 0.81085 0.22166 0.0
C42 C 0.49219 0.79144 0.27605 0.0
C43 C 0.56708 0.80001 0.22876 0.0
N44 N 0.56754 0.77458 0.27475 0.0
C45 C 0.59355 0.81411 0.19069 0.0
H46 H 0.48262 0.80086 0.212 0.0
H47 H 0.48638 0.80533 0.33649 0.0
H48 H 0.48315 0.7698 0.28808 0.0
H49 H 0.59157 0.83782 0.19345 0.0
H50 H 0.59671 0.80733 0.11681 0.0
H51 H 0.6127 0.80743 0.23122 0.0
C52 C 0.3015 0.5192 0.09307 0.0
N53 N 0.27418 0.53077 0.09087 0.0
N54 N 0.31644 0.52726 0.17304 0.0
C55 C 0.31334 0.49925 0.0201 0.0
C56 C 0.29692 0.54359 0.21897 0.0
N57 N 0.27233 0.54596 0.16955 0.0
C58 C 0.30099 0.55595 0.31634 0.0
H59 H 0.31072 0.47686 0.04449 0.0
H60 H 0.33657 0.50327 1.01033 0.0
H61 H 0.30197 0.50141 0.95243 0.0
H62 H 0.31069 0.57758 0.3109 0.0
H63 H 0.31509 0.54213 0.35937 0.0
H64 H 0.28042 0.55839 0.35405 0.0
C65 C 0.04198 0.3113 0.08939 0.0
N66 N 0.03889 0.28185 0.09915 0.0
N67 N 0.04168 0.32569 0.17492 0.0
C68 C 0.04436 0.32607 0.99701 0.0
C69 C 0.03973 0.30374 0.23586 0.0
N70 N 0.03787 0.27806 0.1912 0.0
C71 C 0.04002 0.30723 0.34137 0.0
H72 H 0.06735 0.32901 0.98017 0.0
H73 H 0.03418 0.34756 1.00054 0.0
H74 H 0.03434 0.31301 0.94063 0.0
H75 H 1.01766 0.30886 0.36707 0.0
H76 H 0.05197 0.32669 0.36331 0.0
H77 H 0.05016 0.28867 0.37617 0.0
C78 C 0.24684 0.05039 0.04598 0.0
N79 N 0.27547 0.05785 0.04296 0.0
N80 N 0.23376 0.05934 0.12805 0.0
C81 C 0.23145 0.0346 0.96949 0.0
C82 C 0.2557 0.07182 0.17503 0.0
N83 N 0.28034 0.07083 0.12485 0.0
C84 C 0.2538 0.08157 0.27586 0.0
H85 H 0.20828 0.03994 0.97044 0.0
H86 H 0.23376 1.01119 0.98103 0.0
H87 H 0.24071 0.03991 0.9002 0.0
H88 H 0.24263 0.06514 0.31825 0.0
H89 H 0.24102 0.10161 0.27957 0.0
H90 H 0.27507 0.08585 0.30739 0.0
C91 C 0.52897 0.26849 0.1452 0.0
N92 N 0.51327 0.29301 0.12975 0.0
N93 N 0.51281 0.24706 0.18369 0.0
C94 C 0.55998 0.26488 0.12073 0.0
C95 C 0.48665 0.2596 0.18698 0.0
N96 N 0.4874 0.2883 0.16709 0.0
C97 C 0.45941 0.24303 0.20259 0.0
H98 H 0.56474 0.27529 0.05283 0.0
H99 H 0.56575 0.2418 0.11677 0.0
H100 H 0.57327 0.27522 0.17582 0.0
H101 H 0.46023 0.23168 0.27065 0.0
H102 H 0.45731 0.22643 0.14697 0.0
H103 H 0.44038 0.25729 0.19985 0.0
Tb104 Tb 0.99654 0.05236 0.58718 0.0
C105 C 0.07543 0.07634 0.90826 0.0
N106 N 0.08065 0.06371 0.82422 0.0
C107 C 0.12236 0.09304 0.80461 0.0
C108 C 0.09233 0.09926 0.94125 0.0
C109 C 0.10467 0.07057 0.77444 0.0
C110 C 0.11584 0.10785 0.88746 0.0
C111 C 0.04796 0.07703 0.05155 0.0
C112 C 0.05376 0.06527 0.96239 0.0
C113 C 0.06331 0.10124 0.08246 0.0
C114 C 0.0856 0.11226 0.02753 0.0
Tb115 Tb 0.04907 0.02899 0.77706 0.0
N116 N 0.04 0.04151 0.93052 0.0
C117 C 0.02764 0.06348 0.10793 0.0
C118 C 0.02283 0.02636 0.98999 0.0
C119 C 1.01539 0.03774 0.07748 0.0
H120 H 0.10953 0.05934 0.70994 0.0
H121 H 1.00038 0.0265 0.12151 0.0
H122 H 0.93466 0.03503 0.69788 0.0
H123 H 0.03888 1.01752 0.25356 0.0
H124 H 1.01429 1.00574 0.96946 0.0
H125 H 0.02225 0.07197 0.17652 0.0
H126 H 0.03476 0.04962 0.38957 0.0
H127 H 0.14088 0.09905 0.76372 0.0
H128 H 0.05888 0.11087 0.15019 0.0
H129 H 0.09798 0.13027 0.05359 0.0
H130 H 0.89785 0.99821 0.68454 0.0
H131 H 0.12946 0.12534 0.91038 0.0
H132 H 1.0037 0.97859 0.22968 0.0
N133 N 0.9599 1.01927 0.58422 0.0
C134 C 0.95949 1.00189 0.50685 0.0
C135 C 0.91543 0.99854 0.63523 0.0
C136 C 0.93756 0.98149 0.49301 0.0
C137 C 0.93725 1.01884 0.64498 0.0
C138 C 0.91578 0.97951 0.55963 0.0
N139 N 1.00049 0.02632 0.4517 0.0
C140 C 0.02037 0.03166 0.38392 0.0
C141 C 0.98086 0.98777 0.35835 0.0
C142 C 0.98037 1.00554 0.43855 0.0
C143 C 1.00252 0.99182 0.29217 0.0
C144 C 0.02234 1.01388 0.3051 0.0
H145 H 0.89858 0.9641 0.55151 0.0
H146 H 0.92062 0.94889 0.39946 0.0
H147 H 0.95913 0.95344 0.28405 0.0
O148 O 0.99528 0.09016 0.50709 0.0
O149 O 0.01801 1.00925 0.57784 0.0
O150 O 0.01909 0.99485 0.72775 0.0
O151 O 0.95766 0.06447 0.52482 0.0
O152 O 0.04166 0.06391 0.5491 0.0
O153 O 0.06693 0.0301 0.63266 0.0
O154 O 0.07296 1.00434 0.87249 0.0
O155 O 0.04852 0.07511 0.73585 0.0
O156 O 1.00233 0.08508 0.70309 0.0
O157 O 0.08034 1.00086 0.72453 0.0
O158 O 1.00279 0.02148 0.81511 0.0
O159 O 0.97967 0.05614 0.73119 0.0
C160 C 1.01621 0.98808 0.63839 0.0
C161 C 0.95257 0.11345 0.55532 0.0
C162 C 0.95585 0.16124 0.62361 0.0
C163 C 0.93039 0.15691 0.673 0.0
C164 C 0.92702 0.10904 0.60594 0.0
C165 C 0.91606 0.1307 0.66424 0.0
C166 C 0.96643 0.13971 0.56402 0.0
C167 C 0.06496 0.04795 0.56116 0.0
C168 C 0.96731 0.08973 0.50574 0.0
C169 C 0.93759 0.96427 0.41204 0.0
C170 C 0.95953 0.96692 0.34606 0.0
C171 C 0.02673 0.09292 0.74271 0.0
C172 C 0.07741 0.95837 0.80546 0.0
C173 C 0.04259 0.92132 0.83863 0.0
C174 C 0.05894 0.9014 0.78764 0.0
C175 C 0.09395 0.93848 0.75495 0.0
C176 C 0.05163 0.94965 0.84553 0.0
C177 C 0.08459 0.91005 0.74576 0.0
C178 C 0.98091 0.03936 0.80507 0.0
C179 C 0.08419 0.98898 0.8054 0.0
H180 H 0.92154 0.17377 0.71678 0.0
H181 H 0.91585 0.08872 0.60232 0.0
H182 H 0.89647 0.12711 0.70284 0.0
H183 H 0.98576 0.14351 0.52382 0.0
H184 H 0.05263 0.87907 0.78423 0.0
H185 H 0.11356 0.94508 0.7209 0.0
H186 H 0.0387 0.96473 0.88533 0.0
H187 H 0.09732 0.89469 0.70677 0.0
Tb188 Tb 0.53218 0.05013 0.8203 0.0
C189 C 0.53846 0.93872 0.60612 0.0
N190 N 0.55117 0.96496 0.60083 0.0
C191 C 0.5963 0.942 0.56725 0.0
C192 C 0.55429 0.91318 0.5926 0.0
C193 C 0.57979 0.9667 0.58053 0.0
C194 C 0.5835 0.91512 0.5729 0.0
C195 C 0.4966 0.91054 0.64533 0.0
C196 C 0.50978 0.93742 0.63074 0.0
C197 C 0.51187 0.88519 0.62702 0.0
C198 C 0.54064 0.88651 0.60051 0.0
Tb199 Tb 0.51989 1.00333 0.60353 0.0
N200 N 0.49574 0.96243 0.64937 0.0
C201 C 0.46894 0.90988 0.68226 0.0
C202 C 0.4698 0.96151 0.69355 0.0
C203 C 0.45583 0.93547 0.7089 0.0
H204 H 0.59002 0.9868 0.56899 0.0
H205 H 0.43519 0.93516 0.74334 0.0
H206 H 0.47595 0.04557 0.95907 0.0
H207 H 0.61197 0.13381 0.79628 0.0
H208 H 0.46048 0.98026 0.72337 0.0
H209 H 0.4582 0.8897 0.69522 0.0
H210 H 0.59351 0.08469 0.78071 0.0
H211 H 0.61883 0.94378 0.55047 0.0
H212 H 0.50193 0.86441 0.63664 0.0
H213 H 0.55241 0.86674 0.58929 0.0
H214 H 0.44412 0.07853 0.04345 0.0
H215 H 0.59636 0.89602 0.56204 0.0
H216 H 0.58155 0.172 0.86492 0.0
N217 N 0.50325 0.07873 0.90984 0.0
C218 C 0.51025 0.10684 0.91564 0.0
C219 C 0.46258 0.08699 1.00816 0.0
C220 C 0.49324 0.1265 0.96629 0.0
C221 C 0.48054 0.06832 0.95923 0.0
C222 C 0.46866 0.11631 1.01099 0.0
N223 N 0.55229 0.09479 0.83594 0.0
C224 C 0.57975 0.10099 0.80975 0.0
C225 C 0.5457 0.14359 0.88916 0.0
C226 C 0.53591 0.1152 0.87762 0.0
C227 C 0.57316 0.15045 0.85735 0.0
C228 C 0.59041 0.12892 0.81882 0.0
H229 H 0.45487 0.13063 0.05053 0.0
H230 H 0.48914 0.17077 1.01186 0.0
H231 H 0.53528 0.18578 0.94446 0.0
O232 O 0.56041 1.01947 0.87358 0.0
O233 O 0.53599 0.07662 0.69375 0.0
O234 O 0.51456 0.0508 0.57273 0.0
O235 O 0.54168 0.05186 0.96421 0.0
O236 O 0.57246 0.03969 0.73994 0.0
O237 O 0.56 0.02807 0.58818 0.0
O238 O 0.49218 0.99202 0.49267 0.0
O239 O 0.53437 0.98392 0.73818 0.0
O240 O 0.50702 1.01033 0.83323 0.0
O241 O 0.53747 0.99349 0.47266 0.0
O242 O 0.47711 0.02122 0.6504 0.0
O243 O 0.48539 0.04788 0.786 0.0
C244 C 0.52494 0.07529 0.60844 0.0
C245 C 0.58408 0.02862 0.01361 0.0
C246 C 0.61998 0.99962 0.08969 0.0
C247 C 0.63618 0.02453 0.10713 0.0
C248 C 0.59995 0.05351 0.0324 0.0
C249 C 0.62597 0.05139 0.07988 0.0
C250 C 0.59385 1.00179 0.04361 0.0
C251 C 0.57949 0.03555 0.65056 0.0
C252 C 0.55794 0.02917 0.95887 0.0
C253 C 0.502 0.15525 0.97382 0.0
C254 C 0.52827 0.16378 0.93543 0.0
C255 C 0.51911 0.98547 0.81546 0.0
C256 C 0.50981 1.00768 0.34552 0.0
C257 C 0.47973 0.03603 0.24317 0.0
C258 C 0.50389 0.04463 0.19241 0.0
C259 C 0.53391 1.01558 0.29231 0.0
C260 C 0.4828 1.01738 0.3187 0.0
C261 C 0.53088 0.03407 0.21631 0.0
C262 C 0.46754 0.03691 0.72287 0.0
C263 C 0.51293 0.9909 0.43183 0.0
H264 H 0.65706 0.02309 0.13966 0.0
H265 H 0.59254 0.07431 1.00912 0.0
H266 H 0.63857 0.07044 0.09353 0.0
H267 H 0.58168 0.98251 0.02788 0.0
H268 H 0.50198 0.05962 0.13542 0.0
H269 H 0.55515 1.00811 0.31082 0.0
H270 H 0.4641 1.01146 0.35922 0.0
H271 H 0.54954 0.04073 0.17739 0.0
Tb272 Tb 0.55728 0.51425 0.6216 0.0
C273 C 0.45068 0.50038 0.84306 0.0
N274 N 0.45628 0.52292 0.78605 0.0
C275 C 0.4082 0.52078 0.72611 0.0
C276 C 0.42395 0.48632 0.84079 0.0
C277 C 0.43476 0.53446 0.73293 0.0
C278 C 0.40295 0.49623 0.77889 0.0
C279 C 0.46466 0.4722 0.97787 0.0
C280 C 0.47064 0.49348 0.91093 0.0
C281 C 0.43873 0.45706 0.97271 0.0
C282 C 0.41846 0.46401 0.904 0.0
Tb283 Tb 0.50147 0.54201 0.79832 0.0
N284 N 0.49497 0.5093 0.9159 0.0
C285 C 0.48442 0.4676 0.05001 0.0
C286 C 0.51267 0.50714 0.99232 0.0
C287 C 0.50839 0.48534 0.05765 0.0
H288 H 0.43808 0.55418 0.69492 0.0
H289 H 0.52367 0.48206 0.11332 0.0
H290 H 0.61054 0.5563 0.68946 0.0
H291 H 0.51874 0.48476 0.27664 0.0
H292 H 0.53113 0.52102 0.99871 0.0
H293 H 0.48093 0.45106 0.10176 0.0
H294 H 0.5235 0.47997 0.44622 0.0
H295 H 0.39164 0.52947 0.68134 0.0
H296 H 0.43371 0.44064 0.02348 0.0
H297 H 0.39813 0.45283 0.90289 0.0
H298 H 0.64451 0.58995 0.61652 0.0
H299 H 0.38216 0.486 0.77489 0.0
H300 H 0.54786 0.5208 0.19183 0.0
N301 N 0.58762 0.54815 0.56302 0.0
C302 C 0.58685 0.55184 0.46868 0.0
C303 C 0.62826 0.57955 0.57426 0.0
C304 C 0.60667 0.56989 0.42347 0.0
C305 C 0.60885 0.56062 0.61548 0.0
C306 C 0.62703 0.58439 0.47791 0.0
N307 N 0.55103 0.51625 0.46228 0.0
C308 C 0.53456 0.49732 0.41216 0.0
C309 C 0.56745 0.53743 0.31806 0.0
C310 C 0.56761 0.53567 0.41674 0.0
C311 C 0.54884 0.51969 0.26751 0.0
C312 C 0.53243 0.49943 0.31488 0.0
H313 H 0.64252 0.59855 0.44583 0.0
H314 H 0.62168 0.58538 0.28928 0.0
H315 H 0.58711 0.55718 0.19701 0.0
O316 O 0.58412 0.48863 0.53777 0.0
O317 O 0.55192 0.56219 0.63442 0.0
O318 O 0.50488 0.56979 0.67284 0.0
O319 O 0.58797 0.48824 0.6877 0.0
O320 O 0.51182 0.50262 0.5892 0.0
O321 O 0.48578 0.53988 0.65065 0.0
O322 O 0.51042 0.58246 0.85555 0.0
O323 O 0.52589 0.50129 0.81818 0.0
O324 O 0.52833 0.48044 0.67719 0.0
O325 O 0.47138 0.561 0.89015 0.0
O326 O 0.54595 0.55291 0.84152 0.0
O327 O 0.57583 0.52134 0.76339 0.0
C328 C 0.52854 0.57826 0.63045 0.0
C329 C 0.59213 0.44456 0.60961 0.0
C330 C 0.56229 0.4029 0.57928 0.0
C331 C 0.58346 0.38534 0.6196 0.0
C332 C 0.6131 0.42703 0.64983 0.0
C333 C 0.60873 0.39742 0.65465 0.0
C334 C 0.56682 0.43242 0.57506 0.0
C335 C 0.48897 0.51943 0.58708 0.0
C336 C 0.59518 0.47571 0.60961 0.0
C337 C 0.60649 0.57179 0.32533 0.0
C338 C 0.58681 0.55572 0.27276 0.0
C339 C 0.52426 0.47766 0.76781 0.0
C340 C 0.49723 0.58322 0.0144 0.0
C341 C 0.53091 0.60145 0.13372 0.0
C342 C 0.51629 0.58478 0.20083 0.0
C343 C 0.48284 0.56755 0.08342 0.0
C344 C 0.52137 0.59938 0.03989 0.0
C345 C 0.49276 0.56794 0.17556 0.0
C346 C 0.57072 0.53939 0.83301 0.0
C347 C 0.48919 0.5811 0.9141 0.0
H348 H 0.58069 0.36231 0.62288 0.0
H349 H 0.63258 0.43624 0.67819 0.0
H350 H 0.62493 0.38381 0.68565 0.0
H351 H 0.55029 0.44609 0.54618 0.0
H352 H 0.52238 0.58443 0.27352 0.0
H353 H 0.46452 0.55433 0.0659 0.0
H354 H 0.5327 0.60978 0.98407 0.0
H355 H 0.48216 0.55513 0.22808 0.0
Tb356 Tb 0.03768 0.57015 0.63476 0.0
C357 C 0.06657 0.46478 0.86301 0.0
N358 N 0.051 0.46971 0.78397 0.0
C359 C 0.07008 0.42631 0.71581 0.0
C360 C 0.085 0.44082 0.87034 0.0
C361 C 0.05131 0.44966 0.71363 0.0
C362 C 0.08732 0.42205 0.79411 0.0
C363 C 0.07756 0.47798 0.02365 0.0
C364 C 0.06267 0.4828 0.93924 0.0
C365 C 0.0955 0.45394 0.03157 0.0
C366 C 0.09944 0.43557 0.95484 0.0
Tb367 Tb 0.01859 0.50709 0.79447 0.0
N368 N 0.04453 0.50544 0.92996 0.0
C369 C 0.07455 0.49793 0.09656 0.0
C370 C 0.04063 0.52422 1.0025 0.0
C371 C 0.05662 0.52157 0.08438 0.0
H372 H 0.03558 0.44998 0.65948 0.0
H373 H 0.05502 0.53801 0.13726 0.0
H374 H 0.99979 0.6265 0.69704 0.0
H375 H 0.05825 0.52899 0.28798 0.0
H376 H 0.02548 0.54146 0.99776 0.0
H377 H 0.08636 0.49559 0.16146 0.0
H378 H 0.0721 0.54486 0.44526 0.0
H379 H 0.07021 0.41085 0.6589 0.0
H380 H 0.10684 0.44968 0.09625 0.0
H381 H 0.11343 0.41714 0.96195 0.0
H382 H 0.96199 0.65738 0.62826 0.0
H383 H 0.10122 0.40345 0.79693 0.0
H384 H 1.01093 0.54379 0.22144 0.0
N385 N 1.00059 0.59762 0.58116 0.0
C386 C 0.99144 0.59235 0.49266 0.0
C387 C 0.96981 0.63888 0.58986 0.0
C388 C 0.96915 0.6084 0.45203 0.0
C389 C 0.99116 0.6214 0.62863 0.0
C390 C 0.95818 0.63189 0.50216 0.0
N391 N 0.03109 0.56223 0.4773 0.0
C392 C 0.05082 0.54961 0.41982 0.0
C393 C 0.99864 0.56695 0.34681 0.0
C394 C 1.00656 0.57278 0.44019 0.0
C395 C 1.01665 0.54953 0.29266 0.0
C396 C 0.04328 0.54143 0.32898 0.0
H397 H 0.94137 0.64513 0.47289 0.0
H398 H 0.94181 0.61253 0.32988 0.0
H399 H 0.967 0.57499 0.23903 0.0
O400 O 0.06213 0.59907 0.55485 0.0
O401 O 0.99096 0.56371 0.66594 0.0
O402 O 0.98475 0.51568 0.68795 0.0
O403 O 0.05283 0.60751 0.69951 0.0
O404 O 0.05262 0.5262 0.58792 0.0
O405 O 1.01729 0.49735 0.64259 0.0
O406 O 0.98612 0.50133 0.8949 0.0
O407 O 0.06217 0.5271 0.81684 0.0
O408 O 0.0764 0.54542 0.67547 0.0
O409 O 1.00066 0.46629 0.80836 0.0
O410 O 1.00296 0.54999 0.847 0.0
O411 O 0.03748 0.57918 0.78686 0.0
C412 C 0.97441 0.54064 0.66137 0.0
C413 C 0.09361 0.63006 0.64053 0.0
C414 C 0.14253 0.63823 0.59107 0.0
C415 C 0.14593 0.65911 0.66121 0.0
C416 C 0.09712 0.65083 0.71153 0.0
C417 C 0.12323 0.66521 0.72187 0.0
C418 C 0.11638 0.62391 0.58095 0.0
C419 C 0.03692 0.5026 0.57922 0.0
C420 C 0.06555 0.61671 0.62509 0.0
C421 C 0.9596 0.6012 0.36147 0.0
C422 C 0.97403 0.57998 0.30954 0.0
C423 C 0.08284 0.53568 0.75991 0.0
C424 C 0.98726 0.45507 0.96189 0.0
C425 C 0.96651 0.44141 0.11075 0.0
C426 C 0.986 0.41857 0.11708 0.0
C427 C 1.00708 0.43244 0.96923 0.0
C428 C 0.96721 0.45921 0.03213 0.0
C429 C 1.0065 0.41441 0.04705 0.0
C430 C 1.01707 0.57478 0.84831 0.0
C431 C 0.98539 0.47373 0.87989 0.0
H432 H 0.16606 0.67039 0.66937 0.0
H433 H 0.07956 0.65623 0.758 0.0
H434 H 0.12576 0.68124 0.7764 0.0
H435 H 0.11367 0.60832 0.52491 0.0
H436 H 0.98507 0.40377 0.17478 0.0
H437 H 0.02245 0.42816 0.91435 0.0
H438 H 0.95119 0.47585 0.02297 0.0
H439 H 0.02153 0.39684 0.05196 0.0
H440 H 0.19357 0.0968 0.203 0.0
H441 H 0.21047 1.00654 0.15684 0.0
H442 H 0.16851 0.99439 0.25548 0.0
H443 H 0.17261 0.0925 0.44109 0.0
H444 H 0.1443 0.11875 0.43499 0.0
H445 H 0.17401 0.12055 0.35483 0.0
H446 H 0.139 0.11916 0.21434 0.0
H447 H 0.10908 0.11746 0.29393 0.0
H448 H 0.11357 0.09023 0.20498 0.0
H449 H 0.12715 0.99193 0.37571 0.0
H450 H 0.08854 0.99896 0.49133 0.0
H451 H 0.09509 0.09103 0.45845 0.0
C452 C 0.18805 0.07444 0.2118 0.0
C453 C 0.20557 0.0526 0.16974 0.0
C454 C 0.19743 0.02372 0.18522 0.0
C455 C 0.17363 1.01664 0.24253 0.0
C456 C 0.1574 0.03858 0.2846 0.0
C457 C 0.16399 0.06699 0.26845 0.0
C458 C 0.14317 0.08645 0.32306 0.0
C459 C 0.1595 0.10571 0.39261 0.0
C460 C 0.12514 0.10443 0.25506 0.0
C461 C 0.12433 0.06469 0.37474 0.0
C462 C 0.13308 0.03718 0.35129 0.0
C463 C 0.12011 1.01344 0.39298 0.0
C464 C 0.09802 1.01769 0.45949 0.0
C465 C 0.08805 0.04549 0.48503 0.0
C466 C 0.10151 0.06938 0.44043 0.0
H467 H 0.49431 0.19013 0.18275 0.0
H468 H 0.55023 0.24936 0.32912 0.0
H469 H 0.55979 0.21238 0.44918 0.0
H470 H 0.46323 0.16142 0.37655 0.0
H471 H 0.46179 0.12385 0.35205 0.0
H472 H 0.46051 0.14928 0.25683 0.0
H473 H 0.50301 0.13067 0.17192 0.0
H474 H 0.51014 0.10191 0.25313 0.0
H475 H 0.53733 0.12763 0.22833 0.0
H476 H 0.5602 0.16919 0.56272 0.0
H477 H 0.55498 0.12439 0.64962 0.0
H478 H 0.49983 0.09036 0.43111 0.0
C479 C 0.50899 0.19523 0.23904 0.0
C480 C 0.52181 0.22309 0.2445 0.0
C481 C 0.54061 0.22837 0.32095 0.0
C482 C 0.54594 0.2074 0.3905 0.0
C483 C 0.53258 0.18055 0.38399 0.0
C484 C 0.51485 0.17428 0.30923 0.0
C485 C 0.50311 0.14375 0.31951 0.0
C486 C 0.47024 0.14455 0.32614 0.0
C487 C 0.51388 0.12488 0.23826 0.0
C488 C 0.5163 0.13386 0.41226 0.0
C489 C 0.53325 0.15561 0.44812 0.0
C490 C 0.54713 0.15212 0.53393 0.0
C491 C 0.54389 0.12615 0.58358 0.0
C492 C 0.52699 0.10286 0.5493 0.0
C493 C 0.51306 0.10715 0.46095 0.0
H494 H 0.35596 0.56442 0.24995 0.0
H495 H 0.34314 0.47455 0.18491 0.0
H496 H 0.3875 0.46278 0.2733 0.0
H497 H 0.43273 0.56661 0.25503 0.0
H498 H 0.4358 0.58933 0.35729 0.0
H499 H 0.40501 0.59218 0.28156 0.0
H500 H 0.37005 0.58267 0.41602 0.0
H501 H 0.39988 0.58138 0.49601 0.0
H502 H 0.37515 0.55178 0.48952 0.0
H503 H 0.4337 0.46108 0.38215 0.0
H504 H 0.47277 0.46905 0.49722 0.0
H505 H 0.45137 0.55943 0.50833 0.0
C506 C 0.36241 0.54218 0.25355 0.0
C507 C 0.34544 0.52049 0.20898 0.0
C508 C 0.35551 0.49181 0.21567 0.0
C509 C 0.38071 0.4849 0.26734 0.0
C510 C 0.39585 0.50672 0.31442 0.0
C511 C 0.38675 0.53484 0.30816 0.0
C512 C 0.40495 0.55423 0.37129 0.0
C513 C 0.42058 0.57695 0.31291 0.0
C514 C 0.3864 0.56835 0.44772 0.0
C515 C 0.42603 0.53289 0.41402 0.0
C516 C 0.42074 0.50558 0.37956 0.0
C517 C 0.43769 0.48246 0.40901 0.0
C518 C 0.46009 0.48722 0.47481 0.0
C519 C 0.46557 0.51487 0.51339 0.0
C520 C 0.44799 0.53792 0.48154 0.0
H521 H 1.00437 0.35449 0.29166 0.0
H522 H 0.08212 0.36664 0.13268 0.0
H523 H 0.08918 0.41387 0.21186 0.0
H524 H 0.97932 0.43109 0.31884 0.0
H525 H 0.96779 0.42272 0.43504 0.0
H526 H 0.96863 0.39484 0.34705 0.0
H527 H 1.00066 0.3671 0.47045 0.0
H528 H 1.00168 0.39795 0.54714 0.0
H529 H 0.03455 0.38251 0.50432 0.0
H530 H 0.09 0.45955 0.32826 0.0
H531 H 0.08273 0.49638 0.45199 0.0
H532 H 1.003 0.45546 0.52872 0.0
C533 C 0.02259 0.36734 0.27145 0.0
C534 C 0.04247 0.35637 0.20355 0.0
C535 C 0.06614 0.37423 0.18176 0.0
C536 C 0.07045 0.4012 0.22776 0.0
C537 C 0.05106 0.41063 0.29695 0.0
C538 C 0.02739 0.39408 0.31789 0.0
C539 C 1.01084 0.40747 0.39999 0.0
C540 C 0.97977 0.41433 0.37346 0.0
C541 C 1.012 0.38757 0.48551 0.0
C542 C 0.02769 0.43499 0.41875 0.0
C543 C 0.05132 0.43622 0.36073 0.0
C544 C 0.07106 0.45875 0.37174 0.0
C545 C 0.0665 0.48012 0.4422 0.0
C546 C 0.04176 0.48012 0.50048 0.0
C547 C 0.02207 0.45698 0.48602 0.0
H548 H 0.86875 0.99866 0.22917 0.0
H549 H 0.81606 0.06921 0.13294 0.0
H550 H 0.85368 0.08194 0.01865 0.0
H551 H 0.94002 0.03158 0.18854 0.0
H552 H 0.95468 0.99757 0.1514 0.0
H553 H 0.92497 0.9988 0.23233 0.0
H554 H 0.89816 0.96451 0.11674 0.0
H555 H 0.92735 0.96607 0.03451 0.0
H556 H 0.89179 0.97633 0.99848 0.0
H557 H 0.89751 0.08655 0.90992 0.0
H558 H 0.94029 0.08149 0.81221 0.0
H559 H 0.9631 1.00338 0.95903 0.0
C560 C 0.86467 1.01657 0.18356 0.0
C561 C 0.83861 0.0328 0.19195 0.0
C562 C 0.83556 0.05667 0.13134 0.0
C563 C 0.85691 0.06388 0.06477 0.0
C564 C 0.88162 0.0469 0.05672 0.0
C565 C 0.8855 0.02356 0.11418 0.0
C566 C 0.91342 1.00798 0.08775 0.0
C567 C 0.93458 1.00904 0.16989 0.0
C568 C 0.90731 0.97687 0.05758 0.0
C569 C 0.92451 0.02579 1.00539 0.0
C570 C 0.90598 0.04851 0.99048 0.0
C571 C 0.9118 0.06861 0.92108 0.0
C572 C 0.93655 0.0654 0.86518 0.0
C573 C 0.95586 0.04185 0.87518 0.0
C574 C 0.94947 0.02181 0.94799 0.0
H575 H 0.55607 0.82926 0.04461 0.0
H576 H 0.50479 0.85376 0.28466 0.0
H577 H 0.49335 0.9 0.20775 0.0
H578 H 0.58656 0.90013 1.00772 0.0
H579 H 0.5871 0.89679 0.88189 0.0
H580 H 0.58995 0.86524 0.95366 0.0
H581 H 0.5458 0.84275 0.86958 0.0
H582 H 0.54428 0.87408 0.79686 0.0
H583 H 0.5131 0.86327 0.86198 0.0
H584 H 0.48887 0.94577 0.1032 0.0
H585 H 0.4907 0.98414 0.98461 0.0
H586 H 0.54643 0.93127 0.81276 0.0
C587 C 0.54251 0.84431 0.08162 0.0
C588 C 0.53139 0.83727 0.17208 0.0
C589 C 0.51331 0.8579 0.21562 0.0
C590 C 0.5069 0.88454 0.17232 0.0
C591 C 0.51869 0.89091 0.08442 0.0
C592 C 0.53615 0.87123 0.03961 0.0
C593 C 0.54676 0.88353 0.94655 0.0
C594 C 0.57954 0.8866 0.94753 0.0
C595 C 0.53685 0.86477 0.86388 0.0
C596 C 0.53226 0.913 0.94464 0.0
C597 C 0.51626 0.9169 0.02527 0.0
C598 C 0.50128 0.94259 0.04001 0.0
C599 C 0.50247 0.96449 0.97157 0.0
C600 C 0.51852 0.96124 0.88753 0.0
C601 C 0.53369 0.93482 0.875 0.0
H602 H 0.70181 0.49567 0.17874 0.0
H603 H 0.71592 0.58613 0.23262 0.0
H604 H 0.67201 0.59747 0.14238 0.0
H605 H 0.68404 0.5052 0.93797 0.0
H606 H 0.65835 0.47638 0.9341 0.0
H607 H 0.68761 0.47522 0.01629 0.0
H608 H 0.65162 0.4696 0.1529 0.0
H609 H 0.62227 0.47075 0.07088 0.0
H610 H 0.62343 0.4957 0.16776 0.0
H611 H 0.62476 0.5985 0.03845 0.0
H612 H 0.58573 0.58987 0.92347 0.0
H613 H 0.60828 0.4998 0.91313 0.0
C614 C 0.69603 0.51799 0.17148 0.0
C615 C 0.71312 0.53989 0.2145 0.0
C616 C 0.70351 0.56864 0.20362 0.0
C617 C 0.67849 0.57534 0.15096 0.0
C618 C 0.66307 0.55326 0.10657 0.0
C619 C 0.67187 0.52512 0.11567 0.0
C620 C 0.65346 0.50539 0.05434 0.0
C621 C 0.67197 0.48961 0.98135 0.0
C622 C 0.63671 0.48409 0.11511 0.0
C623 C 0.63318 0.52669 1.00759 0.0
C624 C 0.63837 0.55415 0.0409 0.0
C625 C 0.62116 0.57707 1.0113 0.0
C626 C 0.59882 0.57196 0.94561 0.0
C627 C 0.59394 0.54426 0.90662 0.0
C628 C 0.61156 0.52139 0.93929 0.0
H629 H 0.03781 0.72887 0.12128 0.0
H630 H 0.97433 0.70153 0.32179 0.0
H631 H 0.97111 0.65431 0.24082 0.0
H632 H 1.00625 0.69606 0.9212 0.0
H633 H 0.03934 0.68543 0.8661 0.0
H634 H 0.03861 0.71596 0.94405 0.0
H635 H 0.07842 0.69322 0.04543 0.0
H636 H 0.07951 0.66283 0.96683 0.0
H637 H 0.07364 0.65748 0.09028 0.0
H638 H 0.97111 0.61064 0.12289 0.0
H639 H 0.97892 0.57401 0.99878 0.0
H640 H 0.04337 0.62868 0.87436 0.0
C641 C 0.02401 0.71254 0.15027 0.0
C642 C 1.00684 0.7191 0.23075 0.0
C643 C 0.98828 0.69718 0.26287 0.0
C644 C 0.98609 0.67024 0.21607 0.0
C645 C 1.00262 0.66481 0.13574 0.0
C646 C 0.02164 0.68531 0.10409 0.0
C647 C 0.03648 0.67441 0.01473 0.0
C648 C 0.02977 0.69415 0.93161 0.0
C649 C 0.06894 0.67183 0.03025 0.0
C650 C 0.02286 0.64476 1.00048 0.0
C651 C 1.0032 0.63968 0.07068 0.0
C652 C 0.9871 0.61426 0.06965 0.0
C653 C 0.99156 0.59347 0.99767 0.0
C654 C 1.01201 0.59762 0.92527 0.0
C655 C 0.02768 0.62408 0.92785 0.0
H656 H 0.98511 0.26124 0.22804 0.0
H657 H 0.07427 0.24051 0.27007 0.0
H658 H 0.06214 0.21577 0.41816 0.0
H659 H 0.96935 0.27893 0.45444 0.0
H660 H 0.93398 0.26349 0.45753 0.0
H661 H 0.94865 0.27573 0.34823 0.0
H662 H 0.94232 0.22553 0.27021 0.0
H663 H 0.92509 0.21418 0.3762 0.0
H664 H 0.95516 0.19422 0.33074 0.0
H665 H 0.04069 0.20003 0.57097 0.0
H666 H 1.00951 0.1749 0.68208 0.0
H667 H 0.93463 0.20804 0.54164 0.0
C668 C 1.00168 0.2498 0.26564 0.0
C669 C 0.03045 0.2524 0.23885 0.0
C670 C 0.05203 0.23805 0.28978 0.0
C671 C 0.04541 0.22487 0.37502 0.0
C672 C 1.01711 0.22605 0.4058 0.0
C673 C 0.9954 0.23683 0.35041 0.0
C674 C 0.96668 0.23511 0.39801 0.0
C675 C 0.95393 0.26511 0.41554 0.0
C676 C 0.94611 0.21611 0.34048 0.0
C677 C 0.97545 0.22123 0.48886 0.0
C678 C 1.0048 0.21712 0.49337 0.0
C679 C 1.01772 0.203 0.56792 0.0
C680 C 0.99989 0.18949 0.63266 0.0
C681 C 0.9699 0.18919 0.61827 0.0
C682 C 0.95754 0.20818 0.55376 0.0
H683 H 0.31305 0.02608 0.16347 0.0
H684 H 0.3097 0.11865 0.17344 0.0
H685 H 0.36143 0.12018 0.21559 0.0
H686 H 0.36787 1.01526 0.35066 0.0
H687 H 0.3839 0.98597 0.28643 0.0
H688 H 0.34603 0.99276 0.27637 0.0
H689 H 0.35148 0.99591 0.0955 0.0
H690 H 0.38937 0.98974 0.10537 0.0
H691 H 0.37632 0.02125 0.04672 0.0
H692 H 0.4144 0.11109 0.22884 0.0
H693 H 0.4638 0.09191 0.23259 0.0
H694 H 0.43147 1.00545 0.21076 0.0
C695 C 0.32323 0.04651 0.17784 0.0
C696 C 0.30814 0.07223 0.166 0.0
C697 C 0.32145 0.09888 0.18345 0.0
C698 C 0.35058 0.09983 0.20699 0.0
C699 C 0.36546 0.07391 0.21265 0.0
C700 C 0.35208 0.04773 0.19983 0.0
C701 C 0.37298 0.02311 0.20018 0.0
C702 C 0.36737 1.0031 0.28339 0.0
C703 C 0.3725 1.00656 0.1064 0.0
C704 C 0.40045 0.0395 0.21252 0.0
C705 C 0.39576 0.06872 0.22025 0.0
C706 C 0.41823 0.0882 0.2262 0.0
C707 C 0.44613 0.07729 0.22817 0.0
C708 C 0.45114 0.0475 0.22399 0.0
C709 C 0.42804 0.02842 0.21453 0.0
H710 H 0.48136 0.34816 0.15602 0.0
H711 H 0.46431 0.2766 0.34195 0.0
H712 H 0.46328 0.30847 0.47179 0.0
H713 H 0.53456 0.37047 0.25512 0.0
H714 H 0.5304 0.40893 0.25254 0.0
H715 H 0.51202 0.38738 0.16822 0.0
H716 H 0.46376 0.40924 0.21769 0.0
H717 H 0.48216 0.43145 0.30243 0.0
H718 H 0.4531 0.40872 0.33893 0.0
H719 H 0.4886 0.33638 0.58172 0.0
H720 H 0.52947 0.36113 0.65436 0.0
H721 H 0.53631 0.41639 0.41365 0.0
C722 C 0.47739 0.33878 0.22282 0.0
C723 C 0.47486 0.30868 0.23453 0.0
C724 C 0.4667 0.29893 0.32533 0.0
C725 C 0.46611 0.31728 0.40244 0.0
C726 C 0.47404 0.34562 0.39017 0.0
C727 C 0.47841 0.35688 0.30185 0.0
C728 C 0.49323 0.38585 0.30895 0.0
C729 C 0.51912 0.38819 0.24241 0.0
C730 C 0.47178 0.41025 0.29099 0.0
C731 C 0.50209 0.38546 0.41123 0.0
C732 C 0.48899 0.36316 0.4582 0.0
C733 C 0.49796 0.35472 0.54725 0.0
C734 C 0.52141 0.36856 0.58785 0.0
C735 C 0.53559 0.39072 0.54025 0.0
C736 C 0.52514 0.39998 0.4525 0.0
H737 H 0.23099 0.52959 0.2843 0.0
H738 H 0.26365 0.6013 0.12771 0.0
H739 H 0.23241 0.63449 0.21837 0.0
H740 H 0.15561 0.55839 0.32312 0.0
H741 H 0.15525 0.54281 0.43832 0.0
H742 H 0.17489 0.52558 0.34504 0.0
H743 H 0.22017 0.52686 0.45139 0.0
H744 H 0.20098 0.54559 0.54198 0.0
H745 H 0.23319 0.56091 0.49422 0.0
H746 H 0.20299 0.65975 0.34284 0.0
H747 H 0.17238 0.67449 0.47703 0.0
H748 H 0.16272 0.58531 0.55505 0.0
C749 C 0.23004 0.55206 0.2658 0.0
C750 C 0.24865 0.56317 0.19829 0.0
C751 C 0.24862 0.59275 0.17799 0.0
C752 C 0.23124 0.61158 0.22952 0.0
C753 C 0.21423 0.60011 0.30014 0.0
C754 C 0.21302 0.5709 0.31667 0.0
C755 C 0.19558 0.56404 0.40227 0.0
C756 C 0.16874 0.54669 0.37557 0.0
C757 C 0.21358 0.54845 0.4768 0.0
C758 C 0.18799 0.59397 0.43341 0.0
C759 C 0.19861 0.61457 0.3736 0.0
C760 C 0.1943 0.6438 0.38965 0.0
C761 C 0.1774 0.65201 0.46648 0.0
C762 C 0.16549 0.63092 0.52545 0.0
C763 C 0.1717 0.60175 0.51047 0.0
H764 H 0.02271 0.84034 0.26618 0.0
H765 H 0.93912 0.81116 0.17982 0.0
H766 H 0.93697 0.85119 0.06671 0.0
H767 H 0.99773 0.92412 0.23593 0.0
H768 H 0.03498 0.93232 0.21715 0.0
H769 H 0.02475 0.90675 0.30543 0.0
H770 H 0.05341 0.85956 0.10846 0.0
H771 H 0.05877 0.87006 0.22937 0.0
H772 H 0.06818 0.89415 0.13859 0.0
H773 H 0.95677 0.87788 0.92744 0.0
H774 H 0.98849 0.89914 0.80639 0.0
H775 H 0.04977 0.92171 0.02082 0.0
C776 C 1.00239 0.84395 0.23324 0.0
C777 C 0.98134 0.82253 0.23231 0.0
C778 C 0.9561 0.82689 0.17933 0.0
C779 C 0.95438 0.84992 0.11662 0.0
C780 C 0.97668 0.86984 0.11601 0.0
C781 C 0.99896 0.86837 0.17976 0.0
C782 C 0.02161 0.89059 0.16149 0.0
C783 C 0.01965 0.91491 0.2343 0.0
C784 C 0.0522 0.87775 0.15907 0.0
C785 C 1.01171 0.90056 0.06685 0.0
C786 C 0.98545 0.88892 0.04157 0.0
C787 C 0.97632 0.88867 0.94801 0.0
C788 C 0.99454 0.90017 0.8795 0.0
C789 C 0.02115 0.91189 0.9061 0.0
C790 C 0.02903 0.91331 1.00059 0.0
H791 H 0.76124 0.97636 0.13002 0.0
H792 H 0.74166 0.9706 0.42407 0.0
H793 H 0.69665 0.94529 0.38556 0.0
H794 H 0.70955 0.99708 0.04434 0.0
H795 H 0.70424 0.97539 0.94034 0.0
H796 H 0.73895 0.97797 0.99022 0.0
H797 H 0.74158 0.92302 1.00346 0.0
H798 H 0.70625 0.92023 0.95288 0.0
H799 H 0.71392 0.90356 0.06366 0.0
H800 H 0.64924 0.9396 0.31771 0.0
H801 H 0.61 0.96624 0.24296 0.0
H802 H 0.65838 0.97159 0.98783 0.0
C803 C 0.74838 0.96775 0.18605 0.0
C804 C 0.75477 0.97514 0.27935 0.0
C805 C 0.73704 0.96505 0.3519 0.0
C806 C 0.71171 0.95017 0.33039 0.0
C807 C 0.70499 0.94467 0.23623 0.0
C808 C 0.72363 0.95233 0.16509 0.0
C809 C 0.7094 0.9505 0.07016 0.0
C810 C 0.71586 0.97686 1.00809 0.0
C811 C 0.71831 0.92267 0.01965 0.0
C812 C 0.6785 0.94866 0.10094 0.0
C813 C 0.67651 0.94168 0.1955 0.0
C814 C 0.65065 0.94467 0.24399 0.0
C815 C 0.62832 0.95988 0.20121 0.0
C816 C 0.63238 0.9715 0.11152 0.0
C817 C 0.6557 0.96264 0.05703 0.0
H818 H 0.5817 0.75289 0.10998 0.0
H819 H 0.5993 0.74635 0.40478 0.0
H820 H 0.61047 0.69494 0.38489 0.0
H821 H 0.54211 0.70631 0.07692 0.0
H822 H 0.55321 0.68928 0.9692 0.0
H823 H 0.5639 0.72516 0.99287 0.0
H824 H 0.61711 0.71092 0.97341 0.0
H825 H 0.60627 0.67451 0.94865 0.0
H826 H 0.63178 0.68175 0.04055 0.0
H827 H 0.59062 0.64716 0.35477 0.0
H828 H 0.55914 0.60862 0.30713 0.0
H829 H 0.55679 0.64409 0.02572 0.0
C830 C 0.5902 0.74085 0.16825 0.0
C831 C 0.58865 0.75266 0.25887 0.0
C832 C 0.59958 0.73707 0.33512 0.0
C833 C 0.60581 0.70786 0.32431 0.0
C834 C 0.6018 0.69521 0.2364 0.0
C835 C 0.59625 0.71165 0.15765 0.0
C836 C 0.58734 0.69294 0.07559 0.0
C837 C 0.56001 0.70408 0.02621 0.0
C838 C 0.61211 0.68984 1.00546 0.0
C839 C 0.58239 0.66497 0.12605 0.0
C840 C 0.59221 0.66614 0.21721 0.0
C841 C 0.58431 0.64537 0.282 0.0
C842 C 0.56563 0.62343 0.25373 0.0
C843 C 0.55464 0.622 0.16083 0.0
C844 C 0.56452 0.64281 0.09634 0.0
H845 H 0.83441 0.53361 0.23125 0.0
H846 H 0.78969 0.45541 0.30018 0.0
H847 H 0.83546 0.42824 0.29158 0.0
H848 H 0.88181 0.4987 0.06584 0.0
H849 H 0.91106 0.52269 0.09118 0.0
H850 H 0.87475 0.53491 0.10437 0.0
H851 H 0.88572 0.54951 0.276 0.0
H852 H 0.92195 0.5371 0.26092 0.0
H853 H 0.90064 0.5238 0.35518 0.0
H854 H 0.8846 0.40975 0.25925 0.0
H855 H 0.93252 0.40068 0.19272 0.0
H856 H 0.94701 0.49242 0.17626 0.0
C857 C 0.83455 0.51076 0.2444 0.0
C858 C 0.80916 0.49624 0.26673 0.0
C859 C 0.80933 0.46642 0.28247 0.0
C860 C 0.83511 0.45111 0.27906 0.0
C861 C 0.86016 0.46626 0.26051 0.0
C862 C 0.86005 0.49542 0.24283 0.0
C863 C 0.88932 0.50621 0.21617 0.0
C864 C 0.88922 0.51619 0.11335 0.0
C865 C 0.89997 0.53048 0.28108 0.0
C866 C 0.90631 0.47883 0.2272 0.0
C867 C 0.88901 0.45582 0.2498 0.0
C868 C 0.89866 0.42755 0.24394 0.0
C869 C 0.92599 0.42257 0.207 0.0
C870 C 0.94323 0.44588 0.17886 0.0
C871 C 0.93416 0.47422 0.1973 0.0
H872 H 0.99935 0.2373 0.07065 0.0
H873 H 0.08036 0.26977 0.9697 0.0
H874 H 0.08554 0.22647 0.86889 0.0
H875 H 0.01908 0.16228 0.07834 0.0
H876 H 0.9849 0.14899 0.03879 0.0
H877 H 0.98702 0.1828 0.10047 0.0
H878 H 0.96143 0.20784 0.96228 0.0
H879 H 0.95935 0.17408 0.90024 0.0
H880 H 0.97606 0.20454 0.84587 0.0
H881 H 0.08362 0.17615 0.78483 0.0
H882 H 0.07301 0.12829 0.7179 0.0
H883 H 0.99194 0.12741 0.8647 0.0
C884 C 0.01817 0.23553 0.02704 0.0
C885 C 0.03949 0.25785 0.02936 0.0
C886 C 0.06346 0.25391 0.96946 0.0
C887 C 0.06668 0.22895 0.91211 0.0
C888 C 0.04565 0.20735 0.91287 0.0
C889 C 0.02156 0.21066 0.96796 0.0
C890 C 1.00197 0.18427 0.95512 0.0
C891 C 0.99799 0.16867 0.04876 0.0
C892 C 0.97297 0.19322 0.91345 0.0
C893 C 0.01876 0.16544 0.88521 0.0
C894 C 0.04408 0.17916 0.86251 0.0
C895 C 0.06364 0.16571 0.80203 0.0
C896 C 0.05738 0.13816 0.7639 0.0
C897 C 0.03144 0.12341 0.7836 0.0
C898 C 1.01182 0.13776 0.84574 0.0
H899 H 0.32091 0.09268 0.98942 0.0
H900 H 0.28521 1.00834 0.93822 0.0
H901 H 0.32703 0.99654 0.83835 0.0
H902 H 0.35758 0.10026 0.75774 0.0
H903 H 0.38806 0.11838 0.80787 0.0
H904 H 0.35329 0.12209 0.86144 0.0
H905 H 0.3727 0.10333 0.02058 0.0
H906 H 0.40705 0.10314 0.9655 0.0
H907 H 0.39386 0.07089 0.02068 0.0
H908 H 0.37422 0.99583 0.73071 0.0
H909 H 0.42273 1.00042 0.66564 0.0
H910 H 0.43485 0.0791 0.82346 0.0
C911 C 0.32167 0.07161 0.95757 0.0
C912 C 0.29859 0.05173 0.9728 0.0
C913 C 0.30126 0.02464 0.9271 0.0
C914 C 0.32548 1.01759 0.87032 0.0
C915 C 0.34793 0.03744 0.85936 0.0
C916 C 0.34627 0.06383 0.90324 0.0
C917 C 0.37409 0.08067 0.88624 0.0
C918 C 0.36788 0.10691 0.8247 0.0
C919 C 0.38777 0.08996 0.97902 0.0
C920 C 0.3928 0.05886 0.83269 0.0
C921 C 0.37648 0.03487 0.8123 0.0
C922 C 0.38743 1.01383 0.75152 0.0
C923 C 0.41574 1.01643 0.71551 0.0
C924 C 0.43481 0.03862 0.74498 0.0
C925 C 0.4222 0.06071 0.80274 0.0
H926 H 0.48242 0.32107 0.99186 0.0
H927 H 0.56229 0.32537 0.14548 0.0
H928 H 0.57483 0.36997 0.06183 0.0
H929 H 0.50376 0.34824 0.77928 0.0
H930 H 0.47548 0.37349 0.75265 0.0
H931 H 0.46837 0.34225 0.82274 0.0
H932 H 0.45099 0.36842 0.96643 0.0
H933 H 0.45202 0.40073 0.89799 0.0
H934 H 0.47017 0.39925 1.00974 0.0
H935 H 0.57742 0.41734 0.96711 0.0
H936 H 0.5702 0.46106 0.87258 0.0
H937 H 0.48759 0.42917 0.78213 0.0
C938 C 0.50278 0.33115 1.0069 0.0
C939 C 0.52152 0.31881 0.07549 0.0
C940 C 0.5477 0.3334 0.09294 0.0
C941 C 0.55488 0.35921 0.04596 0.0
C942 C 0.53557 0.37119 0.98166 0.0
C943 C 0.50982 0.35775 0.96317 0.0
C944 C 0.49193 0.3762 0.89616 0.0
C945 C 0.48444 0.35913 0.8072 0.0
C946 C 0.46465 0.3868 0.94553 0.0
C947 C 0.51211 0.40149 0.87574 0.0
C948 C 0.537 0.39831 0.92753 0.0
C949 C 0.55812 0.41963 0.92577 0.0
C950 C 0.55387 0.4446 0.8712 0.0
C951 C 0.52878 0.44877 0.81669 0.0
C952 C 0.50757 0.42657 0.81968 0.0
H953 H 0.21756 0.51658 0.12304 0.0
H954 H 0.275 0.54175 0.90091 0.0
H955 H 0.23356 0.54439 0.79168 0.0
H956 H 0.16319 0.47697 0.99227 0.0
H957 H 0.136 0.49274 0.06621 0.0
H958 H 0.17161 0.48856 0.11008 0.0
H959 H 0.16798 0.54355 0.14958 0.0
H960 H 0.13346 0.54606 0.09357 0.0
H961 H 0.16252 0.56855 0.05546 0.0
H962 H 0.18279 0.54605 0.70603 0.0
H963 H 0.13199 0.5463 0.65669 0.0
H964 H 0.10673 0.52533 0.93997 0.0
C965 C 0.22167 0.52286 0.05172 0.0
C966 C 0.25037 0.52849 0.02191 0.0
C967 C 0.25393 0.53622 0.92641 0.0
C968 C 0.23015 0.53824 0.86378 0.0
C969 C 0.20221 0.53325 0.89674 0.0
C970 C 0.19805 0.52603 0.98932 0.0
C971 C 0.166 0.52362 1.01023 0.0
C972 C 0.15884 0.49361 0.04657 0.0
C973 C 0.15695 0.54682 0.08143 0.0
C974 C 0.1524 0.52914 0.91407 0.0
C975 C 0.17369 0.53498 0.84953 0.0
C976 C 0.16628 0.54129 0.75663 0.0
C977 C 0.13698 0.54142 0.72896 0.0
C978 C 0.11442 0.53531 0.79287 0.0
C979 C 0.1228 0.52934 0.88747 0.0
H980 H 0.96687 0.82891 0.44284 0.0
H981 H 0.0565 0.80903 0.40253 0.0
H982 H 0.06951 0.85622 0.47173 0.0
H983 H 0.96725 0.90371 0.39821 0.0
H984 H 0.94241 0.91161 0.49224 0.0
H985 H 0.94254 0.87676 0.43831 0.0
H986 H 0.94834 0.85692 0.60675 0.0
H987 H 0.95141 0.89242 0.65673 0.0
H988 H 0.97953 0.86644 0.67428 0.0
H989 H 0.07207 0.91072 0.52284 0.0
H990 H 0.0651 0.96029 0.58193 0.0
H991 H 0.97433 0.94426 0.61067 0.0
C992 C 0.98931 0.83399 0.45166 0.0
C993 C 1.01059 0.81442 0.41666 0.0
C994 C 0.03965 0.82268 0.42972 0.0
C995 C 0.04723 0.84999 0.46775 0.0
C996 C 0.02573 0.86915 0.49718 0.0
C997 C 0.99736 0.8609 0.49313 0.0
C998 C 0.97844 0.88495 0.53369 0.0
C999 C 0.9564 0.89488 0.46102 0.0
C1000 C 0.96353 0.87459 0.6232 0.0
C1001 C 1.00022 0.90879 0.55642 0.0
C1002 C 0.02744 0.89918 0.53401 0.0
C1003 C 0.05085 0.91784 0.5427 0.0
C1004 C 0.0467 0.94629 0.57676 0.0
C1005 C 0.01939 0.95672 0.60431 0.0
C1006 C 0.99576 0.9373 0.59289 0.0
H1007 H 0.71385 0.02747 0.28092 0.0
H1008 H 0.77163 0.03348 0.517 0.0
H1009 H 0.73012 0.03983 0.62389 0.0
H1010 H 0.65961 0.08073 0.37027 0.0
H1011 H 0.63037 0.06032 0.32136 0.0
H1012 H 0.66522 0.05903 0.2672 0.0
H1013 H 0.66533 1.00266 0.28601 0.0
H1014 H 0.62993 1.00617 0.33608 0.0
H1015 H 0.6579 0.98797 0.39964 0.0
H1016 H 0.67972 0.04215 0.70929 0.0
H1017 H 0.62889 0.04141 0.75882 0.0
H1018 H 0.60293 0.03484 0.46793 0.0
C1019 C 0.71784 0.03087 0.35486 0.0
C1020 C 0.74664 0.03048 0.38948 0.0
C1021 C 0.75027 0.03425 0.4876 0.0
C1022 C 0.72656 0.0377 0.54927 0.0
C1023 C 0.69855 0.03766 0.51329 0.0
C1024 C 0.69421 0.03469 0.41784 0.0
C1025 C 0.66198 0.03459 0.39725 0.0
C1026 C 0.65379 0.06017 0.3353 0.0
C1027 C 0.65323 1.00614 0.35188 0.0
C1028 C 0.6487 0.03746 0.49496 0.0
C1029 C 0.67018 0.03926 0.56138 0.0
C1030 C 0.66302 0.04096 0.65681 0.0
C1031 C 0.63373 0.04058 0.6847 0.0
C1032 C 0.611 0.0383 0.6185 0.0
C1033 C 0.61917 0.03692 0.5217 0.0
H1034 H 0.55142 0.74648 0.47825 0.0
H1035 H 0.51291 0.72485 0.21155 0.0
H1036 H 0.50522 0.67495 0.26629 0.0
H1037 H 0.58946 0.67708 0.51569 0.0
H1038 H 0.5835 0.67987 0.63937 0.0
H1039 H 0.58537 0.71198 0.56991 0.0
H1040 H 0.53509 0.72431 0.64516 0.0
H1041 H 0.5338 0.68998 0.70245 0.0
H1042 H 0.50548 0.70034 0.62374 0.0
H1043 H 0.50102 0.62617 0.35391 0.0
H1044 H 0.50489 0.5834 0.45592 0.0
H1045 H 0.5488 0.63456 0.66529 0.0
C1046 C 0.54088 0.73135 0.43194 0.0
C1047 C 0.53224 0.74025 0.34016 0.0
C1048 C 0.5191 0.71922 0.28216 0.0
C1049 C 0.51486 0.69059 0.31289 0.0
C1050 C 0.52395 0.6825 0.40278 0.0
C1051 C 0.53689 0.70233 0.46142 0.0
C1052 C 0.54539 0.68781 0.55393 0.0
C1053 C 0.57786 0.68937 0.57056 0.0
C1054 C 0.52896 0.70142 0.6362 0.0
C1055 C 0.53589 0.65667 0.53764 0.0
C1056 C 0.52306 0.65424 0.45052 0.0
C1057 C 0.51162 0.62791 0.4211 0.0
C1058 C 0.51389 0.60355 0.47993 0.0
C1059 C 0.52759 0.60497 0.56867 0.0
C1060 C 0.53864 0.63225 0.59749 0.0
H1061 H 0.81411 0.4957 0.46321 0.0
H1062 H 0.80482 0.58469 0.38299 0.0
H1063 H 0.85072 0.59588 0.46213 0.0
H1064 H 0.8516 0.51411 0.69414 0.0
H1065 H 0.87397 0.48262 0.69042 0.0
H1066 H 0.83859 0.48168 0.63956 0.0
H1067 H 0.85952 0.46542 0.4799 0.0
H1068 H 0.8941 0.46487 0.53584 0.0
H1069 H 0.88904 0.48494 0.43102 0.0
H1070 H 0.89791 0.5978 0.55402 0.0
H1071 H 0.94401 0.58987 0.63165 0.0
H1072 H 0.93037 0.4984 0.62616 0.0
C1073 C 0.8215 0.51767 0.46336 0.0
C1074 C 0.80501 0.53944 0.41646 0.0
C1075 C 0.81599 0.56776 0.41953 0.0
C1076 C 0.84247 0.5742 0.46364 0.0
C1077 C 0.85849 0.5522 0.50536 0.0
C1078 C 0.84842 0.52439 0.50599 0.0
C1079 C 0.87029 0.50489 0.55619 0.0
C1080 C 0.85788 0.49525 0.65065 0.0
C1081 C 0.87868 0.47856 0.49702 0.0
C1082 C 0.89568 0.52536 0.57269 0.0
C1083 C 0.88735 0.55283 0.54828 0.0
C1084 C 0.905 0.57616 0.56841 0.0
C1085 C 0.93194 0.57143 0.61056 0.0
C1086 C 0.9431 0.54363 0.62718 0.0
C1087 C 0.92381 0.52011 0.61033 0.0
loop_
_geom_bond_atom_site_label_1
_geom_bond_atom_site_label_2
_geom_bond_distance
_geom_bond_site_symmetry_2
_ccdc_geom_bond_type
C0 N1 1.317 . S
C0 N2 1.348 . S
C0 C3 1.485 . S
N1 C0 1.317 . S
N1 N5 1.370 . S
N2 C0 1.348 . S
N2 C4 1.346 . S
C3 C0 1.485 . S
C3 H7 0.960 . S
C3 H8 0.961 . S
C3 H9 0.960 . S
C4 N2 1.346 . S
C4 N5 1.307 . S
C4 C6 1.486 . S
N5 N1 1.370 . S
N5 C4 1.307 . S
C6 C4 1.486 . S
C6 H10 0.960 . S
C6 H11 0.960 . S
C6 H12 0.959 . S
H7 C3 0.960 . S
H8 C3 0.961 . S
H9 C3 0.960 . S
H10 C6 0.960 . S
H11 C6 0.960 . S
H12 C6 0.959 . S
C13 N14 1.317 . S
C13 N15 1.348 . S
C13 C16 1.485 . S
N14 C13 1.317 . S
N14 N18 1.370 . S
N15 C13 1.348 . S
N15 C17 1.346 . S
C16 C13 1.485 . S
C16 H20 0.960 . S
C16 H21 0.961 . S
C16 H22 0.960 . S
C17 N15 1.346 . S
C17 N18 1.307 . S
C17 C19 1.486 . S
N18 N14 1.370 . S
N18 C17 1.307 . S
C19 C17 1.486 . S
C19 H23 0.960 . S
C19 H24 0.960 . S
C19 H25 0.959 . S
H20 C16 0.960 . S
H21 C16 0.961 . S
H22 C16 0.960 . S
H23 C19 0.960 . S
H24 C19 0.960 . S
H25 C19 0.959 . S
C26 N27 1.317 . S
C26 N28 1.348 . S
C26 C29 1.485 . S
N27 C26 1.317 . S
N27 N31 1.370 . S
N28 C26 1.348 . S
N28 C30 1.346 . S
C29 C26 1.485 . S
C29 H33 0.999 . S
C29 H34 0.961 . S
C29 H35 0.960 . S
C30 N28 1.346 . S
C30 N31 1.307 . S
C30 C32 1.486 . S
N31 N27 1.370 . S
N31 C30 1.307 . S
C32 C30 1.486 . S
C32 H36 0.960 . S
C32 H37 0.971 . S
C32 H38 0.959 . S
H33 C29 0.999 . S
H34 C29 0.961 . S
H35 C29 0.960 . S
H36 C32 0.960 . S
H37 C32 0.971 . S
H38 C32 0.959 . S
C39 N40 1.317 . S
C39 N41 1.348 . S
C39 C42 1.485 . S
N40 C39 1.317 . S
N40 N44 1.370 . S
N41 C39 1.348 . S
N41 C43 1.346 . S
C42 C39 1.485 . S
C42 H46 0.960 . S
C42 H47 0.961 . S
C42 H48 0.960 . S
C43 N41 1.346 . S
C43 N44 1.307 . S
C43 C45 1.486 . S
N44 N40 1.370 . S
N44 C43 1.307 . S
C45 C43 1.486 . S
C45 H49 0.960 . S
C45 H50 0.960 . S
C45 H51 0.959 . S
H46 C42 0.960 . S
H47 C42 0.961 . S
H48 C42 0.960 . S
H49 C45 0.960 . S
H50 C45 0.960 . S
H51 C45 0.959 . S
C52 N53 1.317 . S
C52 N54 1.348 1_556 S
C52 C55 1.485 . S
N53 C52 1.317 . S
N53 N57 1.370 1_556 S
N54 C52 1.348 1_554 S
N54 C56 1.346 . S
C55 C52 1.485 . S
C55 H59 0.960 . S
C55 H60 0.961 . S
C55 H61 0.960 . S
C56 N54 1.346 . S
C56 N57 1.307 . S
C56 C58 1.486 . S
N57 N53 1.370 1_554 S
N57 C56 1.307 . S
C58 C56 1.486 . S
C58 H62 0.960 . S
C58 H63 0.960 . S
C58 H64 0.959 . S
H59 C55 0.960 . S
H60 C55 0.961 . S
H61 C55 0.960 . S
H62 C58 0.960 . S
H63 C58 0.960 . S
H64 C58 0.959 . S
C65 N66 1.318 . S
C65 N67 1.348 1_556 S
C65 C68 1.485 . S
N66 C65 1.318 . S
N66 N70 1.360 1_556 S
N67 C65 1.348 1_554 S
N67 C69 1.346 . S
C68 C65 1.485 . S
C68 H72 0.960 . S
C68 H73 0.961 . S
C68 H74 0.960 . S
C69 N67 1.346 . S
C69 N70 1.307 . S
C69 C71 1.486 . S
N70 N66 1.360 1_554 S
N70 C69 1.307 . S
C71 C69 1.486 . S
C71 H75 0.960 . S
C71 H76 0.960 . S
C71 H77 0.959 . S
H72 C68 0.960 . S
H73 C68 0.961 . S
H74 C68 0.960 . S
H75 C71 0.960 . S
H76 C71 0.960 . S
H77 C71 0.959 . S
C78 N79 1.317 . S
C78 N80 1.348 1_556 S
C78 C81 1.485 . S
N79 C78 1.317 . S
N79 N83 1.370 1_556 S
N80 C78 1.348 1_554 S
N80 C82 1.346 . S
C81 C78 1.485 . S
C81 H85 0.960 . S
C81 H86 0.961 . S
C81 H87 0.960 . S
C82 N80 1.346 . S
C82 N83 1.307 . S
C82 C84 1.486 . S
N83 N79 1.370 1_554 S
N83 C82 1.307 . S
C84 C82 1.486 . S
C84 H88 0.960 . S
C84 H89 0.960 . S
C84 H90 0.959 . S
H85 C81 0.960 . S
H86 C81 0.961 . S
H87 C81 0.960 . S
H88 C84 0.960 . S
H89 C84 0.960 . S
H90 C84 0.959 . S
C91 N92 1.317 . S
C91 N93 1.348 1_556 S
C91 C94 1.485 . S
N92 C91 1.317 . S
N92 N96 1.370 1_556 S
N93 C91 1.348 1_554 S
N93 C95 1.346 . S
C94 C91 1.485 . S
C94 H98 0.960 . S
C94 H99 0.961 . S
C94 H100 0.960 . S
C95 N93 1.346 . S
C95 N96 1.307 . S
C95 C97 1.486 . S
N96 N92 1.370 1_554 S
N96 C95 1.307 . S
C97 C95 1.486 . S
C97 H101 0.960 . S
C97 H102 0.960 . S
C97 H103 0.959 . S
H98 C94 0.960 . S
H99 C94 0.961 . S
H100 C94 0.960 . S
H101 C97 0.960 . S
H102 C97 0.960 . S
H103 C97 0.959 . S
Tb104 N133 2.617 . S
Tb104 N139 2.572 . S
Tb104 O148 2.473 . S
Tb104 O149 2.387 1_545 S
Tb104 O151 2.428 . S
Tb104 O152 2.308 1_655 S
Tb104 O156 2.349 1_655 S
Tb104 O159 2.393 . S
Tb104 C168 2.802 . S
C105 N106 1.379 . S
C105 C108 1.416 . S
C105 C112 1.421 1_556 S
N106 C105 1.379 . S
N106 C109 1.334 . S
N106 Tb115 2.617 1_545 S
C107 C109 1.390 . S
C107 C110 1.339 . S
C107 H127 0.930 . S
C108 C105 1.416 . S
C108 C110 1.416 . S
C108 C114 1.448 1_556 S
C109 N106 1.334 . S
C109 C107 1.390 . S
C109 H120 0.930 1_545 S
C110 C107 1.339 . S
C110 C108 1.416 . S
C110 H131 0.930 . S
C111 C112 1.416 . S
C111 C113 1.427 . S
C111 C117 1.416 . S
C112 C105 1.421 1_554 S
C112 C111 1.416 . S
C112 N116 1.360 1_554 S
C113 C111 1.427 . S
C113 C114 1.328 . S
C113 H128 0.929 . S
C114 C108 1.448 1_554 S
C114 C113 1.328 . S
C114 H129 0.930 . S
Tb115 N106 2.617 1_565 S
Tb115 N116 2.572 1_565 S
Tb115 O150 2.349 . S
Tb115 O153 2.393 . S
Tb115 O154 2.465 . S
Tb115 O155 2.387 1_565 S
Tb115 O157 2.428 . S
Tb115 O158 2.308 1_465 S
Tb115 C179 2.802 . S
N116 C112 1.360 1_556 S
N116 Tb115 2.572 1_545 S
N116 C118 1.340 1_556 S
C117 C111 1.416 . S
C117 C119 1.332 . S
C117 H125 0.931 . S
C118 N116 1.340 1_554 S
C118 C119 1.407 . S
C118 H124 0.930 1_455 S
C119 C117 1.332 . S
C119 C118 1.407 . S
C119 H121 0.926 . S
H120 C109 0.930 1_565 S
H121 C119 0.926 . S
H122 C137 0.930 . S
H123 C144 0.955 . S
H124 C118 0.930 1_655 S
H125 C117 0.931 . S
H126 C140 0.930 . S
H127 C107 0.930 . S
H128 C113 0.929 . S
H129 C114 0.930 . S
H130 C135 0.930 . S
H131 C110 0.930 . S
H132 C143 0.931 . S
N133 Tb104 2.617 . S
N133 C134 1.379 . S
N133 C137 1.334 . S
C134 N133 1.379 . S
C134 C136 1.416 1_545 S
C134 C142 1.421 1_545 S
C135 H130 0.930 . S
C135 C137 1.390 . S
C135 C138 1.339 1_545 S
C136 C134 1.416 1_565 S
C136 C138 1.416 . S
C136 C169 1.448 . S
C137 H122 0.930 . S
C137 N133 1.334 . S
C137 C135 1.390 . S
C138 C135 1.339 1_565 S
C138 C136 1.416 . S
C138 H145 0.930 . S
N139 Tb104 2.572 . S
N139 C140 1.340 1_655 S
N139 C142 1.351 1_545 S
C140 H126 0.930 . S
C140 N139 1.340 1_455 S
C140 C144 1.408 1_545 S
C141 C142 1.426 . S
C141 C143 1.416 . S
C141 C170 1.427 . S
C142 C134 1.421 1_565 S
C142 N139 1.351 1_565 S
C142 C141 1.426 . S
C143 H132 0.931 . S
C143 C141 1.416 . S
C143 C144 1.305 1_655 S
C144 H123 0.955 . S
C144 C140 1.408 1_565 S
C144 C143 1.305 1_455 S
H145 C138 0.930 . S
H146 C169 0.930 . S
H147 C170 0.929 . S
O148 Tb104 2.473 . S
O148 C168 1.285 . S
O149 Tb104 2.387 1_565 S
O149 C160 1.264 . S
O150 Tb115 2.349 . S
O150 C160 1.243 1_455 S
O151 Tb104 2.428 . S
O151 C168 1.256 . S
O152 Tb104 2.308 1_455 S
O152 C167 1.266 . S
O153 Tb115 2.393 . S
O153 C167 1.248 1_565 S
O154 Tb115 2.465 . S
O154 C179 1.264 . S
O155 Tb115 2.387 1_545 S
O155 C171 1.264 . S
O156 Tb104 2.349 1_455 S
O156 C171 1.243 . S
O157 Tb115 2.428 . S
O157 C179 1.256 . S
O158 Tb115 2.308 1_645 S
O158 C178 1.266 . S
O159 Tb104 2.393 . S
O159 C178 1.248 . S
C160 O149 1.264 . S
C160 O150 1.243 1_655 S
C161 C164 1.399 . S
C161 C166 1.383 . S
C161 C168 1.496 . S
C162 C163 1.399 . S
C162 C166 1.389 . S
C163 C162 1.399 . S
C163 C165 1.380 . S
C163 H180 0.929 . S
C164 C161 1.399 . S
C164 C165 1.392 . S
C164 H181 0.929 . S
C165 C163 1.380 . S
C165 C164 1.392 . S
C165 H182 0.929 . S
C166 C161 1.383 . S
C166 C162 1.389 . S
C166 H183 0.931 1_655 S
C167 O152 1.266 . S
C167 O153 1.248 1_545 S
C168 Tb104 2.802 . S
C168 O148 1.285 . S
C168 O151 1.256 . S
C168 C161 1.496 . S
C169 C136 1.448 . S
C169 H146 0.930 . S
C169 C170 1.328 . S
C170 C141 1.427 . S
C170 H147 0.929 . S
C170 C169 1.328 . S
C171 O155 1.264 . S
C171 O156 1.243 . S
C172 C175 1.399 . S
C172 C176 1.383 . S
C172 C179 1.496 . S
C173 C174 1.399 . S
C173 C176 1.389 1_554 S
C174 C173 1.399 . S
C174 C177 1.380 1_554 S
C174 H184 0.929 . S
C175 C172 1.399 . S
C175 C177 1.392 . S
C175 H185 0.929 . S
C176 C172 1.383 . S
C176 C173 1.389 1_556 S
C176 H186 0.931 1_556 S
C177 C174 1.380 1_556 S
C177 C175 1.392 . S
C177 H187 0.929 . S
C178 O158 1.266 . S
C178 O159 1.248 . S
C179 Tb115 2.802 . S
C179 O154 1.264 . S
C179 O157 1.256 . S
C179 C172 1.496 . S
H180 C163 0.929 . S
H181 C164 0.929 . S
H182 C165 0.929 . S
H183 C166 0.931 1_455 S
H184 C174 0.929 . S
H185 C175 0.929 . S
H186 C176 0.931 1_554 S
H187 C177 0.929 . S
Tb188 N217 2.617 . S
Tb188 N223 2.572 . S
Tb188 O232 2.465 . S
Tb188 O233 2.387 . S
Tb188 O235 2.428 . S
Tb188 O236 2.308 . S
Tb188 O240 2.349 1_545 S
Tb188 O243 2.393 . S
Tb188 C252 2.802 . S
C189 N190 1.379 . S
C189 C192 1.416 . S
C189 C196 1.424 . S
N190 C189 1.379 . S
N190 C193 1.334 . S
N190 Tb199 2.617 . S
C191 C193 1.390 . S
C191 C194 1.339 . S
C191 H211 0.930 . S
C192 C189 1.416 . S
C192 C194 1.416 . S
C192 C198 1.448 . S
C193 N190 1.334 . S
C193 C191 1.390 . S
C193 H204 0.930 . S
C194 C191 1.339 . S
C194 C192 1.416 . S
C194 H215 0.930 . S
C195 C196 1.413 . S
C195 C197 1.427 . S
C195 C201 1.416 . S
C196 C189 1.424 . S
C196 C195 1.413 . S
C196 N200 1.361 . S
C197 C195 1.427 . S
C197 C198 1.328 . S
C197 H212 0.929 . S
C198 C192 1.448 . S
C198 C197 1.328 . S
C198 H213 0.930 . S
Tb199 N190 2.617 . S
Tb199 N200 2.572 . S
Tb199 O234 2.349 1_565 S
Tb199 O237 2.393 . S
Tb199 O238 2.465 . S
Tb199 O239 2.387 . S
Tb199 O241 2.428 . S
Tb199 O242 2.308 1_565 S
Tb199 C263 2.802 . S
N200 C196 1.361 . S
N200 Tb199 2.572 . S
N200 C202 1.340 . S
C201 C195 1.416 . S
C201 C203 1.332 . S
C201 H209 0.931 . S
C202 N200 1.340 . S
C202 C203 1.407 . S
C202 H208 0.930 . S
C203 C201 1.332 . S
C203 C202 1.407 . S
C203 H205 0.929 . S
H204 C193 0.930 . S
H205 C203 0.929 . S
H206 C221 0.930 . S
H207 C228 0.929 . S
H208 C202 0.930 . S
H209 C201 0.931 . S
H210 C224 0.930 . S
H211 C191 0.930 . S
H212 C197 0.929 . S
H213 C198 0.930 . S
H214 C219 0.930 . S
H215 C194 0.930 . S
H216 C227 0.931 . S
N217 Tb188 2.617 . S
N217 C218 1.379 . S
N217 C221 1.334 . S
C218 N217 1.379 . S
C218 C220 1.416 . S
C218 C226 1.424 . S
C219 H214 0.930 . S
C219 C221 1.390 . S
C219 C222 1.339 . S
C220 C218 1.416 . S
C220 C222 1.416 . S
C220 C253 1.448 . S
C221 H206 0.930 . S
C221 N217 1.334 . S
C221 C219 1.390 . S
C222 C219 1.339 . S
C222 C220 1.416 . S
C222 H229 0.930 . S
N223 Tb188 2.572 . S
N223 C224 1.340 . S
N223 C226 1.361 . S
C224 H210 0.930 . S
C224 N223 1.340 . S
C224 C228 1.407 . S
C225 C226 1.413 . S
C225 C227 1.416 . S
C225 C254 1.427 . S
C226 C218 1.424 . S
C226 N223 1.361 . S
C226 C225 1.413 . S
C227 H216 0.931 . S
C227 C225 1.416 . S
C227 C228 1.332 . S
C228 H207 0.929 . S
C228 C224 1.407 . S
C228 C227 1.332 . S
H229 C222 0.930 . S
H230 C253 0.930 . S
H231 C254 0.929 . S
O232 Tb188 2.465 . S
O232 C252 1.264 . S
O233 Tb188 2.387 . S
O233 C244 1.264 . S
O234 Tb199 2.349 1_545 S
O234 C244 1.243 . S
O235 Tb188 2.428 . S
O235 C252 1.256 . S
O236 Tb188 2.308 . S
O236 C251 1.266 . S
O237 Tb199 2.393 . S
O237 C251 1.248 1_565 S
O238 Tb199 2.465 . S
O238 C263 1.264 . S
O239 Tb199 2.387 . S
O239 C255 1.264 . S
O240 Tb188 2.349 1_565 S
O240 C255 1.243 . S
O241 Tb199 2.428 . S
O241 C263 1.256 . S
O242 Tb199 2.308 1_545 S
O242 C262 1.266 . S
O243 Tb188 2.393 . S
O243 C262 1.248 . S
C244 O233 1.264 . S
C244 O234 1.243 . S
C245 C248 1.399 . S
C245 C250 1.383 . S
C245 C252 1.496 1_554 S
C246 C247 1.399 . S
C246 C250 1.389 . S
C247 C246 1.399 . S
C247 C249 1.380 . S
C247 H264 0.929 . S
C248 C245 1.399 . S
C248 C249 1.392 . S
C248 H265 0.929 . S
C249 C247 1.380 . S
C249 C248 1.392 . S
C249 H266 0.929 . S
C250 C245 1.383 . S
C250 C246 1.389 . S
C250 H267 0.931 1_554 S
C251 O236 1.266 . S
C251 O237 1.248 1_545 S
C252 Tb188 2.802 . S
C252 O232 1.264 . S
C252 O235 1.256 . S
C252 C245 1.496 1_556 S
C253 C220 1.448 . S
C253 H230 0.930 . S
C253 C254 1.328 . S
C254 C225 1.427 . S
C254 H231 0.929 . S
C254 C253 1.328 . S
C255 O239 1.264 . S
C255 O240 1.243 . S
C256 C259 1.399 . S
C256 C260 1.383 1_565 S
C256 C263 1.496 . S
C257 C258 1.399 1_545 S
C257 C260 1.389 . S
C258 C257 1.399 1_565 S
C258 C261 1.380 . S
C258 H268 0.929 . S
C259 C256 1.399 . S
C259 C261 1.392 . S
C259 H269 0.929 . S
C260 C256 1.383 1_545 S
C260 C257 1.389 . S
C260 H270 0.931 . S
C261 C258 1.380 . S
C261 C259 1.392 . S
C261 H271 0.929 . S
C262 O242 1.266 . S
C262 O243 1.248 . S
C263 Tb199 2.802 . S
C263 O238 1.264 . S
C263 O241 1.256 . S
C263 C256 1.496 . S
H264 C247 0.929 . S
H265 C248 0.929 . S
H266 C249 0.929 . S
H267 C250 0.931 1_556 S
H268 C258 0.929 . S
H269 C259 0.929 . S
H270 C260 0.931 . S
H271 C261 0.929 . S
Tb272 N301 2.617 . S
Tb272 N307 2.572 . S
Tb272 O316 2.465 . S
Tb272 O317 2.387 . S
Tb272 O319 2.428 . S
Tb272 O320 2.308 . S
Tb272 O324 2.349 . S
Tb272 O327 2.393 . S
Tb272 C336 2.802 . S
C273 N274 1.379 . S
C273 C276 1.416 . S
C273 C280 1.421 1_556 S
N274 C273 1.379 . S
N274 C277 1.334 . S
N274 Tb283 2.617 . S
C275 C277 1.390 . S
C275 C278 1.339 . S
C275 H295 0.930 . S
C276 C273 1.416 . S
C276 C278 1.416 . S
C276 C282 1.448 1_556 S
C277 N274 1.334 . S
C277 C275 1.390 . S
C277 H288 0.930 . S
C278 C275 1.339 . S
C278 C276 1.416 . S
C278 H299 0.930 . S
C279 C280 1.416 . S
C279 C281 1.427 . S
C279 C285 1.416 . S
C280 C273 1.421 1_554 S
C280 C279 1.416 . S
C280 N284 1.360 1_554 S
C281 C279 1.427 . S
C281 C282 1.328 . S
C281 H296 0.929 . S
C282 C276 1.448 1_554 S
C282 C281 1.328 . S
C282 H297 0.930 . S
Tb283 N274 2.617 . S
Tb283 N284 2.572 . S
Tb283 O318 2.349 . S
Tb283 O321 2.393 . S
Tb283 O322 2.465 . S
Tb283 O323 2.387 . S
Tb283 O325 2.428 . S
Tb283 O326 2.308 . S
Tb283 C347 2.802 . S
N284 C280 1.360 1_556 S
N284 Tb283 2.572 . S
N284 C286 1.340 1_556 S
C285 C279 1.416 . S
C285 C287 1.332 . S
C285 H293 0.931 . S
C286 N284 1.340 1_554 S
C286 C287 1.407 . S
C286 H292 0.930 . S
C287 C285 1.332 . S
C287 C286 1.407 . S
C287 H289 0.929 . S
H288 C277 0.930 . S
H289 C287 0.929 . S
H290 C305 0.930 . S
H291 C312 0.929 . S
H292 C286 0.930 . S
H293 C285 0.931 . S
H294 C308 0.930 . S
H295 C275 0.930 . S
H296 C281 0.929 . S
H297 C282 0.930 . S
H298 C303 0.930 . S
H299 C278 0.930 . S
H300 C311 0.931 . S
N301 Tb272 2.617 . S
N301 C302 1.379 . S
N301 C305 1.334 . S
C302 N301 1.379 . S
C302 C304 1.416 . S
C302 C310 1.424 . S
C303 H298 0.930 . S
C303 C305 1.390 . S
C303 C306 1.339 . S
C304 C302 1.416 . S
C304 C306 1.416 . S
C304 C337 1.448 . S
C305 H290 0.930 . S
C305 N301 1.334 . S
C305 C303 1.390 . S
C306 C303 1.339 . S
C306 C304 1.416 . S
C306 H313 0.930 . S
N307 Tb272 2.572 . S
N307 C308 1.340 . S
N307 C310 1.361 . S
C308 H294 0.930 . S
C308 N307 1.340 . S
C308 C312 1.407 . S
C309 C310 1.413 . S
C309 C311 1.416 . S
C309 C338 1.427 . S
C310 C302 1.424 . S
C310 N307 1.361 . S
C310 C309 1.413 . S
C311 H300 0.931 . S
C311 C309 1.416 . S
C311 C312 1.332 . S
C312 H291 0.929 . S
C312 C308 1.407 . S
C312 C311 1.332 . S
H313 C306 0.930 . S
H314 C337 0.930 . S
H315 C338 0.929 . S
O316 Tb272 2.465 . S
O316 C336 1.264 . S
O317 Tb272 2.387 . S
O317 C328 1.264 . S
O318 Tb283 2.349 . S
O318 C328 1.243 . S
O319 Tb272 2.428 . S
O319 C336 1.256 . S
O320 Tb272 2.308 . S
O320 C335 1.266 . S
O321 Tb283 2.393 . S
O321 C335 1.248 . S
O322 Tb283 2.465 . S
O322 C347 1.264 . S
O323 Tb283 2.387 . S
O323 C339 1.264 . S
O324 Tb272 2.349 . S
O324 C339 1.243 . S
O325 Tb283 2.428 . S
O325 C347 1.256 . S
O326 Tb283 2.308 . S
O326 C346 1.266 . S
O327 Tb272 2.393 . S
O327 C346 1.248 . S
C328 O317 1.264 . S
C328 O318 1.243 . S
C329 C332 1.399 . S
C329 C334 1.383 . S
C329 C336 1.496 . S
C330 C331 1.399 . S
C330 C334 1.389 . S
C331 C330 1.399 . S
C331 C333 1.380 . S
C331 H348 0.929 . S
C332 C329 1.399 . S
C332 C333 1.392 . S
C332 H349 0.929 . S
C333 C331 1.380 . S
C333 C332 1.392 . S
C333 H350 0.929 . S
C334 C329 1.383 . S
C334 C330 1.389 . S
C334 H351 0.931 . S
C335 O320 1.266 . S
C335 O321 1.248 . S
C336 Tb272 2.802 . S
C336 O316 1.264 . S
C336 O319 1.256 . S
C336 C329 1.496 . S
C337 C304 1.448 . S
C337 H314 0.930 . S
C337 C338 1.328 . S
C338 C309 1.427 . S
C338 H315 0.929 . S
C338 C337 1.328 . S
C339 O323 1.264 . S
C339 O324 1.243 . S
C340 C343 1.399 . S
C340 C344 1.381 1_556 S
C340 C347 1.496 . S
C341 C342 1.399 . S
C341 C344 1.391 . S
C342 C341 1.399 . S
C342 C345 1.380 1_554 S
C342 H352 0.929 . S
C343 C340 1.399 . S
C343 C345 1.392 . S
C343 H353 0.929 . S
C344 C340 1.381 1_554 S
C344 C341 1.391 . S
C344 H354 0.931 . S
C345 C342 1.380 1_556 S
C345 C343 1.392 . S
C345 H355 0.929 . S
C346 O326 1.266 . S
C346 O327 1.248 . S
C347 Tb283 2.802 . S
C347 O322 1.264 . S
C347 O325 1.256 . S
C347 C340 1.496 . S
H348 C331 0.929 . S
H349 C332 0.929 . S
H350 C333 0.929 . S
H351 C334 0.931 . S
H352 C342 0.929 . S
H353 C343 0.929 . S
H354 C344 0.931 . S
H355 C345 0.929 . S
Tb356 N385 2.617 . S
Tb356 N391 2.572 . S
Tb356 O400 2.465 . S
Tb356 O401 2.387 1_455 S
Tb356 O403 2.428 . S
Tb356 O404 2.308 . S
Tb356 O408 2.349 . S
Tb356 O411 2.393 . S
Tb356 C420 2.802 . S
C357 N358 1.379 . S
C357 C360 1.416 . S
C357 C364 1.422 1_556 S
N358 C357 1.379 . S
N358 C361 1.334 1_455 S
N358 Tb367 2.617 1_455 S
C359 C361 1.389 1_455 S
C359 C362 1.339 . S
C359 H379 0.930 . S
C360 C357 1.416 . S
C360 C362 1.416 . S
C360 C366 1.448 1_556 S
C361 N358 1.334 1_655 S
C361 C359 1.389 1_655 S
C361 H372 0.931 . S
C362 C359 1.339 . S
C362 C360 1.416 . S
C362 H383 0.930 . S
C363 C364 1.414 . S
C363 C365 1.427 . S
C363 C369 1.416 . S
C364 C357 1.422 1_554 S
C364 C363 1.414 . S
C364 N368 1.361 1_554 S
C365 C363 1.427 . S
C365 C366 1.328 . S
C365 H380 0.929 . S
C366 C360 1.448 1_554 S
C366 C365 1.328 . S
C366 H381 0.930 . S
Tb367 N358 2.617 1_655 S
Tb367 N368 2.572 1_655 S
Tb367 O402 2.349 . S
Tb367 O405 2.393 . S
Tb367 O406 2.465 . S
Tb367 O407 2.387 1_655 S
Tb367 O409 2.428 . S
Tb367 O410 2.308 1_655 S
Tb367 C431 2.802 . S
N368 C364 1.361 1_556 S
N368 Tb367 2.572 1_455 S
N368 C370 1.340 1_556 S
C369 C363 1.416 . S
C369 C371 1.332 . S
C369 H377 0.931 . S
C370 N368 1.340 1_554 S
C370 C371 1.407 . S
C370 H376 0.930 . S
C371 C369 1.332 . S
C371 C370 1.407 . S
C371 H373 0.929 . S
H372 C361 0.931 . S
H373 C371 0.929 . S
H374 C389 0.930 . S
H375 C396 0.929 . S
H376 C370 0.930 . S
H377 C369 0.931 . S
H378 C392 0.930 . S
H379 C359 0.930 . S
H380 C365 0.929 . S
H381 C366 0.930 . S
H382 C387 0.930 . S
H383 C362 0.930 . S
H384 C395 0.931 . S
N385 Tb356 2.617 . S
N385 C386 1.392 . S
N385 C389 1.334 . S
C386 N385 1.392 . S
C386 C388 1.406 1_455 S
C386 C394 1.421 1_455 S
C387 H382 0.930 . S
C387 C389 1.390 . S
C387 C390 1.339 1_455 S
C388 C386 1.406 1_655 S
C388 C390 1.416 . S
C388 C421 1.448 . S
C389 H374 0.930 . S
C389 N385 1.334 . S
C389 C387 1.390 . S
C390 C387 1.339 1_655 S
C390 C388 1.416 . S
C390 H397 0.930 . S
N391 Tb356 2.572 . S
N391 C392 1.340 . S
N391 C394 1.361 1_455 S
C392 H378 0.930 . S
C392 N391 1.340 . S
C392 C396 1.407 1_455 S
C393 C394 1.413 . S
C393 C395 1.416 . S
C393 C422 1.427 . S
C394 C386 1.421 1_655 S
C394 N391 1.361 1_655 S
C394 C393 1.413 . S
C395 H384 0.931 . S
C395 C393 1.416 . S
C395 C396 1.332 . S
C396 H375 0.929 . S
C396 C392 1.407 1_655 S
C396 C395 1.332 . S
H397 C390 0.930 . S
H398 C421 0.930 . S
H399 C422 0.929 . S
O400 Tb356 2.465 . S
O400 C420 1.264 . S
O401 Tb356 2.387 1_655 S
O401 C412 1.264 . S
O402 Tb367 2.349 . S
O402 C412 1.243 . S
O403 Tb356 2.428 . S
O403 C420 1.256 . S
O404 Tb356 2.308 . S
O404 C419 1.266 . S
O405 Tb367 2.393 . S
O405 C419 1.248 1_655 S
O406 Tb367 2.465 . S
O406 C431 1.264 . S
O407 Tb367 2.387 1_455 S
O407 C423 1.264 . S
O408 Tb356 2.349 . S
O408 C423 1.243 . S
O409 Tb367 2.428 . S
O409 C431 1.256 . S
O410 Tb367 2.308 1_455 S
O410 C430 1.266 . S
O411 Tb356 2.393 . S
O411 C430 1.248 . S
C412 O401 1.264 . S
C412 O402 1.243 . S
C413 C416 1.399 . S
C413 C418 1.383 . S
C413 C420 1.496 . S
C414 C415 1.399 . S
C414 C418 1.389 . S
C415 C414 1.399 . S
C415 C417 1.380 . S
C415 H432 0.929 . S
C416 C413 1.399 . S
C416 C417 1.392 . S
C416 H433 0.929 . S
C417 C415 1.380 . S
C417 C416 1.392 . S
C417 H434 0.929 . S
C418 C413 1.383 . S
C418 C414 1.389 . S
C418 H435 0.931 . S
C419 O404 1.266 . S
C419 O405 1.248 1_455 S
C420 Tb356 2.802 . S
C420 O400 1.264 . S
C420 O403 1.256 . S
C420 C413 1.496 . S
C421 C388 1.448 . S
C421 H398 0.930 . S
C421 C422 1.328 . S
C422 C393 1.427 . S
C422 H399 0.929 . S
C422 C421 1.328 . S
C423 O407 1.264 . S
C423 O408 1.243 . S
C424 C427 1.399 . S
C424 C428 1.389 . S
C424 C431 1.496 . S
C425 C426 1.399 . S
C425 C428 1.384 1_554 S
C426 C425 1.399 . S
C426 C429 1.380 1_554 S
C426 H436 0.929 . S
C427 C424 1.399 . S
C427 C429 1.392 . S
C427 H437 0.929 . S
C428 C424 1.389 . S
C428 C425 1.384 1_556 S
C428 H438 0.930 1_556 S
C429 C426 1.380 1_556 S
C429 C427 1.392 . S
C429 H439 0.929 . S
C430 O410 1.266 . S
C430 O411 1.248 . S
C431 Tb367 2.802 . S
C431 O406 1.264 . S
C431 O409 1.256 . S
C431 C424 1.496 . S
H432 C415 0.929 . S
H433 C416 0.929 . S
H434 C417 0.929 . S
H435 C418 0.931 . S
H436 C426 0.929 . S
H437 C427 0.929 . S
H438 C428 0.930 1_554 S
H439 C429 0.929 . S
H440 C452 0.930 . S
H441 C454 0.930 1_565 S
H442 C455 0.930 . S
H443 C459 0.959 . S
H444 C459 0.959 . S
H445 C459 0.961 . S
H446 C460 0.960 . S
H447 C460 0.961 . S
H448 C460 0.959 . S
H449 C463 0.929 . S
H450 C464 0.931 . S
H451 C466 0.930 . S
C452 H440 0.930 . S
C452 C453 1.399 . S
C452 C457 1.399 . S
C453 C452 1.399 . S
C453 C454 1.376 . S
C454 H441 0.930 1_545 S
C454 C453 1.376 . S
C454 C455 1.388 1_545 S
C455 H442 0.930 . S
C455 C454 1.388 1_565 S
C455 C456 1.390 1_565 S
C456 C455 1.390 1_545 S
C456 C457 1.394 . S
C456 C462 1.465 . S
C457 C452 1.399 . S
C457 C456 1.394 . S
C457 C458 1.516 . S
C458 C457 1.516 . S
C458 C459 1.502 . S
C458 C460 1.561 . S
C458 C461 1.526 . S
C459 H443 0.959 . S
C459 H444 0.959 . S
C459 H445 0.961 . S
C459 C458 1.502 . S
C460 H446 0.960 . S
C460 H447 0.961 . S
C460 H448 0.959 . S
C460 C458 1.561 . S
C461 C458 1.526 . S
C461 C462 1.396 . S
C461 C466 1.390 . S
C462 C456 1.465 . S
C462 C461 1.396 . S
C462 C463 1.399 1_545 S
C463 H449 0.929 . S
C463 C462 1.399 1_565 S
C463 C464 1.385 . S
C464 H450 0.931 . S
C464 C463 1.385 . S
C464 C465 1.389 1_565 S
C465 C464 1.389 1_545 S
C465 C466 1.387 . S
C466 H451 0.930 . S
C466 C461 1.390 . S
C466 C465 1.387 . S
H467 C479 0.930 . S
H468 C481 0.930 . S
H469 C482 0.930 . S
H470 C486 0.959 . S
H471 C486 0.959 . S
H472 C486 0.961 . S
H473 C487 0.960 . S
H474 C487 0.961 . S
H475 C487 0.959 . S
H476 C490 0.929 . S
H477 C491 0.931 . S
H478 C493 0.930 . S
C479 H467 0.930 . S
C479 C480 1.399 . S
C479 C484 1.399 . S
C480 C479 1.399 . S
C480 C481 1.376 . S
C481 H468 0.930 . S
C481 C480 1.376 . S
C481 C482 1.388 . S
C482 H469 0.930 . S
C482 C481 1.388 . S
C482 C483 1.390 . S
C483 C482 1.390 . S
C483 C484 1.394 . S
C483 C489 1.465 . S
C484 C479 1.399 . S
C484 C483 1.394 . S
C484 C485 1.516 . S
C485 C484 1.516 . S
C485 C486 1.502 . S
C485 C487 1.561 . S
C485 C488 1.526 . S
C486 H470 0.959 . S
C486 H471 0.959 . S
C486 H472 0.961 . S
C486 C485 1.502 . S
C487 H473 0.960 . S
C487 H474 0.961 . S
C487 H475 0.959 . S
C487 C485 1.561 . S
C488 C485 1.526 . S
C488 C489 1.396 . S
C488 C493 1.390 . S
C489 C483 1.465 . S
C489 C488 1.396 . S
C489 C490 1.399 . S
C490 H476 0.929 . S
C490 C489 1.399 . S
C490 C491 1.385 . S
C491 H477 0.931 . S
C491 C490 1.385 . S
C491 C492 1.389 . S
C492 C491 1.389 . S
C492 C493 1.387 . S
C493 H478 0.930 . S
C493 C488 1.390 . S
C493 C492 1.387 . S
H494 C506 0.930 . S
H495 C508 0.930 . S
H496 C509 0.930 . S
H497 C513 0.959 . S
H498 C513 0.959 . S
H499 C513 0.961 . S
H500 C514 0.960 . S
H501 C514 0.961 . S
H502 C514 0.959 . S
H503 C517 0.929 . S
H504 C518 0.931 . S
H505 C520 0.930 . S
C506 H494 0.930 . S
C506 C507 1.399 . S
C506 C511 1.399 . S
C507 C506 1.399 . S
C507 C508 1.376 . S
C508 H495 0.930 . S
C508 C507 1.376 . S
C508 C509 1.388 . S
C509 H496 0.930 . S
C509 C508 1.388 . S
C509 C510 1.390 . S
C510 C509 1.390 . S
C510 C511 1.394 . S
C510 C516 1.465 . S
C511 C506 1.399 . S
C511 C510 1.394 . S
C511 C512 1.516 . S
C512 C511 1.516 . S
C512 C513 1.502 . S
C512 C514 1.561 . S
C512 C515 1.526 . S
C513 H497 0.959 . S
C513 H498 0.959 . S
C513 H499 0.961 . S
C513 C512 1.502 . S
C514 H500 0.960 . S
C514 H501 0.961 . S
C514 H502 0.959 . S
C514 C512 1.561 . S
C515 C512 1.526 . S
C515 C516 1.396 . S
C515 C520 1.390 . S
C516 C510 1.465 . S
C516 C515 1.396 . S
C516 C517 1.399 . S
C517 H503 0.929 . S
C517 C516 1.399 . S
C517 C518 1.385 . S
C518 H504 0.931 . S
C518 C517 1.385 . S
C518 C519 1.389 . S
C519 C518 1.389 . S
C519 C520 1.387 . S
C520 H505 0.930 . S
C520 C515 1.390 . S
C520 C519 1.387 . S
H521 C533 0.930 . S
H522 C535 0.930 . S
H523 C536 0.930 . S
H524 C540 0.959 . S
H525 C540 0.959 . S
H526 C540 0.961 . S
H527 C541 0.960 . S
H528 C541 0.961 . S
H529 C541 0.959 . S
H530 C544 0.929 . S
H531 C545 0.931 . S
H532 C547 0.922 1_655 S
C533 H521 0.930 . S
C533 C534 1.399 . S
C533 C538 1.399 . S
C534 C533 1.399 . S
C534 C535 1.376 . S
C535 H522 0.930 . S
C535 C534 1.376 . S
C535 C536 1.388 . S
C536 H523 0.930 . S
C536 C535 1.388 . S
C536 C537 1.390 . S
C537 C536 1.390 . S
C537 C538 1.394 . S
C537 C543 1.465 . S
C538 C533 1.399 . S
C538 C537 1.394 . S
C538 C539 1.516 . S
C539 C538 1.516 . S
C539 C540 1.502 1_455 S
C539 C541 1.561 . S
C539 C542 1.526 . S
C540 H524 0.959 . S
C540 H525 0.959 . S
C540 H526 0.961 . S
C540 C539 1.502 1_655 S
C541 H527 0.960 . S
C541 H528 0.961 . S
C541 H529 0.959 . S
C541 C539 1.561 . S
C542 C539 1.526 . S
C542 C543 1.396 . S
C542 C547 1.390 . S
C543 C537 1.465 . S
C543 C542 1.396 . S
C543 C544 1.399 . S
C544 H530 0.929 . S
C544 C543 1.399 . S
C544 C545 1.385 . S
C545 H531 0.931 . S
C545 C544 1.385 . S
C545 C546 1.389 . S
C546 C545 1.389 . S
C546 C547 1.387 . S
C547 H532 0.922 1_455 S
C547 C542 1.390 . S
C547 C546 1.387 . S
H548 C560 0.930 . S
H549 C562 0.930 . S
H550 C563 0.930 . S
H551 C567 0.959 . S
H552 C567 0.959 . S
H553 C567 0.961 . S
H554 C568 0.960 . S
H555 C568 0.961 . S
H556 C568 0.959 1_556 S
H557 C571 0.929 . S
H558 C572 0.931 . S
H559 C574 0.930 . S
C560 H548 0.930 . S
C560 C561 1.399 . S
C560 C565 1.399 . S
C561 C560 1.399 . S
C561 C562 1.376 1_565 S
C562 H549 0.930 . S
C562 C561 1.376 1_545 S
C562 C563 1.388 . S
C563 H550 0.930 . S
C563 C562 1.388 . S
C563 C564 1.390 . S
C564 C563 1.390 . S
C564 C565 1.394 1_545 S
C564 C570 1.465 . S
C565 C560 1.399 . S
C565 C564 1.394 1_565 S
C565 C566 1.516 . S
C566 C565 1.516 . S
C566 C567 1.502 . S
C566 C568 1.561 . S
C566 C569 1.526 . S
C567 H551 0.959 . S
C567 H552 0.959 . S
C567 H553 0.961 . S
C567 C566 1.502 . S
C568 H554 0.960 . S
C568 H555 0.961 . S
C568 H556 0.959 1_554 S
C568 C566 1.561 . S
C569 C566 1.526 . S
C569 C570 1.396 1_565 S
C569 C574 1.390 1_554 S
C570 C564 1.465 . S
C570 C569 1.396 1_545 S
C570 C571 1.399 1_554 S
C571 H557 0.929 . S
C571 C570 1.399 1_556 S
C571 C572 1.385 . S
C572 H558 0.931 . S
C572 C571 1.385 . S
C572 C573 1.389 . S
C573 C572 1.389 . S
C573 C574 1.387 1_545 S
C574 H559 0.930 . S
C574 C569 1.390 1_556 S
C574 C573 1.387 1_565 S
H575 C587 0.930 . S
H576 C589 0.930 . S
H577 C590 0.930 . S
H578 C594 0.959 . S
H579 C594 0.959 . S
H580 C594 0.961 . S
H581 C595 0.960 1_554 S
H582 C595 0.961 . S
H583 C595 0.959 1_554 S
H584 C598 0.929 . S
H585 C599 0.931 . S
H586 C601 0.930 . S
C587 H575 0.930 . S
C587 C588 1.399 . S
C587 C592 1.399 . S
C588 C587 1.399 . S
C588 C589 1.376 . S
C589 H576 0.930 . S
C589 C588 1.376 . S
C589 C590 1.388 . S
C590 H577 0.930 . S
C590 C589 1.388 . S
C590 C591 1.390 . S
C591 C590 1.390 . S
C591 C592 1.394 . S
C591 C597 1.465 . S
C592 C587 1.399 . S
C592 C591 1.394 . S
C592 C593 1.516 . S
C593 C592 1.516 . S
C593 C594 1.502 1_554 S
C593 C595 1.561 1_554 S
C593 C596 1.526 1_554 S
C594 H578 0.959 . S
C594 H579 0.959 . S
C594 H580 0.961 . S
C594 C593 1.502 1_556 S
C595 H581 0.960 1_556 S
C595 H582 0.961 . S
C595 H583 0.959 1_556 S
C595 C593 1.561 1_556 S
C596 C593 1.526 1_556 S
C596 C597 1.396 1_556 S
C596 C601 1.390 . S
C597 C591 1.465 . S
C597 C596 1.396 1_554 S
C597 C598 1.399 . S
C598 H584 0.929 . S
C598 C597 1.399 . S
C598 C599 1.385 1_554 S
C599 H585 0.931 . S
C599 C598 1.385 1_556 S
C599 C600 1.389 . S
C600 C599 1.389 . S
C600 C601 1.387 . S
C601 H586 0.930 . S
C601 C596 1.390 . S
C601 C600 1.387 . S
H602 C614 0.930 . S
H603 C616 0.930 . S
H604 C617 0.930 . S
H605 C621 0.959 . S
H606 C621 0.959 . S
H607 C621 0.961 1_554 S
H608 C622 0.960 . S
H609 C622 0.961 . S
H610 C622 0.959 . S
H611 C625 0.929 . S
H612 C626 0.931 . S
H613 C628 0.930 . S
C614 H602 0.930 . S
C614 C615 1.399 . S
C614 C619 1.399 . S
C615 C614 1.399 . S
C615 C616 1.376 . S
C616 H603 0.930 . S
C616 C615 1.376 . S
C616 C617 1.388 . S
C617 H604 0.930 . S
C617 C616 1.388 . S
C617 C618 1.390 . S
C618 C617 1.390 . S
C618 C619 1.394 . S
C618 C624 1.465 . S
C619 C614 1.399 . S
C619 C618 1.394 . S
C619 C620 1.516 . S
C620 C619 1.516 . S
C620 C621 1.502 1_554 S
C620 C622 1.561 . S
C620 C623 1.526 . S
C621 H605 0.959 . S
C621 H606 0.959 . S
C621 H607 0.961 1_556 S
C621 C620 1.502 1_556 S
C622 H608 0.960 . S
C622 H609 0.961 . S
C622 H610 0.959 . S
C622 C620 1.561 . S
C623 C620 1.526 . S
C623 C624 1.396 . S
C623 C628 1.390 1_554 S
C624 C618 1.465 . S
C624 C623 1.396 . S
C624 C625 1.399 . S
C625 H611 0.929 . S
C625 C624 1.399 . S
C625 C626 1.385 1_554 S
C626 H612 0.931 . S
C626 C625 1.385 1_556 S
C626 C627 1.389 . S
C627 C626 1.389 . S
C627 C628 1.387 . S
C628 H613 0.930 . S
C628 C623 1.390 1_556 S
C628 C627 1.387 . S
H629 C641 0.930 . S
H630 C643 0.930 . S
H631 C644 0.930 . S
H632 C648 0.959 . S
H633 C648 0.959 . S
H634 C648 0.961 . S
H635 C649 0.960 1_554 S
H636 C649 0.961 . S
H637 C649 0.959 1_554 S
H638 C652 0.929 . S
H639 C653 0.931 . S
H640 C655 0.937 . S
C641 H629 0.930 . S
C641 C642 1.399 . S
C641 C646 1.399 . S
C642 C641 1.399 . S
C642 C643 1.376 . S
C643 H630 0.930 . S
C643 C642 1.376 . S
C643 C644 1.388 . S
C644 H631 0.930 . S
C644 C643 1.388 . S
C644 C645 1.390 . S
C645 C644 1.390 . S
C645 C646 1.394 . S
C645 C651 1.465 . S
C646 C641 1.399 . S
C646 C645 1.394 . S
C646 C647 1.514 1_655 S
C647 C646 1.514 1_455 S
C647 C648 1.496 1_454 S
C647 C649 1.570 1_554 S
C647 C650 1.525 1_454 S
C648 H632 0.959 . S
C648 H633 0.959 . S
C648 H634 0.961 . S
C648 C647 1.496 1_656 S
C649 H635 0.960 1_556 S
C649 H636 0.961 . S
C649 H637 0.959 1_556 S
C649 C647 1.570 1_556 S
C650 C647 1.525 1_656 S
C650 C651 1.396 1_556 S
C650 C655 1.387 1_655 S
C651 C645 1.465 . S
C651 C650 1.396 1_554 S
C651 C652 1.399 . S
C652 H638 0.929 . S
C652 C651 1.399 . S
C652 C653 1.385 1_554 S
C653 H639 0.931 . S
C653 C652 1.385 1_556 S
C653 C654 1.389 . S
C654 C653 1.389 . S
C654 C655 1.385 1_655 S
C655 H640 0.937 . S
C655 C650 1.387 1_455 S
C655 C654 1.385 1_455 S
H656 C668 0.921 1_655 S
H657 C670 0.930 . S
H658 C671 0.930 . S
H659 C675 0.959 . S
H660 C675 0.959 . S
H661 C675 0.961 . S
H662 C676 0.960 . S
H663 C676 0.961 . S
H664 C676 0.959 1_455 S
H665 C679 0.929 . S
H666 C680 0.931 . S
H667 C682 0.930 . S
C668 H656 0.921 1_455 S
C668 C669 1.399 . S
C668 C673 1.399 . S
C669 C668 1.399 . S
C669 C670 1.376 . S
C670 H657 0.930 . S
C670 C669 1.376 . S
C670 C671 1.388 . S
C671 H658 0.930 . S
C671 C670 1.388 . S
C671 C672 1.390 . S
C672 C671 1.390 . S
C672 C673 1.394 . S
C672 C678 1.465 . S
C673 C668 1.399 . S
C673 C672 1.394 . S
C673 C674 1.516 1_455 S
C674 C673 1.516 1_655 S
C674 C675 1.502 . S
C674 C676 1.561 . S
C674 C677 1.526 1_655 S
C675 H659 0.959 . S
C675 H660 0.959 . S
C675 H661 0.961 . S
C675 C674 1.502 . S
C676 H662 0.960 . S
C676 H663 0.961 . S
C676 H664 0.959 1_655 S
C676 C674 1.561 . S
C677 C674 1.526 1_455 S
C677 C678 1.396 . S
C677 C682 1.390 1_455 S
C678 C672 1.465 . S
C678 C677 1.396 . S
C678 C679 1.399 . S
C679 H665 0.929 . S
C679 C678 1.399 . S
C679 C680 1.385 . S
C680 H666 0.931 . S
C680 C679 1.385 . S
C680 C681 1.389 . S
C681 C680 1.389 . S
C681 C682 1.387 1_455 S
C682 H667 0.930 . S
C682 C677 1.390 1_655 S
C682 C681 1.387 1_655 S
H683 C695 0.965 . S
H684 C697 0.930 . S
H685 C698 0.930 . S
H686 C702 0.959 . S
H687 C702 0.959 . S
H688 C702 0.961 . S
H689 C703 0.960 . S
H690 C703 0.961 . S
H691 C703 0.959 . S
H692 C706 0.929 . S
H693 C707 0.931 . S
H694 C709 0.930 . S
C695 H683 0.965 . S
C695 C696 1.399 . S
C695 C700 1.399 . S
C696 C695 1.399 . S
C696 C697 1.376 . S
C697 H684 0.930 . S
C697 C696 1.376 . S
C697 C698 1.388 . S
C698 H685 0.930 . S
C698 C697 1.388 . S
C698 C699 1.390 . S
C699 C698 1.390 . S
C699 C700 1.394 . S
C699 C705 1.465 . S
C700 C695 1.399 . S
C700 C699 1.394 . S
C700 C701 1.516 1_545 S
C701 C700 1.516 1_565 S
C701 C702 1.502 . S
C701 C703 1.561 . S
C701 C704 1.526 1_565 S
C702 H686 0.959 . S
C702 H687 0.959 . S
C702 H688 0.961 . S
C702 C701 1.502 . S
C703 H689 0.960 . S
C703 H690 0.961 . S
C703 H691 0.959 . S
C703 C701 1.561 . S
C704 C701 1.526 1_545 S
C704 C705 1.396 . S
C704 C709 1.390 1_545 S
C705 C699 1.465 . S
C705 C704 1.396 . S
C705 C706 1.399 . S
C706 H692 0.929 . S
C706 C705 1.399 . S
C706 C707 1.385 . S
C707 H693 0.931 . S
C707 C706 1.385 . S
C707 C708 1.389 . S
C708 C707 1.389 . S
C708 C709 1.387 1_545 S
C709 H694 0.930 . S
C709 C704 1.390 1_565 S
C709 C708 1.387 1_565 S
H710 C722 0.930 . S
H711 C724 0.930 . S
H712 C725 0.930 . S
H713 C729 0.959 . S
H714 C729 0.959 . S
H715 C729 0.961 . S
H716 C730 0.960 . S
H717 C730 0.961 . S
H718 C730 0.959 . S
H719 C733 0.929 . S
H720 C734 0.931 . S
H721 C736 0.930 . S
C722 H710 0.930 . S
C722 C723 1.399 . S
C722 C727 1.399 . S
C723 C722 1.399 . S
C723 C724 1.376 . S
C724 H711 0.930 . S
C724 C723 1.376 . S
C724 C725 1.388 . S
C725 H712 0.930 . S
C725 C724 1.388 . S
C725 C726 1.390 . S
C726 C725 1.390 . S
C726 C727 1.394 . S
C726 C732 1.465 . S
C727 C722 1.399 . S
C727 C726 1.394 . S
C727 C728 1.516 . S
C728 C727 1.516 . S
C728 C729 1.502 . S
C728 C730 1.561 . S
C728 C731 1.526 . S
C729 H713 0.959 . S
C729 H714 0.959 . S
C729 H715 0.961 . S
C729 C728 1.502 . S
C730 H716 0.960 . S
C730 H717 0.961 . S
C730 H718 0.959 . S
C730 C728 1.561 . S
C731 C728 1.526 . S
C731 C732 1.396 . S
C731 C736 1.390 . S
C732 C726 1.465 . S
C732 C731 1.396 . S
C732 C733 1.399 . S
C733 H719 0.929 . S
C733 C732 1.399 . S
C733 C734 1.385 . S
C734 H720 0.931 . S
C734 C733 1.385 . S
C734 C735 1.389 . S
C735 C734 1.389 . S
C735 C736 1.387 . S
C736 H721 0.930 . S
C736 C731 1.390 . S
C736 C735 1.387 . S
H737 C749 0.930 . S
H738 C751 0.930 . S
H739 C752 0.930 . S
H740 C756 0.959 . S
H741 C756 0.959 . S
H742 C756 0.961 . S
H743 C757 0.960 . S
H744 C757 0.961 . S
H745 C757 0.959 . S
H746 C760 0.929 . S
H747 C761 0.931 . S
H748 C763 0.930 . S
C749 H737 0.930 . S
C749 C750 1.399 . S
C749 C754 1.399 . S
C750 C749 1.399 . S
C750 C751 1.376 . S
C751 H738 0.930 . S
C751 C750 1.376 . S
C751 C752 1.388 . S
C752 H739 0.930 . S
C752 C751 1.388 . S
C752 C753 1.390 . S
C753 C752 1.390 . S
C753 C754 1.394 . S
C753 C759 1.465 . S
C754 C749 1.399 . S
C754 C753 1.394 . S
C754 C755 1.516 . S
C755 C754 1.516 . S
C755 C756 1.502 . S
C755 C757 1.561 . S
C755 C758 1.526 . S
C756 H740 0.959 . S
C756 H741 0.959 . S
C756 H742 0.961 . S
C756 C755 1.502 . S
C757 H743 0.960 . S
C757 H744 0.961 . S
C757 H745 0.959 . S
C757 C755 1.561 . S
C758 C755 1.526 . S
C758 C759 1.396 . S
C758 C763 1.390 . S
C759 C753 1.465 . S
C759 C758 1.396 . S
C759 C760 1.399 . S
C760 H746 0.929 . S
C760 C759 1.399 . S
C760 C761 1.385 . S
C761 H747 0.931 . S
C761 C760 1.385 . S
C761 C762 1.389 . S
C762 C761 1.389 . S
C762 C763 1.387 . S
C763 H748 0.930 . S
C763 C758 1.390 . S
C763 C762 1.387 . S
H764 C776 0.930 . S
H765 C778 0.930 . S
H766 C779 0.930 . S
H767 C783 0.959 . S
H768 C783 0.959 . S
H769 C783 0.961 . S
H770 C784 0.960 . S
H771 C784 0.961 . S
H772 C784 0.959 . S
H773 C787 0.927 1_656 S
H774 C788 0.931 . S
H775 C790 0.930 . S
C776 H764 0.930 . S
C776 C777 1.399 . S
C776 C781 1.399 . S
C777 C776 1.399 . S
C777 C778 1.376 . S
C778 H765 0.930 . S
C778 C777 1.376 . S
C778 C779 1.388 . S
C779 H766 0.930 . S
C779 C778 1.388 . S
C779 C780 1.390 . S
C780 C779 1.390 . S
C780 C781 1.394 . S
C780 C786 1.465 1_655 S
C781 C776 1.399 . S
C781 C780 1.394 . S
C781 C782 1.516 1_655 S
C782 C781 1.516 1_455 S
C782 C783 1.502 1_455 S
C782 C784 1.561 . S
C782 C785 1.526 . S
C783 H767 0.959 . S
C783 H768 0.959 . S
C783 H769 0.961 . S
C783 C782 1.502 1_655 S
C784 H770 0.960 . S
C784 H771 0.961 . S
C784 H772 0.959 . S
C784 C782 1.561 . S
C785 C782 1.526 . S
C785 C786 1.396 . S
C785 C790 1.390 . S
C786 C780 1.465 1_455 S
C786 C785 1.396 . S
C786 C787 1.399 . S
C787 H773 0.927 1_454 S
C787 C786 1.399 . S
C787 C788 1.385 1_554 S
C788 H774 0.931 . S
C788 C787 1.385 1_556 S
C788 C789 1.389 1_556 S
C789 C788 1.389 1_554 S
C789 C790 1.387 . S
C790 H775 0.930 . S
C790 C785 1.390 . S
C790 C789 1.387 . S
H791 C803 0.930 . S
H792 C805 0.930 . S
H793 C806 0.930 . S
H794 C810 0.959 . S
H795 C810 0.959 1_556 S
H796 C810 0.961 . S
H797 C811 0.960 . S
H798 C811 0.961 1_556 S
H799 C811 0.959 . S
H800 C814 0.929 . S
H801 C815 0.931 . S
H802 C817 0.930 1_556 S
C803 H791 0.930 . S
C803 C804 1.399 . S
C803 C808 1.399 . S
C804 C803 1.399 . S
C804 C805 1.376 . S
C805 H792 0.930 . S
C805 C804 1.376 . S
C805 C806 1.388 . S
C806 H793 0.930 . S
C806 C805 1.388 . S
C806 C807 1.390 . S
C807 C806 1.390 . S
C807 C808 1.394 . S
C807 C813 1.465 1_565 S
C808 C803 1.399 . S
C808 C807 1.394 . S
C808 C809 1.516 . S
C809 C808 1.516 . S
C809 C810 1.502 1_565 S
C809 C811 1.561 . S
C809 C812 1.526 1_565 S
C810 H794 0.959 . S
C810 H795 0.959 1_554 S
C810 H796 0.961 . S
C810 C809 1.502 1_545 S
C811 H797 0.960 . S
C811 H798 0.961 1_554 S
C811 H799 0.959 . S
C811 C809 1.561 . S
C812 C809 1.526 1_545 S
C812 C813 1.396 . S
C812 C817 1.390 . S
C813 C807 1.465 1_545 S
C813 C812 1.396 . S
C813 C814 1.399 . S
C814 H800 0.929 . S
C814 C813 1.399 . S
C814 C815 1.385 . S
C815 H801 0.931 . S
C815 C814 1.385 . S
C815 C816 1.389 . S
C816 C815 1.389 . S
C816 C817 1.387 . S
C817 H802 0.930 1_554 S
C817 C812 1.390 . S
C817 C816 1.387 . S
H818 C830 0.930 . S
H819 C832 0.930 . S
H820 C833 0.930 . S
H821 C837 0.959 . S
H822 C837 0.959 . S
H823 C837 0.961 . S
H824 C838 0.960 . S
H825 C838 0.961 1_556 S
H826 C838 0.959 . S
H827 C841 0.929 . S
H828 C842 0.931 . S
H829 C844 0.930 . S
C830 H818 0.930 . S
C830 C831 1.399 . S
C830 C835 1.399 . S
C831 C830 1.399 . S
C831 C832 1.376 . S
C832 H819 0.930 . S
C832 C831 1.376 . S
C832 C833 1.388 . S
C833 H820 0.930 . S
C833 C832 1.388 . S
C833 C834 1.390 . S
C834 C833 1.390 . S
C834 C835 1.394 . S
C834 C840 1.465 . S
C835 C830 1.399 . S
C835 C834 1.394 . S
C835 C836 1.516 . S
C836 C835 1.516 . S
C836 C837 1.502 . S
C836 C838 1.561 . S
C836 C839 1.526 . S
C837 H821 0.959 . S
C837 H822 0.959 . S
C837 H823 0.961 . S
C837 C836 1.502 . S
C838 H824 0.960 . S
C838 H825 0.961 1_554 S
C838 H826 0.959 . S
C838 C836 1.561 . S
C839 C836 1.526 . S
C839 C840 1.396 . S
C839 C844 1.390 . S
C840 C834 1.465 . S
C840 C839 1.396 . S
C840 C841 1.399 . S
C841 H827 0.929 . S
C841 C840 1.399 . S
C841 C842 1.385 . S
C842 H828 0.931 . S
C842 C841 1.385 . S
C842 C843 1.389 . S
C843 C842 1.389 . S
C843 C844 1.387 . S
C844 H829 0.930 . S
C844 C839 1.390 . S
C844 C843 1.387 . S
H845 C857 0.930 . S
H846 C859 0.930 . S
H847 C860 0.930 . S
H848 C864 0.959 . S
H849 C864 0.959 . S
H850 C864 0.961 . S
H851 C865 0.960 . S
H852 C865 0.961 . S
H853 C865 0.959 . S
H854 C868 0.929 . S
H855 C869 0.931 1_556 S
H856 C871 0.930 . S
C857 H845 0.930 . S
C857 C858 1.399 . S
C857 C862 1.399 . S
C858 C857 1.399 . S
C858 C859 1.376 . S
C859 H846 0.930 . S
C859 C858 1.376 . S
C859 C860 1.388 . S
C860 H847 0.930 . S
C860 C859 1.388 . S
C860 C861 1.390 . S
C861 C860 1.390 . S
C861 C862 1.394 . S
C861 C867 1.465 . S
C862 C857 1.399 . S
C862 C861 1.394 . S
C862 C863 1.516 . S
C863 C862 1.516 . S
C863 C864 1.502 . S
C863 C865 1.561 . S
C863 C866 1.526 . S
C864 H848 0.959 . S
C864 H849 0.959 . S
C864 H850 0.961 . S
C864 C863 1.502 . S
C865 H851 0.960 . S
C865 H852 0.961 . S
C865 H853 0.959 . S
C865 C863 1.561 . S
C866 C863 1.526 . S
C866 C867 1.396 . S
C866 C871 1.390 . S
C867 C861 1.465 . S
C867 C866 1.396 . S
C867 C868 1.399 . S
C868 H854 0.929 . S
C868 C867 1.399 . S
C868 C869 1.385 . S
C869 H855 0.931 1_554 S
C869 C868 1.385 . S
C869 C870 1.389 . S
C870 C869 1.389 . S
C870 C871 1.387 . S
C871 H856 0.930 . S
C871 C866 1.390 . S
C871 C870 1.387 . S
H872 C884 0.930 . S
H873 C886 0.930 . S
H874 C887 0.930 . S
H875 C891 0.985 . S
H876 C891 0.962 . S
H877 C891 0.963 . S
H878 C892 0.960 . S
H879 C892 0.961 . S
H880 C892 0.959 . S
H881 C895 0.929 1_554 S
H882 C896 0.931 . S
H883 C898 0.930 . S
C884 H872 0.930 . S
C884 C885 1.399 . S
C884 C889 1.399 . S
C885 C884 1.399 . S
C885 C886 1.376 1_556 S
C886 H873 0.930 . S
C886 C885 1.376 1_554 S
C886 C887 1.388 . S
C887 H874 0.930 . S
C887 C886 1.388 . S
C887 C888 1.390 1_554 S
C888 C887 1.390 1_556 S
C888 C889 1.394 . S
C888 C894 1.465 . S
C889 C884 1.399 . S
C889 C888 1.394 . S
C889 C890 1.516 . S
C890 C889 1.516 . S
C890 C891 1.474 1_455 S
C890 C892 1.561 . S
C890 C893 1.526 . S
C891 H875 0.985 . S
C891 H876 0.962 . S
C891 H877 0.963 . S
C891 C890 1.474 1_655 S
C892 H878 0.960 . S
C892 H879 0.961 . S
C892 H880 0.959 . S
C892 C890 1.561 . S
C893 C890 1.526 . S
C893 C894 1.396 . S
C893 C898 1.390 . S
C894 C888 1.465 . S
C894 C893 1.396 . S
C894 C895 1.399 . S
C895 H881 0.929 1_556 S
C895 C894 1.399 . S
C895 C896 1.385 . S
C896 H882 0.931 . S
C896 C895 1.385 . S
C896 C897 1.389 . S
C897 C896 1.389 . S
C897 C898 1.387 . S
C898 H883 0.930 . S
C898 C893 1.390 . S
C898 C897 1.387 . S
H899 C911 0.930 1_554 S
H900 C913 0.930 . S
H901 C914 0.930 1_565 S
H902 C918 0.959 . S
H903 C918 0.959 1_554 S
H904 C918 0.961 1_554 S
H905 C919 0.960 . S
H906 C919 0.961 . S
H907 C919 0.959 . S
H908 C922 0.929 1_565 S
H909 C923 0.931 1_565 S
H910 C925 0.930 . S
C911 H899 0.930 1_556 S
C911 C912 1.399 . S
C911 C916 1.399 . S
C912 C911 1.399 . S
C912 C913 1.376 . S
C913 H900 0.930 . S
C913 C912 1.376 . S
C913 C914 1.388 . S
C914 H901 0.930 1_545 S
C914 C913 1.388 . S
C914 C915 1.390 . S
C915 C914 1.390 . S
C915 C916 1.394 . S
C915 C921 1.465 . S
C916 C911 1.399 . S
C916 C915 1.394 . S
C916 C917 1.516 . S
C917 C916 1.516 . S
C917 C918 1.502 . S
C917 C919 1.561 1_556 S
C917 C920 1.526 . S
C918 H902 0.959 . S
C918 H903 0.959 1_556 S
C918 H904 0.961 1_556 S
C918 C917 1.502 . S
C919 H905 0.960 . S
C919 H906 0.961 . S
C919 H907 0.959 . S
C919 C917 1.561 1_554 S
C920 C917 1.526 . S
C920 C921 1.396 . S
C920 C925 1.390 . S
C921 C915 1.465 . S
C921 C920 1.396 . S
C921 C922 1.399 . S
C922 H908 0.929 1_545 S
C922 C921 1.399 . S
C922 C923 1.385 . S
C923 H909 0.931 1_545 S
C923 C922 1.385 . S
C923 C924 1.389 . S
C924 C923 1.389 . S
C924 C925 1.387 . S
C925 H910 0.930 . S
C925 C920 1.390 . S
C925 C924 1.387 . S
H926 C938 0.930 1_554 S
H927 C940 0.930 . S
H928 C941 0.930 . S
H929 C945 0.959 1_556 S
H930 C945 0.959 . S
H931 C945 0.961 . S
H932 C946 0.960 . S
H933 C946 0.961 . S
H934 C946 0.959 . S
H935 C949 0.929 . S
H936 C950 0.931 . S
H937 C952 0.930 . S
C938 H926 0.930 1_556 S
C938 C939 1.399 . S
C938 C943 1.399 . S
C939 C938 1.399 . S
C939 C940 1.376 . S
C940 H927 0.930 . S
C940 C939 1.376 . S
C940 C941 1.388 . S
C941 H928 0.930 . S
C941 C940 1.388 . S
C941 C942 1.390 . S
C942 C941 1.390 . S
C942 C943 1.394 . S
C942 C948 1.465 . S
C943 C938 1.399 . S
C943 C942 1.394 . S
C943 C944 1.516 . S
C944 C943 1.516 . S
C944 C945 1.502 1_556 S
C944 C946 1.561 1_556 S
C944 C947 1.526 . S
C945 H929 0.959 1_554 S
C945 H930 0.959 . S
C945 H931 0.961 . S
C945 C944 1.502 1_554 S
C946 H932 0.960 . S
C946 H933 0.961 . S
C946 H934 0.959 . S
C946 C944 1.561 1_554 S
C947 C944 1.526 . S
C947 C948 1.396 . S
C947 C952 1.390 . S
C948 C942 1.465 . S
C948 C947 1.396 . S
C948 C949 1.399 . S
C949 H935 0.929 . S
C949 C948 1.399 . S
C949 C950 1.385 . S
C950 H936 0.931 . S
C950 C949 1.385 . S
C950 C951 1.389 . S
C951 C950 1.389 . S
C951 C952 1.387 . S
C952 H937 0.930 . S
C952 C947 1.390 . S
C952 C951 1.387 . S
H953 C965 0.930 . S
H954 C967 0.930 . S
H955 C968 0.930 . S
H956 C972 0.959 . S
H957 C972 0.959 . S
H958 C972 0.961 . S
H959 C973 0.960 . S
H960 C973 0.961 . S
H961 C973 0.959 . S
H962 C976 0.929 1_554 S
H963 C977 0.931 . S
H964 C979 0.930 . S
C965 H953 0.930 . S
C965 C966 1.399 . S
C965 C970 1.399 . S
C966 C965 1.399 . S
C966 C967 1.376 1_556 S
C967 H954 0.930 . S
C967 C966 1.376 1_554 S
C967 C968 1.388 . S
C968 H955 0.930 . S
C968 C967 1.388 . S
C968 C969 1.390 1_554 S
C969 C968 1.390 1_556 S
C969 C970 1.394 . S
C969 C975 1.465 . S
C970 C965 1.399 . S
C970 C969 1.394 . S
C970 C971 1.516 . S
C971 C970 1.516 . S
C971 C972 1.502 . S
C971 C973 1.561 . S
C971 C974 1.526 . S
C972 H956 0.959 . S
C972 H957 0.959 . S
C972 H958 0.961 . S
C972 C971 1.502 . S
C973 H959 0.960 . S
C973 H960 0.961 . S
C973 H961 0.959 . S
C973 C971 1.561 . S
C974 C971 1.526 . S
C974 C975 1.396 . S
C974 C979 1.390 . S
C975 C969 1.465 . S
C975 C974 1.396 . S
C975 C976 1.399 . S
C976 H962 0.929 1_556 S
C976 C975 1.399 . S
C976 C977 1.385 . S
C977 H963 0.931 . S
C977 C976 1.385 . S
C977 C978 1.389 . S
C978 C977 1.389 . S
C978 C979 1.387 . S
C979 H964 0.930 . S
C979 C974 1.390 . S
C979 C978 1.387 . S
H980 C992 0.930 . S
H981 C994 0.922 1_455 S
H982 C995 0.930 . S
H983 C999 0.959 . S
H984 C999 0.959 . S
H985 C999 0.961 . S
H986 C1000 0.963 . S
H987 C1000 0.964 . S
H988 C1000 0.941 1_455 S
H989 C1003 0.929 . S
H990 C1004 0.931 . S
H991 C1006 0.930 . S
C992 H980 0.930 . S
C992 C993 1.399 . S
C992 C997 1.399 . S
C993 C992 1.399 . S
C993 C994 1.391 . S
C994 H981 0.922 1_655 S
C994 C993 1.391 . S
C994 C995 1.384 1_655 S
C995 H982 0.930 . S
C995 C994 1.384 1_455 S
C995 C996 1.390 1_455 S
C996 C995 1.390 1_655 S
C996 C997 1.394 . S
C996 C1002 1.465 . S
C997 C992 1.399 . S
C997 C996 1.394 . S
C997 C998 1.516 . S
C998 C997 1.516 . S
C998 C999 1.502 . S
C998 C1000 1.573 . S
C998 C1001 1.526 . S
C999 H983 0.959 . S
C999 H984 0.959 . S
C999 H985 0.961 . S
C999 C998 1.502 . S
C1000 H986 0.963 . S
C1000 H987 0.964 . S
C1000 H988 0.941 1_655 S
C1000 C998 1.573 . S
C1001 C998 1.526 . S
C1001 C1002 1.396 . S
C1001 C1006 1.390 . S
C1002 C996 1.465 . S
C1002 C1001 1.396 . S
C1002 C1003 1.399 1_655 S
C1003 H989 0.929 . S
C1003 C1002 1.399 1_455 S
C1003 C1004 1.385 . S
C1004 H990 0.931 . S
C1004 C1003 1.385 . S
C1004 C1005 1.389 1_455 S
C1005 C1004 1.389 1_655 S
C1005 C1006 1.387 . S
C1006 H991 0.930 . S
C1006 C1001 1.390 . S
C1006 C1005 1.387 . S
H1007 C1019 0.930 . S
H1008 C1021 0.930 . S
H1009 C1022 0.930 . S
H1010 C1026 0.959 . S
H1011 C1026 0.959 . S
H1012 C1026 0.961 . S
H1013 C1027 0.960 . S
H1014 C1027 0.961 . S
H1015 C1027 0.959 . S
H1016 C1030 0.929 . S
H1017 C1031 0.931 . S
H1018 C1033 0.930 . S
C1019 H1007 0.930 . S
C1019 C1020 1.399 1_545 S
C1019 C1024 1.399 . S
C1020 C1019 1.399 1_565 S
C1020 C1021 1.376 . S
C1021 H1008 0.930 . S
C1021 C1020 1.376 . S
C1021 C1022 1.388 . S
C1022 H1009 0.930 . S
C1022 C1021 1.388 . S
C1022 C1023 1.390 . S
C1023 C1022 1.390 . S
C1023 C1024 1.394 1_565 S
C1023 C1029 1.465 . S
C1024 C1019 1.399 . S
C1024 C1023 1.394 1_545 S
C1024 C1025 1.516 . S
C1025 C1024 1.516 . S
C1025 C1026 1.502 . S
C1025 C1027 1.561 . S
C1025 C1028 1.526 . S
C1026 H1010 0.959 . S
C1026 H1011 0.959 . S
C1026 H1012 0.961 . S
C1026 C1025 1.502 . S
C1027 H1013 0.960 . S
C1027 H1014 0.961 . S
C1027 H1015 0.959 . S
C1027 C1025 1.561 . S
C1028 C1025 1.526 . S
C1028 C1029 1.396 1_545 S
C1028 C1033 1.390 . S
C1029 C1023 1.465 . S
C1029 C1028 1.396 1_565 S
C1029 C1030 1.399 . S
C1030 H1016 0.929 . S
C1030 C1029 1.399 . S
C1030 C1031 1.385 . S
C1031 H1017 0.931 . S
C1031 C1030 1.385 . S
C1031 C1032 1.389 . S
C1032 C1031 1.389 . S
C1032 C1033 1.387 1_565 S
C1033 H1018 0.930 . S
C1033 C1028 1.390 . S
C1033 C1032 1.387 1_545 S
H1034 C1046 0.930 . S
H1035 C1048 0.930 . S
H1036 C1049 0.930 . S
H1037 C1053 0.959 . S
H1038 C1053 0.959 . S
H1039 C1053 0.961 . S
H1040 C1054 0.960 . S
H1041 C1054 0.961 . S
H1042 C1054 0.959 . S
H1043 C1057 0.929 . S
H1044 C1058 0.931 . S
H1045 C1060 0.930 . S
C1046 H1034 0.930 . S
C1046 C1047 1.399 . S
C1046 C1051 1.399 . S
C1047 C1046 1.399 . S
C1047 C1048 1.376 . S
C1048 H1035 0.930 . S
C1048 C1047 1.376 . S
C1048 C1049 1.388 . S
C1049 H1036 0.930 . S
C1049 C1048 1.388 . S
C1049 C1050 1.390 . S
C1050 C1049 1.390 . S
C1050 C1051 1.394 . S
C1050 C1056 1.465 . S
C1051 C1046 1.399 . S
C1051 C1050 1.394 . S
C1051 C1052 1.516 . S
C1052 C1051 1.516 . S
C1052 C1053 1.502 . S
C1052 C1054 1.561 . S
C1052 C1055 1.526 . S
C1053 H1037 0.959 . S
C1053 H1038 0.959 . S
C1053 H1039 0.961 . S
C1053 C1052 1.502 . S
C1054 H1040 0.960 . S
C1054 H1041 0.961 . S
C1054 H1042 0.959 . S
C1054 C1052 1.561 . S
C1055 C1052 1.526 . S
C1055 C1056 1.396 . S
C1055 C1060 1.390 . S
C1056 C1050 1.465 . S
C1056 C1055 1.396 . S
C1056 C1057 1.399 . S
C1057 H1043 0.929 . S
C1057 C1056 1.399 . S
C1057 C1058 1.385 . S
C1058 H1044 0.931 . S
C1058 C1057 1.385 . S
C1058 C1059 1.389 . S
C1059 C1058 1.389 . S
C1059 C1060 1.387 . S
C1060 H1045 0.930 . S
C1060 C1055 1.390 . S
C1060 C1059 1.387 . S
H1061 C1073 0.930 . S
H1062 C1075 0.930 . S
H1063 C1076 0.930 . S
H1064 C1080 0.959 . S
H1065 C1080 0.959 . S
H1066 C1080 0.961 . S
H1067 C1081 0.960 . S
H1068 C1081 0.961 . S
H1069 C1081 0.959 . S
H1070 C1084 0.929 . S
H1071 C1085 0.931 . S
H1072 C1087 0.930 . S
C1073 H1061 0.930 . S
C1073 C1074 1.399 . S
C1073 C1078 1.399 . S
C1074 C1073 1.399 . S
C1074 C1075 1.376 . S
C1075 H1062 0.930 . S
C1075 C1074 1.376 . S
C1075 C1076 1.388 . S
C1076 H1063 0.930 . S
C1076 C1075 1.388 . S
C1076 C1077 1.390 . S
C1077 C1076 1.390 . S
C1077 C1078 1.394 . S
C1077 C1083 1.465 . S
C1078 C1073 1.399 . S
C1078 C1077 1.394 . S
C1078 C1079 1.516 . S
C1079 C1078 1.516 . S
C1079 C1080 1.502 . S
C1079 C1081 1.561 . S
C1079 C1082 1.526 . S
C1080 H1064 0.959 . S
C1080 H1065 0.959 . S
C1080 H1066 0.961 . S
C1080 C1079 1.502 . S
C1081 H1067 0.960 . S
C1081 H1068 0.961 . S
C1081 H1069 0.959 . S
C1081 C1079 1.561 . S
C1082 C1079 1.526 . S
C1082 C1083 1.396 . S
C1082 C1087 1.390 . S
C1083 C1077 1.465 . S
C1083 C1082 1.396 . S
C1083 C1084 1.399 . S
C1084 H1070 0.929 . S
C1084 C1083 1.399 . S
C1084 C1085 1.385 . S
C1085 H1071 0.931 . S
C1085 C1084 1.385 . S
C1085 C1086 1.389 . S
C1086 C1085 1.389 . S
C1086 C1087 1.387 . S
C1087 H1072 0.930 . S
C1087 C1082 1.390 . S
C1087 C1086 1.387 . S
C453 N80 1.950 . S
C465 C167 1.986 . S
C492 C244 2.032 . S
C480 N93 1.908 . S
C519 C335 2.016 . S
C507 N54 1.908 . S
C546 C419 1.996 . S
C534 N67 1.942 . S
C573 C178 1.993 . S
C561 N28 1.913 . S
C588 N41 1.965 . S
C600 C255 2.012 . S
C615 N2 1.960 . S
C627 C346 2.006 . S
C642 N15 1.955 . S
C654 C430 1.984 1_655 S
C681 C162 0.669 1_455 S
C669 N70 0.586 . S
C708 C257 0.577 . S
C696 N83 0.573 . S
C735 C330 0.503 . S
C723 N96 0.508 . S
C750 N57 0.459 . S
C762 C414 0.474 . S
C777 N18 0.494 . S
C789 C173 0.544 . S
C816 C246 0.451 . S
C804 N31 0.550 . S
C843 C341 0.696 . S
C831 N44 0.587 . S
C858 N5 0.461 . S
C870 C425 0.468 . S
C885 N66 1.998 . S
C897 C171 2.100 . S
C912 N79 2.019 . S
C924 C262 2.093 . S
C951 C339 2.093 . S
C939 N92 2.038 . S
C978 C423 2.120 . S
C966 N53 2.002 . S
C993 N14 2.001 . S
C1005 C160 2.099 . S
C1032 C251 2.102 1_565 S
C1020 N27 2.013 . S
C1059 C328 2.112 . S
C1047 N40 2.022 . S
C1074 N1 2.020 . S
C1086 C412 2.113 . S
