# Generated by pormake.
# Topology zzz, (3,6)-cn, num edge types: 1
# Building blocks:
#     Node 0, Type 0, BuildingBlock: KAKCAD_clean_linker_0, # of connection points: 3
#     Node 1, Type 0, BuildingBlock: KAKCAD_clean_linker_0, # of connection points: 3
#     Node 2, Type 0, BuildingBlock: KAKCAD_clean_linker_0, # of connection points: 3
#     Node 3, Type 0, BuildingBlock: KAKCAD_clean_linker_0, # of connection points: 3
#     Node 4, Type 0, BuildingBlock: KAKCAD_clean_linker_0, # of connection points: 3
#     Node 5, Type 0, BuildingBlock: KAKCAD_clean_linker_0, # of connection points: 3
#     Node 6, Type 0, BuildingBlock: KAKCAD_clean_linker_0, # of connection points: 3
#     Node 7, Type 0, BuildingBlock: KAKCAD_clean_linker_0, # of connection points: 3
#     Node 8, Type 1, BuildingBlock: BETFAJ_clean_sbu_0, # of connection points: 6
#     Node 9, Type 1, BuildingBlock: BETFAJ_clean_sbu_0, # of connection points: 6
#     Node 10, Type 1, BuildingBlock: BETFAJ_clean_sbu_0, # of connection points: 6
#     Node 11, Type 1, BuildingBlock: BETFAJ_clean_sbu_0, # of connection points: 6
#     Edge 12, Type (0, 1), BuildingBlock: XUDNAN_clean_linker_2, # of connection points: 2
#     Edge 13, Type (0, 1), BuildingBlock: XUDNAN_clean_linker_2, # of connection points: 2
#     Edge 14, Type (0, 1), BuildingBlock: XUDNAN_clean_linker_2, # of connection points: 2
#     Edge 15, Type (0, 1), BuildingBlock: XUDNAN_clean_linker_2, # of connection points: 2
#     Edge 16, Type (0, 1), BuildingBlock: XUDNAN_clean_linker_2, # of connection points: 2
#     Edge 17, Type (0, 1), BuildingBlock: XUDNAN_clean_linker_2, # of connection points: 2
#     Edge 18, Type (0, 1), BuildingBlock: XUDNAN_clean_linker_2, # of connection points: 2
#     Edge 19, Type (0, 1), BuildingBlock: XUDNAN_clean_linker_2, # of connection points: 2
#     Edge 20, Type (0, 1), BuildingBlock: XUDNAN_clean_linker_2, # of connection points: 2
#     Edge 21, Type (0, 1), BuildingBlock: XUDNAN_clean_linker_2, # of connection points: 2
#     Edge 22, Type (0, 1), BuildingBlock: XUDNAN_clean_linker_2, # of connection points: 2
#     Edge 23, Type (0, 1), BuildingBlock: XUDNAN_clean_linker_2, # of connection points: 2
#     Edge 24, Type (0, 1), BuildingBlock: XUDNAN_clean_linker_2, # of connection points: 2
#     Edge 25, Type (0, 1), BuildingBlock: XUDNAN_clean_linker_2, # of connection points: 2
#     Edge 26, Type (0, 1), BuildingBlock: XUDNAN_clean_linker_2, # of connection points: 2
#     Edge 27, Type (0, 1), BuildingBlock: XUDNAN_clean_linker_2, # of connection points: 2
#     Edge 28, Type (0, 1), BuildingBlock: XUDNAN_clean_linker_2, # of connection points: 2
#     Edge 29, Type (0, 1), BuildingBlock: XUDNAN_clean_linker_2, # of connection points: 2
#     Edge 30, Type (0, 1), BuildingBlock: XUDNAN_clean_linker_2, # of connection points: 2
#     Edge 31, Type (0, 1), BuildingBlock: XUDNAN_clean_linker_2, # of connection points: 2
#     Edge 32, Type (0, 1), BuildingBlock: XUDNAN_clean_linker_2, # of connection points: 2
#     Edge 33, Type (0, 1), BuildingBlock: XUDNAN_clean_linker_2, # of connection points: 2
#     Edge 34, Type (0, 1), BuildingBlock: XUDNAN_clean_linker_2, # of connection points: 2
#     Edge 35, Type (0, 1), BuildingBlock: XUDNAN_clean_linker_2, # of connection points: 2
# Relax obj value: 0.446
# Max RMSD: 0.271
# Mean RMSD: 0.254
data_MOF--net-zzz--node1-BETFAJ_clean_sbu_0--node2-KAKCAD_clean_linker_0--edge1-XUDNAN_clean_linker_2
_symmetry_space_group_name_H-M    P1
_symmetry_Int_Tables_number       1
_symmetry_cell_setting            triclinic
loop_
_symmetry_equiv_pos_as_xyz
'x, y, z'
_cell_length_a     59.489504
_cell_length_b     59.531374
_cell_length_c     18.19709
_cell_angle_alpha  90.084468
_cell_angle_beta   90.170328
_cell_angle_gamma 90.020919
loop_
_atom_site_label
_atom_site_type_symbol
_atom_site_fract_x
_atom_site_fract_y
_atom_site_fract_z
_atom_type_partial_charge
C0 C 0.78731 0.50649 0.10955 0.0
C1 C 0.78417 0.48336 0.09733 0.0
C2 C 0.77271 0.51822 0.15509 0.0
C3 C 0.75467 0.50704 0.18791 0.0
C4 C 0.7499 0.48472 0.1687 0.0
C5 C 0.7647 0.47284 0.1238 0.0
C6 C 0.74406 0.51678 0.25306 0.0
C7 C 0.72098 0.51998 0.25567 0.0
C8 C 0.71049 0.52695 0.32068 0.0
C9 C 0.72377 0.53053 0.38507 0.0
C10 C 0.74742 0.52676 0.38255 0.0
C11 C 0.75713 0.52043 0.31562 0.0
C12 C 0.76324 0.52832 0.44661 0.0
C13 C 0.76935 0.54926 0.47596 0.0
C14 C 0.77707 0.50972 0.46267 0.0
C15 C 0.79759 0.51234 0.50003 0.0
C16 C 0.8049 0.53368 0.52365 0.0
C17 C 0.68559 0.52909 0.316 0.0
C18 C 0.67608 0.54985 0.29615 0.0
C19 C 0.67303 0.50945 0.30261 0.0
C20 C 0.65271 0.5103 0.26339 0.0
C21 C 0.64419 0.53087 0.23764 0.0
C22 C 0.65547 0.55076 0.25795 0.0
C23 C 0.78977 0.55186 0.51462 0.0
H24 H 0.8023 0.51499 0.09047 0.0
H25 H 0.77657 0.53546 0.16967 0.0
H26 H 0.73603 0.47587 0.19404 0.0
H27 H 0.76195 0.45506 0.11482 0.0
H28 H 0.71104 0.51674 0.20664 0.0
H29 H 0.77511 0.51746 0.31271 0.0
H30 H 0.71583 0.53544 0.43609 0.0
H31 H 0.75929 0.56398 0.46405 0.0
H32 H 0.77299 0.49335 0.44009 0.0
H33 H 0.8084 0.49781 0.5051 0.0
H34 H 0.68563 0.5652 0.30355 0.0
H35 H 0.68015 0.49316 0.3154 0.0
H36 H 0.79415 0.56848 0.5341 0.0
H37 H 0.6494 0.56687 0.23877 0.0
H38 H 0.64437 0.4947 0.24925 0.0
C39 C 1.01168 0.76879 0.05912 0.0
C40 C 0.0325 0.77916 0.04704 0.0
C41 C 1.0079 0.7571 0.12422 0.0
C42 C 0.02475 0.75617 0.17824 0.0
C43 C 0.04595 0.76541 0.16447 0.0
C44 C 0.04988 0.77666 0.09873 0.0
C45 C 0.01976 0.74641 0.25014 0.0
C46 C 0.01437 0.72381 0.25474 0.0
C47 C 1.0085 0.71406 0.32178 0.0
C48 C 1.00717 0.72779 0.38575 0.0
C49 C 1.0128 0.75103 0.38125 0.0
C50 C 0.01934 0.75986 0.31301 0.0
C51 C 1.01086 0.76743 0.44349 0.0
C52 C 0.98962 0.77354 0.47035 0.0
C53 C 0.02936 0.78122 0.46167 0.0
C54 C 0.02644 0.80146 0.50048 0.0
C55 C 1.00487 0.80865 0.52158 0.0
C56 C 1.00448 0.68942 0.31846 0.0
C57 C 0.98332 0.68167 0.29472 0.0
C58 C 0.02327 0.6755 0.3069 0.0
C59 C 0.02141 0.65574 0.26521 0.0
C60 C 1.00062 0.64914 0.23518 0.0
C61 C 0.98138 0.66164 0.254 0.0
C62 C 0.98666 0.79387 0.50883 0.0
H63 H 0.99797 0.77098 0.02045 0.0
H64 H 0.99146 0.74993 0.13431 0.0
H65 H 0.05912 0.76462 0.20563 0.0
H66 H 0.06588 0.78503 0.09104 0.0
H67 H 0.01494 0.71359 0.20526 0.0
H68 H 0.0232 0.77761 0.30796 0.0
H69 H 1.00213 0.72055 0.43771 0.0
H70 H 0.97498 0.76357 0.45638 0.0
H71 H 0.04591 0.77716 0.44087 0.0
H72 H 0.04087 0.81228 0.50877 0.0
H73 H 0.96867 0.69231 0.30054 0.0
H74 H 0.03989 0.68128 0.32256 0.0
H75 H 0.96982 0.79858 0.5252 0.0
H76 H 0.96511 0.65708 0.23166 0.0
H77 H 0.03652 0.64638 0.25249 0.0
C78 C 0.74294 0.97646 0.09243 0.0
C79 C 0.73133 0.99617 0.07336 0.0
C80 C 0.76206 0.97773 0.13674 0.0
C81 C 0.76982 0.99869 0.16093 0.0
C82 C 0.76058 0.01835 0.13162 0.0
C83 C 0.74142 0.01712 0.0876 0.0
C84 C 0.78131 1.00003 0.23196 0.0
C85 C 0.80453 1.00123 0.23718 0.0
C86 C 0.81506 1.00243 0.30615 0.0
C87 C 0.80179 1.00242 0.37114 0.0
C88 C 0.77798 1.00092 0.36554 0.0
C89 C 0.76823 1.00007 0.29534 0.0
C90 C 0.76208 1.00032 0.42933 0.0
C91 C 0.74425 0.98476 0.4281 0.0
C92 C 0.76127 0.01774 0.4813 0.0
C93 C 0.74221 0.02054 0.52638 0.0
C94 C 0.72315 1.00633 0.51943 0.0
C95 C 0.83997 1.00307 0.30475 0.0
C96 C 0.85163 0.98285 0.29335 0.0
C97 C 0.85063 0.02334 0.28626 0.0
C98 C 0.87154 0.02327 0.25081 0.0
C99 C 0.88221 1.00289 0.2325 0.0
C100 C 0.87253 0.98274 0.25778 0.0
C101 C 0.72506 0.98787 0.47117 0.0
H102 H 0.73571 0.96011 0.08094 0.0
H103 H 0.76905 0.9624 0.1593 0.0
H104 H 0.76636 0.03466 0.15035 0.0
H105 H 0.73293 0.03264 0.07368 0.0
H106 H 0.81448 1.00113 0.18726 0.0
H107 H 0.75007 0.9995 0.28948 0.0
H108 H 0.80981 1.00317 0.42458 0.0
H109 H 0.74436 0.971 0.38902 0.0
H110 H 0.77467 0.03004 0.48386 0.0
H111 H 0.74227 0.03444 0.56466 0.0
H112 H 0.84351 0.96695 0.30489 0.0
H113 H 0.84179 0.03913 0.29265 0.0
H114 H 0.71127 0.97636 0.46236 0.0
H115 H 0.88006 0.96669 0.2445 0.0
H116 H 0.87866 0.03916 0.23363 0.0
C117 C 0.49414 0.73503 0.50712 0.0
C118 C 0.51364 0.72258 0.52305 0.0
C119 C 0.49556 0.75591 0.47126 0.0
C120 C 0.5165 0.76478 0.45015 0.0
C121 C 0.53605 0.75321 0.47198 0.0
C122 C 0.53464 0.73236 0.50797 0.0
C123 C 0.51755 0.77977 0.38453 0.0
C124 C 0.5177 0.80366 0.38667 0.0
C125 C 0.51811 0.81599 0.31974 0.0
C126 C 0.51818 0.8044 0.25275 0.0
C127 C 0.51833 0.78105 0.25067 0.0
C128 C 0.51806 0.76888 0.31622 0.0
C129 C 0.51862 0.76919 0.17974 0.0
C130 C 0.50219 0.77367 0.12616 0.0
C131 C 0.53459 0.75236 0.16722 0.0
C132 C 0.5334 0.73927 0.104 0.0
C133 C 0.51607 0.74264 0.05254 0.0
C134 C 0.51891 0.8409 0.31382 0.0
C135 C 0.49947 0.8523 0.29052 0.0
C136 C 0.53985 0.85137 0.3034 0.0
C137 C 0.54144 0.87184 0.26539 0.0
C138 C 0.52211 0.8823 0.23625 0.0
C139 C 0.50103 0.87274 0.25242 0.0
C140 C 0.50083 0.76036 0.06306 0.0
H141 H 0.47773 0.72768 0.51635 0.0
H142 H 0.48018 0.76393 0.45302 0.0
H143 H 0.55238 0.75914 0.45429 0.0
H144 H 0.54992 0.72293 0.51783 0.0
H145 H 0.51749 0.8124 0.43889 0.0
H146 H 0.51785 0.75066 0.31405 0.0
H147 H 0.51856 0.8137 0.20148 0.0
H148 H 0.48972 0.78665 0.13498 0.0
H149 H 0.54752 0.74883 0.20766 0.0
H150 H 0.54514 0.72548 0.09812 0.0
H151 H 0.48316 0.84436 0.29575 0.0
H152 H 0.55517 0.84263 0.31829 0.0
H153 H 0.48726 0.76319 0.02431 0.0
H154 H 0.48573 0.88042 0.23217 0.0
H155 H 0.558 0.87849 0.25382 0.0
C156 C 0.26585 0.49837 0.35569 0.0
C157 C 0.24753 0.48355 0.35579 0.0
C158 C 0.27885 0.50077 0.29271 0.0
C159 C 0.27373 0.48836 0.22896 0.0
C160 C 0.25673 0.47209 0.23134 0.0
C161 C 0.24376 0.46965 0.2944 0.0
C162 C 0.28424 0.49455 0.15853 0.0
C163 C 0.30709 0.49935 0.15633 0.0
C164 C 0.31678 0.50983 0.09544 0.0
C165 C 0.3031 0.51482 0.0332 0.0
C166 C 0.27989 0.50883 0.0336 0.0
C167 C 0.27089 0.49873 0.09663 0.0
C168 C 0.26331 0.51462 0.97458 0.0
C169 C 0.25253 0.53561 0.97691 0.0
C170 C 0.25297 0.49724 0.934 0.0
C171 C 0.23166 0.50027 0.90135 0.0
C172 C 0.21996 0.52064 0.90976 0.0
C173 C 0.34085 0.51623 0.1052 0.0
C174 C 0.346 0.53211 0.16008 0.0
C175 C 0.35773 0.50104 0.08444 0.0
C176 C 0.3784 0.50038 0.12235 0.0
C177 C 0.38254 0.51443 0.1838 0.0
C178 C 0.36632 0.53109 0.19928 0.0
C179 C 0.23114 0.53856 0.94518 0.0
H180 H 0.26906 0.50925 0.40235 0.0
H181 H 0.29181 0.51356 0.29225 0.0
H182 H 0.25265 0.46218 0.18312 0.0
H183 H 0.22956 0.45826 0.29256 0.0
H184 H 0.31736 0.4958 0.20436 0.0
H185 H 0.25297 0.49545 0.09909 0.0
H186 H 0.3102 0.52344 0.98636 0.0
H187 H 0.25964 0.54913 1.00945 0.0
H188 H 0.26047 0.48066 0.93309 0.0
H189 H 0.22353 0.48604 0.87529 0.0
H190 H 0.33314 0.54365 0.17879 0.0
H191 H 0.3542 0.48829 0.04346 0.0
H192 H 0.22264 0.55449 0.95274 0.0
H193 H 0.36824 0.54231 0.24562 0.0
H194 H 0.39056 0.48789 0.10568 0.0
C195 C 0.9903 0.26525 0.31826 0.0
C196 C 0.99959 0.24426 0.33475 0.0
C197 C 1.00154 0.27974 0.271 0.0
C198 C 0.02198 0.27314 0.23901 0.0
C199 C 0.03249 0.25333 0.26253 0.0
C200 C 0.02139 0.239 0.31078 0.0
C201 C 0.02929 0.28431 0.17117 0.0
C202 C 0.0299 0.30762 0.16786 0.0
C203 C 0.03111 0.31883 0.10046 0.0
C204 C 0.03257 0.30607 0.03431 0.0
C205 C 0.03271 0.28216 0.03784 0.0
C206 C 0.03123 0.27174 0.10663 0.0
C207 C 0.03334 0.26662 0.97322 0.0
C208 C 1.01354 0.25523 0.95216 0.0
C209 C 0.05405 0.25722 0.95258 0.0
C210 C 0.05501 0.23611 0.91793 0.0
C211 C 0.03528 0.22374 0.90294 0.0
C212 C 0.02874 0.34371 0.10534 0.0
C213 C 1.00796 0.35228 0.12958 0.0
C214 C 0.04805 0.35703 0.11545 0.0
C215 C 0.04686 0.37751 0.15418 0.0
C216 C 0.02641 0.38483 0.18455 0.0
C217 C 1.00685 0.37245 0.16943 0.0
C218 C 0.01448 0.23413 0.91696 0.0
H219 H 0.97347 0.26948 0.33618 0.0
H220 H 0.99307 0.29493 0.25338 0.0
H221 H 0.04831 0.24806 0.23869 0.0
H222 H 0.02875 0.22275 0.32262 0.0
H223 H 0.02813 0.31719 0.21837 0.0
H224 H 0.03024 0.25355 0.10942 0.0
H225 H 0.03308 0.31448 0.98163 0.0
H226 H 0.99733 0.26162 0.96936 0.0
H227 H 0.0696 0.26514 0.96977 0.0
H228 H 0.07134 0.22874 0.90754 0.0
H229 H 0.99291 0.34211 0.12488 0.0
H230 H 0.06438 0.35059 0.09982 0.0
H231 H 0.99896 0.22509 0.9069 0.0
H232 H 0.99089 0.37766 0.19235 0.0
H233 H 0.06221 0.3867 0.16538 0.0
C234 C 0.26672 0.02554 0.35463 0.0
C235 C 0.28892 0.03353 0.35485 0.0
C236 C 0.25325 0.02813 0.29244 0.0
C237 C 0.26149 0.03933 0.22987 0.0
C238 C 0.28248 0.04997 0.23416 0.0
C239 C 0.29618 0.04687 0.29549 0.0
C240 C 0.25002 0.03648 0.15787 0.0
C241 C 0.22671 0.03431 0.15481 0.0
C242 C 0.216 0.02505 0.09323 0.0
C243 C 0.22889 0.01963 0.03007 0.0
C244 C 0.25241 0.02378 0.03021 0.0
C245 C 0.26261 0.03193 0.09455 0.0
C246 C 0.268 0.01752 0.96937 0.0
C247 C 0.27676 0.99562 0.96706 0.0
C248 C 0.27962 0.03458 0.93161 0.0
C249 C 0.30037 0.03023 0.89744 0.0
C250 C 0.3102 1.00877 0.90146 0.0
C251 C 0.19196 0.01906 0.10416 0.0
C252 C 0.18712 1.00215 0.15558 0.0
C253 C 0.17511 0.03475 0.0876 0.0
C254 C 0.15465 0.03468 0.12625 0.0
C255 C 0.15083 0.01938 0.18437 0.0
C256 C 0.16706 1.00244 0.19566 0.0
C257 C 0.29759 0.99131 0.93367 0.0
H258 H 0.26031 0.01579 0.40018 0.0
H259 H 0.23714 0.01967 0.29166 0.0
H260 H 0.28907 0.05928 0.18789 0.0
H261 H 0.31314 0.05336 0.29283 0.0
H262 H 0.21682 0.03829 0.20312 0.0
H263 H 0.28079 0.03309 0.09648 0.0
H264 H 0.22092 1.01194 0.98273 0.0
H265 H 0.26859 0.98226 0.99728 0.0
H266 H 0.27364 0.05175 0.93425 0.0
H267 H 0.30963 0.04411 0.8738 0.0
H268 H 0.20003 0.99019 0.17099 0.0
H269 H 0.17848 0.04825 0.04933 0.0
H270 H 0.30459 0.97456 0.93752 0.0
H271 H 0.16538 0.99035 0.23954 0.0
H272 H 0.14244 0.04751 0.11296 0.0
C273 C 0.48466 0.30339 0.93537 0.0
C274 C 0.50597 0.3088 0.9071 0.0
C275 C 0.48144 0.28405 0.9781 0.0
C276 C 0.49941 0.26944 0.99447 0.0
C277 C 0.52044 0.27401 0.96267 0.0
C278 C 0.52366 0.29339 0.91931 0.0
C279 C 0.49722 0.25351 0.05794 0.0
C280 C 0.50264 0.2302 0.05555 0.0
C281 C 0.50096 0.217 0.12052 0.0
C282 C 0.49423 0.22724 0.18616 0.0
C283 C 0.48973 0.25012 0.18948 0.0
C284 C 0.49076 0.26299 0.12536 0.0
C285 C 0.48806 0.26143 0.26135 0.0
C286 C 0.47219 0.27848 0.27245 0.0
C287 C 0.50526 0.25823 0.31336 0.0
C288 C 0.50859 0.27395 0.3691 0.0
C289 C 0.49473 0.29296 0.3732 0.0
C290 C 0.5068 0.19272 0.12679 0.0
C291 C 0.49071 0.17637 0.10867 0.0
C292 C 0.52415 0.18672 0.17568 0.0
C293 C 0.5238 0.1661 0.21274 0.0
C294 C 0.50633 0.15045 0.2008 0.0
C295 C 0.49067 0.15539 0.14431 0.0
C296 C 0.47537 0.29404 0.32882 0.0
H297 H 0.47048 0.31444 0.92606 0.0
H298 H 0.46505 0.28117 1.00215 0.0
H299 H 0.53476 0.26346 0.9754 0.0
H300 H 0.54035 0.29692 0.89876 0.0
H301 H 0.50821 0.22258 1.00469 0.0
H302 H 0.48798 0.28097 0.12896 0.0
H303 H 0.49334 0.21743 0.23632 0.0
H304 H 0.45857 0.28097 0.23366 0.0
H305 H 0.51769 0.24512 0.30605 0.0
H306 H 0.52363 0.27266 0.40254 0.0
H307 H 0.47694 0.18054 0.07207 0.0
H308 H 0.53656 0.19912 0.19194 0.0
H309 H 0.4642 0.30839 0.33201 0.0
H310 H 0.47746 0.14365 0.13031 0.0
H311 H 0.53627 0.16351 0.2552 0.0
Sm312 Sm 0.03758 1.00823 0.75498 0.0
Sm313 Sm 0.99861 0.0229 0.66406 0.0
C314 C 0.06709 0.99849 0.85829 0.0
C315 C 0.06724 0.97759 0.90059 0.0
C316 C 0.04654 0.96819 0.92049 0.0
C317 C 0.04469 0.94533 0.93318 0.0
C318 C 0.06369 0.93138 0.92841 0.0
C319 C 0.08492 0.9413 0.91739 0.0
C320 C 0.08665 0.96428 0.90275 0.0
C321 C 0.04802 0.01362 0.60866 0.0
C322 C 1.0092 0.96846 0.68119 0.0
C323 C 0.97334 0.03152 0.54795 0.0
C324 C 0.97212 0.04904 0.49235 0.0
C325 C 0.99144 0.06123 0.47405 0.0
C326 C 0.98937 0.08187 0.43908 0.0
C327 C 0.96796 0.09062 0.42323 0.0
C328 C 0.94884 0.07729 0.43449 0.0
C329 C 0.95094 0.05653 0.46913 0.0
C330 C 0.98037 1.01076 0.79818 0.0
C331 C 0.02523 0.06296 0.74976 0.0
O332 O 0.04995 1.01178 0.86979 0.0
O333 O 0.07122 0.99567 0.78847 0.0
O334 O 0.03621 0.02715 0.6462 0.0
O335 O 0.05434 0.99671 0.6483 0.0
O336 O 0.02159 0.97317 0.73941 0.0
O337 O 1.00125 0.98478 0.63947 0.0
O338 O 0.99078 0.01809 0.5457 0.0
O339 O 0.96859 0.03847 0.61431 0.0
O340 O 1.00101 1.00989 0.78214 0.0
O341 O 0.96899 0.01889 0.74392 0.0
O342 O 1.00933 0.05877 0.70059 0.0
O343 O 0.0377 0.04653 0.77694 0.0
H344 H 0.0313 0.97805 0.919 0.0
H345 H 0.02797 0.93856 0.94063 0.0
H346 H 0.10002 0.93118 0.91586 0.0
H347 H 0.10278 0.97124 0.88727 0.0
H348 H 1.00791 0.05569 0.49189 0.0
H349 H 1.00437 0.09177 0.42963 0.0
H350 H 0.93219 0.08374 0.42273 0.0
H351 H 0.93589 0.04725 0.48337 0.0
Sm352 Sm 0.5194 0.03775 0.77264 0.0
Sm353 Sm 0.51487 0.99493 0.65917 0.0
C354 C 0.52539 0.06256 0.89119 0.0
C355 C 0.53949 0.05915 0.95646 0.0
C356 C 0.53957 0.03826 0.99208 0.0
C357 C 0.55803 0.03187 0.03422 0.0
C358 C 0.57668 0.0462 0.04077 0.0
C359 C 0.575 0.06834 0.01447 0.0
C360 C 0.55648 0.07477 0.97231 0.0
C361 C 0.50783 0.05186 0.63156 0.0
C362 C 0.56514 0.01622 0.69221 0.0
C363 C 0.50421 0.9732 0.53917 0.0
C364 C 0.48308 0.9779 0.50112 0.0
C365 C 0.47341 0.99899 0.51371 0.0
C366 C 0.45062 1.00231 0.50331 0.0
C367 C 0.43686 0.9848 0.47742 0.0
C368 C 0.44691 0.96408 0.45895 0.0
C369 C 0.46989 0.96055 0.47179 0.0
C370 C 0.52452 0.98014 0.80043 0.0
C371 C 0.47031 1.01285 0.75178 0.0
O372 O 0.50824 0.04893 0.88299 0.0
O373 O 0.53672 0.06557 0.83031 0.0
O374 O 0.51064 0.03219 0.65496 0.0
O375 O 0.51082 0.06556 0.68609 0.0
O376 O 0.55649 0.02879 0.74568 0.0
O377 O 0.55277 1.00294 0.64948 0.0
O378 O 0.51894 0.98968 0.53894 0.0
O379 O 0.50114 0.96458 0.60456 0.0
O380 O 0.52272 1.00022 0.77858 0.0
O381 O 0.5217 0.9668 0.74453 0.0
O382 O 0.47768 1.0025 0.69182 0.0
O383 O 0.48355 0.02503 0.7947 0.0
H384 H 0.52652 0.02597 0.98161 0.0
H385 H 0.55863 0.01484 0.0546 0.0
H386 H 0.58887 0.07999 0.02072 0.0
H387 H 0.55656 0.09109 0.94604 0.0
H388 H 0.48308 1.01238 0.53872 0.0
H389 H 0.44372 0.01827 0.52063 0.0
H390 H 0.43695 0.95034 0.43748 0.0
H391 H 0.47698 0.944 0.46327 0.0
Sm392 Sm 0.49464 0.51745 0.75902 0.0
Sm393 Sm 0.53716 0.51184 0.6472 0.0
C394 C 0.47068 0.52543 0.87791 0.0
C395 C 0.46934 0.54683 0.91924 0.0
C396 C 0.48701 0.55302 0.96654 0.0
C397 C 0.49133 0.57564 0.98044 0.0
C398 C 0.47774 0.59227 0.94857 0.0
C399 C 0.45796 0.58595 0.91185 0.0
C400 C 0.4537 0.56331 0.89758 0.0
C401 C 0.48207 0.50929 0.61542 0.0
C402 C 0.51362 0.56168 0.66608 0.0
C403 C 0.5634 0.50444 0.53312 0.0
C404 C 0.56524 0.48456 0.48554 0.0
C405 C 0.5461 0.47645 0.44885 0.0
C406 C 0.54493 0.45403 0.42795 0.0
C407 C 0.56287 0.43941 0.44331 0.0
C408 C 0.58303 0.44813 0.47146 0.0
C409 C 0.58429 0.47071 0.49179 0.0
C410 C 0.55126 0.52315 0.78948 0.0
C411 C 0.51572 0.46647 0.7288 0.0
O412 O 0.49011 0.51501 0.87998 0.0
O413 O 0.46209 0.52594 0.81157 0.0
O414 O 0.50008 0.50234 0.64555 0.0
O415 O 0.46845 0.5168 0.66544 0.0
O416 O 0.50226 0.55471 0.72476 0.0
O417 O 0.5262 0.54806 0.62613 0.0
O418 O 0.54474 0.51618 0.52849 0.0
O419 O 0.56976 0.50091 0.6011 0.0
O420 O 0.53166 0.52202 0.76339 0.0
O421 O 0.56492 0.51876 0.73605 0.0
O422 O 0.5285 0.47479 0.6753 0.0
O423 O 0.50262 0.47937 0.77046 0.0
H424 H 0.49891 0.54066 0.98645 0.0
H425 H 0.5063 0.58017 0.01116 0.0
H426 H 0.447 0.5985 0.88782 0.0
H427 H 0.43953 0.559 0.86277 0.0
H428 H 0.53118 0.48671 0.44274 0.0
H429 H 0.52913 0.44775 0.40646 0.0
H430 H 0.59718 0.43719 0.4826 0.0
H431 H 0.59932 0.47671 0.51932 0.0
Sm432 Sm 1.00643 0.5 0.76217 0.0
Sm433 Sm 0.02034 0.5403 0.64682 0.0
C434 C 0.9982 0.47596 0.88104 0.0
C435 C 0.98073 0.47295 0.93623 0.0
C436 C 0.96789 0.49123 0.96024 0.0
C437 C 0.94788 0.4875 0.99763 0.0
C438 C 0.94042 0.46545 0.01041 0.0
C439 C 0.95448 0.4473 0.99332 0.0
C440 C 0.97459 0.45107 0.95622 0.0
C441 C 0.01751 0.48242 0.62426 0.0
C442 C 0.96629 0.52755 0.6704 0.0
C443 C 0.03691 0.55745 0.52683 0.0
C444 C 0.05641 0.54612 0.49502 0.0
C445 C 0.06128 0.52484 0.52327 0.0
C446 C 0.082 0.51505 0.51281 0.0
C447 C 0.09857 0.526 0.47172 0.0
C448 C 0.09336 0.54696 0.43927 0.0
C449 C 0.07241 0.55715 0.45185 0.0
C450 C 1.00939 0.55757 0.78385 0.0
C451 C 0.05969 0.51675 0.75086 0.0
O452 O 1.00959 0.49481 0.88251 0.0
O453 O 0.99246 0.46967 0.81463 0.0
O454 O 0.018 0.50267 0.64524 0.0
O455 O 1.01185 0.47034 0.68035 0.0
O456 O 0.97121 0.5136 0.72566 0.0
O457 O 0.98187 0.53814 0.63103 0.0
O458 O 0.01831 0.54554 0.52592 0.0
O459 O 0.04122 0.56615 0.59157 0.0
O460 O 1.00896 0.5374 0.76262 0.0
O461 O 0.01562 0.5701 0.72894 0.0
O462 O 0.05516 0.5285 0.69092 0.0
O463 O 0.04396 0.50611 0.78861 0.0
H464 H 0.97245 0.50823 0.94578 0.0
H465 H 0.93739 0.50176 0.01147 0.0
H466 H 0.94903 0.43017 1.00258 0.0
H467 H 0.98446 0.4368 0.93813 0.0
H468 H 0.04963 0.51637 0.55904 0.0
H469 H 0.08526 0.49947 0.54145 0.0
H470 H 0.1056 0.5558 0.40631 0.0
H471 H 0.06914 0.57385 0.43087 0.0
H472 H 0.12984 0.98734 0.27346 0.0
H473 H 0.12794 0.05857 0.22052 0.0
H474 H 0.09888 0.06414 0.31408 0.0
H475 H 0.07137 0.97955 0.32169 0.0
H476 H 0.07778 0.96148 0.39834 0.0
H477 H 0.09633 0.96239 0.32031 0.0
H478 H 0.12974 0.97238 0.40603 0.0
H479 H 0.11132 0.97142 0.48423 0.0
H480 H 0.12758 0.99635 0.46623 0.0
H481 H 0.07102 0.06257 0.42112 0.0
H482 H 0.04929 0.05393 0.53389 0.0
H483 H 0.07201 0.98484 0.52272 0.0
C484 C 0.12352 1.00421 0.2808 0.0
C485 C 0.13147 0.02237 0.23738 0.0
C486 C 0.12203 0.044 0.25012 0.0
C487 C 0.10551 0.04748 0.30422 0.0
C488 C 0.09857 0.0293 0.34663 0.0
C489 C 0.10743 1.00812 0.33579 0.0
C490 C 0.09863 0.99173 0.39268 0.0
C491 C 0.08523 0.97266 0.35604 0.0
C492 C 0.11797 0.98243 0.44009 0.0
C493 C 0.08343 1.00699 0.43718 0.0
C494 C 0.08338 0.02858 0.40949 0.0
C495 C 0.0709 0.04567 0.44293 0.0
C496 C 0.05852 0.04062 0.50682 0.0
C497 C 0.05887 0.01873 0.53703 0.0
C498 C 0.07131 1.00174 0.50088 0.0
H499 H 0.53826 0.12752 0.2864 0.0
H500 H 0.46664 0.12864 0.23715 0.0
H501 H 0.46049 0.09938 0.32936 0.0
H502 H 0.5433 0.06775 0.33397 0.0
H503 H 0.56225 0.07324 0.40936 0.0
H504 H 0.5619 0.09163 0.33075 0.0
H505 H 0.55449 0.12576 0.41577 0.0
H506 H 0.55499 0.10752 0.49448 0.0
H507 H 0.53088 0.12512 0.4776 0.0
H508 H 0.46109 0.07244 0.43718 0.0
H509 H 0.46856 0.0525 0.55427 0.0
H510 H 0.53883 0.0707 0.54029 0.0
C511 C 0.52121 0.12171 0.29407 0.0
C512 C 0.50308 0.13068 0.25213 0.0
C513 C 0.48118 0.12196 0.2654 0.0
C514 C 0.47738 0.1053 0.31873 0.0
C515 C 0.49552 0.09737 0.35976 0.0
C516 C 0.51701 0.1054 0.34831 0.0
C517 C 0.53325 0.09581 0.40479 0.0
C518 C 0.55124 0.08124 0.36747 0.0
C519 C 0.54403 0.11467 0.45088 0.0
C520 C 0.51745 0.08154 0.45078 0.0
C521 C 0.4958 0.08231 0.42304 0.0
C522 C 0.47806 0.07142 0.45846 0.0
C523 C 0.48245 0.05994 0.5246 0.0
C524 C 0.50437 0.05935 0.5547 0.0
C525 C 0.52206 0.07021 0.51694 0.0
H526 H 0.40389 0.54439 0.28081 0.0
H527 H 0.40582 0.47466 0.20936 0.0
H528 H 0.43549 0.46708 0.29975 0.0
H529 H 0.46333 0.55067 0.33006 0.0
H530 H 0.45719 0.56706 0.41089 0.0
H531 H 0.43862 0.56817 0.33251 0.0
H532 H 0.40501 0.55675 0.41459 0.0
H533 H 0.42339 0.55586 0.49316 0.0
H534 H 0.40687 0.53154 0.46906 0.0
H535 H 0.46422 0.46626 0.40641 0.0
H536 H 0.48482 0.47182 0.52441 0.0
H537 H 0.46075 0.54038 0.53343 0.0
C538 C 0.4104 0.52746 0.28325 0.0
C539 C 0.40223 0.51035 0.23544 0.0
C540 C 0.41188 0.48854 0.24222 0.0
C541 C 0.42881 0.48391 0.29442 0.0
C542 C 0.43607 0.50107 0.34102 0.0
C543 C 0.42695 0.52238 0.33626 0.0
C544 C 0.43589 0.53733 0.39739 0.0
C545 C 0.44957 0.55697 0.3658 0.0
C546 C 0.41665 0.54586 0.44645 0.0
C547 C 0.451 0.521 0.43835 0.0
C548 C 0.45144 0.50029 0.40409 0.0
C549 C 0.46405 0.4825 0.43324 0.0
C550 C 0.4759 0.48582 0.5 0.0
C551 C 0.47465 0.50664 0.53757 0.0
C552 C 0.46229 0.5244 0.50532 0.0
H553 H 0.0218 0.38147 0.3332 0.0
H554 H 0.02992 0.43025 0.15919 0.0
H555 H 0.02844 0.46114 0.25133 0.0
H556 H 0.98391 0.41367 0.4463 0.0
H557 H 0.99625 0.40433 0.5315 0.0
H558 H 0.99727 0.38654 0.45145 0.0
H559 H 0.04061 0.3842 0.46308 0.0
H560 H 0.03973 0.40201 0.5431 0.0
H561 H 0.05691 0.40973 0.46571 0.0
H562 H 0.0236 0.48694 0.36567 0.0
H563 H 0.01943 0.50427 0.4887 0.0
H564 H 0.01896 0.43818 0.58741 0.0
C565 C 0.02323 0.39869 0.31465 0.0
C566 C 0.02583 0.40356 0.23911 0.0
C567 C 0.02786 0.42623 0.2168 0.0
C568 C 0.027 0.44384 0.26882 0.0
C569 C 0.0244 0.43849 0.34317 0.0
C570 C 0.0228 0.41638 0.3659 0.0
C571 C 0.02077 0.4149 0.44884 0.0
C572 C 0.99821 0.40423 0.47079 0.0
C573 C 0.0407 0.40195 0.48213 0.0
C574 C 0.02156 0.43959 0.46962 0.0
C575 C 0.0233 0.45303 0.40809 0.0
C576 C 0.02289 0.47646 0.41415 0.0
C577 C 0.02089 0.48628 0.48461 0.0
C578 C 0.02007 0.4728 0.5486 0.0
C579 C 0.02021 0.44912 0.5401 0.0
H580 H 0.88844 0.02903 0.1097 0.0
H581 H 0.91952 0.9751 0.2338 0.0
H582 H 0.94918 0.972 0.13921 0.0
H583 H 0.897 1.00655 0.93495 0.0
H584 H 0.90287 0.03304 0.89116 0.0
H585 H 0.88531 0.03217 0.97141 0.0
H586 H 0.91148 0.06067 0.03715 0.0
H587 H 0.92908 0.06175 0.95679 0.0
H588 H 0.9411 0.0547 0.0448 0.0
H589 H 0.97481 0.9738 0.02534 0.0
H590 H 0.99294 0.98022 0.90422 0.0
H591 H 0.9447 0.0327 0.85719 0.0
C592 C 0.90178 0.01694 0.11835 0.0
C593 C 0.90162 1.00244 0.18002 0.0
C594 C 0.91912 0.98639 0.18722 0.0
C595 C 0.93614 0.98456 0.13381 0.0
C596 C 0.93554 0.99893 0.07325 0.0
C597 C 0.91881 0.01488 0.06564 0.0
C598 C 0.92125 0.02769 0.9942 0.0
C599 C 0.90037 0.02467 0.94505 0.0
C600 C 0.92601 0.05268 1.00915 0.0
C601 C 0.94162 0.01612 0.96174 0.0
C602 C 0.9499 0.99977 1.00835 0.0
C603 C 0.96856 0.98676 0.989 0.0
C604 C 0.97891 0.9906 0.92048 0.0
C605 C 0.97047 1.00712 0.87197 0.0
C606 C 0.95158 0.01995 0.89323 0.0
H607 H 0.49797 0.88955 0.10896 0.0
H608 H 0.55132 0.91851 0.24162 0.0
H609 H 0.55627 0.94856 0.14913 0.0
H610 H 0.52304 0.89863 0.93736 0.0
H611 H 0.49714 0.90514 0.89032 0.0
H612 H 0.49682 0.88715 0.96964 0.0
H613 H 0.46789 0.91344 0.0322 0.0
H614 H 0.46819 0.93158 0.95301 0.0
H615 H 0.47432 0.94286 0.04281 0.0
H616 H 0.55638 0.97488 0.03631 0.0
H617 H 0.55214 0.99364 0.91464 0.0
H618 H 0.49937 0.94664 0.8575 0.0
C619 C 0.51035 0.90248 0.11976 0.0
C620 C 0.52409 0.90163 0.1835 0.0
C621 C 0.54058 0.91863 0.19352 0.0
C622 C 0.54344 0.93588 0.1413 0.0
C623 C 0.5297 0.93605 0.0789 0.0
C624 C 0.51347 0.91973 0.06816 0.0
C625 C 0.5016 0.92286 0.99502 0.0
C626 C 0.50486 0.90222 0.94516 0.0
C627 C 0.47651 0.92799 1.00647 0.0
C628 C 0.51393 0.94321 0.96542 0.0
C629 C 0.52989 0.95087 0.01477 0.0
C630 C 0.54364 0.96925 0.99794 0.0
C631 C 0.54109 0.97988 0.92898 0.0
C632 C 0.52524 0.9718 0.87729 0.0
C633 C 0.51148 0.95333 0.89635 0.0
H634 H 0.64104 0.50666 0.11031 0.0
H635 H 0.60551 0.55663 0.23825 0.0
H636 H 0.5756 0.55805 0.14268 0.0
H637 H 0.63086 0.53197 0.938 0.0
H638 H 0.62834 0.50575 0.88897 0.0
H639 H 0.64534 0.50732 0.97074 0.0
H640 H 0.62243 0.47481 0.02822 0.0
H641 H 0.60526 0.4732 0.94665 0.0
H642 H 0.5923 0.47722 0.03511 0.0
H643 H 0.54947 0.55409 0.02758 0.0
H644 H 0.53292 0.54809 0.90308 0.0
H645 H 0.58726 0.50251 0.85091 0.0
C646 C 0.62673 0.51758 0.11899 0.0
C647 C 0.62542 0.53124 0.18254 0.0
C648 C 0.60678 0.54588 0.1904 0.0
C649 C 0.58968 0.54671 0.13642 0.0
C650 C 0.59154 0.53303 0.07415 0.0
C651 C 0.60981 0.51891 0.06519 0.0
C652 C 0.60902 0.50718 0.99128 0.0
C653 C 0.6296 0.51344 0.9445 0.0
C654 C 0.60713 0.48159 1.00092 0.0
C655 C 0.58757 0.51693 0.95942 0.0
C656 C 0.57739 0.53154 1.00815 0.0
C657 C 0.55737 0.54261 0.98942 0.0
C658 C 0.54793 0.539 0.91889 0.0
C659 C 0.55866 0.52473 0.86763 0.0
C660 C 0.57858 0.51347 0.889 0.0
H661 H 0.02714 0.64458 0.11321 0.0
H662 H 0.97095 0.61358 0.22509 0.0
H663 H 0.96823 0.58507 0.12571 0.0
H664 H 1.0049 0.63882 0.93363 0.0
H665 H 0.03168 0.63356 0.89089 0.0
H666 H 0.03029 0.65002 0.97377 0.0
H667 H 0.05849 0.62301 0.03682 0.0
H668 H 0.05995 0.60643 0.95404 0.0
H669 H 0.05241 0.59335 0.03977 0.0
H670 H 0.97184 0.55974 0.0104 0.0
H671 H 0.97922 0.5429 0.88746 0.0
H672 H 0.03132 0.59224 0.84987 0.0
C673 C 0.01453 0.63153 0.11761 0.0
C674 C 0.9995 0.63109 0.17779 0.0
C675 C 0.98276 0.61415 0.17996 0.0
C676 C 0.98115 0.59785 0.12378 0.0
C677 C 0.99622 0.59883 0.06505 0.0
C678 C 1.01247 0.61542 0.0615 0.0
C679 C 0.02569 0.61384 0.99055 0.0
C680 C 0.02296 0.63533 0.94451 0.0
C681 C 0.05061 0.60886 1.00626 0.0
C682 C 0.01427 0.59395 0.95411 0.0
C683 C 0.99757 0.58517 0.99827 0.0
C684 C 0.98491 0.56654 0.97572 0.0
C685 C 0.98929 0.55693 0.9062 0.0
C686 C 1.00588 0.56616 0.85965 0.0
C687 C 0.01849 0.58485 0.88434 0.0
H688 H 1.00559 0.21636 0.4516 0.0
H689 H 0.96219 0.22995 0.26549 0.0
H690 H 0.94455 0.19276 0.27916 0.0
H691 H 0.01798 0.15259 0.50384 0.0
H692 H 0.02281 0.18221 0.49568 0.0
H693 H 0.01931 0.16527 0.41414 0.0
H694 H 0.98875 0.19067 0.57728 0.0
H695 H 0.98238 0.16115 0.587 0.0
H696 H 0.96136 0.18009 0.5527 0.0
H697 H 0.9388 0.15163 0.29285 0.0
H698 H 0.94207 0.11076 0.31674 0.0
H699 H 0.98794 0.1246 0.49686 0.0
C700 C 0.99153 0.21186 0.41661 0.0
C701 C 0.98492 0.22589 0.35843 0.0
C702 C 0.967 0.21948 0.31159 0.0
C703 C 0.95697 0.19838 0.31869 0.0
C704 C 0.96471 0.18428 0.37409 0.0
C705 C 0.98106 0.19102 0.42391 0.0
C706 C 0.98795 0.17195 0.47363 0.0
C707 C 1.01351 0.16778 0.47161 0.0
C708 C 0.97965 0.17623 0.55233 0.0
C709 C 0.97498 0.15299 0.43833 0.0
C710 C 0.96113 0.16046 0.3825 0.0
C711 C 0.94907 0.14562 0.33788 0.0
C712 C 0.95115 0.12252 0.35127 0.0
C713 C 0.96547 0.11472 0.4078 0.0
C714 C 0.97715 0.13019 0.45244 0.0
H715 H 0.32629 0.05479 0.40966 0.0
H716 H 0.29025 0.99138 0.41661 0.0
H717 H 0.32326 0.97325 0.47101 0.0
H718 H 0.37097 0.03266 0.33134 0.0
H719 H 0.39204 0.04991 0.37505 0.0
H720 H 0.36393 0.0603 0.36476 0.0
H721 H 0.36142 0.06722 0.50475 0.0
H722 H 0.38965 0.05677 0.51692 0.0
H723 H 0.36677 0.04451 0.56768 0.0
H724 H 0.3623 0.96 0.4989 0.0
H725 H 0.40324 0.95346 0.5006 0.0
H726 H 0.41411 0.02388 0.44856 0.0
C727 C 0.32505 0.03726 0.4247 0.0
C728 C 0.30562 0.02464 0.40824 0.0
C729 C 0.30469 1.00172 0.42968 0.0
C730 C 0.32351 0.99113 0.46033 0.0
C731 C 0.34313 1.00359 0.46881 0.0
C732 C 0.34395 0.02626 0.45214 0.0
C733 C 0.36781 0.03488 0.4514 0.0
C734 C 0.37403 0.045 0.37619 0.0
C735 C 0.37165 0.05185 0.51392 0.0
C736 C 0.3803 1.01328 0.46555 0.0
C737 C 0.36588 0.99558 0.47833 0.0
C738 C 0.37377 0.97382 0.48973 0.0
C739 C 0.39708 0.97019 0.48909 0.0
C740 C 0.41213 0.98814 0.47472 0.0
C741 C 0.40336 1.00983 0.46199 0.0
H742 H 0.49704 0.33305 0.30569 0.0
H743 H 0.51531 0.29918 0.50818 0.0
H744 H 0.53744 0.33266 0.5462 0.0
H745 H 0.54941 0.35731 0.27308 0.0
H746 H 0.53825 0.38299 0.23548 0.0
H747 H 0.52245 0.35731 0.22754 0.0
H748 H 0.48821 0.37578 0.29186 0.0
H749 H 0.50364 0.40172 0.29781 0.0
H750 H 0.49206 0.38932 0.37968 0.0
H751 H 0.55812 0.36997 0.5588 0.0
H752 H 0.57275 0.40876 0.55026 0.0
H753 H 0.54235 0.41565 0.33453 0.0
C754 C 0.50498 0.33287 0.35932 0.0
C755 C 0.50405 0.31378 0.40494 0.0
C756 C 0.51558 0.31386 0.47314 0.0
C757 C 0.52828 0.33267 0.49472 0.0
C758 C 0.52941 0.35091 0.44682 0.0
C759 C 0.51786 0.35115 0.38088 0.0
C760 C 0.52215 0.3723 0.33772 0.0
C761 C 0.53376 0.36715 0.26412 0.0
C762 C 0.50022 0.38556 0.32614 0.0
C763 C 0.53783 0.38418 0.38986 0.0
C764 C 0.54193 0.37165 0.45246 0.0
C765 C 0.55519 0.37982 0.50976 0.0
C766 C 0.56367 0.40173 0.50397 0.0
C767 C 0.55882 0.41501 0.44128 0.0
C768 C 0.5464 0.40577 0.38275 0.0
H769 H 0.22909 0.52251 0.40276 0.0
H770 H 0.22447 0.45021 0.42628 0.0
H771 H 0.1866 0.45436 0.47905 0.0
H772 H 0.19246 0.53775 0.56935 0.0
H773 H 0.17931 0.56063 0.52069 0.0
H774 H 0.2084 0.55379 0.50415 0.0
H775 H 0.20117 0.54938 0.36628 0.0
H776 H 0.17211 0.5564 0.37871 0.0
H777 H 0.17962 0.53038 0.33438 0.0
H778 H 0.14718 0.46465 0.48335 0.0
H779 H 0.10979 0.48114 0.47224 0.0
H780 H 0.13953 0.54783 0.46131 0.0
C781 C 0.22072 0.50769 0.4236 0.0
C782 C 0.22959 0.48603 0.41082 0.0
C783 C 0.21785 0.46691 0.4359 0.0
C784 C 0.19638 0.46914 0.4659 0.0
C785 C 0.18722 0.49062 0.47148 0.0
C786 C 0.19927 0.50969 0.45356 0.0
C787 C 0.18445 0.53041 0.45414 0.0
C788 C 0.19155 0.5466 0.51579 0.0
C789 C 0.18435 0.54231 0.37891 0.0
C790 C 0.16194 0.51971 0.46984 0.0
C791 C 0.16398 0.49678 0.47964 0.0
C792 C 0.14536 0.48271 0.48058 0.0
C793 C 0.1241 0.49235 0.47404 0.0
C794 C 0.12143 0.51601 0.46902 0.0
C795 C 0.14075 0.52977 0.4663 0.0
H796 H 1.00855 0.81681 0.0481 0.0
H797 H 0.0625 0.78306 0.93375 0.0
H798 H 0.07292 0.81887 0.8736 0.0
H799 H 0.99677 0.86377 0.90875 0.0
H800 H 0.99312 0.88342 0.98319 0.0
H801 H 0.98492 0.85448 0.99459 0.0
H802 H 1.01019 0.85226 0.11063 0.0
H803 H 0.0191 0.88078 0.09842 0.0
H804 H 0.03973 0.85866 0.10307 0.0
H805 H 0.08166 0.85909 0.84552 0.0
H806 H 0.08802 0.89994 0.8505 0.0
H807 H 0.03229 0.90655 1.00306 0.0
C808 C 0.02161 0.81678 1.00672 0.0
C809 C 0.03434 0.79733 0.99327 0.0
C810 C 0.05225 0.79785 0.94259 0.0
C811 C 0.05826 0.81808 0.90855 0.0
C812 C 0.04635 0.83746 0.92713 0.0
C813 C 0.02826 0.8369 0.97482 0.0
C814 C 0.02126 0.86019 0.99843 0.0
C815 C 0.99762 0.86579 0.96947 0.0
C816 C 0.02268 0.86312 0.08256 0.0
C817 C 0.03894 0.87386 0.95982 0.0
C818 C 0.05277 0.86063 0.91701 0.0
C819 C 0.07083 0.86963 0.87852 0.0
C820 C 0.07458 0.89283 0.88299 0.0
C821 C 0.06075 0.90663 0.92762 0.0
C822 C 0.0429 0.89676 0.96698 0.0
H823 H 0.70634 0.02154 0.97697 0.0
H824 H 0.70097 0.97051 0.14626 0.0
H825 H 0.66037 0.97719 0.15426 0.0
H826 H 0.6716 0.05948 0.05661 0.0
H827 H 0.658 0.06949 0.9743 0.0
H828 H 0.68592 0.05801 0.96955 0.0
H829 H 0.6731 0.0287 0.87259 0.0
H830 H 0.64528 0.04062 0.87487 0.0
H831 H 0.64919 1.01105 0.89155 0.0
H832 H 0.62219 0.99394 0.1609 0.0
H833 H 0.58668 0.01507 0.14777 0.0
H834 H 0.61666 0.05466 0.97314 0.0
C835 C 0.69644 1.01117 0.01349 0.0
C836 C 0.70681 0.99539 0.06036 0.0
C837 C 0.69338 0.98233 0.10843 0.0
C838 C 0.67029 0.98619 0.11417 0.0
C839 C 0.66087 1.00293 0.07083 0.0
C840 C 0.67332 0.01476 0.01978 0.0
C841 C 0.65934 0.03281 0.98333 0.0
C842 C 0.66932 0.05633 0.9968 0.0
C843 C 0.65655 0.028 0.90071 0.0
C844 C 0.63743 0.02979 0.02407 0.0
C845 C 0.63865 1.01249 0.07427 0.0
C846 C 0.62082 1.00723 0.12062 0.0
C847 C 0.6008 0.0194 0.11315 0.0
C848 C 0.59885 0.03653 0.05958 0.0
C849 C 0.61763 0.04197 0.0156 0.0
H850 H 0.47634 0.72204 0.02541 0.0
H851 H 0.54639 0.72253 0.96091 0.0
H852 H 0.54191 0.68481 0.90676 0.0
H853 H 0.47473 0.67233 0.09159 0.0
H854 H 0.44744 0.6631 0.06054 0.0
H855 H 0.45302 0.69254 0.07103 0.0
H856 H 0.44224 0.70008 0.93536 0.0
H857 H 0.43562 0.67068 0.9248 0.0
H858 H 0.45527 0.68391 0.86325 0.0
H859 H 0.53374 0.64463 0.89999 0.0
H860 H 0.5196 0.60586 0.90938 0.0
H861 H 0.45438 0.63105 0.9764 0.0
C862 C 0.49031 0.71481 0.99558 0.0
C863 C 0.5117 0.72505 0.9972 0.0
C864 C 0.52988 0.71484 0.96008 0.0
C865 C 0.52747 0.69345 0.92922 0.0
C866 C 0.50667 0.68285 0.93486 0.0
C867 C 0.48811 0.69347 0.96455 0.0
C868 C 0.46863 0.6773 0.97362 0.0
C869 C 0.46052 0.67627 0.05394 0.0
C870 C 0.4493 0.68335 0.9211 0.0
C871 C 0.4798 0.65562 0.95076 0.0
C872 C 0.50164 0.65926 0.92782 0.0
C873 C 0.51636 0.6416 0.9142 0.0
C874 C 0.50833 0.61966 0.92138 0.0
C875 C 0.48591 0.61559 0.94367 0.0
C876 C 0.47145 0.6338 0.95794 0.0
H877 H 0.81148 0.49165 0.98089 0.0
H878 H 0.80136 0.44632 0.16389 0.0
H879 H 0.84012 0.43244 0.15081 0.0
H880 H 0.85336 0.45495 0.87739 0.0
H881 H 0.87006 0.47887 0.85201 0.0
H882 H 0.83994 0.48156 0.85925 0.0
H883 H 0.84403 0.51412 0.95143 0.0
H884 H 0.87405 0.51257 0.94408 0.0
H885 H 0.86092 0.51038 0.03295 0.0
H886 H 0.88196 0.43015 0.13713 0.0
H887 H 0.92251 0.4369 0.11377 0.0
H888 H 0.90489 0.48448 0.94286 0.0
C889 C 0.81712 0.47799 0.01557 0.0
C890 C 0.8035 0.4699 0.07276 0.0
C891 C 0.81143 0.45237 0.11853 0.0
C892 C 0.8335 0.44451 0.11195 0.0
C893 C 0.84717 0.45416 0.05871 0.0
C894 C 0.83911 0.47014 0.01005 0.0
C895 C 0.85776 0.48009 0.96458 0.0
C896 C 0.85508 0.47347 0.88345 0.0
C897 C 0.85926 0.50579 0.97392 0.0
C898 C 0.87768 0.46844 0.99881 0.0
C899 C 0.87133 0.45318 0.05189 0.0
C900 C 0.88712 0.44167 0.09444 0.0
C901 C 0.91001 0.4457 0.08139 0.0
C902 C 0.91663 0.46141 0.02742 0.0
C903 C 0.90023 0.47266 0.9854 0.0
H904 H 1.0128 0.19862 0.79405 0.0
H905 H 0.06062 0.19265 0.97356 0.0
H906 H 0.06301 0.15191 0.95233 0.0
H907 H 0.98304 0.14687 0.82097 0.0
H908 H 0.98078 0.13968 0.72494 0.0
H909 H 0.98268 0.16871 0.75236 0.0
H910 H 0.01713 0.17392 0.66784 0.0
H911 H 0.01578 0.14474 0.64066 0.0
H912 H 0.04127 0.15602 0.67922 0.0
H913 H 0.06023 0.11203 0.91498 0.0
H914 H 0.05297 0.07484 0.8625 0.0
H915 H 1.00709 0.1044 0.70343 0.0
C916 C 0.02379 0.18869 0.82866 0.0
C917 C 0.03671 0.19906 0.88533 0.0
C918 C 0.05088 0.18536 0.92914 0.0
C919 C 0.05225 0.16209 0.91778 0.0
C920 C 0.0395 0.15244 0.86172 0.0
C921 C 0.02567 0.1652 0.81724 0.0
C922 C 0.01445 0.15025 0.7594 0.0
C923 C 0.9887 0.15145 0.76479 0.0
C924 C 0.02261 0.15664 0.68216 0.0
C925 C 0.02326 0.12707 0.78093 0.0
C926 C 0.03796 0.12899 0.83949 0.0
C927 C 0.04876 0.11033 0.86903 0.0
C928 C 0.04449 0.08914 0.83837 0.0
C929 C 0.0294 0.08633 0.77839 0.0
C930 C 0.01865 0.10576 0.74929 0.0
H931 H 0.3347 0.02129 0.77643 0.0
H932 H 0.34144 0.98953 0.9899 0.0
H933 H 0.3822 0.9859 0.97097 0.0
H934 H 0.37785 0.98612 0.68468 0.0
H935 H 0.38864 1.0087 0.62926 0.0
H936 H 0.3595 1.0086 0.65622 0.0
H937 H 0.36406 0.04798 0.71431 0.0
H938 H 0.3931 0.04842 0.6866 0.0
H939 H 0.38584 0.05268 0.78171 0.0
H940 H 0.42228 0.9883 0.93571 0.0
H941 H 0.45975 0.99429 0.8814 0.0
H942 H 0.42883 0.02202 0.68546 0.0
C943 C 0.34478 1.01334 0.81865 0.0
C944 C 0.33468 1.00545 0.88455 0.0
C945 C 0.34855 0.99531 0.93854 0.0
C946 C 0.37182 0.99327 0.92846 0.0
C947 C 0.38123 1.00116 0.86343 0.0
C948 C 0.36823 1.01072 0.80874 0.0
C949 C 0.38301 0.01778 0.74424 0.0
C950 C 0.37686 1.00451 0.67449 0.0
C951 C 0.3814 0.04323 0.73096 0.0
C952 C 0.4063 1.0112 0.77233 0.0
C953 C 0.4047 1.00171 0.84143 0.0
C954 C 0.42372 0.99538 0.88118 0.0
C955 C 0.44495 0.99887 0.84995 0.0
C956 C 0.44721 1.00831 0.77905 0.0
C957 C 0.42757 0.01437 0.73924 0.0
H958 H 0.48885 0.35087 0.94107 0.0
H959 H 0.53186 0.31688 0.78416 0.0
H960 H 0.53833 0.35298 0.72043 0.0
H961 H 0.46316 0.38974 0.81239 0.0
H962 H 0.46257 0.4127 0.87703 0.0
H963 H 0.46106 0.38417 0.90948 0.0
H964 H 0.49558 0.39119 0.9935 0.0
H965 H 0.49716 0.41974 0.96134 0.0
H966 H 0.52129 0.40159 0.95387 0.0
H967 H 0.5402 0.39335 0.67347 0.0
H968 H 0.53824 0.4341 0.64981 0.0
H969 H 0.49406 0.44209 0.83761 0.0
C970 C 0.49945 0.3509 0.89282 0.0
C971 C 0.50975 0.33076 0.86775 0.0
C972 C 0.52387 0.33191 0.80514 0.0
C973 C 0.52756 0.35239 0.76824 0.0
C974 C 0.51715 0.37184 0.79452 0.0
C975 C 0.50342 0.37126 0.85558 0.0
C976 C 0.4946 0.39461 0.87362 0.0
C977 C 0.46882 0.39534 0.86776 0.0
C978 C 0.50264 0.40222 0.95011 0.0
C979 C 0.5055 0.40847 0.81327 0.0
C980 C 0.51838 0.39499 0.76803 0.0
C981 C 0.53016 0.40399 0.70874 0.0
C982 C 0.52894 0.42728 0.69577 0.0
C983 C 0.51607 0.44159 0.74188 0.0
C984 C 0.50407 0.43181 0.80111 0.0
H985 H 0.19593 0.51035 0.78064 0.0
H986 H 0.18761 0.53355 1.00509 0.0
H987 H 0.14657 0.53446 0.98768 0.0
H988 H 0.15093 0.54532 0.70309 0.0
H989 H 0.14161 0.52436 0.63813 0.0
H990 H 0.17052 0.5249 0.66788 0.0
H991 H 0.16753 0.48354 0.70811 0.0
H992 H 0.13856 0.48294 0.67906 0.0
H993 H 0.14591 0.4754 0.77202 0.0
H994 H 0.10658 0.53077 0.9508 0.0
H995 H 0.06948 0.52694 0.89143 0.0
H996 H 0.10174 0.50963 0.68551 0.0
C997 C 0.18541 0.51572 0.82582 0.0
C998 C 0.19515 0.52203 0.8944 0.0
C999 C 0.18072 0.52894 0.95198 0.0
C1000 C 0.15731 0.52937 0.94275 0.0
C1001 C 0.14825 0.52311 0.87507 0.0
C1002 C 0.16174 0.51673 0.81696 0.0
C1003 C 0.14726 0.51154 0.7494 0.0
C1004 C 0.1529 0.52751 0.68583 0.0
C1005 C 0.14998 0.48689 0.72579 0.0
C1006 C 0.12368 0.51597 0.77905 0.0
C1007 C 0.12481 0.52222 0.85216 0.0
C1008 C 0.1055 0.52614 0.89337 0.0
C1009 C 0.08446 0.52382 0.85922 0.0
C1010 C 0.08264 0.5181 0.78391 0.0
C1011 C 0.1026 0.51423 0.74305 0.0
H1012 H 0.0302 0.83515 0.61937 0.0
H1013 H 0.97108 0.83672 0.47888 0.0
H1014 H 0.96518 0.87641 0.51046 0.0
H1015 H 1.00708 0.8731 0.76183 0.0
H1016 H 0.0333 0.88728 0.77913 0.0
H1017 H 0.03326 0.85833 0.74977 0.0
H1018 H 0.0587 0.86797 0.6396 0.0
H1019 H 0.05946 0.89683 0.66929 0.0
H1020 H 0.05045 0.89001 0.57722 0.0
H1021 H 0.96669 0.91636 0.54854 0.0
H1022 H 0.97471 0.95431 0.59485 0.0
H1023 H 0.03231 0.92869 0.71557 0.0
C1024 C 0.01589 0.8438 0.59587 0.0
C1025 C 1.00092 0.83243 0.54707 0.0
C1026 C 0.9825 0.84459 0.51755 0.0
C1027 C 0.97907 0.86732 0.53479 0.0
C1028 C 0.99405 0.87796 0.58246 0.0
C1029 C 1.012 0.86665 0.61339 0.0
C1030 C 0.02561 0.88251 0.66248 0.0
C1031 C 0.02476 0.87483 0.74306 0.0
C1032 C 0.05 0.88444 0.6355 0.0
C1033 C 1.0129 0.90456 0.65212 0.0
C1034 C 0.9947 0.90133 0.6059 0.0
C1035 C 0.98076 0.91904 0.58533 0.0
C1036 C 0.98553 0.94065 0.61195 0.0
C1037 C 1.00409 0.9447 0.65928 0.0
C1038 C 0.01782 0.92622 0.6803 0.0
H1039 H 0.687 0.97742 0.55182 0.0
H1040 H 0.70751 0.04741 0.57181 0.0
H1041 H 0.67098 0.05635 0.62602 0.0
H1042 H 0.63171 0.99032 0.4885 0.0
H1043 H 0.6187 0.96688 0.53432 0.0
H1044 H 0.6476 0.96509 0.50586 0.0
H1045 H 0.65948 0.95549 0.63921 0.0
H1046 H 0.63059 0.95729 0.66812 0.0
H1047 H 0.65174 0.97415 0.71304 0.0
H1048 H 0.63146 0.0582 0.67736 0.0
H1049 H 0.59142 0.05339 0.70942 0.0
H1050 H 0.59451 0.98372 0.64016 0.0
C1051 C 0.68412 0.99474 0.56672 0.0
C1052 C 0.70102 1.0115 0.55733 0.0
C1053 C 0.69576 0.0338 0.5798 0.0
C1054 C 0.67472 0.03922 0.61028 0.0
C1055 C 0.6586 0.02238 0.61723 0.0
C1056 C 0.66294 1.00064 0.59521 0.0
C1057 C 0.6421 0.98602 0.60336 0.0
C1058 C 0.63459 0.97652 0.52856 0.0
C1059 C 0.64623 0.96712 0.65926 0.0
C1060 C 0.62527 1.00302 0.63264 0.0
C1061 C 0.63533 0.02378 0.6418 0.0
C1062 C 0.62343 0.04204 0.66996 0.0
C1063 C 0.60067 0.03911 0.68833 0.0
C1064 C 0.58972 0.01823 0.67709 0.0
C1065 C 0.60232 0.99995 0.64891 0.0
H1066 H 0.51321 0.69826 0.65531 0.0
H1067 H 0.5107 0.69108 0.41829 0.0
H1068 H 0.50873 0.64989 0.43126 0.0
H1069 H 0.54793 0.65071 0.68706 0.0
H1070 H 0.53463 0.64004 0.7683 0.0
H1071 H 0.53384 0.66974 0.74888 0.0
H1072 H 0.49118 0.67113 0.75274 0.0
H1073 H 0.48993 0.64169 0.77562 0.0
H1074 H 0.47476 0.65211 0.69709 0.0
H1075 H 0.50852 0.61009 0.46702 0.0
H1076 H 0.50998 0.57277 0.52375 0.0
H1077 H 0.51173 0.6033 0.74055 0.0
C1078 C 0.51206 0.68792 0.60646 0.0
C1079 C 0.512 0.69784 0.53547 0.0
C1080 C 0.51068 0.68381 0.47285 0.0
C1081 C 0.50952 0.6604 0.47975 0.0
C1082 C 0.5096 0.65106 0.54992 0.0
C1083 C 0.51076 0.66423 0.61243 0.0
C1084 C 0.51116 0.64936 0.68089 0.0
C1085 C 0.53318 0.6527 0.72389 0.0
C1086 C 0.49054 0.65387 0.72948 0.0
C1087 C 0.51007 0.62592 0.6468 0.0
C1088 C 0.50923 0.62755 0.57106 0.0
C1089 C 0.50902 0.60861 0.52627 0.0
C1090 C 0.50991 0.58741 0.55922 0.0
C1091 C 0.51086 0.58495 0.63665 0.0
C1092 C 0.51066 0.60457 0.68129 0.0
H1093 H 0.834 0.50405 0.59818 0.0
H1094 H 0.83131 0.57129 0.50534 0.0
H1095 H 0.87079 0.57705 0.53888 0.0
H1096 H 0.87239 0.51625 0.74926 0.0
H1097 H 0.88792 0.49042 0.73978 0.0
H1098 H 0.85867 0.49148 0.71372 0.0
H1099 H 0.86871 0.47698 0.58404 0.0
H1100 H 0.89792 0.47567 0.61009 0.0
H1101 H 0.88951 0.49169 0.53065 0.0
H1102 H 0.91125 0.57534 0.57504 0.0
H1103 H 0.94988 0.56639 0.61364 0.0
H1104 H 0.9282 0.50009 0.68262 0.0
C1105 C 0.84156 0.52006 0.5849 0.0
C1106 C 0.82885 0.53733 0.54974 0.0
C1107 C 0.83992 0.55793 0.53411 0.0
C1108 C 0.86264 0.56134 0.55228 0.0
C1109 C 0.87453 0.54401 0.58595 0.0
C1110 C 0.86445 0.52375 0.60222 0.0
C1111 C 0.88154 0.50765 0.63608 0.0
C1112 C 0.87469 0.50108 0.71439 0.0
C1113 C 0.8846 0.48676 0.5873 0.0
C1114 C 0.90271 0.5221 0.63664 0.0
C1115 C 0.89816 0.54298 0.607 0.0
C1116 C 0.91494 0.5591 0.59875 0.0
C1117 C 0.93694 0.55379 0.6208 0.0
C1118 C 0.94226 0.53257 0.65163 0.0
C1119 C 0.92472 0.51658 0.66027 0.0
loop_
_geom_bond_atom_site_label_1
_geom_bond_atom_site_label_2
_geom_bond_distance
_geom_bond_site_symmetry_2
_ccdc_geom_bond_type
C0 C1 1.386 . S
C0 C2 1.397 . S
C0 H24 0.931 . S
C1 C0 1.386 . S
C1 C5 1.397 . S
C2 C0 1.397 . S
C2 C3 1.384 . S
C2 H25 0.930 . S
C3 C2 1.384 . S
C3 C4 1.377 . S
C3 C6 1.481 . S
C4 C3 1.377 . S
C4 C5 1.389 . S
C4 H26 0.929 . S
C5 C1 1.397 . S
C5 C4 1.389 . S
C5 H27 0.931 . S
C6 C3 1.481 . S
C6 C7 1.387 . S
C6 C11 1.390 . S
C7 C6 1.387 . S
C7 C8 1.401 . S
C7 H28 0.930 . S
C8 C7 1.401 . S
C8 C9 1.376 . S
C8 C17 1.511 . S
C9 C8 1.376 . S
C9 C10 1.392 . S
C9 H30 0.931 . S
C10 C9 1.392 . S
C10 C11 1.361 . S
C10 C12 1.500 . S
C11 C6 1.390 . S
C11 C10 1.361 . S
C11 H29 0.931 . S
C12 C10 1.500 . S
C12 C13 1.371 . S
C12 C14 1.365 . S
C13 C12 1.371 . S
C13 C23 1.386 . S
C13 H31 0.931 . S
C14 C12 1.365 . S
C14 C15 1.409 . S
C14 H32 0.929 . S
C15 C14 1.409 . S
C15 C16 1.380 . S
C15 H33 0.930 . S
C16 C15 1.380 . S
C16 C23 1.357 . S
C17 C8 1.511 . S
C17 C18 1.341 . S
C17 C19 1.371 . S
C18 C17 1.341 . S
C18 C22 1.394 . S
C18 H34 0.930 . S
C19 C17 1.371 . S
C19 C20 1.392 . S
C19 H35 0.931 . S
C20 C19 1.392 . S
C20 C21 1.331 . S
C20 H38 0.932 . S
C21 C20 1.331 . S
C21 C22 1.336 . S
C22 C18 1.394 . S
C22 C21 1.336 . S
C22 H37 0.929 . S
C23 C13 1.386 . S
C23 C16 1.357 . S
C23 H36 0.928 . S
H24 C0 0.931 . S
H25 C2 0.930 . S
H26 C4 0.929 . S
H27 C5 0.931 . S
H28 C7 0.930 . S
H29 C11 0.931 . S
H30 C9 0.931 . S
H31 C13 0.931 . S
H32 C14 0.929 . S
H33 C15 0.930 . S
H34 C18 0.930 . S
H35 C19 0.931 . S
H36 C23 0.928 . S
H37 C22 0.929 . S
H38 C20 0.932 . S
C39 C40 1.394 . S
C39 C41 1.397 . S
C39 H63 0.931 . S
C40 C39 1.394 . S
C40 C44 1.389 1_655 S
C41 C39 1.397 . S
C41 C42 1.389 . S
C41 H64 0.930 . S
C42 C41 1.389 . S
C42 C43 1.373 1_655 S
C42 C45 1.480 . S
C43 C42 1.373 1_455 S
C43 C44 1.389 . S
C43 H65 0.929 . S
C44 C40 1.389 1_455 S
C44 C43 1.389 . S
C44 H66 0.931 . S
C45 C42 1.480 . S
C45 C46 1.388 . S
C45 C50 1.390 . S
C46 C45 1.388 . S
C46 C47 1.402 . S
C46 H67 0.930 . S
C47 C46 1.402 . S
C47 C48 1.376 . S
C47 C56 1.513 . S
C48 C47 1.376 . S
C48 C49 1.392 . S
C48 H69 0.934 . S
C49 C48 1.392 . S
C49 C50 1.361 . S
C49 C51 1.499 1_655 S
C50 C45 1.390 . S
C50 C49 1.361 . S
C50 H68 0.931 . S
C51 C49 1.499 1_455 S
C51 C52 1.362 1_455 S
C51 C53 1.374 . S
C52 C51 1.362 1_655 S
C52 C62 1.386 . S
C52 H70 0.931 . S
C53 C51 1.374 . S
C53 C54 1.409 . S
C53 H71 0.929 . S
C54 C53 1.409 . S
C54 C55 1.379 . S
C54 H72 0.930 . S
C55 C54 1.379 . S
C55 C62 1.359 1_455 S
C56 C47 1.513 . S
C56 C57 1.341 . S
C56 C58 1.371 1_655 S
C57 C56 1.341 . S
C57 C61 1.394 . S
C57 H73 0.930 . S
C58 C56 1.371 1_455 S
C58 C59 1.392 . S
C58 H74 0.931 . S
C59 C58 1.392 . S
C59 C60 1.322 1_455 S
C59 H77 0.932 . S
C60 C59 1.322 1_655 S
C60 C61 1.345 . S
C61 C57 1.394 . S
C61 C60 1.345 . S
C61 H76 0.929 . S
C62 C52 1.386 . S
C62 C55 1.359 1_655 S
C62 H75 0.928 . S
H63 C39 0.931 . S
H64 C41 0.930 . S
H65 C43 0.929 . S
H66 C44 0.931 . S
H67 C46 0.930 . S
H68 C50 0.931 . S
H69 C48 0.934 . S
H70 C52 0.931 . S
H71 C53 0.929 . S
H72 C54 0.930 . S
H73 C57 0.930 . S
H74 C58 0.931 . S
H75 C62 0.928 . S
H76 C61 0.929 . S
H77 C59 0.932 . S
C78 C79 1.394 . S
C78 C80 1.397 . S
C78 H102 0.931 . S
C79 C78 1.394 . S
C79 C83 1.389 1_565 S
C80 C78 1.397 . S
C80 C81 1.389 . S
C80 H103 0.930 . S
C81 C80 1.389 . S
C81 C82 1.373 1_565 S
C81 C84 1.480 . S
C82 C81 1.373 1_545 S
C82 C83 1.389 . S
C82 H104 0.929 . S
C83 C79 1.389 1_545 S
C83 C82 1.389 . S
C83 H105 0.931 . S
C84 C81 1.480 . S
C84 C85 1.388 . S
C84 C89 1.390 . S
C85 C84 1.388 . S
C85 C86 1.402 . S
C85 H106 0.930 . S
C86 C85 1.402 . S
C86 C87 1.376 . S
C86 C95 1.513 . S
C87 C86 1.376 . S
C87 C88 1.392 . S
C87 H108 0.934 . S
C88 C87 1.392 . S
C88 C89 1.361 . S
C88 C90 1.499 1_565 S
C89 C84 1.390 . S
C89 C88 1.361 . S
C89 H107 0.931 . S
C90 C88 1.499 1_545 S
C90 C91 1.362 1_545 S
C90 C92 1.374 . S
C91 C90 1.362 1_565 S
C91 C101 1.386 . S
C91 H109 0.931 . S
C92 C90 1.374 . S
C92 C93 1.409 . S
C92 H110 0.929 . S
C93 C92 1.409 . S
C93 C94 1.379 . S
C93 H111 0.930 . S
C94 C93 1.379 . S
C94 C101 1.359 1_545 S
C95 C86 1.513 . S
C95 C96 1.341 . S
C95 C97 1.371 1_565 S
C96 C95 1.341 . S
C96 C100 1.394 . S
C96 H112 0.930 . S
C97 C95 1.371 1_545 S
C97 C98 1.392 . S
C97 H113 0.931 . S
C98 C97 1.392 . S
C98 C99 1.322 1_545 S
C98 H116 0.932 . S
C99 C98 1.322 1_565 S
C99 C100 1.345 . S
C100 C96 1.394 . S
C100 C99 1.345 . S
C100 H115 0.929 . S
C101 C91 1.386 . S
C101 C94 1.359 1_565 S
C101 H114 0.928 . S
H102 C78 0.931 . S
H103 C80 0.930 . S
H104 C82 0.929 . S
H105 C83 0.931 . S
H106 C85 0.930 . S
H107 C89 0.931 . S
H108 C87 0.934 . S
H109 C91 0.931 . S
H110 C92 0.929 . S
H111 C93 0.930 . S
H112 C96 0.930 . S
H113 C97 0.931 . S
H114 C101 0.928 . S
H115 C100 0.929 . S
H116 C98 0.932 . S
C117 C118 1.386 . S
C117 C119 1.397 . S
C117 H141 0.931 . S
C118 C117 1.386 . S
C118 C122 1.397 . S
C119 C117 1.397 . S
C119 C120 1.384 . S
C119 H142 0.930 . S
C120 C119 1.384 . S
C120 C121 1.377 . S
C120 C123 1.481 . S
C121 C120 1.377 . S
C121 C122 1.389 . S
C121 H143 0.929 . S
C122 C118 1.397 . S
C122 C121 1.389 . S
C122 H144 0.931 . S
C123 C120 1.481 . S
C123 C124 1.387 . S
C123 C128 1.390 . S
C124 C123 1.387 . S
C124 C125 1.401 . S
C124 H145 0.930 . S
C125 C124 1.401 . S
C125 C126 1.376 . S
C125 C134 1.511 . S
C126 C125 1.376 . S
C126 C127 1.392 . S
C126 H147 0.931 . S
C127 C126 1.392 . S
C127 C128 1.361 . S
C127 C129 1.500 . S
C128 C123 1.390 . S
C128 C127 1.361 . S
C128 H146 0.931 . S
C129 C127 1.500 . S
C129 C130 1.371 . S
C129 C131 1.365 . S
C130 C129 1.371 . S
C130 C140 1.386 . S
C130 H148 0.931 . S
C131 C129 1.365 . S
C131 C132 1.409 . S
C131 H149 0.929 . S
C132 C131 1.409 . S
C132 C133 1.380 . S
C132 H150 0.930 . S
C133 C132 1.380 . S
C133 C140 1.357 . S
C134 C125 1.511 . S
C134 C135 1.341 . S
C134 C136 1.371 . S
C135 C134 1.341 . S
C135 C139 1.394 . S
C135 H151 0.930 . S
C136 C134 1.371 . S
C136 C137 1.392 . S
C136 H152 0.931 . S
C137 C136 1.392 . S
C137 C138 1.331 . S
C137 H155 0.932 . S
C138 C137 1.331 . S
C138 C139 1.336 . S
C139 C135 1.394 . S
C139 C138 1.336 . S
C139 H154 0.929 . S
C140 C130 1.386 . S
C140 C133 1.357 . S
C140 H153 0.928 . S
H141 C117 0.931 . S
H142 C119 0.930 . S
H143 C121 0.929 . S
H144 C122 0.931 . S
H145 C124 0.930 . S
H146 C128 0.931 . S
H147 C126 0.931 . S
H148 C130 0.931 . S
H149 C131 0.929 . S
H150 C132 0.930 . S
H151 C135 0.930 . S
H152 C136 0.931 . S
H153 C140 0.928 . S
H154 C139 0.929 . S
H155 C137 0.932 . S
C156 C157 1.386 . S
C156 C158 1.397 . S
C156 H180 0.931 . S
C157 C156 1.386 . S
C157 C161 1.397 . S
C158 C156 1.397 . S
C158 C159 1.384 . S
C158 H181 0.930 . S
C159 C158 1.384 . S
C159 C160 1.377 . S
C159 C162 1.481 . S
C160 C159 1.377 . S
C160 C161 1.389 . S
C160 H182 0.929 . S
C161 C157 1.397 . S
C161 C160 1.389 . S
C161 H183 0.931 . S
C162 C159 1.481 . S
C162 C163 1.387 . S
C162 C167 1.390 . S
C163 C162 1.387 . S
C163 C164 1.401 . S
C163 H184 0.930 . S
C164 C163 1.401 . S
C164 C165 1.376 1_554 S
C164 C173 1.511 . S
C165 C164 1.376 1_556 S
C165 C166 1.392 . S
C165 H186 0.931 . S
C166 C165 1.392 . S
C166 C167 1.361 1_556 S
C166 C168 1.500 . S
C167 C162 1.390 . S
C167 C166 1.361 1_554 S
C167 H185 0.931 . S
C168 C166 1.500 . S
C168 C169 1.371 . S
C168 C170 1.365 . S
C169 C168 1.371 . S
C169 C179 1.386 . S
C169 H187 0.931 . S
C170 C168 1.365 . S
C170 C171 1.409 . S
C170 H188 0.929 . S
C171 C170 1.409 . S
C171 C172 1.380 . S
C171 H189 0.930 . S
C172 C171 1.380 . S
C172 C179 1.357 . S
C173 C164 1.511 . S
C173 C174 1.341 . S
C173 C175 1.371 . S
C174 C173 1.341 . S
C174 C178 1.394 . S
C174 H190 0.930 . S
C175 C173 1.371 . S
C175 C176 1.392 . S
C175 H191 0.931 1_554 S
C176 C175 1.392 . S
C176 C177 1.331 . S
C176 H194 0.932 . S
C177 C176 1.331 . S
C177 C178 1.336 . S
C178 C174 1.394 . S
C178 C177 1.336 . S
C178 H193 0.929 . S
C179 C169 1.386 . S
C179 C172 1.357 . S
C179 H192 0.928 . S
H180 C156 0.931 . S
H181 C158 0.930 . S
H182 C160 0.929 . S
H183 C161 0.931 . S
H184 C163 0.930 . S
H185 C167 0.931 . S
H186 C165 0.931 . S
H187 C169 0.931 . S
H188 C170 0.929 . S
H189 C171 0.930 . S
H190 C174 0.930 . S
H191 C175 0.931 1_556 S
H192 C179 0.928 . S
H193 C178 0.929 . S
H194 C176 0.932 . S
C195 C196 1.387 . S
C195 C197 1.397 . S
C195 H219 0.931 . S
C196 C195 1.387 . S
C196 C200 1.396 1_655 S
C197 C195 1.397 . S
C197 C198 1.381 . S
C197 H220 0.930 . S
C198 C197 1.381 . S
C198 C199 1.380 1_655 S
C198 C201 1.480 . S
C199 C198 1.380 1_455 S
C199 C200 1.389 . S
C199 H221 0.929 . S
C200 C196 1.396 1_455 S
C200 C199 1.389 . S
C200 H222 0.931 . S
C201 C198 1.480 . S
C201 C202 1.388 . S
C201 C206 1.390 . S
C202 C201 1.388 . S
C202 C203 1.402 . S
C202 H223 0.930 . S
C203 C202 1.402 . S
C203 C204 1.376 1_554 S
C203 C212 1.512 . S
C204 C203 1.376 1_556 S
C204 C205 1.392 1_655 S
C204 H225 0.933 . S
C205 C204 1.392 1_455 S
C205 C206 1.361 1_456 S
C205 C207 1.499 . S
C206 C201 1.390 . S
C206 C205 1.361 1_654 S
C206 H224 0.931 . S
C207 C205 1.499 . S
C207 C208 1.357 1_455 S
C207 C209 1.380 . S
C208 C207 1.357 1_655 S
C208 C218 1.386 . S
C208 H226 0.931 . S
C209 C207 1.380 . S
C209 C210 1.409 . S
C209 H227 0.929 . S
C210 C209 1.409 . S
C210 C211 1.384 . S
C210 H228 0.930 . S
C211 C210 1.384 . S
C211 C218 1.353 1_455 S
C212 C203 1.512 . S
C212 C213 1.341 . S
C212 C214 1.371 1_655 S
C213 C212 1.341 . S
C213 C217 1.394 . S
C213 H229 0.930 . S
C214 C212 1.371 1_455 S
C214 C215 1.392 . S
C214 H230 0.931 1_554 S
C215 C214 1.392 . S
C215 C216 1.326 1_455 S
C215 H233 0.932 . S
C216 C215 1.326 1_655 S
C216 C217 1.341 . S
C217 C213 1.394 . S
C217 C216 1.341 . S
C217 H232 0.929 . S
C218 C208 1.386 . S
C218 C211 1.353 1_655 S
C218 H231 0.928 . S
H219 C195 0.931 . S
H220 C197 0.930 . S
H221 C199 0.929 . S
H222 C200 0.931 . S
H223 C202 0.930 . S
H224 C206 0.931 . S
H225 C204 0.933 . S
H226 C208 0.931 . S
H227 C209 0.929 . S
H228 C210 0.930 . S
H229 C213 0.930 . S
H230 C214 0.931 1_556 S
H231 C218 0.928 . S
H232 C217 0.929 . S
H233 C215 0.932 . S
C234 C235 1.387 . S
C234 C236 1.397 . S
C234 H258 0.931 . S
C235 C234 1.387 . S
C235 C239 1.396 1_565 S
C236 C234 1.397 . S
C236 C237 1.381 . S
C236 H259 0.930 . S
C237 C236 1.381 . S
C237 C238 1.380 1_565 S
C237 C240 1.480 . S
C238 C237 1.380 1_545 S
C238 C239 1.389 . S
C238 H260 0.929 . S
C239 C235 1.396 1_545 S
C239 C238 1.389 . S
C239 H261 0.931 . S
C240 C237 1.480 . S
C240 C241 1.388 . S
C240 C245 1.390 . S
C241 C240 1.388 . S
C241 C242 1.402 . S
C241 H262 0.930 . S
C242 C241 1.402 . S
C242 C243 1.376 1_554 S
C242 C251 1.512 . S
C243 C242 1.376 1_556 S
C243 C244 1.392 1_565 S
C243 H264 0.933 . S
C244 C243 1.392 1_545 S
C244 C245 1.361 1_546 S
C244 C246 1.499 . S
C245 C240 1.390 . S
C245 C244 1.361 1_564 S
C245 H263 0.931 . S
C246 C244 1.499 . S
C246 C247 1.357 1_545 S
C246 C248 1.380 . S
C247 C246 1.357 1_565 S
C247 C257 1.386 . S
C247 H265 0.931 . S
C248 C246 1.380 . S
C248 C249 1.409 . S
C248 H266 0.929 . S
C249 C248 1.409 . S
C249 C250 1.384 . S
C249 H267 0.930 . S
C250 C249 1.384 . S
C250 C257 1.353 1_545 S
C251 C242 1.512 . S
C251 C252 1.341 . S
C251 C253 1.371 1_565 S
C252 C251 1.341 . S
C252 C256 1.394 . S
C252 H268 0.930 . S
C253 C251 1.371 1_545 S
C253 C254 1.392 . S
C253 H269 0.931 1_554 S
C254 C253 1.392 . S
C254 C255 1.326 1_545 S
C254 H272 0.932 . S
C255 C254 1.326 1_565 S
C255 C256 1.341 . S
C256 C252 1.394 . S
C256 C255 1.341 . S
C256 H271 0.929 . S
C257 C247 1.386 . S
C257 C250 1.353 1_565 S
C257 H270 0.928 . S
H258 C234 0.931 . S
H259 C236 0.930 . S
H260 C238 0.929 . S
H261 C239 0.931 . S
H262 C241 0.930 . S
H263 C245 0.931 . S
H264 C243 0.933 . S
H265 C247 0.931 . S
H266 C248 0.929 . S
H267 C249 0.930 . S
H268 C252 0.930 . S
H269 C253 0.931 1_556 S
H270 C257 0.928 . S
H271 C256 0.929 . S
H272 C254 0.932 . S
C273 C274 1.386 . S
C273 C275 1.397 . S
C273 H297 0.931 . S
C274 C273 1.386 . S
C274 C278 1.397 . S
C275 C273 1.397 . S
C275 C276 1.384 . S
C275 H298 0.930 . S
C276 C275 1.384 . S
C276 C277 1.377 . S
C276 C279 1.481 . S
C277 C276 1.377 . S
C277 C278 1.389 . S
C277 H299 0.929 . S
C278 C274 1.397 . S
C278 C277 1.389 . S
C278 H300 0.931 . S
C279 C276 1.481 . S
C279 C280 1.387 . S
C279 C284 1.390 1_556 S
C280 C279 1.387 . S
C280 C281 1.401 1_556 S
C280 H301 0.930 . S
C281 C280 1.401 1_554 S
C281 C282 1.376 . S
C281 C290 1.511 . S
C282 C281 1.376 . S
C282 C283 1.392 . S
C282 H303 0.931 . S
C283 C282 1.392 . S
C283 C284 1.361 . S
C283 C285 1.500 . S
C284 C279 1.390 1_554 S
C284 C283 1.361 . S
C284 H302 0.931 . S
C285 C283 1.500 . S
C285 C286 1.371 . S
C285 C287 1.365 . S
C286 C285 1.371 . S
C286 C296 1.386 . S
C286 H304 0.931 . S
C287 C285 1.365 . S
C287 C288 1.409 . S
C287 H305 0.929 . S
C288 C287 1.409 . S
C288 C289 1.380 . S
C288 H306 0.930 . S
C289 C288 1.380 . S
C289 C296 1.357 . S
C290 C281 1.511 . S
C290 C291 1.341 . S
C290 C292 1.371 . S
C291 C290 1.341 . S
C291 C295 1.394 . S
C291 H307 0.930 1_554 S
C292 C290 1.371 . S
C292 C293 1.392 . S
C292 H308 0.931 . S
C293 C292 1.392 . S
C293 C294 1.331 . S
C293 H311 0.932 . S
C294 C293 1.331 . S
C294 C295 1.336 . S
C295 C291 1.394 . S
C295 C294 1.336 . S
C295 H310 0.929 . S
C296 C286 1.386 . S
C296 C289 1.357 . S
C296 H309 0.928 . S
H297 C273 0.931 . S
H298 C275 0.930 . S
H299 C277 0.929 . S
H300 C278 0.931 . S
H301 C280 0.930 . S
H302 C284 0.931 . S
H303 C282 0.931 . S
H304 C286 0.931 . S
H305 C287 0.929 . S
H306 C288 0.930 . S
H307 C291 0.930 1_556 S
H308 C292 0.931 . S
H309 C296 0.928 . S
H310 C295 0.929 . S
H311 C293 0.932 . S
Sm312 C314 2.846 . S
Sm312 O332 2.543 . S
Sm312 O333 2.450 . S
Sm312 O334 2.681 1_565 S
Sm312 O335 2.464 . S
Sm312 O336 2.396 . S
Sm312 O340 2.386 1_455 S
Sm312 O343 2.408 1_565 S
Sm313 C323 2.846 . S
Sm313 O334 2.386 1_655 S
Sm313 O337 2.408 1_545 S
Sm313 O338 2.543 . S
Sm313 O339 2.450 . S
Sm313 O340 2.681 1_545 S
Sm313 O341 2.464 . S
Sm313 O342 2.396 . S
C314 Sm312 2.846 . S
C314 C315 1.506 . S
C314 O332 1.261 . S
C314 O333 1.242 . S
C315 C314 1.506 . S
C315 C316 1.358 . S
C315 C320 1.382 . S
C316 C315 1.358 . S
C316 C317 1.385 . S
C316 H344 0.930 1_455 S
C317 C316 1.385 . S
C317 C318 1.395 . S
C317 H345 0.929 1_455 S
C318 C317 1.395 . S
C318 C319 1.335 . S
C319 C318 1.335 . S
C319 C320 1.398 . S
C319 H346 0.930 . S
C320 C315 1.382 . S
C320 C319 1.398 . S
C320 H347 0.929 . S
C321 O334 1.271 1_565 S
C321 O335 1.251 . S
C322 O336 1.252 1_655 S
C322 O337 1.272 . S
C323 Sm313 2.846 . S
C323 C324 1.506 . S
C323 O338 1.261 . S
C323 O339 1.242 . S
C324 C323 1.506 . S
C324 C325 1.358 . S
C324 C329 1.382 . S
C325 C324 1.358 . S
C325 C326 1.385 . S
C325 H348 0.930 1_655 S
C326 C325 1.385 . S
C326 C327 1.395 . S
C326 H349 0.929 1_655 S
C327 C326 1.395 . S
C327 C328 1.335 . S
C328 C327 1.335 . S
C328 C329 1.398 . S
C328 H350 0.930 . S
C329 C324 1.382 . S
C329 C328 1.398 . S
C329 H351 0.929 . S
C330 O340 1.271 1_545 S
C330 O341 1.251 . S
C331 O342 1.252 1_455 S
C331 O343 1.272 . S
O332 Sm312 2.543 . S
O332 C314 1.261 . S
O333 Sm312 2.450 . S
O333 C314 1.242 . S
O334 Sm312 2.681 1_545 S
O334 Sm313 2.386 1_455 S
O334 C321 1.271 1_545 S
O335 Sm312 2.464 . S
O335 C321 1.251 . S
O336 Sm312 2.396 . S
O336 C322 1.252 1_455 S
O337 Sm313 2.408 1_565 S
O337 C322 1.272 . S
O338 Sm313 2.543 . S
O338 C323 1.261 . S
O339 Sm313 2.450 . S
O339 C323 1.242 . S
O340 Sm312 2.386 1_655 S
O340 Sm313 2.681 1_565 S
O340 C330 1.271 1_565 S
O341 Sm313 2.464 . S
O341 C330 1.251 . S
O342 Sm313 2.396 . S
O342 C331 1.252 1_655 S
O343 Sm312 2.408 1_545 S
O343 C331 1.272 . S
H344 C316 0.930 1_655 S
H345 C317 0.929 1_655 S
H346 C319 0.930 . S
H347 C320 0.929 . S
H348 C325 0.930 1_455 S
H349 C326 0.929 1_455 S
H350 C328 0.930 . S
H351 C329 0.929 . S
Sm352 C354 2.846 . S
Sm352 O372 2.543 . S
Sm352 O373 2.450 . S
Sm352 O374 2.681 . S
Sm352 O375 2.464 . S
Sm352 O376 2.396 . S
Sm352 O380 2.386 1_545 S
Sm352 O383 2.408 . S
Sm353 C363 2.846 . S
Sm353 O374 2.386 1_565 S
Sm353 O377 2.408 . S
Sm353 O378 2.543 . S
Sm353 O379 2.450 . S
Sm353 O380 2.681 . S
Sm353 O381 2.464 . S
Sm353 O382 2.396 . S
C354 Sm352 2.846 . S
C354 C355 1.506 . S
C354 O372 1.261 . S
C354 O373 1.242 . S
C355 C354 1.506 . S
C355 C356 1.358 . S
C355 C360 1.382 . S
C356 C355 1.358 . S
C356 C357 1.385 . S
C356 H384 0.930 1_545 S
C357 C356 1.385 . S
C357 C358 1.395 . S
C357 H385 0.929 1_545 S
C358 C357 1.395 . S
C358 C359 1.335 . S
C359 C358 1.335 . S
C359 C360 1.398 . S
C359 H386 0.930 . S
C360 C355 1.382 . S
C360 C359 1.398 . S
C360 H387 0.929 . S
C361 O374 1.271 . S
C361 O375 1.251 . S
C362 O376 1.252 1_565 S
C362 O377 1.272 . S
C363 Sm353 2.846 . S
C363 C364 1.506 . S
C363 O378 1.261 . S
C363 O379 1.242 . S
C364 C363 1.506 . S
C364 C365 1.358 . S
C364 C369 1.382 . S
C365 C364 1.358 . S
C365 C366 1.385 . S
C365 H388 0.930 1_565 S
C366 C365 1.385 . S
C366 C367 1.395 . S
C366 H389 0.929 1_565 S
C367 C366 1.395 . S
C367 C368 1.335 . S
C368 C367 1.335 . S
C368 C369 1.398 . S
C368 H390 0.930 . S
C369 C364 1.382 . S
C369 C368 1.398 . S
C369 H391 0.929 . S
C370 O380 1.271 . S
C370 O381 1.251 . S
C371 O382 1.252 1_545 S
C371 O383 1.272 . S
O372 Sm352 2.543 . S
O372 C354 1.261 . S
O373 Sm352 2.450 . S
O373 C354 1.242 . S
O374 Sm352 2.681 . S
O374 Sm353 2.386 1_545 S
O374 C361 1.271 . S
O375 Sm352 2.464 . S
O375 C361 1.251 . S
O376 Sm352 2.396 . S
O376 C362 1.252 1_545 S
O377 Sm353 2.408 . S
O377 C362 1.272 . S
O378 Sm353 2.543 . S
O378 C363 1.261 . S
O379 Sm353 2.450 . S
O379 C363 1.242 . S
O380 Sm352 2.386 1_565 S
O380 Sm353 2.681 . S
O380 C370 1.271 . S
O381 Sm353 2.464 . S
O381 C370 1.251 . S
O382 Sm353 2.396 . S
O382 C371 1.252 1_565 S
O383 Sm352 2.408 . S
O383 C371 1.272 . S
H384 C356 0.930 1_565 S
H385 C357 0.929 1_565 S
H386 C359 0.930 . S
H387 C360 0.929 . S
H388 C365 0.930 1_545 S
H389 C366 0.929 1_545 S
H390 C368 0.930 . S
H391 C369 0.929 . S
Sm392 C394 2.846 . S
Sm392 O412 2.543 . S
Sm392 O413 2.450 . S
Sm392 O414 2.681 . S
Sm392 O415 2.464 . S
Sm392 O416 2.396 . S
Sm392 O420 2.386 . S
Sm392 O423 2.408 . S
Sm393 C403 2.846 . S
Sm393 O414 2.386 . S
Sm393 O417 2.408 . S
Sm393 O418 2.543 . S
Sm393 O419 2.450 . S
Sm393 O420 2.681 . S
Sm393 O421 2.464 . S
Sm393 O422 2.396 . S
C394 Sm392 2.846 . S
C394 C395 1.506 . S
C394 O412 1.261 . S
C394 O413 1.242 . S
C395 C394 1.506 . S
C395 C396 1.358 . S
C395 C400 1.382 . S
C396 C395 1.358 . S
C396 C397 1.385 . S
C396 H424 0.930 . S
C397 C396 1.385 . S
C397 C398 1.395 . S
C397 H425 0.929 . S
C398 C397 1.395 . S
C398 C399 1.335 . S
C399 C398 1.335 . S
C399 C400 1.398 . S
C399 H426 0.930 . S
C400 C395 1.382 . S
C400 C399 1.398 . S
C400 H427 0.929 . S
C401 O414 1.271 . S
C401 O415 1.251 . S
C402 O416 1.252 . S
C402 O417 1.272 . S
C403 Sm393 2.846 . S
C403 C404 1.506 . S
C403 O418 1.261 . S
C403 O419 1.242 . S
C404 C403 1.506 . S
C404 C405 1.358 . S
C404 C409 1.382 . S
C405 C404 1.358 . S
C405 C406 1.385 . S
C405 H428 0.930 . S
C406 C405 1.385 . S
C406 C407 1.395 . S
C406 H429 0.929 . S
C407 C406 1.395 . S
C407 C408 1.335 . S
C408 C407 1.335 . S
C408 C409 1.398 . S
C408 H430 0.930 . S
C409 C404 1.382 . S
C409 C408 1.398 . S
C409 H431 0.929 . S
C410 O420 1.271 . S
C410 O421 1.251 . S
C411 O422 1.252 . S
C411 O423 1.272 . S
O412 Sm392 2.543 . S
O412 C394 1.261 . S
O413 Sm392 2.450 . S
O413 C394 1.242 . S
O414 Sm392 2.681 . S
O414 Sm393 2.386 . S
O414 C401 1.271 . S
O415 Sm392 2.464 . S
O415 C401 1.251 . S
O416 Sm392 2.396 . S
O416 C402 1.252 . S
O417 Sm393 2.408 . S
O417 C402 1.272 . S
O418 Sm393 2.543 . S
O418 C403 1.261 . S
O419 Sm393 2.450 . S
O419 C403 1.242 . S
O420 Sm392 2.386 . S
O420 Sm393 2.681 . S
O420 C410 1.271 . S
O421 Sm393 2.464 . S
O421 C410 1.251 . S
O422 Sm393 2.396 . S
O422 C411 1.252 . S
O423 Sm392 2.408 . S
O423 C411 1.272 . S
H424 C396 0.930 . S
H425 C397 0.929 . S
H426 C399 0.930 . S
H427 C400 0.929 . S
H428 C405 0.930 . S
H429 C406 0.929 . S
H430 C408 0.930 . S
H431 C409 0.929 . S
Sm432 C434 2.846 . S
Sm432 O452 2.543 . S
Sm432 O453 2.450 . S
Sm432 O454 2.681 1_655 S
Sm432 O455 2.464 . S
Sm432 O456 2.396 . S
Sm432 O460 2.386 . S
Sm432 O463 2.408 1_655 S
Sm433 C443 2.846 . S
Sm433 O454 2.386 . S
Sm433 O457 2.408 1_455 S
Sm433 O458 2.543 . S
Sm433 O459 2.450 . S
Sm433 O460 2.681 1_455 S
Sm433 O461 2.464 . S
Sm433 O462 2.396 . S
C434 Sm432 2.846 . S
C434 C435 1.506 . S
C434 O452 1.261 . S
C434 O453 1.242 . S
C435 C434 1.506 . S
C435 C436 1.358 . S
C435 C440 1.382 . S
C436 C435 1.358 . S
C436 C437 1.385 . S
C436 H464 0.930 . S
C437 C436 1.385 . S
C437 C438 1.395 . S
C437 H465 0.929 . S
C438 C437 1.395 . S
C438 C439 1.335 . S
C439 C438 1.335 . S
C439 C440 1.398 . S
C439 H466 0.930 . S
C440 C435 1.382 . S
C440 C439 1.398 . S
C440 H467 0.929 . S
C441 O454 1.261 1_655 S
C441 O455 1.270 . S
C442 O456 1.252 . S
C442 O457 1.272 . S
C443 Sm433 2.846 . S
C443 C444 1.506 . S
C443 O458 1.261 . S
C443 O459 1.242 . S
C444 C443 1.506 . S
C444 C445 1.358 . S
C444 C449 1.382 . S
C445 C444 1.358 . S
C445 C446 1.385 . S
C445 H468 0.930 . S
C446 C445 1.385 . S
C446 C447 1.395 . S
C446 H469 0.929 . S
C447 C446 1.395 . S
C447 C448 1.335 . S
C448 C447 1.335 . S
C448 C449 1.398 . S
C448 H470 0.930 . S
C449 C444 1.382 . S
C449 C448 1.398 . S
C449 H471 0.929 . S
C450 O460 1.257 1_455 S
C450 O461 1.276 . S
C451 O462 1.252 . S
C451 O463 1.272 . S
O452 Sm432 2.543 . S
O452 C434 1.261 . S
O453 Sm432 2.450 . S
O453 C434 1.242 . S
O454 Sm432 2.681 1_455 S
O454 Sm433 2.386 . S
O454 C441 1.261 1_455 S
O455 Sm432 2.464 . S
O455 C441 1.270 . S
O456 Sm432 2.396 . S
O456 C442 1.252 . S
O457 Sm433 2.408 1_655 S
O457 C442 1.272 . S
O458 Sm433 2.543 . S
O458 C443 1.261 . S
O459 Sm433 2.450 . S
O459 C443 1.242 . S
O460 Sm432 2.386 . S
O460 Sm433 2.681 1_655 S
O460 C450 1.257 1_655 S
O461 Sm433 2.464 . S
O461 C450 1.276 . S
O462 Sm433 2.396 . S
O462 C451 1.252 . S
O463 Sm432 2.408 1_455 S
O463 C451 1.272 . S
H464 C436 0.930 . S
H465 C437 0.929 . S
H466 C439 0.930 . S
H467 C440 0.929 . S
H468 C445 0.930 . S
H469 C446 0.929 . S
H470 C448 0.930 . S
H471 C449 0.929 . S
H472 C484 0.930 . S
H473 C486 0.930 . S
H474 C487 0.930 . S
H475 C491 0.959 . S
H476 C491 0.959 . S
H477 C491 0.961 . S
H478 C492 0.960 . S
H479 C492 0.961 . S
H480 C492 0.959 . S
H481 C495 0.929 . S
H482 C496 0.931 . S
H483 C498 0.930 . S
C484 H472 0.930 . S
C484 C485 1.399 1_565 S
C484 C489 1.399 . S
C485 C484 1.399 1_545 S
C485 C486 1.376 . S
C486 H473 0.930 . S
C486 C485 1.376 . S
C486 C487 1.388 . S
C487 H474 0.930 . S
C487 C486 1.388 . S
C487 C488 1.390 . S
C488 C487 1.390 . S
C488 C489 1.394 1_545 S
C488 C494 1.465 . S
C489 C484 1.399 . S
C489 C488 1.394 1_565 S
C489 C490 1.516 . S
C490 C489 1.516 . S
C490 C491 1.502 . S
C490 C492 1.561 . S
C490 C493 1.526 . S
C491 H475 0.959 . S
C491 H476 0.959 . S
C491 H477 0.961 . S
C491 C490 1.502 . S
C492 H478 0.960 . S
C492 H479 0.961 . S
C492 H480 0.959 . S
C492 C490 1.561 . S
C493 C490 1.526 . S
C493 C494 1.396 1_565 S
C493 C498 1.390 . S
C494 C488 1.465 . S
C494 C493 1.396 1_545 S
C494 C495 1.399 . S
C495 H481 0.929 . S
C495 C494 1.399 . S
C495 C496 1.385 . S
C496 H482 0.931 . S
C496 C495 1.385 . S
C496 C497 1.389 . S
C497 C496 1.389 . S
C497 C498 1.387 1_545 S
C498 H483 0.930 . S
C498 C493 1.390 . S
C498 C497 1.387 1_565 S
H499 C511 0.930 . S
H500 C513 0.930 . S
H501 C514 0.930 . S
H502 C518 0.959 . S
H503 C518 0.959 . S
H504 C518 0.961 . S
H505 C519 0.960 . S
H506 C519 0.961 . S
H507 C519 0.959 . S
H508 C522 0.929 . S
H509 C523 0.931 . S
H510 C525 0.930 . S
C511 H499 0.930 . S
C511 C512 1.399 . S
C511 C516 1.399 . S
C512 C511 1.399 . S
C512 C513 1.376 . S
C513 H500 0.930 . S
C513 C512 1.376 . S
C513 C514 1.388 . S
C514 H501 0.930 . S
C514 C513 1.388 . S
C514 C515 1.390 . S
C515 C514 1.390 . S
C515 C516 1.394 . S
C515 C521 1.465 . S
C516 C511 1.399 . S
C516 C515 1.394 . S
C516 C517 1.516 . S
C517 C516 1.516 . S
C517 C518 1.502 . S
C517 C519 1.561 . S
C517 C520 1.526 . S
C518 H502 0.959 . S
C518 H503 0.959 . S
C518 H504 0.961 . S
C518 C517 1.502 . S
C519 H505 0.960 . S
C519 H506 0.961 . S
C519 H507 0.959 . S
C519 C517 1.561 . S
C520 C517 1.526 . S
C520 C521 1.396 . S
C520 C525 1.390 . S
C521 C515 1.465 . S
C521 C520 1.396 . S
C521 C522 1.399 . S
C522 H508 0.929 . S
C522 C521 1.399 . S
C522 C523 1.385 . S
C523 H509 0.931 . S
C523 C522 1.385 . S
C523 C524 1.389 . S
C524 C523 1.389 . S
C524 C525 1.387 . S
C525 H510 0.930 . S
C525 C520 1.390 . S
C525 C524 1.387 . S
H526 C538 0.930 . S
H527 C540 0.930 . S
H528 C541 0.930 . S
H529 C545 0.959 . S
H530 C545 0.959 . S
H531 C545 0.961 . S
H532 C546 0.960 . S
H533 C546 0.961 . S
H534 C546 0.959 . S
H535 C549 0.929 . S
H536 C550 0.931 . S
H537 C552 0.930 . S
C538 H526 0.930 . S
C538 C539 1.399 . S
C538 C543 1.399 . S
C539 C538 1.399 . S
C539 C540 1.376 . S
C540 H527 0.930 . S
C540 C539 1.376 . S
C540 C541 1.388 . S
C541 H528 0.930 . S
C541 C540 1.388 . S
C541 C542 1.390 . S
C542 C541 1.390 . S
C542 C543 1.394 . S
C542 C548 1.465 . S
C543 C538 1.399 . S
C543 C542 1.394 . S
C543 C544 1.516 . S
C544 C543 1.516 . S
C544 C545 1.502 . S
C544 C546 1.561 . S
C544 C547 1.526 . S
C545 H529 0.959 . S
C545 H530 0.959 . S
C545 H531 0.961 . S
C545 C544 1.502 . S
C546 H532 0.960 . S
C546 H533 0.961 . S
C546 H534 0.959 . S
C546 C544 1.561 . S
C547 C544 1.526 . S
C547 C548 1.396 . S
C547 C552 1.390 . S
C548 C542 1.465 . S
C548 C547 1.396 . S
C548 C549 1.399 . S
C549 H535 0.929 . S
C549 C548 1.399 . S
C549 C550 1.385 . S
C550 H536 0.931 . S
C550 C549 1.385 . S
C550 C551 1.389 . S
C551 C550 1.389 . S
C551 C552 1.387 . S
C552 H537 0.930 . S
C552 C547 1.390 . S
C552 C551 1.387 . S
H553 C565 0.930 . S
H554 C567 0.930 . S
H555 C568 0.930 . S
H556 C572 0.959 . S
H557 C572 0.959 . S
H558 C572 0.961 . S
H559 C573 0.960 . S
H560 C573 0.955 1_655 S
H561 C573 0.959 . S
H562 C576 0.929 . S
H563 C577 0.931 . S
H564 C579 0.930 . S
C565 H553 0.930 . S
C565 C566 1.399 1_655 S
C565 C570 1.399 . S
C566 C565 1.399 1_455 S
C566 C567 1.376 . S
C567 H554 0.930 . S
C567 C566 1.376 . S
C567 C568 1.388 . S
C568 H555 0.930 . S
C568 C567 1.388 . S
C568 C569 1.390 . S
C569 C568 1.390 . S
C569 C570 1.394 1_455 S
C569 C575 1.465 . S
C570 C565 1.399 . S
C570 C569 1.394 1_655 S
C570 C571 1.516 . S
C571 C570 1.516 . S
C571 C572 1.502 . S
C571 C573 1.561 1_655 S
C571 C574 1.526 . S
C572 H556 0.959 . S
C572 H557 0.959 . S
C572 H558 0.961 . S
C572 C571 1.502 . S
C573 H559 0.960 . S
C573 H560 0.955 1_455 S
C573 H561 0.959 . S
C573 C571 1.561 1_455 S
C574 C571 1.526 . S
C574 C575 1.396 1_655 S
C574 C579 1.390 . S
C575 C569 1.465 . S
C575 C574 1.396 1_455 S
C575 C576 1.399 . S
C576 H562 0.929 . S
C576 C575 1.399 . S
C576 C577 1.385 . S
C577 H563 0.931 . S
C577 C576 1.385 . S
C577 C578 1.389 . S
C578 C577 1.389 . S
C578 C579 1.387 1_455 S
C579 H564 0.930 . S
C579 C574 1.390 . S
C579 C578 1.387 1_655 S
H580 C592 0.930 . S
H581 C594 0.930 . S
H582 C595 0.930 . S
H583 C599 0.959 . S
H584 C599 0.959 . S
H585 C599 0.961 1_554 S
H586 C600 0.960 . S
H587 C600 0.961 . S
H588 C600 0.959 . S
H589 C603 0.929 1_554 S
H590 C604 0.931 . S
H591 C606 0.930 . S
C592 H580 0.930 . S
C592 C593 1.399 1_545 S
C592 C597 1.399 . S
C593 C592 1.399 1_565 S
C593 C594 1.376 . S
C594 H581 0.930 . S
C594 C593 1.376 . S
C594 C595 1.388 . S
C595 H582 0.930 . S
C595 C594 1.388 . S
C595 C596 1.390 . S
C596 C595 1.390 . S
C596 C597 1.394 1_565 S
C596 C602 1.465 . S
C597 C592 1.399 . S
C597 C596 1.394 1_545 S
C597 C598 1.516 . S
C598 C597 1.516 . S
C598 C599 1.502 1_554 S
C598 C600 1.561 . S
C598 C601 1.526 1_554 S
C599 H583 0.959 . S
C599 H584 0.959 . S
C599 H585 0.961 1_556 S
C599 C598 1.502 1_556 S
C600 H586 0.960 . S
C600 H587 0.961 . S
C600 H588 0.959 . S
C600 C598 1.561 . S
C601 C598 1.526 1_556 S
C601 C602 1.396 1_546 S
C601 C606 1.390 . S
C602 C596 1.465 . S
C602 C601 1.396 1_564 S
C602 C603 1.399 1_554 S
C603 H589 0.929 1_556 S
C603 C602 1.399 1_556 S
C603 C604 1.385 . S
C604 H590 0.931 . S
C604 C603 1.385 . S
C604 C605 1.389 . S
C605 C604 1.389 . S
C605 C606 1.387 1_565 S
C606 H591 0.930 . S
C606 C601 1.390 . S
C606 C605 1.387 1_545 S
H607 C619 0.930 . S
H608 C621 0.930 . S
H609 C622 0.930 . S
H610 C626 0.959 . S
H611 C626 0.959 . S
H612 C626 0.961 . S
H613 C627 0.960 . S
H614 C627 0.961 . S
H615 C627 0.959 . S
H616 C630 0.929 . S
H617 C631 0.931 . S
H618 C633 0.930 . S
C619 H607 0.930 . S
C619 C620 1.399 . S
C619 C624 1.399 . S
C620 C619 1.399 . S
C620 C621 1.376 . S
C621 H608 0.930 . S
C621 C620 1.376 . S
C621 C622 1.388 . S
C622 H609 0.930 . S
C622 C621 1.388 . S
C622 C623 1.390 . S
C623 C622 1.390 . S
C623 C624 1.394 . S
C623 C629 1.465 1_554 S
C624 C619 1.399 . S
C624 C623 1.394 . S
C624 C625 1.516 . S
C625 C624 1.516 . S
C625 C626 1.502 . S
C625 C627 1.561 . S
C625 C628 1.526 1_554 S
C626 H610 0.959 . S
C626 H611 0.959 . S
C626 H612 0.961 . S
C626 C625 1.502 . S
C627 H613 0.960 . S
C627 H614 0.961 . S
C627 H615 0.959 . S
C627 C625 1.561 . S
C628 C625 1.526 1_556 S
C628 C629 1.396 . S
C628 C633 1.390 . S
C629 C623 1.465 1_556 S
C629 C628 1.396 . S
C629 C630 1.399 . S
C630 H616 0.929 . S
C630 C629 1.399 . S
C630 C631 1.385 . S
C631 H617 0.931 . S
C631 C630 1.385 . S
C631 C632 1.389 . S
C632 C631 1.389 . S
C632 C633 1.387 . S
C633 H618 0.930 . S
C633 C628 1.390 . S
C633 C632 1.387 . S
H634 C646 0.930 . S
H635 C648 0.930 . S
H636 C649 0.930 . S
H637 C653 0.959 . S
H638 C653 0.959 . S
H639 C653 0.961 1_554 S
H640 C654 0.960 . S
H641 C654 0.961 1_556 S
H642 C654 0.959 . S
H643 C657 0.929 1_554 S
H644 C658 0.931 . S
H645 C660 0.930 . S
C646 H634 0.930 . S
C646 C647 1.399 . S
C646 C651 1.399 . S
C647 C646 1.399 . S
C647 C648 1.376 . S
C648 H635 0.930 . S
C648 C647 1.376 . S
C648 C649 1.388 . S
C649 H636 0.930 . S
C649 C648 1.388 . S
C649 C650 1.390 . S
C650 C649 1.390 . S
C650 C651 1.394 . S
C650 C656 1.465 . S
C651 C646 1.399 . S
C651 C650 1.394 . S
C651 C652 1.516 . S
C652 C651 1.516 . S
C652 C653 1.502 1_554 S
C652 C654 1.561 . S
C652 C655 1.526 1_554 S
C653 H637 0.959 . S
C653 H638 0.959 . S
C653 H639 0.961 1_556 S
C653 C652 1.502 1_556 S
C654 H640 0.960 . S
C654 H641 0.961 1_554 S
C654 H642 0.959 . S
C654 C652 1.561 . S
C655 C652 1.526 1_556 S
C655 C656 1.396 1_556 S
C655 C660 1.390 . S
C656 C650 1.465 . S
C656 C655 1.396 1_554 S
C656 C657 1.399 1_554 S
C657 H643 0.929 1_556 S
C657 C656 1.399 1_556 S
C657 C658 1.385 . S
C658 H644 0.931 . S
C658 C657 1.385 . S
C658 C659 1.389 . S
C659 C658 1.389 . S
C659 C660 1.387 . S
C660 H645 0.930 . S
C660 C655 1.390 . S
C660 C659 1.387 . S
H661 C673 0.930 . S
H662 C675 0.930 . S
H663 C676 0.930 . S
H664 C680 0.959 . S
H665 C680 0.959 . S
H666 C680 0.961 1_554 S
H667 C681 0.960 . S
H668 C681 0.961 . S
H669 C681 0.959 . S
H670 C684 0.929 1_554 S
H671 C685 0.931 . S
H672 C687 0.930 . S
C673 H661 0.930 . S
C673 C674 1.399 1_455 S
C673 C678 1.399 . S
C674 C673 1.399 1_655 S
C674 C675 1.376 . S
C675 H662 0.930 . S
C675 C674 1.376 . S
C675 C676 1.388 . S
C676 H663 0.930 . S
C676 C675 1.388 . S
C676 C677 1.390 . S
C677 C676 1.390 . S
C677 C678 1.394 1_655 S
C677 C683 1.465 . S
C678 C673 1.399 . S
C678 C677 1.394 1_455 S
C678 C679 1.516 . S
C679 C678 1.516 . S
C679 C680 1.502 1_554 S
C679 C681 1.561 . S
C679 C682 1.526 1_554 S
C680 H664 0.959 . S
C680 H665 0.959 . S
C680 H666 0.961 1_556 S
C680 C679 1.502 1_556 S
C681 H667 0.960 . S
C681 H668 0.961 . S
C681 H669 0.959 . S
C681 C679 1.561 . S
C682 C679 1.526 1_556 S
C682 C683 1.396 1_456 S
C682 C687 1.390 . S
C683 C677 1.465 . S
C683 C682 1.396 1_654 S
C683 C684 1.399 1_554 S
C684 H670 0.929 1_556 S
C684 C683 1.399 1_556 S
C684 C685 1.385 . S
C685 H671 0.931 . S
C685 C684 1.385 . S
C685 C686 1.389 . S
C686 C685 1.389 . S
C686 C687 1.387 1_655 S
C687 H672 0.930 . S
C687 C682 1.390 . S
C687 C686 1.387 1_455 S
H688 C700 0.930 . S
H689 C702 0.930 . S
H690 C703 0.930 . S
H691 C707 0.959 . S
H692 C707 0.959 . S
H693 C707 0.961 . S
H694 C708 0.960 . S
H695 C708 0.961 . S
H696 C708 0.959 . S
H697 C711 0.929 . S
H698 C712 0.931 . S
H699 C714 0.930 . S
C700 H688 0.930 . S
C700 C701 1.402 . S
C700 C705 1.399 1_455 S
C701 C700 1.402 . S
C701 C702 1.356 1_455 S
C702 H689 0.930 . S
C702 C701 1.356 1_655 S
C702 C703 1.388 . S
C703 H690 0.930 . S
C703 C702 1.388 . S
C703 C704 1.390 . S
C704 C703 1.390 . S
C704 C705 1.394 . S
C704 C710 1.465 . S
C705 C700 1.399 1_655 S
C705 C704 1.394 . S
C705 C706 1.516 . S
C706 C705 1.516 . S
C706 C707 1.502 1_655 S
C706 C708 1.561 . S
C706 C709 1.526 . S
C707 H691 0.959 . S
C707 H692 0.959 . S
C707 H693 0.961 . S
C707 C706 1.502 1_455 S
C708 H694 0.960 . S
C708 H695 0.961 . S
C708 H696 0.959 . S
C708 C706 1.561 . S
C709 C706 1.526 . S
C709 C710 1.396 . S
C709 C714 1.390 . S
C710 C704 1.465 . S
C710 C709 1.396 . S
C710 C711 1.399 . S
C711 H697 0.929 . S
C711 C710 1.399 . S
C711 C712 1.385 . S
C712 H698 0.931 . S
C712 C711 1.385 . S
C712 C713 1.389 . S
C713 C712 1.389 . S
C713 C714 1.387 . S
C714 H699 0.930 . S
C714 C709 1.390 . S
C714 C713 1.387 . S
H715 C727 0.930 . S
H716 C729 0.930 . S
H717 C730 0.930 . S
H718 C734 0.959 . S
H719 C734 0.959 . S
H720 C734 0.961 . S
H721 C735 0.960 . S
H722 C735 0.961 . S
H723 C735 0.959 . S
H724 C738 0.929 . S
H725 C739 0.931 . S
H726 C741 0.930 . S
C727 H715 0.930 . S
C727 C728 1.410 . S
C727 C732 1.398 1_545 S
C728 C727 1.410 . S
C728 C729 1.355 1_545 S
C729 H716 0.930 . S
C729 C728 1.355 1_565 S
C729 C730 1.388 . S
C730 H717 0.930 . S
C730 C729 1.388 . S
C730 C731 1.390 . S
C731 C730 1.390 . S
C731 C732 1.395 . S
C731 C737 1.465 . S
C732 C727 1.398 1_565 S
C732 C731 1.395 . S
C732 C733 1.516 1_565 S
C733 C732 1.516 1_545 S
C733 C734 1.502 . S
C733 C735 1.561 . S
C733 C736 1.526 1_545 S
C734 H718 0.959 . S
C734 H719 0.959 . S
C734 H720 0.961 . S
C734 C733 1.502 . S
C735 H721 0.960 . S
C735 H722 0.961 . S
C735 H723 0.959 . S
C735 C733 1.561 . S
C736 C733 1.526 1_565 S
C736 C737 1.396 . S
C736 C741 1.390 . S
C737 C731 1.465 . S
C737 C736 1.396 . S
C737 C738 1.399 . S
C738 H724 0.929 . S
C738 C737 1.399 . S
C738 C739 1.385 . S
C739 H725 0.931 . S
C739 C738 1.385 . S
C739 C740 1.389 . S
C740 C739 1.389 . S
C740 C741 1.387 . S
C741 H726 0.930 . S
C741 C736 1.390 . S
C741 C740 1.387 . S
H742 C754 0.930 . S
H743 C756 0.930 . S
H744 C757 0.930 . S
H745 C761 0.959 . S
H746 C761 0.959 . S
H747 C761 0.961 . S
H748 C762 0.960 . S
H749 C762 0.961 . S
H750 C762 0.959 . S
H751 C765 0.929 . S
H752 C766 0.931 . S
H753 C768 0.930 . S
C754 H742 0.930 . S
C754 C755 1.399 . S
C754 C759 1.399 . S
C755 C754 1.399 . S
C755 C756 1.376 . S
C756 H743 0.930 . S
C756 C755 1.376 . S
C756 C757 1.388 . S
C757 H744 0.930 . S
C757 C756 1.388 . S
C757 C758 1.390 . S
C758 C757 1.390 . S
C758 C759 1.394 . S
C758 C764 1.465 . S
C759 C754 1.399 . S
C759 C758 1.394 . S
C759 C760 1.516 . S
C760 C759 1.516 . S
C760 C761 1.502 . S
C760 C762 1.561 . S
C760 C763 1.526 . S
C761 H745 0.959 . S
C761 H746 0.959 . S
C761 H747 0.961 . S
C761 C760 1.502 . S
C762 H748 0.960 . S
C762 H749 0.961 . S
C762 H750 0.959 . S
C762 C760 1.561 . S
C763 C760 1.526 . S
C763 C764 1.396 . S
C763 C768 1.390 . S
C764 C758 1.465 . S
C764 C763 1.396 . S
C764 C765 1.399 . S
C765 H751 0.929 . S
C765 C764 1.399 . S
C765 C766 1.385 . S
C766 H752 0.931 . S
C766 C765 1.385 . S
C766 C767 1.389 . S
C767 C766 1.389 . S
C767 C768 1.387 . S
C768 H753 0.930 . S
C768 C763 1.390 . S
C768 C767 1.387 . S
H769 C781 0.930 . S
H770 C783 0.930 . S
H771 C784 0.930 . S
H772 C788 0.959 . S
H773 C788 0.959 . S
H774 C788 0.961 . S
H775 C789 0.960 . S
H776 C789 0.961 . S
H777 C789 0.959 . S
H778 C792 0.929 . S
H779 C793 0.931 . S
H780 C795 0.930 . S
C781 H769 0.930 . S
C781 C782 1.399 . S
C781 C786 1.399 . S
C782 C781 1.399 . S
C782 C783 1.376 . S
C783 H770 0.930 . S
C783 C782 1.376 . S
C783 C784 1.388 . S
C784 H771 0.930 . S
C784 C783 1.388 . S
C784 C785 1.390 . S
C785 C784 1.390 . S
C785 C786 1.394 . S
C785 C791 1.465 . S
C786 C781 1.399 . S
C786 C785 1.394 . S
C786 C787 1.516 . S
C787 C786 1.516 . S
C787 C788 1.502 . S
C787 C789 1.561 . S
C787 C790 1.526 . S
C788 H772 0.959 . S
C788 H773 0.959 . S
C788 H774 0.961 . S
C788 C787 1.502 . S
C789 H775 0.960 . S
C789 H776 0.961 . S
C789 H777 0.959 . S
C789 C787 1.561 . S
C790 C787 1.526 . S
C790 C791 1.396 . S
C790 C795 1.390 . S
C791 C785 1.465 . S
C791 C790 1.396 . S
C791 C792 1.399 . S
C792 H778 0.929 . S
C792 C791 1.399 . S
C792 C793 1.385 . S
C793 H779 0.931 . S
C793 C792 1.385 . S
C793 C794 1.389 . S
C794 C793 1.389 . S
C794 C795 1.387 . S
C795 H780 0.930 . S
C795 C790 1.390 . S
C795 C794 1.387 . S
H796 C808 0.930 . S
H797 C810 0.930 . S
H798 C811 0.930 1_556 S
H799 C815 0.959 . S
H800 C815 0.959 . S
H801 C815 0.961 . S
H802 C816 0.960 . S
H803 C816 0.961 . S
H804 C816 0.959 . S
H805 C819 0.929 . S
H806 C820 0.931 . S
H807 C822 0.930 . S
C808 H796 0.930 . S
C808 C809 1.404 . S
C808 C813 1.399 1_655 S
C809 C808 1.404 . S
C809 C810 1.363 1_655 S
C810 H797 0.930 . S
C810 C809 1.363 1_455 S
C810 C811 1.388 . S
C811 H798 0.930 1_554 S
C811 C810 1.388 . S
C811 C812 1.390 . S
C812 C811 1.390 . S
C812 C813 1.394 . S
C812 C818 1.466 . S
C813 C808 1.399 1_455 S
C813 C812 1.394 . S
C813 C814 1.516 . S
C814 C813 1.516 . S
C814 C815 1.502 1_455 S
C814 C816 1.561 . S
C814 C817 1.526 . S
C815 H799 0.959 . S
C815 H800 0.959 . S
C815 H801 0.961 . S
C815 C814 1.502 1_655 S
C816 H802 0.960 . S
C816 H803 0.961 . S
C816 H804 0.959 . S
C816 C814 1.561 . S
C817 C814 1.526 . S
C817 C818 1.397 . S
C817 C822 1.390 . S
C818 C812 1.466 . S
C818 C817 1.397 . S
C818 C819 1.398 1_554 S
C819 H805 0.929 . S
C819 C818 1.398 1_556 S
C819 C820 1.385 . S
C820 H806 0.931 . S
C820 C819 1.385 . S
C820 C821 1.389 . S
C821 C820 1.389 . S
C821 C822 1.387 1_556 S
C822 H807 0.930 . S
C822 C817 1.390 . S
C822 C821 1.387 1_554 S
H823 C835 0.931 . S
H824 C837 0.930 . S
H825 C838 0.930 . S
H826 C842 0.959 . S
H827 C842 0.959 . S
H828 C842 0.961 . S
H829 C843 0.960 . S
H830 C843 0.961 . S
H831 C843 0.959 . S
H832 C846 0.929 . S
H833 C847 0.931 . S
H834 C849 0.930 . S
C835 H823 0.931 . S
C835 C836 1.399 1_545 S
C835 C840 1.399 . S
C836 C835 1.399 1_565 S
C836 C837 1.376 . S
C837 H824 0.930 . S
C837 C836 1.376 . S
C837 C838 1.388 1_565 S
C838 H825 0.930 . S
C838 C837 1.388 1_545 S
C838 C839 1.390 . S
C839 C838 1.390 . S
C839 C840 1.394 . S
C839 C845 1.465 . S
C840 C835 1.399 . S
C840 C839 1.394 . S
C840 C841 1.516 1_554 S
C841 C840 1.516 1_556 S
C841 C842 1.502 . S
C841 C843 1.561 1_545 S
C841 C844 1.526 . S
C842 H826 0.959 . S
C842 H827 0.959 . S
C842 H828 0.961 . S
C842 C841 1.502 . S
C843 H829 0.960 . S
C843 H830 0.961 . S
C843 H831 0.959 . S
C843 C841 1.561 1_565 S
C844 C841 1.526 . S
C844 C845 1.396 1_556 S
C844 C849 1.390 . S
C845 C839 1.465 . S
C845 C844 1.396 1_554 S
C845 C846 1.399 . S
C846 H832 0.929 . S
C846 C845 1.399 . S
C846 C847 1.385 . S
C847 H833 0.931 . S
C847 C846 1.385 . S
C847 C848 1.389 1_554 S
C848 C847 1.389 1_556 S
C848 C849 1.387 . S
C849 H834 0.930 . S
C849 C844 1.390 . S
C849 C848 1.387 . S
H850 C862 0.930 . S
H851 C864 0.930 . S
H852 C865 0.930 . S
H853 C869 0.959 . S
H854 C869 0.959 . S
H855 C869 0.961 . S
H856 C870 0.960 . S
H857 C870 0.961 . S
H858 C870 0.959 . S
H859 C873 0.929 . S
H860 C874 0.931 . S
H861 C876 0.930 . S
C862 H850 0.930 . S
C862 C863 1.399 . S
C862 C867 1.399 . S
C863 C862 1.399 . S
C863 C864 1.376 . S
C864 H851 0.930 . S
C864 C863 1.376 . S
C864 C865 1.388 . S
C865 H852 0.930 . S
C865 C864 1.388 . S
C865 C866 1.390 . S
C866 C865 1.390 . S
C866 C867 1.394 . S
C866 C872 1.465 . S
C867 C862 1.399 . S
C867 C866 1.394 . S
C867 C868 1.516 . S
C868 C867 1.516 . S
C868 C869 1.502 . S
C868 C870 1.561 1_554 S
C868 C871 1.526 . S
C869 H853 0.959 . S
C869 H854 0.959 . S
C869 H855 0.961 . S
C869 C868 1.502 . S
C870 H856 0.960 . S
C870 H857 0.961 . S
C870 H858 0.959 . S
C870 C868 1.561 1_556 S
C871 C868 1.526 . S
C871 C872 1.396 . S
C871 C876 1.390 1_554 S
C872 C866 1.465 . S
C872 C871 1.396 . S
C872 C873 1.399 1_554 S
C873 H859 0.929 . S
C873 C872 1.399 1_556 S
C873 C874 1.385 . S
C874 H860 0.931 . S
C874 C873 1.385 . S
C874 C875 1.389 . S
C875 C874 1.389 . S
C875 C876 1.387 . S
C876 H861 0.930 . S
C876 C871 1.390 1_556 S
C876 C875 1.387 . S
H877 C889 0.930 . S
H878 C891 0.930 . S
H879 C892 0.930 . S
H880 C896 0.959 . S
H881 C896 0.959 . S
H882 C896 0.961 . S
H883 C897 0.960 . S
H884 C897 0.961 . S
H885 C897 0.959 . S
H886 C900 0.929 . S
H887 C901 0.931 . S
H888 C903 0.930 . S
C889 H877 0.930 . S
C889 C890 1.399 . S
C889 C894 1.399 . S
C890 C889 1.399 . S
C890 C891 1.376 . S
C891 H878 0.930 . S
C891 C890 1.376 . S
C891 C892 1.388 . S
C892 H879 0.930 . S
C892 C891 1.388 . S
C892 C893 1.390 . S
C893 C892 1.390 . S
C893 C894 1.394 . S
C893 C899 1.465 . S
C894 C889 1.399 . S
C894 C893 1.394 . S
C894 C895 1.516 1_554 S
C895 C894 1.516 1_556 S
C895 C896 1.502 . S
C895 C897 1.561 . S
C895 C898 1.526 . S
C896 H880 0.959 . S
C896 H881 0.959 . S
C896 H882 0.961 . S
C896 C895 1.502 . S
C897 H883 0.960 . S
C897 H884 0.961 . S
C897 H885 0.959 . S
C897 C895 1.561 . S
C898 C895 1.526 . S
C898 C899 1.396 1_556 S
C898 C903 1.390 . S
C899 C893 1.465 . S
C899 C898 1.396 1_554 S
C899 C900 1.399 . S
C900 H886 0.929 . S
C900 C899 1.399 . S
C900 C901 1.385 . S
C901 H887 0.931 . S
C901 C900 1.385 . S
C901 C902 1.389 1_554 S
C902 C901 1.389 1_556 S
C902 C903 1.387 . S
C903 H888 0.930 . S
C903 C898 1.390 . S
C903 C902 1.387 . S
H904 C916 0.930 . S
H905 C918 0.930 . S
H906 C919 0.930 . S
H907 C923 0.959 . S
H908 C923 0.959 . S
H909 C923 0.961 . S
H910 C924 0.960 . S
H911 C924 0.961 . S
H912 C924 0.959 . S
H913 C927 0.929 . S
H914 C928 0.931 . S
H915 C930 0.930 1_655 S
C916 H904 0.930 . S
C916 C917 1.399 1_655 S
C916 C921 1.399 1_655 S
C917 C916 1.399 1_455 S
C917 C918 1.376 . S
C918 H905 0.930 . S
C918 C917 1.376 . S
C918 C919 1.388 . S
C919 H906 0.930 . S
C919 C918 1.388 . S
C919 C920 1.390 . S
C920 C919 1.390 . S
C920 C921 1.394 . S
C920 C926 1.465 . S
C921 C916 1.399 1_455 S
C921 C920 1.394 . S
C921 C922 1.516 1_455 S
C922 C921 1.516 1_655 S
C922 C923 1.502 . S
C922 C924 1.561 1_655 S
C922 C925 1.526 1_655 S
C923 H907 0.959 . S
C923 H908 0.959 . S
C923 H909 0.961 . S
C923 C922 1.502 . S
C924 H910 0.960 . S
C924 H911 0.961 . S
C924 H912 0.959 . S
C924 C922 1.561 1_455 S
C925 C922 1.526 1_455 S
C925 C926 1.396 . S
C925 C930 1.390 . S
C926 C920 1.465 . S
C926 C925 1.396 . S
C926 C927 1.399 . S
C927 H913 0.929 . S
C927 C926 1.399 . S
C927 C928 1.385 . S
C928 H914 0.931 . S
C928 C927 1.385 . S
C928 C929 1.389 . S
C929 C928 1.389 . S
C929 C930 1.387 . S
C930 H915 0.930 1_455 S
C930 C925 1.390 . S
C930 C929 1.387 . S
H931 C943 0.930 . S
H932 C945 0.925 1_565 S
H933 C946 0.933 . S
H934 C950 0.997 . S
H935 C950 0.949 1_545 S
H936 C950 0.960 . S
H937 C951 0.960 . S
H938 C951 0.961 . S
H939 C951 0.959 . S
H940 C954 0.929 . S
H941 C955 0.931 . S
H942 C957 0.930 . S
C943 H931 0.930 . S
C943 C944 1.399 . S
C943 C948 1.399 . S
C944 C943 1.399 . S
C944 C945 1.376 . S
C945 H932 0.925 1_545 S
C945 C944 1.376 . S
C945 C946 1.388 . S
C946 H933 0.933 . S
C946 C945 1.388 . S
C946 C947 1.390 . S
C947 C946 1.390 . S
C947 C948 1.394 . S
C947 C953 1.465 . S
C948 C943 1.399 . S
C948 C947 1.394 . S
C948 C949 1.516 . S
C949 C948 1.516 . S
C949 C950 1.479 1_545 S
C949 C951 1.561 . S
C949 C952 1.526 . S
C950 H934 0.997 . S
C950 H935 0.949 1_565 S
C950 H936 0.960 . S
C950 C949 1.479 1_565 S
C951 H937 0.960 . S
C951 H938 0.961 . S
C951 H939 0.959 . S
C951 C949 1.561 . S
C952 C949 1.526 . S
C952 C953 1.396 . S
C952 C957 1.390 . S
C953 C947 1.465 . S
C953 C952 1.396 . S
C953 C954 1.399 . S
C954 H940 0.929 . S
C954 C953 1.399 . S
C954 C955 1.385 . S
C955 H941 0.931 . S
C955 C954 1.385 . S
C955 C956 1.389 . S
C956 C955 1.389 . S
C956 C957 1.387 . S
C957 H942 0.930 . S
C957 C952 1.390 . S
C957 C956 1.387 . S
H958 C970 0.930 . S
H959 C972 0.930 . S
H960 C973 0.930 . S
H961 C977 0.959 . S
H962 C977 0.959 . S
H963 C977 0.961 . S
H964 C978 0.960 . S
H965 C978 0.961 . S
H966 C978 0.959 . S
H967 C981 0.929 . S
H968 C982 0.931 . S
H969 C984 0.930 . S
C970 H958 0.930 . S
C970 C971 1.399 . S
C970 C975 1.399 . S
C971 C970 1.399 . S
C971 C972 1.376 . S
C972 H959 0.930 . S
C972 C971 1.376 . S
C972 C973 1.388 . S
C973 H960 0.930 . S
C973 C972 1.388 . S
C973 C974 1.390 . S
C974 C973 1.390 . S
C974 C975 1.394 . S
C974 C980 1.465 . S
C975 C970 1.399 . S
C975 C974 1.394 . S
C975 C976 1.516 . S
C976 C975 1.516 . S
C976 C977 1.502 . S
C976 C978 1.561 . S
C976 C979 1.526 . S
C977 H961 0.959 . S
C977 H962 0.959 . S
C977 H963 0.961 . S
C977 C976 1.502 . S
C978 H964 0.960 . S
C978 H965 0.961 . S
C978 H966 0.959 . S
C978 C976 1.561 . S
C979 C976 1.526 . S
C979 C980 1.396 . S
C979 C984 1.390 . S
C980 C974 1.465 . S
C980 C979 1.396 . S
C980 C981 1.399 . S
C981 H967 0.929 . S
C981 C980 1.399 . S
C981 C982 1.385 . S
C982 H968 0.931 . S
C982 C981 1.385 . S
C982 C983 1.389 . S
C983 C982 1.389 . S
C983 C984 1.387 . S
C984 H969 0.930 . S
C984 C979 1.390 . S
C984 C983 1.387 . S
H985 C997 0.930 . S
H986 C999 0.930 . S
H987 C1000 0.930 . S
H988 C1004 0.959 . S
H989 C1004 0.959 . S
H990 C1004 0.961 . S
H991 C1005 0.960 . S
H992 C1005 0.961 . S
H993 C1005 0.959 . S
H994 C1008 0.929 . S
H995 C1009 0.931 . S
H996 C1011 0.930 . S
C997 H985 0.930 . S
C997 C998 1.399 . S
C997 C1002 1.399 . S
C998 C997 1.399 . S
C998 C999 1.376 . S
C999 H986 0.930 . S
C999 C998 1.376 . S
C999 C1000 1.388 . S
C1000 H987 0.930 . S
C1000 C999 1.388 . S
C1000 C1001 1.390 . S
C1001 C1000 1.390 . S
C1001 C1002 1.394 . S
C1001 C1007 1.465 . S
C1002 C997 1.399 . S
C1002 C1001 1.394 . S
C1002 C1003 1.516 . S
C1003 C1002 1.516 . S
C1003 C1004 1.502 . S
C1003 C1005 1.561 . S
C1003 C1006 1.526 . S
C1004 H988 0.959 . S
C1004 H989 0.959 . S
C1004 H990 0.961 . S
C1004 C1003 1.502 . S
C1005 H991 0.960 . S
C1005 H992 0.961 . S
C1005 H993 0.959 . S
C1005 C1003 1.561 . S
C1006 C1003 1.526 . S
C1006 C1007 1.396 . S
C1006 C1011 1.390 . S
C1007 C1001 1.465 . S
C1007 C1006 1.396 . S
C1007 C1008 1.399 . S
C1008 H994 0.929 . S
C1008 C1007 1.399 . S
C1008 C1009 1.385 . S
C1009 H995 0.931 . S
C1009 C1008 1.385 . S
C1009 C1010 1.389 . S
C1010 C1009 1.389 . S
C1010 C1011 1.387 . S
C1011 H996 0.930 . S
C1011 C1006 1.390 . S
C1011 C1010 1.387 . S
H1012 C1024 0.927 1_455 S
H1013 C1026 0.930 . S
H1014 C1027 0.930 . S
H1015 C1031 0.959 . S
H1016 C1031 0.959 . S
H1017 C1031 0.961 . S
H1018 C1032 0.960 . S
H1019 C1032 0.961 . S
H1020 C1032 0.959 . S
H1021 C1035 0.929 . S
H1022 C1036 0.931 . S
H1023 C1038 0.930 . S
C1024 H1012 0.927 1_655 S
C1024 C1025 1.401 . S
C1024 C1029 1.400 . S
C1025 C1024 1.401 . S
C1025 C1026 1.376 . S
C1026 H1013 0.930 . S
C1026 C1025 1.376 . S
C1026 C1027 1.388 . S
C1027 H1014 0.930 . S
C1027 C1026 1.388 . S
C1027 C1028 1.390 . S
C1028 C1027 1.390 . S
C1028 C1029 1.394 . S
C1028 C1034 1.465 . S
C1029 C1024 1.400 . S
C1029 C1028 1.394 . S
C1029 C1030 1.514 1_655 S
C1030 C1029 1.514 1_455 S
C1030 C1031 1.484 1_455 S
C1030 C1032 1.589 . S
C1030 C1033 1.521 1_455 S
C1031 H1015 0.959 . S
C1031 H1016 0.959 . S
C1031 H1017 0.961 . S
C1031 C1030 1.484 1_655 S
C1032 H1018 0.960 . S
C1032 H1019 0.961 . S
C1032 H1020 0.959 . S
C1032 C1030 1.589 . S
C1033 C1030 1.521 1_655 S
C1033 C1034 1.396 . S
C1033 C1038 1.390 . S
C1034 C1028 1.465 . S
C1034 C1033 1.396 . S
C1034 C1035 1.399 . S
C1035 H1021 0.929 . S
C1035 C1034 1.399 . S
C1035 C1036 1.385 . S
C1036 H1022 0.931 . S
C1036 C1035 1.385 . S
C1036 C1037 1.389 . S
C1037 C1036 1.389 . S
C1037 C1038 1.387 . S
C1038 H1023 0.930 . S
C1038 C1033 1.390 . S
C1038 C1037 1.387 . S
H1039 C1051 0.930 . S
H1040 C1053 0.930 . S
H1041 C1054 0.930 . S
H1042 C1058 0.959 . S
H1043 C1058 0.959 . S
H1044 C1058 0.961 . S
H1045 C1059 0.960 . S
H1046 C1059 0.961 . S
H1047 C1059 0.959 . S
H1048 C1062 0.929 . S
H1049 C1063 0.931 . S
H1050 C1065 0.930 . S
C1051 H1039 0.930 . S
C1051 C1052 1.400 . S
C1051 C1056 1.399 . S
C1052 C1051 1.400 . S
C1052 C1053 1.376 1_565 S
C1053 H1040 0.930 . S
C1053 C1052 1.376 1_545 S
C1053 C1054 1.388 . S
C1054 H1041 0.930 . S
C1054 C1053 1.388 . S
C1054 C1055 1.390 . S
C1055 C1054 1.390 . S
C1055 C1056 1.394 1_545 S
C1055 C1061 1.465 . S
C1056 C1051 1.399 . S
C1056 C1055 1.394 1_565 S
C1056 C1057 1.516 . S
C1057 C1056 1.516 . S
C1057 C1058 1.502 . S
C1057 C1059 1.561 . S
C1057 C1060 1.526 . S
C1058 H1042 0.959 . S
C1058 H1043 0.959 . S
C1058 H1044 0.961 . S
C1058 C1057 1.502 . S
C1059 H1045 0.960 . S
C1059 H1046 0.961 . S
C1059 H1047 0.959 . S
C1059 C1057 1.561 . S
C1060 C1057 1.526 . S
C1060 C1061 1.396 1_565 S
C1060 C1065 1.390 . S
C1061 C1055 1.465 . S
C1061 C1060 1.396 1_545 S
C1061 C1062 1.399 . S
C1062 H1048 0.929 . S
C1062 C1061 1.399 . S
C1062 C1063 1.385 . S
C1063 H1049 0.931 . S
C1063 C1062 1.385 . S
C1063 C1064 1.389 1_545 S
C1064 C1063 1.389 1_565 S
C1064 C1065 1.387 . S
C1065 H1050 0.930 . S
C1065 C1060 1.390 . S
C1065 C1064 1.387 . S
H1066 C1078 0.930 . S
H1067 C1080 0.930 . S
H1068 C1081 0.930 . S
H1069 C1085 0.959 . S
H1070 C1085 0.959 . S
H1071 C1085 0.961 . S
H1072 C1086 0.960 . S
H1073 C1086 0.961 . S
H1074 C1086 0.959 . S
H1075 C1089 0.929 . S
H1076 C1090 0.931 . S
H1077 C1092 0.930 . S
C1078 H1066 0.930 . S
C1078 C1079 1.399 . S
C1078 C1083 1.399 . S
C1079 C1078 1.399 . S
C1079 C1080 1.376 . S
C1080 H1067 0.930 . S
C1080 C1079 1.376 . S
C1080 C1081 1.388 . S
C1081 H1068 0.930 . S
C1081 C1080 1.388 . S
C1081 C1082 1.390 . S
C1082 C1081 1.390 . S
C1082 C1083 1.394 . S
C1082 C1088 1.465 . S
C1083 C1078 1.399 . S
C1083 C1082 1.394 . S
C1083 C1084 1.516 . S
C1084 C1083 1.516 . S
C1084 C1085 1.502 . S
C1084 C1086 1.561 . S
C1084 C1087 1.526 . S
C1085 H1069 0.959 . S
C1085 H1070 0.959 . S
C1085 H1071 0.961 . S
C1085 C1084 1.502 . S
C1086 H1072 0.960 . S
C1086 H1073 0.961 . S
C1086 H1074 0.959 . S
C1086 C1084 1.561 . S
C1087 C1084 1.526 . S
C1087 C1088 1.396 . S
C1087 C1092 1.390 . S
C1088 C1082 1.465 . S
C1088 C1087 1.396 . S
C1088 C1089 1.399 . S
C1089 H1075 0.929 . S
C1089 C1088 1.399 . S
C1089 C1090 1.385 . S
C1090 H1076 0.931 . S
C1090 C1089 1.385 . S
C1090 C1091 1.389 . S
C1091 C1090 1.389 . S
C1091 C1092 1.387 . S
C1092 H1077 0.930 . S
C1092 C1087 1.390 . S
C1092 C1091 1.387 . S
H1093 C1105 0.930 . S
H1094 C1107 0.930 . S
H1095 C1108 0.930 . S
H1096 C1112 0.959 . S
H1097 C1112 0.959 . S
H1098 C1112 0.961 . S
H1099 C1113 0.960 . S
H1100 C1113 0.961 . S
H1101 C1113 0.959 . S
H1102 C1116 0.929 . S
H1103 C1117 0.931 . S
H1104 C1119 0.930 . S
C1105 H1093 0.930 . S
C1105 C1106 1.399 . S
C1105 C1110 1.399 . S
C1106 C1105 1.399 . S
C1106 C1107 1.376 . S
C1107 H1094 0.930 . S
C1107 C1106 1.376 . S
C1107 C1108 1.388 . S
C1108 H1095 0.930 . S
C1108 C1107 1.388 . S
C1108 C1109 1.390 . S
C1109 C1108 1.390 . S
C1109 C1110 1.394 . S
C1109 C1115 1.465 . S
C1110 C1105 1.399 . S
C1110 C1109 1.394 . S
C1110 C1111 1.516 . S
C1111 C1110 1.516 . S
C1111 C1112 1.502 . S
C1111 C1113 1.561 . S
C1111 C1114 1.526 . S
C1112 H1096 0.959 . S
C1112 H1097 0.959 . S
C1112 H1098 0.961 . S
C1112 C1111 1.502 . S
C1113 H1099 0.960 . S
C1113 H1100 0.961 . S
C1113 H1101 0.959 . S
C1113 C1111 1.561 . S
C1114 C1111 1.526 . S
C1114 C1115 1.396 . S
C1114 C1119 1.390 . S
C1115 C1109 1.465 . S
C1115 C1114 1.396 . S
C1115 C1116 1.399 . S
C1116 H1102 0.929 . S
C1116 C1115 1.399 . S
C1116 C1117 1.385 . S
C1117 H1103 0.931 . S
C1117 C1116 1.385 . S
C1117 C1118 1.389 . S
C1118 C1117 1.389 . S
C1118 C1119 1.387 . S
C1119 H1104 0.930 . S
C1119 C1114 1.390 . S
C1119 C1118 1.387 . S
C485 C255 2.129 1_545 S
C497 C321 2.350 1_545 S
C524 C361 2.370 . S
C512 C294 2.113 . S
C551 C401 2.362 . S
C539 C177 2.133 . S
C578 C441 2.348 1_455 S
C566 C216 2.188 1_455 S
C605 C330 2.348 1_565 S
C593 C99 2.191 . S
C620 C138 2.132 . S
C632 C370 2.374 . S
C647 C21 2.195 . S
C659 C410 2.355 . S
C674 C60 2.195 . S
C686 C450 2.351 1_655 S
C713 C327 0.521 . S
C701 C196 0.309 1_455 S
C740 C367 0.558 . S
C728 C235 0.427 1_545 S
C767 C407 0.399 . S
C755 C289 0.544 . S
C782 C157 0.446 . S
C794 C447 0.342 . S
C809 C40 0.407 . S
C821 C318 0.527 . S
C848 C358 0.461 . S
C836 C79 0.401 . S
C875 C398 0.319 . S
C863 C133 0.528 . S
C890 C1 0.342 . S
C902 C438 0.505 . S
C917 C211 2.804 . S
C929 C331 3.231 . S
C944 C250 2.770 . S
C956 C371 3.208 . S
C983 C411 3.192 . S
C971 C274 2.838 . S
C1010 C451 3.212 . S
C998 C172 2.773 . S
C1025 C55 2.793 1_655 S
C1037 C322 3.236 . S
C1064 C362 3.195 . S
C1052 C94 2.801 1_565 S
C1091 C402 3.200 . S
C1079 C118 2.790 . S
C1106 C16 2.781 . S
C1118 C442 3.230 . S
