# Generated by pormake.
# Topology zzz, (3,6)-cn, num edge types: 1
# Building blocks:
#     Node 0, Type 0, BuildingBlock: MIDCAF_clean_linker_0, # of connection points: 3
#     Node 1, Type 0, BuildingBlock: MIDCAF_clean_linker_0, # of connection points: 3
#     Node 2, Type 0, BuildingBlock: MIDCAF_clean_linker_0, # of connection points: 3
#     Node 3, Type 0, BuildingBlock: MIDCAF_clean_linker_0, # of connection points: 3
#     Node 4, Type 0, BuildingBlock: MIDCAF_clean_linker_0, # of connection points: 3
#     Node 5, Type 0, BuildingBlock: MIDCAF_clean_linker_0, # of connection points: 3
#     Node 6, Type 0, BuildingBlock: MIDCAF_clean_linker_0, # of connection points: 3
#     Node 7, Type 0, BuildingBlock: MIDCAF_clean_linker_0, # of connection points: 3
#     Node 8, Type 1, BuildingBlock: HISSIN_clean_sbu_0, # of connection points: 6
#     Node 9, Type 1, BuildingBlock: HISSIN_clean_sbu_0, # of connection points: 6
#     Node 10, Type 1, BuildingBlock: HISSIN_clean_sbu_0, # of connection points: 6
#     Node 11, Type 1, BuildingBlock: HISSIN_clean_sbu_0, # of connection points: 6
#     Edge 12, Type (0, 1), BuildingBlock: UVAHIK_clean_linker_0, # of connection points: 2
#     Edge 13, Type (0, 1), BuildingBlock: UVAHIK_clean_linker_0, # of connection points: 2
#     Edge 14, Type (0, 1), BuildingBlock: UVAHIK_clean_linker_0, # of connection points: 2
#     Edge 15, Type (0, 1), BuildingBlock: UVAHIK_clean_linker_0, # of connection points: 2
#     Edge 16, Type (0, 1), BuildingBlock: UVAHIK_clean_linker_0, # of connection points: 2
#     Edge 17, Type (0, 1), BuildingBlock: UVAHIK_clean_linker_0, # of connection points: 2
#     Edge 18, Type (0, 1), BuildingBlock: UVAHIK_clean_linker_0, # of connection points: 2
#     Edge 19, Type (0, 1), BuildingBlock: UVAHIK_clean_linker_0, # of connection points: 2
#     Edge 20, Type (0, 1), BuildingBlock: UVAHIK_clean_linker_0, # of connection points: 2
#     Edge 21, Type (0, 1), BuildingBlock: UVAHIK_clean_linker_0, # of connection points: 2
#     Edge 22, Type (0, 1), BuildingBlock: UVAHIK_clean_linker_0, # of connection points: 2
#     Edge 23, Type (0, 1), BuildingBlock: UVAHIK_clean_linker_0, # of connection points: 2
#     Edge 24, Type (0, 1), BuildingBlock: UVAHIK_clean_linker_0, # of connection points: 2
#     Edge 25, Type (0, 1), BuildingBlock: UVAHIK_clean_linker_0, # of connection points: 2
#     Edge 26, Type (0, 1), BuildingBlock: UVAHIK_clean_linker_0, # of connection points: 2
#     Edge 27, Type (0, 1), BuildingBlock: UVAHIK_clean_linker_0, # of connection points: 2
#     Edge 28, Type (0, 1), BuildingBlock: UVAHIK_clean_linker_0, # of connection points: 2
#     Edge 29, Type (0, 1), BuildingBlock: UVAHIK_clean_linker_0, # of connection points: 2
#     Edge 30, Type (0, 1), BuildingBlock: UVAHIK_clean_linker_0, # of connection points: 2
#     Edge 31, Type (0, 1), BuildingBlock: UVAHIK_clean_linker_0, # of connection points: 2
#     Edge 32, Type (0, 1), BuildingBlock: UVAHIK_clean_linker_0, # of connection points: 2
#     Edge 33, Type (0, 1), BuildingBlock: UVAHIK_clean_linker_0, # of connection points: 2
#     Edge 34, Type (0, 1), BuildingBlock: UVAHIK_clean_linker_0, # of connection points: 2
#     Edge 35, Type (0, 1), BuildingBlock: UVAHIK_clean_linker_0, # of connection points: 2
# Relax obj value: 0.360
# Max RMSD: 0.210
# Mean RMSD: 0.189
data_MOF--net-zzz--node1-HISSIN_clean_sbu_0--node2-MIDCAF_clean_linker_0--edge1-UVAHIK_clean_linker_0
_symmetry_space_group_name_H-M    P1
_symmetry_Int_Tables_number       1
_symmetry_cell_setting            triclinic
loop_
_symmetry_equiv_pos_as_xyz
'x, y, z'
_cell_length_a     68.670471
_cell_length_b     69.429888
_cell_length_c     26.767452
_cell_angle_alpha  89.279642
_cell_angle_beta   91.375565
_cell_angle_gamma 91.264091
loop_
_atom_site_label
_atom_site_type_symbol
_atom_site_fract_x
_atom_site_fract_y
_atom_site_fract_z
_atom_type_partial_charge
C0 C 0.80663 0.58097 0.32447 0.0
C1 C 0.80247 0.56575 0.35789 0.0
C2 C 0.78474 0.55532 0.3514 0.0
C3 C 0.77187 0.55965 0.31137 0.0
H4 H 0.72353 0.53732 0.17536 0.0
H5 H 0.69381 0.52596 0.13112 0.0
H6 H 0.67477 0.58462 0.11599 0.0
H7 H 0.70461 0.59587 0.15911 0.0
H8 H 0.75085 0.59295 0.04922 0.0
H9 H 0.77 0.59292 0.97384 0.0
H10 H 0.82292 0.59376 0.0647 0.0
H11 H 0.80396 0.59456 0.13939 0.0
H12 H 0.798 0.59675 0.25918 0.0
H13 H 0.8202 0.58916 0.32755 0.0
H14 H 0.78097 0.54362 0.37674 0.0
H15 H 0.75867 0.55099 0.30634 0.0
N16 N 0.74593 0.57155 0.22488 0.0
N17 N 0.74568 0.58254 0.14124 0.0
N18 N 0.7741 0.5855 0.19016 0.0
C19 C 0.73619 0.57453 0.18048 0.0
C20 C 0.76468 0.58798 0.14561 0.0
C21 C 0.76495 0.57753 0.23008 0.0
C22 C 0.71611 0.56741 0.17121 0.0
C23 C 0.71253 0.54763 0.16457 0.0
C24 C 0.69567 0.54118 0.13877 0.0
C25 C 0.68205 0.55443 0.11986 0.0
C26 C 0.68489 0.57407 0.13051 0.0
C27 C 0.7019 0.58052 0.15539 0.0
C28 C 0.77584 0.59316 0.10049 0.0
C29 C 0.76658 0.5937 0.05306 0.0
C30 C 0.77757 0.59358 0.00977 0.0
C31 C 0.79801 0.59281 0.01308 0.0
C32 C 0.80723 0.59439 0.0604 0.0
C33 C 0.79628 0.59467 0.10357 0.0
C34 C 0.77659 0.57436 0.27686 0.0
C35 C 0.7939 0.58521 0.28473 0.0
C36 C 0.96856 0.78895 0.33434 0.0
C37 C 0.98807 0.79266 0.34908 0.0
C38 C 1.00262 0.78157 0.32746 0.0
C39 C 0.99782 0.76809 0.28993 0.0
H40 H 1.00709 0.7105 0.18239 0.0
H41 H 0.01591 0.68078 0.1398 0.0
H42 H 0.95892 0.67865 0.06765 0.0
H43 H 0.95015 0.7073 0.11084 0.0
H44 H 0.94499 0.75079 0.05118 0.0
H45 H 0.93702 0.77358 0.98428 0.0
H46 H 0.9393 0.81997 0.09056 0.0
H47 H 0.94664 0.79731 0.15728 0.0
H48 H 0.94873 0.77405 0.28488 0.0
H49 H 0.95686 0.79723 0.34901 0.0
H50 H 0.0178 0.78378 0.33822 0.0
H51 H 1.00938 0.76074 0.27163 0.0
N52 N 0.97903 0.7383 0.21207 0.0
N53 N 0.96208 0.74179 0.13497 0.0
N54 N 0.96222 0.76673 0.1922 0.0
C55 C 0.97303 0.73089 0.16684 0.0
C56 C 0.95669 0.7597 0.1471 0.0
C57 C 0.97322 0.7563 0.22496 0.0
C58 C 0.97794 0.71129 0.14996 0.0
C59 C 0.99636 0.70327 0.15852 0.0
C60 C 1.00146 0.68639 0.13354 0.0
C61 C 0.98818 0.67719 0.09993 0.0
C62 C 0.96952 0.68491 0.09362 0.0
C63 C 0.9645 0.70157 0.11827 0.0
C64 C 0.94711 0.77232 0.10936 0.0
C65 C 0.94325 0.76577 0.06052 0.0
C66 C 0.93868 0.77883 0.0221 0.0
C67 C 0.93799 0.79865 0.03179 0.0
C68 C 0.93967 0.80482 0.08158 0.0
C69 C 0.94412 0.79178 0.11997 0.0
C70 C 0.97839 0.76549 0.27335 0.0
C71 C 0.96383 0.77559 0.29723 0.0
C72 C 0.75051 0.98084 0.33415 0.0
C73 C 0.73206 0.98809 0.32031 0.0
C74 C 0.72776 0.99101 0.2692 0.0
C75 C 0.74096 0.98595 0.23302 0.0
H76 H 0.82219 0.99582 0.17696 0.0
H77 H 0.85355 1.00269 0.13759 0.0
H78 H 0.85382 0.94418 0.08394 0.0
H79 H 0.82352 0.93735 0.12491 0.0
H80 H 0.78265 0.9324 0.0507 0.0
H81 H 0.76458 0.92674 0.97271 0.0
H82 H 0.71175 0.94424 0.04234 0.0
H83 H 0.72955 0.94932 0.12018 0.0
H84 H 0.77756 0.96951 0.30906 0.0
H85 H 0.7544 0.97855 0.37318 0.0
H86 H 0.71371 0.99627 0.25676 0.0
H87 H 0.73667 0.98759 0.19398 0.0
N88 N 0.7901 0.97124 0.20309 0.0
N89 N 0.7887 0.95254 0.13022 0.0
N90 N 0.76014 0.95864 0.17174 0.0
C91 C 0.79934 0.96283 0.16437 0.0
C92 C 0.76918 0.95035 0.13344 0.0
C93 C 0.77032 0.96885 0.20698 0.0
C94 C 0.82034 0.96606 0.154 0.0
C95 C 0.82944 0.9843 0.15845 0.0
C96 C 0.84726 0.98829 0.13498 0.0
C97 C 0.85631 0.97412 0.10658 0.0
C98 C 0.84772 0.95553 0.10563 0.0
C99 C 0.83014 0.95158 0.12911 0.0
C100 C 0.75767 0.94194 0.09127 0.0
C101 C 0.76706 0.9345 0.04978 0.0
C102 C 0.75672 0.93127 1.00498 0.0
C103 C 0.73682 0.9355 1.00079 0.0
C104 C 0.72705 0.94078 0.044 0.0
C105 C 0.73735 0.94389 0.0888 0.0
C106 C 0.75896 0.97792 0.24655 0.0
C107 C 0.7639 0.97591 0.29756 0.0
C108 C 0.43211 0.73731 0.10706 0.0
C109 C 0.43315 0.74056 0.0552 0.0
C110 C 0.4434 0.757 0.03786 0.0
C111 C 0.4535 0.76908 0.07135 0.0
H112 H 0.47129 0.82961 0.12546 0.0
H113 H 0.48502 0.85775 0.08339 0.0
H114 H 0.54278 0.84148 0.13271 0.0
H115 H 0.52879 0.81297 0.17552 0.0
H116 H 0.46396 0.75858 0.29761 0.0
H117 H 0.47242 0.73429 0.36028 0.0
H118 H 0.53326 0.74207 0.32617 0.0
H119 H 0.52468 0.76696 0.26383 0.0
H120 H 0.44205 0.74579 0.18004 0.0
H121 H 0.42395 0.72508 0.12181 0.0
H122 H 0.44468 0.75991 0.99823 0.0
H123 H 0.46208 0.78101 0.05647 0.0
N124 N 0.47605 0.79213 0.14276 0.0
N125 N 0.49657 0.79176 0.21456 0.0
N126 N 0.47323 0.76694 0.20077 0.0
C127 C 0.49039 0.80058 0.1713 0.0
C128 C 0.48763 0.775 0.22973 0.0
C129 C 0.46749 0.77526 0.15704 0.0
C130 C 0.49899 0.81907 0.15357 0.0
C131 C 0.4869 0.83219 0.12818 0.0
C132 C 0.49477 0.84841 0.1043 0.0
C133 C 0.515 0.85186 0.10463 0.0
C134 C 0.52713 0.83913 0.13167 0.0
C135 C 0.51915 0.82294 0.15644 0.0
C136 C 0.49366 0.76451 0.27569 0.0
C137 C 0.4792 0.75551 0.30454 0.0
C138 C 0.48404 0.74149 0.34014 0.0
C139 C 0.50345 0.73589 0.34729 0.0
C140 C 0.51816 0.74606 0.32149 0.0
C141 C 0.51329 0.76034 0.28593 0.0
C142 C 0.45377 0.76487 0.12286 0.0
C143 C 0.44241 0.74925 0.14049 0.0
C144 C 0.25994 0.48559 0.89811 0.0
C145 C 0.25129 0.47088 0.86879 0.0
C146 C 0.25869 0.45219 0.87327 0.0
C147 C 0.27262 0.44782 0.91035 0.0
H148 H 0.33309 0.48636 0.04657 0.0
H149 H 0.36259 0.495 0.09596 0.0
H150 H 0.35658 0.44194 0.1806 0.0
H151 H 0.32734 0.43347 0.13201 0.0
H152 H 0.27488 0.44454 0.17249 0.0
H153 H 0.2451 0.4447 0.2202 0.0
H154 H 0.2118 0.42661 0.08956 0.0
H155 H 0.24147 0.42654 0.04162 0.0
H156 H 0.27882 0.49233 0.96097 0.0
H157 H 0.25453 0.50012 0.89574 0.0
H158 H 0.25258 0.44061 0.85069 0.0
H159 H 0.27648 0.43291 0.91642 0.0
N160 N 0.30414 0.4604 0.01362 0.0
N161 N 0.29467 0.44619 0.09004 0.0
N162 N 0.27268 0.44695 0.02236 0.0
C163 C 0.30857 0.455 0.06183 0.0
C164 C 0.27667 0.44216 0.07055 0.0
C165 C 0.28615 0.45593 0.99369 0.0
C166 C 0.32787 0.45929 0.08558 0.0
C167 C 0.33834 0.47642 0.07508 0.0
C168 C 0.35511 0.48142 0.10357 0.0
C169 C 0.36189 0.46916 0.14224 0.0
C170 C 0.35189 0.45162 0.15084 0.0
C171 C 0.33505 0.44682 0.12314 0.0
C172 C 0.26044 0.43609 0.10289 0.0
C173 C 0.26134 0.43988 0.15438 0.0
C174 C 0.24426 0.43994 0.18181 0.0
C175 C 0.22612 0.43614 0.15813 0.0
C176 C 0.22558 0.42999 0.10837 0.0
C177 C 0.24259 0.42994 0.08098 0.0
C178 C 0.27964 0.46207 0.9433 0.0
C179 C 0.274 0.48119 0.9352 0.0
C180 C 0.05515 0.24288 0.90653 0.0
C181 C 0.03565 0.23624 0.90373 0.0
C182 C 0.02214 0.24466 0.93542 0.0
C183 C 0.02832 0.25823 0.97141 0.0
H184 H 0.02449 0.31581 0.08198 0.0
H185 H 0.01701 0.3444 0.13102 0.0
H186 H 0.07625 0.34608 0.18929 0.0
H187 H 0.08362 0.31833 0.14025 0.0
H188 H 0.0916 0.27309 0.18906 0.0
H189 H 0.10095 0.24844 0.24999 0.0
H190 H 0.09421 0.20504 0.13619 0.0
H191 H 0.08549 0.22956 0.07523 0.0
H192 H 0.07667 0.25987 0.94617 0.0
H193 H 0.06608 0.23668 0.8835 0.0
H194 H 1.00696 0.24011 0.93398 0.0
H195 H 0.01793 0.26331 0.99779 0.0
N196 N 0.05086 0.28936 0.04134 0.0
N197 N 0.07148 0.28431 0.11172 0.0
N198 N 0.06857 0.26079 0.05061 0.0
C199 C 0.05904 0.29579 0.08545 0.0
C200 C 0.07625 0.26679 0.09485 0.0
C201 C 0.05604 0.27183 0.02353 0.0
C202 C 0.05462 0.31476 0.10727 0.0
C203 C 0.03595 0.32267 0.10435 0.0
C204 C 0.03164 0.33889 0.13293 0.0
C205 C 0.046 0.34762 0.16439 0.0
C206 C 0.06484 0.34008 0.16518 0.0
C207 C 0.06905 0.32398 0.13716 0.0
C208 C 0.0871 0.25321 0.12764 0.0
C209 C 0.0927 0.25838 0.17664 0.0
C210 C 0.09804 0.24424 0.21165 0.0
C211 C 0.09779 0.22471 0.19835 0.0
C212 C 0.09454 0.21992 0.14791 0.0
C213 C 0.08931 0.23403 0.11289 0.0
C214 C 0.04809 0.26359 0.97641 0.0
C215 C 0.06126 0.25627 0.94248 0.0
C216 C 0.28658 0.03093 0.93385 0.0
C217 C 0.29497 0.04476 0.90143 0.0
C218 C 0.28656 0.06298 0.89737 0.0
C219 C 0.27142 0.06793 0.92837 0.0
H220 H 0.21306 0.02816 0.0769 0.0
H221 H 0.1847 0.01934 0.12765 0.0
H222 H 0.17751 0.07939 0.16185 0.0
H223 H 0.20514 0.08798 0.11116 0.0
H224 H 0.25788 0.08815 0.17734 0.0
H225 H 0.28577 0.09567 0.23076 0.0
H226 H 0.31835 0.1142 0.10182 0.0
H227 H 0.29051 0.10568 0.04786 0.0
H228 H 0.2665 0.02573 0.99342 0.0
H229 H 0.2928 0.01678 0.93786 0.0
H230 H 0.29252 0.07386 0.87232 0.0
H231 H 0.26644 0.08264 0.92729 0.0
N232 N 0.23748 0.05632 0.0264 0.0
N233 N 0.24129 0.07801 0.09324 0.0
N234 N 0.26539 0.07652 0.0338 0.0
C235 C 0.23038 0.06444 0.06851 0.0
C236 C 0.25879 0.08408 0.07626 0.0
C237 C 0.25501 0.06279 0.00857 0.0
C238 C 0.21133 0.05875 0.09003 0.0
C239 C 0.205 0.03943 0.09419 0.0
C240 C 0.18892 0.03439 0.1238 0.0
C241 C 0.17877 0.04864 0.14919 0.0
C242 C 0.18466 0.068 0.14257 0.0
C243 C 0.20065 0.07295 0.11358 0.0
C244 C 0.27229 0.09559 0.10827 0.0
C245 C 0.27071 0.0945 0.16043 0.0
C246 C 0.2868 0.09896 0.19126 0.0
C247 C 0.30464 0.10484 0.17042 0.0
C248 C 0.30507 0.10899 0.11888 0.0
C249 C 0.28908 0.10419 0.08795 0.0
C250 C 0.26428 0.05481 0.96424 0.0
C251 C 0.27137 0.03597 0.96526 0.0
C252 C 0.60332 0.29054 0.16797 0.0
C253 C 0.60823 0.28124 0.21341 0.0
C254 C 0.60329 0.26158 0.21922 0.0
C255 C 0.59201 0.25203 0.18267 0.0
H256 H 0.56069 0.19668 0.11825 0.0
H257 H 0.54631 0.17031 0.16684 0.0
H258 H 0.49134 0.19936 0.16477 0.0
H259 H 0.50583 0.22577 0.1149 0.0
H260 H 0.51035 0.26062 0.99776 0.0
H261 H 0.49981 0.28371 0.93274 0.0
H262 H 0.55927 0.30449 0.91987 0.0
H263 H 0.56968 0.28157 0.9832 0.0
H264 H 0.58775 0.289 0.0982 0.0
H265 H 0.60671 0.30568 0.16206 0.0
H266 H 0.60724 0.25384 0.25322 0.0
H267 H 0.58748 0.23722 0.18971 0.0
N268 N 0.56057 0.23698 0.11991 0.0
N269 N 0.5376 0.24107 0.05405 0.0
N270 N 0.56345 0.26344 0.06587 0.0
C271 C 0.54447 0.23065 0.09407 0.0
C272 C 0.54744 0.25738 0.0392 0.0
C273 C 0.57007 0.25345 0.10635 0.0
C274 C 0.53431 0.21314 0.11265 0.0
C275 C 0.54536 0.19711 0.12679 0.0
C276 C 0.53711 0.18202 0.15459 0.0
C277 C 0.51771 0.1828 0.16982 0.0
C278 C 0.50634 0.19843 0.15364 0.0
C279 C 0.51454 0.21341 0.12476 0.0
C280 C 0.54082 0.26933 0.99592 0.0
C281 C 0.52115 0.2699 0.98023 0.0
C282 C 0.51511 0.28322 0.94333 0.0
C283 C 0.52869 0.29599 0.92103 0.0
C284 C 0.54842 0.29476 0.93553 0.0
C285 C 0.55437 0.28167 0.97236 0.0
C286 C 0.58557 0.2619 0.13936 0.0
C287 C 0.59222 0.28095 0.1313 0.0
Eu288 Eu 0.99895 0.01967 0.5931 0.0
Eu289 Eu 0.03632 1.00749 0.66315 0.0
C290 C 0.022 0.05144 0.66067 0.0
C291 C 0.97498 0.04909 0.49624 0.0
C292 C 0.97798 0.06772 0.5154 0.0
C293 C 0.98739 0.06043 0.41655 0.0
C294 C 0.98668 0.08218 0.48643 0.0
C295 C 0.97869 0.04591 0.44563 0.0
C296 C 0.99241 0.07838 0.43754 0.0
C297 C 0.97255 0.03246 0.53079 0.0
O298 O 1.01004 0.99641 0.70533 0.0
O299 O 0.98606 0.01479 0.66889 0.0
C300 C 0.99246 1.00358 0.70531 0.0
O301 O 0.99664 0.98719 0.5978 0.0
O302 O 0.05205 1.00703 0.73489 0.0
O303 O 0.06386 0.99247 0.67197 0.0
O304 O 0.02917 0.98256 0.61155 0.0
C305 C 0.01185 0.97607 0.59704 0.0
O306 O 0.02495 0.01758 0.54325 0.0
O307 O 0.04958 0.0244 0.59941 0.0
O308 O 0.02971 0.03751 0.68757 0.0
O309 O 0.98325 0.0177 0.52137 0.0
O310 O 0.97282 0.03635 0.5784 0.0
O311 O 0.013 0.04796 0.61773 0.0
C312 C 0.06308 0.97578 0.74966 0.0
C313 C 0.05943 0.95823 0.72509 0.0
C314 C 0.05278 0.96076 0.82734 0.0
C315 C 0.05141 0.9425 0.75081 0.0
C316 C 0.0609 0.97649 0.80164 0.0
C317 C 0.0469 0.94404 0.80147 0.0
C318 C 0.06401 0.99397 0.72055 0.0
C319 C 0.04308 0.02296 0.55305 0.0
H320 H 0.97518 0.07078 0.55412 0.0
H321 H 0.99118 0.05723 0.37854 0.0
H322 H 0.99033 0.09581 0.50392 0.0
H323 H 0.97637 0.03175 0.42972 0.0
H324 H 0.06101 0.9571 0.68507 0.0
H325 H 0.04983 0.96215 0.8667 0.0
H326 H 0.04708 0.92981 0.72981 0.0
H327 H 0.06372 0.9898 0.82153 0.0
Eu328 Eu 0.52843 0.03246 0.6693 0.0
Eu329 Eu 0.50963 0.99855 0.59794 0.0
C330 C 0.52832 0.98763 0.70591 0.0
C331 C 0.56914 0.05849 0.73173 0.0
C332 C 0.57583 0.05429 0.78053 0.0
C333 C 0.60157 0.05277 0.7013 0.0
C334 C 0.59492 0.04832 0.78917 0.0
C335 C 0.58252 0.05874 0.69265 0.0
C336 C 0.60761 0.04652 0.7491 0.0
C337 C 0.54797 0.0583 0.72033 0.0
O338 O 0.48415 0.01363 0.63147 0.0
O339 O 0.49844 0.02792 0.70034 0.0
C340 C 0.48288 0.0217 0.67542 0.0
O341 O 0.50989 0.04775 0.61122 0.0
O342 O 0.48793 0.97579 0.58245 0.0
O343 O 0.50749 0.98511 0.52458 0.0
O344 O 0.51394 0.02545 0.55123 0.0
C345 C 0.50965 0.04296 0.56403 0.0
O346 O 0.55152 0.02434 0.61474 0.0
O347 O 0.54193 0.99347 0.59533 0.0
O348 O 0.51544 0.98304 0.67073 0.0
O349 O 0.54283 0.06073 0.67346 0.0
O350 O 0.53806 0.04424 0.74128 0.0
O351 O 0.53735 1.00454 0.70676 0.0
C352 C 0.47439 0.9831 0.50408 0.0
C353 C 0.46823 1.00193 0.51166 0.0
C354 C 0.44925 0.97915 0.43944 0.0
C355 C 0.45263 0.00923 0.48428 0.0
C356 C 0.46491 0.97167 0.46773 0.0
C357 C 0.44291 0.99795 0.44811 0.0
C358 C 0.49099 0.97642 0.53454 0.0
C359 C 0.55529 1.00732 0.59676 0.0
H360 H 0.56585 0.05401 0.81129 0.0
H361 H 0.61119 0.05187 0.66996 0.0
H362 H 0.59919 0.04358 0.82648 0.0
H363 H 0.57794 0.06208 0.65457 0.0
H364 H 0.47562 0.01114 0.53863 0.0
H365 H 0.44202 0.9703 0.41128 0.0
H366 H 0.44839 0.02391 0.4908 0.0
H367 H 0.46964 0.95716 0.46114 0.0
Eu368 Eu 0.50249 0.52105 0.66362 0.0
Eu369 Eu 0.54007 0.50869 0.59792 0.0
C370 C 0.54552 0.52218 0.71028 0.0
C371 C 0.46137 0.54889 0.72122 0.0
C372 C 0.46557 0.56563 0.69328 0.0
C373 C 0.43821 0.56647 0.76894 0.0
C374 C 0.45641 0.58285 0.70391 0.0
C375 C 0.44736 0.54929 0.75826 0.0
C376 C 0.44298 0.58357 0.74275 0.0
C377 C 0.47289 0.53155 0.71582 0.0
O378 O 0.53345 0.48264 0.64611 0.0
O379 O 0.50175 0.48852 0.66613 0.0
C380 C 0.51658 0.47691 0.66395 0.0
O381 O 0.49306 0.52126 0.58231 0.0
O382 O 0.57075 0.50177 0.59511 0.0
O383 O 0.55334 0.50237 0.52658 0.0
O384 O 0.51292 0.4975 0.55761 0.0
C385 C 0.49727 0.5078 0.55059 0.0
O386 O 0.51592 0.54936 0.63794 0.0
O387 O 0.53321 0.53877 0.57145 0.0
O388 O 0.55178 0.52497 0.66483 0.0
O389 O 0.47102 0.52245 0.67359 0.0
O390 O 0.491 0.53319 0.73104 0.0
O391 O 0.52758 0.5162 0.71776 0.0
C392 C 0.57826 0.47943 0.5328 0.0
C393 C 0.58118 0.46442 0.56772 0.0
C394 C 0.59069 0.45924 0.46791 0.0
C395 C 0.58886 0.447 0.55286 0.0
C396 C 0.58319 0.47673 0.48292 0.0
C397 C 0.59357 0.44412 0.50268 0.0
C398 C 0.56999 0.49785 0.54759 0.0
C399 C 0.52541 0.55272 0.59651 0.0
H400 H 0.47642 0.56553 0.66456 0.0
H401 H 0.42818 0.56653 0.79954 0.0
H402 H 0.46024 0.59571 0.68269 0.0
H403 H 0.44409 0.53649 0.78037 0.0
H404 H 0.57746 0.46609 0.60651 0.0
H405 H 0.59379 0.45743 0.4288 0.0
H406 H 0.5911 0.43579 0.58078 0.0
H407 H 0.581 0.4881 0.45538 0.0
Eu408 Eu 0.02739 0.52841 0.59774 0.0
Eu409 Eu 0.01215 0.49364 0.67152 0.0
C410 C 0.05812 0.50268 0.66353 0.0
C411 C 0.05108 0.54688 0.48443 0.0
C412 C 0.0479 0.52864 0.46344 0.0
C413 C 0.07846 0.5522 0.42981 0.0
C414 C 0.06015 0.52198 0.42715 0.0
C415 C 0.0662 0.5588 0.46674 0.0
C416 C 0.07587 0.53347 0.41056 0.0
C417 C 0.04036 0.55197 0.52912 0.0
O418 O 1.00756 0.52111 0.71407 0.0
O419 O 0.02704 0.5431 0.67234 0.0
C420 C 0.01673 0.53794 0.71127 0.0
O421 O 0.99579 0.53447 0.61 0.0
O422 O 1.00781 0.48062 0.7452 0.0
O423 O 0.99548 0.46668 0.67958 0.0
O424 O 0.98679 0.50305 0.62242 0.0
C425 C 0.9823 0.52082 0.61054 0.0
O426 O 0.01947 0.50226 0.55107 0.0
O427 O 0.0264 0.47868 0.60805 0.0
O428 O 0.04404 0.49587 0.6915 0.0
O429 O 0.02232 0.54569 0.53025 0.0
O430 O 0.04965 0.54886 0.57141 0.0
O431 O 0.0546 0.51262 0.62222 0.0
C432 C 0.97529 0.46963 0.74944 0.0
C433 C 0.95876 0.47173 0.71782 0.0
C434 C 0.95632 0.47992 0.81936 0.0
C435 C 0.9415 0.47868 0.73642 0.0
C436 C 0.97358 0.47286 0.80081 0.0
C437 C 0.94043 0.48371 0.78688 0.0
C438 C 0.99485 0.46819 0.72807 0.0
C439 C 0.024 0.48437 0.56147 0.0
H440 H 0.03648 0.51906 0.47673 0.0
H441 H 0.09027 0.56153 0.41742 0.0
H442 H 0.05784 0.50737 0.41425 0.0
H443 H 0.06897 0.57288 0.48276 0.0
H444 H 0.95952 0.4694 0.67799 0.0
H445 H 0.95574 0.48338 0.85864 0.0
H446 H 0.92952 0.4815 0.71045 0.0
H447 H 0.98605 0.47131 0.82599 0.0
C448 C 0.14691 0.05571 0.18954 0.0
C449 C 0.16299 0.04365 0.18513 0.0
C450 C 0.13348 0.05271 0.22752 0.0
C451 C 0.12849 0.02877 0.35223 0.0
H452 H 0.07437 0.04232 0.33288 0.0
C453 C 0.07602 0.03223 0.51885 0.0
C454 C 0.05656 0.02609 0.5107 0.0
C455 C 0.08875 0.03433 0.47877 0.0
C456 C 0.08937 0.03825 0.33904 0.0
H457 H 0.1769 0.01838 0.21659 0.0
H458 H 0.15306 0.01265 0.28159 0.0
H459 H 0.09616 0.04432 0.26281 0.0
H460 H 0.03529 0.01747 0.45351 0.0
H461 H 0.05741 0.02065 0.38442 0.0
H462 H 0.12151 0.02207 0.42812 0.0
C463 C 0.15114 0.02482 0.2564 0.0
C464 C 0.10201 0.03967 0.29877 0.0
C465 C 0.16468 0.02791 0.21849 0.0
C466 C 0.05014 0.0223 0.4614 0.0
C467 C 0.06287 0.02425 0.42148 0.0
C468 C 0.1158 0.02721 0.39246 0.0
C469 C 0.13553 0.03741 0.26213 0.0
C470 C 0.12181 0.03505 0.30472 0.0
C471 C 0.08241 0.03023 0.42946 0.0
C472 C 0.09605 0.03199 0.38657 0.0
H473 H 0.1449 0.06781 0.16417 0.0
H474 H 0.12183 0.06285 0.23061 0.0
H475 H 0.14365 0.02534 0.35876 0.0
H476 H 0.08147 0.03537 0.55623 0.0
H477 H 0.10356 0.03929 0.48651 0.0
C478 C 0.50174 0.17438 0.25074 0.0
C479 C 0.51033 0.16834 0.2066 0.0
C480 C 0.49772 0.16114 0.28924 0.0
C481 C 0.49183 0.10924 0.31961 0.0
H482 H 0.51309 0.12347 0.44982 0.0
C483 C 0.50741 0.05265 0.47368 0.0
C484 C 0.50582 0.05757 0.5242 0.0
C485 C 0.50493 0.06646 0.4358 0.0
C486 C 0.50669 0.11933 0.41409 0.0
H487 H 0.52045 0.14359 0.16707 0.0
H488 H 0.51319 0.12042 0.23394 0.0
H489 H 0.51339 0.14695 0.38147 0.0
H490 H 0.49966 0.08084 0.5743 0.0
H491 H 0.49489 0.10492 0.50806 0.0
H492 H 0.48513 0.08162 0.35197 0.0
C493 C 0.50962 0.13538 0.23892 0.0
C494 C 0.50691 0.13282 0.37481 0.0
C495 C 0.51387 0.14865 0.20071 0.0
C496 C 0.50113 0.07658 0.53582 0.0
C497 C 0.49851 0.09042 0.49777 0.0
C498 C 0.49141 0.0958 0.35902 0.0
C499 C 0.50198 0.14155 0.28414 0.0
C500 C 0.49982 0.12782 0.32689 0.0
C501 C 0.50061 0.0856 0.44722 0.0
C502 C 0.49921 0.10051 0.40658 0.0
H503 H 0.49903 0.18949 0.25657 0.0
H504 H 0.49168 0.1663 0.32348 0.0
H505 H 0.48603 0.10504 0.28326 0.0
H506 H 0.51099 0.03815 0.46321 0.0
H507 H 0.50701 0.06219 0.39757 0.0
C508 C 0.37904 0.49332 0.19795 0.0
C509 C 0.37842 0.47498 0.17621 0.0
C510 C 0.39301 0.49788 0.23516 0.0
C511 C 0.44024 0.48342 0.29204 0.0
H512 H 0.42055 0.50628 0.41163 0.0
C513 C 0.48651 0.48834 0.47576 0.0
C514 C 0.48436 0.50453 0.50601 0.0
C515 C 0.4742 0.4853 0.43395 0.0
C516 C 0.42644 0.50019 0.37831 0.0
H517 H 0.39261 0.44743 0.17462 0.0
H518 H 0.4171 0.45545 0.23922 0.0
H519 H 0.39869 0.50075 0.3401 0.0
H520 H 0.46778 0.53042 0.51531 0.0
H521 H 0.44675 0.52543 0.44205 0.0
H522 H 0.46803 0.48299 0.32998 0.0
C523 C 0.40674 0.46628 0.22768 0.0
C524 C 0.41385 0.497 0.33724 0.0
C525 C 0.39265 0.46164 0.19088 0.0
C526 C 0.46975 0.51769 0.49316 0.0
C527 C 0.45758 0.51475 0.45115 0.0
C528 C 0.4529 0.48678 0.33298 0.0
C529 C 0.40682 0.4843 0.25107 0.0
C530 C 0.42056 0.48849 0.2937 0.0
C531 C 0.45953 0.49846 0.42104 0.0
C532 C 0.44617 0.49513 0.37686 0.0
H533 H 0.36819 0.50385 0.18778 0.0
H534 H 0.39282 0.51197 0.25207 0.0
H535 H 0.4459 0.47698 0.25886 0.0
H536 H 0.49757 0.47787 0.48466 0.0
H537 H 0.47601 0.47243 0.41227 0.0
C538 C 0.02405 0.3637 0.22535 0.0
C539 C 0.04152 0.36371 0.19881 0.0
C540 C 0.02116 0.37735 0.26261 0.0
C541 C 0.0492 0.4079 0.35127 0.0
H542 H 1.00076 0.43443 0.36824 0.0
C543 C 0.0335 0.45214 0.52824 0.0
C544 C 0.02552 0.47042 0.51995 0.0
C545 C 0.035 0.43917 0.4888 0.0
C546 C 0.01439 0.42715 0.36393 0.0
H547 H 0.069 0.37915 0.18861 0.0
H548 H 0.06407 0.40258 0.25381 0.0
H549 H 1.00384 0.41227 0.29844 0.0
H550 H 0.01268 0.48925 0.46343 0.0
H551 H 0.01512 0.46658 0.39507 0.0
H552 H 0.05974 0.42266 0.41675 0.0
C553 C 0.05276 0.3918 0.24644 0.0
C554 C 0.01611 0.41436 0.32414 0.0
C555 C 0.05556 0.37833 0.20899 0.0
C556 C 0.01894 0.47532 0.4713 0.0
C557 C 0.02022 0.46228 0.43207 0.0
C558 C 0.04739 0.42045 0.39138 0.0
C559 C 0.03571 0.39126 0.27448 0.0
C560 C 0.03359 0.40469 0.31709 0.0
C561 C 0.02832 0.44405 0.44024 0.0
C562 C 0.03001 0.43033 0.3981 0.0
H563 H 0.01297 0.35261 0.21899 0.0
H564 H 1.00787 0.3765 0.28359 0.0
H565 H 0.0628 0.40053 0.34728 0.0
H566 H 0.03873 0.44788 0.56516 0.0
H567 H 0.0412 0.4252 0.49644 0.0
C568 C 0.87534 0.99684 0.05004 0.0
C569 C 0.87343 0.97879 0.07421 0.0
C570 C 0.88971 1.00024 0.01435 0.0
C571 C 0.93406 0.97846 0.95768 0.0
H572 H 0.92039 0.01275 0.84784 0.0
C573 C 0.98737 0.99454 0.79561 0.0
C574 C 0.97956 0.99939 0.74818 0.0
C575 C 0.97523 0.99223 0.83684 0.0
C576 C 0.92443 1.00283 0.87763 0.0
H577 H 0.88647 0.95065 0.08166 0.0
H578 H 0.91033 0.95603 0.01783 0.0
H579 H 0.8984 0.00849 0.9163 0.0
H580 H 0.95275 1.00468 0.70651 0.0
H581 H 0.93157 0.99959 0.77702 0.0
H582 H 0.95946 0.97179 0.91718 0.0
C583 C 0.90105 0.96784 0.02676 0.0
C584 C 0.91188 1.00071 0.91793 0.0
C585 C 0.88698 0.96459 0.06315 0.0
C586 C 0.95928 1.00118 0.74263 0.0
C587 C 0.94712 0.99846 0.7835 0.0
C588 C 0.94642 0.98026 0.9168 0.0
C589 C 0.90244 0.98559 1.00089 0.0
C590 C 0.91641 0.98846 0.95874 0.0
C591 C 0.95488 0.99431 0.83162 0.0
C592 C 0.9418 0.99244 0.87588 0.0
H593 H 0.86525 0.0082 0.057 0.0
H594 H 0.89053 0.01434 0.99674 0.0
H595 H 0.93844 0.96915 0.98844 0.0
H596 H 1.00295 0.99317 0.80129 0.0
H597 H 0.98198 0.9893 0.873 0.0
C598 C 0.51404 0.88572 0.07074 0.0
C599 C 0.5231 0.86776 0.07302 0.0
C600 C 0.51921 0.89948 0.03461 0.0
C601 C 0.53657 0.92918 0.96307 0.0
H602 H 0.54075 0.90834 0.83013 0.0
C603 C 0.54438 0.9785 0.78811 0.0
C604 C 0.53225 0.97352 0.74693 0.0
C605 C 0.54677 0.9657 0.82857 0.0
C606 C 0.53963 0.91441 0.867 0.0
H607 H 0.54553 0.85063 0.04092 0.0
H608 H 0.55483 0.87481 0.97824 0.0
H609 H 0.53898 0.88653 0.90195 0.0
H610 H 0.5136 0.95086 0.7156 0.0
H611 H 0.51768 0.92872 0.78594 0.0
H612 H 0.53633 0.95702 0.92778 0.0
C613 C 0.54349 0.87812 1.004 0.0
C614 C 0.53886 0.9019 0.90833 0.0
C615 C 0.53833 0.86435 0.04032 0.0
C616 C 0.52306 0.95522 0.74658 0.0
C617 C 0.5255 0.94243 0.78689 0.0
C618 C 0.53737 0.94169 0.92172 0.0
C619 C 0.5336 0.89563 0.99977 0.0
C620 C 0.53692 0.9091 0.95681 0.0
C621 C 0.53718 0.94759 0.8287 0.0
C622 C 0.53848 0.93444 0.87305 0.0
H623 H 0.50237 0.88884 0.09573 0.0
H624 H 0.51119 0.91273 0.03237 0.0
H625 H 0.53528 0.93522 0.99991 0.0
H626 H 0.55174 0.99245 0.78967 0.0
H627 H 0.55605 0.97005 0.85991 0.0
C628 C 0.67156 0.53773 0.04119 0.0
C629 C 0.66659 0.54835 0.08321 0.0
C630 C 0.65787 0.53421 1.00272 0.0
C631 C 0.60627 0.53018 0.96996 0.0
H632 H 0.62159 0.54751 0.83808 0.0
C633 C 0.55177 0.52875 0.80128 0.0
C634 C 0.55899 0.52535 0.75361 0.0
C635 C 0.56453 0.5316 0.84226 0.0
C636 C 0.61711 0.54222 0.87432 0.0
H637 H 0.6432 0.56301 0.11876 0.0
H638 H 0.61896 0.55627 0.05187 0.0
H639 H 0.64428 0.55114 0.90872 0.0
H640 H 0.58525 0.52186 0.71169 0.0
H641 H 0.60744 0.5259 0.78309 0.0
H642 H 0.5794 0.52054 0.93574 0.0
C643 C 0.63355 0.55087 0.04873 0.0
C644 C 0.63013 0.54445 0.9149 0.0
C645 C 0.64739 0.55473 0.08686 0.0
C646 C 0.57923 0.52469 0.74785 0.0
C647 C 0.59198 0.52714 0.78895 0.0
C648 C 0.59334 0.52757 0.92917 0.0
C649 C 0.63882 0.54096 1.00579 0.0
C650 C 0.62485 0.53846 0.96308 0.0
C651 C 0.58485 0.53074 0.83682 0.0
C652 C 0.59856 0.53357 0.88065 0.0
H653 H 0.68631 0.53287 0.037 0.0
H654 H 0.66226 0.52646 0.97011 0.0
H655 H 0.6019 0.52535 0.00675 0.0
H656 H 0.53623 0.52948 0.80685 0.0
H657 H 0.55838 0.53471 0.87806 0.0
C658 C 0.97966 0.64613 0.05572 0.0
C659 C 0.99368 0.6604 0.06885 0.0
C660 C 0.98362 0.63205 0.02066 0.0
C661 C 0.01802 0.62166 0.91819 0.0
H662 H 0.98955 0.5729 0.91834 0.0
C663 C 0.01773 0.57148 0.74625 0.0
C664 C 0.01518 0.55152 0.7535 0.0
C665 C 0.01607 0.58419 0.7862 0.0
C666 C 0.99795 0.58626 0.91774 0.0
H667 H 0.02346 0.67009 0.05696 0.0
H668 H 0.0308 0.64487 0.99822 0.0
H669 H 0.98638 0.59459 0.98734 0.0
H670 H 1.00945 0.52921 0.80886 0.0
H671 H 1.00758 0.55105 0.87868 0.0
H672 H 0.03045 0.61281 0.84993 0.0
C673 C 0.01636 0.64504 0.01348 0.0
C674 C 0.99582 0.59901 0.95728 0.0
C675 C 0.01226 0.65938 0.04807 0.0
C676 C 0.01125 0.54454 0.80181 0.0
C677 C 1.01004 0.55718 0.84196 0.0
C678 C 0.02049 0.60871 0.87911 0.0
C679 C 1.00193 0.63141 0.99821 0.0
C680 C 1.00553 0.6171 0.95786 0.0
C681 C 0.01224 0.57728 0.83489 0.0
C682 C 1.01028 0.59087 0.87777 0.0
H683 H 0.9653 0.64607 0.07159 0.0
H684 H 0.97193 0.62212 0.01002 0.0
H685 H 0.02565 0.63545 0.91647 0.0
H686 H 0.02064 0.57735 0.70942 0.0
H687 H 0.01747 0.59949 0.77846 0.0
C688 C 0.10445 0.19106 0.22928 0.0
C689 C 0.09673 0.20932 0.23728 0.0
C690 C 0.09867 0.17524 0.25866 0.0
C691 C 0.06913 0.16086 0.36931 0.0
H692 H 0.05111 0.11923 0.28337 0.0
C693 C 1.00356 0.11211 0.41632 0.0
C694 C 1.0057 0.09214 0.41159 0.0
C695 C 0.01768 0.12496 0.39814 0.0
C696 C 0.05628 0.1306 0.30799 0.0
H697 H 0.07824 0.22556 0.28539 0.0
H698 H 0.06832 0.1983 0.33611 0.0
H699 H 0.07299 0.14416 0.25065 0.0
H700 H 0.02424 0.07005 0.38298 0.0
H701 H 0.04854 0.0926 0.34973 0.0
H702 H 0.05147 0.14775 0.42575 0.0
C703 C 0.07893 0.19604 0.3076 0.0
C704 C 0.06896 0.14482 0.28945 0.0
C705 C 0.0847 0.21179 0.27837 0.0
C706 C 0.02191 0.08535 0.38643 0.0
C707 C 0.03595 0.09823 0.3678 0.0
C708 C 0.0563 0.14675 0.38765 0.0
C709 C 0.08508 0.17743 0.29655 0.0
C710 C 0.07507 0.16044 0.31944 0.0
C711 C 0.03415 0.11811 0.37443 0.0
C712 C 0.04934 0.13181 0.3567 0.0
H713 H 0.11403 0.18877 0.19844 0.0
H714 H 0.10403 0.16114 0.24998 0.0
H715 H 0.07384 0.17249 0.39366 0.0
H716 H 0.99112 0.11782 0.43488 0.0
H717 H 0.01576 0.14027 0.40274 0.0
C718 C 0.33868 0.09299 0.17695 0.0
C719 C 0.32307 0.10204 0.19965 0.0
C720 C 0.35354 0.08484 0.20593 0.0
C721 C 0.35789 0.06097 0.3262 0.0
H722 H 0.41201 0.05574 0.29169 0.0
C723 C 0.41236 0.0165 0.44391 0.0
C724 C 0.42679 1.00663 0.41892 0.0
C725 C 0.39953 0.02833 0.41747 0.0
C726 C 0.39686 0.05687 0.30132 0.0
H727 H 0.31232 0.1118 0.27035 0.0
H728 H 0.33827 0.09725 0.32112 0.0
H729 H 0.39209 0.07955 0.24768 0.0
H730 H 0.43845 1.00037 0.34664 0.0
H731 H 0.41559 0.0208 0.29982 0.0
H732 H 0.36244 0.03804 0.37893 0.0
C733 C 0.33868 0.0962 0.28082 0.0
C734 C 0.38554 0.07064 0.2765 0.0
C735 C 0.32385 0.10454 0.25174 0.0
C736 C 0.42736 0.00777 0.36663 0.0
C737 C 0.4145 0.01967 0.34005 0.0
C738 C 0.36917 0.04718 0.35085 0.0
C739 C 0.3531 0.08546 0.25823 0.0
C740 C 0.3659 0.07273 0.28847 0.0
C741 C 0.40085 0.03052 0.36543 0.0
C742 C 0.38874 0.04487 0.33843 0.0
H743 H 0.3386 0.09053 0.13709 0.0
H744 H 0.36442 0.0766 0.18742 0.0
H745 H 0.34267 0.06193 0.33543 0.0
H746 H 0.41163 0.01578 0.48429 0.0
H747 H 0.38927 0.03653 0.4382 0.0
C748 C 0.6277 0.30912 0.2497 0.0
C749 C 0.61545 0.29284 0.25671 0.0
C750 C 0.63027 0.32274 0.28745 0.0
C751 C 0.60116 0.34082 0.38783 0.0
H752 H 0.64533 0.37549 0.41167 0.0
C753 C 0.59274 0.40794 0.50615 0.0
C754 C 0.6006 0.42516 0.48612 0.0
C755 C 0.59804 0.39014 0.48767 0.0
C756 C 0.63287 0.36594 0.40531 0.0
H757 H 0.598 0.2772 0.31114 0.0
H758 H 0.60313 0.30048 0.37714 0.0
H759 H 0.64944 0.34631 0.36296 0.0
H760 H 0.62112 0.43703 0.43288 0.0
H761 H 0.62969 0.40603 0.39914 0.0
H762 H 0.58433 0.36063 0.42784 0.0
C763 C 0.61028 0.30301 0.34194 0.0
C764 C 0.63524 0.34922 0.37756 0.0
C765 C 0.60756 0.28949 0.30415 0.0
C766 C 0.61448 0.42408 0.44851 0.0
C767 C 0.61965 0.40626 0.4297 0.0
C768 C 0.59878 0.35748 0.41528 0.0
C769 C 0.62076 0.32027 0.33308 0.0
C770 C 0.61932 0.33664 0.36788 0.0
C771 C 0.61115 0.3891 0.44829 0.0
C772 C 0.6145 0.37042 0.4237 0.0
H773 H 0.63437 0.31193 0.21401 0.0
H774 H 0.63851 0.33585 0.27943 0.0
H775 H 0.58846 0.33173 0.38013 0.0
H776 H 0.58191 0.40817 0.53485 0.0
H777 H 0.59145 0.37719 0.50343 0.0
C778 C 0.19522 0.45413 0.15487 0.0
C779 C 0.20799 0.4421 0.18178 0.0
C780 C 0.17963 0.46243 0.17824 0.0
C781 C 0.16378 0.47566 0.304 0.0
H782 H 0.11676 0.48937 0.23009 0.0
C783 C 0.11038 0.5288 0.38499 0.0
C784 C 0.09035 0.52503 0.37718 0.0
C785 C 0.12412 0.51865 0.35885 0.0
C786 C 0.12966 0.48549 0.25164 0.0
H787 H 0.21399 0.4286 0.25366 0.0
H788 H 0.18613 0.44249 0.29443 0.0
H789 H 0.14032 0.46912 0.19153 0.0
H790 H 0.06912 0.50853 0.33301 0.0
H791 H 0.09294 0.49014 0.2897 0.0
H792 H 0.15268 0.49123 0.36498 0.0
C793 C 0.18852 0.44597 0.25548 0.0
C794 C 0.14335 0.47405 0.2292 0.0
C795 C 0.20436 0.43786 0.23215 0.0
C796 C 0.08442 0.51153 0.34082 0.0
C797 C 0.09815 0.50113 0.31539 0.0
C798 C 0.14992 0.48681 0.32677 0.0
C799 C 0.17623 0.45874 0.22908 0.0
C800 C 0.16075 0.46924 0.25475 0.0
C801 C 0.11819 0.50425 0.32483 0.0
C802 C 0.1328 0.49213 0.30065 0.0
H803 H 0.19789 0.45803 0.11628 0.0
H804 H 0.17083 0.47247 0.15683 0.0
H805 H 0.17708 0.4725 0.32474 0.0
H806 H 0.11554 0.53898 0.41289 0.0
H807 H 0.13942 0.52185 0.36614 0.0
C808 C 0.93117 0.83126 0.99426 0.0
C809 C 0.93958 0.81306 0.99056 0.0
C810 C 0.93748 0.84659 0.96397 0.0
C811 C 0.96989 0.86001 0.85856 0.0
H812 H 0.98635 0.90171 0.94607 0.0
C813 C 0.03531 0.90993 0.81546 0.0
C814 C 0.0335 0.92968 0.82449 0.0
C815 C 0.02106 0.89675 0.83152 0.0
C816 C 0.98162 0.89037 0.92084 0.0
H817 H 0.95968 0.79626 0.94838 0.0
H818 H 0.97043 0.82273 0.89576 0.0
H819 H 0.96367 0.87706 0.97599 0.0
H820 H 0.01535 0.95112 0.8574 0.0
H821 H 0.99067 0.92811 0.88598 0.0
H822 H 0.98851 0.87302 0.80409 0.0
C823 C 0.95898 0.82527 0.92186 0.0
C824 C 0.96849 0.87629 0.93785 0.0
C825 C 0.95274 0.81 0.95214 0.0
C826 C 0.01741 0.93594 0.85093 0.0
C827 C 1.00318 0.92278 0.86696 0.0
C828 C 0.98306 0.87409 0.84156 0.0
C829 C 0.95223 0.84394 0.92935 0.0
C830 C 0.96289 0.86068 0.90739 0.0
C831 C 1.00472 0.90308 0.85683 0.0
C832 C 0.98943 0.88913 0.87303 0.0
H833 H 0.92069 0.83396 0.0228 0.0
H834 H 0.9317 0.86076 0.96977 0.0
H835 H 0.96567 0.84826 0.83406 0.0
H836 H 0.04759 0.9047 0.79535 0.0
H837 H 0.02284 0.8816 0.8241 0.0
C838 C 0.73734 0.94812 0.91298 0.0
C839 C 0.7272 0.93828 0.95097 0.0
C840 C 0.72725 0.95625 0.87239 0.0
C841 C 0.67805 0.96239 0.81299 0.0
H842 H 0.69369 0.01646 0.81252 0.0
C843 C 0.62975 0.02065 0.72278 0.0
C844 C 0.62575 0.03556 0.7559 0.0
C845 C 0.64499 0.00813 0.73316 0.0
C846 C 0.68925 1.00139 0.81182 0.0
H847 H 0.69892 0.92686 0.97226 0.0
H848 H 0.68123 0.94154 0.90229 0.0
H849 H 0.71489 0.99285 0.85192 0.0
H850 H 0.63517 0.04974 0.82418 0.0
H851 H 0.66187 0.02791 0.84236 0.0
H852 H 0.65179 0.97126 0.77555 0.0
C853 C 0.69696 0.94301 0.90377 0.0
C854 C 0.70149 0.98779 0.83385 0.0
C855 C 0.70708 0.93475 0.94423 0.0
C856 C 0.63791 0.03834 0.79816 0.0
C857 C 0.65326 0.02593 0.80831 0.0
C858 C 0.66582 0.97603 0.79072 0.0
C859 C 0.70683 0.95483 0.86914 0.0
C860 C 0.69574 0.96822 0.83622 0.0
C861 C 0.65662 0.0104 0.77659 0.0
C862 C 0.67102 0.99573 0.79157 0.0
H863 H 0.75283 0.95116 0.91673 0.0
H864 H 0.73529 0.96492 0.84563 0.0
H865 H 0.6733 0.94742 0.81395 0.0
H866 H 0.62045 0.018 0.6902 0.0
H867 H 0.64734 0.99635 0.70799 0.0
C868 C 0.41793 0.73104 0.97211 0.0
C869 C 0.42567 0.72577 0.01938 0.0
C870 C 0.41365 0.71702 0.93609 0.0
C871 C 0.42312 0.68638 0.85997 0.0
H872 H 0.4043 0.63498 0.89451 0.0
C873 C 0.4482 0.61837 0.76381 0.0
C874 C 0.43552 0.60227 0.75964 0.0
C875 C 0.44224 0.63511 0.78683 0.0
C876 C 0.40922 0.64933 0.88373 0.0
H877 H 0.43435 0.70147 0.06606 0.0
H878 H 0.42666 0.67725 1.00397 0.0
H879 H 0.40112 0.66102 0.95367 0.0
H880 H 0.40614 0.59166 0.77308 0.0
H881 H 0.39575 0.62094 0.81355 0.0
H882 H 0.43173 0.67455 0.79058 0.0
C883 C 0.42367 0.69215 0.99478 0.0
C884 C 0.40758 0.66421 0.91789 0.0
C885 C 0.42806 0.70611 0.03055 0.0
C886 C 0.41636 0.60371 0.77648 0.0
C887 C 0.4104 0.62046 0.79961 0.0
C888 C 0.42478 0.67149 0.82579 0.0
C889 C 0.41688 0.69746 0.94676 0.0
C890 C 0.41512 0.68273 0.9071 0.0
C891 C 0.42346 0.63615 0.80628 0.0
C892 C 0.41845 0.65265 0.838 0.0
H893 H 0.41562 0.74602 0.96249 0.0
H894 H 0.40823 0.72153 0.89955 0.0
H895 H 0.42917 0.70047 0.8506 0.0
H896 H 0.46313 0.6177 0.75196 0.0
H897 H 0.45278 0.64679 0.79198 0.0
C898 C 0.80213 0.57261 0.93734 0.0
C899 C 0.80948 0.58708 0.96944 0.0
C900 C 0.81437 0.56357 0.90446 0.0
C901 C 0.8648 0.564 0.85499 0.0
H902 H 0.85816 0.5085 0.86729 0.0
C903 C 0.92757 0.51189 0.83159 0.0
C904 C 0.9239 0.4951 0.80382 0.0
C905 C 0.91236 0.52382 0.84372 0.0
C906 C 0.86005 0.52396 0.86277 0.0
H907 H 0.83493 0.60491 0.9877 0.0
H908 H 0.85645 0.58865 0.93197 0.0
H909 H 0.83336 0.52932 0.89871 0.0
H910 H 0.90141 0.4775 0.76752 0.0
H911 H 0.87465 0.49833 0.78942 0.0
H912 H 0.89202 0.55845 0.82107 0.0
C913 C 0.8412 0.58431 0.9319 0.0
C914 C 0.84578 0.53594 0.88054 0.0
C915 C 0.8289 0.59352 0.96437 0.0
C916 C 0.90463 0.49034 0.78903 0.0
C917 C 0.88936 0.50222 0.80158 0.0
C918 C 0.87915 0.55199 0.83755 0.0
C919 C 0.83428 0.56862 0.90331 0.0
C920 C 0.84815 0.55612 0.87779 0.0
C921 C 0.89313 0.51919 0.82858 0.0
C922 C 0.87708 0.53186 0.84224 0.0
H923 H 0.78729 0.56718 0.94009 0.0
H924 H 0.80844 0.55188 0.88197 0.0
H925 H 0.86695 0.57945 0.85157 0.0
H926 H 0.9423 0.51612 0.84276 0.0
H927 H 0.91566 0.53666 0.8652 0.0
C928 C 0.03899 0.21649 0.82564 0.0
C929 C 0.0302 0.21921 0.87197 0.0
C930 C 0.0362 0.19921 0.79956 0.0
C931 C 0.02275 0.14777 0.82248 0.0
H932 H 0.02301 0.1448 0.67798 0.0
C933 C 0.01259 0.08647 0.65731 0.0
C934 C 0.02302 0.07145 0.6805 0.0
C935 C 0.01263 0.10492 0.67838 0.0
C936 C 0.02273 0.14533 0.71836 0.0
H937 H 1.01079 0.2059 0.92575 0.0
H938 H 1.0054 0.1762 0.87965 0.0
H939 H 0.02305 0.17623 0.7179 0.0
H940 H 0.0422 0.06439 0.74338 0.0
H941 H 0.04259 0.09636 0.7792 0.0
H942 H 0.02209 0.11696 0.82313 0.0
C943 C 0.01487 0.18726 0.86394 0.0
C944 C 0.02298 0.16341 0.74136 0.0
C945 C 0.01772 0.2045 0.8901 0.0
C946 C 0.03385 0.0755 0.72456 0.0
C947 C 0.03395 0.09388 0.74544 0.0
C948 C 0.02247 0.12975 0.79955 0.0
C949 C 0.02446 0.18413 0.8189 0.0
C950 C 0.02313 0.16492 0.79383 0.0
C951 C 0.02313 0.10882 0.72315 0.0
C952 C 0.02268 0.12821 0.74716 0.0
H953 H 0.04849 0.22754 0.81 0.0
H954 H 0.04392 0.19742 0.76519 0.0
H955 H 0.02312 0.14821 0.86291 0.0
H956 H 1.00403 0.08391 0.62343 0.0
H957 H 1.004 0.11597 0.66022 0.0
C958 C 0.32924 0.05488 0.88253 0.0
C959 C 0.31385 0.04135 0.87682 0.0
C960 C 0.34711 0.05219 0.85999 0.0
C961 C 0.37703 0.01524 0.79775 0.0
H962 H 0.40665 0.06066 0.75637 0.0
C963 C 0.44716 0.01291 0.67903 0.0
C964 C 0.46326 0.02391 0.69703 0.0
C965 C 0.42878 0.01456 0.70012 0.0
C966 C 0.39861 0.04784 0.76798 0.0
H967 H 0.30527 0.01419 0.84329 0.0
H968 H 0.33629 0.00973 0.80195 0.0
H969 H 0.37482 0.06425 0.79264 0.0
H970 H 0.47247 0.04546 0.75108 0.0
H971 H 0.44027 0.04869 0.78691 0.0
H972 H 0.40082 0.99891 0.77116 0.0
C973 C 0.33473 0.02231 0.82487 0.0
C974 C 0.38033 0.04985 0.78916 0.0
C975 C 0.31686 0.02488 0.8483 0.0
C976 C 0.46043 0.03676 0.7363 0.0
C977 C 0.44196 0.03866 0.75673 0.0
C978 C 0.39522 0.01323 0.77569 0.0
C979 C 0.35015 0.03601 0.83018 0.0
C980 C 0.36931 0.03362 0.80513 0.0
C981 C 0.42594 0.02751 0.73908 0.0
C982 C 0.40632 0.02952 0.76109 0.0
H983 H 0.32755 0.06753 0.90523 0.0
H984 H 0.35864 0.0628 0.86663 0.0
H985 H 0.36927 1.00236 0.80998 0.0
H986 H 0.4488 1.00281 0.64897 0.0
H987 H 0.41671 1.00587 0.68547 0.0
C988 C 0.53421 0.31653 0.84444 0.0
C989 C 0.52254 0.31146 0.88525 0.0
C990 C 0.53035 0.33294 0.81543 0.0
C991 C 0.50643 0.37993 0.82463 0.0
H992 H 0.51943 0.38435 0.68471 0.0
C993 C 0.49833 0.45126 0.71214 0.0
C994 C 0.51449 0.45689 0.68365 0.0
C995 C 0.49695 0.43271 0.73305 0.0
C996 C 0.51579 0.38335 0.72382 0.0
H997 H 0.49691 0.31918 0.9256 0.0
H998 H 0.48976 0.3475 0.87396 0.0
H999 H 0.5203 0.35295 0.72658 0.0
H1000 H 0.54161 0.44713 0.65369 0.0
H1001 H 0.53914 0.41482 0.68994 0.0
H1002 H 0.50204 0.41038 0.82181 0.0
C1003 C 0.50224 0.33902 0.86517 0.0
C1004 C 0.51632 0.36535 0.74791 0.0
C1005 C 0.50617 0.3226 0.89439 0.0
C1006 C 0.52898 0.44334 0.67553 0.0
C1007 C 0.52751 0.42475 0.69604 0.0
C1008 C 0.50576 0.3979 0.80042 0.0
C1009 C 0.5146 0.34471 0.82613 0.0
C1010 C 0.512 0.36344 0.79892 0.0
C1011 C 0.5116 0.41927 0.72553 0.0
C1012 C 0.51076 0.39988 0.74997 0.0
H1013 H 0.54677 0.30812 0.83583 0.0
H1014 H 0.5403 0.33684 0.78603 0.0
H1015 H 0.50332 0.37916 0.86407 0.0
H1016 H 0.48689 0.4613 0.71916 0.0
H1017 H 0.48443 0.42887 0.75522 0.0
C1018 C 0.21703 0.46098 0.84562 0.0
C1019 C 0.23272 0.47417 0.84023 0.0
C1020 C 0.19886 0.46458 0.82341 0.0
C1021 C 0.17305 0.49093 0.72393 0.0
H1022 H 0.12895 0.48502 0.81103 0.0
C1023 C 0.09409 0.51028 0.65996 0.0
C1024 C 0.07862 0.49914 0.67946 0.0
C1025 C 0.11327 0.50767 0.67749 0.0
C1026 C 0.14099 0.48645 0.78578 0.0
H1027 H 0.24163 0.50132 0.80614 0.0
H1028 H 0.20969 0.50749 0.76632 0.0
H1029 H 0.16167 0.47963 0.84412 0.0
H1030 H 0.07136 0.47597 0.73125 0.0
H1031 H 0.10465 0.47094 0.76036 0.0
H1032 H 0.15233 0.49723 0.66515 0.0
C1033 C 0.21162 0.49437 0.78802 0.0
C1034 C 0.1598 0.48347 0.80496 0.0
C1035 C 0.22985 0.49088 0.81093 0.0
C1036 C 0.08286 0.48497 0.7158 0.0
C1037 C 0.10202 0.4822 0.73282 0.0
C1038 C 0.15414 0.49368 0.70446 0.0
C1039 C 0.19585 0.4814 0.79486 0.0
C1040 C 0.17603 0.48551 0.77424 0.0
C1041 C 0.1175 0.49371 0.71459 0.0
C1042 C 0.1378 0.4913 0.73506 0.0
H1043 H 0.21857 0.44813 0.8686 0.0
H1044 H 0.18704 0.45424 0.82903 0.0
H1045 H 0.18529 0.49251 0.69933 0.0
H1046 H 0.09133 0.52139 0.63207 0.0
H1047 H 0.12469 0.51697 0.66282 0.0
C1048 C 0.97991 0.8144 0.42053 0.0
C1049 C 0.99293 0.80918 0.38329 0.0
C1050 C 0.98271 0.83153 0.4471 0.0
C1051 C 0.01826 0.86848 0.48786 0.0
H1052 H 0.97466 0.90303 0.48203 0.0
C1053 C 0.02622 0.94703 0.55821 0.0
C1054 C 1.00987 0.95628 0.57646 0.0
C1055 C 0.02443 0.92874 0.53685 0.0
C1056 C 0.98691 0.89352 0.48519 0.0
H1057 H 0.01983 0.8178 0.34738 0.0
H1058 H 0.0251 0.84723 0.39552 0.0
H1059 H 0.97156 0.87154 0.44348 0.0
H1060 H 0.97885 0.95319 0.58787 0.0
H1061 H 0.9758 0.92095 0.55315 0.0
H1062 H 0.03348 0.88999 0.531 0.0
C1063 C 0.01253 0.83807 0.40329 0.0
C1064 C 0.98513 0.87544 0.46262 0.0
C1065 C 1.00955 0.82108 0.37593 0.0
C1066 C 0.99172 0.94656 0.57376 0.0
C1067 C 0.98998 0.92806 0.55334 0.0
C1068 C 0.01993 0.88642 0.51142 0.0
C1069 C 0.99884 0.84375 0.43816 0.0
C1070 C 1.0008 0.86276 0.4634 0.0
C1071 C 1.00628 0.91887 0.53397 0.0
C1072 C 1.00433 0.89935 0.51019 0.0
H1073 H 0.96723 0.80546 0.42855 0.0
H1074 H 0.97209 0.83534 0.47438 0.0
H1075 H 0.03054 0.85895 0.48944 0.0
H1076 H 0.04042 0.95415 0.55925 0.0
H1077 H 0.03732 0.92258 0.52162 0.0
C1078 C 0.71345 0.97824 0.39738 0.0
C1079 C 0.71667 0.99141 0.35785 0.0
C1080 C 0.69741 0.98004 0.42847 0.0
C1081 C 0.65869 0.01425 0.4643 0.0
H1082 H 0.63089 0.96748 0.50332 0.0
C1083 C 0.59042 0.01713 0.58622 0.0
C1084 C 0.57483 1.00424 0.57546 0.0
C1085 C 0.60857 0.01505 0.56431 0.0
C1086 C 0.63835 0.98072 0.49249 0.0
H1087 H 0.70594 0.01744 0.32215 0.0
H1088 H 0.67794 0.02029 0.37504 0.0
H1089 H 0.66082 0.9654 0.4569 0.0
H1090 H 0.56632 0.9788 0.53355 0.0
H1091 H 0.59773 0.97544 0.49413 0.0
H1092 H 0.63583 0.02961 0.4978 0.0
C1093 C 0.68782 0.00861 0.38256 0.0
C1094 C 0.65576 0.97952 0.4664 0.0
C1095 C 0.70384 1.00685 0.35169 0.0
C1096 C 0.578 0.98895 0.54288 0.0
C1097 C 0.59612 0.98699 0.52043 0.0
C1098 C 0.64124 0.01545 0.49008 0.0
C1099 C 0.68412 0.99506 0.42095 0.0
C1100 C 0.66614 0.99628 0.45149 0.0
C1101 C 0.61164 1.00014 0.53036 0.0
C1102 C 0.6307 0.99872 0.50435 0.0
H1103 H 0.72288 0.96608 0.40316 0.0
H1104 H 0.69532 0.96949 0.45809 0.0
H1105 H 0.66631 0.0275 0.45425 0.0
H1106 H 0.5886 0.02894 0.61155 0.0
H1107 H 0.62018 0.02521 0.57407 0.0
C1108 C 0.52387 0.71702 0.41007 0.0
C1109 C 0.50775 0.71808 0.37677 0.0
C1110 C 0.52773 0.69985 0.43646 0.0
C1111 C 0.5185 0.64745 0.42904 0.0
H1112 H 0.52965 0.64622 0.57173 0.0
C1113 C 0.53642 0.5765 0.53114 0.0
C1114 C 0.52657 0.57266 0.57578 0.0
C1115 C 0.53634 0.59488 0.50928 0.0
C1116 C 0.52654 0.64635 0.53187 0.0
H1117 H 0.48337 0.70177 0.34433 0.0
H1118 H 0.48999 0.67217 0.39019 0.0
H1119 H 0.52522 0.67723 0.52851 0.0
H1120 H 0.50944 0.58548 0.63327 0.0
H1121 H 0.50922 0.61757 0.5948 0.0
H1122 H 0.51935 0.61671 0.43214 0.0
C1123 C 0.49964 0.68452 0.39614 0.0
C1124 C 0.52419 0.6641 0.50709 0.0
C1125 C 0.49572 0.7016 0.37027 0.0
C1126 C 0.51717 0.58789 0.59887 0.0
C1127 C 0.51713 0.60633 0.57697 0.0
C1128 C 0.52097 0.62979 0.45362 0.0
C1129 C 0.51573 0.68336 0.42933 0.0
C1130 C 0.51985 0.66481 0.4555 0.0
C1131 C 0.52642 0.60995 0.53141 0.0
C1132 C 0.52483 0.62897 0.50542 0.0
H1133 H 0.5334 0.72947 0.41588 0.0
H1134 H 0.54029 0.69935 0.46166 0.0
H1135 H 0.51536 0.64751 0.38918 0.0
H1136 H 0.54395 0.56521 0.51241 0.0
H1137 H 0.5439 0.59724 0.47461 0.0
C1138 C 0.82901 0.57442 0.42072 0.0
C1139 C 0.81737 0.56022 0.39673 0.0
C1140 C 0.84499 0.56936 0.45107 0.0
C1141 C 0.87914 0.52913 0.47103 0.0
H1142 H 0.8984 0.56064 0.58096 0.0
C1143 C 0.9482 0.50998 0.58732 0.0
C1144 C 0.96202 0.52506 0.59402 0.0
C1145 C 0.92944 0.5137 0.56865 0.0
C1146 C 0.89322 0.55174 0.55023 0.0
H1147 H 0.81286 0.52939 0.38861 0.0
H1148 H 0.84019 0.52052 0.44325 0.0
H1149 H 0.86698 0.5676 0.54091 0.0
H1150 H 0.96661 0.556 0.58798 0.0
H1151 H 0.93375 0.5625 0.55581 0.0
H1152 H 0.90538 0.51324 0.48068 0.0
C1153 C 0.83734 0.53566 0.4373 0.0
C1154 C 0.87521 0.55574 0.52711 0.0
C1155 C 0.82142 0.54074 0.40652 0.0
C1156 C 0.95638 0.54404 0.58312 0.0
C1157 C 0.93752 0.54778 0.56493 0.0
C1158 C 0.89701 0.52501 0.49452 0.0
C1159 C 0.84969 0.54991 0.45888 0.0
C1160 C 0.86803 0.54467 0.48665 0.0
C1161 C 0.92393 0.53262 0.55676 0.0
C1162 C 0.90438 0.53641 0.53395 0.0
H1163 H 0.82614 0.58957 0.41487 0.0
H1164 H 0.85413 0.58081 0.4666 0.0
H1165 H 0.87439 0.52048 0.43946 0.0
H1166 H 0.95196 0.49519 0.59556 0.0
H1167 H 0.91924 0.50174 0.56332 0.0
loop_
_geom_bond_atom_site_label_1
_geom_bond_atom_site_label_2
_geom_bond_distance
_geom_bond_site_symmetry_2
_ccdc_geom_bond_type
C0 C1 1.384 . S
C0 H13 0.947 . S
C0 C35 1.382 . S
C1 C0 1.384 . S
C1 C2 1.378 . S
C2 C1 1.378 . S
C2 C3 1.378 . S
C2 H14 0.952 . S
C3 C2 1.378 . S
C3 H15 0.950 . S
C3 C34 1.383 . S
H4 C23 0.947 . S
H5 C24 0.946 . S
H6 C26 0.953 . S
H7 C27 0.945 . S
H8 C29 0.952 . S
H9 C30 0.949 . S
H10 C32 0.950 . S
H11 C33 0.948 . S
H12 C35 0.951 . S
H13 C0 0.947 . S
H14 C2 0.952 . S
H15 C3 0.950 . S
N16 C19 1.382 . S
N16 C21 1.363 . S
N17 C19 1.371 . S
N17 C20 1.372 . S
N18 C20 1.361 . S
N18 C21 1.377 . S
C19 N16 1.382 . S
C19 N17 1.371 . S
C19 C22 1.480 . S
C20 N17 1.372 . S
C20 N18 1.361 . S
C20 C28 1.457 . S
C21 N16 1.363 . S
C21 N18 1.377 . S
C21 C34 1.479 . S
C22 C19 1.480 . S
C22 C23 1.383 . S
C22 C27 1.385 . S
C23 H4 0.947 . S
C23 C22 1.383 . S
C23 C24 1.388 . S
C24 H5 0.946 . S
C24 C23 1.388 . S
C24 C25 1.384 . S
C25 C24 1.384 . S
C25 C26 1.377 . S
C26 H6 0.953 . S
C26 C25 1.377 . S
C26 C27 1.369 . S
C27 H7 0.945 . S
C27 C22 1.385 . S
C27 C26 1.369 . S
C28 C20 1.457 . S
C28 C29 1.372 . S
C28 C33 1.364 . S
C29 H8 0.952 . S
C29 C28 1.372 . S
C29 C30 1.389 1_554 S
C30 H9 0.949 . S
C30 C29 1.389 1_556 S
C30 C31 1.387 1_556 S
C31 C30 1.387 1_554 S
C31 C32 1.372 . S
C32 H10 0.950 . S
C32 C31 1.372 . S
C32 C33 1.379 . S
C33 H11 0.948 . S
C33 C28 1.364 . S
C33 C32 1.379 . S
C34 C3 1.383 . S
C34 C21 1.479 . S
C34 C35 1.398 . S
C35 C0 1.382 . S
C35 H12 0.951 . S
C35 C34 1.398 . S
C36 C37 1.384 . S
C36 H49 0.947 . S
C36 C71 1.382 . S
C37 C36 1.384 . S
C37 C38 1.378 . S
C38 C37 1.378 . S
C38 C39 1.378 . S
C38 H50 0.952 . S
C39 C38 1.378 . S
C39 H51 0.950 . S
C39 C70 1.383 . S
H40 C59 0.947 . S
H41 C60 0.946 . S
H42 C62 0.953 . S
H43 C63 0.945 . S
H44 C65 0.952 . S
H45 C66 0.949 . S
H46 C68 0.950 . S
H47 C69 0.948 . S
H48 C71 0.951 . S
H49 C36 0.947 . S
H50 C38 0.952 . S
H51 C39 0.950 . S
N52 C55 1.382 . S
N52 C57 1.363 . S
N53 C55 1.371 . S
N53 C56 1.372 . S
N54 C56 1.361 . S
N54 C57 1.377 . S
C55 N52 1.382 . S
C55 N53 1.371 . S
C55 C58 1.480 . S
C56 N53 1.372 . S
C56 N54 1.361 . S
C56 C64 1.457 . S
C57 N52 1.363 . S
C57 N54 1.377 . S
C57 C70 1.479 . S
C58 C55 1.480 . S
C58 C59 1.383 . S
C58 C63 1.385 . S
C59 H40 0.947 . S
C59 C58 1.383 . S
C59 C60 1.388 . S
C60 H41 0.946 . S
C60 C59 1.388 . S
C60 C61 1.384 . S
C61 C60 1.384 . S
C61 C62 1.377 . S
C62 H42 0.953 . S
C62 C61 1.377 . S
C62 C63 1.369 . S
C63 H43 0.945 . S
C63 C58 1.385 . S
C63 C62 1.369 . S
C64 C56 1.457 . S
C64 C65 1.372 . S
C64 C69 1.364 . S
C65 H44 0.952 . S
C65 C64 1.372 . S
C65 C66 1.389 . S
C66 H45 0.949 . S
C66 C65 1.389 . S
C66 C67 1.387 . S
C67 C66 1.387 . S
C67 C68 1.372 . S
C68 H46 0.950 . S
C68 C67 1.372 . S
C68 C69 1.379 . S
C69 H47 0.948 . S
C69 C64 1.364 . S
C69 C68 1.379 . S
C70 C39 1.383 . S
C70 C57 1.479 . S
C70 C71 1.398 . S
C71 C36 1.382 . S
C71 H48 0.951 . S
C71 C70 1.398 . S
C72 C73 1.384 . S
C72 H85 0.947 . S
C72 C107 1.382 . S
C73 C72 1.384 . S
C73 C74 1.378 . S
C74 C73 1.378 . S
C74 C75 1.378 . S
C74 H86 0.952 . S
C75 C74 1.378 . S
C75 H87 0.950 . S
C75 C106 1.383 . S
H76 C95 0.947 . S
H77 C96 0.946 . S
H78 C98 0.953 . S
H79 C99 0.945 . S
H80 C101 0.952 . S
H81 C102 0.949 . S
H82 C104 0.950 . S
H83 C105 0.948 . S
H84 C107 0.951 . S
H85 C72 0.947 . S
H86 C74 0.952 . S
H87 C75 0.950 . S
N88 C91 1.382 . S
N88 C93 1.363 . S
N89 C91 1.371 . S
N89 C92 1.372 . S
N90 C92 1.361 . S
N90 C93 1.377 . S
C91 N88 1.382 . S
C91 N89 1.371 . S
C91 C94 1.480 . S
C92 N89 1.372 . S
C92 N90 1.361 . S
C92 C100 1.457 . S
C93 N88 1.363 . S
C93 N90 1.377 . S
C93 C106 1.479 . S
C94 C91 1.480 . S
C94 C95 1.383 . S
C94 C99 1.385 . S
C95 H76 0.947 . S
C95 C94 1.383 . S
C95 C96 1.388 . S
C96 H77 0.946 . S
C96 C95 1.388 . S
C96 C97 1.384 . S
C97 C96 1.384 . S
C97 C98 1.377 . S
C98 H78 0.953 . S
C98 C97 1.377 . S
C98 C99 1.369 . S
C99 H79 0.945 . S
C99 C94 1.385 . S
C99 C98 1.369 . S
C100 C92 1.457 . S
C100 C101 1.372 . S
C100 C105 1.364 . S
C101 H80 0.952 . S
C101 C100 1.372 . S
C101 C102 1.389 . S
C102 H81 0.949 . S
C102 C101 1.389 . S
C102 C103 1.387 . S
C103 C102 1.387 . S
C103 C104 1.372 . S
C104 H82 0.950 . S
C104 C103 1.372 . S
C104 C105 1.379 . S
C105 H83 0.948 . S
C105 C100 1.364 . S
C105 C104 1.379 . S
C106 C75 1.383 . S
C106 C93 1.479 . S
C106 C107 1.398 . S
C107 C72 1.382 . S
C107 H84 0.951 . S
C107 C106 1.398 . S
C108 C109 1.384 . S
C108 H121 0.947 . S
C108 C143 1.382 . S
C109 C108 1.384 . S
C109 C110 1.378 . S
C110 C109 1.378 . S
C110 C111 1.378 . S
C110 H122 0.952 1_554 S
C111 C110 1.378 . S
C111 H123 0.950 . S
C111 C142 1.383 . S
H112 C131 0.947 . S
H113 C132 0.946 . S
H114 C134 0.953 . S
H115 C135 0.945 . S
H116 C137 0.952 . S
H117 C138 0.949 . S
H118 C140 0.950 . S
H119 C141 0.948 . S
H120 C143 0.951 . S
H121 C108 0.947 . S
H122 C110 0.952 1_556 S
H123 C111 0.950 . S
N124 C127 1.382 . S
N124 C129 1.363 . S
N125 C127 1.371 . S
N125 C128 1.372 . S
N126 C128 1.361 . S
N126 C129 1.377 . S
C127 N124 1.382 . S
C127 N125 1.371 . S
C127 C130 1.480 . S
C128 N125 1.372 . S
C128 N126 1.361 . S
C128 C136 1.457 . S
C129 N124 1.363 . S
C129 N126 1.377 . S
C129 C142 1.479 . S
C130 C127 1.480 . S
C130 C131 1.383 . S
C130 C135 1.385 . S
C131 H112 0.947 . S
C131 C130 1.383 . S
C131 C132 1.388 . S
C132 H113 0.946 . S
C132 C131 1.388 . S
C132 C133 1.384 . S
C133 C132 1.384 . S
C133 C134 1.377 . S
C134 H114 0.953 . S
C134 C133 1.377 . S
C134 C135 1.369 . S
C135 H115 0.945 . S
C135 C130 1.385 . S
C135 C134 1.369 . S
C136 C128 1.457 . S
C136 C137 1.372 . S
C136 C141 1.364 . S
C137 H116 0.952 . S
C137 C136 1.372 . S
C137 C138 1.389 . S
C138 H117 0.949 . S
C138 C137 1.389 . S
C138 C139 1.387 . S
C139 C138 1.387 . S
C139 C140 1.372 . S
C140 H118 0.950 . S
C140 C139 1.372 . S
C140 C141 1.379 . S
C141 H119 0.948 . S
C141 C136 1.364 . S
C141 C140 1.379 . S
C142 C111 1.383 . S
C142 C129 1.479 . S
C142 C143 1.398 . S
C143 C108 1.382 . S
C143 H120 0.951 . S
C143 C142 1.398 . S
C144 C145 1.384 . S
C144 H157 0.947 . S
C144 C179 1.382 . S
C145 C144 1.384 . S
C145 C146 1.378 . S
C146 C145 1.378 . S
C146 C147 1.378 . S
C146 H158 0.952 . S
C147 C146 1.378 . S
C147 H159 0.950 . S
C147 C178 1.383 . S
H148 C167 0.947 . S
H149 C168 0.946 . S
H150 C170 0.953 . S
H151 C171 0.945 . S
H152 C173 0.952 . S
H153 C174 0.949 . S
H154 C176 0.950 . S
H155 C177 0.948 . S
H156 C179 0.951 . S
H157 C144 0.947 . S
H158 C146 0.952 . S
H159 C147 0.950 . S
N160 C163 1.382 . S
N160 C165 1.363 . S
N161 C163 1.371 . S
N161 C164 1.372 . S
N162 C164 1.361 . S
N162 C165 1.377 . S
C163 N160 1.382 . S
C163 N161 1.371 . S
C163 C166 1.480 . S
C164 N161 1.372 . S
C164 N162 1.361 . S
C164 C172 1.457 . S
C165 N160 1.363 . S
C165 N162 1.377 . S
C165 C178 1.479 1_554 S
C166 C163 1.480 . S
C166 C167 1.383 . S
C166 C171 1.385 . S
C167 H148 0.947 . S
C167 C166 1.383 . S
C167 C168 1.388 . S
C168 H149 0.946 . S
C168 C167 1.388 . S
C168 C169 1.384 . S
C169 C168 1.384 . S
C169 C170 1.377 . S
C170 H150 0.953 . S
C170 C169 1.377 . S
C170 C171 1.369 . S
C171 H151 0.945 . S
C171 C166 1.385 . S
C171 C170 1.369 . S
C172 C164 1.457 . S
C172 C173 1.372 . S
C172 C177 1.364 . S
C173 H152 0.952 . S
C173 C172 1.372 . S
C173 C174 1.389 . S
C174 H153 0.949 . S
C174 C173 1.389 . S
C174 C175 1.387 . S
C175 C174 1.387 . S
C175 C176 1.372 . S
C176 H154 0.950 . S
C176 C175 1.372 . S
C176 C177 1.379 . S
C177 H155 0.948 . S
C177 C172 1.364 . S
C177 C176 1.379 . S
C178 C147 1.383 . S
C178 C165 1.479 1_556 S
C178 C179 1.398 . S
C179 C144 1.382 . S
C179 H156 0.951 . S
C179 C178 1.398 . S
C180 C181 1.384 . S
C180 H193 0.947 . S
C180 C215 1.382 . S
C181 C180 1.384 . S
C181 C182 1.378 . S
C182 C181 1.378 . S
C182 C183 1.378 . S
C182 H194 0.952 . S
C183 C182 1.378 . S
C183 H195 0.950 . S
C183 C214 1.383 . S
H184 C203 0.947 1_556 S
H185 C204 0.946 . S
H186 C206 0.953 . S
H187 C207 0.945 . S
H188 C209 0.952 . S
H189 C210 0.949 . S
H190 C212 0.950 . S
H191 C213 0.948 . S
H192 C215 0.951 . S
H193 C180 0.947 . S
H194 C182 0.952 . S
H195 C183 0.950 . S
N196 C199 1.382 1_556 S
N196 C201 1.363 . S
N197 C199 1.371 . S
N197 C200 1.372 . S
N198 C200 1.361 . S
N198 C201 1.377 1_554 S
C199 N196 1.382 1_554 S
C199 N197 1.371 . S
C199 C202 1.480 . S
C200 N197 1.372 . S
C200 N198 1.361 . S
C200 C208 1.457 . S
C201 N196 1.363 . S
C201 N198 1.377 1_556 S
C201 C214 1.479 . S
C202 C199 1.480 . S
C202 C203 1.383 . S
C202 C207 1.385 . S
C203 H184 0.947 1_554 S
C203 C202 1.383 . S
C203 C204 1.388 . S
C204 H185 0.946 . S
C204 C203 1.388 . S
C204 C205 1.384 . S
C205 C204 1.384 . S
C205 C206 1.377 . S
C206 H186 0.953 . S
C206 C205 1.377 . S
C206 C207 1.369 . S
C207 H187 0.945 . S
C207 C202 1.385 . S
C207 C206 1.369 . S
C208 C200 1.457 . S
C208 C209 1.372 . S
C208 C213 1.364 . S
C209 H188 0.952 . S
C209 C208 1.372 . S
C209 C210 1.389 . S
C210 H189 0.949 . S
C210 C209 1.389 . S
C210 C211 1.387 . S
C211 C210 1.387 . S
C211 C212 1.372 . S
C212 H190 0.950 . S
C212 C211 1.372 . S
C212 C213 1.379 . S
C213 H191 0.948 . S
C213 C208 1.364 . S
C213 C212 1.379 . S
C214 C183 1.383 . S
C214 C201 1.479 . S
C214 C215 1.398 . S
C215 C180 1.382 . S
C215 H192 0.951 . S
C215 C214 1.398 . S
C216 C217 1.384 . S
C216 H229 0.947 . S
C216 C251 1.382 . S
C217 C216 1.384 . S
C217 C218 1.378 . S
C218 C217 1.378 . S
C218 C219 1.378 . S
C218 H230 0.952 . S
C219 C218 1.378 . S
C219 H231 0.950 . S
C219 C250 1.383 . S
H220 C239 0.947 . S
H221 C240 0.946 1_556 S
H222 C242 0.953 . S
H223 C243 0.945 . S
H224 C245 0.952 . S
H225 C246 0.949 . S
H226 C248 0.950 . S
H227 C249 0.948 . S
H228 C251 0.951 . S
H229 C216 0.947 . S
H230 C218 0.952 . S
H231 C219 0.950 . S
N232 C235 1.382 1_556 S
N232 C237 1.363 . S
N233 C235 1.371 . S
N233 C236 1.372 . S
N234 C236 1.361 1_556 S
N234 C237 1.377 . S
C235 N232 1.382 1_554 S
C235 N233 1.371 . S
C235 C238 1.480 . S
C236 N233 1.372 . S
C236 N234 1.361 1_554 S
C236 C244 1.457 . S
C237 N232 1.363 . S
C237 N234 1.377 . S
C237 C250 1.479 . S
C238 C235 1.480 . S
C238 C239 1.383 1_554 S
C238 C243 1.385 . S
C239 H220 0.947 . S
C239 C238 1.383 1_556 S
C239 C240 1.388 1_556 S
C240 H221 0.946 1_554 S
C240 C239 1.388 1_554 S
C240 C241 1.384 . S
C241 C240 1.384 . S
C241 C242 1.377 . S
C242 H222 0.953 . S
C242 C241 1.377 . S
C242 C243 1.369 . S
C243 H223 0.945 . S
C243 C238 1.385 . S
C243 C242 1.369 . S
C244 C236 1.457 . S
C244 C245 1.372 . S
C244 C249 1.364 . S
C245 H224 0.952 . S
C245 C244 1.372 . S
C245 C246 1.389 . S
C246 H225 0.949 . S
C246 C245 1.389 . S
C246 C247 1.387 . S
C247 C246 1.387 . S
C247 C248 1.372 . S
C248 H226 0.950 . S
C248 C247 1.372 . S
C248 C249 1.379 . S
C249 H227 0.948 . S
C249 C244 1.364 . S
C249 C248 1.379 . S
C250 C219 1.383 . S
C250 C237 1.479 . S
C250 C251 1.398 . S
C251 C216 1.382 . S
C251 H228 0.951 . S
C251 C250 1.398 . S
C252 C253 1.384 . S
C252 H265 0.947 . S
C252 C287 1.382 . S
C253 C252 1.384 . S
C253 C254 1.378 . S
C254 C253 1.378 . S
C254 C255 1.378 . S
C254 H266 0.952 . S
C255 C254 1.378 . S
C255 H267 0.950 . S
C255 C286 1.383 . S
H256 C275 0.947 . S
H257 C276 0.946 . S
H258 C278 0.953 . S
H259 C279 0.945 . S
H260 C281 0.952 . S
H261 C282 0.949 . S
H262 C284 0.950 . S
H263 C285 0.948 . S
H264 C287 0.951 . S
H265 C252 0.947 . S
H266 C254 0.952 . S
H267 C255 0.950 . S
N268 C271 1.382 . S
N268 C273 1.363 . S
N269 C271 1.371 . S
N269 C272 1.372 . S
N270 C272 1.361 . S
N270 C273 1.377 . S
C271 N268 1.382 . S
C271 N269 1.371 . S
C271 C274 1.480 . S
C272 N269 1.372 . S
C272 N270 1.361 . S
C272 C280 1.457 1_554 S
C273 N268 1.363 . S
C273 N270 1.377 . S
C273 C286 1.479 . S
C274 C271 1.480 . S
C274 C275 1.383 . S
C274 C279 1.385 . S
C275 H256 0.947 . S
C275 C274 1.383 . S
C275 C276 1.388 . S
C276 H257 0.946 . S
C276 C275 1.388 . S
C276 C277 1.384 . S
C277 C276 1.384 . S
C277 C278 1.377 . S
C278 H258 0.953 . S
C278 C277 1.377 . S
C278 C279 1.369 . S
C279 H259 0.945 . S
C279 C274 1.385 . S
C279 C278 1.369 . S
C280 C272 1.457 1_556 S
C280 C281 1.372 . S
C280 C285 1.364 . S
C281 H260 0.952 . S
C281 C280 1.372 . S
C281 C282 1.389 . S
C282 H261 0.949 . S
C282 C281 1.389 . S
C282 C283 1.387 . S
C283 C282 1.387 . S
C283 C284 1.372 . S
C284 H262 0.950 . S
C284 C283 1.372 . S
C284 C285 1.379 . S
C285 H263 0.948 . S
C285 C280 1.364 . S
C285 C284 1.379 . S
C286 C255 1.383 . S
C286 C273 1.479 . S
C286 C287 1.398 . S
C287 C252 1.382 . S
C287 H264 0.951 . S
C287 C286 1.398 . S
Eu288 C297 2.828 . S
Eu288 O299 2.392 . S
Eu288 O301 2.418 1_545 S
Eu288 O306 2.373 1_655 S
Eu288 O309 2.488 . S
Eu288 O310 2.471 . S
Eu288 O311 2.349 1_655 S
Eu289 O298 2.373 1_455 S
Eu289 O302 2.488 . S
Eu289 O303 2.471 . S
Eu289 O304 2.349 . S
Eu289 O307 2.392 1_565 S
Eu289 O308 2.418 1_565 S
Eu289 C318 2.828 . S
C290 O308 1.244 . S
C290 O311 1.265 . S
C291 C292 1.379 1_655 S
C291 C295 1.373 . S
C291 C297 1.505 . S
C292 C291 1.379 1_455 S
C292 C294 1.369 . S
C292 H320 0.930 . S
C293 C295 1.383 . S
C293 C296 1.382 1_655 S
C293 H321 0.930 . S
C294 C292 1.369 . S
C294 C296 1.392 . S
C294 H322 0.930 . S
C295 C291 1.373 . S
C295 C293 1.383 . S
C295 H323 0.931 . S
C296 C293 1.382 1_455 S
C296 C294 1.392 . S
C297 Eu288 2.828 . S
C297 C291 1.505 . S
C297 O309 1.249 . S
C297 O310 1.244 . S
O298 Eu289 2.373 1_655 S
O298 C300 1.258 . S
O299 Eu288 2.392 . S
O299 C300 1.242 1_545 S
C300 O298 1.258 . S
C300 O299 1.242 1_565 S
O301 Eu288 2.418 1_565 S
O301 C305 1.244 . S
O302 Eu289 2.488 . S
O302 C318 1.249 . S
O303 Eu289 2.471 . S
O303 C318 1.244 . S
O304 Eu289 2.349 . S
O304 C305 1.265 1_455 S
C305 O301 1.244 . S
C305 O304 1.265 1_655 S
O306 Eu288 2.373 1_455 S
O306 C319 1.258 . S
O307 Eu289 2.392 1_545 S
O307 C319 1.242 . S
O308 Eu289 2.418 1_545 S
O308 C290 1.244 . S
O309 Eu288 2.488 . S
O309 C297 1.249 . S
O310 Eu288 2.471 . S
O310 C297 1.244 . S
O311 Eu288 2.349 1_455 S
O311 C290 1.265 . S
C312 C313 1.379 . S
C312 C316 1.373 . S
C312 C318 1.505 . S
C313 C312 1.379 . S
C313 C315 1.369 . S
C313 H324 0.930 1_455 S
C314 C316 1.383 . S
C314 C317 1.382 . S
C314 H325 0.930 . S
C315 C313 1.369 . S
C315 C317 1.392 . S
C315 H326 0.930 1_455 S
C316 C312 1.373 . S
C316 C314 1.383 . S
C316 H327 0.931 . S
C317 C314 1.382 . S
C317 C315 1.392 . S
C318 Eu289 2.828 . S
C318 O302 1.249 . S
C318 O303 1.244 . S
C318 C312 1.505 . S
C319 O306 1.258 . S
C319 O307 1.242 . S
H320 C292 0.930 . S
H321 C293 0.930 . S
H322 C294 0.930 . S
H323 C295 0.931 . S
H324 C313 0.930 1_655 S
H325 C314 0.930 . S
H326 C315 0.930 1_655 S
H327 C316 0.931 . S
Eu328 C337 2.828 . S
Eu328 O339 2.392 . S
Eu328 O341 2.418 . S
Eu328 O346 2.373 . S
Eu328 O349 2.488 . S
Eu328 O350 2.471 . S
Eu328 O351 2.349 1_545 S
Eu329 O338 2.373 1_565 S
Eu329 O342 2.488 . S
Eu329 O343 2.471 1_565 S
Eu329 O344 2.349 1_565 S
Eu329 O347 2.392 . S
Eu329 O348 2.418 . S
Eu329 C358 2.828 . S
C330 O348 1.244 . S
C330 O351 1.265 . S
C331 C332 1.379 1_545 S
C331 C335 1.373 . S
C331 C337 1.505 . S
C332 C331 1.379 1_565 S
C332 C334 1.369 . S
C332 H360 0.930 . S
C333 C335 1.383 . S
C333 C336 1.382 . S
C333 H361 0.930 . S
C334 C332 1.369 . S
C334 C336 1.392 1_565 S
C334 H362 0.930 . S
C335 C331 1.373 . S
C335 C333 1.383 . S
C335 H363 0.931 . S
C336 C333 1.382 . S
C336 C334 1.392 1_545 S
C337 Eu328 2.828 . S
C337 C331 1.505 . S
C337 O349 1.249 . S
C337 O350 1.244 . S
O338 Eu329 2.373 1_545 S
O338 C340 1.258 . S
O339 Eu328 2.392 . S
O339 C340 1.242 . S
C340 O338 1.258 . S
C340 O339 1.242 . S
O341 Eu328 2.418 . S
O341 C345 1.244 . S
O342 Eu329 2.488 . S
O342 C358 1.249 . S
O343 Eu329 2.471 1_545 S
O343 C358 1.244 1_545 S
O344 Eu329 2.349 1_545 S
O344 C345 1.265 . S
C345 O341 1.244 . S
C345 O344 1.265 . S
O346 Eu328 2.373 . S
O346 C359 1.258 1_545 S
O347 Eu329 2.392 . S
O347 C359 1.242 . S
O348 Eu329 2.418 . S
O348 C330 1.244 . S
O349 Eu328 2.488 . S
O349 C337 1.249 . S
O350 Eu328 2.471 . S
O350 C337 1.244 . S
O351 Eu328 2.349 1_565 S
O351 C330 1.265 . S
C352 C353 1.379 . S
C352 C356 1.373 1_545 S
C352 C358 1.505 1_545 S
C353 C352 1.379 . S
C353 C355 1.369 . S
C353 H364 0.930 . S
C354 C356 1.383 . S
C354 C357 1.382 1_565 S
C354 H365 0.930 . S
C355 C353 1.369 . S
C355 C357 1.392 . S
C355 H366 0.930 . S
C356 C352 1.373 1_565 S
C356 C354 1.383 . S
C356 H367 0.931 . S
C357 C354 1.382 1_545 S
C357 C355 1.392 . S
C358 Eu329 2.828 . S
C358 O342 1.249 . S
C358 O343 1.244 1_565 S
C358 C352 1.505 1_565 S
C359 O346 1.258 1_565 S
C359 O347 1.242 . S
H360 C332 0.930 . S
H361 C333 0.930 . S
H362 C334 0.930 . S
H363 C335 0.931 . S
H364 C353 0.930 . S
H365 C354 0.930 . S
H366 C355 0.930 . S
H367 C356 0.931 . S
Eu368 C377 2.828 . S
Eu368 O379 2.392 . S
Eu368 O381 2.418 . S
Eu368 O386 2.373 . S
Eu368 O389 2.488 . S
Eu368 O390 2.471 . S
Eu368 O391 2.349 . S
Eu369 O378 2.373 . S
Eu369 O382 2.488 . S
Eu369 O383 2.471 . S
Eu369 O384 2.349 . S
Eu369 O387 2.392 . S
Eu369 O388 2.418 . S
Eu369 C398 2.828 . S
C370 O388 1.244 . S
C370 O391 1.265 . S
C371 C372 1.379 . S
C371 C375 1.373 . S
C371 C377 1.505 . S
C372 C371 1.379 . S
C372 C374 1.369 . S
C372 H400 0.930 . S
C373 C375 1.383 . S
C373 C376 1.382 . S
C373 H401 0.930 . S
C374 C372 1.369 . S
C374 C376 1.392 . S
C374 H402 0.930 . S
C375 C371 1.373 . S
C375 C373 1.383 . S
C375 H403 0.931 . S
C376 C373 1.382 . S
C376 C374 1.392 . S
C377 Eu368 2.828 . S
C377 C371 1.505 . S
C377 O389 1.249 . S
C377 O390 1.244 . S
O378 Eu369 2.373 . S
O378 C380 1.258 . S
O379 Eu368 2.392 . S
O379 C380 1.242 . S
C380 O378 1.258 . S
C380 O379 1.242 . S
O381 Eu368 2.418 . S
O381 C385 1.244 . S
O382 Eu369 2.488 . S
O382 C398 1.249 . S
O383 Eu369 2.471 . S
O383 C398 1.244 . S
O384 Eu369 2.349 . S
O384 C385 1.265 . S
C385 O381 1.244 . S
C385 O384 1.265 . S
O386 Eu368 2.373 . S
O386 C399 1.258 . S
O387 Eu369 2.392 . S
O387 C399 1.242 . S
O388 Eu369 2.418 . S
O388 C370 1.244 . S
O389 Eu368 2.488 . S
O389 C377 1.249 . S
O390 Eu368 2.471 . S
O390 C377 1.244 . S
O391 Eu368 2.349 . S
O391 C370 1.265 . S
C392 C393 1.379 . S
C392 C396 1.373 . S
C392 C398 1.505 . S
C393 C392 1.379 . S
C393 C395 1.369 . S
C393 H404 0.930 . S
C394 C396 1.383 . S
C394 C397 1.382 . S
C394 H405 0.930 . S
C395 C393 1.369 . S
C395 C397 1.392 . S
C395 H406 0.930 . S
C396 C392 1.373 . S
C396 C394 1.383 . S
C396 H407 0.931 . S
C397 C394 1.382 . S
C397 C395 1.392 . S
C398 Eu369 2.828 . S
C398 O382 1.249 . S
C398 O383 1.244 . S
C398 C392 1.505 . S
C399 O386 1.258 . S
C399 O387 1.242 . S
H400 C372 0.930 . S
H401 C373 0.930 . S
H402 C374 0.930 . S
H403 C375 0.931 . S
H404 C393 0.930 . S
H405 C394 0.930 . S
H406 C395 0.930 . S
H407 C396 0.931 . S
Eu408 C417 2.828 . S
Eu408 O419 2.392 . S
Eu408 O421 2.418 1_455 S
Eu408 O426 2.373 . S
Eu408 O429 2.488 . S
Eu408 O430 2.471 . S
Eu408 O431 2.349 . S
Eu409 O418 2.373 . S
Eu409 O422 2.488 . S
Eu409 O423 2.471 . S
Eu409 O424 2.349 . S
Eu409 O427 2.392 1_655 S
Eu409 O428 2.418 1_655 S
Eu409 C438 2.828 . S
C410 O428 1.244 . S
C410 O431 1.265 . S
C411 C412 1.379 . S
C411 C415 1.373 . S
C411 C417 1.505 . S
C412 C411 1.379 . S
C412 C414 1.369 . S
C412 H440 0.930 . S
C413 C415 1.383 . S
C413 C416 1.382 . S
C413 H441 0.930 . S
C414 C412 1.369 . S
C414 C416 1.392 . S
C414 H442 0.930 . S
C415 C411 1.373 . S
C415 C413 1.383 . S
C415 H443 0.931 . S
C416 C413 1.382 . S
C416 C414 1.392 . S
C417 Eu408 2.828 . S
C417 C411 1.505 . S
C417 O429 1.249 . S
C417 O430 1.244 . S
O418 Eu409 2.373 . S
O418 C420 1.258 1_655 S
O419 Eu408 2.392 . S
O419 C420 1.242 . S
C420 O418 1.258 1_455 S
C420 O419 1.242 . S
O421 Eu408 2.418 1_655 S
O421 C425 1.244 . S
O422 Eu409 2.488 . S
O422 C438 1.249 . S
O423 Eu409 2.471 . S
O423 C438 1.244 . S
O424 Eu409 2.349 . S
O424 C425 1.265 . S
C425 O421 1.244 . S
C425 O424 1.265 . S
O426 Eu408 2.373 . S
O426 C439 1.258 . S
O427 Eu409 2.392 1_455 S
O427 C439 1.242 . S
O428 Eu409 2.418 1_455 S
O428 C410 1.244 . S
O429 Eu408 2.488 . S
O429 C417 1.249 . S
O430 Eu408 2.471 . S
O430 C417 1.244 . S
O431 Eu408 2.349 . S
O431 C410 1.265 . S
C432 C433 1.379 . S
C432 C436 1.373 . S
C432 C438 1.505 . S
C433 C432 1.379 . S
C433 C435 1.369 . S
C433 H444 0.930 . S
C434 C436 1.383 . S
C434 C437 1.382 . S
C434 H445 0.930 . S
C435 C433 1.369 . S
C435 C437 1.392 . S
C435 H446 0.930 . S
C436 C432 1.373 . S
C436 C434 1.383 . S
C436 H447 0.931 . S
C437 C434 1.382 . S
C437 C435 1.392 . S
C438 Eu409 2.828 . S
C438 O422 1.249 . S
C438 O423 1.244 . S
C438 C432 1.505 . S
C439 O426 1.258 . S
C439 O427 1.242 . S
H440 C412 0.930 . S
H441 C413 0.930 . S
H442 C414 0.930 . S
H443 C415 0.931 . S
H444 C433 0.930 . S
H445 C434 0.930 . S
H446 C435 0.930 . S
H447 C436 0.931 . S
C448 C449 1.349 . S
C448 C450 1.327 . S
C448 H473 0.950 . S
C449 C448 1.349 . S
C449 C465 1.349 . S
C450 C448 1.327 . S
C450 C469 1.429 . S
C450 H474 0.950 . S
C451 C468 1.574 . S
C451 C470 1.368 . S
C451 H475 0.949 . S
H452 C456 0.949 . S
C453 C454 1.349 . S
C453 C455 1.327 . S
C453 H476 1.001 . S
C454 C453 1.349 . S
C454 C466 1.349 . S
C455 C453 1.327 . S
C455 C471 1.429 . S
C455 H477 0.950 . S
C456 H452 0.949 . S
C456 C464 1.574 . S
C456 C472 1.368 . S
H457 C465 0.950 . S
H458 C463 0.950 . S
H459 C464 0.949 . S
H460 C466 0.950 . S
H461 C467 0.950 . S
H462 C468 0.949 . S
C463 H458 0.950 . S
C463 C465 1.327 . S
C463 C469 1.429 . S
C464 C456 1.574 . S
C464 H459 0.949 . S
C464 C470 1.368 . S
C465 C449 1.349 . S
C465 H457 0.950 . S
C465 C463 1.327 . S
C466 C454 1.349 . S
C466 H460 0.950 . S
C466 C467 1.327 . S
C467 H461 0.950 . S
C467 C466 1.327 . S
C467 C471 1.429 . S
C468 C451 1.574 . S
C468 H462 0.949 . S
C468 C472 1.368 . S
C469 C450 1.429 . S
C469 C463 1.429 . S
C469 C470 1.523 . S
C470 C451 1.368 . S
C470 C464 1.368 . S
C470 C469 1.523 . S
C471 C455 1.429 . S
C471 C467 1.429 . S
C471 C472 1.523 . S
C472 C456 1.368 . S
C472 C468 1.368 . S
C472 C471 1.523 . S
H473 C448 0.950 . S
H474 C450 0.950 . S
H475 C451 0.949 . S
H476 C453 1.001 . S
H477 C455 0.950 . S
C478 C479 1.349 . S
C478 C480 1.327 . S
C478 H503 0.950 . S
C479 C478 1.349 . S
C479 C495 1.349 . S
C480 C478 1.327 . S
C480 C499 1.429 . S
C480 H504 0.950 . S
C481 C498 1.574 . S
C481 C500 1.368 . S
C481 H505 0.949 . S
H482 C486 0.949 . S
C483 C484 1.349 . S
C483 C485 1.327 . S
C483 H506 0.950 . S
C484 C483 1.349 . S
C484 C496 1.349 . S
C485 C483 1.327 . S
C485 C501 1.429 . S
C485 H507 0.950 . S
C486 H482 0.949 . S
C486 C494 1.574 . S
C486 C502 1.368 . S
H487 C495 0.950 . S
H488 C493 0.950 . S
H489 C494 0.949 . S
H490 C496 0.950 . S
H491 C497 0.950 . S
H492 C498 0.949 . S
C493 H488 0.950 . S
C493 C495 1.327 . S
C493 C499 1.429 . S
C494 C486 1.574 . S
C494 H489 0.949 . S
C494 C500 1.368 . S
C495 C479 1.349 . S
C495 H487 0.950 . S
C495 C493 1.327 . S
C496 C484 1.349 . S
C496 H490 0.950 . S
C496 C497 1.327 . S
C497 H491 0.950 . S
C497 C496 1.327 . S
C497 C501 1.429 . S
C498 C481 1.574 . S
C498 H492 0.949 . S
C498 C502 1.368 . S
C499 C480 1.429 . S
C499 C493 1.429 . S
C499 C500 1.523 . S
C500 C481 1.368 . S
C500 C494 1.368 . S
C500 C499 1.523 . S
C501 C485 1.429 . S
C501 C497 1.429 . S
C501 C502 1.523 . S
C502 C486 1.368 . S
C502 C498 1.368 . S
C502 C501 1.523 . S
H503 C478 0.950 . S
H504 C480 0.950 . S
H505 C481 0.949 . S
H506 C483 0.950 . S
H507 C485 0.950 . S
C508 C509 1.349 . S
C508 C510 1.327 . S
C508 H533 0.950 . S
C509 C508 1.349 . S
C509 C525 1.349 . S
C510 C508 1.327 . S
C510 C529 1.429 . S
C510 H534 0.950 . S
C511 C528 1.574 . S
C511 C530 1.368 . S
C511 H535 0.949 . S
H512 C516 0.949 . S
C513 C514 1.349 . S
C513 C515 1.327 . S
C513 H536 0.950 . S
C514 C513 1.349 . S
C514 C526 1.349 . S
C515 C513 1.327 . S
C515 C531 1.429 . S
C515 H537 0.950 . S
C516 H512 0.949 . S
C516 C524 1.574 . S
C516 C532 1.368 . S
H517 C525 0.950 . S
H518 C523 0.950 . S
H519 C524 0.949 . S
H520 C526 0.950 . S
H521 C527 0.950 . S
H522 C528 0.949 . S
C523 H518 0.950 . S
C523 C525 1.327 . S
C523 C529 1.429 . S
C524 C516 1.574 . S
C524 H519 0.949 . S
C524 C530 1.368 . S
C525 C509 1.349 . S
C525 H517 0.950 . S
C525 C523 1.327 . S
C526 C514 1.349 . S
C526 H520 0.950 . S
C526 C527 1.327 . S
C527 H521 0.950 . S
C527 C526 1.327 . S
C527 C531 1.429 . S
C528 C511 1.574 . S
C528 H522 0.949 . S
C528 C532 1.368 . S
C529 C510 1.429 . S
C529 C523 1.429 . S
C529 C530 1.523 . S
C530 C511 1.368 . S
C530 C524 1.368 . S
C530 C529 1.523 . S
C531 C515 1.429 . S
C531 C527 1.429 . S
C531 C532 1.523 . S
C532 C516 1.368 . S
C532 C528 1.368 . S
C532 C531 1.523 . S
H533 C508 0.950 . S
H534 C510 0.950 . S
H535 C511 0.949 . S
H536 C513 0.950 . S
H537 C515 0.950 . S
C538 C539 1.349 . S
C538 C540 1.327 . S
C538 H563 0.950 . S
C539 C538 1.349 . S
C539 C555 1.349 . S
C540 C538 1.327 . S
C540 C559 1.429 . S
C540 H564 0.950 . S
C541 C558 1.574 . S
C541 C560 1.368 . S
C541 H565 0.949 . S
H542 C546 0.949 . S
C543 C544 1.349 . S
C543 C545 1.327 . S
C543 H566 0.950 . S
C544 C543 1.349 . S
C544 C556 1.349 . S
C545 C543 1.327 . S
C545 C561 1.429 . S
C545 H567 0.950 . S
C546 H542 0.949 . S
C546 C554 1.574 . S
C546 C562 1.368 . S
H547 C555 0.950 . S
H548 C553 0.950 . S
H549 C554 0.949 . S
H550 C556 0.969 . S
H551 C557 0.950 . S
H552 C558 0.949 . S
C553 H548 0.950 . S
C553 C555 1.327 . S
C553 C559 1.429 . S
C554 C546 1.574 . S
C554 H549 0.949 . S
C554 C560 1.368 . S
C555 C539 1.349 . S
C555 H547 0.950 . S
C555 C553 1.327 . S
C556 C544 1.349 . S
C556 H550 0.969 . S
C556 C557 1.327 . S
C557 H551 0.950 . S
C557 C556 1.327 . S
C557 C561 1.429 . S
C558 C541 1.574 . S
C558 H552 0.949 . S
C558 C562 1.368 . S
C559 C540 1.429 . S
C559 C553 1.429 . S
C559 C560 1.523 . S
C560 C541 1.368 . S
C560 C554 1.368 . S
C560 C559 1.523 . S
C561 C545 1.429 . S
C561 C557 1.429 . S
C561 C562 1.523 . S
C562 C546 1.368 . S
C562 C558 1.368 . S
C562 C561 1.523 . S
H563 C538 0.950 . S
H564 C540 0.950 . S
H565 C541 0.949 . S
H566 C543 0.950 . S
H567 C545 0.950 . S
C568 C569 1.349 . S
C568 C570 1.327 . S
C568 H593 0.950 . S
C569 C568 1.349 . S
C569 C585 1.349 . S
C570 C568 1.327 . S
C570 C589 1.429 . S
C570 H594 0.950 . S
C571 C588 1.574 . S
C571 C590 1.368 . S
C571 H595 0.949 . S
H572 C576 0.949 1_545 S
C573 C574 1.349 . S
C573 C575 1.327 . S
C573 H596 0.950 . S
C574 C573 1.349 . S
C574 C586 1.349 1_565 S
C575 C573 1.327 . S
C575 C591 1.429 . S
C575 H597 0.950 . S
C576 H572 0.949 1_565 S
C576 C584 1.574 . S
C576 C592 1.368 . S
H577 C585 0.950 . S
H578 C583 0.950 . S
H579 C584 0.949 . S
H580 C586 0.950 . S
H581 C587 0.950 1_545 S
H582 C588 0.949 . S
C583 H578 0.950 . S
C583 C585 1.327 . S
C583 C589 1.429 . S
C584 C576 1.574 . S
C584 H579 0.949 . S
C584 C590 1.368 . S
C585 C569 1.349 . S
C585 H577 0.950 . S
C585 C583 1.327 . S
C586 C574 1.349 1_545 S
C586 H580 0.950 . S
C586 C587 1.327 1_545 S
C587 H581 0.950 1_565 S
C587 C586 1.327 1_565 S
C587 C591 1.429 . S
C588 C571 1.574 . S
C588 H582 0.949 . S
C588 C592 1.368 . S
C589 C570 1.429 . S
C589 C583 1.429 . S
C589 C590 1.523 1_554 S
C590 C571 1.368 . S
C590 C584 1.368 . S
C590 C589 1.523 1_556 S
C591 C575 1.429 . S
C591 C587 1.429 . S
C591 C592 1.523 . S
C592 C576 1.368 . S
C592 C588 1.368 . S
C592 C591 1.523 . S
H593 C568 0.950 . S
H594 C570 0.950 . S
H595 C571 0.949 . S
H596 C573 0.950 . S
H597 C575 0.950 . S
C598 C599 1.349 . S
C598 C600 1.327 1_554 S
C598 H623 0.950 . S
C599 C598 1.349 . S
C599 C615 1.349 . S
C600 C598 1.327 1_556 S
C600 C619 1.429 . S
C600 H624 0.950 . S
C601 C618 1.574 . S
C601 C620 1.368 . S
C601 H625 0.949 . S
H602 C606 0.949 . S
C603 C604 1.349 . S
C603 C605 1.327 . S
C603 H626 0.950 . S
C604 C603 1.349 . S
C604 C616 1.349 . S
C605 C603 1.327 . S
C605 C621 1.429 . S
C605 H627 0.950 . S
C606 H602 0.949 . S
C606 C614 1.574 . S
C606 C622 1.368 . S
H607 C615 0.950 . S
H608 C613 0.950 . S
H609 C614 0.949 . S
H610 C616 0.950 . S
H611 C617 0.950 . S
H612 C618 0.949 . S
C613 H608 0.950 . S
C613 C615 1.327 . S
C613 C619 1.429 1_554 S
C614 C606 1.574 . S
C614 H609 0.949 . S
C614 C620 1.368 . S
C615 C599 1.349 . S
C615 H607 0.950 . S
C615 C613 1.327 . S
C616 C604 1.349 . S
C616 H610 0.950 . S
C616 C617 1.327 . S
C617 H611 0.950 . S
C617 C616 1.327 . S
C617 C621 1.429 . S
C618 C601 1.574 . S
C618 H612 0.949 . S
C618 C622 1.368 . S
C619 C600 1.429 . S
C619 C613 1.429 1_556 S
C619 C620 1.523 . S
C620 C601 1.368 . S
C620 C614 1.368 . S
C620 C619 1.523 . S
C621 C605 1.429 . S
C621 C617 1.429 . S
C621 C622 1.523 . S
C622 C606 1.368 . S
C622 C618 1.368 . S
C622 C621 1.523 . S
H623 C598 0.950 . S
H624 C600 0.950 . S
H625 C601 0.949 . S
H626 C603 0.950 . S
H627 C605 0.950 . S
C628 C629 1.349 . S
C628 C630 1.327 1_554 S
C628 H653 0.950 . S
C629 C628 1.349 . S
C629 C645 1.349 . S
C630 C628 1.327 1_556 S
C630 C649 1.429 . S
C630 H654 0.950 . S
C631 C648 1.574 . S
C631 C650 1.368 . S
C631 H655 0.949 . S
H632 C636 0.949 . S
C633 C634 1.349 . S
C633 C635 1.327 . S
C633 H656 0.950 . S
C634 C633 1.349 . S
C634 C646 1.349 . S
C635 C633 1.327 . S
C635 C651 1.429 . S
C635 H657 0.950 . S
C636 H632 0.949 . S
C636 C644 1.574 . S
C636 C652 1.368 . S
H637 C645 0.950 . S
H638 C643 0.950 . S
H639 C644 0.949 . S
H640 C646 0.950 . S
H641 C647 0.950 . S
H642 C648 0.949 . S
C643 H638 0.950 . S
C643 C645 1.327 . S
C643 C649 1.429 1_554 S
C644 C636 1.574 . S
C644 H639 0.949 . S
C644 C650 1.368 . S
C645 C629 1.349 . S
C645 H637 0.950 . S
C645 C643 1.327 . S
C646 C634 1.349 . S
C646 H640 0.950 . S
C646 C647 1.327 . S
C647 H641 0.950 . S
C647 C646 1.327 . S
C647 C651 1.429 . S
C648 C631 1.574 . S
C648 H642 0.949 . S
C648 C652 1.368 . S
C649 C630 1.429 . S
C649 C643 1.429 1_556 S
C649 C650 1.523 . S
C650 C631 1.368 . S
C650 C644 1.368 . S
C650 C649 1.523 . S
C651 C635 1.429 . S
C651 C647 1.429 . S
C651 C652 1.523 . S
C652 C636 1.368 . S
C652 C648 1.368 . S
C652 C651 1.523 . S
H653 C628 0.950 . S
H654 C630 0.950 . S
H655 C631 0.949 . S
H656 C633 0.950 . S
H657 C635 0.950 . S
C658 C659 1.349 . S
C658 C660 1.327 . S
C658 H683 0.950 . S
C659 C658 1.349 . S
C659 C675 1.349 . S
C660 C658 1.327 . S
C660 C679 1.429 . S
C660 H684 0.950 . S
C661 C678 1.574 . S
C661 C680 1.368 . S
C661 H685 0.949 . S
H662 C666 0.949 . S
C663 C664 1.349 1_455 S
C663 C665 1.327 . S
C663 H686 0.950 . S
C664 C663 1.349 1_655 S
C664 C676 1.349 . S
C665 C663 1.327 . S
C665 C681 1.429 1_455 S
C665 H687 0.950 . S
C666 H662 0.949 . S
C666 C674 1.574 . S
C666 C682 1.368 . S
H667 C675 0.950 . S
H668 C673 0.950 1_556 S
H669 C674 0.949 . S
H670 C676 0.950 . S
H671 C677 0.950 . S
H672 C678 0.949 1_455 S
C673 H668 0.950 1_554 S
C673 C675 1.327 . S
C673 C679 1.429 . S
C674 C666 1.574 . S
C674 H669 0.949 . S
C674 C680 1.368 . S
C675 C659 1.349 . S
C675 H667 0.950 . S
C675 C673 1.327 . S
C676 C664 1.349 . S
C676 H670 0.950 . S
C676 C677 1.327 . S
C677 H671 0.950 . S
C677 C676 1.327 . S
C677 C681 1.429 . S
C678 C661 1.574 . S
C678 H672 0.949 1_655 S
C678 C682 1.368 . S
C679 C660 1.429 . S
C679 C673 1.429 . S
C679 C680 1.523 1_554 S
C680 C661 1.368 . S
C680 C674 1.368 . S
C680 C679 1.523 1_556 S
C681 C665 1.429 1_655 S
C681 C677 1.429 . S
C681 C682 1.523 . S
C682 C666 1.368 . S
C682 C678 1.368 . S
C682 C681 1.523 . S
H683 C658 0.950 . S
H684 C660 0.950 . S
H685 C661 0.949 . S
H686 C663 0.950 . S
H687 C665 0.950 . S
C688 C689 1.349 . S
C688 C690 1.327 . S
C688 H713 0.950 . S
C689 C688 1.349 . S
C689 C705 1.349 . S
C690 C688 1.327 . S
C690 C709 1.429 . S
C690 H714 0.950 . S
C691 C708 1.574 . S
C691 C710 1.368 . S
C691 H715 0.949 . S
H692 C696 0.949 . S
C693 C694 1.350 1_655 S
C693 C695 1.329 1_655 S
C693 H716 0.947 . S
C694 C693 1.350 1_455 S
C694 C706 1.347 . S
C695 C693 1.329 1_455 S
C695 C711 1.429 . S
C695 H717 0.950 . S
C696 H692 0.949 . S
C696 C704 1.574 . S
C696 C712 1.368 . S
H697 C705 0.950 . S
H698 C703 0.950 . S
H699 C704 0.949 . S
H700 C706 0.950 . S
H701 C707 0.950 . S
H702 C708 0.949 . S
C703 H698 0.950 . S
C703 C705 1.327 . S
C703 C709 1.429 . S
C704 C696 1.574 . S
C704 H699 0.949 . S
C704 C710 1.368 . S
C705 C689 1.349 . S
C705 H697 0.950 . S
C705 C703 1.327 . S
C706 C694 1.347 . S
C706 H700 0.950 . S
C706 C707 1.327 . S
C707 H701 0.950 . S
C707 C706 1.327 . S
C707 C711 1.429 . S
C708 C691 1.574 . S
C708 H702 0.949 . S
C708 C712 1.368 . S
C709 C690 1.429 . S
C709 C703 1.429 . S
C709 C710 1.523 . S
C710 C691 1.368 . S
C710 C704 1.368 . S
C710 C709 1.523 . S
C711 C695 1.429 . S
C711 C707 1.429 . S
C711 C712 1.523 . S
C712 C696 1.368 . S
C712 C708 1.368 . S
C712 C711 1.523 . S
H713 C688 0.950 . S
H714 C690 0.950 . S
H715 C691 0.949 . S
H716 C693 0.947 . S
H717 C695 0.950 . S
C718 C719 1.349 . S
C718 C720 1.327 . S
C718 H743 0.950 . S
C719 C718 1.349 . S
C719 C735 1.349 . S
C720 C718 1.327 . S
C720 C739 1.429 . S
C720 H744 0.950 . S
C721 C738 1.574 . S
C721 C740 1.368 . S
C721 H745 0.949 . S
H722 C726 0.949 . S
C723 C724 1.349 . S
C723 C725 1.327 . S
C723 H746 0.950 . S
C724 C723 1.349 . S
C724 C736 1.349 . S
C725 C723 1.327 . S
C725 C741 1.429 . S
C725 H747 0.950 . S
C726 H722 0.949 . S
C726 C734 1.574 . S
C726 C742 1.368 . S
H727 C735 0.950 . S
H728 C733 0.950 . S
H729 C734 0.949 . S
H730 C736 0.950 1_565 S
H731 C737 0.950 . S
H732 C738 0.949 . S
C733 H728 0.950 . S
C733 C735 1.327 . S
C733 C739 1.429 . S
C734 C726 1.574 . S
C734 H729 0.949 . S
C734 C740 1.368 . S
C735 C719 1.349 . S
C735 H727 0.950 . S
C735 C733 1.327 . S
C736 C724 1.349 . S
C736 H730 0.950 1_545 S
C736 C737 1.327 . S
C737 H731 0.950 . S
C737 C736 1.327 . S
C737 C741 1.429 . S
C738 C721 1.574 . S
C738 H732 0.949 . S
C738 C742 1.368 . S
C739 C720 1.429 . S
C739 C733 1.429 . S
C739 C740 1.523 . S
C740 C721 1.368 . S
C740 C734 1.368 . S
C740 C739 1.523 . S
C741 C725 1.429 . S
C741 C737 1.429 . S
C741 C742 1.523 . S
C742 C726 1.368 . S
C742 C738 1.368 . S
C742 C741 1.523 . S
H743 C718 0.950 . S
H744 C720 0.950 . S
H745 C721 0.949 . S
H746 C723 0.950 . S
H747 C725 0.950 . S
C748 C749 1.349 . S
C748 C750 1.327 . S
C748 H773 0.950 . S
C749 C748 1.349 . S
C749 C765 1.349 . S
C750 C748 1.327 . S
C750 C769 1.429 . S
C750 H774 0.950 . S
C751 C768 1.574 . S
C751 C770 1.368 . S
C751 H775 0.949 . S
H752 C756 0.949 . S
C753 C754 1.349 . S
C753 C755 1.327 . S
C753 H776 0.950 . S
C754 C753 1.349 . S
C754 C766 1.349 . S
C755 C753 1.327 . S
C755 C771 1.429 . S
C755 H777 0.950 . S
C756 H752 0.949 . S
C756 C764 1.574 . S
C756 C772 1.368 . S
H757 C765 0.950 . S
H758 C763 0.950 . S
H759 C764 0.949 . S
H760 C766 0.950 . S
H761 C767 0.950 . S
H762 C768 0.949 . S
C763 H758 0.950 . S
C763 C765 1.327 . S
C763 C769 1.429 . S
C764 C756 1.574 . S
C764 H759 0.949 . S
C764 C770 1.368 . S
C765 C749 1.349 . S
C765 H757 0.950 . S
C765 C763 1.327 . S
C766 C754 1.349 . S
C766 H760 0.950 . S
C766 C767 1.327 . S
C767 H761 0.950 . S
C767 C766 1.327 . S
C767 C771 1.429 . S
C768 C751 1.574 . S
C768 H762 0.949 . S
C768 C772 1.368 . S
C769 C750 1.429 . S
C769 C763 1.429 . S
C769 C770 1.523 . S
C770 C751 1.368 . S
C770 C764 1.368 . S
C770 C769 1.523 . S
C771 C755 1.429 . S
C771 C767 1.429 . S
C771 C772 1.523 . S
C772 C756 1.368 . S
C772 C768 1.368 . S
C772 C771 1.523 . S
H773 C748 0.950 . S
H774 C750 0.950 . S
H775 C751 0.949 . S
H776 C753 0.950 . S
H777 C755 0.950 . S
C778 C779 1.349 . S
C778 C780 1.327 . S
C778 H803 0.950 . S
C779 C778 1.349 . S
C779 C795 1.349 . S
C780 C778 1.327 . S
C780 C799 1.429 . S
C780 H804 0.950 . S
C781 C798 1.574 . S
C781 C800 1.368 . S
C781 H805 0.949 . S
H782 C786 0.949 . S
C783 C784 1.349 . S
C783 C785 1.327 . S
C783 H806 0.950 . S
C784 C783 1.349 . S
C784 C796 1.349 . S
C785 C783 1.327 . S
C785 C801 1.429 . S
C785 H807 0.950 . S
C786 H782 0.949 . S
C786 C794 1.574 . S
C786 C802 1.368 . S
H787 C795 0.950 . S
H788 C793 0.950 . S
H789 C794 0.949 . S
H790 C796 0.950 . S
H791 C797 0.950 . S
H792 C798 0.949 . S
C793 H788 0.950 . S
C793 C795 1.327 . S
C793 C799 1.429 . S
C794 C786 1.574 . S
C794 H789 0.949 . S
C794 C800 1.368 . S
C795 C779 1.349 . S
C795 H787 0.950 . S
C795 C793 1.327 . S
C796 C784 1.349 . S
C796 H790 0.950 . S
C796 C797 1.327 . S
C797 H791 0.950 . S
C797 C796 1.327 . S
C797 C801 1.429 . S
C798 C781 1.574 . S
C798 H792 0.949 . S
C798 C802 1.368 . S
C799 C780 1.429 . S
C799 C793 1.429 . S
C799 C800 1.523 . S
C800 C781 1.368 . S
C800 C794 1.368 . S
C800 C799 1.523 . S
C801 C785 1.429 . S
C801 C797 1.429 . S
C801 C802 1.523 . S
C802 C786 1.368 . S
C802 C798 1.368 . S
C802 C801 1.523 . S
H803 C778 0.950 . S
H804 C780 0.950 . S
H805 C781 0.949 . S
H806 C783 0.950 . S
H807 C785 0.950 . S
C808 C809 1.349 . S
C808 C810 1.327 . S
C808 H833 0.950 . S
C809 C808 1.349 . S
C809 C825 1.349 . S
C810 C808 1.327 . S
C810 C829 1.425 1_554 S
C810 H834 0.950 . S
C811 C828 1.574 . S
C811 C830 1.368 . S
C811 H835 0.949 . S
H812 C816 0.949 . S
C813 C814 1.349 . S
C813 C815 1.327 . S
C813 H836 0.950 . S
C814 C813 1.349 . S
C814 C826 1.349 . S
C815 C813 1.327 . S
C815 C831 1.441 . S
C815 H837 0.950 . S
C816 H812 0.949 . S
C816 C824 1.573 1_556 S
C816 C832 1.368 . S
H817 C825 0.950 1_556 S
H818 C823 0.950 . S
H819 C824 0.951 . S
H820 C826 0.950 . S
H821 C827 0.934 1_655 S
H822 C828 0.967 . S
C823 H818 0.950 . S
C823 C825 1.327 1_556 S
C823 C829 1.430 . S
C824 C816 1.573 1_554 S
C824 H819 0.951 . S
C824 C830 1.367 1_554 S
C825 C809 1.349 . S
C825 H817 0.950 1_554 S
C825 C823 1.327 1_554 S
C826 C814 1.349 . S
C826 H820 0.950 . S
C826 C827 1.342 . S
C827 H821 0.934 1_455 S
C827 C826 1.342 . S
C827 C831 1.429 . S
C828 C811 1.574 . S
C828 H822 0.967 . S
C828 C832 1.368 . S
C829 C810 1.425 1_556 S
C829 C823 1.430 . S
C829 C830 1.525 . S
C830 C811 1.368 . S
C830 C824 1.367 1_556 S
C830 C829 1.525 . S
C831 C815 1.441 . S
C831 C827 1.429 . S
C831 C832 1.513 1_455 S
C832 C816 1.368 . S
C832 C828 1.368 . S
C832 C831 1.513 1_655 S
H833 C808 0.950 . S
H834 C810 0.950 . S
H835 C811 0.949 . S
H836 C813 0.950 . S
H837 C815 0.950 . S
C838 C839 1.349 . S
C838 C840 1.327 . S
C838 H863 0.950 . S
C839 C838 1.349 . S
C839 C855 1.349 . S
C840 C838 1.327 . S
C840 C859 1.429 1_554 S
C840 H864 0.950 . S
C841 C858 1.574 . S
C841 C860 1.368 . S
C841 H865 0.949 . S
H842 C846 0.949 1_545 S
C843 C844 1.349 1_565 S
C843 C845 1.327 . S
C843 H866 0.950 . S
C844 C843 1.349 1_545 S
C844 C856 1.349 . S
C845 C843 1.327 . S
C845 C861 1.429 . S
C845 H867 0.950 . S
C846 H842 0.949 1_565 S
C846 C854 1.574 . S
C846 C862 1.368 . S
H847 C855 0.950 . S
H848 C853 0.942 1_556 S
H849 C854 0.949 . S
H850 C856 0.950 . S
H851 C857 0.950 . S
H852 C858 0.949 . S
C853 H848 0.942 1_554 S
C853 C855 1.336 . S
C853 C859 1.427 1_554 S
C854 C846 1.574 . S
C854 H849 0.949 . S
C854 C860 1.368 . S
C855 C839 1.349 . S
C855 H847 0.950 . S
C855 C853 1.336 . S
C856 C844 1.349 . S
C856 H850 0.950 . S
C856 C857 1.327 . S
C857 H851 0.950 . S
C857 C856 1.327 . S
C857 C861 1.429 1_545 S
C858 C841 1.574 . S
C858 H852 0.949 . S
C858 C862 1.368 . S
C859 C840 1.429 1_556 S
C859 C853 1.427 1_556 S
C859 C860 1.523 . S
C860 C841 1.368 . S
C860 C854 1.368 . S
C860 C859 1.523 . S
C861 C845 1.429 . S
C861 C857 1.429 1_565 S
C861 C862 1.523 . S
C862 C846 1.368 . S
C862 C858 1.368 . S
C862 C861 1.523 . S
H863 C838 0.950 . S
H864 C840 0.950 . S
H865 C841 0.949 . S
H866 C843 0.950 . S
H867 C845 0.950 . S
C868 C869 1.349 1_556 S
C868 C870 1.327 . S
C868 H893 0.950 . S
C869 C868 1.349 1_554 S
C869 C885 1.349 . S
C870 C868 1.327 . S
C870 C889 1.429 . S
C870 H894 0.950 . S
C871 C888 1.574 . S
C871 C890 1.368 . S
C871 H895 0.949 . S
H872 C876 0.949 . S
C873 C874 1.349 . S
C873 C875 1.327 . S
C873 H896 0.950 . S
C874 C873 1.349 . S
C874 C886 1.349 . S
C875 C873 1.327 . S
C875 C891 1.429 . S
C875 H897 0.950 . S
C876 H872 0.949 . S
C876 C884 1.574 . S
C876 C892 1.368 . S
H877 C885 0.950 . S
H878 C883 0.950 . S
H879 C884 0.949 . S
H880 C886 0.950 . S
H881 C887 0.950 . S
H882 C888 0.949 . S
C883 H878 0.950 . S
C883 C885 1.327 1_556 S
C883 C889 1.429 . S
C884 C876 1.574 . S
C884 H879 0.949 . S
C884 C890 1.368 . S
C885 C869 1.349 . S
C885 H877 0.950 . S
C885 C883 1.327 1_554 S
C886 C874 1.349 . S
C886 H880 0.950 . S
C886 C887 1.327 . S
C887 H881 0.950 . S
C887 C886 1.327 . S
C887 C891 1.429 . S
C888 C871 1.574 . S
C888 H882 0.949 . S
C888 C892 1.368 . S
C889 C870 1.429 . S
C889 C883 1.429 . S
C889 C890 1.523 . S
C890 C871 1.368 . S
C890 C884 1.368 . S
C890 C889 1.523 . S
C891 C875 1.429 . S
C891 C887 1.429 . S
C891 C892 1.523 . S
C892 C876 1.368 . S
C892 C888 1.368 . S
C892 C891 1.523 . S
H893 C868 0.950 . S
H894 C870 0.950 . S
H895 C871 0.949 . S
H896 C873 0.950 . S
H897 C875 0.950 . S
C898 C899 1.349 . S
C898 C900 1.327 . S
C898 H923 0.950 1_556 S
C899 C898 1.349 . S
C899 C915 1.349 . S
C900 C898 1.327 . S
C900 C919 1.429 . S
C900 H924 0.950 . S
C901 C918 1.574 . S
C901 C920 1.368 . S
C901 H925 0.949 . S
H902 C906 0.949 . S
C903 C904 1.349 . S
C903 C905 1.327 . S
C903 H926 0.950 . S
C904 C903 1.349 . S
C904 C916 1.349 . S
C905 C903 1.327 . S
C905 C921 1.429 . S
C905 H927 0.950 . S
C906 H902 0.949 . S
C906 C914 1.574 . S
C906 C922 1.368 . S
H907 C915 0.950 . S
H908 C913 0.950 . S
H909 C914 0.949 . S
H910 C916 0.950 . S
H911 C917 0.950 . S
H912 C918 0.949 . S
C913 H908 0.950 . S
C913 C915 1.327 . S
C913 C919 1.429 . S
C914 C906 1.574 . S
C914 H909 0.949 . S
C914 C920 1.368 . S
C915 C899 1.349 . S
C915 H907 0.950 . S
C915 C913 1.327 . S
C916 C904 1.349 . S
C916 H910 0.950 . S
C916 C917 1.327 . S
C917 H911 0.950 . S
C917 C916 1.327 . S
C917 C921 1.429 . S
C918 C901 1.574 . S
C918 H912 0.949 . S
C918 C922 1.368 . S
C919 C900 1.429 . S
C919 C913 1.429 . S
C919 C920 1.523 . S
C920 C901 1.368 . S
C920 C914 1.368 . S
C920 C919 1.523 . S
C921 C905 1.429 . S
C921 C917 1.429 . S
C921 C922 1.523 . S
C922 C906 1.368 . S
C922 C918 1.368 . S
C922 C921 1.523 . S
H923 C898 0.950 1_554 S
H924 C900 0.950 . S
H925 C901 0.949 . S
H926 C903 0.950 . S
H927 C905 0.950 . S
C928 C929 1.349 . S
C928 C930 1.327 . S
C928 H953 0.950 . S
C929 C928 1.349 . S
C929 C945 1.349 . S
C930 C928 1.327 . S
C930 C949 1.429 . S
C930 H954 0.950 . S
C931 C948 1.574 . S
C931 C950 1.368 . S
C931 H955 0.949 . S
H932 C936 0.949 . S
C933 C934 1.349 . S
C933 C935 1.327 . S
C933 H956 0.950 . S
C934 C933 1.349 . S
C934 C946 1.349 . S
C935 C933 1.327 . S
C935 C951 1.429 . S
C935 H957 0.950 . S
C936 H932 0.949 . S
C936 C944 1.574 . S
C936 C952 1.368 . S
H937 C945 0.950 . S
H938 C943 0.950 . S
H939 C944 0.949 . S
H940 C946 0.950 . S
H941 C947 0.950 . S
H942 C948 0.949 . S
C943 H938 0.950 . S
C943 C945 1.327 . S
C943 C949 1.429 . S
C944 C936 1.574 . S
C944 H939 0.949 . S
C944 C950 1.368 . S
C945 C929 1.349 . S
C945 H937 0.950 . S
C945 C943 1.327 . S
C946 C934 1.349 . S
C946 H940 0.950 . S
C946 C947 1.327 . S
C947 H941 0.950 . S
C947 C946 1.327 . S
C947 C951 1.429 . S
C948 C931 1.574 . S
C948 H942 0.949 . S
C948 C952 1.368 . S
C949 C930 1.429 . S
C949 C943 1.429 . S
C949 C950 1.523 . S
C950 C931 1.368 . S
C950 C944 1.368 . S
C950 C949 1.523 . S
C951 C935 1.429 . S
C951 C947 1.429 . S
C951 C952 1.523 . S
C952 C936 1.368 . S
C952 C948 1.368 . S
C952 C951 1.523 . S
H953 C928 0.950 . S
H954 C930 0.950 . S
H955 C931 0.949 . S
H956 C933 0.950 . S
H957 C935 0.950 . S
C958 C959 1.349 . S
C958 C960 1.327 . S
C958 H983 0.950 . S
C959 C958 1.349 . S
C959 C975 1.349 . S
C960 C958 1.327 . S
C960 C979 1.429 . S
C960 H984 0.950 . S
C961 C978 1.574 . S
C961 C980 1.368 . S
C961 H985 0.949 . S
H962 C966 0.949 . S
C963 C964 1.349 . S
C963 C965 1.327 . S
C963 H986 0.950 . S
C964 C963 1.349 . S
C964 C976 1.349 . S
C965 C963 1.327 . S
C965 C981 1.429 . S
C965 H987 0.950 . S
C966 H962 0.949 . S
C966 C974 1.574 . S
C966 C982 1.368 . S
H967 C975 0.950 . S
H968 C973 0.950 . S
H969 C974 0.949 . S
H970 C976 0.950 . S
H971 C977 0.950 . S
H972 C978 0.949 . S
C973 H968 0.950 . S
C973 C975 1.327 . S
C973 C979 1.429 . S
C974 C966 1.574 . S
C974 H969 0.949 . S
C974 C980 1.368 . S
C975 C959 1.349 . S
C975 H967 0.950 . S
C975 C973 1.327 . S
C976 C964 1.349 . S
C976 H970 0.950 . S
C976 C977 1.327 . S
C977 H971 0.950 . S
C977 C976 1.327 . S
C977 C981 1.429 . S
C978 C961 1.574 . S
C978 H972 0.949 . S
C978 C982 1.368 . S
C979 C960 1.429 . S
C979 C973 1.429 . S
C979 C980 1.523 . S
C980 C961 1.368 . S
C980 C974 1.368 . S
C980 C979 1.523 . S
C981 C965 1.429 . S
C981 C977 1.429 . S
C981 C982 1.523 . S
C982 C966 1.368 . S
C982 C978 1.368 . S
C982 C981 1.523 . S
H983 C958 0.950 . S
H984 C960 0.950 . S
H985 C961 0.949 . S
H986 C963 0.950 . S
H987 C965 0.950 . S
C988 C989 1.349 . S
C988 C990 1.327 . S
C988 H1013 0.950 . S
C989 C988 1.349 . S
C989 C1005 1.349 . S
C990 C988 1.327 . S
C990 C1009 1.429 . S
C990 H1014 0.950 . S
C991 C1008 1.574 . S
C991 C1010 1.368 . S
C991 H1015 0.949 . S
H992 C996 0.949 . S
C993 C994 1.349 . S
C993 C995 1.327 . S
C993 H1016 0.950 . S
C994 C993 1.349 . S
C994 C1006 1.349 . S
C995 C993 1.327 . S
C995 C1011 1.429 . S
C995 H1017 0.950 . S
C996 H992 0.949 . S
C996 C1004 1.574 . S
C996 C1012 1.368 . S
H997 C1005 0.950 . S
H998 C1003 0.950 . S
H999 C1004 0.949 . S
H1000 C1006 0.950 . S
H1001 C1007 0.950 . S
H1002 C1008 0.949 . S
C1003 H998 0.950 . S
C1003 C1005 1.327 . S
C1003 C1009 1.429 . S
C1004 C996 1.574 . S
C1004 H999 0.949 . S
C1004 C1010 1.368 . S
C1005 C989 1.349 . S
C1005 H997 0.950 . S
C1005 C1003 1.327 . S
C1006 C994 1.349 . S
C1006 H1000 0.950 . S
C1006 C1007 1.327 . S
C1007 H1001 0.950 . S
C1007 C1006 1.327 . S
C1007 C1011 1.429 . S
C1008 C991 1.574 . S
C1008 H1002 0.949 . S
C1008 C1012 1.368 . S
C1009 C990 1.429 . S
C1009 C1003 1.429 . S
C1009 C1010 1.523 . S
C1010 C991 1.368 . S
C1010 C1004 1.368 . S
C1010 C1009 1.523 . S
C1011 C995 1.429 . S
C1011 C1007 1.429 . S
C1011 C1012 1.523 . S
C1012 C996 1.368 . S
C1012 C1008 1.368 . S
C1012 C1011 1.523 . S
H1013 C988 0.950 . S
H1014 C990 0.950 . S
H1015 C991 0.949 . S
H1016 C993 0.950 . S
H1017 C995 0.950 . S
C1018 C1019 1.349 . S
C1018 C1020 1.327 . S
C1018 H1043 0.950 . S
C1019 C1018 1.349 . S
C1019 C1035 1.349 . S
C1020 C1018 1.327 . S
C1020 C1039 1.429 . S
C1020 H1044 0.950 . S
C1021 C1038 1.574 . S
C1021 C1040 1.368 . S
C1021 H1045 0.949 . S
H1022 C1026 0.949 . S
C1023 C1024 1.349 . S
C1023 C1025 1.327 . S
C1023 H1046 0.950 . S
C1024 C1023 1.349 . S
C1024 C1036 1.349 . S
C1025 C1023 1.327 . S
C1025 C1041 1.429 . S
C1025 H1047 0.950 . S
C1026 H1022 0.949 . S
C1026 C1034 1.574 . S
C1026 C1042 1.368 . S
H1027 C1035 0.950 . S
H1028 C1033 0.950 . S
H1029 C1034 0.949 . S
H1030 C1036 0.950 . S
H1031 C1037 0.950 . S
H1032 C1038 0.949 . S
C1033 H1028 0.950 . S
C1033 C1035 1.327 . S
C1033 C1039 1.429 . S
C1034 C1026 1.574 . S
C1034 H1029 0.949 . S
C1034 C1040 1.368 . S
C1035 C1019 1.349 . S
C1035 H1027 0.950 . S
C1035 C1033 1.327 . S
C1036 C1024 1.349 . S
C1036 H1030 0.950 . S
C1036 C1037 1.327 . S
C1037 H1031 0.950 . S
C1037 C1036 1.327 . S
C1037 C1041 1.429 . S
C1038 C1021 1.574 . S
C1038 H1032 0.949 . S
C1038 C1042 1.368 . S
C1039 C1020 1.429 . S
C1039 C1033 1.429 . S
C1039 C1040 1.523 . S
C1040 C1021 1.368 . S
C1040 C1034 1.368 . S
C1040 C1039 1.523 . S
C1041 C1025 1.429 . S
C1041 C1037 1.429 . S
C1041 C1042 1.523 . S
C1042 C1026 1.368 . S
C1042 C1038 1.368 . S
C1042 C1041 1.523 . S
H1043 C1018 0.950 . S
H1044 C1020 0.950 . S
H1045 C1021 0.949 . S
H1046 C1023 0.950 . S
H1047 C1025 0.950 . S
C1048 C1049 1.349 . S
C1048 C1050 1.327 . S
C1048 H1073 0.950 . S
C1049 C1048 1.349 . S
C1049 C1065 1.349 . S
C1050 C1048 1.327 . S
C1050 C1069 1.429 . S
C1050 H1074 0.950 . S
C1051 C1068 1.574 . S
C1051 C1070 1.368 . S
C1051 H1075 0.949 1_655 S
H1052 C1056 0.949 . S
C1053 C1054 1.349 1_455 S
C1053 C1055 1.327 . S
C1053 H1076 0.950 . S
C1054 C1053 1.349 1_655 S
C1054 C1066 1.349 . S
C1055 C1053 1.327 . S
C1055 C1071 1.429 1_455 S
C1055 H1077 0.950 . S
C1056 H1052 0.949 . S
C1056 C1064 1.574 . S
C1056 C1072 1.368 . S
H1057 C1065 0.950 . S
H1058 C1063 0.950 1_455 S
H1059 C1064 0.949 . S
H1060 C1066 0.950 . S
H1061 C1067 0.950 . S
H1062 C1068 0.949 1_455 S
C1063 H1058 0.950 1_655 S
C1063 C1065 1.327 . S
C1063 C1069 1.429 . S
C1064 C1056 1.574 . S
C1064 H1059 0.949 . S
C1064 C1070 1.368 . S
C1065 C1049 1.349 . S
C1065 H1057 0.950 . S
C1065 C1063 1.327 . S
C1066 C1054 1.349 . S
C1066 H1060 0.950 . S
C1066 C1067 1.327 . S
C1067 H1061 0.950 . S
C1067 C1066 1.327 . S
C1067 C1071 1.429 . S
C1068 C1051 1.574 . S
C1068 H1062 0.949 1_655 S
C1068 C1072 1.368 . S
C1069 C1050 1.429 . S
C1069 C1063 1.429 . S
C1069 C1070 1.523 . S
C1070 C1051 1.368 . S
C1070 C1064 1.368 . S
C1070 C1069 1.523 . S
C1071 C1055 1.429 1_655 S
C1071 C1067 1.429 . S
C1071 C1072 1.523 . S
C1072 C1056 1.368 . S
C1072 C1068 1.368 . S
C1072 C1071 1.523 . S
H1073 C1048 0.950 . S
H1074 C1050 0.950 . S
H1075 C1051 0.949 1_455 S
H1076 C1053 0.950 . S
H1077 C1055 0.950 . S
C1078 C1079 1.349 . S
C1078 C1080 1.327 . S
C1078 H1103 0.950 . S
C1079 C1078 1.349 . S
C1079 C1095 1.349 . S
C1080 C1078 1.327 . S
C1080 C1099 1.429 . S
C1080 H1104 0.950 . S
C1081 C1098 1.574 . S
C1081 C1100 1.368 . S
C1081 H1105 0.949 . S
H1082 C1086 0.949 . S
C1083 C1084 1.349 . S
C1083 C1085 1.327 . S
C1083 H1106 0.945 1_565 S
C1084 C1083 1.349 . S
C1084 C1096 1.349 . S
C1085 C1083 1.327 . S
C1085 C1101 1.429 . S
C1085 H1107 0.950 . S
C1086 H1082 0.949 . S
C1086 C1094 1.574 . S
C1086 C1102 1.368 . S
H1087 C1095 0.950 . S
H1088 C1093 0.950 . S
H1089 C1094 0.949 . S
H1090 C1096 0.950 . S
H1091 C1097 0.950 . S
H1092 C1098 0.949 . S
C1093 H1088 0.950 . S
C1093 C1095 1.327 . S
C1093 C1099 1.429 . S
C1094 C1086 1.574 . S
C1094 H1089 0.949 . S
C1094 C1100 1.368 . S
C1095 C1079 1.349 . S
C1095 H1087 0.950 . S
C1095 C1093 1.327 . S
C1096 C1084 1.349 . S
C1096 H1090 0.950 . S
C1096 C1097 1.327 . S
C1097 H1091 0.950 . S
C1097 C1096 1.327 . S
C1097 C1101 1.429 . S
C1098 C1081 1.574 . S
C1098 H1092 0.949 . S
C1098 C1102 1.368 . S
C1099 C1080 1.429 . S
C1099 C1093 1.429 . S
C1099 C1100 1.523 . S
C1100 C1081 1.368 . S
C1100 C1094 1.368 . S
C1100 C1099 1.523 . S
C1101 C1085 1.429 . S
C1101 C1097 1.429 . S
C1101 C1102 1.523 . S
C1102 C1086 1.368 . S
C1102 C1098 1.368 . S
C1102 C1101 1.523 . S
H1103 C1078 0.950 . S
H1104 C1080 0.950 . S
H1105 C1081 0.949 . S
H1106 C1083 0.945 1_545 S
H1107 C1085 0.950 . S
C1108 C1109 1.349 . S
C1108 C1110 1.327 . S
C1108 H1133 0.950 . S
C1109 C1108 1.349 . S
C1109 C1125 1.349 . S
C1110 C1108 1.327 . S
C1110 C1129 1.429 . S
C1110 H1134 0.950 . S
C1111 C1128 1.574 . S
C1111 C1130 1.368 . S
C1111 H1135 0.949 . S
H1112 C1116 0.949 . S
C1113 C1114 1.349 . S
C1113 C1115 1.327 . S
C1113 H1136 0.950 . S
C1114 C1113 1.349 . S
C1114 C1126 1.349 . S
C1115 C1113 1.327 . S
C1115 C1131 1.429 . S
C1115 H1137 0.950 . S
C1116 H1112 0.949 . S
C1116 C1124 1.574 . S
C1116 C1132 1.368 . S
H1117 C1125 0.950 . S
H1118 C1123 0.950 . S
H1119 C1124 0.949 . S
H1120 C1126 0.950 . S
H1121 C1127 0.950 . S
H1122 C1128 0.949 . S
C1123 H1118 0.950 . S
C1123 C1125 1.327 . S
C1123 C1129 1.429 . S
C1124 C1116 1.574 . S
C1124 H1119 0.949 . S
C1124 C1130 1.368 . S
C1125 C1109 1.349 . S
C1125 H1117 0.950 . S
C1125 C1123 1.327 . S
C1126 C1114 1.349 . S
C1126 H1120 0.950 . S
C1126 C1127 1.327 . S
C1127 H1121 0.950 . S
C1127 C1126 1.327 . S
C1127 C1131 1.429 . S
C1128 C1111 1.574 . S
C1128 H1122 0.949 . S
C1128 C1132 1.368 . S
C1129 C1110 1.429 . S
C1129 C1123 1.429 . S
C1129 C1130 1.523 . S
C1130 C1111 1.368 . S
C1130 C1124 1.368 . S
C1130 C1129 1.523 . S
C1131 C1115 1.429 . S
C1131 C1127 1.429 . S
C1131 C1132 1.523 . S
C1132 C1116 1.368 . S
C1132 C1128 1.368 . S
C1132 C1131 1.523 . S
H1133 C1108 0.950 . S
H1134 C1110 0.950 . S
H1135 C1111 0.949 . S
H1136 C1113 0.950 . S
H1137 C1115 0.950 . S
C1138 C1139 1.349 . S
C1138 C1140 1.327 . S
C1138 H1163 0.950 . S
C1139 C1138 1.349 . S
C1139 C1155 1.349 . S
C1140 C1138 1.327 . S
C1140 C1159 1.429 . S
C1140 H1164 0.950 . S
C1141 C1158 1.574 . S
C1141 C1160 1.368 . S
C1141 H1165 0.949 . S
H1142 C1146 0.949 . S
C1143 C1144 1.349 . S
C1143 C1145 1.327 . S
C1143 H1166 0.950 . S
C1144 C1143 1.349 . S
C1144 C1156 1.349 . S
C1145 C1143 1.327 . S
C1145 C1161 1.429 . S
C1145 H1167 0.950 . S
C1146 H1142 0.949 . S
C1146 C1154 1.574 . S
C1146 C1162 1.368 . S
H1147 C1155 0.950 . S
H1148 C1153 0.950 . S
H1149 C1154 0.949 . S
H1150 C1156 0.950 . S
H1151 C1157 0.950 . S
H1152 C1158 0.949 . S
C1153 H1148 0.950 . S
C1153 C1155 1.327 . S
C1153 C1159 1.429 . S
C1154 C1146 1.574 . S
C1154 H1149 0.949 . S
C1154 C1160 1.368 . S
C1155 C1139 1.349 . S
C1155 H1147 0.950 . S
C1155 C1153 1.327 . S
C1156 C1144 1.349 . S
C1156 H1150 0.950 . S
C1156 C1157 1.327 . S
C1157 H1151 0.950 . S
C1157 C1156 1.327 . S
C1157 C1161 1.429 . S
C1158 C1141 1.574 . S
C1158 H1152 0.949 . S
C1158 C1162 1.368 . S
C1159 C1140 1.429 . S
C1159 C1153 1.429 . S
C1159 C1160 1.523 . S
C1160 C1141 1.368 . S
C1160 C1154 1.368 . S
C1160 C1159 1.523 . S
C1161 C1145 1.429 . S
C1161 C1157 1.429 . S
C1161 C1162 1.523 . S
C1162 C1146 1.368 . S
C1162 C1158 1.368 . S
C1162 C1161 1.523 . S
H1163 C1138 0.950 . S
H1164 C1140 0.950 . S
H1165 C1141 0.949 . S
H1166 C1143 0.950 . S
H1167 C1145 0.950 . S
C449 C241 2.562 . S
C454 C319 2.742 . S
C484 C345 2.000 . S
C479 C277 1.894 . S
C514 C385 2.103 . S
C509 C169 1.961 . S
C544 C439 2.687 . S
C539 C205 2.536 . S
C574 C300 2.742 . S
C569 C97 2.521 . S
C599 C133 1.861 . S
C604 C330 2.000 . S
C629 C25 1.921 . S
C634 C370 2.102 . S
C659 C61 2.508 . S
C664 C420 2.688 1_655 S
C694 C296 0.276 . S
C689 C211 0.322 . S
C724 C357 0.473 . S
C719 C247 0.454 . S
C754 C397 0.255 . S
C749 C253 0.171 . S
C779 C175 0.471 . S
C784 C416 0.371 . S
C809 C67 0.473 . S
C814 C317 0.279 . S
C844 C336 0.473 . S
C839 C103 0.509 . S
C874 C376 0.256 . S
C869 C109 0.213 . S
C899 C31 0.630 1_556 S
C904 C437 0.371 . S
C929 C181 2.287 . S
C934 C290 2.521 . S
C959 C217 3.074 . S
C964 C340 3.316 . S
C994 C380 2.992 . S
C989 C283 2.725 . S
C1024 C410 2.252 . S
C1019 C145 2.064 . S
C1049 C37 2.269 . S
C1054 C305 2.522 . S
C1084 C359 3.317 . S
C1079 C73 3.048 . S
C1114 C399 2.992 . S
C1109 C139 2.686 . S
C1139 C1 2.036 . S
C1144 C425 2.253 . S
