# Generated by pormake.
# Topology zzz, (3,6)-cn, num edge types: 1
# Building blocks:
#     Node 0, Type 0, BuildingBlock: QEWDON_clean_linker_0, # of connection points: 3
#     Node 1, Type 0, BuildingBlock: QEWDON_clean_linker_0, # of connection points: 3
#     Node 2, Type 0, BuildingBlock: QEWDON_clean_linker_0, # of connection points: 3
#     Node 3, Type 0, BuildingBlock: QEWDON_clean_linker_0, # of connection points: 3
#     Node 4, Type 0, BuildingBlock: QEWDON_clean_linker_0, # of connection points: 3
#     Node 5, Type 0, BuildingBlock: QEWDON_clean_linker_0, # of connection points: 3
#     Node 6, Type 0, BuildingBlock: QEWDON_clean_linker_0, # of connection points: 3
#     Node 7, Type 0, BuildingBlock: QEWDON_clean_linker_0, # of connection points: 3
#     Node 8, Type 1, BuildingBlock: BETGAK_clean_sbu_0, # of connection points: 6
#     Node 9, Type 1, BuildingBlock: BETGAK_clean_sbu_0, # of connection points: 6
#     Node 10, Type 1, BuildingBlock: BETGAK_clean_sbu_0, # of connection points: 6
#     Node 11, Type 1, BuildingBlock: BETGAK_clean_sbu_0, # of connection points: 6
#     Edge 12, Type (0, 1), None
#     Edge 13, Type (0, 1), None
#     Edge 14, Type (0, 1), None
#     Edge 15, Type (0, 1), None
#     Edge 16, Type (0, 1), None
#     Edge 17, Type (0, 1), None
#     Edge 18, Type (0, 1), None
#     Edge 19, Type (0, 1), None
#     Edge 20, Type (0, 1), None
#     Edge 21, Type (0, 1), None
#     Edge 22, Type (0, 1), None
#     Edge 23, Type (0, 1), None
#     Edge 24, Type (0, 1), None
#     Edge 25, Type (0, 1), None
#     Edge 26, Type (0, 1), None
#     Edge 27, Type (0, 1), None
#     Edge 28, Type (0, 1), None
#     Edge 29, Type (0, 1), None
#     Edge 30, Type (0, 1), None
#     Edge 31, Type (0, 1), None
#     Edge 32, Type (0, 1), None
#     Edge 33, Type (0, 1), None
#     Edge 34, Type (0, 1), None
#     Edge 35, Type (0, 1), None
# Relax obj value: 0.459
# Max RMSD: 0.228
# Mean RMSD: 0.111
data_MOF--net-zzz--node1-BETGAK_clean_sbu_0--node2-QEWDON_clean_linker_0--edge1-none
_symmetry_space_group_name_H-M    P1
_symmetry_Int_Tables_number       1
_symmetry_cell_setting            triclinic
loop_
_symmetry_equiv_pos_as_xyz
'x, y, z'
_cell_length_a     27.306665
_cell_length_b     27.304548
_cell_length_c     7.7724993
_cell_angle_alpha  89.296668
_cell_angle_beta   89.565805
_cell_angle_gamma 90.024506
loop_
_atom_site_label
_atom_site_type_symbol
_atom_site_fract_x
_atom_site_fract_y
_atom_site_fract_z
_atom_type_partial_charge
H0 H 0.71745 0.49391 0.57864 0.0
C1 C 0.75407 0.49503 0.63088 0.0
C2 C 0.7919 0.47021 0.54486 0.0
C3 C 0.76454 0.52276 0.77967 0.0
H4 H 0.86883 0.45262 0.54778 0.0
C5 C 0.83956 0.47312 0.60768 0.0
C6 C 0.85214 0.50823 0.7243 0.0
C7 C 0.81474 0.53096 0.8199 0.0
C8 C 0.72375 0.5447 0.8859 0.0
H9 H 0.82526 0.55453 0.92388 0.0
C10 C 0.67618 0.52366 0.8906 0.0
C11 C 0.63762 0.54542 -0.0145 0.0
C12 C 0.73173 0.58722 -0.01676 0.0
H13 H 0.7666 0.60593 -0.01855 0.0
C14 C 0.69421 0.60759 0.0821 0.0
H15 H 0.66862 0.49098 0.81797 0.0
C16 C 0.64744 0.5872 0.08233 0.0
H17 H 0.61852 0.60477 0.15519 0.0
H18 H 0.70114 0.64026 0.15558 0.0
H19 H 0.05372 0.72376 0.57466 0.0
C20 C 0.05399 0.75939 0.63433 0.0
C21 C 0.08151 0.79711 0.55653 0.0
C22 C 0.02508 0.76874 0.78295 0.0
H23 H 0.10224 0.87307 0.57293 0.0
C24 C 0.08008 0.84383 0.62742 0.0
C25 C 0.04369 0.85634 0.7418 0.0
C26 C 1.01835 0.81864 0.83079 0.0
C27 C 1.00037 0.72692 0.87862 0.0
H28 H 0.99377 0.82855 0.93428 0.0
C29 C 1.01995 0.67884 0.8737 0.0
C30 C 0.99587 0.63879 0.95534 0.0
C31 C 0.9568 0.73406 -0.0265 0.0
H32 H 0.93947 0.76957 -0.02044 0.0
C33 C 0.93377 0.69486 0.05902 0.0
H34 H 0.05383 0.6722 0.80481 0.0
C35 C 0.95283 0.64752 0.04902 0.0
H36 H 0.9335 0.61757 0.11224 0.0
H37 H 0.90023 0.70109 0.13055 0.0
H38 H 0.82546 0.04436 0.56723 0.0
C39 C 0.78965 0.04268 0.62792 0.0
C40 C 0.75005 0.0663 0.54796 0.0
C41 C 0.78205 1.01538 0.78234 0.0
H42 H 0.67327 0.08189 0.55971 0.0
C43 C 0.70345 0.06331 0.62234 0.0
C44 C 0.69359 0.03093 0.75652 0.0
C45 C 0.73302 1.00764 0.83936 0.0
C46 C 0.82463 0.99391 0.87976 0.0
H47 H 0.72512 0.98431 0.94941 0.0
C48 C 0.87112 1.01693 0.87711 0.0
C49 C 0.9115 0.99617 -0.03491 0.0
C50 C 0.81933 0.95022 -0.02317 0.0
H51 H 0.78512 0.93029 -0.01979 0.0
C52 C 0.85869 0.93057 0.06846 0.0
H53 H 0.87625 0.05065 0.80444 0.0
C54 C 0.90452 0.95312 0.06206 0.0
H55 H 0.93485 0.93633 0.12985 0.0
H56 H 0.85389 0.89695 0.14192 0.0
H57 H 0.50157 0.82978 0.56763 0.0
C58 C 0.5045 0.79334 0.62319 0.0
C59 C 0.48281 0.75361 0.53869 0.0
C60 C 0.53149 0.78496 0.77619 0.0
H61 H 0.46946 0.67627 0.54375 0.0
C62 C 0.48691 0.70647 0.60862 0.0
C63 C 0.51886 0.69647 0.74164 0.0
C64 C 0.54069 0.73568 0.827 0.0
C65 C 0.55111 0.82658 0.88084 0.0
H66 H 0.56379 0.72726 0.93555 0.0
C67 C 0.52678 0.8724 0.88871 0.0
C68 C 0.54566 0.91088 -0.01071 0.0
C69 C 0.5943 0.82043 -0.02258 0.0
H70 H 0.61559 0.78713 -0.02857 0.0
C71 C 0.61172 0.85764 0.08178 0.0
H72 H 0.49397 0.87862 0.81422 0.0
C73 C 0.58775 0.90254 0.08758 0.0
H74 H 0.60311 0.9315 0.16465 0.0
H75 H 0.6448 0.85206 0.15529 0.0
H76 H 0.25722 0.60023 0.02542 0.0
C77 C 0.22995 0.57196 0.00643 0.0
C78 C 0.19187 0.566 0.1254 0.0
C79 C 0.2313 0.54286 0.85852 0.0
H80 H 0.12861 0.52438 0.19885 0.0
C81 C 0.15717 0.52901 0.10266 0.0
C82 C 0.15099 0.50804 0.94272 0.0
C83 C 0.18979 0.51321 0.82048 0.0
C84 C 0.2731 0.55001 0.73654 0.0
H85 H 0.1869 0.49627 0.69574 0.0
C86 C 0.31715 0.5236 0.75721 0.0
C87 C 0.35959 0.53646 0.66028 0.0
C88 C 0.27278 0.59013 0.62222 0.0
H89 H 0.24203 0.61506 0.62007 0.0
C90 C 0.31251 0.59938 0.51282 0.0
H91 H 0.31946 0.49619 0.85889 0.0
C92 C 0.35564 0.57252 0.53057 0.0
H93 H 0.3872 0.58312 0.45357 0.0
H94 H 0.31088 0.62945 0.4211 0.0
H95 H 0.94292 0.26007 0.03855 0.0
C96 C 0.97229 0.23402 0.01783 0.0
C97 C 0.9801 0.19663 0.13805 0.0
C98 C 1.00068 0.23608 0.86624 0.0
H99 H 0.02491 0.13581 0.21105 0.0
C100 C 1.01855 0.16359 0.11321 0.0
C101 C 0.0384 0.1571 0.95013 0.0
C102 C 0.0314 0.19535 0.82622 0.0
C103 C 0.99077 0.27734 0.74386 0.0
H104 H 0.0476 0.19249 0.69919 0.0
C105 C 1.01613 0.32228 0.75649 0.0
C106 C 0.99901 0.36515 0.67017 0.0
C107 C 0.94814 0.27603 0.64464 0.0
H108 H 0.92497 0.24386 0.64668 0.0
C109 C 0.9336 0.31672 0.54784 0.0
H110 H 0.04631 0.32479 0.84574 0.0
C111 C 0.95866 0.36107 0.56063 0.0
H112 H 0.94404 0.39308 0.4962 0.0
H113 H 0.9008 0.31454 0.47147 0.0
H114 H 0.29365 0.93705 0.07181 0.0
C115 C 0.31843 0.96757 0.04987 0.0
C116 C 0.35719 0.97521 0.16309 0.0
C117 C 0.31301 0.99837 0.90422 0.0
H118 H 0.41869 1.01995 0.22532 0.0
C119 C 0.38894 1.01476 0.13581 0.0
C120 C 0.39041 0.03937 -0.02135 0.0
C121 C 0.35088 0.03252 0.86346 0.0
C122 C 0.27184 0.98856 0.78424 0.0
H123 H 0.351 0.0512 0.73971 0.0
C124 C 0.22811 1.01623 0.78886 0.0
C125 C 0.18624 1.0014 0.69468 0.0
C126 C 0.2733 0.94628 0.68379 0.0
H127 H 0.305 0.92248 0.68693 0.0
C128 C 0.23376 0.93369 0.5808 0.0
H129 H 0.22558 0.04676 0.87627 0.0
C130 C 0.1905 0.96087 0.58626 0.0
H131 H 0.15922 0.94808 0.51534 0.0
H132 H 0.23591 0.90115 0.50326 0.0
H133 H 0.60651 0.2955 0.05944 0.0
C134 C 0.57675 0.32117 0.03945 0.0
C135 C 0.57051 0.3604 0.15172 0.0
C136 C 0.54537 0.31637 0.89735 0.0
H137 H 0.52823 0.42376 0.21427 0.0
C138 C 0.53204 0.39341 0.12649 0.0
C139 C 0.50643 0.39467 -0.02689 0.0
C140 C 0.51188 0.35476 0.85939 0.0
C141 C 0.55331 0.27513 0.77664 0.0
H142 H 0.49257 0.35495 0.73812 0.0
C143 C 0.52471 0.2321 0.78667 0.0
C144 C 0.53619 0.19115 0.68302 0.0
C145 C 0.59362 0.27645 0.6639 0.0
H146 H 0.61864 0.3072 0.66423 0.0
C147 C 0.60206 0.23832 0.54957 0.0
H148 H 0.49626 0.22923 0.88426 0.0
C149 C 0.57343 0.19601 0.55805 0.0
H150 H 0.58315 0.16561 0.47631 0.0
H151 H 0.63244 0.24061 0.45957 0.0
La152 La 0.07172 0.99499 -0.02158 0.0
La153 La 0.02448 1.01951 0.67696 0.0
C154 C 0.11431 0.94271 0.19749 0.0
C155 C 0.10906 0.88973 0.23294 0.0
C156 C 0.15052 0.8614 0.27324 0.0
C157 C 0.14433 0.81386 0.34113 0.0
C158 C 0.09651 0.79657 0.37382 0.0
C159 C 0.05907 0.81676 0.27234 0.0
C160 C 0.06347 0.86594 0.2221 0.0
C161 C 0.13649 1.02032 0.73954 0.0
C162 C 0.03539 0.90931 0.76506 0.0
C163 C 0.97717 0.04094 0.41278 0.0
C164 C 0.94802 0.08636 0.39639 0.0
C165 C 0.96097 0.12648 0.49778 0.0
C166 C 0.95838 0.17358 0.42813 0.0
C167 C 0.94188 0.17991 0.25953 0.0
C168 C 0.91178 0.14285 0.19259 0.0
C169 C 0.91722 0.0949 0.25635 0.0
C170 C 0.96178 1.01596 0.93999 0.0
C171 C 0.05352 0.10558 0.90907 0.0
O172 O 0.1322 0.95215 0.04534 0.0
O173 O 0.07767 0.97195 0.2375 0.0
O174 O 0.13208 0.04032 0.88819 0.0
O175 O 0.09856 0.99414 0.71626 0.0
O176 O 0.03561 0.92648 0.91987 0.0
O177 O 0.03782 0.94091 0.63489 0.0
O178 O 0.96139 1.00907 0.52657 0.0
O179 O 0.02457 0.0482 0.42549 0.0
O180 O 0.96807 0.0529 0.83884 0.0
O181 O 0.99624 0.98685 0.90965 0.0
O182 O 0.05418 0.09135 0.7475 0.0
O183 O 0.05362 0.07142 0.03367 0.0
H184 H 0.18673 0.8775 0.26837 0.0
H185 H 0.17527 0.79622 0.40238 0.0
H186 H 1.02247 0.80141 0.28048 0.0
H187 H 0.03053 0.88578 0.19017 0.0
H188 H 0.98137 0.12131 0.61399 0.0
H189 H 0.98228 0.20066 0.4824 0.0
H190 H 0.89507 0.14781 0.06755 0.0
H191 H 0.90187 0.06488 0.18698 0.0
La192 La 0.55145 0.07224 0.93867 0.0
La193 La 0.5258 0.02614 0.71619 0.0
C194 C 0.61127 0.10998 0.14856 0.0
C195 C 0.66291 0.10233 0.19497 0.0
C196 C 0.69047 0.1414 0.25915 0.0
C197 C 0.73504 0.13201 0.34193 0.0
C198 C 0.75026 0.08321 0.36726 0.0
C199 C 0.73055 0.04759 0.25859 0.0
C200 C 0.6845 0.05584 0.18631 0.0
C201 C 0.51923 0.14117 0.73395 0.0
C202 C 0.642 1.02078 0.80553 0.0
C203 C 0.5115 0.97395 0.4564 0.0
C204 C 0.46588 0.94478 0.43841 0.0
C205 C 0.42407 0.95902 0.53161 0.0
C206 C 0.37801 0.95583 0.45672 0.0
C207 C 0.37422 0.9383 0.28896 0.0
C208 C 0.41255 0.90828 0.2286 0.0
C209 C 0.45918 0.9127 0.30188 0.0
C210 C 0.52729 0.96179 -0.02703 0.0
C211 C 0.43962 0.05812 0.9246 0.0
O212 O 0.60407 0.12609 -0.00627 0.0
O213 O 0.5801 0.07544 0.18966 0.0
O214 O 0.50456 0.13461 0.89104 0.0
O215 O 0.54328 0.10373 0.68581 0.0
O216 O 0.60522 0.0453 0.74242 0.0
O217 O 0.60613 0.04669 0.73087 0.0
O218 O 0.54077 0.96099 0.5793 0.0
O219 O 0.50465 1.02118 0.45699 0.0
O220 O 0.48927 0.97164 0.88237 0.0
O221 O 0.55858 0.99429 0.9425 0.0
O222 O 0.45258 0.05487 0.76401 0.0
O223 O 0.47617 0.06002 0.03529 0.0
H224 H 0.67534 0.17806 0.26116 0.0
H225 H 0.7512 0.16094 0.41695 0.0
H226 H 0.74321 1.01003 0.26857 0.0
H227 H 0.66414 0.02502 0.1382 0.0
H228 H 0.42726 0.97991 0.64665 0.0
H229 H 0.3496 0.97916 0.50763 0.0
H230 H 0.40969 0.89087 0.10454 0.0
H231 H 0.49007 0.89502 0.24354 0.0
La232 La 0.47645 0.55591 0.92756 0.0
La233 La 0.52409 0.52879 0.70672 0.0
C234 C 0.43813 0.61688 0.13415 0.0
C235 C 0.44622 0.66829 0.18265 0.0
C236 C 0.40741 0.69587 0.25081 0.0
C237 C 0.41716 0.73983 0.33591 0.0
C238 C 0.46605 0.75469 0.3588 0.0
C239 C 0.50156 0.73512 0.24712 0.0
C240 C 0.49293 0.68944 0.1733 0.0
C241 C 0.40909 0.52246 0.72234 0.0
C242 C 0.52971 0.64503 0.78895 0.0
C243 C 0.57819 0.51351 0.4487 0.0
C244 C 0.60593 0.46704 0.43059 0.0
C245 C 0.58929 0.42573 0.52297 0.0
C246 C 0.58934 0.38013 0.4449 0.0
C247 C 0.60746 0.37593 0.27686 0.0
C248 C 0.63967 0.41283 0.21651 0.0
C249 C 0.63789 0.45923 0.29239 0.0
C250 C 0.58604 0.52931 -0.03357 0.0
C251 C 0.48848 0.44384 0.91773 0.0
O252 O 0.42369 0.61025 -0.02197 0.0
O253 O 0.4715 0.58492 0.17751 0.0
O254 O 0.41354 0.5098 0.88222 0.0
O255 O 0.44686 0.54651 0.67423 0.0
O256 O 0.5053 0.60828 0.7278 0.0
O257 O 0.50401 0.60914 0.71621 0.0
O258 O 0.59099 0.54184 0.57311 0.0
O259 O 0.53076 0.50816 0.44739 0.0
O260 O 0.57582 0.4913 0.87741 0.0
O261 O 0.55476 0.56155 0.93269 0.0
O262 O 0.49339 0.4564 0.75674 0.0
O263 O 0.48643 0.48058 0.02723 0.0
H264 H 0.37059 0.68113 0.25376 0.0
H265 H 0.38831 0.75581 0.41343 0.0
H266 H 0.53924 0.74735 0.25568 0.0
H267 H 0.52358 0.66891 0.12307 0.0
H268 H 0.56843 0.42962 0.63923 0.0
H269 H 0.56353 0.35337 0.49422 0.0
H270 H 0.65718 0.40957 0.09162 0.0
H271 H 0.65756 0.48936 0.23502 0.0
La272 La 0.98826 0.47801 -0.03699 0.0
La273 La 1.015 0.52673 0.66412 0.0
C274 C 0.93325 0.43422 0.17386 0.0
C275 C 0.88053 0.44036 0.21223 0.0
C276 C 0.85195 0.39954 0.26076 0.0
C277 C 0.80538 0.40671 0.3344 0.0
C278 C 0.78915 0.45485 0.3638 0.0
C279 C 0.80887 0.49167 0.25595 0.0
C280 C 0.85739 0.48629 0.19976 0.0
C281 C 1.01524 0.41464 0.72565 0.0
C282 C 0.90494 0.5173 0.74674 0.0
C283 C 0.03753 0.57557 0.40132 0.0
C284 C 0.08393 0.60325 0.38582 0.0
C285 C 0.12349 0.58779 0.48683 0.0
C286 C 0.17023 0.58721 0.41496 0.0
C287 C 0.17718 0.60436 0.24629 0.0
C288 C 0.14175 0.63681 0.17936 0.0
C289 C 0.0938 0.63403 0.24479 0.0
C290 C 1.01305 0.58768 0.92842 0.0
C291 C 0.09947 0.49383 0.89999 0.0
O292 O 0.94169 0.41913 0.0185 0.0
O293 O 0.96394 0.46893 0.2199 0.0
O294 O 0.03321 0.41739 0.87806 0.0
O295 O 0.98902 0.4526 0.70044 0.0
O296 O 0.92219 0.5181 0.90148 0.0
O297 O 0.93661 0.51392 0.61821 0.0
O298 O 1.00643 0.59141 0.51591 0.0
O299 O 0.04319 0.52786 0.41238 0.0
O300 O 0.04995 0.58063 0.82883 0.0
O301 O 0.98261 0.55454 0.89614 0.0
O302 O 0.08576 0.49481 0.7376 0.0
O303 O 0.06499 0.49357 0.02312 0.0
H304 H 0.86729 0.36307 0.2572 0.0
H305 H 0.78794 0.37622 0.401 0.0
H306 H 0.79434 0.52856 0.26267 0.0
H307 H 0.87747 0.51879 0.16281 0.0
H308 H 0.11747 0.56727 0.60364 0.0
H309 H 0.19538 0.56066 0.46771 0.0
H310 H 0.14727 0.65368 0.05378 0.0
H311 H 0.06448 0.65137 0.17615 0.0
loop_
_geom_bond_atom_site_label_1
_geom_bond_atom_site_label_2
_geom_bond_distance
_geom_bond_site_symmetry_2
_ccdc_geom_bond_type
H0 C1 0.949 . S
C1 H0 0.949 . S
C1 C2 1.395 . S
C1 C3 1.391 . S
C2 C1 1.395 . S
C2 C5 1.390 . S
C3 C1 1.391 . S
C3 C7 1.387 . S
C3 C8 1.491 . S
H4 C5 0.950 . S
C5 C2 1.390 . S
C5 H4 0.950 . S
C5 C6 1.378 . S
C6 C5 1.378 . S
C6 C7 1.409 . S
C7 C3 1.387 . S
C7 C6 1.409 . S
C7 H9 0.951 1_556 S
C8 C3 1.491 . S
C8 C10 1.382 . S
C8 C12 1.404 . S
H9 C7 0.951 1_554 S
C10 C8 1.382 . S
C10 C11 1.390 . S
C10 H15 0.949 . S
C11 C10 1.390 . S
C11 C16 1.399 . S
C12 C8 1.404 . S
C12 H13 0.950 . S
C12 C14 1.375 . S
H13 C12 0.950 . S
C14 C12 1.375 . S
C14 C16 1.382 . S
C14 H18 0.950 . S
H15 C10 0.949 . S
C16 C11 1.399 . S
C16 C14 1.382 . S
C16 H17 0.952 . S
H17 C16 0.952 . S
H18 C14 0.950 . S
H19 C20 0.949 . S
C20 H19 0.949 . S
C20 C21 1.395 . S
C20 C22 1.391 . S
C21 C20 1.395 . S
C21 C24 1.390 1_655 S
C22 C20 1.391 . S
C22 C26 1.387 . S
C22 C27 1.491 . S
H23 C24 0.950 . S
C24 C21 1.390 1_455 S
C24 H23 0.950 . S
C24 C25 1.377 1_455 S
C25 C24 1.377 1_655 S
C25 C26 1.413 . S
C26 C22 1.387 . S
C26 C25 1.413 . S
C26 H28 0.951 1_556 S
C27 C22 1.491 . S
C27 C29 1.382 . S
C27 C31 1.404 . S
H28 C26 0.951 1_554 S
C29 C27 1.382 . S
C29 C30 1.390 . S
C29 H34 0.949 1_655 S
C30 C29 1.390 . S
C30 C35 1.399 . S
C31 C27 1.404 . S
C31 H32 0.950 . S
C31 C33 1.375 . S
H32 C31 0.950 . S
C33 C31 1.375 . S
C33 C35 1.382 . S
C33 H37 0.950 . S
H34 C29 0.949 1_455 S
C35 C30 1.399 . S
C35 C33 1.382 . S
C35 H36 0.952 . S
H36 C35 0.952 . S
H37 C33 0.950 . S
H38 C39 0.949 . S
C39 H38 0.949 . S
C39 C40 1.395 . S
C39 C41 1.391 . S
C40 C39 1.395 . S
C40 C43 1.390 1_565 S
C41 C39 1.391 . S
C41 C45 1.387 . S
C41 C46 1.491 . S
H42 C43 0.950 . S
C43 C40 1.390 1_545 S
C43 H42 0.950 . S
C43 C44 1.377 1_545 S
C44 C43 1.377 1_565 S
C44 C45 1.413 . S
C45 C41 1.387 . S
C45 C44 1.413 . S
C45 H47 0.951 1_556 S
C46 C41 1.491 . S
C46 C48 1.382 . S
C46 C50 1.404 . S
H47 C45 0.951 1_554 S
C48 C46 1.382 . S
C48 C49 1.390 . S
C48 H53 0.949 1_565 S
C49 C48 1.390 . S
C49 C54 1.399 . S
C50 C46 1.404 . S
C50 H51 0.950 . S
C50 C52 1.375 . S
H51 C50 0.950 . S
C52 C50 1.375 . S
C52 C54 1.382 . S
C52 H56 0.950 . S
H53 C48 0.949 1_545 S
C54 C49 1.399 . S
C54 C52 1.382 . S
C54 H55 0.952 . S
H55 C54 0.952 . S
H56 C52 0.950 . S
H57 C58 0.949 . S
C58 H57 0.949 . S
C58 C59 1.395 . S
C58 C60 1.391 . S
C59 C58 1.395 . S
C59 C62 1.390 . S
C60 C58 1.391 . S
C60 C64 1.387 . S
C60 C65 1.491 . S
H61 C62 0.950 . S
C62 C59 1.390 . S
C62 H61 0.950 . S
C62 C63 1.378 . S
C63 C62 1.378 . S
C63 C64 1.409 . S
C64 C60 1.387 . S
C64 C63 1.409 . S
C64 H66 0.951 1_556 S
C65 C60 1.491 . S
C65 C67 1.382 . S
C65 C69 1.404 . S
H66 C64 0.951 1_554 S
C67 C65 1.382 . S
C67 C68 1.390 . S
C67 H72 0.949 . S
C68 C67 1.390 . S
C68 C73 1.399 . S
C69 C65 1.404 . S
C69 H70 0.950 . S
C69 C71 1.375 . S
H70 C69 0.950 . S
C71 C69 1.375 . S
C71 C73 1.382 . S
C71 H75 0.950 . S
H72 C67 0.949 . S
C73 C68 1.399 . S
C73 C71 1.382 . S
C73 H74 0.952 . S
H74 C73 0.952 . S
H75 C71 0.950 . S
H76 C77 0.949 . S
C77 H76 0.949 . S
C77 C78 1.395 . S
C77 C79 1.391 1_554 S
C78 C77 1.395 . S
C78 C81 1.390 1_554 S
C79 C77 1.391 1_556 S
C79 C83 1.387 . S
C79 C84 1.491 . S
H80 C81 0.950 . S
C81 C78 1.390 1_556 S
C81 H80 0.950 . S
C81 C82 1.378 . S
C82 C81 1.378 . S
C82 C83 1.409 . S
C83 C79 1.387 . S
C83 C82 1.409 . S
C83 H85 0.951 . S
C84 C79 1.491 . S
C84 C86 1.382 1_556 S
C84 C88 1.404 . S
H85 C83 0.951 . S
C86 C84 1.382 1_554 S
C86 C87 1.390 . S
C86 H91 0.949 . S
C87 C86 1.390 . S
C87 C92 1.397 1_554 S
C88 C84 1.404 . S
C88 H89 0.950 . S
C88 C90 1.375 . S
H89 C88 0.950 . S
C90 C88 1.375 . S
C90 C92 1.385 . S
C90 H94 0.950 . S
H91 C86 0.949 . S
C92 C87 1.397 1_556 S
C92 C90 1.385 . S
C92 H93 0.951 1_556 S
H93 C92 0.951 1_554 S
H94 C90 0.950 . S
H95 C96 0.949 . S
C96 H95 0.949 . S
C96 C97 1.395 . S
C96 C98 1.391 1_554 S
C97 C96 1.395 . S
C97 C100 1.390 1_654 S
C98 C96 1.391 1_556 S
C98 C102 1.387 . S
C98 C103 1.491 . S
H99 C100 0.950 . S
C100 C97 1.390 1_456 S
C100 H99 0.950 . S
C100 C101 1.377 1_455 S
C101 C100 1.377 1_655 S
C101 C102 1.412 . S
C102 C98 1.387 . S
C102 C101 1.412 . S
C102 H104 0.951 . S
C103 C98 1.491 . S
C103 C105 1.382 1_556 S
C103 C107 1.404 . S
H104 C102 0.951 . S
C105 C103 1.382 1_554 S
C105 C106 1.390 . S
C105 H110 0.949 1_655 S
C106 C105 1.390 . S
C106 C111 1.399 . S
C107 C103 1.404 . S
C107 H108 0.950 . S
C107 C109 1.375 . S
H108 C107 0.950 . S
C109 C107 1.375 . S
C109 C111 1.382 1_556 S
C109 H113 0.950 . S
H110 C105 0.949 1_455 S
C111 C106 1.399 . S
C111 C109 1.382 1_554 S
C111 H112 0.952 . S
H112 C111 0.952 . S
H113 C109 0.950 . S
H114 C115 0.949 . S
C115 H114 0.949 . S
C115 C116 1.395 . S
C115 C117 1.391 1_554 S
C116 C115 1.395 . S
C116 C119 1.390 1_564 S
C117 C115 1.391 1_556 S
C117 C121 1.387 . S
C117 C122 1.491 . S
H118 C119 0.950 . S
C119 C116 1.390 1_546 S
C119 H118 0.950 . S
C119 C120 1.377 1_545 S
C120 C119 1.377 1_565 S
C120 C121 1.412 . S
C121 C117 1.387 . S
C121 C120 1.412 . S
C121 H123 0.951 . S
C122 C117 1.491 . S
C122 C124 1.382 1_556 S
C122 C126 1.404 . S
H123 C121 0.951 . S
C124 C122 1.382 1_554 S
C124 C125 1.390 . S
C124 H129 0.949 1_565 S
C125 C124 1.390 . S
C125 C130 1.399 . S
C126 C122 1.404 . S
C126 H127 0.950 . S
C126 C128 1.375 . S
H127 C126 0.950 . S
C128 C126 1.375 . S
C128 C130 1.382 1_556 S
C128 H132 0.950 . S
H129 C124 0.949 1_545 S
C130 C125 1.399 . S
C130 C128 1.382 1_554 S
C130 H131 0.952 . S
H131 C130 0.952 . S
H132 C128 0.950 . S
H133 C134 0.949 . S
C134 H133 0.949 . S
C134 C135 1.395 . S
C134 C136 1.391 1_554 S
C135 C134 1.395 . S
C135 C138 1.390 1_554 S
C136 C134 1.391 1_556 S
C136 C140 1.387 . S
C136 C141 1.491 . S
H137 C138 0.950 . S
C138 C135 1.390 1_556 S
C138 H137 0.950 . S
C138 C139 1.378 . S
C139 C138 1.378 . S
C139 C140 1.409 . S
C140 C136 1.387 . S
C140 C139 1.409 . S
C140 H142 0.951 . S
C141 C136 1.491 . S
C141 C143 1.382 1_556 S
C141 C145 1.404 . S
H142 C140 0.951 . S
C143 C141 1.382 1_554 S
C143 C144 1.390 . S
C143 H148 0.949 . S
C144 C143 1.390 . S
C144 C149 1.399 . S
C145 C141 1.404 . S
C145 H146 0.950 . S
C145 C147 1.375 . S
H146 C145 0.950 . S
C147 C145 1.375 . S
C147 C149 1.382 1_556 S
C147 H151 0.950 . S
H148 C143 0.949 . S
C149 C144 1.399 . S
C149 C147 1.382 1_554 S
C149 H150 0.952 . S
H150 C149 0.952 . S
H151 C147 0.950 . S
La152 C154 2.928 . S
La152 O172 2.521 . S
La152 O173 2.628 . S
La152 O174 2.554 1_554 S
La152 O175 2.757 1_564 S
La152 O176 2.470 1_554 S
La152 O181 2.482 1_455 S
La152 O183 2.503 1_565 S
La153 C163 2.928 . S
La153 O175 2.482 1_655 S
La153 O177 2.503 1_545 S
La153 O178 2.521 . S
La153 O179 2.628 . S
La153 O180 2.554 . S
La153 O181 2.757 1_546 S
La153 O182 2.470 . S
C154 La152 2.928 . S
C154 C155 1.503 . S
C154 O172 1.261 . S
C154 O173 1.243 . S
C155 C154 1.503 . S
C155 C156 1.394 . S
C155 C160 1.373 . S
C156 C155 1.394 . S
C156 C157 1.380 . S
C156 H184 0.930 . S
C157 C156 1.380 . S
C157 C158 1.376 . S
C157 H185 0.930 . S
C158 C157 1.376 . S
C158 C159 1.370 . S
C159 C158 1.370 . S
C159 C160 1.396 . S
C159 H186 0.929 . S
C160 C155 1.373 . S
C160 C159 1.396 . S
C160 H187 0.929 1_455 S
C161 O174 1.240 . S
C161 O175 1.289 1_565 S
C162 O176 1.258 1_655 S
C162 O177 1.256 . S
C163 La153 2.928 . S
C163 C164 1.503 . S
C163 O178 1.261 . S
C163 O179 1.243 . S
C164 C163 1.503 . S
C164 C165 1.394 . S
C164 C169 1.373 . S
C165 C164 1.394 . S
C165 C166 1.380 . S
C165 H188 0.930 . S
C166 C165 1.380 . S
C166 C167 1.376 . S
C166 H189 0.930 . S
C167 C166 1.376 . S
C167 C168 1.370 . S
C168 C167 1.370 . S
C168 C169 1.396 . S
C168 H190 0.929 . S
C169 C164 1.373 . S
C169 C168 1.396 . S
C169 H191 0.929 1_655 S
C170 O180 1.240 1_554 S
C170 O181 1.289 1_545 S
C171 O182 1.258 1_455 S
C171 O183 1.256 1_556 S
O172 La152 2.521 . S
O172 C154 1.261 . S
O173 La152 2.628 . S
O173 C154 1.243 . S
O174 La152 2.554 1_556 S
O174 C161 1.240 . S
O175 La152 2.757 1_546 S
O175 La153 2.482 1_455 S
O175 C161 1.289 1_545 S
O176 La152 2.470 1_556 S
O176 C162 1.258 1_455 S
O177 La153 2.503 1_565 S
O177 C162 1.256 . S
O178 La153 2.521 . S
O178 C163 1.261 . S
O179 La153 2.628 . S
O179 C163 1.243 . S
O180 La153 2.554 . S
O180 C170 1.240 1_556 S
O181 La152 2.482 1_655 S
O181 La153 2.757 1_564 S
O181 C170 1.289 1_565 S
O182 La153 2.470 . S
O182 C171 1.258 1_655 S
O183 La152 2.503 1_545 S
O183 C171 1.256 1_554 S
H184 C156 0.930 . S
H185 C157 0.930 . S
H186 C159 0.929 . S
H187 C160 0.929 1_655 S
H188 C165 0.930 . S
H189 C166 0.930 . S
H190 C168 0.929 . S
H191 C169 0.929 1_455 S
La192 C194 2.928 . S
La192 O212 2.521 . S
La192 O213 2.628 . S
La192 O214 2.554 1_554 S
La192 O215 2.757 1_554 S
La192 O216 2.470 1_554 S
La192 O221 2.482 1_545 S
La192 O223 2.503 . S
La193 C203 2.928 . S
La193 O215 2.482 1_565 S
La193 O217 2.503 . S
La193 O218 2.521 . S
La193 O219 2.628 . S
La193 O220 2.554 . S
La193 O221 2.757 1_556 S
La193 O222 2.470 . S
C194 La192 2.928 . S
C194 C195 1.503 . S
C194 O212 1.261 . S
C194 O213 1.243 . S
C195 C194 1.503 . S
C195 C196 1.394 . S
C195 C200 1.373 . S
C196 C195 1.394 . S
C196 C197 1.380 . S
C196 H224 0.930 . S
C197 C196 1.380 . S
C197 C198 1.376 . S
C197 H225 0.930 . S
C198 C197 1.376 . S
C198 C199 1.370 . S
C199 C198 1.370 . S
C199 C200 1.396 . S
C199 H226 0.929 . S
C200 C195 1.373 . S
C200 C199 1.396 . S
C200 H227 0.929 1_545 S
C201 O214 1.240 . S
C201 O215 1.289 . S
C202 O216 1.258 1_565 S
C202 O217 1.256 . S
C203 La193 2.928 . S
C203 C204 1.503 . S
C203 O218 1.261 . S
C203 O219 1.243 . S
C204 C203 1.503 . S
C204 C205 1.394 . S
C204 C209 1.373 . S
C205 C204 1.394 . S
C205 C206 1.380 . S
C205 H228 0.930 . S
C206 C205 1.380 . S
C206 C207 1.376 . S
C206 H229 0.930 . S
C207 C206 1.376 . S
C207 C208 1.370 . S
C208 C207 1.370 . S
C208 C209 1.396 . S
C208 H230 0.929 . S
C209 C204 1.373 . S
C209 C208 1.396 . S
C209 H231 0.929 1_565 S
C210 O220 1.240 1_554 S
C210 O221 1.289 . S
C211 O222 1.258 1_545 S
C211 O223 1.256 1_556 S
O212 La192 2.521 . S
O212 C194 1.261 . S
O213 La192 2.628 . S
O213 C194 1.243 . S
O214 La192 2.554 1_556 S
O214 C201 1.240 . S
O215 La192 2.757 1_556 S
O215 La193 2.482 1_545 S
O215 C201 1.289 . S
O216 La192 2.470 1_556 S
O216 C202 1.258 1_545 S
O217 La193 2.503 . S
O217 C202 1.256 . S
O218 La193 2.521 . S
O218 C203 1.261 . S
O219 La193 2.628 . S
O219 C203 1.243 . S
O220 La193 2.554 . S
O220 C210 1.240 1_556 S
O221 La192 2.482 1_565 S
O221 La193 2.757 1_554 S
O221 C210 1.289 . S
O222 La193 2.470 . S
O222 C211 1.258 1_565 S
O223 La192 2.503 . S
O223 C211 1.256 1_554 S
H224 C196 0.930 . S
H225 C197 0.930 . S
H226 C199 0.929 . S
H227 C200 0.929 1_565 S
H228 C205 0.930 . S
H229 C206 0.930 . S
H230 C208 0.929 . S
H231 C209 0.929 1_545 S
La232 C234 2.928 . S
La232 O252 2.521 . S
La232 O253 2.628 . S
La232 O254 2.554 1_554 S
La232 O255 2.757 1_554 S
La232 O256 2.470 1_554 S
La232 O261 2.482 . S
La232 O263 2.503 . S
La233 C243 2.928 . S
La233 O255 2.482 . S
La233 O257 2.503 . S
La233 O258 2.521 . S
La233 O259 2.628 . S
La233 O260 2.554 . S
La233 O261 2.757 1_556 S
La233 O262 2.470 . S
C234 La232 2.928 . S
C234 C235 1.503 . S
C234 O252 1.261 . S
C234 O253 1.243 . S
C235 C234 1.503 . S
C235 C236 1.394 . S
C235 C240 1.373 . S
C236 C235 1.394 . S
C236 C237 1.380 . S
C236 H264 0.930 . S
C237 C236 1.380 . S
C237 C238 1.376 . S
C237 H265 0.930 . S
C238 C237 1.376 . S
C238 C239 1.370 . S
C239 C238 1.370 . S
C239 C240 1.396 . S
C239 H266 0.929 . S
C240 C235 1.373 . S
C240 C239 1.396 . S
C240 H267 0.929 . S
C241 O254 1.240 . S
C241 O255 1.289 . S
C242 O256 1.258 . S
C242 O257 1.256 . S
C243 La233 2.928 . S
C243 C244 1.503 . S
C243 O258 1.261 . S
C243 O259 1.243 . S
C244 C243 1.503 . S
C244 C245 1.394 . S
C244 C249 1.373 . S
C245 C244 1.394 . S
C245 C246 1.380 . S
C245 H268 0.930 . S
C246 C245 1.380 . S
C246 C247 1.376 . S
C246 H269 0.930 . S
C247 C246 1.376 . S
C247 C248 1.370 . S
C248 C247 1.370 . S
C248 C249 1.396 . S
C248 H270 0.929 . S
C249 C244 1.373 . S
C249 C248 1.396 . S
C249 H271 0.929 . S
C250 O260 1.240 1_554 S
C250 O261 1.289 . S
C251 O262 1.258 . S
C251 O263 1.256 1_556 S
O252 La232 2.521 . S
O252 C234 1.261 . S
O253 La232 2.628 . S
O253 C234 1.243 . S
O254 La232 2.554 1_556 S
O254 C241 1.240 . S
O255 La232 2.757 1_556 S
O255 La233 2.482 . S
O255 C241 1.289 . S
O256 La232 2.470 1_556 S
O256 C242 1.258 . S
O257 La233 2.503 . S
O257 C242 1.256 . S
O258 La233 2.521 . S
O258 C243 1.261 . S
O259 La233 2.628 . S
O259 C243 1.243 . S
O260 La233 2.554 . S
O260 C250 1.240 1_556 S
O261 La232 2.482 . S
O261 La233 2.757 1_554 S
O261 C250 1.289 . S
O262 La233 2.470 . S
O262 C251 1.258 . S
O263 La232 2.503 . S
O263 C251 1.256 1_554 S
H264 C236 0.930 . S
H265 C237 0.930 . S
H266 C239 0.929 . S
H267 C240 0.929 . S
H268 C245 0.930 . S
H269 C246 0.930 . S
H270 C248 0.929 . S
H271 C249 0.929 . S
La272 C274 2.928 . S
La272 O292 2.521 . S
La272 O293 2.628 . S
La272 O294 2.554 1_554 S
La272 O295 2.757 1_654 S
La272 O296 2.470 1_554 S
La272 O301 2.482 . S
La272 O303 2.503 1_655 S
La273 C283 2.928 . S
La273 O295 2.482 . S
La273 O297 2.503 1_455 S
La273 O298 2.521 . S
La273 O299 2.628 . S
La273 O300 2.554 . S
La273 O301 2.757 1_456 S
La273 O302 2.470 . S
C274 La272 2.928 . S
C274 C275 1.503 . S
C274 O292 1.261 . S
C274 O293 1.243 . S
C275 C274 1.503 . S
C275 C276 1.394 . S
C275 C280 1.373 . S
C276 C275 1.394 . S
C276 C277 1.380 . S
C276 H304 0.930 . S
C277 C276 1.380 . S
C277 C278 1.376 . S
C277 H305 0.930 . S
C278 C277 1.376 . S
C278 C279 1.370 . S
C279 C278 1.370 . S
C279 C280 1.396 . S
C279 H306 0.929 . S
C280 C275 1.373 . S
C280 C279 1.396 . S
C280 H307 0.929 . S
C281 O294 1.243 . S
C281 O295 1.287 1_655 S
C282 O296 1.258 . S
C282 O297 1.256 . S
C283 La273 2.928 . S
C283 C284 1.503 . S
C283 O298 1.261 . S
C283 O299 1.243 . S
C284 C283 1.503 . S
C284 C285 1.394 . S
C284 C289 1.373 . S
C285 C284 1.394 . S
C285 C286 1.380 . S
C285 H308 0.930 . S
C286 C285 1.380 . S
C286 C287 1.376 . S
C286 H309 0.930 . S
C287 C286 1.376 . S
C287 C288 1.370 . S
C288 C287 1.370 . S
C288 C289 1.396 . S
C288 H310 0.929 . S
C289 C284 1.373 . S
C289 C288 1.396 . S
C289 H311 0.929 . S
C290 O300 1.246 1_554 S
C290 O301 1.286 1_455 S
C291 O302 1.258 . S
C291 O303 1.256 1_556 S
O292 La272 2.521 . S
O292 C274 1.261 . S
O293 La272 2.628 . S
O293 C274 1.243 . S
O294 La272 2.554 1_556 S
O294 C281 1.243 . S
O295 La272 2.757 1_456 S
O295 La273 2.482 . S
O295 C281 1.287 1_455 S
O296 La272 2.470 1_556 S
O296 C282 1.258 . S
O297 La273 2.503 1_655 S
O297 C282 1.256 . S
O298 La273 2.521 . S
O298 C283 1.261 . S
O299 La273 2.628 . S
O299 C283 1.243 . S
O300 La273 2.554 . S
O300 C290 1.246 1_556 S
O301 La272 2.482 . S
O301 La273 2.757 1_654 S
O301 C290 1.286 1_655 S
O302 La273 2.470 . S
O302 C291 1.258 . S
O303 La272 2.503 1_455 S
O303 C291 1.256 1_554 S
H304 C276 0.930 . S
H305 C277 0.930 . S
H306 C279 0.929 . S
H307 C280 0.929 . S
H308 C285 0.930 . S
H309 C286 0.930 . S
H310 C288 0.929 . S
H311 C289 0.929 . S
C125 C161 3.075 1_554 S
C201 C144 3.128 1_556 S
C241 C87 3.148 1_556 S
C281 C106 3.077 1_556 S
C170 C49 3.101 1_544 S
C68 C210 3.046 1_556 S
C11 C250 3.045 1_556 S
C30 C290 3.078 1_656 S
C167 C97 2.297 . S
C207 C116 2.169 . S
C247 C135 2.029 . S
C78 C287 2.139 . S
C21 C158 2.307 1_655 S
C198 C40 2.181 1_545 S
C238 C59 2.040 . S
C2 C278 2.150 . S
C101 C171 3.993 1_655 S
C120 C211 3.924 1_565 S
C251 C139 3.934 . S
C291 C82 4.001 . S
C25 C162 3.998 . S
C202 C44 3.923 . S
C242 C63 3.925 . S
C6 C282 3.997 . S
