# Generated by pormake.
# Topology anh, (6,3)-cn, num edge types: 1
# Building blocks:
#     Node 0, Type 0, BuildingBlock: INOVEN_clean_sbu_0, # of connection points: 6
#     Node 1, Type 0, BuildingBlock: INOVEN_clean_sbu_0, # of connection points: 6
#     Node 2, Type 0, BuildingBlock: INOVEN_clean_sbu_0, # of connection points: 6
#     Node 3, Type 1, BuildingBlock: BETDIP_clean_linker_0, # of connection points: 3
#     Node 4, Type 1, BuildingBlock: BETDIP_clean_linker_0, # of connection points: 3
#     Node 5, Type 1, BuildingBlock: BETDIP_clean_linker_0, # of connection points: 3
#     Node 6, Type 1, BuildingBlock: BETDIP_clean_linker_0, # of connection points: 3
#     Node 7, Type 1, BuildingBlock: BETDIP_clean_linker_0, # of connection points: 3
#     Node 8, Type 1, BuildingBlock: BETDIP_clean_linker_0, # of connection points: 3
#     Edge 9, Type (0, 1), BuildingBlock: KIFKEQ_clean_linker_1, # of connection points: 2
#     Edge 10, Type (0, 1), BuildingBlock: KIFKEQ_clean_linker_1, # of connection points: 2
#     Edge 11, Type (0, 1), BuildingBlock: KIFKEQ_clean_linker_1, # of connection points: 2
#     Edge 12, Type (0, 1), BuildingBlock: KIFKEQ_clean_linker_1, # of connection points: 2
#     Edge 13, Type (0, 1), BuildingBlock: KIFKEQ_clean_linker_1, # of connection points: 2
#     Edge 14, Type (0, 1), BuildingBlock: KIFKEQ_clean_linker_1, # of connection points: 2
#     Edge 15, Type (0, 1), BuildingBlock: KIFKEQ_clean_linker_1, # of connection points: 2
#     Edge 16, Type (0, 1), BuildingBlock: KIFKEQ_clean_linker_1, # of connection points: 2
#     Edge 17, Type (0, 1), BuildingBlock: KIFKEQ_clean_linker_1, # of connection points: 2
#     Edge 18, Type (0, 1), BuildingBlock: KIFKEQ_clean_linker_1, # of connection points: 2
#     Edge 19, Type (0, 1), BuildingBlock: KIFKEQ_clean_linker_1, # of connection points: 2
#     Edge 20, Type (0, 1), BuildingBlock: KIFKEQ_clean_linker_1, # of connection points: 2
#     Edge 21, Type (0, 1), BuildingBlock: KIFKEQ_clean_linker_1, # of connection points: 2
#     Edge 22, Type (0, 1), BuildingBlock: KIFKEQ_clean_linker_1, # of connection points: 2
#     Edge 23, Type (0, 1), BuildingBlock: KIFKEQ_clean_linker_1, # of connection points: 2
#     Edge 24, Type (0, 1), BuildingBlock: KIFKEQ_clean_linker_1, # of connection points: 2
#     Edge 25, Type (0, 1), BuildingBlock: KIFKEQ_clean_linker_1, # of connection points: 2
#     Edge 26, Type (0, 1), BuildingBlock: KIFKEQ_clean_linker_1, # of connection points: 2
# Relax obj value: 0.151
# Max RMSD: 0.182
# Mean RMSD: 0.125
data_MOF--net-anh--node1-INOVEN_clean_sbu_0--node2-BETDIP_clean_linker_0--edge1-KIFKEQ_clean_linker_1
_symmetry_space_group_name_H-M    P1
_symmetry_Int_Tables_number       1
_symmetry_cell_setting            triclinic
loop_
_symmetry_equiv_pos_as_xyz
'x, y, z'
_cell_length_a     30.988537
_cell_length_b     38.161846
_cell_length_c     50.474983
_cell_angle_alpha  95.461043
_cell_angle_beta   88.756305
_cell_angle_gamma 129.52776
loop_
_atom_site_label
_atom_site_type_symbol
_atom_site_fract_x
_atom_site_fract_y
_atom_site_fract_z
_atom_type_partial_charge
Gd0 Gd 0.20832 0.61163 0.13748 0.0
Gd1 Gd 0.13558 0.63423 0.15883 0.0
C2 C 0.2608 0.71846 0.14531 0.0
C3 C 0.27645 0.60297 0.11431 0.0
C4 C 0.29569 0.57689 0.11707 0.0
C5 C 0.29463 0.56196 0.14164 0.0
C6 C 0.31974 0.57022 0.09554 0.0
C7 C 0.34554 0.537 0.12358 0.0
C8 C 0.34428 0.55028 0.09871 0.0
C9 C 0.31946 0.54222 0.14489 0.0
C10 C 0.19344 0.60681 0.19022 0.0
C11 C 1.08125 0.52931 0.14821 0.0
C12 C 1.07655 0.64931 0.18561 0.0
C13 C 1.01608 0.61592 0.19016 0.0
C14 C 0.97912 0.6223 0.18126 0.0
C15 C 0.99389 0.57406 0.19959 0.0
C16 C 0.89958 0.54343 0.1873 0.0
C17 C 0.93629 0.53825 0.19814 0.0
C18 C 0.92118 0.58632 0.17991 0.0
C19 C 0.12043 0.60642 0.10597 0.0
O20 O 0.26586 0.68791 0.13544 0.0
O21 O 0.21456 0.70634 0.15633 0.0
O22 O 0.22466 0.5801 0.10518 0.0
O23 O 0.29148 0.63381 0.13426 0.0
O24 O 0.19666 0.5794 0.17501 0.0
O25 O 0.20132 0.63683 0.17724 0.0
O26 O 1.08359 0.55993 0.16428 0.0
O27 O 0.12218 0.54164 0.13213 0.0
O28 O 1.08903 0.65917 0.16096 0.0
O29 O 0.10837 0.64281 0.19689 0.0
O30 O 1.07973 0.59433 0.12119 0.0
O31 O 0.16642 0.6332 0.11909 0.0
H32 H 0.27622 0.56691 0.15853 0.0
H33 H 0.32078 0.58147 0.07643 0.0
H34 H 0.36282 0.54573 0.08172 0.0
H35 H 0.31989 0.53254 0.1643 0.0
H36 H 0.99517 0.65413 0.17381 0.0
H37 H 1.02102 0.5678 0.20658 0.0
H38 H 0.92063 0.50563 0.20419 0.0
H39 H 0.89369 0.59108 0.17135 0.0
Gd40 Gd 0.69431 0.07419 0.47252 0.0
Gd41 Gd 0.61198 0.08863 0.46003 0.0
C42 C 0.56111 0.98652 0.46015 0.0
C43 C 0.74469 0.047 0.49111 0.0
C44 C 0.72944 1.00336 0.49702 0.0
C45 C 0.68607 0.96191 0.48232 0.0
C46 C 0.75895 1.00318 0.51757 0.0
C47 C 0.7024 0.92057 0.50858 0.0
C48 C 0.74561 0.96222 0.52331 0.0
C49 C 0.67273 0.9209 0.48801 0.0
C50 C 0.68672 0.08421 0.42122 0.0
C51 C 0.74576 0.17731 0.47223 0.0
C52 C 0.56219 0.1168 0.44235 0.0
C53 C 0.56913 0.15906 0.4472 0.0
C54 C 0.52508 0.15657 0.45771 0.0
C55 C 0.61959 0.20201 0.44264 0.0
C56 C 0.58231 0.2394 0.46011 0.0
C57 C 0.62604 0.24171 0.44897 0.0
C58 C 0.53161 0.19618 0.46421 0.0
C59 C 0.61914 0.07859 0.51135 0.0
O60 O 0.60882 1.00358 0.47286 0.0
O61 O 0.55535 0.01315 0.44872 0.0
O62 O 0.74294 0.05181 0.46594 0.0
O63 O 0.7243 0.06253 0.50637 0.0
O64 O 0.73349 0.10133 0.43373 0.0
O65 O 0.64599 0.06111 0.43591 0.0
O66 O 0.69547 0.16043 0.46307 0.0
O67 O 0.75566 0.15077 0.47995 0.0
O68 O 0.54492 0.09214 0.46237 0.0
O69 O 0.6012 0.11929 0.42957 0.0
O70 O 0.57298 0.06313 0.49902 0.0
O71 O 0.65987 0.10133 0.49664 0.0
H72 H 0.6626 0.96125 0.46641 0.0
H73 H 0.7926 0.03482 0.52911 0.0
H74 H 0.7697 0.96329 0.53907 0.0
H75 H 0.63873 0.88939 0.47653 0.0
H76 H 0.48582 0.12391 0.46147 0.0
H77 H 0.65439 0.20512 0.43451 0.0
H78 H 0.6654 0.27422 0.44517 0.0
H79 H 0.49729 0.19288 0.47319 0.0
Gd80 Gd 0.64828 0.5608 0.83491 0.0
Gd81 Gd 0.56839 0.4586 0.83668 0.0
C82 C 0.51242 0.50623 0.83927 0.0
C83 C 0.7015 0.64358 0.82361 0.0
C84 C 0.69101 0.6757 0.8212 0.0
C85 C 0.7358 0.7227 0.82548 0.0
C86 C 0.63727 0.66026 0.81461 0.0
C87 C 0.67368 0.73893 0.81606 0.0
C88 C 0.62867 0.69163 0.81203 0.0
C89 C 0.72728 0.75406 0.82293 0.0
C90 C 0.63399 0.53248 0.88359 0.0
C91 C 0.70486 0.51354 0.8337 0.0
C92 C 0.5199 0.37664 0.84797 0.0
C93 C 0.532 0.34536 0.84207 0.0
C94 C 0.57095 0.35472 0.82311 0.0
C95 C 0.50454 0.30587 0.85515 0.0
C96 C 0.55235 0.28378 0.82911 0.0
C97 C 0.51474 0.27528 0.84877 0.0
C98 C 0.58096 0.32417 0.81665 0.0
C99 C 0.58285 0.48542 0.78754 0.0
O100 O 0.56183 0.54295 0.83219 0.0
O101 O 0.50658 0.47058 0.84576 0.0
O102 O 0.70112 0.63336 0.84766 0.0
O103 O 0.67647 0.60824 0.80555 0.0
O104 O 0.68198 0.56737 0.87598 0.0
O105 O 0.59624 0.51604 0.86571 0.0
O106 O 0.6543 0.47593 0.83873 0.0
O107 O 0.71237 0.5505 0.82859 0.0
O108 O 0.50465 0.38553 0.82736 0.0
O109 O 0.55639 0.41314 0.86423 0.0
O110 O 0.53561 0.44985 0.79517 0.0
O111 O 0.62089 0.5031 0.80553 0.0
H112 H 0.77757 0.73519 0.83055 0.0
H113 H 0.6021 0.62405 0.8113 0.0
H114 H 0.58677 0.67886 0.807 0.0
H115 H 0.76298 0.79019 0.82579 0.0
H116 H 0.59299 0.38535 0.81302 0.0
H117 H 0.47461 0.29836 0.86997 0.0
H118 H 0.49191 0.24431 0.85856 0.0
H119 H 0.61075 0.33192 0.8017 0.0
H120 H 0.63445 0.08421 0.14682 0.0
H121 H 0.72603 0.15875 0.22162 0.0
H122 H 0.58155 0.01647 0.21818 0.0
H123 H 0.72332 0.21186 0.20222 0.0
C124 C 0.7423 0.21111 0.18402 0.0
C125 C 0.64016 0.08526 0.16807 0.0
C126 C 0.60393 0.04523 0.18087 0.0
C127 C 0.68351 0.12681 0.1829 0.0
C128 C 0.69104 0.12744 0.21043 0.0
C129 C 0.65462 0.08792 0.2235 0.0
C130 C 0.61107 0.04712 0.20844 0.0
N131 N 0.71954 0.1678 0.1702 0.0
H132 H 0.62721 0.5422 0.51693 0.0
H133 H 0.63219 0.59865 0.59597 0.0
H134 H 0.61688 0.47814 0.58526 0.0
H135 H 0.58168 0.61269 0.57252 0.0
C136 C 0.60903 0.62811 0.55607 0.0
C137 C 0.62701 0.54135 0.53834 0.0
C138 C 0.62185 0.50626 0.54915 0.0
C139 C 0.62885 0.57395 0.55503 0.0
C140 C 0.62851 0.57264 0.58283 0.0
C141 C 0.62482 0.53849 0.5939 0.0
C142 C 0.62108 0.50528 0.5769 0.0
N143 N 0.63103 0.60774 0.54359 0.0
H144 H 1.06844 0.50978 0.8277 0.0
H145 H 0.14482 0.52269 0.90242 0.0
H146 H 1.01968 0.53861 0.90174 0.0
H147 H 0.14111 0.46535 0.87715 0.0
C148 C 0.16647 0.48722 0.86172 0.0
C149 C 1.07227 0.51558 0.84924 0.0
C150 C 1.038 0.52333 0.86323 0.0
C151 C 0.11161 0.51543 0.8634 0.0
C152 C 0.1154 0.52287 0.89144 0.0
C153 C 1.08233 0.53093 0.90551 0.0
C154 C 1.04451 0.53147 0.89113 0.0
N155 N 0.14831 0.50914 0.84994 0.0
H156 H 0.19464 0.62056 0.46668 0.0
H157 H 0.10422 0.53697 0.39307 0.0
H158 H 0.25425 0.67542 0.39127 0.0
H159 H 1.03064 0.51601 0.42241 0.0
C160 C 1.04486 0.50617 0.43735 0.0
C161 C 0.19024 0.6163 0.44512 0.0
C162 C 0.23051 0.65288 0.43047 0.0
C163 C 0.14377 0.57434 0.43179 0.0
C164 C 0.13885 0.56923 0.40372 0.0
C165 C 0.17834 0.6057 0.38923 0.0
C166 C 0.22383 0.64722 0.40263 0.0
N167 N 0.10231 0.53747 0.44651 0.0
H168 H 0.62178 0.03962 0.78316 0.0
H169 H 0.64925 1.00319 0.70486 0.0
H170 H 0.60945 0.09271 0.71526 0.0
H171 H 0.63802 0.99634 0.79751 0.0
C172 C 0.64357 0.9791 0.7812 0.0
C173 C 0.62476 0.04215 0.76197 0.0
C174 C 0.61354 0.06829 0.75105 0.0
C175 C 0.63794 0.01865 0.74519 0.0
C176 C 0.64039 0.02215 0.7177 0.0
C177 C 0.62933 0.0482 0.70661 0.0
C178 C 0.61669 0.07155 0.72353 0.0
N179 N 0.64673 0.98957 0.75459 0.0
H180 H 0.47943 0.33508 0.11804 0.0
H181 H 0.54007 0.32427 0.04277 0.0
H182 H 0.54825 0.43998 0.06582 0.0
H183 H 0.48343 0.24886 0.12163 0.0
C184 C 0.512 0.28038 0.11246 0.0
C185 C 0.49954 0.34941 0.09977 0.0
C186 C 0.51343 0.39067 0.09422 0.0
C187 C 0.50988 0.32576 0.08138 0.0
C188 C 0.53311 0.34305 0.05709 0.0
C189 C 0.54889 0.38522 0.05173 0.0
C190 C 0.53919 0.4088 0.07051 0.0
N191 N 0.49649 0.2843 0.0873 0.0
H192 H 0.31349 0.46631 0.1518 0.0
H193 H 0.44546 0.56728 0.10403 0.0
H194 H 0.36003 0.43384 0.15503 0.0
H195 H 0.49003 0.53358 0.10594 0.0
H196 H 0.57561 0.47976 0.11496 0.0
H197 H 0.53933 0.51855 0.13103 0.0
H198 H 0.37129 0.38866 0.12466 0.0
H199 H 0.40809 0.35017 0.10968 0.0
C200 C 0.35266 0.48184 0.14221 0.0
C201 C 0.37526 0.51887 0.12725 0.0
C202 C 0.37913 0.46305 0.14391 0.0
C203 C 0.42866 0.48087 0.13065 0.0
C204 C 0.45242 0.51922 0.11674 0.0
C205 C 0.42621 0.53807 0.11517 0.0
C206 C 0.53119 0.45955 0.11794 0.0
C207 C 0.49448 0.41216 0.11084 0.0
C208 C 0.51029 0.48169 0.1269 0.0
C209 C 0.45221 0.45688 0.12844 0.0
C210 C 0.41623 0.40892 0.12382 0.0
C211 C 0.43726 0.38674 0.11521 0.0
H212 H 0.85951 0.22439 0.47356 0.0
H213 H 0.73665 0.24366 0.47155 0.0
H214 H 0.93371 0.30532 0.46806 0.0
H215 H 0.81029 0.32418 0.4669 0.0
H216 H 0.93675 0.44386 0.42056 0.0
H217 H 0.86705 0.36638 0.43202 0.0
H218 H 0.98875 0.3854 0.48571 0.0
H219 H 1.05955 0.46347 0.47347 0.0
C220 C 0.84845 0.24604 0.47247 0.0
C221 C 0.79202 0.22736 0.47262 0.0
C222 C 0.89103 0.29252 0.46939 0.0
C223 C 0.87809 0.32136 0.46656 0.0
C224 C 0.82188 0.30295 0.46825 0.0
C225 C 0.77951 0.25665 0.47107 0.0
C226 C 0.94862 0.43165 0.43495 0.0
C227 C 1.00351 0.45982 0.44617 0.0
C228 C 0.90846 0.38719 0.44171 0.0
C229 C 0.92181 0.36947 0.46006 0.0
C230 C 0.97697 0.39775 0.47141 0.0
C231 C 1.01747 0.44257 0.46454 0.0
H232 H 0.61045 0.73469 0.77686 0.0
H233 H 0.71841 0.81929 0.84678 0.0
H234 H 0.60048 0.79148 0.76948 0.0
H235 H 0.71001 0.87685 0.83884 0.0
H236 H 0.63934 0.95094 0.82937 0.0
H237 H 0.64331 0.89129 0.83896 0.0
H238 H 0.66 0.86805 0.75528 0.0
H239 H 0.65518 0.92677 0.74574 0.0
C240 C 0.63169 0.76523 0.79079 0.0
C241 C 0.66537 0.77251 0.81236 0.0
C242 C 0.6265 0.79802 0.78638 0.0
C243 C 0.65479 0.83885 0.80346 0.0
C244 C 0.68738 0.84565 0.82541 0.0
C245 C 0.69267 0.81288 0.82979 0.0
C246 C 0.64384 0.93298 0.8131 0.0
C247 C 0.64692 0.9435 0.78687 0.0
C248 C 0.64632 0.899 0.81857 0.0
C249 C 0.65172 0.87478 0.79786 0.0
C250 C 0.6549 0.88551 0.77163 0.0
C251 C 0.65255 0.91947 0.76619 0.0
H252 H 0.80423 0.53245 0.19724 0.0
H253 H 0.86242 0.46316 0.16064 0.0
H254 H 0.70766 0.46634 0.18151 0.0
H255 H 0.76677 0.39784 0.14498 0.0
H256 H 0.61068 0.33603 0.08856 0.0
H257 H 0.70278 0.39851 0.10968 0.0
H258 H 0.63145 0.37185 0.18688 0.0
H259 H 0.53852 0.30826 0.16559 0.0
C260 C 0.79622 0.50293 0.18616 0.0
C261 C 0.84057 0.50269 0.18027 0.0
C262 C 0.74122 0.4652 0.17734 0.0
C263 C 0.73021 0.42729 0.16209 0.0
C264 C 0.77437 0.42674 0.15673 0.0
C265 C 0.82893 0.46395 0.16584 0.0
C266 C 0.61455 0.34364 0.11002 0.0
C267 C 0.56767 0.31781 0.12552 0.0
C268 C 0.66719 0.37914 0.12207 0.0
C269 C 0.67386 0.38983 0.14982 0.0
C270 C 0.62702 0.36422 0.16542 0.0
C271 C 0.57426 0.32792 0.15332 0.0
H272 H 0.45281 0.94118 0.44249 0.0
H273 H 0.55979 0.91896 0.47601 0.0
H274 H 0.37364 0.85972 0.44094 0.0
H275 H 0.48038 0.83728 0.47433 0.0
H276 H 0.34009 0.69199 0.42773 0.0
H277 H 0.42093 0.77274 0.43846 0.0
H278 H 0.31143 0.79783 0.47052 0.0
H279 H 0.23054 0.71667 0.45977 0.0
C280 C 0.45954 0.91899 0.44955 0.0
C281 C 0.51294 0.93674 0.45917 0.0
C282 C 0.41392 0.87228 0.44891 0.0
C283 C 0.42055 0.84197 0.45765 0.0
C284 C 0.47389 0.85967 0.46736 0.0
C285 C 0.51944 0.90653 0.46829 0.0
C286 C 0.33372 0.71457 0.43793 0.0
C287 C 0.27934 0.69816 0.44326 0.0
C288 C 0.37992 0.76083 0.44399 0.0
C289 C 0.3726 0.79185 0.45511 0.0
C290 C 0.31837 0.77488 0.4617 0.0
C291 C 0.27219 0.7284 0.45592 0.0
H292 H 0.55193 0.25317 0.77827 0.0
H293 H 0.56808 0.23688 0.86005 0.0
H294 H 0.56273 0.19683 0.76307 0.0
H295 H 0.57835 0.17955 0.84469 0.0
H296 H 0.6669 0.12678 0.79679 0.0
H297 H 0.64888 0.17636 0.81875 0.0
H298 H 0.50593 0.11267 0.76426 0.0
H299 H 0.52395 0.06364 0.74247 0.0
C300 C 0.55806 0.23764 0.79301 0.0
C301 C 0.55938 0.24954 0.82034 0.0
C302 C 0.56362 0.205 0.78431 0.0
C303 C 0.57085 0.1835 0.80272 0.0
C304 C 0.57282 0.19563 0.8301 0.0
C305 C 0.56665 0.22815 0.83886 0.0
C306 C 0.6309 0.12276 0.79003 0.0
C307 C 0.59733 0.09202 0.76771 0.0
C308 C 0.62062 0.15107 0.80253 0.0
C309 C 0.57666 0.1489 0.79283 0.0
C310 C 0.54083 0.11576 0.77177 0.0
C311 C 0.55104 0.08765 0.75936 0.0
H312 H 0.67787 0.84977 0.47356 0.0
H313 H 0.69511 0.89283 0.55766 0.0
H314 H 0.65437 0.77827 0.48398 0.0
H315 H 0.67337 0.82222 0.56803 0.0
H316 H 0.5717 0.67138 0.57727 0.0
H317 H 0.59316 0.7411 0.56505 0.0
H318 H 0.69725 0.74907 0.50344 0.0
H319 H 0.67495 0.67864 0.51553 0.0
C320 C 0.67654 0.84395 0.49426 0.0
C321 C 0.68831 0.87703 0.51478 0.0
C322 C 0.66368 0.80321 0.50022 0.0
C323 C 0.66191 0.79447 0.52683 0.0
C324 C 0.67374 0.82759 0.54731 0.0
C325 C 0.6868 0.86833 0.54137 0.0
C326 C 0.59901 0.68797 0.56105 0.0
C327 C 0.62173 0.66969 0.54741 0.0
C328 C 0.61161 0.72806 0.55415 0.0
C329 C 0.64727 0.75089 0.5334 0.0
C330 C 0.66931 0.73213 0.5194 0.0
C331 C 0.65677 0.69193 0.52639 0.0
H332 H 0.81535 0.5836 0.82384 0.0
H333 H 0.70752 0.44504 0.84433 0.0
H334 H 0.89559 0.58577 0.82577 0.0
H335 H 0.78802 0.44747 0.84696 0.0
H336 H 0.93792 0.45166 0.83603 0.0
H337 H 0.85809 0.44838 0.82605 0.0
H338 H 0.9576 0.59127 0.85493 0.0
H339 H 1.03675 0.59426 0.86416 0.0
C340 C 0.80852 0.55346 0.82878 0.0
C341 C 0.75428 0.51421 0.834 0.0
C342 C 0.85502 0.55477 0.83007 0.0
C343 C 0.84941 0.51691 0.8367 0.0
C344 C 0.79483 0.47732 0.84145 0.0
C345 C 0.74828 0.47601 0.84013 0.0
C346 C 0.94325 0.48271 0.83928 0.0
C347 C 0.99452 0.52347 0.85037 0.0
C348 C 0.89694 0.48072 0.83407 0.0
C349 C 0.90025 0.51946 0.8398 0.0
C350 C 0.9526 0.56064 0.84977 0.0
C351 C 0.99854 0.56251 0.85502 0.0
H352 H 0.36082 0.75593 0.12248 0.0
H353 H 0.27169 0.79307 0.16643 0.0
H354 H 0.44372 0.83613 0.12452 0.0
H355 H 0.35523 0.87345 0.16882 0.0
H356 H 0.59528 0.96992 0.17323 0.0
H357 H 0.51117 0.89176 0.15993 0.0
H358 H 0.42183 0.94062 0.14467 0.0
H359 H 0.50679 0.01925 0.15832 0.0
C360 C 0.35865 0.78116 0.13244 0.0
C361 C 0.30952 0.76779 0.14454 0.0
C362 C 0.4064 0.82725 0.13366 0.0
C363 C 0.40646 0.86136 0.14701 0.0
C364 C 0.35661 0.84821 0.15814 0.0
C365 C 0.30873 0.802 0.15693 0.0
C366 C 0.55812 0.96399 0.16617 0.0
C367 C 0.55757 1.0005 0.16645 0.0
C368 C 0.50981 0.9192 0.15858 0.0
C369 C 0.45946 0.90972 0.15134 0.0
C370 C 0.45972 0.94665 0.15038 0.0
C371 C 0.50843 0.99168 0.15781 0.0
H372 H 0.67701 0.32282 0.4823 0.0
H373 H 0.50477 0.2522 0.45709 0.0
H374 H 0.68656 0.38947 0.49961 0.0
H375 H 0.51413 0.31836 0.47532 0.0
H376 H 0.53701 0.41521 0.54862 0.0
H377 H 0.52822 0.35296 0.52331 0.0
H378 H 0.68259 0.45108 0.4858 0.0
H379 H 0.69098 0.51369 0.51112 0.0
C380 C 0.64144 0.32164 0.47999 0.0
C381 C 0.58988 0.2817 0.46849 0.0
C382 C 0.64697 0.3599 0.48999 0.0
C383 C 0.60098 0.35897 0.48899 0.0
C384 C 0.55009 0.3198 0.47668 0.0
C385 C 0.54471 0.28178 0.46639 0.0
C386 C 0.56869 0.42341 0.53473 0.0
C387 C 0.61471 0.46912 0.53182 0.0
C388 C 0.56354 0.38784 0.52015 0.0
C389 C 0.60473 0.39717 0.50259 0.0
C390 C 0.65037 0.44296 0.49929 0.0
C391 C 0.65501 0.47868 0.5136 0.0
H392 H 0.40325 0.43407 0.84836 0.0
H393 H 0.50687 0.57507 0.83272 0.0
H394 H 0.32237 0.43065 0.85101 0.0
H395 H 0.42549 0.57213 0.83615 0.0
H396 H 0.25175 0.53957 0.82574 0.0
H397 H 0.33506 0.54515 0.81882 0.0
H398 H 0.28198 0.45323 0.87881 0.0
H399 H 0.19978 0.447 0.88493 0.0
C400 C 0.40913 0.46465 0.84564 0.0
C401 C 0.46248 0.50495 0.84052 0.0
C402 C 0.36228 0.4628 0.84733 0.0
C403 C 0.36647 0.50129 0.84422 0.0
C404 C 0.41972 0.54151 0.83855 0.0
C405 C 0.46682 0.54331 0.83674 0.0
C406 C 0.25786 0.52036 0.83723 0.0
C407 C 0.21829 0.49242 0.85574 0.0
C408 C 0.30601 0.52375 0.83343 0.0
C409 C 0.31588 0.49919 0.84796 0.0
C410 C 0.27616 0.47185 0.86656 0.0
C411 C 0.22866 0.46849 0.87026 0.0
H412 H 0.97794 0.49721 0.16197 0.0
H413 H 1.06941 0.45135 0.13515 0.0
H414 H 0.89612 0.41934 0.16734 0.0
H415 H 0.98678 0.37232 0.14123 0.0
H416 H 0.80587 0.22926 0.13955 0.0
H417 H 0.88762 0.30494 0.12766 0.0
H418 H 0.87233 0.36801 0.19888 0.0
H419 H 0.79105 0.29355 0.2101 0.0
C420 C 0.98063 0.47039 0.15727 0.0
C421 C 1.03061 0.48065 0.14861 0.0
C422 C 0.93357 0.42558 0.16041 0.0
C423 C 0.935 0.38946 0.15531 0.0
C424 C 0.98415 0.39926 0.14536 0.0
C425 C 1.03153 0.4445 0.14194 0.0
C426 C 0.82005 0.25947 0.15247 0.0
C427 C 0.79177 0.2556 0.17563 0.0
C428 C 0.86703 0.30276 0.14578 0.0
C429 C 0.8863 0.34279 0.16211 0.0
C430 C 0.85812 0.33829 0.18542 0.0
C431 C 0.81157 0.29546 0.19197 0.0
H432 H 1.02862 0.53138 0.0772 0.0
H433 H 0.19939 0.65221 0.06979 0.0
H434 H 1.01962 0.50978 0.02936 0.0
H435 H 0.18973 0.63316 0.02184 0.0
H436 H 0.17691 0.57531 0.93866 0.0
H437 H 0.18504 0.5888 0.98676 0.0
H438 H 1.00898 0.52385 0.98819 0.0
H439 H 0.99952 0.50549 0.94042 0.0
C440 C 1.06398 0.55356 0.06517 0.0
C441 C 0.11459 0.59341 0.07705 0.0
C442 C 1.05885 0.54147 0.03767 0.0
C443 C 0.10384 0.56969 0.02132 0.0
C444 C 0.15443 0.60978 0.03352 0.0
C445 C 0.15994 0.6211 0.06107 0.0
C446 C 0.1395 0.56278 0.94919 0.0
C447 C 1.08753 0.53932 0.9353 0.0
C448 C 0.14442 0.57144 0.97697 0.0
C449 C 0.09788 0.55804 -0.00826 0.0
C450 C 1.04585 0.53433 0.97784 0.0
C451 C 1.04062 0.52458 0.95014 0.0
H452 H 0.76868 0.14622 0.39025 0.0
H453 H 0.59303 0.02824 0.38811 0.0
H454 H 0.76119 0.14895 0.34234 0.0
H455 H 0.58607 0.03025 0.34005 0.0
H456 H 0.6351 0.02084 0.25132 0.0
H457 H 0.64059 0.02115 0.29943 0.0
H458 H 0.69796 0.15854 0.31066 0.0
H459 H 0.68921 0.1577 0.26258 0.0
C460 C 0.72855 0.12097 0.3795 0.0
C461 C 0.68147 0.08692 0.39272 0.0
C462 C 0.72427 0.12265 0.35222 0.0
C463 C 0.67316 0.0897 0.33768 0.0
C464 C 0.62596 0.05586 0.35093 0.0
C465 C 0.62992 0.05481 0.37833 0.0
C466 C 0.64794 0.05093 0.26391 0.0
C467 C 0.66123 0.08912 0.25286 0.0
C468 C 0.65136 0.05109 0.29147 0.0
C469 C 0.66942 0.08977 0.30857 0.0
C470 C 0.6841 0.12838 0.29774 0.0
C471 C 0.6795 0.12793 0.27019 0.0
H472 H 0.50329 0.45502 0.74903 0.0
H473 H 0.68252 0.54497 0.76434 0.0
H474 H 0.51678 0.47279 0.7029 0.0
H475 H 0.69614 0.56274 0.71795 0.0
H476 H 0.68375 0.52585 0.62527 0.0
H477 H 0.6765 0.51776 0.67301 0.0
H478 H 0.55498 0.53878 0.6763 0.0
H479 H 0.56185 0.54646 0.62852 0.0
C480 C 0.54559 0.47882 0.74252 0.0
C481 C 0.59186 0.49846 0.76015 0.0
C482 C 0.55332 0.4892 0.71618 0.0
C483 C 0.60751 0.51912 0.70683 0.0
C484 C 0.6539 0.5393 0.72459 0.0
C485 C 0.64614 0.5293 0.7511 0.0
C486 C 0.65566 0.52889 0.63625 0.0
C487 C 0.62316 0.53656 0.62318 0.0
C488 C 0.6519 0.52468 0.66359 0.0
C489 C 0.6151 0.52756 0.67835 0.0
C490 C 0.58341 0.53611 0.66537 0.0
C491 C 0.58762 0.54081 0.6381 0.0
H492 H 0.71304 0.12158 0.54409 0.0
H493 H 0.53288 0.01844 0.54079 0.0
H494 H 0.7165 0.11181 0.59108 0.0
H495 H 0.53618 1.00748 0.58714 0.0
H496 H 0.55375 0.04337 0.67629 0.0
H497 H 0.55387 0.04983 0.629 0.0
H498 H 0.70124 0.06069 0.62268 0.0
H499 H 0.70274 0.05652 0.67072 0.0
C500 C 0.67434 0.0965 0.55337 0.0
C501 C 0.62265 0.07121 0.53904 0.0
C502 C 0.67628 0.09067 0.58018 0.0
C503 C 0.62653 0.05925 0.59297 0.0
C504 C 0.57516 0.03276 0.57813 0.0
C505 C 0.57325 0.03889 0.55154 0.0
C506 C 0.58658 0.04759 0.66493 0.0
C507 C 0.62856 0.04987 0.67735 0.0
C508 C 0.58618 0.05063 0.63768 0.0
C509 C 0.6274 0.05553 0.62197 0.0
C510 C 0.66916 0.05731 0.63427 0.0
C511 C 0.66968 0.05442 0.6617 0.0
H512 H 0.53533 0.46282 0.90272 0.0
H513 H 0.71433 0.55214 0.91863 0.0
H514 H 0.52107 0.42455 0.94193 0.0
H515 H 0.70023 0.51344 0.95787 0.0
H516 H 0.63845 0.47259 0.04362 0.0
H517 H 0.66304 0.50705 0.00186 0.0
H518 H 0.53453 0.37445 0.95963 0.0
H519 H 0.50892 0.34021 0.00169 0.0
C520 C 0.57164 0.4741 0.9146 0.0
C521 C 0.6259 0.51044 0.90773 0.0
C522 C 0.56353 0.45188 0.93689 0.0
C523 C 0.60954 0.46565 0.95289 0.0
C524 C 0.66393 0.50217 0.94602 0.0
C525 C 0.67202 0.52437 0.92362 0.0
C526 C 0.61612 0.45073 0.02532 0.0
C527 C 0.57137 0.40383 0.0259 0.0
C528 C 0.63041 0.47041 0.00138 0.0
C529 C 0.60019 0.44359 0.97748 0.0
C530 C 0.55792 0.39613 0.97781 0.0
C531 C 0.54371 0.3764 0.00181 0.0
H532 H 0.15326 0.53463 0.21763 0.0
H533 H 0.21428 0.67324 0.22744 0.0
H534 H 0.14196 0.53051 0.26541 0.0
H535 H 0.20612 0.67041 0.27549 0.0
H536 H 0.15005 0.64429 0.35937 0.0
H537 H 0.14666 0.64137 0.31083 0.0
H538 H 0.19494 0.55663 0.30531 0.0
H539 H 0.19489 0.55776 0.35375 0.0
C540 C 0.16454 0.56432 0.23013 0.0
C541 C 0.18495 0.60434 0.21899 0.0
C542 C 0.15845 0.56213 0.25756 0.0
C543 C 0.17359 0.60025 0.27452 0.0
C544 C 0.19318 0.64009 0.26313 0.0
C545 C 0.19833 0.64195 0.23561 0.0
C546 C 0.15904 0.62457 0.34756 0.0
C547 C 0.17243 0.60105 0.35998 0.0
C548 C 0.15771 0.62321 0.31981 0.0
C549 C 0.17092 0.59903 0.30398 0.0
C550 C 0.18353 0.57494 0.31667 0.0
C551 C 0.18386 0.57569 0.3444 0.0
loop_
_geom_bond_atom_site_label_1
_geom_bond_atom_site_label_2
_geom_bond_distance
_geom_bond_site_symmetry_2
_ccdc_geom_bond_type
Gd0 C3 2.818 . S
Gd0 O20 2.377 . S
Gd0 O22 2.448 . S
Gd0 O23 2.506 . S
Gd0 O24 2.435 . S
Gd0 O25 2.717 . S
Gd0 O27 2.395 . S
Gd0 O31 2.327 . S
Gd1 C12 2.818 1_455 S
Gd1 O21 2.395 . S
Gd1 O25 2.327 . S
Gd1 O26 2.377 1_455 S
Gd1 O28 2.448 1_455 S
Gd1 O29 2.506 1_455 S
Gd1 O30 2.435 . S
Gd1 O31 2.717 . S
C2 O20 1.240 . S
C2 O21 1.240 . S
C3 Gd0 2.818 . S
C3 C4 1.510 . S
C3 O22 1.249 . S
C3 O23 1.252 . S
C4 C3 1.510 . S
C4 C5 1.404 . S
C4 C6 1.352 . S
C5 C4 1.404 . S
C5 C9 1.389 . S
C5 H32 0.930 . S
C6 C4 1.352 . S
C6 C8 1.374 . S
C6 H33 0.931 . S
C7 C8 1.359 . S
C7 C9 1.364 . S
C8 C6 1.374 . S
C8 C7 1.359 . S
C8 H34 0.931 . S
C9 C5 1.389 . S
C9 C7 1.364 . S
C9 H35 0.931 . S
C10 O24 1.256 . S
C10 O25 1.257 . S
C11 O26 1.240 . S
C11 O27 1.240 1_655 S
C12 Gd1 2.818 1_655 S
C12 C13 1.510 . S
C12 O28 1.249 . S
C12 O29 1.252 . S
C13 C12 1.510 . S
C13 C14 1.404 . S
C13 C15 1.352 . S
C14 C13 1.404 . S
C14 C18 1.389 . S
C14 H36 0.930 . S
C15 C13 1.352 . S
C15 C17 1.374 . S
C15 H37 0.931 . S
C16 C17 1.359 . S
C16 C18 1.364 . S
C17 C15 1.374 . S
C17 C16 1.359 . S
C17 H38 0.931 . S
C18 C14 1.389 . S
C18 C16 1.364 . S
C18 H39 0.931 . S
C19 O30 1.256 . S
C19 O31 1.257 . S
O20 Gd0 2.377 . S
O20 C2 1.240 . S
O21 Gd1 2.395 . S
O21 C2 1.240 . S
O22 Gd0 2.448 . S
O22 C3 1.249 . S
O23 Gd0 2.506 . S
O23 C3 1.252 . S
O24 Gd0 2.435 . S
O24 C10 1.256 . S
O25 Gd0 2.717 . S
O25 Gd1 2.327 . S
O25 C10 1.257 . S
O26 Gd1 2.377 1_655 S
O26 C11 1.240 . S
O27 Gd0 2.395 . S
O27 C11 1.240 1_455 S
O28 Gd1 2.448 1_655 S
O28 C12 1.249 . S
O29 Gd1 2.506 1_655 S
O29 C12 1.252 . S
O30 Gd1 2.435 . S
O30 C19 1.256 . S
O31 Gd0 2.327 . S
O31 Gd1 2.717 . S
O31 C19 1.257 . S
H32 C5 0.930 . S
H33 C6 0.931 . S
H34 C8 0.931 . S
H35 C9 0.931 . S
H36 C14 0.930 . S
H37 C15 0.931 . S
H38 C17 0.931 . S
H39 C18 0.931 . S
Gd40 C43 2.818 1_545 S
Gd40 O60 2.377 1_545 S
Gd40 O62 2.448 1_545 S
Gd40 O63 2.506 1_545 S
Gd40 O64 2.435 . S
Gd40 O65 2.717 . S
Gd40 O67 2.395 . S
Gd40 O71 2.327 . S
Gd41 C52 2.818 . S
Gd41 O61 2.395 1_545 S
Gd41 O65 2.327 . S
Gd41 O66 2.377 . S
Gd41 O68 2.448 . S
Gd41 O69 2.506 . S
Gd41 O70 2.435 . S
Gd41 O71 2.717 . S
C42 O60 1.240 . S
C42 O61 1.240 . S
C43 Gd40 2.818 1_565 S
C43 C44 1.510 . S
C43 O62 1.249 . S
C43 O63 1.252 . S
C44 C43 1.510 . S
C44 C45 1.404 . S
C44 C46 1.352 . S
C45 C44 1.404 . S
C45 C49 1.389 . S
C45 H72 0.930 . S
C46 C44 1.352 . S
C46 C48 1.374 . S
C46 H73 0.931 . S
C47 C48 1.359 . S
C47 C49 1.364 . S
C48 C46 1.374 . S
C48 C47 1.359 . S
C48 H74 0.931 . S
C49 C45 1.389 . S
C49 C47 1.364 . S
C49 H75 0.931 . S
C50 O64 1.256 . S
C50 O65 1.257 . S
C51 O66 1.240 . S
C51 O67 1.240 . S
C52 Gd41 2.818 . S
C52 C53 1.510 . S
C52 O68 1.249 . S
C52 O69 1.252 . S
C53 C52 1.510 . S
C53 C54 1.404 . S
C53 C55 1.352 . S
C54 C53 1.404 . S
C54 C58 1.389 . S
C54 H76 0.930 . S
C55 C53 1.352 . S
C55 C57 1.374 . S
C55 H77 0.931 . S
C56 C57 1.359 . S
C56 C58 1.364 . S
C57 C55 1.374 . S
C57 C56 1.359 . S
C57 H78 0.931 . S
C58 C54 1.389 . S
C58 C56 1.364 . S
C58 H79 0.931 . S
C59 O70 1.256 . S
C59 O71 1.257 . S
O60 Gd40 2.377 1_565 S
O60 C42 1.240 . S
O61 Gd41 2.395 1_565 S
O61 C42 1.240 . S
O62 Gd40 2.448 1_565 S
O62 C43 1.249 . S
O63 Gd40 2.506 1_565 S
O63 C43 1.252 . S
O64 Gd40 2.435 . S
O64 C50 1.256 . S
O65 Gd40 2.717 . S
O65 Gd41 2.327 . S
O65 C50 1.257 . S
O66 Gd41 2.377 . S
O66 C51 1.240 . S
O67 Gd40 2.395 . S
O67 C51 1.240 . S
O68 Gd41 2.448 . S
O68 C52 1.249 . S
O69 Gd41 2.506 . S
O69 C52 1.252 . S
O70 Gd41 2.435 . S
O70 C59 1.256 . S
O71 Gd40 2.327 . S
O71 Gd41 2.717 . S
O71 C59 1.257 . S
H72 C45 0.930 . S
H73 C46 0.931 . S
H74 C48 0.931 . S
H75 C49 0.931 . S
H76 C54 0.930 . S
H77 C55 0.931 . S
H78 C57 0.931 . S
H79 C58 0.931 . S
Gd80 C83 2.818 . S
Gd80 O100 2.377 . S
Gd80 O102 2.448 . S
Gd80 O103 2.506 . S
Gd80 O104 2.435 . S
Gd80 O105 2.717 . S
Gd80 O107 2.395 . S
Gd80 O111 2.327 . S
Gd81 C92 2.818 . S
Gd81 O101 2.395 . S
Gd81 O105 2.327 . S
Gd81 O106 2.377 . S
Gd81 O108 2.448 . S
Gd81 O109 2.506 . S
Gd81 O110 2.435 . S
Gd81 O111 2.717 . S
C82 O100 1.240 . S
C82 O101 1.240 . S
C83 Gd80 2.818 . S
C83 C84 1.510 . S
C83 O102 1.249 . S
C83 O103 1.252 . S
C84 C83 1.510 . S
C84 C85 1.404 . S
C84 C86 1.352 . S
C85 C84 1.404 . S
C85 C89 1.389 . S
C85 H112 0.930 . S
C86 C84 1.352 . S
C86 C88 1.374 . S
C86 H113 0.931 . S
C87 C88 1.359 . S
C87 C89 1.364 . S
C88 C86 1.374 . S
C88 C87 1.359 . S
C88 H114 0.931 . S
C89 C85 1.389 . S
C89 C87 1.364 . S
C89 H115 0.931 . S
C90 O104 1.256 . S
C90 O105 1.257 . S
C91 O106 1.240 . S
C91 O107 1.240 . S
C92 Gd81 2.818 . S
C92 C93 1.510 . S
C92 O108 1.249 . S
C92 O109 1.252 . S
C93 C92 1.510 . S
C93 C94 1.404 . S
C93 C95 1.352 . S
C94 C93 1.404 . S
C94 C98 1.389 . S
C94 H116 0.930 . S
C95 C93 1.352 . S
C95 C97 1.374 . S
C95 H117 0.931 . S
C96 C97 1.359 . S
C96 C98 1.364 . S
C97 C95 1.374 . S
C97 C96 1.359 . S
C97 H118 0.931 . S
C98 C94 1.389 . S
C98 C96 1.364 . S
C98 H119 0.931 . S
C99 O110 1.256 . S
C99 O111 1.257 . S
O100 Gd80 2.377 . S
O100 C82 1.240 . S
O101 Gd81 2.395 . S
O101 C82 1.240 . S
O102 Gd80 2.448 . S
O102 C83 1.249 . S
O103 Gd80 2.506 . S
O103 C83 1.252 . S
O104 Gd80 2.435 . S
O104 C90 1.256 . S
O105 Gd80 2.717 . S
O105 Gd81 2.327 . S
O105 C90 1.257 . S
O106 Gd81 2.377 . S
O106 C91 1.240 . S
O107 Gd80 2.395 . S
O107 C91 1.240 . S
O108 Gd81 2.448 . S
O108 C92 1.249 . S
O109 Gd81 2.506 . S
O109 C92 1.252 . S
O110 Gd81 2.435 . S
O110 C99 1.256 . S
O111 Gd80 2.327 . S
O111 Gd81 2.717 . S
O111 C99 1.257 . S
H112 C85 0.930 . S
H113 C86 0.931 . S
H114 C88 0.931 . S
H115 C89 0.931 . S
H116 C94 0.930 . S
H117 C95 0.931 . S
H118 C97 0.931 . S
H119 C98 0.931 . S
H120 C125 0.930 . S
H121 C128 0.930 . S
H122 C130 0.930 1_565 S
H123 C124 1.016 . S
C124 H123 1.016 . S
C124 N131 1.286 . S
C125 H120 0.930 . S
C125 C126 1.397 1_545 S
C125 C127 1.361 . S
C126 C125 1.397 1_565 S
C126 C130 1.390 1_565 S
C127 C125 1.361 . S
C127 C128 1.393 . S
C127 N131 1.413 . S
C128 H121 0.930 . S
C128 C127 1.393 . S
C128 C129 1.399 . S
C129 C128 1.399 . S
C129 C130 1.381 . S
C130 H122 0.930 1_545 S
C130 C126 1.390 1_545 S
C130 C129 1.381 . S
N131 C124 1.286 . S
N131 C127 1.413 . S
H132 C137 0.930 . S
H133 C140 0.930 . S
H134 C142 0.930 . S
H135 C136 1.016 . S
C136 H135 1.016 . S
C136 N143 1.286 . S
C137 H132 0.930 . S
C137 C138 1.397 . S
C137 C139 1.361 . S
C138 C137 1.397 . S
C138 C142 1.390 . S
C139 C137 1.361 . S
C139 C140 1.393 . S
C139 N143 1.413 . S
C140 H133 0.930 . S
C140 C139 1.393 . S
C140 C141 1.399 . S
C141 C140 1.399 . S
C141 C142 1.381 . S
C142 H134 0.930 . S
C142 C138 1.390 . S
C142 C141 1.381 . S
N143 C136 1.286 . S
N143 C139 1.413 . S
H144 C149 0.930 . S
H145 C152 0.930 . S
H146 C154 0.930 . S
H147 C148 1.016 . S
C148 H147 1.016 . S
C148 N155 1.286 . S
C149 H144 0.930 . S
C149 C150 1.397 . S
C149 C151 1.361 . S
C150 C149 1.397 . S
C150 C154 1.390 . S
C151 C149 1.361 . S
C151 C152 1.393 . S
C151 N155 1.413 . S
C152 H145 0.930 . S
C152 C151 1.393 . S
C152 C153 1.399 . S
C153 C152 1.399 . S
C153 C154 1.381 . S
C154 H146 0.930 . S
C154 C150 1.390 . S
C154 C153 1.381 . S
N155 C148 1.286 . S
N155 C151 1.413 . S
H156 C161 0.930 . S
H157 C164 0.930 . S
H158 C166 0.930 . S
H159 C160 1.016 . S
C160 H159 1.016 . S
C160 N167 1.286 . S
C161 H156 0.930 . S
C161 C162 1.397 . S
C161 C163 1.361 1_455 S
C162 C161 1.397 . S
C162 C166 1.390 . S
C163 C161 1.361 1_655 S
C163 C164 1.393 . S
C163 N167 1.413 . S
C164 H157 0.930 . S
C164 C163 1.393 . S
C164 C165 1.399 1_655 S
C165 C164 1.399 1_455 S
C165 C166 1.381 . S
C166 H158 0.930 . S
C166 C162 1.390 . S
C166 C165 1.381 . S
N167 C160 1.286 . S
N167 C163 1.413 . S
H168 C173 0.930 . S
H169 C176 0.930 1_565 S
H170 C178 0.930 . S
H171 C172 1.016 . S
C172 H171 1.016 . S
C172 N179 1.286 . S
C173 H168 0.930 . S
C173 C174 1.397 . S
C173 C175 1.361 . S
C174 C173 1.397 . S
C174 C178 1.390 . S
C175 C173 1.361 . S
C175 C176 1.393 . S
C175 N179 1.413 1_545 S
C176 H169 0.930 1_545 S
C176 C175 1.393 . S
C176 C177 1.399 . S
C177 C176 1.399 . S
C177 C178 1.381 . S
C178 H170 0.930 . S
C178 C174 1.390 . S
C178 C177 1.381 . S
N179 C172 1.286 . S
N179 C175 1.413 1_565 S
H180 C185 0.930 . S
H181 C188 0.930 . S
H182 C190 0.930 . S
H183 C184 1.016 . S
C184 H183 1.016 . S
C184 N191 1.286 . S
C185 H180 0.930 . S
C185 C186 1.397 . S
C185 C187 1.361 . S
C186 C185 1.397 . S
C186 C190 1.390 . S
C187 C185 1.361 . S
C187 C188 1.393 . S
C187 N191 1.413 . S
C188 H181 0.930 . S
C188 C187 1.393 . S
C188 C189 1.399 . S
C189 C188 1.399 . S
C189 C190 1.381 . S
C190 H182 0.930 . S
C190 C186 1.390 . S
C190 C189 1.381 . S
N191 C184 1.286 . S
N191 C187 1.413 . S
H192 C200 0.950 . S
H193 C205 0.950 . S
H194 C202 0.950 . S
H195 C204 0.950 . S
H196 C206 0.950 . S
H197 C208 0.950 . S
H198 C210 0.950 . S
H199 C211 0.950 . S
C200 H192 0.950 . S
C200 C201 1.386 . S
C200 C202 1.391 . S
C201 C200 1.386 . S
C201 C205 1.393 . S
C202 H194 0.950 . S
C202 C200 1.391 . S
C202 C203 1.400 . S
C203 C202 1.400 . S
C203 C204 1.398 . S
C203 C209 1.491 . S
C204 H195 0.950 . S
C204 C203 1.398 . S
C204 C205 1.391 . S
C205 H193 0.950 . S
C205 C201 1.393 . S
C205 C204 1.391 . S
C206 H196 0.950 . S
C206 C207 1.386 . S
C206 C208 1.391 . S
C207 C206 1.386 . S
C207 C211 1.393 . S
C208 H197 0.950 . S
C208 C206 1.391 . S
C208 C209 1.400 . S
C209 C203 1.491 . S
C209 C208 1.400 . S
C209 C210 1.398 . S
C210 H198 0.950 . S
C210 C209 1.398 . S
C210 C211 1.391 . S
C211 H199 0.950 . S
C211 C207 1.393 . S
C211 C210 1.391 . S
H212 C220 0.950 . S
H213 C225 0.950 . S
H214 C222 0.950 . S
H215 C224 0.950 . S
H216 C226 0.950 . S
H217 C228 0.950 . S
H218 C230 0.950 . S
H219 C231 0.950 . S
C220 H212 0.950 . S
C220 C221 1.386 . S
C220 C222 1.391 . S
C221 C220 1.386 . S
C221 C225 1.393 . S
C222 H214 0.950 . S
C222 C220 1.391 . S
C222 C223 1.400 . S
C223 C222 1.400 . S
C223 C224 1.398 . S
C223 C229 1.491 . S
C224 H215 0.950 . S
C224 C223 1.398 . S
C224 C225 1.391 . S
C225 H213 0.950 . S
C225 C221 1.393 . S
C225 C224 1.391 . S
C226 H216 0.950 . S
C226 C227 1.386 . S
C226 C228 1.391 . S
C227 C226 1.386 . S
C227 C231 1.393 . S
C228 H217 0.950 . S
C228 C226 1.391 . S
C228 C229 1.400 . S
C229 C223 1.491 . S
C229 C228 1.400 . S
C229 C230 1.398 . S
C230 H218 0.950 . S
C230 C229 1.398 . S
C230 C231 1.391 . S
C231 H219 0.950 . S
C231 C227 1.393 . S
C231 C230 1.391 . S
H232 C240 0.950 . S
H233 C245 0.950 . S
H234 C242 0.950 . S
H235 C244 0.950 . S
H236 C246 0.950 . S
H237 C248 0.950 . S
H238 C250 0.950 . S
H239 C251 0.950 . S
C240 H232 0.950 . S
C240 C241 1.386 . S
C240 C242 1.391 . S
C241 C240 1.386 . S
C241 C245 1.393 . S
C242 H234 0.950 . S
C242 C240 1.391 . S
C242 C243 1.400 . S
C243 C242 1.400 . S
C243 C244 1.398 . S
C243 C249 1.491 . S
C244 H235 0.950 . S
C244 C243 1.398 . S
C244 C245 1.391 . S
C245 H233 0.950 . S
C245 C241 1.393 . S
C245 C244 1.391 . S
C246 H236 0.950 . S
C246 C247 1.386 . S
C246 C248 1.391 . S
C247 C246 1.386 . S
C247 C251 1.393 . S
C248 H237 0.950 . S
C248 C246 1.391 . S
C248 C249 1.400 . S
C249 C243 1.491 . S
C249 C248 1.400 . S
C249 C250 1.398 . S
C250 H238 0.950 . S
C250 C249 1.398 . S
C250 C251 1.391 . S
C251 H239 0.950 . S
C251 C247 1.393 . S
C251 C250 1.391 . S
H252 C260 0.950 . S
H253 C265 0.950 . S
H254 C262 0.950 . S
H255 C264 0.950 . S
H256 C266 0.950 . S
H257 C268 0.950 . S
H258 C270 0.950 . S
H259 C271 0.950 . S
C260 H252 0.950 . S
C260 C261 1.386 . S
C260 C262 1.391 . S
C261 C260 1.386 . S
C261 C265 1.393 . S
C262 H254 0.950 . S
C262 C260 1.391 . S
C262 C263 1.400 . S
C263 C262 1.400 . S
C263 C264 1.398 . S
C263 C269 1.491 . S
C264 H255 0.950 . S
C264 C263 1.398 . S
C264 C265 1.391 . S
C265 H253 0.950 . S
C265 C261 1.393 . S
C265 C264 1.391 . S
C266 H256 0.950 . S
C266 C267 1.386 . S
C266 C268 1.391 . S
C267 C266 1.386 . S
C267 C271 1.393 . S
C268 H257 0.950 . S
C268 C266 1.391 . S
C268 C269 1.400 . S
C269 C263 1.491 . S
C269 C268 1.400 . S
C269 C270 1.398 . S
C270 H258 0.950 . S
C270 C269 1.398 . S
C270 C271 1.391 . S
C271 H259 0.950 . S
C271 C267 1.393 . S
C271 C270 1.391 . S
H272 C280 0.950 . S
H273 C285 0.950 . S
H274 C282 0.950 . S
H275 C284 0.950 . S
H276 C286 0.950 . S
H277 C288 0.950 . S
H278 C290 0.950 . S
H279 C291 0.950 . S
C280 H272 0.950 . S
C280 C281 1.386 . S
C280 C282 1.391 . S
C281 C280 1.386 . S
C281 C285 1.393 . S
C282 H274 0.950 . S
C282 C280 1.391 . S
C282 C283 1.400 . S
C283 C282 1.400 . S
C283 C284 1.398 . S
C283 C289 1.491 . S
C284 H275 0.950 . S
C284 C283 1.398 . S
C284 C285 1.391 . S
C285 H273 0.950 . S
C285 C281 1.393 . S
C285 C284 1.391 . S
C286 H276 0.950 . S
C286 C287 1.386 . S
C286 C288 1.391 . S
C287 C286 1.386 . S
C287 C291 1.393 . S
C288 H277 0.950 . S
C288 C286 1.391 . S
C288 C289 1.400 . S
C289 C283 1.491 . S
C289 C288 1.400 . S
C289 C290 1.398 . S
C290 H278 0.950 . S
C290 C289 1.398 . S
C290 C291 1.391 . S
C291 H279 0.950 . S
C291 C287 1.393 . S
C291 C290 1.391 . S
H292 C300 0.950 . S
H293 C305 0.950 . S
H294 C302 0.950 . S
H295 C304 0.950 . S
H296 C306 0.950 . S
H297 C308 0.950 . S
H298 C310 0.950 . S
H299 C311 0.950 . S
C300 H292 0.950 . S
C300 C301 1.386 . S
C300 C302 1.391 . S
C301 C300 1.386 . S
C301 C305 1.393 . S
C302 H294 0.950 . S
C302 C300 1.391 . S
C302 C303 1.400 . S
C303 C302 1.400 . S
C303 C304 1.398 . S
C303 C309 1.491 . S
C304 H295 0.950 . S
C304 C303 1.398 . S
C304 C305 1.391 . S
C305 H293 0.950 . S
C305 C301 1.393 . S
C305 C304 1.391 . S
C306 H296 0.950 . S
C306 C307 1.386 . S
C306 C308 1.391 . S
C307 C306 1.386 . S
C307 C311 1.393 . S
C308 H297 0.950 . S
C308 C306 1.391 . S
C308 C309 1.400 . S
C309 C303 1.491 . S
C309 C308 1.400 . S
C309 C310 1.398 . S
C310 H298 0.950 . S
C310 C309 1.398 . S
C310 C311 1.391 . S
C311 H299 0.950 . S
C311 C307 1.393 . S
C311 C310 1.391 . S
H312 C320 0.950 . S
H313 C325 0.950 . S
H314 C322 0.950 . S
H315 C324 0.950 . S
H316 C326 0.950 . S
H317 C328 0.950 . S
H318 C330 0.950 . S
H319 C331 0.950 . S
C320 H312 0.950 . S
C320 C321 1.386 . S
C320 C322 1.391 . S
C321 C320 1.386 . S
C321 C325 1.393 . S
C322 H314 0.950 . S
C322 C320 1.391 . S
C322 C323 1.400 . S
C323 C322 1.400 . S
C323 C324 1.398 . S
C323 C329 1.491 . S
C324 H315 0.950 . S
C324 C323 1.398 . S
C324 C325 1.391 . S
C325 H313 0.950 . S
C325 C321 1.393 . S
C325 C324 1.391 . S
C326 H316 0.950 . S
C326 C327 1.386 . S
C326 C328 1.391 . S
C327 C326 1.386 . S
C327 C331 1.393 . S
C328 H317 0.950 . S
C328 C326 1.391 . S
C328 C329 1.400 . S
C329 C323 1.491 . S
C329 C328 1.400 . S
C329 C330 1.398 . S
C330 H318 0.950 . S
C330 C329 1.398 . S
C330 C331 1.391 . S
C331 H319 0.950 . S
C331 C327 1.393 . S
C331 C330 1.391 . S
H332 C340 0.950 . S
H333 C345 0.950 . S
H334 C342 0.950 . S
H335 C344 0.950 . S
H336 C346 0.950 . S
H337 C348 0.950 . S
H338 C350 0.950 . S
H339 C351 0.950 . S
C340 H332 0.950 . S
C340 C341 1.386 . S
C340 C342 1.391 . S
C341 C340 1.386 . S
C341 C345 1.393 . S
C342 H334 0.950 . S
C342 C340 1.391 . S
C342 C343 1.400 . S
C343 C342 1.400 . S
C343 C344 1.398 . S
C343 C349 1.491 . S
C344 H335 0.950 . S
C344 C343 1.398 . S
C344 C345 1.391 . S
C345 H333 0.950 . S
C345 C341 1.393 . S
C345 C344 1.391 . S
C346 H336 0.950 . S
C346 C347 1.386 . S
C346 C348 1.391 . S
C347 C346 1.386 . S
C347 C351 1.393 . S
C348 H337 0.950 . S
C348 C346 1.391 . S
C348 C349 1.400 . S
C349 C343 1.491 . S
C349 C348 1.400 . S
C349 C350 1.398 . S
C350 H338 0.950 . S
C350 C349 1.398 . S
C350 C351 1.391 . S
C351 H339 0.950 . S
C351 C347 1.393 . S
C351 C350 1.391 . S
H352 C360 0.950 . S
H353 C365 0.950 . S
H354 C362 0.950 . S
H355 C364 0.950 . S
H356 C366 0.950 . S
H357 C368 0.950 . S
H358 C370 0.950 . S
H359 C371 0.950 . S
C360 H352 0.950 . S
C360 C361 1.386 . S
C360 C362 1.391 . S
C361 C360 1.386 . S
C361 C365 1.393 . S
C362 H354 0.950 . S
C362 C360 1.391 . S
C362 C363 1.400 . S
C363 C362 1.400 . S
C363 C364 1.398 . S
C363 C369 1.491 . S
C364 H355 0.950 . S
C364 C363 1.398 . S
C364 C365 1.391 . S
C365 H353 0.950 . S
C365 C361 1.393 . S
C365 C364 1.391 . S
C366 H356 0.950 . S
C366 C367 1.386 . S
C366 C368 1.391 . S
C367 C366 1.386 . S
C367 C371 1.393 . S
C368 H357 0.950 . S
C368 C366 1.391 . S
C368 C369 1.400 . S
C369 C363 1.491 . S
C369 C368 1.400 . S
C369 C370 1.398 . S
C370 H358 0.950 . S
C370 C369 1.398 . S
C370 C371 1.391 . S
C371 H359 0.950 . S
C371 C367 1.393 . S
C371 C370 1.391 . S
H372 C380 0.950 . S
H373 C385 0.950 . S
H374 C382 0.950 . S
H375 C384 0.950 . S
H376 C386 0.950 . S
H377 C388 0.950 . S
H378 C390 0.950 . S
H379 C391 0.950 . S
C380 H372 0.950 . S
C380 C381 1.386 . S
C380 C382 1.391 . S
C381 C380 1.386 . S
C381 C385 1.393 . S
C382 H374 0.950 . S
C382 C380 1.391 . S
C382 C383 1.400 . S
C383 C382 1.400 . S
C383 C384 1.398 . S
C383 C389 1.491 . S
C384 H375 0.950 . S
C384 C383 1.398 . S
C384 C385 1.391 . S
C385 H373 0.950 . S
C385 C381 1.393 . S
C385 C384 1.391 . S
C386 H376 0.950 . S
C386 C387 1.386 . S
C386 C388 1.391 . S
C387 C386 1.386 . S
C387 C391 1.393 . S
C388 H377 0.950 . S
C388 C386 1.391 . S
C388 C389 1.400 . S
C389 C383 1.491 . S
C389 C388 1.400 . S
C389 C390 1.398 . S
C390 H378 0.950 . S
C390 C389 1.398 . S
C390 C391 1.391 . S
C391 H379 0.950 . S
C391 C387 1.393 . S
C391 C390 1.391 . S
H392 C400 0.950 . S
H393 C405 0.950 . S
H394 C402 0.950 . S
H395 C404 0.950 . S
H396 C406 0.950 . S
H397 C408 0.950 . S
H398 C410 0.950 . S
H399 C411 0.950 . S
C400 H392 0.950 . S
C400 C401 1.386 . S
C400 C402 1.391 . S
C401 C400 1.386 . S
C401 C405 1.393 . S
C402 H394 0.950 . S
C402 C400 1.391 . S
C402 C403 1.400 . S
C403 C402 1.400 . S
C403 C404 1.398 . S
C403 C409 1.491 . S
C404 H395 0.950 . S
C404 C403 1.398 . S
C404 C405 1.391 . S
C405 H393 0.950 . S
C405 C401 1.393 . S
C405 C404 1.391 . S
C406 H396 0.950 . S
C406 C407 1.386 . S
C406 C408 1.391 . S
C407 C406 1.386 . S
C407 C411 1.393 . S
C408 H397 0.950 . S
C408 C406 1.391 . S
C408 C409 1.400 . S
C409 C403 1.491 . S
C409 C408 1.400 . S
C409 C410 1.398 . S
C410 H398 0.950 . S
C410 C409 1.398 . S
C410 C411 1.391 . S
C411 H399 0.950 . S
C411 C407 1.393 . S
C411 C410 1.391 . S
H412 C420 0.950 . S
H413 C425 0.950 . S
H414 C422 0.950 . S
H415 C424 0.950 . S
H416 C426 0.950 . S
H417 C428 0.950 . S
H418 C430 0.950 . S
H419 C431 0.950 . S
C420 H412 0.950 . S
C420 C421 1.386 . S
C420 C422 1.391 . S
C421 C420 1.386 . S
C421 C425 1.393 . S
C422 H414 0.950 . S
C422 C420 1.391 . S
C422 C423 1.400 . S
C423 C422 1.400 . S
C423 C424 1.398 . S
C423 C429 1.491 . S
C424 H415 0.950 . S
C424 C423 1.398 . S
C424 C425 1.391 . S
C425 H413 0.950 . S
C425 C421 1.393 . S
C425 C424 1.391 . S
C426 H416 0.950 . S
C426 C427 1.386 . S
C426 C428 1.391 . S
C427 C426 1.386 . S
C427 C431 1.393 . S
C428 H417 0.950 . S
C428 C426 1.391 . S
C428 C429 1.400 . S
C429 C423 1.491 . S
C429 C428 1.400 . S
C429 C430 1.398 . S
C430 H418 0.950 . S
C430 C429 1.398 . S
C430 C431 1.391 . S
C431 H419 0.950 . S
C431 C427 1.393 . S
C431 C430 1.391 . S
H432 C440 0.950 . S
H433 C445 0.950 . S
H434 C442 0.934 1_655 S
H435 C444 0.950 . S
H436 C446 0.950 . S
H437 C448 0.950 . S
H438 C450 0.950 1_655 S
H439 C451 0.950 1_655 S
C440 H432 0.950 . S
C440 C441 1.386 . S
C440 C442 1.391 . S
C441 C440 1.386 . S
C441 C445 1.393 . S
C442 H434 0.934 1_455 S
C442 C440 1.391 . S
C442 C443 1.400 . S
C443 C442 1.400 . S
C443 C444 1.398 . S
C443 C449 1.491 1_554 S
C444 H435 0.950 . S
C444 C443 1.398 . S
C444 C445 1.391 . S
C445 H433 0.950 . S
C445 C441 1.393 . S
C445 C444 1.391 . S
C446 H436 0.950 . S
C446 C447 1.386 . S
C446 C448 1.391 . S
C447 C446 1.386 . S
C447 C451 1.393 . S
C448 H437 0.950 . S
C448 C446 1.391 . S
C448 C449 1.400 . S
C449 C443 1.491 1_556 S
C449 C448 1.400 . S
C449 C450 1.398 . S
C450 H438 0.950 1_455 S
C450 C449 1.398 . S
C450 C451 1.391 . S
C451 H439 0.950 1_455 S
C451 C447 1.393 . S
C451 C450 1.391 . S
H452 C460 0.950 . S
H453 C465 0.950 . S
H454 C462 0.950 . S
H455 C464 0.950 . S
H456 C466 0.950 1_565 S
H457 C468 0.950 1_565 S
H458 C470 0.950 . S
H459 C471 0.950 . S
C460 H452 0.950 . S
C460 C461 1.386 . S
C460 C462 1.391 . S
C461 C460 1.386 . S
C461 C465 1.393 1_545 S
C462 H454 0.950 . S
C462 C460 1.391 . S
C462 C463 1.400 . S
C463 C462 1.400 . S
C463 C464 1.398 1_545 S
C463 C469 1.491 . S
C464 H455 0.950 . S
C464 C463 1.398 1_565 S
C464 C465 1.391 . S
C465 H453 0.950 . S
C465 C461 1.393 1_565 S
C465 C464 1.391 . S
C466 H456 0.950 1_545 S
C466 C467 1.386 . S
C466 C468 1.391 . S
C467 C466 1.386 . S
C467 C471 1.393 . S
C468 H457 0.950 1_545 S
C468 C466 1.391 . S
C468 C469 1.400 . S
C469 C463 1.491 . S
C469 C468 1.400 . S
C469 C470 1.398 . S
C470 H458 0.950 . S
C470 C469 1.398 . S
C470 C471 1.391 . S
C471 H459 0.950 . S
C471 C467 1.393 . S
C471 C470 1.391 . S
H472 C480 0.950 . S
H473 C485 0.950 . S
H474 C482 0.950 . S
H475 C484 0.950 . S
H476 C486 0.950 . S
H477 C488 0.950 . S
H478 C490 0.950 . S
H479 C491 0.950 . S
C480 H472 0.950 . S
C480 C481 1.386 . S
C480 C482 1.391 . S
C481 C480 1.386 . S
C481 C485 1.393 . S
C482 H474 0.950 . S
C482 C480 1.391 . S
C482 C483 1.400 . S
C483 C482 1.400 . S
C483 C484 1.398 . S
C483 C489 1.491 . S
C484 H475 0.950 . S
C484 C483 1.398 . S
C484 C485 1.391 . S
C485 H473 0.950 . S
C485 C481 1.393 . S
C485 C484 1.391 . S
C486 H476 0.950 . S
C486 C487 1.386 . S
C486 C488 1.391 . S
C487 C486 1.386 . S
C487 C491 1.393 . S
C488 H477 0.950 . S
C488 C486 1.391 . S
C488 C489 1.400 . S
C489 C483 1.491 . S
C489 C488 1.400 . S
C489 C490 1.398 . S
C490 H478 0.950 . S
C490 C489 1.398 . S
C490 C491 1.391 . S
C491 H479 0.950 . S
C491 C487 1.393 . S
C491 C490 1.391 . S
H492 C500 0.950 . S
H493 C505 0.950 1_565 S
H494 C502 0.950 . S
H495 C504 0.950 1_565 S
H496 C506 0.950 . S
H497 C508 0.956 1_565 S
H498 C510 0.950 . S
H499 C511 0.950 . S
C500 H492 0.950 . S
C500 C501 1.386 . S
C500 C502 1.391 . S
C501 C500 1.386 . S
C501 C505 1.393 . S
C502 H494 0.950 . S
C502 C500 1.391 . S
C502 C503 1.400 . S
C503 C502 1.400 . S
C503 C504 1.398 . S
C503 C509 1.491 . S
C504 H495 0.950 1_545 S
C504 C503 1.398 . S
C504 C505 1.391 . S
C505 H493 0.950 1_545 S
C505 C501 1.393 . S
C505 C504 1.391 . S
C506 H496 0.950 . S
C506 C507 1.386 1_565 S
C506 C508 1.385 1_565 S
C507 C506 1.386 1_545 S
C507 C511 1.393 . S
C508 H497 0.956 1_545 S
C508 C506 1.385 1_545 S
C508 C509 1.401 . S
C509 C503 1.491 . S
C509 C508 1.401 . S
C509 C510 1.398 . S
C510 H498 0.950 . S
C510 C509 1.398 . S
C510 C511 1.391 . S
C511 H499 0.950 . S
C511 C507 1.393 . S
C511 C510 1.391 . S
H512 C520 0.950 . S
H513 C525 0.950 . S
H514 C522 0.950 . S
H515 C524 0.950 . S
H516 C526 0.950 . S
H517 C528 0.950 . S
H518 C530 0.944 1_556 S
H519 C531 0.950 . S
C520 H512 0.950 . S
C520 C521 1.386 . S
C520 C522 1.391 . S
C521 C520 1.386 . S
C521 C525 1.393 . S
C522 H514 0.950 . S
C522 C520 1.391 . S
C522 C523 1.400 . S
C523 C522 1.400 . S
C523 C524 1.398 . S
C523 C529 1.491 . S
C524 H515 0.950 . S
C524 C523 1.398 . S
C524 C525 1.391 . S
C525 H513 0.950 . S
C525 C521 1.393 . S
C525 C524 1.391 . S
C526 H516 0.950 . S
C526 C527 1.386 . S
C526 C528 1.391 . S
C527 C526 1.386 . S
C527 C531 1.393 . S
C528 H517 0.950 . S
C528 C526 1.391 . S
C528 C529 1.400 1_554 S
C529 C523 1.491 . S
C529 C528 1.400 1_556 S
C529 C530 1.394 1_556 S
C530 H518 0.944 1_554 S
C530 C529 1.394 1_554 S
C530 C531 1.401 . S
C531 H519 0.950 . S
C531 C527 1.393 . S
C531 C530 1.401 . S
H532 C540 0.950 . S
H533 C545 0.950 . S
H534 C542 0.950 1_655 S
H535 C544 0.950 . S
H536 C546 0.950 . S
H537 C548 0.950 . S
H538 C550 0.950 . S
H539 C551 0.950 . S
C540 H532 0.950 . S
C540 C541 1.386 . S
C540 C542 1.391 . S
C541 C540 1.386 . S
C541 C545 1.393 . S
C542 H534 0.950 1_455 S
C542 C540 1.391 . S
C542 C543 1.400 . S
C543 C542 1.400 . S
C543 C544 1.398 . S
C543 C549 1.491 . S
C544 H535 0.950 . S
C544 C543 1.398 . S
C544 C545 1.391 . S
C545 H533 0.950 . S
C545 C541 1.393 . S
C545 C544 1.391 . S
C546 H536 0.950 . S
C546 C547 1.386 . S
C546 C548 1.391 . S
C547 C546 1.386 . S
C547 C551 1.393 1_455 S
C548 H537 0.950 . S
C548 C546 1.391 . S
C548 C549 1.400 . S
C549 C543 1.491 . S
C549 C548 1.400 . S
C549 C550 1.398 1_455 S
C550 H538 0.950 . S
C550 C549 1.398 1_655 S
C550 C551 1.391 . S
C551 H539 0.950 . S
C551 C547 1.393 1_655 S
C551 C550 1.391 . S
C201 C7 0.839 . S
C207 C186 0.870 . S
C221 C51 1.940 . S
C227 C160 1.884 . S
C241 C87 1.261 . S
C247 C172 1.275 . S
C261 C16 0.274 . S
C267 C184 0.257 . S
C287 C162 1.855 . S
C281 C42 1.883 . S
C307 C174 1.166 . S
C301 C96 1.158 . S
C321 C47 1.277 . S
C327 C136 1.290 . S
C341 C91 3.355 . S
C347 C150 3.327 1_655 S
C361 C2 1.899 . S
C367 C126 1.879 . S
C387 C138 1.162 . S
C381 C56 1.172 . S
C407 C148 2.670 . S
C401 C82 2.770 . S
C421 C11 1.948 . S
C427 C124 1.887 . S
C447 C153 1.767 . S
C441 C19 1.684 . S
C461 C50 1.403 . S
C467 C129 1.475 . S
C481 C99 1.504 . S
C487 C141 1.518 . S
C507 C177 1.531 . S
C501 C59 1.507 . S
C527 C189 1.255 . S
C521 C90 1.239 . S
C541 C10 1.399 . S
C547 C165 1.444 . S
