# Generated by pormake.
# Topology rtl, (3,6)-cn, num edge types: 1
# Building blocks:
#     Node 0, Type 0, BuildingBlock: BELTOD_clean_linker_0, # of connection points: 3
#     Node 1, Type 0, BuildingBlock: BELTOD_clean_linker_0, # of connection points: 3
#     Node 2, Type 0, BuildingBlock: BELTOD_clean_linker_0, # of connection points: 3
#     Node 3, Type 0, BuildingBlock: BELTOD_clean_linker_0, # of connection points: 3
#     Node 4, Type 1, BuildingBlock: VOLQOD_clean_sbu_1, # of connection points: 6
#     Node 5, Type 1, BuildingBlock: VOLQOD_clean_sbu_1, # of connection points: 6
#     Edge 6, Type (0, 1), BuildingBlock: ZUJKAS_clean_linker_0, # of connection points: 2
#     Edge 7, Type (0, 1), BuildingBlock: ZUJKAS_clean_linker_0, # of connection points: 2
#     Edge 8, Type (0, 1), BuildingBlock: ZUJKAS_clean_linker_0, # of connection points: 2
#     Edge 9, Type (0, 1), BuildingBlock: ZUJKAS_clean_linker_0, # of connection points: 2
#     Edge 10, Type (0, 1), BuildingBlock: ZUJKAS_clean_linker_0, # of connection points: 2
#     Edge 11, Type (0, 1), BuildingBlock: ZUJKAS_clean_linker_0, # of connection points: 2
#     Edge 12, Type (0, 1), BuildingBlock: ZUJKAS_clean_linker_0, # of connection points: 2
#     Edge 13, Type (0, 1), BuildingBlock: ZUJKAS_clean_linker_0, # of connection points: 2
#     Edge 14, Type (0, 1), BuildingBlock: ZUJKAS_clean_linker_0, # of connection points: 2
#     Edge 15, Type (0, 1), BuildingBlock: ZUJKAS_clean_linker_0, # of connection points: 2
#     Edge 16, Type (0, 1), BuildingBlock: ZUJKAS_clean_linker_0, # of connection points: 2
#     Edge 17, Type (0, 1), BuildingBlock: ZUJKAS_clean_linker_0, # of connection points: 2
# Relax obj value: 0.074
# Max RMSD: 0.154
# Mean RMSD: 0.083
data_MOF--net-rtl--node1-VOLQOD_clean_sbu_1--node2-BELTOD_clean_linker_0--edge1-ZUJKAS_clean_linker_0
_symmetry_space_group_name_H-M    P1
_symmetry_Int_Tables_number       1
_symmetry_cell_setting            triclinic
loop_
_symmetry_equiv_pos_as_xyz
'x, y, z'
_cell_length_a     52.319189
_cell_length_b     45.741287
_cell_length_c     33.5998
_cell_angle_alpha  89.206388
_cell_angle_beta   90.354348
_cell_angle_gamma 90.056545
loop_
_atom_site_label
_atom_site_type_symbol
_atom_site_fract_x
_atom_site_fract_y
_atom_site_fract_z
_atom_type_partial_charge
P0 P 0.15783 0.75893 0.01338 0.0
H1 H 0.16802 0.76283 0.09808 0.0
H2 H 0.14123 0.77534 0.15454 0.0
H3 H 0.07483 0.77672 0.07735 0.0
H4 H 0.10186 0.76447 0.02087 0.0
H5 H 0.19071 0.73253 0.95527 0.0
H6 H 0.2141 0.68655 0.95494 0.0
H7 H 0.17468 0.65865 0.06168 0.0
H8 H 0.15178 0.70517 0.06224 0.0
H9 H 0.15519 0.81605 0.97494 0.0
H10 H 0.12574 0.72953 0.95391 0.0
O11 O 0.18331 0.78016 0.02095 0.0
H12 H 0.13379 0.83412 0.91483 0.0
H13 H 0.10421 0.74751 0.89316 0.0
C14 C 0.13702 0.76336 0.05525 0.0
C15 C 0.14764 0.76545 0.09345 0.0
C16 C 0.13225 0.77236 0.12575 0.0
C17 C 0.10592 0.77727 0.12034 0.0
C18 C 0.09511 0.7735 0.08231 0.0
C19 C 0.11056 0.76646 0.05001 0.0
C20 C 0.16964 0.7223 0.00879 0.0
C21 C 0.18665 0.7162 0.97804 0.0
C22 C 0.19992 0.68977 0.97781 0.0
C23 C 0.19641 0.66891 0.00848 0.0
C24 C 0.1781 0.67442 0.03796 0.0
C25 C 0.16488 0.70098 0.0382 0.0
C26 C 0.14251 0.77136 0.96825 0.0
C27 C 0.14436 0.80086 0.95704 0.0
C28 C 0.13215 0.81114 0.92262 0.0
C29 C 0.11759 0.79214 0.899 0.0
C30 C 0.11533 0.76262 0.91078 0.0
C31 C 0.12773 0.7523 0.94524 0.0
P32 P 0.65355 0.74195 0.50417 0.0
H33 H 0.67214 0.71834 0.42976 0.0
H34 H 0.65086 0.70689 0.36713 0.0
H35 H 0.5816 0.74731 0.40911 0.0
H36 H 0.60312 0.75852 0.4721 0.0
H37 H 0.70009 0.75782 0.54595 0.0
H38 H 0.72541 0.80238 0.54765 0.0
H39 H 0.66868 0.84651 0.47451 0.0
H40 H 0.64364 0.8012 0.47219 0.0
H41 H 0.61148 0.70103 0.51219 0.0
H42 H 0.6455 0.7695 0.58192 0.0
O43 O 0.67481 0.71498 0.50954 0.0
H44 H 0.5832 0.68849 0.56712 0.0
H45 H 0.61711 0.75701 0.6373 0.0
C46 C 0.63896 0.73848 0.45587 0.0
C47 C 0.65248 0.72507 0.42531 0.0
C48 C 0.64033 0.71875 0.38936 0.0
C49 C 0.61443 0.7259 0.38333 0.0
C50 C 0.60143 0.74109 0.41316 0.0
C51 C 0.61369 0.74754 0.44909 0.0
C52 C 0.67034 0.77607 0.5082 0.0
C53 C 0.69303 0.7771 0.5304 0.0
C54 C 0.70736 0.80278 0.53171 0.0
C55 C 0.69914 0.82809 0.51111 0.0
C56 C 0.67574 0.82729 0.49022 0.0
C57 C 0.66138 0.80146 0.48893 0.0
C58 C 0.63021 0.73658 0.54262 0.0
C59 C 0.61237 0.71392 0.53896 0.0
C60 C 0.59615 0.7068 0.57041 0.0
C61 C 0.5978 0.72189 0.60648 0.0
C62 C 0.61543 0.74499 0.60986 0.0
C63 C 0.63156 0.75224 0.57815 0.0
P64 P 0.90882 0.33396 0.99347 0.0
H65 H 0.95032 0.33113 0.93549 0.0
H66 H 0.95848 0.29854 0.87988 0.0
H67 H 0.88804 0.25258 0.90484 0.0
H68 H 0.87991 0.28547 0.96013 0.0
H69 H 0.87611 0.35549 0.05676 0.0
H70 H 0.83242 0.37431 0.05717 0.0
H71 H 0.82747 0.36297 0.92983 0.0
H72 H 0.87135 0.34497 0.92957 0.0
H73 H 0.95394 0.3261 0.04424 0.0
H74 H 0.87722 0.29194 0.0373 0.0
O75 O 0.92892 0.36231 0.99251 0.0
H76 H 0.96277 0.29415 0.10171 0.0
H77 H 0.88594 0.25976 0.09444 0.0
C78 C 0.9143 0.31099 0.95141 0.0
C79 C 0.93653 0.31422 0.92875 0.0
C80 C 0.94126 0.29544 0.89717 0.0
C81 C 0.92385 0.27306 0.88789 0.0
C82 C 0.90161 0.26989 0.91084 0.0
C83 C 0.89698 0.28859 0.94251 0.0
C84 C 0.87667 0.34794 0.99335 0.0
C85 C 0.86554 0.3569 0.02898 0.0
C86 C 0.84053 0.36757 0.02918 0.0
C87 C 0.82632 0.36981 0.99359 0.0
C88 C 0.83789 0.36163 0.95774 0.0
C89 C 0.86292 0.35101 0.95761 0.0
C90 C 0.91475 0.31188 0.03721 0.0
C91 C 0.93892 0.31195 0.05537 0.0
C92 C 0.944 0.2935 0.08798 0.0
C93 C 0.92499 0.27455 0.10275 0.0
C94 C 0.90082 0.27448 0.08423 0.0
C95 C 0.89582 0.29283 0.05154 0.0
P96 P 0.40795 0.17137 0.50815 0.0
H97 H 0.41934 0.15934 0.59196 0.0
H98 H 0.42632 0.19113 0.64904 0.0
H99 H 0.41483 0.26695 0.57276 0.0
H100 H 0.40709 0.2351 0.51646 0.0
H101 H 0.38368 0.12106 0.47145 0.0
H102 H 0.33938 0.10384 0.46907 0.0
H103 H 0.31615 0.17787 0.5387 0.0
H104 H 0.36041 0.19474 0.54123 0.0
H105 H 0.45649 0.18963 0.47456 0.0
H106 H 0.37661 0.19757 0.44384 0.0
O107 O 0.42727 0.14248 0.51253 0.0
H108 H 0.4677 0.21996 0.41665 0.0
H109 H 0.38763 0.22797 0.38614 0.0
C110 C 0.4133 0.19487 0.54988 0.0
C111 C 0.41842 0.18282 0.58762 0.0
C112 C 0.42248 0.20103 0.62015 0.0
C113 C 0.42132 0.23163 0.61545 0.0
C114 C 0.41565 0.24351 0.57758 0.0
C115 C 0.41151 0.22529 0.54518 0.0
C116 C 0.37539 0.15876 0.50725 0.0
C117 C 0.36904 0.13343 0.48642 0.0
C118 C 0.34371 0.12376 0.48482 0.0
C119 C 0.32429 0.13939 0.50394 0.0
C120 C 0.33074 0.16505 0.52431 0.0
C121 C 0.35606 0.17474 0.52573 0.0
C122 C 0.4158 0.19094 0.46307 0.0
C123 C 0.44141 0.19757 0.45501 0.0
C124 C 0.44776 0.21509 0.42216 0.0
C125 C 0.42854 0.22633 0.39683 0.0
C126 C 0.40288 0.21929 0.40477 0.0
C127 C 0.39655 0.2019 0.43779 0.0
O128 O 0.93256 0.01664 0.4983 0.0
Zn129 Zn 0.96491 0.04081 0.499 0.0
O130 O 0.99542 0.01582 0.5003 0.0
Zn131 Zn 0.016 0.02461 0.54736 0.0
Zn132 Zn 0.98511 0.97466 0.50229 0.0
Zn133 Zn 0.01588 0.02311 0.45266 0.0
O134 O 0.05129 0.03842 0.53254 0.0
O135 O 0.05153 0.03644 0.46662 0.0
O136 O 0.96374 0.06675 0.54717 0.0
O137 O -0.00037 0.05597 0.57973 0.0
O138 O 0.02012 0.98901 0.58263 0.0
O139 O 0.99876 0.95411 0.55144 0.0
O140 O 0.9981 0.95287 0.45479 0.0
O141 O 0.96466 0.06691 0.45004 0.0
O142 O 0.01907 0.98673 0.4201 0.0
O143 O -6e-05 0.05443 0.41806 0.0
C144 C 0.92845 0.9892 0.50013 0.0
C145 C 0.06276 0.04176 0.49947 0.0
C146 C 0.01237 0.96266 0.5806 0.0
C147 C 0.97897 0.07051 0.5764 0.0
C148 C 0.01121 0.96054 0.4246 0.0
C149 C 0.97978 0.06985 0.42065 0.0
O150 O 0.94683 0.97099 0.50222 0.0
O151 O 0.55898 0.49149 0.99707 0.0
Zn152 Zn 0.52616 0.51422 -0.00043 0.0
O153 O 0.49655 0.48842 0.00352 0.0
Zn154 Zn 0.47373 0.4958 0.958 0.0
Zn155 Zn 0.5081 0.44772 0.00316 0.0
Zn156 Zn 0.47848 0.49609 0.05327 0.0
O157 O 0.43874 0.50767 0.97629 0.0
O158 O 0.44213 0.50843 0.04217 0.0
O159 O 0.52395 0.54023 0.95115 0.0
O160 O 0.48717 0.52827 0.92245 0.0
O161 O 0.46976 0.45975 0.92467 0.0
O162 O 0.49393 0.4266 0.95568 0.0
O163 O 0.49661 0.42603 0.05249 0.0
O164 O 0.52857 0.54052 0.04663 0.0
O165 O 0.47707 0.45984 0.088 0.0
O166 O 0.49561 0.52821 0.08457 0.0
C167 C 0.56418 0.4643 0.99813 0.0
C168 C 0.42901 0.51188 0.01039 0.0
C169 C 0.47895 0.43402 0.92727 0.0
C170 C 0.50743 0.54372 0.92354 0.0
C171 C 0.48474 0.43366 0.08366 0.0
C172 C 0.51534 0.54384 0.07789 0.0
O173 O 0.54656 0.44514 0.00073 0.0
H174 H 0.29 0.13731 0.56499 0.0
H175 H 0.24568 0.12026 0.56294 0.0
H176 H 0.25338 0.10124 0.43822 0.0
H177 H 0.29775 0.11819 0.44006 0.0
H178 H 0.20537 0.14104 0.51739 0.0
H179 H 0.22501 0.02481 0.48332 0.0
H180 H 0.24962 0.04958 0.49993 0.0
H181 H 0.23906 0.05043 0.44889 0.0
C182 C 0.28223 0.12958 0.53709 0.0
C183 C 0.29741 0.12898 0.50271 0.0
C184 C 0.25695 0.11974 0.53601 0.0
C185 C 0.24638 0.10905 0.5006 0.0
C186 C 0.26136 0.10872 0.4661 0.0
H187 H 0.09483 0.04719 0.43559 0.0
H188 H 0.13921 0.06414 0.43558 0.0
C189 C 0.28669 0.11845 0.46719 0.0
C190 C 0.21945 0.09899 0.49962 0.0
H191 H 0.1816 0.03981 0.48087 0.0
C192 C 0.20017 0.11888 0.50956 0.0
C193 C 0.21274 0.07007 0.48933 0.0
C194 C 0.23268 0.04738 0.48011 0.0
C195 C 0.17431 0.11072 0.50906 0.0
C196 C 0.16763 0.08183 0.49879 0.0
C197 C 0.18685 0.06197 0.48863 0.0
C198 C 0.14076 0.07169 0.49894 0.0
C199 C 0.15429 0.13317 0.51893 0.0
C200 C 0.1271 0.07004 0.53468 0.0
C201 C 0.10178 0.06031 0.53487 0.0
C202 C 0.08965 0.052 0.49926 0.0
C203 C 0.10352 0.05352 0.46352 0.0
C204 C 0.12889 0.06315 0.46343 0.0
H205 H 0.16199 0.15579 0.51717 0.0
H206 H 0.13762 0.13149 0.49848 0.0
H207 H 0.14746 0.12915 0.54972 0.0
H208 H 0.1361 0.07612 0.56249 0.0
H209 H 0.09174 0.05933 0.56294 0.0
H210 H 0.215 0.63449 0.94886 0.0
H211 H 0.25053 0.60001 0.95378 0.0
H212 H 0.25316 0.61106 0.081 0.0
H213 H 0.21848 0.6465 0.07621 0.0
H214 H 0.29845 0.62267 0.04589 0.0
H215 H 0.26163 0.51657 0.99235 0.0
H216 H 0.25487 0.54642 0.95869 0.0
H217 H 0.24078 0.54582 0.00741 0.0
C218 C 0.22287 0.62924 0.97798 0.0
C219 C 0.21401 0.64349 0.01208 0.0
C220 C 0.24298 0.60921 0.9808 0.0
C221 C 0.25437 0.60278 0.01781 0.0
C222 C 0.24453 0.61559 0.05218 0.0
H223 H 0.40138 0.52248 0.07766 0.0
H224 H 0.35793 0.54179 0.08166 0.0
C225 C 0.22454 0.63571 0.04938 0.0
C226 C 0.27865 0.58618 0.02 0.0
H227 H 0.30728 0.52222 0.99397 0.0
C228 C 0.30029 0.60053 0.03511 0.0
C229 C 0.28104 0.55742 0.00556 0.0
C230 C 0.25828 0.54054 0.99043 0.0
C231 C 0.32441 0.58728 0.03508 0.0
C232 C 0.3269 0.55871 0.02009 0.0
C233 C 0.30524 0.54412 0.00549 0.0
C234 C 0.35213 0.54429 0.0179 0.0
C235 C 0.34722 0.60442 0.04971 0.0
C236 C 0.36287 0.53843 0.98074 0.0
C237 C 0.38766 0.52732 0.9783 0.0
C238 C 0.40214 0.52182 0.01304 0.0
C239 C 0.39089 0.52672 0.0503 0.0
C240 C 0.36608 0.53779 0.05268 0.0
H241 H 0.34293 0.62812 0.05212 0.0
H242 H 0.35291 0.59612 0.07965 0.0
H243 H 0.36374 0.60175 0.0295 0.0
H244 H 0.35234 0.54327 0.95358 0.0
H245 H 0.39564 0.52365 0.94913 0.0
H246 H 0.72825 0.85115 0.57106 0.0
H247 H 0.76182 0.88781 0.56474 0.0
H248 H 0.74149 0.90179 0.44131 0.0
H249 H 0.70874 0.86387 0.44683 0.0
H250 H 0.79029 0.89075 0.44835 0.0
H251 H 0.76686 0.9748 0.55828 0.0
H252 H 0.76673 0.93929 0.58143 0.0
H253 H 0.74388 0.94777 0.54257 0.0
C254 C 0.73071 0.86224 0.54265 0.0
C255 C 0.71599 0.85427 0.50933 0.0
C256 C 0.74967 0.88359 0.53925 0.0
C257 C 0.75403 0.89786 0.50266 0.0
C258 C 0.73837 0.89119 0.46991 0.0
H259 H 0.88406 0.02037 0.48883 0.0
H260 H 0.84036 0.00114 0.48559 0.0
C261 C 0.71952 0.86962 0.4732 0.0
C262 C 0.77706 0.91647 0.49742 0.0
H263 H 0.81191 0.97048 0.54131 0.0
C264 C 0.79474 0.90858 0.46819 0.0
C265 C 0.78282 0.94004 0.52283 0.0
C266 C 0.76389 0.95115 0.55271 0.0
C267 C 0.81858 0.92238 0.46528 0.0
C268 C 0.82522 0.94413 0.493 0.0
C269 C 0.80698 0.95338 0.52057 0.0
C270 C 0.8515 0.95607 0.49536 0.0
C271 C 0.83661 0.91314 0.4329 0.0
C272 C 0.87214 0.93717 0.50275 0.0
C273 C 0.89705 0.94798 0.50446 0.0
C274 C 0.90185 0.97805 0.49926 0.0
C275 C 0.88105 0.99709 0.49282 0.0
C276 C 0.85607 0.98617 0.49096 0.0
H277 H 0.82603 0.90399 0.40713 0.0
H278 H 0.84849 0.93176 0.42223 0.0
H279 H 0.84951 0.89581 0.44476 0.0
H280 H 0.86897 0.91396 0.50726 0.0
H281 H 0.91253 0.93271 0.50987 0.0
H282 H 0.80277 0.40674 0.93989 0.0
H283 H 0.75838 0.42354 0.94017 0.0
H284 H 0.74483 0.374 0.04809 0.0
H285 H 0.78904 0.35674 0.04781 0.0
H286 H 0.71318 0.38912 0.9391 0.0
H287 H 0.72004 0.45726 0.0743 0.0
H288 H 0.74784 0.44486 0.0478 0.0
H289 H 0.73116 0.42034 0.08085 0.0
C290 C 0.79032 0.39927 0.96357 0.0
C291 C 0.79949 0.38046 0.99392 0.0
C292 C 0.76501 0.40901 0.96377 0.0
C293 C 0.74847 0.40031 0.99442 0.0
C294 C 0.75746 0.38143 0.02461 0.0
H295 H 0.58291 0.40834 -0.0007 0.0
H296 H 0.62764 0.39303 0.99736 0.0
C297 C 0.78274 0.37163 0.02442 0.0
C298 C 0.72163 0.41047 0.99435 0.0
H299 H 0.67846 0.44943 0.04781 0.0
C300 C 0.70556 0.40238 0.96277 0.0
C301 C 0.71191 0.42802 0.02508 0.0
C302 C 0.72864 0.4384 0.05879 0.0
C303 C 0.67982 0.41098 0.96144 0.0
C304 C 0.6699 0.42779 0.99279 0.0
C305 C 0.68609 0.43631 0.02401 0.0
C306 C 0.6428 0.437 0.99362 0.0
C307 C 0.66356 0.40233 0.92628 0.0
C308 C 0.63656 0.4668 0.99297 0.0
C309 C 0.61103 0.47567 0.99426 0.0
C310 C 0.59125 0.45485 0.99648 0.0
C311 C 0.59763 0.42496 0.9974 0.0
C312 C 0.62317 0.41614 0.99608 0.0
H313 H 0.6754 0.39591 0.90049 0.0
H314 H 0.65146 0.38335 0.93484 0.0
H315 H 0.65075 0.42052 0.91683 0.0
H316 H 0.65146 0.48323 0.99127 0.0
H317 H 0.60686 0.49885 0.99359 0.0
H318 H 0.07098 0.82146 0.11637 0.0
H319 H 0.05085 0.84632 0.17182 0.0
H320 H 0.08621 0.7856 0.25453 0.0
H321 H 0.10646 0.76044 0.19906 0.0
H322 H 0.0188 0.82896 0.2361 0.0
H323 H 0.11499 0.86607 0.28603 0.0
H324 H 0.10962 0.84974 0.23814 0.0
H325 H 0.11088 0.8272 0.28231 0.0
C326 C 0.07397 0.81288 0.14625 0.0
C327 C 0.09053 0.78915 0.15337 0.0
C328 C 0.06252 0.8272 0.17791 0.0
C329 C 0.06742 0.81809 0.21723 0.0
C330 C 0.08259 0.79327 0.22438 0.0
H331 H 0.99895 0.90218 0.42445 0.0
H332 H 0.01136 0.86578 0.37548 0.0
C333 C 0.09414 0.77896 0.19271 0.0
C334 C 0.05843 0.83619 0.2505 0.0
H335 H 0.07976 0.88184 0.32303 0.0
C336 C 0.03206 0.84034 0.25541 0.0
C337 C 0.07587 0.85128 0.27518 0.0
C338 C 0.10443 0.84864 0.27012 0.0
C339 C 0.02266 0.85951 0.28415 0.0
C340 C 0.04013 0.87461 0.30872 0.0
C341 C 0.06645 0.87009 0.3042 0.0
C342 C 0.03171 0.89654 0.33781 0.0
C343 C 0.99421 0.86428 0.28707 0.0
C344 C 0.03934 0.92577 0.33306 0.0
C345 C 0.03244 0.94658 0.361 0.0
C346 C 0.01785 0.93852 0.39442 0.0
C347 C 0.01012 0.90917 0.399 0.0
C348 C 0.01706 0.88835 0.37096 0.0
H349 H 0.98377 0.85551 0.26092 0.0
H350 H 0.98696 0.85299 0.31418 0.0
H351 H 0.98981 0.88792 0.2896 0.0
H352 H 0.05073 0.93248 0.3077 0.0
H353 H 0.03873 0.96894 0.35649 0.0
H354 H 0.61467 0.71418 0.68292 0.0
H355 H 0.59233 0.68964 0.73762 0.0
H356 H 0.5252 0.68088 0.66364 0.0
H357 H 0.54745 0.70545 0.6086 0.0
H358 H 0.54539 0.69917 0.77811 0.0
H359 H 0.54515 0.59603 0.69199 0.0
H360 H 0.56408 0.62737 0.67756 0.0
H361 H 0.53026 0.62703 0.66802 0.0
C362 C 0.59495 0.70769 0.67856 0.0
C363 C 0.58289 0.71147 0.64132 0.0
C364 C 0.58225 0.69357 0.7098 0.0
C365 C 0.55732 0.68298 0.70436 0.0
C366 C 0.54463 0.68839 0.66811 0.0
H367 H 0.47745 0.55712 0.85848 0.0
H368 H 0.48605 0.59346 0.80605 0.0
C369 C 0.55735 0.70242 0.63677 0.0
C370 C 0.54555 0.66437 0.73562 0.0
H371 H 0.52793 0.59394 0.75627 0.0
C372 C 0.54133 0.67622 0.7733 0.0
C373 C 0.5403 0.63444 0.72916 0.0
C374 C 0.54532 0.62029 0.68964 0.0
C375 C 0.53234 0.65879 0.80496 0.0
C376 C 0.52791 0.62866 0.79882 0.0
C377 C 0.5313 0.61706 0.76081 0.0
C378 C 0.52166 0.60827 0.83195 0.0
C379 C 0.5278 0.67273 0.84472 0.0
C380 C 0.53895 0.60441 0.86364 0.0
C381 C 0.53416 0.58367 0.89353 0.0
C382 C 0.51204 0.56618 0.89219 0.0
C383 C 0.49465 0.57022 0.86046 0.0
C384 C 0.4995 0.591 0.83052 0.0
H385 H 0.52427 0.69659 0.84141 0.0
H386 H 0.51127 0.66253 0.86018 0.0
H387 H 0.54502 0.66972 0.86376 0.0
H388 H 0.55649 0.61698 0.8648 0.0
H389 H 0.54801 0.58114 0.91741 0.0
H390 H 0.96785 0.24151 0.11574 0.0
H391 H 0.97642 0.20754 0.17112 0.0
H392 H 0.90331 0.2283 0.22211 0.0
H393 H 0.89457 0.26226 0.16677 0.0
H394 H 0.97896 0.21781 0.25227 0.0
H395 H 0.90125 0.13926 0.21734 0.0
H396 H 0.91154 0.1672 0.18251 0.0
H397 H 0.89073 0.17632 0.22286 0.0
C398 C 0.95367 0.23898 0.13888 0.0
C399 C 0.93048 0.25446 0.13681 0.0
C400 C 0.95854 0.21949 0.17039 0.0
C401 C 0.94032 0.21505 0.20033 0.0
C402 C 0.91736 0.23087 0.19879 0.0
H403 H 0.93771 0.10534 0.41389 0.0
H404 H 0.92835 0.14143 0.36137 0.0
C405 C 0.91242 0.25029 0.1672 0.0
C406 C 0.94553 0.19411 0.23341 0.0
H407 H 0.92376 0.1314 0.27798 0.0
C408 C 0.96694 0.19887 0.25786 0.0
C409 C 0.92978 0.16945 0.24061 0.0
C410 C 0.90716 0.16252 0.21427 0.0
C411 C 0.97289 0.17977 0.28961 0.0
C412 C 0.9572 0.15509 0.2967 0.0
C413 C 0.93569 0.15042 0.27247 0.0
C414 C 0.96307 0.13349 0.32864 0.0
C415 C 0.99572 0.18636 0.31566 0.0
C416 C 0.98554 0.11687 0.32728 0.0
C417 C 0.99095 0.09621 0.35715 0.0
C418 C 0.97392 0.09171 0.38891 0.0
C419 C 0.95129 0.10829 0.38997 0.0
C420 C 0.94588 0.12891 0.35999 0.0
H421 H 0.00185 0.20955 0.3126 0.0
H422 H 0.99146 0.18162 0.34744 0.0
H423 H 0.01196 0.17233 0.30681 0.0
H424 H 0.99881 0.11971 0.30291 0.0
H425 H 0.00849 0.08377 0.35525 0.0
H426 H 0.39645 0.28226 0.63427 0.0
H427 H 0.40639 0.3157 0.68834 0.0
H428 H 0.46657 0.25812 0.72919 0.0
H429 H 0.45753 0.22517 0.6742 0.0
H430 H 0.40601 0.30696 0.76956 0.0
H431 H 0.50355 0.33597 0.71813 0.0
H432 H 0.48086 0.31697 0.68713 0.0
H433 H 0.49853 0.29741 0.72506 0.0
C434 C 0.412 0.27684 0.65447 0.0
C435 C 0.42637 0.25116 0.64963 0.0
C436 C 0.41752 0.29587 0.68553 0.0
C437 C 0.4375 0.28964 0.71233 0.0
C438 C 0.45141 0.26365 0.70832 0.0
H439 H 0.49864 0.37907 0.91833 0.0
H440 H 0.48785 0.34359 0.86708 0.0
C441 C 0.44599 0.24465 0.67716 0.0
C442 C 0.4437 0.31036 0.7445 0.0
H443 H 0.49144 0.35333 0.78148 0.0
C444 C 0.42466 0.31717 0.77211 0.0
C445 C 0.46805 0.3237 0.74768 0.0
C446 C 0.48887 0.3184 0.71773 0.0
C447 C 0.42941 0.33669 0.80317 0.0
C448 C 0.45375 0.34988 0.80638 0.0
C449 C 0.47283 0.34303 0.77892 0.0
C450 C 0.45975 0.37119 0.83779 0.0
C451 C 0.40851 0.34278 0.83265 0.0
C452 C 0.44764 0.39852 0.83797 0.0
C453 C 0.45382 0.41893 0.86708 0.0
C454 C 0.47223 0.41233 0.89656 0.0
C455 C 0.48431 0.38485 0.8962 0.0
C456 C 0.47821 0.36454 0.86694 0.0
H457 H 0.39294 0.32628 0.8312 0.0
H458 H 0.4163 0.34308 0.86347 0.0
H459 H 0.40013 0.36459 0.826 0.0
H460 H 0.43361 0.40419 0.81532 0.0
H461 H 0.44418 0.43987 0.86641 0.0
H462 H 0.63088 0.72553 0.30605 0.0
H463 H 0.61106 0.70017 0.25007 0.0
H464 H 0.54754 0.67545 0.32451 0.0
H465 H 0.56721 0.70059 0.38053 0.0
H466 H 0.6019 0.64065 0.25287 0.0
H467 H 0.51187 0.70081 0.22117 0.0
H468 H 0.53787 0.71638 0.24951 0.0
H469 H 0.51622 0.69086 0.27265 0.0
C470 C 0.61249 0.71509 0.31029 0.0
C471 C 0.60065 0.71498 0.34775 0.0
C472 C 0.60116 0.70072 0.27827 0.0
C473 C 0.57774 0.68615 0.28306 0.0
C474 C 0.56533 0.6871 0.3199 0.0
H475 H 0.49396 0.55579 0.15031 0.0
H476 H 0.50874 0.59144 0.19914 0.0
C477 C 0.57662 0.7015 0.35192 0.0
C478 C 0.56786 0.6671 0.25117 0.0
H479 H 0.51591 0.65367 0.19212 0.0
C480 C 0.58321 0.64369 0.23926 0.0
C481 C 0.54337 0.67094 0.23386 0.0
C482 C 0.52644 0.69626 0.24464 0.0
C483 C 0.57456 0.62364 0.21103 0.0
C484 C 0.55006 0.62743 0.19373 0.0
C485 C 0.53469 0.65087 0.2055 0.0
C486 C 0.54022 0.60716 0.16331 0.0
C487 C 0.59146 0.59814 0.20074 0.0
C488 C 0.55276 0.60468 0.12677 0.0
C489 C 0.5445 0.58431 0.09895 0.0
C490 C 0.52337 0.56614 0.10701 0.0
C491 C 0.51036 0.56932 0.14323 0.0
C492 C 0.51871 0.58971 0.17112 0.0
H493 H 0.60662 0.59437 0.22353 0.0
H494 H 0.58007 0.57778 0.19776 0.0
H495 H 0.60092 0.60271 0.17184 0.0
H496 H 0.56914 0.61832 0.11994 0.0
H497 H 0.55483 0.5827 0.07124 0.0
H498 H 0.89037 0.25353 0.83126 0.0
H499 H 0.89889 0.21905 0.77776 0.0
H500 H 0.97754 0.21268 0.81593 0.0
H501 H 0.96912 0.2467 0.86988 0.0
H502 H 0.9371 0.22454 0.71526 0.0
H503 H 0.95129 0.12664 0.81272 0.0
H504 H 0.93534 0.15921 0.82945 0.0
H505 H 0.96958 0.15836 0.82609 0.0
C506 C 0.90943 0.24461 0.82842 0.0
C507 C 0.92906 0.25274 0.85486 0.0
C508 C 0.91428 0.22508 0.79776 0.0
C509 C 0.93875 0.21314 0.79327 0.0
C510 C 0.95845 0.22142 0.81927 0.0
H511 H 0.00925 0.0888 0.63782 0.0
H512 H 0.99882 0.12414 0.68897 0.0
C513 C 0.95366 0.24105 0.84982 0.0
C514 C 0.94377 0.19215 0.76118 0.0
H515 H 0.96097 0.12147 0.74445 0.0
C516 C 0.94219 0.20195 0.72151 0.0
C517 C 0.95043 0.16277 0.76962 0.0
C518 C 0.95159 0.15093 0.81174 0.0
C519 C 0.94775 0.18327 0.68991 0.0
C520 C 0.95449 0.15386 0.69834 0.0
C521 C 0.95583 0.14403 0.73807 0.0
C522 C 0.96071 0.13296 0.66651 0.0
C523 C 0.9471 0.19542 0.64793 0.0
C524 C 0.94266 0.12602 0.63704 0.0
C525 C 0.94861 0.10592 0.60751 0.0
C526 C 0.97263 0.09212 0.60726 0.0
C527 C 0.99056 0.09898 0.63708 0.0
C528 C 0.98465 0.11918 0.66639 0.0
H529 H 0.94837 0.21968 0.64735 0.0
H530 H 0.96301 0.18651 0.63005 0.0
H531 H 0.9288 0.18916 0.63352 0.0
H532 H 0.92385 0.13589 0.63712 0.0
H533 H 0.93428 0.10098 0.58519 0.0
H534 H 0.40949 0.22573 0.32079 0.0
H535 H 0.41984 0.25924 0.2657 0.0
H536 H 0.47231 0.30546 0.34187 0.0
H537 H 0.46221 0.27197 0.39687 0.0
H538 H 0.41345 0.31826 0.26073 0.0
H539 H 0.51597 0.29066 0.24494 0.0
H540 H 0.49419 0.26833 0.27367 0.0
H541 H 0.5077 0.30093 0.29457 0.0
C542 C 0.42326 0.24301 0.32573 0.0
C543 C 0.43517 0.24611 0.36307 0.0
C544 C 0.42921 0.26207 0.29424 0.0
C545 C 0.44717 0.28453 0.2995 0.0
C546 C 0.45892 0.28781 0.33683 0.0
H547 H 0.46319 0.44241 0.15661 0.0
H548 H 0.45394 0.40578 0.20814 0.0
C549 C 0.4531 0.26868 0.36825 0.0
C550 C 0.45287 0.30525 0.26642 0.0
H551 H 0.50155 0.33375 0.21086 0.0
C552 C 0.43268 0.32152 0.24963 0.0
C553 C 0.47792 0.30919 0.25164 0.0
C554 C 0.50015 0.29114 0.26684 0.0
C555 C 0.43695 0.34212 0.21905 0.0
C556 C 0.46217 0.34698 0.20551 0.0
C557 C 0.48227 0.33023 0.22164 0.0
C558 C 0.4681 0.36926 0.17448 0.0
C559 C 0.41436 0.35818 0.2012 0.0
C560 C 0.47988 0.36101 0.13896 0.0
C561 C 0.48545 0.38194 0.10957 0.0
C562 C 0.47938 0.41155 0.1152 0.0
C563 C 0.46792 0.41978 0.15112 0.0
C564 C 0.46247 0.39884 0.18054 0.0
H565 H 0.39617 0.34627 0.20669 0.0
H566 H 0.41281 0.37999 0.21505 0.0
H567 H 0.41665 0.36144 0.16861 0.0
H568 H 0.48452 0.3383 0.13381 0.0
H569 H 0.49431 0.37482 0.08232 0.0
H570 H 0.13748 0.82838 0.84207 0.0
H571 H 0.11518 0.85111 0.78553 0.0
H572 H 0.04643 0.80414 0.81638 0.0
H573 H 0.06854 0.78167 0.87372 0.0
H574 H 0.08849 0.82594 0.71946 0.0
H575 H 0.02575 0.89192 0.81696 0.0
H576 H 0.05415 0.87381 0.8355 0.0
H577 H 0.02582 0.85299 0.82534 0.0
C578 C 0.11761 0.82286 0.83682 0.0
C579 C 0.10466 0.80353 0.86258 0.0
C580 C 0.10497 0.8357 0.80438 0.0
C581 C 0.07911 0.82956 0.79715 0.0
C582 C 0.06633 0.80939 0.82182 0.0
H583 H 0.00247 0.90374 0.58451 0.0
H584 H 0.01616 0.86889 0.63636 0.0
C585 C 0.07902 0.79643 0.85432 0.0
C586 C 0.06553 0.84551 0.76482 0.0
H587 H 0.02199 0.89989 0.74796 0.0
C588 C 0.07369 0.84183 0.72551 0.0
C589 C 0.04643 0.8664 0.77306 0.0
C590 C 0.03754 0.8718 0.81497 0.0
C591 C 0.06369 0.85907 0.69423 0.0
C592 C 0.04494 0.88032 0.7026 0.0
C593 C 0.03629 0.88345 0.74174 0.0
C594 C 0.03568 0.90122 0.67179 0.0
C595 C 0.07408 0.85539 0.6528 0.0
C596 C 0.04169 0.93096 0.67508 0.0
C597 C 0.0339 0.95092 0.64566 0.0
C598 C 0.01981 0.94152 0.61241 0.0
C599 C 0.01338 0.91172 0.60962 0.0
C600 C 0.02125 0.89173 0.63911 0.0
H601 H 0.09144 0.84142 0.65259 0.0
H602 H 0.0593 0.84503 0.63383 0.0
H603 H 0.07884 0.87699 0.63927 0.0
H604 H 0.05278 0.93868 0.70018 0.0
H605 H 0.03913 0.97369 0.64889 0.0
loop_
_geom_bond_atom_site_label_1
_geom_bond_atom_site_label_2
_geom_bond_distance
_geom_bond_site_symmetry_2
_ccdc_geom_bond_type
P0 O11 1.490 . S
P0 C14 1.812 . S
P0 C20 1.803 . S
P0 C26 1.819 1_554 S
H1 C15 0.941 . S
H2 C16 0.939 . S
H3 C18 0.940 . S
H4 C19 0.940 . S
H5 C21 0.939 . S
H6 C22 0.942 . S
H7 C24 0.940 . S
H8 C25 0.939 . S
H9 C27 0.941 . S
H10 C31 0.939 . S
O11 P0 1.490 . S
H12 C28 0.939 . S
H13 C30 0.940 . S
C14 P0 1.812 . S
C14 C15 1.389 . S
C14 C19 1.391 . S
C15 H1 0.941 . S
C15 C14 1.389 . S
C15 C16 1.397 . S
C16 H2 0.939 . S
C16 C15 1.397 . S
C16 C17 1.378 . S
C17 C16 1.378 . S
C17 C18 1.378 . S
C18 H3 0.940 . S
C18 C17 1.378 . S
C18 C19 1.396 . S
C19 H4 0.940 . S
C19 C14 1.391 . S
C19 C18 1.396 . S
C20 P0 1.803 . S
C20 C21 1.378 1_554 S
C20 C25 1.400 . S
C21 H5 0.939 . S
C21 C20 1.378 1_556 S
C21 C22 1.361 . S
C22 H6 0.942 . S
C22 C21 1.361 . S
C22 C23 1.369 1_556 S
C23 C22 1.369 1_554 S
C23 C24 1.404 . S
C24 H7 0.940 . S
C24 C23 1.404 . S
C24 C25 1.389 . S
C25 H8 0.939 . S
C25 C20 1.400 . S
C25 C24 1.389 . S
C26 P0 1.819 1_556 S
C26 C27 1.391 . S
C26 C31 1.391 . S
C27 H9 0.941 . S
C27 C26 1.391 . S
C27 C28 1.396 . S
C28 H12 0.939 . S
C28 C27 1.396 . S
C28 C29 1.397 . S
C29 C28 1.397 . S
C29 C30 1.385 . S
C30 H13 0.940 . S
C30 C29 1.385 . S
C30 C31 1.388 . S
C31 H10 0.939 . S
C31 C26 1.391 . S
C31 C30 1.388 . S
P32 O43 1.490 . S
P32 C46 1.812 . S
P32 C52 1.803 . S
P32 C58 1.819 . S
H33 C47 0.941 . S
H34 C48 0.939 . S
H35 C50 0.940 . S
H36 C51 0.940 . S
H37 C53 0.939 . S
H38 C54 0.942 . S
H39 C56 0.940 . S
H40 C57 0.939 . S
H41 C59 0.941 . S
H42 C63 0.939 . S
O43 P32 1.490 . S
H44 C60 0.939 . S
H45 C62 0.940 . S
C46 P32 1.812 . S
C46 C47 1.389 . S
C46 C51 1.391 . S
C47 H33 0.941 . S
C47 C46 1.389 . S
C47 C48 1.397 . S
C48 H34 0.939 . S
C48 C47 1.397 . S
C48 C49 1.378 . S
C49 C48 1.378 . S
C49 C50 1.378 . S
C50 H35 0.940 . S
C50 C49 1.378 . S
C50 C51 1.396 . S
C51 H36 0.940 . S
C51 C46 1.391 . S
C51 C50 1.396 . S
C52 P32 1.803 . S
C52 C53 1.378 . S
C52 C57 1.400 . S
C53 H37 0.939 . S
C53 C52 1.378 . S
C53 C54 1.361 . S
C54 H38 0.942 . S
C54 C53 1.361 . S
C54 C55 1.369 . S
C55 C54 1.369 . S
C55 C56 1.404 . S
C56 H39 0.940 . S
C56 C55 1.404 . S
C56 C57 1.389 . S
C57 H40 0.939 . S
C57 C52 1.400 . S
C57 C56 1.389 . S
C58 P32 1.819 . S
C58 C59 1.391 . S
C58 C63 1.391 . S
C59 H41 0.941 . S
C59 C58 1.391 . S
C59 C60 1.396 . S
C60 H44 0.939 . S
C60 C59 1.396 . S
C60 C61 1.397 . S
C61 C60 1.397 . S
C61 C62 1.385 . S
C62 H45 0.940 . S
C62 C61 1.385 . S
C62 C63 1.388 . S
C63 H42 0.939 . S
C63 C58 1.391 . S
C63 C62 1.388 . S
P64 O75 1.490 . S
P64 C78 1.812 . S
P64 C84 1.803 . S
P64 C90 1.819 1_556 S
H65 C79 0.941 . S
H66 C80 0.939 . S
H67 C82 0.940 . S
H68 C83 0.940 . S
H69 C85 0.939 . S
H70 C86 0.942 . S
H71 C88 0.940 . S
H72 C89 0.939 . S
H73 C91 0.941 . S
H74 C95 0.939 . S
O75 P64 1.490 . S
H76 C92 0.939 . S
H77 C94 0.940 . S
C78 P64 1.812 . S
C78 C79 1.389 . S
C78 C83 1.391 . S
C79 H65 0.941 . S
C79 C78 1.389 . S
C79 C80 1.397 . S
C80 H66 0.939 . S
C80 C79 1.397 . S
C80 C81 1.378 . S
C81 C80 1.378 . S
C81 C82 1.378 . S
C82 H67 0.940 . S
C82 C81 1.378 . S
C82 C83 1.396 . S
C83 H68 0.940 . S
C83 C78 1.391 . S
C83 C82 1.396 . S
C84 P64 1.803 . S
C84 C85 1.378 1_556 S
C84 C89 1.400 . S
C85 H69 0.939 . S
C85 C84 1.378 1_554 S
C85 C86 1.361 . S
C86 H70 0.942 . S
C86 C85 1.361 . S
C86 C87 1.380 . S
C87 C86 1.380 . S
C87 C88 1.393 1_554 S
C88 H71 0.940 . S
C88 C87 1.393 1_556 S
C88 C89 1.389 . S
C89 H72 0.939 . S
C89 C84 1.400 . S
C89 C88 1.389 . S
C90 P64 1.819 1_554 S
C90 C91 1.391 . S
C90 C95 1.391 . S
C91 H73 0.941 . S
C91 C90 1.391 . S
C91 C92 1.396 . S
C92 H76 0.939 . S
C92 C91 1.396 . S
C92 C93 1.397 . S
C93 C92 1.397 . S
C93 C94 1.385 . S
C94 H77 0.940 . S
C94 C93 1.385 . S
C94 C95 1.388 . S
C95 H74 0.939 . S
C95 C90 1.391 . S
C95 C94 1.388 . S
P96 O107 1.490 . S
P96 C110 1.812 . S
P96 C116 1.803 . S
P96 C122 1.819 . S
H97 C111 0.941 . S
H98 C112 0.939 . S
H99 C114 0.940 . S
H100 C115 0.940 . S
H101 C117 0.939 . S
H102 C118 0.942 . S
H103 C120 0.940 . S
H104 C121 0.939 . S
H105 C123 0.941 . S
H106 C127 0.939 . S
O107 P96 1.490 . S
H108 C124 0.939 . S
H109 C126 0.940 . S
C110 P96 1.812 . S
C110 C111 1.389 . S
C110 C115 1.391 . S
C111 H97 0.941 . S
C111 C110 1.389 . S
C111 C112 1.397 . S
C112 H98 0.939 . S
C112 C111 1.397 . S
C112 C113 1.378 . S
C113 C112 1.378 . S
C113 C114 1.378 . S
C114 H99 0.940 . S
C114 C113 1.378 . S
C114 C115 1.396 . S
C115 H100 0.940 . S
C115 C110 1.391 . S
C115 C114 1.396 . S
C116 P96 1.803 . S
C116 C117 1.378 . S
C116 C121 1.400 . S
C117 H101 0.939 . S
C117 C116 1.378 . S
C117 C118 1.361 . S
C118 H102 0.942 . S
C118 C117 1.361 . S
C118 C119 1.369 . S
C119 C118 1.369 . S
C119 C120 1.404 . S
C120 H103 0.940 . S
C120 C119 1.404 . S
C120 C121 1.389 . S
C121 H104 0.939 . S
C121 C116 1.400 . S
C121 C120 1.389 . S
C122 P96 1.819 . S
C122 C123 1.391 . S
C122 C127 1.391 . S
C123 H105 0.941 . S
C123 C122 1.391 . S
C123 C124 1.396 . S
C124 H108 0.939 . S
C124 C123 1.396 . S
C124 C125 1.397 . S
C125 C124 1.397 . S
C125 C126 1.385 . S
C126 H109 0.940 . S
C126 C125 1.385 . S
C126 C127 1.388 . S
C127 H106 0.939 . S
C127 C122 1.391 . S
C127 C126 1.388 . S
O128 Zn129 1.953 1_565 S
O128 C144 1.225 . S
Zn129 O128 1.953 1_545 S
Zn129 O130 1.949 1_655 S
Zn129 O136 1.919 . S
Zn129 O141 1.924 . S
O130 Zn129 1.949 1_455 S
O130 Zn131 1.923 . S
O130 Zn132 1.950 1_445 S
O130 Zn133 1.945 . S
Zn131 O130 1.923 . S
Zn131 O134 1.933 . S
Zn131 O137 1.941 . S
Zn131 O138 1.965 1_545 S
Zn132 O130 1.950 1_665 S
Zn132 O139 1.938 1_655 S
Zn132 O140 1.906 1_655 S
Zn132 O150 1.953 . S
Zn133 O130 1.945 . S
Zn133 O135 1.932 . S
Zn133 O142 1.977 1_545 S
Zn133 O143 1.910 1_455 S
O134 Zn131 1.933 . S
O134 C145 1.226 . S
O135 Zn133 1.932 . S
O135 C145 1.307 . S
O136 Zn129 1.919 . S
O136 C147 1.253 . S
O137 Zn131 1.941 . S
O137 C147 1.283 1_455 S
O138 Zn131 1.965 1_565 S
O138 C146 1.303 . S
O139 Zn132 1.938 1_455 S
O139 C146 1.247 . S
O140 Zn132 1.906 1_455 S
O140 C148 1.304 . S
O141 Zn129 1.924 . S
O141 C149 1.311 . S
O142 Zn133 1.977 1_565 S
O142 C148 1.272 . S
O143 Zn133 1.910 1_655 S
O143 C149 1.231 . S
C144 O128 1.225 . S
C144 O150 1.298 . S
C145 O134 1.226 . S
C145 O135 1.307 . S
C146 O138 1.303 . S
C146 O139 1.247 . S
C147 O136 1.253 . S
C147 O137 1.283 1_655 S
C148 O140 1.304 . S
C148 O142 1.272 . S
C149 O141 1.311 . S
C149 O143 1.231 . S
O150 Zn132 1.953 . S
O150 C144 1.298 . S
O151 Zn152 1.953 . S
O151 C167 1.225 1_556 S
Zn152 O151 1.953 . S
Zn152 O153 1.949 1_556 S
Zn152 O159 1.919 . S
Zn152 O164 1.924 1_556 S
O153 Zn152 1.949 1_554 S
O153 Zn154 1.923 1_554 S
O153 Zn155 1.950 . S
O153 Zn156 1.945 . S
Zn154 O153 1.923 1_556 S
Zn154 O157 1.933 . S
Zn154 O160 1.941 . S
Zn154 O161 1.965 . S
Zn155 O153 1.950 . S
Zn155 O162 1.938 1_554 S
Zn155 O163 1.906 . S
Zn155 O173 1.953 . S
Zn156 O153 1.945 . S
Zn156 O158 1.932 . S
Zn156 O165 1.977 . S
Zn156 O166 1.910 . S
O157 Zn154 1.933 . S
O157 C168 1.226 1_556 S
O158 Zn156 1.932 . S
O158 C168 1.307 . S
O159 Zn152 1.919 . S
O159 C170 1.253 . S
O160 Zn154 1.941 . S
O160 C170 1.283 . S
O161 Zn154 1.965 . S
O161 C169 1.303 . S
O162 Zn155 1.938 1_556 S
O162 C169 1.247 . S
O163 Zn155 1.906 . S
O163 C171 1.304 . S
O164 Zn152 1.924 1_554 S
O164 C172 1.311 . S
O165 Zn156 1.977 . S
O165 C171 1.272 . S
O166 Zn156 1.910 . S
O166 C172 1.231 . S
C167 O151 1.225 1_554 S
C167 O173 1.298 . S
C168 O157 1.226 1_554 S
C168 O158 1.307 . S
C169 O161 1.303 . S
C169 O162 1.247 . S
C170 O159 1.253 . S
C170 O160 1.283 . S
C171 O163 1.304 . S
C171 O165 1.272 . S
C172 O164 1.311 . S
C172 O166 1.231 . S
O173 Zn155 1.953 . S
O173 C167 1.298 . S
H174 C182 0.929 . S
H175 C184 0.930 . S
H176 C186 0.930 . S
H177 C189 0.929 . S
H178 C192 0.930 . S
H179 C194 0.960 . S
H180 C194 0.960 . S
H181 C194 0.960 . S
C182 H174 0.929 . S
C182 C183 1.377 . S
C182 C184 1.384 . S
C183 C182 1.377 . S
C183 C189 1.390 . S
C184 H175 0.930 . S
C184 C182 1.384 . S
C184 C185 1.372 . S
C185 C184 1.372 . S
C185 C186 1.400 . S
C185 C190 1.490 . S
C186 H176 0.930 . S
C186 C185 1.400 . S
C186 C189 1.386 . S
H187 C203 0.930 . S
H188 C204 0.931 . S
C189 H177 0.929 . S
C189 C183 1.390 . S
C189 C186 1.386 . S
C190 C185 1.490 . S
C190 C192 1.395 . S
C190 C193 1.403 . S
H191 C197 0.930 . S
C192 H178 0.930 . S
C192 C190 1.395 . S
C192 C195 1.403 . S
C193 C190 1.403 . S
C193 C194 1.524 . S
C193 C197 1.400 . S
C194 H179 0.960 . S
C194 H180 0.960 . S
C194 H181 0.960 . S
C194 C193 1.524 . S
C195 C192 1.403 . S
C195 C196 1.392 . S
C195 C199 1.495 . S
C196 C195 1.392 . S
C196 C197 1.385 . S
C196 C198 1.478 . S
C197 H191 0.930 . S
C197 C193 1.400 . S
C197 C196 1.385 . S
C198 C196 1.478 . S
C198 C200 1.381 . S
C198 C204 1.383 . S
C199 C195 1.495 . S
C199 H205 0.959 . S
C199 H206 0.961 . S
C199 H207 0.960 . S
C200 C198 1.381 . S
C200 C201 1.394 . S
C200 H208 0.930 . S
C201 C200 1.394 . S
C201 C202 1.383 . S
C201 H209 0.929 . S
C202 C201 1.383 . S
C202 C203 1.377 . S
C203 H187 0.930 . S
C203 C202 1.377 . S
C203 C204 1.379 . S
C204 H188 0.931 . S
C204 C198 1.383 . S
C204 C203 1.379 . S
H205 C199 0.959 . S
H206 C199 0.961 . S
H207 C199 0.960 . S
H208 C200 0.930 . S
H209 C201 0.929 . S
H210 C218 0.929 . S
H211 C220 0.930 . S
H212 C222 0.930 . S
H213 C225 0.929 . S
H214 C228 0.930 . S
H215 C230 0.960 . S
H216 C230 0.960 . S
H217 C230 0.960 . S
C218 H210 0.929 . S
C218 C219 1.377 1_556 S
C218 C220 1.384 . S
C219 C218 1.377 1_554 S
C219 C225 1.390 . S
C220 H211 0.930 . S
C220 C218 1.384 . S
C220 C221 1.372 1_556 S
C221 C220 1.372 1_554 S
C221 C222 1.400 . S
C221 C226 1.490 . S
C222 H212 0.930 . S
C222 C221 1.400 . S
C222 C225 1.386 . S
H223 C239 0.930 . S
H224 C240 0.931 . S
C225 H213 0.929 . S
C225 C219 1.390 . S
C225 C222 1.386 . S
C226 C221 1.490 . S
C226 C228 1.395 . S
C226 C229 1.403 1_554 S
H227 C233 0.930 . S
C228 H214 0.930 . S
C228 C226 1.395 . S
C228 C231 1.403 . S
C229 C226 1.403 1_556 S
C229 C230 1.524 . S
C229 C233 1.400 . S
C230 H215 0.960 . S
C230 H216 0.960 . S
C230 H217 0.960 . S
C230 C229 1.524 . S
C231 C228 1.403 . S
C231 C232 1.392 . S
C231 C235 1.495 . S
C232 C231 1.392 . S
C232 C233 1.385 1_554 S
C232 C234 1.478 . S
C233 H227 0.930 . S
C233 C229 1.400 . S
C233 C232 1.385 1_556 S
C234 C232 1.478 . S
C234 C236 1.381 1_554 S
C234 C240 1.383 . S
C235 C231 1.495 . S
C235 H241 0.959 . S
C235 H242 0.961 . S
C235 H243 0.960 . S
C236 C234 1.381 1_556 S
C236 C237 1.394 . S
C236 H244 0.930 . S
C237 C236 1.394 . S
C237 C238 1.383 1_556 S
C237 H245 0.929 . S
C238 C237 1.383 1_554 S
C238 C239 1.377 . S
C239 H223 0.930 . S
C239 C238 1.377 . S
C239 C240 1.379 . S
C240 H224 0.931 . S
C240 C234 1.383 . S
C240 C239 1.379 . S
H241 C235 0.959 . S
H242 C235 0.961 . S
H243 C235 0.960 . S
H244 C236 0.930 . S
H245 C237 0.929 . S
H246 C254 0.929 . S
H247 C256 0.930 . S
H248 C258 0.930 . S
H249 C261 0.929 . S
H250 C264 0.930 . S
H251 C266 0.960 . S
H252 C266 0.960 . S
H253 C266 0.960 . S
C254 H246 0.929 . S
C254 C255 1.377 . S
C254 C256 1.384 . S
C255 C254 1.377 . S
C255 C261 1.390 . S
C256 H247 0.930 . S
C256 C254 1.384 . S
C256 C257 1.372 . S
C257 C256 1.372 . S
C257 C258 1.400 . S
C257 C262 1.490 . S
C258 H248 0.930 . S
C258 C257 1.400 . S
C258 C261 1.386 . S
H259 C275 0.930 . S
H260 C276 0.931 . S
C261 H249 0.929 . S
C261 C255 1.390 . S
C261 C258 1.386 . S
C262 C257 1.490 . S
C262 C264 1.395 . S
C262 C265 1.403 . S
H263 C269 0.930 . S
C264 H250 0.930 . S
C264 C262 1.395 . S
C264 C267 1.403 . S
C265 C262 1.403 . S
C265 C266 1.524 . S
C265 C269 1.400 . S
C266 H251 0.960 . S
C266 H252 0.960 . S
C266 H253 0.960 . S
C266 C265 1.524 . S
C267 C264 1.403 . S
C267 C268 1.392 . S
C267 C271 1.495 . S
C268 C267 1.392 . S
C268 C269 1.385 . S
C268 C270 1.478 . S
C269 H263 0.930 . S
C269 C265 1.400 . S
C269 C268 1.385 . S
C270 C268 1.478 . S
C270 C272 1.381 . S
C270 C276 1.383 . S
C271 C267 1.495 . S
C271 H277 0.959 . S
C271 H278 0.961 . S
C271 H279 0.960 . S
C272 C270 1.381 . S
C272 C273 1.394 . S
C272 H280 0.930 . S
C273 C272 1.394 . S
C273 C274 1.383 . S
C273 H281 0.929 . S
C274 C273 1.383 . S
C274 C275 1.377 . S
C275 H259 0.930 . S
C275 C274 1.377 . S
C275 C276 1.379 . S
C276 H260 0.931 . S
C276 C270 1.383 . S
C276 C275 1.379 . S
H277 C271 0.959 . S
H278 C271 0.961 . S
H279 C271 0.960 . S
H280 C272 0.930 . S
H281 C273 0.929 . S
H282 C290 0.929 . S
H283 C292 0.930 . S
H284 C294 0.930 . S
H285 C297 0.929 . S
H286 C300 0.930 . S
H287 C302 0.960 . S
H288 C302 0.960 . S
H289 C302 0.960 . S
C290 H282 0.929 . S
C290 C291 1.377 1_556 S
C290 C292 1.384 . S
C291 C290 1.377 1_554 S
C291 C297 1.390 . S
C292 H283 0.930 . S
C292 C290 1.384 . S
C292 C293 1.352 1_556 S
C293 C292 1.352 1_554 S
C293 C294 1.420 . S
C293 C298 1.490 1_554 S
C294 H284 0.930 . S
C294 C293 1.420 . S
C294 C297 1.386 . S
H295 C311 0.930 . S
H296 C312 0.931 . S
C297 H285 0.929 . S
C297 C291 1.390 . S
C297 C294 1.386 . S
C298 C293 1.490 1_556 S
C298 C300 1.395 . S
C298 C301 1.402 1_556 S
H299 C305 0.930 . S
C300 H286 0.930 . S
C300 C298 1.395 . S
C300 C303 1.403 . S
C301 C298 1.402 1_554 S
C301 C302 1.524 . S
C301 C305 1.400 . S
C302 H287 0.960 . S
C302 H288 0.960 . S
C302 H289 0.960 . S
C302 C301 1.524 . S
C303 C300 1.403 . S
C303 C304 1.392 . S
C303 C307 1.495 . S
C304 C303 1.392 . S
C304 C305 1.385 1_556 S
C304 C306 1.478 . S
C305 H299 0.930 . S
C305 C301 1.400 . S
C305 C304 1.385 1_554 S
C306 C304 1.478 . S
C306 C308 1.381 . S
C306 C312 1.383 1_556 S
C307 C303 1.495 . S
C307 H313 0.959 . S
C307 H314 0.961 . S
C307 H315 0.960 . S
C308 C306 1.381 . S
C308 C309 1.394 . S
C308 H316 0.930 . S
C309 C308 1.394 . S
C309 C310 1.383 1_556 S
C309 H317 0.929 . S
C310 C309 1.383 1_554 S
C310 C311 1.377 . S
C311 H295 0.930 . S
C311 C310 1.377 . S
C311 C312 1.379 . S
C312 H296 0.931 . S
C312 C306 1.383 1_554 S
C312 C311 1.379 . S
H313 C307 0.959 . S
H314 C307 0.961 . S
H315 C307 0.960 . S
H316 C308 0.930 . S
H317 C309 0.929 . S
H318 C326 0.929 . S
H319 C328 0.930 . S
H320 C330 0.930 . S
H321 C333 0.929 . S
H322 C336 0.930 . S
H323 C338 0.960 . S
H324 C338 0.960 . S
H325 C338 0.960 . S
C326 H318 0.929 . S
C326 C327 1.377 . S
C326 C328 1.384 . S
C327 C326 1.377 . S
C327 C333 1.390 . S
C328 H319 0.930 . S
C328 C326 1.384 . S
C328 C329 1.372 . S
C329 C328 1.372 . S
C329 C330 1.400 . S
C329 C334 1.490 . S
C330 H320 0.930 . S
C330 C329 1.400 . S
C330 C333 1.386 . S
H331 C347 0.930 . S
H332 C348 0.931 . S
C333 H321 0.929 . S
C333 C327 1.390 . S
C333 C330 1.386 . S
C334 C329 1.490 . S
C334 C336 1.395 . S
C334 C337 1.403 . S
H335 C341 0.930 . S
C336 H322 0.930 . S
C336 C334 1.395 . S
C336 C339 1.403 . S
C337 C334 1.403 . S
C337 C338 1.524 . S
C337 C341 1.400 . S
C338 H323 0.960 . S
C338 H324 0.960 . S
C338 H325 0.960 . S
C338 C337 1.524 . S
C339 C336 1.403 . S
C339 C340 1.392 . S
C339 C343 1.495 . S
C340 C339 1.392 . S
C340 C341 1.385 . S
C340 C342 1.478 . S
C341 H335 0.930 . S
C341 C337 1.400 . S
C341 C340 1.385 . S
C342 C340 1.478 . S
C342 C344 1.381 . S
C342 C348 1.383 . S
C343 C339 1.495 . S
C343 H349 0.970 . S
C343 H350 0.961 . S
C343 H351 0.960 . S
C344 C342 1.381 . S
C344 C345 1.394 . S
C344 H352 0.930 . S
C345 C344 1.394 . S
C345 C346 1.383 . S
C345 H353 0.929 . S
C346 C345 1.383 . S
C346 C347 1.377 . S
C347 H331 0.930 . S
C347 C346 1.377 . S
C347 C348 1.379 . S
C348 H332 0.931 . S
C348 C342 1.383 . S
C348 C347 1.379 . S
H349 C343 0.970 . S
H350 C343 0.961 . S
H351 C343 0.960 . S
H352 C344 0.930 . S
H353 C345 0.929 . S
H354 C362 0.929 . S
H355 C364 0.930 . S
H356 C366 0.930 . S
H357 C369 0.929 . S
H358 C372 0.930 . S
H359 C374 0.960 . S
H360 C374 0.960 . S
H361 C374 0.960 . S
C362 H354 0.929 . S
C362 C363 1.377 . S
C362 C364 1.384 . S
C363 C362 1.377 . S
C363 C369 1.390 . S
C364 H355 0.930 . S
C364 C362 1.384 . S
C364 C365 1.372 . S
C365 C364 1.372 . S
C365 C366 1.400 . S
C365 C370 1.490 . S
C366 H356 0.930 . S
C366 C365 1.400 . S
C366 C369 1.386 . S
H367 C383 0.930 . S
H368 C384 0.931 . S
C369 H357 0.929 . S
C369 C363 1.390 . S
C369 C366 1.386 . S
C370 C365 1.490 . S
C370 C372 1.395 . S
C370 C373 1.403 . S
H371 C377 0.930 . S
C372 H358 0.930 . S
C372 C370 1.395 . S
C372 C375 1.403 . S
C373 C370 1.403 . S
C373 C374 1.524 . S
C373 C377 1.400 . S
C374 H359 0.960 . S
C374 H360 0.960 . S
C374 H361 0.960 . S
C374 C373 1.524 . S
C375 C372 1.403 . S
C375 C376 1.392 . S
C375 C379 1.495 . S
C376 C375 1.392 . S
C376 C377 1.385 . S
C376 C378 1.478 . S
C377 H371 0.930 . S
C377 C373 1.400 . S
C377 C376 1.385 . S
C378 C376 1.478 . S
C378 C380 1.381 . S
C378 C384 1.383 . S
C379 C375 1.495 . S
C379 H385 0.959 . S
C379 H386 0.961 . S
C379 H387 0.960 . S
C380 C378 1.381 . S
C380 C381 1.394 . S
C380 H388 0.930 . S
C381 C380 1.394 . S
C381 C382 1.383 . S
C381 H389 0.929 . S
C382 C381 1.383 . S
C382 C383 1.377 . S
C383 H367 0.930 . S
C383 C382 1.377 . S
C383 C384 1.379 . S
C384 H368 0.931 . S
C384 C378 1.383 . S
C384 C383 1.379 . S
H385 C379 0.959 . S
H386 C379 0.961 . S
H387 C379 0.960 . S
H388 C380 0.930 . S
H389 C381 0.929 . S
H390 C398 0.929 . S
H391 C400 0.930 . S
H392 C402 0.930 . S
H393 C405 0.929 . S
H394 C408 0.930 . S
H395 C410 0.960 . S
H396 C410 0.960 . S
H397 C410 0.960 . S
C398 H390 0.929 . S
C398 C399 1.377 . S
C398 C400 1.384 . S
C399 C398 1.377 . S
C399 C405 1.390 . S
C400 H391 0.930 . S
C400 C398 1.384 . S
C400 C401 1.372 . S
C401 C400 1.372 . S
C401 C402 1.400 . S
C401 C406 1.490 . S
C402 H392 0.930 . S
C402 C401 1.400 . S
C402 C405 1.386 . S
H403 C419 0.930 . S
H404 C420 0.931 . S
C405 H393 0.929 . S
C405 C399 1.390 . S
C405 C402 1.386 . S
C406 C401 1.490 . S
C406 C408 1.395 . S
C406 C409 1.403 . S
H407 C413 0.930 . S
C408 H394 0.930 . S
C408 C406 1.395 . S
C408 C411 1.403 . S
C409 C406 1.403 . S
C409 C410 1.524 . S
C409 C413 1.400 . S
C410 H395 0.960 . S
C410 H396 0.960 . S
C410 H397 0.960 . S
C410 C409 1.524 . S
C411 C408 1.403 . S
C411 C412 1.392 . S
C411 C415 1.495 . S
C412 C411 1.392 . S
C412 C413 1.385 . S
C412 C414 1.478 . S
C413 H407 0.930 . S
C413 C409 1.400 . S
C413 C412 1.385 . S
C414 C412 1.478 . S
C414 C416 1.381 . S
C414 C420 1.383 . S
C415 C411 1.495 . S
C415 H421 0.959 . S
C415 H422 0.961 . S
C415 H423 0.960 . S
C416 C414 1.381 . S
C416 C417 1.394 . S
C416 H424 0.930 . S
C417 C416 1.394 . S
C417 C418 1.383 . S
C417 H425 0.929 . S
C418 C417 1.383 . S
C418 C419 1.377 . S
C419 H403 0.930 . S
C419 C418 1.377 . S
C419 C420 1.379 . S
C420 H404 0.931 . S
C420 C414 1.383 . S
C420 C419 1.379 . S
H421 C415 0.959 . S
H422 C415 0.961 . S
H423 C415 0.960 . S
H424 C416 0.930 . S
H425 C417 0.929 . S
H426 C434 0.929 . S
H427 C436 0.930 . S
H428 C438 0.930 . S
H429 C441 0.929 . S
H430 C444 0.930 . S
H431 C446 0.960 . S
H432 C446 0.960 . S
H433 C446 0.960 . S
C434 H426 0.929 . S
C434 C435 1.377 . S
C434 C436 1.384 . S
C435 C434 1.377 . S
C435 C441 1.390 . S
C436 H427 0.930 . S
C436 C434 1.384 . S
C436 C437 1.372 . S
C437 C436 1.372 . S
C437 C438 1.400 . S
C437 C442 1.490 . S
C438 H428 0.930 . S
C438 C437 1.400 . S
C438 C441 1.386 . S
H439 C455 0.930 . S
H440 C456 0.931 . S
C441 H429 0.929 . S
C441 C435 1.390 . S
C441 C438 1.386 . S
C442 C437 1.490 . S
C442 C444 1.395 . S
C442 C445 1.403 . S
H443 C449 0.930 . S
C444 H430 0.930 . S
C444 C442 1.395 . S
C444 C447 1.403 . S
C445 C442 1.403 . S
C445 C446 1.524 . S
C445 C449 1.400 . S
C446 H431 0.960 . S
C446 H432 0.960 . S
C446 H433 0.960 . S
C446 C445 1.524 . S
C447 C444 1.403 . S
C447 C448 1.392 . S
C447 C451 1.495 . S
C448 C447 1.392 . S
C448 C449 1.385 . S
C448 C450 1.478 . S
C449 H443 0.930 . S
C449 C445 1.400 . S
C449 C448 1.385 . S
C450 C448 1.478 . S
C450 C452 1.381 . S
C450 C456 1.383 . S
C451 C447 1.495 . S
C451 H457 0.959 . S
C451 H458 0.961 . S
C451 H459 0.960 . S
C452 C450 1.381 . S
C452 C453 1.394 . S
C452 H460 0.930 . S
C453 C452 1.394 . S
C453 C454 1.383 . S
C453 H461 0.929 . S
C454 C453 1.383 . S
C454 C455 1.377 . S
C455 H439 0.930 . S
C455 C454 1.377 . S
C455 C456 1.379 . S
C456 H440 0.931 . S
C456 C450 1.383 . S
C456 C455 1.379 . S
H457 C451 0.959 . S
H458 C451 0.961 . S
H459 C451 0.960 . S
H460 C452 0.930 . S
H461 C453 0.929 . S
H462 C470 0.929 . S
H463 C472 0.930 . S
H464 C474 0.930 . S
H465 C477 0.929 . S
H466 C480 0.930 . S
H467 C482 0.960 . S
H468 C482 0.960 . S
H469 C482 0.960 . S
C470 H462 0.929 . S
C470 C471 1.377 . S
C470 C472 1.384 . S
C471 C470 1.377 . S
C471 C477 1.390 . S
C472 H463 0.930 . S
C472 C470 1.384 . S
C472 C473 1.372 . S
C473 C472 1.372 . S
C473 C474 1.400 . S
C473 C478 1.490 . S
C474 H464 0.930 . S
C474 C473 1.400 . S
C474 C477 1.386 . S
H475 C491 0.930 . S
H476 C492 0.931 . S
C477 H465 0.929 . S
C477 C471 1.390 . S
C477 C474 1.386 . S
C478 C473 1.490 . S
C478 C480 1.395 . S
C478 C481 1.403 . S
H479 C485 0.930 . S
C480 H466 0.930 . S
C480 C478 1.395 . S
C480 C483 1.403 . S
C481 C478 1.403 . S
C481 C482 1.524 . S
C481 C485 1.400 . S
C482 H467 0.960 . S
C482 H468 0.960 . S
C482 H469 0.960 . S
C482 C481 1.524 . S
C483 C480 1.403 . S
C483 C484 1.392 . S
C483 C487 1.495 . S
C484 C483 1.392 . S
C484 C485 1.385 . S
C484 C486 1.478 . S
C485 H479 0.930 . S
C485 C481 1.400 . S
C485 C484 1.385 . S
C486 C484 1.478 . S
C486 C488 1.381 . S
C486 C492 1.383 . S
C487 C483 1.495 . S
C487 H493 0.959 . S
C487 H494 0.961 . S
C487 H495 0.960 . S
C488 C486 1.381 . S
C488 C489 1.394 . S
C488 H496 0.930 . S
C489 C488 1.394 . S
C489 C490 1.383 . S
C489 H497 0.929 . S
C490 C489 1.383 . S
C490 C491 1.377 . S
C491 H475 0.930 . S
C491 C490 1.377 . S
C491 C492 1.379 . S
C492 H476 0.931 . S
C492 C486 1.383 . S
C492 C491 1.379 . S
H493 C487 0.959 . S
H494 C487 0.961 . S
H495 C487 0.960 . S
H496 C488 0.930 . S
H497 C489 0.929 . S
H498 C506 0.929 . S
H499 C508 0.930 . S
H500 C510 0.930 . S
H501 C513 0.929 . S
H502 C516 0.930 . S
H503 C518 0.960 1_455 S
H504 C518 0.960 . S
H505 C518 0.960 . S
C506 H498 0.929 . S
C506 C507 1.377 . S
C506 C508 1.384 . S
C507 C506 1.377 . S
C507 C513 1.390 . S
C508 H499 0.930 . S
C508 C506 1.384 . S
C508 C509 1.372 . S
C509 C508 1.372 . S
C509 C510 1.400 . S
C509 C514 1.490 . S
C510 H500 0.930 . S
C510 C509 1.400 . S
C510 C513 1.386 . S
H511 C527 0.930 1_455 S
H512 C528 0.931 . S
C513 H501 0.929 . S
C513 C507 1.390 . S
C513 C510 1.386 . S
C514 C509 1.490 . S
C514 C516 1.395 . S
C514 C517 1.403 . S
H515 C521 0.930 . S
C516 H502 0.930 . S
C516 C514 1.395 . S
C516 C519 1.403 . S
C517 C514 1.403 . S
C517 C518 1.524 . S
C517 C521 1.400 . S
C518 H503 0.960 1_655 S
C518 H504 0.960 . S
C518 H505 0.960 . S
C518 C517 1.524 . S
C519 C516 1.403 . S
C519 C520 1.392 . S
C519 C523 1.495 . S
C520 C519 1.392 . S
C520 C521 1.385 . S
C520 C522 1.478 . S
C521 H515 0.930 . S
C521 C517 1.400 . S
C521 C520 1.385 . S
C522 C520 1.478 . S
C522 C524 1.381 . S
C522 C528 1.383 . S
C523 C519 1.495 . S
C523 H529 0.959 . S
C523 H530 0.961 . S
C523 H531 0.960 . S
C524 C522 1.381 . S
C524 C525 1.394 . S
C524 H532 0.930 . S
C525 C524 1.394 . S
C525 C526 1.383 . S
C525 H533 0.929 . S
C526 C525 1.383 . S
C526 C527 1.377 . S
C527 H511 0.930 1_655 S
C527 C526 1.377 . S
C527 C528 1.379 . S
C528 H512 0.931 . S
C528 C522 1.383 . S
C528 C527 1.379 . S
H529 C523 0.959 . S
H530 C523 0.961 . S
H531 C523 0.960 . S
H532 C524 0.930 . S
H533 C525 0.929 . S
H534 C542 0.929 . S
H535 C544 0.930 . S
H536 C546 0.930 . S
H537 C549 0.929 . S
H538 C552 0.930 . S
H539 C554 0.960 . S
H540 C554 0.960 . S
H541 C554 0.960 . S
C542 H534 0.929 . S
C542 C543 1.377 . S
C542 C544 1.384 . S
C543 C542 1.377 . S
C543 C549 1.390 . S
C544 H535 0.930 . S
C544 C542 1.384 . S
C544 C545 1.372 . S
C545 C544 1.372 . S
C545 C546 1.400 . S
C545 C550 1.490 . S
C546 H536 0.930 . S
C546 C545 1.400 . S
C546 C549 1.386 . S
H547 C563 0.930 . S
H548 C564 0.931 . S
C549 H537 0.929 . S
C549 C543 1.390 . S
C549 C546 1.386 . S
C550 C545 1.490 . S
C550 C552 1.395 . S
C550 C553 1.403 . S
H551 C557 0.930 . S
C552 H538 0.930 . S
C552 C550 1.395 . S
C552 C555 1.403 . S
C553 C550 1.403 . S
C553 C554 1.524 . S
C553 C557 1.400 . S
C554 H539 0.960 . S
C554 H540 0.960 . S
C554 H541 0.960 . S
C554 C553 1.524 . S
C555 C552 1.403 . S
C555 C556 1.392 . S
C555 C559 1.495 . S
C556 C555 1.392 . S
C556 C557 1.385 . S
C556 C558 1.478 . S
C557 H551 0.930 . S
C557 C553 1.400 . S
C557 C556 1.385 . S
C558 C556 1.478 . S
C558 C560 1.381 . S
C558 C564 1.383 . S
C559 C555 1.495 . S
C559 H565 0.959 . S
C559 H566 0.961 . S
C559 H567 0.960 . S
C560 C558 1.381 . S
C560 C561 1.394 . S
C560 H568 0.930 . S
C561 C560 1.394 . S
C561 C562 1.383 . S
C561 H569 0.929 . S
C562 C561 1.383 . S
C562 C563 1.377 . S
C563 H547 0.930 . S
C563 C562 1.377 . S
C563 C564 1.379 . S
C564 H548 0.931 . S
C564 C558 1.383 . S
C564 C563 1.379 . S
H565 C559 0.959 . S
H566 C559 0.961 . S
H567 C559 0.960 . S
H568 C560 0.930 . S
H569 C561 0.929 . S
H570 C578 0.929 . S
H571 C580 0.930 . S
H572 C582 0.930 . S
H573 C585 0.929 . S
H574 C588 0.930 . S
H575 C590 0.960 . S
H576 C590 0.960 . S
H577 C590 0.960 . S
C578 H570 0.929 . S
C578 C579 1.377 . S
C578 C580 1.384 . S
C579 C578 1.377 . S
C579 C585 1.390 . S
C580 H571 0.930 . S
C580 C578 1.384 . S
C580 C581 1.372 . S
C581 C580 1.372 . S
C581 C582 1.400 . S
C581 C586 1.490 . S
C582 H572 0.930 . S
C582 C581 1.400 . S
C582 C585 1.386 . S
H583 C599 0.930 1_655 S
H584 C600 0.931 . S
C585 H573 0.929 . S
C585 C579 1.390 . S
C585 C582 1.386 . S
C586 C581 1.490 . S
C586 C588 1.395 . S
C586 C589 1.403 . S
H587 C593 0.930 . S
C588 H574 0.930 . S
C588 C586 1.395 . S
C588 C591 1.403 . S
C589 C586 1.403 . S
C589 C590 1.524 . S
C589 C593 1.400 . S
C590 H575 0.960 . S
C590 H576 0.960 . S
C590 H577 0.960 . S
C590 C589 1.524 . S
C591 C588 1.403 . S
C591 C592 1.392 . S
C591 C595 1.495 . S
C592 C591 1.392 . S
C592 C593 1.385 . S
C592 C594 1.478 . S
C593 H587 0.930 . S
C593 C589 1.400 . S
C593 C592 1.385 . S
C594 C592 1.478 . S
C594 C596 1.381 . S
C594 C600 1.383 . S
C595 C591 1.495 . S
C595 H601 0.959 . S
C595 H602 0.961 . S
C595 H603 0.960 . S
C596 C594 1.381 . S
C596 C597 1.394 . S
C596 H604 0.930 . S
C597 C596 1.394 . S
C597 C598 1.383 . S
C597 H605 0.929 . S
C598 C597 1.383 . S
C598 C599 1.377 . S
C599 H583 0.930 1_455 S
C599 C598 1.377 . S
C599 C600 1.379 . S
C600 H584 0.931 . S
C600 C594 1.383 . S
C600 C599 1.379 . S
H601 C595 0.959 . S
H602 C595 0.961 . S
H603 C595 0.960 . S
H604 C596 0.930 . S
H605 C597 0.929 . S
C202 C145 1.588 . S
C183 C119 1.587 . S
C219 C23 1.488 . S
C238 C168 1.584 . S
C255 C55 1.512 . S
C274 C144 1.607 . S
C291 C87 1.611 . S
C310 C167 1.608 . S
C346 C148 1.497 . S
C327 C17 1.477 . S
C382 C170 1.574 . S
C363 C61 1.506 . S
C399 C93 1.597 . S
C418 C149 1.507 . S
C435 C113 1.577 . S
C454 C169 1.514 . S
C490 C172 1.557 . S
C471 C49 1.498 . S
C526 C147 1.544 . S
C507 C81 1.598 . S
C562 C171 1.548 . S
C543 C125 1.583 . S
C579 C29 1.486 . S
C598 C146 1.517 . S
