# Generated by pormake.
# Topology tsx, (6,3)-cn, num edge types: 1
# Building blocks:
#     Node 0, Type 0, BuildingBlock: VOLQOD_clean_sbu_1, # of connection points: 6
#     Node 1, Type 0, BuildingBlock: VOLQOD_clean_sbu_1, # of connection points: 6
#     Node 2, Type 1, BuildingBlock: KAKCAD_clean_linker_0, # of connection points: 3
#     Node 3, Type 1, BuildingBlock: KAKCAD_clean_linker_0, # of connection points: 3
#     Node 4, Type 1, BuildingBlock: KAKCAD_clean_linker_0, # of connection points: 3
#     Node 5, Type 1, BuildingBlock: KAKCAD_clean_linker_0, # of connection points: 3
#     Edge 6, Type (0, 1), BuildingBlock: UVAHIK_clean_linker_0, # of connection points: 2
#     Edge 7, Type (0, 1), BuildingBlock: UVAHIK_clean_linker_0, # of connection points: 2
#     Edge 8, Type (0, 1), BuildingBlock: UVAHIK_clean_linker_0, # of connection points: 2
#     Edge 9, Type (0, 1), BuildingBlock: UVAHIK_clean_linker_0, # of connection points: 2
#     Edge 10, Type (0, 1), BuildingBlock: UVAHIK_clean_linker_0, # of connection points: 2
#     Edge 11, Type (0, 1), BuildingBlock: UVAHIK_clean_linker_0, # of connection points: 2
#     Edge 12, Type (0, 1), BuildingBlock: UVAHIK_clean_linker_0, # of connection points: 2
#     Edge 13, Type (0, 1), BuildingBlock: UVAHIK_clean_linker_0, # of connection points: 2
#     Edge 14, Type (0, 1), BuildingBlock: UVAHIK_clean_linker_0, # of connection points: 2
#     Edge 15, Type (0, 1), BuildingBlock: UVAHIK_clean_linker_0, # of connection points: 2
#     Edge 16, Type (0, 1), BuildingBlock: UVAHIK_clean_linker_0, # of connection points: 2
#     Edge 17, Type (0, 1), BuildingBlock: UVAHIK_clean_linker_0, # of connection points: 2
# Relax obj value: 0.075
# Max RMSD: 0.108
# Mean RMSD: 0.083
data_MOF--net-tsx--node1-VOLQOD_clean_sbu_1--node2-KAKCAD_clean_linker_0--edge1-UVAHIK_clean_linker_0
_symmetry_space_group_name_H-M    P1
_symmetry_Int_Tables_number       1
_symmetry_cell_setting            triclinic
loop_
_symmetry_equiv_pos_as_xyz
'x, y, z'
_cell_length_a     30.854119
_cell_length_b     31.914369
_cell_length_c     60.804264
_cell_angle_alpha  90.621942
_cell_angle_beta   90.075415
_cell_angle_gamma 90.154062
loop_
_atom_site_label
_atom_site_type_symbol
_atom_site_fract_x
_atom_site_fract_y
_atom_site_fract_z
_atom_type_partial_charge
O0 O 0.03033 0.9912 0.06121 0.0
Zn1 Zn 0.04448 0.9923 0.02886 0.0
O2 O 0.99338 0.00647 0.01132 0.0
Zn3 Zn 0.98071 0.96047 0.99095 0.0
Zn4 Zn 0.94377 0.01504 0.03073 0.0
Zn5 Zn 0.00419 0.05763 0.99467 0.0
O6 O 0.9804 0.97996 0.95969 0.0
O7 O 0.00139 0.04644 0.96191 0.0
O8 O 0.06926 0.93628 0.02001 0.0
O9 O 0.02584 0.91566 0.99286 0.0
O10 O 0.92339 0.93356 0.99748 0.0
O11 O 0.89711 0.97212 0.02495 0.0
O12 O 0.9173 0.07162 0.02641 0.0
O13 O 0.09158 0.03518 0.02467 0.0
O14 O 0.95963 0.10188 0.0017 0.0
O15 O 0.06301 0.08142 0.0018 0.0
C16 C -0.00377 -4e-05 0.0721 0.0
C17 C 0.9904 0.01435 0.95055 0.0
C18 C 0.89365 0.94169 0.01135 0.0
C19 C 0.0586 0.90976 0.00517 0.0
C20 C 0.92701 0.10283 0.01451 0.0
C21 C 0.09428 0.06885 0.01371 0.0
O22 O 0.96126 0.01041 0.06248 0.0
O23 O 0.54631 0.49089 0.55994 0.0
Zn24 Zn 0.56167 0.49065 0.52774 0.0
O25 O 0.51068 0.50068 0.50945 0.0
Zn26 Zn 0.49943 0.45131 0.49097 0.0
Zn27 Zn 0.46072 0.51146 0.52835 0.0
Zn28 Zn 0.52076 0.54936 0.49086 0.0
O29 O 0.50241 0.46568 0.45883 0.0
O30 O 0.52078 0.53298 0.45876 0.0
O31 O 0.58841 0.43485 0.5208 0.0
O32 O 0.5436 0.40629 0.49628 0.0
O33 O 0.44076 0.42665 0.49713 0.0
O34 O 0.41337 0.46938 0.52256 0.0
O35 O 0.43537 0.56819 0.52297 0.0
O36 O 0.60701 0.53502 0.52308 0.0
O37 O 0.47424 0.5928 0.49525 0.0
O38 O 0.5779 0.5768 0.49811 0.0
C39 C 0.51144 0.49857 0.5704 0.0
C40 C 0.51206 0.49895 0.44852 0.0
C41 C 0.41007 0.43746 0.50994 0.0
C42 C 0.57731 0.4044 0.50832 0.0
C43 C 0.44327 0.59651 0.50895 0.0
C44 C 0.60882 0.56736 0.51102 0.0
O45 O 0.47655 0.50761 0.56033 0.0
C46 C -0.00051 0.94304 0.31929 0.0
C47 C 0.99284 0.98132 0.30863 0.0
C48 C -0.003 0.94075 0.34219 0.0
C49 C 0.98815 0.97677 0.35493 0.0
C50 C 0.98195 0.01514 0.34421 0.0
C51 C 0.98409 0.01734 0.32132 0.0
C52 C 0.98521 0.97428 0.37929 0.0
C53 C 0.0141 0.94906 0.39113 0.0
C54 C 0.01159 0.94659 0.41418 0.0
C55 C 0.97956 0.96954 0.42536 0.0
C56 C 0.95114 -0.00453 0.41381 0.0
C57 C 0.95393 -0.00241 0.39084 0.0
C58 C 0.92014 0.02222 0.42587 0.0
C59 C 0.89065 0.00484 0.44083 0.0
C60 C 0.92083 0.06571 0.4228 0.0
C61 C 0.89283 0.09156 0.43469 0.0
C62 C 0.86317 0.07427 0.44956 0.0
C63 C 0.0435 0.92134 0.42657 0.0
C64 C 0.05666 0.88193 0.41857 0.0
C65 C 0.06189 0.93696 0.44619 0.0
C66 C 0.0931 0.91388 0.45743 0.0
C67 C 0.10672 0.87473 0.44926 0.0
C68 C 0.08797 0.85894 0.42976 0.0
C69 C 0.86193 0.0307 0.45242 0.0
H70 H 0.00577 0.91468 0.30989 0.0
H71 H 0.0013 0.91059 0.34987 0.0
H72 H 0.97592 0.04364 0.35352 0.0
H73 H 0.97943 0.04737 0.31354 0.0
H74 H 0.03956 0.93243 0.38247 0.0
H75 H 0.93127 0.01714 0.38201 0.0
H76 H 0.97723 0.968 0.44312 0.0
H77 H 0.88966 0.97131 0.44339 0.0
H78 H 0.94355 0.07974 0.41145 0.0
H79 H 0.89402 0.12509 0.43212 0.0
H80 H 0.04281 0.86885 0.40362 0.0
H81 H 0.05283 0.96745 0.45266 0.0
H82 H 0.83922 0.01683 0.46382 0.0
H83 H 0.09812 0.82913 0.42284 0.0
H84 H 0.10657 0.92673 0.47252 0.0
C85 C -0.00415 0.05276 0.70145 0.0
C86 C 0.00312 0.0162 0.7136 0.0
C87 C -0.00321 0.05158 0.67847 0.0
C88 C 0.00485 0.01379 0.66715 0.0
C89 C 0.01228 0.97728 0.67926 0.0
C90 C 0.01154 0.97849 0.70223 0.0
C91 C 0.00525 0.0124 0.64275 0.0
C92 C 0.02666 0.04367 0.63085 0.0
C93 C 0.02689 0.04286 0.60773 0.0
C94 C 0.00568 0.00989 0.59658 0.0
C95 C 0.98427 0.97814 0.6082 0.0
C96 C 0.98408 0.97983 0.63131 0.0
C97 C 0.96181 0.94345 0.59622 0.0
C98 C 0.93911 0.95108 0.5766 0.0
C99 C 0.96267 0.90242 0.60439 0.0
C100 C 0.94067 0.87003 0.59348 0.0
C101 C 0.91768 0.87771 0.57395 0.0
C102 C 0.0494 0.07633 0.59526 0.0
C103 C 0.04843 0.11816 0.60274 0.0
C104 C 0.07218 0.06676 0.57583 0.0
C105 C 0.09362 0.09815 0.56426 0.0
C106 C 0.09342 0.13984 0.572 0.0
C107 C 0.0704 0.14944 0.59135 0.0
C108 C 0.91759 0.91858 0.56553 0.0
H109 H 0.98863 0.08219 0.70966 0.0
H110 H 0.99042 0.08012 0.66956 0.0
H111 H 0.01921 0.94784 0.67098 0.0
H112 H 0.01806 0.9499 0.71107 0.0
H113 H 0.04404 0.06815 0.63968 0.0
H114 H 0.96649 0.95634 0.64046 0.0
H115 H 0.0058 0.00894 0.57878 0.0
H116 H 0.93727 0.98234 0.56992 0.0
H117 H 0.98038 0.89521 0.61926 0.0
H118 H 0.94101 0.83914 0.60067 0.0
H119 H 0.03065 0.12685 0.61743 0.0
H120 H 0.07412 0.03485 0.56969 0.0
H121 H 0.90077 0.92561 0.55038 0.0
H122 H 0.06999 0.18102 0.59803 0.0
H123 H 0.11046 0.08962 0.54927 0.0
C124 C 0.51141 0.44859 0.81953 0.0
C125 C 0.50267 0.48415 0.80686 0.0
C126 C 0.51061 0.45111 0.84252 0.0
C127 C 0.50144 0.48935 0.85325 0.0
C128 C 0.49351 0.52499 0.84047 0.0
C129 C 0.49389 0.52236 0.81757 0.0
C130 C 0.50008 0.49251 0.87766 0.0
C131 C 0.53015 0.47105 0.8907 0.0
C132 C 0.52999 0.47599 0.91366 0.0
C133 C 0.49977 0.50277 0.92368 0.0
C134 C 0.46876 0.52371 0.91098 0.0
C135 C 0.46895 0.51795 0.88803 0.0
C136 C 0.4359 0.55138 0.92148 0.0
C137 C 0.41647 0.54062 0.94159 0.0
C138 C 0.42283 0.5884 0.91106 0.0
C139 C 0.39012 0.6132 0.92007 0.0
C140 C 0.37023 0.60197 0.93988 0.0
C141 C 0.56105 0.45254 0.92723 0.0
C142 C 0.56265 0.4087 0.92561 0.0
C143 C 0.58888 0.47364 0.94194 0.0
C144 C 0.61843 0.45114 0.95462 0.0
C145 C 0.61973 0.40724 0.95311 0.0
C146 C 0.59149 0.3862 0.9386 0.0
C147 C 0.38411 0.56589 0.95079 0.0
H148 H 0.51803 0.41868 0.81165 0.0
H149 H 0.51644 0.42296 0.85185 0.0
H150 H 0.4874 0.55517 0.84815 0.0
H151 H 0.48784 0.55045 0.80821 0.0
H152 H 0.55449 0.45132 0.88303 0.0
H153 H 0.44427 0.53285 0.87815 0.0
H154 H 0.50032 0.50695 0.94139 0.0
H155 H 0.42538 0.51212 0.94995 0.0
H156 H 0.43781 0.59827 0.89586 0.0
H157 H 0.38039 0.64132 0.91155 0.0
H158 H 0.54128 0.39187 0.91443 0.0
H159 H 0.58813 0.5075 0.94338 0.0
H160 H 0.36904 0.55661 0.96607 0.0
H161 H 0.59227 0.35236 0.93704 0.0
H162 H 0.64001 0.46791 0.96571 0.0
C163 C 0.512 0.52621 0.19964 0.0
C164 C 0.52103 0.48957 0.21142 0.0
C165 C 0.51201 0.52574 0.17668 0.0
C166 C 0.52082 0.48857 0.16494 0.0
C167 C 0.52971 0.45188 0.17666 0.0
C168 C 0.52994 0.45239 0.19965 0.0
C169 C 0.52048 0.48814 0.14055 0.0
C170 C 0.54045 0.52059 0.12888 0.0
C171 C 0.53921 0.52128 0.10578 0.0
C172 C 0.51831 0.48843 0.09439 0.0
C173 C 0.49824 0.45555 0.10576 0.0
C174 C 0.49946 0.45579 0.12888 0.0
C175 C 0.47485 0.42171 0.09355 0.0
C176 C 0.45084 0.43079 0.07452 0.0
C177 C 0.47557 0.3802 0.10107 0.0
C178 C 0.45186 0.34887 0.09022 0.0
C179 C 0.4273 0.35811 0.07139 0.0
C180 C 0.55911 0.55664 0.09361 0.0
C181 C 0.55655 0.59779 0.10198 0.0
C182 C 0.58062 0.54967 0.07353 0.0
C183 C 0.59924 0.58298 0.06217 0.0
C184 C 0.59738 0.62404 0.07076 0.0
C185 C 0.5757 0.63098 0.0908 0.0
C186 C 0.42771 0.39935 0.06348 0.0
H187 H 0.50424 0.5552 0.20816 0.0
H188 H 0.50439 0.55436 0.16808 0.0
H189 H 0.5371 0.42289 0.16804 0.0
H190 H 0.53767 0.42375 0.20819 0.0
H191 H 0.55757 0.54504 0.13786 0.0
H192 H 0.48278 0.43151 0.13791 0.0
H193 H 0.51729 0.48869 0.0766 0.0
H194 H 0.449 0.46243 0.06835 0.0
H195 H 0.49426 0.37186 0.11545 0.0
H196 H 0.45197 0.31764 0.09699 0.0
H197 H 0.53961 0.60451 0.1172 0.0
H198 H 0.58367 0.51836 0.06667 0.0
H199 H 0.40981 0.40756 0.04882 0.0
H200 H 0.57414 0.66199 0.09816 0.0
H201 H 0.61514 0.57645 0.04665 0.0
C202 C 0.13385 0.13662 0.00888 0.0
C203 C 0.13413 0.0945 0.01533 0.0
C204 C 0.17068 0.16161 0.01165 0.0
C205 C 0.27154 0.16758 0.04443 0.0
H206 H 0.29641 0.26008 0.00553 0.0
C207 C 0.413 0.28327 0.0598 0.0
C208 C 0.39968 0.32541 0.06072 0.0
C209 C 0.38541 0.25225 0.05133 0.0
C210 C 0.28989 0.23423 0.01645 0.0
H211 H 0.17386 0.045 0.02881 0.0
H212 H 0.23857 0.08825 0.03302 0.0
H213 H 0.23962 0.20983 0.99571 0.0
H214 H 0.34688 0.36777 0.05301 0.0
H215 H 0.29963 0.31388 0.03764 0.0
H216 H 0.3219 0.19223 0.06514 0.0
C217 C 0.20952 0.10238 0.02642 0.0
C218 C 0.25723 0.2056 0.01094 0.0
C219 C 0.17247 0.07751 0.02393 0.0
C220 C 0.35872 0.33589 0.05222 0.0
C221 C 0.33148 0.30499 0.04346 0.0
C222 C 0.30458 0.19589 0.04977 0.0
C223 C 0.20888 0.14494 0.02066 0.0
C224 C 0.24689 0.17252 0.02514 0.0
C225 C 0.34427 0.26285 0.04327 0.0
C226 C 0.31333 0.22999 0.03609 0.0
H227 H 0.10476 0.1507 0.0023 0.0
H228 H 0.16864 0.1944 0.00738 0.0
H229 H 0.26417 0.14294 0.05595 0.0
H230 H 0.44462 0.27411 0.06579 0.0
H231 H 0.39607 0.21993 0.0512 0.0
C232 C 0.12121 0.86354 0.01514 0.0
C233 C 0.08607 0.87251 0.00121 0.0
C234 C 0.14913 0.83031 0.01022 0.0
C235 C 0.19014 0.77271 0.96288 0.0
H236 H 0.2315 0.69145 0.00491 0.0
C237 C 0.29957 0.6382 0.93503 0.0
C238 C 0.33441 0.62767 0.94871 0.0
C239 C 0.26696 0.66472 0.94267 0.0
C240 C 0.22061 0.7142 0.99305 0.0
H241 H 0.05175 0.8525 0.97168 0.0
H242 H 0.10066 0.79494 0.96309 0.0
H243 H 0.17856 0.74427 0.01643 0.0
H244 H 0.36225 0.63545 0.98119 0.0
H245 H 0.30583 0.68312 0.99447 0.0
H246 H 0.23278 0.74407 0.93966 0.0
C247 C 0.10667 0.81377 0.97772 0.0
C248 C 0.19024 0.74428 -0.00036 0.0
C249 C 0.0786 0.84667 0.98271 0.0
C250 C 0.33553 0.64312 0.9704 0.0
C251 C 0.30314 0.67022 0.97798 0.0
C252 C 0.22073 0.74307 0.95636 0.0
C253 C 0.14261 0.80575 0.9912 0.0
C254 C 0.17458 0.7736 0.98454 0.0
C255 C 0.26884 0.68188 0.96406 0.0
C256 C 0.23617 0.71324 0.97129 0.0
H257 H 0.12774 0.88272 0.02958 0.0
H258 H 0.17675 0.82484 0.02082 0.0
H259 H 0.17924 0.79551 0.95103 0.0
H260 H 0.29769 0.62605 0.91835 0.0
H261 H 0.24045 0.67207 0.93169 0.0
C262 C 0.85711 0.87318 0.00354 0.0
C263 C 0.85535 0.91393 0.01243 0.0
C264 C 0.82249 0.84551 0.00626 0.0
C265 C 0.72876 0.82822 0.04291 0.0
H266 H 0.70513 0.73752 0.0016 0.0
C267 C 0.60174 0.6999 0.06 0.0
C268 C 0.61939 0.65925 0.05942 0.0
C269 C 0.62448 0.73362 0.05114 0.0
C270 C 0.71129 0.76287 0.01319 0.0
H271 H 0.81498 0.9585 0.03003 0.0
H272 H 0.75383 0.91075 0.03409 0.0
H273 H 0.75512 0.79346 0.99137 0.0
H274 H 0.67442 0.62233 0.04833 0.0
H275 H 0.71319 0.68099 0.03227 0.0
H276 H 0.68481 0.79743 0.06468 0.0
C277 C 0.78252 0.8996 0.02565 0.0
C278 C 0.74009 0.79476 0.00744 0.0
C279 C 0.81748 0.92708 0.02324 0.0
C280 C 0.6594 0.65294 0.04882 0.0
C281 C 0.68176 0.68656 0.03965 0.0
C282 C 0.69946 0.79672 0.04849 0.0
C283 C 0.78497 0.85813 0.01764 0.0
C284 C 0.75011 0.82725 0.02247 0.0
C285 C 0.66492 0.72728 0.04114 0.0
C286 C 0.69131 0.76326 0.03391 0.0
H287 H 0.88594 0.86204 0.9952 0.0
H288 H 0.82601 0.8137 0.00018 0.0
H289 H 0.73608 0.85221 0.05509 0.0
H290 H 0.57057 0.70583 0.06756 0.0
H291 H 0.61072 0.76476 0.05231 0.0
C292 C 0.85815 0.13847 0.0256 0.0
C293 C 0.89821 0.13984 0.01462 0.0
C294 C 0.82883 0.17147 0.02381 0.0
C295 C 0.81591 0.28176 0.00804 0.0
H296 H 0.70248 0.24524 0.98801 0.0
C297 C 0.69574 0.39128 0.96425 0.0
C298 C 0.65122 0.38309 0.96607 0.0
C299 C 0.72583 0.36498 0.97429 0.0
C300 C 0.73353 0.25622 0.99409 0.0
H301 H 0.93989 0.17809 0.99421 0.0
H302 H 0.88853 0.23581 0.99116 0.0
H303 H 0.75575 0.19356 -0.00132 0.0
H304 H 0.6028 0.34322 0.98088 0.0
H305 H 0.65508 0.29826 -0.00075 0.0
H306 H 0.79371 0.34453 0.00338 0.0
C307 C 0.87995 0.20911 0.00113 0.0
C308 C 0.76416 0.22646 0.00013 0.0
C309 C 0.9092 0.17592 0.00275 0.0
C310 C 0.63709 0.34973 0.97907 0.0
C311 C 0.66707 0.3239 0.98943 0.0
C312 C 0.785 0.31169 0.00226 0.0
C313 C 0.83908 0.20668 0.01118 0.0
C314 C 0.80582 0.23887 0.00684 0.0
C315 C 0.71186 0.33036 0.9866 0.0
C316 C 0.74362 0.29923 0.99486 0.0
H317 H 0.84871 0.11129 0.035 0.0
H318 H 0.79767 0.16904 0.0319 0.0
H319 H 0.84777 0.2921 0.01333 0.0
H320 H 0.70729 0.41677 0.95417 0.0
H321 H 0.75997 0.37071 0.9715 0.0
C322 C 0.68543 0.58158 0.52254 0.0
C323 C 0.6468 0.5955 0.51282 0.0
C324 C 0.72028 0.60904 0.52563 0.0
C325 C 0.76165 0.71515 0.51065 0.0
H326 H 0.82145 0.70701 0.56657 0.0
C327 C 0.85206 0.85198 0.55329 0.0
C328 C 0.89256 0.84359 0.56293 0.0
C329 C 0.82716 0.81963 0.54415 0.0
C330 C 0.80549 0.70929 0.55075 0.0
H331 H 0.61475 0.64888 0.49827 0.0
H332 H 0.67471 0.69714 0.50438 0.0
H333 H 0.76827 0.65395 0.55622 0.0
H334 H 0.93931 0.79454 0.56958 0.0
H335 H 0.8949 0.73787 0.55429 0.0
H336 H 0.79756 0.77195 0.5059 0.0
C337 C 0.67875 0.66478 0.50911 0.0
C338 C 0.77508 0.6788 0.54474 0.0
C339 C 0.64416 0.63715 0.50573 0.0
C340 C 0.90791 0.80209 0.56273 0.0
C341 C 0.88269 0.76964 0.55386 0.0
C342 C 0.79165 0.74598 0.51683 0.0
C343 C 0.71706 0.65124 0.51938 0.0
C344 C 0.75227 0.68164 0.52475 0.0
C345 C 0.84191 0.7781 0.54469 0.0
C346 C 0.81339 0.74357 0.53706 0.0
H347 H 0.68864 0.5495 0.52794 0.0
H348 H 0.74957 0.59725 0.53315 0.0
H349 H 0.74541 0.71793 0.49493 0.0
H350 H 0.83877 0.88335 0.55345 0.0
H351 H 0.79554 0.82688 0.53744 0.0
C352 C 0.59091 0.33049 0.49584 0.0
C353 C 0.60486 0.36659 0.5073 0.0
C354 C 0.61806 0.29572 0.49381 0.0
C355 C 0.73239 0.27035 0.4915 0.0
H356 H 0.69449 0.15514 0.49776 0.0
C357 C 0.84987 0.13611 0.47391 0.0
C358 C 0.83338 0.10209 0.46173 0.0
C359 C 0.82184 0.1653 0.48342 0.0
C360 C 0.70548 0.18712 0.49579 0.0
H361 H 0.65776 0.39393 0.52624 0.0
H362 H 0.70523 0.33335 0.52244 0.0
H363 H 0.64483 0.21233 0.50688 0.0
H364 H 0.77508 0.07072 0.45045 0.0
H365 H 0.72581 0.12258 0.46633 0.0
H366 H 0.7921 0.24583 0.47947 0.0
C367 C 0.67331 0.3321 0.51501 0.0
C368 C 0.67709 0.21979 0.50108 0.0
C369 C 0.64606 0.36671 0.51722 0.0
C370 C 0.7884 0.0967 0.4599 0.0
C371 C 0.76028 0.12633 0.4691 0.0
C372 C 0.76052 0.23783 0.48598 0.0
C373 C 0.6598 0.29654 0.50304 0.0
C374 C 0.69027 0.26168 0.49884 0.0
C375 C 0.77673 0.16154 0.48053 0.0
C376 C 0.7474 0.19578 0.48791 0.0
H377 H 0.55927 0.32929 0.48811 0.0
H378 H 0.60701 0.26879 0.48434 0.0
H379 H 0.74313 0.30237 0.48926 0.0
H380 H 0.88453 0.14049 0.47573 0.0
H381 H 0.83563 0.19136 0.49261 0.0
C382 C 0.33237 0.4272 0.52037 0.0
C383 C 0.3706 0.41128 0.511 0.0
C384 C 0.2961 0.40143 0.52291 0.0
C385 C 0.25065 0.29635 0.50742 0.0
H386 H 0.19081 0.3085 0.56317 0.0
C387 C 0.15895 0.16353 0.55098 0.0
C388 C 0.1185 0.17287 0.56048 0.0
C389 C 0.18392 0.19501 0.54147 0.0
C390 C 0.20675 0.30514 0.54739 0.0
H391 H 0.40048 0.35623 0.49639 0.0
H392 H 0.33808 0.31089 0.5016 0.0
H393 H 0.24545 0.3597 0.55295 0.0
H394 H 0.07186 0.22259 0.56642 0.0
H395 H 0.1165 0.27782 0.55055 0.0
H396 H 0.21338 0.24015 0.50267 0.0
C397 C 0.33541 0.34351 0.50646 0.0
C398 C 0.238 0.33458 0.54144 0.0
C399 C 0.37142 0.36946 0.5036 0.0
C400 C 0.10323 0.21437 0.55971 0.0
C401 C 0.12856 0.24597 0.55049 0.0
C402 C 0.21983 0.26655 0.51356 0.0
C403 C 0.2975 0.35897 0.51647 0.0
C404 C 0.26095 0.33017 0.52156 0.0
C405 C 0.16931 0.2366 0.54151 0.0
C406 C 0.19815 0.27037 0.53375 0.0
H407 H 0.33058 0.45949 0.52596 0.0
H408 H 0.26718 0.4147 0.53022 0.0
H409 H 0.26694 0.29242 0.49178 0.0
H410 H 0.1722 0.13219 0.55157 0.0
H411 H 0.21554 0.18712 0.53492 0.0
C412 C 0.41436 0.65883 0.48913 0.0
C413 C 0.41412 0.6331 0.50772 0.0
C414 C 0.38359 0.69049 0.48685 0.0
C415 C 0.27373 0.71728 0.5057 0.0
H416 H 0.29585 0.81897 0.47324 0.0
C417 C 0.17775 0.87144 0.46938 0.0
C418 C 0.14115 0.85083 0.46063 0.0
C419 C 0.21141 0.8486 0.47883 0.0
C420 C 0.28915 0.7911 0.48266 0.0
H421 H 0.38321 0.62216 0.53919 0.0
H422 H 0.33024 0.67807 0.53547 0.0
H423 H 0.35623 0.77449 0.48374 0.0
H424 H 0.11042 0.79021 0.4558 0.0
H425 H 0.16958 0.75034 0.47155 0.0
H426 H 0.20673 0.73401 0.50479 0.0
C427 C 0.3534 0.67303 0.52234 0.0
C428 C 0.32375 0.7653 0.48843 0.0
C429 C 0.3839 0.6411 0.52452 0.0
C430 C 0.13845 0.80701 0.46209 0.0
C431 C 0.17214 0.78419 0.47143 0.0
C432 C 0.23921 0.74321 0.50009 0.0
C433 C 0.35216 0.6974 0.50323 0.0
C434 C 0.31634 0.72755 0.49954 0.0
C435 C 0.20925 0.80465 0.47969 0.0
C436 C 0.24637 0.77986 0.48801 0.0
H437 H 0.43717 0.65346 0.47587 0.0
H438 H 0.38331 0.70826 0.47178 0.0
H439 H 0.26668 0.68829 0.51408 0.0
H440 H 0.18102 0.90516 0.46836 0.0
H441 H 0.23932 0.86536 0.48527 0.0
C442 C 0.96233 0.01383 0.10887 0.0
C443 C -0.00279 -0.00181 0.09642 0.0
C444 C 0.96326 0.01246 0.13181 0.0
C445 C 0.0122 0.95681 0.17794 0.0
H446 H 0.9778 0.0547 0.21192 0.0
C447 C 0.0281 0.96384 0.27256 0.0
C448 C -0.00539 0.98362 0.28432 0.0
C449 C 0.02969 0.96608 0.24964 0.0
C450 C 0.98699 0.0269 0.2027 0.0
H451 H 0.06036 0.96862 0.09836 0.0
H452 H 0.06176 0.96604 0.13848 0.0
H453 H 0.97792 0.05751 0.17188 0.0
H454 H 0.93612 0.02057 0.28134 0.0
H455 H 0.93834 0.02388 0.24134 0.0
H456 H 0.02049 0.92586 0.20867 0.0
C457 C 0.03371 0.97928 0.13041 0.0
C458 C 0.98715 0.02859 0.17976 0.0
C459 C 0.03297 0.98097 0.10745 0.0
C460 C 0.96266 0.00554 0.27271 0.0
C461 C 0.96404 0.0075 0.2498 0.0
C462 C 0.01171 0.95499 0.20089 0.0
C463 C -0.00108 -0.00486 0.14281 0.0
C464 C -0.00037 0.99353 0.16715 0.0
C465 C -0.00238 0.98788 0.23796 0.0
C466 C -0.00104 0.98999 0.21356 0.0
H467 H 0.93428 0.02733 0.10092 0.0
H468 H 0.93579 0.02451 0.14095 0.0
H469 H 0.02148 0.92916 0.16862 0.0
H470 H 0.05344 0.94715 0.28112 0.0
H471 H 0.05639 0.95117 0.2411 0.0
C472 C 0.00629 0.05199 0.91537 0.0
C473 C 0.99017 0.01652 0.92622 0.0
C474 C 0.00753 0.05309 0.89239 0.0
C475 C 0.00666 0.98287 0.84356 0.0
H476 H 0.97859 0.08423 0.81202 0.0
C477 C 0.98249 0.98417 0.74966 0.0
C478 C 0.00163 0.01726 0.73804 0.0
C479 C 0.98133 0.9849 0.77261 0.0
C480 C 0.98692 0.05582 0.82063 0.0
H481 H 0.96171 0.95481 0.92134 0.0
H482 H 0.96316 0.95709 0.88142 0.0
H483 H 0.97555 0.08422 0.85215 0.0
H484 H 0.03481 0.07701 0.74154 0.0
H485 H 0.03235 0.07843 0.78166 0.0
H486 H 0.01763 0.95439 0.81205 0.0
C487 C 0.97574 0.9837 0.89063 0.0
C488 C 0.98524 0.05581 0.84361 0.0
C489 C 0.97465 0.98252 0.91356 0.0
C490 C 0.01928 0.05129 0.74995 0.0
C491 C 0.01793 0.0521 0.77293 0.0
C492 C 0.00815 0.98284 0.82062 0.0
C493 C 0.99256 0.01881 0.87976 0.0
C494 C -0.0051 0.01926 0.85534 0.0
C495 C -0.0009 0.01883 0.7845 0.0
C496 C -0.00186 0.01925 0.8089 0.0
H497 H 0.0186 0.07868 0.92461 0.0
H498 H 0.02108 0.08045 0.88454 0.0
H499 H 0.01517 0.95442 0.85208 0.0
H500 H 0.96786 0.95786 0.74101 0.0
H501 H 0.96598 0.95911 0.78106 0.0
C502 C 0.47493 0.51009 0.60673 0.0
C503 C 0.51123 0.49641 0.59471 0.0
C504 C 0.47447 0.50777 0.62964 0.0
C505 C 0.52323 0.4527 0.67612 0.0
H506 H 0.4826 0.54825 0.71011 0.0
C507 C 0.53668 0.46225 0.7711 0.0
C508 C 0.50263 0.48182 0.78252 0.0
C509 C 0.5378 0.46259 0.74811 0.0
C510 C 0.49345 0.52104 0.70088 0.0
H511 H 0.57547 0.46933 0.5974 0.0
H512 H 0.57448 0.46519 0.63747 0.0
H513 H 0.48455 0.55193 0.67016 0.0
H514 H 0.44207 0.5153 0.77895 0.0
H515 H 0.44344 0.51516 0.73891 0.0
H516 H 0.53161 0.42156 0.70684 0.0
C517 C 0.54639 0.47758 0.62908 0.0
C518 C 0.49469 0.52324 0.67799 0.0
C519 C 0.54702 0.48022 0.60615 0.0
C520 C 0.46909 0.5006 0.77055 0.0
C521 C 0.47 0.50065 0.74761 0.0
C522 C 0.5217 0.45036 0.69906 0.0
C523 C 0.51014 0.49143 0.64104 0.0
C524 C 0.50948 0.48908 0.66537 0.0
C525 C 0.50469 0.48223 0.7361 0.0
C526 C 0.50665 0.48448 0.71171 0.0
H527 H 0.44679 0.52269 0.59846 0.0
H528 H 0.44592 0.51829 0.63843 0.0
H529 H 0.53436 0.42573 0.66677 0.0
H530 H 0.56311 0.44783 0.77996 0.0
H531 H 0.56522 0.44849 0.73979 0.0
C532 C 0.52799 0.53291 0.41239 0.0
C533 C 0.51322 0.49799 0.42416 0.0
C534 C 0.52924 0.5319 0.38941 0.0
C535 C 0.52947 0.45844 0.34182 0.0
H536 H 0.49676 0.55721 0.30919 0.0
C537 C 0.50356 0.4564 0.24767 0.0
C538 C 0.52097 0.49016 0.23587 0.0
C539 C 0.50312 0.45719 0.27065 0.0
C540 C 0.50638 0.52951 0.31809 0.0
H541 H 0.48785 0.43472 0.42093 0.0
H542 H 0.4893 0.43328 0.38091 0.0
H543 H 0.49462 0.55895 0.34927 0.0
H544 H 0.55237 0.55085 0.23908 0.0
H545 H 0.55109 0.55239 0.27917 0.0
H546 H 0.54075 0.42892 0.31056 0.0
C547 C 0.5007 0.46118 0.38944 0.0
C548 C 0.50524 0.53051 0.34106 0.0
C549 C 0.49962 0.46211 0.41241 0.0
C550 C 0.53802 0.52466 0.24763 0.0
C551 C 0.53737 0.52553 0.2706 0.0
C552 C 0.53039 0.45739 0.31885 0.0
C553 C 0.51558 0.49604 0.37766 0.0
C554 C 0.5168 0.49499 0.35321 0.0
C555 C 0.51987 0.49184 0.28235 0.0
C556 C 0.51891 0.49293 0.30674 0.0
H557 H 0.5389 0.561 0.4209 0.0
H558 H 0.54148 0.55909 0.38088 0.0
H559 H 0.53928 0.43074 0.35066 0.0
H560 H 0.48954 0.42964 0.23916 0.0
H561 H 0.48891 0.431 0.27927 0.0
loop_
_geom_bond_atom_site_label_1
_geom_bond_atom_site_label_2
_geom_bond_distance
_geom_bond_site_symmetry_2
_ccdc_geom_bond_type
O0 Zn1 1.953 . S
O0 C16 1.225 1_565 S
Zn1 O0 1.953 . S
Zn1 O2 1.949 1_565 S
Zn1 O8 1.919 . S
Zn1 O13 1.924 1_565 S
O2 Zn1 1.949 1_545 S
O2 Zn3 1.923 1_444 S
O2 Zn4 1.950 1_455 S
O2 Zn5 1.945 1_554 S
Zn3 O2 1.923 1_666 S
Zn3 O6 1.934 . S
Zn3 O9 1.941 1_655 S
Zn3 O10 1.961 1_556 S
Zn4 O2 1.950 1_655 S
Zn4 O11 1.938 1_545 S
Zn4 O12 1.906 . S
Zn4 O22 1.953 . S
Zn5 O2 1.945 1_556 S
Zn5 O7 1.932 . S
Zn5 O14 1.977 1_455 S
Zn5 O15 1.910 1_556 S
O6 Zn3 1.934 . S
O6 C17 1.223 1_665 S
O7 Zn5 1.932 . S
O7 C17 1.307 . S
O8 Zn1 1.919 . S
O8 C19 1.253 . S
O9 Zn3 1.941 1_455 S
O9 C19 1.283 1_556 S
O10 Zn3 1.961 1_554 S
O10 C18 1.320 . S
O11 Zn4 1.938 1_565 S
O11 C18 1.247 . S
O12 Zn4 1.906 . S
O12 C20 1.304 . S
O13 Zn1 1.924 1_545 S
O13 C21 1.311 . S
O14 Zn5 1.977 1_655 S
O14 C20 1.272 1_556 S
O15 Zn5 1.910 1_554 S
O15 C21 1.231 . S
C16 O0 1.225 1_545 S
C16 O22 1.298 1_455 S
C17 O6 1.223 1_445 S
C17 O7 1.307 . S
C18 O10 1.320 . S
C18 O11 1.247 . S
C19 O8 1.253 . S
C19 O9 1.283 1_554 S
C20 O12 1.304 . S
C20 O14 1.272 1_554 S
C21 O13 1.311 . S
C21 O15 1.231 . S
O22 Zn4 1.953 . S
O22 C16 1.298 1_655 S
O23 Zn24 1.953 . S
O23 C39 1.225 . S
Zn24 O23 1.953 . S
Zn24 O25 1.949 . S
Zn24 O31 1.919 . S
Zn24 O36 1.924 . S
O25 Zn24 1.949 . S
O25 Zn26 1.923 . S
O25 Zn27 1.950 . S
O25 Zn28 1.945 . S
Zn26 O25 1.923 . S
Zn26 O29 1.933 . S
Zn26 O32 1.941 . S
Zn26 O33 1.965 . S
Zn27 O25 1.950 . S
Zn27 O34 1.938 . S
Zn27 O35 1.906 . S
Zn27 O45 1.953 . S
Zn28 O25 1.945 . S
Zn28 O30 1.932 . S
Zn28 O37 1.977 . S
Zn28 O38 1.910 . S
O29 Zn26 1.933 . S
O29 C40 1.226 . S
O30 Zn28 1.932 . S
O30 C40 1.307 . S
O31 Zn24 1.919 . S
O31 C42 1.253 . S
O32 Zn26 1.941 . S
O32 C42 1.283 . S
O33 Zn26 1.965 . S
O33 C41 1.303 . S
O34 Zn27 1.938 . S
O34 C41 1.247 . S
O35 Zn27 1.906 . S
O35 C43 1.304 . S
O36 Zn24 1.924 . S
O36 C44 1.311 . S
O37 Zn28 1.977 . S
O37 C43 1.272 . S
O38 Zn28 1.910 . S
O38 C44 1.231 . S
C39 O23 1.225 . S
C39 O45 1.298 . S
C40 O29 1.226 . S
C40 O30 1.307 . S
C41 O33 1.303 . S
C41 O34 1.247 . S
C42 O31 1.253 . S
C42 O32 1.283 . S
C43 O35 1.304 . S
C43 O37 1.272 . S
C44 O36 1.311 . S
C44 O38 1.231 . S
O45 Zn27 1.953 . S
O45 C39 1.298 . S
C46 C47 1.388 1_455 S
C46 C48 1.397 . S
C46 H70 0.931 . S
C47 C46 1.388 1_655 S
C47 C51 1.395 1_665 S
C48 C46 1.397 . S
C48 C49 1.384 . S
C48 H71 0.930 . S
C49 C48 1.384 . S
C49 C50 1.377 1_565 S
C49 C52 1.481 . S
C50 C49 1.377 1_545 S
C50 C51 1.389 . S
C50 H72 0.929 . S
C51 C47 1.395 1_445 S
C51 C50 1.389 . S
C51 H73 0.931 . S
C52 C49 1.481 . S
C52 C53 1.394 . S
C52 C57 1.384 1_465 S
C53 C52 1.394 . S
C53 C54 1.401 . S
C53 H74 0.930 . S
C54 C53 1.401 . S
C54 C55 1.367 1_455 S
C54 C63 1.511 . S
C55 C54 1.367 1_655 S
C55 C56 1.401 1_565 S
C55 H76 0.932 . S
C56 C55 1.401 1_545 S
C56 C57 1.361 . S
C56 C58 1.500 . S
C57 C52 1.384 1_645 S
C57 C56 1.361 . S
C57 H75 0.931 . S
C58 C56 1.500 . S
C58 C59 1.371 . S
C58 C60 1.365 . S
C59 C58 1.371 . S
C59 C69 1.386 . S
C59 H77 0.931 . S
C60 C58 1.365 . S
C60 C61 1.409 . S
C60 H78 0.929 . S
C61 C60 1.409 . S
C61 C62 1.380 . S
C61 H79 0.930 . S
C62 C61 1.380 . S
C62 C69 1.357 . S
C63 C54 1.511 . S
C63 C64 1.341 . S
C63 C65 1.371 . S
C64 C63 1.341 . S
C64 C68 1.394 . S
C64 H80 0.930 . S
C65 C63 1.371 . S
C65 C66 1.392 . S
C65 H81 0.931 . S
C66 C65 1.392 . S
C66 C67 1.331 . S
C66 H84 0.932 . S
C67 C66 1.331 . S
C67 C68 1.336 . S
C68 C64 1.394 . S
C68 C67 1.336 . S
C68 H83 0.929 . S
C69 C59 1.386 . S
C69 C62 1.357 . S
C69 H82 0.928 . S
H70 C46 0.931 . S
H71 C48 0.930 . S
H72 C50 0.929 . S
H73 C51 0.931 . S
H74 C53 0.930 . S
H75 C57 0.931 . S
H76 C55 0.932 . S
H77 C59 0.931 . S
H78 C60 0.929 . S
H79 C61 0.930 . S
H80 C64 0.930 . S
H81 C65 0.931 . S
H82 C69 0.928 . S
H83 C68 0.929 . S
H84 C66 0.932 . S
C85 C86 1.386 . S
C85 C87 1.397 . S
C85 H109 0.931 . S
C86 C85 1.386 . S
C86 C90 1.397 1_545 S
C87 C85 1.397 . S
C87 C88 1.384 . S
C87 H110 0.930 . S
C88 C87 1.384 . S
C88 C89 1.377 1_545 S
C88 C91 1.481 . S
C89 C88 1.377 1_565 S
C89 C90 1.389 . S
C89 H111 0.929 . S
C90 C86 1.397 1_565 S
C90 C89 1.389 . S
C90 H112 0.931 . S
C91 C88 1.481 . S
C91 C92 1.387 . S
C91 C96 1.390 1_445 S
C92 C91 1.387 . S
C92 C93 1.401 . S
C92 H113 0.930 . S
C93 C92 1.401 . S
C93 C94 1.376 . S
C93 C102 1.511 . S
C94 C93 1.376 . S
C94 C95 1.392 1_445 S
C94 H115 0.931 . S
C95 C94 1.392 1_665 S
C95 C96 1.361 . S
C95 C97 1.500 . S
C96 C91 1.390 1_665 S
C96 C95 1.361 . S
C96 H114 0.931 . S
C97 C95 1.500 . S
C97 C98 1.371 . S
C97 C99 1.365 . S
C98 C97 1.371 . S
C98 C108 1.386 . S
C98 H116 0.931 . S
C99 C97 1.365 . S
C99 C100 1.409 . S
C99 H117 0.929 . S
C100 C99 1.409 . S
C100 C101 1.380 . S
C100 H118 0.930 . S
C101 C100 1.380 . S
C101 C108 1.357 . S
C102 C93 1.511 . S
C102 C103 1.341 . S
C102 C104 1.371 . S
C103 C102 1.341 . S
C103 C107 1.394 . S
C103 H119 0.930 . S
C104 C102 1.371 . S
C104 C105 1.392 . S
C104 H120 0.931 . S
C105 C104 1.392 . S
C105 C106 1.331 . S
C105 H123 0.932 . S
C106 C105 1.331 . S
C106 C107 1.336 . S
C107 C103 1.394 . S
C107 C106 1.336 . S
C107 H122 0.929 . S
C108 C98 1.386 . S
C108 C101 1.357 . S
C108 H121 0.928 . S
H109 C85 0.931 . S
H110 C87 0.930 . S
H111 C89 0.929 . S
H112 C90 0.931 . S
H113 C92 0.930 . S
H114 C96 0.931 . S
H115 C94 0.931 . S
H116 C98 0.931 . S
H117 C99 0.929 . S
H118 C100 0.930 . S
H119 C103 0.930 . S
H120 C104 0.931 . S
H121 C108 0.928 . S
H122 C107 0.929 . S
H123 C105 0.932 . S
C124 C125 1.386 . S
C124 C126 1.397 . S
C124 H148 0.931 . S
C125 C124 1.386 . S
C125 C129 1.397 . S
C126 C124 1.397 . S
C126 C127 1.384 . S
C126 H149 0.930 . S
C127 C126 1.384 . S
C127 C128 1.377 . S
C127 C130 1.481 . S
C128 C127 1.377 . S
C128 C129 1.389 . S
C128 H150 0.929 . S
C129 C125 1.397 . S
C129 C128 1.389 . S
C129 H151 0.931 . S
C130 C127 1.481 . S
C130 C131 1.387 . S
C130 C135 1.390 . S
C131 C130 1.387 . S
C131 C132 1.401 . S
C131 H152 0.930 . S
C132 C131 1.401 . S
C132 C133 1.376 . S
C132 C141 1.511 . S
C133 C132 1.376 . S
C133 C134 1.392 . S
C133 H154 0.931 . S
C134 C133 1.392 . S
C134 C135 1.361 . S
C134 C136 1.500 . S
C135 C130 1.390 . S
C135 C134 1.361 . S
C135 H153 0.931 . S
C136 C134 1.500 . S
C136 C137 1.371 . S
C136 C138 1.365 . S
C137 C136 1.371 . S
C137 C147 1.386 . S
C137 H155 0.931 . S
C138 C136 1.365 . S
C138 C139 1.409 . S
C138 H156 0.929 . S
C139 C138 1.409 . S
C139 C140 1.380 . S
C139 H157 0.930 . S
C140 C139 1.380 . S
C140 C147 1.357 . S
C141 C132 1.511 . S
C141 C142 1.341 . S
C141 C143 1.371 . S
C142 C141 1.341 . S
C142 C146 1.394 . S
C142 H158 0.930 . S
C143 C141 1.371 . S
C143 C144 1.392 . S
C143 H159 0.931 . S
C144 C143 1.392 . S
C144 C145 1.331 . S
C144 H162 0.932 . S
C145 C144 1.331 . S
C145 C146 1.336 . S
C146 C142 1.394 . S
C146 C145 1.336 . S
C146 H161 0.929 . S
C147 C137 1.386 . S
C147 C140 1.357 . S
C147 H160 0.928 . S
H148 C124 0.931 . S
H149 C126 0.930 . S
H150 C128 0.929 . S
H151 C129 0.931 . S
H152 C131 0.930 . S
H153 C135 0.931 . S
H154 C133 0.931 . S
H155 C137 0.931 . S
H156 C138 0.929 . S
H157 C139 0.930 . S
H158 C142 0.930 . S
H159 C143 0.931 . S
H160 C147 0.928 . S
H161 C146 0.929 . S
H162 C144 0.932 . S
C163 C164 1.386 . S
C163 C165 1.397 . S
C163 H187 0.931 . S
C164 C163 1.386 . S
C164 C168 1.397 . S
C165 C163 1.397 . S
C165 C166 1.384 . S
C165 H188 0.930 . S
C166 C165 1.384 . S
C166 C167 1.377 . S
C166 C169 1.481 . S
C167 C166 1.377 . S
C167 C168 1.389 . S
C167 H189 0.929 . S
C168 C164 1.397 . S
C168 C167 1.389 . S
C168 H190 0.931 . S
C169 C166 1.481 . S
C169 C170 1.387 . S
C169 C174 1.390 . S
C170 C169 1.387 . S
C170 C171 1.401 . S
C170 H191 0.930 . S
C171 C170 1.401 . S
C171 C172 1.376 . S
C171 C180 1.511 . S
C172 C171 1.376 . S
C172 C173 1.392 . S
C172 H193 0.931 . S
C173 C172 1.392 . S
C173 C174 1.361 . S
C173 C175 1.500 . S
C174 C169 1.390 . S
C174 C173 1.361 . S
C174 H192 0.931 . S
C175 C173 1.500 . S
C175 C176 1.371 . S
C175 C177 1.365 . S
C176 C175 1.371 . S
C176 C186 1.386 . S
C176 H194 0.931 . S
C177 C175 1.365 . S
C177 C178 1.409 . S
C177 H195 0.929 . S
C178 C177 1.409 . S
C178 C179 1.380 . S
C178 H196 0.930 . S
C179 C178 1.380 . S
C179 C186 1.357 . S
C180 C171 1.511 . S
C180 C181 1.341 . S
C180 C182 1.371 . S
C181 C180 1.341 . S
C181 C185 1.394 . S
C181 H197 0.930 . S
C182 C180 1.371 . S
C182 C183 1.392 . S
C182 H198 0.931 . S
C183 C182 1.392 . S
C183 C184 1.331 . S
C183 H201 0.932 . S
C184 C183 1.331 . S
C184 C185 1.336 . S
C185 C181 1.394 . S
C185 C184 1.336 . S
C185 H200 0.929 . S
C186 C176 1.386 . S
C186 C179 1.357 . S
C186 H199 0.928 . S
H187 C163 0.931 . S
H188 C165 0.930 . S
H189 C167 0.929 . S
H190 C168 0.931 . S
H191 C170 0.930 . S
H192 C174 0.931 . S
H193 C172 0.931 . S
H194 C176 0.931 . S
H195 C177 0.929 . S
H196 C178 0.930 . S
H197 C181 0.930 . S
H198 C182 0.931 . S
H199 C186 0.928 . S
H200 C185 0.929 . S
H201 C183 0.932 . S
C202 C203 1.349 . S
C202 C204 1.327 . S
C202 H227 0.950 . S
C203 C202 1.349 . S
C203 C219 1.349 . S
C204 C202 1.327 . S
C204 C223 1.429 . S
C204 H228 0.950 . S
C205 C222 1.574 . S
C205 C224 1.368 . S
C205 H229 0.949 . S
H206 C210 0.949 . S
C207 C208 1.349 . S
C207 C209 1.327 . S
C207 H230 0.950 . S
C208 C207 1.349 . S
C208 C220 1.349 . S
C209 C207 1.327 . S
C209 C225 1.429 . S
C209 H231 0.950 . S
C210 H206 0.949 . S
C210 C218 1.574 . S
C210 C226 1.368 . S
H211 C219 0.950 . S
H212 C217 0.950 . S
H213 C218 0.949 . S
H214 C220 0.950 . S
H215 C221 0.950 . S
H216 C222 0.949 . S
C217 H212 0.950 . S
C217 C219 1.327 . S
C217 C223 1.429 . S
C218 C210 1.574 . S
C218 H213 0.949 . S
C218 C224 1.368 . S
C219 C203 1.349 . S
C219 H211 0.950 . S
C219 C217 1.327 . S
C220 C208 1.349 . S
C220 H214 0.950 . S
C220 C221 1.327 . S
C221 H215 0.950 . S
C221 C220 1.327 . S
C221 C225 1.429 . S
C222 C205 1.574 . S
C222 H216 0.949 . S
C222 C226 1.368 . S
C223 C204 1.429 . S
C223 C217 1.429 . S
C223 C224 1.523 . S
C224 C205 1.368 . S
C224 C218 1.368 . S
C224 C223 1.523 . S
C225 C209 1.429 . S
C225 C221 1.429 . S
C225 C226 1.523 . S
C226 C210 1.368 . S
C226 C222 1.368 . S
C226 C225 1.523 . S
H227 C202 0.950 . S
H228 C204 0.950 . S
H229 C205 0.949 . S
H230 C207 0.950 . S
H231 C209 0.950 . S
C232 C233 1.349 1_554 S
C232 C234 1.327 . S
C232 H257 0.950 . S
C233 C232 1.349 1_556 S
C233 C249 1.349 . S
C234 C232 1.327 . S
C234 C253 1.429 1_554 S
C234 H258 0.950 . S
C235 C252 1.574 . S
C235 C254 1.368 . S
C235 H259 0.949 . S
H236 C240 0.949 1_554 S
C237 C238 1.349 . S
C237 C239 1.327 . S
C237 H260 0.950 . S
C238 C237 1.349 . S
C238 C250 1.349 . S
C239 C237 1.327 . S
C239 C255 1.429 . S
C239 H261 0.950 . S
C240 H236 0.949 1_556 S
C240 C248 1.574 . S
C240 C256 1.368 . S
H241 C249 0.950 . S
H242 C247 0.950 . S
H243 C248 0.949 1_554 S
H244 C250 0.950 . S
H245 C251 0.950 . S
H246 C252 0.949 . S
C247 H242 0.950 . S
C247 C249 1.327 . S
C247 C253 1.429 . S
C248 C240 1.574 . S
C248 H243 0.949 1_556 S
C248 C254 1.368 . S
C249 C233 1.349 . S
C249 H241 0.950 . S
C249 C247 1.327 . S
C250 C238 1.349 . S
C250 H244 0.950 . S
C250 C251 1.327 . S
C251 H245 0.950 . S
C251 C250 1.327 . S
C251 C255 1.429 . S
C252 C235 1.574 . S
C252 H246 0.949 . S
C252 C256 1.368 . S
C253 C234 1.429 1_556 S
C253 C247 1.429 . S
C253 C254 1.523 . S
C254 C235 1.368 . S
C254 C248 1.368 . S
C254 C253 1.523 . S
C255 C239 1.429 . S
C255 C251 1.429 . S
C255 C256 1.523 . S
C256 C240 1.368 . S
C256 C252 1.368 . S
C256 C255 1.523 . S
H257 C232 0.950 . S
H258 C234 0.950 . S
H259 C235 0.949 . S
H260 C237 0.950 . S
H261 C239 0.950 . S
C262 C263 1.349 . S
C262 C264 1.327 . S
C262 H287 0.950 . S
C263 C262 1.349 . S
C263 C279 1.349 . S
C264 C262 1.327 . S
C264 C283 1.429 . S
C264 H288 0.950 . S
C265 C282 1.574 . S
C265 C284 1.368 . S
C265 H289 0.949 . S
H266 C270 0.949 . S
C267 C268 1.349 . S
C267 C269 1.327 . S
C267 H290 0.950 . S
C268 C267 1.349 . S
C268 C280 1.349 . S
C269 C267 1.327 . S
C269 C285 1.429 . S
C269 H291 0.950 . S
C270 H266 0.949 . S
C270 C278 1.574 . S
C270 C286 1.368 . S
H271 C279 0.950 . S
H272 C277 0.950 . S
H273 C278 0.949 . S
H274 C280 0.950 . S
H275 C281 0.950 . S
H276 C282 0.949 . S
C277 H272 0.950 . S
C277 C279 1.327 . S
C277 C283 1.429 . S
C278 C270 1.574 . S
C278 H273 0.949 . S
C278 C284 1.368 . S
C279 C263 1.349 . S
C279 H271 0.950 . S
C279 C277 1.327 . S
C280 C268 1.349 . S
C280 H274 0.950 . S
C280 C281 1.327 . S
C281 H275 0.950 . S
C281 C280 1.327 . S
C281 C285 1.429 . S
C282 C265 1.574 . S
C282 H276 0.949 . S
C282 C286 1.368 . S
C283 C264 1.429 . S
C283 C277 1.429 . S
C283 C284 1.523 . S
C284 C265 1.368 . S
C284 C278 1.368 . S
C284 C283 1.523 . S
C285 C269 1.429 . S
C285 C281 1.429 . S
C285 C286 1.523 . S
C286 C270 1.368 . S
C286 C282 1.368 . S
C286 C285 1.523 . S
H287 C262 0.950 . S
H288 C264 0.950 . S
H289 C265 0.949 . S
H290 C267 0.950 . S
H291 C269 0.950 . S
C292 C293 1.349 . S
C292 C294 1.327 . S
C292 H317 0.950 . S
C293 C292 1.349 . S
C293 C309 1.349 1_556 S
C294 C292 1.327 . S
C294 C313 1.429 . S
C294 H318 0.950 . S
C295 C312 1.574 . S
C295 C314 1.368 . S
C295 H319 0.949 1_556 S
H296 C300 0.949 . S
C297 C298 1.349 . S
C297 C299 1.327 . S
C297 H320 0.950 . S
C298 C297 1.349 . S
C298 C310 1.349 . S
C299 C297 1.327 . S
C299 C315 1.429 . S
C299 H321 0.950 . S
C300 H296 0.949 . S
C300 C308 1.574 . S
C300 C316 1.368 . S
H301 C309 0.950 . S
H302 C307 0.950 . S
H303 C308 0.949 . S
H304 C310 0.950 . S
H305 C311 0.950 . S
H306 C312 0.949 . S
C307 H302 0.950 . S
C307 C309 1.327 . S
C307 C313 1.429 1_554 S
C308 C300 1.574 . S
C308 H303 0.949 . S
C308 C314 1.368 . S
C309 C293 1.349 1_554 S
C309 H301 0.950 . S
C309 C307 1.327 . S
C310 C298 1.349 . S
C310 H304 0.950 . S
C310 C311 1.327 . S
C311 H305 0.950 . S
C311 C310 1.327 . S
C311 C315 1.429 . S
C312 C295 1.574 . S
C312 H306 0.949 . S
C312 C316 1.368 . S
C313 C294 1.429 . S
C313 C307 1.429 1_556 S
C313 C314 1.523 . S
C314 C295 1.368 . S
C314 C308 1.368 . S
C314 C313 1.523 . S
C315 C299 1.429 . S
C315 C311 1.429 . S
C315 C316 1.523 . S
C316 C300 1.368 . S
C316 C312 1.368 . S
C316 C315 1.523 . S
H317 C292 0.950 . S
H318 C294 0.950 . S
H319 C295 0.949 1_554 S
H320 C297 0.950 . S
H321 C299 0.950 . S
C322 C323 1.349 . S
C322 C324 1.327 . S
C322 H347 0.950 . S
C323 C322 1.349 . S
C323 C339 1.349 . S
C324 C322 1.327 . S
C324 C343 1.429 . S
C324 H348 0.950 . S
C325 C342 1.574 . S
C325 C344 1.368 . S
C325 H349 0.949 . S
H326 C330 0.949 . S
C327 C328 1.349 . S
C327 C329 1.327 . S
C327 H350 0.950 . S
C328 C327 1.349 . S
C328 C340 1.349 . S
C329 C327 1.327 . S
C329 C345 1.429 . S
C329 H351 0.950 . S
C330 H326 0.949 . S
C330 C338 1.574 . S
C330 C346 1.368 . S
H331 C339 0.950 . S
H332 C337 0.950 . S
H333 C338 0.949 . S
H334 C340 0.950 . S
H335 C341 0.950 . S
H336 C342 0.949 . S
C337 H332 0.950 . S
C337 C339 1.327 . S
C337 C343 1.429 . S
C338 C330 1.574 . S
C338 H333 0.949 . S
C338 C344 1.368 . S
C339 C323 1.349 . S
C339 H331 0.950 . S
C339 C337 1.327 . S
C340 C328 1.349 . S
C340 H334 0.950 . S
C340 C341 1.327 . S
C341 H335 0.950 . S
C341 C340 1.327 . S
C341 C345 1.429 . S
C342 C325 1.574 . S
C342 H336 0.949 . S
C342 C346 1.368 . S
C343 C324 1.429 . S
C343 C337 1.429 . S
C343 C344 1.523 . S
C344 C325 1.368 . S
C344 C338 1.368 . S
C344 C343 1.523 . S
C345 C329 1.429 . S
C345 C341 1.429 . S
C345 C346 1.523 . S
C346 C330 1.368 . S
C346 C342 1.368 . S
C346 C345 1.523 . S
H347 C322 0.950 . S
H348 C324 0.950 . S
H349 C325 0.949 . S
H350 C327 0.950 . S
H351 C329 0.950 . S
C352 C353 1.349 . S
C352 C354 1.327 . S
C352 H377 0.950 . S
C353 C352 1.349 . S
C353 C369 1.349 . S
C354 C352 1.327 . S
C354 C373 1.429 . S
C354 H378 0.950 . S
C355 C372 1.574 . S
C355 C374 1.368 . S
C355 H379 0.949 . S
H356 C360 0.949 . S
C357 C358 1.349 . S
C357 C359 1.327 . S
C357 H380 0.950 . S
C358 C357 1.349 . S
C358 C370 1.349 . S
C359 C357 1.327 . S
C359 C375 1.429 . S
C359 H381 0.950 . S
C360 H356 0.949 . S
C360 C368 1.574 . S
C360 C376 1.368 . S
H361 C369 0.950 . S
H362 C367 0.950 . S
H363 C368 0.949 . S
H364 C370 0.950 . S
H365 C371 0.950 . S
H366 C372 0.949 . S
C367 H362 0.950 . S
C367 C369 1.327 . S
C367 C373 1.429 . S
C368 C360 1.574 . S
C368 H363 0.949 . S
C368 C374 1.368 . S
C369 C353 1.349 . S
C369 H361 0.950 . S
C369 C367 1.327 . S
C370 C358 1.349 . S
C370 H364 0.950 . S
C370 C371 1.327 . S
C371 H365 0.950 . S
C371 C370 1.327 . S
C371 C375 1.429 . S
C372 C355 1.574 . S
C372 H366 0.949 . S
C372 C376 1.368 . S
C373 C354 1.429 . S
C373 C367 1.429 . S
C373 C374 1.523 . S
C374 C355 1.368 . S
C374 C368 1.368 . S
C374 C373 1.523 . S
C375 C359 1.429 . S
C375 C371 1.429 . S
C375 C376 1.523 . S
C376 C360 1.368 . S
C376 C372 1.368 . S
C376 C375 1.523 . S
H377 C352 0.950 . S
H378 C354 0.950 . S
H379 C355 0.949 . S
H380 C357 0.950 . S
H381 C359 0.950 . S
C382 C383 1.349 . S
C382 C384 1.327 . S
C382 H407 0.950 . S
C383 C382 1.349 . S
C383 C399 1.349 . S
C384 C382 1.327 . S
C384 C403 1.429 . S
C384 H408 0.950 . S
C385 C402 1.574 . S
C385 C404 1.368 . S
C385 H409 0.949 . S
H386 C390 0.949 . S
C387 C388 1.349 . S
C387 C389 1.327 . S
C387 H410 0.950 . S
C388 C387 1.349 . S
C388 C400 1.349 . S
C389 C387 1.327 . S
C389 C405 1.429 . S
C389 H411 0.950 . S
C390 H386 0.949 . S
C390 C398 1.574 . S
C390 C406 1.368 . S
H391 C399 0.950 . S
H392 C397 0.950 . S
H393 C398 0.949 . S
H394 C400 0.950 . S
H395 C401 0.950 . S
H396 C402 0.949 . S
C397 H392 0.950 . S
C397 C399 1.327 . S
C397 C403 1.429 . S
C398 C390 1.574 . S
C398 H393 0.949 . S
C398 C404 1.368 . S
C399 C383 1.349 . S
C399 H391 0.950 . S
C399 C397 1.327 . S
C400 C388 1.349 . S
C400 H394 0.950 . S
C400 C401 1.327 . S
C401 H395 0.950 . S
C401 C400 1.327 . S
C401 C405 1.429 . S
C402 C385 1.574 . S
C402 H396 0.949 . S
C402 C406 1.368 . S
C403 C384 1.429 . S
C403 C397 1.429 . S
C403 C404 1.523 . S
C404 C385 1.368 . S
C404 C398 1.368 . S
C404 C403 1.523 . S
C405 C389 1.429 . S
C405 C401 1.429 . S
C405 C406 1.523 . S
C406 C390 1.368 . S
C406 C402 1.368 . S
C406 C405 1.523 . S
H407 C382 0.950 . S
H408 C384 0.950 . S
H409 C385 0.949 . S
H410 C387 0.950 . S
H411 C389 0.950 . S
C412 C413 1.349 . S
C412 C414 1.327 . S
C412 H437 0.950 . S
C413 C412 1.349 . S
C413 C429 1.349 . S
C414 C412 1.327 . S
C414 C433 1.429 . S
C414 H438 0.950 . S
C415 C432 1.574 . S
C415 C434 1.368 . S
C415 H439 0.949 . S
H416 C420 0.949 . S
C417 C418 1.349 . S
C417 C419 1.327 . S
C417 H440 0.950 . S
C418 C417 1.349 . S
C418 C430 1.349 . S
C419 C417 1.327 . S
C419 C435 1.429 . S
C419 H441 0.950 . S
C420 H416 0.949 . S
C420 C428 1.574 . S
C420 C436 1.368 . S
H421 C429 0.950 . S
H422 C427 0.950 . S
H423 C428 0.949 . S
H424 C430 0.950 . S
H425 C431 0.950 . S
H426 C432 0.949 . S
C427 H422 0.950 . S
C427 C429 1.327 . S
C427 C433 1.429 . S
C428 C420 1.574 . S
C428 H423 0.949 . S
C428 C434 1.368 . S
C429 C413 1.349 . S
C429 H421 0.950 . S
C429 C427 1.327 . S
C430 C418 1.349 . S
C430 H424 0.950 . S
C430 C431 1.327 . S
C431 H425 0.950 . S
C431 C430 1.327 . S
C431 C435 1.429 . S
C432 C415 1.574 . S
C432 H426 0.949 . S
C432 C436 1.368 . S
C433 C414 1.429 . S
C433 C427 1.429 . S
C433 C434 1.523 . S
C434 C415 1.368 . S
C434 C428 1.368 . S
C434 C433 1.523 . S
C435 C419 1.429 . S
C435 C431 1.429 . S
C435 C436 1.523 . S
C436 C420 1.368 . S
C436 C432 1.368 . S
C436 C435 1.523 . S
H437 C412 0.950 . S
H438 C414 0.950 . S
H439 C415 0.949 . S
H440 C417 0.950 . S
H441 C419 0.950 . S
C442 C443 1.349 1_655 S
C442 C444 1.327 . S
C442 H467 0.950 . S
C443 C442 1.349 1_455 S
C443 C459 1.349 1_545 S
C444 C442 1.327 . S
C444 C463 1.429 1_655 S
C444 H468 0.950 . S
C445 C462 1.574 . S
C445 C464 1.368 1_565 S
C445 H469 0.949 . S
H446 C450 0.949 . S
C447 C448 1.333 1_565 S
C447 C449 1.327 . S
C447 H470 0.950 . S
C448 C447 1.333 1_545 S
C448 C460 1.365 1_455 S
C449 C447 1.327 . S
C449 C465 1.429 1_565 S
C449 H471 0.950 . S
C450 H446 0.949 . S
C450 C458 1.574 . S
C450 C466 1.368 1_655 S
H451 C459 0.950 . S
H452 C457 0.950 . S
H453 C458 0.949 . S
H454 C460 0.950 . S
H455 C461 0.950 . S
H456 C462 0.949 . S
C457 H452 0.950 . S
C457 C459 1.327 . S
C457 C463 1.429 1_565 S
C458 C450 1.574 . S
C458 H453 0.949 . S
C458 C464 1.368 1_655 S
C459 C443 1.349 1_565 S
C459 H451 0.950 . S
C459 C457 1.327 . S
C460 C448 1.365 1_655 S
C460 H454 0.950 . S
C460 C461 1.327 . S
C461 H455 0.950 . S
C461 C460 1.327 . S
C461 C465 1.429 1_655 S
C462 C445 1.574 . S
C462 H456 0.949 . S
C462 C466 1.368 1_565 S
C463 C444 1.429 1_455 S
C463 C457 1.429 1_545 S
C463 C464 1.523 . S
C464 C445 1.368 1_545 S
C464 C458 1.368 1_455 S
C464 C463 1.523 . S
C465 C449 1.429 1_545 S
C465 C461 1.429 1_455 S
C465 C466 1.523 . S
C466 C450 1.368 1_455 S
C466 C462 1.368 1_545 S
C466 C465 1.523 . S
H467 C442 0.950 . S
H468 C444 0.950 . S
H469 C445 0.949 . S
H470 C447 0.950 . S
H471 C449 0.950 . S
C472 C473 1.349 . S
C472 C474 1.327 . S
C472 H497 0.950 . S
C473 C472 1.349 . S
C473 C489 1.349 1_445 S
C474 C472 1.327 . S
C474 C493 1.429 . S
C474 H498 0.950 . S
C475 C492 1.574 . S
C475 C494 1.368 1_665 S
C475 H499 0.949 . S
H476 C480 0.949 . S
C477 C478 1.349 1_665 S
C477 C479 1.327 . S
C477 H500 0.950 . S
C478 C477 1.349 1_445 S
C478 C490 1.349 . S
C479 C477 1.327 . S
C479 C495 1.429 1_665 S
C479 H501 0.950 . S
C480 H476 0.949 . S
C480 C488 1.574 . S
C480 C496 1.368 . S
H481 C489 0.950 . S
H482 C487 0.950 . S
H483 C488 0.949 . S
H484 C490 0.950 . S
H485 C491 0.950 . S
H486 C492 0.949 . S
C487 H482 0.950 . S
C487 C489 1.327 . S
C487 C493 1.429 1_665 S
C488 C480 1.574 . S
C488 H483 0.949 . S
C488 C494 1.368 . S
C489 C473 1.349 1_665 S
C489 H481 0.950 . S
C489 C487 1.327 . S
C490 C478 1.349 . S
C490 H484 0.950 . S
C490 C491 1.327 . S
C491 H485 0.950 . S
C491 C490 1.327 . S
C491 C495 1.429 . S
C492 C475 1.574 . S
C492 H486 0.949 . S
C492 C496 1.368 1_665 S
C493 C474 1.429 . S
C493 C487 1.429 1_445 S
C493 C494 1.523 . S
C494 C475 1.368 1_445 S
C494 C488 1.368 . S
C494 C493 1.523 . S
C495 C479 1.429 1_445 S
C495 C491 1.429 . S
C495 C496 1.523 . S
C496 C480 1.368 . S
C496 C492 1.368 1_445 S
C496 C495 1.523 . S
H497 C472 0.950 . S
H498 C474 0.950 . S
H499 C475 0.949 . S
H500 C477 0.950 . S
H501 C479 0.950 . S
C502 C503 1.349 . S
C502 C504 1.327 . S
C502 H527 0.950 . S
C503 C502 1.349 . S
C503 C519 1.349 . S
C504 C502 1.327 . S
C504 C523 1.429 . S
C504 H528 0.950 . S
C505 C522 1.574 . S
C505 C524 1.368 . S
C505 H529 0.949 . S
H506 C510 0.949 . S
C507 C508 1.349 . S
C507 C509 1.327 . S
C507 H530 0.950 . S
C508 C507 1.349 . S
C508 C520 1.349 . S
C509 C507 1.327 . S
C509 C525 1.429 . S
C509 H531 0.950 . S
C510 H506 0.949 . S
C510 C518 1.574 . S
C510 C526 1.368 . S
H511 C519 0.950 . S
H512 C517 0.950 . S
H513 C518 0.949 . S
H514 C520 0.950 . S
H515 C521 0.950 . S
H516 C522 0.949 . S
C517 H512 0.950 . S
C517 C519 1.327 . S
C517 C523 1.429 . S
C518 C510 1.574 . S
C518 H513 0.949 . S
C518 C524 1.368 . S
C519 C503 1.349 . S
C519 H511 0.950 . S
C519 C517 1.327 . S
C520 C508 1.349 . S
C520 H514 0.950 . S
C520 C521 1.327 . S
C521 H515 0.950 . S
C521 C520 1.327 . S
C521 C525 1.429 . S
C522 C505 1.574 . S
C522 H516 0.949 . S
C522 C526 1.368 . S
C523 C504 1.429 . S
C523 C517 1.429 . S
C523 C524 1.523 . S
C524 C505 1.368 . S
C524 C518 1.368 . S
C524 C523 1.523 . S
C525 C509 1.429 . S
C525 C521 1.429 . S
C525 C526 1.523 . S
C526 C510 1.368 . S
C526 C522 1.368 . S
C526 C525 1.523 . S
H527 C502 0.950 . S
H528 C504 0.950 . S
H529 C505 0.949 . S
H530 C507 0.950 . S
H531 C509 0.950 . S
C532 C533 1.349 . S
C532 C534 1.327 . S
C532 H557 0.950 . S
C533 C532 1.349 . S
C533 C549 1.349 . S
C534 C532 1.327 . S
C534 C553 1.429 . S
C534 H558 0.950 . S
C535 C552 1.574 . S
C535 C554 1.368 . S
C535 H559 0.949 . S
H536 C540 0.949 . S
C537 C538 1.349 . S
C537 C539 1.327 . S
C537 H560 0.950 . S
C538 C537 1.349 . S
C538 C550 1.349 . S
C539 C537 1.327 . S
C539 C555 1.429 . S
C539 H561 0.950 . S
C540 H536 0.949 . S
C540 C548 1.574 . S
C540 C556 1.368 . S
H541 C549 0.950 . S
H542 C547 0.950 . S
H543 C548 0.949 . S
H544 C550 0.950 . S
H545 C551 0.950 . S
H546 C552 0.949 . S
C547 H542 0.950 . S
C547 C549 1.327 . S
C547 C553 1.429 . S
C548 C540 1.574 . S
C548 H543 0.949 . S
C548 C554 1.368 . S
C549 C533 1.349 . S
C549 H541 0.950 . S
C549 C547 1.327 . S
C550 C538 1.349 . S
C550 H544 0.950 . S
C550 C551 1.327 . S
C551 H545 0.950 . S
C551 C550 1.327 . S
C551 C555 1.429 . S
C552 C535 1.574 . S
C552 H546 0.949 . S
C552 C556 1.368 . S
C553 C534 1.429 . S
C553 C547 1.429 . S
C553 C554 1.523 . S
C554 C535 1.368 . S
C554 C548 1.368 . S
C554 C553 1.523 . S
C555 C539 1.429 . S
C555 C551 1.429 . S
C555 C556 1.523 . S
C556 C540 1.368 . S
C556 C552 1.368 . S
C556 C555 1.523 . S
H557 C532 0.950 . S
H558 C534 0.950 . S
H559 C535 0.949 . S
H560 C537 0.950 . S
H561 C539 0.950 . S
C208 C179 1.413 . S
C203 C21 1.416 . S
C233 C19 1.404 1_556 S
C238 C140 1.405 . S
C263 C18 1.369 . S
C268 C184 1.375 . S
C293 C20 1.394 1_556 S
C298 C145 1.392 . S
C323 C44 1.415 . S
C328 C101 1.413 . S
C353 C42 1.404 . S
C358 C62 1.405 . S
C388 C106 1.375 . S
C383 C41 1.369 . S
C418 C67 1.392 . S
C413 C43 1.394 . S
C443 C16 1.489 . S
C448 C47 1.489 1_445 S
C473 C17 1.449 . S
C478 C86 1.449 . S
C508 C125 1.490 . S
C503 C39 1.489 . S
C533 C40 1.449 . S
C538 C164 1.449 . S
