# Generated by pormake.
# Topology rtl, (3,6)-cn, num edge types: 1
# Building blocks:
#     Node 0, Type 0, BuildingBlock: BELTOD_clean_linker_0, # of connection points: 3
#     Node 1, Type 0, BuildingBlock: BELTOD_clean_linker_0, # of connection points: 3
#     Node 2, Type 0, BuildingBlock: BELTOD_clean_linker_0, # of connection points: 3
#     Node 3, Type 0, BuildingBlock: BELTOD_clean_linker_0, # of connection points: 3
#     Node 4, Type 1, BuildingBlock: VOLQOD_clean_sbu_1, # of connection points: 6
#     Node 5, Type 1, BuildingBlock: VOLQOD_clean_sbu_1, # of connection points: 6
#     Edge 6, Type (0, 1), BuildingBlock: KIFKEQ_clean_linker_1, # of connection points: 2
#     Edge 7, Type (0, 1), BuildingBlock: KIFKEQ_clean_linker_1, # of connection points: 2
#     Edge 8, Type (0, 1), BuildingBlock: KIFKEQ_clean_linker_1, # of connection points: 2
#     Edge 9, Type (0, 1), BuildingBlock: KIFKEQ_clean_linker_1, # of connection points: 2
#     Edge 10, Type (0, 1), BuildingBlock: KIFKEQ_clean_linker_1, # of connection points: 2
#     Edge 11, Type (0, 1), BuildingBlock: KIFKEQ_clean_linker_1, # of connection points: 2
#     Edge 12, Type (0, 1), BuildingBlock: KIFKEQ_clean_linker_1, # of connection points: 2
#     Edge 13, Type (0, 1), BuildingBlock: KIFKEQ_clean_linker_1, # of connection points: 2
#     Edge 14, Type (0, 1), BuildingBlock: KIFKEQ_clean_linker_1, # of connection points: 2
#     Edge 15, Type (0, 1), BuildingBlock: KIFKEQ_clean_linker_1, # of connection points: 2
#     Edge 16, Type (0, 1), BuildingBlock: KIFKEQ_clean_linker_1, # of connection points: 2
#     Edge 17, Type (0, 1), BuildingBlock: KIFKEQ_clean_linker_1, # of connection points: 2
# Relax obj value: 0.074
# Max RMSD: 0.154
# Mean RMSD: 0.083
data_MOF--net-rtl--node1-VOLQOD_clean_sbu_1--node2-BELTOD_clean_linker_0--edge1-KIFKEQ_clean_linker_1
_symmetry_space_group_name_H-M    P1
_symmetry_Int_Tables_number       1
_symmetry_cell_setting            triclinic
loop_
_symmetry_equiv_pos_as_xyz
'x, y, z'
_cell_length_a     42.41705
_cell_length_b     37.018667
_cell_length_c     27.208774
_cell_angle_alpha  89.150217
_cell_angle_beta   90.365539
_cell_angle_gamma 90.064186
loop_
_atom_site_label
_atom_site_type_symbol
_atom_site_fract_x
_atom_site_fract_y
_atom_site_fract_z
_atom_type_partial_charge
P0 P 0.16555 0.78075 0.99136 0.0
H1 H 0.18631 0.82517 0.07254 0.0
H2 H 0.16139 0.84291 0.14848 0.0
H3 H 0.08339 0.771 0.11831 0.0
H4 H 0.10829 0.75433 0.04078 0.0
H5 H 0.22658 0.76366 0.9501 0.0
H6 H 0.25888 0.70951 0.95154 0.0
H7 H 0.18665 0.6528 0.03347 0.0
H8 H 0.1545 0.7079 0.03273 0.0
H9 H 0.10644 0.82002 0.97882 0.0
H10 H 0.16122 0.74349 0.89732 0.0
O11 O 0.18953 0.81522 0.9778 0.0
H12 H 0.07291 0.83068 0.90711 0.0
H13 H 0.12766 0.75414 0.8252 0.0
C14 C 0.1488 0.78907 0.05063 0.0
C15 C 0.16396 0.81299 0.08235 0.0
C16 C 0.14976 0.82283 0.12619 0.0
C17 C 0.12022 0.80853 0.13957 0.0
C18 C 0.10587 0.78298 0.10876 0.0
C19 C 0.12013 0.77326 0.06463 0.0
C20 C 0.18846 0.73998 0.99217 0.0
C21 C 0.21767 0.73968 0.96855 0.0
C22 C 0.23598 0.70848 0.9689 0.0
C23 C 0.22531 0.67674 0.99249 0.0
C24 C 0.19566 0.67693 0.01544 0.0
C25 C 0.17727 0.70834 0.01501 0.0
C26 C 0.13598 0.78045 0.94379 0.0
C27 C 0.11048 0.80438 0.94615 0.0
C28 C 0.09126 0.81045 0.90504 0.0
C29 C 0.09766 0.79323 0.86051 0.0
C30 C 0.12222 0.76781 0.85903 0.0
C31 C 0.14132 0.76158 0.90034 0.0
P32 P 0.65903 0.73039 0.51616 0.0
H33 H 0.67937 0.68279 0.43779 0.0
H34 H 0.65285 0.66083 0.36452 0.0
H35 H 0.57437 0.73211 0.39174 0.0
H36 H 0.60093 0.75327 0.46623 0.0
H37 H 0.70408 0.76381 0.58196 0.0
H38 H 0.73587 0.81857 0.57546 0.0
H39 H 0.68774 0.84763 0.4402 0.0
H40 H 0.65578 0.79279 0.44706 0.0
H41 H 0.60659 0.68038 0.52592 0.0
H42 H 0.64758 0.76637 0.61071 0.0
O43 O 0.68711 0.70014 0.52931 0.0
H44 H 0.57179 0.66513 0.59374 0.0
H45 H 0.613 0.75059 0.67938 0.0
C46 C 0.6419 0.71929 0.45765 0.0
C47 C 0.65664 0.69403 0.42774 0.0
C48 C 0.64148 0.68165 0.38558 0.0
C49 C 0.61135 0.69453 0.3724 0.0
C50 C 0.59732 0.72121 0.40132 0.0
C51 C 0.61254 0.73354 0.44361 0.0
C52 C 0.67763 0.77412 0.51502 0.0
C53 C 0.69978 0.78241 0.55156 0.0
C54 C 0.71787 0.81383 0.54789 0.0
C55 C 0.71435 0.83737 0.50722 0.0
C56 C 0.69108 0.82984 0.47176 0.0
C57 C 0.67275 0.79849 0.47575 0.0
C58 C 0.6294 0.72497 0.56273 0.0
C59 C 0.60747 0.69678 0.55851 0.0
C60 C 0.58751 0.68804 0.59739 0.0
C61 C 0.58961 0.70677 0.64176 0.0
C62 C 0.61092 0.73574 0.64551 0.0
C63 C 0.63067 0.74479 0.60621 0.0
P64 P 0.9069 0.3388 0.98904 0.0
H65 H 0.94577 0.34576 0.90056 0.0
H66 H 0.95379 0.30613 0.83064 0.0
H67 H 0.88795 0.22933 0.89336 0.0
H68 H 0.87956 0.26952 0.96248 0.0
H69 H 0.87072 0.37439 0.06498 0.0
H70 H 0.81655 0.39703 0.06757 0.0
H71 H 0.80348 0.3685 0.91541 0.0
H72 H 0.85754 0.34603 0.91297 0.0
H73 H 0.96423 0.31771 0.04146 0.0
H74 H 0.86448 0.29726 0.05347 0.0
O75 O 0.93293 0.37262 0.9879 0.0
H76 H 0.97418 0.27732 0.11162 0.0
H77 H 0.87389 0.25855 0.12514 0.0
C78 C 0.91237 0.3103 0.93688 0.0
C79 C 0.93304 0.32043 0.89917 0.0
C80 C 0.93768 0.29768 0.85932 0.0
C81 C 0.92163 0.26447 0.85653 0.0
C82 C 0.90044 0.25485 0.89408 0.0
C83 C 0.89583 0.27763 0.93385 0.0
C84 C 0.86784 0.35766 0.98925 0.0
C85 C 0.85616 0.37304 0.0322 0.0
C86 C 0.82524 0.38586 0.03368 0.0
C87 C 0.80572 0.38414 0.99184 0.0
C88 C 0.818 0.3702 0.94818 0.0
C89 C 0.84885 0.35709 0.94689 0.0
C90 C 0.9136 0.31133 0.04319 0.0
C91 C 0.94442 0.30513 0.05993 0.0
C92 C 0.95002 0.28212 0.10022 0.0
C93 C 0.92482 0.26483 0.12451 0.0
C94 C 0.89393 0.27108 0.10724 0.0
C95 C 0.88844 0.29373 0.0666 0.0
P96 P 0.40822 0.16188 0.51286 0.0
H97 H 0.43517 0.14825 0.61068 0.0
H98 H 0.44876 0.18816 0.67859 0.0
H99 H 0.4156 0.27988 0.59275 0.0
H100 H 0.40307 0.24022 0.52507 0.0
H101 H 0.375 0.09547 0.4878 0.0
H102 H 0.31922 0.07837 0.48968 0.0
H103 H 0.29602 0.18276 0.54825 0.0
H104 H 0.35169 0.19961 0.54658 0.0
H105 H 0.46239 0.16524 0.44716 0.0
H106 H 0.36908 0.21097 0.45296 0.0
O107 O 0.4309 0.12508 0.51582 0.0
H108 H 0.47341 0.20115 0.37323 0.0
H109 H 0.38031 0.24829 0.38108 0.0
C110 C 0.41875 0.19131 0.56242 0.0
C111 C 0.43117 0.17702 0.6064 0.0
C112 C 0.43867 0.19983 0.64533 0.0
C113 C 0.43353 0.23731 0.64099 0.0
C114 C 0.4206 0.25132 0.59698 0.0
C115 C 0.4133 0.22855 0.55815 0.0
C116 C 0.36755 0.14857 0.51775 0.0
C117 C 0.35796 0.11447 0.50167 0.0
C118 C 0.32612 0.10473 0.50278 0.0
C119 C 0.30334 0.12924 0.51918 0.0
C120 C 0.31306 0.16342 0.53519 0.0
C121 C 0.34492 0.17296 0.53458 0.0
C122 C 0.41478 0.18501 0.45517 0.0
C123 C 0.44415 0.18274 0.43223 0.0
C124 C 0.45053 0.20367 0.39025 0.0
C125 C 0.42781 0.22786 0.37107 0.0
C126 C 0.3982 0.22953 0.39398 0.0
C127 C 0.39174 0.20822 0.43543 0.0
O128 O 0.91511 0.01645 0.49311 0.0
Zn129 Zn 0.9539 0.04852 0.49505 0.0
O130 O 0.99279 0.01965 0.49639 0.0
Zn131 Zn 0.01616 0.02845 0.55693 0.0
Zn132 Zn 0.98221 0.96818 0.49271 0.0
Zn133 Zn 0.01962 0.03336 0.44113 0.0
O134 O 0.05991 0.04716 0.54413 0.0
O135 O 0.06156 0.05304 0.46305 0.0
O136 O 0.95124 0.08009 0.5551 0.0
O137 O 0.99406 0.06495 0.59802 0.0
O138 O 0.02133 0.98286 0.59636 0.0
O139 O 0.99712 0.94049 0.55321 0.0
O140 O 0.00247 0.94507 0.43419 0.0
O141 O 0.95273 0.08126 0.43473 0.0
O142 O 0.02918 0.99032 0.39971 0.0
O143 O 0.99874 0.07122 0.39879 0.0
C144 C 0.91178 0.98243 0.48852 0.0
C145 C 0.07449 0.05609 0.50509 0.0
C146 C 0.01277 0.95022 0.59087 0.0
C147 C 0.96891 0.08341 0.59286 0.0
C148 C 0.02085 0.95727 0.40104 0.0
C149 C 0.97237 0.08755 0.40036 0.0
O150 O 0.93549 0.96144 0.48683 0.0
O151 O 0.56889 0.48848 0.00215 0.0
Zn152 Zn 0.52756 0.51464 0.00659 0.0
O153 O 0.49215 0.48125 0.00894 0.0
Zn154 Zn 0.46569 0.48951 0.9506 0.0
Zn155 Zn 0.5081 0.43168 0.00939 0.0
Zn156 Zn 0.46792 0.48959 0.06891 0.0
O157 O 0.4219 0.50398 0.97034 0.0
O158 O 0.42436 0.50774 0.05174 0.0
O159 O 0.52433 0.54881 0.94948 0.0
O160 O 0.48265 0.53001 0.90733 0.0
O161 O 0.46301 0.44488 0.90955 0.0
O162 O 0.49241 0.40469 0.9502 0.0
O163 O 0.49373 0.40436 0.06961 0.0
O164 O 0.52929 0.54493 0.06638 0.0
O165 O 0.46342 0.44341 0.10869 0.0
O166 O 0.48899 0.5269 0.11224 0.0
C167 C 0.57646 0.45523 0.00417 0.0
C168 C 0.40918 0.51113 0.01136 0.0
C169 C 0.47482 0.41336 0.91379 0.0
C170 C 0.50576 0.55161 0.9128 0.0
C171 C 0.4756 0.41211 0.10505 0.0
C172 C 0.513 0.54701 0.10527 0.0
O173 O 0.55559 0.4306 0.00806 0.0
H174 H 0.27615 0.06678 0.5527 0.0
H175 H 0.25423 0.16972 0.48405 0.0
H176 H 0.22027 0.05038 0.55032 0.0
H177 H 0.19835 0.15342 0.48196 0.0
H178 H 0.10971 0.08854 0.43301 0.0
H179 H 0.16486 0.10716 0.43769 0.0
H180 H 0.16921 0.07105 0.58917 0.0
H181 H 0.11406 0.05242 0.58476 0.0
C182 C 0.25936 0.08585 0.53711 0.0
C183 C 0.26946 0.1195 0.51858 0.0
C184 C 0.22742 0.0766 0.5361 0.0
C185 C 0.20503 0.10066 0.51599 0.0
C186 C 0.21515 0.1343 0.4974 0.0
C187 C 0.24704 0.14371 0.49894 0.0
C188 C 0.12236 0.08471 0.4674 0.0
C189 C 0.10749 0.06895 0.50849 0.0
C190 C 0.15388 0.09553 0.4701 0.0
C191 C 0.17128 0.09044 0.51375 0.0
C192 C 0.1564 0.07497 0.55494 0.0
C193 C 0.12477 0.06453 0.55245 0.0
H194 H 0.26125 0.64975 0.91874 0.0
H195 H 0.23607 0.63051 0.07048 0.0
H196 H 0.30144 0.60338 0.92518 0.0
H197 H 0.27523 0.58236 0.07625 0.0
H198 H 0.38048 0.54749 0.08537 0.0
H199 H 0.33119 0.58077 0.08098 0.0
H200 H 0.31512 0.54189 0.93384 0.0
H201 H 0.36518 0.50979 0.93757 0.0
C202 C 0.26398 0.63517 0.95332 0.0
C203 C 0.24588 0.64431 0.99436 0.0
C204 C 0.28677 0.60812 0.95685 0.0
C205 C 0.29184 0.58922 0.00141 0.0
C206 C 0.27234 0.5968 0.04162 0.0
C207 C 0.24962 0.62411 0.03816 0.0
C208 C 0.36621 0.54558 0.05236 0.0
C209 C 0.377 0.52649 0.01152 0.0
C210 C 0.33775 0.5645 0.04993 0.0
C211 C 0.31927 0.56442 0.0068 0.0
C212 C 0.3291 0.54327 0.9672 0.0
C213 C 0.35775 0.52472 0.96941 0.0
H214 H 0.74515 0.85485 0.42263 0.0
H215 H 0.7364 0.88596 0.57431 0.0
H216 H 0.78988 0.89576 0.41303 0.0
H217 H 0.78153 0.92663 0.56476 0.0
H218 H 0.85583 0.01151 0.5191 0.0
H219 H 0.80382 0.98244 0.51904 0.0
H220 H 0.84402 0.88847 0.45138 0.0
H221 H 0.89564 0.91708 0.45166 0.0
C222 C 0.75223 0.87115 0.45355 0.0
C223 C 0.73742 0.86701 0.49934 0.0
C224 C 0.77801 0.89432 0.44814 0.0
C225 C 0.78935 0.91403 0.48829 0.0
C226 C 0.7732 0.91185 0.53316 0.0
C227 C 0.74755 0.8884 0.53871 0.0
C228 C 0.85342 0.98481 0.50376 0.0
C229 C 0.87985 0.96649 0.48565 0.0
C230 C 0.82372 0.96819 0.50388 0.0
C231 C 0.81991 0.93331 0.48501 0.0
C232 C 0.84617 0.91556 0.46557 0.0
C233 C 0.8758 0.93185 0.46613 0.0
H234 H 0.77316 0.42607 0.92538 0.0
H235 H 0.76299 0.36811 0.06332 0.0
H236 H 0.71757 0.44339 0.92813 0.0
H237 H 0.7076 0.38581 0.06639 0.0
H238 H 0.60259 0.3887 0.02171 0.0
H239 H 0.65821 0.3722 0.01878 0.0
H240 H 0.68226 0.48217 0.97928 0.0
H241 H 0.62667 0.49881 0.98199 0.0
C242 C 0.75903 0.41709 0.95626 0.0
C243 C 0.77236 0.39578 0.99415 0.0
C244 C 0.72733 0.4272 0.95802 0.0
C245 C 0.7083 0.41587 0.99743 0.0
C246 C 0.72166 0.39465 0.03537 0.0
C247 C 0.75341 0.38484 0.03384 0.0
C248 C 0.6197 0.40938 0.01233 0.0
C249 C 0.61017 0.44508 0.00212 0.0
C250 C 0.65156 0.39995 0.01094 0.0
C251 C 0.67452 0.42593 -0.00112 0.0
C252 C 0.66502 0.46154 0.9883 0.0
C253 C 0.6332 0.47107 0.99013 0.0
H254 H 0.14588 0.82629 0.22876 0.0
H255 H 0.05721 0.82321 0.14957 0.0
H256 H 0.12064 0.8595 0.29448 0.0
H257 H 0.03188 0.85517 0.21652 0.0
H258 H 0.9976 0.89151 0.373 0.0
H259 H 0.02043 0.85022 0.31316 0.0
H260 H 0.09684 0.9252 0.28818 0.0
H261 H 0.07401 0.96661 0.34693 0.0
C262 C 0.12096 0.83227 0.22557 0.0
C263 C 0.10374 0.8226 0.1834 0.0
C264 C 0.10654 0.85112 0.26331 0.0
C265 C 0.07447 0.86014 0.26013 0.0
C266 C 0.05664 0.84836 0.21981 0.0
C267 C 0.07118 0.82992 0.18162 0.0
C268 C 0.01925 0.89914 0.35464 0.0
C269 C 0.03398 0.93234 0.36453 0.0
C270 C 0.03222 0.87557 0.32048 0.0
C271 C 0.06047 0.8845 0.29657 0.0
C272 C 0.07522 0.91755 0.30663 0.0
C273 C 0.062 0.94135 0.33994 0.0
H274 H 0.5276 0.68659 0.64818 0.0
H275 H 0.61357 0.69426 0.73314 0.0
H276 H 0.5023 0.65458 0.71655 0.0
H277 H 0.58897 0.6615 0.80054 0.0
H278 H 0.53679 0.61501 0.92606 0.0
H279 H 0.5518 0.65946 0.86379 0.0
H280 H 0.50519 0.59597 0.75261 0.0
H281 H 0.48887 0.55244 0.8156 0.0
C282 C 0.54092 0.68179 0.68175 0.0
C283 C 0.57252 0.69288 0.68541 0.0
C284 C 0.52654 0.66326 0.72077 0.0
C285 C 0.54362 0.6551 0.76401 0.0
C286 C 0.57482 0.66775 0.76828 0.0
C287 C 0.58902 0.68657 0.72955 0.0
C288 C 0.52944 0.61081 0.88836 0.0
C289 C 0.51201 0.58004 0.87552 0.0
C290 C 0.53816 0.63622 0.8526 0.0
C291 C 0.53018 0.63112 0.80295 0.0
C292 C 0.5115 0.60108 0.79049 0.0
C293 C 0.5023 0.57594 0.82652 0.0
H294 H 0.96914 0.27133 0.19782 0.0
H295 H 0.8941 0.20153 0.14753 0.0
H296 H 0.98012 0.22916 0.26549 0.0
H297 H 0.90448 0.16024 0.21633 0.0
H298 H 0.91453 0.11593 0.37641 0.0
H299 H 0.90223 0.15988 0.311 0.0
H300 H 0.00055 0.16418 0.27138 0.0
H301 H 0.01293 0.12024 0.33625 0.0
C302 C 0.95502 0.24703 0.20101 0.0
C303 C 0.93079 0.23986 0.16695 0.0
C304 C 0.96124 0.223 0.23994 0.0
C305 C 0.94312 0.19151 0.24608 0.0
C306 C 0.91854 0.18457 0.21275 0.0
C307 C 0.91257 0.20835 0.17343 0.0
C308 C 0.93352 0.12633 0.35382 0.0
C309 C 0.96469 0.11454 0.36145 0.0
C310 C 0.92644 0.15133 0.31631 0.0
C311 C 0.95047 0.16541 0.28629 0.0
C312 C 0.98164 0.15398 0.2943 0.0
C313 C 0.98865 0.12865 0.33125 0.0
H314 H 0.42462 0.22555 0.73978 0.0
H315 H 0.45988 0.30469 0.63537 0.0
H316 H 0.43513 0.26728 0.80667 0.0
H317 H 0.46974 0.34645 0.70207 0.0
H318 H 0.44574 0.42482 0.82503 0.0
H319 H 0.43658 0.38132 0.7602 0.0
H320 H 0.48062 0.29785 0.84929 0.0
H321 H 0.48974 0.34132 0.91455 0.0
C322 C 0.43491 0.25164 0.73111 0.0
C323 C 0.4412 0.26185 0.68214 0.0
C324 C 0.44085 0.27555 0.76942 0.0
C325 C 0.45299 0.3102 0.75949 0.0
C326 C 0.45982 0.32015 0.7107 0.0
C327 C 0.45411 0.29622 0.67251 0.0
C328 C 0.45341 0.39719 0.83098 0.0
C329 C 0.46854 0.3866 0.87499 0.0
C330 C 0.44833 0.37234 0.79367 0.0
C331 C 0.45804 0.33626 0.79962 0.0
C332 C 0.47273 0.32545 0.84385 0.0
C333 C 0.47806 0.3504 0.88109 0.0
H334 H 0.635 0.67549 0.28319 0.0
H335 H 0.54873 0.67668 0.36676 0.0
H336 H 0.60843 0.64256 0.21847 0.0
H337 H 0.52155 0.64546 0.30053 0.0
H338 H 0.49859 0.54652 0.20338 0.0
H339 H 0.52001 0.58609 0.26641 0.0
H340 H 0.57042 0.64656 0.15468 0.0
H341 H 0.55005 0.6063 0.09234 0.0
C342 C 0.61024 0.66908 0.2875 0.0
C343 C 0.59409 0.67847 0.33035 0.0
C344 C 0.59485 0.65057 0.25005 0.0
C345 C 0.5628 0.64126 0.25426 0.0
C346 C 0.54633 0.65178 0.29637 0.0
C347 C 0.56182 0.67014 0.33404 0.0
C348 C 0.51401 0.56849 0.19236 0.0
C349 C 0.523 0.57297 0.14307 0.0
C350 C 0.52618 0.59131 0.22841 0.0
C351 C 0.54726 0.6193 0.2157 0.0
C352 C 0.5549 0.62476 0.16597 0.0
C353 C 0.54309 0.60175 0.13018 0.0
H354 H 0.97827 0.24823 0.8151 0.0
H355 H 0.87881 0.22378 0.80548 0.0
H356 H 0.98873 0.20558 0.74996 0.0
H357 H 0.88947 0.17996 0.7415 0.0
H358 H 0.91889 0.13045 0.59395 0.0
H359 H 0.90697 0.17533 0.65605 0.0
H360 H 0.98819 0.14049 0.74071 0.0
H361 H 0.00046 0.09629 0.67862 0.0
C362 C 0.9586 0.23393 0.79885 0.0
C363 C 0.92771 0.23939 0.81554 0.0
C364 C 0.96465 0.20914 0.76192 0.0
C365 C 0.93996 0.18915 0.74082 0.0
C366 C 0.90898 0.19508 0.7568 0.0
C367 C 0.90292 0.2199 0.79381 0.0
C368 C 0.93416 0.13233 0.62587 0.0
C369 C 0.9607 0.10982 0.63114 0.0
C370 C 0.92725 0.15795 0.66153 0.0
C371 C 0.94676 0.16164 0.70314 0.0
C372 C 0.97302 0.13881 0.70865 0.0
C373 C 0.97992 0.11326 0.67313 0.0
H374 H 0.48418 0.2612 0.35058 0.0
H375 H 0.38854 0.251 0.29624 0.0
H376 H 0.49572 0.30402 0.28425 0.0
H377 H 0.39997 0.29519 0.23135 0.0
H378 H 0.42642 0.41026 0.16946 0.0
H379 H 0.41491 0.3638 0.23161 0.0
H380 H 0.49748 0.30444 0.18833 0.0
H381 H 0.50889 0.35056 0.12571 0.0
C382 C 0.4657 0.26762 0.32426 0.0
C383 C 0.43536 0.25254 0.329 0.0
C384 C 0.47233 0.29236 0.28645 0.0
C385 C 0.44867 0.30299 0.25299 0.0
C386 C 0.4185 0.28772 0.25714 0.0
C387 C 0.41197 0.26254 0.29446 0.0
C388 C 0.4421 0.3873 0.17316 0.0
C389 C 0.46857 0.38408 0.14271 0.0
C390 C 0.43539 0.36064 0.20848 0.0
C391 C 0.45531 0.33061 0.21459 0.0
C392 C 0.48185 0.32745 0.18442 0.0
C393 C 0.48827 0.35377 0.14852 0.0
H394 H 0.03484 0.80712 0.84395 0.0
H395 H 0.12601 0.81035 0.77407 0.0
H396 H 0.01209 0.84069 0.77381 0.0
H397 H 0.10328 0.84364 0.70457 0.0
H398 H 0.06187 0.95552 0.65467 0.0
H399 H 0.08027 0.91075 0.71453 0.0
H400 H 0.00534 0.83856 0.67187 0.0
H401 H 0.98696 0.88341 0.61052 0.0
C402 C 0.04979 0.8142 0.81314 0.0
C403 C 0.08221 0.80627 0.81457 0.0
C404 C 0.03676 0.83318 0.77305 0.0
C405 C 0.05608 0.84486 0.73426 0.0
C406 C 0.08799 0.83494 0.73425 0.0
C407 C 0.1009 0.81567 0.77387 0.0
C408 C 0.0492 0.93018 0.65794 0.0
C409 C 0.02294 0.92298 0.6279 0.0
C410 C 0.0599 0.90448 0.69196 0.0
C411 C 0.04433 0.87123 0.69732 0.0
C412 C 0.01772 0.86405 0.6681 0.0
C413 C 0.00731 0.88961 0.63313 0.0
loop_
_geom_bond_atom_site_label_1
_geom_bond_atom_site_label_2
_geom_bond_distance
_geom_bond_site_symmetry_2
_ccdc_geom_bond_type
P0 O11 1.490 . S
P0 C14 1.812 . S
P0 C20 1.803 . S
P0 C26 1.819 1_554 S
H1 C15 0.941 . S
H2 C16 0.939 . S
H3 C18 0.940 . S
H4 C19 0.940 . S
H5 C21 0.939 . S
H6 C22 0.942 . S
H7 C24 0.940 . S
H8 C25 0.939 . S
H9 C27 0.941 . S
H10 C31 0.939 . S
O11 P0 1.490 . S
H12 C28 0.939 . S
H13 C30 0.940 . S
C14 P0 1.812 . S
C14 C15 1.389 . S
C14 C19 1.391 . S
C15 H1 0.941 . S
C15 C14 1.389 . S
C15 C16 1.397 . S
C16 H2 0.939 . S
C16 C15 1.397 . S
C16 C17 1.378 . S
C17 C16 1.378 . S
C17 C18 1.378 . S
C18 H3 0.940 . S
C18 C17 1.378 . S
C18 C19 1.396 . S
C19 H4 0.940 . S
C19 C14 1.391 . S
C19 C18 1.396 . S
C20 P0 1.803 . S
C20 C21 1.378 1_554 S
C20 C25 1.400 . S
C21 H5 0.939 . S
C21 C20 1.378 1_556 S
C21 C22 1.361 . S
C22 H6 0.942 . S
C22 C21 1.361 . S
C22 C23 1.369 1_556 S
C23 C22 1.369 1_554 S
C23 C24 1.404 . S
C24 H7 0.940 . S
C24 C23 1.404 . S
C24 C25 1.389 . S
C25 H8 0.939 . S
C25 C20 1.400 . S
C25 C24 1.389 . S
C26 P0 1.819 1_556 S
C26 C27 1.391 . S
C26 C31 1.391 . S
C27 H9 0.941 . S
C27 C26 1.391 . S
C27 C28 1.396 . S
C28 H12 0.939 . S
C28 C27 1.396 . S
C28 C29 1.397 . S
C29 C28 1.397 . S
C29 C30 1.385 . S
C30 H13 0.940 . S
C30 C29 1.385 . S
C30 C31 1.388 . S
C31 H10 0.939 . S
C31 C26 1.391 . S
C31 C30 1.388 . S
P32 O43 1.490 . S
P32 C46 1.812 . S
P32 C52 1.803 . S
P32 C58 1.819 . S
H33 C47 0.941 . S
H34 C48 0.939 . S
H35 C50 0.940 . S
H36 C51 0.940 . S
H37 C53 0.939 . S
H38 C54 0.942 . S
H39 C56 0.940 . S
H40 C57 0.939 . S
H41 C59 0.941 . S
H42 C63 0.939 . S
O43 P32 1.490 . S
H44 C60 0.939 . S
H45 C62 0.940 . S
C46 P32 1.812 . S
C46 C47 1.389 . S
C46 C51 1.391 . S
C47 H33 0.941 . S
C47 C46 1.389 . S
C47 C48 1.397 . S
C48 H34 0.939 . S
C48 C47 1.397 . S
C48 C49 1.378 . S
C49 C48 1.378 . S
C49 C50 1.378 . S
C50 H35 0.940 . S
C50 C49 1.378 . S
C50 C51 1.396 . S
C51 H36 0.940 . S
C51 C46 1.391 . S
C51 C50 1.396 . S
C52 P32 1.803 . S
C52 C53 1.378 . S
C52 C57 1.400 . S
C53 H37 0.939 . S
C53 C52 1.378 . S
C53 C54 1.361 . S
C54 H38 0.942 . S
C54 C53 1.361 . S
C54 C55 1.369 . S
C55 C54 1.369 . S
C55 C56 1.404 . S
C56 H39 0.940 . S
C56 C55 1.404 . S
C56 C57 1.389 . S
C57 H40 0.939 . S
C57 C52 1.400 . S
C57 C56 1.389 . S
C58 P32 1.819 . S
C58 C59 1.391 . S
C58 C63 1.391 . S
C59 H41 0.941 . S
C59 C58 1.391 . S
C59 C60 1.396 . S
C60 H44 0.939 . S
C60 C59 1.396 . S
C60 C61 1.397 . S
C61 C60 1.397 . S
C61 C62 1.385 . S
C62 H45 0.940 . S
C62 C61 1.385 . S
C62 C63 1.388 . S
C63 H42 0.939 . S
C63 C58 1.391 . S
C63 C62 1.388 . S
P64 O75 1.490 . S
P64 C78 1.812 . S
P64 C84 1.803 . S
P64 C90 1.819 1_556 S
H65 C79 0.941 . S
H66 C80 0.939 . S
H67 C82 0.940 . S
H68 C83 0.940 . S
H69 C85 0.939 . S
H70 C86 0.942 . S
H71 C88 0.940 . S
H72 C89 0.939 . S
H73 C91 0.941 . S
H74 C95 0.939 . S
O75 P64 1.490 . S
H76 C92 0.939 . S
H77 C94 0.940 . S
C78 P64 1.812 . S
C78 C79 1.389 . S
C78 C83 1.391 . S
C79 H65 0.941 . S
C79 C78 1.389 . S
C79 C80 1.397 . S
C80 H66 0.939 . S
C80 C79 1.397 . S
C80 C81 1.378 . S
C81 C80 1.378 . S
C81 C82 1.378 . S
C82 H67 0.940 . S
C82 C81 1.378 . S
C82 C83 1.396 . S
C83 H68 0.940 . S
C83 C78 1.391 . S
C83 C82 1.396 . S
C84 P64 1.803 . S
C84 C85 1.378 1_556 S
C84 C89 1.400 . S
C85 H69 0.939 . S
C85 C84 1.378 1_554 S
C85 C86 1.361 . S
C86 H70 0.942 . S
C86 C85 1.361 . S
C86 C87 1.369 . S
C87 C86 1.369 . S
C87 C88 1.404 1_554 S
C88 H71 0.940 . S
C88 C87 1.404 1_556 S
C88 C89 1.389 . S
C89 H72 0.939 . S
C89 C84 1.400 . S
C89 C88 1.389 . S
C90 P64 1.819 1_554 S
C90 C91 1.391 . S
C90 C95 1.391 . S
C91 H73 0.941 . S
C91 C90 1.391 . S
C91 C92 1.396 . S
C92 H76 0.939 . S
C92 C91 1.396 . S
C92 C93 1.397 . S
C93 C92 1.397 . S
C93 C94 1.385 . S
C94 H77 0.940 . S
C94 C93 1.385 . S
C94 C95 1.388 . S
C95 H74 0.939 . S
C95 C90 1.391 . S
C95 C94 1.388 . S
P96 O107 1.490 . S
P96 C110 1.812 . S
P96 C116 1.803 . S
P96 C122 1.819 . S
H97 C111 0.941 . S
H98 C112 0.939 . S
H99 C114 0.940 . S
H100 C115 0.940 . S
H101 C117 0.939 . S
H102 C118 0.942 . S
H103 C120 0.940 . S
H104 C121 0.939 . S
H105 C123 0.941 . S
H106 C127 0.939 . S
O107 P96 1.490 . S
H108 C124 0.939 . S
H109 C126 0.940 . S
C110 P96 1.812 . S
C110 C111 1.389 . S
C110 C115 1.391 . S
C111 H97 0.941 . S
C111 C110 1.389 . S
C111 C112 1.397 . S
C112 H98 0.939 . S
C112 C111 1.397 . S
C112 C113 1.378 . S
C113 C112 1.378 . S
C113 C114 1.378 . S
C114 H99 0.940 . S
C114 C113 1.378 . S
C114 C115 1.396 . S
C115 H100 0.940 . S
C115 C110 1.391 . S
C115 C114 1.396 . S
C116 P96 1.803 . S
C116 C117 1.378 . S
C116 C121 1.400 . S
C117 H101 0.939 . S
C117 C116 1.378 . S
C117 C118 1.361 . S
C118 H102 0.942 . S
C118 C117 1.361 . S
C118 C119 1.369 . S
C119 C118 1.369 . S
C119 C120 1.404 . S
C120 H103 0.940 . S
C120 C119 1.404 . S
C120 C121 1.389 . S
C121 H104 0.939 . S
C121 C116 1.400 . S
C121 C120 1.389 . S
C122 P96 1.819 . S
C122 C123 1.391 . S
C122 C127 1.391 . S
C123 H105 0.941 . S
C123 C122 1.391 . S
C123 C124 1.396 . S
C124 H108 0.939 . S
C124 C123 1.396 . S
C124 C125 1.397 . S
C125 C124 1.397 . S
C125 C126 1.385 . S
C126 H109 0.940 . S
C126 C125 1.385 . S
C126 C127 1.388 . S
C127 H106 0.939 . S
C127 C122 1.391 . S
C127 C126 1.388 . S
O128 Zn129 1.953 1_565 S
O128 C144 1.225 . S
Zn129 O128 1.953 1_545 S
Zn129 O130 1.949 1_655 S
Zn129 O136 1.919 . S
Zn129 O141 1.924 . S
O130 Zn129 1.949 1_455 S
O130 Zn131 1.923 . S
O130 Zn132 1.950 1_445 S
O130 Zn133 1.945 . S
Zn131 O130 1.923 . S
Zn131 O134 1.933 . S
Zn131 O137 1.941 . S
Zn131 O138 1.965 1_545 S
Zn132 O130 1.950 1_665 S
Zn132 O139 1.938 1_655 S
Zn132 O140 1.906 1_655 S
Zn132 O150 1.953 . S
Zn133 O130 1.945 . S
Zn133 O135 1.932 . S
Zn133 O142 1.977 1_545 S
Zn133 O143 1.910 1_455 S
O134 Zn131 1.933 . S
O134 C145 1.226 . S
O135 Zn133 1.932 . S
O135 C145 1.307 . S
O136 Zn129 1.919 . S
O136 C147 1.253 . S
O137 Zn131 1.941 . S
O137 C147 1.283 1_455 S
O138 Zn131 1.965 1_565 S
O138 C146 1.303 . S
O139 Zn132 1.938 1_455 S
O139 C146 1.247 . S
O140 Zn132 1.906 1_455 S
O140 C148 1.304 . S
O141 Zn129 1.924 . S
O141 C149 1.311 . S
O142 Zn133 1.977 1_565 S
O142 C148 1.272 . S
O143 Zn133 1.910 1_655 S
O143 C149 1.231 . S
C144 O128 1.225 . S
C144 O150 1.298 . S
C145 O134 1.226 . S
C145 O135 1.307 . S
C146 O138 1.303 . S
C146 O139 1.247 . S
C147 O136 1.253 . S
C147 O137 1.283 1_655 S
C148 O140 1.304 . S
C148 O142 1.272 . S
C149 O141 1.311 . S
C149 O143 1.231 . S
O150 Zn132 1.953 . S
O150 C144 1.298 . S
O151 Zn152 1.953 . S
O151 C167 1.225 1_556 S
Zn152 O151 1.953 . S
Zn152 O153 1.949 1_556 S
Zn152 O159 1.919 . S
Zn152 O164 1.924 1_556 S
O153 Zn152 1.949 1_554 S
O153 Zn154 1.923 1_554 S
O153 Zn155 1.950 . S
O153 Zn156 1.945 . S
Zn154 O153 1.923 1_556 S
Zn154 O157 1.933 . S
Zn154 O160 1.941 . S
Zn154 O161 1.965 . S
Zn155 O153 1.950 . S
Zn155 O162 1.938 1_554 S
Zn155 O163 1.906 . S
Zn155 O173 1.953 . S
Zn156 O153 1.945 . S
Zn156 O158 1.932 . S
Zn156 O165 1.977 . S
Zn156 O166 1.910 . S
O157 Zn154 1.933 . S
O157 C168 1.226 1_556 S
O158 Zn156 1.932 . S
O158 C168 1.307 . S
O159 Zn152 1.919 . S
O159 C170 1.253 . S
O160 Zn154 1.941 . S
O160 C170 1.283 . S
O161 Zn154 1.965 . S
O161 C169 1.303 . S
O162 Zn155 1.938 1_556 S
O162 C169 1.247 . S
O163 Zn155 1.906 . S
O163 C171 1.304 . S
O164 Zn152 1.924 1_554 S
O164 C172 1.311 . S
O165 Zn156 1.977 . S
O165 C171 1.272 . S
O166 Zn156 1.910 . S
O166 C172 1.231 . S
C167 O151 1.225 1_554 S
C167 O173 1.298 . S
C168 O157 1.226 1_554 S
C168 O158 1.307 . S
C169 O161 1.303 . S
C169 O162 1.247 . S
C170 O159 1.253 . S
C170 O160 1.283 . S
C171 O163 1.304 . S
C171 O165 1.272 . S
C172 O164 1.311 . S
C172 O166 1.231 . S
O173 Zn155 1.953 . S
O173 C167 1.298 . S
H174 C182 0.950 . S
H175 C187 0.950 . S
H176 C184 0.950 . S
H177 C186 0.950 . S
H178 C188 0.950 . S
H179 C190 0.950 . S
H180 C192 0.950 . S
H181 C193 0.950 . S
C182 H174 0.950 . S
C182 C183 1.386 . S
C182 C184 1.391 . S
C183 C182 1.386 . S
C183 C187 1.393 . S
C184 H176 0.950 . S
C184 C182 1.391 . S
C184 C185 1.400 . S
C185 C184 1.400 . S
C185 C186 1.398 . S
C185 C191 1.491 . S
C186 H177 0.950 . S
C186 C185 1.398 . S
C186 C187 1.391 . S
C187 H175 0.950 . S
C187 C183 1.393 . S
C187 C186 1.391 . S
C188 H178 0.950 . S
C188 C189 1.386 . S
C188 C190 1.391 . S
C189 C188 1.386 . S
C189 C193 1.393 . S
C190 H179 0.950 . S
C190 C188 1.391 . S
C190 C191 1.400 . S
C191 C185 1.491 . S
C191 C190 1.400 . S
C191 C192 1.398 . S
C192 H180 0.950 . S
C192 C191 1.398 . S
C192 C193 1.391 . S
C193 H181 0.950 . S
C193 C189 1.393 . S
C193 C192 1.391 . S
H194 C202 0.950 . S
H195 C207 0.950 . S
H196 C204 0.950 . S
H197 C206 0.950 . S
H198 C208 0.950 . S
H199 C210 0.950 . S
H200 C212 0.950 . S
H201 C213 0.950 . S
C202 H194 0.950 . S
C202 C203 1.386 1_556 S
C202 C204 1.391 . S
C203 C202 1.386 1_554 S
C203 C207 1.393 . S
C204 H196 0.950 . S
C204 C202 1.391 . S
C204 C205 1.400 1_556 S
C205 C204 1.400 1_554 S
C205 C206 1.398 . S
C205 C211 1.491 . S
C206 H197 0.950 . S
C206 C205 1.398 . S
C206 C207 1.391 . S
C207 H195 0.950 . S
C207 C203 1.393 . S
C207 C206 1.391 . S
C208 H198 0.950 . S
C208 C209 1.386 . S
C208 C210 1.391 . S
C209 C208 1.386 . S
C209 C213 1.393 1_554 S
C210 H199 0.950 . S
C210 C208 1.391 . S
C210 C211 1.400 . S
C211 C205 1.491 . S
C211 C210 1.400 . S
C211 C212 1.398 1_554 S
C212 H200 0.950 . S
C212 C211 1.398 1_556 S
C212 C213 1.391 . S
C213 H201 0.950 . S
C213 C209 1.393 1_556 S
C213 C212 1.391 . S
H214 C222 0.950 . S
H215 C227 0.950 . S
H216 C224 0.950 . S
H217 C226 0.950 . S
H218 C228 0.950 . S
H219 C230 0.950 . S
H220 C232 0.950 . S
H221 C233 0.950 . S
C222 H214 0.950 . S
C222 C223 1.386 . S
C222 C224 1.391 . S
C223 C222 1.386 . S
C223 C227 1.393 . S
C224 H216 0.950 . S
C224 C222 1.391 . S
C224 C225 1.400 . S
C225 C224 1.400 . S
C225 C226 1.398 . S
C225 C231 1.491 . S
C226 H217 0.950 . S
C226 C225 1.398 . S
C226 C227 1.391 . S
C227 H215 0.950 . S
C227 C223 1.393 . S
C227 C226 1.391 . S
C228 H218 0.950 . S
C228 C229 1.386 . S
C228 C230 1.391 . S
C229 C228 1.386 . S
C229 C233 1.393 . S
C230 H219 0.950 . S
C230 C228 1.391 . S
C230 C231 1.400 . S
C231 C225 1.491 . S
C231 C230 1.400 . S
C231 C232 1.398 . S
C232 H220 0.950 . S
C232 C231 1.398 . S
C232 C233 1.391 . S
C233 H221 0.950 . S
C233 C229 1.393 . S
C233 C232 1.391 . S
H234 C242 0.950 . S
H235 C247 0.950 . S
H236 C244 0.950 . S
H237 C246 0.950 . S
H238 C248 0.950 . S
H239 C250 0.950 . S
H240 C252 0.950 . S
H241 C253 0.950 . S
C242 H234 0.950 . S
C242 C243 1.386 1_556 S
C242 C244 1.391 . S
C243 C242 1.386 1_554 S
C243 C247 1.393 . S
C244 H236 0.950 . S
C244 C242 1.391 . S
C244 C245 1.400 1_556 S
C245 C244 1.400 1_554 S
C245 C246 1.398 . S
C245 C251 1.491 . S
C246 H237 0.950 . S
C246 C245 1.398 . S
C246 C247 1.391 . S
C247 H235 0.950 . S
C247 C243 1.393 . S
C247 C246 1.391 . S
C248 H238 0.950 . S
C248 C249 1.386 . S
C248 C250 1.391 . S
C249 C248 1.386 . S
C249 C253 1.393 1_554 S
C250 H239 0.950 . S
C250 C248 1.391 . S
C250 C251 1.400 . S
C251 C245 1.491 . S
C251 C250 1.400 . S
C251 C252 1.398 1_554 S
C252 H240 0.950 . S
C252 C251 1.398 1_556 S
C252 C253 1.391 . S
C253 H241 0.950 . S
C253 C249 1.393 1_556 S
C253 C252 1.391 . S
H254 C262 0.950 . S
H255 C267 0.950 . S
H256 C264 0.950 . S
H257 C266 0.950 . S
H258 C268 0.950 . S
H259 C270 0.950 . S
H260 C272 0.950 . S
H261 C273 0.950 . S
C262 H254 0.950 . S
C262 C263 1.386 . S
C262 C264 1.391 . S
C263 C262 1.386 . S
C263 C267 1.393 . S
C264 H256 0.950 . S
C264 C262 1.391 . S
C264 C265 1.400 . S
C265 C264 1.400 . S
C265 C266 1.398 . S
C265 C271 1.491 . S
C266 H257 0.950 . S
C266 C265 1.398 . S
C266 C267 1.391 . S
C267 H255 0.950 . S
C267 C263 1.393 . S
C267 C266 1.391 . S
C268 H258 0.950 . S
C268 C269 1.386 . S
C268 C270 1.391 . S
C269 C268 1.386 . S
C269 C273 1.393 . S
C270 H259 0.950 . S
C270 C268 1.391 . S
C270 C271 1.400 . S
C271 C265 1.491 . S
C271 C270 1.400 . S
C271 C272 1.398 . S
C272 H260 0.950 . S
C272 C271 1.398 . S
C272 C273 1.391 . S
C273 H261 0.950 . S
C273 C269 1.393 . S
C273 C272 1.391 . S
H274 C282 0.950 . S
H275 C287 0.950 . S
H276 C284 0.950 . S
H277 C286 0.950 . S
H278 C288 0.950 . S
H279 C290 0.950 . S
H280 C292 0.950 . S
H281 C293 0.950 . S
C282 H274 0.950 . S
C282 C283 1.386 . S
C282 C284 1.391 . S
C283 C282 1.386 . S
C283 C287 1.393 . S
C284 H276 0.950 . S
C284 C282 1.391 . S
C284 C285 1.400 . S
C285 C284 1.400 . S
C285 C286 1.398 . S
C285 C291 1.491 . S
C286 H277 0.950 . S
C286 C285 1.398 . S
C286 C287 1.391 . S
C287 H275 0.950 . S
C287 C283 1.393 . S
C287 C286 1.391 . S
C288 H278 0.950 . S
C288 C289 1.386 . S
C288 C290 1.391 . S
C289 C288 1.386 . S
C289 C293 1.393 . S
C290 H279 0.950 . S
C290 C288 1.391 . S
C290 C291 1.400 . S
C291 C285 1.491 . S
C291 C290 1.400 . S
C291 C292 1.398 . S
C292 H280 0.950 . S
C292 C291 1.398 . S
C292 C293 1.391 . S
C293 H281 0.950 . S
C293 C289 1.393 . S
C293 C292 1.391 . S
H294 C302 0.950 . S
H295 C307 0.950 . S
H296 C304 0.950 . S
H297 C306 0.950 . S
H298 C308 0.950 . S
H299 C310 0.950 . S
H300 C312 0.950 . S
H301 C313 0.962 . S
C302 H294 0.950 . S
C302 C303 1.386 . S
C302 C304 1.391 . S
C303 C302 1.386 . S
C303 C307 1.393 . S
C304 H296 0.950 . S
C304 C302 1.391 . S
C304 C305 1.400 . S
C305 C304 1.400 . S
C305 C306 1.398 . S
C305 C311 1.491 . S
C306 H297 0.950 . S
C306 C305 1.398 . S
C306 C307 1.391 . S
C307 H295 0.950 . S
C307 C303 1.393 . S
C307 C306 1.391 . S
C308 H298 0.950 . S
C308 C309 1.386 . S
C308 C310 1.391 . S
C309 C308 1.386 . S
C309 C313 1.393 . S
C310 H299 0.950 . S
C310 C308 1.391 . S
C310 C311 1.400 . S
C311 C305 1.491 . S
C311 C310 1.400 . S
C311 C312 1.398 . S
C312 H300 0.950 . S
C312 C311 1.398 . S
C312 C313 1.391 . S
C313 H301 0.962 . S
C313 C309 1.393 . S
C313 C312 1.391 . S
H314 C322 0.950 . S
H315 C327 0.950 . S
H316 C324 0.950 . S
H317 C326 0.950 . S
H318 C328 0.950 . S
H319 C330 0.950 . S
H320 C332 0.950 . S
H321 C333 0.950 . S
C322 H314 0.950 . S
C322 C323 1.386 . S
C322 C324 1.391 . S
C323 C322 1.386 . S
C323 C327 1.393 . S
C324 H316 0.950 . S
C324 C322 1.391 . S
C324 C325 1.400 . S
C325 C324 1.400 . S
C325 C326 1.398 . S
C325 C331 1.491 . S
C326 H317 0.950 . S
C326 C325 1.398 . S
C326 C327 1.391 . S
C327 H315 0.950 . S
C327 C323 1.393 . S
C327 C326 1.391 . S
C328 H318 0.950 . S
C328 C329 1.386 . S
C328 C330 1.391 . S
C329 C328 1.386 . S
C329 C333 1.393 . S
C330 H319 0.950 . S
C330 C328 1.391 . S
C330 C331 1.400 . S
C331 C325 1.491 . S
C331 C330 1.400 . S
C331 C332 1.398 . S
C332 H320 0.950 . S
C332 C331 1.398 . S
C332 C333 1.391 . S
C333 H321 0.950 . S
C333 C329 1.393 . S
C333 C332 1.391 . S
H334 C342 0.950 . S
H335 C347 0.950 . S
H336 C344 0.950 . S
H337 C346 0.950 . S
H338 C348 0.950 . S
H339 C350 0.950 . S
H340 C352 0.950 . S
H341 C353 0.950 . S
C342 H334 0.950 . S
C342 C343 1.386 . S
C342 C344 1.391 . S
C343 C342 1.386 . S
C343 C347 1.393 . S
C344 H336 0.950 . S
C344 C342 1.391 . S
C344 C345 1.400 . S
C345 C344 1.400 . S
C345 C346 1.398 . S
C345 C351 1.491 . S
C346 H337 0.950 . S
C346 C345 1.398 . S
C346 C347 1.391 . S
C347 H335 0.950 . S
C347 C343 1.393 . S
C347 C346 1.391 . S
C348 H338 0.950 . S
C348 C349 1.386 . S
C348 C350 1.391 . S
C349 C348 1.386 . S
C349 C353 1.393 . S
C350 H339 0.950 . S
C350 C348 1.391 . S
C350 C351 1.400 . S
C351 C345 1.491 . S
C351 C350 1.400 . S
C351 C352 1.398 . S
C352 H340 0.950 . S
C352 C351 1.398 . S
C352 C353 1.391 . S
C353 H341 0.950 . S
C353 C349 1.393 . S
C353 C352 1.391 . S
H354 C362 0.950 . S
H355 C367 0.950 . S
H356 C364 0.950 . S
H357 C366 0.950 . S
H358 C368 0.950 . S
H359 C370 0.950 . S
H360 C372 0.950 1_455 S
H361 C373 0.950 . S
C362 H354 0.950 . S
C362 C363 1.386 . S
C362 C364 1.391 . S
C363 C362 1.386 . S
C363 C367 1.393 . S
C364 H356 0.950 . S
C364 C362 1.391 . S
C364 C365 1.400 . S
C365 C364 1.400 . S
C365 C366 1.398 . S
C365 C371 1.491 . S
C366 H357 0.950 . S
C366 C365 1.398 . S
C366 C367 1.391 . S
C367 H355 0.950 . S
C367 C363 1.393 . S
C367 C366 1.391 . S
C368 H358 0.950 . S
C368 C369 1.386 . S
C368 C370 1.391 . S
C369 C368 1.386 . S
C369 C373 1.393 1_655 S
C370 H359 0.950 . S
C370 C368 1.391 . S
C370 C371 1.400 . S
C371 C365 1.491 . S
C371 C370 1.400 . S
C371 C372 1.398 . S
C372 H360 0.950 1_655 S
C372 C371 1.398 . S
C372 C373 1.391 1_655 S
C373 H361 0.950 . S
C373 C369 1.393 1_455 S
C373 C372 1.391 1_455 S
H374 C382 0.950 . S
H375 C387 0.950 . S
H376 C384 0.950 . S
H377 C386 0.950 . S
H378 C388 0.950 . S
H379 C390 0.950 . S
H380 C392 0.950 . S
H381 C393 0.950 . S
C382 H374 0.950 . S
C382 C383 1.386 . S
C382 C384 1.391 . S
C383 C382 1.386 . S
C383 C387 1.393 . S
C384 H376 0.950 . S
C384 C382 1.391 . S
C384 C385 1.400 . S
C385 C384 1.400 . S
C385 C386 1.398 . S
C385 C391 1.491 . S
C386 H377 0.950 . S
C386 C385 1.398 . S
C386 C387 1.391 . S
C387 H375 0.950 . S
C387 C383 1.393 . S
C387 C386 1.391 . S
C388 H378 0.950 . S
C388 C389 1.386 . S
C388 C390 1.391 . S
C389 C388 1.386 . S
C389 C393 1.393 . S
C390 H379 0.950 . S
C390 C388 1.391 . S
C390 C391 1.400 . S
C391 C385 1.491 . S
C391 C390 1.400 . S
C391 C392 1.398 . S
C392 H380 0.950 . S
C392 C391 1.398 . S
C392 C393 1.391 . S
C393 H381 0.950 . S
C393 C389 1.393 . S
C393 C392 1.391 . S
H394 C402 0.950 . S
H395 C407 0.950 . S
H396 C404 0.950 . S
H397 C406 0.950 . S
H398 C408 0.950 . S
H399 C410 0.950 . S
H400 C412 0.950 1_655 S
H401 C413 0.950 1_655 S
C402 H394 0.950 . S
C402 C403 1.386 . S
C402 C404 1.391 . S
C403 C402 1.386 . S
C403 C407 1.393 . S
C404 H396 0.950 . S
C404 C402 1.391 . S
C404 C405 1.400 . S
C405 C404 1.400 . S
C405 C406 1.398 . S
C405 C411 1.491 . S
C406 H397 0.950 . S
C406 C405 1.398 . S
C406 C407 1.391 . S
C407 H395 0.950 . S
C407 C403 1.393 . S
C407 C406 1.391 . S
C408 H398 0.950 . S
C408 C409 1.386 . S
C408 C410 1.391 . S
C409 C408 1.386 . S
C409 C413 1.393 . S
C410 H399 0.950 . S
C410 C408 1.391 . S
C410 C411 1.400 . S
C411 C405 1.491 . S
C411 C410 1.400 . S
C411 C412 1.398 . S
C412 H400 0.950 1_455 S
C412 C411 1.398 . S
C412 C413 1.391 . S
C413 H401 0.950 1_455 S
C413 C409 1.393 . S
C413 C412 1.391 . S
C189 C145 1.593 . S
C183 C119 1.603 . S
C203 C23 1.474 . S
C209 C168 1.588 . S
C223 C55 1.522 . S
C229 C144 1.614 . S
C243 C87 1.619 . S
C249 C167 1.610 . S
C269 C148 1.551 . S
C263 C17 1.491 . S
C289 C170 1.583 . S
C283 C61 1.502 . S
C303 C93 1.643 . S
C309 C149 1.568 . S
C323 C113 1.588 . S
C329 C169 1.542 . S
C349 C172 1.552 . S
C343 C49 1.506 . S
C369 C147 1.580 . S
C363 C81 1.609 . S
C389 C171 1.563 . S
C383 C125 1.630 . S
C403 C29 1.487 . S
C409 C146 1.550 . S
