# Generated by pormake.
# Topology pyr, (3,6)-cn, num edge types: 1
# Building blocks:
#     Node 0, Type 0, BuildingBlock: PAMTOO_clean_linker_0, # of connection points: 3
#     Node 1, Type 0, BuildingBlock: PAMTOO_clean_linker_0, # of connection points: 3
#     Node 2, Type 0, BuildingBlock: PAMTOO_clean_linker_0, # of connection points: 3
#     Node 3, Type 0, BuildingBlock: PAMTOO_clean_linker_0, # of connection points: 3
#     Node 4, Type 0, BuildingBlock: PAMTOO_clean_linker_0, # of connection points: 3
#     Node 5, Type 0, BuildingBlock: PAMTOO_clean_linker_0, # of connection points: 3
#     Node 6, Type 0, BuildingBlock: PAMTOO_clean_linker_0, # of connection points: 3
#     Node 7, Type 0, BuildingBlock: PAMTOO_clean_linker_0, # of connection points: 3
#     Node 8, Type 1, BuildingBlock: MIDCAF_clean_sbu_0, # of connection points: 6
#     Node 9, Type 1, BuildingBlock: MIDCAF_clean_sbu_0, # of connection points: 6
#     Node 10, Type 1, BuildingBlock: MIDCAF_clean_sbu_0, # of connection points: 6
#     Node 11, Type 1, BuildingBlock: MIDCAF_clean_sbu_0, # of connection points: 6
#     Edge 12, Type (0, 1), BuildingBlock: TEMPAE_clean_linker_10, # of connection points: 2
#     Edge 13, Type (0, 1), BuildingBlock: TEMPAE_clean_linker_10, # of connection points: 2
#     Edge 14, Type (0, 1), BuildingBlock: TEMPAE_clean_linker_10, # of connection points: 2
#     Edge 15, Type (0, 1), BuildingBlock: TEMPAE_clean_linker_10, # of connection points: 2
#     Edge 16, Type (0, 1), BuildingBlock: TEMPAE_clean_linker_10, # of connection points: 2
#     Edge 17, Type (0, 1), BuildingBlock: TEMPAE_clean_linker_10, # of connection points: 2
#     Edge 18, Type (0, 1), BuildingBlock: TEMPAE_clean_linker_10, # of connection points: 2
#     Edge 19, Type (0, 1), BuildingBlock: TEMPAE_clean_linker_10, # of connection points: 2
#     Edge 20, Type (0, 1), BuildingBlock: TEMPAE_clean_linker_10, # of connection points: 2
#     Edge 21, Type (0, 1), BuildingBlock: TEMPAE_clean_linker_10, # of connection points: 2
#     Edge 22, Type (0, 1), BuildingBlock: TEMPAE_clean_linker_10, # of connection points: 2
#     Edge 23, Type (0, 1), BuildingBlock: TEMPAE_clean_linker_10, # of connection points: 2
#     Edge 24, Type (0, 1), BuildingBlock: TEMPAE_clean_linker_10, # of connection points: 2
#     Edge 25, Type (0, 1), BuildingBlock: TEMPAE_clean_linker_10, # of connection points: 2
#     Edge 26, Type (0, 1), BuildingBlock: TEMPAE_clean_linker_10, # of connection points: 2
#     Edge 27, Type (0, 1), BuildingBlock: TEMPAE_clean_linker_10, # of connection points: 2
#     Edge 28, Type (0, 1), BuildingBlock: TEMPAE_clean_linker_10, # of connection points: 2
#     Edge 29, Type (0, 1), BuildingBlock: TEMPAE_clean_linker_10, # of connection points: 2
#     Edge 30, Type (0, 1), BuildingBlock: TEMPAE_clean_linker_10, # of connection points: 2
#     Edge 31, Type (0, 1), BuildingBlock: TEMPAE_clean_linker_10, # of connection points: 2
#     Edge 32, Type (0, 1), BuildingBlock: TEMPAE_clean_linker_10, # of connection points: 2
#     Edge 33, Type (0, 1), BuildingBlock: TEMPAE_clean_linker_10, # of connection points: 2
#     Edge 34, Type (0, 1), BuildingBlock: TEMPAE_clean_linker_10, # of connection points: 2
#     Edge 35, Type (0, 1), BuildingBlock: TEMPAE_clean_linker_10, # of connection points: 2
# Relax obj value: 0.095
# Max RMSD: 0.201
# Mean RMSD: 0.141
data_MOF--net-pyr--node1-MIDCAF_clean_sbu_0--node2-PAMTOO_clean_linker_0--edge1-TEMPAE_clean_linker_10
_symmetry_space_group_name_H-M    P1
_symmetry_Int_Tables_number       1
_symmetry_cell_setting            triclinic
loop_
_symmetry_equiv_pos_as_xyz
'x, y, z'
_cell_length_a     35.01632
_cell_length_b     36.258866
_cell_length_c     35.756219
_cell_angle_alpha  89.806738
_cell_angle_beta   91.272669
_cell_angle_gamma 95.369564
loop_
_atom_site_label
_atom_site_type_symbol
_atom_site_fract_x
_atom_site_fract_y
_atom_site_fract_z
_atom_type_partial_charge
H0 H 0.20465 0.27166 0.28242 0.0
H1 H 0.28452 0.18824 0.28504 0.0
H2 H 0.28692 0.26671 0.19496 0.0
H3 H 0.28536 0.18083 0.1823 0.0
C4 C 0.30985 0.17722 0.202 0.0
O5 O 0.31798 0.2092 0.22278 0.0
H6 H 0.30131 0.15378 0.2211 0.0
C7 C 0.2291 0.25977 0.27087 0.0
C8 C 0.24471 0.27377 0.23711 0.0
C9 C 0.24286 0.22849 0.28801 0.0
C10 C 0.27378 0.21248 0.27223 0.0
C11 C 0.28973 0.22632 0.23885 0.0
C12 C 0.275 0.2567 0.22122 0.0
H13 H 0.27307 0.87268 0.75039 0.0
H14 H 0.27369 0.81108 0.64774 0.0
H15 H 0.36509 0.80487 0.72861 0.0
H16 H 0.38536 0.81612 0.64874 0.0
C17 C 0.36334 0.79544 0.63613 0.0
O18 O 0.33791 0.78195 0.66306 0.0
H19 H 0.34724 0.80941 0.61388 0.0
C20 C 0.2859 0.8529 0.73306 0.0
C21 C 0.32101 0.8397 0.74425 0.0
C22 C 0.26882 0.84288 0.69818 0.0
C23 C 0.28636 0.81862 0.67491 0.0
C24 C 0.32085 0.80476 0.68602 0.0
C25 C 0.33807 0.81528 0.72058 0.0
H26 H 0.82476 0.2431 0.84925 0.0
H27 H 0.72292 0.23623 0.77922 0.0
H28 H 0.80072 0.33482 0.77819 0.0
H29 H 0.71709 0.34109 0.79042 0.0
C30 C 0.70526 0.32136 0.76837 0.0
O31 O 0.73455 0.30361 0.75309 0.0
H32 H 0.68456 0.30028 0.78149 0.0
C33 C 0.80761 0.25477 0.82737 0.0
C34 C 0.81813 0.29074 0.81395 0.0
C35 C 0.77347 0.23486 0.81477 0.0
C36 C 0.75009 0.25076 0.788 0.0
C37 C 0.7597 0.28688 0.77518 0.0
C38 C 0.79385 0.30665 0.78781 0.0
H39 H 0.79932 0.75924 0.35549 0.0
H40 H 0.81889 0.68207 0.26791 0.0
H41 H 0.8784 0.79073 0.26813 0.0
H42 H 0.87143 0.75678 0.18853 0.0
C43 C 0.86235 0.72836 0.19864 0.0
O44 O 0.8719 0.72585 0.23616 0.0
H45 H 0.83073 0.72278 0.19433 0.0
C46 C 0.81239 0.75294 0.32935 0.0
C47 C 0.83857 0.77974 0.31307 0.0
C48 C 0.80459 0.71755 0.31318 0.0
C49 C 0.82358 0.70933 0.28042 0.0
C50 C 0.84983 0.73582 0.26419 0.0
C51 C 0.85682 0.77105 0.2801 0.0
H52 H 0.85763 0.91327 0.81631 0.0
H53 H 0.84268 0.84525 0.91484 0.0
H54 H 0.93116 0.82623 0.83831 0.0
H55 H 0.87282 0.76175 0.86895 0.0
C56 C 0.87958 0.76941 0.89868 0.0
O57 O 0.89833 0.80461 0.90074 0.0
H58 H 0.85195 0.76889 0.9135 0.0
C59 C 0.8661 0.89078 0.83372 0.0
C60 C 0.89705 0.87109 0.82317 0.0
C61 C 0.84592 0.88154 0.86653 0.0
C62 C 0.85742 0.85256 0.88915 0.0
C63 C 0.88792 0.83267 0.87886 0.0
C64 C 0.90771 0.84195 0.84603 0.0
H65 H 0.73591 0.12849 0.28469 0.0
H66 H 0.6786 0.22841 0.28921 0.0
H67 H 0.77458 0.21524 0.36266 0.0
H68 H 0.72767 0.2588 0.39897 0.0
C69 C 0.70662 0.2636 0.37616 0.0
O70 O 0.72351 0.25943 0.34205 0.0
H71 H 0.68141 0.24266 0.37888 0.0
C72 C 0.73345 0.15556 0.29664 0.0
C73 C 0.75908 0.16878 0.32547 0.0
C74 C 0.70426 0.17673 0.28329 0.0
C75 C 0.70084 0.21168 0.29908 0.0
C76 C 0.72671 0.22562 0.32714 0.0
C77 C 0.75572 0.20434 0.3401 0.0
H78 H 0.32926 0.7097 0.13516 0.0
H79 H 0.32404 0.67734 0.25097 0.0
H80 H 0.37663 0.78453 0.22129 0.0
H81 H 0.40387 0.77237 0.30143 0.0
C82 C 0.39844 0.74369 0.29044 0.0
O83 O 0.36118 0.73887 0.27633 0.0
H84 H 0.4197 0.7414 0.26798 0.0
C85 C 0.33515 0.71634 0.16436 0.0
C86 C 0.35536 0.75038 0.17424 0.0
C87 C 0.32263 0.69027 0.19179 0.0
C88 C 0.33297 0.69727 0.22949 0.0
C89 C 0.35268 0.73124 0.23985 0.0
C90 C 0.36252 0.75804 0.21247 0.0
H91 H 0.15675 0.29558 0.71762 0.0
H92 H 0.24844 0.3672 0.76883 0.0
H93 H 0.26751 0.31113 0.66688 0.0
H94 H 0.32799 0.3144 0.73303 0.0
C95 C 0.32983 0.34523 0.73402 0.0
O96 O 0.29752 0.35778 0.71732 0.0
H97 H 0.33197 0.35426 0.76371 0.0
C98 C 0.18601 0.30833 0.71788 0.0
C99 C 0.21034 0.30077 0.68859 0.0
C100 C 0.19939 0.33177 0.74757 0.0
C101 C 0.23766 0.34764 0.7474 0.0
C102 C 0.26209 0.33979 0.7187 0.0
C103 C 0.24858 0.31623 0.68949 0.0
Zn104 Zn 0.98364 0.06166 0.55648 0.0
Zn105 Zn 0.07408 0.99071 0.47752 0.0
Zn106 Zn 0.02742 0.02763 0.51693 0.0
C107 C 0.10202 0.06496 0.47257 0.0
C108 C 0.99937 0.97846 0.44507 0.0
O109 O 0.02061 0.99923 0.57269 0.0
O110 O 0.97338 0.02659 0.59746 0.0
C111 C 0.05152 0.10737 0.55089 0.0
O112 O 0.0739 0.06773 0.49484 0.0
O113 O 0.10915 0.03364 0.46067 0.0
O114 O 0.03312 0.96915 0.4427 0.0
O115 O 0.99166 0.00195 0.4702 0.0
O116 O 0.02117 0.10353 0.5694 0.0
O117 O 0.05769 0.08339 0.52577 0.0
O118 O 0.97198 0.03059 0.48493 0.0
O119 O 0.9427 0.06891 0.51982 0.0
C120 C 0.94378 0.05042 0.49011 0.0
O121 O 0.04976 0.98425 0.55363 0.0
O122 O 0.09089 0.95836 0.51823 0.0
C123 C 0.99679 0.00223 0.59932 0.0
C124 C 0.07491 0.96085 0.5493 0.0
Zn125 Zn 0.50633 0.06018 0.95796 0.0
Zn126 Zn 0.5726 0.96493 0.04285 0.0
Zn127 Zn 0.53971 0.01165 0.9982 0.0
C128 C 0.62338 0.98211 0.98493 0.0
C129 C 0.50264 0.92906 0.01802 0.0
O130 O 0.51977 0.05537 0.03513 0.0
O131 O 0.48796 0.09124 0.99805 0.0
C132 C 0.58252 0.06178 0.93439 0.0
O133 O 0.59727 0.0034 0.97519 0.0
O134 O 0.61932 0.96198 0.01369 0.0
O135 O 0.53119 0.92413 0.03897 0.0
O136 O 0.50128 0.9595 0.99949 0.0
O137 O 0.55274 0.07874 0.9308 0.0
O138 O 0.58287 0.03412 0.95716 0.0
O139 O 0.48979 0.98073 0.96875 0.0
O140 O 0.46894 0.02397 0.93201 0.0
C141 C 0.46697 0.99054 0.94246 0.0
O142 O 0.5469 0.03644 0.05485 0.0
O143 O 0.57673 0.99618 0.0885 0.0
C144 C 0.49892 0.08267 0.03053 0.0
C145 C 0.56298 0.02708 0.08583 0.0
Zn146 Zn 0.60671 0.57468 0.55999 0.0
Zn147 Zn 0.50924 0.48877 0.47449 0.0
Zn148 Zn 0.55953 0.53072 0.51617 0.0
C149 C 0.58269 0.48479 0.44471 0.0
C150 C 0.48575 0.55954 0.47141 0.0
O151 O 0.53209 0.5824 0.52674 0.0
O152 O 0.56969 0.61196 0.56966 0.0
C153 C 0.59612 0.5058 0.59541 0.0
O154 O 0.59192 0.50995 0.46953 0.0
O155 O 0.54838 0.4707 0.44146 0.0
O156 O 0.47805 0.5282 0.45638 0.0
O157 O 0.51349 0.56459 0.49579 0.0
O158 O 0.61628 0.53646 0.59825 0.0
O159 O 0.57137 0.5002 0.56826 0.0
O160 O 0.61254 0.54193 0.48444 0.0
O161 O 0.64471 0.58469 0.51976 0.0
C162 C 0.64156 0.56603 0.48985 0.0
O163 O 0.53692 0.48428 0.55193 0.0
O164 O 0.49003 0.45694 0.51664 0.0
C165 C 0.53917 0.60952 0.54992 0.0
C166 C 0.50807 0.45973 0.54765 0.0
Zn167 Zn 0.10745 0.53589 0.98717 0.0
Zn168 Zn 0.00852 0.4539 0.06611 0.0
Zn169 Zn 0.05858 0.4935 0.02616 0.0
C170 C 0.08073 0.44319 0.09732 0.0
C171 C 1.00082 0.42666 0.99277 0.0
O172 O 0.03558 0.54831 0.01676 0.0
O173 O 0.07737 0.57903 0.97989 0.0
C174 C 0.14529 0.51986 0.05384 0.0
O175 O 0.09085 0.46908 0.07363 0.0
O176 O 0.04591 0.43067 0.09886 0.0
O177 O 0.98434 0.42438 0.02387 0.0
O178 O 0.03109 0.44937 0.98874 0.0
O179 O 0.14983 0.53914 0.02455 0.0
O180 O 0.11358 0.49948 0.05882 0.0
O181 O 0.0644 0.4653 0.97164 0.0
O182 O 0.11016 0.50172 0.94495 0.0
C183 C 0.08752 0.47252 0.94441 0.0
O184 O 0.01595 0.53009 0.04635 0.0
O185 O 0.98122 0.49494 0.08601 0.0
C186 C 0.04596 0.5771 0.99675 0.0
C187 C 0.98953 0.52617 0.07103 0.0
C188 C 0.20661 0.17285 0.31514 0.0
C189 C 0.22217 0.20961 0.31953 0.0
C190 C 0.18674 0.15392 0.3441 0.0
C191 C 0.18301 0.17189 0.3788 0.0
C192 C 0.19872 0.20912 0.38346 0.0
C193 C 0.21773 0.22776 0.35351 0.0
C194 C 0.16978 0.11455 0.3375 0.0
C195 C 0.19607 0.22893 0.42023 0.0
C196 C 0.10347 0.12401 0.4369 0.0
C197 C 0.12338 0.09811 0.45662 0.0
C198 C 0.1229 0.1503 0.41337 0.0
C199 C 0.16323 0.15089 0.40997 0.0
C200 C 0.18369 0.12685 0.43249 0.0
C201 C 0.16343 0.10028 0.45504 0.0
C202 C 0.09981 0.17499 0.38961 0.0
C203 C 0.22673 0.12721 0.43061 0.0
H204 H 0.20966 0.159 0.28868 0.0
H205 H 0.22984 0.25622 0.35686 0.0
H206 H 0.1836 0.09554 0.35681 0.0
H207 H 0.13867 0.11198 0.34344 0.0
H208 H 0.17354 0.10528 0.30834 0.0
H209 H 0.20884 0.25812 0.41906 0.0
H210 H 0.16567 0.22865 0.4284 0.0
H211 H 0.21118 0.21424 0.44254 0.0
H212 H 0.0724 0.12195 0.43777 0.0
H213 H 0.17877 0.0801 0.47021 0.0
H214 H 0.09857 0.16487 0.36031 0.0
H215 H 0.11356 0.2038 0.38942 0.0
H216 H 0.06999 0.17523 0.39952 0.0
H217 H 0.23434 0.11434 0.404 0.0
H218 H 0.23881 0.11161 0.45417 0.0
H219 H 0.24048 0.15605 0.431 0.0
C220 C 0.38023 0.86828 0.7771 0.0
C221 C 0.3416 0.85428 0.77875 0.0
C222 C 0.39924 0.88594 0.80805 0.0
C223 C 0.37933 0.8893 0.84176 0.0
C224 C 0.34096 0.87334 0.84427 0.0
C225 C 0.32238 0.85641 0.81258 0.0
C226 C 0.43997 0.90297 0.80388 0.0
C227 C 0.31906 0.87548 0.87995 0.0
C228 C 0.44373 0.92496 0.92379 0.0
C229 C 0.44022 0.96316 0.9217 0.0
C230 C 0.42212 0.89998 0.89964 0.0
C231 C 0.39718 0.91367 0.8722 0.0
C232 C 0.39212 0.95193 0.87134 0.0
C233 C 0.41334 0.97602 0.89624 0.0
C234 C 0.42759 0.85928 0.90224 0.0
C235 C 0.36607 0.96792 0.84249 0.0
H236 H 0.39513 0.86704 0.75094 0.0
H237 H 0.29263 0.84526 0.81408 0.0
H238 H 0.44071 0.93358 0.80568 0.0
H239 H 0.45854 0.8937 0.82692 0.0
H240 H 0.45228 0.89572 0.77679 0.0
H241 H 0.29182 0.85711 0.8792 0.0
H242 H 0.33681 0.86775 0.90433 0.0
H243 H 0.31212 0.90435 0.88439 0.0
H244 H 0.46459 0.91468 0.94297 0.0
H245 H 0.41 0.0054 0.89455 0.0
H246 H 0.44621 0.85171 0.87932 0.0
H247 H 0.39973 0.8422 0.89898 0.0
H248 H 0.44133 0.85221 0.92932 0.0
H249 H 0.37736 0.96422 0.81412 0.0
H250 H 0.36363 0.99791 0.84695 0.0
H251 H 0.33693 0.95309 0.84311 0.0
C252 C 0.70547 0.363 0.71137 0.0
C253 C 0.68486 0.34304 0.7392 0.0
C254 C 0.68733 0.38657 0.68688 0.0
C255 C 0.64784 0.39104 0.6909 0.0
C256 C 0.62674 0.37055 0.71859 0.0
C257 C 0.64556 0.34691 0.74249 0.0
C258 C 0.7108 0.40778 0.65756 0.0
C259 C 0.58472 0.37484 0.72405 0.0
C260 C 0.61983 0.48429 0.65727 0.0
C261 C 0.60394 0.47565 0.62171 0.0
C262 C 0.6325 0.45667 0.68077 0.0
C263 C 0.6297 0.4195 0.6682 0.0
C264 C 0.61204 0.41032 0.633 0.0
C265 C 0.5993 0.43854 0.61015 0.0
C266 C 0.65039 0.46757 0.71842 0.0
C267 C 0.6084 0.37104 0.61864 0.0
H268 H 0.736 0.36079 0.70929 0.0
H269 H 0.62973 0.33214 0.76452 0.0
H270 H 0.69649 0.40398 0.62966 0.0
H271 H 0.71303 0.43782 0.66405 0.0
H272 H 0.74025 0.39892 0.656 0.0
H273 H 0.57155 0.35431 0.74422 0.0
H274 H 0.5814 0.40306 0.73466 0.0
H275 H 0.56857 0.37177 0.69703 0.0
H276 H 0.62322 0.51292 0.66642 0.0
H277 H 0.58728 0.43175 0.58256 0.0
H278 H 0.68135 0.46326 0.71862 0.0
H279 H 0.63689 0.44985 0.74075 0.0
H280 H 0.64751 0.49702 0.7253 0.0
H281 H 0.63734 0.36264 0.61276 0.0
H282 H 0.59049 0.36787 0.5926 0.0
H283 H 0.59564 0.35175 0.64009 0.0
C284 C 0.87019 0.69303 0.13918 0.0
C285 C 0.88219 0.70069 0.17623 0.0
C286 C 0.88739 0.66695 0.11776 0.0
C287 C 0.91712 0.6478 0.134 0.0
C288 C 0.93007 0.65618 0.17106 0.0
C289 C 0.9129 0.68286 0.1915 0.0
C290 C 0.87247 0.65948 0.07832 0.0
C291 C 0.96135 0.63612 0.18962 0.0
C292 C 0.93363 0.55175 0.10025 0.0
C293 C 0.96942 0.55803 0.08335 0.0
C294 C 0.91565 0.58098 0.11562 0.0
C295 C 0.93355 0.61755 0.11348 0.0
C296 C 0.96872 0.62434 0.09468 0.0
C297 C 0.98671 0.59437 0.08077 0.0
C298 C 0.87822 0.57252 0.13545 0.0
C299 C 0.98849 0.66288 0.09044 0.0
H300 H 0.84694 0.70719 0.12703 0.0
H301 H 0.92319 0.68911 0.21977 0.0
H302 H 0.84505 0.64152 0.07932 0.0
H303 H 0.86626 0.68574 0.06435 0.0
H304 H 0.89269 0.64554 0.06101 0.0
H305 H 0.96723 0.64498 0.21906 0.0
H306 H 0.95312 0.6058 0.18928 0.0
H307 H 0.98826 0.64127 0.17387 0.0
H308 H 0.92002 0.52373 0.10232 0.0
H309 H 0.01487 0.59943 0.06887 0.0
H310 H 0.85574 0.5881 0.12214 0.0
H311 H 0.88156 0.58163 0.16505 0.0
H312 H 0.86818 0.54253 0.13491 0.0
H313 H 0.96797 0.68441 0.09068 0.0
H314 H 0.0046 0.66541 0.06398 0.0
H315 H 0.00947 0.66847 0.11391 0.0
C316 C 0.38195 0.17675 0.19229 0.0
C317 C 0.34389 0.16731 0.18001 0.0
C318 C 0.413 0.16535 0.17222 0.0
C319 C 0.40574 0.14335 0.1397 0.0
C320 C 0.36734 0.13302 0.12788 0.0
C321 C 0.33705 0.14506 0.14817 0.0
C322 C 0.45351 0.17688 0.18569 0.0
C323 C 0.35816 0.10919 0.09367 0.0
C324 C 0.47235 0.13748 0.05855 0.0
C325 C 0.4836 0.10157 0.06288 0.0
C326 C 0.4498 0.15288 0.0853 0.0
C327 C 0.43774 0.13167 0.11693 0.0
C328 C 0.45179 0.09666 0.12304 0.0
C329 C 0.47465 0.08203 0.09592 0.0
C330 C 0.43625 0.19062 0.07801 0.0
C331 C 0.43988 0.07309 0.15641 0.0
H332 H 0.38746 0.19304 0.21751 0.0
H333 H 0.30769 0.13686 0.13923 0.0
H334 H 0.4691 0.15206 0.19103 0.0
H335 H 0.4692 0.19334 0.16369 0.0
H336 H 0.45437 0.19365 0.21168 0.0
H337 H 0.32679 0.10275 0.08887 0.0
H338 H 0.37028 0.12353 0.06853 0.0
H339 H 0.37154 0.08275 0.09666 0.0
H340 H 0.47954 0.15287 0.03321 0.0
H341 H 0.48302 0.05417 0.09936 0.0
H342 H 0.43859 0.20756 0.10388 0.0
H343 H 0.40557 0.18741 0.06906 0.0
H344 H 0.45288 0.20586 0.05576 0.0
H345 H 0.44014 0.09008 0.18215 0.0
H346 H 0.45888 0.05054 0.16107 0.0
H347 H 0.41012 0.06034 0.15163 0.0
C348 C 0.23932 0.88527 0.6538 0.0
C349 C 0.23505 0.86076 0.684 0.0
C350 C 0.20771 0.90128 0.63817 0.0
C351 C 0.17065 0.89192 0.6526 0.0
C352 C 0.16632 0.86784 0.68386 0.0
C353 C 0.19877 0.85272 0.69945 0.0
C354 C 0.2139 0.92735 0.60535 0.0
C355 C 0.12734 0.85679 0.69974 0.0
C356 C 0.0998 0.95665 0.61499 0.0
C357 C 0.08891 0.93924 0.58099 0.0
C358 C 0.12393 0.94004 0.64077 0.0
C359 C 0.1367 0.90506 0.63239 0.0
C360 C 0.12178 0.88564 0.60018 0.0
C361 C 0.09851 0.90319 0.57461 0.0
C362 C 0.13888 0.9617 0.67481 0.0
C363 C 0.13348 0.8478 0.59071 0.0
H364 H 0.26752 0.89164 0.64216 0.0
H365 H 0.19563 0.83369 0.72286 0.0
H366 H 0.1998 0.91448 0.57988 0.0
H367 H 0.20069 0.95345 0.61059 0.0
H368 H 0.24481 0.93428 0.59968 0.0
H369 H 0.12939 0.84222 0.72699 0.0
H370 H 0.11126 0.88141 0.70355 0.0
H371 H 0.11038 0.83807 0.67979 0.0
H372 H 0.09244 0.98459 0.61991 0.0
H373 H 0.08973 0.88958 0.54843 0.0
H374 H 0.16815 0.9748 0.6693 0.0
H375 H 0.14098 0.94333 0.69949 0.0
H376 H 0.12036 0.9839 0.68166 0.0
H377 H 0.16325 0.85061 0.58034 0.0
H378 H 0.11441 0.83389 0.56872 0.0
H379 H 0.13301 0.82984 0.6159 0.0
C380 C 0.847 0.34779 0.84651 0.0
C381 C 0.85169 0.31309 0.83105 0.0
C382 C 0.87648 0.36692 0.86794 0.0
C383 C 0.91173 0.35123 0.87359 0.0
C384 C 0.91766 0.31756 0.85561 0.0
C385 C 0.88732 0.29857 0.83497 0.0
C386 C 0.86881 0.40263 0.88678 0.0
C387 C 0.95531 0.30067 0.8598 0.0
C388 C 0.98815 0.41566 0.92387 0.0
C389 C 0.98304 0.40437 0.96113 0.0
C390 C 0.96736 0.3968 0.89445 0.0
C391 C 0.93952 0.36715 0.90276 0.0
C392 C 0.93529 0.35489 0.9402 0.0
C393 C 0.95735 0.37336 0.96875 0.0
C394 C 0.97394 0.40989 0.85483 0.0
C395 C 0.90581 0.32358 0.95051 0.0
H396 H 0.81942 0.35897 0.84373 0.0
H397 H 0.89113 0.27192 0.82265 0.0
H398 H 0.86795 0.39836 0.91752 0.0
H399 H 0.89226 0.42454 0.88121 0.0
H400 H 0.84118 0.41261 0.87721 0.0
H401 H 0.95768 0.27822 0.83915 0.0
H402 H 0.97978 0.3221 0.85638 0.0
H403 H 0.9579 0.28886 0.88831 0.0
H404 H 0.00719 0.44008 0.91774 0.0
H405 H 0.95332 0.36432 0.99745 0.0
H406 H 0.95147 0.42808 0.8464 0.0
H407 H 0.97213 0.3862 0.8351 0.0
H408 H 0.00239 0.42593 0.85214 0.0
H409 H 0.87658 0.33152 0.94372 0.0
H410 H 0.90729 0.31641 0.9807 0.0
H411 H 0.90989 0.29848 0.934 0.0
C412 C 0.74517 0.69781 0.34868 0.0
C413 C 0.77897 0.68858 0.33224 0.0
C414 C 0.72286 0.67198 0.37025 0.0
C415 C 0.73448 0.63588 0.37543 0.0
C416 C 0.76735 0.62568 0.35717 0.0
C417 C 0.78933 0.65221 0.33594 0.0
C418 C 0.68789 0.68398 0.38911 0.0
C419 C 0.78047 0.5874 0.36167 0.0
C420 C 0.70414 0.59645 0.4692 0.0
C421 C 0.66932 0.57584 0.45996 0.0
C422 C 0.72699 0.61405 0.44156 0.0
C423 C 0.71485 0.61086 0.4036 0.0
C424 C 0.68157 0.58731 0.39376 0.0
C425 C 0.65907 0.57004 0.42214 0.0
C426 C 0.76251 0.63849 0.45337 0.0
C427 C 0.66811 0.58253 0.35355 0.0
H428 H 0.73657 0.72561 0.34534 0.0
H429 H 0.81555 0.64482 0.32361 0.0
H430 H 0.6626 0.66395 0.38308 0.0
H431 H 0.69282 0.68442 0.41988 0.0
H432 H 0.68105 0.71197 0.37996 0.0
H433 H 0.80251 0.58195 0.34101 0.0
H434 H 0.793 0.58448 0.39017 0.0
H435 H 0.75587 0.56595 0.35853 0.0
H436 H 0.71255 0.60059 0.49837 0.0
H437 H 0.63224 0.55414 0.41472 0.0
H438 H 0.75768 0.66794 0.4484 0.0
H439 H 0.78732 0.63233 0.43648 0.0
H440 H 0.77007 0.63502 0.48343 0.0
H441 H 0.65448 0.60754 0.34431 0.0
H442 H 0.64676 0.55807 0.34992 0.0
H443 H 0.69261 0.57946 0.33503 0.0
C444 C 0.21387 0.29828 0.17965 0.0
C445 C 0.22695 0.30384 0.21672 0.0
C446 C 0.19376 0.3248 0.16086 0.0
C447 C 0.18723 0.35811 0.17929 0.0
C448 C 0.20217 0.36469 0.21608 0.0
C449 C 0.22133 0.33721 0.23459 0.0
C450 C 0.17775 0.31624 0.12197 0.0
C451 C 0.19689 0.40028 0.23627 0.0
C452 C 0.1488 0.43149 0.11556 0.0
C453 C 0.10921 0.42554 0.12139 0.0
C454 C 0.17498 0.41147 0.13589 0.0
C455 C 0.1611 0.38376 0.16157 0.0
C456 C 0.12129 0.37834 0.16826 0.0
C457 C 0.09604 0.39955 0.14855 0.0
C458 C 0.21728 0.41901 0.12868 0.0
C459 C 0.105 0.34876 0.19488 0.0
H460 H 0.21794 0.27238 0.16589 0.0
H461 H 0.23174 0.34167 0.26315 0.0
H462 H 0.14592 0.31401 0.12232 0.0
H463 H 0.18705 0.33903 0.1025 0.0
H464 H 0.1869 0.28995 0.11086 0.0
H465 H 0.21442 0.40324 0.26256 0.0
H466 H 0.2048 0.42445 0.21797 0.0
H467 H 0.16628 0.40101 0.24331 0.0
H468 H 0.15936 0.45068 0.09417 0.0
H469 H 0.06557 0.39464 0.15353 0.0
H470 H 0.22665 0.39671 0.11085 0.0
H471 H 0.23425 0.41918 0.15527 0.0
H472 H 0.22395 0.44592 0.11417 0.0
H473 H 0.11112 0.32108 0.18468 0.0
H474 H 0.07349 0.34882 0.19781 0.0
H475 H 0.11884 0.35268 0.22295 0.0
C476 C 0.74413 0.20462 0.87062 0.0
C477 C 0.75805 0.2011 0.83458 0.0
C478 C 0.72153 0.17539 0.88729 0.0
C479 C 0.7135 0.14154 0.86769 0.0
C480 C 0.73095 0.13666 0.83289 0.0
C481 C 0.75233 0.1669 0.81622 0.0
C482 C 0.70331 0.18206 0.92425 0.0
C483 C 0.72497 0.1003 0.81223 0.0
C484 C 0.65416 0.07041 0.92587 0.0
C485 C 0.61691 0.07619 0.91348 0.0
C486 C 0.68647 0.08866 0.90871 0.0
C487 C 0.68122 0.11496 0.88008 0.0
C488 C 0.64369 0.11968 0.86649 0.0
C489 C 0.61221 0.09975 0.88286 0.0
C490 C 0.72592 0.08117 0.92281 0.0
C491 C 0.63643 0.14784 0.83648 0.0
H492 H 0.74854 0.23123 0.88461 0.0
H493 H 0.7634 0.16425 0.78838 0.0
H494 H 0.67181 0.18208 0.92003 0.0
H495 H 0.70839 0.15952 0.94424 0.0
H496 H 0.71457 0.20891 0.93702 0.0
H497 H 0.74688 0.09825 0.79052 0.0
H498 H 0.72607 0.07668 0.83195 0.0
H499 H 0.69626 0.09772 0.79826 0.0
H500 H 0.65819 0.05328 0.95015 0.0
H501 H 0.58355 0.1042 0.87282 0.0
H502 H 0.73533 0.10103 0.94544 0.0
H503 H 0.74725 0.08444 0.90025 0.0
H504 H 0.72575 0.05273 0.93457 0.0
H505 H 0.64665 0.17605 0.84655 0.0
H506 H 0.60555 0.14747 0.82853 0.0
H507 H 0.6526 0.14255 0.81106 0.0
C508 C 0.86558 0.81319 0.36983 0.0
C509 C 0.85114 0.81469 0.33307 0.0
C510 C 0.88376 0.84487 0.38733 0.0
C511 C 0.8869 0.87908 0.36783 0.0
C512 C 0.86946 0.88136 0.33187 0.0
C513 C 0.85236 0.84894 0.31459 0.0
C514 C 0.90226 0.84101 0.42552 0.0
C515 C 0.87073 0.91759 0.31085 0.0
C516 C 0.92992 0.95869 0.42905 0.0
C517 C 0.96895 0.95905 0.42078 0.0
C518 C 0.90205 0.93507 0.40967 0.0
C519 C 0.91375 0.91023 0.38259 0.0
C520 C 0.9528 0.91207 0.37272 0.0
C521 C 0.97969 0.93678 0.39149 0.0
C522 C 0.86052 0.93529 0.41988 0.0
C523 C 0.9668 0.88596 0.34427 0.0
H524 H 0.86486 0.78668 0.38405 0.0
H525 H 0.84083 0.85016 0.28627 0.0
H526 H 0.93393 0.84558 0.42331 0.0
H527 H 0.89325 0.86227 0.44483 0.0
H528 H 0.89489 0.81322 0.43798 0.0
H529 H 0.84951 0.91638 0.28721 0.0
H530 H 0.86505 0.94053 0.32982 0.0
H531 H 0.89973 0.92426 0.29938 0.0
H532 H 0.92122 0.97543 0.45178 0.0
H533 H 0.00969 0.9371 0.3845 0.0
H534 H 0.85318 0.91307 0.4406 0.0
H535 H 0.84126 0.93001 0.39502 0.0
H536 H 0.85489 0.96215 0.43255 0.0
H537 H 0.96211 0.85705 0.35467 0.0
H538 H 0.99779 0.89217 0.33853 0.0
H539 H 0.95037 0.88746 0.31755 0.0
C540 C 0.39349 0.76596 0.58158 0.0
C541 C 0.38387 0.76467 0.61949 0.0
C542 C 0.41618 0.73999 0.56632 0.0
C543 C 0.4299 0.71225 0.58964 0.0
C544 C 0.41958 0.71036 0.62777 0.0
C545 C 0.3971 0.73684 0.64232 0.0
C546 C 0.42687 0.7433 0.52569 0.0
C547 C 0.43342 0.6811 0.65355 0.0
C548 C 0.47165 0.62766 0.54979 0.0
C549 C 0.51111 0.63711 0.55545 0.0
C550 C 0.44477 0.65236 0.55944 0.0
C551 C 0.45771 0.68722 0.57526 0.0
C552 C 0.49759 0.69746 0.57945 0.0
C553 C 0.52373 0.67225 0.56967 0.0
C554 C 0.40254 0.6405 0.5542 0.0
C555 C 0.51271 0.7346 0.59549 0.0
H556 H 0.38402 0.78791 0.56401 0.0
H557 H 0.39048 0.73622 0.6718 0.0
H558 H 0.45758 0.75372 0.52377 0.0
H559 H 0.42316 0.71584 0.51183 0.0
H560 H 0.40947 0.7626 0.51009 0.0
H561 H 0.42032 0.68148 0.68155 0.0
H562 H 0.42662 0.6532 0.64111 0.0
H563 H 0.46506 0.68561 0.65723 0.0
H564 H 0.46164 0.60036 0.53938 0.0
H565 H 0.55421 0.67983 0.57389 0.0
H566 H 0.38797 0.66229 0.53925 0.0
H567 H 0.38918 0.63661 0.58196 0.0
H568 H 0.39727 0.6142 0.53825 0.0
H569 H 0.50015 0.75724 0.57992 0.0
H570 H 0.54448 0.73934 0.59448 0.0
H571 H 0.50408 0.73639 0.62505 0.0
C572 C 0.89794 0.88902 0.75551 0.0
C573 C 0.9182 0.88137 0.78844 0.0
C574 C 0.91714 0.9029 0.7237 0.0
C575 C 0.95769 0.90949 0.72479 0.0
C576 C 0.9785 0.89931 0.75701 0.0
C577 C 0.95849 0.88539 0.78853 0.0
C578 C 0.89377 0.91285 0.68976 0.0
C579 C 0.02172 0.90543 0.75914 0.0
C580 C 0.99829 0.94011 0.63055 0.0
C581 C 0.99604 0.97839 0.63289 0.0
C582 C 0.98883 0.917 0.66143 0.0
C583 C 0.97691 0.93281 0.695 0.0
C584 C 0.97822 0.97179 0.69827 0.0
C585 C 0.98763 0.994 0.66718 0.0
C586 C 0.98877 0.87567 0.65703 0.0
C587 C 0.96656 0.99005 0.73365 0.0
H588 H 0.86685 0.88506 0.75496 0.0
H589 H 0.97437 0.87941 0.81385 0.0
H590 H 0.89548 0.94344 0.68677 0.0
H591 H 0.90546 0.9016 0.66404 0.0
H592 H 0.86309 0.90219 0.69174 0.0
H593 H 0.03383 0.88958 0.7825 0.0
H594 H 0.03441 0.89734 0.73257 0.0
H595 H 0.03054 0.9353 0.76368 0.0
H596 H 0.00483 0.928 0.60404 0.0
H597 H 0.98654 0.02373 0.66917 0.0
H598 H 0.95915 0.8636 0.65024 0.0
H599 H 0.99826 0.86259 0.68331 0.0
H600 H 0.00765 0.86858 0.63406 0.0
H601 H 0.93523 0.98387 0.73739 0.0
H602 H 0.97319 0.02061 0.73298 0.0
H603 H 0.98136 0.97897 0.7584 0.0
C604 C 0.63759 0.16272 0.25607 0.0
C605 C 0.67741 0.16177 0.25307 0.0
C606 C 0.61204 0.14522 0.22928 0.0
C607 C 0.62675 0.12635 0.19895 0.0
C608 C 0.66697 0.12701 0.19486 0.0
C609 C 0.69172 0.14469 0.22192 0.0
C610 C 0.56939 0.14544 0.23438 0.0
C611 C 0.68395 0.10762 0.16271 0.0
C612 C 0.57799 0.04045 0.15308 0.0
C613 C 0.56973 0.05362 0.11718 0.0
C614 C 0.59344 0.06455 0.18124 0.0
C615 C 0.60087 0.10279 0.17327 0.0
C616 C 0.58902 0.11674 0.13827 0.0
C617 C 0.57372 0.09191 0.11049 0.0
C618 C 0.60504 0.04852 0.21837 0.0
C619 C 0.5956 0.15739 0.12887 0.0
H620 H 0.62637 0.17586 0.28014 0.0
H621 H 0.72248 0.14457 0.21908 0.0
H622 H 0.55474 0.15156 0.20754 0.0
H623 H 0.55729 0.11764 0.24368 0.0
H624 H 0.56268 0.16609 0.25557 0.0
H625 H 0.71572 0.11274 0.16231 0.0
H626 H 0.67619 0.07731 0.16482 0.0
H627 H 0.67202 0.11702 0.13569 0.0
H628 H 0.57445 0.01091 0.15858 0.0
H629 H 0.5676 0.10234 0.08279 0.0
H630 H 0.59582 0.06531 0.24182 0.0
H631 H 0.63677 0.04911 0.22028 0.0
H632 H 0.59263 0.01942 0.22197 0.0
H633 H 0.58975 0.17477 0.15318 0.0
H634 H 0.57729 0.16482 0.10473 0.0
H635 H 0.62607 0.16413 0.12149 0.0
C636 C 0.42653 0.68682 0.31517 0.0
C637 C 0.40482 0.7166 0.32147 0.0
C638 C 0.4362 0.66353 0.34458 0.0
C639 C 0.42328 0.6698 0.38113 0.0
C640 C 0.39994 0.69897 0.38733 0.0
C641 C 0.39114 0.72218 0.35737 0.0
C642 C 0.46101 0.63266 0.33665 0.0
C643 C 0.38537 0.70666 0.42566 0.0
C644 C 0.42899 0.58397 0.44026 0.0
C645 C 0.46555 0.59088 0.45699 0.0
C646 C 0.41309 0.61096 0.41822 0.0
C647 C 0.43455 0.64542 0.41231 0.0
C648 C 0.46976 0.65382 0.43216 0.0
C649 C 0.48487 0.6264 0.45439 0.0
C650 C 0.37468 0.60151 0.39889 0.0
C651 C 0.49307 0.6906 0.42736 0.0
H652 H 0.43688 0.6824 0.28733 0.0
H653 H 0.37429 0.74527 0.36214 0.0
H654 H 0.48775 0.63627 0.35402 0.0
H655 H 0.44572 0.60557 0.34423 0.0
H656 H 0.46889 0.63171 0.30676 0.0
H657 H 0.35993 0.72279 0.42397 0.0
H658 H 0.3777 0.68068 0.44138 0.0
H659 H 0.40828 0.72321 0.44182 0.0
H660 H 0.41365 0.55671 0.44274 0.0
H661 H 0.51311 0.63192 0.46732 0.0
H662 H 0.37897 0.59685 0.36867 0.0
H663 H 0.35646 0.62481 0.40128 0.0
H664 H 0.35914 0.57613 0.41069 0.0
H665 H 0.50504 0.69224 0.39885 0.0
H666 H 0.51718 0.69454 0.44812 0.0
H667 H 0.47466 0.71367 0.43019 0.0
C668 C 0.13496 0.34763 0.76968 0.0
C669 C 0.17334 0.34145 0.77775 0.0
C670 C 0.1121 0.36201 0.79691 0.0
C671 C 0.12835 0.37144 0.83257 0.0
C672 C 0.16591 0.36243 0.84177 0.0
C673 C 0.18771 0.34715 0.81442 0.0
C674 C 0.07148 0.36948 0.78668 0.0
C675 C 0.18429 0.37171 0.87961 0.0
C676 C 0.10766 0.45975 0.88006 0.0
C677 C 0.09024 0.44647 0.91301 0.0
C678 C 0.11799 0.43551 0.85253 0.0
C679 C 0.10977 0.39687 0.85751 0.0
C680 C 0.08875 0.38339 0.88894 0.0
C681 C 0.07999 0.40834 0.91685 0.0
C682 C 0.14043 0.4513 0.81957 0.0
C683 C 0.07745 0.3426 0.89438 0.0
H684 H 0.12327 0.34316 0.74157 0.0
H685 H 0.21676 0.34112 0.82139 0.0
H686 H 0.05215 0.36314 0.81052 0.0
H687 H 0.07067 0.39923 0.77971 0.0
H688 H 0.06027 0.35292 0.76205 0.0
H689 H 0.21255 0.3604 0.88328 0.0
H690 H 0.18856 0.40225 0.88299 0.0
H691 H 0.16528 0.36061 0.9022 0.0
H692 H 0.11516 0.48925 0.87661 0.0
H693 H 0.06668 0.39779 0.94229 0.0
H694 H 0.12668 0.44088 0.79295 0.0
H695 H 0.16984 0.44221 0.82085 0.0
H696 H 0.14277 0.48206 0.81896 0.0
H697 H 0.07186 0.32814 0.86723 0.0
H698 H 0.05141 0.338 0.91163 0.0
H699 H 0.10112 0.32991 0.90923 0.0
C700 C 0.77895 0.88178 0.88952 0.0
C701 C 0.8126 0.90167 0.8772 0.0
C702 C 0.74812 0.90003 0.90224 0.0
C703 C 0.75094 0.93926 0.90292 0.0
C704 C 0.78413 0.95959 0.88896 0.0
C705 C 0.81458 0.94054 0.87617 0.0
C706 C 0.71312 0.8772 0.91649 0.0
C707 C 0.78818 0.00141 0.8891 0.0
C708 C 0.6561 0.97776 0.9235 0.0
C709 C 0.65805 0.97916 0.96266 0.0
C710 C 0.68734 0.96742 0.90305 0.0
C711 C 0.72103 0.95829 0.92237 0.0
C712 C 0.72402 0.96268 0.96167 0.0
C713 C 0.69246 0.97284 0.98129 0.0
C714 C 0.68315 0.96365 0.86114 0.0
C715 C 0.75955 0.95398 0.98345 0.0
H716 H 0.77691 0.85176 0.88964 0.0
H717 H 0.84052 0.9561 0.86669 0.0
H718 H 0.711 0.88136 0.94708 0.0
H719 H 0.68672 0.8863 0.90304 0.0
H720 H 0.71401 0.84713 0.91113 0.0
H721 H 0.8136 0.01307 0.87346 0.0
H722 H 0.76214 0.01223 0.87668 0.0
H723 H 0.79113 0.01155 0.91836 0.0
H724 H 0.62949 0.98265 0.90904 0.0
H725 H 0.69415 0.97433 0.01158 0.0
H726 H 0.67739 0.93391 0.85381 0.0
H727 H 0.70996 0.97436 0.84726 0.0
H728 H 0.6591 0.97859 0.84983 0.0
H729 H 0.76181 0.92366 0.98296 0.0
H730 H 0.75907 0.963 0.01309 0.0
H731 H 0.78566 0.96763 0.97045 0.0
C732 C 0.77916 0.10659 0.34591 0.0
C733 C 0.78809 0.14499 0.34147 0.0
C734 C 0.80478 0.08459 0.36429 0.0
C735 C 0.83972 0.10144 0.37955 0.0
C736 C 0.84982 0.13971 0.37343 0.0
C737 C 0.82413 0.16087 0.35417 0.0
C738 C 0.79341 0.04369 0.36922 0.0
C739 C 0.8868 0.15886 0.38927 0.0
C740 C 0.87947 0.06862 0.47159 0.0
C741 C 0.91388 0.05515 0.46094 0.0
C742 C 0.85409 0.08183 0.44509 0.0
C743 C 0.86285 0.08093 0.40668 0.0
C744 C 0.89574 0.06416 0.3954 0.0
C745 C 0.92123 0.05185 0.42276 0.0
C746 C 0.81938 0.09936 0.45856 0.0
C747 C 0.90535 0.0613 0.35468 0.0
H748 H 0.75143 0.09381 0.33652 0.0
H749 H 0.83194 0.19018 0.34995 0.0
H750 H 0.81825 0.02742 0.36481 0.0
H751 H 0.78369 0.0383 0.39821 0.0
H752 H 0.7697 0.03357 0.34962 0.0
H753 H 0.89174 0.18809 0.37978 0.0
H754 H 0.88604 0.15855 0.42029 0.0
H755 H 0.9115 0.14391 0.381 0.0
H756 H 0.87332 0.07079 0.50105 0.0
H757 H 0.94781 0.0416 0.41427 0.0
H758 H 0.79302 0.08719 0.4438 0.0
H759 H 0.82253 0.12946 0.45217 0.0
H760 H 0.81544 0.0958 0.48914 0.0
H761 H 0.87908 0.05431 0.33723 0.0
H762 H 0.92567 0.04005 0.35014 0.0
H763 H 0.91893 0.0884 0.34492 0.0
C764 C 0.30314 0.62141 0.19279 0.0
C765 C 0.29671 0.65718 0.18057 0.0
C766 C 0.27984 0.59018 0.17947 0.0
C767 C 0.2496 0.59506 0.15344 0.0
C768 C 0.24198 0.63134 0.14263 0.0
C769 C 0.26554 0.66179 0.15634 0.0
C770 C 0.2888 0.5521 0.19198 0.0
C771 C 0.20983 0.6381 0.11525 0.0
C772 C 0.21327 0.5342 0.07359 0.0
C773 C 0.17503 0.52566 0.08368 0.0
C774 C 0.23996 0.55261 0.09848 0.0
C775 C 0.22785 0.56305 0.1341 0.0
C776 C 0.19084 0.54967 0.14625 0.0
C777 C 0.16467 0.53099 0.12076 0.0
C778 C 0.27948 0.5652 0.08468 0.0
C779 C 0.17728 0.55899 0.1845 0.0
H780 H 0.32715 0.61774 0.21167 0.0
H781 H 0.25992 0.68947 0.14757 0.0
H782 H 0.26226 0.53316 0.19491 0.0
H783 H 0.30662 0.54014 0.17069 0.0
H784 H 0.30512 0.55319 0.21902 0.0
H785 H 0.20656 0.66806 0.11131 0.0
H786 H 0.21547 0.62607 0.08764 0.0
H787 H 0.18224 0.62432 0.12508 0.0
H788 H 0.22148 0.5294 0.04507 0.0
H789 H 0.13517 0.52405 0.12876 0.0
H790 H 0.30157 0.56204 0.10687 0.0
H791 H 0.28075 0.59501 0.07712 0.0
H792 H 0.28668 0.54944 0.05961 0.0
H793 H 0.2007 0.55818 0.20581 0.0
H794 H 0.15247 0.53965 0.19297 0.0
H795 H 0.16814 0.58749 0.18406 0.0
C796 C 0.39634 0.34084 0.70903 0.0
C797 C 0.36487 0.36149 0.71382 0.0
C798 C 0.42746 0.35468 0.68728 0.0
C799 C 0.42647 0.38949 0.66944 0.0
C800 C 0.39612 0.41153 0.67661 0.0
C801 C 0.36613 0.39755 0.69938 0.0
C802 C 0.46051 0.33144 0.6821 0.0
C803 C 0.39398 0.44894 0.65833 0.0
C804 C 0.50401 0.44574 0.6165 0.0
C805 C 0.49316 0.43669 0.57942 0.0
C806 C 0.48544 0.42739 0.64663 0.0
C807 C 0.45371 0.40106 0.63941 0.0
C808 C 0.44404 0.39032 0.60211 0.0
C809 C 0.46432 0.4078 0.57267 0.0
C810 C 0.49822 0.43823 0.68597 0.0
C811 C 0.41009 0.3627 0.59301 0.0
H812 H 0.39608 0.31348 0.72139 0.0
H813 H 0.34261 0.41421 0.70434 0.0
H814 H 0.45828 0.31862 0.65392 0.0
H815 H 0.48829 0.34888 0.68394 0.0
H816 H 0.46072 0.30896 0.70327 0.0
H817 H 0.36897 0.46296 0.66767 0.0
H818 H 0.42048 0.4672 0.66476 0.0
H819 H 0.39175 0.44562 0.62748 0.0
H820 H 0.52545 0.46851 0.62225 0.0
H821 H 0.4559 0.40029 0.54414 0.0
H822 H 0.49327 0.41464 0.70566 0.0
H823 H 0.48171 0.46094 0.69559 0.0
H824 H 0.52918 0.44841 0.68716 0.0
H825 H 0.41189 0.33691 0.60941 0.0
H826 H 0.40807 0.35545 0.56282 0.0
H827 H 0.38322 0.37448 0.60076 0.0
C828 C 0.91088 0.74269 0.95564 0.0
C829 C 0.90388 0.74186 0.91688 0.0
C830 C 0.93288 0.71675 0.9731 0.0
C831 C 0.94829 0.68947 0.95118 0.0
C832 C 0.94121 0.6886 0.912 0.0
C833 C 0.91923 0.71488 0.89532 0.0
C834 C 0.93999 0.71883 0.01483 0.0
C835 C 0.95701 0.65994 0.88762 0.0
C836 C 0.03651 0.64278 0.98116 0.0
C837 C 0.02058 0.60718 0.99083 0.0
C838 C 0.01317 0.67047 0.97018 0.0
C839 C 0.97284 0.66238 0.96865 0.0
C840 C 0.95647 0.62714 0.98048 0.0
C841 C 0.98057 0.59982 0.99108 0.0
C842 C 0.03179 0.70781 0.95837 0.0
C843 C 0.91361 0.61747 0.97991 0.0
H844 H 0.89905 0.76366 0.97225 0.0
H845 H 0.91388 0.71426 0.86534 0.0
H846 H 0.93577 0.69087 0.02752 0.0
H847 H 0.97017 0.72974 0.02072 0.0
H848 H 0.92083 0.73715 0.02861 0.0
H849 H 0.94835 0.66263 0.85773 0.0
H850 H 0.98881 0.66263 0.88981 0.0
H851 H 0.94684 0.63171 0.8974 0.0
H852 H 0.06744 0.6487 0.98113 0.0
H853 H 0.96806 0.57227 0.99813 0.0
H854 H 0.01871 0.73029 0.97298 0.0
H855 H 0.02688 0.71171 0.92791 0.0
H856 H 0.06321 0.71077 0.96431 0.0
H857 H 0.89848 0.64098 0.98992 0.0
H858 H 0.90535 0.59278 0.99746 0.0
H859 H 0.9036 0.61134 0.95073 0.0
C860 C 0.40525 0.79854 0.15038 0.0
C861 C 0.37002 0.77724 0.14482 0.0
C862 C 0.42023 0.82319 0.12296 0.0
C863 C 0.40021 0.82599 0.08835 0.0
C864 C 0.36477 0.80456 0.08223 0.0
C865 C 0.34981 0.78087 0.11071 0.0
C866 C 0.45798 0.84586 0.13095 0.0
C867 C 0.343 0.80621 0.04544 0.0
C868 C 0.43639 0.91423 0.03905 0.0
C869 C 0.46857 0.90249 0.0217 0.0
C870 C 0.41099 0.88882 0.05813 0.0
C871 C 0.41758 0.85083 0.05873 0.0
C872 C 0.4468 0.83843 0.03646 0.0
C873 C 0.4725 0.86457 0.01879 0.0
C874 C 0.38055 0.90346 0.08168 0.0
C875 C 0.45385 0.79806 0.03491 0.0
H876 H 0.42176 0.79551 0.176 0.0
H877 H 0.32226 0.76517 0.10611 0.0
H878 H 0.48006 0.8375 0.11174 0.0
H879 H 0.45495 0.87569 0.12599 0.0
H880 H 0.46851 0.8424 0.16017 0.0
H881 H 0.3162 0.78721 0.04479 0.0
H882 H 0.33553 0.83483 0.04005 0.0
H883 H 0.36135 0.79878 0.02223 0.0
H884 H 0.43368 0.94367 0.04162 0.0
H885 H 0.49748 0.85557 0.00533 0.0
H886 H 0.39109 0.90563 0.11117 0.0
H887 H 0.35382 0.8845 0.08107 0.0
H888 H 0.37374 0.93138 0.07223 0.0
H889 H 0.46968 0.79062 0.06067 0.0
H890 H 0.47123 0.79205 0.01042 0.0
H891 H 0.42638 0.78014 0.03352 0.0
C892 C 0.21406 0.24624 0.64657 0.0
C893 C 0.19533 0.27698 0.65704 0.0
C894 C 0.19665 0.22019 0.62101 0.0
C895 C 0.15989 0.2253 0.60565 0.0
C896 C 0.14298 0.25841 0.61308 0.0
C897 C 0.16074 0.28371 0.63901 0.0
C898 C 0.21583 0.18551 0.61339 0.0
C899 C 0.10429 0.26539 0.59651 0.0
C900 C 0.1053 0.1568 0.53833 0.0
C901 C 0.08159 0.13614 0.56328 0.0
C902 C 0.13228 0.18536 0.55147 0.0
C903 C 0.13525 0.19304 0.59037 0.0
C904 C 0.11226 0.17109 0.6156 0.0
C905 C 0.08573 0.14314 0.60171 0.0
C906 C 0.15618 0.20804 0.52357 0.0
C907 C 0.11474 0.17775 0.65737 0.0
H908 H 0.24107 0.24126 0.66022 0.0
H909 H 0.14677 0.30805 0.64641 0.0
H910 H 0.20204 0.16233 0.63014 0.0
H911 H 0.21243 0.17762 0.58346 0.0
H912 H 0.24689 0.18893 0.62102 0.0
H913 H 0.09836 0.29479 0.59956 0.0
H914 H 0.10247 0.25796 0.56641 0.0
H915 H 0.08155 0.24774 0.61099 0.0
H916 H 0.10177 0.15166 0.50866 0.0
H917 H 0.06787 0.1267 0.62115 0.0
H918 H 0.18555 0.21603 0.53483 0.0
H919 H 0.14257 0.23385 0.51731 0.0
H920 H 0.15823 0.19276 0.49689 0.0
H921 H 0.14478 0.17724 0.66774 0.0
H922 H 0.09637 0.15674 0.67317 0.0
H923 H 0.10561 0.2055 0.66372 0.0
C924 C 0.66424 0.30675 0.40562 0.0
C925 C 0.69376 0.30197 0.38084 0.0
C926 C 0.65223 0.34188 0.41238 0.0
C927 C 0.67033 0.3733 0.394 0.0
C928 C 0.70083 0.36888 0.36953 0.0
C929 C 0.7125 0.33326 0.36352 0.0
C930 C 0.61988 0.34526 0.43908 0.0
C931 C 0.72084 0.40167 0.34953 0.0
C932 C 0.60201 0.44761 0.39127 0.0
C933 C 0.61228 0.46664 0.4246 0.0
C934 C 0.62345 0.41959 0.37846 0.0
C935 C 0.65569 0.41016 0.39975 0.0
C936 C 0.66881 0.43236 0.43087 0.0
C937 C 0.64701 0.46064 0.44282 0.0
C938 C 0.60888 0.39733 0.34461 0.0
C939 C 0.70323 0.4236 0.45422 0.0
H940 H 0.65047 0.28278 0.41983 0.0
H941 H 0.73614 0.32991 0.34517 0.0
H942 H 0.62934 0.3651 0.46174 0.0
H943 H 0.59529 0.35624 0.42405 0.0
H944 H 0.60973 0.3183 0.45199 0.0
H945 H 0.74492 0.39382 0.33245 0.0
H946 H 0.70004 0.41453 0.33091 0.0
H947 H 0.73214 0.42307 0.37005 0.0
H948 H 0.57538 0.45251 0.37684 0.0
H949 H 0.65513 0.47529 0.4686 0.0
H950 H 0.59395 0.37063 0.35391 0.0
H951 H 0.63296 0.3909 0.32685 0.0
H952 H 0.58836 0.41214 0.32739 0.0
H953 H 0.69473 0.40005 0.47313 0.0
H954 H 0.71463 0.44761 0.47168 0.0
H955 H 0.72645 0.41525 0.43639 0.0
loop_
_geom_bond_atom_site_label_1
_geom_bond_atom_site_label_2
_geom_bond_distance
_geom_bond_site_symmetry_2
_ccdc_geom_bond_type
H0 C7 0.929 . S
H1 C10 0.930 . S
H2 C12 0.929 . S
H3 C4 0.969 . S
C4 H3 0.969 . S
C4 O5 1.550 . S
C4 H6 0.973 . S
O5 C4 1.550 . S
O5 C11 1.412 . S
H6 C4 0.973 . S
C7 H0 0.929 . S
C7 C8 1.400 . S
C7 C9 1.364 . S
C8 C7 1.400 . S
C8 C12 1.377 . S
C9 C7 1.364 . S
C9 C10 1.374 . S
C10 H1 0.930 . S
C10 C9 1.374 . S
C10 C11 1.383 . S
C11 O5 1.412 . S
C11 C10 1.383 . S
C11 C12 1.394 . S
C12 H2 0.929 . S
C12 C8 1.377 . S
C12 C11 1.394 . S
H13 C20 0.929 . S
H14 C23 0.930 . S
H15 C25 0.929 . S
H16 C17 0.969 . S
C17 H16 0.969 . S
C17 O18 1.550 . S
C17 H19 0.973 . S
O18 C17 1.550 . S
O18 C24 1.412 . S
H19 C17 0.973 . S
C20 H13 0.929 . S
C20 C21 1.400 . S
C20 C22 1.364 . S
C21 C20 1.400 . S
C21 C25 1.377 . S
C22 C20 1.364 . S
C22 C23 1.374 . S
C23 H14 0.930 . S
C23 C22 1.374 . S
C23 C24 1.383 . S
C24 O18 1.412 . S
C24 C23 1.383 . S
C24 C25 1.394 . S
C25 H15 0.929 . S
C25 C21 1.377 . S
C25 C24 1.394 . S
H26 C33 0.929 . S
H27 C36 0.930 . S
H28 C38 0.929 . S
H29 C30 0.969 . S
C30 H29 0.969 . S
C30 O31 1.550 . S
C30 H32 0.973 . S
O31 C30 1.550 . S
O31 C37 1.412 . S
H32 C30 0.973 . S
C33 H26 0.929 . S
C33 C34 1.400 . S
C33 C35 1.364 . S
C34 C33 1.400 . S
C34 C38 1.377 . S
C35 C33 1.364 . S
C35 C36 1.374 . S
C36 H27 0.930 . S
C36 C35 1.374 . S
C36 C37 1.383 . S
C37 O31 1.412 . S
C37 C36 1.383 . S
C37 C38 1.394 . S
C38 H28 0.929 . S
C38 C34 1.377 . S
C38 C37 1.394 . S
H39 C46 0.929 . S
H40 C49 0.930 . S
H41 C51 0.929 . S
H42 C43 0.969 . S
C43 H42 0.969 . S
C43 O44 1.550 . S
C43 H45 0.973 . S
O44 C43 1.550 . S
O44 C50 1.412 . S
H45 C43 0.973 . S
C46 H39 0.929 . S
C46 C47 1.400 . S
C46 C48 1.364 . S
C47 C46 1.400 . S
C47 C51 1.377 . S
C48 C46 1.364 . S
C48 C49 1.374 . S
C49 H40 0.930 . S
C49 C48 1.374 . S
C49 C50 1.383 . S
C50 O44 1.412 . S
C50 C49 1.383 . S
C50 C51 1.394 . S
C51 H41 0.929 . S
C51 C47 1.377 . S
C51 C50 1.394 . S
H52 C59 0.929 . S
H53 C62 0.930 . S
H54 C64 0.929 1_455 S
H55 C56 0.969 . S
C56 H55 0.969 . S
C56 O57 1.550 1_655 S
C56 H58 0.987 . S
O57 C56 1.550 1_455 S
O57 C63 1.412 1_455 S
H58 C56 0.987 . S
C59 H52 0.929 . S
C59 C60 1.400 . S
C59 C61 1.364 . S
C60 C59 1.400 . S
C60 C64 1.377 . S
C61 C59 1.364 . S
C61 C62 1.374 . S
C62 H53 0.930 . S
C62 C61 1.374 . S
C62 C63 1.383 . S
C63 O57 1.412 1_655 S
C63 C62 1.383 . S
C63 C64 1.394 . S
C64 H54 0.929 1_655 S
C64 C60 1.377 . S
C64 C63 1.394 . S
H65 C72 0.929 . S
H66 C75 0.930 . S
H67 C77 0.929 . S
H68 C69 0.969 . S
C69 H68 0.969 . S
C69 O70 1.550 . S
C69 H71 0.973 . S
O70 C69 1.550 . S
O70 C76 1.412 . S
H71 C69 0.973 . S
C72 H65 0.929 . S
C72 C73 1.400 . S
C72 C74 1.364 . S
C73 C72 1.400 . S
C73 C77 1.377 . S
C74 C72 1.364 . S
C74 C75 1.374 . S
C75 H66 0.930 . S
C75 C74 1.374 . S
C75 C76 1.383 . S
C76 O70 1.412 . S
C76 C75 1.383 . S
C76 C77 1.394 . S
C77 H67 0.929 . S
C77 C73 1.377 . S
C77 C76 1.394 . S
H78 C85 0.929 . S
H79 C88 0.930 . S
H80 C90 0.929 . S
H81 C82 0.969 . S
C82 H81 0.969 . S
C82 O83 1.550 . S
C82 H84 0.973 . S
O83 C82 1.550 . S
O83 C89 1.412 . S
H84 C82 0.973 . S
C85 H78 0.929 . S
C85 C86 1.400 . S
C85 C87 1.364 . S
C86 C85 1.400 . S
C86 C90 1.377 . S
C87 C85 1.364 . S
C87 C88 1.374 . S
C88 H79 0.930 . S
C88 C87 1.374 . S
C88 C89 1.383 . S
C89 O83 1.412 . S
C89 C88 1.383 . S
C89 C90 1.394 . S
C90 H80 0.929 . S
C90 C86 1.377 . S
C90 C89 1.394 . S
H91 C98 0.929 . S
H92 C101 0.930 . S
H93 C103 0.929 . S
H94 C95 0.969 . S
C95 H94 0.969 . S
C95 O96 1.550 . S
C95 H97 0.973 . S
O96 C95 1.550 . S
O96 C102 1.412 . S
H97 C95 0.973 . S
C98 H91 0.929 . S
C98 C99 1.400 . S
C98 C100 1.364 . S
C99 C98 1.400 . S
C99 C103 1.377 . S
C100 C98 1.364 . S
C100 C101 1.374 . S
C101 H92 0.930 . S
C101 C100 1.374 . S
C101 C102 1.383 . S
C102 O96 1.412 . S
C102 C101 1.383 . S
C102 C103 1.394 . S
C103 H93 0.929 . S
C103 C99 1.377 . S
C103 C102 1.394 . S
Zn104 O110 1.920 . S
Zn104 O116 1.898 . S
Zn104 O119 1.905 . S
Zn105 O113 1.905 1_565 S
Zn105 O114 1.898 . S
Zn105 O122 1.920 . S
Zn106 O109 2.080 1_455 S
Zn106 O112 2.114 . S
Zn106 O115 2.120 1_445 S
Zn106 O117 2.120 . S
Zn106 O118 2.114 1_455 S
Zn106 O121 2.080 . S
C107 O112 1.166 . S
C107 O113 1.182 . S
C108 O114 1.167 1_655 S
C108 O115 1.299 . S
O109 Zn106 2.080 1_655 S
O109 C123 1.305 . S
O110 Zn104 1.920 . S
O110 C123 1.234 . S
C111 O116 1.167 1_455 S
C111 O117 1.299 . S
O112 Zn106 2.114 . S
O112 C107 1.166 . S
O113 Zn105 1.905 1_545 S
O113 C107 1.182 . S
O114 Zn105 1.898 . S
O114 C108 1.167 1_455 S
O115 Zn106 2.120 1_665 S
O115 C108 1.299 . S
O116 Zn104 1.898 . S
O116 C111 1.167 1_655 S
O117 Zn106 2.120 . S
O117 C111 1.299 . S
O118 Zn106 2.114 1_655 S
O118 C120 1.166 . S
O119 Zn104 1.905 . S
O119 C120 1.182 . S
C120 O118 1.166 . S
C120 O119 1.182 . S
O121 Zn106 2.080 . S
O121 C124 1.305 1_545 S
O122 Zn105 1.920 . S
O122 C124 1.234 . S
C123 O109 1.305 . S
C123 O110 1.234 . S
C124 O121 1.305 1_565 S
C124 O122 1.234 . S
Zn125 O131 1.920 1_556 S
Zn125 O137 1.898 . S
Zn125 O140 1.905 . S
Zn126 O134 1.905 . S
Zn126 O135 1.898 . S
Zn126 O143 1.920 . S
Zn127 O130 2.080 . S
Zn127 O133 2.114 1_545 S
Zn127 O136 2.120 1_545 S
Zn127 O138 2.127 . S
Zn127 O139 2.114 1_544 S
Zn127 O142 2.080 . S
C128 O133 1.166 . S
C128 O134 1.182 . S
C129 O135 1.167 . S
C129 O136 1.299 . S
O130 Zn127 2.080 . S
O130 C144 1.305 . S
O131 Zn125 1.920 1_554 S
O131 C144 1.234 . S
C132 O137 1.167 . S
C132 O138 1.278 1_556 S
O133 Zn127 2.114 1_565 S
O133 C128 1.166 . S
O134 Zn126 1.905 . S
O134 C128 1.182 . S
O135 Zn126 1.898 . S
O135 C129 1.167 . S
O136 Zn127 2.120 1_565 S
O136 C129 1.299 . S
O137 Zn125 1.898 . S
O137 C132 1.167 . S
O138 Zn127 2.127 . S
O138 C132 1.278 1_554 S
O139 Zn127 2.114 1_566 S
O139 C141 1.166 . S
O140 Zn125 1.905 . S
O140 C141 1.182 1_545 S
C141 O139 1.166 . S
C141 O140 1.182 1_565 S
O142 Zn127 2.080 . S
O142 C145 1.305 . S
O143 Zn126 1.920 . S
O143 C145 1.234 1_565 S
C144 O130 1.305 . S
C144 O131 1.234 . S
C145 O142 1.305 . S
C145 O143 1.234 1_545 S
Zn146 O152 1.920 . S
Zn146 O158 1.898 . S
Zn146 O161 1.905 . S
Zn147 O155 1.905 . S
Zn147 O156 1.898 . S
Zn147 O164 1.920 . S
Zn148 O151 2.080 . S
Zn148 O154 2.114 . S
Zn148 O157 2.120 . S
Zn148 O159 2.120 . S
Zn148 O160 2.114 . S
Zn148 O163 2.080 . S
C149 O154 1.166 . S
C149 O155 1.182 . S
C150 O156 1.167 . S
C150 O157 1.299 . S
O151 Zn148 2.080 . S
O151 C165 1.305 . S
O152 Zn146 1.920 . S
O152 C165 1.234 . S
C153 O158 1.167 . S
C153 O159 1.299 . S
O154 Zn148 2.114 . S
O154 C149 1.166 . S
O155 Zn147 1.905 . S
O155 C149 1.182 . S
O156 Zn147 1.898 . S
O156 C150 1.167 . S
O157 Zn148 2.120 . S
O157 C150 1.299 . S
O158 Zn146 1.898 . S
O158 C153 1.167 . S
O159 Zn148 2.120 . S
O159 C153 1.299 . S
O160 Zn148 2.114 . S
O160 C162 1.166 . S
O161 Zn146 1.905 . S
O161 C162 1.182 . S
C162 O160 1.166 . S
C162 O161 1.182 . S
O163 Zn148 2.080 . S
O163 C166 1.305 . S
O164 Zn147 1.920 . S
O164 C166 1.234 . S
C165 O151 1.305 . S
C165 O152 1.234 . S
C166 O163 1.305 . S
C166 O164 1.234 . S
Zn167 O173 1.920 . S
Zn167 O179 1.898 . S
Zn167 O182 1.905 . S
Zn168 O176 1.905 1_655 S
Zn168 O177 1.898 . S
Zn168 O185 1.920 . S
Zn169 O172 2.080 1_554 S
Zn169 O175 2.114 . S
Zn169 O178 2.120 1_554 S
Zn169 O180 2.120 . S
Zn169 O181 2.114 1_554 S
Zn169 O184 2.080 . S
C170 O175 1.166 . S
C170 O176 1.182 . S
C171 O177 1.167 1_556 S
C171 O178 1.299 1_655 S
O172 Zn169 2.080 1_556 S
O172 C186 1.305 . S
O173 Zn167 1.920 . S
O173 C186 1.234 . S
C174 O179 1.167 1_554 S
C174 O180 1.299 . S
O175 Zn169 2.114 . S
O175 C170 1.166 . S
O176 Zn168 1.905 1_455 S
O176 C170 1.182 . S
O177 Zn168 1.898 . S
O177 C171 1.167 1_554 S
O178 Zn169 2.120 1_556 S
O178 C171 1.299 1_455 S
O179 Zn167 1.898 . S
O179 C174 1.167 1_556 S
O180 Zn169 2.120 . S
O180 C174 1.299 . S
O181 Zn169 2.114 1_556 S
O181 C183 1.166 . S
O182 Zn167 1.905 . S
O182 C183 1.182 . S
C183 O181 1.166 . S
C183 O182 1.182 . S
O184 Zn169 2.080 . S
O184 C187 1.305 . S
O185 Zn168 1.920 . S
O185 C187 1.234 1_655 S
C186 O172 1.305 . S
C186 O173 1.234 . S
C187 O184 1.305 . S
C187 O185 1.234 1_455 S
C188 C189 1.391 . S
C188 C190 1.394 . S
C188 H204 0.931 . S
C189 C188 1.391 . S
C189 C193 1.376 . S
C190 C188 1.394 . S
C190 C191 1.369 . S
C190 C194 1.531 . S
C191 C190 1.369 . S
C191 C192 1.410 . S
C191 C199 1.503 . S
C192 C191 1.410 . S
C192 C193 1.392 . S
C192 C195 1.511 . S
C193 C189 1.376 . S
C193 C192 1.392 . S
C193 H205 0.929 . S
C194 C190 1.531 . S
C194 H206 0.960 . S
C194 H207 0.962 . S
C194 H208 0.960 . S
C195 C192 1.511 . S
C195 H209 0.961 . S
C195 H210 0.961 . S
C195 H211 0.961 . S
C196 C197 1.370 . S
C196 C198 1.363 . S
C196 H212 0.931 . S
C197 C196 1.370 . S
C197 C201 1.408 . S
C198 C196 1.363 . S
C198 C199 1.370 . S
C198 C202 1.524 . S
C199 C191 1.503 . S
C199 C198 1.370 . S
C199 C200 1.403 . S
C200 C199 1.403 . S
C200 C201 1.404 . S
C200 C203 1.539 . S
C201 C197 1.408 . S
C201 C200 1.404 . S
C201 H213 0.930 . S
C202 C198 1.524 . S
C202 H214 0.956 . S
C202 H215 0.961 . S
C202 H216 0.961 . S
C203 C200 1.539 . S
C203 H217 0.958 . S
C203 H218 0.961 . S
C203 H219 0.960 . S
H204 C188 0.931 . S
H205 C193 0.929 . S
H206 C194 0.960 . S
H207 C194 0.962 . S
H208 C194 0.960 . S
H209 C195 0.961 . S
H210 C195 0.961 . S
H211 C195 0.961 . S
H212 C196 0.931 . S
H213 C201 0.930 . S
H214 C202 0.956 . S
H215 C202 0.961 . S
H216 C202 0.961 . S
H217 C203 0.958 . S
H218 C203 0.961 . S
H219 C203 0.960 . S
C220 C221 1.391 . S
C220 C222 1.394 . S
C220 H236 0.931 . S
C221 C220 1.391 . S
C221 C225 1.376 . S
C222 C220 1.394 . S
C222 C223 1.369 . S
C222 C226 1.531 . S
C223 C222 1.369 . S
C223 C224 1.410 . S
C223 C231 1.503 . S
C224 C223 1.410 . S
C224 C225 1.392 . S
C224 C227 1.511 . S
C225 C221 1.376 . S
C225 C224 1.392 . S
C225 H237 0.929 . S
C226 C222 1.531 . S
C226 H238 0.970 . S
C226 H239 0.962 . S
C226 H240 0.960 1_565 S
C227 C224 1.511 . S
C227 H241 0.961 . S
C227 H242 0.961 . S
C227 H243 0.961 . S
C228 C229 1.370 . S
C228 C230 1.363 . S
C228 H244 0.931 . S
C229 C228 1.370 . S
C229 C233 1.408 . S
C230 C228 1.363 . S
C230 C231 1.370 . S
C230 C234 1.524 . S
C231 C223 1.503 . S
C231 C230 1.370 . S
C231 C232 1.403 . S
C232 C231 1.403 . S
C232 C233 1.404 . S
C232 C235 1.539 . S
C233 C229 1.408 . S
C233 C232 1.404 . S
C233 H245 0.930 . S
C234 C230 1.524 . S
C234 H246 0.956 . S
C234 H247 0.961 . S
C234 H248 0.961 . S
C235 C232 1.539 . S
C235 H249 0.980 . S
C235 H250 0.961 . S
C235 H251 0.960 . S
H236 C220 0.931 . S
H237 C225 0.929 . S
H238 C226 0.970 . S
H239 C226 0.962 . S
H240 C226 0.960 1_545 S
H241 C227 0.961 . S
H242 C227 0.961 . S
H243 C227 0.961 . S
H244 C228 0.931 . S
H245 C233 0.930 . S
H246 C234 0.956 . S
H247 C234 0.961 . S
H248 C234 0.961 . S
H249 C235 0.980 . S
H250 C235 0.961 . S
H251 C235 0.960 . S
C252 C253 1.391 . S
C252 C254 1.394 . S
C252 H268 0.931 . S
C253 C252 1.391 . S
C253 C257 1.376 . S
C254 C252 1.394 . S
C254 C255 1.369 . S
C254 C258 1.531 . S
C255 C254 1.369 . S
C255 C256 1.410 . S
C255 C263 1.503 . S
C256 C255 1.410 . S
C256 C257 1.392 . S
C256 C259 1.511 . S
C257 C253 1.376 . S
C257 C256 1.392 . S
C257 H269 0.929 . S
C258 C254 1.531 . S
C258 H270 0.960 . S
C258 H271 0.962 . S
C258 H272 0.960 . S
C259 C256 1.511 . S
C259 H273 0.961 . S
C259 H274 0.961 . S
C259 H275 0.961 . S
C260 C261 1.370 . S
C260 C262 1.363 . S
C260 H276 0.931 . S
C261 C260 1.370 . S
C261 C265 1.408 . S
C262 C260 1.363 . S
C262 C263 1.370 . S
C262 C266 1.524 . S
C263 C255 1.503 . S
C263 C262 1.370 . S
C263 C264 1.403 . S
C264 C263 1.403 . S
C264 C265 1.404 . S
C264 C267 1.539 . S
C265 C261 1.408 . S
C265 C264 1.404 . S
C265 H277 0.930 . S
C266 C262 1.524 . S
C266 H278 0.956 . S
C266 H279 0.961 . S
C266 H280 0.961 . S
C267 C264 1.539 . S
C267 H281 0.958 . S
C267 H282 0.961 . S
C267 H283 0.960 . S
H268 C252 0.931 . S
H269 C257 0.929 . S
H270 C258 0.960 . S
H271 C258 0.962 . S
H272 C258 0.960 . S
H273 C259 0.961 . S
H274 C259 0.961 . S
H275 C259 0.961 . S
H276 C260 0.931 . S
H277 C265 0.930 . S
H278 C266 0.956 . S
H279 C266 0.961 . S
H280 C266 0.961 . S
H281 C267 0.958 . S
H282 C267 0.961 . S
H283 C267 0.960 . S
C284 C285 1.391 . S
C284 C286 1.394 . S
C284 H300 0.931 . S
C285 C284 1.391 . S
C285 C289 1.376 . S
C286 C284 1.394 . S
C286 C287 1.369 . S
C286 C290 1.531 . S
C287 C286 1.369 . S
C287 C288 1.410 . S
C287 C295 1.503 . S
C288 C287 1.410 . S
C288 C289 1.392 . S
C288 C291 1.511 1_655 S
C289 C285 1.376 . S
C289 C288 1.392 . S
C289 H301 0.929 . S
C290 C286 1.531 . S
C290 H302 0.960 . S
C290 H303 0.962 . S
C290 H304 0.960 . S
C291 C288 1.511 1_455 S
C291 H305 0.961 . S
C291 H306 0.961 . S
C291 H307 0.961 . S
C292 C293 1.370 1_655 S
C292 C294 1.363 . S
C292 H308 0.931 . S
C293 C292 1.370 1_455 S
C293 C297 1.408 . S
C294 C292 1.363 . S
C294 C295 1.370 . S
C294 C298 1.524 . S
C295 C287 1.503 . S
C295 C294 1.370 . S
C295 C296 1.403 1_655 S
C296 C295 1.403 1_455 S
C296 C297 1.404 . S
C296 C299 1.539 . S
C297 C293 1.408 . S
C297 C296 1.404 . S
C297 H309 0.930 . S
C298 C294 1.524 . S
C298 H310 0.956 . S
C298 H311 0.961 . S
C298 H312 0.961 . S
C299 C296 1.539 . S
C299 H313 0.958 . S
C299 H314 0.961 . S
C299 H315 0.960 . S
H300 C284 0.931 . S
H301 C289 0.929 . S
H302 C290 0.960 . S
H303 C290 0.962 . S
H304 C290 0.960 . S
H305 C291 0.961 . S
H306 C291 0.961 . S
H307 C291 0.961 . S
H308 C292 0.931 . S
H309 C297 0.930 . S
H310 C298 0.956 . S
H311 C298 0.961 . S
H312 C298 0.961 . S
H313 C299 0.958 . S
H314 C299 0.961 . S
H315 C299 0.960 . S
C316 C317 1.391 . S
C316 C318 1.394 . S
C316 H332 0.931 . S
C317 C316 1.391 . S
C317 C321 1.376 . S
C318 C316 1.394 . S
C318 C319 1.369 . S
C318 C322 1.531 . S
C319 C318 1.369 . S
C319 C320 1.410 . S
C319 C327 1.503 . S
C320 C319 1.410 . S
C320 C321 1.392 . S
C320 C323 1.511 . S
C321 C317 1.376 . S
C321 C320 1.392 . S
C321 H333 0.929 . S
C322 C318 1.531 . S
C322 H334 0.960 . S
C322 H335 0.962 . S
C322 H336 0.960 . S
C323 C320 1.511 . S
C323 H337 0.961 . S
C323 H338 0.961 . S
C323 H339 0.961 . S
C324 C325 1.370 . S
C324 C326 1.363 . S
C324 H340 0.931 . S
C325 C324 1.370 . S
C325 C329 1.408 . S
C326 C324 1.363 . S
C326 C327 1.370 . S
C326 C330 1.524 . S
C327 C319 1.503 . S
C327 C326 1.370 . S
C327 C328 1.403 . S
C328 C327 1.403 . S
C328 C329 1.404 . S
C328 C331 1.539 . S
C329 C325 1.408 . S
C329 C328 1.404 . S
C329 H341 0.930 . S
C330 C326 1.524 . S
C330 H342 0.956 . S
C330 H343 0.961 . S
C330 H344 0.961 . S
C331 C328 1.539 . S
C331 H345 0.958 . S
C331 H346 0.961 1_545 S
C331 H347 0.960 . S
H332 C316 0.931 . S
H333 C321 0.929 . S
H334 C322 0.960 . S
H335 C322 0.962 . S
H336 C322 0.960 . S
H337 C323 0.961 . S
H338 C323 0.961 . S
H339 C323 0.961 . S
H340 C324 0.931 . S
H341 C329 0.930 . S
H342 C330 0.956 . S
H343 C330 0.961 . S
H344 C330 0.961 . S
H345 C331 0.958 . S
H346 C331 0.961 1_565 S
H347 C331 0.960 . S
C348 C349 1.391 . S
C348 C350 1.394 . S
C348 H364 0.931 . S
C349 C348 1.391 . S
C349 C353 1.376 . S
C350 C348 1.394 . S
C350 C351 1.369 . S
C350 C354 1.531 . S
C351 C350 1.369 . S
C351 C352 1.410 . S
C351 C359 1.503 . S
C352 C351 1.410 . S
C352 C353 1.392 . S
C352 C355 1.511 . S
C353 C349 1.376 . S
C353 C352 1.392 . S
C353 H365 0.929 . S
C354 C350 1.531 . S
C354 H366 0.960 . S
C354 H367 0.962 . S
C354 H368 0.960 . S
C355 C352 1.511 . S
C355 H369 0.961 . S
C355 H370 0.961 . S
C355 H371 0.961 . S
C356 C357 1.370 . S
C356 C358 1.363 . S
C356 H372 0.931 1_565 S
C357 C356 1.370 . S
C357 C361 1.408 . S
C358 C356 1.363 . S
C358 C359 1.370 . S
C358 C362 1.536 . S
C359 C351 1.503 . S
C359 C358 1.370 . S
C359 C360 1.403 . S
C360 C359 1.403 . S
C360 C361 1.404 . S
C360 C363 1.539 . S
C361 C357 1.408 . S
C361 C360 1.404 . S
C361 H373 0.930 . S
C362 C358 1.536 . S
C362 H374 0.956 1_565 S
C362 H375 0.974 . S
C362 H376 0.937 1_565 S
C363 C360 1.539 . S
C363 H377 0.958 . S
C363 H378 0.961 . S
C363 H379 0.960 . S
H364 C348 0.931 . S
H365 C353 0.929 . S
H366 C354 0.960 . S
H367 C354 0.962 . S
H368 C354 0.960 . S
H369 C355 0.961 . S
H370 C355 0.961 . S
H371 C355 0.961 . S
H372 C356 0.931 1_545 S
H373 C361 0.930 . S
H374 C362 0.956 1_545 S
H375 C362 0.974 . S
H376 C362 0.937 1_545 S
H377 C363 0.958 . S
H378 C363 0.961 . S
H379 C363 0.960 . S
C380 C381 1.391 . S
C380 C382 1.394 . S
C380 H396 0.931 . S
C381 C380 1.391 . S
C381 C385 1.376 . S
C382 C380 1.394 . S
C382 C383 1.369 . S
C382 C386 1.531 . S
C383 C382 1.369 . S
C383 C384 1.410 . S
C383 C391 1.503 . S
C384 C383 1.410 . S
C384 C385 1.392 . S
C384 C387 1.511 . S
C385 C381 1.376 . S
C385 C384 1.392 . S
C385 H397 0.929 . S
C386 C382 1.531 . S
C386 H398 0.960 . S
C386 H399 0.962 . S
C386 H400 0.960 . S
C387 C384 1.511 . S
C387 H401 0.961 . S
C387 H402 0.961 . S
C387 H403 0.961 . S
C388 C389 1.370 . S
C388 C390 1.363 . S
C388 H404 0.931 . S
C389 C388 1.370 . S
C389 C393 1.408 . S
C390 C388 1.363 . S
C390 C391 1.370 . S
C390 C394 1.524 . S
C391 C383 1.503 . S
C391 C390 1.370 . S
C391 C392 1.403 . S
C392 C391 1.403 . S
C392 C393 1.404 . S
C392 C395 1.539 1_556 S
C393 C389 1.408 . S
C393 C392 1.404 . S
C393 H405 0.930 1_556 S
C394 C390 1.524 . S
C394 H406 0.956 . S
C394 H407 0.961 . S
C394 H408 0.961 . S
C395 C392 1.539 1_554 S
C395 H409 0.958 . S
C395 H410 0.961 . S
C395 H411 0.960 1_554 S
H396 C380 0.931 . S
H397 C385 0.929 . S
H398 C386 0.960 . S
H399 C386 0.962 . S
H400 C386 0.960 . S
H401 C387 0.961 . S
H402 C387 0.961 . S
H403 C387 0.961 . S
H404 C388 0.931 . S
H405 C393 0.930 1_554 S
H406 C394 0.956 . S
H407 C394 0.961 . S
H408 C394 0.961 . S
H409 C395 0.958 . S
H410 C395 0.961 . S
H411 C395 0.960 1_556 S
C412 C413 1.391 . S
C412 C414 1.394 . S
C412 H428 0.931 . S
C413 C412 1.391 . S
C413 C417 1.376 . S
C414 C412 1.394 . S
C414 C415 1.369 . S
C414 C418 1.531 . S
C415 C414 1.369 . S
C415 C416 1.410 . S
C415 C423 1.503 . S
C416 C415 1.410 . S
C416 C417 1.392 . S
C416 C419 1.511 . S
C417 C413 1.376 . S
C417 C416 1.392 . S
C417 H429 0.929 . S
C418 C414 1.531 . S
C418 H430 0.960 . S
C418 H431 0.962 . S
C418 H432 0.960 . S
C419 C416 1.511 . S
C419 H433 0.961 . S
C419 H434 0.961 . S
C419 H435 0.961 . S
C420 C421 1.370 . S
C420 C422 1.363 . S
C420 H436 0.931 . S
C421 C420 1.370 . S
C421 C425 1.408 . S
C422 C420 1.363 . S
C422 C423 1.370 . S
C422 C426 1.524 . S
C423 C415 1.503 . S
C423 C422 1.370 . S
C423 C424 1.403 . S
C424 C423 1.403 . S
C424 C425 1.404 . S
C424 C427 1.539 . S
C425 C421 1.408 . S
C425 C424 1.404 . S
C425 H437 0.930 . S
C426 C422 1.524 . S
C426 H438 0.956 . S
C426 H439 0.961 . S
C426 H440 0.961 . S
C427 C424 1.539 . S
C427 H441 0.958 . S
C427 H442 0.961 . S
C427 H443 0.960 . S
H428 C412 0.931 . S
H429 C417 0.929 . S
H430 C418 0.960 . S
H431 C418 0.962 . S
H432 C418 0.960 . S
H433 C419 0.961 . S
H434 C419 0.961 . S
H435 C419 0.961 . S
H436 C420 0.931 . S
H437 C425 0.930 . S
H438 C426 0.956 . S
H439 C426 0.961 . S
H440 C426 0.961 . S
H441 C427 0.958 . S
H442 C427 0.961 . S
H443 C427 0.960 . S
C444 C445 1.391 . S
C444 C446 1.394 . S
C444 H460 0.931 . S
C445 C444 1.391 . S
C445 C449 1.376 . S
C446 C444 1.394 . S
C446 C447 1.369 . S
C446 C450 1.531 . S
C447 C446 1.369 . S
C447 C448 1.410 . S
C447 C455 1.503 . S
C448 C447 1.410 . S
C448 C449 1.392 . S
C448 C451 1.511 . S
C449 C445 1.376 . S
C449 C448 1.392 . S
C449 H461 0.929 . S
C450 C446 1.531 . S
C450 H462 0.960 . S
C450 H463 0.962 . S
C450 H464 0.960 . S
C451 C448 1.511 . S
C451 H465 0.961 . S
C451 H466 0.961 . S
C451 H467 0.961 . S
C452 C453 1.370 . S
C452 C454 1.363 . S
C452 H468 0.931 . S
C453 C452 1.370 . S
C453 C457 1.408 . S
C454 C452 1.363 . S
C454 C455 1.370 . S
C454 C458 1.524 . S
C455 C447 1.503 . S
C455 C454 1.370 . S
C455 C456 1.403 . S
C456 C455 1.403 . S
C456 C457 1.404 . S
C456 C459 1.539 . S
C457 C453 1.408 . S
C457 C456 1.404 . S
C457 H469 0.930 . S
C458 C454 1.524 . S
C458 H470 0.956 . S
C458 H471 0.961 . S
C458 H472 0.961 . S
C459 C456 1.539 . S
C459 H473 0.958 . S
C459 H474 0.961 . S
C459 H475 0.960 . S
H460 C444 0.931 . S
H461 C449 0.929 . S
H462 C450 0.960 . S
H463 C450 0.962 . S
H464 C450 0.960 . S
H465 C451 0.961 . S
H466 C451 0.961 . S
H467 C451 0.961 . S
H468 C452 0.931 . S
H469 C457 0.930 . S
H470 C458 0.956 . S
H471 C458 0.961 . S
H472 C458 0.961 . S
H473 C459 0.958 . S
H474 C459 0.961 . S
H475 C459 0.960 . S
C476 C477 1.391 . S
C476 C478 1.394 . S
C476 H492 0.931 . S
C477 C476 1.391 . S
C477 C481 1.376 . S
C478 C476 1.394 . S
C478 C479 1.369 . S
C478 C482 1.531 . S
C479 C478 1.369 . S
C479 C480 1.410 . S
C479 C487 1.503 . S
C480 C479 1.410 . S
C480 C481 1.392 . S
C480 C483 1.511 . S
C481 C477 1.376 . S
C481 C480 1.392 . S
C481 H493 0.929 . S
C482 C478 1.531 . S
C482 H494 0.960 . S
C482 H495 0.962 . S
C482 H496 0.960 . S
C483 C480 1.511 . S
C483 H497 0.961 . S
C483 H498 0.961 . S
C483 H499 0.961 . S
C484 C485 1.370 . S
C484 C486 1.363 . S
C484 H500 0.931 . S
C485 C484 1.370 . S
C485 C489 1.408 . S
C486 C484 1.363 . S
C486 C487 1.370 . S
C486 C490 1.524 . S
C487 C479 1.503 . S
C487 C486 1.370 . S
C487 C488 1.403 . S
C488 C487 1.403 . S
C488 C489 1.404 . S
C488 C491 1.539 . S
C489 C485 1.408 . S
C489 C488 1.404 . S
C489 H501 0.930 . S
C490 C486 1.524 . S
C490 H502 0.956 . S
C490 H503 0.961 . S
C490 H504 0.961 . S
C491 C488 1.539 . S
C491 H505 0.958 . S
C491 H506 0.961 . S
C491 H507 0.960 . S
H492 C476 0.931 . S
H493 C481 0.929 . S
H494 C482 0.960 . S
H495 C482 0.962 . S
H496 C482 0.960 . S
H497 C483 0.961 . S
H498 C483 0.961 . S
H499 C483 0.961 . S
H500 C484 0.931 . S
H501 C489 0.930 . S
H502 C490 0.956 . S
H503 C490 0.961 . S
H504 C490 0.961 . S
H505 C491 0.958 . S
H506 C491 0.961 . S
H507 C491 0.960 . S
C508 C509 1.391 . S
C508 C510 1.394 . S
C508 H524 0.931 . S
C509 C508 1.391 . S
C509 C513 1.376 . S
C510 C508 1.394 . S
C510 C511 1.369 . S
C510 C514 1.531 . S
C511 C510 1.369 . S
C511 C512 1.410 . S
C511 C519 1.503 . S
C512 C511 1.410 . S
C512 C513 1.392 . S
C512 C515 1.511 . S
C513 C509 1.376 . S
C513 C512 1.392 . S
C513 H525 0.929 . S
C514 C510 1.531 . S
C514 H526 0.960 . S
C514 H527 0.962 . S
C514 H528 0.960 . S
C515 C512 1.511 . S
C515 H529 0.961 . S
C515 H530 0.961 . S
C515 H531 0.961 . S
C516 C517 1.370 . S
C516 C518 1.363 . S
C516 H532 0.931 . S
C517 C516 1.370 . S
C517 C521 1.408 . S
C518 C516 1.363 . S
C518 C519 1.370 . S
C518 C522 1.524 . S
C519 C511 1.503 . S
C519 C518 1.370 . S
C519 C520 1.403 . S
C520 C519 1.403 . S
C520 C521 1.404 . S
C520 C523 1.539 1_655 S
C521 C517 1.408 . S
C521 C520 1.404 . S
C521 H533 0.930 1_655 S
C522 C518 1.524 . S
C522 H534 0.956 . S
C522 H535 0.961 . S
C522 H536 0.961 . S
C523 C520 1.539 1_455 S
C523 H537 0.958 . S
C523 H538 0.961 . S
C523 H539 0.960 . S
H524 C508 0.931 . S
H525 C513 0.929 . S
H526 C514 0.960 . S
H527 C514 0.962 . S
H528 C514 0.960 . S
H529 C515 0.961 . S
H530 C515 0.961 . S
H531 C515 0.961 . S
H532 C516 0.931 . S
H533 C521 0.930 1_455 S
H534 C522 0.956 . S
H535 C522 0.961 . S
H536 C522 0.961 . S
H537 C523 0.958 . S
H538 C523 0.961 . S
H539 C523 0.960 . S
C540 C541 1.391 . S
C540 C542 1.394 . S
C540 H556 0.931 . S
C541 C540 1.391 . S
C541 C545 1.376 . S
C542 C540 1.394 . S
C542 C543 1.369 . S
C542 C546 1.531 . S
C543 C542 1.369 . S
C543 C544 1.410 . S
C543 C551 1.503 . S
C544 C543 1.410 . S
C544 C545 1.392 . S
C544 C547 1.511 . S
C545 C541 1.376 . S
C545 C544 1.392 . S
C545 H557 0.929 . S
C546 C542 1.531 . S
C546 H558 0.960 . S
C546 H559 0.962 . S
C546 H560 0.960 . S
C547 C544 1.511 . S
C547 H561 0.961 . S
C547 H562 0.961 . S
C547 H563 0.961 . S
C548 C549 1.370 . S
C548 C550 1.363 . S
C548 H564 0.931 . S
C549 C548 1.370 . S
C549 C553 1.408 . S
C550 C548 1.363 . S
C550 C551 1.370 . S
C550 C554 1.524 . S
C551 C543 1.503 . S
C551 C550 1.370 . S
C551 C552 1.403 . S
C552 C551 1.403 . S
C552 C553 1.404 . S
C552 C555 1.539 . S
C553 C549 1.408 . S
C553 C552 1.404 . S
C553 H565 0.930 . S
C554 C550 1.524 . S
C554 H566 0.956 . S
C554 H567 0.961 . S
C554 H568 0.961 . S
C555 C552 1.539 . S
C555 H569 0.958 . S
C555 H570 0.961 . S
C555 H571 0.960 . S
H556 C540 0.931 . S
H557 C545 0.929 . S
H558 C546 0.960 . S
H559 C546 0.962 . S
H560 C546 0.960 . S
H561 C547 0.961 . S
H562 C547 0.961 . S
H563 C547 0.961 . S
H564 C548 0.931 . S
H565 C553 0.930 . S
H566 C554 0.956 . S
H567 C554 0.961 . S
H568 C554 0.961 . S
H569 C555 0.958 . S
H570 C555 0.961 . S
H571 C555 0.960 . S
C572 C573 1.391 . S
C572 C574 1.394 . S
C572 H588 0.931 . S
C573 C572 1.391 . S
C573 C577 1.376 1_655 S
C574 C572 1.394 . S
C574 C575 1.369 . S
C574 C578 1.531 . S
C575 C574 1.369 . S
C575 C576 1.410 1_665 S
C575 C583 1.503 . S
C576 C575 1.410 1_445 S
C576 C577 1.392 1_545 S
C576 C579 1.511 . S
C577 C573 1.376 1_455 S
C577 C576 1.392 1_565 S
C577 H589 0.929 1_565 S
C578 C574 1.531 . S
C578 H590 0.960 . S
C578 H591 0.962 . S
C578 H592 0.960 . S
C579 C576 1.511 . S
C579 H593 0.961 . S
C579 H594 0.961 . S
C579 H595 0.961 . S
C580 C581 1.370 1_465 S
C580 C582 1.363 . S
C580 H596 0.931 . S
C581 C580 1.370 1_645 S
C581 C585 1.408 . S
C582 C580 1.363 . S
C582 C583 1.370 1_455 S
C582 C586 1.524 . S
C583 C575 1.503 . S
C583 C582 1.370 1_655 S
C583 C584 1.403 1_565 S
C584 C583 1.403 1_545 S
C584 C585 1.404 . S
C584 C587 1.539 . S
C585 C581 1.408 . S
C585 C584 1.404 . S
C585 H597 0.930 . S
C586 C582 1.524 . S
C586 H598 0.956 . S
C586 H599 0.961 . S
C586 H600 0.961 . S
C587 C584 1.539 . S
C587 H601 0.958 . S
C587 H602 0.961 . S
C587 H603 0.960 . S
H588 C572 0.931 . S
H589 C577 0.929 1_545 S
H590 C578 0.960 . S
H591 C578 0.962 . S
H592 C578 0.960 . S
H593 C579 0.961 . S
H594 C579 0.961 . S
H595 C579 0.961 . S
H596 C580 0.931 . S
H597 C585 0.930 . S
H598 C586 0.956 . S
H599 C586 0.961 . S
H600 C586 0.961 . S
H601 C587 0.958 . S
H602 C587 0.961 . S
H603 C587 0.960 . S
C604 C605 1.391 . S
C604 C606 1.394 . S
C604 H620 0.931 . S
C605 C604 1.391 . S
C605 C609 1.376 . S
C606 C604 1.394 . S
C606 C607 1.369 . S
C606 C610 1.531 . S
C607 C606 1.369 . S
C607 C608 1.410 . S
C607 C615 1.503 . S
C608 C607 1.410 . S
C608 C609 1.392 . S
C608 C611 1.511 . S
C609 C605 1.376 . S
C609 C608 1.392 . S
C609 H621 0.929 . S
C610 C606 1.531 . S
C610 H622 0.960 . S
C610 H623 0.962 . S
C610 H624 0.960 . S
C611 C608 1.511 . S
C611 H625 0.961 . S
C611 H626 0.961 . S
C611 H627 0.961 . S
C612 C613 1.370 . S
C612 C614 1.363 . S
C612 H628 0.948 . S
C613 C612 1.370 . S
C613 C617 1.408 . S
C614 C612 1.363 . S
C614 C615 1.370 . S
C614 C618 1.524 . S
C615 C607 1.503 . S
C615 C614 1.370 . S
C615 C616 1.403 . S
C616 C615 1.403 . S
C616 C617 1.404 . S
C616 C619 1.539 . S
C617 C613 1.408 . S
C617 C616 1.404 . S
C617 H629 0.930 . S
C618 C614 1.524 . S
C618 H630 0.956 . S
C618 H631 0.961 1_545 S
C618 H632 0.961 1_545 S
C619 C616 1.539 . S
C619 H633 0.958 . S
C619 H634 0.961 . S
C619 H635 0.960 . S
H620 C604 0.931 . S
H621 C609 0.929 . S
H622 C610 0.960 . S
H623 C610 0.962 . S
H624 C610 0.960 . S
H625 C611 0.961 . S
H626 C611 0.961 . S
H627 C611 0.961 . S
H628 C612 0.948 . S
H629 C617 0.930 . S
H630 C618 0.956 . S
H631 C618 0.961 1_565 S
H632 C618 0.961 1_565 S
H633 C619 0.958 . S
H634 C619 0.961 . S
H635 C619 0.960 . S
C636 C637 1.391 . S
C636 C638 1.394 . S
C636 H652 0.931 . S
C637 C636 1.391 . S
C637 C641 1.376 . S
C638 C636 1.394 . S
C638 C639 1.369 . S
C638 C642 1.531 . S
C639 C638 1.369 . S
C639 C640 1.410 . S
C639 C647 1.503 . S
C640 C639 1.410 . S
C640 C641 1.392 . S
C640 C643 1.511 . S
C641 C637 1.376 . S
C641 C640 1.392 . S
C641 H653 0.929 . S
C642 C638 1.531 . S
C642 H654 0.960 . S
C642 H655 0.962 . S
C642 H656 0.960 . S
C643 C640 1.511 . S
C643 H657 0.961 . S
C643 H658 0.961 . S
C643 H659 0.961 . S
C644 C645 1.370 . S
C644 C646 1.363 . S
C644 H660 0.931 . S
C645 C644 1.370 . S
C645 C649 1.408 . S
C646 C644 1.363 . S
C646 C647 1.370 . S
C646 C650 1.524 . S
C647 C639 1.503 . S
C647 C646 1.370 . S
C647 C648 1.403 . S
C648 C647 1.403 . S
C648 C649 1.404 . S
C648 C651 1.539 . S
C649 C645 1.408 . S
C649 C648 1.404 . S
C649 H661 0.930 . S
C650 C646 1.524 . S
C650 H662 0.956 . S
C650 H663 0.961 . S
C650 H664 0.961 . S
C651 C648 1.539 . S
C651 H665 0.958 . S
C651 H666 0.961 . S
C651 H667 0.960 . S
H652 C636 0.931 . S
H653 C641 0.929 . S
H654 C642 0.960 . S
H655 C642 0.962 . S
H656 C642 0.960 . S
H657 C643 0.961 . S
H658 C643 0.961 . S
H659 C643 0.961 . S
H660 C644 0.931 . S
H661 C649 0.930 . S
H662 C650 0.956 . S
H663 C650 0.961 . S
H664 C650 0.961 . S
H665 C651 0.958 . S
H666 C651 0.961 . S
H667 C651 0.960 . S
C668 C669 1.391 . S
C668 C670 1.394 . S
C668 H684 0.931 . S
C669 C668 1.391 . S
C669 C673 1.376 . S
C670 C668 1.394 . S
C670 C671 1.369 . S
C670 C674 1.531 . S
C671 C670 1.369 . S
C671 C672 1.410 . S
C671 C679 1.503 . S
C672 C671 1.410 . S
C672 C673 1.392 . S
C672 C675 1.511 . S
C673 C669 1.376 . S
C673 C672 1.392 . S
C673 H685 0.929 . S
C674 C670 1.531 . S
C674 H686 0.960 . S
C674 H687 0.962 . S
C674 H688 0.960 . S
C675 C672 1.511 . S
C675 H689 0.961 . S
C675 H690 0.961 . S
C675 H691 0.961 . S
C676 C677 1.370 . S
C676 C678 1.363 . S
C676 H692 0.931 . S
C677 C676 1.370 . S
C677 C681 1.408 . S
C678 C676 1.363 . S
C678 C679 1.370 . S
C678 C682 1.524 . S
C679 C671 1.503 . S
C679 C678 1.370 . S
C679 C680 1.403 . S
C680 C679 1.403 . S
C680 C681 1.404 . S
C680 C683 1.539 . S
C681 C677 1.408 . S
C681 C680 1.404 . S
C681 H693 0.930 . S
C682 C678 1.524 . S
C682 H694 0.956 . S
C682 H695 0.961 . S
C682 H696 0.961 . S
C683 C680 1.539 . S
C683 H697 0.958 . S
C683 H698 0.961 . S
C683 H699 0.960 . S
H684 C668 0.931 . S
H685 C673 0.929 . S
H686 C674 0.960 . S
H687 C674 0.962 . S
H688 C674 0.960 . S
H689 C675 0.961 . S
H690 C675 0.961 . S
H691 C675 0.961 . S
H692 C676 0.931 . S
H693 C681 0.930 . S
H694 C682 0.956 . S
H695 C682 0.961 . S
H696 C682 0.961 . S
H697 C683 0.958 . S
H698 C683 0.961 . S
H699 C683 0.960 . S
C700 C701 1.391 . S
C700 C702 1.394 1_556 S
C700 H716 0.931 1_556 S
C701 C700 1.391 . S
C701 C705 1.376 . S
C702 C700 1.394 1_554 S
C702 C703 1.369 1_554 S
C702 C706 1.531 . S
C703 C702 1.369 1_556 S
C703 C704 1.410 . S
C703 C711 1.503 . S
C704 C703 1.410 . S
C704 C705 1.392 . S
C704 C707 1.511 1_565 S
C705 C701 1.376 . S
C705 C704 1.392 . S
C705 H717 0.917 1_565 S
C706 C702 1.531 . S
C706 H718 0.960 . S
C706 H719 0.962 . S
C706 H720 0.960 . S
C707 C704 1.511 1_545 S
C707 H721 0.961 . S
C707 H722 0.961 . S
C707 H723 0.961 . S
C708 C709 1.370 . S
C708 C710 1.363 . S
C708 H724 0.931 . S
C709 C708 1.370 . S
C709 C713 1.408 1_566 S
C710 C708 1.363 . S
C710 C711 1.370 . S
C710 C714 1.524 . S
C711 C703 1.503 . S
C711 C710 1.370 . S
C711 C712 1.403 1_566 S
C712 C711 1.403 1_544 S
C712 C713 1.404 . S
C712 C715 1.539 . S
C713 C709 1.408 1_544 S
C713 C712 1.404 . S
C713 H725 0.930 . S
C714 C710 1.524 . S
C714 H726 0.956 . S
C714 H727 0.961 . S
C714 H728 0.961 . S
C715 C712 1.539 . S
C715 H729 0.958 . S
C715 H730 0.961 . S
C715 H731 0.960 . S
H716 C700 0.931 1_554 S
H717 C705 0.917 1_545 S
H718 C706 0.960 . S
H719 C706 0.962 . S
H720 C706 0.960 . S
H721 C707 0.961 . S
H722 C707 0.961 . S
H723 C707 0.961 . S
H724 C708 0.931 . S
H725 C713 0.930 . S
H726 C714 0.956 . S
H727 C714 0.961 . S
H728 C714 0.961 . S
H729 C715 0.958 . S
H730 C715 0.961 . S
H731 C715 0.960 . S
C732 C733 1.391 . S
C732 C734 1.394 . S
C732 H748 0.931 . S
C733 C732 1.391 . S
C733 C737 1.376 . S
C734 C732 1.394 . S
C734 C735 1.369 . S
C734 C738 1.531 . S
C735 C734 1.369 . S
C735 C736 1.410 . S
C735 C743 1.503 . S
C736 C735 1.410 . S
C736 C737 1.392 . S
C736 C739 1.511 . S
C737 C733 1.376 . S
C737 C736 1.392 . S
C737 H749 0.929 . S
C738 C734 1.531 . S
C738 H750 0.960 . S
C738 H751 0.962 . S
C738 H752 0.960 . S
C739 C736 1.511 . S
C739 H753 0.961 . S
C739 H754 0.961 . S
C739 H755 0.961 . S
C740 C741 1.370 . S
C740 C742 1.363 . S
C740 H756 0.931 . S
C741 C740 1.370 . S
C741 C745 1.408 . S
C742 C740 1.363 . S
C742 C743 1.370 . S
C742 C746 1.524 . S
C743 C735 1.503 . S
C743 C742 1.370 . S
C743 C744 1.403 . S
C744 C743 1.403 . S
C744 C745 1.404 . S
C744 C747 1.539 1_545 S
C745 C741 1.408 . S
C745 C744 1.404 . S
C745 H757 0.930 . S
C746 C742 1.524 . S
C746 H758 0.956 . S
C746 H759 0.961 . S
C746 H760 0.961 . S
C747 C744 1.539 1_565 S
C747 H761 0.958 . S
C747 H762 0.961 . S
C747 H763 0.960 1_565 S
H748 C732 0.931 . S
H749 C737 0.929 . S
H750 C738 0.960 . S
H751 C738 0.962 . S
H752 C738 0.960 . S
H753 C739 0.961 . S
H754 C739 0.961 . S
H755 C739 0.961 . S
H756 C740 0.931 . S
H757 C745 0.930 . S
H758 C746 0.956 . S
H759 C746 0.961 . S
H760 C746 0.961 . S
H761 C747 0.958 . S
H762 C747 0.961 . S
H763 C747 0.960 1_545 S
C764 C765 1.391 . S
C764 C766 1.394 . S
C764 H780 0.931 . S
C765 C764 1.391 . S
C765 C769 1.376 . S
C766 C764 1.394 . S
C766 C767 1.369 . S
C766 C770 1.531 . S
C767 C766 1.369 . S
C767 C768 1.410 . S
C767 C775 1.503 . S
C768 C767 1.410 . S
C768 C769 1.392 . S
C768 C771 1.511 . S
C769 C765 1.376 . S
C769 C768 1.392 . S
C769 H781 0.929 . S
C770 C766 1.531 . S
C770 H782 0.960 . S
C770 H783 0.962 1_554 S
C770 H784 0.960 . S
C771 C768 1.511 . S
C771 H785 0.961 . S
C771 H786 0.961 . S
C771 H787 0.961 . S
C772 C773 1.370 . S
C772 C774 1.363 . S
C772 H788 0.931 1_554 S
C773 C772 1.370 . S
C773 C777 1.408 . S
C774 C772 1.363 . S
C774 C775 1.370 . S
C774 C778 1.524 1_554 S
C775 C767 1.503 . S
C775 C774 1.370 . S
C775 C776 1.403 . S
C776 C775 1.403 . S
C776 C777 1.404 . S
C776 C779 1.539 . S
C777 C773 1.408 . S
C777 C776 1.404 . S
C777 H789 0.930 . S
C778 C774 1.524 1_556 S
C778 H790 0.956 . S
C778 H791 0.961 1_556 S
C778 H792 0.961 . S
C779 C776 1.539 . S
C779 H793 0.958 . S
C779 H794 0.961 . S
C779 H795 0.960 . S
H780 C764 0.931 . S
H781 C769 0.929 . S
H782 C770 0.960 . S
H783 C770 0.962 1_556 S
H784 C770 0.960 . S
H785 C771 0.961 . S
H786 C771 0.961 . S
H787 C771 0.961 . S
H788 C772 0.931 1_556 S
H789 C777 0.930 . S
H790 C778 0.956 . S
H791 C778 0.961 1_554 S
H792 C778 0.961 . S
H793 C779 0.958 . S
H794 C779 0.961 . S
H795 C779 0.960 . S
C796 C797 1.391 . S
C796 C798 1.394 . S
C796 H812 0.931 . S
C797 C796 1.391 . S
C797 C801 1.376 . S
C798 C796 1.394 . S
C798 C799 1.369 . S
C798 C802 1.531 . S
C799 C798 1.369 . S
C799 C800 1.410 . S
C799 C807 1.503 . S
C800 C799 1.410 . S
C800 C801 1.392 . S
C800 C803 1.511 . S
C801 C797 1.376 . S
C801 C800 1.392 . S
C801 H813 0.929 . S
C802 C798 1.531 . S
C802 H814 0.960 . S
C802 H815 0.962 . S
C802 H816 0.960 . S
C803 C800 1.511 . S
C803 H817 0.961 . S
C803 H818 0.961 . S
C803 H819 0.961 . S
C804 C805 1.370 . S
C804 C806 1.363 . S
C804 H820 0.931 . S
C805 C804 1.370 . S
C805 C809 1.408 . S
C806 C804 1.363 . S
C806 C807 1.370 . S
C806 C810 1.524 . S
C807 C799 1.503 . S
C807 C806 1.370 . S
C807 C808 1.403 . S
C808 C807 1.403 . S
C808 C809 1.404 . S
C808 C811 1.539 . S
C809 C805 1.408 . S
C809 C808 1.404 . S
C809 H821 0.930 . S
C810 C806 1.524 . S
C810 H822 0.956 . S
C810 H823 0.961 . S
C810 H824 0.961 . S
C811 C808 1.539 . S
C811 H825 0.958 . S
C811 H826 0.961 . S
C811 H827 0.960 . S
H812 C796 0.931 . S
H813 C801 0.929 . S
H814 C802 0.960 . S
H815 C802 0.962 . S
H816 C802 0.960 . S
H817 C803 0.961 . S
H818 C803 0.961 . S
H819 C803 0.961 . S
H820 C804 0.931 . S
H821 C809 0.930 . S
H822 C810 0.956 . S
H823 C810 0.961 . S
H824 C810 0.961 . S
H825 C811 0.958 . S
H826 C811 0.961 . S
H827 C811 0.960 . S
C828 C829 1.391 1_554 S
C828 C830 1.394 . S
C828 H844 0.931 . S
C829 C828 1.391 1_556 S
C829 C833 1.376 1_455 S
C830 C828 1.394 . S
C830 C831 1.369 1_554 S
C830 C834 1.531 . S
C831 C830 1.369 1_556 S
C831 C832 1.410 1_455 S
C831 C839 1.503 . S
C832 C831 1.410 1_655 S
C832 C833 1.392 . S
C832 C835 1.511 . S
C833 C829 1.376 1_655 S
C833 C832 1.392 . S
C833 H845 0.929 . S
C834 C830 1.531 . S
C834 H846 0.960 . S
C834 H847 0.962 . S
C834 H848 0.960 . S
C835 C832 1.511 . S
C835 H849 0.961 . S
C835 H850 0.961 . S
C835 H851 0.961 . S
C836 C837 1.370 . S
C836 C838 1.363 . S
C836 H852 0.931 . S
C837 C836 1.370 . S
C837 C841 1.408 1_556 S
C838 C836 1.363 . S
C838 C839 1.370 . S
C838 C842 1.524 . S
C839 C831 1.503 . S
C839 C838 1.370 . S
C839 C840 1.403 1_556 S
C840 C839 1.403 1_554 S
C840 C841 1.404 . S
C840 C843 1.539 1_455 S
C841 C837 1.408 1_554 S
C841 C840 1.404 . S
C841 H853 0.930 . S
C842 C838 1.524 . S
C842 H854 0.956 . S
C842 H855 0.961 . S
C842 H856 0.961 . S
C843 C840 1.539 1_655 S
C843 H857 0.958 1_655 S
C843 H858 0.961 . S
C843 H859 0.960 . S
H844 C828 0.931 . S
H845 C833 0.929 . S
H846 C834 0.960 . S
H847 C834 0.962 . S
H848 C834 0.960 . S
H849 C835 0.961 . S
H850 C835 0.961 . S
H851 C835 0.961 . S
H852 C836 0.931 . S
H853 C841 0.930 . S
H854 C842 0.956 . S
H855 C842 0.961 . S
H856 C842 0.961 . S
H857 C843 0.958 1_455 S
H858 C843 0.961 . S
H859 C843 0.960 . S
C860 C861 1.391 . S
C860 C862 1.394 . S
C860 H876 0.931 . S
C861 C860 1.391 . S
C861 C865 1.376 . S
C862 C860 1.394 . S
C862 C863 1.369 . S
C862 C866 1.531 . S
C863 C862 1.369 . S
C863 C864 1.410 . S
C863 C871 1.503 . S
C864 C863 1.410 . S
C864 C865 1.392 . S
C864 C867 1.511 . S
C865 C861 1.376 . S
C865 C864 1.392 . S
C865 H877 0.929 . S
C866 C862 1.531 . S
C866 H878 0.960 . S
C866 H879 0.962 . S
C866 H880 0.960 . S
C867 C864 1.511 . S
C867 H881 0.961 . S
C867 H882 0.961 . S
C867 H883 0.961 . S
C868 C869 1.370 . S
C868 C870 1.363 . S
C868 H884 0.931 . S
C869 C868 1.370 . S
C869 C873 1.408 . S
C870 C868 1.363 . S
C870 C871 1.370 . S
C870 C874 1.524 . S
C871 C863 1.503 . S
C871 C870 1.370 . S
C871 C872 1.403 . S
C872 C871 1.403 . S
C872 C873 1.404 . S
C872 C875 1.539 1_554 S
C873 C869 1.408 . S
C873 C872 1.404 . S
C873 H885 0.930 1_554 S
C874 C870 1.524 . S
C874 H886 0.956 . S
C874 H887 0.961 . S
C874 H888 0.961 . S
C875 C872 1.539 1_556 S
C875 H889 0.958 . S
C875 H890 0.961 . S
C875 H891 0.960 . S
H876 C860 0.931 . S
H877 C865 0.929 . S
H878 C866 0.960 . S
H879 C866 0.962 . S
H880 C866 0.960 . S
H881 C867 0.961 . S
H882 C867 0.961 . S
H883 C867 0.961 . S
H884 C868 0.931 . S
H885 C873 0.930 1_556 S
H886 C874 0.956 . S
H887 C874 0.961 . S
H888 C874 0.961 . S
H889 C875 0.958 . S
H890 C875 0.961 . S
H891 C875 0.960 . S
C892 C893 1.391 . S
C892 C894 1.394 . S
C892 H908 0.931 . S
C893 C892 1.391 . S
C893 C897 1.376 . S
C894 C892 1.394 . S
C894 C895 1.369 . S
C894 C898 1.531 . S
C895 C894 1.369 . S
C895 C896 1.410 . S
C895 C903 1.503 . S
C896 C895 1.410 . S
C896 C897 1.392 . S
C896 C899 1.487 1_455 S
C897 C893 1.376 . S
C897 C896 1.392 . S
C897 H909 0.929 . S
C898 C894 1.531 . S
C898 H910 0.960 . S
C898 H911 0.962 . S
C898 H912 0.960 . S
C899 C896 1.487 1_655 S
C899 H913 0.969 . S
C899 H914 0.954 1_655 S
C899 H915 0.984 . S
C900 C901 1.370 . S
C900 C902 1.363 . S
C900 H916 0.931 . S
C901 C900 1.370 . S
C901 C905 1.408 . S
C902 C900 1.363 . S
C902 C903 1.370 . S
C902 C906 1.524 . S
C903 C895 1.503 . S
C903 C902 1.370 . S
C903 C904 1.403 . S
C904 C903 1.403 . S
C904 C905 1.404 . S
C904 C907 1.539 . S
C905 C901 1.408 . S
C905 C904 1.404 . S
C905 H917 0.930 . S
C906 C902 1.524 . S
C906 H918 0.956 . S
C906 H919 0.961 . S
C906 H920 0.961 . S
C907 C904 1.539 . S
C907 H921 0.958 . S
C907 H922 0.961 1_455 S
C907 H923 0.960 . S
H908 C892 0.931 . S
H909 C897 0.929 . S
H910 C898 0.960 . S
H911 C898 0.962 . S
H912 C898 0.960 . S
H913 C899 0.969 . S
H914 C899 0.954 1_455 S
H915 C899 0.984 . S
H916 C900 0.931 . S
H917 C905 0.930 . S
H918 C906 0.956 . S
H919 C906 0.961 . S
H920 C906 0.961 . S
H921 C907 0.958 . S
H922 C907 0.961 1_655 S
H923 C907 0.960 . S
C924 C925 1.391 . S
C924 C926 1.394 . S
C924 H940 0.931 . S
C925 C924 1.391 . S
C925 C929 1.376 . S
C926 C924 1.394 . S
C926 C927 1.369 . S
C926 C930 1.531 . S
C927 C926 1.369 . S
C927 C928 1.410 . S
C927 C935 1.503 . S
C928 C927 1.410 . S
C928 C929 1.392 . S
C928 C931 1.511 . S
C929 C925 1.376 . S
C929 C928 1.392 . S
C929 H941 0.929 . S
C930 C926 1.531 . S
C930 H942 0.960 . S
C930 H943 0.962 . S
C930 H944 0.960 . S
C931 C928 1.511 . S
C931 H945 0.961 . S
C931 H946 0.961 . S
C931 H947 0.961 . S
C932 C933 1.370 . S
C932 C934 1.363 . S
C932 H948 0.931 . S
C933 C932 1.370 . S
C933 C937 1.408 . S
C934 C932 1.363 . S
C934 C935 1.370 . S
C934 C938 1.524 . S
C935 C927 1.503 . S
C935 C934 1.370 . S
C935 C936 1.403 . S
C936 C935 1.403 . S
C936 C937 1.404 . S
C936 C939 1.539 . S
C937 C933 1.408 . S
C937 C936 1.404 . S
C937 H949 0.930 . S
C938 C934 1.524 . S
C938 H950 0.956 . S
C938 H951 0.961 . S
C938 H952 0.961 . S
C939 C936 1.539 . S
C939 H953 0.958 . S
C939 H954 0.961 . S
C939 H955 0.960 . S
H940 C924 0.931 . S
H941 C929 0.929 . S
H942 C930 0.960 . S
H943 C930 0.962 . S
H944 C930 0.960 . S
H945 C931 0.961 . S
H946 C931 0.961 . S
H947 C931 0.961 . S
H948 C932 0.931 . S
H949 C937 0.930 . S
H950 C938 0.956 . S
H951 C938 0.961 . S
H952 C938 0.961 . S
H953 C939 0.958 . S
H954 C939 0.961 . S
H955 C939 0.960 . S
C189 C9 1.946 . S
C197 C107 1.805 . S
C221 C21 1.559 . S
C229 C141 1.406 . S
C261 C153 1.209 . S
C253 C30 1.253 . S
C285 C43 1.287 . S
C293 C187 1.267 . S
C325 C144 1.391 . S
C317 C4 1.405 . S
C357 C124 1.842 . S
C349 C22 2.002 . S
C389 C171 1.118 . S
C381 C34 1.207 . S
C421 C162 1.310 . S
C413 C48 1.385 . S
C445 C8 1.635 . S
C453 C170 1.534 . S
C485 C132 1.381 . S
C477 C35 1.519 . S
C509 C47 1.590 . S
C517 C108 1.415 . S
C541 C17 1.359 . S
C549 C165 1.330 . S
C581 C123 1.546 . S
C573 C60 1.642 . S
C605 C74 1.817 . S
C613 C145 1.741 . S
C637 C82 1.206 . S
C645 C150 1.134 . S
C669 C100 1.837 . S
C677 C183 1.770 . S
C701 C61 1.891 . S
C709 C128 1.754 1_556 S
C741 C120 1.615 . S
C733 C73 1.686 . S
C773 C174 1.522 . S
C765 C87 1.649 . S
C805 C166 1.148 . S
C797 C95 1.161 . S
C829 C56 1.555 1_455 S
C837 C186 1.588 . S
C869 C129 1.626 . S
C861 C86 1.715 . S
C901 C111 1.414 . S
C893 C99 1.542 . S
C925 C69 1.493 . S
C933 C149 1.420 . S
