# Generated by pormake.
# Topology zzz, (3,6)-cn, num edge types: 1
# Building blocks:
#     Node 0, Type 0, BuildingBlock: PAMTOO_clean_linker_0, # of connection points: 3
#     Node 1, Type 0, BuildingBlock: PAMTOO_clean_linker_0, # of connection points: 3
#     Node 2, Type 0, BuildingBlock: PAMTOO_clean_linker_0, # of connection points: 3
#     Node 3, Type 0, BuildingBlock: PAMTOO_clean_linker_0, # of connection points: 3
#     Node 4, Type 0, BuildingBlock: PAMTOO_clean_linker_0, # of connection points: 3
#     Node 5, Type 0, BuildingBlock: PAMTOO_clean_linker_0, # of connection points: 3
#     Node 6, Type 0, BuildingBlock: PAMTOO_clean_linker_0, # of connection points: 3
#     Node 7, Type 0, BuildingBlock: PAMTOO_clean_linker_0, # of connection points: 3
#     Node 8, Type 1, BuildingBlock: VOLQOD_clean_sbu_1, # of connection points: 6
#     Node 9, Type 1, BuildingBlock: VOLQOD_clean_sbu_1, # of connection points: 6
#     Node 10, Type 1, BuildingBlock: VOLQOD_clean_sbu_1, # of connection points: 6
#     Node 11, Type 1, BuildingBlock: VOLQOD_clean_sbu_1, # of connection points: 6
#     Edge 12, Type (0, 1), BuildingBlock: EZIPEK_clean_linker_0, # of connection points: 2
#     Edge 13, Type (0, 1), BuildingBlock: EZIPEK_clean_linker_0, # of connection points: 2
#     Edge 14, Type (0, 1), BuildingBlock: EZIPEK_clean_linker_0, # of connection points: 2
#     Edge 15, Type (0, 1), BuildingBlock: EZIPEK_clean_linker_0, # of connection points: 2
#     Edge 16, Type (0, 1), BuildingBlock: EZIPEK_clean_linker_0, # of connection points: 2
#     Edge 17, Type (0, 1), BuildingBlock: EZIPEK_clean_linker_0, # of connection points: 2
#     Edge 18, Type (0, 1), BuildingBlock: EZIPEK_clean_linker_0, # of connection points: 2
#     Edge 19, Type (0, 1), BuildingBlock: EZIPEK_clean_linker_0, # of connection points: 2
#     Edge 20, Type (0, 1), BuildingBlock: EZIPEK_clean_linker_0, # of connection points: 2
#     Edge 21, Type (0, 1), BuildingBlock: EZIPEK_clean_linker_0, # of connection points: 2
#     Edge 22, Type (0, 1), BuildingBlock: EZIPEK_clean_linker_0, # of connection points: 2
#     Edge 23, Type (0, 1), BuildingBlock: EZIPEK_clean_linker_0, # of connection points: 2
#     Edge 24, Type (0, 1), BuildingBlock: EZIPEK_clean_linker_0, # of connection points: 2
#     Edge 25, Type (0, 1), BuildingBlock: EZIPEK_clean_linker_0, # of connection points: 2
#     Edge 26, Type (0, 1), BuildingBlock: EZIPEK_clean_linker_0, # of connection points: 2
#     Edge 27, Type (0, 1), BuildingBlock: EZIPEK_clean_linker_0, # of connection points: 2
#     Edge 28, Type (0, 1), BuildingBlock: EZIPEK_clean_linker_0, # of connection points: 2
#     Edge 29, Type (0, 1), BuildingBlock: EZIPEK_clean_linker_0, # of connection points: 2
#     Edge 30, Type (0, 1), BuildingBlock: EZIPEK_clean_linker_0, # of connection points: 2
#     Edge 31, Type (0, 1), BuildingBlock: EZIPEK_clean_linker_0, # of connection points: 2
#     Edge 32, Type (0, 1), BuildingBlock: EZIPEK_clean_linker_0, # of connection points: 2
#     Edge 33, Type (0, 1), BuildingBlock: EZIPEK_clean_linker_0, # of connection points: 2
#     Edge 34, Type (0, 1), BuildingBlock: EZIPEK_clean_linker_0, # of connection points: 2
#     Edge 35, Type (0, 1), BuildingBlock: EZIPEK_clean_linker_0, # of connection points: 2
# Relax obj value: 0.184
# Max RMSD: 0.232
# Mean RMSD: 0.108
data_MOF--net-zzz--node1-VOLQOD_clean_sbu_1--node2-PAMTOO_clean_linker_0--edge1-EZIPEK_clean_linker_0
_symmetry_space_group_name_H-M    P1
_symmetry_Int_Tables_number       1
_symmetry_cell_setting            triclinic
loop_
_symmetry_equiv_pos_as_xyz
'x, y, z'
_cell_length_a     37.616226
_cell_length_b     37.44107
_cell_length_c     13.040483
_cell_angle_alpha  89.882046
_cell_angle_beta   90.067521
_cell_angle_gamma 90.742278
loop_
_atom_site_label
_atom_site_type_symbol
_atom_site_fract_x
_atom_site_fract_y
_atom_site_fract_z
_atom_type_partial_charge
H0 H 0.88255 0.50697 0.19427 0.0
H1 H 0.79136 0.49901 -0.00144 0.0
H2 H 0.78338 0.55223 0.29003 0.0
H3 H 0.71007 0.51466 0.22257 0.0
C4 C 0.71972 0.50971 0.14353 0.0
O5 O 0.74823 0.53227 0.12281 0.0
H6 H 0.72787 0.48133 0.14695 0.0
C7 C 0.85435 0.5112 0.18185 0.0
C8 C 0.8349 0.53026 0.25413 0.0
C9 C 0.83902 0.50027 0.08978 0.0
C10 C 0.80284 0.50615 0.0719 0.0
C11 C 0.7824 0.52416 0.14497 0.0
C12 C 0.7986 0.53676 0.23589 0.0
H13 H 0.04189 0.86127 0.26713 0.0
H14 H 0.04125 0.79972 -0.00978 0.0
H15 H 1.00897 0.75081 0.2746 0.0
H16 H 0.07279 0.71681 0.10192 0.0
C17 C 0.05251 0.72045 0.04111 0.0
O18 O 0.02385 0.73899 0.07916 0.0
H19 H 0.06636 0.73684 0.98178 0.0
C20 C 0.03882 0.83564 0.229 0.0
C21 C 0.02377 0.80683 0.28238 0.0
C22 C 0.04346 0.83394 0.12316 0.0
C23 C 0.0381 0.80126 0.07266 0.0
C24 C 0.02814 0.77056 0.12848 0.0
C25 C 0.02008 0.77351 0.23353 0.0
H26 H 0.65672 0.04227 0.25938 0.0
H27 H 0.71641 0.03679 0.97987 0.0
H28 H 0.76105 0.99669 0.26024 0.0
H29 H 0.81327 0.04293 0.12973 0.0
C30 C 0.80139 0.03637 0.05388 0.0
O31 O 0.77409 0.01171 0.0658 0.0
H32 H 0.79101 0.06231 0.02597 0.0
C33 C 0.68152 0.03685 0.22014 0.0
C34 C 0.70803 0.01807 0.27154 0.0
C35 C 0.68312 0.04136 0.11403 0.0
C36 C 0.71478 0.03349 0.06227 0.0
C37 C 0.74382 0.01956 0.11642 0.0
C38 C 0.74008 0.0108 0.22088 0.0
H39 H 0.48136 0.65694 0.30519 0.0
H40 H 0.48495 0.71361 0.01885 0.0
H41 H 0.53432 0.75925 0.28633 0.0
H42 H 0.48621 0.81149 0.15796 0.0
C43 C 0.49127 0.7988 0.08247 0.0
O44 O 0.5152 0.77138 0.09398 0.0
H45 H 0.46479 0.78812 0.0587 0.0
C46 C 0.48799 0.68094 0.26197 0.0
C47 C 0.50974 0.70713 0.3069 0.0
C48 C 0.48109 0.68168 0.15682 0.0
C49 C 0.49012 0.71254 0.1005 0.0
C50 C 0.50713 0.74161 0.14883 0.0
C51 C 0.51803 0.73846 0.25175 0.0
H52 H 0.1711 0.54238 0.10028 0.0
H53 H 0.25433 0.55317 0.32417 0.0
H54 H 0.27857 0.51844 0.01745 0.0
H55 H 0.34215 0.50302 0.14952 0.0
C56 C 0.3258 0.50982 0.21746 0.0
O57 O 0.30614 0.5398 0.19475 0.0
H58 H 0.30849 0.48583 0.22786 0.0
C59 C 0.19925 0.54229 0.1193 0.0
C60 C 0.22316 0.52864 0.04868 0.0
C61 C 0.20971 0.54932 0.21986 0.0
C62 C 0.24588 0.54806 0.24606 0.0
C63 C 0.27107 0.53883 0.1713 0.0
C64 C 0.25958 0.52821 0.07273 0.0
H65 H 0.02554 0.14647 0.08499 0.0
H66 H 1.00524 0.22478 0.31587 0.0
H67 H 0.04161 0.25807 0.01674 0.0
H68 H 0.07178 0.30756 0.19118 0.0
C69 C 0.05355 0.29657 0.25068 0.0
O70 O 0.02483 0.27989 0.20388 0.0
H71 H 0.07036 0.27709 0.29233 0.0
C72 C 0.02601 0.17421 0.10939 0.0
C73 C 0.03507 0.20104 0.03928 0.0
C74 C 0.01465 0.18258 0.20761 0.0
C75 C 0.01434 0.21825 0.23956 0.0
C76 C 0.02546 0.24549 0.17226 0.0
C77 C 0.03523 0.23697 0.07086 0.0
H78 H 0.36696 0.0137 0.11868 0.0
H79 H 0.28491 0.98879 0.33652 0.0
H80 H 0.25762 0.01157 0.02236 0.0
H81 H 0.19004 0.02375 0.15661 0.0
C82 C 0.20764 0.02161 0.22476 0.0
O83 O 0.23238 0.99543 0.20629 0.0
H84 H 0.22037 0.04848 0.23018 0.0
C85 C 0.33886 0.01149 0.13727 0.0
C86 C 0.31364 0.01485 0.05953 0.0
C87 C 0.3289 1.00099 0.23549 0.0
C88 C 0.2928 0.99724 0.26027 0.0
C89 C 0.26691 1.00226 0.18415 0.0
C90 C 0.27736 0.01035 0.08277 0.0
H91 H 0.52156 0.37331 0.149 0.0
H92 H 0.54139 0.28847 0.36142 0.0
H93 H 0.48167 0.26735 0.08542 0.0
H94 H 0.45686 0.22306 0.27059 0.0
C95 C 0.4813 0.22704 0.3173 0.0
O96 O 0.50877 0.23873 0.25459 0.0
H97 H 0.47341 0.248 0.37264 0.0
C98 C 0.52003 0.34507 0.16802 0.0
C99 C 0.50085 0.32176 0.10448 0.0
C100 C 0.5336 0.33351 0.2616 0.0
C101 C 0.53106 0.29735 0.28839 0.0
C102 C 0.51258 0.27326 0.22479 0.0
C103 C 0.49703 0.28556 0.13288 0.0
O104 O 0.09496 0.01353 0.62073 0.0
Zn105 Zn 0.05255 0.01576 0.7194 0.0
O106 O 1.00738 1.00287 0.64811 0.0
Zn107 Zn 0.97481 0.04261 0.65036 0.0
Zn108 Zn 0.01677 0.9904 0.50685 0.0
Zn109 Zn 0.98271 0.9631 0.71319 0.0
O110 O 0.93122 0.0334 0.73721 0.0
O111 O 0.93581 0.97607 0.77811 0.0
O112 O 0.04932 0.06629 0.77937 0.0
O113 O 0.99913 0.08511 0.70976 0.0
O114 O 0.96135 0.05923 0.51167 0.0
O115 O 0.99784 0.02831 0.41323 0.0
O116 O 1.00282 0.93893 0.47634 0.0
O117 O 0.06202 0.98055 0.83499 0.0
O118 O 0.97816 0.92014 0.62224 0.0
O119 O 0.01308 0.94659 0.82503 0.0
C120 C 0.09644 1.00437 0.52659 0.0
C121 C 0.91955 1.00563 0.78314 0.0
C122 C 0.9772 0.05455 0.42706 0.0
C123 C 0.02676 0.09094 0.76339 0.0
C124 C 0.98865 0.91436 0.53124 0.0
C125 C 0.04294 0.95421 0.86522 0.0
O126 O 0.06864 0.99446 0.47847 0.0
O127 O 0.49406 0.08914 0.62923 0.0
Zn128 Zn 0.49773 0.04729 0.72971 0.0
O129 O 0.5129 1.00348 0.65757 0.0
Zn130 Zn 0.47554 0.96719 0.66288 0.0
Zn131 Zn 0.52359 0.01501 0.51589 0.0
Zn132 Zn 0.55422 0.98195 0.71887 0.0
O133 O 0.48792 0.92417 0.74933 0.0
O134 O 0.54419 0.93493 0.79105 0.0
O135 O 0.44899 0.03913 0.79649 0.0
O136 O 0.4326 0.9873 0.72779 0.0
O137 O 0.45839 0.95311 0.52492 0.0
O138 O 0.48304 0.99613 0.43026 0.0
O139 O 0.57367 1.00034 0.47617 0.0
O140 O 0.53429 0.0608 0.83942 0.0
O141 O 0.59498 0.97783 0.62166 0.0
O142 O 0.57133 0.01515 0.82349 0.0
C143 C 0.50585 0.09325 0.53814 0.0
C144 C 0.51612 0.91568 0.79699 0.0
C145 C 0.45914 0.9722 0.44442 0.0
C146 C 0.42584 0.01433 0.78261 0.0
C147 C 0.59898 0.98701 0.52852 0.0
C148 C 0.56262 0.04451 0.86414 0.0
O149 O 0.52041 0.06777 0.4901 0.0
O150 O 0.42974 0.5119 0.63157 0.0
Zn151 Zn 0.46475 0.50526 0.74983 0.0
O152 O 0.51446 0.51534 0.70535 0.0
Zn153 Zn 0.5445 0.4756 0.74284 0.0
Zn154 Zn 0.51541 0.52354 0.55771 0.0
Zn155 Zn 0.53523 0.55695 0.77141 0.0
O156 O 0.5872 0.48916 0.82906 0.0
O157 O 0.58182 0.54777 0.845 0.0
O158 O 0.4599 0.45392 0.80521 0.0
O159 O 0.51664 0.43909 0.82106 0.0
O160 O 0.55845 0.44955 0.61665 0.0
O161 O 0.54175 0.48416 0.48671 0.0
O162 O 0.53135 0.57429 0.52249 0.0
O163 O 0.45114 0.53955 0.86402 0.0
O164 O 0.54085 0.59849 0.67583 0.0
O165 O 0.50086 0.57248 0.87447 0.0
C166 C 0.43476 0.5162 0.53554 0.0
C167 C 0.59835 0.51901 0.8639 0.0
C168 C 0.5552 0.45542 0.52108 0.0
C169 C 0.4838 0.43227 0.83495 0.0
C170 C 0.53835 0.60127 0.57901 0.0
C171 C 0.46941 0.56495 0.90343 0.0
O172 O 0.466 0.51965 0.49922 0.0
O173 O 0.97418 0.55872 0.54291 0.0
Zn174 Zn 0.02346 0.55174 0.60714 0.0
O175 O 0.0266 0.50325 0.66786 0.0
Zn176 Zn 0.02996 0.50717 0.81644 0.0
Zn177 Zn 0.98604 0.47422 0.62613 0.0
Zn178 Zn 0.06789 0.47782 0.62202 0.0
O179 O 0.07985 0.49498 0.86649 0.0
O180 O 0.10543 0.47284 0.72759 0.0
O181 O 0.03045 0.58983 0.71653 0.0
O182 O 0.0254 0.5584 0.86026 0.0
O183 O 0.98833 0.48174 0.88376 0.0
O184 O 0.95637 0.46387 0.74886 0.0
O185 O 0.99855 0.4293 0.54772 0.0
O186 O 0.06255 0.55931 0.50005 0.0
O187 O 0.05757 0.43147 0.54911 0.0
O188 O 0.09152 0.50857 0.52325 0.0
C189 C 0.95029 0.53586 0.51731 0.0
C190 C 0.10694 0.48254 0.82054 0.0
C191 C 0.95989 0.46856 0.84486 0.0
C192 C 0.02868 0.58822 0.81408 0.0
C193 C 0.02849 0.4163 0.52326 0.0
C194 C 0.08853 0.53883 0.48072 0.0
O195 O 0.95342 0.50289 0.53882 0.0
C196 C 0.16064 0.98264 0.31447 0.0
C197 C 0.18482 0.01213 0.31798 0.0
C198 C 0.15459 0.03461 0.47091 0.0
C199 C 0.13062 1.00491 0.46818 0.0
N200 N 0.1206 0.94431 0.41122 0.0
N201 N 0.21365 0.0559 0.42695 0.0
C202 C 0.1369 0.97681 0.39766 0.0
C203 C 0.18479 0.03476 0.40529 0.0
N204 N 0.15925 0.96083 0.23061 0.0
N205 N 0.14773 0.06379 0.52999 0.0
H206 H 0.23736 0.05442 0.38588 0.0
H207 H 0.21565 0.071 0.49385 0.0
H208 H 0.12527 0.06612 0.57583 0.0
H209 H 0.16281 0.0873 0.52544 0.0
H210 H 0.13918 0.94175 0.21966 0.0
H211 H 0.17654 0.96323 0.16857 0.0
H212 H 0.12644 0.92201 0.36691 0.0
H213 H 0.10446 0.93862 0.47441 0.0
C214 C 0.48261 0.15912 0.32624 0.0
C215 C 0.49137 0.19244 0.37229 0.0
C216 C 0.51516 0.16003 0.52208 0.0
C217 C 0.50065 0.12766 0.48282 0.0
N218 N 0.46469 0.09771 0.3547 0.0
N219 N 0.5172 0.22466 0.51574 0.0
C220 C 0.48284 0.12755 0.38672 0.0
C221 C 0.5081 0.19292 0.47067 0.0
N222 N 0.4751 0.15729 0.22379 0.0
N223 N 0.53717 0.15916 0.6056 0.0
H224 H 0.51633 0.24911 0.478 0.0
H225 H 0.52441 0.22695 0.59258 0.0
H226 H 0.54331 0.13563 0.64434 0.0
H227 H 0.55189 0.18113 0.63121 0.0
H228 H 0.47175 0.13319 0.1849 0.0
H229 H 0.47654 0.1794 0.17513 0.0
H230 H 0.44817 0.09748 0.29047 0.0
H231 H 0.46303 0.07428 0.39785 0.0
C232 C 0.38038 0.54011 0.2989 0.0
C233 C 0.35045 0.51671 0.30874 0.0
C234 C 0.37472 0.49378 0.47015 0.0
C235 C 0.40396 0.51813 0.46302 0.0
N236 N 0.42708 0.57274 0.38763 0.0
N237 N 0.31301 0.48336 0.42628 0.0
C238 C 0.40453 0.54386 0.38246 0.0
C239 C 0.34555 0.49746 0.40169 0.0
N240 N 0.38627 0.55838 0.20955 0.0
N241 N 0.37539 0.46573 0.53725 0.0
H242 H 0.29027 0.48813 0.38277 0.0
H243 H 0.30777 0.47128 0.49688 0.0
H244 H 0.39706 0.46014 0.58409 0.0
H245 H 0.35593 0.44564 0.53765 0.0
H246 H 0.40986 0.57229 0.19445 0.0
H247 H 0.36867 0.55798 0.1478 0.0
H248 H 0.42653 0.5938 0.33531 0.0
H249 H 0.44338 0.57785 0.45084 0.0
C250 C 0.03239 0.36041 0.27992 0.0
C251 C 0.0409 0.32633 0.3214 0.0
C252 C 0.03694 0.35057 0.4961 0.0
C253 C 0.02981 0.38475 0.4548 0.0
N254 N 0.01418 0.42162 0.31035 0.0
N255 N 0.03798 0.28673 0.46792 0.0
C256 C 0.02534 0.38942 0.34745 0.0
C257 C 0.0391 0.32068 0.42928 0.0
N258 N 0.0317 0.36517 0.17589 0.0
N259 N 0.04237 0.34679 0.59921 0.0
H260 H 0.03752 0.26408 0.42179 0.0
H261 H 0.03334 0.28091 0.54489 0.0
H262 H 0.03937 0.36772 0.65105 0.0
H263 H 0.05208 0.32356 0.63258 0.0
H264 H 0.03078 0.38999 0.14013 0.0
H265 H 0.03283 0.34412 0.12388 0.0
H266 H 1.00674 0.42608 0.23462 0.0
H267 H 0.0101 0.44379 0.35695 0.0
C268 C 0.86001 1.00537 0.01965 0.0
C269 C 0.82931 0.02221 0.98011 0.0
C270 C 0.85462 0.01861 0.80633 0.0
C271 C 0.88768 0.00861 0.84962 0.0
N272 N 0.9231 0.99608 5e-05 0.0
N273 N 0.79509 0.04103 0.83323 0.0
C274 C 0.89066 1.00256 0.95685 0.0
C275 C 0.82581 0.02742 0.87235 0.0
N276 N 0.85962 0.99118 0.11628 0.0
N277 N 0.85054 0.01848 0.70209 0.0
H278 H 0.77206 0.0439 0.87658 0.0
H279 H 0.7925 0.05025 0.75829 0.0
H280 H 0.87099 0.01169 0.65207 0.0
H281 H 0.82635 0.02211 0.66502 0.0
H282 H 0.88024 0.9759 0.14564 0.0
H283 H 0.83696 0.99086 0.16233 0.0
H284 H 0.92732 0.99559 0.07902 0.0
H285 H 0.94651 0.99445 0.95773 0.0
C286 C 0.49801 0.82137 0.89742 0.0
C287 C 0.5047 0.82616 0.00406 0.0
C288 C 0.52268 0.88836 0.97288 0.0
C289 C 0.51523 0.88409 0.86665 0.0
N290 N 0.50475 0.84458 0.72402 0.0
N291 N 0.53733 0.85912 0.13288 0.0
C292 C 0.50555 0.84993 0.82771 0.0
C293 C 0.52162 0.85802 0.03841 0.0
N294 N 0.48407 0.78972 0.86294 0.0
N295 N 0.52857 0.92163 0.01303 0.0
H296 H 0.53882 0.83675 0.18046 0.0
H297 H 0.55265 0.88075 0.15824 0.0
H298 H 0.52839 0.94493 0.96924 0.0
H299 H 0.53018 0.92643 0.09159 0.0
H300 H 0.47394 0.78607 0.78934 0.0
H301 H 0.48174 0.76706 0.90908 0.0
H302 H 0.50123 0.81966 0.69005 0.0
H303 H 0.51082 0.86476 0.67134 0.0
C304 C 0.69001 0.49647 0.96918 0.0
C305 C 0.69021 0.51523 0.06432 0.0
C306 C 0.63035 0.53721 0.02693 0.0
C307 C 0.63073 0.51985 0.93013 0.0
N308 N 0.66537 0.49206 0.79767 0.0
N309 N 0.66581 0.56417 0.16136 0.0
C310 C 0.6619 0.50214 0.89785 0.0
C311 C 0.66209 0.53908 0.08603 0.0
N312 N 0.71612 0.47271 0.94673 0.0
N313 N 0.59939 0.55024 0.06584 0.0
H314 H 0.68935 0.56807 0.20235 0.0
H315 H 0.64711 0.58399 0.17398 0.0
H316 H 0.57499 0.548 0.02835 0.0
H317 H 0.59729 0.55982 0.14056 0.0
H318 H 0.71451 0.45502 0.88527 0.0
H319 H 0.73841 0.46878 -0.00773 0.0
H320 H 0.68894 0.48243 0.76705 0.0
H321 H 0.64602 0.49704 0.74227 0.0
C322 C 0.02101 0.68568 0.89749 0.0
C323 C 0.04051 0.68548 -0.00877 0.0
C324 C 0.05333 0.62226 0.96607 0.0
C325 C 0.03184 0.62157 0.8762 0.0
N326 N 0.9865 0.6507 0.77604 0.0
N327 N 0.06172 0.64943 0.13213 0.0
C328 C 0.01304 0.65273 0.84752 0.0
C329 C 0.05229 0.65245 0.03138 0.0
N330 N 0.01062 0.71721 0.85467 0.0
N331 N 0.07644 0.5953 -0.0133 0.0
H332 H 0.05813 0.66994 0.18491 0.0
H333 H 0.06823 0.62505 0.16565 0.0
H334 H 0.08075 0.57407 0.93687 0.0
H335 H 0.09458 0.59648 0.04718 0.0
H336 H 1.00024 0.71896 0.78072 0.0
H337 H 0.01441 0.74193 0.88983 0.0
H338 H 0.96982 0.67195 0.75944 0.0
H339 H 0.97842 0.62676 0.74199 0.0
C340 C 0.96967 0.13543 0.25246 0.0
C341 C 1.00264 0.15286 0.27421 0.0
C342 C 0.01708 0.10697 0.39996 0.0
C343 C 0.98587 0.08754 0.37044 0.0
N344 N 0.93372 0.08108 0.26529 0.0
N345 N 0.05979 0.1536 0.35814 0.0
C346 C 0.96235 0.10123 0.29596 0.0
C347 C 0.0268 0.13835 0.34568 0.0
N348 N 0.94541 0.15194 0.19094 0.0
N349 N 0.03703 0.09593 0.48182 0.0
H350 H 0.06761 0.17738 0.32244 0.0
H351 H 0.08033 0.14149 0.39833 0.0
H352 H 0.03205 0.0724 0.52245 0.0
H353 H 0.05712 0.11147 0.51494 0.0
H354 H 0.91974 0.14224 0.17825 0.0
H355 H 0.95006 0.17709 0.15857 0.0
H356 H 0.91729 0.08779 0.20415 0.0
H357 H 0.9278 0.05609 0.297 0.0
C358 C 0.37185 0.01541 0.37548 0.0
C359 C 0.35766 0.99018 0.30573 0.0
C360 C 0.41043 0.95279 0.3245 0.0
C361 C 0.42448 0.97794 0.39486 0.0
N362 N 0.41504 0.02832 0.50784 0.0
N363 N 0.35895 0.93188 0.22811 0.0
C364 C 0.4041 0.00779 0.42667 0.0
C365 C 0.37555 0.95774 0.2853 0.0
N366 N 0.35537 0.04739 0.38912 0.0
N367 N 0.43092 0.92501 0.29289 0.0
H368 H 0.33331 0.93488 0.19893 0.0
H369 H 0.36912 0.90649 0.21666 0.0
H370 H 0.45646 0.92074 0.32139 0.0
H371 H 0.42378 0.90765 0.23393 0.0
H372 H 0.36696 0.06888 0.42786 0.0
H373 H 0.33079 0.05322 0.35638 0.0
H374 H 0.3992 0.04758 0.54184 0.0
H375 H 0.43881 0.02443 0.54716 0.0
C376 C 0.51193 0.37591 0.39226 0.0
C377 C 0.54126 0.36113 0.33964 0.0
C378 C 0.58062 0.40895 0.40364 0.0
C379 C 0.5513 0.42341 0.45663 0.0
N380 N 0.49024 0.41881 0.51463 0.0
N381 N 0.60375 0.3599 0.30188 0.0
C382 C 0.51731 0.40631 0.45477 0.0
C383 C 0.57582 0.37652 0.34769 0.0
N384 N 0.47849 0.36173 0.37851 0.0
N385 N 0.61256 0.42678 0.40526 0.0
H386 H 0.60061 0.33618 0.26073 0.0
H387 H 0.63014 0.36807 0.30919 0.0
H388 H 0.61652 0.45032 0.44669 0.0
H389 H 0.6346 0.41951 0.36243 0.0
H390 H 0.45527 0.37437 0.4007 0.0
H391 H 0.47344 0.3379 0.33959 0.0
H392 H 0.46644 0.40502 0.52715 0.0
H393 H 0.49207 0.44197 0.55869 0.0
C394 C 0.16987 0.57959 0.34915 0.0
C395 C 0.18101 0.5484 0.29739 0.0
C396 C 0.12484 0.51894 0.33733 0.0
C397 C 0.11577 0.54739 0.40292 0.0
N398 N 0.13202 0.60364 0.48211 0.0
N399 N 0.17325 0.48503 0.26946 0.0
C400 C 0.13878 0.57769 0.41166 0.0
C401 C 0.15979 0.51693 0.30071 0.0
N402 N 0.18845 0.61086 0.33733 0.0
N403 N 0.09997 0.49366 0.31086 0.0
H404 H 0.19969 0.48233 0.24686 0.0
H405 H 0.15939 0.46088 0.27721 0.0
H406 H 0.07349 0.49517 0.33436 0.0
H407 H 0.10481 0.47373 0.25709 0.0
H408 H 0.17948 0.63523 0.36489 0.0
H409 H 0.21178 0.61262 0.29429 0.0
H410 H 0.15001 0.62419 0.49902 0.0
H411 H 0.10941 0.60339 0.52818 0.0
C412 C 0.02239 0.89513 0.07739 0.0
C413 C 0.04809 0.86788 0.06543 0.0
C414 C 0.07902 0.9044 0.93668 0.0
C415 C 0.05358 0.93146 0.95155 0.0
N416 N 0.01 0.95809 0.06036 0.0
N417 N 0.10592 0.85065 0.00414 0.0
C418 C 0.0288 0.92877 0.03204 0.0
C419 C 0.07821 0.87383 0.00175 0.0
N420 N 0.99053 0.88814 0.12426 0.0
N421 N 0.10248 0.90694 0.85714 0.0
H422 H 0.10618 0.82825 0.05186 0.0
H423 H 0.1298 0.85537 0.96577 0.0
H424 H 0.10445 0.92963 0.81087 0.0
H425 H 0.1187 0.88602 0.83464 0.0
H426 H 0.97 0.90654 0.12697 0.0
H427 H 0.98282 0.86278 0.14943 0.0
H428 H 0.99318 0.95831 0.12384 0.0
H429 H 0.01438 0.98302 0.02613 0.0
C430 C 0.61999 0.02366 0.07398 0.0
C431 C 0.64934 0.04748 0.05766 0.0
C432 C 0.61379 0.08013 0.93151 0.0
C433 C 0.5851 0.05615 0.95018 0.0
N434 N 0.55729 0.01228 0.05926 0.0
N435 N 0.67071 0.10386 -0.01009 0.0
C436 C 0.58682 0.03152 0.03145 0.0
C437 C 0.64515 0.07766 -0.00744 0.0
N438 N 0.62319 0.99161 0.12262 0.0
N439 N 0.61172 0.10367 0.85177 0.0
H440 H 0.69373 0.10289 0.03448 0.0
H441 H 0.66768 0.1278 0.95024 0.0
H442 H 0.5884 0.10664 0.80921 0.0
H443 H 0.63324 0.11895 0.82588 0.0
H444 H 0.64724 0.9808 0.14647 0.0
H445 H 0.64724 0.9808 0.14647 0.0
H446 H 0.55777 0.99305 0.11738 0.0
H447 H 0.53233 0.01733 0.02752 0.0
C448 C 0.48986 0.61615 0.12265 0.0
C449 C 0.47016 0.64787 0.10475 0.0
C450 C 0.43615 0.61665 0.97128 0.0
C451 C 0.45636 0.58578 -0.0095 0.0
N452 N 0.48989 0.55167 0.11089 0.0
N453 N 0.41719 0.67433 0.03423 0.0
C454 C 0.4779 0.58396 0.07816 0.0
C455 C 0.44063 0.64683 0.03654 0.0
N456 N 0.52206 0.61719 0.17132 0.0
N457 N 0.41455 0.61777 0.88732 0.0
H458 H 0.41946 0.69628 0.08308 0.0
H459 H 0.39387 0.67366 -0.00896 0.0
H460 H 0.41018 0.59536 0.84125 0.0
H461 H 0.40229 0.64098 0.86197 0.0
H462 H 0.53809 0.59484 0.17912 0.0
H463 H 0.53507 0.64089 0.19114 0.0
H464 H 0.5044 0.54859 0.17848 0.0
H465 H 0.48193 0.52795 0.07493 0.0
C466 C 0.87819 0.51489 0.9428 0.0
C467 C 0.86347 0.48839 0.00827 0.0
C468 C 0.90922 0.44608 0.95464 0.0
C469 C 0.9266 0.47424 0.90137 0.0
N470 N 0.92952 0.53634 0.84902 0.0
N471 N 0.8637 0.4289 0.07823 0.0
C472 C 0.91142 0.5088 0.89581 0.0
C473 C 0.87841 0.45378 0.0137 0.0
N474 N 0.86051 0.54607 0.9261 0.0
N475 N 0.9222 0.41224 0.9484 0.0
H476 H 0.84008 0.43338 0.11787 0.0
H477 H 0.8753 0.40451 0.09521 0.0
H478 H 0.94527 0.40635 0.90773 0.0
H479 H 0.90915 0.38981 0.97788 0.0
H480 H 0.8677 0.56453 0.86978 0.0
H481 H 0.83664 0.55227 0.9618 0.0
H482 H 0.92237 0.56301 0.85534 0.0
H483 H 0.95315 0.53319 0.80851 0.0
C484 C 0.06826 0.1719 0.89812 0.0
C485 C 0.0373 0.18952 0.93101 0.0
C486 C 1.00002 0.14536 0.84698 0.0
C487 C 0.03077 0.12664 0.81348 0.0
N488 N 0.09381 0.1306 0.77654 0.0
N489 N 0.97633 0.20256 0.89713 0.0
C490 C 0.06495 0.14266 0.82876 0.0
C491 C 1.00435 0.18012 0.88732 0.0
N492 N 0.10037 0.18189 0.93797 0.0
N493 N 0.96741 0.12892 0.85309 0.0
H494 H 0.9793 0.22765 0.93119 0.0
H495 H 0.95178 0.1976 0.86233 0.0
H496 H 0.96333 0.10162 0.8426 0.0
H497 H 0.94526 0.14136 0.88414 0.0
H498 H 0.12356 0.16752 0.92639 0.0
H499 H 0.10297 0.20403 0.98619 0.0
H500 H 0.11873 0.14301 0.7806 0.0
H501 H 0.09188 0.11085 0.72045 0.0
C502 C 0.3417 0.04775 0.91351 0.0
C503 C 0.32803 0.01531 0.95394 0.0
C504 C 0.3767 0.98259 0.87884 0.0
C505 C 0.39096 0.01489 0.83663 0.0
N506 N 0.38 0.07609 0.78697 0.0
N507 N 0.32399 0.95158 0.94006 0.0
C508 C 0.37119 0.04693 0.84505 0.0
C509 C 0.34214 0.98265 0.92103 0.0
N510 N 0.32758 0.07925 0.94487 0.0
N511 N 0.39719 0.95289 0.88958 0.0
H512 H 0.29889 0.95142 0.97417 0.0
H513 H 0.33223 0.92693 0.91236 0.0
H514 H 0.42434 0.9526 0.87401 0.0
H515 H 0.3884 0.92993 0.92766 0.0
H516 H 0.33893 0.10409 0.92786 0.0
H517 H 0.3051 0.07997 -0.00823 0.0
H518 H 0.36477 0.09913 0.78507 0.0
H519 H 0.40034 0.07586 0.73272 0.0
C520 C 0.49926 0.33807 0.91825 0.0
C521 C 0.48257 0.3382 0.01518 0.0
C522 C 0.45468 0.39547 0.97645 0.0
C523 C 0.47464 0.39734 0.88408 0.0
N524 N 0.50388 0.3651 0.74942 0.0
N525 N 0.43443 0.35847 0.11911 0.0
C526 C 0.49265 0.36655 0.84882 0.0
C527 C 0.45629 0.36383 0.03692 0.0
N528 N 0.52332 0.31226 0.8959 0.0
N529 N 0.43687 0.42461 0.01117 0.0
H530 H 0.436 0.33546 0.16424 0.0
H531 H 0.41296 0.37473 0.13602 0.0
H532 H 0.43468 0.44821 0.96954 0.0
H533 H 0.42569 0.42608 0.08403 0.0
H534 H 0.5398 0.31308 0.83181 0.0
H535 H 0.52759 0.29052 0.94436 0.0
H536 H 0.51487 0.34247 0.71647 0.0
H537 H 0.49883 0.38563 0.69745 0.0
C538 C 0.19249 0.47549 0.97532 0.0
C539 C 0.20684 0.51033 0.95914 0.0
C540 C 0.15936 0.52371 0.83786 0.0
C541 C 0.14274 0.49036 0.8627 0.0
N542 N 0.14691 0.43112 0.93267 0.0
N543 N 0.21167 0.56241 0.85416 0.0
C544 C 0.16062 0.46495 0.92374 0.0
C545 C 0.19294 0.53244 0.88183 0.0
N546 N 0.20825 0.45373 0.04565 0.0
N547 N 0.14219 0.54766 0.7764 0.0
H548 H 0.23623 0.56867 0.8875 0.0
H549 H 0.20475 0.57903 0.79349 0.0
H550 H 0.11781 0.5422 0.74119 0.0
H551 H 0.15104 0.57374 0.76392 0.0
H552 H 0.19732 0.4297 0.07154 0.0
H553 H 0.23248 0.46048 0.08004 0.0
H554 H 0.15979 0.41033 0.96976 0.0
H555 H 0.12324 0.4232 0.89698 0.0
C556 C 0.02823 0.82543 0.46325 0.0
C557 C 1.00602 0.81607 0.38007 0.0
C558 C 0.9652 0.86416 0.42217 0.0
C559 C 0.99028 0.87703 0.49458 0.0
N560 N 0.03986 0.86514 0.60702 0.0
N561 N 0.94762 0.81608 0.3067 0.0
C562 C 0.01964 0.85568 0.52398 0.0
C563 C 0.9721 0.83163 0.37028 0.0
N564 N 0.05901 0.80711 0.47688 0.0
N565 N 0.93595 0.88397 0.39966 0.0
H566 H 0.95284 0.79228 0.26841 0.0
H567 H 0.92157 0.82474 0.2991 0.0
H568 H 0.92981 0.90721 0.43962 0.0
H569 H 0.91855 0.87819 0.33968 0.0
H570 H 0.07892 0.81431 0.52854 0.0
H571 H 0.06456 0.78448 0.43324 0.0
H572 H 0.06023 0.84963 0.63646 0.0
H573 H 0.03477 0.88766 0.6513 0.0
C574 C 0.67826 0.96743 0.35815 0.0
C575 C 0.69684 1.00039 0.36834 0.0
C576 C 0.65872 0.01649 0.51187 0.0
C577 C 0.63535 0.98779 0.48552 0.0
N578 N 0.62373 0.93371 0.39133 0.0
N579 N 0.71041 0.05181 0.4722 0.0
C580 C 0.64575 0.96207 0.41229 0.0
C581 C 0.68951 0.02274 0.45236 0.0
N582 N 0.69129 0.94212 0.29365 0.0
N583 N 0.65066 0.03934 0.58975 0.0
H584 H 0.73343 0.05783 0.43054 0.0
H585 H 0.73343 0.05783 0.43054 0.0
H586 H 0.628 0.03647 0.6352 0.0
H587 H 0.6671 0.06096 0.6093 0.0
H588 H 0.68038 0.91659 0.28584 0.0
H589 H 0.71519 0.9459 0.25445 0.0
H590 H 0.62767 0.916 0.33112 0.0
H591 H 0.60045 0.92865 0.4327 0.0
C592 C 0.55943 0.67565 0.39143 0.0
C593 C 0.52827 0.69627 0.40236 0.0
C594 C 0.51017 0.66116 0.55157 0.0
C595 C 0.53867 0.63738 0.53202 0.0
N596 N 0.59589 0.62731 0.4564 0.0
N597 N 0.48261 0.71807 0.51125 0.0
C598 C 0.56533 0.64661 0.45975 0.0
C599 C 0.50703 0.69247 0.49055 0.0
N600 N 0.58162 0.68227 0.31062 0.0
N601 N 0.48451 0.6524 0.62182 0.0
H602 H 0.48015 0.74057 0.46434 0.0
H603 H 0.46757 0.71875 0.57818 0.0
H604 H 0.48527 0.62953 0.66736 0.0
H605 H 0.4612 0.6667 0.63114 0.0
H606 H 0.60236 0.66575 0.28929 0.0
H607 H 0.57857 0.70442 0.26299 0.0
H608 H 0.61761 0.63385 0.41043 0.0
H609 H 0.60056 0.60603 0.5063 0.0
C610 C 0.85453 0.52789 0.43818 0.0
C611 C 0.8554 0.54535 0.34204 0.0
C612 C 0.91614 0.56695 0.37479 0.0
C613 C 0.91644 0.54686 0.46735 0.0
N614 N 0.8819 0.52122 0.60538 0.0
N615 N 0.88034 0.59219 0.2379 0.0
C616 C 0.88408 0.53185 0.50532 0.0
C617 C 0.88386 0.56911 0.3183 0.0
N618 N 0.82675 0.50562 0.46225 0.0
N619 N 0.94689 0.58127 0.33594 0.0
H620 H 0.85683 0.59342 0.19533 0.0
H621 H 0.89898 0.6121 0.22046 0.0
H622 H 0.97127 0.58009 0.37346 0.0
H623 H 0.94872 0.59238 0.26283 0.0
H624 H 0.82675 0.48863 0.52561 0.0
H625 H 0.80427 0.50306 0.41586 0.0
H626 H 0.85831 0.51263 0.63981 0.0
H627 H 0.90302 0.5247 0.65644 0.0
loop_
_geom_bond_atom_site_label_1
_geom_bond_atom_site_label_2
_geom_bond_distance
_geom_bond_site_symmetry_2
_ccdc_geom_bond_type
H0 C7 0.929 . S
H1 C10 0.930 . S
H2 C12 0.929 . S
H3 C4 0.969 . S
C4 H3 0.969 . S
C4 O5 1.550 1_556 S
C4 H6 0.973 . S
O5 C4 1.550 1_554 S
O5 C11 1.412 . S
H6 C4 0.973 . S
C7 H0 0.929 . S
C7 C8 1.400 . S
C7 C9 1.364 1_554 S
C8 C7 1.400 . S
C8 C12 1.377 . S
C9 C7 1.364 1_556 S
C9 C10 1.374 . S
C10 H1 0.930 . S
C10 C9 1.374 . S
C10 C11 1.383 1_556 S
C11 O5 1.412 . S
C11 C10 1.383 1_554 S
C11 C12 1.394 . S
C12 H2 0.929 . S
C12 C8 1.377 . S
C12 C11 1.394 . S
H13 C20 0.929 . S
H14 C23 0.931 1_556 S
H15 C25 0.929 . S
H16 C17 0.969 . S
C17 H16 0.969 . S
C17 O18 1.550 1_455 S
C17 H19 0.973 1_454 S
O18 C17 1.550 1_655 S
O18 C24 1.410 1_655 S
H19 C17 0.973 1_656 S
C20 H13 0.929 . S
C20 C21 1.400 . S
C20 C22 1.364 . S
C21 C20 1.400 . S
C21 C25 1.377 1_455 S
C22 C20 1.364 . S
C22 C23 1.374 1_455 S
C23 H14 0.931 1_554 S
C23 C22 1.374 1_655 S
C23 C24 1.383 1_655 S
C24 O18 1.410 1_455 S
C24 C23 1.383 1_455 S
C24 C25 1.394 1_455 S
C25 H15 0.929 . S
C25 C21 1.377 1_655 S
C25 C24 1.394 1_655 S
H26 C33 0.929 . S
H27 C36 0.931 . S
H28 C38 0.928 1_565 S
H29 C30 0.969 . S
C30 H29 0.969 . S
C30 O31 1.550 1_546 S
C30 H32 0.973 1_545 S
O31 C30 1.550 1_564 S
O31 C37 1.406 1_565 S
H32 C30 0.973 1_565 S
C33 H26 0.929 . S
C33 C34 1.400 . S
C33 C35 1.364 . S
C34 C33 1.400 . S
C34 C38 1.376 . S
C35 C33 1.364 . S
C35 C36 1.373 1_544 S
C36 H27 0.931 . S
C36 C35 1.373 1_566 S
C36 C37 1.383 1_566 S
C37 O31 1.406 1_545 S
C37 C36 1.383 1_544 S
C37 C38 1.394 . S
C38 H28 0.928 1_545 S
C38 C34 1.376 . S
C38 C37 1.394 . S
H39 C46 0.929 . S
H40 C49 0.930 . S
H41 C51 0.929 . S
H42 C43 0.969 . S
C43 H42 0.969 . S
C43 O44 1.550 1_556 S
C43 H45 0.973 . S
O44 C43 1.550 1_554 S
O44 C50 1.412 . S
H45 C43 0.973 . S
C46 H39 0.929 . S
C46 C47 1.400 . S
C46 C48 1.364 1_554 S
C47 C46 1.400 . S
C47 C51 1.377 . S
C48 C46 1.364 1_556 S
C48 C49 1.374 . S
C49 H40 0.930 . S
C49 C48 1.374 . S
C49 C50 1.383 1_556 S
C50 O44 1.412 . S
C50 C49 1.383 1_554 S
C50 C51 1.394 . S
C51 H41 0.929 . S
C51 C47 1.377 . S
C51 C50 1.394 . S
H52 C59 0.929 . S
H53 C62 0.930 . S
H54 C64 0.929 . S
H55 C56 0.969 . S
C56 H55 0.969 . S
C56 O57 1.550 . S
C56 H58 0.973 . S
O57 C56 1.550 . S
O57 C63 1.412 . S
H58 C56 0.973 . S
C59 H52 0.929 . S
C59 C60 1.400 . S
C59 C61 1.364 . S
C60 C59 1.400 . S
C60 C64 1.377 . S
C61 C59 1.364 . S
C61 C62 1.374 . S
C62 H53 0.930 . S
C62 C61 1.374 . S
C62 C63 1.383 . S
C63 O57 1.412 . S
C63 C62 1.383 . S
C63 C64 1.394 . S
C64 H54 0.929 . S
C64 C60 1.377 . S
C64 C63 1.394 . S
H65 C72 0.929 . S
H66 C75 0.930 . S
H67 C77 0.929 . S
H68 C69 0.969 . S
C69 H68 0.969 . S
C69 O70 1.550 . S
C69 H71 0.973 . S
O70 C69 1.550 . S
O70 C76 1.412 . S
H71 C69 0.973 . S
C72 H65 0.929 . S
C72 C73 1.400 . S
C72 C74 1.364 . S
C73 C72 1.400 . S
C73 C77 1.377 . S
C74 C72 1.364 . S
C74 C75 1.374 . S
C75 H66 0.930 . S
C75 C74 1.374 . S
C75 C76 1.383 . S
C76 O70 1.412 . S
C76 C75 1.383 . S
C76 C77 1.394 . S
C77 H67 0.929 . S
C77 C73 1.377 . S
C77 C76 1.394 . S
H78 C85 0.929 . S
H79 C88 0.930 . S
H80 C90 0.929 . S
H81 C82 0.969 . S
C82 H81 0.969 . S
C82 O83 1.541 1_545 S
C82 H84 0.973 . S
O83 C82 1.541 1_565 S
O83 C89 1.405 1_565 S
H84 C82 0.973 . S
C85 H78 0.929 . S
C85 C86 1.400 . S
C85 C87 1.364 . S
C86 C85 1.400 . S
C86 C90 1.377 . S
C87 C85 1.364 . S
C87 C88 1.374 . S
C88 H79 0.930 . S
C88 C87 1.374 . S
C88 C89 1.383 . S
C89 O83 1.405 1_545 S
C89 C88 1.383 . S
C89 C90 1.394 . S
C90 H80 0.929 . S
C90 C86 1.377 . S
C90 C89 1.394 . S
H91 C98 0.929 . S
H92 C101 0.930 . S
H93 C103 0.929 . S
H94 C95 0.969 . S
C95 H94 0.969 . S
C95 O96 1.550 . S
C95 H97 0.973 . S
O96 C95 1.550 . S
O96 C102 1.412 . S
H97 C95 0.973 . S
C98 H91 0.929 . S
C98 C99 1.400 . S
C98 C100 1.364 . S
C99 C98 1.400 . S
C99 C103 1.377 . S
C100 C98 1.364 . S
C100 C101 1.374 . S
C101 H92 0.930 . S
C101 C100 1.374 . S
C101 C102 1.383 . S
C102 O96 1.412 . S
C102 C101 1.383 . S
C102 C103 1.394 . S
C103 H93 0.929 . S
C103 C99 1.377 . S
C103 C102 1.394 . S
O104 Zn105 1.955 . S
O104 C120 1.225 1_545 S
Zn105 O104 1.955 . S
Zn105 O106 1.948 1_545 S
Zn105 O112 1.941 . S
Zn105 O117 1.898 1_545 S
O106 Zn105 1.948 1_565 S
O106 Zn107 1.899 1_465 S
O106 Zn108 1.952 . S
O106 Zn109 1.967 1_455 S
Zn107 O106 1.899 1_645 S
Zn107 O110 1.933 . S
Zn107 O113 1.941 1_655 S
Zn107 O114 1.965 . S
Zn108 O106 1.952 . S
Zn108 O115 1.938 1_565 S
Zn108 O116 1.906 . S
Zn108 O126 1.953 . S
Zn109 O106 1.967 1_655 S
Zn109 O111 1.932 . S
Zn109 O118 1.977 . S
Zn109 O119 1.910 1_655 S
O110 Zn107 1.933 . S
O110 C121 1.226 . S
O111 Zn109 1.932 . S
O111 C121 1.307 1_565 S
O112 Zn105 1.941 . S
O112 C123 1.253 . S
O113 Zn107 1.941 1_455 S
O113 C123 1.283 . S
O114 Zn107 1.965 . S
O114 C122 1.303 1_655 S
O115 Zn108 1.938 1_545 S
O115 C122 1.247 . S
O116 Zn108 1.906 . S
O116 C124 1.304 1_455 S
O117 Zn105 1.898 1_565 S
O117 C125 1.311 . S
O118 Zn109 1.977 . S
O118 C124 1.272 . S
O119 Zn109 1.910 1_455 S
O119 C125 1.231 . S
C120 O104 1.225 1_565 S
C120 O126 1.298 . S
C121 O110 1.226 . S
C121 O111 1.307 1_545 S
C122 O114 1.303 1_455 S
C122 O115 1.247 . S
C123 O112 1.253 . S
C123 O113 1.283 . S
C124 O116 1.304 1_655 S
C124 O118 1.272 . S
C125 O117 1.311 . S
C125 O119 1.231 . S
O126 Zn108 1.953 . S
O126 C120 1.298 . S
O127 Zn128 1.953 . S
O127 C143 1.225 . S
Zn128 O127 1.953 . S
Zn128 O129 1.949 . S
Zn128 O135 1.919 . S
Zn128 O140 1.924 . S
O129 Zn128 1.949 . S
O129 Zn130 1.923 1_545 S
O129 Zn131 1.950 . S
O129 Zn132 1.945 1_545 S
Zn130 O129 1.923 1_565 S
Zn130 O133 1.933 . S
Zn130 O136 1.941 . S
Zn130 O137 1.965 . S
Zn131 O129 1.950 . S
Zn131 O138 1.938 . S
Zn131 O139 1.906 . S
Zn131 O149 1.953 . S
Zn132 O129 1.945 1_565 S
Zn132 O134 1.932 . S
Zn132 O141 1.977 . S
Zn132 O142 1.910 1_565 S
O133 Zn130 1.933 . S
O133 C144 1.226 . S
O134 Zn132 1.932 . S
O134 C144 1.307 . S
O135 Zn128 1.919 . S
O135 C146 1.253 . S
O136 Zn130 1.941 . S
O136 C146 1.283 1_565 S
O137 Zn130 1.965 . S
O137 C145 1.303 1_565 S
O138 Zn131 1.938 . S
O138 C145 1.247 . S
O139 Zn131 1.906 . S
O139 C147 1.304 1_545 S
O140 Zn128 1.924 . S
O140 C148 1.311 . S
O141 Zn132 1.977 . S
O141 C147 1.272 . S
O142 Zn132 1.910 1_545 S
O142 C148 1.231 . S
C143 O127 1.225 . S
C143 O149 1.298 . S
C144 O133 1.226 . S
C144 O134 1.307 . S
C145 O137 1.303 1_545 S
C145 O138 1.247 . S
C146 O135 1.253 . S
C146 O136 1.283 1_545 S
C147 O139 1.304 1_565 S
C147 O141 1.272 . S
C148 O140 1.311 . S
C148 O142 1.231 . S
O149 Zn131 1.953 . S
O149 C143 1.298 . S
O150 Zn151 1.953 . S
O150 C166 1.225 . S
Zn151 O150 1.953 . S
Zn151 O152 1.949 . S
Zn151 O158 1.919 . S
Zn151 O163 1.924 . S
O152 Zn151 1.949 . S
O152 Zn153 1.923 . S
O152 Zn154 1.950 . S
O152 Zn155 1.945 . S
Zn153 O152 1.923 . S
Zn153 O156 1.933 . S
Zn153 O159 1.941 . S
Zn153 O160 1.965 . S
Zn154 O152 1.950 . S
Zn154 O161 1.938 . S
Zn154 O162 1.906 . S
Zn154 O172 1.953 . S
Zn155 O152 1.945 . S
Zn155 O157 1.932 . S
Zn155 O164 1.977 . S
Zn155 O165 1.910 . S
O156 Zn153 1.933 . S
O156 C167 1.226 . S
O157 Zn155 1.932 . S
O157 C167 1.307 . S
O158 Zn151 1.919 . S
O158 C169 1.253 . S
O159 Zn153 1.941 . S
O159 C169 1.283 . S
O160 Zn153 1.965 . S
O160 C168 1.303 . S
O161 Zn154 1.938 . S
O161 C168 1.247 . S
O162 Zn154 1.906 . S
O162 C170 1.304 . S
O163 Zn151 1.924 . S
O163 C171 1.311 . S
O164 Zn155 1.977 . S
O164 C170 1.272 . S
O165 Zn155 1.910 . S
O165 C171 1.231 . S
C166 O150 1.225 . S
C166 O172 1.298 . S
C167 O156 1.226 . S
C167 O157 1.307 . S
C168 O160 1.303 . S
C168 O161 1.247 . S
C169 O158 1.253 . S
C169 O159 1.283 . S
C170 O162 1.304 . S
C170 O164 1.272 . S
C171 O163 1.311 . S
C171 O165 1.231 . S
O172 Zn154 1.953 . S
O172 C166 1.298 . S
O173 Zn174 1.953 1_655 S
O173 C189 1.225 . S
Zn174 O173 1.953 1_455 S
Zn174 O175 1.949 . S
Zn174 O181 1.919 . S
Zn174 O186 1.924 . S
O175 Zn174 1.949 . S
O175 Zn176 1.917 1_455 S
O175 Zn177 1.929 1_455 S
O175 Zn178 1.973 . S
Zn176 O175 1.917 1_655 S
Zn176 O179 1.933 1_655 S
Zn176 O182 1.941 . S
Zn176 O183 1.965 . S
Zn177 O175 1.929 1_655 S
Zn177 O184 1.938 . S
Zn177 O185 1.906 . S
Zn177 O195 1.953 . S
Zn178 O175 1.973 . S
Zn178 O180 1.932 . S
Zn178 O187 1.977 . S
Zn178 O188 1.910 . S
O179 Zn176 1.933 1_455 S
O179 C190 1.226 . S
O180 Zn178 1.932 . S
O180 C190 1.307 . S
O181 Zn174 1.919 . S
O181 C192 1.253 . S
O182 Zn176 1.941 . S
O182 C192 1.283 1_655 S
O183 Zn176 1.965 . S
O183 C191 1.303 . S
O184 Zn177 1.938 . S
O184 C191 1.247 . S
O185 Zn177 1.906 . S
O185 C193 1.304 1_655 S
O186 Zn174 1.924 . S
O186 C194 1.311 . S
O187 Zn178 1.977 . S
O187 C193 1.272 . S
O188 Zn178 1.910 . S
O188 C194 1.231 . S
C189 O173 1.225 . S
C189 O195 1.298 . S
C190 O179 1.226 . S
C190 O180 1.307 . S
C191 O183 1.303 . S
C191 O184 1.247 . S
C192 O181 1.253 . S
C192 O182 1.283 1_455 S
C193 O185 1.304 1_455 S
C193 O187 1.272 . S
C194 O186 1.311 . S
C194 O188 1.231 . S
O195 Zn177 1.953 . S
O195 C189 1.298 . S
C196 C197 1.363 1_565 S
C196 C202 1.379 . S
C196 N204 1.356 . S
C197 C196 1.363 1_545 S
C197 C203 1.363 . S
C198 C199 1.363 1_545 S
C198 C203 1.379 . S
C198 N205 1.356 . S
C199 C198 1.363 1_565 S
C199 C202 1.363 . S
N200 C202 1.356 . S
N200 H212 0.984 . S
N200 H213 0.985 . S
N201 C203 1.356 . S
N201 H206 0.984 . S
N201 H207 0.985 . S
C202 C196 1.379 . S
C202 C199 1.363 . S
C202 N200 1.356 . S
C203 C197 1.363 . S
C203 C198 1.379 . S
C203 N201 1.356 . S
N204 C196 1.356 . S
N204 H210 0.984 . S
N204 H211 0.984 . S
N205 C198 1.356 . S
N205 H208 0.984 . S
N205 H209 0.985 . S
H206 N201 0.984 . S
H207 N201 0.985 . S
H208 N205 0.984 . S
H209 N205 0.985 . S
H210 N204 0.984 . S
H211 N204 0.984 . S
H212 N200 0.984 . S
H213 N200 0.985 . S
C214 C215 1.363 . S
C214 C220 1.379 . S
C214 N222 1.356 . S
C215 C214 1.363 . S
C215 C221 1.363 . S
C216 C217 1.363 . S
C216 C221 1.379 . S
C216 N223 1.356 . S
C217 C216 1.363 . S
C217 C220 1.363 . S
N218 C220 1.356 . S
N218 H230 0.984 . S
N218 H231 0.985 . S
N219 C221 1.356 . S
N219 H224 0.984 . S
N219 H225 0.985 . S
C220 C214 1.379 . S
C220 C217 1.363 . S
C220 N218 1.356 . S
C221 C215 1.363 . S
C221 C216 1.379 . S
C221 N219 1.356 . S
N222 C214 1.356 . S
N222 H228 0.984 . S
N222 H229 0.984 . S
N223 C216 1.356 . S
N223 H226 0.984 . S
N223 H227 0.985 . S
H224 N219 0.984 . S
H225 N219 0.985 . S
H226 N223 0.984 . S
H227 N223 0.985 . S
H228 N222 0.984 . S
H229 N222 0.984 . S
H230 N218 0.984 . S
H231 N218 0.985 . S
C232 C233 1.363 . S
C232 C238 1.379 . S
C232 N240 1.356 . S
C233 C232 1.363 . S
C233 C239 1.363 . S
C234 C235 1.363 . S
C234 C239 1.379 . S
C234 N241 1.356 . S
C235 C234 1.363 . S
C235 C238 1.363 . S
N236 C238 1.356 . S
N236 H248 0.984 . S
N236 H249 0.985 . S
N237 C239 1.356 . S
N237 H242 0.984 . S
N237 H243 0.985 . S
C238 C232 1.379 . S
C238 C235 1.363 . S
C238 N236 1.356 . S
C239 C233 1.363 . S
C239 C234 1.379 . S
C239 N237 1.356 . S
N240 C232 1.356 . S
N240 H246 0.984 . S
N240 H247 0.984 . S
N241 C234 1.356 . S
N241 H244 0.984 . S
N241 H245 0.985 . S
H242 N237 0.984 . S
H243 N237 0.985 . S
H244 N241 0.984 . S
H245 N241 0.985 . S
H246 N240 0.984 . S
H247 N240 0.984 . S
H248 N236 0.984 . S
H249 N236 0.985 . S
C250 C251 1.363 . S
C250 C256 1.379 . S
C250 N258 1.356 . S
C251 C250 1.363 . S
C251 C257 1.363 . S
C252 C253 1.363 . S
C252 C257 1.379 . S
C252 N259 1.356 1_455 S
C253 C252 1.363 . S
C253 C256 1.363 . S
N254 C256 1.356 . S
N254 H266 0.984 . S
N254 H267 0.985 . S
N255 C257 1.356 . S
N255 H260 0.984 . S
N255 H261 0.985 1_455 S
C256 C250 1.379 . S
C256 C253 1.363 . S
C256 N254 1.356 . S
C257 C251 1.363 . S
C257 C252 1.379 . S
C257 N255 1.356 . S
N258 C250 1.356 . S
N258 H264 0.984 . S
N258 H265 0.984 . S
N259 C252 1.356 1_655 S
N259 H262 0.984 . S
N259 H263 0.985 . S
H260 N255 0.984 . S
H261 N255 0.985 1_655 S
H262 N259 0.984 . S
H263 N259 0.985 . S
H264 N258 0.984 . S
H265 N258 0.984 . S
H266 N254 0.984 . S
H267 N254 0.985 . S
C268 C269 1.367 . S
C268 C274 1.379 . S
C268 N276 1.356 1_556 S
C269 C268 1.367 . S
C269 C275 1.359 1_565 S
C270 C271 1.363 . S
C270 C275 1.379 . S
C270 N277 1.356 . S
C271 C270 1.363 . S
C271 C274 1.363 1_545 S
N272 C274 1.356 . S
N272 H284 0.984 . S
N272 H285 0.985 . S
N273 C275 1.356 . S
N273 H278 0.984 . S
N273 H279 0.985 . S
C274 C268 1.379 . S
C274 C271 1.363 1_565 S
C274 N272 1.356 . S
C275 C269 1.359 1_545 S
C275 C270 1.379 . S
C275 N273 1.356 . S
N276 C268 1.356 1_554 S
N276 H282 0.984 . S
N276 H283 0.984 . S
N277 C270 1.356 . S
N277 H280 0.984 . S
N277 H281 0.985 . S
H278 N273 0.984 . S
H279 N273 0.985 . S
H280 N277 0.984 . S
H281 N277 0.985 . S
H282 N276 0.984 . S
H283 N276 0.984 . S
H284 N272 0.984 . S
H285 N272 0.985 . S
C286 C287 1.363 . S
C286 C292 1.379 . S
C286 N294 1.356 . S
C287 C286 1.363 . S
C287 C293 1.363 . S
C288 C289 1.363 . S
C288 C293 1.379 . S
C288 N295 1.356 . S
C289 C288 1.363 . S
C289 C292 1.363 . S
N290 C292 1.356 . S
N290 H302 0.984 . S
N290 H303 0.985 . S
N291 C293 1.356 1_554 S
N291 H296 0.984 . S
N291 H297 0.985 . S
C292 C286 1.379 . S
C292 C289 1.363 . S
C292 N290 1.356 . S
C293 C287 1.363 . S
C293 C288 1.379 . S
C293 N291 1.356 1_556 S
N294 C286 1.356 . S
N294 H300 0.984 . S
N294 H301 0.984 . S
N295 C288 1.356 . S
N295 H298 0.984 . S
N295 H299 0.985 . S
H296 N291 0.984 . S
H297 N291 0.985 . S
H298 N295 0.984 . S
H299 N295 0.985 . S
H300 N294 0.984 . S
H301 N294 0.984 . S
H302 N290 0.984 . S
H303 N290 0.985 . S
C304 C305 1.363 . S
C304 C310 1.379 . S
C304 N312 1.356 . S
C305 C304 1.363 . S
C305 C311 1.363 . S
C306 C307 1.363 . S
C306 C311 1.379 . S
C306 N313 1.356 . S
C307 C306 1.363 . S
C307 C310 1.363 . S
N308 C310 1.356 . S
N308 H320 0.984 . S
N308 H321 0.985 . S
N309 C311 1.356 . S
N309 H314 0.984 1_556 S
N309 H315 0.985 1_556 S
C310 C304 1.379 . S
C310 C307 1.363 . S
C310 N308 1.356 . S
C311 C305 1.363 . S
C311 C306 1.379 . S
C311 N309 1.356 . S
N312 C304 1.356 . S
N312 H318 0.984 . S
N312 H319 0.984 . S
N313 C306 1.356 . S
N313 H316 0.984 . S
N313 H317 0.985 . S
H314 N309 0.984 1_554 S
H315 N309 0.985 1_554 S
H316 N313 0.984 . S
H317 N313 0.985 . S
H318 N312 0.984 . S
H319 N312 0.984 . S
H320 N308 0.984 . S
H321 N308 0.985 . S
C322 C323 1.374 . S
C322 C328 1.379 . S
C322 N330 1.356 . S
C323 C322 1.374 . S
C323 C329 1.350 1_656 S
C324 C325 1.363 . S
C324 C329 1.379 1_556 S
C324 N331 1.356 . S
C325 C324 1.363 . S
C325 C328 1.363 1_455 S
N326 C328 1.356 . S
N326 H338 0.984 . S
N326 H339 0.985 . S
N327 C329 1.356 . S
N327 H332 0.984 . S
N327 H333 0.985 . S
C328 C322 1.379 . S
C328 C325 1.363 1_655 S
C328 N326 1.356 . S
C329 C323 1.350 1_454 S
C329 C324 1.379 1_554 S
C329 N327 1.356 . S
N330 C322 1.356 . S
N330 H336 0.984 . S
N330 H337 0.984 . S
N331 C324 1.356 . S
N331 H334 0.984 . S
N331 H335 0.985 . S
H332 N327 0.984 . S
H333 N327 0.985 . S
H334 N331 0.984 . S
H335 N331 0.985 . S
H336 N330 0.984 . S
H337 N330 0.984 . S
H338 N326 0.984 . S
H339 N326 0.985 . S
C340 C341 1.363 . S
C340 C346 1.379 . S
C340 N348 1.356 . S
C341 C340 1.363 . S
C341 C347 1.363 . S
C342 C343 1.363 . S
C342 C347 1.379 . S
C342 N349 1.356 . S
C343 C342 1.363 . S
C343 C346 1.363 . S
N344 C346 1.356 1_655 S
N344 H356 0.984 . S
N344 H357 0.985 . S
N345 C347 1.356 . S
N345 H350 0.984 . S
N345 H351 0.985 . S
C346 C340 1.379 . S
C346 C343 1.363 . S
C346 N344 1.356 1_455 S
C347 C341 1.363 . S
C347 C342 1.379 . S
C347 N345 1.356 . S
N348 C340 1.356 . S
N348 H354 0.984 . S
N348 H355 0.984 . S
N349 C342 1.356 . S
N349 H352 0.984 . S
N349 H353 0.985 . S
H350 N345 0.984 . S
H351 N345 0.985 . S
H352 N349 0.984 . S
H353 N349 0.985 . S
H354 N348 0.984 . S
H355 N348 0.984 . S
H356 N344 0.984 . S
H357 N344 0.985 . S
C358 C359 1.363 . S
C358 C364 1.379 . S
C358 N366 1.356 . S
C359 C358 1.363 . S
C359 C365 1.363 1_545 S
C360 C361 1.363 1_565 S
C360 C365 1.379 . S
C360 N367 1.356 . S
C361 C360 1.363 1_545 S
C361 C364 1.363 . S
N362 C364 1.356 . S
N362 H374 0.984 . S
N362 H375 0.985 . S
N363 C365 1.356 . S
N363 H368 0.984 . S
N363 H369 0.985 . S
C364 C358 1.379 . S
C364 C361 1.363 . S
C364 N362 1.356 . S
C365 C359 1.363 1_565 S
C365 C360 1.379 . S
C365 N363 1.356 . S
N366 C358 1.356 . S
N366 H372 0.984 . S
N366 H373 0.984 . S
N367 C360 1.356 . S
N367 H370 0.984 . S
N367 H371 0.985 . S
H368 N363 0.984 . S
H369 N363 0.985 . S
H370 N367 0.984 . S
H371 N367 0.985 . S
H372 N366 0.984 . S
H373 N366 0.984 . S
H374 N362 0.984 . S
H375 N362 0.985 . S
C376 C377 1.363 . S
C376 C382 1.379 . S
C376 N384 1.356 . S
C377 C376 1.363 . S
C377 C383 1.363 . S
C378 C379 1.363 . S
C378 C383 1.379 . S
C378 N385 1.356 . S
C379 C378 1.363 . S
C379 C382 1.363 . S
N380 C382 1.356 . S
N380 H392 0.984 . S
N380 H393 0.985 . S
N381 C383 1.356 . S
N381 H386 0.984 . S
N381 H387 0.985 . S
C382 C376 1.379 . S
C382 C379 1.363 . S
C382 N380 1.356 . S
C383 C377 1.363 . S
C383 C378 1.379 . S
C383 N381 1.356 . S
N384 C376 1.356 . S
N384 H390 0.984 . S
N384 H391 0.984 . S
N385 C378 1.356 . S
N385 H388 0.984 . S
N385 H389 0.985 . S
H386 N381 0.984 . S
H387 N381 0.985 . S
H388 N385 0.984 . S
H389 N385 0.985 . S
H390 N384 0.984 . S
H391 N384 0.984 . S
H392 N380 0.984 . S
H393 N380 0.985 . S
C394 C395 1.363 . S
C394 C400 1.379 . S
C394 N402 1.356 . S
C395 C394 1.363 . S
C395 C401 1.363 . S
C396 C397 1.363 . S
C396 C401 1.379 . S
C396 N403 1.356 . S
C397 C396 1.363 . S
C397 C400 1.363 . S
N398 C400 1.356 . S
N398 H410 0.984 . S
N398 H411 0.985 . S
N399 C401 1.356 . S
N399 H404 0.984 . S
N399 H405 0.985 . S
C400 C394 1.379 . S
C400 C397 1.363 . S
C400 N398 1.356 . S
C401 C395 1.363 . S
C401 C396 1.379 . S
C401 N399 1.356 . S
N402 C394 1.356 . S
N402 H408 0.984 . S
N402 H409 0.984 . S
N403 C396 1.356 . S
N403 H406 0.984 . S
N403 H407 0.985 . S
H404 N399 0.984 . S
H405 N399 0.985 . S
H406 N403 0.984 . S
H407 N403 0.985 . S
H408 N402 0.984 . S
H409 N402 0.984 . S
H410 N398 0.984 . S
H411 N398 0.985 . S
C412 C413 1.364 1_655 S
C412 C418 1.376 1_654 S
C412 N420 1.360 . S
C413 C412 1.364 1_455 S
C413 C419 1.358 1_554 S
C414 C415 1.363 . S
C414 C419 1.379 . S
C414 N421 1.356 . S
C415 C414 1.363 . S
C415 C418 1.363 . S
N416 C418 1.356 1_554 S
N416 H428 0.984 . S
N416 H429 0.985 1_554 S
N417 C419 1.356 . S
N417 H422 0.984 . S
N417 H423 0.985 . S
C418 C412 1.376 1_456 S
C418 C415 1.363 . S
C418 N416 1.356 1_556 S
C419 C413 1.358 1_556 S
C419 C414 1.379 . S
C419 N417 1.356 . S
N420 C412 1.360 . S
N420 H426 0.984 . S
N420 H427 0.984 . S
N421 C414 1.356 . S
N421 H424 0.984 . S
N421 H425 0.985 . S
H422 N417 0.984 . S
H423 N417 0.985 . S
H424 N421 0.984 . S
H425 N421 0.985 . S
H426 N420 0.984 . S
H427 N420 0.984 . S
H428 N416 0.984 . S
H429 N416 0.985 1_556 S
C430 C431 1.363 1_554 S
C430 C436 1.379 1_554 S
C430 N438 1.345 1_545 S
C431 C430 1.363 1_556 S
C431 C437 1.363 . S
C432 C433 1.363 . S
C432 C437 1.379 . S
C432 N439 1.356 . S
C433 C432 1.363 . S
C433 C436 1.363 . S
N434 C436 1.356 1_554 S
N434 H446 0.984 . S
N434 H447 0.985 1_554 S
N435 C437 1.356 . S
N435 H440 0.984 1_545 S
N435 H441 0.985 . S
C436 C430 1.379 1_556 S
C436 C433 1.363 . S
C436 N434 1.356 1_556 S
C437 C431 1.363 . S
C437 C432 1.379 . S
C437 N435 1.356 . S
N438 C430 1.345 1_565 S
N438 H444 0.982 1_565 S
N438 H445 0.999 . S
N439 C432 1.356 . S
N439 H442 0.984 . S
N439 H443 0.985 . S
H440 N435 0.984 1_565 S
H441 N435 0.985 . S
H442 N439 0.984 . S
H443 N439 0.985 . S
H444 N438 0.982 1_545 S
H445 N438 0.999 . S
H446 N434 0.984 . S
H447 N434 0.985 1_556 S
C448 C449 1.363 . S
C448 C454 1.379 . S
C448 N456 1.356 1_556 S
C449 C448 1.363 . S
C449 C455 1.363 . S
C450 C451 1.363 . S
C450 C455 1.379 . S
C450 N457 1.356 . S
C451 C450 1.363 . S
C451 C454 1.363 . S
N452 C454 1.356 . S
N452 H464 0.984 1_556 S
N452 H465 0.985 . S
N453 C455 1.356 . S
N453 H458 0.984 . S
N453 H459 0.985 . S
C454 C448 1.379 . S
C454 C451 1.363 . S
C454 N452 1.356 . S
C455 C449 1.363 . S
C455 C450 1.379 . S
C455 N453 1.356 . S
N456 C448 1.356 1_554 S
N456 H462 0.984 . S
N456 H463 0.984 . S
N457 C450 1.356 . S
N457 H460 0.984 . S
N457 H461 0.985 . S
H458 N453 0.984 . S
H459 N453 0.985 . S
H460 N457 0.984 . S
H461 N457 0.985 . S
H462 N456 0.984 . S
H463 N456 0.984 . S
H464 N452 0.984 1_554 S
H465 N452 0.985 . S
C466 C467 1.363 . S
C466 C472 1.379 . S
C466 N474 1.356 1_556 S
C467 C466 1.363 . S
C467 C473 1.363 . S
C468 C469 1.363 . S
C468 C473 1.379 . S
C468 N475 1.356 . S
C469 C468 1.363 . S
C469 C472 1.363 . S
N470 C472 1.356 . S
N470 H482 0.984 . S
N470 H483 0.985 . S
N471 C473 1.356 . S
N471 H476 0.984 . S
N471 H477 0.985 . S
C472 C466 1.379 . S
C472 C469 1.363 . S
C472 N470 1.356 . S
C473 C467 1.363 . S
C473 C468 1.379 . S
C473 N471 1.356 . S
N474 C466 1.356 1_554 S
N474 H480 0.984 . S
N474 H481 0.984 . S
N475 C468 1.356 . S
N475 H478 0.984 . S
N475 H479 0.985 . S
H476 N471 0.984 . S
H477 N471 0.985 . S
H478 N475 0.984 . S
H479 N475 0.985 . S
H480 N474 0.984 . S
H481 N474 0.984 . S
H482 N470 0.984 . S
H483 N470 0.985 . S
C484 C485 1.363 . S
C484 C490 1.379 . S
C484 N492 1.356 . S
C485 C484 1.363 . S
C485 C491 1.363 . S
C486 C487 1.363 . S
C486 C491 1.379 . S
C486 N493 1.356 1_455 S
C487 C486 1.363 . S
C487 C490 1.363 . S
N488 C490 1.356 1_556 S
N488 H500 0.984 . S
N488 H501 0.985 . S
N489 C491 1.356 1_655 S
N489 H494 0.984 1_655 S
N489 H495 0.985 . S
C490 C484 1.379 . S
C490 C487 1.363 . S
C490 N488 1.356 1_554 S
C491 C485 1.363 . S
C491 C486 1.379 . S
C491 N489 1.356 1_455 S
N492 C484 1.356 . S
N492 H498 0.984 . S
N492 H499 0.984 . S
N493 C486 1.356 1_655 S
N493 H496 0.984 . S
N493 H497 0.985 . S
H494 N489 0.984 1_455 S
H495 N489 0.985 . S
H496 N493 0.984 . S
H497 N493 0.985 . S
H498 N492 0.984 . S
H499 N492 0.984 . S
H500 N488 0.984 . S
H501 N488 0.985 . S
C502 C503 1.363 . S
C502 C508 1.379 1_554 S
C502 N510 1.356 . S
C503 C502 1.363 . S
C503 C509 1.363 1_545 S
C504 C505 1.363 1_564 S
C504 C509 1.379 . S
C504 N511 1.356 . S
C505 C504 1.363 1_546 S
C505 C508 1.363 . S
N506 C508 1.356 . S
N506 H518 0.984 . S
N506 H519 0.985 . S
N507 C509 1.356 . S
N507 H512 0.984 . S
N507 H513 0.985 . S
C508 C502 1.379 1_556 S
C508 C505 1.363 . S
C508 N506 1.356 . S
C509 C503 1.363 1_565 S
C509 C504 1.379 . S
C509 N507 1.356 . S
N510 C502 1.356 . S
N510 H516 0.984 1_554 S
N510 H517 0.984 . S
N511 C504 1.356 . S
N511 H514 0.984 1_554 S
N511 H515 0.985 . S
H512 N507 0.984 . S
H513 N507 0.985 . S
H514 N511 0.984 1_556 S
H515 N511 0.985 . S
H516 N510 0.984 1_556 S
H517 N510 0.984 . S
H518 N506 0.984 . S
H519 N506 0.985 . S
C520 C521 1.363 1_556 S
C520 C526 1.379 . S
C520 N528 1.356 . S
C521 C520 1.363 1_554 S
C521 C527 1.363 . S
C522 C523 1.363 1_554 S
C522 C527 1.379 . S
C522 N529 1.356 . S
C523 C522 1.363 1_556 S
C523 C526 1.363 . S
N524 C526 1.356 . S
N524 H536 0.984 . S
N524 H537 0.985 . S
N525 C527 1.356 . S
N525 H530 0.984 . S
N525 H531 0.985 . S
C526 C520 1.379 . S
C526 C523 1.363 . S
C526 N524 1.356 . S
C527 C521 1.363 . S
C527 C522 1.379 . S
C527 N525 1.356 . S
N528 C520 1.356 . S
N528 H534 0.984 . S
N528 H535 0.984 1_556 S
N529 C522 1.356 . S
N529 H532 0.984 . S
N529 H533 0.985 . S
H530 N525 0.984 . S
H531 N525 0.985 . S
H532 N529 0.984 . S
H533 N529 0.985 . S
H534 N528 0.984 . S
H535 N528 0.984 1_554 S
H536 N524 0.984 . S
H537 N524 0.985 . S
C538 C539 1.363 . S
C538 C544 1.379 1_554 S
C538 N546 1.356 . S
C539 C538 1.363 . S
C539 C545 1.363 . S
C540 C541 1.363 1_554 S
C540 C545 1.379 . S
C540 N547 1.356 . S
C541 C540 1.363 1_556 S
C541 C544 1.363 . S
N542 C544 1.356 . S
N542 H554 0.984 . S
N542 H555 0.985 . S
N543 C545 1.356 . S
N543 H548 0.984 . S
N543 H549 0.985 . S
C544 C538 1.379 1_556 S
C544 C541 1.363 . S
C544 N542 1.356 . S
C545 C539 1.363 . S
C545 C540 1.379 . S
C545 N543 1.356 . S
N546 C538 1.356 . S
N546 H552 0.984 1_554 S
N546 H553 0.984 . S
N547 C540 1.356 . S
N547 H550 0.984 1_554 S
N547 H551 0.985 . S
H548 N543 0.984 . S
H549 N543 0.985 . S
H550 N547 0.984 1_556 S
H551 N547 0.985 . S
H552 N546 0.984 1_556 S
H553 N546 0.984 . S
H554 N542 0.984 . S
H555 N542 0.985 . S
C556 C557 1.363 1_455 S
C556 C562 1.379 . S
C556 N564 1.356 . S
C557 C556 1.363 1_655 S
C557 C563 1.363 . S
C558 C559 1.363 . S
C558 C563 1.379 . S
C558 N565 1.356 . S
C559 C558 1.363 . S
C559 C562 1.363 1_655 S
N560 C562 1.356 . S
N560 H572 0.984 . S
N560 H573 0.985 . S
N561 C563 1.356 . S
N561 H566 0.984 . S
N561 H567 0.985 . S
C562 C556 1.379 . S
C562 C559 1.363 1_455 S
C562 N560 1.356 . S
C563 C557 1.363 . S
C563 C558 1.379 . S
C563 N561 1.356 . S
N564 C556 1.356 . S
N564 H570 0.984 . S
N564 H571 0.984 . S
N565 C558 1.356 . S
N565 H568 0.984 . S
N565 H569 0.985 . S
H566 N561 0.984 . S
H567 N561 0.985 . S
H568 N565 0.984 . S
H569 N565 0.985 . S
H570 N564 0.984 . S
H571 N564 0.984 . S
H572 N560 0.984 . S
H573 N560 0.985 . S
C574 C575 1.363 . S
C574 C580 1.379 . S
C574 N582 1.356 . S
C575 C574 1.363 . S
C575 C581 1.362 1_565 S
C576 C577 1.363 . S
C576 C581 1.378 1_565 S
C576 N583 1.356 . S
C577 C576 1.363 . S
C577 C580 1.363 . S
N578 C580 1.356 . S
N578 H590 0.984 . S
N578 H591 0.985 . S
N579 C581 1.358 . S
N579 H584 0.984 . S
N579 H585 0.985 . S
C580 C574 1.379 . S
C580 C577 1.363 . S
C580 N578 1.356 . S
C581 C575 1.362 1_545 S
C581 C576 1.378 1_545 S
C581 N579 1.358 . S
N582 C574 1.356 . S
N582 H588 0.984 . S
N582 H589 0.984 . S
N583 C576 1.356 . S
N583 H586 0.984 . S
N583 H587 0.985 1_565 S
H584 N579 0.984 . S
H585 N579 0.985 . S
H586 N583 0.984 . S
H587 N583 0.985 1_545 S
H588 N582 0.984 . S
H589 N582 0.984 . S
H590 N578 0.984 . S
H591 N578 0.985 . S
C592 C593 1.363 . S
C592 C598 1.379 . S
C592 N600 1.356 . S
C593 C592 1.363 . S
C593 C599 1.363 . S
C594 C595 1.363 . S
C594 C599 1.379 . S
C594 N601 1.356 . S
C595 C594 1.363 . S
C595 C598 1.363 . S
N596 C598 1.356 . S
N596 H608 0.984 . S
N596 H609 0.985 . S
N597 C599 1.356 . S
N597 H602 0.984 . S
N597 H603 0.985 . S
C598 C592 1.379 . S
C598 C595 1.363 . S
C598 N596 1.356 . S
C599 C593 1.363 . S
C599 C594 1.379 . S
C599 N597 1.356 . S
N600 C592 1.356 . S
N600 H606 0.984 . S
N600 H607 0.984 . S
N601 C594 1.356 . S
N601 H604 0.984 . S
N601 H605 0.985 . S
H602 N597 0.984 . S
H603 N597 0.985 . S
H604 N601 0.984 . S
H605 N601 0.985 . S
H606 N600 0.984 . S
H607 N600 0.984 . S
H608 N596 0.984 . S
H609 N596 0.985 . S
C610 C611 1.363 . S
C610 C616 1.379 . S
C610 N618 1.356 . S
C611 C610 1.363 . S
C611 C617 1.363 . S
C612 C613 1.363 . S
C612 C617 1.379 . S
C612 N619 1.356 . S
C613 C612 1.363 . S
C613 C616 1.363 . S
N614 C616 1.356 . S
N614 H626 0.984 . S
N614 H627 0.985 . S
N615 C617 1.356 . S
N615 H620 0.984 . S
N615 H621 0.985 . S
C616 C610 1.379 . S
C616 C613 1.363 . S
C616 N614 1.356 . S
C617 C611 1.363 . S
C617 C612 1.379 . S
C617 N615 1.356 . S
N618 C610 1.356 . S
N618 H624 0.984 . S
N618 H625 0.984 . S
N619 C612 1.356 . S
N619 H622 0.984 . S
N619 H623 0.985 . S
H620 N615 0.984 . S
H621 N615 0.985 . S
H622 N619 0.984 . S
H623 N619 0.985 . S
H624 N618 0.984 . S
H625 N618 0.984 . S
H626 N614 0.984 . S
H627 N614 0.985 . S
C197 C82 1.484 . S
C199 C120 1.615 . S
C217 C143 1.640 . S
C215 C95 1.518 . S
C235 C166 1.637 . S
C233 C56 1.504 . S
C253 C193 1.520 . S
C251 C69 1.511 . S
C271 C121 1.564 . S
C269 C30 1.438 1_565 S
C287 C43 1.389 . S
C289 C144 1.529 . S
C305 C4 1.390 . S
C307 C167 1.522 . S
C323 C17 1.444 1_656 S
C325 C192 1.586 . S
C343 C122 0.762 . S
C341 C74 0.757 . S
C361 C145 0.729 . S
C359 C87 0.732 . S
C379 C168 0.753 . S
C377 C100 0.753 . S
C395 C61 0.901 . S
C397 C194 0.876 . S
C413 C22 1.012 . S
C415 C125 0.958 . S
C433 C148 0.948 . S
C431 C35 1.007 1_556 S
C451 C171 0.924 . S
C449 C48 0.977 . S
C467 C9 0.733 . S
C469 C191 0.734 . S
C485 C73 1.569 . S
C487 C123 1.544 1_554 S
C503 C86 1.529 . S
C505 C146 1.529 . S
C523 C169 1.541 . S
C521 C99 1.544 . S
C541 C190 1.459 . S
C539 C60 1.405 . S
C557 C21 1.648 1_655 S
C559 C124 1.563 . S
C577 C147 1.516 . S
C575 C34 1.603 1_565 S
C595 C170 1.502 . S
C593 C47 1.585 . S
C611 C8 1.647 . S
C613 C189 1.695 . S
