# Generated by pormake.
# Topology pyr, (3,6)-cn, num edge types: 1
# Building blocks:
#     Node 0, Type 0, BuildingBlock: QEWDON_clean_linker_0, # of connection points: 3
#     Node 1, Type 0, BuildingBlock: QEWDON_clean_linker_0, # of connection points: 3
#     Node 2, Type 0, BuildingBlock: QEWDON_clean_linker_0, # of connection points: 3
#     Node 3, Type 0, BuildingBlock: QEWDON_clean_linker_0, # of connection points: 3
#     Node 4, Type 0, BuildingBlock: QEWDON_clean_linker_0, # of connection points: 3
#     Node 5, Type 0, BuildingBlock: QEWDON_clean_linker_0, # of connection points: 3
#     Node 6, Type 0, BuildingBlock: QEWDON_clean_linker_0, # of connection points: 3
#     Node 7, Type 0, BuildingBlock: QEWDON_clean_linker_0, # of connection points: 3
#     Node 8, Type 1, BuildingBlock: BETFAJ_clean_sbu_0, # of connection points: 6
#     Node 9, Type 1, BuildingBlock: BETFAJ_clean_sbu_0, # of connection points: 6
#     Node 10, Type 1, BuildingBlock: BETFAJ_clean_sbu_0, # of connection points: 6
#     Node 11, Type 1, BuildingBlock: BETFAJ_clean_sbu_0, # of connection points: 6
#     Edge 12, Type (0, 1), BuildingBlock: ZUJKAS_clean_linker_0, # of connection points: 2
#     Edge 13, Type (0, 1), BuildingBlock: ZUJKAS_clean_linker_0, # of connection points: 2
#     Edge 14, Type (0, 1), BuildingBlock: ZUJKAS_clean_linker_0, # of connection points: 2
#     Edge 15, Type (0, 1), BuildingBlock: ZUJKAS_clean_linker_0, # of connection points: 2
#     Edge 16, Type (0, 1), BuildingBlock: ZUJKAS_clean_linker_0, # of connection points: 2
#     Edge 17, Type (0, 1), BuildingBlock: ZUJKAS_clean_linker_0, # of connection points: 2
#     Edge 18, Type (0, 1), BuildingBlock: ZUJKAS_clean_linker_0, # of connection points: 2
#     Edge 19, Type (0, 1), BuildingBlock: ZUJKAS_clean_linker_0, # of connection points: 2
#     Edge 20, Type (0, 1), BuildingBlock: ZUJKAS_clean_linker_0, # of connection points: 2
#     Edge 21, Type (0, 1), BuildingBlock: ZUJKAS_clean_linker_0, # of connection points: 2
#     Edge 22, Type (0, 1), BuildingBlock: ZUJKAS_clean_linker_0, # of connection points: 2
#     Edge 23, Type (0, 1), BuildingBlock: ZUJKAS_clean_linker_0, # of connection points: 2
#     Edge 24, Type (0, 1), BuildingBlock: ZUJKAS_clean_linker_0, # of connection points: 2
#     Edge 25, Type (0, 1), BuildingBlock: ZUJKAS_clean_linker_0, # of connection points: 2
#     Edge 26, Type (0, 1), BuildingBlock: ZUJKAS_clean_linker_0, # of connection points: 2
#     Edge 27, Type (0, 1), BuildingBlock: ZUJKAS_clean_linker_0, # of connection points: 2
#     Edge 28, Type (0, 1), BuildingBlock: ZUJKAS_clean_linker_0, # of connection points: 2
#     Edge 29, Type (0, 1), BuildingBlock: ZUJKAS_clean_linker_0, # of connection points: 2
#     Edge 30, Type (0, 1), BuildingBlock: ZUJKAS_clean_linker_0, # of connection points: 2
#     Edge 31, Type (0, 1), BuildingBlock: ZUJKAS_clean_linker_0, # of connection points: 2
#     Edge 32, Type (0, 1), BuildingBlock: ZUJKAS_clean_linker_0, # of connection points: 2
#     Edge 33, Type (0, 1), BuildingBlock: ZUJKAS_clean_linker_0, # of connection points: 2
#     Edge 34, Type (0, 1), BuildingBlock: ZUJKAS_clean_linker_0, # of connection points: 2
#     Edge 35, Type (0, 1), BuildingBlock: ZUJKAS_clean_linker_0, # of connection points: 2
# Relax obj value: 0.145
# Max RMSD: 0.267
# Mean RMSD: 0.196
data_MOF--net-pyr--node1-BETFAJ_clean_sbu_0--node2-QEWDON_clean_linker_0--edge1-ZUJKAS_clean_linker_0
_symmetry_space_group_name_H-M    P1
_symmetry_Int_Tables_number       1
_symmetry_cell_setting            triclinic
loop_
_symmetry_equiv_pos_as_xyz
'x, y, z'
_cell_length_a     49.243728
_cell_length_b     53.199963
_cell_length_c     50.896522
_cell_angle_alpha  92.115051
_cell_angle_beta   89.564395
_cell_angle_gamma 107.30203
loop_
_atom_site_label
_atom_site_type_symbol
_atom_site_fract_x
_atom_site_fract_y
_atom_site_fract_z
_atom_type_partial_charge
H0 H 0.37868 0.30922 0.19862 0.0
C1 C 0.36282 0.30239 0.21371 0.0
C2 C 0.3576 0.27682 0.2229 0.0
C3 C 0.34755 0.31911 0.22372 0.0
H4 H 0.33275 0.24829 0.2494 0.0
C5 C 0.33689 0.26804 0.2423 0.0
C6 C 0.32127 0.28439 0.25241 0.0
C7 C 0.32683 0.30994 0.24308 0.0
C8 C 0.35282 0.34596 0.21358 0.0
H9 H 0.31483 0.32266 0.25076 0.0
C10 C 0.32988 0.35559 0.20796 0.0
C11 C 0.3346 0.3808 0.19794 0.0
C12 C 0.3807 0.362 0.20918 0.0
H13 H 0.3988 0.35526 0.21361 0.0
C14 C 0.38552 0.38709 0.1993 0.0
H15 H 0.30827 0.34313 0.2106 0.0
C16 C 0.36265 0.39646 0.19362 0.0
H17 H 0.3669 0.41602 0.18608 0.0
H18 H 0.40706 0.39933 0.19605 0.0
H19 H 0.25268 0.89554 0.70417 0.0
C20 C 0.26772 0.88594 0.69633 0.0
C21 C 0.29445 0.89084 0.70842 0.0
C22 C 0.26025 0.86857 0.67426 0.0
H23 H 0.33413 0.88135 0.70765 0.0
C24 C 0.31365 0.87807 0.69822 0.0
C25 C 0.30653 0.86071 0.67623 0.0
C26 C 0.27987 0.85618 0.66428 0.0
C27 C 0.23215 0.8635 0.66128 0.0
H28 H 0.2743 0.84279 0.64726 0.0
C29 C 0.22115 0.88444 0.65653 0.0
C30 C 0.19554 0.88018 0.64247 0.0
C31 C 0.21673 0.83786 0.65264 0.0
H32 H 0.22446 0.82127 0.65637 0.0
C33 C 0.19115 0.83336 0.63906 0.0
H34 H 0.23287 0.90415 0.66344 0.0
C35 C 0.18071 0.85433 0.63376 0.0
H36 H 0.16131 0.85026 0.62238 0.0
H37 H 0.17954 0.81358 0.63229 0.0
H38 H 0.69902 0.43717 0.88741 0.0
C39 C 0.69082 0.41679 0.89282 0.0
C40 C 0.70643 0.40638 0.91053 0.0
C41 C 0.66341 0.40176 0.88409 0.0
H42 H 0.70627 0.37215 0.93213 0.0
C43 C 0.69455 0.38022 0.91851 0.0
C44 C 0.66731 0.36473 0.91019 0.0
C45 C 0.6521 0.37575 0.89286 0.0
C46 C 0.64388 0.41449 0.87092 0.0
H47 H 0.63085 0.36434 0.8867 0.0
C48 C 0.64925 0.42671 0.8461 0.0
C49 C 0.62936 0.43838 0.83533 0.0
C50 C 0.61875 0.41427 0.88432 0.0
H51 H 0.61409 0.40537 0.90328 0.0
C52 C 0.59942 0.42566 0.87381 0.0
H53 H 0.66847 0.42712 0.83541 0.0
C54 C 0.60463 0.43757 0.84966 0.0
H55 H 0.58901 0.44609 0.84198 0.0
H56 H 0.58022 0.42527 0.88449 0.0
H57 H 0.90141 0.7787 0.37047 0.0
C58 C 0.88416 0.76528 0.38094 0.0
C59 C 0.87732 0.77234 0.40654 0.0
C60 C 0.86818 0.74161 0.36812 0.0
H61 H 0.84854 0.76051 0.43893 0.0
C62 C 0.85418 0.75505 0.41938 0.0
C63 C 0.83728 0.73154 0.40684 0.0
C64 C 0.84487 0.72477 0.38127 0.0
C65 C 0.87179 0.73812 0.33922 0.0
H66 H 0.83145 0.70748 0.37081 0.0
C67 C 0.88256 0.71833 0.32759 0.0
C68 C 0.8855 0.71645 0.29981 0.0
C69 C 0.86428 0.75574 0.32295 0.0
H70 H 0.85603 0.771 0.33136 0.0
C71 C 0.8672 0.75397 0.29581 0.0
H72 H 0.88849 0.70465 0.33993 0.0
C73 C 0.87771 0.73462 0.28435 0.0
H74 H 0.88011 0.73412 0.26317 0.0
H75 H 0.86138 0.76778 0.28356 0.0
H76 H 0.7373 0.80599 0.92544 0.0
C77 C 0.7473 0.81967 0.91046 0.0
C78 C 0.77597 0.82329 0.90418 0.0
C79 C 0.73173 0.83428 0.89819 0.0
H80 H 0.81076 0.84377 0.87968 0.0
C81 C 0.78888 0.84149 0.88526 0.0
C82 C 0.77368 0.85613 0.87273 0.0
C83 C 0.74504 0.85246 0.87921 0.0
C84 C 0.70178 0.83083 0.90575 0.0
H85 H 0.73318 0.86369 0.86953 0.0
C86 C 0.69249 0.85285 0.91222 0.0
C87 C 0.66466 0.84954 0.92135 0.0
C88 C 0.68268 0.80542 0.90778 0.0
H89 H 0.68928 0.78815 0.90274 0.0
C90 C 0.65488 0.80206 0.91632 0.0
H91 H 0.70726 0.87251 0.91128 0.0
C92 C 0.64592 0.82395 0.92325 0.0
H93 H 0.62431 0.8209 0.93003 0.0
H94 H 0.64029 0.78243 0.9178 0.0
H95 H 0.73543 0.17691 0.52391 0.0
C96 C 0.72998 0.17837 0.50355 0.0
C97 C 0.74675 0.17213 0.4834 0.0
C98 C 0.70646 0.18694 0.49772 0.0
H99 H 0.75201 0.16896 0.44147 0.0
C100 C 0.73984 0.17475 0.45714 0.0
C101 C 0.71657 0.1836 0.45088 0.0
C102 C 0.70001 0.18974 0.47134 0.0
C103 C 0.68835 0.19244 0.51924 0.0
H104 H 0.68185 0.19636 0.46674 0.0
C105 C 0.67957 0.21527 0.51941 0.0
C106 C 0.66215 0.22049 0.53966 0.0
C107 C 0.67972 0.17482 0.53973 0.0
H108 H 0.68598 0.15696 0.53996 0.0
C109 C 0.66248 0.17985 0.55988 0.0
H110 H 0.68687 0.22926 0.50403 0.0
C111 C 0.65367 0.20247 0.55987 0.0
H112 H 0.63987 0.20562 0.57551 0.0
H113 H 0.65575 0.16606 0.57546 0.0
H114 H 0.42466 0.79135 0.2406 0.0
C115 C 0.4035 0.77982 0.23434 0.0
C116 C 0.38827 0.79071 0.21688 0.0
C117 C 0.39231 0.7538 0.2431 0.0
H118 H 0.34942 0.78298 0.19468 0.0
C119 C 0.36114 0.77503 0.20841 0.0
C120 C 0.34941 0.74885 0.2164 0.0
C121 C 0.36504 0.73861 0.23423 0.0
C122 C 0.41192 0.74121 0.25631 0.0
H123 H 0.35698 0.71822 0.23964 0.0
C124 C 0.40681 0.72941 0.28134 0.0
C125 C 0.4268 0.71789 0.29215 0.0
C126 C 0.43686 0.74113 0.24274 0.0
H127 H 0.44131 0.74974 0.22361 0.0
C128 C 0.45624 0.72981 0.25327 0.0
H129 H 0.38776 0.72925 0.29218 0.0
C130 C 0.4513 0.71832 0.27763 0.0
H131 H 0.46691 0.7098 0.28534 0.0
H132 H 0.47528 0.72994 0.24243 0.0
H133 H 0.22537 0.45031 0.75136 0.0
C134 C 0.21223 0.43338 0.74018 0.0
C135 C 0.22102 0.42716 0.71492 0.0
C136 C 0.18811 0.41626 0.75207 0.0
H137 H 0.21196 0.39905 0.6822 0.0
C138 C 0.20481 0.40411 0.70131 0.0
C139 C 0.18047 0.38687 0.71258 0.0
C140 C 0.17231 0.39328 0.73795 0.0
C141 C 0.18341 0.41833 0.78098 0.0
H142 H 0.1542 0.37982 0.74734 0.0
C143 C 0.17342 0.43823 0.79345 0.0
C144 C 0.16934 0.43855 0.82116 0.0
C145 C 0.18903 0.39906 0.79637 0.0
H146 H 0.19668 0.38369 0.78734 0.0
C147 C 0.18498 0.39931 0.82342 0.0
H148 H 0.16893 0.45318 0.78181 0.0
C149 C 0.17523 0.41876 0.8357 0.0
H150 H 0.17192 0.41809 0.85676 0.0
H151 H 0.18933 0.38425 0.83496 0.0
Sm152 Sm 0.03448 0.09319 0.52695 0.0
Sm153 Sm 0.02358 0.06822 0.58477 0.0
C154 C 0.03671 0.11993 0.4838 0.0
C155 C 0.05936 0.13829 0.4692 0.0
C156 C 0.05283 0.14932 0.44643 0.0
C157 C 0.07463 0.16509 0.43124 0.0
C158 C 0.10325 0.16989 0.43859 0.0
C159 C 0.10959 0.15937 0.46191 0.0
C160 C 0.08779 0.14371 0.47712 0.0
C161 C 0.07511 0.0725 0.54559 0.0
C162 C 0.05504 0.13221 0.58071 0.0
C163 C 0.02634 0.04369 0.62829 0.0
C164 C 1.005 0.02549 0.64432 0.0
C165 C 0.01341 0.0132 0.66529 0.0
C166 C 0.99297 0.99742 0.68174 0.0
C167 C 0.96379 0.99385 0.67752 0.0
C168 C 0.95554 1.00572 0.65596 0.0
C169 C 0.97597 0.02131 0.63947 0.0
C170 C 0.97584 0.07924 0.56576 0.0
C171 C 1.00126 0.03089 0.53146 0.0
O172 O 0.03069 0.12843 0.50693 0.0
O173 O 0.03799 0.09571 0.48371 0.0
O174 O 0.06149 0.08493 0.55895 0.0
O175 O 0.06971 0.07292 0.52071 0.0
O176 O 0.05087 0.13025 0.55484 0.0
O177 O 0.04848 0.11136 0.59568 0.0
O178 O 0.03107 0.03454 0.60495 0.0
O179 O 0.02433 0.06772 0.62813 0.0
O180 O 0.99941 0.08208 0.55522 0.0
O181 O 0.97641 0.06966 0.58878 0.0
O182 O 0.01252 0.03231 0.55529 0.0
O183 O 1.00195 0.05237 0.51868 0.0
H184 H 0.03094 0.14521 0.44006 0.0
H185 H 0.06912 0.17272 0.41324 0.0
H186 H 0.13142 0.163 0.46822 0.0
H187 H 0.09312 0.13532 0.49474 0.0
H188 H 0.03577 0.01615 0.66919 0.0
H189 H 1.00003 0.98819 0.69788 0.0
H190 H 0.93335 1.00369 0.65229 0.0
H191 H 0.96911 0.03064 0.62329 0.0
Sm192 Sm 0.55789 0.09129 0.08118 0.0
Sm193 Sm 0.49845 0.06505 0.04771 0.0
C194 C 0.60575 0.12327 0.10076 0.0
C195 C 0.61681 0.13037 0.12756 0.0
C196 C 0.63887 0.15366 0.13262 0.0
C197 C 0.64844 0.16107 0.15839 0.0
C198 C 0.63599 0.14528 0.17947 0.0
C199 C 0.61401 0.12181 0.17414 0.0
C200 C 0.60444 0.1145 0.14845 0.0
C201 C 0.52449 0.04476 0.10339 0.0
C202 C 0.4992 0.10435 0.09936 0.0
C203 C 0.44975 0.03328 0.02966 0.0
C204 C 0.43521 0.02526 1.00418 0.0
C205 C 0.4244 0.99836 0.99736 0.0
C206 C 0.41122 0.99017 0.97304 0.0
C207 C 0.40844 1.00876 0.95515 0.0
C208 C 0.41892 0.03572 0.96213 0.0
C209 C 0.43236 0.04393 0.98639 0.0
C210 C 0.53148 0.11164 0.02552 0.0
C211 C 0.55722 0.0518 0.02969 0.0
O212 O 0.58387 0.13121 0.0948 0.0
O213 O 0.60307 0.09899 0.09251 0.0
O214 O 0.51937 0.05601 0.08348 0.0
O215 O 0.54879 0.05906 0.11298 0.0
O216 O 0.52733 0.11187 0.09987 0.0
O217 O 0.48389 0.08484 0.08382 0.0
O218 O 0.47217 0.02539 0.0336 0.0
O219 O 0.45279 0.05744 0.03853 0.0
O220 O 0.53686 0.10048 0.04542 0.0
O221 O 0.50713 0.09727 0.01603 0.0
O222 O 0.52907 0.04467 0.02877 0.0
O223 O 0.57269 0.07093 0.04557 0.0
H224 H 0.64844 0.16625 0.1167 0.0
H225 H 0.66517 0.1794 0.16185 0.0
H226 H 0.60427 0.10898 0.18983 0.0
H227 H 0.58724 0.09651 0.14492 0.0
H228 H 0.42632 0.98366 1.01083 0.0
H229 H 0.40305 0.96926 0.96828 0.0
H230 H 0.41726 0.05044 0.94859 0.0
H231 H 0.4407 0.06483 0.99109 0.0
Sm232 Sm 0.52791 0.55609 0.54578 0.0
Sm233 Sm 0.53426 0.60206 0.58026 0.0
C234 C 0.53503 0.5159 0.51727 0.0
C235 C 0.54601 0.49343 0.52142 0.0
C236 C 0.57364 0.49719 0.53117 0.0
C237 C 0.5837 0.47562 0.53471 0.0
C238 C 0.56623 0.44992 0.52886 0.0
C239 C 0.53853 0.44617 0.5194 0.0
C240 C 0.52857 0.46776 0.51559 0.0
C241 C 0.47907 0.55357 0.57396 0.0
C242 C 0.55534 0.55626 0.60553 0.0
C243 C 0.52868 0.64225 0.60988 0.0
C244 C 0.51601 0.66384 0.60863 0.0
C245 C 0.49346 0.66231 0.59136 0.0
C246 C 0.47987 0.68194 0.5923 0.0
C247 C 0.48868 0.70336 0.61051 0.0
C248 C 0.51218 0.70535 0.62687 0.0
C249 C 0.52568 0.6857 0.62595 0.0
C250 C 0.58299 0.60445 0.55197 0.0
C251 C 0.50622 0.60153 0.5208 0.0
O252 O 0.55351 0.53937 0.51817 0.0
O253 O 0.51108 0.51525 0.52886 0.0
O254 O 0.50408 0.56089 0.58322 0.0
O255 O 0.47933 0.54764 0.549 0.0
O256 O 0.55268 0.54607 0.58119 0.0
O257 O 0.54723 0.5773 0.6112 0.0
O258 O 0.51088 0.6185 0.61026 0.0
O259 O 0.55076 0.64373 0.595 0.0
O260 O 0.55796 0.59716 0.54281 0.0
O261 O 0.58281 0.61042 0.57692 0.0
O262 O 0.50828 0.61132 0.5453 0.0
O263 O 0.51528 0.58106 0.51489 0.0
H264 H 0.58752 0.51676 0.53608 0.0
H265 H 0.60505 0.479 0.54226 0.0
H266 H 0.52473 0.42655 0.51453 0.0
H267 H 0.50723 0.46441 0.50803 0.0
H268 H 0.48579 0.64555 0.57778 0.0
H269 H 0.4617 0.67973 0.5796 0.0
H270 H 0.51975 0.72183 0.64079 0.0
H271 H 0.54322 0.68723 0.63926 0.0
Sm272 Sm 0.03234 0.54756 0.07179 0.0
Sm273 Sm 0.02497 0.6051 0.05431 0.0
C274 C 0.04872 0.50459 0.07105 0.0
C275 C 0.06584 0.492 0.08627 0.0
C276 C 0.07247 0.47016 0.07505 0.0
C277 C 0.09168 0.45978 0.08748 0.0
C278 C 0.10457 0.47112 0.11138 0.0
C279 C 0.09699 0.49241 0.12314 0.0
C280 C 0.07784 0.50291 0.11056 0.0
C281 C 0.01079 0.5729 0.11227 0.0
C282 C 0.08232 0.60381 0.08815 0.0
C283 C 1.00712 0.64718 0.05403 0.0
C284 C 0.98922 0.65875 0.03803 0.0
C285 C 0.96011 0.6534 0.04372 0.0
C286 C 0.94313 0.66493 0.02957 0.0
C287 C 0.95484 0.68229 1.00951 0.0
C288 C 0.98395 0.68768 1.00374 0.0
C289 C 1.001 0.67604 0.01789 0.0
C290 C 0.04658 0.57988 0.01378 0.0
C291 C 0.97485 0.54893 0.03816 0.0
O292 O 0.06306 0.5264 0.05996 0.0
O293 O 0.02441 0.50552 0.08119 0.0
O294 O 0.01811 0.58026 0.08938 0.0
O295 O 0.01464 0.54987 0.11457 0.0
O296 O 0.07502 0.57766 0.08533 0.0
O297 O 0.06611 0.61797 0.07973 0.0
O298 O 0.99376 0.62562 0.06606 0.0
O299 O 0.03204 0.64702 0.0447 0.0
O300 O 0.03914 0.57235 0.03661 0.0
O301 O 0.04286 0.60297 0.01164 0.0
O302 O 0.98232 0.57506 0.04085 0.0
O303 O 0.99098 0.53472 0.04661 0.0
H304 H 0.06347 0.46162 0.05623 0.0
H305 H 0.09688 0.44317 0.07815 0.0
H306 H 0.10677 0.50163 0.14145 0.0
H307 H 0.0731 0.52 0.11932 0.0
H308 H 0.95043 0.64054 0.05941 0.0
H309 H 0.92092 0.66079 0.03487 0.0
H310 H 0.99354 0.70092 0.98831 0.0
H311 H 0.0234 0.68077 0.0132 0.0
H312 H 0.30978 0.31074 0.29639 0.0
H313 H 0.27256 0.2943 0.32903 0.0
H314 H 0.24539 0.21932 0.28659 0.0
H315 H 0.28173 0.23589 0.25335 0.0
H316 H 0.20073 0.23771 0.30179 0.0
H317 H 0.27385 0.24219 0.3856 0.0
H318 H 0.27943 0.27275 0.36942 0.0
H319 H 0.28581 0.24509 0.35193 0.0
C320 C 0.29573 0.29082 0.2939 0.0
C321 C 0.29883 0.27456 0.27237 0.0
C322 C 0.2747 0.28138 0.31272 0.0
C323 C 0.25656 0.25547 0.31044 0.0
C324 C 0.25933 0.23933 0.2888 0.0
H325 H 0.15117 0.15717 0.4245 0.0
H326 H 0.1882 0.17977 0.39402 0.0
C327 C 0.28026 0.24876 0.26995 0.0
C328 C 0.23443 0.24511 0.33039 0.0
H329 H 0.22467 0.23042 0.39515 0.0
C330 C 0.20591 0.23617 0.32223 0.0
C331 C 0.24137 0.24289 0.35694 0.0
C332 C 0.27178 0.251 0.36654 0.0
C333 C 0.18407 0.22491 0.33991 0.0
C334 C 0.19095 0.22307 0.36656 0.0
C335 C 0.21947 0.23213 0.37475 0.0
C336 C 0.16905 0.2104 0.38593 0.0
C337 C 0.15396 0.2143 0.3297 0.0
C338 C 0.14631 0.22044 0.39185 0.0
C339 C 0.12506 0.20753 0.40924 0.0
C340 C 0.12644 0.18454 0.42124 0.0
C341 C 0.14969 0.17499 0.41581 0.0
C342 C 0.17079 0.18782 0.39833 0.0
H343 H 0.15327 0.21155 0.30794 0.0
H344 H 0.14288 0.19514 0.33844 0.0
H345 H 0.14206 0.22843 0.33519 0.0
H346 H 0.14492 0.23818 0.38291 0.0
H347 H 0.10759 0.21552 0.41335 0.0
H348 H 0.34561 0.92715 0.7202 0.0
H349 H 0.36045 0.95089 0.76213 0.0
H350 H 0.27552 0.91905 0.79232 0.0
H351 H 0.26082 0.89412 0.75085 0.0
H352 H 0.34367 0.98737 0.79237 0.0
H353 H 0.32312 0.89293 0.84342 0.0
H354 H 0.32254 0.89437 0.80811 0.0
H355 H 0.29269 0.89732 0.8272 0.0
C356 C 0.33007 0.92516 0.73577 0.0
C357 C 0.30218 0.90831 0.73237 0.0
C358 C 0.33852 0.93895 0.75963 0.0
C359 C 0.31924 0.93627 0.7805 0.0
C360 C 0.29088 0.92092 0.77662 0.0
H361 H 0.368 0.02549 0.93062 0.0
H362 H 0.34479 1.00939 0.88821 0.0
C363 C 0.28244 0.90692 0.7528 0.0
C364 C 0.32956 0.94805 0.80674 0.0
H365 H 0.34008 0.93192 0.86932 0.0
C366 C 0.34274 0.97533 0.80929 0.0
C367 C 0.32866 0.93216 0.82862 0.0
C368 C 0.31624 0.90255 0.82677 0.0
C369 C 0.35546 0.98713 0.83307 0.0
C370 C 0.35441 0.97123 0.85496 0.0
C371 C 0.34073 0.94405 0.85252 0.0
C372 C 0.36884 0.9819 0.88016 0.0
C373 C 0.37088 0.01627 0.83423 0.0
C374 C 0.38968 0.97149 0.88987 0.0
C375 C 0.40264 0.98038 0.91412 0.0
C376 C 0.39507 0.99993 0.92913 0.0
C377 C 0.37443 1.0106 0.91929 0.0
C378 C 0.36125 1.0015 0.89506 0.0
H379 H 0.37555 0.02428 0.81429 0.0
H380 H 0.35736 0.02687 0.84452 0.0
H381 H 0.39119 0.02048 0.84528 0.0
H382 H 0.39587 0.95637 0.87867 0.0
H383 H 0.4187 0.97204 0.92109 0.0
H384 H 0.63111 0.41679 0.78537 0.0
H385 H 0.6242 0.43602 0.7435 0.0
H386 H 0.62463 0.50808 0.78532 0.0
H387 H 0.63202 0.48917 0.82667 0.0
H388 H 0.57929 0.45148 0.72898 0.0
H389 H 0.67396 0.53852 0.72481 0.0
H390 H 0.67159 0.51247 0.74723 0.0
H391 H 0.65564 0.53815 0.75542 0.0
C392 C 0.63091 0.4371 0.78543 0.0
C393 C 0.63277 0.4516 0.8094 0.0
C394 C 0.62654 0.44802 0.76148 0.0
C395 C 0.62416 0.4738 0.76086 0.0
C396 C 0.62707 0.48851 0.78478 0.0
H397 H 0.56659 0.57364 0.65701 0.0
H398 H 0.58382 0.55267 0.69261 0.0
C399 C 0.63136 0.47764 0.80857 0.0
C400 C 0.61642 0.4847 0.73591 0.0
H401 H 0.63413 0.53937 0.69818 0.0
C402 C 0.59159 0.47053 0.72206 0.0
C403 C 0.63219 0.50965 0.72659 0.0
C404 C 0.65997 0.52544 0.73914 0.0
C405 C 0.58162 0.48093 0.70016 0.0
C406 C 0.59697 0.5062 0.69135 0.0
C407 C 0.62212 0.52011 0.70481 0.0
C408 C 0.58678 0.51899 0.66896 0.0
C409 C 0.55402 0.46516 0.68728 0.0
C410 C 0.58295 0.50746 0.64334 0.0
C411 C 0.57311 0.51955 0.62272 0.0
C412 C 0.56681 0.54356 0.6271 0.0
C413 C 0.57106 0.55518 0.65269 0.0
C414 C 0.581 0.54317 0.6732 0.0
H415 H 0.54154 0.4492 0.69989 0.0
H416 H 0.54073 0.47804 0.68269 0.0
H417 H 0.55869 0.45594 0.66855 0.0
H418 H 0.5877 0.48911 0.63919 0.0
H419 H 0.57027 0.50996 0.60336 0.0
H420 H 0.86335 0.68543 0.25667 0.0
H421 H 0.88584 0.65941 0.22858 0.0
H422 H 0.95647 0.67584 0.28263 0.0
H423 H 0.93423 0.70296 0.3106 0.0
H424 H 0.97539 0.68367 0.23319 0.0
H425 H 0.89313 0.58715 0.23326 0.0
H426 H 0.87823 0.61231 0.22362 0.0
H427 H 0.89264 0.61362 0.25628 0.0
C428 C 0.88348 0.68321 0.26288 0.0
C429 C 0.89694 0.69636 0.28597 0.0
C430 C 0.89629 0.66808 0.2468 0.0
C431 C 0.92282 0.66521 0.25343 0.0
C432 C 0.93595 0.67757 0.277 0.0
H433 H 0.98936 0.55463 0.15972 0.0
H434 H 0.97036 0.57725 0.19471 0.0
C435 C 0.92308 0.69286 0.29318 0.0
C436 C 0.93735 0.65079 0.23481 0.0
H437 H 0.9263 0.59379 0.19741 0.0
C438 C 0.96475 0.66389 0.22562 0.0
C439 C 0.92387 0.62478 0.225 0.0
C440 C 0.89549 0.60856 0.23528 0.0
C441 C 0.97852 0.65215 0.20647 0.0
C442 C 0.96427 0.62676 0.19547 0.0
C443 C 0.93725 0.61337 0.20531 0.0
C444 C 0.97698 0.61347 0.17412 0.0
C445 C 1.00843 0.66703 0.19865 0.0
C446 C 0.9872 0.62601 0.15055 0.0
C447 C 0.99854 0.61314 0.13058 0.0
C448 C 0.99927 0.58715 0.13333 0.0
C449 C 0.989 0.5746 0.15683 0.0
C450 C 0.97802 0.58754 0.1769 0.0
H451 H 0.01939 0.68131 0.21448 0.0
H452 H 0.02128 0.65347 0.19405 0.0
H453 H 1.00766 0.67837 0.18096 0.0
H454 H 0.98618 0.64572 0.1474 0.0
H455 H 1.00691 0.6236 0.11312 0.0
H456 H 0.38159 0.24509 0.24966 0.0
H457 H 0.40658 0.21498 0.23131 0.0
H458 H 0.39361 0.23785 0.15307 0.0
H459 H 0.36868 0.26801 0.17126 0.0
H460 H 0.38712 0.17244 0.19644 0.0
H461 H 0.47892 0.24797 0.15483 0.0
H462 H 0.45473 0.25617 0.17805 0.0
H463 H 0.44515 0.2501 0.14386 0.0
C464 C 0.38406 0.24367 0.22854 0.0
C465 C 0.37333 0.25901 0.21189 0.0
C466 C 0.39838 0.22653 0.21811 0.0
C467 C 0.4023 0.22449 0.19088 0.0
C468 C 0.3914 0.23959 0.17419 0.0
H469 H 0.44267 0.1012 0.09836 0.0
H470 H 0.41921 0.12917 0.12278 0.0
C471 C 0.37717 0.25681 0.1846 0.0
C472 C 0.41727 0.20614 0.17986 0.0
H473 H 0.47347 0.20335 0.14149 0.0
C474 C 0.40612 0.17918 0.18457 0.0
C475 C 0.44227 0.21505 0.16472 0.0
C476 C 0.45617 0.24393 0.16025 0.0
C477 C 0.41892 0.16077 0.17395 0.0
C478 C 0.44319 0.16957 0.15784 0.0
C479 C 0.45472 0.19661 0.15369 0.0
C480 C 0.45681 0.15116 0.14467 0.0
C481 C 0.40649 0.13215 0.18029 0.0
C482 C 0.48582 0.15437 0.14868 0.0
C483 C 0.49941 0.13861 0.13455 0.0
C484 C 0.48423 0.11934 0.11606 0.0
C485 C 0.45498 0.11572 0.11258 0.0
C486 C 0.44146 0.1316 0.12663 0.0
H487 H 0.39375 0.12982 0.19865 0.0
H488 H 0.39216 0.12175 0.16403 0.0
H489 H 0.42343 0.12249 0.1825 0.0
H490 H 0.49808 0.16941 0.16247 0.0
H491 H 0.52192 0.1419 0.1378 0.0
H492 H 0.22678 0.93076 0.6313 0.0
H493 H 0.20933 0.96729 0.62039 0.0
H494 H 0.12292 0.91677 0.6251 0.0
H495 H 0.14005 0.88084 0.63873 0.0
H496 H 0.18294 0.97328 0.57996 0.0
H497 H 0.11361 0.97892 0.66417 0.0
H498 H 0.13753 0.95902 0.6644 0.0
H499 H 0.10281 0.94641 0.64938 0.0
C500 C 0.20402 0.92753 0.63095 0.0
C501 C 0.18488 0.90271 0.63616 0.0
C502 C 0.19407 0.94846 0.62436 0.0
C503 C 0.16477 0.945 0.62233 0.0
C504 C 0.1456 0.92025 0.6273 0.0
H505 H 0.08852 0.03133 0.5217 0.0
H506 H 0.11196 1.00205 0.54137 0.0
C507 C 0.1555 0.89948 0.63455 0.0
C508 C 0.1544 0.96666 0.61308 0.0
H509 H 0.10452 0.99858 0.62442 0.0
C510 C 0.16608 0.97907 0.58996 0.0
C511 C 0.13284 0.97473 0.62633 0.0
C512 C 0.12126 0.96425 0.6526 0.0
C513 C 0.15615 0.99858 0.57922 0.0
C514 C 0.13293 1.00498 0.59123 0.0
C515 C 0.12197 0.99334 0.61491 0.0
C516 C 0.11914 0.02307 0.5792 0.0
C517 C 0.17095 1.01224 0.5553 0.0
C518 C 0.1143 0.04402 0.5942 0.0
C519 C 0.10016 0.0603 0.58318 0.0
C520 C 0.09097 0.05607 0.5569 0.0
C521 C 0.09589 0.03525 0.54187 0.0
C522 C 0.10947 0.01864 0.55305 0.0
H523 H 0.19358 0.01245 0.55469 0.0
H524 H 0.16043 1.00136 0.53731 0.0
H525 H 0.1702 0.03287 0.55486 0.0
H526 H 0.12135 0.0477 0.61447 0.0
H527 H 0.09638 0.07616 0.59519 0.0
H528 H 0.75169 0.44244 0.88686 0.0
H529 H 0.79718 0.46819 0.90694 0.0
H530 H 0.76941 0.43366 0.98146 0.0
H531 H 0.72391 0.4087 0.96189 0.0
H532 H 0.79516 0.48599 0.98773 0.0
H533 H 0.86332 0.44129 0.92616 0.0
H534 H 0.8414 0.45608 0.90786 0.0
H535 H 0.8251 0.42775 0.92691 0.0
C536 C 0.75521 0.44044 0.90755 0.0
C537 C 0.7341 0.42305 0.92254 0.0
C538 C 0.78143 0.45499 0.91899 0.0
C539 C 0.78719 0.45256 0.94571 0.0
C540 C 0.76581 0.4358 0.9608 0.0
H541 H 0.95074 0.49557 0.0281 0.0
H542 H 0.90568 0.47319 1.00576 0.0
C543 C 0.73975 0.42129 0.94944 0.0
C544 C 0.81516 0.46749 0.95827 0.0
H545 H 0.88696 0.4762 0.95572 0.0
C546 C 0.81522 0.48388 0.98063 0.0
C547 C 0.84147 0.46455 0.94943 0.0
C548 C 0.84296 0.4463 0.92643 0.0
C549 C 0.84057 0.49736 0.99418 0.0
C550 C 0.86696 0.49488 0.98501 0.0
C551 C 0.8669 0.47838 0.96274 0.0
C552 C 0.89468 0.50879 0.99854 0.0
C553 C 0.83867 0.51356 0.01872 0.0
C554 C 0.90399 0.5364 1.00182 0.0
C555 C 0.92978 0.54932 0.01471 0.0
C556 C 0.9472 0.53501 0.02459 0.0
C557 C 0.938 0.50736 0.02096 0.0
C558 C 0.91217 0.49447 1.00807 0.0
H559 H 0.81688 0.50768 0.0271 0.0
H560 H 0.85383 0.51162 0.03399 0.0
H561 H 0.84405 0.53462 0.0138 0.0
H562 H 0.89139 0.54809 0.99419 0.0
H563 H 0.93607 0.57059 0.01682 0.0
H564 H 0.81414 0.67734 0.40721 0.0
H565 H 0.77009 0.65194 0.42852 0.0
H566 H 0.75607 0.72416 0.45761 0.0
H567 H 0.79899 0.74952 0.43563 0.0
H568 H 0.75452 0.64891 0.48004 0.0
H569 H 0.6798 0.68717 0.42512 0.0
H570 H 0.71621 0.69244 0.41502 0.0
H571 H 0.7076 0.71328 0.44042 0.0
C572 C 0.8015 0.68783 0.41787 0.0
C573 C 0.81042 0.71558 0.41971 0.0
C574 C 0.77635 0.67325 0.4302 0.0
C575 C 0.75936 0.68606 0.44442 0.0
C576 C 0.76832 0.7137 0.44636 0.0
H577 H 0.63738 0.6293 0.56832 0.0
H578 H 0.67961 0.64661 0.54132 0.0
C579 C 0.79329 0.72823 0.43405 0.0
C580 C 0.73272 0.67077 0.45789 0.0
H581 H 0.66214 0.66573 0.46509 0.0
C582 C 0.73427 0.65241 0.47656 0.0
C583 C 0.70603 0.67485 0.45315 0.0
C584 C 0.70219 0.69279 0.43213 0.0
C585 C 0.7103 0.6389 0.49124 0.0
C586 C 0.68403 0.64422 0.48764 0.0
C587 C 0.68223 0.6618 0.46823 0.0
C588 C 0.6584 0.63242 0.50419 0.0
C589 C 0.71339 0.61889 0.51033 0.0
C590 C 0.63198 0.61904 0.4925 0.0
C591 C 0.60761 0.60934 0.50798 0.0
C592 C 0.60905 0.61292 0.53551 0.0
C593 C 0.63553 0.62602 0.54719 0.0
C594 C 0.65982 0.6358 0.53173 0.0
H595 H 0.73106 0.61083 0.5046 0.0
H596 H 0.71839 0.62854 0.53014 0.0
H597 H 0.6935 0.60228 0.51161 0.0
H598 H 0.63017 0.61625 0.47132 0.0
H599 H 0.58754 0.59941 0.49835 0.0
H600 H 0.28732 0.37803 0.22763 0.0
H601 H 0.24628 0.39267 0.21607 0.0
H602 H 0.28576 0.41982 0.1423 0.0
H603 H 0.32676 0.40518 0.1536 0.0
H604 H 0.24921 0.44893 0.19779 0.0
H605 H 0.20246 0.36499 0.12721 0.0
H606 H 0.22596 0.36299 0.15364 0.0
H607 H 0.24015 0.3809 0.12497 0.0
C608 C 0.2872 0.38708 0.20893 0.0
C609 C 0.3102 0.39043 0.19147 0.0
C610 C 0.26386 0.39552 0.20245 0.0
C611 C 0.26306 0.40714 0.17832 0.0
C612 C 0.28606 0.41078 0.16098 0.0
H613 H 0.14928 0.4612 0.08607 0.0
H614 H 0.18664 0.4456 0.10459 0.0
C615 C 0.30948 0.40256 0.16752 0.0
C616 C 0.23806 0.41526 0.17093 0.0
H617 H 0.18187 0.39985 0.12844 0.0
C618 C 0.23426 0.43816 0.18281 0.0
C619 C 0.21878 0.40105 0.15142 0.0
C620 C 0.22176 0.37599 0.1386 0.0
C621 C 0.21215 0.44789 0.17486 0.0
C622 C 0.19307 0.4339 0.15496 0.0
C623 C 0.19653 0.41056 0.14366 0.0
C624 C 0.1704 0.44382 0.14434 0.0
C625 C 0.21017 0.47358 0.18703 0.0
C626 C 0.14877 0.44793 0.16053 0.0
C627 C 0.12741 0.45703 0.14997 0.0
C628 C 0.12712 0.4617 0.12298 0.0
C629 C 0.14873 0.45742 0.10686 0.0
C630 C 0.17014 0.44859 0.11744 0.0
H631 H 0.23024 0.48488 0.19715 0.0
H632 H 0.20514 0.48608 0.17193 0.0
H633 H 0.19288 0.46944 0.20183 0.0
H634 H 0.1482 0.44381 0.18124 0.0
H635 H 0.11085 0.45995 0.16277 0.0
H636 H 0.61206 0.34229 0.9266 0.0
H637 H 0.59155 0.29971 0.94673 0.0
H638 H 0.67218 0.28377 0.94015 0.0
H639 H 0.69269 0.32603 0.91939 0.0
H640 H 0.62768 0.24028 0.92566 0.0
H641 H 0.60391 0.2812 0.02179 0.0
H642 H 0.58847 0.29228 0.99434 0.0
H643 H 0.62652 0.30133 0.99768 0.0
C644 C 0.62544 0.32966 0.92911 0.0
C645 C 0.65419 0.33789 0.92129 0.0
C646 C 0.61372 0.30536 0.94103 0.0
C647 C 0.63036 0.28852 0.94557 0.0
C648 C 0.65884 0.29636 0.93719 0.0
H649 H 0.57986 0.14881 0.04565 0.0
H650 H 0.6056 0.1915 0.02702 0.0
C651 C 0.67062 0.3207 0.92537 0.0
C652 C 0.61803 0.26265 0.95861 0.0
H653 H 0.58441 0.2348 0.01441 0.0
C654 C 0.61836 0.23918 0.94511 0.0
C655 C 0.60618 0.26092 0.98424 0.0
C656 C 0.60644 0.28526 1.00051 0.0
C657 C 0.60648 0.21428 0.95605 0.0
C658 C 0.5936 0.2125 0.98121 0.0
C659 C 0.59405 0.23598 0.99508 0.0
C660 C 0.57843 0.18645 0.99277 0.0
C661 C 0.60794 0.19 0.94056 0.0
C662 C 0.55442 0.16937 0.98005 0.0
C663 C 0.53969 0.14519 0.99073 0.0
C664 C 0.54848 0.13722 0.01448 0.0
C665 C 0.57257 0.15424 0.02731 0.0
C666 C 0.58725 0.17869 0.01666 0.0
H667 H 0.62493 0.19479 0.92545 0.0
H668 H 0.61188 0.17522 0.95369 0.0
H669 H 0.58735 0.18092 0.93032 0.0
H670 H 0.54676 0.1749 0.9619 0.0
H671 H 0.52117 0.13272 0.98033 0.0
H672 H 0.89376 0.82054 0.38366 0.0
H673 H 0.91582 0.86393 0.40467 0.0
H674 H 0.91612 0.82779 0.47902 0.0
H675 H 0.89461 0.78425 0.45805 0.0
H676 H 0.89384 0.88822 0.44639 0.0
H677 H 0.99804 0.87634 0.47388 0.0
H678 H 0.9745 0.85455 0.45019 0.0
H679 H 0.96766 0.85079 0.48478 0.0
C680 C 0.89903 0.8217 0.40438 0.0
C681 C 0.89253 0.79873 0.41907 0.0
C682 C 0.91144 0.84662 0.41643 0.0
C683 C 0.91798 0.84924 0.44342 0.0
C684 C 0.91176 0.82636 0.4581 0.0
H685 H 0.99105 0.9823 0.5529 0.0
H686 H 0.97019 0.9389 0.53163 0.0
C687 C 0.89921 0.80143 0.4461 0.0
C688 C 0.93023 0.87594 0.45633 0.0
H689 H 0.9879 0.91466 0.4908 0.0
C690 C 0.91447 0.89404 0.45599 0.0
C691 C 0.95708 0.88358 0.46903 0.0
C692 C 0.97548 0.86543 0.46938 0.0
C693 C 0.92452 0.91926 0.46836 0.0
C694 C 0.95151 0.92703 0.48091 0.0
C695 C 0.96725 0.90887 0.48123 0.0
C696 C 0.96377 0.95376 0.4939 0.0
C697 C 0.90564 0.93701 0.46849 0.0
C698 C 0.96747 0.97684 0.47988 0.0
C699 C 0.97921 1.0018 0.49209 0.0
C700 C 0.98798 1.00437 0.51859 0.0
C701 C 0.98453 0.98122 0.53251 0.0
C702 C 0.97262 0.95628 0.52033 0.0
H703 H 0.88295 0.9256 0.46537 0.0
H704 H 0.90755 0.94865 0.48731 0.0
H705 H 0.91204 0.9509 0.45225 0.0
H706 H 0.96161 0.97559 0.4593 0.0
H707 H 0.98178 0.01908 0.48061 0.0
H708 H 0.33714 0.83647 0.70511 0.0
H709 H 0.3692 0.81208 0.68904 0.0
H710 H 0.35248 0.82758 0.60914 0.0
H711 H 0.3208 0.85268 0.62513 0.0
H712 H 0.35253 0.76693 0.65385 0.0
H713 H 0.44085 0.84825 0.61415 0.0
H714 H 0.41533 0.85419 0.63739 0.0
H715 H 0.40537 0.84596 0.60361 0.0
C716 C 0.34066 0.8351 0.68414 0.0
C717 C 0.32656 0.84657 0.66637 0.0
C718 C 0.35883 0.82104 0.675 0.0
C719 C 0.36337 0.8183 0.64796 0.0
C720 C 0.34953 0.82983 0.63011 0.0
H721 H 0.46566 0.72616 0.57235 0.0
H722 H 0.4347 0.75451 0.57893 0.0
C723 C 0.33126 0.8439 0.63925 0.0
C724 C 0.38147 0.80212 0.63867 0.0
H725 H 0.44531 0.8053 0.61009 0.0
C726 C 0.37273 0.77527 0.64414 0.0
C727 C 0.40766 0.81311 0.62583 0.0
C728 C 0.4181 0.84199 0.61998 0.0
C729 C 0.38982 0.75914 0.63761 0.0
C730 C 0.41648 0.7703 0.62568 0.0
C731 C 0.42484 0.79694 0.61932 0.0
C732 C 0.43661 0.75484 0.62138 0.0
C733 C 0.37938 0.73032 0.64379 0.0
C734 C 0.4483 0.74627 0.64309 0.0
C735 C 0.46578 0.73012 0.63945 0.0
C736 C 0.47203 0.72232 0.61398 0.0
C737 C 0.46097 0.73163 0.5922 0.0
C738 C 0.44346 0.7479 0.59589 0.0
H739 H 0.35596 0.72352 0.64663 0.0
H740 H 0.38506 0.718 0.62785 0.0
H741 H 0.3896 0.72717 0.66224 0.0
H742 H 0.44339 0.75167 0.66291 0.0
H743 H 0.47362 0.72303 0.65664 0.0
H744 H 0.82481 0.89374 0.87678 0.0
H745 H 0.85282 0.91843 0.84118 0.0
H746 H 0.78376 0.88408 0.78691 0.0
H747 H 0.75547 0.85934 0.82268 0.0
H748 H 0.86695 0.89113 0.79696 0.0
H749 H 0.81116 0.96293 0.7682 0.0
H750 H 0.80598 0.94782 0.7998 0.0
H751 H 0.78962 0.92927 0.77093 0.0
C752 C 0.8154 0.89189 0.85736 0.0
C753 C 0.7881 0.87455 0.85237 0.0
C754 C 0.83138 0.90598 0.83708 0.0
C755 C 0.82034 0.90307 0.81146 0.0
C756 C 0.79248 0.88686 0.80664 0.0
H757 H 0.91068 0.96008 0.66618 0.0
H758 H 0.87442 0.93703 0.69734 0.0
C759 C 0.77637 0.87277 0.82704 0.0
C760 C 0.83929 0.91478 0.78961 0.0
H761 H 0.85106 0.96117 0.74284 0.0
C762 C 0.86344 0.90641 0.78509 0.0
C763 C 0.83443 0.93446 0.77402 0.0
C764 C 0.80902 0.94437 0.77847 0.0
C765 C 0.88321 0.91755 0.76568 0.0
C766 C 0.87885 0.9378 0.75065 0.0
C767 C 0.85427 0.94566 0.75454 0.0
C768 C 0.90045 0.95191 0.73179 0.0
C769 C 0.90871 0.90769 0.76145 0.0
C770 C 0.92691 0.96797 0.74098 0.0
C771 C 0.94754 0.98133 0.72335 0.0
C772 C 0.9421 0.97883 0.69613 0.0
C773 C 0.91547 0.96266 0.68702 0.0
C774 C 0.89476 0.94941 0.70473 0.0
H775 H 0.90556 0.88816 0.77011 0.0
H776 H 0.91329 0.90611 0.74015 0.0
H777 H 0.92761 0.92187 0.77095 0.0
H778 H 0.93149 0.97036 0.76187 0.0
H779 H 0.96753 0.99404 0.73111 0.0
H780 H 0.7525 0.20207 0.40996 0.0
H781 H 0.74033 0.20058 0.36329 0.0
H782 H 0.65157 0.16726 0.38184 0.0
H783 H 0.66353 0.1682 0.42847 0.0
H784 H 0.71157 0.15302 0.3346 0.0
H785 H 0.65284 0.22729 0.33164 0.0
H786 H 0.67656 0.22638 0.35827 0.0
H787 H 0.64142 0.20348 0.35669 0.0
C788 C 0.73036 0.19452 0.40412 0.0
C789 C 0.70898 0.18517 0.42293 0.0
C790 C 0.72346 0.19383 0.37749 0.0
C791 C 0.69506 0.18407 0.36921 0.0
C792 C 0.67358 0.17535 0.38793 0.0
H793 H 0.60321 0.14145 0.22362 0.0
H794 H 0.61917 0.15211 0.26911 0.0
C795 C 0.68046 0.17594 0.41457 0.0
C796 C 0.68808 0.18097 0.34084 0.0
H797 H 0.64985 0.19933 0.2935 0.0
C798 C 0.69833 0.16333 0.32549 0.0
C799 C 0.67069 0.19437 0.32919 0.0
C800 C 0.65989 0.21413 0.34469 0.0
C801 C 0.69089 0.15806 0.29887 0.0
C802 C 0.67328 0.1713 0.28721 0.0
C803 C 0.66339 0.18926 0.3025 0.0
C804 C 0.6639 0.1659 0.25946 0.0
C805 C 0.70106 0.13763 0.28377 0.0
C806 C 0.68375 0.17054 0.23892 0.0
C807 C 0.67473 0.16414 0.21289 0.0
C808 C 0.64565 0.15317 0.20695 0.0
C809 C 0.6258 0.14934 0.22756 0.0
C810 C 0.63484 0.15565 0.25355 0.0
H811 H 0.70834 0.12483 0.29708 0.0
H812 H 0.68396 0.12499 0.27085 0.0
H813 H 0.71926 0.14769 0.27119 0.0
H814 H 0.70625 0.17891 0.24305 0.0
H815 H 0.69058 0.16725 0.19751 0.0
H816 H 0.43065 0.7412 0.34184 0.0
H817 H 0.44013 0.72226 0.38306 0.0
H818 H 0.42855 0.64739 0.34227 0.0
H819 H 0.41931 0.66624 0.30131 0.0
H820 H 0.41111 0.67606 0.41392 0.0
H821 H 0.51143 0.66775 0.36965 0.0
H822 H 0.49122 0.6873 0.35568 0.0
H823 H 0.48018 0.65212 0.35036 0.0
C824 C 0.42904 0.72045 0.34194 0.0
C825 C 0.42377 0.70516 0.31829 0.0
C826 C 0.43479 0.70966 0.36549 0.0
C827 C 0.43566 0.68342 0.36586 0.0
C828 C 0.42851 0.66775 0.34261 0.0
H829 H 0.49376 0.58332 0.46978 0.0
H830 H 0.47578 0.60361 0.43424 0.0
C831 C 0.42281 0.67847 0.3192 0.0
C832 C 0.44594 0.67282 0.3897 0.0
H833 H 0.49836 0.64771 0.41042 0.0
C834 C 0.43028 0.67001 0.41322 0.0
C835 C 0.47102 0.66488 0.38904 0.0
C836 C 0.48964 0.66834 0.36494 0.0
C837 C 0.43838 0.6587 0.43554 0.0
C838 C 0.46334 0.65045 0.43475 0.0
C839 C 0.47919 0.65376 0.41131 0.0
C840 C 0.47316 0.63771 0.45747 0.0
C841 C 0.41944 0.65482 0.4594 0.0
C842 C 0.47796 0.64983 0.48284 0.0
C843 C 0.48813 0.63802 0.50349 0.0
C844 C 0.4942 0.61389 0.49933 0.0
C845 C 0.48942 0.60186 0.47394 0.0
C846 C 0.4791 0.61355 0.45343 0.0
H847 H 0.39753 0.65482 0.45434 0.0
H848 H 0.41823 0.63602 0.46879 0.0
H849 H 0.42823 0.67124 0.47394 0.0
H850 H 0.47443 0.66876 0.48663 0.0
H851 H 0.49173 0.64808 0.52262 0.0
H852 H 0.19162 0.46683 0.86575 0.0
H853 H 0.16961 0.49207 0.89537 0.0
H854 H 0.10065 0.48133 0.84027 0.0
H855 H 0.12234 0.455 0.81077 0.0
H856 H 0.15562 0.53582 0.89391 0.0
H857 H 0.05657 0.45344 0.9052 0.0
H858 H 0.08738 0.44923 0.8884 0.0
H859 H 0.06371 0.46361 0.87197 0.0
C860 C 0.17187 0.47002 0.85975 0.0
C861 C 0.15863 0.45859 0.83594 0.0
C862 C 0.15925 0.48452 0.87679 0.0
C863 C 0.13294 0.48815 0.87061 0.0
C864 C 0.1205 0.47823 0.84601 0.0
H865 H 0.06814 0.59878 0.96665 0.0
H866 H 0.08778 0.57692 0.93156 0.0
C867 C 0.13316 0.46355 0.82888 0.0
C868 C 0.11876 0.50179 0.89037 0.0
H869 H 0.05851 0.49375 0.92741 0.0
C870 C 0.13433 0.5266 0.90111 0.0
C871 C 0.09114 0.48971 0.90038 0.0
C872 C 0.07378 0.46243 0.89113 0.0
C873 C 0.12328 0.53952 0.92135 0.0
C874 C 0.09536 0.52778 0.93085 0.0
C875 C 0.07977 0.50297 0.92014 0.0
C876 C 0.0822 0.54079 0.95204 0.0
C877 C 0.14219 0.56523 0.93295 0.0
C878 C 0.07109 0.52754 0.97504 0.0
C879 C 0.0593 0.53997 0.99508 0.0
C880 C 0.05848 0.56598 0.99269 0.0
C881 C 0.06887 0.5789 0.9694 0.0
C882 C 0.08037 0.56644 0.94932 0.0
H883 H 0.16505 0.56726 0.92957 0.0
H884 H 0.13735 0.58182 0.92339 0.0
H885 H 0.13872 0.56703 0.95443 0.0
H886 H 0.07177 0.50762 0.97762 0.0
H887 H 0.05062 0.52914 0.01228 0.0
H888 H 0.63826 0.8565 0.96696 0.0
H889 H 0.62223 0.89416 0.98091 0.0
H890 H 0.65389 0.9323 0.90875 0.0
H891 H 0.67076 0.89482 0.89503 0.0
H892 H 0.66622 0.9668 0.94992 0.0
H893 H 0.5526 0.90937 0.95405 0.0
H894 H 0.57384 0.89585 0.9745 0.0
H895 H 0.57907 0.89604 0.93941 0.0
C896 C 0.64164 0.87286 0.95402 0.0
C897 C 0.6554 0.87264 0.92978 0.0
C898 C 0.6324 0.89432 0.96196 0.0
C899 C 0.63618 0.91575 0.94557 0.0
C900 C 0.65054 0.91588 0.9216 0.0
H901 H 0.53854 0.02441 0.98369 0.0
H902 H 0.55987 0.99462 0.9594 0.0
C903 C 0.66016 0.89451 0.9138 0.0
C904 C 0.6252 0.93798 0.95366 0.0
H905 H 0.56565 0.95171 0.97629 0.0
C906 C 0.64416 0.9636 0.9554 0.0
C907 C 0.59627 0.93391 0.96021 0.0
C908 C 0.57423 0.90734 0.95667 0.0
C909 C 0.63519 0.98508 0.96455 0.0
C910 C 0.6067 0.98065 0.9729 0.0
C911 C 0.58757 0.95517 0.97019 0.0
C912 C 0.59623 1.00171 0.98536 0.0
C913 C 0.65632 0.01225 0.96493 0.0
C914 C 0.60983 0.01611 1.00774 0.0
C915 C 0.59794 0.03357 0.02135 0.0
C916 C 0.57184 0.03641 0.01324 0.0
C917 C 0.55862 0.02253 0.99048 0.0
C918 C 0.5708 1.00549 0.97658 0.0
H919 H 0.67294 0.01368 0.94969 0.0
H920 H 0.64576 0.02763 0.96161 0.0
H921 H 0.66717 0.01639 0.98433 0.0
H922 H 0.62898 0.01302 0.01542 0.0
H923 H 0.60843 0.04375 0.03902 0.0
H924 H 0.74927 0.13755 0.52109 0.0
H925 H 0.78948 0.12193 0.5321 0.0
H926 H 0.83873 0.16721 0.47012 0.0
H927 H 0.79909 0.18406 0.45983 0.0
H928 H 0.81662 0.09348 0.50189 0.0
H929 H 0.89191 0.19039 0.53257 0.0
H930 H 0.85446 0.18572 0.52765 0.0
H931 H 0.87794 0.18906 0.49991 0.0
C932 C 0.76881 0.14457 0.51008 0.0
C933 C 0.77106 0.16228 0.48976 0.0
C934 C 0.79167 0.13542 0.51624 0.0
C935 C 0.81719 0.14372 0.50218 0.0
C936 C 0.8194 0.16099 0.48156 0.0
H937 H 0.97494 0.10277 0.51938 0.0
H938 H 0.93622 0.1175 0.50181 0.0
C939 C 0.7966 0.17033 0.4755 0.0
C940 C 0.84129 0.13397 0.50909 0.0
H941 H 0.90991 0.15379 0.53128 0.0
C942 C 0.83702 0.10666 0.50829 0.0
C943 C 0.8679 0.15126 0.51738 0.0
C944 C 0.87335 0.18072 0.51969 0.0
C945 C 0.85862 0.09614 0.51577 0.0
C946 C 0.88501 0.11341 0.52434 0.0
C947 C 0.88956 0.1407 0.5246 0.0
C948 C 0.90779 0.10349 0.53426 0.0
C949 C 0.85315 0.06668 0.51449 0.0
C950 C 0.90447 0.09088 0.55831 0.0
C951 C 0.92658 0.0827 0.56846 0.0
C952 C 0.95223 0.08702 0.55465 0.0
C953 C 0.95536 0.09933 0.53041 0.0
C954 C 0.93333 0.10769 0.52036 0.0
H955 H 0.83408 0.05649 0.50243 0.0
H956 H 0.87182 0.06154 0.50617 0.0
H957 H 0.84964 0.05916 0.53467 0.0
H958 H 0.88496 0.08779 0.56941 0.0
H959 H 0.9237 0.07325 0.5872 0.0
H960 H 0.30427 0.71265 0.24001 0.0
H961 H 0.2592 0.68608 0.21971 0.0
H962 H 0.28694 0.72055 0.14518 0.0
H963 H 0.33197 0.74641 0.16496 0.0
H964 H 0.21699 0.70156 0.19487 0.0
H965 H 0.26179 0.64265 0.12468 0.0
H966 H 0.28218 0.66185 0.15176 0.0
H967 H 0.27784 0.67746 0.12196 0.0
C968 C 0.3009 0.71436 0.21923 0.0
C969 C 0.32191 0.73191 0.20428 0.0
C970 C 0.275 0.69924 0.20765 0.0
C971 C 0.26959 0.70096 0.18074 0.0
C972 C 0.29056 0.71839 0.16582 0.0
H973 H 0.10602 0.65717 0.09812 0.0
H974 H 0.15051 0.67989 0.12104 0.0
C975 C 0.31631 0.73351 0.17734 0.0
C976 C 0.24192 0.68516 0.16824 0.0
H977 H 0.21366 0.6416 0.11719 0.0
C978 C 0.21629 0.68833 0.17799 0.0
C979 C 0.24069 0.66753 0.14636 0.0
C980 C 0.26705 0.66192 0.13571 0.0
C981 C 0.18981 0.67506 0.16612 0.0
C982 C 0.18873 0.65834 0.14351 0.0
C983 C 0.21429 0.6546 0.13425 0.0
C984 C 0.1614 0.64445 0.12931 0.0
C985 C 0.16316 0.67883 0.17821 0.0
C986 C 0.15277 0.61687 0.12541 0.0
C987 C 0.12732 0.60378 0.11204 0.0
C988 C 0.10978 0.61786 0.10198 0.0
C989 C 0.11869 0.64553 0.10562 0.0
C990 C 0.14416 0.6586 0.11898 0.0
H991 H 0.16653 0.68563 0.19917 0.0
H992 H 0.15697 0.69405 0.16744 0.0
H993 H 0.14527 0.66028 0.17697 0.0
H994 H 0.16562 0.6054 0.13296 0.0
H995 H 0.12137 0.58249 0.1097 0.0
H996 H 0.23967 0.48045 0.70642 0.0
H997 H 0.28321 0.5049 0.68348 0.0
H998 H 0.30842 0.43397 0.67569 0.0
H999 H 0.26469 0.40951 0.69751 0.0
H1000 H 0.3389 0.51637 0.69145 0.0
H1001 H 0.31313 0.45355 0.6008 0.0
H1002 H 0.28785 0.45128 0.62705 0.0
H1003 H 0.31454 0.43439 0.62868 0.0
C1004 C 0.25461 0.47018 0.69983 0.0
C1005 C 0.24852 0.44297 0.70337 0.0
C1006 C 0.27949 0.48413 0.68669 0.0
C1007 C 0.29889 0.4712 0.67703 0.0
C1008 C 0.29345 0.44432 0.68194 0.0
H1009 H 0.47462 0.54502 0.62695 0.0
H1010 H 0.43113 0.52674 0.65226 0.0
C1011 C 0.26849 0.43035 0.69463 0.0
C1012 C 0.32463 0.4855 0.66166 0.0
H1013 H 0.36094 0.48143 0.60486 0.0
C1014 C 0.34359 0.50883 0.67241 0.0
C1015 C 0.3307 0.47615 0.63649 0.0
C1016 C 0.31031 0.45265 0.62246 0.0
C1017 C 0.3686 0.52253 0.65913 0.0
C1018 C 0.37547 0.51228 0.63466 0.0
C1019 C 0.35613 0.4893 0.62369 0.0
C1020 C 0.40227 0.52496 0.61982 0.0
C1021 C 0.38698 0.54818 0.67129 0.0
C1022 C 0.40101 0.52966 0.59288 0.0
C1023 C 0.42593 0.53949 0.57824 0.0
C1024 C 0.45283 0.54517 0.59017 0.0
C1025 C 0.45422 0.54113 0.61723 0.0
C1026 C 0.42925 0.53083 0.63179 0.0
H1027 H 0.37444 0.55754 0.68452 0.0
H1028 H 0.40391 0.54429 0.6833 0.0
H1029 H 0.39716 0.56232 0.65604 0.0
H1030 H 0.38065 0.52537 0.58299 0.0
H1031 H 0.42412 0.54239 0.55745 0.0
H1032 H 0.75963 0.77061 0.91392 0.0
H1033 H 0.78869 0.74534 0.93262 0.0
H1034 H 0.85925 0.81629 0.941 0.0
H1035 H 0.83021 0.8417 0.92313 0.0
H1036 H 0.8401 0.74052 0.91207 0.0
H1037 H 0.85497 0.78464 0.01336 0.0
H1038 H 0.82786 0.78829 0.99142 0.0
H1039 H 0.86409 0.80855 0.98827 0.0
C1040 C 0.78116 0.78086 0.92023 0.0
C1041 C 0.79266 0.80812 0.91706 0.0
C1042 C 0.79776 0.7664 0.93072 0.0
C1043 C 0.82599 0.77902 0.93842 0.0
C1044 C 0.83737 0.80625 0.93558 0.0
H1045 H 0.96822 0.73406 0.99697 0.0
H1046 H 0.93692 0.75661 0.97766 0.0
C1047 C 0.82084 0.82069 0.92512 0.0
C1048 C 0.84411 0.76365 0.94826 0.0
H1049 H 0.88517 0.75878 1.00037 0.0
C1050 C 0.84977 0.7443 0.93146 0.0
C1051 C 0.85673 0.76875 0.97351 0.0
C1052 C 0.85043 0.78851 0.9928 0.0
C1053 C 0.8684 0.73036 0.93902 0.0
C1054 C 0.88131 0.73574 0.96415 0.0
C1055 C 0.87538 0.75487 0.98104 0.0
C1056 C 0.90083 0.72158 0.97355 0.0
C1057 C 0.87469 0.71052 0.91985 0.0
C1058 C 0.89093 0.6944 0.97736 0.0
C1059 C 0.90879 0.68146 0.98823 0.0
C1060 C 0.93682 0.69551 0.99562 0.0
C1061 C 0.94687 0.72264 0.99118 0.0
C1062 C 0.92897 0.73557 0.98033 0.0
H1063 H 0.86876 0.71339 0.8994 0.0
H1064 H 0.89759 0.71177 0.92034 0.0
H1065 H 0.86224 0.69039 0.92538 0.0
H1066 H 0.86915 0.68334 0.97261 0.0
H1067 H 0.90052 0.6605 0.99121 0.0
H1068 H 0.36259 0.82913 0.20728 0.0
H1069 H 0.38309 0.87158 0.18685 0.0
H1070 H 0.46414 0.85634 0.18126 0.0
H1071 H 0.44365 0.81359 0.20104 0.0
H1072 H 0.42713 0.91526 0.20197 0.0
H1073 H 0.45281 0.8752 0.10611 0.0
H1074 H 0.42994 0.85479 0.12988 0.0
H1075 H 0.46796 0.86408 0.13374 0.0
C1076 C 0.38475 0.83465 0.20157 0.0
C1077 C 0.40131 0.81761 0.20584 0.0
C1078 C 0.39652 0.8591 0.18994 0.0
C1079 C 0.42513 0.8672 0.18194 0.0
C1080 C 0.44188 0.8505 0.18666 0.0
H1081 H 0.53405 0.0237 0.14887 0.0
H1082 H 0.50833 0.98138 0.16699 0.0
C1083 C 0.43017 0.82609 0.19838 0.0
C1084 C 0.43749 0.89321 0.16912 0.0
H1085 H 0.47193 0.92158 0.11387 0.0
C1086 C 0.43678 0.91655 0.18265 0.0
C1087 C 0.44979 0.89518 0.14367 0.0
C1088 C 0.44998 0.87099 0.12735 0.0
C1089 C 0.44871 0.94155 0.17193 0.0
C1090 C 0.46203 0.94358 0.14696 0.0
C1091 C 0.46196 0.92023 0.13305 0.0
C1092 C 0.47724 0.96976 0.13564 0.0
C1093 C 0.44682 0.96568 0.18745 0.0
C1094 C 0.46877 0.97754 0.1116 0.0
C1095 C 0.48353 1.00207 0.10114 0.0
C1096 C 0.50734 0.01915 0.1143 0.0
C1097 C 0.51575 1.01118 0.13822 0.0
C1098 C 0.50095 0.98692 0.14872 0.0
H1099 H 0.42957 0.96069 0.2023 0.0
H1100 H 0.46721 0.9748 0.198 0.0
H1101 H 0.44301 0.98049 0.17429 0.0
H1102 H 0.45067 0.96468 0.10098 0.0
H1103 H 0.47654 1.00749 0.08266 0.0
H1104 H 0.15907 0.33786 0.73346 0.0
H1105 H 0.13703 0.29569 0.7102 0.0
H1106 H 0.14565 0.33514 0.63679 0.0
H1107 H 0.16753 0.37744 0.65989 0.0
H1108 H 0.08851 0.27792 0.67914 0.0
H1109 H 0.18394 0.27828 0.62032 0.0
H1110 H 0.18535 0.30075 0.64807 0.0
H1111 H 0.1723 0.30692 0.6168 0.0
C1112 C 0.15596 0.3377 0.71241 0.0
C1113 C 0.16526 0.36123 0.69862 0.0
C1114 C 0.14349 0.31346 0.69908 0.0
C1115 C 0.14013 0.31203 0.67161 0.0
C1116 C 0.14864 0.33553 0.65787 0.0
H1117 H 0.07302 0.18049 0.55767 0.0
H1118 H 0.09283 0.22399 0.57934 0.0
C1119 C 0.16112 0.35978 0.67117 0.0
C1120 C 0.12766 0.286 0.65745 0.0
H1121 H 0.14163 0.24407 0.61016 0.0
C1122 C 0.10018 0.27052 0.66411 0.0
C1123 C 0.14278 0.27623 0.63774 0.0
C1124 C 0.17282 0.29125 0.63042 0.0
C1125 C 0.08733 0.24584 0.65147 0.0
C1126 C 0.10252 0.23599 0.6319 0.0
C1127 C 0.12992 0.25155 0.6251 0.0
C1128 C 0.09058 0.20941 0.61867 0.0
C1129 C 0.05734 0.23076 0.65887 0.0
C1130 C 0.08312 0.18654 0.63339 0.0
C1131 C 0.07181 0.16162 0.62107 0.0
C1132 C 0.06777 0.15883 0.59361 0.0
C1133 C 0.07569 0.18176 0.57883 0.0
C1134 C 0.08707 0.20672 0.59121 0.0
H1135 H 0.04598 0.24387 0.66834 0.0
H1136 H 0.04498 0.2206 0.64137 0.0
H1137 H 0.05798 0.21563 0.6731 0.0
H1138 H 0.0862 0.18793 0.6545 0.0
H1139 H 0.06618 0.14453 0.63318 0.0
H1140 H 0.65703 0.2524 0.58179 0.0
H1141 H 0.64019 0.29121 0.58169 0.0
H1142 H 0.63101 0.28298 0.49734 0.0
H1143 H 0.64622 0.24333 0.49737 0.0
H1144 H 0.66161 0.33779 0.55878 0.0
H1145 H 0.55381 0.28764 0.51924 0.0
H1146 H 0.57708 0.26975 0.53062 0.0
H1147 H 0.58142 0.2829 0.49824 0.0
C1148 C 0.65098 0.25857 0.56325 0.0
C1149 C 0.65274 0.24457 0.53961 0.0
C1150 C 0.64161 0.2809 0.56321 0.0
C1151 C 0.63386 0.28969 0.53957 0.0
C1152 C 0.63625 0.27618 0.51588 0.0
H1153 H 0.61671 0.44401 0.51199 0.0
H1154 H 0.6336 0.40546 0.51602 0.0
C1155 C 0.64535 0.25371 0.51591 0.0
C1156 C 0.62361 0.31319 0.53964 0.0
H1157 H 0.56838 0.33458 0.52022 0.0
C1158 C 0.64114 0.33709 0.55051 0.0
C1159 C 0.5967 0.3121 0.52925 0.0
C1160 C 0.57604 0.28666 0.51893 0.0
C1161 C 0.63275 0.3601 0.55076 0.0
C1162 C 0.60644 0.35927 0.53921 0.0
C1163 C 0.58868 0.33524 0.52883 0.0
C1164 C 0.5968 0.38303 0.53758 0.0
C1165 C 0.65196 0.3849 0.56378 0.0
C1166 C 0.57021 0.38297 0.54775 0.0
C1167 C 0.56034 0.40478 0.54508 0.0
C1168 C 0.57697 0.42708 0.53229 0.0
C1169 C 0.60368 0.4272 0.52228 0.0
C1170 C 0.61339 0.40526 0.52468 0.0
H1171 H 0.66628 0.38038 0.57846 0.0
H1172 H 0.6655 0.39708 0.54863 0.0
H1173 H 0.63948 0.39671 0.57378 0.0
H1174 H 0.55702 0.36598 0.55769 0.0
H1175 H 0.53975 0.40428 0.55311 0.0
loop_
_geom_bond_atom_site_label_1
_geom_bond_atom_site_label_2
_geom_bond_distance
_geom_bond_site_symmetry_2
_ccdc_geom_bond_type
H0 C1 0.949 . S
C1 H0 0.949 . S
C1 C2 1.395 . S
C1 C3 1.391 . S
C2 C1 1.395 . S
C2 C5 1.390 . S
C3 C1 1.391 . S
C3 C7 1.387 . S
C3 C8 1.491 . S
H4 C5 0.950 . S
C5 C2 1.390 . S
C5 H4 0.950 . S
C5 C6 1.378 . S
C6 C5 1.378 . S
C6 C7 1.409 . S
C7 C3 1.387 . S
C7 C6 1.409 . S
C7 H9 0.951 . S
C8 C3 1.491 . S
C8 C10 1.382 . S
C8 C12 1.404 . S
H9 C7 0.951 . S
C10 C8 1.382 . S
C10 C11 1.390 . S
C10 H15 0.949 . S
C11 C10 1.390 . S
C11 C16 1.399 . S
C12 C8 1.404 . S
C12 H13 0.950 . S
C12 C14 1.375 . S
H13 C12 0.950 . S
C14 C12 1.375 . S
C14 C16 1.382 . S
C14 H18 0.950 . S
H15 C10 0.949 . S
C16 C11 1.399 . S
C16 C14 1.382 . S
C16 H17 0.952 . S
H17 C16 0.952 . S
H18 C14 0.950 . S
H19 C20 0.949 . S
C20 H19 0.949 . S
C20 C21 1.395 . S
C20 C22 1.391 . S
C21 C20 1.395 . S
C21 C24 1.390 . S
C22 C20 1.391 . S
C22 C26 1.387 . S
C22 C27 1.491 . S
H23 C24 0.950 . S
C24 C21 1.390 . S
C24 H23 0.950 . S
C24 C25 1.378 . S
C25 C24 1.378 . S
C25 C26 1.409 . S
C26 C22 1.387 . S
C26 C25 1.409 . S
C26 H28 0.951 . S
C27 C22 1.491 . S
C27 C29 1.382 . S
C27 C31 1.404 . S
H28 C26 0.951 . S
C29 C27 1.382 . S
C29 C30 1.390 . S
C29 H34 0.949 . S
C30 C29 1.390 . S
C30 C35 1.399 . S
C31 C27 1.404 . S
C31 H32 0.950 . S
C31 C33 1.375 . S
H32 C31 0.950 . S
C33 C31 1.375 . S
C33 C35 1.382 . S
C33 H37 0.950 . S
H34 C29 0.949 . S
C35 C30 1.399 . S
C35 C33 1.382 . S
C35 H36 0.952 . S
H36 C35 0.952 . S
H37 C33 0.950 . S
H38 C39 0.949 . S
C39 H38 0.949 . S
C39 C40 1.395 . S
C39 C41 1.391 . S
C40 C39 1.395 . S
C40 C43 1.390 . S
C41 C39 1.391 . S
C41 C45 1.387 . S
C41 C46 1.491 . S
H42 C43 0.950 . S
C43 C40 1.390 . S
C43 H42 0.950 . S
C43 C44 1.378 . S
C44 C43 1.378 . S
C44 C45 1.409 . S
C45 C41 1.387 . S
C45 C44 1.409 . S
C45 H47 0.951 . S
C46 C41 1.491 . S
C46 C48 1.382 . S
C46 C50 1.404 . S
H47 C45 0.951 . S
C48 C46 1.382 . S
C48 C49 1.390 . S
C48 H53 0.949 . S
C49 C48 1.390 . S
C49 C54 1.399 . S
C50 C46 1.404 . S
C50 H51 0.950 . S
C50 C52 1.375 . S
H51 C50 0.950 . S
C52 C50 1.375 . S
C52 C54 1.382 . S
C52 H56 0.950 . S
H53 C48 0.949 . S
C54 C49 1.399 . S
C54 C52 1.382 . S
C54 H55 0.952 . S
H55 C54 0.952 . S
H56 C52 0.950 . S
H57 C58 0.949 . S
C58 H57 0.949 . S
C58 C59 1.395 . S
C58 C60 1.391 . S
C59 C58 1.395 . S
C59 C62 1.390 . S
C60 C58 1.391 . S
C60 C64 1.387 . S
C60 C65 1.491 . S
H61 C62 0.950 . S
C62 C59 1.390 . S
C62 H61 0.950 . S
C62 C63 1.378 . S
C63 C62 1.378 . S
C63 C64 1.409 . S
C64 C60 1.387 . S
C64 C63 1.409 . S
C64 H66 0.951 . S
C65 C60 1.491 . S
C65 C67 1.382 . S
C65 C69 1.404 . S
H66 C64 0.951 . S
C67 C65 1.382 . S
C67 C68 1.390 . S
C67 H72 0.949 . S
C68 C67 1.390 . S
C68 C73 1.399 . S
C69 C65 1.404 . S
C69 H70 0.950 . S
C69 C71 1.375 . S
H70 C69 0.950 . S
C71 C69 1.375 . S
C71 C73 1.382 . S
C71 H75 0.950 . S
H72 C67 0.949 . S
C73 C68 1.399 . S
C73 C71 1.382 . S
C73 H74 0.952 . S
H74 C73 0.952 . S
H75 C71 0.950 . S
H76 C77 0.949 . S
C77 H76 0.949 . S
C77 C78 1.395 . S
C77 C79 1.391 . S
C78 C77 1.395 . S
C78 C81 1.390 . S
C79 C77 1.391 . S
C79 C83 1.387 . S
C79 C84 1.491 . S
H80 C81 0.950 . S
C81 C78 1.390 . S
C81 H80 0.950 . S
C81 C82 1.378 . S
C82 C81 1.378 . S
C82 C83 1.409 . S
C83 C79 1.387 . S
C83 C82 1.409 . S
C83 H85 0.951 . S
C84 C79 1.491 . S
C84 C86 1.382 . S
C84 C88 1.404 . S
H85 C83 0.951 . S
C86 C84 1.382 . S
C86 C87 1.390 . S
C86 H91 0.949 . S
C87 C86 1.390 . S
C87 C92 1.399 . S
C88 C84 1.404 . S
C88 H89 0.950 . S
C88 C90 1.375 . S
H89 C88 0.950 . S
C90 C88 1.375 . S
C90 C92 1.382 . S
C90 H94 0.950 . S
H91 C86 0.949 . S
C92 C87 1.399 . S
C92 C90 1.382 . S
C92 H93 0.952 . S
H93 C92 0.952 . S
H94 C90 0.950 . S
H95 C96 0.949 . S
C96 H95 0.949 . S
C96 C97 1.395 . S
C96 C98 1.391 . S
C97 C96 1.395 . S
C97 C100 1.390 . S
C98 C96 1.391 . S
C98 C102 1.387 . S
C98 C103 1.491 . S
H99 C100 0.950 . S
C100 C97 1.390 . S
C100 H99 0.950 . S
C100 C101 1.378 . S
C101 C100 1.378 . S
C101 C102 1.409 . S
C102 C98 1.387 . S
C102 C101 1.409 . S
C102 H104 0.951 . S
C103 C98 1.491 . S
C103 C105 1.382 . S
C103 C107 1.404 . S
H104 C102 0.951 . S
C105 C103 1.382 . S
C105 C106 1.390 . S
C105 H110 0.949 . S
C106 C105 1.390 . S
C106 C111 1.399 . S
C107 C103 1.404 . S
C107 H108 0.950 . S
C107 C109 1.375 . S
H108 C107 0.950 . S
C109 C107 1.375 . S
C109 C111 1.382 . S
C109 H113 0.950 . S
H110 C105 0.949 . S
C111 C106 1.399 . S
C111 C109 1.382 . S
C111 H112 0.952 . S
H112 C111 0.952 . S
H113 C109 0.950 . S
H114 C115 0.949 . S
C115 H114 0.949 . S
C115 C116 1.395 . S
C115 C117 1.391 . S
C116 C115 1.395 . S
C116 C119 1.390 . S
C117 C115 1.391 . S
C117 C121 1.387 . S
C117 C122 1.491 . S
H118 C119 0.950 . S
C119 C116 1.390 . S
C119 H118 0.950 . S
C119 C120 1.378 . S
C120 C119 1.378 . S
C120 C121 1.409 . S
C121 C117 1.387 . S
C121 C120 1.409 . S
C121 H123 0.951 . S
C122 C117 1.491 . S
C122 C124 1.382 . S
C122 C126 1.404 . S
H123 C121 0.951 . S
C124 C122 1.382 . S
C124 C125 1.390 . S
C124 H129 0.949 . S
C125 C124 1.390 . S
C125 C130 1.399 . S
C126 C122 1.404 . S
C126 H127 0.950 . S
C126 C128 1.375 . S
H127 C126 0.950 . S
C128 C126 1.375 . S
C128 C130 1.382 . S
C128 H132 0.950 . S
H129 C124 0.949 . S
C130 C125 1.399 . S
C130 C128 1.382 . S
C130 H131 0.952 . S
H131 C130 0.952 . S
H132 C128 0.950 . S
H133 C134 0.949 . S
C134 H133 0.949 . S
C134 C135 1.395 . S
C134 C136 1.391 . S
C135 C134 1.395 . S
C135 C138 1.390 . S
C136 C134 1.391 . S
C136 C140 1.387 . S
C136 C141 1.491 . S
H137 C138 0.950 . S
C138 C135 1.390 . S
C138 H137 0.950 . S
C138 C139 1.378 . S
C139 C138 1.378 . S
C139 C140 1.409 . S
C140 C136 1.387 . S
C140 C139 1.409 . S
C140 H142 0.951 . S
C141 C136 1.491 . S
C141 C143 1.382 . S
C141 C145 1.404 . S
H142 C140 0.951 . S
C143 C141 1.382 . S
C143 C144 1.390 . S
C143 H148 0.949 . S
C144 C143 1.390 . S
C144 C149 1.399 . S
C145 C141 1.404 . S
C145 H146 0.950 . S
C145 C147 1.375 . S
H146 C145 0.950 . S
C147 C145 1.375 . S
C147 C149 1.382 . S
C147 H151 0.950 . S
H148 C143 0.949 . S
C149 C144 1.399 . S
C149 C147 1.382 . S
C149 H150 0.952 . S
H150 C149 0.952 . S
H151 C147 0.950 . S
Sm152 C154 2.846 . S
Sm152 O172 2.543 . S
Sm152 O173 2.450 . S
Sm152 O174 2.681 . S
Sm152 O175 2.464 . S
Sm152 O176 2.396 . S
Sm152 O180 2.386 1_455 S
Sm152 O183 2.408 . S
Sm153 C163 2.846 1_545 S
Sm153 O174 2.386 1_655 S
Sm153 O177 2.408 1_655 S
Sm153 O178 2.543 1_545 S
Sm153 O179 2.450 . S
Sm153 O180 2.681 . S
Sm153 O181 2.464 . S
Sm153 O182 2.396 . S
C154 Sm152 2.846 . S
C154 C155 1.506 . S
C154 O172 1.261 . S
C154 O173 1.242 . S
C155 C154 1.506 . S
C155 C156 1.358 . S
C155 C160 1.382 . S
C156 C155 1.358 . S
C156 C157 1.385 . S
C156 H184 0.930 . S
C157 C156 1.385 . S
C157 C158 1.395 . S
C157 H185 0.929 . S
C158 C157 1.395 . S
C158 C159 1.335 . S
C159 C158 1.335 . S
C159 C160 1.398 . S
C159 H186 0.930 . S
C160 C155 1.382 . S
C160 C159 1.398 . S
C160 H187 0.929 . S
C161 O174 1.271 . S
C161 O175 1.251 . S
C162 O176 1.252 . S
C162 O177 1.272 . S
C163 Sm153 2.846 1_565 S
C163 C164 1.506 . S
C163 O178 1.261 . S
C163 O179 1.242 1_565 S
C164 C163 1.506 . S
C164 C165 1.358 . S
C164 C169 1.382 . S
C165 C164 1.358 . S
C165 C166 1.385 . S
C165 H188 0.930 . S
C166 C165 1.385 . S
C166 C167 1.395 . S
C166 H189 0.929 . S
C167 C166 1.395 . S
C167 C168 1.335 . S
C168 C167 1.335 . S
C168 C169 1.398 . S
C168 H190 0.930 . S
C169 C164 1.382 . S
C169 C168 1.398 . S
C169 H191 0.929 . S
C170 O180 1.271 . S
C170 O181 1.251 . S
C171 O182 1.252 1_565 S
C171 O183 1.272 1_665 S
O172 Sm152 2.543 . S
O172 C154 1.261 . S
O173 Sm152 2.450 . S
O173 C154 1.242 . S
O174 Sm152 2.681 . S
O174 Sm153 2.386 1_455 S
O174 C161 1.271 . S
O175 Sm152 2.464 . S
O175 C161 1.251 . S
O176 Sm152 2.396 . S
O176 C162 1.252 . S
O177 Sm153 2.408 1_455 S
O177 C162 1.272 . S
O178 Sm153 2.543 1_565 S
O178 C163 1.261 . S
O179 Sm153 2.450 . S
O179 C163 1.242 1_545 S
O180 Sm152 2.386 1_655 S
O180 Sm153 2.681 . S
O180 C170 1.271 . S
O181 Sm153 2.464 . S
O181 C170 1.251 . S
O182 Sm153 2.396 . S
O182 C171 1.252 1_545 S
O183 Sm152 2.408 . S
O183 C171 1.272 1_445 S
H184 C156 0.930 . S
H185 C157 0.929 . S
H186 C159 0.930 . S
H187 C160 0.929 . S
H188 C165 0.930 . S
H189 C166 0.929 . S
H190 C168 0.930 . S
H191 C169 0.929 . S
Sm192 C194 2.846 . S
Sm192 O212 2.543 . S
Sm192 O213 2.450 . S
Sm192 O214 2.681 . S
Sm192 O215 2.464 . S
Sm192 O216 2.396 . S
Sm192 O220 2.386 . S
Sm192 O223 2.408 . S
Sm193 C203 2.846 . S
Sm193 O214 2.386 . S
Sm193 O217 2.408 . S
Sm193 O218 2.543 1_545 S
Sm193 O219 2.450 . S
Sm193 O220 2.681 . S
Sm193 O221 2.464 . S
Sm193 O222 2.396 . S
C194 Sm192 2.846 . S
C194 C195 1.506 . S
C194 O212 1.261 . S
C194 O213 1.242 . S
C195 C194 1.506 . S
C195 C196 1.358 . S
C195 C200 1.382 . S
C196 C195 1.358 . S
C196 C197 1.385 . S
C196 H224 0.930 . S
C197 C196 1.385 . S
C197 C198 1.395 . S
C197 H225 0.929 . S
C198 C197 1.395 . S
C198 C199 1.335 . S
C199 C198 1.335 . S
C199 C200 1.398 . S
C199 H226 0.930 . S
C200 C195 1.382 . S
C200 C199 1.398 . S
C200 H227 0.929 . S
C201 O214 1.271 1_565 S
C201 O215 1.251 1_565 S
C202 O216 1.252 . S
C202 O217 1.272 . S
C203 Sm193 2.846 . S
C203 C204 1.506 1_544 S
C203 O218 1.261 1_545 S
C203 O219 1.242 . S
C204 C203 1.506 1_566 S
C204 C205 1.358 . S
C204 C209 1.382 . S
C205 C204 1.358 . S
C205 C206 1.385 . S
C205 H228 0.930 . S
C206 C205 1.385 . S
C206 C207 1.395 . S
C206 H229 0.929 . S
C207 C206 1.395 . S
C207 C208 1.335 . S
C208 C207 1.335 . S
C208 C209 1.398 . S
C208 H230 0.930 . S
C209 C204 1.382 . S
C209 C208 1.398 . S
C209 H231 0.929 1_565 S
C210 O220 1.271 . S
C210 O221 1.251 . S
C211 O222 1.252 . S
C211 O223 1.272 . S
O212 Sm192 2.543 . S
O212 C194 1.261 . S
O213 Sm192 2.450 . S
O213 C194 1.242 . S
O214 Sm192 2.681 . S
O214 Sm193 2.386 . S
O214 C201 1.271 1_545 S
O215 Sm192 2.464 . S
O215 C201 1.251 1_545 S
O216 Sm192 2.396 . S
O216 C202 1.252 . S
O217 Sm193 2.408 . S
O217 C202 1.272 . S
O218 Sm193 2.543 1_565 S
O218 C203 1.261 1_565 S
O219 Sm193 2.450 . S
O219 C203 1.242 . S
O220 Sm192 2.386 . S
O220 Sm193 2.681 . S
O220 C210 1.271 . S
O221 Sm193 2.464 . S
O221 C210 1.251 . S
O222 Sm193 2.396 . S
O222 C211 1.252 . S
O223 Sm192 2.408 . S
O223 C211 1.272 . S
H224 C196 0.930 . S
H225 C197 0.929 . S
H226 C199 0.930 . S
H227 C200 0.929 . S
H228 C205 0.930 . S
H229 C206 0.929 . S
H230 C208 0.930 . S
H231 C209 0.929 1_545 S
Sm232 C234 2.846 . S
Sm232 O252 2.543 . S
Sm232 O253 2.450 . S
Sm232 O254 2.681 . S
Sm232 O255 2.464 . S
Sm232 O256 2.396 . S
Sm232 O260 2.386 . S
Sm232 O263 2.408 . S
Sm233 C243 2.846 . S
Sm233 O254 2.386 . S
Sm233 O257 2.408 . S
Sm233 O258 2.543 . S
Sm233 O259 2.450 . S
Sm233 O260 2.681 . S
Sm233 O261 2.464 . S
Sm233 O262 2.396 . S
C234 Sm232 2.846 . S
C234 C235 1.506 . S
C234 O252 1.261 . S
C234 O253 1.242 . S
C235 C234 1.506 . S
C235 C236 1.358 . S
C235 C240 1.382 . S
C236 C235 1.358 . S
C236 C237 1.385 . S
C236 H264 0.930 . S
C237 C236 1.385 . S
C237 C238 1.395 . S
C237 H265 0.929 . S
C238 C237 1.395 . S
C238 C239 1.335 . S
C239 C238 1.335 . S
C239 C240 1.398 . S
C239 H266 0.930 . S
C240 C235 1.382 . S
C240 C239 1.398 . S
C240 H267 0.929 . S
C241 O254 1.271 . S
C241 O255 1.251 . S
C242 O256 1.252 . S
C242 O257 1.272 . S
C243 Sm233 2.846 . S
C243 C244 1.506 . S
C243 O258 1.261 . S
C243 O259 1.242 . S
C244 C243 1.506 . S
C244 C245 1.358 . S
C244 C249 1.382 . S
C245 C244 1.358 . S
C245 C246 1.385 . S
C245 H268 0.930 . S
C246 C245 1.385 . S
C246 C247 1.395 . S
C246 H269 0.929 . S
C247 C246 1.395 . S
C247 C248 1.335 . S
C248 C247 1.335 . S
C248 C249 1.398 . S
C248 H270 0.930 . S
C249 C244 1.382 . S
C249 C248 1.398 . S
C249 H271 0.929 . S
C250 O260 1.271 . S
C250 O261 1.251 . S
C251 O262 1.252 . S
C251 O263 1.272 . S
O252 Sm232 2.543 . S
O252 C234 1.261 . S
O253 Sm232 2.450 . S
O253 C234 1.242 . S
O254 Sm232 2.681 . S
O254 Sm233 2.386 . S
O254 C241 1.271 . S
O255 Sm232 2.464 . S
O255 C241 1.251 . S
O256 Sm232 2.396 . S
O256 C242 1.252 . S
O257 Sm233 2.408 . S
O257 C242 1.272 . S
O258 Sm233 2.543 . S
O258 C243 1.261 . S
O259 Sm233 2.450 . S
O259 C243 1.242 . S
O260 Sm232 2.386 . S
O260 Sm233 2.681 . S
O260 C250 1.271 . S
O261 Sm233 2.464 . S
O261 C250 1.251 . S
O262 Sm233 2.396 . S
O262 C251 1.252 . S
O263 Sm232 2.408 . S
O263 C251 1.272 . S
H264 C236 0.930 . S
H265 C237 0.929 . S
H266 C239 0.930 . S
H267 C240 0.929 . S
H268 C245 0.930 . S
H269 C246 0.929 . S
H270 C248 0.930 . S
H271 C249 0.929 . S
Sm272 C274 2.846 . S
Sm272 O292 2.543 . S
Sm272 O293 2.450 . S
Sm272 O294 2.681 . S
Sm272 O295 2.464 . S
Sm272 O296 2.396 . S
Sm272 O300 2.355 1_554 S
Sm272 O303 2.408 1_455 S
Sm273 C283 2.831 1_454 S
Sm273 O294 2.413 . S
Sm273 O297 2.425 . S
Sm273 O298 2.541 1_454 S
Sm273 O299 2.425 1_554 S
Sm273 O300 2.683 1_554 S
Sm273 O301 2.440 1_554 S
Sm273 O302 2.400 1_554 S
C274 Sm272 2.846 . S
C274 C275 1.506 . S
C274 O292 1.261 . S
C274 O293 1.242 . S
C275 C274 1.506 . S
C275 C276 1.358 . S
C275 C280 1.382 . S
C276 C275 1.358 . S
C276 C277 1.385 . S
C276 H304 0.930 . S
C277 C276 1.385 . S
C277 C278 1.395 . S
C277 H305 0.929 . S
C278 C277 1.395 . S
C278 C279 1.335 . S
C279 C278 1.335 . S
C279 C280 1.398 . S
C279 H306 0.930 . S
C280 C275 1.382 . S
C280 C279 1.398 . S
C280 H307 0.929 . S
C281 O294 1.271 . S
C281 O295 1.251 . S
C282 O296 1.252 . S
C282 O297 1.272 . S
C283 Sm273 2.831 1_656 S
C283 C284 1.506 . S
C283 O298 1.261 . S
C283 O299 1.242 1_655 S
C284 C283 1.506 . S
C284 C285 1.358 . S
C284 C289 1.382 . S
C285 C284 1.358 . S
C285 C286 1.385 . S
C285 H308 0.930 . S
C286 C285 1.385 . S
C286 C287 1.395 . S
C286 H309 0.929 . S
C287 C286 1.395 . S
C287 C288 1.335 . S
C288 C287 1.335 . S
C288 C289 1.398 . S
C288 H310 0.930 . S
C289 C284 1.382 . S
C289 C288 1.398 . S
C289 H311 0.929 . S
C290 O300 1.308 . S
C290 O301 1.251 . S
C291 O302 1.243 1_655 S
C291 O303 1.272 1_556 S
O292 Sm272 2.543 . S
O292 C274 1.261 . S
O293 Sm272 2.450 . S
O293 C274 1.242 . S
O294 Sm272 2.681 . S
O294 Sm273 2.413 . S
O294 C281 1.271 . S
O295 Sm272 2.464 . S
O295 C281 1.251 . S
O296 Sm272 2.396 . S
O296 C282 1.252 . S
O297 Sm273 2.425 . S
O297 C282 1.272 . S
O298 Sm273 2.541 1_656 S
O298 C283 1.261 . S
O299 Sm273 2.425 1_556 S
O299 C283 1.242 1_455 S
O300 Sm272 2.355 1_556 S
O300 Sm273 2.683 1_556 S
O300 C290 1.308 . S
O301 Sm273 2.440 1_556 S
O301 C290 1.251 . S
O302 Sm273 2.400 1_556 S
O302 C291 1.243 1_455 S
O303 Sm272 2.408 1_655 S
O303 C291 1.272 1_554 S
H304 C276 0.930 . S
H305 C277 0.929 . S
H306 C279 0.930 . S
H307 C280 0.929 . S
H308 C285 0.930 . S
H309 C286 0.929 . S
H310 C288 0.930 . S
H311 C289 0.929 . S
H312 C320 0.929 . S
H313 C322 0.930 . S
H314 C324 0.930 . S
H315 C327 0.929 . S
H316 C330 0.930 . S
H317 C332 0.960 . S
H318 C332 0.960 . S
H319 C332 0.960 . S
C320 H312 0.929 . S
C320 C321 1.377 . S
C320 C322 1.384 . S
C321 C320 1.377 . S
C321 C327 1.390 . S
C322 H313 0.930 . S
C322 C320 1.384 . S
C322 C323 1.372 . S
C323 C322 1.372 . S
C323 C324 1.400 . S
C323 C328 1.490 . S
C324 H314 0.930 . S
C324 C323 1.400 . S
C324 C327 1.386 . S
H325 C341 0.930 . S
H326 C342 0.931 . S
C327 H315 0.929 . S
C327 C321 1.390 . S
C327 C324 1.386 . S
C328 C323 1.490 . S
C328 C330 1.395 . S
C328 C331 1.403 . S
H329 C335 0.930 . S
C330 H316 0.930 . S
C330 C328 1.395 . S
C330 C333 1.403 . S
C331 C328 1.403 . S
C331 C332 1.524 . S
C331 C335 1.400 . S
C332 H317 0.960 . S
C332 H318 0.960 . S
C332 H319 0.960 . S
C332 C331 1.524 . S
C333 C330 1.403 . S
C333 C334 1.392 . S
C333 C337 1.495 . S
C334 C333 1.392 . S
C334 C335 1.385 . S
C334 C336 1.478 . S
C335 H329 0.930 . S
C335 C331 1.400 . S
C335 C334 1.385 . S
C336 C334 1.478 . S
C336 C338 1.381 . S
C336 C342 1.383 . S
C337 C333 1.495 . S
C337 H343 0.959 . S
C337 H344 0.961 . S
C337 H345 0.960 . S
C338 C336 1.381 . S
C338 C339 1.394 . S
C338 H346 0.930 . S
C339 C338 1.394 . S
C339 C340 1.383 . S
C339 H347 0.929 . S
C340 C339 1.383 . S
C340 C341 1.377 . S
C341 H325 0.930 . S
C341 C340 1.377 . S
C341 C342 1.379 . S
C342 H326 0.931 . S
C342 C336 1.383 . S
C342 C341 1.379 . S
H343 C337 0.959 . S
H344 C337 0.961 . S
H345 C337 0.960 . S
H346 C338 0.930 . S
H347 C339 0.929 . S
H348 C356 0.929 . S
H349 C358 0.930 . S
H350 C360 0.930 . S
H351 C363 0.929 . S
H352 C366 0.930 . S
H353 C368 0.960 . S
H354 C368 0.960 . S
H355 C368 0.960 . S
C356 H348 0.929 . S
C356 C357 1.377 . S
C356 C358 1.384 . S
C357 C356 1.377 . S
C357 C363 1.390 . S
C358 H349 0.930 . S
C358 C356 1.384 . S
C358 C359 1.372 . S
C359 C358 1.372 . S
C359 C360 1.400 . S
C359 C364 1.490 . S
C360 H350 0.930 . S
C360 C359 1.400 . S
C360 C363 1.386 . S
H361 C377 0.930 . S
H362 C378 0.931 . S
C363 H351 0.929 . S
C363 C357 1.390 . S
C363 C360 1.386 . S
C364 C359 1.490 . S
C364 C366 1.395 . S
C364 C367 1.403 . S
H365 C371 0.930 . S
C366 H352 0.930 . S
C366 C364 1.395 . S
C366 C369 1.403 . S
C367 C364 1.403 . S
C367 C368 1.524 . S
C367 C371 1.400 . S
C368 H353 0.960 . S
C368 H354 0.960 . S
C368 H355 0.960 . S
C368 C367 1.524 . S
C369 C366 1.403 . S
C369 C370 1.392 . S
C369 C373 1.495 . S
C370 C369 1.392 . S
C370 C371 1.385 . S
C370 C372 1.478 . S
C371 H365 0.930 . S
C371 C367 1.400 . S
C371 C370 1.385 . S
C372 C370 1.478 . S
C372 C374 1.381 . S
C372 C378 1.383 . S
C373 C369 1.495 . S
C373 H379 0.959 . S
C373 H380 0.961 . S
C373 H381 0.960 . S
C374 C372 1.381 . S
C374 C375 1.394 . S
C374 H382 0.930 . S
C375 C374 1.394 . S
C375 C376 1.383 . S
C375 H383 0.929 . S
C376 C375 1.383 . S
C376 C377 1.377 . S
C377 H361 0.930 . S
C377 C376 1.377 . S
C377 C378 1.379 . S
C378 H362 0.931 . S
C378 C372 1.383 . S
C378 C377 1.379 . S
H379 C373 0.959 . S
H380 C373 0.961 . S
H381 C373 0.960 . S
H382 C374 0.930 . S
H383 C375 0.929 . S
H384 C392 0.929 . S
H385 C394 0.930 . S
H386 C396 0.930 . S
H387 C399 0.929 . S
H388 C402 0.930 . S
H389 C404 0.960 . S
H390 C404 0.960 . S
H391 C404 0.960 . S
C392 H384 0.929 . S
C392 C393 1.377 . S
C392 C394 1.384 . S
C393 C392 1.377 . S
C393 C399 1.390 . S
C394 H385 0.930 . S
C394 C392 1.384 . S
C394 C395 1.372 . S
C395 C394 1.372 . S
C395 C396 1.400 . S
C395 C400 1.490 . S
C396 H386 0.930 . S
C396 C395 1.400 . S
C396 C399 1.386 . S
H397 C413 0.930 . S
H398 C414 0.931 . S
C399 H387 0.929 . S
C399 C393 1.390 . S
C399 C396 1.386 . S
C400 C395 1.490 . S
C400 C402 1.395 . S
C400 C403 1.403 . S
H401 C407 0.930 . S
C402 H388 0.930 . S
C402 C400 1.395 . S
C402 C405 1.403 . S
C403 C400 1.403 . S
C403 C404 1.524 . S
C403 C407 1.400 . S
C404 H389 0.960 . S
C404 H390 0.960 . S
C404 H391 0.960 . S
C404 C403 1.524 . S
C405 C402 1.403 . S
C405 C406 1.392 . S
C405 C409 1.495 . S
C406 C405 1.392 . S
C406 C407 1.385 . S
C406 C408 1.478 . S
C407 H401 0.930 . S
C407 C403 1.400 . S
C407 C406 1.385 . S
C408 C406 1.478 . S
C408 C410 1.381 . S
C408 C414 1.383 . S
C409 C405 1.495 . S
C409 H415 0.959 . S
C409 H416 0.961 . S
C409 H417 0.960 . S
C410 C408 1.381 . S
C410 C411 1.394 . S
C410 H418 0.930 . S
C411 C410 1.394 . S
C411 C412 1.383 . S
C411 H419 0.929 . S
C412 C411 1.383 . S
C412 C413 1.377 . S
C413 H397 0.930 . S
C413 C412 1.377 . S
C413 C414 1.379 . S
C414 H398 0.931 . S
C414 C408 1.383 . S
C414 C413 1.379 . S
H415 C409 0.959 . S
H416 C409 0.961 . S
H417 C409 0.960 . S
H418 C410 0.930 . S
H419 C411 0.929 . S
H420 C428 0.929 . S
H421 C430 0.930 . S
H422 C432 0.930 . S
H423 C435 0.929 . S
H424 C438 0.930 . S
H425 C440 0.960 . S
H426 C440 0.960 . S
H427 C440 0.960 . S
C428 H420 0.929 . S
C428 C429 1.377 . S
C428 C430 1.384 . S
C429 C428 1.377 . S
C429 C435 1.390 . S
C430 H421 0.930 . S
C430 C428 1.384 . S
C430 C431 1.372 . S
C431 C430 1.372 . S
C431 C432 1.400 . S
C431 C436 1.490 . S
C432 H422 0.930 . S
C432 C431 1.400 . S
C432 C435 1.386 . S
H433 C449 0.930 . S
H434 C450 0.931 1_455 S
C435 H423 0.929 . S
C435 C429 1.390 . S
C435 C432 1.386 . S
C436 C431 1.490 . S
C436 C438 1.395 . S
C436 C439 1.403 . S
H437 C443 0.930 . S
C438 H424 0.930 . S
C438 C436 1.395 . S
C438 C441 1.403 . S
C439 C436 1.403 . S
C439 C440 1.524 . S
C439 C443 1.400 . S
C440 H425 0.960 . S
C440 H426 0.960 . S
C440 H427 0.960 . S
C440 C439 1.524 . S
C441 C438 1.403 . S
C441 C442 1.392 . S
C441 C445 1.495 . S
C442 C441 1.392 . S
C442 C443 1.385 . S
C442 C444 1.478 . S
C443 H437 0.930 . S
C443 C439 1.400 . S
C443 C442 1.385 . S
C444 C442 1.478 . S
C444 C446 1.381 . S
C444 C450 1.383 . S
C445 C441 1.495 . S
C445 H451 0.959 . S
C445 H452 0.961 . S
C445 H453 0.960 . S
C446 C444 1.381 . S
C446 C447 1.394 . S
C446 H454 0.930 . S
C447 C446 1.394 . S
C447 C448 1.383 . S
C447 H455 0.929 . S
C448 C447 1.383 . S
C448 C449 1.377 1_655 S
C449 H433 0.930 . S
C449 C448 1.377 1_455 S
C449 C450 1.379 1_455 S
C450 H434 0.931 1_655 S
C450 C444 1.383 . S
C450 C449 1.379 1_655 S
H451 C445 0.959 . S
H452 C445 0.961 . S
H453 C445 0.960 . S
H454 C446 0.930 . S
H455 C447 0.929 . S
H456 C464 0.929 . S
H457 C466 0.930 . S
H458 C468 0.930 . S
H459 C471 0.929 . S
H460 C474 0.930 . S
H461 C476 0.960 . S
H462 C476 0.960 . S
H463 C476 0.960 . S
C464 H456 0.929 . S
C464 C465 1.377 . S
C464 C466 1.384 . S
C465 C464 1.377 . S
C465 C471 1.390 . S
C466 H457 0.930 . S
C466 C464 1.384 . S
C466 C467 1.372 . S
C467 C466 1.372 . S
C467 C468 1.400 . S
C467 C472 1.490 . S
C468 H458 0.930 . S
C468 C467 1.400 . S
C468 C471 1.386 . S
H469 C485 0.930 . S
H470 C486 0.931 . S
C471 H459 0.929 . S
C471 C465 1.390 . S
C471 C468 1.386 . S
C472 C467 1.490 . S
C472 C474 1.395 . S
C472 C475 1.403 . S
H473 C479 0.930 . S
C474 H460 0.930 . S
C474 C472 1.395 . S
C474 C477 1.403 . S
C475 C472 1.403 . S
C475 C476 1.524 . S
C475 C479 1.400 . S
C476 H461 0.960 . S
C476 H462 0.960 . S
C476 H463 0.960 . S
C476 C475 1.524 . S
C477 C474 1.403 . S
C477 C478 1.392 . S
C477 C481 1.495 . S
C478 C477 1.392 . S
C478 C479 1.385 . S
C478 C480 1.478 . S
C479 H473 0.930 . S
C479 C475 1.400 . S
C479 C478 1.385 . S
C480 C478 1.478 . S
C480 C482 1.381 . S
C480 C486 1.383 . S
C481 C477 1.495 . S
C481 H487 0.959 . S
C481 H488 0.961 . S
C481 H489 0.960 . S
C482 C480 1.381 . S
C482 C483 1.394 . S
C482 H490 0.930 . S
C483 C482 1.394 . S
C483 C484 1.383 . S
C483 H491 0.929 . S
C484 C483 1.383 . S
C484 C485 1.377 . S
C485 H469 0.930 . S
C485 C484 1.377 . S
C485 C486 1.379 . S
C486 H470 0.931 . S
C486 C480 1.383 . S
C486 C485 1.379 . S
H487 C481 0.959 . S
H488 C481 0.961 . S
H489 C481 0.960 . S
H490 C482 0.930 . S
H491 C483 0.929 . S
H492 C500 0.929 . S
H493 C502 0.930 . S
H494 C504 0.930 . S
H495 C507 0.929 . S
H496 C510 0.930 . S
H497 C512 0.960 . S
H498 C512 0.960 . S
H499 C512 0.960 . S
C500 H492 0.929 . S
C500 C501 1.377 . S
C500 C502 1.384 . S
C501 C500 1.377 . S
C501 C507 1.390 . S
C502 H493 0.930 . S
C502 C500 1.384 . S
C502 C503 1.372 . S
C503 C502 1.372 . S
C503 C504 1.400 . S
C503 C508 1.490 . S
C504 H494 0.930 . S
C504 C503 1.400 . S
C504 C507 1.386 . S
H505 C521 0.930 . S
H506 C522 0.931 . S
C507 H495 0.929 . S
C507 C501 1.390 . S
C507 C504 1.386 . S
C508 C503 1.490 . S
C508 C510 1.395 . S
C508 C511 1.403 . S
H509 C515 0.930 . S
C510 H496 0.930 . S
C510 C508 1.395 . S
C510 C513 1.403 . S
C511 C508 1.403 . S
C511 C512 1.524 . S
C511 C515 1.400 . S
C512 H497 0.960 . S
C512 H498 0.960 . S
C512 H499 0.960 . S
C512 C511 1.524 . S
C513 C510 1.403 . S
C513 C514 1.392 . S
C513 C517 1.495 . S
C514 C513 1.392 . S
C514 C515 1.385 . S
C514 C516 1.478 . S
C515 H509 0.930 . S
C515 C511 1.400 . S
C515 C514 1.385 . S
C516 C514 1.478 . S
C516 C518 1.381 1_565 S
C516 C522 1.383 . S
C517 C513 1.495 . S
C517 H523 0.959 . S
C517 H524 0.961 . S
C517 H525 0.960 1_565 S
C518 C516 1.381 1_545 S
C518 C519 1.394 . S
C518 H526 0.930 . S
C519 C518 1.394 . S
C519 C520 1.383 . S
C519 H527 0.929 . S
C520 C519 1.383 . S
C520 C521 1.377 1_545 S
C521 H505 0.930 . S
C521 C520 1.377 1_565 S
C521 C522 1.379 . S
C522 H506 0.931 . S
C522 C516 1.383 . S
C522 C521 1.379 . S
H523 C517 0.959 . S
H524 C517 0.961 . S
H525 C517 0.960 1_545 S
H526 C518 0.930 . S
H527 C519 0.929 . S
H528 C536 0.929 . S
H529 C538 0.930 . S
H530 C540 0.930 . S
H531 C543 0.929 . S
H532 C546 0.930 . S
H533 C548 0.960 . S
H534 C548 0.960 . S
H535 C548 0.960 . S
C536 H528 0.929 . S
C536 C537 1.377 . S
C536 C538 1.384 . S
C537 C536 1.377 . S
C537 C543 1.390 . S
C538 H529 0.930 . S
C538 C536 1.384 . S
C538 C539 1.372 . S
C539 C538 1.372 . S
C539 C540 1.400 . S
C539 C544 1.490 . S
C540 H530 0.930 . S
C540 C539 1.400 . S
C540 C543 1.386 . S
H541 C557 0.898 1_554 S
H542 C558 0.950 . S
C543 H531 0.929 . S
C543 C537 1.390 . S
C543 C540 1.386 . S
C544 C539 1.490 . S
C544 C546 1.395 . S
C544 C547 1.403 . S
H545 C551 0.930 . S
C546 H532 0.930 . S
C546 C544 1.395 . S
C546 C549 1.403 . S
C547 C544 1.403 . S
C547 C548 1.524 . S
C547 C551 1.400 . S
C548 H533 0.960 . S
C548 H534 0.960 . S
C548 H535 0.960 . S
C548 C547 1.524 . S
C549 C546 1.403 . S
C549 C550 1.392 . S
C549 C553 1.495 . S
C550 C549 1.392 . S
C550 C551 1.385 . S
C550 C552 1.478 . S
C551 H545 0.930 . S
C551 C547 1.400 . S
C551 C550 1.385 . S
C552 C550 1.478 . S
C552 C554 1.381 . S
C552 C558 1.383 . S
C553 C549 1.495 . S
C553 H559 0.959 . S
C553 H560 0.961 . S
C553 H561 0.960 . S
C554 C552 1.381 . S
C554 C555 1.394 . S
C554 H562 0.930 . S
C555 C554 1.394 . S
C555 C556 1.383 . S
C555 H563 0.929 . S
C556 C555 1.383 . S
C556 C557 1.396 . S
C557 H541 0.898 1_556 S
C557 C556 1.396 . S
C557 C558 1.392 . S
C558 H542 0.950 . S
C558 C552 1.383 . S
C558 C557 1.392 . S
H559 C553 0.959 . S
H560 C553 0.961 . S
H561 C553 0.960 . S
H562 C554 0.930 . S
H563 C555 0.929 . S
H564 C572 0.929 . S
H565 C574 0.930 . S
H566 C576 0.930 . S
H567 C579 0.929 . S
H568 C582 0.930 . S
H569 C584 0.960 . S
H570 C584 0.960 . S
H571 C584 0.960 . S
C572 H564 0.929 . S
C572 C573 1.377 . S
C572 C574 1.384 . S
C573 C572 1.377 . S
C573 C579 1.390 . S
C574 H565 0.930 . S
C574 C572 1.384 . S
C574 C575 1.372 . S
C575 C574 1.372 . S
C575 C576 1.400 . S
C575 C580 1.490 . S
C576 H566 0.930 . S
C576 C575 1.400 . S
C576 C579 1.386 . S
H577 C593 0.930 . S
H578 C594 0.931 . S
C579 H567 0.929 . S
C579 C573 1.390 . S
C579 C576 1.386 . S
C580 C575 1.490 . S
C580 C582 1.395 . S
C580 C583 1.403 . S
H581 C587 0.930 . S
C582 H568 0.930 . S
C582 C580 1.395 . S
C582 C585 1.403 . S
C583 C580 1.403 . S
C583 C584 1.524 . S
C583 C587 1.400 . S
C584 H569 0.960 . S
C584 H570 0.960 . S
C584 H571 0.960 . S
C584 C583 1.524 . S
C585 C582 1.403 . S
C585 C586 1.392 . S
C585 C589 1.495 . S
C586 C585 1.392 . S
C586 C587 1.385 . S
C586 C588 1.478 . S
C587 H581 0.930 . S
C587 C583 1.400 . S
C587 C586 1.385 . S
C588 C586 1.478 . S
C588 C590 1.381 . S
C588 C594 1.383 . S
C589 C585 1.495 . S
C589 H595 0.959 . S
C589 H596 0.961 . S
C589 H597 0.960 . S
C590 C588 1.381 . S
C590 C591 1.394 . S
C590 H598 0.930 . S
C591 C590 1.394 . S
C591 C592 1.383 . S
C591 H599 0.929 . S
C592 C591 1.383 . S
C592 C593 1.377 . S
C593 H577 0.930 . S
C593 C592 1.377 . S
C593 C594 1.379 . S
C594 H578 0.931 . S
C594 C588 1.383 . S
C594 C593 1.379 . S
H595 C589 0.959 . S
H596 C589 0.961 . S
H597 C589 0.960 . S
H598 C590 0.930 . S
H599 C591 0.929 . S
H600 C608 0.929 . S
H601 C610 0.930 . S
H602 C612 0.930 . S
H603 C615 0.929 . S
H604 C618 0.930 . S
H605 C620 0.960 . S
H606 C620 0.960 . S
H607 C620 0.960 . S
C608 H600 0.929 . S
C608 C609 1.377 . S
C608 C610 1.384 . S
C609 C608 1.377 . S
C609 C615 1.390 . S
C610 H601 0.930 . S
C610 C608 1.384 . S
C610 C611 1.372 . S
C611 C610 1.372 . S
C611 C612 1.400 . S
C611 C616 1.490 . S
C612 H602 0.930 . S
C612 C611 1.400 . S
C612 C615 1.386 . S
H613 C629 0.930 . S
H614 C630 0.931 . S
C615 H603 0.929 . S
C615 C609 1.390 . S
C615 C612 1.386 . S
C616 C611 1.490 . S
C616 C618 1.395 . S
C616 C619 1.403 . S
H617 C623 0.930 . S
C618 H604 0.930 . S
C618 C616 1.395 . S
C618 C621 1.403 . S
C619 C616 1.403 . S
C619 C620 1.524 . S
C619 C623 1.400 . S
C620 H605 0.960 . S
C620 H606 0.960 . S
C620 H607 0.960 . S
C620 C619 1.524 . S
C621 C618 1.403 . S
C621 C622 1.392 . S
C621 C625 1.495 . S
C622 C621 1.392 . S
C622 C623 1.385 . S
C622 C624 1.478 . S
C623 H617 0.930 . S
C623 C619 1.400 . S
C623 C622 1.385 . S
C624 C622 1.478 . S
C624 C626 1.381 . S
C624 C630 1.383 . S
C625 C621 1.495 . S
C625 H631 0.959 . S
C625 H632 0.961 . S
C625 H633 0.960 . S
C626 C624 1.381 . S
C626 C627 1.394 . S
C626 H634 0.930 . S
C627 C626 1.394 . S
C627 C628 1.383 . S
C627 H635 0.929 . S
C628 C627 1.383 . S
C628 C629 1.377 . S
C629 H613 0.930 . S
C629 C628 1.377 . S
C629 C630 1.379 . S
C630 H614 0.931 . S
C630 C624 1.383 . S
C630 C629 1.379 . S
H631 C625 0.959 . S
H632 C625 0.961 . S
H633 C625 0.960 . S
H634 C626 0.930 . S
H635 C627 0.929 . S
H636 C644 0.929 . S
H637 C646 0.930 . S
H638 C648 0.930 . S
H639 C651 0.929 . S
H640 C654 0.930 . S
H641 C656 0.973 . S
H642 C656 0.960 . S
H643 C656 0.960 . S
C644 H636 0.929 . S
C644 C645 1.377 . S
C644 C646 1.384 . S
C645 C644 1.377 . S
C645 C651 1.390 . S
C646 H637 0.930 . S
C646 C644 1.384 . S
C646 C647 1.372 . S
C647 C646 1.372 . S
C647 C648 1.400 . S
C647 C652 1.490 . S
C648 H638 0.930 . S
C648 C647 1.400 . S
C648 C651 1.386 . S
H649 C665 0.930 . S
H650 C666 0.931 . S
C651 H639 0.929 . S
C651 C645 1.390 . S
C651 C648 1.386 . S
C652 C647 1.490 . S
C652 C654 1.395 . S
C652 C655 1.403 . S
H653 C659 0.930 1_554 S
C654 H640 0.930 . S
C654 C652 1.395 . S
C654 C657 1.403 . S
C655 C652 1.403 . S
C655 C656 1.524 . S
C655 C659 1.400 . S
C656 H641 0.973 . S
C656 H642 0.960 . S
C656 H643 0.960 . S
C656 C655 1.524 . S
C657 C654 1.403 . S
C657 C658 1.392 . S
C657 C661 1.495 . S
C658 C657 1.392 . S
C658 C659 1.385 . S
C658 C660 1.478 . S
C659 H653 0.930 1_556 S
C659 C655 1.400 . S
C659 C658 1.385 . S
C660 C658 1.478 . S
C660 C662 1.381 1_556 S
C660 C666 1.383 . S
C661 C657 1.495 . S
C661 H667 0.959 . S
C661 H668 0.961 . S
C661 H669 0.960 . S
C662 C660 1.381 1_554 S
C662 C663 1.394 . S
C662 H670 0.930 . S
C663 C662 1.394 . S
C663 C664 1.383 . S
C663 H671 0.929 . S
C664 C663 1.383 . S
C664 C665 1.377 . S
C665 H649 0.930 . S
C665 C664 1.377 . S
C665 C666 1.379 1_554 S
C666 H650 0.931 . S
C666 C660 1.383 . S
C666 C665 1.379 1_556 S
H667 C661 0.959 . S
H668 C661 0.961 . S
H669 C661 0.960 . S
H670 C662 0.930 . S
H671 C663 0.929 . S
H672 C680 0.929 . S
H673 C682 0.930 . S
H674 C684 0.930 . S
H675 C687 0.929 . S
H676 C690 0.930 . S
H677 C692 0.960 . S
H678 C692 0.960 . S
H679 C692 0.960 . S
C680 H672 0.929 . S
C680 C681 1.377 . S
C680 C682 1.384 . S
C681 C680 1.377 . S
C681 C687 1.390 . S
C682 H673 0.930 . S
C682 C680 1.384 . S
C682 C683 1.372 . S
C683 C682 1.372 . S
C683 C684 1.400 . S
C683 C688 1.490 . S
C684 H674 0.930 . S
C684 C683 1.400 . S
C684 C687 1.386 . S
H685 C701 0.930 . S
H686 C702 0.931 . S
C687 H675 0.929 . S
C687 C681 1.390 . S
C687 C684 1.386 . S
C688 C683 1.490 . S
C688 C690 1.395 . S
C688 C691 1.403 . S
H689 C695 0.930 . S
C690 H676 0.930 . S
C690 C688 1.395 . S
C690 C693 1.403 . S
C691 C688 1.403 . S
C691 C692 1.524 . S
C691 C695 1.400 . S
C692 H677 0.960 . S
C692 H678 0.960 . S
C692 H679 0.960 . S
C692 C691 1.524 . S
C693 C690 1.403 . S
C693 C694 1.392 . S
C693 C697 1.495 . S
C694 C693 1.392 . S
C694 C695 1.385 . S
C694 C696 1.478 . S
C695 H689 0.930 . S
C695 C691 1.400 . S
C695 C694 1.385 . S
C696 C694 1.478 . S
C696 C698 1.381 . S
C696 C702 1.383 . S
C697 C693 1.495 . S
C697 H703 0.959 . S
C697 H704 0.961 . S
C697 H705 0.960 . S
C698 C696 1.381 . S
C698 C699 1.394 . S
C698 H706 0.930 . S
C699 C698 1.394 . S
C699 C700 1.383 . S
C699 H707 0.929 . S
C700 C699 1.383 . S
C700 C701 1.377 . S
C701 H685 0.930 . S
C701 C700 1.377 . S
C701 C702 1.379 . S
C702 H686 0.931 . S
C702 C696 1.383 . S
C702 C701 1.379 . S
H703 C697 0.959 . S
H704 C697 0.961 . S
H705 C697 0.960 . S
H706 C698 0.930 . S
H707 C699 0.929 . S
H708 C716 0.929 . S
H709 C718 0.930 . S
H710 C720 0.930 . S
H711 C723 0.929 . S
H712 C726 0.930 . S
H713 C728 0.960 . S
H714 C728 0.960 . S
H715 C728 0.960 . S
C716 H708 0.929 . S
C716 C717 1.377 . S
C716 C718 1.384 . S
C717 C716 1.377 . S
C717 C723 1.390 . S
C718 H709 0.930 . S
C718 C716 1.384 . S
C718 C719 1.372 . S
C719 C718 1.372 . S
C719 C720 1.400 . S
C719 C724 1.490 . S
C720 H710 0.930 . S
C720 C719 1.400 . S
C720 C723 1.386 . S
H721 C737 0.930 . S
H722 C738 0.931 . S
C723 H711 0.929 . S
C723 C717 1.390 . S
C723 C720 1.386 . S
C724 C719 1.490 . S
C724 C726 1.395 . S
C724 C727 1.403 . S
H725 C731 0.930 . S
C726 H712 0.930 . S
C726 C724 1.395 . S
C726 C729 1.403 . S
C727 C724 1.403 . S
C727 C728 1.524 . S
C727 C731 1.400 . S
C728 H713 0.960 . S
C728 H714 0.960 . S
C728 H715 0.960 . S
C728 C727 1.524 . S
C729 C726 1.403 . S
C729 C730 1.392 . S
C729 C733 1.495 . S
C730 C729 1.392 . S
C730 C731 1.385 . S
C730 C732 1.478 . S
C731 H725 0.930 . S
C731 C727 1.400 . S
C731 C730 1.385 . S
C732 C730 1.478 . S
C732 C734 1.381 . S
C732 C738 1.383 . S
C733 C729 1.495 . S
C733 H739 0.959 . S
C733 H740 0.961 . S
C733 H741 0.960 . S
C734 C732 1.381 . S
C734 C735 1.394 . S
C734 H742 0.930 . S
C735 C734 1.394 . S
C735 C736 1.383 . S
C735 H743 0.929 . S
C736 C735 1.383 . S
C736 C737 1.377 . S
C737 H721 0.930 . S
C737 C736 1.377 . S
C737 C738 1.379 . S
C738 H722 0.931 . S
C738 C732 1.383 . S
C738 C737 1.379 . S
H739 C733 0.959 . S
H740 C733 0.961 . S
H741 C733 0.960 . S
H742 C734 0.930 . S
H743 C735 0.929 . S
H744 C752 0.929 . S
H745 C754 0.930 . S
H746 C756 0.930 . S
H747 C759 0.929 . S
H748 C762 0.930 . S
H749 C764 0.960 . S
H750 C764 0.960 . S
H751 C764 0.960 . S
C752 H744 0.929 . S
C752 C753 1.377 . S
C752 C754 1.384 . S
C753 C752 1.377 . S
C753 C759 1.390 . S
C754 H745 0.930 . S
C754 C752 1.384 . S
C754 C755 1.372 . S
C755 C754 1.372 . S
C755 C756 1.400 . S
C755 C760 1.490 . S
C756 H746 0.930 . S
C756 C755 1.400 . S
C756 C759 1.386 . S
H757 C773 0.930 . S
H758 C774 0.931 . S
C759 H747 0.929 . S
C759 C753 1.390 . S
C759 C756 1.386 . S
C760 C755 1.490 . S
C760 C762 1.395 . S
C760 C763 1.403 . S
H761 C767 0.930 . S
C762 H748 0.930 . S
C762 C760 1.395 . S
C762 C765 1.403 . S
C763 C760 1.403 . S
C763 C764 1.524 . S
C763 C767 1.400 . S
C764 H749 0.960 . S
C764 H750 0.960 . S
C764 H751 0.960 . S
C764 C763 1.524 . S
C765 C762 1.403 . S
C765 C766 1.392 . S
C765 C769 1.495 . S
C766 C765 1.392 . S
C766 C767 1.385 . S
C766 C768 1.478 . S
C767 H761 0.930 . S
C767 C763 1.400 . S
C767 C766 1.385 . S
C768 C766 1.478 . S
C768 C770 1.381 . S
C768 C774 1.383 . S
C769 C765 1.495 . S
C769 H775 0.959 . S
C769 H776 0.961 . S
C769 H777 0.960 . S
C770 C768 1.381 . S
C770 C771 1.394 . S
C770 H778 0.930 . S
C771 C770 1.394 . S
C771 C772 1.383 . S
C771 H779 0.929 . S
C772 C771 1.383 . S
C772 C773 1.377 . S
C773 H757 0.930 . S
C773 C772 1.377 . S
C773 C774 1.379 . S
C774 H758 0.931 . S
C774 C768 1.383 . S
C774 C773 1.379 . S
H775 C769 0.959 . S
H776 C769 0.961 . S
H777 C769 0.960 . S
H778 C770 0.930 . S
H779 C771 0.929 . S
H780 C788 0.929 . S
H781 C790 0.930 . S
H782 C792 0.930 . S
H783 C795 0.929 . S
H784 C798 0.930 . S
H785 C800 0.960 . S
H786 C800 0.960 . S
H787 C800 0.960 . S
C788 H780 0.929 . S
C788 C789 1.377 . S
C788 C790 1.384 . S
C789 C788 1.377 . S
C789 C795 1.390 . S
C790 H781 0.930 . S
C790 C788 1.384 . S
C790 C791 1.372 . S
C791 C790 1.372 . S
C791 C792 1.400 . S
C791 C796 1.490 . S
C792 H782 0.930 . S
C792 C791 1.400 . S
C792 C795 1.386 . S
H793 C809 0.930 . S
H794 C810 0.931 . S
C795 H783 0.929 . S
C795 C789 1.390 . S
C795 C792 1.386 . S
C796 C791 1.490 . S
C796 C798 1.395 . S
C796 C799 1.403 . S
H797 C803 0.930 . S
C798 H784 0.930 . S
C798 C796 1.395 . S
C798 C801 1.403 . S
C799 C796 1.403 . S
C799 C800 1.524 . S
C799 C803 1.400 . S
C800 H785 0.960 . S
C800 H786 0.960 . S
C800 H787 0.960 . S
C800 C799 1.524 . S
C801 C798 1.403 . S
C801 C802 1.392 . S
C801 C805 1.495 . S
C802 C801 1.392 . S
C802 C803 1.385 . S
C802 C804 1.478 . S
C803 H797 0.930 . S
C803 C799 1.400 . S
C803 C802 1.385 . S
C804 C802 1.478 . S
C804 C806 1.381 . S
C804 C810 1.383 . S
C805 C801 1.495 . S
C805 H811 0.959 . S
C805 H812 0.961 . S
C805 H813 0.960 . S
C806 C804 1.381 . S
C806 C807 1.394 . S
C806 H814 0.930 . S
C807 C806 1.394 . S
C807 C808 1.383 . S
C807 H815 0.929 . S
C808 C807 1.383 . S
C808 C809 1.377 . S
C809 H793 0.930 . S
C809 C808 1.377 . S
C809 C810 1.379 . S
C810 H794 0.931 . S
C810 C804 1.383 . S
C810 C809 1.379 . S
H811 C805 0.959 . S
H812 C805 0.961 . S
H813 C805 0.960 . S
H814 C806 0.930 . S
H815 C807 0.929 . S
H816 C824 0.929 . S
H817 C826 0.930 . S
H818 C828 0.930 . S
H819 C831 0.929 . S
H820 C834 0.930 . S
H821 C836 0.960 . S
H822 C836 0.960 . S
H823 C836 0.960 . S
C824 H816 0.929 . S
C824 C825 1.377 . S
C824 C826 1.384 . S
C825 C824 1.377 . S
C825 C831 1.390 . S
C826 H817 0.930 . S
C826 C824 1.384 . S
C826 C827 1.372 . S
C827 C826 1.372 . S
C827 C828 1.400 . S
C827 C832 1.490 . S
C828 H818 0.930 . S
C828 C827 1.400 . S
C828 C831 1.386 . S
H829 C845 0.930 . S
H830 C846 0.931 . S
C831 H819 0.929 . S
C831 C825 1.390 . S
C831 C828 1.386 . S
C832 C827 1.490 . S
C832 C834 1.395 . S
C832 C835 1.403 . S
H833 C839 0.930 . S
C834 H820 0.930 . S
C834 C832 1.395 . S
C834 C837 1.403 . S
C835 C832 1.403 . S
C835 C836 1.524 . S
C835 C839 1.400 . S
C836 H821 0.960 . S
C836 H822 0.960 . S
C836 H823 0.960 . S
C836 C835 1.524 . S
C837 C834 1.403 . S
C837 C838 1.392 . S
C837 C841 1.495 . S
C838 C837 1.392 . S
C838 C839 1.385 . S
C838 C840 1.478 . S
C839 H833 0.930 . S
C839 C835 1.400 . S
C839 C838 1.385 . S
C840 C838 1.478 . S
C840 C842 1.381 . S
C840 C846 1.383 . S
C841 C837 1.495 . S
C841 H847 0.959 . S
C841 H848 0.961 . S
C841 H849 0.960 . S
C842 C840 1.381 . S
C842 C843 1.394 . S
C842 H850 0.930 . S
C843 C842 1.394 . S
C843 C844 1.383 . S
C843 H851 0.929 . S
C844 C843 1.383 . S
C844 C845 1.377 . S
C845 H829 0.930 . S
C845 C844 1.377 . S
C845 C846 1.379 . S
C846 H830 0.931 . S
C846 C840 1.383 . S
C846 C845 1.379 . S
H847 C841 0.959 . S
H848 C841 0.961 . S
H849 C841 0.960 . S
H850 C842 0.930 . S
H851 C843 0.929 . S
H852 C860 0.929 . S
H853 C862 0.930 . S
H854 C864 0.930 . S
H855 C867 0.929 . S
H856 C870 0.930 . S
H857 C872 0.960 . S
H858 C872 0.960 . S
H859 C872 0.960 . S
C860 H852 0.929 . S
C860 C861 1.377 . S
C860 C862 1.384 . S
C861 C860 1.377 . S
C861 C867 1.390 . S
C862 H853 0.930 . S
C862 C860 1.384 . S
C862 C863 1.372 . S
C863 C862 1.372 . S
C863 C864 1.400 . S
C863 C868 1.490 . S
C864 H854 0.930 . S
C864 C863 1.400 . S
C864 C867 1.386 . S
H865 C881 0.930 . S
H866 C882 0.931 . S
C867 H855 0.929 . S
C867 C861 1.390 . S
C867 C864 1.386 . S
C868 C863 1.490 . S
C868 C870 1.395 . S
C868 C871 1.403 . S
H869 C875 0.930 . S
C870 H856 0.930 . S
C870 C868 1.395 . S
C870 C873 1.403 . S
C871 C868 1.403 . S
C871 C872 1.524 . S
C871 C875 1.400 . S
C872 H857 0.960 . S
C872 H858 0.960 . S
C872 H859 0.960 . S
C872 C871 1.524 . S
C873 C870 1.403 . S
C873 C874 1.392 . S
C873 C877 1.495 . S
C874 C873 1.392 . S
C874 C875 1.385 . S
C874 C876 1.478 . S
C875 H869 0.930 . S
C875 C871 1.400 . S
C875 C874 1.385 . S
C876 C874 1.478 . S
C876 C878 1.381 . S
C876 C882 1.383 . S
C877 C873 1.495 . S
C877 H883 0.959 . S
C877 H884 0.961 . S
C877 H885 0.960 . S
C878 C876 1.381 . S
C878 C879 1.394 . S
C878 H886 0.930 . S
C879 C878 1.394 . S
C879 C880 1.383 . S
C879 H887 0.929 . S
C880 C879 1.383 . S
C880 C881 1.377 . S
C881 H865 0.930 . S
C881 C880 1.377 . S
C881 C882 1.379 . S
C882 H866 0.931 . S
C882 C876 1.383 . S
C882 C881 1.379 . S
H883 C877 0.959 . S
H884 C877 0.961 . S
H885 C877 0.960 . S
H886 C878 0.930 . S
H887 C879 0.929 . S
H888 C896 0.929 . S
H889 C898 0.930 . S
H890 C900 0.930 . S
H891 C903 0.929 . S
H892 C906 0.930 . S
H893 C908 0.960 . S
H894 C908 0.960 . S
H895 C908 0.960 . S
C896 H888 0.929 . S
C896 C897 1.377 . S
C896 C898 1.384 . S
C897 C896 1.377 . S
C897 C903 1.390 . S
C898 H889 0.930 . S
C898 C896 1.384 . S
C898 C899 1.372 . S
C899 C898 1.372 . S
C899 C900 1.400 . S
C899 C904 1.490 . S
C900 H890 0.930 . S
C900 C899 1.400 . S
C900 C903 1.386 . S
H901 C917 0.965 . S
H902 C918 0.931 . S
C903 H891 0.929 . S
C903 C897 1.390 . S
C903 C900 1.386 . S
C904 C899 1.490 . S
C904 C906 1.395 . S
C904 C907 1.403 . S
H905 C911 0.930 . S
C906 H892 0.930 . S
C906 C904 1.395 . S
C906 C909 1.403 . S
C907 C904 1.403 . S
C907 C908 1.524 . S
C907 C911 1.400 . S
C908 H893 0.960 . S
C908 H894 0.960 . S
C908 H895 0.960 . S
C908 C907 1.524 . S
C909 C906 1.403 . S
C909 C910 1.392 . S
C909 C913 1.495 1_556 S
C910 C909 1.392 . S
C910 C911 1.385 . S
C910 C912 1.478 . S
C911 H905 0.930 . S
C911 C907 1.400 . S
C911 C910 1.385 . S
C912 C910 1.478 . S
C912 C914 1.381 1_556 S
C912 C918 1.383 . S
C913 C909 1.495 1_554 S
C913 H919 0.959 . S
C913 H920 0.961 . S
C913 H921 0.960 . S
C914 C912 1.381 1_554 S
C914 C915 1.394 . S
C914 H922 0.930 . S
C915 C914 1.394 . S
C915 C916 1.383 . S
C915 H923 0.929 . S
C916 C915 1.383 . S
C916 C917 1.377 1_554 S
C917 H901 0.965 . S
C917 C916 1.377 1_556 S
C917 C918 1.379 . S
C918 H902 0.931 . S
C918 C912 1.383 . S
C918 C917 1.379 . S
H919 C913 0.959 . S
H920 C913 0.961 . S
H921 C913 0.960 . S
H922 C914 0.930 . S
H923 C915 0.929 . S
H924 C932 0.929 . S
H925 C934 0.930 . S
H926 C936 0.930 . S
H927 C939 0.929 . S
H928 C942 0.930 . S
H929 C944 0.960 . S
H930 C944 0.960 . S
H931 C944 0.960 . S
C932 H924 0.929 . S
C932 C933 1.377 . S
C932 C934 1.384 . S
C933 C932 1.377 . S
C933 C939 1.390 . S
C934 H925 0.930 . S
C934 C932 1.384 . S
C934 C935 1.372 . S
C935 C934 1.372 . S
C935 C936 1.400 . S
C935 C940 1.490 . S
C936 H926 0.930 . S
C936 C935 1.400 . S
C936 C939 1.386 . S
H937 C953 0.930 . S
H938 C954 0.931 . S
C939 H927 0.929 . S
C939 C933 1.390 . S
C939 C936 1.386 . S
C940 C935 1.490 . S
C940 C942 1.395 . S
C940 C943 1.403 . S
H941 C947 0.930 . S
C942 H928 0.930 . S
C942 C940 1.395 . S
C942 C945 1.403 . S
C943 C940 1.403 . S
C943 C944 1.524 . S
C943 C947 1.400 . S
C944 H929 0.960 . S
C944 H930 0.960 . S
C944 H931 0.960 . S
C944 C943 1.524 . S
C945 C942 1.403 . S
C945 C946 1.392 . S
C945 C949 1.495 . S
C946 C945 1.392 . S
C946 C947 1.385 . S
C946 C948 1.478 . S
C947 H941 0.930 . S
C947 C943 1.400 . S
C947 C946 1.385 . S
C948 C946 1.478 . S
C948 C950 1.381 . S
C948 C954 1.383 . S
C949 C945 1.495 . S
C949 H955 0.959 . S
C949 H956 0.961 . S
C949 H957 0.960 . S
C950 C948 1.381 . S
C950 C951 1.394 . S
C950 H958 0.930 . S
C951 C950 1.394 . S
C951 C952 1.383 . S
C951 H959 0.929 . S
C952 C951 1.383 . S
C952 C953 1.377 . S
C953 H937 0.930 . S
C953 C952 1.377 . S
C953 C954 1.379 . S
C954 H938 0.931 . S
C954 C948 1.383 . S
C954 C953 1.379 . S
H955 C949 0.959 . S
H956 C949 0.961 . S
H957 C949 0.960 . S
H958 C950 0.930 . S
H959 C951 0.929 . S
H960 C968 0.929 . S
H961 C970 0.930 . S
H962 C972 0.930 . S
H963 C975 0.929 . S
H964 C978 0.930 . S
H965 C980 0.960 . S
H966 C980 0.960 . S
H967 C980 0.960 . S
C968 H960 0.929 . S
C968 C969 1.377 . S
C968 C970 1.384 . S
C969 C968 1.377 . S
C969 C975 1.390 . S
C970 H961 0.930 . S
C970 C968 1.384 . S
C970 C971 1.372 . S
C971 C970 1.372 . S
C971 C972 1.400 . S
C971 C976 1.490 . S
C972 H962 0.930 . S
C972 C971 1.400 . S
C972 C975 1.386 . S
H973 C989 0.930 . S
H974 C990 0.931 . S
C975 H963 0.929 . S
C975 C969 1.390 . S
C975 C972 1.386 . S
C976 C971 1.490 . S
C976 C978 1.395 . S
C976 C979 1.403 . S
H977 C983 0.930 . S
C978 H964 0.930 . S
C978 C976 1.395 . S
C978 C981 1.403 . S
C979 C976 1.403 . S
C979 C980 1.524 . S
C979 C983 1.400 . S
C980 H965 0.960 . S
C980 H966 0.960 . S
C980 H967 0.960 . S
C980 C979 1.524 . S
C981 C978 1.403 . S
C981 C982 1.392 . S
C981 C985 1.495 . S
C982 C981 1.392 . S
C982 C983 1.385 . S
C982 C984 1.478 . S
C983 H977 0.930 . S
C983 C979 1.400 . S
C983 C982 1.385 . S
C984 C982 1.478 . S
C984 C986 1.381 . S
C984 C990 1.383 . S
C985 C981 1.495 . S
C985 H991 0.959 . S
C985 H992 0.961 . S
C985 H993 0.960 . S
C986 C984 1.381 . S
C986 C987 1.394 . S
C986 H994 0.930 . S
C987 C986 1.394 . S
C987 C988 1.383 . S
C987 H995 0.929 . S
C988 C987 1.383 . S
C988 C989 1.377 . S
C989 H973 0.930 . S
C989 C988 1.377 . S
C989 C990 1.379 . S
C990 H974 0.931 . S
C990 C984 1.383 . S
C990 C989 1.379 . S
H991 C985 0.959 . S
H992 C985 0.961 . S
H993 C985 0.960 . S
H994 C986 0.930 . S
H995 C987 0.929 . S
H996 C1004 0.929 . S
H997 C1006 0.930 . S
H998 C1008 0.930 . S
H999 C1011 0.929 . S
H1000 C1014 0.930 . S
H1001 C1016 0.960 . S
H1002 C1016 0.960 . S
H1003 C1016 0.960 . S
C1004 H996 0.929 . S
C1004 C1005 1.377 . S
C1004 C1006 1.384 . S
C1005 C1004 1.377 . S
C1005 C1011 1.390 . S
C1006 H997 0.930 . S
C1006 C1004 1.384 . S
C1006 C1007 1.372 . S
C1007 C1006 1.372 . S
C1007 C1008 1.400 . S
C1007 C1012 1.490 . S
C1008 H998 0.930 . S
C1008 C1007 1.400 . S
C1008 C1011 1.386 . S
H1009 C1025 0.930 . S
H1010 C1026 0.931 . S
C1011 H999 0.929 . S
C1011 C1005 1.390 . S
C1011 C1008 1.386 . S
C1012 C1007 1.490 . S
C1012 C1014 1.395 . S
C1012 C1015 1.403 . S
H1013 C1019 0.930 . S
C1014 H1000 0.930 . S
C1014 C1012 1.395 . S
C1014 C1017 1.403 . S
C1015 C1012 1.403 . S
C1015 C1016 1.524 . S
C1015 C1019 1.400 . S
C1016 H1001 0.960 . S
C1016 H1002 0.960 . S
C1016 H1003 0.960 . S
C1016 C1015 1.524 . S
C1017 C1014 1.403 . S
C1017 C1018 1.392 . S
C1017 C1021 1.495 . S
C1018 C1017 1.392 . S
C1018 C1019 1.385 . S
C1018 C1020 1.478 . S
C1019 H1013 0.930 . S
C1019 C1015 1.400 . S
C1019 C1018 1.385 . S
C1020 C1018 1.478 . S
C1020 C1022 1.381 . S
C1020 C1026 1.383 . S
C1021 C1017 1.495 . S
C1021 H1027 0.959 . S
C1021 H1028 0.961 . S
C1021 H1029 0.960 . S
C1022 C1020 1.381 . S
C1022 C1023 1.394 . S
C1022 H1030 0.930 . S
C1023 C1022 1.394 . S
C1023 C1024 1.383 . S
C1023 H1031 0.929 . S
C1024 C1023 1.383 . S
C1024 C1025 1.377 . S
C1025 H1009 0.930 . S
C1025 C1024 1.377 . S
C1025 C1026 1.379 . S
C1026 H1010 0.931 . S
C1026 C1020 1.383 . S
C1026 C1025 1.379 . S
H1027 C1021 0.959 . S
H1028 C1021 0.961 . S
H1029 C1021 0.960 . S
H1030 C1022 0.930 . S
H1031 C1023 0.929 . S
H1032 C1040 0.929 . S
H1033 C1042 0.930 . S
H1034 C1044 0.930 . S
H1035 C1047 0.929 . S
H1036 C1050 0.930 . S
H1037 C1052 0.960 . S
H1038 C1052 0.960 . S
H1039 C1052 0.960 . S
C1040 H1032 0.929 . S
C1040 C1041 1.377 . S
C1040 C1042 1.384 . S
C1041 C1040 1.377 . S
C1041 C1047 1.390 . S
C1042 H1033 0.930 . S
C1042 C1040 1.384 . S
C1042 C1043 1.372 . S
C1043 C1042 1.372 . S
C1043 C1044 1.400 . S
C1043 C1048 1.490 . S
C1044 H1034 0.930 . S
C1044 C1043 1.400 . S
C1044 C1047 1.386 . S
H1045 C1061 0.930 . S
H1046 C1062 0.931 . S
C1047 H1035 0.929 . S
C1047 C1041 1.390 . S
C1047 C1044 1.386 . S
C1048 C1043 1.490 . S
C1048 C1050 1.395 . S
C1048 C1051 1.403 . S
H1049 C1055 0.930 . S
C1050 H1036 0.930 . S
C1050 C1048 1.395 . S
C1050 C1053 1.403 . S
C1051 C1048 1.403 . S
C1051 C1052 1.524 . S
C1051 C1055 1.400 . S
C1052 H1037 0.960 . S
C1052 H1038 0.960 . S
C1052 H1039 0.960 . S
C1052 C1051 1.524 . S
C1053 C1050 1.403 . S
C1053 C1054 1.392 . S
C1053 C1057 1.495 . S
C1054 C1053 1.392 . S
C1054 C1055 1.385 . S
C1054 C1056 1.478 . S
C1055 H1049 0.930 . S
C1055 C1051 1.400 . S
C1055 C1054 1.385 . S
C1056 C1054 1.478 . S
C1056 C1058 1.381 . S
C1056 C1062 1.383 . S
C1057 C1053 1.495 . S
C1057 H1063 0.959 . S
C1057 H1064 0.961 . S
C1057 H1065 0.960 . S
C1058 C1056 1.381 . S
C1058 C1059 1.394 . S
C1058 H1066 0.930 . S
C1059 C1058 1.394 . S
C1059 C1060 1.383 . S
C1059 H1067 0.929 . S
C1060 C1059 1.383 . S
C1060 C1061 1.377 . S
C1061 H1045 0.930 . S
C1061 C1060 1.377 . S
C1061 C1062 1.379 . S
C1062 H1046 0.931 . S
C1062 C1056 1.383 . S
C1062 C1061 1.379 . S
H1063 C1057 0.959 . S
H1064 C1057 0.961 . S
H1065 C1057 0.960 . S
H1066 C1058 0.930 . S
H1067 C1059 0.929 . S
H1068 C1076 0.929 . S
H1069 C1078 0.930 . S
H1070 C1080 0.930 . S
H1071 C1083 0.929 . S
H1072 C1086 0.930 . S
H1073 C1088 0.960 . S
H1074 C1088 0.960 . S
H1075 C1088 0.960 . S
C1076 H1068 0.929 . S
C1076 C1077 1.377 . S
C1076 C1078 1.384 . S
C1077 C1076 1.377 . S
C1077 C1083 1.390 . S
C1078 H1069 0.930 . S
C1078 C1076 1.384 . S
C1078 C1079 1.372 . S
C1079 C1078 1.372 . S
C1079 C1080 1.400 . S
C1079 C1084 1.490 . S
C1080 H1070 0.930 . S
C1080 C1079 1.400 . S
C1080 C1083 1.386 . S
H1081 C1097 0.930 . S
H1082 C1098 0.931 . S
C1083 H1071 0.929 . S
C1083 C1077 1.390 . S
C1083 C1080 1.386 . S
C1084 C1079 1.490 . S
C1084 C1086 1.395 . S
C1084 C1087 1.403 . S
H1085 C1091 0.930 . S
C1086 H1072 0.930 . S
C1086 C1084 1.395 . S
C1086 C1089 1.403 . S
C1087 C1084 1.403 . S
C1087 C1088 1.524 . S
C1087 C1091 1.400 . S
C1088 H1073 0.960 . S
C1088 H1074 0.960 . S
C1088 H1075 0.960 . S
C1088 C1087 1.524 . S
C1089 C1086 1.403 . S
C1089 C1090 1.392 . S
C1089 C1093 1.495 . S
C1090 C1089 1.392 . S
C1090 C1091 1.385 . S
C1090 C1092 1.478 . S
C1091 H1085 0.930 . S
C1091 C1087 1.400 . S
C1091 C1090 1.385 . S
C1092 C1090 1.478 . S
C1092 C1094 1.381 . S
C1092 C1098 1.383 . S
C1093 C1089 1.495 . S
C1093 H1099 0.959 . S
C1093 H1100 0.961 . S
C1093 H1101 0.960 . S
C1094 C1092 1.381 . S
C1094 C1095 1.394 . S
C1094 H1102 0.930 . S
C1095 C1094 1.394 . S
C1095 C1096 1.383 . S
C1095 H1103 0.929 . S
C1096 C1095 1.383 . S
C1096 C1097 1.377 . S
C1097 H1081 0.930 . S
C1097 C1096 1.377 . S
C1097 C1098 1.379 . S
C1098 H1082 0.931 . S
C1098 C1092 1.383 . S
C1098 C1097 1.379 . S
H1099 C1093 0.959 . S
H1100 C1093 0.961 . S
H1101 C1093 0.960 . S
H1102 C1094 0.930 . S
H1103 C1095 0.929 . S
H1104 C1112 0.929 . S
H1105 C1114 0.930 . S
H1106 C1116 0.930 . S
H1107 C1119 0.929 . S
H1108 C1122 0.930 . S
H1109 C1124 0.960 . S
H1110 C1124 0.960 . S
H1111 C1124 0.960 . S
C1112 H1104 0.929 . S
C1112 C1113 1.377 . S
C1112 C1114 1.384 . S
C1113 C1112 1.377 . S
C1113 C1119 1.390 . S
C1114 H1105 0.930 . S
C1114 C1112 1.384 . S
C1114 C1115 1.372 . S
C1115 C1114 1.372 . S
C1115 C1116 1.400 . S
C1115 C1120 1.490 . S
C1116 H1106 0.930 . S
C1116 C1115 1.400 . S
C1116 C1119 1.386 . S
H1117 C1133 0.930 . S
H1118 C1134 0.931 . S
C1119 H1107 0.929 . S
C1119 C1113 1.390 . S
C1119 C1116 1.386 . S
C1120 C1115 1.490 . S
C1120 C1122 1.395 . S
C1120 C1123 1.403 . S
H1121 C1127 0.930 . S
C1122 H1108 0.930 . S
C1122 C1120 1.395 . S
C1122 C1125 1.403 . S
C1123 C1120 1.403 . S
C1123 C1124 1.524 . S
C1123 C1127 1.400 . S
C1124 H1109 0.960 . S
C1124 H1110 0.960 . S
C1124 H1111 0.960 . S
C1124 C1123 1.524 . S
C1125 C1122 1.403 . S
C1125 C1126 1.392 . S
C1125 C1129 1.495 . S
C1126 C1125 1.392 . S
C1126 C1127 1.385 . S
C1126 C1128 1.478 . S
C1127 H1121 0.930 . S
C1127 C1123 1.400 . S
C1127 C1126 1.385 . S
C1128 C1126 1.478 . S
C1128 C1130 1.381 . S
C1128 C1134 1.383 . S
C1129 C1125 1.495 . S
C1129 H1135 0.959 . S
C1129 H1136 0.961 . S
C1129 H1137 0.960 . S
C1130 C1128 1.381 . S
C1130 C1131 1.394 . S
C1130 H1138 0.930 . S
C1131 C1130 1.394 . S
C1131 C1132 1.383 . S
C1131 H1139 0.929 . S
C1132 C1131 1.383 . S
C1132 C1133 1.377 . S
C1133 H1117 0.930 . S
C1133 C1132 1.377 . S
C1133 C1134 1.379 . S
C1134 H1118 0.931 . S
C1134 C1128 1.383 . S
C1134 C1133 1.379 . S
H1135 C1129 0.959 . S
H1136 C1129 0.961 . S
H1137 C1129 0.960 . S
H1138 C1130 0.930 . S
H1139 C1131 0.929 . S
H1140 C1148 0.929 . S
H1141 C1150 0.930 . S
H1142 C1152 0.930 . S
H1143 C1155 0.929 . S
H1144 C1158 0.930 . S
H1145 C1160 0.960 . S
H1146 C1160 0.960 . S
H1147 C1160 0.960 . S
C1148 H1140 0.929 . S
C1148 C1149 1.377 . S
C1148 C1150 1.384 . S
C1149 C1148 1.377 . S
C1149 C1155 1.390 . S
C1150 H1141 0.930 . S
C1150 C1148 1.384 . S
C1150 C1151 1.372 . S
C1151 C1150 1.372 . S
C1151 C1152 1.400 . S
C1151 C1156 1.490 . S
C1152 H1142 0.930 . S
C1152 C1151 1.400 . S
C1152 C1155 1.386 . S
H1153 C1169 0.930 . S
H1154 C1170 0.931 . S
C1155 H1143 0.929 . S
C1155 C1149 1.390 . S
C1155 C1152 1.386 . S
C1156 C1151 1.490 . S
C1156 C1158 1.395 . S
C1156 C1159 1.403 . S
H1157 C1163 0.930 . S
C1158 H1144 0.930 . S
C1158 C1156 1.395 . S
C1158 C1161 1.403 . S
C1159 C1156 1.403 . S
C1159 C1160 1.524 . S
C1159 C1163 1.400 . S
C1160 H1145 0.960 . S
C1160 H1146 0.960 . S
C1160 H1147 0.960 . S
C1160 C1159 1.524 . S
C1161 C1158 1.403 . S
C1161 C1162 1.392 . S
C1161 C1165 1.495 . S
C1162 C1161 1.392 . S
C1162 C1163 1.385 . S
C1162 C1164 1.478 . S
C1163 H1157 0.930 . S
C1163 C1159 1.400 . S
C1163 C1162 1.385 . S
C1164 C1162 1.478 . S
C1164 C1166 1.381 . S
C1164 C1170 1.383 . S
C1165 C1161 1.495 . S
C1165 H1171 0.959 . S
C1165 H1172 0.961 . S
C1165 H1173 0.960 . S
C1166 C1164 1.381 . S
C1166 C1167 1.394 . S
C1166 H1174 0.930 . S
C1167 C1166 1.394 . S
C1167 C1168 1.383 . S
C1167 H1175 0.929 . S
C1168 C1167 1.383 . S
C1168 C1169 1.377 . S
C1169 H1153 0.930 . S
C1169 C1168 1.377 . S
C1169 C1170 1.379 . S
C1170 H1154 0.931 . S
C1170 C1164 1.383 . S
C1170 C1169 1.379 . S
H1171 C1165 0.959 . S
H1172 C1165 0.961 . S
H1173 C1165 0.960 . S
H1174 C1166 0.930 . S
H1175 C1167 0.929 . S
C321 C6 1.213 . S
C340 C158 1.229 . S
C357 C21 1.528 . S
C376 C207 1.529 . S
C412 C242 1.664 . S
C393 C49 1.637 . S
C429 C68 1.950 . S
C448 C281 2.018 1_655 S
C484 C202 3.227 . S
C465 C2 3.145 . S
C520 C161 0.331 . S
C501 C30 0.502 . S
C556 C291 1.790 . S
C537 C40 1.812 . S
C592 C250 1.353 . S
C573 C63 1.348 . S
C609 C11 1.484 . S
C628 C278 1.617 . S
C664 C210 2.582 . S
C645 C44 2.687 . S
C681 C59 1.901 . S
C700 C171 1.894 . S
C717 C25 1.064 . S
C736 C247 1.032 . S
C772 C167 1.564 . S
C753 C82 1.550 . S
C789 C101 1.196 . S
C808 C198 1.190 . S
C825 C125 2.202 . S
C844 C251 2.323 . S
C861 C144 1.615 . S
C880 C290 1.711 . S
C897 C87 1.906 . S
C916 C211 2.021 1_565 S
C952 C170 1.951 . S
C933 C97 2.002 . S
C988 C282 1.540 . S
C969 C120 1.620 . S
C1024 C241 1.374 . S
C1005 C135 1.406 . S
C1041 C78 2.017 . S
C1060 C287 2.092 . S
C1096 C201 1.779 . S
C1077 C116 1.851 . S
C1132 C162 2.656 . S
C1113 C139 2.670 . S
C1149 C106 0.759 . S
C1168 C238 0.818 . S
