# Generated by pormake.
# Topology pts, (4,4)-cn, num edge types: 1
# Building blocks:
#     Node 0, Type 0, BuildingBlock: MUDLON_clean_linker_0, # of connection points: 4
#     Node 1, Type 0, BuildingBlock: MUDLON_clean_linker_0, # of connection points: 4
#     Node 2, Type 1, BuildingBlock: QUQFOY_clean_sbu_1, # of connection points: 4
#     Node 3, Type 1, BuildingBlock: QUQFOY_clean_sbu_1, # of connection points: 4
#     Edge 4, Type (0, 1), BuildingBlock: ZUJKAS_clean_linker_0, # of connection points: 2
#     Edge 5, Type (0, 1), BuildingBlock: ZUJKAS_clean_linker_0, # of connection points: 2
#     Edge 6, Type (0, 1), BuildingBlock: ZUJKAS_clean_linker_0, # of connection points: 2
#     Edge 7, Type (0, 1), BuildingBlock: ZUJKAS_clean_linker_0, # of connection points: 2
#     Edge 8, Type (0, 1), BuildingBlock: ZUJKAS_clean_linker_0, # of connection points: 2
#     Edge 9, Type (0, 1), BuildingBlock: ZUJKAS_clean_linker_0, # of connection points: 2
#     Edge 10, Type (0, 1), BuildingBlock: ZUJKAS_clean_linker_0, # of connection points: 2
#     Edge 11, Type (0, 1), BuildingBlock: ZUJKAS_clean_linker_0, # of connection points: 2
# Relax obj value: 0.108
# Max RMSD: 0.274
# Mean RMSD: 0.181
data_MOF--net-pts--node1-QUQFOY_clean_sbu_1--node2-MUDLON_clean_linker_0--edge1-ZUJKAS_clean_linker_0
_symmetry_space_group_name_H-M    P1
_symmetry_Int_Tables_number       1
_symmetry_cell_setting            triclinic
loop_
_symmetry_equiv_pos_as_xyz
'x, y, z'
_cell_length_a     39.57471
_cell_length_b     43.092613
_cell_length_c     57.689829
_cell_angle_alpha  89.948607
_cell_angle_beta   90.01613
_cell_angle_gamma 89.879152
loop_
_atom_site_label
_atom_site_type_symbol
_atom_site_fract_x
_atom_site_fract_y
_atom_site_fract_z
_atom_type_partial_charge
H0 H 0.66569 0.08021 0.01767 0.0
N1 N 0.62095 0.03894 0.0031 0.0
H2 H 0.70293 0.07661 0.05158 0.0
H3 H 0.61998 0.99294 0.03665 0.0
H4 H 0.65637 0.98977 0.07053 0.0
H5 H 0.6542 0.98397 0.99597 0.0
H6 H 0.68867 0.97049 0.9623 0.0
H7 H 0.62972 0.07215 0.96487 0.0
H8 H 0.66484 0.05927 0.93132 0.0
H9 H 0.5687 0.0774 0.00543 0.0
H10 H 0.59414 0.98034 0.00115 0.0
H11 H 0.50867 0.06437 0.00523 0.0
H12 H 0.53473 0.9668 0.00287 0.0
H13 H 0.34224 0.03358 0.01827 0.0
H14 H 0.30719 0.04186 0.0525 0.0
H15 H 0.33072 0.94908 0.07612 0.0
H16 H 0.36629 0.94122 0.04187 0.0
H17 H 0.33708 0.93869 0.9857 0.0
H18 H 0.30324 0.94577 0.95064 0.0
H19 H 0.33976 0.03994 0.94473 0.0
H20 H 0.37289 0.03275 0.98021 0.0
H21 H 0.40527 0.03135 0.0272 0.0
H22 H 0.46465 0.04465 0.02669 0.0
H23 H 0.48486 0.96554 0.98262 0.0
N24 N 0.37584 0.98008 0.00673 0.0
H25 H 0.42549 0.95095 0.98488 0.0
C26 C 0.63974 0.03719 0.02454 0.0
C27 C 0.66326 0.06061 0.02931 0.0
C28 C 0.68456 0.05845 0.04855 0.0
C29 C 0.6824 0.03292 0.06361 0.0
C30 C 0.65824 0.00984 0.05928 0.0
C31 C 0.63734 0.01173 0.0398 0.0
C32 C 0.63945 0.0292 0.98287 0.0
C33 C 0.65596 1.0003 0.98178 0.0
C34 C 0.67586 0.99272 0.96258 0.0
C35 C 0.67963 0.01385 0.94415 0.0
C36 C 0.66215 0.04228 0.94504 0.0
C37 C 0.64226 0.0498 0.96422 0.0
C38 C 0.58589 0.02999 0.00365 0.0
C39 C 0.56124 0.05325 0.00483 0.0
C40 C 0.52694 0.04566 0.00491 0.0
C41 C 0.51653 0.01443 0.0042 0.0
C42 C 0.54148 0.99112 0.00304 0.0
C43 C 0.57572 0.99881 0.00239 0.0
C44 C 0.35673 0.98657 0.02747 0.0
C45 C 0.34002 0.01507 0.03084 0.0
C46 C 0.3199 0.01975 0.05042 0.0
C47 C 0.316 0.99607 0.06699 0.0
C48 C 0.33349 0.96793 0.06385 0.0
C49 C 0.35364 0.9633 0.04427 0.0
C50 C 0.35748 0.98502 0.98546 0.0
C51 C 0.33786 0.96075 0.9767 0.0
C52 C 0.31876 0.96483 0.9566 0.0
C53 C 0.31895 0.99339 0.94477 0.0
C54 C 0.33885 0.01775 0.95352 0.0
C55 C 0.35794 0.01363 0.97371 0.0
C56 C 0.41081 0.98959 0.00639 0.0
C57 C 0.42234 0.01652 0.01766 0.0
C58 C 0.45656 0.02443 0.01709 0.0
C59 C 0.47994 0.00617 0.00469 0.0
C60 C 0.46802 0.97978 0.99289 0.0
C61 C 0.43398 0.9715 0.99396 0.0
H62 H 0.9739 0.64814 0.51635 0.0
N63 N 0.03094 0.61465 0.50595 0.0
H64 H 0.96791 0.6857 0.54732 0.0
H65 H 0.07264 0.62279 0.54167 0.0
H66 H 0.06602 0.65913 0.57395 0.0
H67 H 0.07807 0.64912 0.48591 0.0
H68 H 0.07082 0.68557 0.45378 0.0
H69 H 0.97452 0.62003 0.47871 0.0
H70 H 0.96701 0.65626 0.44636 0.0
H71 H 0.97378 0.59024 0.52667 0.0
H72 H 0.05976 0.56753 0.48395 0.0
H73 H 0.95672 0.53628 0.52675 0.0
H74 H 0.04138 0.51362 0.48238 0.0
H75 H 0.90716 0.35696 0.52252 0.0
H76 H 0.91135 0.31972 0.55445 0.0
H77 H 0.01271 0.35144 0.56867 0.0
H78 H 0.00855 0.3881 0.53678 0.0
H79 H 0.01443 0.35831 0.49892 0.0
H80 H 0.02437 0.32002 0.4689 0.0
H81 H 0.93018 0.34603 0.43603 0.0
H82 H 0.91952 0.38317 0.46724 0.0
H83 H 0.91664 0.44152 0.50722 0.0
H84 H 0.93323 0.49604 0.50615 0.0
H85 H 0.03827 0.46812 0.50307 0.0
N86 N 0.95618 0.3919 0.50528 0.0
H87 H 0.02108 0.41405 0.50225 0.0
C88 C 0.02412 0.63294 0.52643 0.0
C89 C 0.99411 0.65022 0.52885 0.0
C90 C 0.99056 0.67159 0.54686 0.0
C91 C 0.01665 0.67588 0.56312 0.0
C92 C 0.04574 0.6571 0.56146 0.0
C93 C 0.04945 0.63601 0.5432 0.0
C94 C 0.02698 0.63194 0.48469 0.0
C95 C 0.05402 0.65012 0.47698 0.0
C96 C 0.04979 0.67088 0.45861 0.0
C97 C 0.01826 0.67394 0.4476 0.0
C98 C 0.99148 0.65471 0.45469 0.0
C99 C 0.99581 0.63381 0.47304 0.0
C100 C 0.01863 0.58307 0.50556 0.0
C101 C 0.98898 0.57379 0.51711 0.0
C102 C 0.97892 0.54268 0.51691 0.0
C103 C 0.99767 0.52018 0.50467 0.0
C104 C 0.02668 0.52985 0.49255 0.0
C105 C 0.03711 0.5608 0.4932 0.0
C106 C 0.95735 0.37538 0.52707 0.0
C107 C 0.92991 0.35643 0.53296 0.0
C108 C 0.93238 0.33516 0.55119 0.0
C109 C 0.96255 0.33237 0.56389 0.0
C110 C 0.98934 0.35268 0.55893 0.0
C111 C 0.98681 0.37398 0.54073 0.0
C112 C 0.9658 0.37334 0.48554 0.0
C113 C 0.99603 0.3561 0.48518 0.0
C114 C 0.00183 0.33421 0.46777 0.0
C115 C 0.97786 0.32944 0.4501 0.0
C116 C 0.94879 0.34837 0.44967 0.0
C117 C 0.9428 0.36991 0.4673 0.0
C118 C 0.96746 0.4237 0.50517 0.0
C119 C 0.94321 0.44734 0.50627 0.0
C120 C 0.95286 0.47853 0.50585 0.0
C121 C 0.98723 0.48684 0.50469 0.0
C122 C 0.01154 0.46291 0.5036 0.0
C123 C 0.00177 0.43174 0.50351 0.0
O124 O 0.95358 0.97664 0.24142 0.0
Cd125 Cd 0.99705 0.9693 0.2604 0.0
Cd126 Cd 0.9963 0.03437 0.2627 0.0
O127 O 0.95084 0.02743 0.24596 0.0
O128 O 0.99753 0.92379 0.26623 0.0
O129 O 0.99508 0.95845 0.29439 0.0
C130 C 0.99612 0.9297 0.28809 0.0
C131 C 0.99666 0.073 0.29113 0.0
C132 C 0.93857 1.00234 0.23809 0.0
C133 C 0.0553 0.00358 0.23868 0.0
O134 O 0.04048 0.02879 0.244 0.0
O135 O 0.04252 0.97762 0.24429 0.0
O136 O 0.99484 0.07963 0.2694 0.0
O137 O 0.99845 0.04408 0.29692 0.0
O138 O 0.9542 0.02757 0.76815 0.0
Cd139 Cd 0.99845 0.03741 0.75087 0.0
Cd140 Cd 0.00226 0.97206 0.75042 0.0
O141 O 0.95827 0.97651 0.7694 0.0
O142 O 0.99506 0.08277 0.74482 0.0
O143 O 0.998 0.04798 0.71678 0.0
C144 C 0.99563 0.07671 0.72297 0.0
C145 C 0.00322 0.93278 0.72253 0.0
C146 C 0.94263 1.0014 0.77443 0.0
C147 C 0.05933 0.00771 0.77299 0.0
O148 O 0.04754 0.9817 0.76655 0.0
O149 O 0.04337 0.03268 0.76872 0.0
O150 O 0.00594 0.92674 0.74431 0.0
O151 O -0.00017 0.96145 0.71638 0.0
H152 H 0.3251 0.9781 0.11221 0.0
H153 H 0.2839 0.98083 0.14388 0.0
H154 H 0.21284 0.02619 0.09836 0.0
H155 H 0.25332 0.02279 0.06651 0.0
H156 H 0.2484 0.03295 0.16403 0.0
H157 H 0.16286 0.9479 0.12193 0.0
H158 H 0.20618 0.95319 0.113 0.0
H159 H 0.17423 0.98034 0.104 0.0
C160 C 0.30067 0.98861 0.10895 0.0
C161 C 0.2924 1.00002 0.08679 0.0
C162 C 0.2773 0.99035 0.12708 0.0
C163 C 0.24525 0.00334 0.12332 0.0
C164 C 0.23734 0.01573 0.1015 0.0
H165 H 0.08624 0.0541 0.21913 0.0
H166 H 0.13484 0.05416 0.19297 0.0
C167 C 0.26064 0.01403 0.08338 0.0
C168 C 0.21948 1.00283 0.14188 0.0
H169 H 0.14184 0.97365 0.15522 0.0
C170 C 0.22513 0.01992 0.16221 0.0
C171 C 0.18945 0.98542 0.13953 0.0
C172 C 0.18282 0.96542 0.11855 0.0
C173 C 0.20103 0.02062 0.18009 0.0
C174 C 0.17046 0.00405 0.17736 0.0
C175 C 0.16522 0.98648 0.15721 0.0
C176 C 0.14328 0.00459 0.195 0.0
C177 C 0.20863 0.03875 0.20182 0.0
C178 C 0.1318 0.9767 0.20473 0.0
C179 C 0.10387 0.97652 0.21949 0.0
C180 C 0.08674 0.00427 0.22476 0.0
C181 C 0.0989 0.03233 0.21551 0.0
C182 C 0.12683 0.03245 0.20066 0.0
H183 H 0.23616 0.04295 0.20386 0.0
H184 H 0.19579 0.06163 0.20086 0.0
H185 H 0.19922 0.02642 0.21744 0.0
H186 H 0.14409 0.95493 0.20051 0.0
H187 H 0.09527 0.95451 0.22635 0.0
H188 H 0.01748 0.29463 0.56917 0.0
H189 H 0.02387 0.25037 0.5953 0.0
H190 H 0.92426 0.26737 0.62288 0.0
H191 H 0.91761 0.31173 0.59666 0.0
H192 H 0.02261 0.2469 0.64241 0.0
H193 H 0.91928 0.17621 0.60486 0.0
H194 H 0.93573 0.21034 0.59067 0.0
H195 H 0.9059 0.21409 0.61403 0.0
C196 C 0.99706 0.28921 0.58099 0.0
C197 C 0.96701 0.30671 0.58085 0.0
C198 C 0.00068 0.26376 0.5958 0.0
C199 C 0.97432 0.25522 0.61073 0.0
C200 C 0.9446 0.27308 0.61107 0.0
H201 H 0.98754 0.13839 0.73164 0.0
H202 H 0.98354 0.18069 0.7037 0.0
C203 C 0.94088 0.29848 0.59617 0.0
C204 C 0.97827 0.22788 0.62614 0.0
H205 H 0.94314 0.15805 0.64029 0.0
C206 C 0.00532 0.22742 0.64188 0.0
C207 C 0.95608 0.2022 0.62512 0.0
C208 C 0.92781 0.20048 0.60761 0.0
C209 C 0.01028 0.20233 0.65704 0.0
C210 C 0.98716 0.17733 0.65676 0.0
C211 C 0.96063 0.17739 0.64062 0.0
C212 C 0.98954 0.15136 0.67356 0.0
C213 C 0.04045 0.20272 0.67305 0.0
C214 C 0.99327 0.12062 0.66587 0.0
C215 C 0.9953 0.09621 0.68186 0.0
C216 C 0.99347 0.10217 0.70578 0.0
C217 C 0.98933 0.13297 0.71335 0.0
C218 C 0.98723 0.15726 0.6974 0.0
H219 H 0.06063 0.21829 0.66646 0.0
H220 H 0.03249 0.21145 0.69029 0.0
H221 H 0.05116 0.17908 0.67531 0.0
H222 H 0.99486 0.11557 0.64751 0.0
H223 H 0.99837 0.07273 0.67548 0.0
H224 H 0.75082 0.03715 0.06189 0.0
H225 H 0.79101 0.03036 0.0937 0.0
H226 H 0.7083 0.01559 0.14119 0.0
H227 H 0.66806 0.02113 0.1091 0.0
H228 H 0.80048 0.06252 0.13133 0.0
H229 H 0.76625 0.94266 0.15694 0.0
H230 H 0.75053 0.96052 0.13079 0.0
H231 H 0.73117 0.969 0.15831 0.0
C232 C 0.74128 0.03242 0.07913 0.0
C233 C 0.70643 0.02959 0.0831 0.0
C234 C 0.76421 0.02848 0.09728 0.0
C235 C 0.75275 0.02194 0.1198 0.0
C236 C 0.71783 0.0197 0.12387 0.0
H237 H 0.89038 0.04778 0.23685 0.0
H238 H 0.84269 0.05207 0.21006 0.0
C239 C 0.69487 0.02311 0.1056 0.0
C240 C 0.77753 0.01842 0.13897 0.0
H241 H 0.80424 0.96933 0.18178 0.0
C242 C 0.80132 0.0421 0.14233 0.0
C243 C 0.77889 0.9916 0.15315 0.0
C244 C 0.75558 0.96436 0.1495 0.0
C245 C 0.82659 0.03968 0.15928 0.0
C246 C 0.82729 0.01334 0.17398 0.0
C247 C 0.8034 0.98969 0.17072 0.0
C248 C 0.85372 0.0092 0.19199 0.0
C249 C 0.853 0.06487 0.16059 0.0
C250 C 0.87449 0.98275 0.19172 0.0
C251 C 0.90123 0.97985 0.20741 0.0
C252 C 0.90788 0.00354 0.2235 0.0
C253 C 0.88616 0.02937 0.22442 0.0
C254 C 0.85906 0.03196 0.20901 0.0
H255 H 0.8546 0.07822 0.14414 0.0
H256 H 0.84618 0.08138 0.17457 0.0
H257 H 0.87836 0.05507 0.16445 0.0
H258 H 0.87073 0.96478 0.17886 0.0
H259 H 0.9175 0.95967 0.20629 0.0
H260 H 0.96029 0.6968 0.58642 0.0
H261 H 0.95588 0.74171 0.61195 0.0
H262 H 0.06345 0.75597 0.60672 0.0
H263 H 0.06776 0.71272 0.57977 0.0
H264 H 0.98032 0.75448 0.65264 0.0
H265 H 0.03099 0.84094 0.59102 0.0
H266 H 0.02046 0.80195 0.58234 0.0
H267 H 0.06055 0.81004 0.59587 0.0
C268 C 0.98299 0.70973 0.59037 0.0
C269 C 0.01433 0.7012 0.58069 0.0
C270 C 0.98045 0.7353 0.60516 0.0
C271 C 0.00919 0.75279 0.61079 0.0
C272 C 0.04072 0.7435 0.60205 0.0
H273 H 0.02729 0.8743 0.72887 0.0
H274 H 0.02753 0.83151 0.70127 0.0
C275 C 0.04322 0.71826 0.58697 0.0
C276 C 0.00626 0.78036 0.62613 0.0
H277 H 0.02772 0.85685 0.63073 0.0
C278 C 0.99044 0.77692 0.64775 0.0
C279 C 0.0187 0.80991 0.61957 0.0
C280 C 0.03327 0.81604 0.59583 0.0
C281 C 0.98763 0.80187 0.66325 0.0
C282 C 0.00218 0.83083 0.65735 0.0
C283 C 0.01705 0.83455 0.63544 0.0
C284 C 0.00285 0.85732 0.67382 0.0
C285 C 0.96858 0.79694 0.68562 0.0
C286 C 0.99048 0.88665 0.66724 0.0
C287 C 0.99111 0.91149 0.68288 0.0
C288 C 0.00387 0.9073 0.7054 0.0
C289 C 0.01682 0.87812 0.71175 0.0
C290 C 0.01671 0.85353 0.69604 0.0
H291 H 0.94965 0.77808 0.68389 0.0
H292 H 0.98662 0.78998 0.69941 0.0
H293 H 0.95533 0.81841 0.6912 0.0
H294 H 0.97996 0.89022 0.65011 0.0
H295 H 0.98101 0.93374 0.6775 0.0
H296 H 0.30811 0.9523 0.90939 0.0
H297 H 0.26838 0.95745 0.87715 0.0
H298 H 0.24184 0.04942 0.90027 0.0
H299 H 0.28099 0.04428 0.9329 0.0
H300 H 0.19707 0.96948 0.8848 0.0
H301 H 0.25789 0.05836 0.82874 0.0
H302 H 0.28133 0.03562 0.84963 0.0
H303 H 0.25523 0.06723 0.85916 0.0
C304 C 0.29392 0.97368 0.9076 0.0
C305 C 0.29755 0.9978 0.92384 0.0
C306 C 0.27144 0.97665 0.88908 0.0
C307 C 0.25246 0.00389 0.88626 0.0
C308 C 0.25674 0.02842 0.90194 0.0
H309 H 0.08553 0.05678 0.79718 0.0
H310 H 0.13384 0.05611 0.82367 0.0
C311 C 0.27914 0.02544 0.92056 0.0
C312 C 0.22597 0.00542 0.86821 0.0
H313 H 0.20234 0.04294 0.81862 0.0
C314 C 0.19827 0.98539 0.87024 0.0
C315 C 0.22757 0.02647 0.84945 0.0
C316 C 0.25717 0.04806 0.84639 0.0
C317 C 0.17178 0.98606 0.85413 0.0
C318 C 0.17352 0.00678 0.83511 0.0
C319 C 0.2012 0.02696 0.83313 0.0
C320 C 0.14648 0.00798 0.81737 0.0
C321 C 0.14173 0.96514 0.85802 0.0
C322 C 0.13832 0.98145 0.80447 0.0
C323 C 0.11059 0.98164 0.7895 0.0
C324 C 0.09077 0.00855 0.78689 0.0
C325 C 0.10018 0.03563 0.79885 0.0
C326 C 0.12779 0.03532 0.81399 0.0
H327 H 0.14007 0.95726 0.87632 0.0
H328 H 0.11777 0.97709 0.8534 0.0
H329 H 0.14426 0.94425 0.84693 0.0
H330 H 0.15295 0.96033 0.8064 0.0
H331 H 0.10432 0.9605 0.78033 0.0
H332 H 0.92856 0.29229 0.43149 0.0
H333 H 0.93548 0.24841 0.40543 0.0
H334 H 0.04346 0.2617 0.40578 0.0
H335 H 0.03663 0.30724 0.43051 0.0
H336 H 0.02328 0.24885 0.36391 0.0
H337 H 0.96527 0.16325 0.42297 0.0
H338 H 0.93654 0.19438 0.41684 0.0
H339 H 0.97536 0.20216 0.4321 0.0
C340 C 0.9538 0.28639 0.42573 0.0
C341 C 0.98205 0.30344 0.43327 0.0
C342 C 0.95775 0.26078 0.41116 0.0
C343 C 0.99006 0.2511 0.40421 0.0
C344 C 0.01828 0.26844 0.41119 0.0
H345 H 0.01652 0.06998 0.33665 0.0
H346 H 0.01832 0.11274 0.3647 0.0
C347 C 0.01433 0.29438 0.4255 0.0
C348 C 0.99426 0.22341 0.38913 0.0
H349 H 0.97093 0.14757 0.38318 0.0
C350 C 0.01213 0.22662 0.36826 0.0
C351 C 0.9805 0.19411 0.39502 0.0
C352 C 0.9637 0.18816 0.41808 0.0
C353 C 0.01545 0.20177 0.35271 0.0
C354 C -0.0006 0.1732 0.35777 0.0
C355 C 0.98273 0.16959 0.37908 0.0
C356 C 0.99861 0.1472 0.34088 0.0
C357 C 0.03644 0.20642 0.33115 0.0
C358 C 0.98629 0.15215 0.31837 0.0
C359 C 0.98573 0.12798 0.30232 0.0
C360 C 0.99669 0.09809 0.30858 0.0
C361 C 0.00798 0.0928 0.33134 0.0
C362 C 0.00904 0.1172 0.34735 0.0
H363 H 0.05606 0.22447 0.33385 0.0
H364 H 0.0491 0.18458 0.32574 0.0
H365 H 0.01985 0.21443 0.31683 0.0
H366 H 0.97692 0.17475 0.31319 0.0
H367 H 0.97641 0.1327 0.28501 0.0
H368 H 0.74243 0.98754 0.94682 0.0
H369 H 0.78379 0.98154 0.91572 0.0
H370 H 0.71295 0.02054 0.86689 0.0
H371 H 0.67088 0.02574 0.8978 0.0
H372 H 0.75081 0.96847 0.84968 0.0
H373 H 0.83195 0.05899 0.88947 0.0
H374 H 0.82127 0.02748 0.9085 0.0
H375 H 0.78861 0.05296 0.89807 0.0
C376 C 0.73531 0.99422 0.92939 0.0
C377 C 0.70341 0.00734 0.92483 0.0
C378 C 0.75912 0.99106 0.91169 0.0
C379 C 0.75157 1.0011 0.88914 0.0
C380 C 0.71928 0.01286 0.88425 0.0
H381 H 0.90057 0.04943 0.78571 0.0
H382 H 0.85188 0.04828 0.81164 0.0
C383 C 0.69541 0.01602 0.90195 0.0
C384 C 0.77799 1.00092 0.87101 0.0
H385 H 0.85464 0.03198 0.85735 0.0
C386 C 0.77352 0.98236 0.85127 0.0
C387 C 0.80725 0.01948 0.87303 0.0
C388 C 0.81255 0.0411 0.89329 0.0
C389 C 0.79799 0.98145 0.83363 0.0
C390 C 0.82775 0.99929 0.83603 0.0
C391 C 0.83188 0.01818 0.85562 0.0
C392 C 0.85509 0.99899 0.8185 0.0
C393 C 0.79156 0.96182 0.81246 0.0
C394 C 0.87288 0.97157 0.8136 0.0
C395 C 0.90074 0.97211 0.79869 0.0
C396 C 0.91149 1.00016 0.78863 0.0
C397 C 0.89309 0.02744 0.79321 0.0
C398 C 0.86522 0.02684 0.80802 0.0
H399 H 0.7643 0.95635 0.81042 0.0
H400 H 0.80055 0.97366 0.79651 0.0
H401 H 0.80552 0.93957 0.81418 0.0
H402 H 0.86592 0.94995 0.82187 0.0
H403 H 0.91441 0.95071 0.79561 0.0
H404 H 0.96436 0.71336 0.44338 0.0
H405 H 0.95785 0.75673 0.41636 0.0
H406 H 0.0539 0.73424 0.38527 0.0
H407 H 0.06058 0.69074 0.4122 0.0
H408 H 0.0475 0.79652 0.3969 0.0
H409 H 0.93589 0.75607 0.34708 0.0
H410 H 0.93014 0.75645 0.37796 0.0
H411 H 0.96053 0.7305 0.36527 0.0
C412 C 0.98377 0.71723 0.43047 0.0
C413 C 0.01295 0.69853 0.42988 0.0
C414 C 0.98003 0.74207 0.41507 0.0
C415 C 0.00524 0.74853 0.39868 0.0
C416 C 0.03414 0.72964 0.3978 0.0
H417 H -0.00016 0.86772 0.27921 0.0
H418 H 0.00128 0.82511 0.30703 0.0
C419 C 0.03795 0.70485 0.41322 0.0
C420 C 0.0023 0.7758 0.38312 0.0
H421 H 0.95421 0.80756 0.34003 0.0
C422 C 0.02711 0.79897 0.38445 0.0
C423 C 0.97578 0.7788 0.36683 0.0
C424 C 0.9492 0.75404 0.36398 0.0
C425 C 0.02617 0.82508 0.36989 0.0
C426 C -0.00062 0.82832 0.35384 0.0
C427 C 0.97454 0.80516 0.35252 0.0
C428 C 0.99776 0.85459 0.33726 0.0
C429 C 0.05439 0.8485 0.37137 0.0
C430 C 0.99491 0.88538 0.34503 0.0
C431 C 0.99422 0.90994 0.32911 0.0
C432 C 0.99614 0.90404 0.30517 0.0
C433 C 0.9984 0.87312 0.29751 0.0
C434 C -0.00085 0.84869 0.31339 0.0
H435 H 0.07673 0.8391 0.38072 0.0
H436 H 0.06244 0.85602 0.35381 0.0
H437 H 0.04532 0.86926 0.38091 0.0
H438 H 0.99318 0.8904 0.36338 0.0
H439 H 0.99225 0.93347 0.33554 0.0
loop_
_geom_bond_atom_site_label_1
_geom_bond_atom_site_label_2
_geom_bond_distance
_geom_bond_site_symmetry_2
_ccdc_geom_bond_type
H0 C27 0.929 . S
N1 C26 1.433 . S
N1 C32 1.435 1_554 S
N1 C38 1.423 . S
H2 C28 0.930 . S
H3 C31 0.931 . S
H4 C30 0.929 . S
H5 C33 0.901 1_554 S
H6 C34 0.932 . S
H7 C37 0.929 . S
H8 C36 0.931 . S
H9 C39 0.929 . S
H10 C43 0.932 1_565 S
H11 C40 0.931 . S
H12 C42 0.929 1_565 S
H13 C45 0.929 . S
H14 C46 0.930 . S
H15 C48 0.929 . S
H16 C49 0.931 . S
H17 C51 0.901 1_554 S
H18 C52 0.932 . S
H19 C54 0.931 . S
H20 C55 0.929 . S
H21 C57 0.929 . S
H22 C58 0.931 . S
H23 C60 0.929 1_565 S
N24 C44 1.433 . S
N24 C50 1.435 1_554 S
N24 C56 1.423 . S
H25 C61 0.932 1_565 S
C26 N1 1.433 . S
C26 C27 1.363 . S
C26 C31 1.370 1_545 S
C27 H0 0.929 . S
C27 C26 1.363 . S
C27 C28 1.385 . S
C28 H2 0.930 . S
C28 C27 1.385 . S
C28 C29 1.357 . S
C29 C28 1.357 . S
C29 C30 1.406 1_545 S
C30 H4 0.929 . S
C30 C29 1.406 1_565 S
C30 C31 1.391 . S
C31 H3 0.931 . S
C31 C26 1.370 1_565 S
C31 C30 1.391 . S
C32 N1 1.435 1_556 S
C32 C33 1.358 1_545 S
C32 C37 1.371 . S
C33 H5 0.901 1_556 S
C33 C32 1.358 1_565 S
C33 C34 1.405 . S
C34 H6 0.932 . S
C34 C33 1.405 . S
C34 C35 1.383 1_565 S
C35 C34 1.383 1_545 S
C35 C36 1.393 . S
C36 H8 0.931 . S
C36 C35 1.393 . S
C36 C37 1.382 . S
C37 H7 0.929 . S
C37 C32 1.371 . S
C37 C36 1.382 . S
C38 N1 1.423 . S
C38 C39 1.362 . S
C38 C43 1.388 1_554 S
C39 H9 0.929 . S
C39 C38 1.362 . S
C39 C40 1.376 . S
C40 H11 0.931 . S
C40 C39 1.376 . S
C40 C41 1.409 . S
C41 C40 1.409 . S
C41 C42 1.335 1_554 S
C41 C59 1.472 . S
C42 H12 0.929 1_545 S
C42 C41 1.335 1_556 S
C42 C43 1.443 . S
C43 H10 0.932 1_545 S
C43 C38 1.388 1_556 S
C43 C42 1.443 . S
C44 N24 1.433 . S
C44 C45 1.363 . S
C44 C49 1.370 1_545 S
C45 H13 0.929 . S
C45 C44 1.363 . S
C45 C46 1.385 . S
C46 H14 0.930 . S
C46 C45 1.385 . S
C46 C47 1.357 . S
C47 C46 1.357 . S
C47 C48 1.406 1_545 S
C48 H15 0.929 . S
C48 C47 1.406 1_565 S
C48 C49 1.391 . S
C49 H16 0.931 . S
C49 C44 1.370 1_565 S
C49 C48 1.391 . S
C50 N24 1.435 1_556 S
C50 C51 1.358 1_545 S
C50 C55 1.371 . S
C51 H17 0.901 1_556 S
C51 C50 1.358 1_565 S
C51 C52 1.405 . S
C52 H18 0.932 . S
C52 C51 1.405 . S
C52 C53 1.383 1_565 S
C53 C52 1.383 1_545 S
C53 C54 1.393 . S
C54 H19 0.931 . S
C54 C53 1.393 . S
C54 C55 1.382 . S
C55 H20 0.929 . S
C55 C50 1.371 . S
C55 C54 1.382 . S
C56 N24 1.423 . S
C56 C57 1.362 . S
C56 C61 1.388 1_554 S
C57 H21 0.929 . S
C57 C56 1.362 . S
C57 C58 1.376 . S
C58 H22 0.931 . S
C58 C57 1.376 . S
C58 C59 1.409 . S
C59 C41 1.472 . S
C59 C58 1.409 . S
C59 C60 1.335 1_554 S
C60 H23 0.929 1_545 S
C60 C59 1.335 1_556 S
C60 C61 1.443 . S
C61 H25 0.932 1_545 S
C61 C56 1.388 1_556 S
C61 C60 1.443 . S
H62 C89 0.929 . S
N63 C88 1.433 . S
N63 C94 1.435 . S
N63 C100 1.423 . S
H64 C90 0.930 . S
H65 C93 0.931 . S
H66 C92 0.929 . S
H67 C95 0.930 . S
H68 C96 0.932 . S
H69 C99 0.929 . S
H70 C98 0.931 . S
H71 C101 0.929 . S
H72 C105 0.932 1_455 S
H73 C102 0.931 . S
H74 C104 0.929 1_455 S
H75 C107 0.929 . S
H76 C108 0.930 . S
H77 C110 0.929 . S
H78 C111 0.931 . S
H79 C113 0.930 . S
H80 C114 0.932 . S
H81 C116 0.931 . S
H82 C117 0.929 . S
H83 C119 0.929 . S
H84 C120 0.931 . S
H85 C122 0.929 1_455 S
N86 C106 1.433 . S
N86 C112 1.435 . S
N86 C118 1.423 . S
H87 C123 0.932 1_455 S
C88 N63 1.433 . S
C88 C89 1.363 . S
C88 C93 1.370 1_655 S
C89 H62 0.929 . S
C89 C88 1.363 . S
C89 C90 1.385 . S
C90 H64 0.930 . S
C90 C89 1.385 . S
C90 C91 1.357 . S
C91 C90 1.357 . S
C91 C92 1.406 1_655 S
C92 H66 0.929 . S
C92 C91 1.406 1_455 S
C92 C93 1.391 . S
C93 H65 0.931 . S
C93 C88 1.370 1_455 S
C93 C92 1.391 . S
C94 N63 1.435 . S
C94 C95 1.358 1_655 S
C94 C99 1.371 . S
C95 H67 0.930 . S
C95 C94 1.358 1_455 S
C95 C96 1.405 . S
C96 H68 0.932 . S
C96 C95 1.405 . S
C96 C97 1.383 1_455 S
C97 C96 1.383 1_655 S
C97 C98 1.393 . S
C98 H70 0.931 . S
C98 C97 1.393 . S
C98 C99 1.382 . S
C99 H69 0.929 . S
C99 C94 1.371 . S
C99 C98 1.382 . S
C100 N63 1.423 . S
C100 C101 1.362 . S
C100 C105 1.388 . S
C101 H71 0.929 . S
C101 C100 1.362 . S
C101 C102 1.376 . S
C102 H73 0.931 . S
C102 C101 1.376 . S
C102 C103 1.396 . S
C103 C102 1.396 . S
C103 C104 1.348 . S
C103 C121 1.472 . S
C104 H74 0.929 1_655 S
C104 C103 1.348 . S
C104 C105 1.443 . S
C105 H72 0.932 1_655 S
C105 C100 1.388 . S
C105 C104 1.443 . S
C106 N86 1.433 . S
C106 C107 1.363 . S
C106 C111 1.370 1_655 S
C107 H75 0.929 . S
C107 C106 1.363 . S
C107 C108 1.385 . S
C108 H76 0.930 . S
C108 C107 1.385 . S
C108 C109 1.357 . S
C109 C108 1.357 . S
C109 C110 1.406 1_655 S
C110 H77 0.929 . S
C110 C109 1.406 1_455 S
C110 C111 1.391 . S
C111 H78 0.931 . S
C111 C106 1.370 1_455 S
C111 C110 1.391 . S
C112 N86 1.435 . S
C112 C113 1.358 1_655 S
C112 C117 1.371 . S
C113 H79 0.930 . S
C113 C112 1.358 1_455 S
C113 C114 1.405 . S
C114 H80 0.932 . S
C114 C113 1.405 . S
C114 C115 1.383 1_455 S
C115 C114 1.383 1_655 S
C115 C116 1.393 . S
C116 H81 0.931 . S
C116 C115 1.393 . S
C116 C117 1.382 . S
C117 H82 0.929 . S
C117 C112 1.371 . S
C117 C116 1.382 . S
C118 N86 1.423 . S
C118 C119 1.362 . S
C118 C123 1.388 . S
C119 H83 0.929 . S
C119 C118 1.362 . S
C119 C120 1.376 . S
C120 H84 0.931 . S
C120 C119 1.376 . S
C120 C121 1.396 . S
C121 C103 1.472 . S
C121 C120 1.396 . S
C121 C122 1.348 . S
C122 H85 0.929 1_655 S
C122 C121 1.348 . S
C122 C123 1.443 . S
C123 H87 0.932 1_655 S
C123 C118 1.388 . S
C123 C122 1.443 . S
O124 Cd125 2.223 1_655 S
O124 C132 1.315 . S
Cd125 O124 2.223 1_455 S
Cd125 O128 2.297 1_455 S
Cd125 O129 2.439 1_455 S
Cd125 O135 2.240 1_565 S
Cd126 O127 2.240 1_545 S
Cd126 O134 2.223 1_655 S
Cd126 O136 2.297 1_655 S
Cd126 O137 2.439 1_655 S
O127 Cd126 2.240 1_565 S
O127 C132 1.279 . S
O128 Cd125 2.297 1_655 S
O128 C130 1.247 . S
O129 Cd125 2.439 1_655 S
O129 C130 1.208 . S
C130 O128 1.247 . S
C130 O129 1.208 . S
C131 O136 1.247 . S
C131 O137 1.208 . S
C132 O124 1.315 . S
C132 O127 1.279 . S
C133 O134 1.315 . S
C133 O135 1.279 . S
O134 Cd126 2.223 1_455 S
O134 C133 1.315 . S
O135 Cd125 2.240 1_545 S
O135 C133 1.279 . S
O136 Cd126 2.297 1_455 S
O136 C131 1.247 . S
O137 Cd126 2.439 1_455 S
O137 C131 1.208 . S
O138 Cd139 2.223 1_655 S
O138 C146 1.315 . S
Cd139 O138 2.223 1_455 S
Cd139 O142 2.297 1_455 S
Cd139 O143 2.439 1_455 S
Cd139 O149 2.240 1_545 S
Cd140 O141 2.240 1_565 S
Cd140 O148 2.223 1_655 S
Cd140 O150 2.297 1_655 S
Cd140 O151 2.439 1_655 S
O141 Cd140 2.240 1_545 S
O141 C146 1.279 . S
O142 Cd139 2.297 1_655 S
O142 C144 1.247 . S
O143 Cd139 2.439 1_655 S
O143 C144 1.208 . S
C144 O142 1.247 . S
C144 O143 1.208 . S
C145 O150 1.247 . S
C145 O151 1.208 . S
C146 O138 1.315 . S
C146 O141 1.279 . S
C147 O148 1.315 . S
C147 O149 1.279 . S
O148 Cd140 2.223 1_455 S
O148 C147 1.315 . S
O149 Cd139 2.240 1_565 S
O149 C147 1.279 . S
O150 Cd140 2.297 1_455 S
O150 C145 1.247 . S
O151 Cd140 2.439 1_455 S
O151 C145 1.208 . S
H152 C160 0.929 . S
H153 C162 0.930 . S
H154 C164 0.930 . S
H155 C167 0.929 . S
H156 C170 0.930 . S
H157 C172 0.960 . S
H158 C172 0.960 . S
H159 C172 0.960 . S
C160 H152 0.929 . S
C160 C161 1.377 1_565 S
C160 C162 1.384 . S
C161 C160 1.377 1_545 S
C161 C167 1.390 . S
C162 H153 0.930 . S
C162 C160 1.384 . S
C162 C163 1.372 1_565 S
C163 C162 1.372 1_545 S
C163 C164 1.400 . S
C163 C168 1.490 . S
C164 H154 0.930 . S
C164 C163 1.400 . S
C164 C167 1.386 . S
H165 C181 0.930 . S
H166 C182 0.931 . S
C167 H155 0.929 . S
C167 C161 1.390 . S
C167 C164 1.386 . S
C168 C163 1.490 . S
C168 C170 1.395 . S
C168 C171 1.403 1_545 S
H169 C175 0.930 . S
C170 H156 0.930 . S
C170 C168 1.395 . S
C170 C173 1.403 . S
C171 C168 1.403 1_565 S
C171 C172 1.524 . S
C171 C175 1.400 . S
C172 H157 0.960 . S
C172 H158 0.960 . S
C172 H159 0.960 . S
C172 C171 1.524 . S
C173 C170 1.403 . S
C173 C174 1.392 . S
C173 C177 1.495 . S
C174 C173 1.392 . S
C174 C175 1.385 1_545 S
C174 C176 1.478 . S
C175 H169 0.930 . S
C175 C171 1.400 . S
C175 C174 1.385 1_565 S
C176 C174 1.478 . S
C176 C178 1.381 1_545 S
C176 C182 1.383 . S
C177 C173 1.495 . S
C177 H183 0.959 . S
C177 H184 0.961 . S
C177 H185 0.960 . S
C178 C176 1.381 1_565 S
C178 C179 1.395 . S
C178 H186 0.930 . S
C179 C178 1.395 . S
C179 C180 1.375 1_565 S
C179 H187 0.937 . S
C180 C179 1.375 1_545 S
C180 C181 1.377 . S
C181 H165 0.930 . S
C181 C180 1.377 . S
C181 C182 1.379 . S
C182 H166 0.931 . S
C182 C176 1.383 . S
C182 C181 1.379 . S
H183 C177 0.959 . S
H184 C177 0.961 . S
H185 C177 0.960 . S
H186 C178 0.930 . S
H187 C179 0.937 . S
H188 C196 0.929 . S
H189 C198 0.930 . S
H190 C200 0.930 . S
H191 C203 0.929 . S
H192 C206 0.930 . S
H193 C208 0.960 . S
H194 C208 0.960 . S
H195 C208 0.960 . S
C196 H188 0.929 . S
C196 C197 1.377 1_455 S
C196 C198 1.384 . S
C197 C196 1.377 1_655 S
C197 C203 1.390 . S
C198 H189 0.930 . S
C198 C196 1.384 . S
C198 C199 1.372 1_455 S
C199 C198 1.372 1_655 S
C199 C200 1.400 . S
C199 C204 1.490 . S
C200 H190 0.930 . S
C200 C199 1.400 . S
C200 C203 1.386 . S
H201 C217 0.930 . S
H202 C218 0.931 . S
C203 H191 0.929 . S
C203 C197 1.390 . S
C203 C200 1.386 . S
C204 C199 1.490 . S
C204 C206 1.395 1_655 S
C204 C207 1.403 . S
H205 C211 0.930 . S
C206 H192 0.930 . S
C206 C204 1.395 1_455 S
C206 C209 1.403 . S
C207 C204 1.403 . S
C207 C208 1.524 . S
C207 C211 1.400 . S
C208 H193 0.960 . S
C208 H194 0.960 . S
C208 H195 0.960 . S
C208 C207 1.524 . S
C209 C206 1.403 . S
C209 C210 1.392 1_455 S
C209 C213 1.495 . S
C210 C209 1.392 1_655 S
C210 C211 1.385 . S
C210 C212 1.478 . S
C211 H205 0.930 . S
C211 C207 1.400 . S
C211 C210 1.385 . S
C212 C210 1.478 . S
C212 C214 1.381 1_655 S
C212 C218 1.383 . S
C213 C209 1.495 . S
C213 H219 0.959 . S
C213 H220 0.961 . S
C213 H221 0.960 . S
C214 C212 1.381 1_455 S
C214 C215 1.394 . S
C214 H222 0.930 . S
C215 C214 1.394 . S
C215 C216 1.383 1_455 S
C215 H223 0.929 . S
C216 C215 1.383 1_655 S
C216 C217 1.377 . S
C217 H201 0.930 . S
C217 C216 1.377 . S
C217 C218 1.379 . S
C218 H202 0.931 . S
C218 C212 1.383 . S
C218 C217 1.379 . S
H219 C213 0.959 . S
H220 C213 0.961 . S
H221 C213 0.960 . S
H222 C214 0.930 . S
H223 C215 0.929 . S
H224 C232 0.929 . S
H225 C234 0.930 . S
H226 C236 0.934 . S
H227 C239 0.929 . S
H228 C242 0.930 . S
H229 C244 0.960 . S
H230 C244 0.960 . S
H231 C244 0.960 . S
C232 H224 0.929 . S
C232 C233 1.377 . S
C232 C234 1.384 . S
C233 C232 1.377 . S
C233 C239 1.390 1_565 S
C234 H225 0.930 . S
C234 C232 1.384 . S
C234 C235 1.372 . S
C235 C234 1.372 . S
C235 C236 1.394 1_565 S
C235 C240 1.490 . S
C236 H226 0.934 . S
C236 C235 1.394 1_545 S
C236 C239 1.388 . S
H237 C253 0.930 1_545 S
H238 C254 0.931 1_545 S
C239 H227 0.929 . S
C239 C233 1.390 1_545 S
C239 C236 1.388 . S
C240 C235 1.490 . S
C240 C242 1.395 1_565 S
C240 C243 1.403 . S
H241 C247 0.930 . S
C242 H228 0.930 . S
C242 C240 1.395 1_545 S
C242 C245 1.403 . S
C243 C240 1.403 . S
C243 C244 1.524 . S
C243 C247 1.400 . S
C244 H229 0.960 . S
C244 H230 0.960 . S
C244 H231 0.960 . S
C244 C243 1.524 . S
C245 C242 1.403 . S
C245 C246 1.392 1_545 S
C245 C249 1.495 . S
C246 C245 1.392 1_565 S
C246 C247 1.385 . S
C246 C248 1.478 . S
C247 H241 0.930 . S
C247 C243 1.400 . S
C247 C246 1.385 . S
C248 C246 1.478 . S
C248 C250 1.381 . S
C248 C254 1.383 . S
C249 C245 1.495 . S
C249 H255 0.959 . S
C249 H256 0.961 . S
C249 H257 0.960 . S
C250 C248 1.381 . S
C250 C251 1.394 . S
C250 H258 0.930 . S
C251 C250 1.394 . S
C251 C252 1.383 . S
C251 H259 0.929 . S
C252 C251 1.383 . S
C252 C253 1.377 . S
C253 H237 0.930 1_565 S
C253 C252 1.377 . S
C253 C254 1.380 . S
C254 H238 0.931 1_565 S
C254 C248 1.383 . S
C254 C253 1.380 . S
H255 C249 0.959 . S
H256 C249 0.961 . S
H257 C249 0.960 . S
H258 C250 0.930 . S
H259 C251 0.929 . S
H260 C268 0.929 . S
H261 C270 0.930 . S
H262 C272 0.930 . S
H263 C275 0.929 . S
H264 C278 0.930 . S
H265 C280 0.960 . S
H266 C280 0.960 . S
H267 C280 0.960 . S
C268 H260 0.929 . S
C268 C269 1.377 1_655 S
C268 C270 1.384 . S
C269 C268 1.377 1_455 S
C269 C275 1.390 . S
C270 H261 0.930 . S
C270 C268 1.384 . S
C270 C271 1.372 1_655 S
C271 C270 1.372 1_455 S
C271 C272 1.400 . S
C271 C276 1.490 . S
C272 H262 0.930 . S
C272 C271 1.400 . S
C272 C275 1.386 . S
H273 C289 0.930 . S
H274 C290 0.931 . S
C275 H263 0.929 . S
C275 C269 1.390 . S
C275 C272 1.386 . S
C276 C271 1.490 . S
C276 C278 1.395 1_455 S
C276 C279 1.403 . S
H277 C283 0.930 . S
C278 H264 0.930 . S
C278 C276 1.395 1_655 S
C278 C281 1.403 . S
C279 C276 1.403 . S
C279 C280 1.524 . S
C279 C283 1.400 . S
C280 H265 0.960 . S
C280 H266 0.960 . S
C280 H267 0.960 . S
C280 C279 1.524 . S
C281 C278 1.403 . S
C281 C282 1.392 1_655 S
C281 C285 1.495 . S
C282 C281 1.392 1_455 S
C282 C283 1.385 . S
C282 C284 1.478 . S
C283 H277 0.930 . S
C283 C279 1.400 . S
C283 C282 1.385 . S
C284 C282 1.478 . S
C284 C286 1.381 1_455 S
C284 C290 1.383 . S
C285 C281 1.495 . S
C285 H291 0.959 . S
C285 H292 0.971 . S
C285 H293 0.960 . S
C286 C284 1.381 1_655 S
C286 C287 1.394 . S
C286 H294 0.930 . S
C287 C286 1.394 . S
C287 C288 1.383 1_655 S
C287 H295 0.929 . S
C288 C287 1.383 1_455 S
C288 C289 1.377 . S
C289 H273 0.930 . S
C289 C288 1.377 . S
C289 C290 1.379 . S
C290 H274 0.931 . S
C290 C284 1.383 . S
C290 C289 1.379 . S
H291 C285 0.959 . S
H292 C285 0.971 . S
H293 C285 0.960 . S
H294 C286 0.930 . S
H295 C287 0.929 . S
H296 C304 0.929 . S
H297 C306 0.930 . S
H298 C308 0.930 . S
H299 C311 0.929 . S
H300 C314 0.930 . S
H301 C316 0.960 . S
H302 C316 0.960 1_565 S
H303 C316 0.960 . S
C304 H296 0.929 . S
C304 C305 1.377 . S
C304 C306 1.384 . S
C305 C304 1.377 . S
C305 C311 1.390 1_565 S
C306 H297 0.930 . S
C306 C304 1.384 . S
C306 C307 1.372 . S
C307 C306 1.372 . S
C307 C308 1.400 1_565 S
C307 C312 1.490 . S
C308 H298 0.930 . S
C308 C307 1.400 1_545 S
C308 C311 1.386 . S
H309 C325 0.930 . S
H310 C326 0.931 . S
C311 H299 0.929 . S
C311 C305 1.390 1_545 S
C311 C308 1.386 . S
C312 C307 1.490 . S
C312 C314 1.395 . S
C312 C315 1.403 . S
H313 C319 0.931 . S
C314 H300 0.930 . S
C314 C312 1.395 . S
C314 C317 1.403 . S
C315 C312 1.403 . S
C315 C316 1.524 1_565 S
C315 C319 1.400 . S
C316 H301 0.960 . S
C316 H302 0.960 1_545 S
C316 H303 0.960 . S
C316 C315 1.524 1_545 S
C317 C314 1.403 . S
C317 C318 1.392 . S
C317 C321 1.495 . S
C318 C317 1.392 . S
C318 C319 1.385 . S
C318 C320 1.478 . S
C319 H313 0.931 . S
C319 C315 1.400 . S
C319 C318 1.385 . S
C320 C318 1.478 . S
C320 C322 1.381 . S
C320 C326 1.383 1_565 S
C321 C317 1.495 . S
C321 H327 0.959 . S
C321 H328 0.961 . S
C321 H329 0.960 . S
C322 C320 1.381 . S
C322 C323 1.394 . S
C322 H330 0.930 . S
C323 C322 1.394 . S
C323 C324 1.383 . S
C323 H331 0.929 . S
C324 C323 1.383 . S
C324 C325 1.377 1_565 S
C325 H309 0.930 . S
C325 C324 1.377 1_545 S
C325 C326 1.379 . S
C326 H310 0.931 . S
C326 C320 1.383 1_545 S
C326 C325 1.379 . S
H327 C321 0.959 . S
H328 C321 0.961 . S
H329 C321 0.960 . S
H330 C322 0.930 . S
H331 C323 0.929 . S
H332 C340 0.929 . S
H333 C342 0.930 . S
H334 C344 0.930 . S
H335 C347 0.929 . S
H336 C350 0.930 . S
H337 C352 0.960 . S
H338 C352 0.960 . S
H339 C352 0.960 . S
C340 H332 0.929 . S
C340 C341 1.377 1_655 S
C340 C342 1.384 . S
C341 C340 1.377 1_455 S
C341 C347 1.390 . S
C342 H333 0.930 . S
C342 C340 1.384 . S
C342 C343 1.372 1_655 S
C343 C342 1.372 1_455 S
C343 C344 1.400 . S
C343 C348 1.490 . S
C344 H334 0.930 . S
C344 C343 1.400 . S
C344 C347 1.386 . S
H345 C361 0.930 . S
H346 C362 0.931 . S
C347 H335 0.929 . S
C347 C341 1.390 . S
C347 C344 1.386 . S
C348 C343 1.490 . S
C348 C350 1.395 1_455 S
C348 C351 1.403 . S
H349 C355 0.930 . S
C350 H336 0.930 . S
C350 C348 1.395 1_655 S
C350 C353 1.403 . S
C351 C348 1.403 . S
C351 C352 1.524 . S
C351 C355 1.400 . S
C352 H337 0.960 . S
C352 H338 0.960 . S
C352 H339 0.960 . S
C352 C351 1.524 . S
C353 C350 1.403 . S
C353 C354 1.392 1_655 S
C353 C357 1.495 . S
C354 C353 1.392 1_455 S
C354 C355 1.385 . S
C354 C356 1.478 . S
C355 H349 0.930 . S
C355 C351 1.400 . S
C355 C354 1.385 . S
C356 C354 1.478 . S
C356 C358 1.381 1_455 S
C356 C362 1.383 . S
C357 C353 1.495 . S
C357 H363 0.959 . S
C357 H364 0.961 1_655 S
C357 H365 0.960 . S
C358 C356 1.381 1_655 S
C358 C359 1.394 . S
C358 H366 0.930 . S
C359 C358 1.394 . S
C359 C360 1.383 1_655 S
C359 H367 0.929 . S
C360 C359 1.383 1_455 S
C360 C361 1.377 . S
C361 H345 0.930 . S
C361 C360 1.377 . S
C361 C362 1.379 . S
C362 H346 0.931 . S
C362 C356 1.383 . S
C362 C361 1.379 . S
H363 C357 0.959 . S
H364 C357 0.961 1_455 S
H365 C357 0.960 . S
H366 C358 0.930 . S
H367 C359 0.929 . S
H368 C376 0.929 . S
H369 C378 0.930 . S
H370 C380 0.930 . S
H371 C383 0.929 . S
H372 C386 0.930 . S
H373 C388 0.960 . S
H374 C388 0.960 . S
H375 C388 0.960 . S
C376 H368 0.929 . S
C376 C377 1.377 1_565 S
C376 C378 1.384 . S
C377 C376 1.377 1_545 S
C377 C383 1.390 . S
C378 H369 0.930 . S
C378 C376 1.384 . S
C378 C379 1.372 1_565 S
C379 C378 1.372 1_545 S
C379 C380 1.400 . S
C379 C384 1.490 . S
C380 H370 0.930 . S
C380 C379 1.400 . S
C380 C383 1.386 . S
H381 C397 0.930 . S
H382 C398 0.931 . S
C383 H371 0.929 . S
C383 C377 1.390 . S
C383 C380 1.386 . S
C384 C379 1.490 . S
C384 C386 1.395 1_545 S
C384 C387 1.403 . S
H385 C391 0.930 . S
C386 H372 0.930 . S
C386 C384 1.395 1_565 S
C386 C389 1.403 . S
C387 C384 1.403 . S
C387 C388 1.524 . S
C387 C391 1.400 . S
C388 H373 0.960 . S
C388 H374 0.960 . S
C388 H375 0.960 . S
C388 C387 1.524 . S
C389 C386 1.403 . S
C389 C390 1.392 1_565 S
C389 C393 1.495 . S
C390 C389 1.392 1_545 S
C390 C391 1.385 . S
C390 C392 1.478 . S
C391 H385 0.930 . S
C391 C387 1.400 . S
C391 C390 1.385 . S
C392 C390 1.478 . S
C392 C394 1.381 1_545 S
C392 C398 1.383 . S
C393 C389 1.495 . S
C393 H399 0.959 . S
C393 H400 0.961 . S
C393 H401 0.960 . S
C394 C392 1.381 1_565 S
C394 C395 1.394 1_565 S
C394 H402 0.930 . S
C395 C394 1.394 1_545 S
C395 C396 1.383 . S
C395 H403 0.929 1_545 S
C396 C395 1.383 . S
C396 C397 1.377 . S
C397 H381 0.930 . S
C397 C396 1.377 . S
C397 C398 1.379 . S
C398 H382 0.931 . S
C398 C392 1.383 . S
C398 C397 1.379 . S
H399 C393 0.959 . S
H400 C393 0.961 . S
H401 C393 0.960 . S
H402 C394 0.930 . S
H403 C395 0.929 1_565 S
H404 C412 0.929 . S
H405 C414 0.930 . S
H406 C416 0.930 . S
H407 C419 0.929 . S
H408 C422 0.930 . S
H409 C424 0.960 . S
H410 C424 0.960 . S
H411 C424 0.960 . S
C412 H404 0.929 . S
C412 C413 1.377 . S
C412 C414 1.384 . S
C413 C412 1.377 . S
C413 C419 1.390 1_655 S
C414 H405 0.930 . S
C414 C412 1.384 . S
C414 C415 1.372 . S
C415 C414 1.372 . S
C415 C416 1.400 1_655 S
C415 C420 1.490 . S
C416 H406 0.930 . S
C416 C415 1.400 1_455 S
C416 C419 1.386 . S
H417 C433 0.930 . S
H418 C434 0.931 . S
C419 H407 0.929 . S
C419 C413 1.390 1_455 S
C419 C416 1.386 . S
C420 C415 1.490 . S
C420 C422 1.395 . S
C420 C423 1.403 . S
H421 C427 0.930 . S
C422 H408 0.930 . S
C422 C420 1.395 . S
C422 C425 1.403 . S
C423 C420 1.403 . S
C423 C424 1.524 . S
C423 C427 1.400 . S
C424 H409 0.960 . S
C424 H410 0.960 . S
C424 H411 0.960 . S
C424 C423 1.524 . S
C425 C422 1.403 . S
C425 C426 1.392 . S
C425 C429 1.495 . S
C426 C425 1.392 . S
C426 C427 1.385 . S
C426 C428 1.478 . S
C427 H421 0.930 . S
C427 C423 1.400 . S
C427 C426 1.385 . S
C428 C426 1.478 . S
C428 C430 1.381 . S
C428 C434 1.383 1_655 S
C429 C425 1.495 . S
C429 H435 0.959 1_655 S
C429 H436 0.961 1_655 S
C429 H437 0.960 . S
C430 C428 1.381 . S
C430 C431 1.394 . S
C430 H438 0.930 . S
C431 C430 1.394 . S
C431 C432 1.383 . S
C431 H439 0.929 . S
C432 C431 1.383 . S
C432 C433 1.377 1_655 S
C433 H417 0.930 . S
C433 C432 1.377 1_455 S
C433 C434 1.379 . S
C434 H418 0.931 . S
C434 C428 1.383 1_455 S
C434 C433 1.379 . S
H435 C429 0.959 1_455 S
H436 C429 0.961 1_455 S
H437 C429 0.960 . S
H438 C430 0.930 . S
H439 C431 0.929 . S
C180 C133 1.851 . S
C161 C47 1.765 . S
C216 C144 1.767 . S
C197 C109 1.746 . S
C252 C132 1.864 . S
C233 C29 1.775 1_565 S
C288 C145 1.769 . S
C269 C91 1.757 1_455 S
C324 C147 1.562 . S
C305 C53 1.555 1_565 S
C360 C131 1.398 . S
C341 C115 1.463 1_455 S
C396 C146 1.564 . S
C377 C35 1.552 . S
C413 C97 1.460 . S
C432 C130 1.431 . S
