# Generated by pormake.
# Topology pyr, (3,6)-cn, num edge types: 1
# Building blocks:
#     Node 0, Type 0, BuildingBlock: KAKCAD_clean_linker_0, # of connection points: 3
#     Node 1, Type 0, BuildingBlock: KAKCAD_clean_linker_0, # of connection points: 3
#     Node 2, Type 0, BuildingBlock: KAKCAD_clean_linker_0, # of connection points: 3
#     Node 3, Type 0, BuildingBlock: KAKCAD_clean_linker_0, # of connection points: 3
#     Node 4, Type 0, BuildingBlock: KAKCAD_clean_linker_0, # of connection points: 3
#     Node 5, Type 0, BuildingBlock: KAKCAD_clean_linker_0, # of connection points: 3
#     Node 6, Type 0, BuildingBlock: KAKCAD_clean_linker_0, # of connection points: 3
#     Node 7, Type 0, BuildingBlock: KAKCAD_clean_linker_0, # of connection points: 3
#     Node 8, Type 1, BuildingBlock: BETDAH_clean_sbu_0, # of connection points: 6
#     Node 9, Type 1, BuildingBlock: BETDAH_clean_sbu_0, # of connection points: 6
#     Node 10, Type 1, BuildingBlock: BETDAH_clean_sbu_0, # of connection points: 6
#     Node 11, Type 1, BuildingBlock: BETDAH_clean_sbu_0, # of connection points: 6
#     Edge 12, Type (0, 1), BuildingBlock: XIVTED_clean_linker_0, # of connection points: 2
#     Edge 13, Type (0, 1), BuildingBlock: XIVTED_clean_linker_0, # of connection points: 2
#     Edge 14, Type (0, 1), BuildingBlock: XIVTED_clean_linker_0, # of connection points: 2
#     Edge 15, Type (0, 1), BuildingBlock: XIVTED_clean_linker_0, # of connection points: 2
#     Edge 16, Type (0, 1), BuildingBlock: XIVTED_clean_linker_0, # of connection points: 2
#     Edge 17, Type (0, 1), BuildingBlock: XIVTED_clean_linker_0, # of connection points: 2
#     Edge 18, Type (0, 1), BuildingBlock: XIVTED_clean_linker_0, # of connection points: 2
#     Edge 19, Type (0, 1), BuildingBlock: XIVTED_clean_linker_0, # of connection points: 2
#     Edge 20, Type (0, 1), BuildingBlock: XIVTED_clean_linker_0, # of connection points: 2
#     Edge 21, Type (0, 1), BuildingBlock: XIVTED_clean_linker_0, # of connection points: 2
#     Edge 22, Type (0, 1), BuildingBlock: XIVTED_clean_linker_0, # of connection points: 2
#     Edge 23, Type (0, 1), BuildingBlock: XIVTED_clean_linker_0, # of connection points: 2
#     Edge 24, Type (0, 1), BuildingBlock: XIVTED_clean_linker_0, # of connection points: 2
#     Edge 25, Type (0, 1), BuildingBlock: XIVTED_clean_linker_0, # of connection points: 2
#     Edge 26, Type (0, 1), BuildingBlock: XIVTED_clean_linker_0, # of connection points: 2
#     Edge 27, Type (0, 1), BuildingBlock: XIVTED_clean_linker_0, # of connection points: 2
#     Edge 28, Type (0, 1), BuildingBlock: XIVTED_clean_linker_0, # of connection points: 2
#     Edge 29, Type (0, 1), BuildingBlock: XIVTED_clean_linker_0, # of connection points: 2
#     Edge 30, Type (0, 1), BuildingBlock: XIVTED_clean_linker_0, # of connection points: 2
#     Edge 31, Type (0, 1), BuildingBlock: XIVTED_clean_linker_0, # of connection points: 2
#     Edge 32, Type (0, 1), BuildingBlock: XIVTED_clean_linker_0, # of connection points: 2
#     Edge 33, Type (0, 1), BuildingBlock: XIVTED_clean_linker_0, # of connection points: 2
#     Edge 34, Type (0, 1), BuildingBlock: XIVTED_clean_linker_0, # of connection points: 2
#     Edge 35, Type (0, 1), BuildingBlock: XIVTED_clean_linker_0, # of connection points: 2
# Relax obj value: 0.093
# Max RMSD: 0.123
# Mean RMSD: 0.058
data_MOF--net-pyr--node1-BETDAH_clean_sbu_0--node2-KAKCAD_clean_linker_0--edge1-XIVTED_clean_linker_0
_symmetry_space_group_name_H-M    P1
_symmetry_Int_Tables_number       1
_symmetry_cell_setting            triclinic
loop_
_symmetry_equiv_pos_as_xyz
'x, y, z'
_cell_length_a     47.06205
_cell_length_b     49.349281
_cell_length_c     44.121387
_cell_angle_alpha  90.57034
_cell_angle_beta   88.512998
_cell_angle_gamma 101.89124
loop_
_atom_site_label
_atom_site_type_symbol
_atom_site_fract_x
_atom_site_fract_y
_atom_site_fract_z
_atom_type_partial_charge
C0 C 0.25641 0.27724 0.3138 0.0
C1 C 0.2709 0.26739 0.33736 0.0
C2 C 0.27068 0.28518 0.28634 0.0
C3 C 0.30013 0.28403 0.2817 0.0
C4 C 0.31505 0.27524 0.30579 0.0
C5 C 0.30049 0.26677 0.33331 0.0
C6 C 0.31376 0.28948 0.25086 0.0
C7 C 0.30438 0.30825 0.23164 0.0
C8 C 0.31052 0.30839 0.20041 0.0
C9 C 0.32864 0.29148 0.18856 0.0
C10 C 0.33966 0.27369 0.20765 0.0
C11 C 0.33225 0.27281 0.23875 0.0
C12 C 0.35501 0.25294 0.19443 0.0
C13 C 0.34146 0.23441 0.17237 0.0
C14 C 0.38247 0.25072 0.20446 0.0
C15 C 0.39642 0.23052 0.19214 0.0
C16 C 0.38285 0.21177 0.17002 0.0
C17 C 0.29337 0.32201 0.18004 0.0
C18 C 0.26295 0.31533 0.18277 0.0
C19 C 0.30661 0.34093 0.15776 0.0
C20 C 0.2895 0.35344 0.13894 0.0
C21 C 0.25902 0.34658 0.14173 0.0
C22 C 0.24599 0.32738 0.16377 0.0
C23 C 0.35505 0.21391 0.16054 0.0
H24 H 0.23343 0.27726 0.31587 0.0
H25 H 0.25793 0.2908 0.26826 0.0
H26 H 0.33776 0.27428 0.30317 0.0
H27 H 0.31215 0.2592 0.35115 0.0
H28 H 0.2904 0.32152 0.24052 0.0
H29 H 0.33891 0.25744 0.25279 0.0
H30 H 0.33272 0.29088 0.16428 0.0
H31 H 0.31999 0.2354 0.16477 0.0
H32 H 0.39324 0.26482 0.22156 0.0
H33 H 0.41794 0.22985 0.19976 0.0
H34 H 0.25224 0.30054 0.19955 0.0
H35 H 0.33005 0.34625 0.15524 0.0
H36 H 0.34342 0.19947 0.14428 0.0
H37 H 0.22257 0.32197 0.16665 0.0
H38 H 0.3 0.36822 0.12207 0.0
C39 C 0.30907 0.85076 0.72709 0.0
C40 C 0.33923 0.85231 0.72676 0.0
C41 C 0.29362 0.84601 0.70035 0.0
C42 C 0.30797 0.84264 0.6727 0.0
C43 C 0.33798 0.84334 0.67245 0.0
C44 C 0.35349 0.84822 0.69923 0.0
C45 C 0.29171 0.83923 0.64414 0.0
C46 C 0.27202 0.85625 0.63819 0.0
C47 C 0.25637 0.85325 0.61123 0.0
C48 C 0.26044 0.83264 0.59031 0.0
C49 C 0.28079 0.81626 0.59546 0.0
C50 C 0.29626 0.81951 0.62246 0.0
C51 C 0.28681 0.79644 0.57216 0.0
C52 C 0.26426 0.77648 0.56001 0.0
C53 C 0.31555 0.79704 0.56258 0.0
C54 C 0.32187 0.77718 0.54235 0.0
C55 C 0.29958 0.75612 0.53148 0.0
C56 C 0.23696 0.87246 0.60421 0.0
C57 C 0.22072 0.88262 0.62728 0.0
C58 C 0.23503 0.88129 0.57429 0.0
C59 C 0.2171 0.89947 0.56751 0.0
C60 C 0.20114 0.90996 0.59057 0.0
C61 C 0.20325 0.90135 0.62058 0.0
C62 C 0.27062 0.75629 0.53996 0.0
H63 H 0.2975 0.85417 0.74786 0.0
H64 H 0.27044 0.84525 0.70125 0.0
H65 H 0.34963 0.84094 0.65143 0.0
H66 H 0.37669 0.84912 0.69833 0.0
H67 H 0.26974 0.87252 0.65417 0.0
H68 H 0.31157 0.80639 0.62672 0.0
H69 H 0.24834 0.8297 0.56955 0.0
H70 H 0.24189 0.77578 0.56704 0.0
H71 H 0.33323 0.81251 0.57136 0.0
H72 H 0.34445 0.77736 0.53673 0.0
H73 H 0.22137 0.87604 0.65054 0.0
H74 H 0.24762 0.87443 0.55596 0.0
H75 H 0.25306 0.74026 0.53196 0.0
H76 H 0.1916 0.9092 0.63904 0.0
H77 H 0.21564 0.90506 0.54403 0.0
C78 C 0.74793 0.43561 0.90299 0.0
C79 C 0.76974 0.42094 0.90962 0.0
C80 C 0.72241 0.42248 0.88867 0.0
C81 C 0.71782 0.39425 0.8808 0.0
C82 C 0.73964 0.37963 0.88716 0.0
C83 C 0.76524 0.39278 0.90121 0.0
C84 C 0.69021 0.37986 0.86655 0.0
C85 C 0.67802 0.3923 0.84292 0.0
C86 C 0.6521 0.37874 0.82922 0.0
C87 C 0.63843 0.35212 0.83973 0.0
C88 C 0.65015 0.33923 0.86355 0.0
C89 C 0.676 0.35349 0.8767 0.0
C90 C 0.63546 0.31118 0.87533 0.0
C91 C 0.60498 0.30332 0.87781 0.0
C92 C 0.65194 0.29231 0.88535 0.0
C93 C 0.6385 0.26686 0.89822 0.0
C94 C 0.60804 0.25919 0.90129 0.0
C95 C 0.63959 0.39249 0.80395 0.0
C96 C 0.64047 0.42121 0.80463 0.0
C97 C 0.6271 0.37729 0.77869 0.0
C98 C 0.6161 0.39042 0.75482 0.0
C99 C 0.61713 0.41918 0.75547 0.0
C100 C 0.62947 0.43431 0.78083 0.0
C101 C 0.59151 0.27774 0.8905 0.0
H102 H 0.75022 0.45716 0.90943 0.0
H103 H 0.70594 0.43431 0.88441 0.0
H104 H 0.73707 0.35798 0.88099 0.0
H105 H 0.78163 0.38081 0.90517 0.0
H106 H 0.68924 0.41236 0.83464 0.0
H107 H 0.68482 0.34438 0.89562 0.0
H108 H 0.61856 0.34148 0.82941 0.0
H109 H 0.59143 0.31721 0.87063 0.0
H110 H 0.67542 0.2972 0.88339 0.0
H111 H 0.65219 0.25351 0.9064 0.0
H112 H 0.64955 0.43367 0.82375 0.0
H113 H 0.62622 0.35522 0.77708 0.0
H114 H 0.56802 0.27256 0.89182 0.0
H115 H 0.63106 0.45649 0.78218 0.0
H116 H 0.60651 0.37791 0.73595 0.0
C117 C 0.89581 0.63025 0.2802 0.0
C118 C 0.90688 0.64442 0.25347 0.0
C119 C 0.88383 0.64378 0.30391 0.0
C120 C 0.88266 0.67198 0.3018 0.0
C121 C 0.89385 0.68622 0.27515 0.0
C122 C 0.90563 0.67261 0.25127 0.0
C123 C 0.86944 0.68624 0.32709 0.0
C124 C 0.84352 0.67273 0.34197 0.0
C125 C 0.83059 0.68575 0.36567 0.0
C126 C 0.84407 0.71284 0.37428 0.0
C127 C 0.87015 0.72672 0.36021 0.0
C128 C 0.88264 0.71322 0.33658 0.0
C129 C 0.88435 0.75508 0.37092 0.0
C130 C 0.86774 0.77528 0.37706 0.0
C131 C 0.91427 0.76177 0.37663 0.0
C132 C 0.92703 0.78765 0.38897 0.0
C133 C 0.9103 0.80769 0.39558 0.0
C134 C 0.80318 0.67116 0.38167 0.0
C135 C 0.78098 0.65354 0.36587 0.0
C136 C 0.79883 0.67497 0.41301 0.0
C137 C 0.77303 0.66201 0.42794 0.0
C138 C 0.75075 0.64447 0.41217 0.0
C139 C 0.75524 0.64035 0.38089 0.0
C140 C 0.88053 0.80122 0.38907 0.0
H141 H 0.89609 0.6085 0.28271 0.0
H142 H 0.8757 0.63213 0.32411 0.0
H143 H 0.89312 0.70787 0.27255 0.0
H144 H 0.91414 0.6843 0.23122 0.0
H145 H 0.83343 0.65193 0.33507 0.0
H146 H 0.90272 0.72373 0.32565 0.0
H147 H 0.83434 0.72323 0.39227 0.0
H148 H 0.84469 0.77095 0.37274 0.0
H149 H 0.92769 0.74669 0.37238 0.0
H150 H 0.95006 0.79196 0.39336 0.0
H151 H 0.78323 0.65021 0.34172 0.0
H152 H 0.81546 0.68793 0.42623 0.0
H153 H 0.86687 0.81596 0.39403 0.0
H154 H 0.73894 0.62675 0.36788 0.0
H155 H 0.77048 0.66618 0.45188 0.0
C156 C 0.74799 0.78611 0.73872 0.0
C157 C 0.75571 0.81403 0.73012 0.0
C158 C 0.72946 0.77827 0.76383 0.0
C159 C 0.71883 0.79832 0.78117 0.0
C160 C 0.72478 0.82588 0.77091 0.0
C161 C 0.74286 0.83359 0.74559 0.0
C162 C 0.70579 0.7918 0.81206 0.0
C163 C 0.71716 0.77421 0.83102 0.0
C164 C 0.70993 0.77241 0.86205 0.0
C165 C 0.69134 0.78874 0.87444 0.0
C166 C 0.67904 0.80603 0.85573 0.0
C167 C 0.68557 0.80645 0.82437 0.0
C168 C 0.66166 0.82554 0.86903 0.0
C169 C 0.64374 0.81853 0.89504 0.0
C170 C 0.66385 0.85204 0.85637 0.0
C171 C 0.6485 0.87083 0.86915 0.0
C172 C 0.63119 0.86393 0.89534 0.0
C173 C 0.72476 0.75564 0.88149 0.0
C174 C 0.72554 0.72827 0.8732 0.0
C175 C 0.74127 0.76789 0.90595 0.0
C176 C 0.75976 0.75362 0.92054 0.0
C177 C 0.7619 0.72678 0.91103 0.0
C178 C 0.74376 0.71393 0.88793 0.0
C179 C 0.62891 0.83767 0.90825 0.0
H180 H 0.75736 0.77057 0.7269 0.0
H181 H 0.72476 0.75674 0.77058 0.0
H182 H 0.71744 0.84207 0.78373 0.0
H183 H 0.74864 0.85532 0.73968 0.0
H184 H 0.73348 0.7634 0.82223 0.0
H185 H 0.67582 0.81914 0.80956 0.0
H186 H 0.68731 0.78853 0.89872 0.0
H187 H 0.64115 0.79829 0.90525 0.0
H188 H 0.67805 0.85873 0.837 0.0
H189 H 0.6509 0.89115 0.85911 0.0
H190 H 0.7128 0.71833 0.85454 0.0
H191 H 0.74126 0.78909 0.91254 0.0
H192 H 0.61555 0.83195 0.92847 0.0
H193 H 0.7443 0.69304 0.88054 0.0
H194 H 0.77355 0.76424 0.93808 0.0
C195 C 0.63552 0.11742 0.41142 0.0
C196 C 0.6333 0.13722 0.38944 0.0
C197 C 0.64846 0.12561 0.43907 0.0
C198 C 0.65959 0.15376 0.44518 0.0
C199 C 0.65612 0.17362 0.42371 0.0
C200 C 0.64303 0.16543 0.39617 0.0
C201 C 0.67695 0.16227 0.47255 0.0
C202 C 0.69765 0.14728 0.48134 0.0
C203 C 0.7165 0.15663 0.50517 0.0
C204 C 0.7141 0.18108 0.52071 0.0
C205 C 0.69385 0.19644 0.51182 0.0
C206 C 0.67511 0.18679 0.48808 0.0
C207 C 0.69401 0.22399 0.52507 0.0
C208 C 0.68954 0.22745 0.55632 0.0
C209 C 0.6976 0.24695 0.50588 0.0
C210 C 0.69544 0.27279 0.51744 0.0
C211 C 0.68935 0.27615 0.54843 0.0
C212 C 0.74067 0.1425 0.51114 0.0
C213 C 0.7363 0.11346 0.51004 0.0
C214 C 0.76886 0.15808 0.51526 0.0
C215 C 0.79231 0.14496 0.51716 0.0
C216 C 0.78812 0.116 0.51478 0.0
C217 C 0.75979 0.10034 0.51176 0.0
C218 C 0.68693 0.25336 0.56792 0.0
H219 H 0.62783 0.09554 0.40696 0.0
H220 H 0.65039 0.10987 0.45538 0.0
H221 H 0.66483 0.19543 0.42747 0.0
H222 H 0.64195 0.18113 0.3795 0.0
H223 H 0.70042 0.12926 0.46825 0.0
H224 H 0.65946 0.19878 0.48132 0.0
H225 H 0.7288 0.18883 0.5388 0.0
H226 H 0.68685 0.20992 0.57148 0.0
H227 H 0.70138 0.24474 0.48173 0.0
H228 H 0.69693 0.2898 0.50174 0.0
H229 H 0.71477 0.1009 0.50714 0.0
H230 H 0.77305 0.18049 0.51583 0.0
H231 H 0.68222 0.25543 0.59189 0.0
H232 H 0.75583 0.078 0.50972 0.0
H233 H 0.8138 0.15758 0.52008 0.0
C234 C 0.25715 0.64681 0.18969 0.0
C235 C 0.25354 0.6503 0.1585 0.0
C236 C 0.28251 0.66036 0.204 0.0
C237 C 0.30511 0.67757 0.18745 0.0
C238 C 0.30165 0.68049 0.15609 0.0
C239 C 0.27621 0.66722 0.1419 0.0
C240 C 0.33188 0.69291 0.20276 0.0
C241 C 0.34439 0.68075 0.22643 0.0
C242 C 0.36965 0.69503 0.24078 0.0
C243 C 0.38233 0.72216 0.23103 0.0
C244 C 0.37019 0.73488 0.20739 0.0
C245 C 0.34501 0.71994 0.1936 0.0
C246 C 0.38379 0.76345 0.1963 0.0
C247 C 0.41415 0.77224 0.19342 0.0
C248 C 0.36638 0.78176 0.18694 0.0
C249 C 0.37881 0.80751 0.17414 0.0
C250 C 0.40915 0.81605 0.17048 0.0
C251 C 0.38269 0.68137 0.26577 0.0
C252 C 0.38346 0.653 0.26414 0.0
C253 C 0.394 0.69628 0.29168 0.0
C254 C 0.40543 0.68317 0.3153 0.0
C255 C 0.40603 0.65474 0.31371 0.0
C256 C 0.39489 0.63992 0.28768 0.0
C257 C 0.42662 0.79813 0.18078 0.0
H258 H 0.24002 0.63413 0.20324 0.0
H259 H 0.28405 0.65781 0.2282 0.0
H260 H 0.31873 0.69295 0.1423 0.0
H261 H 0.2744 0.66999 0.11775 0.0
H262 H 0.33445 0.65999 0.23369 0.0
H263 H 0.33559 0.72943 0.17542 0.0
H264 H 0.40174 0.73333 0.24176 0.0
H265 H 0.42837 0.75881 0.20015 0.0
H266 H 0.34295 0.77612 0.18925 0.0
H267 H 0.36444 0.82038 0.16638 0.0
H268 H 0.37536 0.64079 0.24449 0.0
H269 H 0.39362 0.71807 0.29399 0.0
H270 H 0.45006 0.804 0.17902 0.0
H271 H 0.39457 0.61799 0.28557 0.0
H272 H 0.41405 0.69545 0.33471 0.0
C273 C 0.1511 0.27669 0.67403 0.0
C274 C 0.12083 0.26775 0.67234 0.0
C275 C 0.16329 0.3026 0.68637 0.0
C276 C 0.14564 0.32069 0.6971 0.0
C277 C 0.11526 0.31147 0.69612 0.0
C278 C 0.10303 0.2853 0.68402 0.0
C279 C 0.15919 0.34923 0.70826 0.0
C280 C 0.18481 0.36398 0.69407 0.0
C281 C 0.1991 0.39017 0.70459 0.0
C282 C 0.18653 0.4022 0.72934 0.0
C283 C 0.16035 0.38837 0.74359 0.0
C284 C 0.14702 0.36179 0.73289 0.0
C285 C 0.14693 0.40174 0.76955 0.0
C286 C 0.16425 0.41727 0.79183 0.0
C287 C 0.11663 0.39944 0.77207 0.0
C288 C 0.1041 0.41251 0.79581 0.0
C289 C 0.12142 0.42829 0.81793 0.0
C290 C 0.22709 0.4046 0.68944 0.0
C291 C 0.24701 0.38917 0.67765 0.0
C292 C 0.234 0.43361 0.68588 0.0
C293 C 0.25968 0.44661 0.6705 0.0
C294 C 0.27894 0.43094 0.65793 0.0
C295 C 0.27234 0.4021 0.66194 0.0
C296 C 0.1517 0.43029 0.81564 0.0
H297 H 0.16549 0.26354 0.66587 0.0
H298 H 0.18672 0.30843 0.68745 0.0
H299 H 0.10088 0.32475 0.70391 0.0
H300 H 0.07961 0.27915 0.68295 0.0
H301 H 0.19344 0.35515 0.67418 0.0
H302 H 0.12755 0.35055 0.74429 0.0
H303 H 0.19711 0.42242 0.73753 0.0
H304 H 0.1876 0.4193 0.79101 0.0
H305 H 0.10251 0.3879 0.75532 0.0
H306 H 0.0807 0.41009 0.79688 0.0
H307 H 0.24314 0.36695 0.68057 0.0
H308 H 0.21925 0.44629 0.69426 0.0
H309 H 0.16588 0.44238 0.83196 0.0
H310 H 0.28695 0.38945 0.65307 0.0
H311 H 0.26405 0.46887 0.66769 0.0
Ho312 Ho 0.02258 0.0517 0.50524 0.0
Ho313 Ho 0.00833 1.02091 0.56468 0.0
C314 C 0.04012 0.08568 0.5678 0.0
C315 C 0.03166 0.08752 0.462 0.0
C316 C 0.05734 0.1096 0.45667 0.0
C317 C 0.05765 0.1296 0.43433 0.0
C318 C 0.08287 0.14972 0.4287 0.0
C319 C 0.10809 0.14998 0.44532 0.0
C320 C 0.10734 0.13024 0.46819 0.0
C321 C 0.0822 0.11024 0.47379 0.0
C322 C 0.06318 1.02445 0.52329 0.0
C323 C 0.99417 0.98807 0.50216 0.0
C324 C 1.00357 0.99295 0.6141 0.0
C325 C 0.98189 0.96812 0.62243 0.0
C326 C 0.97699 0.96008 0.65277 0.0
C327 C 0.9541 0.93816 0.66066 0.0
C328 C 0.9357 0.92424 0.63828 0.0
C329 C 0.94135 0.93186 0.60779 0.0
C330 C 0.96424 0.95359 0.59995 0.0
C331 C 0.96176 0.03264 0.53688 0.0
O332 O 0.04287 0.0851 0.53788 0.0
O333 O 0.02703 0.06359 0.58343 0.0
O334 O 0.0364 0.06248 0.45906 0.0
O335 O 0.01624 0.09037 0.4864 0.0
O336 O 0.05721 1.02723 0.49521 0.0
O337 O 0.04886 0.03763 0.54009 0.0
O338 O 1.00516 0.987 0.52937 0.0
O339 O 0.99315 1.01221 0.4898 0.0
O340 O 0.99308 1.01538 0.61126 0.0
O341 O 0.02145 0.98959 0.59176 0.0
O342 O 0.96114 1.01048 0.55245 0.0
O343 O 0.98648 0.04808 0.53842 0.0
H344 H 0.03863 0.12936 0.42093 0.0
H345 H 0.08291 0.16449 0.41071 0.0
H346 H 0.12626 0.1301 0.48159 0.0
H347 H 0.08233 0.09493 0.49118 0.0
H348 H 0.9903 0.97123 0.67039 0.0
H349 H 0.95005 0.93289 0.68437 0.0
H350 H 0.92775 0.92132 0.59005 0.0
H351 H 0.96768 0.95954 0.57636 0.0
Ho352 Ho 0.5351 0.04596 0.0495 0.0
Ho353 Ho 0.4803 1.02798 1.01847 0.0
C354 C 0.4772 0.06665 0.07436 0.0
C355 C 0.58012 0.07248 0.07751 0.0
C356 C 0.58471 0.08138 0.10907 0.0
C357 C 0.61297 0.0897 0.11967 0.0
C358 C 0.61743 0.09605 0.15033 0.0
C359 C 0.59365 0.09427 0.17072 0.0
C360 C 0.56534 0.08643 0.15983 0.0
C361 C 0.56093 0.07983 0.12926 0.0
C362 C 0.50465 0.99594 0.06856 0.0
C363 C 0.53772 1.00782 0.99334 0.0
C364 C 0.43569 1.00032 0.99075 0.0
C365 C 0.43117 0.98161 0.96414 0.0
C366 C 0.42571 0.95273 0.96795 0.0
C367 C 0.42092 0.93502 0.94286 0.0
C368 C 0.42141 0.94584 0.91347 0.0
C369 C 0.42699 0.9747 0.90968 0.0
C370 C 0.43173 0.99239 0.93471 0.0
C371 C 0.51092 0.07826 1.00028 0.0
O372 O 0.50587 0.07106 0.07334 0.0
O373 O 0.4614 0.04734 0.0576 0.0
O374 O 0.57452 0.04573 0.0734 0.0
O375 O 0.56296 0.08474 0.06227 0.0
O376 O 0.53253 1.0023 0.06496 0.0
O377 O 0.49401 1.01688 0.06326 0.0
O378 O 0.50915 1.0019 0.99623 0.0
O379 O 0.55327 1.02871 1.00825 0.0
O380 O 0.44692 1.02636 0.98545 0.0
O381 O 0.44648 0.99114 1.01466 0.0
O382 O 0.48303 0.07224 1.00469 0.0
O383 O 0.52141 0.05709 1.00488 0.0
H384 H 0.63154 0.09078 0.10436 0.0
H385 H 0.63947 0.10225 0.15813 0.0
H386 H 0.54664 0.08453 0.1751 0.0
H387 H 0.53897 0.07291 0.12154 0.0
H388 H 0.42496 0.94379 0.99036 0.0
H389 H 0.4168 0.91287 0.94647 0.0
H390 H 0.4269 0.98368 0.88738 0.0
H391 H 0.43554 1.01451 0.93096 0.0
Ho392 Ho 0.51709 0.51412 0.51239 0.0
Ho393 Ho 0.5103 0.56017 0.55381 0.0
C394 C 0.53911 0.51463 0.58277 0.0
C395 C 0.53873 0.4771 0.48385 0.0
C396 C 0.55891 0.46031 0.49452 0.0
C397 C 0.58395 0.47265 0.51028 0.0
C398 C 0.6011 0.45629 0.5235 0.0
C399 C 0.59334 0.42733 0.52152 0.0
C400 C 0.56861 0.41505 0.50528 0.0
C401 C 0.55158 0.43142 0.49184 0.0
C402 C 0.46368 0.50751 0.53912 0.0
C403 C 0.48725 0.55902 0.4841 0.0
C404 C 0.48823 0.59733 0.5812 0.0
C405 C 0.46337 0.60845 0.57119 0.0
C406 C 0.43887 0.59055 0.55943 0.0
C407 C 0.41731 0.60118 0.54546 0.0
C408 C 0.41999 0.62988 0.54268 0.0
C409 C 0.4442 0.64777 0.555 0.0
C410 C 0.46572 0.63712 0.56915 0.0
C411 C 0.5635 0.56657 0.5267 0.0
O412 O 0.54104 0.50573 0.55447 0.0
O413 O 0.5256 0.53495 0.58936 0.0
O414 O 0.51294 0.47177 0.49688 0.0
O415 O 0.54924 0.50367 0.48107 0.0
O416 O 0.46841 0.50024 0.51137 0.0
O417 O 0.48761 0.51673 0.55161 0.0
O418 O 0.48405 0.56655 0.5127 0.0
O419 O 0.50245 0.54007 0.47707 0.0
O420 O 0.5114 0.60344 0.5636 0.0
O421 O 0.48243 0.57134 0.58943 0.0
O422 O 0.55912 0.57357 0.55462 0.0
O423 O 0.53941 0.55769 0.51444 0.0
H424 H 0.58989 0.49492 0.51316 0.0
H425 H 0.61994 0.46625 0.53602 0.0
H426 H 0.56243 0.39274 0.50298 0.0
H427 H 0.53228 0.42151 0.48 0.0
H428 H 0.43677 0.56828 0.56006 0.0
H429 H 0.39899 0.58693 0.53605 0.0
H430 H 0.44653 0.67003 0.55369 0.0
H431 H 0.4846 0.65124 0.57768 0.0
Ho432 Ho 0.01562 0.51086 0.04472 0.0
Ho433 Ho 0.0083 0.5651 1.02057 0.0
C434 C 0.06733 0.56178 0.05619 0.0
C435 C 0.02351 0.46097 0.05135 0.0
C436 C 0.04962 0.44946 0.0547 0.0
C437 C 0.07724 0.46573 0.04833 0.0
C438 C 0.10211 0.455 0.05236 0.0
C439 C 0.09978 0.42781 0.06292 0.0
C440 C 0.07196 0.41156 0.06907 0.0
C441 C 0.04709 0.42232 0.06498 0.0
C442 C 0.99371 0.54262 0.08602 0.0
C443 C 0.95598 0.51431 1.00958 0.0
C444 C 1.00084 0.61486 1.01175 0.0
C445 C 0.97626 0.62589 1.00093 0.0
C446 C 0.97381 0.65296 1.00849 0.0
C447 C 0.94983 0.66319 0.99926 0.0
C448 C 0.92794 0.64645 0.9823 0.0
C449 C 0.93054 0.61927 0.97484 0.0
C450 C 0.95445 0.60907 0.98414 0.0
C451 C 0.02986 0.53262 0.97968 0.0
O452 O 0.06071 0.53462 0.05288 0.0
O453 O 0.04926 0.57746 0.04778 0.0
O454 O 0.01743 0.47631 0.07392 0.0
O455 O 0.02089 0.47192 1.02497 0.0
O456 O 0.01144 0.52667 0.09225 0.0
O457 O 0.98689 0.53961 0.05846 0.0
O458 O 0.96347 0.54158 1.01083 0.0
O459 O 0.97327 0.49849 1.01968 0.0
O460 O 0.01342 0.60111 0.99185 0.0
O461 O 0.99656 0.60253 0.03802 0.0
O462 O 0.01129 0.54773 0.97344 0.0
O463 O 0.0371 0.5364 1.00703 0.0
H464 H 0.07958 0.48678 0.04038 0.0
H465 H 0.12315 0.46796 0.04711 0.0
H466 H 0.0694 0.39071 0.07771 0.0
H467 H 0.02592 0.40957 0.07016 0.0
H468 H 0.99038 0.66614 1.02162 0.0
H469 H 0.94859 0.68429 1.00511 0.0
H470 H 0.91387 0.60573 0.96218 0.0
H471 H 0.95582 0.58799 0.97837 0.0
H472 H 0.23031 0.28793 0.37091 0.0
H473 H 0.16291 0.13949 0.44055 0.0
H474 H 0.27163 0.21772 0.36393 0.0
H475 H 0.11586 0.20538 0.43265 0.0
H476 H 0.20727 0.17119 0.42359 0.0
H477 H 0.19344 0.26153 0.40524 0.0
C478 C 0.23195 0.26714 0.37716 0.0
C479 C 0.25371 0.25478 0.36414 0.0
C480 C 0.18733 0.17881 0.42592 0.0
C481 C 0.21149 0.22439 0.40306 0.0
C482 C 0.16199 0.16076 0.43571 0.0
C483 C 0.13556 0.16975 0.4377 0.0
C484 C 0.18625 0.20606 0.41805 0.0
C485 C 0.13565 0.19746 0.43087 0.0
C486 C 0.21087 0.25206 0.39665 0.0
C487 C 0.25517 0.228 0.37338 0.0
N488 N 0.16056 0.21458 0.42112 0.0
N489 N 0.234 0.21349 0.39187 0.0
H490 H 0.32501 0.83398 0.78476 0.0
H491 H 0.44796 0.95059 0.85719 0.0
H492 H 0.39106 0.88893 0.73241 0.0
H493 H 0.37892 0.89893 0.90915 0.0
H494 H 0.4321 0.92321 0.812 0.0
H495 H 0.34917 0.85238 0.83119 0.0
C496 C 0.34475 0.84975 0.78304 0.0
C497 C 0.35583 0.86021 0.75471 0.0
C498 C 0.42061 0.91765 0.83335 0.0
C499 C 0.38358 0.88134 0.80769 0.0
C500 C 0.42958 0.93336 0.85912 0.0
C501 C 0.41448 0.92727 0.88688 0.0
C502 C 0.39626 0.89579 0.83531 0.0
C503 C 0.39123 0.90433 0.88824 0.0
C504 C 0.35858 0.86018 0.80953 0.0
C505 C 0.38179 0.88022 0.75375 0.0
N506 N 0.38262 0.88963 0.86273 0.0
N507 N 0.39458 0.89038 0.77988 0.0
H508 H 0.58807 0.46241 0.75855 0.0
H509 H 0.56752 0.47106 0.57881 0.0
H510 H 0.61938 0.40862 0.69377 0.0
H511 H 0.53929 0.52639 0.64394 0.0
H512 H 0.58662 0.44796 0.62023 0.0
H513 H 0.57017 0.48587 0.71683 0.0
C514 C 0.5914 0.45555 0.73559 0.0
C515 C 0.60548 0.43339 0.72995 0.0
C516 C 0.57631 0.46519 0.62548 0.0
C517 C 0.58448 0.46026 0.68163 0.0
C518 C 0.56542 0.4785 0.60176 0.0
C519 C 0.55175 0.50087 0.6077 0.0
C520 C 0.57352 0.47417 0.65557 0.0
C521 C 0.54964 0.50932 0.63808 0.0
C522 C 0.58096 0.46894 0.71169 0.0
C523 C 0.60843 0.4253 0.6995 0.0
N524 N 0.56031 0.49599 0.66075 0.0
N525 N 0.5981 0.43869 0.67661 0.0
H526 H 0.94234 0.60685 0.25792 0.0
H527 H 0.95315 0.57549 0.07918 0.0
H528 H 0.90137 0.64858 0.19145 0.0
H529 H 1.00399 0.54581 0.14648 0.0
H530 H 0.93206 0.60095 0.1193 0.0
H531 H 0.96288 0.58265 0.21704 0.0
C532 C 0.93749 0.61086 0.23473 0.0
C533 C 0.91992 0.62983 0.22832 0.0
C534 C 0.94787 0.58889 0.12524 0.0
C535 C 0.94375 0.60203 0.18091 0.0
C536 C 0.95992 0.57436 0.10233 0.0
C537 C 0.98042 0.55848 0.10943 0.0
C538 C 0.95621 0.58735 0.15551 0.0
C539 C 0.98827 0.55772 0.13987 0.0
C540 C 0.94942 0.5971 0.21129 0.0
C541 C 0.91495 0.63437 0.1976 0.0
N542 N 0.97615 0.5718 0.16165 0.0
N543 N 0.92666 0.62053 0.17511 0.0
H544 H 0.37938 0.19072 0.11198 0.0
H545 H 0.49853 0.10047 0.12198 0.0
H546 H 0.41988 0.18312 0.19748 0.0
H547 H 0.42301 0.07646 0.06671 0.0
H548 H 0.47542 0.13532 0.14712 0.0
H549 H 0.40108 0.15359 0.09138 0.0
C550 C 0.39259 0.18119 0.12661 0.0
C551 C 0.39734 0.19001 0.1568 0.0
C552 C 0.4639 0.12214 0.1297 0.0
C553 C 0.42312 0.14794 0.1327 0.0
C554 C 0.47702 0.10232 0.11536 0.0
C555 C 0.46264 0.08553 0.09225 0.0
C556 C 0.43664 0.1256 0.12023 0.0
C557 C 0.43482 0.08883 0.08451 0.0
C558 C 0.40509 0.16005 0.11469 0.0
C559 C 0.41572 0.17734 0.17405 0.0
N560 N 0.42291 0.10875 0.09817 0.0
N561 N 0.42807 0.15702 0.1617 0.0
H562 H 0.14876 0.91445 0.61741 0.0
H563 H 0.10094 1.00162 0.48881 0.0
H564 H 0.20993 0.95009 0.54655 0.0
H565 H 0.07554 1.01444 0.58166 0.0
H566 H 0.13653 0.97593 0.50684 0.0
H567 H 0.11684 0.94502 0.6026 0.0
C568 C 0.15574 0.92882 0.59902 0.0
C569 C 0.18211 0.9294 0.58307 0.0
C570 C 0.12313 0.98445 0.52318 0.0
C571 C 0.14512 0.9636 0.56554 0.0
C572 C 0.10283 0.99895 0.51296 0.0
C573 C 0.08512 1.00974 0.53384 0.0
C574 C 0.12514 0.98026 0.55436 0.0
C575 C 0.08847 1.00593 0.56489 0.0
C576 C 0.13738 0.94612 0.59053 0.0
C577 C 0.18952 0.94822 0.559 0.0
N578 N 0.10789 0.99111 0.57429 0.0
N579 N 0.17092 0.96429 0.55069 0.0
H580 H 0.8014 0.39865 0.95108 0.0
H581 H 0.91798 0.53926 0.97927 0.0
H582 H 0.80045 0.47501 0.90451 0.0
H583 H 0.92938 0.45913 1.00878 0.0
H584 H 0.87259 0.51695 0.9556 0.0
H585 H 0.84602 0.4212 0.97567 0.0
C586 C 0.81056 0.42009 0.94577 0.0
C587 C 0.79691 0.43475 0.92535 0.0
C588 C 0.885 0.50425 0.96729 0.0
C589 C 0.84812 0.46101 0.95426 0.0
C590 C 0.91093 0.51699 0.98095 0.0
C591 C 0.9277 0.5011 0.99611 0.0
C592 C 0.87546 0.47536 0.96893 0.0
C593 C 0.91732 0.47228 0.99734 0.0
C594 C 0.83605 0.43302 0.96006 0.0
C595 C 0.80975 0.46279 0.92025 0.0
N596 N 0.89193 0.4604 0.98402 0.0
N597 N 0.83451 0.47494 0.93456 0.0
H598 H 0.69493 0.63231 0.39022 0.0
H599 H 0.6174 0.58484 0.54989 0.0
H600 H 0.74258 0.62544 0.47119 0.0
H601 H 0.57346 0.56863 0.46507 0.0
H602 H 0.6631 0.60208 0.52182 0.0
H603 H 0.65002 0.61117 0.41732 0.0
C604 C 0.69616 0.62619 0.41356 0.0
C605 C 0.72296 0.6309 0.42826 0.0
C606 C 0.64351 0.59462 0.50931 0.0
C607 C 0.67103 0.60707 0.45977 0.0
C608 C 0.61741 0.5848 0.52533 0.0
C609 C 0.59156 0.57536 0.50981 0.0
C610 C 0.6438 0.59539 0.47745 0.0
C611 C 0.59287 0.57572 0.47796 0.0
C612 C 0.67034 0.61422 0.4291 0.0
C613 C 0.72263 0.62288 0.45886 0.0
N614 N 0.61846 0.58579 0.46285 0.0
N615 N 0.69719 0.61158 0.47354 0.0
H616 H 0.26291 0.40179 0.131 0.0
H617 H 0.10881 0.37555 0.05097 0.0
H618 H 0.21226 0.32099 0.10971 0.0
H619 H 0.15106 0.45469 0.08747 0.0
H620 H 0.15085 0.35661 0.06414 0.0
H621 H 0.22675 0.4229 0.1062 0.0
C622 C 0.24448 0.38855 0.12054 0.0
C623 C 0.24032 0.35966 0.12261 0.0
C624 C 0.15102 0.37818 0.06906 0.0
C625 C 0.19891 0.38348 0.0946 0.0
C626 C 0.12694 0.38897 0.06171 0.0
C627 C 0.1262 0.41668 0.06846 0.0
C628 C 0.1746 0.39517 0.08331 0.0
C629 C 0.15068 0.43326 0.08171 0.0
C630 C 0.22377 0.40056 0.10663 0.0
C631 C 0.21601 0.34337 0.10892 0.0
N632 N 0.17378 0.42219 0.08893 0.0
N633 N 0.19611 0.3555 0.0957 0.0
H634 H 0.55799 0.24798 0.93711 0.0
H635 H 0.56693 0.09141 0.97653 0.0
H636 H 0.62528 0.20867 0.90013 0.0
H637 H 0.49076 0.12565 0.99324 0.0
H638 H 0.59107 0.13532 0.95259 0.0
H639 H 0.53522 0.20443 0.96134 0.0
C640 C 0.56796 0.23024 0.93376 0.0
C641 C 0.59372 0.23234 0.9162 0.0
C642 C 0.56908 0.1332 0.96153 0.0
C643 C 0.56778 0.18206 0.94485 0.0
C644 C 0.55535 0.10818 0.97528 0.0
C645 C 0.52673 0.10481 0.98678 0.0
C646 C 0.55421 0.15512 0.95959 0.0
C647 C 0.51277 0.12726 0.98455 0.0
C648 C 0.55497 0.20531 0.94789 0.0
C649 C 0.60574 0.20846 0.91366 0.0
N650 N 0.52661 0.15136 0.97132 0.0
N651 N 0.59275 0.18445 0.9278 0.0
H652 H 0.90091 0.85971 0.38282 0.0
H653 H 0.99826 0.93538 0.51787 0.0
H654 H 0.94977 0.81789 0.44142 0.0
H655 H 0.96347 0.98011 0.44917 0.0
H656 H 0.97875 0.89207 0.49144 0.0
H657 H 0.92156 0.90362 0.40795 0.0
C658 C 0.91594 0.8597 0.40099 0.0
C659 C 0.92354 0.83489 0.40994 0.0
C660 C 0.97543 0.91133 0.48205 0.0
C661 C 0.94735 0.88536 0.43895 0.0
C662 C 0.98655 0.93617 0.49719 0.0
C663 C 0.98262 0.96162 0.48578 0.0
C664 C 0.95992 0.91167 0.45531 0.0
C665 C 0.96717 0.9611 0.45883 0.0
C666 C 0.92785 0.88486 0.41524 0.0
C667 C 0.94345 0.83641 0.43344 0.0
N668 N 0.95632 0.93658 0.44462 0.0
N669 N 0.95448 0.86107 0.44717 0.0
H670 H 0.33998 0.75569 0.48561 0.0
H671 H 0.36101 0.61311 0.54914 0.0
H672 H 0.27785 0.70146 0.54281 0.0
H673 H 0.42723 0.67234 0.50197 0.0
H674 H 0.32432 0.63717 0.53109 0.0
H675 H 0.36456 0.7175 0.47481 0.0
C676 C 0.33099 0.73549 0.49513 0.0
C677 C 0.30749 0.73193 0.51595 0.0
C678 C 0.34681 0.6446 0.52418 0.0
C679 C 0.33565 0.68844 0.50418 0.0
C680 C 0.36776 0.63085 0.53445 0.0
C681 C 0.39726 0.64131 0.52778 0.0
C682 C 0.3555 0.66906 0.50736 0.0
C683 C 0.40478 0.66422 0.5085 0.0
C684 C 0.34505 0.71372 0.48903 0.0
C685 C 0.29621 0.70524 0.52702 0.0
N686 N 0.38408 0.67765 0.49942 0.0
N687 N 0.3109 0.68466 0.52167 0.0
H688 H 0.75885 0.85097 0.68353 0.0
H689 H 0.93098 0.88157 0.6787 0.0
H690 H 0.80877 0.80003 0.7288 0.0
H691 H 0.88073 0.91939 0.6175 0.0
H692 H 0.88646 0.84962 0.69528 0.0
H693 H 0.80295 0.87395 0.65607 0.0
C694 C 0.77901 0.84427 0.68719 0.0
C695 C 0.78024 0.82372 0.70855 0.0
C696 C 0.88523 0.86467 0.67793 0.0
C697 C 0.83081 0.8502 0.67779 0.0
C698 C 0.9106 0.88301 0.66864 0.0
C699 C 0.9095 0.90322 0.64684 0.0
C700 C 0.85853 0.86686 0.66565 0.0
C701 C 0.88258 0.90399 0.63424 0.0
C702 C 0.80417 0.85738 0.67158 0.0
C703 C 0.80684 0.81568 0.7124 0.0
N704 N 0.85812 0.8863 0.64409 0.0
N705 N 0.83119 0.82927 0.69756 0.0
H706 H 0.59641 0.15878 0.35395 0.0
H707 H 0.63169 0.07539 0.20661 0.0
H708 H 0.64857 0.0964 0.35448 0.0
H709 H 0.56594 0.1248 0.20924 0.0
H710 H 0.63895 0.08394 0.26074 0.0
H711 H 0.58506 0.14723 0.30092 0.0
C712 C 0.60527 0.14252 0.34295 0.0
C713 C 0.62348 0.12854 0.35858 0.0
C714 C 0.62286 0.09286 0.24953 0.0
C715 C 0.61082 0.11539 0.29803 0.0
C716 C 0.61891 0.08819 0.2186 0.0
C717 C 0.59832 0.09956 0.20346 0.0
C718 C 0.60629 0.10924 0.26541 0.0
C719 C 0.58195 0.11556 0.22015 0.0
C720 C 0.59875 0.13589 0.31275 0.0
C721 C 0.6342 0.10749 0.34338 0.0
N722 N 0.5864 0.12007 0.25025 0.0
N723 N 0.62792 0.10173 0.31388 0.0
H724 H 0.43789 0.61365 0.30959 0.0
H725 H 0.45552 0.60009 0.48927 0.0
H726 H 0.40204 0.66314 0.37573 0.0
H727 H 0.48902 0.54955 0.42251 0.0
H728 H 0.43559 0.62323 0.44846 0.0
H729 H 0.45647 0.59005 0.35073 0.0
C730 C 0.43371 0.61952 0.33273 0.0
C731 C 0.41814 0.64051 0.33892 0.0
C732 C 0.44723 0.60704 0.44271 0.0
C733 C 0.43992 0.61349 0.38661 0.0
C734 C 0.45859 0.5937 0.46608 0.0
C735 C 0.47401 0.57266 0.4595 0.0
C736 C 0.45129 0.59944 0.41233 0.0
C737 C 0.47732 0.56555 0.42885 0.0
C738 C 0.44454 0.60606 0.35631 0.0
C739 C 0.41413 0.6474 0.3696 0.0
N740 N 0.46615 0.57888 0.40654 0.0
N741 N 0.42487 0.63395 0.39217 0.0
H742 H 0.13685 0.43575 0.87809 0.0
H743 H 0.0154 0.52394 0.92052 0.0
H744 H 0.07525 0.4546 0.81493 0.0
H745 H 0.07423 0.50413 0.98607 0.0
H746 H 0.03725 0.49823 0.88197 0.0
H747 H 0.11484 0.46037 0.91788 0.0
C748 C 0.1188 0.44511 0.87245 0.0
C749 C 0.108 0.44293 0.84285 0.0
C750 C 0.04545 0.4994 0.90475 0.0
C751 C 0.08243 0.47115 0.88872 0.0
C752 C 0.03295 0.51413 0.92684 0.0
C753 C 0.04302 0.5163 0.95662 0.0
C754 C 0.0684 0.48661 0.91225 0.0
C755 C 0.06579 0.50302 0.96341 0.0
C756 C 0.10612 0.45906 0.89533 0.0
C757 C 0.0842 0.45525 0.83733 0.0
N758 N 0.07775 0.48883 0.94142 0.0
N759 N 0.07237 0.46878 0.85989 0.0
H760 H 0.63704 0.88415 0.95294 0.0
H761 H 0.516 0.97356 0.94662 0.0
H762 H 0.5928 0.89105 0.86992 0.0
H763 H 0.59225 0.99853 1.0006 0.0
H764 H 0.53882 0.93849 0.92167 0.0
H765 H 0.61505 0.92095 0.97536 0.0
C766 C 0.62244 0.89328 0.93962 0.0
C767 C 0.61657 0.88469 0.90967 0.0
C768 C 0.55059 0.95188 0.93877 0.0
C769 C 0.59145 0.92641 0.93498 0.0
C770 C 0.53765 0.97185 0.95297 0.0
C771 C 0.55236 0.98901 0.97557 0.0
C772 C 0.57802 0.94863 0.94789 0.0
C773 C 0.58029 0.98588 0.98307 0.0
C774 C 0.61016 0.91435 0.95226 0.0
C775 C 0.59779 0.89725 0.89311 0.0
N776 N 0.59208 0.96579 0.96955 0.0
N777 N 0.58566 0.9174 0.90608 0.0
H778 H 0.84132 0.13343 0.48685 0.0
H779 H 0.90546 1.00569 0.54446 0.0
H780 H 0.79231 0.06715 0.54181 0.0
H781 H 0.95872 0.08136 0.50989 0.0
H782 H 0.86211 1.02434 0.53555 0.0
H783 H 0.88311 0.11131 0.48796 0.0
C784 C 0.83937 0.1143 0.49929 0.0
C785 C 0.81335 0.1023 0.51459 0.0
C786 C 0.88328 0.03677 0.52971 0.0
C787 C 0.86094 0.07663 0.51538 0.0
C788 C 0.90797 1.02612 0.53467 0.0
C789 C 0.9356 0.04221 0.52819 0.0
C790 C 0.88635 0.06361 0.51805 0.0
C791 C 0.93775 0.06843 0.51539 0.0
C792 C 0.86318 0.10159 0.4997 0.0
C793 C 0.81186 0.07707 0.52958 0.0
N794 N 0.9134 0.07843 0.51089 0.0
N795 N 0.83538 0.06512 0.52969 0.0
H796 H 0.22244 0.59685 0.165 0.0
H797 H 0.09296 0.61705 0.0587 0.0
H798 H 0.22211 0.67272 0.11745 0.0
H799 H 0.10566 0.53668 0.08578 0.0
H800 H 0.13824 0.63838 0.08319 0.0
H801 H 0.1776 0.57511 0.13966 0.0
C802 C 0.21289 0.60898 0.14933 0.0
C803 C 0.22617 0.63668 0.14334 0.0
C804 C 0.13118 0.61607 0.08369 0.0
C805 C 0.17471 0.61187 0.11423 0.0
C806 C 0.10526 0.60385 0.06972 0.0
C807 C 0.09538 0.57497 0.07008 0.0
C808 C 0.14731 0.59941 0.09855 0.0
C809 C 0.11239 0.559 0.08478 0.0
C810 C 0.18738 0.59649 0.13473 0.0
C811 C 0.21288 0.65125 0.12255 0.0
N812 N 0.13736 0.57142 0.09855 0.0
N813 N 0.18789 0.63876 0.10892 0.0
H814 H 0.31986 0.47756 0.67225 0.0
H815 H 0.41344 0.47581 0.51796 0.0
H816 H 0.29874 0.41481 0.6031 0.0
H817 H 0.44963 0.51846 0.59831 0.0
H818 H 0.36801 0.4586 0.54636 0.0
H819 H 0.36427 0.49796 0.6431 0.0
C820 C 0.32445 0.46819 0.65086 0.0
C821 C 0.30558 0.44432 0.64021 0.0
C822 C 0.38584 0.47181 0.55778 0.0
C823 C 0.35625 0.46768 0.60664 0.0
C824 C 0.41178 0.48173 0.54154 0.0
C825 C 0.43546 0.49853 0.55579 0.0
C826 C 0.38328 0.47897 0.5885 0.0
C827 C 0.43195 0.50554 0.58643 0.0
C828 C 0.34987 0.47975 0.63433 0.0
C829 C 0.31277 0.43299 0.61239 0.0
N830 N 0.40638 0.49578 0.60175 0.0
N831 N 0.33738 0.44479 0.59659 0.0
H832 H 0.7809 0.7269 0.96968 0.0
H833 H 0.90234 0.63958 0.92701 0.0
H834 H 0.7954 0.6962 0.87981 0.0
H835 H 0.89578 0.67798 1.01453 0.0
H836 H 0.86067 0.65748 0.91064 0.0
H837 H 0.82069 0.70671 0.98778 0.0
C838 C 0.79236 0.71588 0.95377 0.0
C839 C 0.78465 0.71321 0.92317 0.0
C840 C 0.86829 0.662 0.93344 0.0
C841 C 0.83009 0.68994 0.94377 0.0
C842 C 0.89201 0.65165 0.94286 0.0
C843 C 0.90258 0.65729 0.97219 0.0
C844 C 0.85491 0.6781 0.95349 0.0
C845 C 0.88857 0.6734 0.9916 0.0
C846 C 0.81501 0.7043 0.96414 0.0
C847 C 0.8001 0.69841 0.90369 0.0
N848 N 0.86543 0.68323 0.98191 0.0
N849 N 0.82205 0.68742 0.9143 0.0
H850 H 0.39029 0.86579 0.17232 0.0
H851 H 0.52543 0.94904 0.07455 0.0
H852 H 0.45828 0.82848 0.13346 0.0
H853 H 0.44884 0.98205 0.09347 0.0
H854 H 0.50182 0.90564 0.09861 0.0
H855 H 0.41179 0.90902 0.14629 0.0
C856 C 0.40961 0.86648 0.15826 0.0
C857 C 0.42237 0.84308 0.15532 0.0
C858 C 0.49003 0.92225 0.09749 0.0
C859 C 0.44745 0.89312 0.1257 0.0
C860 C 0.50354 0.94713 0.08376 0.0
C861 C 0.48915 0.96929 0.08206 0.0
C862 C 0.46185 0.91936 0.11007 0.0
C863 C 0.46073 0.9655 0.09428 0.0
C864 C 0.42195 0.89134 0.14347 0.0
C865 C 0.44779 0.84583 0.1371 0.0
N866 N 0.44808 0.94109 0.10797 0.0
N867 N 0.45943 0.87025 0.12316 0.0
H868 H 0.07394 0.22761 0.69146 0.0
H869 H 0.07861 0.13075 0.54529 0.0
H870 H 0.1388 0.24583 0.61961 0.0
H871 H 0.03008 0.10111 0.6269 0.0
H872 H 0.09782 0.17448 0.57091 0.0
H873 H 0.05439 0.18294 0.6669 0.0
C874 C 0.08401 0.22231 0.67049 0.0
C875 C 0.10818 0.24056 0.6577 0.0
C876 C 0.08304 0.15842 0.58331 0.0
C877 C 0.08582 0.18943 0.6294 0.0
C878 C 0.07197 0.13336 0.56865 0.0
C879 C 0.05265 0.11202 0.58391 0.0
C880 C 0.07456 0.16259 0.61348 0.0
C881 C 0.045 0.11683 0.61424 0.0
C882 C 0.07294 0.19672 0.65658 0.0
C883 C 0.12041 0.23238 0.63056 0.0
N884 N 0.05582 0.14162 0.62795 0.0
N885 N 0.10906 0.2076 0.61733 0.0
H886 H 0.64294 0.28242 0.58415 0.0
H887 H 0.65254 0.43392 0.52038 0.0
H888 H 0.71748 0.32929 0.5356 0.0
H889 H 0.57436 0.38113 0.55589 0.0
H890 H 0.68077 0.40142 0.53919 0.0
H891 H 0.62279 0.32411 0.58844 0.0
C892 C 0.65553 0.3017 0.57526 0.0
C893 C 0.68159 0.30232 0.55889 0.0
C894 C 0.65749 0.39717 0.54328 0.0
C895 C 0.65833 0.34983 0.56298 0.0
C896 C 0.6414 0.41571 0.5326 0.0
C897 C 0.61104 0.40981 0.53602 0.0
C898 C 0.64308 0.37262 0.55746 0.0
C899 C 0.59767 0.38601 0.55207 0.0
C900 C 0.64387 0.32545 0.57744 0.0
C901 C 0.69694 0.32785 0.54775 0.0
N902 N 0.61374 0.3681 0.56188 0.0
N903 N 0.6848 0.3505 0.54946 0.0
loop_
_geom_bond_atom_site_label_1
_geom_bond_atom_site_label_2
_geom_bond_distance
_geom_bond_site_symmetry_2
_ccdc_geom_bond_type
C0 C1 1.386 . S
C0 C2 1.397 . S
C0 H24 0.931 . S
C1 C0 1.386 . S
C1 C5 1.397 . S
C2 C0 1.397 . S
C2 C3 1.384 . S
C2 H25 0.930 . S
C3 C2 1.384 . S
C3 C4 1.377 . S
C3 C6 1.481 . S
C4 C3 1.377 . S
C4 C5 1.389 . S
C4 H26 0.929 . S
C5 C1 1.397 . S
C5 C4 1.389 . S
C5 H27 0.931 . S
C6 C3 1.481 . S
C6 C7 1.387 . S
C6 C11 1.390 . S
C7 C6 1.387 . S
C7 C8 1.401 . S
C7 H28 0.930 . S
C8 C7 1.401 . S
C8 C9 1.376 . S
C8 C17 1.511 . S
C9 C8 1.376 . S
C9 C10 1.392 . S
C9 H30 0.931 . S
C10 C9 1.392 . S
C10 C11 1.361 . S
C10 C12 1.500 . S
C11 C6 1.390 . S
C11 C10 1.361 . S
C11 H29 0.931 . S
C12 C10 1.500 . S
C12 C13 1.371 . S
C12 C14 1.365 . S
C13 C12 1.371 . S
C13 C23 1.386 . S
C13 H31 0.931 . S
C14 C12 1.365 . S
C14 C15 1.409 . S
C14 H32 0.929 . S
C15 C14 1.409 . S
C15 C16 1.380 . S
C15 H33 0.930 . S
C16 C15 1.380 . S
C16 C23 1.357 . S
C17 C8 1.511 . S
C17 C18 1.341 . S
C17 C19 1.371 . S
C18 C17 1.341 . S
C18 C22 1.394 . S
C18 H34 0.930 . S
C19 C17 1.371 . S
C19 C20 1.392 . S
C19 H35 0.931 . S
C20 C19 1.392 . S
C20 C21 1.331 . S
C20 H38 0.932 . S
C21 C20 1.331 . S
C21 C22 1.336 . S
C22 C18 1.394 . S
C22 C21 1.336 . S
C22 H37 0.929 . S
C23 C13 1.386 . S
C23 C16 1.357 . S
C23 H36 0.928 . S
H24 C0 0.931 . S
H25 C2 0.930 . S
H26 C4 0.929 . S
H27 C5 0.931 . S
H28 C7 0.930 . S
H29 C11 0.931 . S
H30 C9 0.931 . S
H31 C13 0.931 . S
H32 C14 0.929 . S
H33 C15 0.930 . S
H34 C18 0.930 . S
H35 C19 0.931 . S
H36 C23 0.928 . S
H37 C22 0.929 . S
H38 C20 0.932 . S
C39 C40 1.386 . S
C39 C41 1.397 . S
C39 H63 0.931 . S
C40 C39 1.386 . S
C40 C44 1.397 . S
C41 C39 1.397 . S
C41 C42 1.384 . S
C41 H64 0.930 . S
C42 C41 1.384 . S
C42 C43 1.377 . S
C42 C45 1.481 . S
C43 C42 1.377 . S
C43 C44 1.389 . S
C43 H65 0.929 . S
C44 C40 1.397 . S
C44 C43 1.389 . S
C44 H66 0.931 . S
C45 C42 1.481 . S
C45 C46 1.387 . S
C45 C50 1.390 . S
C46 C45 1.387 . S
C46 C47 1.401 . S
C46 H67 0.930 . S
C47 C46 1.401 . S
C47 C48 1.376 . S
C47 C56 1.511 . S
C48 C47 1.376 . S
C48 C49 1.392 . S
C48 H69 0.931 . S
C49 C48 1.392 . S
C49 C50 1.361 . S
C49 C51 1.500 . S
C50 C45 1.390 . S
C50 C49 1.361 . S
C50 H68 0.931 . S
C51 C49 1.500 . S
C51 C52 1.371 . S
C51 C53 1.365 . S
C52 C51 1.371 . S
C52 C62 1.386 . S
C52 H70 0.931 . S
C53 C51 1.365 . S
C53 C54 1.409 . S
C53 H71 0.929 . S
C54 C53 1.409 . S
C54 C55 1.380 . S
C54 H72 0.930 . S
C55 C54 1.380 . S
C55 C62 1.357 . S
C56 C47 1.511 . S
C56 C57 1.341 . S
C56 C58 1.371 . S
C57 C56 1.341 . S
C57 C61 1.394 . S
C57 H73 0.930 . S
C58 C56 1.371 . S
C58 C59 1.392 . S
C58 H74 0.931 . S
C59 C58 1.392 . S
C59 C60 1.331 . S
C59 H77 0.932 . S
C60 C59 1.331 . S
C60 C61 1.336 . S
C61 C57 1.394 . S
C61 C60 1.336 . S
C61 H76 0.929 . S
C62 C52 1.386 . S
C62 C55 1.357 . S
C62 H75 0.928 . S
H63 C39 0.931 . S
H64 C41 0.930 . S
H65 C43 0.929 . S
H66 C44 0.931 . S
H67 C46 0.930 . S
H68 C50 0.931 . S
H69 C48 0.931 . S
H70 C52 0.931 . S
H71 C53 0.929 . S
H72 C54 0.930 . S
H73 C57 0.930 . S
H74 C58 0.931 . S
H75 C62 0.928 . S
H76 C61 0.929 . S
H77 C59 0.932 . S
C78 C79 1.386 . S
C78 C80 1.397 . S
C78 H102 0.931 . S
C79 C78 1.386 . S
C79 C83 1.397 . S
C80 C78 1.397 . S
C80 C81 1.384 . S
C80 H103 0.930 . S
C81 C80 1.384 . S
C81 C82 1.377 . S
C81 C84 1.481 . S
C82 C81 1.377 . S
C82 C83 1.389 . S
C82 H104 0.929 . S
C83 C79 1.397 . S
C83 C82 1.389 . S
C83 H105 0.931 . S
C84 C81 1.481 . S
C84 C85 1.387 . S
C84 C89 1.390 . S
C85 C84 1.387 . S
C85 C86 1.401 . S
C85 H106 0.930 . S
C86 C85 1.401 . S
C86 C87 1.376 . S
C86 C95 1.511 . S
C87 C86 1.376 . S
C87 C88 1.392 . S
C87 H108 0.931 . S
C88 C87 1.392 . S
C88 C89 1.361 . S
C88 C90 1.500 . S
C89 C84 1.390 . S
C89 C88 1.361 . S
C89 H107 0.931 . S
C90 C88 1.500 . S
C90 C91 1.371 . S
C90 C92 1.365 . S
C91 C90 1.371 . S
C91 C101 1.386 . S
C91 H109 0.931 . S
C92 C90 1.365 . S
C92 C93 1.409 . S
C92 H110 0.929 . S
C93 C92 1.409 . S
C93 C94 1.380 . S
C93 H111 0.930 . S
C94 C93 1.380 . S
C94 C101 1.357 . S
C95 C86 1.511 . S
C95 C96 1.341 . S
C95 C97 1.371 . S
C96 C95 1.341 . S
C96 C100 1.394 . S
C96 H112 0.930 . S
C97 C95 1.371 . S
C97 C98 1.392 . S
C97 H113 0.931 . S
C98 C97 1.392 . S
C98 C99 1.331 . S
C98 H116 0.932 . S
C99 C98 1.331 . S
C99 C100 1.336 . S
C100 C96 1.394 . S
C100 C99 1.336 . S
C100 H115 0.929 . S
C101 C91 1.386 . S
C101 C94 1.357 . S
C101 H114 0.928 . S
H102 C78 0.931 . S
H103 C80 0.930 . S
H104 C82 0.929 . S
H105 C83 0.931 . S
H106 C85 0.930 . S
H107 C89 0.931 . S
H108 C87 0.931 . S
H109 C91 0.931 . S
H110 C92 0.929 . S
H111 C93 0.930 . S
H112 C96 0.930 . S
H113 C97 0.931 . S
H114 C101 0.928 . S
H115 C100 0.929 . S
H116 C98 0.932 . S
C117 C118 1.386 . S
C117 C119 1.397 . S
C117 H141 0.931 . S
C118 C117 1.386 . S
C118 C122 1.397 . S
C119 C117 1.397 . S
C119 C120 1.384 . S
C119 H142 0.930 . S
C120 C119 1.384 . S
C120 C121 1.377 . S
C120 C123 1.481 . S
C121 C120 1.377 . S
C121 C122 1.389 . S
C121 H143 0.929 . S
C122 C118 1.397 . S
C122 C121 1.389 . S
C122 H144 0.931 . S
C123 C120 1.481 . S
C123 C124 1.387 . S
C123 C128 1.390 . S
C124 C123 1.387 . S
C124 C125 1.401 . S
C124 H145 0.930 . S
C125 C124 1.401 . S
C125 C126 1.376 . S
C125 C134 1.511 . S
C126 C125 1.376 . S
C126 C127 1.392 . S
C126 H147 0.931 . S
C127 C126 1.392 . S
C127 C128 1.361 . S
C127 C129 1.500 . S
C128 C123 1.390 . S
C128 C127 1.361 . S
C128 H146 0.931 . S
C129 C127 1.500 . S
C129 C130 1.371 . S
C129 C131 1.365 . S
C130 C129 1.371 . S
C130 C140 1.386 . S
C130 H148 0.931 . S
C131 C129 1.365 . S
C131 C132 1.409 . S
C131 H149 0.929 . S
C132 C131 1.409 . S
C132 C133 1.380 . S
C132 H150 0.930 . S
C133 C132 1.380 . S
C133 C140 1.357 . S
C134 C125 1.511 . S
C134 C135 1.341 . S
C134 C136 1.371 . S
C135 C134 1.341 . S
C135 C139 1.394 . S
C135 H151 0.930 . S
C136 C134 1.371 . S
C136 C137 1.392 . S
C136 H152 0.931 . S
C137 C136 1.392 . S
C137 C138 1.331 . S
C137 H155 0.932 . S
C138 C137 1.331 . S
C138 C139 1.336 . S
C139 C135 1.394 . S
C139 C138 1.336 . S
C139 H154 0.929 . S
C140 C130 1.386 . S
C140 C133 1.357 . S
C140 H153 0.928 . S
H141 C117 0.931 . S
H142 C119 0.930 . S
H143 C121 0.929 . S
H144 C122 0.931 . S
H145 C124 0.930 . S
H146 C128 0.931 . S
H147 C126 0.931 . S
H148 C130 0.931 . S
H149 C131 0.929 . S
H150 C132 0.930 . S
H151 C135 0.930 . S
H152 C136 0.931 . S
H153 C140 0.928 . S
H154 C139 0.929 . S
H155 C137 0.932 . S
C156 C157 1.386 . S
C156 C158 1.397 . S
C156 H180 0.931 . S
C157 C156 1.386 . S
C157 C161 1.397 . S
C158 C156 1.397 . S
C158 C159 1.384 . S
C158 H181 0.930 . S
C159 C158 1.384 . S
C159 C160 1.377 . S
C159 C162 1.481 . S
C160 C159 1.377 . S
C160 C161 1.389 . S
C160 H182 0.929 . S
C161 C157 1.397 . S
C161 C160 1.389 . S
C161 H183 0.931 . S
C162 C159 1.481 . S
C162 C163 1.387 . S
C162 C167 1.390 . S
C163 C162 1.387 . S
C163 C164 1.401 . S
C163 H184 0.930 . S
C164 C163 1.401 . S
C164 C165 1.376 . S
C164 C173 1.511 . S
C165 C164 1.376 . S
C165 C166 1.392 . S
C165 H186 0.931 . S
C166 C165 1.392 . S
C166 C167 1.361 . S
C166 C168 1.500 . S
C167 C162 1.390 . S
C167 C166 1.361 . S
C167 H185 0.931 . S
C168 C166 1.500 . S
C168 C169 1.371 . S
C168 C170 1.365 . S
C169 C168 1.371 . S
C169 C179 1.386 . S
C169 H187 0.931 . S
C170 C168 1.365 . S
C170 C171 1.409 . S
C170 H188 0.929 . S
C171 C170 1.409 . S
C171 C172 1.380 . S
C171 H189 0.930 . S
C172 C171 1.380 . S
C172 C179 1.357 . S
C173 C164 1.511 . S
C173 C174 1.341 . S
C173 C175 1.371 . S
C174 C173 1.341 . S
C174 C178 1.394 . S
C174 H190 0.930 . S
C175 C173 1.371 . S
C175 C176 1.392 . S
C175 H191 0.931 . S
C176 C175 1.392 . S
C176 C177 1.331 . S
C176 H194 0.932 . S
C177 C176 1.331 . S
C177 C178 1.336 . S
C178 C174 1.394 . S
C178 C177 1.336 . S
C178 H193 0.929 . S
C179 C169 1.386 . S
C179 C172 1.357 . S
C179 H192 0.928 . S
H180 C156 0.931 . S
H181 C158 0.930 . S
H182 C160 0.929 . S
H183 C161 0.931 . S
H184 C163 0.930 . S
H185 C167 0.931 . S
H186 C165 0.931 . S
H187 C169 0.931 . S
H188 C170 0.929 . S
H189 C171 0.930 . S
H190 C174 0.930 . S
H191 C175 0.931 . S
H192 C179 0.928 . S
H193 C178 0.929 . S
H194 C176 0.932 . S
C195 C196 1.386 . S
C195 C197 1.397 . S
C195 H219 0.931 . S
C196 C195 1.386 . S
C196 C200 1.397 . S
C197 C195 1.397 . S
C197 C198 1.384 . S
C197 H220 0.930 . S
C198 C197 1.384 . S
C198 C199 1.377 . S
C198 C201 1.481 . S
C199 C198 1.377 . S
C199 C200 1.389 . S
C199 H221 0.929 . S
C200 C196 1.397 . S
C200 C199 1.389 . S
C200 H222 0.931 . S
C201 C198 1.481 . S
C201 C202 1.387 . S
C201 C206 1.390 . S
C202 C201 1.387 . S
C202 C203 1.401 . S
C202 H223 0.930 . S
C203 C202 1.401 . S
C203 C204 1.376 . S
C203 C212 1.511 . S
C204 C203 1.376 . S
C204 C205 1.392 . S
C204 H225 0.931 . S
C205 C204 1.392 . S
C205 C206 1.361 . S
C205 C207 1.500 . S
C206 C201 1.390 . S
C206 C205 1.361 . S
C206 H224 0.931 . S
C207 C205 1.500 . S
C207 C208 1.371 . S
C207 C209 1.365 . S
C208 C207 1.371 . S
C208 C218 1.386 . S
C208 H226 0.931 . S
C209 C207 1.365 . S
C209 C210 1.409 . S
C209 H227 0.929 . S
C210 C209 1.409 . S
C210 C211 1.380 . S
C210 H228 0.930 . S
C211 C210 1.380 . S
C211 C218 1.357 . S
C212 C203 1.511 . S
C212 C213 1.341 . S
C212 C214 1.371 . S
C213 C212 1.341 . S
C213 C217 1.394 . S
C213 H229 0.930 . S
C214 C212 1.371 . S
C214 C215 1.392 . S
C214 H230 0.931 . S
C215 C214 1.392 . S
C215 C216 1.331 . S
C215 H233 0.932 . S
C216 C215 1.331 . S
C216 C217 1.336 . S
C217 C213 1.394 . S
C217 C216 1.336 . S
C217 H232 0.929 . S
C218 C208 1.386 . S
C218 C211 1.357 . S
C218 H231 0.928 . S
H219 C195 0.931 . S
H220 C197 0.930 . S
H221 C199 0.929 . S
H222 C200 0.931 . S
H223 C202 0.930 . S
H224 C206 0.931 . S
H225 C204 0.931 . S
H226 C208 0.931 . S
H227 C209 0.929 . S
H228 C210 0.930 . S
H229 C213 0.930 . S
H230 C214 0.931 . S
H231 C218 0.928 . S
H232 C217 0.929 . S
H233 C215 0.932 . S
C234 C235 1.386 . S
C234 C236 1.397 . S
C234 H258 0.931 . S
C235 C234 1.386 . S
C235 C239 1.397 . S
C236 C234 1.397 . S
C236 C237 1.384 . S
C236 H259 0.930 . S
C237 C236 1.384 . S
C237 C238 1.377 . S
C237 C240 1.481 . S
C238 C237 1.377 . S
C238 C239 1.389 . S
C238 H260 0.929 . S
C239 C235 1.397 . S
C239 C238 1.389 . S
C239 H261 0.931 . S
C240 C237 1.481 . S
C240 C241 1.387 . S
C240 C245 1.390 . S
C241 C240 1.387 . S
C241 C242 1.401 . S
C241 H262 0.930 . S
C242 C241 1.401 . S
C242 C243 1.376 . S
C242 C251 1.511 . S
C243 C242 1.376 . S
C243 C244 1.392 . S
C243 H264 0.931 . S
C244 C243 1.392 . S
C244 C245 1.361 . S
C244 C246 1.500 . S
C245 C240 1.390 . S
C245 C244 1.361 . S
C245 H263 0.931 . S
C246 C244 1.500 . S
C246 C247 1.371 . S
C246 C248 1.365 . S
C247 C246 1.371 . S
C247 C257 1.386 . S
C247 H265 0.931 . S
C248 C246 1.365 . S
C248 C249 1.409 . S
C248 H266 0.929 . S
C249 C248 1.409 . S
C249 C250 1.380 . S
C249 H267 0.930 . S
C250 C249 1.380 . S
C250 C257 1.357 . S
C251 C242 1.511 . S
C251 C252 1.341 . S
C251 C253 1.371 . S
C252 C251 1.341 . S
C252 C256 1.394 . S
C252 H268 0.930 . S
C253 C251 1.371 . S
C253 C254 1.392 . S
C253 H269 0.931 . S
C254 C253 1.392 . S
C254 C255 1.331 . S
C254 H272 0.932 . S
C255 C254 1.331 . S
C255 C256 1.336 . S
C256 C252 1.394 . S
C256 C255 1.336 . S
C256 H271 0.929 . S
C257 C247 1.386 . S
C257 C250 1.357 . S
C257 H270 0.928 . S
H258 C234 0.931 . S
H259 C236 0.930 . S
H260 C238 0.929 . S
H261 C239 0.931 . S
H262 C241 0.930 . S
H263 C245 0.931 . S
H264 C243 0.931 . S
H265 C247 0.931 . S
H266 C248 0.929 . S
H267 C249 0.930 . S
H268 C252 0.930 . S
H269 C253 0.931 . S
H270 C257 0.928 . S
H271 C256 0.929 . S
H272 C254 0.932 . S
C273 C274 1.386 . S
C273 C275 1.397 . S
C273 H297 0.931 . S
C274 C273 1.386 . S
C274 C278 1.397 . S
C275 C273 1.397 . S
C275 C276 1.384 . S
C275 H298 0.930 . S
C276 C275 1.384 . S
C276 C277 1.377 . S
C276 C279 1.481 . S
C277 C276 1.377 . S
C277 C278 1.389 . S
C277 H299 0.929 . S
C278 C274 1.397 . S
C278 C277 1.389 . S
C278 H300 0.931 . S
C279 C276 1.481 . S
C279 C280 1.387 . S
C279 C284 1.390 . S
C280 C279 1.387 . S
C280 C281 1.401 . S
C280 H301 0.930 . S
C281 C280 1.401 . S
C281 C282 1.376 . S
C281 C290 1.511 . S
C282 C281 1.376 . S
C282 C283 1.392 . S
C282 H303 0.931 . S
C283 C282 1.392 . S
C283 C284 1.361 . S
C283 C285 1.500 . S
C284 C279 1.390 . S
C284 C283 1.361 . S
C284 H302 0.931 . S
C285 C283 1.500 . S
C285 C286 1.371 . S
C285 C287 1.365 . S
C286 C285 1.371 . S
C286 C296 1.386 . S
C286 H304 0.931 . S
C287 C285 1.365 . S
C287 C288 1.409 . S
C287 H305 0.929 . S
C288 C287 1.409 . S
C288 C289 1.380 . S
C288 H306 0.930 . S
C289 C288 1.380 . S
C289 C296 1.357 . S
C290 C281 1.511 . S
C290 C291 1.341 . S
C290 C292 1.371 . S
C291 C290 1.341 . S
C291 C295 1.394 . S
C291 H307 0.930 . S
C292 C290 1.371 . S
C292 C293 1.392 . S
C292 H308 0.931 . S
C293 C292 1.392 . S
C293 C294 1.331 . S
C293 H311 0.932 . S
C294 C293 1.331 . S
C294 C295 1.336 . S
C295 C291 1.394 . S
C295 C294 1.336 . S
C295 H310 0.929 . S
C296 C286 1.386 . S
C296 C289 1.357 . S
C296 H309 0.928 . S
H297 C273 0.931 . S
H298 C275 0.930 . S
H299 C277 0.929 . S
H300 C278 0.931 . S
H301 C280 0.930 . S
H302 C284 0.931 . S
H303 C282 0.931 . S
H304 C286 0.931 . S
H305 C287 0.929 . S
H306 C288 0.930 . S
H307 C291 0.930 . S
H308 C292 0.931 . S
H309 C296 0.928 . S
H310 C295 0.929 . S
H311 C293 0.932 . S
Ho312 C315 2.811 . S
Ho312 O332 2.322 . S
Ho312 O334 2.378 . S
Ho312 O335 2.524 . S
Ho312 O336 2.381 1_545 S
Ho312 O337 2.669 1_545 S
Ho312 O339 2.346 1_445 S
Ho312 O343 2.305 1_455 S
Ho313 C324 2.811 . S
Ho313 O333 2.346 1_665 S
Ho313 O337 2.305 1_655 S
Ho313 O338 2.322 . S
Ho313 O340 2.378 . S
Ho313 O341 2.524 . S
Ho313 O342 2.381 1_565 S
Ho313 O343 2.669 1_565 S
C314 O332 1.259 . S
C314 O333 1.268 . S
C315 Ho312 2.811 . S
C315 C316 1.488 . S
C315 O334 1.215 . S
C315 O335 1.289 . S
C316 C315 1.488 . S
C316 C317 1.348 . S
C316 C321 1.413 . S
C317 C316 1.348 . S
C317 C318 1.442 . S
C317 H344 0.930 . S
C318 C317 1.442 . S
C318 C319 1.381 . S
C318 H345 0.931 . S
C319 C318 1.381 . S
C319 C320 1.321 . S
C320 C319 1.321 . S
C320 C321 1.403 . S
C320 H346 0.934 . S
C321 C316 1.413 . S
C321 C320 1.403 . S
C321 H347 0.930 . S
C322 O336 1.275 . S
C322 O337 1.256 . S
C323 O338 1.259 . S
C323 O339 1.268 . S
C324 Ho313 2.811 . S
C324 C325 1.488 . S
C324 O340 1.215 . S
C324 O341 1.289 . S
C325 C324 1.488 . S
C325 C326 1.348 . S
C325 C330 1.413 . S
C326 C325 1.348 . S
C326 C327 1.442 . S
C326 H348 0.930 . S
C327 C326 1.442 . S
C327 C328 1.381 . S
C327 H349 0.931 . S
C328 C327 1.381 . S
C328 C329 1.321 . S
C329 C328 1.321 . S
C329 C330 1.403 . S
C329 H350 0.934 . S
C330 C325 1.413 . S
C330 C329 1.403 . S
C330 H351 0.930 . S
C331 O342 1.275 . S
C331 O343 1.256 . S
O332 Ho312 2.322 . S
O332 C314 1.259 . S
O333 Ho313 2.346 1_445 S
O333 C314 1.268 . S
O334 Ho312 2.378 . S
O334 C315 1.215 . S
O335 Ho312 2.524 . S
O335 C315 1.289 . S
O336 Ho312 2.381 1_565 S
O336 C322 1.275 . S
O337 Ho312 2.669 1_565 S
O337 Ho313 2.305 1_455 S
O337 C322 1.256 . S
O338 Ho313 2.322 . S
O338 C323 1.259 . S
O339 Ho312 2.346 1_665 S
O339 C323 1.268 . S
O340 Ho313 2.378 . S
O340 C324 1.215 . S
O341 Ho313 2.524 . S
O341 C324 1.289 . S
O342 Ho313 2.381 1_545 S
O342 C331 1.275 . S
O343 Ho312 2.305 1_655 S
O343 Ho313 2.669 1_545 S
O343 C331 1.256 . S
H344 C317 0.930 . S
H345 C318 0.931 . S
H346 C320 0.934 . S
H347 C321 0.930 . S
H348 C326 0.930 . S
H349 C327 0.931 . S
H350 C329 0.934 . S
H351 C330 0.930 . S
Ho352 C355 2.811 1_565 S
Ho352 O372 2.322 1_565 S
Ho352 O374 2.378 1_565 S
Ho352 O375 2.524 1_565 S
Ho352 O376 2.381 . S
Ho352 O377 2.669 . S
Ho352 O379 2.346 1_554 S
Ho352 O383 2.305 1_564 S
Ho353 C364 2.811 1_545 S
Ho353 O373 2.346 1_556 S
Ho353 O377 2.305 1_546 S
Ho353 O378 2.322 1_545 S
Ho353 O380 2.378 1_545 S
Ho353 O381 2.524 1_545 S
Ho353 O382 2.381 . S
Ho353 O383 2.669 . S
C354 O372 1.259 . S
C354 O373 1.268 . S
C355 Ho352 2.811 1_545 S
C355 C356 1.488 . S
C355 O374 1.215 . S
C355 O375 1.289 . S
C356 C355 1.488 . S
C356 C357 1.348 . S
C356 C361 1.413 . S
C357 C356 1.348 . S
C357 C358 1.442 . S
C357 H384 0.930 . S
C358 C357 1.442 . S
C358 C359 1.381 . S
C358 H385 0.931 . S
C359 C358 1.381 . S
C359 C360 1.321 . S
C360 C359 1.321 . S
C360 C361 1.403 . S
C360 H386 0.934 . S
C361 C356 1.413 . S
C361 C360 1.403 . S
C361 H387 0.930 . S
C362 O376 1.275 . S
C362 O377 1.256 . S
C363 O378 1.259 . S
C363 O379 1.268 . S
C364 Ho353 2.811 1_565 S
C364 C365 1.488 . S
C364 O380 1.215 . S
C364 O381 1.289 . S
C365 C364 1.488 . S
C365 C366 1.348 . S
C365 C370 1.413 . S
C366 C365 1.348 . S
C366 C367 1.442 . S
C366 H388 0.930 . S
C367 C366 1.442 . S
C367 C368 1.381 . S
C367 H389 0.931 . S
C368 C367 1.381 . S
C368 C369 1.321 . S
C369 C368 1.321 . S
C369 C370 1.403 . S
C369 H390 0.934 . S
C370 C365 1.413 . S
C370 C369 1.403 . S
C370 H391 0.930 . S
C371 O382 1.275 . S
C371 O383 1.256 . S
O372 Ho352 2.322 1_545 S
O372 C354 1.259 . S
O373 Ho353 2.346 1_554 S
O373 C354 1.268 . S
O374 Ho352 2.378 1_545 S
O374 C355 1.215 . S
O375 Ho352 2.524 1_545 S
O375 C355 1.289 . S
O376 Ho352 2.381 . S
O376 C362 1.275 . S
O377 Ho352 2.669 . S
O377 Ho353 2.305 1_564 S
O377 C362 1.256 . S
O378 Ho353 2.322 1_565 S
O378 C363 1.259 . S
O379 Ho352 2.346 1_556 S
O379 C363 1.268 . S
O380 Ho353 2.378 1_565 S
O380 C364 1.215 . S
O381 Ho353 2.524 1_565 S
O381 C364 1.289 . S
O382 Ho353 2.381 . S
O382 C371 1.275 . S
O383 Ho352 2.305 1_546 S
O383 Ho353 2.669 . S
O383 C371 1.256 . S
H384 C357 0.930 . S
H385 C358 0.931 . S
H386 C360 0.934 . S
H387 C361 0.930 . S
H388 C366 0.930 . S
H389 C367 0.931 . S
H390 C369 0.934 . S
H391 C370 0.930 . S
Ho392 C395 2.811 . S
Ho392 O412 2.322 . S
Ho392 O414 2.378 . S
Ho392 O415 2.524 . S
Ho392 O416 2.381 . S
Ho392 O417 2.669 . S
Ho392 O419 2.346 . S
Ho392 O423 2.305 . S
Ho393 C404 2.811 . S
Ho393 O413 2.346 . S
Ho393 O417 2.305 . S
Ho393 O418 2.322 . S
Ho393 O420 2.378 . S
Ho393 O421 2.524 . S
Ho393 O422 2.381 . S
Ho393 O423 2.669 . S
C394 O412 1.259 . S
C394 O413 1.268 . S
C395 Ho392 2.811 . S
C395 C396 1.488 . S
C395 O414 1.215 . S
C395 O415 1.289 . S
C396 C395 1.488 . S
C396 C397 1.348 . S
C396 C401 1.413 . S
C397 C396 1.348 . S
C397 C398 1.442 . S
C397 H424 0.930 . S
C398 C397 1.442 . S
C398 C399 1.381 . S
C398 H425 0.931 . S
C399 C398 1.381 . S
C399 C400 1.321 . S
C400 C399 1.321 . S
C400 C401 1.403 . S
C400 H426 0.934 . S
C401 C396 1.413 . S
C401 C400 1.403 . S
C401 H427 0.930 . S
C402 O416 1.275 . S
C402 O417 1.256 . S
C403 O418 1.259 . S
C403 O419 1.268 . S
C404 Ho393 2.811 . S
C404 C405 1.488 . S
C404 O420 1.215 . S
C404 O421 1.289 . S
C405 C404 1.488 . S
C405 C406 1.348 . S
C405 C410 1.413 . S
C406 C405 1.348 . S
C406 C407 1.442 . S
C406 H428 0.930 . S
C407 C406 1.442 . S
C407 C408 1.381 . S
C407 H429 0.931 . S
C408 C407 1.381 . S
C408 C409 1.321 . S
C409 C408 1.321 . S
C409 C410 1.403 . S
C409 H430 0.934 . S
C410 C405 1.413 . S
C410 C409 1.403 . S
C410 H431 0.930 . S
C411 O422 1.275 . S
C411 O423 1.256 . S
O412 Ho392 2.322 . S
O412 C394 1.259 . S
O413 Ho393 2.346 . S
O413 C394 1.268 . S
O414 Ho392 2.378 . S
O414 C395 1.215 . S
O415 Ho392 2.524 . S
O415 C395 1.289 . S
O416 Ho392 2.381 . S
O416 C402 1.275 . S
O417 Ho392 2.669 . S
O417 Ho393 2.305 . S
O417 C402 1.256 . S
O418 Ho393 2.322 . S
O418 C403 1.259 . S
O419 Ho392 2.346 . S
O419 C403 1.268 . S
O420 Ho393 2.378 . S
O420 C404 1.215 . S
O421 Ho393 2.524 . S
O421 C404 1.289 . S
O422 Ho393 2.381 . S
O422 C411 1.275 . S
O423 Ho392 2.305 . S
O423 Ho393 2.669 . S
O423 C411 1.256 . S
H424 C397 0.930 . S
H425 C398 0.931 . S
H426 C400 0.934 . S
H427 C401 0.930 . S
H428 C406 0.930 . S
H429 C407 0.931 . S
H430 C409 0.934 . S
H431 C410 0.930 . S
Ho432 C435 2.811 . S
Ho432 O452 2.322 . S
Ho432 O454 2.378 . S
Ho432 O455 2.524 . S
Ho432 O456 2.381 1_455 S
Ho432 O457 2.669 1_455 S
Ho432 O459 2.346 1_454 S
Ho432 O463 2.305 1_554 S
Ho433 C444 2.811 . S
Ho433 O453 2.346 1_656 S
Ho433 O457 2.305 1_556 S
Ho433 O458 2.322 . S
Ho433 O460 2.378 . S
Ho433 O461 2.524 . S
Ho433 O462 2.381 1_655 S
Ho433 O463 2.669 1_655 S
C434 O452 1.259 . S
C434 O453 1.268 . S
C435 Ho432 2.811 . S
C435 C436 1.488 . S
C435 O454 1.215 . S
C435 O455 1.289 . S
C436 C435 1.488 . S
C436 C437 1.348 . S
C436 C441 1.413 . S
C437 C436 1.348 . S
C437 C438 1.442 . S
C437 H464 0.930 . S
C438 C437 1.442 . S
C438 C439 1.381 . S
C438 H465 0.931 . S
C439 C438 1.381 . S
C439 C440 1.321 . S
C440 C439 1.321 . S
C440 C441 1.403 . S
C440 H466 0.934 . S
C441 C436 1.413 . S
C441 C440 1.403 . S
C441 H467 0.930 . S
C442 O456 1.275 . S
C442 O457 1.256 . S
C443 O458 1.259 . S
C443 O459 1.268 . S
C444 Ho433 2.811 . S
C444 C445 1.488 . S
C444 O460 1.215 . S
C444 O461 1.289 . S
C445 C444 1.488 . S
C445 C446 1.348 . S
C445 C450 1.413 . S
C446 C445 1.348 . S
C446 C447 1.442 . S
C446 H468 0.930 . S
C447 C446 1.442 . S
C447 C448 1.381 . S
C447 H469 0.931 . S
C448 C447 1.381 . S
C448 C449 1.321 . S
C449 C448 1.321 . S
C449 C450 1.403 . S
C449 H470 0.934 . S
C450 C445 1.413 . S
C450 C449 1.403 . S
C450 H471 0.930 . S
C451 O462 1.275 . S
C451 O463 1.256 . S
O452 Ho432 2.322 . S
O452 C434 1.259 . S
O453 Ho433 2.346 1_454 S
O453 C434 1.268 . S
O454 Ho432 2.378 . S
O454 C435 1.215 . S
O455 Ho432 2.524 . S
O455 C435 1.289 . S
O456 Ho432 2.381 1_655 S
O456 C442 1.275 . S
O457 Ho432 2.669 1_655 S
O457 Ho433 2.305 1_554 S
O457 C442 1.256 . S
O458 Ho433 2.322 . S
O458 C443 1.259 . S
O459 Ho432 2.346 1_656 S
O459 C443 1.268 . S
O460 Ho433 2.378 . S
O460 C444 1.215 . S
O461 Ho433 2.524 . S
O461 C444 1.289 . S
O462 Ho433 2.381 1_455 S
O462 C451 1.275 . S
O463 Ho432 2.305 1_556 S
O463 Ho433 2.669 1_455 S
O463 C451 1.256 . S
H464 C437 0.930 . S
H465 C438 0.931 . S
H466 C440 0.934 . S
H467 C441 0.930 . S
H468 C446 0.930 . S
H469 C447 0.931 . S
H470 C449 0.934 . S
H471 C450 0.930 . S
H472 C478 0.930 . S
H473 C482 0.930 . S
H474 C487 0.929 . S
H475 C485 0.929 . S
H476 C480 0.929 . S
H477 C486 0.929 . S
C478 H472 0.930 . S
C478 C479 1.367 . S
C478 C486 1.378 . S
C479 C478 1.367 . S
C479 C487 1.433 . S
C480 H476 0.929 . S
C480 C482 1.378 . S
C480 C484 1.350 . S
C481 C484 1.463 . S
C481 C486 1.350 . S
C481 N489 1.427 . S
C482 H473 0.930 . S
C482 C480 1.378 . S
C482 C483 1.367 . S
C483 C482 1.367 . S
C483 C485 1.433 . S
C484 C480 1.350 . S
C484 C481 1.463 . S
C484 N488 1.427 . S
C485 H475 0.929 . S
C485 C483 1.433 . S
C485 N488 1.384 . S
C486 H477 0.929 . S
C486 C478 1.378 . S
C486 C481 1.350 . S
C487 H474 0.929 . S
C487 C479 1.433 . S
C487 N489 1.384 . S
N488 C484 1.427 . S
N488 C485 1.384 . S
N489 C481 1.427 . S
N489 C487 1.384 . S
H490 C496 0.930 . S
H491 C500 0.930 . S
H492 C505 0.929 . S
H493 C503 0.929 . S
H494 C498 0.929 . S
H495 C504 0.929 . S
C496 H490 0.930 . S
C496 C497 1.367 . S
C496 C504 1.378 . S
C497 C496 1.367 . S
C497 C505 1.433 . S
C498 H494 0.929 . S
C498 C500 1.378 . S
C498 C502 1.350 . S
C499 C502 1.463 . S
C499 C504 1.350 . S
C499 N507 1.427 . S
C500 H491 0.930 . S
C500 C498 1.378 . S
C500 C501 1.367 . S
C501 C500 1.367 . S
C501 C503 1.433 . S
C502 C498 1.350 . S
C502 C499 1.463 . S
C502 N506 1.427 . S
C503 H493 0.929 . S
C503 C501 1.433 . S
C503 N506 1.384 . S
C504 H495 0.929 . S
C504 C496 1.378 . S
C504 C499 1.350 . S
C505 H492 0.929 . S
C505 C497 1.433 . S
C505 N507 1.384 . S
N506 C502 1.427 . S
N506 C503 1.384 . S
N507 C499 1.427 . S
N507 C505 1.384 . S
H508 C514 0.930 . S
H509 C518 0.930 . S
H510 C523 0.929 . S
H511 C521 0.929 . S
H512 C516 0.929 . S
H513 C522 0.929 . S
C514 H508 0.930 . S
C514 C515 1.367 . S
C514 C522 1.378 . S
C515 C514 1.367 . S
C515 C523 1.433 . S
C516 H512 0.929 . S
C516 C518 1.378 . S
C516 C520 1.350 . S
C517 C520 1.463 . S
C517 C522 1.350 . S
C517 N525 1.427 . S
C518 H509 0.930 . S
C518 C516 1.378 . S
C518 C519 1.367 . S
C519 C518 1.367 . S
C519 C521 1.433 . S
C520 C516 1.350 . S
C520 C517 1.463 . S
C520 N524 1.427 . S
C521 H511 0.929 . S
C521 C519 1.433 . S
C521 N524 1.384 . S
C522 H513 0.929 . S
C522 C514 1.378 . S
C522 C517 1.350 . S
C523 H510 0.929 . S
C523 C515 1.433 . S
C523 N525 1.384 . S
N524 C520 1.427 . S
N524 C521 1.384 . S
N525 C517 1.427 . S
N525 C523 1.384 . S
H526 C532 0.930 . S
H527 C536 0.930 . S
H528 C541 0.929 . S
H529 C539 0.929 . S
H530 C534 0.929 . S
H531 C540 0.929 . S
C532 H526 0.930 . S
C532 C533 1.367 . S
C532 C540 1.378 . S
C533 C532 1.367 . S
C533 C541 1.433 . S
C534 H530 0.929 . S
C534 C536 1.378 . S
C534 C538 1.350 . S
C535 C538 1.463 . S
C535 C540 1.350 . S
C535 N543 1.427 . S
C536 H527 0.930 . S
C536 C534 1.378 . S
C536 C537 1.367 . S
C537 C536 1.367 . S
C537 C539 1.433 . S
C538 C534 1.350 . S
C538 C535 1.463 . S
C538 N542 1.427 . S
C539 H529 0.929 . S
C539 C537 1.433 . S
C539 N542 1.384 . S
C540 H531 0.929 . S
C540 C532 1.378 . S
C540 C535 1.350 . S
C541 H528 0.929 . S
C541 C533 1.433 . S
C541 N543 1.384 . S
N542 C538 1.427 . S
N542 C539 1.384 . S
N543 C535 1.427 . S
N543 C541 1.384 . S
H544 C550 0.930 . S
H545 C554 0.930 . S
H546 C559 0.929 . S
H547 C557 0.929 . S
H548 C552 0.929 . S
H549 C558 0.929 . S
C550 H544 0.930 . S
C550 C551 1.367 . S
C550 C558 1.378 . S
C551 C550 1.367 . S
C551 C559 1.433 . S
C552 H548 0.929 . S
C552 C554 1.378 . S
C552 C556 1.350 . S
C553 C556 1.463 . S
C553 C558 1.350 . S
C553 N561 1.427 . S
C554 H545 0.930 . S
C554 C552 1.378 . S
C554 C555 1.367 . S
C555 C554 1.367 . S
C555 C557 1.433 . S
C556 C552 1.350 . S
C556 C553 1.463 . S
C556 N560 1.427 . S
C557 H547 0.929 . S
C557 C555 1.433 . S
C557 N560 1.384 . S
C558 H549 0.929 . S
C558 C550 1.378 . S
C558 C553 1.350 . S
C559 H546 0.929 . S
C559 C551 1.433 . S
C559 N561 1.384 . S
N560 C556 1.427 . S
N560 C557 1.384 . S
N561 C553 1.427 . S
N561 C559 1.384 . S
H562 C568 0.930 . S
H563 C572 0.930 . S
H564 C577 0.929 . S
H565 C575 0.929 . S
H566 C570 0.929 . S
H567 C576 0.929 . S
C568 H562 0.930 . S
C568 C569 1.367 . S
C568 C576 1.378 . S
C569 C568 1.367 . S
C569 C577 1.433 . S
C570 H566 0.929 . S
C570 C572 1.378 . S
C570 C574 1.350 . S
C571 C574 1.463 . S
C571 C576 1.350 . S
C571 N579 1.427 . S
C572 H563 0.930 . S
C572 C570 1.378 . S
C572 C573 1.367 . S
C573 C572 1.367 . S
C573 C575 1.433 . S
C574 C570 1.350 . S
C574 C571 1.463 . S
C574 N578 1.427 . S
C575 H565 0.929 . S
C575 C573 1.433 . S
C575 N578 1.384 . S
C576 H567 0.929 . S
C576 C568 1.378 . S
C576 C571 1.350 . S
C577 H564 0.929 . S
C577 C569 1.433 . S
C577 N579 1.384 . S
N578 C574 1.427 . S
N578 C575 1.384 . S
N579 C571 1.427 . S
N579 C577 1.384 . S
H580 C586 0.930 . S
H581 C590 0.930 . S
H582 C595 0.929 . S
H583 C593 0.929 . S
H584 C588 0.929 . S
H585 C594 0.929 . S
C586 H580 0.930 . S
C586 C587 1.367 . S
C586 C594 1.378 . S
C587 C586 1.367 . S
C587 C595 1.433 . S
C588 H584 0.929 . S
C588 C590 1.378 . S
C588 C592 1.350 . S
C589 C592 1.463 . S
C589 C594 1.350 . S
C589 N597 1.427 . S
C590 H581 0.930 . S
C590 C588 1.378 . S
C590 C591 1.367 . S
C591 C590 1.367 . S
C591 C593 1.433 . S
C592 C588 1.350 . S
C592 C589 1.463 . S
C592 N596 1.427 . S
C593 H583 0.929 . S
C593 C591 1.433 . S
C593 N596 1.384 . S
C594 H585 0.929 . S
C594 C586 1.378 . S
C594 C589 1.350 . S
C595 H582 0.929 . S
C595 C587 1.433 . S
C595 N597 1.384 . S
N596 C592 1.427 . S
N596 C593 1.384 . S
N597 C589 1.427 . S
N597 C595 1.384 . S
H598 C604 0.930 . S
H599 C608 0.930 . S
H600 C613 0.929 . S
H601 C611 0.929 . S
H602 C606 0.929 . S
H603 C612 0.929 . S
C604 H598 0.930 . S
C604 C605 1.367 . S
C604 C612 1.378 . S
C605 C604 1.367 . S
C605 C613 1.433 . S
C606 H602 0.929 . S
C606 C608 1.378 . S
C606 C610 1.350 . S
C607 C610 1.463 . S
C607 C612 1.350 . S
C607 N615 1.427 . S
C608 H599 0.930 . S
C608 C606 1.378 . S
C608 C609 1.367 . S
C609 C608 1.367 . S
C609 C611 1.433 . S
C610 C606 1.350 . S
C610 C607 1.463 . S
C610 N614 1.427 . S
C611 H601 0.929 . S
C611 C609 1.433 . S
C611 N614 1.384 . S
C612 H603 0.929 . S
C612 C604 1.378 . S
C612 C607 1.350 . S
C613 H600 0.929 . S
C613 C605 1.433 . S
C613 N615 1.384 . S
N614 C610 1.427 . S
N614 C611 1.384 . S
N615 C607 1.427 . S
N615 C613 1.384 . S
H616 C622 0.930 . S
H617 C626 0.930 . S
H618 C631 0.929 . S
H619 C629 0.929 . S
H620 C624 0.929 . S
H621 C630 0.929 . S
C622 H616 0.930 . S
C622 C623 1.367 . S
C622 C630 1.378 . S
C623 C622 1.367 . S
C623 C631 1.433 . S
C624 H620 0.929 . S
C624 C626 1.378 . S
C624 C628 1.350 . S
C625 C628 1.463 . S
C625 C630 1.350 . S
C625 N633 1.427 . S
C626 H617 0.930 . S
C626 C624 1.378 . S
C626 C627 1.367 . S
C627 C626 1.367 . S
C627 C629 1.433 . S
C628 C624 1.350 . S
C628 C625 1.463 . S
C628 N632 1.427 . S
C629 H619 0.929 . S
C629 C627 1.433 . S
C629 N632 1.384 . S
C630 H621 0.929 . S
C630 C622 1.378 . S
C630 C625 1.350 . S
C631 H618 0.929 . S
C631 C623 1.433 . S
C631 N633 1.384 . S
N632 C628 1.427 . S
N632 C629 1.384 . S
N633 C625 1.427 . S
N633 C631 1.384 . S
H634 C640 0.930 . S
H635 C644 0.930 . S
H636 C649 0.929 . S
H637 C647 0.929 . S
H638 C642 0.929 . S
H639 C648 0.929 . S
C640 H634 0.930 . S
C640 C641 1.367 . S
C640 C648 1.378 . S
C641 C640 1.367 . S
C641 C649 1.433 . S
C642 H638 0.929 . S
C642 C644 1.378 . S
C642 C646 1.350 . S
C643 C646 1.463 . S
C643 C648 1.350 . S
C643 N651 1.427 . S
C644 H635 0.930 . S
C644 C642 1.378 . S
C644 C645 1.367 . S
C645 C644 1.367 . S
C645 C647 1.433 . S
C646 C642 1.350 . S
C646 C643 1.463 . S
C646 N650 1.427 . S
C647 H637 0.929 . S
C647 C645 1.433 . S
C647 N650 1.384 . S
C648 H639 0.929 . S
C648 C640 1.378 . S
C648 C643 1.350 . S
C649 H636 0.929 . S
C649 C641 1.433 . S
C649 N651 1.384 . S
N650 C646 1.427 . S
N650 C647 1.384 . S
N651 C643 1.427 . S
N651 C649 1.384 . S
H652 C658 0.930 . S
H653 C662 0.930 . S
H654 C667 0.929 . S
H655 C665 0.929 . S
H656 C660 0.929 . S
H657 C666 0.929 . S
C658 H652 0.930 . S
C658 C659 1.367 . S
C658 C666 1.378 . S
C659 C658 1.367 . S
C659 C667 1.433 . S
C660 H656 0.929 . S
C660 C662 1.378 . S
C660 C664 1.350 . S
C661 C664 1.463 . S
C661 C666 1.350 . S
C661 N669 1.427 . S
C662 H653 0.930 . S
C662 C660 1.378 . S
C662 C663 1.367 . S
C663 C662 1.367 . S
C663 C665 1.433 . S
C664 C660 1.350 . S
C664 C661 1.463 . S
C664 N668 1.427 . S
C665 H655 0.929 . S
C665 C663 1.433 . S
C665 N668 1.384 . S
C666 H657 0.929 . S
C666 C658 1.378 . S
C666 C661 1.350 . S
C667 H654 0.929 . S
C667 C659 1.433 . S
C667 N669 1.384 . S
N668 C664 1.427 . S
N668 C665 1.384 . S
N669 C661 1.427 . S
N669 C667 1.384 . S
H670 C676 0.930 . S
H671 C680 0.930 . S
H672 C685 0.929 . S
H673 C683 0.929 . S
H674 C678 0.929 . S
H675 C684 0.929 . S
C676 H670 0.930 . S
C676 C677 1.367 . S
C676 C684 1.378 . S
C677 C676 1.367 . S
C677 C685 1.433 . S
C678 H674 0.929 . S
C678 C680 1.378 . S
C678 C682 1.350 . S
C679 C682 1.463 . S
C679 C684 1.350 . S
C679 N687 1.427 . S
C680 H671 0.930 . S
C680 C678 1.378 . S
C680 C681 1.367 . S
C681 C680 1.367 . S
C681 C683 1.433 . S
C682 C678 1.350 . S
C682 C679 1.463 . S
C682 N686 1.427 . S
C683 H673 0.929 . S
C683 C681 1.433 . S
C683 N686 1.384 . S
C684 H675 0.929 . S
C684 C676 1.378 . S
C684 C679 1.350 . S
C685 H672 0.929 . S
C685 C677 1.433 . S
C685 N687 1.384 . S
N686 C682 1.427 . S
N686 C683 1.384 . S
N687 C679 1.427 . S
N687 C685 1.384 . S
H688 C694 0.930 . S
H689 C698 0.930 . S
H690 C703 0.929 . S
H691 C701 0.929 . S
H692 C696 0.929 . S
H693 C702 0.929 . S
C694 H688 0.930 . S
C694 C695 1.367 . S
C694 C702 1.378 . S
C695 C694 1.367 . S
C695 C703 1.433 . S
C696 H692 0.929 . S
C696 C698 1.378 . S
C696 C700 1.350 . S
C697 C700 1.463 . S
C697 C702 1.350 . S
C697 N705 1.427 . S
C698 H689 0.930 . S
C698 C696 1.378 . S
C698 C699 1.367 . S
C699 C698 1.367 . S
C699 C701 1.433 . S
C700 C696 1.350 . S
C700 C697 1.463 . S
C700 N704 1.427 . S
C701 H691 0.929 . S
C701 C699 1.433 . S
C701 N704 1.384 . S
C702 H693 0.929 . S
C702 C694 1.378 . S
C702 C697 1.350 . S
C703 H690 0.929 . S
C703 C695 1.433 . S
C703 N705 1.384 . S
N704 C700 1.427 . S
N704 C701 1.384 . S
N705 C697 1.427 . S
N705 C703 1.384 . S
H706 C712 0.930 . S
H707 C716 0.930 . S
H708 C721 0.929 . S
H709 C719 0.929 . S
H710 C714 0.929 . S
H711 C720 0.929 . S
C712 H706 0.930 . S
C712 C713 1.367 . S
C712 C720 1.378 . S
C713 C712 1.367 . S
C713 C721 1.433 . S
C714 H710 0.929 . S
C714 C716 1.378 . S
C714 C718 1.350 . S
C715 C718 1.463 . S
C715 C720 1.350 . S
C715 N723 1.427 . S
C716 H707 0.930 . S
C716 C714 1.378 . S
C716 C717 1.367 . S
C717 C716 1.367 . S
C717 C719 1.433 . S
C718 C714 1.350 . S
C718 C715 1.463 . S
C718 N722 1.427 . S
C719 H709 0.929 . S
C719 C717 1.433 . S
C719 N722 1.384 . S
C720 H711 0.929 . S
C720 C712 1.378 . S
C720 C715 1.350 . S
C721 H708 0.929 . S
C721 C713 1.433 . S
C721 N723 1.384 . S
N722 C718 1.427 . S
N722 C719 1.384 . S
N723 C715 1.427 . S
N723 C721 1.384 . S
H724 C730 0.930 . S
H725 C734 0.930 . S
H726 C739 0.929 . S
H727 C737 0.929 . S
H728 C732 0.929 . S
H729 C738 0.929 . S
C730 H724 0.930 . S
C730 C731 1.367 . S
C730 C738 1.378 . S
C731 C730 1.367 . S
C731 C739 1.433 . S
C732 H728 0.929 . S
C732 C734 1.378 . S
C732 C736 1.350 . S
C733 C736 1.463 . S
C733 C738 1.350 . S
C733 N741 1.427 . S
C734 H725 0.930 . S
C734 C732 1.378 . S
C734 C735 1.367 . S
C735 C734 1.367 . S
C735 C737 1.433 . S
C736 C732 1.350 . S
C736 C733 1.463 . S
C736 N740 1.427 . S
C737 H727 0.929 . S
C737 C735 1.433 . S
C737 N740 1.384 . S
C738 H729 0.929 . S
C738 C730 1.378 . S
C738 C733 1.350 . S
C739 H726 0.929 . S
C739 C731 1.433 . S
C739 N741 1.384 . S
N740 C736 1.427 . S
N740 C737 1.384 . S
N741 C733 1.427 . S
N741 C739 1.384 . S
H742 C748 0.930 . S
H743 C752 0.930 . S
H744 C757 0.929 . S
H745 C755 0.929 . S
H746 C750 0.929 . S
H747 C756 0.929 . S
C748 H742 0.930 . S
C748 C749 1.367 . S
C748 C756 1.378 . S
C749 C748 1.367 . S
C749 C757 1.433 . S
C750 H746 0.929 . S
C750 C752 1.378 . S
C750 C754 1.350 . S
C751 C754 1.463 . S
C751 C756 1.350 . S
C751 N759 1.427 . S
C752 H743 0.930 . S
C752 C750 1.378 . S
C752 C753 1.367 . S
C753 C752 1.367 . S
C753 C755 1.433 . S
C754 C750 1.350 . S
C754 C751 1.463 . S
C754 N758 1.427 . S
C755 H745 0.929 . S
C755 C753 1.433 . S
C755 N758 1.384 . S
C756 H747 0.929 . S
C756 C748 1.378 . S
C756 C751 1.350 . S
C757 H744 0.929 . S
C757 C749 1.433 . S
C757 N759 1.384 . S
N758 C754 1.427 . S
N758 C755 1.384 . S
N759 C751 1.427 . S
N759 C757 1.384 . S
H760 C766 0.930 . S
H761 C770 0.930 . S
H762 C775 0.929 . S
H763 C773 0.929 . S
H764 C768 0.929 . S
H765 C774 0.929 . S
C766 H760 0.930 . S
C766 C767 1.367 . S
C766 C774 1.378 . S
C767 C766 1.367 . S
C767 C775 1.433 . S
C768 H764 0.929 . S
C768 C770 1.378 . S
C768 C772 1.350 . S
C769 C772 1.463 . S
C769 C774 1.350 . S
C769 N777 1.427 . S
C770 H761 0.930 . S
C770 C768 1.378 . S
C770 C771 1.367 . S
C771 C770 1.367 . S
C771 C773 1.433 . S
C772 C768 1.350 . S
C772 C769 1.463 . S
C772 N776 1.427 . S
C773 H763 0.929 . S
C773 C771 1.433 . S
C773 N776 1.384 . S
C774 H765 0.929 . S
C774 C766 1.378 . S
C774 C769 1.350 . S
C775 H762 0.929 . S
C775 C767 1.433 . S
C775 N777 1.384 . S
N776 C772 1.427 . S
N776 C773 1.384 . S
N777 C769 1.427 . S
N777 C775 1.384 . S
H778 C784 0.930 . S
H779 C788 0.930 . S
H780 C793 0.929 . S
H781 C791 0.929 . S
H782 C786 0.929 . S
H783 C792 0.929 . S
C784 H778 0.930 . S
C784 C785 1.367 . S
C784 C792 1.378 . S
C785 C784 1.367 . S
C785 C793 1.433 . S
C786 H782 0.929 . S
C786 C788 1.378 . S
C786 C790 1.350 . S
C787 C790 1.463 . S
C787 C792 1.350 . S
C787 N795 1.427 . S
C788 H779 0.930 . S
C788 C786 1.378 . S
C788 C789 1.367 . S
C789 C788 1.367 . S
C789 C791 1.433 . S
C790 C786 1.350 . S
C790 C787 1.463 . S
C790 N794 1.427 . S
C791 H781 0.929 . S
C791 C789 1.433 . S
C791 N794 1.384 . S
C792 H783 0.929 . S
C792 C784 1.378 . S
C792 C787 1.350 . S
C793 H780 0.929 . S
C793 C785 1.433 . S
C793 N795 1.384 . S
N794 C790 1.427 . S
N794 C791 1.384 . S
N795 C787 1.427 . S
N795 C793 1.384 . S
H796 C802 0.930 . S
H797 C806 0.930 . S
H798 C811 0.929 . S
H799 C809 0.929 . S
H800 C804 0.929 . S
H801 C810 0.929 . S
C802 H796 0.930 . S
C802 C803 1.367 . S
C802 C810 1.378 . S
C803 C802 1.367 . S
C803 C811 1.433 . S
C804 H800 0.929 . S
C804 C806 1.378 . S
C804 C808 1.350 . S
C805 C808 1.463 . S
C805 C810 1.350 . S
C805 N813 1.427 . S
C806 H797 0.930 . S
C806 C804 1.378 . S
C806 C807 1.367 . S
C807 C806 1.367 . S
C807 C809 1.433 . S
C808 C804 1.350 . S
C808 C805 1.463 . S
C808 N812 1.427 . S
C809 H799 0.929 . S
C809 C807 1.433 . S
C809 N812 1.384 . S
C810 H801 0.929 . S
C810 C802 1.378 . S
C810 C805 1.350 . S
C811 H798 0.929 . S
C811 C803 1.433 . S
C811 N813 1.384 . S
N812 C808 1.427 . S
N812 C809 1.384 . S
N813 C805 1.427 . S
N813 C811 1.384 . S
H814 C820 0.930 . S
H815 C824 0.930 . S
H816 C829 0.929 . S
H817 C827 0.929 . S
H818 C822 0.929 . S
H819 C828 0.929 . S
C820 H814 0.930 . S
C820 C821 1.367 . S
C820 C828 1.378 . S
C821 C820 1.367 . S
C821 C829 1.433 . S
C822 H818 0.929 . S
C822 C824 1.378 . S
C822 C826 1.350 . S
C823 C826 1.463 . S
C823 C828 1.350 . S
C823 N831 1.427 . S
C824 H815 0.930 . S
C824 C822 1.378 . S
C824 C825 1.367 . S
C825 C824 1.367 . S
C825 C827 1.433 . S
C826 C822 1.350 . S
C826 C823 1.463 . S
C826 N830 1.427 . S
C827 H817 0.929 . S
C827 C825 1.433 . S
C827 N830 1.384 . S
C828 H819 0.929 . S
C828 C820 1.378 . S
C828 C823 1.350 . S
C829 H816 0.929 . S
C829 C821 1.433 . S
C829 N831 1.384 . S
N830 C826 1.427 . S
N830 C827 1.384 . S
N831 C823 1.427 . S
N831 C829 1.384 . S
H832 C838 0.930 . S
H833 C842 0.930 . S
H834 C847 0.929 . S
H835 C845 0.929 . S
H836 C840 0.929 . S
H837 C846 0.929 . S
C838 H832 0.930 . S
C838 C839 1.367 . S
C838 C846 1.378 . S
C839 C838 1.367 . S
C839 C847 1.433 . S
C840 H836 0.929 . S
C840 C842 1.378 . S
C840 C844 1.350 . S
C841 C844 1.463 . S
C841 C846 1.350 . S
C841 N849 1.427 . S
C842 H833 0.930 . S
C842 C840 1.378 . S
C842 C843 1.367 . S
C843 C842 1.367 . S
C843 C845 1.433 . S
C844 C840 1.350 . S
C844 C841 1.463 . S
C844 N848 1.427 . S
C845 H835 0.929 . S
C845 C843 1.433 . S
C845 N848 1.384 . S
C846 H837 0.929 . S
C846 C838 1.378 . S
C846 C841 1.350 . S
C847 H834 0.929 . S
C847 C839 1.433 . S
C847 N849 1.384 . S
N848 C844 1.427 . S
N848 C845 1.384 . S
N849 C841 1.427 . S
N849 C847 1.384 . S
H850 C856 0.930 . S
H851 C860 0.930 . S
H852 C865 0.929 . S
H853 C863 0.929 . S
H854 C858 0.929 . S
H855 C864 0.929 . S
C856 H850 0.930 . S
C856 C857 1.367 . S
C856 C864 1.378 . S
C857 C856 1.367 . S
C857 C865 1.433 . S
C858 H854 0.929 . S
C858 C860 1.378 . S
C858 C862 1.350 . S
C859 C862 1.463 . S
C859 C864 1.350 . S
C859 N867 1.427 . S
C860 H851 0.930 . S
C860 C858 1.378 . S
C860 C861 1.367 . S
C861 C860 1.367 . S
C861 C863 1.433 . S
C862 C858 1.350 . S
C862 C859 1.463 . S
C862 N866 1.427 . S
C863 H853 0.929 . S
C863 C861 1.433 . S
C863 N866 1.384 . S
C864 H855 0.929 . S
C864 C856 1.378 . S
C864 C859 1.350 . S
C865 H852 0.929 . S
C865 C857 1.433 . S
C865 N867 1.384 . S
N866 C862 1.427 . S
N866 C863 1.384 . S
N867 C859 1.427 . S
N867 C865 1.384 . S
H868 C874 0.930 . S
H869 C878 0.930 . S
H870 C883 0.929 . S
H871 C881 0.929 . S
H872 C876 0.929 . S
H873 C882 0.929 . S
C874 H868 0.930 . S
C874 C875 1.367 . S
C874 C882 1.378 . S
C875 C874 1.367 . S
C875 C883 1.433 . S
C876 H872 0.929 . S
C876 C878 1.378 . S
C876 C880 1.350 . S
C877 C880 1.463 . S
C877 C882 1.350 . S
C877 N885 1.427 . S
C878 H869 0.930 . S
C878 C876 1.378 . S
C878 C879 1.367 . S
C879 C878 1.367 . S
C879 C881 1.433 . S
C880 C876 1.350 . S
C880 C877 1.463 . S
C880 N884 1.427 . S
C881 H871 0.929 . S
C881 C879 1.433 . S
C881 N884 1.384 . S
C882 H873 0.929 . S
C882 C874 1.378 . S
C882 C877 1.350 . S
C883 H870 0.929 . S
C883 C875 1.433 . S
C883 N885 1.384 . S
N884 C880 1.427 . S
N884 C881 1.384 . S
N885 C877 1.427 . S
N885 C883 1.384 . S
H886 C892 0.930 . S
H887 C896 0.930 . S
H888 C901 0.929 . S
H889 C899 0.929 . S
H890 C894 0.929 . S
H891 C900 0.929 . S
C892 H886 0.930 . S
C892 C893 1.367 . S
C892 C900 1.378 . S
C893 C892 1.367 . S
C893 C901 1.433 . S
C894 H890 0.929 . S
C894 C896 1.378 . S
C894 C898 1.350 . S
C895 C898 1.463 . S
C895 C900 1.350 . S
C895 N903 1.427 . S
C896 H887 0.930 . S
C896 C894 1.378 . S
C896 C897 1.367 . S
C897 C896 1.367 . S
C897 C899 1.433 . S
C898 C894 1.350 . S
C898 C895 1.463 . S
C898 N902 1.427 . S
C899 H889 0.929 . S
C899 C897 1.433 . S
C899 N902 1.384 . S
C900 H891 0.929 . S
C900 C892 1.378 . S
C900 C895 1.350 . S
C901 H888 0.929 . S
C901 C893 1.433 . S
C901 N903 1.384 . S
N902 C898 1.427 . S
N902 C899 1.384 . S
N903 C895 1.427 . S
N903 C901 1.384 . S
C479 C1 1.254 . S
C483 C319 1.300 . S
C497 C40 0.985 . S
C501 C368 0.981 . S
C519 C394 2.464 . S
C515 C99 2.508 . S
C533 C118 2.377 . S
C537 C442 2.327 . S
C555 C354 2.522 . S
C551 C16 2.397 . S
C573 C322 0.849 . S
C569 C60 0.876 . S
C591 C443 1.909 . S
C587 C79 1.949 . S
C609 C411 1.575 . S
C605 C138 1.592 . S
C623 C21 1.689 . S
C627 C439 1.764 . S
C645 C371 2.345 . S
C641 C94 2.416 . S
C659 C133 2.326 . S
C663 C323 2.318 . S
C677 C55 0.851 . S
C681 C408 0.851 . S
C699 C328 1.306 . S
C695 C157 1.257 . S
C713 C196 0.981 . S
C717 C359 0.975 . S
C731 C255 2.506 . S
C735 C403 2.461 . S
C749 C289 2.373 . S
C753 C451 2.316 . S
C767 C172 2.381 . S
C771 C363 2.519 . S
C789 C331 0.848 . S
C785 C216 0.877 . S
C807 C434 1.906 . S
C803 C235 1.950 . S
C825 C402 1.571 . S
C821 C294 1.593 . S
C839 C177 1.707 . S
C843 C448 1.763 . S
C861 C362 2.340 . S
C857 C250 2.416 . S
C879 C314 2.324 . S
C875 C274 2.330 . S
C893 C211 0.841 . S
C897 C399 0.848 . S
