# Generated by pormake.
# Topology wbl, (4,4)-cn, num edge types: 1
# Building blocks:
#     Node 0, Type 0, BuildingBlock: MIFKUJ_clean_linker_1, # of connection points: 4
#     Node 1, Type 0, BuildingBlock: MIFKUJ_clean_linker_1, # of connection points: 4
#     Node 2, Type 0, BuildingBlock: MIFKUJ_clean_linker_1, # of connection points: 4
#     Node 3, Type 0, BuildingBlock: MIFKUJ_clean_linker_1, # of connection points: 4
#     Node 4, Type 0, BuildingBlock: MIFKUJ_clean_linker_1, # of connection points: 4
#     Node 5, Type 0, BuildingBlock: MIFKUJ_clean_linker_1, # of connection points: 4
#     Node 6, Type 0, BuildingBlock: MIFKUJ_clean_linker_1, # of connection points: 4
#     Node 7, Type 0, BuildingBlock: MIFKUJ_clean_linker_1, # of connection points: 4
#     Node 8, Type 1, BuildingBlock: QUQFOY_clean_sbu_3, # of connection points: 4
#     Node 9, Type 1, BuildingBlock: QUQFOY_clean_sbu_3, # of connection points: 4
#     Node 10, Type 1, BuildingBlock: QUQFOY_clean_sbu_3, # of connection points: 4
#     Node 11, Type 1, BuildingBlock: QUQFOY_clean_sbu_3, # of connection points: 4
#     Node 12, Type 1, BuildingBlock: QUQFOY_clean_sbu_3, # of connection points: 4
#     Node 13, Type 1, BuildingBlock: QUQFOY_clean_sbu_3, # of connection points: 4
#     Node 14, Type 1, BuildingBlock: QUQFOY_clean_sbu_3, # of connection points: 4
#     Node 15, Type 1, BuildingBlock: QUQFOY_clean_sbu_3, # of connection points: 4
#     Edge 16, Type (0, 1), BuildingBlock: ZUJKAS_clean_linker_0, # of connection points: 2
#     Edge 17, Type (0, 1), BuildingBlock: ZUJKAS_clean_linker_0, # of connection points: 2
#     Edge 18, Type (0, 1), BuildingBlock: ZUJKAS_clean_linker_0, # of connection points: 2
#     Edge 19, Type (0, 1), BuildingBlock: ZUJKAS_clean_linker_0, # of connection points: 2
#     Edge 20, Type (0, 1), BuildingBlock: ZUJKAS_clean_linker_0, # of connection points: 2
#     Edge 21, Type (0, 1), BuildingBlock: ZUJKAS_clean_linker_0, # of connection points: 2
#     Edge 22, Type (0, 1), BuildingBlock: ZUJKAS_clean_linker_0, # of connection points: 2
#     Edge 23, Type (0, 1), BuildingBlock: ZUJKAS_clean_linker_0, # of connection points: 2
#     Edge 24, Type (0, 1), BuildingBlock: ZUJKAS_clean_linker_0, # of connection points: 2
#     Edge 25, Type (0, 1), BuildingBlock: ZUJKAS_clean_linker_0, # of connection points: 2
#     Edge 26, Type (0, 1), BuildingBlock: ZUJKAS_clean_linker_0, # of connection points: 2
#     Edge 27, Type (0, 1), BuildingBlock: ZUJKAS_clean_linker_0, # of connection points: 2
#     Edge 28, Type (0, 1), BuildingBlock: ZUJKAS_clean_linker_0, # of connection points: 2
#     Edge 29, Type (0, 1), BuildingBlock: ZUJKAS_clean_linker_0, # of connection points: 2
#     Edge 30, Type (0, 1), BuildingBlock: ZUJKAS_clean_linker_0, # of connection points: 2
#     Edge 31, Type (0, 1), BuildingBlock: ZUJKAS_clean_linker_0, # of connection points: 2
#     Edge 32, Type (0, 1), BuildingBlock: ZUJKAS_clean_linker_0, # of connection points: 2
#     Edge 33, Type (0, 1), BuildingBlock: ZUJKAS_clean_linker_0, # of connection points: 2
#     Edge 34, Type (0, 1), BuildingBlock: ZUJKAS_clean_linker_0, # of connection points: 2
#     Edge 35, Type (0, 1), BuildingBlock: ZUJKAS_clean_linker_0, # of connection points: 2
#     Edge 36, Type (0, 1), BuildingBlock: ZUJKAS_clean_linker_0, # of connection points: 2
#     Edge 37, Type (0, 1), BuildingBlock: ZUJKAS_clean_linker_0, # of connection points: 2
#     Edge 38, Type (0, 1), BuildingBlock: ZUJKAS_clean_linker_0, # of connection points: 2
#     Edge 39, Type (0, 1), BuildingBlock: ZUJKAS_clean_linker_0, # of connection points: 2
#     Edge 40, Type (0, 1), BuildingBlock: ZUJKAS_clean_linker_0, # of connection points: 2
#     Edge 41, Type (0, 1), BuildingBlock: ZUJKAS_clean_linker_0, # of connection points: 2
#     Edge 42, Type (0, 1), BuildingBlock: ZUJKAS_clean_linker_0, # of connection points: 2
#     Edge 43, Type (0, 1), BuildingBlock: ZUJKAS_clean_linker_0, # of connection points: 2
#     Edge 44, Type (0, 1), BuildingBlock: ZUJKAS_clean_linker_0, # of connection points: 2
#     Edge 45, Type (0, 1), BuildingBlock: ZUJKAS_clean_linker_0, # of connection points: 2
#     Edge 46, Type (0, 1), BuildingBlock: ZUJKAS_clean_linker_0, # of connection points: 2
#     Edge 47, Type (0, 1), BuildingBlock: ZUJKAS_clean_linker_0, # of connection points: 2
# Relax obj value: 0.161
# Max RMSD: 0.159
# Mean RMSD: 0.136
data_MOF--net-wbl--node1-QUQFOY_clean_sbu_3--node2-MIFKUJ_clean_linker_1--edge1-ZUJKAS_clean_linker_0
_symmetry_space_group_name_H-M    P1
_symmetry_Int_Tables_number       1
_symmetry_cell_setting            triclinic
loop_
_symmetry_equiv_pos_as_xyz
'x, y, z'
_cell_length_a     58.833858
_cell_length_b     59.279765
_cell_length_c     93.462461
_cell_angle_alpha  90.627243
_cell_angle_beta   90.278736
_cell_angle_gamma 89.979761
loop_
_atom_site_label
_atom_site_type_symbol
_atom_site_fract_x
_atom_site_fract_y
_atom_site_fract_z
_atom_type_partial_charge
H0 H 0.01301 0.05479 0.34538 0.0
H1 H -0.00933 0.0792 0.36115 0.0
H2 H 0.92904 0.04707 0.346 0.0
H3 H 0.95156 0.02275 0.33014 0.0
H4 H 0.01482 0.00866 0.34669 0.0
H5 H -0.0071 0.065 0.31143 0.0
H6 H 0.96309 0.08735 0.29997 0.0
H7 H 0.93068 0.02589 0.28514 0.0
H8 H 0.96075 0.00378 0.29639 0.0
H9 H 0.01774 0.95583 0.29398 0.0
H10 H 0.04593 0.93252 0.28127 0.0
H11 H 0.09988 0.97265 0.30002 0.0
H12 H 0.07182 -0.00424 0.31253 0.0
H13 H 0.00856 0.00277 0.29381 0.0
H14 H 0.03001 0.94627 0.32658 0.0
H15 H 0.05248 0.9215 0.34187 0.0
H16 H 0.08043 0.9799 0.36375 0.0
H17 H 0.05866 0.00452 0.34805 0.0
C18 C 0.98396 0.03699 0.33657 0.0
C19 C -0.00533 0.05313 0.34538 0.0
C20 C 0.98188 0.06701 0.35441 0.0
C21 C 0.95809 0.06497 0.3549 0.0
C22 C 0.94731 0.04923 0.34576 0.0
C23 C 0.96015 0.03529 0.33671 0.0
C24 C -0.00203 0.02118 0.32791 0.0
C25 C 0.01374 0.00763 0.3351 0.0
C26 C -0.00432 0.01907 0.31288 0.0
C27 C 0.97891 0.03273 0.30485 0.0
C28 C 0.97944 0.0564 0.3056 0.0
C29 C 0.96233 0.06913 0.29911 0.0
C30 C 0.94438 0.05844 0.2917 0.0
C31 C 0.94437 0.03473 0.29058 0.0
C32 C 0.96152 0.02203 0.29704 0.0
C33 C 0.04272 0.97742 0.30424 0.0
C34 C 0.03564 0.95967 0.29521 0.0
C35 C 0.05173 0.94631 0.28805 0.0
C36 C 0.0751 0.9508 0.28963 0.0
C37 C 0.08201 0.96892 0.29844 0.0
C38 C 0.06601 0.98206 0.30567 0.0
C39 C 0.02609 -0.00912 0.3126 0.0
C40 C 0.00976 0.00387 0.30538 0.0
C41 C 0.02761 -0.00771 0.32769 0.0
C42 C 0.04273 0.97729 0.33611 0.0
C43 C 0.0414 0.95374 0.33444 0.0
C44 C 0.05407 0.93958 0.3433 0.0
C45 C 0.06821 0.94869 0.35408 0.0
C46 C 0.06998 0.97229 0.35544 0.0
C47 C 0.05736 0.98642 0.34656 0.0
H48 H -0.0054 0.46263 0.5437 0.0
H49 H 0.97411 0.4312 0.53249 0.0
H50 H 0.9103 0.46158 0.545 0.0
H51 H 0.93102 0.49267 0.55648 0.0
H52 H -0.00675 0.51043 0.54028 0.0
H53 H 0.97505 0.45415 0.57684 0.0
H54 H 0.95164 0.43126 0.5927 0.0
H55 H 0.91581 0.49124 0.60651 0.0
H56 H 0.93929 0.51397 0.59073 0.0
H57 H -0.01249 0.56095 0.59462 0.0
H58 H 0.01078 0.58417 0.61058 0.0
H59 H 0.07126 0.56109 0.58873 0.0
H60 H 0.04795 0.53674 0.57346 0.0
H61 H -0.01447 0.51809 0.59296 0.0
H62 H -0.00365 0.57417 0.55818 0.0
H63 H 0.0195 0.60275 0.54657 0.0
H64 H 0.06378 0.55061 0.53002 0.0
H65 H 0.0404 0.5219 0.54177 0.0
C66 C 0.96434 0.47984 0.55103 0.0
C67 C 0.97619 0.46264 0.54384 0.0
C68 C 0.96441 0.4447 0.5374 0.0
C69 C 0.94051 0.44374 0.5379 0.0
C70 C 0.92869 0.46153 0.54464 0.0
C71 C 0.94049 0.47939 0.55114 0.0
C72 C 0.97699 0.49746 0.55914 0.0
C73 C -0.00827 0.51198 0.55181 0.0
C74 C 0.97431 0.50015 0.5741 0.0
C75 C 0.95889 0.48577 0.58259 0.0
C76 C 0.96187 0.46228 0.58309 0.0
C77 C 0.94846 0.44922 0.59215 0.0
C78 C 0.93198 0.45947 0.60094 0.0
C79 C 0.9286 0.48289 0.60005 0.0
C80 C 0.94195 0.49589 0.591 0.0
C81 C 0.0159 0.54712 0.58277 0.0
C82 C 0.00578 0.56096 0.59322 0.0
C83 C 0.01915 0.57446 0.60225 0.0
C84 C 0.04298 0.57455 0.60099 0.0
C85 C 0.05301 0.56124 0.59017 0.0
C86 C 0.03964 0.54753 0.58126 0.0
C87 C 0.00182 0.53106 0.57418 0.0
C88 C -0.01307 0.51672 0.58141 0.0
C89 C 0.0037 0.52913 0.55912 0.0
C90 C 0.01674 0.54595 0.55089 0.0
C91 C 0.01091 0.56885 0.55192 0.0
C92 C 0.02409 0.58516 0.54523 0.0
C93 C 0.04346 0.57892 0.53738 0.0
C94 C 0.04902 0.5559 0.53607 0.0
C95 C 0.03562 0.53951 0.54267 0.0
H96 H 0.48379 0.53485 0.84865 0.0
H97 H 0.45786 0.55656 0.86353 0.0
H98 H 0.40106 0.53182 0.83831 0.0
H99 H 0.42714 0.50869 0.82414 0.0
H100 H 0.48781 0.49155 0.84563 0.0
H101 H 0.47097 0.55285 0.81308 0.0
H102 H 0.44135 0.57634 0.80243 0.0
H103 H 0.41397 0.51772 0.78053 0.0
H104 H 0.44336 0.49423 0.79152 0.0
H105 H 0.50338 0.44724 0.79132 0.0
H106 H 0.53484 0.42751 0.77929 0.0
H107 H 0.58298 0.46883 0.80277 0.0
H108 H 0.55164 0.48839 0.81465 0.0
H109 H 0.49182 0.49457 0.79268 0.0
H110 H 0.51336 0.43412 0.82406 0.0
H111 H 0.53609 0.41027 0.83992 0.0
H112 H 0.55395 0.46893 0.86538 0.0
H113 H 0.53152 0.49267 0.84946 0.0
C114 C 0.45751 0.52025 0.83517 0.0
C115 C 0.46574 0.53402 0.84634 0.0
C116 C 0.45084 0.54672 0.85474 0.0
C117 C 0.42727 0.54624 0.85207 0.0
C118 C 0.41905 0.53252 0.84078 0.0
C119 C 0.43399 0.51948 0.83252 0.0
C120 C 0.47372 0.50637 0.82666 0.0
C121 C 0.48889 0.49245 0.83407 0.0
C122 C 0.47461 0.50699 0.81152 0.0
C123 C 0.45915 0.52175 0.80324 0.0
C124 C 0.45877 0.54513 0.80582 0.0
C125 C 0.44189 0.55856 0.79967 0.0
C126 C 0.42513 0.54885 0.79076 0.0
C127 C 0.4264 0.52563 0.78755 0.0
C128 C 0.4433 0.51222 0.79369 0.0
C129 C 0.52522 0.46918 0.80391 0.0
C130 C 0.52073 0.45211 0.79376 0.0
C131 C 0.53868 0.44078 0.78698 0.0
C132 C 0.56136 0.44665 0.79008 0.0
C133 C 0.5657 0.46409 0.80004 0.0
C134 C 0.54782 0.4752 0.80689 0.0
C135 C 0.5065 0.48042 0.81179 0.0
C136 C 0.49078 0.49372 0.80424 0.0
C137 C 0.5053 0.47953 0.82688 0.0
C138 C 0.52072 0.46521 0.83556 0.0
C139 C 0.52255 0.4419 0.83288 0.0
C140 C 0.5355 0.42828 0.84196 0.0
C141 C 0.54658 0.43772 0.85396 0.0
C142 C 0.54528 0.46113 0.85635 0.0
C143 C 0.53251 0.47472 0.84724 0.0
H144 H 0.49656 0.95227 0.04606 0.0
H145 H 0.47525 0.92095 0.03535 0.0
H146 H 0.41236 0.95197 0.04905 0.0
H147 H 0.43391 0.98294 0.06003 0.0
H148 H 0.49573 -0.00014 0.04259 0.0
H149 H 0.47916 0.94433 0.07933 0.0
H150 H 0.45708 0.9211 0.09573 0.0
H151 H 0.42169 0.98063 0.11072 0.0
H152 H 0.44376 0.00371 0.09433 0.0
H153 H 0.49008 0.05329 0.09516 0.0
H154 H 0.51306 0.07762 0.11078 0.0
H155 H 0.57417 0.05075 0.09163 0.0
H156 H 0.55111 0.02642 0.07605 0.0
H157 H 0.48932 0.00897 0.09526 0.0
H158 H 0.49874 0.06387 0.05927 0.0
H159 H 0.52135 0.09208 0.04691 0.0
H160 H 0.56645 0.03972 0.03158 0.0
H161 H 0.54359 0.01138 0.04408 0.0
C162 C 0.46683 0.96979 0.05394 0.0
C163 C 0.47816 0.95244 0.04657 0.0
C164 C 0.46592 0.93457 0.04042 0.0
C165 C 0.44204 0.93383 0.0414 0.0
C166 C 0.43072 0.95175 0.04833 0.0
C167 C 0.443 0.96954 0.05453 0.0
C168 C 0.47998 -0.01263 0.06176 0.0
C169 C 0.49451 0.00169 0.05412 0.0
C170 C 0.47781 -0.00968 0.07674 0.0
C171 C 0.46308 0.97576 0.08559 0.0
C172 C 0.46633 0.95229 0.08594 0.0
C173 C 0.45369 0.93904 0.09531 0.0
C174 C 0.43776 0.94907 0.10459 0.0
C175 C 0.43407 0.97246 0.10386 0.0
C176 C 0.44662 0.98565 0.09448 0.0
C177 C 0.51885 0.03806 0.08441 0.0
C178 C 0.50842 0.05282 0.09422 0.0
C179 C 0.52157 0.06667 0.10316 0.0
C180 C 0.54543 0.06599 0.10251 0.0
C181 C 0.55583 0.05185 0.09228 0.0
C182 C 0.54266 0.03794 0.08336 0.0
C183 C 0.50494 0.02149 0.07616 0.0
C184 C 0.49042 0.00724 0.08372 0.0
C185 C 0.50665 0.01903 0.06114 0.0
C186 C 0.51955 0.03558 0.05262 0.0
C187 C 0.51337 0.05842 0.05314 0.0
C188 C 0.52624 0.0745 0.04601 0.0
C189 C 0.54566 0.0681 0.03825 0.0
C190 C 0.55164 0.04513 0.03754 0.0
C191 C 0.53854 0.02895 0.04457 0.0
H192 H -0.01291 0.56474 0.9146 0.0
H193 H 0.01045 0.58819 0.89921 0.0
H194 H 0.07065 0.55347 0.91397 0.0
H195 H 0.04701 0.52936 0.92884 0.0
H196 H 0.98179 0.52015 0.91225 0.0
H197 H 0.00829 0.57147 0.94945 0.0
H198 H 0.0397 0.59189 0.96092 0.0
H199 H 0.07013 0.52851 0.97303 0.0
H200 H 0.03888 0.50818 0.96127 0.0
H201 H 0.98371 0.45924 0.95931 0.0
H202 H 0.95715 0.43263 0.97038 0.0
H203 H 0.90114 0.47647 0.95955 0.0
H204 H 0.92761 0.50279 0.94853 0.0
H205 H -0.0078 0.50727 0.96426 0.0
H206 H 0.9699 0.45611 0.92717 0.0
H207 H 0.94576 0.43351 0.91118 0.0
H208 H 0.91131 0.49402 0.89757 0.0
H209 H 0.93534 0.51654 0.91376 0.0
C210 C 0.01528 0.54537 0.92294 0.0
C211 C 0.00535 0.56229 0.91459 0.0
C212 C 0.01877 0.57585 0.9059 0.0
C213 C 0.04247 0.57276 0.90535 0.0
C214 C 0.05244 0.55616 0.91402 0.0
C215 C 0.03897 0.54252 0.92266 0.0
C216 C 0.00064 0.52978 0.93116 0.0
C217 C 0.98378 0.51772 0.92368 0.0
C218 C 0.00387 0.52588 0.94597 0.0
C219 C 0.0214 0.5383 0.95436 0.0
C220 C 0.02164 0.56199 0.95468 0.0
C221 C 0.03953 0.57364 0.96132 0.0
C222 C 0.0575 0.56181 0.96779 0.0
C223 C 0.0567 0.53809 0.96796 0.0
C224 C 0.03877 0.52646 0.96136 0.0
C225 C 0.95758 0.48294 0.95311 0.0
C226 C 0.96573 0.46318 0.9595 0.0
C227 C 0.95057 0.44796 0.9657 0.0
C228 C 0.9271 0.45251 0.96583 0.0
C229 C 0.91914 0.47262 0.95975 0.0
C230 C 0.93422 0.48763 0.95341 0.0
C231 C 0.97309 0.49813 0.94534 0.0
C232 C -0.00992 0.51 0.95288 0.0
C233 C 0.97021 0.50176 0.93052 0.0
C234 C 0.95432 0.48799 0.9217 0.0
C235 C 0.95687 0.46446 0.92094 0.0
C236 C 0.94319 0.45159 0.91173 0.0
C237 C 0.9267 0.46201 0.9031 0.0
C238 C 0.92372 0.48551 0.90419 0.0
C239 C 0.93752 0.4984 0.91335 0.0
H240 H 0.49389 0.53557 0.20898 0.0
H241 H 0.47317 0.56678 0.22015 0.0
H242 H 0.40967 0.53731 0.20587 0.0
H243 H 0.43062 0.50632 0.19453 0.0
H244 H 0.49334 0.48844 0.21144 0.0
H245 H 0.47468 0.54518 0.17557 0.0
H246 H 0.45161 0.5686 0.15968 0.0
H247 H 0.41629 0.50907 0.14443 0.0
H248 H 0.43937 0.4858 0.16029 0.0
H249 H 0.48839 0.43591 0.15872 0.0
H250 H 0.51224 0.41222 0.14328 0.0
H251 H 0.57232 0.44376 0.16117 0.0
H252 H 0.54837 0.46753 0.1765 0.0
H253 H 0.48544 0.48162 0.15866 0.0
H254 H 0.50017 0.42486 0.19178 0.0
H255 H 0.52506 0.39709 0.20281 0.0
H256 H 0.56418 0.45073 0.22257 0.0
H257 H 0.53912 0.4787 0.21132 0.0
C258 C 0.46382 0.51877 0.20081 0.0
C259 C 0.47549 0.53567 0.20846 0.0
C260 C 0.46359 0.55348 0.21486 0.0
C261 C 0.43973 0.55466 0.21383 0.0
C262 C 0.42804 0.53716 0.20665 0.0
C263 C 0.43997 0.51937 0.20023 0.0
C264 C 0.47668 0.50148 0.19262 0.0
C265 C 0.49177 0.48709 0.19989 0.0
C266 C 0.47404 0.49911 0.17761 0.0
C267 C 0.45871 0.51374 0.16913 0.0
C268 C 0.46165 0.53725 0.16901 0.0
C269 C 0.44845 0.55062 0.15993 0.0
C270 C 0.43224 0.54066 0.15073 0.0
C271 C 0.42886 0.5172 0.15124 0.0
C272 C 0.44199 0.5039 0.16032 0.0
C273 C 0.51661 0.45342 0.16877 0.0
C274 C 0.5067 0.43758 0.15938 0.0
C275 C 0.52034 0.42396 0.15066 0.0
C276 C 0.54413 0.42615 0.15104 0.0
C277 C 0.55403 0.44181 0.1606 0.0
C278 C 0.54039 0.45528 0.16941 0.0
C279 C 0.50212 0.4688 0.17741 0.0
C280 C 0.48685 0.48286 0.17023 0.0
C281 C 0.50415 0.47042 0.19247 0.0
C282 C 0.51802 0.45387 0.20052 0.0
C283 C 0.51409 0.4307 0.19849 0.0
C284 C 0.52838 0.41483 0.20476 0.0
C285 C 0.54681 0.42174 0.21335 0.0
C286 C 0.55012 0.44494 0.21598 0.0
C287 C 0.53582 0.4609 0.20959 0.0
H288 H 0.50523 0.94431 0.41041 0.0
H289 H 0.48054 0.92017 0.39581 0.0
H290 H 0.42195 0.95758 0.41067 0.0
H291 H 0.44684 0.98127 0.42558 0.0
H292 H 0.50833 -0.00834 0.40754 0.0
H293 H 0.49029 0.93657 0.44409 0.0
H294 H 0.4611 0.9144 0.45606 0.0
H295 H 0.42939 0.97607 0.471 0.0
H296 H 0.45892 -0.00199 0.45923 0.0
H297 H 0.51724 0.04426 0.46041 0.0
H298 H 0.54657 0.06772 0.47198 0.0
H299 H 0.59853 0.02949 0.44992 0.0
H300 H 0.56936 0.0059 0.43881 0.0
H301 H 0.50778 -0.00127 0.4605 0.0
H302 H 0.52755 0.05411 0.42616 0.0
H303 H 0.54946 0.07742 0.40974 0.0
H304 H 0.57397 0.0172 0.38842 0.0
H305 H 0.55219 -0.006 0.40488 0.0
C306 C 0.47785 0.96455 0.41904 0.0
C307 C 0.48704 0.94715 0.41061 0.0
C308 C 0.47289 0.93345 0.40222 0.0
C309 C 0.44926 0.93708 0.40194 0.0
C310 C 0.44003 0.95416 0.41074 0.0
C311 C 0.45423 0.96778 0.41922 0.0
C312 C 0.49324 0.98003 0.427 0.0
C313 C 0.5085 -0.007 0.41913 0.0
C314 C 0.49266 0.98236 0.44206 0.0
C315 C 0.47664 0.96893 0.4507 0.0
C316 C 0.47718 0.94526 0.4501 0.0
C317 C 0.46039 0.93263 0.45687 0.0
C318 C 0.44275 0.94343 0.4644 0.0
C319 C 0.44284 0.96715 0.46545 0.0
C320 C 0.45968 0.97976 0.4587 0.0
C321 C 0.54111 0.02347 0.44866 0.0
C322 C 0.53498 0.04084 0.45822 0.0
C323 C 0.55173 0.05433 0.46471 0.0
C324 C 0.5749 0.0505 0.46186 0.0
C325 C 0.5809 0.03276 0.45251 0.0
C326 C 0.56421 0.01936 0.44604 0.0
C327 C 0.52357 0.00993 0.44101 0.0
C328 C 0.50777 -0.0026 0.44892 0.0
C329 C 0.5235 0.00811 0.42589 0.0
C330 C 0.53824 0.02228 0.41677 0.0
C331 C 0.53798 0.04592 0.41813 0.0
C332 C 0.55049 0.05923 0.40873 0.0
C333 C 0.56328 0.04913 0.39773 0.0
C334 C 0.56398 0.02547 0.39665 0.0
C335 C 0.55158 0.01219 0.40607 0.0
H336 H 0.00048 0.05371 0.71271 0.0
H337 H 0.97834 0.08461 0.72315 0.0
H338 H 0.9164 0.05276 0.70816 0.0
H339 H 0.93878 0.02228 0.69745 0.0
H340 H -0.00014 0.00496 0.71532 0.0
H341 H -0.01333 0.06306 0.67958 0.0
H342 H 0.9643 0.08837 0.66447 0.0
H343 H 0.92654 0.03119 0.64792 0.0
H344 H 0.94864 0.00611 0.66322 0.0
H345 H -0.00461 0.95537 0.6613 0.0
H346 H 0.01842 0.93138 0.64564 0.0
H347 H 0.07938 0.95609 0.66645 0.0
H348 H 0.05626 0.98012 0.68206 0.0
H349 H -0.00478 -0.00023 0.66234 0.0
H350 H 0.00512 0.94174 0.69642 0.0
H351 H 0.02808 0.91326 0.70842 0.0
H352 H 0.06974 0.96582 0.72729 0.0
H353 H 0.04673 -0.00563 0.71503 0.0
C354 C 0.97128 0.03583 0.70423 0.0
C355 C 0.98211 0.05324 0.7119 0.0
C356 C 0.96938 0.07087 0.71788 0.0
C357 C 0.94554 0.07131 0.71641 0.0
C358 C 0.93472 0.05323 0.70926 0.0
C359 C 0.94747 0.0357 0.70323 0.0
C360 C 0.98488 0.01889 0.69624 0.0
C361 C -0.00094 0.00395 0.70373 0.0
C362 C 0.98336 0.01716 0.68116 0.0
C363 C 0.9692 0.03273 0.67257 0.0
C364 C 0.97335 0.05605 0.67284 0.0
C365 C 0.96067 0.07046 0.66414 0.0
C366 C 0.94363 0.06178 0.65503 0.0
C367 C 0.93932 0.03844 0.65497 0.0
C368 C 0.95205 0.02406 0.66361 0.0
C369 C 0.02407 0.96952 0.67288 0.0
C370 C 0.0137 0.95547 0.66257 0.0
C371 C 0.02688 0.94181 0.65362 0.0
C372 C 0.05072 0.94195 0.65475 0.0
C373 C 0.06105 0.95542 0.66542 0.0
C374 C 0.04784 0.96917 0.67435 0.0
C375 C 0.01013 0.98568 0.68134 0.0
C376 C -0.00402 0.00062 0.67393 0.0
C377 C 0.01139 -0.01293 0.69646 0.0
C378 C 0.02433 0.97014 0.70476 0.0
C379 C 0.01911 0.94715 0.70321 0.0
C380 C 0.03217 0.9309 0.71015 0.0
C381 C 0.05074 0.93729 0.71881 0.0
C382 C 0.05566 0.96038 0.72059 0.0
C383 C 0.04244 0.97669 0.7137 0.0
C384 C 0.35559 0.65346 0.02619 0.0
O385 O 0.37194 0.65451 0.01739 0.0
Cd386 Cd 0.36915 0.66653 0.99316 0.0
O387 O 0.33549 0.65899 0.02239 0.0
Cd388 Cd 0.31641 0.6727 6e-05 0.0
C389 C 0.34912 0.72005 0.99944 0.0
O390 O 0.33674 0.64711 0.98411 0.0
O391 O 0.31594 0.67179 0.97352 0.0
O392 O 0.2845 0.64916 0.00718 0.0
C393 C 0.32852 0.65449 0.97253 0.0
O394 O 0.36474 0.7073 0.99455 0.0
C395 C 0.26914 0.66342 0.00421 0.0
O396 O 0.3301 0.71185 0.00329 0.0
O397 O 0.27579 0.6826 -5e-05 0.0
C398 C 0.36245 0.8374 0.22979 0.0
O399 O 0.37877 0.83605 0.23868 0.0
Cd400 Cd 0.37534 0.82336 0.26268 0.0
O401 O 0.34228 0.83215 0.23348 0.0
Cd402 Cd 0.32274 0.81903 0.2557 0.0
C403 C 0.35318 0.7706 0.25574 0.0
O404 O 0.3437 0.84349 0.27211 0.0
O405 O 0.32407 0.81756 0.28219 0.0
O406 O 0.29267 0.84491 0.24878 0.0
C407 C 0.33613 0.83518 0.28354 0.0
O408 O 0.36925 0.78279 0.26072 0.0
C409 C 0.27621 0.83201 0.25177 0.0
O410 O 0.33437 0.77944 0.25192 0.0
O411 O 0.28128 0.81232 0.25599 0.0
C412 C 0.16303 0.86423 0.48238 0.0
O413 O 0.16524 0.88066 0.4911 0.0
Cd414 Cd 0.17775 0.87755 0.51527 0.0
O415 O 0.16744 0.84413 0.4863 0.0
Cd416 Cd 0.18036 0.82509 0.50877 0.0
C417 C 0.23009 0.8539 0.509 0.0
O418 O 0.15626 0.84716 0.52456 0.0
O419 O 0.18129 0.82716 0.53542 0.0
O420 O 0.15345 0.79583 0.50175 0.0
C421 C 0.16405 0.83992 0.53627 0.0
O422 O 0.21835 0.87027 0.51389 0.0
C423 C 0.16596 0.77918 0.50493 0.0
O424 O 0.22058 0.83548 0.50511 0.0
O425 O 0.18593 0.78372 0.50934 0.0
C426 C 0.14627 0.64872 0.7786 0.0
O427 O 0.14653 0.63209 0.76992 0.0
Cd428 Cd 0.16029 0.63347 0.74606 0.0
O429 O 0.15326 0.66809 0.7747 0.0
Cd430 Cd 0.16818 0.68538 0.75217 0.0
C431 C 0.21485 0.65195 0.75285 0.0
O432 O 0.14218 0.66568 0.73612 0.0
O433 O 0.16988 0.68234 0.72565 0.0
O434 O 0.14416 0.71745 0.75828 0.0
C435 C 0.15115 0.67188 0.72455 0.0
O436 O 0.2015 0.63655 0.74827 0.0
C437 C 0.1586 0.73261 0.75542 0.0
O438 O 0.20721 0.67147 0.75611 0.0
O439 O 0.17818 0.72587 0.75158 0.0
C440 C 0.84751 0.14522 0.47915 0.0
O441 O 0.84625 0.12874 0.48768 0.0
Cd442 Cd 0.83418 0.13101 0.51194 0.0
O443 O 0.84242 0.16515 0.48336 0.0
Cd444 Cd 0.82942 0.18376 0.50617 0.0
C445 C 0.78084 0.15291 0.50592 0.0
O446 O 0.85439 0.16231 0.52177 0.0
O447 O 0.82883 0.18182 0.53265 0.0
O448 O 0.85419 0.21486 0.49939 0.0
C449 C 0.84632 0.16943 0.5335 0.0
O450 O 0.79324 0.13682 0.51039 0.0
C451 C 0.84063 0.2305 0.50308 0.0
O452 O 0.78963 0.17178 0.50259 0.0
O453 O 0.82131 0.22447 0.50769 0.0
C454 C 0.85638 0.35069 0.72589 0.0
O455 O 0.87302 0.34994 0.73459 0.0
Cd456 Cd 0.87107 0.33907 0.75906 0.0
O457 O 0.83637 0.34553 0.72997 0.0
Cd458 Cd 0.81798 0.33313 0.75274 0.0
C459 C 0.85008 0.28551 0.75388 0.0
O460 O 0.83916 0.35884 0.76828 0.0
O461 O 0.81926 0.334 0.77923 0.0
O462 O 0.78656 0.35773 0.74619 0.0
C463 C 0.83166 0.35145 0.77999 0.0
O464 O 0.86593 0.29837 0.75842 0.0
C465 C 0.7708 0.34402 0.74927 0.0
O466 O 0.831 0.29364 0.74994 0.0
O467 O 0.77692 0.3245 0.75326 0.0
C468 C 0.65679 0.35259 0.97551 0.0
O469 O 0.65835 0.36962 0.98382 0.0
Cd470 Cd 0.66986 0.36859 0.0083 0.0
O471 O 0.66151 0.33286 0.98001 0.0
Cd472 Cd 0.67451 0.31548 0.003 0.0
C473 C 0.72328 0.34623 0.00341 0.0
O474 O 0.64943 0.3379 0.01819 0.0
O475 O 0.67404 0.31777 0.02943 0.0
O476 O 0.64879 0.28499 0.99635 0.0
C477 C 0.65687 0.33066 0.03 0.0
O478 O 0.71063 0.36254 0.00737 0.0
C479 C 0.66191 0.26896 -0.00016 0.0
O480 O 0.71469 0.32708 0.00017 0.0
O481 O 0.68167 0.27443 0.0042 0.0
C482 C 0.66571 0.14044 0.27486 0.0
O483 O 0.66774 0.12395 0.26618 0.0
Cd484 Cd 0.67853 0.1268 0.24173 0.0
O485 O 0.66972 0.16056 0.27083 0.0
Cd486 Cd 0.68215 0.17941 0.24829 0.0
C487 C 0.73141 0.14964 0.24745 0.0
O488 O 0.65674 0.15756 0.233 0.0
O489 O 0.68116 0.17752 0.22171 0.0
O490 O 0.65724 0.20966 0.25656 0.0
C491 C 0.66378 0.16492 0.22118 0.0
O492 O 0.71931 0.13349 0.24255 0.0
C493 C 0.66967 0.22578 0.25241 0.0
O494 O 0.72225 0.16812 0.25151 0.0
O495 O 0.68862 0.22044 0.24685 0.0
H496 H 0.11272 0.96454 0.27519 0.0
H497 H 0.14369 0.94114 0.26598 0.0
H498 H 0.10814 0.88125 0.27909 0.0
H499 H 0.07694 0.90464 0.28826 0.0
H500 H 0.16941 0.9136 0.28307 0.0
H501 H 0.12974 0.86366 0.23892 0.0
H502 H 0.1168 0.88885 0.24627 0.0
H503 H 0.11506 0.86268 0.25572 0.0
C504 C 0.11138 0.94636 0.27596 0.0
C505 C 0.09247 0.93642 0.28251 0.0
C506 C 0.12903 0.93301 0.27065 0.0
C507 C 0.12818 0.90944 0.27175 0.0
C508 C 0.10897 0.89937 0.27786 0.0
H509 H 0.23789 0.81106 0.26172 0.0
H510 H 0.20042 0.8283 0.26556 0.0
C511 C 0.09118 0.91276 0.28312 0.0
C512 C 0.14839 0.8958 0.26777 0.0
H513 H 0.16751 0.85381 0.2455 0.0
C514 C 0.16897 0.90057 0.27483 0.0
C515 C 0.14773 0.87865 0.25712 0.0
C516 C 0.12621 0.87321 0.24896 0.0
C517 C 0.18894 0.88882 0.27147 0.0
C518 C 0.18842 0.87199 0.26065 0.0
C519 C 0.1678 0.8668 0.25376 0.0
C520 C 0.20949 0.86025 0.25623 0.0
C521 C 0.21051 0.89447 0.27955 0.0
C522 C 0.22661 0.87228 0.24925 0.0
C523 C 0.24794 0.86255 0.24707 0.0
C524 C 0.25255 0.84057 0.25181 0.0
C525 C 0.23488 0.82802 0.25797 0.0
C526 C 0.21348 0.83782 0.26016 0.0
H527 H 0.20709 0.90437 0.28947 0.0
H528 H 0.21982 0.87886 0.28245 0.0
H529 H 0.22175 0.90465 0.27264 0.0
H530 H 0.22376 0.88957 0.24605 0.0
H531 H 0.26111 0.87263 0.24221 0.0
H532 H 0.08988 0.58216 0.5386 0.0
H533 H 0.11346 0.61392 0.53094 0.0
H534 H 0.05382 0.64733 0.51454 0.0
H535 H 0.03019 0.61581 0.52224 0.0
H536 H 0.12057 0.63576 0.50439 0.0
H537 H 0.07922 0.69231 0.54413 0.0
H538 H 0.07602 0.66205 0.54443 0.0
H539 H 0.05946 0.67864 0.53219 0.0
C540 C 0.08187 0.59611 0.53314 0.0
C541 C 0.05815 0.59664 0.53117 0.0
C542 C 0.09534 0.61426 0.52881 0.0
C543 C 0.08531 0.63317 0.52245 0.0
C544 C 0.06183 0.63313 0.51974 0.0
H545 H 0.12414 0.76548 0.49572 0.0
H546 H 0.10656 0.72859 0.49884 0.0
C547 C 0.04836 0.61511 0.52412 0.0
C548 C 0.09905 0.6535 0.51931 0.0
H549 H 0.10304 0.70976 0.52708 0.0
C550 C 0.11687 0.65192 0.5094 0.0
C551 C 0.09434 0.67451 0.52599 0.0
C552 C 0.07638 0.67701 0.53739 0.0
C553 C 0.12957 0.67107 0.50561 0.0
C554 C 0.12433 0.69216 0.51198 0.0
C555 C 0.10685 0.69358 0.5221 0.0
C556 C 0.13635 0.71323 0.50824 0.0
C557 C 0.14805 0.6688 0.49457 0.0
C558 C 0.15913 0.7167 0.51225 0.0
C559 C 0.16928 0.73787 0.5105 0.0
C560 C 0.15674 0.75591 0.50478 0.0
C561 C 0.13427 0.752 0.50019 0.0
C562 C 0.12417 0.73091 0.50195 0.0
H563 H 0.14738 0.65226 0.48888 0.0
H564 H 0.1467 0.6825 0.4866 0.0
H565 H 0.16486 0.67036 0.49993 0.0
H566 H 0.16872 0.70335 0.5173 0.0
H567 H 0.18658 0.74036 0.51419 0.0
H568 H 0.38039 0.53686 0.79016 0.0
H569 H 0.34786 0.55963 0.78278 0.0
H570 H 0.39264 0.6149 0.77313 0.0
H571 H 0.42549 0.592 0.78024 0.0
H572 H 0.33509 0.60278 0.79486 0.0
H573 H 0.35258 0.60619 0.73641 0.0
H574 H 0.36539 0.5853 0.74783 0.0
H575 H 0.37537 0.61388 0.74842 0.0
C576 C 0.38341 0.55371 0.78623 0.0
C577 C 0.40557 0.56254 0.78567 0.0
C578 C 0.36477 0.56677 0.78215 0.0
C579 C 0.36787 0.58887 0.77733 0.0
C580 C 0.38993 0.59779 0.77668 0.0
H581 H 0.24745 0.67661 0.76734 0.0
H582 H 0.28649 0.66489 0.77295 0.0
C583 C 0.40863 0.58474 0.78083 0.0
C584 C 0.34777 0.60253 0.77331 0.0
H585 H 0.31932 0.62411 0.74461 0.0
C586 C 0.33173 0.60773 0.78392 0.0
C587 C 0.34348 0.60884 0.75901 0.0
C588 C 0.35998 0.60321 0.74719 0.0
C589 C 0.31117 0.61849 0.78053 0.0
C590 C 0.30664 0.62437 0.76617 0.0
C591 C 0.32296 0.61974 0.75562 0.0
C592 C 0.28404 0.63289 0.76169 0.0
C593 C 0.29396 0.62248 0.79221 0.0
C594 C 0.27005 0.61913 0.75313 0.0
C595 C 0.24785 0.62572 0.74992 0.0
C596 C 0.23917 0.64633 0.75513 0.0
C597 C 0.25357 0.66061 0.76319 0.0
C598 C 0.27584 0.65391 0.76646 0.0
H599 H 0.29867 0.61383 0.80229 0.0
H600 H 0.29272 0.64084 0.79452 0.0
H601 H 0.2769 0.61649 0.78874 0.0
H602 H 0.27606 0.60287 0.74931 0.0
H603 H 0.23733 0.61437 0.74359 0.0
H604 H 0.44975 0.90949 0.01672 0.0
H605 H 0.43044 0.8751 0.00858 0.0
H606 H 0.38573 0.87888 0.04492 0.0
H607 H 0.40531 0.91289 0.05341 0.0
H608 H 0.42686 0.83473 0.02681 0.0
H609 H 0.34308 0.8681 0.00894 0.0
H610 H 0.36824 0.88555 0.01006 0.0
H611 H 0.35365 0.87772 0.02606 0.0
C612 C 0.43582 0.90305 0.02301 0.0
C613 C 0.42916 0.91398 0.03575 0.0
C614 C 0.4247 0.88349 0.01827 0.0
C615 C 0.40653 0.87464 0.02607 0.0
C616 C 0.39946 0.88571 0.03861 0.0
H617 H 0.32814 0.75019 0.01759 0.0
H618 H 0.34094 0.7885 0.02376 0.0
C619 C 0.41066 0.90519 0.04342 0.0
C620 C 0.39624 0.85283 0.02172 0.0
H621 H 0.34765 0.82844 0.00871 0.0
C622 C 0.40958 0.83333 0.02279 0.0
C623 C 0.37359 0.85111 0.01671 0.0
C624 C 0.35874 0.8717 0.01526 0.0
C625 C 0.40087 0.81206 0.01904 0.0
C626 C 0.37839 0.81033 0.01364 0.0
C627 C 0.36491 0.82983 0.01274 0.0
C628 C 0.36887 0.78836 0.00877 0.0
C629 C 0.41572 0.79158 0.02119 0.0
C630 C 0.3797 0.77601 0.99789 0.0
C631 C 0.3726 0.75415 0.99446 0.0
C632 C 0.35423 0.74431 0.00167 0.0
C633 C 0.34236 0.75729 0.01187 0.0
C634 C 0.34968 0.77915 0.01542 0.0
H635 H 0.42944 0.79493 0.02914 0.0
H636 H 0.4056 0.77694 0.02484 0.0
H637 H 0.42388 0.78694 0.01089 0.0
H638 H 0.39414 0.78303 0.99234 0.0
H639 H 0.3819 0.74473 0.9864 0.0
H640 H 0.05823 0.60055 0.98417 0.0
H641 H 0.09172 0.62176 0.99246 0.0
H642 H 0.13548 0.57207 0.97287 0.0
H643 H 0.10226 0.55102 0.96438 0.0
H644 H 0.13031 0.6063 0.00999 0.0
H645 H 0.15495 0.63394 0.95567 0.0
H646 H 0.12684 0.62367 0.95974 0.0
H647 H 0.14988 0.60416 0.95716 0.0
C648 C 0.075 0.59418 0.98162 0.0
C649 C 0.0776 0.57412 0.9736 0.0
C650 C 0.09407 0.60625 0.98642 0.0
C651 C 0.11602 0.59859 0.98313 0.0
C652 C 0.11866 0.57837 0.97538 0.0
H653 H 0.2505 0.62392 0.01323 0.0
H654 H 0.21143 0.61105 0.00978 0.0
C655 C 0.09966 0.56626 0.97066 0.0
C656 C 0.13629 0.61175 0.98758 0.0
H657 H 0.18247 0.63898 0.97418 0.0
C658 C 0.14162 0.61368 0.0022 0.0
C659 C 0.15079 0.62164 0.9774 0.0
C660 C 0.14529 0.62098 0.96161 0.0
C661 C 0.16169 0.62439 0.00685 0.0
C662 C 0.17682 0.63319 0.9966 0.0
C663 C 0.17093 0.63213 0.98203 0.0
C664 C 0.19954 0.64225 0.00054 0.0
C665 C 0.16661 0.62606 0.02268 0.0
C666 C 0.20586 0.66414 0.99656 0.0
C667 C 0.22826 0.67154 0.99849 0.0
C668 C 0.24479 0.65708 0.00428 0.0
C669 C 0.23817 0.63551 0.00878 0.0
C670 C 0.21578 0.62815 0.00689 0.0
H671 H 0.15077 0.62496 0.02906 0.0
H672 H 0.1778 0.61186 0.02581 0.0
H673 H 0.17542 0.6421 0.02543 0.0
H674 H 0.19361 0.67524 0.99156 0.0
H675 H 0.23283 0.68823 0.99487 0.0
H676 H 0.40382 0.57697 0.20166 0.0
H677 H 0.38543 0.61159 0.21019 0.0
H678 H 0.4294 0.61268 0.24721 0.0
H679 H 0.44758 0.57777 0.23897 0.0
H680 H 0.36417 0.62292 0.23891 0.0
H681 H 0.44035 0.67347 0.22479 0.0
H682 H 0.43511 0.64567 0.21739 0.0
H683 H 0.44542 0.64883 0.23541 0.0
C684 C 0.40928 0.58427 0.21177 0.0
C685 C 0.42729 0.57463 0.21959 0.0
C686 C 0.3988 0.60411 0.21659 0.0
C687 C 0.40622 0.61473 0.22924 0.0
C688 C 0.42361 0.6048 0.23733 0.0
H689 H 0.38592 0.74508 0.26836 0.0
H690 H 0.39635 0.70622 0.26268 0.0
C691 C 0.43405 0.58493 0.23256 0.0
C692 C 0.39676 0.63689 0.23356 0.0
H693 H 0.41074 0.69254 0.23672 0.0
C694 C 0.37426 0.6382 0.23844 0.0
C695 C 0.41 0.65671 0.23284 0.0
C696 C 0.43402 0.65629 0.22723 0.0
C697 C 0.36483 0.65886 0.24299 0.0
C698 C 0.37816 0.6787 0.24235 0.0
C699 C 0.40057 0.67731 0.23729 0.0
C700 C 0.3696 0.70117 0.247 0.0
C701 C 0.34096 0.65917 0.2488 0.0
C702 C 0.35074 0.71116 0.2403 0.0
C703 C 0.34456 0.73343 0.24364 0.0
C704 C 0.3574 0.74617 0.25356 0.0
C705 C 0.37577 0.73581 0.26059 0.0
C706 C 0.38176 0.71357 0.25736 0.0
H707 H 0.33543 0.64212 0.25217 0.0
H708 H 0.33954 0.67094 0.25808 0.0
H709 H 0.32912 0.66495 0.24032 0.0
H710 H 0.34137 0.70209 0.23206 0.0
H711 H 0.33043 0.74099 0.23797 0.0
H712 H 0.42059 0.9505 0.48984 0.0
H713 H 0.3869 0.93091 0.49859 0.0
H714 H 0.38803 0.88672 0.46168 0.0
H715 H 0.42136 0.90651 0.45263 0.0
H716 H 0.34524 0.92791 0.48148 0.0
H717 H 0.37906 0.84383 0.49678 0.0
H718 H 0.39694 0.86853 0.49559 0.0
H719 H 0.38733 0.85443 0.4796 0.0
C720 C 0.41375 0.93657 0.48359 0.0
C721 C 0.42368 0.93016 0.4705 0.0
C722 C 0.3946 0.92529 0.48867 0.0
C723 C 0.38516 0.90723 0.48085 0.0
C724 C 0.39534 0.90034 0.468 0.0
H725 H 0.25824 0.83245 0.48983 0.0
H726 H 0.29695 0.84383 0.48334 0.0
C727 C 0.41443 0.91168 0.46286 0.0
C728 C 0.36342 0.89711 0.48546 0.0
H729 H 0.33915 0.84879 0.49787 0.0
C730 C 0.3439 0.91064 0.48512 0.0
C731 C 0.36175 0.87449 0.48997 0.0
C732 C 0.38237 0.85941 0.49063 0.0
C733 C 0.32267 0.90219 0.48915 0.0
C734 C 0.32102 0.87973 0.49406 0.0
C735 C 0.3405 0.86603 0.4942 0.0
C736 C 0.29914 0.87055 0.49925 0.0
C737 C 0.30211 0.9173 0.48784 0.0
C738 C 0.28803 0.88109 0.51076 0.0
C739 C 0.26596 0.87481 0.51437 0.0
C740 C 0.25468 0.85757 0.50671 0.0
C741 C 0.26649 0.8458 0.49591 0.0
C742 C 0.28857 0.85231 0.49218 0.0
H743 H 0.30507 0.93123 0.48021 0.0
H744 H 0.28695 0.90761 0.48423 0.0
H745 H 0.29834 0.92499 0.49845 0.0
H746 H 0.29611 0.89481 0.5166 0.0
H747 H 0.25745 0.88399 0.52288 0.0
H748 H 0.09726 0.93561 0.72015 0.0
H749 H 0.12096 0.90489 0.72932 0.0
H750 H 0.06074 0.86843 0.74137 0.0
H751 H 0.03698 0.89918 0.73249 0.0
H752 H 0.0976 0.86849 0.76236 0.0
H753 H 0.12509 0.84335 0.7075 0.0
H754 H 0.12927 0.87235 0.71271 0.0
H755 H 0.10096 0.86154 0.7106 0.0
C756 C 0.08909 0.92122 0.72497 0.0
C757 C 0.06524 0.91973 0.7255 0.0
C758 C 0.10264 0.90362 0.7301 0.0
C759 C 0.09257 0.88429 0.73585 0.0
C760 C 0.06883 0.88317 0.73691 0.0
H761 H 0.11791 0.75088 0.76314 0.0
H762 H 0.10515 0.78961 0.76 0.0
C763 C 0.05529 0.90068 0.73175 0.0
C764 C 0.10652 0.86466 0.74016 0.0
H765 H 0.1376 0.82092 0.72647 0.0
C766 C 0.10657 0.8582 0.75456 0.0
C767 C 0.11831 0.85136 0.72996 0.0
C768 C 0.11839 0.85731 0.7143 0.0
C769 C 0.11768 0.83846 0.75899 0.0
C770 C 0.12856 0.82458 0.74867 0.0
C771 C 0.12928 0.83157 0.73437 0.0
C772 C 0.13739 0.8018 0.75215 0.0
C773 C 0.1175 0.83262 0.77465 0.0
C774 C 0.15977 0.79561 0.74869 0.0
C775 C 0.16711 0.7733 0.75036 0.0
C776 C 0.1521 0.75676 0.75541 0.0
C777 C 0.12995 0.7632 0.75928 0.0
C778 C 0.12265 0.78543 0.7576 0.0
H779 H 0.11591 0.84801 0.78147 0.0
H780 H 0.10263 0.8217 0.77684 0.0
H781 H 0.13317 0.82344 0.7778 0.0
H782 H 0.17139 0.80793 0.74435 0.0
H783 H 0.18425 0.76887 0.74723 0.0
H784 H 0.56681 0.40101 0.78664 0.0
H785 H 0.60046 0.38102 0.77763 0.0
H786 H 0.63275 0.44473 0.76908 0.0
H787 H 0.59939 0.46474 0.77821 0.0
H788 H 0.62402 0.38106 0.75165 0.0
H789 H 0.67779 0.41439 0.79591 0.0
H790 H 0.64721 0.41667 0.79599 0.0
H791 H 0.66403 0.43623 0.78594 0.0
C792 C 0.58099 0.41072 0.78267 0.0
C793 C 0.58061 0.43444 0.78329 0.0
C794 C 0.6002 0.39929 0.77756 0.0
C795 C 0.61929 0.41139 0.77298 0.0
C796 C 0.61844 0.43505 0.77291 0.0
H797 H 0.75391 0.38537 0.74243 0.0
H798 H 0.71568 0.39976 0.74691 0.0
C799 C 0.59937 0.44647 0.7781 0.0
C800 C 0.64047 0.39946 0.76879 0.0
H801 H 0.6971 0.3962 0.77667 0.0
C802 C 0.63998 0.3842 0.75717 0.0
C803 C 0.66122 0.4034 0.77613 0.0
C804 C 0.66262 0.41838 0.78927 0.0
C805 C 0.65992 0.37345 0.75239 0.0
C806 C 0.68072 0.37808 0.75943 0.0
C807 C 0.6811 0.3929 0.77121 0.0
C808 C 0.70256 0.36815 0.75469 0.0
C809 C 0.65884 0.35767 0.73965 0.0
C810 C 0.70768 0.34544 0.75732 0.0
C811 C 0.72962 0.33713 0.75482 0.0
C812 C 0.74675 0.35145 0.74968 0.0
C813 C 0.74115 0.37388 0.74639 0.0
C814 C 0.71931 0.38216 0.74895 0.0
H815 H 0.64192 0.35791 0.73432 0.0
H816 H 0.67202 0.36228 0.73173 0.0
H817 H 0.66244 0.34021 0.74317 0.0
H818 H 0.69502 0.33444 0.7619 0.0
H819 H 0.7334 0.31979 0.7575 0.0
H820 H 0.592 0.07249 0.03918 0.0
H821 H 0.61473 0.10419 0.03047 0.0
H822 H 0.55414 0.13485 0.01329 0.0
H823 H 0.53138 0.10342 0.02204 0.0
H824 H 0.62102 0.12431 0.0032 0.0
H825 H 0.57862 0.18243 0.04157 0.0
H826 H 0.57627 0.15216 0.04273 0.0
H827 H 0.5591 0.16742 0.03014 0.0
C828 C 0.58361 0.08582 0.03333 0.0
C829 C 0.55987 0.08564 0.03145 0.0
C830 C 0.5966 0.10392 0.0284 0.0
C831 C 0.58604 0.12207 0.0215 0.0
C832 C 0.56255 0.12126 0.01888 0.0
H833 H 0.62064 0.2533 0.99089 0.0
H834 H 0.60432 0.21609 0.99498 0.0
C835 C 0.54957 0.1033 0.02387 0.0
C836 C 0.5992 0.14249 0.01774 0.0
H837 H 0.60169 0.1993 0.02388 0.0
C838 C 0.61694 0.1407 0.00777 0.0
C839 C 0.59399 0.16381 0.02385 0.0
C840 C 0.57612 0.16661 0.03527 0.0
C841 C 0.62903 0.15989 0.00337 0.0
C842 C 0.62326 0.18125 0.00916 0.0
C843 C 0.60589 0.18291 0.01934 0.0
C844 C 0.63461 0.20236 0.00476 0.0
C845 C 0.64744 0.15736 0.9923 0.0
C846 C 0.65727 0.20681 0.00863 0.0
C847 C 0.6667 0.22817 0.00633 0.0
C848 C 0.65355 0.24539 0.00018 0.0
C849 C 0.63123 0.24045 0.99568 0.0
C850 C 0.62185 0.21918 0.998 0.0
H851 H 0.64726 0.1404 0.98714 0.0
H852 H 0.64551 0.17036 0.98392 0.0
H853 H 0.66425 0.1599 0.9975 0.0
H854 H 0.6673 0.19414 0.01404 0.0
H855 H 0.6839 0.23146 0.00996 0.0
H856 H 0.92158 0.05148 0.26635 0.0
H857 H 0.88777 0.07121 0.25771 0.0
H858 H 0.88994 0.11542 0.29461 0.0
H859 H 0.92341 0.09546 0.30356 0.0
H860 H 0.8464 0.0746 0.2751 0.0
H861 H 0.88064 0.15815 0.25925 0.0
H862 H 0.89829 0.13326 0.26036 0.0
H863 H 0.88933 0.1475 0.27639 0.0
C864 C 0.91493 0.06543 0.27263 0.0
C865 C 0.92519 0.07179 0.2857 0.0
C866 C 0.89572 0.07679 0.26761 0.0
C867 C 0.88654 0.09489 0.27545 0.0
C868 C 0.89704 0.10175 0.28827 0.0
H869 H 0.76038 0.17102 0.26631 0.0
H870 H 0.79907 0.1592 0.27274 0.0
C871 C 0.9162 0.09032 0.29336 0.0
C872 C 0.86478 0.10515 0.27087 0.0
H873 H 0.8407 0.15347 0.25816 0.0
C874 C 0.84515 0.09182 0.27135 0.0
C875 C 0.86323 0.1277 0.2662 0.0
C876 C 0.88397 0.14256 0.2654 0.0
C877 C 0.82391 0.10041 0.26729 0.0
C878 C 0.82237 0.12278 0.26222 0.0
C879 C 0.84197 0.13628 0.26194 0.0
C880 C 0.80046 0.13213 0.25705 0.0
C881 C 0.80324 0.08553 0.26876 0.0
C882 C 0.7889 0.12151 0.24567 0.0
C883 C 0.76684 0.12805 0.24209 0.0
C884 C 0.75601 0.14561 0.24965 0.0
C885 C 0.76826 0.15742 0.2603 0.0
C886 C 0.79034 0.15066 0.264 0.0
H887 H 0.80624 0.07171 0.27648 0.0
H888 H 0.78825 0.09543 0.27234 0.0
H889 H 0.79918 0.07769 0.25822 0.0
H890 H 0.79664 0.10756 0.23992 0.0
H891 H 0.75798 0.11883 0.23369 0.0
H892 H 0.90336 0.42252 0.54917 0.0
H893 H 0.88447 0.38835 0.54032 0.0
H894 H 0.93097 0.38484 0.50489 0.0
H895 H 0.94961 0.41945 0.51337 0.0
H896 H 0.86592 0.37798 0.50939 0.0
H897 H 0.93629 0.32375 0.52952 0.0
H898 H 0.93093 0.35159 0.53679 0.0
H899 H 0.94364 0.34845 0.51949 0.0
C900 C 0.90931 0.41482 0.53932 0.0
C901 C 0.92809 0.42376 0.53201 0.0
C902 C 0.89854 0.39522 0.53433 0.0
C903 C 0.90643 0.38409 0.52201 0.0
C904 C 0.92475 0.39318 0.51447 0.0
H905 H 0.87825 0.24848 0.49061 0.0
H906 H 0.89286 0.28689 0.49335 0.0
C907 C 0.93546 0.41286 0.5194 0.0
C908 C 0.89626 0.36231 0.51752 0.0
H909 H 0.90585 0.30559 0.51788 0.0
C910 C 0.87461 0.36211 0.51117 0.0
C911 C 0.90775 0.34175 0.51984 0.0
C912 C 0.9309 0.34117 0.52685 0.0
C913 C 0.86414 0.34173 0.50699 0.0
C914 C 0.87543 0.32106 0.5096 0.0
C915 C 0.89721 0.3214 0.51584 0.0
C916 C 0.8649 0.29876 0.50639 0.0
C917 C 0.84129 0.34262 0.49962 0.0
C918 C 0.8441 0.2927 0.51258 0.0
C919 C 0.83556 0.27079 0.51088 0.0
C920 C 0.84788 0.25442 0.50316 0.0
C921 C 0.86837 0.2607 0.49663 0.0
C922 C 0.87676 0.28264 0.4982 0.0
H923 H 0.83856 0.3591 0.49433 0.0
H924 H 0.83953 0.32895 0.49148 0.0
H925 H 0.82771 0.34056 0.5077 0.0
H926 H 0.8349 0.30461 0.51924 0.0
H927 H 0.81984 0.26643 0.51616 0.0
H928 H 0.61584 0.03739 0.47293 0.0
H929 H 0.64685 0.06146 0.48155 0.0
H930 H 0.6059 0.12054 0.47426 0.0
H931 H 0.57477 0.09658 0.46529 0.0
H932 H 0.66294 0.10459 0.46192 0.0
H933 H 0.63731 0.11834 0.51869 0.0
H934 H 0.63027 0.09229 0.50948 0.0
H935 H 0.61644 0.11793 0.50443 0.0
C936 C 0.61338 0.0555 0.47314 0.0
C937 C 0.59288 0.06507 0.46831 0.0
C938 C 0.63106 0.06919 0.47814 0.0
C939 C 0.62857 0.09269 0.47852 0.0
C940 C 0.608 0.10239 0.4741 0.0
H941 H 0.75015 0.17817 0.49062 0.0
H942 H 0.71091 0.16782 0.48434 0.0
C943 C 0.59024 0.08867 0.46905 0.0
C944 C 0.64811 0.10688 0.48285 0.0
H945 H 0.67388 0.13073 0.51209 0.0
C946 C 0.66523 0.11073 0.4728 0.0
C947 C 0.65091 0.11465 0.49707 0.0
C948 C 0.63283 0.11071 0.50814 0.0
C949 C 0.68563 0.12143 0.47676 0.0
C950 C 0.6888 0.1286 0.49113 0.0
C951 C 0.6713 0.1254 0.50107 0.0
C952 C 0.71119 0.13679 0.49632 0.0
C953 C 0.70413 0.12384 0.46575 0.0
C954 C 0.72395 0.12322 0.50555 0.0
C955 C 0.74625 0.12904 0.50913 0.0
C956 C 0.75625 0.14865 0.50361 0.0
C957 C 0.74298 0.16293 0.49501 0.0
C958 C 0.72062 0.157 0.49136 0.0
H959 H 0.70017 0.11446 0.45568 0.0
H960 H 0.70624 0.14193 0.46313 0.0
H961 H 0.72058 0.11762 0.47004 0.0
H962 H 0.71697 0.10759 0.50951 0.0
H963 H 0.75588 0.11775 0.51589 0.0
H964 H 0.95195 0.09615 0.74109 0.0
H965 H 0.93195 0.13049 0.74852 0.0
H966 H 0.88878 0.12553 0.71124 0.0
H967 H 0.90905 0.09159 0.70346 0.0
H968 H 0.92881 0.17037 0.72977 0.0
H969 H 0.84456 0.13694 0.74614 0.0
H970 H 0.86988 0.11965 0.74581 0.0
H971 H 0.85592 0.1269 0.72939 0.0
C972 C 0.9382 0.10231 0.73446 0.0
C973 C 0.93218 0.09107 0.72165 0.0
C974 C 0.92668 0.12184 0.73879 0.0
C975 C 0.90875 0.13035 0.73051 0.0
C976 C 0.9023 0.11896 0.71791 0.0
H977 H 0.82958 0.25482 0.73574 0.0
H978 H 0.84255 0.21627 0.73036 0.0
C979 C 0.9139 0.09952 0.71351 0.0
C980 C 0.89813 0.1522 0.7344 0.0
H981 H 0.84885 0.17664 0.74602 0.0
C982 C 0.91136 0.17176 0.73338 0.0
C983 C 0.87527 0.15391 0.73888 0.0
C984 C 0.86051 0.13327 0.74023 0.0
C985 C 0.90235 0.19307 0.73667 0.0
C986 C 0.87965 0.19481 0.74155 0.0
C987 C 0.86628 0.17525 0.74239 0.0
C988 C 0.86984 0.21685 0.74598 0.0
C989 C 0.91714 0.21358 0.7346 0.0
C990 C 0.88021 0.22952 0.75696 0.0
C991 C 0.87303 0.25149 0.75993 0.0
C992 C 0.85503 0.26114 0.75217 0.0
C993 C 0.84352 0.24785 0.74189 0.0
C994 C 0.85093 0.22586 0.73879 0.0
H995 H 0.93119 0.21009 0.72698 0.0
H996 H 0.90707 0.22803 0.73055 0.0
H997 H 0.92488 0.21857 0.74501 0.0
H998 H 0.89441 0.22266 0.76292 0.0
H999 H 0.88203 0.26117 0.76806 0.0
H1000 H 0.89196 0.46146 0.98392 0.0
H1001 H 0.86266 0.43538 0.99205 0.0
H1002 H 0.89551 0.38074 0.9694 0.0
H1003 H 0.92493 0.40689 0.96112 0.0
H1004 H 0.8481 0.38616 0.96337 0.0
H1005 H 0.86485 0.38408 0.02167 0.0
H1006 H 0.86411 0.41216 0.01465 0.0
H1007 H 0.88595 0.3929 0.0089 0.0
C1008 C 0.89308 0.44384 0.9808 0.0
C1009 C 0.91071 0.4362 0.97189 0.0
C1010 C 0.87645 0.42892 0.98555 0.0
C1011 C 0.87709 0.40608 0.98148 0.0
C1012 C 0.89487 0.39827 0.97277 0.0
H1013 H 0.75585 0.31867 0.99121 0.0
H1014 H 0.79571 0.32829 0.98646 0.0
C1015 C 0.91168 0.41318 0.96811 0.0
C1016 C 0.85802 0.39105 0.98537 0.0
H1017 H 0.82718 0.37353 0.014 0.0
C1018 C 0.84373 0.38289 0.97442 0.0
C1019 C 0.85247 0.38681 -0.00022 0.0
C1020 C 0.86777 0.39425 0.01193 0.0
C1021 C 0.8231 0.3721 0.97754 0.0
C1022 C 0.8169 0.36901 0.99201 0.0
C1023 C 0.83193 0.37593 0.00292 0.0
C1024 C 0.79371 0.36164 0.99604 0.0
C1025 C 0.80742 0.36553 0.96536 0.0
C1026 C 0.77969 0.37679 0.0035 0.0
C1027 C 0.75712 0.37133 0.0063 0.0
C1028 C 0.74797 0.35052 0.00173 0.0
C1029 C 0.76232 0.33488 0.99481 0.0
C1030 C 0.78505 0.3404 0.99201 0.0
H1031 H 0.81314 0.37244 0.95498 0.0
H1032 H 0.80687 0.34688 0.96434 0.0
H1033 H 0.78988 0.3716 0.96746 0.0
H1034 H 0.78601 0.39324 0.00675 0.0
H1035 H 0.7467 0.38375 0.01176 0.0
H1036 H 0.56539 0.38596 0.19917 0.0
H1037 H 0.5888 0.35576 0.20898 0.0
H1038 H 0.58775 0.38839 0.25043 0.0
H1039 H 0.56423 0.41889 0.24062 0.0
H1040 H 0.6312 0.36987 0.24248 0.0
H1041 H 0.56114 0.30816 0.23555 0.0
H1042 H 0.56784 0.3229 0.21943 0.0
H1043 H 0.55671 0.33824 0.23456 0.0
C1044 C 0.57012 0.38672 0.21038 0.0
C1045 C 0.56265 0.40459 0.21919 0.0
C1046 C 0.58353 0.36949 0.21596 0.0
C1047 C 0.58961 0.36962 0.23048 0.0
C1048 C 0.58311 0.38794 0.2392 0.0
H1049 H 0.63342 0.24256 0.26716 0.0
H1050 H 0.61566 0.27954 0.2645 0.0
C1051 C 0.56972 0.40533 0.23359 0.0
C1052 C 0.6019 0.35006 0.23655 0.0
H1053 H 0.59789 0.29304 0.24021 0.0
C1054 C 0.62389 0.35308 0.24214 0.0
C1055 C 0.59215 0.32826 0.23635 0.0
C1056 C 0.56808 0.32416 0.23128 0.0
C1057 C 0.63676 0.33463 0.247 0.0
C1058 C 0.62746 0.31263 0.246 0.0
C1059 C 0.60513 0.30985 0.24091 0.0
C1060 C 0.6406 0.29201 0.24958 0.0
C1061 C 0.66011 0.33892 0.25317 0.0
C1062 C 0.66092 0.28688 0.24241 0.0
C1063 C 0.67128 0.26579 0.24405 0.0
C1064 C 0.66126 0.24931 0.25269 0.0
C1065 C 0.64151 0.25486 0.26038 0.0
C1066 C 0.63133 0.276 0.25886 0.0
H1067 H 0.6616 0.35636 0.25755 0.0
H1068 H 0.66421 0.32682 0.26179 0.0
H1069 H 0.67292 0.33694 0.24457 0.0
H1070 H 0.66814 0.29868 0.23493 0.0
H1071 H 0.68638 0.26196 0.2379 0.0
H1072 H 0.1111 0.95316 0.36541 0.0
H1073 H 0.12783 0.93182 0.38503 0.0
H1074 H 0.06864 0.88898 0.38595 0.0
H1075 H 0.05137 0.91081 0.36674 0.0
H1076 H 0.07831 0.90646 0.41182 0.0
H1077 H 0.15685 0.87027 0.38879 0.0
H1078 H 0.15488 0.90007 0.3859 0.0
H1079 H 0.13422 0.88143 0.37782 0.0
C1080 C 0.10172 0.93907 0.36969 0.0
C1081 C 0.07983 0.9338 0.36454 0.0
C1082 C 0.11146 0.92666 0.38078 0.0
C1083 C 0.09963 0.90858 0.38684 0.0
C1084 C 0.07816 0.90273 0.38135 0.0
H1085 H 0.15514 0.83376 0.46045 0.0
H1086 H 0.13929 0.84168 0.43666 0.0
C1087 C 0.06837 0.91517 0.3703 0.0
C1088 C 0.10844 0.89768 0.39996 0.0
H1089 H 0.15564 0.87332 0.41461 0.0
C1090 C 0.09507 0.89886 0.41235 0.0
C1091 C 0.13019 0.88754 0.40064 0.0
C1092 C 0.14476 0.88452 0.38753 0.0
C1093 C 0.10333 0.89128 0.42553 0.0
C1094 C 0.12566 0.8826 0.42641 0.0
C1095 C 0.13861 0.88025 0.41392 0.0
C1096 C 0.13628 0.87762 0.4404 0.0
C1097 C 0.08826 0.89309 0.43852 0.0
C1098 C 0.14024 0.89527 0.45018 0.0
C1099 C 0.14925 0.89087 0.46368 0.0
C1100 C 0.15456 0.86868 0.46771 0.0
C1101 C 0.15114 0.85103 0.45772 0.0
C1102 C 0.14213 0.8555 0.44413 0.0
H1103 H 0.07002 0.89421 0.43547 0.0
H1104 H 0.09066 0.87838 0.44563 0.0
H1105 H 0.09275 0.90859 0.44467 0.0
H1106 H 0.13613 0.9125 0.4474 0.0
H1107 H 0.15178 0.90492 0.47102 0.0
H1108 H 0.08387 0.56186 0.61265 0.0
H1109 H 0.10544 0.5809 0.63155 0.0
H1110 H 0.05561 0.63422 0.63293 0.0
H1111 H 0.03457 0.61602 0.61337 0.0
H1112 H 0.09888 0.65041 0.63647 0.0
H1113 H 0.08382 0.57811 0.67245 0.0
H1114 H 0.09839 0.5705 0.65628 0.0
H1115 H 0.06963 0.58076 0.65541 0.0
C1116 C 0.07772 0.57791 0.61668 0.0
C1117 C 0.05727 0.58724 0.61155 0.0
C1118 C 0.08995 0.58863 0.62765 0.0
C1119 C 0.08182 0.60866 0.6339 0.0
C1120 C 0.06207 0.61863 0.62835 0.0
H1121 H 0.10879 0.65541 0.71951 0.0
H1122 H 0.09283 0.64183 0.69689 0.0
C1123 C 0.04993 0.60806 0.61727 0.0
C1124 C 0.09315 0.61857 0.64671 0.0
H1125 H 0.10771 0.60712 0.68126 0.0
C1126 C 0.10085 0.64098 0.64627 0.0
C1127 C 0.09539 0.60632 0.65956 0.0
C1128 C 0.08618 0.58268 0.66105 0.0
C1129 C 0.11073 0.65147 0.65835 0.0
C1130 C 0.11338 0.63903 0.67109 0.0
C1131 C 0.1058 0.61659 0.67147 0.0
C1132 C 0.12286 0.64907 0.68446 0.0
C1133 C 0.11756 0.67594 0.65749 0.0
C1134 C 0.14503 0.65788 0.68499 0.0
C1135 C 0.15414 0.66593 0.69795 0.0
C1136 C 0.14135 0.66491 0.7106 0.0
C1137 C 0.11912 0.65631 0.70997 0.0
C1138 C 0.10996 0.64855 0.69704 0.0
H1139 H 0.10908 0.68452 0.6484 0.0
H1140 H 0.11335 0.68517 0.66753 0.0
H1141 H 0.13619 0.67703 0.65585 0.0
H1142 H 0.15548 0.658 0.67549 0.0
H1143 H 0.17137 0.67234 0.69814 0.0
H1144 H 0.38451 0.53432 0.86111 0.0
H1145 H 0.36034 0.55437 0.87814 0.0
H1146 H 0.41095 0.60671 0.88238 0.0
H1147 H 0.43425 0.58786 0.86451 0.0
H1148 H 0.36824 0.56107 0.90457 0.0
H1149 H 0.3564 0.6452 0.88143 0.0
H1150 H 0.36783 0.62195 0.87113 0.0
H1151 H 0.38616 0.6391 0.88232 0.0
C1152 C 0.39019 0.55049 0.86527 0.0
C1153 C 0.41149 0.55934 0.86144 0.0
C1154 C 0.37639 0.56186 0.87513 0.0
C1155 C 0.38362 0.58225 0.88147 0.0
C1156 C 0.40461 0.59136 0.8774 0.0
H1157 H 0.36326 0.6255 0.96713 0.0
H1158 H 0.3735 0.60795 0.94438 0.0
C1159 C 0.4182 0.58025 0.86736 0.0
C1160 C 0.37061 0.59266 0.89344 0.0
H1161 H 0.3539 0.64343 0.90746 0.0
C1162 C 0.36471 0.57902 0.90504 0.0
C1163 C 0.36542 0.616 0.89404 0.0
C1164 C 0.36906 0.63129 0.88146 0.0
C1165 C 0.35512 0.58823 0.9175 0.0
C1166 C 0.35219 0.61188 0.91866 0.0
C1167 C 0.35666 0.62536 0.90674 0.0
C1168 C 0.34587 0.623 0.9324 0.0
C1169 C 0.34842 0.57245 0.92932 0.0
C1170 C 0.32757 0.63821 0.93315 0.0
C1171 C 0.32199 0.64872 0.94616 0.0
C1172 C 0.33455 0.6441 0.95862 0.0
C1173 C 0.35305 0.62916 0.95777 0.0
C1174 C 0.3588 0.61896 0.94477 0.0
H1175 H 0.34367 0.55558 0.92495 0.0
H1176 H 0.3631 0.57006 0.93664 0.0
H1177 H 0.33389 0.57919 0.93559 0.0
H1178 H 0.3175 0.64178 0.92371 0.0
H1179 H 0.30766 0.66022 0.94651 0.0
H1180 H 0.43147 0.96032 0.13261 0.0
H1181 H 0.41397 0.93779 0.15124 0.0
H1182 H 0.40033 0.88468 0.12047 0.0
H1183 H 0.41809 0.90721 0.10168 0.0
H1184 H 0.37091 0.92051 0.15383 0.0
H1185 H 0.43531 0.8518 0.15163 0.0
H1186 H 0.4393 0.87835 0.14274 0.0
H1187 H 0.42063 0.85739 0.13514 0.0
C1188 C 0.42452 0.94396 0.12974 0.0
C1189 C 0.42617 0.93554 0.11566 0.0
C1190 C 0.41458 0.93106 0.14042 0.0
C1191 C 0.40606 0.90946 0.13729 0.0
C1192 C 0.40718 0.90114 0.12318 0.0
H1193 H 0.33267 0.84133 0.20713 0.0
H1194 H 0.34075 0.85636 0.18334 0.0
C1195 C 0.41729 0.91402 0.11246 0.0
C1196 C 0.39658 0.89573 0.14902 0.0
H1197 H 0.40671 0.84882 0.16894 0.0
C1198 C 0.37853 0.90468 0.15705 0.0
C1199 C 0.40669 0.87517 0.15323 0.0
C1200 C 0.42667 0.86512 0.14534 0.0
C1201 C 0.37087 0.89411 0.16951 0.0
C1202 C 0.38127 0.87377 0.17387 0.0
C1203 C 0.39871 0.86435 0.16552 0.0
C1204 C 0.37617 0.86341 0.18787 0.0
C1205 C 0.35261 0.90547 0.1783 0.0
C1206 C 0.39353 0.86176 0.19813 0.0
C1207 C 0.38906 0.85303 0.21162 0.0
C1208 C 0.36707 0.84574 0.21519 0.0
C1209 C 0.34975 0.84695 0.20478 0.0
C1210 C 0.3543 0.85563 0.1912 0.0
H1211 H 0.34958 0.92314 0.17495 0.0
H1212 H 0.33645 0.89602 0.17698 0.0
H1213 H 0.35722 0.90553 0.18984 0.0
H1214 H 0.41054 0.86765 0.1958 0.0
H1215 H 0.40285 0.85233 0.21932 0.0
H1216 H 0.07759 0.55732 0.88885 0.0
H1217 H 0.09782 0.57738 0.87018 0.0
H1218 H 0.05869 0.63731 0.87922 0.0
H1219 H 0.03854 0.61746 0.89819 0.0
H1220 H 0.05766 0.62399 0.8506 0.0
H1221 H 0.14638 0.62699 0.87054 0.0
H1222 H 0.13416 0.5993 0.87146 0.0
H1223 H 0.12246 0.62188 0.88213 0.0
C1224 C 0.07369 0.57495 0.88719 0.0
C1225 C 0.0564 0.58575 0.89504 0.0
C1226 C 0.08531 0.58641 0.87649 0.0
C1227 C 0.07997 0.60892 0.87344 0.0
C1228 C 0.06315 0.61997 0.88147 0.0
H1229 H 0.14657 0.67849 0.80145 0.0
H1230 H 0.1306 0.67243 0.82537 0.0
C1231 C 0.05156 0.60854 0.89223 0.0
C1232 C 0.09025 0.61994 0.86087 0.0
H1233 H 0.14118 0.63121 0.84507 0.0
C1234 C 0.07589 0.62601 0.84951 0.0
C1235 C 0.11403 0.62273 0.85949 0.0
C1236 C 0.13015 0.61759 0.87162 0.0
C1237 C 0.08477 0.63346 0.83649 0.0
C1238 C 0.10857 0.63477 0.8348 0.0
C1239 C 0.12292 0.63003 0.84641 0.0
C1240 C 0.11873 0.63865 0.82061 0.0
C1241 C 0.06871 0.63908 0.82442 0.0
C1242 C 0.11753 0.62155 0.81018 0.0
C1243 C 0.12668 0.62484 0.79664 0.0
C1244 C 0.13717 0.64539 0.79319 0.0
C1245 C 0.13854 0.6625 0.80374 0.0
C1246 C 0.12948 0.65909 0.81739 0.0
H1247 H 0.05112 0.64201 0.8283 0.0
H1248 H 0.07457 0.65432 0.81869 0.0
H1249 H 0.06832 0.62482 0.81663 0.0
H1250 H 0.10942 0.60561 0.81253 0.0
H1251 H 0.1253 0.61128 0.78882 0.0
H1252 H 0.42498 0.52998 0.12268 0.0
H1253 H 0.4068 0.55288 0.10438 0.0
H1254 H 0.39386 0.6052 0.13573 0.0
H1255 H 0.41231 0.5823 0.15419 0.0
H1256 H 0.36362 0.57028 0.10214 0.0
H1257 H 0.42824 0.63878 0.1048 0.0
H1258 H 0.4324 0.612 0.11341 0.0
H1259 H 0.41387 0.63276 0.12124 0.0
C1260 C 0.41802 0.54624 0.12575 0.0
C1261 C 0.42009 0.55434 0.13989 0.0
C1262 C 0.40769 0.55934 0.11526 0.0
C1263 C 0.39919 0.58084 0.11865 0.0
C1264 C 0.40069 0.58883 0.13283 0.0
H1265 H 0.32576 0.64997 0.04868 0.0
H1266 H 0.33367 0.63497 0.07256 0.0
C1267 C 0.41119 0.57573 0.14335 0.0
C1268 C 0.38947 0.59486 0.10708 0.0
H1269 H 0.39961 0.64193 0.08738 0.0
C1270 C 0.37126 0.58611 0.099 0.0
C1271 C 0.3996 0.61544 0.103 0.0
C1272 C 0.41972 0.6253 0.11096 0.0
C1273 C 0.36353 0.59685 0.08657 0.0
C1274 C 0.37402 0.61715 0.0823 0.0
C1275 C 0.39155 0.62642 0.09074 0.0
C1276 C 0.36902 0.62753 0.06826 0.0
C1277 C 0.34511 0.5857 0.0777 0.0
C1278 C 0.3864 0.62894 0.0581 0.0
C1279 C 0.38203 0.63764 0.04457 0.0
C1280 C 0.36012 0.64515 0.04085 0.0
C1281 C 0.34278 0.64418 0.05115 0.0
C1282 C 0.34724 0.63553 0.06478 0.0
H1283 H 0.34187 0.56807 0.08106 0.0
H1284 H 0.32907 0.59536 0.07891 0.0
H1285 H 0.34972 0.58554 0.06619 0.0
H1286 H 0.40334 0.62287 0.06055 0.0
H1287 H 0.39583 0.63815 0.03695 0.0
H1288 H 0.45888 0.92449 0.37444 0.0
H1289 H 0.43474 0.90393 0.35754 0.0
H1290 H 0.38191 0.90004 0.38921 0.0
H1291 H 0.40627 0.92028 0.40646 0.0
H1292 H 0.4131 0.85949 0.36112 0.0
H1293 H 0.35249 0.93056 0.35294 0.0
H1294 H 0.3805 0.93494 0.36045 0.0
H1295 H 0.35875 0.92215 0.37099 0.0
C1296 C 0.44231 0.91896 0.37796 0.0
C1297 C 0.43457 0.92398 0.39186 0.0
C1298 C 0.42848 0.90731 0.36824 0.0
C1299 C 0.40656 0.90059 0.37213 0.0
C1300 C 0.39874 0.9053 0.386 0.0
H1301 H 0.32871 0.81709 0.31004 0.0
H1302 H 0.34271 0.83154 0.33319 0.0
C1303 C 0.41264 0.91692 0.3958 0.0
C1304 C 0.39197 0.88911 0.36137 0.0
H1305 H 0.34814 0.89857 0.33814 0.0
C1306 C 0.39861 0.86779 0.35625 0.0
C1307 C 0.37323 0.90015 0.35503 0.0
C1308 C 0.36574 0.92327 0.36002 0.0
C1309 C 0.38751 0.85754 0.34456 0.0
C1310 C 0.36925 0.86893 0.3379 0.0
C1311 C 0.36206 0.88987 0.34336 0.0
C1312 C 0.35933 0.86068 0.32425 0.0
C1313 C 0.39613 0.83521 0.33889 0.0
C1314 C 0.36368 0.87255 0.31167 0.0
C1315 C 0.35582 0.86436 0.29851 0.0
C1316 C 0.34331 0.84419 0.29767 0.0
C1317 C 0.33838 0.83263 0.31035 0.0
C1318 C 0.34639 0.84081 0.32356 0.0
H1319 H 0.41214 0.82992 0.34423 0.0
H1320 H 0.38311 0.82201 0.34064 0.0
H1321 H 0.39916 0.83619 0.32719 0.0
H1322 H 0.37365 0.88792 0.312 0.0
H1323 H 0.3598 0.87374 0.28895 0.0
H1324 H 0.0888 0.91626 0.65969 0.0
H1325 H 0.11268 0.89706 0.64179 0.0
H1326 H 0.06814 0.92013 0.60823 0.0
H1327 H 0.04448 0.93947 0.6259 0.0
H1328 H 0.09786 0.86311 0.61935 0.0
H1329 H 0.13408 0.94202 0.59764 0.0
H1330 H 0.12152 0.94057 0.61521 0.0
H1331 H 0.1037 0.94225 0.59959 0.0
C1332 C 0.08416 0.91723 0.64849 0.0
C1333 C 0.06475 0.92935 0.6442 0.0
C1334 C 0.09773 0.9062 0.63831 0.0
C1335 C 0.09224 0.90741 0.62372 0.0
C1336 C 0.07274 0.91919 0.61945 0.0
H1337 H 0.12796 0.86782 0.54032 0.0
H1338 H 0.11317 0.88262 0.56284 0.0
C1339 C 0.05913 0.93006 0.62957 0.0
C1340 C 0.10676 0.89661 0.61275 0.0
H1341 H 0.13793 0.90883 0.58317 0.0
C1342 C 0.10701 0.87299 0.61156 0.0
C1343 C 0.1187 0.90965 0.6027 0.0
C1344 C 0.11972 0.93503 0.60387 0.0
C1345 C 0.11776 0.86211 0.59999 0.0
C1346 C 0.12872 0.87526 0.58954 0.0
C1347 C 0.12942 0.89881 0.59118 0.0
C1348 C 0.13766 0.86528 0.57611 0.0
C1349 C 0.11627 0.83678 0.59859 0.0
C1350 C 0.15634 0.85054 0.57612 0.0
C1351 C 0.16488 0.84196 0.56318 0.0
C1352 C 0.15488 0.84812 0.55009 0.0
C1353 C 0.13608 0.86276 0.5502 0.0
C1354 C 0.12761 0.87126 0.56307 0.0
H1355 H 0.10424 0.82943 0.60639 0.0
H1356 H 0.11078 0.83184 0.58761 0.0
H1357 H 0.13331 0.82934 0.60049 0.0
H1358 H 0.16452 0.84596 0.58608 0.0
H1359 H 0.17943 0.83075 0.56342 0.0
H1360 H 0.57661 0.40317 0.84865 0.0
H1361 H 0.59696 0.38022 0.86636 0.0
H1362 H 0.56383 0.41692 0.90047 0.0
H1363 H 0.54341 0.43957 0.88297 0.0
H1364 H 0.62671 0.39708 0.88818 0.0
H1365 H 0.55453 0.35026 0.91122 0.0
H1366 H 0.55294 0.36376 0.894 0.0
H1367 H 0.54915 0.38001 0.91019 0.0
C1368 C 0.57351 0.4061 0.85993 0.0
C1369 C 0.55852 0.42322 0.86444 0.0
C1370 C 0.58515 0.39304 0.87001 0.0
C1371 C 0.58163 0.39667 0.8847 0.0
C1372 C 0.56649 0.41357 0.88918 0.0
H1373 H 0.65308 0.3923 0.96133 0.0
H1374 H 0.63742 0.39858 0.93755 0.0
C1375 C 0.55503 0.42669 0.87917 0.0
C1376 C 0.59473 0.38403 0.89556 0.0
H1377 H 0.58789 0.35414 0.92623 0.0
C1378 C 0.61833 0.38725 0.89633 0.0
C1379 C 0.58383 0.37092 0.90604 0.0
C1380 C 0.55874 0.36581 0.90527 0.0
C1381 C 0.63103 0.37917 0.90795 0.0
C1382 C 0.61975 0.36782 0.9191 0.0
C1383 C 0.59648 0.36306 0.91774 0.0
C1384 C 0.63108 0.36328 0.93296 0.0
C1385 C 0.65627 0.38354 0.90845 0.0
C1386 C 0.63252 0.34131 0.93836 0.0
C1387 C 0.64152 0.33762 0.95204 0.0
C1388 C 0.64884 0.35591 0.96062 0.0
C1389 C 0.64759 0.37783 0.95505 0.0
C1390 C 0.63881 0.38145 0.94138 0.0
H1391 H 0.66331 0.38554 0.89753 0.0
H1392 H 0.65953 0.39942 0.91451 0.0
H1393 H 0.66544 0.36964 0.91387 0.0
H1394 H 0.62641 0.3271 0.93205 0.0
H1395 H 0.64216 0.32055 0.95605 0.0
H1396 H 0.58445 0.09038 0.09805 0.0
H1397 H 0.6084 0.10914 0.11623 0.0
H1398 H 0.56187 0.08867 0.14912 0.0
H1399 H 0.53811 0.06976 0.13118 0.0
H1400 H 0.59399 0.14416 0.13848 0.0
H1401 H 0.62693 0.06389 0.1606 0.0
H1402 H 0.615 0.06587 0.1428 0.0
H1403 H 0.59663 0.06493 0.15808 0.0
C1404 C 0.57936 0.08992 0.10916 0.0
C1405 C 0.55938 0.07861 0.11318 0.0
C1406 C 0.59297 0.1007 0.11949 0.0
C1407 C 0.58694 0.10007 0.13398 0.0
C1408 C 0.56685 0.08918 0.13798 0.0
H1409 H 0.62675 0.13799 0.21767 0.0
H1410 H 0.61031 0.12376 0.19535 0.0
C1411 C 0.5532 0.07855 0.1277 0.0
C1412 C 0.60166 0.11036 0.14513 0.0
H1413 H 0.63254 0.09699 0.17482 0.0
C1414 C 0.60277 0.13394 0.14633 0.0
C1415 C 0.61308 0.09688 0.15525 0.0
C1416 C 0.61308 0.07147 0.15411 0.0
C1417 C 0.614 0.14443 0.15793 0.0
C1418 C 0.6246 0.13088 0.1684 0.0
C1419 C 0.62431 0.10732 0.1668 0.0
C1420 C 0.63447 0.14056 0.18172 0.0
C1421 C 0.61346 0.1698 0.1593 0.0
C1422 C 0.65353 0.1548 0.18146 0.0
C1423 C 0.66299 0.16307 0.19427 0.0
C1424 C 0.65359 0.15706 0.20751 0.0
C1425 C 0.63443 0.14292 0.20767 0.0
C1426 C 0.62501 0.13474 0.19492 0.0
H1427 H 0.60117 0.1775 0.15172 0.0
H1428 H 0.60888 0.17502 0.17036 0.0
H1429 H 0.63059 0.17663 0.15699 0.0
H1430 H 0.66129 0.15921 0.17139 0.0
H1431 H 0.6778 0.17388 0.19381 0.0
H1432 H 0.91699 0.08628 0.35117 0.0
H1433 H 0.89474 0.10675 0.36928 0.0
H1434 H 0.94674 0.09344 0.40077 0.0
H1435 H 0.96892 0.07314 0.38286 0.0
H1436 H 0.87705 0.09076 0.39374 0.0
H1437 H 0.93627 0.16004 0.40721 0.0
H1438 H 0.93949 0.14267 0.39135 0.0
H1439 H 0.95028 0.13327 0.40835 0.0
C1440 C 0.9237 0.08786 0.36194 0.0
C1441 C 0.94482 0.07826 0.36554 0.0
C1442 C 0.91104 0.09964 0.37225 0.0
C1443 C 0.91932 0.10209 0.3863 0.0
C1444 C 0.94034 0.09245 0.3899 0.0
H1445 H 0.8589 0.10479 0.46701 0.0
H1446 H 0.87315 0.09748 0.44305 0.0
C1447 C 0.95299 0.08078 0.37963 0.0
C1448 C 0.90541 0.11306 0.3976 0.0
H1449 H 0.90911 0.15031 0.42563 0.0
C1450 C 0.88386 0.10411 0.40054 0.0
C1451 C 0.91401 0.13083 0.4063 0.0
C1452 C 0.93618 0.14242 0.40303 0.0
C1453 C 0.87149 0.11128 0.41256 0.0
C1454 C 0.88114 0.12745 0.42203 0.0
C1455 C 0.90187 0.13763 0.4185 0.0
C1456 C 0.87125 0.13224 0.43631 0.0
C1457 C 0.84843 0.10104 0.41516 0.0
C1458 C 0.86596 0.15437 0.44068 0.0
C1459 C 0.85794 0.1587 0.45454 0.0
C1460 C 0.85529 0.14097 0.46429 0.0
C1461 C 0.8606 0.11887 0.45981 0.0
C1462 C 0.86858 0.11459 0.44603 0.0
H1463 H 0.84022 0.09568 0.40495 0.0
H1464 H 0.85044 0.08582 0.42186 0.0
H1465 H 0.837 0.11308 0.42079 0.0
H1466 H 0.86814 0.16827 0.43339 0.0
H1467 H 0.85406 0.17593 0.45765 0.0
H1468 H 0.91275 0.41742 0.5977 0.0
H1469 H 0.89343 0.39519 0.61601 0.0
H1470 H 0.9042 0.44893 0.64678 0.0
H1471 H 0.92331 0.47111 0.62866 0.0
H1472 H 0.9104 0.3796 0.64079 0.0
H1473 H 0.83784 0.43549 0.65293 0.0
H1474 H 0.85512 0.43889 0.63719 0.0
H1475 H 0.8641 0.45073 0.65413 0.0
C1476 C 0.91084 0.42452 0.60835 0.0
C1477 C 0.91937 0.44612 0.61169 0.0
C1478 C 0.89972 0.41185 0.61877 0.0
C1479 C 0.89688 0.4206 0.63268 0.0
C1480 C 0.90547 0.44212 0.63601 0.0
H1481 H 0.89677 0.36303 0.71414 0.0
H1482 H 0.90372 0.37677 0.69015 0.0
C1483 C 0.91647 0.45478 0.62563 0.0
C1484 C 0.88661 0.40679 0.64411 0.0
H1485 H 0.84899 0.40979 0.67176 0.0
C1486 C 0.89666 0.38599 0.64739 0.0
C1487 C 0.86834 0.41482 0.65255 0.0
C1488 C 0.85557 0.43609 0.64891 0.0
C1489 C 0.89005 0.37385 0.65949 0.0
C1490 C 0.87331 0.38301 0.6687 0.0
C1491 C 0.86209 0.40294 0.66484 0.0
C1492 C 0.86882 0.37341 0.68301 0.0
C1493 C 0.90142 0.35155 0.66243 0.0
C1494 C 0.84672 0.36747 0.68716 0.0
C1495 C 0.84258 0.35976 0.70103 0.0
C1496 C 0.86048 0.35805 0.71101 0.0
C1497 C 0.88257 0.36399 0.70675 0.0
C1498 C 0.88664 0.37168 0.69295 0.0
H1499 H 0.90718 0.3433 0.65235 0.0
H1500 H 0.91665 0.35448 0.66925 0.0
H1501 H 0.88984 0.33987 0.66807 0.0
H1502 H 0.83267 0.36892 0.67969 0.0
H1503 H 0.82536 0.3554 0.70396 0.0
H1504 H 0.56338 0.0428 0.36884 0.0
H1505 H 0.58271 0.06527 0.35086 0.0
H1506 H 0.60826 0.10993 0.38392 0.0
H1507 H 0.58909 0.08723 0.40212 0.0
H1508 H 0.57753 0.11422 0.34599 0.0
H1509 H 0.6654 0.08721 0.36047 0.0
H1510 H 0.64073 0.07116 0.36562 0.0
H1511 H 0.64699 0.09743 0.37446 0.0
C1512 C 0.57327 0.05728 0.37232 0.0
C1513 C 0.57492 0.06312 0.38691 0.0
C1514 C 0.58414 0.0702 0.36203 0.0
C1515 C 0.59698 0.08914 0.36609 0.0
C1516 C 0.59852 0.09525 0.38061 0.0
H1517 H 0.65164 0.17102 0.29535 0.0
H1518 H 0.63639 0.16267 0.31914 0.0
C1519 C 0.5875 0.08236 0.39096 0.0
C1520 C 0.60891 0.10204 0.35494 0.0
H1521 H 0.66101 0.10862 0.33966 0.0
C1522 C 0.59583 0.11346 0.34473 0.0
C1523 C 0.63275 0.10083 0.35336 0.0
C1524 C 0.64742 0.08845 0.36398 0.0
C1525 C 0.60589 0.12284 0.33258 0.0
C1526 C 0.62963 0.12079 0.33068 0.0
C1527 C 0.64283 0.11027 0.34123 0.0
C1528 C 0.64048 0.12653 0.31695 0.0
C1529 C 0.59094 0.13365 0.32142 0.0
C1530 C 0.64826 0.10902 0.30805 0.0
C1531 C 0.65686 0.11368 0.29453 0.0
C1532 C 0.65801 0.136 0.28964 0.0
C1533 C 0.65093 0.15365 0.29879 0.0
C1534 C 0.64216 0.14892 0.31235 0.0
H1535 H 0.57257 0.13171 0.32382 0.0
H1536 H 0.59487 0.15192 0.32089 0.0
H1537 H 0.59436 0.12611 0.31071 0.0
H1538 H 0.6471 0.09163 0.31143 0.0
H1539 H 0.6623 0.09968 0.28784 0.0
H1540 H 0.96108 0.09507 0.63835 0.0
H1541 H 0.94132 0.11678 0.62002 0.0
H1542 H 0.87838 0.0837 0.63053 0.0
H1543 H 0.8981 0.0618 0.64885 0.0
H1544 H 0.88725 0.08143 0.6023 0.0
H1545 H 0.89766 0.16964 0.62122 0.0
H1546 H 0.92417 0.15472 0.62041 0.0
H1547 H 0.90257 0.14576 0.63268 0.0
C1548 C 0.94293 0.09281 0.637 0.0
C1549 C 0.93115 0.0767 0.64503 0.0
C1550 C 0.93163 0.10529 0.62654 0.0
C1551 C 0.9083 0.10209 0.62403 0.0
C1552 C 0.89637 0.0865 0.63232 0.0
H1553 H 0.83008 0.1784 0.56044 0.0
H1554 H 0.84375 0.16263 0.58309 0.0
C1555 C 0.90767 0.07393 0.64274 0.0
C1556 C 0.89692 0.1133 0.61182 0.0
H1557 H 0.88762 0.16451 0.59642 0.0
C1558 C 0.88708 0.09962 0.60112 0.0
C1559 C 0.89648 0.13703 0.61034 0.0
C1560 C 0.90558 0.15266 0.62185 0.0
C1561 C 0.87762 0.10895 0.58873 0.0
C1562 C 0.87838 0.13257 0.58687 0.0
C1563 C 0.88734 0.14637 0.5978 0.0
C1564 C 0.87071 0.14304 0.57336 0.0
C1565 C 0.86698 0.09339 0.5777 0.0
C1566 C 0.8817 0.13764 0.56049 0.0
C1567 C 0.87395 0.14654 0.5476 0.0
C1568 C 0.85512 0.16114 0.54733 0.0
C1569 C 0.84456 0.16711 0.5603 0.0
C1570 C 0.85235 0.15815 0.57324 0.0
H1571 H 0.86207 0.07698 0.5824 0.0
H1572 H 0.85168 0.10119 0.5728 0.0
H1573 H 0.87946 0.08995 0.56907 0.0
H1574 H 0.89618 0.12635 0.56041 0.0
H1575 H 0.8826 0.14176 0.53782 0.0
H1576 H 0.94317 0.43025 0.8846 0.0
H1577 H 0.92265 0.41024 0.86557 0.0
H1578 H 0.86045 0.44332 0.87818 0.0
H1579 H 0.88106 0.46378 0.89715 0.0
H1580 H 0.88696 0.38123 0.86535 0.0
H1581 H 0.86453 0.45959 0.83637 0.0
H1582 H 0.88446 0.45941 0.85108 0.0
H1583 H 0.8544 0.45855 0.85443 0.0
C1584 C 0.92506 0.43307 0.88344 0.0
C1585 C 0.91373 0.44867 0.89231 0.0
C1586 C 0.91337 0.42166 0.87253 0.0
C1587 C 0.8901 0.42555 0.8703 0.0
C1588 C 0.87852 0.44046 0.87949 0.0
H1589 H 0.81563 0.34214 0.8068 0.0
H1590 H 0.82742 0.35971 0.82954 0.0
C1591 C 0.89027 0.45208 0.89033 0.0
C1592 C 0.87838 0.41447 0.85801 0.0
H1593 H 0.85144 0.42535 0.8264 0.0
C1594 C 0.87905 0.39084 0.85686 0.0
C1595 C 0.86826 0.42709 0.8469 0.0
C1596 C 0.868 0.45256 0.84713 0.0
C1597 C 0.87037 0.37949 0.84475 0.0
C1598 C 0.86027 0.39212 0.83364 0.0
C1599 C 0.85908 0.4157 0.83497 0.0
C1600 C 0.85256 0.3815 0.82002 0.0
C1601 C 0.87303 0.3542 0.84368 0.0
C1602 C 0.86233 0.38833 0.8071 0.0
C1603 C 0.85544 0.37859 0.79414 0.0
C1604 C 0.83865 0.36172 0.79382 0.0
C1605 C 0.82874 0.35496 0.80674 0.0
C1606 C 0.83554 0.36489 0.81974 0.0
H1607 H 0.88571 0.34777 0.85149 0.0
H1608 H 0.85648 0.34607 0.84597 0.0
H1609 H 0.87834 0.34898 0.83275 0.0
H1610 H 0.87548 0.40112 0.80706 0.0
H1611 H 0.86341 0.38418 0.78438 0.0
H1612 H 0.54151 0.38114 0.14441 0.0
H1613 H 0.56329 0.36038 0.12627 0.0
H1614 H 0.59993 0.42119 0.11623 0.0
H1615 H 0.5786 0.44181 0.13451 0.0
H1616 H 0.56321 0.3671 0.09849 0.0
H1617 H 0.6514 0.3771 0.11802 0.0
H1618 H 0.62713 0.38353 0.12908 0.0
H1619 H 0.63757 0.40392 0.11656 0.0
C1620 C 0.55442 0.38997 0.13844 0.0
C1621 C 0.55843 0.41306 0.1409 0.0
C1622 C 0.56689 0.37809 0.12812 0.0
C1623 C 0.58354 0.38911 0.12004 0.0
C1624 C 0.58771 0.41212 0.12261 0.0
H1625 H 0.62403 0.36241 0.03406 0.0
H1626 H 0.60667 0.37432 0.05655 0.0
C1627 C 0.57542 0.42394 0.13302 0.0
C1628 C 0.59508 0.37717 0.10807 0.0
H1629 H 0.647 0.36802 0.09288 0.0
C1630 C 0.58155 0.36701 0.09739 0.0
C1631 C 0.61903 0.37666 0.10671 0.0
C1632 C 0.63461 0.38568 0.1183 0.0
C1633 C 0.59124 0.35737 0.08508 0.0
C1634 C 0.61507 0.35845 0.08321 0.0
C1635 C 0.6287 0.36755 0.09421 0.0
C1636 C 0.62598 0.35122 0.06965 0.0
C1637 C 0.5758 0.3462 0.07418 0.0
C1638 C 0.64324 0.33485 0.06959 0.0
C1639 C 0.65346 0.32819 0.05672 0.0
C1640 C 0.64658 0.33784 0.04372 0.0
C1641 C 0.62955 0.35447 0.04387 0.0
C1642 C 0.61949 0.3612 0.05671 0.0
H1643 H 0.55985 0.34018 0.07918 0.0
H1644 H 0.57107 0.35864 0.0659 0.0
H1645 H 0.58429 0.33166 0.06885 0.0
H1646 H 0.64864 0.32708 0.07948 0.0
H1647 H 0.66658 0.31538 0.05694 0.0
loop_
_geom_bond_atom_site_label_1
_geom_bond_atom_site_label_2
_geom_bond_distance
_geom_bond_site_symmetry_2
_ccdc_geom_bond_type
H0 C19 0.949 1_455 S
H1 C20 0.950 . S
H2 C22 0.950 . S
H3 C23 0.950 . S
H4 C25 0.950 . S
H5 C28 0.950 . S
H6 C29 0.950 . S
H7 C31 0.951 . S
H8 C32 0.949 . S
H9 C34 0.949 . S
H10 C35 0.950 . S
H11 C37 0.950 . S
H12 C38 0.950 1_545 S
H13 C40 0.950 . S
H14 C43 0.950 . S
H15 C44 0.950 . S
H16 C46 0.951 . S
H17 C47 0.949 . S
C18 C19 1.376 . S
C18 C23 1.386 . S
C18 C24 1.513 . S
C19 H0 0.949 1_655 S
C19 C18 1.376 . S
C19 C20 1.397 . S
C20 H1 0.950 . S
C20 C19 1.397 . S
C20 C21 1.391 . S
C21 C20 1.391 . S
C21 C22 1.405 . S
C22 H2 0.950 . S
C22 C21 1.405 . S
C22 C23 1.367 . S
C23 H3 0.950 . S
C23 C18 1.386 . S
C23 C22 1.367 . S
C24 C18 1.513 . S
C24 C25 1.349 1_655 S
C24 C26 1.407 . S
C25 H4 0.950 . S
C25 C24 1.349 1_455 S
C25 C41 1.411 . S
C26 C24 1.407 . S
C26 C27 1.489 . S
C26 C40 1.411 1_655 S
C27 C26 1.489 . S
C27 C28 1.383 . S
C27 C32 1.382 . S
C28 H5 0.950 . S
C28 C27 1.383 . S
C28 C29 1.395 . S
C29 H6 0.950 . S
C29 C28 1.395 . S
C29 C30 1.288 . S
C30 C29 1.288 . S
C30 C31 1.392 . S
C31 H7 0.951 . S
C31 C30 1.392 . S
C31 C32 1.392 . S
C32 H8 0.949 . S
C32 C27 1.382 . S
C32 C31 1.392 . S
C33 C34 1.376 . S
C33 C38 1.386 . S
C33 C39 1.483 . S
C34 H9 0.949 . S
C34 C33 1.376 . S
C34 C35 1.397 . S
C35 H10 0.950 . S
C35 C34 1.397 . S
C35 C36 1.391 . S
C36 C35 1.391 . S
C36 C37 1.405 . S
C37 H11 0.950 . S
C37 C36 1.405 . S
C37 C38 1.367 . S
C38 H12 0.950 1_565 S
C38 C33 1.386 . S
C38 C37 1.367 . S
C39 C33 1.483 . S
C39 C40 1.382 1_565 S
C39 C41 1.403 1_565 S
C40 H13 0.950 . S
C40 C26 1.411 1_455 S
C40 C39 1.382 1_545 S
C41 C25 1.411 . S
C41 C39 1.403 1_545 S
C41 C42 1.489 1_545 S
C42 C41 1.489 1_565 S
C42 C43 1.383 . S
C42 C47 1.382 1_565 S
C43 H14 0.950 . S
C43 C42 1.383 . S
C43 C44 1.395 . S
C44 H15 0.950 . S
C44 C43 1.395 . S
C44 C45 1.288 . S
C45 C44 1.288 . S
C45 C46 1.392 . S
C46 H16 0.951 . S
C46 C45 1.392 . S
C46 C47 1.392 1_565 S
C47 H17 0.949 . S
C47 C42 1.382 1_545 S
C47 C46 1.392 1_545 S
H48 C67 0.949 1_455 S
H49 C68 0.950 . S
H50 C70 0.950 . S
H51 C71 0.950 . S
H52 C73 0.950 . S
H53 C76 0.950 . S
H54 C77 0.950 . S
H55 C79 0.951 . S
H56 C80 0.949 . S
H57 C82 0.949 . S
H58 C83 0.950 . S
H59 C85 0.950 . S
H60 C86 0.950 . S
H61 C88 0.950 . S
H62 C91 0.950 . S
H63 C92 0.950 . S
H64 C94 0.951 . S
H65 C95 0.949 . S
C66 C67 1.376 . S
C66 C71 1.386 . S
C66 C72 1.483 . S
C67 H48 0.949 1_655 S
C67 C66 1.376 . S
C67 C68 1.397 . S
C68 H49 0.950 . S
C68 C67 1.397 . S
C68 C69 1.391 . S
C69 C68 1.391 . S
C69 C70 1.405 . S
C70 H50 0.950 . S
C70 C69 1.405 . S
C70 C71 1.367 . S
C71 H51 0.950 . S
C71 C66 1.386 . S
C71 C70 1.367 . S
C72 C66 1.483 . S
C72 C73 1.382 1_655 S
C72 C74 1.403 . S
C73 H52 0.950 . S
C73 C72 1.382 1_455 S
C73 C89 1.411 . S
C74 C72 1.403 . S
C74 C75 1.489 . S
C74 C88 1.411 1_655 S
C75 C74 1.489 . S
C75 C76 1.383 . S
C75 C80 1.382 . S
C76 H53 0.950 . S
C76 C75 1.383 . S
C76 C77 1.395 . S
C77 H54 0.950 . S
C77 C76 1.395 . S
C77 C78 1.288 . S
C78 C77 1.288 . S
C78 C79 1.392 . S
C79 H55 0.951 . S
C79 C78 1.392 . S
C79 C80 1.392 . S
C80 H56 0.949 . S
C80 C75 1.382 . S
C80 C79 1.392 . S
C81 C82 1.376 . S
C81 C86 1.386 . S
C81 C87 1.483 . S
C82 H57 0.949 . S
C82 C81 1.376 . S
C82 C83 1.397 . S
C83 H58 0.950 . S
C83 C82 1.397 . S
C83 C84 1.391 . S
C84 C83 1.391 . S
C84 C85 1.405 . S
C85 H59 0.950 . S
C85 C84 1.405 . S
C85 C86 1.367 . S
C86 H60 0.950 . S
C86 C81 1.386 . S
C86 C85 1.367 . S
C87 C81 1.483 . S
C87 C88 1.382 . S
C87 C89 1.403 . S
C88 H61 0.950 . S
C88 C74 1.411 1_455 S
C88 C87 1.382 . S
C89 C73 1.411 . S
C89 C87 1.403 . S
C89 C90 1.489 . S
C90 C89 1.489 . S
C90 C91 1.383 . S
C90 C95 1.382 . S
C91 H62 0.950 . S
C91 C90 1.383 . S
C91 C92 1.395 . S
C92 H63 0.950 . S
C92 C91 1.395 . S
C92 C93 1.288 . S
C93 C92 1.288 . S
C93 C94 1.392 . S
C94 H64 0.951 . S
C94 C93 1.392 . S
C94 C95 1.392 . S
C95 H65 0.949 . S
C95 C90 1.382 . S
C95 C94 1.392 . S
H96 C115 0.949 . S
H97 C116 0.950 . S
H98 C118 0.950 . S
H99 C119 0.950 . S
H100 C121 0.950 . S
H101 C124 0.950 . S
H102 C125 0.950 . S
H103 C127 0.951 . S
H104 C128 0.949 . S
H105 C130 0.949 . S
H106 C131 0.950 . S
H107 C133 0.950 . S
H108 C134 0.950 . S
H109 C136 0.950 . S
H110 C139 0.950 . S
H111 C140 0.950 . S
H112 C142 0.951 . S
H113 C143 0.949 . S
C114 C115 1.376 . S
C114 C119 1.386 . S
C114 C120 1.483 . S
C115 H96 0.949 . S
C115 C114 1.376 . S
C115 C116 1.397 . S
C116 H97 0.950 . S
C116 C115 1.397 . S
C116 C117 1.391 . S
C117 C116 1.391 . S
C117 C118 1.405 . S
C118 H98 0.950 . S
C118 C117 1.405 . S
C118 C119 1.367 . S
C119 H99 0.950 . S
C119 C114 1.386 . S
C119 C118 1.367 . S
C120 C114 1.483 . S
C120 C121 1.382 . S
C120 C122 1.403 . S
C121 H100 0.950 . S
C121 C120 1.382 . S
C121 C137 1.411 . S
C122 C120 1.403 . S
C122 C123 1.489 . S
C122 C136 1.411 . S
C123 C122 1.489 . S
C123 C124 1.383 . S
C123 C128 1.382 . S
C124 H101 0.950 . S
C124 C123 1.383 . S
C124 C125 1.395 . S
C125 H102 0.950 . S
C125 C124 1.395 . S
C125 C126 1.288 . S
C126 C125 1.288 . S
C126 C127 1.392 . S
C127 H103 0.951 . S
C127 C126 1.392 . S
C127 C128 1.392 . S
C128 H104 0.949 . S
C128 C123 1.382 . S
C128 C127 1.392 . S
C129 C130 1.376 . S
C129 C134 1.386 . S
C129 C135 1.483 . S
C130 H105 0.949 . S
C130 C129 1.376 . S
C130 C131 1.397 . S
C131 H106 0.950 . S
C131 C130 1.397 . S
C131 C132 1.391 . S
C132 C131 1.391 . S
C132 C133 1.405 . S
C133 H107 0.950 . S
C133 C132 1.405 . S
C133 C134 1.367 . S
C134 H108 0.950 . S
C134 C129 1.386 . S
C134 C133 1.367 . S
C135 C129 1.483 . S
C135 C136 1.382 . S
C135 C137 1.403 . S
C136 H109 0.950 . S
C136 C122 1.411 . S
C136 C135 1.382 . S
C137 C121 1.411 . S
C137 C135 1.403 . S
C137 C138 1.489 . S
C138 C137 1.489 . S
C138 C139 1.383 . S
C138 C143 1.382 . S
C139 H110 0.950 . S
C139 C138 1.383 . S
C139 C140 1.395 . S
C140 H111 0.950 . S
C140 C139 1.395 . S
C140 C141 1.288 . S
C141 C140 1.288 . S
C141 C142 1.392 . S
C142 H112 0.951 . S
C142 C141 1.392 . S
C142 C143 1.392 . S
C143 H113 0.949 . S
C143 C138 1.382 . S
C143 C142 1.392 . S
H144 C163 0.949 . S
H145 C164 0.950 . S
H146 C166 0.950 . S
H147 C167 0.950 . S
H148 C169 0.950 . S
H149 C172 0.950 . S
H150 C173 0.950 . S
H151 C175 0.951 . S
H152 C176 0.949 . S
H153 C178 0.949 . S
H154 C179 0.950 . S
H155 C181 0.950 . S
H156 C182 0.950 . S
H157 C184 0.950 . S
H158 C187 0.950 . S
H159 C188 0.950 . S
H160 C190 0.951 . S
H161 C191 0.949 . S
C162 C163 1.376 . S
C162 C167 1.386 . S
C162 C168 1.483 . S
C163 H144 0.949 . S
C163 C162 1.376 . S
C163 C164 1.397 . S
C164 H145 0.950 . S
C164 C163 1.397 . S
C164 C165 1.391 . S
C165 C164 1.391 . S
C165 C166 1.405 . S
C166 H146 0.950 . S
C166 C165 1.405 . S
C166 C167 1.367 . S
C167 H147 0.950 . S
C167 C162 1.386 . S
C167 C166 1.367 . S
C168 C162 1.483 . S
C168 C169 1.382 . S
C168 C170 1.403 . S
C169 H148 0.950 . S
C169 C168 1.382 . S
C169 C185 1.411 1_565 S
C170 C168 1.403 . S
C170 C171 1.489 . S
C170 C184 1.411 1_565 S
C171 C170 1.489 . S
C171 C172 1.383 . S
C171 C176 1.382 . S
C172 H149 0.950 . S
C172 C171 1.383 . S
C172 C173 1.395 . S
C173 H150 0.950 . S
C173 C172 1.395 . S
C173 C174 1.288 . S
C174 C173 1.288 . S
C174 C175 1.392 . S
C175 H151 0.951 . S
C175 C174 1.392 . S
C175 C176 1.392 . S
C176 H152 0.949 . S
C176 C171 1.382 . S
C176 C175 1.392 . S
C177 C178 1.376 . S
C177 C182 1.386 . S
C177 C183 1.483 . S
C178 H153 0.949 . S
C178 C177 1.376 . S
C178 C179 1.397 . S
C179 H154 0.950 . S
C179 C178 1.397 . S
C179 C180 1.391 . S
C180 C179 1.391 . S
C180 C181 1.405 . S
C181 H155 0.950 . S
C181 C180 1.405 . S
C181 C182 1.367 . S
C182 H156 0.950 . S
C182 C177 1.386 . S
C182 C181 1.367 . S
C183 C177 1.483 . S
C183 C184 1.382 . S
C183 C185 1.403 . S
C184 H157 0.950 . S
C184 C170 1.411 1_545 S
C184 C183 1.382 . S
C185 C169 1.411 1_545 S
C185 C183 1.403 . S
C185 C186 1.489 . S
C186 C185 1.489 . S
C186 C187 1.383 . S
C186 C191 1.382 . S
C187 H158 0.950 . S
C187 C186 1.383 . S
C187 C188 1.395 . S
C188 H159 0.950 . S
C188 C187 1.395 . S
C188 C189 1.288 . S
C189 C188 1.288 . S
C189 C190 1.392 . S
C190 H160 0.951 . S
C190 C189 1.392 . S
C190 C191 1.392 . S
C191 H161 0.949 . S
C191 C186 1.382 . S
C191 C190 1.392 . S
H192 C211 0.949 . S
H193 C212 0.950 . S
H194 C214 0.950 . S
H195 C215 0.950 . S
H196 C217 0.950 . S
H197 C220 0.950 . S
H198 C221 0.950 . S
H199 C223 0.951 . S
H200 C224 0.949 . S
H201 C226 0.949 . S
H202 C227 0.950 . S
H203 C229 0.950 . S
H204 C230 0.950 . S
H205 C232 0.950 . S
H206 C235 0.950 . S
H207 C236 0.950 . S
H208 C238 0.951 . S
H209 C239 0.949 . S
C210 C211 1.376 . S
C210 C215 1.386 . S
C210 C216 1.483 . S
C211 H192 0.949 . S
C211 C210 1.376 . S
C211 C212 1.397 . S
C212 H193 0.950 . S
C212 C211 1.397 . S
C212 C213 1.391 . S
C213 C212 1.391 . S
C213 C214 1.405 . S
C214 H194 0.950 . S
C214 C213 1.405 . S
C214 C215 1.367 . S
C215 H195 0.950 . S
C215 C210 1.386 . S
C215 C214 1.367 . S
C216 C210 1.483 . S
C216 C217 1.382 1_455 S
C216 C218 1.403 . S
C217 H196 0.950 . S
C217 C216 1.382 1_655 S
C217 C233 1.411 . S
C218 C216 1.403 . S
C218 C219 1.489 . S
C218 C232 1.411 . S
C219 C218 1.489 . S
C219 C220 1.383 . S
C219 C224 1.382 . S
C220 H197 0.950 . S
C220 C219 1.383 . S
C220 C221 1.395 . S
C221 H198 0.950 . S
C221 C220 1.395 . S
C221 C222 1.288 . S
C222 C221 1.288 . S
C222 C223 1.392 . S
C223 H199 0.951 . S
C223 C222 1.392 . S
C223 C224 1.392 . S
C224 H200 0.949 . S
C224 C219 1.382 . S
C224 C223 1.392 . S
C225 C226 1.376 . S
C225 C230 1.386 . S
C225 C231 1.483 . S
C226 H201 0.949 . S
C226 C225 1.376 . S
C226 C227 1.397 . S
C227 H202 0.950 . S
C227 C226 1.397 . S
C227 C228 1.391 . S
C228 C227 1.391 . S
C228 C229 1.405 . S
C229 H203 0.950 . S
C229 C228 1.405 . S
C229 C230 1.367 . S
C230 H204 0.950 . S
C230 C225 1.386 . S
C230 C229 1.367 . S
C231 C225 1.483 . S
C231 C232 1.382 1_655 S
C231 C233 1.403 . S
C232 H205 0.950 . S
C232 C218 1.411 . S
C232 C231 1.382 1_455 S
C233 C217 1.411 . S
C233 C231 1.403 . S
C233 C234 1.489 . S
C234 C233 1.489 . S
C234 C235 1.383 . S
C234 C239 1.382 . S
C235 H206 0.950 . S
C235 C234 1.383 . S
C235 C236 1.395 . S
C236 H207 0.950 . S
C236 C235 1.395 . S
C236 C237 1.288 . S
C237 C236 1.288 . S
C237 C238 1.392 . S
C238 H208 0.951 . S
C238 C237 1.392 . S
C238 C239 1.392 . S
C239 H209 0.949 . S
C239 C234 1.382 . S
C239 C238 1.392 . S
H240 C259 0.949 . S
H241 C260 0.950 . S
H242 C262 0.950 . S
H243 C263 0.950 . S
H244 C265 0.950 . S
H245 C268 0.950 . S
H246 C269 0.950 . S
H247 C271 0.951 . S
H248 C272 0.949 . S
H249 C274 0.949 . S
H250 C275 0.950 . S
H251 C277 0.950 . S
H252 C278 0.950 . S
H253 C280 0.950 . S
H254 C283 0.950 . S
H255 C284 0.950 . S
H256 C286 0.951 . S
H257 C287 0.949 . S
C258 C259 1.376 . S
C258 C263 1.386 . S
C258 C264 1.483 . S
C259 H240 0.949 . S
C259 C258 1.376 . S
C259 C260 1.397 . S
C260 H241 0.950 . S
C260 C259 1.397 . S
C260 C261 1.391 . S
C261 C260 1.391 . S
C261 C262 1.405 . S
C262 H242 0.950 . S
C262 C261 1.405 . S
C262 C263 1.367 . S
C263 H243 0.950 . S
C263 C258 1.386 . S
C263 C262 1.367 . S
C264 C258 1.483 . S
C264 C265 1.382 . S
C264 C266 1.403 . S
C265 H244 0.950 . S
C265 C264 1.382 . S
C265 C281 1.411 . S
C266 C264 1.403 . S
C266 C267 1.489 . S
C266 C280 1.411 . S
C267 C266 1.489 . S
C267 C268 1.383 . S
C267 C272 1.382 . S
C268 H245 0.950 . S
C268 C267 1.383 . S
C268 C269 1.395 . S
C269 H246 0.950 . S
C269 C268 1.395 . S
C269 C270 1.288 . S
C270 C269 1.288 . S
C270 C271 1.392 . S
C271 H247 0.951 . S
C271 C270 1.392 . S
C271 C272 1.392 . S
C272 H248 0.949 . S
C272 C267 1.382 . S
C272 C271 1.392 . S
C273 C274 1.376 . S
C273 C278 1.386 . S
C273 C279 1.483 . S
C274 H249 0.949 . S
C274 C273 1.376 . S
C274 C275 1.397 . S
C275 H250 0.950 . S
C275 C274 1.397 . S
C275 C276 1.391 . S
C276 C275 1.391 . S
C276 C277 1.405 . S
C277 H251 0.950 . S
C277 C276 1.405 . S
C277 C278 1.367 . S
C278 H252 0.950 . S
C278 C273 1.386 . S
C278 C277 1.367 . S
C279 C273 1.483 . S
C279 C280 1.382 . S
C279 C281 1.403 . S
C280 H253 0.950 . S
C280 C266 1.411 . S
C280 C279 1.382 . S
C281 C265 1.411 . S
C281 C279 1.403 . S
C281 C282 1.489 . S
C282 C281 1.489 . S
C282 C283 1.383 . S
C282 C287 1.382 . S
C283 H254 0.950 . S
C283 C282 1.383 . S
C283 C284 1.395 . S
C284 H255 0.950 . S
C284 C283 1.395 . S
C284 C285 1.288 . S
C285 C284 1.288 . S
C285 C286 1.392 . S
C286 H256 0.951 . S
C286 C285 1.392 . S
C286 C287 1.392 . S
C287 H257 0.949 . S
C287 C282 1.382 . S
C287 C286 1.392 . S
H288 C307 0.949 . S
H289 C308 0.950 . S
H290 C310 0.950 . S
H291 C311 0.950 . S
H292 C313 0.950 . S
H293 C316 0.950 . S
H294 C317 0.950 . S
H295 C319 0.951 . S
H296 C320 0.949 1_545 S
H297 C322 0.949 . S
H298 C323 0.950 . S
H299 C325 0.950 . S
H300 C326 0.950 . S
H301 C328 0.950 . S
H302 C331 0.950 . S
H303 C332 0.950 . S
H304 C334 0.951 . S
H305 C335 0.949 . S
C306 C307 1.376 . S
C306 C311 1.386 . S
C306 C312 1.483 . S
C307 H288 0.949 . S
C307 C306 1.376 . S
C307 C308 1.397 . S
C308 H289 0.950 . S
C308 C307 1.397 . S
C308 C309 1.391 . S
C309 C308 1.391 . S
C309 C310 1.405 . S
C310 H290 0.950 . S
C310 C309 1.405 . S
C310 C311 1.367 . S
C311 H291 0.950 . S
C311 C306 1.386 . S
C311 C310 1.367 . S
C312 C306 1.483 . S
C312 C313 1.382 1_565 S
C312 C314 1.403 . S
C313 H292 0.950 . S
C313 C312 1.382 1_545 S
C313 C329 1.411 . S
C314 C312 1.403 . S
C314 C315 1.489 . S
C314 C328 1.411 1_565 S
C315 C314 1.489 . S
C315 C316 1.383 . S
C315 C320 1.382 . S
C316 H293 0.950 . S
C316 C315 1.383 . S
C316 C317 1.395 . S
C317 H294 0.950 . S
C317 C316 1.395 . S
C317 C318 1.288 . S
C318 C317 1.288 . S
C318 C319 1.392 . S
C319 H295 0.951 . S
C319 C318 1.392 . S
C319 C320 1.392 . S
C320 H296 0.949 1_565 S
C320 C315 1.382 . S
C320 C319 1.392 . S
C321 C322 1.376 . S
C321 C326 1.386 . S
C321 C327 1.483 . S
C322 H297 0.949 . S
C322 C321 1.376 . S
C322 C323 1.397 . S
C323 H298 0.950 . S
C323 C322 1.397 . S
C323 C324 1.391 . S
C324 C323 1.391 . S
C324 C325 1.405 . S
C325 H299 0.950 . S
C325 C324 1.405 . S
C325 C326 1.367 . S
C326 H300 0.950 . S
C326 C321 1.386 . S
C326 C325 1.367 . S
C327 C321 1.483 . S
C327 C328 1.382 . S
C327 C329 1.403 . S
C328 H301 0.950 . S
C328 C314 1.411 1_545 S
C328 C327 1.382 . S
C329 C313 1.411 . S
C329 C327 1.403 . S
C329 C330 1.489 . S
C330 C329 1.489 . S
C330 C331 1.383 . S
C330 C335 1.382 . S
C331 H302 0.950 . S
C331 C330 1.383 . S
C331 C332 1.395 . S
C332 H303 0.950 . S
C332 C331 1.395 . S
C332 C333 1.288 . S
C333 C332 1.288 . S
C333 C334 1.392 . S
C334 H304 0.951 . S
C334 C333 1.392 . S
C334 C335 1.392 . S
C335 H305 0.949 . S
C335 C330 1.382 . S
C335 C334 1.392 . S
H336 C355 0.949 . S
H337 C356 0.950 1_455 S
H338 C358 0.950 . S
H339 C359 0.950 . S
H340 C361 0.950 . S
H341 C364 0.950 1_455 S
H342 C365 0.950 . S
H343 C367 0.951 . S
H344 C368 0.949 . S
H345 C370 0.949 . S
H346 C371 0.950 . S
H347 C373 0.950 . S
H348 C374 0.950 1_545 S
H349 C376 0.950 . S
H350 C379 0.950 . S
H351 C380 0.950 . S
H352 C382 0.951 . S
H353 C383 0.949 . S
C354 C355 1.376 1_655 S
C354 C359 1.386 . S
C354 C360 1.483 1_655 S
C355 H336 0.949 . S
C355 C354 1.376 1_455 S
C355 C356 1.397 1_455 S
C356 H337 0.950 1_655 S
C356 C355 1.397 1_655 S
C356 C357 1.391 . S
C357 C356 1.391 . S
C357 C358 1.405 . S
C358 H338 0.950 . S
C358 C357 1.405 . S
C358 C359 1.367 . S
C359 H339 0.950 . S
C359 C354 1.386 . S
C359 C358 1.367 . S
C360 C354 1.483 1_455 S
C360 C361 1.382 . S
C360 C362 1.403 . S
C361 H340 0.950 . S
C361 C360 1.382 . S
C361 C377 1.411 . S
C362 C360 1.403 . S
C362 C363 1.489 1_455 S
C362 C376 1.411 . S
C363 C362 1.489 1_655 S
C363 C364 1.383 . S
C363 C368 1.382 . S
C364 H341 0.950 1_655 S
C364 C363 1.383 . S
C364 C365 1.395 . S
C365 H342 0.950 . S
C365 C364 1.395 . S
C365 C366 1.288 . S
C366 C365 1.288 . S
C366 C367 1.392 . S
C367 H343 0.951 . S
C367 C366 1.392 . S
C367 C368 1.392 . S
C368 H344 0.949 . S
C368 C363 1.382 . S
C368 C367 1.392 . S
C369 C370 1.376 . S
C369 C374 1.386 . S
C369 C375 1.483 1_565 S
C370 H345 0.949 . S
C370 C369 1.376 . S
C370 C371 1.397 . S
C371 H346 0.950 . S
C371 C370 1.397 . S
C371 C372 1.391 . S
C372 C371 1.391 . S
C372 C373 1.405 . S
C373 H347 0.950 . S
C373 C372 1.405 . S
C373 C374 1.367 . S
C374 H348 0.950 1_565 S
C374 C369 1.386 . S
C374 C373 1.367 . S
C375 C369 1.483 1_545 S
C375 C376 1.382 . S
C375 C377 1.403 . S
C376 H349 0.950 . S
C376 C362 1.411 . S
C376 C375 1.382 . S
C377 C361 1.411 . S
C377 C375 1.403 . S
C377 C378 1.489 1_545 S
C378 C377 1.489 1_565 S
C378 C379 1.383 . S
C378 C383 1.382 1_565 S
C379 H350 0.950 . S
C379 C378 1.383 . S
C379 C380 1.395 . S
C380 H351 0.950 . S
C380 C379 1.395 . S
C380 C381 1.288 . S
C381 C380 1.288 . S
C381 C382 1.392 . S
C382 H352 0.951 . S
C382 C381 1.392 . S
C382 C383 1.392 1_565 S
C383 H353 0.949 . S
C383 C378 1.382 1_545 S
C383 C382 1.392 1_545 S
C384 O385 1.306 . S
C384 O387 1.160 . S
O385 C384 1.306 . S
O385 Cd386 2.228 . S
Cd386 O385 2.228 . S
Cd386 O390 2.273 1_554 S
Cd386 O394 2.277 . S
O387 C384 1.160 . S
O387 Cd388 2.203 . S
Cd388 O387 2.203 . S
Cd388 O390 2.411 1_554 S
Cd388 O391 2.333 1_554 S
Cd388 O392 2.352 . S
Cd388 O396 2.277 . S
Cd388 O397 2.364 . S
C389 O394 1.209 . S
C389 O396 1.226 . S
O390 Cd386 2.273 1_556 S
O390 Cd388 2.411 1_556 S
O390 C393 1.320 . S
O391 Cd388 2.333 1_556 S
O391 C393 1.214 . S
O392 Cd388 2.352 . S
O392 C395 1.258 . S
C393 O390 1.320 . S
C393 O391 1.214 . S
O394 Cd386 2.277 . S
O394 C389 1.209 . S
C395 O392 1.258 . S
C395 O397 1.285 . S
O396 Cd388 2.277 . S
O396 C389 1.226 . S
O397 Cd388 2.364 . S
O397 C395 1.285 . S
C398 O399 1.306 . S
C398 O401 1.160 . S
O399 C398 1.306 . S
O399 Cd400 2.228 . S
Cd400 O399 2.228 . S
Cd400 O404 2.273 . S
Cd400 O408 2.277 . S
O401 C398 1.160 . S
O401 Cd402 2.203 . S
Cd402 O401 2.203 . S
Cd402 O404 2.411 . S
Cd402 O405 2.333 . S
Cd402 O406 2.352 . S
Cd402 O410 2.277 . S
Cd402 O411 2.356 . S
C403 O408 1.209 . S
C403 O410 1.226 . S
O404 Cd400 2.273 . S
O404 Cd402 2.411 . S
O404 C407 1.320 . S
O405 Cd402 2.333 . S
O405 C407 1.214 . S
O406 Cd402 2.352 . S
O406 C409 1.258 . S
C407 O404 1.320 . S
C407 O405 1.214 . S
O408 Cd400 2.277 . S
O408 C403 1.209 . S
C409 O406 1.258 . S
C409 O411 1.282 . S
O410 Cd402 2.277 . S
O410 C403 1.226 . S
O411 Cd402 2.356 . S
O411 C409 1.282 . S
C412 O413 1.306 . S
C412 O415 1.160 . S
O413 C412 1.306 . S
O413 Cd414 2.228 . S
Cd414 O413 2.228 . S
Cd414 O418 2.273 . S
Cd414 O422 2.277 . S
O415 C412 1.160 . S
O415 Cd416 2.203 . S
Cd416 O415 2.203 . S
Cd416 O418 2.411 . S
Cd416 O419 2.333 . S
Cd416 O420 2.352 . S
Cd416 O424 2.277 . S
Cd416 O425 2.356 . S
C417 O422 1.209 . S
C417 O424 1.226 . S
O418 Cd414 2.273 . S
O418 Cd416 2.411 . S
O418 C421 1.320 . S
O419 Cd416 2.333 . S
O419 C421 1.214 . S
O420 Cd416 2.352 . S
O420 C423 1.258 . S
C421 O418 1.320 . S
C421 O419 1.214 . S
O422 Cd414 2.277 . S
O422 C417 1.209 . S
C423 O420 1.258 . S
C423 O425 1.282 . S
O424 Cd416 2.277 . S
O424 C417 1.226 . S
O425 Cd416 2.356 . S
O425 C423 1.282 . S
C426 O427 1.306 . S
C426 O429 1.160 . S
O427 C426 1.306 . S
O427 Cd428 2.228 . S
Cd428 O427 2.228 . S
Cd428 O432 2.273 . S
Cd428 O436 2.277 . S
O429 C426 1.160 . S
O429 Cd430 2.203 . S
Cd430 O429 2.203 . S
Cd430 O432 2.411 . S
Cd430 O433 2.333 . S
Cd430 O434 2.352 . S
Cd430 O438 2.277 . S
Cd430 O439 2.356 . S
C431 O436 1.209 . S
C431 O438 1.226 . S
O432 Cd428 2.273 . S
O432 Cd430 2.411 . S
O432 C435 1.320 . S
O433 Cd430 2.333 . S
O433 C435 1.214 . S
O434 Cd430 2.352 . S
O434 C437 1.258 . S
C435 O432 1.320 . S
C435 O433 1.214 . S
O436 Cd428 2.277 . S
O436 C431 1.209 . S
C437 O434 1.258 . S
C437 O439 1.282 . S
O438 Cd430 2.277 . S
O438 C431 1.226 . S
O439 Cd430 2.356 . S
O439 C437 1.282 . S
C440 O441 1.306 . S
C440 O443 1.160 . S
O441 C440 1.306 . S
O441 Cd442 2.228 . S
Cd442 O441 2.228 . S
Cd442 O446 2.273 . S
Cd442 O450 2.277 . S
O443 C440 1.160 . S
O443 Cd444 2.203 . S
Cd444 O443 2.203 . S
Cd444 O446 2.411 . S
Cd444 O447 2.333 . S
Cd444 O448 2.352 . S
Cd444 O452 2.277 . S
Cd444 O453 2.356 . S
C445 O450 1.209 . S
C445 O452 1.226 . S
O446 Cd442 2.273 . S
O446 Cd444 2.411 . S
O446 C449 1.320 . S
O447 Cd444 2.333 . S
O447 C449 1.214 . S
O448 Cd444 2.352 . S
O448 C451 1.258 . S
C449 O446 1.320 . S
C449 O447 1.214 . S
O450 Cd442 2.277 . S
O450 C445 1.209 . S
C451 O448 1.258 . S
C451 O453 1.282 . S
O452 Cd444 2.277 . S
O452 C445 1.226 . S
O453 Cd444 2.356 . S
O453 C451 1.282 . S
C454 O455 1.306 . S
C454 O457 1.160 . S
O455 C454 1.306 . S
O455 Cd456 2.228 . S
Cd456 O455 2.228 . S
Cd456 O460 2.273 . S
Cd456 O464 2.277 . S
O457 C454 1.160 . S
O457 Cd458 2.203 . S
Cd458 O457 2.203 . S
Cd458 O460 2.411 . S
Cd458 O461 2.333 . S
Cd458 O462 2.352 . S
Cd458 O466 2.277 . S
Cd458 O467 2.356 . S
C459 O464 1.209 . S
C459 O466 1.226 . S
O460 Cd456 2.273 . S
O460 Cd458 2.411 . S
O460 C463 1.320 . S
O461 Cd458 2.333 . S
O461 C463 1.214 . S
O462 Cd458 2.352 . S
O462 C465 1.258 . S
C463 O460 1.320 . S
C463 O461 1.214 . S
O464 Cd456 2.277 . S
O464 C459 1.209 . S
C465 O462 1.258 . S
C465 O467 1.282 . S
O466 Cd458 2.277 . S
O466 C459 1.226 . S
O467 Cd458 2.356 . S
O467 C465 1.282 . S
C468 O469 1.306 . S
C468 O471 1.160 . S
O469 C468 1.306 . S
O469 Cd470 2.258 . S
Cd470 O469 2.258 . S
Cd470 O474 2.249 1_556 S
Cd470 O478 2.281 . S
O471 C468 1.160 . S
O471 Cd472 2.203 1_556 S
Cd472 O471 2.203 1_554 S
Cd472 O474 2.411 . S
Cd472 O475 2.333 . S
Cd472 O476 2.352 . S
Cd472 O480 2.277 1_554 S
Cd472 O481 2.356 . S
C473 O478 1.209 . S
C473 O480 1.226 . S
O474 Cd470 2.249 1_554 S
O474 Cd472 2.411 . S
O474 C477 1.320 . S
O475 Cd472 2.333 . S
O475 C477 1.214 . S
O476 Cd472 2.352 . S
O476 C479 1.258 . S
C477 O474 1.320 . S
C477 O475 1.214 . S
O478 Cd470 2.281 . S
O478 C473 1.209 . S
C479 O476 1.258 . S
C479 O481 1.282 . S
O480 Cd472 2.277 1_556 S
O480 C473 1.226 . S
O481 Cd472 2.356 . S
O481 C479 1.282 . S
C482 O483 1.306 . S
C482 O485 1.160 . S
O483 C482 1.306 . S
O483 Cd484 2.228 . S
Cd484 O483 2.228 . S
Cd484 O488 2.273 . S
Cd484 O492 2.277 . S
O485 C482 1.160 . S
O485 Cd486 2.203 . S
Cd486 O485 2.203 . S
Cd486 O488 2.411 . S
Cd486 O489 2.333 . S
Cd486 O490 2.352 . S
Cd486 O494 2.277 . S
Cd486 O495 2.356 . S
C487 O492 1.209 . S
C487 O494 1.226 . S
O488 Cd484 2.273 . S
O488 Cd486 2.411 . S
O488 C491 1.320 . S
O489 Cd486 2.333 . S
O489 C491 1.214 . S
O490 Cd486 2.352 . S
O490 C493 1.258 . S
C491 O488 1.320 . S
C491 O489 1.214 . S
O492 Cd484 2.277 . S
O492 C487 1.209 . S
C493 O490 1.258 . S
C493 O495 1.282 . S
O494 Cd486 2.277 . S
O494 C487 1.226 . S
O495 Cd486 2.356 . S
O495 C493 1.282 . S
H496 C504 0.929 . S
H497 C506 0.930 . S
H498 C508 0.930 . S
H499 C511 0.929 . S
H500 C514 0.930 . S
H501 C516 0.960 . S
H502 C516 0.960 . S
H503 C516 0.960 . S
C504 H496 0.929 . S
C504 C505 1.377 . S
C504 C506 1.384 . S
C505 C504 1.377 . S
C505 C511 1.390 . S
C506 H497 0.930 . S
C506 C504 1.384 . S
C506 C507 1.372 . S
C507 C506 1.372 . S
C507 C508 1.400 . S
C507 C512 1.490 . S
C508 H498 0.930 . S
C508 C507 1.400 . S
C508 C511 1.386 . S
H509 C525 0.930 . S
H510 C526 0.931 . S
C511 H499 0.929 . S
C511 C505 1.390 . S
C511 C508 1.386 . S
C512 C507 1.490 . S
C512 C514 1.395 . S
C512 C515 1.403 . S
H513 C519 0.930 . S
C514 H500 0.930 . S
C514 C512 1.395 . S
C514 C517 1.403 . S
C515 C512 1.403 . S
C515 C516 1.524 . S
C515 C519 1.400 . S
C516 H501 0.960 . S
C516 H502 0.960 . S
C516 H503 0.960 . S
C516 C515 1.524 . S
C517 C514 1.403 . S
C517 C518 1.392 . S
C517 C521 1.495 . S
C518 C517 1.392 . S
C518 C519 1.385 . S
C518 C520 1.478 . S
C519 H513 0.930 . S
C519 C515 1.400 . S
C519 C518 1.385 . S
C520 C518 1.478 . S
C520 C522 1.381 . S
C520 C526 1.383 . S
C521 C517 1.495 . S
C521 H527 0.959 . S
C521 H528 0.961 . S
C521 H529 0.960 . S
C522 C520 1.381 . S
C522 C523 1.394 . S
C522 H530 0.930 . S
C523 C522 1.394 . S
C523 C524 1.383 . S
C523 H531 0.929 . S
C524 C523 1.383 . S
C524 C525 1.377 . S
C525 H509 0.930 . S
C525 C524 1.377 . S
C525 C526 1.379 . S
C526 H510 0.931 . S
C526 C520 1.383 . S
C526 C525 1.379 . S
H527 C521 0.959 . S
H528 C521 0.961 . S
H529 C521 0.960 . S
H530 C522 0.930 . S
H531 C523 0.929 . S
H532 C540 0.929 . S
H533 C542 0.930 . S
H534 C544 0.930 . S
H535 C547 0.929 . S
H536 C550 0.930 . S
H537 C552 0.960 . S
H538 C552 0.960 . S
H539 C552 0.960 . S
C540 H532 0.929 . S
C540 C541 1.377 . S
C540 C542 1.384 . S
C541 C540 1.377 . S
C541 C547 1.390 . S
C542 H533 0.930 . S
C542 C540 1.384 . S
C542 C543 1.372 . S
C543 C542 1.372 . S
C543 C544 1.400 . S
C543 C548 1.490 . S
C544 H534 0.930 . S
C544 C543 1.400 . S
C544 C547 1.386 . S
H545 C561 0.930 . S
H546 C562 0.931 . S
C547 H535 0.929 . S
C547 C541 1.390 . S
C547 C544 1.386 . S
C548 C543 1.490 . S
C548 C550 1.395 . S
C548 C551 1.403 . S
H549 C555 0.930 . S
C550 H536 0.930 . S
C550 C548 1.395 . S
C550 C553 1.403 . S
C551 C548 1.403 . S
C551 C552 1.524 . S
C551 C555 1.400 . S
C552 H537 0.960 . S
C552 H538 0.960 . S
C552 H539 0.960 . S
C552 C551 1.524 . S
C553 C550 1.403 . S
C553 C554 1.392 . S
C553 C557 1.495 . S
C554 C553 1.392 . S
C554 C555 1.385 . S
C554 C556 1.478 . S
C555 H549 0.930 . S
C555 C551 1.400 . S
C555 C554 1.385 . S
C556 C554 1.478 . S
C556 C558 1.381 . S
C556 C562 1.383 . S
C557 C553 1.495 . S
C557 H563 0.959 . S
C557 H564 0.961 . S
C557 H565 0.960 . S
C558 C556 1.381 . S
C558 C559 1.394 . S
C558 H566 0.930 . S
C559 C558 1.394 . S
C559 C560 1.383 . S
C559 H567 0.929 . S
C560 C559 1.383 . S
C560 C561 1.377 . S
C561 H545 0.930 . S
C561 C560 1.377 . S
C561 C562 1.379 . S
C562 H546 0.931 . S
C562 C556 1.383 . S
C562 C561 1.379 . S
H563 C557 0.959 . S
H564 C557 0.961 . S
H565 C557 0.960 . S
H566 C558 0.930 . S
H567 C559 0.929 . S
H568 C576 0.929 . S
H569 C578 0.930 . S
H570 C580 0.930 . S
H571 C583 0.929 . S
H572 C586 0.930 . S
H573 C588 0.960 . S
H574 C588 0.960 . S
H575 C588 0.960 . S
C576 H568 0.929 . S
C576 C577 1.377 . S
C576 C578 1.384 . S
C577 C576 1.377 . S
C577 C583 1.390 . S
C578 H569 0.930 . S
C578 C576 1.384 . S
C578 C579 1.372 . S
C579 C578 1.372 . S
C579 C580 1.400 . S
C579 C584 1.490 . S
C580 H570 0.930 . S
C580 C579 1.400 . S
C580 C583 1.386 . S
H581 C597 0.930 . S
H582 C598 0.931 . S
C583 H571 0.929 . S
C583 C577 1.390 . S
C583 C580 1.386 . S
C584 C579 1.490 . S
C584 C586 1.395 . S
C584 C587 1.403 . S
H585 C591 0.930 . S
C586 H572 0.930 . S
C586 C584 1.395 . S
C586 C589 1.403 . S
C587 C584 1.403 . S
C587 C588 1.524 . S
C587 C591 1.400 . S
C588 H573 0.960 . S
C588 H574 0.960 . S
C588 H575 0.960 . S
C588 C587 1.524 . S
C589 C586 1.403 . S
C589 C590 1.392 . S
C589 C593 1.495 . S
C590 C589 1.392 . S
C590 C591 1.385 . S
C590 C592 1.478 . S
C591 H585 0.930 . S
C591 C587 1.400 . S
C591 C590 1.385 . S
C592 C590 1.478 . S
C592 C594 1.381 . S
C592 C598 1.383 . S
C593 C589 1.495 . S
C593 H599 0.959 . S
C593 H600 0.961 . S
C593 H601 0.960 . S
C594 C592 1.381 . S
C594 C595 1.394 . S
C594 H602 0.930 . S
C595 C594 1.394 . S
C595 C596 1.383 . S
C595 H603 0.929 . S
C596 C595 1.383 . S
C596 C597 1.377 . S
C597 H581 0.930 . S
C597 C596 1.377 . S
C597 C598 1.379 . S
C598 H582 0.931 . S
C598 C592 1.383 . S
C598 C597 1.379 . S
H599 C593 0.959 . S
H600 C593 0.961 . S
H601 C593 0.960 . S
H602 C594 0.930 . S
H603 C595 0.929 . S
H604 C612 0.929 . S
H605 C614 0.930 . S
H606 C616 0.930 . S
H607 C619 0.929 . S
H608 C622 0.930 . S
H609 C624 0.960 . S
H610 C624 0.960 . S
H611 C624 0.960 . S
C612 H604 0.929 . S
C612 C613 1.377 . S
C612 C614 1.384 . S
C613 C612 1.377 . S
C613 C619 1.390 . S
C614 H605 0.930 . S
C614 C612 1.384 . S
C614 C615 1.372 . S
C615 C614 1.372 . S
C615 C616 1.400 . S
C615 C620 1.490 . S
C616 H606 0.930 . S
C616 C615 1.400 . S
C616 C619 1.386 . S
H617 C633 0.930 . S
H618 C634 0.931 . S
C619 H607 0.929 . S
C619 C613 1.390 . S
C619 C616 1.386 . S
C620 C615 1.490 . S
C620 C622 1.395 . S
C620 C623 1.403 . S
H621 C627 0.930 . S
C622 H608 0.930 . S
C622 C620 1.395 . S
C622 C625 1.403 . S
C623 C620 1.403 . S
C623 C624 1.524 . S
C623 C627 1.400 . S
C624 H609 0.960 . S
C624 H610 0.960 . S
C624 H611 0.960 . S
C624 C623 1.524 . S
C625 C622 1.403 . S
C625 C626 1.392 . S
C625 C629 1.495 . S
C626 C625 1.392 . S
C626 C627 1.385 . S
C626 C628 1.478 . S
C627 H621 0.930 . S
C627 C623 1.400 . S
C627 C626 1.385 . S
C628 C626 1.478 . S
C628 C630 1.381 . S
C628 C634 1.383 . S
C629 C625 1.495 . S
C629 H635 0.963 . S
C629 H636 0.961 . S
C629 H637 0.960 1_554 S
C630 C628 1.381 . S
C630 C631 1.394 . S
C630 H638 0.930 1_554 S
C631 C630 1.394 . S
C631 C632 1.383 . S
C631 H639 0.929 1_554 S
C632 C631 1.383 . S
C632 C633 1.377 . S
C633 H617 0.930 . S
C633 C632 1.377 . S
C633 C634 1.379 . S
C634 H618 0.931 . S
C634 C628 1.383 . S
C634 C633 1.379 . S
H635 C629 0.963 . S
H636 C629 0.961 . S
H637 C629 0.960 1_556 S
H638 C630 0.930 1_556 S
H639 C631 0.929 1_556 S
H640 C648 0.929 . S
H641 C650 0.930 . S
H642 C652 0.930 . S
H643 C655 0.929 . S
H644 C658 0.930 . S
H645 C660 0.960 . S
H646 C660 0.960 . S
H647 C660 0.960 . S
C648 H640 0.929 . S
C648 C649 1.377 . S
C648 C650 1.384 . S
C649 C648 1.377 . S
C649 C655 1.390 . S
C650 H641 0.930 . S
C650 C648 1.384 . S
C650 C651 1.372 . S
C651 C650 1.372 . S
C651 C652 1.400 . S
C651 C656 1.490 . S
C652 H642 0.930 . S
C652 C651 1.400 . S
C652 C655 1.386 . S
H653 C669 0.930 . S
H654 C670 0.957 . S
C655 H643 0.929 . S
C655 C649 1.390 . S
C655 C652 1.386 . S
C656 C651 1.490 . S
C656 C658 1.395 . S
C656 C659 1.403 . S
H657 C663 0.930 . S
C658 H644 0.930 . S
C658 C656 1.395 . S
C658 C661 1.403 . S
C659 C656 1.403 . S
C659 C660 1.524 . S
C659 C663 1.400 . S
C660 H645 0.960 . S
C660 H646 0.960 . S
C660 H647 0.960 . S
C660 C659 1.524 . S
C661 C658 1.403 . S
C661 C662 1.392 . S
C661 C665 1.495 1_556 S
C662 C661 1.392 . S
C662 C663 1.385 . S
C662 C664 1.478 . S
C663 H657 0.930 . S
C663 C659 1.400 . S
C663 C662 1.385 . S
C664 C662 1.478 . S
C664 C666 1.381 . S
C664 C670 1.348 1_556 S
C665 C661 1.495 1_554 S
C665 H671 0.959 . S
C665 H672 0.961 . S
C665 H673 0.960 . S
C666 C664 1.381 . S
C666 C667 1.394 . S
C666 H674 0.930 . S
C667 C666 1.394 . S
C667 C668 1.386 . S
C667 H675 0.929 . S
C668 C667 1.386 . S
C668 C669 1.375 1_556 S
C669 H653 0.930 . S
C669 C668 1.375 1_554 S
C669 C670 1.396 . S
C670 H654 0.957 . S
C670 C664 1.348 1_554 S
C670 C669 1.396 . S
H671 C665 0.959 . S
H672 C665 0.961 . S
H673 C665 0.960 . S
H674 C666 0.930 . S
H675 C667 0.929 . S
H676 C684 0.929 . S
H677 C686 0.930 . S
H678 C688 0.930 . S
H679 C691 0.929 . S
H680 C694 0.930 . S
H681 C696 0.960 . S
H682 C696 0.960 . S
H683 C696 0.960 . S
C684 H676 0.929 . S
C684 C685 1.377 . S
C684 C686 1.384 . S
C685 C684 1.377 . S
C685 C691 1.390 . S
C686 H677 0.930 . S
C686 C684 1.384 . S
C686 C687 1.372 . S
C687 C686 1.372 . S
C687 C688 1.400 . S
C687 C692 1.490 . S
C688 H678 0.930 . S
C688 C687 1.400 . S
C688 C691 1.386 . S
H689 C705 0.930 . S
H690 C706 0.931 . S
C691 H679 0.929 . S
C691 C685 1.390 . S
C691 C688 1.386 . S
C692 C687 1.490 . S
C692 C694 1.395 . S
C692 C695 1.403 . S
H693 C699 0.930 . S
C694 H680 0.930 . S
C694 C692 1.395 . S
C694 C697 1.403 . S
C695 C692 1.403 . S
C695 C696 1.524 . S
C695 C699 1.400 . S
C696 H681 0.960 . S
C696 H682 0.960 . S
C696 H683 0.960 . S
C696 C695 1.524 . S
C697 C694 1.403 . S
C697 C698 1.392 . S
C697 C701 1.495 . S
C698 C697 1.392 . S
C698 C699 1.385 . S
C698 C700 1.478 . S
C699 H693 0.930 . S
C699 C695 1.400 . S
C699 C698 1.385 . S
C700 C698 1.478 . S
C700 C702 1.381 . S
C700 C706 1.383 . S
C701 C697 1.495 . S
C701 H707 0.959 . S
C701 H708 0.961 . S
C701 H709 0.960 . S
C702 C700 1.381 . S
C702 C703 1.394 . S
C702 H710 0.930 . S
C703 C702 1.394 . S
C703 C704 1.383 . S
C703 H711 0.929 . S
C704 C703 1.383 . S
C704 C705 1.377 . S
C705 H689 0.930 . S
C705 C704 1.377 . S
C705 C706 1.379 . S
C706 H690 0.931 . S
C706 C700 1.383 . S
C706 C705 1.379 . S
H707 C701 0.959 . S
H708 C701 0.961 . S
H709 C701 0.960 . S
H710 C702 0.930 . S
H711 C703 0.929 . S
H712 C720 0.929 . S
H713 C722 0.930 . S
H714 C724 0.930 . S
H715 C727 0.929 . S
H716 C730 0.930 . S
H717 C732 0.960 . S
H718 C732 0.960 . S
H719 C732 0.960 . S
C720 H712 0.929 . S
C720 C721 1.377 . S
C720 C722 1.384 . S
C721 C720 1.377 . S
C721 C727 1.390 . S
C722 H713 0.930 . S
C722 C720 1.384 . S
C722 C723 1.372 . S
C723 C722 1.372 . S
C723 C724 1.400 . S
C723 C728 1.490 . S
C724 H714 0.930 . S
C724 C723 1.400 . S
C724 C727 1.386 . S
H725 C741 0.930 . S
H726 C742 0.931 . S
C727 H715 0.929 . S
C727 C721 1.390 . S
C727 C724 1.386 . S
C728 C723 1.490 . S
C728 C730 1.395 . S
C728 C731 1.403 . S
H729 C735 0.930 . S
C730 H716 0.930 . S
C730 C728 1.395 . S
C730 C733 1.403 . S
C731 C728 1.403 . S
C731 C732 1.524 . S
C731 C735 1.400 . S
C732 H717 0.960 . S
C732 H718 0.960 . S
C732 H719 0.960 . S
C732 C731 1.524 . S
C733 C730 1.403 . S
C733 C734 1.392 . S
C733 C737 1.495 . S
C734 C733 1.392 . S
C734 C735 1.385 . S
C734 C736 1.478 . S
C735 H729 0.930 . S
C735 C731 1.400 . S
C735 C734 1.385 . S
C736 C734 1.478 . S
C736 C738 1.381 . S
C736 C742 1.383 . S
C737 C733 1.495 . S
C737 H743 0.959 . S
C737 H744 0.961 . S
C737 H745 0.960 . S
C738 C736 1.381 . S
C738 C739 1.394 . S
C738 H746 0.930 . S
C739 C738 1.394 . S
C739 C740 1.383 . S
C739 H747 0.929 . S
C740 C739 1.383 . S
C740 C741 1.377 . S
C741 H725 0.930 . S
C741 C740 1.377 . S
C741 C742 1.379 . S
C742 H726 0.931 . S
C742 C736 1.383 . S
C742 C741 1.379 . S
H743 C737 0.959 . S
H744 C737 0.961 . S
H745 C737 0.960 . S
H746 C738 0.930 . S
H747 C739 0.929 . S
H748 C756 0.929 . S
H749 C758 0.930 . S
H750 C760 0.930 . S
H751 C763 0.929 . S
H752 C766 0.930 . S
H753 C768 0.960 . S
H754 C768 0.960 . S
H755 C768 0.960 . S
C756 H748 0.929 . S
C756 C757 1.377 . S
C756 C758 1.384 . S
C757 C756 1.377 . S
C757 C763 1.390 . S
C758 H749 0.930 . S
C758 C756 1.384 . S
C758 C759 1.372 . S
C759 C758 1.372 . S
C759 C760 1.400 . S
C759 C764 1.490 . S
C760 H750 0.930 . S
C760 C759 1.400 . S
C760 C763 1.386 . S
H761 C777 0.930 . S
H762 C778 0.931 . S
C763 H751 0.929 . S
C763 C757 1.390 . S
C763 C760 1.386 . S
C764 C759 1.490 . S
C764 C766 1.395 . S
C764 C767 1.403 . S
H765 C771 0.930 . S
C766 H752 0.930 . S
C766 C764 1.395 . S
C766 C769 1.403 . S
C767 C764 1.403 . S
C767 C768 1.524 . S
C767 C771 1.400 . S
C768 H753 0.960 . S
C768 H754 0.960 . S
C768 H755 0.960 . S
C768 C767 1.524 . S
C769 C766 1.403 . S
C769 C770 1.392 . S
C769 C773 1.495 . S
C770 C769 1.392 . S
C770 C771 1.385 . S
C770 C772 1.478 . S
C771 H765 0.930 . S
C771 C767 1.400 . S
C771 C770 1.385 . S
C772 C770 1.478 . S
C772 C774 1.381 . S
C772 C778 1.383 . S
C773 C769 1.495 . S
C773 H779 0.959 . S
C773 H780 0.961 . S
C773 H781 0.960 . S
C774 C772 1.381 . S
C774 C775 1.394 . S
C774 H782 0.930 . S
C775 C774 1.394 . S
C775 C776 1.383 . S
C775 H783 0.929 . S
C776 C775 1.383 . S
C776 C777 1.377 . S
C777 H761 0.930 . S
C777 C776 1.377 . S
C777 C778 1.379 . S
C778 H762 0.931 . S
C778 C772 1.383 . S
C778 C777 1.379 . S
H779 C773 0.959 . S
H780 C773 0.961 . S
H781 C773 0.960 . S
H782 C774 0.930 . S
H783 C775 0.929 . S
H784 C792 0.929 . S
H785 C794 0.930 . S
H786 C796 0.930 . S
H787 C799 0.929 . S
H788 C802 0.930 . S
H789 C804 0.960 . S
H790 C804 0.960 . S
H791 C804 0.960 . S
C792 H784 0.929 . S
C792 C793 1.377 . S
C792 C794 1.384 . S
C793 C792 1.377 . S
C793 C799 1.390 . S
C794 H785 0.930 . S
C794 C792 1.384 . S
C794 C795 1.372 . S
C795 C794 1.372 . S
C795 C796 1.400 . S
C795 C800 1.490 . S
C796 H786 0.930 . S
C796 C795 1.400 . S
C796 C799 1.386 . S
H797 C813 0.930 . S
H798 C814 0.931 . S
C799 H787 0.929 . S
C799 C793 1.390 . S
C799 C796 1.386 . S
C800 C795 1.490 . S
C800 C802 1.395 . S
C800 C803 1.403 . S
H801 C807 0.930 . S
C802 H788 0.930 . S
C802 C800 1.395 . S
C802 C805 1.403 . S
C803 C800 1.403 . S
C803 C804 1.524 . S
C803 C807 1.400 . S
C804 H789 0.960 . S
C804 H790 0.960 . S
C804 H791 0.960 . S
C804 C803 1.524 . S
C805 C802 1.403 . S
C805 C806 1.392 . S
C805 C809 1.495 . S
C806 C805 1.392 . S
C806 C807 1.385 . S
C806 C808 1.478 . S
C807 H801 0.930 . S
C807 C803 1.400 . S
C807 C806 1.385 . S
C808 C806 1.478 . S
C808 C810 1.381 . S
C808 C814 1.383 . S
C809 C805 1.495 . S
C809 H815 0.959 . S
C809 H816 0.961 . S
C809 H817 0.960 . S
C810 C808 1.381 . S
C810 C811 1.394 . S
C810 H818 0.930 . S
C811 C810 1.394 . S
C811 C812 1.383 . S
C811 H819 0.929 . S
C812 C811 1.383 . S
C812 C813 1.377 . S
C813 H797 0.930 . S
C813 C812 1.377 . S
C813 C814 1.379 . S
C814 H798 0.931 . S
C814 C808 1.383 . S
C814 C813 1.379 . S
H815 C809 0.959 . S
H816 C809 0.961 . S
H817 C809 0.960 . S
H818 C810 0.930 . S
H819 C811 0.929 . S
H820 C828 0.929 . S
H821 C830 0.930 . S
H822 C832 0.930 . S
H823 C835 0.929 . S
H824 C838 0.930 . S
H825 C840 0.960 . S
H826 C840 0.960 . S
H827 C840 0.960 . S
C828 H820 0.929 . S
C828 C829 1.377 . S
C828 C830 1.384 . S
C829 C828 1.377 . S
C829 C835 1.390 . S
C830 H821 0.930 . S
C830 C828 1.384 . S
C830 C831 1.372 . S
C831 C830 1.372 . S
C831 C832 1.400 . S
C831 C836 1.490 . S
C832 H822 0.930 . S
C832 C831 1.400 . S
C832 C835 1.386 . S
H833 C849 0.930 . S
H834 C850 0.931 . S
C835 H823 0.929 . S
C835 C829 1.390 . S
C835 C832 1.386 . S
C836 C831 1.490 . S
C836 C838 1.395 . S
C836 C839 1.403 . S
H837 C843 0.930 . S
C838 H824 0.930 . S
C838 C836 1.395 . S
C838 C841 1.403 . S
C839 C836 1.403 . S
C839 C840 1.524 . S
C839 C843 1.400 . S
C840 H825 0.960 . S
C840 H826 0.960 . S
C840 H827 0.960 . S
C840 C839 1.524 . S
C841 C838 1.403 . S
C841 C842 1.392 . S
C841 C845 1.495 1_554 S
C842 C841 1.392 . S
C842 C843 1.385 . S
C842 C844 1.478 . S
C843 H837 0.930 . S
C843 C839 1.400 . S
C843 C842 1.385 . S
C844 C842 1.478 . S
C844 C846 1.381 . S
C844 C850 1.383 . S
C845 C841 1.495 1_556 S
C845 H851 0.959 . S
C845 H852 0.961 . S
C845 H853 0.960 1_556 S
C846 C844 1.381 . S
C846 C847 1.394 . S
C846 H854 0.930 . S
C847 C846 1.394 . S
C847 C848 1.383 . S
C847 H855 0.929 . S
C848 C847 1.383 . S
C848 C849 1.377 . S
C849 H833 0.930 . S
C849 C848 1.377 . S
C849 C850 1.379 . S
C850 H834 0.931 . S
C850 C844 1.383 . S
C850 C849 1.379 . S
H851 C845 0.959 . S
H852 C845 0.961 . S
H853 C845 0.960 1_554 S
H854 C846 0.930 . S
H855 C847 0.929 . S
H856 C864 0.929 . S
H857 C866 0.930 . S
H858 C868 0.930 . S
H859 C871 0.929 . S
H860 C874 0.930 . S
H861 C876 0.960 . S
H862 C876 0.960 . S
H863 C876 0.960 . S
C864 H856 0.929 . S
C864 C865 1.377 . S
C864 C866 1.384 . S
C865 C864 1.377 . S
C865 C871 1.390 . S
C866 H857 0.930 . S
C866 C864 1.384 . S
C866 C867 1.372 . S
C867 C866 1.372 . S
C867 C868 1.400 . S
C867 C872 1.490 . S
C868 H858 0.930 . S
C868 C867 1.400 . S
C868 C871 1.386 . S
H869 C885 0.930 . S
H870 C886 0.931 . S
C871 H859 0.929 . S
C871 C865 1.390 . S
C871 C868 1.386 . S
C872 C867 1.490 . S
C872 C874 1.395 . S
C872 C875 1.403 . S
H873 C879 0.930 . S
C874 H860 0.930 . S
C874 C872 1.395 . S
C874 C877 1.403 . S
C875 C872 1.403 . S
C875 C876 1.524 . S
C875 C879 1.400 . S
C876 H861 0.960 . S
C876 H862 0.960 . S
C876 H863 0.960 . S
C876 C875 1.524 . S
C877 C874 1.403 . S
C877 C878 1.392 . S
C877 C881 1.495 . S
C878 C877 1.392 . S
C878 C879 1.385 . S
C878 C880 1.478 . S
C879 H873 0.930 . S
C879 C875 1.400 . S
C879 C878 1.385 . S
C880 C878 1.478 . S
C880 C882 1.381 . S
C880 C886 1.383 . S
C881 C877 1.495 . S
C881 H887 0.959 . S
C881 H888 0.961 . S
C881 H889 0.960 . S
C882 C880 1.381 . S
C882 C883 1.394 . S
C882 H890 0.930 . S
C883 C882 1.394 . S
C883 C884 1.383 . S
C883 H891 0.929 . S
C884 C883 1.383 . S
C884 C885 1.377 . S
C885 H869 0.930 . S
C885 C884 1.377 . S
C885 C886 1.379 . S
C886 H870 0.931 . S
C886 C880 1.383 . S
C886 C885 1.379 . S
H887 C881 0.959 . S
H888 C881 0.961 . S
H889 C881 0.960 . S
H890 C882 0.930 . S
H891 C883 0.929 . S
H892 C900 0.929 . S
H893 C902 0.930 . S
H894 C904 0.930 . S
H895 C907 0.929 . S
H896 C910 0.930 . S
H897 C912 0.960 . S
H898 C912 0.960 . S
H899 C912 0.960 . S
C900 H892 0.929 . S
C900 C901 1.377 . S
C900 C902 1.384 . S
C901 C900 1.377 . S
C901 C907 1.390 . S
C902 H893 0.930 . S
C902 C900 1.384 . S
C902 C903 1.372 . S
C903 C902 1.372 . S
C903 C904 1.400 . S
C903 C908 1.490 . S
C904 H894 0.930 . S
C904 C903 1.400 . S
C904 C907 1.386 . S
H905 C921 0.930 . S
H906 C922 0.931 . S
C907 H895 0.929 . S
C907 C901 1.390 . S
C907 C904 1.386 . S
C908 C903 1.490 . S
C908 C910 1.395 . S
C908 C911 1.403 . S
H909 C915 0.930 . S
C910 H896 0.930 . S
C910 C908 1.395 . S
C910 C913 1.403 . S
C911 C908 1.403 . S
C911 C912 1.524 . S
C911 C915 1.400 . S
C912 H897 0.960 . S
C912 H898 0.960 . S
C912 H899 0.960 . S
C912 C911 1.524 . S
C913 C910 1.403 . S
C913 C914 1.392 . S
C913 C917 1.495 . S
C914 C913 1.392 . S
C914 C915 1.385 . S
C914 C916 1.478 . S
C915 H909 0.930 . S
C915 C911 1.400 . S
C915 C914 1.385 . S
C916 C914 1.478 . S
C916 C918 1.381 . S
C916 C922 1.383 . S
C917 C913 1.495 . S
C917 H923 0.959 . S
C917 H924 0.961 . S
C917 H925 0.960 . S
C918 C916 1.381 . S
C918 C919 1.394 . S
C918 H926 0.930 . S
C919 C918 1.394 . S
C919 C920 1.383 . S
C919 H927 0.929 . S
C920 C919 1.383 . S
C920 C921 1.377 . S
C921 H905 0.930 . S
C921 C920 1.377 . S
C921 C922 1.379 . S
C922 H906 0.931 . S
C922 C916 1.383 . S
C922 C921 1.379 . S
H923 C917 0.959 . S
H924 C917 0.961 . S
H925 C917 0.960 . S
H926 C918 0.930 . S
H927 C919 0.929 . S
H928 C936 0.929 . S
H929 C938 0.930 . S
H930 C940 0.930 . S
H931 C943 0.929 . S
H932 C946 0.930 . S
H933 C948 0.960 . S
H934 C948 0.960 . S
H935 C948 0.960 . S
C936 H928 0.929 . S
C936 C937 1.377 . S
C936 C938 1.384 . S
C937 C936 1.377 . S
C937 C943 1.390 . S
C938 H929 0.930 . S
C938 C936 1.384 . S
C938 C939 1.372 . S
C939 C938 1.372 . S
C939 C940 1.400 . S
C939 C944 1.490 . S
C940 H930 0.930 . S
C940 C939 1.400 . S
C940 C943 1.386 . S
H941 C957 0.930 . S
H942 C958 0.931 . S
C943 H931 0.929 . S
C943 C937 1.390 . S
C943 C940 1.386 . S
C944 C939 1.490 . S
C944 C946 1.395 . S
C944 C947 1.403 . S
H945 C951 0.930 . S
C946 H932 0.930 . S
C946 C944 1.395 . S
C946 C949 1.403 . S
C947 C944 1.403 . S
C947 C948 1.524 . S
C947 C951 1.400 . S
C948 H933 0.960 . S
C948 H934 0.960 . S
C948 H935 0.960 . S
C948 C947 1.524 . S
C949 C946 1.403 . S
C949 C950 1.392 . S
C949 C953 1.495 . S
C950 C949 1.392 . S
C950 C951 1.385 . S
C950 C952 1.478 . S
C951 H945 0.930 . S
C951 C947 1.400 . S
C951 C950 1.385 . S
C952 C950 1.478 . S
C952 C954 1.381 . S
C952 C958 1.383 . S
C953 C949 1.495 . S
C953 H959 0.959 . S
C953 H960 0.961 . S
C953 H961 0.960 . S
C954 C952 1.381 . S
C954 C955 1.394 . S
C954 H962 0.930 . S
C955 C954 1.394 . S
C955 C956 1.383 . S
C955 H963 0.929 . S
C956 C955 1.383 . S
C956 C957 1.377 . S
C957 H941 0.930 . S
C957 C956 1.377 . S
C957 C958 1.379 . S
C958 H942 0.931 . S
C958 C952 1.383 . S
C958 C957 1.379 . S
H959 C953 0.959 . S
H960 C953 0.961 . S
H961 C953 0.960 . S
H962 C954 0.930 . S
H963 C955 0.929 . S
H964 C972 0.929 . S
H965 C974 0.930 . S
H966 C976 0.930 . S
H967 C979 0.929 . S
H968 C982 0.930 . S
H969 C984 0.960 . S
H970 C984 0.960 . S
H971 C984 0.960 . S
C972 H964 0.929 . S
C972 C973 1.377 . S
C972 C974 1.384 . S
C973 C972 1.377 . S
C973 C979 1.390 . S
C974 H965 0.930 . S
C974 C972 1.384 . S
C974 C975 1.372 . S
C975 C974 1.372 . S
C975 C976 1.400 . S
C975 C980 1.490 . S
C976 H966 0.930 . S
C976 C975 1.400 . S
C976 C979 1.386 . S
H977 C993 0.930 . S
H978 C994 0.931 . S
C979 H967 0.929 . S
C979 C973 1.390 . S
C979 C976 1.386 . S
C980 C975 1.490 . S
C980 C982 1.395 . S
C980 C983 1.403 . S
H981 C987 0.930 . S
C982 H968 0.930 . S
C982 C980 1.395 . S
C982 C985 1.403 . S
C983 C980 1.403 . S
C983 C984 1.524 . S
C983 C987 1.400 . S
C984 H969 0.960 . S
C984 H970 0.960 . S
C984 H971 0.960 . S
C984 C983 1.524 . S
C985 C982 1.403 . S
C985 C986 1.392 . S
C985 C989 1.495 . S
C986 C985 1.392 . S
C986 C987 1.385 . S
C986 C988 1.478 . S
C987 H981 0.930 . S
C987 C983 1.400 . S
C987 C986 1.385 . S
C988 C986 1.478 . S
C988 C990 1.381 . S
C988 C994 1.383 . S
C989 C985 1.495 . S
C989 H995 0.959 . S
C989 H996 0.961 . S
C989 H997 0.960 . S
C990 C988 1.381 . S
C990 C991 1.394 . S
C990 H998 0.930 . S
C991 C990 1.394 . S
C991 C992 1.383 . S
C991 H999 0.929 . S
C992 C991 1.383 . S
C992 C993 1.377 . S
C993 H977 0.930 . S
C993 C992 1.377 . S
C993 C994 1.379 . S
C994 H978 0.931 . S
C994 C988 1.383 . S
C994 C993 1.379 . S
H995 C989 0.959 . S
H996 C989 0.961 . S
H997 C989 0.960 . S
H998 C990 0.930 . S
H999 C991 0.929 . S
H1000 C1008 0.929 . S
H1001 C1010 0.930 . S
H1002 C1012 0.930 . S
H1003 C1015 0.929 . S
H1004 C1018 0.930 . S
H1005 C1020 0.960 . S
H1006 C1020 0.960 . S
H1007 C1020 0.960 1_556 S
C1008 H1000 0.929 . S
C1008 C1009 1.377 . S
C1008 C1010 1.384 . S
C1009 C1008 1.377 . S
C1009 C1015 1.390 . S
C1010 H1001 0.930 . S
C1010 C1008 1.384 . S
C1010 C1011 1.372 . S
C1011 C1010 1.372 . S
C1011 C1012 1.400 . S
C1011 C1016 1.490 . S
C1012 H1002 0.930 . S
C1012 C1011 1.400 . S
C1012 C1015 1.386 . S
H1013 C1029 0.930 . S
H1014 C1030 0.931 . S
C1015 H1003 0.929 . S
C1015 C1009 1.390 . S
C1015 C1012 1.386 . S
C1016 C1011 1.490 . S
C1016 C1018 1.395 . S
C1016 C1019 1.403 . S
H1017 C1023 0.930 . S
C1018 H1004 0.930 . S
C1018 C1016 1.395 . S
C1018 C1021 1.403 . S
C1019 C1016 1.403 . S
C1019 C1020 1.523 1_556 S
C1019 C1023 1.400 . S
C1020 H1005 0.960 . S
C1020 H1006 0.960 . S
C1020 H1007 0.960 1_554 S
C1020 C1019 1.523 1_554 S
C1021 C1018 1.403 . S
C1021 C1022 1.392 . S
C1021 C1025 1.495 . S
C1022 C1021 1.392 . S
C1022 C1023 1.385 . S
C1022 C1024 1.478 . S
C1023 H1017 0.930 . S
C1023 C1019 1.400 . S
C1023 C1022 1.385 . S
C1024 C1022 1.478 . S
C1024 C1026 1.381 . S
C1024 C1030 1.383 . S
C1025 C1021 1.495 . S
C1025 H1031 0.959 . S
C1025 H1032 0.961 . S
C1025 H1033 0.960 . S
C1026 C1024 1.381 . S
C1026 C1027 1.394 . S
C1026 H1034 0.930 . S
C1027 C1026 1.394 . S
C1027 C1028 1.383 . S
C1027 H1035 0.929 . S
C1028 C1027 1.383 . S
C1028 C1029 1.377 . S
C1029 H1013 0.930 . S
C1029 C1028 1.377 . S
C1029 C1030 1.379 . S
C1030 H1014 0.931 . S
C1030 C1024 1.383 . S
C1030 C1029 1.379 . S
H1031 C1025 0.959 . S
H1032 C1025 0.961 . S
H1033 C1025 0.960 . S
H1034 C1026 0.930 . S
H1035 C1027 0.929 . S
H1036 C1044 0.929 . S
H1037 C1046 0.930 . S
H1038 C1048 0.930 . S
H1039 C1051 0.929 . S
H1040 C1054 0.930 . S
H1041 C1056 0.960 . S
H1042 C1056 0.960 . S
H1043 C1056 0.960 . S
C1044 H1036 0.929 . S
C1044 C1045 1.377 . S
C1044 C1046 1.384 . S
C1045 C1044 1.377 . S
C1045 C1051 1.390 . S
C1046 H1037 0.930 . S
C1046 C1044 1.384 . S
C1046 C1047 1.372 . S
C1047 C1046 1.372 . S
C1047 C1048 1.400 . S
C1047 C1052 1.490 . S
C1048 H1038 0.930 . S
C1048 C1047 1.400 . S
C1048 C1051 1.386 . S
H1049 C1065 0.930 . S
H1050 C1066 0.931 . S
C1051 H1039 0.929 . S
C1051 C1045 1.390 . S
C1051 C1048 1.386 . S
C1052 C1047 1.490 . S
C1052 C1054 1.395 . S
C1052 C1055 1.403 . S
H1053 C1059 0.930 . S
C1054 H1040 0.930 . S
C1054 C1052 1.395 . S
C1054 C1057 1.403 . S
C1055 C1052 1.403 . S
C1055 C1056 1.524 . S
C1055 C1059 1.400 . S
C1056 H1041 0.960 . S
C1056 H1042 0.960 . S
C1056 H1043 0.960 . S
C1056 C1055 1.524 . S
C1057 C1054 1.403 . S
C1057 C1058 1.392 . S
C1057 C1061 1.495 . S
C1058 C1057 1.392 . S
C1058 C1059 1.385 . S
C1058 C1060 1.478 . S
C1059 H1053 0.930 . S
C1059 C1055 1.400 . S
C1059 C1058 1.385 . S
C1060 C1058 1.478 . S
C1060 C1062 1.381 . S
C1060 C1066 1.383 . S
C1061 C1057 1.495 . S
C1061 H1067 0.959 . S
C1061 H1068 0.961 . S
C1061 H1069 0.960 . S
C1062 C1060 1.381 . S
C1062 C1063 1.394 . S
C1062 H1070 0.930 . S
C1063 C1062 1.394 . S
C1063 C1064 1.383 . S
C1063 H1071 0.929 . S
C1064 C1063 1.383 . S
C1064 C1065 1.377 . S
C1065 H1049 0.930 . S
C1065 C1064 1.377 . S
C1065 C1066 1.379 . S
C1066 H1050 0.931 . S
C1066 C1060 1.383 . S
C1066 C1065 1.379 . S
H1067 C1061 0.959 . S
H1068 C1061 0.961 . S
H1069 C1061 0.960 . S
H1070 C1062 0.930 . S
H1071 C1063 0.929 . S
H1072 C1080 0.929 . S
H1073 C1082 0.930 . S
H1074 C1084 0.930 . S
H1075 C1087 0.929 . S
H1076 C1090 0.930 . S
H1077 C1092 0.960 . S
H1078 C1092 0.960 . S
H1079 C1092 0.960 . S
C1080 H1072 0.929 . S
C1080 C1081 1.377 . S
C1080 C1082 1.384 . S
C1081 C1080 1.377 . S
C1081 C1087 1.390 . S
C1082 H1073 0.930 . S
C1082 C1080 1.384 . S
C1082 C1083 1.372 . S
C1083 C1082 1.372 . S
C1083 C1084 1.400 . S
C1083 C1088 1.490 . S
C1084 H1074 0.930 . S
C1084 C1083 1.400 . S
C1084 C1087 1.386 . S
H1085 C1101 0.930 . S
H1086 C1102 0.931 . S
C1087 H1075 0.929 . S
C1087 C1081 1.390 . S
C1087 C1084 1.386 . S
C1088 C1083 1.490 . S
C1088 C1090 1.395 . S
C1088 C1091 1.403 . S
H1089 C1095 0.930 . S
C1090 H1076 0.930 . S
C1090 C1088 1.395 . S
C1090 C1093 1.403 . S
C1091 C1088 1.403 . S
C1091 C1092 1.524 . S
C1091 C1095 1.400 . S
C1092 H1077 0.960 . S
C1092 H1078 0.960 . S
C1092 H1079 0.960 . S
C1092 C1091 1.524 . S
C1093 C1090 1.403 . S
C1093 C1094 1.392 . S
C1093 C1097 1.495 . S
C1094 C1093 1.392 . S
C1094 C1095 1.385 . S
C1094 C1096 1.478 . S
C1095 H1089 0.930 . S
C1095 C1091 1.400 . S
C1095 C1094 1.385 . S
C1096 C1094 1.478 . S
C1096 C1098 1.381 . S
C1096 C1102 1.383 . S
C1097 C1093 1.495 . S
C1097 H1103 0.959 . S
C1097 H1104 0.961 . S
C1097 H1105 0.960 . S
C1098 C1096 1.381 . S
C1098 C1099 1.394 . S
C1098 H1106 0.930 . S
C1099 C1098 1.394 . S
C1099 C1100 1.383 . S
C1099 H1107 0.929 . S
C1100 C1099 1.383 . S
C1100 C1101 1.377 . S
C1101 H1085 0.930 . S
C1101 C1100 1.377 . S
C1101 C1102 1.379 . S
C1102 H1086 0.931 . S
C1102 C1096 1.383 . S
C1102 C1101 1.379 . S
H1103 C1097 0.959 . S
H1104 C1097 0.961 . S
H1105 C1097 0.960 . S
H1106 C1098 0.930 . S
H1107 C1099 0.929 . S
H1108 C1116 0.929 . S
H1109 C1118 0.930 . S
H1110 C1120 0.930 . S
H1111 C1123 0.929 . S
H1112 C1126 0.930 . S
H1113 C1128 0.960 . S
H1114 C1128 0.960 . S
H1115 C1128 0.960 . S
C1116 H1108 0.929 . S
C1116 C1117 1.377 . S
C1116 C1118 1.384 . S
C1117 C1116 1.377 . S
C1117 C1123 1.390 . S
C1118 H1109 0.930 . S
C1118 C1116 1.384 . S
C1118 C1119 1.372 . S
C1119 C1118 1.372 . S
C1119 C1120 1.400 . S
C1119 C1124 1.490 . S
C1120 H1110 0.930 . S
C1120 C1119 1.400 . S
C1120 C1123 1.386 . S
H1121 C1137 0.930 . S
H1122 C1138 0.931 . S
C1123 H1111 0.929 . S
C1123 C1117 1.390 . S
C1123 C1120 1.386 . S
C1124 C1119 1.490 . S
C1124 C1126 1.395 . S
C1124 C1127 1.403 . S
H1125 C1131 0.930 . S
C1126 H1112 0.930 . S
C1126 C1124 1.395 . S
C1126 C1129 1.403 . S
C1127 C1124 1.403 . S
C1127 C1128 1.524 . S
C1127 C1131 1.400 . S
C1128 H1113 0.960 . S
C1128 H1114 0.960 . S
C1128 H1115 0.960 . S
C1128 C1127 1.524 . S
C1129 C1126 1.403 . S
C1129 C1130 1.392 . S
C1129 C1133 1.495 . S
C1130 C1129 1.392 . S
C1130 C1131 1.385 . S
C1130 C1132 1.478 . S
C1131 H1125 0.930 . S
C1131 C1127 1.400 . S
C1131 C1130 1.385 . S
C1132 C1130 1.478 . S
C1132 C1134 1.381 . S
C1132 C1138 1.383 . S
C1133 C1129 1.495 . S
C1133 H1139 0.959 . S
C1133 H1140 0.961 . S
C1133 H1141 0.960 . S
C1134 C1132 1.381 . S
C1134 C1135 1.394 . S
C1134 H1142 0.930 . S
C1135 C1134 1.394 . S
C1135 C1136 1.383 . S
C1135 H1143 0.929 . S
C1136 C1135 1.383 . S
C1136 C1137 1.377 . S
C1137 H1121 0.930 . S
C1137 C1136 1.377 . S
C1137 C1138 1.379 . S
C1138 H1122 0.931 . S
C1138 C1132 1.383 . S
C1138 C1137 1.379 . S
H1139 C1133 0.959 . S
H1140 C1133 0.961 . S
H1141 C1133 0.960 . S
H1142 C1134 0.930 . S
H1143 C1135 0.929 . S
H1144 C1152 0.929 . S
H1145 C1154 0.930 . S
H1146 C1156 0.930 . S
H1147 C1159 0.929 . S
H1148 C1162 0.930 . S
H1149 C1164 0.960 . S
H1150 C1164 0.960 . S
H1151 C1164 0.960 . S
C1152 H1144 0.929 . S
C1152 C1153 1.377 . S
C1152 C1154 1.384 . S
C1153 C1152 1.377 . S
C1153 C1159 1.390 . S
C1154 H1145 0.930 . S
C1154 C1152 1.384 . S
C1154 C1155 1.372 . S
C1155 C1154 1.372 . S
C1155 C1156 1.400 . S
C1155 C1160 1.490 . S
C1156 H1146 0.930 . S
C1156 C1155 1.400 . S
C1156 C1159 1.386 . S
H1157 C1173 0.930 . S
H1158 C1174 0.931 . S
C1159 H1147 0.929 . S
C1159 C1153 1.390 . S
C1159 C1156 1.386 . S
C1160 C1155 1.490 . S
C1160 C1162 1.395 . S
C1160 C1163 1.403 . S
H1161 C1167 0.930 . S
C1162 H1148 0.930 . S
C1162 C1160 1.395 . S
C1162 C1165 1.403 . S
C1163 C1160 1.403 . S
C1163 C1164 1.524 . S
C1163 C1167 1.400 . S
C1164 H1149 0.960 . S
C1164 H1150 0.960 . S
C1164 H1151 0.960 . S
C1164 C1163 1.524 . S
C1165 C1162 1.403 . S
C1165 C1166 1.392 . S
C1165 C1169 1.495 . S
C1166 C1165 1.392 . S
C1166 C1167 1.385 . S
C1166 C1168 1.478 . S
C1167 H1161 0.930 . S
C1167 C1163 1.400 . S
C1167 C1166 1.385 . S
C1168 C1166 1.478 . S
C1168 C1170 1.381 . S
C1168 C1174 1.383 . S
C1169 C1165 1.495 . S
C1169 H1175 0.959 . S
C1169 H1176 0.961 . S
C1169 H1177 0.960 . S
C1170 C1168 1.381 . S
C1170 C1171 1.394 . S
C1170 H1178 0.930 . S
C1171 C1170 1.394 . S
C1171 C1172 1.383 . S
C1171 H1179 0.929 . S
C1172 C1171 1.383 . S
C1172 C1173 1.377 . S
C1173 H1157 0.930 . S
C1173 C1172 1.377 . S
C1173 C1174 1.379 . S
C1174 H1158 0.931 . S
C1174 C1168 1.383 . S
C1174 C1173 1.379 . S
H1175 C1169 0.959 . S
H1176 C1169 0.961 . S
H1177 C1169 0.960 . S
H1178 C1170 0.930 . S
H1179 C1171 0.929 . S
H1180 C1188 0.929 . S
H1181 C1190 0.930 . S
H1182 C1192 0.930 . S
H1183 C1195 0.929 . S
H1184 C1198 0.930 . S
H1185 C1200 0.960 . S
H1186 C1200 0.960 . S
H1187 C1200 0.960 . S
C1188 H1180 0.929 . S
C1188 C1189 1.377 . S
C1188 C1190 1.384 . S
C1189 C1188 1.377 . S
C1189 C1195 1.390 . S
C1190 H1181 0.930 . S
C1190 C1188 1.384 . S
C1190 C1191 1.372 . S
C1191 C1190 1.372 . S
C1191 C1192 1.400 . S
C1191 C1196 1.490 . S
C1192 H1182 0.930 . S
C1192 C1191 1.400 . S
C1192 C1195 1.386 . S
H1193 C1209 0.930 . S
H1194 C1210 0.931 . S
C1195 H1183 0.929 . S
C1195 C1189 1.390 . S
C1195 C1192 1.386 . S
C1196 C1191 1.490 . S
C1196 C1198 1.395 . S
C1196 C1199 1.403 . S
H1197 C1203 0.930 . S
C1198 H1184 0.930 . S
C1198 C1196 1.395 . S
C1198 C1201 1.403 . S
C1199 C1196 1.403 . S
C1199 C1200 1.524 . S
C1199 C1203 1.400 . S
C1200 H1185 0.960 . S
C1200 H1186 0.960 . S
C1200 H1187 0.960 . S
C1200 C1199 1.524 . S
C1201 C1198 1.403 . S
C1201 C1202 1.392 . S
C1201 C1205 1.495 . S
C1202 C1201 1.392 . S
C1202 C1203 1.385 . S
C1202 C1204 1.478 . S
C1203 H1197 0.930 . S
C1203 C1199 1.400 . S
C1203 C1202 1.385 . S
C1204 C1202 1.478 . S
C1204 C1206 1.381 . S
C1204 C1210 1.383 . S
C1205 C1201 1.495 . S
C1205 H1211 0.959 . S
C1205 H1212 0.961 . S
C1205 H1213 0.960 . S
C1206 C1204 1.381 . S
C1206 C1207 1.394 . S
C1206 H1214 0.930 . S
C1207 C1206 1.394 . S
C1207 C1208 1.383 . S
C1207 H1215 0.929 . S
C1208 C1207 1.383 . S
C1208 C1209 1.377 . S
C1209 H1193 0.930 . S
C1209 C1208 1.377 . S
C1209 C1210 1.379 . S
C1210 H1194 0.931 . S
C1210 C1204 1.383 . S
C1210 C1209 1.379 . S
H1211 C1205 0.959 . S
H1212 C1205 0.961 . S
H1213 C1205 0.960 . S
H1214 C1206 0.930 . S
H1215 C1207 0.929 . S
H1216 C1224 0.929 . S
H1217 C1226 0.930 . S
H1218 C1228 0.930 . S
H1219 C1231 0.929 . S
H1220 C1234 0.930 . S
H1221 C1236 0.960 . S
H1222 C1236 0.960 . S
H1223 C1236 0.960 . S
C1224 H1216 0.929 . S
C1224 C1225 1.377 . S
C1224 C1226 1.384 . S
C1225 C1224 1.377 . S
C1225 C1231 1.390 . S
C1226 H1217 0.930 . S
C1226 C1224 1.384 . S
C1226 C1227 1.372 . S
C1227 C1226 1.372 . S
C1227 C1228 1.400 . S
C1227 C1232 1.490 . S
C1228 H1218 0.930 . S
C1228 C1227 1.400 . S
C1228 C1231 1.386 . S
H1229 C1245 0.930 . S
H1230 C1246 0.931 . S
C1231 H1219 0.929 . S
C1231 C1225 1.390 . S
C1231 C1228 1.386 . S
C1232 C1227 1.490 . S
C1232 C1234 1.395 . S
C1232 C1235 1.403 . S
H1233 C1239 0.930 . S
C1234 H1220 0.930 . S
C1234 C1232 1.395 . S
C1234 C1237 1.403 . S
C1235 C1232 1.403 . S
C1235 C1236 1.524 . S
C1235 C1239 1.400 . S
C1236 H1221 0.960 . S
C1236 H1222 0.960 . S
C1236 H1223 0.960 . S
C1236 C1235 1.524 . S
C1237 C1234 1.403 . S
C1237 C1238 1.392 . S
C1237 C1241 1.495 . S
C1238 C1237 1.392 . S
C1238 C1239 1.385 . S
C1238 C1240 1.478 . S
C1239 H1233 0.930 . S
C1239 C1235 1.400 . S
C1239 C1238 1.385 . S
C1240 C1238 1.478 . S
C1240 C1242 1.381 . S
C1240 C1246 1.383 . S
C1241 C1237 1.495 . S
C1241 H1247 0.959 . S
C1241 H1248 0.961 . S
C1241 H1249 0.960 . S
C1242 C1240 1.381 . S
C1242 C1243 1.394 . S
C1242 H1250 0.930 . S
C1243 C1242 1.394 . S
C1243 C1244 1.383 . S
C1243 H1251 0.929 . S
C1244 C1243 1.383 . S
C1244 C1245 1.377 . S
C1245 H1229 0.930 . S
C1245 C1244 1.377 . S
C1245 C1246 1.379 . S
C1246 H1230 0.931 . S
C1246 C1240 1.383 . S
C1246 C1245 1.379 . S
H1247 C1241 0.959 . S
H1248 C1241 0.961 . S
H1249 C1241 0.960 . S
H1250 C1242 0.930 . S
H1251 C1243 0.929 . S
H1252 C1260 0.929 . S
H1253 C1262 0.930 . S
H1254 C1264 0.930 . S
H1255 C1267 0.929 . S
H1256 C1270 0.930 . S
H1257 C1272 0.960 . S
H1258 C1272 0.960 . S
H1259 C1272 0.960 . S
C1260 H1252 0.929 . S
C1260 C1261 1.377 . S
C1260 C1262 1.384 . S
C1261 C1260 1.377 . S
C1261 C1267 1.390 . S
C1262 H1253 0.930 . S
C1262 C1260 1.384 . S
C1262 C1263 1.372 . S
C1263 C1262 1.372 . S
C1263 C1264 1.400 . S
C1263 C1268 1.490 . S
C1264 H1254 0.930 . S
C1264 C1263 1.400 . S
C1264 C1267 1.386 . S
H1265 C1281 0.930 . S
H1266 C1282 0.931 . S
C1267 H1255 0.929 . S
C1267 C1261 1.390 . S
C1267 C1264 1.386 . S
C1268 C1263 1.490 . S
C1268 C1270 1.395 . S
C1268 C1271 1.403 . S
H1269 C1275 0.930 . S
C1270 H1256 0.930 . S
C1270 C1268 1.395 . S
C1270 C1273 1.403 . S
C1271 C1268 1.403 . S
C1271 C1272 1.524 . S
C1271 C1275 1.400 . S
C1272 H1257 0.960 . S
C1272 H1258 0.960 . S
C1272 H1259 0.960 . S
C1272 C1271 1.524 . S
C1273 C1270 1.403 . S
C1273 C1274 1.392 . S
C1273 C1277 1.495 . S
C1274 C1273 1.392 . S
C1274 C1275 1.385 . S
C1274 C1276 1.478 . S
C1275 H1269 0.930 . S
C1275 C1271 1.400 . S
C1275 C1274 1.385 . S
C1276 C1274 1.478 . S
C1276 C1278 1.381 . S
C1276 C1282 1.383 . S
C1277 C1273 1.495 . S
C1277 H1283 0.959 . S
C1277 H1284 0.961 . S
C1277 H1285 0.960 . S
C1278 C1276 1.381 . S
C1278 C1279 1.394 . S
C1278 H1286 0.930 . S
C1279 C1278 1.394 . S
C1279 C1280 1.383 . S
C1279 H1287 0.929 . S
C1280 C1279 1.383 . S
C1280 C1281 1.377 . S
C1281 H1265 0.930 . S
C1281 C1280 1.377 . S
C1281 C1282 1.379 . S
C1282 H1266 0.931 . S
C1282 C1276 1.383 . S
C1282 C1281 1.379 . S
H1283 C1277 0.959 . S
H1284 C1277 0.961 . S
H1285 C1277 0.960 . S
H1286 C1278 0.930 . S
H1287 C1279 0.929 . S
H1288 C1296 0.929 . S
H1289 C1298 0.930 . S
H1290 C1300 0.930 . S
H1291 C1303 0.929 . S
H1292 C1306 0.930 . S
H1293 C1308 0.960 . S
H1294 C1308 0.960 . S
H1295 C1308 0.960 . S
C1296 H1288 0.929 . S
C1296 C1297 1.377 . S
C1296 C1298 1.384 . S
C1297 C1296 1.377 . S
C1297 C1303 1.390 . S
C1298 H1289 0.930 . S
C1298 C1296 1.384 . S
C1298 C1299 1.372 . S
C1299 C1298 1.372 . S
C1299 C1300 1.400 . S
C1299 C1304 1.490 . S
C1300 H1290 0.930 . S
C1300 C1299 1.400 . S
C1300 C1303 1.386 . S
H1301 C1317 0.930 . S
H1302 C1318 0.931 . S
C1303 H1291 0.929 . S
C1303 C1297 1.390 . S
C1303 C1300 1.386 . S
C1304 C1299 1.490 . S
C1304 C1306 1.395 . S
C1304 C1307 1.403 . S
H1305 C1311 0.930 . S
C1306 H1292 0.930 . S
C1306 C1304 1.395 . S
C1306 C1309 1.403 . S
C1307 C1304 1.403 . S
C1307 C1308 1.524 . S
C1307 C1311 1.400 . S
C1308 H1293 0.960 . S
C1308 H1294 0.960 . S
C1308 H1295 0.960 . S
C1308 C1307 1.524 . S
C1309 C1306 1.403 . S
C1309 C1310 1.392 . S
C1309 C1313 1.495 . S
C1310 C1309 1.392 . S
C1310 C1311 1.385 . S
C1310 C1312 1.478 . S
C1311 H1305 0.930 . S
C1311 C1307 1.400 . S
C1311 C1310 1.385 . S
C1312 C1310 1.478 . S
C1312 C1314 1.381 . S
C1312 C1318 1.383 . S
C1313 C1309 1.495 . S
C1313 H1319 0.959 . S
C1313 H1320 0.961 . S
C1313 H1321 0.960 . S
C1314 C1312 1.381 . S
C1314 C1315 1.394 . S
C1314 H1322 0.930 . S
C1315 C1314 1.394 . S
C1315 C1316 1.383 . S
C1315 H1323 0.929 . S
C1316 C1315 1.383 . S
C1316 C1317 1.377 . S
C1317 H1301 0.930 . S
C1317 C1316 1.377 . S
C1317 C1318 1.379 . S
C1318 H1302 0.931 . S
C1318 C1312 1.383 . S
C1318 C1317 1.379 . S
H1319 C1313 0.959 . S
H1320 C1313 0.961 . S
H1321 C1313 0.960 . S
H1322 C1314 0.930 . S
H1323 C1315 0.929 . S
H1324 C1332 0.929 . S
H1325 C1334 0.930 . S
H1326 C1336 0.930 . S
H1327 C1339 0.929 . S
H1328 C1342 0.930 . S
H1329 C1344 0.960 . S
H1330 C1344 0.960 . S
H1331 C1344 0.960 . S
C1332 H1324 0.929 . S
C1332 C1333 1.377 . S
C1332 C1334 1.384 . S
C1333 C1332 1.377 . S
C1333 C1339 1.390 . S
C1334 H1325 0.930 . S
C1334 C1332 1.384 . S
C1334 C1335 1.372 . S
C1335 C1334 1.372 . S
C1335 C1336 1.400 . S
C1335 C1340 1.490 . S
C1336 H1326 0.930 . S
C1336 C1335 1.400 . S
C1336 C1339 1.386 . S
H1337 C1353 0.930 . S
H1338 C1354 0.931 . S
C1339 H1327 0.929 . S
C1339 C1333 1.390 . S
C1339 C1336 1.386 . S
C1340 C1335 1.490 . S
C1340 C1342 1.395 . S
C1340 C1343 1.403 . S
H1341 C1347 0.930 . S
C1342 H1328 0.930 . S
C1342 C1340 1.395 . S
C1342 C1345 1.403 . S
C1343 C1340 1.403 . S
C1343 C1344 1.524 . S
C1343 C1347 1.400 . S
C1344 H1329 0.960 . S
C1344 H1330 0.960 . S
C1344 H1331 0.960 . S
C1344 C1343 1.524 . S
C1345 C1342 1.403 . S
C1345 C1346 1.392 . S
C1345 C1349 1.495 . S
C1346 C1345 1.392 . S
C1346 C1347 1.385 . S
C1346 C1348 1.478 . S
C1347 H1341 0.930 . S
C1347 C1343 1.400 . S
C1347 C1346 1.385 . S
C1348 C1346 1.478 . S
C1348 C1350 1.381 . S
C1348 C1354 1.383 . S
C1349 C1345 1.495 . S
C1349 H1355 0.959 . S
C1349 H1356 0.961 . S
C1349 H1357 0.960 . S
C1350 C1348 1.381 . S
C1350 C1351 1.394 . S
C1350 H1358 0.930 . S
C1351 C1350 1.394 . S
C1351 C1352 1.383 . S
C1351 H1359 0.929 . S
C1352 C1351 1.383 . S
C1352 C1353 1.377 . S
C1353 H1337 0.930 . S
C1353 C1352 1.377 . S
C1353 C1354 1.379 . S
C1354 H1338 0.931 . S
C1354 C1348 1.383 . S
C1354 C1353 1.379 . S
H1355 C1349 0.959 . S
H1356 C1349 0.961 . S
H1357 C1349 0.960 . S
H1358 C1350 0.930 . S
H1359 C1351 0.929 . S
H1360 C1368 0.929 . S
H1361 C1370 0.930 . S
H1362 C1372 0.930 . S
H1363 C1375 0.929 . S
H1364 C1378 0.930 . S
H1365 C1380 0.960 . S
H1366 C1380 0.960 . S
H1367 C1380 0.960 . S
C1368 H1360 0.929 . S
C1368 C1369 1.377 . S
C1368 C1370 1.384 . S
C1369 C1368 1.377 . S
C1369 C1375 1.390 . S
C1370 H1361 0.930 . S
C1370 C1368 1.384 . S
C1370 C1371 1.372 . S
C1371 C1370 1.372 . S
C1371 C1372 1.400 . S
C1371 C1376 1.490 . S
C1372 H1362 0.930 . S
C1372 C1371 1.400 . S
C1372 C1375 1.386 . S
H1373 C1389 0.930 . S
H1374 C1390 0.931 . S
C1375 H1363 0.929 . S
C1375 C1369 1.390 . S
C1375 C1372 1.386 . S
C1376 C1371 1.490 . S
C1376 C1378 1.395 . S
C1376 C1379 1.403 . S
H1377 C1383 0.930 . S
C1378 H1364 0.930 . S
C1378 C1376 1.395 . S
C1378 C1381 1.403 . S
C1379 C1376 1.403 . S
C1379 C1380 1.524 . S
C1379 C1383 1.400 . S
C1380 H1365 0.960 . S
C1380 H1366 0.960 . S
C1380 H1367 0.960 . S
C1380 C1379 1.524 . S
C1381 C1378 1.403 . S
C1381 C1382 1.392 . S
C1381 C1385 1.495 . S
C1382 C1381 1.392 . S
C1382 C1383 1.385 . S
C1382 C1384 1.478 . S
C1383 H1377 0.930 . S
C1383 C1379 1.400 . S
C1383 C1382 1.385 . S
C1384 C1382 1.478 . S
C1384 C1386 1.381 . S
C1384 C1390 1.383 . S
C1385 C1381 1.495 . S
C1385 H1391 0.959 . S
C1385 H1392 0.961 . S
C1385 H1393 0.960 . S
C1386 C1384 1.381 . S
C1386 C1387 1.394 . S
C1386 H1394 0.930 . S
C1387 C1386 1.394 . S
C1387 C1388 1.383 . S
C1387 H1395 0.929 . S
C1388 C1387 1.383 . S
C1388 C1389 1.377 . S
C1389 H1373 0.930 . S
C1389 C1388 1.377 . S
C1389 C1390 1.379 . S
C1390 H1374 0.931 . S
C1390 C1384 1.383 . S
C1390 C1389 1.379 . S
H1391 C1385 0.959 . S
H1392 C1385 0.961 . S
H1393 C1385 0.960 . S
H1394 C1386 0.930 . S
H1395 C1387 0.929 . S
H1396 C1404 0.929 . S
H1397 C1406 0.930 . S
H1398 C1408 0.930 . S
H1399 C1411 0.929 . S
H1400 C1414 0.930 . S
H1401 C1416 0.960 . S
H1402 C1416 0.960 . S
H1403 C1416 0.960 . S
C1404 H1396 0.929 . S
C1404 C1405 1.377 . S
C1404 C1406 1.384 . S
C1405 C1404 1.377 . S
C1405 C1411 1.390 . S
C1406 H1397 0.930 . S
C1406 C1404 1.384 . S
C1406 C1407 1.372 . S
C1407 C1406 1.372 . S
C1407 C1408 1.400 . S
C1407 C1412 1.490 . S
C1408 H1398 0.930 . S
C1408 C1407 1.400 . S
C1408 C1411 1.386 . S
H1409 C1425 0.930 . S
H1410 C1426 0.931 . S
C1411 H1399 0.929 . S
C1411 C1405 1.390 . S
C1411 C1408 1.386 . S
C1412 C1407 1.490 . S
C1412 C1414 1.395 . S
C1412 C1415 1.403 . S
H1413 C1419 0.930 . S
C1414 H1400 0.930 . S
C1414 C1412 1.395 . S
C1414 C1417 1.403 . S
C1415 C1412 1.403 . S
C1415 C1416 1.524 . S
C1415 C1419 1.400 . S
C1416 H1401 0.960 . S
C1416 H1402 0.960 . S
C1416 H1403 0.960 . S
C1416 C1415 1.524 . S
C1417 C1414 1.403 . S
C1417 C1418 1.392 . S
C1417 C1421 1.495 . S
C1418 C1417 1.392 . S
C1418 C1419 1.385 . S
C1418 C1420 1.478 . S
C1419 H1413 0.930 . S
C1419 C1415 1.400 . S
C1419 C1418 1.385 . S
C1420 C1418 1.478 . S
C1420 C1422 1.381 . S
C1420 C1426 1.383 . S
C1421 C1417 1.495 . S
C1421 H1427 0.959 . S
C1421 H1428 0.961 . S
C1421 H1429 0.960 . S
C1422 C1420 1.381 . S
C1422 C1423 1.394 . S
C1422 H1430 0.930 . S
C1423 C1422 1.394 . S
C1423 C1424 1.383 . S
C1423 H1431 0.929 . S
C1424 C1423 1.383 . S
C1424 C1425 1.377 . S
C1425 H1409 0.930 . S
C1425 C1424 1.377 . S
C1425 C1426 1.379 . S
C1426 H1410 0.931 . S
C1426 C1420 1.383 . S
C1426 C1425 1.379 . S
H1427 C1421 0.959 . S
H1428 C1421 0.961 . S
H1429 C1421 0.960 . S
H1430 C1422 0.930 . S
H1431 C1423 0.929 . S
H1432 C1440 0.929 . S
H1433 C1442 0.930 . S
H1434 C1444 0.930 . S
H1435 C1447 0.929 . S
H1436 C1450 0.930 . S
H1437 C1452 0.960 . S
H1438 C1452 0.960 . S
H1439 C1452 0.960 . S
C1440 H1432 0.929 . S
C1440 C1441 1.377 . S
C1440 C1442 1.384 . S
C1441 C1440 1.377 . S
C1441 C1447 1.390 . S
C1442 H1433 0.930 . S
C1442 C1440 1.384 . S
C1442 C1443 1.372 . S
C1443 C1442 1.372 . S
C1443 C1444 1.400 . S
C1443 C1448 1.490 . S
C1444 H1434 0.930 . S
C1444 C1443 1.400 . S
C1444 C1447 1.386 . S
H1445 C1461 0.930 . S
H1446 C1462 0.931 . S
C1447 H1435 0.929 . S
C1447 C1441 1.390 . S
C1447 C1444 1.386 . S
C1448 C1443 1.490 . S
C1448 C1450 1.395 . S
C1448 C1451 1.403 . S
H1449 C1455 0.930 . S
C1450 H1436 0.930 . S
C1450 C1448 1.395 . S
C1450 C1453 1.403 . S
C1451 C1448 1.403 . S
C1451 C1452 1.524 . S
C1451 C1455 1.400 . S
C1452 H1437 0.960 . S
C1452 H1438 0.960 . S
C1452 H1439 0.960 . S
C1452 C1451 1.524 . S
C1453 C1450 1.403 . S
C1453 C1454 1.392 . S
C1453 C1457 1.495 . S
C1454 C1453 1.392 . S
C1454 C1455 1.385 . S
C1454 C1456 1.478 . S
C1455 H1449 0.930 . S
C1455 C1451 1.400 . S
C1455 C1454 1.385 . S
C1456 C1454 1.478 . S
C1456 C1458 1.381 . S
C1456 C1462 1.383 . S
C1457 C1453 1.495 . S
C1457 H1463 0.959 . S
C1457 H1464 0.961 . S
C1457 H1465 0.960 . S
C1458 C1456 1.381 . S
C1458 C1459 1.394 . S
C1458 H1466 0.930 . S
C1459 C1458 1.394 . S
C1459 C1460 1.383 . S
C1459 H1467 0.929 . S
C1460 C1459 1.383 . S
C1460 C1461 1.377 . S
C1461 H1445 0.930 . S
C1461 C1460 1.377 . S
C1461 C1462 1.379 . S
C1462 H1446 0.931 . S
C1462 C1456 1.383 . S
C1462 C1461 1.379 . S
H1463 C1457 0.959 . S
H1464 C1457 0.961 . S
H1465 C1457 0.960 . S
H1466 C1458 0.930 . S
H1467 C1459 0.929 . S
H1468 C1476 0.929 . S
H1469 C1478 0.930 . S
H1470 C1480 0.930 . S
H1471 C1483 0.929 . S
H1472 C1486 0.930 . S
H1473 C1488 0.960 . S
H1474 C1488 0.960 . S
H1475 C1488 0.960 . S
C1476 H1468 0.929 . S
C1476 C1477 1.377 . S
C1476 C1478 1.384 . S
C1477 C1476 1.377 . S
C1477 C1483 1.390 . S
C1478 H1469 0.930 . S
C1478 C1476 1.384 . S
C1478 C1479 1.372 . S
C1479 C1478 1.372 . S
C1479 C1480 1.400 . S
C1479 C1484 1.490 . S
C1480 H1470 0.930 . S
C1480 C1479 1.400 . S
C1480 C1483 1.386 . S
H1481 C1497 0.930 . S
H1482 C1498 0.931 . S
C1483 H1471 0.929 . S
C1483 C1477 1.390 . S
C1483 C1480 1.386 . S
C1484 C1479 1.490 . S
C1484 C1486 1.395 . S
C1484 C1487 1.403 . S
H1485 C1491 0.930 . S
C1486 H1472 0.930 . S
C1486 C1484 1.395 . S
C1486 C1489 1.403 . S
C1487 C1484 1.403 . S
C1487 C1488 1.524 . S
C1487 C1491 1.400 . S
C1488 H1473 0.960 . S
C1488 H1474 0.960 . S
C1488 H1475 0.960 . S
C1488 C1487 1.524 . S
C1489 C1486 1.403 . S
C1489 C1490 1.392 . S
C1489 C1493 1.495 . S
C1490 C1489 1.392 . S
C1490 C1491 1.385 . S
C1490 C1492 1.478 . S
C1491 H1485 0.930 . S
C1491 C1487 1.400 . S
C1491 C1490 1.385 . S
C1492 C1490 1.478 . S
C1492 C1494 1.381 . S
C1492 C1498 1.383 . S
C1493 C1489 1.495 . S
C1493 H1499 0.959 . S
C1493 H1500 0.961 . S
C1493 H1501 0.960 . S
C1494 C1492 1.381 . S
C1494 C1495 1.394 . S
C1494 H1502 0.930 . S
C1495 C1494 1.394 . S
C1495 C1496 1.383 . S
C1495 H1503 0.929 . S
C1496 C1495 1.383 . S
C1496 C1497 1.377 . S
C1497 H1481 0.930 . S
C1497 C1496 1.377 . S
C1497 C1498 1.379 . S
C1498 H1482 0.931 . S
C1498 C1492 1.383 . S
C1498 C1497 1.379 . S
H1499 C1493 0.959 . S
H1500 C1493 0.961 . S
H1501 C1493 0.960 . S
H1502 C1494 0.930 . S
H1503 C1495 0.929 . S
H1504 C1512 0.929 . S
H1505 C1514 0.930 . S
H1506 C1516 0.930 . S
H1507 C1519 0.929 . S
H1508 C1522 0.930 . S
H1509 C1524 0.960 . S
H1510 C1524 0.960 . S
H1511 C1524 0.960 . S
C1512 H1504 0.929 . S
C1512 C1513 1.377 . S
C1512 C1514 1.384 . S
C1513 C1512 1.377 . S
C1513 C1519 1.390 . S
C1514 H1505 0.930 . S
C1514 C1512 1.384 . S
C1514 C1515 1.372 . S
C1515 C1514 1.372 . S
C1515 C1516 1.400 . S
C1515 C1520 1.490 . S
C1516 H1506 0.930 . S
C1516 C1515 1.400 . S
C1516 C1519 1.386 . S
H1517 C1533 0.930 . S
H1518 C1534 0.931 . S
C1519 H1507 0.929 . S
C1519 C1513 1.390 . S
C1519 C1516 1.386 . S
C1520 C1515 1.490 . S
C1520 C1522 1.395 . S
C1520 C1523 1.403 . S
H1521 C1527 0.930 . S
C1522 H1508 0.930 . S
C1522 C1520 1.395 . S
C1522 C1525 1.403 . S
C1523 C1520 1.403 . S
C1523 C1524 1.524 . S
C1523 C1527 1.400 . S
C1524 H1509 0.960 . S
C1524 H1510 0.960 . S
C1524 H1511 0.960 . S
C1524 C1523 1.524 . S
C1525 C1522 1.403 . S
C1525 C1526 1.392 . S
C1525 C1529 1.495 . S
C1526 C1525 1.392 . S
C1526 C1527 1.385 . S
C1526 C1528 1.478 . S
C1527 H1521 0.930 . S
C1527 C1523 1.400 . S
C1527 C1526 1.385 . S
C1528 C1526 1.478 . S
C1528 C1530 1.381 . S
C1528 C1534 1.383 . S
C1529 C1525 1.495 . S
C1529 H1535 0.959 . S
C1529 H1536 0.961 . S
C1529 H1537 0.960 . S
C1530 C1528 1.381 . S
C1530 C1531 1.394 . S
C1530 H1538 0.930 . S
C1531 C1530 1.394 . S
C1531 C1532 1.383 . S
C1531 H1539 0.929 . S
C1532 C1531 1.383 . S
C1532 C1533 1.377 . S
C1533 H1517 0.930 . S
C1533 C1532 1.377 . S
C1533 C1534 1.379 . S
C1534 H1518 0.931 . S
C1534 C1528 1.383 . S
C1534 C1533 1.379 . S
H1535 C1529 0.959 . S
H1536 C1529 0.961 . S
H1537 C1529 0.960 . S
H1538 C1530 0.930 . S
H1539 C1531 0.929 . S
H1540 C1548 0.929 . S
H1541 C1550 0.930 . S
H1542 C1552 0.930 . S
H1543 C1555 0.929 . S
H1544 C1558 0.930 . S
H1545 C1560 0.960 . S
H1546 C1560 0.960 . S
H1547 C1560 0.960 . S
C1548 H1540 0.929 . S
C1548 C1549 1.377 . S
C1548 C1550 1.384 . S
C1549 C1548 1.377 . S
C1549 C1555 1.390 . S
C1550 H1541 0.930 . S
C1550 C1548 1.384 . S
C1550 C1551 1.372 . S
C1551 C1550 1.372 . S
C1551 C1552 1.400 . S
C1551 C1556 1.490 . S
C1552 H1542 0.930 . S
C1552 C1551 1.400 . S
C1552 C1555 1.386 . S
H1553 C1569 0.930 . S
H1554 C1570 0.931 . S
C1555 H1543 0.929 . S
C1555 C1549 1.390 . S
C1555 C1552 1.386 . S
C1556 C1551 1.490 . S
C1556 C1558 1.395 . S
C1556 C1559 1.403 . S
H1557 C1563 0.930 . S
C1558 H1544 0.930 . S
C1558 C1556 1.395 . S
C1558 C1561 1.403 . S
C1559 C1556 1.403 . S
C1559 C1560 1.524 . S
C1559 C1563 1.400 . S
C1560 H1545 0.960 . S
C1560 H1546 0.960 . S
C1560 H1547 0.960 . S
C1560 C1559 1.524 . S
C1561 C1558 1.403 . S
C1561 C1562 1.392 . S
C1561 C1565 1.495 . S
C1562 C1561 1.392 . S
C1562 C1563 1.385 . S
C1562 C1564 1.478 . S
C1563 H1557 0.930 . S
C1563 C1559 1.400 . S
C1563 C1562 1.385 . S
C1564 C1562 1.478 . S
C1564 C1566 1.381 . S
C1564 C1570 1.383 . S
C1565 C1561 1.495 . S
C1565 H1571 0.959 . S
C1565 H1572 0.961 . S
C1565 H1573 0.960 . S
C1566 C1564 1.381 . S
C1566 C1567 1.394 . S
C1566 H1574 0.930 . S
C1567 C1566 1.394 . S
C1567 C1568 1.383 . S
C1567 H1575 0.929 . S
C1568 C1567 1.383 . S
C1568 C1569 1.377 . S
C1569 H1553 0.930 . S
C1569 C1568 1.377 . S
C1569 C1570 1.379 . S
C1570 H1554 0.931 . S
C1570 C1564 1.383 . S
C1570 C1569 1.379 . S
H1571 C1565 0.959 . S
H1572 C1565 0.961 . S
H1573 C1565 0.960 . S
H1574 C1566 0.930 . S
H1575 C1567 0.929 . S
H1576 C1584 0.929 . S
H1577 C1586 0.930 . S
H1578 C1588 0.930 . S
H1579 C1591 0.929 . S
H1580 C1594 0.930 . S
H1581 C1596 0.960 . S
H1582 C1596 0.960 . S
H1583 C1596 0.960 . S
C1584 H1576 0.929 . S
C1584 C1585 1.377 . S
C1584 C1586 1.384 . S
C1585 C1584 1.377 . S
C1585 C1591 1.390 . S
C1586 H1577 0.930 . S
C1586 C1584 1.384 . S
C1586 C1587 1.372 . S
C1587 C1586 1.372 . S
C1587 C1588 1.400 . S
C1587 C1592 1.490 . S
C1588 H1578 0.930 . S
C1588 C1587 1.400 . S
C1588 C1591 1.386 . S
H1589 C1605 0.930 . S
H1590 C1606 0.931 . S
C1591 H1579 0.929 . S
C1591 C1585 1.390 . S
C1591 C1588 1.386 . S
C1592 C1587 1.490 . S
C1592 C1594 1.395 . S
C1592 C1595 1.403 . S
H1593 C1599 0.930 . S
C1594 H1580 0.930 . S
C1594 C1592 1.395 . S
C1594 C1597 1.403 . S
C1595 C1592 1.403 . S
C1595 C1596 1.524 . S
C1595 C1599 1.400 . S
C1596 H1581 0.960 . S
C1596 H1582 0.960 . S
C1596 H1583 0.960 . S
C1596 C1595 1.524 . S
C1597 C1594 1.403 . S
C1597 C1598 1.392 . S
C1597 C1601 1.495 . S
C1598 C1597 1.392 . S
C1598 C1599 1.385 . S
C1598 C1600 1.478 . S
C1599 H1593 0.930 . S
C1599 C1595 1.400 . S
C1599 C1598 1.385 . S
C1600 C1598 1.478 . S
C1600 C1602 1.381 . S
C1600 C1606 1.383 . S
C1601 C1597 1.495 . S
C1601 H1607 0.959 . S
C1601 H1608 0.961 . S
C1601 H1609 0.960 . S
C1602 C1600 1.381 . S
C1602 C1603 1.394 . S
C1602 H1610 0.930 . S
C1603 C1602 1.394 . S
C1603 C1604 1.383 . S
C1603 H1611 0.929 . S
C1604 C1603 1.383 . S
C1604 C1605 1.377 . S
C1605 H1589 0.930 . S
C1605 C1604 1.377 . S
C1605 C1606 1.379 . S
C1606 H1590 0.931 . S
C1606 C1600 1.383 . S
C1606 C1605 1.379 . S
H1607 C1601 0.959 . S
H1608 C1601 0.961 . S
H1609 C1601 0.960 . S
H1610 C1602 0.930 . S
H1611 C1603 0.929 . S
H1612 C1620 0.929 . S
H1613 C1622 0.930 . S
H1614 C1624 0.930 . S
H1615 C1627 0.929 . S
H1616 C1630 0.930 . S
H1617 C1632 0.960 . S
H1618 C1632 0.960 . S
H1619 C1632 0.960 . S
C1620 H1612 0.929 . S
C1620 C1621 1.377 . S
C1620 C1622 1.384 . S
C1621 C1620 1.377 . S
C1621 C1627 1.390 . S
C1622 H1613 0.930 . S
C1622 C1620 1.384 . S
C1622 C1623 1.372 . S
C1623 C1622 1.372 . S
C1623 C1624 1.400 . S
C1623 C1628 1.490 . S
C1624 H1614 0.930 . S
C1624 C1623 1.400 . S
C1624 C1627 1.386 . S
H1625 C1641 0.930 . S
H1626 C1642 0.931 . S
C1627 H1615 0.929 . S
C1627 C1621 1.390 . S
C1627 C1624 1.386 . S
C1628 C1623 1.490 . S
C1628 C1630 1.395 . S
C1628 C1631 1.403 . S
H1629 C1635 0.930 . S
C1630 H1616 0.930 . S
C1630 C1628 1.395 . S
C1630 C1633 1.403 . S
C1631 C1628 1.403 . S
C1631 C1632 1.524 . S
C1631 C1635 1.400 . S
C1632 H1617 0.960 . S
C1632 H1618 0.960 . S
C1632 H1619 0.960 . S
C1632 C1631 1.524 . S
C1633 C1630 1.403 . S
C1633 C1634 1.392 . S
C1633 C1637 1.495 . S
C1634 C1633 1.392 . S
C1634 C1635 1.385 . S
C1634 C1636 1.478 . S
C1635 H1629 0.930 . S
C1635 C1631 1.400 . S
C1635 C1634 1.385 . S
C1636 C1634 1.478 . S
C1636 C1638 1.381 . S
C1636 C1642 1.383 . S
C1637 C1633 1.495 . S
C1637 H1643 0.959 . S
C1637 H1644 0.961 . S
C1637 H1645 0.960 . S
C1638 C1636 1.381 . S
C1638 C1639 1.394 . S
C1638 H1646 0.930 . S
C1639 C1638 1.394 . S
C1639 C1640 1.383 . S
C1639 H1647 0.929 . S
C1640 C1639 1.383 . S
C1640 C1641 1.377 . S
C1641 H1625 0.930 . S
C1641 C1640 1.377 . S
C1641 C1642 1.379 . S
C1642 H1626 0.931 . S
C1642 C1636 1.383 . S
C1642 C1641 1.379 . S
H1643 C1637 0.959 . S
H1644 C1637 0.961 . S
H1645 C1637 0.960 . S
H1646 C1638 0.930 . S
H1647 C1639 0.929 . S
C524 C409 1.223 . S
C505 C36 1.212 . S
C560 C423 1.250 . S
C541 C93 1.226 . S
C596 C431 1.267 . S
C577 C126 1.264 . S
C613 C165 1.214 . S
C632 C389 1.223 . S
C649 C222 1.168 . S
C668 C395 1.201 1_556 S
C685 C261 1.172 . S
C704 C403 1.215 . S
C740 C417 1.307 . S
C721 C318 1.300 . S
C776 C437 1.282 . S
C757 C381 1.260 . S
C793 C132 1.173 . S
C812 C465 1.210 . S
C848 C479 1.311 . S
C829 C189 1.282 . S
C865 C30 1.197 . S
C884 C487 1.195 . S
C920 C451 1.156 . S
C901 C69 1.122 . S
C937 C324 1.241 . S
C956 C445 1.241 . S
C973 C357 1.257 . S
C992 C459 1.256 . S
C1028 C473 1.262 . S
C1009 C228 1.259 . S
C1045 C285 1.281 . S
C1064 C493 1.299 . S
C1100 C412 1.670 . S
C1081 C45 1.730 . S
C1136 C435 1.729 . S
C1117 C84 1.730 . S
C1153 C117 1.733 . S
C1172 C393 1.711 . S
C1189 C174 1.721 . S
C1208 C398 1.729 . S
C1225 C213 1.716 . S
C1244 C426 1.647 . S
C1280 C384 1.696 . S
C1261 C270 1.694 . S
C1316 C407 1.723 . S
C1297 C309 1.718 . S
C1352 C421 1.705 . S
C1333 C372 1.735 . S
C1388 C468 1.662 . S
C1369 C141 1.712 . S
C1424 C491 1.696 . S
C1405 C180 1.717 . S
C1441 C21 1.703 . S
C1460 C440 1.638 . S
C1496 C454 1.631 . S
C1477 C78 1.678 . S
C1532 C482 1.718 . S
C1513 C333 1.760 . S
C1549 C366 1.727 . S
C1568 C449 1.731 . S
C1604 C463 1.745 . S
C1585 C237 1.740 . S
C1640 C477 1.719 . S
C1621 C276 1.749 . S
