# Generated by pormake.
# Topology wbl, (4,4)-cn, num edge types: 1
# Building blocks:
#     Node 0, Type 0, BuildingBlock: NAWXER_clean_linker_0, # of connection points: 4
#     Node 1, Type 0, BuildingBlock: NAWXER_clean_linker_0, # of connection points: 4
#     Node 2, Type 0, BuildingBlock: NAWXER_clean_linker_0, # of connection points: 4
#     Node 3, Type 0, BuildingBlock: NAWXER_clean_linker_0, # of connection points: 4
#     Node 4, Type 0, BuildingBlock: NAWXER_clean_linker_0, # of connection points: 4
#     Node 5, Type 0, BuildingBlock: NAWXER_clean_linker_0, # of connection points: 4
#     Node 6, Type 0, BuildingBlock: NAWXER_clean_linker_0, # of connection points: 4
#     Node 7, Type 0, BuildingBlock: NAWXER_clean_linker_0, # of connection points: 4
#     Node 8, Type 1, BuildingBlock: QUQFOY_clean_sbu_3, # of connection points: 4
#     Node 9, Type 1, BuildingBlock: QUQFOY_clean_sbu_3, # of connection points: 4
#     Node 10, Type 1, BuildingBlock: QUQFOY_clean_sbu_3, # of connection points: 4
#     Node 11, Type 1, BuildingBlock: QUQFOY_clean_sbu_3, # of connection points: 4
#     Node 12, Type 1, BuildingBlock: QUQFOY_clean_sbu_3, # of connection points: 4
#     Node 13, Type 1, BuildingBlock: QUQFOY_clean_sbu_3, # of connection points: 4
#     Node 14, Type 1, BuildingBlock: QUQFOY_clean_sbu_3, # of connection points: 4
#     Node 15, Type 1, BuildingBlock: QUQFOY_clean_sbu_3, # of connection points: 4
#     Edge 16, Type (0, 1), BuildingBlock: EZIPEK_clean_linker_0, # of connection points: 2
#     Edge 17, Type (0, 1), BuildingBlock: EZIPEK_clean_linker_0, # of connection points: 2
#     Edge 18, Type (0, 1), BuildingBlock: EZIPEK_clean_linker_0, # of connection points: 2
#     Edge 19, Type (0, 1), BuildingBlock: EZIPEK_clean_linker_0, # of connection points: 2
#     Edge 20, Type (0, 1), BuildingBlock: EZIPEK_clean_linker_0, # of connection points: 2
#     Edge 21, Type (0, 1), BuildingBlock: EZIPEK_clean_linker_0, # of connection points: 2
#     Edge 22, Type (0, 1), BuildingBlock: EZIPEK_clean_linker_0, # of connection points: 2
#     Edge 23, Type (0, 1), BuildingBlock: EZIPEK_clean_linker_0, # of connection points: 2
#     Edge 24, Type (0, 1), BuildingBlock: EZIPEK_clean_linker_0, # of connection points: 2
#     Edge 25, Type (0, 1), BuildingBlock: EZIPEK_clean_linker_0, # of connection points: 2
#     Edge 26, Type (0, 1), BuildingBlock: EZIPEK_clean_linker_0, # of connection points: 2
#     Edge 27, Type (0, 1), BuildingBlock: EZIPEK_clean_linker_0, # of connection points: 2
#     Edge 28, Type (0, 1), BuildingBlock: EZIPEK_clean_linker_0, # of connection points: 2
#     Edge 29, Type (0, 1), BuildingBlock: EZIPEK_clean_linker_0, # of connection points: 2
#     Edge 30, Type (0, 1), BuildingBlock: EZIPEK_clean_linker_0, # of connection points: 2
#     Edge 31, Type (0, 1), BuildingBlock: EZIPEK_clean_linker_0, # of connection points: 2
#     Edge 32, Type (0, 1), BuildingBlock: EZIPEK_clean_linker_0, # of connection points: 2
#     Edge 33, Type (0, 1), BuildingBlock: EZIPEK_clean_linker_0, # of connection points: 2
#     Edge 34, Type (0, 1), BuildingBlock: EZIPEK_clean_linker_0, # of connection points: 2
#     Edge 35, Type (0, 1), BuildingBlock: EZIPEK_clean_linker_0, # of connection points: 2
#     Edge 36, Type (0, 1), BuildingBlock: EZIPEK_clean_linker_0, # of connection points: 2
#     Edge 37, Type (0, 1), BuildingBlock: EZIPEK_clean_linker_0, # of connection points: 2
#     Edge 38, Type (0, 1), BuildingBlock: EZIPEK_clean_linker_0, # of connection points: 2
#     Edge 39, Type (0, 1), BuildingBlock: EZIPEK_clean_linker_0, # of connection points: 2
#     Edge 40, Type (0, 1), BuildingBlock: EZIPEK_clean_linker_0, # of connection points: 2
#     Edge 41, Type (0, 1), BuildingBlock: EZIPEK_clean_linker_0, # of connection points: 2
#     Edge 42, Type (0, 1), BuildingBlock: EZIPEK_clean_linker_0, # of connection points: 2
#     Edge 43, Type (0, 1), BuildingBlock: EZIPEK_clean_linker_0, # of connection points: 2
#     Edge 44, Type (0, 1), BuildingBlock: EZIPEK_clean_linker_0, # of connection points: 2
#     Edge 45, Type (0, 1), BuildingBlock: EZIPEK_clean_linker_0, # of connection points: 2
#     Edge 46, Type (0, 1), BuildingBlock: EZIPEK_clean_linker_0, # of connection points: 2
#     Edge 47, Type (0, 1), BuildingBlock: EZIPEK_clean_linker_0, # of connection points: 2
# Relax obj value: 0.171
# Max RMSD: 0.175
# Mean RMSD: 0.146
data_MOF--net-wbl--node1-QUQFOY_clean_sbu_3--node2-NAWXER_clean_linker_0--edge1-EZIPEK_clean_linker_0
_symmetry_space_group_name_H-M    P1
_symmetry_Int_Tables_number       1
_symmetry_cell_setting            triclinic
loop_
_symmetry_equiv_pos_as_xyz
'x, y, z'
_cell_length_a     35.72714
_cell_length_b     36.649754
_cell_length_c     61.197446
_cell_angle_alpha  90.547357
_cell_angle_beta   90.250136
_cell_angle_gamma 90.039266
loop_
_atom_site_label
_atom_site_type_symbol
_atom_site_fract_x
_atom_site_fract_y
_atom_site_fract_z
_atom_type_partial_charge
C0 C 0.11733 0.91859 0.36283 0.0
C1 C 0.13071 0.93325 0.38266 0.0
C2 C 0.10037 0.9413 0.34742 0.0
C3 C 0.09792 0.97919 0.35127 0.0
C4 C 0.12944 0.97108 0.38617 0.0
C5 C 0.11333 -0.0062 0.37061 0.0
C6 C 0.07507 0.00326 0.33711 0.0
C7 C 0.16409 0.95614 0.29622 0.0
C8 C 0.15065 0.92913 0.28184 0.0
C9 C 0.13947 0.98087 0.3059 0.0
C10 C 0.10092 0.97868 0.30152 0.0
C11 C 0.11243 0.92806 0.27648 0.0
C12 C 0.08767 0.95295 0.28618 0.0
C13 C 0.0745 0.00164 0.31404 0.0
C14 C 0.96724 0.12513 0.29305 0.0
C15 C 0.9402 0.10609 0.28074 0.0
C16 C -0.00315 0.10622 0.30277 0.0
C17 C -0.00039 0.06814 0.30026 0.0
C18 C 0.94466 0.06857 0.27686 0.0
C19 C 0.97433 0.04975 0.28644 0.0
C20 C 0.02622 0.04674 0.31347 0.0
C21 C 0.94072 0.09211 0.36191 0.0
C22 C 0.95581 0.10591 0.38156 0.0
C23 C 0.96378 0.07429 0.34676 0.0
C24 C 0.00267 0.07211 0.35035 0.0
C25 C -0.00536 0.10448 0.38491 0.0
C26 C 0.0178 0.08814 0.36939 0.0
C27 C 0.02744 0.04895 0.33657 0.0
H28 H 0.11814 0.88942 0.35986 0.0
H29 H 0.08762 0.92891 0.3331 0.0
H30 H 0.13975 -0.0171 0.40134 0.0
H31 H 0.11168 0.02281 0.37408 0.0
H32 H 0.19355 0.95734 0.30047 0.0
H33 H 0.15034 0.00093 0.31739 0.0
H34 H 0.1017 0.90727 0.26541 0.0
H35 H 0.05804 0.95099 0.28253 0.0
H36 H 0.96425 0.15415 0.29607 0.0
H37 H 0.01648 0.12097 0.31311 0.0
H38 H 0.92411 0.05356 0.26728 0.0
H39 H 0.97617 0.02044 0.28417 0.0
H40 H 0.9108 0.09292 0.35903 0.0
H41 H 0.9508 0.06079 0.33289 0.0
H42 H 0.00694 0.11496 0.39992 0.0
H43 H 0.04757 0.08666 0.37275 0.0
N44 N 0.0518 0.02706 0.34728 0.0
N45 N 0.04972 0.02304 0.30307 0.0
C46 C 0.88246 0.46539 0.61672 0.0
C47 C 0.89802 0.45364 0.63654 0.0
C48 C 0.90412 0.4858 0.60221 0.0
C49 C 0.94159 0.49429 0.60735 0.0
C50 C 0.9353 0.46211 0.64162 0.0
C51 C 0.95682 0.48237 0.62722 0.0
C52 C 0.96502 0.51694 0.59291 0.0
C53 C 0.94181 0.41307 0.55699 0.0
C54 C 0.92687 0.41627 0.53586 0.0
C55 C 0.95599 0.44355 0.56798 0.0
C56 C 0.95385 0.47832 0.55855 0.0
C57 C 0.92623 0.45062 0.5259 0.0
C58 C 0.93933 0.48147 0.53725 0.0
C59 C 0.96918 0.51084 0.57014 0.0
C60 C 0.08335 0.6006 0.53104 0.0
C61 C 0.079 0.63821 0.53471 0.0
C62 C 0.05886 0.57589 0.54085 0.0
C63 C 0.03032 0.58868 0.55464 0.0
C64 C 0.04889 0.65097 0.54722 0.0
C65 C 0.02462 0.62639 0.55706 0.0
C66 C 0.009 0.56305 0.56826 0.0
C67 C 0.03896 0.63222 0.63577 0.0
C68 C 0.07774 0.63323 0.63241 0.0
C69 C 0.01591 0.61207 0.62166 0.0
C70 C 0.03126 0.59276 0.60391 0.0
C71 C 0.09307 0.61522 0.61423 0.0
C72 C 0.07007 0.59476 0.60022 0.0
C73 C 0.00739 0.56706 0.59119 0.0
H74 H 0.85361 0.45913 0.61266 0.0
H75 H 0.89156 0.4953 0.58716 0.0
H76 H 0.94764 0.45326 0.65688 0.0
H77 H 0.98555 0.48868 0.63159 0.0
H78 H 0.94329 0.38669 0.5648 0.0
H79 H 0.96912 0.43963 0.58375 0.0
H80 H 0.91548 0.45351 0.50943 0.0
H81 H 0.9382 0.50778 0.52936 0.0
H82 H 0.10659 0.59042 0.52145 0.0
H83 H 0.06361 0.54687 0.53878 0.0
H84 H 0.04522 0.67994 0.55017 0.0
H85 H 0.00243 0.63677 0.5674 0.0
H86 H 0.02675 0.64587 0.64981 0.0
H87 H 0.98619 0.61065 0.62498 0.0
H88 H 0.12303 0.61549 0.61155 0.0
H89 H 0.08295 0.57913 0.58719 0.0
N90 N 0.98488 0.54433 0.6025 0.0
N91 N -0.00953 0.5347 0.5586 0.0
C92 C 0.55224 0.39046 0.86766 0.0
C93 C 0.57041 0.40634 0.88577 0.0
C94 C 0.5337 0.41256 0.85253 0.0
C95 C 0.53349 0.45074 0.85529 0.0
C96 C 0.57107 0.44438 0.88818 0.0
C97 C 0.55265 0.46638 0.87313 0.0
C98 C 0.51042 0.47452 0.84119 0.0
C99 C 0.60093 0.43138 0.79938 0.0
C100 C 0.58892 0.40543 0.78392 0.0
C101 C 0.57507 0.45334 0.81019 0.0
C102 C 0.53664 0.44951 0.80588 0.0
C103 C 0.55061 0.40204 0.7791 0.0
C104 C 0.52456 0.42427 0.78992 0.0
C105 C 0.50957 0.47206 0.81816 0.0
C106 C 0.41557 0.60313 0.79531 0.0
C107 C 0.38571 0.58725 0.78368 0.0
C108 C 0.44224 0.58101 0.80539 0.0
C109 C 0.43937 0.54284 0.80383 0.0
C110 C 0.38428 0.54923 0.78091 0.0
C111 C 0.41116 0.52713 0.79081 0.0
C112 C 0.46365 0.51925 0.81715 0.0
C113 C 0.38356 0.57416 0.86503 0.0
C114 C 0.40142 0.59177 0.8827 0.0
C115 C 0.40424 0.5523 0.8506 0.0
C116 C 0.4432 0.5487 0.85331 0.0
C117 C 0.44034 0.58897 0.88503 0.0
C118 C 0.46101 0.56766 0.87048 0.0
C119 C 0.4654 0.52241 0.84016 0.0
H120 H 0.55139 0.36108 0.86567 0.0
H121 H 0.51839 0.39976 0.83921 0.0
H122 H 0.58497 0.45698 0.9021 0.0
H123 H 0.55275 0.49568 0.87567 0.0
H124 H 0.63043 0.43438 0.80322 0.0
H125 H 0.58508 0.47322 0.82207 0.0
H126 H 0.54099 0.38206 0.76719 0.0
H127 H 0.49503 0.42118 0.78626 0.0
H128 H 0.41709 0.63246 0.79751 0.0
H129 H 0.46418 0.59359 0.81514 0.0
H130 H 0.36142 0.53662 0.77192 0.0
H131 H 0.40869 0.49774 0.78934 0.0
H132 H 0.35347 0.57597 0.86306 0.0
H133 H 0.38954 0.53712 0.83796 0.0
H134 H 0.45457 0.60236 0.89857 0.0
H135 H 0.49094 0.56518 0.87301 0.0
N136 N 0.48862 0.49981 0.85119 0.0
N137 N 0.48581 0.49418 0.80694 0.0
C138 C 0.4732 0.88991 0.03748 0.0
C139 C 0.43435 0.88816 0.04071 0.0
C140 C 0.49393 0.91902 0.04613 0.0
C141 C 0.4762 0.94628 0.05853 0.0
C142 C 0.41641 0.91617 0.05242 0.0
C143 C 0.43722 0.94499 0.06134 0.0
C144 C 0.49868 0.97544 0.06894 0.0
C145 C 0.43702 0.9582 0.13941 0.0
C146 C 0.44798 0.922 0.14306 0.0
C147 C 0.45139 0.97729 0.1217 0.0
C148 C 0.47609 0.96016 0.10711 0.0
C149 C 0.47108 0.90421 0.12783 0.0
C150 C 0.48496 0.92317 0.10987 0.0
C151 C 0.49731 -0.01745 0.0916 0.0
C152 C 0.57812 0.09667 0.13024 0.0
C153 C 0.61673 0.09597 0.1263 0.0
C154 C 0.55366 0.07683 0.11682 0.0
C155 C 0.56738 0.05609 0.09918 0.0
C156 C 0.63047 0.07683 0.10807 0.0
C157 C 0.60602 0.05669 0.09474 0.0
C158 C 0.54203 0.03015 0.08769 0.0
C159 C 0.61474 0.05874 0.02534 0.0
C160 C 0.60855 0.09649 0.02694 0.0
C161 C 0.5917 0.0346 0.03673 0.0
C162 C 0.56302 0.04822 0.05012 0.0
C163 C 0.57844 0.10977 0.03925 0.0
C164 C 0.55585 0.08583 0.05078 0.0
C165 C 0.54242 0.02396 0.06488 0.0
H166 H 0.4875 0.86843 0.02856 0.0
H167 H 0.52396 0.91962 0.04377 0.0
H168 H 0.38644 0.9153 0.055 0.0
H169 H 0.42297 0.9661 0.0706 0.0
H170 H 0.41926 0.97231 0.15104 0.0
H171 H 0.44455 0.00591 0.11991 0.0
H172 H 0.47991 0.87632 0.13048 0.0
H173 H 0.50451 0.90967 0.099 0.0
H174 H 0.56711 0.11126 0.14429 0.0
H175 H 0.5241 0.07659 0.1207 0.0
H176 H 0.66027 0.07584 0.10493 0.0
H177 H 0.61768 0.04001 0.08178 0.0
H178 H 0.63807 0.04821 0.01597 0.0
H179 H 0.59754 0.00561 0.03607 0.0
H180 H 0.57344 0.13886 0.04067 0.0
H181 H 0.53359 0.09675 0.06088 0.0
N182 N 0.52111 -0.00347 0.05628 0.0
N183 N 0.51914 0.00944 0.10009 0.0
C184 C 0.05603 0.63099 0.88659 0.0
C185 C 0.07329 0.61521 0.86824 0.0
C186 C 0.03792 0.60883 0.90178 0.0
C187 C 0.03727 0.57069 0.89883 0.0
C188 C 0.0736 0.5772 0.86568 0.0
C189 C 0.05563 0.55514 0.88079 0.0
C190 C 0.0144 0.54691 0.91292 0.0
C191 C 0.10628 0.58908 0.95475 0.0
C192 C 0.09471 0.61429 0.97068 0.0
C193 C 0.08011 0.56757 0.94371 0.0
C194 C 0.04182 0.57118 0.94827 0.0
C195 C 0.05654 0.6175 0.9757 0.0
C196 C 0.03019 0.59574 0.96464 0.0
C197 C 0.01436 0.5489 0.93597 0.0
C198 C 0.91996 0.41787 0.95804 0.0
C199 C 0.89052 0.43361 0.96993 0.0
C200 C 0.94662 0.44012 0.94817 0.0
C201 C 0.94415 0.47826 0.95021 0.0
C202 C 0.8896 0.47153 0.97323 0.0
C203 C 0.91648 0.49375 0.96355 0.0
C204 C 0.96804 0.50208 0.93693 0.0
C205 C 0.88465 0.44988 0.8897 0.0
C206 C 0.90128 0.43195 0.87185 0.0
C207 C 0.90648 0.47128 0.9039 0.0
C208 C 0.94537 0.4741 0.90076 0.0
C209 C 0.94011 0.43417 0.86899 0.0
C210 C 0.96193 0.45505 0.8833 0.0
C211 C 0.96874 0.49958 0.91389 0.0
H212 H 0.05548 0.66036 0.88869 0.0
H213 H 0.02322 0.62156 0.91527 0.0
H214 H 0.08682 0.56468 0.85158 0.0
H215 H 0.05538 0.52587 0.87812 0.0
H216 H 0.13567 0.58623 0.95078 0.0
H217 H 0.08978 0.54817 0.93153 0.0
H218 H 0.04727 0.63692 0.98798 0.0
H219 H 0.00077 0.59863 0.9685 0.0
H220 H 0.92108 0.38861 0.95544 0.0
H221 H 0.96815 0.42771 0.93815 0.0
H222 H 0.86708 0.48401 0.98244 0.0
H223 H 0.91433 0.52311 0.96538 0.0
H224 H 0.85465 0.44855 0.89205 0.0
H225 H 0.89274 0.48661 0.91676 0.0
H226 H 0.95338 0.42053 0.85528 0.0
H227 H -0.00822 0.457 0.88044 0.0
N228 N -0.00815 0.52214 0.90287 0.0
N229 N -0.00917 0.5267 0.94718 0.0
C230 C 0.38411 0.54292 0.13694 0.0
C231 C 0.39985 0.55445 0.11719 0.0
C232 C 0.40552 0.52237 0.1516 0.0
C233 C 0.44285 0.51345 0.14662 0.0
C234 C 0.43676 0.54496 0.11211 0.0
C235 C 0.458 0.52451 0.12663 0.0
C236 C 0.46674 0.49233 0.16171 0.0
C237 C 0.44493 0.59956 0.19459 0.0
C238 C 0.43282 0.59851 0.21635 0.0
C239 C 0.45748 0.56797 0.18415 0.0
C240 C 0.45615 0.53412 0.19477 0.0
C241 C 0.43204 0.56497 0.22723 0.0
C242 C 0.44334 0.53298 0.21645 0.0
C243 C 0.47161 0.50076 0.1842 0.0
C244 C 0.59364 0.42041 0.22349 0.0
C245 C 0.59039 0.38234 0.2216 0.0
C246 C 0.56693 0.44296 0.21367 0.0
C247 C 0.53738 0.42754 0.20151 0.0
C248 C 0.55935 0.36706 0.21083 0.0
C249 C 0.53303 0.38949 0.20083 0.0
C250 C 0.51381 0.45058 0.1874 0.0
C251 C 0.54635 0.37967 0.12101 0.0
C252 C 0.58522 0.38286 0.12362 0.0
C253 C 0.52223 0.39792 0.1353 0.0
C254 C 0.53664 0.41945 0.15248 0.0
C255 C 0.59976 0.40274 0.14141 0.0
C256 C 0.57566 0.42127 0.15559 0.0
C257 C 0.51137 0.44433 0.16467 0.0
H258 H 0.35552 0.54997 0.14098 0.0
H259 H 0.39307 0.51357 0.16677 0.0
H260 H 0.44921 0.55361 0.09689 0.0
H261 H 0.48664 0.51787 0.12239 0.0
H262 H 0.44643 0.62528 0.18604 0.0
H263 H 0.46937 0.57049 0.16801 0.0
H264 H 0.42337 0.56371 0.24415 0.0
H265 H 0.44278 0.50743 0.22521 0.0
H266 H 0.61761 0.43252 0.23167 0.0
H267 H 0.57073 0.47228 0.2143 0.0
H268 H 0.55657 0.33771 0.2092 0.0
H269 H 0.51024 0.37713 0.19165 0.0
H270 H 0.53474 0.36457 0.10726 0.0
H271 H 0.49233 0.39646 0.1324 0.0
H272 H 0.62974 0.40573 0.14349 0.0
H273 H 0.58773 0.43875 0.1681 0.0
N274 N 0.48738 0.46493 0.15285 0.0
N275 N 0.49443 0.47895 0.19631 0.0
C276 C 0.44109 0.91057 0.40057 0.0
C277 C 0.42582 0.91845 0.38001 0.0
C278 C 0.45914 0.93798 0.41268 0.0
C279 C 0.46138 0.97373 0.40456 0.0
C280 C 0.42686 0.95429 0.37224 0.0
C281 C 0.4446 -0.01831 0.38439 0.0
C282 C 0.48492 0.00175 0.41549 0.0
C283 C 0.39099 0.9744 0.45778 0.0
C284 C 0.40217 0.95144 0.47477 0.0
C285 C 0.41743 -0.00488 0.44674 0.0
C286 C 0.45547 -0.00719 0.45239 0.0
C287 C 0.43979 0.95085 0.48144 0.0
C288 C 0.46636 0.97167 0.47035 0.0
C289 C 0.48393 0.00929 0.43815 0.0
C290 C 0.58849 0.11758 0.46979 0.0
C291 C 0.62577 0.10793 0.46545 0.0
C292 C 0.55917 0.09797 0.45997 0.0
C293 C 0.56697 0.06914 0.44542 0.0
C294 C 0.63344 0.07866 0.45128 0.0
C295 C 0.60429 0.05934 0.44139 0.0
C296 C 0.53645 0.04882 0.43448 0.0
C297 C 0.59879 0.05761 0.36324 0.0
C298 C 0.60407 0.09548 0.36375 0.0
C299 C 0.57754 0.04073 0.3793 0.0
C300 C 0.56145 0.06139 0.39625 0.0
C301 C 0.58892 0.11626 0.38094 0.0
C302 C 0.56757 0.09932 0.39707 0.0
C303 C 0.53566 0.04326 0.41161 0.0
H304 H 0.4407 0.88293 0.40668 0.0
H305 H 0.47284 0.9308 0.42786 0.0
H306 H 0.41525 0.96071 0.35635 0.0
H307 H 0.44623 0.00892 0.37772 0.0
H308 H 0.36199 0.97519 0.45254 0.0
H309 H 0.40843 0.01168 0.43312 0.0
H310 H 0.44871 0.9332 0.49456 0.0
H311 H 0.49559 0.96962 0.47495 0.0
H312 H 0.58223 0.14019 0.4807 0.0
H313 H 0.5305 0.10571 0.46336 0.0
H314 H 0.66207 0.07086 0.44783 0.0
H315 H 0.6109 0.0367 0.43057 0.0
H316 H 0.61028 0.04126 0.35004 0.0
H317 H 0.57312 0.01151 0.37826 0.0
H318 H 0.59264 0.14559 0.38143 0.0
H319 H 0.55475 0.116 0.40967 0.0
N320 N 0.51027 0.01953 0.40309 0.0
N321 N 0.51019 0.03206 0.44696 0.0
C322 C 0.14027 0.96039 0.64378 0.0
C323 C 0.12478 0.94298 0.62533 0.0
C324 C 0.1173 0.98044 0.65794 0.0
C325 C 0.07864 -0.01688 0.65379 0.0
C326 C 0.08614 0.9448 0.62154 0.0
C327 C 0.06328 0.96487 0.63559 0.0
C328 C 0.05451 0.00775 0.6668 0.0
C329 C 0.08913 0.91736 0.71011 0.0
C330 C 0.11299 0.9285 0.72713 0.0
C331 C 0.06906 0.94314 0.69826 0.0
C332 C 0.0729 0.9805 0.70312 0.0
C333 C 0.11609 0.96567 0.73252 0.0
C334 C 0.09594 -0.00844 0.72062 0.0
C335 C 0.05301 0.00787 0.68986 0.0
C336 C 0.93924 0.10293 0.72577 0.0
C337 C 0.94437 0.13983 0.72062 0.0
C338 C 0.96202 0.07622 0.71617 0.0
C339 C -0.01044 0.0862 0.70105 0.0
C340 C 0.97294 0.14984 0.70623 0.0
C341 C -0.00458 0.12324 0.69654 0.0
C342 C 0.01061 0.05804 0.6889 0.0
C343 C 0.98051 0.11461 0.6184 0.0
C344 C 0.94183 0.11716 0.62172 0.0
C345 C 0.00299 0.09614 0.63334 0.0
C346 C 0.98716 0.08013 0.65189 0.0
C347 C 0.92597 0.10234 0.6406 0.0
C348 C 0.94846 0.08365 0.65552 0.0
C349 C 0.01073 0.05663 0.66585 0.0
H350 H 0.17015 0.95938 0.64678 0.0
H351 H 0.12991 -0.00504 0.67161 0.0
H352 H 0.07386 0.93161 0.6073 0.0
H353 H 0.03362 0.96676 0.632 0.0
H354 H 0.08627 0.8887 0.70592 0.0
H355 H 0.0507 0.93391 0.6852 0.0
H356 H 0.13432 0.97455 0.74572 0.0
H357 H 0.099 0.02022 0.72474 0.0
H358 H 0.91722 0.09484 0.73683 0.0
H359 H 0.95715 0.04776 0.71982 0.0
H360 H 0.97725 0.17823 0.70214 0.0
H361 H 0.01681 0.13148 0.68511 0.0
H362 H -0.00691 0.12584 0.60386 0.0
H363 H 0.03267 0.09357 0.63012 0.0
H364 H 0.89606 0.10393 0.64327 0.0
H365 H 0.93534 0.07067 0.66934 0.0
N366 N 0.03299 0.03183 0.65574 0.0
N367 N 0.03142 0.03335 0.70014 0.0
C368 C 0.35983 0.63553 0.0428 0.0
O369 O 0.39045 0.63695 0.03241 0.0
Cd370 Cd 0.39855 0.66522 -0.00224 0.0
O371 O 0.32995 0.64954 0.03513 0.0
Cd372 Cd 0.31186 0.68191 0.00098 0.0
C373 C 0.37149 0.75174 0.0116 0.0
O374 O 0.34734 0.64327 0.97617 0.0
O375 O 0.32204 0.69058 0.96143 0.0
O376 O 0.25457 0.64683 0.00116 0.0
C377 C 0.33965 0.66082 0.95902 0.0
O378 O 0.39762 0.73049 0.0055 0.0
C379 C 0.23279 0.67382 -0.00124 0.0
O380 O 0.3377 0.74089 0.01261 0.0
O381 O 0.24749 0.7054 -0.00116 0.0
C382 C 0.41639 0.85377 0.22586 0.0
O383 O 0.44432 0.84663 0.238 0.0
Cd384 Cd 0.44004 0.8197 0.2734 0.0
O385 O 0.38316 0.84656 0.23195 0.0
Cd386 Cd 0.35327 0.81787 0.26406 0.0
C387 C 0.40225 0.73986 0.25554 0.0
O388 O 0.38992 0.85029 0.29125 0.0
O389 O 0.35582 0.80654 0.30386 0.0
O390 O 0.30505 0.86338 0.2596 0.0
C391 C 0.37634 0.83417 0.30759 0.0
O392 O 0.42873 0.75549 0.266 0.0
C393 C 0.27768 0.84174 0.26189 0.0
O394 O 0.37212 0.75689 0.25109 0.0
O395 O 0.28508 0.80794 0.26354 0.0
C396 C 0.17277 0.86331 0.46277 0.0
O397 O 0.14763 0.86549 0.47717 0.0
Cd398 Cd 0.19081 0.84728 0.50568 0.0
O399 O 0.20409 0.8504 0.46864 0.0
Cd400 Cd 0.20412 0.83094 0.50984 0.0
C401 C 0.27584 0.86708 0.50122 0.0
O402 O 0.16638 0.87432 0.53518 0.0
O403 O 0.21743 0.85181 0.54828 0.0
O404 O 0.15317 0.78668 0.50603 0.0
C405 C 0.18827 0.87094 0.5513 0.0
O406 O 0.24639 0.8861 0.50007 0.0
C407 C 0.17205 0.75993 0.5131 0.0
O408 O 0.27238 0.83357 0.50565 0.0
O409 O 0.20639 0.76554 0.5175 0.0
C410 C 0.13616 0.66507 0.78921 0.0
O411 O 0.13391 0.63718 0.77684 0.0
Cd412 Cd 0.16048 0.63345 0.74133 0.0
O413 O 0.15141 0.69454 0.7828 0.0
Cd414 Cd 0.18039 0.71824 0.74853 0.0
C415 C 0.25073 0.65764 0.75516 0.0
O416 O 0.13835 0.68698 0.72353 0.0
O417 O 0.18503 0.71353 0.70809 0.0
O418 O 0.14654 0.77409 0.75672 0.0
C419 C 0.15459 0.69604 0.70609 0.0
O420 O 0.22755 0.63315 0.74909 0.0
C421 C 0.17384 0.79566 0.75375 0.0
O422 O 0.24111 0.69098 0.75675 0.0
O423 O 0.2045 0.78084 0.7482 0.0
C424 C 0.88133 0.14525 0.46146 0.0
O425 O 0.88019 0.11748 0.47367 0.0
Cd426 Cd 0.85233 0.11743 0.50872 0.0
O427 O 0.87002 0.17627 0.46842 0.0
Cd428 Cd 0.84804 0.20264 0.50421 0.0
C429 C 0.76771 0.15802 0.49609 0.0
O430 O 0.88486 0.16399 0.52837 0.0
O431 O 0.84041 0.19449 0.54386 0.0
O432 O 0.89113 0.25217 0.49564 0.0
C433 C 0.86914 0.17459 0.5458 0.0
O434 O 0.78626 0.12985 0.5015 0.0
C435 C 0.87227 0.27674 0.50531 0.0
O436 O 0.78315 0.18925 0.49511 0.0
O437 O 0.84057 0.2674 0.5127 0.0
C438 C 0.85403 0.38107 0.71293 0.0
O439 O 0.8841 0.38259 0.72401 0.0
Cd440 Cd 0.89269 0.35836 0.75967 0.0
O441 O 0.82448 0.36647 0.72056 0.0
Cd442 Cd 0.80584 0.3376 0.75575 0.0
C443 C 0.86858 0.26957 0.74813 0.0
O444 O 0.83985 0.37894 0.77978 0.0
O445 O 0.81613 0.33179 0.79549 0.0
O446 O 0.74812 0.37181 0.7543 0.0
C447 C 0.83312 0.36205 0.79728 0.0
O448 O 0.89353 0.29275 0.75359 0.0
C449 C 0.72662 0.34474 0.75713 0.0
O450 O 0.83419 0.27847 0.74677 0.0
O451 O 0.74166 0.31335 0.75778 0.0
C452 C 0.63737 0.35721 0.96408 0.0
O453 O 0.63687 0.38574 0.97599 0.0
Cd454 Cd 0.66509 0.39115 0.0112 0.0
O455 O 0.65216 0.32766 0.97076 0.0
Cd456 Cd 0.68323 0.30625 0.00508 0.0
C457 C 0.75445 0.36543 0.99757 0.0
O458 O 0.64397 0.33912 0.03074 0.0
O459 O 0.69273 0.31345 0.04491 0.0
O460 O 0.64732 0.25041 0.00391 0.0
C461 C 0.66218 0.33039 0.04769 0.0
O462 O 0.73193 0.39046 0.00351 0.0
C463 C 0.67525 0.22909 0.00426 0.0
O464 O 0.7441 0.33226 0.99612 0.0
O465 O 0.70753 0.24355 0.00354 0.0
C466 C 0.67743 0.13396 0.28447 0.0
O467 O 0.6839 0.10456 0.27404 0.0
Cd468 Cd 0.71286 0.10235 0.23896 0.0
O469 O 0.68536 0.16492 0.27639 0.0
Cd470 Cd 0.71147 0.1886 0.24158 0.0
C471 C 0.79432 0.14739 0.25154 0.0
O472 O 0.67961 0.14581 0.21737 0.0
O473 O 0.72115 0.17984 0.20193 0.0
O474 O 0.6626 0.23411 0.24242 0.0
C475 C 0.69466 0.15697 0.19997 0.0
O476 O 0.77796 0.11771 0.24633 0.0
C477 C 0.68409 0.26141 0.24049 0.0
O478 O 0.77674 0.17758 0.25201 0.0
O479 O 0.7191 0.2553 0.24021 0.0
C480 C 0.18719 0.87253 0.28872 0.0
C481 C 0.17678 0.90047 0.27408 0.0
C482 C 0.22464 0.87971 0.2483 0.0
C483 C 0.23941 0.85654 0.26464 0.0
N484 N 0.23636 0.83257 0.30132 0.0
N485 N 0.18485 0.93142 0.23989 0.0
C486 C 0.2207 0.85271 0.28495 0.0
C487 C 0.19491 0.90394 0.25366 0.0
N488 N 0.16515 0.86532 0.30638 0.0
N489 N 0.23905 0.87823 0.22766 0.0
H490 H 0.16242 0.94888 0.24307 0.0
H491 H 0.19982 0.93819 0.22595 0.0
H492 H 0.26051 0.86028 0.22332 0.0
H493 H 0.22758 0.89209 0.21445 0.0
H494 H 0.16919 0.84297 0.3165 0.0
H495 H 0.14061 0.87974 0.3097 0.0
H496 H 0.22652 0.83284 0.31732 0.0
H497 H 0.26091 0.81758 0.29954 0.0
C498 C 0.13311 0.67854 0.54366 0.0
C499 C 0.10795 0.6645 0.52771 0.0
C500 C 0.13305 0.70679 0.50073 0.0
C501 C 0.15358 0.72468 0.51762 0.0
N502 N 0.16938 0.73043 0.55602 0.0
N503 N 0.08213 0.6656 0.49131 0.0
C504 C 0.15314 0.71104 0.53928 0.0
C505 C 0.10765 0.67844 0.5062 0.0
N506 N 0.13771 0.66077 0.56303 0.0
N507 N 0.13843 0.71653 0.47947 0.0
H508 H 0.06385 0.64418 0.49464 0.0
H509 H 0.07751 0.67755 0.47617 0.0
H510 H 0.15734 0.73679 0.47496 0.0
H511 H 0.12691 0.70238 0.46623 0.0
H512 H 0.15835 0.66763 0.57443 0.0
H513 H 0.1233 0.63688 0.56679 0.0
H514 H 0.16587 0.72397 0.57242 0.0
H515 H 0.18364 0.75492 0.55387 0.0
C516 C 0.32803 0.62368 0.79187 0.0
C517 C 0.35382 0.60993 0.77624 0.0
C518 C 0.31384 0.6316 0.74641 0.0
C519 C 0.28857 0.64605 0.76208 0.0
N520 N 0.27568 0.66362 0.79944 0.0
N521 N 0.3757 0.60693 0.73911 0.0
C522 C 0.29717 0.64485 0.78472 0.0
C523 C 0.34808 0.61583 0.75361 0.0
N524 N 0.33169 0.61462 0.81342 0.0
N525 N 0.30471 0.63239 0.72471 0.0
H526 H 0.40108 0.59541 0.74396 0.0
H527 H 0.37486 0.61361 0.72263 0.0
H528 H 0.281 0.64577 0.71881 0.0
H529 H 0.31958 0.61848 0.71265 0.0
H530 H 0.31132 0.62006 0.82512 0.0
H531 H 0.3536 0.59881 0.81943 0.0
H532 H 0.28294 0.6669 0.81584 0.0
H533 H 0.25229 0.67881 0.795 0.0
C534 C 0.40862 0.84859 0.01017 0.0
C535 C 0.41304 0.85568 0.03287 0.0
C536 C 0.38472 0.79666 0.04167 0.0
C537 C 0.38147 0.78901 0.01894 0.0
N538 N 0.38361 0.80874 0.98159 0.0
N539 N 0.40163 0.84156 0.06996 0.0
C540 C 0.39142 0.81539 0.00317 0.0
C541 C 0.39948 0.83102 0.04856 0.0
N542 N 0.42126 0.87354 0.99545 0.0
N543 N 0.37528 0.77041 0.05643 0.0
H544 H 0.39117 0.8269 0.08309 0.0
H545 H 0.39117 0.8269 0.08309 0.0
H546 H 0.36307 0.74564 0.05185 0.0
H547 H 0.3806 0.77205 0.07311 0.0
H548 H 0.42281 0.86883 0.9787 0.0
H549 H 0.43136 0.89917 0.00013 0.0
H550 H 0.38743 0.82758 0.9692 0.0
H551 H 0.37075 0.78475 0.9761 0.0
C552 C 0.13899 0.62765 0.00171 0.0
C553 C 0.12338 0.63772 0.98132 0.0
C554 C 0.17601 0.67862 0.97446 0.0
C555 C 0.19243 0.66764 0.99457 0.0
N556 N 0.18493 0.64089 0.03004 0.0
N557 N 0.12019 0.6803 0.95175 0.0
C558 C 0.17222 0.64521 0.00913 0.0
C559 C 0.13955 0.66604 0.96897 0.0
N560 N 0.12327 0.59998 0.01334 0.0
N561 N 0.19618 0.6984 0.95977 0.0
H562 H 0.09348 0.67122 0.94734 0.0
H563 H 0.12889 0.7033 0.94328 0.0
H564 H 0.22314 0.70803 0.96278 0.0
H565 H 0.18723 0.70307 0.94382 0.0
H566 H 0.13588 0.58835 0.02697 0.0
H567 H 0.09833 0.58726 0.00865 0.0
H568 H 0.16992 0.62738 0.04206 0.0
H569 H 0.20895 0.65402 0.0359 0.0
C570 C 0.38846 0.64114 0.2363 0.0
C571 C 0.42474 0.63334 0.22807 0.0
C572 C 0.44369 0.69626 0.23528 0.0
C573 C 0.4092 0.70306 0.24604 0.0
N574 N 0.3515 0.67916 0.26059 0.0
N575 N 0.48981 0.65085 0.22586 0.0
C576 C 0.38226 0.67469 0.24767 0.0
C577 C 0.45331 0.66007 0.22956 0.0
N578 N 0.35965 0.61734 0.23259 0.0
N579 N 0.46638 0.72444 0.22921 0.0
H580 H 0.49829 0.62417 0.22244 0.0
H581 H 0.51191 0.66893 0.22864 0.0
H582 H 0.45912 0.75181 0.23122 0.0
H583 H 0.49017 0.72062 0.21965 0.0
H584 H 0.33191 0.62348 0.23631 0.0
H585 H 0.36292 0.59283 0.22403 0.0
H586 H 0.33291 0.65806 0.26396 0.0
H587 H 0.34659 0.70285 0.2697 0.0
C588 C 0.36534 0.89375 0.47218 0.0
C589 C 0.37452 0.92593 0.4841 0.0
C590 C 0.32523 0.91279 0.51054 0.0
C591 C 0.31253 0.88391 0.49679 0.0
N592 N 0.31816 0.84831 0.46356 0.0
N593 N 0.36322 0.96747 0.51408 0.0
C594 C 0.33228 0.87432 0.47751 0.0
C595 C 0.35475 0.93565 0.50331 0.0
N596 N 0.38828 0.88191 0.45575 0.0
N597 N 0.30928 0.91791 0.5306 0.0
H598 H 0.38545 -0.01577 0.50959 0.0
H599 H 0.34705 0.97836 0.52665 0.0
H600 H 0.2878 0.90132 0.53639 0.0
H601 H 0.31937 0.93631 0.54227 0.0
H602 H 0.38519 0.8568 0.44785 0.0
H603 H 0.41254 0.89579 0.45128 0.0
H604 H 0.32871 0.84338 0.44798 0.0
H605 H 0.29409 0.83328 0.46685 0.0
C606 C 0.17056 0.89014 0.731 0.0
C607 C 0.13491 0.90067 0.739 0.0
C608 C 0.13598 0.85019 0.76486 0.0
C609 C 0.1678 0.83603 0.75397 0.0
N610 N 0.22549 0.85239 0.73622 0.0
N611 N 0.08481 0.89381 0.76485 0.0
C612 C 0.18847 0.85904 0.73997 0.0
C613 C 0.11833 0.88207 0.75672 0.0
N614 N 0.18635 0.90873 0.71411 0.0
N615 N 0.12383 0.83362 0.78344 0.0
H616 H 0.07201 0.91787 0.75975 0.0
H617 H 0.06893 0.87925 0.776 0.0
H618 H 0.13833 0.81179 0.79032 0.0
H619 H 0.10227 0.84351 0.7932 0.0
H620 H 0.20982 0.89956 0.70566 0.0
H621 H 0.17468 0.93243 0.70768 0.0
H622 H 0.24259 0.86958 0.7272 0.0
H623 H 0.24048 0.83284 0.74484 0.0
C624 C 0.63356 0.35364 0.78655 0.0
C625 C 0.6173 0.38136 0.77368 0.0
C626 C 0.66582 0.37242 0.74607 0.0
C627 C 0.6862 0.35077 0.76106 0.0
N628 N 0.69021 0.32172 0.7964 0.0
N629 N 0.61683 0.41736 0.74096 0.0
C630 C 0.66994 0.34077 0.78133 0.0
C631 C 0.63268 0.39034 0.75313 0.0
N632 N 0.61436 0.34028 0.80401 0.0
N633 N 0.67832 0.3757 0.72511 0.0
H634 H 0.59194 0.43027 0.74539 0.0
H635 H 0.62927 0.42828 0.72713 0.0
H636 H 0.70226 0.36227 0.71953 0.0
H637 H 0.66321 0.3886 0.71282 0.0
H638 H 0.6231 0.31771 0.81289 0.0
H639 H 0.58773 0.34961 0.80822 0.0
H640 H 0.68144 0.31788 0.81242 0.0
H641 H 0.71708 0.31185 0.7936 0.0
C642 C 0.62935 0.13706 0.99672 0.0
C643 C 0.63539 0.12312 0.01792 0.0
C644 C 0.68088 0.17158 0.02588 0.0
C645 C 0.66932 0.18928 0.00644 0.0
N646 N 0.63778 0.18754 0.97165 0.0
N647 N 0.66833 0.12409 0.05231 0.0
C648 C 0.64555 0.17121 0.99115 0.0
C649 C 0.66236 0.13902 0.03218 0.0
N650 N 0.6076 0.11779 0.98224 0.0
N651 N 0.70883 0.18622 0.03854 0.0
H652 H 0.65669 0.09922 0.05692 0.0
H653 H 0.68349 0.13671 0.06482 0.0
H654 H 0.72242 0.21051 0.03491 0.0
H655 H 0.7209 0.17298 0.05177 0.0
H656 H 0.60332 0.12501 0.96603 0.0
H657 H 0.59549 0.09279 0.98616 0.0
H658 H 0.61794 0.17818 0.96046 0.0
H659 H 0.6514 0.21125 0.96669 0.0
C660 C 0.8761 0.13029 0.28906 0.0
C661 C 0.9051 0.12417 0.27364 0.0
C662 C 0.86258 0.13972 0.24361 0.0
C663 C 0.83361 0.14548 0.25902 0.0
N664 N 0.81432 0.15479 0.29636 0.0
N665 N 0.92903 0.13063 0.23719 0.0
C666 C 0.84103 0.14386 0.28176 0.0
C667 C 0.8993 0.13143 0.25116 0.0
N668 N 0.88124 0.12089 0.31045 0.0
N669 N 0.85459 0.14113 0.22177 0.0
H670 H 0.9562 0.12469 0.24239 0.0
H671 H 0.92753 0.13871 0.22096 0.0
H672 H 0.82844 0.14905 0.21579 0.0
H673 H 0.87314 0.13302 0.2096 0.0
H674 H 0.85979 0.12031 0.32189 0.0
H675 H 0.90649 0.11105 0.31657 0.0
H676 H 0.81931 0.15786 0.31305 0.0
H677 H 0.78788 0.16385 0.29162 0.0
C678 C 0.93932 0.35373 0.52106 0.0
C679 C 0.91379 0.38283 0.52415 0.0
C680 C 0.86405 0.34476 0.50833 0.0
C681 C 0.88776 0.31377 0.5097 0.0
N682 N 0.94683 0.28862 0.52245 0.0
N683 N 0.84989 0.4045 0.52323 0.0
C684 C 0.92531 0.31812 0.51717 0.0
C685 C 0.87559 0.37814 0.51829 0.0
N686 N 0.97698 0.36004 0.52202 0.0
N687 N 0.8309 0.3426 0.49719 0.0
H688 H 0.85686 0.42899 0.53103 0.0
H689 H 0.82116 0.4006 0.52134 0.0
H690 H 0.82238 0.31905 0.48884 0.0
H691 H 0.81413 0.36526 0.49417 0.0
H692 H -0.00327 0.34015 0.51804 0.0
H693 H -0.0118 0.38609 0.52441 0.0
H694 H 0.97302 0.29114 0.52989 0.0
H695 H 0.93716 0.26183 0.52207 0.0
C696 C 0.66894 0.12183 0.49698 0.0
C697 C 0.65755 0.12848 0.47516 0.0
C698 C 0.7165 0.15998 0.46785 0.0
C699 C 0.72804 0.15325 0.48969 0.0
N700 N 0.71185 0.13713 0.52652 0.0
N701 N 0.66502 0.16228 0.44193 0.0
C702 C 0.70302 0.13726 0.50476 0.0
C703 C 0.67953 0.15059 0.46135 0.0
N704 N 0.64833 0.0992 0.50986 0.0
N705 N 0.7415 0.17273 0.45288 0.0
H706 H 0.63794 0.15567 0.43676 0.0
H707 H 0.6783 0.18125 0.43205 0.0
H708 H 0.76908 0.17952 0.45672 0.0
H709 H 0.73579 0.17389 0.4362 0.0
H710 H 0.65755 0.08982 0.52497 0.0
H711 H 0.62291 0.08783 0.50486 0.0
H712 H 0.69333 0.12888 0.5386 0.0
H713 H 0.7365 0.1487 0.53266 0.0
C714 C 0.89323 0.18505 0.71468 0.0
C715 C 0.9189 0.16841 0.72923 0.0
C716 C 0.90118 0.21183 0.758 0.0
C717 C 0.88085 0.23219 0.74233 0.0
N718 N 0.85985 0.24004 0.70505 0.0
N719 N 0.94918 0.16646 0.7645 0.0
C720 C 0.87689 0.21904 0.72054 0.0
C721 C 0.92304 0.18159 0.75096 0.0
N722 N 0.88458 0.16827 0.69525 0.0
N723 N 0.8992 0.22132 0.77962 0.0
H724 H 0.96539 0.14398 0.76002 0.0
H725 H 0.95658 0.17763 0.77962 0.0
H726 H 0.88296 0.24311 0.78524 0.0
H727 H 0.91056 0.20565 0.7921 0.0
H728 H 0.86341 0.17725 0.68486 0.0
H729 H 0.89616 0.1433 0.6905 0.0
H730 H 0.86034 0.23382 0.68841 0.0
H731 H 0.84758 0.26521 0.70849 0.0
C732 C 0.83201 0.39855 0.96123 0.0
C733 C 0.85843 0.41104 0.97702 0.0
C734 C 0.81851 0.38911 0.00658 0.0
C735 C 0.79248 0.37612 0.99075 0.0
N736 N 0.77816 0.36051 0.95323 0.0
N737 N 0.88119 0.41185 0.01411 0.0
C738 C 0.80062 0.37801 0.96814 0.0
C739 C 0.85303 0.40428 -0.00044 0.0
N740 N 0.83561 0.40826 0.93981 0.0
N741 N 0.80978 0.38759 0.02829 0.0
H742 H 0.90679 0.4229 0.00937 0.0
H743 H 0.88051 0.4045 0.03049 0.0
H744 H 0.78574 0.37467 0.03401 0.0
H745 H 0.82534 0.40048 0.04054 0.0
H746 H 0.81493 0.40379 0.92804 0.0
H747 H 0.85794 0.4236 0.93398 0.0
H748 H 0.78488 0.3577 0.93676 0.0
H749 H 0.7544 0.34584 0.95757 0.0
C750 C 0.64682 0.34529 0.21229 0.0
C751 C 0.62131 0.35794 0.22838 0.0
C752 C 0.64457 0.31283 0.25437 0.0
C753 C 0.66805 0.29832 0.23775 0.0
N754 N 0.69767 0.30448 0.20256 0.0
N755 N 0.60062 0.36007 0.26568 0.0
C756 C 0.67147 0.31606 0.21731 0.0
C757 C 0.62192 0.34382 0.24983 0.0
N758 N 0.64592 0.36011 0.19184 0.0
N759 N 0.64339 0.29616 0.27426 0.0
H760 H 0.58358 0.38256 0.26261 0.0
H761 H 0.6014 0.3531 0.2821 0.0
H762 H 0.66162 0.27512 0.27852 0.0
H763 H 0.62419 0.3024 0.28646 0.0
H764 H 0.65985 0.34935 0.17836 0.0
H765 H 0.62984 0.38294 0.18803 0.0
H766 H 0.70428 0.31836 0.18834 0.0
H767 H 0.71488 0.28198 0.20501 0.0
C768 C 0.11829 0.88662 0.4118 0.0
C769 C 0.14391 0.90941 0.40065 0.0
C770 C 0.19065 0.89981 0.42941 0.0
C771 C 0.16548 0.8758 0.44012 0.0
N772 N 0.11087 0.83722 0.43734 0.0
N773 N 0.20761 0.92883 0.39541 0.0
C774 C 0.13106 0.86623 0.42993 0.0
C775 C 0.18124 0.9129 0.40831 0.0
N776 N 0.08129 0.88598 0.40604 0.0
N777 N 0.22211 0.91239 0.43982 0.0
H778 H 0.20149 0.93839 0.37978 0.0
H779 H 0.23605 0.92905 0.39927 0.0
H780 H 0.22964 0.90517 0.45564 0.0
H781 H 0.239 0.9329 0.43351 0.0
H782 H 0.06095 0.87286 0.41527 0.0
H783 H 0.07019 0.9012 0.39327 0.0
H784 H 0.08723 0.82713 0.42926 0.0
H785 H 0.1202 0.82068 0.45004 0.0
C786 C 0.10403 0.68871 0.65141 0.0
C787 C 0.1024 0.65016 0.64924 0.0
C788 C 0.14494 0.64386 0.68044 0.0
C789 C 0.14135 0.68166 0.6848 0.0
N790 N 0.11746 0.74077 0.67504 0.0
N791 N 0.11827 0.59042 0.66292 0.0
C792 C 0.12127 0.70445 0.67029 0.0
C793 C 0.12237 0.6275 0.66395 0.0
N794 N 0.08948 0.71009 0.63529 0.0
N795 N 0.17049 0.6238 0.69186 0.0
H796 H 0.10183 0.57713 0.65119 0.0
H797 H 0.12872 0.57294 0.67479 0.0
H798 H 0.18825 0.63546 0.70358 0.0
H799 H 0.17688 0.59674 0.68811 0.0
H800 H 0.09278 0.7383 0.63485 0.0
H801 H 0.07673 0.69922 0.6213 0.0
H802 H 0.09963 0.7581 0.66654 0.0
H803 H 0.13079 0.75327 0.68834 0.0
C804 C 0.38447 0.64924 0.90289 0.0
C805 C 0.37969 0.61109 0.8999 0.0
C806 C 0.33926 0.6095 0.93204 0.0
C807 C 0.34982 0.64585 0.93728 0.0
N808 N 0.38534 0.69991 0.92858 0.0
N809 N 0.35602 0.55365 0.91327 0.0
C810 C 0.37276 0.66592 0.9228 0.0
C811 C 0.35766 0.59086 0.91477 0.0
N812 N 0.4001 0.66944 0.88664 0.0
N813 N 0.31114 0.593 0.94336 0.0
H814 H 0.36954 0.53858 0.90113 0.0
H815 H 0.34389 0.53745 0.92522 0.0
H816 H 0.29629 0.60628 0.95574 0.0
H817 H 0.29987 0.56777 0.93889 0.0
H818 H 0.40117 0.69784 0.88699 0.0
H819 H 0.40869 0.6579 0.87183 0.0
H820 H 0.40551 0.71398 0.91977 0.0
H821 H 0.37796 0.71298 0.94313 0.0
C822 C 0.41453 0.874 0.16481 0.0
C823 C 0.43906 0.9044 0.16416 0.0
C824 C 0.44368 0.90455 0.20406 0.0
C825 C 0.4228 0.87166 0.2046 0.0
N826 N 0.39381 0.82134 0.18511 0.0
N827 N 0.48366 0.94356 0.18277 0.0
C828 C 0.40952 0.85535 0.18487 0.0
C829 C 0.45555 0.91828 0.18368 0.0
N830 N 0.39543 0.86345 0.14641 0.0
N831 N 0.45099 0.92351 0.22296 0.0
H832 H 0.49406 0.95372 0.16814 0.0
H833 H 0.49924 0.95166 0.19641 0.0
H834 H 0.44165 0.9151 0.23823 0.0
H835 H 0.46281 0.94952 0.2232 0.0
H836 H 0.37426 0.84389 0.14643 0.0
H837 H 0.39848 0.87649 0.13144 0.0
H838 H 0.38726 0.80659 0.17097 0.0
H839 H 0.39049 0.80632 0.19936 0.0
C840 C 0.12865 0.64132 0.84916 0.0
C841 C 0.08927 0.63787 0.85066 0.0
C842 C 0.08193 0.66542 0.81458 0.0
C843 C 0.12105 0.66242 0.81155 0.0
N844 N 0.18248 0.64859 0.82553 0.0
N845 N 0.02766 0.64656 0.83527 0.0
C846 C 0.14478 0.65133 0.82889 0.0
C847 C 0.0656 0.65061 0.83367 0.0
N848 N 0.15037 0.63474 0.86713 0.0
N849 N 0.06059 0.6823 0.79909 0.0
H850 H 0.01462 0.63674 0.84925 0.0
H851 H 0.00915 0.65109 0.82241 0.0
H852 H 0.07209 0.69328 0.78494 0.0
H853 H 0.03234 0.68835 0.80109 0.0
H854 H 0.17906 0.63959 0.86778 0.0
H855 H 0.13899 0.62734 0.88213 0.0
H856 H 0.20098 0.6367 0.83654 0.0
H857 H 0.19511 0.65677 0.81105 0.0
C858 C 0.38406 0.61517 0.10172 0.0
C859 C 0.37864 0.57689 0.1014 0.0
C860 C 0.34789 0.58063 0.06562 0.0
C861 C 0.35967 0.61747 0.06428 0.0
N862 N 0.38662 0.67122 0.08093 0.0
N863 N 0.35402 0.52261 0.08419 0.0
C864 C 0.37651 0.63535 0.08248 0.0
C865 C 0.35938 0.55954 0.08385 0.0
N866 N 0.39681 0.63187 0.12039 0.0
N867 N 0.32631 0.56585 0.04929 0.0
H868 H 0.36075 0.50679 0.09774 0.0
H869 H 0.34432 0.50736 0.0709 0.0
H870 H 0.31808 0.58059 0.03559 0.0
H871 H 0.31408 0.54012 0.05003 0.0
H872 H 0.39873 0.66002 0.12245 0.0
H873 H 0.40268 0.61746 0.13462 0.0
H874 H 0.40282 0.68502 0.09251 0.0
H875 H 0.3798 0.68704 0.06741 0.0
C876 C 0.43792 0.8681 0.35297 0.0
C877 C 0.41195 0.889 0.36533 0.0
C878 C 0.36018 0.86607 0.34271 0.0
C879 C 0.38644 0.84643 0.32988 0.0
N880 N 0.44733 0.81927 0.32651 0.0
N881 N 0.34835 0.90077 0.37603 0.0
C882 C 0.4244 0.84426 0.33634 0.0
C883 C 0.37294 0.88543 0.36158 0.0
N884 N 0.47555 0.87269 0.35617 0.0
N885 N 0.32363 0.86795 0.33613 0.0
H886 H 0.35723 0.91508 0.38995 0.0
H887 H 0.31953 0.89669 0.37533 0.0
H888 H 0.31326 0.8533 0.32272 0.0
H889 H 0.30398 0.88527 0.34325 0.0
H890 H 0.49577 0.86161 0.34587 0.0
H891 H 0.48675 0.88957 0.36835 0.0
H892 H 0.47457 0.81401 0.33171 0.0
H893 H 0.43764 0.80108 0.31453 0.0
C894 C 0.1632 0.94575 0.59127 0.0
C895 C 0.14881 0.92495 0.60879 0.0
C896 C 0.16648 0.86814 0.59014 0.0
C897 C 0.17997 0.88898 0.57239 0.0
N898 N 0.20038 0.94657 0.55815 0.0
N899 N 0.14422 0.86781 0.62762 0.0
C900 C 0.18133 0.92754 0.57368 0.0
C901 C 0.15309 0.88653 0.60913 0.0
N902 N 0.15796 -0.0173 0.59099 0.0
N903 N 0.16458 0.83097 0.58832 0.0
H904 H 0.13405 0.88071 0.64166 0.0
H905 H 0.14977 0.8402 0.62975 0.0
H906 H 0.17491 0.81659 0.57485 0.0
H907 H 0.15101 0.81442 0.59951 0.0
H908 H 0.16357 -0.00115 0.57749 0.0
H909 H 0.14597 -0.00282 0.60394 0.0
H910 H 0.20549 0.9745 0.55916 0.0
H911 H 0.21414 0.93378 0.54516 0.0
C912 C 0.62645 0.37948 0.90408 0.0
C913 C 0.58707 0.38376 0.90325 0.0
C914 C 0.58151 0.35712 0.93967 0.0
C915 C 0.62087 0.3593 0.94197 0.0
N916 N 0.68166 0.37108 0.92674 0.0
N917 N 0.52632 0.37647 0.91969 0.0
C918 C 0.64369 0.36939 0.92411 0.0
C919 C 0.56426 0.37181 0.92073 0.0
N920 N 0.6471 0.38534 0.88569 0.0
N921 N 0.56084 0.34114 0.9557 0.0
H922 H 0.51262 0.38615 0.90583 0.0
H923 H 0.50851 0.37253 0.93287 0.0
H924 H 0.57305 0.33025 0.96973 0.0
H925 H 0.53232 0.33571 0.9543 0.0
H926 H 0.67561 0.37989 0.88455 0.0
H927 H 0.63491 0.39281 0.87086 0.0
H928 H 0.69977 0.38226 0.91533 0.0
H929 H 0.69505 0.36259 0.94099 0.0
C930 C 0.64599 0.15058 0.1446 0.0
C931 C 0.64268 0.11212 0.14273 0.0
C932 C 0.68402 0.10483 0.1744 0.0
C933 C 0.68184 0.14283 0.1785 0.0
N934 N 0.65959 0.20247 0.16823 0.0
N935 N 0.65578 0.0521 0.15692 0.0
C936 C 0.66303 0.16606 0.16361 0.0
C937 C 0.66133 0.08902 0.15776 0.0
N938 N 0.63295 0.17215 0.12814 0.0
N939 N 0.70832 0.084 0.18625 0.0
H940 H 0.63936 0.0392 0.14504 0.0
H941 H 0.66509 0.03447 0.16903 0.0
H942 H 0.7261 0.09518 0.19812 0.0
H943 H 0.71376 0.05666 0.18272 0.0
H944 H 0.63758 0.20018 0.1275 0.0
H945 H 0.6203 0.16144 0.11407 0.0
H946 H 0.6425 0.21999 0.15936 0.0
H947 H 0.67199 0.21491 0.18184 0.0
C948 C 0.90475 0.09571 0.4093 0.0
C949 C 0.93134 0.11932 0.39959 0.0
C950 C 0.9229 0.16318 0.42969 0.0
C951 C 0.89494 0.14023 0.43871 0.0
N952 N 0.85009 0.092 0.43225 0.0
N953 N 0.95674 0.1801 0.39707 0.0
C954 C 0.88278 0.10896 0.42684 0.0
C955 C 0.93733 0.15469 0.40862 0.0
N956 N 0.90212 0.0599 0.40303 0.0
N957 N 0.93765 0.19149 0.4416 0.0
H958 H 0.96695 0.17486 0.38139 0.0
H959 H 0.95915 0.20727 0.40206 0.0
H960 H 0.92916 0.19814 0.45739 0.0
H961 H 0.96085 0.20636 0.43651 0.0
H962 H 0.88556 0.04111 0.41127 0.0
H963 H 0.91928 0.0479 0.39129 0.0
H964 H 0.83858 0.07081 0.42291 0.0
H965 H 0.83243 0.10197 0.44446 0.0
C966 C 0.88094 0.39466 0.65389 0.0
C967 C 0.87588 0.43291 0.65267 0.0
C968 C 0.84276 0.43289 0.68765 0.0
C969 C 0.85427 0.39632 0.69069 0.0
N970 N 0.88148 0.3408 0.67676 0.0
N971 N 0.85075 0.48894 0.66733 0.0
C972 C 0.87196 0.3765 0.67362 0.0
C973 C 0.85563 0.45208 0.66904 0.0
N974 N 0.89468 0.37606 0.6362 0.0
N975 N 0.82005 0.44923 0.70276 0.0
H976 H 0.8587 0.5035 0.65355 0.0
H977 H 0.84032 0.50542 0.67983 0.0
H978 H 0.81066 0.43574 0.71664 0.0
H979 H 0.80799 0.47482 0.70074 0.0
H980 H 0.8966 0.34777 0.63524 0.0
H981 H 0.90141 0.38901 0.62161 0.0
H982 H 0.89816 0.3257 0.66612 0.0
H983 H 0.8735 0.32642 0.69063 0.0
C984 C 0.60228 0.12662 0.32747 0.0
C985 C 0.62355 0.11303 0.34527 0.0
C986 C 0.68137 0.11908 0.32424 0.0
C987 C 0.65996 0.13171 0.30625 0.0
N988 N 0.60207 0.15567 0.29199 0.0
N989 N 0.68312 0.10398 0.36284 0.0
C990 C 0.62105 0.1384 0.30836 0.0
C991 C 0.66315 0.11183 0.34436 0.0
N992 N 0.56403 0.12631 0.3284 0.0
N993 N 0.71892 0.11313 0.3218 0.0
H994 H 0.67032 0.09859 0.37776 0.0
H995 H 0.71214 0.10565 0.36395 0.0
H996 H 0.73341 0.12009 0.30767 0.0
H997 H 0.73552 0.1 0.33331 0.0
H998 H 0.54674 0.13144 0.31505 0.0
H999 H 0.54925 0.11879 0.34231 0.0
H1000 H 0.5746 0.16476 0.29343 0.0
H1001 H 0.61471 0.16362 0.27747 0.0
C1002 C 0.89843 0.10903 0.58976 0.0
C1003 C 0.91793 0.13276 0.60432 0.0
C1004 C 0.90187 0.18522 0.58161 0.0
C1005 C 0.88207 0.16143 0.56725 0.0
N1006 N 0.85241 0.10335 0.56071 0.0
N1007 N 0.93144 0.19371 0.61712 0.0
C1008 C 0.87748 0.12411 0.57231 0.0
C1009 C 0.9174 0.17105 0.60122 0.0
N1010 N 0.90138 0.07203 0.59193 0.0
N1011 N 0.90726 0.22087 0.57603 0.0
H1012 H 0.943 0.18398 0.63163 0.0
H1013 H 0.92877 0.22198 0.61683 0.0
H1014 H 0.8956 0.23234 0.56202 0.0
H1015 H 0.92508 0.23853 0.58451 0.0
H1016 H 0.89146 0.05348 0.58028 0.0
H1017 H 0.91625 0.05972 0.60457 0.0
H1018 H 0.84522 0.07678 0.5649 0.0
H1019 H 0.8358 0.11407 0.54828 0.0
C1020 C 0.88247 0.37438 0.85228 0.0
C1021 C 0.87831 0.41261 0.85511 0.0
C1022 C 0.83557 0.41402 0.82379 0.0
C1023 C 0.84528 0.37745 0.81862 0.0
N1024 N 0.88146 0.32348 0.8268 0.0
N1025 N 0.8544 0.47004 0.84181 0.0
C1026 C 0.86926 0.3575 0.8327 0.0
C1027 C 0.85547 0.43279 0.84054 0.0
N1028 N 0.89896 0.35428 0.86836 0.0
N1029 N 0.80684 0.43061 0.81291 0.0
H1030 H 0.86902 0.48518 0.85356 0.0
H1031 H 0.84158 0.48614 0.83001 0.0
H1032 H 0.79095 0.41727 0.80092 0.0
H1033 H 0.79624 0.45606 0.81742 0.0
H1034 H 0.89964 0.32587 0.86815 0.0
H1035 H 0.90865 0.36595 0.88295 0.0
H1036 H 0.90223 0.30953 0.83531 0.0
H1037 H 0.87331 0.31031 0.81239 0.0
C1038 C 0.62566 0.39414 0.09101 0.0
C1039 C 0.61034 0.36915 0.10616 0.0
C1040 C 0.63419 0.31771 0.08445 0.0
C1041 C 0.6496 0.34286 0.06947 0.0
N1042 N 0.67025 0.4039 0.06193 0.0
N1043 N 0.607 0.30814 0.12028 0.0
C1044 C 0.6486 0.38078 0.07389 0.0
C1045 C 0.61695 0.33115 0.10385 0.0
N1046 N 0.61674 0.43039 0.09224 0.0
N1047 N 0.63451 0.28121 0.07964 0.0
H1048 H 0.59427 0.31735 0.13462 0.0
H1049 H 0.61415 0.28061 0.12056 0.0
H1050 H 0.64772 0.27041 0.06585 0.0
H1051 H 0.61999 0.26183 0.0886 0.0
H1052 H 0.6236 0.449 0.08014 0.0
H1053 H 0.59982 0.44152 0.10443 0.0
H1054 H 0.67336 0.43154 0.06562 0.0
H1055 H 0.68842 0.39453 0.04981 0.0
loop_
_geom_bond_atom_site_label_1
_geom_bond_atom_site_label_2
_geom_bond_distance
_geom_bond_site_symmetry_2
_ccdc_geom_bond_type
C0 C1 1.384 . S
C0 C2 1.384 . S
C0 H28 0.931 . S
C1 C0 1.384 . S
C1 C4 1.382 1_565 S
C2 C0 1.384 . S
C2 C3 1.381 1_565 S
C2 H29 0.930 . S
C3 C2 1.381 1_545 S
C3 C5 1.381 . S
C3 C6 1.487 . S
C4 C1 1.382 1_545 S
C4 C5 1.387 . S
C4 H30 0.930 . S
C5 C3 1.381 . S
C5 C4 1.387 . S
C5 H31 0.931 . S
C6 C3 1.487 . S
C6 C13 1.399 . S
C6 N44 1.343 . S
C7 C8 1.384 . S
C7 C9 1.384 . S
C7 H32 0.931 . S
C8 C7 1.384 . S
C8 C11 1.382 . S
C9 C7 1.384 . S
C9 C10 1.381 . S
C9 H33 0.930 1_565 S
C10 C9 1.381 . S
C10 C12 1.381 . S
C10 C13 1.487 1_565 S
C11 C8 1.382 . S
C11 C12 1.387 . S
C11 H34 0.930 . S
C12 C10 1.381 . S
C12 C11 1.387 . S
C12 H35 0.931 . S
C13 C6 1.399 . S
C13 C10 1.487 1_545 S
C13 N45 1.343 . S
C14 C15 1.384 . S
C14 C16 1.384 . S
C14 H36 0.931 . S
C15 C14 1.384 . S
C15 C18 1.382 . S
C16 C14 1.384 . S
C16 C17 1.381 . S
C16 H37 0.930 . S
C17 C16 1.381 . S
C17 C19 1.381 . S
C17 C20 1.487 1_655 S
C18 C15 1.382 . S
C18 C19 1.387 . S
C18 H38 0.930 . S
C19 C17 1.381 . S
C19 C18 1.387 . S
C19 H39 0.931 . S
C20 C17 1.487 1_455 S
C20 C27 1.399 . S
C20 N45 1.343 . S
C21 C22 1.384 . S
C21 C23 1.384 . S
C21 H40 0.931 . S
C22 C21 1.384 . S
C22 C25 1.382 . S
C23 C21 1.384 . S
C23 C24 1.381 . S
C23 H41 0.930 . S
C24 C23 1.381 . S
C24 C26 1.381 1_655 S
C24 C27 1.487 1_655 S
C25 C22 1.382 . S
C25 C26 1.387 1_655 S
C25 H42 0.930 . S
C26 C24 1.381 1_455 S
C26 C25 1.387 1_455 S
C26 H43 0.931 . S
C27 C20 1.399 . S
C27 C24 1.487 1_455 S
C27 N44 1.343 . S
H28 C0 0.931 . S
H29 C2 0.930 . S
H30 C4 0.930 . S
H31 C5 0.931 . S
H32 C7 0.931 . S
H33 C9 0.930 1_545 S
H34 C11 0.930 . S
H35 C12 0.931 . S
H36 C14 0.931 . S
H37 C16 0.930 . S
H38 C18 0.930 . S
H39 C19 0.931 . S
H40 C21 0.931 . S
H41 C23 0.930 . S
H42 C25 0.930 . S
H43 C26 0.931 . S
N44 C6 1.343 . S
N44 C27 1.343 . S
N45 C13 1.343 . S
N45 C20 1.343 . S
C46 C47 1.384 . S
C46 C48 1.384 . S
C46 H74 0.931 . S
C47 C46 1.384 . S
C47 C50 1.382 . S
C48 C46 1.384 . S
C48 C49 1.381 . S
C48 H75 0.930 . S
C49 C48 1.381 . S
C49 C51 1.381 . S
C49 C52 1.487 . S
C50 C47 1.382 . S
C50 C51 1.387 . S
C50 H76 0.930 . S
C51 C49 1.381 . S
C51 C50 1.387 . S
C51 H77 0.931 1_655 S
C52 C49 1.487 . S
C52 C59 1.399 . S
C52 N90 1.343 1_655 S
C53 C54 1.384 . S
C53 C55 1.384 . S
C53 H78 0.931 . S
C54 C53 1.384 . S
C54 C57 1.382 . S
C55 C53 1.384 . S
C55 C56 1.381 . S
C55 H79 0.930 . S
C56 C55 1.381 . S
C56 C58 1.381 . S
C56 C59 1.487 . S
C57 C54 1.382 . S
C57 C58 1.387 . S
C57 H80 0.930 . S
C58 C56 1.381 . S
C58 C57 1.387 . S
C58 H81 0.931 . S
C59 C52 1.399 . S
C59 C56 1.487 . S
C59 N91 1.343 1_655 S
C60 C61 1.384 . S
C60 C62 1.384 . S
C60 H82 0.931 . S
C61 C60 1.384 . S
C61 C64 1.382 . S
C62 C60 1.384 . S
C62 C63 1.381 . S
C62 H83 0.930 . S
C63 C62 1.381 . S
C63 C65 1.381 . S
C63 C66 1.487 . S
C64 C61 1.382 . S
C64 C65 1.387 . S
C64 H84 0.930 . S
C65 C63 1.381 . S
C65 C64 1.387 . S
C65 H85 0.931 . S
C66 C63 1.487 . S
C66 C73 1.399 . S
C66 N91 1.343 . S
C67 C68 1.384 . S
C67 C69 1.384 . S
C67 H86 0.931 . S
C68 C67 1.384 . S
C68 C71 1.382 . S
C69 C67 1.384 . S
C69 C70 1.381 . S
C69 H87 0.930 . S
C70 C69 1.381 . S
C70 C72 1.381 . S
C70 C73 1.487 . S
C71 C68 1.382 . S
C71 C72 1.387 . S
C71 H88 0.930 . S
C72 C70 1.381 . S
C72 C71 1.387 . S
C72 H89 0.931 . S
C73 C66 1.399 . S
C73 C70 1.487 . S
C73 N90 1.343 . S
H74 C46 0.931 . S
H75 C48 0.930 . S
H76 C50 0.930 . S
H77 C51 0.931 1_455 S
H78 C53 0.931 . S
H79 C55 0.930 . S
H80 C57 0.930 . S
H81 C58 0.931 . S
H82 C60 0.931 . S
H83 C62 0.930 . S
H84 C64 0.930 . S
H85 C65 0.931 . S
H86 C67 0.931 . S
H87 C69 0.930 . S
H88 C71 0.930 . S
H89 C72 0.931 . S
N90 C52 1.343 1_455 S
N90 C73 1.343 . S
N91 C59 1.343 1_455 S
N91 C66 1.343 . S
C92 C93 1.384 . S
C92 C94 1.384 . S
C92 H120 0.931 . S
C93 C92 1.384 . S
C93 C96 1.382 . S
C94 C92 1.384 . S
C94 C95 1.381 . S
C94 H121 0.930 . S
C95 C94 1.381 . S
C95 C97 1.381 . S
C95 C98 1.487 . S
C96 C93 1.382 . S
C96 C97 1.387 . S
C96 H122 0.930 . S
C97 C95 1.381 . S
C97 C96 1.387 . S
C97 H123 0.931 . S
C98 C95 1.487 . S
C98 C105 1.399 . S
C98 N136 1.343 . S
C99 C100 1.384 . S
C99 C101 1.384 . S
C99 H124 0.931 . S
C100 C99 1.384 . S
C100 C103 1.382 . S
C101 C99 1.384 . S
C101 C102 1.381 . S
C101 H125 0.930 . S
C102 C101 1.381 . S
C102 C104 1.381 . S
C102 C105 1.487 . S
C103 C100 1.382 . S
C103 C104 1.387 . S
C103 H126 0.930 . S
C104 C102 1.381 . S
C104 C103 1.387 . S
C104 H127 0.931 . S
C105 C98 1.399 . S
C105 C102 1.487 . S
C105 N137 1.343 . S
C106 C107 1.384 . S
C106 C108 1.384 . S
C106 H128 0.931 . S
C107 C106 1.384 . S
C107 C110 1.382 . S
C108 C106 1.384 . S
C108 C109 1.381 . S
C108 H129 0.930 . S
C109 C108 1.381 . S
C109 C111 1.381 . S
C109 C112 1.487 . S
C110 C107 1.382 . S
C110 C111 1.387 . S
C110 H130 0.930 . S
C111 C109 1.381 . S
C111 C110 1.387 . S
C111 H131 0.931 . S
C112 C109 1.487 . S
C112 C119 1.399 . S
C112 N137 1.343 . S
C113 C114 1.384 . S
C113 C115 1.384 . S
C113 H132 0.931 . S
C114 C113 1.384 . S
C114 C117 1.382 . S
C115 C113 1.384 . S
C115 C116 1.381 . S
C115 H133 0.930 . S
C116 C115 1.381 . S
C116 C118 1.381 . S
C116 C119 1.487 . S
C117 C114 1.382 . S
C117 C118 1.387 . S
C117 H134 0.930 . S
C118 C116 1.381 . S
C118 C117 1.387 . S
C118 H135 0.931 . S
C119 C112 1.399 . S
C119 C116 1.487 . S
C119 N136 1.343 . S
H120 C92 0.931 . S
H121 C94 0.930 . S
H122 C96 0.930 . S
H123 C97 0.931 . S
H124 C99 0.931 . S
H125 C101 0.930 . S
H126 C103 0.930 . S
H127 C104 0.931 . S
H128 C106 0.931 . S
H129 C108 0.930 . S
H130 C110 0.930 . S
H131 C111 0.931 . S
H132 C113 0.931 . S
H133 C115 0.930 . S
H134 C117 0.930 . S
H135 C118 0.931 . S
N136 C98 1.343 . S
N136 C119 1.343 . S
N137 C105 1.343 . S
N137 C112 1.343 . S
C138 C139 1.384 . S
C138 C140 1.384 . S
C138 H166 0.931 . S
C139 C138 1.384 . S
C139 C142 1.382 . S
C140 C138 1.384 . S
C140 C141 1.381 . S
C140 H167 0.930 . S
C141 C140 1.381 . S
C141 C143 1.381 . S
C141 C144 1.487 . S
C142 C139 1.382 . S
C142 C143 1.387 . S
C142 H168 0.930 . S
C143 C141 1.381 . S
C143 C142 1.387 . S
C143 H169 0.931 . S
C144 C141 1.487 . S
C144 C151 1.399 . S
C144 N182 1.343 1_565 S
C145 C146 1.384 . S
C145 C147 1.384 . S
C145 H170 0.931 . S
C146 C145 1.384 . S
C146 C149 1.382 . S
C147 C145 1.384 . S
C147 C148 1.381 . S
C147 H171 0.930 . S
C148 C147 1.381 . S
C148 C150 1.381 . S
C148 C151 1.487 . S
C149 C146 1.382 . S
C149 C150 1.387 . S
C149 H172 0.930 . S
C150 C148 1.381 . S
C150 C149 1.387 . S
C150 H173 0.931 . S
C151 C144 1.399 . S
C151 C148 1.487 . S
C151 N183 1.343 . S
C152 C153 1.384 . S
C152 C154 1.384 . S
C152 H174 0.931 . S
C153 C152 1.384 . S
C153 C156 1.382 . S
C154 C152 1.384 . S
C154 C155 1.381 . S
C154 H175 0.930 . S
C155 C154 1.381 . S
C155 C157 1.381 . S
C155 C158 1.487 . S
C156 C153 1.382 . S
C156 C157 1.387 . S
C156 H176 0.930 . S
C157 C155 1.381 . S
C157 C156 1.387 . S
C157 H177 0.931 . S
C158 C155 1.487 . S
C158 C165 1.399 . S
C158 N183 1.343 1_545 S
C159 C160 1.384 . S
C159 C161 1.384 . S
C159 H178 0.931 . S
C160 C159 1.384 . S
C160 C163 1.382 . S
C161 C159 1.384 . S
C161 C162 1.381 . S
C161 H179 0.930 . S
C162 C161 1.381 . S
C162 C164 1.381 . S
C162 C165 1.487 . S
C163 C160 1.382 . S
C163 C164 1.387 . S
C163 H180 0.930 . S
C164 C162 1.381 . S
C164 C163 1.387 . S
C164 H181 0.931 . S
C165 C158 1.399 . S
C165 C162 1.487 . S
C165 N182 1.343 . S
H166 C138 0.931 . S
H167 C140 0.930 . S
H168 C142 0.930 . S
H169 C143 0.931 . S
H170 C145 0.931 . S
H171 C147 0.930 . S
H172 C149 0.930 . S
H173 C150 0.931 . S
H174 C152 0.931 . S
H175 C154 0.930 . S
H176 C156 0.930 . S
H177 C157 0.931 . S
H178 C159 0.931 . S
H179 C161 0.930 . S
H180 C163 0.930 . S
H181 C164 0.931 . S
N182 C144 1.343 1_545 S
N182 C165 1.343 . S
N183 C151 1.343 . S
N183 C158 1.343 1_565 S
C184 C185 1.384 . S
C184 C186 1.384 . S
C184 H212 0.931 . S
C185 C184 1.384 . S
C185 C188 1.382 . S
C186 C184 1.384 . S
C186 C187 1.381 . S
C186 H213 0.930 . S
C187 C186 1.381 . S
C187 C189 1.381 . S
C187 C190 1.487 . S
C188 C185 1.382 . S
C188 C189 1.387 . S
C188 H214 0.930 . S
C189 C187 1.381 . S
C189 C188 1.387 . S
C189 H215 0.931 . S
C190 C187 1.487 . S
C190 C197 1.399 . S
C190 N228 1.343 . S
C191 C192 1.384 . S
C191 C193 1.384 . S
C191 H216 0.931 . S
C192 C191 1.384 . S
C192 C195 1.382 . S
C193 C191 1.384 . S
C193 C194 1.381 . S
C193 H217 0.930 . S
C194 C193 1.381 . S
C194 C196 1.381 . S
C194 C197 1.487 . S
C195 C192 1.382 . S
C195 C196 1.387 . S
C195 H218 0.930 . S
C196 C194 1.381 . S
C196 C195 1.387 . S
C196 H219 0.931 . S
C197 C190 1.399 . S
C197 C194 1.487 . S
C197 N229 1.343 1_455 S
C198 C199 1.384 . S
C198 C200 1.384 . S
C198 H220 0.931 . S
C199 C198 1.384 . S
C199 C202 1.382 . S
C200 C198 1.384 . S
C200 C201 1.381 . S
C200 H221 0.930 . S
C201 C200 1.381 . S
C201 C203 1.381 . S
C201 C204 1.487 . S
C202 C199 1.382 . S
C202 C203 1.387 . S
C202 H222 0.930 . S
C203 C201 1.381 . S
C203 C202 1.387 . S
C203 H223 0.931 . S
C204 C201 1.487 . S
C204 C211 1.399 . S
C204 N229 1.343 . S
C205 C206 1.384 . S
C205 C207 1.384 . S
C205 H224 0.931 . S
C206 C205 1.384 . S
C206 C209 1.382 . S
C207 C205 1.384 . S
C207 C208 1.381 . S
C207 H225 0.930 . S
C208 C207 1.381 . S
C208 C210 1.381 . S
C208 C211 1.487 . S
C209 C206 1.382 . S
C209 C210 1.387 . S
C209 H226 0.930 . S
C210 C208 1.381 . S
C210 C209 1.387 . S
C210 H227 0.931 . S
C211 C204 1.399 . S
C211 C208 1.487 . S
C211 N228 1.343 1_655 S
H212 C184 0.931 . S
H213 C186 0.930 . S
H214 C188 0.930 . S
H215 C189 0.931 . S
H216 C191 0.931 . S
H217 C193 0.930 . S
H218 C195 0.930 . S
H219 C196 0.931 . S
H220 C198 0.931 . S
H221 C200 0.930 . S
H222 C202 0.930 . S
H223 C203 0.931 . S
H224 C205 0.931 . S
H225 C207 0.930 . S
H226 C209 0.930 . S
H227 C210 0.931 . S
N228 C190 1.343 . S
N228 C211 1.343 1_455 S
N229 C197 1.343 1_655 S
N229 C204 1.343 . S
C230 C231 1.384 . S
C230 C232 1.384 . S
C230 H258 0.931 . S
C231 C230 1.384 . S
C231 C234 1.382 . S
C232 C230 1.384 . S
C232 C233 1.381 . S
C232 H259 0.930 . S
C233 C232 1.381 . S
C233 C235 1.381 . S
C233 C236 1.487 . S
C234 C231 1.382 . S
C234 C235 1.387 . S
C234 H260 0.930 . S
C235 C233 1.381 . S
C235 C234 1.387 . S
C235 H261 0.931 . S
C236 C233 1.487 . S
C236 C243 1.399 . S
C236 N274 1.343 . S
C237 C238 1.384 . S
C237 C239 1.384 . S
C237 H262 0.931 . S
C238 C237 1.384 . S
C238 C241 1.382 . S
C239 C237 1.384 . S
C239 C240 1.381 . S
C239 H263 0.930 . S
C240 C239 1.381 . S
C240 C242 1.381 . S
C240 C243 1.487 . S
C241 C238 1.382 . S
C241 C242 1.387 . S
C241 H264 0.930 . S
C242 C240 1.381 . S
C242 C241 1.387 . S
C242 H265 0.931 . S
C243 C236 1.399 . S
C243 C240 1.487 . S
C243 N275 1.343 . S
C244 C245 1.384 . S
C244 C246 1.384 . S
C244 H266 0.931 . S
C245 C244 1.384 . S
C245 C248 1.382 . S
C246 C244 1.384 . S
C246 C247 1.381 . S
C246 H267 0.930 . S
C247 C246 1.381 . S
C247 C249 1.381 . S
C247 C250 1.487 . S
C248 C245 1.382 . S
C248 C249 1.387 . S
C248 H268 0.930 . S
C249 C247 1.381 . S
C249 C248 1.387 . S
C249 H269 0.931 . S
C250 C247 1.487 . S
C250 C257 1.399 . S
C250 N275 1.343 . S
C251 C252 1.384 . S
C251 C253 1.384 . S
C251 H270 0.931 . S
C252 C251 1.384 . S
C252 C255 1.382 . S
C253 C251 1.384 . S
C253 C254 1.381 . S
C253 H271 0.930 . S
C254 C253 1.381 . S
C254 C256 1.381 . S
C254 C257 1.487 . S
C255 C252 1.382 . S
C255 C256 1.387 . S
C255 H272 0.930 . S
C256 C254 1.381 . S
C256 C255 1.387 . S
C256 H273 0.931 . S
C257 C250 1.399 . S
C257 C254 1.487 . S
C257 N274 1.343 . S
H258 C230 0.931 . S
H259 C232 0.930 . S
H260 C234 0.930 . S
H261 C235 0.931 . S
H262 C237 0.931 . S
H263 C239 0.930 . S
H264 C241 0.930 . S
H265 C242 0.931 . S
H266 C244 0.931 . S
H267 C246 0.930 . S
H268 C248 0.930 . S
H269 C249 0.931 . S
H270 C251 0.931 . S
H271 C253 0.930 . S
H272 C255 0.930 . S
H273 C256 0.931 . S
N274 C236 1.343 . S
N274 C257 1.343 . S
N275 C243 1.343 . S
N275 C250 1.343 . S
C276 C277 1.384 . S
C276 C278 1.384 . S
C276 H304 0.931 . S
C277 C276 1.384 . S
C277 C280 1.382 . S
C278 C276 1.384 . S
C278 C279 1.381 . S
C278 H305 0.930 . S
C279 C278 1.381 . S
C279 C281 1.381 . S
C279 C282 1.487 . S
C280 C277 1.382 . S
C280 C281 1.387 . S
C280 H306 0.930 . S
C281 C279 1.381 . S
C281 C280 1.387 . S
C281 H307 0.931 1_565 S
C282 C279 1.487 . S
C282 C289 1.399 . S
C282 N320 1.343 1_565 S
C283 C284 1.384 . S
C283 C285 1.384 . S
C283 H308 0.931 . S
C284 C283 1.384 . S
C284 C287 1.382 . S
C285 C283 1.384 . S
C285 C286 1.381 . S
C285 H309 0.930 . S
C286 C285 1.381 . S
C286 C288 1.381 . S
C286 C289 1.487 . S
C287 C284 1.382 . S
C287 C288 1.387 . S
C287 H310 0.930 . S
C288 C286 1.381 . S
C288 C287 1.387 . S
C288 H311 0.931 . S
C289 C282 1.399 . S
C289 C286 1.487 . S
C289 N321 1.343 1_565 S
C290 C291 1.384 . S
C290 C292 1.384 . S
C290 H312 0.931 . S
C291 C290 1.384 . S
C291 C294 1.382 . S
C292 C290 1.384 . S
C292 C293 1.381 . S
C292 H313 0.930 . S
C293 C292 1.381 . S
C293 C295 1.381 . S
C293 C296 1.487 . S
C294 C291 1.382 . S
C294 C295 1.387 . S
C294 H314 0.930 . S
C295 C293 1.381 . S
C295 C294 1.387 . S
C295 H315 0.931 . S
C296 C293 1.487 . S
C296 C303 1.399 . S
C296 N321 1.343 . S
C297 C298 1.384 . S
C297 C299 1.384 . S
C297 H316 0.931 . S
C298 C297 1.384 . S
C298 C301 1.382 . S
C299 C297 1.384 . S
C299 C300 1.381 . S
C299 H317 0.930 . S
C300 C299 1.381 . S
C300 C302 1.381 . S
C300 C303 1.487 . S
C301 C298 1.382 . S
C301 C302 1.387 . S
C301 H318 0.930 . S
C302 C300 1.381 . S
C302 C301 1.387 . S
C302 H319 0.931 . S
C303 C296 1.399 . S
C303 C300 1.487 . S
C303 N320 1.343 . S
H304 C276 0.931 . S
H305 C278 0.930 . S
H306 C280 0.930 . S
H307 C281 0.931 1_545 S
H308 C283 0.931 . S
H309 C285 0.930 . S
H310 C287 0.930 . S
H311 C288 0.931 . S
H312 C290 0.931 . S
H313 C292 0.930 . S
H314 C294 0.930 . S
H315 C295 0.931 . S
H316 C297 0.931 . S
H317 C299 0.930 . S
H318 C301 0.930 . S
H319 C302 0.931 . S
N320 C282 1.343 1_545 S
N320 C303 1.343 . S
N321 C289 1.343 1_545 S
N321 C296 1.343 . S
C322 C323 1.384 . S
C322 C324 1.384 . S
C322 H350 0.931 . S
C323 C322 1.384 . S
C323 C326 1.382 . S
C324 C322 1.384 . S
C324 C325 1.381 1_565 S
C324 H351 0.930 1_565 S
C325 C324 1.381 1_545 S
C325 C327 1.381 1_545 S
C325 C328 1.487 . S
C326 C323 1.382 . S
C326 C327 1.387 . S
C326 H352 0.930 . S
C327 C325 1.381 1_565 S
C327 C326 1.387 . S
C327 H353 0.931 . S
C328 C325 1.487 . S
C328 C335 1.399 . S
C328 N366 1.343 . S
C329 C330 1.384 . S
C329 C331 1.384 . S
C329 H354 0.931 . S
C330 C329 1.384 . S
C330 C333 1.382 . S
C331 C329 1.384 . S
C331 C332 1.381 1_565 S
C331 H355 0.930 . S
C332 C331 1.381 1_545 S
C332 C334 1.381 . S
C332 C335 1.487 . S
C333 C330 1.382 . S
C333 C334 1.387 1_565 S
C333 H356 0.930 1_565 S
C334 C332 1.381 . S
C334 C333 1.387 1_545 S
C334 H357 0.931 . S
C335 C328 1.399 . S
C335 C332 1.487 . S
C335 N367 1.343 . S
C336 C337 1.384 . S
C336 C338 1.384 . S
C336 H358 0.931 . S
C337 C336 1.384 . S
C337 C340 1.382 . S
C338 C336 1.384 . S
C338 C339 1.361 1_655 S
C338 H359 0.930 . S
C339 C338 1.361 1_455 S
C339 C341 1.390 . S
C339 C342 1.498 . S
C340 C337 1.382 . S
C340 C341 1.387 1_655 S
C340 H360 0.930 1_655 S
C341 C339 1.390 . S
C341 C340 1.387 1_455 S
C341 H361 0.931 . S
C342 C339 1.498 . S
C342 C349 1.399 . S
C342 N367 1.343 . S
C343 C344 1.384 . S
C343 C345 1.384 1_655 S
C343 H362 0.931 . S
C344 C343 1.384 . S
C344 C347 1.382 . S
C345 C343 1.384 1_455 S
C345 C346 1.381 . S
C345 H363 0.930 . S
C346 C345 1.381 . S
C346 C348 1.381 1_455 S
C346 C349 1.487 . S
C347 C344 1.382 . S
C347 C348 1.387 . S
C347 H364 0.930 . S
C348 C346 1.381 1_655 S
C348 C347 1.387 . S
C348 H365 0.931 . S
C349 C342 1.399 . S
C349 C346 1.487 . S
C349 N366 1.343 . S
H350 C322 0.931 . S
H351 C324 0.930 1_545 S
H352 C326 0.930 . S
H353 C327 0.931 . S
H354 C329 0.931 . S
H355 C331 0.930 . S
H356 C333 0.930 1_545 S
H357 C334 0.931 . S
H358 C336 0.931 . S
H359 C338 0.930 . S
H360 C340 0.930 1_455 S
H361 C341 0.931 . S
H362 C343 0.931 . S
H363 C345 0.930 . S
H364 C347 0.930 . S
H365 C348 0.931 . S
N366 C328 1.343 . S
N366 C349 1.343 . S
N367 C335 1.343 . S
N367 C342 1.343 . S
C368 O369 1.306 . S
C368 O371 1.160 . S
O369 C368 1.306 . S
O369 Cd370 2.228 . S
Cd370 O369 2.228 . S
Cd370 O374 2.273 1_554 S
Cd370 O378 2.277 . S
O371 C368 1.160 . S
O371 Cd372 2.203 . S
Cd372 O371 2.203 . S
Cd372 O374 2.411 1_554 S
Cd372 O375 2.333 1_554 S
Cd372 O376 2.352 . S
Cd372 O380 2.277 . S
Cd372 O381 2.358 . S
C373 O378 1.209 . S
C373 O380 1.226 . S
O374 Cd370 2.273 1_556 S
O374 Cd372 2.411 1_556 S
O374 C377 1.320 . S
O375 Cd372 2.333 1_556 S
O375 C377 1.214 . S
O376 Cd372 2.352 . S
O376 C379 1.262 . S
C377 O374 1.320 . S
C377 O375 1.214 . S
O378 Cd370 2.277 . S
O378 C373 1.209 . S
C379 O376 1.262 . S
C379 O381 1.282 . S
O380 Cd372 2.277 . S
O380 C373 1.226 . S
O381 Cd372 2.358 . S
O381 C379 1.282 . S
C382 O383 1.306 . S
C382 O385 1.160 . S
O383 C382 1.306 . S
O383 Cd384 2.228 . S
Cd384 O383 2.228 . S
Cd384 O388 2.273 . S
Cd384 O392 2.277 . S
O385 C382 1.160 . S
O385 Cd386 2.203 . S
Cd386 O385 2.203 . S
Cd386 O388 2.411 . S
Cd386 O389 2.333 . S
Cd386 O390 2.352 . S
Cd386 O394 2.277 . S
Cd386 O395 2.356 . S
C387 O392 1.209 . S
C387 O394 1.226 . S
O388 Cd384 2.273 . S
O388 Cd386 2.411 . S
O388 C391 1.320 . S
O389 Cd386 2.333 . S
O389 C391 1.214 . S
O390 Cd386 2.352 . S
O390 C393 1.258 . S
C391 O388 1.320 . S
C391 O389 1.214 . S
O392 Cd384 2.277 . S
O392 C387 1.209 . S
C393 O390 1.258 . S
C393 O395 1.282 . S
O394 Cd386 2.277 . S
O394 C387 1.226 . S
O395 Cd386 2.356 . S
O395 C393 1.282 . S
C396 O397 1.306 . S
C396 O399 1.160 . S
O397 C396 1.306 . S
O397 Cd398 2.228 . S
Cd398 O397 2.228 . S
Cd398 O402 2.273 . S
Cd398 O406 2.277 . S
O399 C396 1.160 . S
O399 Cd400 2.203 . S
Cd400 O399 2.203 . S
Cd400 O402 2.411 . S
Cd400 O403 2.333 . S
Cd400 O404 2.352 . S
Cd400 O408 2.277 . S
Cd400 O409 2.356 . S
C401 O406 1.209 . S
C401 O408 1.226 . S
O402 Cd398 2.273 . S
O402 Cd400 2.411 . S
O402 C405 1.320 . S
O403 Cd400 2.333 . S
O403 C405 1.214 . S
O404 Cd400 2.352 . S
O404 C407 1.258 . S
C405 O402 1.320 . S
C405 O403 1.214 . S
O406 Cd398 2.277 . S
O406 C401 1.209 . S
C407 O404 1.258 . S
C407 O409 1.282 . S
O408 Cd400 2.277 . S
O408 C401 1.226 . S
O409 Cd400 2.356 . S
O409 C407 1.282 . S
C410 O411 1.306 . S
C410 O413 1.160 . S
O411 C410 1.306 . S
O411 Cd412 2.228 . S
Cd412 O411 2.228 . S
Cd412 O416 2.273 . S
Cd412 O420 2.277 . S
O413 C410 1.160 . S
O413 Cd414 2.203 . S
Cd414 O413 2.203 . S
Cd414 O416 2.411 . S
Cd414 O417 2.333 . S
Cd414 O418 2.352 . S
Cd414 O422 2.277 . S
Cd414 O423 2.356 . S
C415 O420 1.209 . S
C415 O422 1.226 . S
O416 Cd412 2.273 . S
O416 Cd414 2.411 . S
O416 C419 1.320 . S
O417 Cd414 2.333 . S
O417 C419 1.214 . S
O418 Cd414 2.352 . S
O418 C421 1.258 . S
C419 O416 1.320 . S
C419 O417 1.214 . S
O420 Cd412 2.277 . S
O420 C415 1.209 . S
C421 O418 1.258 . S
C421 O423 1.282 . S
O422 Cd414 2.277 . S
O422 C415 1.226 . S
O423 Cd414 2.356 . S
O423 C421 1.282 . S
C424 O425 1.306 . S
C424 O427 1.160 . S
O425 C424 1.306 . S
O425 Cd426 2.228 . S
Cd426 O425 2.228 . S
Cd426 O430 2.273 . S
Cd426 O434 2.277 . S
O427 C424 1.160 . S
O427 Cd428 2.203 . S
Cd428 O427 2.203 . S
Cd428 O430 2.411 . S
Cd428 O431 2.333 . S
Cd428 O432 2.352 . S
Cd428 O436 2.277 . S
Cd428 O437 2.356 . S
C429 O434 1.209 . S
C429 O436 1.226 . S
O430 Cd426 2.273 . S
O430 Cd428 2.411 . S
O430 C433 1.320 . S
O431 Cd428 2.333 . S
O431 C433 1.214 . S
O432 Cd428 2.352 . S
O432 C435 1.258 . S
C433 O430 1.320 . S
C433 O431 1.214 . S
O434 Cd426 2.277 . S
O434 C429 1.209 . S
C435 O432 1.258 . S
C435 O437 1.282 . S
O436 Cd428 2.277 . S
O436 C429 1.226 . S
O437 Cd428 2.356 . S
O437 C435 1.282 . S
C438 O439 1.306 . S
C438 O441 1.160 . S
O439 C438 1.306 . S
O439 Cd440 2.228 . S
Cd440 O439 2.228 . S
Cd440 O444 2.273 . S
Cd440 O448 2.277 . S
O441 C438 1.160 . S
O441 Cd442 2.203 . S
Cd442 O441 2.203 . S
Cd442 O444 2.411 . S
Cd442 O445 2.333 . S
Cd442 O446 2.352 . S
Cd442 O450 2.277 . S
Cd442 O451 2.356 . S
C443 O448 1.209 . S
C443 O450 1.226 . S
O444 Cd440 2.273 . S
O444 Cd442 2.411 . S
O444 C447 1.320 . S
O445 Cd442 2.333 . S
O445 C447 1.214 . S
O446 Cd442 2.352 . S
O446 C449 1.258 . S
C447 O444 1.320 . S
C447 O445 1.214 . S
O448 Cd440 2.277 . S
O448 C443 1.209 . S
C449 O446 1.258 . S
C449 O451 1.282 . S
O450 Cd442 2.277 . S
O450 C443 1.226 . S
O451 Cd442 2.356 . S
O451 C449 1.282 . S
C452 O453 1.306 . S
C452 O455 1.160 . S
O453 C452 1.306 . S
O453 Cd454 2.228 . S
Cd454 O453 2.228 . S
Cd454 O458 2.273 1_556 S
Cd454 O462 2.277 . S
O455 C452 1.160 . S
O455 Cd456 2.203 1_556 S
Cd456 O455 2.203 1_554 S
Cd456 O458 2.411 . S
Cd456 O459 2.333 . S
Cd456 O460 2.352 . S
Cd456 O464 2.277 1_554 S
Cd456 O465 2.356 . S
C457 O462 1.209 . S
C457 O464 1.226 . S
O458 Cd454 2.273 1_554 S
O458 Cd456 2.411 . S
O458 C461 1.320 . S
O459 Cd456 2.333 . S
O459 C461 1.214 . S
O460 Cd456 2.352 . S
O460 C463 1.258 . S
C461 O458 1.320 . S
C461 O459 1.214 . S
O462 Cd454 2.277 . S
O462 C457 1.209 . S
C463 O460 1.258 . S
C463 O465 1.282 . S
O464 Cd456 2.277 1_556 S
O464 C457 1.226 . S
O465 Cd456 2.356 . S
O465 C463 1.282 . S
C466 O467 1.306 . S
C466 O469 1.160 . S
O467 C466 1.306 . S
O467 Cd468 2.228 . S
Cd468 O467 2.228 . S
Cd468 O472 2.273 . S
Cd468 O476 2.277 . S
O469 C466 1.160 . S
O469 Cd470 2.203 . S
Cd470 O469 2.203 . S
Cd470 O472 2.411 . S
Cd470 O473 2.333 . S
Cd470 O474 2.352 . S
Cd470 O478 2.277 . S
Cd470 O479 2.356 . S
C471 O476 1.209 . S
C471 O478 1.226 . S
O472 Cd468 2.273 . S
O472 Cd470 2.411 . S
O472 C475 1.320 . S
O473 Cd470 2.333 . S
O473 C475 1.214 . S
O474 Cd470 2.352 . S
O474 C477 1.258 . S
C475 O472 1.320 . S
C475 O473 1.214 . S
O476 Cd468 2.277 . S
O476 C471 1.209 . S
C477 O474 1.258 . S
C477 O479 1.282 . S
O478 Cd470 2.277 . S
O478 C471 1.226 . S
O479 Cd470 2.356 . S
O479 C477 1.282 . S
C480 C481 1.363 . S
C480 C486 1.379 . S
C480 N488 1.356 . S
C481 C480 1.363 . S
C481 C487 1.363 . S
C482 C483 1.363 . S
C482 C487 1.379 . S
C482 N489 1.356 . S
C483 C482 1.363 . S
C483 C486 1.363 . S
N484 C486 1.356 . S
N484 H496 0.984 . S
N484 H497 0.985 . S
N485 C487 1.356 . S
N485 H490 0.984 . S
N485 H491 0.985 . S
C486 C480 1.379 . S
C486 C483 1.363 . S
C486 N484 1.356 . S
C487 C481 1.363 . S
C487 C482 1.379 . S
C487 N485 1.356 . S
N488 C480 1.356 . S
N488 H494 0.984 . S
N488 H495 0.984 . S
N489 C482 1.356 . S
N489 H492 0.984 . S
N489 H493 0.985 . S
H490 N485 0.984 . S
H491 N485 0.985 . S
H492 N489 0.984 . S
H493 N489 0.985 . S
H494 N488 0.984 . S
H495 N488 0.984 . S
H496 N484 0.984 . S
H497 N484 0.985 . S
C498 C499 1.363 . S
C498 C504 1.379 . S
C498 N506 1.356 . S
C499 C498 1.363 . S
C499 C505 1.363 . S
C500 C501 1.363 . S
C500 C505 1.379 . S
C500 N507 1.356 . S
C501 C500 1.363 . S
C501 C504 1.363 . S
N502 C504 1.356 . S
N502 H514 0.984 . S
N502 H515 0.985 . S
N503 C505 1.356 . S
N503 H508 0.984 . S
N503 H509 0.985 . S
C504 C498 1.379 . S
C504 C501 1.363 . S
C504 N502 1.356 . S
C505 C499 1.363 . S
C505 C500 1.379 . S
C505 N503 1.356 . S
N506 C498 1.356 . S
N506 H512 0.984 . S
N506 H513 0.984 . S
N507 C500 1.356 . S
N507 H510 0.984 . S
N507 H511 0.985 . S
H508 N503 0.984 . S
H509 N503 0.985 . S
H510 N507 0.984 . S
H511 N507 0.985 . S
H512 N506 0.984 . S
H513 N506 0.984 . S
H514 N502 0.984 . S
H515 N502 0.985 . S
C516 C517 1.363 . S
C516 C522 1.379 . S
C516 N524 1.356 . S
C517 C516 1.363 . S
C517 C523 1.363 . S
C518 C519 1.363 . S
C518 C523 1.379 . S
C518 N525 1.356 . S
C519 C518 1.363 . S
C519 C522 1.363 . S
N520 C522 1.356 . S
N520 H532 0.984 . S
N520 H533 0.985 . S
N521 C523 1.356 . S
N521 H526 0.984 . S
N521 H527 0.985 . S
C522 C516 1.379 . S
C522 C519 1.363 . S
C522 N520 1.356 . S
C523 C517 1.363 . S
C523 C518 1.379 . S
C523 N521 1.356 . S
N524 C516 1.356 . S
N524 H530 0.984 . S
N524 H531 0.984 . S
N525 C518 1.356 . S
N525 H528 0.984 . S
N525 H529 0.985 . S
H526 N521 0.984 . S
H527 N521 0.985 . S
H528 N525 0.984 . S
H529 N525 0.985 . S
H530 N524 0.984 . S
H531 N524 0.984 . S
H532 N520 0.984 . S
H533 N520 0.985 . S
C534 C535 1.363 . S
C534 C540 1.379 . S
C534 N542 1.356 1_554 S
C535 C534 1.363 . S
C535 C541 1.363 . S
C536 C537 1.363 . S
C536 C541 1.379 . S
C536 N543 1.356 . S
C537 C536 1.363 . S
C537 C540 1.363 . S
N538 C540 1.356 1_556 S
N538 H550 0.984 . S
N538 H551 0.985 . S
N539 C541 1.356 . S
N539 H544 0.984 . S
N539 H545 0.985 . S
C540 C534 1.379 . S
C540 C537 1.363 . S
C540 N538 1.356 1_554 S
C541 C535 1.363 . S
C541 C536 1.379 . S
C541 N539 1.356 . S
N542 C534 1.356 1_556 S
N542 H548 0.984 . S
N542 H549 0.971 1_556 S
N543 C536 1.356 . S
N543 H546 0.984 . S
N543 H547 0.985 . S
H544 N539 0.984 . S
H545 N539 0.985 . S
H546 N543 0.984 . S
H547 N543 0.985 . S
H548 N542 0.984 . S
H549 N542 0.971 1_554 S
H550 N538 0.984 . S
H551 N538 0.985 . S
C552 C553 1.363 1_554 S
C552 C558 1.379 . S
C552 N560 1.356 . S
C553 C552 1.363 1_556 S
C553 C559 1.363 . S
C554 C555 1.363 . S
C554 C559 1.379 . S
C554 N561 1.356 . S
C555 C554 1.363 . S
C555 C558 1.363 1_556 S
N556 C558 1.356 . S
N556 H568 0.984 . S
N556 H569 0.985 . S
N557 C559 1.356 . S
N557 H562 0.984 . S
N557 H563 0.985 . S
C558 C552 1.379 . S
C558 C555 1.363 1_554 S
C558 N556 1.356 . S
C559 C553 1.363 . S
C559 C554 1.379 . S
C559 N557 1.356 . S
N560 C552 1.356 . S
N560 H566 0.984 . S
N560 H567 0.984 . S
N561 C554 1.356 . S
N561 H564 0.984 . S
N561 H565 0.985 . S
H562 N557 0.984 . S
H563 N557 0.985 . S
H564 N561 0.984 . S
H565 N561 0.985 . S
H566 N560 0.984 . S
H567 N560 0.984 . S
H568 N556 0.984 . S
H569 N556 0.985 . S
C570 C571 1.363 . S
C570 C576 1.379 . S
C570 N578 1.356 . S
C571 C570 1.363 . S
C571 C577 1.363 . S
C572 C573 1.363 . S
C572 C577 1.379 . S
C572 N579 1.356 . S
C573 C572 1.363 . S
C573 C576 1.363 . S
N574 C576 1.356 . S
N574 H586 0.984 . S
N574 H587 0.985 . S
N575 C577 1.356 . S
N575 H580 0.984 . S
N575 H581 0.985 . S
C576 C570 1.379 . S
C576 C573 1.363 . S
C576 N574 1.356 . S
C577 C571 1.363 . S
C577 C572 1.379 . S
C577 N575 1.356 . S
N578 C570 1.356 . S
N578 H584 0.984 . S
N578 H585 0.984 . S
N579 C572 1.356 . S
N579 H582 0.984 . S
N579 H583 0.985 . S
H580 N575 0.984 . S
H581 N575 0.985 . S
H582 N579 0.984 . S
H583 N579 0.985 . S
H584 N578 0.984 . S
H585 N578 0.984 . S
H586 N574 0.984 . S
H587 N574 0.985 . S
C588 C589 1.363 . S
C588 C594 1.379 . S
C588 N596 1.356 . S
C589 C588 1.363 . S
C589 C595 1.363 . S
C590 C591 1.363 . S
C590 C595 1.379 . S
C590 N597 1.356 . S
C591 C590 1.363 . S
C591 C594 1.363 . S
N592 C594 1.356 . S
N592 H604 0.984 . S
N592 H605 0.985 . S
N593 C595 1.356 . S
N593 H598 0.984 . S
N593 H599 0.985 . S
C594 C588 1.379 . S
C594 C591 1.363 . S
C594 N592 1.356 . S
C595 C589 1.363 . S
C595 C590 1.379 . S
C595 N593 1.356 . S
N596 C588 1.356 . S
N596 H602 0.984 . S
N596 H603 0.984 . S
N597 C590 1.356 . S
N597 H600 0.984 . S
N597 H601 0.985 . S
H598 N593 0.984 . S
H599 N593 0.985 . S
H600 N597 0.984 . S
H601 N597 0.985 . S
H602 N596 0.984 . S
H603 N596 0.984 . S
H604 N592 0.984 . S
H605 N592 0.985 . S
C606 C607 1.363 . S
C606 C612 1.379 . S
C606 N614 1.356 . S
C607 C606 1.363 . S
C607 C613 1.363 . S
C608 C609 1.363 . S
C608 C613 1.379 . S
C608 N615 1.356 . S
C609 C608 1.363 . S
C609 C612 1.363 . S
N610 C612 1.356 . S
N610 H622 0.984 . S
N610 H623 0.985 . S
N611 C613 1.356 . S
N611 H616 0.984 . S
N611 H617 0.985 . S
C612 C606 1.379 . S
C612 C609 1.363 . S
C612 N610 1.356 . S
C613 C607 1.363 . S
C613 C608 1.379 . S
C613 N611 1.356 . S
N614 C606 1.356 . S
N614 H620 0.984 . S
N614 H621 0.984 . S
N615 C608 1.356 . S
N615 H618 0.984 . S
N615 H619 0.985 . S
H616 N611 0.984 . S
H617 N611 0.985 . S
H618 N615 0.984 . S
H619 N615 0.985 . S
H620 N614 0.984 . S
H621 N614 0.984 . S
H622 N610 0.984 . S
H623 N610 0.985 . S
C624 C625 1.363 . S
C624 C630 1.379 . S
C624 N632 1.356 . S
C625 C624 1.363 . S
C625 C631 1.363 . S
C626 C627 1.363 . S
C626 C631 1.379 . S
C626 N633 1.356 . S
C627 C626 1.363 . S
C627 C630 1.363 . S
N628 C630 1.356 . S
N628 H640 0.984 . S
N628 H641 0.985 . S
N629 C631 1.356 . S
N629 H634 0.984 . S
N629 H635 0.985 . S
C630 C624 1.379 . S
C630 C627 1.363 . S
C630 N628 1.356 . S
C631 C625 1.363 . S
C631 C626 1.379 . S
C631 N629 1.356 . S
N632 C624 1.356 . S
N632 H638 0.984 . S
N632 H639 0.984 . S
N633 C626 1.356 . S
N633 H636 0.984 . S
N633 H637 0.985 . S
H634 N629 0.984 . S
H635 N629 0.985 . S
H636 N633 0.984 . S
H637 N633 0.985 . S
H638 N632 0.984 . S
H639 N632 0.984 . S
H640 N628 0.984 . S
H641 N628 0.985 . S
C642 C643 1.363 . S
C642 C648 1.379 . S
C642 N650 1.356 1_554 S
C643 C642 1.363 . S
C643 C649 1.363 . S
C644 C645 1.363 . S
C644 C649 1.379 . S
C644 N651 1.356 . S
C645 C644 1.363 . S
C645 C648 1.363 . S
N646 C648 1.356 1_556 S
N646 H658 0.984 . S
N646 H659 0.985 . S
N647 C649 1.356 . S
N647 H652 0.984 . S
N647 H653 0.985 . S
C648 C642 1.379 . S
C648 C645 1.363 . S
C648 N646 1.356 1_554 S
C649 C643 1.363 . S
C649 C644 1.379 . S
C649 N647 1.356 . S
N650 C642 1.356 1_556 S
N650 H656 0.984 . S
N650 H657 0.984 1_556 S
N651 C644 1.356 . S
N651 H654 0.984 . S
N651 H655 0.985 . S
H652 N647 0.984 . S
H653 N647 0.985 . S
H654 N651 0.984 . S
H655 N651 0.985 . S
H656 N650 0.984 . S
H657 N650 0.984 1_554 S
H658 N646 0.984 . S
H659 N646 0.985 . S
C660 C661 1.363 . S
C660 C666 1.379 . S
C660 N668 1.356 . S
C661 C660 1.363 . S
C661 C667 1.363 . S
C662 C663 1.363 . S
C662 C667 1.379 . S
C662 N669 1.356 . S
C663 C662 1.363 . S
C663 C666 1.363 . S
N664 C666 1.356 . S
N664 H676 0.984 . S
N664 H677 0.985 . S
N665 C667 1.356 . S
N665 H670 0.984 . S
N665 H671 0.985 . S
C666 C660 1.379 . S
C666 C663 1.363 . S
C666 N664 1.356 . S
C667 C661 1.363 . S
C667 C662 1.379 . S
C667 N665 1.356 . S
N668 C660 1.356 . S
N668 H674 0.984 . S
N668 H675 0.984 . S
N669 C662 1.356 . S
N669 H672 0.984 . S
N669 H673 0.985 . S
H670 N665 0.984 . S
H671 N665 0.985 . S
H672 N669 0.984 . S
H673 N669 0.985 . S
H674 N668 0.984 . S
H675 N668 0.984 . S
H676 N664 0.984 . S
H677 N664 0.985 . S
C678 C679 1.363 . S
C678 C684 1.379 . S
C678 N686 1.356 . S
C679 C678 1.363 . S
C679 C685 1.363 . S
C680 C681 1.363 . S
C680 C685 1.379 . S
C680 N687 1.356 . S
C681 C680 1.363 . S
C681 C684 1.363 . S
N682 C684 1.356 . S
N682 H694 0.984 . S
N682 H695 0.985 . S
N683 C685 1.356 . S
N683 H688 0.984 . S
N683 H689 0.985 . S
C684 C678 1.379 . S
C684 C681 1.363 . S
C684 N682 1.356 . S
C685 C679 1.363 . S
C685 C680 1.379 . S
C685 N683 1.356 . S
N686 C678 1.356 . S
N686 H692 0.984 . S
N686 H693 0.984 . S
N687 C680 1.356 . S
N687 H690 0.984 . S
N687 H691 0.985 . S
H688 N683 0.984 . S
H689 N683 0.985 . S
H690 N687 0.984 . S
H691 N687 0.985 . S
H692 N686 0.984 . S
H693 N686 0.984 . S
H694 N682 0.984 . S
H695 N682 0.985 . S
C696 C697 1.363 . S
C696 C702 1.379 . S
C696 N704 1.356 . S
C697 C696 1.363 . S
C697 C703 1.363 . S
C698 C699 1.363 . S
C698 C703 1.379 . S
C698 N705 1.356 . S
C699 C698 1.363 . S
C699 C702 1.363 . S
N700 C702 1.356 . S
N700 H712 0.984 . S
N700 H713 0.985 . S
N701 C703 1.356 . S
N701 H706 0.984 . S
N701 H707 0.985 . S
C702 C696 1.379 . S
C702 C699 1.363 . S
C702 N700 1.356 . S
C703 C697 1.363 . S
C703 C698 1.379 . S
C703 N701 1.356 . S
N704 C696 1.356 . S
N704 H710 0.984 . S
N704 H711 0.984 . S
N705 C698 1.356 . S
N705 H708 0.984 . S
N705 H709 0.985 . S
H706 N701 0.984 . S
H707 N701 0.985 . S
H708 N705 0.984 . S
H709 N705 0.985 . S
H710 N704 0.984 . S
H711 N704 0.984 . S
H712 N700 0.984 . S
H713 N700 0.985 . S
C714 C715 1.363 . S
C714 C720 1.379 . S
C714 N722 1.356 . S
C715 C714 1.363 . S
C715 C721 1.363 . S
C716 C717 1.363 . S
C716 C721 1.379 . S
C716 N723 1.356 . S
C717 C716 1.363 . S
C717 C720 1.363 . S
N718 C720 1.356 . S
N718 H730 0.984 . S
N718 H731 0.985 . S
N719 C721 1.356 . S
N719 H724 0.984 . S
N719 H725 0.985 . S
C720 C714 1.379 . S
C720 C717 1.363 . S
C720 N718 1.356 . S
C721 C715 1.363 . S
C721 C716 1.379 . S
C721 N719 1.356 . S
N722 C714 1.356 . S
N722 H728 0.984 . S
N722 H729 0.984 . S
N723 C716 1.356 . S
N723 H726 0.984 . S
N723 H727 0.985 . S
H724 N719 0.984 . S
H725 N719 0.985 . S
H726 N723 0.984 . S
H727 N723 0.985 . S
H728 N722 0.984 . S
H729 N722 0.984 . S
H730 N718 0.984 . S
H731 N718 0.985 . S
C732 C733 1.363 . S
C732 C738 1.379 . S
C732 N740 1.356 . S
C733 C732 1.363 . S
C733 C739 1.363 1_556 S
C734 C735 1.363 1_554 S
C734 C739 1.379 . S
C734 N741 1.356 . S
C735 C734 1.363 1_556 S
C735 C738 1.363 . S
N736 C738 1.356 . S
N736 H748 0.984 . S
N736 H749 0.985 . S
N737 C739 1.356 . S
N737 H742 0.984 . S
N737 H743 0.985 . S
C738 C732 1.379 . S
C738 C735 1.363 . S
C738 N736 1.356 . S
C739 C733 1.363 1_554 S
C739 C734 1.379 . S
C739 N737 1.356 . S
N740 C732 1.356 . S
N740 H746 0.984 . S
N740 H747 0.984 . S
N741 C734 1.356 . S
N741 H744 0.984 . S
N741 H745 0.985 . S
H742 N737 0.984 . S
H743 N737 0.985 . S
H744 N741 0.984 . S
H745 N741 0.985 . S
H746 N740 0.984 . S
H747 N740 0.984 . S
H748 N736 0.984 . S
H749 N736 0.985 . S
C750 C751 1.363 . S
C750 C756 1.379 . S
C750 N758 1.356 . S
C751 C750 1.363 . S
C751 C757 1.363 . S
C752 C753 1.363 . S
C752 C757 1.379 . S
C752 N759 1.356 . S
C753 C752 1.363 . S
C753 C756 1.363 . S
N754 C756 1.356 . S
N754 H766 0.984 . S
N754 H767 0.985 . S
N755 C757 1.356 . S
N755 H760 0.984 . S
N755 H761 0.985 . S
C756 C750 1.379 . S
C756 C753 1.363 . S
C756 N754 1.356 . S
C757 C751 1.363 . S
C757 C752 1.379 . S
C757 N755 1.356 . S
N758 C750 1.356 . S
N758 H764 0.984 . S
N758 H765 0.984 . S
N759 C752 1.356 . S
N759 H762 0.984 . S
N759 H763 0.985 . S
H760 N755 0.984 . S
H761 N755 0.985 . S
H762 N759 0.984 . S
H763 N759 0.985 . S
H764 N758 0.984 . S
H765 N758 0.984 . S
H766 N754 0.984 . S
H767 N754 0.985 . S
C768 C769 1.363 . S
C768 C774 1.379 . S
C768 N776 1.356 . S
C769 C768 1.363 . S
C769 C775 1.363 . S
C770 C771 1.363 . S
C770 C775 1.379 . S
C770 N777 1.356 . S
C771 C770 1.363 . S
C771 C774 1.363 . S
N772 C774 1.356 . S
N772 H784 0.984 . S
N772 H785 0.985 . S
N773 C775 1.356 . S
N773 H778 0.984 . S
N773 H779 0.985 1_565 S
C774 C768 1.379 . S
C774 C771 1.363 . S
C774 N772 1.356 . S
C775 C769 1.363 . S
C775 C770 1.379 . S
C775 N773 1.356 . S
N776 C768 1.356 . S
N776 H782 0.984 . S
N776 H783 0.984 . S
N777 C770 1.356 . S
N777 H780 0.984 . S
N777 H781 0.985 . S
H778 N773 0.984 . S
H779 N773 0.985 1_545 S
H780 N777 0.984 . S
H781 N777 0.985 . S
H782 N776 0.984 . S
H783 N776 0.984 . S
H784 N772 0.984 . S
H785 N772 0.985 . S
C786 C787 1.363 . S
C786 C792 1.379 . S
C786 N794 1.356 . S
C787 C786 1.363 . S
C787 C793 1.363 . S
C788 C789 1.363 . S
C788 C793 1.379 . S
C788 N795 1.356 . S
C789 C788 1.363 . S
C789 C792 1.363 . S
N790 C792 1.356 . S
N790 H802 0.984 . S
N790 H803 0.985 . S
N791 C793 1.356 . S
N791 H796 0.984 . S
N791 H797 0.985 . S
C792 C786 1.379 . S
C792 C789 1.363 . S
C792 N790 1.356 . S
C793 C787 1.363 . S
C793 C788 1.379 . S
C793 N791 1.356 . S
N794 C786 1.356 . S
N794 H800 0.984 . S
N794 H801 0.984 . S
N795 C788 1.356 . S
N795 H798 0.984 . S
N795 H799 0.985 . S
H796 N791 0.984 . S
H797 N791 0.985 . S
H798 N795 0.984 . S
H799 N795 0.985 . S
H800 N794 0.984 . S
H801 N794 0.984 . S
H802 N790 0.984 . S
H803 N790 0.985 . S
C804 C805 1.363 . S
C804 C810 1.379 . S
C804 N812 1.356 . S
C805 C804 1.363 . S
C805 C811 1.363 . S
C806 C807 1.363 . S
C806 C811 1.379 . S
C806 N813 1.356 . S
C807 C806 1.363 . S
C807 C810 1.363 . S
N808 C810 1.356 . S
N808 H820 0.984 . S
N808 H821 0.985 . S
N809 C811 1.356 . S
N809 H814 0.984 . S
N809 H815 0.985 . S
C810 C804 1.379 . S
C810 C807 1.363 . S
C810 N808 1.356 . S
C811 C805 1.363 . S
C811 C806 1.379 . S
C811 N809 1.356 . S
N812 C804 1.356 . S
N812 H818 0.984 . S
N812 H819 0.984 . S
N813 C806 1.356 . S
N813 H816 0.984 . S
N813 H817 0.985 . S
H814 N809 0.984 . S
H815 N809 0.985 . S
H816 N813 0.984 . S
H817 N813 0.985 . S
H818 N812 0.984 . S
H819 N812 0.984 . S
H820 N808 0.984 . S
H821 N808 0.985 . S
C822 C823 1.363 . S
C822 C828 1.379 . S
C822 N830 1.356 . S
C823 C822 1.363 . S
C823 C829 1.363 . S
C824 C825 1.363 . S
C824 C829 1.379 . S
C824 N831 1.356 . S
C825 C824 1.363 . S
C825 C828 1.363 . S
N826 C828 1.356 . S
N826 H838 0.984 . S
N826 H839 0.985 . S
N827 C829 1.356 . S
N827 H832 0.984 . S
N827 H833 0.985 . S
C828 C822 1.379 . S
C828 C825 1.363 . S
C828 N826 1.356 . S
C829 C823 1.363 . S
C829 C824 1.379 . S
C829 N827 1.356 . S
N830 C822 1.356 . S
N830 H836 0.984 . S
N830 H837 0.984 . S
N831 C824 1.356 . S
N831 H834 0.984 . S
N831 H835 0.985 . S
H832 N827 0.984 . S
H833 N827 0.985 . S
H834 N831 0.984 . S
H835 N831 0.985 . S
H836 N830 0.984 . S
H837 N830 0.984 . S
H838 N826 0.984 . S
H839 N826 0.985 . S
C840 C841 1.363 . S
C840 C846 1.379 . S
C840 N848 1.356 . S
C841 C840 1.363 . S
C841 C847 1.363 . S
C842 C843 1.363 . S
C842 C847 1.379 . S
C842 N849 1.356 . S
C843 C842 1.363 . S
C843 C846 1.363 . S
N844 C846 1.356 . S
N844 H856 0.984 . S
N844 H857 0.985 . S
N845 C847 1.356 . S
N845 H850 0.984 . S
N845 H851 0.985 . S
C846 C840 1.379 . S
C846 C843 1.363 . S
C846 N844 1.356 . S
C847 C841 1.363 . S
C847 C842 1.379 . S
C847 N845 1.356 . S
N848 C840 1.356 . S
N848 H854 0.984 . S
N848 H855 0.984 . S
N849 C842 1.356 . S
N849 H852 0.984 . S
N849 H853 0.985 . S
H850 N845 0.984 . S
H851 N845 0.985 . S
H852 N849 0.984 . S
H853 N849 0.985 . S
H854 N848 0.984 . S
H855 N848 0.984 . S
H856 N844 0.984 . S
H857 N844 0.985 . S
C858 C859 1.363 . S
C858 C864 1.379 . S
C858 N866 1.356 . S
C859 C858 1.363 . S
C859 C865 1.363 . S
C860 C861 1.363 . S
C860 C865 1.379 . S
C860 N867 1.356 . S
C861 C860 1.363 . S
C861 C864 1.363 . S
N862 C864 1.356 . S
N862 H874 0.984 . S
N862 H875 0.985 . S
N863 C865 1.356 . S
N863 H868 0.984 . S
N863 H869 0.985 . S
C864 C858 1.379 . S
C864 C861 1.363 . S
C864 N862 1.356 . S
C865 C859 1.363 . S
C865 C860 1.379 . S
C865 N863 1.356 . S
N866 C858 1.356 . S
N866 H872 0.984 . S
N866 H873 0.984 . S
N867 C860 1.356 . S
N867 H870 0.984 . S
N867 H871 0.985 . S
H868 N863 0.984 . S
H869 N863 0.985 . S
H870 N867 0.984 . S
H871 N867 0.985 . S
H872 N866 0.984 . S
H873 N866 0.984 . S
H874 N862 0.984 . S
H875 N862 0.985 . S
C876 C877 1.363 . S
C876 C882 1.379 . S
C876 N884 1.356 . S
C877 C876 1.363 . S
C877 C883 1.363 . S
C878 C879 1.363 . S
C878 C883 1.379 . S
C878 N885 1.356 . S
C879 C878 1.363 . S
C879 C882 1.363 . S
N880 C882 1.356 . S
N880 H892 0.984 . S
N880 H893 0.985 . S
N881 C883 1.356 . S
N881 H886 0.984 . S
N881 H887 0.985 . S
C882 C876 1.379 . S
C882 C879 1.363 . S
C882 N880 1.356 . S
C883 C877 1.363 . S
C883 C878 1.379 . S
C883 N881 1.356 . S
N884 C876 1.356 . S
N884 H890 0.984 . S
N884 H891 0.984 . S
N885 C878 1.356 . S
N885 H888 0.984 . S
N885 H889 0.985 . S
H886 N881 0.984 . S
H887 N881 0.985 . S
H888 N885 0.984 . S
H889 N885 0.985 . S
H890 N884 0.984 . S
H891 N884 0.984 . S
H892 N880 0.984 . S
H893 N880 0.985 . S
C894 C895 1.363 . S
C894 C900 1.379 . S
C894 N902 1.356 . S
C895 C894 1.363 . S
C895 C901 1.363 . S
C896 C897 1.363 . S
C896 C901 1.379 . S
C896 N903 1.356 . S
C897 C896 1.363 . S
C897 C900 1.363 . S
N898 C900 1.356 . S
N898 H910 0.984 . S
N898 H911 0.985 . S
N899 C901 1.356 . S
N899 H904 0.984 . S
N899 H905 0.985 . S
C900 C894 1.379 . S
C900 C897 1.363 . S
C900 N898 1.356 . S
C901 C895 1.363 . S
C901 C896 1.379 . S
C901 N899 1.356 . S
N902 C894 1.356 . S
N902 H908 0.984 . S
N902 H909 0.984 . S
N903 C896 1.356 . S
N903 H906 0.984 . S
N903 H907 0.985 . S
H904 N899 0.984 . S
H905 N899 0.985 . S
H906 N903 0.984 . S
H907 N903 0.985 . S
H908 N902 0.984 . S
H909 N902 0.984 . S
H910 N898 0.984 . S
H911 N898 0.985 . S
C912 C913 1.363 . S
C912 C918 1.379 . S
C912 N920 1.356 . S
C913 C912 1.363 . S
C913 C919 1.363 . S
C914 C915 1.363 . S
C914 C919 1.379 . S
C914 N921 1.356 . S
C915 C914 1.363 . S
C915 C918 1.363 . S
N916 C918 1.356 . S
N916 H928 0.984 . S
N916 H929 0.985 . S
N917 C919 1.356 . S
N917 H922 0.984 . S
N917 H923 0.985 . S
C918 C912 1.379 . S
C918 C915 1.363 . S
C918 N916 1.356 . S
C919 C913 1.363 . S
C919 C914 1.379 . S
C919 N917 1.356 . S
N920 C912 1.356 . S
N920 H926 0.984 . S
N920 H927 0.984 . S
N921 C914 1.356 . S
N921 H924 0.984 . S
N921 H925 0.985 . S
H922 N917 0.984 . S
H923 N917 0.985 . S
H924 N921 0.984 . S
H925 N921 0.985 . S
H926 N920 0.984 . S
H927 N920 0.984 . S
H928 N916 0.984 . S
H929 N916 0.985 . S
C930 C931 1.363 . S
C930 C936 1.379 . S
C930 N938 1.356 . S
C931 C930 1.363 . S
C931 C937 1.363 . S
C932 C933 1.363 . S
C932 C937 1.379 . S
C932 N939 1.356 . S
C933 C932 1.363 . S
C933 C936 1.363 . S
N934 C936 1.356 . S
N934 H946 0.984 . S
N934 H947 0.985 . S
N935 C937 1.356 . S
N935 H940 0.984 . S
N935 H941 0.985 . S
C936 C930 1.379 . S
C936 C933 1.363 . S
C936 N934 1.356 . S
C937 C931 1.363 . S
C937 C932 1.379 . S
C937 N935 1.356 . S
N938 C930 1.356 . S
N938 H944 0.984 . S
N938 H945 0.984 . S
N939 C932 1.356 . S
N939 H942 0.984 . S
N939 H943 0.985 . S
H940 N935 0.984 . S
H941 N935 0.985 . S
H942 N939 0.984 . S
H943 N939 0.985 . S
H944 N938 0.984 . S
H945 N938 0.984 . S
H946 N934 0.984 . S
H947 N934 0.985 . S
C948 C949 1.363 . S
C948 C954 1.379 . S
C948 N956 1.356 . S
C949 C948 1.363 . S
C949 C955 1.363 . S
C950 C951 1.363 . S
C950 C955 1.379 . S
C950 N957 1.356 . S
C951 C950 1.363 . S
C951 C954 1.363 . S
N952 C954 1.356 . S
N952 H964 0.984 . S
N952 H965 0.985 . S
N953 C955 1.356 . S
N953 H958 0.984 . S
N953 H959 0.985 . S
C954 C948 1.379 . S
C954 C951 1.363 . S
C954 N952 1.356 . S
C955 C949 1.363 . S
C955 C950 1.379 . S
C955 N953 1.356 . S
N956 C948 1.356 . S
N956 H962 0.984 . S
N956 H963 0.984 . S
N957 C950 1.356 . S
N957 H960 0.984 . S
N957 H961 0.985 . S
H958 N953 0.984 . S
H959 N953 0.985 . S
H960 N957 0.984 . S
H961 N957 0.985 . S
H962 N956 0.984 . S
H963 N956 0.984 . S
H964 N952 0.984 . S
H965 N952 0.985 . S
C966 C967 1.363 . S
C966 C972 1.379 . S
C966 N974 1.356 . S
C967 C966 1.363 . S
C967 C973 1.363 . S
C968 C969 1.363 . S
C968 C973 1.379 . S
C968 N975 1.356 . S
C969 C968 1.363 . S
C969 C972 1.363 . S
N970 C972 1.356 . S
N970 H982 0.984 . S
N970 H983 0.985 . S
N971 C973 1.356 . S
N971 H976 0.984 . S
N971 H977 0.985 . S
C972 C966 1.379 . S
C972 C969 1.363 . S
C972 N970 1.356 . S
C973 C967 1.363 . S
C973 C968 1.379 . S
C973 N971 1.356 . S
N974 C966 1.356 . S
N974 H980 0.984 . S
N974 H981 0.984 . S
N975 C968 1.356 . S
N975 H978 0.984 . S
N975 H979 0.985 . S
H976 N971 0.984 . S
H977 N971 0.985 . S
H978 N975 0.984 . S
H979 N975 0.985 . S
H980 N974 0.984 . S
H981 N974 0.984 . S
H982 N970 0.984 . S
H983 N970 0.985 . S
C984 C985 1.363 . S
C984 C990 1.379 . S
C984 N992 1.356 . S
C985 C984 1.363 . S
C985 C991 1.363 . S
C986 C987 1.363 . S
C986 C991 1.379 . S
C986 N993 1.356 . S
C987 C986 1.363 . S
C987 C990 1.363 . S
N988 C990 1.356 . S
N988 H1000 0.984 . S
N988 H1001 0.985 . S
N989 C991 1.356 . S
N989 H994 0.984 . S
N989 H995 0.985 . S
C990 C984 1.379 . S
C990 C987 1.363 . S
C990 N988 1.356 . S
C991 C985 1.363 . S
C991 C986 1.379 . S
C991 N989 1.356 . S
N992 C984 1.356 . S
N992 H998 0.984 . S
N992 H999 0.984 . S
N993 C986 1.356 . S
N993 H996 0.984 . S
N993 H997 0.985 . S
H994 N989 0.984 . S
H995 N989 0.985 . S
H996 N993 0.984 . S
H997 N993 0.985 . S
H998 N992 0.984 . S
H999 N992 0.984 . S
H1000 N988 0.984 . S
H1001 N988 0.985 . S
C1002 C1003 1.363 . S
C1002 C1008 1.379 . S
C1002 N1010 1.356 . S
C1003 C1002 1.363 . S
C1003 C1009 1.363 . S
C1004 C1005 1.363 . S
C1004 C1009 1.379 . S
C1004 N1011 1.356 . S
C1005 C1004 1.363 . S
C1005 C1008 1.363 . S
N1006 C1008 1.356 . S
N1006 H1018 0.984 . S
N1006 H1019 0.985 . S
N1007 C1009 1.356 . S
N1007 H1012 0.984 . S
N1007 H1013 0.985 . S
C1008 C1002 1.379 . S
C1008 C1005 1.363 . S
C1008 N1006 1.356 . S
C1009 C1003 1.363 . S
C1009 C1004 1.379 . S
C1009 N1007 1.356 . S
N1010 C1002 1.356 . S
N1010 H1016 0.984 . S
N1010 H1017 0.984 . S
N1011 C1004 1.356 . S
N1011 H1014 0.984 . S
N1011 H1015 0.985 . S
H1012 N1007 0.984 . S
H1013 N1007 0.985 . S
H1014 N1011 0.984 . S
H1015 N1011 0.985 . S
H1016 N1010 0.984 . S
H1017 N1010 0.984 . S
H1018 N1006 0.984 . S
H1019 N1006 0.985 . S
C1020 C1021 1.363 . S
C1020 C1026 1.379 . S
C1020 N1028 1.356 . S
C1021 C1020 1.363 . S
C1021 C1027 1.363 . S
C1022 C1023 1.363 . S
C1022 C1027 1.379 . S
C1022 N1029 1.356 . S
C1023 C1022 1.363 . S
C1023 C1026 1.363 . S
N1024 C1026 1.356 . S
N1024 H1036 0.984 . S
N1024 H1037 0.985 . S
N1025 C1027 1.356 . S
N1025 H1030 0.984 . S
N1025 H1031 0.985 . S
C1026 C1020 1.379 . S
C1026 C1023 1.363 . S
C1026 N1024 1.356 . S
C1027 C1021 1.363 . S
C1027 C1022 1.379 . S
C1027 N1025 1.356 . S
N1028 C1020 1.356 . S
N1028 H1034 0.984 . S
N1028 H1035 0.984 . S
N1029 C1022 1.356 . S
N1029 H1032 0.984 . S
N1029 H1033 0.985 . S
H1030 N1025 0.984 . S
H1031 N1025 0.985 . S
H1032 N1029 0.984 . S
H1033 N1029 0.985 . S
H1034 N1028 0.984 . S
H1035 N1028 0.984 . S
H1036 N1024 0.984 . S
H1037 N1024 0.985 . S
C1038 C1039 1.363 . S
C1038 C1044 1.379 . S
C1038 N1046 1.356 . S
C1039 C1038 1.363 . S
C1039 C1045 1.363 . S
C1040 C1041 1.363 . S
C1040 C1045 1.379 . S
C1040 N1047 1.356 . S
C1041 C1040 1.363 . S
C1041 C1044 1.363 . S
N1042 C1044 1.356 . S
N1042 H1054 0.984 . S
N1042 H1055 0.985 . S
N1043 C1045 1.356 . S
N1043 H1048 0.984 . S
N1043 H1049 0.985 . S
C1044 C1038 1.379 . S
C1044 C1041 1.363 . S
C1044 N1042 1.356 . S
C1045 C1039 1.363 . S
C1045 C1040 1.379 . S
C1045 N1043 1.356 . S
N1046 C1038 1.356 . S
N1046 H1052 0.984 . S
N1046 H1053 0.984 . S
N1047 C1040 1.356 . S
N1047 H1050 0.984 . S
N1047 H1051 0.985 . S
H1048 N1043 0.984 . S
H1049 N1043 0.985 . S
H1050 N1047 0.984 . S
H1051 N1047 0.985 . S
H1052 N1046 0.984 . S
H1053 N1046 0.984 . S
H1054 N1042 0.984 . S
H1055 N1042 0.985 . S
C483 C393 1.450 . S
C481 C8 1.387 . S
C501 C407 1.442 . S
C499 C61 1.388 . S
C519 C415 1.472 . S
C517 C107 1.426 . S
C535 C139 1.402 . S
C537 C373 1.451 . S
C553 C192 1.350 . S
C555 C379 1.409 1_556 S
C571 C238 1.341 . S
C573 C387 1.398 . S
C591 C401 1.507 . S
C589 C284 1.439 . S
C609 C421 1.470 . S
C607 C330 1.409 . S
C625 C100 1.359 . S
C627 C449 1.422 . S
C645 C463 1.500 . S
C643 C160 1.421 . S
C661 C15 1.346 . S
C663 C471 1.414 . S
C681 C435 1.369 . S
C679 C54 1.312 . S
C697 C291 1.413 . S
C699 C429 1.464 . S
C715 C337 1.429 . S
C717 C443 1.471 . S
C735 C457 1.463 . S
C733 C199 1.417 . S
C751 C245 1.419 . S
C753 C477 1.482 . S
C771 C396 1.675 . S
C769 C1 1.724 . S
C789 C419 1.721 . S
C787 C68 1.724 . S
C805 C114 1.752 . S
C807 C377 1.749 . S
C823 C146 1.775 . S
C825 C382 1.724 . S
C841 C185 1.658 . S
C843 C410 1.599 . S
C861 C368 1.618 . S
C859 C231 1.677 . S
C879 C391 1.656 . S
C877 C277 1.681 . S
C897 C405 1.652 . S
C895 C323 1.677 . S
C915 C452 1.602 . S
C913 C93 1.656 . S
C933 C475 1.645 . S
C931 C153 1.657 . S
C949 C22 1.649 . S
C951 C424 1.605 . S
C969 C438 1.591 . S
C967 C47 1.650 . S
C987 C466 1.717 . S
C985 C298 1.753 . S
C1003 C344 1.774 . S
C1005 C433 1.771 . S
C1023 C447 1.751 . S
C1021 C206 1.755 . S
C1041 C461 1.720 . S
C1039 C252 1.724 . S
