# Generated by pormake.
# Topology zzz, (3,6)-cn, num edge types: 1
# Building blocks:
#     Node 0, Type 0, BuildingBlock: BETDAH_clean_linker_0, # of connection points: 3
#     Node 1, Type 0, BuildingBlock: BETDAH_clean_linker_0, # of connection points: 3
#     Node 2, Type 0, BuildingBlock: BETDAH_clean_linker_0, # of connection points: 3
#     Node 3, Type 0, BuildingBlock: BETDAH_clean_linker_0, # of connection points: 3
#     Node 4, Type 0, BuildingBlock: BETDAH_clean_linker_0, # of connection points: 3
#     Node 5, Type 0, BuildingBlock: BETDAH_clean_linker_0, # of connection points: 3
#     Node 6, Type 0, BuildingBlock: BETDAH_clean_linker_0, # of connection points: 3
#     Node 7, Type 0, BuildingBlock: BETDAH_clean_linker_0, # of connection points: 3
#     Node 8, Type 1, BuildingBlock: KUMJIN_clean_sbu_1, # of connection points: 6
#     Node 9, Type 1, BuildingBlock: KUMJIN_clean_sbu_1, # of connection points: 6
#     Node 10, Type 1, BuildingBlock: KUMJIN_clean_sbu_1, # of connection points: 6
#     Node 11, Type 1, BuildingBlock: KUMJIN_clean_sbu_1, # of connection points: 6
#     Edge 12, Type (0, 1), BuildingBlock: TEMPAE_clean_linker_10, # of connection points: 2
#     Edge 13, Type (0, 1), BuildingBlock: TEMPAE_clean_linker_10, # of connection points: 2
#     Edge 14, Type (0, 1), BuildingBlock: TEMPAE_clean_linker_10, # of connection points: 2
#     Edge 15, Type (0, 1), BuildingBlock: TEMPAE_clean_linker_10, # of connection points: 2
#     Edge 16, Type (0, 1), BuildingBlock: TEMPAE_clean_linker_10, # of connection points: 2
#     Edge 17, Type (0, 1), BuildingBlock: TEMPAE_clean_linker_10, # of connection points: 2
#     Edge 18, Type (0, 1), BuildingBlock: TEMPAE_clean_linker_10, # of connection points: 2
#     Edge 19, Type (0, 1), BuildingBlock: TEMPAE_clean_linker_10, # of connection points: 2
#     Edge 20, Type (0, 1), BuildingBlock: TEMPAE_clean_linker_10, # of connection points: 2
#     Edge 21, Type (0, 1), BuildingBlock: TEMPAE_clean_linker_10, # of connection points: 2
#     Edge 22, Type (0, 1), BuildingBlock: TEMPAE_clean_linker_10, # of connection points: 2
#     Edge 23, Type (0, 1), BuildingBlock: TEMPAE_clean_linker_10, # of connection points: 2
#     Edge 24, Type (0, 1), BuildingBlock: TEMPAE_clean_linker_10, # of connection points: 2
#     Edge 25, Type (0, 1), BuildingBlock: TEMPAE_clean_linker_10, # of connection points: 2
#     Edge 26, Type (0, 1), BuildingBlock: TEMPAE_clean_linker_10, # of connection points: 2
#     Edge 27, Type (0, 1), BuildingBlock: TEMPAE_clean_linker_10, # of connection points: 2
#     Edge 28, Type (0, 1), BuildingBlock: TEMPAE_clean_linker_10, # of connection points: 2
#     Edge 29, Type (0, 1), BuildingBlock: TEMPAE_clean_linker_10, # of connection points: 2
#     Edge 30, Type (0, 1), BuildingBlock: TEMPAE_clean_linker_10, # of connection points: 2
#     Edge 31, Type (0, 1), BuildingBlock: TEMPAE_clean_linker_10, # of connection points: 2
#     Edge 32, Type (0, 1), BuildingBlock: TEMPAE_clean_linker_10, # of connection points: 2
#     Edge 33, Type (0, 1), BuildingBlock: TEMPAE_clean_linker_10, # of connection points: 2
#     Edge 34, Type (0, 1), BuildingBlock: TEMPAE_clean_linker_10, # of connection points: 2
#     Edge 35, Type (0, 1), BuildingBlock: TEMPAE_clean_linker_10, # of connection points: 2
# Relax obj value: 0.179
# Max RMSD: 0.103
# Mean RMSD: 0.080
data_MOF--net-zzz--node1-KUMJIN_clean_sbu_1--node2-BETDAH_clean_linker_0--edge1-TEMPAE_clean_linker_10
_symmetry_space_group_name_H-M    P1
_symmetry_Int_Tables_number       1
_symmetry_cell_setting            triclinic
loop_
_symmetry_equiv_pos_as_xyz
'x, y, z'
_cell_length_a     50.915845
_cell_length_b     50.900716
_cell_length_c     16.065331
_cell_angle_alpha  89.937023
_cell_angle_beta   89.924524
_cell_angle_gamma 90.230038
loop_
_atom_site_label
_atom_site_type_symbol
_atom_site_fract_x
_atom_site_fract_y
_atom_site_fract_z
_atom_type_partial_charge
H0 H 0.81013 0.5807 0.32144 0.0
H1 H 0.73619 0.5665 0.20644 0.0
H2 H 0.75763 0.52298 0.42618 0.0
C3 C 0.79071 0.57186 0.32531 0.0
C4 C 0.78638 0.55199 0.38438 0.0
C5 C 0.7744 0.57377 0.25561 0.0
C6 C 0.74882 0.5639 0.26002 0.0
C7 C 0.74209 0.54543 0.32124 0.0
C8 C 0.76142 0.53892 0.38309 0.0
N9 N 0.71771 0.53111 0.31462 0.0
C10 C 0.69934 0.53316 0.2485 0.0
H11 H 0.96508 0.81739 0.29707 0.0
H12 H 0.97507 0.73931 0.20765 0.0
H13 H 0.01518 0.76401 0.43122 0.0
C14 C 0.97319 0.79797 0.3064 0.0
C15 C 0.99048 0.79378 0.3733 0.0
C16 C 0.96969 0.77923 0.24353 0.0
C17 C 0.97853 0.75364 0.25614 0.0
C18 C 0.99506 0.74757 0.32286 0.0
C19 C 1.00126 0.76793 0.38192 0.0
N20 N 1.00728 0.72208 0.32587 0.0
C21 C 1.00538 0.7025 0.2631 0.0
H22 H 0.72509 0.98696 0.29356 0.0
H23 H 0.80224 0.99634 0.19356 0.0
H24 H 0.7894 1.00424 0.45876 0.0
C25 C 0.74597 0.98943 0.3048 0.0
C26 C 0.75463 0.99474 0.38556 0.0
C27 C 0.76306 0.99063 0.23661 0.0
C28 C 0.78975 0.99484 0.24802 0.0
C29 C 0.79992 0.99918 0.32776 0.0
C30 C 0.78206 0.99977 0.39715 0.0
N31 N 0.82756 1.00424 0.3374 0.0
C32 C 0.84589 1.0051 0.271 0.0
H33 H 0.55824 0.72692 0.27215 0.0
H34 H 0.55496 0.80643 0.19371 0.0
H35 H 0.53215 0.78582 0.44557 0.0
C36 C 0.55571 0.74729 0.28969 0.0
C37 C 0.5471 0.75334 0.3704 0.0
C38 C 0.55904 0.76631 0.22776 0.0
C39 C 0.55303 0.79236 0.24393 0.0
C40 C 0.54268 0.79989 0.3209 0.0
C41 C 0.5399 0.78023 0.3854 0.0
N42 N 0.53432 0.82671 0.33161 0.0
C43 C 0.53446 0.84604 0.26757 0.0
H44 H 0.22228 0.48887 0.09494 0.0
H45 H 0.30163 0.48746 0.17442 0.0
H46 H 0.28322 0.50866 0.9198 0.0
C47 C 0.24282 0.48986 0.07781 0.0
C48 C 0.24967 0.49668 0.99606 0.0
C49 C 0.26138 0.48547 0.14017 0.0
C50 C 0.28778 0.49013 0.12429 0.0
C51 C 0.29614 0.49939 0.04651 0.0
C52 C 0.27696 0.50223 0.98094 0.0
N53 N 0.32342 0.50622 0.03534 0.0
C54 C 0.34263 0.5059 0.09947 0.0
H55 H 0.06316 0.22525 0.06628 0.0
H56 H 0.05291 0.30089 0.17595 0.0
H57 H 0.03627 0.2895 0.91447 0.0
C58 C 0.0594 0.24609 0.0577 0.0
C59 C 0.05061 0.25496 0.98044 0.0
C60 C 0.05948 0.26236 0.12743 0.0
C61 C 0.05339 0.28895 0.12017 0.0
C62 C 0.04559 0.29949 0.04358 0.0
C63 C 0.04348 0.28208 0.97329 0.0
N64 N 0.03851 0.32684 0.03812 0.0
C65 C 0.03887 0.34515 0.10478 0.0
H66 H 0.31393 0.06825 0.05798 0.0
H67 H 0.23647 0.06257 0.1589 0.0
H68 H 0.25201 0.03465 0.90985 0.0
C69 C 0.29317 0.06439 0.04779 0.0
C70 C 0.28545 0.05226 0.97373 0.0
C71 C 0.27574 0.067 0.11475 0.0
C72 C 0.24923 0.061 0.10511 0.0
C73 C 0.24 0.04962 0.03149 0.0
C74 C 0.25843 0.04483 0.96539 0.0
N75 N 0.21307 0.041 0.02675 0.0
C76 C 0.19461 0.04229 0.09285 0.0
H77 H 0.47181 0.31959 0.06563 0.0
H78 H 0.48661 0.24586 0.18299 0.0
H79 H 0.50642 0.25688 0.92381 0.0
C80 C 0.47706 0.29902 0.0591 0.0
C81 C 0.48812 0.29048 0.98427 0.0
C82 C 0.47793 0.28349 0.1307 0.0
C83 C 0.48562 0.25725 0.12606 0.0
C84 C 0.49526 0.24684 0.05142 0.0
C85 C 0.49739 0.26398 0.98048 0.0
N86 N 0.50464 0.22018 0.04908 0.0
C87 C 0.50487 0.20231 0.11699 0.0
Eu88 Eu 0.99207 0.03418 0.60366 0.0
C89 C 0.09199 0.04656 0.84197 0.0
N90 N 0.08823 0.03034 0.77591 0.0
C91 C 0.134 0.03329 0.74125 0.0
C92 C 0.11691 0.0577 0.85805 0.0
C93 C 0.1091 0.02234 0.72914 0.0
C94 C 0.13782 0.05149 0.80503 0.0
C95 C 0.07568 0.06446 0.97205 0.0
C96 C 0.07168 0.04975 0.89863 0.0
C97 C 0.09999 0.0768 0.98577 0.0
C98 C 0.12057 0.0734 0.92897 0.0
Eu99 Eu 0.04548 1.01269 0.7591 0.0
N100 N 0.04868 0.03679 0.88522 0.0
C101 C 0.05557 0.06533 0.03142 0.0
C102 C 0.02984 0.03603 0.94591 0.0
C103 C 0.0327 0.05071 0.0188 0.0
H104 H 0.10667 1.00639 0.68569 0.0
H105 H 0.01739 0.05048 0.06561 0.0
H106 H 0.93424 0.02426 0.69746 0.0
H107 H 0.0337 0.98157 0.33204 0.0
H108 H 0.01254 0.02422 0.93846 0.0
H109 H 0.05788 0.07645 0.08844 0.0
H110 H 0.03599 1.00762 0.45745 0.0
H111 H 0.15036 0.02708 0.70306 0.0
H112 H 0.10338 0.0882 0.04171 0.0
H113 H 0.13955 0.08215 0.94213 0.0
H114 H 0.89163 1.00381 0.66603 0.0
H115 H 0.15727 0.05951 0.81558 0.0
H116 H 0.99136 0.96284 0.2861 0.0
N117 N 0.95312 1.00962 0.58931 0.0
C118 C 0.95038 0.9961 0.51699 0.0
C119 C 0.90804 1.00121 0.62402 0.0
C120 C 0.92609 0.98446 0.49563 0.0
C121 C 0.93242 1.0124 0.64251 0.0
C122 C 0.90481 0.98727 0.55003 0.0
N123 N 0.99513 1.00529 0.48613 0.0
C124 C 0.01719 1.00043 0.43996 0.0
C125 C 0.96981 0.97847 0.39104 0.0
C126 C 0.97196 0.99364 0.46443 0.0
C127 C 0.99219 0.97451 0.34243 0.0
C128 C 0.01606 0.98511 0.36797 0.0
H129 H 0.88579 0.97886 0.53536 0.0
H130 H 0.90509 0.96183 0.40277 0.0
H131 H 0.94348 0.95618 0.31191 0.0
O132 O 0.97633 0.0546 0.4955 0.0
O133 O 0.99407 0.99087 0.64102 0.0
O134 O 0.03816 0.98843 0.64195 0.0
O135 O 0.96039 0.06232 0.61805 0.0
O136 O 0.03278 0.0444 0.54947 0.0
O137 O 0.06336 0.02197 0.6301 0.0
O138 O 0.03519 0.97443 0.81082 0.0
O139 O 0.02819 0.05348 0.78177 0.0
O140 O 0.01943 0.06727 0.64962 0.0
O141 O 0.07599 0.98832 0.81447 0.0
O142 O 1.00322 1.00422 0.80195 0.0
O143 O 0.97921 0.03686 0.74046 0.0
C144 C 0.01535 0.97671 0.63181 0.0
C145 C 0.95794 0.09624 0.52133 0.0
C146 C 0.97785 0.1374 0.47986 0.0
C147 C 0.95387 0.15023 0.49368 0.0
C148 C 0.93401 0.10909 0.53477 0.0
C149 C 0.93202 0.13605 0.52098 0.0
C150 C 0.9799 0.11041 0.49393 0.0
C151 C 0.05705 0.03593 0.56324 0.0
C152 C 0.95974 0.06829 0.53939 0.0
C153 C 0.92369 0.97055 0.42068 0.0
C154 C 0.94552 0.96742 0.36882 0.0
C155 C 0.02561 0.07261 0.7275 0.0
C156 C 0.0675 0.94506 0.86961 0.0
C157 C 0.05558 0.9027 0.92563 0.0
C158 C 0.08203 0.89774 0.94417 0.0
C159 C 0.09403 0.94005 0.8871 0.0
C160 C 0.04842 0.92622 0.88809 0.0
C161 C 0.10124 0.91634 0.92417 0.0
C162 C 0.9822 0.01926 0.79995 0.0
C163 C 0.05954 0.96944 0.82977 0.0
H164 H 0.95198 0.17111 0.482 0.0
H165 H 0.91695 0.09826 0.55643 0.0
H166 H 0.91352 0.14594 0.53125 0.0
H167 H 0.99854 0.1006 0.48417 0.0
H168 H 0.08771 0.8796 0.97445 0.0
H169 H 0.10913 0.95435 0.87211 0.0
H170 H 0.02784 0.93001 0.8754 0.0
H171 H 0.12166 0.9125 0.93801 0.0
Eu172 Eu 0.53287 0.05199 0.76989 0.0
C173 C 0.52194 0.9391 0.57605 0.0
N174 N 0.53375 0.96242 0.5574 0.0
C175 C 0.56602 0.94001 0.47491 0.0
C176 C 0.53201 0.91523 0.54494 0.0
C177 C 0.55529 0.96316 0.50649 0.0
C178 C 0.55439 0.91593 0.49436 0.0
C179 C 0.48625 0.91517 0.64263 0.0
C180 C 0.4991 0.93909 0.62361 0.0
C181 C 0.49645 0.89143 0.61257 0.0
C182 C 0.51918 0.89147 0.56357 0.0
Eu183 Eu 0.51178 1.00065 0.60426 0.0
N184 N 0.4893 0.96238 0.65077 0.0
C185 C 0.46333 0.91576 0.69068 0.0
C186 C 0.46655 0.96299 0.69609 0.0
C187 C 0.45349 0.93979 0.71766 0.0
H188 H 0.56346 0.98164 0.48622 0.0
H189 H 0.43576 0.94049 0.75484 0.0
H190 H 0.48353 0.07801 0.87886 0.0
H191 H 0.60493 0.10049 0.5636 0.0
H192 H 0.45863 0.98117 0.71771 0.0
H193 H 0.45304 0.8978 0.707 0.0
H194 H 0.58482 0.0634 0.63501 0.0
H195 H 0.58293 0.9408 0.43404 0.0
H196 H 0.48675 0.87294 0.62622 0.0
H197 H 0.52659 0.87301 0.53985 0.0
H198 H 0.46427 0.1213 0.90661 0.0
H199 H 0.56254 0.89803 0.46874 0.0
H200 H 0.58778 0.14526 0.58523 0.0
N201 N 0.5111 0.09205 0.79069 0.0
C202 C 0.52282 0.11354 0.75652 0.0
C203 C 0.48033 0.1194 0.86283 0.0
C204 C 0.51294 0.13894 0.77247 0.0
C205 C 0.4907 0.09471 0.84505 0.0
C206 C 0.49136 0.14163 0.82586 0.0
N207 N 0.55476 0.08567 0.69349 0.0
C208 C 0.57627 0.08223 0.64388 0.0
C209 C 0.55682 0.13247 0.66852 0.0
C210 C 0.54501 0.1103 0.70634 0.0
C211 C 0.57838 0.12876 0.61601 0.0
C212 C 0.58808 0.10354 0.60352 0.0
H213 H 0.48345 0.16082 0.84037 0.0
H214 H 0.51778 0.18051 0.74792 0.0
H215 H 0.5558 0.17483 0.65568 0.0
O216 O 0.56294 0.07162 0.84309 0.0
O217 O 0.51118 0.0666 0.65282 0.0
O218 O 0.53056 0.0391 0.56247 0.0
O219 O 0.52757 0.05731 0.90343 0.0
O220 O 0.56786 0.02673 0.72346 0.0
O221 O 0.55457 0.01318 0.59353 0.0
O222 O 0.48011 0.01581 0.52846 0.0
O223 O 0.51642 0.98133 0.73326 0.0
O224 O 0.53716 1.01053 0.82217 0.0
O225 O 0.50685 0.98699 0.47698 0.0
O226 O 0.47694 0.02228 0.66426 0.0
O227 O 0.49051 0.03743 0.79272 0.0
C228 C 0.51859 0.06145 0.57608 0.0
C229 C 0.56537 0.06077 0.98516 0.0
C230 C 0.60321 0.03918 0.04536 0.0
C231 C 0.59604 0.04922 0.12391 0.0
C232 C 0.55824 0.07029 0.06369 0.0
C233 C 0.57354 0.0644 0.13292 0.0
C234 C 0.58746 0.04472 0.97624 0.0
C235 C 0.57309 0.01631 0.64966 0.0
C236 C 0.55018 0.06885 0.91299 0.0
C237 C 0.52508 0.16089 0.7361 0.0
C238 C 0.54681 0.15766 0.68385 0.0
C239 C 0.52768 0.987 0.80519 0.0
C240 C 0.46384 0.98809 0.42311 0.0
C241 C 0.42049 0.99297 0.36555 0.0
C242 C 0.42259 0.96849 0.3263 0.0
C243 C 0.46601 0.96329 0.38512 0.0
C244 C 0.44091 1.00257 0.41381 0.0
C245 C 0.44527 0.95351 0.33716 0.0
C246 C 0.4716 0.03097 0.73993 0.0
C247 C 0.48581 1.00077 0.46522 0.0
H248 H 0.60818 0.04604 0.17825 0.0
H249 H 0.54112 0.08266 0.07107 0.0
H250 H 0.56847 0.07216 0.19338 0.0
H251 H 0.59259 0.03704 0.91546 0.0
H252 H 0.40684 0.96114 0.28738 0.0
H253 H 0.48377 0.95178 0.39094 0.0
H254 H 0.4393 0.022 0.4412 0.0
H255 H 0.44695 0.93455 0.30726 0.0
Eu256 Eu 0.54693 0.51121 0.59997 0.0
C257 C 0.45031 0.49557 0.83803 0.0
N258 N 0.45404 0.50907 0.76558 0.0
C259 C 0.41014 0.49825 0.72255 0.0
C260 C 0.42634 0.48249 0.85446 0.0
C261 C 0.43397 0.51132 0.70956 0.0
C262 C 0.40637 0.48359 0.79492 0.0
C263 C 0.46581 0.48376 0.97629 0.0
C264 C 0.46978 0.49626 0.89871 0.0
C265 C 0.44226 0.47023 0.99164 0.0
C266 C 0.42258 0.46961 0.93096 0.0
Eu267 Eu 0.49418 0.53276 0.75551 0.0
N268 N 0.49217 0.51005 0.88338 0.0
C269 C 0.48531 0.48593 0.03729 0.0
C270 C 0.51053 0.51346 0.94438 0.0
C271 C 0.50769 0.50101 0.02139 0.0
H272 H 0.43553 0.52408 0.65641 0.0
H273 H 0.52249 0.50354 0.06906 0.0
H274 H 0.60369 0.52011 0.70225 0.0
H275 H 0.51119 0.55758 0.31207 0.0
H276 H 0.52713 0.52625 0.93494 0.0
H277 H 0.48293 0.47667 0.09762 0.0
H278 H 0.50976 0.52648 0.4275 0.0
H279 H 0.39441 0.5001 0.67767 0.0
H280 H 0.43883 0.46067 0.051 0.0
H281 H 0.40425 0.4596 0.94456 0.0
H282 H 0.64405 0.54628 0.68813 0.0
H283 H 0.38765 0.47394 0.80551 0.0
H284 H 0.5495 0.58696 0.29443 0.0
N285 N 0.58465 0.53796 0.59886 0.0
C286 C 0.58723 0.5542 0.53196 0.0
C287 C 0.62807 0.54904 0.64463 0.0
C288 C 0.61032 0.56923 0.52074 0.0
C289 C 0.60487 0.53461 0.65349 0.0
C290 C 0.63077 0.56654 0.57827 0.0
N291 N 0.5451 0.54014 0.48394 0.0
C292 C 0.52571 0.5402 0.42525 0.0
C293 C 0.56909 0.57283 0.40517 0.0
C294 C 0.56683 0.55567 0.47396 0.0
C295 C 0.54852 0.57394 0.34774 0.0
C296 C 0.52682 0.55747 0.35768 0.0
H297 H 0.64891 0.57753 0.57117 0.0
H298 H 0.63016 0.59769 0.44228 0.0
H299 H 0.59401 0.60112 0.34192 0.0
O300 O 0.56195 0.49353 0.48647 0.0
O301 O 0.54445 0.55495 0.63833 0.0
O302 O 0.50051 0.55956 0.64329 0.0
O303 O 0.57925 0.48331 0.60502 0.0
O304 O 0.50546 0.50093 0.55244 0.0
O305 O 0.47952 0.5311 0.62049 0.0
O306 O 0.50106 0.56816 0.82587 0.0
O307 O 0.50975 0.49115 0.7761 0.0
O308 O 0.52024 0.47732 0.64489 0.0
O309 O 0.4605 0.55466 0.80462 0.0
O310 O 0.53716 0.54116 0.79314 0.0
O311 O 0.55882 0.50624 0.73647 0.0
C312 C 0.52365 0.56986 0.62847 0.0
C313 C 0.58133 0.45212 0.49884 0.0
C314 C 0.56117 0.41074 0.46159 0.0
C315 C 0.58621 0.39988 0.44924 0.0
C316 C 0.60625 0.44128 0.48629 0.0
C317 C 0.60866 0.41517 0.46147 0.0
C318 C 0.55874 0.4369 0.48632 0.0
C319 C 0.48316 0.51401 0.5598 0.0
C320 C 0.57931 0.47933 0.52506 0.0
C321 C 0.61253 0.5861 0.45198 0.0
C322 C 0.59194 0.58802 0.39475 0.0
C323 C 0.5131 0.47204 0.7222 0.0
C324 C 0.46663 0.59446 0.88511 0.0
C325 C 0.47688 0.63545 0.95302 0.0
C326 C 0.45055 0.63799 0.9776 0.0
C327 C 0.44018 0.59703 0.90824 0.0
C328 C 0.48476 0.61367 0.90767 0.0
C329 C 0.43221 0.6188 0.95472 0.0
C330 C 0.55696 0.52447 0.79426 0.0
C331 C 0.47603 0.57195 0.83827 0.0
H332 H 0.58835 0.37974 0.42861 0.0
H333 H 0.62379 0.45303 0.49558 0.0
H334 H 0.62791 0.40682 0.45128 0.0
H335 H 0.53942 0.44533 0.49575 0.0
H336 H 0.4442 0.65488 0.01321 0.0
H337 H 0.42583 0.58224 0.89103 0.0
H338 H 0.50528 0.61171 0.89042 0.0
H339 H 0.41184 0.62081 0.97291 0.0
Eu340 Eu 0.02938 0.5509 0.61158 0.0
C341 C 0.03822 0.45032 0.85962 0.0
N342 N 0.02413 0.45341 0.78858 0.0
C343 C 0.02271 0.40662 0.76917 0.0
C344 C 0.04473 0.42497 0.88883 0.0
C345 C 0.01622 0.43199 0.74364 0.0
C346 C 0.03692 0.40307 0.84235 0.0
C347 C 0.06033 0.46962 0.97868 0.0
C348 C 0.04585 0.47248 0.90425 0.0
C349 C 0.06622 0.44443 0.00876 0.0
C350 C 0.05844 0.42218 0.964 0.0
Eu351 Eu 1.00868 0.49649 0.76312 0.0
N352 N 0.03927 0.49672 0.87506 0.0
C353 C 0.06845 0.49217 0.02114 0.0
C354 C 0.04756 0.51872 0.91613 0.0
C355 C 0.06235 0.51681 0.989 0.0
H356 H 1.00286 0.43431 0.69224 0.0
H357 H 0.06884 0.53442 0.02076 0.0
H358 H 0.0255 0.61113 0.69944 0.0
H359 H 0.97294 0.51314 0.34434 0.0
H360 H 0.04336 0.53788 0.89324 0.0
H361 H 0.07961 0.49078 0.07835 0.0
H362 H 0.99573 0.5094 0.47694 0.0
H363 H 0.01593 0.38981 0.73393 0.0
H364 H 0.0769 0.44193 0.06652 0.0
H365 H 0.06317 0.40286 0.98802 0.0
H366 H 0.01154 0.65561 0.65941 0.0
H367 H 0.04143 0.38333 0.86305 0.0
H368 H 0.9632 0.55691 0.28564 0.0
N369 N 0.0117 0.59318 0.58858 0.0
C370 C 0.99956 0.59667 0.51417 0.0
C371 C 1.00796 0.63921 0.61809 0.0
C372 C 0.99198 0.62196 0.4875 0.0
C373 C 0.0154 0.61386 0.64146 0.0
C374 C 0.99654 0.64335 0.54027 0.0
N375 N 1.00064 0.55059 0.49439 0.0
C376 C 0.99255 0.52864 0.45253 0.0
C377 C 0.98063 0.57785 0.38911 0.0
C378 C 0.99404 0.57482 0.46546 0.0
C379 C 0.97355 0.55539 0.34435 0.0
C380 C 0.97906 0.53068 0.37714 0.0
H381 H 0.99109 0.66307 0.52187 0.0
H382 H 0.97452 0.64444 0.38732 0.0
H383 H 0.96452 0.6058 0.30122 0.0
O384 O 0.0615 0.54482 0.52536 0.0
O385 O 0.98508 0.54958 0.63587 0.0
O386 O 0.97945 0.50567 0.65901 0.0
O387 O 0.05497 0.58408 0.57807 0.0
O388 O 0.03671 0.50923 0.55832 0.0
O389 O 0.01212 0.47879 0.63248 0.0
O390 O 0.9839 0.49806 0.87451 0.0
O391 O 0.05294 0.49705 0.73416 0.0
O392 O 0.05716 0.54114 0.71915 0.0
O393 O 0.97943 0.46627 0.7865 0.0
O394 O 0.99876 0.53913 0.80557 0.0
O395 O 0.03068 0.56481 0.74593 0.0
C396 C 0.96976 0.5287 0.63836 0.0
C397 C 0.0916 0.57902 0.48347 0.0
C398 C 0.13369 0.56947 0.42155 0.0
C399 C 0.13774 0.59636 0.40635 0.0
C400 C 0.0957 0.60596 0.46975 0.0
C401 C 0.1187 0.61455 0.43052 0.0
C402 C 0.11046 0.56096 0.45859 0.0
C403 C 0.02699 0.48518 0.56791 0.0
C404 C 0.06898 0.56934 0.52975 0.0
C405 C 0.97996 0.62511 0.40955 0.0
C406 C 0.9743 0.60311 0.36048 0.0
C407 C 0.06806 0.51805 0.73042 0.0
C408 C 0.94505 0.47158 0.88157 0.0
C409 C 0.90302 0.48736 0.92918 0.0
C410 C 0.89405 0.46136 0.93762 0.0
C411 C 0.93596 0.44561 0.8893 0.0
C412 C 0.92854 0.49249 0.90147 0.0
C413 C 0.91055 0.44053 0.91752 0.0
C414 C 0.01251 0.56131 0.80323 0.0
C415 C 0.97233 0.47577 0.85758 0.0
H416 H 0.15572 0.60324 0.37741 0.0
H417 H 0.08131 0.62025 0.48981 0.0
H418 H 0.12195 0.63531 0.41993 0.0
H419 H 0.10738 0.54013 0.46966 0.0
H420 H 0.87445 0.45724 0.96073 0.0
H421 H 0.94872 0.42924 0.8747 0.0
H422 H 0.93544 0.5126 0.89588 0.0
H423 H 0.90377 0.42047 0.92451 0.0
C424 C 0.17226 0.06395 0.21464 0.0
C425 C 0.17459 0.04257 0.15985 0.0
C426 C 0.15298 0.06429 0.27873 0.0
C427 C 0.1354 0.04272 0.28919 0.0
C428 C 0.13775 0.02114 0.23349 0.0
C429 C 0.15717 0.02135 0.17001 0.0
C430 C 0.15154 0.08773 0.33592 0.0
C431 C 0.1198 0.99762 0.24125 0.0
C432 C 0.10319 0.02956 0.50292 0.0
C433 C 0.07752 0.03938 0.49432 0.0
C434 C 0.12208 0.03105 0.43831 0.0
C435 C 0.11543 0.04216 0.36017 0.0
C436 C 0.08955 0.05215 0.35019 0.0
C437 C 0.07116 0.05086 0.41692 0.0
C438 C 0.14922 0.02024 0.45367 0.0
C439 C 0.08109 0.06383 0.26822 0.0
H440 H 0.18559 0.08047 0.20755 0.0
H441 H 0.15876 1.00474 0.12815 0.0
H442 H 0.13149 0.09618 0.33454 0.0
H443 H 0.15542 0.08149 0.40094 0.0
H444 H 0.16589 0.10331 0.31865 0.0
H445 H 0.12356 0.9827 0.19228 0.0
H446 H 0.12242 0.98826 0.30307 0.0
H447 H 0.09901 1.00392 0.23701 0.0
H448 H 0.10871 0.02015 0.55987 0.0
H449 H 0.05149 0.05834 0.40747 0.0
H450 H 0.16425 0.03554 0.44058 0.0
H451 H 0.15301 1.0036 0.41082 0.0
H452 H 0.15182 0.01326 0.51869 0.0
H453 H 0.09435 0.08029 0.25081 0.0
H454 H 0.06058 0.07119 0.27013 0.0
H455 H 0.0826 0.04882 0.21841 0.0
C456 C 0.48367 0.16935 0.21331 0.0
C457 C 0.50632 0.18225 0.18391 0.0
C458 C 0.48502 0.14939 0.27518 0.0
C459 C 0.50964 0.14197 0.30978 0.0
C460 C 0.53256 0.15502 0.27985 0.0
C461 C 0.53063 0.17481 0.21773 0.0
C462 C 0.46002 0.13602 0.30305 0.0
C463 C 0.55928 0.14791 0.31321 0.0
C464 C 0.50981 0.10819 0.52575 0.0
C465 C 0.51566 0.08181 0.5074 0.0
C466 C 0.50854 0.12779 0.46309 0.0
C467 C 0.51142 0.121 0.37781 0.0
C468 C 0.51603 0.09414 0.35831 0.0
C469 C 0.51864 0.07514 0.42279 0.0
C470 C 0.50445 0.15599 0.48858 0.0
C471 C 0.51749 0.08526 0.26893 0.0
H472 H 0.46479 0.17474 0.18741 0.0
H473 H 0.5483 0.18444 0.19521 0.0
H474 H 0.46161 0.11449 0.29355 0.0
H475 H 0.45693 0.13932 0.37058 0.0
H476 H 0.44254 0.14327 0.26884 0.0
H477 H 0.57518 0.16012 0.28547 0.0
H478 H 0.55964 0.15037 0.38185 0.0
H479 H 0.56345 0.12695 0.2999 0.0
H480 H 0.50644 0.11376 0.58967 0.0
H481 H 0.5225 0.05485 0.40662 0.0
H482 H 0.4865 0.16388 0.45876 0.0
H483 H 0.52127 0.16813 0.46688 0.0
H484 H 0.50255 0.15824 0.55707 0.0
H485 H 0.4977 0.08664 0.24045 0.0
H486 H 0.52434 0.06465 0.26331 0.0
H487 H 0.53071 0.09828 0.2325 0.0
C488 C 0.38827 0.51649 0.1488 0.0
C489 C 0.36317 0.50609 0.16501 0.0
C490 C 0.4081 0.51727 0.21094 0.0
C491 C 0.40303 0.50733 0.29229 0.0
C492 C 0.37772 0.49648 0.30841 0.0
C493 C 0.35823 0.49607 0.24517 0.0
C494 C 0.43448 0.52909 0.18954 0.0
C495 C 0.37116 0.48529 0.39297 0.0
C496 C 0.46166 0.4904 0.43673 0.0
C497 C 0.46253 0.5119 0.49177 0.0
C498 C 0.44255 0.48856 0.37248 0.0
C499 C 0.42378 0.5089 0.36086 0.0
C500 C 0.4248 0.53078 0.41571 0.0
C501 C 0.44385 0.53193 0.48 0.0
C502 C 0.4424 0.46465 0.31708 0.0
C503 C 0.40583 0.55327 0.406 0.0
H504 H 0.39242 0.52421 0.08722 0.0
H505 H 0.33906 0.48788 0.25892 0.0
H506 H 0.43853 0.5461 0.23081 0.0
H507 H 0.45023 0.51449 0.20024 0.0
H508 H 0.43555 0.53577 0.12374 0.0
H509 H 0.3512 0.47641 0.39504 0.0
H510 H 0.38572 0.47007 0.41029 0.0
H511 H 0.37231 0.50099 0.44068 0.0
H512 H 0.47586 0.47477 0.44427 0.0
H513 H 0.44433 0.54892 0.52056 0.0
H514 H 0.44625 0.47056 0.25171 0.0
H515 H 0.42276 0.45513 0.31868 0.0
H516 H 0.45738 0.45 0.33592 0.0
H517 H 0.40775 0.56188 0.34279 0.0
H518 H 0.40917 0.56901 0.45269 0.0
H519 H 0.38535 0.54602 0.41245 0.0
C520 C 0.06076 0.37279 0.2153 0.0
C521 C 0.03814 0.36567 0.17042 0.0
C522 C 0.06021 0.39278 0.27715 0.0
C523 C 0.03644 0.40627 0.29558 0.0
C524 C 0.01361 0.39914 0.24966 0.0
C525 C 0.01474 0.3791 0.18823 0.0
C526 C 0.08514 0.39938 0.32335 0.0
C527 C 0.98779 0.41263 0.26575 0.0
C528 C 0.02677 0.43809 0.51202 0.0
C529 C 0.03076 0.46511 0.49799 0.0
C530 C 0.02878 0.41908 0.4479 0.0
C531 C 0.03508 0.42675 0.36527 0.0
C532 C 0.03965 0.45398 0.35011 0.0
C533 C 0.03763 0.47263 0.41607 0.0
C534 C 0.02391 0.39056 0.469 0.0
C535 C 0.04645 0.46348 0.26369 0.0
H536 H 0.07899 0.36268 0.20207 0.0
H537 H 0.99716 0.37391 0.1539 0.0
H538 H 0.08968 0.42061 0.31666 0.0
H539 H 0.08247 0.3954 0.39076 0.0
H540 H 0.10219 0.38789 0.30056 0.0
H541 H 0.97201 0.4056 0.2235 0.0
H542 H 0.98153 0.40914 0.33102 0.0
H543 H 0.9901 0.43417 0.25765 0.0
H544 H 0.02228 0.43146 0.57379 0.0
H545 H 0.04096 0.49325 0.40283 0.0
H546 H 0.04133 0.37867 0.45208 0.0
H547 H 1.00708 0.38298 0.43225 0.0
H548 H 0.01962 0.38755 0.53617 0.0
H549 H 0.065 0.45425 0.2426 0.0
H550 H 0.04877 0.48517 0.26076 0.0
H551 H 0.0309 0.45745 0.21919 0.0
C552 C 0.88644 0.02446 0.20714 0.0
C553 C 0.86543 1.00657 0.20301 0.0
C554 C 0.90542 0.02629 0.14268 0.0
C555 C 0.90355 1.00991 0.07124 0.0
C556 C 0.88233 0.99167 0.06723 0.0
C557 C 0.86363 0.99024 0.13279 0.0
C558 C 0.92759 0.04585 0.15124 0.0
C559 C 0.87934 0.97365 0.99331 0.0
C560 C 0.93931 0.03271 0.87104 0.0
C561 C 0.9618 0.01668 0.86876 0.0
C562 C 0.92007 0.03021 0.9346 0.0
C563 C 0.92358 1.01203 1.00086 0.0
C564 C 0.94648 0.99617 0.99998 0.0
C565 C 0.96484 0.99829 0.93377 0.0
C566 C 0.89585 0.04715 0.93072 0.0
C567 C 0.95184 0.9771 0.0699 0.0
H568 H 0.88806 0.03712 0.26114 0.0
H569 H 0.84752 0.9763 0.12896 0.0
H570 H 0.94674 0.0356 0.14713 0.0
H571 H 0.92688 0.06023 0.09936 0.0
H572 H 0.92676 0.05673 0.21108 0.0
H573 H 0.86184 0.96065 0.99881 0.0
H574 H 0.87761 0.98543 0.93541 0.0
H575 H 0.89706 0.96121 0.98676 0.0
H576 H 0.9366 0.04734 0.82285 0.0
H577 H 0.98195 0.98571 0.93393 0.0
H578 H 0.89527 0.06042 0.9854 0.0
H579 H 0.87797 0.03463 0.9333 0.0
H580 H 0.89515 0.05924 0.87317 0.0
H581 H 0.95312 0.98786 0.12982 0.0
H582 H 0.97041 0.96609 0.06051 0.0
H583 H 0.93543 0.96282 0.07562 0.0
C584 C 0.51503 0.88625 0.201 0.0
C585 C 0.53409 0.86637 0.20107 0.0
C586 C 0.51421 0.90581 0.13782 0.0
C587 C 0.53287 0.90578 0.07172 0.0
C588 C 0.55233 0.88575 0.07212 0.0
C589 C 0.55267 0.86642 0.13617 0.0
C590 C 0.49301 0.92638 0.14143 0.0
C591 C 0.57296 0.88481 1.00473 0.0
C592 C 0.51673 0.94136 0.86418 0.0
C593 C 0.52955 0.96583 0.87223 0.0
C594 C 0.51756 0.92195 0.92786 0.0
C595 C 0.53194 0.92647 1.00241 0.0
C596 C 0.54528 0.95096 0.01044 0.0
C597 C 0.54375 0.97018 0.94638 0.0
C598 C 0.50269 0.89656 0.91549 0.0
C599 C 0.56118 0.95703 0.08731 0.0
H600 H 0.50058 0.8865 0.25062 0.0
H601 H 0.56758 0.85129 0.13536 0.0
H602 H 0.50165 0.94633 0.13546 0.0
H603 H 0.47933 0.92358 0.08846 0.0
H604 H 0.48161 0.92538 0.2003 0.0
H605 H 0.5872 0.86862 0.01442 0.0
H606 H 0.56346 0.88216 0.94319 0.0
H607 H 0.58388 0.90371 1.00256 0.0
H608 H 0.50567 0.93737 0.80823 0.0
H609 H 0.55386 0.98877 0.95465 0.0
H610 H 0.48814 0.89391 0.96633 0.0
H611 H 0.51642 0.87971 0.9185 0.0
H612 H 0.49222 0.89593 0.8549 0.0
H613 H 0.54803 0.95785 0.14236 0.0
H614 H 0.57187 0.97605 0.08221 0.0
H615 H 0.57564 0.94119 0.09877 0.0
C616 C 0.68521 0.53749 0.09852 0.0
C617 C 0.67887 0.53347 0.18281 0.0
C618 C 0.66566 0.53683 0.0353 0.0
C619 C 0.63888 0.53185 0.0559 0.0
C620 C 0.63248 0.52805 0.14136 0.0
C621 C 0.65239 0.52894 0.20317 0.0
C622 C 0.67372 0.54138 0.94601 0.0
C623 C 0.60453 0.52263 0.16774 0.0
C624 C 0.58298 0.55028 0.90281 0.0
C625 C 0.57784 0.52646 0.86131 0.0
C626 C 0.60281 0.55242 0.96466 0.0
C627 C 0.61776 0.53007 0.9884 0.0
C628 C 0.61233 0.50588 0.94743 0.0
C629 C 0.59289 0.50447 0.88425 0.0
C630 C 0.60792 0.5788 1.00423 0.0
C631 C 0.62695 0.48126 0.97096 0.0
H632 H 0.70556 0.54102 0.08178 0.0
H633 H 0.6472 0.52582 0.26792 0.0
H634 H 0.66919 0.52369 0.90831 0.0
H635 H 0.66231 0.55789 0.91928 0.0
H636 H 0.69499 0.54591 0.93984 0.0
H637 H 0.60263 0.51999 0.23615 0.0
H638 H 0.59168 0.53907 0.14832 0.0
H639 H 0.59717 0.50463 0.13639 0.0
H640 H 0.57174 0.5675 0.88585 0.0
H641 H 0.58916 0.48588 0.85357 0.0
H642 H 0.62888 0.58433 0.99637 0.0
H643 H 0.60397 0.57772 0.07205 0.0
H644 H 0.59554 0.59454 0.977 0.0
H645 H 0.64828 0.48399 0.95947 0.0
H646 H 0.62009 0.46383 0.93544 0.0
H647 H 0.62442 0.47726 0.03843 0.0
C648 C 0.02088 0.65907 0.2082 0.0
C649 C 1.00486 0.68131 0.19958 0.0
C650 C 0.02133 0.63883 0.14734 0.0
C651 C 1.00532 0.64051 0.07495 0.0
C652 C 0.9887 0.6628 0.06697 0.0
C653 C 0.98871 0.68281 0.12878 0.0
C654 C 0.03929 0.6157 0.16029 0.0
C655 C 0.97103 0.66568 0.99225 0.0
C656 C 0.02721 0.60339 0.87661 0.0
C657 C 1.01029 0.58138 0.87347 0.0
C658 C 0.02549 0.62262 0.94022 0.0
C659 C 1.00698 0.61983 1.00591 0.0
C660 C 0.99033 0.59727 1.00486 0.0
C661 C 0.99204 0.57859 0.93904 0.0
C662 C 0.04368 0.6461 0.93697 0.0
C663 C 0.97077 0.59265 0.074 0.0
H664 H 0.03334 0.65756 0.26264 0.0
H665 H 0.97612 0.69975 0.12118 0.0
H666 H 0.02775 0.59717 0.15926 0.0
H667 H 0.05377 0.61467 0.10875 0.0
H668 H 0.05009 0.61686 0.22022 0.0
H669 H 0.9585 0.68346 0.99606 0.0
H670 H 0.98307 0.66686 0.93475 0.0
H671 H 0.95815 0.64814 0.98639 0.0
H672 H 0.0422 0.60565 0.82933 0.0
H673 H 0.97912 0.56162 0.93941 0.0
H674 H 0.05619 0.64656 0.99342 0.0
H675 H 0.03204 0.66449 0.93641 0.0
H676 H 0.05658 0.64593 0.88116 0.0
H677 H 0.98138 0.58922 0.13329 0.0
H678 H 0.95785 0.57546 0.06166 0.0
H679 H 0.95834 0.61028 0.08289 0.0
C680 C 0.03039 0.24625 0.23489 0.0
C681 C 0.05623 0.24917 0.20731 0.0
C682 C 0.02353 0.22574 0.28775 0.0
C683 C 0.04348 0.209 0.31839 0.0
C684 C 0.07011 0.21356 0.29744 0.0
C685 C 0.07614 0.23329 0.23954 0.0
C686 C 0.99466 0.22091 0.30537 0.0
C687 C 0.09199 0.19674 0.33114 0.0
C688 C 1.00878 0.17479 0.48868 0.0
C689 C 1.00033 0.15219 0.44738 0.0
C690 C 0.02725 0.19151 0.45206 0.0
C691 C 0.03543 0.18646 0.3697 0.0
C692 C 0.02855 0.16255 0.3301 0.0
C693 C 0.01135 0.14528 0.37068 0.0
C694 C 0.03564 0.21623 0.49685 0.0
C695 C 0.03621 0.15693 0.24101 0.0
H696 H 0.01504 0.25822 0.20755 0.0
H697 H 0.09601 0.23533 0.21601 0.0
H698 H 0.98919 0.20048 0.28826 0.0
H699 H 0.99056 0.22339 0.37267 0.0
H700 H 0.98171 0.23454 0.27045 0.0
H701 H 0.11055 0.2082 0.33561 0.0
H702 H 0.08717 0.18857 0.39341 0.0
H703 H 0.09557 0.18015 0.28794 0.0
H704 H 1.00007 0.17989 0.54803 0.0
H705 H 1.00459 0.12769 0.3391 0.0
H706 H 0.02633 0.2336 0.46764 0.0
H707 H 0.05725 0.21882 0.49157 0.0
H708 H 0.03002 0.216 0.56352 0.0
H709 H 0.02454 0.16961 0.19876 0.0
H710 H 0.03255 0.13609 0.22383 0.0
H711 H 0.05722 0.16152 0.23027 0.0
C712 C 0.28986 0.03784 0.22392 0.0
C713 C 0.28724 0.06384 0.19717 0.0
C714 C 0.31099 0.03062 0.2733 0.0
C715 C 0.32838 0.05041 0.30166 0.0
C716 C 0.32267 0.07724 0.28812 0.0
C717 C 0.30252 0.08373 0.23261 0.0
C718 C 0.31707 1.00164 0.28215 0.0
C719 C 0.33969 0.09882 0.32325 0.0
C720 C 0.38118 0.01585 0.4182 0.0
C721 C 0.39801 1.00994 0.35207 0.0
C722 C 0.3595 0.0321 0.40554 0.0
C723 C 0.35497 0.04229 0.32514 0.0
C724 C 0.3736 0.03849 0.2606 0.0
C725 C 0.39495 0.02207 0.27497 0.0
C726 C 0.3404 0.03652 0.47593 0.0
C727 C 0.36983 0.04965 0.17424 0.0
H728 H 0.27799 0.02258 0.19518 0.0
H729 H 0.30025 0.10384 0.21161 0.0
H730 H 0.33441 0.99673 0.24322 0.0
H731 H 0.32192 0.99666 0.34745 0.0
H732 H 0.30045 0.98897 0.2619 0.0
H733 H 0.32785 0.1167 0.33538 0.0
H734 H 0.34939 0.09265 0.38191 0.0
H735 H 0.35514 0.10413 0.27743 0.0
H736 H 0.38451 1.00707 0.47873 0.0
H737 H 0.409 0.01824 0.22563 0.0
H738 H 0.32426 0.02187 0.47203 0.0
H739 H 0.33156 0.05638 0.4723 0.0
H740 H 0.3501 0.03421 0.53724 0.0
H741 H 0.35331 0.03934 0.14297 0.0
H742 H 0.38771 0.04741 0.13532 0.0
H743 H 0.36489 0.0708 0.17727 0.0
C744 C 0.5092 0.30589 0.2183 0.0
C745 C 0.48323 0.29778 0.20737 0.0
C746 C 0.51541 0.32582 0.27365 0.0
C747 C 0.49522 0.33668 0.32349 0.0
C748 C 0.46914 0.32708 0.31752 0.0
C749 C 0.4632 0.30811 0.25687 0.0
C750 C 0.54335 0.33618 0.27472 0.0
C751 C 0.44742 0.33752 0.37194 0.0
C752 C 0.53492 0.37036 0.48185 0.0
C753 C 0.53779 0.39488 0.44388 0.0
C754 C 0.51652 0.3523 0.45207 0.0
C755 C 0.50229 0.35848 0.37929 0.0
C756 C 0.50295 0.38433 0.34657 0.0
C757 C 0.52062 0.40252 0.38044 0.0
C758 C 0.51531 0.32526 0.4905 0.0
C759 C 0.48842 0.3915 0.26793 0.0
H760 H 0.5244 0.29809 0.17787 0.0
H761 H 0.44305 0.30201 0.24648 0.0
H762 H 0.54356 0.35762 0.26213 0.0
H763 H 0.55227 0.33298 0.33679 0.0
H764 H 0.55602 0.3265 0.22758 0.0
H765 H 0.4311 0.32308 0.37771 0.0
H766 H 0.45472 0.34246 0.43511 0.0
H767 H 0.43936 0.35567 0.34374 0.0
H768 H 0.5481 0.36478 0.53174 0.0
H769 H 0.52297 0.42166 0.35153 0.0
H770 H 0.5283 0.31181 0.45513 0.0
H771 H 0.49503 0.31722 0.48791 0.0
H772 H 0.52205 0.32551 0.55621 0.0
H773 H 0.49911 0.38343 0.21343 0.0
H774 H 0.48692 0.41313 0.25994 0.0
H775 H 0.46839 0.38292 0.26782 0.0
C776 C 0.25778 0.49994 0.28544 0.0
C777 C 0.25177 0.48096 0.22548 0.0
C778 C 0.23869 0.50739 0.34313 0.0
C779 C 0.21357 0.49551 0.33863 0.0
C780 C 0.20991 0.47232 0.29178 0.0
C781 C 0.22972 0.46473 0.23673 0.0
C782 C 0.24358 0.53151 0.39556 0.0
C783 C 0.1836 0.4587 0.28667 0.0
C784 C 0.16114 0.531 0.45882 0.0
C785 C 0.15349 0.54986 0.39995 0.0
C786 C 0.17963 0.51184 0.43851 0.0
C787 C 0.19071 0.51196 0.35805 0.0
C788 C 0.18198 0.53021 0.29717 0.0
C789 C 0.1635 0.54909 0.31931 0.0
C790 C 0.18791 0.49228 0.50399 0.0
C791 C 0.19248 0.53026 0.20907 0.0
H792 H 0.27527 0.51199 0.27859 0.0
H793 H 0.22571 0.4493 0.19191 0.0
H794 H 0.23555 0.54898 0.36307 0.0
H795 H 0.2336 0.52982 0.45673 0.0
H796 H 0.26491 0.53483 0.40589 0.0
H797 H 0.18606 0.43745 0.27314 0.0
H798 H 0.17213 0.46097 0.34494 0.0
H799 H 0.1721 0.46742 0.23492 0.0
H800 H 0.15298 0.53152 0.5212 0.0
H801 H 0.15676 0.56322 0.27356 0.0
H802 H 0.20614 0.49936 0.53446 0.0
H803 H 0.19208 0.47276 0.47638 0.0
H804 H 0.17259 0.48993 0.55271 0.0
H805 H 0.21393 0.53414 0.20925 0.0
H806 H 0.18292 0.54535 0.1694 0.0
H807 H 0.18916 0.51077 0.18015 0.0
C808 C 0.988 0.78346 0.10262 0.0
C809 C 0.96719 0.78909 0.15719 0.0
C810 C 0.99609 0.80187 0.04361 0.0
C811 C 0.98222 0.82576 0.0371 0.0
C812 C 0.95798 0.82885 0.07877 0.0
C813 C 0.95069 0.81038 0.13945 0.0
C814 C 0.02211 0.79781 1.00011 0.0
C815 C 0.9419 0.85344 0.06854 0.0
C816 C 0.03194 0.8801 0.03753 0.0
C817 C 0.03496 0.88466 0.95273 0.0
C818 C 0.01302 0.86249 0.06606 0.0
C819 C 0.99687 0.84909 0.00801 0.0
C820 C 0.9986 0.85514 0.92238 0.0
C821 C 0.01777 0.87306 0.89538 0.0
C822 C 0.01162 0.85699 0.15798 0.0
C823 C 0.98152 0.84172 0.85865 0.0
H824 H 1.00071 0.76685 0.11461 0.0
H825 H 0.93411 0.81438 0.17985 0.0
H826 H 0.02092 0.80395 0.93401 0.0
H827 H 0.03739 0.81009 0.03066 0.0
H828 H 0.02856 0.777 1.00278 0.0
H829 H 0.92104 0.84992 0.08578 0.0
H830 H 0.9498 0.86903 0.10983 0.0
H831 H 0.94288 0.86074 1.00346 0.0
H832 H 0.04477 0.89003 0.0814 0.0
H833 H 0.01987 0.87734 0.82953 0.0
H834 H 0.0176 0.8364 0.17017 0.0
H835 H 0.99116 0.8594 0.18024 0.0
H836 H 0.02461 0.8702 0.19462 0.0
H837 H 0.99309 0.82617 0.82731 0.0
H838 H 0.97525 0.85603 0.81056 0.0
H839 H 0.96373 0.83259 0.88638 0.0
C840 C 0.74331 0.02174 0.14218 0.0
C841 C 0.75141 0.99593 0.15563 0.0
C842 C 0.72127 0.02675 0.09375 0.0
C843 C 0.70866 1.00539 0.0536 0.0
C844 C 0.7206 0.98035 0.05234 0.0
C845 C 0.74145 0.9755 0.10694 0.0
C846 C 0.70887 0.05365 0.10017 0.0
C847 C 0.70894 0.95792 1.00345 0.0
C848 C 0.63675 1.00852 0.09985 0.0
C849 C 0.6282 0.02486 0.03553 0.0
C850 C 0.66281 1.00043 0.10379 0.0
C851 C 0.68025 1.00748 0.03846 0.0
C852 C 0.6709 0.02098 0.96785 0.0
C853 C 0.64491 0.02994 0.96756 0.0
C854 C 0.67213 0.98722 0.18281 0.0
C855 C 0.68892 0.02749 0.89589 0.0
H856 H 0.75147 0.03734 0.18041 0.0
H857 H 0.74817 0.95557 0.11716 0.0
H858 H 0.70181 0.06067 0.03903 0.0
H859 H 0.69163 0.05255 0.14247 0.0
H860 H 0.72275 0.06853 0.12543 0.0
H861 H 0.72403 0.94288 0.98913 0.0
H862 H 0.69317 0.94833 0.0404 0.0
H863 H 0.70016 0.96507 0.94443 0.0
H864 H 0.62353 1.00371 0.15065 0.0
H865 H 0.63836 0.04233 0.91686 0.0
H866 H 0.6864 1.00022 0.21497 0.0
H867 H 0.68216 0.9685 0.16849 0.0
H868 H 0.65579 0.98294 0.22673 0.0
H869 H 0.70601 0.03928 0.91676 0.0
H870 H 0.67868 0.03858 0.8461 0.0
H871 H 0.69704 1.00904 0.86993 0.0
C872 C 0.58001 0.73709 0.12497 0.0
C873 C 0.56209 0.75722 0.14167 0.0
C874 C 0.57312 0.71689 0.07027 0.0
C875 C 0.54815 0.71769 0.03217 0.0
C876 C 0.53302 0.74094 0.03476 0.0
C877 C 0.54055 0.76089 0.08909 0.0
C878 C 0.59028 0.69285 0.06599 0.0
C879 C 0.50624 0.74257 0.99458 0.0
C880 C 0.51283 0.66566 0.91141 0.0
C881 C 0.4967 0.65516 0.97407 0.0
C882 C 0.53182 0.68456 0.93035 0.0
C883 C 0.53431 0.69305 0.01345 0.0
C884 C 0.51944 0.68091 0.07784 0.0
C885 C 0.50058 0.66212 0.05697 0.0
C886 C 0.54797 0.69652 0.86106 0.0
C887 C 0.52228 0.68874 0.16817 0.0
H888 H 0.5971 0.7348 0.16457 0.0
H889 H 0.52698 0.77683 0.10101 0.0
H890 H 0.58577 0.67984 0.11967 0.0
H891 H 0.58699 0.68156 0.0079 0.0
H892 H 0.61135 0.69844 0.07014 0.0
H893 H 0.49919 0.76316 0.99056 0.0
H894 H 0.50648 0.73402 0.93119 0.0
H895 H 0.49189 0.73117 0.03241 0.0
H896 H 0.51008 0.6596 0.84728 0.0
H897 H 0.48869 0.65302 0.10518 0.0
H898 H 0.56852 0.69998 0.88138 0.0
H899 H 0.53956 0.7158 0.84345 0.0
H900 H 0.54808 0.68384 0.80486 0.0
H901 H 0.51053 0.67599 0.21043 0.0
H902 H 0.51575 0.70934 0.17664 0.0
H903 H 0.54314 0.68761 0.1874 0.0
C904 C 0.80128 0.58732 0.13174 0.0
C905 C 0.78833 0.56797 0.1781 0.0
C906 C 0.81998 0.58006 0.0717 0.0
C907 C 0.82676 0.55321 0.06349 0.0
C908 C 0.81334 0.53374 0.11006 0.0
C909 C 0.79352 0.54136 0.16381 0.0
C910 C 0.83346 0.60109 0.0211 0.0
C911 C 0.82126 0.50506 0.10912 0.0
C912 C 0.86221 0.5126 0.90982 0.0
C913 C 0.8859 0.50913 0.95192 0.0
C914 C 0.84395 0.53087 0.93834 0.0
C915 C 0.84921 0.54474 0.01269 0.0
C916 C 0.8743 0.54317 0.05053 0.0
C917 C 0.89259 0.52539 0.01872 0.0
C918 C 0.81788 0.53312 0.89443 0.0
C919 C 0.88117 0.55853 0.12813 0.0
H920 H 0.79751 0.60787 0.14441 0.0
H921 H 0.78387 0.52652 0.20173 0.0
H922 H 0.8522 0.6066 0.05166 0.0
H923 H 0.83802 0.59401 0.95737 0.0
H924 H 0.82118 0.61902 0.0166 0.0
H925 H 0.81023 0.49313 0.15552 0.0
H926 H 0.81772 0.49647 0.04678 0.0
H927 H 0.84252 0.50314 0.12299 0.0
H928 H 0.85757 0.50026 0.85679 0.0
H929 H 0.91136 0.52286 0.04955 0.0
H930 H 0.81079 0.55371 0.8957 0.0
H931 H 0.80307 0.52069 0.92662 0.0
H932 H 0.81923 0.5264 0.82882 0.0
H933 H 0.8854 0.57918 0.11052 0.0
H934 H 0.89886 0.55059 0.15967 0.0
H935 H 0.86472 0.55864 0.17352 0.0
C936 C 0.02225 0.22478 0.89117 0.0
C937 C 0.04732 0.23373 0.915 0.0
C938 C 0.01851 0.19958 0.85443 0.0
C939 C 0.04019 0.18237 0.84243 0.0
C940 C 0.06563 0.19194 0.86235 0.0
C941 C 0.06883 0.21728 0.89727 0.0
C942 C 0.99107 0.1908 0.83242 0.0
C943 C 0.0895 0.17472 0.8524 0.0
C944 C 0.02832 0.10721 0.84151 0.0
C945 C 0.02915 0.10076 0.75623 0.0
C946 C 0.03168 0.13337 0.87011 0.0
C947 C 0.03628 0.15412 0.81261 0.0
C948 C 0.03784 0.14761 0.72679 0.0
C949 C 0.03379 0.12136 0.69955 0.0
C950 C 0.0306 0.13873 0.96241 0.0
C951 C 0.04399 0.16852 0.66359 0.0
H952 H 1.00533 0.23672 0.90628 0.0
H953 H 0.08824 0.22352 0.91696 0.0
H954 H 0.99057 0.18321 0.76767 0.0
H955 H 0.98501 0.17446 0.87412 0.0
H956 H 0.97659 0.20696 0.83832 0.0
H957 H 0.10809 0.18584 0.8614 0.0
H958 H 0.08871 0.1586 0.89892 0.0
H959 H 0.08986 0.16548 0.78994 0.0
H960 H 0.0247 0.09176 0.88646 0.0
H961 H 0.03474 0.11691 0.63364 0.0
H962 H 0.01472 0.15296 0.97611 0.0
H963 H 0.04934 0.14778 0.98316 0.0
H964 H 0.02709 0.1206 0.99943 0.0
H965 H 0.0279 0.18309 0.66391 0.0
H966 H 0.04656 0.16027 0.60023 0.0
H967 H 0.06223 0.1792 0.68048 0.0
C968 C 0.32407 0.02344 0.93885 0.0
C969 C 0.30761 0.0444 0.91587 0.0
C970 C 0.34949 0.02015 0.90411 0.0
C971 C 0.35939 0.03836 0.84454 0.0
C972 C 0.34235 0.05888 0.81807 0.0
C973 C 0.31699 0.06177 0.85435 0.0
C974 C 0.36636 0.99789 0.93503 0.0
C975 C 0.35152 0.0788 0.75478 0.0
C976 C 0.4351 0.04574 0.84036 0.0
C977 C 0.44273 0.03313 0.76617 0.0
C978 C 0.40836 0.0488 0.86343 0.0
C979 C 0.38803 0.03708 0.8155 0.0
C980 C 0.39549 0.02337 0.74216 0.0
C981 C 0.42232 0.02231 0.71724 0.0
C982 C 0.40184 0.06474 0.93978 0.0
C983 C 0.3752 1.00891 0.69142 0.0
H984 H 0.31764 1.01042 0.98839 0.0
H985 H 0.30506 0.07858 0.83793 0.0
H986 H 0.37551 0.98742 0.8819 0.0
H987 H 0.38249 1.00586 0.97405 0.0
H988 H 0.35498 0.98355 0.97291 0.0
H989 H 0.33547 0.09215 0.7351 0.0
H990 H 0.36767 0.09078 0.7817 0.0
H991 H 0.35946 0.06879 0.69891 0.0
H992 H 0.44994 0.05324 0.88154 0.0
H993 H 0.42732 1.0122 0.66008 0.0
H994 H 0.39219 0.05204 0.98682 0.0
H995 H 0.38773 0.08049 0.92341 0.0
H996 H 0.41952 0.07393 0.96811 0.0
H997 H 0.36796 0.99173 0.72746 0.0
H998 H 0.38327 1.00175 0.6314 0.0
H999 H 0.35803 0.02163 0.67905 0.0
C1000 C 0.4708 0.32735 0.89486 0.0
C1001 C 0.49226 0.31168 0.91901 0.0
C1002 C 0.47418 0.35235 0.85743 0.0
C1003 C 0.49977 0.36249 0.84251 0.0
C1004 C 0.52155 0.3461 0.8618 0.0
C1005 C 0.51759 0.32114 0.90006 0.0
C1006 C 0.45019 0.36856 0.83799 0.0
C1007 C 0.5492 0.35558 0.84614 0.0
C1008 C 0.5081 0.42265 0.69604 0.0
C1009 C 0.50996 0.44386 0.7519 0.0
C1010 C 0.50451 0.39639 0.72434 0.0
C1011 C 0.50358 0.39059 0.8109 0.0
C1012 C 0.50554 0.41194 0.86751 0.0
C1013 C 0.50857 0.43801 0.83763 0.0
C1014 C 0.50172 0.3748 0.66107 0.0
C1015 C 0.50419 0.40732 0.96024 0.0
H1016 H 0.45114 0.32069 0.91046 0.0
H1017 H 0.53441 0.30983 0.92017 0.0
H1018 H 0.44973 0.38606 0.87908 0.0
H1019 H 0.45099 0.37576 0.77282 0.0
H1020 H 0.43167 0.35729 0.84692 0.0
H1021 H 0.56392 0.33988 0.85667 0.0
H1022 H 0.55117 0.36287 0.78129 0.0
H1023 H 0.5537 0.37226 0.88827 0.0
H1024 H 0.50905 0.42657 0.62976 0.0
H1025 H 0.51014 0.45388 0.88217 0.0
H1026 H 0.48602 0.36071 0.67893 0.0
H1027 H 0.52039 0.3637 0.6581 0.0
H1028 H 0.49704 0.38273 0.59848 0.0
H1029 H 0.48509 0.39811 0.97673 0.0
H1030 H 0.50636 0.4258 0.99641 0.0
H1031 H 0.51986 0.3935 0.97944 0.0
C1032 C 0.22442 0.51693 0.87027 0.0
C1033 C 0.22679 0.49798 0.93383 0.0
C1034 C 0.20042 0.52017 0.82515 0.0
C1035 C 0.17738 0.50554 0.84758 0.0
C1036 C 0.18016 0.48589 0.90956 0.0
C1037 C 0.20478 0.48138 0.94666 0.0
C1038 C 0.20008 0.53958 0.75426 0.0
C1039 C 0.1572 0.47009 0.94288 0.0
C1040 C 0.10851 0.53499 0.8067 0.0
C1041 C 0.09659 0.51597 0.75558 0.0
C1042 C 0.13477 0.53228 0.83522 0.0
C1043 C 0.15039 0.51065 0.80908 0.0
C1044 C 0.13874 0.49218 0.75356 0.0
C1045 C 0.11203 0.49465 0.72964 0.0
C1046 C 0.14543 0.55227 0.89576 0.0
C1047 C 0.15422 0.46913 0.72129 0.0
H1048 H 0.241 0.52964 0.8567 0.0
H1049 H 0.20612 0.46535 0.99094 0.0
H1050 H 0.18307 0.53671 0.71207 0.0
H1051 H 0.19952 0.55982 0.77971 0.0
H1052 H 0.21842 0.5379 0.7171 0.0
H1053 H 0.1552 0.47385 0.0107 0.0
H1054 H 0.13808 0.47451 0.91342 0.0
H1055 H 0.1613 0.4488 0.93573 0.0
H1056 H 0.0969 0.55155 0.82744 0.0
H1057 H 0.10326 0.47989 0.68967 0.0
H1058 H 0.16043 0.56458 0.86411 0.0
H1059 H 0.15507 0.54236 0.94916 0.0
H1060 H 0.12984 0.56541 0.92005 0.0
H1061 H 0.17478 0.47499 0.70718 0.0
H1062 H 0.14521 0.46067 0.6643 0.0
H1063 H 0.15475 0.45353 0.7695 0.0
C1064 C 1.0024 0.84211 0.37944 0.0
C1065 C 0.99881 0.81819 0.42261 0.0
C1066 C 1.00496 0.86658 0.4196 0.0
C1067 C 1.00606 0.86783 0.50746 0.0
C1068 C 1.00436 0.84368 0.55257 0.0
C1069 C 1.00047 0.81928 0.51005 0.0
C1070 C 1.00622 0.8911 0.36639 0.0
C1071 C 1.00621 0.84376 0.64602 0.0
C1072 C 0.03565 0.93307 0.58812 0.0
C1073 C 0.01325 0.94817 0.6058 0.0
C1074 C 0.03367 0.90664 0.5604 0.0
C1075 C 1.00867 0.8945 0.55013 0.0
C1076 C 0.98601 0.90952 0.5699 0.0
C1077 C 0.98855 0.93589 0.59721 0.0
C1078 C 0.05842 0.89198 0.53896 0.0
C1079 C 0.95886 0.89818 0.558 0.0
H1080 H 1.00231 0.84184 0.31255 0.0
H1081 H 0.99799 0.80129 0.54533 0.0
H1082 H 0.99771 0.90849 0.39781 0.0
H1083 H 0.02705 0.89555 0.35145 0.0
H1084 H 0.99551 0.8883 0.3069 0.0
H1085 H 1.0031 0.8239 0.67303 0.0
H1086 H 0.02583 0.85112 0.6652 0.0
H1087 H 0.99144 0.85741 0.67218 0.0
H1088 H 0.05487 0.94207 0.59431 0.0
H1089 H 0.97097 0.94706 0.61053 0.0
H1090 H 0.05928 0.88876 0.4707 0.0
H1091 H 0.05835 0.87238 0.56929 0.0
H1092 H 0.07637 0.90285 0.55822 0.0
H1093 H 0.95523 0.89512 0.49058 0.0
H1094 H 0.94331 0.91126 0.58299 0.0
H1095 H 0.95727 0.87875 0.58899 0.0
C1096 C 0.71671 0.9752 0.46664 0.0
C1097 C 0.73331 0.99691 0.45129 0.0
C1098 C 0.69195 0.97787 0.50624 0.0
C1099 C 0.68282 1.00301 0.53113 0.0
C1100 C 0.70002 0.02486 0.51952 0.0
C1101 C 0.72483 0.02159 0.47987 0.0
C1102 C 0.67484 0.95381 0.51667 0.0
C1103 C 0.69153 0.05207 0.54459 0.0
C1104 C 0.60779 0.01444 0.53568 0.0
C1105 C 0.60138 1.01302 0.62108 0.0
C1106 C 0.63385 1.01135 0.50621 0.0
C1107 C 0.65471 1.00665 0.56282 0.0
C1108 C 0.64839 1.00503 0.64902 0.0
C1109 C 0.6221 1.0086 0.67711 0.0
C1110 C 0.63901 1.01297 0.41375 0.0
C1111 C 0.66945 0.99918 0.7118 0.0
H1112 H 0.72252 0.95614 0.44304 0.0
H1113 H 0.73683 0.0387 0.46625 0.0
H1114 H 0.66648 0.95297 0.58042 0.0
H1115 H 0.65814 0.95481 0.47251 0.0
H1116 H 0.68582 0.93538 0.50472 0.0
H1117 H 0.70771 0.06667 0.53866 0.0
H1118 H 0.67496 0.05842 0.50464 0.0
H1119 H 0.68439 0.05202 0.60988 0.0
H1120 H 0.59236 0.01842 0.49113 0.0
H1121 H 0.61772 1.00747 0.74306 0.0
H1122 H 0.64754 0.99423 0.39143 0.0
H1123 H 0.65358 0.02871 0.40053 0.0
H1124 H 0.62089 0.017 0.37753 0.0
H1125 H 0.68014 0.98105 0.69433 0.0
H1126 H 0.66122 0.99651 0.77529 0.0
H1127 H 0.68401 0.01545 0.7122 0.0
C1128 C 0.5248 0.72649 0.48966 0.0
C1129 C 0.5452 0.73003 0.43124 0.0
C1130 C 0.52129 0.70214 0.5331 0.0
C1131 C 0.5373 0.67987 0.5141 0.0
C1132 C 0.55832 0.6838 0.45734 0.0
C1133 C 0.56282 0.70878 0.42181 0.0
C1134 C 0.50012 0.70057 0.5986 0.0
C1135 C 0.57598 0.66155 0.43035 0.0
C1136 C 0.54717 0.61403 0.63179 0.0
C1137 C 0.52639 0.59832 0.6025 0.0
C1138 C 0.5498 0.64086 0.60882 0.0
C1139 C 0.53218 0.65242 0.55039 0.0
C1140 C 0.51128 0.63636 0.52001 0.0
C1141 C 0.50826 0.61002 0.54808 0.0
C1142 C 0.57184 0.65645 0.64768 0.0
C1143 C 0.4922 0.64658 0.45604 0.0
H1144 H 0.51116 0.74242 0.50036 0.0
H1145 H 0.57982 0.7111 0.38178 0.0
H1146 H 0.48079 0.69792 0.56796 0.0
H1147 H 0.50326 0.68416 0.64298 0.0
H1148 H 0.49924 0.71924 0.63428 0.0
H1149 H 0.58309 0.66459 0.36561 0.0
H1150 H 0.5935 0.66101 0.47117 0.0
H1151 H 0.566 0.64215 0.43313 0.0
H1152 H 0.56124 0.60546 0.67443 0.0
H1153 H 0.49213 0.5982 0.52468 0.0
H1154 H 0.56852 0.67796 0.64459 0.0
H1155 H 0.5905 0.65176 0.61539 0.0
H1156 H 0.57438 0.65074 0.71395 0.0
H1157 H 0.47707 0.65858 0.48769 0.0
H1158 H 0.48199 0.63033 0.42302 0.0
H1159 H 0.50223 0.65915 0.40917 0.0
C1160 C 0.83308 0.53574 0.38435 0.0
C1161 C 0.81058 0.54255 0.43086 0.0
C1162 C 0.8581 0.53286 0.42126 0.0
C1163 C 0.86124 0.53604 0.5084 0.0
C1164 C 0.83838 0.54149 0.55677 0.0
C1165 C 0.81349 0.54491 0.5176 0.0
C1166 C 0.88139 0.52709 0.36594 0.0
C1167 C 0.84041 0.54465 0.64985 0.0
C1168 C 0.92536 0.50841 0.60271 0.0
C1169 C 0.94166 0.53075 0.6081 0.0
C1170 C 0.89919 0.50992 0.57285 0.0
C1171 C 0.88853 0.53441 0.54733 0.0
C1172 C 0.90483 0.55709 0.55358 0.0
C1173 C 0.93095 0.55501 0.58346 0.0
C1174 C 0.88304 0.48509 0.56741 0.0
C1175 C 0.89487 0.58365 0.52674 0.0
H1176 H 0.83131 0.53388 0.31734 0.0
H1177 H 0.79658 0.55051 0.55446 0.0
H1178 H 0.89777 0.54094 0.37894 0.0
H1179 H 0.88863 0.50697 0.37887 0.0
H1180 H 0.8764 0.52841 0.2988 0.0
H1181 H 0.82084 0.54675 0.67969 0.0
H1182 H 0.85054 0.52748 0.6776 0.0
H1183 H 0.85238 0.5623 0.66452 0.0
H1184 H 0.93313 0.48949 0.62119 0.0
H1185 H 0.94308 0.57252 0.58686 0.0
H1186 H 0.87849 0.48077 0.50132 0.0
H1187 H 0.86406 0.48771 0.60035 0.0
H1188 H 0.89335 0.4679 0.59453 0.0
H1189 H 0.89042 0.58334 0.45914 0.0
H1190 H 0.90933 0.5996 0.5389 0.0
H1191 H 0.87634 0.58829 0.55992 0.0
loop_
_geom_bond_atom_site_label_1
_geom_bond_atom_site_label_2
_geom_bond_distance
_geom_bond_site_symmetry_2
_ccdc_geom_bond_type
H0 C3 0.929 . S
H1 C6 0.929 . S
H2 C8 0.930 . S
C3 H0 0.929 . S
C3 C4 1.398 . S
C3 C5 1.396 . S
C4 C3 1.398 . S
C4 C8 1.407 . S
C5 C3 1.396 . S
C5 C6 1.394 . S
C6 H1 0.929 . S
C6 C5 1.394 . S
C6 C7 1.382 . S
C7 C6 1.382 . S
C7 C8 1.392 . S
C7 N9 1.420 . S
C8 H2 0.930 . S
C8 C4 1.407 . S
C8 C7 1.392 . S
N9 C7 1.420 . S
N9 C10 1.244 . S
C10 N9 1.244 . S
H11 C14 0.929 . S
H12 C17 0.929 . S
H13 C19 0.930 . S
C14 H11 0.929 . S
C14 C15 1.398 . S
C14 C16 1.396 . S
C15 C14 1.398 . S
C15 C19 1.407 . S
C16 C14 1.396 . S
C16 C17 1.394 . S
C17 H12 0.929 . S
C17 C16 1.394 . S
C17 C18 1.382 . S
C18 C17 1.382 . S
C18 C19 1.392 . S
C18 N20 1.420 . S
C19 H13 0.930 . S
C19 C15 1.407 . S
C19 C18 1.392 . S
N20 C18 1.420 . S
N20 C21 1.244 . S
C21 N20 1.244 . S
H22 C25 0.929 . S
H23 C28 0.929 . S
H24 C30 0.930 . S
C25 H22 0.929 . S
C25 C26 1.398 . S
C25 C27 1.396 . S
C26 C25 1.398 . S
C26 C30 1.407 . S
C27 C25 1.396 . S
C27 C28 1.394 . S
C28 H23 0.929 . S
C28 C27 1.394 . S
C28 C29 1.382 . S
C29 C28 1.382 . S
C29 C30 1.392 . S
C29 N31 1.420 . S
C30 H24 0.930 . S
C30 C26 1.407 . S
C30 C29 1.392 . S
N31 C29 1.420 . S
N31 C32 1.244 . S
C32 N31 1.244 . S
H33 C36 0.929 . S
H34 C39 0.929 . S
H35 C41 0.930 . S
C36 H33 0.929 . S
C36 C37 1.398 . S
C36 C38 1.396 . S
C37 C36 1.398 . S
C37 C41 1.407 . S
C38 C36 1.396 . S
C38 C39 1.394 . S
C39 H34 0.929 . S
C39 C38 1.394 . S
C39 C40 1.382 . S
C40 C39 1.382 . S
C40 C41 1.392 . S
C40 N42 1.420 . S
C41 H35 0.930 . S
C41 C37 1.407 . S
C41 C40 1.392 . S
N42 C40 1.420 . S
N42 C43 1.244 . S
C43 N42 1.244 . S
H44 C47 0.929 . S
H45 C50 0.929 . S
H46 C52 0.930 . S
C47 H44 0.929 . S
C47 C48 1.398 1_554 S
C47 C49 1.396 . S
C48 C47 1.398 1_556 S
C48 C52 1.407 . S
C49 C47 1.396 . S
C49 C50 1.394 . S
C50 H45 0.929 . S
C50 C49 1.394 . S
C50 C51 1.382 . S
C51 C50 1.382 . S
C51 C52 1.392 1_554 S
C51 N53 1.420 . S
C52 H46 0.930 . S
C52 C48 1.407 . S
C52 C51 1.392 1_556 S
N53 C51 1.420 . S
N53 C54 1.244 . S
C54 N53 1.244 . S
H55 C58 0.929 . S
H56 C61 0.929 . S
H57 C63 0.930 . S
C58 H55 0.929 . S
C58 C59 1.398 1_554 S
C58 C60 1.396 . S
C59 C58 1.398 1_556 S
C59 C63 1.407 . S
C60 C58 1.396 . S
C60 C61 1.394 . S
C61 H56 0.929 . S
C61 C60 1.394 . S
C61 C62 1.382 . S
C62 C61 1.382 . S
C62 C63 1.392 1_554 S
C62 N64 1.420 . S
C63 H57 0.930 . S
C63 C59 1.407 . S
C63 C62 1.392 1_556 S
N64 C62 1.420 . S
N64 C65 1.244 . S
C65 N64 1.244 . S
H66 C69 0.929 . S
H67 C72 0.929 . S
H68 C74 0.930 . S
C69 H66 0.929 . S
C69 C70 1.398 1_554 S
C69 C71 1.396 . S
C70 C69 1.398 1_556 S
C70 C74 1.407 . S
C71 C69 1.396 . S
C71 C72 1.394 . S
C72 H67 0.929 . S
C72 C71 1.394 . S
C72 C73 1.382 . S
C73 C72 1.382 . S
C73 C74 1.392 1_554 S
C73 N75 1.420 . S
C74 H68 0.930 . S
C74 C70 1.407 . S
C74 C73 1.392 1_556 S
N75 C73 1.420 . S
N75 C76 1.244 . S
C76 N75 1.244 . S
H77 C80 0.929 . S
H78 C83 0.929 . S
H79 C85 0.930 . S
C80 H77 0.929 . S
C80 C81 1.398 1_554 S
C80 C82 1.396 . S
C81 C80 1.398 1_556 S
C81 C85 1.407 . S
C82 C80 1.396 . S
C82 C83 1.394 . S
C83 H78 0.929 . S
C83 C82 1.394 . S
C83 C84 1.382 . S
C84 C83 1.382 . S
C84 C85 1.392 1_554 S
C84 N86 1.420 . S
C85 H79 0.930 . S
C85 C81 1.407 . S
C85 C84 1.392 1_556 S
N86 C84 1.420 . S
N86 C87 1.244 . S
C87 N86 1.244 . S
Eu88 N117 2.600 . S
Eu88 N123 2.562 . S
Eu88 O132 2.462 1_655 S
Eu88 O133 2.373 1_545 S
Eu88 O135 2.432 . S
Eu88 O136 2.291 1_655 S
Eu88 O140 2.335 1_655 S
Eu88 O143 2.372 . S
Eu88 C152 2.787 . S
C89 N90 1.365 . S
C89 C92 1.405 . S
C89 C96 1.448 . S
N90 C89 1.365 . S
N90 C93 1.319 . S
N90 Eu99 2.600 1_545 S
C91 C93 1.397 . S
C91 C94 1.367 . S
C91 H111 0.931 . S
C92 C89 1.405 . S
C92 C94 1.403 . S
C92 C98 1.437 1_556 S
C93 N90 1.319 . S
C93 C91 1.397 . S
C93 H104 0.930 1_545 S
C94 C91 1.367 . S
C94 C92 1.403 . S
C94 H115 0.929 . S
C95 C96 1.430 1_554 S
C95 C97 1.387 . S
C95 C101 1.404 . S
C96 C89 1.448 . S
C96 C95 1.430 1_556 S
C96 N100 1.351 . S
C97 C95 1.387 . S
C97 C98 1.376 . S
C97 H112 0.931 . S
C98 C92 1.437 1_554 S
C98 C97 1.376 . S
C98 H113 0.932 . S
Eu99 N90 2.600 1_565 S
Eu99 N100 2.562 1_565 S
Eu99 O134 2.335 . S
Eu99 O137 2.372 . S
Eu99 O138 2.462 . S
Eu99 O139 2.373 1_565 S
Eu99 O141 2.432 . S
Eu99 O142 2.291 1_465 S
Eu99 C163 2.787 . S
N100 C96 1.351 . S
N100 Eu99 2.562 1_545 S
N100 C102 1.325 . S
C101 C95 1.404 . S
C101 C103 1.366 . S
C101 H109 0.930 . S
C102 N100 1.325 . S
C102 C103 1.416 1_556 S
C102 H108 0.929 1_455 S
C103 C101 1.366 . S
C103 C102 1.416 1_554 S
C103 H105 0.930 1_455 S
H104 C93 0.930 1_565 S
H105 C103 0.930 1_655 S
H106 C121 0.930 . S
H107 C128 0.930 . S
H108 C102 0.929 1_655 S
H109 C101 0.930 . S
H110 C124 0.929 . S
H111 C91 0.931 . S
H112 C97 0.931 . S
H113 C98 0.932 . S
H114 C119 0.931 . S
H115 C94 0.929 . S
H116 C127 0.930 . S
N117 Eu88 2.600 . S
N117 C118 1.365 . S
N117 C121 1.319 . S
C118 N117 1.365 . S
C118 C120 1.405 1_545 S
C118 C126 1.448 . S
C119 H114 0.931 . S
C119 C121 1.397 . S
C119 C122 1.367 1_545 S
C120 C118 1.405 1_565 S
C120 C122 1.403 . S
C120 C153 1.439 . S
C121 H106 0.930 . S
C121 N117 1.319 . S
C121 C119 1.397 . S
C122 C119 1.367 1_565 S
C122 C120 1.403 . S
C122 H129 0.929 . S
N123 Eu88 2.562 . S
N123 C124 1.325 1_655 S
N123 C126 1.351 . S
C124 H110 0.929 . S
C124 N123 1.325 1_455 S
C124 C128 1.416 1_545 S
C125 C126 1.430 1_565 S
C125 C127 1.404 . S
C125 C154 1.387 . S
C126 C118 1.448 . S
C126 N123 1.351 . S
C126 C125 1.430 1_545 S
C127 H116 0.930 . S
C127 C125 1.404 . S
C127 C128 1.366 1_655 S
C128 H107 0.930 . S
C128 C124 1.416 1_565 S
C128 C127 1.366 1_455 S
H129 C122 0.929 . S
H130 C153 0.931 . S
H131 C154 0.931 . S
O132 Eu88 2.462 1_455 S
O132 C152 1.252 1_455 S
O133 Eu88 2.373 1_565 S
O133 C144 1.249 . S
O134 Eu99 2.335 . S
O134 C144 1.264 1_455 S
O135 Eu88 2.432 . S
O135 C152 1.268 . S
O136 Eu88 2.291 1_455 S
O136 C151 1.255 . S
O137 Eu99 2.372 . S
O137 C151 1.257 1_565 S
O138 Eu99 2.462 . S
O138 C163 1.252 . S
O139 Eu99 2.373 1_545 S
O139 C155 1.249 . S
O140 Eu88 2.335 1_455 S
O140 C155 1.264 . S
O141 Eu99 2.432 . S
O141 C163 1.268 . S
O142 Eu99 2.291 1_645 S
O142 C162 1.255 . S
O143 Eu88 2.372 . S
O143 C162 1.257 . S
C144 O133 1.249 . S
C144 O134 1.264 1_655 S
C145 C148 1.382 . S
C145 C150 1.390 . S
C145 C152 1.506 . S
C146 C147 1.398 . S
C146 C150 1.392 . S
C147 C146 1.398 . S
C147 C149 1.372 . S
C147 H164 0.931 . S
C148 C145 1.382 . S
C148 C149 1.390 . S
C148 H165 0.931 . S
C149 C147 1.372 . S
C149 C148 1.390 . S
C149 H166 0.929 . S
C150 C145 1.390 . S
C150 C146 1.392 . S
C150 H167 0.930 1_655 S
C151 O136 1.255 . S
C151 O137 1.257 1_545 S
C152 Eu88 2.787 . S
C152 O132 1.252 1_655 S
C152 O135 1.268 . S
C152 C145 1.506 . S
C153 C120 1.439 . S
C153 H130 0.931 . S
C153 C154 1.374 . S
C154 C125 1.387 . S
C154 H131 0.931 . S
C154 C153 1.374 . S
C155 O139 1.249 . S
C155 O140 1.264 . S
C156 C159 1.382 . S
C156 C160 1.390 . S
C156 C163 1.506 . S
C157 C158 1.398 . S
C157 C160 1.392 . S
C158 C157 1.398 . S
C158 C161 1.372 . S
C158 H168 0.931 1_556 S
C159 C156 1.382 . S
C159 C161 1.390 . S
C159 H169 0.931 . S
C160 C156 1.390 . S
C160 C157 1.392 . S
C160 H170 0.930 . S
C161 C158 1.372 . S
C161 C159 1.390 . S
C161 H171 0.929 . S
C162 O142 1.255 . S
C162 O143 1.257 . S
C163 Eu99 2.787 . S
C163 O138 1.252 . S
C163 O141 1.268 . S
C163 C156 1.506 . S
H164 C147 0.931 . S
H165 C148 0.931 . S
H166 C149 0.929 . S
H167 C150 0.930 1_455 S
H168 C158 0.931 1_554 S
H169 C159 0.931 . S
H170 C160 0.930 . S
H171 C161 0.929 . S
Eu172 N201 2.600 . S
Eu172 N207 2.562 . S
Eu172 O216 2.462 . S
Eu172 O217 2.373 . S
Eu172 O219 2.432 . S
Eu172 O220 2.291 . S
Eu172 O224 2.335 1_545 S
Eu172 O227 2.372 . S
Eu172 C236 2.787 . S
C173 N174 1.365 . S
C173 C176 1.405 . S
C173 C180 1.448 . S
N174 C173 1.365 . S
N174 C177 1.319 . S
N174 Eu183 2.600 . S
C175 C177 1.397 . S
C175 C178 1.367 . S
C175 H195 0.931 . S
C176 C173 1.405 . S
C176 C178 1.403 . S
C176 C182 1.439 . S
C177 N174 1.319 . S
C177 C175 1.397 . S
C177 H188 0.930 . S
C178 C175 1.367 . S
C178 C176 1.403 . S
C178 H199 0.929 . S
C179 C180 1.430 . S
C179 C181 1.387 . S
C179 C185 1.404 . S
C180 C173 1.448 . S
C180 C179 1.430 . S
C180 N184 1.351 . S
C181 C179 1.387 . S
C181 C182 1.374 . S
C181 H196 0.931 . S
C182 C176 1.439 . S
C182 C181 1.374 . S
C182 H197 0.931 . S
Eu183 N174 2.600 . S
Eu183 N184 2.562 . S
Eu183 O218 2.335 1_565 S
Eu183 O221 2.372 . S
Eu183 O222 2.462 . S
Eu183 O223 2.373 . S
Eu183 O225 2.432 . S
Eu183 O226 2.291 1_565 S
Eu183 C247 2.787 . S
N184 C180 1.351 . S
N184 Eu183 2.562 . S
N184 C186 1.325 . S
C185 C179 1.404 . S
C185 C187 1.366 . S
C185 H193 0.930 . S
C186 N184 1.325 . S
C186 C187 1.416 . S
C186 H192 0.929 . S
C187 C185 1.366 . S
C187 C186 1.416 . S
C187 H189 0.930 . S
H188 C177 0.930 . S
H189 C187 0.930 . S
H190 C205 0.930 . S
H191 C212 0.930 . S
H192 C186 0.929 . S
H193 C185 0.930 . S
H194 C208 0.929 . S
H195 C175 0.931 . S
H196 C181 0.931 . S
H197 C182 0.931 . S
H198 C203 0.931 . S
H199 C178 0.929 . S
H200 C211 0.930 . S
N201 Eu172 2.600 . S
N201 C202 1.365 . S
N201 C205 1.319 . S
C202 N201 1.365 . S
C202 C204 1.405 . S
C202 C210 1.448 . S
C203 H198 0.931 . S
C203 C205 1.397 . S
C203 C206 1.367 . S
C204 C202 1.405 . S
C204 C206 1.403 . S
C204 C237 1.439 . S
C205 H190 0.930 . S
C205 N201 1.319 . S
C205 C203 1.397 . S
C206 C203 1.367 . S
C206 C204 1.403 . S
C206 H213 0.929 . S
N207 Eu172 2.562 . S
N207 C208 1.325 . S
N207 C210 1.351 . S
C208 H194 0.929 . S
C208 N207 1.325 . S
C208 C212 1.416 . S
C209 C210 1.430 . S
C209 C211 1.404 . S
C209 C238 1.387 . S
C210 C202 1.448 . S
C210 N207 1.351 . S
C210 C209 1.430 . S
C211 H200 0.930 . S
C211 C209 1.404 . S
C211 C212 1.366 . S
C212 H191 0.930 . S
C212 C208 1.416 . S
C212 C211 1.366 . S
H213 C206 0.929 . S
H214 C237 0.931 . S
H215 C238 0.931 . S
O216 Eu172 2.462 . S
O216 C236 1.252 . S
O217 Eu172 2.373 . S
O217 C228 1.249 . S
O218 Eu183 2.335 1_545 S
O218 C228 1.264 . S
O219 Eu172 2.432 . S
O219 C236 1.268 . S
O220 Eu172 2.291 . S
O220 C235 1.255 . S
O221 Eu183 2.372 . S
O221 C235 1.257 1_565 S
O222 Eu183 2.462 . S
O222 C247 1.252 . S
O223 Eu183 2.373 . S
O223 C239 1.249 . S
O224 Eu172 2.335 1_565 S
O224 C239 1.264 . S
O225 Eu183 2.432 . S
O225 C247 1.268 . S
O226 Eu183 2.291 1_545 S
O226 C246 1.255 . S
O227 Eu172 2.372 . S
O227 C246 1.257 . S
C228 O217 1.249 . S
C228 O218 1.264 . S
C229 C232 1.382 1_556 S
C229 C234 1.390 . S
C229 C236 1.506 . S
C230 C231 1.398 . S
C230 C234 1.392 1_554 S
C231 C230 1.398 . S
C231 C233 1.372 . S
C231 H248 0.931 . S
C232 C229 1.382 1_554 S
C232 C233 1.390 . S
C232 H249 0.931 . S
C233 C231 1.372 . S
C233 C232 1.390 . S
C233 H250 0.929 . S
C234 C229 1.390 . S
C234 C230 1.392 1_556 S
C234 H251 0.930 . S
C235 O220 1.255 . S
C235 O221 1.257 1_545 S
C236 Eu172 2.787 . S
C236 O216 1.252 . S
C236 O219 1.268 . S
C236 C229 1.506 . S
C237 C204 1.439 . S
C237 H214 0.931 . S
C237 C238 1.374 . S
C238 C209 1.387 . S
C238 H215 0.931 . S
C238 C237 1.374 . S
C239 O223 1.249 . S
C239 O224 1.264 . S
C240 C243 1.382 . S
C240 C244 1.390 1_565 S
C240 C247 1.506 . S
C241 C242 1.398 1_545 S
C241 C244 1.392 . S
C242 C241 1.398 1_565 S
C242 C245 1.372 . S
C242 H252 0.931 . S
C243 C240 1.382 . S
C243 C245 1.390 . S
C243 H253 0.931 . S
C244 C240 1.390 1_545 S
C244 C241 1.392 . S
C244 H254 0.930 . S
C245 C242 1.372 . S
C245 C243 1.390 . S
C245 H255 0.929 . S
C246 O226 1.255 . S
C246 O227 1.257 . S
C247 Eu183 2.787 . S
C247 O222 1.252 . S
C247 O225 1.268 . S
C247 C240 1.506 . S
H248 C231 0.931 . S
H249 C232 0.931 . S
H250 C233 0.929 . S
H251 C234 0.930 . S
H252 C242 0.931 . S
H253 C243 0.931 . S
H254 C244 0.930 . S
H255 C245 0.929 . S
Eu256 N285 2.600 . S
Eu256 N291 2.562 . S
Eu256 O300 2.462 . S
Eu256 O301 2.373 . S
Eu256 O303 2.432 . S
Eu256 O304 2.291 . S
Eu256 O308 2.335 . S
Eu256 O311 2.372 . S
Eu256 C320 2.787 . S
C257 N258 1.365 . S
C257 C260 1.405 . S
C257 C264 1.448 . S
N258 C257 1.365 . S
N258 C261 1.319 . S
N258 Eu267 2.600 . S
C259 C261 1.397 . S
C259 C262 1.367 . S
C259 H279 0.931 . S
C260 C257 1.405 . S
C260 C262 1.403 . S
C260 C266 1.437 1_556 S
C261 N258 1.319 . S
C261 C259 1.397 . S
C261 H272 0.930 . S
C262 C259 1.367 . S
C262 C260 1.403 . S
C262 H283 0.929 . S
C263 C264 1.430 1_554 S
C263 C265 1.387 . S
C263 C269 1.404 . S
C264 C257 1.448 . S
C264 C263 1.430 1_556 S
C264 N268 1.351 . S
C265 C263 1.387 . S
C265 C266 1.376 . S
C265 H280 0.931 . S
C266 C260 1.437 1_554 S
C266 C265 1.376 . S
C266 H281 0.931 . S
Eu267 N258 2.600 . S
Eu267 N268 2.562 . S
Eu267 O302 2.335 . S
Eu267 O305 2.372 . S
Eu267 O306 2.462 . S
Eu267 O307 2.373 . S
Eu267 O309 2.432 . S
Eu267 O310 2.291 . S
Eu267 C331 2.787 . S
N268 C264 1.351 . S
N268 Eu267 2.562 . S
N268 C270 1.325 . S
C269 C263 1.404 . S
C269 C271 1.366 . S
C269 H277 0.930 . S
C270 N268 1.325 . S
C270 C271 1.416 1_556 S
C270 H276 0.929 . S
C271 C269 1.366 . S
C271 C270 1.416 1_554 S
C271 H273 0.930 . S
H272 C261 0.930 . S
H273 C271 0.930 . S
H274 C289 0.930 . S
H275 C296 0.930 . S
H276 C270 0.929 . S
H277 C269 0.930 . S
H278 C292 0.929 . S
H279 C259 0.931 . S
H280 C265 0.931 . S
H281 C266 0.931 . S
H282 C287 0.931 . S
H283 C262 0.929 . S
H284 C295 0.930 . S
N285 Eu256 2.600 . S
N285 C286 1.365 . S
N285 C289 1.319 . S
C286 N285 1.365 . S
C286 C288 1.405 . S
C286 C294 1.448 . S
C287 H282 0.931 . S
C287 C289 1.397 . S
C287 C290 1.367 . S
C288 C286 1.405 . S
C288 C290 1.403 . S
C288 C321 1.439 . S
C289 H274 0.930 . S
C289 N285 1.319 . S
C289 C287 1.397 . S
C290 C287 1.367 . S
C290 C288 1.403 . S
C290 H297 0.929 . S
N291 Eu256 2.562 . S
N291 C292 1.325 . S
N291 C294 1.351 . S
C292 H278 0.929 . S
C292 N291 1.325 . S
C292 C296 1.416 . S
C293 C294 1.430 . S
C293 C295 1.404 . S
C293 C322 1.387 . S
C294 C286 1.448 . S
C294 N291 1.351 . S
C294 C293 1.430 . S
C295 H284 0.930 . S
C295 C293 1.404 . S
C295 C296 1.366 . S
C296 H275 0.930 . S
C296 C292 1.416 . S
C296 C295 1.366 . S
H297 C290 0.929 . S
H298 C321 0.931 . S
H299 C322 0.931 . S
O300 Eu256 2.462 . S
O300 C320 1.252 . S
O301 Eu256 2.373 . S
O301 C312 1.249 . S
O302 Eu267 2.335 . S
O302 C312 1.264 . S
O303 Eu256 2.432 . S
O303 C320 1.268 . S
O304 Eu256 2.291 . S
O304 C319 1.255 . S
O305 Eu267 2.372 . S
O305 C319 1.257 . S
O306 Eu267 2.462 . S
O306 C331 1.252 . S
O307 Eu267 2.373 . S
O307 C323 1.249 . S
O308 Eu256 2.335 . S
O308 C323 1.264 . S
O309 Eu267 2.432 . S
O309 C331 1.268 . S
O310 Eu267 2.291 . S
O310 C330 1.255 . S
O311 Eu256 2.372 . S
O311 C330 1.257 . S
C312 O301 1.249 . S
C312 O302 1.264 . S
C313 C316 1.382 . S
C313 C318 1.390 . S
C313 C320 1.506 . S
C314 C315 1.398 . S
C314 C318 1.392 . S
C315 C314 1.398 . S
C315 C317 1.372 . S
C315 H332 0.931 . S
C316 C313 1.382 . S
C316 C317 1.390 . S
C316 H333 0.931 . S
C317 C315 1.372 . S
C317 C316 1.390 . S
C317 H334 0.929 . S
C318 C313 1.390 . S
C318 C314 1.392 . S
C318 H335 0.930 . S
C319 O304 1.255 . S
C319 O305 1.257 . S
C320 Eu256 2.787 . S
C320 O300 1.252 . S
C320 O303 1.268 . S
C320 C313 1.506 . S
C321 C288 1.439 . S
C321 H298 0.931 . S
C321 C322 1.374 . S
C322 C293 1.387 . S
C322 H299 0.931 . S
C322 C321 1.374 . S
C323 O307 1.249 . S
C323 O308 1.264 . S
C324 C327 1.382 . S
C324 C328 1.390 . S
C324 C331 1.506 . S
C325 C326 1.398 . S
C325 C328 1.392 . S
C326 C325 1.398 . S
C326 C329 1.372 . S
C326 H336 0.931 1_556 S
C327 C324 1.382 . S
C327 C329 1.390 . S
C327 H337 0.931 . S
C328 C324 1.390 . S
C328 C325 1.392 . S
C328 H338 0.930 . S
C329 C326 1.372 . S
C329 C327 1.390 . S
C329 H339 0.929 . S
C330 O310 1.255 . S
C330 O311 1.257 . S
C331 Eu267 2.787 . S
C331 O306 1.252 . S
C331 O309 1.268 . S
C331 C324 1.506 . S
H332 C315 0.931 . S
H333 C316 0.931 . S
H334 C317 0.929 . S
H335 C318 0.930 . S
H336 C326 0.931 1_554 S
H337 C327 0.931 . S
H338 C328 0.930 . S
H339 C329 0.929 . S
Eu340 N369 2.600 . S
Eu340 N375 2.562 . S
Eu340 O384 2.462 . S
Eu340 O385 2.373 1_455 S
Eu340 O387 2.432 . S
Eu340 O388 2.291 . S
Eu340 O392 2.335 . S
Eu340 O395 2.372 . S
Eu340 C404 2.787 . S
C341 N342 1.365 . S
C341 C344 1.405 . S
C341 C348 1.448 . S
N342 C341 1.365 . S
N342 C345 1.315 1_455 S
N342 Eu351 2.600 1_455 S
C343 C345 1.385 1_455 S
C343 C346 1.367 . S
C343 H363 0.931 . S
C344 C341 1.405 . S
C344 C346 1.403 . S
C344 C350 1.440 1_556 S
C345 N342 1.315 1_655 S
C345 C343 1.385 1_655 S
C345 H356 0.948 . S
C346 C343 1.367 . S
C346 C344 1.403 . S
C346 H367 0.929 . S
C347 C348 1.430 1_554 S
C347 C349 1.387 . S
C347 C353 1.404 . S
C348 C341 1.448 . S
C348 C347 1.430 1_556 S
C348 N352 1.351 . S
C349 C347 1.387 . S
C349 C350 1.374 . S
C349 H364 0.931 . S
C350 C344 1.440 1_554 S
C350 C349 1.374 . S
C350 H365 0.930 . S
Eu351 N342 2.600 1_655 S
Eu351 N352 2.562 1_655 S
Eu351 O386 2.335 . S
Eu351 O389 2.372 . S
Eu351 O390 2.462 . S
Eu351 O391 2.373 1_655 S
Eu351 O393 2.432 . S
Eu351 O394 2.291 1_655 S
Eu351 C415 2.787 . S
N352 C348 1.351 . S
N352 Eu351 2.562 1_455 S
N352 C354 1.325 . S
C353 C347 1.404 . S
C353 C355 1.366 . S
C353 H361 0.930 . S
C354 N352 1.325 . S
C354 C355 1.416 1_556 S
C354 H360 0.929 . S
C355 C353 1.366 . S
C355 C354 1.416 1_554 S
C355 H357 0.930 . S
H356 C345 0.948 . S
H357 C355 0.930 . S
H358 C373 0.930 . S
H359 C380 0.930 . S
H360 C354 0.929 . S
H361 C353 0.930 . S
H362 C376 0.929 . S
H363 C343 0.931 . S
H364 C349 0.931 . S
H365 C350 0.930 . S
H366 C371 0.931 . S
H367 C346 0.929 . S
H368 C379 0.930 . S
N369 Eu340 2.600 . S
N369 C370 1.365 . S
N369 C373 1.319 . S
C370 N369 1.365 . S
C370 C372 1.405 1_455 S
C370 C378 1.449 . S
C371 H366 0.931 . S
C371 C373 1.397 . S
C371 C374 1.367 1_455 S
C372 C370 1.405 1_655 S
C372 C374 1.403 . S
C372 C405 1.439 . S
C373 H358 0.930 . S
C373 N369 1.319 . S
C373 C371 1.397 . S
C374 C371 1.367 1_655 S
C374 C372 1.403 . S
C374 H381 0.929 . S
N375 Eu340 2.562 . S
N375 C376 1.325 . S
N375 C378 1.356 . S
C376 H362 0.929 . S
C376 N375 1.325 . S
C376 C380 1.416 1_455 S
C377 C378 1.424 1_655 S
C377 C379 1.404 . S
C377 C406 1.387 . S
C378 C370 1.449 . S
C378 N375 1.356 . S
C378 C377 1.424 1_455 S
C379 H368 0.930 . S
C379 C377 1.404 . S
C379 C380 1.366 . S
C380 H359 0.930 . S
C380 C376 1.416 1_655 S
C380 C379 1.366 . S
H381 C374 0.929 . S
H382 C405 0.931 . S
H383 C406 0.931 . S
O384 Eu340 2.462 . S
O384 C404 1.252 . S
O385 Eu340 2.373 1_655 S
O385 C396 1.249 . S
O386 Eu351 2.335 . S
O386 C396 1.264 . S
O387 Eu340 2.432 . S
O387 C404 1.268 . S
O388 Eu340 2.291 . S
O388 C403 1.255 . S
O389 Eu351 2.372 . S
O389 C403 1.257 1_655 S
O390 Eu351 2.462 . S
O390 C415 1.252 . S
O391 Eu351 2.373 1_455 S
O391 C407 1.249 . S
O392 Eu340 2.335 . S
O392 C407 1.264 . S
O393 Eu351 2.432 . S
O393 C415 1.268 . S
O394 Eu351 2.291 1_455 S
O394 C414 1.255 . S
O395 Eu340 2.372 . S
O395 C414 1.257 . S
C396 O385 1.249 . S
C396 O386 1.264 . S
C397 C400 1.382 . S
C397 C402 1.390 . S
C397 C404 1.506 . S
C398 C399 1.398 . S
C398 C402 1.392 . S
C399 C398 1.398 . S
C399 C401 1.372 . S
C399 H416 0.931 . S
C400 C397 1.382 . S
C400 C401 1.390 . S
C400 H417 0.931 . S
C401 C399 1.372 . S
C401 C400 1.390 . S
C401 H418 0.929 . S
C402 C397 1.390 . S
C402 C398 1.392 . S
C402 H419 0.930 . S
C403 O388 1.255 . S
C403 O389 1.257 1_455 S
C404 Eu340 2.787 . S
C404 O384 1.252 . S
C404 O387 1.268 . S
C404 C397 1.506 . S
C405 C372 1.439 . S
C405 H382 0.931 . S
C405 C406 1.374 . S
C406 C377 1.387 . S
C406 H383 0.931 . S
C406 C405 1.374 . S
C407 O391 1.249 . S
C407 O392 1.264 . S
C408 C411 1.382 . S
C408 C412 1.390 . S
C408 C415 1.506 . S
C409 C410 1.398 . S
C409 C412 1.392 . S
C410 C409 1.398 . S
C410 C413 1.372 . S
C410 H420 0.931 1_556 S
C411 C408 1.382 . S
C411 C413 1.390 . S
C411 H421 0.931 . S
C412 C408 1.390 . S
C412 C409 1.392 . S
C412 H422 0.930 . S
C413 C410 1.372 . S
C413 C411 1.390 . S
C413 H423 0.929 . S
C414 O394 1.255 . S
C414 O395 1.257 . S
C415 Eu351 2.787 . S
C415 O390 1.252 . S
C415 O393 1.268 . S
C415 C408 1.506 . S
H416 C399 0.931 . S
H417 C400 0.931 . S
H418 C401 0.929 . S
H419 C402 0.930 . S
H420 C410 0.931 1_554 S
H421 C411 0.931 . S
H422 C412 0.930 . S
H423 C413 0.929 . S
C424 C425 1.391 . S
C424 C426 1.394 . S
C424 H440 0.931 . S
C425 C424 1.391 . S
C425 C429 1.376 . S
C426 C424 1.394 . S
C426 C427 1.369 . S
C426 C430 1.531 . S
C427 C426 1.369 . S
C427 C428 1.410 . S
C427 C435 1.503 . S
C428 C427 1.410 . S
C428 C429 1.392 . S
C428 C431 1.511 1_545 S
C429 C425 1.376 . S
C429 C428 1.392 . S
C429 H441 0.929 . S
C430 C426 1.531 . S
C430 H442 0.960 . S
C430 H443 0.962 . S
C430 H444 0.960 . S
C431 C428 1.511 1_565 S
C431 H445 0.961 . S
C431 H446 0.961 . S
C431 H447 0.961 . S
C432 C433 1.370 . S
C432 C434 1.363 . S
C432 H448 0.931 . S
C433 C432 1.370 . S
C433 C437 1.408 . S
C434 C432 1.363 . S
C434 C435 1.370 . S
C434 C438 1.524 . S
C435 C427 1.503 . S
C435 C434 1.370 . S
C435 C436 1.403 . S
C436 C435 1.403 . S
C436 C437 1.404 . S
C436 C439 1.539 . S
C437 C433 1.408 . S
C437 C436 1.404 . S
C437 H449 0.930 . S
C438 C434 1.524 . S
C438 H450 0.956 . S
C438 H451 0.974 . S
C438 H452 0.961 . S
C439 C436 1.539 . S
C439 H453 0.958 . S
C439 H454 0.961 . S
C439 H455 0.960 . S
H440 C424 0.931 . S
H441 C429 0.929 . S
H442 C430 0.960 . S
H443 C430 0.962 . S
H444 C430 0.960 . S
H445 C431 0.961 . S
H446 C431 0.961 . S
H447 C431 0.961 . S
H448 C432 0.931 . S
H449 C437 0.930 . S
H450 C438 0.956 . S
H451 C438 0.974 . S
H452 C438 0.961 . S
H453 C439 0.958 . S
H454 C439 0.961 . S
H455 C439 0.960 . S
C456 C457 1.391 . S
C456 C458 1.394 . S
C456 H472 0.931 . S
C457 C456 1.391 . S
C457 C461 1.376 . S
C458 C456 1.394 . S
C458 C459 1.369 . S
C458 C462 1.531 . S
C459 C458 1.369 . S
C459 C460 1.410 . S
C459 C467 1.503 . S
C460 C459 1.410 . S
C460 C461 1.392 . S
C460 C463 1.511 . S
C461 C457 1.376 . S
C461 C460 1.392 . S
C461 H473 0.929 . S
C462 C458 1.531 . S
C462 H474 0.960 . S
C462 H475 0.962 . S
C462 H476 0.960 . S
C463 C460 1.511 . S
C463 H477 0.961 . S
C463 H478 0.961 . S
C463 H479 0.961 . S
C464 C465 1.370 . S
C464 C466 1.363 . S
C464 H480 0.931 . S
C465 C464 1.370 . S
C465 C469 1.408 . S
C466 C464 1.363 . S
C466 C467 1.370 . S
C466 C470 1.524 . S
C467 C459 1.503 . S
C467 C466 1.370 . S
C467 C468 1.403 . S
C468 C467 1.403 . S
C468 C469 1.404 . S
C468 C471 1.539 . S
C469 C465 1.408 . S
C469 C468 1.404 . S
C469 H481 0.930 . S
C470 C466 1.524 . S
C470 H482 0.956 . S
C470 H483 0.961 . S
C470 H484 0.961 . S
C471 C468 1.539 . S
C471 H485 0.958 . S
C471 H486 0.961 . S
C471 H487 0.960 . S
H472 C456 0.931 . S
H473 C461 0.929 . S
H474 C462 0.960 . S
H475 C462 0.962 . S
H476 C462 0.960 . S
H477 C463 0.961 . S
H478 C463 0.961 . S
H479 C463 0.961 . S
H480 C464 0.931 . S
H481 C469 0.930 . S
H482 C470 0.956 . S
H483 C470 0.961 . S
H484 C470 0.961 . S
H485 C471 0.958 . S
H486 C471 0.961 . S
H487 C471 0.960 . S
C488 C489 1.391 . S
C488 C490 1.394 . S
C488 H504 0.931 . S
C489 C488 1.391 . S
C489 C493 1.376 . S
C490 C488 1.394 . S
C490 C491 1.369 . S
C490 C494 1.531 . S
C491 C490 1.369 . S
C491 C492 1.410 . S
C491 C499 1.503 . S
C492 C491 1.410 . S
C492 C493 1.392 . S
C492 C495 1.511 . S
C493 C489 1.376 . S
C493 C492 1.392 . S
C493 H505 0.929 . S
C494 C490 1.531 . S
C494 H506 0.960 . S
C494 H507 0.962 . S
C494 H508 0.960 . S
C495 C492 1.511 . S
C495 H509 0.961 . S
C495 H510 0.961 . S
C495 H511 0.961 . S
C496 C497 1.370 . S
C496 C498 1.363 . S
C496 H512 0.931 . S
C497 C496 1.370 . S
C497 C501 1.408 . S
C498 C496 1.363 . S
C498 C499 1.370 . S
C498 C502 1.524 . S
C499 C491 1.503 . S
C499 C498 1.370 . S
C499 C500 1.403 . S
C500 C499 1.403 . S
C500 C501 1.404 . S
C500 C503 1.539 . S
C501 C497 1.408 . S
C501 C500 1.404 . S
C501 H513 0.930 . S
C502 C498 1.524 . S
C502 H514 0.956 . S
C502 H515 0.961 . S
C502 H516 0.961 . S
C503 C500 1.539 . S
C503 H517 0.958 . S
C503 H518 0.961 . S
C503 H519 0.960 . S
H504 C488 0.931 . S
H505 C493 0.929 . S
H506 C494 0.960 . S
H507 C494 0.962 . S
H508 C494 0.960 . S
H509 C495 0.961 . S
H510 C495 0.961 . S
H511 C495 0.961 . S
H512 C496 0.931 . S
H513 C501 0.930 . S
H514 C502 0.956 . S
H515 C502 0.961 . S
H516 C502 0.961 . S
H517 C503 0.958 . S
H518 C503 0.961 . S
H519 C503 0.960 . S
C520 C521 1.391 . S
C520 C522 1.394 . S
C520 H536 0.931 . S
C521 C520 1.391 . S
C521 C525 1.376 . S
C522 C520 1.394 . S
C522 C523 1.369 . S
C522 C526 1.531 . S
C523 C522 1.369 . S
C523 C524 1.410 . S
C523 C531 1.503 . S
C524 C523 1.410 . S
C524 C525 1.392 . S
C524 C527 1.511 1_455 S
C525 C521 1.376 . S
C525 C524 1.392 . S
C525 H537 0.929 1_455 S
C526 C522 1.531 . S
C526 H538 0.960 . S
C526 H539 0.962 . S
C526 H540 0.960 . S
C527 C524 1.511 1_655 S
C527 H541 0.961 . S
C527 H542 0.961 . S
C527 H543 0.961 . S
C528 C529 1.370 . S
C528 C530 1.363 . S
C528 H544 0.931 . S
C529 C528 1.370 . S
C529 C533 1.408 . S
C530 C528 1.363 . S
C530 C531 1.370 . S
C530 C534 1.524 . S
C531 C523 1.503 . S
C531 C530 1.370 . S
C531 C532 1.403 . S
C532 C531 1.403 . S
C532 C533 1.404 . S
C532 C535 1.539 . S
C533 C529 1.408 . S
C533 C532 1.404 . S
C533 H545 0.930 . S
C534 C530 1.524 . S
C534 H546 0.956 . S
C534 H547 0.961 . S
C534 H548 0.961 . S
C535 C532 1.539 . S
C535 H549 0.958 . S
C535 H550 0.961 . S
C535 H551 0.960 . S
H536 C520 0.931 . S
H537 C525 0.929 1_655 S
H538 C526 0.960 . S
H539 C526 0.962 . S
H540 C526 0.960 . S
H541 C527 0.961 . S
H542 C527 0.961 . S
H543 C527 0.961 . S
H544 C528 0.931 . S
H545 C533 0.930 . S
H546 C534 0.956 . S
H547 C534 0.961 . S
H548 C534 0.961 . S
H549 C535 0.958 . S
H550 C535 0.961 . S
H551 C535 0.960 . S
C552 C553 1.391 1_545 S
C552 C554 1.394 . S
C552 H568 0.931 . S
C553 C552 1.391 1_565 S
C553 C557 1.376 . S
C554 C552 1.394 . S
C554 C555 1.369 1_545 S
C554 C558 1.531 . S
C555 C554 1.369 1_565 S
C555 C556 1.410 . S
C555 C563 1.503 1_554 S
C556 C555 1.410 . S
C556 C557 1.392 . S
C556 C559 1.511 . S
C557 C553 1.376 . S
C557 C556 1.392 . S
C557 H569 0.929 . S
C558 C554 1.531 . S
C558 H570 0.960 . S
C558 H571 0.962 . S
C558 H572 0.960 . S
C559 C556 1.511 . S
C559 H573 0.962 . S
C559 H574 0.961 1_554 S
C559 H575 0.961 . S
C560 C561 1.360 1_545 S
C560 C562 1.363 . S
C560 H576 0.931 . S
C561 C560 1.360 1_565 S
C561 C565 1.423 . S
C562 C560 1.363 . S
C562 C563 1.370 1_545 S
C562 C566 1.524 . S
C563 C555 1.503 1_556 S
C563 C562 1.370 1_565 S
C563 C564 1.403 . S
C564 C563 1.403 . S
C564 C565 1.404 . S
C564 C567 1.539 1_556 S
C565 C561 1.423 . S
C565 C564 1.404 . S
C565 H577 0.930 . S
C566 C562 1.524 . S
C566 H578 0.956 . S
C566 H579 0.937 1_545 S
C566 H580 0.961 . S
C567 C564 1.539 1_554 S
C567 H581 0.958 . S
C567 H582 0.961 . S
C567 H583 0.960 . S
H568 C552 0.931 . S
H569 C557 0.929 . S
H570 C558 0.960 . S
H571 C558 0.962 . S
H572 C558 0.960 . S
H573 C559 0.962 . S
H574 C559 0.961 1_556 S
H575 C559 0.961 . S
H576 C560 0.931 . S
H577 C565 0.930 . S
H578 C566 0.956 . S
H579 C566 0.937 1_565 S
H580 C566 0.961 . S
H581 C567 0.958 . S
H582 C567 0.961 . S
H583 C567 0.960 . S
C584 C585 1.391 . S
C584 C586 1.394 . S
C584 H600 0.931 . S
C585 C584 1.391 . S
C585 C589 1.376 . S
C586 C584 1.394 . S
C586 C587 1.369 . S
C586 C590 1.531 . S
C587 C586 1.369 . S
C587 C588 1.410 . S
C587 C595 1.503 1_554 S
C588 C587 1.410 . S
C588 C589 1.392 . S
C588 C591 1.511 1_554 S
C589 C585 1.376 . S
C589 C588 1.392 . S
C589 H601 0.929 . S
C590 C586 1.531 . S
C590 H602 0.960 . S
C590 H603 0.962 . S
C590 H604 0.960 . S
C591 C588 1.511 1_556 S
C591 H605 0.961 . S
C591 H606 0.961 . S
C591 H607 0.962 . S
C592 C593 1.370 . S
C592 C594 1.363 . S
C592 H608 0.931 . S
C593 C592 1.370 . S
C593 C597 1.408 . S
C594 C592 1.363 . S
C594 C595 1.370 . S
C594 C598 1.524 . S
C595 C587 1.503 1_556 S
C595 C594 1.370 . S
C595 C596 1.403 . S
C596 C595 1.403 . S
C596 C597 1.404 . S
C596 C599 1.539 1_556 S
C597 C593 1.408 . S
C597 C596 1.404 . S
C597 H609 0.930 . S
C598 C594 1.524 . S
C598 H610 0.956 . S
C598 H611 0.961 . S
C598 H612 0.961 . S
C599 C596 1.539 1_554 S
C599 H613 0.958 . S
C599 H614 0.961 . S
C599 H615 0.960 . S
H600 C584 0.931 . S
H601 C589 0.929 . S
H602 C590 0.960 . S
H603 C590 0.962 . S
H604 C590 0.960 . S
H605 C591 0.961 . S
H606 C591 0.961 . S
H607 C591 0.962 . S
H608 C592 0.931 . S
H609 C597 0.930 . S
H610 C598 0.956 . S
H611 C598 0.961 . S
H612 C598 0.961 . S
H613 C599 0.958 . S
H614 C599 0.961 . S
H615 C599 0.960 . S
C616 C617 1.391 . S
C616 C618 1.394 . S
C616 H632 0.931 . S
C617 C616 1.391 . S
C617 C621 1.376 . S
C618 C616 1.394 . S
C618 C619 1.369 . S
C618 C622 1.531 1_554 S
C619 C618 1.369 . S
C619 C620 1.410 . S
C619 C627 1.503 1_554 S
C620 C619 1.410 . S
C620 C621 1.392 . S
C620 C623 1.511 . S
C621 C617 1.376 . S
C621 C620 1.392 . S
C621 H633 0.929 . S
C622 C618 1.531 1_556 S
C622 H634 0.960 . S
C622 H635 0.962 . S
C622 H636 0.960 . S
C623 C620 1.511 . S
C623 H637 0.961 . S
C623 H638 0.961 . S
C623 H639 0.961 . S
C624 C625 1.370 . S
C624 C626 1.363 . S
C624 H640 0.931 . S
C625 C624 1.370 . S
C625 C629 1.408 . S
C626 C624 1.363 . S
C626 C627 1.370 . S
C626 C630 1.524 . S
C627 C619 1.503 1_556 S
C627 C626 1.370 . S
C627 C628 1.403 . S
C628 C627 1.403 . S
C628 C629 1.404 . S
C628 C631 1.539 . S
C629 C625 1.408 . S
C629 C628 1.404 . S
C629 H641 0.930 . S
C630 C626 1.524 . S
C630 H642 0.956 . S
C630 H643 0.961 1_556 S
C630 H644 0.961 . S
C631 C628 1.539 . S
C631 H645 0.958 . S
C631 H646 0.961 . S
C631 H647 0.960 1_556 S
H632 C616 0.931 . S
H633 C621 0.929 . S
H634 C622 0.960 . S
H635 C622 0.962 . S
H636 C622 0.960 . S
H637 C623 0.961 . S
H638 C623 0.961 . S
H639 C623 0.961 . S
H640 C624 0.931 . S
H641 C629 0.930 . S
H642 C630 0.956 . S
H643 C630 0.961 1_554 S
H644 C630 0.961 . S
H645 C631 0.958 . S
H646 C631 0.961 . S
H647 C631 0.960 1_554 S
C648 C649 1.392 1_455 S
C648 C650 1.394 . S
C648 H664 0.930 . S
C649 C648 1.392 1_655 S
C649 C653 1.376 . S
C650 C648 1.394 . S
C650 C651 1.369 1_455 S
C650 C654 1.531 . S
C651 C650 1.369 1_655 S
C651 C652 1.410 . S
C651 C659 1.503 1_554 S
C652 C651 1.410 . S
C652 C653 1.392 . S
C652 C655 1.511 1_554 S
C653 C649 1.376 . S
C653 C652 1.392 . S
C653 H665 0.929 . S
C654 C650 1.531 . S
C654 H666 0.960 . S
C654 H667 0.962 . S
C654 H668 0.960 . S
C655 C652 1.511 1_556 S
C655 H669 0.961 . S
C655 H670 0.961 . S
C655 H671 0.961 1_556 S
C656 C657 1.370 1_455 S
C656 C658 1.363 . S
C656 H672 0.931 . S
C657 C656 1.370 1_655 S
C657 C661 1.408 . S
C658 C656 1.363 . S
C658 C659 1.370 1_455 S
C658 C662 1.524 . S
C659 C651 1.503 1_556 S
C659 C658 1.370 1_655 S
C659 C660 1.403 . S
C660 C659 1.403 . S
C660 C661 1.404 . S
C660 C663 1.539 1_556 S
C661 C657 1.408 . S
C661 C660 1.404 . S
C661 H673 0.930 . S
C662 C658 1.524 . S
C662 H674 0.956 . S
C662 H675 0.961 . S
C662 H676 0.961 . S
C663 C660 1.539 1_554 S
C663 H677 0.958 . S
C663 H678 0.961 . S
C663 H679 0.960 . S
H664 C648 0.930 . S
H665 C653 0.929 . S
H666 C654 0.960 . S
H667 C654 0.962 . S
H668 C654 0.960 . S
H669 C655 0.961 . S
H670 C655 0.961 . S
H671 C655 0.961 1_554 S
H672 C656 0.931 . S
H673 C661 0.930 . S
H674 C662 0.956 . S
H675 C662 0.961 . S
H676 C662 0.961 . S
H677 C663 0.958 . S
H678 C663 0.961 . S
H679 C663 0.960 . S
C680 C681 1.391 . S
C680 C682 1.394 . S
C680 H696 0.931 . S
C681 C680 1.391 . S
C681 C685 1.376 . S
C682 C680 1.394 . S
C682 C683 1.369 . S
C682 C686 1.531 1_455 S
C683 C682 1.369 . S
C683 C684 1.410 . S
C683 C691 1.503 . S
C684 C683 1.410 . S
C684 C685 1.392 . S
C684 C687 1.511 . S
C685 C681 1.376 . S
C685 C684 1.392 . S
C685 H697 0.929 . S
C686 C682 1.531 1_655 S
C686 H698 0.960 . S
C686 H699 0.962 . S
C686 H700 0.960 . S
C687 C684 1.511 . S
C687 H701 0.961 . S
C687 H702 0.961 . S
C687 H703 0.961 . S
C688 C689 1.370 . S
C688 C690 1.363 . S
C688 H704 0.931 . S
C689 C688 1.370 . S
C689 C693 1.408 . S
C690 C688 1.363 . S
C690 C691 1.370 . S
C690 C694 1.524 . S
C691 C683 1.503 . S
C691 C690 1.370 . S
C691 C692 1.403 . S
C692 C691 1.403 . S
C692 C693 1.404 . S
C692 C695 1.539 . S
C693 C689 1.408 . S
C693 C692 1.404 . S
C693 H705 0.930 . S
C694 C690 1.524 . S
C694 H706 0.956 . S
C694 H707 0.961 . S
C694 H708 0.961 . S
C695 C692 1.539 . S
C695 H709 0.958 . S
C695 H710 0.961 . S
C695 H711 0.960 . S
H696 C680 0.931 . S
H697 C685 0.929 . S
H698 C686 0.960 . S
H699 C686 0.962 . S
H700 C686 0.960 . S
H701 C687 0.961 . S
H702 C687 0.961 . S
H703 C687 0.961 . S
H704 C688 0.931 . S
H705 C693 0.930 . S
H706 C694 0.956 . S
H707 C694 0.961 . S
H708 C694 0.961 . S
H709 C695 0.958 . S
H710 C695 0.961 . S
H711 C695 0.960 . S
C712 C713 1.391 . S
C712 C714 1.394 . S
C712 H728 0.931 . S
C713 C712 1.391 . S
C713 C717 1.376 . S
C714 C712 1.394 . S
C714 C715 1.369 . S
C714 C718 1.531 1_545 S
C715 C714 1.369 . S
C715 C716 1.410 . S
C715 C723 1.503 . S
C716 C715 1.410 . S
C716 C717 1.392 . S
C716 C719 1.511 . S
C717 C713 1.376 . S
C717 C716 1.392 . S
C717 H729 0.929 . S
C718 C714 1.531 1_565 S
C718 H730 0.960 . S
C718 H731 0.962 . S
C718 H732 0.960 . S
C719 C716 1.511 . S
C719 H733 0.961 . S
C719 H734 0.961 . S
C719 H735 0.961 . S
C720 C721 1.370 . S
C720 C722 1.363 . S
C720 H736 0.931 1_545 S
C721 C720 1.370 . S
C721 C725 1.408 . S
C722 C720 1.363 . S
C722 C723 1.370 . S
C722 C726 1.524 . S
C723 C715 1.503 . S
C723 C722 1.370 . S
C723 C724 1.403 . S
C724 C723 1.403 . S
C724 C725 1.404 . S
C724 C727 1.539 . S
C725 C721 1.408 . S
C725 C724 1.404 . S
C725 H737 0.930 . S
C726 C722 1.524 . S
C726 H738 0.956 1_545 S
C726 H739 0.961 . S
C726 H740 0.961 1_545 S
C727 C724 1.539 . S
C727 H741 0.958 . S
C727 H742 0.961 . S
C727 H743 0.960 . S
H728 C712 0.931 . S
H729 C717 0.929 . S
H730 C718 0.960 . S
H731 C718 0.962 . S
H732 C718 0.960 . S
H733 C719 0.961 . S
H734 C719 0.961 . S
H735 C719 0.961 . S
H736 C720 0.931 1_565 S
H737 C725 0.930 . S
H738 C726 0.956 1_565 S
H739 C726 0.961 . S
H740 C726 0.961 1_565 S
H741 C727 0.958 . S
H742 C727 0.961 . S
H743 C727 0.960 . S
C744 C745 1.391 . S
C744 C746 1.394 . S
C744 H760 0.931 . S
C745 C744 1.391 . S
C745 C749 1.376 . S
C746 C744 1.394 . S
C746 C747 1.369 . S
C746 C750 1.531 . S
C747 C746 1.369 . S
C747 C748 1.410 . S
C747 C755 1.503 . S
C748 C747 1.410 . S
C748 C749 1.392 . S
C748 C751 1.511 . S
C749 C745 1.376 . S
C749 C748 1.392 . S
C749 H761 0.929 . S
C750 C746 1.531 . S
C750 H762 0.960 . S
C750 H763 0.962 . S
C750 H764 0.960 . S
C751 C748 1.511 . S
C751 H765 0.961 . S
C751 H766 0.961 . S
C751 H767 0.961 . S
C752 C753 1.370 . S
C752 C754 1.363 . S
C752 H768 0.931 . S
C753 C752 1.370 . S
C753 C757 1.408 . S
C754 C752 1.363 . S
C754 C755 1.370 . S
C754 C758 1.524 . S
C755 C747 1.503 . S
C755 C754 1.370 . S
C755 C756 1.403 . S
C756 C755 1.403 . S
C756 C757 1.404 . S
C756 C759 1.539 . S
C757 C753 1.408 . S
C757 C756 1.404 . S
C757 H769 0.930 . S
C758 C754 1.524 . S
C758 H770 0.956 . S
C758 H771 0.961 . S
C758 H772 0.961 . S
C759 C756 1.539 . S
C759 H773 0.958 . S
C759 H774 0.961 . S
C759 H775 0.960 . S
H760 C744 0.931 . S
H761 C749 0.929 . S
H762 C750 0.960 . S
H763 C750 0.962 . S
H764 C750 0.960 . S
H765 C751 0.961 . S
H766 C751 0.961 . S
H767 C751 0.961 . S
H768 C752 0.931 . S
H769 C757 0.930 . S
H770 C758 0.956 . S
H771 C758 0.961 . S
H772 C758 0.961 . S
H773 C759 0.958 . S
H774 C759 0.961 . S
H775 C759 0.960 . S
C776 C777 1.391 . S
C776 C778 1.394 . S
C776 H792 0.931 . S
C777 C776 1.391 . S
C777 C781 1.376 . S
C778 C776 1.394 . S
C778 C779 1.369 . S
C778 C782 1.531 . S
C779 C778 1.369 . S
C779 C780 1.410 . S
C779 C787 1.503 . S
C780 C779 1.410 . S
C780 C781 1.392 . S
C780 C783 1.511 . S
C781 C777 1.376 . S
C781 C780 1.392 . S
C781 H793 0.929 . S
C782 C778 1.531 . S
C782 H794 0.960 . S
C782 H795 0.962 . S
C782 H796 0.960 . S
C783 C780 1.511 . S
C783 H797 0.961 . S
C783 H798 0.961 . S
C783 H799 0.961 . S
C784 C785 1.370 . S
C784 C786 1.363 . S
C784 H800 0.931 . S
C785 C784 1.370 . S
C785 C789 1.408 . S
C786 C784 1.363 . S
C786 C787 1.370 . S
C786 C790 1.524 . S
C787 C779 1.503 . S
C787 C786 1.370 . S
C787 C788 1.403 . S
C788 C787 1.403 . S
C788 C789 1.404 . S
C788 C791 1.539 . S
C789 C785 1.408 . S
C789 C788 1.404 . S
C789 H801 0.930 . S
C790 C786 1.524 . S
C790 H802 0.956 . S
C790 H803 0.961 . S
C790 H804 0.961 . S
C791 C788 1.539 . S
C791 H805 0.958 . S
C791 H806 0.961 . S
C791 H807 0.960 . S
H792 C776 0.931 . S
H793 C781 0.929 . S
H794 C782 0.960 . S
H795 C782 0.962 . S
H796 C782 0.960 . S
H797 C783 0.961 . S
H798 C783 0.961 . S
H799 C783 0.961 . S
H800 C784 0.931 . S
H801 C789 0.930 . S
H802 C790 0.956 . S
H803 C790 0.961 . S
H804 C790 0.961 . S
H805 C791 0.958 . S
H806 C791 0.961 . S
H807 C791 0.960 . S
C808 C809 1.391 1_455 S
C808 C810 1.394 . S
C808 H824 0.931 . S
C809 C808 1.391 1_655 S
C809 C813 1.376 . S
C810 C808 1.394 . S
C810 C811 1.369 1_455 S
C810 C814 1.531 . S
C811 C810 1.369 1_655 S
C811 C812 1.410 . S
C811 C819 1.503 . S
C812 C811 1.410 . S
C812 C813 1.392 . S
C812 C815 1.511 . S
C813 C809 1.376 . S
C813 C812 1.392 . S
C813 H825 0.929 . S
C814 C810 1.531 . S
C814 H826 0.960 . S
C814 H827 0.962 . S
C814 H828 0.960 . S
C815 C812 1.511 . S
C815 H829 0.961 . S
C815 H830 0.961 . S
C815 H831 0.961 . S
C816 C817 1.370 1_554 S
C816 C818 1.363 . S
C816 H832 0.931 . S
C817 C816 1.370 1_556 S
C817 C821 1.408 . S
C818 C816 1.363 . S
C818 C819 1.370 1_455 S
C818 C822 1.524 . S
C819 C811 1.503 . S
C819 C818 1.370 1_655 S
C819 C820 1.404 1_554 S
C820 C819 1.404 1_556 S
C820 C821 1.398 1_655 S
C820 C823 1.546 . S
C821 C817 1.408 . S
C821 C820 1.398 1_455 S
C821 H833 0.930 . S
C822 C818 1.524 . S
C822 H834 0.956 . S
C822 H835 0.961 1_455 S
C822 H836 0.961 . S
C823 C820 1.546 . S
C823 H837 0.958 1_655 S
C823 H838 0.961 . S
C823 H839 0.960 . S
H824 C808 0.931 . S
H825 C813 0.929 . S
H826 C814 0.960 . S
H827 C814 0.962 . S
H828 C814 0.960 . S
H829 C815 0.961 . S
H830 C815 0.961 . S
H831 C815 0.961 . S
H832 C816 0.931 . S
H833 C821 0.930 . S
H834 C822 0.956 . S
H835 C822 0.961 1_655 S
H836 C822 0.961 . S
H837 C823 0.958 1_455 S
H838 C823 0.961 . S
H839 C823 0.960 . S
C840 C841 1.391 1_545 S
C840 C842 1.394 . S
C840 H856 0.931 . S
C841 C840 1.391 1_565 S
C841 C845 1.376 . S
C842 C840 1.394 . S
C842 C843 1.369 1_545 S
C842 C846 1.531 . S
C843 C842 1.369 1_565 S
C843 C844 1.410 . S
C843 C851 1.503 1_565 S
C844 C843 1.410 . S
C844 C845 1.392 . S
C844 C847 1.511 . S
C845 C841 1.376 . S
C845 C844 1.392 . S
C845 H857 0.929 . S
C846 C842 1.531 . S
C846 H858 0.960 . S
C846 H859 0.962 . S
C846 H860 0.960 . S
C847 C844 1.511 . S
C847 H861 0.961 . S
C847 H862 0.961 . S
C847 H863 0.961 1_554 S
C848 C849 1.370 1_565 S
C848 C850 1.363 . S
C848 H864 0.931 . S
C849 C848 1.370 1_545 S
C849 C853 1.408 1_554 S
C850 C848 1.363 . S
C850 C851 1.370 1_565 S
C850 C854 1.524 . S
C851 C843 1.503 1_545 S
C851 C850 1.370 1_545 S
C851 C852 1.403 . S
C852 C851 1.403 . S
C852 C853 1.404 1_554 S
C852 C855 1.539 1_554 S
C853 C849 1.408 1_556 S
C853 C852 1.404 1_556 S
C853 H865 0.930 . S
C854 C850 1.524 . S
C854 H866 0.956 . S
C854 H867 0.961 . S
C854 H868 0.961 . S
C855 C852 1.539 1_556 S
C855 H869 0.963 . S
C855 H870 0.961 . S
C855 H871 0.960 . S
H856 C840 0.931 . S
H857 C845 0.929 . S
H858 C846 0.960 . S
H859 C846 0.962 . S
H860 C846 0.960 . S
H861 C847 0.961 . S
H862 C847 0.961 . S
H863 C847 0.961 1_556 S
H864 C848 0.931 . S
H865 C853 0.930 . S
H866 C854 0.956 . S
H867 C854 0.961 . S
H868 C854 0.961 . S
H869 C855 0.963 . S
H870 C855 0.961 . S
H871 C855 0.960 . S
C872 C873 1.391 . S
C872 C874 1.394 . S
C872 H888 0.931 . S
C873 C872 1.391 . S
C873 C877 1.376 . S
C874 C872 1.394 . S
C874 C875 1.369 . S
C874 C878 1.531 . S
C875 C874 1.369 . S
C875 C876 1.410 . S
C875 C883 1.503 . S
C876 C875 1.410 . S
C876 C877 1.392 . S
C876 C879 1.511 . S
C877 C873 1.376 . S
C877 C876 1.392 . S
C877 H889 0.929 . S
C878 C874 1.531 . S
C878 H890 0.960 . S
C878 H891 0.962 . S
C878 H892 0.960 . S
C879 C876 1.511 . S
C879 H893 0.961 . S
C879 H894 0.961 . S
C879 H895 0.961 . S
C880 C881 1.370 1_556 S
C880 C882 1.363 1_556 S
C880 H896 0.931 . S
C881 C880 1.370 1_554 S
C881 C885 1.408 . S
C882 C880 1.363 1_554 S
C882 C883 1.370 . S
C882 C886 1.524 1_554 S
C883 C875 1.503 . S
C883 C882 1.370 . S
C883 C884 1.403 . S
C884 C883 1.403 . S
C884 C885 1.404 . S
C884 C887 1.539 . S
C885 C881 1.408 . S
C885 C884 1.404 . S
C885 H897 0.930 . S
C886 C882 1.524 1_556 S
C886 H898 0.956 . S
C886 H899 0.962 . S
C886 H900 0.961 . S
C887 C884 1.539 . S
C887 H901 0.958 . S
C887 H902 0.961 . S
C887 H903 0.960 . S
H888 C872 0.931 . S
H889 C877 0.929 . S
H890 C878 0.960 . S
H891 C878 0.962 . S
H892 C878 0.960 . S
H893 C879 0.961 . S
H894 C879 0.961 . S
H895 C879 0.961 . S
H896 C880 0.931 . S
H897 C885 0.930 . S
H898 C886 0.956 . S
H899 C886 0.962 . S
H900 C886 0.961 . S
H901 C887 0.958 . S
H902 C887 0.961 . S
H903 C887 0.960 . S
C904 C905 1.391 . S
C904 C906 1.394 . S
C904 H920 0.931 . S
C905 C904 1.391 . S
C905 C909 1.376 . S
C906 C904 1.394 . S
C906 C907 1.369 . S
C906 C910 1.531 . S
C907 C906 1.369 . S
C907 C908 1.410 . S
C907 C915 1.503 . S
C908 C907 1.410 . S
C908 C909 1.392 . S
C908 C911 1.511 . S
C909 C905 1.376 . S
C909 C908 1.392 . S
C909 H921 0.929 . S
C910 C906 1.531 . S
C910 H922 0.960 . S
C910 H923 0.962 . S
C910 H924 0.960 . S
C911 C908 1.511 . S
C911 H925 0.961 . S
C911 H926 0.961 . S
C911 H927 0.961 . S
C912 C913 1.371 . S
C912 C914 1.363 1_556 S
C912 H928 0.931 . S
C913 C912 1.371 . S
C913 C917 1.404 1_556 S
C914 C912 1.363 1_554 S
C914 C915 1.370 . S
C914 C918 1.524 . S
C915 C907 1.503 . S
C915 C914 1.370 . S
C915 C916 1.403 . S
C916 C915 1.403 . S
C916 C917 1.404 . S
C916 C919 1.539 . S
C917 C913 1.404 1_554 S
C917 C916 1.404 . S
C917 H929 0.930 . S
C918 C914 1.524 . S
C918 H930 0.956 1_554 S
C918 H931 0.961 . S
C918 H932 0.961 1_554 S
C919 C916 1.539 . S
C919 H933 0.958 . S
C919 H934 0.961 . S
C919 H935 0.960 . S
H920 C904 0.931 . S
H921 C909 0.929 . S
H922 C910 0.960 . S
H923 C910 0.962 . S
H924 C910 0.960 . S
H925 C911 0.961 . S
H926 C911 0.961 . S
H927 C911 0.961 . S
H928 C912 0.931 . S
H929 C917 0.930 . S
H930 C918 0.956 1_556 S
H931 C918 0.961 . S
H932 C918 0.961 1_556 S
H933 C919 0.958 . S
H934 C919 0.961 . S
H935 C919 0.960 . S
C936 C937 1.391 . S
C936 C938 1.394 . S
C936 H952 0.931 1_455 S
C937 C936 1.391 . S
C937 C941 1.376 . S
C938 C936 1.394 . S
C938 C939 1.369 . S
C938 C942 1.531 1_455 S
C939 C938 1.369 . S
C939 C940 1.410 . S
C939 C947 1.503 . S
C940 C939 1.410 . S
C940 C941 1.392 . S
C940 C943 1.511 . S
C941 C937 1.376 . S
C941 C940 1.392 . S
C941 H953 0.929 . S
C942 C938 1.531 1_655 S
C942 H954 0.960 . S
C942 H955 0.962 . S
C942 H956 0.960 . S
C943 C940 1.511 . S
C943 H957 0.961 . S
C943 H958 0.961 . S
C943 H959 0.961 . S
C944 C945 1.370 . S
C944 C946 1.363 . S
C944 H960 0.931 . S
C945 C944 1.370 . S
C945 C949 1.408 . S
C946 C944 1.363 . S
C946 C947 1.370 . S
C946 C950 1.524 . S
C947 C939 1.503 . S
C947 C946 1.370 . S
C947 C948 1.403 . S
C948 C947 1.403 . S
C948 C949 1.404 . S
C948 C951 1.539 . S
C949 C945 1.408 . S
C949 C948 1.404 . S
C949 H961 0.930 . S
C950 C946 1.524 . S
C950 H962 0.956 . S
C950 H963 0.961 . S
C950 H964 0.961 . S
C951 C948 1.539 . S
C951 H965 0.958 . S
C951 H966 0.961 . S
C951 H967 0.960 . S
H952 C936 0.931 1_655 S
H953 C941 0.929 . S
H954 C942 0.960 . S
H955 C942 0.962 . S
H956 C942 0.960 . S
H957 C943 0.961 . S
H958 C943 0.961 . S
H959 C943 0.961 . S
H960 C944 0.931 . S
H961 C949 0.930 . S
H962 C950 0.956 . S
H963 C950 0.961 . S
H964 C950 0.961 . S
H965 C951 0.958 . S
H966 C951 0.961 . S
H967 C951 0.960 . S
C968 C969 1.391 . S
C968 C970 1.394 . S
C968 H984 0.931 . S
C969 C968 1.391 . S
C969 C973 1.376 . S
C970 C968 1.394 . S
C970 C971 1.369 . S
C970 C974 1.531 1_545 S
C971 C970 1.369 . S
C971 C972 1.410 . S
C971 C979 1.503 . S
C972 C971 1.410 . S
C972 C973 1.392 . S
C972 C975 1.511 . S
C973 C969 1.376 . S
C973 C972 1.392 . S
C973 H985 0.929 . S
C974 C970 1.531 1_565 S
C974 H986 0.960 . S
C974 H987 0.962 1_565 S
C974 H988 0.960 . S
C975 C972 1.511 . S
C975 H989 0.961 . S
C975 H990 0.961 . S
C975 H991 0.961 . S
C976 C977 1.370 . S
C976 C978 1.363 . S
C976 H992 0.931 . S
C977 C976 1.370 . S
C977 C981 1.408 . S
C978 C976 1.363 . S
C978 C979 1.370 . S
C978 C982 1.524 . S
C979 C971 1.503 . S
C979 C978 1.370 . S
C979 C980 1.403 . S
C980 C979 1.403 . S
C980 C981 1.404 . S
C980 C983 1.539 1_545 S
C981 C977 1.408 . S
C981 C980 1.404 . S
C981 H993 0.930 1_545 S
C982 C978 1.524 . S
C982 H994 0.956 . S
C982 H995 0.961 . S
C982 H996 0.961 . S
C983 C980 1.539 1_565 S
C983 H997 0.958 . S
C983 H998 0.961 . S
C983 H999 0.960 . S
H984 C968 0.931 . S
H985 C973 0.929 . S
H986 C974 0.960 . S
H987 C974 0.962 1_545 S
H988 C974 0.960 . S
H989 C975 0.961 . S
H990 C975 0.961 . S
H991 C975 0.961 . S
H992 C976 0.931 . S
H993 C981 0.930 1_565 S
H994 C982 0.956 . S
H995 C982 0.961 . S
H996 C982 0.961 . S
H997 C983 0.958 . S
H998 C983 0.961 . S
H999 C983 0.960 . S
C1000 C1001 1.391 . S
C1000 C1002 1.394 . S
C1000 H1016 0.931 . S
C1001 C1000 1.391 . S
C1001 C1005 1.376 . S
C1002 C1000 1.394 . S
C1002 C1003 1.369 . S
C1002 C1006 1.531 . S
C1003 C1002 1.369 . S
C1003 C1004 1.410 . S
C1003 C1011 1.503 . S
C1004 C1003 1.410 . S
C1004 C1005 1.392 . S
C1004 C1007 1.511 . S
C1005 C1001 1.376 . S
C1005 C1004 1.392 . S
C1005 H1017 0.929 . S
C1006 C1002 1.531 . S
C1006 H1018 0.960 . S
C1006 H1019 0.962 . S
C1006 H1020 0.960 . S
C1007 C1004 1.511 . S
C1007 H1021 0.961 . S
C1007 H1022 0.961 . S
C1007 H1023 0.961 . S
C1008 C1009 1.370 . S
C1008 C1010 1.363 . S
C1008 H1024 0.931 . S
C1009 C1008 1.370 . S
C1009 C1013 1.408 . S
C1010 C1008 1.363 . S
C1010 C1011 1.370 . S
C1010 C1014 1.524 . S
C1011 C1003 1.503 . S
C1011 C1010 1.370 . S
C1011 C1012 1.403 . S
C1012 C1011 1.403 . S
C1012 C1013 1.404 . S
C1012 C1015 1.539 . S
C1013 C1009 1.408 . S
C1013 C1012 1.404 . S
C1013 H1025 0.930 . S
C1014 C1010 1.524 . S
C1014 H1026 0.956 . S
C1014 H1027 0.961 . S
C1014 H1028 0.961 . S
C1015 C1012 1.539 . S
C1015 H1029 0.958 1_556 S
C1015 H1030 0.961 . S
C1015 H1031 0.960 . S
H1016 C1000 0.931 . S
H1017 C1005 0.929 . S
H1018 C1006 0.960 . S
H1019 C1006 0.962 . S
H1020 C1006 0.960 . S
H1021 C1007 0.961 . S
H1022 C1007 0.961 . S
H1023 C1007 0.961 . S
H1024 C1008 0.931 . S
H1025 C1013 0.930 . S
H1026 C1014 0.956 . S
H1027 C1014 0.961 . S
H1028 C1014 0.961 . S
H1029 C1015 0.958 1_554 S
H1030 C1015 0.961 . S
H1031 C1015 0.960 . S
C1032 C1033 1.391 . S
C1032 C1034 1.394 . S
C1032 H1048 0.931 . S
C1033 C1032 1.391 . S
C1033 C1037 1.376 . S
C1034 C1032 1.394 . S
C1034 C1035 1.369 . S
C1034 C1038 1.531 . S
C1035 C1034 1.369 . S
C1035 C1036 1.410 . S
C1035 C1043 1.503 . S
C1036 C1035 1.410 . S
C1036 C1037 1.392 . S
C1036 C1039 1.511 . S
C1037 C1033 1.376 . S
C1037 C1036 1.392 . S
C1037 H1049 0.929 . S
C1038 C1034 1.531 . S
C1038 H1050 0.960 . S
C1038 H1051 0.962 . S
C1038 H1052 0.960 . S
C1039 C1036 1.511 . S
C1039 H1053 0.961 1_556 S
C1039 H1054 0.961 . S
C1039 H1055 0.961 . S
C1040 C1041 1.370 . S
C1040 C1042 1.363 . S
C1040 H1056 0.931 . S
C1041 C1040 1.370 . S
C1041 C1045 1.408 . S
C1042 C1040 1.363 . S
C1042 C1043 1.370 . S
C1042 C1046 1.524 . S
C1043 C1035 1.503 . S
C1043 C1042 1.370 . S
C1043 C1044 1.403 . S
C1044 C1043 1.403 . S
C1044 C1045 1.404 . S
C1044 C1047 1.539 . S
C1045 C1041 1.408 . S
C1045 C1044 1.404 . S
C1045 H1057 0.930 . S
C1046 C1042 1.524 . S
C1046 H1058 0.956 . S
C1046 H1059 0.961 . S
C1046 H1060 0.961 . S
C1047 C1044 1.539 . S
C1047 H1061 0.958 . S
C1047 H1062 0.961 . S
C1047 H1063 0.960 . S
H1048 C1032 0.931 . S
H1049 C1037 0.929 . S
H1050 C1038 0.960 . S
H1051 C1038 0.962 . S
H1052 C1038 0.960 . S
H1053 C1039 0.961 1_554 S
H1054 C1039 0.961 . S
H1055 C1039 0.961 . S
H1056 C1040 0.931 . S
H1057 C1045 0.930 . S
H1058 C1046 0.956 . S
H1059 C1046 0.961 . S
H1060 C1046 0.961 . S
H1061 C1047 0.958 . S
H1062 C1047 0.961 . S
H1063 C1047 0.960 . S
C1064 C1065 1.391 . S
C1064 C1066 1.394 . S
C1064 H1080 0.931 . S
C1065 C1064 1.391 . S
C1065 C1069 1.376 . S
C1066 C1064 1.394 . S
C1066 C1067 1.369 . S
C1066 C1070 1.531 . S
C1067 C1066 1.369 . S
C1067 C1068 1.410 . S
C1067 C1075 1.503 . S
C1068 C1067 1.410 . S
C1068 C1069 1.392 . S
C1068 C1071 1.511 . S
C1069 C1065 1.376 . S
C1069 C1068 1.392 . S
C1069 H1081 0.929 . S
C1070 C1066 1.531 . S
C1070 H1082 0.960 . S
C1070 H1083 0.962 . S
C1070 H1084 0.960 . S
C1071 C1068 1.511 . S
C1071 H1085 0.961 . S
C1071 H1086 0.961 . S
C1071 H1087 0.961 . S
C1072 C1073 1.370 1_455 S
C1072 C1074 1.363 . S
C1072 H1088 0.931 . S
C1073 C1072 1.370 1_655 S
C1073 C1077 1.408 . S
C1074 C1072 1.363 . S
C1074 C1075 1.370 1_455 S
C1074 C1078 1.524 . S
C1075 C1067 1.503 . S
C1075 C1074 1.370 1_655 S
C1075 C1076 1.403 . S
C1076 C1075 1.403 . S
C1076 C1077 1.404 . S
C1076 C1079 1.539 . S
C1077 C1073 1.408 . S
C1077 C1076 1.404 . S
C1077 H1089 0.930 . S
C1078 C1074 1.524 . S
C1078 H1090 0.956 . S
C1078 H1091 0.961 . S
C1078 H1092 0.961 . S
C1079 C1076 1.539 . S
C1079 H1093 0.958 . S
C1079 H1094 0.961 . S
C1079 H1095 0.960 . S
H1080 C1064 0.931 . S
H1081 C1069 0.929 . S
H1082 C1070 0.960 . S
H1083 C1070 0.962 . S
H1084 C1070 0.960 . S
H1085 C1071 0.961 . S
H1086 C1071 0.961 . S
H1087 C1071 0.961 . S
H1088 C1072 0.931 . S
H1089 C1077 0.930 . S
H1090 C1078 0.956 . S
H1091 C1078 0.961 . S
H1092 C1078 0.961 . S
H1093 C1079 0.958 . S
H1094 C1079 0.961 . S
H1095 C1079 0.960 . S
C1096 C1097 1.391 . S
C1096 C1098 1.394 . S
C1096 H1112 0.931 . S
C1097 C1096 1.391 . S
C1097 C1101 1.376 1_565 S
C1098 C1096 1.394 . S
C1098 C1099 1.369 . S
C1098 C1102 1.531 . S
C1099 C1098 1.369 . S
C1099 C1100 1.410 1_565 S
C1099 C1107 1.503 . S
C1100 C1099 1.410 1_545 S
C1100 C1101 1.392 . S
C1100 C1103 1.511 . S
C1101 C1097 1.376 1_545 S
C1101 C1100 1.392 . S
C1101 H1113 0.929 . S
C1102 C1098 1.531 . S
C1102 H1114 0.960 . S
C1102 H1115 0.962 . S
C1102 H1116 0.960 . S
C1103 C1100 1.511 . S
C1103 H1117 0.961 . S
C1103 H1118 0.961 . S
C1103 H1119 0.961 . S
C1104 C1105 1.374 . S
C1104 C1106 1.366 . S
C1104 H1120 0.925 1_565 S
C1105 C1104 1.374 . S
C1105 C1109 1.408 . S
C1106 C1104 1.366 . S
C1106 C1107 1.370 . S
C1106 C1110 1.524 1_565 S
C1107 C1099 1.503 . S
C1107 C1106 1.370 . S
C1107 C1108 1.403 . S
C1108 C1107 1.403 . S
C1108 C1109 1.404 . S
C1108 C1111 1.539 . S
C1109 C1105 1.408 . S
C1109 C1108 1.404 . S
C1109 H1121 0.930 . S
C1110 C1106 1.524 1_545 S
C1110 H1122 0.956 1_545 S
C1110 H1123 0.961 . S
C1110 H1124 0.961 . S
C1111 C1108 1.539 . S
C1111 H1125 0.958 . S
C1111 H1126 0.961 . S
C1111 H1127 0.960 . S
H1112 C1096 0.931 . S
H1113 C1101 0.929 . S
H1114 C1102 0.960 . S
H1115 C1102 0.962 . S
H1116 C1102 0.960 . S
H1117 C1103 0.961 . S
H1118 C1103 0.961 . S
H1119 C1103 0.961 . S
H1120 C1104 0.925 1_545 S
H1121 C1109 0.930 . S
H1122 C1110 0.956 1_565 S
H1123 C1110 0.961 . S
H1124 C1110 0.961 . S
H1125 C1111 0.958 . S
H1126 C1111 0.961 . S
H1127 C1111 0.960 . S
C1128 C1129 1.391 . S
C1128 C1130 1.394 . S
C1128 H1144 0.931 . S
C1129 C1128 1.391 . S
C1129 C1133 1.376 . S
C1130 C1128 1.394 . S
C1130 C1131 1.369 . S
C1130 C1134 1.531 . S
C1131 C1130 1.369 . S
C1131 C1132 1.410 . S
C1131 C1139 1.503 . S
C1132 C1131 1.410 . S
C1132 C1133 1.392 . S
C1132 C1135 1.511 . S
C1133 C1129 1.376 . S
C1133 C1132 1.392 . S
C1133 H1145 0.929 . S
C1134 C1130 1.531 . S
C1134 H1146 0.960 . S
C1134 H1147 0.962 . S
C1134 H1148 0.960 . S
C1135 C1132 1.511 . S
C1135 H1149 0.961 . S
C1135 H1150 0.961 . S
C1135 H1151 0.961 . S
C1136 C1137 1.370 . S
C1136 C1138 1.363 . S
C1136 H1152 0.931 . S
C1137 C1136 1.370 . S
C1137 C1141 1.408 . S
C1138 C1136 1.363 . S
C1138 C1139 1.370 . S
C1138 C1142 1.524 . S
C1139 C1131 1.503 . S
C1139 C1138 1.370 . S
C1139 C1140 1.403 . S
C1140 C1139 1.403 . S
C1140 C1141 1.404 . S
C1140 C1143 1.539 . S
C1141 C1137 1.408 . S
C1141 C1140 1.404 . S
C1141 H1153 0.930 . S
C1142 C1138 1.524 . S
C1142 H1154 0.956 . S
C1142 H1155 0.961 . S
C1142 H1156 0.961 . S
C1143 C1140 1.539 . S
C1143 H1157 0.958 . S
C1143 H1158 0.961 . S
C1143 H1159 0.960 . S
H1144 C1128 0.931 . S
H1145 C1133 0.929 . S
H1146 C1134 0.960 . S
H1147 C1134 0.962 . S
H1148 C1134 0.960 . S
H1149 C1135 0.961 . S
H1150 C1135 0.961 . S
H1151 C1135 0.961 . S
H1152 C1136 0.931 . S
H1153 C1141 0.930 . S
H1154 C1142 0.956 . S
H1155 C1142 0.961 . S
H1156 C1142 0.961 . S
H1157 C1143 0.958 . S
H1158 C1143 0.961 . S
H1159 C1143 0.960 . S
C1160 C1161 1.391 . S
C1160 C1162 1.394 . S
C1160 H1176 0.931 . S
C1161 C1160 1.391 . S
C1161 C1165 1.376 . S
C1162 C1160 1.394 . S
C1162 C1163 1.369 . S
C1162 C1166 1.531 . S
C1163 C1162 1.369 . S
C1163 C1164 1.410 . S
C1163 C1171 1.503 . S
C1164 C1163 1.410 . S
C1164 C1165 1.392 . S
C1164 C1167 1.511 . S
C1165 C1161 1.376 . S
C1165 C1164 1.392 . S
C1165 H1177 0.929 . S
C1166 C1162 1.531 . S
C1166 H1178 0.960 . S
C1166 H1179 0.962 . S
C1166 H1180 0.960 . S
C1167 C1164 1.511 . S
C1167 H1181 0.961 . S
C1167 H1182 0.961 . S
C1167 H1183 0.961 . S
C1168 C1169 1.370 . S
C1168 C1170 1.363 . S
C1168 H1184 0.931 . S
C1169 C1168 1.370 . S
C1169 C1173 1.408 . S
C1170 C1168 1.363 . S
C1170 C1171 1.370 . S
C1170 C1174 1.524 . S
C1171 C1163 1.503 . S
C1171 C1170 1.370 . S
C1171 C1172 1.403 . S
C1172 C1171 1.403 . S
C1172 C1173 1.404 . S
C1172 C1175 1.539 . S
C1173 C1169 1.408 . S
C1173 C1172 1.404 . S
C1173 H1185 0.930 . S
C1174 C1170 1.524 . S
C1174 H1186 0.956 . S
C1174 H1187 0.961 . S
C1174 H1188 0.961 . S
C1175 C1172 1.539 . S
C1175 H1189 0.958 . S
C1175 H1190 0.961 . S
C1175 H1191 0.960 . S
H1176 C1160 0.931 . S
H1177 C1165 0.929 . S
H1178 C1166 0.960 . S
H1179 C1166 0.962 . S
H1180 C1166 0.960 . S
H1181 C1167 0.961 . S
H1182 C1167 0.961 . S
H1183 C1167 0.961 . S
H1184 C1168 0.931 . S
H1185 C1173 0.930 . S
H1186 C1174 0.956 . S
H1187 C1174 0.961 . S
H1188 C1174 0.961 . S
H1189 C1175 0.958 . S
H1190 C1175 0.961 . S
H1191 C1175 0.960 . S
C425 C76 1.918 . S
C433 C151 2.011 . S
C465 C228 2.022 . S
C457 C87 1.917 . S
C497 C319 2.006 . S
C489 C54 1.861 . S
C529 C403 1.996 . S
C521 C65 1.906 . S
C561 C162 2.007 1_565 S
C553 C32 1.920 . S
C585 C43 1.915 . S
C593 C239 2.020 . S
C617 C10 1.880 . S
C625 C330 2.003 . S
C649 C21 1.905 . S
C657 C414 2.001 1_655 S
C689 C146 0.640 1_455 S
C681 C60 0.542 . S
C721 C241 0.580 . S
C713 C71 0.537 . S
C753 C314 0.649 . S
C745 C82 0.574 . S
C777 C49 0.519 . S
C785 C398 0.589 . S
C809 C16 0.650 . S
C817 C157 0.611 . S
C849 C230 0.642 . S
C841 C27 0.601 . S
C881 C325 0.616 1_554 S
C873 C38 0.534 . S
C905 C5 0.562 . S
C913 C409 0.635 . S
C937 C59 1.951 . S
C945 C155 2.105 . S
C969 C70 1.944 . S
C977 C246 2.126 . S
C1009 C323 2.129 . S
C1001 C81 1.892 . S
C1041 C407 2.129 . S
C1033 C48 1.943 . S
C1065 C15 1.920 . S
C1073 C144 2.108 . S
C1105 C235 2.128 1_565 S
C1097 C26 1.952 . S
C1137 C312 2.127 . S
C1129 C37 1.902 . S
C1161 C4 1.932 . S
C1169 C396 2.128 . S
