# Generated by pormake.
# Topology zzz, (3,6)-cn, num edge types: 1
# Building blocks:
#     Node 0, Type 0, BuildingBlock: CUQRIR_clean_linker_1, # of connection points: 3
#     Node 1, Type 0, BuildingBlock: CUQRIR_clean_linker_1, # of connection points: 3
#     Node 2, Type 0, BuildingBlock: CUQRIR_clean_linker_1, # of connection points: 3
#     Node 3, Type 0, BuildingBlock: CUQRIR_clean_linker_1, # of connection points: 3
#     Node 4, Type 0, BuildingBlock: CUQRIR_clean_linker_1, # of connection points: 3
#     Node 5, Type 0, BuildingBlock: CUQRIR_clean_linker_1, # of connection points: 3
#     Node 6, Type 0, BuildingBlock: CUQRIR_clean_linker_1, # of connection points: 3
#     Node 7, Type 0, BuildingBlock: CUQRIR_clean_linker_1, # of connection points: 3
#     Node 8, Type 1, BuildingBlock: BETFEN_clean_sbu_0, # of connection points: 6
#     Node 9, Type 1, BuildingBlock: BETFEN_clean_sbu_0, # of connection points: 6
#     Node 10, Type 1, BuildingBlock: BETFEN_clean_sbu_0, # of connection points: 6
#     Node 11, Type 1, BuildingBlock: BETFEN_clean_sbu_0, # of connection points: 6
#     Edge 12, Type (0, 1), BuildingBlock: OJICUG_clean_linker_0, # of connection points: 2
#     Edge 13, Type (0, 1), BuildingBlock: OJICUG_clean_linker_0, # of connection points: 2
#     Edge 14, Type (0, 1), BuildingBlock: OJICUG_clean_linker_0, # of connection points: 2
#     Edge 15, Type (0, 1), BuildingBlock: OJICUG_clean_linker_0, # of connection points: 2
#     Edge 16, Type (0, 1), BuildingBlock: OJICUG_clean_linker_0, # of connection points: 2
#     Edge 17, Type (0, 1), BuildingBlock: OJICUG_clean_linker_0, # of connection points: 2
#     Edge 18, Type (0, 1), BuildingBlock: OJICUG_clean_linker_0, # of connection points: 2
#     Edge 19, Type (0, 1), BuildingBlock: OJICUG_clean_linker_0, # of connection points: 2
#     Edge 20, Type (0, 1), BuildingBlock: OJICUG_clean_linker_0, # of connection points: 2
#     Edge 21, Type (0, 1), BuildingBlock: OJICUG_clean_linker_0, # of connection points: 2
#     Edge 22, Type (0, 1), BuildingBlock: OJICUG_clean_linker_0, # of connection points: 2
#     Edge 23, Type (0, 1), BuildingBlock: OJICUG_clean_linker_0, # of connection points: 2
#     Edge 24, Type (0, 1), BuildingBlock: OJICUG_clean_linker_0, # of connection points: 2
#     Edge 25, Type (0, 1), BuildingBlock: OJICUG_clean_linker_0, # of connection points: 2
#     Edge 26, Type (0, 1), BuildingBlock: OJICUG_clean_linker_0, # of connection points: 2
#     Edge 27, Type (0, 1), BuildingBlock: OJICUG_clean_linker_0, # of connection points: 2
#     Edge 28, Type (0, 1), BuildingBlock: OJICUG_clean_linker_0, # of connection points: 2
#     Edge 29, Type (0, 1), BuildingBlock: OJICUG_clean_linker_0, # of connection points: 2
#     Edge 30, Type (0, 1), BuildingBlock: OJICUG_clean_linker_0, # of connection points: 2
#     Edge 31, Type (0, 1), BuildingBlock: OJICUG_clean_linker_0, # of connection points: 2
#     Edge 32, Type (0, 1), BuildingBlock: OJICUG_clean_linker_0, # of connection points: 2
#     Edge 33, Type (0, 1), BuildingBlock: OJICUG_clean_linker_0, # of connection points: 2
#     Edge 34, Type (0, 1), BuildingBlock: OJICUG_clean_linker_0, # of connection points: 2
#     Edge 35, Type (0, 1), BuildingBlock: OJICUG_clean_linker_0, # of connection points: 2
# Relax obj value: 0.459
# Max RMSD: 0.224
# Mean RMSD: 0.156
data_MOF--net-zzz--node1-BETFEN_clean_sbu_0--node2-CUQRIR_clean_linker_1--edge1-OJICUG_clean_linker_0
_symmetry_space_group_name_H-M    P1
_symmetry_Int_Tables_number       1
_symmetry_cell_setting            triclinic
loop_
_symmetry_equiv_pos_as_xyz
'x, y, z'
_cell_length_a     34.246026
_cell_length_b     34.282521
_cell_length_c     8.9095835
_cell_angle_alpha  89.967293
_cell_angle_beta   89.901862
_cell_angle_gamma 90.032987
loop_
_atom_site_label
_atom_site_type_symbol
_atom_site_fract_x
_atom_site_fract_y
_atom_site_fract_z
_atom_type_partial_charge
C0 C 0.76516 0.55423 0.46295 0.0
N1 N 0.79199 0.52601 0.49862 0.0
N2 N 0.73611 0.5397 0.37298 0.0
C3 C 0.76919 0.59632 0.50426 0.0
C4 C 0.74673 0.50215 0.35318 0.0
N5 N 0.77963 0.49375 0.4302 0.0
C6 C 0.72776 0.47522 0.24119 0.0
H7 H 0.78171 0.59907 0.6186 0.0
H8 H 0.74052 0.61132 0.49851 0.0
H9 H 0.78955 0.61054 0.4241 0.0
H10 H 0.73971 0.48146 0.12789 0.0
H11 H 0.69599 0.48056 0.23558 0.0
H12 H 0.73361 0.44421 0.26764 0.0
C13 C 1.01681 0.77102 0.43947 0.0
N14 N 0.04556 0.79655 0.4812 0.0
N15 N 1.03122 0.74244 0.34791 0.0
C16 C 0.97452 0.77584 0.47755 0.0
C17 C 0.06926 0.75182 0.33361 0.0
N18 N 0.07809 0.78386 0.415 0.0
C19 C 0.09649 0.73245 0.22365 0.0
H20 H 0.97133 0.78741 0.59325 0.0
H21 H 0.95874 0.7477 0.46662 0.0
H22 H 0.9614 0.79724 0.39897 0.0
H23 H 0.0922 0.74554 0.11103 0.0
H24 H 0.08941 0.70113 0.21279 0.0
H25 H 0.12744 0.73637 0.25652 0.0
C26 C 0.79819 1.01296 0.43864 0.0
N27 N 0.7724 0.04107 0.48419 0.0
N28 N 0.82823 1.02882 0.35788 0.0
C29 C 0.79239 0.97013 0.46223 0.0
C30 C 0.81932 0.06707 0.35322 0.0
N31 N 0.78613 0.07466 0.43009 0.0
C32 C 0.83991 0.09583 0.25296 0.0
H33 H 0.77891 0.96469 0.57368 0.0
H34 H 0.82057 0.95432 0.45283 0.0
H35 H 0.7722 0.95896 0.37495 0.0
H36 H 0.87154 0.08963 0.2509 0.0
H37 H 0.83439 0.12629 0.28891 0.0
H38 H 0.82933 0.0922 0.13621 0.0
C39 C 0.5344 0.79026 0.38886 0.0
N40 N 0.513 0.75725 0.41597 0.0
N41 N 0.52018 0.81037 0.26796 0.0
C42 C 0.56811 0.8034 0.48323 0.0
C43 C 0.49029 0.78762 0.22073 0.0
N44 N 0.48472 0.75687 0.3135 0.0
C45 C 0.47171 0.79104 0.06729 0.0
H46 H 0.56793 0.83563 0.49479 0.0
H47 H 0.59573 0.79476 0.42718 0.0
H48 H 0.56708 0.78966 0.596 0.0
H49 H 0.49099 0.80701 0.98808 0.0
H50 H 0.44355 0.80684 0.07609 0.0
H51 H 0.46578 0.76173 1.01954 0.0
C52 C 0.30204 0.52638 0.29926 0.0
N53 N 0.27162 0.55208 0.28417 0.0
N54 N 0.33032 0.54065 0.39397 0.0
C55 C 0.30457 0.48789 0.22056 0.0
C56 C 0.31558 0.57543 0.4377 0.0
N57 N 0.28097 0.58239 0.37034 0.0
C58 C 0.33566 0.60321 0.54473 0.0
H59 H 0.29382 0.46475 0.29733 0.0
H60 H 0.33536 0.4812 0.1913 0.0
H61 H 0.28633 0.48778 0.1178 0.0
H62 H 0.35381 0.62402 0.47956 0.0
H63 H 0.35475 0.58723 0.62428 0.0
H64 H 0.31477 0.62068 0.61109 0.0
C65 C 0.05223 0.29929 0.30726 0.0
N66 N 1.02378 0.27407 0.25981 0.0
N67 N 0.03676 0.32885 0.39163 0.0
C68 C 0.09499 0.29342 0.28129 0.0
C69 C 0.99838 0.32026 0.39593 0.0
N70 N 0.99037 0.28778 0.31575 0.0
C71 C 0.96971 0.34076 0.49679 0.0
H72 H 0.11113 0.32129 0.29453 0.0
H73 H 0.10007 0.28118 0.16762 0.0
H74 H 0.10614 0.27216 0.3648 0.0
H75 H 0.97664 0.37217 0.50248 0.0
H76 H 0.97263 0.32921 0.61254 0.0
H77 H 0.93924 0.33624 0.45874 0.0
C78 C 0.2678 0.04433 0.29284 0.0
N79 N 0.29281 1.01539 0.24843 0.0
N80 N 0.24036 1.03052 0.39092 0.0
C81 C 0.272 0.08635 0.25002 0.0
C82 C 0.24983 0.99257 0.40617 0.0
N83 N 0.2809 0.98322 0.31955 0.0
C84 C 0.23137 0.96587 0.52039 0.0
H85 H 0.24361 0.10174 0.26009 0.0
H86 H 0.2834 0.0889 0.13372 0.0
H87 H 0.29324 0.10039 0.32685 0.0
H88 H 0.23481 0.93481 0.48854 0.0
H89 H 0.20017 0.97309 0.53552 0.0
H90 H 0.24559 0.97049 0.63072 0.0
C91 C 0.51167 0.26609 0.28939 0.0
N92 N 0.54068 0.29096 0.2444 0.0
N93 N 0.52653 0.23546 0.36911 0.0
C94 C 0.46903 0.27321 0.26547 0.0
C95 C 0.56509 0.24307 0.37376 0.0
N96 N 0.57382 0.27599 0.29729 0.0
C97 C 0.59315 0.22129 0.47289 0.0
H98 H 0.45226 0.24561 0.27531 0.0
H99 H 0.46414 0.28666 0.15374 0.0
H100 H 0.45845 0.29388 0.35224 0.0
H101 H 0.62382 0.22591 0.43725 0.0
H102 H 0.58591 0.1899 0.47354 0.0
H103 H 0.5898 0.23165 0.59012 0.0
Pr104 Pr 0.05544 1.02601 0.98984 0.0
Pr105 Pr 1.01303 0.04378 0.75544 0.0
C106 C 0.09098 1.00174 0.24165 0.0
C107 C 0.12125 0.97551 0.29479 0.0
C108 C 0.1513 0.96252 0.20043 0.0
C109 C 0.17352 0.93025 0.2427 0.0
C110 C 0.16398 0.90974 0.37504 0.0
C111 C 0.1386 0.9275 0.47944 0.0
C112 C 0.11747 0.96027 0.43886 0.0
C113 C 0.10651 0.05273 0.76063 0.0
C114 C 0.03995 0.95311 0.74846 0.0
C115 C 0.9773 0.06783 0.5036 0.0
C116 C 0.94764 0.09457 0.44923 0.0
C117 C 0.91824 0.10889 0.54366 0.0
C118 C 0.89661 0.14135 0.49929 0.0
C119 C 0.9059 0.16067 0.36396 0.0
C120 C 0.93074 0.14177 0.26056 0.0
C121 C 0.95145 0.10892 0.30375 0.0
C122 C 0.96242 1.0157 0.98345 0.0
C123 C 1.0289 0.11685 0.99635 0.0
O124 O 0.05922 0.98549 0.18993 0.0
O125 O 0.1025 0.03165 0.16337 0.0
O126 O 0.07887 1.0286 0.74149 0.0
O127 O 0.10689 0.06467 0.89798 0.0
O128 O 1.03166 0.98267 0.66061 0.0
O129 O 0.04704 0.96083 0.89148 0.0
O130 O 1.00964 0.08347 0.55274 0.0
O131 O 0.96517 0.03872 0.58488 0.0
O132 O 0.98946 0.04049 1.00319 0.0
O133 O 0.96233 1.00392 0.84587 0.0
O134 O 0.0373 0.08735 0.08431 0.0
O135 O 1.02155 0.109 0.85361 0.0
H136 H 0.15544 0.97518 0.09009 0.0
H137 H 0.1941 0.9182 0.16276 0.0
H138 H 0.13104 0.91369 0.58484 0.0
H139 H 0.09564 0.97154 0.51485 0.0
H140 H 0.91413 0.09701 0.65529 0.0
H141 H 0.87637 0.15418 0.57868 0.0
H142 H 0.93822 0.15468 0.15342 0.0
H143 H 0.97285 0.09674 0.22808 0.0
Pr144 Pr 0.53845 0.05085 0.96446 0.0
Pr145 Pr 0.52276 1.00709 0.73089 0.0
C146 C 0.56168 0.08675 0.21665 0.0
C147 C 0.58974 0.11503 0.27205 0.0
C148 C 0.60508 0.14424 0.17906 0.0
C149 C 0.63811 0.16481 0.22467 0.0
C150 C 0.65671 0.15502 0.3606 0.0
C151 C 0.63736 0.12988 0.46164 0.0
C152 C 0.60408 0.11007 0.41694 0.0
C153 C 0.51067 0.10053 0.73492 0.0
C154 C 0.61339 0.03427 0.7309 0.0
C155 C 0.50058 0.96799 0.48386 0.0
C156 C 0.47089 0.94088 0.43066 0.0
C157 C 0.46121 0.90636 0.50739 0.0
C158 C 0.42813 0.88517 0.46467 0.0
C159 C 0.40456 0.89869 0.34619 0.0
C160 C 0.41776 0.93033 0.25905 0.0
C161 C 0.44994 0.9517 0.3038 0.0
C162 C 0.54648 0.9587 0.97206 0.0
C163 C 0.44804 1.02353 0.96758 0.0
O164 O 0.57575 0.05315 0.17355 0.0
O165 O 0.53423 0.10003 0.1297 0.0
O166 O 0.53569 0.07359 0.7155 0.0
O167 O 0.49853 0.10074 0.87217 0.0
O168 O 0.58483 1.02425 0.64111 0.0
O169 O 0.60433 0.04284 0.87162 0.0
O170 O 0.48851 1.0032 0.51545 0.0
O171 O 0.52636 0.95473 0.5781 0.0
O172 O 0.52135 0.98567 0.97791 0.0
O173 O 0.5633 0.95914 0.84204 0.0
O174 O 0.47706 0.03292 0.05618 0.0
O175 O 0.45659 1.01513 0.82574 0.0
H176 H 0.59342 0.14907 0.06764 0.0
H177 H 0.65162 0.18496 0.14655 0.0
H178 H 0.65006 0.12178 0.56834 0.0
H179 H 0.59139 0.08856 0.49103 0.0
H180 H 0.47741 0.89731 0.60572 0.0
H181 H 0.4185 0.86107 0.53423 0.0
H182 H 0.40072 0.94177 0.16681 0.0
H183 H 0.45782 0.97766 0.24207 0.0
Pr184 Pr 0.50818 0.53356 0.92975 0.0
Pr185 Pr 0.56585 0.52184 0.7626 0.0
C186 C 0.44129 0.55486 0.06242 0.0
C187 C 0.41002 0.58045 1.00547 0.0
C188 C 0.37516 0.58323 0.08592 0.0
C189 C 0.35973 0.62028 0.11476 0.0
C190 C 0.37948 0.65292 0.05806 0.0
C191 C 0.40194 0.6473 0.92755 0.0
C192 C 0.41934 0.61082 0.90599 0.0
C193 C 0.4792 0.50445 0.65672 0.0
C194 C 0.53527 0.6103 0.72703 0.0
C195 C 0.62128 0.49955 0.56561 0.0
C196 C 0.64043 0.46695 0.48948 0.0
C197 C 0.67229 0.44764 0.55494 0.0
C198 C 0.68634 0.4133 0.49105 0.0
C199 C 0.66834 0.39797 0.36215 0.0
C200 C 0.64077 0.42083 0.28497 0.0
C201 C 0.62668 0.45488 0.34896 0.0
C202 C 0.59821 0.55837 1.01666 0.0
C203 C 0.54002 0.44862 0.98875 0.0
O204 O 0.47474 0.57185 0.09095 0.0
O205 O 0.44525 0.52143 0.99591 0.0
O206 O 0.50361 0.53189 0.67055 0.0
O207 O 0.47717 0.48555 0.78186 0.0
O208 O 0.5551 0.58345 0.65547 0.0
O209 O 0.51723 0.59991 0.85165 0.0
O210 O 0.58521 0.50689 0.52877 0.0
O211 O 0.62823 0.505 0.70776 0.0
O212 O 0.57292 0.53089 0.02325 0.0
O213 O 0.60118 0.57096 0.88032 0.0
O214 O 0.5261 0.47798 0.06641 0.0
O215 O 0.55241 0.45644 0.85096 0.0
H216 H 0.36423 0.55824 0.14529 0.0
H217 H 0.33867 0.62376 0.204 0.0
H218 H 0.41444 0.67225 0.87035 0.0
H219 H 0.44374 0.60821 0.82967 0.0
H220 H 0.68467 0.45759 0.65996 0.0
H221 H 0.7081 0.39653 0.55113 0.0
H222 H 0.6264 0.41022 0.18474 0.0
H223 H 0.60343 0.47044 0.29232 0.0
Pr224 Pr 1.02496 0.51442 0.99227 0.0
Pr225 Pr 0.04189 0.5563 0.75865 0.0
C226 C 1.00124 0.47842 0.24445 0.0
C227 C 0.97454 0.44849 0.29722 0.0
C228 C 0.96001 0.41975 0.20056 0.0
C229 C 0.92681 0.39873 0.24187 0.0
C230 C 0.90711 0.40803 0.37626 0.0
C231 C 0.92618 0.43188 0.48228 0.0
C232 C 0.95971 0.45199 0.44216 0.0
C233 C 0.05241 0.46325 0.76429 0.0
C234 C 0.95084 0.52953 0.75497 0.0
C235 C 0.06493 0.59257 0.50617 0.0
C236 C 0.08955 0.62474 0.4581 0.0
C237 C 0.09993 0.65476 0.55707 0.0
C238 C 0.13199 0.67832 0.52361 0.0
C239 C 0.15494 0.66983 0.39648 0.0
C240 C 0.13932 0.6451 0.28515 0.0
C241 C 0.10671 0.62261 0.31666 0.0
C242 C 1.01401 0.60732 0.98517 0.0
C243 C 0.11553 0.54305 1.00206 0.0
O244 O 0.98528 0.51052 0.19484 0.0
O245 O 1.0307 0.46675 0.16389 0.0
O246 O 1.02773 0.49034 0.74457 0.0
O247 O 0.06468 0.46358 0.90123 0.0
O248 O 0.98036 0.53721 0.66553 0.0
O249 O 0.95912 0.52294 0.89797 0.0
O250 O 0.08295 0.56208 0.56046 0.0
O251 O 0.03369 0.60194 0.5809 0.0
O252 O 0.03894 0.58048 1.00534 0.0
O253 O 1.00198 0.60696 0.84809 0.0
O254 O 0.08576 0.53446 0.08904 0.0
O255 O 0.10775 0.54943 0.85819 0.0
H256 H 0.97214 0.41599 0.08911 0.0
H257 H 0.91363 0.37936 0.16034 0.0
H258 H 0.91286 0.43928 0.58877 0.0
H259 H 0.97191 0.47297 0.51937 0.0
H260 H 0.08574 0.65757 0.66532 0.0
H261 H 0.14255 0.69829 0.6086 0.0
H262 H 0.15508 0.63864 0.18268 0.0
H263 H 0.0974 0.60082 0.23667 0.0
C264 C 0.21287 0.05299 0.63211 0.0
C265 C 0.20949 0.04964 0.47519 0.0
H266 H 0.18328 0.05628 0.84459 0.0
C267 C 0.17206 0.05303 0.41211 0.0
H268 H 0.2412 0.04966 0.68441 0.0
C269 C 0.13856 0.05594 0.50415 0.0
C270 C 0.14179 0.05557 0.66131 0.0
H271 H 0.16868 0.05028 0.29193 0.0
H272 H 0.10996 0.0571 0.45317 0.0
C273 C 0.17953 0.05612 0.72388 0.0
C274 C 0.50462 0.20678 0.60842 0.0
C275 C 0.50829 0.2038 0.4516 0.0
H276 H 0.50284 0.1768 0.82008 0.0
C277 C 0.50755 0.16627 0.38779 0.0
H278 H 0.50633 0.23515 0.66137 0.0
C279 C 0.50655 0.13258 0.47888 0.0
C280 C 0.50642 0.13565 0.63595 0.0
H281 H 0.51101 0.1632 0.26773 0.0
H282 H 0.50715 0.10406 0.4273 0.0
C283 C 0.50344 0.17321 0.69931 0.0
C284 C 0.37536 0.49084 0.50519 0.0
C285 C 0.36943 0.52652 0.43068 0.0
H286 H 0.4149 0.45552 0.63548 0.0
C287 C 0.40186 0.55168 0.41535 0.0
H288 H 0.35106 0.4711 0.5221 0.0
C289 C 0.43833 0.54257 0.47601 0.0
C290 C 0.44366 0.50842 0.55995 0.0
H291 H 0.39861 0.58005 0.3648 0.0
H292 H 0.46155 0.56393 0.46661 0.0
C293 C 0.41199 0.48202 0.57027 0.0
C294 C 0.05746 0.35702 0.634 0.0
C295 C 0.05436 0.36041 0.47696 0.0
H296 H 0.05916 0.38645 0.84705 0.0
C297 C 0.05554 0.39814 0.41485 0.0
H298 H 0.05539 0.32851 0.68583 0.0
C299 C 0.05666 0.43157 0.50741 0.0
C300 C 0.05656 0.42815 0.66455 0.0
H301 H 0.05247 0.40162 0.29481 0.0
H302 H 0.05634 0.46023 0.45673 0.0
C303 C 0.05887 0.39036 0.7264 0.0
C304 C 0.89789 1.0118 0.33445 0.0
C305 C 0.86007 1.01159 0.2731 0.0
H306 H 0.95999 1.0128 0.29112 0.0
C307 C 0.85656 1.0077 0.11649 0.0
H308 H 0.90136 1.01546 0.45421 0.0
C309 C 0.88985 1.00703 0.02344 0.0
C310 C 0.92763 1.01084 0.08433 0.0
H311 H 0.82792 1.00869 0.06532 0.0
H312 H 0.88581 1.00615 0.90293 0.0
C313 C 0.93127 1.01139 0.24125 0.0
C314 C 0.56726 0.86225 0.17901 0.0
C315 C 0.52896 0.84916 0.20908 0.0
H316 H 0.60326 0.90757 0.08074 0.0
C317 C 0.49786 0.87324 0.16411 0.0
H318 H 0.59202 0.84423 0.20833 0.0
C319 C 0.50417 0.90797 0.08621 0.0
C320 C 0.54189 0.92161 0.05822 0.0
H321 H 0.46808 0.8644 0.18472 0.0
H322 H 0.47921 0.92389 0.04395 0.0
C323 C 0.57366 0.89827 0.1043 0.0
C324 C 0.66666 0.56061 0.36142 0.0
C325 C 0.70375 0.55802 0.29347 0.0
H326 H 0.60389 0.56184 0.32977 0.0
C327 C 0.70544 0.561 0.13626 0.0
H328 H 0.66463 0.55939 0.48235 0.0
C329 C 0.67122 0.56271 0.04948 0.0
C330 C 0.6338 0.56107 0.11628 0.0
H331 H 0.73335 0.55851 0.0797 0.0
H332 H 0.67424 0.56289 0.92844 0.0
C333 C 0.632 0.56154 0.27416 0.0
C334 C 1.01143 0.67339 0.33107 0.0
C335 C 1.01267 0.71081 0.26652 0.0
H336 H 1.01045 0.61115 0.29234 0.0
C337 C 1.00871 0.71369 0.10968 0.0
H338 H 1.01484 0.67033 0.45117 0.0
C339 C 1.00707 0.68008 1.0193 0.0
C340 C 1.00978 0.64258 0.08324 0.0
H341 H 1.01059 0.742 0.05618 0.0
H342 H 1.00639 0.68356 0.89848 0.0
C343 C 1.01 0.63965 0.24041 0.0
C344 C 0.93511 0.25267 0.20223 0.0
C345 C 0.95518 0.26559 0.32952 0.0
H346 H 0.8969 0.20896 0.11475 0.0
C347 C 0.94317 0.25315 0.47185 0.0
H348 H 0.9429 0.26347 0.09198 0.0
C349 C 0.91579 0.22367 0.48553 0.0
C350 C 0.90342 0.20373 0.35619 0.0
H351 H 0.95801 0.26302 0.57195 0.0
H352 H 0.91122 0.21188 0.59691 0.0
C353 C 0.90817 0.22228 0.21607 0.0
C354 C 0.31719 0.93653 0.47354 0.0
C355 C 0.30285 0.94783 0.33287 0.0
H356 H 0.35875 0.90285 0.59171 0.0
C357 C 0.31203 0.92546 0.20616 0.0
H358 H 0.31006 0.95291 0.57359 0.0
C359 C 0.34105 0.8969 0.21629 0.0
C360 C 0.36194 0.89291 0.35151 0.0
H361 H 0.29941 0.9324 0.09815 0.0
H362 H 0.35249 0.88452 0.11338 0.0
C363 C 0.3448 0.9071 0.48381 0.0
C364 C 0.6296 0.31072 0.18474 0.0
C365 C 0.60965 0.29711 0.31165 0.0
H366 H 0.66878 0.35431 0.10116 0.0
C367 C 0.6226 0.30764 0.45488 0.0
H368 H 0.62094 0.30145 0.0736 0.0
C369 C 0.65164 0.33531 0.47107 0.0
C370 C 0.66524 0.35545 0.34407 0.0
H371 H 0.60757 0.29754 0.55446 0.0
H372 H 0.65735 0.34585 0.58355 0.0
C373 C 0.65776 0.33988 0.20083 0.0
C374 C 0.24134 0.62468 0.52867 0.0
C375 C 0.25795 0.61668 0.38893 0.0
H376 H 0.19742 0.65494 0.64718 0.0
C377 C 0.2497 0.64068 0.26589 0.0
H378 H 0.24794 0.60659 0.62506 0.0
C379 C 0.22035 0.66872 0.27776 0.0
C380 C 0.19787 0.67055 0.40999 0.0
H381 H 0.26349 0.6354 0.15836 0.0
H382 H 0.21056 0.68329 0.17663 0.0
C383 C 0.21273 0.65305 0.54099 0.0
C384 C 0.12489 0.8192 0.25884 0.0
C385 C 0.11337 0.80588 0.40062 0.0
H386 H 0.15726 0.86073 0.13629 0.0
C387 C 0.13441 0.81732 0.52771 0.0
H388 H 0.1093 0.81048 0.15887 0.0
C389 C 0.16207 0.84711 0.51524 0.0
C390 C 0.16644 0.86668 0.37707 0.0
H391 H 0.12693 0.80584 0.63726 0.0
H392 H 0.17408 0.85946 0.61711 0.0
C393 C 0.15299 0.84806 0.24645 0.0
C394 C 0.75119 0.11946 0.26591 0.0
C395 C 0.76313 0.10907 0.41059 0.0
H396 H 0.70937 0.14855 0.1339 0.0
C397 C 0.74853 0.12945 0.53453 0.0
H398 H 0.76224 0.10421 0.16845 0.0
C399 C 0.71714 0.15492 0.51516 0.0
C400 C 0.69961 0.15814 0.3727 0.0
H401 H 0.75878 0.12282 0.64653 0.0
H402 H 0.70256 0.16625 0.61393 0.0
C403 C 0.72073 0.14542 0.24659 0.0
C404 C 0.41563 0.74189 0.26059 0.0
C405 C 0.45354 0.72887 0.29791 0.0
H406 H 0.36201 0.72812 0.14622 0.0
C407 C 0.46175 0.68902 0.29014 0.0
H408 H 0.40825 0.77249 0.27034 0.0
C409 C 0.43415 0.66346 0.23254 0.0
C410 C 0.39909 0.67761 0.1705 0.0
H411 H 0.49049 0.67781 0.31417 0.0
H412 H 0.4423 0.63319 0.22004 0.0
C413 C 0.38899 0.71667 0.19162 0.0
C414 C 0.81568 0.44913 0.2681 0.0
C415 C 0.80235 0.45914 0.41137 0.0
H416 H 0.85781 0.41884 0.14095 0.0
C417 C 0.81458 0.43756 0.53601 0.0
H418 H 0.80634 0.46529 0.17023 0.0
C419 C 0.84482 0.4106 0.5198 0.0
C420 C 0.86396 0.40724 0.38029 0.0
H421 H 0.80327 0.44411 0.64671 0.0
H422 H 0.8575 0.39794 0.61995 0.0
C423 C 0.84519 0.4219 0.25183 0.0
C424 C 1.02024 0.22941 0.0365 0.0
C425 C 1.02826 0.23549 0.19018 0.0
H426 H 1.01386 0.18817 0.8546 0.0
C427 C 0.03634 0.20237 0.27801 0.0
H428 H 1.01317 0.25414 0.96601 0.0
C429 C 0.03657 0.16452 0.21476 0.0
C430 C 1.02841 0.15808 0.06091 0.0
H431 H 0.04176 0.20576 0.39698 0.0
H432 H 0.0428 0.14008 0.2879 0.0
C433 C 1.02036 0.19141 0.97283 0.0
C434 C 0.36296 0.0349 0.24864 0.0
C435 C 0.33059 1.01968 0.17195 0.0
H436 H 0.42411 0.04823 0.24602 0.0
C437 C 0.33663 1.0065 0.02336 0.0
H438 H 0.35954 0.04498 0.36307 0.0
C439 C 0.37414 1.00801 0.95477 0.0
C440 C 0.40686 1.0227 0.03296 0.0
H441 H 0.31233 0.9946 0.96075 0.0
H442 H 0.37758 0.99711 0.84148 0.0
C443 C 0.40019 0.03651 0.18068 0.0
C444 C 0.54667 0.33636 0.02529 0.0
C445 C 0.53716 0.32985 0.17731 0.0
H446 H 0.55564 0.37809 0.84716 0.0
C447 C 0.52866 0.36268 0.26626 0.0
H448 H 0.55391 0.3118 0.95418 0.0
C449 C 0.52958 0.4008 0.20525 0.0
C450 C 0.53947 0.40756 0.05317 0.0
H451 H 0.52203 0.35884 0.38421 0.0
H452 H 0.52297 0.42514 0.27843 0.0
C453 C 0.54795 0.37452 0.96431 0.0
C454 C 0.1993 0.54177 0.29461 0.0
C455 C 0.23353 0.54708 0.20921 0.0
H456 H 0.13687 0.53584 0.29904 0.0
C457 C 0.22877 0.55167 0.05241 0.0
H458 H 0.20147 0.53904 0.41539 0.0
C459 C 0.19107 0.55069 0.98413 0.0
C460 C 0.15669 0.54495 0.07012 0.0
H461 H 0.25421 0.5568 0.98287 0.0
H462 H 0.18891 0.55453 0.86379 0.0
C463 C 0.16195 0.54028 0.22685 0.0
C464 C 0.03318 0.86816 0.46497 0.0
C465 C 0.04134 0.83495 0.55202 0.0
H466 H 1.02633 0.93038 0.45661 0.0
C467 C 0.04927 0.84071 0.70589 0.0
H468 H 1.02778 0.86495 0.34591 0.0
C469 C 0.04892 0.87859 0.77057 0.0
C470 C 0.04072 0.91202 0.68321 0.0
H471 H 0.05639 0.81587 0.7757 0.0
H472 H 0.05534 0.88166 0.88893 0.0
C473 C 0.03269 0.90585 0.52917 0.0
C474 C 0.70123 1.02635 0.45978 0.0
C475 C 0.73341 0.0361 0.55006 0.0
H476 H 0.63916 1.01829 0.44403 0.0
C477 C 0.72595 0.0453 0.70187 0.0
H478 H 0.70572 1.01998 0.342 0.0
C479 C 0.68748 0.04477 0.76143 0.0
C480 C 0.65507 0.03509 0.67085 0.0
H481 H 0.74996 0.05363 0.77396 0.0
H482 H 0.68313 0.05225 0.87833 0.0
C483 C 0.66289 1.02574 0.51891 0.0
C484 C 0.5544 0.70028 0.48079 0.0
C485 C 0.52252 0.72462 0.51457 0.0
H486 H 0.58291 0.64527 0.51772 0.0
C487 C 0.49675 0.71267 0.62917 0.0
H488 H 0.57434 0.70835 0.39157 0.0
C489 C 0.50209 0.67674 0.70442 0.0
C490 C 0.53246 0.65107 0.6634 0.0
H491 H 0.47171 0.73056 0.65675 0.0
H492 H 0.48143 0.66835 0.79027 0.0
C493 C 0.55899 0.66388 0.55239 0.0
C494 C 0.83739 0.52392 0.72123 0.0
C495 C 0.83096 0.5304 0.56653 0.0
H496 H 0.87913 0.51825 0.90216 0.0
C497 C 0.86423 0.53607 0.47596 0.0
H498 H 0.81267 0.51839 0.79411 0.0
C499 C 0.90239 0.53582 0.53735 0.0
C500 C 0.90918 0.52933 0.69222 0.0
H501 H 0.86069 0.54006 0.3562 0.0
H502 H 0.9268 0.54034 0.4619 0.0
C503 C 0.87573 0.52345 0.78303 0.0
loop_
_geom_bond_atom_site_label_1
_geom_bond_atom_site_label_2
_geom_bond_distance
_geom_bond_site_symmetry_2
_ccdc_geom_bond_type
C0 N1 1.317 . S
C0 N2 1.348 . S
C0 C3 1.485 . S
N1 C0 1.317 . S
N1 N5 1.370 . S
N2 C0 1.348 . S
N2 C4 1.346 . S
C3 C0 1.485 . S
C3 H7 0.960 . S
C3 H8 0.961 . S
C3 H9 0.960 . S
C4 N2 1.346 . S
C4 N5 1.307 . S
C4 C6 1.486 . S
N5 N1 1.370 . S
N5 C4 1.307 . S
C6 C4 1.486 . S
C6 H10 0.960 . S
C6 H11 0.960 . S
C6 H12 0.959 . S
H7 C3 0.960 . S
H8 C3 0.961 . S
H9 C3 0.960 . S
H10 C6 0.960 . S
H11 C6 0.960 . S
H12 C6 0.959 . S
C13 N14 1.317 . S
C13 N15 1.348 . S
C13 C16 1.485 . S
N14 C13 1.317 . S
N14 N18 1.371 . S
N15 C13 1.348 . S
N15 C17 1.346 1_655 S
C16 C13 1.485 . S
C16 H20 0.960 1_655 S
C16 H21 0.961 . S
C16 H22 0.960 . S
C17 N15 1.346 1_455 S
C17 N18 1.307 1_455 S
C17 C19 1.486 . S
N18 N14 1.371 . S
N18 C17 1.307 1_655 S
C19 C17 1.486 . S
C19 H23 0.960 1_455 S
C19 H24 0.960 . S
C19 H25 0.959 . S
H20 C16 0.960 1_455 S
H21 C16 0.961 . S
H22 C16 0.960 . S
H23 C19 0.960 1_655 S
H24 C19 0.960 . S
H25 C19 0.959 . S
C26 N27 1.317 . S
C26 N28 1.348 . S
C26 C29 1.485 . S
N27 C26 1.317 . S
N27 N31 1.371 . S
N28 C26 1.348 . S
N28 C30 1.346 1_565 S
C29 C26 1.485 . S
C29 H33 0.960 1_565 S
C29 H34 0.961 . S
C29 H35 0.960 . S
C30 N28 1.346 1_545 S
C30 N31 1.307 1_545 S
C30 C32 1.486 . S
N31 N27 1.371 . S
N31 C30 1.307 1_565 S
C32 C30 1.486 . S
C32 H36 0.960 1_545 S
C32 H37 0.960 . S
C32 H38 0.959 . S
H33 C29 0.960 1_545 S
H34 C29 0.961 . S
H35 C29 0.960 . S
H36 C32 0.960 1_565 S
H37 C32 0.960 . S
H38 C32 0.959 . S
C39 N40 1.317 . S
C39 N41 1.348 . S
C39 C42 1.485 . S
N40 C39 1.317 . S
N40 N44 1.370 . S
N41 C39 1.348 . S
N41 C43 1.346 . S
C42 C39 1.485 . S
C42 H46 0.960 . S
C42 H47 0.961 . S
C42 H48 0.960 . S
C43 N41 1.346 . S
C43 N44 1.307 . S
C43 C45 1.486 . S
N44 N40 1.370 . S
N44 C43 1.307 . S
C45 C43 1.486 . S
C45 H49 0.960 . S
C45 H50 0.960 . S
C45 H51 0.959 . S
H46 C42 0.960 . S
H47 C42 0.961 . S
H48 C42 0.960 . S
H49 C45 0.960 . S
H50 C45 0.960 . S
H51 C45 0.959 . S
C52 N53 1.317 . S
C52 N54 1.348 1_556 S
C52 C55 1.485 . S
N53 C52 1.317 . S
N53 N57 1.370 1_556 S
N54 C52 1.348 1_554 S
N54 C56 1.346 . S
C55 C52 1.485 . S
C55 H59 0.960 . S
C55 H60 0.961 . S
C55 H61 0.960 . S
C56 N54 1.346 . S
C56 N57 1.307 . S
C56 C58 1.486 . S
N57 N53 1.370 1_554 S
N57 C56 1.307 . S
C58 C56 1.486 . S
C58 H62 0.960 . S
C58 H63 0.960 . S
C58 H64 0.959 . S
H59 C55 0.960 . S
H60 C55 0.961 . S
H61 C55 0.960 . S
H62 C58 0.960 . S
H63 C58 0.960 . S
H64 C58 0.959 . S
C65 N66 1.317 . S
C65 N67 1.350 1_556 S
C65 C68 1.485 . S
N66 C65 1.317 . S
N66 N70 1.371 1_556 S
N67 C65 1.350 1_554 S
N67 C69 1.345 1_655 S
C68 C65 1.485 . S
C68 H72 0.960 1_655 S
C68 H73 0.961 . S
C68 H74 0.960 . S
C69 N67 1.345 1_455 S
C69 N70 1.307 1_455 S
C69 C71 1.487 . S
N70 N66 1.371 1_554 S
N70 C69 1.307 1_655 S
C71 C69 1.487 . S
C71 H75 0.960 1_455 S
C71 H76 0.960 . S
C71 H77 0.959 . S
H72 C68 0.960 1_455 S
H73 C68 0.961 . S
H74 C68 0.960 . S
H75 C71 0.960 1_655 S
H76 C71 0.960 . S
H77 C71 0.959 . S
C78 N79 1.317 . S
C78 N80 1.350 1_556 S
C78 C81 1.485 . S
N79 C78 1.317 . S
N79 N83 1.371 1_556 S
N80 C78 1.350 1_554 S
N80 C82 1.345 1_565 S
C81 C78 1.485 . S
C81 H85 0.960 1_565 S
C81 H86 0.961 . S
C81 H87 0.960 . S
C82 N80 1.345 1_545 S
C82 N83 1.307 1_545 S
C82 C84 1.487 . S
N83 N79 1.371 1_554 S
N83 C82 1.307 1_565 S
C84 C82 1.487 . S
C84 H88 0.960 1_545 S
C84 H89 0.960 . S
C84 H90 0.959 . S
H85 C81 0.960 1_545 S
H86 C81 0.961 . S
H87 C81 0.960 . S
H88 C84 0.960 1_565 S
H89 C84 0.960 . S
H90 C84 0.959 . S
C91 N92 1.317 . S
C91 N93 1.348 1_556 S
C91 C94 1.485 . S
N92 C91 1.317 . S
N92 N96 1.370 1_556 S
N93 C91 1.348 1_554 S
N93 C95 1.346 . S
C94 C91 1.485 . S
C94 H98 0.960 . S
C94 H99 0.961 . S
C94 H100 0.960 . S
C95 N93 1.346 . S
C95 N96 1.307 . S
C95 C97 1.486 . S
N96 N92 1.370 1_554 S
N96 C95 1.307 . S
C97 C95 1.486 . S
C97 H101 0.960 . S
C97 H102 0.960 . S
C97 H103 0.959 . S
H98 C94 0.960 . S
H99 C94 0.961 . S
H100 C94 0.960 . S
H101 C97 0.960 . S
H102 C97 0.960 . S
H103 C97 0.959 . S
Pr104 C106 2.880 1_556 S
Pr104 O124 2.562 1_556 S
Pr104 O125 2.490 1_556 S
Pr104 O126 2.695 1_565 S
Pr104 O127 2.512 . S
Pr104 O129 2.437 . S
Pr104 O132 2.436 1_455 S
Pr104 O134 2.438 1_565 S
Pr105 C115 2.880 . S
Pr105 O126 2.436 1_655 S
Pr105 O128 2.438 1_545 S
Pr105 O130 2.562 . S
Pr105 O131 2.490 . S
Pr105 O132 2.695 1_545 S
Pr105 O133 2.512 . S
Pr105 O135 2.437 . S
C106 Pr104 2.880 1_554 S
C106 C107 1.491 . S
C106 O124 1.254 . S
C106 O125 1.225 . S
C107 C106 1.491 . S
C107 C108 1.392 . S
C107 C112 1.356 . S
C108 C107 1.392 . S
C108 C109 1.368 . S
C108 H136 0.929 . S
C109 C108 1.368 . S
C109 C110 1.386 . S
C109 H137 0.929 . S
C110 C109 1.386 . S
C110 C111 1.373 . S
C111 C110 1.373 . S
C111 C112 1.409 . S
C111 H138 0.931 . S
C112 C107 1.356 . S
C112 C111 1.409 . S
C112 H139 0.930 1_455 S
C113 O126 1.270 1_565 S
C113 O127 1.248 . S
C114 O128 1.267 . S
C114 O129 1.278 1_655 S
C115 Pr105 2.880 . S
C115 C116 1.491 . S
C115 O130 1.254 . S
C115 O131 1.225 . S
C116 C115 1.491 . S
C116 C117 1.392 . S
C116 C121 1.356 . S
C117 C116 1.392 . S
C117 C118 1.368 . S
C117 H140 0.929 . S
C118 C117 1.368 . S
C118 C119 1.386 . S
C118 H141 0.929 . S
C119 C118 1.386 . S
C119 C120 1.373 . S
C120 C119 1.373 . S
C120 C121 1.409 . S
C120 H142 0.931 . S
C121 C116 1.356 . S
C121 C120 1.409 . S
C121 H143 0.930 1_655 S
C122 O132 1.270 1_545 S
C122 O133 1.248 . S
C123 O134 1.267 . S
C123 O135 1.278 1_455 S
O124 Pr104 2.562 1_554 S
O124 C106 1.254 . S
O125 Pr104 2.490 1_554 S
O125 C106 1.225 . S
O126 Pr104 2.695 1_545 S
O126 Pr105 2.436 1_455 S
O126 C113 1.270 1_545 S
O127 Pr104 2.512 . S
O127 C113 1.248 . S
O128 Pr105 2.438 1_565 S
O128 C114 1.267 . S
O129 Pr104 2.437 . S
O129 C114 1.278 1_455 S
O130 Pr105 2.562 . S
O130 C115 1.254 . S
O131 Pr105 2.490 . S
O131 C115 1.225 . S
O132 Pr104 2.436 1_655 S
O132 Pr105 2.695 1_565 S
O132 C122 1.270 1_565 S
O133 Pr105 2.512 . S
O133 C122 1.248 . S
O134 Pr104 2.438 1_545 S
O134 C123 1.267 . S
O135 Pr105 2.437 . S
O135 C123 1.278 1_655 S
H136 C108 0.929 . S
H137 C109 0.929 . S
H138 C111 0.931 . S
H139 C112 0.930 1_655 S
H140 C117 0.929 . S
H141 C118 0.929 . S
H142 C120 0.931 . S
H143 C121 0.930 1_455 S
Pr144 C146 2.880 1_556 S
Pr144 O164 2.562 1_556 S
Pr144 O165 2.490 1_556 S
Pr144 O166 2.695 . S
Pr144 O167 2.512 . S
Pr144 O169 2.437 . S
Pr144 O172 2.436 1_545 S
Pr144 O174 2.438 . S
Pr145 C155 2.880 . S
Pr145 O166 2.436 1_565 S
Pr145 O168 2.438 . S
Pr145 O170 2.562 . S
Pr145 O171 2.490 . S
Pr145 O172 2.695 . S
Pr145 O173 2.512 . S
Pr145 O175 2.437 . S
C146 Pr144 2.880 1_554 S
C146 C147 1.491 . S
C146 O164 1.254 . S
C146 O165 1.225 . S
C147 C146 1.491 . S
C147 C148 1.392 . S
C147 C152 1.356 . S
C148 C147 1.392 . S
C148 C149 1.368 . S
C148 H176 0.929 . S
C149 C148 1.368 . S
C149 C150 1.386 . S
C149 H177 0.929 . S
C150 C149 1.386 . S
C150 C151 1.373 . S
C151 C150 1.373 . S
C151 C152 1.409 . S
C151 H178 0.931 . S
C152 C147 1.356 . S
C152 C151 1.409 . S
C152 H179 0.930 1_545 S
C153 O166 1.270 . S
C153 O167 1.248 . S
C154 O168 1.267 . S
C154 O169 1.278 1_565 S
C155 Pr145 2.880 . S
C155 C156 1.491 . S
C155 O170 1.254 . S
C155 O171 1.225 . S
C156 C155 1.491 . S
C156 C157 1.392 . S
C156 C161 1.356 . S
C157 C156 1.392 . S
C157 C158 1.368 . S
C157 H180 0.929 . S
C158 C157 1.368 . S
C158 C159 1.386 . S
C158 H181 0.929 . S
C159 C158 1.386 . S
C159 C160 1.373 . S
C160 C159 1.373 . S
C160 C161 1.409 . S
C160 H182 0.931 . S
C161 C156 1.356 . S
C161 C160 1.409 . S
C161 H183 0.930 1_565 S
C162 O172 1.270 . S
C162 O173 1.248 . S
C163 O174 1.267 . S
C163 O175 1.278 1_545 S
O164 Pr144 2.562 1_554 S
O164 C146 1.254 . S
O165 Pr144 2.490 1_554 S
O165 C146 1.225 . S
O166 Pr144 2.695 . S
O166 Pr145 2.436 1_545 S
O166 C153 1.270 . S
O167 Pr144 2.512 . S
O167 C153 1.248 . S
O168 Pr145 2.438 . S
O168 C154 1.267 . S
O169 Pr144 2.437 . S
O169 C154 1.278 1_545 S
O170 Pr145 2.562 . S
O170 C155 1.254 . S
O171 Pr145 2.490 . S
O171 C155 1.225 . S
O172 Pr144 2.436 1_565 S
O172 Pr145 2.695 . S
O172 C162 1.270 . S
O173 Pr145 2.512 . S
O173 C162 1.248 . S
O174 Pr144 2.438 . S
O174 C163 1.267 . S
O175 Pr145 2.437 . S
O175 C163 1.278 1_565 S
H176 C148 0.929 . S
H177 C149 0.929 . S
H178 C151 0.931 . S
H179 C152 0.930 1_565 S
H180 C157 0.929 . S
H181 C158 0.929 . S
H182 C160 0.931 . S
H183 C161 0.930 1_545 S
Pr184 C186 2.880 1_556 S
Pr184 O204 2.562 1_556 S
Pr184 O205 2.490 1_556 S
Pr184 O206 2.695 . S
Pr184 O207 2.512 . S
Pr184 O209 2.437 . S
Pr184 O212 2.436 . S
Pr184 O214 2.438 . S
Pr185 C195 2.880 . S
Pr185 O206 2.436 . S
Pr185 O208 2.438 . S
Pr185 O210 2.562 . S
Pr185 O211 2.490 . S
Pr185 O212 2.695 . S
Pr185 O213 2.512 . S
Pr185 O215 2.437 . S
C186 Pr184 2.880 1_554 S
C186 C187 1.491 . S
C186 O204 1.254 . S
C186 O205 1.225 . S
C187 C186 1.491 . S
C187 C188 1.392 . S
C187 C192 1.356 . S
C188 C187 1.392 . S
C188 C189 1.368 . S
C188 H216 0.929 . S
C189 C188 1.368 . S
C189 C190 1.386 . S
C189 H217 0.929 . S
C190 C189 1.386 . S
C190 C191 1.373 . S
C191 C190 1.373 . S
C191 C192 1.409 . S
C191 H218 0.931 . S
C192 C187 1.356 . S
C192 C191 1.409 . S
C192 H219 0.930 . S
C193 O206 1.270 . S
C193 O207 1.248 . S
C194 O208 1.267 . S
C194 O209 1.278 . S
C195 Pr185 2.880 . S
C195 C196 1.491 . S
C195 O210 1.254 . S
C195 O211 1.225 . S
C196 C195 1.491 . S
C196 C197 1.392 . S
C196 C201 1.356 . S
C197 C196 1.392 . S
C197 C198 1.368 . S
C197 H220 0.929 . S
C198 C197 1.368 . S
C198 C199 1.386 . S
C198 H221 0.929 . S
C199 C198 1.386 . S
C199 C200 1.373 . S
C200 C199 1.373 . S
C200 C201 1.409 . S
C200 H222 0.931 . S
C201 C196 1.356 . S
C201 C200 1.409 . S
C201 H223 0.930 . S
C202 O212 1.270 . S
C202 O213 1.248 . S
C203 O214 1.267 . S
C203 O215 1.278 . S
O204 Pr184 2.562 1_554 S
O204 C186 1.254 . S
O205 Pr184 2.490 1_554 S
O205 C186 1.225 . S
O206 Pr184 2.695 . S
O206 Pr185 2.436 . S
O206 C193 1.270 . S
O207 Pr184 2.512 . S
O207 C193 1.248 . S
O208 Pr185 2.438 . S
O208 C194 1.267 . S
O209 Pr184 2.437 . S
O209 C194 1.278 . S
O210 Pr185 2.562 . S
O210 C195 1.254 . S
O211 Pr185 2.490 . S
O211 C195 1.225 . S
O212 Pr184 2.436 . S
O212 Pr185 2.695 . S
O212 C202 1.270 . S
O213 Pr185 2.512 . S
O213 C202 1.248 . S
O214 Pr184 2.438 . S
O214 C203 1.267 . S
O215 Pr185 2.437 . S
O215 C203 1.278 . S
H216 C188 0.929 . S
H217 C189 0.929 . S
H218 C191 0.931 . S
H219 C192 0.930 . S
H220 C197 0.929 . S
H221 C198 0.929 . S
H222 C200 0.931 . S
H223 C201 0.930 . S
Pr224 C226 2.878 1_556 S
Pr224 O244 2.560 1_556 S
Pr224 O245 2.489 1_556 S
Pr224 O246 2.699 1_655 S
Pr224 O247 2.515 . S
Pr224 O249 2.439 . S
Pr224 O252 2.436 . S
Pr224 O254 2.438 1_655 S
Pr225 C235 2.880 . S
Pr225 O246 2.436 . S
Pr225 O248 2.438 1_455 S
Pr225 O250 2.562 . S
Pr225 O251 2.490 . S
Pr225 O252 2.695 1_455 S
Pr225 O253 2.512 . S
Pr225 O255 2.437 . S
C226 Pr224 2.878 1_554 S
C226 C227 1.491 . S
C226 O244 1.254 . S
C226 O245 1.225 . S
C227 C226 1.491 . S
C227 C228 1.392 . S
C227 C232 1.356 . S
C228 C227 1.392 . S
C228 C229 1.368 . S
C228 H256 0.929 . S
C229 C228 1.368 . S
C229 C230 1.386 . S
C229 H257 0.929 . S
C230 C229 1.386 . S
C230 C231 1.373 . S
C231 C230 1.373 . S
C231 C232 1.409 . S
C231 H258 0.931 . S
C232 C227 1.356 . S
C232 C231 1.409 . S
C232 H259 0.930 . S
C233 O246 1.264 1_655 S
C233 O247 1.258 . S
C234 O248 1.267 . S
C234 O249 1.278 . S
C235 Pr225 2.880 . S
C235 C236 1.491 . S
C235 O250 1.254 . S
C235 O251 1.225 . S
C236 C235 1.491 . S
C236 C237 1.392 . S
C236 C241 1.356 . S
C237 C236 1.392 . S
C237 C238 1.368 . S
C237 H260 0.929 . S
C238 C237 1.368 . S
C238 C239 1.386 . S
C238 H261 0.929 . S
C239 C238 1.386 . S
C239 C240 1.373 . S
C240 C239 1.373 . S
C240 C241 1.409 . S
C240 H262 0.931 . S
C241 C236 1.356 . S
C241 C240 1.409 . S
C241 H263 0.930 . S
C242 O252 1.263 1_455 S
C242 O253 1.261 . S
C243 O254 1.267 . S
C243 O255 1.278 . S
O244 Pr224 2.560 1_554 S
O244 C226 1.254 . S
O245 Pr224 2.489 1_554 S
O245 C226 1.225 . S
O246 Pr224 2.699 1_455 S
O246 Pr225 2.436 . S
O246 C233 1.264 1_455 S
O247 Pr224 2.515 . S
O247 C233 1.258 . S
O248 Pr225 2.438 1_655 S
O248 C234 1.267 . S
O249 Pr224 2.439 . S
O249 C234 1.278 . S
O250 Pr225 2.562 . S
O250 C235 1.254 . S
O251 Pr225 2.490 . S
O251 C235 1.225 . S
O252 Pr224 2.436 . S
O252 Pr225 2.695 1_655 S
O252 C242 1.263 1_655 S
O253 Pr225 2.512 . S
O253 C242 1.261 . S
O254 Pr224 2.438 1_455 S
O254 C243 1.267 . S
O255 Pr225 2.437 . S
O255 C243 1.278 . S
H256 C228 0.929 . S
H257 C229 0.929 . S
H258 C231 0.931 . S
H259 C232 0.930 . S
H260 C237 0.929 . S
H261 C238 0.929 . S
H262 C240 0.931 . S
H263 C241 0.930 . S
C264 C265 1.388 . S
C264 H268 0.950 . S
C264 C273 1.390 . S
C265 C264 1.388 . S
C265 C267 1.387 1_545 S
H266 C273 0.950 . S
C267 C265 1.387 1_565 S
C267 C269 1.390 . S
C267 H271 0.950 . S
H268 C264 0.950 . S
C269 C267 1.390 . S
C269 C270 1.385 1_565 S
C269 H272 0.950 . S
C270 C269 1.385 1_545 S
C270 C273 1.390 . S
H271 C267 0.950 . S
H272 C269 0.950 . S
C273 C264 1.390 . S
C273 H266 0.950 . S
C273 C270 1.390 . S
C274 C275 1.387 . S
C274 H278 0.950 . S
C274 C283 1.390 . S
C275 C274 1.387 . S
C275 C277 1.387 . S
H276 C283 0.950 . S
C277 C275 1.387 . S
C277 C279 1.390 . S
C277 H281 0.950 . S
H278 C274 0.950 . S
C279 C277 1.390 . S
C279 C280 1.387 . S
C279 H282 0.950 . S
C280 C279 1.387 . S
C280 C283 1.387 . S
H281 C277 0.950 . S
H282 C279 0.950 . S
C283 C274 1.390 . S
C283 H276 0.950 . S
C283 C280 1.387 . S
C284 C285 1.387 . S
C284 H288 0.950 . S
C284 C293 1.390 . S
C285 C284 1.387 . S
C285 C287 1.387 . S
H286 C293 0.950 . S
C287 C285 1.387 . S
C287 C289 1.390 . S
C287 H291 0.950 . S
H288 C284 0.950 . S
C289 C287 1.390 . S
C289 C290 1.387 . S
C289 H292 0.950 . S
C290 C289 1.387 . S
C290 C293 1.387 . S
H291 C287 0.950 . S
H292 C289 0.950 . S
C293 C284 1.390 . S
C293 H286 0.950 . S
C293 C290 1.387 . S
C294 C295 1.407 . S
C294 H298 0.950 . S
C294 C303 1.390 . S
C295 C294 1.407 . S
C295 C297 1.368 1_455 S
H296 C303 0.950 . S
C297 C295 1.368 1_655 S
C297 C299 1.390 . S
C297 H301 0.950 . S
H298 C294 0.950 . S
C299 C297 1.390 . S
C299 C300 1.387 1_655 S
C299 H302 0.950 . S
C300 C299 1.387 1_455 S
C300 C303 1.387 . S
H301 C297 0.950 . S
H302 C299 0.950 . S
C303 C294 1.390 . S
C303 H296 0.950 . S
C303 C300 1.387 . S
C304 C305 1.387 . S
C304 H308 0.950 . S
C304 C313 1.390 . S
C305 C304 1.387 . S
C305 C307 1.388 1_545 S
H306 C313 0.950 . S
C307 C305 1.388 1_565 S
C307 C309 1.390 . S
C307 H311 0.950 . S
H308 C304 0.950 . S
C309 C307 1.390 . S
C309 C310 1.390 1_565 S
C309 H312 0.950 . S
C310 C309 1.390 1_545 S
C310 C313 1.385 . S
H311 C307 0.950 . S
H312 C309 0.950 . S
C313 C304 1.390 . S
C313 H306 0.950 . S
C313 C310 1.385 . S
C314 C315 1.387 . S
C314 H318 0.950 . S
C314 C323 1.390 . S
C315 C314 1.387 . S
C315 C317 1.387 . S
H316 C323 0.950 . S
C317 C315 1.387 . S
C317 C319 1.390 . S
C317 H321 0.950 . S
H318 C314 0.950 . S
C319 C317 1.390 . S
C319 C320 1.387 . S
C319 H322 0.950 . S
C320 C319 1.387 . S
C320 C323 1.387 . S
H321 C317 0.950 . S
H322 C319 0.950 . S
C323 C314 1.390 . S
C323 H316 0.950 . S
C323 C320 1.387 . S
C324 C325 1.387 . S
C324 H328 0.950 . S
C324 C333 1.390 . S
C325 C324 1.387 . S
C325 C327 1.387 . S
H326 C333 0.950 . S
C327 C325 1.387 . S
C327 C329 1.390 . S
C327 H331 0.950 . S
H328 C324 0.950 . S
C329 C327 1.390 . S
C329 C330 1.387 . S
C329 H332 0.950 . S
C330 C329 1.387 . S
C330 C333 1.387 . S
H331 C327 0.950 . S
H332 C329 0.950 . S
C333 C324 1.390 . S
C333 H326 0.950 . S
C333 C330 1.387 . S
C334 C335 1.373 1_455 S
C334 H338 0.950 . S
C334 C343 1.390 . S
C335 C334 1.373 1_655 S
C335 C337 1.403 . S
H336 C343 0.950 . S
C337 C335 1.403 . S
C337 C339 1.390 . S
C337 H341 0.950 . S
H338 C334 0.950 . S
C339 C337 1.390 . S
C339 C340 1.387 . S
C339 H342 0.950 . S
C340 C339 1.387 . S
C340 C343 1.387 1_655 S
H341 C337 0.950 . S
H342 C339 0.950 . S
C343 C334 1.390 . S
C343 H336 0.950 . S
C343 C340 1.387 1_455 S
C344 C345 1.387 . S
C344 H348 0.950 1_554 S
C344 C353 1.390 . S
C345 C344 1.387 . S
C345 C347 1.387 . S
H346 C353 0.950 . S
C347 C345 1.387 . S
C347 C349 1.390 . S
C347 H351 0.950 . S
H348 C344 0.950 1_556 S
C349 C347 1.390 . S
C349 C350 1.387 . S
C349 H352 0.950 . S
C350 C349 1.387 . S
C350 C353 1.387 . S
H351 C347 0.950 . S
H352 C349 0.950 . S
C353 C344 1.390 . S
C353 H346 0.950 . S
C353 C350 1.387 . S
C354 C355 1.387 . S
C354 H358 0.950 1_565 S
C354 C363 1.390 . S
C355 C354 1.387 . S
C355 C357 1.387 . S
H356 C363 0.950 . S
C357 C355 1.387 . S
C357 C359 1.390 . S
C357 H361 0.950 1_554 S
H358 C354 0.950 1_545 S
C359 C357 1.390 . S
C359 C360 1.387 . S
C359 H362 0.950 . S
C360 C359 1.387 . S
C360 C363 1.387 . S
H361 C357 0.950 1_556 S
H362 C359 0.950 . S
C363 C354 1.390 . S
C363 H356 0.950 . S
C363 C360 1.387 . S
C364 C365 1.387 . S
C364 H368 0.950 1_554 S
C364 C373 1.390 . S
C365 C364 1.387 . S
C365 C367 1.387 . S
H366 C373 0.950 . S
C367 C365 1.387 . S
C367 C369 1.390 . S
C367 H371 0.950 . S
H368 C364 0.950 1_556 S
C369 C367 1.390 . S
C369 C370 1.387 . S
C369 H372 0.950 . S
C370 C369 1.387 . S
C370 C373 1.387 . S
H371 C367 0.950 . S
H372 C369 0.950 . S
C373 C364 1.390 . S
C373 H366 0.950 . S
C373 C370 1.387 . S
C374 C375 1.387 . S
C374 H378 0.950 . S
C374 C383 1.390 . S
C375 C374 1.387 . S
C375 C377 1.387 . S
H376 C383 0.950 . S
C377 C375 1.387 . S
C377 C379 1.390 . S
C377 H381 0.950 1_554 S
H378 C374 0.950 . S
C379 C377 1.390 . S
C379 C380 1.387 . S
C379 H382 0.950 . S
C380 C379 1.387 . S
C380 C383 1.387 . S
H381 C377 0.950 1_556 S
H382 C379 0.950 . S
C383 C374 1.390 . S
C383 H376 0.950 . S
C383 C380 1.387 . S
C384 C385 1.387 . S
C384 H388 0.950 . S
C384 C393 1.390 . S
C385 C384 1.387 . S
C385 C387 1.387 . S
H386 C393 0.950 . S
C387 C385 1.387 . S
C387 C389 1.390 . S
C387 H391 0.950 . S
H388 C384 0.950 . S
C389 C387 1.390 . S
C389 C390 1.387 . S
C389 H392 0.950 . S
C390 C389 1.387 . S
C390 C393 1.387 . S
H391 C387 0.950 . S
H392 C389 0.950 . S
C393 C384 1.390 . S
C393 H386 0.950 . S
C393 C390 1.387 . S
C394 C395 1.387 . S
C394 H398 0.950 1_545 S
C394 C403 1.390 . S
C395 C394 1.387 . S
C395 C397 1.387 . S
H396 C403 0.950 . S
C397 C395 1.387 . S
C397 C399 1.390 . S
C397 H401 0.950 . S
H398 C394 0.950 1_565 S
C399 C397 1.390 . S
C399 C400 1.387 . S
C399 H402 0.950 . S
C400 C399 1.387 . S
C400 C403 1.387 . S
H401 C397 0.950 . S
H402 C399 0.950 . S
C403 C394 1.390 . S
C403 H396 0.950 . S
C403 C400 1.387 . S
C404 C405 1.387 . S
C404 H408 0.950 . S
C404 C413 1.390 . S
C405 C404 1.387 . S
C405 C407 1.387 . S
H406 C413 0.950 . S
C407 C405 1.387 . S
C407 C409 1.390 . S
C407 H411 0.950 . S
H408 C404 0.950 . S
C409 C407 1.390 . S
C409 C410 1.387 . S
C409 H412 0.950 . S
C410 C409 1.387 . S
C410 C413 1.387 . S
H411 C407 0.950 . S
H412 C409 0.950 . S
C413 C404 1.390 . S
C413 H406 0.950 . S
C413 C410 1.387 . S
C414 C415 1.387 . S
C414 H418 0.950 . S
C414 C423 1.390 . S
C415 C414 1.387 . S
C415 C417 1.387 . S
H416 C423 0.950 . S
C417 C415 1.387 . S
C417 C419 1.390 . S
C417 H421 0.950 . S
H418 C414 0.950 . S
C419 C417 1.390 . S
C419 C420 1.387 . S
C419 H422 0.950 . S
C420 C419 1.387 . S
C420 C423 1.387 . S
H421 C417 0.950 . S
H422 C419 0.950 . S
C423 C414 1.390 . S
C423 H416 0.950 . S
C423 C420 1.387 . S
C424 C425 1.387 . S
C424 H428 0.950 . S
C424 C433 1.390 . S
C425 C424 1.387 . S
C425 C427 1.387 1_556 S
H426 C433 0.950 . S
C427 C425 1.387 1_554 S
C427 C429 1.390 . S
C427 H431 0.950 . S
H428 C424 0.950 . S
C429 C427 1.390 . S
C429 C430 1.387 1_554 S
C429 H432 0.950 . S
C430 C429 1.387 1_556 S
C430 C433 1.387 . S
H431 C427 0.950 . S
H432 C429 0.950 . S
C433 C424 1.390 . S
C433 H426 0.950 . S
C433 C430 1.387 . S
C434 C435 1.387 1_554 S
C434 H438 0.950 1_545 S
C434 C443 1.390 . S
C435 C434 1.387 1_556 S
C435 C437 1.387 . S
H436 C443 0.950 . S
C437 C435 1.387 . S
C437 C439 1.390 . S
C437 H441 0.950 . S
H438 C434 0.950 1_565 S
C439 C437 1.390 . S
C439 C440 1.387 . S
C439 H442 0.950 . S
C440 C439 1.387 . S
C440 C443 1.387 1_556 S
H441 C437 0.950 . S
H442 C439 0.950 . S
C443 C434 1.390 . S
C443 H436 0.950 . S
C443 C440 1.387 1_554 S
C444 C445 1.387 . S
C444 H448 0.950 . S
C444 C453 1.390 . S
C445 C444 1.387 . S
C445 C447 1.387 1_556 S
H446 C453 0.950 . S
C447 C445 1.387 1_554 S
C447 C449 1.390 . S
C447 H451 0.950 . S
H448 C444 0.950 . S
C449 C447 1.390 . S
C449 C450 1.387 1_554 S
C449 H452 0.950 . S
C450 C449 1.387 1_556 S
C450 C453 1.387 . S
H451 C447 0.950 . S
H452 C449 0.950 . S
C453 C444 1.390 . S
C453 H446 0.950 . S
C453 C450 1.387 . S
C454 C455 1.387 1_554 S
C454 H458 0.950 . S
C454 C463 1.390 . S
C455 C454 1.387 1_556 S
C455 C457 1.387 . S
H456 C463 0.950 . S
C457 C455 1.387 . S
C457 C459 1.390 . S
C457 H461 0.950 . S
H458 C454 0.950 . S
C459 C457 1.390 . S
C459 C460 1.387 . S
C459 H462 0.950 . S
C460 C459 1.387 . S
C460 C463 1.387 1_556 S
H461 C457 0.950 . S
H462 C459 0.950 . S
C463 C454 1.390 . S
C463 H456 0.950 . S
C463 C460 1.387 1_554 S
C464 C465 1.387 . S
C464 H468 0.950 . S
C464 C473 1.390 . S
C465 C464 1.387 . S
C465 C467 1.387 . S
H466 C473 0.950 . S
C467 C465 1.387 . S
C467 C469 1.390 . S
C467 H471 0.950 . S
H468 C464 0.950 . S
C469 C467 1.390 . S
C469 C470 1.387 . S
C469 H472 0.950 . S
C470 C469 1.387 . S
C470 C473 1.387 . S
H471 C467 0.950 . S
H472 C469 0.950 . S
C473 C464 1.390 . S
C473 H466 0.950 . S
C473 C470 1.387 . S
C474 C475 1.387 . S
C474 H478 0.950 . S
C474 C483 1.390 . S
C475 C474 1.387 . S
C475 C477 1.387 . S
H476 C483 0.950 . S
C477 C475 1.387 . S
C477 C479 1.390 . S
C477 H481 0.950 . S
H478 C474 0.950 . S
C479 C477 1.390 . S
C479 C480 1.387 . S
C479 H482 0.950 . S
C480 C479 1.387 . S
C480 C483 1.387 . S
H481 C477 0.950 . S
H482 C479 0.950 . S
C483 C474 1.390 . S
C483 H476 0.950 . S
C483 C480 1.387 . S
C484 C485 1.387 . S
C484 H488 0.950 . S
C484 C493 1.390 . S
C485 C484 1.387 . S
C485 C487 1.387 . S
H486 C493 0.950 . S
C487 C485 1.387 . S
C487 C489 1.390 . S
C487 H491 0.950 . S
H488 C484 0.950 . S
C489 C487 1.390 . S
C489 C490 1.387 . S
C489 H492 0.950 . S
C490 C489 1.387 . S
C490 C493 1.387 . S
H491 C487 0.950 . S
H492 C489 0.950 . S
C493 C484 1.390 . S
C493 H486 0.950 . S
C493 C490 1.387 . S
C494 C495 1.387 . S
C494 H498 0.950 . S
C494 C503 1.390 . S
C495 C494 1.387 . S
C495 C497 1.387 . S
H496 C503 0.950 . S
C497 C495 1.387 . S
C497 C499 1.390 . S
C497 H501 0.950 . S
H498 C494 0.950 . S
C499 C497 1.390 . S
C499 C500 1.387 . S
C499 H502 0.950 . S
C500 C499 1.387 . S
C500 C503 1.387 . S
H501 C497 0.950 . S
H502 C499 0.950 . S
C503 C494 1.390 . S
C503 H496 0.950 . S
C503 C500 1.387 . S
C265 N80 1.997 1_545 S
C270 C113 2.175 1_545 S
C280 C153 2.194 . S
C275 N93 2.021 . S
C290 C193 2.208 . S
C285 N54 2.039 . S
C300 C233 2.190 1_455 S
C295 N67 2.015 1_455 S
C310 C122 2.177 1_554 S
C305 N28 2.001 1_545 S
C315 N41 2.020 . S
C320 C162 2.197 1_554 S
C325 N2 2.033 . S
C330 C202 2.208 1_554 S
C335 N15 2.016 . S
C340 C242 2.190 1_654 S
C350 C119 0.836 . S
C345 N70 0.855 . S
C360 C159 0.839 . S
C355 N83 0.858 . S
C370 C199 0.826 . S
C365 N96 0.846 . S
C375 N57 0.857 . S
C380 C239 0.831 . S
C385 N18 0.860 1_455 S
C390 C110 0.838 . S
C400 C150 0.831 . S
C395 N31 0.852 1_545 S
C410 C190 0.826 . S
C405 N44 0.849 . S
C415 N5 0.855 . S
C420 C230 0.832 . S
C425 N66 2.417 1_455 S
C430 C123 2.533 . S
C435 N79 2.371 1_545 S
C440 C163 2.485 . S
C450 C203 2.471 . S
C445 N92 2.361 . S
C460 C243 2.519 . S
C455 N53 2.403 . S
C465 N14 2.405 . S
C470 C114 2.540 . S
C480 C154 2.487 . S
C475 N27 2.357 . S
C490 C194 2.470 . S
C485 N40 2.339 . S
C495 N1 2.385 . S
C500 C234 2.522 . S
