# Generated by pormake.
# Topology anh, (6,3)-cn, num edge types: 1
# Building blocks:
#     Node 0, Type 0, BuildingBlock: BETDIP_clean_sbu_0, # of connection points: 6
#     Node 1, Type 0, BuildingBlock: BETDIP_clean_sbu_0, # of connection points: 6
#     Node 2, Type 0, BuildingBlock: BETDIP_clean_sbu_0, # of connection points: 6
#     Node 3, Type 1, BuildingBlock: QEWDON_clean_linker_0, # of connection points: 3
#     Node 4, Type 1, BuildingBlock: QEWDON_clean_linker_0, # of connection points: 3
#     Node 5, Type 1, BuildingBlock: QEWDON_clean_linker_0, # of connection points: 3
#     Node 6, Type 1, BuildingBlock: QEWDON_clean_linker_0, # of connection points: 3
#     Node 7, Type 1, BuildingBlock: QEWDON_clean_linker_0, # of connection points: 3
#     Node 8, Type 1, BuildingBlock: QEWDON_clean_linker_0, # of connection points: 3
#     Edge 9, Type (0, 1), BuildingBlock: XUDNAN_clean_linker_2, # of connection points: 2
#     Edge 10, Type (0, 1), BuildingBlock: XUDNAN_clean_linker_2, # of connection points: 2
#     Edge 11, Type (0, 1), BuildingBlock: XUDNAN_clean_linker_2, # of connection points: 2
#     Edge 12, Type (0, 1), BuildingBlock: XUDNAN_clean_linker_2, # of connection points: 2
#     Edge 13, Type (0, 1), BuildingBlock: XUDNAN_clean_linker_2, # of connection points: 2
#     Edge 14, Type (0, 1), BuildingBlock: XUDNAN_clean_linker_2, # of connection points: 2
#     Edge 15, Type (0, 1), BuildingBlock: XUDNAN_clean_linker_2, # of connection points: 2
#     Edge 16, Type (0, 1), BuildingBlock: XUDNAN_clean_linker_2, # of connection points: 2
#     Edge 17, Type (0, 1), BuildingBlock: XUDNAN_clean_linker_2, # of connection points: 2
#     Edge 18, Type (0, 1), BuildingBlock: XUDNAN_clean_linker_2, # of connection points: 2
#     Edge 19, Type (0, 1), BuildingBlock: XUDNAN_clean_linker_2, # of connection points: 2
#     Edge 20, Type (0, 1), BuildingBlock: XUDNAN_clean_linker_2, # of connection points: 2
#     Edge 21, Type (0, 1), BuildingBlock: XUDNAN_clean_linker_2, # of connection points: 2
#     Edge 22, Type (0, 1), BuildingBlock: XUDNAN_clean_linker_2, # of connection points: 2
#     Edge 23, Type (0, 1), BuildingBlock: XUDNAN_clean_linker_2, # of connection points: 2
#     Edge 24, Type (0, 1), BuildingBlock: XUDNAN_clean_linker_2, # of connection points: 2
#     Edge 25, Type (0, 1), BuildingBlock: XUDNAN_clean_linker_2, # of connection points: 2
#     Edge 26, Type (0, 1), BuildingBlock: XUDNAN_clean_linker_2, # of connection points: 2
# Relax obj value: 0.231
# Max RMSD: 0.146
# Mean RMSD: 0.131
data_MOF--net-anh--node1-BETDIP_clean_sbu_0--node2-QEWDON_clean_linker_0--edge1-XUDNAN_clean_linker_2
_symmetry_space_group_name_H-M    P1
_symmetry_Int_Tables_number       1
_symmetry_cell_setting            triclinic
loop_
_symmetry_equiv_pos_as_xyz
'x, y, z'
_cell_length_a     32.320541
_cell_length_b     32.224176
_cell_length_c     48.466069
_cell_angle_alpha  93.7269
_cell_angle_beta   93.238995
_cell_angle_gamma 120.17244
loop_
_atom_site_label
_atom_site_type_symbol
_atom_site_fract_x
_atom_site_fract_y
_atom_site_fract_z
_atom_type_partial_charge
Tb0 Tb 0.16489 0.68213 0.16298 0.0
Tb1 Tb 1.10806 0.57554 0.1563 0.0
C2 C 0.22699 0.76819 0.17821 0.0
C3 C 0.27831 0.79612 0.17388 0.0
C4 C 0.3104 0.78086 0.1824 0.0
C5 C 0.35827 0.80627 0.17666 0.0
C6 C 0.37488 0.84723 0.1622 0.0
C7 C 0.3426 0.86206 0.15341 0.0
C8 C 0.29479 0.83678 0.15926 0.0
C9 C 0.13188 0.6426 0.11197 0.0
C10 C 0.22197 0.62185 0.15636 0.0
C11 C 1.04954 0.4896 0.1371 0.0
C12 C 1.00201 0.46548 0.12084 0.0
C13 C 0.99183 0.48725 0.09932 0.0
C14 C 0.94518 0.46635 0.08606 0.0
C15 C 0.90768 0.42349 0.09428 0.0
C16 C 0.91873 0.4007 0.11495 0.0
C17 C 0.96543 0.42146 0.12801 0.0
C18 C 0.13954 0.61465 0.20841 0.0
C19 C 1.0522 0.63664 0.15846 0.0
O20 O 0.21442 0.73376 0.19456 0.0
O21 O 0.19725 0.75468 0.1556 0.0
O22 O 0.14907 0.62821 0.13028 0.0
O23 O 0.13493 0.68265 0.12138 0.0
O24 O 0.22432 0.66441 0.16118 0.0
O25 O 0.17906 0.58143 0.15301 0.0
O26 O 1.08584 0.51956 0.12435 0.0
O27 O 1.05133 0.50695 0.16262 0.0
O28 O 0.12363 0.62988 0.18966 0.0
O29 O 0.13494 0.57386 0.19867 0.0
O30 O 1.05094 0.59602 0.14887 0.0
O31 O 1.09415 0.67432 0.1695 0.0
H32 H 0.29866 0.74934 0.19351 0.0
H33 H 0.38249 0.79428 0.18382 0.0
H34 H 0.35465 0.8942 0.14283 0.0
H35 H 0.27062 0.84901 0.15235 0.0
H36 H 1.01954 0.52122 0.0934 0.0
H37 H 0.93815 0.48476 0.07015 0.0
H38 H 0.89081 0.36831 0.12238 0.0
H39 H 0.97253 0.40413 0.14456 0.0
Tb40 Tb 0.70329 0.11606 0.49959 0.0
Tb41 Tb 0.65072 0.16759 0.49028 0.0
C42 C 0.74615 1.07388 0.51462 0.0
C43 C 0.73083 1.02294 0.50625 0.0
C44 C 0.71756 0.99028 0.52634 0.0
C45 C 0.69158 0.94057 0.51827 0.0
C46 C 0.67844 0.92271 0.48995 0.0
C47 C 0.69469 0.95541 0.46987 0.0
C48 C 0.72058 1.005 0.47791 0.0
C49 C 0.67205 0.11086 0.44694 0.0
C50 C 0.58827 1.05307 0.49148 0.0
C51 C 0.61802 0.21602 0.46979 0.0
C52 C 0.63867 0.257 0.4532 0.0
C53 C 0.6143 0.28188 0.44848 0.0
C54 C 0.63812 0.32707 0.43863 0.0
C55 C 0.68689 0.34822 0.43405 0.0
C56 C 0.70967 0.3211 0.43608 0.0
C57 C 0.68532 0.27527 0.44518 0.0
C58 C 0.65689 0.14893 0.54248 0.0
C59 C 0.76783 0.22981 0.49433 0.0
O60 O 0.71719 0.08006 0.53005 0.0
O61 O 0.75966 0.10257 0.49486 0.0
O62 O 0.68916 0.14624 0.46513 0.0
O63 O 0.67464 1.07666 0.45793 0.0
O64 O 0.62857 1.05799 0.50378 0.0
O65 O 0.58979 0.09099 0.481 0.0
O66 O 0.61052 0.17503 0.4576 0.0
O67 O 0.63816 0.22519 0.49541 0.0
O68 O 0.68914 0.16172 0.52612 0.0
O69 O 0.62046 0.14936 0.5302 0.0
O70 O 0.72646 0.22951 0.49017 0.0
O71 O 0.76707 0.18947 0.49989 0.0
H72 H 0.72484 1.00317 0.54827 0.0
H73 H 0.68044 0.91613 0.53422 0.0
H74 H 0.68508 0.94282 0.44791 0.0
H75 H 0.72997 1.02911 0.46181 0.0
H76 H 0.57816 0.26807 0.45433 0.0
H77 H 0.62011 0.34773 0.43765 0.0
H78 H 0.74733 0.33689 0.43286 0.0
H79 H 0.70406 0.25566 0.44766 0.0
Tb80 Tb 0.61011 0.59416 0.82871 0.0
Tb81 Tb 0.7149 0.63969 0.82471 0.0
C82 C 0.52965 0.57301 0.84355 0.0
C83 C 0.51068 0.60307 0.85415 0.0
C84 C 0.54089 0.64782 0.87001 0.0
C85 C 0.52325 0.6781 0.87772 0.0
C86 C 0.47562 0.66438 0.86902 0.0
C87 C 0.44552 0.61963 0.85322 0.0
C88 C 0.46291 0.58913 0.84592 0.0
C89 C 0.63416 0.58815 0.77842 0.0
C90 C 0.66995 0.70971 0.82471 0.0
C91 C 0.79727 0.67348 0.80939 0.0
C92 C 0.82496 0.64855 0.80665 0.0
C93 C 0.82086 0.62278 0.78103 0.0
C94 C 0.83388 0.5875 0.77973 0.0
C95 C 0.85208 0.578 0.80394 0.0
C96 C 0.86104 0.60741 0.82891 0.0
C97 C 0.84742 0.6422 0.8303 0.0
C98 C 0.6881 0.62103 0.87552 0.0
C99 C 0.65431 0.52486 0.82402 0.0
O100 O 0.56323 0.5725 0.85984 0.0
O101 O 0.53961 0.57762 0.81774 0.0
O102 O 0.65507 0.62336 0.79681 0.0
O103 O 0.59601 0.55407 0.78746 0.0
O104 O 0.62736 0.67039 0.8265 0.0
O105 O 0.70943 0.70613 0.82435 0.0
O106 O 0.75806 0.65427 0.7922 0.0
O107 O 0.78983 0.68392 0.83462 0.0
O108 O 0.67216 0.63703 0.85735 0.0
O109 O 0.72221 0.61638 0.86572 0.0
O110 O 0.69174 0.56191 0.81474 0.0
O111 O 0.62078 0.53177 0.83481 0.0
H112 H 0.57825 0.65976 0.87594 0.0
H113 H 0.5469 0.71247 0.88992 0.0
H114 H 0.4084 0.60818 0.84661 0.0
H115 H 0.43935 0.55508 0.83338 0.0
H116 H 0.80417 0.62726 0.76232 0.0
H117 H 0.82701 0.56583 0.76014 0.0
H118 H 0.87689 0.60226 0.84773 0.0
H119 H 0.85183 0.6619 0.85026 0.0
H120 H 0.67545 0.25365 0.2617 0.0
C121 C 0.66876 0.22286 0.24765 0.0
C122 C 0.68122 0.18958 0.2567 0.0
C123 C 0.64797 0.21635 0.22029 0.0
H124 H 0.68095 0.1237 0.24541 0.0
C125 C 0.67224 0.14982 0.23825 0.0
C126 C 0.64798 0.14079 0.21171 0.0
C127 C 0.63717 0.17507 0.20269 0.0
C128 C 0.63627 0.25146 0.20938 0.0
H129 H 0.61769 0.16858 0.18244 0.0
C130 C 0.65253 0.26892 0.1841 0.0
C131 C 0.63745 0.29729 0.17075 0.0
C132 C 0.60614 0.26443 0.22239 0.0
H133 H 0.5929 0.25109 0.24187 0.0
C134 C 0.59153 0.29339 0.20966 0.0
H135 H 0.67763 0.26038 0.17507 0.0
C136 C 0.6067 0.30947 0.18391 0.0
H137 H 0.59421 0.33117 0.17433 0.0
H138 H 0.56781 0.30289 0.21959 0.0
H139 H 0.5649 0.5563 0.57974 0.0
C140 C 0.59051 0.55734 0.56587 0.0
C141 C 0.6362 0.56781 0.57688 0.0
C142 C 0.57903 0.55169 0.53708 0.0
H143 H 0.70591 0.58117 0.56768 0.0
C144 C 0.67046 0.57222 0.55891 0.0
C145 C 0.65875 0.56422 0.52989 0.0
C146 C 0.6127 0.55394 0.51932 0.0
C147 C 0.53458 0.54956 0.5255 0.0
H148 H 0.60223 0.54697 0.49713 0.0
C149 C 0.53849 0.58266 0.50699 0.0
C150 C 0.49862 0.58644 0.49813 0.0
C151 C 0.48951 0.51848 0.53439 0.0
H152 H 0.48566 0.49271 0.54879 0.0
C153 C 0.44918 0.52109 0.52496 0.0
H154 H 0.57363 0.60816 0.50103 0.0
C155 C 0.45378 0.55549 0.50723 0.0
H156 H 0.42277 0.55855 0.50104 0.0
H157 H 0.41456 0.49729 0.53201 0.0
H158 H 0.11947 0.57962 0.92766 0.0
C159 C 1.09488 0.54933 0.91263 0.0
C160 C 1.05966 0.50653 0.922 0.0
C161 C 1.09421 0.55569 0.88436 0.0
H162 H 0.99634 0.43701 0.91041 0.0
C163 C 1.02509 0.4687 0.90282 0.0
C164 C 1.02406 0.47428 0.87428 0.0
C165 C 1.05987 0.51756 0.8653 0.0
C166 C 0.12409 0.60439 0.87535 0.0
H167 H 1.05834 0.52381 0.84367 0.0
C168 C 0.17335 0.63216 0.88439 0.0
C169 C 0.20179 0.67808 0.87557 0.0
C170 C 1.1031 0.62375 0.85805 0.0
H171 H 1.06492 0.60356 0.85125 0.0
C172 C 0.13113 0.66967 0.84961 0.0
H173 H 0.18996 0.61711 0.89727 0.0
C174 C 0.18039 0.69662 0.85808 0.0
H175 H 0.20189 0.73168 0.85081 0.0
H176 H 0.1147 0.68418 0.83623 0.0
H177 H 0.14241 0.62746 0.41955 0.0
C178 C 0.17634 0.65706 0.42948 0.0
C179 C 0.20888 0.69065 0.41284 0.0
C180 C 0.18534 0.66351 0.45873 0.0
H181 H 0.27659 0.75608 0.41197 0.0
C182 C 0.2521 0.73118 0.4253 0.0
C183 C 0.26478 0.7396 0.45423 0.0
C184 C 0.2309 0.70483 0.47077 0.0
C185 C 0.14462 0.63128 0.47631 0.0
H186 H 0.23968 0.71067 0.49308 0.0
C187 C 1.10685 0.58126 0.46813 0.0
C188 C 1.06716 0.5557 0.48474 0.0
C189 C 0.14114 0.6533 0.50139 0.0
H190 H 0.16698 0.69072 0.50845 0.0
C191 C 1.10336 0.62876 0.51749 0.0
H192 H 1.10797 0.56263 0.44905 0.0
C193 C 1.0671 0.58123 0.50933 0.0
H194 H 1.03896 0.56393 0.52287 0.0
H195 H 1.10192 0.64714 0.5366 0.0
H196 H 0.65987 0.09679 0.75455 0.0
C197 C 0.6598 0.12799 0.76423 0.0
C198 C 0.66374 0.16376 0.74742 0.0
C199 C 0.65293 0.13054 0.7926 0.0
H200 H 0.66364 0.23007 0.74542 0.0
C201 C 0.66161 0.20388 0.75902 0.0
C202 C 0.65638 0.21039 0.78742 0.0
C203 C 0.65212 0.17301 0.80398 0.0
C204 C 0.64229 0.08709 0.80924 0.0
H205 H 0.6487 0.17754 0.82585 0.0
C206 C 0.65553 1.05064 0.80256 0.0
C207 C 0.64072 1.00908 0.81811 0.0
C208 C 0.61469 0.08006 0.83178 0.0
H209 H 0.60173 0.10417 0.83749 0.0
C210 C 0.60142 1.04099 0.84715 0.0
H211 H 0.67667 1.05414 0.78542 0.0
C212 C 0.61411 1.00644 0.84057 0.0
H213 H 0.60327 0.97751 0.85372 0.0
H214 H 0.58044 1.0372 0.86446 0.0
H215 H 0.62033 0.62934 0.08819 0.0
C216 C 0.65172 0.63006 0.09779 0.0
C217 C 0.68448 0.627 0.08061 0.0
C218 C 0.65991 0.63669 0.12702 0.0
H219 H 0.75097 0.62616 0.08015 0.0
C220 C 0.72525 0.62716 0.09315 0.0
C221 C 0.7357 0.63241 0.12224 0.0
C222 C 0.70274 0.63765 0.13895 0.0
C223 C 0.62697 0.64816 0.14439 0.0
H224 H 0.71071 0.64222 0.16127 0.0
C225 C 0.57715 0.63457 0.13586 0.0
C226 C 0.55072 0.65079 0.15252 0.0
C227 C 0.64783 0.67735 0.16983 0.0
H228 H 0.68494 0.6905 0.17725 0.0
C229 C 0.62242 0.69215 0.18609 0.0
H230 H 0.55922 0.61212 0.1165 0.0
C231 C 0.57519 0.67929 0.1777 0.0
H232 H 0.55742 0.69147 0.19159 0.0
H233 H 0.63991 0.71449 0.20558 0.0
H234 H 0.32214 0.69397 0.16622 0.0
H235 H 0.22762 0.54197 0.13829 0.0
H236 H 0.29823 0.53357 0.13152 0.0
H237 H 0.41473 0.71602 0.11918 0.0
H238 H 0.46428 0.75643 0.14459 0.0
H239 H 0.40626 0.75103 0.14641 0.0
H240 H 0.40588 0.72961 0.19696 0.0
H241 H 0.46392 0.73512 0.19512 0.0
H242 H 0.41421 0.68001 0.20431 0.0
H243 H 0.38299 0.5414 0.12733 0.0
H244 H 0.46884 0.56365 0.13017 0.0
H245 H 0.51011 0.70986 0.16134 0.0
C246 C 0.31603 0.65883 0.15865 0.0
C247 C 0.26774 0.61864 0.15288 0.0
C248 C 0.26306 0.57365 0.14307 0.0
C249 C 0.30352 0.56844 0.13901 0.0
C250 C 0.35016 0.60841 0.14483 0.0
C251 C 0.35657 0.65282 0.15466 0.0
C252 C 0.41072 0.68977 0.16009 0.0
C253 C 0.42482 0.73075 0.14147 0.0
C254 C 0.42449 0.70982 0.19095 0.0
C255 C 0.43364 0.65939 0.15202 0.0
C256 C 0.39809 0.61256 0.14297 0.0
C257 C 0.41078 0.57814 0.13446 0.0
C258 C 0.4602 0.59126 0.13587 0.0
C259 C 0.49788 0.63863 0.14599 0.0
C260 C 0.48329 0.67303 0.15364 0.0
H261 H 0.79452 0.32906 0.49402 0.0
H262 H 0.85377 0.23483 0.48641 0.0
H263 H 0.93255 0.30438 0.47945 0.0
H264 H 0.86543 0.41191 0.44344 0.0
H265 H 0.87281 0.46439 0.46395 0.0
H266 H 0.82098 0.40581 0.46612 0.0
H267 H 0.84279 0.41882 0.51949 0.0
H268 H 0.8961 0.47606 0.51689 0.0
H269 H 0.90089 0.42969 0.53311 0.0
H270 H 1.00829 0.38713 0.47223 0.0
H271 H 1.07206 0.47286 0.47174 0.0
H272 H 0.9676 0.51621 0.48675 0.0
C273 C 0.82397 0.32287 0.49089 0.0
C274 C 0.81656 0.27506 0.49087 0.0
C275 C 0.8572 0.27006 0.48675 0.0
C276 C 0.90265 0.30981 0.48258 0.0
C277 C 0.90871 0.35601 0.48274 0.0
C278 C 0.87048 0.36283 0.48716 0.0
C279 C 0.8875 0.41682 0.48769 0.0
C280 C 0.86007 0.42529 0.46388 0.0
C281 C 0.88144 0.4365 0.51598 0.0
C282 C 0.94096 0.43917 0.48314 0.0
C283 C 0.95231 0.40331 0.47978 0.0
C284 C 0.99936 0.41521 0.47494 0.0
C285 C 1.03567 0.46442 0.47434 0.0
C286 C 1.02597 0.50254 0.47891 0.0
C287 C 0.97712 0.48872 0.48297 0.0
H288 H 0.60029 0.73837 0.83002 0.0
H289 H 0.74822 0.79471 0.81264 0.0
H290 H 0.75596 0.87376 0.80659 0.0
H291 H 0.57083 0.80369 0.78129 0.0
H292 H 0.53451 0.8153 0.80388 0.0
H293 H 0.54002 0.76273 0.8065 0.0
H294 H 0.56951 0.7891 0.85858 0.0
H295 H 0.56396 0.84168 0.85626 0.0
H296 H 0.62056 0.84842 0.86938 0.0
H297 H 0.74747 0.95042 0.80179 0.0
H298 H 0.72529 1.01395 0.80265 0.0
H299 H 0.58335 0.90949 0.82321 0.0
C300 C 0.63443 0.76721 0.82492 0.0
C301 C 0.67367 0.75893 0.82185 0.0
C302 C 0.71738 0.79882 0.81527 0.0
C303 C 0.72215 0.8444 0.81166 0.0
C304 C 0.68303 0.85122 0.81471 0.0
C305 C 0.63998 0.81357 0.82142 0.0
C306 C 0.60375 0.83075 0.82421 0.0
C307 C 0.55967 0.80136 0.80268 0.0
C308 C 0.58856 0.82728 0.85387 0.0
C309 C 0.63291 0.88365 0.81807 0.0
C310 C 0.67854 0.89479 0.81243 0.0
C311 C 0.71168 0.9416 0.80625 0.0
C312 C 0.69858 0.97782 0.8065 0.0
C313 C 0.6525 0.96824 0.81308 0.0
C314 C 0.61926 0.91948 0.81838 0.0
H315 H 0.9583 0.57597 0.12905 0.0
H316 H 1.04069 0.70805 0.18477 0.0
H317 H 0.97042 0.71902 0.18359 0.0
H318 H 0.89094 0.61613 0.08579 0.0
H319 H 0.83688 0.55757 0.08223 0.0
H320 H 0.89497 0.56283 0.08829 0.0
H321 H 0.86239 0.51401 0.13122 0.0
H322 H 0.80641 0.51389 0.12622 0.0
H323 H 0.84354 0.53881 0.15874 0.0
H324 H 0.88732 0.71541 0.17696 0.0
H325 H 0.80609 0.70125 0.16223 0.0
H326 H 0.77659 0.57476 0.10839 0.0
C327 C 0.96173 0.60722 0.14112 0.0
C328 C 1.00651 0.64103 0.15718 0.0
C329 C 1.00796 0.68127 0.17228 0.0
C330 C 0.96765 0.68789 0.17178 0.0
C331 C 0.92455 0.65432 0.15585 0.0
C332 C 0.92146 0.61486 0.14059 0.0
C333 C 0.87082 0.58448 0.12495 0.0
C334 C 0.87351 0.57991 0.09344 0.0
C335 C 0.84422 0.53477 0.13584 0.0
C336 C 0.8467 0.61378 0.13271 0.0
C337 C 0.87795 0.65331 0.15126 0.0
C338 C 0.86306 0.68455 0.16228 0.0
C339 C 0.81619 0.67598 0.1539 0.0
C340 C 0.78356 0.63682 0.13402 0.0
C341 C 0.79984 0.60527 0.12354 0.0
H342 H 0.498 1.01493 0.45836 0.0
H343 H 0.57029 0.9767 0.52111 0.0
H344 H 0.49732 0.89656 0.52001 0.0
H345 H 0.37754 0.9502 0.48191 0.0
H346 H 0.34642 0.92975 0.44737 0.0
H347 H 0.40374 0.9851 0.45352 0.0
H348 H 0.43732 0.95281 0.41602 0.0
H349 H 0.38006 0.89744 0.40972 0.0
H350 H 0.43403 0.89568 0.41864 0.0
H351 H 0.41286 0.81743 0.51267 0.0
H352 H 0.33101 0.74855 0.49711 0.0
H353 H 0.3122 0.83411 0.43765 0.0
C354 C 0.49853 0.98995 0.47207 0.0
C355 C 0.54118 1.00375 0.49011 0.0
C356 C 0.53916 0.96848 0.50715 0.0
C357 C 0.49731 0.92227 0.50672 0.0
C358 C 0.45626 0.90996 0.48889 0.0
C359 C 0.4567 0.94276 0.47163 0.0
C360 C 0.40815 0.91946 0.45364 0.0
C361 C 0.38245 0.94783 0.45946 0.0
C362 C 0.41533 0.91616 0.42266 0.0
C363 C 0.38047 0.86888 0.46347 0.0
C364 C 0.40877 0.86429 0.48405 0.0
C365 C 0.39076 0.82108 0.4965 0.0
C366 C 0.34356 0.78178 0.48761 0.0
C367 C 0.31369 0.78443 0.46595 0.0
C368 C 0.33323 0.82954 0.45406 0.0
H369 H 0.69828 0.48523 0.79055 0.0
H370 H 0.59985 0.44872 0.85401 0.0
H371 H 0.59182 0.36812 0.85299 0.0
H372 H 0.63364 0.3648 0.75115 0.0
H373 H 0.68749 0.36649 0.74153 0.0
H374 H 0.68673 0.42185 0.74776 0.0
H375 H 0.76023 0.45492 0.78417 0.0
H376 H 0.7613 0.39964 0.77847 0.0
H377 H 0.75729 0.42102 0.81293 0.0
H378 H 0.59533 0.28837 0.84537 0.0
H379 H 0.60536 0.21957 0.82989 0.0
H380 H 0.69977 0.30505 0.77026 0.0
C381 C 0.67504 0.46043 0.80433 0.0
C382 C 0.64989 0.47474 0.82259 0.0
C383 C 0.61967 0.43988 0.83982 0.0
C384 C 0.61492 0.3935 0.83941 0.0
C385 C 0.63997 0.38066 0.82129 0.0
C386 C 0.66905 0.4131 0.80377 0.0
C387 C 0.69058 0.38948 0.78549 0.0
C388 C 0.6736 0.38542 0.75465 0.0
C389 C 0.74568 0.41799 0.79054 0.0
C390 C 0.66992 0.33927 0.7957 0.0
C391 C 0.64087 0.33493 0.81645 0.0
C392 C 0.61808 0.2919 0.82907 0.0
C393 C 0.6244 0.25259 0.8202 0.0
C394 C 0.65329 0.25507 0.79854 0.0
C395 C 0.67662 0.30012 0.78651 0.0
H396 H 0.59824 0.86067 0.5137 0.0
H397 H 0.68464 0.86677 0.44706 0.0
H398 H 0.63136 0.77912 0.4342 0.0
H399 H 0.58575 0.75828 0.53685 0.0
H400 H 0.52496 0.7343 0.54567 0.0
H401 H 0.56331 0.79819 0.54537 0.0
H402 H 0.4996 0.79889 0.51059 0.0
H403 H 0.46138 0.73449 0.51049 0.0
H404 H 0.47917 0.76019 0.47826 0.0
H405 H 0.57914 0.6908 0.43394 0.0
H406 H 0.53764 0.60905 0.44911 0.0
H407 H 0.48441 0.6592 0.51566 0.0
C408 C 0.60561 0.84363 0.49619 0.0
C409 C 0.6456 0.87046 0.4814 0.0
C410 C 0.65388 0.84699 0.45849 0.0
C411 C 0.62363 0.79727 0.45094 0.0
C412 C 0.58489 0.7717 0.46625 0.0
C413 C 0.5758 0.79414 0.48841 0.0
C414 C 0.53605 0.75784 0.50383 0.0
C415 C 0.5536 0.76241 0.53473 0.0
C416 C 0.49141 0.76318 0.50059 0.0
C417 C 0.5267 0.7112 0.48821 0.0
C418 C 0.55406 0.72002 0.46598 0.0
C419 C 0.55651 0.68325 0.45074 0.0
C420 C 0.53272 0.63692 0.45939 0.0
C421 C 0.50724 0.62801 0.48316 0.0
C422 C 0.50216 0.66492 0.49681 0.0
H423 H 0.83123 0.51613 0.84329 0.0
H424 H 0.89044 0.54622 0.76423 0.0
H425 H 0.91362 0.48464 0.76799 0.0
H426 H 0.91902 0.52112 0.87797 0.0
H427 H 0.8875 0.47266 0.89918 0.0
H428 H 0.85771 0.50111 0.88453 0.0
H429 H 0.78967 0.41747 0.86183 0.0
H430 H 0.82089 0.38884 0.87557 0.0
H431 H 0.80337 0.38085 0.83877 0.0
H432 H 0.95294 0.44328 0.78615 0.0
H433 H 1.01428 0.44368 0.81854 0.0
H434 H 0.93274 0.4398 0.887 0.0
C435 C 0.84819 0.50886 0.82652 0.0
C436 C 0.85972 0.53632 0.80373 0.0
C437 C 0.88093 0.52535 0.78184 0.0
C438 C 0.89375 0.48995 0.7837 0.0
C439 C 0.88454 0.46534 0.80738 0.0
C440 C 0.8616 0.47409 0.82833 0.0
C441 C 0.86547 0.452 0.85422 0.0
C442 C 0.88363 0.48897 0.88044 0.0
C443 C 0.81697 0.40712 0.85778 0.0
C444 C 0.90165 0.43764 0.84642 0.0
C445 C 0.90887 0.44157 0.81852 0.0
C446 C 0.94692 0.43922 0.8078 0.0
C447 C 0.98178 0.4394 0.8264 0.0
C448 C 0.97911 0.44396 0.85537 0.0
C449 C 0.93576 0.43662 0.86496 0.0
H450 H 0.44797 0.87657 0.20249 0.0
H451 H 0.4176 0.89052 0.11658 0.0
H452 H 0.50056 0.95881 0.11691 0.0
H453 H 0.49695 0.98804 0.22457 0.0
H454 H 0.54296 0.99336 0.24984 0.0
H455 H 0.49024 0.9358 0.24 0.0
H456 H 0.54293 0.89989 0.22582 0.0
H457 H 0.59634 0.95794 0.23581 0.0
H458 H 0.58636 0.92793 0.20132 0.0
H459 H 0.57591 1.03681 0.12996 0.0
H460 H 0.63279 0.11715 0.15459 0.0
H461 H 0.61095 1.05402 0.2327 0.0
C462 C 0.45977 0.8922 0.1833 0.0
C463 C 0.42677 0.87828 0.15951 0.0
C464 C 0.4426 0.90074 0.13503 0.0
C465 C 0.48979 0.93927 0.13498 0.0
C466 C 0.5207 0.95457 0.1595 0.0
C467 C 0.5064 0.93115 0.18317 0.0
C468 C 0.54155 0.96018 0.20837 0.0
C469 C 0.51642 0.96995 0.23201 0.0
C470 C 0.5684 0.93498 0.21841 0.0
C471 C 0.57491 1.00572 0.19585 0.0
C472 C 0.56391 1.00104 0.16742 0.0
C473 C 0.58561 1.04053 0.1521 0.0
C474 C 0.61749 0.08622 0.16634 0.0
C475 C 0.62627 0.09224 0.19571 0.0
C476 C 0.60642 1.0509 0.21025 0.0
H477 H 0.74801 0.40363 0.47721 0.0
H478 H 0.68335 0.40933 0.39838 0.0
H479 H 0.70321 0.49242 0.4133 0.0
H480 H 0.69101 0.43167 0.51302 0.0
H481 H 0.73417 0.46889 0.54218 0.0
H482 H 0.74335 0.42679 0.52183 0.0
H483 H 0.82684 0.49472 0.51182 0.0
H484 H 0.81846 0.53762 0.53293 0.0
H485 H 0.83306 0.54769 0.49771 0.0
H486 H 0.70176 0.55752 0.44067 0.0
H487 H 0.67011 0.58883 0.47603 0.0
H488 H 0.72251 0.53311 0.53968 0.0
C489 C 0.74189 0.42429 0.46246 0.0
C490 C 0.71571 0.40125 0.4365 0.0
C491 C 0.70482 0.42726 0.41803 0.0
C492 C 0.71606 0.47454 0.42647 0.0
C493 C 0.73726 0.4947 0.4536 0.0
C494 C 0.75068 0.47036 0.47131 0.0
C495 C 0.75849 0.49141 0.50133 0.0
C496 C 0.72995 0.45237 0.52063 0.0
C497 C 0.81242 0.51957 0.51154 0.0
C498 C 0.73959 0.52551 0.49823 0.0
C499 C 0.73162 0.53007 0.47051 0.0
C500 C 0.70845 0.55461 0.46239 0.0
C501 C 0.68971 0.57151 0.48267 0.0
C502 C 0.6921 0.56177 0.51063 0.0
C503 C 0.72029 0.54153 0.51862 0.0
H504 H 0.43492 0.69898 0.83428 0.0
H505 H 0.46879 0.695 0.92127 0.0
H506 H 0.41364 0.72358 0.93385 0.0
H507 H 0.4051 0.80323 0.84505 0.0
H508 H 0.35756 0.77288 0.81697 0.0
H509 H 0.41221 0.77084 0.81571 0.0
H510 H 0.36172 0.67745 0.80859 0.0
H511 H 0.30741 0.67903 0.81024 0.0
H512 H 0.32124 0.64562 0.83382 0.0
H513 H 0.33806 0.72358 0.93562 0.0
H514 H 0.25288 0.70077 0.9266 0.0
H515 H 0.26772 0.70768 0.83862 0.0
C516 C 0.43245 0.70682 0.85599 0.0
C517 C 0.45577 0.6952 0.87687 0.0
C518 C 0.45152 0.70452 0.90511 0.0
C519 C 0.42031 0.72078 0.91237 0.0
C520 C 0.39463 0.7284 0.89112 0.0
C521 C 0.40144 0.72301 0.86344 0.0
C522 C 0.36357 0.72437 0.84432 0.0
C523 C 0.38595 0.7706 0.82965 0.0
C524 C 0.33693 0.67891 0.82306 0.0
C525 C 0.33123 0.72561 0.86532 0.0
C526 C 0.35057 0.72964 0.89229 0.0
C527 C 0.32342 0.72253 0.91478 0.0
C528 C 0.27504 0.7093 0.9095 0.0
C529 C 0.25447 0.70343 0.88199 0.0
C530 C 0.28344 0.7138 0.85989 0.0
H531 H 0.83189 0.33039 0.08367 0.0
H532 H 0.8674 0.47915 0.08542 0.0
H533 H 0.78286 0.45422 0.08892 0.0
H534 H 0.69319 0.27501 0.0528 0.0
H535 H 0.67685 0.226 0.07388 0.0
H536 H 0.73235 0.25085 0.05786 0.0
H537 H 0.77889 0.26539 0.10605 0.0
H538 H 0.72433 0.24168 0.1222 0.0
H539 H 0.77339 0.30173 0.13392 0.0
H540 H 0.71427 0.42361 0.11638 0.0
H541 H 0.66196 0.38565 0.15284 0.0
H542 H 0.65872 0.25198 0.12888 0.0
C543 C 0.82125 0.35731 0.08361 0.0
C544 C 0.85644 0.40681 0.08523 0.0
C545 C 0.84138 0.44107 0.0845 0.0
C546 C 0.79324 0.42721 0.08667 0.0
C547 C 0.76045 0.3789 0.08909 0.0
C548 C 0.77317 0.34383 0.086 0.0
C549 C 0.73397 0.29612 0.09403 0.0
C550 C 0.70751 0.25986 0.06809 0.0
C551 C 0.75387 0.27514 0.11533 0.0
C552 C 0.70171 0.31211 0.1066 0.0
C553 C 0.71662 0.35961 0.10276 0.0
C554 C 0.70038 0.38569 0.1183 0.0
C555 C 0.6705 0.36374 0.13914 0.0
C556 C 0.65671 0.31591 0.14414 0.0
C557 C 0.66939 0.28892 0.12598 0.0
H558 H 0.15957 0.59184 0.07921 0.0
H559 H 1.05145 0.63309 0.08423 0.0
H560 H 1.01091 0.58571 0.03866 0.0
H561 H 0.17387 0.61108 0.01 0.0
H562 H 0.1854 0.56281 0.00135 0.0
H563 H 0.19936 0.59116 0.03643 0.0
H564 H 0.14592 0.50752 0.05374 0.0
H565 H 0.13113 0.47896 0.01851 0.0
H566 H 1.08386 0.47076 0.03956 0.0
H567 H 0.98575 0.53891 -0.0082 0.0
H568 H 0.98701 0.5117 0.94319 0.0
H569 H 0.11703 0.50929 0.96653 0.0
C570 C 0.12683 0.59 0.07081 0.0
C571 C 1.10796 0.61523 0.08501 0.0
C572 C 1.06612 0.61372 0.07338 0.0
C573 C 1.04264 0.58645 0.0478 0.0
C574 C 1.0622 0.56188 0.03412 0.0
C575 C 1.10402 0.56439 0.04494 0.0
C576 C 0.12224 0.54185 0.02419 0.0
C577 C 0.1732 0.57894 0.0176 0.0
C578 C 0.12068 0.4971 0.03462 0.0
C579 C 1.08519 0.52788 -0.00043 0.0
C580 C 1.04971 0.53782 0.00616 0.0
C581 C 1.01294 0.53044 0.98646 0.0
C582 C 1.01374 0.51471 0.95901 0.0
C583 C 1.05172 0.50785 0.95152 0.0
C584 C 1.08709 0.51321 0.9721 0.0
H585 H 0.62925 0.14554 0.4129 0.0
H586 H 0.73124 0.09566 0.41573 0.0
H587 H 0.75309 0.12196 0.3692 0.0
H588 H 0.58736 0.10566 0.34039 0.0
H589 H 0.5793 0.15603 0.3348 0.0
H590 H 0.57384 0.1348 0.36858 0.0
H591 H 0.63786 0.22101 0.38962 0.0
H592 H 0.64583 0.2426 0.35586 0.0
H593 H 0.6968 0.25005 0.37756 0.0
H594 H 0.7651 0.15528 0.32336 0.0
H595 H 0.75461 0.17733 0.27675 0.0
H596 H 0.64168 0.20181 0.30273 0.0
C597 C 0.65594 0.13999 0.40361 0.0
C598 C 0.67856 0.11859 0.41766 0.0
C599 C 0.71309 0.1114 0.40494 0.0
C600 C 0.7262 0.12688 0.37879 0.0
C601 C 0.70413 0.14909 0.36573 0.0
C602 C 0.66885 0.15452 0.37736 0.0
C603 C 0.64809 0.17611 0.35804 0.0
C604 C 0.59395 0.14105 0.34996 0.0
C605 C 0.65777 0.22538 0.37106 0.0
C606 C 0.67693 0.18155 0.33356 0.0
C607 C 0.70983 0.16681 0.33876 0.0
C608 C 0.73943 0.1668 0.319 0.0
C609 C 0.73334 0.17954 0.29265 0.0
C610 C 0.69728 0.19112 0.28617 0.0
C611 C 0.67014 0.19403 0.30726 0.0
H612 H 0.58693 0.51861 0.73403 0.0
H613 H 0.70494 0.66514 0.75694 0.0
H614 H 0.72435 0.67156 0.70854 0.0
H615 H 0.64067 0.48423 0.67813 0.0
H616 H 0.58467 0.45196 0.65603 0.0
H617 H 0.58441 0.45564 0.69329 0.0
H618 H 0.52865 0.49169 0.68979 0.0
H619 H 0.52874 0.48812 0.65259 0.0
H620 H 0.54696 0.54507 0.6723 0.0
H621 H 0.72869 0.66437 0.65762 0.0
H622 H 0.71221 0.64673 0.60644 0.0
H623 H 0.58715 0.50803 0.61547 0.0
C624 C 0.61741 0.55159 0.72886 0.0
C625 C 0.6457 0.59067 0.7494 0.0
C626 C 0.68422 0.63395 0.74179 0.0
C627 C 0.69534 0.63811 0.71428 0.0
C628 C 0.66693 0.59898 0.69449 0.0
C629 C 0.62835 0.55675 0.70128 0.0
C630 C 0.60047 0.52229 0.6755 0.0
C631 C 0.60271 0.47578 0.67576 0.0
C632 C 0.54812 0.51117 0.67237 0.0
C633 C 0.62877 0.55228 0.65322 0.0
C634 C 0.66762 0.59592 0.66469 0.0
C635 C 0.69856 0.63021 0.64833 0.0
C636 C 0.68906 0.61992 0.61938 0.0
C637 C 0.64853 0.57616 0.60726 0.0
C638 C 0.61836 0.54176 0.62438 0.0
H639 H 0.60257 0.15338 0.58308 0.0
H640 H 0.73016 0.14499 0.57106 0.0
H641 H 0.74415 0.14479 0.62175 0.0
H642 H 0.65395 0.23651 0.64526 0.0
H643 H 0.59871 0.21063 0.66148 0.0
H644 H 0.59688 0.20672 0.62415 0.0
H645 H 0.54304 0.11367 0.62114 0.0
H646 H 0.54467 0.1173 0.65847 0.0
H647 H 0.56324 0.07983 0.64024 0.0
H648 H 0.74341 0.14435 0.6742 0.0
H649 H 0.73187 0.15042 0.7241 0.0
H650 H 0.60868 0.16587 0.70251 0.0
C651 C 0.63321 0.15105 0.5911 0.0
C652 C 0.66481 0.14823 0.57298 0.0
C653 C 0.70502 0.14628 0.58441 0.0
C654 C 0.71331 0.1463 0.61323 0.0
C655 C 0.68154 0.14916 0.63054 0.0
C656 C 0.64259 0.15209 0.61992 0.0
C657 C 0.61538 0.15748 0.64313 0.0
C658 C 0.6163 0.2057 0.64352 0.0
C659 C 0.56351 0.11451 0.64059 0.0
C660 C 0.64496 0.15698 0.66847 0.0
C661 C 0.68262 0.15154 0.66073 0.0
C662 C 0.71419 0.14891 0.68045 0.0
C663 C 0.70731 0.15224 0.70874 0.0
C664 C 0.66963 0.15891 0.71722 0.0
C665 C 0.63812 0.16128 0.69669 0.0
H666 H 0.71504 0.58329 0.91828 0.0
H667 H 0.6451 0.66487 0.90077 0.0
H668 H 0.63459 0.67281 0.95043 0.0
H669 H 0.63908 0.5183 0.97221 0.0
H670 H 0.68773 0.52024 -0.00652 0.0
H671 H 0.68878 0.51963 0.95632 0.0
H672 H 0.77212 0.59809 0.96312 0.0
H673 H 0.77121 0.59904 0.00028 0.0
H674 H 0.77936 0.65058 0.98351 0.0
H675 H 0.6368 0.6773 0.00219 0.0
H676 H 0.64666 0.67405 0.05233 0.0
H677 H 0.70992 0.58417 0.03764 0.0
C678 C 0.69722 0.60248 0.92495 0.0
C679 C 0.68049 0.62319 0.9055 0.0
C680 C 0.65748 0.64811 0.9151 0.0
C681 C 0.65163 0.65306 0.94336 0.0
C682 C 0.66864 0.63257 0.96201 0.0
C683 C 0.69056 0.60734 0.95327 0.0
C684 C 0.70548 0.58897 0.9779 0.0
C685 C 0.67866 0.53348 0.97478 0.0
C686 C 0.7603 0.61046 0.9814 0.0
C687 C 0.68916 0.60845 0.00179 0.0
C688 C 0.6682 0.63361 -0.00796 0.0
C689 C 0.65224 0.65681 0.01002 0.0
C690 C 0.65758 0.65419 0.03868 0.0
C691 C 0.67808 0.62784 0.04955 0.0
C692 C 0.69404 0.60467 0.03048 0.0
H693 H 0.1534 0.5733 0.25358 0.0
H694 H 0.14782 0.6986 0.23104 0.0
H695 H 0.16465 0.73107 0.28054 0.0
H696 H 1.09336 0.56118 0.31606 0.0
H697 H 0.12904 0.54216 0.33541 0.0
H698 H 0.11821 0.52929 0.29811 0.0
H699 H 0.20999 0.57243 0.29458 0.0
H700 H 0.22111 0.58531 0.33186 0.0
H701 H 0.24798 0.63379 0.3102 0.0
H702 H 0.18434 0.75125 0.3324 0.0
H703 H 0.20169 0.75593 0.38322 0.0
H704 H 0.18932 0.61535 0.37332 0.0
C705 C 0.15595 0.60768 0.25909 0.0
C706 C 0.15 0.63381 0.23833 0.0
C707 C 0.15293 0.67829 0.24646 0.0
C708 C 0.16231 0.69695 0.27458 0.0
C709 C 0.168 0.6704 0.29452 0.0
C710 C 0.16455 0.62651 0.28722 0.0
C711 C 0.1709 0.60474 0.31293 0.0
C712 C 0.12515 0.55648 0.31579 0.0
C713 C 0.21513 0.59873 0.31235 0.0
C714 C 0.17884 0.64341 0.33578 0.0
C715 C 0.17733 0.6811 0.32462 0.0
C716 C 0.18524 0.72178 0.34136 0.0
C717 C 0.19513 0.72417 0.37019 0.0
C718 C 0.19653 0.68594 0.38222 0.0
C719 C 0.18787 0.64484 0.36472 0.0
loop_
_geom_bond_atom_site_label_1
_geom_bond_atom_site_label_2
_geom_bond_distance
_geom_bond_site_symmetry_2
_ccdc_geom_bond_type
Tb0 C2 2.809 . S
Tb0 O20 2.484 . S
Tb0 O21 2.440 . S
Tb0 O22 2.658 . S
Tb0 O23 2.409 . S
Tb0 O24 2.378 . S
Tb0 O28 2.325 . S
Tb0 O31 2.341 1_455 S
Tb1 C11 2.809 . S
Tb1 O22 2.325 1_655 S
Tb1 O25 2.341 1_655 S
Tb1 O26 2.484 . S
Tb1 O27 2.440 . S
Tb1 O28 2.658 1_655 S
Tb1 O29 2.409 1_655 S
Tb1 O30 2.378 . S
C2 Tb0 2.809 . S
C2 C3 1.514 . S
C2 O20 1.248 . S
C2 O21 1.266 . S
C3 C2 1.514 . S
C3 C4 1.359 . S
C3 C8 1.348 . S
C4 C3 1.359 . S
C4 C5 1.380 . S
C4 H32 0.929 . S
C5 C4 1.380 . S
C5 C6 1.347 . S
C5 H33 0.931 . S
C6 C5 1.347 . S
C6 C7 1.369 . S
C7 C6 1.369 . S
C7 C8 1.408 . S
C7 H34 0.930 . S
C8 C3 1.348 . S
C8 C7 1.408 . S
C8 H35 0.930 . S
C9 O22 1.281 . S
C9 O23 1.254 . S
C10 O24 1.236 . S
C10 O25 1.266 . S
C11 Tb1 2.809 . S
C11 C12 1.514 . S
C11 O26 1.248 . S
C11 O27 1.266 . S
C12 C11 1.514 . S
C12 C13 1.359 . S
C12 C17 1.348 . S
C13 C12 1.359 . S
C13 C14 1.380 . S
C13 H36 0.929 . S
C14 C13 1.380 . S
C14 C15 1.347 . S
C14 H37 0.931 . S
C15 C14 1.347 . S
C15 C16 1.369 . S
C16 C15 1.369 . S
C16 C17 1.408 . S
C16 H38 0.930 . S
C17 C12 1.348 . S
C17 C16 1.408 . S
C17 H39 0.930 . S
C18 O28 1.281 . S
C18 O29 1.254 . S
C19 O30 1.236 . S
C19 O31 1.266 . S
O20 Tb0 2.484 . S
O20 C2 1.248 . S
O21 Tb0 2.440 . S
O21 C2 1.266 . S
O22 Tb0 2.658 . S
O22 Tb1 2.325 1_455 S
O22 C9 1.281 . S
O23 Tb0 2.409 . S
O23 C9 1.254 . S
O24 Tb0 2.378 . S
O24 C10 1.236 . S
O25 Tb1 2.341 1_455 S
O25 C10 1.266 . S
O26 Tb1 2.484 . S
O26 C11 1.248 . S
O27 Tb1 2.440 . S
O27 C11 1.266 . S
O28 Tb0 2.325 . S
O28 Tb1 2.658 1_455 S
O28 C18 1.281 . S
O29 Tb1 2.409 1_455 S
O29 C18 1.254 . S
O30 Tb1 2.378 . S
O30 C19 1.236 . S
O31 Tb0 2.341 1_655 S
O31 C19 1.266 . S
H32 C4 0.929 . S
H33 C5 0.931 . S
H34 C7 0.930 . S
H35 C8 0.930 . S
H36 C13 0.929 . S
H37 C14 0.931 . S
H38 C16 0.930 . S
H39 C17 0.930 . S
Tb40 C42 2.809 1_545 S
Tb40 O60 2.484 1_545 S
Tb40 O61 2.440 1_545 S
Tb40 O62 2.658 . S
Tb40 O63 2.409 . S
Tb40 O64 2.378 1_545 S
Tb40 O68 2.325 . S
Tb40 O71 2.341 . S
Tb41 C51 2.809 . S
Tb41 O62 2.325 . S
Tb41 O65 2.341 . S
Tb41 O66 2.484 . S
Tb41 O67 2.440 . S
Tb41 O68 2.658 . S
Tb41 O69 2.409 . S
Tb41 O70 2.378 . S
C42 Tb40 2.809 1_565 S
C42 C43 1.514 . S
C42 O60 1.248 . S
C42 O61 1.266 . S
C43 C42 1.514 . S
C43 C44 1.359 . S
C43 C48 1.348 . S
C44 C43 1.359 . S
C44 C45 1.380 . S
C44 H72 0.929 . S
C45 C44 1.380 . S
C45 C46 1.347 . S
C45 H73 0.931 . S
C46 C45 1.347 . S
C46 C47 1.369 . S
C47 C46 1.369 . S
C47 C48 1.408 . S
C47 H74 0.930 . S
C48 C43 1.348 . S
C48 C47 1.408 . S
C48 H75 0.930 . S
C49 O62 1.281 . S
C49 O63 1.254 . S
C50 O64 1.236 . S
C50 O65 1.266 1_565 S
C51 Tb41 2.809 . S
C51 C52 1.514 . S
C51 O66 1.248 . S
C51 O67 1.266 . S
C52 C51 1.514 . S
C52 C53 1.359 . S
C52 C57 1.348 . S
C53 C52 1.359 . S
C53 C54 1.380 . S
C53 H76 0.929 . S
C54 C53 1.380 . S
C54 C55 1.347 . S
C54 H77 0.931 . S
C55 C54 1.347 . S
C55 C56 1.369 . S
C56 C55 1.369 . S
C56 C57 1.408 . S
C56 H78 0.930 . S
C57 C52 1.348 . S
C57 C56 1.408 . S
C57 H79 0.930 . S
C58 O68 1.281 . S
C58 O69 1.254 . S
C59 O70 1.236 . S
C59 O71 1.266 . S
O60 Tb40 2.484 1_565 S
O60 C42 1.248 . S
O61 Tb40 2.440 1_565 S
O61 C42 1.266 . S
O62 Tb40 2.658 . S
O62 Tb41 2.325 . S
O62 C49 1.281 . S
O63 Tb40 2.409 . S
O63 C49 1.254 . S
O64 Tb40 2.378 1_565 S
O64 C50 1.236 . S
O65 Tb41 2.341 . S
O65 C50 1.266 1_545 S
O66 Tb41 2.484 . S
O66 C51 1.248 . S
O67 Tb41 2.440 . S
O67 C51 1.266 . S
O68 Tb40 2.325 . S
O68 Tb41 2.658 . S
O68 C58 1.281 . S
O69 Tb41 2.409 . S
O69 C58 1.254 . S
O70 Tb41 2.378 . S
O70 C59 1.236 . S
O71 Tb40 2.341 . S
O71 C59 1.266 . S
H72 C44 0.929 . S
H73 C45 0.931 . S
H74 C47 0.930 . S
H75 C48 0.930 . S
H76 C53 0.929 . S
H77 C54 0.931 . S
H78 C56 0.930 . S
H79 C57 0.930 . S
Tb80 C82 2.809 . S
Tb80 O100 2.484 . S
Tb80 O101 2.440 . S
Tb80 O102 2.658 . S
Tb80 O103 2.409 . S
Tb80 O104 2.378 . S
Tb80 O108 2.325 . S
Tb80 O111 2.341 . S
Tb81 C91 2.809 . S
Tb81 O102 2.325 . S
Tb81 O105 2.341 . S
Tb81 O106 2.484 . S
Tb81 O107 2.440 . S
Tb81 O108 2.658 . S
Tb81 O109 2.409 . S
Tb81 O110 2.378 . S
C82 Tb80 2.809 . S
C82 C83 1.514 . S
C82 O100 1.248 . S
C82 O101 1.266 . S
C83 C82 1.514 . S
C83 C84 1.359 . S
C83 C88 1.348 . S
C84 C83 1.359 . S
C84 C85 1.380 . S
C84 H112 0.929 . S
C85 C84 1.380 . S
C85 C86 1.347 . S
C85 H113 0.931 . S
C86 C85 1.347 . S
C86 C87 1.369 . S
C87 C86 1.369 . S
C87 C88 1.408 . S
C87 H114 0.930 . S
C88 C83 1.348 . S
C88 C87 1.408 . S
C88 H115 0.930 . S
C89 O102 1.281 . S
C89 O103 1.254 . S
C90 O104 1.236 . S
C90 O105 1.266 . S
C91 Tb81 2.809 . S
C91 C92 1.514 . S
C91 O106 1.248 . S
C91 O107 1.266 . S
C92 C91 1.514 . S
C92 C93 1.359 . S
C92 C97 1.348 . S
C93 C92 1.359 . S
C93 C94 1.380 . S
C93 H116 0.929 . S
C94 C93 1.380 . S
C94 C95 1.347 . S
C94 H117 0.931 . S
C95 C94 1.347 . S
C95 C96 1.369 . S
C96 C95 1.369 . S
C96 C97 1.408 . S
C96 H118 0.930 . S
C97 C92 1.348 . S
C97 C96 1.408 . S
C97 H119 0.930 . S
C98 O108 1.281 . S
C98 O109 1.254 . S
C99 O110 1.236 . S
C99 O111 1.266 . S
O100 Tb80 2.484 . S
O100 C82 1.248 . S
O101 Tb80 2.440 . S
O101 C82 1.266 . S
O102 Tb80 2.658 . S
O102 Tb81 2.325 . S
O102 C89 1.281 . S
O103 Tb80 2.409 . S
O103 C89 1.254 . S
O104 Tb80 2.378 . S
O104 C90 1.236 . S
O105 Tb81 2.341 . S
O105 C90 1.266 . S
O106 Tb81 2.484 . S
O106 C91 1.248 . S
O107 Tb81 2.440 . S
O107 C91 1.266 . S
O108 Tb80 2.325 . S
O108 Tb81 2.658 . S
O108 C98 1.281 . S
O109 Tb81 2.409 . S
O109 C98 1.254 . S
O110 Tb81 2.378 . S
O110 C99 1.236 . S
O111 Tb80 2.341 . S
O111 C99 1.266 . S
H112 C84 0.929 . S
H113 C85 0.931 . S
H114 C87 0.930 . S
H115 C88 0.930 . S
H116 C93 0.929 . S
H117 C94 0.931 . S
H118 C96 0.930 . S
H119 C97 0.930 . S
H120 C121 0.949 . S
C121 H120 0.949 . S
C121 C122 1.395 . S
C121 C123 1.391 . S
C122 C121 1.395 . S
C122 C125 1.390 . S
C123 C121 1.391 . S
C123 C127 1.387 . S
C123 C128 1.491 . S
H124 C125 0.950 1_565 S
C125 C122 1.390 . S
C125 H124 0.950 1_545 S
C125 C126 1.378 . S
C126 C125 1.378 . S
C126 C127 1.409 . S
C127 C123 1.387 . S
C127 C126 1.409 . S
C127 H129 0.951 . S
C128 C123 1.491 . S
C128 C130 1.382 . S
C128 C132 1.404 . S
H129 C127 0.951 . S
C130 C128 1.382 . S
C130 C131 1.390 . S
C130 H135 0.949 . S
C131 C130 1.390 . S
C131 C136 1.399 . S
C132 C128 1.404 . S
C132 H133 0.950 . S
C132 C134 1.375 . S
H133 C132 0.950 . S
C134 C132 1.375 . S
C134 C136 1.382 . S
C134 H138 0.950 . S
H135 C130 0.949 . S
C136 C131 1.399 . S
C136 C134 1.382 . S
C136 H137 0.952 . S
H137 C136 0.952 . S
H138 C134 0.950 . S
H139 C140 0.949 . S
C140 H139 0.949 . S
C140 C141 1.395 . S
C140 C142 1.391 . S
C141 C140 1.395 . S
C141 C144 1.390 . S
C142 C140 1.391 . S
C142 C146 1.387 . S
C142 C147 1.491 . S
H143 C144 0.950 . S
C144 C141 1.390 . S
C144 H143 0.950 . S
C144 C145 1.378 . S
C145 C144 1.378 . S
C145 C146 1.409 . S
C146 C142 1.387 . S
C146 C145 1.409 . S
C146 H148 0.951 . S
C147 C142 1.491 . S
C147 C149 1.382 . S
C147 C151 1.404 . S
H148 C146 0.951 . S
C149 C147 1.382 . S
C149 C150 1.390 . S
C149 H154 0.949 . S
C150 C149 1.390 . S
C150 C155 1.399 . S
C151 C147 1.404 . S
C151 H152 0.950 . S
C151 C153 1.375 . S
H152 C151 0.950 . S
C153 C151 1.375 . S
C153 C155 1.382 . S
C153 H157 0.950 . S
H154 C149 0.949 . S
C155 C150 1.399 . S
C155 C153 1.382 . S
C155 H156 0.952 . S
H156 C155 0.952 . S
H157 C153 0.950 . S
H158 C159 0.949 . S
C159 H158 0.949 . S
C159 C160 1.395 . S
C159 C161 1.391 . S
C160 C159 1.395 . S
C160 C163 1.390 1_455 S
C161 C159 1.391 . S
C161 C165 1.387 1_455 S
C161 C166 1.491 . S
H162 C163 0.950 . S
C163 C160 1.390 1_655 S
C163 H162 0.950 . S
C163 C164 1.378 . S
C164 C163 1.378 . S
C164 C165 1.409 . S
C165 C161 1.387 1_655 S
C165 C164 1.409 . S
C165 H167 0.951 . S
C166 C161 1.491 . S
C166 C168 1.382 . S
C166 C170 1.404 . S
H167 C165 0.951 . S
C168 C166 1.382 . S
C168 C169 1.390 . S
C168 H173 0.949 . S
C169 C168 1.390 . S
C169 C174 1.399 . S
C170 C166 1.404 . S
C170 H171 0.950 . S
C170 C172 1.375 . S
H171 C170 0.950 . S
C172 C170 1.375 . S
C172 C174 1.382 . S
C172 H176 0.950 . S
H173 C168 0.949 . S
C174 C169 1.399 . S
C174 C172 1.382 . S
C174 H175 0.952 . S
H175 C174 0.952 . S
H176 C172 0.950 . S
H177 C178 0.949 1_655 S
C178 H177 0.949 1_455 S
C178 C179 1.395 . S
C178 C180 1.391 . S
C179 C178 1.395 . S
C179 C182 1.390 . S
C180 C178 1.391 . S
C180 C184 1.387 . S
C180 C185 1.491 1_455 S
H181 C182 0.950 . S
C182 C179 1.390 . S
C182 H181 0.950 . S
C182 C183 1.378 . S
C183 C182 1.378 . S
C183 C184 1.409 . S
C184 C180 1.387 . S
C184 C183 1.409 . S
C184 H186 0.951 . S
C185 C180 1.491 1_655 S
C185 C187 1.382 . S
C185 C189 1.404 . S
H186 C184 0.951 . S
C187 C185 1.382 . S
C187 C188 1.390 . S
C187 H192 0.949 . S
C188 C187 1.390 . S
C188 C193 1.399 . S
C189 C185 1.404 . S
C189 H190 0.950 . S
C189 C191 1.375 . S
H190 C189 0.950 . S
C191 C189 1.375 . S
C191 C193 1.382 . S
C191 H195 0.950 . S
H192 C187 0.949 . S
C193 C188 1.399 . S
C193 C191 1.382 . S
C193 H194 0.952 . S
H194 C193 0.952 . S
H195 C191 0.950 . S
H196 C197 0.949 1_565 S
C197 H196 0.949 1_545 S
C197 C198 1.395 . S
C197 C199 1.391 . S
C198 C197 1.395 . S
C198 C201 1.390 . S
C199 C197 1.391 . S
C199 C203 1.387 . S
C199 C204 1.491 1_545 S
H200 C201 0.950 . S
C201 C198 1.390 . S
C201 H200 0.950 . S
C201 C202 1.378 . S
C202 C201 1.378 . S
C202 C203 1.409 . S
C203 C199 1.387 . S
C203 C202 1.409 . S
C203 H205 0.951 . S
C204 C199 1.491 1_565 S
C204 C206 1.382 . S
C204 C208 1.404 . S
H205 C203 0.951 . S
C206 C204 1.382 . S
C206 C207 1.390 . S
C206 H211 0.949 . S
C207 C206 1.390 . S
C207 C212 1.399 . S
C208 C204 1.404 . S
C208 H209 0.950 . S
C208 C210 1.375 . S
H209 C208 0.950 . S
C210 C208 1.375 . S
C210 C212 1.382 . S
C210 H214 0.950 . S
H211 C206 0.949 . S
C212 C207 1.399 . S
C212 C210 1.382 . S
C212 H213 0.952 . S
H213 C212 0.952 . S
H214 C210 0.950 . S
H215 C216 0.949 . S
C216 H215 0.949 . S
C216 C217 1.395 . S
C216 C218 1.391 . S
C217 C216 1.395 . S
C217 C220 1.390 . S
C218 C216 1.391 . S
C218 C222 1.387 . S
C218 C223 1.491 . S
H219 C220 0.950 . S
C220 C217 1.390 . S
C220 H219 0.950 . S
C220 C221 1.378 . S
C221 C220 1.378 . S
C221 C222 1.409 . S
C222 C218 1.387 . S
C222 C221 1.409 . S
C222 H224 0.951 . S
C223 C218 1.491 . S
C223 C225 1.382 . S
C223 C227 1.404 . S
H224 C222 0.951 . S
C225 C223 1.382 . S
C225 C226 1.390 . S
C225 H230 0.949 . S
C226 C225 1.390 . S
C226 C231 1.399 . S
C227 C223 1.404 . S
C227 H228 0.950 . S
C227 C229 1.375 . S
H228 C227 0.950 . S
C229 C227 1.375 . S
C229 C231 1.382 . S
C229 H233 0.950 . S
H230 C225 0.949 . S
C231 C226 1.399 . S
C231 C229 1.382 . S
C231 H232 0.952 . S
H232 C231 0.952 . S
H233 C229 0.950 . S
H234 C246 0.930 . S
H235 C248 0.930 . S
H236 C249 0.930 . S
H237 C253 0.959 . S
H238 C253 0.959 . S
H239 C253 0.961 . S
H240 C254 0.960 . S
H241 C254 0.961 . S
H242 C254 0.959 . S
H243 C257 0.929 . S
H244 C258 0.931 . S
H245 C260 0.930 . S
C246 H234 0.930 . S
C246 C247 1.399 . S
C246 C251 1.399 . S
C247 C246 1.399 . S
C247 C248 1.376 . S
C248 H235 0.930 . S
C248 C247 1.376 . S
C248 C249 1.388 . S
C249 H236 0.930 . S
C249 C248 1.388 . S
C249 C250 1.390 . S
C250 C249 1.390 . S
C250 C251 1.394 . S
C250 C256 1.465 . S
C251 C246 1.399 . S
C251 C250 1.394 . S
C251 C252 1.516 . S
C252 C251 1.516 . S
C252 C253 1.502 . S
C252 C254 1.561 . S
C252 C255 1.526 . S
C253 H237 0.959 . S
C253 H238 0.959 . S
C253 H239 0.961 . S
C253 C252 1.502 . S
C254 H240 0.960 . S
C254 H241 0.961 . S
C254 H242 0.959 . S
C254 C252 1.561 . S
C255 C252 1.526 . S
C255 C256 1.396 . S
C255 C260 1.390 . S
C256 C250 1.465 . S
C256 C255 1.396 . S
C256 C257 1.399 . S
C257 H243 0.929 . S
C257 C256 1.399 . S
C257 C258 1.385 . S
C258 H244 0.931 . S
C258 C257 1.385 . S
C258 C259 1.389 . S
C259 C258 1.389 . S
C259 C260 1.387 . S
C260 H245 0.930 . S
C260 C255 1.390 . S
C260 C259 1.387 . S
H261 C273 0.930 . S
H262 C275 0.930 . S
H263 C276 0.930 . S
H264 C280 0.959 . S
H265 C280 0.959 . S
H266 C280 0.961 . S
H267 C281 0.960 . S
H268 C281 0.961 . S
H269 C281 0.959 . S
H270 C284 0.929 . S
H271 C285 0.931 . S
H272 C287 0.930 . S
C273 H261 0.930 . S
C273 C274 1.399 . S
C273 C278 1.399 . S
C274 C273 1.399 . S
C274 C275 1.376 . S
C275 H262 0.930 . S
C275 C274 1.376 . S
C275 C276 1.388 . S
C276 H263 0.930 . S
C276 C275 1.388 . S
C276 C277 1.390 . S
C277 C276 1.390 . S
C277 C278 1.394 . S
C277 C283 1.465 . S
C278 C273 1.399 . S
C278 C277 1.394 . S
C278 C279 1.516 . S
C279 C278 1.516 . S
C279 C280 1.502 . S
C279 C281 1.561 . S
C279 C282 1.526 . S
C280 H264 0.959 . S
C280 H265 0.959 . S
C280 H266 0.961 . S
C280 C279 1.502 . S
C281 H267 0.960 . S
C281 H268 0.961 . S
C281 H269 0.959 . S
C281 C279 1.561 . S
C282 C279 1.526 . S
C282 C283 1.396 . S
C282 C287 1.390 . S
C283 C277 1.465 . S
C283 C282 1.396 . S
C283 C284 1.399 . S
C284 H270 0.929 . S
C284 C283 1.399 . S
C284 C285 1.385 . S
C285 H271 0.931 . S
C285 C284 1.385 . S
C285 C286 1.389 . S
C286 C285 1.389 . S
C286 C287 1.387 . S
C287 H272 0.930 . S
C287 C282 1.390 . S
C287 C286 1.387 . S
H288 C300 0.930 . S
H289 C302 0.930 . S
H290 C303 0.930 . S
H291 C307 0.959 . S
H292 C307 0.959 . S
H293 C307 0.961 . S
H294 C308 0.960 . S
H295 C308 0.961 . S
H296 C308 0.959 . S
H297 C311 0.929 . S
H298 C312 0.931 . S
H299 C314 0.930 . S
C300 H288 0.930 . S
C300 C301 1.399 . S
C300 C305 1.399 . S
C301 C300 1.399 . S
C301 C302 1.376 . S
C302 H289 0.930 . S
C302 C301 1.376 . S
C302 C303 1.388 . S
C303 H290 0.930 . S
C303 C302 1.388 . S
C303 C304 1.390 . S
C304 C303 1.390 . S
C304 C305 1.394 . S
C304 C310 1.465 . S
C305 C300 1.399 . S
C305 C304 1.394 . S
C305 C306 1.516 . S
C306 C305 1.516 . S
C306 C307 1.502 . S
C306 C308 1.561 . S
C306 C309 1.526 . S
C307 H291 0.959 . S
C307 H292 0.959 . S
C307 H293 0.961 . S
C307 C306 1.502 . S
C308 H294 0.960 . S
C308 H295 0.961 . S
C308 H296 0.959 . S
C308 C306 1.561 . S
C309 C306 1.526 . S
C309 C310 1.396 . S
C309 C314 1.390 . S
C310 C304 1.465 . S
C310 C309 1.396 . S
C310 C311 1.399 . S
C311 H297 0.929 . S
C311 C310 1.399 . S
C311 C312 1.385 . S
C312 H298 0.931 . S
C312 C311 1.385 . S
C312 C313 1.389 . S
C313 C312 1.389 . S
C313 C314 1.387 . S
C314 H299 0.930 . S
C314 C309 1.390 . S
C314 C313 1.387 . S
H315 C327 0.930 . S
H316 C329 0.930 . S
H317 C330 0.930 . S
H318 C334 0.959 . S
H319 C334 0.959 . S
H320 C334 0.961 . S
H321 C335 0.960 . S
H322 C335 0.961 . S
H323 C335 0.959 . S
H324 C338 0.929 . S
H325 C339 0.931 . S
H326 C341 0.930 . S
C327 H315 0.930 . S
C327 C328 1.399 . S
C327 C332 1.399 . S
C328 C327 1.399 . S
C328 C329 1.376 . S
C329 H316 0.930 . S
C329 C328 1.376 . S
C329 C330 1.388 . S
C330 H317 0.930 . S
C330 C329 1.388 . S
C330 C331 1.390 . S
C331 C330 1.390 . S
C331 C332 1.394 . S
C331 C337 1.465 . S
C332 C327 1.399 . S
C332 C331 1.394 . S
C332 C333 1.516 . S
C333 C332 1.516 . S
C333 C334 1.502 . S
C333 C335 1.561 . S
C333 C336 1.526 . S
C334 H318 0.959 . S
C334 H319 0.959 . S
C334 H320 0.961 . S
C334 C333 1.502 . S
C335 H321 0.960 . S
C335 H322 0.961 . S
C335 H323 0.959 . S
C335 C333 1.561 . S
C336 C333 1.526 . S
C336 C337 1.396 . S
C336 C341 1.390 . S
C337 C331 1.465 . S
C337 C336 1.396 . S
C337 C338 1.399 . S
C338 H324 0.929 . S
C338 C337 1.399 . S
C338 C339 1.385 . S
C339 H325 0.931 . S
C339 C338 1.385 . S
C339 C340 1.389 . S
C340 C339 1.389 . S
C340 C341 1.387 . S
C341 H326 0.930 . S
C341 C336 1.390 . S
C341 C340 1.387 . S
H342 C354 0.930 . S
H343 C356 0.930 . S
H344 C357 0.930 . S
H345 C361 0.959 . S
H346 C361 0.959 . S
H347 C361 0.961 . S
H348 C362 0.960 . S
H349 C362 0.961 . S
H350 C362 0.959 . S
H351 C365 0.929 . S
H352 C366 0.931 . S
H353 C368 0.930 . S
C354 H342 0.930 . S
C354 C355 1.399 . S
C354 C359 1.399 . S
C355 C354 1.399 . S
C355 C356 1.376 . S
C356 H343 0.930 . S
C356 C355 1.376 . S
C356 C357 1.388 . S
C357 H344 0.930 . S
C357 C356 1.388 . S
C357 C358 1.390 . S
C358 C357 1.390 . S
C358 C359 1.394 . S
C358 C364 1.465 . S
C359 C354 1.399 . S
C359 C358 1.394 . S
C359 C360 1.516 . S
C360 C359 1.516 . S
C360 C361 1.502 . S
C360 C362 1.561 . S
C360 C363 1.526 . S
C361 H345 0.959 . S
C361 H346 0.959 . S
C361 H347 0.961 . S
C361 C360 1.502 . S
C362 H348 0.960 . S
C362 H349 0.961 . S
C362 H350 0.959 . S
C362 C360 1.561 . S
C363 C360 1.526 . S
C363 C364 1.396 . S
C363 C368 1.390 . S
C364 C358 1.465 . S
C364 C363 1.396 . S
C364 C365 1.399 . S
C365 H351 0.929 . S
C365 C364 1.399 . S
C365 C366 1.385 . S
C366 H352 0.931 . S
C366 C365 1.385 . S
C366 C367 1.389 . S
C367 C366 1.389 . S
C367 C368 1.387 . S
C368 H353 0.930 . S
C368 C363 1.390 . S
C368 C367 1.387 . S
H369 C381 0.930 . S
H370 C383 0.930 . S
H371 C384 0.930 . S
H372 C388 0.959 . S
H373 C388 0.959 . S
H374 C388 0.961 . S
H375 C389 0.960 . S
H376 C389 0.961 . S
H377 C389 0.959 . S
H378 C392 0.929 . S
H379 C393 0.931 . S
H380 C395 0.930 . S
C381 H369 0.930 . S
C381 C382 1.399 . S
C381 C386 1.399 . S
C382 C381 1.399 . S
C382 C383 1.376 . S
C383 H370 0.930 . S
C383 C382 1.376 . S
C383 C384 1.388 . S
C384 H371 0.930 . S
C384 C383 1.388 . S
C384 C385 1.390 . S
C385 C384 1.390 . S
C385 C386 1.394 . S
C385 C391 1.465 . S
C386 C381 1.399 . S
C386 C385 1.394 . S
C386 C387 1.516 . S
C387 C386 1.516 . S
C387 C388 1.502 . S
C387 C389 1.561 . S
C387 C390 1.526 . S
C388 H372 0.959 . S
C388 H373 0.959 . S
C388 H374 0.961 . S
C388 C387 1.502 . S
C389 H375 0.960 . S
C389 H376 0.961 . S
C389 H377 0.959 . S
C389 C387 1.561 . S
C390 C387 1.526 . S
C390 C391 1.396 . S
C390 C395 1.390 . S
C391 C385 1.465 . S
C391 C390 1.396 . S
C391 C392 1.399 . S
C392 H378 0.929 . S
C392 C391 1.399 . S
C392 C393 1.385 . S
C393 H379 0.931 . S
C393 C392 1.385 . S
C393 C394 1.389 . S
C394 C393 1.389 . S
C394 C395 1.387 . S
C395 H380 0.930 . S
C395 C390 1.390 . S
C395 C394 1.387 . S
H396 C408 0.930 . S
H397 C410 0.930 . S
H398 C411 0.930 . S
H399 C415 0.959 . S
H400 C415 0.959 . S
H401 C415 0.961 . S
H402 C416 0.960 . S
H403 C416 0.961 . S
H404 C416 0.959 . S
H405 C419 0.929 . S
H406 C420 0.931 . S
H407 C422 0.930 . S
C408 H396 0.930 . S
C408 C409 1.399 . S
C408 C413 1.399 . S
C409 C408 1.399 . S
C409 C410 1.376 . S
C410 H397 0.930 . S
C410 C409 1.376 . S
C410 C411 1.388 . S
C411 H398 0.930 . S
C411 C410 1.388 . S
C411 C412 1.390 . S
C412 C411 1.390 . S
C412 C413 1.394 . S
C412 C418 1.465 . S
C413 C408 1.399 . S
C413 C412 1.394 . S
C413 C414 1.516 . S
C414 C413 1.516 . S
C414 C415 1.502 . S
C414 C416 1.561 . S
C414 C417 1.526 . S
C415 H399 0.959 . S
C415 H400 0.959 . S
C415 H401 0.961 . S
C415 C414 1.502 . S
C416 H402 0.960 . S
C416 H403 0.961 . S
C416 H404 0.959 . S
C416 C414 1.561 . S
C417 C414 1.526 . S
C417 C418 1.396 . S
C417 C422 1.390 . S
C418 C412 1.465 . S
C418 C417 1.396 . S
C418 C419 1.399 . S
C419 H405 0.929 . S
C419 C418 1.399 . S
C419 C420 1.385 . S
C420 H406 0.931 . S
C420 C419 1.385 . S
C420 C421 1.389 . S
C421 C420 1.389 . S
C421 C422 1.387 . S
C422 H407 0.930 . S
C422 C417 1.390 . S
C422 C421 1.387 . S
H423 C435 0.930 . S
H424 C437 0.930 . S
H425 C438 0.930 . S
H426 C442 0.959 . S
H427 C442 0.959 . S
H428 C442 0.961 . S
H429 C443 0.960 . S
H430 C443 0.961 . S
H431 C443 0.959 . S
H432 C446 0.929 . S
H433 C447 0.931 . S
H434 C449 0.930 . S
C435 H423 0.930 . S
C435 C436 1.399 . S
C435 C440 1.399 . S
C436 C435 1.399 . S
C436 C437 1.376 . S
C437 H424 0.930 . S
C437 C436 1.376 . S
C437 C438 1.388 . S
C438 H425 0.930 . S
C438 C437 1.388 . S
C438 C439 1.390 . S
C439 C438 1.390 . S
C439 C440 1.394 . S
C439 C445 1.465 . S
C440 C435 1.399 . S
C440 C439 1.394 . S
C440 C441 1.516 . S
C441 C440 1.516 . S
C441 C442 1.502 . S
C441 C443 1.561 . S
C441 C444 1.526 . S
C442 H426 0.959 . S
C442 H427 0.959 . S
C442 H428 0.961 . S
C442 C441 1.502 . S
C443 H429 0.960 . S
C443 H430 0.961 . S
C443 H431 0.959 . S
C443 C441 1.561 . S
C444 C441 1.526 . S
C444 C445 1.396 . S
C444 C449 1.390 . S
C445 C439 1.465 . S
C445 C444 1.396 . S
C445 C446 1.399 . S
C446 H432 0.929 . S
C446 C445 1.399 . S
C446 C447 1.385 . S
C447 H433 0.931 . S
C447 C446 1.385 . S
C447 C448 1.389 . S
C448 C447 1.389 . S
C448 C449 1.387 . S
C449 H434 0.930 . S
C449 C444 1.390 . S
C449 C448 1.387 . S
H450 C462 0.930 . S
H451 C464 0.930 . S
H452 C465 0.930 . S
H453 C469 0.959 . S
H454 C469 0.959 . S
H455 C469 0.961 . S
H456 C470 0.960 . S
H457 C470 0.961 . S
H458 C470 0.959 . S
H459 C473 0.929 . S
H460 C474 0.931 . S
H461 C476 0.930 1_545 S
C462 H450 0.930 . S
C462 C463 1.399 . S
C462 C467 1.399 . S
C463 C462 1.399 . S
C463 C464 1.376 . S
C464 H451 0.930 . S
C464 C463 1.376 . S
C464 C465 1.388 . S
C465 H452 0.930 . S
C465 C464 1.388 . S
C465 C466 1.390 . S
C466 C465 1.390 . S
C466 C467 1.394 . S
C466 C472 1.465 . S
C467 C462 1.399 . S
C467 C466 1.394 . S
C467 C468 1.516 . S
C468 C467 1.516 . S
C468 C469 1.502 . S
C468 C470 1.561 . S
C468 C471 1.526 . S
C469 H453 0.959 . S
C469 H454 0.959 . S
C469 H455 0.961 . S
C469 C468 1.502 . S
C470 H456 0.960 . S
C470 H457 0.961 . S
C470 H458 0.959 . S
C470 C468 1.561 . S
C471 C468 1.526 . S
C471 C472 1.396 . S
C471 C476 1.390 . S
C472 C466 1.465 . S
C472 C471 1.396 . S
C472 C473 1.399 . S
C473 H459 0.929 . S
C473 C472 1.399 . S
C473 C474 1.385 . S
C474 H460 0.931 . S
C474 C473 1.385 . S
C474 C475 1.389 1_565 S
C475 C474 1.389 1_545 S
C475 C476 1.387 1_545 S
C476 H461 0.930 1_565 S
C476 C471 1.390 . S
C476 C475 1.387 1_565 S
H477 C489 0.930 . S
H478 C491 0.930 . S
H479 C492 0.930 . S
H480 C496 0.959 . S
H481 C496 0.959 . S
H482 C496 0.961 . S
H483 C497 0.960 . S
H484 C497 0.961 . S
H485 C497 0.959 . S
H486 C500 0.929 . S
H487 C501 0.931 . S
H488 C503 0.930 . S
C489 H477 0.930 . S
C489 C490 1.399 . S
C489 C494 1.399 . S
C490 C489 1.399 . S
C490 C491 1.376 . S
C491 H478 0.930 . S
C491 C490 1.376 . S
C491 C492 1.388 . S
C492 H479 0.930 . S
C492 C491 1.388 . S
C492 C493 1.390 . S
C493 C492 1.390 . S
C493 C494 1.394 . S
C493 C499 1.465 . S
C494 C489 1.399 . S
C494 C493 1.394 . S
C494 C495 1.516 . S
C495 C494 1.516 . S
C495 C496 1.502 . S
C495 C497 1.561 . S
C495 C498 1.526 . S
C496 H480 0.959 . S
C496 H481 0.959 . S
C496 H482 0.961 . S
C496 C495 1.502 . S
C497 H483 0.960 . S
C497 H484 0.961 . S
C497 H485 0.959 . S
C497 C495 1.561 . S
C498 C495 1.526 . S
C498 C499 1.396 . S
C498 C503 1.390 . S
C499 C493 1.465 . S
C499 C498 1.396 . S
C499 C500 1.399 . S
C500 H486 0.929 . S
C500 C499 1.399 . S
C500 C501 1.385 . S
C501 H487 0.931 . S
C501 C500 1.385 . S
C501 C502 1.389 . S
C502 C501 1.389 . S
C502 C503 1.387 . S
C503 H488 0.930 . S
C503 C498 1.390 . S
C503 C502 1.387 . S
H504 C516 0.930 . S
H505 C518 0.930 . S
H506 C519 0.930 . S
H507 C523 0.959 . S
H508 C523 0.959 . S
H509 C523 0.961 . S
H510 C524 0.960 . S
H511 C524 0.961 . S
H512 C524 0.959 . S
H513 C527 0.929 . S
H514 C528 0.931 . S
H515 C530 0.930 . S
C516 H504 0.930 . S
C516 C517 1.399 . S
C516 C521 1.399 . S
C517 C516 1.399 . S
C517 C518 1.376 . S
C518 H505 0.930 . S
C518 C517 1.376 . S
C518 C519 1.388 . S
C519 H506 0.930 . S
C519 C518 1.388 . S
C519 C520 1.390 . S
C520 C519 1.390 . S
C520 C521 1.394 . S
C520 C526 1.465 . S
C521 C516 1.399 . S
C521 C520 1.394 . S
C521 C522 1.516 . S
C522 C521 1.516 . S
C522 C523 1.502 . S
C522 C524 1.561 . S
C522 C525 1.526 . S
C523 H507 0.959 . S
C523 H508 0.959 . S
C523 H509 0.961 . S
C523 C522 1.502 . S
C524 H510 0.960 . S
C524 H511 0.961 . S
C524 H512 0.959 . S
C524 C522 1.561 . S
C525 C522 1.526 . S
C525 C526 1.396 . S
C525 C530 1.390 . S
C526 C520 1.465 . S
C526 C525 1.396 . S
C526 C527 1.399 . S
C527 H513 0.929 . S
C527 C526 1.399 . S
C527 C528 1.385 . S
C528 H514 0.931 . S
C528 C527 1.385 . S
C528 C529 1.389 . S
C529 C528 1.389 . S
C529 C530 1.387 . S
C530 H515 0.930 . S
C530 C525 1.390 . S
C530 C529 1.387 . S
H531 C543 0.930 . S
H532 C545 0.930 . S
H533 C546 0.930 . S
H534 C550 0.959 . S
H535 C550 0.959 . S
H536 C550 0.961 . S
H537 C551 0.960 . S
H538 C551 0.961 . S
H539 C551 0.959 . S
H540 C554 0.929 . S
H541 C555 0.931 . S
H542 C557 0.930 . S
C543 H531 0.930 . S
C543 C544 1.399 . S
C543 C548 1.399 . S
C544 C543 1.399 . S
C544 C545 1.376 . S
C545 H532 0.930 . S
C545 C544 1.376 . S
C545 C546 1.388 . S
C546 H533 0.930 . S
C546 C545 1.388 . S
C546 C547 1.390 . S
C547 C546 1.390 . S
C547 C548 1.394 . S
C547 C553 1.465 . S
C548 C543 1.399 . S
C548 C547 1.394 . S
C548 C549 1.516 . S
C549 C548 1.516 . S
C549 C550 1.502 . S
C549 C551 1.561 . S
C549 C552 1.526 . S
C550 H534 0.959 . S
C550 H535 0.959 . S
C550 H536 0.961 . S
C550 C549 1.502 . S
C551 H537 0.960 . S
C551 H538 0.961 . S
C551 H539 0.959 . S
C551 C549 1.561 . S
C552 C549 1.526 . S
C552 C553 1.396 . S
C552 C557 1.390 . S
C553 C547 1.465 . S
C553 C552 1.396 . S
C553 C554 1.399 . S
C554 H540 0.929 . S
C554 C553 1.399 . S
C554 C555 1.385 . S
C555 H541 0.931 . S
C555 C554 1.385 . S
C555 C556 1.389 . S
C556 C555 1.389 . S
C556 C557 1.387 . S
C557 H542 0.930 . S
C557 C552 1.390 . S
C557 C556 1.387 . S
H558 C570 0.930 . S
H559 C572 0.930 . S
H560 C573 0.930 . S
H561 C577 0.959 . S
H562 C577 0.959 . S
H563 C577 0.961 . S
H564 C578 0.960 . S
H565 C578 0.961 . S
H566 C578 0.959 . S
H567 C581 0.929 . S
H568 C582 0.931 . S
H569 C584 0.930 . S
C570 H558 0.930 . S
C570 C571 1.399 . S
C570 C575 1.399 . S
C571 C570 1.399 . S
C571 C572 1.376 1_455 S
C572 H559 0.930 . S
C572 C571 1.376 1_655 S
C572 C573 1.388 . S
C573 H560 0.930 . S
C573 C572 1.388 . S
C573 C574 1.390 . S
C574 C573 1.390 . S
C574 C575 1.394 1_655 S
C574 C580 1.465 1_554 S
C575 C570 1.399 . S
C575 C574 1.394 1_455 S
C575 C576 1.516 . S
C576 C575 1.516 . S
C576 C577 1.502 . S
C576 C578 1.561 . S
C576 C579 1.526 1_554 S
C577 H561 0.959 . S
C577 H562 0.959 . S
C577 H563 0.961 . S
C577 C576 1.502 . S
C578 H564 0.960 . S
C578 H565 0.961 . S
C578 H566 0.959 . S
C578 C576 1.561 . S
C579 C576 1.526 1_556 S
C579 C580 1.396 1_455 S
C579 C584 1.390 . S
C580 C574 1.465 1_556 S
C580 C579 1.396 1_655 S
C580 C581 1.399 . S
C581 H567 0.929 . S
C581 C580 1.399 . S
C581 C582 1.385 . S
C582 H568 0.931 . S
C582 C581 1.385 . S
C582 C583 1.389 1_655 S
C583 C582 1.389 1_455 S
C583 C584 1.387 . S
C584 H569 0.930 . S
C584 C579 1.390 . S
C584 C583 1.387 . S
H585 C597 0.930 . S
H586 C599 0.930 . S
H587 C600 0.930 . S
H588 C604 0.959 . S
H589 C604 0.959 . S
H590 C604 0.961 . S
H591 C605 0.960 . S
H592 C605 0.961 . S
H593 C605 0.959 . S
H594 C608 0.929 . S
H595 C609 0.931 . S
H596 C611 0.930 . S
C597 H585 0.930 . S
C597 C598 1.399 . S
C597 C602 1.399 . S
C598 C597 1.399 . S
C598 C599 1.376 . S
C599 H586 0.930 . S
C599 C598 1.376 . S
C599 C600 1.388 . S
C600 H587 0.930 . S
C600 C599 1.388 . S
C600 C601 1.390 . S
C601 C600 1.390 . S
C601 C602 1.394 . S
C601 C607 1.465 . S
C602 C597 1.399 . S
C602 C601 1.394 . S
C602 C603 1.516 . S
C603 C602 1.516 . S
C603 C604 1.502 . S
C603 C605 1.561 . S
C603 C606 1.526 . S
C604 H588 0.959 . S
C604 H589 0.959 . S
C604 H590 0.961 . S
C604 C603 1.502 . S
C605 H591 0.960 . S
C605 H592 0.961 . S
C605 H593 0.959 . S
C605 C603 1.561 . S
C606 C603 1.526 . S
C606 C607 1.396 . S
C606 C611 1.390 . S
C607 C601 1.465 . S
C607 C606 1.396 . S
C607 C608 1.399 . S
C608 H594 0.929 . S
C608 C607 1.399 . S
C608 C609 1.385 . S
C609 H595 0.931 . S
C609 C608 1.385 . S
C609 C610 1.389 . S
C610 C609 1.389 . S
C610 C611 1.387 . S
C611 H596 0.930 . S
C611 C606 1.390 . S
C611 C610 1.387 . S
H612 C624 0.930 . S
H613 C626 0.930 . S
H614 C627 0.930 . S
H615 C631 0.959 . S
H616 C631 0.959 . S
H617 C631 0.961 . S
H618 C632 0.960 . S
H619 C632 0.961 . S
H620 C632 0.959 . S
H621 C635 0.929 . S
H622 C636 0.931 . S
H623 C638 0.930 . S
C624 H612 0.930 . S
C624 C625 1.399 . S
C624 C629 1.399 . S
C625 C624 1.399 . S
C625 C626 1.376 . S
C626 H613 0.930 . S
C626 C625 1.376 . S
C626 C627 1.388 . S
C627 H614 0.930 . S
C627 C626 1.388 . S
C627 C628 1.390 . S
C628 C627 1.390 . S
C628 C629 1.394 . S
C628 C634 1.465 . S
C629 C624 1.399 . S
C629 C628 1.394 . S
C629 C630 1.516 . S
C630 C629 1.516 . S
C630 C631 1.502 . S
C630 C632 1.561 . S
C630 C633 1.526 . S
C631 H615 0.959 . S
C631 H616 0.959 . S
C631 H617 0.961 . S
C631 C630 1.502 . S
C632 H618 0.960 . S
C632 H619 0.961 . S
C632 H620 0.959 . S
C632 C630 1.561 . S
C633 C630 1.526 . S
C633 C634 1.396 . S
C633 C638 1.390 . S
C634 C628 1.465 . S
C634 C633 1.396 . S
C634 C635 1.399 . S
C635 H621 0.929 . S
C635 C634 1.399 . S
C635 C636 1.385 . S
C636 H622 0.931 . S
C636 C635 1.385 . S
C636 C637 1.389 . S
C637 C636 1.389 . S
C637 C638 1.387 . S
C638 H623 0.930 . S
C638 C633 1.390 . S
C638 C637 1.387 . S
H639 C651 0.930 . S
H640 C653 0.930 . S
H641 C654 0.930 . S
H642 C658 0.959 . S
H643 C658 0.959 . S
H644 C658 0.961 . S
H645 C659 0.960 . S
H646 C659 0.961 . S
H647 C659 0.959 . S
H648 C662 0.929 . S
H649 C663 0.931 . S
H650 C665 0.930 . S
C651 H639 0.930 . S
C651 C652 1.399 . S
C651 C656 1.399 . S
C652 C651 1.399 . S
C652 C653 1.376 . S
C653 H640 0.930 . S
C653 C652 1.376 . S
C653 C654 1.388 . S
C654 H641 0.930 . S
C654 C653 1.388 . S
C654 C655 1.390 . S
C655 C654 1.390 . S
C655 C656 1.394 . S
C655 C661 1.465 . S
C656 C651 1.399 . S
C656 C655 1.394 . S
C656 C657 1.516 . S
C657 C656 1.516 . S
C657 C658 1.502 . S
C657 C659 1.561 1_545 S
C657 C660 1.526 . S
C658 H642 0.959 . S
C658 H643 0.959 . S
C658 H644 0.961 . S
C658 C657 1.502 . S
C659 H645 0.960 . S
C659 H646 0.961 . S
C659 H647 0.959 . S
C659 C657 1.561 1_565 S
C660 C657 1.526 . S
C660 C661 1.396 . S
C660 C665 1.390 . S
C661 C655 1.465 . S
C661 C660 1.396 . S
C661 C662 1.399 . S
C662 H648 0.929 . S
C662 C661 1.399 . S
C662 C663 1.385 . S
C663 H649 0.931 . S
C663 C662 1.385 . S
C663 C664 1.389 . S
C664 C663 1.389 . S
C664 C665 1.387 . S
C665 H650 0.930 . S
C665 C660 1.390 . S
C665 C664 1.387 . S
H666 C678 0.930 . S
H667 C680 0.930 . S
H668 C681 0.930 . S
H669 C685 0.959 . S
H670 C685 0.959 . S
H671 C685 0.961 . S
H672 C686 0.960 . S
H673 C686 0.961 1_554 S
H674 C686 0.959 . S
H675 C689 0.929 . S
H676 C690 0.931 . S
H677 C692 0.930 . S
C678 H666 0.930 . S
C678 C679 1.399 . S
C678 C683 1.399 . S
C679 C678 1.399 . S
C679 C680 1.376 . S
C680 H667 0.930 . S
C680 C679 1.376 . S
C680 C681 1.388 . S
C681 H668 0.930 . S
C681 C680 1.388 . S
C681 C682 1.390 . S
C682 C681 1.390 . S
C682 C683 1.394 . S
C682 C688 1.465 1_556 S
C683 C678 1.399 . S
C683 C682 1.394 . S
C683 C684 1.516 . S
C684 C683 1.516 . S
C684 C685 1.502 . S
C684 C686 1.561 . S
C684 C687 1.526 1_556 S
C685 H669 0.959 . S
C685 H670 0.959 . S
C685 H671 0.961 . S
C685 C684 1.502 . S
C686 H672 0.960 . S
C686 H673 0.961 1_556 S
C686 H674 0.959 . S
C686 C684 1.561 . S
C687 C684 1.526 1_554 S
C687 C688 1.396 . S
C687 C692 1.390 . S
C688 C682 1.465 1_554 S
C688 C687 1.396 . S
C688 C689 1.399 . S
C689 H675 0.929 . S
C689 C688 1.399 . S
C689 C690 1.385 . S
C690 H676 0.931 . S
C690 C689 1.385 . S
C690 C691 1.389 . S
C691 C690 1.389 . S
C691 C692 1.387 . S
C692 H677 0.930 . S
C692 C687 1.390 . S
C692 C691 1.387 . S
H693 C705 0.930 . S
H694 C707 0.930 . S
H695 C708 0.930 . S
H696 C712 0.959 . S
H697 C712 0.959 . S
H698 C712 0.961 . S
H699 C713 0.960 . S
H700 C713 0.961 . S
H701 C713 0.959 . S
H702 C716 0.929 . S
H703 C717 0.931 . S
H704 C719 0.930 . S
C705 H693 0.930 . S
C705 C706 1.399 . S
C705 C710 1.399 . S
C706 C705 1.399 . S
C706 C707 1.376 . S
C707 H694 0.930 . S
C707 C706 1.376 . S
C707 C708 1.388 . S
C708 H695 0.930 . S
C708 C707 1.388 . S
C708 C709 1.390 . S
C709 C708 1.390 . S
C709 C710 1.394 . S
C709 C715 1.465 . S
C710 C705 1.399 . S
C710 C709 1.394 . S
C710 C711 1.516 . S
C711 C710 1.516 . S
C711 C712 1.502 1_455 S
C711 C713 1.561 . S
C711 C714 1.526 . S
C712 H696 0.959 . S
C712 H697 0.959 . S
C712 H698 0.961 . S
C712 C711 1.502 1_655 S
C713 H699 0.960 . S
C713 H700 0.961 . S
C713 H701 0.959 . S
C713 C711 1.561 . S
C714 C711 1.526 . S
C714 C715 1.396 . S
C714 C719 1.390 . S
C715 C709 1.465 . S
C715 C714 1.396 . S
C715 C716 1.399 . S
C716 H702 0.929 . S
C716 C715 1.399 . S
C716 C717 1.385 . S
C717 H703 0.931 . S
C717 C716 1.385 . S
C717 C718 1.389 . S
C718 C717 1.389 . S
C718 C719 1.387 . S
C719 H704 0.930 . S
C719 C714 1.390 . S
C719 C718 1.387 . S
C247 C10 3.133 . S
C259 C226 3.059 . S
C274 C59 3.201 . S
C286 C188 3.137 . S
C301 C90 3.103 . S
C313 C207 3.064 . S
C328 C19 3.008 . S
C340 C221 2.960 . S
C367 C183 2.940 . S
C355 C50 2.964 . S
C394 C202 2.968 . S
C382 C99 3.016 . S
C409 C46 0.548 . S
C421 C150 0.794 . S
C436 C95 0.355 . S
C448 C164 0.260 . S
C463 C6 0.271 . S
C475 C126 0.359 . S
C502 C145 0.379 . S
C490 C55 0.260 . S
C529 C169 0.710 . S
C517 C86 0.457 . S
C544 C15 0.340 . S
C556 C131 0.646 . S
C583 C160 1.376 . S
C571 C9 1.415 . S
C598 C49 1.212 . S
C610 C122 1.328 . S
C625 C89 1.307 . S
C637 C141 1.373 . S
C664 C198 1.728 . S
C652 C58 1.722 . S
C691 C217 1.732 . S
C679 C98 1.660 . S
C706 C18 1.712 . S
C718 C179 1.780 . S
