# Generated by pormake.
# Topology pyr, (3,6)-cn, num edge types: 1
# Building blocks:
#     Node 0, Type 0, BuildingBlock: BELTOD_clean_linker_0, # of connection points: 3
#     Node 1, Type 0, BuildingBlock: BELTOD_clean_linker_0, # of connection points: 3
#     Node 2, Type 0, BuildingBlock: BELTOD_clean_linker_0, # of connection points: 3
#     Node 3, Type 0, BuildingBlock: BELTOD_clean_linker_0, # of connection points: 3
#     Node 4, Type 0, BuildingBlock: BELTOD_clean_linker_0, # of connection points: 3
#     Node 5, Type 0, BuildingBlock: BELTOD_clean_linker_0, # of connection points: 3
#     Node 6, Type 0, BuildingBlock: BELTOD_clean_linker_0, # of connection points: 3
#     Node 7, Type 0, BuildingBlock: BELTOD_clean_linker_0, # of connection points: 3
#     Node 8, Type 1, BuildingBlock: MIFKUJ_clean_sbu_0, # of connection points: 6
#     Node 9, Type 1, BuildingBlock: MIFKUJ_clean_sbu_0, # of connection points: 6
#     Node 10, Type 1, BuildingBlock: MIFKUJ_clean_sbu_0, # of connection points: 6
#     Node 11, Type 1, BuildingBlock: MIFKUJ_clean_sbu_0, # of connection points: 6
#     Edge 12, Type (0, 1), None
#     Edge 13, Type (0, 1), None
#     Edge 14, Type (0, 1), None
#     Edge 15, Type (0, 1), None
#     Edge 16, Type (0, 1), None
#     Edge 17, Type (0, 1), None
#     Edge 18, Type (0, 1), None
#     Edge 19, Type (0, 1), None
#     Edge 20, Type (0, 1), None
#     Edge 21, Type (0, 1), None
#     Edge 22, Type (0, 1), None
#     Edge 23, Type (0, 1), None
#     Edge 24, Type (0, 1), None
#     Edge 25, Type (0, 1), None
#     Edge 26, Type (0, 1), None
#     Edge 27, Type (0, 1), None
#     Edge 28, Type (0, 1), None
#     Edge 29, Type (0, 1), None
#     Edge 30, Type (0, 1), None
#     Edge 31, Type (0, 1), None
#     Edge 32, Type (0, 1), None
#     Edge 33, Type (0, 1), None
#     Edge 34, Type (0, 1), None
#     Edge 35, Type (0, 1), None
# Relax obj value: 0.049
# Max RMSD: 0.100
# Mean RMSD: 0.058
data_MOF--net-pyr--node1-MIFKUJ_clean_sbu_0--node2-BELTOD_clean_linker_0--edge1-none
_symmetry_space_group_name_H-M    P1
_symmetry_Int_Tables_number       1
_symmetry_cell_setting            triclinic
loop_
_symmetry_equiv_pos_as_xyz
'x, y, z'
_cell_length_a     23.886021
_cell_length_b     21.62237
_cell_length_c     21.934196
_cell_angle_alpha  83.688234
_cell_angle_beta   87.392576
_cell_angle_gamma 99.000068
loop_
_atom_site_label
_atom_site_type_symbol
_atom_site_fract_x
_atom_site_fract_y
_atom_site_fract_z
_atom_type_partial_charge
P0 P 0.23955 0.21152 0.23968 0.0
H1 H 0.34313 0.24385 0.1613 0.0
H2 H 0.39582 0.18289 0.09928 0.0
H3 H 0.26853 0.0177 0.15221 0.0
H4 H 0.2154 0.07969 0.21334 0.0
H5 H 0.15008 0.2792 0.27581 0.0
H6 H 0.09461 0.34813 0.21731 0.0
H7 H 0.18004 0.31544 0.04859 0.0
H8 H 0.23436 0.24594 0.10697 0.0
H9 H 0.26645 0.16357 0.36114 0.0
H10 H 0.12156 0.14528 0.25025 0.0
O11 O 0.28743 0.26174 0.27044 0.0
H12 H 0.21016 0.0987 0.44649 0.0
H13 H 0.06383 0.08042 0.3364 0.0
C14 C 0.27627 0.16588 0.19291 0.0
C15 C 0.32656 0.19456 0.1594 0.0
C16 C 0.35637 0.15967 0.12367 0.0
C17 C 0.33647 0.09527 0.12126 0.0
C18 C 0.28504 0.0671 0.15353 0.0
C19 C 0.25483 0.10242 0.18873 0.0
C20 C 0.19571 0.25693 0.19567 0.0
C21 C 0.156 0.28601 0.22613 0.0
C22 C 0.12434 0.32524 0.19273 0.0
C23 C 0.13312 0.33695 0.12853 0.0
C24 C 0.17254 0.3072 0.09813 0.0
C25 C 0.20361 0.26738 0.13151 0.0
C26 C 0.19756 0.16081 0.30049 0.0
C27 C 0.2223 0.14568 0.35539 0.0
C28 C 0.1899 0.10838 0.40407 0.0
C29 C 0.13208 0.08526 0.39855 0.0
C30 C 0.10804 0.09803 0.34221 0.0
C31 C 0.14082 0.13539 0.29324 0.0
P32 P 0.3962 0.89809 0.65487 0.0
H33 H 0.48954 0.98673 0.69352 0.0
H34 H 0.53333 0.99474 0.79128 0.0
H35 H 0.42055 0.82676 0.87193 0.0
H36 H 0.37519 0.82036 0.77412 0.0
H37 H 0.38831 0.86857 0.52894 0.0
H38 H 0.40715 0.77801 0.47816 0.0
H39 H 0.46432 0.69477 0.64754 0.0
H40 H 0.44411 0.78383 0.69822 0.0
H41 H 0.32879 0.9486 0.74602 0.0
H42 H 0.29728 0.84549 0.59002 0.0
O43 O 0.42059 0.96381 0.60789 0.0
H44 H 0.23077 0.96617 0.75066 0.0
H45 H 0.19956 0.86454 0.59336 0.0
C46 C 0.42936 0.90275 0.72661 0.0
C47 C 0.47403 0.95169 0.73215 0.0
C48 C 0.49899 0.95628 0.78808 0.0
C49 C 0.48037 0.91119 0.83898 0.0
C50 C 0.43594 0.8618 0.83321 0.0
C51 C 0.41007 0.85815 0.77755 0.0
C52 C 0.41356 0.83263 0.61774 0.0
C53 C 0.40463 0.83064 0.5552 0.0
C54 C 0.41562 0.77907 0.52617 0.0
C55 C 0.43708 0.72937 0.55898 0.0
C56 C 0.44796 0.73253 0.62104 0.0
C57 C 0.43589 0.7835 0.65028 0.0
C58 C 0.32077 0.89546 0.66781 0.0
C59 C 0.30048 0.9279 0.71391 0.0
C60 C 0.24415 0.93802 0.71651 0.0
C61 C 0.20748 0.91735 0.67192 0.0
C62 C 0.22684 0.8813 0.62824 0.0
C63 C 0.28304 0.87051 0.6262 0.0
P64 P 0.67881 0.32486 0.75279 0.0
H65 H 0.77866 0.40762 0.69368 0.0
H66 H 0.85863 0.47293 0.7332 0.0
H67 H 0.7798 0.42552 0.91722 0.0
H68 H 0.69939 0.36123 0.87704 0.0
H69 H 0.55732 0.28405 0.79634 0.0
H70 H 0.51038 0.19752 0.87191 0.0
H71 H 0.67443 0.15277 0.91887 0.0
H72 H 0.72065 0.23751 0.8421 0.0
H73 H 0.58933 0.27757 0.6772 0.0
H74 H 0.66512 0.45895 0.72462 0.0
O75 O 0.71194 0.28467 0.70575 0.0
H76 H 0.53081 0.32849 0.60569 0.0
H77 H 0.60724 0.51084 0.65176 0.0
C78 C 0.73354 0.37879 0.78243 0.0
C79 C 0.77838 0.41177 0.74246 0.0
C80 C 0.82416 0.44899 0.7652 0.0
C81 C 0.82607 0.45369 0.82855 0.0
C82 C 0.78002 0.42222 0.8683 0.0
C83 C 0.73392 0.38547 0.84533 0.0
C84 C 0.64264 0.26708 0.8133 0.0
C85 C 0.5832 0.2557 0.82286 0.0
C86 C 0.55632 0.20621 0.86624 0.0
C87 C 0.58856 0.16797 0.90125 0.0
C88 C 0.64816 0.18113 0.89277 0.0
C89 C 0.67477 0.22973 0.8489 0.0
C90 C 0.63133 0.36426 0.70652 0.0
C91 C 0.59281 0.32845 0.67275 0.0
C92 C 0.55945 0.35779 0.63167 0.0
C93 C 0.56452 0.42394 0.6226 0.0
C94 C 0.60241 0.45985 0.6575 0.0
C95 C 0.63548 0.43019 0.69928 0.0
P96 P 0.80727 0.68258 0.25196 0.0
H97 H 0.87458 0.80789 0.23134 0.0
H98 H 0.92357 0.87664 0.29979 0.0
H99 H 0.88715 0.72578 0.44966 0.0
H100 H 0.83891 0.65674 0.38005 0.0
H101 H 0.80677 0.66571 0.12204 0.0
H102 H 0.85887 0.60698 0.05744 0.0
H103 H 0.94896 0.545 0.21338 0.0
H104 H 0.89576 0.60432 0.27833 0.0
H105 H 0.7359 0.68831 0.36387 0.0
H106 H 0.74633 0.56122 0.22675 0.0
O107 O 0.77817 0.73363 0.20577 0.0
H108 H 0.65037 0.6195 0.41252 0.0
H109 H 0.66084 0.49399 0.27369 0.0
C110 C 0.85141 0.728 0.30115 0.0
C111 C 0.87771 0.78933 0.27876 0.0
C112 C 0.90588 0.82861 0.31804 0.0
C113 C 0.90832 0.8072 0.38064 0.0
C114 C 0.88538 0.74407 0.40192 0.0
C115 C 0.85758 0.70458 0.36225 0.0
C116 C 0.84847 0.64075 0.20465 0.0
C117 C 0.83803 0.63998 0.14239 0.0
C118 C 0.86768 0.60581 0.10545 0.0
C119 C 0.90838 0.57125 0.12995 0.0
C120 C 0.91794 0.57104 0.19291 0.0
C121 C 0.88798 0.60534 0.23001 0.0
C122 C 0.74889 0.62883 0.29291 0.0
C123 C 0.7207 0.64501 0.34504 0.0
C124 C 0.67158 0.60598 0.37254 0.0
C125 C 0.64895 0.55145 0.34689 0.0
C126 C 0.67715 0.53578 0.29452 0.0
C127 C 0.72654 0.57404 0.26786 0.0
P128 P 0.90924 0.93207 0.85865 0.0
H129 H 0.83926 0.91156 0.97326 0.0
H130 H 0.74359 0.93191 -0.00107 0.0
H131 H 0.73795 0.0237 0.81437 0.0
H132 H 0.83279 0.00279 0.78906 0.0
H133 H -0.0 0.85856 0.87582 0.0
H134 H 0.00033 0.74502 0.89343 0.0
H135 H 0.81665 0.71148 0.90367 0.0
H136 H 0.81675 0.82446 0.88446 0.0
H137 H 0.98028 0.03057 0.77518 0.0
H138 H 0.86378 0.85922 0.76209 0.0
O139 O 0.96085 0.97465 0.89214 0.0
H140 H -0.00197 0.0443 0.66354 0.0
H141 H 0.88455 0.87159 0.65051 0.0
C142 C 0.84242 0.95439 0.87904 0.0
C143 C 0.81736 0.93632 0.93857 0.0
C144 C 0.7627 0.94765 0.953 0.0
C145 C 0.73302 0.97838 0.90826 0.0
C146 C 0.75954 -0.00077 0.84956 0.0
C147 C 0.81389 0.98728 0.83504 0.0
C148 C 0.90845 0.8499 0.88134 0.0
C149 C 0.95989 0.82668 0.88298 0.0
C150 C 0.95997 0.76188 0.89219 0.0
C151 C 0.90844 0.71956 0.89989 0.0
C152 C 0.85696 0.74307 0.89828 0.0
C153 C 0.85699 0.80778 0.88827 0.0
C154 C 0.92247 0.94269 0.77693 0.0
C155 C 0.95966 0.99529 0.74853 0.0
C156 C 0.97057 0.00265 0.68508 0.0
C157 C 0.94506 0.95741 0.64944 0.0
C158 C 0.90552 0.9064 0.67746 0.0
C159 C 0.89414 0.89917 0.74106 0.0
P160 P 0.70486 0.18858 0.29127 0.0
H161 H 0.71829 0.22834 0.41465 0.0
H162 H 0.66593 0.29263 0.47412 0.0
H163 H 0.54972 0.30626 0.32959 0.0
H164 H 0.60269 0.24316 0.27026 0.0
H165 H 0.82818 0.2047 0.29902 0.0
H166 H 0.89042 0.1403 0.35227 0.0
H167 H 0.74331 0.0089 0.43195 0.0
H168 H 0.68143 0.07389 0.37873 0.0
H169 H 0.70889 0.15735 0.16516 0.0
H170 H 0.59621 0.1066 0.32837 0.0
O171 O 0.74466 0.24249 0.24022 0.0
H172 H 0.63832 0.10062 0.10582 0.0
H173 H 0.52501 0.04977 0.26931 0.0
C174 C 0.66368 0.22994 0.33864 0.0
C175 C 0.68103 0.24433 0.39629 0.0
C176 C 0.65105 0.28111 0.43018 0.0
C177 C 0.6034 0.30414 0.40673 0.0
C178 C 0.58572 0.28861 0.34935 0.0
C179 C 0.61603 0.25249 0.31535 0.0
C180 C 0.75022 0.14349 0.33422 0.0
C181 C 0.8093 0.16217 0.32813 0.0
C182 C 0.84489 0.12532 0.3587 0.0
C183 C 0.82187 0.06913 0.3959 0.0
C184 C 0.76247 0.05164 0.40326 0.0
C185 C 0.72696 0.08869 0.37281 0.0
C186 C 0.65713 0.1374 0.25067 0.0
C187 C 0.66919 0.13331 0.18838 0.0
C188 C 0.62872 0.10077 0.15455 0.0
C189 C 0.57555 0.07167 0.18266 0.0
C190 C 0.56529 0.07213 0.24619 0.0
C191 C 0.60596 0.10462 0.27999 0.0
P192 P 0.38117 0.63602 0.14147 0.0
H193 H 0.31966 0.60835 0.03277 0.0
H194 H 0.21891 0.57562 0.01739 0.0
H195 H 0.17774 0.59251 0.2082 0.0
H196 H 0.27839 0.62495 0.223 0.0
H197 H 0.49323 0.71004 0.14582 0.0
H198 H 0.53281 0.8203 0.11205 0.0
H199 H 0.36659 0.85556 0.0624 0.0
H200 H 0.32736 0.74535 0.0967 0.0
H201 H 0.38166 0.50794 0.19856 0.0
H202 H 0.4118 0.69508 0.2534 0.0
O203 O 0.41622 0.59984 0.09229 0.0
H204 H 0.4074 0.46435 0.29922 0.0
H205 H 0.43835 0.65221 0.35377 0.0
C206 C 0.30652 0.61726 0.12947 0.0
C207 C 0.28881 0.60522 0.07118 0.0
C208 C 0.23115 0.58697 0.0623 0.0
C209 C 0.19023 0.58085 0.11165 0.0
C210 C 0.20811 0.59626 0.16924 0.0
C211 C 0.26572 0.61454 0.17797 0.0
C212 C 0.40737 0.7194 0.12417 0.0
C213 C 0.46517 0.74179 0.1286 0.0
C214 C 0.48773 0.8049 0.10911 0.0
C215 C 0.45294 0.84686 0.08419 0.0
C216 C 0.39462 0.82458 0.08129 0.0
C217 C 0.37207 0.76139 0.10103 0.0
C218 C 0.39589 0.60484 0.21797 0.0
C219 C 0.39368 0.53965 0.23241 0.0
C220 C 0.40834 0.51477 0.29009 0.0
C221 C 0.4255 0.55473 0.33463 0.0
C222 C 0.42575 0.61998 0.32058 0.0
C223 C 0.41073 0.64471 0.26296 0.0
P224 P 0.201 0.33533 0.78311 0.0
H225 H 0.18742 0.19765 0.79797 0.0
H226 H 0.14457 0.11855 0.73594 0.0
H227 H 0.08567 0.26409 0.61599 0.0
H228 H 0.12835 0.34333 0.67947 0.0
H229 H 0.27061 0.45559 0.79723 0.0
H230 H 0.34804 0.52243 0.73314 0.0
H231 H 0.32401 0.39784 0.59208 0.0
H232 H 0.24743 0.33072 0.65672 0.0
H233 H 0.13254 0.29476 0.89719 0.0
H234 H 0.15952 0.45726 0.76028 0.0
O235 O 0.23861 0.29983 0.83452 0.0
H236 H 0.06727 0.34419 0.95726 0.0
H237 H 0.09531 0.50818 0.82105 0.0
C238 C 0.16176 0.27642 0.74269 0.0
C239 C 0.16466 0.21259 0.75888 0.0
C240 C 0.14004 0.16728 0.72323 0.0
C241 C 0.11238 0.1851 0.6704 0.0
C242 C 0.10706 0.24888 0.65609 0.0
C243 C 0.13129 0.29417 0.69231 0.0
C244 C 0.25185 0.38916 0.73129 0.0
C245 C 0.28119 0.44336 0.75201 0.0
C246 C 0.32576 0.48128 0.71539 0.0
C247 C 0.34211 0.46551 0.65734 0.0
C248 C 0.31209 0.41165 0.63623 0.0
C249 C 0.26785 0.3734 0.67321 0.0
C250 C 0.15196 0.37299 0.82513 0.0
C251 C 0.12472 0.34143 0.88033 0.0
C252 C 0.08751 0.36992 0.91477 0.0
C253 C 0.0769 0.43082 0.89476 0.0
C254 C 0.10301 0.46156 0.83824 0.0
C255 C 0.13995 0.43265 0.8035 0.0
Zn256 Zn 0.08771 0.01284 0.58591 0.0
Zn257 Zn 0.96026 0.98149 0.45645 0.0
C258 C 0.09306 0.13789 0.6286 0.0
O259 O 0.07466 0.15525 0.57484 0.0
C260 C 0.92985 0.85213 0.42401 0.0
O261 O 0.92299 0.83529 0.48361 0.0
O262 O 0.13288 0.94476 0.61222 0.0
O263 O 0.01109 0.98385 0.56319 0.0
O264 O 0.92473 0.95257 0.54426 0.0
C265 C 0.15385 0.94268 0.66449 0.0
O266 O 0.1367 0.97725 0.70502 0.0
O267 O 0.09917 0.0808 0.64239 0.0
C268 C 0.85942 0.02789 0.42526 0.0
O269 O 0.83764 0.97263 0.45499 0.0
O270 O 0.91313 0.0439 0.41989 0.0
O271 O 0.04558 0.02621 0.4488 0.0
O272 O 0.12052 0.05003 0.50429 0.0
O273 O 0.94782 0.90965 0.40397 0.0
C274 C 0.9608 0.96393 0.58352 0.0
C275 C 0.09756 0.0511 0.45291 0.0
Zn276 Zn 0.57197 0.988 0.98523 0.0
Zn277 Zn 0.47722 0.04174 0.02599 0.0
C278 C 0.5071 0.91655 0.89772 0.0
O279 O 0.50767 0.86631 0.93707 0.0
C280 C 0.52971 0.04656 0.14467 0.0
O281 O 0.47902 0.02191 0.16979 0.0
O282 O 0.64764 0.96322 0.97233 0.0
O283 O 0.59117 0.08299 0.97943 0.0
O284 O 0.50824 0.09197 0.94466 0.0
C285 C 0.67475 0.98882 0.9225 0.0
O286 O 0.65023 0.02526 0.88381 0.0
O287 O 0.53057 0.97027 0.9098 0.0
C288 C 0.37145 0.05744 0.08854 0.0
O289 O 0.36088 0.99555 0.09761 0.0
O290 O 0.41621 0.08498 0.05741 0.0
O291 O 0.44783 0.94849 0.03065 0.0
O292 O 0.53125 0.9306 0.05879 0.0
O293 O 0.53744 0.05616 0.08657 0.0
C294 C 0.56099 0.11303 0.94465 0.0
C295 C 0.47805 0.9122 0.05823 0.0
Zn296 Zn 0.50846 0.44321 0.45327 0.0
Zn297 Zn 0.47485 0.55053 0.52313 0.0
C298 C 0.59552 0.51123 0.37263 0.0
O299 O 0.5667 0.47348 0.33797 0.0
C300 C 0.39199 0.50359 0.62095 0.0
O301 O 0.42688 0.54412 0.64736 0.0
O302 O 0.53062 0.36676 0.4199 0.0
O303 O 0.49828 0.42023 0.54471 0.0
O304 O 0.54132 0.51371 0.55957 0.0
C305 C 0.57559 0.34871 0.43913 0.0
O306 O 0.60131 0.37666 0.48282 0.0
O307 O 0.57764 0.51023 0.42837 0.0
C308 C 0.44505 0.6729 0.52978 0.0
O309 O 0.41625 0.65848 0.48229 0.0
O310 O 0.47553 0.63477 0.55378 0.0
O311 O 0.46805 0.56685 0.43014 0.0
O312 O 0.44375 0.47009 0.40723 0.0
O313 O 0.40309 0.4965 0.56497 0.0
C314 C 0.53213 0.45438 0.57492 0.0
C315 C 0.4454 0.52913 0.39419 0.0
Zn316 Zn 0.9508 0.54077 0.94091 0.0
Zn317 Zn 0.03986 0.47382 0.06355 0.0
C318 C 0.87613 0.4907 0.85269 0.0
O319 O 0.91547 0.52605 0.81467 0.0
C320 C 0.1303 0.55258 0.10547 0.0
O321 O 0.09638 0.53432 0.15521 0.0
O322 O 0.9541 0.62933 0.90518 0.0
O323 O 0.93721 0.54692 0.03129 0.0
O324 O 0.98003 0.50875 0.11044 0.0
C325 C 0.90834 0.65138 0.91184 0.0
O326 O 0.86204 0.61342 0.93487 0.0
O327 O 0.88211 0.48832 0.9102 0.0
C328 C 0.10466 0.38343 0.09359 0.0
O329 O 0.12644 0.40972 0.03909 0.0
O330 O 0.06205 0.40275 0.11725 0.0
O331 O 0.0187 0.43537 0.98534 0.0
O332 O 0.022 0.51167 0.91004 0.0
O333 O 0.1132 0.53682 0.0543 0.0
C334 C 0.94268 0.53921 0.08884 0.0
C335 C 0.03898 0.46191 0.93272 0.0
loop_
_geom_bond_atom_site_label_1
_geom_bond_atom_site_label_2
_geom_bond_distance
_geom_bond_site_symmetry_2
_ccdc_geom_bond_type
P0 O11 1.490 . S
P0 C14 1.812 . S
P0 C20 1.803 . S
P0 C26 1.819 . S
H1 C15 0.941 . S
H2 C16 0.939 . S
H3 C18 0.940 . S
H4 C19 0.940 . S
H5 C21 0.939 . S
H6 C22 0.942 . S
H7 C24 0.940 . S
H8 C25 0.939 . S
H9 C27 0.941 . S
H10 C31 0.939 . S
O11 P0 1.490 . S
H12 C28 0.939 . S
H13 C30 0.940 . S
C14 P0 1.812 . S
C14 C15 1.389 . S
C14 C19 1.391 . S
C15 H1 0.941 . S
C15 C14 1.389 . S
C15 C16 1.397 . S
C16 H2 0.939 . S
C16 C15 1.397 . S
C16 C17 1.378 . S
C17 C16 1.378 . S
C17 C18 1.378 . S
C18 H3 0.940 . S
C18 C17 1.378 . S
C18 C19 1.396 . S
C19 H4 0.940 . S
C19 C14 1.391 . S
C19 C18 1.396 . S
C20 P0 1.803 . S
C20 C21 1.378 . S
C20 C25 1.400 . S
C21 H5 0.939 . S
C21 C20 1.378 . S
C21 C22 1.361 . S
C22 H6 0.942 . S
C22 C21 1.361 . S
C22 C23 1.369 . S
C23 C22 1.369 . S
C23 C24 1.404 . S
C24 H7 0.940 . S
C24 C23 1.404 . S
C24 C25 1.389 . S
C25 H8 0.939 . S
C25 C20 1.400 . S
C25 C24 1.389 . S
C26 P0 1.819 . S
C26 C27 1.391 . S
C26 C31 1.391 . S
C27 H9 0.941 . S
C27 C26 1.391 . S
C27 C28 1.396 . S
C28 H12 0.939 . S
C28 C27 1.396 . S
C28 C29 1.397 . S
C29 C28 1.397 . S
C29 C30 1.385 . S
C30 H13 0.940 . S
C30 C29 1.385 . S
C30 C31 1.388 . S
C31 H10 0.939 . S
C31 C26 1.391 . S
C31 C30 1.388 . S
P32 O43 1.490 . S
P32 C46 1.812 . S
P32 C52 1.803 . S
P32 C58 1.819 . S
H33 C47 0.941 . S
H34 C48 0.939 . S
H35 C50 0.940 . S
H36 C51 0.940 . S
H37 C53 0.939 . S
H38 C54 0.942 . S
H39 C56 0.940 . S
H40 C57 0.939 . S
H41 C59 0.941 . S
H42 C63 0.939 . S
O43 P32 1.490 . S
H44 C60 0.939 1_545 S
H45 C62 0.940 . S
C46 P32 1.812 . S
C46 C47 1.389 . S
C46 C51 1.391 . S
C47 H33 0.941 . S
C47 C46 1.389 . S
C47 C48 1.397 . S
C48 H34 0.939 . S
C48 C47 1.397 . S
C48 C49 1.378 . S
C49 C48 1.378 . S
C49 C50 1.378 . S
C50 H35 0.940 . S
C50 C49 1.378 . S
C50 C51 1.396 . S
C51 H36 0.940 . S
C51 C46 1.391 . S
C51 C50 1.396 . S
C52 P32 1.803 . S
C52 C53 1.378 . S
C52 C57 1.400 . S
C53 H37 0.939 . S
C53 C52 1.378 . S
C53 C54 1.361 . S
C54 H38 0.942 . S
C54 C53 1.361 . S
C54 C55 1.369 . S
C55 C54 1.369 . S
C55 C56 1.404 . S
C56 H39 0.940 . S
C56 C55 1.404 . S
C56 C57 1.389 . S
C57 H40 0.939 . S
C57 C52 1.400 . S
C57 C56 1.389 . S
C58 P32 1.819 . S
C58 C59 1.391 . S
C58 C63 1.391 . S
C59 H41 0.941 . S
C59 C58 1.391 . S
C59 C60 1.396 . S
C60 H44 0.939 1_565 S
C60 C59 1.396 . S
C60 C61 1.397 . S
C61 C60 1.397 . S
C61 C62 1.385 . S
C62 H45 0.940 . S
C62 C61 1.385 . S
C62 C63 1.388 . S
C63 H42 0.939 . S
C63 C58 1.391 . S
C63 C62 1.388 . S
P64 O75 1.490 . S
P64 C78 1.812 . S
P64 C84 1.803 . S
P64 C90 1.819 . S
H65 C79 0.941 . S
H66 C80 0.939 . S
H67 C82 0.940 . S
H68 C83 0.940 . S
H69 C85 0.939 . S
H70 C86 0.942 . S
H71 C88 0.940 . S
H72 C89 0.939 . S
H73 C91 0.941 . S
H74 C95 0.939 . S
O75 P64 1.490 . S
H76 C92 0.939 . S
H77 C94 0.940 . S
C78 P64 1.812 . S
C78 C79 1.389 . S
C78 C83 1.391 . S
C79 H65 0.941 . S
C79 C78 1.389 . S
C79 C80 1.397 . S
C80 H66 0.939 . S
C80 C79 1.397 . S
C80 C81 1.378 . S
C81 C80 1.378 . S
C81 C82 1.378 . S
C82 H67 0.940 . S
C82 C81 1.378 . S
C82 C83 1.396 . S
C83 H68 0.940 . S
C83 C78 1.391 . S
C83 C82 1.396 . S
C84 P64 1.803 . S
C84 C85 1.378 . S
C84 C89 1.400 . S
C85 H69 0.939 . S
C85 C84 1.378 . S
C85 C86 1.361 . S
C86 H70 0.942 . S
C86 C85 1.361 . S
C86 C87 1.369 . S
C87 C86 1.369 . S
C87 C88 1.404 . S
C88 H71 0.940 . S
C88 C87 1.404 . S
C88 C89 1.389 . S
C89 H72 0.939 . S
C89 C84 1.400 . S
C89 C88 1.389 . S
C90 P64 1.819 . S
C90 C91 1.391 . S
C90 C95 1.391 . S
C91 H73 0.941 . S
C91 C90 1.391 . S
C91 C92 1.396 . S
C92 H76 0.939 . S
C92 C91 1.396 . S
C92 C93 1.397 . S
C93 C92 1.397 . S
C93 C94 1.385 . S
C94 H77 0.940 . S
C94 C93 1.385 . S
C94 C95 1.388 . S
C95 H74 0.939 . S
C95 C90 1.391 . S
C95 C94 1.388 . S
P96 O107 1.490 . S
P96 C110 1.812 . S
P96 C116 1.803 . S
P96 C122 1.819 . S
H97 C111 0.941 . S
H98 C112 0.939 . S
H99 C114 0.940 . S
H100 C115 0.940 . S
H101 C117 0.939 . S
H102 C118 0.942 . S
H103 C120 0.940 . S
H104 C121 0.939 . S
H105 C123 0.941 . S
H106 C127 0.939 . S
O107 P96 1.490 . S
H108 C124 0.939 . S
H109 C126 0.940 . S
C110 P96 1.812 . S
C110 C111 1.389 . S
C110 C115 1.391 . S
C111 H97 0.941 . S
C111 C110 1.389 . S
C111 C112 1.397 . S
C112 H98 0.939 . S
C112 C111 1.397 . S
C112 C113 1.378 . S
C113 C112 1.378 . S
C113 C114 1.378 . S
C114 H99 0.940 . S
C114 C113 1.378 . S
C114 C115 1.396 . S
C115 H100 0.940 . S
C115 C110 1.391 . S
C115 C114 1.396 . S
C116 P96 1.803 . S
C116 C117 1.378 . S
C116 C121 1.400 . S
C117 H101 0.939 . S
C117 C116 1.378 . S
C117 C118 1.361 . S
C118 H102 0.942 . S
C118 C117 1.361 . S
C118 C119 1.369 . S
C119 C118 1.369 . S
C119 C120 1.404 . S
C120 H103 0.940 . S
C120 C119 1.404 . S
C120 C121 1.389 . S
C121 H104 0.939 . S
C121 C116 1.400 . S
C121 C120 1.389 . S
C122 P96 1.819 . S
C122 C123 1.391 . S
C122 C127 1.391 . S
C123 H105 0.941 . S
C123 C122 1.391 . S
C123 C124 1.396 . S
C124 H108 0.939 . S
C124 C123 1.396 . S
C124 C125 1.397 . S
C125 C124 1.397 . S
C125 C126 1.385 . S
C126 H109 0.940 . S
C126 C125 1.385 . S
C126 C127 1.388 . S
C127 H106 0.939 . S
C127 C122 1.391 . S
C127 C126 1.388 . S
P128 O139 1.490 . S
P128 C142 1.812 . S
P128 C148 1.803 . S
P128 C154 1.819 . S
H129 C143 0.941 . S
H130 C144 0.939 . S
H131 C146 0.940 . S
H132 C147 0.940 . S
H133 C149 0.939 . S
H134 C150 0.942 . S
H135 C152 0.940 . S
H136 C153 0.939 . S
H137 C155 0.941 . S
H138 C159 0.939 . S
O139 P128 1.490 . S
H140 C156 0.939 1_545 S
H141 C158 0.940 . S
C142 P128 1.812 . S
C142 C143 1.389 . S
C142 C147 1.391 . S
C143 H129 0.941 . S
C143 C142 1.389 . S
C143 C144 1.397 . S
C144 H130 0.939 . S
C144 C143 1.397 . S
C144 C145 1.378 . S
C145 C144 1.378 . S
C145 C146 1.378 . S
C146 H131 0.940 . S
C146 C145 1.378 . S
C146 C147 1.396 . S
C147 H132 0.940 . S
C147 C142 1.391 . S
C147 C146 1.396 . S
C148 P128 1.803 . S
C148 C149 1.378 . S
C148 C153 1.400 . S
C149 H133 0.939 . S
C149 C148 1.378 . S
C149 C150 1.361 . S
C150 H134 0.942 . S
C150 C149 1.361 . S
C150 C151 1.369 . S
C151 C150 1.369 . S
C151 C152 1.404 . S
C152 H135 0.940 . S
C152 C151 1.404 . S
C152 C153 1.389 . S
C153 H136 0.939 . S
C153 C148 1.400 . S
C153 C152 1.389 . S
C154 P128 1.819 . S
C154 C155 1.391 . S
C154 C159 1.391 . S
C155 H137 0.941 . S
C155 C154 1.391 . S
C155 C156 1.396 . S
C156 H140 0.939 1_565 S
C156 C155 1.396 . S
C156 C157 1.397 . S
C157 C156 1.397 . S
C157 C158 1.385 . S
C158 H141 0.940 . S
C158 C157 1.385 . S
C158 C159 1.388 . S
C159 H138 0.939 . S
C159 C154 1.391 . S
C159 C158 1.388 . S
P160 O171 1.490 . S
P160 C174 1.812 . S
P160 C180 1.803 . S
P160 C186 1.819 . S
H161 C175 0.941 . S
H162 C176 0.939 . S
H163 C178 0.940 . S
H164 C179 0.940 . S
H165 C181 0.939 . S
H166 C182 0.942 . S
H167 C184 0.940 . S
H168 C185 0.939 . S
H169 C187 0.941 . S
H170 C191 0.939 . S
O171 P160 1.490 . S
H172 C188 0.939 . S
H173 C190 0.940 . S
C174 P160 1.812 . S
C174 C175 1.389 . S
C174 C179 1.391 . S
C175 H161 0.941 . S
C175 C174 1.389 . S
C175 C176 1.397 . S
C176 H162 0.939 . S
C176 C175 1.397 . S
C176 C177 1.378 . S
C177 C176 1.378 . S
C177 C178 1.378 . S
C178 H163 0.940 . S
C178 C177 1.378 . S
C178 C179 1.396 . S
C179 H164 0.940 . S
C179 C174 1.391 . S
C179 C178 1.396 . S
C180 P160 1.803 . S
C180 C181 1.378 . S
C180 C185 1.400 . S
C181 H165 0.939 . S
C181 C180 1.378 . S
C181 C182 1.361 . S
C182 H166 0.942 . S
C182 C181 1.361 . S
C182 C183 1.369 . S
C183 C182 1.369 . S
C183 C184 1.404 . S
C184 H167 0.940 . S
C184 C183 1.404 . S
C184 C185 1.389 . S
C185 H168 0.939 . S
C185 C180 1.400 . S
C185 C184 1.389 . S
C186 P160 1.819 . S
C186 C187 1.391 . S
C186 C191 1.391 . S
C187 H169 0.941 . S
C187 C186 1.391 . S
C187 C188 1.396 . S
C188 H172 0.939 . S
C188 C187 1.396 . S
C188 C189 1.397 . S
C189 C188 1.397 . S
C189 C190 1.385 . S
C190 H173 0.940 . S
C190 C189 1.385 . S
C190 C191 1.388 . S
C191 H170 0.939 . S
C191 C186 1.391 . S
C191 C190 1.388 . S
P192 O203 1.490 . S
P192 C206 1.812 . S
P192 C212 1.803 . S
P192 C218 1.819 . S
H193 C207 0.941 . S
H194 C208 0.939 . S
H195 C210 0.940 . S
H196 C211 0.940 . S
H197 C213 0.939 . S
H198 C214 0.942 . S
H199 C216 0.940 . S
H200 C217 0.939 . S
H201 C219 0.941 . S
H202 C223 0.939 . S
O203 P192 1.490 . S
H204 C220 0.939 . S
H205 C222 0.940 . S
C206 P192 1.812 . S
C206 C207 1.389 . S
C206 C211 1.391 . S
C207 H193 0.941 . S
C207 C206 1.389 . S
C207 C208 1.397 . S
C208 H194 0.939 . S
C208 C207 1.397 . S
C208 C209 1.378 . S
C209 C208 1.378 . S
C209 C210 1.378 . S
C210 H195 0.940 . S
C210 C209 1.378 . S
C210 C211 1.396 . S
C211 H196 0.940 . S
C211 C206 1.391 . S
C211 C210 1.396 . S
C212 P192 1.803 . S
C212 C213 1.378 . S
C212 C217 1.400 . S
C213 H197 0.939 . S
C213 C212 1.378 . S
C213 C214 1.361 . S
C214 H198 0.942 . S
C214 C213 1.361 . S
C214 C215 1.369 . S
C215 C214 1.369 . S
C215 C216 1.404 . S
C216 H199 0.940 . S
C216 C215 1.404 . S
C216 C217 1.389 . S
C217 H200 0.939 . S
C217 C212 1.400 . S
C217 C216 1.389 . S
C218 P192 1.819 . S
C218 C219 1.391 . S
C218 C223 1.391 . S
C219 H201 0.941 . S
C219 C218 1.391 . S
C219 C220 1.396 . S
C220 H204 0.939 . S
C220 C219 1.396 . S
C220 C221 1.397 . S
C221 C220 1.397 . S
C221 C222 1.385 . S
C222 H205 0.940 . S
C222 C221 1.385 . S
C222 C223 1.388 . S
C223 H202 0.939 . S
C223 C218 1.391 . S
C223 C222 1.388 . S
P224 O235 1.490 . S
P224 C238 1.812 . S
P224 C244 1.803 . S
P224 C250 1.819 . S
H225 C239 0.941 . S
H226 C240 0.939 . S
H227 C242 0.940 . S
H228 C243 0.940 . S
H229 C245 0.939 . S
H230 C246 0.942 . S
H231 C248 0.940 . S
H232 C249 0.939 . S
H233 C251 0.941 . S
H234 C255 0.939 . S
O235 P224 1.490 . S
H236 C252 0.939 . S
H237 C254 0.940 . S
C238 P224 1.812 . S
C238 C239 1.389 . S
C238 C243 1.391 . S
C239 H225 0.941 . S
C239 C238 1.389 . S
C239 C240 1.397 . S
C240 H226 0.939 . S
C240 C239 1.397 . S
C240 C241 1.378 . S
C241 C240 1.378 . S
C241 C242 1.378 . S
C242 H227 0.940 . S
C242 C241 1.378 . S
C242 C243 1.396 . S
C243 H228 0.940 . S
C243 C238 1.391 . S
C243 C242 1.396 . S
C244 P224 1.803 . S
C244 C245 1.378 . S
C244 C249 1.400 . S
C245 H229 0.939 . S
C245 C244 1.378 . S
C245 C246 1.361 . S
C246 H230 0.942 . S
C246 C245 1.361 . S
C246 C247 1.369 . S
C247 C246 1.369 . S
C247 C248 1.404 . S
C248 H231 0.940 . S
C248 C247 1.404 . S
C248 C249 1.389 . S
C249 H232 0.939 . S
C249 C244 1.400 . S
C249 C248 1.389 . S
C250 P224 1.819 . S
C250 C251 1.391 . S
C250 C255 1.391 . S
C251 H233 0.941 . S
C251 C250 1.391 . S
C251 C252 1.396 . S
C252 H236 0.939 . S
C252 C251 1.396 . S
C252 C253 1.397 . S
C253 C252 1.397 . S
C253 C254 1.385 . S
C254 H237 0.940 . S
C254 C253 1.385 . S
C254 C255 1.388 . S
C255 H234 0.939 . S
C255 C250 1.391 . S
C255 C254 1.388 . S
Zn256 O262 1.969 1_545 S
Zn256 O263 1.965 1_545 S
Zn256 O267 2.024 . S
Zn256 O272 1.969 . S
Zn257 O264 1.969 . S
Zn257 O270 1.969 1_565 S
Zn257 O271 1.965 1_665 S
Zn257 O273 2.024 . S
C258 O259 1.229 . S
C258 O267 1.058 . S
O259 C258 1.229 . S
C260 O261 1.229 . S
C260 O273 1.058 . S
O261 C260 1.229 . S
O262 Zn256 1.969 1_565 S
O262 C265 1.267 . S
O263 Zn256 1.965 1_565 S
O263 C274 1.260 1_455 S
O264 Zn257 1.969 . S
O264 C274 1.258 . S
C265 O262 1.267 . S
C265 O266 1.228 . S
O266 C265 1.228 . S
O267 Zn256 2.024 . S
O267 C258 1.058 . S
C268 O269 1.228 . S
C268 O270 1.267 . S
O269 C268 1.228 . S
O270 Zn257 1.969 1_545 S
O270 C268 1.267 . S
O271 Zn257 1.965 1_445 S
O271 C275 1.260 . S
O272 Zn256 1.969 . S
O272 C275 1.258 . S
O273 Zn257 2.024 . S
O273 C260 1.058 . S
C274 O263 1.260 1_655 S
C274 O264 1.258 . S
C275 O271 1.260 . S
C275 O272 1.258 . S
Zn276 O282 1.969 . S
Zn276 O283 1.965 1_565 S
Zn276 O287 2.024 . S
Zn276 O292 1.969 1_556 S
Zn277 O284 1.969 . S
Zn277 O290 1.969 . S
Zn277 O291 1.965 1_545 S
Zn277 O293 2.024 . S
C278 O279 1.229 . S
C278 O287 1.058 . S
O279 C278 1.229 . S
C280 O281 1.229 . S
C280 O293 1.058 . S
O281 C280 1.229 . S
O282 Zn276 1.969 . S
O282 C285 1.267 . S
O283 Zn276 1.965 1_545 S
O283 C294 1.260 . S
O284 Zn277 1.969 . S
O284 C294 1.258 1_554 S
C285 O282 1.267 . S
C285 O286 1.228 . S
O286 C285 1.228 . S
O287 Zn276 2.024 . S
O287 C278 1.058 . S
C288 O289 1.228 . S
C288 O290 1.267 . S
O289 C288 1.228 . S
O290 Zn277 1.969 . S
O290 C288 1.267 . S
O291 Zn277 1.965 1_565 S
O291 C295 1.260 . S
O292 Zn276 1.969 1_554 S
O292 C295 1.258 . S
O293 Zn277 2.024 . S
O293 C280 1.058 . S
C294 O283 1.260 . S
C294 O284 1.258 1_556 S
C295 O291 1.260 . S
C295 O292 1.258 . S
Zn296 O302 1.969 . S
Zn296 O303 1.965 . S
Zn296 O307 2.024 . S
Zn296 O312 1.969 . S
Zn297 O304 1.969 . S
Zn297 O310 1.969 . S
Zn297 O311 1.965 . S
Zn297 O313 2.024 . S
C298 O299 1.229 . S
C298 O307 1.058 . S
O299 C298 1.229 . S
C300 O301 1.229 . S
C300 O313 1.058 . S
O301 C300 1.229 . S
O302 Zn296 1.969 . S
O302 C305 1.267 . S
O303 Zn296 1.965 . S
O303 C314 1.260 . S
O304 Zn297 1.969 . S
O304 C314 1.258 . S
C305 O302 1.267 . S
C305 O306 1.228 . S
O306 C305 1.228 . S
O307 Zn296 2.024 . S
O307 C298 1.058 . S
C308 O309 1.228 . S
C308 O310 1.267 . S
O309 C308 1.228 . S
O310 Zn297 1.969 . S
O310 C308 1.267 . S
O311 Zn297 1.965 . S
O311 C315 1.260 . S
O312 Zn296 1.969 . S
O312 C315 1.258 . S
O313 Zn297 2.024 . S
O313 C300 1.058 . S
C314 O303 1.260 . S
C314 O304 1.258 . S
C315 O311 1.260 . S
C315 O312 1.258 . S
Zn316 O322 1.969 . S
Zn316 O323 1.965 1_556 S
Zn316 O327 2.024 . S
Zn316 O332 1.969 1_655 S
Zn317 O324 1.969 . S
Zn317 O330 1.969 . S
Zn317 O331 1.965 1_554 S
Zn317 O333 2.024 . S
C318 O319 1.229 . S
C318 O327 1.058 . S
O319 C318 1.229 . S
C320 O321 1.229 . S
C320 O333 1.058 . S
O321 C320 1.229 . S
O322 Zn316 1.969 . S
O322 C325 1.267 . S
O323 Zn316 1.965 1_554 S
O323 C334 1.260 . S
O324 Zn317 1.969 . S
O324 C334 1.258 1_455 S
C325 O322 1.267 . S
C325 O326 1.228 . S
O326 C325 1.228 . S
O327 Zn316 2.024 . S
O327 C318 1.058 . S
C328 O329 1.228 . S
C328 O330 1.267 . S
O329 C328 1.228 . S
O330 Zn317 1.969 . S
O330 C328 1.267 . S
O331 Zn317 1.965 1_556 S
O331 C335 1.260 . S
O332 Zn316 1.969 1_455 S
O332 C335 1.258 . S
O333 Zn317 2.024 . S
O333 C320 1.058 . S
C334 O323 1.260 . S
C334 O324 1.258 1_655 S
C335 O331 1.260 . S
C335 O332 1.258 . S
C29 C275 1.829 . S
C49 C278 1.157 . S
C314 C93 2.267 . S
C119 C334 2.091 . S
C288 C17 1.669 . S
C265 C61 1.576 . S
C318 C81 1.816 . S
C298 C125 1.707 . S
C23 C328 1.335 . S
C294 C87 1.953 . S
C113 C260 1.915 . S
C55 C308 1.123 . S
C274 C157 1.419 . S
C189 C280 1.437 . S
C221 C315 2.130 . S
C253 C335 2.180 . S
C145 C285 1.620 . S
C268 C183 1.421 . S
C320 C209 1.711 . S
C300 C247 1.693 . S
C151 C325 1.053 . S
C295 C215 1.830 . S
C258 C241 1.952 . S
C177 C305 1.096 . S
