# Generated by pormake.
# Topology ptr, (4,4)-cn, num edge types: 1
# Building blocks:
#     Node 0, Type 0, BuildingBlock: NAHDIM_clean_sbu_0, # of connection points: 4
#     Node 1, Type 0, BuildingBlock: NAHDIM_clean_sbu_0, # of connection points: 4
#     Node 2, Type 0, BuildingBlock: NAHDIM_clean_sbu_0, # of connection points: 4
#     Node 3, Type 0, BuildingBlock: NAHDIM_clean_sbu_0, # of connection points: 4
#     Node 4, Type 0, BuildingBlock: NAHDIM_clean_sbu_0, # of connection points: 4
#     Node 5, Type 0, BuildingBlock: NAHDIM_clean_sbu_0, # of connection points: 4
#     Node 6, Type 0, BuildingBlock: NAHDIM_clean_sbu_0, # of connection points: 4
#     Node 7, Type 0, BuildingBlock: NAHDIM_clean_sbu_0, # of connection points: 4
#     Node 8, Type 0, BuildingBlock: NAHDIM_clean_sbu_0, # of connection points: 4
#     Node 9, Type 0, BuildingBlock: NAHDIM_clean_sbu_0, # of connection points: 4
#     Node 10, Type 0, BuildingBlock: NAHDIM_clean_sbu_0, # of connection points: 4
#     Node 11, Type 0, BuildingBlock: NAHDIM_clean_sbu_0, # of connection points: 4
#     Node 12, Type 0, BuildingBlock: NAHDIM_clean_sbu_0, # of connection points: 4
#     Node 13, Type 0, BuildingBlock: NAHDIM_clean_sbu_0, # of connection points: 4
#     Node 14, Type 0, BuildingBlock: NAHDIM_clean_sbu_0, # of connection points: 4
#     Node 15, Type 0, BuildingBlock: NAHDIM_clean_sbu_0, # of connection points: 4
#     Node 16, Type 0, BuildingBlock: NAHDIM_clean_sbu_0, # of connection points: 4
#     Node 17, Type 0, BuildingBlock: NAHDIM_clean_sbu_0, # of connection points: 4
#     Node 18, Type 1, BuildingBlock: MIFKUJ_clean_linker_1, # of connection points: 4
#     Node 19, Type 1, BuildingBlock: MIFKUJ_clean_linker_1, # of connection points: 4
#     Node 20, Type 1, BuildingBlock: MIFKUJ_clean_linker_1, # of connection points: 4
#     Node 21, Type 1, BuildingBlock: MIFKUJ_clean_linker_1, # of connection points: 4
#     Node 22, Type 1, BuildingBlock: MIFKUJ_clean_linker_1, # of connection points: 4
#     Node 23, Type 1, BuildingBlock: MIFKUJ_clean_linker_1, # of connection points: 4
#     Node 24, Type 1, BuildingBlock: MIFKUJ_clean_linker_1, # of connection points: 4
#     Node 25, Type 1, BuildingBlock: MIFKUJ_clean_linker_1, # of connection points: 4
#     Node 26, Type 1, BuildingBlock: MIFKUJ_clean_linker_1, # of connection points: 4
#     Node 27, Type 1, BuildingBlock: MIFKUJ_clean_linker_1, # of connection points: 4
#     Node 28, Type 1, BuildingBlock: MIFKUJ_clean_linker_1, # of connection points: 4
#     Node 29, Type 1, BuildingBlock: MIFKUJ_clean_linker_1, # of connection points: 4
#     Node 30, Type 1, BuildingBlock: MIFKUJ_clean_linker_1, # of connection points: 4
#     Node 31, Type 1, BuildingBlock: MIFKUJ_clean_linker_1, # of connection points: 4
#     Node 32, Type 1, BuildingBlock: MIFKUJ_clean_linker_1, # of connection points: 4
#     Node 33, Type 1, BuildingBlock: MIFKUJ_clean_linker_1, # of connection points: 4
#     Node 34, Type 1, BuildingBlock: MIFKUJ_clean_linker_1, # of connection points: 4
#     Node 35, Type 1, BuildingBlock: MIFKUJ_clean_linker_1, # of connection points: 4
#     Edge 36, Type (0, 1), None
#     Edge 37, Type (0, 1), None
#     Edge 38, Type (0, 1), None
#     Edge 39, Type (0, 1), None
#     Edge 40, Type (0, 1), None
#     Edge 41, Type (0, 1), None
#     Edge 42, Type (0, 1), None
#     Edge 43, Type (0, 1), None
#     Edge 44, Type (0, 1), None
#     Edge 45, Type (0, 1), None
#     Edge 46, Type (0, 1), None
#     Edge 47, Type (0, 1), None
#     Edge 48, Type (0, 1), None
#     Edge 49, Type (0, 1), None
#     Edge 50, Type (0, 1), None
#     Edge 51, Type (0, 1), None
#     Edge 52, Type (0, 1), None
#     Edge 53, Type (0, 1), None
#     Edge 54, Type (0, 1), None
#     Edge 55, Type (0, 1), None
#     Edge 56, Type (0, 1), None
#     Edge 57, Type (0, 1), None
#     Edge 58, Type (0, 1), None
#     Edge 59, Type (0, 1), None
#     Edge 60, Type (0, 1), None
#     Edge 61, Type (0, 1), None
#     Edge 62, Type (0, 1), None
#     Edge 63, Type (0, 1), None
#     Edge 64, Type (0, 1), None
#     Edge 65, Type (0, 1), None
#     Edge 66, Type (0, 1), None
#     Edge 67, Type (0, 1), None
#     Edge 68, Type (0, 1), None
#     Edge 69, Type (0, 1), None
#     Edge 70, Type (0, 1), None
#     Edge 71, Type (0, 1), None
#     Edge 72, Type (0, 1), None
#     Edge 73, Type (0, 1), None
#     Edge 74, Type (0, 1), None
#     Edge 75, Type (0, 1), None
#     Edge 76, Type (0, 1), None
#     Edge 77, Type (0, 1), None
#     Edge 78, Type (0, 1), None
#     Edge 79, Type (0, 1), None
#     Edge 80, Type (0, 1), None
#     Edge 81, Type (0, 1), None
#     Edge 82, Type (0, 1), None
#     Edge 83, Type (0, 1), None
#     Edge 84, Type (0, 1), None
#     Edge 85, Type (0, 1), None
#     Edge 86, Type (0, 1), None
#     Edge 87, Type (0, 1), None
#     Edge 88, Type (0, 1), None
#     Edge 89, Type (0, 1), None
#     Edge 90, Type (0, 1), None
#     Edge 91, Type (0, 1), None
#     Edge 92, Type (0, 1), None
#     Edge 93, Type (0, 1), None
#     Edge 94, Type (0, 1), None
#     Edge 95, Type (0, 1), None
#     Edge 96, Type (0, 1), None
#     Edge 97, Type (0, 1), None
#     Edge 98, Type (0, 1), None
#     Edge 99, Type (0, 1), None
#     Edge 100, Type (0, 1), None
#     Edge 101, Type (0, 1), None
#     Edge 102, Type (0, 1), None
#     Edge 103, Type (0, 1), None
#     Edge 104, Type (0, 1), None
#     Edge 105, Type (0, 1), None
#     Edge 106, Type (0, 1), None
#     Edge 107, Type (0, 1), None
# Relax obj value: 0.072
# Max RMSD: 0.250
# Mean RMSD: 0.110
data_MOF--net-ptr--node1-NAHDIM_clean_sbu_0--node2-MIFKUJ_clean_linker_1--edge1-none
_symmetry_space_group_name_H-M    P1
_symmetry_Int_Tables_number       1
_symmetry_cell_setting            triclinic
loop_
_symmetry_equiv_pos_as_xyz
'x, y, z'
_cell_length_a     50.174152
_cell_length_b     49.092248
_cell_length_c     32.499561
_cell_angle_alpha  92.386125
_cell_angle_beta   88.813177
_cell_angle_gamma 122.08881
loop_
_atom_site_label
_atom_site_type_symbol
_atom_site_fract_x
_atom_site_fract_y
_atom_site_fract_z
_atom_type_partial_charge
C0 C 0.02639 0.32203 0.05989 0.0
O1 O -0.00373 0.30408 0.06849 0.0
O2 O 0.96777 0.30645 0.99059 0.0
Zn3 Zn 0.00134 0.34981 0.01379 0.0
O4 O 0.98743 0.36649 0.06189 0.0
C5 C -0.00349 0.37741 0.94091 0.0
O6 O 0.96866 0.3507 0.94059 0.0
O7 O 0.0356 0.34476 0.03511 0.0
C8 C 0.96806 0.37553 0.05925 0.0
O9 O 0.95397 0.37177 0.02398 0.0
C10 C 0.93888 0.29091 1.00033 0.0
O11 O 0.9287 0.30277 0.02907 0.0
O12 O 0.016 0.38234 0.96908 0.0
C13 C 0.70872 0.6704 0.9801 0.0
O14 O 0.69778 0.68872 0.97219 0.0
O15 O 0.66081 0.68297 0.04323 0.0
Zn16 Zn 0.65106 0.64006 0.01949 0.0
O17 O 0.62356 0.6246 0.96875 0.0
C18 C 0.61292 0.61117 0.09001 0.0
O19 O 0.61226 0.63754 0.08956 0.0
O20 O 0.69227 0.64596 1.00191 0.0
C21 C 0.59512 0.61709 0.96856 0.0
O22 O 0.58275 0.62107 1.00255 0.0
C23 C 0.64995 0.69957 0.03154 0.0
O24 O 0.63032 0.68913 1.00033 0.0
O25 O 0.62908 0.60673 0.06295 0.0
C26 C 0.32106 0.03848 0.97458 0.0
O27 O 0.30223 0.00744 0.9668 0.0
O28 O 0.30735 0.98136 0.04667 0.0
Zn29 Zn 0.34875 0.01317 0.02033 0.0
O30 O 0.36108 -0.00464 0.97159 0.0
C31 C 0.38009 0.00999 0.09007 0.0
O32 O 0.35322 0.98234 0.09211 0.0
O33 O 0.34428 0.04816 0.99876 0.0
C34 C 0.37017 0.97579 0.97457 0.0
O35 O 0.36897 0.96384 0.01046 0.0
C36 C 0.29196 0.95126 0.03886 0.0
O37 O 0.30236 0.93925 0.01064 0.0
O38 O 0.38372 0.02922 0.06231 0.0
C39 C 0.95614 0.67035 0.96834 0.0
O40 O 0.98625 0.68829 0.95972 0.0
O41 O 0.01472 0.68597 0.03768 0.0
Zn42 Zn 0.98119 0.6426 0.01444 0.0
O43 O -0.00486 0.62596 0.96635 0.0
C44 C 0.98604 0.61502 0.08732 0.0
O45 O 0.01388 0.64173 0.08764 0.0
O46 O 0.94693 0.64762 0.99312 0.0
C47 C 0.01452 0.61693 0.96899 0.0
O48 O 0.02861 0.62068 1.00427 0.0
C49 C 0.04362 0.70153 0.02802 0.0
O50 O 0.05387 0.68968 0.99934 0.0
O51 O 0.96654 0.61007 0.05914 0.0
C52 C 0.27405 0.3225 0.04861 0.0
O53 O 0.28504 0.30422 0.05655 0.0
O54 O 0.3219 0.3099 0.98541 0.0
Zn55 Zn 0.33168 0.35282 0.00916 0.0
O56 O 0.35918 0.36826 0.05989 0.0
C57 C 0.36982 0.38171 0.93865 0.0
O58 O 0.37047 0.35533 0.93912 0.0
O59 O 0.29047 0.34692 0.02677 0.0
C60 C 0.38762 0.37576 0.06009 0.0
O61 O 0.39998 0.37177 0.0261 0.0
C62 C 0.33274 0.29329 0.99706 0.0
O63 O 0.35239 0.3037 0.02825 0.0
O64 O 0.35366 0.38615 0.96571 0.0
C65 C 0.66115 0.95412 0.0538 0.0
O66 O 0.67994 0.98517 0.06158 0.0
O67 O 0.67483 0.01118 0.98164 0.0
Zn68 Zn 0.63343 0.97935 0.00798 0.0
O69 O 0.62108 -0.00286 0.05673 0.0
C70 C 0.60206 0.9825 0.93826 0.0
O71 O 0.62891 0.01016 0.93623 0.0
O72 O 0.63795 0.94439 0.02958 0.0
C73 C 0.61198 0.0167 0.05375 0.0
O74 O 0.61319 0.02867 0.01788 0.0
C75 C 0.69022 0.04129 0.98946 0.0
O76 O 0.67982 0.05329 0.01769 0.0
O77 O 0.59845 0.96327 0.966 0.0
C78 C 0.69308 0.65577 0.3933 0.0
O79 O 0.66295 0.63789 0.4019 0.0
O80 O 0.63461 0.64027 0.32388 0.0
Zn81 Zn 0.66815 0.68361 0.34716 0.0
O82 O 0.65417 0.70022 0.39525 0.0
C83 C 0.66339 0.71131 0.27435 0.0
O84 O 0.63549 0.68467 0.27408 0.0
O85 O 0.70235 0.67851 0.36852 0.0
C86 C 0.63462 0.70904 0.39271 0.0
O87 O 0.62039 0.70512 0.3575 0.0
C88 C 0.60577 0.62456 0.33385 0.0
O89 O 0.59559 0.63623 0.36286 0.0
O90 O 0.68288 0.71618 0.3025 0.0
C91 C 0.37525 0.00352 0.31377 0.0
O92 O 0.36435 0.0219 0.30591 0.0
O93 O 0.32737 0.01622 0.37693 0.0
Zn94 Zn 0.31759 0.97327 0.35323 0.0
O95 O 0.29006 0.95779 0.30251 0.0
C96 C 0.27946 0.94444 0.4238 0.0
O97 O 0.27886 0.97084 0.42337 0.0
O98 O 0.35877 0.97911 0.3356 0.0
C99 C 0.26158 0.95016 0.30235 0.0
O100 O 0.24919 0.95406 0.33637 0.0
C101 C 0.31639 0.03273 0.36535 0.0
O102 O 0.29663 0.02219 0.33428 0.0
O103 O 0.29559 0.93997 0.39672 0.0
C104 C 0.98837 0.37197 0.30749 0.0
O105 O 0.96955 0.34093 0.29966 0.0
O106 O 0.97445 0.31491 0.37994 0.0
Zn107 Zn 0.01586 0.34663 0.35353 0.0
O108 O 0.02808 0.32871 0.30482 0.0
C109 C 0.0473 0.34343 0.42312 0.0
O110 O 0.02047 0.31572 0.42507 0.0
O111 O 0.01149 0.38164 0.33184 0.0
C112 C 0.03689 0.30891 0.30771 0.0
O113 O 0.03547 0.29676 0.34352 0.0
C114 C 0.95881 0.28486 0.37173 0.0
O115 O 0.96896 0.27288 0.34311 0.0
O116 O 0.05086 0.36269 0.39546 0.0
C117 C 0.62267 0.0035 0.30132 0.0
O118 O 0.65278 0.02149 0.29266 0.0
O119 O 0.68131 0.01927 0.37071 0.0
Zn120 Zn 0.64785 0.97588 0.34746 0.0
O121 O 0.66188 0.95933 0.29938 0.0
C122 C 0.65269 0.94827 0.42031 0.0
O123 O 0.68056 0.97496 0.4206 0.0
O124 O 0.61353 0.9808 0.32613 0.0
C125 C 0.68147 0.95057 0.30194 0.0
O126 O 0.69571 0.95451 0.33714 0.0
C127 C 0.71014 0.03502 0.36072 0.0
O128 O 0.72034 0.02337 0.33171 0.0
O129 O 0.6332 0.94335 0.39214 0.0
C130 C 0.94025 0.65523 0.38178 0.0
O131 O 0.95113 0.63684 0.38964 0.0
O132 O 0.98838 0.64279 0.31887 0.0
Zn133 Zn -0.00196 0.68567 0.34261 0.0
O134 O 0.02551 0.70116 0.39339 0.0
C135 C 0.03618 0.71458 0.27208 0.0
O136 O 0.0368 0.68818 0.27247 0.0
O137 O 0.9568 0.67973 0.3601 0.0
C138 C 0.05402 0.70889 0.39352 0.0
O139 O 0.06645 0.7051 0.35946 0.0
C140 C -0.00052 0.62635 0.33031 0.0
O141 O 0.01931 0.63693 0.36131 0.0
O142 O 0.02005 0.71902 0.29917 0.0
C143 C 0.32787 0.28745 0.3876 0.0
O144 O 0.3467 0.31849 0.39539 0.0
O145 O 0.34164 0.34451 0.31528 0.0
Zn146 Zn 0.30025 0.31275 0.34171 0.0
O147 O 0.28801 0.33064 0.39046 0.0
C148 C 0.26879 0.31595 0.27214 0.0
O149 O 0.2956 0.34366 0.27019 0.0
O150 O 0.3047 0.27776 0.36334 0.0
C151 C 0.27918 0.35043 0.38757 0.0
O152 O 0.28058 0.36256 0.35175 0.0
C153 C 0.35726 0.37457 0.32344 0.0
O154 O 0.3471 0.38655 0.35204 0.0
O155 O 0.26524 0.29668 0.2998 0.0
C156 C 0.35942 0.98896 0.72714 0.0
O157 O 0.32931 0.97096 0.73577 0.0
O158 O 0.3008 0.97332 0.65779 0.0
Zn159 Zn 0.3343 0.01668 0.68107 0.0
O160 O 0.3203 0.03327 0.72916 0.0
C161 C 0.32954 0.04435 0.60822 0.0
O162 O 0.30166 0.0177 0.60789 0.0
O163 O 0.36858 0.0117 0.70238 0.0
C164 C 0.30077 0.04212 0.72658 0.0
O165 O 0.28658 0.03824 0.69135 0.0
C166 C 0.27195 0.95763 0.66768 0.0
O167 O 0.26173 0.96933 0.6966 0.0
O168 O 0.349 0.04923 0.63641 0.0
C169 C 0.04201 0.33703 0.64646 0.0
O170 O 0.03111 0.35539 0.63857 0.0
O171 O -0.006 0.34956 0.70945 0.0
Zn172 Zn 0.98427 0.30665 0.68571 0.0
O173 O 0.95677 0.29118 0.63497 0.0
C174 C 0.94617 0.27781 0.75629 0.0
O175 O 0.9456 0.30424 0.7559 0.0
O176 O 0.02549 0.31255 0.66819 0.0
C177 C 0.92829 0.28354 0.63486 0.0
O178 O 0.91591 0.28739 0.66892 0.0
C179 C 0.98297 0.36605 0.69797 0.0
O180 O 0.96317 0.35551 0.66694 0.0
O181 O 0.96226 0.27333 0.72918 0.0
C182 C 0.65483 0.70541 0.64095 0.0
O183 O 0.63602 0.67437 0.63316 0.0
O184 O 0.64105 0.64835 0.71327 0.0
Zn185 Zn 0.68245 0.68012 0.68685 0.0
O186 O 0.69469 0.66222 0.63812 0.0
C187 C 0.71386 0.67691 0.75648 0.0
O188 O 0.68702 0.64923 0.75846 0.0
O189 O 0.678 0.71511 0.66521 0.0
C190 C 0.70353 0.64244 0.64103 0.0
O191 O 0.70214 0.63033 0.67687 0.0
C192 C 0.62545 0.61829 0.70515 0.0
O193 O 0.63563 0.60631 0.67658 0.0
O194 O 0.71745 0.69617 0.72879 0.0
C195 C 0.28959 0.33715 0.63528 0.0
O196 O 0.31971 0.3551 0.62671 0.0
O197 O 0.34811 0.35265 0.70465 0.0
Zn198 Zn 0.31457 0.3093 0.68136 0.0
O199 O 0.32854 0.29268 0.63327 0.0
C200 C 0.3193 0.2816 0.7542 0.0
O201 O 0.3472 0.30824 0.7545 0.0
O202 O 0.28036 0.31439 0.66001 0.0
C203 C 0.34804 0.28381 0.63584 0.0
O204 O 0.36223 0.28767 0.67107 0.0
C205 C 0.37697 0.36831 0.69475 0.0
O206 O 0.38716 0.35659 0.66582 0.0
O207 O 0.29983 0.27674 0.72603 0.0
C208 C 0.60693 0.98905 0.7146 0.0
O209 O 0.61786 0.97071 0.72247 0.0
O210 O 0.65489 0.97646 0.6515 0.0
Zn211 Zn 0.6646 0.01938 0.67516 0.0
O212 O 0.69213 0.0349 0.72588 0.0
C213 C 0.7027 0.04822 0.60456 0.0
O214 O 0.7033 0.02182 0.60498 0.0
O215 O 0.62338 0.01348 0.69278 0.0
C216 C 0.7206 0.04252 0.72603 0.0
O217 O 0.73298 0.03861 0.692 0.0
C218 C 0.66587 0.95996 0.66315 0.0
O219 O 0.68557 0.9705 0.69428 0.0
O220 O 0.68658 0.05269 0.63166 0.0
C221 C -0.00592 0.62041 0.72082 0.0
O222 O 0.01288 0.65145 0.72864 0.0
O223 O 0.00791 0.67748 0.64846 0.0
Zn224 Zn 0.9665 0.6457 0.67483 0.0
O225 O 0.95424 0.66358 0.72354 0.0
C226 C 0.9351 0.64887 0.60519 0.0
O227 O 0.96193 0.67656 0.60321 0.0
O228 O 0.97094 0.61072 0.69649 0.0
C229 C 0.94541 0.68336 0.72062 0.0
O230 O 0.94681 0.69548 0.68478 0.0
C231 C 0.02351 0.70753 0.6567 0.0
O232 O 0.01332 0.71945 0.68535 0.0
O233 O 0.93151 0.62962 0.63288 0.0
H234 H 0.09888 0.34273 0.19081 0.0
H235 H 0.06517 0.34706 0.24225 0.0
H236 H 0.04577 0.25898 0.29498 0.0
H237 H 0.07824 0.25375 0.24192 0.0
H238 H 0.13827 0.29232 0.23511 0.0
H239 H 0.12789 0.35084 0.09262 0.0
H240 H 0.09051 0.35937 0.05761 0.0
H241 H 0.01354 0.27185 0.10749 0.0
H242 H 0.05116 0.26302 0.14166 0.0
H243 H 0.18561 0.26112 0.12847 0.0
H244 H 0.23253 0.27025 0.09209 0.0
H245 H 0.24804 0.35937 0.0476 0.0
H246 H 0.20124 0.35028 0.08473 0.0
H247 H 0.1406 0.30646 0.08463 0.0
H248 H 0.16375 0.25548 0.23086 0.0
H249 H 0.20847 0.26293 0.27034 0.0
H250 H 0.26865 0.35511 0.2155 0.0
H251 H 0.22405 0.34793 0.17746 0.0
C252 C 0.09083 0.29764 0.21196 0.0
C253 C 0.08645 0.32364 0.21234 0.0
C254 C 0.06729 0.32622 0.24202 0.0
C255 C 0.05293 0.30339 0.27272 0.0
C256 C 0.05662 0.27696 0.27175 0.0
C257 C 0.07521 0.274 0.24148 0.0
C258 C 0.11432 0.29693 0.18404 0.0
C259 C 0.13814 0.29444 0.20202 0.0
C260 C 0.11547 0.30178 0.14115 0.0
C261 C 0.09232 0.30639 0.12001 0.0
C262 C 0.10295 0.33332 0.09573 0.0
C263 C 0.08157 0.33822 0.07578 0.0
C264 C 0.04909 0.31634 0.07987 0.0
C265 C 0.03845 0.28924 0.10391 0.0
C266 C 0.05989 0.2842 0.12361 0.0
C267 C 0.1902 0.30522 0.10974 0.0
C268 C 0.19901 0.28251 0.11068 0.0
C269 C 0.22584 0.28779 0.08984 0.0
C270 C 0.24418 0.31574 0.06736 0.0
C271 C 0.23445 0.33768 0.06477 0.0
C272 C 0.20764 0.33244 0.08582 0.0
C273 C 0.16404 0.30165 0.13581 0.0
C274 C 0.13999 0.30338 0.11758 0.0
C275 C 0.16343 0.29769 0.17874 0.0
C276 C 0.19064 0.30095 0.2008 0.0
C277 C 0.18668 0.27716 0.22725 0.0
C278 C 0.21225 0.28138 0.24962 0.0
C279 C 0.24215 0.30955 0.24595 0.0
C280 C 0.24604 0.33302 0.21891 0.0
C281 C 0.22053 0.3289 0.19691 0.0
H282 H 0.73098 0.90361 0.23584 0.0
H283 H 0.72873 0.93916 0.28897 0.0
H284 H 0.64145 0.91982 0.23717 0.0
H285 H 0.64294 0.8832 0.18565 0.0
H286 H 0.69158 0.84215 0.22912 0.0
H287 H 0.71967 0.92918 0.13572 0.0
H288 H 0.71134 0.96744 0.10129 0.0
H289 H 0.62301 0.88867 0.05236 0.0
H290 H 0.6311 0.85073 0.08757 0.0
H291 H 0.62988 0.77803 0.07516 0.0
H292 H 0.61844 0.73085 0.03264 0.0
H293 H 0.69982 0.73554 0.08322 0.0
H294 H 0.71198 0.78357 0.12444 0.0
H295 H 0.67317 0.8361 0.07893 0.0
H296 H 0.63302 0.75253 0.17232 0.0
H297 H 0.62489 0.70893 0.2145 0.0
H298 H 0.71699 0.77123 0.26882 0.0
H299 H 0.72529 0.81474 0.22548 0.0
C300 C 0.68734 0.89094 0.20632 0.0
C301 C 0.71154 0.90733 0.23565 0.0
C302 C 0.71026 0.92764 0.26598 0.0
C303 C 0.68493 0.93226 0.26723 0.0
C304 C 0.66145 0.917 0.23679 0.0
C305 C 0.6624 0.89619 0.20702 0.0
C306 C 0.68638 0.86573 0.17827 0.0
C307 C 0.6884 0.8413 0.19607 0.0
C308 C 0.68034 0.86353 0.13548 0.0
C309 C 0.67594 0.88712 0.11448 0.0
C310 C 0.69844 0.92021 0.11783 0.0
C311 C 0.69368 0.94201 0.09797 0.0
C312 C 0.6665 0.93104 0.07407 0.0
C313 C 0.64423 0.89788 0.07038 0.0
C314 C 0.64888 0.87617 0.09045 0.0
C315 C 0.67162 0.7842 0.10341 0.0
C316 C 0.64557 0.76922 0.07667 0.0
C317 C 0.639 0.74222 0.0524 0.0
C318 C 0.65812 0.72944 0.05482 0.0
C319 C 0.68449 0.74473 0.08102 0.0
C320 C 0.69138 0.77207 0.10477 0.0
C321 C 0.67779 0.81233 0.12994 0.0
C322 C 0.67703 0.83733 0.11187 0.0
C323 C 0.68327 0.81419 0.17283 0.0
C324 C 0.67991 0.78684 0.19535 0.0
C325 C 0.65183 0.75661 0.19246 0.0
C326 C 0.64714 0.73172 0.21688 0.0
C327 C 0.67025 0.73665 0.24522 0.0
C328 C 0.69874 0.76666 0.24731 0.0
C329 C 0.70349 0.79155 0.22263 0.0
H330 H 0.08211 0.81746 0.22165 0.0
H331 H 0.04444 0.77419 0.26563 0.0
H332 H 0.0743 0.71232 0.21293 0.0
H333 H 0.11215 0.75566 0.17005 0.0
H334 H 0.14437 0.8456 0.22506 0.0
H335 H 0.06584 0.78577 0.12038 0.0
H336 H 0.02944 0.73779 0.07884 0.0
H337 H 0.1076 0.73252 0.03064 0.0
H338 H 0.14372 0.77973 0.07325 0.0
H339 H 0.21599 0.85067 0.08374 0.0
H340 H 0.26221 0.88631 0.04333 0.0
H341 H 0.2583 0.96785 0.09011 0.0
H342 H 0.21112 0.9317 0.12972 0.0
H343 H 0.16022 0.83777 0.07521 0.0
H344 H 0.23686 0.88613 0.18308 0.0
H345 H 0.27344 0.92106 0.23726 0.0
H346 H 0.20432 0.94103 0.28507 0.0
H347 H 0.16824 0.90712 0.22969 0.0
C348 C 0.09972 0.78972 0.19221 0.0
C349 C 0.0802 0.79441 0.21929 0.0
C350 C 0.05867 0.76966 0.24436 0.0
C351 C 0.05645 0.73985 0.2429 0.0
C352 C 0.07537 0.73496 0.21485 0.0
C353 C 0.09691 0.75969 0.19 0.0
C354 C 0.12516 0.81695 0.16928 0.0
C355 C 0.14756 0.84438 0.19206 0.0
C356 C 0.12975 0.81463 0.1265 0.0
C357 C 0.10749 0.78619 0.10035 0.0
C358 C 0.07511 0.77415 0.10113 0.0
C359 C 0.05437 0.74684 0.07717 0.0
C360 C 0.06571 0.73141 0.05149 0.0
C361 C 0.09818 0.74399 0.04991 0.0
C362 C 0.11884 0.77101 0.07426 0.0
C363 C 0.21002 0.88848 0.10981 0.0
C364 C 0.22496 0.87623 0.08524 0.0
C365 C 0.25139 0.89662 0.06204 0.0
C366 C 0.26373 0.92983 0.06325 0.0
C367 C 0.24924 0.94229 0.08852 0.0
C368 C 0.22244 0.92173 0.11142 0.0
C369 C 0.18044 0.86575 0.13135 0.0
C370 C 0.15692 0.83942 0.10812 0.0
C371 C 0.1755 0.86862 0.17399 0.0
C372 C 0.19981 0.89415 0.20193 0.0
C373 C 0.22997 0.89898 0.20415 0.0
C374 C 0.25081 0.91878 0.23546 0.0
C375 C 0.2416 0.9335 0.26573 0.0
C376 C 0.21198 0.9298 0.26242 0.0
C377 C 0.19138 0.91048 0.2307 0.0
H378 H 0.25727 0.17818 0.80306 0.0
H379 H 0.26564 0.22173 0.75973 0.0
H380 H 0.35776 0.28391 0.81405 0.0
H381 H 0.34957 0.24028 0.85622 0.0
H382 H 0.2909 0.15069 0.79939 0.0
H383 H 0.27063 0.20934 0.90413 0.0
H384 H 0.28286 0.25739 0.94537 0.0
H385 H 0.36417 0.26191 0.99591 0.0
H386 H 0.35265 0.21472 0.95337 0.0
H387 H 0.35127 0.14193 0.94091 0.0
H388 H 0.35929 0.10392 0.97605 0.0
H389 H 0.27088 0.02526 0.92714 0.0
H390 H 0.26263 0.0636 0.89277 0.0
H391 H 0.30928 0.15667 0.94958 0.0
H392 H 0.33939 0.10948 0.84285 0.0
H393 H 0.3408 0.0728 0.79135 0.0
H394 H 0.2536 0.05365 0.73952 0.0
H395 H 0.25142 0.08925 0.79263 0.0
C396 C 0.30265 0.20603 0.8332 0.0
C397 C 0.2791 0.20136 0.80592 0.0
C398 C 0.28389 0.22627 0.78124 0.0
C399 C 0.3124 0.25626 0.78333 0.0
C400 C 0.33549 0.26115 0.81166 0.0
C401 C 0.33076 0.23624 0.83609 0.0
C402 C 0.29925 0.17865 0.8557 0.0
C403 C 0.29407 0.15153 0.83245 0.0
C404 C 0.30473 0.1805 0.89859 0.0
C405 C 0.31094 0.20863 0.92513 0.0
C406 C 0.29123 0.22081 0.92379 0.0
C407 C 0.29816 0.24816 0.94755 0.0
C408 C 0.32453 0.26341 0.97376 0.0
C409 C 0.34361 0.25058 0.97615 0.0
C410 C 0.33699 0.22357 0.95187 0.0
C411 C 0.30641 0.10561 0.91401 0.0
C412 C 0.33346 0.11651 0.93801 0.0
C413 C 0.33807 0.09475 0.95805 0.0
C414 C 0.31576 0.0616 0.95434 0.0
C415 C 0.28858 0.05068 0.93047 0.0
C416 C 0.28387 0.07253 0.91065 0.0
C417 C 0.30206 0.12924 0.89303 0.0
C418 C 0.30543 0.15545 0.91665 0.0
C419 C 0.29603 0.12706 0.85024 0.0
C420 C 0.29503 0.10183 0.82217 0.0
C421 C 0.31993 0.09652 0.82148 0.0
C422 C 0.32083 0.07568 0.79172 0.0
C423 C 0.29735 0.06045 0.76127 0.0
C424 C 0.27206 0.06514 0.76251 0.0
C425 C 0.27082 0.08548 0.79284 0.0
H426 H 0.81391 0.08538 0.7987 0.0
H427 H 0.77782 0.05155 0.7433 0.0
H428 H 0.7088 0.07165 0.79114 0.0
H429 H 0.7454 0.10652 0.84534 0.0
H430 H 0.83787 0.14691 0.80335 0.0
H431 H 0.77105 0.06083 0.89861 0.0
H432 H 0.72384 0.02469 0.93817 0.0
H433 H 0.72005 0.10625 0.98513 0.0
H434 H 0.76631 0.14189 0.94477 0.0
H435 H 0.83871 0.21281 0.95525 0.0
H436 H 0.87491 0.26001 0.99782 0.0
H437 H 0.95293 0.25456 0.94948 0.0
H438 H 0.91645 0.2066 0.90798 0.0
H439 H 0.82207 0.15474 0.95322 0.0
H440 H 0.87026 0.23687 0.85841 0.0
H441 H 0.90814 0.28017 0.8155 0.0
H442 H 0.93781 0.21816 0.76274 0.0
H443 H 0.9001 0.17492 0.80674 0.0
C444 C 0.7824 0.09842 0.82648 0.0
C445 C 0.79079 0.08208 0.79769 0.0
C446 C 0.77018 0.06279 0.76596 0.0
C447 C 0.74059 0.05915 0.76266 0.0
C448 C 0.73142 0.07389 0.79293 0.0
C449 C 0.75227 0.09365 0.82426 0.0
C450 C 0.80673 0.12392 0.85443 0.0
C451 C 0.83469 0.14813 0.83636 0.0
C452 C 0.80181 0.12678 0.89707 0.0
C453 C 0.77222 0.10407 0.91861 0.0
C454 C 0.75976 0.07081 0.91693 0.0
C455 C 0.73294 0.05025 0.93981 0.0
C456 C 0.71846 0.06272 0.96511 0.0
C457 C 0.73086 0.09594 0.96638 0.0
C458 C 0.7573 0.11633 0.94322 0.0
C459 C 0.87486 0.20627 0.92808 0.0
C460 C 0.86357 0.22149 0.9542 0.0
C461 C 0.88428 0.2485 0.97853 0.0
C462 C 0.91674 0.26103 0.97689 0.0
C463 C 0.92802 0.24555 0.95119 0.0
C464 C 0.90723 0.21825 0.92726 0.0
C465 C 0.85255 0.17786 0.90193 0.0
C466 C 0.82536 0.15309 0.9203 0.0
C467 C 0.85713 0.17553 0.85915 0.0
C468 C 0.88259 0.20274 0.83621 0.0
C469 C 0.88547 0.2328 0.83844 0.0
C470 C 0.90702 0.25751 0.81357 0.0
C471 C 0.9259 0.25256 0.78549 0.0
C472 C 0.92361 0.22273 0.78403 0.0
C473 C 0.90207 0.198 0.80911 0.0
H474 H 0.75849 0.64485 0.85121 0.0
H475 H 0.71392 0.63776 0.8132 0.0
H476 H 0.77422 0.72986 0.75823 0.0
H477 H 0.81892 0.73722 0.79769 0.0
H478 H 0.84424 0.70026 0.79338 0.0
H479 H 0.78138 0.64243 0.94386 0.0
H480 H 0.73465 0.63344 0.98107 0.0
H481 H 0.75029 0.72263 0.93663 0.0
H482 H 0.79715 0.73167 0.90016 0.0
H483 H 0.9314 0.72943 0.88663 0.0
H484 H 0.96901 0.72053 0.92071 0.0
H485 H 0.89201 0.6331 0.97073 0.0
H486 H 0.85464 0.6417 0.93582 0.0
H487 H 0.84205 0.68617 0.94386 0.0
H488 H 0.90426 0.7387 0.78643 0.0
H489 H 0.93663 0.73336 0.73332 0.0
H490 H 0.91712 0.64525 0.7861 0.0
H491 H 0.8835 0.64969 0.8376 0.0
C492 C 0.79197 0.69179 0.8278 0.0
C493 C 0.76205 0.66389 0.83174 0.0
C494 C 0.73655 0.65981 0.80976 0.0
C495 C 0.74048 0.68328 0.78268 0.0
C496 C 0.77041 0.71141 0.77897 0.0
C497 C 0.79597 0.71559 0.80133 0.0
C498 C 0.81917 0.69498 0.84981 0.0
C499 C 0.84439 0.69815 0.82647 0.0
C500 C 0.81859 0.69103 0.89274 0.0
C501 C 0.79248 0.68753 0.91886 0.0
C502 C 0.77502 0.66032 0.9428 0.0
C503 C 0.74826 0.65513 0.96389 0.0
C504 C 0.73857 0.67711 0.96134 0.0
C505 C 0.75694 0.70506 0.93885 0.0
C506 C 0.78373 0.71028 0.91796 0.0
C507 C 0.89022 0.68611 0.90836 0.0
C508 C 0.92266 0.70825 0.90469 0.0
C509 C 0.9441 0.70318 0.92434 0.0
C510 C 0.93344 0.67607 0.94839 0.0
C511 C 0.90096 0.65424 0.95254 0.0
C512 C 0.87958 0.65918 0.93265 0.0
C513 C 0.86709 0.69077 0.88728 0.0
C514 C 0.84263 0.68923 0.91091 0.0
C515 C 0.8682 0.69559 0.84439 0.0
C516 C 0.89162 0.6948 0.81641 0.0
C517 C 0.90724 0.71842 0.78687 0.0
C518 C 0.92577 0.71539 0.75656 0.0
C519 C 0.92941 0.68893 0.7556 0.0
C520 C 0.91504 0.66612 0.78633 0.0
C521 C 0.89594 0.66876 0.81604 0.0
H522 H 0.7655 0.67615 0.5241 0.0
H523 H 0.73187 0.68059 0.57558 0.0
H524 H 0.71227 0.59243 0.62829 0.0
H525 H 0.74466 0.58709 0.5752 0.0
H526 H 0.80469 0.62552 0.5683 0.0
H527 H 0.79448 0.68419 0.42592 0.0
H528 H 0.75721 0.69292 0.39099 0.0
H529 H 0.68006 0.60552 0.44088 0.0
H530 H 0.71757 0.59649 0.47497 0.0
H531 H 0.85171 0.59399 0.46156 0.0
H532 H 0.89859 0.60298 0.42518 0.0
H533 H 0.91438 0.69223 0.38072 0.0
H534 H 0.86763 0.68328 0.41784 0.0
H535 H 0.80693 0.6396 0.41782 0.0
H536 H 0.83003 0.58854 0.56402 0.0
H537 H 0.87474 0.59592 0.60347 0.0
H538 H 0.93502 0.68801 0.54846 0.0
H539 H 0.89043 0.6809 0.51046 0.0
C540 C 0.75734 0.63101 0.54525 0.0
C541 C 0.75304 0.65707 0.54564 0.0
C542 C 0.73393 0.65971 0.57534 0.0
C543 C 0.71953 0.63688 0.60604 0.0
C544 C 0.72315 0.61041 0.60507 0.0
C545 C 0.74169 0.60738 0.57477 0.0
C546 C 0.78077 0.63021 0.51728 0.0
C547 C 0.80455 0.62762 0.53521 0.0
C548 C 0.7819 0.63505 0.47439 0.0
C549 C 0.75881 0.63978 0.4533 0.0
C550 C 0.76953 0.66674 0.42905 0.0
C551 C 0.74821 0.67176 0.40915 0.0
C552 C 0.71571 0.64997 0.41326 0.0
C553 C 0.70499 0.62284 0.43728 0.0
C554 C 0.72636 0.61769 0.45694 0.0
C555 C 0.85645 0.63816 0.44284 0.0
C556 C 0.86517 0.61538 0.44376 0.0
C557 C 0.89197 0.62058 0.42292 0.0
C558 C 0.91038 0.64853 0.40047 0.0
C559 C 0.90073 0.67054 0.39788 0.0
C560 C 0.87395 0.66537 0.41892 0.0
C561 C 0.83035 0.6347 0.46895 0.0
C562 C 0.80634 0.63653 0.45077 0.0
C563 C 0.82977 0.63076 0.51188 0.0
C564 C 0.85697 0.63397 0.5339 0.0
C565 C 0.85297 0.61018 0.56037 0.0
C566 C 0.87854 0.61436 0.58272 0.0
C567 C 0.90846 0.64249 0.579 0.0
C568 C 0.91238 0.66595 0.55192 0.0
C569 C 0.88688 0.66187 0.52994 0.0
H570 H 0.39736 0.23665 0.56977 0.0
H571 H 0.3952 0.27224 0.6229 0.0
H572 H 0.30803 0.25317 0.57104 0.0
H573 H 0.30943 0.21649 0.51952 0.0
H574 H 0.35787 0.17522 0.56302 0.0
H575 H 0.38618 0.26231 0.46964 0.0
H576 H 0.37799 0.30066 0.43517 0.0
H577 H 0.28961 0.22201 0.38616 0.0
H578 H 0.29757 0.18399 0.42141 0.0
H579 H 0.29626 0.11115 0.40898 0.0
H580 H 0.28486 0.064 0.36645 0.0
H581 H 0.36624 0.06872 0.41709 0.0
H582 H 0.37834 0.11672 0.45833 0.0
H583 H 0.33957 0.16925 0.41281 0.0
H584 H 0.29929 0.08564 0.50613 0.0
H585 H 0.2911 0.04201 0.54831 0.0
H586 H 0.38317 0.10425 0.60274 0.0
H587 H 0.39153 0.14778 0.5594 0.0
C588 C 0.35377 0.2241 0.54022 0.0
C589 C 0.37797 0.24043 0.56956 0.0
C590 C 0.37673 0.26077 0.5999 0.0
C591 C 0.35146 0.26547 0.60113 0.0
C592 C 0.32799 0.25027 0.57068 0.0
C593 C 0.32889 0.22943 0.54091 0.0
C594 C 0.35276 0.19886 0.51216 0.0
C595 C 0.35472 0.17439 0.52996 0.0
C596 C 0.34675 0.19668 0.46936 0.0
C597 C 0.34241 0.22031 0.44836 0.0
C598 C 0.36497 0.2534 0.45172 0.0
C599 C 0.36029 0.27524 0.43184 0.0
C600 C 0.33313 0.26432 0.40791 0.0
C601 C 0.31081 0.23118 0.40421 0.0
C602 C 0.31539 0.20942 0.4243 0.0
C603 C 0.33799 0.11733 0.43727 0.0
C604 C 0.31195 0.10236 0.4105 0.0
C605 C 0.3054 0.07536 0.38622 0.0
C606 C 0.32454 0.0626 0.38865 0.0
C607 C 0.3509 0.07789 0.41488 0.0
C608 C 0.35775 0.10522 0.43864 0.0
C609 C 0.34413 0.14544 0.46382 0.0
C610 C 0.3434 0.17047 0.44575 0.0
C611 C 0.34957 0.14729 0.5067 0.0
C612 C 0.34617 0.11991 0.52922 0.0
C613 C 0.31808 0.08969 0.52629 0.0
C614 C 0.31335 0.06478 0.55072 0.0
C615 C 0.33643 0.06969 0.57909 0.0
C616 C 0.36493 0.09969 0.58121 0.0
C617 C 0.36972 0.1246 0.55652 0.0
H618 H 0.74871 0.15111 0.55411 0.0
H619 H 0.711 0.10785 0.59809 0.0
H620 H 0.74078 0.04592 0.54539 0.0
H621 H 0.77865 0.08924 0.50251 0.0
H622 H 0.81098 0.17916 0.55755 0.0
H623 H 0.73235 0.1193 0.45299 0.0
H624 H 0.69595 0.07124 0.41159 0.0
H625 H 0.77412 0.06618 0.36304 0.0
H626 H 0.81026 0.11345 0.40554 0.0
H627 H 0.8824 0.1842 0.41589 0.0
H628 H 0.92873 0.21986 0.37567 0.0
H629 H 0.92529 0.30149 0.42317 0.0
H630 H 0.87797 0.26535 0.46255 0.0
H631 H 0.82674 0.17143 0.40765 0.0
H632 H 0.90342 0.21953 0.51554 0.0
H633 H 0.94005 0.25439 0.56973 0.0
H634 H 0.87108 0.27455 0.61762 0.0
H635 H 0.83496 0.24072 0.56224 0.0
C636 C 0.76628 0.12333 0.52468 0.0
C637 C 0.74677 0.12805 0.55175 0.0
C638 C 0.72523 0.10331 0.57683 0.0
C639 C 0.72297 0.07348 0.57537 0.0
C640 C 0.74187 0.06857 0.54732 0.0
C641 C 0.76343 0.09329 0.52246 0.0
C642 C 0.79173 0.15056 0.50174 0.0
C643 C 0.81416 0.17796 0.52454 0.0
C644 C 0.7963 0.14826 0.45895 0.0
C645 C 0.77403 0.11982 0.4328 0.0
C646 C 0.74163 0.10771 0.43369 0.0
C647 C 0.72088 0.08036 0.40982 0.0
C648 C 0.73223 0.06496 0.38409 0.0
C649 C 0.76471 0.07762 0.38236 0.0
C650 C 0.78538 0.10467 0.40665 0.0
C651 C 0.87663 0.22206 0.44229 0.0
C652 C 0.89149 0.20978 0.41758 0.0
C653 C 0.91798 0.23018 0.3945 0.0
C654 C 0.9305 0.26342 0.39599 0.0
C655 C 0.91609 0.27591 0.42138 0.0
C656 C 0.88921 0.25534 0.44415 0.0
C657 C 0.84702 0.19935 0.46382 0.0
C658 C 0.82347 0.17305 0.44057 0.0
C659 C 0.84211 0.20218 0.50647 0.0
C660 C 0.86644 0.22765 0.53444 0.0
C661 C 0.89657 0.23241 0.53663 0.0
C662 C 0.91744 0.25216 0.56795 0.0
C663 C 0.90828 0.26691 0.59823 0.0
C664 C 0.8787 0.26329 0.59495 0.0
C665 C 0.85808 0.24401 0.56324 0.0
H666 H 0.92449 0.51147 0.13594 0.0
H667 H 0.93258 0.55498 0.09275 0.0
H668 H 0.02462 0.61751 0.14713 0.0
H669 H 0.01671 0.57392 0.18915 0.0
H670 H 0.95835 0.48428 0.13212 0.0
H671 H 0.9377 0.54246 0.23714 0.0
H672 H 0.94963 0.5903 0.27861 0.0
H673 H 0.03127 0.59534 0.32888 0.0
H674 H 0.02004 0.54834 0.28612 0.0
H675 H 0.0188 0.47544 0.27357 0.0
H676 H 0.0267 0.4374 0.30885 0.0
H677 H 0.93829 0.3588 0.25987 0.0
H678 H 0.93015 0.39717 0.22536 0.0
H679 H 0.97679 0.49016 0.28229 0.0
H680 H 0.00686 0.44297 0.17545 0.0
H681 H 0.00815 0.4062 0.12396 0.0
H682 H 0.92101 0.38724 0.07218 0.0
H683 H 0.91894 0.4229 0.12528 0.0
C684 C 0.96986 0.53949 0.16608 0.0
C685 C 0.94624 0.53471 0.13884 0.0
C686 C 0.95087 0.5596 0.11424 0.0
C687 C 0.97928 0.58968 0.11639 0.0
C688 C 0.00243 0.59468 0.14471 0.0
C689 C -0.00214 0.56979 0.16904 0.0
C690 C 0.96662 0.51215 0.1885 0.0
C691 C 0.96154 0.48509 0.16517 0.0
C692 C 0.97212 0.51397 0.23137 0.0
C693 C 0.97819 0.54201 0.258 0.0
C694 C 0.95831 0.554 0.2568 0.0
C695 C 0.96506 0.58123 0.28069 0.0
C696 C 0.99144 0.59657 0.30689 0.0
C697 C 0.01071 0.58394 0.30913 0.0
C698 C 0.00425 0.55704 0.28472 0.0
C699 C 0.97394 0.43914 0.24663 0.0
C700 C 0.00097 0.45002 0.27068 0.0
C701 C 0.00551 0.42825 0.2908 0.0
C702 C 0.98316 0.39511 0.28712 0.0
C703 C 0.95602 0.38421 0.26318 0.0
C704 C 0.95137 0.40607 0.24327 0.0
C705 C 0.96961 0.46279 0.22568 0.0
C706 C 0.97293 0.48897 0.24936 0.0
C707 C 0.96357 0.46064 0.1829 0.0
C708 C 0.96254 0.43541 0.15479 0.0
C709 C 0.98739 0.43003 0.15408 0.0
C710 C 0.98822 0.40914 0.12434 0.0
C711 C 0.96472 0.39393 0.09392 0.0
C712 C 0.93949 0.39871 0.09516 0.0
C713 C 0.93831 0.41909 0.12547 0.0
H714 H 0.48092 0.4186 0.13278 0.0
H715 H 0.44482 0.38473 0.0774 0.0
H716 H 0.37583 0.40491 0.12519 0.0
H717 H 0.41244 0.43979 0.17938 0.0
H718 H 0.50482 0.48017 0.13729 0.0
H719 H 0.43803 0.39409 0.23249 0.0
H720 H 0.39078 0.35795 0.27199 0.0
H721 H 0.38722 0.43955 0.31934 0.0
H722 H 0.43348 0.4752 0.27901 0.0
H723 H 0.50562 0.54607 0.28918 0.0
H724 H 0.54178 0.5934 0.33158 0.0
H725 H 0.61994 0.58832 0.28298 0.0
H726 H 0.58351 0.54022 0.24167 0.0
H727 H 0.48918 0.4881 0.28718 0.0
H728 H 0.53702 0.57012 0.19213 0.0
H729 H 0.57479 0.61343 0.14915 0.0
H730 H 0.60474 0.5516 0.09657 0.0
H731 H 0.56713 0.50836 0.14063 0.0
C732 C 0.44943 0.43167 0.16053 0.0
C733 C 0.4578 0.41529 0.13176 0.0
C734 C 0.43719 0.396 0.10005 0.0
C735 C 0.40761 0.39238 0.09673 0.0
C736 C 0.39844 0.40714 0.12699 0.0
C737 C 0.4193 0.4269 0.15831 0.0
C738 C 0.47377 0.45719 0.18843 0.0
C739 C 0.50168 0.48142 0.1703 0.0
C740 C 0.46888 0.46008 0.23108 0.0
C741 C 0.43931 0.43736 0.25267 0.0
C742 C 0.42678 0.40409 0.25089 0.0
C743 C 0.39994 0.38352 0.27372 0.0
C744 C 0.38552 0.396 0.29911 0.0
C745 C 0.39799 0.42924 0.30052 0.0
C746 C 0.42444 0.44963 0.27738 0.0
C747 C 0.54185 0.5397 0.2619 0.0
C748 C 0.53051 0.55486 0.28803 0.0
C749 C 0.55119 0.58195 0.31227 0.0
C750 C 0.58367 0.59462 0.3105 0.0
C751 C 0.595 0.5792 0.28478 0.0
C752 C 0.57424 0.55182 0.26096 0.0
C753 C 0.51956 0.51122 0.23582 0.0
C754 C 0.49243 0.48643 0.25426 0.0
C755 C 0.5241 0.50887 0.19303 0.0
C756 C 0.54949 0.53609 0.17002 0.0
C757 C 0.55226 0.5661 0.17218 0.0
C758 C 0.57376 0.5908 0.14727 0.0
C759 C 0.59268 0.58592 0.11923 0.0
C760 C 0.5905 0.55613 0.11783 0.0
C761 C 0.56901 0.5314 0.14295 0.0
H762 H 0.57035 0.07158 0.11955 0.0
H763 H 0.60287 0.06647 0.06646 0.0
H764 H 0.58376 0.97849 0.11918 0.0
H765 H 0.54998 0.98268 0.17064 0.0
H766 H 0.51041 0.03308 0.1266 0.0
H767 H 0.59766 0.06239 0.21972 0.0
H768 H 0.63538 0.05364 0.25373 0.0
H769 H 0.55856 0.96606 0.30371 0.0
H770 H 0.52108 0.97452 0.26886 0.0
H771 H 0.44765 0.97527 0.2772 0.0
H772 H 0.40103 0.96643 0.31458 0.0
H773 H 0.41683 0.0557 0.27022 0.0
H774 H 0.46358 0.06459 0.23359 0.0
H775 H 0.50838 0.01895 0.27705 0.0
H776 H 0.42468 0.97777 0.18464 0.0
H777 H 0.3801 0.9708 0.14677 0.0
H778 H 0.4405 0.06284 0.09171 0.0
H779 H 0.4852 0.07009 0.13104 0.0
C780 C 0.55789 0.02772 0.1495 0.0
C781 C 0.57344 0.05137 0.11997 0.0
C782 C 0.59206 0.04848 0.08969 0.0
C783 C 0.59587 0.02212 0.08872 0.0
C784 C 0.58155 -0.00072 0.11941 0.0
C785 C 0.56236 0.00178 0.1491 0.0
C786 C 0.53443 0.02842 0.17753 0.0
C787 C 0.5106 0.03096 0.15968 0.0
C788 C 0.53337 0.02358 0.22041 0.0
C789 C 0.55657 0.01899 0.24143 0.0
C790 C 0.58899 0.04122 0.23775 0.0
C791 C 0.61049 0.03622 0.25736 0.0
C792 C 0.59991 0.00912 0.28139 0.0
C793 C 0.56745 0.9872 0.28554 0.0
C794 C 0.54601 0.99207 0.26569 0.0
C795 C 0.45883 0.0204 0.25223 0.0
C796 C 0.44135 0.9932 0.2762 0.0
C797 C 0.41465 0.9881 0.29738 0.0
C798 C 0.40504 0.01015 0.29491 0.0
C799 C 0.42342 0.03808 0.2724 0.0
C800 C 0.45015 0.04321 0.2514 0.0
C801 C 0.48487 0.02383 0.22602 0.0
C802 C 0.50892 0.02202 0.24411 0.0
C803 C 0.4854 0.02779 0.18309 0.0
C804 C 0.4582 0.02467 0.16118 0.0
C805 C 0.42826 -0.00317 0.16519 0.0
C806 C 0.40276 0.99282 0.14329 0.0
C807 C 0.40672 0.01631 0.11622 0.0
C808 C 0.43667 0.04438 0.11245 0.0
C809 C 0.46223 0.04849 0.13473 0.0
H810 H 0.43215 0.00974 0.85767 0.0
H811 H 0.3984 0.01398 0.90913 0.0
H812 H 0.37925 0.926 0.96191 0.0
H813 H 0.41175 0.92084 0.90882 0.0
H814 H 0.4717 0.95933 0.90173 0.0
H815 H 0.46101 0.01786 0.75949 0.0
H816 H 0.42354 0.02636 0.72469 0.0
H817 H 0.34671 0.93879 0.77468 0.0
H818 H 0.38442 0.93 0.80863 0.0
H819 H 0.51859 0.92787 0.79473 0.0
H820 H 0.56537 0.93683 0.75811 0.0
H821 H 0.58107 0.02607 0.71378 0.0
H822 H 0.53441 0.01715 0.75114 0.0
H823 H 0.4737 0.97343 0.75128 0.0
H824 H 0.49695 0.92233 0.89729 0.0
H825 H 0.54166 0.92962 0.93661 0.0
H826 H 0.60201 0.02167 0.88156 0.0
H827 H 0.55741 0.01466 0.84369 0.0
C828 C 0.42422 0.9647 0.87884 0.0
C829 C 0.41977 0.99065 0.87922 0.0
C830 C 0.40059 0.99318 0.90891 0.0
C831 C 0.38627 0.97034 0.93961 0.0
C832 C 0.39006 0.94398 0.93867 0.0
C833 C 0.40867 0.94106 0.90838 0.0
C834 C 0.44767 0.96398 0.85081 0.0
C835 C 0.47151 0.96144 0.86865 0.0
C836 C 0.44872 0.9688 0.80792 0.0
C837 C 0.42552 0.97339 0.78691 0.0
C838 C 0.43609 0.00033 0.76267 0.0
C839 C 0.41465 0.00521 0.74284 0.0
C840 C 0.38218 0.98331 0.74702 0.0
C841 C 0.3716 0.9562 0.77103 0.0
C842 C 0.3931 0.95118 0.7906 0.0
C843 C 0.52329 0.97204 0.7761 0.0
C844 C 0.53201 0.94925 0.77692 0.0
C845 C 0.55875 0.95443 0.75594 0.0
C846 C 0.57711 0.98237 0.73344 0.0
C847 C 0.56746 0.00439 0.73097 0.0
C848 C 0.54074 -0.00076 0.75215 0.0
C849 C 0.49723 0.96857 0.80231 0.0
C850 C 0.47317 0.97037 0.78422 0.0
C851 C 0.4967 0.96461 0.84524 0.0
C852 C 0.52391 0.96775 0.86715 0.0
C853 C 0.51991 0.94394 0.8936 0.0
C854 C 0.54548 0.94807 0.91587 0.0
C855 C 0.57542 0.97616 0.91211 0.0
C856 C 0.57936 -0.00036 0.88505 0.0
C857 C 0.55385 -0.00439 0.86315 0.0
H858 H 0.06366 0.56957 0.90297 0.0
H859 H 0.06159 0.60523 0.95606 0.0
H860 H 0.97442 0.58624 0.90429 0.0
H861 H 0.97572 0.54947 0.85281 0.0
H862 H 0.02427 0.50819 0.89612 0.0
H863 H 0.0524 0.5953 0.80287 0.0
H864 H 0.0442 0.63363 0.76839 0.0
H865 H 0.95579 0.55498 0.71946 0.0
H866 H 0.96376 0.51697 0.75472 0.0
H867 H 0.96254 0.44415 0.74214 0.0
H868 H 0.95125 0.39713 0.6994 0.0
H869 H 0.03284 0.40206 0.74964 0.0
H870 H 0.04484 0.44993 0.7911 0.0
H871 H 0.0058 0.5023 0.74596 0.0
H872 H 0.96587 0.41856 0.83911 0.0
H873 H 0.95793 0.37495 0.88112 0.0
H874 H 0.04999 0.43743 0.93547 0.0
H875 H 0.0581 0.48096 0.8923 0.0
C876 C 0.02006 0.55705 0.87346 0.0
C877 C 0.04428 0.57337 0.90277 0.0
C878 C 0.0431 0.59376 0.93308 0.0
C879 C 0.01787 0.59852 0.93432 0.0
C880 C -0.00564 0.58331 0.90391 0.0
C881 C -0.0048 0.56241 0.87417 0.0
C882 C 0.01904 0.53182 0.84535 0.0
C883 C 0.02107 0.50737 0.86307 0.0
C884 C 0.01298 0.52967 0.80257 0.0
C885 C 0.00862 0.5533 0.78163 0.0
C886 C 0.03118 0.58638 0.78497 0.0
C887 C 0.02649 0.60822 0.76508 0.0
C888 C -0.00067 0.59729 0.74116 0.0
C889 C 0.977 0.56415 0.7375 0.0
C890 C 0.98158 0.5424 0.7576 0.0
C891 C 0.00437 0.45043 0.77025 0.0
C892 C 0.9783 0.43543 0.74354 0.0
C893 C 0.97182 0.40852 0.71913 0.0
C894 C 0.99105 0.39585 0.72138 0.0
C895 C 0.01743 0.41116 0.74757 0.0
C896 C 0.02422 0.43841 0.77145 0.0
C897 C 0.01047 0.47849 0.79688 0.0
C898 C 0.00967 0.5035 0.77889 0.0
C899 C 0.01598 0.48031 0.83975 0.0
C900 C 0.01273 0.45296 0.86217 0.0
C901 C 0.98471 0.42267 0.85922 0.0
C902 C 0.98013 0.39778 0.88354 0.0
C903 C 0.00328 0.40275 0.91185 0.0
C904 C 0.0317 0.43282 0.91399 0.0
C905 C 0.03635 0.45772 0.88941 0.0
H906 H 0.41562 0.48451 0.888 0.0
H907 H 0.37801 0.44128 0.93208 0.0
H908 H 0.40793 0.37943 0.87951 0.0
H909 H 0.44571 0.42273 0.83652 0.0
H910 H 0.47792 0.51268 0.89135 0.0
H911 H 0.39924 0.45266 0.78694 0.0
H912 H 0.36281 0.40457 0.74561 0.0
H913 H 0.44095 0.39943 0.69708 0.0
H914 H 0.47712 0.44675 0.7395 0.0
H915 H 0.54928 0.51766 0.74965 0.0
H916 H 0.59552 0.55331 0.70929 0.0
H917 H 0.59191 0.6349 0.75659 0.0
H918 H 0.54469 0.59875 0.79613 0.0
H919 H 0.49357 0.50474 0.74146 0.0
H920 H 0.57031 0.55307 0.84926 0.0
H921 H 0.60692 0.58794 0.90346 0.0
H922 H 0.53792 0.60811 0.95125 0.0
H923 H 0.50182 0.57425 0.89586 0.0
C924 C 0.43326 0.45677 0.85862 0.0
C925 C 0.41374 0.46147 0.88569 0.0
C926 C 0.39225 0.43674 0.91082 0.0
C927 C 0.39006 0.40695 0.90943 0.0
C928 C 0.40898 0.40205 0.88138 0.0
C929 C 0.43048 0.42676 0.85647 0.0
C930 C 0.45865 0.48398 0.83561 0.0
C931 C 0.48107 0.51143 0.85834 0.0
C932 C 0.46319 0.48162 0.79283 0.0
C933 C 0.4409 0.45315 0.76675 0.0
C934 C 0.40851 0.44104 0.76767 0.0
C935 C 0.38775 0.41367 0.74383 0.0
C936 C 0.39907 0.39825 0.71812 0.0
C937 C 0.43155 0.41089 0.71638 0.0
C938 C 0.45224 0.43797 0.74062 0.0
C939 C 0.54344 0.55549 0.77597 0.0
C940 C 0.55832 0.54323 0.75127 0.0
C941 C 0.58475 0.56363 0.7281 0.0
C942 C 0.5972 0.59686 0.72949 0.0
C943 C 0.58278 0.60933 0.75488 0.0
C944 C 0.55595 0.58876 0.77773 0.0
C945 C 0.51387 0.53277 0.79756 0.0
C946 C 0.49032 0.50641 0.77438 0.0
C947 C 0.50898 0.53566 0.84021 0.0
C948 C 0.53332 0.56119 0.86812 0.0
C949 C 0.56345 0.56595 0.87033 0.0
C950 C 0.5843 0.58572 0.90165 0.0
C951 C 0.57513 0.60047 0.93192 0.0
C952 C 0.54555 0.59685 0.9286 0.0
C953 C 0.52494 0.57756 0.89688 0.0
H954 H 0.59088 0.84484 0.46917 0.0
H955 H 0.59914 0.88833 0.42583 0.0
H956 H 0.6912 0.95073 0.48021 0.0
H957 H 0.68312 0.90715 0.5224 0.0
H958 H 0.62465 0.81752 0.46554 0.0
H959 H 0.60404 0.8759 0.5702 0.0
H960 H 0.61604 0.92388 0.61141 0.0
H961 H 0.69751 0.92881 0.66211 0.0
H962 H 0.68622 0.88168 0.61959 0.0
H963 H 0.68504 0.80885 0.60715 0.0
H964 H 0.69305 0.77086 0.64239 0.0
H965 H 0.6047 0.69217 0.59338 0.0
H966 H 0.59646 0.73048 0.55892 0.0
H967 H 0.643 0.82354 0.61575 0.0
H968 H 0.67321 0.77638 0.50901 0.0
H969 H 0.67465 0.73973 0.45748 0.0
H970 H 0.58741 0.72051 0.40569 0.0
H971 H 0.5852 0.75607 0.45883 0.0
C972 C 0.63625 0.87279 0.49934 0.0
C973 C 0.61267 0.86805 0.47204 0.0
C974 C 0.6174 0.89293 0.44735 0.0
C975 C 0.64586 0.92296 0.44945 0.0
C976 C 0.66897 0.92792 0.47781 0.0
C977 C 0.6643 0.90305 0.50224 0.0
C978 C 0.63292 0.84545 0.52185 0.0
C979 C 0.62781 0.81836 0.4986 0.0
C980 C 0.63837 0.84731 0.56474 0.0
C981 C 0.64445 0.8754 0.59128 0.0
C982 C 0.62463 0.88745 0.58989 0.0
C983 C 0.63143 0.91476 0.61364 0.0
C984 C 0.65778 0.9301 0.63988 0.0
C985 C 0.67697 0.9174 0.64232 0.0
C986 C 0.67048 0.89042 0.61805 0.0
C987 C 0.64021 0.7725 0.58019 0.0
C988 C 0.66725 0.78342 0.60425 0.0
C989 C 0.67185 0.76168 0.62434 0.0
C990 C 0.64955 0.72853 0.62064 0.0
C991 C 0.62239 0.71759 0.59671 0.0
C992 C 0.61768 0.73942 0.57683 0.0
C993 C 0.63585 0.79611 0.55919 0.0
C994 C 0.63916 0.82231 0.58281 0.0
C995 C 0.62982 0.79392 0.5164 0.0
C996 C 0.62883 0.7687 0.48834 0.0
C997 C 0.65375 0.76341 0.48764 0.0
C998 C 0.65467 0.74259 0.45786 0.0
C999 C 0.63118 0.72735 0.42742 0.0
C1000 C 0.60588 0.73201 0.42868 0.0
C1001 C 0.60462 0.75233 0.45902 0.0
H1002 H 0.14736 0.75196 0.46617 0.0
H1003 H 0.11129 0.71805 0.41079 0.0
H1004 H 0.04213 0.73795 0.45863 0.0
H1005 H 0.07871 0.77289 0.51281 0.0
H1006 H 0.17119 0.81347 0.47081 0.0
H1007 H 0.10439 0.72728 0.56583 0.0
H1008 H 0.05713 0.69104 0.60525 0.0
H1009 H 0.0534 0.77251 0.65274 0.0
H1010 H 0.09967 0.80826 0.61249 0.0
H1011 H 0.17184 0.87924 0.62274 0.0
H1012 H 0.20796 0.92651 0.66526 0.0
H1013 H 0.28615 0.9214 0.61684 0.0
H1014 H 0.24976 0.87336 0.57541 0.0
H1015 H 0.15539 0.82123 0.6207 0.0
H1016 H 0.20345 0.9034 0.5258 0.0
H1017 H 0.24132 0.94673 0.48291 0.0
H1018 H 0.27117 0.88482 0.43032 0.0
H1019 H 0.23346 0.84157 0.47429 0.0
C1020 C 0.11578 0.7649 0.49394 0.0
C1021 C 0.12422 0.74859 0.46516 0.0
C1022 C 0.10362 0.72927 0.43345 0.0
C1023 C 0.074 0.72555 0.43015 0.0
C1024 C 0.06477 0.74025 0.46042 0.0
C1025 C 0.08561 0.76005 0.49173 0.0
C1026 C 0.14008 0.79042 0.52189 0.0
C1027 C 0.16801 0.81468 0.50383 0.0
C1028 C 0.13515 0.79326 0.56454 0.0
C1029 C 0.10558 0.77049 0.58609 0.0
C1030 C 0.0931 0.73723 0.58424 0.0
C1031 C 0.06625 0.71661 0.60703 0.0
C1032 C 0.05178 0.72902 0.63243 0.0
C1033 C 0.0642 0.76225 0.63391 0.0
C1034 C 0.09066 0.7827 0.61081 0.0
C1035 C 0.20808 0.87286 0.59554 0.0
C1036 C 0.19672 0.88801 0.62166 0.0
C1037 C 0.21739 0.91506 0.64596 0.0
C1038 C 0.24986 0.92771 0.64428 0.0
C1039 C 0.26121 0.9123 0.61858 0.0
C1040 C 0.24048 0.88495 0.59469 0.0
C1041 C 0.18583 0.84441 0.56939 0.0
C1042 C 0.15867 0.8196 0.58778 0.0
C1043 C 0.19041 0.8421 0.52661 0.0
C1044 C 0.21586 0.86933 0.50367 0.0
C1045 C 0.21869 0.89937 0.50586 0.0
C1046 C 0.24025 0.92408 0.48101 0.0
C1047 C 0.25917 0.91918 0.45299 0.0
C1048 C 0.25693 0.88936 0.45156 0.0
C1049 C 0.23538 0.86463 0.47663 0.0
H1050 H 0.09202 0.31145 0.51782 0.0
H1051 H 0.04742 0.30427 0.47978 0.0
H1052 H 0.10762 0.39643 0.42491 0.0
H1053 H 0.15233 0.40388 0.46439 0.0
H1054 H 0.17779 0.36701 0.46014 0.0
H1055 H 0.11475 0.30911 0.61052 0.0
H1056 H 0.06795 0.30008 0.64756 0.0
H1057 H 0.08365 0.38929 0.60308 0.0
H1058 H 0.13058 0.39836 0.56677 0.0
H1059 H 0.26489 0.39627 0.55362 0.0
H1060 H 0.30248 0.38738 0.58774 0.0
H1061 H 0.22546 0.29986 0.63756 0.0
H1062 H 0.18811 0.30845 0.60259 0.0
H1063 H 0.17546 0.3529 0.61063 0.0
H1064 H 0.23783 0.40558 0.45336 0.0
H1065 H 0.27031 0.40036 0.40031 0.0
H1066 H 0.25088 0.31225 0.45301 0.0
H1067 H 0.21716 0.31657 0.50444 0.0
C1068 C 0.12544 0.35842 0.49446 0.0
C1069 C 0.09554 0.33048 0.49836 0.0
C1070 C 0.07004 0.32636 0.47636 0.0
C1071 C 0.07393 0.34982 0.44931 0.0
C1072 C 0.10383 0.37798 0.44563 0.0
C1073 C 0.1294 0.38221 0.468 0.0
C1074 C 0.15264 0.36167 0.51652 0.0
C1075 C 0.17792 0.3649 0.49323 0.0
C1076 C 0.15203 0.35773 0.55945 0.0
C1077 C 0.12589 0.35421 0.58551 0.0
C1078 C 0.10839 0.32699 0.60942 0.0
C1079 C 0.08158 0.32178 0.63041 0.0
C1080 C 0.0719 0.34376 0.6278 0.0
C1081 C 0.0903 0.37172 0.60535 0.0
C1082 C 0.11713 0.37696 0.58456 0.0
C1083 C 0.22371 0.35291 0.57524 0.0
C1084 C 0.25614 0.37508 0.57165 0.0
C1085 C 0.27757 0.37001 0.59132 0.0
C1086 C 0.2669 0.34287 0.61532 0.0
C1087 C 0.23442 0.32102 0.61941 0.0
C1088 C 0.21305 0.32596 0.59949 0.0
C1089 C 0.20058 0.35755 0.55411 0.0
C1090 C 0.17607 0.35597 0.57768 0.0
C1091 C 0.20173 0.36239 0.51122 0.0
C1092 C 0.22522 0.36167 0.48329 0.0
C1093 C 0.24086 0.38532 0.45379 0.0
C1094 C 0.25945 0.38236 0.42353 0.0
C1095 C 0.26314 0.35593 0.42255 0.0
C1096 C 0.24876 0.33309 0.45324 0.0
C1097 C 0.2296 0.33567 0.48292 0.0
loop_
_geom_bond_atom_site_label_1
_geom_bond_atom_site_label_2
_geom_bond_distance
_geom_bond_site_symmetry_2
_ccdc_geom_bond_type
C0 O1 1.160 . S
C0 O7 1.185 . S
O1 C0 1.160 . S
O2 Zn3 1.899 1_656 S
O2 C10 1.284 . S
Zn3 O2 1.899 1_454 S
Zn3 O4 2.035 . S
Zn3 O7 2.086 . S
Zn3 O12 1.977 1_554 S
O4 Zn3 2.035 . S
O4 C8 1.269 1_455 S
C5 O6 1.203 1_455 S
C5 O12 1.267 . S
O6 C5 1.203 1_655 S
O7 C0 1.185 . S
O7 Zn3 2.086 . S
C8 O4 1.269 1_655 S
C8 O9 1.211 . S
O9 C8 1.211 . S
C10 O2 1.284 . S
C10 O11 1.273 1_556 S
O11 C10 1.273 1_554 S
O12 Zn3 1.977 1_556 S
O12 C5 1.267 . S
C13 O14 1.160 . S
C13 O20 1.185 . S
O14 C13 1.160 . S
O15 Zn16 1.899 . S
O15 C23 1.284 . S
Zn16 O15 1.899 . S
Zn16 O17 2.032 1_554 S
Zn16 O20 2.086 1_554 S
Zn16 O25 1.977 . S
O17 Zn16 2.032 1_556 S
O17 C21 1.278 . S
C18 O19 1.203 . S
C18 O25 1.267 . S
O19 C18 1.203 . S
O20 C13 1.185 . S
O20 Zn16 2.086 1_556 S
C21 O17 1.278 . S
C21 O22 1.211 . S
O22 C21 1.211 . S
C23 O15 1.284 . S
C23 O24 1.273 . S
O24 C23 1.273 . S
O25 Zn16 1.977 . S
O25 C18 1.267 . S
C26 O27 1.160 . S
C26 O33 1.185 1_556 S
O27 C26 1.160 . S
O28 Zn29 1.899 1_565 S
O28 C36 1.284 . S
Zn29 O28 1.899 1_545 S
Zn29 O30 2.032 1_554 S
Zn29 O33 2.086 . S
Zn29 O38 1.977 . S
O30 Zn29 2.032 1_556 S
O30 C34 1.278 1_545 S
C31 O32 1.203 1_545 S
C31 O38 1.267 . S
O32 C31 1.203 1_565 S
O33 C26 1.185 1_554 S
O33 Zn29 2.086 . S
C34 O30 1.278 1_565 S
C34 O35 1.211 . S
O35 C34 1.211 . S
C36 O28 1.284 . S
C36 O37 1.273 . S
O37 C36 1.273 . S
O38 Zn29 1.977 . S
O38 C31 1.267 . S
C39 O40 1.160 . S
C39 O46 1.186 . S
O40 C39 1.160 . S
O41 Zn42 1.899 1_455 S
O41 C49 1.284 . S
Zn42 O41 1.899 1_655 S
Zn42 O43 2.030 1_554 S
Zn42 O46 2.086 1_554 S
Zn42 O51 1.977 . S
O43 Zn42 2.030 1_556 S
O43 C47 1.281 1_655 S
C44 O45 1.203 1_655 S
C44 O51 1.267 . S
O45 C44 1.203 1_455 S
O46 C39 1.186 . S
O46 Zn42 2.086 1_556 S
C47 O43 1.281 1_455 S
C47 O48 1.211 . S
O48 C47 1.211 . S
C49 O41 1.284 . S
C49 O50 1.273 . S
O50 C49 1.273 . S
O51 Zn42 1.977 . S
O51 C44 1.267 . S
C52 O53 1.160 . S
C52 O59 1.185 . S
O53 C52 1.160 . S
O54 Zn55 1.899 1_556 S
O54 C62 1.284 . S
Zn55 O54 1.899 1_554 S
Zn55 O56 2.032 . S
Zn55 O59 2.086 . S
Zn55 O64 1.977 1_554 S
O56 Zn55 2.032 . S
O56 C60 1.278 . S
C57 O58 1.203 . S
C57 O64 1.267 . S
O58 C57 1.203 . S
O59 C52 1.185 . S
O59 Zn55 2.086 . S
C60 O56 1.278 . S
C60 O61 1.211 . S
O61 C60 1.211 . S
C62 O54 1.284 . S
C62 O63 1.260 1_556 S
O63 C62 1.260 1_554 S
O64 Zn55 1.977 1_556 S
O64 C57 1.267 . S
C65 O66 1.160 . S
C65 O72 1.185 . S
O66 C65 1.160 . S
O67 Zn68 1.899 1_546 S
O67 C75 1.284 . S
Zn68 O67 1.899 1_564 S
Zn68 O69 2.032 1_565 S
Zn68 O72 2.086 . S
Zn68 O77 1.977 1_554 S
O69 Zn68 2.032 1_545 S
O69 C73 1.278 . S
C70 O71 1.203 1_565 S
C70 O77 1.267 . S
O71 C70 1.203 1_545 S
O72 C65 1.185 . S
O72 Zn68 2.086 . S
C73 O69 1.278 . S
C73 O74 1.211 . S
O74 C73 1.211 . S
C75 O67 1.284 . S
C75 O76 1.273 1_556 S
O76 C75 1.273 1_554 S
O77 Zn68 1.977 1_556 S
O77 C70 1.267 . S
C78 O79 1.160 . S
C78 O85 1.185 . S
O79 C78 1.160 . S
O80 Zn81 1.899 . S
O80 C88 1.284 . S
Zn81 O80 1.899 . S
Zn81 O82 2.032 . S
Zn81 O85 2.086 . S
Zn81 O90 1.977 . S
O82 Zn81 2.032 . S
O82 C86 1.278 . S
C83 O84 1.203 . S
C83 O90 1.267 . S
O84 C83 1.203 . S
O85 C78 1.185 . S
O85 Zn81 2.086 . S
C86 O82 1.278 . S
C86 O87 1.211 . S
O87 C86 1.211 . S
C88 O80 1.284 . S
C88 O89 1.273 . S
O89 C88 1.273 . S
O90 Zn81 1.977 . S
O90 C83 1.267 . S
C91 O92 1.160 1_565 S
C91 O98 1.185 . S
O92 C91 1.160 1_545 S
O93 Zn94 1.899 1_545 S
O93 C101 1.284 . S
Zn94 O93 1.899 1_565 S
Zn94 O95 2.032 . S
Zn94 O98 2.086 . S
Zn94 O103 1.977 . S
O95 Zn94 2.032 . S
O95 C99 1.278 . S
C96 O97 1.203 . S
C96 O103 1.267 . S
O97 C96 1.203 . S
O98 C91 1.185 . S
O98 Zn94 2.086 . S
C99 O95 1.278 . S
C99 O100 1.211 . S
O100 C99 1.211 . S
C101 O93 1.284 . S
C101 O102 1.273 . S
O102 C101 1.273 . S
O103 Zn94 1.977 . S
O103 C96 1.267 . S
C104 O105 1.160 1_455 S
C104 O111 1.185 . S
O105 C104 1.160 1_655 S
O106 Zn107 1.899 1_655 S
O106 C114 1.284 . S
Zn107 O106 1.899 1_455 S
Zn107 O108 2.032 . S
Zn107 O111 2.086 . S
Zn107 O116 1.977 . S
O108 Zn107 2.032 . S
O108 C112 1.278 . S
C109 O110 1.203 . S
C109 O116 1.267 . S
O110 C109 1.203 . S
O111 C104 1.185 . S
O111 Zn107 2.086 . S
C112 O108 1.278 . S
C112 O113 1.211 . S
O113 C112 1.211 . S
C114 O106 1.284 . S
C114 O115 1.273 . S
O115 C114 1.273 . S
O116 Zn107 1.977 . S
O116 C109 1.267 . S
C117 O118 1.160 1_565 S
C117 O124 1.185 . S
O118 C117 1.160 1_545 S
O119 Zn120 1.899 1_545 S
O119 C127 1.284 . S
Zn120 O119 1.899 1_565 S
Zn120 O121 2.032 . S
Zn120 O124 2.086 . S
Zn120 O129 1.977 . S
O121 Zn120 2.032 . S
O121 C125 1.278 . S
C122 O123 1.203 . S
C122 O129 1.267 . S
O123 C122 1.203 . S
O124 C117 1.185 . S
O124 Zn120 2.086 . S
C125 O121 1.278 . S
C125 O126 1.211 . S
O126 C125 1.211 . S
C127 O119 1.284 . S
C127 O128 1.273 . S
O128 C127 1.273 . S
O129 Zn120 1.977 . S
O129 C122 1.267 . S
C130 O131 1.160 . S
C130 O137 1.185 . S
O131 C130 1.160 . S
O132 Zn133 1.899 1_655 S
O132 C140 1.284 1_655 S
Zn133 O132 1.899 1_455 S
Zn133 O134 2.032 . S
Zn133 O137 2.086 1_455 S
Zn133 O142 1.977 . S
O134 Zn133 2.032 . S
O134 C138 1.278 . S
C135 O136 1.203 . S
C135 O142 1.267 . S
O136 C135 1.203 . S
O137 C130 1.185 . S
O137 Zn133 2.086 1_655 S
C138 O134 1.278 . S
C138 O139 1.211 . S
O139 C138 1.211 . S
C140 O132 1.284 1_455 S
C140 O141 1.273 . S
O141 C140 1.273 . S
O142 Zn133 1.977 . S
O142 C135 1.267 . S
C143 O144 1.160 . S
C143 O150 1.185 . S
O144 C143 1.160 . S
O145 Zn146 1.899 . S
O145 C153 1.284 . S
Zn146 O145 1.899 . S
Zn146 O147 2.032 . S
Zn146 O150 2.086 . S
Zn146 O155 1.977 . S
O147 Zn146 2.032 . S
O147 C151 1.278 . S
C148 O149 1.203 . S
C148 O155 1.267 . S
O149 C148 1.203 . S
O150 C143 1.185 . S
O150 Zn146 2.086 . S
C151 O147 1.278 . S
C151 O152 1.211 . S
O152 C151 1.211 . S
C153 O145 1.284 . S
C153 O154 1.273 . S
O154 C153 1.273 . S
O155 Zn146 1.977 . S
O155 C148 1.267 . S
C156 O157 1.160 1_545 S
C156 O163 1.185 . S
O157 C156 1.160 1_565 S
O158 Zn159 1.899 1_565 S
O158 C166 1.284 . S
Zn159 O158 1.899 1_545 S
Zn159 O160 2.032 . S
Zn159 O163 2.086 . S
Zn159 O168 1.977 . S
O160 Zn159 2.032 . S
O160 C164 1.278 . S
C161 O162 1.203 . S
C161 O168 1.267 . S
O162 C161 1.203 . S
O163 C156 1.185 . S
O163 Zn159 2.086 . S
C164 O160 1.278 . S
C164 O165 1.211 . S
O165 C164 1.211 . S
C166 O158 1.284 . S
C166 O167 1.273 . S
O167 C166 1.273 . S
O168 Zn159 1.977 . S
O168 C161 1.267 . S
C169 O170 1.160 . S
C169 O176 1.185 . S
O170 C169 1.160 . S
O171 Zn172 1.899 1_455 S
O171 C179 1.284 1_455 S
Zn172 O171 1.899 1_655 S
Zn172 O173 2.032 . S
Zn172 O176 2.086 1_655 S
Zn172 O181 1.977 . S
O173 Zn172 2.032 . S
O173 C177 1.278 . S
C174 O175 1.203 . S
C174 O181 1.267 . S
O175 C174 1.203 . S
O176 C169 1.185 . S
O176 Zn172 2.086 1_455 S
C177 O173 1.278 . S
C177 O178 1.211 . S
O178 C177 1.211 . S
C179 O171 1.284 1_655 S
C179 O180 1.273 . S
O180 C179 1.273 . S
O181 Zn172 1.977 . S
O181 C174 1.267 . S
C182 O183 1.160 . S
C182 O189 1.185 . S
O183 C182 1.160 . S
O184 Zn185 1.899 . S
O184 C192 1.284 . S
Zn185 O184 1.899 . S
Zn185 O186 2.032 . S
Zn185 O189 2.086 . S
Zn185 O194 1.977 . S
O186 Zn185 2.032 . S
O186 C190 1.278 . S
C187 O188 1.203 . S
C187 O194 1.267 . S
O188 C187 1.203 . S
O189 C182 1.185 . S
O189 Zn185 2.086 . S
C190 O186 1.278 . S
C190 O191 1.211 . S
O191 C190 1.211 . S
C192 O184 1.284 . S
C192 O193 1.273 . S
O193 C192 1.273 . S
O194 Zn185 1.977 . S
O194 C187 1.267 . S
C195 O196 1.160 . S
C195 O202 1.185 . S
O196 C195 1.160 . S
O197 Zn198 1.899 . S
O197 C205 1.284 . S
Zn198 O197 1.899 . S
Zn198 O199 2.032 . S
Zn198 O202 2.086 . S
Zn198 O207 1.977 . S
O199 Zn198 2.032 . S
O199 C203 1.278 . S
C200 O201 1.203 . S
C200 O207 1.267 . S
O201 C200 1.203 . S
O202 C195 1.185 . S
O202 Zn198 2.086 . S
C203 O199 1.278 . S
C203 O204 1.211 . S
O204 C203 1.211 . S
C205 O197 1.284 . S
C205 O206 1.273 . S
O206 C205 1.273 . S
O207 Zn198 1.977 . S
O207 C200 1.267 . S
C208 O209 1.160 1_545 S
C208 O215 1.185 . S
O209 C208 1.160 1_565 S
O210 Zn211 1.899 1_565 S
O210 C218 1.284 . S
Zn211 O210 1.899 1_545 S
Zn211 O212 2.032 . S
Zn211 O215 2.086 . S
Zn211 O220 1.977 . S
O212 Zn211 2.032 . S
O212 C216 1.278 . S
C213 O214 1.203 . S
C213 O220 1.267 . S
O214 C213 1.203 . S
O215 C208 1.185 . S
O215 Zn211 2.086 . S
C216 O212 1.278 . S
C216 O217 1.211 . S
O217 C216 1.211 . S
C218 O210 1.284 . S
C218 O219 1.273 . S
O219 C218 1.273 . S
O220 Zn211 1.977 . S
O220 C213 1.267 . S
C221 O222 1.160 1_655 S
C221 O228 1.185 . S
O222 C221 1.160 1_455 S
O223 Zn224 1.899 1_455 S
O223 C231 1.284 . S
Zn224 O223 1.899 1_655 S
Zn224 O225 2.032 . S
Zn224 O228 2.086 . S
Zn224 O233 1.977 . S
O225 Zn224 2.032 . S
O225 C229 1.278 . S
C226 O227 1.203 . S
C226 O233 1.267 . S
O227 C226 1.203 . S
O228 C221 1.185 . S
O228 Zn224 2.086 . S
C229 O225 1.278 . S
C229 O230 1.211 . S
O230 C229 1.211 . S
C231 O223 1.284 . S
C231 O232 1.273 . S
O232 C231 1.273 . S
O233 Zn224 1.977 . S
O233 C226 1.267 . S
H234 C253 0.949 . S
H235 C254 0.950 . S
H236 C256 0.950 . S
H237 C257 0.950 . S
H238 C259 0.950 . S
H239 C262 0.950 . S
H240 C263 0.950 . S
H241 C265 0.951 . S
H242 C266 0.949 . S
H243 C268 0.949 . S
H244 C269 0.950 . S
H245 C271 0.950 . S
H246 C272 0.950 . S
H247 C274 0.950 . S
H248 C277 0.950 . S
H249 C278 0.950 . S
H250 C280 0.951 . S
H251 C281 0.949 . S
C252 C253 1.376 . S
C252 C257 1.386 . S
C252 C258 1.483 . S
C253 H234 0.949 . S
C253 C252 1.376 . S
C253 C254 1.397 . S
C254 H235 0.950 . S
C254 C253 1.397 . S
C254 C255 1.391 . S
C255 C254 1.391 . S
C255 C256 1.405 . S
C256 H236 0.950 . S
C256 C255 1.405 . S
C256 C257 1.367 . S
C257 H237 0.950 . S
C257 C252 1.386 . S
C257 C256 1.367 . S
C258 C252 1.483 . S
C258 C259 1.382 . S
C258 C260 1.403 . S
C259 H238 0.950 . S
C259 C258 1.382 . S
C259 C275 1.411 . S
C260 C258 1.403 . S
C260 C261 1.489 . S
C260 C274 1.411 . S
C261 C260 1.489 . S
C261 C262 1.383 . S
C261 C266 1.382 . S
C262 H239 0.950 . S
C262 C261 1.383 . S
C262 C263 1.395 . S
C263 H240 0.950 . S
C263 C262 1.395 . S
C263 C264 1.288 . S
C264 C263 1.288 . S
C264 C265 1.392 . S
C265 H241 0.951 . S
C265 C264 1.392 . S
C265 C266 1.392 . S
C266 H242 0.949 . S
C266 C261 1.382 . S
C266 C265 1.392 . S
C267 C268 1.376 . S
C267 C272 1.386 . S
C267 C273 1.483 . S
C268 H243 0.949 . S
C268 C267 1.376 . S
C268 C269 1.397 . S
C269 H244 0.950 . S
C269 C268 1.397 . S
C269 C270 1.391 . S
C270 C269 1.391 . S
C270 C271 1.405 . S
C271 H245 0.950 . S
C271 C270 1.405 . S
C271 C272 1.367 . S
C272 H246 0.950 . S
C272 C267 1.386 . S
C272 C271 1.367 . S
C273 C267 1.483 . S
C273 C274 1.382 . S
C273 C275 1.403 . S
C274 H247 0.950 . S
C274 C260 1.411 . S
C274 C273 1.382 . S
C275 C259 1.411 . S
C275 C273 1.403 . S
C275 C276 1.489 . S
C276 C275 1.489 . S
C276 C277 1.383 . S
C276 C281 1.382 . S
C277 H248 0.950 . S
C277 C276 1.383 . S
C277 C278 1.395 . S
C278 H249 0.950 . S
C278 C277 1.395 . S
C278 C279 1.288 . S
C279 C278 1.288 . S
C279 C280 1.392 . S
C280 H250 0.951 . S
C280 C279 1.392 . S
C280 C281 1.392 . S
C281 H251 0.949 . S
C281 C276 1.382 . S
C281 C280 1.392 . S
H282 C301 0.949 . S
H283 C302 0.950 . S
H284 C304 0.950 . S
H285 C305 0.950 . S
H286 C307 0.950 . S
H287 C310 0.950 . S
H288 C311 0.950 . S
H289 C313 0.951 . S
H290 C314 0.949 . S
H291 C316 0.949 . S
H292 C317 0.950 . S
H293 C319 0.950 . S
H294 C320 0.950 . S
H295 C322 0.950 . S
H296 C325 0.950 . S
H297 C326 0.950 . S
H298 C328 0.951 . S
H299 C329 0.949 . S
C300 C301 1.376 . S
C300 C305 1.386 . S
C300 C306 1.483 . S
C301 H282 0.949 . S
C301 C300 1.376 . S
C301 C302 1.397 . S
C302 H283 0.950 . S
C302 C301 1.397 . S
C302 C303 1.391 . S
C303 C302 1.391 . S
C303 C304 1.405 . S
C304 H284 0.950 . S
C304 C303 1.405 . S
C304 C305 1.367 . S
C305 H285 0.950 . S
C305 C300 1.386 . S
C305 C304 1.367 . S
C306 C300 1.483 . S
C306 C307 1.382 . S
C306 C308 1.403 . S
C307 H286 0.950 . S
C307 C306 1.382 . S
C307 C323 1.411 . S
C308 C306 1.403 . S
C308 C309 1.489 . S
C308 C322 1.411 . S
C309 C308 1.489 . S
C309 C310 1.383 . S
C309 C314 1.382 . S
C310 H287 0.950 . S
C310 C309 1.383 . S
C310 C311 1.395 . S
C311 H288 0.950 . S
C311 C310 1.395 . S
C311 C312 1.288 . S
C312 C311 1.288 . S
C312 C313 1.392 . S
C313 H289 0.951 . S
C313 C312 1.392 . S
C313 C314 1.392 . S
C314 H290 0.949 . S
C314 C309 1.382 . S
C314 C313 1.392 . S
C315 C316 1.376 . S
C315 C320 1.386 . S
C315 C321 1.483 . S
C316 H291 0.949 . S
C316 C315 1.376 . S
C316 C317 1.397 . S
C317 H292 0.950 . S
C317 C316 1.397 . S
C317 C318 1.391 . S
C318 C317 1.391 . S
C318 C319 1.405 . S
C319 H293 0.950 . S
C319 C318 1.405 . S
C319 C320 1.367 . S
C320 H294 0.950 . S
C320 C315 1.386 . S
C320 C319 1.367 . S
C321 C315 1.483 . S
C321 C322 1.382 . S
C321 C323 1.403 . S
C322 H295 0.950 . S
C322 C308 1.411 . S
C322 C321 1.382 . S
C323 C307 1.411 . S
C323 C321 1.403 . S
C323 C324 1.489 . S
C324 C323 1.489 . S
C324 C325 1.383 . S
C324 C329 1.382 . S
C325 H296 0.950 . S
C325 C324 1.383 . S
C325 C326 1.395 . S
C326 H297 0.950 . S
C326 C325 1.395 . S
C326 C327 1.288 . S
C327 C326 1.288 . S
C327 C328 1.392 . S
C328 H298 0.951 . S
C328 C327 1.392 . S
C328 C329 1.392 . S
C329 H299 0.949 . S
C329 C324 1.382 . S
C329 C328 1.392 . S
H330 C349 0.949 . S
H331 C350 0.950 . S
H332 C352 0.950 . S
H333 C353 0.950 . S
H334 C355 0.950 . S
H335 C358 0.950 . S
H336 C359 0.950 . S
H337 C361 0.951 . S
H338 C362 0.949 . S
H339 C364 0.949 . S
H340 C365 0.950 . S
H341 C367 0.950 . S
H342 C368 0.950 . S
H343 C370 0.950 . S
H344 C373 0.950 . S
H345 C374 0.950 . S
H346 C376 0.951 . S
H347 C377 0.949 . S
C348 C349 1.376 . S
C348 C353 1.386 . S
C348 C354 1.483 . S
C349 H330 0.949 . S
C349 C348 1.376 . S
C349 C350 1.397 . S
C350 H331 0.950 . S
C350 C349 1.397 . S
C350 C351 1.391 . S
C351 C350 1.391 . S
C351 C352 1.405 . S
C352 H332 0.950 . S
C352 C351 1.405 . S
C352 C353 1.367 . S
C353 H333 0.950 . S
C353 C348 1.386 . S
C353 C352 1.367 . S
C354 C348 1.483 . S
C354 C355 1.382 . S
C354 C356 1.403 . S
C355 H334 0.950 . S
C355 C354 1.382 . S
C355 C371 1.411 . S
C356 C354 1.403 . S
C356 C357 1.489 . S
C356 C370 1.411 . S
C357 C356 1.489 . S
C357 C358 1.383 . S
C357 C362 1.382 . S
C358 H335 0.950 . S
C358 C357 1.383 . S
C358 C359 1.395 . S
C359 H336 0.950 . S
C359 C358 1.395 . S
C359 C360 1.288 . S
C360 C359 1.288 . S
C360 C361 1.392 . S
C361 H337 0.951 . S
C361 C360 1.392 . S
C361 C362 1.392 . S
C362 H338 0.949 . S
C362 C357 1.382 . S
C362 C361 1.392 . S
C363 C364 1.376 . S
C363 C368 1.386 . S
C363 C369 1.483 . S
C364 H339 0.949 . S
C364 C363 1.376 . S
C364 C365 1.397 . S
C365 H340 0.950 . S
C365 C364 1.397 . S
C365 C366 1.391 . S
C366 C365 1.391 . S
C366 C367 1.405 . S
C367 H341 0.950 . S
C367 C366 1.405 . S
C367 C368 1.367 . S
C368 H342 0.950 . S
C368 C363 1.386 . S
C368 C367 1.367 . S
C369 C363 1.483 . S
C369 C370 1.382 . S
C369 C371 1.403 . S
C370 H343 0.950 . S
C370 C356 1.411 . S
C370 C369 1.382 . S
C371 C355 1.411 . S
C371 C369 1.403 . S
C371 C372 1.489 . S
C372 C371 1.489 . S
C372 C373 1.383 . S
C372 C377 1.382 . S
C373 H344 0.950 . S
C373 C372 1.383 . S
C373 C374 1.395 . S
C374 H345 0.950 . S
C374 C373 1.395 . S
C374 C375 1.288 . S
C375 C374 1.288 . S
C375 C376 1.392 . S
C376 H346 0.951 . S
C376 C375 1.392 . S
C376 C377 1.392 . S
C377 H347 0.949 . S
C377 C372 1.382 . S
C377 C376 1.392 . S
H378 C397 0.949 . S
H379 C398 0.950 . S
H380 C400 0.950 . S
H381 C401 0.950 . S
H382 C403 0.950 . S
H383 C406 0.950 . S
H384 C407 0.950 . S
H385 C409 0.951 . S
H386 C410 0.949 . S
H387 C412 0.949 . S
H388 C413 0.950 . S
H389 C415 0.950 . S
H390 C416 0.950 . S
H391 C418 0.950 . S
H392 C421 0.950 . S
H393 C422 0.950 . S
H394 C424 0.951 . S
H395 C425 0.949 . S
C396 C397 1.376 . S
C396 C401 1.386 . S
C396 C402 1.483 . S
C397 H378 0.949 . S
C397 C396 1.376 . S
C397 C398 1.397 . S
C398 H379 0.950 . S
C398 C397 1.397 . S
C398 C399 1.391 . S
C399 C398 1.391 . S
C399 C400 1.405 . S
C400 H380 0.950 . S
C400 C399 1.405 . S
C400 C401 1.367 . S
C401 H381 0.950 . S
C401 C396 1.386 . S
C401 C400 1.367 . S
C402 C396 1.483 . S
C402 C403 1.382 . S
C402 C404 1.403 . S
C403 H382 0.950 . S
C403 C402 1.382 . S
C403 C419 1.411 . S
C404 C402 1.403 . S
C404 C405 1.489 . S
C404 C418 1.411 . S
C405 C404 1.489 . S
C405 C406 1.383 . S
C405 C410 1.382 . S
C406 H383 0.950 . S
C406 C405 1.383 . S
C406 C407 1.395 . S
C407 H384 0.950 . S
C407 C406 1.395 . S
C407 C408 1.288 . S
C408 C407 1.288 . S
C408 C409 1.392 . S
C409 H385 0.951 . S
C409 C408 1.392 . S
C409 C410 1.392 . S
C410 H386 0.949 . S
C410 C405 1.382 . S
C410 C409 1.392 . S
C411 C412 1.376 . S
C411 C416 1.386 . S
C411 C417 1.483 . S
C412 H387 0.949 . S
C412 C411 1.376 . S
C412 C413 1.397 . S
C413 H388 0.950 . S
C413 C412 1.397 . S
C413 C414 1.391 . S
C414 C413 1.391 . S
C414 C415 1.405 . S
C415 H389 0.950 . S
C415 C414 1.405 . S
C415 C416 1.367 . S
C416 H390 0.950 . S
C416 C411 1.386 . S
C416 C415 1.367 . S
C417 C411 1.483 . S
C417 C418 1.382 . S
C417 C419 1.403 . S
C418 H391 0.950 . S
C418 C404 1.411 . S
C418 C417 1.382 . S
C419 C403 1.411 . S
C419 C417 1.403 . S
C419 C420 1.489 . S
C420 C419 1.489 . S
C420 C421 1.383 . S
C420 C425 1.382 . S
C421 H392 0.950 . S
C421 C420 1.383 . S
C421 C422 1.395 . S
C422 H393 0.950 . S
C422 C421 1.395 . S
C422 C423 1.288 . S
C423 C422 1.288 . S
C423 C424 1.392 . S
C424 H394 0.951 . S
C424 C423 1.392 . S
C424 C425 1.392 . S
C425 H395 0.949 . S
C425 C420 1.382 . S
C425 C424 1.392 . S
H426 C445 0.949 . S
H427 C446 0.950 . S
H428 C448 0.950 . S
H429 C449 0.950 . S
H430 C451 0.950 . S
H431 C454 0.950 . S
H432 C455 0.950 . S
H433 C457 0.951 . S
H434 C458 0.949 . S
H435 C460 0.949 . S
H436 C461 0.950 . S
H437 C463 0.950 . S
H438 C464 0.950 . S
H439 C466 0.950 . S
H440 C469 0.950 . S
H441 C470 0.950 . S
H442 C472 0.951 . S
H443 C473 0.949 . S
C444 C445 1.376 . S
C444 C449 1.386 . S
C444 C450 1.483 . S
C445 H426 0.949 . S
C445 C444 1.376 . S
C445 C446 1.397 . S
C446 H427 0.950 . S
C446 C445 1.397 . S
C446 C447 1.391 . S
C447 C446 1.391 . S
C447 C448 1.405 . S
C448 H428 0.950 . S
C448 C447 1.405 . S
C448 C449 1.367 . S
C449 H429 0.950 . S
C449 C444 1.386 . S
C449 C448 1.367 . S
C450 C444 1.483 . S
C450 C451 1.382 . S
C450 C452 1.403 . S
C451 H430 0.950 . S
C451 C450 1.382 . S
C451 C467 1.411 . S
C452 C450 1.403 . S
C452 C453 1.489 . S
C452 C466 1.411 . S
C453 C452 1.489 . S
C453 C454 1.383 . S
C453 C458 1.382 . S
C454 H431 0.950 . S
C454 C453 1.383 . S
C454 C455 1.395 . S
C455 H432 0.950 . S
C455 C454 1.395 . S
C455 C456 1.288 . S
C456 C455 1.288 . S
C456 C457 1.392 . S
C457 H433 0.951 . S
C457 C456 1.392 . S
C457 C458 1.392 . S
C458 H434 0.949 . S
C458 C453 1.382 . S
C458 C457 1.392 . S
C459 C460 1.376 . S
C459 C464 1.386 . S
C459 C465 1.483 . S
C460 H435 0.949 . S
C460 C459 1.376 . S
C460 C461 1.397 . S
C461 H436 0.950 . S
C461 C460 1.397 . S
C461 C462 1.391 . S
C462 C461 1.391 . S
C462 C463 1.405 . S
C463 H437 0.950 . S
C463 C462 1.405 . S
C463 C464 1.367 . S
C464 H438 0.950 . S
C464 C459 1.386 . S
C464 C463 1.367 . S
C465 C459 1.483 . S
C465 C466 1.382 . S
C465 C467 1.403 . S
C466 H439 0.950 . S
C466 C452 1.411 . S
C466 C465 1.382 . S
C467 C451 1.411 . S
C467 C465 1.403 . S
C467 C468 1.489 . S
C468 C467 1.489 . S
C468 C469 1.383 . S
C468 C473 1.382 . S
C469 H440 0.950 . S
C469 C468 1.383 . S
C469 C470 1.395 . S
C470 H441 0.950 . S
C470 C469 1.395 . S
C470 C471 1.288 . S
C471 C470 1.288 . S
C471 C472 1.392 . S
C472 H442 0.951 . S
C472 C471 1.392 . S
C472 C473 1.392 . S
C473 H443 0.949 . S
C473 C468 1.382 . S
C473 C472 1.392 . S
H474 C493 0.949 . S
H475 C494 0.950 . S
H476 C496 0.950 . S
H477 C497 0.950 . S
H478 C499 0.950 . S
H479 C502 0.950 . S
H480 C503 0.950 . S
H481 C505 0.935 1_554 S
H482 C506 0.949 . S
H483 C508 0.949 . S
H484 C509 0.950 . S
H485 C511 0.950 . S
H486 C512 0.950 . S
H487 C514 0.950 . S
H488 C517 0.950 . S
H489 C518 0.950 . S
H490 C520 0.951 . S
H491 C521 0.949 . S
C492 C493 1.376 . S
C492 C497 1.386 . S
C492 C498 1.483 . S
C493 H474 0.949 . S
C493 C492 1.376 . S
C493 C494 1.397 . S
C494 H475 0.950 . S
C494 C493 1.397 . S
C494 C495 1.391 . S
C495 C494 1.391 . S
C495 C496 1.405 . S
C496 H476 0.950 . S
C496 C495 1.405 . S
C496 C497 1.367 . S
C497 H477 0.950 . S
C497 C492 1.386 . S
C497 C496 1.367 . S
C498 C492 1.483 . S
C498 C499 1.382 . S
C498 C500 1.403 . S
C499 H478 0.950 . S
C499 C498 1.382 . S
C499 C515 1.411 . S
C500 C498 1.403 . S
C500 C501 1.489 . S
C500 C514 1.411 . S
C501 C500 1.489 . S
C501 C502 1.383 . S
C501 C506 1.382 . S
C502 H479 0.950 . S
C502 C501 1.383 . S
C502 C503 1.395 . S
C503 H480 0.950 . S
C503 C502 1.395 . S
C503 C504 1.288 . S
C504 C503 1.288 . S
C504 C505 1.392 . S
C505 H481 0.935 1_556 S
C505 C504 1.392 . S
C505 C506 1.392 . S
C506 H482 0.949 . S
C506 C501 1.382 . S
C506 C505 1.392 . S
C507 C508 1.376 . S
C507 C512 1.386 . S
C507 C513 1.483 . S
C508 H483 0.949 . S
C508 C507 1.376 . S
C508 C509 1.397 . S
C509 H484 0.950 . S
C509 C508 1.397 . S
C509 C510 1.391 . S
C510 C509 1.391 . S
C510 C511 1.405 . S
C511 H485 0.950 . S
C511 C510 1.405 . S
C511 C512 1.367 . S
C512 H486 0.950 . S
C512 C507 1.386 . S
C512 C511 1.367 . S
C513 C507 1.483 . S
C513 C514 1.382 . S
C513 C515 1.403 . S
C514 H487 0.950 . S
C514 C500 1.411 . S
C514 C513 1.382 . S
C515 C499 1.411 . S
C515 C513 1.403 . S
C515 C516 1.489 . S
C516 C515 1.489 . S
C516 C517 1.383 . S
C516 C521 1.382 . S
C517 H488 0.950 . S
C517 C516 1.383 . S
C517 C518 1.395 . S
C518 H489 0.950 . S
C518 C517 1.395 . S
C518 C519 1.288 . S
C519 C518 1.288 . S
C519 C520 1.392 . S
C520 H490 0.951 . S
C520 C519 1.392 . S
C520 C521 1.392 . S
C521 H491 0.949 . S
C521 C516 1.382 . S
C521 C520 1.392 . S
H522 C541 0.949 . S
H523 C542 0.950 . S
H524 C544 0.950 . S
H525 C545 0.950 . S
H526 C547 0.950 . S
H527 C550 0.950 . S
H528 C551 0.950 . S
H529 C553 0.951 . S
H530 C554 0.949 . S
H531 C556 0.949 . S
H532 C557 0.950 . S
H533 C559 0.950 . S
H534 C560 0.950 . S
H535 C562 0.950 . S
H536 C565 0.950 . S
H537 C566 0.950 . S
H538 C568 0.951 . S
H539 C569 0.949 . S
C540 C541 1.376 . S
C540 C545 1.386 . S
C540 C546 1.483 . S
C541 H522 0.949 . S
C541 C540 1.376 . S
C541 C542 1.397 . S
C542 H523 0.950 . S
C542 C541 1.397 . S
C542 C543 1.391 . S
C543 C542 1.391 . S
C543 C544 1.405 . S
C544 H524 0.950 . S
C544 C543 1.405 . S
C544 C545 1.367 . S
C545 H525 0.950 . S
C545 C540 1.386 . S
C545 C544 1.367 . S
C546 C540 1.483 . S
C546 C547 1.382 . S
C546 C548 1.403 . S
C547 H526 0.950 . S
C547 C546 1.382 . S
C547 C563 1.411 . S
C548 C546 1.403 . S
C548 C549 1.489 . S
C548 C562 1.411 . S
C549 C548 1.489 . S
C549 C550 1.383 . S
C549 C554 1.382 . S
C550 H527 0.950 . S
C550 C549 1.383 . S
C550 C551 1.395 . S
C551 H528 0.950 . S
C551 C550 1.395 . S
C551 C552 1.288 . S
C552 C551 1.288 . S
C552 C553 1.392 . S
C553 H529 0.951 . S
C553 C552 1.392 . S
C553 C554 1.392 . S
C554 H530 0.949 . S
C554 C549 1.382 . S
C554 C553 1.392 . S
C555 C556 1.376 . S
C555 C560 1.386 . S
C555 C561 1.483 . S
C556 H531 0.949 . S
C556 C555 1.376 . S
C556 C557 1.397 . S
C557 H532 0.950 . S
C557 C556 1.397 . S
C557 C558 1.391 . S
C558 C557 1.391 . S
C558 C559 1.405 . S
C559 H533 0.950 . S
C559 C558 1.405 . S
C559 C560 1.367 . S
C560 H534 0.950 . S
C560 C555 1.386 . S
C560 C559 1.367 . S
C561 C555 1.483 . S
C561 C562 1.382 . S
C561 C563 1.403 . S
C562 H535 0.950 . S
C562 C548 1.411 . S
C562 C561 1.382 . S
C563 C547 1.411 . S
C563 C561 1.403 . S
C563 C564 1.489 . S
C564 C563 1.489 . S
C564 C565 1.383 . S
C564 C569 1.382 . S
C565 H536 0.950 . S
C565 C564 1.383 . S
C565 C566 1.395 . S
C566 H537 0.950 . S
C566 C565 1.395 . S
C566 C567 1.288 . S
C567 C566 1.288 . S
C567 C568 1.392 . S
C568 H538 0.951 . S
C568 C567 1.392 . S
C568 C569 1.392 . S
C569 H539 0.949 . S
C569 C564 1.382 . S
C569 C568 1.392 . S
H570 C589 0.949 . S
H571 C590 0.950 . S
H572 C592 0.950 . S
H573 C593 0.950 . S
H574 C595 0.950 . S
H575 C598 0.950 . S
H576 C599 0.950 . S
H577 C601 0.951 . S
H578 C602 0.949 . S
H579 C604 0.949 . S
H580 C605 0.950 . S
H581 C607 0.950 . S
H582 C608 0.950 . S
H583 C610 0.950 . S
H584 C613 0.950 . S
H585 C614 0.950 . S
H586 C616 0.951 . S
H587 C617 0.949 . S
C588 C589 1.376 . S
C588 C593 1.386 . S
C588 C594 1.483 . S
C589 H570 0.949 . S
C589 C588 1.376 . S
C589 C590 1.397 . S
C590 H571 0.950 . S
C590 C589 1.397 . S
C590 C591 1.391 . S
C591 C590 1.391 . S
C591 C592 1.405 . S
C592 H572 0.950 . S
C592 C591 1.405 . S
C592 C593 1.367 . S
C593 H573 0.950 . S
C593 C588 1.386 . S
C593 C592 1.367 . S
C594 C588 1.483 . S
C594 C595 1.382 . S
C594 C596 1.403 . S
C595 H574 0.950 . S
C595 C594 1.382 . S
C595 C611 1.411 . S
C596 C594 1.403 . S
C596 C597 1.489 . S
C596 C610 1.411 . S
C597 C596 1.489 . S
C597 C598 1.383 . S
C597 C602 1.382 . S
C598 H575 0.950 . S
C598 C597 1.383 . S
C598 C599 1.395 . S
C599 H576 0.950 . S
C599 C598 1.395 . S
C599 C600 1.288 . S
C600 C599 1.288 . S
C600 C601 1.392 . S
C601 H577 0.951 . S
C601 C600 1.392 . S
C601 C602 1.392 . S
C602 H578 0.949 . S
C602 C597 1.382 . S
C602 C601 1.392 . S
C603 C604 1.376 . S
C603 C608 1.386 . S
C603 C609 1.483 . S
C604 H579 0.949 . S
C604 C603 1.376 . S
C604 C605 1.397 . S
C605 H580 0.950 . S
C605 C604 1.397 . S
C605 C606 1.391 . S
C606 C605 1.391 . S
C606 C607 1.405 . S
C607 H581 0.950 . S
C607 C606 1.405 . S
C607 C608 1.367 . S
C608 H582 0.950 . S
C608 C603 1.386 . S
C608 C607 1.367 . S
C609 C603 1.483 . S
C609 C610 1.382 . S
C609 C611 1.403 . S
C610 H583 0.950 . S
C610 C596 1.411 . S
C610 C609 1.382 . S
C611 C595 1.411 . S
C611 C609 1.403 . S
C611 C612 1.489 . S
C612 C611 1.489 . S
C612 C613 1.383 . S
C612 C617 1.382 . S
C613 H584 0.950 . S
C613 C612 1.383 . S
C613 C614 1.395 . S
C614 H585 0.950 . S
C614 C613 1.395 . S
C614 C615 1.288 . S
C615 C614 1.288 . S
C615 C616 1.392 . S
C616 H586 0.951 . S
C616 C615 1.392 . S
C616 C617 1.392 . S
C617 H587 0.949 . S
C617 C612 1.382 . S
C617 C616 1.392 . S
H618 C637 0.949 . S
H619 C638 0.950 . S
H620 C640 0.950 . S
H621 C641 0.950 . S
H622 C643 0.950 . S
H623 C646 0.950 . S
H624 C647 0.950 . S
H625 C649 0.951 . S
H626 C650 0.949 . S
H627 C652 0.949 . S
H628 C653 0.950 . S
H629 C655 0.950 . S
H630 C656 0.950 . S
H631 C658 0.950 . S
H632 C661 0.950 . S
H633 C662 0.950 . S
H634 C664 0.951 . S
H635 C665 0.949 . S
C636 C637 1.376 . S
C636 C641 1.386 . S
C636 C642 1.483 . S
C637 H618 0.949 . S
C637 C636 1.376 . S
C637 C638 1.397 . S
C638 H619 0.950 . S
C638 C637 1.397 . S
C638 C639 1.391 . S
C639 C638 1.391 . S
C639 C640 1.405 . S
C640 H620 0.950 . S
C640 C639 1.405 . S
C640 C641 1.367 . S
C641 H621 0.950 . S
C641 C636 1.386 . S
C641 C640 1.367 . S
C642 C636 1.483 . S
C642 C643 1.382 . S
C642 C644 1.403 . S
C643 H622 0.950 . S
C643 C642 1.382 . S
C643 C659 1.411 . S
C644 C642 1.403 . S
C644 C645 1.489 . S
C644 C658 1.411 . S
C645 C644 1.489 . S
C645 C646 1.383 . S
C645 C650 1.382 . S
C646 H623 0.950 . S
C646 C645 1.383 . S
C646 C647 1.395 . S
C647 H624 0.950 . S
C647 C646 1.395 . S
C647 C648 1.288 . S
C648 C647 1.288 . S
C648 C649 1.392 . S
C649 H625 0.951 . S
C649 C648 1.392 . S
C649 C650 1.392 . S
C650 H626 0.949 . S
C650 C645 1.382 . S
C650 C649 1.392 . S
C651 C652 1.376 . S
C651 C656 1.386 . S
C651 C657 1.483 . S
C652 H627 0.949 . S
C652 C651 1.376 . S
C652 C653 1.397 . S
C653 H628 0.950 . S
C653 C652 1.397 . S
C653 C654 1.391 . S
C654 C653 1.391 . S
C654 C655 1.405 . S
C655 H629 0.950 . S
C655 C654 1.405 . S
C655 C656 1.367 . S
C656 H630 0.950 . S
C656 C651 1.386 . S
C656 C655 1.367 . S
C657 C651 1.483 . S
C657 C658 1.382 . S
C657 C659 1.403 . S
C658 H631 0.950 . S
C658 C644 1.411 . S
C658 C657 1.382 . S
C659 C643 1.411 . S
C659 C657 1.403 . S
C659 C660 1.489 . S
C660 C659 1.489 . S
C660 C661 1.383 . S
C660 C665 1.382 . S
C661 H632 0.950 . S
C661 C660 1.383 . S
C661 C662 1.395 . S
C662 H633 0.950 . S
C662 C661 1.395 . S
C662 C663 1.288 . S
C663 C662 1.288 . S
C663 C664 1.392 . S
C664 H634 0.951 . S
C664 C663 1.392 . S
C664 C665 1.392 . S
C665 H635 0.949 . S
C665 C660 1.382 . S
C665 C664 1.392 . S
H666 C685 0.949 . S
H667 C686 0.950 . S
H668 C688 0.950 . S
H669 C689 0.950 . S
H670 C691 0.950 . S
H671 C694 0.950 . S
H672 C695 0.950 . S
H673 C697 0.951 . S
H674 C698 0.949 . S
H675 C700 0.949 . S
H676 C701 0.950 . S
H677 C703 0.950 . S
H678 C704 0.950 . S
H679 C706 0.950 . S
H680 C709 0.950 . S
H681 C710 0.950 . S
H682 C712 0.951 . S
H683 C713 0.949 . S
C684 C685 1.376 . S
C684 C689 1.386 1_655 S
C684 C690 1.483 . S
C685 H666 0.949 . S
C685 C684 1.376 . S
C685 C686 1.397 . S
C686 H667 0.950 . S
C686 C685 1.397 . S
C686 C687 1.391 . S
C687 C686 1.391 . S
C687 C688 1.405 1_655 S
C688 H668 0.950 . S
C688 C687 1.405 1_455 S
C688 C689 1.367 . S
C689 H669 0.950 . S
C689 C684 1.386 1_455 S
C689 C688 1.367 . S
C690 C684 1.483 . S
C690 C691 1.382 . S
C690 C692 1.403 1_655 S
C691 H670 0.950 . S
C691 C690 1.382 . S
C691 C707 1.411 . S
C692 C690 1.403 1_455 S
C692 C693 1.489 . S
C692 C706 1.411 . S
C693 C692 1.489 . S
C693 C694 1.383 1_455 S
C693 C698 1.382 . S
C694 H671 0.950 . S
C694 C693 1.383 1_655 S
C694 C695 1.395 . S
C695 H672 0.950 . S
C695 C694 1.395 . S
C695 C696 1.288 1_655 S
C696 C695 1.288 1_455 S
C696 C697 1.392 . S
C697 H673 0.951 . S
C697 C696 1.392 . S
C697 C698 1.392 . S
C698 H674 0.949 . S
C698 C693 1.382 . S
C698 C697 1.392 . S
C699 C700 1.376 . S
C699 C704 1.386 1_455 S
C699 C705 1.483 . S
C700 H675 0.949 . S
C700 C699 1.376 . S
C700 C701 1.397 . S
C701 H676 0.950 . S
C701 C700 1.397 . S
C701 C702 1.391 . S
C702 C701 1.391 . S
C702 C703 1.405 1_455 S
C703 H677 0.950 . S
C703 C702 1.405 1_655 S
C703 C704 1.367 . S
C704 H678 0.950 . S
C704 C699 1.386 1_655 S
C704 C703 1.367 . S
C705 C699 1.483 . S
C705 C706 1.382 . S
C705 C707 1.403 1_455 S
C706 H679 0.950 . S
C706 C692 1.411 . S
C706 C705 1.382 . S
C707 C691 1.411 . S
C707 C705 1.403 1_655 S
C707 C708 1.489 . S
C708 C707 1.489 . S
C708 C709 1.383 1_655 S
C708 C713 1.382 . S
C709 H680 0.950 . S
C709 C708 1.383 1_455 S
C709 C710 1.395 . S
C710 H681 0.950 . S
C710 C709 1.395 . S
C710 C711 1.288 1_455 S
C711 C710 1.288 1_655 S
C711 C712 1.392 . S
C712 H682 0.951 . S
C712 C711 1.392 . S
C712 C713 1.392 . S
C713 H683 0.949 . S
C713 C708 1.382 . S
C713 C712 1.392 . S
H714 C733 0.949 . S
H715 C734 0.950 . S
H716 C736 0.950 . S
H717 C737 0.950 . S
H718 C739 0.950 . S
H719 C742 0.950 . S
H720 C743 0.950 . S
H721 C745 0.951 . S
H722 C746 0.949 . S
H723 C748 0.949 . S
H724 C749 0.950 . S
H725 C751 0.950 . S
H726 C752 0.950 . S
H727 C754 0.950 . S
H728 C757 0.950 . S
H729 C758 0.950 . S
H730 C760 0.951 . S
H731 C761 0.949 . S
C732 C733 1.376 . S
C732 C737 1.386 . S
C732 C738 1.483 . S
C733 H714 0.949 . S
C733 C732 1.376 . S
C733 C734 1.397 . S
C734 H715 0.950 . S
C734 C733 1.397 . S
C734 C735 1.391 . S
C735 C734 1.391 . S
C735 C736 1.405 . S
C736 H716 0.950 . S
C736 C735 1.405 . S
C736 C737 1.367 . S
C737 H717 0.950 . S
C737 C732 1.386 . S
C737 C736 1.367 . S
C738 C732 1.483 . S
C738 C739 1.382 . S
C738 C740 1.403 . S
C739 H718 0.950 . S
C739 C738 1.382 . S
C739 C755 1.411 . S
C740 C738 1.403 . S
C740 C741 1.489 . S
C740 C754 1.411 . S
C741 C740 1.489 . S
C741 C742 1.383 . S
C741 C746 1.382 . S
C742 H719 0.950 . S
C742 C741 1.383 . S
C742 C743 1.395 . S
C743 H720 0.950 . S
C743 C742 1.395 . S
C743 C744 1.288 . S
C744 C743 1.288 . S
C744 C745 1.392 . S
C745 H721 0.951 . S
C745 C744 1.392 . S
C745 C746 1.392 . S
C746 H722 0.949 . S
C746 C741 1.382 . S
C746 C745 1.392 . S
C747 C748 1.376 . S
C747 C752 1.386 . S
C747 C753 1.483 . S
C748 H723 0.949 . S
C748 C747 1.376 . S
C748 C749 1.397 . S
C749 H724 0.950 . S
C749 C748 1.397 . S
C749 C750 1.391 . S
C750 C749 1.391 . S
C750 C751 1.405 . S
C751 H725 0.950 . S
C751 C750 1.405 . S
C751 C752 1.367 . S
C752 H726 0.950 . S
C752 C747 1.386 . S
C752 C751 1.367 . S
C753 C747 1.483 . S
C753 C754 1.382 . S
C753 C755 1.403 . S
C754 H727 0.950 . S
C754 C740 1.411 . S
C754 C753 1.382 . S
C755 C739 1.411 . S
C755 C753 1.403 . S
C755 C756 1.489 . S
C756 C755 1.489 . S
C756 C757 1.383 . S
C756 C761 1.382 . S
C757 H728 0.950 . S
C757 C756 1.383 . S
C757 C758 1.395 . S
C758 H729 0.950 . S
C758 C757 1.395 . S
C758 C759 1.288 . S
C759 C758 1.288 . S
C759 C760 1.392 . S
C760 H730 0.951 . S
C760 C759 1.392 . S
C760 C761 1.392 . S
C761 H731 0.949 . S
C761 C756 1.382 . S
C761 C760 1.392 . S
H762 C781 0.949 . S
H763 C782 0.950 . S
H764 C784 0.950 . S
H765 C785 0.950 . S
H766 C787 0.950 . S
H767 C790 0.950 . S
H768 C791 0.950 . S
H769 C793 0.951 . S
H770 C794 0.949 . S
H771 C796 0.949 . S
H772 C797 0.950 . S
H773 C799 0.950 . S
H774 C800 0.950 . S
H775 C802 0.950 . S
H776 C805 0.950 . S
H777 C806 0.950 . S
H778 C808 0.951 . S
H779 C809 0.949 . S
C780 C781 1.376 . S
C780 C785 1.386 1_545 S
C780 C786 1.483 . S
C781 H762 0.949 . S
C781 C780 1.376 . S
C781 C782 1.397 . S
C782 H763 0.950 . S
C782 C781 1.397 . S
C782 C783 1.391 . S
C783 C782 1.391 . S
C783 C784 1.405 1_545 S
C784 H764 0.950 . S
C784 C783 1.405 1_565 S
C784 C785 1.367 . S
C785 H765 0.950 . S
C785 C780 1.386 1_565 S
C785 C784 1.367 . S
C786 C780 1.483 . S
C786 C787 1.382 . S
C786 C788 1.403 1_545 S
C787 H766 0.950 . S
C787 C786 1.382 . S
C787 C803 1.411 . S
C788 C786 1.403 1_565 S
C788 C789 1.489 . S
C788 C802 1.411 . S
C789 C788 1.489 . S
C789 C790 1.383 1_565 S
C789 C794 1.382 . S
C790 H767 0.950 . S
C790 C789 1.383 1_545 S
C790 C791 1.395 . S
C791 H768 0.950 . S
C791 C790 1.395 . S
C791 C792 1.288 1_545 S
C792 C791 1.288 1_565 S
C792 C793 1.392 . S
C793 H769 0.951 . S
C793 C792 1.392 . S
C793 C794 1.392 . S
C794 H770 0.949 . S
C794 C789 1.382 . S
C794 C793 1.392 . S
C795 C796 1.376 . S
C795 C800 1.386 1_565 S
C795 C801 1.483 . S
C796 H771 0.949 . S
C796 C795 1.376 . S
C796 C797 1.397 . S
C797 H772 0.950 . S
C797 C796 1.397 . S
C797 C798 1.391 . S
C798 C797 1.391 . S
C798 C799 1.405 1_565 S
C799 H773 0.950 . S
C799 C798 1.405 1_545 S
C799 C800 1.367 . S
C800 H774 0.950 . S
C800 C795 1.386 1_545 S
C800 C799 1.367 . S
C801 C795 1.483 . S
C801 C802 1.382 . S
C801 C803 1.403 1_565 S
C802 H775 0.950 . S
C802 C788 1.411 . S
C802 C801 1.382 . S
C803 C787 1.411 . S
C803 C801 1.403 1_545 S
C803 C804 1.489 . S
C804 C803 1.489 . S
C804 C805 1.383 1_545 S
C804 C809 1.382 . S
C805 H776 0.950 . S
C805 C804 1.383 1_565 S
C805 C806 1.395 . S
C806 H777 0.950 . S
C806 C805 1.395 . S
C806 C807 1.288 1_565 S
C807 C806 1.288 1_545 S
C807 C808 1.392 . S
C808 H778 0.951 . S
C808 C807 1.392 . S
C808 C809 1.392 . S
C809 H779 0.949 . S
C809 C804 1.382 . S
C809 C808 1.392 . S
H810 C829 0.949 . S
H811 C830 0.950 . S
H812 C832 0.950 . S
H813 C833 0.950 . S
H814 C835 0.950 . S
H815 C838 0.950 . S
H816 C839 0.950 . S
H817 C841 0.951 . S
H818 C842 0.949 . S
H819 C844 0.949 . S
H820 C845 0.950 . S
H821 C847 0.950 . S
H822 C848 0.950 . S
H823 C850 0.950 . S
H824 C853 0.950 . S
H825 C854 0.950 . S
H826 C856 0.951 . S
H827 C857 0.949 . S
C828 C829 1.395 . S
C828 C833 1.378 1_545 S
C828 C834 1.472 . S
C829 H810 0.949 . S
C829 C828 1.395 . S
C829 C830 1.397 . S
C830 H811 0.950 . S
C830 C829 1.397 . S
C830 C831 1.391 1_545 S
C831 C830 1.391 1_565 S
C831 C832 1.405 . S
C832 H812 0.950 . S
C832 C831 1.405 . S
C832 C833 1.367 . S
C833 H813 0.950 . S
C833 C828 1.378 1_565 S
C833 C832 1.367 . S
C834 C828 1.472 . S
C834 C835 1.382 . S
C834 C836 1.403 1_545 S
C835 H814 0.950 . S
C835 C834 1.382 . S
C835 C851 1.411 . S
C836 C834 1.403 1_565 S
C836 C837 1.500 . S
C836 C850 1.411 . S
C837 C836 1.500 . S
C837 C838 1.361 1_565 S
C837 C842 1.392 . S
C838 H815 0.950 . S
C838 C837 1.361 1_545 S
C838 C839 1.395 . S
C839 H816 0.950 . S
C839 C838 1.395 . S
C839 C840 1.288 . S
C840 C839 1.288 . S
C840 C841 1.392 1_545 S
C841 H817 0.951 . S
C841 C840 1.392 1_565 S
C841 C842 1.392 . S
C842 H818 0.949 . S
C842 C837 1.392 . S
C842 C841 1.392 . S
C843 C844 1.389 . S
C843 C848 1.380 1_565 S
C843 C849 1.475 . S
C844 H819 0.949 . S
C844 C843 1.389 . S
C844 C845 1.397 . S
C845 H820 0.950 . S
C845 C844 1.397 . S
C845 C846 1.391 1_565 S
C846 C845 1.391 1_545 S
C846 C847 1.405 . S
C847 H821 0.950 . S
C847 C846 1.405 . S
C847 C848 1.367 . S
C848 H822 0.950 . S
C848 C843 1.380 1_545 S
C848 C847 1.367 . S
C849 C843 1.475 . S
C849 C850 1.382 . S
C849 C851 1.403 1_565 S
C850 H823 0.950 . S
C850 C836 1.411 . S
C850 C849 1.382 . S
C851 C835 1.411 . S
C851 C849 1.403 1_545 S
C851 C852 1.504 . S
C852 C851 1.504 . S
C852 C853 1.352 1_545 S
C852 C857 1.397 . S
C853 H824 0.950 . S
C853 C852 1.352 1_565 S
C853 C854 1.395 . S
C854 H825 0.950 . S
C854 C853 1.395 . S
C854 C855 1.288 . S
C855 C854 1.288 . S
C855 C856 1.392 1_565 S
C856 H826 0.951 . S
C856 C855 1.392 1_545 S
C856 C857 1.392 . S
C857 H827 0.949 . S
C857 C852 1.397 . S
C857 C856 1.392 . S
H858 C877 0.949 . S
H859 C878 0.950 . S
H860 C880 0.950 . S
H861 C881 0.950 . S
H862 C883 0.950 . S
H863 C886 0.950 . S
H864 C887 0.950 . S
H865 C889 0.951 . S
H866 C890 0.949 . S
H867 C892 0.949 . S
H868 C893 0.950 . S
H869 C895 0.950 . S
H870 C896 0.950 . S
H871 C898 0.950 . S
H872 C901 0.950 . S
H873 C902 0.950 . S
H874 C904 0.951 . S
H875 C905 0.949 . S
C876 C877 1.376 . S
C876 C881 1.386 1_455 S
C876 C882 1.483 . S
C877 H858 0.949 . S
C877 C876 1.376 . S
C877 C878 1.397 . S
C878 H859 0.950 . S
C878 C877 1.397 . S
C878 C879 1.391 . S
C879 C878 1.391 . S
C879 C880 1.405 1_455 S
C880 H860 0.950 . S
C880 C879 1.405 1_655 S
C880 C881 1.367 . S
C881 H861 0.950 . S
C881 C876 1.386 1_655 S
C881 C880 1.367 . S
C882 C876 1.483 . S
C882 C883 1.382 . S
C882 C884 1.403 1_455 S
C883 H862 0.950 . S
C883 C882 1.382 . S
C883 C899 1.411 . S
C884 C882 1.403 1_655 S
C884 C885 1.489 . S
C884 C898 1.411 . S
C885 C884 1.489 . S
C885 C886 1.383 1_655 S
C885 C890 1.382 . S
C886 H863 0.950 . S
C886 C885 1.383 1_455 S
C886 C887 1.395 . S
C887 H864 0.950 . S
C887 C886 1.395 . S
C887 C888 1.288 1_455 S
C888 C887 1.288 1_655 S
C888 C889 1.392 . S
C889 H865 0.951 . S
C889 C888 1.392 . S
C889 C890 1.392 . S
C890 H866 0.949 . S
C890 C885 1.382 . S
C890 C889 1.392 . S
C891 C892 1.376 . S
C891 C896 1.386 1_655 S
C891 C897 1.483 . S
C892 H867 0.949 . S
C892 C891 1.376 . S
C892 C893 1.397 . S
C893 H868 0.950 . S
C893 C892 1.397 . S
C893 C894 1.391 . S
C894 C893 1.391 . S
C894 C895 1.405 1_655 S
C895 H869 0.950 . S
C895 C894 1.405 1_455 S
C895 C896 1.367 . S
C896 H870 0.950 . S
C896 C891 1.386 1_455 S
C896 C895 1.367 . S
C897 C891 1.483 . S
C897 C898 1.382 . S
C897 C899 1.403 1_655 S
C898 H871 0.950 . S
C898 C884 1.411 . S
C898 C897 1.382 . S
C899 C883 1.411 . S
C899 C897 1.403 1_455 S
C899 C900 1.489 . S
C900 C899 1.489 . S
C900 C901 1.383 1_455 S
C900 C905 1.382 . S
C901 H872 0.950 . S
C901 C900 1.383 1_655 S
C901 C902 1.395 . S
C902 H873 0.950 . S
C902 C901 1.395 . S
C902 C903 1.288 1_655 S
C903 C902 1.288 1_455 S
C903 C904 1.392 . S
C904 H874 0.951 . S
C904 C903 1.392 . S
C904 C905 1.392 . S
C905 H875 0.949 . S
C905 C900 1.382 . S
C905 C904 1.392 . S
H906 C925 0.949 . S
H907 C926 0.950 . S
H908 C928 0.950 . S
H909 C929 0.950 . S
H910 C931 0.950 . S
H911 C934 0.950 . S
H912 C935 0.950 . S
H913 C937 0.951 . S
H914 C938 0.949 . S
H915 C940 0.949 . S
H916 C941 0.950 . S
H917 C943 0.950 . S
H918 C944 0.950 . S
H919 C946 0.950 . S
H920 C949 0.950 . S
H921 C950 0.950 . S
H922 C952 0.951 . S
H923 C953 0.949 . S
C924 C925 1.376 . S
C924 C929 1.386 . S
C924 C930 1.483 . S
C925 H906 0.949 . S
C925 C924 1.376 . S
C925 C926 1.397 . S
C926 H907 0.950 . S
C926 C925 1.397 . S
C926 C927 1.391 . S
C927 C926 1.391 . S
C927 C928 1.405 . S
C928 H908 0.950 . S
C928 C927 1.405 . S
C928 C929 1.367 . S
C929 H909 0.950 . S
C929 C924 1.386 . S
C929 C928 1.367 . S
C930 C924 1.483 . S
C930 C931 1.382 . S
C930 C932 1.403 . S
C931 H910 0.950 . S
C931 C930 1.382 . S
C931 C947 1.411 . S
C932 C930 1.403 . S
C932 C933 1.489 . S
C932 C946 1.411 . S
C933 C932 1.489 . S
C933 C934 1.383 . S
C933 C938 1.382 . S
C934 H911 0.950 . S
C934 C933 1.383 . S
C934 C935 1.395 . S
C935 H912 0.950 . S
C935 C934 1.395 . S
C935 C936 1.288 . S
C936 C935 1.288 . S
C936 C937 1.392 . S
C937 H913 0.951 . S
C937 C936 1.392 . S
C937 C938 1.392 . S
C938 H914 0.949 . S
C938 C933 1.382 . S
C938 C937 1.392 . S
C939 C940 1.376 . S
C939 C944 1.386 . S
C939 C945 1.483 . S
C940 H915 0.949 . S
C940 C939 1.376 . S
C940 C941 1.397 . S
C941 H916 0.950 . S
C941 C940 1.397 . S
C941 C942 1.391 . S
C942 C941 1.391 . S
C942 C943 1.405 . S
C943 H917 0.950 . S
C943 C942 1.405 . S
C943 C944 1.367 . S
C944 H918 0.950 . S
C944 C939 1.386 . S
C944 C943 1.367 . S
C945 C939 1.483 . S
C945 C946 1.382 . S
C945 C947 1.403 . S
C946 H919 0.950 . S
C946 C932 1.411 . S
C946 C945 1.382 . S
C947 C931 1.411 . S
C947 C945 1.403 . S
C947 C948 1.489 . S
C948 C947 1.489 . S
C948 C949 1.383 . S
C948 C953 1.382 . S
C949 H920 0.950 . S
C949 C948 1.383 . S
C949 C950 1.395 . S
C950 H921 0.950 . S
C950 C949 1.395 . S
C950 C951 1.288 . S
C951 C950 1.288 . S
C951 C952 1.392 . S
C952 H922 0.951 . S
C952 C951 1.392 . S
C952 C953 1.392 . S
C953 H923 0.949 . S
C953 C948 1.382 . S
C953 C952 1.392 . S
H954 C973 0.949 . S
H955 C974 0.950 . S
H956 C976 0.950 . S
H957 C977 0.950 . S
H958 C979 0.950 . S
H959 C982 0.950 . S
H960 C983 0.950 . S
H961 C985 0.951 . S
H962 C986 0.949 . S
H963 C988 0.949 . S
H964 C989 0.950 . S
H965 C991 0.950 . S
H966 C992 0.950 . S
H967 C994 0.950 . S
H968 C997 0.950 . S
H969 C998 0.950 . S
H970 C1000 0.951 . S
H971 C1001 0.949 . S
C972 C973 1.376 . S
C972 C977 1.386 . S
C972 C978 1.483 . S
C973 H954 0.949 . S
C973 C972 1.376 . S
C973 C974 1.397 . S
C974 H955 0.950 . S
C974 C973 1.397 . S
C974 C975 1.391 . S
C975 C974 1.391 . S
C975 C976 1.405 . S
C976 H956 0.950 . S
C976 C975 1.405 . S
C976 C977 1.367 . S
C977 H957 0.950 . S
C977 C972 1.386 . S
C977 C976 1.367 . S
C978 C972 1.483 . S
C978 C979 1.382 . S
C978 C980 1.403 . S
C979 H958 0.950 . S
C979 C978 1.382 . S
C979 C995 1.411 . S
C980 C978 1.403 . S
C980 C981 1.489 . S
C980 C994 1.411 . S
C981 C980 1.489 . S
C981 C982 1.383 . S
C981 C986 1.382 . S
C982 H959 0.950 . S
C982 C981 1.383 . S
C982 C983 1.395 . S
C983 H960 0.950 . S
C983 C982 1.395 . S
C983 C984 1.288 . S
C984 C983 1.288 . S
C984 C985 1.392 . S
C985 H961 0.951 . S
C985 C984 1.392 . S
C985 C986 1.392 . S
C986 H962 0.949 . S
C986 C981 1.382 . S
C986 C985 1.392 . S
C987 C988 1.376 . S
C987 C992 1.386 . S
C987 C993 1.483 . S
C988 H963 0.949 . S
C988 C987 1.376 . S
C988 C989 1.397 . S
C989 H964 0.950 . S
C989 C988 1.397 . S
C989 C990 1.391 . S
C990 C989 1.391 . S
C990 C991 1.405 . S
C991 H965 0.950 . S
C991 C990 1.405 . S
C991 C992 1.367 . S
C992 H966 0.950 . S
C992 C987 1.386 . S
C992 C991 1.367 . S
C993 C987 1.483 . S
C993 C994 1.382 . S
C993 C995 1.403 . S
C994 H967 0.950 . S
C994 C980 1.411 . S
C994 C993 1.382 . S
C995 C979 1.411 . S
C995 C993 1.403 . S
C995 C996 1.489 . S
C996 C995 1.489 . S
C996 C997 1.383 . S
C996 C1001 1.382 . S
C997 H968 0.950 . S
C997 C996 1.383 . S
C997 C998 1.395 . S
C998 H969 0.950 . S
C998 C997 1.395 . S
C998 C999 1.288 . S
C999 C998 1.288 . S
C999 C1000 1.392 . S
C1000 H970 0.951 . S
C1000 C999 1.392 . S
C1000 C1001 1.392 . S
C1001 H971 0.949 . S
C1001 C996 1.382 . S
C1001 C1000 1.392 . S
H1002 C1021 0.949 . S
H1003 C1022 0.950 . S
H1004 C1024 0.950 . S
H1005 C1025 0.950 . S
H1006 C1027 0.950 . S
H1007 C1030 0.950 . S
H1008 C1031 0.950 . S
H1009 C1033 0.951 . S
H1010 C1034 0.949 . S
H1011 C1036 0.949 . S
H1012 C1037 0.950 . S
H1013 C1039 0.950 . S
H1014 C1040 0.950 . S
H1015 C1042 0.950 . S
H1016 C1045 0.950 . S
H1017 C1046 0.950 . S
H1018 C1048 0.951 . S
H1019 C1049 0.949 . S
C1020 C1021 1.376 . S
C1020 C1025 1.386 . S
C1020 C1026 1.483 . S
C1021 H1002 0.949 . S
C1021 C1020 1.376 . S
C1021 C1022 1.397 . S
C1022 H1003 0.950 . S
C1022 C1021 1.397 . S
C1022 C1023 1.391 . S
C1023 C1022 1.391 . S
C1023 C1024 1.405 . S
C1024 H1004 0.950 . S
C1024 C1023 1.405 . S
C1024 C1025 1.367 . S
C1025 H1005 0.950 . S
C1025 C1020 1.386 . S
C1025 C1024 1.367 . S
C1026 C1020 1.483 . S
C1026 C1027 1.382 . S
C1026 C1028 1.403 . S
C1027 H1006 0.950 . S
C1027 C1026 1.382 . S
C1027 C1043 1.411 . S
C1028 C1026 1.403 . S
C1028 C1029 1.489 . S
C1028 C1042 1.411 . S
C1029 C1028 1.489 . S
C1029 C1030 1.383 . S
C1029 C1034 1.382 . S
C1030 H1007 0.950 . S
C1030 C1029 1.383 . S
C1030 C1031 1.395 . S
C1031 H1008 0.950 . S
C1031 C1030 1.395 . S
C1031 C1032 1.288 . S
C1032 C1031 1.288 . S
C1032 C1033 1.392 . S
C1033 H1009 0.951 . S
C1033 C1032 1.392 . S
C1033 C1034 1.392 . S
C1034 H1010 0.949 . S
C1034 C1029 1.382 . S
C1034 C1033 1.392 . S
C1035 C1036 1.376 . S
C1035 C1040 1.386 . S
C1035 C1041 1.483 . S
C1036 H1011 0.949 . S
C1036 C1035 1.376 . S
C1036 C1037 1.397 . S
C1037 H1012 0.950 . S
C1037 C1036 1.397 . S
C1037 C1038 1.391 . S
C1038 C1037 1.391 . S
C1038 C1039 1.405 . S
C1039 H1013 0.950 . S
C1039 C1038 1.405 . S
C1039 C1040 1.367 . S
C1040 H1014 0.950 . S
C1040 C1035 1.386 . S
C1040 C1039 1.367 . S
C1041 C1035 1.483 . S
C1041 C1042 1.382 . S
C1041 C1043 1.403 . S
C1042 H1015 0.950 . S
C1042 C1028 1.411 . S
C1042 C1041 1.382 . S
C1043 C1027 1.411 . S
C1043 C1041 1.403 . S
C1043 C1044 1.489 . S
C1044 C1043 1.489 . S
C1044 C1045 1.383 . S
C1044 C1049 1.382 . S
C1045 H1016 0.950 . S
C1045 C1044 1.383 . S
C1045 C1046 1.395 . S
C1046 H1017 0.950 . S
C1046 C1045 1.395 . S
C1046 C1047 1.288 . S
C1047 C1046 1.288 . S
C1047 C1048 1.392 . S
C1048 H1018 0.951 . S
C1048 C1047 1.392 . S
C1048 C1049 1.392 . S
C1049 H1019 0.949 . S
C1049 C1044 1.382 . S
C1049 C1048 1.392 . S
H1050 C1069 0.949 . S
H1051 C1070 0.950 . S
H1052 C1072 0.950 . S
H1053 C1073 0.950 . S
H1054 C1075 0.950 . S
H1055 C1078 0.950 . S
H1056 C1079 0.950 . S
H1057 C1081 0.951 . S
H1058 C1082 0.949 . S
H1059 C1084 0.949 . S
H1060 C1085 0.950 . S
H1061 C1087 0.950 . S
H1062 C1088 0.950 . S
H1063 C1090 0.950 . S
H1064 C1093 0.950 . S
H1065 C1094 0.950 . S
H1066 C1096 0.951 . S
H1067 C1097 0.949 . S
C1068 C1069 1.376 . S
C1068 C1073 1.386 . S
C1068 C1074 1.483 . S
C1069 H1050 0.949 . S
C1069 C1068 1.376 . S
C1069 C1070 1.397 . S
C1070 H1051 0.950 . S
C1070 C1069 1.397 . S
C1070 C1071 1.391 . S
C1071 C1070 1.391 . S
C1071 C1072 1.405 . S
C1072 H1052 0.950 . S
C1072 C1071 1.405 . S
C1072 C1073 1.367 . S
C1073 H1053 0.950 . S
C1073 C1068 1.386 . S
C1073 C1072 1.367 . S
C1074 C1068 1.483 . S
C1074 C1075 1.382 . S
C1074 C1076 1.403 . S
C1075 H1054 0.950 . S
C1075 C1074 1.382 . S
C1075 C1091 1.411 . S
C1076 C1074 1.403 . S
C1076 C1077 1.489 . S
C1076 C1090 1.411 . S
C1077 C1076 1.489 . S
C1077 C1078 1.383 . S
C1077 C1082 1.382 . S
C1078 H1055 0.950 . S
C1078 C1077 1.383 . S
C1078 C1079 1.395 . S
C1079 H1056 0.950 . S
C1079 C1078 1.395 . S
C1079 C1080 1.288 . S
C1080 C1079 1.288 . S
C1080 C1081 1.392 . S
C1081 H1057 0.951 . S
C1081 C1080 1.392 . S
C1081 C1082 1.392 . S
C1082 H1058 0.949 . S
C1082 C1077 1.382 . S
C1082 C1081 1.392 . S
C1083 C1084 1.376 . S
C1083 C1088 1.386 . S
C1083 C1089 1.483 . S
C1084 H1059 0.949 . S
C1084 C1083 1.376 . S
C1084 C1085 1.397 . S
C1085 H1060 0.950 . S
C1085 C1084 1.397 . S
C1085 C1086 1.391 . S
C1086 C1085 1.391 . S
C1086 C1087 1.405 . S
C1087 H1061 0.950 . S
C1087 C1086 1.405 . S
C1087 C1088 1.367 . S
C1088 H1062 0.950 . S
C1088 C1083 1.386 . S
C1088 C1087 1.367 . S
C1089 C1083 1.483 . S
C1089 C1090 1.382 . S
C1089 C1091 1.403 . S
C1090 H1063 0.950 . S
C1090 C1076 1.411 . S
C1090 C1089 1.382 . S
C1091 C1075 1.411 . S
C1091 C1089 1.403 . S
C1091 C1092 1.489 . S
C1092 C1091 1.489 . S
C1092 C1093 1.383 . S
C1092 C1097 1.382 . S
C1093 H1064 0.950 . S
C1093 C1092 1.383 . S
C1093 C1094 1.395 . S
C1094 H1065 0.950 . S
C1094 C1093 1.395 . S
C1094 C1095 1.288 . S
C1095 C1094 1.288 . S
C1095 C1096 1.392 . S
C1096 H1066 0.951 . S
C1096 C1095 1.392 . S
C1096 C1097 1.392 . S
C1097 H1067 0.949 . S
C1097 C1092 1.382 . S
C1097 C1096 1.392 . S
C8 C711 1.525 . S
C18 C759 1.631 . S
C807 C31 1.461 . S
C34 C831 1.566 . S
C5 C903 1.472 . S
C21 C951 1.718 . S
C47 C879 1.578 . S
C927 C57 1.625 . S
C855 C70 1.470 . S
C73 C783 1.566 . S
C687 C44 1.493 . S
C60 C735 1.734 . S
C86 C999 1.840 . S
C96 C1047 1.796 . S
C1071 C109 1.854 . S
C112 C255 1.873 . S
C83 C327 1.899 . S
C99 C375 1.881 . S
C125 C303 1.769 . S
C135 C351 1.761 . S
C279 C148 1.748 . S
C1095 C151 1.860 . S
C975 C122 1.897 . S
C1023 C138 1.925 . S
C164 C423 1.756 . S
C174 C471 1.758 . S
C187 C495 1.811 . S
C190 C543 1.953 . S
C615 C161 1.943 . S
C663 C177 1.924 . S
C591 C203 1.862 . S
C639 C213 1.800 . S
C226 C567 1.786 . S
C519 C229 1.778 . S
C200 C399 1.859 . S
C447 C216 1.892 . S
C264 C0 1.780 . S
C23 C318 1.831 . S
C366 C36 1.925 . S
C414 C26 1.703 . S
C462 C10 1.913 . S
C504 C13 1.782 . S
C39 C510 1.733 . S
C62 C408 1.754 . S
C75 C456 1.857 . S
C65 C312 1.659 . S
C360 C49 1.892 . S
C52 C270 1.733 . S
C552 C78 1.741 . S
C101 C606 1.839 . S
C114 C654 1.832 . S
C702 C104 1.264 . S
C88 C750 1.723 . S
C91 C798 1.188 . S
C117 C792 1.260 . S
C140 C696 1.260 . S
C744 C153 1.653 . S
C143 C600 1.598 . S
C127 C648 1.812 . S
C558 C130 1.754 . S
C840 C156 1.231 . S
C179 C894 1.265 . S
C192 C942 1.710 . S
C990 C182 1.620 . S
C1038 C166 1.842 . S
C169 C1080 1.804 . S
C195 C1086 1.685 . S
C218 C984 1.786 . S
C1032 C231 1.755 . S
C888 C221 1.252 . S
C936 C205 1.690 . S
C208 C846 1.193 . S
