# Generated by pormake.
# Topology tsx, (6,3)-cn, num edge types: 1
# Building blocks:
#     Node 0, Type 0, BuildingBlock: MIDCAF_clean_sbu_0, # of connection points: 6
#     Node 1, Type 0, BuildingBlock: MIDCAF_clean_sbu_0, # of connection points: 6
#     Node 2, Type 1, BuildingBlock: ESEHIV_clean_linker_0, # of connection points: 3
#     Node 3, Type 1, BuildingBlock: ESEHIV_clean_linker_0, # of connection points: 3
#     Node 4, Type 1, BuildingBlock: ESEHIV_clean_linker_0, # of connection points: 3
#     Node 5, Type 1, BuildingBlock: ESEHIV_clean_linker_0, # of connection points: 3
#     Edge 6, Type (0, 1), BuildingBlock: XUDNAN_clean_linker_2, # of connection points: 2
#     Edge 7, Type (0, 1), BuildingBlock: XUDNAN_clean_linker_2, # of connection points: 2
#     Edge 8, Type (0, 1), BuildingBlock: XUDNAN_clean_linker_2, # of connection points: 2
#     Edge 9, Type (0, 1), BuildingBlock: XUDNAN_clean_linker_2, # of connection points: 2
#     Edge 10, Type (0, 1), BuildingBlock: XUDNAN_clean_linker_2, # of connection points: 2
#     Edge 11, Type (0, 1), BuildingBlock: XUDNAN_clean_linker_2, # of connection points: 2
#     Edge 12, Type (0, 1), BuildingBlock: XUDNAN_clean_linker_2, # of connection points: 2
#     Edge 13, Type (0, 1), BuildingBlock: XUDNAN_clean_linker_2, # of connection points: 2
#     Edge 14, Type (0, 1), BuildingBlock: XUDNAN_clean_linker_2, # of connection points: 2
#     Edge 15, Type (0, 1), BuildingBlock: XUDNAN_clean_linker_2, # of connection points: 2
#     Edge 16, Type (0, 1), BuildingBlock: XUDNAN_clean_linker_2, # of connection points: 2
#     Edge 17, Type (0, 1), BuildingBlock: XUDNAN_clean_linker_2, # of connection points: 2
# Relax obj value: 0.118
# Max RMSD: 0.182
# Mean RMSD: 0.113
data_MOF--net-tsx--node1-MIDCAF_clean_sbu_0--node2-ESEHIV_clean_linker_0--edge1-XUDNAN_clean_linker_2
_symmetry_space_group_name_H-M    P1
_symmetry_Int_Tables_number       1
_symmetry_cell_setting            triclinic
loop_
_symmetry_equiv_pos_as_xyz
'x, y, z'
_cell_length_a     18.189088
_cell_length_b     18.90021
_cell_length_c     36.048348
_cell_angle_alpha  90.407474
_cell_angle_beta   93.828505
_cell_angle_gamma 90.330258
loop_
_atom_site_label
_atom_site_type_symbol
_atom_site_fract_x
_atom_site_fract_y
_atom_site_fract_z
_atom_type_partial_charge
Zn0 Zn 0.87769 0.97934 0.97537 0.0
Zn1 Zn 0.19905 0.01221 0.04224 0.0
Zn2 Zn 1.0017 0.98981 0.00762 0.0
C3 C 0.10251 0.12343 0.02046 0.0
C4 C 0.14979 0.9563 0.97453 0.0
O5 O 0.93823 0.91546 0.04191 0.0
O6 O 0.84576 0.8928 0.0005 0.0
C7 C 0.89361 0.11838 0.00306 0.0
O8 O 0.03773 0.09939 0.02568 0.0
O9 O 0.14491 0.08204 0.00433 0.0
O10 O 0.16495 0.01705 0.98782 0.0
O11 O 0.08229 0.93627 0.97382 0.0
O12 O 0.84396 0.07397 0.99281 0.0
O13 O 0.96094 0.09849 0.00751 0.0
O14 O 0.0153 0.95112 0.95034 0.0
O15 O 0.90542 0.96956 0.92313 0.0
C16 C 0.97207 0.95297 0.92071 0.0
O17 O 0.01359 0.93703 0.06049 0.0
O18 O 0.1311 0.96327 0.07873 0.0
C19 C 0.87978 0.87964 0.03128 0.0
C20 C 0.06841 0.93709 0.08518 0.0
Zn21 Zn 0.68411 0.54508 0.56221 0.0
Zn22 Zn 0.4475 0.55496 0.46592 0.0
Zn23 Zn 0.55889 0.54686 0.51549 0.0
C24 C 0.5476 0.46675 0.43571 0.0
C25 C 0.48877 0.69209 0.47765 0.0
O26 O 0.52467 0.50665 0.56876 0.0
O27 O 0.62806 0.51359 0.60498 0.0
C28 C 0.7054 0.44846 0.50517 0.0
O29 O 0.58409 0.4828 0.46648 0.0
O30 O 0.48326 0.48961 0.4287 0.0
O31 O 0.44704 0.65685 0.45501 0.0
O32 O 0.53274 0.66 0.50149 0.0
O33 O 0.73873 0.47296 0.53438 0.0
O34 O 0.64094 0.47182 0.49428 0.0
O35 O 0.6026 0.65515 0.52042 0.0
O36 O 0.70604 0.64762 0.55634 0.0
C37 C 0.66059 0.68385 0.53657 0.0
O38 O 0.46342 0.50399 0.54277 0.0
O39 O 0.37325 0.52037 0.49943 0.0
C40 C 0.56015 0.49899 0.60054 0.0
C41 C 0.39482 0.49976 0.53156 0.0
H42 H 0.9524 0.0627 0.34957 0.0
H43 H 0.15499 0.94932 0.36269 0.0
H44 H 0.0884 0.0833 0.45163 0.0
C45 C 1.00114 0.04829 0.36672 0.0
C46 C 0.01259 0.07648 0.40293 0.0
C47 C 0.0532 0.00376 0.35187 0.0
C48 C 0.11711 0.98681 0.37371 0.0
C49 C 0.13178 0.01609 0.40951 0.0
C50 C 0.07869 0.06092 0.424 0.0
H51 H 0.95898 0.97466 0.64397 0.0
H52 H 0.12333 0.1332 0.67276 0.0
H53 H 0.99373 0.14445 0.56841 0.0
C54 C 0.98801 0.02265 0.63719 0.0
C55 C 0.96858 0.0572 0.60367 0.0
C56 C 0.04249 0.05009 0.66267 0.0
C57 C 0.0822 0.11033 0.65299 0.0
C58 C 0.06536 0.14434 0.61892 0.0
C59 C 0.0082 0.1176 0.59433 0.0
H60 H 0.43116 0.5804 0.86215 0.0
H61 H 0.61291 0.43527 0.87165 0.0
H62 H 0.56247 0.56257 0.96558 0.0
C63 C 0.47593 0.55592 0.87866 0.0
C64 C 0.49163 0.57799 0.91567 0.0
C65 C 0.51907 0.50427 0.86238 0.0
C66 C 0.57809 0.47422 0.88387 0.0
C67 C 0.59355 0.49514 0.92101 0.0
C68 C 0.5501 0.54654 0.93688 0.0
H69 H 0.54455 0.30155 0.16654 0.0
H70 H 0.64687 0.50329 0.18604 0.0
H71 H 0.54433 0.45261 0.07811 0.0
C72 C 0.55855 0.35293 0.15663 0.0
C73 C 0.53556 0.37154 0.11991 0.0
C74 C 0.59466 0.40046 0.1818 0.0
C75 C 0.61765 0.46553 0.1678 0.0
C76 C 0.60257 0.48363 0.13015 0.0
C77 C 0.55963 0.43718 0.10644 0.0
H78 H 0.14904 0.26138 0.01071 0.0
H79 H 0.14813 0.09194 0.09093 0.0
H80 H 0.26917 0.13172 0.11806 0.0
H81 H 0.3277 0.2786 0.99586 0.0
H82 H 0.33979 0.37316 -0.00035 0.0
H83 H 0.25018 0.33635 0.98651 0.0
H84 H 0.19318 0.40071 0.04118 0.0
H85 H 0.28177 0.4408 0.05334 0.0
H86 H 0.23527 0.39166 0.0876 0.0
H87 H 0.40516 0.16114 0.11569 0.0
H88 H 0.52241 0.22548 0.12228 0.0
H89 H 0.41979 0.40707 0.0671 0.0
C90 C 0.1719 0.23562 0.03558 0.0
C91 C 0.14071 0.17156 0.04787 0.0
C92 C 0.17217 0.13951 0.08042 0.0
C93 C 0.24136 0.16126 0.09572 0.0
C94 C 0.27458 0.21961 0.08033 0.0
C95 C 0.2381 0.26088 0.05373 0.0
C96 C 0.28461 0.32585 0.04566 0.0
C97 C 0.30152 0.3286 0.00446 0.0
C98 C 0.24645 0.3938 0.05767 0.0
C99 C 0.35425 0.31159 0.07032 0.0
C100 C 0.34797 0.24759 0.08803 0.0
C101 C 0.40874 0.21462 0.10539 0.0
C102 C 0.47519 0.2521 0.10907 0.0
C103 C 0.47863 0.32486 0.09944 0.0
C104 C 0.41858 0.35325 0.07707 0.0
H105 H 0.14118 0.82277 0.94275 0.0
H106 H 0.29522 0.97652 0.99431 0.0
H107 H 0.39693 0.89347 0.98804 0.0
H108 H 0.228 0.66581 0.98256 0.0
H109 H 0.21247 0.61334 0.94079 0.0
H110 H 0.14987 0.68355 0.95061 0.0
H111 H 0.17078 0.74048 0.88692 0.0
H112 H 0.23304 0.67021 0.87682 0.0
H113 H 0.26329 0.76106 0.87524 0.0
H114 H 0.48229 0.79562 0.97666 0.0
H115 H 0.5486 0.69098 0.9555 0.0
H116 H 0.34188 0.60031 0.90966 0.0
C117 C 0.19628 0.83864 0.95284 0.0
C118 C 0.21003 0.90586 0.96931 0.0
C119 C 0.28308 0.92522 0.98171 0.0
C120 C 0.34139 0.87833 0.97843 0.0
C121 C 0.32609 0.81243 0.96235 0.0
C122 C 0.25567 0.79264 0.94935 0.0
C123 C 0.25552 0.71972 0.93157 0.0
C124 C 0.20868 0.66752 0.95265 0.0
C125 C 0.22911 0.72309 0.89018 0.0
C126 C 0.3368 0.70209 0.9366 0.0
C127 C 0.37621 0.7561 0.95481 0.0
C128 C 0.45216 0.75273 0.96245 0.0
C129 C 0.48924 0.6929 0.95057 0.0
C130 C 0.45037 0.63751 0.93107 0.0
C131 C 0.37301 0.64204 0.92438 0.0
H132 H 0.85744 0.73943 0.01566 0.0
H133 H 0.81586 0.90298 0.09622 0.0
H134 H 0.73618 0.82024 0.12843 0.0
H135 H 0.67457 0.66945 0.00835 0.0
H136 H 0.7009 0.57823 0.00374 0.0
H137 H 0.75957 0.64745 0.98807 0.0
H138 H 0.86941 0.60096 0.03018 0.0
H139 H 0.81155 0.53028 0.04492 0.0
H140 H 0.85849 0.58785 0.07901 0.0
H141 H 0.65542 0.72313 0.14944 0.0
H142 H 0.58954 0.61291 0.16292 0.0
H143 H 0.68174 0.51001 0.06873 0.0
C144 C 0.83344 0.75675 0.04085 0.0
C145 C 0.8459 0.82641 0.05476 0.0
C146 C 0.81039 0.84873 0.08647 0.0
C147 C 0.76398 0.80245 0.10448 0.0
C148 C 0.75235 0.73438 0.08991 0.0
C149 C 0.78657 0.71114 0.05904 0.0
C150 C 0.76305 0.63573 0.04864 0.0
C151 C 0.72211 0.63261 0.0099 0.0
C152 C 0.82959 0.58575 0.05085 0.0
C153 C 0.71106 0.61998 0.07885 0.0
C154 C 0.70505 0.67813 0.10195 0.0
C155 C 0.66024 0.67711 0.13175 0.0
C156 C 0.6229 0.61426 0.13913 0.0
C157 C 0.63092 0.55267 0.1171 0.0
C158 C 0.67409 0.55632 0.0859 0.0
H159 H 0.76413 0.17014 0.02407 0.0
H160 H 0.97427 0.2345 0.98515 0.0
H161 H 0.92439 0.3537 0.97167 0.0
H162 H 0.65801 0.23746 0.95821 0.0
H163 H 0.58398 0.26884 0.98473 0.0
H164 H 0.64089 0.19789 0.00224 0.0
H165 H 0.67389 0.26829 0.06318 0.0
H166 H 0.61523 0.33893 0.04587 0.0
H167 H 0.71 0.35709 0.06081 0.0
H168 H 0.84304 0.44979 0.94591 0.0
H169 H 0.74027 0.51854 0.91575 0.0
H170 H 0.58386 0.39538 0.97392 0.0
C171 C 0.80056 0.21058 0.01442 0.0
C172 C 0.87285 0.19354 0.00563 0.0
C173 C 0.91899 0.24693 0.99249 0.0
C174 C 0.89098 0.31475 0.98474 0.0
C175 C 0.81761 0.32861 0.9914 0.0
C176 C 0.77363 0.27855 0.00713 0.0
C177 C 0.69421 0.30256 0.00684 0.0
C178 C 0.64128 0.2485 0.98678 0.0
C179 C 0.67211 0.31762 0.04655 0.0
C180 C 0.69881 0.37039 0.98513 0.0
C181 C 0.77072 0.38568 0.97731 0.0
C182 C 0.78705 0.43989 0.95301 0.0
C183 C 0.72857 0.4783 0.93582 0.0
C184 C 0.65502 0.46235 0.94317 0.0
C185 C 0.64014 0.40933 0.96884 0.0
H186 H 0.65269 0.78751 0.58758 0.0
H187 H 0.71222 0.745 0.47562 0.0
H188 H 0.77697 0.86049 0.47469 0.0
H189 H 0.64255 0.99377 0.57754 0.0
H190 H 0.68015 0.00348 0.62486 0.0
H191 H 0.61956 0.93017 0.61201 0.0
H192 H 0.71895 0.84325 0.63863 0.0
H193 H 0.77985 0.91553 0.65103 0.0
H194 H 0.80969 0.84575 0.62129 0.0
H195 H 0.86466 0.95888 0.49318 0.0
H196 H 0.95942 0.03219 0.52807 0.0
H197 H 0.83579 0.01761 0.62634 0.0
C198 C 0.67577 0.80489 0.56223 0.0
C199 C 0.67694 0.75893 0.53149 0.0
C200 C 0.70972 0.7809 0.49906 0.0
C201 C 0.74654 0.84631 0.49837 0.0
C202 C 0.74837 0.88934 0.53007 0.0
C203 C 0.71179 0.8703 0.56108 0.0
C204 C 0.73116 0.9195 0.59355 0.0
C205 C 0.66438 0.96441 0.6025 0.0
C206 C 0.76177 0.87854 0.62809 0.0
C207 C 0.78987 0.96444 0.57732 0.0
C208 C 0.79794 0.94786 0.54037 0.0
C209 C 0.85715 0.97417 0.52167 0.0
C210 C 0.91083 0.01577 0.54164 0.0
C211 C 0.90489 0.02988 0.57989 0.0
C212 C 0.84147 0.00737 0.59707 0.0
H213 H 0.85233 0.41896 0.50159 0.0
H214 H 0.63384 0.34028 0.46711 0.0
H215 H 0.6886 0.23653 0.43773 0.0
H216 H 0.94333 0.36158 0.42052 0.0
H217 H 0.02706 0.33694 0.44671 0.0
H218 H 0.9704 0.4063 0.46367 0.0
H219 H 0.9628 0.33939 0.52583 0.0
H220 H 0.01896 0.26954 0.50893 0.0
H221 H 0.92975 0.24927 0.5252 0.0
H222 H 0.76678 0.13876 0.41484 0.0
H223 H 0.86297 0.05782 0.39541 0.0
H224 H 0.0318 0.19959 0.44456 0.0
C225 C 0.81611 0.38021 0.48749 0.0
C226 C 0.73873 0.38885 0.4855 0.0
C227 C 0.69318 0.33642 0.46743 0.0
C228 C 0.72383 0.27666 0.45127 0.0
C229 C 0.80024 0.26962 0.45384 0.0
C230 C 0.84588 0.32006 0.47133 0.0
C231 C 0.92624 0.2994 0.47039 0.0
C232 C 0.96928 0.35432 0.44904 0.0
C233 C 0.96149 0.28877 0.50993 0.0
C234 C 0.91866 0.22972 0.44937 0.0
C235 C 0.84544 0.21328 0.44045 0.0
C236 C 0.82432 0.15143 0.42134 0.0
C237 C 0.87948 0.10594 0.41028 0.0
C238 C 0.95517 0.12262 0.41796 0.0
C239 C 0.97464 0.18497 0.43836 0.0
H240 H 0.41114 0.38228 0.57537 0.0
H241 H 0.25385 0.54109 0.53641 0.0
H242 H 0.15331 0.47244 0.56166 0.0
H243 H 0.30486 0.24044 0.54848 0.0
H244 H 0.33027 0.18378 0.58719 0.0
H245 H 0.39289 0.25163 0.57401 0.0
H246 H 0.39833 0.30343 0.64039 0.0
H247 H 0.3353 0.23644 0.65446 0.0
H248 H 0.31459 0.32872 0.66091 0.0
H249 H 0.0683 0.37904 0.58011 0.0
H250 H 1.00392 0.26891 0.59574 0.0
H251 H 0.21437 0.1683 0.62241 0.0
C252 C 0.35602 0.40392 0.57381 0.0
C253 C 0.34002 0.46721 0.55446 0.0
C254 C 0.26697 0.49289 0.55148 0.0
C255 C 0.20959 0.45433 0.56574 0.0
C256 C 0.22623 0.39021 0.58295 0.0
C257 C 0.29772 0.36544 0.5876 0.0
C258 C 0.29907 0.29109 0.60318 0.0
C259 C 0.33381 0.23869 0.57662 0.0
C260 C 0.33916 0.2899 0.64207 0.0
C261 C 0.21724 0.27717 0.60504 0.0
C262 C 0.17636 0.33538 0.59359 0.0
C263 C 0.09962 0.33356 0.5899 0.0
C264 C 0.06357 0.27067 0.59839 0.0
C265 C 0.10429 0.21048 0.61027 0.0
C266 C 0.18205 0.21408 0.61393 0.0
H267 H 0.48299 0.78897 0.42257 0.0
H268 H 0.45095 0.76163 0.5393 0.0
H269 H 0.37097 0.86676 0.53829 0.0
H270 H 0.46462 0.99801 0.42454 0.0
H271 H 0.41979 0.99411 0.37843 0.0
H272 H 0.49255 0.93295 0.39157 0.0
H273 H 0.405 0.82894 0.37201 0.0
H274 H 0.33153 0.88884 0.35993 0.0
H275 H 0.31851 0.82018 0.39337 0.0
H276 H 0.26287 0.94265 0.51881 0.0
H277 H 0.1544 0.99594 0.4855 0.0
H278 H 0.26735 0.98937 0.38321 0.0
C279 C 0.46333 0.80849 0.44841 0.0
C280 C 0.47353 0.76816 0.48105 0.0
C281 C 0.44507 0.79299 0.51424 0.0
C282 C 0.39902 0.85243 0.5138 0.0
C283 C 0.38459 0.88786 0.48026 0.0
C284 C 0.41887 0.8688 0.44851 0.0
C285 C 0.38736 0.90914 0.41499 0.0
C286 C 0.44448 0.9617 0.4016 0.0
C287 C 0.35891 0.85874 0.38328 0.0
C288 C 0.32482 0.94763 0.4319 0.0
C289 C 0.32451 0.93574 0.46967 0.0
C290 C 0.26437 0.9551 0.48961 0.0
C291 C 0.20267 0.98555 0.47037 0.0
C292 C 0.20147 0.99672 0.43148 0.0
C293 C 0.26541 0.98079 0.41277 0.0
H294 H 0.16742 0.95103 0.1454 0.0
H295 H 0.94277 0.88692 0.11464 0.0
H296 H 0.91592 0.88539 0.18088 0.0
H297 H 0.18922 0.85258 0.23512 0.0
H298 H 0.24294 0.92378 0.25689 0.0
H299 H 0.24679 0.90666 0.2078 0.0
H300 H 0.21045 0.03674 0.19413 0.0
H301 H 0.20531 0.05406 0.24296 0.0
H302 H 0.12671 0.07102 0.21121 0.0
H303 H 0.90972 0.90998 0.24998 0.0
H304 H 0.92682 0.94951 0.31567 0.0
H305 H 0.15568 0.99919 0.2999 0.0
C306 C 0.11309 0.93422 0.15242 0.0
C307 C 0.05661 0.9192 0.12448 0.0
C308 C 0.98641 0.89864 0.13533 0.0
C309 C 0.97092 0.89768 0.173 0.0
C310 C 0.02682 0.91673 0.19962 0.0
C311 C 0.09693 0.93344 0.18976 0.0
C312 C 0.14563 0.95851 0.223 0.0
C313 C 0.20995 0.90731 0.23118 0.0
C314 C 0.17361 0.03457 0.21748 0.0
C315 C 0.0914 0.95553 0.25295 0.0
C316 C 0.02329 0.93074 0.23912 0.0
C317 C 0.96321 0.92821 0.26122 0.0
C318 C 0.97322 0.95135 0.29838 0.0
C319 C 0.04273 0.97685 0.31299 0.0
C320 C 0.10236 0.97842 0.28984 0.0
H321 H 0.89149 0.94261 0.85446 0.0
H322 H 0.11696 0.9474 0.90184 0.0
H323 H 0.16165 0.95707 0.83927 0.0
H324 H 0.92943 0.84785 0.76549 0.0
H325 H 0.86215 0.90069 0.73947 0.0
H326 H 0.84921 0.87912 0.78725 0.0
H327 H 0.83757 0.01264 0.80268 0.0
H328 H 0.85118 0.0346 0.75525 0.0
H329 H 0.91086 0.07242 0.79222 0.0
H330 H 0.18031 0.98783 0.77223 0.0
H331 H 0.17049 0.02911 0.70697 0.0
H332 H 0.9327 0.00671 0.70509 0.0
C333 C 0.95041 0.94342 0.85173 0.0
C334 C 1.00056 0.94411 0.88336 0.0
C335 C 0.07717 0.94605 0.87836 0.0
C336 C 0.10323 0.9517 0.84271 0.0
C337 C 0.05197 0.95446 0.81228 0.0
C338 C 0.97711 0.94917 0.81645 0.0
C339 C 0.93283 0.96079 0.78007 0.0
C340 C 0.89095 0.89307 0.76732 0.0
C341 C 0.88007 0.02386 0.78274 0.0
C342 C 0.9942 0.97701 0.75517 0.0
C343 C 0.0627 0.97206 0.7739 0.0
C344 C 0.12702 0.9904 0.75707 0.0
C345 C 0.12092 0.0144 0.72016 0.0
C346 C 0.05095 0.02022 0.70071 0.0
C347 C 0.98723 1.00071 0.71864 0.0
H348 H 0.50087 0.58872 0.64805 0.0
H349 H 0.54411 0.36732 0.62881 0.0
H350 H 0.51685 0.34056 0.69368 0.0
H351 H 0.59379 0.60067 0.72993 0.0
H352 H 0.53421 0.66104 0.75239 0.0
H353 H 0.53542 0.66027 0.70266 0.0
H354 H 0.39464 0.63718 0.69609 0.0
H355 H 0.39248 0.63927 0.74604 0.0
H356 H 0.35616 0.56363 0.71998 0.0
H357 H 0.51154 0.34266 0.76305 0.0
H358 H 0.52262 0.37206 0.83014 0.0
H359 H 0.48718 0.59347 0.80412 0.0
C360 C 0.50024 0.53418 0.65708 0.0
C361 C 0.52209 0.47958 0.63355 0.0
C362 C 0.52514 0.40922 0.6464 0.0
C363 C 0.51004 0.39378 0.68319 0.0
C364 C 0.49204 0.44947 0.7065 0.0
C365 C 0.48589 0.51825 0.69373 0.0
C366 C 0.47687 0.57 0.72534 0.0
C367 C 0.53877 0.62623 0.7277 0.0
C368 C 0.40048 0.60455 0.72164 0.0
C369 C 0.48338 0.52037 0.7581 0.0
C370 C 0.49051 0.4509 0.74671 0.0
C371 C 0.50429 0.39666 0.77223 0.0
C372 C 0.5113 0.41395 0.81026 0.0
C373 C 0.50529 0.48502 0.82243 0.0
C374 C 0.49005 0.53843 0.79584 0.0
H375 H 0.65981 0.5019 0.39322 0.0
H376 H 0.49968 0.33848 0.41242 0.0
H377 H 0.52025 0.28459 0.35176 0.0
H378 H 0.60317 0.5388 0.30977 0.0
H379 H 0.68862 0.5525 0.28816 0.0
H380 H 0.68573 0.56344 0.33749 0.0
H381 H 0.789 0.47127 0.34926 0.0
H382 H 0.79423 0.46128 0.29969 0.0
H383 H 0.77959 0.38484 0.32797 0.0
H384 H 0.51841 0.27927 0.28573 0.0
H385 H 0.51145 0.30505 0.22065 0.0
H386 H 0.68811 0.46115 0.23916 0.0
C387 C 0.6332 0.4521 0.38538 0.0
C388 C 0.57939 0.42305 0.40733 0.0
C389 C 0.54208 0.3602 0.396 0.0
C390 C 0.55354 0.32938 0.36161 0.0
C391 C 0.60257 0.36221 0.339 0.0
C392 C 0.64385 0.42095 0.3507 0.0
C393 C 0.68273 0.4526 0.31857 0.0
C394 C 0.66385 0.53145 0.31321 0.0
C395 C 0.76636 0.44183 0.3242 0.0
C396 C 0.64998 0.40758 0.28648 0.0
C397 C 0.60517 0.35511 0.29923 0.0
C398 C 0.55719 0.31662 0.27528 0.0
C399 C 0.55458 0.33167 0.23746 0.0
C400 C 0.60217 0.38309 0.22274 0.0
C401 C 0.65149 0.42055 0.2482 0.0
loop_
_geom_bond_atom_site_label_1
_geom_bond_atom_site_label_2
_geom_bond_distance
_geom_bond_site_symmetry_2
_ccdc_geom_bond_type
Zn0 O6 1.920 1_545 S
Zn0 O12 1.898 . S
Zn0 O15 1.905 1_545 S
Zn1 O9 1.905 . S
Zn1 O10 1.898 1_545 S
Zn1 O18 1.920 1_545 S
Zn2 O5 2.080 1_445 S
Zn2 O8 2.114 . S
Zn2 O11 2.120 1_545 S
Zn2 O13 2.120 1_455 S
Zn2 O14 2.114 1_554 S
Zn2 O17 2.080 . S
C3 O8 1.166 . S
C3 O9 1.182 . S
C4 O10 1.167 . S
C4 O11 1.299 . S
O5 Zn2 2.080 1_665 S
O5 C19 1.305 . S
O6 Zn0 1.920 1_565 S
O6 C19 1.234 1_556 S
C7 O12 1.167 . S
C7 O13 1.299 1_556 S
O8 Zn2 2.114 . S
O8 C3 1.166 . S
O9 Zn1 1.905 . S
O9 C3 1.182 . S
O10 Zn1 1.898 1_565 S
O10 C4 1.167 . S
O11 Zn2 2.120 1_565 S
O11 C4 1.299 . S
O12 Zn0 1.898 . S
O12 C7 1.167 . S
O13 Zn2 2.120 1_655 S
O13 C7 1.299 1_554 S
O14 Zn2 2.114 1_556 S
O14 C16 1.166 1_445 S
O15 Zn0 1.905 1_565 S
O15 C16 1.182 . S
C16 O14 1.166 1_665 S
C16 O15 1.182 . S
O17 Zn2 2.080 . S
O17 C20 1.305 1_545 S
O18 Zn1 1.920 1_565 S
O18 C20 1.234 . S
C19 O5 1.305 . S
C19 O6 1.234 1_554 S
C20 O17 1.305 1_565 S
C20 O18 1.234 . S
Zn21 O27 1.920 . S
Zn21 O33 1.898 . S
Zn21 O36 1.905 . S
Zn22 O30 1.905 . S
Zn22 O31 1.898 . S
Zn22 O39 1.920 . S
Zn23 O26 2.080 . S
Zn23 O29 2.114 . S
Zn23 O32 2.120 . S
Zn23 O34 2.120 . S
Zn23 O35 2.114 . S
Zn23 O38 2.080 . S
C24 O29 1.166 . S
C24 O30 1.182 . S
C25 O31 1.167 . S
C25 O32 1.299 . S
O26 Zn23 2.080 . S
O26 C40 1.305 . S
O27 Zn21 1.920 . S
O27 C40 1.234 . S
C28 O33 1.167 . S
C28 O34 1.299 . S
O29 Zn23 2.114 . S
O29 C24 1.166 . S
O30 Zn22 1.905 . S
O30 C24 1.182 . S
O31 Zn22 1.898 . S
O31 C25 1.167 . S
O32 Zn23 2.120 . S
O32 C25 1.299 . S
O33 Zn21 1.898 . S
O33 C28 1.167 . S
O34 Zn23 2.120 . S
O34 C28 1.299 . S
O35 Zn23 2.114 . S
O35 C37 1.166 . S
O36 Zn21 1.905 . S
O36 C37 1.182 . S
C37 O35 1.166 . S
C37 O36 1.182 . S
O38 Zn23 2.080 . S
O38 C41 1.305 . S
O39 Zn22 1.920 . S
O39 C41 1.234 . S
C40 O26 1.305 . S
C40 O27 1.234 . S
C41 O38 1.305 . S
C41 O39 1.234 . S
H42 C45 0.931 1_655 S
H43 C48 0.928 . S
H44 C50 0.930 . S
C45 H42 0.931 1_455 S
C45 C46 1.413 . S
C45 C47 1.360 . S
C46 C45 1.413 . S
C46 C50 1.429 . S
C47 C45 1.360 . S
C47 C48 1.372 1_545 S
C48 H43 0.928 . S
C48 C47 1.372 1_565 S
C48 C49 1.404 . S
C49 C48 1.404 . S
C49 C50 1.391 1_565 S
C50 H44 0.930 . S
C50 C46 1.429 . S
C50 C49 1.391 1_545 S
H51 C54 0.931 . S
H52 C57 0.928 . S
H53 C59 0.930 . S
C54 H51 0.931 . S
C54 C55 1.413 . S
C54 C56 1.360 1_665 S
C55 C54 1.413 . S
C55 C59 1.429 1_665 S
C56 C54 1.360 1_445 S
C56 C57 1.372 . S
C57 H52 0.928 . S
C57 C56 1.372 . S
C57 C58 1.404 . S
C58 C57 1.404 . S
C58 C59 1.391 . S
C59 H53 0.930 . S
C59 C55 1.429 1_445 S
C59 C58 1.391 . S
H60 C63 0.931 . S
H61 C66 0.928 . S
H62 C68 0.930 . S
C63 H60 0.931 . S
C63 C64 1.413 . S
C63 C65 1.360 . S
C64 C63 1.413 . S
C64 C68 1.429 . S
C65 C63 1.360 . S
C65 C66 1.372 . S
C66 H61 0.928 . S
C66 C65 1.372 . S
C66 C67 1.404 . S
C67 C66 1.404 . S
C67 C68 1.391 . S
C68 H62 0.930 . S
C68 C64 1.429 . S
C68 C67 1.391 . S
H69 C72 0.931 . S
H70 C75 0.928 . S
H71 C77 0.930 . S
C72 H69 0.931 . S
C72 C73 1.413 . S
C72 C74 1.360 . S
C73 C72 1.413 . S
C73 C77 1.429 . S
C74 C72 1.360 . S
C74 C75 1.372 . S
C75 H70 0.928 . S
C75 C74 1.372 . S
C75 C76 1.404 . S
C76 C75 1.404 . S
C76 C77 1.391 . S
C77 H71 0.930 . S
C77 C73 1.429 . S
C77 C76 1.391 . S
H78 C90 0.930 1_556 S
H79 C92 0.930 . S
H80 C93 0.930 . S
H81 C97 0.959 . S
H82 C97 0.959 . S
H83 C97 0.961 . S
H84 C98 0.960 . S
H85 C98 0.961 . S
H86 C98 0.959 . S
H87 C101 0.929 . S
H88 C102 0.931 . S
H89 C104 0.930 . S
C90 H78 0.930 1_554 S
C90 C91 1.399 . S
C90 C95 1.399 . S
C91 C90 1.399 . S
C91 C92 1.376 . S
C92 H79 0.930 . S
C92 C91 1.376 . S
C92 C93 1.388 . S
C93 H80 0.930 . S
C93 C92 1.388 . S
C93 C94 1.390 . S
C94 C93 1.390 . S
C94 C95 1.394 . S
C94 C100 1.465 . S
C95 C90 1.399 . S
C95 C94 1.394 . S
C95 C96 1.516 . S
C96 C95 1.516 . S
C96 C97 1.502 1_554 S
C96 C98 1.561 . S
C96 C99 1.526 . S
C97 H81 0.959 . S
C97 H82 0.959 . S
C97 H83 0.961 . S
C97 C96 1.502 1_556 S
C98 H84 0.960 . S
C98 H85 0.961 . S
C98 H86 0.959 . S
C98 C96 1.561 . S
C99 C96 1.526 . S
C99 C100 1.396 . S
C99 C104 1.390 . S
C100 C94 1.465 . S
C100 C99 1.396 . S
C100 C101 1.399 . S
C101 H87 0.929 . S
C101 C100 1.399 . S
C101 C102 1.385 . S
C102 H88 0.931 . S
C102 C101 1.385 . S
C102 C103 1.389 . S
C103 C102 1.389 . S
C103 C104 1.387 . S
C104 H89 0.930 . S
C104 C99 1.390 . S
C104 C103 1.387 . S
H105 C117 0.930 . S
H106 C119 0.930 . S
H107 C120 0.930 . S
H108 C124 0.959 . S
H109 C124 0.959 . S
H110 C124 0.961 . S
H111 C125 0.960 . S
H112 C125 0.961 . S
H113 C125 0.959 . S
H114 C128 0.929 1_554 S
H115 C129 0.931 . S
H116 C131 0.930 . S
C117 H105 0.930 . S
C117 C118 1.399 . S
C117 C122 1.399 . S
C118 C117 1.399 . S
C118 C119 1.376 1_556 S
C119 H106 0.930 . S
C119 C118 1.376 1_554 S
C119 C120 1.388 . S
C120 H107 0.930 . S
C120 C119 1.388 . S
C120 C121 1.390 1_554 S
C121 C120 1.390 1_556 S
C121 C122 1.394 . S
C121 C127 1.465 . S
C122 C117 1.399 . S
C122 C121 1.394 . S
C122 C123 1.516 . S
C123 C122 1.516 . S
C123 C124 1.502 . S
C123 C125 1.561 . S
C123 C126 1.526 . S
C124 H108 0.959 . S
C124 H109 0.959 . S
C124 H110 0.961 . S
C124 C123 1.502 . S
C125 H111 0.960 . S
C125 H112 0.961 . S
C125 H113 0.959 . S
C125 C123 1.561 . S
C126 C123 1.526 . S
C126 C127 1.396 . S
C126 C131 1.390 . S
C127 C121 1.465 . S
C127 C126 1.396 . S
C127 C128 1.399 . S
C128 H114 0.929 1_556 S
C128 C127 1.399 . S
C128 C129 1.385 . S
C129 H115 0.931 . S
C129 C128 1.385 . S
C129 C130 1.389 . S
C130 C129 1.389 . S
C130 C131 1.387 . S
C131 H116 0.930 . S
C131 C126 1.390 . S
C131 C130 1.387 . S
H132 C144 0.930 . S
H133 C146 0.930 . S
H134 C147 0.930 . S
H135 C151 0.959 1_556 S
H136 C151 0.959 . S
H137 C151 0.961 1_556 S
H138 C152 0.960 . S
H139 C152 0.961 . S
H140 C152 0.959 . S
H141 C155 0.929 . S
H142 C156 0.931 . S
H143 C158 0.930 . S
C144 H132 0.930 . S
C144 C145 1.399 . S
C144 C149 1.399 . S
C145 C144 1.399 . S
C145 C146 1.376 . S
C146 H133 0.930 . S
C146 C145 1.376 . S
C146 C147 1.388 . S
C147 H134 0.930 . S
C147 C146 1.388 . S
C147 C148 1.390 . S
C148 C147 1.390 . S
C148 C149 1.394 . S
C148 C154 1.465 . S
C149 C144 1.399 . S
C149 C148 1.394 . S
C149 C150 1.516 . S
C150 C149 1.516 . S
C150 C151 1.502 . S
C150 C152 1.561 . S
C150 C153 1.526 . S
C151 H135 0.959 1_554 S
C151 H136 0.959 . S
C151 H137 0.961 1_554 S
C151 C150 1.502 . S
C152 H138 0.960 . S
C152 H139 0.961 . S
C152 H140 0.959 . S
C152 C150 1.561 . S
C153 C150 1.526 . S
C153 C154 1.396 . S
C153 C158 1.390 . S
C154 C148 1.465 . S
C154 C153 1.396 . S
C154 C155 1.399 . S
C155 H141 0.929 . S
C155 C154 1.399 . S
C155 C156 1.385 . S
C156 H142 0.931 . S
C156 C155 1.385 . S
C156 C157 1.389 . S
C157 C156 1.389 . S
C157 C158 1.387 . S
C158 H143 0.930 . S
C158 C153 1.390 . S
C158 C157 1.387 . S
H159 C171 0.930 . S
H160 C173 0.930 . S
H161 C174 0.930 . S
H162 C178 0.959 . S
H163 C178 0.959 . S
H164 C178 0.961 . S
H165 C179 0.960 . S
H166 C179 0.961 . S
H167 C179 0.959 . S
H168 C182 0.929 . S
H169 C183 0.931 . S
H170 C185 0.930 . S
C171 H159 0.930 . S
C171 C172 1.399 1_554 S
C171 C176 1.399 1_554 S
C172 C171 1.399 1_556 S
C172 C173 1.376 . S
C173 H160 0.930 . S
C173 C172 1.376 . S
C173 C174 1.388 . S
C174 H161 0.930 . S
C174 C173 1.388 . S
C174 C175 1.390 . S
C175 C174 1.390 . S
C175 C176 1.394 . S
C175 C181 1.465 . S
C176 C171 1.399 1_556 S
C176 C175 1.394 . S
C176 C177 1.516 1_556 S
C177 C176 1.516 1_554 S
C177 C178 1.502 . S
C177 C179 1.561 . S
C177 C180 1.526 1_554 S
C178 H162 0.959 . S
C178 H163 0.959 . S
C178 H164 0.961 . S
C178 C177 1.502 . S
C179 H165 0.960 . S
C179 H166 0.961 . S
C179 H167 0.959 . S
C179 C177 1.561 . S
C180 C177 1.526 1_556 S
C180 C181 1.396 . S
C180 C185 1.390 . S
C181 C175 1.465 . S
C181 C180 1.396 . S
C181 C182 1.399 . S
C182 H168 0.929 . S
C182 C181 1.399 . S
C182 C183 1.385 . S
C183 H169 0.931 . S
C183 C182 1.385 . S
C183 C184 1.389 . S
C184 C183 1.389 . S
C184 C185 1.387 . S
C185 H170 0.930 . S
C185 C180 1.390 . S
C185 C184 1.387 . S
H186 C198 0.930 . S
H187 C200 0.930 . S
H188 C201 0.930 . S
H189 C205 0.959 . S
H190 C205 0.959 . S
H191 C205 0.961 . S
H192 C206 0.960 . S
H193 C206 0.961 . S
H194 C206 0.959 . S
H195 C209 0.929 . S
H196 C210 0.931 . S
H197 C212 0.930 . S
C198 H186 0.930 . S
C198 C199 1.399 . S
C198 C203 1.399 . S
C199 C198 1.399 . S
C199 C200 1.376 . S
C200 H187 0.930 . S
C200 C199 1.376 . S
C200 C201 1.388 . S
C201 H188 0.930 . S
C201 C200 1.388 . S
C201 C202 1.390 . S
C202 C201 1.390 . S
C202 C203 1.394 . S
C202 C208 1.465 . S
C203 C198 1.399 . S
C203 C202 1.394 . S
C203 C204 1.516 . S
C204 C203 1.516 . S
C204 C205 1.502 . S
C204 C206 1.561 . S
C204 C207 1.526 . S
C205 H189 0.959 . S
C205 H190 0.959 . S
C205 H191 0.961 . S
C205 C204 1.502 . S
C206 H192 0.960 . S
C206 H193 0.961 . S
C206 H194 0.959 . S
C206 C204 1.561 . S
C207 C204 1.526 . S
C207 C208 1.396 . S
C207 C212 1.390 . S
C208 C202 1.465 . S
C208 C207 1.396 . S
C208 C209 1.399 . S
C209 H195 0.929 . S
C209 C208 1.399 . S
C209 C210 1.385 . S
C210 H196 0.931 . S
C210 C209 1.385 . S
C210 C211 1.389 . S
C211 C210 1.389 . S
C211 C212 1.387 . S
C212 H197 0.930 . S
C212 C207 1.390 . S
C212 C211 1.387 . S
H213 C225 0.930 . S
H214 C227 0.930 . S
H215 C228 0.930 . S
H216 C232 0.959 . S
H217 C232 0.959 . S
H218 C232 0.961 . S
H219 C233 0.960 . S
H220 C233 0.961 . S
H221 C233 0.959 . S
H222 C236 0.929 . S
H223 C237 0.931 . S
H224 C239 0.920 1_455 S
C225 H213 0.930 . S
C225 C226 1.399 . S
C225 C230 1.399 . S
C226 C225 1.399 . S
C226 C227 1.376 . S
C227 H214 0.930 . S
C227 C226 1.376 . S
C227 C228 1.388 . S
C228 H215 0.930 . S
C228 C227 1.388 . S
C228 C229 1.390 . S
C229 C228 1.390 . S
C229 C230 1.394 . S
C229 C235 1.465 . S
C230 C225 1.399 . S
C230 C229 1.394 . S
C230 C231 1.516 . S
C231 C230 1.516 . S
C231 C232 1.502 . S
C231 C233 1.561 . S
C231 C234 1.526 . S
C232 H216 0.959 . S
C232 H217 0.959 . S
C232 H218 0.961 . S
C232 C231 1.502 . S
C233 H219 0.960 . S
C233 H220 0.961 . S
C233 H221 0.959 . S
C233 C231 1.561 . S
C234 C231 1.526 . S
C234 C235 1.396 . S
C234 C239 1.390 . S
C235 C229 1.465 . S
C235 C234 1.396 . S
C235 C236 1.399 . S
C236 H222 0.929 . S
C236 C235 1.399 . S
C236 C237 1.385 . S
C237 H223 0.931 . S
C237 C236 1.385 . S
C237 C238 1.389 . S
C238 C237 1.389 . S
C238 C239 1.387 . S
C239 H224 0.920 1_655 S
C239 C234 1.390 . S
C239 C238 1.387 . S
H240 C252 0.930 . S
H241 C254 0.930 . S
H242 C255 0.930 . S
H243 C259 0.959 . S
H244 C259 0.959 . S
H245 C259 0.961 . S
H246 C260 0.960 . S
H247 C260 0.961 . S
H248 C260 0.959 . S
H249 C263 0.929 . S
H250 C264 0.931 . S
H251 C266 0.930 . S
C252 H240 0.930 . S
C252 C253 1.399 . S
C252 C257 1.399 . S
C253 C252 1.399 . S
C253 C254 1.376 . S
C254 H241 0.930 . S
C254 C253 1.376 . S
C254 C255 1.388 . S
C255 H242 0.930 . S
C255 C254 1.388 . S
C255 C256 1.390 . S
C256 C255 1.390 . S
C256 C257 1.394 . S
C256 C262 1.465 . S
C257 C252 1.399 . S
C257 C256 1.394 . S
C257 C258 1.516 . S
C258 C257 1.516 . S
C258 C259 1.502 . S
C258 C260 1.561 . S
C258 C261 1.526 . S
C259 H243 0.959 . S
C259 H244 0.959 . S
C259 H245 0.961 . S
C259 C258 1.502 . S
C260 H246 0.960 . S
C260 H247 0.961 . S
C260 H248 0.959 . S
C260 C258 1.561 . S
C261 C258 1.526 . S
C261 C262 1.396 . S
C261 C266 1.390 . S
C262 C256 1.465 . S
C262 C261 1.396 . S
C262 C263 1.399 . S
C263 H249 0.929 . S
C263 C262 1.399 . S
C263 C264 1.385 . S
C264 H250 0.931 . S
C264 C263 1.385 . S
C264 C265 1.389 . S
C265 C264 1.389 . S
C265 C266 1.387 . S
C266 H251 0.930 . S
C266 C261 1.390 . S
C266 C265 1.387 . S
H267 C279 0.930 . S
H268 C281 0.930 . S
H269 C282 0.930 . S
H270 C286 0.959 . S
H271 C286 0.959 . S
H272 C286 0.961 . S
H273 C287 0.960 . S
H274 C287 0.961 . S
H275 C287 0.959 . S
H276 C290 0.929 . S
H277 C291 0.931 . S
H278 C293 0.930 . S
C279 H267 0.930 . S
C279 C280 1.399 . S
C279 C284 1.399 . S
C280 C279 1.399 . S
C280 C281 1.376 . S
C281 H268 0.930 . S
C281 C280 1.376 . S
C281 C282 1.388 . S
C282 H269 0.930 . S
C282 C281 1.388 . S
C282 C283 1.390 . S
C283 C282 1.390 . S
C283 C284 1.394 . S
C283 C289 1.465 . S
C284 C279 1.399 . S
C284 C283 1.394 . S
C284 C285 1.516 . S
C285 C284 1.516 . S
C285 C286 1.502 . S
C285 C287 1.561 . S
C285 C288 1.526 . S
C286 H270 0.959 . S
C286 H271 0.959 . S
C286 H272 0.961 . S
C286 C285 1.502 . S
C287 H273 0.960 . S
C287 H274 0.961 . S
C287 H275 0.959 . S
C287 C285 1.561 . S
C288 C285 1.526 . S
C288 C289 1.396 . S
C288 C293 1.390 . S
C289 C283 1.465 . S
C289 C288 1.396 . S
C289 C290 1.399 . S
C290 H276 0.929 . S
C290 C289 1.399 . S
C290 C291 1.385 . S
C291 H277 0.931 . S
C291 C290 1.385 . S
C291 C292 1.389 . S
C292 C291 1.389 . S
C292 C293 1.387 . S
C293 H278 0.930 . S
C293 C288 1.390 . S
C293 C292 1.387 . S
H294 C306 0.930 . S
H295 C308 0.930 1_655 S
H296 C309 0.930 . S
H297 C313 0.959 . S
H298 C313 0.959 . S
H299 C313 0.961 . S
H300 C314 0.960 . S
H301 C314 0.961 . S
H302 C314 0.959 1_655 S
H303 C317 0.929 1_655 S
H304 C318 0.931 . S
H305 C320 0.930 . S
C306 H294 0.930 . S
C306 C307 1.399 1_545 S
C306 C311 1.399 . S
C307 C306 1.399 1_565 S
C307 C308 1.376 . S
C308 H295 0.930 1_455 S
C308 C307 1.376 . S
C308 C309 1.388 1_455 S
C309 H296 0.930 . S
C309 C308 1.388 1_655 S
C309 C310 1.390 1_655 S
C310 C309 1.390 1_455 S
C310 C311 1.394 1_565 S
C310 C316 1.465 . S
C311 C306 1.399 . S
C311 C310 1.394 1_545 S
C311 C312 1.516 . S
C312 C311 1.516 . S
C312 C313 1.502 . S
C312 C314 1.561 . S
C312 C315 1.526 . S
C313 H297 0.959 . S
C313 H298 0.959 . S
C313 H299 0.961 . S
C313 C312 1.502 . S
C314 H300 0.960 . S
C314 H301 0.961 . S
C314 H302 0.959 1_455 S
C314 C312 1.561 . S
C315 C312 1.526 . S
C315 C316 1.396 1_545 S
C315 C320 1.390 . S
C316 C310 1.465 . S
C316 C315 1.396 1_565 S
C316 C317 1.399 . S
C317 H303 0.929 1_455 S
C317 C316 1.399 . S
C317 C318 1.385 . S
C318 H304 0.931 . S
C318 C317 1.385 . S
C318 C319 1.389 1_565 S
C319 C318 1.389 1_545 S
C319 C320 1.387 . S
C320 H305 0.930 . S
C320 C315 1.390 . S
C320 C319 1.387 . S
H321 C333 0.930 . S
H322 C335 0.930 . S
H323 C336 0.930 . S
H324 C340 0.959 . S
H325 C340 0.959 . S
H326 C340 0.961 . S
H327 C341 0.960 . S
H328 C341 0.961 . S
H329 C341 0.959 . S
H330 C344 0.929 . S
H331 C345 0.931 . S
H332 C347 0.930 . S
C333 H321 0.930 . S
C333 C334 1.399 . S
C333 C338 1.399 . S
C334 C333 1.399 . S
C334 C335 1.376 1_465 S
C335 H322 0.930 . S
C335 C334 1.376 1_645 S
C335 C336 1.388 . S
C336 H323 0.930 . S
C336 C335 1.388 . S
C336 C337 1.390 . S
C337 C336 1.390 . S
C337 C338 1.394 1_645 S
C337 C343 1.465 . S
C338 C333 1.399 . S
C338 C337 1.394 1_465 S
C338 C339 1.516 . S
C339 C338 1.516 . S
C339 C340 1.502 . S
C339 C341 1.561 1_455 S
C339 C342 1.526 . S
C340 H324 0.959 . S
C340 H325 0.959 . S
C340 H326 0.961 . S
C340 C339 1.502 . S
C341 H327 0.960 . S
C341 H328 0.961 . S
C341 H329 0.959 . S
C341 C339 1.561 1_655 S
C342 C339 1.526 . S
C342 C343 1.396 1_465 S
C342 C347 1.390 . S
C343 C337 1.465 . S
C343 C342 1.396 1_645 S
C343 C344 1.399 . S
C344 H330 0.929 . S
C344 C343 1.399 . S
C344 C345 1.385 . S
C345 H331 0.931 . S
C345 C344 1.385 . S
C345 C346 1.389 1_655 S
C346 C345 1.389 1_455 S
C346 C347 1.387 1_545 S
C347 H332 0.930 . S
C347 C342 1.390 . S
C347 C346 1.387 1_565 S
H348 C360 0.930 . S
H349 C362 0.930 . S
H350 C363 0.930 . S
H351 C367 0.959 . S
H352 C367 0.959 . S
H353 C367 0.961 . S
H354 C368 0.960 . S
H355 C368 0.961 . S
H356 C368 0.959 . S
H357 C371 0.929 . S
H358 C372 0.931 . S
H359 C374 0.930 . S
C360 H348 0.930 . S
C360 C361 1.399 . S
C360 C365 1.399 . S
C361 C360 1.399 . S
C361 C362 1.376 . S
C362 H349 0.930 . S
C362 C361 1.376 . S
C362 C363 1.388 . S
C363 H350 0.930 . S
C363 C362 1.388 . S
C363 C364 1.390 . S
C364 C363 1.390 . S
C364 C365 1.394 . S
C364 C370 1.465 . S
C365 C360 1.399 . S
C365 C364 1.394 . S
C365 C366 1.516 . S
C366 C365 1.516 . S
C366 C367 1.502 . S
C366 C368 1.561 . S
C366 C369 1.526 . S
C367 H351 0.959 . S
C367 H352 0.959 . S
C367 H353 0.961 . S
C367 C366 1.502 . S
C368 H354 0.960 . S
C368 H355 0.961 . S
C368 H356 0.959 . S
C368 C366 1.561 . S
C369 C366 1.526 . S
C369 C370 1.396 . S
C369 C374 1.390 . S
C370 C364 1.465 . S
C370 C369 1.396 . S
C370 C371 1.399 . S
C371 H357 0.929 . S
C371 C370 1.399 . S
C371 C372 1.385 . S
C372 H358 0.931 . S
C372 C371 1.385 . S
C372 C373 1.389 . S
C373 C372 1.389 . S
C373 C374 1.387 . S
C374 H359 0.930 . S
C374 C369 1.390 . S
C374 C373 1.387 . S
H375 C387 0.930 . S
H376 C389 0.930 . S
H377 C390 0.930 . S
H378 C394 0.959 . S
H379 C394 0.959 . S
H380 C394 0.961 . S
H381 C395 0.960 . S
H382 C395 0.961 . S
H383 C395 0.959 . S
H384 C398 0.929 . S
H385 C399 0.931 . S
H386 C401 0.930 . S
C387 H375 0.930 . S
C387 C388 1.399 . S
C387 C392 1.399 . S
C388 C387 1.399 . S
C388 C389 1.376 . S
C389 H376 0.930 . S
C389 C388 1.376 . S
C389 C390 1.388 . S
C390 H377 0.930 . S
C390 C389 1.388 . S
C390 C391 1.390 . S
C391 C390 1.390 . S
C391 C392 1.394 . S
C391 C397 1.465 . S
C392 C387 1.399 . S
C392 C391 1.394 . S
C392 C393 1.516 . S
C393 C392 1.516 . S
C393 C394 1.502 . S
C393 C395 1.561 . S
C393 C396 1.526 . S
C394 H378 0.959 . S
C394 H379 0.959 . S
C394 H380 0.961 . S
C394 C393 1.502 . S
C395 H381 0.960 . S
C395 H382 0.961 . S
C395 H383 0.959 . S
C395 C393 1.561 . S
C396 C393 1.526 . S
C396 C397 1.396 . S
C396 C401 1.390 . S
C397 C391 1.465 . S
C397 C396 1.396 . S
C397 C398 1.399 . S
C398 H384 0.929 . S
C398 C397 1.399 . S
C398 C399 1.385 . S
C399 H385 0.931 . S
C399 C398 1.385 . S
C399 C400 1.389 . S
C400 C399 1.389 . S
C400 C401 1.387 . S
C401 H386 0.930 . S
C401 C396 1.390 . S
C401 C400 1.387 . S
C103 C73 1.231 . S
C91 C3 1.053 . S
C118 C4 1.404 1_556 S
C130 C64 1.551 . S
C145 C19 1.491 . S
C157 C76 1.541 . S
C172 C7 1.120 . S
C184 C67 1.230 . S
C199 C37 1.100 . S
C211 C55 1.264 . S
C226 C28 1.497 . S
C238 C46 1.524 1_655 S
C265 C58 1.566 . S
C253 C41 1.427 . S
C292 C49 1.265 . S
C280 C25 1.100 . S
C307 C20 1.373 . S
C319 C47 1.447 . S
C334 C16 1.289 1_455 S
C346 C56 1.517 . S
C373 C65 1.447 . S
C361 C40 1.373 . S
C388 C24 1.347 . S
C400 C74 1.504 . S
