# Generated by pormake.
# Topology pto, (3,4)-cn, num edge types: 1
# Building blocks:
#     Node 0, Type 0, BuildingBlock: OLANEW_clean_sbu_2, # of connection points: 3
#     Node 1, Type 0, BuildingBlock: OLANEW_clean_sbu_2, # of connection points: 3
#     Node 2, Type 0, BuildingBlock: OLANEW_clean_sbu_2, # of connection points: 3
#     Node 3, Type 0, BuildingBlock: OLANEW_clean_sbu_2, # of connection points: 3
#     Node 4, Type 0, BuildingBlock: OLANEW_clean_sbu_2, # of connection points: 3
#     Node 5, Type 0, BuildingBlock: OLANEW_clean_sbu_2, # of connection points: 3
#     Node 6, Type 0, BuildingBlock: OLANEW_clean_sbu_2, # of connection points: 3
#     Node 7, Type 0, BuildingBlock: OLANEW_clean_sbu_2, # of connection points: 3
#     Node 8, Type 1, BuildingBlock: MIFKUJ_clean_linker_1, # of connection points: 4
#     Node 9, Type 1, BuildingBlock: MIFKUJ_clean_linker_1, # of connection points: 4
#     Node 10, Type 1, BuildingBlock: MIFKUJ_clean_linker_1, # of connection points: 4
#     Node 11, Type 1, BuildingBlock: MIFKUJ_clean_linker_1, # of connection points: 4
#     Node 12, Type 1, BuildingBlock: MIFKUJ_clean_linker_1, # of connection points: 4
#     Node 13, Type 1, BuildingBlock: MIFKUJ_clean_linker_1, # of connection points: 4
#     Edge 14, Type (0, 1), BuildingBlock: CIFDUS_clean_linker_0, # of connection points: 2
#     Edge 15, Type (0, 1), BuildingBlock: CIFDUS_clean_linker_0, # of connection points: 2
#     Edge 16, Type (0, 1), BuildingBlock: CIFDUS_clean_linker_0, # of connection points: 2
#     Edge 17, Type (0, 1), BuildingBlock: CIFDUS_clean_linker_0, # of connection points: 2
#     Edge 18, Type (0, 1), BuildingBlock: CIFDUS_clean_linker_0, # of connection points: 2
#     Edge 19, Type (0, 1), BuildingBlock: CIFDUS_clean_linker_0, # of connection points: 2
#     Edge 20, Type (0, 1), BuildingBlock: CIFDUS_clean_linker_0, # of connection points: 2
#     Edge 21, Type (0, 1), BuildingBlock: CIFDUS_clean_linker_0, # of connection points: 2
#     Edge 22, Type (0, 1), BuildingBlock: CIFDUS_clean_linker_0, # of connection points: 2
#     Edge 23, Type (0, 1), BuildingBlock: CIFDUS_clean_linker_0, # of connection points: 2
#     Edge 24, Type (0, 1), BuildingBlock: CIFDUS_clean_linker_0, # of connection points: 2
#     Edge 25, Type (0, 1), BuildingBlock: CIFDUS_clean_linker_0, # of connection points: 2
#     Edge 26, Type (0, 1), BuildingBlock: CIFDUS_clean_linker_0, # of connection points: 2
#     Edge 27, Type (0, 1), BuildingBlock: CIFDUS_clean_linker_0, # of connection points: 2
#     Edge 28, Type (0, 1), BuildingBlock: CIFDUS_clean_linker_0, # of connection points: 2
#     Edge 29, Type (0, 1), BuildingBlock: CIFDUS_clean_linker_0, # of connection points: 2
#     Edge 30, Type (0, 1), BuildingBlock: CIFDUS_clean_linker_0, # of connection points: 2
#     Edge 31, Type (0, 1), BuildingBlock: CIFDUS_clean_linker_0, # of connection points: 2
#     Edge 32, Type (0, 1), BuildingBlock: CIFDUS_clean_linker_0, # of connection points: 2
#     Edge 33, Type (0, 1), BuildingBlock: CIFDUS_clean_linker_0, # of connection points: 2
#     Edge 34, Type (0, 1), BuildingBlock: CIFDUS_clean_linker_0, # of connection points: 2
#     Edge 35, Type (0, 1), BuildingBlock: CIFDUS_clean_linker_0, # of connection points: 2
#     Edge 36, Type (0, 1), BuildingBlock: CIFDUS_clean_linker_0, # of connection points: 2
#     Edge 37, Type (0, 1), BuildingBlock: CIFDUS_clean_linker_0, # of connection points: 2
# Relax obj value: 0.008
# Max RMSD: 0.122
# Mean RMSD: 0.053
data_MOF--net-pto--node1-OLANEW_clean_sbu_2--node2-MIFKUJ_clean_linker_1--edge1-CIFDUS_clean_linker_0
_symmetry_space_group_name_H-M    P1
_symmetry_Int_Tables_number       1
_symmetry_cell_setting            triclinic
loop_
_symmetry_equiv_pos_as_xyz
'x, y, z'
_cell_length_a     35.727653
_cell_length_b     55.92775
_cell_length_c     45.659405
_cell_angle_alpha  92.528602
_cell_angle_beta   89.640828
_cell_angle_gamma 106.0521
loop_
_atom_site_label
_atom_site_type_symbol
_atom_site_fract_x
_atom_site_fract_y
_atom_site_fract_z
_atom_type_partial_charge
O0 O 0.30779 0.33062 0.28491 0.0
Cd1 Cd 0.2801 0.33728 0.33261 0.0
O2 O 0.34471 0.36915 0.28276 0.0
Cd3 Cd 0.31541 0.3831 0.31912 0.0
O4 O 0.2819 0.40658 0.33965 0.0
C5 C 0.24508 0.40047 0.33656 0.0
O6 O 0.2278 0.37929 0.32254 0.0
C7 C 0.33406 0.34689 0.27215 0.0
C8 C 0.28699 0.29977 0.3689 0.0
O9 O 0.25628 0.29729 0.35337 0.0
O10 O 0.31412 0.32023 0.36775 0.0
O11 O 0.34791 0.85518 0.74246 0.0
Cd12 Cd 0.30649 0.84711 0.69859 0.0
O13 O 0.38095 0.82999 0.72473 0.0
Cd14 Cd 0.33897 0.81327 0.68993 0.0
O15 O 0.29385 0.78212 0.67013 0.0
C16 C 0.30375 0.76266 0.66226 0.0
O17 O 0.3405 0.76295 0.66475 0.0
C18 C 0.3763 0.84571 0.74442 0.0
C19 C 0.31185 0.89013 0.66818 0.0
O20 O 0.28329 0.88161 0.68544 0.0
O21 O 0.3379 0.8784 0.66537 0.0
O22 O 0.84168 0.82349 0.33114 0.0
Cd23 Cd 0.84477 0.79494 0.28951 0.0
O24 O 0.78013 0.80526 0.34031 0.0
Cd25 Cd 0.77155 0.7859 0.29727 0.0
O26 O 0.75181 0.78859 0.2526 0.0
C27 C 0.72926 0.8025 0.25062 0.0
O28 O 0.71949 0.81291 0.27476 0.0
C29 C 0.81189 0.82141 0.34727 0.0
C30 C 0.86618 0.75306 0.30644 0.0
O31 O 0.89192 0.77325 0.30055 0.0
O32 O 0.83024 0.75266 0.30443 0.0
O33 O 0.76032 0.30392 0.67355 0.0
Cd34 Cd 0.71109 0.26695 0.68964 0.0
O35 O 0.80702 0.29645 0.69971 0.0
Cd36 Cd 0.76436 0.27068 0.72598 0.0
O37 O 0.7237 0.26888 0.76227 0.0
C38 C 0.73245 0.28815 0.77943 0.0
O39 O 0.76417 0.30596 0.77416 0.0
C40 C 0.79611 0.30922 0.68082 0.0
C41 C 0.71783 0.22345 0.66017 0.0
O42 O 0.69467 0.23533 0.65079 0.0
O43 O 0.73767 0.2321 0.68345 0.0
O44 O 0.75566 0.77378 0.59862 0.0
Cd45 Cd 0.73862 0.72917 0.60722 0.0
O46 O 0.75479 0.78142 0.64601 0.0
Cd47 Cd 0.7533 0.80342 0.68664 0.0
O48 O 0.74323 0.81548 0.73149 0.0
C49 C 0.71516 0.8248 0.73703 0.0
O50 O 0.69331 0.82791 0.71527 0.0
C51 C 0.75871 0.78938 0.62018 0.0
C52 C 0.80053 0.70866 0.61537 0.0
O53 O 0.78669 0.70945 0.5897 0.0
O54 O 0.78582 0.71823 0.63704 0.0
O55 O 0.83801 0.3009 0.3384 0.0
Cd56 Cd 0.80034 0.25924 0.32086 0.0
O57 O 0.78987 0.3167 0.32815 0.0
Cd58 Cd 0.75292 0.28451 0.30358 0.0
O59 O 0.71877 0.27741 0.26296 0.0
C60 C 0.73291 0.29274 0.24332 0.0
O61 O 0.7662 0.3096 0.24873 0.0
C62 C 0.82366 0.31934 0.3388 0.0
C63 C 0.81076 0.22128 0.35507 0.0
O64 O 0.83163 0.22786 0.33231 0.0
O65 O 0.78526 0.23281 0.36178 0.0
O66 O 0.28455 0.3424 0.76153 0.0
Cd67 Cd 0.2566 0.34156 0.71239 0.0
O68 O 0.3439 0.36281 0.74882 0.0
Cd69 Cd 0.32779 0.35819 0.70253 0.0
O70 O 0.31612 0.33035 0.66627 0.0
C71 C 0.30582 0.30808 0.67455 0.0
O72 O 0.30202 0.30438 0.70277 0.0
C73 C 0.31999 0.35275 0.76845 0.0
C74 C 0.22218 0.37978 0.70286 0.0
O75 O 0.20218 0.3589 0.71242 0.0
O76 O 0.2586 0.38272 0.69832 0.0
O77 O 0.41033 0.85565 0.29853 0.0
Cd78 Cd 0.37338 0.84715 0.34413 0.0
O79 O 0.36072 0.8592 0.27249 0.0
Cd80 Cd 0.31938 0.84437 0.30693 0.0
O81 O 0.27814 0.8129 0.32657 0.0
C82 C 0.26849 0.79341 0.30981 0.0
O83 O 0.28334 0.79426 0.28334 0.0
C84 C 0.39667 0.86036 0.27445 0.0
C85 C 0.36557 0.8904 0.37352 0.0
O86 O 0.39549 0.88251 0.37761 0.0
O87 O 0.33939 0.8779 0.35546 0.0
H88 H 0.94104 0.51763 0.32865 0.0
H89 H 0.8987 0.47513 0.32797 0.0
H90 H 0.95854 0.46032 0.40408 0.0
H91 H 1.0007 0.50319 0.40496 0.0
H92 H 0.95388 0.55624 0.36505 0.0
H93 H 0.03139 0.50547 0.32375 0.0
H94 H 0.06418 0.47252 0.32034 0.0
H95 H 0.12801 0.50235 0.40005 0.0
H96 H 0.09547 0.53558 0.40297 0.0
H97 H 0.11154 0.61738 0.39128 0.0
H98 H 0.15556 0.65735 0.37757 0.0
H99 H 0.09101 0.65272 0.29682 0.0
H100 H 0.04779 0.61276 0.31035 0.0
H101 H 0.09729 0.57101 0.36091 0.0
H102 H 0.02527 0.62783 0.39328 0.0
H103 H 0.00097 0.6638 0.38506 0.0
H104 H 0.9274 0.6223 0.31482 0.0
H105 H 0.95218 0.58645 0.32286 0.0
C106 C 0.97425 0.51362 0.36672 0.0
C107 C 0.94476 0.50539 0.34547 0.0
C108 C 0.92055 0.48107 0.3451 0.0
C109 C 0.9253 0.46439 0.36599 0.0
C110 C 0.95449 0.4727 0.38754 0.0
C111 C 0.97855 0.49717 0.38805 0.0
C112 C 0.00111 0.53915 0.36572 0.0
C113 C 0.98522 0.55944 0.36414 0.0
C114 C 0.04208 0.54347 0.365 0.0
C115 C 0.06072 0.52282 0.36377 0.0
C116 C 0.05212 0.50473 0.34067 0.0
C117 C 0.07082 0.48584 0.33882 0.0
C118 C 0.09869 0.48471 0.35998 0.0
C119 C 0.10706 0.50282 0.38321 0.0
C120 C 0.08838 0.52175 0.38499 0.0
C121 C 0.07627 0.61224 0.35194 0.0
C122 C 0.10696 0.62505 0.37066 0.0
C123 C 0.13184 0.64792 0.36291 0.0
C124 C 0.1267 0.65813 0.33612 0.0
C125 C 0.09591 0.64521 0.31747 0.0
C126 C 0.07103 0.62248 0.32527 0.0
C127 C 0.05001 0.58787 0.35972 0.0
C128 C 0.06599 0.56785 0.3626 0.0
C129 C 0.00913 0.58376 0.36107 0.0
C130 C 0.99099 0.60452 0.35842 0.0
C131 C 0.00382 0.62643 0.37616 0.0
C132 C 0.98996 0.64699 0.37142 0.0
C133 C 0.96254 0.64595 0.34911 0.0
C134 C 0.94833 0.62361 0.33229 0.0
C135 C 0.96245 0.6031 0.33689 0.0
H136 H 0.10333 0.58767 0.59936 0.0
H137 H 0.14863 0.62946 0.60078 0.0
H138 H 0.08536 0.65092 0.6737 0.0
H139 H 0.03988 0.60925 0.67178 0.0
H140 H 0.08975 0.55426 0.64353 0.0
H141 H 0.01422 0.59793 0.58869 0.0
H142 H 0.98014 0.62953 0.58045 0.0
H143 H 0.90888 0.60612 0.65643 0.0
H144 H 0.94371 0.57518 0.66499 0.0
H145 H 0.92762 0.50521 0.67063 0.0
H146 H 0.88305 0.4634 0.67237 0.0
H147 H 0.95681 0.43534 0.6128 0.0
H148 H 1.0007 0.47749 0.60999 0.0
H149 H 0.94674 0.53584 0.63077 0.0
H150 H 0.01889 0.4961 0.69002 0.0
H151 H 0.05022 0.46459 0.70411 0.0
H152 H 0.12605 0.48066 0.62912 0.0
H153 H 0.09468 0.51227 0.61525 0.0
C154 C 0.06812 0.59541 0.63532 0.0
C155 C 0.09911 0.60147 0.61549 0.0
C156 C 0.12504 0.62533 0.61642 0.0
C157 C 0.1207 0.64355 0.6374 0.0
C158 C 0.08922 0.63749 0.65696 0.0
C159 C 0.06324 0.61364 0.65596 0.0
C160 C 0.04203 0.56968 0.63533 0.0
C161 C 0.05851 0.55012 0.64027 0.0
C162 C 0.00118 0.5645 0.63232 0.0
C163 C 0.98167 0.58427 0.62756 0.0
C164 C 0.99162 0.59987 0.60379 0.0
C165 C 0.97191 0.61778 0.59897 0.0
C166 C 0.94183 0.62039 0.61782 0.0
C167 C 0.93227 0.60489 0.64175 0.0
C168 C 0.95192 0.58701 0.64652 0.0
C169 C 0.96782 0.49458 0.64039 0.0
C170 C 0.93414 0.49017 0.65769 0.0
C171 C 0.90867 0.46628 0.65869 0.0
C172 C 0.91656 0.44623 0.64269 0.0
C173 C 0.95029 0.45051 0.62549 0.0
C174 C 0.97544 0.47455 0.62404 0.0
C175 C 0.9943 0.52026 0.63913 0.0
C176 C 0.97798 0.53985 0.63392 0.0
C177 C 0.03517 0.52558 0.64288 0.0
C178 C 0.05412 0.50635 0.65137 0.0
C179 C 0.04205 0.4927 0.67648 0.0
C180 C 0.05998 0.47466 0.6845 0.0
C181 C 0.0906 0.47005 0.66771 0.0
C182 C 0.10288 0.48395 0.64273 0.0
C183 C 0.08488 0.50195 0.6347 0.0
H184 H 0.24221 0.0504 0.57212 0.0
H185 H 0.24012 0.01435 0.60052 0.0
H186 H 0.34226 0.00515 0.5551 0.0
H187 H 0.34637 0.04278 0.52898 0.0
H188 H 0.28961 0.09332 0.57025 0.0
H189 H 0.24608 0.0261 0.49555 0.0
H190 H 0.25255 0.98897 0.46777 0.0
H191 H 0.36494 0.03091 0.43661 0.0
H192 H 0.35848 0.06789 0.46468 0.0
H193 H 0.3457 0.14263 0.46306 0.0
H194 H 0.33805 0.17783 0.43578 0.0
H195 H 0.22487 0.16941 0.47471 0.0
H196 H 0.23246 0.13415 0.50155 0.0
H197 H 0.30104 0.09342 0.46191 0.0
H198 H 0.34128 0.16147 0.53214 0.0
H199 H 0.3384 0.19792 0.5627 0.0
H200 H 0.23276 0.15448 0.60249 0.0
H201 H 0.23595 0.11807 0.57197 0.0
C202 C 0.29405 0.04921 0.54795 0.0
C203 C 0.26445 0.0408 0.56849 0.0
C204 C 0.26297 0.01985 0.58447 0.0
C205 C 0.2907 0.00641 0.57999 0.0
C206 C 0.32056 0.01502 0.55952 0.0
C207 C 0.32256 0.03638 0.54406 0.0
C208 C 0.29503 0.07158 0.53108 0.0
C209 C 0.29155 0.09315 0.54652 0.0
C210 C 0.29906 0.07185 0.50017 0.0
C211 C 0.30196 0.04965 0.48235 0.0
C212 C 0.27207 0.02727 0.48269 0.0
C213 C 0.27571 0.00613 0.46671 0.0
C214 C 0.30934 0.00702 0.45013 0.0
C215 C 0.33893 0.02959 0.44947 0.0
C216 C 0.33515 0.05075 0.46529 0.0
C217 C 0.28978 0.1359 0.48445 0.0
C218 C 0.31925 0.14837 0.46563 0.0
C219 C 0.31496 0.16856 0.45026 0.0
C220 C 0.28088 0.17639 0.45316 0.0
C221 C 0.25131 0.1637 0.47185 0.0
C222 C 0.25573 0.14366 0.48734 0.0
C223 C 0.29427 0.11468 0.5011 0.0
C224 C 0.29902 0.09347 0.48564 0.0
C225 C 0.29126 0.11467 0.53198 0.0
C226 C 0.28874 0.13706 0.5497 0.0
C227 C 0.31723 0.15989 0.54718 0.0
C228 C 0.31549 0.18073 0.56461 0.0
C229 C 0.28536 0.17909 0.58504 0.0
C230 C 0.25662 0.15627 0.58723 0.0
C231 C 0.25836 0.13546 0.56979 0.0
H232 H 0.51653 0.90525 0.9622 0.0
H233 H 0.48026 0.90612 0.91696 0.0
H234 H 0.48556 0.83154 0.89281 0.0
H235 H 0.5217 0.83086 0.93774 0.0
H236 H 0.50162 0.87431 0.00867 0.0
H237 H 0.59891 0.89755 0.93589 0.0
H238 H 0.62378 0.89326 0.88652 0.0
H239 H 0.6345 0.82045 0.90555 0.0
H240 H 0.60917 0.82473 0.95489 0.0
H241 H 0.60399 0.81936 0.0436 0.0
H242 H 0.6314 0.81011 0.08925 0.0
H243 H 0.64009 0.88482 0.12339 0.0
H244 H 0.61181 0.89368 0.07788 0.0
H245 H 0.6293 0.85534 0.00198 0.0
H246 H 0.52941 0.83254 0.07488 0.0
H247 H 0.49791 0.83588 0.12198 0.0
H248 H 0.48981 0.90895 0.10169 0.0
H249 H 0.52268 0.90597 0.05493 0.0
C250 C 0.52231 0.86815 0.95309 0.0
C251 C 0.50965 0.88908 0.94717 0.0
C252 C 0.48895 0.88954 0.92136 0.0
C253 C 0.4805 0.86902 0.90112 0.0
C254 C 0.4924 0.84787 0.90758 0.0
C255 C 0.51292 0.84741 0.93332 0.0
C256 C 0.54585 0.86785 0.97966 0.0
C257 C 0.52991 0.8707 0.00729 0.0
C258 C 0.58256 0.86285 0.97771 0.0
C259 C 0.60165 0.86131 0.94896 0.0
C260 C 0.60671 0.88069 0.92947 0.0
C261 C 0.62084 0.8782 0.90126 0.0
C262 C 0.63075 0.85643 0.89209 0.0
C263 C 0.62733 0.83751 0.91206 0.0
C264 C 0.61289 0.83993 0.94026 0.0
C265 C 0.60552 0.85711 0.05749 0.0
C266 C 0.61232 0.83383 0.0608 0.0
C267 C 0.62807 0.8286 0.08691 0.0
C268 C 0.63766 0.84665 0.11014 0.0
C269 C 0.6323 0.87032 0.10621 0.0
C270 C 0.61639 0.87549 0.08014 0.0
C271 C 0.58484 0.86151 0.03109 0.0
C272 C 0.60134 0.8594 0.00344 0.0
C273 C 0.54879 0.86745 0.03308 0.0
C274 C 0.52918 0.86922 0.06157 0.0
C275 C 0.52158 0.84949 0.08075 0.0
C276 C 0.50349 0.85138 0.10763 0.0
C277 C 0.49173 0.87275 0.11551 0.0
C278 C 0.49858 0.89227 0.09609 0.0
C279 C 0.51729 0.89056 0.06941 0.0
H280 H 0.7211 0.96506 0.54323 0.0
H281 H 0.70958 0.92233 0.55929 0.0
H282 H 0.8335 0.93424 0.56984 0.0
H283 H 0.84483 0.97686 0.5534 0.0
H284 H 0.77265 0.01595 0.57245 0.0
H285 H 0.75045 0.96275 0.48009 0.0
H286 H 0.76095 0.928 0.45005 0.0
H287 H 0.88549 0.95873 0.46099 0.0
H288 H 0.87444 0.99399 0.49007 0.0
H289 H 0.86305 0.07584 0.48086 0.0
H290 H 0.86401 0.11368 0.45539 0.0
H291 H 0.74187 0.10235 0.47474 0.0
H292 H 0.74145 0.06503 0.50049 0.0
H293 H 0.81972 0.02717 0.46997 0.0
H294 H 0.84223 0.08536 0.55212 0.0
H295 H 0.83248 0.12118 0.58075 0.0
H296 H 0.71155 0.08156 0.59259 0.0
H297 H 0.72155 0.0456 0.56397 0.0
C298 C 0.78375 0.97403 0.54731 0.0
C299 C 0.74567 0.95857 0.54951 0.0
C300 C 0.73918 0.93418 0.55847 0.0
C301 C 0.77068 0.92503 0.56575 0.0
C302 C 0.80873 0.94092 0.56461 0.0
C303 C 0.81522 0.96519 0.55523 0.0
C304 C 0.79073 0.99848 0.53399 0.0
C305 C 0.78279 0.01844 0.55006 0.0
C306 C 0.80492 0.00186 0.50511 0.0
C307 C 0.81169 0.98089 0.48706 0.0
C308 C 0.77997 0.96194 0.47591 0.0
C309 C 0.78609 0.94196 0.45901 0.0
C310 C 0.82413 0.94042 0.45313 0.0
C311 C 0.85585 0.95944 0.46468 0.0
C312 C 0.84965 0.97957 0.48136 0.0
C313 C 0.80233 0.06781 0.4929 0.0
C314 C 0.83657 0.08161 0.47963 0.0
C315 C 0.837 0.10317 0.46499 0.0
C316 C 0.80306 0.11118 0.46313 0.0
C317 C 0.76876 0.0971 0.47626 0.0
C318 C 0.76842 0.07568 0.49094 0.0
C319 C 0.80134 0.04481 0.50828 0.0
C320 C 0.81024 0.02497 0.49255 0.0
C321 C 0.78852 0.04171 0.53763 0.0
C322 C 0.78258 0.06289 0.55592 0.0
C323 C 0.81366 0.08436 0.56099 0.0
C324 C 0.8081 0.10474 0.57741 0.0
C325 C 0.77126 0.10411 0.58885 0.0
C326 C 0.74017 0.08256 0.58384 0.0
C327 C 0.74589 0.062 0.56772 0.0
H328 H 0.49117 0.36195 0.9717 0.0
H329 H 0.46225 0.37472 0.92852 0.0
H330 H 0.41649 0.29759 0.89972 0.0
H331 H 0.44598 0.2849 0.94269 0.0
H332 H 0.45311 0.3303 0.01597 0.0
H333 H 0.55117 0.33565 0.94364 0.0
H334 H 0.58497 0.32838 0.89897 0.0
H335 H 0.55822 0.25015 0.91638 0.0
H336 H 0.5231 0.25741 0.96059 0.0
H337 H 0.52816 0.25708 0.05495 0.0
H338 H 0.56538 0.24987 0.09708 0.0
H339 H 0.5984 0.32873 0.11987 0.0
H340 H 0.56159 0.33582 0.07774 0.0
H341 H 0.55556 0.28597 0.0077 0.0
H342 H 0.46407 0.28302 0.08437 0.0
H343 H 0.44012 0.29338 0.13206 0.0
H344 H 0.4578 0.36937 0.10708 0.0
H345 H 0.48383 0.35919 0.06008 0.0
C346 C 0.4708 0.3225 0.96027 0.0
C347 C 0.4749 0.34781 0.95607 0.0
C348 C 0.45854 0.35508 0.93142 0.0
C349 C 0.4371 0.33712 0.91092 0.0
C350 C 0.43264 0.31177 0.91535 0.0
C351 C 0.4496 0.30453 0.93974 0.0
C352 C 0.48839 0.31494 0.98636 0.0
C353 C 0.47574 0.32078 0.01423 0.0
C354 C 0.51708 0.30189 0.98391 0.0
C355 C 0.5342 0.29703 0.95533 0.0
C356 C 0.55166 0.31682 0.93747 0.0
C357 C 0.57144 0.31268 0.91212 0.0
C358 C 0.57455 0.28871 0.90424 0.0
C359 C 0.55606 0.26878 0.92169 0.0
C360 C 0.53619 0.27293 0.94705 0.0
C361 C 0.5419 0.29695 0.06336 0.0
C362 C 0.54335 0.27277 0.06911 0.0
C363 C 0.56441 0.26866 0.09323 0.0
C364 C 0.58485 0.28875 0.11168 0.0
C365 C 0.58324 0.31293 0.10586 0.0
C366 C 0.56198 0.31698 0.08195 0.0
C367 C 0.52063 0.30156 0.03737 0.0
C368 C 0.53249 0.29512 0.00948 0.0
C369 C 0.49138 0.31419 0.03982 0.0
C370 C 0.47623 0.32038 0.06872 0.0
C371 C 0.46334 0.302 0.08932 0.0
C372 C 0.44916 0.30789 0.11648 0.0
C373 C 0.44699 0.33223 0.12347 0.0
C374 C 0.45962 0.35054 0.10267 0.0
C375 C 0.47412 0.34468 0.07561 0.0
H376 H 0.16667 0.39315 0.33289 0.0
H377 H 0.27292 0.44762 0.36084 0.0
H378 H 0.23671 0.47806 0.37179 0.0
H379 H 0.17573 0.49008 0.37031 0.0
H380 H 0.0693 0.43549 0.34303 0.0
H381 H 0.1049 0.40435 0.33464 0.0
C382 C 0.18191 0.4116 0.3416 0.0
C383 C 0.22253 0.4181 0.34582 0.0
C384 C 0.16095 0.4291 0.34769 0.0
C385 C 0.2417 0.44209 0.35729 0.0
C386 C 0.22103 0.45956 0.36349 0.0
C387 C 0.16014 0.47127 0.36304 0.0
C388 C 0.1199 0.46525 0.3571 0.0
C389 C 0.18075 0.45339 0.35836 0.0
C390 C 0.10037 0.44081 0.34727 0.0
C391 C 0.12067 0.42292 0.34261 0.0
H392 H 0.22479 0.75426 0.66014 0.0
H393 H 0.316 0.71826 0.64459 0.0
H394 H 0.26745 0.67862 0.63424 0.0
H395 H 0.1994 0.65361 0.63277 0.0
H396 H 0.1078 0.68926 0.648 0.0
H397 H 0.15627 0.72953 0.65563 0.0
C398 C 0.23407 0.7378 0.65422 0.0
C399 C 0.27404 0.73925 0.65334 0.0
C400 C 0.20595 0.71492 0.64853 0.0
C401 C 0.28548 0.71771 0.64557 0.0
C402 C 0.25772 0.69498 0.63969 0.0
C403 C 0.18993 0.67023 0.63721 0.0
C404 C 0.14997 0.66834 0.63991 0.0
C405 C 0.21791 0.6933 0.64153 0.0
C406 C 0.13837 0.69008 0.64622 0.0
C407 C 0.16607 0.71315 0.65044 0.0
H408 H 0.939 0.75004 0.31898 0.0
H409 H 0.81904 0.70598 0.31313 0.0
H410 H 0.83808 0.66903 0.32604 0.0
H411 H 0.88902 0.64906 0.33847 0.0
H412 H 0.00875 0.69337 0.3447 0.0
H413 H 0.98953 0.73038 0.33246 0.0
C414 C 0.91698 0.73237 0.32054 0.0
C415 C 0.87767 0.73079 0.31497 0.0
C416 C 0.92809 0.71122 0.32814 0.0
C417 C 0.84952 0.70775 0.3173 0.0
C418 C 0.86038 0.68658 0.32465 0.0
C419 C 0.91086 0.66682 0.33706 0.0
C420 C 0.95023 0.66845 0.34252 0.0
C421 C 0.8996 0.68807 0.33 0.0
C422 C 0.97819 0.69166 0.34095 0.0
C423 C 0.96726 0.71281 0.33378 0.0
H424 H 0.77971 0.34861 0.65664 0.0
H425 H 0.87562 0.32066 0.68133 0.0
H426 H 0.92182 0.36007 0.6691 0.0
H427 H 0.93456 0.40376 0.65543 0.0
H428 H 0.83816 0.43232 0.63413 0.0
H429 H 0.79252 0.39142 0.64093 0.0
C430 C 0.81075 0.35097 0.65889 0.0
C431 C 0.82419 0.33173 0.66989 0.0
C432 C 0.83703 0.37391 0.65271 0.0
C433 C 0.8645 0.33521 0.67298 0.0
C434 C 0.89094 0.35776 0.66606 0.0
C435 C 0.9036 0.40084 0.65188 0.0
C436 C 0.88961 0.42092 0.64438 0.0
C437 C 0.87749 0.37743 0.65653 0.0
C438 C 0.84945 0.4171 0.64015 0.0
C439 C 0.82341 0.39375 0.64399 0.0
H440 H 0.23375 0.25534 0.3772 0.0
H441 H 0.35055 0.29821 0.40098 0.0
H442 H 0.35904 0.26387 0.42902 0.0
H443 H 0.33354 0.22139 0.44639 0.0
H444 H 0.21672 0.17872 0.42265 0.0
H445 H 0.20795 0.21329 0.39517 0.0
C446 C 0.26104 0.25723 0.38858 0.0
C447 C 0.29147 0.27932 0.38691 0.0
C448 C 0.26575 0.23741 0.40468 0.0
C449 C 0.32661 0.28143 0.40188 0.0
C450 C 0.33154 0.26177 0.41789 0.0
C451 C 0.30627 0.21964 0.43503 0.0
C452 C 0.27586 0.19752 0.43651 0.0
C453 C 0.30139 0.23962 0.41931 0.0
C454 C 0.24046 0.19564 0.42207 0.0
C455 C 0.23547 0.21536 0.40625 0.0
H456 H 0.36638 0.86964 0.7961 0.0
H457 H 0.44522 0.83455 0.75103 0.0
H458 H 0.48559 0.84018 0.79498 0.0
H459 H 0.49657 0.85273 0.84691 0.0
H460 H 0.41672 0.88624 0.89299 0.0
H461 H 0.37915 0.88399 0.84785 0.0
C462 C 0.39263 0.86349 0.7958 0.0
C463 C 0.40256 0.85154 0.77032 0.0
C464 C 0.4155 0.86642 0.82136 0.0
C465 C 0.43667 0.84364 0.77036 0.0
C466 C 0.45981 0.84683 0.7955 0.0
C467 C 0.47086 0.85947 0.84711 0.0
C468 C 0.45923 0.86938 0.87335 0.0
C469 C 0.4491 0.85774 0.82126 0.0
C470 C 0.42641 0.87861 0.87307 0.0
C471 C 0.40478 0.87719 0.8473 0.0
H472 H 0.86397 0.86664 0.35702 0.0
H473 H 0.76122 0.81683 0.3931 0.0
H474 H 0.75798 0.84866 0.43072 0.0
H475 H 0.78156 0.89154 0.45108 0.0
H476 H 0.88103 0.94234 0.41206 0.0
H477 H 0.8888 0.90905 0.37841 0.0
C478 C 0.84122 0.86259 0.37339 0.0
C479 C 0.81284 0.8394 0.37222 0.0
C480 C 0.83884 0.88122 0.3944 0.0
C481 C 0.78334 0.83456 0.39345 0.0
C482 C 0.78141 0.85277 0.41492 0.0
C483 C 0.80485 0.89542 0.43513 0.0
C484 C 0.83048 0.91956 0.4341 0.0
C485 C 0.80847 0.87636 0.41517 0.0
C486 C 0.86107 0.92395 0.41371 0.0
C487 C 0.86538 0.90494 0.39423 0.0
H488 H 0.66121 0.25762 0.79363 0.0
H489 H 0.74705 0.32566 0.82135 0.0
H490 H 0.70573 0.33178 0.86195 0.0
H491 H 0.64563 0.31799 0.88978 0.0
H492 H 0.55876 0.25048 0.86235 0.0
H493 H 0.60024 0.24388 0.82165 0.0
C494 C 0.6709 0.27374 0.80861 0.0
C495 C 0.70722 0.29114 0.8044 0.0
C496 C 0.64683 0.27727 0.83197 0.0
C497 C 0.71926 0.31197 0.82399 0.0
C498 C 0.69563 0.31552 0.84725 0.0
C499 C 0.63548 0.30199 0.87468 0.0
C500 C 0.59903 0.28485 0.879 0.0
C501 C 0.65935 0.29837 0.85138 0.0
C502 C 0.5868 0.26389 0.85962 0.0
C503 C 0.61044 0.26015 0.83629 0.0
H504 H 0.25243 0.90785 0.65116 0.0
H505 H 0.37742 0.92289 0.64825 0.0
H506 H 0.38212 0.9605 0.6214 0.0
H507 H 0.35071 0.98926 0.59938 0.0
H508 H 0.22502 0.97161 0.5979 0.0
H509 H 0.22078 0.93524 0.62635 0.0
C510 C 0.28068 0.91943 0.64471 0.0
C511 C 0.31454 0.91275 0.65183 0.0
C512 C 0.28308 0.94065 0.62864 0.0
C513 C 0.35094 0.92767 0.64297 0.0
C514 C 0.35364 0.94918 0.62767 0.0
C515 C 0.32229 0.97733 0.60477 0.0
C516 C 0.28831 0.98359 0.59659 0.0
C517 C 0.31988 0.95583 0.62034 0.0
C518 C 0.25185 0.96787 0.60443 0.0
C519 C 0.24929 0.94683 0.62052 0.0
H520 H 0.67884 0.82964 0.2405 0.0
H521 H 0.7483 0.78743 0.1959 0.0
H522 H 0.72645 0.79754 0.14851 0.0
H523 H 0.68844 0.81904 0.1198 0.0
H524 H 0.61772 0.86014 0.16499 0.0
H525 H 0.63989 0.85013 0.21207 0.0
C526 C 0.68922 0.82259 0.22045 0.0
C527 C 0.71524 0.80782 0.22179 0.0
C528 C 0.67658 0.82847 0.19335 0.0
C529 C 0.72823 0.79881 0.19553 0.0
C530 C 0.71581 0.80463 0.16841 0.0
C531 C 0.67762 0.82564 0.13994 0.0
C532 C 0.65166 0.84051 0.13874 0.0
C533 C 0.69007 0.81952 0.16706 0.0
C534 C 0.63832 0.84912 0.16514 0.0
C535 C 0.65072 0.84322 0.19213 0.0
H536 H 0.7724 0.19901 0.66931 0.0
H537 H 0.67222 0.19647 0.61567 0.0
H538 H 0.67904 0.15881 0.58959 0.0
H539 H 0.71427 0.12696 0.58139 0.0
H540 H 0.81565 0.13047 0.63395 0.0
H541 H 0.80761 0.1674 0.66107 0.0
C542 C 0.75196 0.19018 0.65198 0.0
C543 C 0.7218 0.20053 0.64451 0.0
C544 C 0.75632 0.16872 0.63685 0.0
C545 C 0.69574 0.18893 0.62185 0.0
C546 C 0.69959 0.16737 0.60693 0.0
C547 C 0.73433 0.13572 0.59897 0.0
C548 C 0.76543 0.12602 0.60575 0.0
C549 C 0.72982 0.15714 0.61419 0.0
C550 C 0.79163 0.13772 0.62826 0.0
C551 C 0.78699 0.15878 0.64379 0.0
H552 H 0.39671 0.37499 0.24332 0.0
H553 H 0.31085 0.30334 0.23914 0.0
H554 H 0.33834 0.29249 0.19305 0.0
H555 H 0.38545 0.30375 0.15325 0.0
H556 H 0.47287 0.37474 0.1583 0.0
H557 H 0.44559 0.38554 0.2045 0.0
C558 C 0.38401 0.35698 0.23237 0.0
C559 C 0.35164 0.34006 0.24466 0.0
C560 C 0.40005 0.35078 0.20591 0.0
C561 C 0.33577 0.31674 0.23022 0.0
C562 C 0.35142 0.31051 0.20381 0.0
C563 C 0.39895 0.32145 0.16462 0.0
C564 C 0.43111 0.33842 0.15215 0.0
C565 C 0.38345 0.32743 0.19139 0.0
C566 C 0.4477 0.36146 0.16706 0.0
C567 C 0.43228 0.3676 0.19361 0.0
H568 H 0.83404 0.68436 0.57445 0.0
H569 H 0.83525 0.70383 0.66707 0.0
H570 H 0.88093 0.67949 0.6757 0.0
H571 H 0.91767 0.65079 0.65741 0.0
H572 H 0.91489 0.63029 0.56506 0.0
H573 H 0.87332 0.65726 0.55584 0.0
C574 C 0.84455 0.68348 0.5965 0.0
C575 C 0.83099 0.6958 0.62009 0.0
C576 C 0.87055 0.66923 0.60138 0.0
C577 C 0.84504 0.69448 0.6485 0.0
C578 C 0.87114 0.68052 0.65349 0.0
C579 C 0.90794 0.65221 0.63526 0.0
C580 C 0.91922 0.6384 0.612 0.0
C581 C 0.88356 0.66748 0.63017 0.0
C582 C 0.90697 0.64085 0.58335 0.0
C583 C 0.88294 0.65614 0.57808 0.0
H584 H 0.79976 0.3613 0.34435 0.0
H585 H 0.90021 0.33406 0.35664 0.0
H586 H 0.9401 0.37653 0.36835 0.0
H587 H 0.94748 0.42182 0.37097 0.0
H588 H 0.84674 0.4485 0.35772 0.0
H589 H 0.80599 0.40578 0.35039 0.0
C590 C 0.83031 0.36454 0.34986 0.0
C591 C 0.84699 0.34449 0.34935 0.0
C592 C 0.85312 0.38897 0.35613 0.0
C593 C 0.88658 0.34912 0.35678 0.0
C594 C 0.90946 0.37343 0.36337 0.0
C595 C 0.91649 0.41823 0.36698 0.0
C596 C 0.90022 0.43831 0.36461 0.0
C597 C 0.8932 0.39356 0.36253 0.0
C598 C 0.86007 0.43338 0.35917 0.0
C599 C 0.83672 0.40897 0.35508 0.0
H600 H 0.1452 0.37765 0.70621 0.0
H601 H 0.25744 0.42656 0.68483 0.0
H602 H 0.22678 0.45879 0.67245 0.0
H603 H 0.16805 0.47298 0.66713 0.0
H604 H 0.05568 0.42371 0.68737 0.0
H605 H 0.08651 0.3919 0.70107 0.0
C606 C 0.16301 0.39539 0.69896 0.0
C607 C 0.20359 0.39963 0.69644 0.0
C608 C 0.14516 0.41382 0.69169 0.0
C609 C 0.22615 0.42274 0.68695 0.0
C610 C 0.20864 0.44121 0.67984 0.0
C611 C 0.15026 0.45521 0.67431 0.0
C612 C 0.10958 0.45078 0.67618 0.0
C613 C 0.16815 0.4369 0.68194 0.0
C614 C 0.08707 0.42777 0.68604 0.0
C615 C 0.10467 0.4095 0.69373 0.0
H616 H 0.24094 0.75022 0.27781 0.0
H617 H 0.23535 0.78401 0.36397 0.0
H618 H 0.19133 0.74502 0.37993 0.0
H619 H 0.15414 0.70126 0.36916 0.0
H620 H 0.16028 0.66808 0.28276 0.0
H621 H 0.20425 0.70699 0.26711 0.0
C622 C 0.23015 0.74913 0.3001 0.0
C623 C 0.24148 0.77002 0.31966 0.0
C624 C 0.20487 0.72675 0.30907 0.0
C625 C 0.22708 0.76821 0.34845 0.0
C626 C 0.20194 0.74592 0.3576 0.0
C627 C 0.16537 0.70255 0.34699 0.0
C628 C 0.15388 0.68184 0.32713 0.0
C629 C 0.19067 0.72504 0.33809 0.0
C630 C 0.16828 0.68384 0.29836 0.0
C631 C 0.19357 0.70604 0.28942 0.0
H632 H 0.73034 0.80844 0.57484 0.0
H633 H 0.8003 0.82994 0.65326 0.0
H634 H 0.80995 0.87396 0.6436 0.0
H635 H 0.79912 0.90639 0.6122 0.0
H636 H 0.72754 0.88442 0.53459 0.0
H637 H 0.71784 0.84055 0.54452 0.0
C638 C 0.74772 0.82279 0.5898 0.0
C639 C 0.76438 0.81601 0.61481 0.0
C640 C 0.75283 0.84796 0.58421 0.0
C641 C 0.78659 0.83473 0.63414 0.0
C642 C 0.79234 0.85988 0.6285 0.0
C643 C 0.78141 0.89193 0.59754 0.0
C644 C 0.76401 0.89856 0.57274 0.0
C645 C 0.77565 0.86672 0.60356 0.0
C646 C 0.74087 0.87973 0.55398 0.0
C647 C 0.73549 0.85467 0.55956 0.0
H648 H 0.66145 0.26265 0.22618 0.0
H649 H 0.7555 0.32432 0.19886 0.0
H650 H 0.71847 0.32795 0.15554 0.0
H651 H 0.65855 0.31492 0.1263 0.0
H652 H 0.56409 0.25345 0.15291 0.0
H653 H 0.60222 0.24827 0.19539 0.0
C654 C 0.67395 0.27675 0.21064 0.0
C655 C 0.71113 0.29328 0.21595 0.0
C656 C 0.65238 0.27885 0.18566 0.0
C657 C 0.72691 0.3114 0.19548 0.0
C658 C 0.70573 0.31355 0.17066 0.0
C659 C 0.64628 0.30044 0.14146 0.0
C660 C 0.60846 0.28476 0.13667 0.0
C661 C 0.66828 0.29762 0.16574 0.0
C662 C 0.59321 0.26573 0.15613 0.0
C663 C 0.61493 0.26283 0.18046 0.0
H664 H 0.28392 0.25916 0.68636 0.0
H665 H 0.31641 0.30877 0.61499 0.0
H666 H 0.31174 0.27315 0.58075 0.0
H667 H 0.30049 0.22792 0.57147 0.0
H668 H 0.26958 0.17888 0.64352 0.0
H669 H 0.27113 0.2143 0.67701 0.0
C670 C 0.28983 0.26224 0.6633 0.0
C671 C 0.30069 0.28662 0.65331 0.0
C672 C 0.28735 0.24176 0.64383 0.0
C673 C 0.30805 0.2902 0.6233 0.0
C674 C 0.30546 0.26984 0.60371 0.0
C675 C 0.29422 0.22502 0.59452 0.0
C676 C 0.28492 0.20076 0.60494 0.0
C677 C 0.29555 0.24555 0.6138 0.0
C678 C 0.27631 0.19728 0.63481 0.0
C679 C 0.27745 0.21755 0.65404 0.0
H680 H 0.37963 0.87612 0.22187 0.0
H681 H 0.46983 0.85469 0.26771 0.0
H682 H 0.50785 0.8575 0.22278 0.0
H683 H 0.51365 0.86347 0.16969 0.0
H684 H 0.42401 0.88541 0.12403 0.0
H685 H 0.38772 0.88512 0.16969 0.0
C686 C 0.40776 0.87228 0.22213 0.0
C687 C 0.42164 0.86499 0.2481 0.0
C688 C 0.42949 0.87388 0.19619 0.0
C689 C 0.45836 0.86031 0.24806 0.0
C690 C 0.48009 0.8618 0.22232 0.0
C691 C 0.4862 0.86824 0.16984 0.0
C692 C 0.4713 0.87425 0.14358 0.0
C693 C 0.46561 0.86811 0.19615 0.0
C694 C 0.43607 0.8808 0.14404 0.0
C695 C 0.41526 0.88054 0.17009 0.0
H696 H 0.77831 0.20746 0.4079 0.0
H697 H 0.85349 0.18862 0.34177 0.0
H698 H 0.85865 0.15337 0.36966 0.0
H699 H 0.83963 0.12687 0.41183 0.0
H700 H 0.76619 0.14667 0.47872 0.0
H701 H 0.76228 0.18237 0.45136 0.0
C702 C 0.79592 0.19569 0.39961 0.0
C703 C 0.81529 0.20062 0.37269 0.0
C704 C 0.7989 0.1755 0.41581 0.0
C705 C 0.83824 0.18527 0.36241 0.0
C706 C 0.84116 0.16507 0.37833 0.0
C707 C 0.82325 0.13919 0.42068 0.0
C708 C 0.80295 0.13387 0.44722 0.0
C709 C 0.82138 0.15989 0.40495 0.0
C710 C 0.78148 0.14995 0.45809 0.0
C711 C 0.7794 0.17049 0.44253 0.0
H712 H 0.39198 0.375 0.79164 0.0
H713 H 0.28036 0.32494 0.81235 0.0
H714 H 0.30649 0.31625 0.85867 0.0
H715 H 0.36233 0.3205 0.89175 0.0
H716 H 0.47349 0.371 0.87162 0.0
H717 H 0.44629 0.38192 0.82666 0.0
C718 C 0.3732 0.36242 0.80643 0.0
C719 C 0.33434 0.35049 0.79833 0.0
C720 C 0.38846 0.35739 0.83303 0.0
C721 C 0.31039 0.33439 0.81793 0.0
C722 C 0.32536 0.32927 0.8444 0.0
C723 C 0.38046 0.33393 0.87749 0.0
C724 C 0.41987 0.34476 0.88472 0.0
C725 C 0.36455 0.34024 0.85186 0.0
C726 C 0.44303 0.36246 0.86643 0.0
C727 C 0.42753 0.36864 0.84073 0.0
H728 H 0.30208 0.90833 0.37468 0.0
H729 H 0.4195 0.92365 0.40807 0.0
H730 H 0.41259 0.96115 0.43436 0.0
H731 H 0.37303 0.98942 0.44828 0.0
H732 H 0.25536 0.97383 0.41554 0.0
H733 H 0.26242 0.93649 0.38879 0.0
C734 C 0.3262 0.91989 0.38765 0.0
C735 C 0.36129 0.9132 0.38933 0.0
C736 C 0.32194 0.94134 0.40292 0.0
C737 C 0.39216 0.92834 0.40639 0.0
C738 C 0.38826 0.94981 0.42144 0.0
C739 C 0.34906 0.97795 0.43508 0.0
C740 C 0.31377 0.98441 0.43382 0.0
C741 C 0.35328 0.95648 0.41987 0.0
C742 C 0.28272 0.96914 0.41705 0.0
C743 C 0.2868 0.94786 0.40165 0.0
H744 H 0.65818 0.84537 0.756 0.0
H745 H 0.75103 0.81726 0.78717 0.0
H746 H 0.73355 0.82491 0.83779 0.0
H747 H 0.6909 0.83868 0.87333 0.0
H748 H 0.59794 0.86653 0.84204 0.0
H749 H 0.61668 0.86007 0.79141 0.0
C750 C 0.67472 0.84099 0.77383 0.0
C751 C 0.70578 0.83066 0.76772 0.0
C752 C 0.6645 0.8454 0.80292 0.0
C753 C 0.72696 0.82521 0.79118 0.0
C754 C 0.71695 0.82953 0.82017 0.0
C755 C 0.67472 0.84326 0.85539 0.0
C756 C 0.64312 0.85308 0.86143 0.0
C757 C 0.68558 0.83943 0.82631 0.0
C758 C 0.62269 0.85922 0.83799 0.0
C759 C 0.63323 0.8554 0.80903 0.0
loop_
_geom_bond_atom_site_label_1
_geom_bond_atom_site_label_2
_geom_bond_distance
_geom_bond_site_symmetry_2
_ccdc_geom_bond_type
O0 Cd1 2.300 . S
O0 C7 1.275 . S
Cd1 O0 2.300 . S
Cd1 O9 2.381 . S
Cd1 O10 2.378 . S
O2 Cd3 2.385 . S
O2 C7 1.255 . S
Cd3 O2 2.385 . S
Cd3 O4 2.317 . S
O4 Cd3 2.317 . S
O4 C5 1.232 . S
C5 O4 1.232 . S
C5 O6 1.218 . S
O6 C5 1.218 . S
C7 O0 1.275 . S
C7 O2 1.255 . S
C8 O9 1.258 . S
C8 O10 1.256 . S
O9 Cd1 2.381 . S
O9 C8 1.258 . S
O10 Cd1 2.378 . S
O10 C8 1.256 . S
O11 Cd12 2.300 . S
O11 C18 1.275 . S
Cd12 O11 2.300 . S
Cd12 O20 2.381 . S
Cd12 O21 2.378 . S
O13 Cd14 2.385 . S
O13 C18 1.255 . S
Cd14 O13 2.385 . S
Cd14 O15 2.317 . S
O15 Cd14 2.317 . S
O15 C16 1.232 . S
C16 O15 1.232 . S
C16 O17 1.218 . S
O17 C16 1.218 . S
C18 O11 1.275 . S
C18 O13 1.255 . S
C19 O20 1.258 . S
C19 O21 1.256 . S
O20 Cd12 2.381 . S
O20 C19 1.258 . S
O21 Cd12 2.378 . S
O21 C19 1.256 . S
O22 Cd23 2.300 . S
O22 C29 1.275 . S
Cd23 O22 2.300 . S
Cd23 O31 2.381 . S
Cd23 O32 2.378 . S
O24 Cd25 2.385 . S
O24 C29 1.255 . S
Cd25 O24 2.385 . S
Cd25 O26 2.317 . S
O26 Cd25 2.317 . S
O26 C27 1.232 . S
C27 O26 1.232 . S
C27 O28 1.218 . S
O28 C27 1.218 . S
C29 O22 1.275 . S
C29 O24 1.255 . S
C30 O31 1.258 . S
C30 O32 1.256 . S
O31 Cd23 2.381 . S
O31 C30 1.258 . S
O32 Cd23 2.378 . S
O32 C30 1.256 . S
O33 Cd34 2.300 . S
O33 C40 1.275 . S
Cd34 O33 2.300 . S
Cd34 O42 2.381 . S
Cd34 O43 2.378 . S
O35 Cd36 2.385 . S
O35 C40 1.255 . S
Cd36 O35 2.385 . S
Cd36 O37 2.317 . S
O37 Cd36 2.317 . S
O37 C38 1.232 . S
C38 O37 1.232 . S
C38 O39 1.218 . S
O39 C38 1.218 . S
C40 O33 1.275 . S
C40 O35 1.255 . S
C41 O42 1.258 . S
C41 O43 1.256 . S
O42 Cd34 2.381 . S
O42 C41 1.258 . S
O43 Cd34 2.378 . S
O43 C41 1.256 . S
O44 Cd45 2.300 . S
O44 C51 1.275 . S
Cd45 O44 2.300 . S
Cd45 O53 2.381 . S
Cd45 O54 2.378 . S
O46 Cd47 2.385 . S
O46 C51 1.255 . S
Cd47 O46 2.385 . S
Cd47 O48 2.317 . S
O48 Cd47 2.317 . S
O48 C49 1.232 . S
C49 O48 1.232 . S
C49 O50 1.218 . S
O50 C49 1.218 . S
C51 O44 1.275 . S
C51 O46 1.255 . S
C52 O53 1.258 . S
C52 O54 1.256 . S
O53 Cd45 2.381 . S
O53 C52 1.258 . S
O54 Cd45 2.378 . S
O54 C52 1.256 . S
O55 Cd56 2.300 . S
O55 C62 1.275 . S
Cd56 O55 2.300 . S
Cd56 O64 2.381 . S
Cd56 O65 2.378 . S
O57 Cd58 2.385 . S
O57 C62 1.255 . S
Cd58 O57 2.385 . S
Cd58 O59 2.317 . S
O59 Cd58 2.317 . S
O59 C60 1.232 . S
C60 O59 1.232 . S
C60 O61 1.218 . S
O61 C60 1.218 . S
C62 O55 1.275 . S
C62 O57 1.255 . S
C63 O64 1.258 . S
C63 O65 1.256 . S
O64 Cd56 2.381 . S
O64 C63 1.258 . S
O65 Cd56 2.378 . S
O65 C63 1.256 . S
O66 Cd67 2.300 . S
O66 C73 1.275 . S
Cd67 O66 2.300 . S
Cd67 O75 2.381 . S
Cd67 O76 2.378 . S
O68 Cd69 2.385 . S
O68 C73 1.255 . S
Cd69 O68 2.385 . S
Cd69 O70 2.317 . S
O70 Cd69 2.317 . S
O70 C71 1.232 . S
C71 O70 1.232 . S
C71 O72 1.218 . S
O72 C71 1.218 . S
C73 O66 1.275 . S
C73 O68 1.255 . S
C74 O75 1.258 . S
C74 O76 1.256 . S
O75 Cd67 2.381 . S
O75 C74 1.258 . S
O76 Cd67 2.378 . S
O76 C74 1.256 . S
O77 Cd78 2.300 . S
O77 C84 1.275 . S
Cd78 O77 2.300 . S
Cd78 O86 2.381 . S
Cd78 O87 2.378 . S
O79 Cd80 2.385 . S
O79 C84 1.255 . S
Cd80 O79 2.385 . S
Cd80 O81 2.317 . S
O81 Cd80 2.317 . S
O81 C82 1.232 . S
C82 O81 1.232 . S
C82 O83 1.218 . S
O83 C82 1.218 . S
C84 O77 1.275 . S
C84 O79 1.255 . S
C85 O86 1.258 . S
C85 O87 1.256 . S
O86 Cd78 2.381 . S
O86 C85 1.258 . S
O87 Cd78 2.378 . S
O87 C85 1.256 . S
H88 C107 0.949 . S
H89 C108 0.950 . S
H90 C110 0.950 . S
H91 C111 0.950 . S
H92 C113 0.950 1_655 S
H93 C116 0.950 . S
H94 C117 0.950 . S
H95 C119 0.951 . S
H96 C120 0.949 . S
H97 C122 0.949 . S
H98 C123 0.950 . S
H99 C125 0.950 . S
H100 C126 0.950 . S
H101 C128 0.950 . S
H102 C131 0.950 . S
H103 C132 0.950 . S
H104 C134 0.951 . S
H105 C135 0.949 . S
C106 C107 1.376 1_455 S
C106 C111 1.386 . S
C106 C112 1.483 . S
C107 H88 0.949 . S
C107 C106 1.376 1_655 S
C107 C108 1.397 . S
C108 H89 0.950 . S
C108 C107 1.397 . S
C108 C109 1.391 . S
C109 C108 1.391 . S
C109 C110 1.405 . S
C110 H90 0.950 . S
C110 C109 1.405 . S
C110 C111 1.367 1_655 S
C111 H91 0.950 . S
C111 C106 1.386 . S
C111 C110 1.367 1_455 S
C112 C106 1.483 . S
C112 C113 1.382 . S
C112 C114 1.403 . S
C113 H92 0.950 1_455 S
C113 C112 1.382 . S
C113 C129 1.411 . S
C114 C112 1.403 . S
C114 C115 1.489 . S
C114 C128 1.411 . S
C115 C114 1.489 . S
C115 C116 1.383 . S
C115 C120 1.382 . S
C116 H93 0.950 . S
C116 C115 1.383 . S
C116 C117 1.395 . S
C117 H94 0.950 . S
C117 C116 1.395 . S
C117 C118 1.288 . S
C118 C117 1.288 . S
C118 C119 1.392 . S
C119 H95 0.951 . S
C119 C118 1.392 . S
C119 C120 1.392 . S
C120 H96 0.949 . S
C120 C115 1.382 . S
C120 C119 1.392 . S
C121 C122 1.376 . S
C121 C126 1.386 . S
C121 C127 1.483 . S
C122 H97 0.949 . S
C122 C121 1.376 . S
C122 C123 1.397 . S
C123 H98 0.950 . S
C123 C122 1.397 . S
C123 C124 1.391 . S
C124 C123 1.391 . S
C124 C125 1.405 . S
C125 H99 0.950 . S
C125 C124 1.405 . S
C125 C126 1.367 . S
C126 H100 0.950 . S
C126 C121 1.386 . S
C126 C125 1.367 . S
C127 C121 1.483 . S
C127 C128 1.382 . S
C127 C129 1.403 . S
C128 H101 0.950 . S
C128 C114 1.411 . S
C128 C127 1.382 . S
C129 C113 1.411 . S
C129 C127 1.403 . S
C129 C130 1.489 . S
C130 C129 1.489 . S
C130 C131 1.383 . S
C130 C135 1.382 1_455 S
C131 H102 0.950 . S
C131 C130 1.383 . S
C131 C132 1.395 1_455 S
C132 H103 0.950 . S
C132 C131 1.395 1_655 S
C132 C133 1.288 . S
C133 C132 1.288 . S
C133 C134 1.392 . S
C134 H104 0.951 . S
C134 C133 1.392 . S
C134 C135 1.392 . S
C135 H105 0.949 . S
C135 C130 1.382 1_655 S
C135 C134 1.392 . S
H136 C155 0.949 . S
H137 C156 0.950 . S
H138 C158 0.950 . S
H139 C159 0.950 . S
H140 C161 0.950 . S
H141 C164 0.950 . S
H142 C165 0.950 . S
H143 C167 0.951 . S
H144 C168 0.949 . S
H145 C170 0.949 . S
H146 C171 0.950 . S
H147 C173 0.950 . S
H148 C174 0.950 . S
H149 C176 0.950 . S
H150 C179 0.950 . S
H151 C180 0.950 . S
H152 C182 0.951 . S
H153 C183 0.949 . S
C154 C155 1.376 . S
C154 C159 1.386 . S
C154 C160 1.483 . S
C155 H136 0.949 . S
C155 C154 1.376 . S
C155 C156 1.397 . S
C156 H137 0.950 . S
C156 C155 1.397 . S
C156 C157 1.391 . S
C157 C156 1.391 . S
C157 C158 1.405 . S
C158 H138 0.950 . S
C158 C157 1.405 . S
C158 C159 1.367 . S
C159 H139 0.950 . S
C159 C154 1.386 . S
C159 C158 1.367 . S
C160 C154 1.483 . S
C160 C161 1.382 . S
C160 C162 1.403 1_455 S
C161 H140 0.950 . S
C161 C160 1.382 . S
C161 C177 1.411 . S
C162 C160 1.403 1_655 S
C162 C163 1.489 . S
C162 C176 1.411 . S
C163 C162 1.489 . S
C163 C164 1.383 . S
C163 C168 1.382 . S
C164 H141 0.950 . S
C164 C163 1.383 . S
C164 C165 1.395 . S
C165 H142 0.950 . S
C165 C164 1.395 . S
C165 C166 1.288 . S
C166 C165 1.288 . S
C166 C167 1.392 . S
C167 H143 0.951 . S
C167 C166 1.392 . S
C167 C168 1.392 . S
C168 H144 0.949 . S
C168 C163 1.382 . S
C168 C167 1.392 . S
C169 C170 1.376 . S
C169 C174 1.386 . S
C169 C175 1.483 . S
C170 H145 0.949 . S
C170 C169 1.376 . S
C170 C171 1.397 . S
C171 H146 0.950 . S
C171 C170 1.397 . S
C171 C172 1.391 . S
C172 C171 1.391 . S
C172 C173 1.405 . S
C173 H147 0.950 . S
C173 C172 1.405 . S
C173 C174 1.367 . S
C174 H148 0.950 . S
C174 C169 1.386 . S
C174 C173 1.367 . S
C175 C169 1.483 . S
C175 C176 1.382 . S
C175 C177 1.403 1_655 S
C176 H149 0.950 . S
C176 C162 1.411 . S
C176 C175 1.382 . S
C177 C161 1.411 . S
C177 C175 1.403 1_455 S
C177 C178 1.489 . S
C178 C177 1.489 . S
C178 C179 1.383 . S
C178 C183 1.382 . S
C179 H150 0.950 . S
C179 C178 1.383 . S
C179 C180 1.395 . S
C180 H151 0.950 . S
C180 C179 1.395 . S
C180 C181 1.288 . S
C181 C180 1.288 . S
C181 C182 1.392 . S
C182 H152 0.951 . S
C182 C181 1.392 . S
C182 C183 1.392 . S
C183 H153 0.949 . S
C183 C178 1.382 . S
C183 C182 1.392 . S
H184 C203 0.949 . S
H185 C204 0.950 . S
H186 C206 0.950 . S
H187 C207 0.950 . S
H188 C209 0.950 . S
H189 C212 0.950 . S
H190 C213 0.950 . S
H191 C215 0.951 . S
H192 C216 0.949 . S
H193 C218 0.949 . S
H194 C219 0.950 . S
H195 C221 0.950 . S
H196 C222 0.950 . S
H197 C224 0.950 . S
H198 C227 0.950 . S
H199 C228 0.950 . S
H200 C230 0.951 . S
H201 C231 0.949 . S
C202 C203 1.376 . S
C202 C207 1.386 . S
C202 C208 1.483 . S
C203 H184 0.949 . S
C203 C202 1.376 . S
C203 C204 1.397 . S
C204 H185 0.950 . S
C204 C203 1.397 . S
C204 C205 1.391 . S
C205 C204 1.391 . S
C205 C206 1.405 . S
C206 H186 0.950 . S
C206 C205 1.405 . S
C206 C207 1.367 . S
C207 H187 0.950 . S
C207 C202 1.386 . S
C207 C206 1.367 . S
C208 C202 1.483 . S
C208 C209 1.382 . S
C208 C210 1.403 . S
C209 H188 0.950 . S
C209 C208 1.382 . S
C209 C225 1.411 . S
C210 C208 1.403 . S
C210 C211 1.489 . S
C210 C224 1.411 . S
C211 C210 1.489 . S
C211 C212 1.383 . S
C211 C216 1.382 . S
C212 H189 0.950 . S
C212 C211 1.383 . S
C212 C213 1.395 . S
C213 H190 0.950 . S
C213 C212 1.395 . S
C213 C214 1.288 . S
C214 C213 1.288 . S
C214 C215 1.392 . S
C215 H191 0.951 . S
C215 C214 1.392 . S
C215 C216 1.392 . S
C216 H192 0.949 . S
C216 C211 1.382 . S
C216 C215 1.392 . S
C217 C218 1.376 . S
C217 C222 1.386 . S
C217 C223 1.483 . S
C218 H193 0.949 . S
C218 C217 1.376 . S
C218 C219 1.397 . S
C219 H194 0.950 . S
C219 C218 1.397 . S
C219 C220 1.391 . S
C220 C219 1.391 . S
C220 C221 1.405 . S
C221 H195 0.950 . S
C221 C220 1.405 . S
C221 C222 1.367 . S
C222 H196 0.950 . S
C222 C217 1.386 . S
C222 C221 1.367 . S
C223 C217 1.483 . S
C223 C224 1.382 . S
C223 C225 1.403 . S
C224 H197 0.950 . S
C224 C210 1.411 . S
C224 C223 1.382 . S
C225 C209 1.411 . S
C225 C223 1.403 . S
C225 C226 1.489 . S
C226 C225 1.489 . S
C226 C227 1.383 . S
C226 C231 1.382 . S
C227 H198 0.950 . S
C227 C226 1.383 . S
C227 C228 1.395 . S
C228 H199 0.950 . S
C228 C227 1.395 . S
C228 C229 1.288 . S
C229 C228 1.288 . S
C229 C230 1.392 . S
C230 H200 0.951 . S
C230 C229 1.392 . S
C230 C231 1.392 . S
C231 H201 0.949 . S
C231 C226 1.382 . S
C231 C230 1.392 . S
H232 C251 0.949 . S
H233 C252 0.950 . S
H234 C254 0.950 . S
H235 C255 0.950 . S
H236 C257 0.950 . S
H237 C260 0.950 . S
H238 C261 0.950 . S
H239 C263 0.951 . S
H240 C264 0.949 . S
H241 C266 0.949 . S
H242 C267 0.950 . S
H243 C269 0.950 . S
H244 C270 0.950 . S
H245 C272 0.950 . S
H246 C275 0.950 . S
H247 C276 0.950 . S
H248 C278 0.951 . S
H249 C279 0.949 . S
C250 C251 1.376 . S
C250 C255 1.386 . S
C250 C256 1.483 . S
C251 H232 0.949 . S
C251 C250 1.376 . S
C251 C252 1.397 . S
C252 H233 0.950 . S
C252 C251 1.397 . S
C252 C253 1.391 . S
C253 C252 1.391 . S
C253 C254 1.405 . S
C254 H234 0.950 . S
C254 C253 1.405 . S
C254 C255 1.367 . S
C255 H235 0.950 . S
C255 C250 1.386 . S
C255 C254 1.367 . S
C256 C250 1.483 . S
C256 C257 1.382 1_556 S
C256 C258 1.403 . S
C257 H236 0.950 . S
C257 C256 1.382 1_554 S
C257 C273 1.411 . S
C258 C256 1.403 . S
C258 C259 1.489 . S
C258 C272 1.411 1_556 S
C259 C258 1.489 . S
C259 C260 1.383 . S
C259 C264 1.382 . S
C260 H237 0.950 . S
C260 C259 1.383 . S
C260 C261 1.395 . S
C261 H238 0.950 . S
C261 C260 1.395 . S
C261 C262 1.288 . S
C262 C261 1.288 . S
C262 C263 1.392 . S
C263 H239 0.951 . S
C263 C262 1.392 . S
C263 C264 1.392 . S
C264 H240 0.949 . S
C264 C259 1.382 . S
C264 C263 1.392 . S
C265 C266 1.376 . S
C265 C270 1.386 . S
C265 C271 1.483 . S
C266 H241 0.949 . S
C266 C265 1.376 . S
C266 C267 1.397 . S
C267 H242 0.950 . S
C267 C266 1.397 . S
C267 C268 1.391 . S
C268 C267 1.391 . S
C268 C269 1.405 . S
C269 H243 0.950 . S
C269 C268 1.405 . S
C269 C270 1.367 . S
C270 H244 0.950 . S
C270 C265 1.386 . S
C270 C269 1.367 . S
C271 C265 1.483 . S
C271 C272 1.382 . S
C271 C273 1.403 . S
C272 H245 0.950 . S
C272 C258 1.411 1_554 S
C272 C271 1.382 . S
C273 C257 1.411 . S
C273 C271 1.403 . S
C273 C274 1.489 . S
C274 C273 1.489 . S
C274 C275 1.383 . S
C274 C279 1.382 . S
C275 H246 0.950 . S
C275 C274 1.383 . S
C275 C276 1.395 . S
C276 H247 0.950 . S
C276 C275 1.395 . S
C276 C277 1.288 . S
C277 C276 1.288 . S
C277 C278 1.392 . S
C278 H248 0.951 . S
C278 C277 1.392 . S
C278 C279 1.392 . S
C279 H249 0.949 . S
C279 C274 1.382 . S
C279 C278 1.392 . S
H280 C299 0.949 . S
H281 C300 0.950 . S
H282 C302 0.950 . S
H283 C303 0.950 . S
H284 C305 0.950 . S
H285 C308 0.950 . S
H286 C309 0.950 . S
H287 C311 0.951 . S
H288 C312 0.949 . S
H289 C314 0.949 . S
H290 C315 0.950 . S
H291 C317 0.950 . S
H292 C318 0.950 . S
H293 C320 0.950 . S
H294 C323 0.950 . S
H295 C324 0.950 . S
H296 C326 0.951 . S
H297 C327 0.949 . S
C298 C299 1.376 . S
C298 C303 1.386 . S
C298 C304 1.483 . S
C299 H280 0.949 . S
C299 C298 1.376 . S
C299 C300 1.397 . S
C300 H281 0.950 . S
C300 C299 1.397 . S
C300 C301 1.391 . S
C301 C300 1.391 . S
C301 C302 1.405 . S
C302 H282 0.950 . S
C302 C301 1.405 . S
C302 C303 1.367 . S
C303 H283 0.950 . S
C303 C298 1.386 . S
C303 C302 1.367 . S
C304 C298 1.483 . S
C304 C305 1.382 1_565 S
C304 C306 1.403 . S
C305 H284 0.950 . S
C305 C304 1.382 1_545 S
C305 C321 1.411 . S
C306 C304 1.403 . S
C306 C307 1.489 . S
C306 C320 1.411 1_565 S
C307 C306 1.489 . S
C307 C308 1.383 . S
C307 C312 1.382 . S
C308 H285 0.950 . S
C308 C307 1.383 . S
C308 C309 1.395 . S
C309 H286 0.950 . S
C309 C308 1.395 . S
C309 C310 1.288 . S
C310 C309 1.288 . S
C310 C311 1.392 . S
C311 H287 0.951 . S
C311 C310 1.392 . S
C311 C312 1.392 . S
C312 H288 0.949 . S
C312 C307 1.382 . S
C312 C311 1.392 . S
C313 C314 1.376 . S
C313 C318 1.386 . S
C313 C319 1.483 . S
C314 H289 0.949 . S
C314 C313 1.376 . S
C314 C315 1.397 . S
C315 H290 0.950 . S
C315 C314 1.397 . S
C315 C316 1.391 . S
C316 C315 1.391 . S
C316 C317 1.405 . S
C317 H291 0.950 . S
C317 C316 1.405 . S
C317 C318 1.367 . S
C318 H292 0.950 . S
C318 C313 1.386 . S
C318 C317 1.367 . S
C319 C313 1.483 . S
C319 C320 1.382 . S
C319 C321 1.403 . S
C320 H293 0.950 . S
C320 C306 1.411 1_545 S
C320 C319 1.382 . S
C321 C305 1.411 . S
C321 C319 1.403 . S
C321 C322 1.489 . S
C322 C321 1.489 . S
C322 C323 1.383 . S
C322 C327 1.382 . S
C323 H294 0.950 . S
C323 C322 1.383 . S
C323 C324 1.395 . S
C324 H295 0.950 . S
C324 C323 1.395 . S
C324 C325 1.288 . S
C325 C324 1.288 . S
C325 C326 1.392 . S
C326 H296 0.951 . S
C326 C325 1.392 . S
C326 C327 1.392 . S
C327 H297 0.949 . S
C327 C322 1.382 . S
C327 C326 1.392 . S
H328 C347 0.949 . S
H329 C348 0.950 . S
H330 C350 0.950 . S
H331 C351 0.950 . S
H332 C353 0.950 . S
H333 C356 0.950 . S
H334 C357 0.950 . S
H335 C359 0.951 . S
H336 C360 0.949 . S
H337 C362 0.949 . S
H338 C363 0.950 . S
H339 C365 0.950 . S
H340 C366 0.950 . S
H341 C368 0.950 . S
H342 C371 0.950 . S
H343 C372 0.950 . S
H344 C374 0.951 . S
H345 C375 0.949 . S
C346 C347 1.376 . S
C346 C351 1.386 . S
C346 C352 1.483 . S
C347 H328 0.949 . S
C347 C346 1.376 . S
C347 C348 1.397 . S
C348 H329 0.950 . S
C348 C347 1.397 . S
C348 C349 1.391 . S
C349 C348 1.391 . S
C349 C350 1.405 . S
C350 H330 0.950 . S
C350 C349 1.405 . S
C350 C351 1.367 . S
C351 H331 0.950 . S
C351 C346 1.386 . S
C351 C350 1.367 . S
C352 C346 1.483 . S
C352 C353 1.382 1_556 S
C352 C354 1.403 . S
C353 H332 0.950 . S
C353 C352 1.382 1_554 S
C353 C369 1.411 . S
C354 C352 1.403 . S
C354 C355 1.489 . S
C354 C368 1.411 1_556 S
C355 C354 1.489 . S
C355 C356 1.383 . S
C355 C360 1.382 . S
C356 H333 0.950 . S
C356 C355 1.383 . S
C356 C357 1.395 . S
C357 H334 0.950 . S
C357 C356 1.395 . S
C357 C358 1.288 . S
C358 C357 1.288 . S
C358 C359 1.392 . S
C359 H335 0.951 . S
C359 C358 1.392 . S
C359 C360 1.392 . S
C360 H336 0.949 . S
C360 C355 1.382 . S
C360 C359 1.392 . S
C361 C362 1.376 . S
C361 C366 1.386 . S
C361 C367 1.483 . S
C362 H337 0.949 . S
C362 C361 1.376 . S
C362 C363 1.397 . S
C363 H338 0.950 . S
C363 C362 1.397 . S
C363 C364 1.391 . S
C364 C363 1.391 . S
C364 C365 1.405 . S
C365 H339 0.950 . S
C365 C364 1.405 . S
C365 C366 1.367 . S
C366 H340 0.950 . S
C366 C361 1.386 . S
C366 C365 1.367 . S
C367 C361 1.483 . S
C367 C368 1.382 . S
C367 C369 1.403 . S
C368 H341 0.950 . S
C368 C354 1.411 1_554 S
C368 C367 1.382 . S
C369 C353 1.411 . S
C369 C367 1.403 . S
C369 C370 1.489 . S
C370 C369 1.489 . S
C370 C371 1.383 . S
C370 C375 1.382 . S
C371 H342 0.950 . S
C371 C370 1.383 . S
C371 C372 1.395 . S
C372 H343 0.950 . S
C372 C371 1.395 . S
C372 C373 1.288 . S
C373 C372 1.288 . S
C373 C374 1.392 . S
C374 H344 0.951 . S
C374 C373 1.392 . S
C374 C375 1.392 . S
C375 H345 0.949 . S
C375 C370 1.382 . S
C375 C374 1.392 . S
H376 C382 0.930 . S
H377 C385 0.930 . S
H378 C386 0.930 . S
H379 C387 0.930 . S
H380 C390 0.930 . S
H381 C391 0.930 . S
C382 H376 0.930 . S
C382 C383 1.355 . S
C382 C384 1.415 . S
C383 C382 1.355 . S
C383 C385 1.419 . S
C384 C382 1.415 . S
C384 C389 1.425 . S
C384 C391 1.409 . S
C385 H377 0.930 . S
C385 C383 1.419 . S
C385 C386 1.362 . S
C386 H378 0.930 . S
C386 C385 1.362 . S
C386 C389 1.409 . S
C387 H379 0.930 . S
C387 C388 1.355 . S
C387 C389 1.415 . S
C388 C387 1.355 . S
C388 C390 1.419 . S
C389 C384 1.425 . S
C389 C386 1.409 . S
C389 C387 1.415 . S
C390 H380 0.930 . S
C390 C388 1.419 . S
C390 C391 1.362 . S
C391 H381 0.930 . S
C391 C384 1.409 . S
C391 C390 1.362 . S
H392 C398 0.930 . S
H393 C401 0.930 . S
H394 C402 0.930 . S
H395 C403 0.930 . S
H396 C406 0.930 . S
H397 C407 0.930 . S
C398 H392 0.930 . S
C398 C399 1.355 . S
C398 C400 1.415 . S
C399 C398 1.355 . S
C399 C401 1.419 . S
C400 C398 1.415 . S
C400 C405 1.425 . S
C400 C407 1.409 . S
C401 H393 0.930 . S
C401 C399 1.419 . S
C401 C402 1.362 . S
C402 H394 0.930 . S
C402 C401 1.362 . S
C402 C405 1.409 . S
C403 H395 0.930 . S
C403 C404 1.355 . S
C403 C405 1.415 . S
C404 C403 1.355 . S
C404 C406 1.419 . S
C405 C400 1.425 . S
C405 C402 1.409 . S
C405 C403 1.415 . S
C406 H396 0.930 . S
C406 C404 1.419 . S
C406 C407 1.362 . S
C407 H397 0.930 . S
C407 C400 1.409 . S
C407 C406 1.362 . S
H408 C414 0.930 . S
H409 C417 0.930 . S
H410 C418 0.930 . S
H411 C419 0.930 . S
H412 C422 0.930 . S
H413 C423 0.930 . S
C414 H408 0.930 . S
C414 C415 1.355 . S
C414 C416 1.415 . S
C415 C414 1.355 . S
C415 C417 1.419 . S
C416 C414 1.415 . S
C416 C421 1.425 . S
C416 C423 1.409 . S
C417 H409 0.930 . S
C417 C415 1.419 . S
C417 C418 1.362 . S
C418 H410 0.930 . S
C418 C417 1.362 . S
C418 C421 1.409 . S
C419 H411 0.930 . S
C419 C420 1.355 . S
C419 C421 1.415 . S
C420 C419 1.355 . S
C420 C422 1.419 . S
C421 C416 1.425 . S
C421 C418 1.409 . S
C421 C419 1.415 . S
C422 H412 0.930 . S
C422 C420 1.419 . S
C422 C423 1.362 . S
C423 H413 0.930 . S
C423 C416 1.409 . S
C423 C422 1.362 . S
H424 C430 0.930 . S
H425 C433 0.930 . S
H426 C434 0.930 . S
H427 C435 0.930 . S
H428 C438 0.930 . S
H429 C439 0.930 . S
C430 H424 0.930 . S
C430 C431 1.355 . S
C430 C432 1.415 . S
C431 C430 1.355 . S
C431 C433 1.419 . S
C432 C430 1.415 . S
C432 C437 1.425 . S
C432 C439 1.409 . S
C433 H425 0.930 . S
C433 C431 1.419 . S
C433 C434 1.362 . S
C434 H426 0.930 . S
C434 C433 1.362 . S
C434 C437 1.409 . S
C435 H427 0.930 . S
C435 C436 1.355 . S
C435 C437 1.415 . S
C436 C435 1.355 . S
C436 C438 1.419 . S
C437 C432 1.425 . S
C437 C434 1.409 . S
C437 C435 1.415 . S
C438 H428 0.930 . S
C438 C436 1.419 . S
C438 C439 1.362 . S
C439 H429 0.930 . S
C439 C432 1.409 . S
C439 C438 1.362 . S
H440 C446 0.930 . S
H441 C449 0.930 . S
H442 C450 0.930 . S
H443 C451 0.930 . S
H444 C454 0.930 . S
H445 C455 0.930 . S
C446 H440 0.930 . S
C446 C447 1.355 . S
C446 C448 1.415 . S
C447 C446 1.355 . S
C447 C449 1.419 . S
C448 C446 1.415 . S
C448 C453 1.425 . S
C448 C455 1.409 . S
C449 H441 0.930 . S
C449 C447 1.419 . S
C449 C450 1.362 . S
C450 H442 0.930 . S
C450 C449 1.362 . S
C450 C453 1.409 . S
C451 H443 0.930 . S
C451 C452 1.355 . S
C451 C453 1.415 . S
C452 C451 1.355 . S
C452 C454 1.419 . S
C453 C448 1.425 . S
C453 C450 1.409 . S
C453 C451 1.415 . S
C454 H444 0.930 . S
C454 C452 1.419 . S
C454 C455 1.362 . S
C455 H445 0.930 . S
C455 C448 1.409 . S
C455 C454 1.362 . S
H456 C462 0.930 . S
H457 C465 0.930 . S
H458 C466 0.930 . S
H459 C467 0.930 . S
H460 C470 0.930 . S
H461 C471 0.930 . S
C462 H456 0.930 . S
C462 C463 1.355 . S
C462 C464 1.415 . S
C463 C462 1.355 . S
C463 C465 1.419 . S
C464 C462 1.415 . S
C464 C469 1.425 . S
C464 C471 1.409 . S
C465 H457 0.930 . S
C465 C463 1.419 . S
C465 C466 1.362 . S
C466 H458 0.930 . S
C466 C465 1.362 . S
C466 C469 1.409 . S
C467 H459 0.930 . S
C467 C468 1.355 . S
C467 C469 1.415 . S
C468 C467 1.355 . S
C468 C470 1.419 . S
C469 C464 1.425 . S
C469 C466 1.409 . S
C469 C467 1.415 . S
C470 H460 0.930 . S
C470 C468 1.419 . S
C470 C471 1.362 . S
C471 H461 0.930 . S
C471 C464 1.409 . S
C471 C470 1.362 . S
H472 C478 0.930 . S
H473 C481 0.930 . S
H474 C482 0.930 . S
H475 C483 0.930 . S
H476 C486 0.930 . S
H477 C487 0.930 . S
C478 H472 0.930 . S
C478 C479 1.355 . S
C478 C480 1.415 . S
C479 C478 1.355 . S
C479 C481 1.419 . S
C480 C478 1.415 . S
C480 C485 1.425 . S
C480 C487 1.409 . S
C481 H473 0.930 . S
C481 C479 1.419 . S
C481 C482 1.362 . S
C482 H474 0.930 . S
C482 C481 1.362 . S
C482 C485 1.409 . S
C483 H475 0.930 . S
C483 C484 1.355 . S
C483 C485 1.415 . S
C484 C483 1.355 . S
C484 C486 1.419 . S
C485 C480 1.425 . S
C485 C482 1.409 . S
C485 C483 1.415 . S
C486 H476 0.930 . S
C486 C484 1.419 . S
C486 C487 1.362 . S
C487 H477 0.930 . S
C487 C480 1.409 . S
C487 C486 1.362 . S
H488 C494 0.930 . S
H489 C497 0.930 . S
H490 C498 0.930 . S
H491 C499 0.930 . S
H492 C502 0.930 . S
H493 C503 0.930 . S
C494 H488 0.930 . S
C494 C495 1.355 . S
C494 C496 1.415 . S
C495 C494 1.355 . S
C495 C497 1.419 . S
C496 C494 1.415 . S
C496 C501 1.425 . S
C496 C503 1.409 . S
C497 H489 0.930 . S
C497 C495 1.419 . S
C497 C498 1.362 . S
C498 H490 0.930 . S
C498 C497 1.362 . S
C498 C501 1.409 . S
C499 H491 0.930 . S
C499 C500 1.355 . S
C499 C501 1.415 . S
C500 C499 1.355 . S
C500 C502 1.419 . S
C501 C496 1.425 . S
C501 C498 1.409 . S
C501 C499 1.415 . S
C502 H492 0.930 . S
C502 C500 1.419 . S
C502 C503 1.362 . S
C503 H493 0.930 . S
C503 C496 1.409 . S
C503 C502 1.362 . S
H504 C510 0.930 . S
H505 C513 0.930 . S
H506 C514 0.930 . S
H507 C515 0.930 . S
H508 C518 0.930 . S
H509 C519 0.930 . S
C510 H504 0.930 . S
C510 C511 1.355 . S
C510 C512 1.415 . S
C511 C510 1.355 . S
C511 C513 1.419 . S
C512 C510 1.415 . S
C512 C517 1.425 . S
C512 C519 1.409 . S
C513 H505 0.930 . S
C513 C511 1.419 . S
C513 C514 1.362 . S
C514 H506 0.930 . S
C514 C513 1.362 . S
C514 C517 1.409 . S
C515 H507 0.930 . S
C515 C516 1.355 1_565 S
C515 C517 1.415 . S
C516 C515 1.355 1_545 S
C516 C518 1.419 . S
C517 C512 1.425 . S
C517 C514 1.409 . S
C517 C515 1.415 . S
C518 H508 0.930 . S
C518 C516 1.419 . S
C518 C519 1.362 1_545 S
C519 H509 0.930 . S
C519 C512 1.409 . S
C519 C518 1.362 1_565 S
H520 C526 0.930 . S
H521 C529 0.930 . S
H522 C530 0.930 . S
H523 C531 0.930 . S
H524 C534 0.930 . S
H525 C535 0.930 . S
C526 H520 0.930 . S
C526 C527 1.355 . S
C526 C528 1.415 . S
C527 C526 1.355 . S
C527 C529 1.419 . S
C528 C526 1.415 . S
C528 C533 1.425 . S
C528 C535 1.409 . S
C529 H521 0.930 . S
C529 C527 1.419 . S
C529 C530 1.362 . S
C530 H522 0.930 . S
C530 C529 1.362 . S
C530 C533 1.409 . S
C531 H523 0.930 . S
C531 C532 1.355 . S
C531 C533 1.415 . S
C532 C531 1.355 . S
C532 C534 1.419 . S
C533 C528 1.425 . S
C533 C530 1.409 . S
C533 C531 1.415 . S
C534 H524 0.930 . S
C534 C532 1.419 . S
C534 C535 1.362 . S
C535 H525 0.930 . S
C535 C528 1.409 . S
C535 C534 1.362 . S
H536 C542 0.930 . S
H537 C545 0.930 . S
H538 C546 0.930 . S
H539 C547 0.930 . S
H540 C550 0.930 . S
H541 C551 0.930 . S
C542 H536 0.930 . S
C542 C543 1.355 . S
C542 C544 1.415 . S
C543 C542 1.355 . S
C543 C545 1.419 . S
C544 C542 1.415 . S
C544 C549 1.425 . S
C544 C551 1.409 . S
C545 H537 0.930 . S
C545 C543 1.419 . S
C545 C546 1.362 . S
C546 H538 0.930 . S
C546 C545 1.362 . S
C546 C549 1.409 . S
C547 H539 0.930 . S
C547 C548 1.355 . S
C547 C549 1.415 . S
C548 C547 1.355 . S
C548 C550 1.419 . S
C549 C544 1.425 . S
C549 C546 1.409 . S
C549 C547 1.415 . S
C550 H540 0.930 . S
C550 C548 1.419 . S
C550 C551 1.362 . S
C551 H541 0.930 . S
C551 C544 1.409 . S
C551 C550 1.362 . S
H552 C558 0.930 . S
H553 C561 0.930 . S
H554 C562 0.930 . S
H555 C563 0.930 . S
H556 C566 0.930 . S
H557 C567 0.930 . S
C558 H552 0.930 . S
C558 C559 1.355 . S
C558 C560 1.415 . S
C559 C558 1.355 . S
C559 C561 1.419 . S
C560 C558 1.415 . S
C560 C565 1.425 . S
C560 C567 1.409 . S
C561 H553 0.930 . S
C561 C559 1.419 . S
C561 C562 1.362 . S
C562 H554 0.930 . S
C562 C561 1.362 . S
C562 C565 1.409 . S
C563 H555 0.930 . S
C563 C564 1.355 . S
C563 C565 1.415 . S
C564 C563 1.355 . S
C564 C566 1.419 . S
C565 C560 1.425 . S
C565 C562 1.409 . S
C565 C563 1.415 . S
C566 H556 0.930 . S
C566 C564 1.419 . S
C566 C567 1.362 . S
C567 H557 0.930 . S
C567 C560 1.409 . S
C567 C566 1.362 . S
H568 C574 0.930 . S
H569 C577 0.930 . S
H570 C578 0.930 . S
H571 C579 0.930 . S
H572 C582 0.930 . S
H573 C583 0.930 . S
C574 H568 0.930 . S
C574 C575 1.355 . S
C574 C576 1.415 . S
C575 C574 1.355 . S
C575 C577 1.419 . S
C576 C574 1.415 . S
C576 C581 1.425 . S
C576 C583 1.409 . S
C577 H569 0.930 . S
C577 C575 1.419 . S
C577 C578 1.362 . S
C578 H570 0.930 . S
C578 C577 1.362 . S
C578 C581 1.409 . S
C579 H571 0.930 . S
C579 C580 1.355 . S
C579 C581 1.415 . S
C580 C579 1.355 . S
C580 C582 1.419 . S
C581 C576 1.425 . S
C581 C578 1.409 . S
C581 C579 1.415 . S
C582 H572 0.930 . S
C582 C580 1.419 . S
C582 C583 1.362 . S
C583 H573 0.930 . S
C583 C576 1.409 . S
C583 C582 1.362 . S
H584 C590 0.930 . S
H585 C593 0.930 . S
H586 C594 0.930 . S
H587 C595 0.930 . S
H588 C598 0.930 . S
H589 C599 0.930 . S
C590 H584 0.930 . S
C590 C591 1.355 . S
C590 C592 1.415 . S
C591 C590 1.355 . S
C591 C593 1.419 . S
C592 C590 1.415 . S
C592 C597 1.425 . S
C592 C599 1.409 . S
C593 H585 0.930 . S
C593 C591 1.419 . S
C593 C594 1.362 . S
C594 H586 0.930 . S
C594 C593 1.362 . S
C594 C597 1.409 . S
C595 H587 0.930 . S
C595 C596 1.355 . S
C595 C597 1.415 . S
C596 C595 1.355 . S
C596 C598 1.419 . S
C597 C592 1.425 . S
C597 C594 1.409 . S
C597 C595 1.415 . S
C598 H588 0.930 . S
C598 C596 1.419 . S
C598 C599 1.362 . S
C599 H589 0.930 . S
C599 C592 1.409 . S
C599 C598 1.362 . S
H600 C606 0.930 . S
H601 C609 0.930 . S
H602 C610 0.930 . S
H603 C611 0.930 . S
H604 C614 0.930 . S
H605 C615 0.930 . S
C606 H600 0.930 . S
C606 C607 1.355 . S
C606 C608 1.415 . S
C607 C606 1.355 . S
C607 C609 1.419 . S
C608 C606 1.415 . S
C608 C613 1.425 . S
C608 C615 1.409 . S
C609 H601 0.930 . S
C609 C607 1.419 . S
C609 C610 1.362 . S
C610 H602 0.930 . S
C610 C609 1.362 . S
C610 C613 1.409 . S
C611 H603 0.930 . S
C611 C612 1.355 . S
C611 C613 1.415 . S
C612 C611 1.355 . S
C612 C614 1.419 . S
C613 C608 1.425 . S
C613 C610 1.409 . S
C613 C611 1.415 . S
C614 H604 0.930 . S
C614 C612 1.419 . S
C614 C615 1.362 . S
C615 H605 0.930 . S
C615 C608 1.409 . S
C615 C614 1.362 . S
H616 C622 0.930 . S
H617 C625 0.930 . S
H618 C626 0.930 . S
H619 C627 0.930 . S
H620 C630 0.930 . S
H621 C631 0.930 . S
C622 H616 0.930 . S
C622 C623 1.355 . S
C622 C624 1.415 . S
C623 C622 1.355 . S
C623 C625 1.419 . S
C624 C622 1.415 . S
C624 C629 1.425 . S
C624 C631 1.409 . S
C625 H617 0.930 . S
C625 C623 1.419 . S
C625 C626 1.362 . S
C626 H618 0.930 . S
C626 C625 1.362 . S
C626 C629 1.409 . S
C627 H619 0.930 . S
C627 C628 1.355 . S
C627 C629 1.415 . S
C628 C627 1.355 . S
C628 C630 1.419 . S
C629 C624 1.425 . S
C629 C626 1.409 . S
C629 C627 1.415 . S
C630 H620 0.930 . S
C630 C628 1.419 . S
C630 C631 1.362 . S
C631 H621 0.930 . S
C631 C624 1.409 . S
C631 C630 1.362 . S
H632 C638 0.930 . S
H633 C641 0.930 . S
H634 C642 0.930 . S
H635 C643 0.930 . S
H636 C646 0.930 . S
H637 C647 0.930 . S
C638 H632 0.930 . S
C638 C639 1.355 . S
C638 C640 1.415 . S
C639 C638 1.355 . S
C639 C641 1.419 . S
C640 C638 1.415 . S
C640 C645 1.425 . S
C640 C647 1.409 . S
C641 H633 0.930 . S
C641 C639 1.419 . S
C641 C642 1.362 . S
C642 H634 0.930 . S
C642 C641 1.362 . S
C642 C645 1.409 . S
C643 H635 0.930 . S
C643 C644 1.355 . S
C643 C645 1.415 . S
C644 C643 1.355 . S
C644 C646 1.419 . S
C645 C640 1.425 . S
C645 C642 1.409 . S
C645 C643 1.415 . S
C646 H636 0.930 . S
C646 C644 1.419 . S
C646 C647 1.362 . S
C647 H637 0.930 . S
C647 C640 1.409 . S
C647 C646 1.362 . S
H648 C654 0.930 . S
H649 C657 0.930 . S
H650 C658 0.930 . S
H651 C659 0.930 . S
H652 C662 0.930 . S
H653 C663 0.930 . S
C654 H648 0.930 . S
C654 C655 1.355 . S
C654 C656 1.415 . S
C655 C654 1.355 . S
C655 C657 1.419 . S
C656 C654 1.415 . S
C656 C661 1.425 . S
C656 C663 1.409 . S
C657 H649 0.930 . S
C657 C655 1.419 . S
C657 C658 1.362 . S
C658 H650 0.930 . S
C658 C657 1.362 . S
C658 C661 1.409 . S
C659 H651 0.930 . S
C659 C660 1.355 . S
C659 C661 1.415 . S
C660 C659 1.355 . S
C660 C662 1.419 . S
C661 C656 1.425 . S
C661 C658 1.409 . S
C661 C659 1.415 . S
C662 H652 0.930 . S
C662 C660 1.419 . S
C662 C663 1.362 . S
C663 H653 0.930 . S
C663 C656 1.409 . S
C663 C662 1.362 . S
H664 C670 0.930 . S
H665 C673 0.930 . S
H666 C674 0.930 . S
H667 C675 0.930 . S
H668 C678 0.930 . S
H669 C679 0.930 . S
C670 H664 0.930 . S
C670 C671 1.355 . S
C670 C672 1.415 . S
C671 C670 1.355 . S
C671 C673 1.419 . S
C672 C670 1.415 . S
C672 C677 1.425 . S
C672 C679 1.409 . S
C673 H665 0.930 . S
C673 C671 1.419 . S
C673 C674 1.362 . S
C674 H666 0.930 . S
C674 C673 1.362 . S
C674 C677 1.409 . S
C675 H667 0.930 . S
C675 C676 1.355 . S
C675 C677 1.415 . S
C676 C675 1.355 . S
C676 C678 1.419 . S
C677 C672 1.425 . S
C677 C674 1.409 . S
C677 C675 1.415 . S
C678 H668 0.930 . S
C678 C676 1.419 . S
C678 C679 1.362 . S
C679 H669 0.930 . S
C679 C672 1.409 . S
C679 C678 1.362 . S
H680 C686 0.930 . S
H681 C689 0.930 . S
H682 C690 0.930 . S
H683 C691 0.930 . S
H684 C694 0.930 . S
H685 C695 0.930 . S
C686 H680 0.930 . S
C686 C687 1.355 . S
C686 C688 1.415 . S
C687 C686 1.355 . S
C687 C689 1.419 . S
C688 C686 1.415 . S
C688 C693 1.425 . S
C688 C695 1.409 . S
C689 H681 0.930 . S
C689 C687 1.419 . S
C689 C690 1.362 . S
C690 H682 0.930 . S
C690 C689 1.362 . S
C690 C693 1.409 . S
C691 H683 0.930 . S
C691 C692 1.355 . S
C691 C693 1.415 . S
C692 C691 1.355 . S
C692 C694 1.419 . S
C693 C688 1.425 . S
C693 C690 1.409 . S
C693 C691 1.415 . S
C694 H684 0.930 . S
C694 C692 1.419 . S
C694 C695 1.362 . S
C695 H685 0.930 . S
C695 C688 1.409 . S
C695 C694 1.362 . S
H696 C702 0.930 . S
H697 C705 0.930 . S
H698 C706 0.930 . S
H699 C707 0.930 . S
H700 C710 0.930 . S
H701 C711 0.930 . S
C702 H696 0.930 . S
C702 C703 1.355 . S
C702 C704 1.415 . S
C703 C702 1.355 . S
C703 C705 1.419 . S
C704 C702 1.415 . S
C704 C709 1.425 . S
C704 C711 1.409 . S
C705 H697 0.930 . S
C705 C703 1.419 . S
C705 C706 1.362 . S
C706 H698 0.930 . S
C706 C705 1.362 . S
C706 C709 1.409 . S
C707 H699 0.930 . S
C707 C708 1.355 . S
C707 C709 1.415 . S
C708 C707 1.355 . S
C708 C710 1.419 . S
C709 C704 1.425 . S
C709 C706 1.409 . S
C709 C707 1.415 . S
C710 H700 0.930 . S
C710 C708 1.419 . S
C710 C711 1.362 . S
C711 H701 0.930 . S
C711 C704 1.409 . S
C711 C710 1.362 . S
H712 C718 0.930 . S
H713 C721 0.930 . S
H714 C722 0.930 . S
H715 C723 0.930 . S
H716 C726 0.930 . S
H717 C727 0.930 . S
C718 H712 0.930 . S
C718 C719 1.355 . S
C718 C720 1.415 . S
C719 C718 1.355 . S
C719 C721 1.419 . S
C720 C718 1.415 . S
C720 C725 1.425 . S
C720 C727 1.409 . S
C721 H713 0.930 . S
C721 C719 1.419 . S
C721 C722 1.362 . S
C722 H714 0.930 . S
C722 C721 1.362 . S
C722 C725 1.409 . S
C723 H715 0.930 . S
C723 C724 1.355 . S
C723 C725 1.415 . S
C724 C723 1.355 . S
C724 C726 1.419 . S
C725 C720 1.425 . S
C725 C722 1.409 . S
C725 C723 1.415 . S
C726 H716 0.930 . S
C726 C724 1.419 . S
C726 C727 1.362 . S
C727 H717 0.930 . S
C727 C720 1.409 . S
C727 C726 1.362 . S
H728 C734 0.930 . S
H729 C737 0.930 . S
H730 C738 0.930 . S
H731 C739 0.935 . S
H732 C742 0.930 1_545 S
H733 C743 0.930 . S
C734 H728 0.930 . S
C734 C735 1.355 . S
C734 C736 1.415 . S
C735 C734 1.355 . S
C735 C737 1.419 . S
C736 C734 1.415 . S
C736 C741 1.425 . S
C736 C743 1.409 . S
C737 H729 0.930 . S
C737 C735 1.419 . S
C737 C738 1.362 . S
C738 H730 0.930 . S
C738 C737 1.362 . S
C738 C741 1.409 . S
C739 H731 0.935 . S
C739 C740 1.355 1_565 S
C739 C741 1.415 . S
C740 C739 1.355 1_545 S
C740 C742 1.419 1_545 S
C741 C736 1.425 . S
C741 C738 1.409 . S
C741 C739 1.415 . S
C742 H732 0.930 1_565 S
C742 C740 1.419 1_565 S
C742 C743 1.362 . S
C743 H733 0.930 . S
C743 C736 1.409 . S
C743 C742 1.362 . S
H744 C750 0.930 . S
H745 C753 0.930 . S
H746 C754 0.930 . S
H747 C755 0.930 . S
H748 C758 0.930 . S
H749 C759 0.930 . S
C750 H744 0.930 . S
C750 C751 1.355 . S
C750 C752 1.415 . S
C751 C750 1.355 . S
C751 C753 1.419 . S
C752 C750 1.415 . S
C752 C757 1.425 . S
C752 C759 1.409 . S
C753 H745 0.930 . S
C753 C751 1.419 . S
C753 C754 1.362 . S
C754 H746 0.930 . S
C754 C753 1.362 . S
C754 C757 1.409 . S
C755 H747 0.930 . S
C755 C756 1.355 . S
C755 C757 1.415 . S
C756 C755 1.355 . S
C756 C758 1.419 . S
C757 C752 1.425 . S
C757 C754 1.409 . S
C757 C755 1.415 . S
C758 H748 0.930 . S
C758 C756 1.419 . S
C758 C759 1.362 . S
C759 H749 0.930 . S
C759 C752 1.409 . S
C759 C758 1.362 . S
C388 C118 1.532 . S
C383 C5 1.323 . S
C404 C157 1.564 . S
C399 C16 1.262 . S
C420 C133 1.687 . S
C415 C30 1.682 . S
C436 C172 1.656 . S
C431 C40 1.579 . S
C452 C220 1.460 . S
C447 C8 1.449 . S
C468 C253 1.491 . S
C463 C18 1.379 . S
C479 C29 1.725 . S
C484 C310 1.773 . S
C500 C358 1.522 . S
C495 C38 1.249 . S
C516 C205 1.425 . S
C511 C19 1.409 . S
C527 C27 1.518 . S
C532 C268 1.618 . S
C548 C325 1.625 . S
C543 C41 1.616 . S
C564 C373 1.543 . S
C559 C7 1.496 . S
C575 C52 1.605 . S
C580 C166 1.628 . S
C596 C109 1.597 . S
C591 C62 1.572 . S
C607 C74 1.420 . S
C612 C181 1.459 . S
C623 C82 1.224 . S
C628 C124 1.414 . S
C644 C301 1.805 . S
C639 C51 1.679 . S
C660 C364 1.588 . S
C655 C60 1.371 . S
C676 C229 1.495 . S
C671 C71 1.237 . S
C687 C84 1.496 . S
C692 C277 1.536 . S
C708 C316 1.683 . S
C703 C63 1.703 . S
C724 C349 1.510 . S
C719 C73 1.482 . S
C740 C214 1.555 . S
C735 C85 1.558 . S
C751 C49 1.286 . S
C756 C262 1.631 . S
