# Generated by pormake.
# Topology bwt, (3,3)-cn, num edge types: 1
# Building blocks:
#     Node 0, Type 0, BuildingBlock: WUSLED_clean_sbu_0, # of connection points: 3
#     Node 1, Type 0, BuildingBlock: WUSLED_clean_sbu_0, # of connection points: 3
#     Node 2, Type 0, BuildingBlock: WUSLED_clean_sbu_0, # of connection points: 3
#     Node 3, Type 0, BuildingBlock: WUSLED_clean_sbu_0, # of connection points: 3
#     Node 4, Type 0, BuildingBlock: WUSLED_clean_sbu_0, # of connection points: 3
#     Node 5, Type 0, BuildingBlock: WUSLED_clean_sbu_0, # of connection points: 3
#     Node 6, Type 0, BuildingBlock: WUSLED_clean_sbu_0, # of connection points: 3
#     Node 7, Type 0, BuildingBlock: WUSLED_clean_sbu_0, # of connection points: 3
#     Node 8, Type 0, BuildingBlock: WUSLED_clean_sbu_0, # of connection points: 3
#     Node 9, Type 0, BuildingBlock: WUSLED_clean_sbu_0, # of connection points: 3
#     Node 10, Type 0, BuildingBlock: WUSLED_clean_sbu_0, # of connection points: 3
#     Node 11, Type 0, BuildingBlock: WUSLED_clean_sbu_0, # of connection points: 3
#     Node 12, Type 0, BuildingBlock: WUSLED_clean_sbu_0, # of connection points: 3
#     Node 13, Type 0, BuildingBlock: WUSLED_clean_sbu_0, # of connection points: 3
#     Node 14, Type 0, BuildingBlock: WUSLED_clean_sbu_0, # of connection points: 3
#     Node 15, Type 0, BuildingBlock: WUSLED_clean_sbu_0, # of connection points: 3
#     Node 16, Type 0, BuildingBlock: WUSLED_clean_sbu_0, # of connection points: 3
#     Node 17, Type 0, BuildingBlock: WUSLED_clean_sbu_0, # of connection points: 3
#     Node 18, Type 0, BuildingBlock: WUSLED_clean_sbu_0, # of connection points: 3
#     Node 19, Type 0, BuildingBlock: WUSLED_clean_sbu_0, # of connection points: 3
#     Node 20, Type 0, BuildingBlock: WUSLED_clean_sbu_0, # of connection points: 3
#     Node 21, Type 0, BuildingBlock: WUSLED_clean_sbu_0, # of connection points: 3
#     Node 22, Type 0, BuildingBlock: WUSLED_clean_sbu_0, # of connection points: 3
#     Node 23, Type 0, BuildingBlock: WUSLED_clean_sbu_0, # of connection points: 3
#     Node 24, Type 1, BuildingBlock: CUQRIR_clean_linker_1, # of connection points: 3
#     Node 25, Type 1, BuildingBlock: CUQRIR_clean_linker_1, # of connection points: 3
#     Node 26, Type 1, BuildingBlock: CUQRIR_clean_linker_1, # of connection points: 3
#     Node 27, Type 1, BuildingBlock: CUQRIR_clean_linker_1, # of connection points: 3
#     Node 28, Type 1, BuildingBlock: CUQRIR_clean_linker_1, # of connection points: 3
#     Node 29, Type 1, BuildingBlock: CUQRIR_clean_linker_1, # of connection points: 3
#     Node 30, Type 1, BuildingBlock: CUQRIR_clean_linker_1, # of connection points: 3
#     Node 31, Type 1, BuildingBlock: CUQRIR_clean_linker_1, # of connection points: 3
#     Node 32, Type 1, BuildingBlock: CUQRIR_clean_linker_1, # of connection points: 3
#     Node 33, Type 1, BuildingBlock: CUQRIR_clean_linker_1, # of connection points: 3
#     Node 34, Type 1, BuildingBlock: CUQRIR_clean_linker_1, # of connection points: 3
#     Node 35, Type 1, BuildingBlock: CUQRIR_clean_linker_1, # of connection points: 3
#     Node 36, Type 1, BuildingBlock: CUQRIR_clean_linker_1, # of connection points: 3
#     Node 37, Type 1, BuildingBlock: CUQRIR_clean_linker_1, # of connection points: 3
#     Node 38, Type 1, BuildingBlock: CUQRIR_clean_linker_1, # of connection points: 3
#     Node 39, Type 1, BuildingBlock: CUQRIR_clean_linker_1, # of connection points: 3
#     Node 40, Type 1, BuildingBlock: CUQRIR_clean_linker_1, # of connection points: 3
#     Node 41, Type 1, BuildingBlock: CUQRIR_clean_linker_1, # of connection points: 3
#     Node 42, Type 1, BuildingBlock: CUQRIR_clean_linker_1, # of connection points: 3
#     Node 43, Type 1, BuildingBlock: CUQRIR_clean_linker_1, # of connection points: 3
#     Node 44, Type 1, BuildingBlock: CUQRIR_clean_linker_1, # of connection points: 3
#     Node 45, Type 1, BuildingBlock: CUQRIR_clean_linker_1, # of connection points: 3
#     Node 46, Type 1, BuildingBlock: CUQRIR_clean_linker_1, # of connection points: 3
#     Node 47, Type 1, BuildingBlock: CUQRIR_clean_linker_1, # of connection points: 3
#     Edge 48, Type (0, 1), BuildingBlock: EZIPEK_clean_linker_0, # of connection points: 2
#     Edge 49, Type (0, 1), BuildingBlock: EZIPEK_clean_linker_0, # of connection points: 2
#     Edge 50, Type (0, 1), BuildingBlock: EZIPEK_clean_linker_0, # of connection points: 2
#     Edge 51, Type (0, 1), BuildingBlock: EZIPEK_clean_linker_0, # of connection points: 2
#     Edge 52, Type (0, 1), BuildingBlock: EZIPEK_clean_linker_0, # of connection points: 2
#     Edge 53, Type (0, 1), BuildingBlock: EZIPEK_clean_linker_0, # of connection points: 2
#     Edge 54, Type (0, 1), BuildingBlock: EZIPEK_clean_linker_0, # of connection points: 2
#     Edge 55, Type (0, 1), BuildingBlock: EZIPEK_clean_linker_0, # of connection points: 2
#     Edge 56, Type (0, 1), BuildingBlock: EZIPEK_clean_linker_0, # of connection points: 2
#     Edge 57, Type (0, 1), BuildingBlock: EZIPEK_clean_linker_0, # of connection points: 2
#     Edge 58, Type (0, 1), BuildingBlock: EZIPEK_clean_linker_0, # of connection points: 2
#     Edge 59, Type (0, 1), BuildingBlock: EZIPEK_clean_linker_0, # of connection points: 2
#     Edge 60, Type (0, 1), BuildingBlock: EZIPEK_clean_linker_0, # of connection points: 2
#     Edge 61, Type (0, 1), BuildingBlock: EZIPEK_clean_linker_0, # of connection points: 2
#     Edge 62, Type (0, 1), BuildingBlock: EZIPEK_clean_linker_0, # of connection points: 2
#     Edge 63, Type (0, 1), BuildingBlock: EZIPEK_clean_linker_0, # of connection points: 2
#     Edge 64, Type (0, 1), BuildingBlock: EZIPEK_clean_linker_0, # of connection points: 2
#     Edge 65, Type (0, 1), BuildingBlock: EZIPEK_clean_linker_0, # of connection points: 2
#     Edge 66, Type (0, 1), BuildingBlock: EZIPEK_clean_linker_0, # of connection points: 2
#     Edge 67, Type (0, 1), BuildingBlock: EZIPEK_clean_linker_0, # of connection points: 2
#     Edge 68, Type (0, 1), BuildingBlock: EZIPEK_clean_linker_0, # of connection points: 2
#     Edge 69, Type (0, 1), BuildingBlock: EZIPEK_clean_linker_0, # of connection points: 2
#     Edge 70, Type (0, 1), BuildingBlock: EZIPEK_clean_linker_0, # of connection points: 2
#     Edge 71, Type (0, 1), BuildingBlock: EZIPEK_clean_linker_0, # of connection points: 2
#     Edge 72, Type (0, 1), BuildingBlock: EZIPEK_clean_linker_0, # of connection points: 2
#     Edge 73, Type (0, 1), BuildingBlock: EZIPEK_clean_linker_0, # of connection points: 2
#     Edge 74, Type (0, 1), BuildingBlock: EZIPEK_clean_linker_0, # of connection points: 2
#     Edge 75, Type (0, 1), BuildingBlock: EZIPEK_clean_linker_0, # of connection points: 2
#     Edge 76, Type (0, 1), BuildingBlock: EZIPEK_clean_linker_0, # of connection points: 2
#     Edge 77, Type (0, 1), BuildingBlock: EZIPEK_clean_linker_0, # of connection points: 2
#     Edge 78, Type (0, 1), BuildingBlock: EZIPEK_clean_linker_0, # of connection points: 2
#     Edge 79, Type (0, 1), BuildingBlock: EZIPEK_clean_linker_0, # of connection points: 2
#     Edge 80, Type (0, 1), BuildingBlock: EZIPEK_clean_linker_0, # of connection points: 2
#     Edge 81, Type (0, 1), BuildingBlock: EZIPEK_clean_linker_0, # of connection points: 2
#     Edge 82, Type (0, 1), BuildingBlock: EZIPEK_clean_linker_0, # of connection points: 2
#     Edge 83, Type (0, 1), BuildingBlock: EZIPEK_clean_linker_0, # of connection points: 2
#     Edge 84, Type (0, 1), BuildingBlock: EZIPEK_clean_linker_0, # of connection points: 2
#     Edge 85, Type (0, 1), BuildingBlock: EZIPEK_clean_linker_0, # of connection points: 2
#     Edge 86, Type (0, 1), BuildingBlock: EZIPEK_clean_linker_0, # of connection points: 2
#     Edge 87, Type (0, 1), BuildingBlock: EZIPEK_clean_linker_0, # of connection points: 2
#     Edge 88, Type (0, 1), BuildingBlock: EZIPEK_clean_linker_0, # of connection points: 2
#     Edge 89, Type (0, 1), BuildingBlock: EZIPEK_clean_linker_0, # of connection points: 2
#     Edge 90, Type (0, 1), BuildingBlock: EZIPEK_clean_linker_0, # of connection points: 2
#     Edge 91, Type (0, 1), BuildingBlock: EZIPEK_clean_linker_0, # of connection points: 2
#     Edge 92, Type (0, 1), BuildingBlock: EZIPEK_clean_linker_0, # of connection points: 2
#     Edge 93, Type (0, 1), BuildingBlock: EZIPEK_clean_linker_0, # of connection points: 2
#     Edge 94, Type (0, 1), BuildingBlock: EZIPEK_clean_linker_0, # of connection points: 2
#     Edge 95, Type (0, 1), BuildingBlock: EZIPEK_clean_linker_0, # of connection points: 2
#     Edge 96, Type (0, 1), BuildingBlock: EZIPEK_clean_linker_0, # of connection points: 2
#     Edge 97, Type (0, 1), BuildingBlock: EZIPEK_clean_linker_0, # of connection points: 2
#     Edge 98, Type (0, 1), BuildingBlock: EZIPEK_clean_linker_0, # of connection points: 2
#     Edge 99, Type (0, 1), BuildingBlock: EZIPEK_clean_linker_0, # of connection points: 2
#     Edge 100, Type (0, 1), BuildingBlock: EZIPEK_clean_linker_0, # of connection points: 2
#     Edge 101, Type (0, 1), BuildingBlock: EZIPEK_clean_linker_0, # of connection points: 2
#     Edge 102, Type (0, 1), BuildingBlock: EZIPEK_clean_linker_0, # of connection points: 2
#     Edge 103, Type (0, 1), BuildingBlock: EZIPEK_clean_linker_0, # of connection points: 2
#     Edge 104, Type (0, 1), BuildingBlock: EZIPEK_clean_linker_0, # of connection points: 2
#     Edge 105, Type (0, 1), BuildingBlock: EZIPEK_clean_linker_0, # of connection points: 2
#     Edge 106, Type (0, 1), BuildingBlock: EZIPEK_clean_linker_0, # of connection points: 2
#     Edge 107, Type (0, 1), BuildingBlock: EZIPEK_clean_linker_0, # of connection points: 2
#     Edge 108, Type (0, 1), BuildingBlock: EZIPEK_clean_linker_0, # of connection points: 2
#     Edge 109, Type (0, 1), BuildingBlock: EZIPEK_clean_linker_0, # of connection points: 2
#     Edge 110, Type (0, 1), BuildingBlock: EZIPEK_clean_linker_0, # of connection points: 2
#     Edge 111, Type (0, 1), BuildingBlock: EZIPEK_clean_linker_0, # of connection points: 2
#     Edge 112, Type (0, 1), BuildingBlock: EZIPEK_clean_linker_0, # of connection points: 2
#     Edge 113, Type (0, 1), BuildingBlock: EZIPEK_clean_linker_0, # of connection points: 2
#     Edge 114, Type (0, 1), BuildingBlock: EZIPEK_clean_linker_0, # of connection points: 2
#     Edge 115, Type (0, 1), BuildingBlock: EZIPEK_clean_linker_0, # of connection points: 2
#     Edge 116, Type (0, 1), BuildingBlock: EZIPEK_clean_linker_0, # of connection points: 2
#     Edge 117, Type (0, 1), BuildingBlock: EZIPEK_clean_linker_0, # of connection points: 2
#     Edge 118, Type (0, 1), BuildingBlock: EZIPEK_clean_linker_0, # of connection points: 2
#     Edge 119, Type (0, 1), BuildingBlock: EZIPEK_clean_linker_0, # of connection points: 2
# Relax obj value: 0.123
# Max RMSD: 0.184
# Mean RMSD: 0.088
data_MOF--net-bwt--node1-WUSLED_clean_sbu_0--node2-CUQRIR_clean_linker_1--edge1-EZIPEK_clean_linker_0
_symmetry_space_group_name_H-M    P1
_symmetry_Int_Tables_number       1
_symmetry_cell_setting            triclinic
loop_
_symmetry_equiv_pos_as_xyz
'x, y, z'
_cell_length_a     48.905273
_cell_length_b     48.756317
_cell_length_c     48.93025
_cell_angle_alpha  96.972974
_cell_angle_beta   96.589242
_cell_angle_gamma 96.671344
loop_
_atom_site_label
_atom_site_type_symbol
_atom_site_fract_x
_atom_site_fract_y
_atom_site_fract_z
_atom_type_partial_charge
C0 C 0.33976 0.66328 0.36204 0.0
C1 C 0.36345 0.66264 0.38083 0.0
C2 C 0.39387 0.66517 0.34381 0.0
C3 C 0.38994 0.66407 0.37188 0.0
C4 C 0.36984 0.66634 0.32524 0.0
C5 C 0.34345 0.66599 0.33433 0.0
U6 U 0.27847 0.65883 0.41049 0.0
O7 O 0.24726 0.68808 0.41172 0.0
O8 O 0.2341 0.64394 0.39508 0.0
C9 C 0.22648 0.6687 0.4014 0.0
C10 C 0.3112 0.66267 0.37049 0.0
C11 C 0.20156 0.67688 0.38553 0.0
C12 C 0.17744 0.69742 0.34799 0.0
C13 C 0.20199 0.68926 0.36098 0.0
C14 C 0.15229 0.68181 0.38425 0.0
C15 C 0.15235 0.69375 0.35959 0.0
C16 C 0.17651 0.67341 0.39691 0.0
C17 C 0.29213 0.63381 0.48687 0.0
C18 C 0.26631 0.62375 0.52573 0.0
C19 C 0.31023 0.60657 0.52218 0.0
C20 C 0.31272 0.61909 0.4981 0.0
C21 C 0.28688 0.60814 0.53618 0.0
C22 C 0.26892 0.6366 0.50133 0.0
C23 C 0.29603 0.64362 0.45934 0.0
O24 O 0.30665 0.68371 0.38761 0.0
O25 O 0.29778 0.63913 0.37519 0.0
O26 O 0.29506 0.6697 0.45564 0.0
O27 O 0.28726 0.62618 0.43662 0.0
H28 H 0.36139 0.6608 0.40233 0.0
H29 H 0.40735 0.66302 0.38679 0.0
H30 H 0.37124 0.66725 0.30345 0.0
H31 H 0.3257 0.66754 0.31946 0.0
H32 H 0.1779 0.70635 0.3288 0.0
H33 H 0.22106 0.6925 0.35185 0.0
H34 H 0.13326 0.6784 0.39343 0.0
H35 H 0.1757 0.66416 0.41589 0.0
H36 H 0.24801 0.62545 0.53606 0.0
H37 H 0.32629 0.59466 0.52939 0.0
H38 H 0.33073 0.61651 0.48756 0.0
H39 H 0.25261 0.64798 0.49354 0.0
C40 C 0.18874 0.3073 0.81909 0.0
C41 C 0.16744 0.29646 0.83358 0.0
C42 C 0.13242 0.28555 0.79075 0.0
C43 C 0.14035 0.28527 0.81973 0.0
C44 C 0.15454 0.29452 0.77618 0.0
C45 C 0.1819 0.3049 0.7899 0.0
U46 U 0.26675 0.34872 0.85829 0.0
O47 O 0.30316 0.32469 0.85744 0.0
O48 O 0.29732 0.35592 0.82891 0.0
C49 C 0.3128 0.33774 0.83778 0.0
C50 C 0.21702 0.32229 0.83416 0.0
C51 C 0.33726 0.33023 0.82366 0.0
C52 C 0.3569 0.31506 0.78105 0.0
C53 C 0.33396 0.31633 0.79621 0.0
C54 C 0.38717 0.33977 0.82104 0.0
C55 C 0.38367 0.3279 0.79296 0.0
C56 C 0.3644 0.34082 0.83618 0.0
C57 C 0.28115 0.41582 0.92177 0.0
C58 C 0.31795 0.45014 0.95043 0.0
C59 C 0.27038 0.45854 0.94887 0.0
C60 C 0.26196 0.43292 0.9314 0.0
C61 C 0.29857 0.46846 0.95812 0.0
C62 C 0.30946 0.42449 0.93226 0.0
C63 C 0.27006 0.39064 0.89987 0.0
O64 O 0.22985 0.34445 0.826 0.0
O65 O 0.23119 0.31419 0.85566 0.0
O66 O 0.27279 0.36482 0.90388 0.0
O67 O 0.26627 0.39355 0.87344 0.0
H68 H 0.17136 0.29766 0.85598 0.0
H69 H 0.12502 0.27789 0.83236 0.0
H70 H 0.15037 0.29492 0.75405 0.0
H71 H 0.19767 0.31188 0.77755 0.0
H72 H 0.35341 0.30568 0.7595 0.0
H73 H 0.31342 0.30764 0.78603 0.0
H74 H 0.40742 0.34997 0.83076 0.0
H75 H 0.36784 0.35168 0.85719 0.0
H76 H 0.33987 0.4562 0.95745 0.0
H77 H 0.2546 0.47111 0.95469 0.0
H78 H 0.24 0.42678 0.92463 0.0
H79 H 0.32509 0.41186 0.92602 0.0
C80 C 0.70605 0.99944 0.65402 0.0
C81 C 0.72555 0.99644 0.63515 0.0
C82 C 0.7622 1.00115 0.67376 0.0
C83 C 0.75365 0.99733 0.64505 0.0
C84 C 0.74287 1.00499 0.69239 0.0
C85 C 0.71491 1.00418 0.68254 0.0
U86 U 0.65096 0.99412 0.59397 0.0
O87 O 0.60643 0.97827 0.58537 0.0
O88 O 0.62136 0.02255 0.58375 0.0
C89 C 0.60004 1.00306 0.5811 0.0
C90 C 0.67662 0.99894 0.64423 0.0
C91 C 0.57615 0.01192 0.5925 0.0
C92 C 0.54866 0.01933 0.62977 0.0
C93 C 0.57353 0.01324 0.62084 0.0
C94 C 0.53068 0.02539 0.58277 0.0
C95 C 0.52687 0.02374 0.61035 0.0
C96 C 0.55529 0.01916 0.5738 0.0
C97 C 0.67498 0.98959 0.52349 0.0
C98 C 0.64682 0.98021 0.4786 0.0
C99 C 0.69553 0.99936 0.48286 0.0
C100 C 0.69768 1.00011 0.51133 0.0
C101 C 0.67072 0.98764 0.4664 0.0
C102 C 0.6489 0.98129 0.50741 0.0
C103 C 0.6798 0.98785 0.55298 0.0
O104 O 0.67109 0.02049 0.63193 0.0
O105 O 0.66375 0.97492 0.63102 0.0
O106 O 0.66621 0.96647 0.5619 0.0
O107 O 0.68046 0.01177 0.56863 0.0
H108 H 0.71905 0.99329 0.61293 0.0
H109 H 0.76858 0.99458 0.63051 0.0
H110 H 0.74944 1.00827 0.71457 0.0
H111 H 0.70015 1.00711 0.69717 0.0
H112 H 0.5456 0.01853 0.65113 0.0
H113 H 0.58993 1.00832 0.63557 0.0
H114 H 0.51367 0.02857 0.56773 0.0
H115 H 0.55747 0.01848 0.55196 0.0
H116 H 0.62707 0.97294 0.46584 0.0
H117 H 0.71358 1.0067 0.47354 0.0
H118 H 0.7174 1.00797 0.52384 0.0
H119 H 0.63064 0.97487 0.51687 0.0
C120 C 0.82214 0.04404 0.32084 0.0
C121 C 0.79621 0.03601 0.30631 0.0
C122 C 0.77311 0.05035 0.34789 0.0
C123 C 0.77305 0.03815 0.31947 0.0
C124 C 0.79984 0.05602 0.3634 0.0
C125 C 0.82415 0.05328 0.34988 0.0
U126 U 0.85821 0.02701 0.25384 0.0
O127 O 0.89157 1.00087 0.25086 0.0
O128 O 0.89958 0.04556 0.24683 0.0
C129 C 0.90981 0.02185 0.2478 0.0
C130 C 0.8463 0.04089 0.30525 0.0
C131 C 0.93764 0.02265 0.26267 0.0
C132 C 0.97736 0.04535 0.29525 0.0
C133 C 0.94886 0.04253 0.28572 0.0
C134 C 0.98227 1.00659 0.2608 0.0
C135 C 0.99424 0.02805 0.28188 0.0
C136 C 0.95426 1.0041 0.25112 0.0
C137 C 0.81962 1.00429 0.1776 0.0
C138 C 0.83788 0.98485 0.13557 0.0
C139 C 0.7886 0.98632 0.13471 0.0
C140 C 0.79296 0.99895 0.16243 0.0
C141 C 0.81077 0.97836 0.12109 0.0
C142 C 0.84231 0.99774 0.16362 0.0
C143 C 0.82189 0.01473 0.20812 0.0
O144 O 0.84801 0.01533 0.29403 0.0
O145 O 0.8512 0.05892 0.28784 0.0
O146 O 0.83451 0.04007 0.21723 0.0
O147 O 0.82723 0.99689 0.22548 0.0
H148 H 0.79362 0.02759 0.28444 0.0
H149 H 0.75475 0.02988 0.30596 0.0
H150 H 0.802 0.06257 0.38555 0.0
H151 H 0.84441 0.05827 0.36205 0.0
H152 H 0.98642 0.06182 0.31181 0.0
H153 H 0.93608 0.05665 0.29529 0.0
H154 H 0.9951 0.99315 0.25029 0.0
H155 H 0.9459 0.98868 0.23337 0.0
H156 H 0.85533 0.97858 0.1257 0.0
H157 H 0.7675 0.98108 0.12435 0.0
H158 H 0.7751 1.00348 0.1725 0.0
H159 H 0.86323 1.00158 0.17454 0.0
C160 C 0.371 0.34695 0.6713 0.0
C161 C 0.37106 0.35748 0.64573 0.0
C162 C 0.34703 0.39704 0.66191 0.0
C163 C 0.35859 0.38149 0.64088 0.0
C164 C 0.34761 0.38673 0.68782 0.0
C165 C 0.35899 0.36199 0.69227 0.0
U166 U 0.41441 0.28193 0.66532 0.0
O167 O 0.41667 0.24931 0.69347 0.0
O168 O 0.39614 0.23825 0.65055 0.0
C169 C 0.40402 0.2293 0.67408 0.0
C170 C 0.37881 0.31835 0.67478 0.0
C171 C 0.38831 0.20342 0.68139 0.0
C172 C 0.3487 0.17688 0.6973 0.0
C173 C 0.36277 0.20255 0.69225 0.0
C174 C 0.38533 0.15273 0.68088 0.0
C175 C 0.35983 0.15158 0.69158 0.0
C176 C 0.39927 0.17817 0.67591 0.0
C177 C 0.48631 0.29363 0.63138 0.0
C178 C 0.51588 0.26616 0.60467 0.0
C179 C 0.52986 0.3154 0.61847 0.0
C180 C 0.5055 0.31727 0.63085 0.0
C181 C 0.53503 0.29015 0.60376 0.0
C182 C 0.49222 0.26777 0.61883 0.0
C183 C 0.45982 0.29795 0.64322 0.0
O184 O 0.37697 0.30043 0.65213 0.0
O185 O 0.39984 0.31561 0.69319 0.0
O186 O 0.45907 0.29929 0.67009 0.0
O187 O 0.4359 0.28748 0.62854 0.0
H188 H 0.38016 0.34668 0.6291 0.0
H189 H 0.35833 0.3881 0.62054 0.0
H190 H 0.33898 0.39777 0.70469 0.0
H191 H 0.35777 0.35425 0.712 0.0
H192 H 0.32906 0.17671 0.70553 0.0
H193 H 0.35363 0.22154 0.69662 0.0
H194 H 0.39441 0.13377 0.67609 0.0
H195 H 0.41875 0.17807 0.66738 0.0
H196 H 0.51876 0.24618 0.5939 0.0
H197 H 0.5441 0.33431 0.61923 0.0
H198 H 0.50166 0.33754 0.64022 0.0
H199 H 0.47815 0.24898 0.61916 0.0
C200 C 0.28618 0.8077 0.05086 0.0
C201 C 0.2852 0.78115 0.0185 0.0
C202 C 0.35027 0.76639 0.04399 0.0
C203 C 0.31689 0.761 0.01302 0.0
C204 C 0.34973 0.79314 0.07736 0.0
C205 C 0.31826 0.8149 0.0804 0.0
U206 U 0.24344 0.86812 0.03211 0.0
O207 O 0.26429 0.90762 0.05472 0.0
O208 O 0.27217 0.89438 0.01171 0.0
C209 C 0.27752 0.91336 0.03376 0.0
C210 C 0.26291 0.82365 0.04654 0.0
C211 C 0.28 0.9421 0.02933 0.0
C212 C 0.30719 0.98697 0.04271 0.0
C213 C 0.30445 0.95846 0.04209 0.0
C214 C 0.26154 0.98269 0.01557 0.0
C215 C 0.28581 0.99906 0.02945 0.0
C216 C 0.25839 0.95399 0.01577 0.0
C217 C 0.16654 0.8443 1.00182 0.0
C218 C 0.11653 0.83809 0.99121 0.0
C219 C 0.14303 0.80334 0.97135 0.0
C220 C 0.16748 0.81848 0.98578 0.0
C221 C 0.11759 0.81361 0.97349 0.0
C222 C 0.1409 0.85343 1.00513 0.0
C223 C 0.19146 0.86454 0.01083 0.0
O224 O 0.2566 0.84266 0.06533 0.0
O225 O 0.25893 0.82953 0.02102 0.0
O226 O 0.21187 0.86229 0.9958 0.0
O227 O 0.19962 0.87085 0.03768 0.0
H228 H 0.26456 0.78022 1.00385 0.0
H229 H 0.29857 0.76878 0.01086 0.0
H230 H 0.36723 0.79638 0.09347 0.0
H231 H 0.31899 0.83149 0.09737 0.0
H232 H 0.32586 0.99961 0.05354 0.0
H233 H 0.32105 0.94916 0.05259 0.0
H234 H 0.24494 0.99231 1.00543 0.0
H235 H 0.23916 0.94147 1.00613 0.0
H236 H 0.09693 0.84603 0.99309 0.0
H237 H 0.14396 0.78413 0.95794 0.0
H238 H 0.18707 0.8108 0.98317 0.0
H239 H 0.13985 0.87333 0.01721 0.0
C240 C 0.81732 0.18959 0.3043 0.0
C241 C 0.82808 0.16574 0.29267 0.0
C242 C 0.7816 0.13625 0.28331 0.0
C243 C 0.81069 0.14019 0.28166 0.0
C244 C 0.77066 0.16121 0.29213 0.0
C245 C 0.78798 0.18716 0.30214 0.0
U246 U 0.85684 0.26632 0.34629 0.0
O247 O 0.85311 0.30124 0.32084 0.0
O248 O 0.8235 0.29306 0.35037 0.0
C249 C 0.83062 0.30793 0.33104 0.0
C250 C 0.83685 0.2141 0.32224 0.0
C251 C 0.82043 0.33582 0.32937 0.0
C252 C 0.78047 0.36201 0.32884 0.0
C253 C 0.79165 0.33671 0.32803 0.0
C254 C 0.82613 0.38648 0.32839 0.0
C255 C 0.79759 0.38756 0.3305 0.0
C256 C 0.83756 0.36101 0.32844 0.0
C257 C 0.92058 0.28361 0.41334 0.0
C258 C 0.94329 0.31824 0.45283 0.0
C259 C 0.95105 0.27042 0.45236 0.0
C260 C 0.93411 0.26355 0.42626 0.0
C261 C 0.9552 0.29772 0.46683 0.0
C262 C 0.92645 0.31138 0.42662 0.0
C263 C 0.89818 0.27419 0.38846 0.0
O264 O 0.82876 0.22686 0.34451 0.0
O265 O 0.85613 0.23007 0.31257 0.0
O266 O 0.90237 0.27561 0.36251 0.0
O267 O 0.87178 0.2698 0.39151 0.0
H268 H 0.8504 0.16618 0.29379 0.0
H269 H 0.82073 0.1224 0.27477 0.0
H270 H 0.74862 0.16031 0.29322 0.0
H271 H 0.7784 0.20502 0.30976 0.0
H272 H 0.7583 0.36162 0.32902 0.0
H273 H 0.77763 0.31762 0.32705 0.0
H274 H 0.83983 0.40559 0.32825 0.0
H275 H 0.85972 0.3612 0.3284 0.0
H276 H 0.94568 0.33953 0.46274 0.0
H277 H 0.95979 0.25395 0.46193 0.0
H278 H 0.9305 0.242 0.41672 0.0
H279 H 0.91709 0.3277 0.41734 0.0
C280 C 0.65379 0.70661 0.9984 0.0
C281 C 0.63524 0.72433 0.98849 0.0
C282 C 0.67191 0.7633 0.99979 0.0
C283 C 0.64441 0.75266 0.98894 0.0
C284 C 0.6896 0.74594 0.01143 0.0
C285 C 0.68063 0.71771 0.01053 0.0
U286 U 0.59519 0.65058 0.99392 0.0
O287 O 0.58625 0.60594 0.97752 0.0
O288 O 0.58515 0.62042 0.02189 0.0
C289 C 0.58233 0.59916 1.00219 0.0
C290 C 0.64502 0.67685 0.99796 0.0
C291 C 0.59391 0.57495 0.01041 0.0
C292 C 0.63079 0.54646 0.01439 0.0
C293 C 0.6219 0.57173 0.00953 0.0
C294 C 0.58474 0.52916 0.02401 0.0
C295 C 0.6117 0.52466 0.01982 0.0
C296 C 0.57577 0.55424 0.01889 0.0
C297 C 0.52507 0.67463 0.98786 0.0
C298 C 0.48135 0.64471 0.97606 0.0
C299 C 0.48282 0.69399 0.99309 0.0
C300 C 0.51145 0.69724 0.99596 0.0
C301 C 0.46787 0.66812 0.98192 0.0
C302 C 0.51021 0.64791 0.97931 0.0
C303 C 0.55468 0.68 0.98784 0.0
O304 O 0.6333 0.67096 0.01973 0.0
O305 O 0.63191 0.66345 0.97419 0.0
O306 O 0.5644 0.66711 0.96654 0.0
O307 O 0.56922 0.67956 0.01198 0.0
H308 H 0.61397 0.71625 0.98004 0.0
H309 H 0.63047 0.76607 0.9803 0.0
H310 H 0.71079 0.75407 0.02005 0.0
H311 H 0.69476 0.7044 0.01895 0.0
H312 H 0.65175 0.54297 0.01145 0.0
H313 H 0.63629 0.58793 1.00364 0.0
H314 H 0.56987 0.51228 0.0279 0.0
H315 H 0.55418 0.55682 0.01985 0.0
H316 H 0.46954 0.62434 0.969 0.0
H317 H 0.47227 0.71172 0.99899 0.0
H318 H 0.52296 0.71755 1.00376 0.0
H319 H 0.52075 0.62991 0.97449 0.0
C320 C 0.66712 0.37701 0.35182 0.0
C321 C 0.65636 0.38731 0.3758 0.0
C322 C 0.67021 0.34905 0.39994 0.0
C323 C 0.65772 0.37349 0.39936 0.0
C324 C 0.68219 0.33914 0.37632 0.0
C325 C 0.68064 0.35299 0.35244 0.0
U326 U 0.65792 0.411 0.27839 0.0
O327 O 0.64714 0.37874 0.2413 0.0
O328 O 0.68934 0.40138 0.25071 0.0
C329 C 0.6724 0.38172 0.23439 0.0
C330 C 0.66269 0.39142 0.32663 0.0
C331 C 0.67752 0.37391 0.20502 0.0
C332 C 0.69647 0.34129 0.1725 0.0
C333 C 0.68945 0.34954 0.19902 0.0
C334 C 0.67827 0.38078 0.15628 0.0
C335 C 0.69388 0.35811 0.15087 0.0
C336 C 0.67093 0.38903 0.18303 0.0
C337 C 0.62569 0.48508 0.2775 0.0
C338 C 0.60425 0.52219 0.25698 0.0
C339 C 0.60978 0.52285 0.30672 0.0
C340 C 0.62152 0.49765 0.30386 0.0
C341 C 0.60045 0.53532 0.28325 0.0
C342 C 0.61727 0.49793 0.25428 0.0
C343 C 0.63799 0.45845 0.27272 0.0
O344 O 0.68303 0.40649 0.31803 0.0
O345 O 0.63977 0.38624 0.30899 0.0
O346 O 0.66444 0.45722 0.28038 0.0
O347 O 0.62227 0.43427 0.26979 0.0
H348 H 0.646 0.40574 0.37597 0.0
H349 H 0.64795 0.38131 0.4169 0.0
H350 H 0.69195 0.32029 0.37608 0.0
H351 H 0.68934 0.34456 0.33433 0.0
H352 H 0.70324 0.32111 0.1697 0.0
H353 H 0.69331 0.33648 0.2151 0.0
H354 H 0.67132 0.39232 0.13986 0.0
H355 H 0.6601 0.40707 0.18641 0.0
H356 H 0.59719 0.53074 0.23841 0.0
H357 H 0.60745 0.53239 0.32736 0.0
H358 H 0.6278 0.4884 0.32223 0.0
H359 H 0.62036 0.48881 0.23373 0.0
C360 C 0.03472 0.3354 0.80602 0.0
C361 C 0.01663 0.33358 0.78166 0.0
C362 C 0.0504 0.36419 0.75975 0.0
C363 C 0.02319 0.35024 0.76102 0.0
C364 C 0.06416 0.37272 0.78739 0.0
C365 C 0.05573 0.35896 0.8103 0.0
U366 U 0.0211 0.2657 0.84645 0.0
O367 O 0.04422 0.26428 0.8877 0.0
O368 O 0.99925 0.2672 0.88366 0.0
C369 C 0.0218 0.26485 0.90012 0.0
C370 C 0.03086 0.31498 0.82735 0.0
C371 C 0.02406 0.27422 0.93033 0.0
C372 C 0.05032 0.29569 0.97473 0.0
C373 C 0.0472 0.29164 0.9455 0.0
C374 C 1.00663 0.26632 0.97369 0.0
C375 C 0.03018 0.28263 0.98901 0.0
C376 C 1.00374 0.262 0.94477 0.0
C377 C 1.00095 0.18473 0.8166 0.0
C378 C 0.97771 0.14475 0.83549 0.0
C379 C 0.98914 0.13866 0.78867 0.0
C380 C 1.00118 0.16664 0.79199 0.0
C381 C 0.9763 0.12749 0.80988 0.0
C382 C 0.98995 0.1731 0.83887 0.0
C383 C 1.00906 0.21562 0.81608 0.0
O384 O 1.00598 0.30248 0.8295 0.0
O385 O 0.05011 0.29928 0.83385 0.0
O386 O 0.0346 0.22717 0.82558 0.0
O387 O 0.99061 0.23241 0.82139 0.0
H388 H 0.99742 0.31935 0.7783 0.0
H389 H 1.0069 0.34916 0.74515 0.0
H390 H 0.08319 0.38706 0.79078 0.0
H391 H 0.06772 0.36461 0.83062 0.0
H392 H 0.06863 0.30844 0.98619 0.0
H393 H 0.06321 0.30131 0.93488 0.0
H394 H 0.99097 0.25589 0.98424 0.0
H395 H 0.98607 0.24799 0.93366 0.0
H396 H 0.96776 0.13684 0.85216 0.0
H397 H 0.98789 0.12621 0.76854 0.0
H398 H 1.00922 0.17466 0.7744 0.0
H399 H 0.98957 0.18611 0.85836 0.0
C400 C 0.3206 0.81649 0.18984 0.0
C401 C 0.33645 0.82138 0.16845 0.0
C402 C 0.31031 0.7806 0.13677 0.0
C403 C 0.33166 0.80368 0.14284 0.0
C404 C 0.29364 0.77656 0.1581 0.0
C405 C 0.29883 0.79403 0.18416 0.0
U406 U 0.35183 0.85972 0.26768 0.0
O407 O 0.36009 0.83098 0.29827 0.0
O408 O 0.32585 0.85652 0.30218 0.0
C409 C 0.33907 0.83671 0.31133 0.0
C410 C 0.32971 0.83099 0.21908 0.0
C411 C 0.33549 0.82643 0.33832 0.0
C412 C 0.31881 0.78779 0.36224 0.0
C413 C 0.31855 0.80121 0.33836 0.0
C414 C 0.35217 0.82521 0.38705 0.0
C415 C 0.33468 0.79997 0.38794 0.0
C416 C 0.35233 0.83829 0.36293 0.0
C417 C 0.41539 0.9253 0.28138 0.0
C418 C 0.45101 0.95178 0.31768 0.0
C419 C 0.45746 0.95168 0.26964 0.0
C420 C 0.4315 0.93514 0.2617 0.0
C421 C 0.46846 0.95968 0.29777 0.0
C422 C 0.42507 0.93454 0.30964 0.0
C423 C 0.39138 0.90268 0.27092 0.0
O424 O 0.35339 0.82719 0.23258 0.0
O425 O 0.31854 0.85203 0.23082 0.0
O426 O 0.36522 0.90592 0.27272 0.0
O427 O 0.39586 0.87656 0.26871 0.0
H428 H 0.35341 0.83836 0.17189 0.0
H429 H 0.34586 0.80804 0.12848 0.0
H430 H 0.27699 0.75937 0.15493 0.0
H431 H 0.28645 0.78926 0.20038 0.0
H432 H 0.30749 0.76718 0.35916 0.0
H433 H 0.30622 0.79088 0.31927 0.0
H434 H 0.36708 0.83462 0.40464 0.0
H435 H 0.36653 0.85713 0.36324 0.0
H436 H 0.45808 0.95734 0.33958 0.0
H437 H 0.46949 0.95752 0.25353 0.0
H438 H 0.42456 0.92881 0.23977 0.0
H439 H 0.41319 0.92767 0.32551 0.0
C440 C 1.00621 0.63141 0.72153 0.0
C441 C 1.00255 0.62315 0.74711 0.0
C442 C 0.99857 0.67001 0.76483 0.0
C443 C 0.9985 0.64219 0.76863 0.0
C444 C 1.00233 0.67906 0.73927 0.0
C445 C 1.00577 0.65945 0.717 0.0
U446 U 1.00498 0.58134 0.65224 0.0
O447 O 0.99033 0.60928 0.62555 0.0
O448 O 0.03301 0.59872 0.62424 0.0
C449 C 0.01328 0.61239 0.61427 0.0
C450 C 1.00479 0.60789 0.70057 0.0
C451 C 1.00698 0.61209 0.58511 0.0
C452 C 0.98034 0.63166 0.55051 0.0
C453 C 0.98989 0.63161 0.57774 0.0
C454 C 1.005 0.59339 0.53729 0.0
C455 C 0.9932 0.61713 0.53024 0.0
C456 C 0.01252 0.59112 0.56514 0.0
C457 C 0.9802 0.50053 0.64757 0.0
C458 C 0.98616 0.45168 0.63936 0.0
C459 C 0.96003 0.4679 0.67589 0.0
C460 C 0.96501 0.49526 0.6695 0.0
C461 C 0.97145 0.44596 0.66148 0.0
C462 C 0.98995 0.47846 0.63224 0.0
C463 C 0.98703 0.52814 0.63912 0.0
O464 O 0.02743 0.598 0.69368 0.0
O465 O 0.98266 0.60286 0.68197 0.0
O466 O 0.01346 0.53837 0.64346 0.0
O467 O 0.97011 0.54704 0.64218 0.0
H468 H 1.00176 0.60141 0.75015 0.0
H469 H 0.99572 0.63522 0.78845 0.0
H470 H 1.00274 0.70096 0.73695 0.0
H471 H 1.00778 0.6661 0.69689 0.0
H472 H 0.96543 0.64571 0.54583 0.0
H473 H 0.98327 0.64642 0.59322 0.0
H474 H 1.00856 0.5767 0.52209 0.0
H475 H 0.02253 0.57357 0.57086 0.0
H476 H 0.99527 0.4356 0.62775 0.0
H477 H 0.94909 0.46415 0.6934 0.0
H478 H 0.95758 0.51207 0.68195 0.0
H479 H 1.00133 0.48218 0.615 0.0
C480 C 0.67651 0.35562 0.65129 0.0
C481 C 0.65447 0.3642 0.63456 0.0
C482 C 0.62256 0.35589 0.66926 0.0
C483 C 0.6277 0.3639 0.64325 0.0
C484 C 0.64465 0.34729 0.68567 0.0
C485 C 0.67099 0.34697 0.67675 0.0
U486 U 0.74367 0.3674 0.61092 0.0
O487 O 0.78734 0.37658 0.63137 0.0
O488 O 0.77383 0.33702 0.60426 0.0
C489 C 0.79462 0.35312 0.61997 0.0
C490 C 0.70544 0.35483 0.64362 0.0
C491 C 0.8187 0.34079 0.63403 0.0
C492 C 0.84647 0.32812 0.6748 0.0
C493 C 0.82181 0.33681 0.66226 0.0
C494 C 0.86522 0.32642 0.63129 0.0
C495 C 0.86883 0.32316 0.65963 0.0
C496 C 0.84065 0.33497 0.61879 0.0
C497 C 0.73225 0.4074 0.54255 0.0
C498 C 0.75484 0.41633 0.50173 0.0
C499 C 0.70972 0.42983 0.50541 0.0
C500 C 0.71006 0.4202 0.53141 0.0
C501 C 0.73078 0.42558 0.48824 0.0
C502 C 0.75522 0.40659 0.52788 0.0
C503 C 0.72938 0.39411 0.56838 0.0
O504 O 0.70912 0.3384 0.62135 0.0
O505 O 0.72292 0.37801 0.64811 0.0
O506 O 0.74093 0.40699 0.59287 0.0
O507 O 0.72691 0.36683 0.56683 0.0
H508 H 0.65778 0.37081 0.61472 0.0
H509 H 0.61115 0.37054 0.62997 0.0
H510 H 0.6416 0.34108 0.70573 0.0
H511 H 0.68736 0.34014 0.69011 0.0
H512 H 0.84858 0.32636 0.69677 0.0
H513 H 0.80558 0.34118 0.67483 0.0
H514 H 0.88202 0.32365 0.61903 0.0
H515 H 0.83924 0.33814 0.59717 0.0
H516 H 0.77397 0.41658 0.49295 0.0
H517 H 0.69252 0.44064 0.49902 0.0
H518 H 0.69242 0.42226 0.54268 0.0
H519 H 0.77345 0.39833 0.5365 0.0
C520 C 0.83519 0.68868 0.19864 0.0
C521 C 0.85762 0.67513 0.19111 0.0
C522 C 0.893 0.71093 0.22075 0.0
C523 C 0.88561 0.686 0.20164 0.0
C524 C 0.86997 0.72428 0.22818 0.0
C525 C 0.84192 0.71353 0.21743 0.0
U526 U 0.75206 0.65887 0.16834 0.0
O527 O 0.72167 0.68898 0.17497 0.0
O528 O 0.72559 0.65669 0.20213 0.0
C529 C 0.71356 0.67848 0.1967 0.0
C530 C 0.80535 0.67678 0.18679 0.0
C531 C 0.68502 0.68102 0.20464 0.0
C532 C 0.65687 0.69204 0.24189 0.0
C533 C 0.68279 0.6902 0.2325 0.0
C534 C 0.63416 0.6762 0.1955 0.0
C535 C 0.63156 0.68572 0.22372 0.0
C536 C 0.66033 0.67429 0.18612 0.0
C537 C 0.73034 0.59788 0.09951 0.0
C538 C 0.6977 0.55849 0.07378 0.0
C539 C 0.74438 0.56595 0.06228 0.0
C540 C 0.7503 0.58987 0.08258 0.0
C541 C 0.71827 0.5493 0.05818 0.0
C542 C 0.70366 0.58236 0.09415 0.0
C543 C 0.73824 0.62002 0.12448 0.0
O544 O 0.79013 0.68915 0.16934 0.0
O545 O 0.79176 0.65469 0.19442 0.0
O546 O 0.74203 0.61415 0.15004 0.0
O547 O 0.7417 0.64685 0.12251 0.0
H548 H 0.85348 0.65567 0.17711 0.0
H549 H 0.90089 0.67361 0.19527 0.0
H550 H 0.87362 0.74248 0.24381 0.0
H551 H 0.82536 0.72434 0.2245 0.0
H552 H 0.65702 0.69762 0.26398 0.0
H553 H 0.70136 0.6955 0.24745 0.0
H554 H 0.61646 0.66934 0.18012 0.0
H555 H 0.66111 0.66696 0.16446 0.0
H556 H 0.67732 0.54643 0.07116 0.0
H557 H 0.76077 0.55952 0.05084 0.0
H558 H 0.77103 0.60128 0.08602 0.0
H559 H 0.68765 0.58808 0.10649 0.0
C560 C 0.30207 0.99417 0.37544 0.0
C561 C 0.27681 0.98959 0.38624 0.0
C562 C 0.25337 1.00588 0.34574 0.0
C563 C 0.25233 0.99497 0.37107 0.0
C564 C 0.27886 0.01108 0.33575 0.0
C565 C 0.30284 1.00487 0.35026 0.0
U566 U 0.36366 0.9905 0.43442 0.0
O567 O 0.40211 0.97472 0.42477 0.0
O568 O 0.40117 0.02047 0.43554 0.0
C569 C 0.41579 1.0001 0.42929 0.0
C570 C 0.32899 0.99124 0.39016 0.0
C571 C 0.44202 1.00575 0.41858 0.0
C572 C 0.47221 1.00477 0.38284 0.0
C573 C 0.44591 0.99834 0.39078 0.0
C574 C 0.49018 0.02541 0.43011 0.0
C575 C 0.49422 0.01858 0.40247 0.0
C576 C 0.46422 0.01882 0.43807 0.0
C577 C 0.35619 1.00974 0.51325 0.0
C578 C 0.37579 0.01655 0.56221 0.0
C579 C 0.34029 0.04374 0.54662 0.0
C580 C 0.33964 0.03077 0.51966 0.0
C581 C 0.3562 0.03481 0.56863 0.0
C582 C 0.3757 1.00382 0.53457 0.0
C583 C 0.34901 0.99365 0.48489 0.0
O584 O 0.34191 0.01387 0.40581 0.0
O585 O 0.33384 0.96757 0.39925 0.0
O586 O 0.36239 0.97347 0.47522 0.0
O587 O 0.34221 1.00934 0.46625 0.0
H588 H 0.27607 0.98235 0.40626 0.0
H589 H 0.23278 0.9914 0.37934 0.0
H590 H 0.28018 0.01996 0.31662 0.0
H591 H 0.32235 1.00917 0.34209 0.0
H592 H 0.47544 1.0001 0.36134 0.0
H593 H 0.42891 0.98818 0.37538 0.0
H594 H 0.50708 0.0358 0.44547 0.0
H595 H 0.46132 0.02414 0.45961 0.0
H596 H 0.38979 1.01068 0.57859 0.0
H597 H 0.32499 0.05756 0.55067 0.0
H598 H 0.32413 0.0357 0.50401 0.0
H599 H 0.38967 0.98857 0.53034 0.0
C600 C 0.2148 0.98282 0.6824 0.0
C601 C 0.23767 1.002 0.6809 0.0
C602 C 0.26326 0.9651 0.659 0.0
C603 C 0.25962 0.99362 0.66676 0.0
C604 C 0.23635 0.95028 0.64991 0.0
C605 C 0.21249 0.9583 0.66271 0.0
U606 U 0.1733 1.00849 0.74827 0.0
O607 O 0.13271 0.02412 0.74182 0.0
O608 O 0.1352 0.98335 0.75671 0.0
C609 C 0.1196 1.00253 0.75075 0.0
C610 C 0.19249 0.98935 0.70105 0.0
C611 C 0.08914 0.99566 0.74403 0.0
C612 C 0.04594 0.99089 0.71258 0.0
C613 C 0.07513 0.99367 0.71696 0.0
C614 C 0.04468 0.99055 0.76189 0.0
C615 C 0.03068 0.99017 0.73523 0.0
C616 C 0.07362 0.99336 0.76625 0.0
C617 C 0.20408 0.04401 0.8259 0.0
C618 C 0.18477 0.04937 0.87059 0.0
C619 C 0.23235 0.06776 0.86878 0.0
C620 C 0.22919 0.05846 0.84014 0.0
C621 C 0.21055 0.06294 0.88477 0.0
C622 C 0.18151 0.0401 0.84146 0.0
C623 C 0.20398 0.03192 0.79576 0.0
O624 O 0.18793 0.97441 0.72112 0.0
O625 O 0.18804 0.01533 0.70781 0.0
O626 O 0.19548 0.04612 0.77593 0.0
O627 O 0.19739 1.00489 0.78863 0.0
H628 H 0.23903 0.02324 0.69101 0.0
H629 H 0.27546 1.00961 0.66664 0.0
H630 H 0.23412 0.9314 0.63546 0.0
H631 H 0.19313 0.94441 0.65877 0.0
H632 H 0.03535 0.99065 0.69184 0.0
H633 H 0.08668 0.99528 0.6995 0.0
H634 H 0.03324 0.9904 0.7796 0.0
H635 H 0.08396 0.99511 0.78731 0.0
H636 H 0.16746 0.04525 0.88215 0.0
H637 H 0.25249 0.07798 0.8788 0.0
H638 H 0.24701 0.06185 0.82914 0.0
H639 H 0.16162 0.02935 0.8314 0.0
C640 C 0.65735 0.67717 0.35735 0.0
C641 C 0.64324 0.65576 0.36935 0.0
C642 C 0.67668 0.62432 0.35607 0.0
C643 C 0.65291 0.62948 0.36872 0.0
C644 C 0.68984 0.6454 0.3432 0.0
C645 C 0.68028 0.6714 0.34384 0.0
U646 U 0.61415 0.74203 0.36765 0.0
O647 O 0.63355 0.78608 0.37747 0.0
O648 O 0.60796 0.77159 0.33732 0.0
C649 C 0.62318 0.79259 0.35345 0.0
C650 C 0.64956 0.70585 0.35788 0.0
C651 C 0.63895 0.81423 0.34015 0.0
C652 C 0.68172 0.84209 0.3323 0.0
C653 C 0.66806 0.81786 0.34069 0.0
C654 C 0.63724 0.85753 0.32024 0.0
C655 C 0.66644 0.86279 0.32311 0.0
C656 C 0.62381 0.83383 0.32888 0.0
C657 C 0.54266 0.73134 0.40162 0.0
C658 C 0.50064 0.75364 0.40598 0.0
C659 C 0.5086 0.71459 0.43052 0.0
C660 C 0.53322 0.71246 0.41897 0.0
C661 C 0.49163 0.73493 0.42408 0.0
C662 C 0.52619 0.75218 0.39518 0.0
C663 C 0.56916 0.72703 0.39038 0.0
O664 O 0.62918 0.70968 0.33965 0.0
O665 O 0.6507 0.72181 0.38176 0.0
O666 O 0.59292 0.73831 0.40497 0.0
O667 O 0.56979 0.72459 0.36349 0.0
H668 H 0.62516 0.6594 0.37946 0.0
H669 H 0.64224 0.61339 0.37856 0.0
H670 H 0.70801 0.64193 0.3332 0.0
H671 H 0.69122 0.68736 0.33406 0.0
H672 H 0.7042 0.8456 0.33491 0.0
H673 H 0.68028 0.80285 0.34889 0.0
H674 H 0.62482 0.87328 0.31396 0.0
H675 H 0.60144 0.83177 0.32844 0.0
H676 H 0.48813 0.76962 0.4006 0.0
H677 H 0.50239 0.69969 0.44409 0.0
H678 H 0.54503 0.69574 0.42362 0.0
H679 H 0.53289 0.76712 0.38184 0.0
C680 C 0.68078 0.20996 0.99356 0.0
C681 C 0.68573 0.23657 1.00819 0.0
C682 C 0.65374 0.25627 0.97368 0.0
C683 C 0.67049 0.25779 1.0 0.0
C684 C 0.64354 0.22784 0.96286 0.0
C685 C 0.65688 0.20509 0.97281 0.0
U686 U 0.74972 0.17139 0.01386 0.0
O687 O 0.74845 0.13047 0.02898 0.0
O688 O 0.75864 0.13472 0.98683 0.0
C689 C 0.75591 0.11834 1.00599 0.0
C690 C 0.69948 0.18759 0.99997 0.0
C691 C 0.74689 0.08838 0.99731 0.0
C692 C 0.7134 0.04671 0.9936 0.0
C693 C 0.71942 0.07589 0.99678 0.0
C694 C 0.76171 0.04261 0.98925 0.0
C695 C 0.73485 0.0301 0.99095 0.0
C696 C 0.76768 0.07152 0.99246 0.0
C697 C 0.82812 0.20607 0.0403 0.0
C698 C 0.87224 0.18684 0.0504 0.0
C699 C 0.87206 0.23664 0.0552 0.0
C700 C 0.84335 0.23276 0.04683 0.0
C701 C 0.88706 0.21396 0.05733 0.0
C702 C 0.84299 0.18288 0.04214 0.0
C703 C 0.7971 0.2046 0.03201 0.0
O704 O 0.71711 0.1813 0.98281 0.0
O705 O 0.71007 0.1858 0.02563 0.0
O706 O 0.78008 0.19481 0.04852 0.0
O707 O 0.78707 0.19804 1.00561 0.0
H708 H 0.70153 0.2409 0.02605 0.0
H709 H 0.67225 0.27505 0.01532 0.0
H710 H 0.6285 0.22337 0.94441 0.0
H711 H 0.65072 0.18424 0.96194 0.0
H712 H 0.69248 0.03716 0.99466 0.0
H713 H 0.70304 0.08859 1.00011 0.0
H714 H 0.77845 0.03003 0.98735 0.0
H715 H 0.789 0.08074 0.9928 0.0
H716 H 0.88326 0.16886 0.05156 0.0
H717 H 0.88269 0.25774 0.06022 0.0
H718 H 0.83287 0.25101 0.0456 0.0
H719 H 0.8322 0.16185 0.03728 0.0
C720 C 0.1982 0.83479 0.70409 0.0
C721 C 0.17929 0.85416 0.7001 0.0
C722 C 0.21318 0.89383 0.72571 0.0
C723 C 0.18633 0.88293 0.71131 0.0
C724 C 0.23105 0.8737 0.73105 0.0
C725 C 0.22378 0.84506 0.72051 0.0
U726 U 0.16956 0.75635 0.66095 0.0
O727 O 0.19866 0.72507 0.65361 0.0
O728 O 0.16808 0.71901 0.68307 0.0
C729 C 0.18855 0.70955 0.67122 0.0
C730 C 0.19234 0.80392 0.69253 0.0
C731 C 0.19964 0.68328 0.67748 0.0
C732 C 0.23143 0.65846 0.70484 0.0
C733 C 0.21951 0.68294 0.70063 0.0
C734 C 0.20411 0.63445 0.66284 0.0
C735 C 0.22563 0.63443 0.68467 0.0
C736 C 0.19113 0.6583 0.6595 0.0
C737 C 0.10957 0.74144 0.59413 0.0
C738 C 0.07458 0.7038 0.56869 0.0
C739 C 0.08701 0.7446 0.5473 0.0
C740 C 0.10485 0.75634 0.57154 0.0
C741 C 0.07217 0.71767 0.54476 0.0
C742 C 0.09383 0.71499 0.59259 0.0
C743 C 0.12948 0.7557 0.61906 0.0
O744 O 0.17009 0.78844 0.69751 0.0
O745 O 0.20158 0.79404 0.66959 0.0
O746 O 0.15612 0.75995 0.61678 0.0
O747 O 0.12475 0.75173 0.64431 0.0
H748 H 0.15959 0.84735 0.68717 0.0
H749 H 0.17229 0.8973 0.70498 0.0
H750 H 0.25209 0.88057 0.74097 0.0
H751 H 0.23889 0.83093 0.72435 0.0
H752 H 0.24581 0.65878 0.72347 0.0
H753 H 0.22615 0.70172 0.71525 0.0
H754 H 0.19775 0.61607 0.64766 0.0
H755 H 0.17498 0.65741 0.64221 0.0
H756 H 0.06213 0.68392 0.56874 0.0
H757 H 0.08473 0.75683 0.53033 0.0
H758 H 0.11523 0.77737 0.57257 0.0
H759 H 0.09625 0.70305 0.60979 0.0
C760 C 0.37572 0.30794 0.99368 0.0
C761 C 0.39153 0.28575 0.9952 0.0
C762 C 0.35177 0.25712 1.00722 0.0
C763 C 0.37951 0.26033 1.00187 0.0
C764 C 0.33622 0.27935 1.00595 0.0
C765 C 0.34814 0.30457 0.99924 0.0
U766 U 0.436 0.36625 0.99081 0.0
O767 O 0.43491 0.40538 0.97262 0.0
O768 O 0.44193 0.40587 0.01814 0.0
C769 C 0.43958 0.42041 0.99732 0.0
C770 C 0.38786 0.33593 0.98987 0.0
C771 C 0.426 0.44526 1.00198 0.0
C772 C 0.38622 0.46999 1.00638 0.0
C773 C 0.39706 0.44502 0.99963 0.0
C774 C 0.43303 0.49462 0.01815 0.0
C775 C 0.40431 0.49475 0.01592 0.0
C776 C 0.44372 0.47007 0.01101 0.0
C777 C 0.51231 0.35288 0.01049 0.0
C778 C 0.56083 0.37337 0.01352 0.0
C779 C 0.54724 0.34206 0.04567 0.0
C780 C 0.51999 0.33902 0.03303 0.0
C781 C 0.56843 0.35636 0.03398 0.0
C782 C 0.53266 0.37179 1.00184 0.0
C783 C 0.48296 0.34524 0.99753 0.0
O784 O 0.40222 0.3502 0.01241 0.0
O785 O 0.39928 0.33918 0.96711 0.0
O786 O 0.47364 0.35296 0.97366 0.0
O787 O 0.46535 0.34649 0.01567 0.0
H788 H 0.41303 0.28812 0.99146 0.0
H789 H 0.39155 0.24304 1.00245 0.0
H790 H 0.31472 0.277 0.00974 0.0
H791 H 0.33587 0.32167 0.99873 0.0
H792 H 0.36393 0.47009 1.0046 0.0
H793 H 0.38307 0.42585 0.99296 0.0
H794 H 0.44714 0.51366 0.02508 0.0
H795 H 0.46605 0.47035 0.01296 0.0
H796 H 0.57661 0.38625 1.00523 0.0
H797 H 0.55229 0.32891 0.06132 0.0
H798 H 0.505 0.32404 0.03986 0.0
H799 H 0.5272 0.38407 0.98546 0.0
C800 C 0.37093 0.66093 0.67621 0.0
C801 C 0.39007 0.65657 0.65726 0.0
C802 C 0.36164 0.67685 0.62162 0.0
C803 C 0.3858 0.66511 0.63061 0.0
C804 C 0.34185 0.67894 0.64021 0.0
C805 C 0.34719 0.6728 0.66734 0.0
U806 U 0.37878 0.61535 0.73882 0.0
O807 O 0.39014 0.63034 0.78363 0.0
O808 O 0.34707 0.61203 0.76731 0.0
C809 C 0.36484 0.62291 0.7892 0.0
C810 C 0.37408 0.65418 0.70539 0.0
C811 C 0.35477 0.63825 0.81325 0.0
C812 C 0.32372 0.66716 0.83558 0.0
C813 C 0.3336 0.65554 0.8113 0.0
C814 C 0.35641 0.64478 0.86336 0.0
C815 C 0.33538 0.66212 0.86194 0.0
C816 C 0.36565 0.63285 0.83944 0.0
C817 C 0.40449 0.5399 0.72599 0.0
C818 C 0.41348 0.50168 0.75273 0.0
C819 C 0.4285 0.50207 0.7074 0.0
C820 C 0.41737 0.52688 0.7048 0.0
C821 C 0.42715 0.48919 0.73142 0.0
C822 C 0.4025 0.5271 0.75022 0.0
C823 C 0.39587 0.56759 0.72166 0.0
O824 O 0.35369 0.63739 0.71137 0.0
O825 O 0.39807 0.65041 0.71852 0.0
O826 O 0.4126 0.58993 0.73353 0.0
O827 O 0.36948 0.57117 0.71901 0.0
H828 H 0.40836 0.64694 0.66303 0.0
H829 H 0.40125 0.66209 0.61674 0.0
H830 H 0.32178 0.6851 0.63393 0.0
H831 H 0.33236 0.67728 0.6815 0.0
H832 H 0.30689 0.67972 0.8338 0.0
H833 H 0.32442 0.65963 0.79123 0.0
H834 H 0.36525 0.63973 0.88319 0.0
H835 H 0.38111 0.61874 0.84141 0.0
H836 H 0.41172 0.492 0.77137 0.0
H837 H 0.43819 0.49277 0.69039 0.0
H838 H 0.41912 0.53621 0.68598 0.0
H839 H 0.39287 0.53672 0.76713 0.0
C840 C 0.9839 0.68383 0.20785 0.0
C841 C 1.00164 0.68043 0.23105 0.0
C842 C 0.96204 0.67221 0.25926 0.0
C843 C 0.99074 0.67342 0.25501 0.0
C844 C 0.94486 0.66698 0.23339 0.0
C845 C 0.95566 0.67307 0.20806 0.0
U846 U 0.01418 0.74673 0.1682 0.0
O847 O 0.03511 0.74356 0.13019 0.0
O848 O 0.99314 0.75637 0.1293 0.0
C849 C 0.01433 0.75253 0.11579 0.0
C850 C 0.9944 0.69789 0.18397 0.0
C851 C 1.00872 0.7452 0.08559 0.0
C852 C 0.98399 0.7175 0.04349 0.0
C853 C 0.99079 0.72147 0.07249 0.0
C854 C 0.01301 0.76076 0.04096 0.0
C855 C 0.99539 0.73707 0.02761 0.0
C856 C 0.0195 0.76482 0.06966 0.0
C857 C 0.0417 0.82491 0.20384 0.0
C858 C 0.0505 0.86975 0.18545 0.0
C859 C 0.05971 0.86824 0.23469 0.0
C860 C 0.0509 0.83947 0.23045 0.0
C861 C 0.05965 0.88406 0.2125 0.0
C862 C 0.0418 0.84043 0.18112 0.0
C863 C 0.03113 0.79421 0.20198 0.0
O864 O 0.97919 0.71529 0.17329 0.0
O865 O 0.02105 0.70692 0.18492 0.0
O866 O 0.04769 0.77574 0.19531 0.0
O867 O 1.00508 0.78564 0.19185 0.0
H868 H 0.02395 0.68504 0.23163 0.0
H869 H 1.00606 0.67204 0.27111 0.0
H870 H 0.92312 0.65978 0.23313 0.0
H871 H 0.94214 0.67092 0.18874 0.0
H872 H 0.97019 0.69916 0.03342 0.0
H873 H 0.98189 0.70637 0.08459 0.0
H874 H 0.02164 0.77627 0.02909 0.0
H875 H 0.03259 0.7837 0.07952 0.0
H876 H 0.04985 0.88123 0.1678 0.0
H877 H 0.06631 0.87839 0.25575 0.0
H878 H 0.05092 0.82849 0.2484 0.0
H879 H 0.03491 0.83011 0.16017 0.0
C880 C 0.69883 0.2154 0.8298 0.0
C881 C 0.69321 0.20442 0.85413 0.0
C882 C 0.72449 0.24339 0.88555 0.0
C883 C 0.70554 0.21787 0.88097 0.0
C884 C 0.72879 0.25461 0.86061 0.0
C885 C 0.71673 0.24085 0.83369 0.0
U886 U 0.6633 0.17334 0.75128 0.0
O887 O 0.65808 0.19954 0.71753 0.0
O888 O 0.69061 0.1716 0.71763 0.0
C889 C 0.67779 0.1896 0.70479 0.0
C890 C 0.68631 0.20073 0.80076 0.0
C891 C 0.68752 0.20166 0.68032 0.0
C892 C 0.70516 0.24231 0.65968 0.0
C893 C 0.70196 0.22875 0.68316 0.0
C894 C 0.68169 0.20121 0.62984 0.0
C895 C 0.69348 0.22931 0.63294 0.0
C896 C 0.67882 0.18751 0.65331 0.0
C897 C 0.6024 0.10539 0.73559 0.0
C898 C 0.56267 0.08312 0.70153 0.0
C899 C 0.57125 0.06522 0.7451 0.0
C900 C 0.59495 0.08528 0.75276 0.0
C901 C 0.55407 0.06456 0.71987 0.0
C902 C 0.58648 0.10336 0.70926 0.0
C903 C 0.62442 0.12957 0.74776 0.0
O904 O 0.69607 0.17929 0.7881 0.0
O905 O 0.66377 0.20708 0.78686 0.0
O906 O 0.61901 0.15534 0.74771 0.0
O907 O 0.65107 0.12739 0.74902 0.0
H908 H 0.679 0.18529 0.85246 0.0
H909 H 0.69933 0.20773 0.89803 0.0
H910 H 0.74134 0.27432 0.86125 0.0
H911 H 0.72144 0.25037 0.81562 0.0
H912 H 0.71433 0.26396 0.66264 0.0
H913 H 0.70918 0.24011 0.70361 0.0
H914 H 0.67238 0.1907 0.60954 0.0
H915 H 0.6678 0.16656 0.65041 0.0
H916 H 0.55013 0.08284 0.68174 0.0
H917 H 0.5653 0.05139 0.75975 0.0
H918 H 0.60669 0.08611 0.77306 0.0
H919 H 0.59168 0.11802 0.69512 0.0
C920 C 0.997 0.37596 0.30464 0.0
C921 C 0.0104 0.39113 0.28625 0.0
C922 C 1.00775 0.34873 0.25368 0.0
C923 C 0.01617 0.37751 0.26119 0.0
C924 C 0.9931 0.33392 0.2715 0.0
C925 C 0.98814 0.34738 0.29699 0.0
U926 U 0.99331 0.43855 0.35951 0.0
O927 O 0.97349 0.44059 0.39779 0.0
O928 O 0.0189 0.45029 0.39972 0.0
C929 C 0.99752 0.4476 0.41359 0.0
C930 C 0.99482 0.38877 0.33296 0.0
C931 C 1.00188 0.43412 0.43833 0.0
C932 C 0.02219 0.39997 0.46295 0.0
C933 C 0.01368 0.40928 0.43795 0.0
C934 C 1.00488 0.43883 0.48837 0.0
C935 C 0.01836 0.41506 0.48844 0.0
C936 C 0.99713 0.44854 0.46346 0.0
C937 C 0.99724 0.51309 0.34267 0.0
C938 C 0.02935 0.55343 0.36597 0.0
C939 C 0.99671 0.55771 0.32616 0.0
C940 C 0.98575 0.52981 0.32449 0.0
C941 C 0.01983 0.56969 0.34585 0.0
C942 C 0.01752 0.52557 0.36488 0.0
C943 C 0.99282 0.48267 0.33417 0.0
O944 O 0.017 0.40539 0.34533 0.0
O945 O 0.9714 0.39843 0.33722 0.0
O946 O 0.96983 0.46852 0.33938 0.0
O947 O 0.01497 0.47028 0.33905 0.0
H948 H 0.01715 0.4133 0.29161 0.0
H949 H 0.02713 0.38944 0.24755 0.0
H950 H 0.98614 0.31181 0.26598 0.0
H951 H 0.97797 0.33534 0.31103 0.0
H952 H 0.03159 0.38086 0.46238 0.0
H953 H 0.01704 0.39762 0.41857 0.0
H954 H 1.00051 0.45 0.50755 0.0
H955 H 0.98798 0.46774 0.46384 0.0
H956 H 0.04706 0.56138 0.38137 0.0
H957 H 0.98847 0.56926 0.31027 0.0
H958 H 0.96994 0.52073 0.3074 0.0
H959 H 0.02601 0.51311 0.37984 0.0
C960 C 0.2909 0.52053 0.66434 0.0
N961 N 0.28332 0.54203 0.65107 0.0
N962 N 0.30413 0.5032 0.64805 0.0
C963 C 0.2877 0.51808 0.69423 0.0
C964 C 0.30515 0.51574 0.62463 0.0
N965 N 0.29234 0.53926 0.62617 0.0
C966 C 0.3186 0.50465 0.60013 0.0
H967 H 0.30494 0.53184 0.70774 0.0
H968 H 0.28866 0.49655 0.69895 0.0
H969 H 0.26793 0.52508 0.69952 0.0
H970 H 0.30715 0.48404 0.59079 0.0
H971 H 0.34024 0.50143 0.60684 0.0
H972 H 0.31912 0.51893 0.58419 0.0
C973 C 0.34908 0.61537 0.05027 0.0
N974 N 0.3484 0.5903 0.03359 0.0
N975 N 0.3268 0.62958 0.04327 0.0
C976 C 0.37124 0.62469 0.07467 0.0
C977 C 0.31082 0.60786 0.02409 0.0
N978 N 0.32417 0.58478 0.01783 0.0
C979 C 0.28032 0.60675 0.01445 0.0
H980 H 0.36222 0.62152 0.09402 0.0
H981 H 0.37931 0.64682 0.07599 0.0
H982 H 0.38887 0.61238 0.07369 0.0
H983 H 0.27684 0.60417 0.99137 0.0
H984 H 0.2719 0.62544 0.02356 0.0
H985 H 0.26866 0.58793 0.02022 0.0
C986 C 0.70832 1.0049 0.30732 0.0
N987 N 0.6987 0.98314 0.32965 0.0
N988 N 0.70886 0.03876 0.32319 0.0
C989 C 0.70896 0.99593 0.27686 0.0
C990 C 0.69644 0.02986 0.36249 0.0
N991 N 0.69283 0.99678 0.358 0.0
C992 C 0.69935 0.04412 0.39419 0.0
H993 H 0.73035 0.99942 0.27145 0.0
H994 H 0.69566 1.00717 0.26385 0.0
H995 H 0.70057 0.97365 0.27112 0.0
H996 H 0.68296 0.0576 0.39762 0.0
H997 H 0.71989 0.05539 0.40349 0.0
H998 H 0.69979 0.02948 0.40944 0.0
C999 C 0.72393 0.89381 0.98933 0.0
N1000 N 0.74069 0.91606 1.00409 0.0
N1001 N 0.73122 0.87004 0.99742 0.0
C1002 C 0.69937 0.89489 0.96794 0.0
C1003 C 0.754 0.87816 0.01623 0.0
N1004 N 0.7591 0.90643 0.02184 0.0
C1005 C 0.77115 0.85788 0.02862 0.0
H1006 H 0.6908 0.91493 0.9711 0.0
H1007 H 0.68268 0.87749 0.9681 0.0
H1008 H 0.70615 0.89226 0.947 0.0
H1009 H 0.77606 0.84269 0.01169 0.0
H1010 H 0.75885 0.84562 0.04179 0.0
H1011 H 0.79081 0.86852 0.04085 0.0
C1012 C 0.66659 0.29037 0.5194 0.0
N1013 N 0.65504 0.28849 0.54368 0.0
N1014 N 0.65069 0.30254 0.50106 0.0
C1015 C 0.68922 0.27451 0.50969 0.0
C1016 C 0.62733 0.30493 0.51304 0.0
N1017 N 0.62938 0.29608 0.53863 0.0
C1018 C 0.60206 0.31505 0.49888 0.0
H1019 H 0.70883 0.28885 0.51106 0.0
H1020 H 0.68367 0.26604 0.48737 0.0
H1021 H 0.69232 0.25666 0.52116 0.0
H1022 H 0.6001 0.30968 0.47605 0.0
H1023 H 0.60422 0.33811 0.50333 0.0
H1024 H 0.58267 0.30605 0.50597 0.0
C1025 C 0.98367 0.72746 0.88885 0.0
N1026 N 0.99826 0.74061 0.91283 0.0
N1027 N 0.99603 0.73492 0.86706 0.0
C1028 C 0.95866 0.70574 0.88668 0.0
C1029 C 0.01755 0.75437 0.87845 0.0
N1030 N 0.01925 0.75747 0.90635 0.0
C1031 C 0.03862 0.76821 0.86233 0.0
H1032 H 0.96381 0.68521 0.87784 0.0
H1033 H 0.94136 0.71098 0.87244 0.0
H1034 H 0.9514 0.70411 0.90715 0.0
H1035 H 0.03519 0.79021 0.86174 0.0
H1036 H 0.03677 0.75843 0.84044 0.0
H1037 H 0.06005 0.7681 0.87259 0.0
C1038 C 0.04392 0.36355 0.60939 0.0
N1039 N 0.03023 0.35952 0.58322 0.0
N1040 N 0.03179 0.34671 0.62588 0.0
C1041 C 0.07323 0.37789 0.61659 0.0
C1042 C 0.01204 0.32942 0.60718 0.0
N1043 N 0.01085 0.33716 0.58097 0.0
C1044 C 0.99724 0.30257 0.61315 0.0
H1045 H 0.08125 0.38641 0.59863 0.0
H1046 H 0.08674 0.36242 0.62303 0.0
H1047 H 0.07454 0.3949 0.63403 0.0
H1048 H 0.97462 0.30134 0.60651 0.0
H1049 H 1.00142 0.30012 0.63543 0.0
H1050 H 1.0045 0.28502 0.60056 0.0
C1051 C 0.31131 0.70829 0.99746 0.0
N1052 N 0.33283 0.69481 0.97843 0.0
N1053 N 0.3238 0.71049 0.03116 0.0
C1054 C 0.2807 0.70892 0.98771 0.0
C1055 C 0.36266 0.69247 0.02654 0.0
N1056 N 0.35921 0.68679 0.99337 0.0
C1057 C 0.39341 0.69553 0.04272 0.0
H1058 H 0.27594 0.72967 0.98344 0.0
H1059 H 0.26814 0.70316 1.00412 0.0
H1060 H 0.2736 0.6949 0.968 0.0
H1061 H 0.39716 0.67653 0.05173 0.0
H1062 H 0.40189 0.71273 0.05946 0.0
H1063 H 0.40875 0.6995 0.02831 0.0
C1064 C 0.52085 0.6705 0.29337 0.0
N1065 N 0.54284 0.65705 0.28674 0.0
N1066 N 0.50113 0.65311 0.30245 0.0
C1067 C 0.51929 0.70114 0.292 0.0
C1068 C 0.5118 0.62849 0.30058 0.0
N1069 N 0.53836 0.63111 0.29355 0.0
C1070 C 0.4933 0.60119 0.29932 0.0
H1071 H 0.53191 0.71372 0.3105 0.0
H1072 H 0.49824 0.70692 0.29263 0.0
H1073 H 0.52736 0.70756 0.27315 0.0
H1074 H 0.47206 0.60302 0.28956 0.0
H1075 H 0.49122 0.59619 0.32054 0.0
H1076 H 0.50107 0.58385 0.28697 0.0
C1077 C 0.89443 0.99289 0.72227 0.0
N1078 N 0.91681 1.00724 0.73918 0.0
N1079 N 0.87075 1.00163 0.72938 0.0
C1080 C 0.89548 0.9719 0.69722 0.0
C1081 C 0.8793 0.02156 0.75144 0.0
N1082 N 0.90746 0.02607 0.75689 0.0
C1083 C 0.85983 0.03777 0.76644 0.0
H1084 H 0.91595 0.97438 0.68953 0.0
H1085 H 0.87902 0.97367 0.68018 0.0
H1086 H 0.89141 0.9506 0.70297 0.0
H1087 H 0.84125 0.0235 0.76922 0.0
H1088 H 0.85251 0.05348 0.75373 0.0
H1089 H 0.87012 0.04846 0.78698 0.0
C1090 C 0.61312 0.05233 0.34734 0.0
N1091 N 0.58861 0.0351 0.34639 0.0
N1092 N 0.62843 0.04456 0.32642 0.0
C1093 C 0.62187 0.07718 0.36915 0.0
C1094 C 0.6074 0.02518 0.30971 0.0
N1095 N 0.58407 0.0186 0.32246 0.0
C1096 C 0.60871 0.01296 0.28007 0.0
H1097 H 0.62137 0.09631 0.35904 0.0
H1098 H 0.64317 0.0769 0.37932 0.0
H1099 H 0.60756 0.07811 0.38513 0.0
H1100 H 0.60462 0.98981 0.2779 0.0
H1101 H 0.62889 0.01978 0.27313 0.0
H1102 H 0.59179 0.01905 0.26598 0.0
C1103 C 1.00333 0.30322 0.71422 0.0
N1104 N 0.98437 0.32006 0.70401 0.0
N1105 N 0.03136 0.3148 0.71769 0.0
C1106 C 0.99463 0.27437 0.72057 0.0
C1107 C 0.02938 0.33902 0.70089 0.0
N1108 N 0.99962 0.34225 0.69661 0.0
C1109 C 0.07743 0.37337 0.68709 0.0
H1110 H 0.98819 0.2754 0.74154 0.0
H1111 H 0.01119 0.26114 0.72093 0.0
H1112 H 0.97829 0.26334 0.7041 0.0
H1113 H 0.08947 0.36613 0.66996 0.0
H1114 H 0.09681 0.37932 0.70271 0.0
H1115 H 0.07781 0.39543 0.68202 0.0
C1116 C 0.73544 0.50408 0.35436 0.0
N1117 N 0.73987 0.48088 0.36639 0.0
N1118 N 0.71993 0.52023 0.36911 0.0
C1119 C 0.74727 0.51177 0.3288 0.0
C1120 C 0.71605 0.50675 0.39134 0.0
N1121 N 0.72782 0.48266 0.38986 0.0
C1122 C 0.70105 0.51763 0.41484 0.0
H1123 H 0.75329 0.53464 0.33083 0.0
H1124 H 0.73129 0.50573 0.31038 0.0
H1125 H 0.7655 0.50097 0.32504 0.0
H1126 H 0.67834 0.51271 0.40839 0.0
H1127 H 0.70574 0.54056 0.41986 0.0
H1128 H 0.70668 0.50835 0.43395 0.0
C1129 C 0.65542 0.40569 0.97292 0.0
N1130 N 0.66212 0.43186 0.98661 0.0
N1131 N 0.67593 0.38966 0.97785 0.0
C1132 C 0.62971 0.39701 0.95189 0.0
C1133 C 0.69691 0.40927 0.99315 0.0
N1134 N 0.68831 0.43531 0.99848 0.0
C1135 C 0.72642 0.40398 1.0002 0.0
H1136 H 0.61164 0.40638 0.95883 0.0
H1137 H 0.62399 0.37456 0.94692 0.0
H1138 H 0.63378 0.40366 0.93175 0.0
H1139 H 0.72935 0.38244 0.99222 0.0
H1140 H 0.733 0.40735 0.02286 0.0
H1141 H 0.7404 0.41921 0.99142 0.0
C1142 C 0.30224 0.0199 0.71363 0.0
N1143 N 0.31616 0.03665 0.69747 0.0
N1144 N 0.30028 0.99094 0.7049 0.0
C1145 C 0.28725 0.03369 0.73568 0.0
C1146 C 0.32035 0.99251 0.68232 0.0
N1147 N 0.3245 0.0211 0.6766 0.0
C1148 C 0.3379 0.94236 0.65532 0.0
H1149 H 0.3 0.03538 0.75622 0.0
H1150 H 0.26615 0.02284 0.7356 0.0
H1151 H 0.28478 0.05547 0.73262 0.0
H1152 H 0.32522 0.92138 0.65536 0.0
H1153 H 0.35768 0.93445 0.66255 0.0
H1154 H 0.34012 0.93803 0.63251 0.0
C1155 C 0.29094 0.13363 0.02845 0.0
N1156 N 0.27714 0.10958 0.01443 0.0
N1157 N 0.28562 0.15508 0.01472 0.0
C1158 C 0.31105 0.136 0.05491 0.0
C1159 C 0.26646 0.1434 0.99281 0.0
N1160 N 0.26138 0.11529 0.99213 0.0
C1161 C 0.25419 0.15988 0.97135 0.0
H1162 H 0.30016 0.14217 0.0729 0.0
H1163 H 0.32906 0.15212 0.05507 0.0
H1164 H 0.31879 0.11606 0.05831 0.0
H1165 H 0.27019 0.17496 0.96512 0.0
H1166 H 0.23921 0.17229 0.98082 0.0
H1167 H 0.24363 0.14668 0.95227 0.0
C1168 C 0.35441 0.72952 0.49781 0.0
N1169 N 0.36858 0.73876 0.47746 0.0
N1170 N 0.37082 0.71692 0.51551 0.0
C1171 C 0.32491 0.73384 0.50142 0.0
C1172 C 0.3954 0.71869 0.50513 0.0
N1173 N 0.39415 0.73162 0.48202 0.0
C1174 C 0.42081 0.70771 0.51761 0.0
H1175 H 0.32481 0.755 0.51258 0.0
H1176 H 0.31562 0.71829 0.51365 0.0
H1177 H 0.31158 0.73254 0.48139 0.0
H1178 H 0.42062 0.68585 0.50803 0.0
H1179 H 0.42105 0.708 0.54034 0.0
H1180 H 0.44005 0.72004 0.51346 0.0
C1181 C 0.03355 0.2905 0.12684 0.0
N1182 N 0.01782 0.27729 0.10311 0.0
N1183 N 0.01831 0.29189 0.1482 0.0
C1184 C 0.06384 0.30186 0.12944 0.0
C1185 C 0.99301 0.27855 0.137 0.0
N1186 N 0.99265 0.26893 0.10974 0.0
C1187 C 0.96829 0.27622 0.15277 0.0
H1188 H 0.07598 0.28885 0.14201 0.0
H1189 H 0.06773 0.32333 0.1408 0.0
H1190 H 0.0715 0.3016 0.10895 0.0
H1191 H 0.96717 0.29633 0.16558 0.0
H1192 H 0.97082 0.26051 0.16717 0.0
H1193 H 0.9485 0.27019 0.13873 0.0
C1194 C 0.97937 0.65215 0.4031 0.0
N1195 N 0.99075 0.65683 0.42967 0.0
N1196 N 0.99492 0.66717 0.38753 0.0
C1197 C 0.94933 0.63969 0.39512 0.0
C1198 C 0.01424 0.68383 0.4072 0.0
N1199 N 0.0123 0.67677 0.43303 0.0
C1200 C 0.03195 0.70954 0.4022 0.0
H1201 H 0.9459 0.62523 0.37562 0.0
H1202 H 0.93658 0.65689 0.39353 0.0
H1203 H 0.94132 0.62808 0.41128 0.0
H1204 H 0.02462 0.72844 0.41211 0.0
H1205 H 0.03086 0.71093 0.37975 0.0
H1206 H 0.05364 0.7098 0.41198 0.0
C1207 C 0.71629 0.30985 0.01722 0.0
N1208 N 0.69853 0.32104 0.03391 0.0
N1209 N 0.70548 0.30331 0.98954 0.0
C1210 C 0.74554 0.30604 0.02827 0.0
C1211 C 0.67888 0.31612 0.98905 0.0
N1212 N 0.67438 0.32274 0.01853 0.0
C1213 C 0.64395 0.32538 0.93909 0.0
H1214 H 0.75914 0.32608 0.02923 0.0
H1215 H 0.75383 0.28975 0.015 0.0
H1216 H 0.74701 0.3007 0.04967 0.0
H1217 H 0.63761 0.30837 0.92086 0.0
H1218 H 0.65037 0.34219 0.92621 0.0
H1219 H 0.62181 0.32994 0.93866 0.0
C1220 C 0.50431 0.35576 0.73455 0.0
N1221 N 0.48006 0.36663 0.73906 0.0
N1222 N 0.51774 0.36825 0.7152 0.0
C1223 C 0.51857 0.338 0.75326 0.0
C1224 C 0.50153 0.388 0.70905 0.0
N1225 N 0.4799 0.38806 0.72413 0.0
C1226 C 0.50734 0.40858 0.68908 0.0
H1227 H 0.50948 0.33787 0.77299 0.0
H1228 H 0.54102 0.34605 0.75794 0.0
H1229 H 0.51722 0.31639 0.74262 0.0
H1230 H 0.52139 0.40131 0.67431 0.0
H1231 H 0.51688 0.42894 0.70098 0.0
H1232 H 0.48769 0.41214 0.67713 0.0
C1233 C 0.12927 0.0329 0.2844 0.0
N1234 N 0.10532 0.01645 0.27385 0.0
N1235 N 0.15032 0.01736 0.2882 0.0
C1236 C 0.13144 0.06422 0.28884 0.0
C1237 C 0.13809 0.99094 0.27788 0.0
N1238 N 0.11091 0.99041 0.26857 0.0
C1239 C 0.15211 0.96501 0.2781 0.0
H1240 H 0.15333 0.07414 0.29122 0.0
H1241 H 0.12137 0.07095 0.30732 0.0
H1242 H 0.11932 0.0715 0.2712 0.0
H1243 H 0.1673 0.96656 0.29704 0.0
H1244 H 0.16313 0.96214 0.25957 0.0
H1245 H 0.13662 0.9463 0.27728 0.0
C1246 C 0.41012 0.98309 0.6542 0.0
N1247 N 0.43563 0.99743 0.65758 0.0
N1248 N 0.39534 0.99349 0.67357 0.0
C1249 C 0.40631 0.95209 0.64486 0.0
C1250 C 0.41494 1.01047 0.69244 0.0
N1251 N 0.44021 0.01224 0.68278 0.0
C1252 C 0.40986 0.02346 0.72075 0.0
H1253 H 0.38865 0.946 0.6281 0.0
H1254 H 0.40234 0.94094 0.66274 0.0
H1255 H 0.42536 0.94486 0.63797 0.0
H1256 H 0.42727 0.02129 0.73665 0.0
H1257 H 0.38989 0.01451 0.72656 0.0
H1258 H 0.4084 0.04591 0.72123 0.0
C1259 C 0.02405 0.71978 0.30366 0.0
N1260 N 0.03966 0.70147 0.31509 0.0
N1261 N 0.99577 0.71167 0.30069 0.0
C1262 C 0.03728 0.74653 0.29534 0.0
C1263 C 0.9946 0.68592 0.316 0.0
N1264 N 0.02316 0.6795 0.32077 0.0
C1265 C 0.94302 0.65845 0.33223 0.0
H1266 H 0.05293 0.7581 0.31207 0.0
H1267 H 0.02205 0.76097 0.29074 0.0
H1268 H 0.04867 0.74154 0.27739 0.0
H1269 H 0.92221 0.65913 0.3197 0.0
H1270 H 0.93502 0.66621 0.35189 0.0
H1271 H 0.93805 0.63551 0.33324 0.0
C1272 C 0.11353 0.724 0.35285 0.0
C1273 C 0.12536 0.69942 0.3448 0.0
C1274 C 0.08565 0.68548 0.30887 0.0
C1275 C 0.0703 0.70527 0.32138 0.0
N1276 N 0.0706 0.74312 0.35829 0.0
N1277 N 0.11895 0.65377 0.31773 0.0
C1278 C 0.08482 0.72529 0.34362 0.0
C1279 C 0.11034 0.67923 0.32357 0.0
N1280 N 0.12941 0.7458 0.36965 0.0
N1281 N 0.07777 0.67417 0.28207 0.0
H1282 H 0.13688 0.64816 0.32815 0.0
H1283 H 0.10666 0.63757 0.30432 0.0
H1284 H 0.06256 0.68231 0.26991 0.0
H1285 H 0.08855 0.65978 0.27169 0.0
H1286 H 0.12258 0.76515 0.37396 0.0
H1287 H 0.15022 0.74521 0.37692 0.0
H1288 H 0.07948 0.75591 0.37651 0.0
H1289 H 0.04928 0.7432 0.35365 0.0
C1290 C 0.42604 0.31621 0.76864 0.0
C1291 C 0.40664 0.33467 0.77554 0.0
C1292 C 0.43863 0.3728 0.76514 0.0
C1293 C 0.45628 0.355 0.75294 0.0
N1294 N 0.46394 0.30672 0.74306 0.0
N1295 N 0.39121 0.37895 0.76959 0.0
C1296 C 0.44917 0.32575 0.75472 0.0
C1297 C 0.41158 0.36214 0.76941 0.0
N1298 N 0.42134 0.28918 0.77345 0.0
N1299 N 0.44951 0.39807 0.77914 0.0
H1300 H 0.37089 0.37172 0.77235 0.0
H1301 H 0.39434 0.39899 0.76405 0.0
H1302 H 0.47091 0.40274 0.78451 0.0
H1303 H 0.43741 0.41135 0.78924 0.0
H1304 H 0.43405 0.2742 0.76811 0.0
H1305 H 0.40432 0.28176 0.78277 0.0
H1306 H 0.47028 0.29054 0.75334 0.0
H1307 H 0.46767 0.30667 0.72254 0.0
C1308 C 0.48659 0.04097 0.63017 0.0
C1309 C 0.49868 0.019 0.61669 0.0
C1310 C 0.45599 0.98767 0.61416 0.0
C1311 C 0.44813 1.00676 0.63452 0.0
N1312 N 0.44425 0.05475 0.64542 0.0
N1313 N 0.49469 0.97073 0.595 0.0
C1314 C 0.45964 0.03475 0.63689 0.0
C1315 C 0.48324 0.99215 0.608 0.0
N1316 N 0.50132 0.06678 0.63814 0.0
N1317 N 0.43658 0.96868 0.59763 0.0
H1318 H 0.51506 0.97264 0.59044 0.0
H1319 H 0.48433 0.95042 0.5908 0.0
H1320 H 0.41544 0.96941 0.59829 0.0
H1321 H 0.44126 0.95556 0.58082 0.0
H1322 H 0.49432 0.08231 0.65111 0.0
H1323 H 0.5213 0.07194 0.63319 0.0
H1324 H 0.45043 0.07605 0.64629 0.0
H1325 H 0.424 0.04889 0.64914 0.0
C1326 C 0.04118 0.02578 0.3074 0.0
C1327 C 0.02473 0.03456 0.28532 0.0
C1328 C 0.06285 0.03497 0.25725 0.0
C1329 C 0.07858 0.02416 0.27832 0.0
N1330 N 0.0873 0.0195 0.32717 0.0
N1331 N 0.02254 0.05761 0.24456 0.0
C1332 C 0.06937 0.02331 0.30482 0.0
C1333 C 0.03669 0.04281 0.26208 0.0
N1334 N 0.02951 0.01802 0.32981 0.0
N1335 N 0.07274 0.03699 0.23251 0.0
H1336 H 1.00338 0.06376 0.24822 0.0
H1337 H 0.03084 0.06597 0.22825 0.0
H1338 H 0.09224 0.03176 0.22893 0.0
H1339 H 0.06112 0.04234 0.21522 0.0
H1340 H 0.03973 1.00815 0.34492 0.0
H1341 H 1.009 0.02031 0.33249 0.0
H1342 H 0.08241 0.02171 0.34743 0.0
H1343 H 0.10758 0.0155 0.32571 0.0
C1344 C 0.32202 0.10981 0.67755 0.0
C1345 C 0.34513 0.1237 0.69639 0.0
C1346 C 0.345 0.08161 0.72036 0.0
C1347 C 0.32199 0.06762 0.70134 0.0
N1348 N 0.28272 0.07335 0.6694 0.0
N1349 N 0.37472 0.12495 0.73943 0.0
C1350 C 0.30867 0.08337 0.68231 0.0
C1351 C 0.35525 0.11025 0.71905 0.0
N1352 N 0.31339 0.12126 0.65443 0.0
N1353 N 0.35838 0.06679 0.73838 0.0
H1354 H 0.38272 0.14566 0.73898 0.0
H1355 H 0.38116 0.1175 0.75784 0.0
H1356 H 0.35146 0.04601 0.73968 0.0
H1357 H 0.37735 0.07429 0.75037 0.0
H1358 H 0.29895 0.11056 0.63821 0.0
H1359 H 0.3223 0.14062 0.65039 0.0
H1360 H 0.2711 0.08414 0.65618 0.0
H1361 H 0.27196 0.0554 0.6745 0.0
C1362 C 0.30774 0.04357 0.01729 0.0
C1363 C 0.28805 0.02914 0.03113 0.0
C1364 C 0.26339 0.06928 0.03743 0.0
C1365 C 0.28166 0.0828 0.02149 0.0
N1366 N 0.32896 0.08851 0.01009 0.0
N1367 N 0.25539 0.03115 0.06435 0.0
C1368 C 0.30658 0.07196 0.01621 0.0
C1369 C 0.26849 0.04302 0.04463 0.0
N1370 N 0.3262 0.03007 1.00355 0.0
N1371 N 0.24148 0.08164 0.04559 0.0
H1372 H 0.25977 0.01213 0.07039 0.0
H1373 H 0.24252 0.04126 0.07656 0.0
H1374 H 0.23811 0.10151 0.04128 0.0
H1375 H 0.22619 0.0718 0.05556 0.0
H1376 H 0.33877 0.03964 0.99065 0.0
H1377 H 0.3275 1.00885 1.00305 0.0
H1378 H 0.34837 0.08181 0.00924 0.0
H1379 H 0.3288 0.1094 1.00778 0.0
C1380 C 0.79659 0.43505 0.35951 0.0
C1381 C 0.78535 0.41477 0.33625 0.0
C1382 C 0.74523 0.44142 0.32969 0.0
C1383 C 0.7552 0.45879 0.35528 0.0
N1384 N 0.79877 0.48366 0.37719 0.0
N1385 N 0.75278 0.40389 0.29442 0.0
C1386 C 0.78344 0.45917 0.36525 0.0
C1387 C 0.76089 0.41982 0.31962 0.0
N1388 N 0.81903 0.43124 0.37722 0.0
N1389 N 0.72222 0.44723 0.3141 0.0
H1390 H 0.76527 0.39023 0.28559 0.0
H1391 H 0.73424 0.40445 0.28199 0.0
H1392 H 0.70898 0.4605 0.32212 0.0
H1393 H 0.71639 0.43947 0.29325 0.0
H1394 H 0.82625 0.44514 0.39523 0.0
H1395 H 0.8286 0.41327 0.37571 0.0
H1396 H 0.82025 0.48562 0.38241 0.0
H1397 H 0.79029 0.5024 0.3787 0.0
C1398 C 0.61237 0.48464 0.98425 0.0
C1399 C 0.61747 0.49619 0.01266 0.0
C1400 C 0.64086 0.45704 0.0233 0.0
C1401 C 0.64255 0.45016 0.99462 0.0
N1402 N 0.63203 0.45958 0.94758 0.0
N1403 N 0.63821 0.49463 0.0595 0.0
C1404 C 0.6282 0.46395 0.97485 0.0
C1405 C 0.63185 0.48258 0.03249 0.0
N1406 N 0.59397 0.4947 0.96604 0.0
N1407 N 0.64845 0.4394 0.04151 0.0
H1408 H 0.63134 0.51329 0.06689 0.0
H1409 H 0.65189 0.48708 0.07384 0.0
H1410 H 0.65415 0.42 0.03475 0.0
H1411 H 0.6466 0.44303 0.06262 0.0
H1412 H 0.58748 0.48484 0.94585 0.0
H1413 H 0.58325 0.51131 0.97169 0.0
H1414 H 0.62276 0.46995 0.93235 0.0
H1415 H 0.64703 0.44795 0.94072 0.0
C1416 C 0.70618 0.37009 0.10274 0.0
C1417 C 0.70481 0.35095 0.12245 0.0
C1418 C 0.70865 0.31346 0.08466 0.0
C1419 C 0.70513 0.33151 0.06405 0.0
N1420 N 0.69915 0.37741 0.05481 0.0
N1421 N 0.72923 0.31205 0.13139 0.0
C1422 C 0.70518 0.3602 0.07368 0.0
C1423 C 0.71293 0.32449 0.11352 0.0
N1424 N 0.71075 0.39799 0.11168 0.0
N1425 N 0.70612 0.28549 0.07715 0.0
H1426 H 0.73944 0.32318 0.15005 0.0
H1427 H 0.73668 0.29333 0.12542 0.0
H1428 H 0.70198 0.27681 0.05651 0.0
H1429 H 0.70588 0.27143 0.09163 0.0
H1430 H 0.71288 0.41273 0.09818 0.0
H1431 H 0.71594 0.40601 0.13263 0.0
H1432 H 0.68714 0.39302 0.06009 0.0
H1433 H 0.69982 0.37197 0.03369 0.0
C1434 C 0.03576 0.25789 0.03084 0.0
C1435 C 0.03394 0.2834 0.01985 0.0
C1436 C 0.02688 0.30592 0.06553 0.0
C1437 C 0.02451 0.27943 0.07525 0.0
N1438 N 0.02688 0.23039 0.06792 0.0
N1439 N 0.03004 0.33254 0.02689 0.0
C1440 C 0.02927 0.2555 0.05814 0.0
C1441 C 0.03103 0.30791 0.03749 0.0
N1442 N 0.04444 0.23623 0.01516 0.0
N1443 N 0.02277 0.32884 0.08268 0.0
H1444 H 0.03252 0.33469 1.00638 0.0
H1445 H 0.02617 0.35096 0.03797 0.0
H1446 H 0.01207 0.32696 0.09963 0.0
H1447 H 0.0288 0.34933 0.07973 0.0
H1448 H 0.04844 0.21774 0.02248 0.0
H1449 H 0.05023 0.23786 0.99548 0.0
H1450 H 0.0266 0.2114 0.05554 0.0
H1451 H 0.02359 0.22853 0.08835 0.0
C1452 C 0.35014 0.79973 0.44031 0.0
C1453 C 0.33626 0.78557 0.41449 0.0
C1454 C 0.33662 0.7418 0.43477 0.0
C1455 C 0.35803 0.75469 0.45593 0.0
N1456 N 0.37686 0.79758 0.48475 0.0
N1457 N 0.29825 0.7487 0.40107 0.0
C1458 C 0.36259 0.78426 0.46035 0.0
C1459 C 0.32391 0.75788 0.41539 0.0
N1460 N 0.34652 0.82684 0.44764 0.0
N1461 N 0.32626 0.71499 0.43565 0.0
H1462 H 0.28553 0.76278 0.39386 0.0
H1463 H 0.28817 0.72849 0.39927 0.0
H1464 H 0.33751 0.70153 0.44596 0.0
H1465 H 0.30516 0.70838 0.43058 0.0
H1466 H 0.35317 0.8379 0.4673 0.0
H1467 H 0.33334 0.83688 0.43502 0.0
H1468 H 0.38414 0.81881 0.48798 0.0
H1469 H 0.38094 0.78712 0.5018 0.0
C1470 C 0.98592 0.65469 0.50032 0.0
C1471 C 0.99433 0.62804 0.5033 0.0
C1472 C 0.98962 0.61656 0.45357 0.0
C1473 C 0.98124 0.64283 0.45118 0.0
N1474 N 0.9614 0.68203 0.47019 0.0
N1475 N 0.02215 0.59595 0.48171 0.0
C1476 C 0.97503 0.65969 0.47406 0.0
C1477 C 1.00074 0.61147 0.47975 0.0
N1478 N 0.99266 0.67639 0.52138 0.0
N1479 N 0.98875 0.5973 0.43078 0.0
H1480 H 0.03679 0.59889 0.49943 0.0
H1481 H 0.02848 0.58489 0.46445 0.0
H1482 H 0.9807 0.60055 0.41099 0.0
H1483 H 0.99321 0.57709 0.43235 0.0
H1484 H 0.98691 0.69615 0.52017 0.0
H1485 H 1.00671 0.67524 0.53884 0.0
H1486 H 0.95526 0.69474 0.48646 0.0
H1487 H 0.95442 0.68603 0.45025 0.0
C1488 C 0.90582 0.2938 0.68003 0.0
C1489 C 0.89741 0.32001 0.67441 0.0
C1490 C 0.93821 0.34132 0.70662 0.0
C1491 C 0.95246 0.31759 0.70269 0.0
N1492 N 0.93335 0.27396 0.71456 0.0
N1493 N 0.90887 0.37008 0.68327 0.0
C1494 C 0.9326 0.29287 0.69632 0.0
C1495 C 0.9148 0.34419 0.68766 0.0
N1496 N 0.88753 0.27012 0.67207 0.0
N1497 N 0.9426 0.35759 0.73156 0.0
H1498 H 0.89245 0.3733 0.6689 0.0
H1499 H 0.92202 0.38802 0.69249 0.0
H1500 H 0.95604 0.35269 0.7479 0.0
H1501 H 0.93108 0.37397 0.73601 0.0
H1502 H 0.89279 0.25037 0.67454 0.0
H1503 H 0.86742 0.27045 0.6624 0.0
H1504 H 0.91828 0.25681 0.7136 0.0
H1505 H 0.94531 0.27927 0.73391 0.0
C1506 C 0.60187 0.70186 0.26179 0.0
C1507 C 0.60362 0.68613 0.23567 0.0
C1508 C 0.56111 0.65588 0.24079 0.0
C1509 C 0.56292 0.6674 0.26908 0.0
N1510 N 0.58158 0.70455 0.30502 0.0
N1511 N 0.56999 0.66792 0.1961 0.0
C1512 C 0.58201 0.69181 0.27886 0.0
C1513 C 0.57925 0.66814 0.22344 0.0
N1514 N 0.61859 0.72668 0.26961 0.0
N1515 N 0.54137 0.63403 0.22996 0.0
H1516 H 0.57818 0.68332 0.18514 0.0
H1517 H 0.55114 0.65685 0.18644 0.0
H1518 H 0.52634 0.62585 0.24129 0.0
H1519 H 0.54104 0.62343 0.21006 0.0
H1520 H 0.61979 0.73895 0.28875 0.0
H1521 H 0.63052 0.73562 0.2558 0.0
H1522 H 0.59007 0.725 0.31202 0.0
H1523 H 0.57198 0.69425 0.31955 0.0
C1524 C 0.54367 0.01264 0.40006 0.0
C1525 C 0.52115 0.02734 0.39344 0.0
C1526 C 0.54652 0.05191 0.36134 0.0
C1527 C 0.56818 0.03552 0.36577 0.0
N1528 N 0.58727 0.99997 0.38965 0.0
N1529 N 0.50018 0.06128 0.36927 0.0
C1530 C 0.56708 0.01642 0.38579 0.0
C1531 C 0.52254 0.04745 0.37484 0.0
N1532 N 0.54125 0.99255 0.41735 0.0
N1533 N 0.54892 0.07141 0.34365 0.0
H1534 H 0.48342 0.06044 0.3807 0.0
H1535 H 0.49753 0.07284 0.35291 0.0
H1536 H 0.56614 0.07466 0.33316 0.0
H1537 H 0.5347 0.08524 0.34006 0.0
H1538 H 0.55559 0.9788 0.42096 0.0
H1539 H 0.52409 0.98847 0.42771 0.0
H1540 H 0.59254 0.99195 0.40805 0.0
H1541 H 0.59737 0.99301 0.37336 0.0
C1542 C 0.98012 0.971 0.73087 0.0
C1543 C 1.00089 0.99409 0.73247 0.0
C1544 C 0.96506 0.02499 0.73292 0.0
C1545 C 0.94543 1.00293 0.7374 0.0
N1546 N 0.9361 0.95492 0.74531 0.0
N1547 N 0.0134 0.04414 0.73962 0.0
C1548 C 0.95345 0.9758 0.73766 0.0
C1549 C 0.99348 0.02146 0.73502 0.0
N1550 N 0.98562 0.94474 0.72239 0.0
N1551 N 0.95641 0.04846 0.72439 0.0
H1552 H 0.03456 0.04261 0.74037 0.0
H1553 H 1.00875 0.06431 0.74484 0.0
H1554 H 0.93548 0.0495 0.7184 0.0
H1555 H 0.96996 0.06486 0.71972 0.0
H1556 H 0.97015 0.9276 0.71795 0.0
H1557 H 1.00491 0.9409 0.71673 0.0
H1558 H 0.9417 0.93517 0.74717 0.0
H1559 H 0.91727 0.95826 0.75238 0.0
C1560 C 0.67047 0.91196 0.34363 0.0
C1561 C 0.67939 0.89257 0.3244 0.0
C1562 C 0.7054 0.93273 0.30774 0.0
C1563 C 0.69089 0.95201 0.32345 0.0
N1564 N 0.64654 0.95122 0.3414 0.0
N1565 N 0.70111 0.88551 0.28281 0.0
C1566 C 0.66935 0.93891 0.33689 0.0
C1567 C 0.69565 0.90313 0.30468 0.0
N1568 N 0.6611 0.90452 0.36726 0.0
N1569 N 0.72875 0.94146 0.29685 0.0
H1570 H 0.69406 0.86419 0.2802 0.0
H1571 H 0.71031 0.89273 0.26637 0.0
H1572 H 0.73786 0.96206 0.29965 0.0
H1573 H 0.74033 0.9275 0.28703 0.0
H1574 H 0.65486 0.91905 0.38198 0.0
H1575 H 0.66238 0.88478 0.37317 0.0
H1576 H 0.62981 0.94178 0.34992 0.0
H1577 H 0.62981 0.94178 0.34992 0.0
C1578 C 0.73497 0.99231 0.02137 0.0
C1579 C 0.73104 1.00026 0.99439 0.0
C1580 C 0.73721 0.95367 0.97449 0.0
C1581 C 0.73785 0.94478 1.00114 0.0
N1582 N 0.72739 0.95422 0.04801 0.0
N1583 N 0.719 0.98569 0.94527 0.0
C1584 C 0.73368 0.96365 0.02409 0.0
C1585 C 0.72897 0.97998 0.97086 0.0
N1586 N 0.7409 0.01193 0.04433 0.0
N1587 N 0.74563 0.93765 0.95301 0.0
H1588 H 0.71213 1.00475 0.94239 0.0
H1589 H 0.71456 0.97036 0.92795 0.0
H1590 H 0.754 0.91925 0.95557 0.0
H1591 H 0.74685 0.94419 0.9336 0.0
H1592 H 0.74733 1.00686 0.06395 0.0
H1593 H 0.74165 0.03325 0.04335 0.0
H1594 H 0.72299 0.96734 0.06495 0.0
H1595 H 0.72368 0.933 0.04954 0.0
C1596 C 0.27131 0.61194 0.68653 0.0
C1597 C 0.24178 0.60943 0.68447 0.0
C1598 C 0.23995 0.56037 0.6635 0.0
C1599 C 0.26901 0.56438 0.66277 0.0
N1600 N 0.31106 0.58687 0.68979 0.0
N1601 N 0.2014 0.57665 0.68543 0.0
C1602 C 0.28439 0.58801 0.67912 0.0
C1603 C 0.22705 0.58206 0.6774 0.0
N1604 N 0.28752 0.63692 0.69384 0.0
N1605 N 0.22484 0.53578 0.6514 0.0
H1606 H 0.19268 0.59198 0.69709 0.0
H1607 H 0.19069 0.55662 0.68363 0.0
H1608 H 0.23404 0.51961 0.64171 0.0
H1609 H 0.20328 0.53211 0.64988 0.0
H1610 H 0.30827 0.63884 0.69105 0.0
H1611 H 0.28076 0.65565 0.70045 0.0
H1612 H 0.31991 0.59989 0.70774 0.0
H1613 H 0.32187 0.5703 0.68416 0.0
C1614 C 0.37989 0.52553 0.04701 0.0
C1615 C 0.39346 0.52128 0.02306 0.0
C1616 C 0.3851 0.56683 0.01145 0.0
C1617 C 0.36836 0.57021 0.03353 0.0
N1618 N 0.35048 0.5531 0.07274 0.0
N1619 N 0.40819 0.53676 0.98143 0.0
C1620 C 0.36645 0.54979 0.05176 0.0
C1621 C 0.39668 0.54198 1.00555 0.0
N1622 N 0.38 0.50625 0.06512 0.0
N1623 N 0.38841 0.58633 0.99428 0.0
H1624 H 0.41592 0.51827 0.97531 0.0
H1625 H 0.40838 0.54983 0.9661 0.0
H1626 H 0.3722 0.5968 0.98817 0.0
H1627 H 0.40618 0.59002 0.98462 0.0
H1628 H 0.3715 0.50811 0.08364 0.0
H1629 H 0.39013 0.48862 0.06236 0.0
H1630 H 0.34573 0.53813 0.08547 0.0
H1631 H 0.3409 0.57086 0.07689 0.0
C1632 C 0.31811 0.65186 0.90552 0.0
C1633 C 0.32487 0.67201 0.88856 0.0
C1634 C 0.322 0.70707 0.92838 0.0
C1635 C 0.32556 0.68679 0.9475 0.0
N1636 N 0.33372 0.63796 0.94805 0.0
N1637 N 0.33356 0.7207 0.88408 0.0
C1638 C 0.32535 0.65864 0.93436 0.0
C1639 C 0.32695 0.70038 0.90001 0.0
N1640 N 0.30686 0.62546 0.89412 0.0
N1641 N 0.31493 0.73257 0.93689 0.0
H1642 H 0.33758 0.71628 0.86368 0.0
H1643 H 0.33667 0.74192 0.89133 0.0
H1644 H 0.31738 0.74962 0.92611 0.0
H1645 H 0.30605 0.73669 0.95483 0.0
H1646 H 0.30052 0.61034 0.90632 0.0
H1647 H 0.30141 0.61999 0.87271 0.0
H1648 H 0.3381 0.61943 0.93742 0.0
H1649 H 0.33854 0.63978 0.96905 0.0
C1650 C 0.97764 0.75463 0.98411 0.0
C1651 C 0.98968 0.73351 0.99691 0.0
C1652 C 0.99869 0.71225 0.95162 0.0
C1653 C 0.99285 0.7368 0.94048 0.0
N1654 N 0.97604 0.78124 0.94537 0.0
N1655 N 0.01427 0.69318 0.99295 0.0
C1656 C 0.98196 0.75794 0.95651 0.0
C1657 C 1.00044 0.71221 0.98066 0.0
N1658 N 0.96177 0.77113 0.9983 0.0
N1659 N 1.00293 0.68914 0.93472 0.0
H1660 H 0.01661 0.69243 0.01425 0.0
H1661 H 0.02547 0.67954 0.98217 0.0
H1662 H 1.00344 0.68861 0.91347 0.0
H1663 H 1.00411 0.66985 0.9416 0.0
H1664 H 0.95051 0.78532 0.98924 0.0
H1665 H 0.95762 0.76838 0.01832 0.0
H1666 H 0.97121 0.79893 0.95706 0.0
H1667 H 0.97732 0.78329 0.92457 0.0
C1668 C 0.66124 0.25992 0.61222 0.0
C1669 C 0.68586 0.2472 0.61105 0.0
C1670 C 0.69651 0.27493 0.57386 0.0
C1671 C 0.66835 0.28001 0.56981 0.0
N1672 N 0.64333 0.30211 0.60338 0.0
N1673 N 0.72949 0.24613 0.5924 0.0
C1674 C 0.65538 0.27967 0.59409 0.0
C1675 C 0.70442 0.25576 0.59236 0.0
N1676 N 0.64382 0.25415 0.63126 0.0
N1677 N 0.71633 0.2926 0.56514 0.0
H1678 H 0.7361 0.23273 0.60615 0.0
H1679 H 0.7427 0.2503 0.57768 0.0
H1680 H 0.71125 0.31025 0.55657 0.0
H1681 H 0.73755 0.29185 0.56975 0.0
H1682 H 0.6253 0.26264 0.63204 0.0
H1683 H 0.64703 0.23993 0.64521 0.0
H1684 H 0.63572 0.30431 0.62247 0.0
H1685 H 0.64453 0.31974 0.59323 0.0
C1686 C 0.02 0.37501 0.51421 0.0
C1687 C 0.02559 0.40374 0.51461 0.0
C1688 C 0.03768 0.40683 0.56476 0.0
C1689 C 0.03524 0.37679 0.56157 0.0
N1690 N 0.05466 0.34815 0.52797 0.0
N1691 N 0.04908 0.44696 0.54093 0.0
C1692 C 0.03453 0.36357 0.53471 0.0
C1693 C 0.03752 0.42003 0.54014 0.0
N1694 N 0.99624 0.36044 0.50036 0.0
N1695 N 0.03916 0.42273 0.58982 0.0
H1696 H 0.05082 0.45609 0.52289 0.0
H1697 H 0.05968 0.45877 0.55905 0.0
H1698 H 0.03942 0.41459 0.60829 0.0
H1699 H 0.03857 0.44419 0.59181 0.0
H1700 H 0.98108 0.36996 0.48963 0.0
H1701 H 0.98108 0.36996 0.48963 0.0
H1702 H 0.06979 0.34361 0.54305 0.0
H1703 H 0.06979 0.34361 0.54305 0.0
C1704 C 0.27388 0.56233 0.55509 0.0
C1705 C 0.28394 0.59133 0.56017 0.0
C1706 C 0.30137 0.58521 0.60807 0.0
C1707 C 0.28838 0.55723 0.6043 0.0
N1708 N 0.25838 0.52038 0.57444 0.0
N1709 N 0.30015 0.6311 0.59457 0.0
C1710 C 0.27332 0.54624 0.57784 0.0
C1711 C 0.29526 0.60299 0.58764 0.0
N1712 N 0.26558 0.5499 0.52844 0.0
N1713 N 0.32196 0.5941 0.62955 0.0
H1714 H 0.29687 0.64495 0.58022 0.0
H1715 H 0.30393 0.63983 0.61533 0.0
H1716 H 0.32999 0.58021 0.64189 0.0
H1717 H 0.33345 0.61387 0.63222 0.0
H1718 H 0.26161 0.52836 0.52296 0.0
H1719 H 0.26459 0.56107 0.51154 0.0
H1720 H 0.24546 0.51178 0.55628 0.0
H1721 H 0.25716 0.50852 0.59074 0.0
C1722 C 0.32223 0.51975 0.96329 0.0
C1723 C 0.30661 0.49827 0.97454 0.0
C1724 C 0.30033 0.53481 0.01361 0.0
C1725 C 0.31437 0.5565 1.00135 0.0
N1726 N 0.33221 0.56913 0.96053 0.0
N1727 N 0.28473 0.48514 0.01341 0.0
C1728 C 0.32385 0.54858 0.97528 0.0
C1729 C 0.29647 0.50594 1.00043 0.0
N1730 N 0.33559 0.51291 0.94086 0.0
N1731 N 0.29035 0.54206 0.03801 0.0
H1732 H 0.28312 0.46413 1.00534 0.0
H1733 H 0.27825 0.48811 0.03291 0.0
H1734 H 0.29431 0.56228 0.04861 0.0
H1735 H 0.27709 0.52887 0.04721 0.0
H1736 H 0.3513 0.52636 0.93493 0.0
H1737 H 0.33257 0.49323 0.92922 0.0
H1738 H 0.3388 0.56583 0.94103 0.0
H1739 H 0.33 0.58966 0.96751 0.0
C1740 C 0.68833 0.965 0.42494 0.0
C1741 C 0.67059 0.98301 0.43629 0.0
C1742 C 0.65898 0.99605 0.39105 0.0
C1743 C 0.68146 0.98394 0.38085 0.0
N1744 N 0.71873 0.95662 0.39036 0.0
N1745 N 0.64591 0.02233 0.43234 0.0
C1746 C 0.69638 0.96797 0.39829 0.0
C1747 C 0.65697 1.00003 0.41991 0.0
N1748 N 0.69774 0.94534 0.43991 0.0
N1749 N 0.64474 1.01001 0.37367 0.0
H1750 H 0.64482 0.02605 0.45359 0.0
H1751 H 0.64121 0.03958 0.42301 0.0
H1752 H 0.63279 0.02473 0.38082 0.0
H1753 H 0.63279 0.02473 0.38082 0.0
H1754 H 0.70902 0.93011 0.4319 0.0
H1755 H 0.69186 0.9427 0.45938 0.0
H1756 H 0.73285 0.94888 0.40408 0.0
H1757 H 0.72292 0.955 0.3701 0.0
C1758 C 0.8048 0.96647 0.06796 0.0
C1759 C 0.80402 0.95799 0.09472 0.0
C1760 C 0.77505 0.91448 0.0734 0.0
C1761 C 0.77633 0.92258 0.04635 0.0
N1762 N 0.80043 0.95163 0.01816 0.0
N1763 N 0.79498 0.92101 0.12209 0.0
C1764 C 0.79389 0.94711 0.04375 0.0
C1765 C 0.79191 0.9306 0.0969 0.0
N1766 N 0.81472 0.99326 0.06562 0.0
N1767 N 0.7562 0.89272 0.07705 0.0
H1768 H 0.80742 0.93239 0.13946 0.0
H1769 H 0.78719 0.90118 0.12561 0.0
H1770 H 0.75648 0.88304 0.09484 0.0
H1771 H 0.73866 0.88544 0.06275 0.0
H1772 H 0.8126 1.0014 0.04685 0.0
H1773 H 0.8233 1.00771 0.08284 0.0
H1774 H 0.81446 0.96834 0.01498 0.0
H1775 H 0.79375 0.93698 1.00056 0.0
C1776 C 0.56578 0.31293 0.5715 0.0
C1777 C 0.55917 0.29006 0.58623 0.0
C1778 C 0.59618 0.26812 0.56451 0.0
C1779 C 0.60611 0.29361 0.55527 0.0
N1780 N 0.60369 0.34303 0.55908 0.0
N1781 N 0.57501 0.24842 0.60147 0.0
C1782 C 0.59201 0.31691 0.56178 0.0
C1783 C 0.57623 0.26814 0.58399 0.0
N1784 N 0.54643 0.32982 0.56471 0.0
N1785 N 0.60592 0.24412 0.55513 0.0
H1786 H 0.56376 0.24984 0.61832 0.0
H1787 H 0.58803 0.23293 0.6014 0.0
H1788 H 0.61991 0.24353 0.54057 0.0
H1789 H 0.59818 0.22474 0.56004 0.0
H1790 H 0.55021 0.34548 0.55233 0.0
H1791 H 0.52574 0.32556 0.56796 0.0
H1792 H 0.59452 0.36071 0.56509 0.0
H1793 H 0.62365 0.34694 0.55361 0.0
C1794 C 0.08248 0.77153 0.95972 0.0
C1795 C 0.09196 0.79928 0.95663 0.0
C1796 C 0.0502 0.80081 0.92475 0.0
C1797 C 0.04269 0.77197 0.92509 0.0
N1798 N 0.05809 0.72866 0.93561 0.0
N1799 N 0.08852 0.83787 0.93016 0.0
C1800 C 0.0605 0.7569 0.94062 0.0
C1801 C 0.07687 0.81338 0.93742 0.0
N1802 N 0.09409 0.75909 0.98093 0.0
N1803 N 0.032 0.81599 0.91211 0.0
H1804 H 0.10872 0.84696 0.93792 0.0
H1805 H 0.07927 0.84743 0.91422 0.0
H1806 H 0.01224 0.80712 0.90258 0.0
H1807 H 0.03578 0.83757 0.91293 0.0
H1808 H 0.08593 0.73947 0.98494 0.0
H1809 H 0.10989 0.76941 0.99608 0.0
H1810 H 0.0726 0.71706 0.94434 0.0
H1811 H 0.04351 0.71734 0.92029 0.0
C1812 C 0.95279 0.31321 0.51873 0.0
C1813 C 0.96869 0.30394 0.49752 0.0
C1814 C 1.00827 0.30638 0.53516 0.0
C1815 C 0.99479 0.32212 0.55445 0.0
N1816 N 0.95214 0.33751 0.56521 0.0
N1817 N 0.0141 0.2956 0.48639 0.0
C1818 C 0.9663 0.32445 0.54638 0.0
C1819 C 0.99704 0.30084 0.50605 0.0
N1820 N 0.92455 0.3104 0.51267 0.0
N1821 N 0.03246 0.29785 0.54522 0.0
H1822 H 1.00708 0.29299 0.46517 0.0
H1823 H 0.0356 0.29708 0.4911 0.0
H1824 H 0.04398 0.28559 0.53324 0.0
H1825 H 0.04398 0.28559 0.53324 0.0
H1826 H 0.91127 0.314 0.52749 0.0
H1827 H 0.91412 0.30163 0.49321 0.0
H1828 H 0.93205 0.34228 0.56068 0.0
H1829 H 0.96153 0.34429 0.58539 0.0
C1830 C 0.42473 0.68071 0.95865 0.0
C1831 C 0.43783 0.66588 0.97812 0.0
C1832 C 0.39461 0.65511 0.99533 0.0
C1833 C 0.38222 0.67519 0.9809 0.0
N1834 N 0.3906 0.71066 0.95061 0.0
N1835 N 0.43731 0.64452 0.01981 0.0
C1836 C 0.39834 0.68863 0.96246 0.0
C1837 C 0.42336 0.6542 0.99767 0.0
N1838 N 0.43816 0.68843 0.93726 0.0
N1839 N 0.37959 0.64063 0.01131 0.0
H1840 H 0.45857 0.64341 0.02216 0.0
H1841 H 0.42894 0.6404 0.03774 0.0
H1842 H 0.35832 0.63757 1.00757 0.0
H1843 H 0.38832 0.62903 0.02543 0.0
H1844 H 0.4287 0.6976 0.92113 0.0
H1845 H 0.45787 0.68328 0.93441 0.0
H1846 H 0.40417 0.72419 0.94192 0.0
H1847 H 0.37111 0.71593 0.95012 0.0
C1848 C 0.56324 0.56153 0.30254 0.0
C1849 C 0.58571 0.56115 0.28647 0.0
C1850 C 0.58395 0.6115 0.28477 0.0
C1851 C 0.55789 0.60974 0.29509 0.0
N1852 N 0.54241 0.5912 0.33477 0.0
N1853 N 0.61715 0.58794 0.26138 0.0
C1854 C 0.55294 0.58705 0.31025 0.0
C1855 C 0.59563 0.58659 0.27681 0.0
N1856 N 0.55063 0.53745 0.30966 0.0
N1857 N 0.60141 0.63583 0.29102 0.0
H1858 H 0.62851 0.57154 0.25708 0.0
H1859 H 0.62276 0.60551 0.25197 0.0
H1860 H 0.59726 0.65141 0.30597 0.0
H1861 H 0.62166 0.6382 0.28603 0.0
H1862 H 0.53297 0.53696 0.3198 0.0
H1863 H 0.55576 0.51785 0.30273 0.0
H1864 H 0.54081 0.576 0.34799 0.0
H1865 H 0.53899 0.611 0.34326 0.0
C1866 C 0.96167 0.07447 0.80876 0.0
C1867 C 0.95599 0.10106 0.80189 0.0
C1868 C 0.91852 0.07807 0.76624 0.0
C1869 C 0.92356 0.05128 0.77293 0.0
N1870 N 0.94523 0.0246 0.80517 0.0
N1871 N 0.92239 0.12748 0.78146 0.0
C1872 C 0.94374 0.04967 0.79573 0.0
C1873 C 0.93211 0.10249 0.78321 0.0
N1874 N 0.98436 0.07289 0.82717 0.0
N1875 N 0.90227 0.08051 0.74236 0.0
H1876 H 0.9317 0.14591 0.79377 0.0
H1877 H 0.90344 0.12927 0.77013 0.0
H1878 H 0.89331 0.06344 0.72836 0.0
H1879 H 0.90056 0.0994 0.73479 0.0
H1880 H 0.9911 0.05413 0.83127 0.0
H1881 H 0.99704 0.09067 0.83749 0.0
H1882 H 0.95763 0.02213 0.82324 0.0
H1883 H 0.93212 1.0066 0.79597 0.0
C1884 C 0.50638 1.00034 0.29428 0.0
C1885 C 0.49846 0.97506 0.30513 0.0
C1886 C 0.54843 0.97597 0.32369 0.0
C1887 C 0.55649 1.00116 0.31249 0.0
N1888 N 0.54262 0.03476 0.28382 0.0
N1889 N 0.51238 0.94026 0.33292 0.0
C1890 C 0.53519 0.01236 0.29677 0.0
C1891 C 0.51962 0.96355 0.32095 0.0
N1892 N 0.48594 0.01434 0.28348 0.0
N1893 N 0.56892 0.9625 0.33491 0.0
H1894 H 0.49308 0.92808 0.32817 0.0
H1895 H 0.52503 0.9332 0.34841 0.0
H1896 H 0.58961 0.96863 0.33278 0.0
H1897 H 0.56577 0.94481 0.34469 0.0
H1898 H 0.48958 0.03417 0.27775 0.0
H1899 H 0.46486 1.00738 0.28283 0.0
H1900 H 0.52962 0.04142 0.26832 0.0
H1901 H 0.56266 0.04547 0.28711 0.0
C1902 C 0.98348 0.41758 0.69962 0.0
C1903 C 0.97177 0.41823 0.67195 0.0
C1904 C 0.97017 0.3668 0.66264 0.0
C1905 C 0.98454 0.36658 0.68977 0.0
N1906 N 0.99107 0.39001 0.73668 0.0
N1907 N 0.95102 0.39363 0.62753 0.0
C1908 C 0.98582 0.39144 0.70917 0.0
C1909 C 0.96354 0.3927 0.65377 0.0
N1910 N 0.99638 0.44171 0.7156 0.0
N1911 N 0.96199 0.34209 0.64603 0.0
H1912 H 0.94476 0.4118 0.62105 0.0
H1913 H 0.94681 0.37677 0.61198 0.0
H1914 H 0.96655 0.32333 0.65231 0.0
H1915 H 0.94826 0.33971 0.62781 0.0
H1916 H 1.00576 0.44302 0.73597 0.0
H1917 H 1.0016 0.46015 0.70754 0.0
H1918 H 0.99018 0.40627 0.75237 0.0
H1919 H 0.99018 0.40627 0.75237 0.0
C1920 C 0.75181 0.43857 0.44434 0.0
C1921 C 0.72812 0.433 0.458 0.0
C1922 C 0.70193 0.45136 0.4186 0.0
C1923 C 0.72745 0.46347 0.41087 0.0
N1924 N 0.776 0.47661 0.42694 0.0
N1925 N 0.67801 0.42409 0.44951 0.0
C1926 C 0.75226 0.45918 0.42648 0.0
C1927 C 0.70217 0.4368 0.44274 0.0
N1928 N 0.77169 0.42132 0.44398 0.0
N1929 N 0.67768 0.45415 0.40297 0.0
H1930 H 0.67781 0.40792 0.46166 0.0
H1931 H 0.6583 0.42808 0.44208 0.0
H1932 H 0.67739 0.46221 0.38415 0.0
H1933 H 0.65798 0.44869 0.40824 0.0
H1934 H 0.78849 0.42469 0.43285 0.0
H1935 H 0.76826 0.40154 0.45006 0.0
H1936 H 0.79452 0.47383 0.43855 0.0
H1937 H 0.77552 0.4956 0.41926 0.0
C1938 C 0.72013 0.49719 0.05503 0.0
C1939 C 0.71402 0.5202 0.04144 0.0
C1940 C 0.70039 0.48718 0.99764 0.0
C1941 C 0.70258 0.46347 0.01211 0.0
N1942 N 0.71141 0.44808 0.05659 0.0
N1943 N 0.70191 0.53788 0.99869 0.0
C1944 C 0.7122 0.46924 0.04121 0.0
C1945 C 0.70505 0.51536 0.01234 0.0
N1946 N 0.73407 0.50192 0.08141 0.0
N1947 N 0.69324 0.48233 0.96956 0.0
H1948 H 0.70533 0.55828 0.00893 0.0
H1949 H 0.69609 0.53684 0.97746 0.0
H1950 H 0.69306 0.46262 0.95847 0.0
H1951 H 0.68756 0.49719 0.95725 0.0
H1952 H 0.74276 0.48648 0.09105 0.0
H1953 H 0.73934 0.52173 0.0928 0.0
H1954 H 0.71378 0.45103 0.07819 0.0
H1955 H 0.70541 0.42801 0.04716 0.0
C1956 C 0.31894 0.02714 0.59943 0.0
C1957 C 0.3464 0.03843 0.59682 0.0
C1958 C 0.35598 0.04908 0.64795 0.0
C1959 C 0.32934 0.03473 0.65081 0.0
N1960 N 0.2821 0.02826 0.62789 0.0
N1961 N 0.38643 0.07029 0.61752 0.0
C1962 C 0.30957 0.02994 0.62601 0.0
C1963 C 0.36334 0.0531 0.6208 0.0
N1964 N 0.30253 0.01117 0.57723 0.0
N1965 N 0.37486 0.05687 0.67092 0.0
H1966 H 0.39228 0.07253 0.59795 0.0
H1967 H 0.39806 0.08415 0.63367 0.0
H1968 H 0.37153 0.04978 0.68954 0.0
H1969 H 0.39361 0.06941 0.6714 0.0
H1970 H 0.28241 1.00187 0.57793 0.0
H1971 H 0.31024 1.00312 0.55937 0.0
H1972 H 0.26665 0.02664 0.61098 0.0
H1973 H 0.26665 0.02664 0.61098 0.0
C1974 C 0.23973 0.05892 0.92963 0.0
C1975 C 0.21694 0.06984 0.91626 0.0
C1976 C 0.21689 0.10032 0.96049 0.0
C1977 C 0.24446 0.09579 0.96954 0.0
N1978 N 0.28375 0.07371 0.95736 0.0
N1979 N 0.18387 0.10288 0.9202 0.0
C1980 C 0.25608 0.0751 0.95325 0.0
C1981 C 0.20498 0.09069 0.93225 0.0
N1982 N 0.24693 0.03417 0.91854 0.0
N1983 N 0.20294 0.11523 0.9784 0.0
H1984 H 0.17506 0.09684 0.89962 0.0
H1985 H 0.17669 0.12029 0.93012 0.0
H1986 H 0.21159 0.12239 0.99892 0.0
H1987 H 0.18227 0.11821 0.97358 0.0
H1988 H 0.26238 0.0245 0.92858 0.0
H1989 H 0.23528 0.02216 0.90102 0.0
H1990 H 0.29714 0.09058 0.96814 0.0
H1991 H 0.29336 0.05876 0.94632 0.0
C1992 C 0.44503 0.71103 0.4329 0.0
C1993 C 0.46457 0.73571 0.4364 0.0
C1994 C 0.4371 0.75764 0.47036 0.0
C1995 C 0.41627 0.73419 0.46457 0.0
N1996 N 0.40212 0.6868 0.44416 0.0
N1997 N 0.47952 0.78257 0.45963 0.0
C1998 C 0.42084 0.71037 0.44689 0.0
C1999 C 0.46037 0.75922 0.45507 0.0
N2000 N 0.45006 0.68792 0.41653 0.0
N2001 N 0.43641 0.77672 0.49305 0.0
H2002 H 0.49886 0.78333 0.45262 0.0
H2003 H 0.47592 0.8016 0.46975 0.0
H2004 H 0.42184 0.774 0.50672 0.0
H2005 H 0.45194 0.79324 0.50046 0.0
H2006 H 0.44271 0.66771 0.41936 0.0
H2007 H 0.4631 0.68895 0.40112 0.0
H2008 H 0.40456 0.66774 0.43336 0.0
H2009 H 0.38385 0.68614 0.4533 0.0
C2010 C 0.93414 0.2384 0.05243 0.0
C2011 C 0.91805 0.22013 0.0667 0.0
C2012 C 0.95829 0.22599 0.10304 0.0
C2013 C 0.96997 0.25011 0.09267 0.0
N2014 N 0.96294 0.28265 0.06011 0.0
N2015 N 0.91513 0.19898 0.10875 0.0
C2016 C 0.95677 0.25696 0.06761 0.0
C2017 C 0.93039 0.21404 0.09272 0.0
N2018 N 0.9269 0.23913 0.02485 0.0
N2019 N 0.97341 0.21525 0.12341 0.0
H2020 H 0.8945 0.1905 0.10245 0.0
H2021 H 0.9224 0.1971 0.12924 0.0
H2022 H 0.99402 0.22333 0.13077 0.0
H2023 H 0.96631 0.19694 0.13087 0.0
H2024 H 0.93929 0.25094 0.01337 0.0
H2025 H 0.91039 0.22551 0.01333 0.0
H2026 H 0.95304 0.28886 0.04229 0.0
H2027 H 0.97435 0.29876 0.07412 0.0
C2028 C 0.03523 0.72107 0.5039 0.0
C2029 C 0.05471 0.70527 0.51684 0.0
C2030 C 0.04749 0.67189 0.47307 0.0
C2031 C 0.02899 0.68825 0.46 0.0
N2032 N 1.00597 0.72908 0.46252 0.0
N2033 N 0.07711 0.6634 0.51379 0.0
C2034 C 0.0234 0.71321 0.47528 0.0
C2035 C 0.05997 0.6799 0.50148 0.0
N2036 N 0.02589 0.74208 0.51997 0.0
N2037 N 0.05275 0.64818 0.45792 0.0
H2038 H 0.08421 0.66598 0.53482 0.0
H2039 H 0.08474 0.64663 0.50348 0.0
H2040 H 0.04507 0.64318 0.43706 0.0
H2041 H 0.06408 0.63329 0.46534 0.0
H2042 H 0.01004 0.75306 0.51307 0.0
H2043 H 0.03191 0.74656 0.54136 0.0
H2044 H 1.00367 0.74933 0.47047 0.0
H2045 H 0.99449 0.72225 0.4431 0.0
C2046 C 0.59717 0.31654 0.02795 0.0
C2047 C 0.59606 0.34546 0.03695 0.0
C2048 C 0.64486 0.34797 0.05449 0.0
C2049 C 0.64829 0.32561 0.03365 0.0
N2050 N 0.62584 0.27865 0.0288 0.0
N2051 N 0.61999 0.3865 0.06651 0.0
C2052 C 0.6237 0.30614 0.02975 0.0
C2053 C 0.62082 0.36158 0.05094 0.0
N2054 N 0.57377 0.29995 0.01467 0.0
N2055 N 0.64963 0.34373 0.08142 0.0
H2056 H 0.60191 0.39598 0.06664 0.0
H2057 H 0.63753 0.39672 0.07965 0.0
H2058 H 0.65609 0.3254 0.08732 0.0
H2059 H 0.65609 0.3254 0.08732 0.0
H2060 H 0.57305 0.27886 1.00761 0.0
H2061 H 0.5566 0.30814 1.00583 0.0
H2062 H 0.60884 0.26354 0.02859 0.0
H2063 H 0.60884 0.26354 0.02859 0.0
C2064 C 0.46387 0.46063 0.75053 0.0
C2065 C 0.43927 0.4621 0.73259 0.0
C2066 C 0.44156 0.41435 0.7097 0.0
C2067 C 0.46517 0.4123 0.72827 0.0
N2068 N 0.50266 0.43533 0.76245 0.0
N2069 N 0.40249 0.43868 0.69843 0.0
C2070 C 0.47747 0.43613 0.7475 0.0
C2071 C 0.42774 0.43854 0.71303 0.0
N2072 N 0.47396 0.48243 0.77079 0.0
N2073 N 0.43353 0.39386 0.68764 0.0
H2074 H 0.39059 0.45499 0.70107 0.0
H2075 H 0.39261 0.42123 0.68565 0.0
H2076 H 0.44258 0.37548 0.68547 0.0
H2077 H 0.42021 0.39633 0.67018 0.0
H2078 H 0.48947 0.48146 0.78695 0.0
H2079 H 0.46564 0.50119 0.77255 0.0
H2080 H 0.51463 0.45254 0.77452 0.0
H2081 H 0.51192 0.41712 0.76231 0.0
C2082 C 0.0547 0.93011 0.23969 0.0
C2083 C 0.06806 0.91543 0.21935 0.0
C2084 C 0.10297 0.95725 0.22445 0.0
C2085 C 0.09384 0.96754 0.24986 0.0
N2086 N 0.06381 0.95872 0.28419 0.0
N2087 N 0.10672 0.91608 0.19256 0.0
C2088 C 0.07001 0.95305 0.25791 0.0
C2089 C 0.09248 0.92951 0.21127 0.0
N2090 N 0.02778 0.92141 0.24237 0.0
N2091 N 0.12199 0.97381 0.21332 0.0
H2092 H 0.09996 0.89589 0.18268 0.0
H2093 H 0.12617 0.92438 0.18835 0.0
H2094 H 0.12938 0.99421 0.2224 0.0
H2095 H 0.12813 0.96832 0.1939 0.0
H2096 H 0.01664 0.93277 0.25564 0.0
H2097 H 0.0161 0.90479 0.22896 0.0
H2098 H 0.04718 0.94776 0.29149 0.0
H2099 H 0.07793 0.97113 0.29952 0.0
C2100 C 0.50259 0.06171 0.72284 0.0
C2101 C 0.52508 0.0483 0.71472 0.0
C2102 C 0.49111 1.00731 0.69377 0.0
C2103 C 0.46851 0.02343 0.69677 0.0
N2104 N 0.45575 0.06928 0.70915 0.0
N2105 N 0.54135 1.00532 0.69907 0.0
C2106 C 0.47498 0.05129 0.7105 0.0
C2107 C 0.51951 0.02012 0.70189 0.0
N2108 N 0.50744 0.08444 0.74281 0.0
N2109 N 0.48527 0.97981 0.68284 0.0
H2110 H 0.5619 0.01426 0.70536 0.0
H2111 H 0.53954 0.98434 0.69113 0.0
H2112 H 0.46541 0.96883 0.68115 0.0
H2113 H 0.49978 0.96761 0.67581 0.0
H2114 H 0.49144 0.09269 0.75203 0.0
H2115 H 0.5273 0.09274 0.75249 0.0
H2116 H 0.46016 0.09032 0.71727 0.0
H2117 H 0.43685 0.06423 0.69657 0.0
C2118 C 0.0405 0.6215 0.36248 0.0
C2119 C 0.03484 0.5977 0.34199 0.0
C2120 C 0.03434 0.62859 0.30608 0.0
C2121 C 0.03609 0.65323 0.32654 0.0
N2122 N 0.06045 0.66888 0.37323 0.0
N2123 N 0.04387 0.58067 0.29665 0.0
C2124 C 0.04576 0.64846 0.35432 0.0
C2125 C 0.03801 0.60217 0.31469 0.0
N2126 N 0.03787 0.62014 0.38959 0.0
N2127 N 0.02793 0.62897 0.27848 0.0
H2128 H 0.04699 0.56142 0.303 0.0
H2129 H 0.04851 0.58302 0.27673 0.0
H2130 H 0.03399 0.6457 0.2688 0.0
H2131 H 0.01964 0.61099 0.26485 0.0
H2132 H 0.03111 0.60205 0.39753 0.0
H2133 H 0.03111 0.60205 0.39753 0.0
H2134 H 0.0687 0.66511 0.3929 0.0
H2135 H 0.06619 0.68847 0.36851 0.0
C2136 C 0.43117 0.67876 0.31227 0.0
C2137 C 0.42249 0.6638 0.33387 0.0
C2138 C 0.46944 0.64962 0.33901 0.0
C2139 C 0.47526 0.65872 0.31358 0.0
N2140 N 0.45566 0.6752 0.27198 0.0
N2141 N 0.43304 0.62622 0.36009 0.0
C2142 C 0.45437 0.67135 0.29892 0.0
C2143 C 0.4416 0.64685 0.34532 0.0
N2144 N 0.41866 0.70097 0.30536 0.0
N2145 N 0.49035 0.64371 0.35734 0.0
H2146 H 0.41216 0.62009 0.36144 0.0
H2147 H 0.44636 0.61265 0.36726 0.0
H2148 H 0.51111 0.64734 0.35415 0.0
H2149 H 0.48701 0.63851 0.37688 0.0
H2150 H 0.42585 0.71329 0.29097 0.0
H2151 H 0.40389 0.70911 0.31664 0.0
H2152 H 0.43993 0.68306 0.26025 0.0
H2153 H 0.47123 0.66826 0.26105 0.0
C2154 C 0.08882 0.26742 0.75131 0.0
C2155 C 0.10122 0.2838 0.77728 0.0
C2156 C 0.07593 0.31865 0.76357 0.0
C2157 C 0.05493 0.30322 0.7393 0.0
N2158 N 0.05692 0.26181 0.70737 0.0
N2159 N 0.09661 0.32117 0.81097 0.0
C2160 C 0.06558 0.27646 0.73298 0.0
C2161 C 0.08682 0.3055 0.78584 0.0
N2162 N 0.09895 0.24297 0.74473 0.0
N2163 N 0.0956 0.34001 0.76011 0.0
H2164 H 0.10102 0.31237 0.82898 0.0
H2165 H 0.10155 0.34277 0.81382 0.0
H2166 H 0.11449 0.34744 0.77259 0.0
H2167 H 0.11449 0.34744 0.77259 0.0
H2168 H 0.09061 0.228 0.72801 0.0
H2169 H 0.11482 0.23688 0.75796 0.0
H2170 H 0.06331 0.24295 0.7003 0.0
H2171 H 0.04387 0.26954 0.6926 0.0
C2172 C 0.81135 0.02326 0.68682 0.0
C2173 C 0.79117 0.99966 0.68479 0.0
C2174 C 0.82462 0.97544 0.71047 0.0
C2175 C 0.84477 0.99887 0.71155 0.0
N2176 N 0.86029 0.03756 0.68865 0.0
N2177 N 0.78024 0.95071 0.68801 0.0
C2178 C 0.83908 0.02065 0.69611 0.0
C2179 C 0.79834 0.97478 0.69444 0.0
N2180 N 0.80414 0.04825 0.68071 0.0
N2181 N 0.83048 0.9543 0.72511 0.0
H2182 H 0.7609 0.94967 0.67615 0.0
H2183 H 0.78538 0.93139 0.69225 0.0
H2184 H 0.8499 0.95437 0.73648 0.0
H2185 H 0.81578 0.93766 0.72709 0.0
H2186 H 0.81812 0.06658 0.68503 0.0
H2187 H 0.78378 0.05105 0.67381 0.0
H2188 H 0.85711 0.05319 0.67631 0.0
H2189 H 0.88068 0.03309 0.69157 0.0
C2190 C 0.73316 0.01752 0.34873 0.0
C2191 C 0.74463 0.04928 0.35994 0.0
C2192 C 0.68374 0.07251 0.34517 0.0
C2193 C 0.66038 0.04518 0.33005 0.0
N2194 N 0.65245 0.99339 0.31095 0.0
N2195 N 0.72862 0.09938 0.38294 0.0
C2196 C 0.67044 0.01591 0.32424 0.0
C2197 C 0.72008 0.07548 0.36197 0.0
N2198 N 0.74966 0.99685 0.35193 0.0
N2199 N 0.67428 0.09721 0.34251 0.0
H2200 H 0.72315 0.08392 0.36941 0.0
H2201 H 0.71449 0.11296 0.38831 0.0
H2202 H 0.65542 0.09793 0.33036 0.0
H2203 H 0.68687 0.11613 0.349 0.0
H2204 H 0.7449 0.97628 0.34307 0.0
H2205 H 0.76895 1.00141 0.36421 0.0
H2206 H 0.65765 0.97845 0.29598 0.0
H2207 H 0.63356 0.98836 0.31797 0.0
C2208 C 0.3525 0.44817 0.65108 0.0
C2209 C 0.33546 0.42445 0.65764 0.0
C2210 C 0.29655 0.45329 0.65745 0.0
C2211 C 0.31467 0.47719 0.65379 0.0
N2212 N 0.36161 0.49866 0.65714 0.0
N2213 N 0.29073 0.40615 0.66925 0.0
C2214 C 0.34313 0.47492 0.65371 0.0
C2215 C 0.30743 0.42773 0.66186 0.0
N2216 N 0.37744 0.44571 0.64167 0.0
N2217 N 0.26865 0.45453 0.65533 0.0
H2218 H 0.29594 0.38598 0.66858 0.0
H2219 H 0.2721 0.40857 0.67708 0.0
H2220 H 0.26001 0.47243 0.65142 0.0
H2221 H 0.25387 0.43737 0.65543 0.0
H2222 H 0.38825 0.46173 0.63331 0.0
H2223 H 0.38655 0.4275 0.64006 0.0
H2224 H 0.383 0.49846 0.65906 0.0
H2225 H 0.35543 0.51846 0.66058 0.0
C2226 C 0.35473 0.72995 0.01229 0.0
C2227 C 0.36392 0.7413 0.04501 0.0
C2228 C 0.34361 0.68623 0.06947 0.0
C2229 C 0.32794 0.66157 0.04336 0.0
N2230 N 0.30326 0.65256 0.99471 0.0
N2231 N 0.36882 0.73482 0.0963 0.0
C2232 C 0.3228 0.66972 0.01333 0.0
C2233 C 0.35856 0.72087 0.07077 0.0
N2234 N 0.36179 0.74549 0.99215 0.0
N2235 N 0.34473 0.67593 0.09408 0.0
H2236 H 0.38055 0.75436 0.09824 0.0
H2237 H 0.36629 0.7274 0.11497 0.0
H2238 H 0.33319 0.65691 0.09564 0.0
H2239 H 0.35715 0.68528 0.11218 0.0
H2240 H 0.35116 0.74307 0.97262 0.0
H2241 H 0.37548 0.76395 0.99767 0.0
H2242 H 0.29393 0.65632 0.97559 0.0
H2243 H 0.29393 0.65632 0.97559 0.0
C2244 C 0.73933 0.09293 0.26903 0.0
C2245 C 0.76536 0.10663 0.28514 0.0
C2246 C 0.74716 0.08898 0.32225 0.0
C2247 C 0.72421 0.06578 0.30914 0.0
N2248 N 0.69727 0.0577 0.26388 0.0
N2249 N 0.7962 0.10379 0.32593 0.0
C2250 C 0.72045 0.07092 0.28007 0.0
C2251 C 0.77124 0.09566 0.30966 0.0
N2252 N 0.73279 0.1008 0.24362 0.0
N2253 N 0.74096 0.11286 0.33649 0.0
H2254 H 0.81462 0.10977 0.31822 0.0
H2255 H 0.79832 0.10377 0.34734 0.0
H2256 H 0.75633 0.12898 0.34641 0.0
H2257 H 0.75633 0.12898 0.34641 0.0
H2258 H 0.71456 0.09313 0.2305 0.0
H2259 H 0.7464 0.11523 0.23591 0.0
H2260 H 0.69394 0.05748 0.24247 0.0
H2261 H 0.68136 0.04728 0.27271 0.0
C2262 C 0.70337 0.79464 0.97716 0.0
C2263 C 0.68371 0.79167 0.99623 0.0
C2264 C 0.69166 0.8417 0.01197 0.0
C2265 C 0.71347 0.84408 0.99519 0.0
N2266 N 0.73965 0.8248 0.96101 0.0
N2267 N 0.66032 0.81123 0.03333 0.0
C2268 C 0.71907 0.82105 0.9774 0.0
C2269 C 0.67774 0.81496 0.01372 0.0
N2270 N 0.70691 0.77204 0.95901 0.0
N2271 N 0.6843 0.86502 0.02626 0.0
H2272 H 0.64967 0.7919 0.03523 0.0
H2273 H 0.65779 0.82685 0.04899 0.0
H2274 H 0.69529 0.88481 0.02754 0.0
H2275 H 0.6661 0.86513 0.03539 0.0
H2276 H 0.72078 0.77235 0.94446 0.0
H2277 H 0.69491 0.75265 0.95757 0.0
H2278 H 0.74668 0.80889 0.94871 0.0
H2279 H 0.75042 0.84441 0.96021 0.0
C2280 C 0.68588 0.34397 0.45027 0.0
C2281 C 0.66871 0.33352 0.42487 0.0
C2282 C 0.64423 0.29824 0.44902 0.0
C2283 C 0.65786 0.31196 0.47508 0.0
N2284 N 0.69166 0.34841 0.50069 0.0
N2285 N 0.63137 0.30015 0.39982 0.0
C2286 C 0.67898 0.33475 0.47568 0.0
C2287 C 0.64804 0.31025 0.42414 0.0
N2288 N 0.70919 0.36224 0.44994 0.0
N2289 N 0.62811 0.27328 0.44814 0.0
H2290 H 0.63403 0.30773 0.38114 0.0
H2291 H 0.61402 0.28526 0.39835 0.0
H2292 H 0.62521 0.26425 0.46604 0.0
H2293 H 0.61957 0.26059 0.42978 0.0
H2294 H 0.72466 0.36771 0.46683 0.0
H2295 H 0.71447 0.36957 0.43181 0.0
H2296 H 0.70597 0.3662 0.50265 0.0
H2297 H 0.68648 0.34301 0.5196 0.0
C2298 C 0.07624 0.33429 0.70685 0.0
C2299 C 0.06405 0.36579 0.73058 0.0
C2300 C 0.03206 0.37917 0.67687 0.0
C2301 C 0.03876 0.34926 0.6564 0.0
N2302 N 0.06572 0.30489 0.65313 0.0
N2303 N 0.04349 0.41306 0.72578 0.0
C2304 C 0.05992 0.32683 0.67015 0.0
C2305 C 0.04384 0.38698 0.71308 0.0
N2306 N 0.10115 0.32257 0.71261 0.0
N2307 N 0.02496 0.40082 0.66419 0.0
H2308 H 0.05271 0.41933 0.74625 0.0
H2309 H 0.05271 0.41933 0.74625 0.0
H2310 H 0.01963 0.39883 0.64282 0.0
H2311 H 0.01963 0.39883 0.64282 0.0
H2312 H 0.1071 0.30827 0.69756 0.0
H2313 H 0.08454 0.33156 0.71063 0.0
H2314 H 0.07769 0.29037 0.66049 0.0
H2315 H 0.05723 0.30136 0.63225 0.0
C2316 C 0.30644 0.73255 0.1046 0.0
C2317 C 0.30593 0.76135 0.1085 0.0
C2318 C 0.30752 0.76686 0.0584 0.0
C2319 C 0.30927 0.73167 0.0534 0.0
N2320 N 0.28688 0.69163 0.07196 0.0
N2321 N 0.26666 0.77535 0.08503 0.0
C2322 C 0.30048 0.71799 0.07655 0.0
C2323 C 0.29318 0.76961 0.08447 0.0
N2324 N 0.31189 0.71895 0.1269 0.0
N2325 N 0.3258 0.79972 0.03977 0.0
H2326 H 0.25329 0.76252 0.09472 0.0
H2327 H 0.26399 0.79576 0.09252 0.0
H2328 H 0.33822 0.80649 0.02469 0.0
H2329 H 0.33822 0.80649 0.02469 0.0
H2330 H 0.31196 0.69747 0.12501 0.0
H2331 H 0.31788 0.72964 0.14691 0.0
H2332 H 0.28013 0.68161 0.08814 0.0
H2333 H 0.28052 0.68148 0.05183 0.0
C2334 C 0.9721 0.6972 0.79589 0.0
C2335 C 0.99776 0.68944 0.78922 0.0
C2336 C 0.01907 0.70465 0.83602 0.0
C2337 C 0.99533 0.71753 0.84133 0.0
N2338 N 0.95074 0.72987 0.8249 0.0
N2339 N 0.04728 0.6905 0.80113 0.0
C2340 C 0.9721 0.71486 0.82088 0.0
C2341 C 0.02191 0.69499 0.80866 0.0
N2342 N 0.94793 0.68709 0.77902 0.0
N2343 N 0.03836 0.70099 0.85716 0.0
H2344 H 0.05003 0.68307 0.78084 0.0
H2345 H 0.06577 0.69685 0.81443 0.0
H2346 H 0.03503 0.70535 0.87762 0.0
H2347 H 0.05533 0.69033 0.85432 0.0
H2348 H 0.92849 0.68987 0.78487 0.0
H2349 H 0.94733 0.67406 0.76033 0.0
H2350 H 0.93407 0.72984 0.80957 0.0
H2351 H 0.95108 0.74411 0.8427 0.0
C2352 C 0.58917 0.38508 0.692 0.0
C2353 C 0.59511 0.3585 0.68067 0.0
C2354 C 0.5499 0.33766 0.69272 0.0
C2355 C 0.54471 0.36417 0.70535 0.0
N2356 N 0.56476 0.4108 0.72476 0.0
N2357 N 0.58312 0.30858 0.67508 0.0
C2358 C 0.5659 0.38721 0.70708 0.0
C2359 C 0.57613 0.33449 0.68271 0.0
N2360 N 0.60593 0.40858 0.68871 0.0
N2361 N 0.52931 0.31566 0.68918 0.0
H2362 H 0.60113 0.30546 0.66626 0.0
H2363 H 0.57215 0.29029 0.67926 0.0
H2364 H 0.50946 0.31781 0.69407 0.0
H2365 H 0.53086 0.29604 0.67888 0.0
H2366 H 0.60061 0.42856 0.69325 0.0
H2367 H 0.62412 0.40815 0.67956 0.0
H2368 H 0.5806 0.42755 0.7289 0.0
H2369 H 0.54937 0.41217 0.73773 0.0
C2370 C 0.94845 0.73012 0.23151 0.0
C2371 C 0.92214 0.71889 0.23906 0.0
C2372 C 0.94727 0.73409 0.28491 0.0
C2373 C 0.97431 0.72651 0.28062 0.0
N2374 N 1.00007 0.74002 0.24399 0.0
N2375 N 0.90012 0.70652 0.27711 0.0
C2376 C 0.97499 0.73184 0.25159 0.0
C2377 C 0.92285 0.71912 0.26739 0.0
N2378 N 0.94767 0.74041 0.20694 0.0
N2379 N 0.94592 0.7603 0.29698 0.0
H2380 H 0.88701 0.68985 0.26506 0.0
H2381 H 0.89262 0.7136 0.29533 0.0
H2382 H 0.92719 0.76874 0.29578 0.0
H2383 H 0.92719 0.76874 0.29578 0.0
H2384 H 0.96386 0.75377 0.20193 0.0
H2385 H 0.92937 0.73761 0.193 0.0
H2386 H 1.00284 0.74553 0.22452 0.0
H2387 H 1.00284 0.74553 0.22452 0.0
C2388 C 0.22109 1.00302 0.30133 0.0
C2389 C 0.22823 0.01329 0.32996 0.0
C2390 C 0.18627 0.03585 0.32915 0.0
C2391 C 0.17904 0.02516 0.30044 0.0
N2392 N 0.19581 1.01 0.25777 0.0
N2393 N 0.22289 0.04828 0.36767 0.0
C2394 C 0.19917 0.01336 0.28606 0.0
C2395 C 0.21244 0.03236 0.3429 0.0
N2396 N 0.23343 0.98177 0.28925 0.0
N2397 N 0.16843 0.0488 0.34392 0.0
H2398 H 0.24272 0.04757 0.37774 0.0
H2399 H 0.21305 0.06432 0.37662 0.0
H2400 H 0.15478 0.0609 0.33532 0.0
H2401 H 0.16982 0.05015 0.36548 0.0
H2402 H 0.22686 0.97198 0.26903 0.0
H2403 H 0.24788 0.9718 0.30038 0.0
H2404 H 0.21061 1.00252 0.24612 0.0
H2405 H 0.17923 0.01714 0.24651 0.0
C2406 C 0.30753 0.96996 0.63672 0.0
C2407 C 0.29396 0.95277 0.66228 0.0
C2408 C 0.35574 0.96763 0.69889 0.0
C2409 C 0.36577 0.98518 0.67297 0.0
N2410 N 0.35546 0.98595 0.61657 0.0
N2411 N 0.31838 0.93969 0.72109 0.0
C2412 C 0.34334 0.98557 0.64121 0.0
C2413 C 0.3222 0.95005 0.69664 0.0
N2414 N 0.29363 0.96407 0.61077 0.0
N2415 N 0.37635 0.96161 0.71753 0.0
H2416 H 0.33221 0.9441 0.73938 0.0
H2417 H 0.33221 0.9441 0.73938 0.0
H2418 H 0.39715 0.9682 0.7165 0.0
H2419 H 0.37377 0.94668 0.73077 0.0
H2420 H 0.27349 0.9535 0.60701 0.0
H2421 H 0.30435 0.96583 0.59376 0.0
H2422 H 0.34778 0.99493 0.63258 0.0
H2423 H 0.37626 0.99201 0.6153 0.0
C2424 C 0.71074 0.59661 0.37971 0.0
C2425 C 0.68928 0.59776 0.35782 0.0
C2426 C 0.69119 0.54839 0.34051 0.0
C2427 C 0.71099 0.54682 0.36371 0.0
N2428 N 0.74641 0.57092 0.39909 0.0
N2429 N 0.66287 0.57692 0.31429 0.0
C2430 C 0.72282 0.57149 0.3814 0.0
C2431 C 0.68095 0.57433 0.33701 0.0
N2432 N 0.71929 0.61949 0.39917 0.0
N2433 N 0.68238 0.525 0.32191 0.0
H2434 H 0.65489 0.59547 0.3115 0.0
H2435 H 0.65637 0.56129 0.29769 0.0
H2436 H 0.68625 0.50523 0.32602 0.0
H2437 H 0.67222 0.5251 0.30211 0.0
H2438 H 0.73283 0.61935 0.41716 0.0
H2439 H 0.71174 0.63853 0.39812 0.0
H2440 H 0.75793 0.58851 0.41094 0.0
H2441 H 0.75588 0.55289 0.40007 0.0
C2442 C 0.63111 0.30393 0.97543 0.0
C2443 C 0.65132 0.28309 0.95721 0.0
C2444 C 0.69113 0.33858 0.95241 0.0
C2445 C 0.67132 0.35849 0.97362 0.0
N2446 N 0.62146 0.35721 0.99148 0.0
N2447 N 0.68507 0.29167 0.91594 0.0
C2448 C 0.64097 0.34148 0.9842 0.0
C2449 C 0.68034 0.30114 0.94206 0.0
N2450 N 0.604 0.2933 0.97109 0.0
N2451 N 0.71069 0.35272 0.94011 0.0
H2452 H 0.67182 0.27547 0.90356 0.0
H2453 H 0.69822 0.3037 0.90541 0.0
H2454 H 0.71463 0.37441 0.94418 0.0
H2455 H 0.72205 0.34283 0.92608 0.0
H2456 H 0.59818 0.27215 0.9638 0.0
H2457 H 0.58864 0.30626 0.96921 0.0
H2458 H 0.62642 0.37785 1.00061 0.0
H2459 H 0.60058 0.34943 0.98623 0.0
C2460 C 0.23789 0.92293 0.69802 0.0
C2461 C 0.22708 0.92321 0.72236 0.0
C2462 C 0.26311 0.96696 0.73943 0.0
C2463 C 0.27665 0.96558 0.71388 0.0
N2464 N 0.28088 0.91377 0.6913 0.0
N2465 N 0.23017 0.94527 0.76893 0.0
C2466 C 0.26552 0.93451 0.70003 0.0
C2467 C 0.2397 0.94552 0.74389 0.0
N2468 N 0.22643 0.90372 0.67535 0.0
N2469 N 0.27589 0.98488 0.76174 0.0
H2470 H 0.21379 0.93042 0.77157 0.0
H2471 H 0.23805 0.95914 0.78665 0.0
H2472 H 0.29698 0.99207 0.76309 0.0
H2473 H 0.2661 0.99129 0.77876 0.0
H2474 H 0.23731 0.89748 0.65899 0.0
H2475 H 0.20526 0.89713 0.67063 0.0
H2476 H 0.2745 0.89227 0.68718 0.0
H2477 H 0.2745 0.89227 0.68718 0.0
C2478 C 0.32801 0.22547 0.03674 0.0
C2479 C 0.33775 0.2297 0.01109 0.0
C2480 C 0.32018 0.18184 0.99229 0.0
C2481 C 0.30509 0.17959 0.01508 0.0
N2482 N 0.29427 0.19895 0.05951 0.0
N2483 N 0.33676 0.21346 0.96218 0.0
C2484 C 0.30909 0.20126 0.03771 0.0
C2485 C 0.33232 0.20827 0.98823 0.0
N2486 N 0.33691 0.24442 0.05987 0.0
N2487 N 0.32262 0.15884 0.97431 0.0
H2488 H 0.34439 0.23308 0.95775 0.0
H2489 H 0.32984 0.19891 0.94457 0.0
H2490 H 0.31459 0.1388 0.97703 0.0
H2491 H 0.33508 0.15956 0.95841 0.0
H2492 H 0.33253 0.24117 0.07965 0.0
H2493 H 0.35078 0.2623 0.05956 0.0
H2494 H 0.29509 0.21474 0.07606 0.0
H2495 H 0.27967 0.1817 0.06006 0.0
C2496 C 0.36149 0.66722 0.56912 0.0
C2497 C 0.3574 0.68594 0.59271 0.0
C2498 C 0.35891 0.72442 0.56377 0.0
C2499 C 0.36465 0.70608 0.54101 0.0
N2500 N 0.3687 0.65994 0.52027 0.0
N2501 N 0.34517 0.73139 0.60986 0.0
C2502 C 0.36501 0.67737 0.54323 0.0
C2503 C 0.35337 0.71408 0.58906 0.0
N2504 N 0.36123 0.63952 0.57149 0.0
N2505 N 0.35972 0.75214 0.56126 0.0
H2506 H 0.33736 0.72507 0.62713 0.0
H2507 H 0.34429 0.75254 0.60996 0.0
H2508 H 0.36774 0.76081 0.54495 0.0
H2509 H 0.35333 0.76715 0.57514 0.0
H2510 H 0.36588 0.62457 0.55635 0.0
H2511 H 0.35556 0.63104 0.5889 0.0
H2512 H 0.37164 0.63917 0.52006 0.0
H2513 H 0.36868 0.66645 0.50073 0.0
C2514 C 0.96895 0.64279 0.29838 0.0
C2515 C 0.95257 0.67161 0.28992 0.0
C2516 C 0.97216 0.69925 0.35348 0.0
C2517 C 0.98698 0.67004 0.35865 0.0
N2518 N 0.98339 0.61589 0.33909 0.0
N2519 N 0.93041 0.71448 0.32572 0.0
C2520 C 0.98464 0.64179 0.33206 0.0
C2521 C 0.95271 0.70136 0.32121 0.0
N2522 N 0.96572 0.61905 0.2802 0.0
N2523 N 0.97453 0.71901 0.37599 0.0
H2524 H 0.93003 0.72922 0.34297 0.0
H2525 H 0.93003 0.72922 0.34297 0.0
H2526 H 0.96765 0.7384 0.37573 0.0
H2527 H 0.96765 0.7384 0.37573 0.0
H2528 H 0.95411 0.61721 0.26065 0.0
H2529 H 0.95411 0.61721 0.26065 0.0
H2530 H 0.9853 0.61216 0.35968 0.0
H2531 H 0.9853 0.61216 0.35968 0.0
C2532 C 0.73523 0.24418 0.93885 0.0
C2533 C 0.73725 0.25816 0.91597 0.0
C2534 C 0.74189 0.3001 0.95285 0.0
C2535 C 0.72195 0.28607 0.96812 0.0
N2536 N 0.69245 0.24135 0.94707 0.0
N2537 N 0.76481 0.30017 0.91009 0.0
C2538 C 0.71747 0.25548 0.95708 0.0
C2539 C 0.74736 0.28688 0.92533 0.0
N2540 N 0.73868 0.21673 0.9361 0.0
N2541 N 0.75552 0.32542 0.9644 0.0
H2542 H 0.77378 0.28886 0.89476 0.0
H2543 H 0.77196 0.32136 0.91409 0.0
H2544 H 0.751 0.33539 0.98307 0.0
H2545 H 0.77186 0.33565 0.95614 0.0
H2546 H 0.72891 0.20292 0.94738 0.0
H2547 H 0.7494 0.20795 0.92068 0.0
H2548 H 0.68944 0.21987 0.94058 0.0
H2549 H 0.67909 0.24865 0.93268 0.0
C2550 C 0.02813 0.31071 0.22547 0.0
C2551 C 0.01365 0.33451 0.22674 0.0
C2552 C 0.01579 0.33546 0.17753 0.0
C2553 C 0.02435 0.30877 0.17498 0.0
N2554 N 0.03743 0.26968 0.19631 0.0
N2555 N 0.98695 0.36429 0.20131 0.0
C2556 C 0.03037 0.29602 0.199 0.0
C2557 C 1.0056 0.34552 0.20201 0.0
N2558 N 0.04032 0.30266 0.24919 0.0
N2559 N 0.0173 0.35116 0.15651 0.0
H2560 H 0.97704 0.37057 0.21833 0.0
H2561 H 0.97887 0.3708 0.18286 0.0
H2562 H 0.02825 0.34563 0.14021 0.0
H2563 H 0.01211 0.37138 0.15783 0.0
H2564 H 0.05272 0.28665 0.2491 0.0
H2565 H 0.04033 0.31372 0.26881 0.0
H2566 H 0.03909 0.25798 0.21275 0.0
H2567 H 0.04015 0.2592 0.17709 0.0
loop_
_geom_bond_atom_site_label_1
_geom_bond_atom_site_label_2
_geom_bond_distance
_geom_bond_site_symmetry_2
_ccdc_geom_bond_type
C0 C1 1.264 . S
C0 C5 1.479 . S
C0 C10 1.465 . S
C1 C0 1.264 . S
C1 C3 1.339 . S
C1 H28 0.931 . S
C2 C3 1.395 . S
C2 C4 1.320 . S
C3 C1 1.339 . S
C3 C2 1.395 . S
C3 H29 0.929 . S
C4 C2 1.320 . S
C4 C5 1.405 . S
C4 H30 0.930 . S
C5 C0 1.479 . S
C5 C4 1.405 . S
C5 H31 0.931 . S
U6 O7 2.454 . S
U6 O8 2.458 . S
U6 C9 2.984 . S
U6 C10 2.847 . S
U6 C23 2.882 . S
U6 O24 2.441 . S
U6 O25 2.420 . S
U6 O26 2.455 . S
U6 O27 2.449 . S
O7 U6 2.454 . S
O7 C9 1.353 . S
O8 U6 2.458 . S
O8 C9 1.286 . S
C9 U6 2.984 . S
C9 O7 1.353 . S
C9 O8 1.286 . S
C9 C11 1.363 . S
C10 C0 1.465 . S
C10 U6 2.847 . S
C10 O24 1.249 . S
C10 O25 1.202 . S
C11 C9 1.363 . S
C11 C13 1.408 . S
C11 C16 1.342 . S
C12 C13 1.310 . S
C12 C15 1.461 . S
C12 H32 0.932 . S
C13 C11 1.408 . S
C13 C12 1.310 . S
C13 H33 0.930 . S
C14 C15 1.474 . S
C14 C16 1.285 . S
C14 H34 0.929 . S
C15 C12 1.461 . S
C15 C14 1.474 . S
C16 C11 1.342 . S
C16 C14 1.285 . S
C16 H35 0.930 . S
C17 C20 1.424 . S
C17 C22 1.245 . S
C17 C23 1.428 . S
C18 C21 1.260 . S
C18 C22 1.477 . S
C18 H36 0.932 . S
C19 C20 1.384 . S
C19 C21 1.479 . S
C19 H37 0.929 . S
C20 C17 1.424 . S
C20 C19 1.384 . S
C20 H38 0.928 . S
C21 C18 1.260 . S
C21 C19 1.479 . S
C22 C17 1.245 . S
C22 C18 1.477 . S
C22 H39 0.932 . S
C23 U6 2.882 . S
C23 C17 1.428 . S
C23 O26 1.301 . S
C23 O27 1.282 . S
O24 U6 2.441 . S
O24 C10 1.249 . S
O25 U6 2.420 . S
O25 C10 1.202 . S
O26 U6 2.455 . S
O26 C23 1.301 . S
O27 U6 2.449 . S
O27 C23 1.282 . S
H28 C1 0.931 . S
H29 C3 0.929 . S
H30 C4 0.930 . S
H31 C5 0.931 . S
H32 C12 0.932 . S
H33 C13 0.930 . S
H34 C14 0.929 . S
H35 C16 0.930 . S
H36 C18 0.932 . S
H37 C19 0.929 . S
H38 C20 0.928 . S
H39 C22 0.932 . S
C40 C41 1.264 . S
C40 C45 1.479 . S
C40 C50 1.465 . S
C41 C40 1.264 . S
C41 C43 1.339 . S
C41 H68 0.931 . S
C42 C43 1.395 . S
C42 C44 1.320 . S
C43 C41 1.339 . S
C43 C42 1.395 . S
C43 H69 0.929 . S
C44 C42 1.320 . S
C44 C45 1.405 . S
C44 H70 0.930 . S
C45 C40 1.479 . S
C45 C44 1.405 . S
C45 H71 0.931 . S
U46 O47 2.454 . S
U46 O48 2.458 . S
U46 C49 2.984 . S
U46 C50 2.847 . S
U46 C63 2.882 . S
U46 O64 2.441 . S
U46 O65 2.420 . S
U46 O66 2.455 . S
U46 O67 2.449 . S
O47 U46 2.454 . S
O47 C49 1.353 . S
O48 U46 2.458 . S
O48 C49 1.286 . S
C49 U46 2.984 . S
C49 O47 1.353 . S
C49 O48 1.286 . S
C49 C51 1.363 . S
C50 C40 1.465 . S
C50 U46 2.847 . S
C50 O64 1.249 . S
C50 O65 1.202 . S
C51 C49 1.363 . S
C51 C53 1.408 . S
C51 C56 1.342 . S
C52 C53 1.310 . S
C52 C55 1.461 . S
C52 H72 0.932 . S
C53 C51 1.408 . S
C53 C52 1.310 . S
C53 H73 0.930 . S
C54 C55 1.474 . S
C54 C56 1.285 . S
C54 H74 0.929 . S
C55 C52 1.461 . S
C55 C54 1.474 . S
C56 C51 1.342 . S
C56 C54 1.285 . S
C56 H75 0.930 . S
C57 C60 1.424 . S
C57 C62 1.245 . S
C57 C63 1.428 . S
C58 C61 1.260 . S
C58 C62 1.477 . S
C58 H76 0.932 . S
C59 C60 1.384 . S
C59 C61 1.479 . S
C59 H77 0.929 . S
C60 C57 1.424 . S
C60 C59 1.384 . S
C60 H78 0.928 . S
C61 C58 1.260 . S
C61 C59 1.479 . S
C62 C57 1.245 . S
C62 C58 1.477 . S
C62 H79 0.932 . S
C63 U46 2.882 . S
C63 C57 1.428 . S
C63 O66 1.301 . S
C63 O67 1.282 . S
O64 U46 2.441 . S
O64 C50 1.249 . S
O65 U46 2.420 . S
O65 C50 1.202 . S
O66 U46 2.455 . S
O66 C63 1.301 . S
O67 U46 2.449 . S
O67 C63 1.282 . S
H68 C41 0.931 . S
H69 C43 0.929 . S
H70 C44 0.930 . S
H71 C45 0.931 . S
H72 C52 0.932 . S
H73 C53 0.930 . S
H74 C54 0.929 . S
H75 C56 0.930 . S
H76 C58 0.932 . S
H77 C59 0.929 . S
H78 C60 0.928 . S
H79 C62 0.932 . S
C80 C81 1.264 . S
C80 C85 1.479 . S
C80 C90 1.465 . S
C81 C80 1.264 . S
C81 C83 1.339 . S
C81 H108 0.931 . S
C82 C83 1.395 . S
C82 C84 1.320 . S
C83 C81 1.339 . S
C83 C82 1.395 . S
C83 H109 0.929 . S
C84 C82 1.320 . S
C84 C85 1.405 . S
C84 H110 0.930 1_565 S
C85 C80 1.479 . S
C85 C84 1.405 . S
C85 H111 0.931 . S
U86 O87 2.454 . S
U86 O88 2.458 . S
U86 C89 2.984 . S
U86 C90 2.847 . S
U86 C103 2.882 . S
U86 O104 2.441 . S
U86 O105 2.420 . S
U86 O106 2.455 . S
U86 O107 2.449 . S
O87 U86 2.454 . S
O87 C89 1.353 . S
O88 U86 2.458 . S
O88 C89 1.286 . S
C89 U86 2.984 . S
C89 O87 1.353 . S
C89 O88 1.286 . S
C89 C91 1.363 . S
C90 C80 1.465 . S
C90 U86 2.847 . S
C90 O104 1.249 . S
C90 O105 1.202 . S
C91 C89 1.363 . S
C91 C93 1.408 . S
C91 C96 1.342 . S
C92 C93 1.310 . S
C92 C95 1.462 . S
C92 H112 0.932 . S
C93 C91 1.408 . S
C93 C92 1.310 . S
C93 H113 0.930 . S
C94 C95 1.473 1_545 S
C94 C96 1.284 1_545 S
C94 H114 0.932 . S
C95 C92 1.462 . S
C95 C94 1.473 1_565 S
C96 C91 1.342 . S
C96 C94 1.284 1_565 S
C96 H115 0.936 . S
C97 C100 1.424 . S
C97 C102 1.245 . S
C97 C103 1.428 . S
C98 C101 1.260 . S
C98 C102 1.477 . S
C98 H116 0.932 . S
C99 C100 1.384 . S
C99 C101 1.479 . S
C99 H117 0.929 . S
C100 C97 1.424 . S
C100 C99 1.384 . S
C100 H118 0.928 . S
C101 C98 1.260 . S
C101 C99 1.479 . S
C102 C97 1.245 . S
C102 C98 1.477 . S
C102 H119 0.932 . S
C103 U86 2.882 . S
C103 C97 1.428 . S
C103 O106 1.301 . S
C103 O107 1.282 . S
O104 U86 2.441 . S
O104 C90 1.249 . S
O105 U86 2.420 . S
O105 C90 1.202 . S
O106 U86 2.455 . S
O106 C103 1.301 . S
O107 U86 2.449 . S
O107 C103 1.282 . S
H108 C81 0.931 . S
H109 C83 0.929 . S
H110 C84 0.930 1_545 S
H111 C85 0.931 . S
H112 C92 0.932 . S
H113 C93 0.930 . S
H114 C94 0.932 . S
H115 C96 0.936 . S
H116 C98 0.932 . S
H117 C99 0.929 . S
H118 C100 0.928 . S
H119 C102 0.932 . S
C120 C121 1.264 . S
C120 C125 1.479 . S
C120 C130 1.465 . S
C121 C120 1.264 . S
C121 C123 1.339 . S
C121 H148 0.931 . S
C122 C123 1.395 . S
C122 C124 1.320 . S
C123 C121 1.339 . S
C123 C122 1.395 . S
C123 H149 0.929 . S
C124 C122 1.320 . S
C124 C125 1.405 . S
C124 H150 0.930 . S
C125 C120 1.479 . S
C125 C124 1.405 . S
C125 H151 0.931 . S
U126 O127 2.454 . S
U126 O128 2.458 . S
U126 C129 2.984 . S
U126 C130 2.847 . S
U126 C143 2.882 1_545 S
U126 O144 2.441 . S
U126 O145 2.420 . S
U126 O146 2.455 . S
U126 O147 2.449 . S
O127 U126 2.454 . S
O127 C129 1.353 . S
O128 U126 2.458 . S
O128 C129 1.286 . S
C129 U126 2.984 . S
C129 O127 1.353 . S
C129 O128 1.286 . S
C129 C131 1.363 . S
C130 C120 1.465 . S
C130 U126 2.847 . S
C130 O144 1.249 . S
C130 O145 1.202 . S
C131 C129 1.363 . S
C131 C133 1.408 . S
C131 C136 1.342 . S
C132 C133 1.310 . S
C132 C135 1.461 . S
C132 H152 0.932 . S
C133 C131 1.408 . S
C133 C132 1.310 . S
C133 H153 0.930 . S
C134 C135 1.474 . S
C134 C136 1.285 . S
C134 H154 0.929 . S
C135 C132 1.461 . S
C135 C134 1.474 . S
C136 C131 1.342 . S
C136 C134 1.285 . S
C136 H155 0.930 . S
C137 C140 1.424 . S
C137 C142 1.245 . S
C137 C143 1.428 . S
C138 C141 1.260 . S
C138 C142 1.477 . S
C138 H156 0.932 . S
C139 C140 1.384 . S
C139 C141 1.479 . S
C139 H157 0.929 . S
C140 C137 1.424 . S
C140 C139 1.384 . S
C140 H158 0.928 . S
C141 C138 1.260 . S
C141 C139 1.479 . S
C142 C137 1.245 . S
C142 C138 1.477 . S
C142 H159 0.932 . S
C143 U126 2.882 1_565 S
C143 C137 1.428 . S
C143 O146 1.301 1_565 S
C143 O147 1.282 1_565 S
O144 U126 2.441 . S
O144 C130 1.249 . S
O145 U126 2.420 . S
O145 C130 1.202 . S
O146 U126 2.455 . S
O146 C143 1.301 1_545 S
O147 U126 2.449 . S
O147 C143 1.282 1_545 S
H148 C121 0.931 . S
H149 C123 0.929 . S
H150 C124 0.930 . S
H151 C125 0.931 . S
H152 C132 0.932 . S
H153 C133 0.930 . S
H154 C134 0.929 . S
H155 C136 0.930 . S
H156 C138 0.932 . S
H157 C139 0.929 . S
H158 C140 0.928 . S
H159 C142 0.932 . S
C160 C161 1.264 . S
C160 C165 1.479 . S
C160 C170 1.465 . S
C161 C160 1.264 . S
C161 C163 1.339 . S
C161 H188 0.931 . S
C162 C163 1.395 . S
C162 C164 1.320 . S
C163 C161 1.339 . S
C163 C162 1.395 . S
C163 H189 0.929 . S
C164 C162 1.320 . S
C164 C165 1.405 . S
C164 H190 0.930 . S
C165 C160 1.479 . S
C165 C164 1.405 . S
C165 H191 0.931 . S
U166 O167 2.454 . S
U166 O168 2.458 . S
U166 C169 2.984 . S
U166 C170 2.847 . S
U166 C183 2.882 . S
U166 O184 2.441 . S
U166 O185 2.420 . S
U166 O186 2.455 . S
U166 O187 2.449 . S
O167 U166 2.454 . S
O167 C169 1.353 . S
O168 U166 2.458 . S
O168 C169 1.286 . S
C169 U166 2.984 . S
C169 O167 1.353 . S
C169 O168 1.286 . S
C169 C171 1.363 . S
C170 C160 1.465 . S
C170 U166 2.847 . S
C170 O184 1.249 . S
C170 O185 1.202 . S
C171 C169 1.363 . S
C171 C173 1.408 . S
C171 C176 1.342 . S
C172 C173 1.310 . S
C172 C175 1.461 . S
C172 H192 0.932 . S
C173 C171 1.408 . S
C173 C172 1.310 . S
C173 H193 0.930 . S
C174 C175 1.474 . S
C174 C176 1.285 . S
C174 H194 0.929 . S
C175 C172 1.461 . S
C175 C174 1.474 . S
C176 C171 1.342 . S
C176 C174 1.285 . S
C176 H195 0.930 . S
C177 C180 1.424 . S
C177 C182 1.245 . S
C177 C183 1.428 . S
C178 C181 1.260 . S
C178 C182 1.477 . S
C178 H196 0.932 . S
C179 C180 1.384 . S
C179 C181 1.479 . S
C179 H197 0.929 . S
C180 C177 1.424 . S
C180 C179 1.384 . S
C180 H198 0.928 . S
C181 C178 1.260 . S
C181 C179 1.479 . S
C182 C177 1.245 . S
C182 C178 1.477 . S
C182 H199 0.932 . S
C183 U166 2.882 . S
C183 C177 1.428 . S
C183 O186 1.301 . S
C183 O187 1.282 . S
O184 U166 2.441 . S
O184 C170 1.249 . S
O185 U166 2.420 . S
O185 C170 1.202 . S
O186 U166 2.455 . S
O186 C183 1.301 . S
O187 U166 2.449 . S
O187 C183 1.282 . S
H188 C161 0.931 . S
H189 C163 0.929 . S
H190 C164 0.930 . S
H191 C165 0.931 . S
H192 C172 0.932 . S
H193 C173 0.930 . S
H194 C174 0.929 . S
H195 C176 0.930 . S
H196 C178 0.932 . S
H197 C179 0.929 . S
H198 C180 0.928 . S
H199 C182 0.932 . S
C200 C201 1.264 . S
C200 C205 1.479 . S
C200 C210 1.465 . S
C201 C200 1.264 . S
C201 C203 1.339 . S
C201 H228 0.931 . S
C202 C203 1.395 . S
C202 C204 1.320 . S
C203 C201 1.339 . S
C203 C202 1.395 . S
C203 H229 0.929 . S
C204 C202 1.320 . S
C204 C205 1.405 . S
C204 H230 0.930 . S
C205 C200 1.479 . S
C205 C204 1.405 . S
C205 H231 0.931 . S
U206 O207 2.454 . S
U206 O208 2.458 . S
U206 C209 2.984 . S
U206 C210 2.847 . S
U206 C223 2.882 1_554 S
U206 O224 2.441 . S
U206 O225 2.420 . S
U206 O226 2.455 . S
U206 O227 2.449 . S
O207 U206 2.454 . S
O207 C209 1.353 . S
O208 U206 2.458 . S
O208 C209 1.286 . S
C209 U206 2.984 . S
C209 O207 1.353 . S
C209 O208 1.286 . S
C209 C211 1.363 . S
C210 C200 1.465 . S
C210 U206 2.847 . S
C210 O224 1.249 . S
C210 O225 1.202 . S
C211 C209 1.363 . S
C211 C213 1.408 . S
C211 C216 1.342 . S
C212 C213 1.310 . S
C212 C215 1.461 . S
C212 H232 0.932 . S
C213 C211 1.408 . S
C213 C212 1.310 . S
C213 H233 0.930 . S
C214 C215 1.474 . S
C214 C216 1.285 . S
C214 H234 0.929 . S
C215 C212 1.461 . S
C215 C214 1.474 . S
C216 C211 1.342 . S
C216 C214 1.285 . S
C216 H235 0.930 . S
C217 C220 1.424 . S
C217 C222 1.245 . S
C217 C223 1.428 . S
C218 C221 1.260 . S
C218 C222 1.477 . S
C218 H236 0.932 . S
C219 C220 1.384 . S
C219 C221 1.479 . S
C219 H237 0.929 . S
C220 C217 1.424 . S
C220 C219 1.384 . S
C220 H238 0.928 . S
C221 C218 1.260 . S
C221 C219 1.479 . S
C222 C217 1.245 . S
C222 C218 1.477 . S
C222 H239 0.932 . S
C223 U206 2.882 1_556 S
C223 C217 1.428 . S
C223 O226 1.301 1_556 S
C223 O227 1.282 1_556 S
O224 U206 2.441 . S
O224 C210 1.249 . S
O225 U206 2.420 . S
O225 C210 1.202 . S
O226 U206 2.455 . S
O226 C223 1.301 1_554 S
O227 U206 2.449 . S
O227 C223 1.282 1_554 S
H228 C201 0.931 . S
H229 C203 0.929 . S
H230 C204 0.930 . S
H231 C205 0.931 . S
H232 C212 0.932 . S
H233 C213 0.930 . S
H234 C214 0.929 . S
H235 C216 0.930 . S
H236 C218 0.932 . S
H237 C219 0.929 . S
H238 C220 0.928 . S
H239 C222 0.932 . S
C240 C241 1.264 . S
C240 C245 1.479 . S
C240 C250 1.465 . S
C241 C240 1.264 . S
C241 C243 1.339 . S
C241 H268 0.931 . S
C242 C243 1.395 . S
C242 C244 1.320 . S
C243 C241 1.339 . S
C243 C242 1.395 . S
C243 H269 0.929 . S
C244 C242 1.320 . S
C244 C245 1.405 . S
C244 H270 0.930 . S
C245 C240 1.479 . S
C245 C244 1.405 . S
C245 H271 0.931 . S
U246 O247 2.454 . S
U246 O248 2.458 . S
U246 C249 2.984 . S
U246 C250 2.847 . S
U246 C263 2.882 . S
U246 O264 2.441 . S
U246 O265 2.420 . S
U246 O266 2.455 . S
U246 O267 2.449 . S
O247 U246 2.454 . S
O247 C249 1.353 . S
O248 U246 2.458 . S
O248 C249 1.286 . S
C249 U246 2.984 . S
C249 O247 1.353 . S
C249 O248 1.286 . S
C249 C251 1.363 . S
C250 C240 1.465 . S
C250 U246 2.847 . S
C250 O264 1.249 . S
C250 O265 1.202 . S
C251 C249 1.363 . S
C251 C253 1.408 . S
C251 C256 1.342 . S
C252 C253 1.310 . S
C252 C255 1.461 . S
C252 H272 0.932 . S
C253 C251 1.408 . S
C253 C252 1.310 . S
C253 H273 0.930 . S
C254 C255 1.474 . S
C254 C256 1.285 . S
C254 H274 0.929 . S
C255 C252 1.461 . S
C255 C254 1.474 . S
C256 C251 1.342 . S
C256 C254 1.285 . S
C256 H275 0.930 . S
C257 C260 1.424 . S
C257 C262 1.245 . S
C257 C263 1.428 . S
C258 C261 1.260 . S
C258 C262 1.477 . S
C258 H276 0.932 . S
C259 C260 1.384 . S
C259 C261 1.479 . S
C259 H277 0.929 . S
C260 C257 1.424 . S
C260 C259 1.384 . S
C260 H278 0.928 . S
C261 C258 1.260 . S
C261 C259 1.479 . S
C262 C257 1.245 . S
C262 C258 1.477 . S
C262 H279 0.932 . S
C263 U246 2.882 . S
C263 C257 1.428 . S
C263 O266 1.301 . S
C263 O267 1.282 . S
O264 U246 2.441 . S
O264 C250 1.249 . S
O265 U246 2.420 . S
O265 C250 1.202 . S
O266 U246 2.455 . S
O266 C263 1.301 . S
O267 U246 2.449 . S
O267 C263 1.282 . S
H268 C241 0.931 . S
H269 C243 0.929 . S
H270 C244 0.930 . S
H271 C245 0.931 . S
H272 C252 0.932 . S
H273 C253 0.930 . S
H274 C254 0.929 . S
H275 C256 0.930 . S
H276 C258 0.932 . S
H277 C259 0.929 . S
H278 C260 0.928 . S
H279 C262 0.932 . S
C280 C281 1.264 . S
C280 C285 1.479 . S
C280 C290 1.465 . S
C281 C280 1.264 . S
C281 C283 1.339 . S
C281 H308 0.931 . S
C282 C283 1.395 . S
C282 C284 1.320 . S
C283 C281 1.339 . S
C283 C282 1.395 . S
C283 H309 0.929 . S
C284 C282 1.320 . S
C284 C285 1.405 . S
C284 H310 0.930 1_556 S
C285 C280 1.479 . S
C285 C284 1.405 . S
C285 H311 0.931 . S
U286 O287 2.454 . S
U286 O288 2.458 . S
U286 C289 2.984 . S
U286 C290 2.847 . S
U286 C303 2.882 . S
U286 O304 2.441 . S
U286 O305 2.420 . S
U286 O306 2.455 . S
U286 O307 2.449 . S
O287 U286 2.454 . S
O287 C289 1.353 . S
O288 U286 2.458 . S
O288 C289 1.286 . S
C289 U286 2.984 . S
C289 O287 1.353 . S
C289 O288 1.286 . S
C289 C291 1.363 . S
C290 C280 1.465 . S
C290 U286 2.847 . S
C290 O304 1.249 . S
C290 O305 1.202 . S
C291 C289 1.363 . S
C291 C293 1.408 . S
C291 C296 1.342 . S
C292 C293 1.310 . S
C292 C295 1.462 . S
C292 H312 0.932 . S
C293 C291 1.408 . S
C293 C292 1.310 . S
C293 H313 0.930 . S
C294 C295 1.473 1_554 S
C294 C296 1.284 1_554 S
C294 H314 0.932 . S
C295 C292 1.462 . S
C295 C294 1.473 1_556 S
C296 C291 1.342 . S
C296 C294 1.284 1_556 S
C296 H315 0.936 . S
C297 C300 1.424 . S
C297 C302 1.245 . S
C297 C303 1.428 . S
C298 C301 1.260 . S
C298 C302 1.477 . S
C298 H316 0.932 . S
C299 C300 1.384 . S
C299 C301 1.479 . S
C299 H317 0.929 . S
C300 C297 1.424 . S
C300 C299 1.384 . S
C300 H318 0.928 . S
C301 C298 1.260 . S
C301 C299 1.479 . S
C302 C297 1.245 . S
C302 C298 1.477 . S
C302 H319 0.932 . S
C303 U286 2.882 . S
C303 C297 1.428 . S
C303 O306 1.301 . S
C303 O307 1.282 . S
O304 U286 2.441 . S
O304 C290 1.249 . S
O305 U286 2.420 . S
O305 C290 1.202 . S
O306 U286 2.455 . S
O306 C303 1.301 . S
O307 U286 2.449 . S
O307 C303 1.282 . S
H308 C281 0.931 . S
H309 C283 0.929 . S
H310 C284 0.930 1_554 S
H311 C285 0.931 . S
H312 C292 0.932 . S
H313 C293 0.930 . S
H314 C294 0.932 . S
H315 C296 0.936 . S
H316 C298 0.932 . S
H317 C299 0.929 . S
H318 C300 0.928 . S
H319 C302 0.932 . S
C320 C321 1.264 . S
C320 C325 1.479 . S
C320 C330 1.465 . S
C321 C320 1.264 . S
C321 C323 1.339 . S
C321 H348 0.931 . S
C322 C323 1.395 . S
C322 C324 1.320 . S
C323 C321 1.339 . S
C323 C322 1.395 . S
C323 H349 0.929 . S
C324 C322 1.320 . S
C324 C325 1.405 . S
C324 H350 0.930 . S
C325 C320 1.479 . S
C325 C324 1.405 . S
C325 H351 0.931 . S
U326 O327 2.454 . S
U326 O328 2.458 . S
U326 C329 2.984 . S
U326 C330 2.847 . S
U326 C343 2.882 . S
U326 O344 2.441 . S
U326 O345 2.420 . S
U326 O346 2.455 . S
U326 O347 2.449 . S
O327 U326 2.454 . S
O327 C329 1.353 . S
O328 U326 2.458 . S
O328 C329 1.286 . S
C329 U326 2.984 . S
C329 O327 1.353 . S
C329 O328 1.286 . S
C329 C331 1.363 . S
C330 C320 1.465 . S
C330 U326 2.847 . S
C330 O344 1.249 . S
C330 O345 1.202 . S
C331 C329 1.363 . S
C331 C333 1.408 . S
C331 C336 1.342 . S
C332 C333 1.310 . S
C332 C335 1.461 . S
C332 H352 0.932 . S
C333 C331 1.408 . S
C333 C332 1.310 . S
C333 H353 0.930 . S
C334 C335 1.474 . S
C334 C336 1.285 . S
C334 H354 0.929 . S
C335 C332 1.461 . S
C335 C334 1.474 . S
C336 C331 1.342 . S
C336 C334 1.285 . S
C336 H355 0.930 . S
C337 C340 1.424 . S
C337 C342 1.245 . S
C337 C343 1.428 . S
C338 C341 1.260 . S
C338 C342 1.477 . S
C338 H356 0.932 . S
C339 C340 1.384 . S
C339 C341 1.479 . S
C339 H357 0.929 . S
C340 C337 1.424 . S
C340 C339 1.384 . S
C340 H358 0.928 . S
C341 C338 1.260 . S
C341 C339 1.479 . S
C342 C337 1.245 . S
C342 C338 1.477 . S
C342 H359 0.932 . S
C343 U326 2.882 . S
C343 C337 1.428 . S
C343 O346 1.301 . S
C343 O347 1.282 . S
O344 U326 2.441 . S
O344 C330 1.249 . S
O345 U326 2.420 . S
O345 C330 1.202 . S
O346 U326 2.455 . S
O346 C343 1.301 . S
O347 U326 2.449 . S
O347 C343 1.282 . S
H348 C321 0.931 . S
H349 C323 0.929 . S
H350 C324 0.930 . S
H351 C325 0.931 . S
H352 C332 0.932 . S
H353 C333 0.930 . S
H354 C334 0.929 . S
H355 C336 0.930 . S
H356 C338 0.932 . S
H357 C339 0.929 . S
H358 C340 0.928 . S
H359 C342 0.932 . S
C360 C361 1.264 . S
C360 C365 1.479 . S
C360 C370 1.465 . S
C361 C360 1.264 . S
C361 C363 1.339 . S
C361 H388 0.931 . S
C362 C363 1.395 . S
C362 C364 1.320 . S
C363 C361 1.339 . S
C363 C362 1.395 . S
C363 H389 0.929 . S
C364 C362 1.320 . S
C364 C365 1.405 . S
C364 H390 0.930 . S
C365 C360 1.479 . S
C365 C364 1.405 . S
C365 H391 0.931 . S
U366 O367 2.454 . S
U366 O368 2.458 . S
U366 C369 2.984 . S
U366 C370 2.847 . S
U366 C383 2.882 1_455 S
U366 O384 2.441 . S
U366 O385 2.420 . S
U366 O386 2.455 . S
U366 O387 2.449 . S
O367 U366 2.454 . S
O367 C369 1.353 . S
O368 U366 2.458 . S
O368 C369 1.286 . S
C369 U366 2.984 . S
C369 O367 1.353 . S
C369 O368 1.286 . S
C369 C371 1.363 . S
C370 C360 1.465 . S
C370 U366 2.847 . S
C370 O384 1.249 . S
C370 O385 1.202 . S
C371 C369 1.363 . S
C371 C373 1.408 . S
C371 C376 1.342 . S
C372 C373 1.310 . S
C372 C375 1.461 . S
C372 H392 0.932 . S
C373 C371 1.408 . S
C373 C372 1.310 . S
C373 H393 0.930 . S
C374 C375 1.474 . S
C374 C376 1.285 . S
C374 H394 0.929 . S
C375 C372 1.461 . S
C375 C374 1.474 . S
C376 C371 1.342 . S
C376 C374 1.285 . S
C376 H395 0.930 . S
C377 C380 1.424 . S
C377 C382 1.245 . S
C377 C383 1.428 . S
C378 C381 1.260 . S
C378 C382 1.477 . S
C378 H396 0.932 . S
C379 C380 1.384 . S
C379 C381 1.479 . S
C379 H397 0.929 . S
C380 C377 1.424 . S
C380 C379 1.384 . S
C380 H398 0.928 . S
C381 C378 1.260 . S
C381 C379 1.479 . S
C382 C377 1.245 . S
C382 C378 1.477 . S
C382 H399 0.932 . S
C383 U366 2.882 1_655 S
C383 C377 1.428 . S
C383 O386 1.301 1_655 S
C383 O387 1.282 1_655 S
O384 U366 2.441 . S
O384 C370 1.249 . S
O385 U366 2.420 . S
O385 C370 1.202 . S
O386 U366 2.455 . S
O386 C383 1.301 1_455 S
O387 U366 2.449 . S
O387 C383 1.282 1_455 S
H388 C361 0.931 . S
H389 C363 0.929 . S
H390 C364 0.930 . S
H391 C365 0.931 . S
H392 C372 0.932 . S
H393 C373 0.930 . S
H394 C374 0.929 . S
H395 C376 0.930 . S
H396 C378 0.932 . S
H397 C379 0.929 . S
H398 C380 0.928 . S
H399 C382 0.932 . S
C400 C401 1.264 . S
C400 C405 1.479 . S
C400 C410 1.465 . S
C401 C400 1.264 . S
C401 C403 1.339 . S
C401 H428 0.931 . S
C402 C403 1.395 . S
C402 C404 1.320 . S
C403 C401 1.339 . S
C403 C402 1.395 . S
C403 H429 0.929 . S
C404 C402 1.320 . S
C404 C405 1.405 . S
C404 H430 0.930 . S
C405 C400 1.479 . S
C405 C404 1.405 . S
C405 H431 0.931 . S
U406 O407 2.454 . S
U406 O408 2.458 . S
U406 C409 2.984 . S
U406 C410 2.847 . S
U406 C423 2.882 . S
U406 O424 2.441 . S
U406 O425 2.420 . S
U406 O426 2.455 . S
U406 O427 2.449 . S
O407 U406 2.454 . S
O407 C409 1.353 . S
O408 U406 2.458 . S
O408 C409 1.286 . S
C409 U406 2.984 . S
C409 O407 1.353 . S
C409 O408 1.286 . S
C409 C411 1.363 . S
C410 C400 1.465 . S
C410 U406 2.847 . S
C410 O424 1.249 . S
C410 O425 1.202 . S
C411 C409 1.363 . S
C411 C413 1.408 . S
C411 C416 1.342 . S
C412 C413 1.310 . S
C412 C415 1.461 . S
C412 H432 0.932 . S
C413 C411 1.408 . S
C413 C412 1.310 . S
C413 H433 0.930 . S
C414 C415 1.474 . S
C414 C416 1.285 . S
C414 H434 0.929 . S
C415 C412 1.461 . S
C415 C414 1.474 . S
C416 C411 1.342 . S
C416 C414 1.285 . S
C416 H435 0.930 . S
C417 C420 1.424 . S
C417 C422 1.245 . S
C417 C423 1.428 . S
C418 C421 1.260 . S
C418 C422 1.477 . S
C418 H436 0.932 . S
C419 C420 1.384 . S
C419 C421 1.479 . S
C419 H437 0.929 . S
C420 C417 1.424 . S
C420 C419 1.384 . S
C420 H438 0.928 . S
C421 C418 1.260 . S
C421 C419 1.479 . S
C422 C417 1.245 . S
C422 C418 1.477 . S
C422 H439 0.932 . S
C423 U406 2.882 . S
C423 C417 1.428 . S
C423 O426 1.301 . S
C423 O427 1.282 . S
O424 U406 2.441 . S
O424 C410 1.249 . S
O425 U406 2.420 . S
O425 C410 1.202 . S
O426 U406 2.455 . S
O426 C423 1.301 . S
O427 U406 2.449 . S
O427 C423 1.282 . S
H428 C401 0.931 . S
H429 C403 0.929 . S
H430 C404 0.930 . S
H431 C405 0.931 . S
H432 C412 0.932 . S
H433 C413 0.930 . S
H434 C414 0.929 . S
H435 C416 0.930 . S
H436 C418 0.932 . S
H437 C419 0.929 . S
H438 C420 0.928 . S
H439 C422 0.932 . S
C440 C441 1.264 . S
C440 C445 1.479 . S
C440 C450 1.465 . S
C441 C440 1.264 . S
C441 C443 1.339 . S
C441 H468 0.931 . S
C442 C443 1.395 . S
C442 C444 1.320 . S
C443 C441 1.339 . S
C443 C442 1.395 . S
C443 H469 0.929 . S
C444 C442 1.320 . S
C444 C445 1.405 . S
C444 H470 0.930 1_655 S
C445 C440 1.479 . S
C445 C444 1.405 . S
C445 H471 0.931 . S
U446 O447 2.454 . S
U446 O448 2.458 . S
U446 C449 2.984 . S
U446 C450 2.847 . S
U446 C463 2.882 . S
U446 O464 2.441 . S
U446 O465 2.420 . S
U446 O466 2.455 . S
U446 O467 2.449 . S
O447 U446 2.454 . S
O447 C449 1.353 . S
O448 U446 2.458 . S
O448 C449 1.286 . S
C449 U446 2.984 . S
C449 O447 1.353 . S
C449 O448 1.286 . S
C449 C451 1.363 . S
C450 C440 1.465 . S
C450 U446 2.847 . S
C450 O464 1.249 . S
C450 O465 1.202 . S
C451 C449 1.363 . S
C451 C453 1.408 . S
C451 C456 1.342 . S
C452 C453 1.310 . S
C452 C455 1.462 . S
C452 H472 0.932 . S
C453 C451 1.408 . S
C453 C452 1.310 . S
C453 H473 0.930 . S
C454 C455 1.473 1_455 S
C454 C456 1.284 1_455 S
C454 H474 0.932 . S
C455 C452 1.462 . S
C455 C454 1.473 1_655 S
C456 C451 1.342 . S
C456 C454 1.284 1_655 S
C456 H475 0.936 . S
C457 C460 1.424 . S
C457 C462 1.245 . S
C457 C463 1.428 . S
C458 C461 1.260 . S
C458 C462 1.477 . S
C458 H476 0.932 . S
C459 C460 1.384 . S
C459 C461 1.479 . S
C459 H477 0.929 . S
C460 C457 1.424 . S
C460 C459 1.384 . S
C460 H478 0.928 . S
C461 C458 1.260 . S
C461 C459 1.479 . S
C462 C457 1.245 . S
C462 C458 1.477 . S
C462 H479 0.932 . S
C463 U446 2.882 . S
C463 C457 1.428 . S
C463 O466 1.301 . S
C463 O467 1.282 . S
O464 U446 2.441 . S
O464 C450 1.249 . S
O465 U446 2.420 . S
O465 C450 1.202 . S
O466 U446 2.455 . S
O466 C463 1.301 . S
O467 U446 2.449 . S
O467 C463 1.282 . S
H468 C441 0.931 . S
H469 C443 0.929 . S
H470 C444 0.930 1_455 S
H471 C445 0.931 . S
H472 C452 0.932 . S
H473 C453 0.930 . S
H474 C454 0.932 . S
H475 C456 0.936 . S
H476 C458 0.932 . S
H477 C459 0.929 . S
H478 C460 0.928 . S
H479 C462 0.932 . S
C480 C481 1.264 . S
C480 C485 1.479 . S
C480 C490 1.465 . S
C481 C480 1.264 . S
C481 C483 1.339 . S
C481 H508 0.931 . S
C482 C483 1.395 . S
C482 C484 1.320 . S
C483 C481 1.339 . S
C483 C482 1.395 . S
C483 H509 0.929 . S
C484 C482 1.320 . S
C484 C485 1.405 . S
C484 H510 0.930 . S
C485 C480 1.479 . S
C485 C484 1.405 . S
C485 H511 0.931 . S
U486 O487 2.454 . S
U486 O488 2.458 . S
U486 C489 2.984 . S
U486 C490 2.847 . S
U486 C503 2.882 . S
U486 O504 2.441 . S
U486 O505 2.420 . S
U486 O506 2.455 . S
U486 O507 2.449 . S
O487 U486 2.454 . S
O487 C489 1.353 . S
O488 U486 2.458 . S
O488 C489 1.286 . S
C489 U486 2.984 . S
C489 O487 1.353 . S
C489 O488 1.286 . S
C489 C491 1.363 . S
C490 C480 1.465 . S
C490 U486 2.847 . S
C490 O504 1.249 . S
C490 O505 1.202 . S
C491 C489 1.363 . S
C491 C493 1.408 . S
C491 C496 1.342 . S
C492 C493 1.310 . S
C492 C495 1.461 . S
C492 H512 0.932 . S
C493 C491 1.408 . S
C493 C492 1.310 . S
C493 H513 0.930 . S
C494 C495 1.474 . S
C494 C496 1.285 . S
C494 H514 0.929 . S
C495 C492 1.461 . S
C495 C494 1.474 . S
C496 C491 1.342 . S
C496 C494 1.285 . S
C496 H515 0.930 . S
C497 C500 1.424 . S
C497 C502 1.245 . S
C497 C503 1.428 . S
C498 C501 1.260 . S
C498 C502 1.477 . S
C498 H516 0.932 . S
C499 C500 1.384 . S
C499 C501 1.479 . S
C499 H517 0.929 . S
C500 C497 1.424 . S
C500 C499 1.384 . S
C500 H518 0.928 . S
C501 C498 1.260 . S
C501 C499 1.479 . S
C502 C497 1.245 . S
C502 C498 1.477 . S
C502 H519 0.932 . S
C503 U486 2.882 . S
C503 C497 1.428 . S
C503 O506 1.301 . S
C503 O507 1.282 . S
O504 U486 2.441 . S
O504 C490 1.249 . S
O505 U486 2.420 . S
O505 C490 1.202 . S
O506 U486 2.455 . S
O506 C503 1.301 . S
O507 U486 2.449 . S
O507 C503 1.282 . S
H508 C481 0.931 . S
H509 C483 0.929 . S
H510 C484 0.930 . S
H511 C485 0.931 . S
H512 C492 0.932 . S
H513 C493 0.930 . S
H514 C494 0.929 . S
H515 C496 0.930 . S
H516 C498 0.932 . S
H517 C499 0.929 . S
H518 C500 0.928 . S
H519 C502 0.932 . S
C520 C521 1.264 . S
C520 C525 1.479 . S
C520 C530 1.465 . S
C521 C520 1.264 . S
C521 C523 1.339 . S
C521 H548 0.931 . S
C522 C523 1.395 . S
C522 C524 1.320 . S
C523 C521 1.339 . S
C523 C522 1.395 . S
C523 H549 0.929 . S
C524 C522 1.320 . S
C524 C525 1.405 . S
C524 H550 0.930 . S
C525 C520 1.479 . S
C525 C524 1.405 . S
C525 H551 0.931 . S
U526 O527 2.454 . S
U526 O528 2.458 . S
U526 C529 2.984 . S
U526 C530 2.847 . S
U526 C543 2.882 . S
U526 O544 2.441 . S
U526 O545 2.420 . S
U526 O546 2.455 . S
U526 O547 2.449 . S
O527 U526 2.454 . S
O527 C529 1.353 . S
O528 U526 2.458 . S
O528 C529 1.286 . S
C529 U526 2.984 . S
C529 O527 1.353 . S
C529 O528 1.286 . S
C529 C531 1.363 . S
C530 C520 1.465 . S
C530 U526 2.847 . S
C530 O544 1.249 . S
C530 O545 1.202 . S
C531 C529 1.363 . S
C531 C533 1.408 . S
C531 C536 1.342 . S
C532 C533 1.310 . S
C532 C535 1.461 . S
C532 H552 0.932 . S
C533 C531 1.408 . S
C533 C532 1.310 . S
C533 H553 0.930 . S
C534 C535 1.474 . S
C534 C536 1.285 . S
C534 H554 0.929 . S
C535 C532 1.461 . S
C535 C534 1.474 . S
C536 C531 1.342 . S
C536 C534 1.285 . S
C536 H555 0.930 . S
C537 C540 1.424 . S
C537 C542 1.245 . S
C537 C543 1.428 . S
C538 C541 1.260 . S
C538 C542 1.477 . S
C538 H556 0.932 . S
C539 C540 1.384 . S
C539 C541 1.479 . S
C539 H557 0.929 . S
C540 C537 1.424 . S
C540 C539 1.384 . S
C540 H558 0.928 . S
C541 C538 1.260 . S
C541 C539 1.479 . S
C542 C537 1.245 . S
C542 C538 1.477 . S
C542 H559 0.932 . S
C543 U526 2.882 . S
C543 C537 1.428 . S
C543 O546 1.301 . S
C543 O547 1.282 . S
O544 U526 2.441 . S
O544 C530 1.249 . S
O545 U526 2.420 . S
O545 C530 1.202 . S
O546 U526 2.455 . S
O546 C543 1.301 . S
O547 U526 2.449 . S
O547 C543 1.282 . S
H548 C521 0.931 . S
H549 C523 0.929 . S
H550 C524 0.930 . S
H551 C525 0.931 . S
H552 C532 0.932 . S
H553 C533 0.930 . S
H554 C534 0.929 . S
H555 C536 0.930 . S
H556 C538 0.932 . S
H557 C539 0.929 . S
H558 C540 0.928 . S
H559 C542 0.932 . S
C560 C561 1.264 . S
C560 C565 1.479 . S
C560 C570 1.465 . S
C561 C560 1.264 . S
C561 C563 1.339 . S
C561 H588 0.931 . S
C562 C563 1.395 . S
C562 C564 1.320 . S
C563 C561 1.339 . S
C563 C562 1.395 . S
C563 H589 0.929 . S
C564 C562 1.320 . S
C564 C565 1.405 . S
C564 H590 0.919 1_565 S
C565 C560 1.479 . S
C565 C564 1.405 . S
C565 H591 0.931 . S
U566 O567 2.454 . S
U566 O568 2.458 . S
U566 C569 2.984 . S
U566 C570 2.847 . S
U566 C583 2.882 . S
U566 O584 2.441 . S
U566 O585 2.420 . S
U566 O586 2.455 . S
U566 O587 2.449 . S
O567 U566 2.454 . S
O567 C569 1.353 . S
O568 U566 2.458 . S
O568 C569 1.286 . S
C569 U566 2.984 . S
C569 O567 1.353 . S
C569 O568 1.286 . S
C569 C571 1.363 . S
C570 C560 1.465 . S
C570 U566 2.847 . S
C570 O584 1.249 . S
C570 O585 1.202 . S
C571 C569 1.363 . S
C571 C573 1.408 . S
C571 C576 1.342 . S
C572 C573 1.310 . S
C572 C575 1.459 . S
C572 H592 0.932 . S
C573 C571 1.408 . S
C573 C572 1.310 . S
C573 H593 0.930 . S
C574 C575 1.475 1_545 S
C574 C576 1.285 1_545 S
C574 H594 0.929 . S
C575 C572 1.459 . S
C575 C574 1.475 1_565 S
C576 C571 1.342 . S
C576 C574 1.285 1_565 S
C576 H595 0.930 . S
C577 C580 1.424 . S
C577 C582 1.245 . S
C577 C583 1.428 . S
C578 C581 1.260 . S
C578 C582 1.477 . S
C578 H596 0.932 . S
C579 C580 1.384 . S
C579 C581 1.479 . S
C579 H597 0.929 . S
C580 C577 1.424 . S
C580 C579 1.384 . S
C580 H598 0.928 . S
C581 C578 1.260 . S
C581 C579 1.479 . S
C582 C577 1.245 . S
C582 C578 1.477 . S
C582 H599 0.932 . S
C583 U566 2.882 . S
C583 C577 1.428 . S
C583 O586 1.301 . S
C583 O587 1.282 . S
O584 U566 2.441 . S
O584 C570 1.249 . S
O585 U566 2.420 . S
O585 C570 1.202 . S
O586 U566 2.455 . S
O586 C583 1.301 . S
O587 U566 2.449 . S
O587 C583 1.282 . S
H588 C561 0.931 . S
H589 C563 0.929 . S
H590 C564 0.919 1_545 S
H591 C565 0.931 . S
H592 C572 0.932 . S
H593 C573 0.930 . S
H594 C574 0.929 . S
H595 C576 0.930 . S
H596 C578 0.932 . S
H597 C579 0.929 . S
H598 C580 0.928 . S
H599 C582 0.932 . S
C600 C601 1.264 1_565 S
C600 C605 1.479 . S
C600 C610 1.465 1_565 S
C601 C600 1.264 1_545 S
C601 C603 1.339 1_545 S
C601 H628 0.931 . S
C602 C603 1.395 . S
C602 C604 1.320 . S
C603 C601 1.339 1_565 S
C603 C602 1.395 . S
C603 H629 0.929 . S
C604 C602 1.320 . S
C604 C605 1.405 . S
C604 H630 0.930 . S
C605 C600 1.479 . S
C605 C604 1.405 . S
C605 H631 0.931 . S
U606 O607 2.454 1_545 S
U606 O608 2.458 . S
U606 C609 2.984 1_545 S
U606 C610 2.847 . S
U606 C623 2.882 . S
U606 O624 2.441 1_545 S
U606 O625 2.420 . S
U606 O626 2.455 . S
U606 O627 2.449 . S
O607 U606 2.454 1_565 S
O607 C609 1.353 . S
O608 U606 2.458 . S
O608 C609 1.286 1_545 S
C609 U606 2.984 1_565 S
C609 O607 1.353 . S
C609 O608 1.286 1_565 S
C609 C611 1.363 . S
C610 C600 1.465 1_545 S
C610 U606 2.847 . S
C610 O624 1.249 1_545 S
C610 O625 1.202 . S
C611 C609 1.363 . S
C611 C613 1.408 . S
C611 C616 1.342 . S
C612 C613 1.310 . S
C612 C615 1.461 . S
C612 H632 0.932 . S
C613 C611 1.408 . S
C613 C612 1.310 . S
C613 H633 0.930 . S
C614 C615 1.474 . S
C614 C616 1.285 . S
C614 H634 0.929 . S
C615 C612 1.461 . S
C615 C614 1.474 . S
C616 C611 1.342 . S
C616 C614 1.285 . S
C616 H635 0.930 . S
C617 C620 1.424 . S
C617 C622 1.245 . S
C617 C623 1.428 . S
C618 C621 1.260 . S
C618 C622 1.477 . S
C618 H636 0.932 . S
C619 C620 1.384 . S
C619 C621 1.479 . S
C619 H637 0.929 . S
C620 C617 1.424 . S
C620 C619 1.384 . S
C620 H638 0.928 . S
C621 C618 1.260 . S
C621 C619 1.479 . S
C622 C617 1.245 . S
C622 C618 1.477 . S
C622 H639 0.932 . S
C623 U606 2.882 . S
C623 C617 1.428 . S
C623 O626 1.301 . S
C623 O627 1.282 . S
O624 U606 2.441 1_565 S
O624 C610 1.249 1_565 S
O625 U606 2.420 . S
O625 C610 1.202 . S
O626 U606 2.455 . S
O626 C623 1.301 . S
O627 U606 2.449 . S
O627 C623 1.282 . S
H628 C601 0.931 . S
H629 C603 0.929 . S
H630 C604 0.930 . S
H631 C605 0.931 . S
H632 C612 0.932 . S
H633 C613 0.930 . S
H634 C614 0.929 . S
H635 C616 0.930 . S
H636 C618 0.932 . S
H637 C619 0.929 . S
H638 C620 0.928 . S
H639 C622 0.932 . S
C640 C641 1.264 . S
C640 C645 1.479 . S
C640 C650 1.465 . S
C641 C640 1.264 . S
C641 C643 1.339 . S
C641 H668 0.931 . S
C642 C643 1.395 . S
C642 C644 1.320 . S
C643 C641 1.339 . S
C643 C642 1.395 . S
C643 H669 0.929 . S
C644 C642 1.320 . S
C644 C645 1.405 . S
C644 H670 0.930 . S
C645 C640 1.479 . S
C645 C644 1.405 . S
C645 H671 0.931 . S
U646 O647 2.454 . S
U646 O648 2.458 . S
U646 C649 2.984 . S
U646 C650 2.847 . S
U646 C663 2.882 . S
U646 O664 2.441 . S
U646 O665 2.420 . S
U646 O666 2.455 . S
U646 O667 2.449 . S
O647 U646 2.454 . S
O647 C649 1.353 . S
O648 U646 2.458 . S
O648 C649 1.286 . S
C649 U646 2.984 . S
C649 O647 1.353 . S
C649 O648 1.286 . S
C649 C651 1.363 . S
C650 C640 1.465 . S
C650 U646 2.847 . S
C650 O664 1.249 . S
C650 O665 1.202 . S
C651 C649 1.363 . S
C651 C653 1.408 . S
C651 C656 1.342 . S
C652 C653 1.310 . S
C652 C655 1.461 . S
C652 H672 0.932 . S
C653 C651 1.408 . S
C653 C652 1.310 . S
C653 H673 0.930 . S
C654 C655 1.474 . S
C654 C656 1.285 . S
C654 H674 0.929 . S
C655 C652 1.461 . S
C655 C654 1.474 . S
C656 C651 1.342 . S
C656 C654 1.285 . S
C656 H675 0.930 . S
C657 C660 1.424 . S
C657 C662 1.245 . S
C657 C663 1.428 . S
C658 C661 1.260 . S
C658 C662 1.477 . S
C658 H676 0.932 . S
C659 C660 1.384 . S
C659 C661 1.479 . S
C659 H677 0.929 . S
C660 C657 1.424 . S
C660 C659 1.384 . S
C660 H678 0.928 . S
C661 C658 1.260 . S
C661 C659 1.479 . S
C662 C657 1.245 . S
C662 C658 1.477 . S
C662 H679 0.932 . S
C663 U646 2.882 . S
C663 C657 1.428 . S
C663 O666 1.301 . S
C663 O667 1.282 . S
O664 U646 2.441 . S
O664 C650 1.249 . S
O665 U646 2.420 . S
O665 C650 1.202 . S
O666 U646 2.455 . S
O666 C663 1.301 . S
O667 U646 2.449 . S
O667 C663 1.282 . S
H668 C641 0.931 . S
H669 C643 0.929 . S
H670 C644 0.930 . S
H671 C645 0.931 . S
H672 C652 0.932 . S
H673 C653 0.930 . S
H674 C654 0.929 . S
H675 C656 0.930 . S
H676 C658 0.932 . S
H677 C659 0.929 . S
H678 C660 0.928 . S
H679 C662 0.932 . S
C680 C681 1.264 1_556 S
C680 C685 1.479 . S
C680 C690 1.465 1_556 S
C681 C680 1.264 1_554 S
C681 C683 1.339 1_554 S
C681 H708 0.931 . S
C682 C683 1.395 . S
C682 C684 1.320 . S
C683 C681 1.339 1_556 S
C683 C682 1.395 . S
C683 H709 0.929 . S
C684 C682 1.320 . S
C684 C685 1.405 . S
C684 H710 0.930 . S
C685 C680 1.479 . S
C685 C684 1.405 . S
C685 H711 0.931 . S
U686 O687 2.454 1_554 S
U686 O688 2.458 . S
U686 C689 2.984 1_554 S
U686 C690 2.847 . S
U686 C703 2.882 . S
U686 O704 2.441 1_554 S
U686 O705 2.420 . S
U686 O706 2.455 . S
U686 O707 2.449 . S
O687 U686 2.454 1_556 S
O687 C689 1.353 . S
O688 U686 2.458 . S
O688 C689 1.286 1_554 S
C689 U686 2.984 1_556 S
C689 O687 1.353 . S
C689 O688 1.286 1_556 S
C689 C691 1.363 . S
C690 C680 1.465 1_554 S
C690 U686 2.847 . S
C690 O704 1.249 1_554 S
C690 O705 1.202 . S
C691 C689 1.363 . S
C691 C693 1.408 . S
C691 C696 1.342 . S
C692 C693 1.310 . S
C692 C695 1.461 . S
C692 H712 0.932 . S
C693 C691 1.408 . S
C693 C692 1.310 . S
C693 H713 0.930 . S
C694 C695 1.474 . S
C694 C696 1.285 . S
C694 H714 0.929 . S
C695 C692 1.461 . S
C695 C694 1.474 . S
C696 C691 1.342 . S
C696 C694 1.285 . S
C696 H715 0.930 . S
C697 C700 1.424 . S
C697 C702 1.245 . S
C697 C703 1.428 . S
C698 C701 1.260 . S
C698 C702 1.477 . S
C698 H716 0.932 . S
C699 C700 1.384 . S
C699 C701 1.479 . S
C699 H717 0.929 . S
C700 C697 1.424 . S
C700 C699 1.384 . S
C700 H718 0.928 . S
C701 C698 1.260 . S
C701 C699 1.479 . S
C702 C697 1.245 . S
C702 C698 1.477 . S
C702 H719 0.932 . S
C703 U686 2.882 . S
C703 C697 1.428 . S
C703 O706 1.301 . S
C703 O707 1.282 . S
O704 U686 2.441 1_556 S
O704 C690 1.249 1_556 S
O705 U686 2.420 . S
O705 C690 1.202 . S
O706 U686 2.455 . S
O706 C703 1.301 . S
O707 U686 2.449 . S
O707 C703 1.282 . S
H708 C681 0.931 . S
H709 C683 0.929 . S
H710 C684 0.930 . S
H711 C685 0.931 . S
H712 C692 0.932 . S
H713 C693 0.930 . S
H714 C694 0.929 . S
H715 C696 0.930 . S
H716 C698 0.932 . S
H717 C699 0.929 . S
H718 C700 0.928 . S
H719 C702 0.932 . S
C720 C721 1.264 . S
C720 C725 1.479 . S
C720 C730 1.465 . S
C721 C720 1.264 . S
C721 C723 1.339 . S
C721 H748 0.931 . S
C722 C723 1.395 . S
C722 C724 1.320 . S
C723 C721 1.339 . S
C723 C722 1.395 . S
C723 H749 0.929 . S
C724 C722 1.320 . S
C724 C725 1.405 . S
C724 H750 0.930 . S
C725 C720 1.479 . S
C725 C724 1.405 . S
C725 H751 0.931 . S
U726 O727 2.454 . S
U726 O728 2.458 . S
U726 C729 2.984 . S
U726 C730 2.847 . S
U726 C743 2.882 . S
U726 O744 2.441 . S
U726 O745 2.420 . S
U726 O746 2.455 . S
U726 O747 2.449 . S
O727 U726 2.454 . S
O727 C729 1.353 . S
O728 U726 2.458 . S
O728 C729 1.286 . S
C729 U726 2.984 . S
C729 O727 1.353 . S
C729 O728 1.286 . S
C729 C731 1.363 . S
C730 C720 1.465 . S
C730 U726 2.847 . S
C730 O744 1.249 . S
C730 O745 1.202 . S
C731 C729 1.363 . S
C731 C733 1.408 . S
C731 C736 1.342 . S
C732 C733 1.310 . S
C732 C735 1.461 . S
C732 H752 0.932 . S
C733 C731 1.408 . S
C733 C732 1.310 . S
C733 H753 0.930 . S
C734 C735 1.474 . S
C734 C736 1.285 . S
C734 H754 0.929 . S
C735 C732 1.461 . S
C735 C734 1.474 . S
C736 C731 1.342 . S
C736 C734 1.285 . S
C736 H755 0.930 . S
C737 C740 1.424 . S
C737 C742 1.245 . S
C737 C743 1.428 . S
C738 C741 1.260 . S
C738 C742 1.477 . S
C738 H756 0.932 . S
C739 C740 1.384 . S
C739 C741 1.479 . S
C739 H757 0.929 . S
C740 C737 1.424 . S
C740 C739 1.384 . S
C740 H758 0.928 . S
C741 C738 1.260 . S
C741 C739 1.479 . S
C742 C737 1.245 . S
C742 C738 1.477 . S
C742 H759 0.932 . S
C743 U726 2.882 . S
C743 C737 1.428 . S
C743 O746 1.301 . S
C743 O747 1.282 . S
O744 U726 2.441 . S
O744 C730 1.249 . S
O745 U726 2.420 . S
O745 C730 1.202 . S
O746 U726 2.455 . S
O746 C743 1.301 . S
O747 U726 2.449 . S
O747 C743 1.282 . S
H748 C721 0.931 . S
H749 C723 0.929 . S
H750 C724 0.930 . S
H751 C725 0.931 . S
H752 C732 0.932 . S
H753 C733 0.930 . S
H754 C734 0.929 . S
H755 C736 0.930 . S
H756 C738 0.932 . S
H757 C739 0.929 . S
H758 C740 0.928 . S
H759 C742 0.932 . S
C760 C761 1.264 . S
C760 C765 1.479 . S
C760 C770 1.465 . S
C761 C760 1.264 . S
C761 C763 1.339 . S
C761 H788 0.931 . S
C762 C763 1.395 . S
C762 C764 1.320 . S
C763 C761 1.339 . S
C763 C762 1.395 . S
C763 H789 0.929 . S
C764 C762 1.320 . S
C764 C765 1.405 . S
C764 H790 0.919 1_556 S
C765 C760 1.479 . S
C765 C764 1.405 . S
C765 H791 0.931 . S
U766 O767 2.454 . S
U766 O768 2.458 . S
U766 C769 2.984 . S
U766 C770 2.847 . S
U766 C783 2.882 . S
U766 O784 2.441 . S
U766 O785 2.420 . S
U766 O786 2.455 . S
U766 O787 2.449 . S
O767 U766 2.454 . S
O767 C769 1.353 . S
O768 U766 2.458 . S
O768 C769 1.286 . S
C769 U766 2.984 . S
C769 O767 1.353 . S
C769 O768 1.286 . S
C769 C771 1.363 . S
C770 C760 1.465 . S
C770 U766 2.847 . S
C770 O784 1.249 . S
C770 O785 1.202 . S
C771 C769 1.363 . S
C771 C773 1.408 . S
C771 C776 1.342 . S
C772 C773 1.310 . S
C772 C775 1.459 . S
C772 H792 0.932 . S
C773 C771 1.408 . S
C773 C772 1.310 . S
C773 H793 0.930 . S
C774 C775 1.475 1_554 S
C774 C776 1.285 1_554 S
C774 H794 0.929 . S
C775 C772 1.459 . S
C775 C774 1.475 1_556 S
C776 C771 1.342 . S
C776 C774 1.285 1_556 S
C776 H795 0.930 . S
C777 C780 1.424 . S
C777 C782 1.245 . S
C777 C783 1.428 . S
C778 C781 1.260 . S
C778 C782 1.477 . S
C778 H796 0.932 . S
C779 C780 1.384 . S
C779 C781 1.479 . S
C779 H797 0.929 . S
C780 C777 1.424 . S
C780 C779 1.384 . S
C780 H798 0.928 . S
C781 C778 1.260 . S
C781 C779 1.479 . S
C782 C777 1.245 . S
C782 C778 1.477 . S
C782 H799 0.932 . S
C783 U766 2.882 . S
C783 C777 1.428 . S
C783 O786 1.301 . S
C783 O787 1.282 . S
O784 U766 2.441 . S
O784 C770 1.249 . S
O785 U766 2.420 . S
O785 C770 1.202 . S
O786 U766 2.455 . S
O786 C783 1.301 . S
O787 U766 2.449 . S
O787 C783 1.282 . S
H788 C761 0.931 . S
H789 C763 0.929 . S
H790 C764 0.919 1_554 S
H791 C765 0.931 . S
H792 C772 0.932 . S
H793 C773 0.930 . S
H794 C774 0.929 . S
H795 C776 0.930 . S
H796 C778 0.932 . S
H797 C779 0.929 . S
H798 C780 0.928 . S
H799 C782 0.932 . S
C800 C801 1.264 . S
C800 C805 1.479 . S
C800 C810 1.465 . S
C801 C800 1.264 . S
C801 C803 1.339 . S
C801 H828 0.931 . S
C802 C803 1.395 . S
C802 C804 1.320 . S
C803 C801 1.339 . S
C803 C802 1.395 . S
C803 H829 0.929 . S
C804 C802 1.320 . S
C804 C805 1.405 . S
C804 H830 0.930 . S
C805 C800 1.479 . S
C805 C804 1.405 . S
C805 H831 0.931 . S
U806 O807 2.454 . S
U806 O808 2.458 . S
U806 C809 2.984 . S
U806 C810 2.847 . S
U806 C823 2.882 . S
U806 O824 2.441 . S
U806 O825 2.420 . S
U806 O826 2.455 . S
U806 O827 2.449 . S
O807 U806 2.454 . S
O807 C809 1.353 . S
O808 U806 2.458 . S
O808 C809 1.286 . S
C809 U806 2.984 . S
C809 O807 1.353 . S
C809 O808 1.286 . S
C809 C811 1.363 . S
C810 C800 1.465 . S
C810 U806 2.847 . S
C810 O824 1.249 . S
C810 O825 1.202 . S
C811 C809 1.363 . S
C811 C813 1.408 . S
C811 C816 1.342 . S
C812 C813 1.310 . S
C812 C815 1.461 . S
C812 H832 0.932 . S
C813 C811 1.408 . S
C813 C812 1.310 . S
C813 H833 0.930 . S
C814 C815 1.474 . S
C814 C816 1.285 . S
C814 H834 0.929 . S
C815 C812 1.461 . S
C815 C814 1.474 . S
C816 C811 1.342 . S
C816 C814 1.285 . S
C816 H835 0.930 . S
C817 C820 1.424 . S
C817 C822 1.245 . S
C817 C823 1.428 . S
C818 C821 1.260 . S
C818 C822 1.477 . S
C818 H836 0.932 . S
C819 C820 1.384 . S
C819 C821 1.479 . S
C819 H837 0.929 . S
C820 C817 1.424 . S
C820 C819 1.384 . S
C820 H838 0.928 . S
C821 C818 1.260 . S
C821 C819 1.479 . S
C822 C817 1.245 . S
C822 C818 1.477 . S
C822 H839 0.932 . S
C823 U806 2.882 . S
C823 C817 1.428 . S
C823 O826 1.301 . S
C823 O827 1.282 . S
O824 U806 2.441 . S
O824 C810 1.249 . S
O825 U806 2.420 . S
O825 C810 1.202 . S
O826 U806 2.455 . S
O826 C823 1.301 . S
O827 U806 2.449 . S
O827 C823 1.282 . S
H828 C801 0.931 . S
H829 C803 0.929 . S
H830 C804 0.930 . S
H831 C805 0.931 . S
H832 C812 0.932 . S
H833 C813 0.930 . S
H834 C814 0.929 . S
H835 C816 0.930 . S
H836 C818 0.932 . S
H837 C819 0.929 . S
H838 C820 0.928 . S
H839 C822 0.932 . S
C840 C841 1.264 1_655 S
C840 C845 1.479 . S
C840 C850 1.465 1_655 S
C841 C840 1.264 1_455 S
C841 C843 1.339 1_455 S
C841 H868 0.931 . S
C842 C843 1.395 . S
C842 C844 1.320 . S
C843 C841 1.339 1_655 S
C843 C842 1.395 . S
C843 H869 0.929 . S
C844 C842 1.320 . S
C844 C845 1.405 . S
C844 H870 0.930 . S
C845 C840 1.479 . S
C845 C844 1.405 . S
C845 H871 0.931 . S
U846 O847 2.454 1_455 S
U846 O848 2.458 . S
U846 C849 2.984 1_455 S
U846 C850 2.847 . S
U846 C863 2.882 . S
U846 O864 2.441 1_455 S
U846 O865 2.420 . S
U846 O866 2.455 . S
U846 O867 2.449 . S
O847 U846 2.454 1_655 S
O847 C849 1.353 . S
O848 U846 2.458 . S
O848 C849 1.286 1_455 S
C849 U846 2.984 1_655 S
C849 O847 1.353 . S
C849 O848 1.286 1_655 S
C849 C851 1.363 . S
C850 C840 1.465 1_455 S
C850 U846 2.847 . S
C850 O864 1.249 1_455 S
C850 O865 1.202 . S
C851 C849 1.363 . S
C851 C853 1.408 . S
C851 C856 1.342 . S
C852 C853 1.310 . S
C852 C855 1.461 . S
C852 H872 0.932 . S
C853 C851 1.408 . S
C853 C852 1.310 . S
C853 H873 0.930 . S
C854 C855 1.474 . S
C854 C856 1.285 . S
C854 H874 0.929 . S
C855 C852 1.461 . S
C855 C854 1.474 . S
C856 C851 1.342 . S
C856 C854 1.285 . S
C856 H875 0.930 . S
C857 C860 1.424 . S
C857 C862 1.245 . S
C857 C863 1.428 . S
C858 C861 1.260 . S
C858 C862 1.477 . S
C858 H876 0.932 . S
C859 C860 1.384 . S
C859 C861 1.479 . S
C859 H877 0.929 . S
C860 C857 1.424 . S
C860 C859 1.384 . S
C860 H878 0.928 . S
C861 C858 1.260 . S
C861 C859 1.479 . S
C862 C857 1.245 . S
C862 C858 1.477 . S
C862 H879 0.932 . S
C863 U846 2.882 . S
C863 C857 1.428 . S
C863 O866 1.301 . S
C863 O867 1.282 . S
O864 U846 2.441 1_655 S
O864 C850 1.249 1_655 S
O865 U846 2.420 . S
O865 C850 1.202 . S
O866 U846 2.455 . S
O866 C863 1.301 . S
O867 U846 2.449 . S
O867 C863 1.282 . S
H868 C841 0.931 . S
H869 C843 0.929 . S
H870 C844 0.930 . S
H871 C845 0.931 . S
H872 C852 0.932 . S
H873 C853 0.930 . S
H874 C854 0.929 . S
H875 C856 0.930 . S
H876 C858 0.932 . S
H877 C859 0.929 . S
H878 C860 0.928 . S
H879 C862 0.932 . S
C880 C881 1.264 . S
C880 C885 1.479 . S
C880 C890 1.465 . S
C881 C880 1.264 . S
C881 C883 1.339 . S
C881 H908 0.931 . S
C882 C883 1.395 . S
C882 C884 1.320 . S
C883 C881 1.339 . S
C883 C882 1.395 . S
C883 H909 0.929 . S
C884 C882 1.320 . S
C884 C885 1.405 . S
C884 H910 0.930 . S
C885 C880 1.479 . S
C885 C884 1.405 . S
C885 H911 0.931 . S
U886 O887 2.454 . S
U886 O888 2.458 . S
U886 C889 2.984 . S
U886 C890 2.847 . S
U886 C903 2.882 . S
U886 O904 2.441 . S
U886 O905 2.420 . S
U886 O906 2.455 . S
U886 O907 2.449 . S
O887 U886 2.454 . S
O887 C889 1.353 . S
O888 U886 2.458 . S
O888 C889 1.286 . S
C889 U886 2.984 . S
C889 O887 1.353 . S
C889 O888 1.286 . S
C889 C891 1.363 . S
C890 C880 1.465 . S
C890 U886 2.847 . S
C890 O904 1.249 . S
C890 O905 1.202 . S
C891 C889 1.363 . S
C891 C893 1.408 . S
C891 C896 1.342 . S
C892 C893 1.310 . S
C892 C895 1.461 . S
C892 H912 0.932 . S
C893 C891 1.408 . S
C893 C892 1.310 . S
C893 H913 0.930 . S
C894 C895 1.474 . S
C894 C896 1.285 . S
C894 H914 0.929 . S
C895 C892 1.461 . S
C895 C894 1.474 . S
C896 C891 1.342 . S
C896 C894 1.285 . S
C896 H915 0.930 . S
C897 C900 1.424 . S
C897 C902 1.245 . S
C897 C903 1.428 . S
C898 C901 1.260 . S
C898 C902 1.477 . S
C898 H916 0.932 . S
C899 C900 1.384 . S
C899 C901 1.479 . S
C899 H917 0.929 . S
C900 C897 1.424 . S
C900 C899 1.384 . S
C900 H918 0.928 . S
C901 C898 1.260 . S
C901 C899 1.479 . S
C902 C897 1.245 . S
C902 C898 1.477 . S
C902 H919 0.932 . S
C903 U886 2.882 . S
C903 C897 1.428 . S
C903 O906 1.301 . S
C903 O907 1.282 . S
O904 U886 2.441 . S
O904 C890 1.249 . S
O905 U886 2.420 . S
O905 C890 1.202 . S
O906 U886 2.455 . S
O906 C903 1.301 . S
O907 U886 2.449 . S
O907 C903 1.282 . S
H908 C881 0.931 . S
H909 C883 0.929 . S
H910 C884 0.930 . S
H911 C885 0.931 . S
H912 C892 0.932 . S
H913 C893 0.930 . S
H914 C894 0.929 . S
H915 C896 0.930 . S
H916 C898 0.932 . S
H917 C899 0.929 . S
H918 C900 0.928 . S
H919 C902 0.932 . S
C920 C921 1.264 . S
C920 C925 1.479 . S
C920 C930 1.465 . S
C921 C920 1.264 . S
C921 C923 1.339 . S
C921 H948 0.931 . S
C922 C923 1.395 . S
C922 C924 1.320 . S
C923 C921 1.339 . S
C923 C922 1.395 . S
C923 H949 0.929 . S
C924 C922 1.320 . S
C924 C925 1.405 . S
C924 H950 0.919 1_655 S
C925 C920 1.479 . S
C925 C924 1.405 . S
C925 H951 0.931 . S
U926 O927 2.454 . S
U926 O928 2.458 . S
U926 C929 2.984 . S
U926 C930 2.847 . S
U926 C943 2.882 . S
U926 O944 2.441 . S
U926 O945 2.420 . S
U926 O946 2.455 . S
U926 O947 2.449 . S
O927 U926 2.454 . S
O927 C929 1.353 . S
O928 U926 2.458 . S
O928 C929 1.286 . S
C929 U926 2.984 . S
C929 O927 1.353 . S
C929 O928 1.286 . S
C929 C931 1.363 . S
C930 C920 1.465 . S
C930 U926 2.847 . S
C930 O944 1.249 . S
C930 O945 1.202 . S
C931 C929 1.363 . S
C931 C933 1.408 . S
C931 C936 1.342 . S
C932 C933 1.310 . S
C932 C935 1.459 . S
C932 H952 0.932 . S
C933 C931 1.408 . S
C933 C932 1.310 . S
C933 H953 0.930 . S
C934 C935 1.475 1_455 S
C934 C936 1.285 1_455 S
C934 H954 0.929 . S
C935 C932 1.459 . S
C935 C934 1.475 1_655 S
C936 C931 1.342 . S
C936 C934 1.285 1_655 S
C936 H955 0.930 . S
C937 C940 1.424 . S
C937 C942 1.245 . S
C937 C943 1.428 . S
C938 C941 1.260 . S
C938 C942 1.477 . S
C938 H956 0.932 . S
C939 C940 1.384 . S
C939 C941 1.479 . S
C939 H957 0.929 . S
C940 C937 1.424 . S
C940 C939 1.384 . S
C940 H958 0.928 . S
C941 C938 1.260 . S
C941 C939 1.479 . S
C942 C937 1.245 . S
C942 C938 1.477 . S
C942 H959 0.932 . S
C943 U926 2.882 . S
C943 C937 1.428 . S
C943 O946 1.301 . S
C943 O947 1.282 . S
O944 U926 2.441 . S
O944 C930 1.249 . S
O945 U926 2.420 . S
O945 C930 1.202 . S
O946 U926 2.455 . S
O946 C943 1.301 . S
O947 U926 2.449 . S
O947 C943 1.282 . S
H948 C921 0.931 . S
H949 C923 0.929 . S
H950 C924 0.919 1_455 S
H951 C925 0.931 . S
H952 C932 0.932 . S
H953 C933 0.930 . S
H954 C934 0.929 . S
H955 C936 0.930 . S
H956 C938 0.932 . S
H957 C939 0.929 . S
H958 C940 0.928 . S
H959 C942 0.932 . S
C960 N961 1.317 . S
C960 N962 1.348 . S
C960 C963 1.485 . S
N961 C960 1.317 . S
N961 N965 1.370 . S
N962 C960 1.348 . S
N962 C964 1.346 . S
C963 C960 1.485 . S
C963 H967 0.960 . S
C963 H968 0.961 . S
C963 H969 0.960 . S
C964 N962 1.346 . S
C964 N965 1.307 . S
C964 C966 1.486 . S
N965 N961 1.370 . S
N965 C964 1.307 . S
C966 C964 1.486 . S
C966 H970 0.960 . S
C966 H971 0.960 . S
C966 H972 0.959 . S
H967 C963 0.960 . S
H968 C963 0.961 . S
H969 C963 0.960 . S
H970 C966 0.960 . S
H971 C966 0.960 . S
H972 C966 0.959 . S
C973 N974 1.317 . S
C973 N975 1.348 . S
C973 C976 1.485 . S
N974 C973 1.317 . S
N974 N978 1.370 1_554 S
N975 C973 1.348 . S
N975 C977 1.346 1_554 S
C976 C973 1.485 . S
C976 H980 0.960 . S
C976 H981 0.961 . S
C976 H982 0.960 . S
C977 N975 1.346 1_556 S
C977 N978 1.307 . S
C977 C979 1.486 . S
N978 N974 1.370 1_556 S
N978 C977 1.307 . S
C979 C977 1.486 . S
C979 H983 0.960 . S
C979 H984 0.960 . S
C979 H985 0.959 . S
H980 C976 0.960 . S
H981 C976 0.961 . S
H982 C976 0.960 . S
H983 C979 0.960 . S
H984 C979 0.960 . S
H985 C979 0.959 . S
C986 N987 1.317 . S
C986 N988 1.348 1_565 S
C986 C989 1.485 . S
N987 C986 1.317 . S
N987 N991 1.360 1_565 S
N988 C986 1.348 1_545 S
N988 C990 1.346 . S
C989 C986 1.485 . S
C989 H993 0.960 . S
C989 H994 0.959 1_565 S
C989 H995 0.960 . S
C990 N988 1.346 . S
C990 N991 1.324 . S
C990 C992 1.486 . S
N991 N987 1.360 1_545 S
N991 C990 1.324 . S
C992 C990 1.486 . S
C992 H996 0.960 . S
C992 H997 0.960 . S
C992 H998 0.959 . S
H993 C989 0.960 . S
H994 C989 0.959 1_545 S
H995 C989 0.960 . S
H996 C992 0.960 . S
H997 C992 0.960 . S
H998 C992 0.959 . S
C999 N1000 1.317 . S
C999 N1001 1.348 . S
C999 C1002 1.485 . S
N1000 C999 1.317 . S
N1000 N1004 1.370 1_556 S
N1001 C999 1.348 . S
N1001 C1003 1.346 1_556 S
C1002 C999 1.485 . S
C1002 H1006 0.960 . S
C1002 H1007 0.961 . S
C1002 H1008 0.960 . S
C1003 N1001 1.346 1_554 S
C1003 N1004 1.307 . S
C1003 C1005 1.486 . S
N1004 N1000 1.370 1_554 S
N1004 C1003 1.307 . S
C1005 C1003 1.486 . S
C1005 H1009 0.960 . S
C1005 H1010 0.960 . S
C1005 H1011 0.959 . S
H1006 C1002 0.960 . S
H1007 C1002 0.961 . S
H1008 C1002 0.960 . S
H1009 C1005 0.960 . S
H1010 C1005 0.960 . S
H1011 C1005 0.959 . S
C1012 N1013 1.317 . S
C1012 N1014 1.348 . S
C1012 C1015 1.485 . S
N1013 C1012 1.317 . S
N1013 N1017 1.370 . S
N1014 C1012 1.348 . S
N1014 C1016 1.346 . S
C1015 C1012 1.485 . S
C1015 H1019 0.960 . S
C1015 H1020 0.961 . S
C1015 H1021 0.960 . S
C1016 N1014 1.346 . S
C1016 N1017 1.307 . S
C1016 C1018 1.486 . S
N1017 N1013 1.370 . S
N1017 C1016 1.307 . S
C1018 C1016 1.486 . S
C1018 H1022 0.960 . S
C1018 H1023 0.960 . S
C1018 H1024 0.959 . S
H1019 C1015 0.960 . S
H1020 C1015 0.961 . S
H1021 C1015 0.960 . S
H1022 C1018 0.960 . S
H1023 C1018 0.960 . S
H1024 C1018 0.959 . S
C1025 N1026 1.317 . S
C1025 N1027 1.348 . S
C1025 C1028 1.485 . S
N1026 C1025 1.317 . S
N1026 N1030 1.370 1_655 S
N1027 C1025 1.348 . S
N1027 C1029 1.346 1_655 S
C1028 C1025 1.485 . S
C1028 H1032 0.960 . S
C1028 H1033 0.961 . S
C1028 H1034 0.960 . S
C1029 N1027 1.346 1_455 S
C1029 N1030 1.307 . S
C1029 C1031 1.486 . S
N1030 N1026 1.370 1_455 S
N1030 C1029 1.307 . S
C1031 C1029 1.486 . S
C1031 H1035 0.960 . S
C1031 H1036 0.960 . S
C1031 H1037 0.959 . S
H1032 C1028 0.960 . S
H1033 C1028 0.961 . S
H1034 C1028 0.960 . S
H1035 C1031 0.960 . S
H1036 C1031 0.960 . S
H1037 C1031 0.959 . S
C1038 N1039 1.317 . S
C1038 N1040 1.348 . S
C1038 C1041 1.485 . S
N1039 C1038 1.317 . S
N1039 N1043 1.370 1_455 S
N1040 C1038 1.348 . S
N1040 C1042 1.346 1_455 S
C1041 C1038 1.485 . S
C1041 H1045 0.960 . S
C1041 H1046 0.961 . S
C1041 H1047 0.960 . S
C1042 N1040 1.346 1_655 S
C1042 N1043 1.307 . S
C1042 C1044 1.486 . S
N1043 N1039 1.370 1_655 S
N1043 C1042 1.307 . S
C1044 C1042 1.486 . S
C1044 H1048 0.960 . S
C1044 H1049 0.960 . S
C1044 H1050 0.959 . S
H1045 C1041 0.960 . S
H1046 C1041 0.961 . S
H1047 C1041 0.960 . S
H1048 C1044 0.960 . S
H1049 C1044 0.960 . S
H1050 C1044 0.959 . S
C1051 N1052 1.317 . S
C1051 N1053 1.348 1_556 S
C1051 C1054 1.485 . S
N1052 C1051 1.317 . S
N1052 N1056 1.360 1_556 S
N1053 C1051 1.348 1_554 S
N1053 C1055 1.346 . S
C1054 C1051 1.485 . S
C1054 H1058 0.960 . S
C1054 H1059 0.959 1_556 S
C1054 H1060 0.960 . S
C1055 N1053 1.346 . S
C1055 N1056 1.324 . S
C1055 C1057 1.486 . S
N1056 N1052 1.360 1_554 S
N1056 C1055 1.324 . S
C1057 C1055 1.486 . S
C1057 H1061 0.960 . S
C1057 H1062 0.960 . S
C1057 H1063 0.959 . S
H1058 C1054 0.960 . S
H1059 C1054 0.959 1_554 S
H1060 C1054 0.960 . S
H1061 C1057 0.960 . S
H1062 C1057 0.960 . S
H1063 C1057 0.959 . S
C1064 N1065 1.317 . S
C1064 N1066 1.348 . S
C1064 C1067 1.485 . S
N1065 C1064 1.317 . S
N1065 N1069 1.370 . S
N1066 C1064 1.348 . S
N1066 C1068 1.346 . S
C1067 C1064 1.485 . S
C1067 H1071 0.960 . S
C1067 H1072 0.961 . S
C1067 H1073 0.960 . S
C1068 N1066 1.346 . S
C1068 N1069 1.307 . S
C1068 C1070 1.486 . S
N1069 N1065 1.370 . S
N1069 C1068 1.307 . S
C1070 C1068 1.486 . S
C1070 H1074 0.960 . S
C1070 H1075 0.960 . S
C1070 H1076 0.959 . S
H1071 C1067 0.960 . S
H1072 C1067 0.961 . S
H1073 C1067 0.960 . S
H1074 C1070 0.960 . S
H1075 C1070 0.960 . S
H1076 C1070 0.959 . S
C1077 N1078 1.317 . S
C1077 N1079 1.348 . S
C1077 C1080 1.485 . S
N1078 C1077 1.317 . S
N1078 N1082 1.370 1_565 S
N1079 C1077 1.348 . S
N1079 C1081 1.346 1_565 S
C1080 C1077 1.485 . S
C1080 H1084 0.960 . S
C1080 H1085 0.961 . S
C1080 H1086 0.960 . S
C1081 N1079 1.346 1_545 S
C1081 N1082 1.307 . S
C1081 C1083 1.486 . S
N1082 N1078 1.370 1_545 S
N1082 C1081 1.307 . S
C1083 C1081 1.486 . S
C1083 H1087 0.960 . S
C1083 H1088 0.960 . S
C1083 H1089 0.959 . S
H1084 C1080 0.960 . S
H1085 C1080 0.961 . S
H1086 C1080 0.960 . S
H1087 C1083 0.960 . S
H1088 C1083 0.960 . S
H1089 C1083 0.959 . S
C1090 N1091 1.317 . S
C1090 N1092 1.348 . S
C1090 C1093 1.485 . S
N1091 C1090 1.317 . S
N1091 N1095 1.370 1_545 S
N1092 C1090 1.348 . S
N1092 C1094 1.346 1_545 S
C1093 C1090 1.485 . S
C1093 H1097 0.960 . S
C1093 H1098 0.961 . S
C1093 H1099 0.960 . S
C1094 N1092 1.346 1_565 S
C1094 N1095 1.307 . S
C1094 C1096 1.486 . S
N1095 N1091 1.370 1_565 S
N1095 C1094 1.307 . S
C1096 C1094 1.486 . S
C1096 H1100 0.960 . S
C1096 H1101 0.960 . S
C1096 H1102 0.959 . S
H1097 C1093 0.960 . S
H1098 C1093 0.961 . S
H1099 C1093 0.960 . S
H1100 C1096 0.960 . S
H1101 C1096 0.960 . S
H1102 C1096 0.959 . S
C1103 N1104 1.317 . S
C1103 N1105 1.348 1_655 S
C1103 C1106 1.485 . S
N1104 C1103 1.317 . S
N1104 N1108 1.360 1_655 S
N1105 C1103 1.348 1_455 S
N1105 C1107 1.346 . S
C1106 C1103 1.485 . S
C1106 H1110 0.960 . S
C1106 H1111 0.959 1_655 S
C1106 H1112 0.960 . S
C1107 N1105 1.346 . S
C1107 N1108 1.324 . S
C1107 C1109 1.486 . S
N1108 N1104 1.360 1_455 S
N1108 C1107 1.324 . S
C1109 C1107 1.486 . S
C1109 H1113 0.960 . S
C1109 H1114 0.960 . S
C1109 H1115 0.959 . S
H1110 C1106 0.960 . S
H1111 C1106 0.959 1_455 S
H1112 C1106 0.960 . S
H1113 C1109 0.960 . S
H1114 C1109 0.960 . S
H1115 C1109 0.959 . S
C1116 N1117 1.317 . S
C1116 N1118 1.348 . S
C1116 C1119 1.485 . S
N1117 C1116 1.317 . S
N1117 N1121 1.370 . S
N1118 C1116 1.348 . S
N1118 C1120 1.346 . S
C1119 C1116 1.485 . S
C1119 H1123 0.960 . S
C1119 H1124 0.961 . S
C1119 H1125 0.960 . S
C1120 N1118 1.346 . S
C1120 N1121 1.307 . S
C1120 C1122 1.486 . S
N1121 N1117 1.370 . S
N1121 C1120 1.307 . S
C1122 C1120 1.486 . S
C1122 H1126 0.960 . S
C1122 H1127 0.960 . S
C1122 H1128 0.959 . S
H1123 C1119 0.960 . S
H1124 C1119 0.961 . S
H1125 C1119 0.960 . S
H1126 C1122 0.960 . S
H1127 C1122 0.960 . S
H1128 C1122 0.959 . S
C1129 N1130 1.317 . S
C1129 N1131 1.348 . S
C1129 C1132 1.485 . S
N1130 C1129 1.317 . S
N1130 N1134 1.370 1_556 S
N1131 C1129 1.348 . S
N1131 C1133 1.346 1_556 S
C1132 C1129 1.485 . S
C1132 H1136 0.960 . S
C1132 H1137 0.961 . S
C1132 H1138 0.960 . S
C1133 N1131 1.346 1_554 S
C1133 N1134 1.307 . S
C1133 C1135 1.486 . S
N1134 N1130 1.370 1_554 S
N1134 C1133 1.307 . S
C1135 C1133 1.486 . S
C1135 H1139 0.960 . S
C1135 H1140 0.960 . S
C1135 H1141 0.959 . S
H1136 C1132 0.960 . S
H1137 C1132 0.961 . S
H1138 C1132 0.960 . S
H1139 C1135 0.960 . S
H1140 C1135 0.960 . S
H1141 C1135 0.959 . S
C1142 N1143 1.317 . S
C1142 N1144 1.348 1_545 S
C1142 C1145 1.485 . S
N1143 C1142 1.317 . S
N1143 N1147 1.363 1_545 S
N1144 C1142 1.348 1_565 S
N1144 C1146 1.346 . S
C1145 C1142 1.485 . S
C1145 H1149 0.960 . S
C1145 H1150 0.961 . S
C1145 H1151 0.960 . S
C1146 N1144 1.346 . S
C1146 N1147 1.318 . S
C1146 C1148 1.486 . S
N1147 N1143 1.363 1_565 S
N1147 C1146 1.318 . S
C1148 C1146 1.486 . S
C1148 H1152 0.960 . S
C1148 H1153 0.960 . S
C1148 H1154 0.959 . S
H1149 C1145 0.960 . S
H1150 C1145 0.961 . S
H1151 C1145 0.960 . S
H1152 C1148 0.960 . S
H1153 C1148 0.960 . S
H1154 C1148 0.959 . S
C1155 N1156 1.317 . S
C1155 N1157 1.348 . S
C1155 C1158 1.485 . S
N1156 C1155 1.317 . S
N1156 N1160 1.370 1_554 S
N1157 C1155 1.348 . S
N1157 C1159 1.346 1_554 S
C1158 C1155 1.485 . S
C1158 H1162 0.960 . S
C1158 H1163 0.961 . S
C1158 H1164 0.960 . S
C1159 N1157 1.346 1_556 S
C1159 N1160 1.307 . S
C1159 C1161 1.486 . S
N1160 N1156 1.370 1_556 S
N1160 C1159 1.307 . S
C1161 C1159 1.486 . S
C1161 H1165 0.960 . S
C1161 H1166 0.960 . S
C1161 H1167 0.959 . S
H1162 C1158 0.960 . S
H1163 C1158 0.961 . S
H1164 C1158 0.960 . S
H1165 C1161 0.960 . S
H1166 C1161 0.960 . S
H1167 C1161 0.959 . S
C1168 N1169 1.317 . S
C1168 N1170 1.348 . S
C1168 C1171 1.485 . S
N1169 C1168 1.317 . S
N1169 N1173 1.370 . S
N1170 C1168 1.348 . S
N1170 C1172 1.346 . S
C1171 C1168 1.485 . S
C1171 H1175 0.960 . S
C1171 H1176 0.961 . S
C1171 H1177 0.960 . S
C1172 N1170 1.346 . S
C1172 N1173 1.307 . S
C1172 C1174 1.486 . S
N1173 N1169 1.370 . S
N1173 C1172 1.307 . S
C1174 C1172 1.486 . S
C1174 H1178 0.960 . S
C1174 H1179 0.960 . S
C1174 H1180 0.959 . S
H1175 C1171 0.960 . S
H1176 C1171 0.961 . S
H1177 C1171 0.960 . S
H1178 C1174 0.960 . S
H1179 C1174 0.960 . S
H1180 C1174 0.959 . S
C1181 N1182 1.317 . S
C1181 N1183 1.348 . S
C1181 C1184 1.485 . S
N1182 C1181 1.317 . S
N1182 N1186 1.370 1_455 S
N1183 C1181 1.348 . S
N1183 C1185 1.346 1_455 S
C1184 C1181 1.485 . S
C1184 H1188 0.960 . S
C1184 H1189 0.961 . S
C1184 H1190 0.960 . S
C1185 N1183 1.346 1_655 S
C1185 N1186 1.307 . S
C1185 C1187 1.486 . S
N1186 N1182 1.370 1_655 S
N1186 C1185 1.307 . S
C1187 C1185 1.486 . S
C1187 H1191 0.960 . S
C1187 H1192 0.960 . S
C1187 H1193 0.959 . S
H1188 C1184 0.960 . S
H1189 C1184 0.961 . S
H1190 C1184 0.960 . S
H1191 C1187 0.960 . S
H1192 C1187 0.960 . S
H1193 C1187 0.959 . S
C1194 N1195 1.317 . S
C1194 N1196 1.348 . S
C1194 C1197 1.485 . S
N1195 C1194 1.317 . S
N1195 N1199 1.370 1_655 S
N1196 C1194 1.348 . S
N1196 C1198 1.346 1_655 S
C1197 C1194 1.485 . S
C1197 H1201 0.960 . S
C1197 H1202 0.961 . S
C1197 H1203 0.960 . S
C1198 N1196 1.346 1_455 S
C1198 N1199 1.307 . S
C1198 C1200 1.486 . S
N1199 N1195 1.370 1_455 S
N1199 C1198 1.307 . S
C1200 C1198 1.486 . S
C1200 H1204 0.960 . S
C1200 H1205 0.960 . S
C1200 H1206 0.959 . S
H1201 C1197 0.960 . S
H1202 C1197 0.961 . S
H1203 C1197 0.960 . S
H1204 C1200 0.960 . S
H1205 C1200 0.960 . S
H1206 C1200 0.959 . S
C1207 N1208 1.317 . S
C1207 N1209 1.348 1_554 S
C1207 C1210 1.485 . S
N1208 C1207 1.317 . S
N1208 N1212 1.363 1_554 S
N1209 C1207 1.348 1_556 S
N1209 C1211 1.346 . S
C1210 C1207 1.485 . S
C1210 H1214 0.960 . S
C1210 H1215 0.961 . S
C1210 H1216 0.960 . S
C1211 N1209 1.346 . S
C1211 N1212 1.318 . S
C1211 C1213 1.486 . S
N1212 N1208 1.363 1_556 S
N1212 C1211 1.318 . S
C1213 C1211 1.486 . S
C1213 H1217 0.960 . S
C1213 H1218 0.960 . S
C1213 H1219 0.959 . S
H1214 C1210 0.960 . S
H1215 C1210 0.961 . S
H1216 C1210 0.960 . S
H1217 C1213 0.960 . S
H1218 C1213 0.960 . S
H1219 C1213 0.959 . S
C1220 N1221 1.317 . S
C1220 N1222 1.348 . S
C1220 C1223 1.485 . S
N1221 C1220 1.317 . S
N1221 N1225 1.370 . S
N1222 C1220 1.348 . S
N1222 C1224 1.346 . S
C1223 C1220 1.485 . S
C1223 H1227 0.960 . S
C1223 H1228 0.961 . S
C1223 H1229 0.960 . S
C1224 N1222 1.346 . S
C1224 N1225 1.307 . S
C1224 C1226 1.486 . S
N1225 N1221 1.370 . S
N1225 C1224 1.307 . S
C1226 C1224 1.486 . S
C1226 H1230 0.960 . S
C1226 H1231 0.960 . S
C1226 H1232 0.959 . S
H1227 C1223 0.960 . S
H1228 C1223 0.961 . S
H1229 C1223 0.960 . S
H1230 C1226 0.960 . S
H1231 C1226 0.960 . S
H1232 C1226 0.959 . S
C1233 N1234 1.317 . S
C1233 N1235 1.348 . S
C1233 C1236 1.485 . S
N1234 C1233 1.317 . S
N1234 N1238 1.370 1_545 S
N1235 C1233 1.348 . S
N1235 C1237 1.346 1_545 S
C1236 C1233 1.485 . S
C1236 H1240 0.960 . S
C1236 H1241 0.961 . S
C1236 H1242 0.960 . S
C1237 N1235 1.346 1_565 S
C1237 N1238 1.307 . S
C1237 C1239 1.486 . S
N1238 N1234 1.370 1_565 S
N1238 C1237 1.307 . S
C1239 C1237 1.486 . S
C1239 H1243 0.960 . S
C1239 H1244 0.960 . S
C1239 H1245 0.959 . S
H1240 C1236 0.960 . S
H1241 C1236 0.961 . S
H1242 C1236 0.960 . S
H1243 C1239 0.960 . S
H1244 C1239 0.960 . S
H1245 C1239 0.959 . S
C1246 N1247 1.317 . S
C1246 N1248 1.348 . S
C1246 C1249 1.485 . S
N1247 C1246 1.317 . S
N1247 N1251 1.370 1_565 S
N1248 C1246 1.348 . S
N1248 C1250 1.346 1_565 S
C1249 C1246 1.485 . S
C1249 H1253 0.960 . S
C1249 H1254 0.961 . S
C1249 H1255 0.960 . S
C1250 N1248 1.346 1_545 S
C1250 N1251 1.307 . S
C1250 C1252 1.486 . S
N1251 N1247 1.370 1_545 S
N1251 C1250 1.307 . S
C1252 C1250 1.486 . S
C1252 H1256 0.960 . S
C1252 H1257 0.960 . S
C1252 H1258 0.959 . S
H1253 C1249 0.960 . S
H1254 C1249 0.961 . S
H1255 C1249 0.960 . S
H1256 C1252 0.960 . S
H1257 C1252 0.960 . S
H1258 C1252 0.959 . S
C1259 N1260 1.317 . S
C1259 N1261 1.348 1_455 S
C1259 C1262 1.485 . S
N1260 C1259 1.317 . S
N1260 N1264 1.363 1_455 S
N1261 C1259 1.348 1_655 S
N1261 C1263 1.346 . S
C1262 C1259 1.485 . S
C1262 H1266 0.960 . S
C1262 H1267 0.961 . S
C1262 H1268 0.960 . S
C1263 N1261 1.346 . S
C1263 N1264 1.318 . S
C1263 C1265 1.486 . S
N1264 N1260 1.363 1_655 S
N1264 C1263 1.318 . S
C1265 C1263 1.486 . S
C1265 H1269 0.960 . S
C1265 H1270 0.960 . S
C1265 H1271 0.959 . S
H1266 C1262 0.960 . S
H1267 C1262 0.961 . S
H1268 C1262 0.960 . S
H1269 C1265 0.960 . S
H1270 C1265 0.960 . S
H1271 C1265 0.959 . S
C1272 C1273 1.363 . S
C1272 C1278 1.379 . S
C1272 N1280 1.356 . S
C1273 C1272 1.363 . S
C1273 C1279 1.363 . S
C1274 C1275 1.363 . S
C1274 C1279 1.379 . S
C1274 N1281 1.356 . S
C1275 C1274 1.363 . S
C1275 C1278 1.363 . S
N1276 C1278 1.356 . S
N1276 H1288 0.984 . S
N1276 H1289 0.985 . S
N1277 C1279 1.356 . S
N1277 H1282 0.984 . S
N1277 H1283 0.985 . S
C1278 C1272 1.379 . S
C1278 C1275 1.363 . S
C1278 N1276 1.356 . S
C1279 C1273 1.363 . S
C1279 C1274 1.379 . S
C1279 N1277 1.356 . S
N1280 C1272 1.356 . S
N1280 H1286 0.984 . S
N1280 H1287 0.984 . S
N1281 C1274 1.356 . S
N1281 H1284 0.984 . S
N1281 H1285 0.985 . S
H1282 N1277 0.984 . S
H1283 N1277 0.985 . S
H1284 N1281 0.984 . S
H1285 N1281 0.985 . S
H1286 N1280 0.984 . S
H1287 N1280 0.984 . S
H1288 N1276 0.984 . S
H1289 N1276 0.985 . S
C1290 C1291 1.363 . S
C1290 C1296 1.379 . S
C1290 N1298 1.356 . S
C1291 C1290 1.363 . S
C1291 C1297 1.363 . S
C1292 C1293 1.363 . S
C1292 C1297 1.379 . S
C1292 N1299 1.356 . S
C1293 C1292 1.363 . S
C1293 C1296 1.363 . S
N1294 C1296 1.356 . S
N1294 H1306 0.984 . S
N1294 H1307 0.985 . S
N1295 C1297 1.356 . S
N1295 H1300 0.984 . S
N1295 H1301 0.985 . S
C1296 C1290 1.379 . S
C1296 C1293 1.363 . S
C1296 N1294 1.356 . S
C1297 C1291 1.363 . S
C1297 C1292 1.379 . S
C1297 N1295 1.356 . S
N1298 C1290 1.356 . S
N1298 H1304 0.984 . S
N1298 H1305 0.984 . S
N1299 C1292 1.356 . S
N1299 H1302 0.984 . S
N1299 H1303 0.985 . S
H1300 N1295 0.984 . S
H1301 N1295 0.985 . S
H1302 N1299 0.984 . S
H1303 N1299 0.985 . S
H1304 N1298 0.984 . S
H1305 N1298 0.984 . S
H1306 N1294 0.984 . S
H1307 N1294 0.985 . S
C1308 C1309 1.346 1_545 S
C1308 C1314 1.379 . S
C1308 N1316 1.356 . S
C1309 C1308 1.346 1_565 S
C1309 C1315 1.384 . S
C1310 C1311 1.363 . S
C1310 C1315 1.379 . S
C1310 N1317 1.356 . S
C1311 C1310 1.363 . S
C1311 C1314 1.363 1_565 S
N1312 C1314 1.356 . S
N1312 H1324 0.984 . S
N1312 H1325 0.985 . S
N1313 C1315 1.356 . S
N1313 H1318 0.984 . S
N1313 H1319 0.985 . S
C1314 C1308 1.379 . S
C1314 C1311 1.363 1_545 S
C1314 N1312 1.356 . S
C1315 C1309 1.384 . S
C1315 C1310 1.379 . S
C1315 N1313 1.356 . S
N1316 C1308 1.356 . S
N1316 H1322 0.984 . S
N1316 H1323 0.984 . S
N1317 C1310 1.356 . S
N1317 H1320 0.984 . S
N1317 H1321 0.985 . S
H1318 N1313 0.984 . S
H1319 N1313 0.985 . S
H1320 N1317 0.984 . S
H1321 N1317 0.985 . S
H1322 N1316 0.984 . S
H1323 N1316 0.984 . S
H1324 N1312 0.984 . S
H1325 N1312 0.985 . S
C1326 C1327 1.363 . S
C1326 C1332 1.379 . S
C1326 N1334 1.356 . S
C1327 C1326 1.363 . S
C1327 C1333 1.363 . S
C1328 C1329 1.363 . S
C1328 C1333 1.379 . S
C1328 N1335 1.356 . S
C1329 C1328 1.363 . S
C1329 C1332 1.363 . S
N1330 C1332 1.371 . S
N1330 H1342 0.973 1_545 S
N1330 H1343 0.982 1_545 S
N1331 C1333 1.356 1_655 S
N1331 H1336 0.984 . S
N1331 H1337 0.985 . S
C1332 C1326 1.379 . S
C1332 C1329 1.363 . S
C1332 N1330 1.371 . S
C1333 C1327 1.363 . S
C1333 C1328 1.379 . S
C1333 N1331 1.356 1_455 S
N1334 C1326 1.356 . S
N1334 H1340 0.984 . S
N1334 H1341 0.984 . S
N1335 C1328 1.356 . S
N1335 H1338 0.984 . S
N1335 H1339 0.985 . S
H1336 N1331 0.984 . S
H1337 N1331 0.985 . S
H1338 N1335 0.984 . S
H1339 N1335 0.985 . S
H1340 N1334 0.984 . S
H1341 N1334 0.984 . S
H1342 N1330 0.973 1_565 S
H1343 N1330 0.982 1_565 S
C1344 C1345 1.363 . S
C1344 C1350 1.379 . S
C1344 N1352 1.356 . S
C1345 C1344 1.363 . S
C1345 C1351 1.363 . S
C1346 C1347 1.363 . S
C1346 C1351 1.379 . S
C1346 N1353 1.356 . S
C1347 C1346 1.363 . S
C1347 C1350 1.363 . S
N1348 C1350 1.356 . S
N1348 H1360 0.984 . S
N1348 H1361 0.985 . S
N1349 C1351 1.356 . S
N1349 H1354 0.984 . S
N1349 H1355 0.985 . S
C1350 C1344 1.379 . S
C1350 C1347 1.363 . S
C1350 N1348 1.356 . S
C1351 C1345 1.363 . S
C1351 C1346 1.379 . S
C1351 N1349 1.356 . S
N1352 C1344 1.356 . S
N1352 H1358 0.984 . S
N1352 H1359 0.984 . S
N1353 C1346 1.356 . S
N1353 H1356 0.984 . S
N1353 H1357 0.985 . S
H1354 N1349 0.984 . S
H1355 N1349 0.985 . S
H1356 N1353 0.984 . S
H1357 N1353 0.985 . S
H1358 N1352 0.984 . S
H1359 N1352 0.984 . S
H1360 N1348 0.984 . S
H1361 N1348 0.985 . S
C1362 C1363 1.363 . S
C1362 C1368 1.389 . S
C1362 N1370 1.356 1_554 S
C1363 C1362 1.363 . S
C1363 C1369 1.363 . S
C1364 C1365 1.363 . S
C1364 C1369 1.379 . S
C1364 N1371 1.356 . S
C1365 C1364 1.363 . S
C1365 C1368 1.387 . S
N1366 C1368 1.327 1_556 S
N1366 H1378 0.984 . S
N1366 H1379 0.985 . S
N1367 C1369 1.356 . S
N1367 H1372 0.984 1_545 S
N1367 H1373 0.985 . S
C1368 C1362 1.389 . S
C1368 C1365 1.387 . S
C1368 N1366 1.327 1_554 S
C1369 C1363 1.363 . S
C1369 C1364 1.379 . S
C1369 N1367 1.356 . S
N1370 C1362 1.356 1_556 S
N1370 H1376 0.984 . S
N1370 H1377 0.984 1_546 S
N1371 C1364 1.356 . S
N1371 H1374 0.984 . S
N1371 H1375 0.985 . S
H1372 N1367 0.984 1_565 S
H1373 N1367 0.985 . S
H1374 N1371 0.984 . S
H1375 N1371 0.985 . S
H1376 N1370 0.984 . S
H1377 N1370 0.984 1_564 S
H1378 N1366 0.984 . S
H1379 N1366 0.985 . S
C1380 C1381 1.363 . S
C1380 C1386 1.379 . S
C1380 N1388 1.356 . S
C1381 C1380 1.363 . S
C1381 C1387 1.363 . S
C1382 C1383 1.363 . S
C1382 C1387 1.379 . S
C1382 N1389 1.356 . S
C1383 C1382 1.363 . S
C1383 C1386 1.363 . S
N1384 C1386 1.356 . S
N1384 H1396 0.984 . S
N1384 H1397 0.985 . S
N1385 C1387 1.356 . S
N1385 H1390 0.984 . S
N1385 H1391 0.985 . S
C1386 C1380 1.379 . S
C1386 C1383 1.363 . S
C1386 N1384 1.356 . S
C1387 C1381 1.363 . S
C1387 C1382 1.379 . S
C1387 N1385 1.356 . S
N1388 C1380 1.356 . S
N1388 H1394 0.984 . S
N1388 H1395 0.984 . S
N1389 C1382 1.356 . S
N1389 H1392 0.984 . S
N1389 H1393 0.985 . S
H1390 N1385 0.984 . S
H1391 N1385 0.985 . S
H1392 N1389 0.984 . S
H1393 N1389 0.985 . S
H1394 N1388 0.984 . S
H1395 N1388 0.984 . S
H1396 N1384 0.984 . S
H1397 N1384 0.985 . S
C1398 C1399 1.386 . S
C1398 C1404 1.379 . S
C1398 N1406 1.356 . S
C1399 C1398 1.386 . S
C1399 C1405 1.345 1_556 S
C1400 C1401 1.363 1_554 S
C1400 C1405 1.379 . S
C1400 N1407 1.356 . S
C1401 C1400 1.363 1_556 S
C1401 C1404 1.363 . S
N1402 C1404 1.356 . S
N1402 H1414 0.984 . S
N1402 H1415 0.985 . S
N1403 C1405 1.356 . S
N1403 H1408 0.984 . S
N1403 H1409 0.985 . S
C1404 C1398 1.379 . S
C1404 C1401 1.363 . S
C1404 N1402 1.356 . S
C1405 C1399 1.345 1_554 S
C1405 C1400 1.379 . S
C1405 N1403 1.356 . S
N1406 C1398 1.356 . S
N1406 H1412 0.984 . S
N1406 H1413 0.984 . S
N1407 C1400 1.356 . S
N1407 H1410 0.984 . S
N1407 H1411 0.985 . S
H1408 N1403 0.984 . S
H1409 N1403 0.985 . S
H1410 N1407 0.984 . S
H1411 N1407 0.985 . S
H1412 N1406 0.984 . S
H1413 N1406 0.984 . S
H1414 N1402 0.984 . S
H1415 N1402 0.985 . S
C1416 C1417 1.363 . S
C1416 C1422 1.379 . S
C1416 N1424 1.356 . S
C1417 C1416 1.363 . S
C1417 C1423 1.363 . S
C1418 C1419 1.363 . S
C1418 C1423 1.379 . S
C1418 N1425 1.356 . S
C1419 C1418 1.363 . S
C1419 C1422 1.363 . S
N1420 C1422 1.356 . S
N1420 H1432 0.984 . S
N1420 H1433 0.985 . S
N1421 C1423 1.356 . S
N1421 H1426 0.984 . S
N1421 H1427 0.985 . S
C1422 C1416 1.379 . S
C1422 C1419 1.363 . S
C1422 N1420 1.356 . S
C1423 C1417 1.363 . S
C1423 C1418 1.379 . S
C1423 N1421 1.356 . S
N1424 C1416 1.356 . S
N1424 H1430 0.984 . S
N1424 H1431 0.984 . S
N1425 C1418 1.356 . S
N1425 H1428 0.984 . S
N1425 H1429 0.985 . S
H1426 N1421 0.984 . S
H1427 N1421 0.985 . S
H1428 N1425 0.984 . S
H1429 N1425 0.985 . S
H1430 N1424 0.984 . S
H1431 N1424 0.984 . S
H1432 N1420 0.984 . S
H1433 N1420 0.985 . S
C1434 C1435 1.363 . S
C1434 C1440 1.379 . S
C1434 N1442 1.356 1_554 S
C1435 C1434 1.363 . S
C1435 C1441 1.363 . S
C1436 C1437 1.363 . S
C1436 C1441 1.379 . S
C1436 N1443 1.356 . S
C1437 C1436 1.363 . S
C1437 C1440 1.363 . S
N1438 C1440 1.356 . S
N1438 H1450 0.984 . S
N1438 H1451 0.985 . S
N1439 C1441 1.356 . S
N1439 H1444 0.984 . S
N1439 H1445 0.985 . S
C1440 C1434 1.379 . S
C1440 C1437 1.363 . S
C1440 N1438 1.356 . S
C1441 C1435 1.363 . S
C1441 C1436 1.379 . S
C1441 N1439 1.356 . S
N1442 C1434 1.356 1_556 S
N1442 H1448 0.984 . S
N1442 H1449 0.984 . S
N1443 C1436 1.356 . S
N1443 H1446 0.984 . S
N1443 H1447 0.985 . S
H1444 N1439 0.984 . S
H1445 N1439 0.985 . S
H1446 N1443 0.984 . S
H1447 N1443 0.985 . S
H1448 N1442 0.984 . S
H1449 N1442 0.984 . S
H1450 N1438 0.984 . S
H1451 N1438 0.985 . S
C1452 C1453 1.363 . S
C1452 C1458 1.379 . S
C1452 N1460 1.356 . S
C1453 C1452 1.363 . S
C1453 C1459 1.363 . S
C1454 C1455 1.363 . S
C1454 C1459 1.379 . S
C1454 N1461 1.356 . S
C1455 C1454 1.363 . S
C1455 C1458 1.363 . S
N1456 C1458 1.356 . S
N1456 H1468 0.984 . S
N1456 H1469 0.985 . S
N1457 C1459 1.356 . S
N1457 H1462 0.984 . S
N1457 H1463 0.985 . S
C1458 C1452 1.379 . S
C1458 C1455 1.363 . S
C1458 N1456 1.356 . S
C1459 C1453 1.363 . S
C1459 C1454 1.379 . S
C1459 N1457 1.356 . S
N1460 C1452 1.356 . S
N1460 H1466 0.984 . S
N1460 H1467 0.984 . S
N1461 C1454 1.356 . S
N1461 H1464 0.984 . S
N1461 H1465 0.985 . S
H1462 N1457 0.984 . S
H1463 N1457 0.985 . S
H1464 N1461 0.984 . S
H1465 N1461 0.985 . S
H1466 N1460 0.984 . S
H1467 N1460 0.984 . S
H1468 N1456 0.984 . S
H1469 N1456 0.985 . S
C1470 C1471 1.369 . S
C1470 C1476 1.379 . S
C1470 N1478 1.356 1_655 S
C1471 C1470 1.369 . S
C1471 C1477 1.361 . S
C1472 C1473 1.363 . S
C1472 C1477 1.379 . S
C1472 N1479 1.356 . S
C1473 C1472 1.363 . S
C1473 C1476 1.363 . S
N1474 C1476 1.356 . S
N1474 H1486 0.984 . S
N1474 H1487 0.985 . S
N1475 C1477 1.351 1_455 S
N1475 H1480 0.987 . S
N1475 H1481 0.989 1_455 S
C1476 C1470 1.379 . S
C1476 C1473 1.363 . S
C1476 N1474 1.356 . S
C1477 C1471 1.361 . S
C1477 C1472 1.379 . S
C1477 N1475 1.351 1_655 S
N1478 C1470 1.356 1_455 S
N1478 H1484 0.979 1_455 S
N1478 H1485 0.986 . S
N1479 C1472 1.356 . S
N1479 H1482 0.984 . S
N1479 H1483 0.985 . S
H1480 N1475 0.987 . S
H1481 N1475 0.989 1_655 S
H1482 N1479 0.984 . S
H1483 N1479 0.985 . S
H1484 N1478 0.979 1_655 S
H1485 N1478 0.986 . S
H1486 N1474 0.984 . S
H1487 N1474 0.985 . S
C1488 C1489 1.363 . S
C1488 C1494 1.379 . S
C1488 N1496 1.356 . S
C1489 C1488 1.363 . S
C1489 C1495 1.363 . S
C1490 C1491 1.363 . S
C1490 C1495 1.379 . S
C1490 N1497 1.356 . S
C1491 C1490 1.363 . S
C1491 C1494 1.363 . S
N1492 C1494 1.356 . S
N1492 H1504 0.984 . S
N1492 H1505 0.985 . S
N1493 C1495 1.356 . S
N1493 H1498 0.984 . S
N1493 H1499 0.985 . S
C1494 C1488 1.379 . S
C1494 C1491 1.363 . S
C1494 N1492 1.356 . S
C1495 C1489 1.363 . S
C1495 C1490 1.379 . S
C1495 N1493 1.356 . S
N1496 C1488 1.356 . S
N1496 H1502 0.984 . S
N1496 H1503 0.984 . S
N1497 C1490 1.356 . S
N1497 H1500 0.984 . S
N1497 H1501 0.985 . S
H1498 N1493 0.984 . S
H1499 N1493 0.985 . S
H1500 N1497 0.984 . S
H1501 N1497 0.985 . S
H1502 N1496 0.984 . S
H1503 N1496 0.984 . S
H1504 N1492 0.984 . S
H1505 N1492 0.985 . S
C1506 C1507 1.363 . S
C1506 C1512 1.379 . S
C1506 N1514 1.356 . S
C1507 C1506 1.363 . S
C1507 C1513 1.363 . S
C1508 C1509 1.363 . S
C1508 C1513 1.379 . S
C1508 N1515 1.356 . S
C1509 C1508 1.363 . S
C1509 C1512 1.363 . S
N1510 C1512 1.356 . S
N1510 H1522 0.984 . S
N1510 H1523 0.985 . S
N1511 C1513 1.356 . S
N1511 H1516 0.984 . S
N1511 H1517 0.985 . S
C1512 C1506 1.379 . S
C1512 C1509 1.363 . S
C1512 N1510 1.356 . S
C1513 C1507 1.363 . S
C1513 C1508 1.379 . S
C1513 N1511 1.356 . S
N1514 C1506 1.356 . S
N1514 H1520 0.984 . S
N1514 H1521 0.984 . S
N1515 C1508 1.356 . S
N1515 H1518 0.984 . S
N1515 H1519 0.985 . S
H1516 N1511 0.984 . S
H1517 N1511 0.985 . S
H1518 N1515 0.984 . S
H1519 N1515 0.985 . S
H1520 N1514 0.984 . S
H1521 N1514 0.984 . S
H1522 N1510 0.984 . S
H1523 N1510 0.985 . S
C1524 C1525 1.349 1_565 S
C1524 C1530 1.379 . S
C1524 N1532 1.356 . S
C1525 C1524 1.349 1_545 S
C1525 C1531 1.381 . S
C1526 C1527 1.363 . S
C1526 C1531 1.379 . S
C1526 N1533 1.356 . S
C1527 C1526 1.363 . S
C1527 C1530 1.363 1_545 S
N1528 C1530 1.356 . S
N1528 H1540 0.984 . S
N1528 H1541 0.988 . S
N1529 C1531 1.356 . S
N1529 H1534 0.984 . S
N1529 H1535 0.985 . S
C1530 C1524 1.379 . S
C1530 C1527 1.363 1_565 S
C1530 N1528 1.356 . S
C1531 C1525 1.381 . S
C1531 C1526 1.379 . S
C1531 N1529 1.356 . S
N1532 C1524 1.356 . S
N1532 H1538 0.984 . S
N1532 H1539 0.984 . S
N1533 C1526 1.356 . S
N1533 H1536 0.984 . S
N1533 H1537 0.985 . S
H1534 N1529 0.984 . S
H1535 N1529 0.985 . S
H1536 N1533 0.984 . S
H1537 N1533 0.985 . S
H1538 N1532 0.984 . S
H1539 N1532 0.984 . S
H1540 N1528 0.984 . S
H1541 N1528 0.988 . S
C1542 C1543 1.363 . S
C1542 C1548 1.379 . S
C1542 N1550 1.356 . S
C1543 C1542 1.363 . S
C1543 C1549 1.363 1_565 S
C1544 C1545 1.363 1_545 S
C1544 C1549 1.379 . S
C1544 N1551 1.356 . S
C1545 C1544 1.363 1_565 S
C1545 C1548 1.363 . S
N1546 C1548 1.356 . S
N1546 H1558 0.984 . S
N1546 H1559 0.985 . S
N1547 C1549 1.356 1_455 S
N1547 H1552 0.984 . S
N1547 H1553 0.985 . S
C1548 C1542 1.379 . S
C1548 C1545 1.363 . S
C1548 N1546 1.356 . S
C1549 C1543 1.363 1_545 S
C1549 C1544 1.379 . S
C1549 N1547 1.356 1_655 S
N1550 C1542 1.356 . S
N1550 H1556 0.984 . S
N1550 H1557 0.984 . S
N1551 C1544 1.356 . S
N1551 H1554 0.984 . S
N1551 H1555 0.985 . S
H1552 N1547 0.984 . S
H1553 N1547 0.985 . S
H1554 N1551 0.984 . S
H1555 N1551 0.985 . S
H1556 N1550 0.984 . S
H1557 N1550 0.984 . S
H1558 N1546 0.984 . S
H1559 N1546 0.985 . S
C1560 C1561 1.363 . S
C1560 C1566 1.379 . S
C1560 N1568 1.356 . S
C1561 C1560 1.363 . S
C1561 C1567 1.363 . S
C1562 C1563 1.363 . S
C1562 C1567 1.379 . S
C1562 N1569 1.356 . S
C1563 C1562 1.363 . S
C1563 C1566 1.363 . S
N1564 C1566 1.356 . S
N1564 H1576 0.984 . S
N1564 H1577 0.985 . S
N1565 C1567 1.356 . S
N1565 H1570 0.984 . S
N1565 H1571 0.985 . S
C1566 C1560 1.379 . S
C1566 C1563 1.363 . S
C1566 N1564 1.356 . S
C1567 C1561 1.363 . S
C1567 C1562 1.379 . S
C1567 N1565 1.356 . S
N1568 C1560 1.356 . S
N1568 H1574 0.984 . S
N1568 H1575 0.984 . S
N1569 C1562 1.356 . S
N1569 H1572 0.984 . S
N1569 H1573 0.985 . S
H1570 N1565 0.984 . S
H1571 N1565 0.985 . S
H1572 N1569 0.984 . S
H1573 N1569 0.985 . S
H1574 N1568 0.984 . S
H1575 N1568 0.984 . S
H1576 N1564 0.984 . S
H1577 N1564 0.985 . S
C1578 C1579 1.377 . S
C1578 C1584 1.375 1_556 S
C1578 N1586 1.350 1_566 S
C1579 C1578 1.377 . S
C1579 C1585 1.363 . S
C1580 C1581 1.363 . S
C1580 C1585 1.379 . S
C1580 N1587 1.356 . S
C1581 C1580 1.363 . S
C1581 C1584 1.363 1_556 S
N1582 C1584 1.356 . S
N1582 H1594 0.984 . S
N1582 H1595 0.985 . S
N1583 C1585 1.356 . S
N1583 H1588 0.984 . S
N1583 H1589 0.985 . S
C1584 C1578 1.375 1_554 S
C1584 C1581 1.363 1_554 S
C1584 N1582 1.356 . S
C1585 C1579 1.363 . S
C1585 C1580 1.379 . S
C1585 N1583 1.356 . S
N1586 C1578 1.350 1_544 S
N1586 H1592 0.984 . S
N1586 H1593 0.984 . S
N1587 C1580 1.356 . S
N1587 H1590 0.984 . S
N1587 H1591 0.985 . S
H1588 N1583 0.984 . S
H1589 N1583 0.985 . S
H1590 N1587 0.984 . S
H1591 N1587 0.985 . S
H1592 N1586 0.984 . S
H1593 N1586 0.984 . S
H1594 N1582 0.984 . S
H1595 N1582 0.985 . S
C1596 C1597 1.363 . S
C1596 C1602 1.379 . S
C1596 N1604 1.356 . S
C1597 C1596 1.363 . S
C1597 C1603 1.363 . S
C1598 C1599 1.363 . S
C1598 C1603 1.379 . S
C1598 N1605 1.356 . S
C1599 C1598 1.363 . S
C1599 C1602 1.363 . S
N1600 C1602 1.356 . S
N1600 H1612 0.984 . S
N1600 H1613 0.985 . S
N1601 C1603 1.356 . S
N1601 H1606 0.984 . S
N1601 H1607 0.985 . S
C1602 C1596 1.379 . S
C1602 C1599 1.363 . S
C1602 N1600 1.356 . S
C1603 C1597 1.363 . S
C1603 C1598 1.379 . S
C1603 N1601 1.356 . S
N1604 C1596 1.356 . S
N1604 H1610 0.984 . S
N1604 H1611 0.984 . S
N1605 C1598 1.356 . S
N1605 H1608 0.984 . S
N1605 H1609 0.985 . S
H1606 N1601 0.984 . S
H1607 N1601 0.985 . S
H1608 N1605 0.984 . S
H1609 N1605 0.985 . S
H1610 N1604 0.984 . S
H1611 N1604 0.984 . S
H1612 N1600 0.984 . S
H1613 N1600 0.985 . S
C1614 C1615 1.387 . S
C1614 C1620 1.379 . S
C1614 N1622 1.356 . S
C1615 C1614 1.387 . S
C1615 C1621 1.343 1_554 S
C1616 C1617 1.363 1_556 S
C1616 C1621 1.379 . S
C1616 N1623 1.356 . S
C1617 C1616 1.363 1_554 S
C1617 C1620 1.363 . S
N1618 C1620 1.356 . S
N1618 H1630 0.984 . S
N1618 H1631 0.985 . S
N1619 C1621 1.356 . S
N1619 H1624 0.984 . S
N1619 H1625 0.985 . S
C1620 C1614 1.379 . S
C1620 C1617 1.363 . S
C1620 N1618 1.356 . S
C1621 C1615 1.343 1_556 S
C1621 C1616 1.379 . S
C1621 N1619 1.356 . S
N1622 C1614 1.356 . S
N1622 H1628 0.984 . S
N1622 H1629 0.984 . S
N1623 C1616 1.356 . S
N1623 H1626 0.984 . S
N1623 H1627 0.985 . S
H1624 N1619 0.984 . S
H1625 N1619 0.985 . S
H1626 N1623 0.984 . S
H1627 N1623 0.985 . S
H1628 N1622 0.984 . S
H1629 N1622 0.984 . S
H1630 N1618 0.984 . S
H1631 N1618 0.985 . S
C1632 C1633 1.363 . S
C1632 C1638 1.379 . S
C1632 N1640 1.356 . S
C1633 C1632 1.363 . S
C1633 C1639 1.363 . S
C1634 C1635 1.363 . S
C1634 C1639 1.379 . S
C1634 N1641 1.356 . S
C1635 C1634 1.363 . S
C1635 C1638 1.363 . S
N1636 C1638 1.356 . S
N1636 H1648 0.984 . S
N1636 H1649 0.985 . S
N1637 C1639 1.356 . S
N1637 H1642 0.984 . S
N1637 H1643 0.985 . S
C1638 C1632 1.379 . S
C1638 C1635 1.363 . S
C1638 N1636 1.356 . S
C1639 C1633 1.363 . S
C1639 C1634 1.379 . S
C1639 N1637 1.356 . S
N1640 C1632 1.356 . S
N1640 H1646 0.984 . S
N1640 H1647 0.984 . S
N1641 C1634 1.356 . S
N1641 H1644 0.984 . S
N1641 H1645 0.985 . S
H1642 N1637 0.984 . S
H1643 N1637 0.985 . S
H1644 N1641 0.984 . S
H1645 N1641 0.985 . S
H1646 N1640 0.984 . S
H1647 N1640 0.984 . S
H1648 N1636 0.984 . S
H1649 N1636 0.985 . S
C1650 C1651 1.363 . S
C1650 C1656 1.379 . S
C1650 N1658 1.356 1_556 S
C1651 C1650 1.363 . S
C1651 C1657 1.363 . S
C1652 C1653 1.363 . S
C1652 C1657 1.379 . S
C1652 N1659 1.356 1_655 S
C1653 C1652 1.363 . S
C1653 C1656 1.363 . S
N1654 C1656 1.356 . S
N1654 H1666 0.984 . S
N1654 H1667 0.985 . S
N1655 C1657 1.356 . S
N1655 H1660 0.984 . S
N1655 H1661 0.985 1_655 S
C1656 C1650 1.379 . S
C1656 C1653 1.363 . S
C1656 N1654 1.356 . S
C1657 C1651 1.363 . S
C1657 C1652 1.379 . S
C1657 N1655 1.356 . S
N1658 C1650 1.356 1_554 S
N1658 H1664 0.984 . S
N1658 H1665 0.984 . S
N1659 C1652 1.356 1_455 S
N1659 H1662 0.984 . S
N1659 H1663 0.985 . S
H1660 N1655 0.984 . S
H1661 N1655 0.985 1_455 S
H1662 N1659 0.984 . S
H1663 N1659 0.985 . S
H1664 N1658 0.984 . S
H1665 N1658 0.984 . S
H1666 N1654 0.984 . S
H1667 N1654 0.985 . S
C1668 C1669 1.363 . S
C1668 C1674 1.379 . S
C1668 N1676 1.356 . S
C1669 C1668 1.363 . S
C1669 C1675 1.363 . S
C1670 C1671 1.363 . S
C1670 C1675 1.379 . S
C1670 N1677 1.356 . S
C1671 C1670 1.363 . S
C1671 C1674 1.363 . S
N1672 C1674 1.356 . S
N1672 H1684 0.984 . S
N1672 H1685 0.985 . S
N1673 C1675 1.356 . S
N1673 H1678 0.984 . S
N1673 H1679 0.985 . S
C1674 C1668 1.379 . S
C1674 C1671 1.363 . S
C1674 N1672 1.356 . S
C1675 C1669 1.363 . S
C1675 C1670 1.379 . S
C1675 N1673 1.356 . S
N1676 C1668 1.356 . S
N1676 H1682 0.984 . S
N1676 H1683 0.984 . S
N1677 C1670 1.356 . S
N1677 H1680 0.984 . S
N1677 H1681 0.985 . S
H1678 N1673 0.984 . S
H1679 N1673 0.985 . S
H1680 N1677 0.984 . S
H1681 N1677 0.985 . S
H1682 N1676 0.984 . S
H1683 N1676 0.984 . S
H1684 N1672 0.984 . S
H1685 N1672 0.985 . S
C1686 C1687 1.351 1_655 S
C1686 C1692 1.379 . S
C1686 N1694 1.356 . S
C1687 C1686 1.351 1_455 S
C1687 C1693 1.379 . S
C1688 C1689 1.363 . S
C1688 C1693 1.379 . S
C1688 N1695 1.356 . S
C1689 C1688 1.363 . S
C1689 C1692 1.363 1_455 S
N1690 C1692 1.356 . S
N1690 H1702 0.984 . S
N1690 H1703 0.985 . S
N1691 C1693 1.356 . S
N1691 H1696 0.984 . S
N1691 H1697 0.985 . S
C1692 C1686 1.379 . S
C1692 C1689 1.363 1_655 S
C1692 N1690 1.356 . S
C1693 C1687 1.379 . S
C1693 C1688 1.379 . S
C1693 N1691 1.356 . S
N1694 C1686 1.356 . S
N1694 H1700 0.984 . S
N1694 H1701 0.984 . S
N1695 C1688 1.356 . S
N1695 H1698 0.984 . S
N1695 H1699 0.985 . S
H1696 N1691 0.984 . S
H1697 N1691 0.985 . S
H1698 N1695 0.984 . S
H1699 N1695 0.985 . S
H1700 N1694 0.984 . S
H1701 N1694 0.984 . S
H1702 N1690 0.984 . S
H1703 N1690 0.985 . S
C1704 C1705 1.363 . S
C1704 C1710 1.379 . S
C1704 N1712 1.356 . S
C1705 C1704 1.363 . S
C1705 C1711 1.363 . S
C1706 C1707 1.363 . S
C1706 C1711 1.379 . S
C1706 N1713 1.356 . S
C1707 C1706 1.363 . S
C1707 C1710 1.363 . S
N1708 C1710 1.356 . S
N1708 H1720 0.984 . S
N1708 H1721 0.985 . S
N1709 C1711 1.356 . S
N1709 H1714 0.984 . S
N1709 H1715 0.985 . S
C1710 C1704 1.379 . S
C1710 C1707 1.363 . S
C1710 N1708 1.356 . S
C1711 C1705 1.363 . S
C1711 C1706 1.379 . S
C1711 N1709 1.356 . S
N1712 C1704 1.356 . S
N1712 H1718 0.984 . S
N1712 H1719 0.984 . S
N1713 C1706 1.356 . S
N1713 H1716 0.984 . S
N1713 H1717 0.985 . S
H1714 N1709 0.984 . S
H1715 N1709 0.985 . S
H1716 N1713 0.984 . S
H1717 N1713 0.985 . S
H1718 N1712 0.984 . S
H1719 N1712 0.984 . S
H1720 N1708 0.984 . S
H1721 N1708 0.985 . S
C1722 C1723 1.363 . S
C1722 C1728 1.379 . S
C1722 N1730 1.356 . S
C1723 C1722 1.363 . S
C1723 C1729 1.363 . S
C1724 C1725 1.363 . S
C1724 C1729 1.379 . S
C1724 N1731 1.356 1_556 S
C1725 C1724 1.363 . S
C1725 C1728 1.363 . S
N1726 C1728 1.356 . S
N1726 H1738 0.984 . S
N1726 H1739 0.985 . S
N1727 C1729 1.356 1_554 S
N1727 H1732 0.984 . S
N1727 H1733 0.985 . S
C1728 C1722 1.379 . S
C1728 C1725 1.363 . S
C1728 N1726 1.356 . S
C1729 C1723 1.363 . S
C1729 C1724 1.379 . S
C1729 N1727 1.356 1_556 S
N1730 C1722 1.356 . S
N1730 H1736 0.984 . S
N1730 H1737 0.984 . S
N1731 C1724 1.356 1_554 S
N1731 H1734 0.984 . S
N1731 H1735 0.985 . S
H1732 N1727 0.984 . S
H1733 N1727 0.985 . S
H1734 N1731 0.984 . S
H1735 N1731 0.985 . S
H1736 N1730 0.984 . S
H1737 N1730 0.984 . S
H1738 N1726 0.984 . S
H1739 N1726 0.985 . S
C1740 C1741 1.369 . S
C1740 C1746 1.379 . S
C1740 N1748 1.356 . S
C1741 C1740 1.369 . S
C1741 C1747 1.357 1_565 S
C1742 C1743 1.363 1_545 S
C1742 C1747 1.379 . S
C1742 N1749 1.356 . S
C1743 C1742 1.363 1_565 S
C1743 C1746 1.363 . S
N1744 C1746 1.356 . S
N1744 H1756 0.984 . S
N1744 H1757 0.985 . S
N1745 C1747 1.356 . S
N1745 H1750 0.984 . S
N1745 H1751 0.985 . S
C1746 C1740 1.379 . S
C1746 C1743 1.363 . S
C1746 N1744 1.356 . S
C1747 C1741 1.357 1_545 S
C1747 C1742 1.379 . S
C1747 N1745 1.356 . S
N1748 C1740 1.356 . S
N1748 H1754 0.984 . S
N1748 H1755 0.984 . S
N1749 C1742 1.356 . S
N1749 H1752 0.984 . S
N1749 H1753 0.985 . S
H1750 N1745 0.984 . S
H1751 N1745 0.985 . S
H1752 N1749 0.984 . S
H1753 N1749 0.985 . S
H1754 N1748 0.984 . S
H1755 N1748 0.984 . S
H1756 N1744 0.984 . S
H1757 N1744 0.985 . S
C1758 C1759 1.363 . S
C1758 C1764 1.379 . S
C1758 N1766 1.356 . S
C1759 C1758 1.363 . S
C1759 C1765 1.363 . S
C1760 C1761 1.363 . S
C1760 C1765 1.379 . S
C1760 N1767 1.356 . S
C1761 C1760 1.363 . S
C1761 C1764 1.363 . S
N1762 C1764 1.356 . S
N1762 H1774 0.995 . S
N1762 H1775 0.985 1_554 S
N1763 C1765 1.356 . S
N1763 H1768 0.984 . S
N1763 H1769 0.985 . S
C1764 C1758 1.379 . S
C1764 C1761 1.363 . S
C1764 N1762 1.356 . S
C1765 C1759 1.363 . S
C1765 C1760 1.379 . S
C1765 N1763 1.356 . S
N1766 C1758 1.356 . S
N1766 H1772 0.984 . S
N1766 H1773 0.984 . S
N1767 C1760 1.356 . S
N1767 H1770 0.984 . S
N1767 H1771 0.985 . S
H1768 N1763 0.984 . S
H1769 N1763 0.985 . S
H1770 N1767 0.984 . S
H1771 N1767 0.985 . S
H1772 N1766 0.984 . S
H1773 N1766 0.984 . S
H1774 N1762 0.995 . S
H1775 N1762 0.985 1_556 S
C1776 C1777 1.363 . S
C1776 C1782 1.379 . S
C1776 N1784 1.356 . S
C1777 C1776 1.363 . S
C1777 C1783 1.363 . S
C1778 C1779 1.363 . S
C1778 C1783 1.379 . S
C1778 N1785 1.356 . S
C1779 C1778 1.363 . S
C1779 C1782 1.363 . S
N1780 C1782 1.356 . S
N1780 H1792 0.984 . S
N1780 H1793 0.985 . S
N1781 C1783 1.356 . S
N1781 H1786 0.984 . S
N1781 H1787 0.985 . S
C1782 C1776 1.379 . S
C1782 C1779 1.363 . S
C1782 N1780 1.356 . S
C1783 C1777 1.363 . S
C1783 C1778 1.379 . S
C1783 N1781 1.356 . S
N1784 C1776 1.356 . S
N1784 H1790 0.984 . S
N1784 H1791 0.984 . S
N1785 C1778 1.356 . S
N1785 H1788 0.984 . S
N1785 H1789 0.985 . S
H1786 N1781 0.984 . S
H1787 N1781 0.985 . S
H1788 N1785 0.984 . S
H1789 N1785 0.985 . S
H1790 N1784 0.984 . S
H1791 N1784 0.984 . S
H1792 N1780 0.984 . S
H1793 N1780 0.985 . S
C1794 C1795 1.363 . S
C1794 C1800 1.379 . S
C1794 N1802 1.356 . S
C1795 C1794 1.363 . S
C1795 C1801 1.363 . S
C1796 C1797 1.363 . S
C1796 C1801 1.379 . S
C1796 N1803 1.356 . S
C1797 C1796 1.363 . S
C1797 C1800 1.363 . S
N1798 C1800 1.356 . S
N1798 H1810 0.984 . S
N1798 H1811 0.985 . S
N1799 C1801 1.356 . S
N1799 H1804 0.984 . S
N1799 H1805 0.985 . S
C1800 C1794 1.379 . S
C1800 C1797 1.363 . S
C1800 N1798 1.356 . S
C1801 C1795 1.363 . S
C1801 C1796 1.379 . S
C1801 N1799 1.356 . S
N1802 C1794 1.356 . S
N1802 H1808 0.984 . S
N1802 H1809 0.984 . S
N1803 C1796 1.356 . S
N1803 H1806 0.984 . S
N1803 H1807 0.985 . S
H1804 N1799 0.984 . S
H1805 N1799 0.985 . S
H1806 N1803 0.984 . S
H1807 N1803 0.985 . S
H1808 N1802 0.984 . S
H1809 N1802 0.984 . S
H1810 N1798 0.984 . S
H1811 N1798 0.985 . S
C1812 C1813 1.363 . S
C1812 C1818 1.379 . S
C1812 N1820 1.356 . S
C1813 C1812 1.363 . S
C1813 C1819 1.375 . S
C1814 C1815 1.336 1_455 S
C1814 C1819 1.384 1_455 S
C1814 N1821 1.375 . S
C1815 C1814 1.336 1_655 S
C1815 C1818 1.363 . S
N1816 C1818 1.356 . S
N1816 H1828 0.984 . S
N1816 H1829 0.985 . S
N1817 C1819 1.345 1_455 S
N1817 H1822 0.984 . S
N1817 H1823 0.985 . S
C1818 C1812 1.379 . S
C1818 C1815 1.363 . S
C1818 N1816 1.356 . S
C1819 C1813 1.375 . S
C1819 C1814 1.384 1_655 S
C1819 N1817 1.345 1_655 S
N1820 C1812 1.356 . S
N1820 H1826 0.984 . S
N1820 H1827 0.984 . S
N1821 C1814 1.375 . S
N1821 H1824 0.984 . S
N1821 H1825 0.985 . S
H1822 N1817 0.984 . S
H1823 N1817 0.985 . S
H1824 N1821 0.984 . S
H1825 N1821 0.985 . S
H1826 N1820 0.984 . S
H1827 N1820 0.984 . S
H1828 N1816 0.984 . S
H1829 N1816 0.985 . S
C1830 C1831 1.369 . S
C1830 C1836 1.379 . S
C1830 N1838 1.356 . S
C1831 C1830 1.369 . S
C1831 C1837 1.357 1_556 S
C1832 C1833 1.363 1_554 S
C1832 C1837 1.379 . S
C1832 N1839 1.356 . S
C1833 C1832 1.363 1_556 S
C1833 C1836 1.363 . S
N1834 C1836 1.356 . S
N1834 H1846 0.984 . S
N1834 H1847 0.985 . S
N1835 C1837 1.356 . S
N1835 H1840 0.984 . S
N1835 H1841 0.985 . S
C1836 C1830 1.379 . S
C1836 C1833 1.363 . S
C1836 N1834 1.356 . S
C1837 C1831 1.357 1_554 S
C1837 C1832 1.379 . S
C1837 N1835 1.356 . S
N1838 C1830 1.356 . S
N1838 H1844 0.984 . S
N1838 H1845 0.984 . S
N1839 C1832 1.356 . S
N1839 H1842 0.984 . S
N1839 H1843 0.985 . S
H1840 N1835 0.984 . S
H1841 N1835 0.985 . S
H1842 N1839 0.984 . S
H1843 N1839 0.985 . S
H1844 N1838 0.984 . S
H1845 N1838 0.984 . S
H1846 N1834 0.984 . S
H1847 N1834 0.985 . S
C1848 C1849 1.363 . S
C1848 C1854 1.379 . S
C1848 N1856 1.356 . S
C1849 C1848 1.363 . S
C1849 C1855 1.363 . S
C1850 C1851 1.363 . S
C1850 C1855 1.379 . S
C1850 N1857 1.356 . S
C1851 C1850 1.363 . S
C1851 C1854 1.363 . S
N1852 C1854 1.356 . S
N1852 H1864 0.984 . S
N1852 H1865 0.985 . S
N1853 C1855 1.356 . S
N1853 H1858 0.984 . S
N1853 H1859 0.985 . S
C1854 C1848 1.379 . S
C1854 C1851 1.363 . S
C1854 N1852 1.356 . S
C1855 C1849 1.363 . S
C1855 C1850 1.379 . S
C1855 N1853 1.356 . S
N1856 C1848 1.356 . S
N1856 H1862 0.984 . S
N1856 H1863 0.984 . S
N1857 C1850 1.356 . S
N1857 H1860 0.984 . S
N1857 H1861 0.985 . S
H1858 N1853 0.984 . S
H1859 N1853 0.985 . S
H1860 N1857 0.984 . S
H1861 N1857 0.985 . S
H1862 N1856 0.984 . S
H1863 N1856 0.984 . S
H1864 N1852 0.984 . S
H1865 N1852 0.985 . S
C1866 C1867 1.363 . S
C1866 C1872 1.379 . S
C1866 N1874 1.356 . S
C1867 C1866 1.363 . S
C1867 C1873 1.363 . S
C1868 C1869 1.363 . S
C1868 C1873 1.379 . S
C1868 N1875 1.356 . S
C1869 C1868 1.363 . S
C1869 C1872 1.363 . S
N1870 C1872 1.356 . S
N1870 H1882 0.985 1_545 S
N1870 H1883 0.985 1_545 S
N1871 C1873 1.356 . S
N1871 H1876 0.984 . S
N1871 H1877 0.985 . S
C1872 C1866 1.379 . S
C1872 C1869 1.363 . S
C1872 N1870 1.356 . S
C1873 C1867 1.363 . S
C1873 C1868 1.379 . S
C1873 N1871 1.356 . S
N1874 C1866 1.356 . S
N1874 H1880 0.984 . S
N1874 H1881 0.984 . S
N1875 C1868 1.356 . S
N1875 H1878 0.984 . S
N1875 H1879 0.985 . S
H1876 N1871 0.984 . S
H1877 N1871 0.985 . S
H1878 N1875 0.984 . S
H1879 N1875 0.985 . S
H1880 N1874 0.984 . S
H1881 N1874 0.984 . S
H1882 N1870 0.985 1_565 S
H1883 N1870 0.985 1_565 S
C1884 C1885 1.363 . S
C1884 C1890 1.379 . S
C1884 N1892 1.356 1_565 S
C1885 C1884 1.363 . S
C1885 C1891 1.363 . S
C1886 C1887 1.363 . S
C1886 C1891 1.379 . S
C1886 N1893 1.356 . S
C1887 C1886 1.363 . S
C1887 C1890 1.363 . S
N1888 C1890 1.356 1_545 S
N1888 H1900 0.984 . S
N1888 H1901 0.985 . S
N1889 C1891 1.356 . S
N1889 H1894 0.984 . S
N1889 H1895 0.985 . S
C1890 C1884 1.379 . S
C1890 C1887 1.363 . S
C1890 N1888 1.356 1_565 S
C1891 C1885 1.363 . S
C1891 C1886 1.379 . S
C1891 N1889 1.356 . S
N1892 C1884 1.356 1_545 S
N1892 H1898 0.984 . S
N1892 H1899 0.984 . S
N1893 C1886 1.356 . S
N1893 H1896 0.984 . S
N1893 H1897 0.985 . S
H1894 N1889 0.984 . S
H1895 N1889 0.985 . S
H1896 N1893 0.984 . S
H1897 N1893 0.985 . S
H1898 N1892 0.984 . S
H1899 N1892 0.984 . S
H1900 N1888 0.984 . S
H1901 N1888 0.985 . S
C1902 C1903 1.360 1_455 S
C1902 C1908 1.379 . S
C1902 N1910 1.356 . S
C1903 C1902 1.360 1_655 S
C1903 C1909 1.366 . S
C1904 C1905 1.363 . S
C1904 C1909 1.379 . S
C1904 N1911 1.356 . S
C1905 C1904 1.363 . S
C1905 C1908 1.363 1_655 S
N1906 C1908 1.356 . S
N1906 H1918 0.984 . S
N1906 H1919 0.985 . S
N1907 C1909 1.356 . S
N1907 H1912 0.984 . S
N1907 H1913 0.985 . S
C1908 C1902 1.379 . S
C1908 C1905 1.363 1_455 S
C1908 N1906 1.356 . S
C1909 C1903 1.366 . S
C1909 C1904 1.379 . S
C1909 N1907 1.356 . S
N1910 C1902 1.356 . S
N1910 H1916 0.984 . S
N1910 H1917 0.984 . S
N1911 C1904 1.356 . S
N1911 H1914 0.984 . S
N1911 H1915 0.985 . S
H1912 N1907 0.984 . S
H1913 N1907 0.985 . S
H1914 N1911 0.984 . S
H1915 N1911 0.985 . S
H1916 N1910 0.984 . S
H1917 N1910 0.984 . S
H1918 N1906 0.984 . S
H1919 N1906 0.985 . S
C1920 C1921 1.363 . S
C1920 C1926 1.379 . S
C1920 N1928 1.356 . S
C1921 C1920 1.363 . S
C1921 C1927 1.363 . S
C1922 C1923 1.363 . S
C1922 C1927 1.379 . S
C1922 N1929 1.356 . S
C1923 C1922 1.363 . S
C1923 C1926 1.363 . S
N1924 C1926 1.356 . S
N1924 H1936 0.984 . S
N1924 H1937 0.985 . S
N1925 C1927 1.356 . S
N1925 H1930 0.984 . S
N1925 H1931 0.985 . S
C1926 C1920 1.379 . S
C1926 C1923 1.363 . S
C1926 N1924 1.356 . S
C1927 C1921 1.363 . S
C1927 C1922 1.379 . S
C1927 N1925 1.356 . S
N1928 C1920 1.356 . S
N1928 H1934 0.984 . S
N1928 H1935 0.984 . S
N1929 C1922 1.356 . S
N1929 H1932 0.984 . S
N1929 H1933 0.985 . S
H1930 N1925 0.984 . S
H1931 N1925 0.985 . S
H1932 N1929 0.984 . S
H1933 N1929 0.985 . S
H1934 N1928 0.984 . S
H1935 N1928 0.984 . S
H1936 N1924 0.984 . S
H1937 N1924 0.985 . S
C1938 C1939 1.363 . S
C1938 C1944 1.379 . S
C1938 N1946 1.356 . S
C1939 C1938 1.363 . S
C1939 C1945 1.363 . S
C1940 C1941 1.363 . S
C1940 C1945 1.379 . S
C1940 N1947 1.356 1_554 S
C1941 C1940 1.363 . S
C1941 C1944 1.363 . S
N1942 C1944 1.356 . S
N1942 H1954 0.984 . S
N1942 H1955 0.985 . S
N1943 C1945 1.356 1_556 S
N1943 H1948 0.984 . S
N1943 H1949 0.985 . S
C1944 C1938 1.379 . S
C1944 C1941 1.363 . S
C1944 N1942 1.356 . S
C1945 C1939 1.363 . S
C1945 C1940 1.379 . S
C1945 N1943 1.356 1_554 S
N1946 C1938 1.356 . S
N1946 H1952 0.984 . S
N1946 H1953 0.984 . S
N1947 C1940 1.356 1_556 S
N1947 H1950 0.984 . S
N1947 H1951 0.985 . S
H1948 N1943 0.984 . S
H1949 N1943 0.985 . S
H1950 N1947 0.984 . S
H1951 N1947 0.985 . S
H1952 N1946 0.984 . S
H1953 N1946 0.984 . S
H1954 N1942 0.984 . S
H1955 N1942 0.985 . S
C1956 C1957 1.358 1_565 S
C1956 C1962 1.379 . S
C1956 N1964 1.356 . S
C1957 C1956 1.358 1_545 S
C1957 C1963 1.368 . S
C1958 C1959 1.363 . S
C1958 C1963 1.379 . S
C1958 N1965 1.356 . S
C1959 C1958 1.363 . S
C1959 C1962 1.363 1_545 S
N1960 C1962 1.356 . S
N1960 H1972 0.984 . S
N1960 H1973 0.985 . S
N1961 C1963 1.356 . S
N1961 H1966 0.984 . S
N1961 H1967 0.985 . S
C1962 C1956 1.379 . S
C1962 C1959 1.363 1_565 S
C1962 N1960 1.356 . S
C1963 C1957 1.368 . S
C1963 C1958 1.379 . S
C1963 N1961 1.356 . S
N1964 C1956 1.356 . S
N1964 H1970 0.984 . S
N1964 H1971 0.984 . S
N1965 C1958 1.356 . S
N1965 H1968 0.984 . S
N1965 H1969 0.985 . S
H1966 N1961 0.984 . S
H1967 N1961 0.985 . S
H1968 N1965 0.984 . S
H1969 N1965 0.985 . S
H1970 N1964 0.984 . S
H1971 N1964 0.984 . S
H1972 N1960 0.984 . S
H1973 N1960 0.985 . S
C1974 C1975 1.363 . S
C1974 C1980 1.379 . S
C1974 N1982 1.356 . S
C1975 C1974 1.363 . S
C1975 C1981 1.363 . S
C1976 C1977 1.363 . S
C1976 C1981 1.379 . S
C1976 N1983 1.356 . S
C1977 C1976 1.363 . S
C1977 C1980 1.363 . S
N1978 C1980 1.356 . S
N1978 H1990 0.984 . S
N1978 H1991 0.985 . S
N1979 C1981 1.356 . S
N1979 H1984 0.984 . S
N1979 H1985 0.985 . S
C1980 C1974 1.379 . S
C1980 C1977 1.363 . S
C1980 N1978 1.356 . S
C1981 C1975 1.363 . S
C1981 C1976 1.379 . S
C1981 N1979 1.356 . S
N1982 C1974 1.356 . S
N1982 H1988 0.984 . S
N1982 H1989 0.984 . S
N1983 C1976 1.356 . S
N1983 H1986 0.984 . S
N1983 H1987 0.985 . S
H1984 N1979 0.984 . S
H1985 N1979 0.985 . S
H1986 N1983 0.984 . S
H1987 N1983 0.985 . S
H1988 N1982 0.984 . S
H1989 N1982 0.984 . S
H1990 N1978 0.984 . S
H1991 N1978 0.985 . S
C1992 C1993 1.363 . S
C1992 C1998 1.379 . S
C1992 N2000 1.356 . S
C1993 C1992 1.363 . S
C1993 C1999 1.363 . S
C1994 C1995 1.363 . S
C1994 C1999 1.379 . S
C1994 N2001 1.356 . S
C1995 C1994 1.363 . S
C1995 C1998 1.363 . S
N1996 C1998 1.356 . S
N1996 H2008 0.984 . S
N1996 H2009 0.985 . S
N1997 C1999 1.356 . S
N1997 H2002 0.984 . S
N1997 H2003 0.985 . S
C1998 C1992 1.379 . S
C1998 C1995 1.363 . S
C1998 N1996 1.356 . S
C1999 C1993 1.363 . S
C1999 C1994 1.379 . S
C1999 N1997 1.356 . S
N2000 C1992 1.356 . S
N2000 H2006 0.984 . S
N2000 H2007 0.984 . S
N2001 C1994 1.356 . S
N2001 H2004 0.984 . S
N2001 H2005 0.985 . S
H2002 N1997 0.984 . S
H2003 N1997 0.985 . S
H2004 N2001 0.984 . S
H2005 N2001 0.985 . S
H2006 N2000 0.984 . S
H2007 N2000 0.984 . S
H2008 N1996 0.984 . S
H2009 N1996 0.985 . S
C2010 C2011 1.363 . S
C2010 C2016 1.379 . S
C2010 N2018 1.356 . S
C2011 C2010 1.363 . S
C2011 C2017 1.363 . S
C2012 C2013 1.363 . S
C2012 C2017 1.379 . S
C2012 N2019 1.356 . S
C2013 C2012 1.363 . S
C2013 C2016 1.363 . S
N2014 C2016 1.356 . S
N2014 H2026 0.984 . S
N2014 H2027 0.985 . S
N2015 C2017 1.356 . S
N2015 H2020 0.984 . S
N2015 H2021 0.985 . S
C2016 C2010 1.379 . S
C2016 C2013 1.363 . S
C2016 N2014 1.356 . S
C2017 C2011 1.363 . S
C2017 C2012 1.379 . S
C2017 N2015 1.356 . S
N2018 C2010 1.356 . S
N2018 H2024 0.984 . S
N2018 H2025 0.984 . S
N2019 C2012 1.356 . S
N2019 H2022 0.984 . S
N2019 H2023 0.985 . S
H2020 N2015 0.984 . S
H2021 N2015 0.985 . S
H2022 N2019 0.984 . S
H2023 N2019 0.985 . S
H2024 N2018 0.984 . S
H2025 N2018 0.984 . S
H2026 N2014 0.984 . S
H2027 N2014 0.985 . S
C2028 C2029 1.363 . S
C2028 C2034 1.379 . S
C2028 N2036 1.356 . S
C2029 C2028 1.363 . S
C2029 C2035 1.363 . S
C2030 C2031 1.363 . S
C2030 C2035 1.379 . S
C2030 N2037 1.356 . S
C2031 C2030 1.363 . S
C2031 C2034 1.363 . S
N2032 C2034 1.355 . S
N2032 H2044 0.986 1_455 S
N2032 H2045 0.984 . S
N2033 C2035 1.356 . S
N2033 H2038 0.984 . S
N2033 H2039 0.985 . S
C2034 C2028 1.379 . S
C2034 C2031 1.363 . S
C2034 N2032 1.355 . S
C2035 C2029 1.363 . S
C2035 C2030 1.379 . S
C2035 N2033 1.356 . S
N2036 C2028 1.356 . S
N2036 H2042 0.984 1_455 S
N2036 H2043 0.984 . S
N2037 C2030 1.356 . S
N2037 H2040 0.984 . S
N2037 H2041 0.985 . S
H2038 N2033 0.984 . S
H2039 N2033 0.985 . S
H2040 N2037 0.984 . S
H2041 N2037 0.985 . S
H2042 N2036 0.984 1_655 S
H2043 N2036 0.984 . S
H2044 N2032 0.986 1_655 S
H2045 N2032 0.984 . S
C2046 C2047 1.358 1_556 S
C2046 C2052 1.379 . S
C2046 N2054 1.356 . S
C2047 C2046 1.358 1_554 S
C2047 C2053 1.368 . S
C2048 C2049 1.363 . S
C2048 C2053 1.379 . S
C2048 N2055 1.356 . S
C2049 C2048 1.363 . S
C2049 C2052 1.363 1_554 S
N2050 C2052 1.356 . S
N2050 H2062 0.984 . S
N2050 H2063 0.985 . S
N2051 C2053 1.356 . S
N2051 H2056 0.984 . S
N2051 H2057 0.985 . S
C2052 C2046 1.379 . S
C2052 C2049 1.363 1_556 S
C2052 N2050 1.356 . S
C2053 C2047 1.368 . S
C2053 C2048 1.379 . S
C2053 N2051 1.356 . S
N2054 C2046 1.356 . S
N2054 H2060 0.984 . S
N2054 H2061 0.984 . S
N2055 C2048 1.356 . S
N2055 H2058 0.984 . S
N2055 H2059 0.985 . S
H2056 N2051 0.984 . S
H2057 N2051 0.985 . S
H2058 N2055 0.984 . S
H2059 N2055 0.985 . S
H2060 N2054 0.984 . S
H2061 N2054 0.984 . S
H2062 N2050 0.984 . S
H2063 N2050 0.985 . S
C2064 C2065 1.363 . S
C2064 C2070 1.379 . S
C2064 N2072 1.356 . S
C2065 C2064 1.363 . S
C2065 C2071 1.363 . S
C2066 C2067 1.363 . S
C2066 C2071 1.379 . S
C2066 N2073 1.356 . S
C2067 C2066 1.363 . S
C2067 C2070 1.363 . S
N2068 C2070 1.356 . S
N2068 H2080 0.984 . S
N2068 H2081 0.985 . S
N2069 C2071 1.356 . S
N2069 H2074 0.984 . S
N2069 H2075 0.985 . S
C2070 C2064 1.379 . S
C2070 C2067 1.363 . S
C2070 N2068 1.356 . S
C2071 C2065 1.363 . S
C2071 C2066 1.379 . S
C2071 N2069 1.356 . S
N2072 C2064 1.356 . S
N2072 H2078 0.984 . S
N2072 H2079 0.984 . S
N2073 C2066 1.356 . S
N2073 H2076 0.984 . S
N2073 H2077 0.985 . S
H2074 N2069 0.984 . S
H2075 N2069 0.985 . S
H2076 N2073 0.984 . S
H2077 N2073 0.985 . S
H2078 N2072 0.984 . S
H2079 N2072 0.984 . S
H2080 N2068 0.984 . S
H2081 N2068 0.985 . S
C2082 C2083 1.363 . S
C2082 C2088 1.379 . S
C2082 N2090 1.356 . S
C2083 C2082 1.363 . S
C2083 C2089 1.363 . S
C2084 C2085 1.363 . S
C2084 C2089 1.379 . S
C2084 N2091 1.356 . S
C2085 C2084 1.363 . S
C2085 C2088 1.363 . S
N2086 C2088 1.356 . S
N2086 H2098 0.984 . S
N2086 H2099 0.985 . S
N2087 C2089 1.356 . S
N2087 H2092 0.984 . S
N2087 H2093 0.985 . S
C2088 C2082 1.379 . S
C2088 C2085 1.363 . S
C2088 N2086 1.356 . S
C2089 C2083 1.363 . S
C2089 C2084 1.379 . S
C2089 N2087 1.356 . S
N2090 C2082 1.356 . S
N2090 H2096 0.984 . S
N2090 H2097 0.984 . S
N2091 C2084 1.356 . S
N2091 H2094 0.984 . S
N2091 H2095 0.985 . S
H2092 N2087 0.984 . S
H2093 N2087 0.985 . S
H2094 N2091 0.984 . S
H2095 N2091 0.985 . S
H2096 N2090 0.984 . S
H2097 N2090 0.984 . S
H2098 N2086 0.984 . S
H2099 N2086 0.985 . S
C2100 C2101 1.363 . S
C2100 C2106 1.379 . S
C2100 N2108 1.356 . S
C2101 C2100 1.363 . S
C2101 C2107 1.363 . S
C2102 C2103 1.363 . S
C2102 C2107 1.379 . S
C2102 N2109 1.356 1_545 S
C2103 C2102 1.363 . S
C2103 C2106 1.363 . S
N2104 C2106 1.356 . S
N2104 H2116 0.984 . S
N2104 H2117 0.985 . S
N2105 C2107 1.356 1_565 S
N2105 H2110 0.985 . S
N2105 H2111 0.985 . S
C2106 C2100 1.379 . S
C2106 C2103 1.363 . S
C2106 N2104 1.356 . S
C2107 C2101 1.363 . S
C2107 C2102 1.379 . S
C2107 N2105 1.356 1_545 S
N2108 C2100 1.356 . S
N2108 H2114 0.984 . S
N2108 H2115 0.984 . S
N2109 C2102 1.356 1_565 S
N2109 H2112 0.984 . S
N2109 H2113 0.985 . S
H2110 N2105 0.985 . S
H2111 N2105 0.985 . S
H2112 N2109 0.984 . S
H2113 N2109 0.985 . S
H2114 N2108 0.984 . S
H2115 N2108 0.984 . S
H2116 N2104 0.984 . S
H2117 N2104 0.985 . S
C2118 C2119 1.360 1_655 S
C2118 C2124 1.379 . S
C2118 N2126 1.356 . S
C2119 C2118 1.360 1_455 S
C2119 C2125 1.366 . S
C2120 C2121 1.363 . S
C2120 C2125 1.379 . S
C2120 N2127 1.356 . S
C2121 C2120 1.363 . S
C2121 C2124 1.363 1_455 S
N2122 C2124 1.356 . S
N2122 H2134 0.984 . S
N2122 H2135 0.985 . S
N2123 C2125 1.356 . S
N2123 H2128 0.984 . S
N2123 H2129 0.985 . S
C2124 C2118 1.379 . S
C2124 C2121 1.363 1_655 S
C2124 N2122 1.356 . S
C2125 C2119 1.366 . S
C2125 C2120 1.379 . S
C2125 N2123 1.356 . S
N2126 C2118 1.356 . S
N2126 H2132 0.984 . S
N2126 H2133 0.984 . S
N2127 C2120 1.356 . S
N2127 H2130 0.984 . S
N2127 H2131 0.985 . S
H2128 N2123 0.984 . S
H2129 N2123 0.985 . S
H2130 N2127 0.984 . S
H2131 N2127 0.985 . S
H2132 N2126 0.984 . S
H2133 N2126 0.984 . S
H2134 N2122 0.984 . S
H2135 N2122 0.985 . S
C2136 C2137 1.363 . S
C2136 C2142 1.379 . S
C2136 N2144 1.356 . S
C2137 C2136 1.363 . S
C2137 C2143 1.363 . S
C2138 C2139 1.363 . S
C2138 C2143 1.379 . S
C2138 N2145 1.356 . S
C2139 C2138 1.363 . S
C2139 C2142 1.363 . S
N2140 C2142 1.356 . S
N2140 H2152 0.984 . S
N2140 H2153 0.985 . S
N2141 C2143 1.356 . S
N2141 H2146 0.984 . S
N2141 H2147 0.985 . S
C2142 C2136 1.379 . S
C2142 C2139 1.363 . S
C2142 N2140 1.356 . S
C2143 C2137 1.363 . S
C2143 C2138 1.379 . S
C2143 N2141 1.356 . S
N2144 C2136 1.356 . S
N2144 H2150 0.984 . S
N2144 H2151 0.984 . S
N2145 C2138 1.356 . S
N2145 H2148 0.984 . S
N2145 H2149 0.985 . S
H2146 N2141 0.984 . S
H2147 N2141 0.985 . S
H2148 N2145 0.984 . S
H2149 N2145 0.985 . S
H2150 N2144 0.984 . S
H2151 N2144 0.984 . S
H2152 N2140 0.984 . S
H2153 N2140 0.985 . S
C2154 C2155 1.363 . S
C2154 C2160 1.379 . S
C2154 N2162 1.356 . S
C2155 C2154 1.363 . S
C2155 C2161 1.363 . S
C2156 C2157 1.363 . S
C2156 C2161 1.379 . S
C2156 N2163 1.356 . S
C2157 C2156 1.363 . S
C2157 C2160 1.363 . S
N2158 C2160 1.356 . S
N2158 H2170 0.984 . S
N2158 H2171 0.985 . S
N2159 C2161 1.356 . S
N2159 H2164 0.984 . S
N2159 H2165 0.985 . S
C2160 C2154 1.379 . S
C2160 C2157 1.363 . S
C2160 N2158 1.356 . S
C2161 C2155 1.363 . S
C2161 C2156 1.379 . S
C2161 N2159 1.356 . S
N2162 C2154 1.356 . S
N2162 H2168 0.984 . S
N2162 H2169 0.984 . S
N2163 C2156 1.356 . S
N2163 H2166 0.984 . S
N2163 H2167 0.985 . S
H2164 N2159 0.984 . S
H2165 N2159 0.985 . S
H2166 N2163 0.984 . S
H2167 N2163 0.985 . S
H2168 N2162 0.984 . S
H2169 N2162 0.984 . S
H2170 N2158 0.984 . S
H2171 N2158 0.985 . S
C2172 C2173 1.363 1_545 S
C2172 C2178 1.379 . S
C2172 N2180 1.356 . S
C2173 C2172 1.363 1_565 S
C2173 C2179 1.363 . S
C2174 C2175 1.363 . S
C2174 C2179 1.379 . S
C2174 N2181 1.356 . S
C2175 C2174 1.363 . S
C2175 C2178 1.363 1_565 S
N2176 C2178 1.356 . S
N2176 H2188 0.984 . S
N2176 H2189 0.985 . S
N2177 C2179 1.356 . S
N2177 H2182 0.984 . S
N2177 H2183 0.985 . S
C2178 C2172 1.379 . S
C2178 C2175 1.363 1_545 S
C2178 N2176 1.356 . S
C2179 C2173 1.363 . S
C2179 C2174 1.379 . S
C2179 N2177 1.356 . S
N2180 C2172 1.356 . S
N2180 H2186 0.984 . S
N2180 H2187 0.984 . S
N2181 C2174 1.356 . S
N2181 H2184 0.984 . S
N2181 H2185 0.985 . S
H2182 N2177 0.984 . S
H2183 N2177 0.985 . S
H2184 N2181 0.984 . S
H2185 N2181 0.985 . S
H2186 N2180 0.984 . S
H2187 N2180 0.984 . S
H2188 N2176 0.984 . S
H2189 N2176 0.985 . S
C2190 C2191 1.363 1_565 S
C2190 C2196 1.379 . S
C2190 N2198 1.356 . S
C2191 C2190 1.363 1_545 S
C2191 C2197 1.363 . S
C2192 C2193 1.363 . S
C2192 C2197 1.379 . S
C2192 N2199 1.356 . S
C2193 C2192 1.363 . S
C2193 C2196 1.363 1_545 S
N2194 C2196 1.356 . S
N2194 H2206 0.984 . S
N2194 H2207 0.985 . S
N2195 C2197 1.356 . S
N2195 H2200 0.984 . S
N2195 H2201 0.985 . S
C2196 C2190 1.379 . S
C2196 C2193 1.363 1_565 S
C2196 N2194 1.356 . S
C2197 C2191 1.363 . S
C2197 C2192 1.379 . S
C2197 N2195 1.356 . S
N2198 C2190 1.356 . S
N2198 H2204 0.984 . S
N2198 H2205 0.984 . S
N2199 C2192 1.356 . S
N2199 H2202 0.984 . S
N2199 H2203 0.985 . S
H2200 N2195 0.984 . S
H2201 N2195 0.985 . S
H2202 N2199 0.984 . S
H2203 N2199 0.985 . S
H2204 N2198 0.984 . S
H2205 N2198 0.984 . S
H2206 N2194 0.984 . S
H2207 N2194 0.985 . S
C2208 C2209 1.363 . S
C2208 C2214 1.379 . S
C2208 N2216 1.356 . S
C2209 C2208 1.363 . S
C2209 C2215 1.363 . S
C2210 C2211 1.363 . S
C2210 C2215 1.379 . S
C2210 N2217 1.356 . S
C2211 C2210 1.363 . S
C2211 C2214 1.363 . S
N2212 C2214 1.356 . S
N2212 H2224 0.984 . S
N2212 H2225 0.985 . S
N2213 C2215 1.356 . S
N2213 H2218 0.984 . S
N2213 H2219 0.985 . S
C2214 C2208 1.379 . S
C2214 C2211 1.363 . S
C2214 N2212 1.356 . S
C2215 C2209 1.363 . S
C2215 C2210 1.379 . S
C2215 N2213 1.356 . S
N2216 C2208 1.356 . S
N2216 H2222 0.984 . S
N2216 H2223 0.984 . S
N2217 C2210 1.356 . S
N2217 H2220 0.984 . S
N2217 H2221 0.985 . S
H2218 N2213 0.984 . S
H2219 N2213 0.985 . S
H2220 N2217 0.984 . S
H2221 N2217 0.985 . S
H2222 N2216 0.984 . S
H2223 N2216 0.984 . S
H2224 N2212 0.984 . S
H2225 N2212 0.985 . S
C2226 C2227 1.363 1_556 S
C2226 C2232 1.379 . S
C2226 N2234 1.356 . S
C2227 C2226 1.363 1_554 S
C2227 C2233 1.363 . S
C2228 C2229 1.363 . S
C2228 C2233 1.379 . S
C2228 N2235 1.356 . S
C2229 C2228 1.363 . S
C2229 C2232 1.363 1_554 S
N2230 C2232 1.356 . S
N2230 H2242 0.984 . S
N2230 H2243 0.985 . S
N2231 C2233 1.356 . S
N2231 H2236 0.984 . S
N2231 H2237 0.985 . S
C2232 C2226 1.379 . S
C2232 C2229 1.363 1_556 S
C2232 N2230 1.356 . S
C2233 C2227 1.363 . S
C2233 C2228 1.379 . S
C2233 N2231 1.356 . S
N2234 C2226 1.356 . S
N2234 H2240 0.984 . S
N2234 H2241 0.984 . S
N2235 C2228 1.356 . S
N2235 H2238 0.984 . S
N2235 H2239 0.985 . S
H2236 N2231 0.984 . S
H2237 N2231 0.985 . S
H2238 N2235 0.984 . S
H2239 N2235 0.985 . S
H2240 N2234 0.984 . S
H2241 N2234 0.984 . S
H2242 N2230 0.984 . S
H2243 N2230 0.985 . S
C2244 C2245 1.363 . S
C2244 C2250 1.379 . S
C2244 N2252 1.356 . S
C2245 C2244 1.363 . S
C2245 C2251 1.363 . S
C2246 C2247 1.363 . S
C2246 C2251 1.379 . S
C2246 N2253 1.356 . S
C2247 C2246 1.363 . S
C2247 C2250 1.363 . S
N2248 C2250 1.356 . S
N2248 H2260 0.984 . S
N2248 H2261 0.985 . S
N2249 C2251 1.356 . S
N2249 H2254 0.984 . S
N2249 H2255 0.985 . S
C2250 C2244 1.379 . S
C2250 C2247 1.363 . S
C2250 N2248 1.356 . S
C2251 C2245 1.363 . S
C2251 C2246 1.379 . S
C2251 N2249 1.356 . S
N2252 C2244 1.356 . S
N2252 H2258 0.984 . S
N2252 H2259 0.984 . S
N2253 C2246 1.356 . S
N2253 H2256 0.984 . S
N2253 H2257 0.985 . S
H2254 N2249 0.984 . S
H2255 N2249 0.985 . S
H2256 N2253 0.984 . S
H2257 N2253 0.985 . S
H2258 N2252 0.984 . S
H2259 N2252 0.984 . S
H2260 N2248 0.984 . S
H2261 N2248 0.985 . S
C2262 C2263 1.363 . S
C2262 C2268 1.379 . S
C2262 N2270 1.356 . S
C2263 C2262 1.363 . S
C2263 C2269 1.363 1_556 S
C2264 C2265 1.363 1_554 S
C2264 C2269 1.379 . S
C2264 N2271 1.356 . S
C2265 C2264 1.363 1_556 S
C2265 C2268 1.363 . S
N2266 C2268 1.356 . S
N2266 H2278 0.984 . S
N2266 H2279 0.985 . S
N2267 C2269 1.356 . S
N2267 H2272 0.984 . S
N2267 H2273 0.985 . S
C2268 C2262 1.379 . S
C2268 C2265 1.363 . S
C2268 N2266 1.356 . S
C2269 C2263 1.363 1_554 S
C2269 C2264 1.379 . S
C2269 N2267 1.356 . S
N2270 C2262 1.356 . S
N2270 H2276 0.984 . S
N2270 H2277 0.984 . S
N2271 C2264 1.356 . S
N2271 H2274 0.984 . S
N2271 H2275 0.985 . S
H2272 N2267 0.984 . S
H2273 N2267 0.985 . S
H2274 N2271 0.984 . S
H2275 N2271 0.985 . S
H2276 N2270 0.984 . S
H2277 N2270 0.984 . S
H2278 N2266 0.984 . S
H2279 N2266 0.985 . S
C2280 C2281 1.363 . S
C2280 C2286 1.379 . S
C2280 N2288 1.356 . S
C2281 C2280 1.363 . S
C2281 C2287 1.363 . S
C2282 C2283 1.363 . S
C2282 C2287 1.379 . S
C2282 N2289 1.356 . S
C2283 C2282 1.363 . S
C2283 C2286 1.363 . S
N2284 C2286 1.356 . S
N2284 H2296 0.984 . S
N2284 H2297 0.985 . S
N2285 C2287 1.356 . S
N2285 H2290 0.984 . S
N2285 H2291 0.985 . S
C2286 C2280 1.379 . S
C2286 C2283 1.363 . S
C2286 N2284 1.356 . S
C2287 C2281 1.363 . S
C2287 C2282 1.379 . S
C2287 N2285 1.356 . S
N2288 C2280 1.356 . S
N2288 H2294 0.984 . S
N2288 H2295 0.984 . S
N2289 C2282 1.356 . S
N2289 H2292 0.984 . S
N2289 H2293 0.985 . S
H2290 N2285 0.984 . S
H2291 N2285 0.985 . S
H2292 N2289 0.984 . S
H2293 N2289 0.985 . S
H2294 N2288 0.984 . S
H2295 N2288 0.984 . S
H2296 N2284 0.984 . S
H2297 N2284 0.985 . S
C2298 C2299 1.363 . S
C2298 C2304 1.379 . S
C2298 N2306 1.356 . S
C2299 C2298 1.363 . S
C2299 C2305 1.363 . S
C2300 C2301 1.363 . S
C2300 C2305 1.379 . S
C2300 N2307 1.356 1_455 S
C2301 C2300 1.363 . S
C2301 C2304 1.363 . S
N2302 C2304 1.356 . S
N2302 H2314 0.984 . S
N2302 H2315 0.985 . S
N2303 C2305 1.356 . S
N2303 H2308 0.984 . S
N2303 H2309 0.985 1_455 S
C2304 C2298 1.379 . S
C2304 C2301 1.363 . S
C2304 N2302 1.356 . S
C2305 C2299 1.363 . S
C2305 C2300 1.379 . S
C2305 N2303 1.356 . S
N2306 C2298 1.356 . S
N2306 H2312 0.984 . S
N2306 H2313 0.984 . S
N2307 C2300 1.356 1_655 S
N2307 H2310 0.984 . S
N2307 H2311 0.985 . S
H2308 N2303 0.984 . S
H2309 N2303 0.985 1_655 S
H2310 N2307 0.984 . S
H2311 N2307 0.985 . S
H2312 N2306 0.984 . S
H2313 N2306 0.984 . S
H2314 N2302 0.984 . S
H2315 N2302 0.985 . S
C2316 C2317 1.363 . S
C2316 C2322 1.379 . S
C2316 N2324 1.356 . S
C2317 C2316 1.363 . S
C2317 C2323 1.363 . S
C2318 C2319 1.363 . S
C2318 C2323 1.379 . S
C2318 N2325 1.356 . S
C2319 C2318 1.363 . S
C2319 C2322 1.363 . S
N2320 C2322 1.356 . S
N2320 H2332 0.984 . S
N2320 H2333 0.985 . S
N2321 C2323 1.356 . S
N2321 H2326 0.984 . S
N2321 H2327 0.985 . S
C2322 C2316 1.379 . S
C2322 C2319 1.363 . S
C2322 N2320 1.356 . S
C2323 C2317 1.363 . S
C2323 C2318 1.379 . S
C2323 N2321 1.356 . S
N2324 C2316 1.356 . S
N2324 H2330 0.984 . S
N2324 H2331 0.984 . S
N2325 C2318 1.356 . S
N2325 H2328 0.984 . S
N2325 H2329 0.985 . S
H2326 N2321 0.984 . S
H2327 N2321 0.985 . S
H2328 N2325 0.984 . S
H2329 N2325 0.985 . S
H2330 N2324 0.984 . S
H2331 N2324 0.984 . S
H2332 N2320 0.984 . S
H2333 N2320 0.985 . S
C2334 C2335 1.363 . S
C2334 C2340 1.379 . S
C2334 N2342 1.356 . S
C2335 C2334 1.363 . S
C2335 C2341 1.363 1_655 S
C2336 C2337 1.363 1_455 S
C2336 C2341 1.379 . S
C2336 N2343 1.356 . S
C2337 C2336 1.363 1_655 S
C2337 C2340 1.363 . S
N2338 C2340 1.356 . S
N2338 H2350 0.984 . S
N2338 H2351 0.985 . S
N2339 C2341 1.356 . S
N2339 H2344 0.984 . S
N2339 H2345 0.985 . S
C2340 C2334 1.379 . S
C2340 C2337 1.363 . S
C2340 N2338 1.356 . S
C2341 C2335 1.363 1_455 S
C2341 C2336 1.379 . S
C2341 N2339 1.356 . S
N2342 C2334 1.356 . S
N2342 H2348 0.984 . S
N2342 H2349 0.984 . S
N2343 C2336 1.356 . S
N2343 H2346 0.984 . S
N2343 H2347 0.985 . S
H2344 N2339 0.984 . S
H2345 N2339 0.985 . S
H2346 N2343 0.984 . S
H2347 N2343 0.985 . S
H2348 N2342 0.984 . S
H2349 N2342 0.984 . S
H2350 N2338 0.984 . S
H2351 N2338 0.985 . S
C2352 C2353 1.363 . S
C2352 C2358 1.379 . S
C2352 N2360 1.356 . S
C2353 C2352 1.363 . S
C2353 C2359 1.363 . S
C2354 C2355 1.363 . S
C2354 C2359 1.379 . S
C2354 N2361 1.356 . S
C2355 C2354 1.363 . S
C2355 C2358 1.363 . S
N2356 C2358 1.356 . S
N2356 H2368 0.984 . S
N2356 H2369 0.985 . S
N2357 C2359 1.356 . S
N2357 H2362 0.984 . S
N2357 H2363 0.985 . S
C2358 C2352 1.379 . S
C2358 C2355 1.363 . S
C2358 N2356 1.356 . S
C2359 C2353 1.363 . S
C2359 C2354 1.379 . S
C2359 N2357 1.356 . S
N2360 C2352 1.356 . S
N2360 H2366 0.984 . S
N2360 H2367 0.984 . S
N2361 C2354 1.356 . S
N2361 H2364 0.984 . S
N2361 H2365 0.985 . S
H2362 N2357 0.984 . S
H2363 N2357 0.985 . S
H2364 N2361 0.984 . S
H2365 N2361 0.985 . S
H2366 N2360 0.984 . S
H2367 N2360 0.984 . S
H2368 N2356 0.984 . S
H2369 N2356 0.985 . S
C2370 C2371 1.363 . S
C2370 C2376 1.379 . S
C2370 N2378 1.356 . S
C2371 C2370 1.363 . S
C2371 C2377 1.363 . S
C2372 C2373 1.363 . S
C2372 C2377 1.379 . S
C2372 N2379 1.356 . S
C2373 C2372 1.363 . S
C2373 C2376 1.363 . S
N2374 C2376 1.356 . S
N2374 H2386 0.984 . S
N2374 H2387 0.985 . S
N2375 C2377 1.356 . S
N2375 H2380 0.984 . S
N2375 H2381 0.985 . S
C2376 C2370 1.379 . S
C2376 C2373 1.363 . S
C2376 N2374 1.356 . S
C2377 C2371 1.363 . S
C2377 C2372 1.379 . S
C2377 N2375 1.356 . S
N2378 C2370 1.356 . S
N2378 H2384 0.984 . S
N2378 H2385 0.984 . S
N2379 C2372 1.356 . S
N2379 H2382 0.984 . S
N2379 H2383 0.985 . S
H2380 N2375 0.984 . S
H2381 N2375 0.985 . S
H2382 N2379 0.984 . S
H2383 N2379 0.985 . S
H2384 N2378 0.984 . S
H2385 N2378 0.984 . S
H2386 N2374 0.984 . S
H2387 N2374 0.985 . S
C2388 C2389 1.363 1_565 S
C2388 C2394 1.379 . S
C2388 N2396 1.356 . S
C2389 C2388 1.363 1_545 S
C2389 C2395 1.363 . S
C2390 C2391 1.363 . S
C2390 C2395 1.379 . S
C2390 N2397 1.356 . S
C2391 C2390 1.363 . S
C2391 C2394 1.363 1_545 S
N2392 C2394 1.356 . S
N2392 H2404 0.984 . S
N2392 H2405 0.985 . S
N2393 C2395 1.356 . S
N2393 H2398 0.984 . S
N2393 H2399 0.985 . S
C2394 C2388 1.379 . S
C2394 C2391 1.363 1_565 S
C2394 N2392 1.356 . S
C2395 C2389 1.363 . S
C2395 C2390 1.379 . S
C2395 N2393 1.356 . S
N2396 C2388 1.356 . S
N2396 H2402 0.984 . S
N2396 H2403 0.984 . S
N2397 C2390 1.356 . S
N2397 H2400 0.984 . S
N2397 H2401 0.985 . S
H2398 N2393 0.984 . S
H2399 N2393 0.985 . S
H2400 N2397 0.984 . S
H2401 N2397 0.985 . S
H2402 N2396 0.984 . S
H2403 N2396 0.984 . S
H2404 N2392 0.984 . S
H2405 N2392 0.985 . S
C2406 C2407 1.363 . S
C2406 C2412 1.379 . S
C2406 N2414 1.356 . S
C2407 C2406 1.363 . S
C2407 C2413 1.363 . S
C2408 C2409 1.363 . S
C2408 C2413 1.379 . S
C2408 N2415 1.356 . S
C2409 C2408 1.363 . S
C2409 C2412 1.363 . S
N2410 C2412 1.356 1_545 S
N2410 H2422 0.984 . S
N2410 H2423 0.985 . S
N2411 C2413 1.356 . S
N2411 H2416 0.984 . S
N2411 H2417 0.985 . S
C2412 C2406 1.379 . S
C2412 C2409 1.363 . S
C2412 N2410 1.356 1_565 S
C2413 C2407 1.363 . S
C2413 C2408 1.379 . S
C2413 N2411 1.356 . S
N2414 C2406 1.356 . S
N2414 H2420 0.984 . S
N2414 H2421 0.984 . S
N2415 C2408 1.356 . S
N2415 H2418 0.984 . S
N2415 H2419 0.985 . S
H2416 N2411 0.984 . S
H2417 N2411 0.985 . S
H2418 N2415 0.984 . S
H2419 N2415 0.985 . S
H2420 N2414 0.984 . S
H2421 N2414 0.984 . S
H2422 N2410 0.984 . S
H2423 N2410 0.985 . S
C2424 C2425 1.363 . S
C2424 C2430 1.379 . S
C2424 N2432 1.356 . S
C2425 C2424 1.363 . S
C2425 C2431 1.363 . S
C2426 C2427 1.363 . S
C2426 C2431 1.379 . S
C2426 N2433 1.356 . S
C2427 C2426 1.363 . S
C2427 C2430 1.363 . S
N2428 C2430 1.356 . S
N2428 H2440 0.984 . S
N2428 H2441 0.985 . S
N2429 C2431 1.356 . S
N2429 H2434 0.984 . S
N2429 H2435 0.985 . S
C2430 C2424 1.379 . S
C2430 C2427 1.363 . S
C2430 N2428 1.356 . S
C2431 C2425 1.363 . S
C2431 C2426 1.379 . S
C2431 N2429 1.356 . S
N2432 C2424 1.356 . S
N2432 H2438 0.984 . S
N2432 H2439 0.984 . S
N2433 C2426 1.356 . S
N2433 H2436 0.984 . S
N2433 H2437 0.985 . S
H2434 N2429 0.984 . S
H2435 N2429 0.985 . S
H2436 N2433 0.984 . S
H2437 N2433 0.985 . S
H2438 N2432 0.984 . S
H2439 N2432 0.984 . S
H2440 N2428 0.984 . S
H2441 N2428 0.985 . S
C2442 C2443 1.363 . S
C2442 C2448 1.379 1_556 S
C2442 N2450 1.356 1_556 S
C2443 C2442 1.363 . S
C2443 C2449 1.363 . S
C2444 C2445 1.363 . S
C2444 C2449 1.379 . S
C2444 N2451 1.356 . S
C2445 C2444 1.363 . S
C2445 C2448 1.363 1_556 S
N2446 C2448 1.356 . S
N2446 H2458 0.984 . S
N2446 H2459 0.985 . S
N2447 C2449 1.356 . S
N2447 H2452 0.984 . S
N2447 H2453 0.985 . S
C2448 C2442 1.379 1_554 S
C2448 C2445 1.363 1_554 S
C2448 N2446 1.356 . S
C2449 C2443 1.363 . S
C2449 C2444 1.379 . S
C2449 N2447 1.356 . S
N2450 C2442 1.356 1_554 S
N2450 H2456 0.984 . S
N2450 H2457 0.972 1_554 S
N2451 C2444 1.356 . S
N2451 H2454 0.984 . S
N2451 H2455 0.985 . S
H2452 N2447 0.984 . S
H2453 N2447 0.985 . S
H2454 N2451 0.984 . S
H2455 N2451 0.985 . S
H2456 N2450 0.984 . S
H2457 N2450 0.972 1_556 S
H2458 N2446 0.984 . S
H2459 N2446 0.985 . S
C2460 C2461 1.363 . S
C2460 C2466 1.379 . S
C2460 N2468 1.356 . S
C2461 C2460 1.363 . S
C2461 C2467 1.363 . S
C2462 C2463 1.363 . S
C2462 C2467 1.379 . S
C2462 N2469 1.356 . S
C2463 C2462 1.363 . S
C2463 C2466 1.363 . S
N2464 C2466 1.356 . S
N2464 H2476 0.984 . S
N2464 H2477 0.985 . S
N2465 C2467 1.356 . S
N2465 H2470 0.984 . S
N2465 H2471 0.985 . S
C2466 C2460 1.379 . S
C2466 C2463 1.363 . S
C2466 N2464 1.356 . S
C2467 C2461 1.363 . S
C2467 C2462 1.379 . S
C2467 N2465 1.356 . S
N2468 C2460 1.356 . S
N2468 H2474 0.984 . S
N2468 H2475 0.984 . S
N2469 C2462 1.356 . S
N2469 H2472 0.984 . S
N2469 H2473 0.985 . S
H2470 N2465 0.984 . S
H2471 N2465 0.985 . S
H2472 N2469 0.984 . S
H2473 N2469 0.985 . S
H2474 N2468 0.984 . S
H2475 N2468 0.984 . S
H2476 N2464 0.984 . S
H2477 N2464 0.985 . S
C2478 C2479 1.363 . S
C2478 C2484 1.379 . S
C2478 N2486 1.356 . S
C2479 C2478 1.363 . S
C2479 C2485 1.363 1_554 S
C2480 C2481 1.363 1_556 S
C2480 C2485 1.379 . S
C2480 N2487 1.356 . S
C2481 C2480 1.363 1_554 S
C2481 C2484 1.363 . S
N2482 C2484 1.356 . S
N2482 H2494 0.984 . S
N2482 H2495 0.985 . S
N2483 C2485 1.356 . S
N2483 H2488 0.984 . S
N2483 H2489 0.985 . S
C2484 C2478 1.379 . S
C2484 C2481 1.363 . S
C2484 N2482 1.356 . S
C2485 C2479 1.363 1_556 S
C2485 C2480 1.379 . S
C2485 N2483 1.356 . S
N2486 C2478 1.356 . S
N2486 H2492 0.984 . S
N2486 H2493 0.984 . S
N2487 C2480 1.356 . S
N2487 H2490 0.984 . S
N2487 H2491 0.985 . S
H2488 N2483 0.984 . S
H2489 N2483 0.985 . S
H2490 N2487 0.984 . S
H2491 N2487 0.985 . S
H2492 N2486 0.984 . S
H2493 N2486 0.984 . S
H2494 N2482 0.984 . S
H2495 N2482 0.985 . S
C2496 C2497 1.363 . S
C2496 C2502 1.379 . S
C2496 N2504 1.356 . S
C2497 C2496 1.363 . S
C2497 C2503 1.363 . S
C2498 C2499 1.363 . S
C2498 C2503 1.379 . S
C2498 N2505 1.356 . S
C2499 C2498 1.363 . S
C2499 C2502 1.363 . S
N2500 C2502 1.356 . S
N2500 H2512 0.984 . S
N2500 H2513 0.985 . S
N2501 C2503 1.356 . S
N2501 H2506 0.984 . S
N2501 H2507 0.985 . S
C2502 C2496 1.379 . S
C2502 C2499 1.363 . S
C2502 N2500 1.356 . S
C2503 C2497 1.363 . S
C2503 C2498 1.379 . S
C2503 N2501 1.356 . S
N2504 C2496 1.356 . S
N2504 H2510 0.984 . S
N2504 H2511 0.984 . S
N2505 C2498 1.356 . S
N2505 H2508 0.984 . S
N2505 H2509 0.985 . S
H2506 N2501 0.984 . S
H2507 N2501 0.985 . S
H2508 N2505 0.984 . S
H2509 N2505 0.985 . S
H2510 N2504 0.984 . S
H2511 N2504 0.984 . S
H2512 N2500 0.984 . S
H2513 N2500 0.985 . S
C2514 C2515 1.363 . S
C2514 C2520 1.379 . S
C2514 N2522 1.356 . S
C2515 C2514 1.363 . S
C2515 C2521 1.363 . S
C2516 C2517 1.375 . S
C2516 C2521 1.382 . S
C2516 N2523 1.344 1_655 S
C2517 C2516 1.375 . S
C2517 C2520 1.363 . S
N2518 C2520 1.356 . S
N2518 H2530 0.984 . S
N2518 H2531 0.985 . S
N2519 C2521 1.349 1_455 S
N2519 H2524 0.979 1_455 S
N2519 H2525 0.998 . S
C2520 C2514 1.379 . S
C2520 C2517 1.363 . S
C2520 N2518 1.356 . S
C2521 C2515 1.363 . S
C2521 C2516 1.382 . S
C2521 N2519 1.349 1_655 S
N2522 C2514 1.356 . S
N2522 H2528 0.984 . S
N2522 H2529 0.984 . S
N2523 C2516 1.344 1_455 S
N2523 H2526 0.984 . S
N2523 H2527 0.985 . S
H2524 N2519 0.979 1_655 S
H2525 N2519 0.998 . S
H2526 N2523 0.984 . S
H2527 N2523 0.985 . S
H2528 N2522 0.984 . S
H2529 N2522 0.984 . S
H2530 N2518 0.984 . S
H2531 N2518 0.985 . S
C2532 C2533 1.363 . S
C2532 C2538 1.379 . S
C2532 N2540 1.356 . S
C2533 C2532 1.363 . S
C2533 C2539 1.363 . S
C2534 C2535 1.363 . S
C2534 C2539 1.379 . S
C2534 N2541 1.356 . S
C2535 C2534 1.363 . S
C2535 C2538 1.363 . S
N2536 C2538 1.356 . S
N2536 H2548 0.984 . S
N2536 H2549 0.985 . S
N2537 C2539 1.356 . S
N2537 H2542 0.984 . S
N2537 H2543 0.985 . S
C2538 C2532 1.379 . S
C2538 C2535 1.363 . S
C2538 N2536 1.356 . S
C2539 C2533 1.363 . S
C2539 C2534 1.379 . S
C2539 N2537 1.356 . S
N2540 C2532 1.356 . S
N2540 H2546 0.984 . S
N2540 H2547 0.984 . S
N2541 C2534 1.356 . S
N2541 H2544 0.984 . S
N2541 H2545 0.985 . S
H2542 N2537 0.984 . S
H2543 N2537 0.985 . S
H2544 N2541 0.984 . S
H2545 N2541 0.985 . S
H2546 N2540 0.984 . S
H2547 N2540 0.984 . S
H2548 N2536 0.984 . S
H2549 N2536 0.985 . S
C2550 C2551 1.363 . S
C2550 C2556 1.379 . S
C2550 N2558 1.356 . S
C2551 C2550 1.363 . S
C2551 C2557 1.363 1_455 S
C2552 C2553 1.363 . S
C2552 C2557 1.379 1_455 S
C2552 N2559 1.356 . S
C2553 C2552 1.363 . S
C2553 C2556 1.363 . S
N2554 C2556 1.356 . S
N2554 H2566 0.984 . S
N2554 H2567 0.985 . S
N2555 C2557 1.356 . S
N2555 H2560 0.984 . S
N2555 H2561 0.985 . S
C2556 C2550 1.379 . S
C2556 C2553 1.363 . S
C2556 N2554 1.356 . S
C2557 C2551 1.363 1_655 S
C2557 C2552 1.379 1_655 S
C2557 N2555 1.356 . S
N2558 C2550 1.356 . S
N2558 H2564 0.984 . S
N2558 H2565 0.984 . S
N2559 C2552 1.356 . S
N2559 H2562 0.984 . S
N2559 H2563 0.985 1_455 S
H2560 N2555 0.984 . S
H2561 N2555 0.985 . S
H2562 N2559 0.984 . S
H2563 N2559 0.985 1_655 S
H2564 N2558 0.984 . S
H2565 N2558 0.984 . S
H2566 N2554 0.984 . S
H2567 N2554 0.985 . S
C1275 N1260 1.685 . S
C1273 C15 1.681 . S
C1293 N1221 1.813 . S
C1291 C55 1.659 . S
C1311 N1247 0.914 . S
C1309 C95 0.941 . S
C1329 N1234 1.602 . S
C1327 C135 1.591 1_455 S
C1347 N1143 1.685 . S
C1345 C175 1.681 . S
C1363 C215 1.591 1_545 S
C1365 N1156 1.602 . S
C1383 N1117 1.813 . S
C1381 C255 1.659 . S
C1399 C295 0.941 . S
C1401 N1130 0.914 . S
C1419 N1208 1.685 . S
C1417 C335 1.681 . S
C1435 C375 1.591 1_554 S
C1437 N1182 1.602 . S
C1453 C415 1.659 . S
C1455 N1169 1.813 . S
C1473 N1195 0.914 . S
C1471 C455 0.941 . S
C1491 N1104 1.697 . S
C1489 C495 1.677 . S
C1507 C535 1.643 . S
C1509 N1065 1.816 . S
C1527 N1091 0.912 . S
C1525 C575 0.943 1_545 S
C1543 C615 1.590 1_655 S
C1545 N1078 1.643 . S
C1563 N987 1.697 . S
C1561 C655 1.677 . S
C1581 N1000 1.643 . S
C1579 C695 1.590 1_565 S
C1597 C735 1.643 . S
C1599 N961 1.816 . S
C1615 C775 0.943 1_554 S
C1617 N974 0.912 . S
C1633 C815 1.672 . S
C1635 N1052 1.702 . S
C1651 C855 1.590 1_556 S
C1653 N1026 1.643 . S
C1671 N1013 1.816 . S
C1669 C895 1.643 . S
C1687 C935 0.943 1_455 S
C1689 N1039 0.912 . S
C1707 N965 1.685 . S
C1705 C21 1.683 . S
C1725 N978 2.065 . S
C1723 C61 2.025 . S
C1741 C101 1.103 . S
C1743 N991 1.117 1_565 S
C1759 C141 1.169 . S
C1761 N1004 1.159 . S
C1779 N1017 1.685 . S
C1777 C181 1.683 . S
C1795 C221 1.169 . S
C1797 N1030 1.159 . S
C1815 N1043 2.065 . S
C1813 C261 2.025 . S
C1833 N1056 1.117 1_556 S
C1831 C301 1.103 . S
C1851 N1069 1.685 . S
C1849 C341 1.683 . S
C1867 C381 1.169 . S
C1869 N1082 1.159 . S
C1885 C421 2.026 . S
C1887 N1095 2.065 . S
C1903 C461 1.103 . S
C1905 N1108 1.117 1_655 S
C1921 C501 1.615 . S
C1923 N1121 1.684 . S
C1939 C541 1.822 . S
C1941 N1134 2.057 . S
C1957 C581 1.107 1_545 S
C1959 N1147 1.119 1_545 S
C1975 C621 1.133 . S
C1977 N1160 1.157 . S
C1993 C661 1.615 . S
C1995 N1173 1.684 . S
C2013 N1186 1.162 . S
C2011 C701 1.127 . S
C2031 N1199 2.057 . S
C2029 C741 1.820 . S
C2049 N1212 1.119 1_554 S
C2047 C781 1.107 1_554 S
C2067 N1225 1.684 . S
C2065 C821 1.615 . S
C2083 C861 1.133 . S
C2085 N1238 1.157 . S
C2101 C901 1.822 . S
C2103 N1251 2.057 . S
C2119 C941 1.107 1_455 S
C2121 N1264 1.119 1_455 S
C2137 C2 1.651 . S
C2139 N1066 1.652 . S
C2157 N1105 1.946 . S
C2155 C42 1.906 . S
C2173 C82 1.549 . S
C2175 N1079 1.540 . S
C2193 N1092 1.760 . S
C2191 C122 1.700 . S
C2209 C162 1.651 . S
C2211 N962 1.652 . S
C2227 C202 1.700 . S
C2229 N975 1.760 . S
C2245 C242 1.910 . S
C2247 N988 1.943 . S
C2263 C282 1.549 . S
C2265 N1001 1.540 . S
C2283 N1014 1.652 . S
C2281 C322 1.651 . S
C2301 N1040 1.760 . S
C2299 C362 1.700 . S
C2317 C402 1.910 . S
C2319 N1053 1.943 . S
C2335 C442 1.549 . S
C2337 N1027 1.540 . S
C2355 N1222 1.656 . S
C2353 C482 1.610 . S
C2373 N1261 1.936 . S
C2371 C522 1.773 . S
C2389 C562 1.579 1_545 S
C2391 N1235 1.531 . S
C2409 N1248 1.766 . S
C2407 C602 1.671 . S
C2425 C642 1.610 . S
C2427 N1118 1.656 . S
C2443 C682 1.671 . S
C2445 N1131 1.766 . S
C2461 C722 1.777 . S
C2463 N1144 1.932 . S
C2481 N1157 1.531 . S
C2479 C762 1.579 1_554 S
C2499 N1170 1.656 . S
C2497 C802 1.610 . S
C2517 N1196 1.766 . S
C2515 C842 1.671 . S
C2533 C882 1.777 . S
C2535 N1209 1.932 . S
C2553 N1183 1.531 . S
C2551 C922 1.579 1_455 S
