# Generated by pormake.
# Topology apo, (3,6)-cn, num edge types: 1
# Building blocks:
#     Node 0, Type 0, BuildingBlock: VETTIZ_charged_linker_0, # of connection points: 3
#     Node 1, Type 0, BuildingBlock: VETTIZ_charged_linker_0, # of connection points: 3
#     Node 2, Type 0, BuildingBlock: VETTIZ_charged_linker_0, # of connection points: 3
#     Node 3, Type 0, BuildingBlock: VETTIZ_charged_linker_0, # of connection points: 3
#     Node 4, Type 0, BuildingBlock: VETTIZ_charged_linker_0, # of connection points: 3
#     Node 5, Type 0, BuildingBlock: VETTIZ_charged_linker_0, # of connection points: 3
#     Node 6, Type 0, BuildingBlock: VETTIZ_charged_linker_0, # of connection points: 3
#     Node 7, Type 0, BuildingBlock: VETTIZ_charged_linker_0, # of connection points: 3
#     Node 8, Type 1, BuildingBlock: MIDCAF_clean_sbu_0, # of connection points: 6
#     Node 9, Type 1, BuildingBlock: MIDCAF_clean_sbu_0, # of connection points: 6
#     Node 10, Type 1, BuildingBlock: MIDCAF_clean_sbu_0, # of connection points: 6
#     Node 11, Type 1, BuildingBlock: MIDCAF_clean_sbu_0, # of connection points: 6
#     Edge 12, Type (0, 1), BuildingBlock: AJUNOK_clean_linker_0, # of connection points: 2
#     Edge 13, Type (0, 1), BuildingBlock: AJUNOK_clean_linker_0, # of connection points: 2
#     Edge 14, Type (0, 1), BuildingBlock: AJUNOK_clean_linker_0, # of connection points: 2
#     Edge 15, Type (0, 1), BuildingBlock: AJUNOK_clean_linker_0, # of connection points: 2
#     Edge 16, Type (0, 1), BuildingBlock: AJUNOK_clean_linker_0, # of connection points: 2
#     Edge 17, Type (0, 1), BuildingBlock: AJUNOK_clean_linker_0, # of connection points: 2
#     Edge 18, Type (0, 1), BuildingBlock: AJUNOK_clean_linker_0, # of connection points: 2
#     Edge 19, Type (0, 1), BuildingBlock: AJUNOK_clean_linker_0, # of connection points: 2
#     Edge 20, Type (0, 1), BuildingBlock: AJUNOK_clean_linker_0, # of connection points: 2
#     Edge 21, Type (0, 1), BuildingBlock: AJUNOK_clean_linker_0, # of connection points: 2
#     Edge 22, Type (0, 1), BuildingBlock: AJUNOK_clean_linker_0, # of connection points: 2
#     Edge 23, Type (0, 1), BuildingBlock: AJUNOK_clean_linker_0, # of connection points: 2
#     Edge 24, Type (0, 1), BuildingBlock: AJUNOK_clean_linker_0, # of connection points: 2
#     Edge 25, Type (0, 1), BuildingBlock: AJUNOK_clean_linker_0, # of connection points: 2
#     Edge 26, Type (0, 1), BuildingBlock: AJUNOK_clean_linker_0, # of connection points: 2
#     Edge 27, Type (0, 1), BuildingBlock: AJUNOK_clean_linker_0, # of connection points: 2
#     Edge 28, Type (0, 1), BuildingBlock: AJUNOK_clean_linker_0, # of connection points: 2
#     Edge 29, Type (0, 1), BuildingBlock: AJUNOK_clean_linker_0, # of connection points: 2
#     Edge 30, Type (0, 1), BuildingBlock: AJUNOK_clean_linker_0, # of connection points: 2
#     Edge 31, Type (0, 1), BuildingBlock: AJUNOK_clean_linker_0, # of connection points: 2
#     Edge 32, Type (0, 1), BuildingBlock: AJUNOK_clean_linker_0, # of connection points: 2
#     Edge 33, Type (0, 1), BuildingBlock: AJUNOK_clean_linker_0, # of connection points: 2
#     Edge 34, Type (0, 1), BuildingBlock: AJUNOK_clean_linker_0, # of connection points: 2
#     Edge 35, Type (0, 1), BuildingBlock: AJUNOK_clean_linker_0, # of connection points: 2
# Relax obj value: 0.090
# Max RMSD: 0.101
# Mean RMSD: 0.093
data_MOF--net-apo--node1-MIDCAF_clean_sbu_0--node2-VETTIZ_charged_linker_0--edge1-AJUNOK_clean_linker_0
_symmetry_space_group_name_H-M    P1
_symmetry_Int_Tables_number       1
_symmetry_cell_setting            triclinic
loop_
_symmetry_equiv_pos_as_xyz
'x, y, z'
_cell_length_a     32.869179
_cell_length_b     39.558695
_cell_length_c     35.021371
_cell_angle_alpha  89.796769
_cell_angle_beta   90.020655
_cell_angle_gamma 90.151646
loop_
_atom_site_label
_atom_site_type_symbol
_atom_site_fract_x
_atom_site_fract_y
_atom_site_fract_z
_atom_type_partial_charge
C0 C 0.34809 0.30188 0.52629 0.0
C1 C 0.36822 0.32324 0.55229 0.0
C2 C 0.38225 0.35505 0.53973 0.0
C3 C 0.3597 0.34289 0.47546 0.0
C4 C 0.34344 0.31259 0.48813 0.0
C5 C 0.32149 0.29418 0.4565 0.0
H6 H 0.25338 0.29518 0.27305 0.0
C7 C 0.35276 0.34555 0.4339 0.0
C8 C 0.32967 0.31745 0.42254 0.0
H9 H 0.22592 0.22305 0.36223 0.0
H10 H 0.27342 0.25072 0.40464 0.0
H11 H 0.25787 0.36341 0.32412 0.0
H12 H 0.34911 0.29277 0.28781 0.0
H13 H 0.37446 0.33157 0.29347 0.0
H14 H 0.33452 0.32775 0.25824 0.0
H15 H 0.27231 0.35625 0.27531 0.0
H16 H 0.29998 0.38545 0.30461 0.0
C17 C 0.27574 0.29273 0.46703 0.0
C18 C 0.3415 0.25915 0.45123 0.0
C19 C 0.42021 0.44064 0.3594 0.0
C20 C 0.42283 0.44848 0.32025 0.0
C21 C 0.40195 0.4278 0.29394 0.0
C22 C 0.37898 0.39988 0.30647 0.0
C23 C 0.37691 0.39244 0.34574 0.0
C24 C 0.39783 0.41244 0.37134 0.0
C25 C 0.3935 0.40022 0.41182 0.0
C26 C 0.36686 0.36922 0.4063 0.0
C27 C 0.35667 0.36513 0.36766 0.0
C28 C 0.37167 0.428 0.43529 0.0
C29 C 0.43649 0.39092 0.42662 0.0
C30 C 0.25798 0.28539 0.30164 0.0
C31 C 0.23594 0.25716 0.31455 0.0
C32 C 0.24285 0.24471 0.35175 0.0
C33 C 0.27 0.26104 0.37645 0.0
C34 C 0.29057 0.29014 0.36384 0.0
C35 C 0.28552 0.30119 0.32657 0.0
C36 C 0.31192 0.33131 0.3176 0.0
C37 C 0.33093 0.33808 0.3564 0.0
C38 C 0.31809 0.31403 0.38352 0.0
C39 C 0.28429 0.36077 0.30452 0.0
C40 C 0.34408 0.32058 0.28759 0.0
H41 H 0.39043 0.38911 0.49374 0.0
H42 H 0.33688 0.27736 0.53532 0.0
H43 H 0.37517 0.26118 0.45359 0.0
H44 H 0.33574 0.24823 0.42276 0.0
H45 H 0.33088 0.24102 0.47339 0.0
H46 H 0.26628 0.31603 0.48235 0.0
H47 H 0.26907 0.27084 0.48599 0.0
H48 H 0.25562 0.29163 0.44185 0.0
H49 H 0.4345 0.45656 0.38064 0.0
H50 H 0.40324 0.43333 0.26365 0.0
H51 H 0.36345 0.38533 0.28516 0.0
H52 H 0.3524 0.44435 0.41678 0.0
H53 H 0.3939 0.44466 0.45001 0.0
H54 H 0.35028 0.41734 0.4566 0.0
H55 H 0.45371 0.37683 0.40446 0.0
H56 H 0.43606 0.3742 0.45184 0.0
H57 H 0.4542 0.41401 0.43373 0.0
H58 H 0.39821 0.3717 0.55919 0.0
C59 C 0.37817 0.36494 0.50158 0.0
C60 C 0.25658 0.21245 0.80279 0.0
C61 C 0.27705 0.24146 0.81573 0.0
C62 C 0.26991 0.25301 0.85316 0.0
C63 C 0.22411 0.20614 0.86493 0.0
C64 C 0.22983 0.19549 0.82769 0.0
C65 C 0.20462 0.16472 0.81861 0.0
H66 H 0.07543 0.04196 0.87937 0.0
C67 C 0.19648 0.18196 0.88416 0.0
C68 C 0.18454 0.1578 0.85696 0.0
H69 H 0.12145 0.05744 0.76516 0.0
H70 H 0.15878 0.10692 0.78631 0.0
H71 H 0.1546 0.05186 0.91929 0.0
H72 H 0.05846 0.12301 0.89949 0.0
H73 H 0.07342 0.12596 0.94769 0.0
H74 H 0.0544 0.08642 0.92978 0.0
H75 H 0.11219 0.05481 0.95123 0.0
H76 H 0.15753 0.08013 0.95766 0.0
C77 C 0.23366 0.13582 0.8069 0.0
C78 C 0.17319 0.1746 0.78754 0.0
C79 C 0.16431 0.19374 0.02642 0.0
C80 C 0.1423 0.173 0.05188 0.0
C81 C 0.12586 0.14231 0.03859 0.0
C82 C 0.12976 0.13288 1.00038 0.0
C83 C 0.15062 0.15417 0.97491 0.0
C84 C 0.16859 0.18352 0.98816 0.0
C85 C 0.19161 0.20171 0.95694 0.0
C86 C 0.1833 0.1789 0.92277 0.0
C87 C 0.15869 0.15149 0.93356 0.0
C88 C 0.23719 0.20205 0.96815 0.0
C89 C 0.17269 0.23722 0.95157 0.0
C90 C 0.09255 0.0566 0.85866 0.0
C91 C 0.09473 0.04638 0.82038 0.0
C92 C 0.11891 0.0652 0.7947 0.0
C93 C 0.14059 0.09381 0.80708 0.0
C94 C 0.13842 0.10348 0.84567 0.0
C95 C 0.11455 0.08495 0.87062 0.0
C96 C 0.11693 0.09783 0.91083 0.0
C97 C 0.14524 0.12787 0.90584 0.0
C98 C 0.1579 0.13105 0.86769 0.0
C99 C 0.13601 0.06981 0.93631 0.0
C100 C 0.07361 0.10879 0.92296 0.0
H101 H 0.23987 0.24548 0.90601 0.0
H102 H 0.26141 0.20319 0.77409 0.0
H103 H 0.16382 0.20148 0.79046 0.0
H104 H 0.14453 0.16009 0.78981 0.0
H105 H 0.18602 0.17141 0.75844 0.0
H106 H 0.26081 0.13526 0.82587 0.0
H107 H 0.24451 0.1393 0.7771 0.0
H108 H 0.21966 0.11054 0.80954 0.0
H109 H 0.17728 0.21745 0.03595 0.0
H110 H 0.10837 0.12619 0.05758 0.0
H111 H 0.11559 0.10963 0.99207 0.0
H112 H 0.24599 0.17771 0.98183 0.0
H113 H 0.24378 0.2226 0.9888 0.0
H114 H 0.25775 0.20468 0.94344 0.0
H115 H 0.13913 0.23628 0.95562 0.0
H116 H 0.17706 0.24743 0.92247 0.0
H117 H 0.18527 0.25544 0.97259 0.0
H118 H 0.28571 0.27515 0.86379 0.0
C119 C 0.24362 0.23556 0.87777 0.0
C120 C 0.8434 0.19325 0.49149 0.0
C121 C 0.86344 0.17179 0.46562 0.0
C122 C 0.87696 0.13992 0.47829 0.0
C123 C 0.85425 0.15224 0.54239 0.0
C124 C 0.83843 0.1826 0.52963 0.0
C125 C 0.81672 0.20117 0.56121 0.0
H126 H 0.75243 0.20312 0.74592 0.0
C127 C 0.84743 0.14977 0.58396 0.0
C128 C 0.82473 0.17797 0.59525 0.0
H129 H 0.72211 0.2726 0.65491 0.0
H130 H 0.76803 0.24388 0.61226 0.0
H131 H 0.7548 0.13304 0.69581 0.0
H132 H 0.84719 0.20452 0.72874 0.0
H133 H 0.87199 0.16553 0.72356 0.0
H134 H 0.83295 0.17017 0.75949 0.0
H135 H 0.76975 0.14167 0.7442 0.0
H136 H 0.79715 0.11176 0.71583 0.0
C137 C 0.7709 0.20281 0.55081 0.0
C138 C 0.83718 0.23612 0.56638 0.0
C139 C 0.91378 0.05451 0.65826 0.0
C140 C 0.91685 0.04678 0.69738 0.0
C141 C 0.8981 0.06849 0.72396 0.0
C142 C 0.87561 0.09666 0.71159 0.0
C143 C 0.87231 0.10351 0.67227 0.0
C144 C 0.89202 0.08296 0.64649 0.0
C145 C 0.88746 0.09501 0.60602 0.0
C146 C 0.8616 0.12629 0.61164 0.0
C147 C 0.85221 0.13083 0.65039 0.0
C148 C 0.86468 0.06736 0.58298 0.0
C149 C 0.9305 0.10378 0.59075 0.0
C150 C 0.75587 0.21199 0.7168 0.0
C151 C 0.7335 0.23985 0.70354 0.0
C152 C 0.73917 0.25119 0.66569 0.0
C153 C 0.76548 0.2343 0.64085 0.0
C154 C 0.78655 0.20575 0.65395 0.0
C155 C 0.78246 0.1955 0.69162 0.0
C156 C 0.80891 0.16553 0.70072 0.0
C157 C 0.82691 0.15805 0.66167 0.0
C158 C 0.81364 0.18169 0.63433 0.0
C159 C 0.78142 0.13634 0.71508 0.0
C160 C 0.84189 0.17673 0.72978 0.0
H161 H 0.88442 0.10583 0.5243 0.0
H162 H 0.83254 0.21781 0.48238 0.0
H163 H 0.87088 0.23373 0.56513 0.0
H164 H 0.83052 0.24763 0.59435 0.0
H165 H 0.8277 0.25393 0.54348 0.0
H166 H 0.76156 0.18072 0.53325 0.0
H167 H 0.76385 0.226 0.53413 0.0
H168 H 0.7509 0.20163 0.57612 0.0
H169 H 0.92745 0.03837 0.63691 0.0
H170 H 0.90078 0.06374 0.75432 0.0
H171 H 0.86151 0.11193 0.73306 0.0
H172 H 0.84482 0.05168 0.60176 0.0
H173 H 0.88634 0.05005 0.56863 0.0
H174 H 0.8437 0.07813 0.56143 0.0
H175 H 0.94865 0.11709 0.61295 0.0
H176 H 0.93022 0.12109 0.56604 0.0
H177 H 0.94728 0.08052 0.58276 0.0
H178 H 0.89288 0.12318 0.45898 0.0
C179 C 0.87251 0.13006 0.5164 0.0
C180 C 0.76203 0.29492 0.21269 0.0
C181 C 0.7807 0.26423 0.20295 0.0
C182 C 0.77049 0.24865 0.16807 0.0
C183 C 0.72531 0.29485 0.15229 0.0
C184 C 0.73395 0.30946 0.18724 0.0
C185 C 0.71044 0.34162 0.19321 0.0
H186 H 0.5722 0.45409 0.12622 0.0
C187 C 0.69658 0.31702 0.1316 0.0
C188 C 0.6871 0.3442 0.15584 0.0
H189 H 0.63919 0.4594 0.23227 0.0
H190 H 0.67176 0.40606 0.21794 0.0
H191 H 0.64613 0.44218 0.08051 0.0
H192 H 0.55659 0.372 0.12128 0.0
H193 H 0.56649 0.36259 0.07298 0.0
H194 H 0.54794 0.40386 0.08554 0.0
H195 H 0.60172 0.43275 0.05291 0.0
H196 H 0.64823 0.40892 0.0477 0.0
C197 C 0.74115 0.37106 0.19801 0.0
C198 C 0.68176 0.33631 0.22776 0.0
C199 C 0.65857 0.2932 0.99232 0.0
C200 C 0.6346 0.31144 0.96607 0.0
C201 C 0.61497 0.34111 0.97805 0.0
C202 C 0.61876 0.35261 0.01547 0.0
C203 C 0.64303 0.33464 0.04143 0.0
C204 C 0.66279 0.30561 0.02983 0.0
C205 C 0.68779 0.29052 0.06181 0.0
C206 C 0.6802 0.31573 0.09394 0.0
C207 C 0.65356 0.34116 0.0817 0.0
C208 C 0.73282 0.29044 0.04897 0.0
C209 C 0.67044 0.25504 0.07137 0.0
C210 C 0.59402 0.44399 0.14641 0.0
C211 C 0.60354 0.4614 0.18014 0.0
C212 C 0.63122 0.44656 0.20604 0.0
C213 C 0.65038 0.41572 0.19749 0.0
C214 C 0.64217 0.39974 0.16245 0.0
C215 C 0.61449 0.41413 0.13762 0.0
C216 C 0.61259 0.39624 0.09998 0.0
C217 C 0.64229 0.36761 0.10679 0.0
C218 C 0.65926 0.36943 0.14353 0.0
C219 C 0.62764 0.42115 0.06848 0.0
C220 C 0.5686 0.38304 0.09427 0.0
H221 H 0.73695 0.25088 0.11644 0.0
H222 H 0.76936 0.30738 0.23933 0.0
H223 H 0.66804 0.31057 0.22719 0.0
H224 H 0.65571 0.35383 0.22785 0.0
H225 H 0.6986 0.33895 0.2551 0.0
H226 H 0.7681 0.36746 0.17926 0.0
H227 H 0.7522 0.37267 0.22793 0.0
H228 H 0.72846 0.39576 0.18945 0.0
H229 H 0.67346 0.27001 0.98388 0.0
H230 H 0.59565 0.35503 0.95848 0.0
H231 H 0.60223 0.37496 0.02271 0.0
H232 H 0.74103 0.31507 0.03558 0.0
H233 H 0.73833 0.27028 0.02759 0.0
H234 H 0.75437 0.28703 0.07277 0.0
H235 H 0.63716 0.25379 0.06568 0.0
H236 H 0.67351 0.24852 0.10196 0.0
H237 H 0.68525 0.23517 0.05392 0.0
H238 H 0.78493 0.22519 0.15982 0.0
C239 C 0.74297 0.26376 0.14274 0.0
C240 C 0.60747 0.57029 0.6989 0.0
C241 C 0.5778 0.54993 0.68121 0.0
C242 C 0.56427 0.55855 0.64427 0.0
C243 C 0.61156 0.60558 0.6421 0.0
C244 C 0.62365 0.59809 0.67896 0.0
C245 C 0.65607 0.62206 0.69294 0.0
H246 H 0.77925 0.7566 0.65885 0.0
C247 C 0.63616 0.63447 0.62829 0.0
C248 C 0.66195 0.6446 0.65807 0.0
H249 H 0.76983 0.69753 0.76242 0.0
H250 H 0.71865 0.66191 0.73295 0.0
H251 H 0.77747 0.69174 0.60201 0.0
H252 H 0.68256 0.75951 0.63883 0.0
H253 H 0.67774 0.75298 0.58933 0.0
H254 H 0.72299 0.77293 0.60775 0.0
H255 H 0.77555 0.73512 0.58687 0.0
H256 H 0.7475 0.70263 0.56224 0.0
C257 C 0.69478 0.60131 0.70219 0.0
C258 C 0.63856 0.64182 0.72727 0.0
C259 C 0.62087 0.6728 0.49079 0.0
C260 C 0.63817 0.699 0.46916 0.0
C261 C 0.66698 0.72057 0.48622 0.0
C262 C 0.6785 0.71581 0.52465 0.0
C263 C 0.66065 0.68942 0.54614 0.0
C264 C 0.63224 0.66859 0.52896 0.0
C265 C 0.61503 0.64269 0.55594 0.0
C266 C 0.6382 0.65084 0.5922 0.0
C267 C 0.66506 0.67809 0.58646 0.0
C268 C 0.62594 0.60724 0.54032 0.0
C269 C 0.56871 0.64927 0.56025 0.0
C270 C 0.76566 0.73625 0.67529 0.0
C271 C 0.77781 0.73017 0.71324 0.0
C272 C 0.76054 0.70281 0.73333 0.0
C273 C 0.73085 0.68227 0.71613 0.0
C274 C 0.71868 0.68888 0.67826 0.0
C275 C 0.73635 0.71535 0.65838 0.0
C276 C 0.7209 0.71791 0.61796 0.0
C277 C 0.69037 0.68908 0.61701 0.0
C278 C 0.68908 0.67223 0.65249 0.0
C279 C 0.75709 0.71178 0.59058 0.0
C280 C 0.70011 0.75269 0.61282 0.0
H281 H 0.56992 0.59083 0.59635 0.0
H282 H 0.61856 0.56416 0.72721 0.0
H283 H 0.60583 0.64771 0.72269 0.0
H284 H 0.65334 0.66661 0.73148 0.0
H285 H 0.64098 0.62684 0.75406 0.0
H286 H 0.69855 0.58022 0.68155 0.0
H287 H 0.69309 0.59011 0.73127 0.0
H288 H 0.72304 0.61628 0.69968 0.0
H289 H 0.59803 0.65634 0.47838 0.0
H290 H 0.68013 0.74122 0.46997 0.0
H291 H 0.70047 0.73306 0.53629 0.0
H292 H 0.6576 0.60699 0.52906 0.0
H293 H 0.60527 0.59997 0.51661 0.0
H294 H 0.62515 0.58723 0.56231 0.0
H295 H 0.56112 0.67626 0.55483 0.0
H296 H 0.5576 0.64437 0.58958 0.0
H297 H 0.55078 0.63382 0.53982 0.0
H298 H 0.54215 0.54287 0.6297 0.0
C299 C 0.58088 0.58621 0.62471 0.0
C300 C 0.75559 0.78662 0.2186 0.0
C301 C 0.73424 0.7578 0.20666 0.0
C302 C 0.74215 0.74439 0.17013 0.0
C303 C 0.7896 0.78996 0.15692 0.0
C304 C 0.78336 0.80198 0.19354 0.0
C305 C 0.8084 0.83293 0.20169 0.0
H306 H 0.93655 0.9553 0.14011 0.0
C307 C 0.8177 0.81346 0.13703 0.0
C308 C 0.8292 0.8384 0.16347 0.0
H309 H 0.88636 0.94183 0.25297 0.0
H310 H 0.85236 0.89059 0.23276 0.0
H311 H 0.95545 0.87284 0.1216 0.0
H312 H 0.85893 0.94297 0.09862 0.0
H313 H 0.85702 0.91381 0.06106 0.0
H314 H 0.90189 0.93971 0.06738 0.0
H315 H 0.95985 0.90934 0.0912 0.0
H316 H 0.94156 0.86965 0.07306 0.0
C317 C 0.8392 0.82404 0.23374 0.0
C318 C 0.77907 0.86226 0.21148 0.0
C319 C 0.85068 0.79909 0.99506 0.0
C320 C 0.87226 0.81966 0.9691 0.0
C321 C 0.88889 0.85045 0.98185 0.0
C322 C 0.88529 0.86033 0.01996 0.0
C323 C 0.86445 0.83942 0.04587 0.0
C324 C 0.8465 0.80984 0.0332 0.0
C325 C 0.82321 0.79227 0.06475 0.0
C326 C 0.83136 0.81567 0.09844 0.0
C327 C 0.85612 0.84291 0.08711 0.0
C328 C 0.84186 0.75683 0.07109 0.0
C329 C 0.77773 0.79178 0.05332 0.0
C330 C 0.91915 0.94062 0.16059 0.0
C331 C 0.91471 0.95183 0.19833 0.0
C332 C 0.89061 0.93308 0.22397 0.0
C333 C 0.87076 0.90354 0.21204 0.0
C334 C 0.87446 0.89304 0.17385 0.0
C335 C 0.89855 0.91139 0.14891 0.0
C336 C 0.89708 0.89758 0.10896 0.0
C337 C 0.86913 0.86726 0.11429 0.0
C338 C 0.85591 0.86486 0.15228 0.0
C339 C 0.94072 0.88687 0.09775 0.0
C340 C 0.87804 0.92482 0.0824 0.0
H341 H 0.77387 0.74923 0.11758 0.0
H342 H 0.75012 0.79735 0.24654 0.0
H343 H 0.75166 0.8615 0.19284 0.0
H344 H 0.79256 0.88749 0.20665 0.0
H345 H 0.76859 0.86053 0.24158 0.0
H346 H 0.84747 0.79678 0.23311 0.0
H347 H 0.82638 0.82942 0.26242 0.0
H348 H 0.86852 0.83751 0.23052 0.0
H349 H 0.83772 0.77525 0.98595 0.0
H350 H 0.90612 0.86637 0.96243 0.0
H351 H 0.89945 0.8837 0.02786 0.0
H352 H 0.87555 0.75777 0.06817 0.0
H353 H 0.83007 0.73848 0.04983 0.0
H354 H 0.83627 0.74684 0.1001 0.0
H355 H 0.76883 0.81624 0.03999 0.0
H356 H 0.75707 0.7886 0.07785 0.0
H357 H 0.77149 0.77145 0.0323 0.0
H358 H 0.72565 0.72236 0.1602 0.0
C359 C 0.7697 0.76028 0.14523 0.0
C360 C 0.11305 0.93052 0.32211 0.0
C361 C 0.08489 0.95203 0.34001 0.0
C362 C 0.07137 0.94407 0.37713 0.0
C363 C 0.11653 0.89577 0.3794 0.0
C364 C 0.12834 0.90255 0.34226 0.0
C365 C 0.15953 0.87767 0.32821 0.0
H366 H 0.27802 0.74089 0.36323 0.0
C367 C 0.13995 0.86629 0.39323 0.0
C368 C 0.16489 0.85527 0.36324 0.0
H369 H 0.27036 0.79902 0.25888 0.0
H370 H 0.22036 0.83589 0.28796 0.0
H371 H 0.27859 0.80567 0.41929 0.0
H372 H 0.1822 0.73928 0.38219 0.0
H373 H 0.17525 0.74709 0.43114 0.0
H374 H 0.2207 0.72587 0.41527 0.0
H375 H 0.27505 0.76239 0.43457 0.0
H376 H 0.24835 0.79555 0.45914 0.0
C377 C 0.19897 0.89737 0.31833 0.0
C378 C 0.14079 0.85808 0.29427 0.0
C379 C 0.12438 0.82806 0.53107 0.0
C380 C 0.14033 0.80094 0.55216 0.0
C381 C 0.16764 0.77858 0.53453 0.0
C382 C 0.17915 0.78343 0.49617 0.0
C383 C 0.16266 0.81066 0.47521 0.0
C384 C 0.13561 0.83229 0.49281 0.0
C385 C 0.11934 0.85876 0.46599 0.0
C386 C 0.1416 0.84996 0.42941 0.0
C387 C 0.16715 0.82196 0.43494 0.0
C388 C 0.13222 0.89383 0.48147 0.0
C389 C 0.07267 0.85365 0.46219 0.0
C390 C 0.26506 0.76127 0.34647 0.0
C391 C 0.27737 0.76674 0.30848 0.0
C392 C 0.26094 0.7942 0.28804 0.0
C393 C 0.23194 0.81547 0.305 0.0
C394 C 0.21966 0.80946 0.34299 0.0
C395 C 0.23647 0.78282 0.3631 0.0
C396 C 0.22099 0.78072 0.40347 0.0
C397 C 0.19166 0.81023 0.40429 0.0
C398 C 0.19082 0.82694 0.36873 0.0
C399 C 0.25747 0.78611 0.43081 0.0
C400 C 0.1988 0.74642 0.40868 0.0
H401 H 0.07623 0.91204 0.42542 0.0
H402 H 0.12371 0.93587 0.29345 0.0
H403 H 0.10803 0.85261 0.2995 0.0
H404 H 0.15491 0.83312 0.28982 0.0
H405 H 0.143 0.87299 0.26741 0.0
H406 H 0.2039 0.91853 0.33869 0.0
H407 H 0.19736 0.90838 0.28914 0.0
H408 H 0.22661 0.88172 0.32069 0.0
H409 H 0.1025 0.84506 0.54386 0.0
H410 H 0.17963 0.75721 0.5503 0.0
H411 H 0.19999 0.76554 0.48415 0.0
H412 H 0.16424 0.89325 0.49176 0.0
H413 H 0.11268 0.90143 0.50584 0.0
H414 H 0.13139 0.91395 0.45962 0.0
H415 H 0.06379 0.8269 0.4676 0.0
H416 H 0.06143 0.85901 0.43301 0.0
H417 H 0.05585 0.86958 0.4829 0.0
H418 H 0.04994 0.96039 0.39158 0.0
C419 C 0.08702 0.91615 0.39689 0.0
C420 C 0.251 0.70816 0.80686 0.0
C421 C 0.2288 0.73639 0.81908 0.0
C422 C 0.23396 0.74815 0.85674 0.0
C423 C 0.28066 0.70248 0.8703 0.0
C424 C 0.277 0.69182 0.83283 0.0
C425 C 0.30334 0.66165 0.82472 0.0
H426 H 0.42422 0.53645 0.89086 0.0
C427 C 0.30759 0.67863 0.89073 0.0
C428 C 0.32113 0.65471 0.86405 0.0
H429 H 0.39361 0.55918 0.77347 0.0
H430 H 0.35461 0.60754 0.79393 0.0
H431 H 0.44339 0.61651 0.91348 0.0
H432 H 0.34131 0.54931 0.92672 0.0
H433 H 0.34018 0.57617 0.96647 0.0
H434 H 0.38326 0.54859 0.95945 0.0
H435 H 0.44349 0.57986 0.94388 0.0
H436 H 0.42527 0.61997 0.96059 0.0
C437 C 0.33648 0.67234 0.79549 0.0
C438 C 0.27567 0.63236 0.81109 0.0
C439 C 0.33531 0.69183 0.0336 0.0
C440 C 0.35578 0.67117 0.06018 0.0
C441 C 0.37068 0.63955 0.04824 0.0
C442 C 0.36704 0.62923 0.01024 0.0
C443 C 0.34821 0.65066 0.98359 0.0
C444 C 0.33126 0.68076 0.99561 0.0
C445 C 0.30966 0.69877 0.96343 0.0
C446 C 0.31857 0.67543 0.92994 0.0
C447 C 0.3418 0.64765 0.94197 0.0
C448 C 0.32952 0.73396 0.95792 0.0
C449 C 0.26371 0.69983 0.97324 0.0
C450 C 0.40963 0.5521 0.86946 0.0
C451 C 0.41155 0.54364 0.83052 0.0
C452 C 0.39183 0.56465 0.8037 0.0
C453 C 0.36945 0.59287 0.81562 0.0
C454 C 0.36705 0.60045 0.85475 0.0
C455 C 0.3876 0.58056 0.88083 0.0
C456 C 0.38303 0.59312 0.92107 0.0
C457 C 0.35639 0.62396 0.91485 0.0
C458 C 0.34671 0.62784 0.87604 0.0
C459 C 0.42591 0.60277 0.93591 0.0
C460 C 0.36109 0.56545 0.94495 0.0
H461 H 0.26187 0.7413 0.91078 0.0
H462 H 0.24793 0.69895 0.77791 0.0
H463 H 0.2485 0.62998 0.82985 0.0
H464 H 0.29085 0.60754 0.81201 0.0
H465 H 0.26483 0.63691 0.78147 0.0
H466 H 0.34191 0.70012 0.79581 0.0
H467 H 0.32763 0.66538 0.76592 0.0
H468 H 0.36653 0.66116 0.80211 0.0
H469 H 0.32354 0.71623 0.04203 0.0
H470 H 0.3871 0.62345 0.068 0.0
H471 H 0.37997 0.60527 1.0029 0.0
H472 H 0.36318 0.73225 0.96073 0.0
H473 H 0.31849 0.7521 0.97971 0.0
H474 H 0.32411 0.74473 0.92925 0.0
H475 H 0.25431 0.67687 0.98947 0.0
H476 H 0.24404 0.69987 0.9477 0.0
H477 H 0.25638 0.72216 0.99108 0.0
H478 H 0.21703 0.76987 0.8667 0.0
C479 C 0.25967 0.73136 0.88239 0.0
Zn480 Zn 0.04019 0.15608 0.32561 0.0
Zn481 Zn 0.97047 0.1563 0.19527 0.0
Zn482 Zn 0.00542 0.15443 0.2603 0.0
C483 C 0.04793 0.17987 0.18171 0.0
C484 C 0.96832 0.08922 0.21898 0.0
O485 O 0.96196 0.17753 0.30196 0.0
O486 O 0.99462 0.17197 0.35686 0.0
C487 C 0.08978 0.19384 0.28027 0.0
O488 O 0.04928 0.17713 0.21842 0.0
O489 O 0.0166 0.17073 0.16368 0.0
O490 O 0.95231 0.10842 0.19441 0.0
O491 O 0.99198 0.10142 0.24484 0.0
O492 O 0.08382 0.18825 0.31523 0.0
O493 O 0.06509 0.18196 0.25495 0.0
O494 O 0.01726 0.10104 0.27643 0.0
O495 O 0.05602 0.10764 0.32752 0.0
C496 C 0.0401 0.08858 0.30283 0.0
O497 O 0.94701 0.18385 0.26528 0.0
O498 O 0.92875 0.1901 0.20484 0.0
C499 C 0.96324 0.18068 0.33864 0.0
C500 C 0.92313 0.19641 0.23964 0.0
Zn501 Zn 0.54118 0.34568 0.69291 0.0
Zn502 Zn 0.47325 0.3454 0.82626 0.0
Zn503 Zn 0.50563 0.34426 0.75909 0.0
C504 C 0.48024 0.4118 0.8068 0.0
C505 C 0.41746 0.31319 0.77863 0.0
O506 O 0.56546 0.31727 0.76414 0.0
O507 O 0.58909 0.3189 0.70494 0.0
C508 C 0.53582 0.41236 0.71536 0.0
O509 O 0.4926 0.39714 0.77611 0.0
O510 O 0.47204 0.39466 0.83623 0.0
O511 O 0.42121 0.32454 0.81203 0.0
O512 O 0.44635 0.31693 0.75406 0.0
O513 O 0.55067 0.39496 0.68872 0.0
O514 O 0.5167 0.39795 0.74312 0.0
O515 O 0.46311 0.32049 0.71723 0.0
O516 O 0.49736 0.32438 0.66303 0.0
C517 C 0.46564 0.31574 0.68088 0.0
O518 O 0.54782 0.31855 0.80045 0.0
O519 O 0.51232 0.31702 0.85403 0.0
C520 C 0.5931 0.31008 0.73932 0.0
C521 C 0.54416 0.30969 0.83582 0.0
Zn522 Zn 0.03965 0.84487 0.82674 0.0
Zn523 Zn 0.97041 0.84789 0.69256 0.0
Zn524 Zn 0.00433 0.8424 0.75971 0.0
C525 C 0.97927 0.91268 0.71519 0.0
C526 C 0.91557 0.81293 0.73985 0.0
O527 O 0.06305 0.8145 0.75408 0.0
O528 O 0.08766 0.81866 0.81279 0.0
C529 C 0.03563 0.91066 0.80405 0.0
O530 O 0.99246 0.89599 0.74432 0.0
O531 O 0.96903 0.89749 0.68511 0.0
O532 O 0.91892 0.82587 0.70703 0.0
O533 O 0.94479 0.8155 0.76428 0.0
O534 O 0.04838 0.89416 0.83245 0.0
O535 O 0.01824 0.8954 0.77598 0.0
O536 O 0.96162 0.81833 0.80149 0.0
O537 O 0.99604 0.82216 0.85563 0.0
C538 C 0.96441 0.81328 0.83782 0.0
O539 O 0.04539 0.81721 0.71756 0.0
O540 O 0.01028 0.82114 0.6638 0.0
C541 C 0.09111 0.80843 0.77891 0.0
C542 C 0.04159 0.81139 0.68149 0.0
Zn543 Zn 0.53416 0.66774 0.19475 0.0
Zn544 Zn 0.47057 0.6469 0.3255 0.0
Zn545 Zn 0.5039 0.65536 0.25945 0.0
C546 C 0.54062 0.68384 0.33936 0.0
C547 C 0.48279 0.5827 0.29822 0.0
O548 O 0.45702 0.67909 0.22053 0.0
O549 O 0.48864 0.68538 0.16534 0.0
C550 C 0.58518 0.70029 0.24259 0.0
O551 O 0.54463 0.67932 0.30308 0.0
O552 O 0.50945 0.67294 0.35645 0.0
O553 O 0.47163 0.59715 0.32845 0.0
O554 O 0.49576 0.60015 0.2695 0.0
O555 O 0.57689 0.69974 0.20753 0.0
O556 O 0.56254 0.68423 0.26676 0.0
O557 O 0.5207 0.60508 0.23709 0.0
O558 O 0.55213 0.62072 0.18433 0.0
C559 C 0.54153 0.59755 0.20716 0.0
O560 O 0.44315 0.6809 0.25853 0.0
O561 O 0.41755 0.66779 0.31512 0.0
C562 C 0.45664 0.68773 0.1849 0.0
C563 C 0.41395 0.68216 0.28313 0.0
C564 C 0.03171 0.99461 0.32133 0.0
C565 C 0.07292 0.98479 0.32251 0.0
C566 C 0.02057 0.02792 0.31191 0.0
C567 C 0.05041 0.05241 0.30393 0.0
H568 H 0.00809 0.97678 0.3293 0.0
H569 H 0.98878 0.03501 0.31305 0.0
S570 S 0.16185 0.03924 0.30008 0.0
N571 N 0.14317 0.00193 0.3122 0.0
N572 N 0.12218 0.06437 0.29496 0.0
C573 C 0.09134 0.04251 0.30295 0.0
C574 C 0.10264 0.00868 0.31204 0.0
C575 C 0.47008 0.50317 0.83514 0.0
C576 C 0.4324 0.51205 0.81866 0.0
C577 C 0.48723 0.47117 0.82923 0.0
C578 C 0.46772 0.44734 0.80599 0.0
H579 H 0.48565 0.52062 0.85396 0.0
H580 H 0.51504 0.46457 0.84407 0.0
S581 S 0.36938 0.45756 0.75578 0.0
N582 N 0.37656 0.49397 0.77775 0.0
N583 N 0.40963 0.43433 0.76595 0.0
C584 C 0.43118 0.45624 0.78799 0.0
C585 C 0.41338 0.48855 0.79434 0.0
C586 C 0.59497 0.49358 0.70861 0.0
C587 C 0.565 0.51724 0.69837 0.0
C588 C 0.58466 0.45994 0.71662 0.0
C589 C 0.54404 0.44891 0.7153 0.0
H590 H 0.62688 0.5005 0.70783 0.0
H591 H 0.60887 0.442 0.72204 0.0
S592 S 0.45378 0.5015 0.69431 0.0
N593 N 0.4926 0.52798 0.69084 0.0
N594 N 0.47344 0.4644 0.70571 0.0
C595 C 0.5135 0.47263 0.70768 0.0
C596 C 0.52396 0.50693 0.69926 0.0
C597 C 0.90183 0.01181 0.214 0.0
C598 C 0.92996 0.98559 0.209 0.0
C599 C 0.91488 0.0452 0.21864 0.0
C600 C 0.9565 0.05337 0.21916 0.0
H601 H 0.86946 0.00666 0.2126 0.0
H602 H 0.89221 0.06494 0.22094 0.0
S603 S 0.0423 0.99351 0.20981 0.0
N604 N 1.00119 0.96951 0.20645 0.0
N605 N 0.02587 0.03258 0.21596 0.0
C606 C 0.98504 0.02724 0.21594 0.0
C607 C 0.9717 0.99319 0.21057 0.0
C608 C 0.97356 0.005 0.69011 0.0
C609 C 0.9379 0.01515 0.70932 0.0
C610 C 0.98891 0.97217 0.69411 0.0
C611 C 0.96995 0.94878 0.71842 0.0
H612 H 0.98846 0.02196 0.67016 0.0
H613 H 0.01459 0.96456 0.67679 0.0
S614 S 0.87875 0.96292 0.77813 0.0
N615 N 0.88576 -0.00084 0.75548 0.0
N616 N 0.91612 0.93805 0.76418 0.0
C617 C 0.93652 0.9592 0.74019 0.0
C618 C 0.9202 0.99235 0.73552 0.0
C619 C 0.57257 0.50566 0.22285 0.0
C620 C 0.58689 0.49593 0.18663 0.0
C621 C 0.55733 0.53832 0.2292 0.0
C622 C 0.5551 0.56235 0.19954 0.0
H623 H 0.57333 0.48798 0.24653 0.0
H624 H 0.54855 0.5451 0.25782 0.0
S625 S 0.59087 0.55021 0.09984 0.0
N626 N 0.60048 0.51395 0.12132 0.0
N627 N 0.56941 0.57414 0.13257 0.0
C628 C 0.56935 0.55288 0.16318 0.0
C629 C 0.5857 0.52001 0.15691 0.0
C630 C 0.4256 0.50203 0.28169 0.0
C631 C 0.44447 0.47972 0.30765 0.0
C632 C 0.44096 0.53472 0.27555 0.0
C633 C 0.47542 0.54619 0.29537 0.0
H634 H 0.39716 0.49516 0.2681 0.0
H635 H 0.42392 0.55198 0.25759 0.0
S636 S 0.54053 0.49603 0.36035 0.0
N637 N 0.50364 0.4698 0.34803 0.0
N638 N 0.5308 0.53202 0.33814 0.0
C639 C 0.49633 0.52351 0.31899 0.0
C640 C 0.48133 0.49001 0.32462 0.0
C641 C 0.10011 0.9886 0.79267 0.0
C642 C 0.07573 0.01391 0.80893 0.0
C643 C 0.08565 0.95543 0.78897 0.0
C644 C 0.04632 0.9466 0.80108 0.0
H645 H 0.13143 0.99391 0.78505 0.0
H646 H 0.1061 0.93617 0.77836 0.0
S647 S 0.96854 0.0042 0.84035 0.0
N648 N 0.00875 0.0286 0.83326 0.0
N649 N 0.98193 0.96589 0.82659 0.0
C650 C 0.02069 0.97192 0.81497 0.0
C651 C 0.03533 0.00574 0.81878 0.0
C652 C 0.13844 0.16244 0.12219 0.0
C653 C 0.13125 0.18412 0.09091 0.0
C654 C 0.11531 0.16494 0.15579 0.0
C655 C 0.08387 0.18878 0.15868 0.0
H656 H 0.15915 0.14135 0.1192 0.0
H657 H 0.11857 0.14546 0.17741 0.0
S658 S 0.05838 0.25529 0.08804 0.0
N659 N 0.0953 0.2336 0.06766 0.0
N660 N 0.05117 0.23769 0.13036 0.0
C661 C 0.07997 0.21311 0.12964 0.0
C662 C 0.10386 0.21092 0.09574 0.0
C663 C 0.41123 0.28697 0.59364 0.0
C664 C 0.3806 0.31156 0.59084 0.0
C665 C 0.43575 0.28475 0.62635 0.0
C666 C 0.42995 0.30663 0.65748 0.0
H667 H 0.4194 0.27213 0.56887 0.0
H668 H 0.4621 0.26836 0.6256 0.0
S669 S 0.34805 0.37009 0.66728 0.0
N670 N 0.34148 0.35432 0.62407 0.0
N671 N 0.38702 0.34954 0.68594 0.0
C672 C 0.39587 0.32794 0.65705 0.0
C673 C 0.37135 0.33065 0.62348 0.0
C674 C 0.63597 0.3199 0.89565 0.0
C675 C 0.62566 0.29924 0.92705 0.0
C676 C 0.61323 0.31885 0.86168 0.0
C677 C 0.579 0.29766 0.85865 0.0
H678 H 0.65862 0.33963 0.89896 0.0
H679 H 0.61898 0.33796 0.84008 0.0
S680 S 0.54564 0.23333 0.92917 0.0
N681 N 0.58436 0.25255 0.95002 0.0
N682 N 0.54101 0.25109 0.88662 0.0
C683 C 0.57228 0.27361 0.88763 0.0
C684 C 0.59576 0.27434 0.92189 0.0
C685 C 0.90615 0.20878 0.42455 0.0
C686 C 0.87627 0.18341 0.42716 0.0
C687 C 0.93132 0.21126 0.39231 0.0
C688 C 0.92691 0.18885 0.36145 0.0
H689 H 0.91328 0.22416 0.44923 0.0
H690 H 0.95707 0.2284 0.39327 0.0
S691 S 0.84776 0.12275 0.35129 0.0
N692 N 0.83943 0.13911 0.39392 0.0
N693 N 0.88648 0.1441 0.3331 0.0
C694 C 0.89371 0.16649 0.36164 0.0
C695 C 0.86843 0.16364 0.39467 0.0
C696 C 0.9125 0.78321 0.92576 0.0
C697 C 0.88266 0.80827 0.93 0.0
C698 C 0.93555 0.7811 0.89212 0.0
C699 C 0.92908 0.80365 0.86152 0.0
H700 H 0.92133 0.76785 0.95005 0.0
H701 H 0.96156 0.76433 0.89176 0.0
S702 S 0.8485 0.86865 0.85555 0.0
N703 N 0.84335 0.85229 0.89878 0.0
N704 N 0.88606 0.8477 0.83518 0.0
C705 C 0.89554 0.82546 0.86345 0.0
C706 C 0.87254 0.82805 0.89795 0.0
C707 C 0.58731 0.72399 0.42523 0.0
C708 C 0.62268 0.70461 0.43001 0.0
C709 C 0.56306 0.72046 0.39253 0.0
C710 C 0.57354 0.69763 0.36343 0.0
H711 H 0.57628 0.73948 0.44847 0.0
H712 H 0.53399 0.7333 0.39167 0.0
S713 S 0.66622 0.64472 0.36012 0.0
N714 N 0.66943 0.66467 0.40141 0.0
N715 N 0.62406 0.65838 0.33957 0.0
C716 C 0.61104 0.68086 0.36608 0.0
C717 C 0.63553 0.68417 0.39963 0.0
C718 C 0.39455 0.71157 0.10048 0.0
C719 C 0.36791 0.68379 0.09843 0.0
C720 C 0.41959 0.71629 0.13247 0.0
C721 C 0.4185 0.6936 0.16355 0.0
H722 H 0.39958 0.72736 0.07557 0.0
H723 H 0.44318 0.73544 0.13095 0.0
S724 S 0.34626 0.62244 0.17608 0.0
N725 N 0.33606 0.63747 0.13305 0.0
N726 N 0.38283 0.64665 0.19343 0.0
C727 C 0.38765 0.66899 0.16422 0.0
C728 C 0.3625 0.66389 0.13142 0.0
C729 C 0.09054 0.77369 0.59571 0.0
C730 C 0.12457 0.79482 0.59112 0.0
C731 C 0.06624 0.77571 0.62852 0.0
C732 C 0.07541 0.79869 0.65791 0.0
H733 H 0.08046 0.75789 0.57231 0.0
H734 H 0.03794 0.76159 0.62921 0.0
S735 S 0.16503 0.85548 0.662 0.0
N736 N 0.16911 0.83637 0.62028 0.0
N737 N 0.12383 0.83968 0.68244 0.0
C738 C 0.11192 0.8171 0.65549 0.0
C739 C 0.13634 0.81542 0.62179 0.0
C740 C 0.16713 0.26184 0.28526 0.0
C741 C 0.20243 0.24258 0.29159 0.0
C742 C 0.13029 0.24619 0.27512 0.0
C743 C 0.12799 0.21098 0.27036 0.0
H744 H 0.16695 0.28855 0.29202 0.0
H745 H 0.10273 0.26116 0.27508 0.0
S746 S 0.21341 0.15044 0.27667 0.0
N747 N 0.23409 0.18737 0.28723 0.0
N748 N 0.16501 0.15812 0.26742 0.0
C749 C 0.16409 0.1922 0.2721 0.0
C750 C 0.20136 0.20796 0.28303 0.0
C751 C 0.34444 0.24144 0.7827 0.0
C752 C 0.3084 0.25865 0.79217 0.0
C753 C 0.37967 0.25937 0.77193 0.0
C754 C 0.37959 0.29487 0.77018 0.0
H755 H 0.34662 0.21442 0.78736 0.0
H756 H 0.40803 0.24569 0.76923 0.0
S757 S 0.2908 0.35084 0.78423 0.0
N758 N 0.27305 0.31244 0.79284 0.0
N759 N 0.33918 0.346 0.77279 0.0
C760 C 0.34251 0.31181 0.77503 0.0
C761 C 0.30686 0.29371 0.78607 0.0
C762 C 0.70262 0.29157 0.73152 0.0
C763 C 0.70198 0.25626 0.72735 0.0
C764 C 0.66755 0.30915 0.7423 0.0
C765 C 0.63071 0.29203 0.74904 0.0
H766 H 0.72928 0.30591 0.72303 0.0
H767 H 0.66808 0.33654 0.74104 0.0
S768 S 0.61502 0.19941 0.74851 0.0
N769 N 0.66322 0.20443 0.73624 0.0
N770 N 0.59707 0.23778 0.75614 0.0
C771 C 0.63097 0.25659 0.74946 0.0
C772 C 0.66677 0.23858 0.7386 0.0
C773 C 0.85052 0.26743 0.23069 0.0
C774 C 0.81373 0.24956 0.22659 0.0
C775 C 0.88641 0.25065 0.24142 0.0
C776 C 0.88635 0.21571 0.24893 0.0
H777 H 0.8525 0.29363 0.22175 0.0
H778 H 0.91499 0.2643 0.23977 0.0
S779 S 0.7965 0.15911 0.24909 0.0
N780 N 0.77824 0.19633 0.23628 0.0
N781 N 0.84565 0.16494 0.25646 0.0
C782 C 0.84892 0.19861 0.24928 0.0
C783 C 0.81254 0.21552 0.23802 0.0
C784 C 0.84646 0.73757 0.7437 0.0
C785 C 0.80966 0.7518 0.73078 0.0
C786 C 0.88036 0.75814 0.75188 0.0
C787 C 0.87821 0.79342 0.74746 0.0
H788 H 0.85006 0.71037 0.7445 0.0
H789 H 0.90927 0.74621 0.75807 0.0
S790 S 0.78667 0.84315 0.72223 0.0
N791 N 0.77141 0.80339 0.71998 0.0
N792 N 0.83501 0.84186 0.73506 0.0
C793 C 0.84046 0.80794 0.73852 0.0
C794 C 0.80617 0.78716 0.73016 0.0
C795 C 0.66639 0.76469 0.23738 0.0
C796 C 0.70016 0.74402 0.22973 0.0
C797 C 0.62898 0.75053 0.24842 0.0
C798 C 0.62449 0.71539 0.25281 0.0
H799 H 0.66766 0.7915 0.23102 0.0
H800 H 0.60245 0.76671 0.24937 0.0
S801 S 0.70577 0.65131 0.24363 0.0
N802 N 0.72844 0.68746 0.23295 0.0
N803 N 0.65819 0.66093 0.25409 0.0
C804 C 0.6593 0.69509 0.2499 0.0
C805 C 0.69718 0.70937 0.23808 0.0
C806 C 0.34558 0.75798 0.27774 0.0
C807 C 0.30869 0.74438 0.29146 0.0
C808 C 0.37915 0.73698 0.27031 0.0
C809 C 0.37664 0.70191 0.27649 0.0
H810 H 0.34952 0.78512 0.27565 0.0
H811 H 0.4081 0.74854 0.26316 0.0
S812 S 0.28456 0.65346 0.30405 0.0
N813 N 0.26981 0.69334 0.30456 0.0
N814 N 0.3329 0.65411 0.29119 0.0
C815 C 0.33879 0.68787 0.28632 0.0
C816 C 0.30478 0.70908 0.29371 0.0
C817 C 0.19987 0.78798 0.78858 0.0
C818 C 0.19808 0.75284 0.79427 0.0
C819 C 0.16553 0.80597 0.7765 0.0
C820 C 0.12824 0.78944 0.77005 0.0
H821 H 0.22685 0.80198 0.79682 0.0
H822 H 0.16688 0.83335 0.77655 0.0
S823 S 0.10975 0.69723 0.77443 0.0
N824 N 0.15791 0.7016 0.7871 0.0
N825 N 0.09308 0.73572 0.76487 0.0
C826 C 0.12745 0.75401 0.77114 0.0
C827 C 0.16253 0.73558 0.78328 0.0
loop_
_geom_bond_atom_site_label_1
_geom_bond_atom_site_label_2
_geom_bond_distance
_geom_bond_site_symmetry_2
_ccdc_geom_bond_type
C0 C1 1.391 . S
C0 C4 1.391 . S
C0 H42 0.948 . S
C1 C0 1.391 . S
C1 C2 1.391 . S
C2 C1 1.391 . S
C2 H58 0.947 . S
C2 C59 1.392 . S
C3 C4 1.391 . S
C3 C7 1.397 . S
C3 C59 1.419 . S
C4 C0 1.391 . S
C4 C3 1.391 . S
C4 C5 1.399 . S
C5 C4 1.399 . S
C5 C8 1.396 . S
C5 C17 1.453 . S
C5 C18 1.684 . S
H6 C30 0.948 . S
C7 C3 1.397 . S
C7 C8 1.394 . S
C7 C26 1.723 . S
C8 C5 1.396 . S
C8 C7 1.394 . S
C8 C38 1.723 . S
H9 C32 0.947 . S
H10 C33 0.948 . S
H11 C39 0.982 . S
H12 C40 0.979 . S
H13 C40 0.980 . S
H14 C40 0.983 . S
H15 C39 0.979 . S
H16 C39 0.977 . S
C17 C5 1.453 . S
C17 H46 0.982 . S
C17 H47 0.979 . S
C17 H48 0.977 . S
C18 C5 1.684 . S
C18 H43 0.979 . S
C18 H44 0.980 . S
C18 H45 0.983 . S
C19 C20 1.391 . S
C19 C24 1.391 . S
C19 H49 0.948 . S
C20 C19 1.391 . S
C20 C21 1.391 . S
C21 C20 1.391 . S
C21 C22 1.392 . S
C21 H50 0.947 . S
C22 C21 1.392 . S
C22 C23 1.419 . S
C22 H51 0.948 . S
C23 C22 1.419 . S
C23 C24 1.391 . S
C23 C27 1.397 . S
C24 C19 1.391 . S
C24 C23 1.391 . S
C24 C25 1.399 . S
C25 C24 1.399 . S
C25 C26 1.396 . S
C25 C28 1.453 . S
C25 C29 1.684 . S
C26 C7 1.723 . S
C26 C25 1.396 . S
C26 C27 1.394 . S
C27 C23 1.397 . S
C27 C26 1.394 . S
C27 C37 1.723 . S
C28 C25 1.453 . S
C28 H52 0.982 . S
C28 H53 0.979 . S
C28 H54 0.977 . S
C29 C25 1.684 . S
C29 H55 0.979 . S
C29 H56 0.980 . S
C29 H57 0.983 . S
C30 H6 0.948 . S
C30 C31 1.391 . S
C30 C35 1.391 . S
C31 C30 1.391 . S
C31 C32 1.391 . S
C32 H9 0.947 . S
C32 C31 1.391 . S
C32 C33 1.392 . S
C33 H10 0.948 . S
C33 C32 1.392 . S
C33 C34 1.419 . S
C34 C33 1.419 . S
C34 C35 1.391 . S
C34 C38 1.397 . S
C35 C30 1.391 . S
C35 C34 1.391 . S
C35 C36 1.399 . S
C36 C35 1.399 . S
C36 C37 1.396 . S
C36 C39 1.453 . S
C36 C40 1.684 . S
C37 C27 1.723 . S
C37 C36 1.396 . S
C37 C38 1.394 . S
C38 C8 1.723 . S
C38 C34 1.397 . S
C38 C37 1.394 . S
C39 H11 0.982 . S
C39 H15 0.979 . S
C39 H16 0.977 . S
C39 C36 1.453 . S
C40 H12 0.979 . S
C40 H13 0.980 . S
C40 H14 0.983 . S
C40 C36 1.684 . S
H41 C59 0.948 . S
H42 C0 0.948 . S
H43 C18 0.979 . S
H44 C18 0.980 . S
H45 C18 0.983 . S
H46 C17 0.982 . S
H47 C17 0.979 . S
H48 C17 0.977 . S
H49 C19 0.948 . S
H50 C21 0.947 . S
H51 C22 0.948 . S
H52 C28 0.982 . S
H53 C28 0.979 . S
H54 C28 0.977 . S
H55 C29 0.979 . S
H56 C29 0.980 . S
H57 C29 0.983 . S
H58 C2 0.947 . S
C59 C2 1.392 . S
C59 C3 1.419 . S
C59 H41 0.948 . S
C60 C61 1.391 . S
C60 C64 1.391 . S
C60 H102 0.948 . S
C61 C60 1.391 . S
C61 C62 1.391 . S
C62 C61 1.391 . S
C62 H118 0.947 . S
C62 C119 1.392 . S
C63 C64 1.391 . S
C63 C67 1.397 . S
C63 C119 1.419 . S
C64 C60 1.391 . S
C64 C63 1.391 . S
C64 C65 1.399 . S
C65 C64 1.399 . S
C65 C68 1.396 . S
C65 C77 1.453 . S
C65 C78 1.684 . S
H66 C90 0.948 . S
C67 C63 1.397 . S
C67 C68 1.394 . S
C67 C86 1.723 . S
C68 C65 1.396 . S
C68 C67 1.394 . S
C68 C98 1.723 . S
H69 C92 0.947 . S
H70 C93 0.948 . S
H71 C99 0.982 . S
H72 C100 0.979 . S
H73 C100 0.980 . S
H74 C100 0.983 . S
H75 C99 0.979 . S
H76 C99 0.977 . S
C77 C65 1.453 . S
C77 H106 0.982 . S
C77 H107 0.979 . S
C77 H108 0.977 . S
C78 C65 1.684 . S
C78 H103 0.979 . S
C78 H104 0.980 . S
C78 H105 0.983 . S
C79 C80 1.391 . S
C79 C84 1.391 1_554 S
C79 H109 0.948 . S
C80 C79 1.391 . S
C80 C81 1.391 . S
C81 C80 1.391 . S
C81 C82 1.392 1_554 S
C81 H110 0.947 . S
C82 C81 1.392 1_556 S
C82 C83 1.419 . S
C82 H111 0.948 . S
C83 C82 1.419 . S
C83 C84 1.391 . S
C83 C87 1.397 . S
C84 C79 1.391 1_556 S
C84 C83 1.391 . S
C84 C85 1.399 . S
C85 C84 1.399 . S
C85 C86 1.396 . S
C85 C88 1.453 . S
C85 C89 1.684 . S
C86 C67 1.723 . S
C86 C85 1.396 . S
C86 C87 1.394 . S
C87 C83 1.397 . S
C87 C86 1.394 . S
C87 C97 1.723 . S
C88 C85 1.453 . S
C88 H112 0.982 . S
C88 H113 0.979 . S
C88 H114 0.977 . S
C89 C85 1.684 . S
C89 H115 0.979 . S
C89 H116 0.980 . S
C89 H117 0.983 . S
C90 H66 0.948 . S
C90 C91 1.391 . S
C90 C95 1.391 . S
C91 C90 1.391 . S
C91 C92 1.391 . S
C92 H69 0.947 . S
C92 C91 1.391 . S
C92 C93 1.392 . S
C93 H70 0.948 . S
C93 C92 1.392 . S
C93 C94 1.419 . S
C94 C93 1.419 . S
C94 C95 1.391 . S
C94 C98 1.397 . S
C95 C90 1.391 . S
C95 C94 1.391 . S
C95 C96 1.399 . S
C96 C95 1.399 . S
C96 C97 1.396 . S
C96 C99 1.453 . S
C96 C100 1.684 . S
C97 C87 1.723 . S
C97 C96 1.396 . S
C97 C98 1.394 . S
C98 C68 1.723 . S
C98 C94 1.397 . S
C98 C97 1.394 . S
C99 H71 0.982 . S
C99 H75 0.979 . S
C99 H76 0.977 . S
C99 C96 1.453 . S
C100 H72 0.979 . S
C100 H73 0.980 . S
C100 H74 0.983 . S
C100 C96 1.684 . S
H101 C119 0.948 . S
H102 C60 0.948 . S
H103 C78 0.979 . S
H104 C78 0.980 . S
H105 C78 0.983 . S
H106 C77 0.982 . S
H107 C77 0.979 . S
H108 C77 0.977 . S
H109 C79 0.948 . S
H110 C81 0.947 . S
H111 C82 0.948 . S
H112 C88 0.982 . S
H113 C88 0.979 . S
H114 C88 0.977 . S
H115 C89 0.979 . S
H116 C89 0.980 . S
H117 C89 0.983 . S
H118 C62 0.947 . S
C119 C62 1.392 . S
C119 C63 1.419 . S
C119 H101 0.948 . S
C120 C121 1.391 . S
C120 C124 1.391 . S
C120 H162 0.948 . S
C121 C120 1.391 . S
C121 C122 1.391 . S
C122 C121 1.391 . S
C122 H178 0.947 . S
C122 C179 1.392 . S
C123 C124 1.391 . S
C123 C127 1.397 . S
C123 C179 1.419 . S
C124 C120 1.391 . S
C124 C123 1.391 . S
C124 C125 1.399 . S
C125 C124 1.399 . S
C125 C128 1.396 . S
C125 C137 1.453 . S
C125 C138 1.684 . S
H126 C150 0.948 . S
C127 C123 1.397 . S
C127 C128 1.394 . S
C127 C146 1.723 . S
C128 C125 1.396 . S
C128 C127 1.394 . S
C128 C158 1.723 . S
H129 C152 0.947 . S
H130 C153 0.948 . S
H131 C159 0.982 . S
H132 C160 0.979 . S
H133 C160 0.980 . S
H134 C160 0.983 . S
H135 C159 0.979 . S
H136 C159 0.977 . S
C137 C125 1.453 . S
C137 H166 0.982 . S
C137 H167 0.979 . S
C137 H168 0.977 . S
C138 C125 1.684 . S
C138 H163 0.979 . S
C138 H164 0.980 . S
C138 H165 0.983 . S
C139 C140 1.391 . S
C139 C144 1.391 . S
C139 H169 0.948 . S
C140 C139 1.391 . S
C140 C141 1.391 . S
C141 C140 1.391 . S
C141 C142 1.392 . S
C141 H170 0.947 . S
C142 C141 1.392 . S
C142 C143 1.419 . S
C142 H171 0.948 . S
C143 C142 1.419 . S
C143 C144 1.391 . S
C143 C147 1.397 . S
C144 C139 1.391 . S
C144 C143 1.391 . S
C144 C145 1.399 . S
C145 C144 1.399 . S
C145 C146 1.396 . S
C145 C148 1.453 . S
C145 C149 1.684 . S
C146 C127 1.723 . S
C146 C145 1.396 . S
C146 C147 1.394 . S
C147 C143 1.397 . S
C147 C146 1.394 . S
C147 C157 1.723 . S
C148 C145 1.453 . S
C148 H172 0.982 . S
C148 H173 0.979 . S
C148 H174 0.977 . S
C149 C145 1.684 . S
C149 H175 0.979 . S
C149 H176 0.980 . S
C149 H177 0.983 . S
C150 H126 0.948 . S
C150 C151 1.391 . S
C150 C155 1.391 . S
C151 C150 1.391 . S
C151 C152 1.391 . S
C152 H129 0.947 . S
C152 C151 1.391 . S
C152 C153 1.392 . S
C153 H130 0.948 . S
C153 C152 1.392 . S
C153 C154 1.419 . S
C154 C153 1.419 . S
C154 C155 1.391 . S
C154 C158 1.397 . S
C155 C150 1.391 . S
C155 C154 1.391 . S
C155 C156 1.399 . S
C156 C155 1.399 . S
C156 C157 1.396 . S
C156 C159 1.453 . S
C156 C160 1.684 . S
C157 C147 1.723 . S
C157 C156 1.396 . S
C157 C158 1.394 . S
C158 C128 1.723 . S
C158 C154 1.397 . S
C158 C157 1.394 . S
C159 H131 0.982 . S
C159 H135 0.979 . S
C159 H136 0.977 . S
C159 C156 1.453 . S
C160 H132 0.979 . S
C160 H133 0.980 . S
C160 H134 0.983 . S
C160 C156 1.684 . S
H161 C179 0.948 . S
H162 C120 0.948 . S
H163 C138 0.979 . S
H164 C138 0.980 . S
H165 C138 0.983 . S
H166 C137 0.982 . S
H167 C137 0.979 . S
H168 C137 0.977 . S
H169 C139 0.948 . S
H170 C141 0.947 . S
H171 C142 0.948 . S
H172 C148 0.982 . S
H173 C148 0.979 . S
H174 C148 0.977 . S
H175 C149 0.979 . S
H176 C149 0.980 . S
H177 C149 0.983 . S
H178 C122 0.947 . S
C179 C122 1.392 . S
C179 C123 1.419 . S
C179 H161 0.948 . S
C180 C181 1.391 . S
C180 C184 1.391 . S
C180 H222 0.948 . S
C181 C180 1.391 . S
C181 C182 1.391 . S
C182 C181 1.391 . S
C182 H238 0.947 . S
C182 C239 1.392 . S
C183 C184 1.391 . S
C183 C187 1.397 . S
C183 C239 1.419 . S
C184 C180 1.391 . S
C184 C183 1.391 . S
C184 C185 1.399 . S
C185 C184 1.399 . S
C185 C188 1.396 . S
C185 C197 1.453 . S
C185 C198 1.684 . S
H186 C210 0.948 . S
C187 C183 1.397 . S
C187 C188 1.394 . S
C187 C206 1.723 . S
C188 C185 1.396 . S
C188 C187 1.394 . S
C188 C218 1.723 . S
H189 C212 0.947 . S
H190 C213 0.948 . S
H191 C219 0.982 . S
H192 C220 0.979 . S
H193 C220 0.980 . S
H194 C220 0.983 . S
H195 C219 0.979 . S
H196 C219 0.977 . S
C197 C185 1.453 . S
C197 H226 0.982 . S
C197 H227 0.979 . S
C197 H228 0.977 . S
C198 C185 1.684 . S
C198 H223 0.979 . S
C198 H224 0.980 . S
C198 H225 0.983 . S
C199 C200 1.391 . S
C199 C204 1.391 1_556 S
C199 H229 0.948 . S
C200 C199 1.391 . S
C200 C201 1.391 . S
C201 C200 1.391 . S
C201 C202 1.392 1_556 S
C201 H230 0.947 . S
C202 C201 1.392 1_554 S
C202 C203 1.419 . S
C202 H231 0.948 . S
C203 C202 1.419 . S
C203 C204 1.391 . S
C203 C207 1.397 . S
C204 C199 1.391 1_554 S
C204 C203 1.391 . S
C204 C205 1.399 . S
C205 C204 1.399 . S
C205 C206 1.396 . S
C205 C208 1.453 . S
C205 C209 1.684 . S
C206 C187 1.723 . S
C206 C205 1.396 . S
C206 C207 1.394 . S
C207 C203 1.397 . S
C207 C206 1.394 . S
C207 C217 1.723 . S
C208 C205 1.453 . S
C208 H232 0.982 . S
C208 H233 0.979 . S
C208 H234 0.977 . S
C209 C205 1.684 . S
C209 H235 0.979 . S
C209 H236 0.980 . S
C209 H237 0.983 . S
C210 H186 0.948 . S
C210 C211 1.391 . S
C210 C215 1.391 . S
C211 C210 1.391 . S
C211 C212 1.391 . S
C212 H189 0.947 . S
C212 C211 1.391 . S
C212 C213 1.392 . S
C213 H190 0.948 . S
C213 C212 1.392 . S
C213 C214 1.419 . S
C214 C213 1.419 . S
C214 C215 1.391 . S
C214 C218 1.397 . S
C215 C210 1.391 . S
C215 C214 1.391 . S
C215 C216 1.399 . S
C216 C215 1.399 . S
C216 C217 1.396 . S
C216 C219 1.453 . S
C216 C220 1.684 . S
C217 C207 1.723 . S
C217 C216 1.396 . S
C217 C218 1.394 . S
C218 C188 1.723 . S
C218 C214 1.397 . S
C218 C217 1.394 . S
C219 H191 0.982 . S
C219 H195 0.979 . S
C219 H196 0.977 . S
C219 C216 1.453 . S
C220 H192 0.979 . S
C220 H193 0.980 . S
C220 H194 0.983 . S
C220 C216 1.684 . S
H221 C239 0.948 . S
H222 C180 0.948 . S
H223 C198 0.979 . S
H224 C198 0.980 . S
H225 C198 0.983 . S
H226 C197 0.982 . S
H227 C197 0.979 . S
H228 C197 0.977 . S
H229 C199 0.948 . S
H230 C201 0.947 . S
H231 C202 0.948 . S
H232 C208 0.982 . S
H233 C208 0.979 . S
H234 C208 0.977 . S
H235 C209 0.979 . S
H236 C209 0.980 . S
H237 C209 0.983 . S
H238 C182 0.947 . S
C239 C182 1.392 . S
C239 C183 1.419 . S
C239 H221 0.948 . S
C240 C241 1.391 . S
C240 C244 1.391 . S
C240 H282 0.948 . S
C241 C240 1.391 . S
C241 C242 1.391 . S
C242 C241 1.391 . S
C242 H298 0.947 . S
C242 C299 1.392 . S
C243 C244 1.391 . S
C243 C247 1.397 . S
C243 C299 1.419 . S
C244 C240 1.391 . S
C244 C243 1.391 . S
C244 C245 1.399 . S
C245 C244 1.399 . S
C245 C248 1.396 . S
C245 C257 1.453 . S
C245 C258 1.684 . S
H246 C270 0.948 . S
C247 C243 1.397 . S
C247 C248 1.394 . S
C247 C266 1.723 . S
C248 C245 1.396 . S
C248 C247 1.394 . S
C248 C278 1.723 . S
H249 C272 0.947 . S
H250 C273 0.948 . S
H251 C279 0.982 . S
H252 C280 0.979 . S
H253 C280 0.980 . S
H254 C280 0.983 . S
H255 C279 0.979 . S
H256 C279 0.977 . S
C257 C245 1.453 . S
C257 H286 0.982 . S
C257 H287 0.979 . S
C257 H288 0.977 . S
C258 C245 1.684 . S
C258 H283 0.979 . S
C258 H284 0.980 . S
C258 H285 0.983 . S
C259 C260 1.391 . S
C259 C264 1.391 . S
C259 H289 0.948 . S
C260 C259 1.391 . S
C260 C261 1.391 . S
C261 C260 1.391 . S
C261 C262 1.392 . S
C261 H290 0.947 . S
C262 C261 1.392 . S
C262 C263 1.419 . S
C262 H291 0.948 . S
C263 C262 1.419 . S
C263 C264 1.391 . S
C263 C267 1.397 . S
C264 C259 1.391 . S
C264 C263 1.391 . S
C264 C265 1.399 . S
C265 C264 1.399 . S
C265 C266 1.396 . S
C265 C268 1.453 . S
C265 C269 1.684 . S
C266 C247 1.723 . S
C266 C265 1.396 . S
C266 C267 1.394 . S
C267 C263 1.397 . S
C267 C266 1.394 . S
C267 C277 1.723 . S
C268 C265 1.453 . S
C268 H292 0.982 . S
C268 H293 0.979 . S
C268 H294 0.977 . S
C269 C265 1.684 . S
C269 H295 0.979 . S
C269 H296 0.980 . S
C269 H297 0.983 . S
C270 H246 0.948 . S
C270 C271 1.391 . S
C270 C275 1.391 . S
C271 C270 1.391 . S
C271 C272 1.391 . S
C272 H249 0.947 . S
C272 C271 1.391 . S
C272 C273 1.392 . S
C273 H250 0.948 . S
C273 C272 1.392 . S
C273 C274 1.419 . S
C274 C273 1.419 . S
C274 C275 1.391 . S
C274 C278 1.397 . S
C275 C270 1.391 . S
C275 C274 1.391 . S
C275 C276 1.399 . S
C276 C275 1.399 . S
C276 C277 1.396 . S
C276 C279 1.453 . S
C276 C280 1.684 . S
C277 C267 1.723 . S
C277 C276 1.396 . S
C277 C278 1.394 . S
C278 C248 1.723 . S
C278 C274 1.397 . S
C278 C277 1.394 . S
C279 H251 0.982 . S
C279 H255 0.979 . S
C279 H256 0.977 . S
C279 C276 1.453 . S
C280 H252 0.979 . S
C280 H253 0.980 . S
C280 H254 0.983 . S
C280 C276 1.684 . S
H281 C299 0.948 . S
H282 C240 0.948 . S
H283 C258 0.979 . S
H284 C258 0.980 . S
H285 C258 0.983 . S
H286 C257 0.982 . S
H287 C257 0.979 . S
H288 C257 0.977 . S
H289 C259 0.948 . S
H290 C261 0.947 . S
H291 C262 0.948 . S
H292 C268 0.982 . S
H293 C268 0.979 . S
H294 C268 0.977 . S
H295 C269 0.979 . S
H296 C269 0.980 . S
H297 C269 0.983 . S
H298 C242 0.947 . S
C299 C242 1.392 . S
C299 C243 1.419 . S
C299 H281 0.948 . S
C300 C301 1.391 . S
C300 C304 1.391 . S
C300 H342 0.948 . S
C301 C300 1.391 . S
C301 C302 1.391 . S
C302 C301 1.391 . S
C302 H358 0.947 . S
C302 C359 1.392 . S
C303 C304 1.391 . S
C303 C307 1.397 . S
C303 C359 1.419 . S
C304 C300 1.391 . S
C304 C303 1.391 . S
C304 C305 1.399 . S
C305 C304 1.399 . S
C305 C308 1.396 . S
C305 C317 1.453 . S
C305 C318 1.684 . S
H306 C330 0.948 . S
C307 C303 1.397 . S
C307 C308 1.394 . S
C307 C326 1.723 . S
C308 C305 1.396 . S
C308 C307 1.394 . S
C308 C338 1.723 . S
H309 C332 0.947 . S
H310 C333 0.948 . S
H311 C339 0.982 . S
H312 C340 0.979 . S
H313 C340 0.980 . S
H314 C340 0.983 . S
H315 C339 0.979 . S
H316 C339 0.977 . S
C317 C305 1.453 . S
C317 H346 0.982 . S
C317 H347 0.979 . S
C317 H348 0.977 . S
C318 C305 1.684 . S
C318 H343 0.979 . S
C318 H344 0.980 . S
C318 H345 0.983 . S
C319 C320 1.391 . S
C319 C324 1.391 1_556 S
C319 H349 0.948 . S
C320 C319 1.391 . S
C320 C321 1.391 . S
C321 C320 1.391 . S
C321 C322 1.392 1_556 S
C321 H350 0.947 . S
C322 C321 1.392 1_554 S
C322 C323 1.419 . S
C322 H351 0.948 . S
C323 C322 1.419 . S
C323 C324 1.391 . S
C323 C327 1.397 . S
C324 C319 1.391 1_554 S
C324 C323 1.391 . S
C324 C325 1.399 . S
C325 C324 1.399 . S
C325 C326 1.396 . S
C325 C328 1.453 . S
C325 C329 1.684 . S
C326 C307 1.723 . S
C326 C325 1.396 . S
C326 C327 1.394 . S
C327 C323 1.397 . S
C327 C326 1.394 . S
C327 C337 1.723 . S
C328 C325 1.453 . S
C328 H352 0.982 . S
C328 H353 0.979 . S
C328 H354 0.977 . S
C329 C325 1.684 . S
C329 H355 0.979 . S
C329 H356 0.980 . S
C329 H357 0.972 1_554 S
C330 H306 0.948 . S
C330 C331 1.391 . S
C330 C335 1.391 . S
C331 C330 1.391 . S
C331 C332 1.391 . S
C332 H309 0.947 . S
C332 C331 1.391 . S
C332 C333 1.392 . S
C333 H310 0.948 . S
C333 C332 1.392 . S
C333 C334 1.419 . S
C334 C333 1.419 . S
C334 C335 1.391 . S
C334 C338 1.397 . S
C335 C330 1.391 . S
C335 C334 1.391 . S
C335 C336 1.399 . S
C336 C335 1.399 . S
C336 C337 1.396 . S
C336 C339 1.453 . S
C336 C340 1.684 . S
C337 C327 1.723 . S
C337 C336 1.396 . S
C337 C338 1.394 . S
C338 C308 1.723 . S
C338 C334 1.397 . S
C338 C337 1.394 . S
C339 H311 0.982 . S
C339 H315 0.979 . S
C339 H316 0.977 . S
C339 C336 1.453 . S
C340 H312 0.979 . S
C340 H313 0.980 . S
C340 H314 0.983 . S
C340 C336 1.684 . S
H341 C359 0.948 . S
H342 C300 0.948 . S
H343 C318 0.979 . S
H344 C318 0.980 . S
H345 C318 0.983 . S
H346 C317 0.982 . S
H347 C317 0.979 . S
H348 C317 0.977 . S
H349 C319 0.948 . S
H350 C321 0.947 . S
H351 C322 0.948 . S
H352 C328 0.982 . S
H353 C328 0.979 . S
H354 C328 0.977 . S
H355 C329 0.979 . S
H356 C329 0.980 . S
H357 C329 0.972 1_556 S
H358 C302 0.947 . S
C359 C302 1.392 . S
C359 C303 1.419 . S
C359 H341 0.948 . S
C360 C361 1.391 . S
C360 C364 1.391 . S
C360 H402 0.948 . S
C361 C360 1.391 . S
C361 C362 1.391 . S
C362 C361 1.391 . S
C362 H418 0.947 . S
C362 C419 1.392 . S
C363 C364 1.391 . S
C363 C367 1.397 . S
C363 C419 1.419 . S
C364 C360 1.391 . S
C364 C363 1.391 . S
C364 C365 1.399 . S
C365 C364 1.399 . S
C365 C368 1.396 . S
C365 C377 1.453 . S
C365 C378 1.684 . S
H366 C390 0.948 . S
C367 C363 1.397 . S
C367 C368 1.394 . S
C367 C386 1.723 . S
C368 C365 1.396 . S
C368 C367 1.394 . S
C368 C398 1.723 . S
H369 C392 0.947 . S
H370 C393 0.948 . S
H371 C399 0.982 . S
H372 C400 0.979 . S
H373 C400 0.980 . S
H374 C400 0.983 . S
H375 C399 0.979 . S
H376 C399 0.977 . S
C377 C365 1.453 . S
C377 H406 0.982 . S
C377 H407 0.979 . S
C377 H408 0.977 . S
C378 C365 1.684 . S
C378 H403 0.979 . S
C378 H404 0.980 . S
C378 H405 0.983 . S
C379 C380 1.391 . S
C379 C384 1.391 . S
C379 H409 0.948 . S
C380 C379 1.391 . S
C380 C381 1.391 . S
C381 C380 1.391 . S
C381 C382 1.392 . S
C381 H410 0.947 . S
C382 C381 1.392 . S
C382 C383 1.419 . S
C382 H411 0.948 . S
C383 C382 1.419 . S
C383 C384 1.391 . S
C383 C387 1.397 . S
C384 C379 1.391 . S
C384 C383 1.391 . S
C384 C385 1.399 . S
C385 C384 1.399 . S
C385 C386 1.396 . S
C385 C388 1.453 . S
C385 C389 1.684 . S
C386 C367 1.723 . S
C386 C385 1.396 . S
C386 C387 1.394 . S
C387 C383 1.397 . S
C387 C386 1.394 . S
C387 C397 1.723 . S
C388 C385 1.453 . S
C388 H412 0.982 . S
C388 H413 0.979 . S
C388 H414 0.977 . S
C389 C385 1.684 . S
C389 H415 0.979 . S
C389 H416 0.980 . S
C389 H417 0.983 . S
C390 H366 0.948 . S
C390 C391 1.391 . S
C390 C395 1.391 . S
C391 C390 1.391 . S
C391 C392 1.391 . S
C392 H369 0.947 . S
C392 C391 1.391 . S
C392 C393 1.392 . S
C393 H370 0.948 . S
C393 C392 1.392 . S
C393 C394 1.419 . S
C394 C393 1.419 . S
C394 C395 1.391 . S
C394 C398 1.397 . S
C395 C390 1.391 . S
C395 C394 1.391 . S
C395 C396 1.399 . S
C396 C395 1.399 . S
C396 C397 1.396 . S
C396 C399 1.453 . S
C396 C400 1.684 . S
C397 C387 1.723 . S
C397 C396 1.396 . S
C397 C398 1.394 . S
C398 C368 1.723 . S
C398 C394 1.397 . S
C398 C397 1.394 . S
C399 H371 0.982 . S
C399 H375 0.979 . S
C399 H376 0.977 . S
C399 C396 1.453 . S
C400 H372 0.979 . S
C400 H373 0.980 . S
C400 H374 0.983 . S
C400 C396 1.684 . S
H401 C419 0.948 . S
H402 C360 0.948 . S
H403 C378 0.979 . S
H404 C378 0.980 . S
H405 C378 0.983 . S
H406 C377 0.982 . S
H407 C377 0.979 . S
H408 C377 0.977 . S
H409 C379 0.948 . S
H410 C381 0.947 . S
H411 C382 0.948 . S
H412 C388 0.982 . S
H413 C388 0.979 . S
H414 C388 0.977 . S
H415 C389 0.979 . S
H416 C389 0.980 . S
H417 C389 0.983 . S
H418 C362 0.947 . S
C419 C362 1.392 . S
C419 C363 1.419 . S
C419 H401 0.948 . S
C420 C421 1.391 . S
C420 C424 1.391 . S
C420 H462 0.948 . S
C421 C420 1.391 . S
C421 C422 1.391 . S
C422 C421 1.391 . S
C422 H478 0.947 . S
C422 C479 1.392 . S
C423 C424 1.391 . S
C423 C427 1.397 . S
C423 C479 1.419 . S
C424 C420 1.391 . S
C424 C423 1.391 . S
C424 C425 1.399 . S
C425 C424 1.399 . S
C425 C428 1.396 . S
C425 C437 1.453 . S
C425 C438 1.684 . S
H426 C450 0.948 . S
C427 C423 1.397 . S
C427 C428 1.394 . S
C427 C446 1.723 . S
C428 C425 1.396 . S
C428 C427 1.394 . S
C428 C458 1.723 . S
H429 C452 0.947 . S
H430 C453 0.948 . S
H431 C459 0.982 . S
H432 C460 0.979 . S
H433 C460 0.980 . S
H434 C460 0.983 . S
H435 C459 0.979 . S
H436 C459 0.977 . S
C437 C425 1.453 . S
C437 H466 0.982 . S
C437 H467 0.979 . S
C437 H468 0.977 . S
C438 C425 1.684 . S
C438 H463 0.979 . S
C438 H464 0.980 . S
C438 H465 0.983 . S
C439 C440 1.391 . S
C439 C444 1.391 1_554 S
C439 H469 0.948 . S
C440 C439 1.391 . S
C440 C441 1.391 . S
C441 C440 1.391 . S
C441 C442 1.392 1_554 S
C441 H470 0.947 . S
C442 C441 1.392 1_556 S
C442 C443 1.419 . S
C442 H471 0.948 . S
C443 C442 1.419 . S
C443 C444 1.391 . S
C443 C447 1.397 . S
C444 C439 1.391 1_556 S
C444 C443 1.391 . S
C444 C445 1.399 . S
C445 C444 1.399 . S
C445 C446 1.396 . S
C445 C448 1.453 . S
C445 C449 1.684 . S
C446 C427 1.723 . S
C446 C445 1.396 . S
C446 C447 1.394 . S
C447 C443 1.397 . S
C447 C446 1.394 . S
C447 C457 1.723 . S
C448 C445 1.453 . S
C448 H472 0.982 . S
C448 H473 0.979 . S
C448 H474 0.977 . S
C449 C445 1.684 . S
C449 H475 0.979 . S
C449 H476 0.980 . S
C449 H477 0.983 . S
C450 H426 0.948 . S
C450 C451 1.391 . S
C450 C455 1.391 . S
C451 C450 1.391 . S
C451 C452 1.391 . S
C452 H429 0.947 . S
C452 C451 1.391 . S
C452 C453 1.392 . S
C453 H430 0.948 . S
C453 C452 1.392 . S
C453 C454 1.419 . S
C454 C453 1.419 . S
C454 C455 1.391 . S
C454 C458 1.397 . S
C455 C450 1.391 . S
C455 C454 1.391 . S
C455 C456 1.399 . S
C456 C455 1.399 . S
C456 C457 1.396 . S
C456 C459 1.453 . S
C456 C460 1.684 . S
C457 C447 1.723 . S
C457 C456 1.396 . S
C457 C458 1.394 . S
C458 C428 1.723 . S
C458 C454 1.397 . S
C458 C457 1.394 . S
C459 H431 0.982 . S
C459 H435 0.979 . S
C459 H436 0.977 . S
C459 C456 1.453 . S
C460 H432 0.979 . S
C460 H433 0.980 . S
C460 H434 0.983 . S
C460 C456 1.684 . S
H461 C479 0.948 . S
H462 C420 0.948 . S
H463 C438 0.979 . S
H464 C438 0.980 . S
H465 C438 0.983 . S
H466 C437 0.982 . S
H467 C437 0.979 . S
H468 C437 0.977 . S
H469 C439 0.948 . S
H470 C441 0.947 . S
H471 C442 0.948 . S
H472 C448 0.982 . S
H473 C448 0.979 . S
H474 C448 0.977 . S
H475 C449 0.979 . S
H476 C449 0.980 . S
H477 C449 0.983 . S
H478 C422 0.947 . S
C479 C422 1.392 . S
C479 C423 1.419 . S
C479 H461 0.948 . S
Zn480 O486 1.920 1_455 S
Zn480 O492 1.898 . S
Zn480 O495 1.905 . S
Zn481 O489 1.905 1_655 S
Zn481 O490 1.898 . S
Zn481 O498 1.920 . S
Zn482 O485 2.080 1_455 S
Zn482 O488 2.114 . S
Zn482 O491 2.120 1_455 S
Zn482 O493 2.120 . S
Zn482 O494 2.114 . S
Zn482 O497 2.080 1_455 S
C483 O488 1.166 . S
C483 O489 1.182 . S
C484 O490 1.167 . S
C484 O491 1.299 . S
O485 Zn482 2.080 1_655 S
O485 C499 1.305 . S
O486 Zn480 1.920 1_655 S
O486 C499 1.234 . S
C487 O492 1.167 . S
C487 O493 1.299 . S
O488 Zn482 2.114 . S
O488 C483 1.166 . S
O489 Zn481 1.905 1_455 S
O489 C483 1.182 . S
O490 Zn481 1.898 . S
O490 C484 1.167 . S
O491 Zn482 2.120 1_655 S
O491 C484 1.299 . S
O492 Zn480 1.898 . S
O492 C487 1.167 . S
O493 Zn482 2.120 . S
O493 C487 1.299 . S
O494 Zn482 2.114 . S
O494 C496 1.166 . S
O495 Zn480 1.905 . S
O495 C496 1.182 . S
C496 O494 1.166 . S
C496 O495 1.182 . S
O497 Zn482 2.080 1_655 S
O497 C500 1.305 . S
O498 Zn481 1.920 . S
O498 C500 1.234 . S
C499 O485 1.305 . S
C499 O486 1.234 . S
C500 O497 1.305 . S
C500 O498 1.234 . S
Zn501 O507 1.920 . S
Zn501 O513 1.898 . S
Zn501 O516 1.905 . S
Zn502 O510 1.905 . S
Zn502 O511 1.898 . S
Zn502 O519 1.920 . S
Zn503 O506 2.080 . S
Zn503 O509 2.114 . S
Zn503 O512 2.120 . S
Zn503 O514 2.120 . S
Zn503 O515 2.114 . S
Zn503 O518 2.080 . S
C504 O509 1.166 . S
C504 O510 1.182 . S
C505 O511 1.167 . S
C505 O512 1.299 . S
O506 Zn503 2.080 . S
O506 C520 1.305 . S
O507 Zn501 1.920 . S
O507 C520 1.234 . S
C508 O513 1.167 . S
C508 O514 1.299 . S
O509 Zn503 2.114 . S
O509 C504 1.166 . S
O510 Zn502 1.905 . S
O510 C504 1.182 . S
O511 Zn502 1.898 . S
O511 C505 1.167 . S
O512 Zn503 2.120 . S
O512 C505 1.299 . S
O513 Zn501 1.898 . S
O513 C508 1.167 . S
O514 Zn503 2.120 . S
O514 C508 1.299 . S
O515 Zn503 2.114 . S
O515 C517 1.166 . S
O516 Zn501 1.905 . S
O516 C517 1.182 . S
C517 O515 1.166 . S
C517 O516 1.182 . S
O518 Zn503 2.080 . S
O518 C521 1.305 . S
O519 Zn502 1.920 . S
O519 C521 1.234 . S
C520 O506 1.305 . S
C520 O507 1.234 . S
C521 O518 1.305 . S
C521 O519 1.234 . S
Zn522 O528 1.920 . S
Zn522 O534 1.898 . S
Zn522 O537 1.905 1_455 S
Zn523 O531 1.905 . S
Zn523 O532 1.898 . S
Zn523 O540 1.920 1_655 S
Zn524 O527 2.080 . S
Zn524 O530 2.114 1_455 S
Zn524 O533 2.120 1_455 S
Zn524 O535 2.120 . S
Zn524 O536 2.114 1_455 S
Zn524 O539 2.080 . S
C525 O530 1.166 . S
C525 O531 1.182 . S
C526 O532 1.167 . S
C526 O533 1.299 . S
O527 Zn524 2.080 . S
O527 C541 1.305 . S
O528 Zn522 1.920 . S
O528 C541 1.234 . S
C529 O534 1.167 . S
C529 O535 1.299 . S
O530 Zn524 2.114 1_655 S
O530 C525 1.166 . S
O531 Zn523 1.905 . S
O531 C525 1.182 . S
O532 Zn523 1.898 . S
O532 C526 1.167 . S
O533 Zn524 2.120 1_655 S
O533 C526 1.299 . S
O534 Zn522 1.898 . S
O534 C529 1.167 . S
O535 Zn524 2.120 . S
O535 C529 1.299 . S
O536 Zn524 2.114 1_655 S
O536 C538 1.166 . S
O537 Zn522 1.905 1_655 S
O537 C538 1.182 . S
C538 O536 1.166 . S
C538 O537 1.182 . S
O539 Zn524 2.080 . S
O539 C542 1.305 . S
O540 Zn523 1.920 1_455 S
O540 C542 1.234 . S
C541 O527 1.305 . S
C541 O528 1.234 . S
C542 O539 1.305 . S
C542 O540 1.234 . S
Zn543 O549 1.920 . S
Zn543 O555 1.898 . S
Zn543 O558 1.905 . S
Zn544 O552 1.905 . S
Zn544 O553 1.898 . S
Zn544 O561 1.920 . S
Zn545 O548 2.080 . S
Zn545 O551 2.114 . S
Zn545 O554 2.120 . S
Zn545 O556 2.120 . S
Zn545 O557 2.114 . S
Zn545 O560 2.080 . S
C546 O551 1.166 . S
C546 O552 1.182 . S
C547 O553 1.167 . S
C547 O554 1.299 . S
O548 Zn545 2.080 . S
O548 C562 1.305 . S
O549 Zn543 1.920 . S
O549 C562 1.234 . S
C550 O555 1.167 . S
C550 O556 1.299 . S
O551 Zn545 2.114 . S
O551 C546 1.166 . S
O552 Zn544 1.905 . S
O552 C546 1.182 . S
O553 Zn544 1.898 . S
O553 C547 1.167 . S
O554 Zn545 2.120 . S
O554 C547 1.299 . S
O555 Zn543 1.898 . S
O555 C550 1.167 . S
O556 Zn545 2.120 . S
O556 C550 1.299 . S
O557 Zn545 2.114 . S
O557 C559 1.166 . S
O558 Zn543 1.905 . S
O558 C559 1.182 . S
C559 O557 1.166 . S
C559 O558 1.182 . S
O560 Zn545 2.080 . S
O560 C563 1.305 . S
O561 Zn544 1.920 . S
O561 C563 1.234 . S
C562 O548 1.305 . S
C562 O549 1.234 . S
C563 O560 1.305 . S
C563 O561 1.234 . S
C564 C565 1.369 . S
C564 C566 1.419 1_565 S
C564 H568 0.930 . S
C565 C564 1.369 . S
C565 C574 1.429 1_565 S
C566 C564 1.419 1_545 S
C566 C567 1.363 . S
C566 H569 0.929 . S
C567 C566 1.363 . S
C567 C573 1.428 . S
H568 C564 0.930 . S
H569 C566 0.929 . S
S570 N571 1.613 . S
S570 N572 1.610 . S
N571 S570 1.613 . S
N571 C574 1.350 . S
N572 S570 1.610 . S
N572 C573 1.351 . S
C573 C567 1.428 . S
C573 N572 1.351 . S
C573 C574 1.434 . S
C574 C565 1.429 1_545 S
C574 N571 1.350 . S
C574 C573 1.434 . S
C575 C576 1.369 . S
C575 C577 1.419 . S
C575 H579 0.930 . S
C576 C575 1.369 . S
C576 C585 1.429 . S
C577 C575 1.419 . S
C577 C578 1.363 . S
C577 H580 0.929 . S
C578 C577 1.363 . S
C578 C584 1.428 . S
H579 C575 0.930 . S
H580 C577 0.929 . S
S581 N582 1.613 . S
S581 N583 1.610 . S
N582 S581 1.613 . S
N582 C585 1.350 . S
N583 S581 1.610 . S
N583 C584 1.351 . S
C584 C578 1.428 . S
C584 N583 1.351 . S
C584 C585 1.434 . S
C585 C576 1.429 . S
C585 N582 1.350 . S
C585 C584 1.434 . S
C586 C587 1.369 . S
C586 C588 1.419 . S
C586 H590 0.930 . S
C587 C586 1.369 . S
C587 C596 1.429 . S
C588 C586 1.419 . S
C588 C589 1.363 . S
C588 H591 0.929 . S
C589 C588 1.363 . S
C589 C595 1.428 . S
H590 C586 0.930 . S
H591 C588 0.929 . S
S592 N593 1.613 . S
S592 N594 1.610 . S
N593 S592 1.613 . S
N593 C596 1.350 . S
N594 S592 1.610 . S
N594 C595 1.351 . S
C595 C589 1.428 . S
C595 N594 1.351 . S
C595 C596 1.434 . S
C596 C587 1.429 . S
C596 N593 1.350 . S
C596 C595 1.434 . S
C597 C598 1.369 1_545 S
C597 C599 1.419 . S
C597 H601 0.930 . S
C598 C597 1.369 1_565 S
C598 C607 1.429 . S
C599 C597 1.419 . S
C599 C600 1.363 . S
C599 H602 0.929 . S
C600 C599 1.363 . S
C600 C606 1.428 . S
H601 C597 0.930 . S
H602 C599 0.929 . S
S603 N604 1.613 1_455 S
S603 N605 1.610 1_465 S
N604 S603 1.613 1_655 S
N604 C607 1.350 . S
N605 S603 1.610 1_645 S
N605 C606 1.351 . S
C606 C600 1.428 . S
C606 N605 1.351 . S
C606 C607 1.434 1_545 S
C607 C598 1.429 . S
C607 N604 1.350 . S
C607 C606 1.434 1_565 S
C608 C609 1.369 . S
C608 C610 1.419 1_545 S
C608 H612 0.930 . S
C609 C608 1.369 . S
C609 C618 1.429 1_545 S
C610 C608 1.419 1_565 S
C610 C611 1.363 . S
C610 H613 0.929 . S
C611 C610 1.363 . S
C611 C617 1.428 . S
H612 C608 0.930 . S
H613 C610 0.929 . S
S614 N615 1.613 . S
S614 N616 1.610 . S
N615 S614 1.613 . S
N615 C618 1.350 . S
N616 S614 1.610 . S
N616 C617 1.351 . S
C617 C611 1.428 . S
C617 N616 1.351 . S
C617 C618 1.434 . S
C618 C609 1.429 1_565 S
C618 N615 1.350 . S
C618 C617 1.434 . S
C619 C620 1.369 . S
C619 C621 1.419 . S
C619 H623 0.930 . S
C620 C619 1.369 . S
C620 C629 1.429 . S
C621 C619 1.419 . S
C621 C622 1.363 . S
C621 H624 0.929 . S
C622 C621 1.363 . S
C622 C628 1.428 . S
H623 C619 0.930 . S
H624 C621 0.929 . S
S625 N626 1.613 . S
S625 N627 1.610 . S
N626 S625 1.613 . S
N626 C629 1.350 . S
N627 S625 1.610 . S
N627 C628 1.351 . S
C628 C622 1.428 . S
C628 N627 1.351 . S
C628 C629 1.434 . S
C629 C620 1.429 . S
C629 N626 1.350 . S
C629 C628 1.434 . S
C630 C631 1.369 . S
C630 C632 1.419 . S
C630 H634 0.930 . S
C631 C630 1.369 . S
C631 C640 1.429 . S
C632 C630 1.419 . S
C632 C633 1.363 . S
C632 H635 0.929 . S
C633 C632 1.363 . S
C633 C639 1.428 . S
H634 C630 0.930 . S
H635 C632 0.929 . S
S636 N637 1.613 . S
S636 N638 1.610 . S
N637 S636 1.613 . S
N637 C640 1.350 . S
N638 S636 1.610 . S
N638 C639 1.351 . S
C639 C633 1.428 . S
C639 N638 1.351 . S
C639 C640 1.434 . S
C640 C631 1.429 . S
C640 N637 1.350 . S
C640 C639 1.434 . S
C641 C642 1.369 1_565 S
C641 C643 1.419 . S
C641 H645 0.930 . S
C642 C641 1.369 1_545 S
C642 C651 1.429 . S
C643 C641 1.419 . S
C643 C644 1.363 . S
C643 H646 0.929 . S
C644 C643 1.363 . S
C644 C650 1.428 . S
H645 C641 0.930 . S
H646 C643 0.929 . S
S647 N648 1.613 1_655 S
S647 N649 1.610 1_545 S
N648 S647 1.613 1_455 S
N648 C651 1.350 . S
N649 S647 1.610 1_565 S
N649 C650 1.351 1_655 S
C650 C644 1.428 . S
C650 N649 1.351 1_455 S
C650 C651 1.434 1_565 S
C651 C642 1.429 . S
C651 N648 1.350 . S
C651 C650 1.434 1_545 S
C652 C653 1.369 . S
C652 C654 1.419 . S
C652 H656 0.930 . S
C653 C652 1.369 . S
C653 C662 1.429 . S
C654 C652 1.419 . S
C654 C655 1.363 . S
C654 H657 0.929 . S
C655 C654 1.363 . S
C655 C661 1.428 . S
H656 C652 0.930 . S
H657 C654 0.929 . S
S658 N659 1.613 . S
S658 N660 1.610 . S
N659 S658 1.613 . S
N659 C662 1.350 . S
N660 S658 1.610 . S
N660 C661 1.351 . S
C661 C655 1.428 . S
C661 N660 1.351 . S
C661 C662 1.434 . S
C662 C653 1.429 . S
C662 N659 1.350 . S
C662 C661 1.434 . S
C663 C664 1.369 . S
C663 C665 1.419 . S
C663 H667 0.930 . S
C664 C663 1.369 . S
C664 C673 1.429 . S
C665 C663 1.419 . S
C665 C666 1.363 . S
C665 H668 0.929 . S
C666 C665 1.363 . S
C666 C672 1.428 . S
H667 C663 0.930 . S
H668 C665 0.929 . S
S669 N670 1.613 . S
S669 N671 1.610 . S
N670 S669 1.613 . S
N670 C673 1.350 . S
N671 S669 1.610 . S
N671 C672 1.351 . S
C672 C666 1.428 . S
C672 N671 1.351 . S
C672 C673 1.434 . S
C673 C664 1.429 . S
C673 N670 1.350 . S
C673 C672 1.434 . S
C674 C675 1.369 . S
C674 C676 1.419 . S
C674 H678 0.930 . S
C675 C674 1.369 . S
C675 C684 1.429 . S
C676 C674 1.419 . S
C676 C677 1.363 . S
C676 H679 0.929 . S
C677 C676 1.363 . S
C677 C683 1.428 . S
H678 C674 0.930 . S
H679 C676 0.929 . S
S680 N681 1.613 . S
S680 N682 1.610 . S
N681 S680 1.613 . S
N681 C684 1.350 . S
N682 S680 1.610 . S
N682 C683 1.351 . S
C683 C677 1.428 . S
C683 N682 1.351 . S
C683 C684 1.434 . S
C684 C675 1.429 . S
C684 N681 1.350 . S
C684 C683 1.434 . S
C685 C686 1.369 . S
C685 C687 1.419 . S
C685 H689 0.930 . S
C686 C685 1.369 . S
C686 C695 1.429 . S
C687 C685 1.419 . S
C687 C688 1.363 . S
C687 H690 0.929 . S
C688 C687 1.363 . S
C688 C694 1.428 . S
H689 C685 0.930 . S
H690 C687 0.929 . S
S691 N692 1.613 . S
S691 N693 1.610 . S
N692 S691 1.613 . S
N692 C695 1.350 . S
N693 S691 1.610 . S
N693 C694 1.351 . S
C694 C688 1.428 . S
C694 N693 1.351 . S
C694 C695 1.434 . S
C695 C686 1.429 . S
C695 N692 1.350 . S
C695 C694 1.434 . S
C696 C697 1.369 . S
C696 C698 1.419 . S
C696 H700 0.930 . S
C697 C696 1.369 . S
C697 C706 1.429 . S
C698 C696 1.419 . S
C698 C699 1.363 . S
C698 H701 0.929 . S
C699 C698 1.363 . S
C699 C705 1.428 . S
H700 C696 0.930 . S
H701 C698 0.929 . S
S702 N703 1.613 . S
S702 N704 1.610 . S
N703 S702 1.613 . S
N703 C706 1.350 . S
N704 S702 1.610 . S
N704 C705 1.351 . S
C705 C699 1.428 . S
C705 N704 1.351 . S
C705 C706 1.434 . S
C706 C697 1.429 . S
C706 N703 1.350 . S
C706 C705 1.434 . S
C707 C708 1.369 . S
C707 C709 1.419 . S
C707 H711 0.930 . S
C708 C707 1.369 . S
C708 C717 1.429 . S
C709 C707 1.419 . S
C709 C710 1.363 . S
C709 H712 0.929 . S
C710 C709 1.363 . S
C710 C716 1.428 . S
H711 C707 0.930 . S
H712 C709 0.929 . S
S713 N714 1.613 . S
S713 N715 1.610 . S
N714 S713 1.613 . S
N714 C717 1.350 . S
N715 S713 1.610 . S
N715 C716 1.351 . S
C716 C710 1.428 . S
C716 N715 1.351 . S
C716 C717 1.434 . S
C717 C708 1.429 . S
C717 N714 1.350 . S
C717 C716 1.434 . S
C718 C719 1.369 . S
C718 C720 1.419 . S
C718 H722 0.930 . S
C719 C718 1.369 . S
C719 C728 1.429 . S
C720 C718 1.419 . S
C720 C721 1.363 . S
C720 H723 0.929 . S
C721 C720 1.363 . S
C721 C727 1.428 . S
H722 C718 0.930 . S
H723 C720 0.929 . S
S724 N725 1.613 . S
S724 N726 1.610 . S
N725 S724 1.613 . S
N725 C728 1.350 . S
N726 S724 1.610 . S
N726 C727 1.351 . S
C727 C721 1.428 . S
C727 N726 1.351 . S
C727 C728 1.434 . S
C728 C719 1.429 . S
C728 N725 1.350 . S
C728 C727 1.434 . S
C729 C730 1.369 . S
C729 C731 1.419 . S
C729 H733 0.930 . S
C730 C729 1.369 . S
C730 C739 1.429 . S
C731 C729 1.419 . S
C731 C732 1.363 . S
C731 H734 0.929 . S
C732 C731 1.363 . S
C732 C738 1.428 . S
H733 C729 0.930 . S
H734 C731 0.929 . S
S735 N736 1.613 . S
S735 N737 1.610 . S
N736 S735 1.613 . S
N736 C739 1.350 . S
N737 S735 1.610 . S
N737 C738 1.351 . S
C738 C732 1.428 . S
C738 N737 1.351 . S
C738 C739 1.434 . S
C739 C730 1.429 . S
C739 N736 1.350 . S
C739 C738 1.434 . S
C740 C741 1.369 . S
C740 C742 1.419 . S
C740 H744 0.930 . S
C741 C740 1.369 . S
C741 C750 1.429 . S
C742 C740 1.419 . S
C742 C743 1.363 . S
C742 H745 0.929 . S
C743 C742 1.363 . S
C743 C749 1.428 . S
H744 C740 0.930 . S
H745 C742 0.929 . S
S746 N747 1.613 . S
S746 N748 1.610 . S
N747 S746 1.613 . S
N747 C750 1.350 . S
N748 S746 1.610 . S
N748 C749 1.351 . S
C749 C743 1.428 . S
C749 N748 1.351 . S
C749 C750 1.434 . S
C750 C741 1.429 . S
C750 N747 1.350 . S
C750 C749 1.434 . S
C751 C752 1.369 . S
C751 C753 1.419 . S
C751 H755 0.930 . S
C752 C751 1.369 . S
C752 C761 1.429 . S
C753 C751 1.419 . S
C753 C754 1.363 . S
C753 H756 0.929 . S
C754 C753 1.363 . S
C754 C760 1.428 . S
H755 C751 0.930 . S
H756 C753 0.929 . S
S757 N758 1.613 . S
S757 N759 1.610 . S
N758 S757 1.613 . S
N758 C761 1.350 . S
N759 S757 1.610 . S
N759 C760 1.351 . S
C760 C754 1.428 . S
C760 N759 1.351 . S
C760 C761 1.434 . S
C761 C752 1.429 . S
C761 N758 1.350 . S
C761 C760 1.434 . S
C762 C763 1.369 . S
C762 C764 1.419 . S
C762 H766 0.930 . S
C763 C762 1.369 . S
C763 C772 1.429 . S
C764 C762 1.419 . S
C764 C765 1.363 . S
C764 H767 0.929 . S
C765 C764 1.363 . S
C765 C771 1.428 . S
H766 C762 0.930 . S
H767 C764 0.929 . S
S768 N769 1.613 . S
S768 N770 1.610 . S
N769 S768 1.613 . S
N769 C772 1.350 . S
N770 S768 1.610 . S
N770 C771 1.351 . S
C771 C765 1.428 . S
C771 N770 1.351 . S
C771 C772 1.434 . S
C772 C763 1.429 . S
C772 N769 1.350 . S
C772 C771 1.434 . S
C773 C774 1.369 . S
C773 C775 1.419 . S
C773 H777 0.930 . S
C774 C773 1.369 . S
C774 C783 1.429 . S
C775 C773 1.419 . S
C775 C776 1.363 . S
C775 H778 0.929 . S
C776 C775 1.363 . S
C776 C782 1.428 . S
H777 C773 0.930 . S
H778 C775 0.929 . S
S779 N780 1.613 . S
S779 N781 1.610 . S
N780 S779 1.613 . S
N780 C783 1.350 . S
N781 S779 1.610 . S
N781 C782 1.351 . S
C782 C776 1.428 . S
C782 N781 1.351 . S
C782 C783 1.434 . S
C783 C774 1.429 . S
C783 N780 1.350 . S
C783 C782 1.434 . S
C784 C785 1.369 . S
C784 C786 1.419 . S
C784 H788 0.930 . S
C785 C784 1.369 . S
C785 C794 1.429 . S
C786 C784 1.419 . S
C786 C787 1.363 . S
C786 H789 0.929 . S
C787 C786 1.363 . S
C787 C793 1.428 . S
H788 C784 0.930 . S
H789 C786 0.929 . S
S790 N791 1.613 . S
S790 N792 1.610 . S
N791 S790 1.613 . S
N791 C794 1.350 . S
N792 S790 1.610 . S
N792 C793 1.351 . S
C793 C787 1.428 . S
C793 N792 1.351 . S
C793 C794 1.434 . S
C794 C785 1.429 . S
C794 N791 1.350 . S
C794 C793 1.434 . S
C795 C796 1.369 . S
C795 C797 1.419 . S
C795 H799 0.930 . S
C796 C795 1.369 . S
C796 C805 1.429 . S
C797 C795 1.419 . S
C797 C798 1.363 . S
C797 H800 0.929 . S
C798 C797 1.363 . S
C798 C804 1.428 . S
H799 C795 0.930 . S
H800 C797 0.929 . S
S801 N802 1.613 . S
S801 N803 1.610 . S
N802 S801 1.613 . S
N802 C805 1.350 . S
N803 S801 1.610 . S
N803 C804 1.351 . S
C804 C798 1.428 . S
C804 N803 1.351 . S
C804 C805 1.434 . S
C805 C796 1.429 . S
C805 N802 1.350 . S
C805 C804 1.434 . S
C806 C807 1.369 . S
C806 C808 1.419 . S
C806 H810 0.930 . S
C807 C806 1.369 . S
C807 C816 1.429 . S
C808 C806 1.419 . S
C808 C809 1.363 . S
C808 H811 0.929 . S
C809 C808 1.363 . S
C809 C815 1.428 . S
H810 C806 0.930 . S
H811 C808 0.929 . S
S812 N813 1.613 . S
S812 N814 1.610 . S
N813 S812 1.613 . S
N813 C816 1.350 . S
N814 S812 1.610 . S
N814 C815 1.351 . S
C815 C809 1.428 . S
C815 N814 1.351 . S
C815 C816 1.434 . S
C816 C807 1.429 . S
C816 N813 1.350 . S
C816 C815 1.434 . S
C817 C818 1.369 . S
C817 C819 1.419 . S
C817 H821 0.930 . S
C818 C817 1.369 . S
C818 C827 1.429 . S
C819 C817 1.419 . S
C819 C820 1.363 . S
C819 H822 0.929 . S
C820 C819 1.363 . S
C820 C826 1.428 . S
H821 C817 0.930 . S
H822 C819 0.929 . S
S823 N824 1.613 . S
S823 N825 1.610 . S
N824 S823 1.613 . S
N824 C827 1.350 . S
N825 S823 1.610 . S
N825 C826 1.351 . S
C826 C820 1.428 . S
C826 N825 1.351 . S
C826 C827 1.434 . S
C827 C818 1.429 . S
C827 N824 1.350 . S
C827 C826 1.434 . S
C565 C361 1.424 . S
C567 C496 1.486 . S
C578 C504 1.486 . S
C576 C451 1.501 . S
C589 C508 1.474 . S
C587 C241 1.415 . S
C598 C331 1.491 . S
C600 C484 1.472 . S
C611 C525 1.486 . S
C609 C140 1.533 . S
C622 C559 1.486 . S
C620 C211 1.530 . S
C631 C20 1.518 . S
C633 C547 1.472 . S
C642 C91 1.518 . S
C644 C529 1.471 . S
C655 C483 1.341 . S
C653 C80 1.439 . S
C666 C517 1.349 . S
C664 C1 1.441 . S
C677 C521 1.338 . S
C675 C200 1.436 . S
C688 C499 1.349 . S
C686 C121 1.442 . S
C699 C538 1.345 . S
C697 C320 1.412 . S
C708 C260 1.500 . S
C710 C546 1.349 . S
C721 C562 1.349 . S
C719 C440 1.425 . S
C730 C380 1.500 . S
C732 C542 1.349 . S
C743 C487 1.316 . S
C741 C31 1.511 . S
C754 C505 1.309 . S
C752 C61 1.509 . S
C763 C151 1.491 . S
C765 C520 1.302 . S
C776 C500 1.310 . S
C774 C181 1.493 . S
C787 C526 1.304 . S
C785 C271 1.490 . S
C796 C301 1.492 . S
C798 C550 1.315 . S
C807 C391 1.476 . S
C809 C563 1.308 . S
C818 C421 1.477 . S
C820 C541 1.314 . S
