# Generated by pormake.
# Topology anh, (6,3)-cn, num edge types: 1
# Building blocks:
#     Node 0, Type 0, BuildingBlock: BETDIP_clean_sbu_0, # of connection points: 6
#     Node 1, Type 0, BuildingBlock: BETDIP_clean_sbu_0, # of connection points: 6
#     Node 2, Type 0, BuildingBlock: BETDIP_clean_sbu_0, # of connection points: 6
#     Node 3, Type 1, BuildingBlock: BETDIP_clean_linker_0, # of connection points: 3
#     Node 4, Type 1, BuildingBlock: BETDIP_clean_linker_0, # of connection points: 3
#     Node 5, Type 1, BuildingBlock: BETDIP_clean_linker_0, # of connection points: 3
#     Node 6, Type 1, BuildingBlock: BETDIP_clean_linker_0, # of connection points: 3
#     Node 7, Type 1, BuildingBlock: BETDIP_clean_linker_0, # of connection points: 3
#     Node 8, Type 1, BuildingBlock: BETDIP_clean_linker_0, # of connection points: 3
#     Edge 9, Type (0, 1), BuildingBlock: XUDNAN_clean_linker_2, # of connection points: 2
#     Edge 10, Type (0, 1), BuildingBlock: XUDNAN_clean_linker_2, # of connection points: 2
#     Edge 11, Type (0, 1), BuildingBlock: XUDNAN_clean_linker_2, # of connection points: 2
#     Edge 12, Type (0, 1), BuildingBlock: XUDNAN_clean_linker_2, # of connection points: 2
#     Edge 13, Type (0, 1), BuildingBlock: XUDNAN_clean_linker_2, # of connection points: 2
#     Edge 14, Type (0, 1), BuildingBlock: XUDNAN_clean_linker_2, # of connection points: 2
#     Edge 15, Type (0, 1), BuildingBlock: XUDNAN_clean_linker_2, # of connection points: 2
#     Edge 16, Type (0, 1), BuildingBlock: XUDNAN_clean_linker_2, # of connection points: 2
#     Edge 17, Type (0, 1), BuildingBlock: XUDNAN_clean_linker_2, # of connection points: 2
#     Edge 18, Type (0, 1), BuildingBlock: XUDNAN_clean_linker_2, # of connection points: 2
#     Edge 19, Type (0, 1), BuildingBlock: XUDNAN_clean_linker_2, # of connection points: 2
#     Edge 20, Type (0, 1), BuildingBlock: XUDNAN_clean_linker_2, # of connection points: 2
#     Edge 21, Type (0, 1), BuildingBlock: XUDNAN_clean_linker_2, # of connection points: 2
#     Edge 22, Type (0, 1), BuildingBlock: XUDNAN_clean_linker_2, # of connection points: 2
#     Edge 23, Type (0, 1), BuildingBlock: XUDNAN_clean_linker_2, # of connection points: 2
#     Edge 24, Type (0, 1), BuildingBlock: XUDNAN_clean_linker_2, # of connection points: 2
#     Edge 25, Type (0, 1), BuildingBlock: XUDNAN_clean_linker_2, # of connection points: 2
#     Edge 26, Type (0, 1), BuildingBlock: XUDNAN_clean_linker_2, # of connection points: 2
# Relax obj value: 0.262
# Max RMSD: 0.185
# Mean RMSD: 0.131
data_MOF--net-anh--node1-BETDIP_clean_sbu_0--node2-BETDIP_clean_linker_0--edge1-XUDNAN_clean_linker_2
_symmetry_space_group_name_H-M    P1
_symmetry_Int_Tables_number       1
_symmetry_cell_setting            triclinic
loop_
_symmetry_equiv_pos_as_xyz
'x, y, z'
_cell_length_a     30.266823
_cell_length_b     30.377195
_cell_length_c     49.205238
_cell_angle_alpha  92.647416
_cell_angle_beta   88.857312
_cell_angle_gamma 119.4246
loop_
_atom_site_label
_atom_site_type_symbol
_atom_site_fract_x
_atom_site_fract_y
_atom_site_fract_z
_atom_type_partial_charge
Tb0 Tb 0.16466 0.69681 0.17513 0.0
Tb1 Tb 1.11628 0.58865 0.16148 0.0
C2 C 0.19949 0.78665 0.19239 0.0
C3 C 0.24519 0.83328 0.18476 0.0
C4 C 0.25845 0.84282 0.15724 0.0
C5 C 0.30577 0.88233 0.15018 0.0
C6 C 0.34086 0.91267 0.17047 0.0
C7 C 0.32611 0.90532 0.19794 0.0
C8 C 0.27859 0.86587 0.20501 0.0
C9 C 0.16174 0.67279 0.12264 0.0
C10 C 0.23616 0.64948 0.16213 0.0
C11 C 1.06894 0.49911 0.14326 0.0
C12 C 1.02326 0.46222 0.12837 0.0
C13 C 0.97579 0.45851 0.13353 0.0
C14 C 0.9315 0.41461 0.12528 0.0
C15 C 0.9344 0.37399 0.11206 0.0
C16 C 0.98215 0.38126 0.10365 0.0
C17 C 1.02622 0.42495 0.11193 0.0
C18 C 0.14893 0.61321 0.21287 0.0
C19 C 1.0438 0.6373 0.16927 0.0
O20 O 0.20766 0.75377 0.20457 0.0
O21 O 0.16432 0.76527 0.17364 0.0
O22 O 1.12797 0.65144 0.13991 0.0
O23 O 0.19984 0.71142 0.13425 0.0
O24 O 0.23067 0.68394 0.17729 0.0
O25 O 0.19581 0.61186 0.14971 0.0
O26 O 1.10474 0.53567 0.12956 0.0
O27 O 1.06231 0.51376 0.16777 0.0
O28 O 1.12714 0.63199 0.19979 0.0
O29 O 0.15169 0.57947 0.19721 0.0
O30 O 1.04789 0.59791 0.15953 0.0
O31 O 1.0844 0.67809 0.17936 0.0
H32 H 0.23336 0.81833 0.14113 0.0
H33 H 0.31599 0.8874 0.12887 0.0
H34 H 0.35257 0.92763 0.21407 0.0
H35 H 0.26907 0.8591 0.22632 0.0
H36 H 0.97279 0.48748 0.1458 0.0
H37 H 0.89518 0.41039 0.13163 0.0
H38 H 0.98602 0.35094 0.0935 0.0
H39 H 1.06264 0.42758 0.10747 0.0
Tb40 Tb 0.62765 1.07995 0.5077 0.0
Tb41 Tb 0.58378 0.14303 0.49109 0.0
C42 C 0.64838 1.02113 0.53164 0.0
C43 C 0.68927 1.00925 0.53524 0.0
C44 C 0.67694 0.96269 0.54589 0.0
C45 C 0.71333 0.94738 0.54721 0.0
C46 C 0.76306 0.97856 0.538 0.0
C47 C 0.77558 1.0259 0.52778 0.0
C48 C 0.73884 1.04108 0.52632 0.0
C49 C 0.64899 0.10851 0.45782 0.0
C50 C 0.5084 1.02281 0.49208 0.0
C51 C 0.54848 0.19173 0.46882 0.0
C52 C 0.56637 0.2467 0.46905 0.0
C53 C 0.58642 0.27346 0.44525 0.0
C54 C 0.61121 0.32638 0.44615 0.0
C55 C 0.61601 0.35354 0.47086 0.0
C56 C 0.59329 0.32656 0.49431 0.0
C57 C 0.56882 0.2738 0.49345 0.0
C58 C 0.59843 0.14291 0.54418 0.0
C59 C 0.70259 0.19946 0.50139 0.0
O60 O 0.62921 1.01203 0.50709 0.0
O61 O 0.65399 1.06361 0.54295 0.0
O62 O 0.60687 0.09519 0.46937 0.0
O63 O 0.6791 0.10217 0.47347 0.0
O64 O 0.54831 1.01867 0.49924 0.0
O65 O 0.51346 1.06816 0.48817 0.0
O66 O 0.57841 0.17756 0.45635 0.0
O67 O 0.5312 0.16913 0.49183 0.0
O68 O 0.58188 0.10614 0.52729 0.0
O69 O 0.60623 0.18265 0.53163 0.0
O70 O 0.66498 0.19903 0.48781 0.0
O71 O 0.69421 0.15836 0.51459 0.0
H72 H 0.63861 0.93741 0.55252 0.0
H73 H 0.70191 0.91031 0.55466 0.0
H74 H 0.81362 1.05107 0.52078 0.0
H75 H 0.74879 1.07706 0.51782 0.0
H76 H 0.5849 0.25349 0.42616 0.0
H77 H 0.62796 0.34608 0.4277 0.0
H78 H 0.5969 0.34622 0.51378 0.0
H79 H 0.55395 0.25452 0.51221 0.0
Tb80 Tb 0.60293 0.61167 0.83622 0.0
Tb81 Tb 0.71343 0.67796 0.82663 0.0
C82 C 0.51621 0.568 0.85713 0.0
C83 C 0.46601 0.56418 0.85909 0.0
C84 C 0.43855 0.54613 0.88307 0.0
C85 C 0.38667 0.5295 0.88377 0.0
C86 C 0.36121 0.53081 0.86045 0.0
C87 C 0.38973 0.55262 0.83701 0.0
C88 C 0.4418 0.5691 0.83631 0.0
C89 C 0.63027 0.61676 0.78496 0.0
C90 C 0.64772 0.73276 0.82735 0.0
C91 C 0.80301 0.71747 0.80939 0.0
C92 C 0.83664 0.69711 0.80135 0.0
C93 C 0.81731 0.64886 0.78854 0.0
C94 C 0.84769 0.62615 0.78569 0.0
C95 C 0.89778 0.65131 0.79563 0.0
C96 C 0.91799 0.70109 0.80656 0.0
C97 C 0.88759 0.72373 0.80942 0.0
C98 C 0.68417 0.67297 0.8778 0.0
C99 C 0.66762 0.5565 0.82875 0.0
O100 O 0.55494 0.60692 0.86903 0.0
O101 O 0.52778 0.55427 0.83372 0.0
O102 O 0.64746 0.65211 0.80278 0.0
O103 O 0.59243 0.57741 0.79503 0.0
O104 O 0.60895 0.68861 0.83504 0.0
O105 O 0.69196 0.73621 0.82053 0.0
O106 O 0.76362 0.70414 0.79377 0.0
O107 O 0.79136 0.71469 0.83524 0.0
O108 O 0.66885 0.63634 0.86057 0.0
O109 O 0.71775 0.71394 0.8667 0.0
O110 O 0.70506 0.60086 0.82105 0.0
O111 O 0.62563 0.55335 0.83941 0.0
H112 H 0.4565 0.54158 0.90075 0.0
H113 H 0.36609 0.51238 0.90207 0.0
H114 H 0.37147 0.555 0.81887 0.0
H115 H 0.46244 0.58296 0.81755 0.0
H116 H 0.77811 0.6277 0.78192 0.0
H117 H 0.83125 0.58797 0.77694 0.0
H118 H 0.95617 0.72129 0.81474 0.0
H119 H 0.90307 0.76094 0.81936 0.0
H120 H 0.72792 1.04909 0.19206 0.0
H121 H 0.7888 0.0935 0.2727 0.0
H122 H 0.64632 0.08403 0.2542 0.0
H123 H 0.84135 1.04444 0.19118 0.0
C124 C 0.82419 1.06755 0.19699 0.0
C125 C 0.72461 1.06091 0.21267 0.0
C126 C 0.6821 1.06567 0.22035 0.0
C127 C 0.76309 1.07101 0.23147 0.0
C128 C 0.75924 0.08631 0.25822 0.0
C129 C 0.71756 0.09208 0.26635 0.0
C130 C 0.67902 1.0811 0.24744 0.0
N131 N 0.80552 1.06493 0.22402 0.0
H132 H 0.8898 0.72228 0.54637 0.0
H133 H 0.89302 0.74025 0.6336 0.0
H134 H 0.7652 0.6152 0.59375 0.0
H135 H 1.00357 0.82359 0.56036 0.0
C136 C 0.96544 0.81211 0.56755 0.0
C137 C 0.87159 0.70955 0.56582 0.0
C138 C 0.82406 0.66537 0.5669 0.0
C139 C 0.89656 0.73642 0.58991 0.0
C140 C 0.87342 0.71966 0.61512 0.0
C141 C 0.82554 0.67635 0.61655 0.0
C142 C 0.80148 0.64942 0.59244 0.0
N143 N 0.94632 0.77864 0.58936 0.0
H144 H 0.98488 0.40483 0.88257 0.0
H145 H 1.03063 0.42584 0.96633 0.0
H146 H 1.07046 0.55525 0.91843 0.0
H147 H 0.97632 0.29056 0.90191 0.0
C148 C 1.00248 0.33005 0.90708 0.0
C149 C 1.0042 0.42995 0.89993 0.0
C150 C 1.02712 0.48244 0.89761 0.0
C151 C 1.00589 0.40957 0.92462 0.0
C152 C 1.02935 0.44184 0.94732 0.0
C153 C 1.05413 0.4946 0.94498 0.0
C154 C 1.05318 0.51462 0.92 0.0
N155 N 0.98724 0.35678 0.92611 0.0
H156 H 0.14534 0.65788 0.49313 0.0
H157 H 1.08021 0.56667 0.41944 0.0
H158 H 0.2161 0.71001 0.41516 0.0
H159 H 1.00483 0.54032 0.44364 0.0
C160 C 1.01583 0.53087 0.46244 0.0
C161 C 0.14592 0.65242 0.47125 0.0
C162 C 0.18685 0.69046 0.45585 0.0
C163 C 1.10596 0.60706 0.45831 0.0
C164 C 1.10843 0.60102 0.42983 0.0
C165 C 0.1476 0.63806 0.41437 0.0
C166 C 0.18609 0.68209 0.4274 0.0
N167 N 1.06542 0.56702 0.47367 0.0
H168 H 0.66516 0.1925 0.82266 0.0
H169 H 0.63603 0.09692 0.75032 0.0
H170 H 0.63422 0.23729 0.74646 0.0
H171 H 0.69252 1.07754 0.77369 0.0
C172 C 0.66938 1.06622 0.79192 0.0
C173 C 0.65646 0.18517 0.80114 0.0
C174 C 0.65104 0.22155 0.78606 0.0
C175 C 0.65074 0.13934 0.78834 0.0
C176 C 0.64005 0.13119 0.7603 0.0
C177 C 0.63355 0.16578 0.74498 0.0
C178 C 0.63903 0.21052 0.75811 0.0
N179 N 0.65316 0.10066 0.80355 0.0
H180 H 0.59483 0.63608 0.15309 0.0
H181 H 0.67295 0.63866 0.07825 0.0
H182 H 0.53492 0.6455 0.07599 0.0
H183 H 0.70093 0.59353 0.10297 0.0
C184 C 0.7121 0.61642 0.12182 0.0
C185 C 0.59681 0.63692 0.13111 0.0
C186 C 0.55763 0.63915 0.11628 0.0
C187 C 0.6383 0.63501 0.11759 0.0
C188 C 0.64071 0.63722 0.08896 0.0
C189 C 0.60392 0.64155 0.07402 0.0
C190 C 0.56263 0.64163 0.08775 0.0
N191 N 0.67865 0.63429 0.13279 0.0
H192 H 0.27105 0.60069 0.12442 0.0
H193 H 0.32052 0.70587 0.1944 0.0
H194 H 0.40477 0.71149 0.19197 0.0
H195 H 0.34025 0.53497 0.1401 0.0
H196 H 0.35683 0.5292 0.10524 0.0
H197 H 0.29974 0.53198 0.11288 0.0
H198 H 0.32965 0.60827 0.08212 0.0
H199 H 0.38669 0.60555 0.0743 0.0
H200 H 0.39081 0.66342 0.08816 0.0
H201 H 0.48616 0.70467 0.18216 0.0
H202 H 0.55607 0.69209 0.16359 0.0
H203 H 0.45626 0.59396 0.0989 0.0
C204 C 0.29947 0.62481 0.13934 0.0
C205 C 0.28805 0.65263 0.1598 0.0
C206 C 0.32734 0.68404 0.17853 0.0
C207 C 0.37571 0.68738 0.17736 0.0
C208 C 0.38561 0.65953 0.1571 0.0
C209 C 0.3486 0.6292 0.13821 0.0
C210 C 0.36974 0.6047 0.11782 0.0
C211 C 0.33985 0.54677 0.11909 0.0
C212 C 0.36918 0.62149 0.08889 0.0
C213 C 0.42413 0.62577 0.12813 0.0
C214 C 0.43243 0.65695 0.15101 0.0
C215 C 0.47971 0.68034 0.16419 0.0
C216 C 0.51946 0.6726 0.15357 0.0
C217 C 0.51281 0.64206 0.1296 0.0
C218 C 0.46366 0.618 0.11709 0.0
H219 H 0.73654 0.28255 0.46858 0.0
H220 H 0.78946 0.22571 0.53219 0.0
H221 H 0.87385 0.30335 0.53085 0.0
H222 H 0.85289 0.33814 0.43003 0.0
H223 H 0.84658 0.39131 0.42035 0.0
H224 H 0.79085 0.33211 0.42715 0.0
H225 H 0.76187 0.37698 0.46351 0.0
H226 H 0.81692 0.4364 0.45603 0.0
H227 H 0.80479 0.41546 0.49044 0.0
H228 H 0.95633 0.39311 0.52208 0.0
H229 H 1.0229 0.47618 0.50554 0.0
H230 H 0.91609 0.47178 0.44681 0.0
C231 C 0.76564 0.28619 0.4824 0.0
C232 C 0.75509 0.24701 0.50071 0.0
C233 C 0.79547 0.25432 0.51799 0.0
C234 C 0.84394 0.2988 0.51737 0.0
C235 C 0.85281 0.33657 0.49914 0.0
C236 C 0.81443 0.33015 0.48183 0.0
C237 C 0.83323 0.37529 0.46361 0.0
C238 C 0.83074 0.35819 0.4335 0.0
C239 C 0.80241 0.40271 0.4687 0.0
C240 C 0.88814 0.40838 0.47314 0.0
C241 C 0.899 0.38589 0.49384 0.0
C242 C 0.94761 0.41045 0.50582 0.0
C243 C 0.98555 0.45813 0.49635 0.0
C244 C 0.97557 0.48156 0.47479 0.0
C245 C 0.92567 0.45561 0.46333 0.0
H246 H 0.70612 0.82026 0.79881 0.0
H247 H 0.5758 0.7527 0.85208 0.0
H248 H 0.56796 0.83016 0.85074 0.0
H249 H 0.7598 0.94899 0.82553 0.0
H250 H 0.77905 0.97651 0.79274 0.0
H251 H 0.77478 0.9164 0.79849 0.0
H252 H 0.71345 0.87576 0.75757 0.0
H253 H 0.71779 0.93581 0.75159 0.0
H254 H 0.65667 0.88091 0.75644 0.0
H255 H 0.57684 0.92028 0.84413 0.0
H256 H 0.59653 1.00561 0.82981 0.0
H257 H 0.71755 1.01157 0.77892 0.0
C258 C 0.67586 0.82155 0.81028 0.0
C259 C 0.64171 0.77958 0.82572 0.0
C260 C 0.60252 0.78361 0.84004 0.0
C261 C 0.59791 0.8279 0.83947 0.0
C262 C 0.63232 0.86855 0.82417 0.0
C263 C 0.67019 0.86524 0.80954 0.0
C264 C 0.70136 0.91314 0.79384 0.0
C265 C 0.75705 0.94036 0.80321 0.0
C266 C 0.69705 0.90065 0.76303 0.0
C267 C 0.6756 0.94421 0.80192 0.0
C268 C 0.63611 0.91829 0.81968 0.0
C269 C 0.60763 0.9404 0.83012 0.0
C270 C 0.61923 0.9893 0.82198 0.0
C271 C 0.65876 1.01607 0.80323 0.0
C272 C 0.6871 0.99261 0.79332 0.0
H273 H 0.95971 0.58021 0.13482 0.0
H274 H 1.01415 0.69683 0.19938 0.0
H275 H 0.93576 0.70253 0.19591 0.0
H276 H 0.90423 0.63683 0.09452 0.0
H277 H 0.85086 0.57757 0.08314 0.0
H278 H 0.90973 0.58033 0.09183 0.0
H279 H 0.86271 0.51036 0.1263 0.0
H280 H 0.80364 0.50733 0.1177 0.0
H281 H 0.82484 0.51878 0.15258 0.0
H282 H 0.8488 0.69604 0.1849 0.0
H283 H 0.76662 0.68064 0.16597 0.0
H284 H 0.76966 0.57159 0.10715 0.0
C285 C 0.95492 0.60649 0.14852 0.0
C286 C 0.99374 0.63768 0.16769 0.0
C287 C 0.98558 0.67221 0.18463 0.0
C288 C 0.9408 0.67574 0.1828 0.0
C289 C 0.90365 0.64493 0.16364 0.0
C290 C 0.91045 0.61111 0.14665 0.0
C291 C 0.86571 0.58396 0.12694 0.0
C292 C 0.88371 0.59536 0.09736 0.0
C293 C 0.83756 0.52671 0.13113 0.0
C294 C 0.83275 0.60759 0.13543 0.0
C295 C 0.85503 0.64242 0.15682 0.0
C296 C 0.83131 0.66879 0.16812 0.0
C297 C 0.78427 0.65973 0.15727 0.0
C298 C 0.76091 0.62481 0.13502 0.0
C299 C 0.78603 0.59852 0.12419 0.0
H300 H 0.47851 0.92466 0.46957 0.0
H301 H 0.41739 1.0133 0.5093 0.0
H302 H 0.3315 0.93825 0.5076 0.0
H303 H 0.37122 0.85586 0.42289 0.0
H304 H 0.3734 0.79763 0.42297 0.0
H305 H 0.43046 0.85725 0.42892 0.0
H306 H 0.44426 0.826 0.4743 0.0
H307 H 0.38699 0.76643 0.46857 0.0
H308 H 0.39472 0.80372 0.4995 0.0
H309 H 0.24961 0.8496 0.50286 0.0
H310 H 0.18111 0.76322 0.48949 0.0
H311 H 0.29196 0.73297 0.44852 0.0
C312 C 0.44711 0.92828 0.47806 0.0
C313 C 0.45575 0.97575 0.48993 0.0
C314 C 0.4127 0.97813 0.50017 0.0
C315 C 0.36339 0.93523 0.49939 0.0
C316 C 0.35618 0.88924 0.48768 0.0
C317 C 0.39689 0.88584 0.47665 0.0
C318 C 0.37813 0.83288 0.46345 0.0
C319 C 0.38895 0.83611 0.43274 0.0
C320 C 0.40249 0.80565 0.47728 0.0
C321 C 0.3209 0.80693 0.46897 0.0
C322 C 0.30911 0.83984 0.48343 0.0
C323 C 0.25884 0.82395 0.49138 0.0
C324 C 0.21985 0.77427 0.48389 0.0
C325 C 0.23018 0.74017 0.46801 0.0
C326 C 0.28206 0.75739 0.46075 0.0
H327 H 0.5957 0.45717 0.81274 0.0
H328 H 0.7537 0.54918 0.83585 0.0
H329 H 0.76486 0.47368 0.8306 0.0
H330 H 0.56997 0.33975 0.84294 0.0
H331 H 0.53215 0.29967 0.81479 0.0
H332 H 0.53533 0.35985 0.82212 0.0
H333 H 0.56534 0.38625 0.77298 0.0
H334 H 0.5619 0.32603 0.76546 0.0
H335 H 0.62026 0.3838 0.76005 0.0
H336 H 0.7575 0.38462 0.82507 0.0
H337 H 0.73695 0.29686 0.81161 0.0
H338 H 0.58689 0.26367 0.78672 0.0
C339 C 0.63252 0.46133 0.81708 0.0
C340 C 0.67354 0.5096 0.82547 0.0
C341 C 0.7214 0.51307 0.82987 0.0
C342 C 0.72808 0.47007 0.82702 0.0
C343 C 0.68694 0.42313 0.81903 0.0
C344 C 0.64032 0.41883 0.81346 0.0
C345 C 0.6035 0.36498 0.80286 0.0
C346 C 0.5575 0.33956 0.8218 0.0
C347 C 0.58676 0.36529 0.7736 0.0
C348 C 0.63622 0.33944 0.8037 0.0
C349 C 0.68401 0.37344 0.8136 0.0
C350 C 0.7203 0.35815 0.81702 0.0
C351 C 0.70811 0.30777 0.80955 0.0
C352 C 0.66019 0.27252 0.79818 0.0
C353 C 0.62385 0.28915 0.79543 0.0
H354 H 0.77604 0.92401 0.57705 0.0
H355 H 0.83465 0.99113 0.49923 0.0
H356 H 0.89323 0.9563 0.49842 0.0
H357 H 0.89329 0.94202 0.60452 0.0
H358 H 0.86362 0.88219 0.62076 0.0
H359 H 0.82833 0.91463 0.61568 0.0
H360 H 0.75879 0.83482 0.5899 0.0
H361 H 0.79415 0.80235 0.59471 0.0
H362 H 0.77614 0.8081 0.56092 0.0
H363 H 0.94432 0.91228 0.50579 0.0
H364 H 0.98439 0.86354 0.52125 0.0
H365 H 0.88944 0.82349 0.59317 0.0
C366 C 0.801 0.93134 0.55974 0.0
C367 C 0.80067 0.96045 0.53821 0.0
C368 C 0.83468 0.96969 0.5162 0.0
C369 C 0.86781 0.94968 0.51543 0.0
C370 C 0.86637 0.9204 0.53677 0.0
C371 C 0.83388 0.91135 0.55853 0.0
C372 C 0.83902 0.87796 0.57868 0.0
C373 C 0.85716 0.90588 0.60655 0.0
C374 C 0.78905 0.82784 0.58119 0.0
C375 C 0.87947 0.86955 0.56485 0.0
C376 C 0.89488 0.89437 0.54073 0.0
C377 C 0.93239 0.89255 0.5246 0.0
C378 C 0.95485 0.86482 0.53348 0.0
C379 C 0.93941 0.83905 0.55807 0.0
C380 C 0.90126 0.84161 0.57391 0.0
H381 H 0.86034 0.55605 0.81327 0.0
H382 H 0.99945 0.68524 0.78713 0.0
H383 H 1.04844 0.64616 0.80327 0.0
H384 H 0.90396 0.54599 0.87286 0.0
H385 H 0.86964 0.47791 0.87348 0.0
H386 H 0.84559 0.51014 0.85409 0.0
H387 H 0.84447 0.45727 0.81054 0.0
H388 H 0.86828 0.42493 0.83041 0.0
H389 H 0.9016 0.45649 0.80032 0.0
H390 H 1.08271 0.60375 0.83164 0.0
H391 H 1.09877 0.55896 0.86765 0.0
H392 H 0.93736 0.45598 0.87365 0.0
C393 C 0.90082 0.57493 0.80959 0.0
C394 C 0.92606 0.62349 0.79876 0.0
C395 C 0.97937 0.64797 0.79539 0.0
C396 C 1.00745 0.6259 0.80435 0.0
C397 C 0.98156 0.57908 0.81627 0.0
C398 C 0.92925 0.55347 0.81846 0.0
C399 C 0.91092 0.50748 0.83547 0.0
C400 C 0.8808 0.51062 0.86043 0.0
C401 C 0.87947 0.45863 0.81815 0.0
C402 C 0.96114 0.51268 0.84375 0.0
C403 C 1.00152 0.5538 0.83221 0.0
C404 C 1.05151 0.57048 0.84008 0.0
C405 C 1.06031 0.54512 0.86061 0.0
C406 C 1.01929 0.50364 0.87293 0.0
C407 C 0.9694 0.48648 0.86381 0.0
H408 H 0.40708 1.00757 0.19157 0.0
H409 H 0.3969 0.88893 0.1352 0.0
H410 H 0.48963 0.93055 0.13301 0.0
H411 H 0.53634 0.11444 0.16342 0.0
H412 H 0.55558 0.14053 0.19754 0.0
H413 H 0.48979 0.11186 0.18769 0.0
H414 H 0.46534 1.05258 0.22806 0.0
H415 H 0.53066 1.08004 0.23773 0.0
H416 H 0.49365 1.01275 0.23081 0.0
H417 H 0.57596 0.96457 0.14895 0.0
H418 H 0.6515 0.99546 0.17705 0.0
H419 H 0.61378 0.1016 0.21945 0.0
C420 C 0.42462 0.99186 0.17782 0.0
C421 C 0.39489 0.94524 0.16351 0.0
C422 C 0.41881 0.92513 0.14596 0.0
C423 C 0.47164 0.94852 0.14461 0.0
C424 C 0.50005 0.99256 0.16045 0.0
C425 C 0.47753 1.01513 0.1761 0.0
C426 C 0.51619 1.05783 0.1943 0.0
C427 C 0.525 0.10922 0.18518 0.0
C428 C 0.50051 1.05027 0.22449 0.0
C429 C 0.56234 1.05178 0.18867 0.0
C430 C 0.55247 1.01469 0.16866 0.0
C431 C 0.58534 0.99553 0.16365 0.0
C432 C 0.62872 1.01374 0.17987 0.0
C433 C 0.63974 1.05168 0.2007 0.0
C434 C 0.60686 1.07229 0.20409 0.0
H435 H 0.59872 0.42283 0.49996 0.0
H436 H 0.70934 0.40987 0.44792 0.0
H437 H 0.77257 0.49801 0.46049 0.0
H438 H 0.6474 0.56352 0.48944 0.0
H439 H 0.63399 0.57295 0.52442 0.0
H440 H 0.59443 0.51345 0.50642 0.0
H441 H 0.6108 0.46643 0.54419 0.0
H442 H 0.65061 0.52548 0.5621 0.0
H443 H 0.67517 0.48362 0.55258 0.0
H444 H 0.8283 0.57812 0.48707 0.0
H445 H 0.86983 0.64471 0.52302 0.0
H446 H 0.72213 0.61033 0.55509 0.0
C447 C 0.63575 0.43915 0.49053 0.0
C448 C 0.64926 0.40933 0.47318 0.0
C449 C 0.69807 0.43196 0.46121 0.0
C450 C 0.73426 0.48212 0.46821 0.0
C451 C 0.7206 0.50966 0.48658 0.0
C452 C 0.67205 0.48934 0.49706 0.0
C453 C 0.66846 0.52455 0.51867 0.0
C454 C 0.63403 0.54483 0.50916 0.0
C455 C 0.65023 0.49846 0.54598 0.0
C456 C 0.72332 0.56602 0.52016 0.0
C457 C 0.75272 0.55726 0.5012 0.0
C458 C 0.80549 0.58645 0.50136 0.0
C459 C 0.82882 0.62448 0.52188 0.0
C460 C 0.79941 0.63301 0.54203 0.0
C461 C 0.74589 0.60474 0.54018 0.0
H462 H 0.29701 0.52716 0.90162 0.0
H463 H 0.29768 0.47235 0.81862 0.0
H464 H 0.20488 0.4173 0.82053 0.0
H465 H 0.21264 0.40973 0.92612 0.0
H466 H 0.18094 0.43233 0.94953 0.0
H467 H 0.24585 0.47362 0.94031 0.0
H468 H 0.22221 0.53972 0.92414 0.0
H469 H 0.15752 0.49852 0.93399 0.0
H470 H 0.17152 0.52021 0.89978 0.0
H471 H 1.11231 0.3616 0.83328 0.0
H472 H 1.02795 0.31463 0.8553 0.0
H473 H 1.09181 0.40089 0.93068 0.0
C474 C 0.27768 0.50418 0.88367 0.0
C475 C 0.30482 0.50435 0.85995 0.0
C476 C 0.27779 0.47378 0.83688 0.0
C477 C 0.22504 0.44197 0.83783 0.0
C478 C 0.19988 0.44116 0.86197 0.0
C479 C 0.22534 0.47186 0.88439 0.0
C480 C 0.19054 0.46125 0.90858 0.0
C481 C 0.20858 0.44314 0.93253 0.0
C482 C 0.18517 0.50774 0.91709 0.0
C483 C 0.14178 0.41922 0.89646 0.0
C484 C 0.1475 0.40838 0.86949 0.0
C485 C 1.10731 0.37024 0.85432 0.0
C486 C 1.0598 0.34354 0.86697 0.0
C487 C 1.05327 0.3553 0.89435 0.0
C488 C 1.0952 0.39255 0.90937 0.0
H489 H 0.87581 0.3345 0.15612 0.0
H490 H 0.90208 0.29436 0.07414 0.0
H491 H 0.85974 0.20448 0.08562 0.0
H492 H 0.91419 0.27005 0.18685 0.0
H493 H 0.86981 0.24833 0.21466 0.0
H494 H 0.88269 0.30482 0.1983 0.0
H495 H 0.78744 0.2684 0.18734 0.0
H496 H 0.77358 0.21187 0.20456 0.0
H497 H 0.75269 0.20731 0.16999 0.0
H498 H 0.83822 0.12528 0.10928 0.0
H499 H 0.83095 1.06222 0.14187 0.0
H500 H 0.82558 0.15773 0.20854 0.0
C501 C 0.86958 0.30658 0.14 0.0
C502 C 0.89216 0.32141 0.11424 0.0
C503 C 0.88493 0.28375 0.09401 0.0
C504 C 0.8609 0.23257 0.10038 0.0
C505 C 0.84366 0.21978 0.12691 0.0
C506 C 0.84644 0.25569 0.14623 0.0
C507 C 0.83425 0.2347 0.17438 0.0
C508 C 0.87785 0.26634 0.19469 0.0
C509 C 0.784 0.23031 0.18466 0.0
C510 C 0.8287 0.1831 0.16829 0.0
C511 C 0.83243 0.1743 0.14075 0.0
C512 C 0.8335 0.13108 0.13077 0.0
C513 C 0.82998 0.09582 0.14939 0.0
C514 C 0.82613 0.10437 0.17759 0.0
C515 C 0.82594 0.14881 0.18703 0.0
H516 H 1.07804 0.59664 0.09843 0.0
H517 H 0.23336 0.71012 0.08214 0.0
H518 H 0.22271 0.67814 0.03395 0.0
H519 H 1.07649 0.4973 0.05896 0.0
H520 H 1.01254 0.47163 0.04642 0.0
H521 H 1.0301 0.50551 0.0788 0.0
H522 H 1.00151 0.56766 0.06473 0.0
H523 H 0.9815 0.53388 0.0323 0.0
H524 H 1.02541 0.60091 0.03374 0.0
H525 H 0.19354 0.63264 0.98737 0.0
H526 H 0.15023 0.57609 0.94727 0.0
H527 H 1.01585 0.49112 0.99587 0.0
C528 C 1.10987 0.61492 0.08473 0.0
C529 C 0.15658 0.65576 0.09383 0.0
C530 C 0.19727 0.67881 0.07538 0.0
C531 C 0.1915 0.66091 0.04807 0.0
C532 C 0.14481 0.62017 0.03979 0.0
C533 C 1.10477 0.59759 0.05766 0.0
C534 C 1.05877 0.55393 0.0441 0.0
C535 C 1.04368 0.5041 0.05786 0.0
C536 C 1.01418 0.56477 0.04369 0.0
C537 C 1.07941 0.55436 0.0159 0.0
C538 C 1.12877 0.59332 0.01358 0.0
C539 C 0.15505 0.60188 0.98906 0.0
C540 C 0.13022 0.56963 0.96644 0.0
C541 C 1.08009 0.52887 0.96872 0.0
C542 C 1.05452 0.52142 0.99376 0.0
H543 H 0.59063 1.06779 0.41204 0.0
H544 H 0.73878 0.18287 0.44104 0.0
H545 H 0.76926 0.19963 0.39375 0.0
H546 H 0.63432 1.01442 0.36453 0.0
H547 H 0.58693 0.99944 0.33877 0.0
H548 H 0.57235 1.00466 0.37395 0.0
H549 H 0.54771 1.0724 0.363 0.0
H550 H 0.56156 1.06693 0.32758 0.0
H551 H 0.59213 0.1278 0.34545 0.0
H552 H 0.78789 0.19412 0.34492 0.0
H553 H 0.79287 0.16837 0.29713 0.0
H554 H 0.634 1.05355 0.2996 0.0
C555 C 0.62868 0.09799 0.40819 0.0
C556 C 0.6623 0.12478 0.42986 0.0
C557 C 0.71254 0.16253 0.42447 0.0
C558 C 0.73009 0.17234 0.39773 0.0
C559 C 0.69692 0.14371 0.37667 0.0
C560 C 0.64711 0.10754 0.3815 0.0
C561 C 0.62158 1.07743 0.35558 0.0
C562 C 0.60272 1.02065 0.3584 0.0
C563 C 0.57817 0.08671 0.34742 0.0
C564 C 0.66544 0.1007 0.33584 0.0
C565 C 0.70821 0.13952 0.3483 0.0
C566 C 0.75444 0.16435 0.33477 0.0
C567 C 0.75707 0.14909 0.30776 0.0
C568 C 0.71386 0.10904 0.29465 0.0
C569 C 0.66742 0.08497 0.3089 0.0
H570 H 0.69589 0.69732 0.75561 0.0
H571 H 0.62435 0.53399 0.75783 0.0
H572 H 0.67197 0.53223 0.71675 0.0
H573 H 0.69529 0.70473 0.68381 0.0
H574 H 0.75633 0.76113 0.68243 0.0
H575 H 0.71799 0.74934 0.71252 0.0
H576 H 0.79232 0.75754 0.74149 0.0
H577 H 0.83089 0.76846 0.71149 0.0
H578 H 0.81973 0.7177 0.73313 0.0
H579 H 0.72562 0.54803 0.6752 0.0
H580 H 0.77771 0.57955 0.63397 0.0
H581 H 0.81459 0.7329 0.65855 0.0
C582 C 0.6906 0.66131 0.74746 0.0
C583 C 0.65683 0.61581 0.75979 0.0
C584 C 0.65002 0.56922 0.7485 0.0
C585 C 0.67719 0.56791 0.72537 0.0
C586 C 0.71085 0.61354 0.71386 0.0
C587 C 0.7175 0.65936 0.72441 0.0
C588 C 0.75476 0.70274 0.70762 0.0
C589 C 0.72957 0.73113 0.6959 0.0
C590 C 0.80224 0.73873 0.72443 0.0
C591 C 0.76694 0.67399 0.68551 0.0
C592 C 0.74173 0.62267 0.68975 0.0
C593 C 0.74563 0.58813 0.67167 0.0
C594 C 0.7751 0.60636 0.64828 0.0
C595 C 0.79995 0.65861 0.64302 0.0
C596 C 0.79657 0.69288 0.66222 0.0
H597 H 0.64445 0.21855 0.58459 0.0
H598 H 0.55247 1.05599 0.57137 0.0
H599 H 0.54908 1.04531 0.62084 0.0
H600 H 0.71878 0.21217 0.63978 0.0
H601 H 0.72296 0.26634 0.6587 0.0
H602 H 0.71677 0.26193 0.6222 0.0
H603 H 0.63725 0.2728 0.62665 0.0
H604 H 0.64303 0.27694 0.66319 0.0
H605 H 0.58468 0.23023 0.6471 0.0
H606 H 0.55268 1.05164 0.67143 0.0
H607 H 0.57004 1.07337 0.72018 0.0
H608 H 0.66596 0.23149 0.702 0.0
C609 C 0.62351 0.18082 0.59221 0.0
C610 C 0.59829 0.13808 0.57411 0.0
C611 C 0.57189 0.08926 0.5848 0.0
C612 C 0.56961 1.0828 0.61291 0.0
C613 C 0.5945 0.12548 0.63024 0.0
C614 C 0.62156 0.17354 0.62041 0.0
C615 C 0.64667 0.21255 0.64369 0.0
C616 C 0.70475 0.23986 0.64092 0.0
C617 C 0.6267 0.25037 0.64524 0.0
C618 C 0.62922 0.17885 0.66804 0.0
C619 C 0.59873 0.12887 0.65969 0.0
C620 C 0.57715 0.09058 0.6782 0.0
C621 C 0.58766 0.10338 0.70596 0.0
C622 C 0.62033 0.1541 0.71526 0.0
C623 C 0.64077 0.19237 0.69583 0.0
H624 H 0.66435 0.60265 0.91677 0.0
H625 H 0.66326 0.74181 0.90246 0.0
H626 H 0.63805 0.7458 0.95019 0.0
H627 H 0.55926 0.55068 0.96606 0.0
H628 H 0.58987 0.52674 0.98729 0.0
H629 H 0.60245 0.53149 0.95127 0.0
H630 H 0.69864 0.58598 0.96117 0.0
H631 H 0.68638 0.58163 -0.00281 0.0
H632 H 0.72136 0.64276 0.98256 0.0
H633 H 0.61519 0.73643 -0.00055 0.0
H634 H 0.60126 0.71739 0.04809 0.0
H635 H 0.62329 0.58774 0.03271 0.0
C636 C 0.65772 0.63327 0.92366 0.0
C637 C 0.66491 0.67159 0.90587 0.0
C638 C 0.65753 0.71197 0.91574 0.0
C639 C 0.64314 0.71448 0.9428 0.0
C640 C 0.63716 0.67677 0.96002 0.0
C641 C 0.64459 0.6371 0.951 0.0
C642 C 0.63953 0.60393 0.97446 0.0
C643 C 0.59513 0.55001 0.96947 0.0
C644 C 0.68945 0.60357 0.97911 0.0
C645 C 0.62836 0.6313 -0.00201 0.0
C646 C 0.62644 0.67277 0.98901 0.0
C647 C 0.61651 0.704 0.00671 0.0
C648 C 0.60846 0.69278 0.03431 0.0
C649 C 0.61096 0.65102 0.04426 0.0
C650 C 0.62123 0.61998 0.02574 0.0
H651 H 0.13989 0.67656 0.25325 0.0
H652 H 0.16699 0.54932 0.24091 0.0
H653 H 0.16962 0.54284 0.29029 0.0
H654 H 0.22471 0.73205 0.31258 0.0
H655 H 0.18482 0.75273 0.33009 0.0
H656 H 0.1848 0.7481 0.29344 0.0
H657 H 1.08751 0.68893 0.2935 0.0
H658 H 1.08728 0.69322 0.33014 0.0
H659 H 1.06087 0.6322 0.31253 0.0
H660 H 0.16435 0.54549 0.34055 0.0
H661 H 0.15915 0.56279 0.38975 0.0
H662 H 0.14165 0.6918 0.37183 0.0
C663 C 0.14656 0.64757 0.26104 0.0
C664 C 0.15276 0.61315 0.24304 0.0
C665 C 0.16184 0.57601 0.25409 0.0
C666 C 0.16338 0.57189 0.28222 0.0
C667 C 0.15659 0.60571 0.2994 0.0
C668 C 0.14909 0.64336 0.2894 0.0
C669 C 0.14399 0.67521 0.31281 0.0
C670 C 0.18716 0.7303 0.31219 0.0
C671 C 1.0918 0.67219 0.3122 0.0
C672 C 0.14904 0.64896 0.33729 0.0
C673 C 0.15589 0.60871 0.3289 0.0
C674 C 0.15955 0.57723 0.34742 0.0
C675 C 0.1564 0.58719 0.3753 0.0
C676 C 0.15031 0.62865 0.38455 0.0
C677 C 0.14681 0.66011 0.36526 0.0
loop_
_geom_bond_atom_site_label_1
_geom_bond_atom_site_label_2
_geom_bond_distance
_geom_bond_site_symmetry_2
_ccdc_geom_bond_type
Tb0 C2 2.809 . S
Tb0 O20 2.484 . S
Tb0 O21 2.440 . S
Tb0 O22 2.658 . S
Tb0 O23 2.409 . S
Tb0 O24 2.378 . S
Tb0 O28 2.325 . S
Tb0 O31 2.341 1_455 S
Tb1 C11 2.809 1_455 S
Tb1 O22 2.325 . S
Tb1 O25 2.341 . S
Tb1 O26 2.484 1_455 S
Tb1 O27 2.440 1_455 S
Tb1 O28 2.658 . S
Tb1 O29 2.409 . S
Tb1 O30 2.378 1_455 S
C2 Tb0 2.809 . S
C2 C3 1.514 . S
C2 O20 1.248 . S
C2 O21 1.266 . S
C3 C2 1.514 . S
C3 C4 1.359 . S
C3 C8 1.348 . S
C4 C3 1.359 . S
C4 C5 1.380 . S
C4 H32 0.929 . S
C5 C4 1.380 . S
C5 C6 1.347 . S
C5 H33 0.931 . S
C6 C5 1.347 . S
C6 C7 1.369 . S
C7 C6 1.369 . S
C7 C8 1.408 . S
C7 H34 0.930 . S
C8 C3 1.348 . S
C8 C7 1.408 . S
C8 H35 0.930 . S
C9 O22 1.281 . S
C9 O23 1.254 . S
C10 O24 1.236 . S
C10 O25 1.266 . S
C11 Tb1 2.809 1_655 S
C11 C12 1.514 . S
C11 O26 1.248 . S
C11 O27 1.266 . S
C12 C11 1.514 . S
C12 C13 1.359 . S
C12 C17 1.348 . S
C13 C12 1.359 . S
C13 C14 1.380 . S
C13 H36 0.929 . S
C14 C13 1.380 . S
C14 C15 1.347 . S
C14 H37 0.931 . S
C15 C14 1.347 . S
C15 C16 1.369 . S
C16 C15 1.369 . S
C16 C17 1.408 . S
C16 H38 0.930 . S
C17 C12 1.348 . S
C17 C16 1.408 . S
C17 H39 0.930 . S
C18 O28 1.281 . S
C18 O29 1.254 . S
C19 O30 1.236 . S
C19 O31 1.266 . S
O20 Tb0 2.484 . S
O20 C2 1.248 . S
O21 Tb0 2.440 . S
O21 C2 1.266 . S
O22 Tb0 2.658 . S
O22 Tb1 2.325 . S
O22 C9 1.281 . S
O23 Tb0 2.409 . S
O23 C9 1.254 . S
O24 Tb0 2.378 . S
O24 C10 1.236 . S
O25 Tb1 2.341 . S
O25 C10 1.266 . S
O26 Tb1 2.484 1_655 S
O26 C11 1.248 . S
O27 Tb1 2.440 1_655 S
O27 C11 1.266 . S
O28 Tb0 2.325 . S
O28 Tb1 2.658 . S
O28 C18 1.281 . S
O29 Tb1 2.409 . S
O29 C18 1.254 . S
O30 Tb1 2.378 1_655 S
O30 C19 1.236 . S
O31 Tb0 2.341 1_655 S
O31 C19 1.266 . S
H32 C4 0.929 . S
H33 C5 0.931 . S
H34 C7 0.930 . S
H35 C8 0.930 . S
H36 C13 0.929 . S
H37 C14 0.931 . S
H38 C16 0.930 . S
H39 C17 0.930 . S
Tb40 C42 2.809 1_545 S
Tb40 O60 2.484 1_545 S
Tb40 O61 2.440 1_545 S
Tb40 O62 2.658 . S
Tb40 O63 2.409 . S
Tb40 O64 2.378 1_545 S
Tb40 O68 2.325 . S
Tb40 O71 2.341 . S
Tb41 C51 2.809 . S
Tb41 O62 2.325 . S
Tb41 O65 2.341 1_545 S
Tb41 O66 2.484 . S
Tb41 O67 2.440 . S
Tb41 O68 2.658 . S
Tb41 O69 2.409 . S
Tb41 O70 2.378 . S
C42 Tb40 2.809 1_565 S
C42 C43 1.514 . S
C42 O60 1.248 . S
C42 O61 1.266 . S
C43 C42 1.514 . S
C43 C44 1.359 . S
C43 C48 1.348 . S
C44 C43 1.359 . S
C44 C45 1.380 . S
C44 H72 0.929 . S
C45 C44 1.380 . S
C45 C46 1.347 . S
C45 H73 0.931 . S
C46 C45 1.347 . S
C46 C47 1.369 . S
C47 C46 1.369 . S
C47 C48 1.408 . S
C47 H74 0.930 . S
C48 C43 1.348 . S
C48 C47 1.408 . S
C48 H75 0.930 . S
C49 O62 1.281 . S
C49 O63 1.254 . S
C50 O64 1.236 . S
C50 O65 1.266 . S
C51 Tb41 2.809 . S
C51 C52 1.514 . S
C51 O66 1.248 . S
C51 O67 1.266 . S
C52 C51 1.514 . S
C52 C53 1.359 . S
C52 C57 1.348 . S
C53 C52 1.359 . S
C53 C54 1.380 . S
C53 H76 0.929 . S
C54 C53 1.380 . S
C54 C55 1.347 . S
C54 H77 0.931 . S
C55 C54 1.347 . S
C55 C56 1.369 . S
C56 C55 1.369 . S
C56 C57 1.408 . S
C56 H78 0.930 . S
C57 C52 1.348 . S
C57 C56 1.408 . S
C57 H79 0.930 . S
C58 O68 1.281 . S
C58 O69 1.254 . S
C59 O70 1.236 . S
C59 O71 1.266 . S
O60 Tb40 2.484 1_565 S
O60 C42 1.248 . S
O61 Tb40 2.440 1_565 S
O61 C42 1.266 . S
O62 Tb40 2.658 . S
O62 Tb41 2.325 . S
O62 C49 1.281 . S
O63 Tb40 2.409 . S
O63 C49 1.254 . S
O64 Tb40 2.378 1_565 S
O64 C50 1.236 . S
O65 Tb41 2.341 1_565 S
O65 C50 1.266 . S
O66 Tb41 2.484 . S
O66 C51 1.248 . S
O67 Tb41 2.440 . S
O67 C51 1.266 . S
O68 Tb40 2.325 . S
O68 Tb41 2.658 . S
O68 C58 1.281 . S
O69 Tb41 2.409 . S
O69 C58 1.254 . S
O70 Tb41 2.378 . S
O70 C59 1.236 . S
O71 Tb40 2.341 . S
O71 C59 1.266 . S
H72 C44 0.929 . S
H73 C45 0.931 . S
H74 C47 0.930 . S
H75 C48 0.930 . S
H76 C53 0.929 . S
H77 C54 0.931 . S
H78 C56 0.930 . S
H79 C57 0.930 . S
Tb80 C82 2.809 . S
Tb80 O100 2.484 . S
Tb80 O101 2.440 . S
Tb80 O102 2.658 . S
Tb80 O103 2.409 . S
Tb80 O104 2.378 . S
Tb80 O108 2.325 . S
Tb80 O111 2.341 . S
Tb81 C91 2.809 . S
Tb81 O102 2.325 . S
Tb81 O105 2.341 . S
Tb81 O106 2.484 . S
Tb81 O107 2.440 . S
Tb81 O108 2.658 . S
Tb81 O109 2.409 . S
Tb81 O110 2.378 . S
C82 Tb80 2.809 . S
C82 C83 1.514 . S
C82 O100 1.248 . S
C82 O101 1.266 . S
C83 C82 1.514 . S
C83 C84 1.359 . S
C83 C88 1.348 . S
C84 C83 1.359 . S
C84 C85 1.380 . S
C84 H112 0.929 . S
C85 C84 1.380 . S
C85 C86 1.347 . S
C85 H113 0.931 . S
C86 C85 1.347 . S
C86 C87 1.369 . S
C87 C86 1.369 . S
C87 C88 1.408 . S
C87 H114 0.930 . S
C88 C83 1.348 . S
C88 C87 1.408 . S
C88 H115 0.930 . S
C89 O102 1.281 . S
C89 O103 1.254 . S
C90 O104 1.236 . S
C90 O105 1.266 . S
C91 Tb81 2.809 . S
C91 C92 1.514 . S
C91 O106 1.248 . S
C91 O107 1.266 . S
C92 C91 1.514 . S
C92 C93 1.359 . S
C92 C97 1.348 . S
C93 C92 1.359 . S
C93 C94 1.380 . S
C93 H116 0.929 . S
C94 C93 1.380 . S
C94 C95 1.347 . S
C94 H117 0.931 . S
C95 C94 1.347 . S
C95 C96 1.369 . S
C96 C95 1.369 . S
C96 C97 1.408 . S
C96 H118 0.930 . S
C97 C92 1.348 . S
C97 C96 1.408 . S
C97 H119 0.930 . S
C98 O108 1.281 . S
C98 O109 1.254 . S
C99 O110 1.236 . S
C99 O111 1.266 . S
O100 Tb80 2.484 . S
O100 C82 1.248 . S
O101 Tb80 2.440 . S
O101 C82 1.266 . S
O102 Tb80 2.658 . S
O102 Tb81 2.325 . S
O102 C89 1.281 . S
O103 Tb80 2.409 . S
O103 C89 1.254 . S
O104 Tb80 2.378 . S
O104 C90 1.236 . S
O105 Tb81 2.341 . S
O105 C90 1.266 . S
O106 Tb81 2.484 . S
O106 C91 1.248 . S
O107 Tb81 2.440 . S
O107 C91 1.266 . S
O108 Tb80 2.325 . S
O108 Tb81 2.658 . S
O108 C98 1.281 . S
O109 Tb81 2.409 . S
O109 C98 1.254 . S
O110 Tb81 2.378 . S
O110 C99 1.236 . S
O111 Tb80 2.341 . S
O111 C99 1.266 . S
H112 C84 0.929 . S
H113 C85 0.931 . S
H114 C87 0.930 . S
H115 C88 0.930 . S
H116 C93 0.929 . S
H117 C94 0.931 . S
H118 C96 0.930 . S
H119 C97 0.930 . S
H120 C125 0.930 . S
H121 C128 0.930 . S
H122 C130 0.930 . S
H123 C124 1.016 . S
C124 H123 1.016 . S
C124 N131 1.286 . S
C125 H120 0.930 . S
C125 C126 1.397 . S
C125 C127 1.361 . S
C126 C125 1.397 . S
C126 C130 1.390 . S
C127 C125 1.361 . S
C127 C128 1.393 . S
C127 N131 1.413 . S
C128 H121 0.930 . S
C128 C127 1.393 . S
C128 C129 1.399 . S
C129 C128 1.399 . S
C129 C130 1.381 . S
C130 H122 0.930 . S
C130 C126 1.390 . S
C130 C129 1.381 . S
N131 C124 1.286 . S
N131 C127 1.413 . S
H132 C137 0.930 . S
H133 C140 0.930 . S
H134 C142 0.930 . S
H135 C136 1.016 . S
C136 H135 1.016 . S
C136 N143 1.286 . S
C137 H132 0.930 . S
C137 C138 1.397 . S
C137 C139 1.361 . S
C138 C137 1.397 . S
C138 C142 1.390 . S
C139 C137 1.361 . S
C139 C140 1.393 . S
C139 N143 1.413 . S
C140 H133 0.930 . S
C140 C139 1.393 . S
C140 C141 1.399 . S
C141 C140 1.399 . S
C141 C142 1.381 . S
C142 H134 0.930 . S
C142 C138 1.390 . S
C142 C141 1.381 . S
N143 C136 1.286 . S
N143 C139 1.413 . S
H144 C149 0.930 . S
H145 C152 0.930 . S
H146 C154 0.930 . S
H147 C148 1.016 . S
C148 H147 1.016 . S
C148 N155 1.286 . S
C149 H144 0.930 . S
C149 C150 1.397 . S
C149 C151 1.361 1_655 S
C150 C149 1.397 . S
C150 C154 1.390 . S
C151 C149 1.361 1_455 S
C151 C152 1.393 . S
C151 N155 1.413 . S
C152 H145 0.930 . S
C152 C151 1.393 . S
C152 C153 1.399 . S
C153 C152 1.399 . S
C153 C154 1.381 1_455 S
C154 H146 0.930 . S
C154 C150 1.390 . S
C154 C153 1.381 1_655 S
N155 C148 1.286 . S
N155 C151 1.413 . S
H156 C161 0.930 . S
H157 C164 0.930 1_655 S
H158 C166 0.930 . S
H159 C160 1.016 . S
C160 H159 1.016 . S
C160 N167 1.286 . S
C161 H156 0.930 . S
C161 C162 1.397 . S
C161 C163 1.361 . S
C162 C161 1.397 . S
C162 C166 1.390 . S
C163 C161 1.361 . S
C163 C164 1.393 . S
C163 N167 1.413 1_455 S
C164 H157 0.930 1_455 S
C164 C163 1.393 . S
C164 C165 1.399 . S
C165 C164 1.399 . S
C165 C166 1.381 . S
C166 H158 0.930 . S
C166 C162 1.390 . S
C166 C165 1.381 . S
N167 C160 1.286 . S
N167 C163 1.413 1_655 S
H168 C173 0.930 . S
H169 C176 0.930 . S
H170 C178 0.930 . S
H171 C172 1.016 . S
C172 H171 1.016 . S
C172 N179 1.286 . S
C173 H168 0.930 . S
C173 C174 1.397 . S
C173 C175 1.358 1_545 S
C174 C173 1.397 . S
C174 C178 1.390 . S
C175 C173 1.358 1_565 S
C175 C176 1.393 . S
C175 N179 1.416 . S
C176 H169 0.930 . S
C176 C175 1.393 . S
C176 C177 1.399 1_565 S
C177 C176 1.399 1_545 S
C177 C178 1.381 . S
C178 H170 0.930 . S
C178 C174 1.390 . S
C178 C177 1.381 . S
N179 C172 1.286 . S
N179 C175 1.416 . S
H180 C185 0.930 . S
H181 C188 0.930 . S
H182 C190 0.930 . S
H183 C184 1.016 . S
C184 H183 1.016 . S
C184 N191 1.286 . S
C185 H180 0.930 . S
C185 C186 1.397 . S
C185 C187 1.361 . S
C186 C185 1.397 . S
C186 C190 1.390 . S
C187 C185 1.361 . S
C187 C188 1.393 . S
C187 N191 1.413 . S
C188 H181 0.930 . S
C188 C187 1.393 . S
C188 C189 1.399 . S
C189 C188 1.399 . S
C189 C190 1.381 . S
C190 H182 0.930 . S
C190 C186 1.390 . S
C190 C189 1.381 . S
N191 C184 1.286 . S
N191 C187 1.413 . S
H192 C204 0.930 . S
H193 C206 0.930 . S
H194 C207 0.930 . S
H195 C211 0.959 . S
H196 C211 0.959 . S
H197 C211 0.961 . S
H198 C212 0.960 . S
H199 C212 0.961 . S
H200 C212 0.959 . S
H201 C215 0.929 . S
H202 C216 0.931 . S
H203 C218 0.930 . S
C204 H192 0.930 . S
C204 C205 1.399 . S
C204 C209 1.399 . S
C205 C204 1.399 . S
C205 C206 1.376 . S
C206 H193 0.930 . S
C206 C205 1.376 . S
C206 C207 1.388 . S
C207 H194 0.930 . S
C207 C206 1.388 . S
C207 C208 1.390 . S
C208 C207 1.390 . S
C208 C209 1.394 . S
C208 C214 1.465 . S
C209 C204 1.399 . S
C209 C208 1.394 . S
C209 C210 1.516 . S
C210 C209 1.516 . S
C210 C211 1.502 . S
C210 C212 1.561 . S
C210 C213 1.526 . S
C211 H195 0.959 . S
C211 H196 0.959 . S
C211 H197 0.961 . S
C211 C210 1.502 . S
C212 H198 0.960 . S
C212 H199 0.961 . S
C212 H200 0.959 . S
C212 C210 1.561 . S
C213 C210 1.526 . S
C213 C214 1.396 . S
C213 C218 1.390 . S
C214 C208 1.465 . S
C214 C213 1.396 . S
C214 C215 1.399 . S
C215 H201 0.929 . S
C215 C214 1.399 . S
C215 C216 1.385 . S
C216 H202 0.931 . S
C216 C215 1.385 . S
C216 C217 1.389 . S
C217 C216 1.389 . S
C217 C218 1.387 . S
C218 H203 0.930 . S
C218 C213 1.390 . S
C218 C217 1.387 . S
H219 C231 0.930 . S
H220 C233 0.930 . S
H221 C234 0.930 . S
H222 C238 0.959 . S
H223 C238 0.959 . S
H224 C238 0.961 . S
H225 C239 0.960 . S
H226 C239 0.961 . S
H227 C239 0.959 . S
H228 C242 0.929 . S
H229 C243 0.931 . S
H230 C245 0.930 . S
C231 H219 0.930 . S
C231 C232 1.399 . S
C231 C236 1.399 . S
C232 C231 1.399 . S
C232 C233 1.376 . S
C233 H220 0.930 . S
C233 C232 1.376 . S
C233 C234 1.388 . S
C234 H221 0.930 . S
C234 C233 1.388 . S
C234 C235 1.390 . S
C235 C234 1.390 . S
C235 C236 1.394 . S
C235 C241 1.465 . S
C236 C231 1.399 . S
C236 C235 1.394 . S
C236 C237 1.516 . S
C237 C236 1.516 . S
C237 C238 1.502 . S
C237 C239 1.561 . S
C237 C240 1.526 . S
C238 H222 0.959 . S
C238 H223 0.959 . S
C238 H224 0.961 . S
C238 C237 1.502 . S
C239 H225 0.960 . S
C239 H226 0.961 . S
C239 H227 0.959 . S
C239 C237 1.561 . S
C240 C237 1.526 . S
C240 C241 1.396 . S
C240 C245 1.390 . S
C241 C235 1.465 . S
C241 C240 1.396 . S
C241 C242 1.399 . S
C242 H228 0.929 . S
C242 C241 1.399 . S
C242 C243 1.385 . S
C243 H229 0.931 . S
C243 C242 1.385 . S
C243 C244 1.389 . S
C244 C243 1.389 . S
C244 C245 1.387 . S
C245 H230 0.930 . S
C245 C240 1.390 . S
C245 C244 1.387 . S
H246 C258 0.930 . S
H247 C260 0.930 . S
H248 C261 0.930 . S
H249 C265 0.959 . S
H250 C265 0.959 . S
H251 C265 0.961 . S
H252 C266 0.960 . S
H253 C266 0.961 . S
H254 C266 0.959 . S
H255 C269 0.929 . S
H256 C270 0.931 . S
H257 C272 0.930 . S
C258 H246 0.930 . S
C258 C259 1.399 . S
C258 C263 1.399 . S
C259 C258 1.399 . S
C259 C260 1.376 . S
C260 H247 0.930 . S
C260 C259 1.376 . S
C260 C261 1.388 . S
C261 H248 0.930 . S
C261 C260 1.388 . S
C261 C262 1.390 . S
C262 C261 1.390 . S
C262 C263 1.394 . S
C262 C268 1.465 . S
C263 C258 1.399 . S
C263 C262 1.394 . S
C263 C264 1.516 . S
C264 C263 1.516 . S
C264 C265 1.502 . S
C264 C266 1.561 . S
C264 C267 1.526 . S
C265 H249 0.959 . S
C265 H250 0.959 . S
C265 H251 0.961 . S
C265 C264 1.502 . S
C266 H252 0.960 . S
C266 H253 0.961 . S
C266 H254 0.959 . S
C266 C264 1.561 . S
C267 C264 1.526 . S
C267 C268 1.396 . S
C267 C272 1.390 . S
C268 C262 1.465 . S
C268 C267 1.396 . S
C268 C269 1.399 . S
C269 H255 0.929 . S
C269 C268 1.399 . S
C269 C270 1.385 . S
C270 H256 0.931 . S
C270 C269 1.385 . S
C270 C271 1.389 . S
C271 C270 1.389 . S
C271 C272 1.387 . S
C272 H257 0.930 . S
C272 C267 1.390 . S
C272 C271 1.387 . S
H273 C285 0.930 . S
H274 C287 0.930 . S
H275 C288 0.930 . S
H276 C292 0.959 . S
H277 C292 0.959 . S
H278 C292 0.961 . S
H279 C293 0.960 . S
H280 C293 0.961 . S
H281 C293 0.959 . S
H282 C296 0.929 . S
H283 C297 0.931 . S
H284 C299 0.930 . S
C285 H273 0.930 . S
C285 C286 1.399 . S
C285 C290 1.399 . S
C286 C285 1.399 . S
C286 C287 1.376 . S
C287 H274 0.930 . S
C287 C286 1.376 . S
C287 C288 1.388 . S
C288 H275 0.930 . S
C288 C287 1.388 . S
C288 C289 1.390 . S
C289 C288 1.390 . S
C289 C290 1.394 . S
C289 C295 1.465 . S
C290 C285 1.399 . S
C290 C289 1.394 . S
C290 C291 1.516 . S
C291 C290 1.516 . S
C291 C292 1.502 . S
C291 C293 1.561 . S
C291 C294 1.526 . S
C292 H276 0.959 . S
C292 H277 0.959 . S
C292 H278 0.961 . S
C292 C291 1.502 . S
C293 H279 0.960 . S
C293 H280 0.961 . S
C293 H281 0.959 . S
C293 C291 1.561 . S
C294 C291 1.526 . S
C294 C295 1.396 . S
C294 C299 1.390 . S
C295 C289 1.465 . S
C295 C294 1.396 . S
C295 C296 1.399 . S
C296 H282 0.929 . S
C296 C295 1.399 . S
C296 C297 1.385 . S
C297 H283 0.931 . S
C297 C296 1.385 . S
C297 C298 1.389 . S
C298 C297 1.389 . S
C298 C299 1.387 . S
C299 H284 0.930 . S
C299 C294 1.390 . S
C299 C298 1.387 . S
H300 C312 0.930 . S
H301 C314 0.930 . S
H302 C315 0.930 . S
H303 C319 0.959 . S
H304 C319 0.959 . S
H305 C319 0.961 . S
H306 C320 0.960 . S
H307 C320 0.961 . S
H308 C320 0.959 . S
H309 C323 0.929 . S
H310 C324 0.931 . S
H311 C326 0.930 . S
C312 H300 0.930 . S
C312 C313 1.399 . S
C312 C317 1.399 . S
C313 C312 1.399 . S
C313 C314 1.376 . S
C314 H301 0.930 . S
C314 C313 1.376 . S
C314 C315 1.388 . S
C315 H302 0.930 . S
C315 C314 1.388 . S
C315 C316 1.390 . S
C316 C315 1.390 . S
C316 C317 1.394 . S
C316 C322 1.465 . S
C317 C312 1.399 . S
C317 C316 1.394 . S
C317 C318 1.516 . S
C318 C317 1.516 . S
C318 C319 1.502 . S
C318 C320 1.561 . S
C318 C321 1.526 . S
C319 H303 0.959 . S
C319 H304 0.959 . S
C319 H305 0.961 . S
C319 C318 1.502 . S
C320 H306 0.960 . S
C320 H307 0.961 . S
C320 H308 0.959 . S
C320 C318 1.561 . S
C321 C318 1.526 . S
C321 C322 1.396 . S
C321 C326 1.390 . S
C322 C316 1.465 . S
C322 C321 1.396 . S
C322 C323 1.399 . S
C323 H309 0.929 . S
C323 C322 1.399 . S
C323 C324 1.385 . S
C324 H310 0.931 . S
C324 C323 1.385 . S
C324 C325 1.389 . S
C325 C324 1.389 . S
C325 C326 1.387 . S
C326 H311 0.930 . S
C326 C321 1.390 . S
C326 C325 1.387 . S
H327 C339 0.930 . S
H328 C341 0.930 . S
H329 C342 0.930 . S
H330 C346 0.959 . S
H331 C346 0.959 . S
H332 C346 0.961 . S
H333 C347 0.960 . S
H334 C347 0.961 . S
H335 C347 0.959 . S
H336 C350 0.929 . S
H337 C351 0.931 . S
H338 C353 0.930 . S
C339 H327 0.930 . S
C339 C340 1.399 . S
C339 C344 1.399 . S
C340 C339 1.399 . S
C340 C341 1.376 . S
C341 H328 0.930 . S
C341 C340 1.376 . S
C341 C342 1.388 . S
C342 H329 0.930 . S
C342 C341 1.388 . S
C342 C343 1.390 . S
C343 C342 1.390 . S
C343 C344 1.394 . S
C343 C349 1.465 . S
C344 C339 1.399 . S
C344 C343 1.394 . S
C344 C345 1.516 . S
C345 C344 1.516 . S
C345 C346 1.502 . S
C345 C347 1.561 . S
C345 C348 1.526 . S
C346 H330 0.959 . S
C346 H331 0.959 . S
C346 H332 0.961 . S
C346 C345 1.502 . S
C347 H333 0.960 . S
C347 H334 0.961 . S
C347 H335 0.959 . S
C347 C345 1.561 . S
C348 C345 1.526 . S
C348 C349 1.396 . S
C348 C353 1.390 . S
C349 C343 1.465 . S
C349 C348 1.396 . S
C349 C350 1.399 . S
C350 H336 0.929 . S
C350 C349 1.399 . S
C350 C351 1.385 . S
C351 H337 0.931 . S
C351 C350 1.385 . S
C351 C352 1.389 . S
C352 C351 1.389 . S
C352 C353 1.387 . S
C353 H338 0.930 . S
C353 C348 1.390 . S
C353 C352 1.387 . S
H354 C366 0.930 . S
H355 C368 0.930 . S
H356 C369 0.930 . S
H357 C373 0.959 . S
H358 C373 0.959 . S
H359 C373 0.961 . S
H360 C374 0.960 . S
H361 C374 0.961 . S
H362 C374 0.959 . S
H363 C377 0.929 . S
H364 C378 0.931 . S
H365 C380 0.930 . S
C366 H354 0.930 . S
C366 C367 1.399 . S
C366 C371 1.399 . S
C367 C366 1.399 . S
C367 C368 1.376 . S
C368 H355 0.930 . S
C368 C367 1.376 . S
C368 C369 1.388 . S
C369 H356 0.930 . S
C369 C368 1.388 . S
C369 C370 1.390 . S
C370 C369 1.390 . S
C370 C371 1.394 . S
C370 C376 1.465 . S
C371 C366 1.399 . S
C371 C370 1.394 . S
C371 C372 1.516 . S
C372 C371 1.516 . S
C372 C373 1.502 . S
C372 C374 1.561 . S
C372 C375 1.526 . S
C373 H357 0.959 . S
C373 H358 0.959 . S
C373 H359 0.961 . S
C373 C372 1.502 . S
C374 H360 0.960 . S
C374 H361 0.961 . S
C374 H362 0.959 . S
C374 C372 1.561 . S
C375 C372 1.526 . S
C375 C376 1.396 . S
C375 C380 1.390 . S
C376 C370 1.465 . S
C376 C375 1.396 . S
C376 C377 1.399 . S
C377 H363 0.929 . S
C377 C376 1.399 . S
C377 C378 1.385 . S
C378 H364 0.931 . S
C378 C377 1.385 . S
C378 C379 1.389 . S
C379 C378 1.389 . S
C379 C380 1.387 . S
C380 H365 0.930 . S
C380 C375 1.390 . S
C380 C379 1.387 . S
H381 C393 0.930 . S
H382 C395 0.930 . S
H383 C396 0.930 . S
H384 C400 0.959 . S
H385 C400 0.959 . S
H386 C400 0.961 . S
H387 C401 0.960 . S
H388 C401 0.961 . S
H389 C401 0.959 . S
H390 C404 0.929 . S
H391 C405 0.931 . S
H392 C407 0.930 . S
C393 H381 0.930 . S
C393 C394 1.399 . S
C393 C398 1.399 . S
C394 C393 1.399 . S
C394 C395 1.376 . S
C395 H382 0.930 . S
C395 C394 1.376 . S
C395 C396 1.388 . S
C396 H383 0.930 . S
C396 C395 1.388 . S
C396 C397 1.390 . S
C397 C396 1.390 . S
C397 C398 1.394 . S
C397 C403 1.465 . S
C398 C393 1.399 . S
C398 C397 1.394 . S
C398 C399 1.516 . S
C399 C398 1.516 . S
C399 C400 1.502 . S
C399 C401 1.561 . S
C399 C402 1.526 . S
C400 H384 0.959 . S
C400 H385 0.959 . S
C400 H386 0.961 . S
C400 C399 1.502 . S
C401 H387 0.960 . S
C401 H388 0.961 . S
C401 H389 0.959 . S
C401 C399 1.561 . S
C402 C399 1.526 . S
C402 C403 1.396 . S
C402 C407 1.390 . S
C403 C397 1.465 . S
C403 C402 1.396 . S
C403 C404 1.399 . S
C404 H390 0.929 . S
C404 C403 1.399 . S
C404 C405 1.385 . S
C405 H391 0.931 . S
C405 C404 1.385 . S
C405 C406 1.389 . S
C406 C405 1.389 . S
C406 C407 1.387 . S
C407 H392 0.930 . S
C407 C402 1.390 . S
C407 C406 1.387 . S
H408 C420 0.930 . S
H409 C422 0.930 . S
H410 C423 0.930 . S
H411 C427 0.959 . S
H412 C427 0.959 . S
H413 C427 0.961 . S
H414 C428 0.960 . S
H415 C428 0.961 . S
H416 C428 0.959 . S
H417 C431 0.929 . S
H418 C432 0.931 1_545 S
H419 C434 0.928 1_545 S
C420 H408 0.930 . S
C420 C421 1.399 . S
C420 C425 1.399 . S
C421 C420 1.399 . S
C421 C422 1.376 . S
C422 H409 0.930 . S
C422 C421 1.376 . S
C422 C423 1.388 . S
C423 H410 0.930 . S
C423 C422 1.388 . S
C423 C424 1.390 . S
C424 C423 1.390 . S
C424 C425 1.394 . S
C424 C430 1.465 . S
C425 C420 1.399 . S
C425 C424 1.394 . S
C425 C426 1.516 . S
C426 C425 1.516 . S
C426 C427 1.502 . S
C426 C428 1.561 . S
C426 C429 1.526 . S
C427 H411 0.959 . S
C427 H412 0.959 . S
C427 H413 0.961 . S
C427 C426 1.502 . S
C428 H414 0.960 . S
C428 H415 0.961 . S
C428 H416 0.959 . S
C428 C426 1.561 . S
C429 C426 1.526 . S
C429 C430 1.396 . S
C429 C434 1.393 . S
C430 C424 1.465 . S
C430 C429 1.396 . S
C430 C431 1.399 . S
C431 H417 0.929 . S
C431 C430 1.399 . S
C431 C432 1.385 . S
C432 H418 0.931 1_565 S
C432 C431 1.385 . S
C432 C433 1.389 1_565 S
C433 C432 1.389 1_545 S
C433 C434 1.386 1_545 S
C434 H419 0.928 1_565 S
C434 C429 1.393 . S
C434 C433 1.386 1_565 S
H435 C447 0.930 . S
H436 C449 0.930 . S
H437 C450 0.930 . S
H438 C454 0.959 . S
H439 C454 0.959 . S
H440 C454 0.961 . S
H441 C455 0.960 . S
H442 C455 0.961 . S
H443 C455 0.959 . S
H444 C458 0.929 . S
H445 C459 0.931 . S
H446 C461 0.930 . S
C447 H435 0.930 . S
C447 C448 1.399 . S
C447 C452 1.399 . S
C448 C447 1.399 . S
C448 C449 1.376 . S
C449 H436 0.930 . S
C449 C448 1.376 . S
C449 C450 1.388 . S
C450 H437 0.930 . S
C450 C449 1.388 . S
C450 C451 1.390 . S
C451 C450 1.390 . S
C451 C452 1.394 . S
C451 C457 1.465 . S
C452 C447 1.399 . S
C452 C451 1.394 . S
C452 C453 1.516 . S
C453 C452 1.516 . S
C453 C454 1.502 . S
C453 C455 1.561 . S
C453 C456 1.526 . S
C454 H438 0.959 . S
C454 H439 0.959 . S
C454 H440 0.961 . S
C454 C453 1.502 . S
C455 H441 0.960 . S
C455 H442 0.961 . S
C455 H443 0.959 . S
C455 C453 1.561 . S
C456 C453 1.526 . S
C456 C457 1.396 . S
C456 C461 1.390 . S
C457 C451 1.465 . S
C457 C456 1.396 . S
C457 C458 1.399 . S
C458 H444 0.929 . S
C458 C457 1.399 . S
C458 C459 1.385 . S
C459 H445 0.931 . S
C459 C458 1.385 . S
C459 C460 1.389 . S
C460 C459 1.389 . S
C460 C461 1.387 . S
C461 H446 0.930 . S
C461 C456 1.390 . S
C461 C460 1.387 . S
H462 C474 0.930 . S
H463 C476 0.930 . S
H464 C477 0.930 . S
H465 C481 0.959 . S
H466 C481 0.959 . S
H467 C481 0.961 . S
H468 C482 0.960 . S
H469 C482 0.961 . S
H470 C482 0.959 . S
H471 C485 0.929 . S
H472 C486 0.931 . S
H473 C488 0.930 . S
C474 H462 0.930 . S
C474 C475 1.399 . S
C474 C479 1.399 . S
C475 C474 1.399 . S
C475 C476 1.376 . S
C476 H463 0.930 . S
C476 C475 1.376 . S
C476 C477 1.388 . S
C477 H464 0.930 . S
C477 C476 1.388 . S
C477 C478 1.390 . S
C478 C477 1.390 . S
C478 C479 1.394 . S
C478 C484 1.465 . S
C479 C474 1.399 . S
C479 C478 1.394 . S
C479 C480 1.516 . S
C480 C479 1.516 . S
C480 C481 1.502 . S
C480 C482 1.561 . S
C480 C483 1.526 . S
C481 H465 0.959 . S
C481 H466 0.959 . S
C481 H467 0.961 . S
C481 C480 1.502 . S
C482 H468 0.960 . S
C482 H469 0.961 . S
C482 H470 0.959 . S
C482 C480 1.561 . S
C483 C480 1.526 . S
C483 C484 1.396 . S
C483 C488 1.390 . S
C484 C478 1.465 . S
C484 C483 1.396 . S
C484 C485 1.399 . S
C485 H471 0.929 . S
C485 C484 1.399 . S
C485 C486 1.385 . S
C486 H472 0.931 . S
C486 C485 1.385 . S
C486 C487 1.389 . S
C487 C486 1.389 . S
C487 C488 1.387 . S
C488 H473 0.930 . S
C488 C483 1.390 . S
C488 C487 1.387 . S
H489 C501 0.930 . S
H490 C503 0.930 . S
H491 C504 0.930 . S
H492 C508 0.959 . S
H493 C508 0.959 . S
H494 C508 0.961 . S
H495 C509 0.960 . S
H496 C509 0.961 . S
H497 C509 0.959 . S
H498 C512 0.929 . S
H499 C513 0.931 . S
H500 C515 0.930 . S
C501 H489 0.930 . S
C501 C502 1.399 . S
C501 C506 1.399 . S
C502 C501 1.399 . S
C502 C503 1.376 . S
C503 H490 0.930 . S
C503 C502 1.376 . S
C503 C504 1.388 . S
C504 H491 0.930 . S
C504 C503 1.388 . S
C504 C505 1.390 . S
C505 C504 1.390 . S
C505 C506 1.394 . S
C505 C511 1.465 . S
C506 C501 1.399 . S
C506 C505 1.394 . S
C506 C507 1.516 . S
C507 C506 1.516 . S
C507 C508 1.502 . S
C507 C509 1.561 . S
C507 C510 1.526 . S
C508 H492 0.959 . S
C508 H493 0.959 . S
C508 H494 0.961 . S
C508 C507 1.502 . S
C509 H495 0.960 . S
C509 H496 0.961 . S
C509 H497 0.959 . S
C509 C507 1.561 . S
C510 C507 1.526 . S
C510 C511 1.396 . S
C510 C515 1.390 . S
C511 C505 1.465 . S
C511 C510 1.396 . S
C511 C512 1.399 . S
C512 H498 0.929 . S
C512 C511 1.399 . S
C512 C513 1.385 . S
C513 H499 0.931 . S
C513 C512 1.385 . S
C513 C514 1.389 . S
C514 C513 1.389 . S
C514 C515 1.387 . S
C515 H500 0.930 . S
C515 C510 1.390 . S
C515 C514 1.387 . S
H516 C528 0.930 . S
H517 C530 0.930 . S
H518 C531 0.930 . S
H519 C535 0.959 . S
H520 C535 0.959 . S
H521 C535 0.961 . S
H522 C536 0.960 . S
H523 C536 0.961 . S
H524 C536 0.959 . S
H525 C539 0.929 . S
H526 C540 0.931 . S
H527 C542 0.930 1_655 S
C528 H516 0.930 . S
C528 C529 1.399 . S
C528 C533 1.399 . S
C529 C528 1.399 . S
C529 C530 1.376 . S
C530 H517 0.930 . S
C530 C529 1.376 . S
C530 C531 1.388 . S
C531 H518 0.930 . S
C531 C530 1.388 . S
C531 C532 1.390 . S
C532 C531 1.390 . S
C532 C533 1.394 . S
C532 C538 1.465 . S
C533 C528 1.399 . S
C533 C532 1.394 . S
C533 C534 1.516 . S
C534 C533 1.516 . S
C534 C535 1.502 . S
C534 C536 1.561 1_455 S
C534 C537 1.513 1_554 S
C535 H519 0.959 . S
C535 H520 0.959 . S
C535 H521 0.961 . S
C535 C534 1.502 . S
C536 H522 0.960 . S
C536 H523 0.961 . S
C536 H524 0.959 . S
C536 C534 1.561 1_655 S
C537 C534 1.513 1_556 S
C537 C538 1.394 1_556 S
C537 C542 1.403 . S
C538 C532 1.465 . S
C538 C537 1.394 1_554 S
C538 C539 1.399 1_554 S
C539 H525 0.929 . S
C539 C538 1.399 1_556 S
C539 C540 1.385 . S
C540 H526 0.931 . S
C540 C539 1.385 . S
C540 C541 1.389 . S
C541 C540 1.389 . S
C541 C542 1.387 . S
C542 H527 0.930 1_455 S
C542 C537 1.403 . S
C542 C541 1.387 . S
H543 C555 0.930 1_565 S
H544 C557 0.930 . S
H545 C558 0.930 . S
H546 C562 0.959 1_545 S
H547 C562 0.959 . S
H548 C562 0.961 . S
H549 C563 0.960 . S
H550 C563 0.961 . S
H551 C563 0.959 . S
H552 C566 0.929 . S
H553 C567 0.931 . S
H554 C569 0.930 . S
C555 H543 0.930 1_545 S
C555 C556 1.399 . S
C555 C560 1.399 . S
C556 C555 1.399 . S
C556 C557 1.376 . S
C557 H544 0.930 . S
C557 C556 1.376 . S
C557 C558 1.388 . S
C558 H545 0.930 . S
C558 C557 1.388 . S
C558 C559 1.390 . S
C559 C558 1.390 . S
C559 C560 1.394 . S
C559 C565 1.465 . S
C560 C555 1.399 . S
C560 C559 1.394 . S
C560 C561 1.516 . S
C561 C560 1.516 . S
C561 C562 1.502 1_545 S
C561 C563 1.561 1_545 S
C561 C564 1.526 . S
C562 H546 0.959 1_565 S
C562 H547 0.959 . S
C562 H548 0.961 . S
C562 C561 1.502 1_565 S
C563 H549 0.960 . S
C563 H550 0.961 . S
C563 H551 0.959 . S
C563 C561 1.561 1_565 S
C564 C561 1.526 . S
C564 C565 1.396 . S
C564 C569 1.390 . S
C565 C559 1.465 . S
C565 C564 1.396 . S
C565 C566 1.399 . S
C566 H552 0.929 . S
C566 C565 1.399 . S
C566 C567 1.385 . S
C567 H553 0.931 . S
C567 C566 1.385 . S
C567 C568 1.389 . S
C568 C567 1.389 . S
C568 C569 1.387 . S
C569 H554 0.930 . S
C569 C564 1.390 . S
C569 C568 1.387 . S
H570 C582 0.930 . S
H571 C584 0.930 . S
H572 C585 0.930 . S
H573 C589 0.959 . S
H574 C589 0.959 . S
H575 C589 0.961 . S
H576 C590 0.960 . S
H577 C590 0.961 . S
H578 C590 0.959 . S
H579 C593 0.929 . S
H580 C594 0.931 . S
H581 C596 0.930 . S
C582 H570 0.930 . S
C582 C583 1.399 . S
C582 C587 1.399 . S
C583 C582 1.399 . S
C583 C584 1.376 . S
C584 H571 0.930 . S
C584 C583 1.376 . S
C584 C585 1.388 . S
C585 H572 0.930 . S
C585 C584 1.388 . S
C585 C586 1.390 . S
C586 C585 1.390 . S
C586 C587 1.394 . S
C586 C592 1.465 . S
C587 C582 1.399 . S
C587 C586 1.394 . S
C587 C588 1.516 . S
C588 C587 1.516 . S
C588 C589 1.502 . S
C588 C590 1.561 . S
C588 C591 1.526 . S
C589 H573 0.959 . S
C589 H574 0.959 . S
C589 H575 0.961 . S
C589 C588 1.502 . S
C590 H576 0.960 . S
C590 H577 0.961 . S
C590 H578 0.959 . S
C590 C588 1.561 . S
C591 C588 1.526 . S
C591 C592 1.396 . S
C591 C596 1.390 . S
C592 C586 1.465 . S
C592 C591 1.396 . S
C592 C593 1.399 . S
C593 H579 0.929 . S
C593 C592 1.399 . S
C593 C594 1.385 . S
C594 H580 0.931 . S
C594 C593 1.385 . S
C594 C595 1.389 . S
C595 C594 1.389 . S
C595 C596 1.387 . S
C596 H581 0.930 . S
C596 C591 1.390 . S
C596 C595 1.387 . S
H597 C609 0.930 . S
H598 C611 0.930 . S
H599 C612 0.930 . S
H600 C616 0.959 . S
H601 C616 0.959 . S
H602 C616 0.961 . S
H603 C617 0.960 . S
H604 C617 0.961 . S
H605 C617 0.959 . S
H606 C620 0.929 . S
H607 C621 0.931 . S
H608 C623 0.930 . S
C609 H597 0.930 . S
C609 C610 1.399 . S
C609 C614 1.399 . S
C610 C609 1.399 . S
C610 C611 1.376 1_545 S
C611 H598 0.930 . S
C611 C610 1.376 1_565 S
C611 C612 1.388 . S
C612 H599 0.930 . S
C612 C611 1.388 . S
C612 C613 1.390 1_565 S
C613 C612 1.390 1_545 S
C613 C614 1.394 . S
C613 C619 1.465 . S
C614 C609 1.399 . S
C614 C613 1.394 . S
C614 C615 1.516 . S
C615 C614 1.516 . S
C615 C616 1.502 . S
C615 C617 1.561 . S
C615 C618 1.526 . S
C616 H600 0.959 . S
C616 H601 0.959 . S
C616 H602 0.961 . S
C616 C615 1.502 . S
C617 H603 0.960 . S
C617 H604 0.961 . S
C617 H605 0.959 . S
C617 C615 1.561 . S
C618 C615 1.526 . S
C618 C619 1.396 . S
C618 C623 1.390 . S
C619 C613 1.465 . S
C619 C618 1.396 . S
C619 C620 1.399 1_545 S
C620 H606 0.929 . S
C620 C619 1.399 1_565 S
C620 C621 1.385 . S
C621 H607 0.931 . S
C621 C620 1.385 . S
C621 C622 1.389 1_565 S
C622 C621 1.389 1_545 S
C622 C623 1.387 . S
C623 H608 0.930 . S
C623 C618 1.390 . S
C623 C622 1.387 . S
H624 C636 0.930 . S
H625 C638 0.930 . S
H626 C639 0.930 . S
H627 C643 0.959 . S
H628 C643 0.959 1_554 S
H629 C643 0.961 . S
H630 C644 0.960 . S
H631 C644 0.961 1_554 S
H632 C644 0.959 . S
H633 C647 0.929 . S
H634 C648 0.931 . S
H635 C650 0.930 . S
C636 H624 0.930 . S
C636 C637 1.399 . S
C636 C641 1.399 . S
C637 C636 1.399 . S
C637 C638 1.376 . S
C638 H625 0.930 . S
C638 C637 1.376 . S
C638 C639 1.388 . S
C639 H626 0.930 . S
C639 C638 1.388 . S
C639 C640 1.390 . S
C640 C639 1.390 . S
C640 C641 1.394 . S
C640 C646 1.461 1_556 S
C641 C636 1.399 . S
C641 C640 1.394 . S
C641 C642 1.516 . S
C642 C641 1.516 . S
C642 C643 1.502 . S
C642 C644 1.561 . S
C642 C645 1.526 1_556 S
C643 H627 0.959 . S
C643 H628 0.959 1_556 S
C643 H629 0.961 . S
C643 C642 1.502 . S
C644 H630 0.960 . S
C644 H631 0.961 1_556 S
C644 H632 0.959 . S
C644 C642 1.561 . S
C645 C642 1.526 1_554 S
C645 C646 1.398 . S
C645 C650 1.390 . S
C646 C640 1.461 1_554 S
C646 C645 1.398 . S
C646 C647 1.401 . S
C647 H633 0.929 . S
C647 C646 1.401 . S
C647 C648 1.385 . S
C648 H634 0.931 . S
C648 C647 1.385 . S
C648 C649 1.389 . S
C649 C648 1.389 . S
C649 C650 1.387 . S
C650 H635 0.930 . S
C650 C645 1.390 . S
C650 C649 1.387 . S
H651 C663 0.930 . S
H652 C665 0.930 . S
H653 C666 0.930 1_655 S
H654 C670 0.959 . S
H655 C670 0.959 . S
H656 C670 0.961 . S
H657 C671 0.960 . S
H658 C671 0.961 . S
H659 C671 0.959 . S
H660 C674 0.929 1_655 S
H661 C675 0.931 1_655 S
H662 C677 0.930 . S
C663 H651 0.930 . S
C663 C664 1.399 . S
C663 C668 1.399 . S
C664 C663 1.399 . S
C664 C665 1.376 . S
C665 H652 0.930 . S
C665 C664 1.376 . S
C665 C666 1.388 . S
C666 H653 0.930 1_455 S
C666 C665 1.388 . S
C666 C667 1.390 . S
C667 C666 1.390 . S
C667 C668 1.394 . S
C667 C673 1.465 . S
C668 C663 1.399 . S
C668 C667 1.394 . S
C668 C669 1.516 . S
C669 C668 1.516 . S
C669 C670 1.502 . S
C669 C671 1.561 . S
C669 C672 1.526 . S
C670 H654 0.959 . S
C670 H655 0.959 . S
C670 H656 0.961 . S
C670 C669 1.502 . S
C671 H657 0.960 . S
C671 H658 0.961 . S
C671 H659 0.959 . S
C671 C669 1.561 . S
C672 C669 1.526 . S
C672 C673 1.396 . S
C672 C677 1.390 . S
C673 C667 1.465 . S
C673 C672 1.396 . S
C673 C674 1.399 . S
C674 H660 0.929 1_455 S
C674 C673 1.399 . S
C674 C675 1.385 . S
C675 H661 0.931 1_455 S
C675 C674 1.385 . S
C675 C676 1.389 . S
C676 C675 1.389 . S
C676 C677 1.387 . S
C677 H662 0.930 . S
C677 C672 1.390 . S
C677 C676 1.387 . S
C205 C10 3.233 . S
C217 C186 3.247 . S
C232 C59 3.140 . S
C244 C160 3.038 . S
C259 C90 3.066 . S
C271 C172 3.005 . S
C286 C19 2.845 . S
C298 C184 2.762 . S
C325 C162 2.914 . S
C313 C50 2.933 . S
C352 C174 2.942 . S
C340 C99 2.996 . S
C367 C46 0.684 . S
C379 C136 0.602 . S
C394 C95 0.668 . S
C406 C150 0.556 . S
C421 C6 0.189 . S
C433 C126 0.214 . S
C460 C138 0.186 . S
C448 C55 0.233 . S
C487 C148 0.487 . S
C475 C86 0.272 . S
C502 C15 0.573 . S
C514 C124 0.471 . S
C541 C153 1.235 . S
C529 C9 1.184 . S
C556 C49 1.215 . S
C568 C129 1.221 . S
C583 C89 1.244 . S
C595 C141 1.230 . S
C622 C177 1.739 . S
C610 C58 1.674 . S
C649 C189 1.804 . S
C637 C98 1.692 . S
C664 C18 1.636 . S
C676 C165 1.787 . S
