# Generated by pormake.
# Topology nom, (4,4)-cn, num edge types: 1
# Building blocks:
#     Node 0, Type 0, BuildingBlock: MUDLON_clean_linker_0, # of connection points: 4
#     Node 1, Type 0, BuildingBlock: MUDLON_clean_linker_0, # of connection points: 4
#     Node 2, Type 0, BuildingBlock: MUDLON_clean_linker_0, # of connection points: 4
#     Node 3, Type 0, BuildingBlock: MUDLON_clean_linker_0, # of connection points: 4
#     Node 4, Type 0, BuildingBlock: MUDLON_clean_linker_0, # of connection points: 4
#     Node 5, Type 0, BuildingBlock: MUDLON_clean_linker_0, # of connection points: 4
#     Node 6, Type 1, BuildingBlock: AZAVOO_clean_sbu_0, # of connection points: 4
#     Node 7, Type 1, BuildingBlock: AZAVOO_clean_sbu_0, # of connection points: 4
#     Node 8, Type 1, BuildingBlock: AZAVOO_clean_sbu_0, # of connection points: 4
#     Node 9, Type 1, BuildingBlock: AZAVOO_clean_sbu_0, # of connection points: 4
#     Node 10, Type 1, BuildingBlock: AZAVOO_clean_sbu_0, # of connection points: 4
#     Node 11, Type 1, BuildingBlock: AZAVOO_clean_sbu_0, # of connection points: 4
#     Edge 12, Type (0, 1), None
#     Edge 13, Type (0, 1), None
#     Edge 14, Type (0, 1), None
#     Edge 15, Type (0, 1), None
#     Edge 16, Type (0, 1), None
#     Edge 17, Type (0, 1), None
#     Edge 18, Type (0, 1), None
#     Edge 19, Type (0, 1), None
#     Edge 20, Type (0, 1), None
#     Edge 21, Type (0, 1), None
#     Edge 22, Type (0, 1), None
#     Edge 23, Type (0, 1), None
#     Edge 24, Type (0, 1), None
#     Edge 25, Type (0, 1), None
#     Edge 26, Type (0, 1), None
#     Edge 27, Type (0, 1), None
#     Edge 28, Type (0, 1), None
#     Edge 29, Type (0, 1), None
#     Edge 30, Type (0, 1), None
#     Edge 31, Type (0, 1), None
#     Edge 32, Type (0, 1), None
#     Edge 33, Type (0, 1), None
#     Edge 34, Type (0, 1), None
#     Edge 35, Type (0, 1), None
# Relax obj value: 0.040
# Max RMSD: 0.162
# Mean RMSD: 0.122
data_MOF--net-nom--node1-AZAVOO_clean_sbu_0--node2-MUDLON_clean_linker_0--edge1-none
_symmetry_space_group_name_H-M    P1
_symmetry_Int_Tables_number       1
_symmetry_cell_setting            triclinic
loop_
_symmetry_equiv_pos_as_xyz
'x, y, z'
_cell_length_a     36.331379
_cell_length_b     37.670797
_cell_length_c     32.857031
_cell_angle_alpha  93.311828
_cell_angle_beta   92.424195
_cell_angle_gamma 120.44798
loop_
_atom_site_label
_atom_site_type_symbol
_atom_site_fract_x
_atom_site_fract_y
_atom_site_fract_z
_atom_type_partial_charge
H0 H 0.19794 0.57787 0.33937 0.0
N1 N 0.1457 0.58663 0.38731 0.0
H2 H 0.24412 0.62581 0.29199 0.0
H3 H 0.15207 0.66004 0.3726 0.0
H4 H 0.19952 0.70927 0.32632 0.0
H5 H 0.17571 0.65661 0.43961 0.0
H6 H 0.20724 0.6678 0.50961 0.0
H7 H 0.14901 0.53101 0.43139 0.0
H8 H 0.17885 0.54144 0.50245 0.0
H9 H 0.1049 0.51291 0.34568 0.0
H10 H 0.0857 0.60773 0.40176 0.0
H11 H 0.02928 0.47261 0.3205 0.0
H12 H 0.0093 0.56737 0.377 0.0
H13 H 0.8382 0.36785 0.22081 0.0
H14 H 0.81227 0.36046 0.14894 0.0
H15 H 0.78506 0.4582 0.17473 0.0
H16 H 0.81276 0.46665 0.24578 0.0
H17 H 0.82028 0.47389 0.31758 0.0
H18 H 0.75422 0.45753 0.34889 0.0
H19 H 0.71663 0.32838 0.3404 0.0
H20 H 0.78175 0.34496 0.30744 0.0
H21 H 0.88538 0.39157 0.3176 0.0
H22 H 0.95967 0.43339 0.34664 0.0
H23 H 0.96263 0.54362 0.31167 0.0
N24 N 0.83756 0.41706 0.28177 0.0
H25 H 0.88775 0.50123 0.28321 0.0
C26 C 0.17237 0.61576 0.3599 0.0
C27 C 0.19811 0.60645 0.33647 0.0
C28 C 0.22422 0.6338 0.30932 0.0
C29 C 0.22551 0.67143 0.30551 0.0
C30 C 0.19934 0.68064 0.32879 0.0
C31 C 0.17247 0.6527 0.3554 0.0
C32 C 0.16051 0.59301 0.42995 0.0
C33 C 0.17637 0.63132 0.45282 0.0
C34 C 0.19451 0.63773 0.49293 0.0
C35 C 0.19594 0.60562 0.51136 0.0
C36 C 0.17831 0.56679 0.48904 0.0
C37 C 0.16119 0.56075 0.44857 0.0
C38 C 0.10055 0.56294 0.37558 0.0
C39 C 0.08401 0.52468 0.35287 0.0
C40 C 0.04082 0.50175 0.33864 0.0
C41 C 0.01316 0.5167 0.34685 0.0
C42 C 0.02986 0.5552 0.36986 0.0
C43 C 0.0733 0.57814 0.38424 0.0
C44 C 0.82701 0.41729 0.23894 0.0
C45 C 0.8274 0.38817 0.21071 0.0
C46 C 0.81243 0.38393 0.16973 0.0
C47 C 0.79598 0.40834 0.15628 0.0
C48 C 0.7969 0.4385 0.18428 0.0
C49 C 0.81283 0.44337 0.22507 0.0
C50 C 0.80494 0.41024 0.30886 0.0
C51 C 0.79813 0.44219 0.32306 0.0
C52 C 0.76056 0.43285 0.34138 0.0
C53 C 0.72986 0.39159 0.34663 0.0
C54 C 0.7395 0.36049 0.33688 0.0
C55 C 0.77654 0.36978 0.31775 0.0
C56 C 0.88134 0.4432 0.29806 0.0
C57 C 0.90218 0.42476 0.31624 0.0
C58 C 0.9446 0.44871 0.33267 0.0
C59 C 0.96722 0.49185 0.33123 0.0
C60 C 0.94599 0.51051 0.31355 0.0
C61 C 0.90333 0.48635 0.29703 0.0
H62 H 0.46442 0.82161 0.51948 0.0
N63 N 0.45003 0.85365 0.45514 0.0
H64 H 0.41256 0.77715 0.56566 0.0
H65 H 0.36437 0.82878 0.45193 0.0
H66 H 0.31263 0.78451 0.49739 0.0
H67 H 0.39879 0.86121 0.39709 0.0
H68 H 0.37883 0.82772 0.32702 0.0
H69 H 0.48208 0.81245 0.41705 0.0
H70 H 0.46475 0.78152 0.34573 0.0
H71 H 0.53327 0.90671 0.45411 0.0
H72 H 0.41435 0.90077 0.47657 0.0
H73 H 0.57223 0.98093 0.47388 0.0
H74 H 0.45296 0.97384 0.49978 0.0
H75 H 0.68612 0.19769 0.5873 0.0
H76 H 0.69432 0.2281 0.65772 0.0
H77 H 0.56013 0.18975 0.64886 0.0
H78 H 0.55161 0.15707 0.57971 0.0
H79 H 0.56149 0.18865 0.52059 0.0
H80 H 0.56091 0.22549 0.46264 0.0
H81 H 0.66925 0.22073 0.41957 0.0
H82 H 0.66934 0.1832 0.4781 0.0
H83 H 0.63863 0.10361 0.5481 0.0
H84 H 0.59701 0.02919 0.52928 0.0
H85 H 0.49027 0.04099 0.48449 0.0
N86 N 0.61548 0.15898 0.53657 0.0
H87 H 0.53083 0.1143 0.50675 0.0
C88 C 0.4185 0.82827 0.48204 0.0
C89 C 0.43133 0.81364 0.51468 0.0
C90 C 0.40165 0.78835 0.54101 0.0
C91 C 0.35839 0.77723 0.53512 0.0
C92 C 0.34566 0.79246 0.50276 0.0
C93 C 0.37537 0.8177 0.47646 0.0
C94 C 0.44108 0.8383 0.41256 0.0
C95 C 0.41266 0.84321 0.38646 0.0
C96 C 0.40144 0.82423 0.34644 0.0
C97 C 0.41987 0.80162 0.33138 0.0
C98 C 0.44992 0.79853 0.35682 0.0
C99 C 0.4599 0.81623 0.39731 0.0
C100 C 0.47109 0.89787 0.46438 0.0
C101 C 0.51563 0.92145 0.46356 0.0
C102 C 0.53787 0.96386 0.47553 0.0
C103 C 0.5161 0.98373 0.48947 0.0
C104 C 0.4711 0.96009 0.48909 0.0
C105 C 0.44879 0.91781 0.47613 0.0
C106 C 0.61862 0.176 0.57792 0.0
C107 C 0.65851 0.19575 0.60072 0.0
C108 C 0.66312 0.21302 0.64082 0.0
C109 C 0.62799 0.21173 0.65849 0.0
C110 C 0.58791 0.19178 0.6357 0.0
C111 C 0.58305 0.17334 0.59606 0.0
C112 C 0.61584 0.18331 0.50403 0.0
C113 C 0.58539 0.19562 0.4991 0.0
C114 C 0.58484 0.21652 0.46553 0.0
C115 C 0.61486 0.22584 0.43626 0.0
C116 C 0.64558 0.21392 0.44146 0.0
C117 C 0.64587 0.19272 0.47495 0.0
C118 C 0.58837 0.11476 0.5283 0.0
C119 C 0.60599 0.08984 0.53479 0.0
C120 C 0.58222 0.04732 0.52335 0.0
C121 C 0.54032 0.02872 0.50431 0.0
C122 C 0.5222 0.05373 0.49918 0.0
C123 C 0.54569 0.09611 0.51159 0.0
H124 H 0.45789 0.65627 0.66792 0.0
N125 N 0.44689 0.58583 0.69239 0.0
H126 H 0.40319 0.66773 0.63622 0.0
H127 H 0.36818 0.52495 0.65683 0.0
H128 H 0.31296 0.53611 0.62646 0.0
H129 H 0.37414 0.53394 0.72948 0.0
H130 H 0.35737 0.54748 0.79715 0.0
H131 H 0.50185 0.63976 0.75219 0.0
H132 H 0.48529 0.65331 0.82079 0.0
H133 H 0.51292 0.60471 0.6487 0.0
H134 H 0.40828 0.50231 0.69989 0.0
H135 H 0.53307 0.55747 0.61618 0.0
H136 H 0.42828 0.45528 0.66802 0.0
H137 H 0.5786 0.44815 0.52987 0.0
H138 H 0.60278 0.44187 0.46278 0.0
H139 H 0.51957 0.30916 0.4562 0.0
H140 H 0.49473 0.31582 0.52243 0.0
H141 H 0.48243 0.33029 0.6265 0.0
H142 H 0.51516 0.30843 0.6785 0.0
H143 H 0.64008 0.39095 0.63822 0.0
H144 H 0.60709 0.4132 0.58704 0.0
H145 H 0.44526 0.37709 0.56881 0.0
H146 H 0.42753 0.42736 0.59798 0.0
H147 H 0.56166 0.51246 0.63422 0.0
N148 N 0.52135 0.38352 0.57163 0.0
H149 H 0.57902 0.46219 0.60453 0.0
C150 C 0.41701 0.59008 0.66573 0.0
C151 C 0.42672 0.62986 0.65762 0.0
C152 C 0.3954 0.63624 0.63931 0.0
C153 C 0.35342 0.60283 0.62945 0.0
C154 C 0.34486 0.56253 0.63407 0.0
C155 C 0.37647 0.55614 0.65174 0.0
C156 C 0.43933 0.58639 0.73522 0.0
C157 C 0.3992 0.55934 0.74934 0.0
C158 C 0.38953 0.56709 0.78838 0.0
C159 C 0.41974 0.60183 0.8142 0.0
C160 C 0.46123 0.62627 0.80168 0.0
C161 C 0.47078 0.61866 0.76244 0.0
C162 C 0.45929 0.55727 0.67674 0.0
C163 C 0.49465 0.57214 0.65327 0.0
C164 C 0.50608 0.54518 0.63479 0.0
C165 C 0.48204 0.50264 0.63931 0.0
C166 C 0.44698 0.48783 0.66344 0.0
C167 C 0.4357 0.51485 0.68202 0.0
C168 C 0.53424 0.38225 0.53095 0.0
C169 C 0.56497 0.4178 0.51372 0.0
C170 C 0.57899 0.4142 0.47544 0.0
C171 C 0.56337 0.37504 0.45444 0.0
C172 C 0.53259 0.33978 0.47177 0.0
C173 C 0.51805 0.34347 0.5094 0.0
C174 C 0.54215 0.3728 0.60273 0.0
C175 C 0.51687 0.34375 0.62922 0.0
C176 C 0.53564 0.33143 0.65885 0.0
C177 C 0.58016 0.34777 0.66218 0.0
C178 C 0.60565 0.37756 0.63611 0.0
C179 C 0.58686 0.3903 0.60684 0.0
C180 C 0.51323 0.41591 0.5844 0.0
C181 C 0.47079 0.4069 0.58245 0.0
C182 C 0.46075 0.43542 0.59949 0.0
C183 C 0.49317 0.47364 0.61881 0.0
C184 C 0.53603 0.48334 0.61936 0.0
C185 C 0.546 0.45466 0.6024 0.0
H186 H 0.22049 0.69589 0.85778 0.0
N187 N 0.14777 0.64122 0.81497 0.0
H188 H 0.27443 0.68275 0.88814 0.0
H189 H 0.13337 0.56472 0.8324 0.0
H190 H 0.18742 0.55132 0.86138 0.0
H191 H 0.14872 0.58171 0.76315 0.0
H192 H 0.18143 0.59222 0.69936 0.0
H193 H 0.17464 0.70718 0.77274 0.0
H194 H 0.20888 0.71832 0.70811 0.0
H195 H 0.11032 0.67093 0.86194 0.0
H196 H 0.0829 0.56485 0.78054 0.0
H197 H 0.03393 0.63883 0.87242 0.0
H198 H 0.00747 0.53283 0.79113 0.0
H199 H 0.79534 0.53162 0.90214 0.0
H200 H 0.76641 0.51079 0.96839 0.0
H201 H 0.81989 0.4314 0.97231 0.0
H202 H 0.85 0.4535 0.90723 0.0
H203 H 0.84598 0.43596 0.8376 0.0
H204 H 0.79207 0.36894 0.80359 0.0
H205 H 0.70749 0.41634 0.78122 0.0
H206 H 0.76149 0.48319 0.81626 0.0
H207 H 0.90344 0.54608 0.9154 0.0
H208 H 0.97863 0.57953 0.90438 0.0
H209 H 0.94685 0.54375 0.77481 0.0
N210 N 0.83466 0.50151 0.85748 0.0
H211 H 0.87105 0.50936 0.78547 0.0
C212 C 0.17329 0.63159 0.84196 0.0
C213 C 0.21254 0.66424 0.85994 0.0
C214 C 0.24335 0.65658 0.87726 0.0
C215 C 0.23562 0.61596 0.87628 0.0
C216 C 0.19462 0.583 0.86208 0.0
C217 C 0.16358 0.5907 0.84536 0.0
C218 C 0.15933 0.6439 0.77324 0.0
C219 C 0.16016 0.61125 0.75107 0.0
C220 C 0.17917 0.61735 0.71424 0.0
C221 C 0.19828 0.65626 0.69885 0.0
C222 C 0.19431 0.68791 0.71912 0.0
C223 C 0.17499 0.68169 0.75611 0.0
C224 C 0.10262 0.62073 0.82041 0.0
C225 C 0.08791 0.64078 0.84643 0.0
C226 C 0.04441 0.62236 0.85247 0.0
C227 C 0.01476 0.58338 0.83243 0.0
C228 C 0.0295 0.56318 0.80647 0.0
C229 C 0.07296 0.58156 0.80055 0.0
C230 C 0.82366 0.49331 0.89912 0.0
C231 C 0.80167 0.51056 0.91788 0.0
C232 C 0.78556 0.4989 0.95586 0.0
C233 C 0.79062 0.46919 0.97531 0.0
C234 C 0.81523 0.45411 0.95788 0.0
C235 C 0.83194 0.46629 0.92032 0.0
C236 C 0.80735 0.46449 0.83033 0.0
C237 C 0.81611 0.43218 0.82493 0.0
C238 C 0.78529 0.39387 0.80511 0.0
C239 C 0.74515 0.387 0.79011 0.0
C240 C 0.73799 0.42044 0.79236 0.0
C241 C 0.76874 0.45868 0.81252 0.0
C242 C 0.88028 0.52166 0.8517 0.0
C243 C 0.91188 0.54397 0.88455 0.0
C244 C 0.95536 0.56401 0.87824 0.0
C245 C 0.96862 0.56345 0.83888 0.0
C246 C 0.93753 0.54351 0.80572 0.0
C247 C 0.89402 0.52356 0.81194 0.0
H248 H 0.53206 0.21484 0.99419 0.0
N249 N 0.53875 0.15443 0.95663 0.0
H250 H 0.5899 0.27918 0.02974 0.0
H251 H 0.61849 0.16859 0.98346 0.0
H252 H 0.67679 0.23329 1.01716 0.0
H253 H 0.60715 0.16815 0.91293 0.0
H254 H 0.62145 0.19596 0.84709 0.0
H255 H 0.48341 0.15822 0.90419 0.0
H256 H 0.49755 0.18597 0.8373 0.0
H257 H 0.46808 0.10789 0.9925 0.0
H258 H 0.57573 0.10723 0.94291 0.0
H259 H 0.44143 0.03787 1.01249 0.0
H260 H 0.55113 0.03899 0.96471 0.0
H261 H 0.36798 0.85215 0.06263 0.0
H262 H 0.33037 0.81695 0.12127 0.0
H263 H 0.45063 0.84398 0.18193 0.0
H264 H 0.48773 0.87779 0.12282 0.0
H265 H 0.48267 0.82661 0.04404 0.0
H266 H 0.45674 0.76493 0.99599 0.0
H267 H 0.35839 0.78541 0.94419 0.0
H268 H 0.38416 0.84649 0.99262 0.0
H269 H 0.43982 0.93835 0.08734 0.0
H270 H 0.45862 0.00367 0.06173 0.0
H271 H 0.49874 0.96886 0.95204 0.0
N272 N 0.45173 0.87717 0.05085 0.0
H273 H 0.48241 0.90428 0.97857 0.0
C274 C 0.57093 0.18729 0.98511 0.0
C275 C 0.56323 0.21818 1.0004 0.0
C276 C 0.5964 0.25489 0.0208 0.0
C277 C 0.63823 0.26167 0.02553 0.0
C278 C 0.64504 0.22919 1.01354 0.0
C279 C 0.61158 0.19212 0.9939 0.0
C280 C 0.54432 0.16185 0.91413 0.0
C281 C 0.58236 0.17068 0.89649 0.0
C282 C 0.59058 0.18659 0.85849 0.0
C283 C 0.56093 0.19373 0.83728 0.0
C284 C 0.52104 0.18076 0.85289 0.0
C285 C 0.51298 0.16514 0.89117 0.0
C286 C 0.52394 0.11296 0.96665 0.0
C287 C 0.486 0.09265 0.98613 0.0
C288 C 0.47106 0.05286 0.99774 0.0
C289 C 0.49422 0.03282 0.99038 0.0
C290 C 0.53207 0.05315 0.97032 0.0
C291 C 0.5466 0.09267 0.95825 0.0
C292 C 0.43048 0.86617 0.08806 0.0
C293 C 0.38631 0.85134 0.089 0.0
C294 C 0.36498 0.83197 0.12279 0.0
C295 C 0.38766 0.82731 0.15566 0.0
C296 C 0.43244 0.84675 0.15662 0.0
C297 C 0.45364 0.86591 0.12296 0.0
C298 C 0.43571 0.84129 0.02168 0.0
C299 C 0.45555 0.81766 0.02224 0.0
C300 C 0.44063 0.78247 0.99488 0.0
C301 C 0.40567 0.77045 0.96616 0.0
C302 C 0.38559 0.79402 0.96577 0.0
C303 C 0.40019 0.82889 0.9935 0.0
C304 C 0.45762 0.9145 0.03427 0.0
C305 C 0.45166 0.94376 0.05732 0.0
C306 C 0.46247 0.98158 0.04259 0.0
C307 C 0.4799 -0.00852 1.00467 0.0
C308 C 0.4857 0.96245 0.98155 0.0
C309 C 0.47557 0.92497 0.99651 0.0
H310 H 0.55993 0.40705 0.18829 0.0
N311 N 0.47444 0.35082 0.16673 0.0
H312 H 0.61959 0.4204 0.14819 0.0
H313 H 0.47099 0.319 0.09148 0.0
H314 H 0.53089 0.33262 0.05068 0.0
H315 H 0.50917 0.40052 0.23922 0.0
H316 H 0.53462 0.38217 0.29944 0.0
H317 H 0.45076 0.27483 0.18506 0.0
H318 H 0.47544 0.25609 0.2464 0.0
H319 H 0.39352 0.32516 0.14309 0.0
H320 H 0.51466 0.43548 0.18124 0.0
H321 H 0.36118 0.36768 0.13166 0.0
H322 H 0.48256 0.47772 0.1705 0.0
H323 H 0.27803 0.50231 0.06391 0.0
H324 H 0.27706 0.52066 0.99341 0.0
H325 H 0.41508 0.59477 1.0054 0.0
H326 H 0.41608 0.57383 0.07436 0.0
H327 H 0.4248 0.59487 0.14128 0.0
H328 H 0.43805 0.6573 0.18096 0.0
H329 H 0.30294 0.59931 0.19841 0.0
H330 H 0.29 0.53696 0.15779 0.0
H331 H 0.34037 0.46359 0.06803 0.0
H332 H 0.37099 0.42071 0.08196 0.0
H333 H 0.42445 0.48863 0.20021 0.0
N334 N 0.34598 0.52675 0.11665 0.0
H335 H 0.39353 0.53091 0.18732 0.0
C336 C 0.51063 0.36147 0.143 0.0
C337 C 0.55301 0.39064 0.15834 0.0
C338 C 0.58733 0.39838 0.13528 0.0
C339 C 0.58005 0.37747 0.09635 0.0
C340 C 0.53764 0.34928 0.08061 0.0
C341 C 0.50335 0.34137 0.1038 0.0
C342 C 0.4788 0.33913 0.20691 0.0
C343 C 0.50041 0.36866 0.24063 0.0
C344 C 0.51505 0.35818 0.27525 0.0
C345 C 0.50748 0.31794 0.2771 0.0
C346 C 0.48144 0.28729 0.24571 0.0
C347 C 0.46749 0.29798 0.21068 0.0
C348 C 0.45623 0.37685 0.16334 0.0
C349 C 0.41293 0.35843 0.14945 0.0
C350 C 0.39467 0.3827 0.14271 0.0
C351 C 0.41946 0.42594 0.15018 0.0
C352 C 0.46266 0.44441 0.16489 0.0
C353 C 0.48102 0.42016 0.17112 0.0
C354 C 0.34689 0.53741 0.07489 0.0
C355 C 0.30803 0.5222 0.05114 0.0
C356 C 0.30755 0.5326 1.01099 0.0
C357 C 0.346 0.55943 0.99429 0.0
C358 C 0.385 0.57447 1.01786 0.0
C359 C 0.38554 0.56286 0.05748 0.0
C360 C 0.35601 0.56154 0.14551 0.0
C361 C 0.398 0.59547 0.15363 0.0
C362 C 0.40565 0.63102 0.17703 0.0
C363 C 0.37151 0.63363 0.19252 0.0
C364 C 0.33006 0.59847 0.18704 0.0
C365 C 0.32247 0.56288 0.16357 0.0
C366 C 0.36663 0.50307 0.12504 0.0
C367 C 0.35946 0.47019 0.09667 0.0
C368 C 0.37648 0.44516 0.10483 0.0
C369 C 0.40067 0.45189 0.14186 0.0
C370 C 0.40684 0.48355 0.17093 0.0
C371 C 0.38937 0.50826 0.16307 0.0
Mg372 Mg 0.58684 0.30241 0.35106 0.0
O373 O 0.57479 0.33531 0.404 0.0
O374 O 0.59234 0.39926 0.39115 0.0
Mg375 Mg 0.6105 0.40484 0.32457 0.0
C376 C 0.57844 0.37006 0.41461 0.0
C377 C 0.61492 0.24914 0.40141 0.0
O378 O 0.64683 0.26371 0.37785 0.0
O379 O 0.65932 0.34335 0.36214 0.0
O380 O 0.67182 0.40289 0.33918 0.0
O381 O 0.51934 0.27658 0.32384 0.0
O382 O 0.57462 0.33662 0.31133 0.0
C383 C 0.68506 0.37979 0.35259 0.0
C384 C 0.53418 0.31053 0.30613 0.0
O385 O 0.58547 0.25762 0.39584 0.0
Mg386 Mg 0.29079 0.68127 0.62483 0.0
O387 O 0.24572 0.64919 0.56668 0.0
O388 O 0.2024 0.58262 0.57583 0.0
Mg389 Mg 0.21429 0.57448 0.64302 0.0
C390 C 0.21587 0.61279 0.55356 0.0
C391 C 0.32649 0.74848 0.56148 0.0
O392 O 0.28584 0.73693 0.5552 0.0
O393 O 0.32645 0.6468 0.61479 0.0
O394 O 0.281 0.58403 0.63354 0.0
O395 O 0.24643 0.70032 0.65083 0.0
O396 O 0.244 0.64168 0.66006 0.0
C397 C 0.31773 0.61075 0.62294 0.0
C398 C 0.22887 0.66551 0.66724 0.0
O399 O 0.33785 0.73248 0.58862 0.0
Mg400 Mg 0.6048 0.28401 0.76378 0.0
O401 O 0.61118 0.24787 0.7088 0.0
O402 O 0.65778 0.22868 0.72768 0.0
Mg403 Mg 0.67291 0.24431 0.79747 0.0
C404 C 0.63285 0.23072 0.70058 0.0
C405 C 0.59965 0.33286 0.69187 0.0
O406 O 0.63857 0.3398 0.68829 0.0
O407 O 0.67314 0.33881 0.7645 0.0
O408 O 0.71225 0.31443 0.7921 0.0
O409 O 0.54803 0.22691 0.78209 0.0
O410 O 0.6151 0.2491 0.80402 0.0
C411 C 0.70884 0.34419 0.77943 0.0
C412 C 0.57506 0.22228 0.80482 0.0
O413 O 0.57818 0.3116 0.71996 0.0
Mg414 Mg 0.37613 0.65121 0.89531 0.0
O415 O 0.36889 0.61063 0.94736 0.0
O416 O 0.32039 0.54549 0.92414 0.0
Mg417 Mg 0.30698 0.54353 0.85473 0.0
C418 C 0.34532 0.57248 0.95288 0.0
C419 C 0.39018 0.73363 0.93668 0.0
O420 O 0.36324 0.72704 0.90524 0.0
O421 O 0.30793 0.63858 0.89845 0.0
O422 O 0.26799 0.57548 0.86559 0.0
O423 O 0.43273 0.64908 0.87361 0.0
O424 O 0.36561 0.60442 0.85152 0.0
C425 C 0.27192 0.6088 0.8825 0.0
C426 C 0.40563 0.6171 0.84928 0.0
O427 O 0.40253 0.70789 0.94138 0.0
Mg428 Mg 0.70313 0.40136 0.04948 0.0
O429 O 0.74838 0.41094 0.10584 0.0
O430 O 0.78912 0.38539 0.08588 0.0
Mg431 Mg 0.77785 0.36999 1.01606 0.0
C432 C 0.77702 0.40152 0.11359 0.0
C433 C 0.61633 0.38355 0.07286 0.0
O434 O 0.60904 0.36499 0.03582 0.0
O435 O 0.6677 0.33172 0.0507 0.0
O436 O 0.71078 0.31348 0.02136 0.0
O437 O 0.74606 0.46474 0.02984 0.0
O438 O 0.74958 0.40951 1.01099 0.0
C439 C 0.67496 0.30421 0.03536 0.0
C440 C 0.76341 0.44808 1.00828 0.0
O441 O 0.65472 0.40434 0.08887 0.0
Mg442 Mg 0.32899 0.72706 0.21605 0.0
O443 O 0.36877 0.76267 0.27572 0.0
O444 O 0.43797 0.78773 0.26626 0.0
Mg445 Mg 0.44266 0.7768 0.19752 0.0
C446 C 0.4082 0.78222 0.289 0.0
C447 C 0.25555 0.7012 0.27858 0.0
O448 O 0.26922 0.74086 0.28497 0.0
O449 O 0.34558 0.67641 0.21823 0.0
O450 O 0.41184 0.70671 0.19788 0.0
O451 O 0.32929 0.78401 0.19629 0.0
O452 O 0.3782 0.76749 0.18412 0.0
C453 C 0.37762 0.67458 0.20632 0.0
C454 C 0.36499 0.79296 0.18103 0.0
O455 O 0.27187 0.68872 0.25204 0.0
loop_
_geom_bond_atom_site_label_1
_geom_bond_atom_site_label_2
_geom_bond_distance
_geom_bond_site_symmetry_2
_ccdc_geom_bond_type
H0 C27 0.929 . S
N1 C26 1.433 . S
N1 C32 1.435 . S
N1 C38 1.423 . S
H2 C28 0.930 . S
H3 C31 0.931 . S
H4 C30 0.929 . S
H5 C33 0.930 . S
H6 C34 0.932 . S
H7 C37 0.929 . S
H8 C36 0.931 . S
H9 C39 0.929 . S
H10 C43 0.932 . S
H11 C40 0.931 . S
H12 C42 0.929 . S
H13 C45 0.929 . S
H14 C46 0.930 . S
H15 C48 0.929 . S
H16 C49 0.931 . S
H17 C51 0.930 . S
H18 C52 0.932 . S
H19 C54 0.931 . S
H20 C55 0.929 . S
H21 C57 0.929 . S
H22 C58 0.931 . S
H23 C60 0.929 . S
N24 C44 1.433 . S
N24 C50 1.435 . S
N24 C56 1.423 . S
H25 C61 0.932 . S
C26 N1 1.433 . S
C26 C27 1.363 . S
C26 C31 1.370 . S
C27 H0 0.929 . S
C27 C26 1.363 . S
C27 C28 1.385 . S
C28 H2 0.930 . S
C28 C27 1.385 . S
C28 C29 1.357 . S
C29 C28 1.357 . S
C29 C30 1.406 . S
C30 H4 0.929 . S
C30 C29 1.406 . S
C30 C31 1.391 . S
C31 H3 0.931 . S
C31 C26 1.370 . S
C31 C30 1.391 . S
C32 N1 1.435 . S
C32 C33 1.358 . S
C32 C37 1.371 . S
C33 H5 0.930 . S
C33 C32 1.358 . S
C33 C34 1.405 . S
C34 H6 0.932 . S
C34 C33 1.405 . S
C34 C35 1.383 . S
C35 C34 1.383 . S
C35 C36 1.393 . S
C36 H8 0.931 . S
C36 C35 1.393 . S
C36 C37 1.382 . S
C37 H7 0.929 . S
C37 C32 1.371 . S
C37 C36 1.382 . S
C38 N1 1.423 . S
C38 C39 1.362 . S
C38 C43 1.388 . S
C39 H9 0.929 . S
C39 C38 1.362 . S
C39 C40 1.376 . S
C40 H11 0.931 . S
C40 C39 1.376 . S
C40 C41 1.396 . S
C41 C40 1.396 . S
C41 C42 1.348 . S
C41 C59 1.472 1_455 S
C42 H12 0.929 . S
C42 C41 1.348 . S
C42 C43 1.443 . S
C43 H10 0.932 . S
C43 C38 1.388 . S
C43 C42 1.443 . S
C44 N24 1.433 . S
C44 C45 1.363 . S
C44 C49 1.370 . S
C45 H13 0.929 . S
C45 C44 1.363 . S
C45 C46 1.385 . S
C46 H14 0.930 . S
C46 C45 1.385 . S
C46 C47 1.357 . S
C47 C46 1.357 . S
C47 C48 1.406 . S
C48 H15 0.929 . S
C48 C47 1.406 . S
C48 C49 1.391 . S
C49 H16 0.931 . S
C49 C44 1.370 . S
C49 C48 1.391 . S
C50 N24 1.435 . S
C50 C51 1.358 . S
C50 C55 1.371 . S
C51 H17 0.930 . S
C51 C50 1.358 . S
C51 C52 1.405 . S
C52 H18 0.932 . S
C52 C51 1.405 . S
C52 C53 1.383 . S
C53 C52 1.383 . S
C53 C54 1.393 . S
C54 H19 0.931 . S
C54 C53 1.393 . S
C54 C55 1.382 . S
C55 H20 0.929 . S
C55 C50 1.371 . S
C55 C54 1.382 . S
C56 N24 1.423 . S
C56 C57 1.362 . S
C56 C61 1.388 . S
C57 H21 0.929 . S
C57 C56 1.362 . S
C57 C58 1.376 . S
C58 H22 0.931 . S
C58 C57 1.376 . S
C58 C59 1.396 . S
C59 C41 1.472 1_655 S
C59 C58 1.396 . S
C59 C60 1.348 . S
C60 H23 0.929 . S
C60 C59 1.348 . S
C60 C61 1.443 . S
C61 H25 0.932 . S
C61 C56 1.388 . S
C61 C60 1.443 . S
H62 C89 0.929 . S
N63 C88 1.433 . S
N63 C94 1.435 . S
N63 C100 1.423 . S
H64 C90 0.930 . S
H65 C93 0.931 . S
H66 C92 0.929 . S
H67 C95 0.930 . S
H68 C96 0.932 . S
H69 C99 0.929 . S
H70 C98 0.931 . S
H71 C101 0.929 . S
H72 C105 0.932 . S
H73 C102 0.931 . S
H74 C104 0.929 1_545 S
H75 C107 0.929 . S
H76 C108 0.930 . S
H77 C110 0.929 . S
H78 C111 0.931 . S
H79 C113 0.930 . S
H80 C114 0.932 . S
H81 C116 0.931 . S
H82 C117 0.929 . S
H83 C119 0.929 . S
H84 C120 0.931 . S
H85 C122 0.929 . S
N86 C106 1.433 . S
N86 C112 1.435 . S
N86 C118 1.423 . S
H87 C123 0.932 . S
C88 N63 1.433 . S
C88 C89 1.363 . S
C88 C93 1.370 . S
C89 H62 0.929 . S
C89 C88 1.363 . S
C89 C90 1.385 . S
C90 H64 0.930 . S
C90 C89 1.385 . S
C90 C91 1.357 . S
C91 C90 1.357 . S
C91 C92 1.406 . S
C92 H66 0.929 . S
C92 C91 1.406 . S
C92 C93 1.391 . S
C93 H65 0.931 . S
C93 C88 1.370 . S
C93 C92 1.391 . S
C94 N63 1.435 . S
C94 C95 1.358 . S
C94 C99 1.371 . S
C95 H67 0.930 . S
C95 C94 1.358 . S
C95 C96 1.405 . S
C96 H68 0.932 . S
C96 C95 1.405 . S
C96 C97 1.383 . S
C97 C96 1.383 . S
C97 C98 1.393 . S
C98 H70 0.931 . S
C98 C97 1.393 . S
C98 C99 1.382 . S
C99 H69 0.929 . S
C99 C94 1.371 . S
C99 C98 1.382 . S
C100 N63 1.423 . S
C100 C101 1.362 . S
C100 C105 1.388 . S
C101 H71 0.929 . S
C101 C100 1.362 . S
C101 C102 1.376 . S
C102 H73 0.931 . S
C102 C101 1.376 . S
C102 C103 1.396 1_565 S
C103 C102 1.396 1_545 S
C103 C104 1.348 1_545 S
C103 C121 1.472 . S
C104 H74 0.929 1_565 S
C104 C103 1.348 1_565 S
C104 C105 1.443 . S
C105 H72 0.932 . S
C105 C100 1.388 . S
C105 C104 1.443 . S
C106 N86 1.433 . S
C106 C107 1.363 . S
C106 C111 1.370 . S
C107 H75 0.929 . S
C107 C106 1.363 . S
C107 C108 1.385 . S
C108 H76 0.930 . S
C108 C107 1.385 . S
C108 C109 1.357 . S
C109 C108 1.357 . S
C109 C110 1.406 . S
C110 H77 0.929 . S
C110 C109 1.406 . S
C110 C111 1.391 . S
C111 H78 0.931 . S
C111 C106 1.370 . S
C111 C110 1.391 . S
C112 N86 1.435 . S
C112 C113 1.358 . S
C112 C117 1.371 . S
C113 H79 0.930 . S
C113 C112 1.358 . S
C113 C114 1.405 . S
C114 H80 0.932 . S
C114 C113 1.405 . S
C114 C115 1.383 . S
C115 C114 1.383 . S
C115 C116 1.393 . S
C116 H81 0.931 . S
C116 C115 1.393 . S
C116 C117 1.382 . S
C117 H82 0.929 . S
C117 C112 1.371 . S
C117 C116 1.382 . S
C118 N86 1.423 . S
C118 C119 1.362 . S
C118 C123 1.388 . S
C119 H83 0.929 . S
C119 C118 1.362 . S
C119 C120 1.376 . S
C120 H84 0.931 . S
C120 C119 1.376 . S
C120 C121 1.396 . S
C121 C103 1.472 . S
C121 C120 1.396 . S
C121 C122 1.348 . S
C122 H85 0.929 . S
C122 C121 1.348 . S
C122 C123 1.443 . S
C123 H87 0.932 . S
C123 C118 1.388 . S
C123 C122 1.443 . S
H124 C151 0.929 . S
N125 C150 1.433 . S
N125 C156 1.435 . S
N125 C162 1.423 . S
H126 C152 0.930 . S
H127 C155 0.931 . S
H128 C154 0.929 . S
H129 C157 0.930 . S
H130 C158 0.932 . S
H131 C161 0.929 . S
H132 C160 0.931 . S
H133 C163 0.929 . S
H134 C167 0.932 . S
H135 C164 0.931 . S
H136 C166 0.929 . S
H137 C169 0.929 . S
H138 C170 0.930 . S
H139 C172 0.929 . S
H140 C173 0.931 . S
H141 C175 0.930 . S
H142 C176 0.932 . S
H143 C178 0.931 . S
H144 C179 0.929 . S
H145 C181 0.929 . S
H146 C182 0.931 . S
H147 C184 0.929 . S
N148 C168 1.433 . S
N148 C174 1.435 . S
N148 C180 1.423 . S
H149 C185 0.932 . S
C150 N125 1.433 . S
C150 C151 1.363 . S
C150 C155 1.370 . S
C151 H124 0.929 . S
C151 C150 1.363 . S
C151 C152 1.385 . S
C152 H126 0.930 . S
C152 C151 1.385 . S
C152 C153 1.357 . S
C153 C152 1.357 . S
C153 C154 1.406 . S
C154 H128 0.929 . S
C154 C153 1.406 . S
C154 C155 1.391 . S
C155 H127 0.931 . S
C155 C150 1.370 . S
C155 C154 1.391 . S
C156 N125 1.435 . S
C156 C157 1.358 . S
C156 C161 1.371 . S
C157 H129 0.930 . S
C157 C156 1.358 . S
C157 C158 1.405 . S
C158 H130 0.932 . S
C158 C157 1.405 . S
C158 C159 1.383 . S
C159 C158 1.383 . S
C159 C160 1.393 . S
C160 H132 0.931 . S
C160 C159 1.393 . S
C160 C161 1.382 . S
C161 H131 0.929 . S
C161 C156 1.371 . S
C161 C160 1.382 . S
C162 N125 1.423 . S
C162 C163 1.362 . S
C162 C167 1.388 . S
C163 H133 0.929 . S
C163 C162 1.362 . S
C163 C164 1.376 . S
C164 H135 0.931 . S
C164 C163 1.376 . S
C164 C165 1.396 . S
C165 C164 1.396 . S
C165 C166 1.348 . S
C165 C183 1.472 . S
C166 H136 0.929 . S
C166 C165 1.348 . S
C166 C167 1.443 . S
C167 H134 0.932 . S
C167 C162 1.388 . S
C167 C166 1.443 . S
C168 N148 1.433 . S
C168 C169 1.363 . S
C168 C173 1.370 . S
C169 H137 0.929 . S
C169 C168 1.363 . S
C169 C170 1.385 . S
C170 H138 0.930 . S
C170 C169 1.385 . S
C170 C171 1.357 . S
C171 C170 1.357 . S
C171 C172 1.406 . S
C172 H139 0.929 . S
C172 C171 1.406 . S
C172 C173 1.391 . S
C173 H140 0.931 . S
C173 C168 1.370 . S
C173 C172 1.391 . S
C174 N148 1.435 . S
C174 C175 1.358 . S
C174 C179 1.371 . S
C175 H141 0.930 . S
C175 C174 1.358 . S
C175 C176 1.405 . S
C176 H142 0.932 . S
C176 C175 1.405 . S
C176 C177 1.383 . S
C177 C176 1.383 . S
C177 C178 1.393 . S
C178 H143 0.931 . S
C178 C177 1.393 . S
C178 C179 1.382 . S
C179 H144 0.929 . S
C179 C174 1.371 . S
C179 C178 1.382 . S
C180 N148 1.423 . S
C180 C181 1.362 . S
C180 C185 1.388 . S
C181 H145 0.929 . S
C181 C180 1.362 . S
C181 C182 1.376 . S
C182 H146 0.931 . S
C182 C181 1.376 . S
C182 C183 1.396 . S
C183 C165 1.472 . S
C183 C182 1.396 . S
C183 C184 1.348 . S
C184 H147 0.929 . S
C184 C183 1.348 . S
C184 C185 1.443 . S
C185 H149 0.932 . S
C185 C180 1.388 . S
C185 C184 1.443 . S
H186 C213 0.929 . S
N187 C212 1.433 . S
N187 C218 1.435 . S
N187 C224 1.423 . S
H188 C214 0.930 . S
H189 C217 0.931 . S
H190 C216 0.929 . S
H191 C219 0.930 . S
H192 C220 0.932 . S
H193 C223 0.929 . S
H194 C222 0.931 . S
H195 C225 0.929 . S
H196 C229 0.932 . S
H197 C226 0.931 . S
H198 C228 0.929 . S
H199 C231 0.929 . S
H200 C232 0.930 . S
H201 C234 0.929 . S
H202 C235 0.931 . S
H203 C237 0.930 . S
H204 C238 0.932 . S
H205 C240 0.931 . S
H206 C241 0.929 . S
H207 C243 0.929 . S
H208 C244 0.931 . S
H209 C246 0.929 . S
N210 C230 1.433 . S
N210 C236 1.435 . S
N210 C242 1.423 . S
H211 C247 0.932 . S
C212 N187 1.433 . S
C212 C213 1.363 . S
C212 C217 1.370 . S
C213 H186 0.929 . S
C213 C212 1.363 . S
C213 C214 1.385 . S
C214 H188 0.930 . S
C214 C213 1.385 . S
C214 C215 1.357 . S
C215 C214 1.357 . S
C215 C216 1.406 . S
C216 H190 0.929 . S
C216 C215 1.406 . S
C216 C217 1.391 . S
C217 H189 0.931 . S
C217 C212 1.370 . S
C217 C216 1.391 . S
C218 N187 1.435 . S
C218 C219 1.358 . S
C218 C223 1.371 . S
C219 H191 0.930 . S
C219 C218 1.358 . S
C219 C220 1.405 . S
C220 H192 0.932 . S
C220 C219 1.405 . S
C220 C221 1.383 . S
C221 C220 1.383 . S
C221 C222 1.393 . S
C222 H194 0.931 . S
C222 C221 1.393 . S
C222 C223 1.382 . S
C223 H193 0.929 . S
C223 C218 1.371 . S
C223 C222 1.382 . S
C224 N187 1.423 . S
C224 C225 1.362 . S
C224 C229 1.388 . S
C225 H195 0.929 . S
C225 C224 1.362 . S
C225 C226 1.376 . S
C226 H197 0.931 . S
C226 C225 1.376 . S
C226 C227 1.396 . S
C227 C226 1.396 . S
C227 C228 1.348 . S
C227 C245 1.472 1_455 S
C228 H198 0.929 . S
C228 C227 1.348 . S
C228 C229 1.443 . S
C229 H196 0.932 . S
C229 C224 1.388 . S
C229 C228 1.443 . S
C230 N210 1.433 . S
C230 C231 1.363 . S
C230 C235 1.370 . S
C231 H199 0.929 . S
C231 C230 1.363 . S
C231 C232 1.385 . S
C232 H200 0.930 . S
C232 C231 1.385 . S
C232 C233 1.357 . S
C233 C232 1.357 . S
C233 C234 1.406 . S
C234 H201 0.929 . S
C234 C233 1.406 . S
C234 C235 1.391 . S
C235 H202 0.931 . S
C235 C230 1.370 . S
C235 C234 1.391 . S
C236 N210 1.435 . S
C236 C237 1.358 . S
C236 C241 1.371 . S
C237 H203 0.930 . S
C237 C236 1.358 . S
C237 C238 1.405 . S
C238 H204 0.932 . S
C238 C237 1.405 . S
C238 C239 1.383 . S
C239 C238 1.383 . S
C239 C240 1.393 . S
C240 H205 0.931 . S
C240 C239 1.393 . S
C240 C241 1.382 . S
C241 H206 0.929 . S
C241 C236 1.371 . S
C241 C240 1.382 . S
C242 N210 1.423 . S
C242 C243 1.362 . S
C242 C247 1.388 . S
C243 H207 0.929 . S
C243 C242 1.362 . S
C243 C244 1.376 . S
C244 H208 0.931 . S
C244 C243 1.376 . S
C244 C245 1.396 . S
C245 C227 1.472 1_655 S
C245 C244 1.396 . S
C245 C246 1.348 . S
C246 H209 0.929 . S
C246 C245 1.348 . S
C246 C247 1.443 . S
C247 H211 0.932 . S
C247 C242 1.388 . S
C247 C246 1.443 . S
H248 C275 0.929 . S
N249 C274 1.433 . S
N249 C280 1.435 . S
N249 C286 1.423 . S
H250 C276 0.930 . S
H251 C279 0.931 . S
H252 C278 0.929 . S
H253 C281 0.930 . S
H254 C282 0.932 . S
H255 C285 0.929 . S
H256 C284 0.931 . S
H257 C287 0.929 . S
H258 C291 0.932 . S
H259 C288 0.931 . S
H260 C290 0.929 . S
H261 C293 0.929 . S
H262 C294 0.930 . S
H263 C296 0.929 . S
H264 C297 0.931 . S
H265 C299 0.930 . S
H266 C300 0.932 . S
H267 C302 0.931 . S
H268 C303 0.929 . S
H269 C305 0.929 . S
H270 C306 0.950 1_554 S
H271 C308 0.929 . S
N272 C292 1.433 . S
N272 C298 1.435 1_554 S
N272 C304 1.423 1_554 S
H273 C309 0.932 . S
C274 N249 1.433 . S
C274 C275 1.363 . S
C274 C279 1.370 . S
C275 H248 0.929 . S
C275 C274 1.363 . S
C275 C276 1.385 . S
C276 H250 0.930 . S
C276 C275 1.385 . S
C276 C277 1.357 1_556 S
C277 C276 1.357 1_554 S
C277 C278 1.406 . S
C278 H252 0.929 . S
C278 C277 1.406 . S
C278 C279 1.391 1_554 S
C279 H251 0.931 . S
C279 C274 1.370 . S
C279 C278 1.391 1_556 S
C280 N249 1.435 . S
C280 C281 1.358 . S
C280 C285 1.371 . S
C281 H253 0.930 . S
C281 C280 1.358 . S
C281 C282 1.405 . S
C282 H254 0.932 . S
C282 C281 1.405 . S
C282 C283 1.383 . S
C283 C282 1.383 . S
C283 C284 1.393 . S
C284 H256 0.931 . S
C284 C283 1.393 . S
C284 C285 1.382 . S
C285 H255 0.929 . S
C285 C280 1.371 . S
C285 C284 1.382 . S
C286 N249 1.423 . S
C286 C287 1.362 . S
C286 C291 1.388 . S
C287 H257 0.929 . S
C287 C286 1.362 . S
C287 C288 1.376 . S
C288 H259 0.931 . S
C288 C287 1.376 . S
C288 C289 1.396 . S
C289 C288 1.396 . S
C289 C290 1.348 . S
C289 C307 1.472 1_545 S
C290 H260 0.929 . S
C290 C289 1.348 . S
C290 C291 1.443 . S
C291 H258 0.932 . S
C291 C286 1.388 . S
C291 C290 1.443 . S
C292 N272 1.433 . S
C292 C293 1.363 . S
C292 C297 1.370 . S
C293 H261 0.929 . S
C293 C292 1.363 . S
C293 C294 1.385 . S
C294 H262 0.930 . S
C294 C293 1.385 . S
C294 C295 1.357 . S
C295 C294 1.357 . S
C295 C296 1.406 . S
C296 H263 0.929 . S
C296 C295 1.406 . S
C296 C297 1.391 . S
C297 H264 0.931 . S
C297 C292 1.370 . S
C297 C296 1.391 . S
C298 N272 1.435 1_556 S
C298 C299 1.358 1_556 S
C298 C303 1.371 . S
C299 H265 0.930 . S
C299 C298 1.358 1_554 S
C299 C300 1.405 1_554 S
C300 H266 0.932 . S
C300 C299 1.405 1_556 S
C300 C301 1.383 . S
C301 C300 1.383 . S
C301 C302 1.393 . S
C302 H267 0.931 . S
C302 C301 1.393 . S
C302 C303 1.382 . S
C303 H268 0.929 . S
C303 C298 1.371 . S
C303 C302 1.382 . S
C304 N272 1.423 1_556 S
C304 C305 1.362 1_556 S
C304 C309 1.388 . S
C305 H269 0.929 . S
C305 C304 1.362 1_554 S
C305 C306 1.375 1_554 S
C306 H270 0.950 1_556 S
C306 C305 1.375 1_556 S
C306 C307 1.399 . S
C307 C289 1.472 1_565 S
C307 C306 1.399 . S
C307 C308 1.348 . S
C308 H271 0.929 . S
C308 C307 1.348 . S
C308 C309 1.443 . S
C309 H273 0.932 . S
C309 C304 1.388 . S
C309 C308 1.443 . S
H310 C337 0.929 . S
N311 C336 1.433 . S
N311 C342 1.435 . S
N311 C348 1.423 . S
H312 C338 0.930 . S
H313 C341 0.931 . S
H314 C340 0.929 . S
H315 C343 0.930 . S
H316 C344 0.932 . S
H317 C347 0.929 . S
H318 C346 0.931 . S
H319 C349 0.929 . S
H320 C353 0.932 . S
H321 C350 0.931 . S
H322 C352 0.929 . S
H323 C355 0.929 . S
H324 C356 0.930 . S
H325 C358 0.929 . S
H326 C359 0.931 . S
H327 C361 0.930 . S
H328 C362 0.932 . S
H329 C364 0.931 . S
H330 C365 0.929 . S
H331 C367 0.929 . S
H332 C368 0.931 . S
H333 C370 0.929 . S
N334 C354 1.433 . S
N334 C360 1.435 . S
N334 C366 1.423 . S
H335 C371 0.932 . S
C336 N311 1.433 . S
C336 C337 1.363 . S
C336 C341 1.370 . S
C337 H310 0.929 . S
C337 C336 1.363 . S
C337 C338 1.385 . S
C338 H312 0.930 . S
C338 C337 1.385 . S
C338 C339 1.357 . S
C339 C338 1.357 . S
C339 C340 1.406 . S
C340 H314 0.929 . S
C340 C339 1.406 . S
C340 C341 1.391 . S
C341 H313 0.931 . S
C341 C336 1.370 . S
C341 C340 1.391 . S
C342 N311 1.435 . S
C342 C343 1.358 . S
C342 C347 1.371 . S
C343 H315 0.930 . S
C343 C342 1.358 . S
C343 C344 1.405 . S
C344 H316 0.932 . S
C344 C343 1.405 . S
C344 C345 1.383 . S
C345 C344 1.383 . S
C345 C346 1.393 . S
C346 H318 0.931 . S
C346 C345 1.393 . S
C346 C347 1.382 . S
C347 H317 0.929 . S
C347 C342 1.371 . S
C347 C346 1.382 . S
C348 N311 1.423 . S
C348 C349 1.362 . S
C348 C353 1.388 . S
C349 H319 0.929 . S
C349 C348 1.362 . S
C349 C350 1.376 . S
C350 H321 0.931 . S
C350 C349 1.376 . S
C350 C351 1.396 . S
C351 C350 1.396 . S
C351 C352 1.348 . S
C351 C369 1.472 . S
C352 H322 0.929 . S
C352 C351 1.348 . S
C352 C353 1.443 . S
C353 H320 0.932 . S
C353 C348 1.388 . S
C353 C352 1.443 . S
C354 N334 1.433 . S
C354 C355 1.363 . S
C354 C359 1.370 . S
C355 H323 0.929 . S
C355 C354 1.363 . S
C355 C356 1.385 1_554 S
C356 H324 0.930 . S
C356 C355 1.385 1_556 S
C356 C357 1.357 . S
C357 C356 1.357 . S
C357 C358 1.406 . S
C358 H325 0.929 . S
C358 C357 1.406 . S
C358 C359 1.391 1_556 S
C359 H326 0.931 . S
C359 C354 1.370 . S
C359 C358 1.391 1_554 S
C360 N334 1.435 . S
C360 C361 1.358 . S
C360 C365 1.371 . S
C361 H327 0.930 . S
C361 C360 1.358 . S
C361 C362 1.405 . S
C362 H328 0.932 . S
C362 C361 1.405 . S
C362 C363 1.383 . S
C363 C362 1.383 . S
C363 C364 1.393 . S
C364 H329 0.931 . S
C364 C363 1.393 . S
C364 C365 1.382 . S
C365 H330 0.929 . S
C365 C360 1.371 . S
C365 C364 1.382 . S
C366 N334 1.423 . S
C366 C367 1.362 . S
C366 C371 1.388 . S
C367 H331 0.929 . S
C367 C366 1.362 . S
C367 C368 1.376 . S
C368 H332 0.931 . S
C368 C367 1.376 . S
C368 C369 1.396 . S
C369 C351 1.472 . S
C369 C368 1.396 . S
C369 C370 1.348 . S
C370 H333 0.929 . S
C370 C369 1.348 . S
C370 C371 1.443 . S
C371 H335 0.932 . S
C371 C366 1.388 . S
C371 C370 1.443 . S
Mg372 O373 2.028 . S
Mg372 O379 1.986 . S
Mg372 O381 2.114 . S
Mg372 O382 2.251 . S
Mg372 O385 2.010 . S
O373 Mg372 2.028 . S
O373 C376 1.250 . S
O374 Mg375 2.028 . S
O374 C376 1.248 . S
Mg375 O374 2.028 . S
Mg375 O380 2.032 . S
Mg375 O382 2.079 . S
C376 O373 1.250 . S
C376 O374 1.248 . S
C377 O378 1.264 . S
C377 O385 1.249 . S
O378 C377 1.264 . S
O379 Mg372 1.986 . S
O379 C383 1.246 . S
O380 Mg375 2.032 . S
O380 C383 1.259 . S
O381 Mg372 2.114 . S
O381 C384 1.252 . S
O382 Mg372 2.251 . S
O382 Mg375 2.079 . S
O382 C384 1.273 . S
C383 O379 1.246 . S
C383 O380 1.259 . S
C384 O381 1.252 . S
C384 O382 1.273 . S
O385 Mg372 2.010 . S
O385 C377 1.249 . S
Mg386 O387 2.028 . S
Mg386 O393 1.986 . S
Mg386 O395 2.114 . S
Mg386 O396 2.251 . S
Mg386 O399 2.010 . S
O387 Mg386 2.028 . S
O387 C390 1.250 . S
O388 Mg389 2.028 . S
O388 C390 1.248 . S
Mg389 O388 2.028 . S
Mg389 O394 2.032 . S
Mg389 O396 2.079 . S
C390 O387 1.250 . S
C390 O388 1.248 . S
C391 O392 1.264 . S
C391 O399 1.249 . S
O392 C391 1.264 . S
O393 Mg386 1.986 . S
O393 C397 1.246 . S
O394 Mg389 2.032 . S
O394 C397 1.259 . S
O395 Mg386 2.114 . S
O395 C398 1.252 . S
O396 Mg386 2.251 . S
O396 Mg389 2.079 . S
O396 C398 1.273 . S
C397 O393 1.246 . S
C397 O394 1.259 . S
C398 O395 1.252 . S
C398 O396 1.273 . S
O399 Mg386 2.010 . S
O399 C391 1.249 . S
Mg400 O401 2.028 . S
Mg400 O407 1.986 . S
Mg400 O409 2.114 . S
Mg400 O410 2.251 . S
Mg400 O413 2.010 . S
O401 Mg400 2.028 . S
O401 C404 1.250 . S
O402 Mg403 2.028 . S
O402 C404 1.248 . S
Mg403 O402 2.028 . S
Mg403 O408 2.032 . S
Mg403 O410 2.079 . S
C404 O401 1.250 . S
C404 O402 1.248 . S
C405 O406 1.264 . S
C405 O413 1.249 . S
O406 C405 1.264 . S
O407 Mg400 1.986 . S
O407 C411 1.246 . S
O408 Mg403 2.032 . S
O408 C411 1.259 . S
O409 Mg400 2.114 . S
O409 C412 1.252 . S
O410 Mg400 2.251 . S
O410 Mg403 2.079 . S
O410 C412 1.273 . S
C411 O407 1.246 . S
C411 O408 1.259 . S
C412 O409 1.252 . S
C412 O410 1.273 . S
O413 Mg400 2.010 . S
O413 C405 1.249 . S
Mg414 O415 2.028 . S
Mg414 O421 1.986 . S
Mg414 O423 2.114 . S
Mg414 O424 2.251 . S
Mg414 O427 2.010 . S
O415 Mg414 2.028 . S
O415 C418 1.250 . S
O416 Mg417 2.028 . S
O416 C418 1.248 . S
Mg417 O416 2.028 . S
Mg417 O422 2.032 . S
Mg417 O424 2.079 . S
C418 O415 1.250 . S
C418 O416 1.248 . S
C419 O420 1.264 . S
C419 O427 1.249 . S
O420 C419 1.264 . S
O421 Mg414 1.986 . S
O421 C425 1.246 . S
O422 Mg417 2.032 . S
O422 C425 1.259 . S
O423 Mg414 2.114 . S
O423 C426 1.252 . S
O424 Mg414 2.251 . S
O424 Mg417 2.079 . S
O424 C426 1.273 . S
C425 O421 1.246 . S
C425 O422 1.259 . S
C426 O423 1.252 . S
C426 O424 1.273 . S
O427 Mg414 2.010 . S
O427 C419 1.249 . S
Mg428 O429 2.028 . S
Mg428 O435 1.986 . S
Mg428 O437 2.114 . S
Mg428 O438 2.251 . S
Mg428 O441 2.010 . S
O429 Mg428 2.028 . S
O429 C432 1.250 . S
O430 Mg431 2.028 . S
O430 C432 1.248 . S
Mg431 O430 2.028 . S
Mg431 O436 2.032 . S
Mg431 O438 2.079 . S
C432 O429 1.250 . S
C432 O430 1.248 . S
C433 O434 1.264 . S
C433 O441 1.249 . S
O434 C433 1.264 . S
O435 Mg428 1.986 . S
O435 C439 1.246 . S
O436 Mg431 2.032 . S
O436 C439 1.259 . S
O437 Mg428 2.114 . S
O437 C440 1.252 1_554 S
O438 Mg428 2.251 . S
O438 Mg431 2.079 . S
O438 C440 1.273 1_554 S
C439 O435 1.246 . S
C439 O436 1.259 . S
C440 O437 1.252 1_556 S
C440 O438 1.273 1_556 S
O441 Mg428 2.010 . S
O441 C433 1.249 . S
Mg442 O443 2.028 . S
Mg442 O449 1.986 . S
Mg442 O451 2.114 . S
Mg442 O452 2.251 . S
Mg442 O455 2.010 . S
O443 Mg442 2.028 . S
O443 C446 1.250 . S
O444 Mg445 2.028 . S
O444 C446 1.248 . S
Mg445 O444 2.028 . S
Mg445 O450 2.032 . S
Mg445 O452 2.079 . S
C446 O443 1.250 . S
C446 O444 1.248 . S
C447 O448 1.264 . S
C447 O455 1.249 . S
O448 C447 1.264 . S
O449 Mg442 1.986 . S
O449 C453 1.246 . S
O450 Mg445 2.032 . S
O450 C453 1.259 . S
O451 Mg442 2.114 . S
O451 C454 1.252 . S
O452 Mg442 2.251 . S
O452 Mg445 2.079 . S
O452 C454 1.273 . S
C453 O449 1.246 . S
C453 O450 1.259 . S
C454 O451 1.252 . S
C454 O452 1.273 . S
O455 Mg442 2.010 . S
O455 C447 1.249 . S
C447 C29 2.188 . S
C115 C377 2.388 . S
C153 C397 2.133 . S
C239 C411 2.417 . S
C419 C301 2.135 . S
C339 C433 2.115 . S
C91 C391 1.947 . S
C177 C405 2.346 . S
C215 C425 2.227 . S
C439 C277 2.643 . S
C453 C363 2.401 . S
C383 C53 2.496 . S
C35 C390 1.885 . S
C109 C404 1.220 . S
C426 C159 1.639 . S
C233 C440 1.827 . S
C454 C295 1.533 . S
C384 C345 1.476 . S
C446 C97 1.694 . S
C171 C376 1.267 . S
C398 C221 1.773 . S
C283 C412 1.649 . S
C357 C418 1.520 . S
C47 C432 1.906 . S
