# Generated by pormake.
# Topology ctn, (3,4)-cn, num edge types: 1
# Building blocks:
#     Node 0, Type 0, BuildingBlock: ESEHIV_clean_linker_0, # of connection points: 3
#     Node 1, Type 0, BuildingBlock: ESEHIV_clean_linker_0, # of connection points: 3
#     Node 2, Type 0, BuildingBlock: ESEHIV_clean_linker_0, # of connection points: 3
#     Node 3, Type 0, BuildingBlock: ESEHIV_clean_linker_0, # of connection points: 3
#     Node 4, Type 0, BuildingBlock: ESEHIV_clean_linker_0, # of connection points: 3
#     Node 5, Type 0, BuildingBlock: ESEHIV_clean_linker_0, # of connection points: 3
#     Node 6, Type 0, BuildingBlock: ESEHIV_clean_linker_0, # of connection points: 3
#     Node 7, Type 0, BuildingBlock: ESEHIV_clean_linker_0, # of connection points: 3
#     Node 8, Type 0, BuildingBlock: ESEHIV_clean_linker_0, # of connection points: 3
#     Node 9, Type 0, BuildingBlock: ESEHIV_clean_linker_0, # of connection points: 3
#     Node 10, Type 0, BuildingBlock: ESEHIV_clean_linker_0, # of connection points: 3
#     Node 11, Type 0, BuildingBlock: ESEHIV_clean_linker_0, # of connection points: 3
#     Node 12, Type 0, BuildingBlock: ESEHIV_clean_linker_0, # of connection points: 3
#     Node 13, Type 0, BuildingBlock: ESEHIV_clean_linker_0, # of connection points: 3
#     Node 14, Type 0, BuildingBlock: ESEHIV_clean_linker_0, # of connection points: 3
#     Node 15, Type 0, BuildingBlock: ESEHIV_clean_linker_0, # of connection points: 3
#     Node 16, Type 1, BuildingBlock: TATPOV_clean_sbu_0, # of connection points: 4
#     Node 17, Type 1, BuildingBlock: TATPOV_clean_sbu_0, # of connection points: 4
#     Node 18, Type 1, BuildingBlock: TATPOV_clean_sbu_0, # of connection points: 4
#     Node 19, Type 1, BuildingBlock: TATPOV_clean_sbu_0, # of connection points: 4
#     Node 20, Type 1, BuildingBlock: TATPOV_clean_sbu_0, # of connection points: 4
#     Node 21, Type 1, BuildingBlock: TATPOV_clean_sbu_0, # of connection points: 4
#     Node 22, Type 1, BuildingBlock: TATPOV_clean_sbu_0, # of connection points: 4
#     Node 23, Type 1, BuildingBlock: TATPOV_clean_sbu_0, # of connection points: 4
#     Node 24, Type 1, BuildingBlock: TATPOV_clean_sbu_0, # of connection points: 4
#     Node 25, Type 1, BuildingBlock: TATPOV_clean_sbu_0, # of connection points: 4
#     Node 26, Type 1, BuildingBlock: TATPOV_clean_sbu_0, # of connection points: 4
#     Node 27, Type 1, BuildingBlock: TATPOV_clean_sbu_0, # of connection points: 4
#     Edge 28, Type (0, 1), BuildingBlock: MIFKUJ_clean_linker_0, # of connection points: 2
#     Edge 29, Type (0, 1), BuildingBlock: MIFKUJ_clean_linker_0, # of connection points: 2
#     Edge 30, Type (0, 1), BuildingBlock: MIFKUJ_clean_linker_0, # of connection points: 2
#     Edge 31, Type (0, 1), BuildingBlock: MIFKUJ_clean_linker_0, # of connection points: 2
#     Edge 32, Type (0, 1), BuildingBlock: MIFKUJ_clean_linker_0, # of connection points: 2
#     Edge 33, Type (0, 1), BuildingBlock: MIFKUJ_clean_linker_0, # of connection points: 2
#     Edge 34, Type (0, 1), BuildingBlock: MIFKUJ_clean_linker_0, # of connection points: 2
#     Edge 35, Type (0, 1), BuildingBlock: MIFKUJ_clean_linker_0, # of connection points: 2
#     Edge 36, Type (0, 1), BuildingBlock: MIFKUJ_clean_linker_0, # of connection points: 2
#     Edge 37, Type (0, 1), BuildingBlock: MIFKUJ_clean_linker_0, # of connection points: 2
#     Edge 38, Type (0, 1), BuildingBlock: MIFKUJ_clean_linker_0, # of connection points: 2
#     Edge 39, Type (0, 1), BuildingBlock: MIFKUJ_clean_linker_0, # of connection points: 2
#     Edge 40, Type (0, 1), BuildingBlock: MIFKUJ_clean_linker_0, # of connection points: 2
#     Edge 41, Type (0, 1), BuildingBlock: MIFKUJ_clean_linker_0, # of connection points: 2
#     Edge 42, Type (0, 1), BuildingBlock: MIFKUJ_clean_linker_0, # of connection points: 2
#     Edge 43, Type (0, 1), BuildingBlock: MIFKUJ_clean_linker_0, # of connection points: 2
#     Edge 44, Type (0, 1), BuildingBlock: MIFKUJ_clean_linker_0, # of connection points: 2
#     Edge 45, Type (0, 1), BuildingBlock: MIFKUJ_clean_linker_0, # of connection points: 2
#     Edge 46, Type (0, 1), BuildingBlock: MIFKUJ_clean_linker_0, # of connection points: 2
#     Edge 47, Type (0, 1), BuildingBlock: MIFKUJ_clean_linker_0, # of connection points: 2
#     Edge 48, Type (0, 1), BuildingBlock: MIFKUJ_clean_linker_0, # of connection points: 2
#     Edge 49, Type (0, 1), BuildingBlock: MIFKUJ_clean_linker_0, # of connection points: 2
#     Edge 50, Type (0, 1), BuildingBlock: MIFKUJ_clean_linker_0, # of connection points: 2
#     Edge 51, Type (0, 1), BuildingBlock: MIFKUJ_clean_linker_0, # of connection points: 2
#     Edge 52, Type (0, 1), BuildingBlock: MIFKUJ_clean_linker_0, # of connection points: 2
#     Edge 53, Type (0, 1), BuildingBlock: MIFKUJ_clean_linker_0, # of connection points: 2
#     Edge 54, Type (0, 1), BuildingBlock: MIFKUJ_clean_linker_0, # of connection points: 2
#     Edge 55, Type (0, 1), BuildingBlock: MIFKUJ_clean_linker_0, # of connection points: 2
#     Edge 56, Type (0, 1), BuildingBlock: MIFKUJ_clean_linker_0, # of connection points: 2
#     Edge 57, Type (0, 1), BuildingBlock: MIFKUJ_clean_linker_0, # of connection points: 2
#     Edge 58, Type (0, 1), BuildingBlock: MIFKUJ_clean_linker_0, # of connection points: 2
#     Edge 59, Type (0, 1), BuildingBlock: MIFKUJ_clean_linker_0, # of connection points: 2
#     Edge 60, Type (0, 1), BuildingBlock: MIFKUJ_clean_linker_0, # of connection points: 2
#     Edge 61, Type (0, 1), BuildingBlock: MIFKUJ_clean_linker_0, # of connection points: 2
#     Edge 62, Type (0, 1), BuildingBlock: MIFKUJ_clean_linker_0, # of connection points: 2
#     Edge 63, Type (0, 1), BuildingBlock: MIFKUJ_clean_linker_0, # of connection points: 2
#     Edge 64, Type (0, 1), BuildingBlock: MIFKUJ_clean_linker_0, # of connection points: 2
#     Edge 65, Type (0, 1), BuildingBlock: MIFKUJ_clean_linker_0, # of connection points: 2
#     Edge 66, Type (0, 1), BuildingBlock: MIFKUJ_clean_linker_0, # of connection points: 2
#     Edge 67, Type (0, 1), BuildingBlock: MIFKUJ_clean_linker_0, # of connection points: 2
#     Edge 68, Type (0, 1), BuildingBlock: MIFKUJ_clean_linker_0, # of connection points: 2
#     Edge 69, Type (0, 1), BuildingBlock: MIFKUJ_clean_linker_0, # of connection points: 2
#     Edge 70, Type (0, 1), BuildingBlock: MIFKUJ_clean_linker_0, # of connection points: 2
#     Edge 71, Type (0, 1), BuildingBlock: MIFKUJ_clean_linker_0, # of connection points: 2
#     Edge 72, Type (0, 1), BuildingBlock: MIFKUJ_clean_linker_0, # of connection points: 2
#     Edge 73, Type (0, 1), BuildingBlock: MIFKUJ_clean_linker_0, # of connection points: 2
#     Edge 74, Type (0, 1), BuildingBlock: MIFKUJ_clean_linker_0, # of connection points: 2
#     Edge 75, Type (0, 1), BuildingBlock: MIFKUJ_clean_linker_0, # of connection points: 2
# Relax obj value: 0.003
# Max RMSD: 0.048
# Mean RMSD: 0.022
data_MOF--net-ctn--node1-TATPOV_clean_sbu_0--node2-ESEHIV_clean_linker_0--edge1-MIFKUJ_clean_linker_0
_symmetry_space_group_name_H-M    P1
_symmetry_Int_Tables_number       1
_symmetry_cell_setting            triclinic
loop_
_symmetry_equiv_pos_as_xyz
'x, y, z'
_cell_length_a     68.189359
_cell_length_b     68.216413
_cell_length_c     68.101611
_cell_angle_alpha  90.941373
_cell_angle_beta   91.14547
_cell_angle_gamma 91.088161
loop_
_atom_site_label
_atom_site_type_symbol
_atom_site_fract_x
_atom_site_fract_y
_atom_site_fract_z
_atom_type_partial_charge
H0 H 0.00882 0.05939 0.03737 0.0
H1 H 0.04001 0.00993 0.0596 0.0
H2 H 0.0607 0.03973 0.00864 0.0
C3 C 0.02091 0.04935 0.03644 0.0
C4 C 0.03442 0.05129 0.02121 0.0
C5 C 0.02283 0.03454 0.05045 0.0
C6 C 0.03862 0.02164 0.04914 0.0
C7 C 0.05225 0.02327 0.03399 0.0
C8 C 0.04999 0.03812 0.02008 0.0
H9 H 0.27981 0.69341 0.25543 0.0
H10 H 0.2972 0.74232 0.22025 0.0
H11 H 0.24203 0.71254 0.20851 0.0
C12 C 0.27696 0.70322 0.2434 0.0
C13 C 0.25928 0.70118 0.2325 0.0
C14 C 0.2908 0.718 0.23912 0.0
C15 C 0.28659 0.73097 0.22381 0.0
C16 C 0.26892 0.7293 0.21286 0.0
C17 C 0.25535 0.71437 0.21734 0.0
H18 H 0.96069 0.47311 0.07124 0.0
H19 H 0.99255 0.42315 0.05097 0.0
H20 H 0.93611 0.43635 0.02501 0.0
C21 C 0.9617 0.46025 0.06174 0.0
C22 C 0.94662 0.45596 0.04809 0.0
C23 C 0.97817 0.44835 0.06304 0.0
C24 C 0.97962 0.43213 0.05023 0.0
C25 C 0.9645 0.42762 0.03639 0.0
C26 C 0.9479 0.43957 0.03556 0.0
H27 H 0.70424 0.74083 0.21101 0.0
H28 H 0.74818 0.77776 0.18525 0.0
H29 H 0.72215 0.79504 0.23972 0.0
C30 C 0.71356 0.75388 0.21171 0.0
C31 C 0.71155 0.76751 0.2272 0.0
C32 C 0.7268 0.75742 0.19656 0.0
C33 C 0.73814 0.77486 0.19704 0.0
C34 C 0.73646 0.78867 0.21243 0.0
C35 C 0.72324 0.78473 0.22754 0.0
H36 H 0.02691 0.9361 0.43345 0.0
H37 H 0.05939 0.988 0.41772 0.0
H38 H 0.08154 0.9511 0.46325 0.0
C39 C 0.03967 0.94569 0.43541 0.0
C40 C 0.05392 0.94154 0.44989 0.0
C41 C 0.0416 0.96227 0.42355 0.0
C42 C 0.0579 0.97495 0.4265 0.0
C43 C 0.07229 0.97096 0.44081 0.0
C44 C 0.07034 0.95415 0.45226 0.0
H45 H 0.19038 0.7486 0.77336 0.0
H46 H 0.24396 0.71944 0.78823 0.0
H47 H 0.2131 0.70504 0.73409 0.0
C48 C 0.2016 0.73818 0.76978 0.0
C49 C 0.19998 0.72737 0.75205 0.0
C50 C 0.21739 0.73547 0.783 0.0
C51 C 0.23174 0.72174 0.77817 0.0
C52 C 0.23025 0.71061 0.76062 0.0
C53 C 0.21438 0.71362 0.74761 0.0
H54 H 0.9232 0.54673 0.49865 0.0
H55 H 0.97396 0.56543 0.46699 0.0
H56 H 0.93803 0.51692 0.44508 0.0
C57 C 0.93274 0.5452 0.48619 0.0
C58 C 0.92877 0.53039 0.47209 0.0
C59 C 0.94889 0.55804 0.48432 0.0
C60 C 0.96134 0.55568 0.46832 0.0
C61 C 0.95763 0.54087 0.45408 0.0
C62 C 0.94113 0.52838 0.45597 0.0
H63 H 0.80103 0.83214 0.8497 0.0
H64 H 0.83043 0.85524 0.79955 0.0
H65 H 0.84602 0.79904 0.82186 0.0
C66 C 0.81206 0.83087 0.83857 0.0
C67 C 0.82371 0.81409 0.83797 0.0
C68 C 0.81406 0.84567 0.82457 0.0
C69 C 0.8284 0.84376 0.81017 0.0
C70 C 0.84004 0.82703 0.80916 0.0
C71 C 0.83764 0.81232 0.82314 0.0
H72 H 0.28733 0.32413 0.34507 0.0
H73 H 0.31991 0.34558 0.29643 0.0
H74 H 0.34268 0.29867 0.33108 0.0
C75 C 0.30022 0.32357 0.33604 0.0
C76 C 0.31469 0.30968 0.33989 0.0
C77 C 0.30216 0.33668 0.32053 0.0
C78 C 0.31892 0.33607 0.30897 0.0
C79 C 0.33374 0.32248 0.31268 0.0
C80 C 0.33153 0.30943 0.3283 0.0
H81 H 0.45926 0.96456 0.58673 0.0
H82 H 0.48987 0.91319 0.568 0.0
H83 H 0.43931 0.93203 0.53522 0.0
C84 C 0.46069 0.95224 0.57664 0.0
C85 C 0.44742 0.94989 0.56071 0.0
C86 C 0.47602 0.93905 0.57943 0.0
C87 C 0.47792 0.92329 0.56614 0.0
C88 C 0.46468 0.92062 0.55023 0.0
C89 C 0.4494 0.9339 0.54765 0.0
H90 H 0.20476 0.23622 0.71216 0.0
H91 H 0.24856 0.27452 0.68811 0.0
H92 H 0.21988 0.29085 0.74152 0.0
C93 C 0.21347 0.24968 0.71302 0.0
C94 C 0.21066 0.26307 0.72857 0.0
C95 C 0.22719 0.25364 0.69842 0.0
C96 C 0.23816 0.2713 0.69949 0.0
C97 C 0.23569 0.28488 0.71496 0.0
C98 C 0.22198 0.28052 0.72953 0.0
H99 H 0.77538 0.18605 0.75206 0.0
H100 H 0.78949 0.2387 0.72072 0.0
H101 H 0.73716 0.20528 0.70564 0.0
C102 C 0.77168 0.19687 0.74119 0.0
C103 C 0.75453 0.19408 0.72963 0.0
C104 C 0.78456 0.21283 0.73807 0.0
C105 C 0.77978 0.2263 0.72334 0.0
C106 C 0.76285 0.2235 0.71145 0.0
C107 C 0.75031 0.20738 0.7147 0.0
H108 H 0.51722 0.5619 0.54222 0.0
H109 H 0.54772 0.51104 0.56213 0.0
H110 H 0.5675 0.5416 0.51121 0.0
C111 C 0.52895 0.55153 0.54059 0.0
C112 C 0.54212 0.55363 0.52511 0.0
C113 C 0.53082 0.53621 0.55403 0.0
C114 C 0.54613 0.52286 0.55182 0.0
C115 C 0.55942 0.52468 0.53639 0.0
C116 C 0.55729 0.5401 0.52311 0.0
H117 H 0.52408 0.44717 0.93226 0.0
H118 H 0.56473 0.48979 0.90973 0.0
H119 H 0.57894 0.45962 0.96274 0.0
C120 C 0.53817 0.45476 0.93317 0.0
C121 C 0.55101 0.45136 0.94915 0.0
C122 C 0.543 0.46849 0.91876 0.0
C123 C 0.56084 0.47907 0.92063 0.0
C124 C 0.57356 0.47624 0.93673 0.0
C125 C 0.56871 0.4622 0.95072 0.0
H126 H 0.69303 0.25522 0.26623 0.0
H127 H 0.74339 0.22179 0.28285 0.0
H128 H 0.71277 0.2089 0.22828 0.0
C129 C 0.70318 0.24357 0.2632 0.0
C130 C 0.70093 0.23242 0.24572 0.0
C131 C 0.71851 0.23997 0.27668 0.0
C132 C 0.73191 0.2252 0.27228 0.0
C133 C 0.73004 0.21402 0.2548 0.0
C134 C 0.71449 0.21771 0.24161 0.0
H135 H 0.41218 0.06177 0.00115 0.0
H136 H 0.46301 0.07903 0.96899 0.0
H137 H 0.43219 0.02504 0.95405 0.0
C138 C 0.42245 0.05891 0.98956 0.0
C139 C 0.41997 0.04204 0.9776 0.0
C140 C 0.43819 0.07207 0.98678 0.0
C141 C 0.45131 0.06847 0.97158 0.0
C142 C 0.44919 0.05166 0.95948 0.0
C143 C 0.43354 0.03845 0.96274 0.0
Zn144 Zn 0.27317 0.84274 0.99895 0.0
Zn145 Zn 0.24093 0.86365 0.0029 0.0
O146 O 0.24246 0.84831 0.02905 0.0
O147 O 0.27034 0.83284 0.02629 0.0
O148 O 0.21668 0.8802 0.00543 0.0
O149 O 0.28914 0.86729 0.99447 0.0
O150 O 0.2629 0.88465 5e-05 0.0
C151 C 0.25546 0.83709 0.03621 0.0
C152 C 0.24443 0.83291 0.96932 0.0
O153 O 0.23524 0.84681 0.97762 0.0
O154 O 0.26088 0.82772 0.97615 0.0
C155 C 0.21371 0.89016 0.02101 0.0
O156 O 0.22638 0.88919 0.03575 0.0
C157 C 0.28112 0.88379 0.99635 0.0
Zn158 Zn 0.0966 0.46291 0.2703 0.0
Zn159 Zn 0.11796 0.49611 0.26732 0.0
O160 O 0.09971 0.50214 0.29051 0.0
O161 O 0.08386 0.47405 0.29416 0.0
O162 O 0.13479 0.52053 0.26512 0.0
O163 O 0.12126 0.44738 0.27327 0.0
O164 O 0.13846 0.47497 0.27246 0.0
C165 C 0.08732 0.49162 0.29963 0.0
C166 C 0.09098 0.48189 0.23336 0.0
O167 O 0.10418 0.49372 0.24021 0.0
O168 O 0.08476 0.46783 0.24358 0.0
C169 C 0.12759 0.53734 0.26241 0.0
O170 O 0.10844 0.53904 0.26127 0.0
C171 C 0.13766 0.45639 0.27416 0.0
Zn172 Zn 0.7893 0.60465 0.96041 0.0
Zn173 Zn 0.77344 0.62275 0.99183 0.0
O174 O 0.79499 0.60578 0.00413 0.0
O175 O 0.80873 0.59195 0.97847 0.0
O176 O 0.76298 0.6376 0.01509 0.0
O177 O 0.79652 0.63054 0.94883 0.0
O178 O 0.78231 0.64517 0.97374 0.0
C179 C 0.80782 0.5946 0.99686 0.0
C180 C 0.74817 0.59484 0.96621 0.0
O181 O 0.75014 0.60632 0.9811 0.0
O182 O 0.76251 0.59196 0.95502 0.0
C183 C 0.75908 0.62941 0.03122 0.0
O184 O 0.76137 0.61041 0.03276 0.0
C185 C 0.79141 0.64605 0.95759 0.0
Zn186 Zn 0.84482 0.00034 0.27419 0.0
Zn187 Zn 0.86785 0.00525 0.24344 0.0
O188 O 0.85257 0.03139 0.24488 0.0
O189 O 0.83466 0.0275 0.27111 0.0
O190 O 0.88636 0.00896 0.22083 0.0
O191 O 0.86826 0.99564 0.29181 0.0
O192 O 0.88724 0.00085 0.2666 0.0
C193 C 0.8401 0.03796 0.25697 0.0
C194 C 0.83689 0.97171 0.24367 0.0
O195 O 0.85119 0.98044 0.23544 0.0
O196 O 0.83099 0.97776 0.26016 0.0
C197 C 0.88076 0.01285 0.20342 0.0
O198 O 0.86192 0.01463 0.19955 0.0
C199 C 0.88525 0.99698 0.28472 0.0
Zn200 Zn 0.28607 0.09743 0.46157 0.0
Zn201 Zn 0.27493 0.11673 0.49406 0.0
O202 O 0.29799 0.10001 0.50405 0.0
O203 O 0.30799 0.08549 0.47702 0.0
O204 O 0.26718 0.13231 0.51799 0.0
O205 O 0.29081 0.12291 0.44787 0.0
O206 O 0.28199 0.13857 0.47469 0.0
C207 C 0.30975 0.08861 0.49535 0.0
C208 C 0.24646 0.088 0.47273 0.0
O209 O 0.25006 0.10066 0.48637 0.0
O210 O 0.2595 0.08387 0.46042 0.0
C211 C 0.26393 0.12455 0.53449 0.0
O212 O 0.26549 0.10549 0.5362 0.0
C213 C 0.28796 0.13883 0.45708 0.0
Zn214 Zn 0.34504 0.49925 0.77099 0.0
Zn215 Zn 0.36672 0.50303 0.73907 0.0
O216 O 0.35177 0.52938 0.74048 0.0
O217 O 0.33496 0.52639 0.76756 0.0
O218 O 0.3838 0.50555 0.71513 0.0
O219 O 0.36936 0.49501 0.78752 0.0
O220 O 0.38725 0.49959 0.7614 0.0
C221 C 0.33992 0.53642 0.75294 0.0
C222 C 0.3356 0.46966 0.74206 0.0
O223 O 0.34957 0.47802 0.73297 0.0
O224 O 0.33036 0.47635 0.75855 0.0
C225 C 0.394 0.52105 0.71241 0.0
O226 O 0.39293 0.53569 0.72509 0.0
C227 C 0.38602 0.49626 0.77971 0.0
Zn228 Zn 0.77546 0.33942 0.49994 0.0
Zn229 Zn 0.7431 0.35992 0.5013 0.0
O230 O 0.74271 0.3438 0.52708 0.0
O231 O 0.76772 0.32418 0.52348 0.0
O232 O 0.71893 0.37671 0.503 0.0
O233 O 0.79222 0.36386 0.50314 0.0
O234 O 0.76528 0.3809 0.49991 0.0
C235 C 0.75316 0.32973 0.5332 0.0
C236 C 0.7509 0.33298 0.46577 0.0
O237 O 0.73915 0.34379 0.47526 0.0
O238 O 0.76772 0.32953 0.47295 0.0
C239 C 0.71672 0.38739 0.51827 0.0
O240 O 0.72989 0.38671 0.53259 0.0
C241 C 0.78391 0.3802 0.50155 0.0
Zn242 Zn 0.60203 0.95606 0.79367 0.0
Zn243 Zn 0.61714 0.99108 0.78427 0.0
O244 O 0.59767 0.99798 0.80601 0.0
O245 O 0.5826 0.96963 0.81078 0.0
O246 O 0.62962 0.0172 0.77789 0.0
O247 O 0.62828 0.94811 0.80485 0.0
O248 O 0.64105 0.97516 0.7928 0.0
C249 C 0.58438 0.98786 0.81429 0.0
C250 C 0.59621 0.96504 0.75298 0.0
O251 O 0.6037 0.98154 0.75847 0.0
O252 O 0.59494 0.95116 0.76505 0.0
C253 C 0.63696 0.02057 0.76123 0.0
O254 O 0.63592 0.00684 0.74747 0.0
C255 C 0.64309 0.95888 0.8014 0.0
Zn256 Zn 0.99914 0.27524 0.84316 0.0
Zn257 Zn 0.00353 0.2444 0.86629 0.0
O258 O 0.03007 0.24611 0.85171 0.0
O259 O 0.02666 0.27248 0.83385 0.0
O260 O 0.00684 0.22167 0.88477 0.0
O261 O 0.99353 0.29249 0.86663 0.0
O262 O 0.99868 0.26729 0.88568 0.0
C263 C 0.03699 0.25835 0.83953 0.0
C264 C 0.97062 0.24483 0.83455 0.0
O265 O 0.97898 0.23662 0.84912 0.0
O266 O 0.97696 0.26122 0.82864 0.0
C267 C 0.01158 0.20454 0.87922 0.0
O268 O 0.01448 0.20106 0.86048 0.0
C269 C 0.99459 0.28531 0.88363 0.0
Zn270 Zn 0.50634 0.78082 0.35203 0.0
Zn271 Zn 0.50815 0.74695 0.37073 0.0
O272 O 0.5346 0.74864 0.35588 0.0
O273 O 0.53253 0.77649 0.34019 0.0
O274 O 0.51015 0.72184 0.38615 0.0
O275 O 0.50496 0.79591 0.37741 0.0
O276 O 0.5043 0.76779 0.39284 0.0
C277 C 0.54199 0.7613 0.34441 0.0
C278 C 0.47467 0.75401 0.34101 0.0
O279 O 0.48348 0.7426 0.35279 0.0
O280 O 0.48146 0.77115 0.33832 0.0
C281 C 0.52568 0.71851 0.39611 0.0
O282 O 0.54032 0.7313 0.39578 0.0
C283 C 0.50372 0.78647 0.39318 0.0
Zn284 Zn 0.95709 0.77386 0.5996 0.0
Zn285 Zn 0.99095 0.76878 0.61905 0.0
O286 O 0.99872 0.78895 0.59825 0.0
O287 O 0.97151 0.79074 0.5804 0.0
O288 O 0.01588 0.76461 0.63462 0.0
O289 O 0.94511 0.7855 0.62378 0.0
O290 O 0.97213 0.77861 0.64024 0.0
C291 C 0.98937 0.7955 0.58343 0.0
C292 C 0.96927 0.73401 0.59865 0.0
O293 O 0.98443 0.74127 0.60752 0.0
O294 O 0.95496 0.74481 0.59442 0.0
C295 C 0.03206 0.76098 0.62648 0.0
O296 O 0.03269 0.76015 0.60721 0.0
C297 C 0.95472 0.78509 0.63986 0.0
Zn298 Zn 0.45405 0.28964 0.10642 0.0
Zn299 Zn 0.48868 0.28113 0.12246 0.0
O300 O 0.49591 0.30292 0.10298 0.0
O301 O 0.46775 0.30696 0.08725 0.0
O302 O 0.51433 0.27474 0.13583 0.0
O303 O 0.44494 0.30069 0.13222 0.0
O304 O 0.47191 0.28941 0.14591 0.0
C305 C 0.48589 0.31088 0.08937 0.0
C306 C 0.46373 0.24927 0.10113 0.0
O307 O 0.47996 0.25507 0.10906 0.0
O308 O 0.4497 0.26105 0.09935 0.0
C309 C 0.52989 0.27092 0.12664 0.0
O310 O 0.52957 0.27116 0.10735 0.0
C311 C 0.45535 0.29758 0.1474 0.0
H312 H 0.20792 0.77388 0.79024 0.0
H313 H 0.20817 0.7914 0.82177 0.0
H314 H 0.23039 0.74016 0.85037 0.0
H315 H 0.22896 0.72213 0.81913 0.0
H316 H 0.20347 0.7554 0.87189 0.0
H317 H 0.26001 0.78127 0.83921 0.0
H318 H 0.27791 0.79701 0.8124 0.0
H319 H 0.24307 0.84843 0.81867 0.0
H320 H 0.22478 0.83288 0.84537 0.0
H321 H 0.25212 0.79613 0.9562 0.0
H322 H 0.24258 0.78098 0.92465 0.0
H323 H 0.2103 0.83248 0.90936 0.0
H324 H 0.21959 0.84774 0.94128 0.0
H325 H 0.23818 0.8196 0.88079 0.0
H326 H 0.18458 0.79376 0.91706 0.0
H327 H 0.16882 0.7774 0.94481 0.0
H328 H 0.20068 0.72503 0.93268 0.0
H329 H 0.21687 0.74117 0.90502 0.0
C330 C 0.21266 0.76624 0.80326 0.0
C331 C 0.21846 0.74655 0.80206 0.0
C332 C 0.21301 0.77638 0.82127 0.0
C333 C 0.21953 0.76721 0.83846 0.0
C334 C 0.22533 0.74758 0.83733 0.0
C335 C 0.22476 0.73736 0.81937 0.0
C336 C 0.22028 0.77795 0.85766 0.0
C337 C 0.2112 0.76936 0.87383 0.0
C338 C 0.2299 0.79645 0.86017 0.0
C339 C 0.24087 0.80582 0.84412 0.0
C340 C 0.25606 0.79587 0.83476 0.0
C341 C 0.26629 0.80477 0.81961 0.0
C342 C 0.26159 0.82369 0.81379 0.0
C343 C 0.24667 0.83377 0.82316 0.0
C344 C 0.23637 0.82492 0.83832 0.0
C345 C 0.24275 0.80415 0.94626 0.0
C346 C 0.23662 0.82314 0.95118 0.0
C347 C 0.23727 0.79544 0.92827 0.0
C348 C 0.22571 0.80559 0.91472 0.0
C349 C 0.21919 0.82441 0.91968 0.0
C350 C 0.22441 0.83304 0.93792 0.0
C351 C 0.2217 0.79684 0.89496 0.0
C352 C 0.2302 0.80578 0.87871 0.0
C353 C 0.21181 0.77854 0.89245 0.0
C354 C 0.20205 0.76874 0.90903 0.0
C355 C 0.18835 0.77881 0.9204 0.0
C356 C 0.17931 0.76956 0.9361 0.0
C357 C 0.18377 0.7502 0.94053 0.0
C358 C 0.19725 0.74003 0.92923 0.0
C359 C 0.20634 0.74921 0.91352 0.0
H360 H 0.17676 0.74307 0.95269 0.0
H361 H 0.26953 0.83055 0.80206 0.0
H362 H 0.97534 0.56913 0.43195 0.0
H363 H -0.00039 0.56448 0.4064 0.0
H364 H 0.99492 0.5018 0.41321 0.0
H365 H 0.97125 0.50636 0.43925 0.0
H366 H 0.03244 0.51366 0.41223 0.0
H367 H 0.97326 0.52523 0.37417 0.0
H368 H 0.94431 0.54391 0.36392 0.0
H369 H 0.98164 0.59211 0.3476 0.0
H370 H 0.01082 0.57379 0.35801 0.0
H371 H 0.06598 0.47112 0.32586 0.0
H372 H 0.04678 0.48381 0.35276 0.0
H373 H 0.06461 0.54287 0.33878 0.0
H374 H 0.08407 0.53019 0.31149 0.0
H375 H 0.02396 0.5381 0.34442 0.0
H376 H 0.08345 0.52426 0.37868 0.0
H377 H 0.11209 0.50476 0.38814 0.0
H378 H 0.074 0.46032 0.41123 0.0
H379 H 0.04509 0.47941 0.40165 0.0
C380 C 0.97954 0.55435 0.42805 0.0
C381 C 0.97137 0.5381 0.43765 0.0
C382 C 0.99329 0.55172 0.41333 0.0
C383 C 0.999 0.53279 0.40782 0.0
C384 C 0.99072 0.51655 0.41724 0.0
C385 C 0.97704 0.51917 0.43198 0.0
C386 C 0.01387 0.52975 0.39253 0.0
C387 C 0.03051 0.5189 0.39738 0.0
C388 C 0.01173 0.53723 0.37335 0.0
C389 C 0.9942 0.54824 0.3671 0.0
C390 C 0.97529 0.53988 0.36856 0.0
C391 C 0.95884 0.55039 0.36269 0.0
C392 C 0.96113 0.56921 0.35518 0.0
C393 C 0.97989 0.57754 0.35347 0.0
C394 C 0.99638 0.5671 0.35934 0.0
C395 C 0.06596 0.48682 0.32849 0.0
C396 C 0.07656 0.49965 0.31651 0.0
C397 C 0.05503 0.49404 0.34396 0.0
C398 C 0.05443 0.51425 0.34786 0.0
C399 C 0.06498 0.5272 0.33601 0.0
C400 C 0.07612 0.51994 0.32052 0.0
C401 C 0.04215 0.52151 0.36401 0.0
C402 C 0.02604 0.53317 0.35937 0.0
C403 C 0.04472 0.51474 0.3834 0.0
C404 C 0.06208 0.50324 0.38934 0.0
C405 C 0.08116 0.51027 0.38565 0.0
C406 C 0.09745 0.4993 0.39106 0.0
C407 C 0.09487 0.4813 0.40025 0.0
C408 C 0.07598 0.47426 0.40411 0.0
C409 C 0.05963 0.48517 0.39872 0.0
H410 H 0.1075 0.47282 0.40442 0.0
H411 H 0.94838 0.57733 0.35063 0.0
H412 H 0.78895 0.80068 0.85317 0.0
H413 H 0.78405 0.77397 0.87607 0.0
H414 H 0.84611 0.76319 0.87685 0.0
H415 H 0.85146 0.79068 0.85487 0.0
H416 H 0.81705 0.7293 0.86759 0.0
H417 H 0.83298 0.78213 0.91446 0.0
H418 H 0.82824 0.815 0.92901 0.0
H419 H 0.76873 0.79937 0.94231 0.0
H420 H 0.77303 0.76649 0.92756 0.0
H421 H 0.82351 0.65603 0.93695 0.0
H422 H 0.82944 0.6862 0.91908 0.0
H423 H 0.77424 0.70859 0.93876 0.0
H424 H 0.76889 0.67876 0.95774 0.0
H425 H 0.79863 0.73741 0.93735 0.0
H426 H 0.77995 0.6866 0.89181 0.0
H427 H 0.78071 0.65409 0.8755 0.0
H428 H 0.83958 0.6658 0.85709 0.0
H429 H 0.83928 0.69829 0.87353 0.0
C430 C 0.80168 0.79302 0.85853 0.0
C431 C 0.82065 0.79798 0.85217 0.0
C432 C 0.79879 0.77764 0.8715 0.0
C433 C 0.81473 0.76674 0.87811 0.0
C434 C 0.83365 0.7715 0.87183 0.0
C435 C 0.83662 0.78712 0.85915 0.0
C436 C 0.81155 0.74985 0.891 0.0
C437 C 0.81332 0.73099 0.88293 0.0
C438 C 0.80578 0.75224 0.91069 0.0
C439 C 0.80327 0.77193 0.91972 0.0
C440 C 0.81883 0.78577 0.92032 0.0
C441 C 0.81624 0.80439 0.92864 0.0
C442 C 0.79818 0.80929 0.93653 0.0
C443 C 0.7827 0.79556 0.93617 0.0
C444 C 0.78522 0.77693 0.92785 0.0
C445 C 0.81277 0.66751 0.93764 0.0
C446 C 0.79567 0.66506 0.94853 0.0
C447 C 0.81608 0.68469 0.92732 0.0
C448 C 0.80199 0.69943 0.92703 0.0
C449 C 0.78526 0.69737 0.93862 0.0
C450 C 0.7822 0.68035 0.94944 0.0
C451 C 0.80449 0.7166 0.9141 0.0
C452 C 0.80243 0.73557 0.92205 0.0
C453 C 0.80942 0.71432 0.89406 0.0
C454 C 0.80965 0.69481 0.88406 0.0
C455 C 0.79311 0.68219 0.8844 0.0
C456 C 0.79345 0.66377 0.87512 0.0
C457 C 0.8102 0.65786 0.86531 0.0
C458 C 0.82663 0.67039 0.86472 0.0
C459 C 0.82637 0.68882 0.874 0.0
H460 H 0.81044 0.6436 0.85813 0.0
H461 H 0.7962 0.82372 0.94296 0.0
H462 H 0.04734 0.97409 0.38585 0.0
H463 H 0.02238 0.98011 0.36043 0.0
H464 H 0.97688 0.96561 0.40116 0.0
H465 H 0.00172 0.95963 0.42661 0.0
H466 H 0.9703 0.94773 0.36614 0.0
H467 H 0.98748 0.01312 0.38946 0.0
H468 H 0.01022 0.04082 0.39729 0.0
H469 H 0.02717 0.04282 0.33696 0.0
H470 H 0.00471 0.01493 0.32882 0.0
H471 H 0.88559 0.98642 0.32317 0.0
H472 H 0.91392 0.98043 0.34441 0.0
H473 H 0.95267 0.99403 0.29704 0.0
H474 H 0.92424 0.00021 0.27552 0.0
H475 H 0.96484 0.01138 0.3324 0.0
H476 H 0.94582 0.94751 0.30865 0.0
H477 H 0.92308 0.91982 0.30087 0.0
H478 H 0.90972 0.91481 0.36195 0.0
H479 H 0.93217 0.94268 0.37007 0.0
C480 C 0.03201 0.97239 0.38943 0.0
C481 C 0.0265 0.96637 0.40823 0.0
C482 C 0.01777 0.9758 0.37489 0.0
C483 C 0.99777 0.97342 0.37894 0.0
C484 C 0.99224 0.96744 0.39769 0.0
C485 C 0.00645 0.96399 0.4122 0.0
C486 C 0.9825 0.97692 0.36364 0.0
C487 C 0.96899 0.96171 0.35891 0.0
C488 C 0.9812 0.99495 0.35373 0.0
C489 C 0.99458 0.01181 0.35857 0.0
C490 C 0.99617 0.01937 0.37789 0.0
C491 C 0.00899 0.03512 0.38238 0.0
C492 C 0.02018 0.04353 0.36764 0.0
C493 C 0.01852 0.03626 0.34837 0.0
C494 C 0.00574 0.02049 0.3438 0.0
C495 C 0.90011 0.98817 0.31719 0.0
C496 C 0.90263 0.99372 0.29758 0.0
C497 C 0.9163 0.98467 0.32937 0.0
C498 C 0.93538 0.98654 0.32223 0.0
C499 C 0.93804 0.99243 0.30279 0.0
C500 C 0.92179 0.9959 0.29052 0.0
C501 C 0.95241 0.98233 0.33525 0.0
C502 C 0.96626 0.99736 0.33952 0.0
C503 C 0.95406 0.96412 0.34475 0.0
C504 C 0.94057 0.9473 0.33995 0.0
C505 C 0.93792 0.94061 0.32041 0.0
C506 C 0.9251 0.92486 0.31594 0.0
C507 C 0.91493 0.91559 0.3309 0.0
C508 C 0.9176 0.92202 0.35037 0.0
C509 C 0.93038 0.93778 0.35492 0.0
H510 H 0.90501 0.90339 0.32741 0.0
H511 H 0.0301 0.05572 0.37115 0.0
H512 H 0.23091 0.26169 0.65942 0.0
H513 H 0.23585 0.23854 0.63231 0.0
H514 H 0.23384 0.19047 0.67265 0.0
H515 H 0.22952 0.21365 0.69999 0.0
H516 H 0.26356 0.18664 0.64765 0.0
H517 H 0.195 0.19928 0.64222 0.0
H518 H 0.16556 0.21962 0.64002 0.0
H519 H 0.18598 0.24423 0.58633 0.0
H520 H 0.21569 0.22423 0.58837 0.0
H521 H 0.25723 0.11305 0.57217 0.0
H522 H 0.24957 0.13384 0.6005 0.0
H523 H 0.25166 0.18491 0.56403 0.0
H524 H 0.25908 0.16426 0.53561 0.0
H525 H 0.22056 0.18569 0.58798 0.0
H526 H 0.28989 0.17425 0.59452 0.0
H527 H 0.31939 0.15399 0.59688 0.0
H528 H 0.29726 0.12701 0.6487 0.0
H529 H 0.26749 0.14692 0.64648 0.0
C530 C 0.23167 0.24621 0.66256 0.0
C531 C 0.22984 0.23951 0.68187 0.0
C532 C 0.23429 0.23297 0.64701 0.0
C533 C 0.23498 0.21274 0.65041 0.0
C534 C 0.23327 0.206 0.66968 0.0
C535 C 0.23065 0.21925 0.68525 0.0
C536 C 0.23787 0.1987 0.63387 0.0
C537 C 0.25396 0.18619 0.63474 0.0
C538 C 0.22557 0.19839 0.61687 0.0
C539 C 0.20766 0.21037 0.61554 0.0
C540 C 0.19329 0.20913 0.63002 0.0
C541 C 0.17654 0.22059 0.62879 0.0
C542 C 0.17392 0.23324 0.61307 0.0
C543 C 0.18803 0.23443 0.59852 0.0
C544 C 0.20482 0.22303 0.59969 0.0
C545 C 0.25602 0.1287 0.57015 0.0
C546 C 0.25886 0.13699 0.55163 0.0
C547 C 0.2517 0.14057 0.58639 0.0
C548 C 0.25024 0.16096 0.58442 0.0
C549 C 0.25272 0.16922 0.56588 0.0
C550 C 0.25704 0.15738 0.54966 0.0
C551 C 0.24635 0.17377 0.60169 0.0
C552 C 0.23007 0.18605 0.60095 0.0
C553 C 0.25846 0.17386 0.61882 0.0
C554 C 0.27637 0.16192 0.62021 0.0
C555 C 0.29124 0.16388 0.60632 0.0
C556 C 0.30803 0.15248 0.60765 0.0
C557 C 0.31018 0.13918 0.62289 0.0
C558 C 0.29557 0.13729 0.63688 0.0
C559 C 0.27874 0.14864 0.6356 0.0
H560 H 0.32318 0.13037 0.6239 0.0
H561 H 0.16094 0.24209 0.61214 0.0
H562 H 0.51749 0.56514 0.57839 0.0
H563 H 0.49417 0.56193 0.60506 0.0
H564 H 0.48925 0.49966 0.59354 0.0
H565 H 0.51238 0.50281 0.56663 0.0
H566 H 0.4532 0.51655 0.5987 0.0
H567 H 0.51584 0.51623 0.63217 0.0
H568 H 0.54904 0.52878 0.64104 0.0
H569 H 0.52475 0.58191 0.66385 0.0
H570 H 0.4914 0.56978 0.65486 0.0
H571 H 0.40365 0.49198 0.68623 0.0
H572 H 0.42672 0.49411 0.65928 0.0
H573 H 0.43762 0.5553 0.67332 0.0
H574 H 0.41498 0.55314 0.70059 0.0
H575 H 0.47092 0.53827 0.66674 0.0
H576 H 0.40863 0.53958 0.63293 0.0
H577 H 0.37522 0.52788 0.62365 0.0
H578 H 0.39839 0.47413 0.60107 0.0
H579 H 0.43193 0.48541 0.61045 0.0
C580 C 0.51136 0.55077 0.58146 0.0
C581 C 0.5168 0.53422 0.5704 0.0
C582 C 0.49815 0.54894 0.5968 0.0
C583 C 0.49008 0.53052 0.6014 0.0
C584 C 0.49532 0.514 0.59028 0.0
C585 C 0.50865 0.5158 0.57501 0.0
C586 C 0.47611 0.52856 0.61777 0.0
C587 C 0.45714 0.52103 0.61364 0.0
C588 C 0.4811 0.53487 0.63717 0.0
C589 C 0.50113 0.54217 0.64266 0.0
C590 C 0.51758 0.53065 0.63893 0.0
C591 C 0.53643 0.53768 0.64401 0.0
C592 C 0.53901 0.55615 0.65296 0.0
C593 C 0.52273 0.56761 0.6569 0.0
C594 C 0.50385 0.56066 0.65183 0.0
C595 C 0.41089 0.50592 0.68354 0.0
C596 C 0.40743 0.5224 0.69557 0.0
C597 C 0.42403 0.50714 0.66805 0.0
C598 C 0.43379 0.52494 0.66408 0.0
C599 C 0.43031 0.5414 0.67607 0.0
C600 C 0.4173 0.54016 0.69164 0.0
C601 C 0.4479 0.52635 0.6477 0.0
C602 C 0.46692 0.53376 0.65182 0.0
C603 C 0.44291 0.52006 0.62827 0.0
C604 C 0.42277 0.51326 0.62258 0.0
C605 C 0.40658 0.5252 0.62612 0.0
C606 C 0.38763 0.51866 0.62082 0.0
C607 C 0.38468 0.50025 0.61183 0.0
C608 C 0.40069 0.48837 0.60806 0.0
C609 C 0.41968 0.49484 0.61336 0.0
H610 H 0.36999 0.49522 0.60773 0.0
H611 H 0.55361 0.56157 0.65688 0.0
H612 H 0.75508 0.21289 0.67345 0.0
H613 H 0.75058 0.23435 0.64531 0.0
H614 H 0.75708 0.28516 0.68352 0.0
H615 H 0.762 0.26367 0.71184 0.0
H616 H 0.7228 0.2821 0.64979 0.0
H617 H 0.79294 0.28202 0.66389 0.0
H618 H 0.82395 0.26564 0.67192 0.0
H619 H 0.81814 0.23073 0.61901 0.0
H620 H 0.78689 0.24667 0.61085 0.0
H621 H 0.73806 0.34574 0.56682 0.0
H622 H 0.73689 0.33047 0.59923 0.0
H623 H 0.75795 0.27656 0.57395 0.0
H624 H 0.7599 0.29194 0.54203 0.0
H625 H 0.77883 0.28523 0.60451 0.0
H626 H 0.70918 0.28328 0.59018 0.0
H627 H 0.67704 0.29723 0.58176 0.0
H628 H 0.68045 0.33371 0.63375 0.0
H629 H 0.71273 0.32014 0.64235 0.0
C630 C 0.7553 0.22863 0.67589 0.0
C631 C 0.7589 0.23665 0.69478 0.0
C632 C 0.75272 0.24084 0.65984 0.0
C633 C 0.75342 0.26127 0.66242 0.0
C634 C 0.75637 0.26939 0.68133 0.0
C635 C 0.75931 0.25715 0.6974 0.0
C636 C 0.75264 0.27387 0.64498 0.0
C637 C 0.73511 0.28318 0.64 0.0
C638 C 0.7686 0.27482 0.63214 0.0
C639 C 0.7875 0.26539 0.63687 0.0
C640 C 0.79819 0.27071 0.65407 0.0
C641 C 0.81582 0.26154 0.65862 0.0
C642 C 0.82299 0.24711 0.64601 0.0
C643 C 0.81256 0.24188 0.62878 0.0
C644 C 0.79489 0.251 0.62417 0.0
C645 C 0.74209 0.33053 0.56821 0.0
C646 C 0.74919 0.32004 0.55199 0.0
C647 C 0.74141 0.32181 0.58671 0.0
C648 C 0.7474 0.30234 0.5891 0.0
C649 C 0.75348 0.29164 0.5726 0.0
C650 C 0.7545 0.30042 0.55432 0.0
C651 C 0.74872 0.29326 0.6088 0.0
C652 C 0.76648 0.28453 0.61429 0.0
C653 C 0.73286 0.29272 0.62194 0.0
C654 C 0.71347 0.30087 0.61678 0.0
C655 C 0.70315 0.2944 0.59973 0.0
C656 C 0.68489 0.30221 0.59494 0.0
C657 C 0.67674 0.3164 0.60717 0.0
C658 C 0.6868 0.32275 0.62426 0.0
C659 C 0.70507 0.315 0.62911 0.0
H660 H 0.6626 0.32243 0.60344 0.0
H661 H 0.83664 0.24002 0.64956 0.0
H662 H 0.49054 0.9112 0.60385 0.0
H663 H 0.51346 0.916 0.63164 0.0
H664 H 0.51618 0.97809 0.6207 0.0
H665 H 0.49371 0.97332 0.59247 0.0
H666 H 0.55237 0.96369 0.62958 0.0
H667 H 0.4879 0.96126 0.65642 0.0
H668 H 0.45482 0.9473 0.6616 0.0
H669 H 0.48002 0.89568 0.68607 0.0
H670 H 0.51327 0.90922 0.68078 0.0
H671 H 0.58968 0.99301 0.72525 0.0
H672 H 0.5718 0.98873 0.69391 0.0
H673 H 0.56568 0.92668 0.70414 0.0
H674 H 0.58315 0.93086 0.73554 0.0
H675 H 0.53133 0.94196 0.69519 0.0
H676 H 0.59614 0.94489 0.6687 0.0
H677 H 0.62906 0.95921 0.66351 0.0
H678 H 0.60328 0.01038 0.6387 0.0
H679 H 0.57018 0.99647 0.64399 0.0
C680 C 0.4962 0.92584 0.60721 0.0
C681 C 0.49021 0.9419 0.59607 0.0
C682 C 0.50918 0.92858 0.62316 0.0
C683 C 0.51632 0.94744 0.62834 0.0
C684 C 0.51078 0.96344 0.61696 0.0
C685 C 0.49779 0.96071 0.60099 0.0
C686 C 0.52906 0.95049 0.64602 0.0
C687 C 0.54773 0.95916 0.64399 0.0
C688 C 0.52306 0.94431 0.66472 0.0
C689 C 0.50307 0.93618 0.66803 0.0
C690 C 0.48639 0.94687 0.66277 0.0
C691 C 0.46761 0.93904 0.66574 0.0
C692 C 0.46532 0.92059 0.67411 0.0
C693 C 0.48181 0.90996 0.67957 0.0
C694 C 0.50063 0.91771 0.6766 0.0
C695 C 0.58478 0.97841 0.72068 0.0
C696 C 0.58768 0.9623 0.73297 0.0
C697 C 0.57462 0.97598 0.70273 0.0
C698 C 0.56742 0.95737 0.69669 0.0
C699 C 0.57102 0.94118 0.70857 0.0
C700 C 0.58104 0.9436 0.72651 0.0
C701 C 0.55484 0.95489 0.67879 0.0
C702 C 0.53608 0.94644 0.6808 0.0
C703 C 0.56078 0.96133 0.66013 0.0
C704 C 0.58067 0.96971 0.65693 0.0
C705 C 0.59748 0.95927 0.66229 0.0
C706 C 0.61618 0.9673 0.6593 0.0
C707 C 0.61826 0.98572 0.65083 0.0
C708 C 0.60164 0.99612 0.64528 0.0
C709 C 0.58291 0.98816 0.64826 0.0
H710 H 0.63275 0.99191 0.64852 0.0
H711 H 0.45077 0.91456 0.67641 0.0
H712 H 0.82052 0.22463 0.7247 0.0
H713 H 0.85169 0.22636 0.74275 0.0
H714 H 0.82325 0.20561 0.79469 0.0
H715 H 0.79167 0.20502 0.77705 0.0
H716 H 0.84846 0.23313 0.80475 0.0
H717 H 0.85173 0.17505 0.76556 0.0
H718 H 0.8493 0.15452 0.73544 0.0
H719 H 0.89473 0.18925 0.7094 0.0
H720 H 0.89724 0.21018 0.73926 0.0
H721 H 0.94307 0.2202 0.85038 0.0
H722 H 0.9112 0.21015 0.83551 0.0
H723 H 0.92615 0.24005 0.78239 0.0
H724 H 0.95769 0.2503 0.79714 0.0
H725 H 0.90718 0.20312 0.77572 0.0
H726 H 0.9001 0.26322 0.81441 0.0
H727 H 0.90236 0.28292 0.84509 0.0
H728 H 0.86372 0.24202 0.87302 0.0
H729 H 0.86146 0.22193 0.84254 0.0
C730 C 0.82075 0.22077 0.74006 0.0
C731 C 0.80349 0.21464 0.74936 0.0
C732 C 0.8387 0.22145 0.7503 0.0
C733 C 0.83995 0.21566 0.76998 0.0
C734 C 0.82272 0.20997 0.77947 0.0
C735 C 0.80468 0.20948 0.76929 0.0
C736 C 0.85923 0.21583 0.78063 0.0
C737 C 0.86118 0.2262 0.79856 0.0
C738 C 0.87594 0.20689 0.77259 0.0
C739 C 0.87457 0.19427 0.75462 0.0
C740 C 0.86111 0.17839 0.75337 0.0
C741 C 0.85973 0.16667 0.73634 0.0
C742 C 0.87183 0.1706 0.7205 0.0
C743 C 0.88536 0.18623 0.72168 0.0
C744 C 0.88679 0.19801 0.73866 0.0
C745 C 0.93967 0.22428 0.83541 0.0
C746 C 0.95278 0.23613 0.82496 0.0
C747 C 0.92147 0.21862 0.82698 0.0
C748 C 0.9163 0.22451 0.80792 0.0
C749 C 0.92986 0.23537 0.79711 0.0
C750 C 0.94784 0.24127 0.8056 0.0
C751 C 0.89635 0.2207 0.79951 0.0
C752 C 0.89431 0.20968 0.78201 0.0
C753 C 0.87953 0.22883 0.80805 0.0
C754 C 0.88081 0.24096 0.8263 0.0
C755 C 0.89223 0.25835 0.82715 0.0
C756 C 0.89348 0.2696 0.84449 0.0
C757 C 0.88324 0.26369 0.86102 0.0
C758 C 0.87168 0.24655 0.86022 0.0
C759 C 0.8704 0.23523 0.84292 0.0
H760 H 0.88423 0.27242 0.87443 0.0
H761 H 0.87073 0.16151 0.70734 0.0
H762 H 0.49822 0.91138 0.53154 0.0
H763 H 0.50275 0.88545 0.50681 0.0
H764 H 0.44218 0.86737 0.51184 0.0
H765 H 0.4374 0.89362 0.53639 0.0
H766 H 0.48515 0.83785 0.51164 0.0
H767 H 0.43654 0.87989 0.47697 0.0
H768 H 0.42515 0.9128 0.46821 0.0
H769 H 0.48171 0.92691 0.44502 0.0
H770 H 0.49348 0.89415 0.45395 0.0
H771 H 0.48415 0.77449 0.42578 0.0
H772 H 0.47589 0.79472 0.45445 0.0
H773 H 0.50896 0.84329 0.43101 0.0
H774 H 0.51636 0.8235 0.40209 0.0
H775 H 0.4762 0.85603 0.44183 0.0
H776 H 0.52452 0.8149 0.47206 0.0
H777 H 0.53924 0.78367 0.48176 0.0
H778 H 0.48781 0.76889 0.51418 0.0
H779 H 0.47268 0.79994 0.50446 0.0
C780 C 0.48592 0.90177 0.52749 0.0
C781 C 0.46746 0.90448 0.53581 0.0
C782 C 0.48853 0.887 0.51341 0.0
C783 C 0.4728 0.87458 0.50761 0.0
C784 C 0.45445 0.87689 0.51619 0.0
C785 C 0.45173 0.89189 0.53008 0.0
C786 C 0.47551 0.86 0.49171 0.0
C787 C 0.48284 0.84155 0.49634 0.0
C788 C 0.47305 0.86519 0.47188 0.0
C789 C 0.46593 0.88473 0.46632 0.0
C790 C 0.44658 0.8901 0.47018 0.0
C791 C 0.44005 0.9087 0.46515 0.0
C792 C 0.45271 0.92197 0.45612 0.0
C793 C 0.47192 0.91664 0.45205 0.0
C794 C 0.47853 0.89806 0.45708 0.0
C795 C 0.48984 0.78941 0.42695 0.0
C796 C 0.50081 0.79748 0.41171 0.0
C797 C 0.48515 0.80095 0.44334 0.0
C798 C 0.49182 0.82058 0.44496 0.0
C799 C 0.50346 0.82829 0.43005 0.0
C800 C 0.50777 0.81694 0.41356 0.0
C801 C 0.486 0.83355 0.46153 0.0
C802 C 0.4782 0.85192 0.45705 0.0
C803 C 0.4883 0.82828 0.48149 0.0
C804 C 0.49739 0.80963 0.48735 0.0
C805 C 0.51629 0.80492 0.48113 0.0
C806 C 0.52472 0.78727 0.48666 0.0
C807 C 0.51444 0.77428 0.49853 0.0
C808 C 0.49573 0.77895 0.50495 0.0
C809 C 0.48723 0.79658 0.49945 0.0
H810 H 0.52099 0.76062 0.50279 0.0
H811 H 0.44763 0.93636 0.45223 0.0
H812 H 0.21339 0.26798 0.7686 0.0
H813 H 0.18743 0.26306 0.7925 0.0
H814 H 0.14723 0.24513 0.74556 0.0
H815 H 0.17309 0.24982 0.72175 0.0
H816 H 0.15474 0.28095 0.7968 0.0
H817 H 0.11292 0.21364 0.76049 0.0
H818 H 0.12077 0.1832 0.74252 0.0
H819 H 0.17859 0.18435 0.7687 0.0
H820 H 0.17101 0.21462 0.78706 0.0
H821 H 0.05507 0.28225 0.8136 0.0
H822 H 0.08763 0.27954 0.80024 0.0
H823 H 0.09745 0.22763 0.83411 0.0
H824 H 0.06435 0.23008 0.84753 0.0
H825 H 0.10986 0.22283 0.79705 0.0
H826 H 0.1207 0.27008 0.84774 0.0
H827 H 0.11443 0.29942 0.8681 0.0
H828 H 0.12194 0.33601 0.818 0.0
H829 H 0.12797 0.30686 0.79725 0.0
C830 C 0.19902 0.26289 0.76343 0.0
C831 C 0.1953 0.25922 0.7433 0.0
C832 C 0.18422 0.26003 0.77709 0.0
C833 C 0.16541 0.25345 0.77091 0.0
C834 C 0.16173 0.24971 0.75081 0.0
C835 C 0.17653 0.25244 0.73718 0.0
C836 C 0.1492 0.25178 0.78513 0.0
C837 C 0.14506 0.26816 0.79697 0.0
C838 C 0.13684 0.23488 0.78588 0.0
C839 C 0.14142 0.2165 0.77507 0.0
C840 C 0.12727 0.20734 0.76252 0.0
C841 C 0.13168 0.19013 0.75223 0.0
C842 C 0.15018 0.18187 0.75443 0.0
C843 C 0.16429 0.19079 0.76696 0.0
C844 C 0.15995 0.20799 0.77729 0.0
C845 C 0.06408 0.27024 0.81835 0.0
C846 C 0.05706 0.25641 0.83174 0.0
C847 C 0.08281 0.26879 0.81073 0.0
C848 C 0.09514 0.25359 0.81641 0.0
C849 C 0.0882 0.23957 0.82962 0.0
C850 C 0.06932 0.241 0.8373 0.0
C851 C 0.11498 0.25234 0.80789 0.0
C852 C 0.11979 0.23545 0.79713 0.0
C853 C 0.12823 0.2686 0.80849 0.0
C854 C 0.12471 0.28624 0.82091 0.0
C855 C 0.1209 0.28437 0.84103 0.0
C856 C 0.1174 0.30097 0.85265 0.0
C857 C 0.11777 0.31956 0.84435 0.0
C858 C 0.12167 0.32159 0.82441 0.0
C859 C 0.12516 0.30503 0.81272 0.0
H860 H 0.11505 0.3324 0.85337 0.0
H861 H 0.15357 0.16855 0.74645 0.0
H862 H 0.57113 0.57795 0.51176 0.0
H863 H 0.56779 0.60542 0.48933 0.0
H864 H 0.5054 0.59421 0.48472 0.0
H865 H 0.50867 0.56653 0.50697 0.0
H866 H 0.52197 0.6013 0.44863 0.0
H867 H 0.52213 0.6311 0.513 0.0
H868 H 0.53496 0.6381 0.54654 0.0
H869 H 0.58788 0.66252 0.52308 0.0
H870 H 0.57547 0.6554 0.48938 0.0
H871 H 0.49669 0.69162 0.40438 0.0
H872 H 0.49907 0.66325 0.42575 0.0
H873 H 0.56038 0.67686 0.43687 0.0
H874 H 0.55798 0.70548 0.41596 0.0
H875 H 0.54366 0.66831 0.46988 0.0
H876 H 0.54431 0.63826 0.40572 0.0
H877 H 0.53219 0.63092 0.37199 0.0
H878 H 0.47879 0.60666 0.39457 0.0
H879 H 0.4905 0.6141 0.42844 0.0
C880 C 0.55672 0.58123 0.50584 0.0
C881 C 0.54015 0.5701 0.51118 0.0
C882 C 0.55482 0.59701 0.49314 0.0
C883 C 0.53632 0.60198 0.48549 0.0
C884 C 0.5198 0.59067 0.49049 0.0
C885 C 0.52167 0.57496 0.50331 0.0
C886 C 0.53421 0.61908 0.47241 0.0
C887 C 0.52647 0.61601 0.45334 0.0
C888 C 0.54049 0.63818 0.47842 0.0
C889 C 0.54795 0.64254 0.49867 0.0
C890 C 0.53657 0.63782 0.51499 0.0
C891 C 0.54375 0.64183 0.53403 0.0
C892 C 0.56225 0.6507 0.53694 0.0
C893 C 0.57357 0.65562 0.52081 0.0
C894 C 0.56646 0.65162 0.50173 0.0
C895 C 0.51071 0.68852 0.4113 0.0
C896 C 0.52715 0.70083 0.40843 0.0
C897 C 0.51207 0.67223 0.42347 0.0
C898 C 0.52997 0.66774 0.43279 0.0
C899 C 0.54641 0.67999 0.42988 0.0
C900 C 0.54502 0.69635 0.41785 0.0
C901 C 0.53155 0.65058 0.44595 0.0
C902 C 0.53916 0.65362 0.4651 0.0
C903 C 0.52526 0.63144 0.43995 0.0
C904 C 0.5182 0.62692 0.41961 0.0
C905 C 0.52992 0.6315 0.40349 0.0
C906 C 0.52314 0.62729 0.38434 0.0
C907 C 0.50471 0.61838 0.38114 0.0
C908 C 0.49305 0.61359 0.39707 0.0
C909 C 0.49976 0.61779 0.41625 0.0
H910 H 0.49949 0.61513 0.3663 0.0
H911 H 0.56778 0.6538 0.55169 0.0
H912 H 0.87749 0.81314 0.81067 0.0
H913 H 0.89902 0.80666 0.783 0.0
H914 H 0.85491 0.82816 0.74293 0.0
H915 H 0.8332 0.8342 0.77037 0.0
H916 H 0.86907 0.79325 0.73081 0.0
H917 H 0.89556 0.8555 0.75455 0.0
H918 H 0.90982 0.87847 0.77952 0.0
H919 H 0.95869 0.84053 0.78805 0.0
H920 H 0.94458 0.8172 0.7633 0.0
H921 H 0.91961 0.80311 0.64345 0.0
H922 H 0.90245 0.81088 0.67354 0.0
H923 H 0.95064 0.78864 0.70801 0.0
H924 H 0.96818 0.78105 0.67782 0.0
H925 H 0.93599 0.82202 0.72441 0.0
H926 H 0.91049 0.76038 0.70014 0.0
H927 H 0.89647 0.73702 0.67541 0.0
H928 H 0.84587 0.77298 0.66848 0.0
H929 H 0.85973 0.79671 0.69297 0.0
C930 C 0.87243 0.8165 0.79595 0.0
C931 C 0.85369 0.82424 0.79269 0.0
C932 C 0.88477 0.81293 0.78019 0.0
C933 C 0.87859 0.81705 0.76094 0.0
C934 C 0.85997 0.82491 0.75769 0.0
C935 C 0.84766 0.82852 0.7734 0.0
C936 C 0.89115 0.81253 0.74402 0.0
C937 C 0.88361 0.79972 0.7293 0.0
C938 C 0.91037 0.82045 0.74242 0.0
C939 C 0.91891 0.83451 0.75723 0.0
C940 C 0.90927 0.85198 0.76187 0.0
C941 C 0.91734 0.86508 0.77596 0.0
C942 C 0.93512 0.86093 0.78541 0.0
C943 C 0.9449 0.84371 0.78074 0.0
C944 C 0.93688 0.83055 0.76668 0.0
C945 C 0.92667 0.79997 0.65741 0.0
C946 C 0.94519 0.79126 0.65823 0.0
C947 C 0.9168 0.80438 0.6746 0.0
C948 C 0.92511 0.79998 0.69298 0.0
C949 C 0.94394 0.79205 0.69394 0.0
C950 C 0.95391 0.7877 0.67669 0.0
C951 C 0.91371 0.80308 0.71102 0.0
C952 C 0.92148 0.81551 0.72597 0.0
C953 C 0.8947 0.79473 0.71293 0.0
C954 C 0.88624 0.78041 0.69828 0.0
C955 C 0.89644 0.76338 0.69324 0.0
C956 C 0.88851 0.75006 0.67928 0.0
C957 C 0.87031 0.75353 0.67035 0.0
C958 C 0.85998 0.77031 0.6754 0.0
C959 C 0.86786 0.7837 0.68934 0.0
H960 H 0.8642 0.7432 0.65955 0.0
H961 H 0.94135 0.8711 0.79632 0.0
H962 H 0.03914 0.90479 0.44039 0.0
H963 H 0.03149 0.87823 0.46284 0.0
H964 H 0.05543 0.91283 0.51146 0.0
H965 H 0.0624 0.9398 0.48936 0.0
H966 H 0.06534 0.87064 0.51095 0.0
H967 H 0.01006 0.91444 0.50634 0.0
H968 H 0.98517 0.93284 0.48788 0.0
H969 H 0.96216 0.87912 0.46208 0.0
H970 H 0.98714 0.86043 0.48016 0.0
H971 H 0.02 0.82137 0.59055 0.0
H972 H 0.03415 0.84462 0.56743 0.0
H973 H 0.99553 0.82121 0.5214 0.0
H974 H 0.98072 0.79887 0.54466 0.0
H975 H 0.99428 0.85785 0.52019 0.0
H976 H 0.04738 0.81315 0.52435 0.0
H977 H 0.0727 0.79343 0.54064 0.0
H978 H 0.10027 0.84586 0.56468 0.0
H979 H 0.07496 0.86589 0.54874 0.0
C980 C 0.04277 0.9068 0.45585 0.0
C981 C 0.05119 0.92455 0.46307 0.0
C982 C 0.03857 0.89153 0.46861 0.0
C983 C 0.04288 0.89366 0.48876 0.0
C984 C 0.05215 0.9109 0.49591 0.0
C985 C 0.05615 0.92628 0.48321 0.0
C986 C 0.03602 0.87867 0.5026 0.0
C987 C 0.04983 0.86787 0.51317 0.0
C988 C 0.0158 0.87487 0.50505 0.0
C989 C 0.00058 0.88607 0.49444 0.0
C990 C -0.00021 0.90657 0.49661 0.0
C991 C 0.98566 0.91705 0.48624 0.0
C992 C 0.97213 0.90716 0.47377 0.0
C993 C 0.97267 0.88677 0.47171 0.0
C994 C 0.9868 0.87622 0.48203 0.0
C995 C 0.01469 0.82116 0.57545 0.0
C996 C 0.99918 0.80848 0.56941 0.0
C997 C 0.02285 0.83434 0.5622 0.0
C998 C 0.01603 0.83461 0.54257 0.0
C999 C 0.00097 0.82143 0.53647 0.0
C1000 C 0.99252 0.80864 0.54977 0.0
C1001 C 0.02357 0.84935 0.5286 0.0
C1002 C 0.00984 0.86033 0.51801 0.0
C1003 C 0.04388 0.85299 0.52593 0.0
C1004 C 0.05915 0.841 0.53551 0.0
C1005 C 0.05875 0.82046 0.53324 0.0
C1006 C 0.07312 0.80923 0.54238 0.0
C1007 C 0.08805 0.81838 0.55373 0.0
C1008 C 0.08868 0.83879 0.55591 0.0
C1009 C 0.07434 0.85009 0.54681 0.0
H1010 H 0.09916 0.80966 0.5608 0.0
H1011 H 0.9612 0.9153 0.46574 0.0
H1012 H 0.2002 0.72957 0.7119 0.0
H1013 H 0.17223 0.73435 0.68954 0.0
H1014 H 0.13364 0.73692 0.73891 0.0
H1015 H 0.16137 0.73141 0.76127 0.0
H1016 H 0.11766 0.71493 0.70992 0.0
H1017 H 0.14897 0.77859 0.71564 0.0
H1018 H 0.17656 0.80239 0.71417 0.0
H1019 H 0.1829 0.78917 0.65278 0.0
H1020 H 0.1555 0.76508 0.65395 0.0
H1021 H 0.03498 0.75916 0.66649 0.0
H1022 H 0.06414 0.75264 0.68653 0.0
H1023 H 0.09852 0.74796 0.63424 0.0
H1024 H 0.06938 0.75461 0.61401 0.0
H1025 H 0.11731 0.76997 0.66318 0.0
H1026 H 0.08484 0.70722 0.65739 0.0
H1027 H 0.05702 0.68374 0.65911 0.0
H1028 H 0.05266 0.69555 0.72097 0.0
H1029 H 0.08029 0.71933 0.71957 0.0
C1030 C 0.18573 0.73097 0.71798 0.0
C1031 C 0.18303 0.73022 0.73838 0.0
C1032 C 0.16978 0.73388 0.7052 0.0
C1033 C 0.15087 0.73625 0.71257 0.0
C1034 C 0.14811 0.73521 0.7329 0.0
C1035 C 0.16401 0.73225 0.74567 0.0
C1036 C 0.13391 0.73978 0.69918 0.0
C1037 C 0.11751 0.72709 0.69986 0.0
C1038 C 0.1339 0.75536 0.68569 0.0
C1039 C 0.15032 0.76989 0.68494 0.0
C1040 C 0.15635 0.78065 0.70186 0.0
C1041 C 0.17193 0.79421 0.70108 0.0
C1042 C 0.18151 0.79725 0.68341 0.0
C1043 C 0.17548 0.78678 0.66647 0.0
C1044 C 0.15992 0.77318 0.66718 0.0
C1045 C 0.04873 0.75676 0.65921 0.0
C1046 C 0.04983 0.75733 0.63863 0.0
C1047 C 0.06538 0.75296 0.6707 0.0
C1048 C 0.08345 0.74959 0.66186 0.0
C1049 C 0.0847 0.75046 0.64135 0.0
C1050 C 0.06802 0.75421 0.62982 0.0
C1051 C 0.10101 0.74524 0.6741 0.0
C1052 C 0.11753 0.75776 0.67318 0.0
C1053 C 0.10111 0.72954 0.68743 0.0
C1054 C 0.08452 0.71519 0.68833 0.0
C1055 C 0.07785 0.70493 0.67133 0.0
C1056 C 0.06213 0.69154 0.67225 0.0
C1057 C 0.05304 0.68819 0.69013 0.0
C1058 C 0.05969 0.69818 0.70713 0.0
C1059 C 0.0754 0.7116 0.70629 0.0
H1060 H 0.04088 0.67781 0.69081 0.0
H1061 H 0.19357 0.80776 0.68283 0.0
H1062 H 0.98374 0.56984 0.50191 0.0
H1063 H 0.98954 0.59796 0.52433 0.0
H1064 H 0.92782 0.61069 0.52179 0.0
H1065 H 0.922 0.58294 0.49918 0.0
H1066 H 0.95117 0.64269 0.51467 0.0
H1067 H 0.94783 0.5908 0.56206 0.0
H1068 H 0.95771 0.55959 0.57671 0.0
H1069 H 0.01629 0.58249 0.58612 0.0
H1070 H 0.00682 0.61377 0.57126 0.0
H1071 H 0.93713 0.71241 0.58693 0.0
H1072 H 0.93639 0.68032 0.57071 0.0
H1073 H 0.99918 0.67673 0.57809 0.0
H1074 H 6e-05 0.70896 0.59472 0.0
H1075 H 0.97928 0.64023 0.58238 0.0
H1076 H 0.98297 0.69212 0.53628 0.0
H1077 H 0.97378 0.72348 0.52149 0.0
H1078 H 0.91576 0.7005 0.5088 0.0
H1079 H 0.92452 0.66909 0.52381 0.0
C1080 C 0.97144 0.57865 0.50618 0.0
C1081 C 0.95242 0.57425 0.49878 0.0
C1082 C 0.97474 0.59457 0.51909 0.0
C1083 C 0.95909 0.6063 0.52476 0.0
C1084 C 0.94008 0.60176 0.51761 0.0
C1085 C 0.93676 0.58584 0.5048 0.0
C1086 C 0.96249 0.62402 0.53725 0.0
C1087 C 0.95713 0.64211 0.52954 0.0
C1088 C 0.97099 0.62331 0.55636 0.0
C1089 C 0.97667 0.60454 0.56535 0.0
C1090 C 0.96286 0.58912 0.56709 0.0
C1091 C 0.96838 0.57143 0.57546 0.0
C1092 C 0.98763 0.56904 0.58228 0.0
C1093 C 0.00139 0.58435 0.5808 0.0
C1094 C 0.99595 0.60207 0.57242 0.0
C1095 C 0.95078 0.7047 0.5854 0.0
C1096 C 0.9687 0.71334 0.5918 0.0
C1097 C 0.95031 0.68635 0.57614 0.0
C1098 C 0.96777 0.67639 0.57286 0.0
C1099 C 0.98557 0.68428 0.58042 0.0
C1100 C 0.98604 0.70268 0.58988 0.0
C1101 C 0.96736 0.65873 0.55995 0.0
C1102 C 0.97342 0.64076 0.56747 0.0
C1103 C 0.95965 0.6595 0.54054 0.0
C1104 C 0.95437 0.67831 0.53131 0.0
C1105 C 0.96821 0.6938 0.53046 0.0
C1106 C 0.96308 0.71158 0.52202 0.0
C1107 C 0.94419 0.71399 0.51424 0.0
C1108 C 0.93039 0.69861 0.51485 0.0
C1109 C 0.93543 0.68081 0.5233 0.0
H1110 H 0.94024 0.72777 0.50772 0.0
H1111 H 0.99188 0.55533 0.58876 0.0
H1112 H 0.77471 0.79463 0.20142 0.0
H1113 H 0.79336 0.82555 0.20108 0.0
H1114 H 0.74361 0.85592 0.22402 0.0
H1115 H 0.72452 0.82534 0.22331 0.0
H1116 H 0.75952 0.87696 0.19678 0.0
H1117 H 0.78421 0.84258 0.25325 0.0
H1118 H 0.79916 0.81497 0.27061 0.0
H1119 H 0.85061 0.82047 0.23562 0.0
H1120 H 0.83585 0.84798 0.21788 0.0
H1121 H 0.79972 0.95842 0.24923 0.0
H1122 H 0.78473 0.92747 0.23777 0.0
H1123 H 0.83743 0.91344 0.20696 0.0
H1124 H 0.85257 0.9448 0.21825 0.0
H1125 H 0.82339 0.88361 0.23267 0.0
H1126 H 0.79935 0.92224 0.18006 0.0
H1127 H 0.78386 0.95077 0.16484 0.0
H1128 H 0.73041 0.9381 0.19482 0.0
H1129 H 0.74566 0.90965 0.21046 0.0
C1130 C 0.76763 0.80792 0.20616 0.0
C1131 C 0.7481 0.80741 0.2125 0.0
C1132 C 0.77841 0.82558 0.20615 0.0
C1133 C 0.77001 0.84307 0.21276 0.0
C1134 C 0.75046 0.84264 0.21888 0.0
C1135 C 0.73963 0.82505 0.21871 0.0
C1136 C 0.78149 0.86185 0.21358 0.0
C1137 C 0.77344 0.87841 0.20472 0.0
C1138 C 0.79995 0.86369 0.22344 0.0
C1139 C 0.80883 0.84717 0.23408 0.0
C1140 C 0.79865 0.8378 0.24915 0.0
C1141 C 0.8071 0.82218 0.25908 0.0
C1142 C 0.82579 0.81592 0.25418 0.0
C1143 C 0.83611 0.82531 0.23937 0.0
C1144 C 0.82771 0.84091 0.22938 0.0
C1145 C 0.80806 0.9489 0.23978 0.0
C1146 C 0.82734 0.954 0.23467 0.0
C1147 C 0.79943 0.93125 0.23318 0.0
C1148 C 0.80994 0.91821 0.22147 0.0
C1149 C 0.82907 0.92337 0.21595 0.0
C1150 C 0.83765 0.94129 0.22231 0.0
C1151 C 0.80115 0.89871 0.21631 0.0
C1152 C 0.80967 0.88203 0.22439 0.0
C1153 C 0.783 0.89681 0.20598 0.0
C1154 C 0.77371 0.91386 0.19653 0.0
C1155 C 0.78434 0.92562 0.18353 0.0
C1156 C 0.77559 0.94176 0.1748 0.0
C1157 C 0.75617 0.94626 0.17888 0.0
C1158 C 0.74545 0.93459 0.19167 0.0
C1159 C 0.75413 0.91844 0.20045 0.0
H1160 H 0.74942 0.95877 0.17211 0.0
H1161 H 0.83231 0.80384 0.26188 0.0
H1162 H 0.72089 0.17661 0.24241 0.0
H1163 H 0.74302 0.149 0.23941 0.0
H1164 H 0.79221 0.18704 0.25551 0.0
H1165 H 0.77004 0.21469 0.25882 0.0
H1166 H 0.77407 0.13954 0.21839 0.0
H1167 H 0.82379 0.16172 0.28464 0.0
H1168 H 0.82276 0.18214 0.31485 0.0
H1169 H 0.76033 0.17327 0.31695 0.0
H1170 H 0.76104 0.15257 0.28693 0.0
H1171 H 0.84744 0.06552 0.22864 0.0
H1172 H 0.83237 0.09778 0.22543 0.0
H1173 H 0.79822 0.08682 0.2769 0.0
H1174 H 0.81327 0.0551 0.2804 0.0
H1175 H 0.81224 0.1229 0.27842 0.0
H1176 H 0.77876 0.08092 0.22987 0.0
H1177 H 0.7769 0.05887 0.20079 0.0
H1178 H 0.80191 0.10418 0.16551 0.0
H1179 H 0.80412 0.12642 0.19447 0.0
C1180 C 0.73646 0.17916 0.24499 0.0
C1181 C 0.74372 0.19777 0.25101 0.0
C1182 C 0.7491 0.16337 0.24326 0.0
C1183 C 0.76925 0.16588 0.24748 0.0
C1184 C 0.77668 0.18468 0.25251 0.0
C1185 C 0.76401 0.20044 0.25442 0.0
C1186 C 0.78208 0.14852 0.248 0.0
C1187 C 0.78257 0.13599 0.23145 0.0
C1188 C 0.79304 0.14376 0.26509 0.0
C1189 C 0.79246 0.1558 0.28341 0.0
C1190 C 0.80986 0.16407 0.2916 0.0
C1191 C 0.80933 0.17569 0.30868 0.0
C1192 C 0.79148 0.17906 0.31777 0.0
C1193 C 0.77413 0.17071 0.30986 0.0
C1194 C 0.77459 0.15903 0.29281 0.0
C1195 C 0.83678 0.07006 0.2393 0.0
C1196 C 0.83156 0.05767 0.25474 0.0
C1197 C 0.82815 0.08847 0.23742 0.0
C1198 C 0.81409 0.0947 0.25089 0.0
C1199 C 0.8091 0.08242 0.26639 0.0
C1200 C 0.81769 0.06418 0.2683 0.0
C1201 C 0.80403 0.11373 0.2489 0.0
C1202 C 0.80408 0.12662 0.2652 0.0
C1203 C 0.7932 0.11856 0.23176 0.0
C1204 C 0.79182 0.10523 0.21436 0.0
C1205 C 0.78399 0.08612 0.21594 0.0
C1206 C 0.78285 0.0736 0.19948 0.0
C1207 C 0.78934 0.0801 0.18133 0.0
C1208 C 0.79693 0.09915 0.17959 0.0
C1209 C 0.79812 0.11172 0.19601 0.0
H1210 H 0.78845 0.07039 0.1686 0.0
H1211 H 0.7911 0.18811 0.33095 0.0
H1212 H 0.39716 0.02246 0.94981 0.0
H1213 H 0.37113 0.99819 0.95508 0.0
H1214 H 0.37873 0.00603 0.01779 0.0
H1215 H 0.40548 0.02958 0.01264 0.0
H1216 H 0.37641 0.96904 0.00931 0.0
H1217 H 0.33825 0.02405 0.99255 0.0
H1218 H 0.32788 0.05233 0.97308 0.0
H1219 H 0.31386 0.01407 0.9239 0.0
H1220 H 0.3244 0.98557 0.94298 0.0
H1221 H 0.27093 0.92179 0.00465 0.0
H1222 H 0.29213 0.95122 0.00362 0.0
H1223 H 0.33964 0.91608 0.98287 0.0
H1224 H 0.31886 0.88675 0.98419 0.0
H1225 H 0.31154 0.96958 0.97499 0.0
H1226 H 0.3822 0.93164 0.00302 0.0
H1227 H 0.39135 0.90475 0.02497 0.0
H1228 H 0.33807 0.91195 0.05663 0.0
H1229 H 0.32873 0.93906 0.03506 0.0
C1230 C 0.39338 0.01895 0.96473 0.0
C1231 C 0.40346 0.02796 0.9808 0.0
C1232 C 0.37829 0.00526 0.96772 0.0
C1233 C 0.37277 0.00047 0.98683 0.0
C1234 C 0.38267 0.00956 0.0029 0.0
C1235 C 0.39786 0.02316 -7e-05 0.0
C1236 C 0.35744 0.98516 0.99002 0.0
C1237 C 0.3622 0.96924 0.00189 0.0
C1238 C 0.3387 0.98559 0.9807 0.0
C1239 C 0.33225 0.00268 0.96917 0.0
C1240 C 0.33308 0.02167 0.97754 0.0
C1241 C 0.32715 0.03775 0.96658 0.0
C1242 C 0.32025 0.035 0.94726 0.0
C1243 C 0.31922 0.01617 0.93887 0.0
C1244 C 0.32515 5e-05 0.94976 0.0
C1245 C 0.28588 0.92037 -0.00019 0.0
C1246 C 0.29326 0.90189 0.9947 0.0
C1247 C 0.29795 0.93719 0.9992 0.0
C1248 C 0.31756 0.93577 0.9935 0.0
C1249 C 0.32469 0.91746 0.98773 0.0
C1250 C 0.31274 0.9007 0.98844 0.0
C1251 C 0.33082 0.95327 0.99376 0.0
C1252 C 0.32569 0.96953 0.98256 0.0
C1253 C 0.34907 0.95341 0.00407 0.0
C1254 C 0.35471 0.93729 0.01731 0.0
C1255 C 0.37249 0.92755 0.01473 0.0
C1256 C 0.3777 0.91226 0.02709 0.0
C1257 C 0.36527 0.90661 0.04215 0.0
C1258 C 0.34765 0.9163 0.04492 0.0
C1259 C 0.34238 0.93161 0.03261 0.0
H1260 H 0.36933 0.89475 0.05169 0.0
H1261 H 0.31567 0.04746 0.93879 0.0
H1262 H 0.30524 0.37556 0.31162 0.0
H1263 H 0.2787 0.39746 0.30216 0.0
H1264 H 0.23652 0.3502 0.30867 0.0
H1265 H 0.26296 0.32819 0.31785 0.0
H1266 H 0.23114 0.37035 0.27417 0.0
H1267 H 0.24101 0.38491 0.34337 0.0
H1268 H 0.2605 0.39473 0.37293 0.0
H1269 H 0.27509 0.44984 0.34679 0.0
H1270 H 0.25589 0.44022 0.31695 0.0
H1271 H 0.1407 0.41709 0.27984 0.0
H1272 H 0.17033 0.39858 0.28583 0.0
H1273 H 0.20543 0.45157 0.2816 0.0
H1274 H 0.17566 0.4704 0.27591 0.0
H1275 H 0.21668 0.4306 0.31262 0.0
H1276 H 0.20474 0.41752 0.2445 0.0
H1277 H 0.18543 0.40797 0.21477 0.0
H1278 H 0.17524 0.35061 0.23798 0.0
H1279 H 0.19427 0.3599 0.268 0.0
C1280 C 0.2903 0.36987 0.31101 0.0
C1281 C 0.28613 0.35022 0.31557 0.0
C1282 C 0.27518 0.38239 0.3057 0.0
C1283 C 0.25567 0.37544 0.30482 0.0
C1284 C 0.25149 0.35582 0.30929 0.0
C1285 C 0.26657 0.34334 0.3147 0.0
C1286 C 0.23954 0.38854 0.29918 0.0
C1287 C 0.22784 0.38344 0.28264 0.0
C1288 C 0.23572 0.40594 0.3099 0.0
C1289 C 0.2472 0.41175 0.32785 0.0
C1290 C 0.24851 0.39905 0.34386 0.0
C1291 C 0.25948 0.4046 0.36068 0.0
C1292 C 0.26908 0.42287 0.36171 0.0
C1293 C 0.26768 0.43567 0.34595 0.0
C1294 C 0.25675 0.43019 0.32909 0.0
C1295 C 0.15468 0.42484 0.28009 0.0
C1296 C 0.1558 0.44523 0.27736 0.0
C1297 C 0.17165 0.41421 0.28341 0.0
C1298 C 0.19011 0.42366 0.28387 0.0
C1299 C 0.19132 0.44401 0.28122 0.0
C1300 C 0.1743 0.4547 0.27794 0.0
C1301 C 0.208 0.41224 0.28777 0.0
C1302 C 0.22006 0.41765 0.30397 0.0
C1303 C 0.21222 0.39517 0.27666 0.0
C1304 C 0.20082 0.38947 0.25858 0.0
C1305 C 0.19827 0.40291 0.24334 0.0
C1306 C 0.18739 0.39754 0.22642 0.0
C1307 C 0.17908 0.3787 0.2245 0.0
C1308 C 0.18168 0.36519 0.23949 0.0
C1309 C 0.19253 0.3705 0.25645 0.0
H1310 H 0.17066 0.37457 0.21139 0.0
H1311 H 0.27756 0.42714 0.37474 0.0
H1312 H 0.07149 0.01031 0.44809 0.0
H1313 H 0.09942 0.03245 0.45571 0.0
H1314 H 0.13895 0.98426 0.4485 0.0
H1315 H 0.11098 0.96203 0.44167 0.0
H1316 H 0.14955 0.00413 0.47936 0.0
H1317 H 0.13201 0.02119 0.41309 0.0
H1318 H 0.10987 0.03172 0.38637 0.0
H1319 H 0.10009 0.08586 0.41739 0.0
H1320 H 0.12199 0.07552 0.44444 0.0
H1321 H 0.23839 0.05271 0.4551 0.0
H1322 H 0.2068 0.03532 0.45243 0.0
H1323 H 0.17937 0.08246 0.48385 0.0
H1324 H 0.21123 0.0999 0.48708 0.0
H1325 H 0.16095 0.06625 0.44406 0.0
H1326 H 0.18205 0.0486 0.50931 0.0
H1327 H 0.20596 0.03709 0.53398 0.0
H1328 H 0.21084 0.98267 0.50201 0.0
H1329 H 0.18717 0.994 0.47697 0.0
C1330 C 0.08619 0.00456 0.448 0.0
C1331 C 0.08918 0.98454 0.44426 0.0
C1332 C 0.10213 0.01719 0.45231 0.0
C1333 C 0.12134 0.01008 0.45248 0.0
C1334 C 0.12428 0.99008 0.44854 0.0
C1335 C 0.10834 0.97741 0.44458 0.0
C1336 C 0.13844 0.0233 0.45703 0.0
C1337 C 0.15204 0.01764 0.47152 0.0
C1338 C 0.14154 0.04121 0.44717 0.0
C1339 C 0.12846 0.04749 0.43088 0.0
C1340 C 0.12502 0.03528 0.41428 0.0
C1341 C 0.11254 0.04122 0.39907 0.0
C1342 C 0.10353 0.05942 0.40021 0.0
C1343 C 0.10705 0.07174 0.41655 0.0
C1344 C 0.11951 0.06586 0.43181 0.0
C1345 C 0.22566 0.05942 0.46147 0.0
C1346 C 0.22725 0.07768 0.4713 0.0
C1347 C 0.20766 0.04944 0.45994 0.0
C1348 C 0.19088 0.05765 0.46795 0.0
C1349 C 0.19226 0.07596 0.4776 0.0
C1350 C 0.21041 0.08582 0.47949 0.0
C1351 C 0.17199 0.04681 0.46606 0.0
C1352 C 0.15815 0.05289 0.45205 0.0
C1353 C 0.16882 0.02913 0.47609 0.0
C1354 C 0.18297 0.02223 0.49118 0.0
C1355 C 0.18836 0.03426 0.50744 0.0
C1356 C 0.20184 0.02775 0.52151 0.0
C1357 C 0.20995 0.00918 0.51954 0.0
C1358 C 0.20456 0.99706 0.50351 0.0
C1359 C 0.1911 0.00351 0.48939 0.0
H1360 H 0.22038 0.00416 0.53045 0.0
H1361 H 0.09386 0.06399 0.38842 0.0
H1362 H 0.74093 0.18052 0.7644 0.0
H1363 H 0.71984 0.15174 0.76961 0.0
H1364 H 0.71771 0.13986 0.70715 0.0
H1365 H 0.73851 0.16885 0.70187 0.0
H1366 H 0.68265 0.13439 0.72172 0.0
H1367 H 0.7474 0.11381 0.73874 0.0
H1368 H 0.77959 0.11563 0.75589 0.0
H1369 H 0.75138 0.11102 0.81148 0.0
H1370 H 0.71898 0.10946 0.79467 0.0
H1371 H 0.6509 0.03408 0.72648 0.0
H1372 H 0.66957 0.06443 0.72108 0.0
H1373 H 0.6657 0.07973 0.78255 0.0
H1374 H 0.64699 0.04945 0.78811 0.0
H1375 H 0.70347 0.08341 0.76848 0.0
H1376 H 0.63835 0.10323 0.75017 0.0
H1377 H 0.60675 0.10066 0.73199 0.0
H1378 H 0.63669 0.10543 0.67735 0.0
H1379 H 0.66851 0.10776 0.6952 0.0
C1380 C 0.73599 0.17173 0.7518 0.0
C1381 C 0.74141 0.17687 0.73274 0.0
C1382 C 0.72397 0.15528 0.75478 0.0
C1383 C 0.71742 0.14345 0.73879 0.0
C1384 C 0.72256 0.14876 0.71971 0.0
C1385 C 0.73443 0.16532 0.71671 0.0
C1386 C 0.70535 0.12547 0.74197 0.0
C1387 C 0.68733 0.12313 0.73176 0.0
C1388 C 0.71128 0.11089 0.7553 0.0
C1389 C 0.73075 0.11171 0.76545 0.0
C1390 C 0.74805 0.11333 0.75463 0.0
C1391 C 0.76633 0.11429 0.76429 0.0
C1392 C 0.76753 0.11349 0.78476 0.0
C1393 C 0.75043 0.11167 0.79562 0.0
C1394 C 0.73211 0.11073 0.78604 0.0
C1395 C 0.65392 0.04395 0.73884 0.0
C1396 C 0.64747 0.03934 0.75773 0.0
C1397 C 0.66453 0.06131 0.7357 0.0
C1398 C 0.66893 0.07435 0.7514 0.0
C1399 C 0.66244 0.06985 0.77025 0.0
C1400 C 0.6517 0.05257 0.77337 0.0
C1401 C 0.68081 0.09241 0.74829 0.0
C1402 C 0.6988 0.09471 0.75848 0.0
C1403 C 0.67496 0.10682 0.73478 0.0
C1404 C 0.65583 0.10547 0.72402 0.0
C1405 C 0.63821 0.10356 0.73427 0.0
C1406 C 0.62026 0.10218 0.72403 0.0
C1407 C 0.61971 0.10283 0.70353 0.0
C1408 C 0.63713 0.10491 0.69323 0.0
C1409 C 0.65513 0.10627 0.70341 0.0
H1410 H 0.60579 0.10177 0.69563 0.0
H1411 H 0.7817 0.11424 0.79222 0.0
H1412 H 0.423 0.96679 0.58733 0.0
H1413 H 0.3998 0.99323 0.58153 0.0
H1414 H 0.4148 0.99326 0.5203 0.0
H1415 H 0.43813 0.96711 0.52602 0.0
H1416 H 0.41535 0.03044 0.53725 0.0
H1417 H 0.37267 0.9725 0.53446 0.0
H1418 H 0.35775 0.94246 0.54783 0.0
H1419 H 0.33486 0.97588 0.5959 0.0
H1420 H 0.34989 0.00609 0.58293 0.0
H1421 H 0.34151 0.07075 0.4804 0.0
H1422 H 0.36532 0.05086 0.49755 0.0
H1423 H 0.3369 0.06256 0.55243 0.0
H1424 H 0.31267 0.08265 0.53517 0.0
H1425 H 0.34357 0.02323 0.54627 0.0
H1426 H 0.38135 0.08199 0.54609 0.0
H1427 H 0.39584 0.11221 0.53272 0.0
H1428 H 0.42799 0.07811 0.49121 0.0
H1429 H 0.41348 0.04767 0.50412 0.0
C1430 C 0.42129 0.97244 0.57263 0.0
C1431 C 0.43233 0.96486 0.5571 0.0
C1432 C 0.408 0.98746 0.56934 0.0
C1433 C 0.4056 0.99518 0.55049 0.0
C1434 C 0.41648 0.98752 0.53496 0.0
C1435 C 0.42965 0.97245 0.53821 0.0
C1436 C 0.39199 0.01142 0.54677 0.0
C1437 C 0.39965 0.02887 0.53915 0.0
C1438 C 0.37162 0.00965 0.55009 0.0
C1439 C 0.36262 0.99149 0.55787 0.0
C1440 C 0.36462 0.97341 0.54798 0.0
C1441 C 0.35611 0.95636 0.55546 0.0
C1442 C 0.34542 0.95725 0.57274 0.0
C1443 C 0.34318 0.9752 0.58254 0.0
C1444 C 0.35169 0.99229 0.57513 0.0
C1445 C 0.34038 0.06931 0.49615 0.0
C1446 C 0.32516 0.07823 0.50642 0.0
C1447 C 0.3541 0.05802 0.50597 0.0
C1448 C 0.353 0.05538 0.52629 0.0
C1449 C 0.33804 0.06451 0.53674 0.0
C1450 C 0.32429 0.07602 0.52689 0.0
C1451 C 0.36686 0.04197 0.536 0.0
C1452 C 0.35931 0.02504 0.54479 0.0
C1453 C 0.38737 0.04426 0.53387 0.0
C1454 C 0.39624 0.06252 0.52604 0.0
C1455 C 0.39141 0.08092 0.53402 0.0
C1456 C 0.39965 0.0981 0.52654 0.0
C1457 C 0.41282 0.09708 0.51112 0.0
C1458 C 0.4178 0.07887 0.50317 0.0
C1459 C 0.40959 0.06165 0.51059 0.0
H1460 H 0.41918 0.11039 0.50534 0.0
H1461 H 0.33884 0.94404 0.57851 0.0
H1462 H 0.57069 0.50563 0.50293 0.0
H1463 H 0.59734 0.48231 0.49934 0.0
H1464 H 0.61137 0.48849 0.56119 0.0
H1465 H 0.58474 0.51186 0.56486 0.0
H1466 H 0.64452 0.49031 0.53709 0.0
H1467 H 0.58729 0.44906 0.54584 0.0
H1468 H 0.55364 0.43696 0.53827 0.0
H1469 H 0.57046 0.42096 0.47982 0.0
H1470 H 0.60417 0.43324 0.48695 0.0
H1471 H 0.70663 0.40986 0.54992 0.0
H1472 H 0.67991 0.43301 0.55218 0.0
H1473 H 0.66251 0.41933 0.49218 0.0
H1474 H 0.68904 0.39574 0.48995 0.0
H1475 H 0.63112 0.42183 0.5142 0.0
H1476 H 0.688 0.46204 0.50464 0.0
H1477 H 0.72174 0.47455 0.51099 0.0
H1478 H 0.706 0.49333 0.56896 0.0
H1479 H 0.67222 0.48067 0.56307 0.0
C1480 C 0.57952 0.50208 0.51574 0.0
C1481 C 0.5756 0.51053 0.53419 0.0
C1482 C 0.59467 0.48869 0.51369 0.0
C1483 C 0.60627 0.48359 0.53002 0.0
C1484 C 0.60257 0.49221 0.5484 0.0
C1485 C 0.58729 0.50544 0.55051 0.0
C1486 C 0.6222 0.46918 0.52795 0.0
C1487 C 0.64159 0.47527 0.53232 0.0
C1488 C 0.61842 0.44973 0.52115 0.0
C1489 C 0.59819 0.44226 0.51687 0.0
C1490 C 0.58377 0.44312 0.53132 0.0
C1491 C 0.56469 0.4362 0.52712 0.0
C1492 C 0.5599 0.42825 0.50856 0.0
C1493 C 0.57419 0.42715 0.49418 0.0
C1494 C 0.59328 0.43408 0.4983 0.0
C1495 C 0.69712 0.41172 0.53719 0.0
C1496 C 0.70006 0.40099 0.51971 0.0
C1497 C 0.68188 0.42507 0.53848 0.0
C1498 C 0.66936 0.42821 0.52224 0.0
C1499 C 0.672 0.41723 0.50489 0.0
C1500 C 0.6872 0.40377 0.50362 0.0
C1501 C 0.65352 0.44289 0.52347 0.0
C1502 C 0.63412 0.43688 0.51892 0.0
C1503 C 0.65733 0.46249 0.52991 0.0
C1504 C 0.67761 0.47023 0.53348 0.0
C1505 C 0.69177 0.46871 0.5188 0.0
C1506 C 0.7109 0.47584 0.52231 0.0
C1507 C 0.71602 0.48468 0.54038 0.0
C1508 C 0.70201 0.48645 0.55497 0.0
C1509 C 0.68287 0.47932 0.55155 0.0
H1510 H 0.73084 0.49019 0.54307 0.0
H1511 H 0.54512 0.42289 0.50534 0.0
H1512 H 0.7519 0.25355 0.29593 0.0
H1513 H 0.75456 0.26978 0.32815 0.0
H1514 H 0.69158 0.26825 0.33259 0.0
H1515 H 0.68873 0.25149 0.3006 0.0
H1516 H 0.70953 0.30465 0.34487 0.0
H1517 H 0.71526 0.23572 0.35653 0.0
H1518 H 0.72867 0.20284 0.35087 0.0
H1519 H 0.78627 0.2244 0.3676 0.0
H1520 H 0.77325 0.25751 0.37308 0.0
H1521 H 0.71424 0.32971 0.44803 0.0
H1522 H 0.70588 0.31427 0.41605 0.0
H1523 H 0.76701 0.30212 0.40735 0.0
H1524 H 0.7753 0.31684 0.43922 0.0
H1525 H 0.74635 0.27123 0.39779 0.0
H1526 H 0.74211 0.34016 0.38368 0.0
H1527 H 0.72994 0.37376 0.38787 0.0
H1528 H 0.67114 0.35314 0.37488 0.0
H1529 H 0.68295 0.31936 0.37085 0.0
C1530 C 0.73859 0.25655 0.30377 0.0
C1531 C 0.72011 0.25106 0.29569 0.0
C1532 C 0.74014 0.26594 0.32213 0.0
C1533 C 0.72326 0.27006 0.33278 0.0
C1534 C 0.70476 0.26523 0.32455 0.0
C1535 C 0.70319 0.25571 0.30622 0.0
C1536 C 0.72509 0.27871 0.35286 0.0
C1537 C 0.71732 0.29727 0.35658 0.0
C1538 C 0.73547 0.26913 0.36797 0.0
C1539 C 0.74329 0.24914 0.36508 0.0
C1540 C 0.73081 0.23349 0.35889 0.0
C1541 C 0.73833 0.2148 0.35572 0.0
C1542 C 0.75831 0.21154 0.35884 0.0
C1543 C 0.77079 0.22695 0.36519 0.0
C1544 C 0.76334 0.24568 0.36835 0.0
C1545 C 0.72586 0.32378 0.43924 0.0
C1546 C 0.74541 0.32444 0.44622 0.0
C1547 C 0.72109 0.31502 0.42094 0.0
C1548 C 0.73584 0.30709 0.40921 0.0
C1549 C 0.75534 0.30798 0.41614 0.0
C1550 C 0.76006 0.31648 0.43441 0.0
C1551 C 0.73125 0.29753 0.38982 0.0
C1552 C 0.73843 0.27866 0.38621 0.0
C1553 C 0.72049 0.30693 0.37478 0.0
C1554 C 0.71338 0.32722 0.3772 0.0
C1555 C 0.72656 0.34277 0.38187 0.0
C1556 C 0.71973 0.36185 0.38419 0.0
C1557 C 0.69977 0.36557 0.38171 0.0
C1558 C 0.68659 0.35023 0.37684 0.0
C1559 C 0.69335 0.33112 0.37453 0.0
H1560 H 0.69451 0.38035 0.3835 0.0
H1561 H 0.7641 0.19707 0.35638 0.0
H1562 H 0.44182 0.03525 0.92292 0.0
H1563 H 0.46558 0.02689 0.89791 0.0
H1564 H 0.51238 0.05163 0.93445 0.0
H1565 H 0.48897 0.05913 0.96009 0.0
H1566 H 0.51124 0.06161 0.89051 0.0
H1567 H 0.51087 0.00787 0.93666 0.0
H1568 H 0.49431 0.98259 0.95621 0.0
H1569 H 0.46923 0.95632 0.90352 0.0
H1570 H 0.48541 0.98165 0.88369 0.0
H1571 H 0.59113 0.01958 0.83886 0.0
H1572 H 0.56867 0.03298 0.86311 0.0
H1573 H 0.52391 0.99103 0.84351 0.0
H1574 H 0.54663 0.97699 0.82024 0.0
H1575 H 0.5247 0.99101 0.8802 0.0
H1576 H 0.52347 0.04267 0.83335 0.0
H1577 H 0.53725 0.0682 0.81211 0.0
H1578 H 0.56199 0.09863 0.86273 0.0
H1579 H 0.54856 0.07314 0.88426 0.0
C1580 C 0.45717 0.03879 0.92579 0.0
C1581 C 0.46344 0.04772 0.94367 0.0
C1582 C 0.47067 0.0342 0.91136 0.0
C1583 C 0.49065 0.0387 0.9144 0.0
C1584 C 0.49696 0.04822 0.93184 0.0
C1585 C 0.48351 0.05253 0.94643 0.0
C1586 C 0.50506 0.03223 0.89989 0.0
C1587 C 0.51445 0.04622 0.88832 0.0
C1588 C 0.50871 0.01213 0.89683 0.0
C1589 C 0.49918 0.99676 0.90872 0.0
C1590 C 0.50168 0.99681 0.92927 0.0
C1591 C 0.49239 0.98245 0.94039 0.0
C1592 C 0.48068 0.96789 0.93112 0.0
C1593 C 0.47828 0.96762 0.91069 0.0
C1594 C 0.48752 0.98196 0.8995 0.0
C1595 C 0.57644 0.01337 0.83971 0.0
C1596 C 0.57062 0.99719 0.82782 0.0
C1597 C 0.56356 0.02109 0.85347 0.0
C1598 C 0.54448 0.01313 0.85509 0.0
C1599 C 0.53857 0.99735 0.84271 0.0
C1600 C 0.55155 0.98936 0.82938 0.0
C1601 C 0.5309 0.02036 0.8703 0.0
C1602 C 0.52164 0.00646 0.88218 0.0
C1603 C 0.5271 0.04054 0.8733 0.0
C1604 C 0.53519 0.05588 0.86039 0.0
C1605 C 0.53198 0.05473 0.83994 0.0
C1606 C 0.5397 0.0692 0.82785 0.0
C1607 C 0.55054 0.08499 0.83606 0.0
C1608 C 0.55362 0.08637 0.85639 0.0
C1609 C 0.54595 0.07192 0.86854 0.0
H1610 H 0.55651 0.09619 0.82668 0.0
H1611 H 0.4735 0.95679 0.93976 0.0
H1612 H 0.34167 0.29473 0.36585 0.0
H1613 H 0.33698 0.26717 0.38793 0.0
H1614 H 0.27577 0.26331 0.37079 0.0
H1615 H 0.28051 0.29006 0.348 0.0
H1616 H 0.31487 0.25924 0.41907 0.0
H1617 H 0.26173 0.21576 0.36657 0.0
H1618 H 0.25402 0.21262 0.33108 0.0
H1619 H 0.31282 0.23096 0.3179 0.0
H1620 H 0.32095 0.23394 0.35329 0.0
H1621 H 0.27545 0.17538 0.46787 0.0
H1622 H 0.28003 0.206 0.45008 0.0
H1623 H 0.31341 0.17536 0.40644 0.0
H1624 H 0.30836 0.14475 0.4237 0.0
H1625 H 0.2885 0.1972 0.38899 0.0
H1626 H 0.33506 0.20686 0.44236 0.0
H1627 H 0.34602 0.20901 0.47707 0.0
H1628 H 0.30652 0.25621 0.48729 0.0
H1629 H 0.29513 0.25418 0.45268 0.0
C1630 C 0.32722 0.28798 0.36675 0.0
C1631 C 0.31153 0.29449 0.35499 0.0
C1632 C 0.32452 0.27238 0.37954 0.0
C1633 C 0.30609 0.26303 0.38079 0.0
C1634 C 0.29018 0.27015 0.36984 0.0
C1635 C 0.29289 0.2856 0.35695 0.0
C1636 C 0.30378 0.24505 0.39252 0.0
C1637 C 0.30906 0.24567 0.41255 0.0
C1638 C 0.29651 0.22727 0.3839 0.0
C1639 C 0.29186 0.22527 0.36257 0.0
C1640 C 0.27302 0.21905 0.35609 0.0
C1641 C 0.26858 0.21731 0.33599 0.0
C1642 C 0.2829 0.22165 0.32224 0.0
C1643 C 0.30172 0.22767 0.32856 0.0
C1644 C 0.30625 0.22941 0.34863 0.0
C1645 C 0.28385 0.17523 0.45454 0.0
C1646 C 0.29147 0.15764 0.44714 0.0
C1647 C 0.28653 0.19275 0.44443 0.0
C1648 C 0.29717 0.19302 0.42697 0.0
C1649 C 0.30506 0.17551 0.41981 0.0
C1650 C 0.30218 0.15801 0.42972 0.0
C1651 C 0.29959 0.21128 0.41564 0.0
C1652 C 0.29423 0.21075 0.39563 0.0
C1653 C 0.30725 0.22895 0.42419 0.0
C1654 C 0.31411 0.23023 0.44498 0.0
C1655 C 0.3286 0.2176 0.45204 0.0
C1656 C 0.33491 0.21882 0.47169 0.0
C1657 C 0.32693 0.23271 0.48439 0.0
C1658 C 0.31266 0.24545 0.47744 0.0
C1659 C 0.30629 0.24428 0.45781 0.0
H1660 H 0.33183 0.23362 0.4996 0.0
H1661 H 0.27943 0.22032 0.3067 0.0
H1662 H 0.52034 0.44172 0.89754 0.0
H1663 H 0.4963 0.44817 0.87152 0.0
H1664 H 0.51076 0.50998 0.87572 0.0
H1665 H 0.534 0.50379 0.90249 0.0
H1666 H 0.47328 0.50552 0.87424 0.0
H1667 H 0.5253 0.48065 0.83627 0.0
H1668 H 0.55091 0.45755 0.82664 0.0
H1669 H 0.50706 0.41245 0.81581 0.0
H1670 H 0.4812 0.4352 0.82565 0.0
H1671 H 0.42454 0.50064 0.76914 0.0
H1672 H 0.45382 0.49784 0.79035 0.0
H1673 H 0.41718 0.48355 0.8392 0.0
H1674 H 0.38802 0.4866 0.81837 0.0
H1675 H 0.46889 0.46818 0.81111 0.0
H1676 H 0.43557 0.50399 0.88069 0.0
H1677 H 0.41168 0.52941 0.88891 0.0
H1678 H 0.42179 0.55718 0.8338 0.0
H1679 H 0.44594 0.53211 0.82537 0.0
C1680 C 0.51834 0.45671 0.89301 0.0
C1681 C 0.52912 0.47223 0.90216 0.0
C1682 C 0.50477 0.46035 0.87792 0.0
C1683 C 0.5019 0.47954 0.87145 0.0
C1684 C 0.51278 0.49503 0.88039 0.0
C1685 C 0.52622 0.49144 0.8956 0.0
C1686 C 0.48676 0.48358 0.85612 0.0
C1687 C 0.47241 0.49741 0.86041 0.0
C1688 C 0.48582 0.47333 0.83785 0.0
C1689 C 0.50132 0.45961 0.83184 0.0
C1690 C 0.52113 0.46577 0.83197 0.0
C1691 C 0.53569 0.45274 0.82645 0.0
C1692 C 0.53062 0.43353 0.82065 0.0
C1693 C 0.51097 0.42733 0.82032 0.0
C1694 C 0.49635 0.44029 0.82584 0.0
C1695 C 0.42274 0.4969 0.7844 0.0
C1696 C 0.40392 0.494 0.79209 0.0
C1697 C 0.43948 0.49525 0.79647 0.0
C1698 C 0.43766 0.49077 0.81641 0.0
C1699 C 0.41892 0.4874 0.82395 0.0
C1700 C 0.40225 0.4891 0.81197 0.0
C1701 C 0.4552 0.48966 0.82955 0.0
C1702 C 0.46993 0.47639 0.82487 0.0
C1703 C 0.45679 0.50076 0.84728 0.0
C1704 C 0.44245 0.51606 0.85234 0.0
C1705 C 0.43277 0.51558 0.87037 0.0
C1706 C 0.41916 0.52991 0.87506 0.0
C1707 C 0.41518 0.54487 0.86186 0.0
C1708 C 0.42484 0.54556 0.84398 0.0
C1709 C 0.43847 0.53127 0.83923 0.0
H1710 H 0.40463 0.55594 0.86551 0.0
H1711 H 0.54191 0.42347 0.81639 0.0
H1712 H 0.72901 0.76519 0.15737 0.0
H1713 H 0.73231 0.74179 0.13016 0.0
H1714 H 0.73099 0.69396 0.1708 0.0
H1715 H 0.72826 0.71739 0.19822 0.0
H1716 H 0.75972 0.68958 0.14466 0.0
H1717 H 0.69132 0.703 0.14182 0.0
H1718 H 0.66201 0.72361 0.14078 0.0
H1719 H 0.68048 0.748 0.08628 0.0
H1720 H 0.71006 0.72774 0.08714 0.0
H1721 H 0.75183 0.61704 0.0685 0.0
H1722 H 0.74395 0.63722 0.0972 0.0
H1723 H 0.74538 0.68896 0.06164 0.0
H1724 H 0.75303 0.66891 0.03286 0.0
H1725 H 0.71478 0.68934 0.08643 0.0
H1726 H 0.7843 0.67759 0.09079 0.0
H1727 H 0.81368 0.65706 0.09198 0.0
H1728 H 0.79276 0.62939 0.14395 0.0
H1729 H 0.76312 0.64958 0.1429 0.0
C1730 C 0.72957 0.7497 0.16055 0.0
C1731 C 0.72843 0.74315 0.17997 0.0
C1732 C 0.73124 0.73633 0.14495 0.0
C1733 C 0.73166 0.71611 0.14842 0.0
C1734 C 0.7306 0.7095 0.16778 0.0
C1735 C 0.72891 0.72288 0.18341 0.0
C1736 C 0.73372 0.70196 0.13182 0.0
C1737 C 0.74968 0.68928 0.13209 0.0
C1738 C 0.72082 0.70181 0.11526 0.0
C1739 C 0.703 0.71396 0.11463 0.0
C1740 C 0.68921 0.71287 0.12969 0.0
C1741 C 0.67254 0.72447 0.12912 0.0
C1742 C 0.66941 0.73714 0.1135 0.0
C1743 C 0.68293 0.73819 0.09839 0.0
C1744 C 0.69964 0.72663 0.09889 0.0
C1745 C 0.75034 0.6327 0.06674 0.0
C1746 C 0.75319 0.64137 0.0484 0.0
C1747 C 0.7459 0.64422 0.08318 0.0
C1748 C 0.74432 0.66463 0.08161 0.0
C1749 C 0.74656 0.67324 0.0632 0.0
C1750 C 0.751 0.66175 0.04677 0.0
C1751 C 0.7409 0.67715 0.09919 0.0
C1752 C 0.72469 0.68953 0.0991 0.0
C1753 C 0.75354 0.67701 0.11593 0.0
C1754 C 0.7714 0.66493 0.11663 0.0
C1755 C 0.7859 0.66701 0.10238 0.0
C1756 C 0.8026 0.65546 0.10304 0.0
C1757 C 0.80506 0.64189 0.118 0.0
C1758 C 0.79083 0.63988 0.13235 0.0
C1759 C 0.77408 0.65138 0.13174 0.0
H1760 H 0.818 0.63295 0.11849 0.0
H1761 H 0.65649 0.74611 0.11308 0.0
H1762 H 0.98283 0.03707 0.0474 0.0
H1763 H 0.95891 0.03372 0.07344 0.0
H1764 H 0.00574 0.02371 0.1154 0.0
H1765 H 0.02977 0.02708 0.08939 0.0
H1766 H 0.97598 0.99821 0.12025 0.0
H1767 H 0.98266 0.0679 0.11361 0.0
H1768 H 0.98296 0.09907 0.09578 0.0
H1769 H 0.92268 0.08938 0.07823 0.0
H1770 H 0.92209 0.058 0.09573 0.0
H1771 H 0.92075 0.01057 0.20663 0.0
H1772 H 0.94471 0.01443 0.18072 0.0
H1773 H 0.89794 0.02429 0.13868 0.0
H1774 H 0.87385 0.02074 0.16459 0.0
H1775 H 0.92771 0.04995 0.13392 0.0
H1776 H 0.9211 0.9802 0.14042 0.0
H1777 H 0.92087 0.94892 0.15805 0.0
H1778 H 0.98109 0.95872 0.17579 0.0
H1779 H 0.9816 0.99021 0.15847 0.0
C1780 C 0.98807 0.03436 0.0622 0.0
C1781 C 0.00824 0.03244 0.06631 0.0
C1782 C 0.97436 0.03241 0.07709 0.0
C1783 C 0.98052 0.02869 0.09645 0.0
C1784 C 0.00063 0.02657 0.10057 0.0
C1785 C 0.01435 0.02845 0.08568 0.0
C1786 C 0.96599 0.02684 0.11237 0.0
C1787 C 0.96561 0.00965 0.12342 0.0
C1788 C 0.95213 0.04156 0.11623 0.0
C1789 C 0.95239 0.0605 0.10583 0.0
C1790 C 0.96951 0.07234 0.10583 0.0
C1791 C 0.96973 0.09006 0.0958 0.0
C1792 C 0.95287 0.09618 0.08584 0.0
C1793 C 0.93574 0.08461 0.08594 0.0
C1794 C 0.93545 0.06687 0.09592 0.0
C1795 C 0.91552 0.01355 0.19188 0.0
C1796 C 0.89534 0.01527 0.18769 0.0
C1797 C 0.92926 0.01568 0.17705 0.0
C1798 C 0.92314 0.01941 0.15767 0.0
C1799 C 0.90303 0.02138 0.1535 0.0
C1800 C 0.88926 0.01929 0.16834 0.0
C1801 C 0.93771 0.02132 0.1418 0.0
C1802 C 0.93809 0.03852 0.13075 0.0
C1803 C 0.95158 0.00662 0.13794 0.0
C1804 C 0.95133 0.98766 0.14831 0.0
C1805 C 0.93425 0.97576 0.14821 0.0
C1806 C 0.93407 0.95798 0.15812 0.0
C1807 C 0.95093 0.95186 0.16808 0.0
C1808 C 0.96803 0.96349 0.16809 0.0
C1809 C 0.96827 0.9813 0.15822 0.0
H1810 H 0.95077 0.93808 0.17574 0.0
H1811 H 0.95307 0.1099 0.07808 0.0
H1812 H 0.23435 0.74704 0.20304 0.0
H1813 H 0.22797 0.7688 0.17544 0.0
H1814 H 0.2881 0.76375 0.15784 0.0
H1815 H 0.29452 0.74192 0.18514 0.0
H1816 H 0.27632 0.80141 0.15689 0.0
H1817 H 0.25115 0.73767 0.13458 0.0
H1818 H 0.22999 0.70807 0.13655 0.0
H1819 H 0.17872 0.74363 0.13427 0.0
H1820 H 0.19961 0.77348 0.13255 0.0
H1821 H 0.28372 0.81875 0.05728 0.0
H1822 H 0.28146 0.80469 0.08969 0.0
H1823 H 0.22132 0.82262 0.09325 0.0
H1824 H 0.22344 0.83698 0.06039 0.0
H1825 H 0.22749 0.78328 0.10437 0.0
H1826 H 0.25331 0.84665 0.12089 0.0
H1827 H 0.27495 0.87579 0.1181 0.0
H1828 H 0.32524 0.84094 0.13094 0.0
H1829 H 0.30395 0.81151 0.13351 0.0
C1830 C 0.24618 0.75049 0.19321 0.0
C1831 C 0.26496 0.74276 0.19631 0.0
C1832 C 0.24251 0.76296 0.17749 0.0
C1833 C 0.25754 0.76784 0.16454 0.0
C1834 C 0.27632 0.76029 0.16773 0.0
C1835 C 0.27998 0.74785 0.18339 0.0
C1836 C 0.25386 0.78054 0.14741 0.0
C1837 C 0.26567 0.79743 0.14539 0.0
C1838 C 0.23948 0.77574 0.13274 0.0
C1839 C 0.22694 0.75781 0.13369 0.0
C1840 C 0.23537 0.73919 0.13467 0.0
C1841 C 0.22343 0.72236 0.13571 0.0
C1842 C 0.20303 0.72397 0.13561 0.0
C1843 C 0.19453 0.74241 0.1344 0.0
C1844 C 0.20641 0.75928 0.13338 0.0
C1845 C 0.26996 0.81982 0.06487 0.0
C1846 C 0.25373 0.829 0.05619 0.0
C1847 C 0.26875 0.81183 0.08349 0.0
C1848 C 0.2513 0.8128 0.09396 0.0
C1849 C 0.23495 0.82183 0.08541 0.0
C1850 C 0.2362 0.83004 0.0667 0.0
C1851 C 0.25043 0.80374 0.11358 0.0
C1852 C 0.2378 0.78754 0.11609 0.0
C1853 C 0.26409 0.80915 0.12871 0.0
C1854 C 0.27701 0.82684 0.1273 0.0
C1855 C 0.269 0.84516 0.12299 0.0
C1856 C 0.28121 0.86174 0.12146 0.0
C1857 C 0.30146 0.86021 0.12432 0.0
C1858 C 0.30955 0.8421 0.12874 0.0
C1859 C 0.29741 0.82547 0.13026 0.0
H1860 H 0.31089 0.87306 0.12313 0.0
H1861 H 0.1938 0.71093 0.13641 0.0
H1862 H 0.9734 0.4557 0.1018 0.0
H1863 H 0.99816 0.46677 0.12599 0.0
H1864 H 0.04275 0.46358 0.08202 0.0
H1865 H 0.0178 0.45209 0.05762 0.0
H1866 H 0.05599 0.44986 0.11649 0.0
H1867 H 0.02673 0.50805 0.09608 0.0
H1868 H 0.00021 0.53025 0.08656 0.0
H1869 H 0.97748 0.52801 0.14483 0.0
H1870 H 0.00366 0.50552 0.15465 0.0
H1871 H 0.10982 0.49429 0.20051 0.0
H1872 H 0.09625 0.49433 0.16668 0.0
H1873 H 0.04005 0.4751 0.18797 0.0
H1874 H 0.05357 0.47441 0.22141 0.0
H1875 H 0.04058 0.5076 0.15835 0.0
H1876 H 0.06584 0.44146 0.17303 0.0
H1877 H 0.09303 0.41967 0.18172 0.0
H1878 H 0.12519 0.43971 0.13207 0.0
H1879 H 0.09825 0.46183 0.12326 0.0
C1880 C 0.98849 0.45732 0.0973 0.0
C1881 C 0.9937 0.45324 0.07785 0.0
C1882 C 0.0026 0.46376 0.11107 0.0
C1883 C 0.02219 0.46655 0.10565 0.0
C1884 C 0.02766 0.46173 0.08642 0.0
C1885 C 0.01347 0.45511 0.07257 0.0
C1886 C 0.0367 0.47424 0.12046 0.0
C1887 C 0.05295 0.46282 0.12527 0.0
C1888 C 0.03291 0.49131 0.13179 0.0
C1889 C 0.01719 0.50504 0.12609 0.0
C1890 C 0.01603 0.5122 0.10685 0.0
C1891 C 0.00105 0.52485 0.1014 0.0
C1892 C 0.98717 0.53053 0.11508 0.0
C1893 C 0.98826 0.52361 0.13426 0.0
C1894 C 0.0032 0.51094 0.13979 0.0
C1895 C 0.09451 0.49035 0.19791 0.0
C1896 C 0.08272 0.48423 0.21344 0.0
C1897 C 0.08683 0.49037 0.17867 0.0
C1898 C 0.06719 0.48474 0.17497 0.0
C1899 C 0.05522 0.47957 0.19062 0.0
C1900 C 0.06297 0.47908 0.20965 0.0
C1901 C 0.05904 0.48264 0.15481 0.0
C1902 C 0.044 0.49513 0.14903 0.0
C1903 C 0.06415 0.46682 0.14241 0.0
C1904 C 0.0802 0.45346 0.14766 0.0
C1905 C 0.0788 0.44134 0.16409 0.0
C1906 C 0.09413 0.42891 0.16901 0.0
C1907 C 0.11086 0.42836 0.1575 0.0
C1908 C 0.11225 0.44019 0.141 0.0
C1909 C 0.09696 0.45267 0.13604 0.0
H1910 H 0.12272 0.41872 0.16132 0.0
H1911 H 0.97558 0.54031 0.11082 0.0
H1912 H 0.314 0.68835 0.25262 0.0
H1913 H 0.34553 0.69139 0.2703 0.0
H1914 H 0.34257 0.75437 0.26803 0.0
H1915 H 0.31074 0.75158 0.25107 0.0
H1916 H 0.37864 0.73877 0.25546 0.0
H1917 H 0.33371 0.73321 0.3095 0.0
H1918 H 0.30758 0.71691 0.32813 0.0
H1919 H 0.34328 0.66618 0.3348 0.0
H1920 H 0.36953 0.68208 0.31595 0.0
H1921 H 0.44953 0.77702 0.32069 0.0
H1922 H 0.41927 0.76739 0.30346 0.0
H1923 H 0.42752 0.70727 0.31997 0.0
H1924 H 0.45787 0.71698 0.33793 0.0
H1925 H 0.39018 0.71675 0.32374 0.0
H1926 H 0.43616 0.72221 0.2727 0.0
H1927 H 0.46263 0.73716 0.25349 0.0
H1928 H 0.42587 0.78569 0.2398 0.0
H1929 H 0.39925 0.77118 0.25917 0.0
C1930 C 0.31986 0.70287 0.25617 0.0
C1931 C 0.30977 0.71973 0.25034 0.0
C1932 C 0.33795 0.70455 0.26617 0.0
C1933 C 0.34636 0.7231 0.27044 0.0
C1934 C 0.33636 0.73992 0.26475 0.0
C1935 C 0.3182 0.73828 0.25495 0.0
C1936 C 0.36578 0.7251 0.2805 0.0
C1937 C 0.38116 0.73411 0.27045 0.0
C1938 C 0.36922 0.71825 0.29973 0.0
C1939 C 0.35348 0.70874 0.31112 0.0
C1940 C 0.33591 0.7185 0.31478 0.0
C1941 C 0.3211 0.70936 0.32541 0.0
C1942 C 0.32374 0.6905 0.33259 0.0
C1943 C 0.34124 0.68077 0.3292 0.0
C1944 C 0.35609 0.68985 0.31855 0.0
C1945 C 0.44503 0.7617 0.32066 0.0
C1946 C 0.45625 0.74773 0.33058 0.0
C1947 C 0.42771 0.7562 0.31068 0.0
C1948 C 0.4213 0.73654 0.31002 0.0
C1949 C 0.43225 0.72252 0.32016 0.0
C1950 C 0.4496 0.72808 0.33038 0.0
C1951 C 0.403 0.73096 0.2989 0.0
C1952 C 0.38782 0.72121 0.30868 0.0
C1953 C 0.3998 0.73688 0.27926 0.0
C1954 C 0.41574 0.74565 0.2675 0.0
C1955 C 0.43376 0.73614 0.2657 0.0
C1956 C 0.44879 0.74452 0.25477 0.0
C1957 C 0.44595 0.76237 0.24546 0.0
C1958 C 0.42805 0.77186 0.24703 0.0
C1959 C 0.41297 0.76355 0.25796 0.0
H1960 H 0.4576 0.76884 0.237 0.0
H1961 H 0.31226 0.68344 0.34082 0.0
H1962 H 0.95598 0.42687 0.99707 0.0
H1963 H 0.95958 0.39968 0.97379 0.0
H1964 H 0.98104 0.36338 0.02053 0.0
H1965 H 0.97747 0.39065 0.04399 0.0
H1966 H 0.00335 0.36 0.98899 0.0
H1967 H 0.93499 0.3558 0.00104 0.0
H1968 H 0.90135 0.36778 0.00461 0.0
H1969 H 0.90002 0.38456 0.94411 0.0
H1970 H 0.93378 0.37294 0.94025 0.0
H1971 H -0.0004 0.27669 0.92266 0.0
H1972 H 0.99328 0.29805 0.95107 0.0
H1973 H 0.97459 0.34366 0.9122 0.0
H1974 H 0.9808 0.32257 0.88386 0.0
H1975 H 0.94952 0.33845 0.94301 0.0
H1976 H 0.01942 0.34584 0.93271 0.0
H1977 H 0.05312 0.33386 0.92952 0.0
H1978 H 0.051 0.31032 0.98755 0.0
H1979 H 0.01716 0.32196 0.99098 0.0
C1980 C 0.9612 0.41302 0.00246 0.0
C1981 C 0.96633 0.41087 0.02239 0.0
C1982 C 0.96327 0.39749 0.98914 0.0
C1983 C 0.97031 0.37939 0.99547 0.0
C1984 C 0.97553 0.3772 0.01534 0.0
C1985 C 0.97353 0.39279 0.0287 0.0
C1986 C 0.97281 0.36309 0.9811 0.0
C1987 C 0.99147 0.355 0.97921 0.0
C1988 C 0.95736 0.3567 0.96819 0.0
C1989 C 0.93699 0.36361 0.9704 0.0
C1990 C 0.92758 0.36217 0.98853 0.0
C1991 C 0.90848 0.36888 0.9906 0.0
C1992 C 0.89856 0.37696 0.97461 0.0
C1993 C 0.90772 0.37831 0.95649 0.0
C1994 C 0.92683 0.37163 0.95435 0.0
C1995 C 0.99412 0.29126 0.92018 0.0
C1996 C 0.99078 0.29795 0.90098 0.0
C1997 C 0.99056 0.30344 0.93641 0.0
C1998 C 0.98354 0.32245 0.93371 0.0
C1999 C 0.97996 0.32903 0.9146 0.0
C2000 C 0.98362 0.31696 0.89841 0.0
C2001 C 0.98013 0.33577 0.95065 0.0
C2002 C 0.96129 0.34326 0.95302 0.0
C2003 C 0.99536 0.34152 0.96406 0.0
C2004 C 0.01569 0.33455 0.96201 0.0
C2005 C 0.02608 0.33796 0.94472 0.0
C2006 C 0.04522 0.33126 0.94288 0.0
C2007 C 0.05417 0.32128 0.9583 0.0
C2008 C 0.04403 0.31802 0.97561 0.0
C2009 C 0.02488 0.32467 0.97751 0.0
H2010 H 0.06899 0.31611 0.95685 0.0
H2011 H 0.88378 0.38216 0.97624 0.0
H2012 H 0.70197 0.7332 0.2457 0.0
H2013 H 0.67615 0.72785 0.26967 0.0
H2014 H 0.66153 0.78901 0.26718 0.0
H2015 H 0.68706 0.79442 0.24319 0.0
H2016 H 0.66206 0.7764 0.30455 0.0
H2017 H 0.63493 0.75383 0.24149 0.0
H2018 H 0.6342 0.73323 0.21136 0.0
H2019 H 0.63154 0.68132 0.24611 0.0
H2020 H 0.63253 0.70163 0.27647 0.0
H2021 H 0.56409 0.78893 0.32641 0.0
H2022 H 0.59581 0.78527 0.31131 0.0
H2023 H 0.59657 0.72449 0.32772 0.0
H2024 H 0.56443 0.72806 0.34312 0.0
H2025 H 0.60629 0.73084 0.28819 0.0
H2026 H 0.62714 0.75452 0.35122 0.0
H2027 H 0.62703 0.77573 0.38088 0.0
H2028 H 0.64107 0.82591 0.34622 0.0
H2029 H 0.64097 0.80506 0.3163 0.0
C2030 C 0.69322 0.74549 0.25024 0.0
C2031 C 0.69658 0.76425 0.2425 0.0
C2032 C 0.67851 0.74242 0.26398 0.0
C2033 C 0.66683 0.75801 0.27013 0.0
C2034 C 0.67044 0.77679 0.26274 0.0
C2035 C 0.6851 0.77987 0.24905 0.0
C2036 C 0.65036 0.75489 0.28377 0.0
C2037 C 0.64985 0.76645 0.30098 0.0
C2038 C 0.63475 0.74141 0.27946 0.0
C2039 C 0.63406 0.72922 0.26123 0.0
C2040 C 0.63435 0.73801 0.2427 0.0
C2041 C 0.63386 0.72639 0.22559 0.0
C2042 C 0.63289 0.70597 0.22683 0.0
C2043 C 0.63234 0.69713 0.24518 0.0
C2044 C 0.63286 0.70869 0.26234 0.0
C2045 C 0.57095 0.77475 0.32694 0.0
C2046 C 0.56167 0.75876 0.33596 0.0
C2047 C 0.58918 0.77273 0.31838 0.0
C2048 C 0.59865 0.75468 0.31857 0.0
C2049 C 0.58952 0.73858 0.32752 0.0
C2050 C 0.57122 0.74065 0.33633 0.0
C2051 C 0.6177 0.75286 0.3086 0.0
C2052 C 0.61871 0.74041 0.29207 0.0
C2053 C 0.63377 0.76557 0.3135 0.0
C2054 C 0.63396 0.77821 0.33148 0.0
C2055 C 0.63007 0.7701 0.34989 0.0
C2056 C 0.63007 0.78206 0.36676 0.0
C2057 C 0.63402 0.80216 0.36543 0.0
C2058 C 0.63802 0.81033 0.34723 0.0
C2059 C 0.63803 0.79844 0.33031 0.0
H2060 H 0.63401 0.81139 0.37851 0.0
H2061 H 0.63251 0.697 0.21356 0.0
H2062 H 0.02518 0.08972 0.02788 0.0
H2063 H 0.02133 0.11558 0.00374 0.0
H2064 H 0.03511 0.07469 0.95728 0.0
H2065 H 0.03898 0.04873 0.98135 0.0
H2066 H 0.05397 0.10912 0.9526 0.0
H2067 H 0.98776 0.08837 0.96524 0.0
H2068 H 0.95946 0.08082 0.98599 0.0
H2069 H 0.95967 0.1404 0.00733 0.0
H2070 H 0.98816 0.14825 0.98691 0.0
H2071 H 0.02141 0.1663 0.87243 0.0
H2072 H 0.02535 0.1404 0.89651 0.0
H2073 H 0.01124 0.18107 0.94306 0.0
H2074 H 0.00698 0.20698 0.91905 0.0
H2075 H 0.99254 0.14672 0.94769 0.0
H2076 H 0.05862 0.16759 0.93539 0.0
H2077 H 0.08723 0.17531 0.91513 0.0
H2078 H 0.08752 0.11582 0.89355 0.0
H2079 H 0.05872 0.1078 0.91349 0.0
C2080 C 0.02722 0.08618 0.0125 0.0
C2081 C 0.03228 0.06712 0.00654 0.0
C2082 C 0.02504 0.10099 0.99871 0.0
C2083 C 0.02769 0.09704 0.97864 0.0
C2084 C 0.033 0.0781 0.97267 0.0
C2085 C 0.03525 0.06329 0.98646 0.0
C2086 C 0.02494 0.11265 0.96388 0.0
C2087 C 0.04043 0.11715 0.95134 0.0
C2088 C 0.00746 0.12348 0.96254 0.0
C2089 C 0.9902 0.11885 0.97468 0.0
C2090 C 0.98185 0.09983 0.97446 0.0
C2091 C 0.96577 0.0955 0.98615 0.0
C2092 C 0.9578 0.11011 0.99801 0.0
C2093 C 0.96587 0.1291 0.99816 0.0
C2094 C 0.98197 0.1335 0.98651 0.0
C2095 C 0.01914 0.16976 0.88779 0.0
C2096 C 0.01393 0.18876 0.8938 0.0
C2097 C 0.02149 0.15494 0.90156 0.0
C2098 C 0.01882 0.15882 0.92165 0.0
C2099 C 0.0134 0.17771 0.92766 0.0
C2100 C 0.01103 0.19254 0.9139 0.0
C2101 C 0.02156 0.14318 0.93638 0.0
C2102 C 0.00607 0.13868 0.94893 0.0
C2103 C 0.03905 0.13238 0.93776 0.0
C2104 C 0.05639 0.13715 0.92578 0.0
C2105 C 0.06468 0.15619 0.92621 0.0
C2106 C 0.08095 0.16062 0.9148 0.0
C2107 C 0.08915 0.14608 0.90302 0.0
C2108 C 0.08113 0.12708 0.90266 0.0
C2109 C 0.06485 0.12258 0.91402 0.0
H2110 H 0.10175 0.14954 0.8942 0.0
H2111 H 0.94535 0.10673 0.00706 0.0
H2112 H 0.35201 0.28922 0.29969 0.0
H2113 H 0.37735 0.28683 0.27497 0.0
H2114 H 0.37814 0.34963 0.26923 0.0
H2115 H 0.35366 0.35242 0.29482 0.0
H2116 H 0.36822 0.32 0.2332 0.0
H2117 H 0.41494 0.33916 0.28552 0.0
H2118 H 0.43045 0.33518 0.3182 0.0
H2119 H 0.4477 0.27702 0.30193 0.0
H2120 H 0.43201 0.28055 0.26924 0.0
H2121 H 0.434 0.32926 0.15729 0.0
H2122 H 0.41765 0.3355 0.1883 0.0
H2123 H 0.44148 0.28233 0.21173 0.0
H2124 H 0.45898 0.27683 0.18109 0.0
H2125 H 0.43936 0.30701 0.2401 0.0
H2126 H 0.39367 0.28466 0.19046 0.0
H2127 H 0.37647 0.28402 0.15825 0.0
H2128 H 0.35482 0.34173 0.16955 0.0
H2129 H 0.37211 0.34282 0.20174 0.0
C2130 C 0.35798 0.30263 0.29372 0.0
C2131 C 0.35064 0.32104 0.29923 0.0
C2132 C 0.37239 0.30118 0.2795 0.0
C2133 C 0.37953 0.31805 0.2704 0.0
C2134 C 0.37275 0.33647 0.27619 0.0
C2135 C 0.35863 0.33798 0.29067 0.0
C2136 C 0.39245 0.31629 0.25339 0.0
C2137 C 0.38385 0.3175 0.23463 0.0
C2138 C 0.41257 0.31211 0.25545 0.0
C2139 C 0.42211 0.31005 0.27503 0.0
C2140 C 0.42185 0.32545 0.28899 0.0
C2141 C 0.43073 0.32329 0.30749 0.0
C2142 C 0.44 0.30583 0.31216 0.0
C2143 C 0.44048 0.29052 0.29831 0.0
C2144 C 0.43162 0.2926 0.27978 0.0
C2145 C 0.43599 0.31911 0.16921 0.0
C2146 C 0.44754 0.30248 0.16682 0.0
C2147 C 0.42655 0.3226 0.18687 0.0
C2148 C 0.42779 0.30905 0.20216 0.0
C2149 C 0.44018 0.29294 0.20013 0.0
C2150 C 0.45014 0.28978 0.18263 0.0
C2151 C 0.41525 0.31111 0.21965 0.0
C2152 C 0.42379 0.30971 0.23853 0.0
C2153 C 0.39485 0.31451 0.21774 0.0
C2154 C 0.38435 0.31389 0.19842 0.0
C2155 C 0.38535 0.29726 0.18602 0.0
C2156 C 0.37557 0.29682 0.16777 0.0
C2157 C 0.3646 0.31285 0.16184 0.0
C2158 C 0.36334 0.32934 0.17416 0.0
C2159 C 0.37312 0.32987 0.19241 0.0
H2160 H 0.35704 0.31247 0.1477 0.0
H2161 H 0.44686 0.30419 0.32649 0.0
H2162 H 0.55872 0.45351 0.98897 0.0
H2163 H 0.55028 0.4294 0.0137 0.0
H2164 H 0.52209 0.39266 0.96903 0.0
H2165 H 0.53142 0.41604 0.94392 0.0
H2166 H 0.4994 0.40318 0.00529 0.0
H2167 H 0.56136 0.37723 0.98336 0.0
H2168 H 0.59675 0.37976 0.97684 0.0
H2169 H 0.60866 0.39455 0.0375 0.0
H2170 H 0.57328 0.39241 0.04431 0.0
H2171 H 0.47511 0.31674 0.05154 0.0
H2172 H 0.48852 0.34062 0.02903 0.0
H2173 H 0.5304 0.36053 0.07373 0.0
H2174 H 0.51755 0.33571 0.09614 0.0
H2175 H 0.54718 0.36106 0.03974 0.0
H2176 H 0.48753 0.3862 0.06338 0.0
H2177 H 0.45253 0.38604 0.07178 0.0
H2178 H 0.4364 0.37652 0.01105 0.0
H2179 H 0.47133 0.37635 0.00231 0.0
C2180 C 0.55109 0.44014 0.98425 0.0
C2181 C 0.5458 0.43677 0.96434 0.0
C2182 C 0.54617 0.42646 0.99847 0.0
C2183 C 0.53564 0.40932 0.99311 0.0
C2184 C 0.53021 0.40588 0.97338 0.0
C2185 C 0.53542 0.41936 0.9591 0.0
C2186 C 0.52966 0.39521 0.00818 0.0
C2187 C 0.50976 0.39379 0.0127 0.0
C2188 C 0.5434 0.3837 0.01838 0.0
C2189 C 0.56466 0.3849 0.01429 0.0
C2190 C 0.57151 0.38123 0.99526 0.0
C2191 C 0.59157 0.38254 0.99152 0.0
C2192 C 0.60494 0.38737 0.00673 0.0
C2193 C 0.59828 0.39084 0.02572 0.0
C2194 C 0.57823 0.38957 0.02953 0.0
C2195 C 0.48725 0.32613 0.05656 0.0
C2196 C 0.49513 0.32459 0.07566 0.0
C2197 C 0.49484 0.33986 0.04371 0.0
C2198 C 0.51006 0.35281 0.04987 0.0
C2199 C 0.51852 0.35081 0.06871 0.0
C2200 C 0.51118 0.33668 0.0815 0.0
C2201 C 0.51671 0.36857 0.0366 0.0
C2202 C 0.53675 0.37047 0.03247 0.0
C2203 C 0.50313 0.38091 0.02706 0.0
C2204 C 0.48207 0.38112 0.03221 0.0
C2205 C 0.47653 0.38395 0.05183 0.0
C2206 C 0.4567 0.38393 0.05665 0.0
C2207 C 0.44225 0.38123 0.04196 0.0
C2208 C 0.44761 0.37859 0.02242 0.0
C2209 C 0.46743 0.37858 0.01751 0.0
H2210 H 0.42691 0.38121 0.04573 0.0
H2211 H 0.62047 0.38838 0.00381 0.0
H2212 H 0.66283 0.23861 0.25535 0.0
H2213 H 0.63493 0.24405 0.23325 0.0
H2214 H 0.67249 0.23852 0.18331 0.0
H2215 H 0.70071 0.23365 0.20545 0.0
H2216 H 0.64804 0.26914 0.1795 0.0
H2217 H 0.64173 0.20132 0.19466 0.0
H2218 H 0.6402 0.17253 0.21604 0.0
H2219 H 0.58892 0.19508 0.24339 0.0
H2220 H 0.5903 0.22416 0.22237 0.0
H2221 H 0.56617 0.26332 0.11195 0.0
H2222 H 0.59613 0.25564 0.13044 0.0
H2223 H 0.56482 0.26036 0.18467 0.0
H2224 H 0.53484 0.26785 0.16637 0.0
H2225 H 0.58739 0.22822 0.1839 0.0
H2226 H 0.59528 0.29708 0.17014 0.0
H2227 H 0.59706 0.32593 0.14886 0.0
H2228 H 0.64557 0.30105 0.11859 0.0
H2229 H 0.6439 0.27191 0.13954 0.0
C2230 C 0.66523 0.23874 0.23968 0.0
C2231 C 0.68401 0.23571 0.23216 0.0
C2232 C 0.64921 0.24165 0.22705 0.0
C2233 C 0.65158 0.24143 0.20662 0.0
C2234 C 0.67033 0.23864 0.19903 0.0
C2235 C 0.6864 0.23572 0.21168 0.0
C2236 C 0.63442 0.24431 0.19329 0.0
C2237 C 0.63489 0.25998 0.1802 0.0
C2238 C 0.61718 0.23254 0.19443 0.0
C2239 C 0.61622 0.215 0.20704 0.0
C2240 C 0.63021 0.20021 0.20533 0.0
C2241 C 0.62936 0.18383 0.21737 0.0
C2242 C 0.6145 0.182 0.23109 0.0
C2243 C 0.60043 0.19653 0.23277 0.0
C2244 C 0.60123 0.21296 0.22078 0.0
C2245 C 0.56566 0.26272 0.12781 0.0
C2246 C 0.54811 0.26625 0.13768 0.0
C2247 C 0.58281 0.25839 0.13836 0.0
C2248 C 0.58274 0.25758 0.15895 0.0
C2249 C 0.56521 0.2609 0.16879 0.0
C2250 C 0.54809 0.26525 0.15829 0.0
C2251 C 0.60087 0.25325 0.17036 0.0
C2252 C 0.60059 0.23727 0.18308 0.0
C2253 C 0.61829 0.2647 0.16883 0.0
C2254 C 0.61932 0.28222 0.15625 0.0
C2255 C 0.60622 0.29768 0.15883 0.0
C2256 C 0.60723 0.31411 0.14685 0.0
C2257 C 0.62138 0.3153 0.13234 0.0
C2258 C 0.63459 0.30009 0.12982 0.0
C2259 C 0.63363 0.28363 0.14174 0.0
H2260 H 0.62214 0.32802 0.12308 0.0
H2261 H 0.61386 0.1693 0.2404 0.0
H2262 H 0.47245 0.08587 0.00377 0.0
H2263 H 0.47734 0.1149 0.02501 0.0
H2264 H 0.4154 0.1264 0.02092 0.0
H2265 H 0.41048 0.09764 0.99929 0.0
H2266 H 0.43778 0.15906 0.01498 0.0
H2267 H 0.43512 0.1073 0.06212 0.0
H2268 H 0.4449 0.07603 0.07671 0.0
H2269 H 0.50364 0.09861 0.08583 0.0
H2270 H 0.49427 0.12994 0.07103 0.0
H2271 H 0.42995 0.23097 0.08812 0.0
H2272 H 0.4265 0.19954 0.07078 0.0
H2273 H 0.48876 0.19077 0.07723 0.0
H2274 H 0.49235 0.22223 0.09498 0.0
H2275 H 0.46763 0.15663 0.08196 0.0
H2276 H 0.47091 0.20796 0.03503 0.0
H2277 H 0.46188 0.23927 0.02006 0.0
H2278 H 0.40303 0.21745 0.00981 0.0
H2279 H 0.41163 0.18608 0.025 0.0
C2280 C 0.4599 0.09466 0.00732 0.0
C2281 C 0.44108 0.08951 -0.00013 0.0
C2282 C 0.46268 0.11111 0.0196 0.0
C2283 C 0.4467 0.12266 0.02468 0.0
C2284 C 0.42791 0.1176 0.01722 0.0
C2285 C 0.42511 0.10113 0.00498 0.0
C2286 C 0.44962 0.14039 0.0373 0.0
C2287 C 0.44405 0.15849 0.02973 0.0
C2288 C 0.45841 0.13968 0.05628 0.0
C2289 C 0.46404 0.1209 0.06529 0.0
C2290 C 0.45016 0.10555 0.06709 0.0
C2291 C 0.45562 0.08782 0.07542 0.0
C2292 C 0.47489 0.08532 0.08215 0.0
C2293 C 0.48873 0.10056 0.0806 0.0
C2294 C 0.48334 0.11831 0.07225 0.0
C2295 C 0.44292 0.2223 0.08606 0.0
C2296 C 0.46148 0.22921 0.09271 0.0
C2297 C 0.44091 0.20434 0.0761 0.0
C2298 C 0.45743 0.19304 0.07237 0.0
C2299 C 0.47585 0.19935 0.07988 0.0
C2300 C 0.47787 0.21733 0.08999 0.0
C2301 C 0.4555 0.17521 0.05972 0.0
C2302 C 0.46135 0.15716 0.06722 0.0
C2303 C 0.44707 0.17593 0.04058 0.0
C2304 C 0.44187 0.19473 0.03132 0.0
C2305 C 0.456 0.20989 0.02972 0.0
C2306 C 0.45097 0.22764 0.02117 0.0
C2307 C 0.43188 0.23036 0.01403 0.0
C2308 C 0.4178 0.21532 0.01537 0.0
C2309 C 0.42275 0.19755 0.02393 0.0
H2310 H 0.42801 0.24412 0.00742 0.0
H2311 H 0.47909 0.07158 0.08859 0.0
H2312 H 0.27415 0.29153 0.70515 0.0
H2313 H 0.29221 0.32275 0.70507 0.0
H2314 H 0.24146 0.35222 0.72696 0.0
H2315 H 0.2229 0.32131 0.72586 0.0
H2316 H 0.25719 0.37344 0.70004 0.0
H2317 H 0.28228 0.34033 0.75685 0.0
H2318 H 0.2975 0.31328 0.77486 0.0
H2319 H 0.34913 0.31884 0.74016 0.0
H2320 H 0.3341 0.34577 0.72175 0.0
H2321 H 0.29863 0.45676 0.7494 0.0
H2322 H 0.28321 0.42546 0.73957 0.0
H2323 H 0.33481 0.41005 0.7076 0.0
H2324 H 0.35035 0.44174 0.71719 0.0
H2325 H 0.32133 0.38134 0.73523 0.0
H2326 H 0.29636 0.41826 0.68156 0.0
H2327 H 0.2805 0.44629 0.66579 0.0
H2328 H 0.22773 0.43451 0.69725 0.0
H2329 H 0.24337 0.40657 0.71343 0.0
C2330 C 0.26672 0.30467 0.70973 0.0
C2331 C 0.24703 0.30381 0.71557 0.0
C2332 C 0.27717 0.32252 0.70989 0.0
C2333 C 0.26832 0.33986 0.71626 0.0
C2334 C 0.24866 0.33906 0.72202 0.0
C2335 C 0.23813 0.32128 0.72164 0.0
C2336 C 0.27943 0.35886 0.71699 0.0
C2337 C 0.27115 0.37516 0.70786 0.0
C2338 C 0.29792 0.36108 0.72674 0.0
C2339 C 0.30697 0.34489 0.73777 0.0
C2340 C 0.29681 0.33567 0.75295 0.0
C2341 C 0.30542 0.32038 0.76325 0.0
C2342 C 0.32424 0.3143 0.75861 0.0
C2343 C 0.33453 0.32353 0.7437 0.0
C2344 C 0.32598 0.33881 0.73334 0.0
C2345 C 0.30663 0.44685 0.74004 0.0
C2346 C 0.32572 0.45167 0.73408 0.0
C2347 C 0.29776 0.42899 0.73439 0.0
C2348 C 0.30785 0.41548 0.72283 0.0
C2349 C 0.32678 0.42035 0.71649 0.0
C2350 C 0.33558 0.43845 0.72188 0.0
C2351 C 0.29888 0.39586 0.71862 0.0
C2352 C 0.30754 0.37948 0.72714 0.0
C2353 C 0.28061 0.39363 0.70858 0.0
C2354 C 0.2711 0.41038 0.69881 0.0
C2355 C 0.28143 0.42173 0.68523 0.0
C2356 C 0.27246 0.43759 0.6762 0.0
C2357 C 0.25313 0.4422 0.68054 0.0
C2358 C 0.24271 0.43092 0.6939 0.0
C2359 C 0.25161 0.41506 0.70299 0.0
H2360 H 0.24622 0.45448 0.67353 0.0
H2361 H 0.33088 0.30247 0.76661 0.0
H2362 H 0.27035 0.71301 0.7646 0.0
H2363 H 0.29391 0.68695 0.75882 0.0
H2364 H 0.24634 0.64728 0.74166 0.0
H2365 H 0.22287 0.67323 0.7472 0.0
H2366 H 0.29841 0.65403 0.77639 0.0
H2367 H 0.26014 0.61324 0.70944 0.0
H2368 H 0.24147 0.62156 0.67944 0.0
H2369 H 0.26806 0.67914 0.68048 0.0
H2370 H 0.28712 0.67108 0.71031 0.0
H2371 H 0.31389 0.55427 0.77675 0.0
H2372 H 0.30062 0.58689 0.77418 0.0
H2373 H 0.33411 0.59688 0.7221 0.0
H2374 H 0.3475 0.56374 0.72443 0.0
H2375 H 0.29679 0.60972 0.71783 0.0
H2376 H 0.34861 0.61947 0.76423 0.0
H2377 H 0.3695 0.61258 0.79317 0.0
H2378 H 0.3204 0.62032 0.83084 0.0
H2379 H 0.29913 0.62697 0.80211 0.0
C2380 C 0.26496 0.69874 0.75949 0.0
C2381 C 0.24475 0.6952 0.75629 0.0
C2382 C 0.27843 0.68389 0.75614 0.0
C2383 C 0.27197 0.6652 0.74953 0.0
C2384 C 0.25179 0.66169 0.74625 0.0
C2385 C 0.23835 0.67654 0.74947 0.0
C2386 C 0.28601 0.6489 0.74738 0.0
C2387 C 0.29818 0.64448 0.7635 0.0
C2388 C 0.28621 0.6367 0.73033 0.0
C2389 C 0.27498 0.64157 0.71221 0.0
C2390 C 0.26211 0.62763 0.70321 0.0
C2391 C 0.25143 0.63232 0.68624 0.0
C2392 C 0.25354 0.65088 0.67808 0.0
C2393 C 0.26639 0.66478 0.68685 0.0
C2394 C 0.27711 0.66017 0.7038 0.0
C2395 C 0.31855 0.56332 0.76471 0.0
C2396 C 0.33187 0.55636 0.75083 0.0
C2397 C 0.31098 0.58207 0.76334 0.0
C2398 C 0.31663 0.59448 0.74817 0.0
C2399 C 0.32967 0.58757 0.73402 0.0
C2400 C 0.33731 0.56866 0.73538 0.0
C2401 C 0.30836 0.61443 0.74719 0.0
C2402 C 0.29728 0.61952 0.73053 0.0
C2403 C 0.3095 0.62751 0.76356 0.0
C2404 C 0.32225 0.62364 0.78097 0.0
C2405 C 0.34223 0.61959 0.77867 0.0
C2406 C 0.35415 0.61574 0.79504 0.0
C2407 C 0.34628 0.616 0.81383 0.0
C2408 C 0.32648 0.62014 0.81628 0.0
C2409 C 0.31449 0.62398 0.79995 0.0
H2410 H 0.35553 0.61301 0.82649 0.0
H2411 H 0.24525 0.65448 0.66496 0.0
H2412 H 0.92119 0.50824 0.50389 0.0
H2413 H 0.89394 0.4848 0.50802 0.0
H2414 H 0.87115 0.49852 0.45047 0.0
H2415 H 0.89876 0.52172 0.44603 0.0
H2416 H 0.84321 0.49603 0.48903 0.0
H2417 H 0.88814 0.46196 0.44579 0.0
H2418 H 0.92114 0.45138 0.43654 0.0
H2419 H 0.92763 0.42184 0.49142 0.0
H2420 H 0.89477 0.43255 0.50112 0.0
H2421 H 0.77585 0.41378 0.4818 0.0
H2422 H 0.79837 0.44148 0.47638 0.0
H2423 H 0.84185 0.41496 0.51392 0.0
H2424 H 0.81982 0.38689 0.51846 0.0
H2425 H 0.85845 0.42539 0.48286 0.0
H2426 H 0.81461 0.45769 0.52678 0.0
H2427 H 0.78255 0.46873 0.53839 0.0
H2428 H 0.77445 0.50192 0.48591 0.0
H2429 H 0.80636 0.49087 0.47386 0.0
C2430 C 0.91029 0.50632 0.49218 0.0
C2431 C 0.91202 0.51667 0.47463 0.0
C2432 C 0.89477 0.49301 0.49457 0.0
C2433 C 0.88058 0.49009 0.47959 0.0
C2434 C 0.88196 0.50073 0.46221 0.0
C2435 C 0.89774 0.5138 0.45964 0.0
C2436 C 0.86509 0.47494 0.48178 0.0
C2437 C 0.84632 0.48055 0.4874 0.0
C2438 C 0.86947 0.45486 0.48015 0.0
C2439 C 0.88912 0.44824 0.47426 0.0
C2440 C 0.89669 0.45338 0.45596 0.0
C2441 C 0.91535 0.44732 0.45062 0.0
C2442 C 0.9265 0.43599 0.46341 0.0
C2443 C 0.91899 0.43064 0.48154 0.0
C2444 C 0.90035 0.4367 0.48696 0.0
C2445 C 0.79012 0.41407 0.48911 0.0
C2446 C 0.79616 0.39819 0.50047 0.0
C2447 C 0.80297 0.42993 0.48606 0.0
C2448 C 0.82184 0.4304 0.4948 0.0
C2449 C 0.82746 0.4149 0.50687 0.0
C2450 C 0.81484 0.39889 0.50953 0.0
C2451 C 0.8363 0.44626 0.49046 0.0
C2452 C 0.85505 0.4408 0.48442 0.0
C2453 C 0.83188 0.46645 0.49201 0.0
C2454 C 0.81279 0.47328 0.49933 0.0
C2455 C 0.80593 0.46724 0.51765 0.0
C2456 C 0.78779 0.47351 0.52432 0.0
C2457 C 0.77644 0.48596 0.51287 0.0
C2458 C 0.78324 0.49224 0.49475 0.0
C2459 C 0.80137 0.48599 0.48801 0.0
H2460 H 0.76239 0.49078 0.51804 0.0
H2461 H 0.94093 0.43131 0.45925 0.0
H2462 H 0.79815 0.8633 0.79218 0.0
H2463 H 0.77241 0.88761 0.79124 0.0
H2464 H 0.77108 0.88874 0.85446 0.0
H2465 H 0.7978 0.86535 0.85575 0.0
H2466 H 0.73361 0.87699 0.82724 0.0
H2467 H 0.78427 0.92629 0.84266 0.0
H2468 H 0.81589 0.94316 0.83693 0.0
H2469 H 0.79608 0.95843 0.77901 0.0
H2470 H 0.76445 0.94136 0.7843 0.0
H2471 H 0.65395 0.93906 0.83396 0.0
H2472 H 0.68576 0.92453 0.84102 0.0
H2473 H 0.70784 0.94714 0.78669 0.0
H2474 H 0.67642 0.96291 0.78039 0.0
H2475 H 0.7362 0.94768 0.8112 0.0
H2476 H 0.68883 0.89828 0.7918 0.0
H2477 H 0.6577 0.87934 0.79265 0.0
H2478 H 0.67137 0.86148 0.85144 0.0
H2479 H 0.70249 0.88053 0.85103 0.0
C2480 C 0.79297 0.86917 0.80596 0.0
C2481 C 0.80006 0.86218 0.82406 0.0
C2482 C 0.77814 0.88298 0.80534 0.0
C2483 C 0.76996 0.88988 0.82277 0.0
C2484 C 0.77732 0.88352 0.84087 0.0
C2485 C 0.79244 0.87001 0.84154 0.0
C2486 C 0.7523 0.90199 0.82189 0.0
C2487 C 0.73411 0.89255 0.82415 0.0
C2488 C 0.75313 0.92198 0.81693 0.0
C2489 C 0.77207 0.93237 0.81381 0.0
C2490 C 0.78673 0.93306 0.82863 0.0
C2491 C 0.80464 0.94271 0.82548 0.0
C2492 C 0.80802 0.95181 0.8076 0.0
C2493 C 0.79346 0.95135 0.79285 0.0
C2494 C 0.77553 0.94171 0.79592 0.0
C2495 C 0.66574 0.94115 0.82371 0.0
C2496 C 0.66278 0.95189 0.80656 0.0
C2497 C 0.68385 0.93275 0.82767 0.0
C2498 C 0.69905 0.93418 0.81409 0.0
C2499 C 0.69635 0.94572 0.79736 0.0
C2500 C 0.6784 0.95468 0.79373 0.0
C2501 C 0.71724 0.92277 0.81675 0.0
C2502 C 0.73557 0.9322 0.8146 0.0
C2503 C 0.71656 0.90252 0.82117 0.0
C2504 C 0.69788 0.891 0.82146 0.0
C2505 C 0.68513 0.89042 0.80496 0.0
C2506 C 0.6675 0.87965 0.80535 0.0
C2507 C 0.66253 0.86926 0.82211 0.0
C2508 C 0.67522 0.86957 0.83849 0.0
C2509 C 0.69286 0.88033 0.83818 0.0
H2510 H 0.64888 0.86093 0.82239 0.0
H2511 H 0.82189 0.95927 0.80519 0.0
H2512 H 0.60149 0.48428 0.90961 0.0
H2513 H 0.63102 0.50512 0.91417 0.0
H2514 H 0.61551 0.51677 0.97429 0.0
H2515 H 0.58601 0.496 0.96981 0.0
H2516 H 0.62645 0.55055 0.95358 0.0
H2517 H 0.65002 0.48585 0.96642 0.0
H2518 H 0.65515 0.45085 0.95897 0.0
H2519 H 0.68712 0.46616 0.90756 0.0
H2520 H 0.68193 0.50127 0.91456 0.0
H2521 H 0.71657 0.5919 0.99023 0.0
H2522 H 0.68647 0.57248 0.98444 0.0
H2523 H 0.70706 0.55446 0.92754 0.0
H2524 H 0.73738 0.57341 0.93342 0.0
H2525 H 0.69317 0.52402 0.94602 0.0
H2526 H 0.67031 0.5885 0.93285 0.0
H2527 H 0.66496 0.62361 0.93951 0.0
H2528 H 0.63145 0.60919 0.99018 0.0
H2529 H 0.63683 0.57398 0.98398 0.0
C2530 C 0.60441 0.49133 0.92376 0.0
C2531 C 0.59157 0.4885 0.93939 0.0
C2532 C 0.62126 0.50313 0.92637 0.0
C2533 C 0.62542 0.51238 0.94459 0.0
C2534 C 0.61252 0.50973 0.96014 0.0
C2535 C 0.5958 0.49777 0.95761 0.0
C2536 C 0.64324 0.52483 0.94747 0.0
C2537 C 0.64107 0.54476 0.95215 0.0
C2538 C 0.66222 0.51728 0.9451 0.0
C2539 C 0.6654 0.49618 0.9409 0.0
C2540 C 0.65799 0.48175 0.95343 0.0
C2541 C 0.66094 0.46189 0.94931 0.0
C2542 C 0.67141 0.45628 0.93277 0.0
C2543 C 0.67899 0.47053 0.92035 0.0
C2544 C 0.67606 0.49041 0.92439 0.0
C2545 C 0.71462 0.58394 0.97641 0.0
C2546 C 0.72937 0.58419 0.96229 0.0
C2547 C 0.69737 0.57289 0.9731 0.0
C2548 C 0.69443 0.56215 0.95547 0.0
C2549 C 0.70903 0.5626 0.94125 0.0
C2550 C 0.72633 0.57349 0.94462 0.0
C2551 C 0.67646 0.54987 0.95212 0.0
C2552 C 0.67858 0.52992 0.94737 0.0
C2553 C 0.65743 0.55745 0.95429 0.0
C2554 C 0.65414 0.57861 0.95805 0.0
C2555 C 0.66193 0.59282 0.9455 0.0
C2556 C 0.65887 0.61274 0.94918 0.0
C2557 C 0.64791 0.61863 0.96528 0.0
C2558 C 0.63996 0.6046 0.97772 0.0
C2559 C 0.64299 0.58466 0.97412 0.0
H2560 H 0.64556 0.63406 0.9681 0.0
H2561 H 0.67368 0.4409 0.92961 0.0
H2562 H 0.26762 0.66296 0.24009 0.0
H2563 H 0.24454 0.63592 0.24576 0.0
H2564 H 0.19609 0.67516 0.23899 0.0
H2565 H 0.21916 0.70247 0.23388 0.0
H2566 H 0.19082 0.65075 0.26961 0.0
H2567 H 0.20762 0.64451 0.20193 0.0
H2568 H 0.22985 0.64217 0.17391 0.0
H2569 H 0.25384 0.5894 0.1971 0.0
H2570 H 0.23194 0.59158 0.22543 0.0
H2571 H 0.11721 0.57547 0.25674 0.0
H2572 H 0.13901 0.60386 0.2522 0.0
H2573 H 0.18934 0.56692 0.25836 0.0
H2574 H 0.16769 0.53846 0.26271 0.0
H2575 H 0.19279 0.59082 0.22746 0.0
H2576 H 0.17621 0.59753 0.29552 0.0
H2577 H 0.15392 0.60006 0.32347 0.0
H2578 H 0.12923 0.65208 0.29932 0.0
H2579 H 0.15121 0.6497 0.27106 0.0
C2580 C 0.25207 0.66591 0.24006 0.0
C2581 C 0.24522 0.68487 0.23649 0.0
C2582 C 0.23889 0.6504 0.24311 0.0
C2583 C 0.21859 0.65347 0.24254 0.0
C2584 C 0.21169 0.67245 0.23941 0.0
C2585 C 0.22488 0.688 0.23634 0.0
C2586 C 0.20459 0.63681 0.24501 0.0
C2587 C 0.19105 0.63776 0.26023 0.0
C2588 C 0.20513 0.61973 0.23297 0.0
C2589 C 0.21826 0.61831 0.2159 0.0
C2590 C 0.21774 0.63249 0.20114 0.0
C2591 C 0.23027 0.63118 0.18519 0.0
C2592 C 0.24329 0.61567 0.18375 0.0
C2593 C 0.24377 0.60141 0.19824 0.0
C2594 C 0.23129 0.60267 0.21424 0.0
C2595 C 0.13292 0.57339 0.25719 0.0
C2596 C 0.1407 0.55469 0.26011 0.0
C2597 C 0.14536 0.58965 0.25466 0.0
C2598 C 0.16581 0.58754 0.2551 0.0
C2599 C 0.1736 0.56889 0.25797 0.0
C2600 C 0.16119 0.55264 0.26052 0.0
C2601 C 0.17913 0.60466 0.25219 0.0
C2602 C 0.19253 0.60382 0.23684 0.0
C2603 C 0.17841 0.62184 0.26408 0.0
C2604 C 0.16521 0.62332 0.28107 0.0
C2605 C 0.16591 0.60941 0.29608 0.0
C2606 C 0.15336 0.61084 0.312 0.0
C2607 C 0.14013 0.62619 0.31315 0.0
C2608 C 0.13947 0.64018 0.2984 0.0
C2609 C 0.15198 0.63881 0.28244 0.0
H2610 H 0.13042 0.62727 0.32548 0.0
H2611 H 0.25297 0.61468 0.17139 0.0
H2612 H 0.90903 0.45035 0.05998 0.0
H2613 H 0.8826 0.4744 0.0593 0.0
H2614 H 0.92136 0.51583 0.03145 0.0
H2615 H 0.9478 0.49214 0.03294 0.0
H2616 H 0.90227 0.53396 0.05853 0.0
H2617 H 0.88446 0.48736 0.00602 0.0
H2618 H 0.87585 0.45456 0.99226 0.0
H2619 H 0.82666 0.45058 0.03049 0.0
H2620 H 0.83514 0.48327 0.04464 0.0
H2621 H 0.84619 0.58794 0.99102 0.0
H2622 H 0.86718 0.56538 0.00893 0.0
H2623 H 0.82012 0.55272 0.04844 0.0
H2624 H 0.79917 0.57602 0.0309 0.0
H2625 H 0.8385 0.51927 0.02461 0.0
H2626 H 0.85352 0.57058 0.07085 0.0
H2627 H 0.86248 0.60423 0.08184 0.0
H2628 H 0.91749 0.60021 0.0526 0.0
H2629 H 0.90874 0.56663 0.04115 0.0
C2630 C 0.91169 0.46459 0.05362 0.0
C2631 C 0.9302 0.46951 0.04633 0.0
C2632 C 0.89668 0.47829 0.05325 0.0
C2633 C 0.89994 0.49691 0.04521 0.0
C2634 C 0.9185 0.50164 0.03783 0.0
C2635 C 0.93353 0.4881 0.0385 0.0
C2636 C 0.88417 0.51157 0.0441 0.0
C2637 C 0.88832 0.53072 0.05112 0.0
C2638 C 0.86567 0.50723 0.03507 0.0
C2639 C 0.86058 0.48762 0.02656 0.0
C2640 C 0.8719 0.47941 0.01159 0.0
C2641 C 0.86703 0.46086 0.00371 0.0
C2642 C 0.85076 0.45046 0.01055 0.0
C2643 C 0.83929 0.45862 0.02524 0.0
C2644 C 0.84411 0.47716 0.0332 0.0
C2645 C 0.84051 0.58073 0.00384 0.0
C2646 C 0.82115 0.58364 0.00965 0.0
C2647 C 0.85248 0.56791 0.01405 0.0
C2648 C 0.84514 0.55747 0.02995 0.0
C2649 C 0.826 0.56079 0.03624 0.0
C2650 C 0.81414 0.5741 0.02631 0.0
C2651 C 0.85704 0.54168 0.03827 0.0
C2652 C 0.8522 0.52232 0.03257 0.0
C2653 C 0.87502 0.54588 0.0482 0.0
C2654 C 0.88041 0.56609 0.05505 0.0
C2655 C 0.86746 0.57692 0.06662 0.0
C2656 C 0.87251 0.59597 0.07296 0.0
C2657 C 0.89053 0.60436 0.0679 0.0
C2658 C 0.90354 0.59369 0.05651 0.0
C2659 C 0.89855 0.57463 0.05011 0.0
H2660 H 0.89442 0.61912 0.07283 0.0
H2661 H 0.84701 0.4361 0.00442 0.0
H2662 H 0.06559 0.00439 0.00123 0.0
H2663 H 0.09282 0.98162 0.99909 0.0
H2664 H 0.10346 0.98794 0.06153 0.0
H2665 H 0.07639 0.01093 0.06373 0.0
H2666 H 0.13758 0.99013 0.04043 0.0
H2667 H 0.08076 0.94758 0.04369 0.0
H2668 H 0.04793 0.93492 0.03355 0.0
H2669 H 0.06913 0.92085 0.97616 0.0
H2670 H 0.10204 0.9337 0.98589 0.0
H2671 H 0.2015 0.91071 0.05319 0.0
H2672 H 0.17394 0.93293 0.05526 0.0
H2673 H 0.1599 0.9219 0.99397 0.0
H2674 H 0.1872 0.89924 0.99191 0.0
H2675 H 0.12741 0.92231 0.01425 0.0
H2676 H 0.18389 0.9647 0.01025 0.0
H2677 H 0.21676 0.97787 0.01954 0.0
H2678 H 0.19648 0.99295 0.07703 0.0
H2679 H 0.16354 0.97961 0.06817 0.0
C2680 C 0.07381 0.00102 0.01448 0.0
C2681 C 0.06881 0.00943 0.03266 0.0
C2682 C 0.08927 0.9879 0.01326 0.0
C2683 C 0.10008 0.98295 0.03018 0.0
C2684 C 0.09529 0.99151 0.0483 0.0
C2685 C 0.07974 0.00453 0.04956 0.0
C2686 C 0.11641 0.96889 0.02896 0.0
C2687 C 0.13533 0.97522 0.03496 0.0
C2688 C 0.11356 0.9496 0.02131 0.0
C2689 C 0.09381 0.94178 0.01546 0.0
C2690 C 0.07838 0.94194 0.02886 0.0
C2691 C 0.05977 0.9347 0.02319 0.0
C2692 C 0.05644 0.92713 0.0042 0.0
C2693 C 0.07173 0.92674 0.99086 0.0
C2694 C 0.09037 0.93398 0.99644 0.0
C2695 C 0.19254 0.91297 0.04014 0.0
C2696 C 0.19663 0.90325 0.02235 0.0
C2697 C 0.17682 0.92578 0.04132 0.0
C2698 C 0.165 0.92939 0.02469 0.0
C2699 C 0.16883 0.91942 0.007 0.0
C2700 C 0.18447 0.90648 0.00583 0.0
C2701 C 0.14865 0.94352 0.02576 0.0
C2702 C 0.12971 0.93722 0.01972 0.0
C2703 C 0.15151 0.9629 0.03324 0.0
C2704 C 0.17129 0.97098 0.0386 0.0
C2705 C 0.18647 0.97069 0.02492 0.0
C2706 C 0.20511 0.97821 0.0301 0.0
C2707 C 0.20872 0.9862 0.04888 0.0
C2708 C 0.19367 0.98673 0.0625 0.0
C2709 C 0.17501 0.97921 0.0574 0.0
H2710 H 0.22316 0.99201 0.05286 0.0
H2711 H 0.04201 0.92153 -0.00015 0.0
loop_
_geom_bond_atom_site_label_1
_geom_bond_atom_site_label_2
_geom_bond_distance
_geom_bond_site_symmetry_2
_ccdc_geom_bond_type
H0 C3 0.931 . S
H1 C6 0.928 . S
H2 C8 0.930 . S
C3 H0 0.931 . S
C3 C4 1.413 . S
C3 C5 1.360 . S
C4 C3 1.413 . S
C4 C8 1.429 . S
C5 C3 1.360 . S
C5 C6 1.372 . S
C6 H1 0.928 . S
C6 C5 1.372 . S
C6 C7 1.404 . S
C7 C6 1.404 . S
C7 C8 1.391 . S
C8 H2 0.930 . S
C8 C4 1.429 . S
C8 C7 1.391 . S
H9 C12 0.931 . S
H10 C15 0.928 . S
H11 C17 0.930 . S
C12 H9 0.931 . S
C12 C13 1.413 . S
C12 C14 1.360 . S
C13 C12 1.413 . S
C13 C17 1.429 . S
C14 C12 1.360 . S
C14 C15 1.372 . S
C15 H10 0.928 . S
C15 C14 1.372 . S
C15 C16 1.404 . S
C16 C15 1.404 . S
C16 C17 1.391 . S
C17 H11 0.930 . S
C17 C13 1.429 . S
C17 C16 1.391 . S
H18 C21 0.931 . S
H19 C24 0.928 . S
H20 C26 0.930 . S
C21 H18 0.931 . S
C21 C22 1.413 . S
C21 C23 1.360 . S
C22 C21 1.413 . S
C22 C26 1.429 . S
C23 C21 1.360 . S
C23 C24 1.372 . S
C24 H19 0.928 . S
C24 C23 1.372 . S
C24 C25 1.404 . S
C25 C24 1.404 . S
C25 C26 1.391 . S
C26 H20 0.930 . S
C26 C22 1.429 . S
C26 C25 1.391 . S
H27 C30 0.931 . S
H28 C33 0.928 . S
H29 C35 0.930 . S
C30 H27 0.931 . S
C30 C31 1.413 . S
C30 C32 1.360 . S
C31 C30 1.413 . S
C31 C35 1.429 . S
C32 C30 1.360 . S
C32 C33 1.372 . S
C33 H28 0.928 . S
C33 C32 1.372 . S
C33 C34 1.404 . S
C34 C33 1.404 . S
C34 C35 1.391 . S
C35 H29 0.930 . S
C35 C31 1.429 . S
C35 C34 1.391 . S
H36 C39 0.931 . S
H37 C42 0.928 . S
H38 C44 0.930 . S
C39 H36 0.931 . S
C39 C40 1.413 . S
C39 C41 1.360 . S
C40 C39 1.413 . S
C40 C44 1.429 . S
C41 C39 1.360 . S
C41 C42 1.372 . S
C42 H37 0.928 . S
C42 C41 1.372 . S
C42 C43 1.404 . S
C43 C42 1.404 . S
C43 C44 1.391 . S
C44 H38 0.930 . S
C44 C40 1.429 . S
C44 C43 1.391 . S
H45 C48 0.931 . S
H46 C51 0.928 . S
H47 C53 0.930 . S
C48 H45 0.931 . S
C48 C49 1.413 . S
C48 C50 1.360 . S
C49 C48 1.413 . S
C49 C53 1.429 . S
C50 C48 1.360 . S
C50 C51 1.372 . S
C51 H46 0.928 . S
C51 C50 1.372 . S
C51 C52 1.404 . S
C52 C51 1.404 . S
C52 C53 1.391 . S
C53 H47 0.930 . S
C53 C49 1.429 . S
C53 C52 1.391 . S
H54 C57 0.931 . S
H55 C60 0.928 . S
H56 C62 0.930 . S
C57 H54 0.931 . S
C57 C58 1.413 . S
C57 C59 1.360 . S
C58 C57 1.413 . S
C58 C62 1.429 . S
C59 C57 1.360 . S
C59 C60 1.372 . S
C60 H55 0.928 . S
C60 C59 1.372 . S
C60 C61 1.404 . S
C61 C60 1.404 . S
C61 C62 1.391 . S
C62 H56 0.930 . S
C62 C58 1.429 . S
C62 C61 1.391 . S
H63 C66 0.931 . S
H64 C69 0.928 . S
H65 C71 0.930 . S
C66 H63 0.931 . S
C66 C67 1.413 . S
C66 C68 1.360 . S
C67 C66 1.413 . S
C67 C71 1.429 . S
C68 C66 1.360 . S
C68 C69 1.372 . S
C69 H64 0.928 . S
C69 C68 1.372 . S
C69 C70 1.404 . S
C70 C69 1.404 . S
C70 C71 1.391 . S
C71 H65 0.930 . S
C71 C67 1.429 . S
C71 C70 1.391 . S
H72 C75 0.931 . S
H73 C78 0.928 . S
H74 C80 0.930 . S
C75 H72 0.931 . S
C75 C76 1.413 . S
C75 C77 1.360 . S
C76 C75 1.413 . S
C76 C80 1.429 . S
C77 C75 1.360 . S
C77 C78 1.372 . S
C78 H73 0.928 . S
C78 C77 1.372 . S
C78 C79 1.404 . S
C79 C78 1.404 . S
C79 C80 1.391 . S
C80 H74 0.930 . S
C80 C76 1.429 . S
C80 C79 1.391 . S
H81 C84 0.931 . S
H82 C87 0.928 . S
H83 C89 0.930 . S
C84 H81 0.931 . S
C84 C85 1.413 . S
C84 C86 1.360 . S
C85 C84 1.413 . S
C85 C89 1.429 . S
C86 C84 1.360 . S
C86 C87 1.372 . S
C87 H82 0.928 . S
C87 C86 1.372 . S
C87 C88 1.404 . S
C88 C87 1.404 . S
C88 C89 1.391 . S
C89 H83 0.930 . S
C89 C85 1.429 . S
C89 C88 1.391 . S
H90 C93 0.931 . S
H91 C96 0.928 . S
H92 C98 0.930 . S
C93 H90 0.931 . S
C93 C94 1.413 . S
C93 C95 1.360 . S
C94 C93 1.413 . S
C94 C98 1.429 . S
C95 C93 1.360 . S
C95 C96 1.372 . S
C96 H91 0.928 . S
C96 C95 1.372 . S
C96 C97 1.404 . S
C97 C96 1.404 . S
C97 C98 1.391 . S
C98 H92 0.930 . S
C98 C94 1.429 . S
C98 C97 1.391 . S
H99 C102 0.931 . S
H100 C105 0.928 . S
H101 C107 0.930 . S
C102 H99 0.931 . S
C102 C103 1.413 . S
C102 C104 1.360 . S
C103 C102 1.413 . S
C103 C107 1.429 . S
C104 C102 1.360 . S
C104 C105 1.372 . S
C105 H100 0.928 . S
C105 C104 1.372 . S
C105 C106 1.404 . S
C106 C105 1.404 . S
C106 C107 1.391 . S
C107 H101 0.930 . S
C107 C103 1.429 . S
C107 C106 1.391 . S
H108 C111 0.931 . S
H109 C114 0.928 . S
H110 C116 0.930 . S
C111 H108 0.931 . S
C111 C112 1.413 . S
C111 C113 1.360 . S
C112 C111 1.413 . S
C112 C116 1.429 . S
C113 C111 1.360 . S
C113 C114 1.372 . S
C114 H109 0.928 . S
C114 C113 1.372 . S
C114 C115 1.404 . S
C115 C114 1.404 . S
C115 C116 1.391 . S
C116 H110 0.930 . S
C116 C112 1.429 . S
C116 C115 1.391 . S
H117 C120 0.931 . S
H118 C123 0.928 . S
H119 C125 0.930 . S
C120 H117 0.931 . S
C120 C121 1.413 . S
C120 C122 1.360 . S
C121 C120 1.413 . S
C121 C125 1.429 . S
C122 C120 1.360 . S
C122 C123 1.372 . S
C123 H118 0.928 . S
C123 C122 1.372 . S
C123 C124 1.404 . S
C124 C123 1.404 . S
C124 C125 1.391 . S
C125 H119 0.930 . S
C125 C121 1.429 . S
C125 C124 1.391 . S
H126 C129 0.931 . S
H127 C132 0.928 . S
H128 C134 0.930 . S
C129 H126 0.931 . S
C129 C130 1.413 . S
C129 C131 1.360 . S
C130 C129 1.413 . S
C130 C134 1.429 . S
C131 C129 1.360 . S
C131 C132 1.372 . S
C132 H127 0.928 . S
C132 C131 1.372 . S
C132 C133 1.404 . S
C133 C132 1.404 . S
C133 C134 1.391 . S
C134 H128 0.930 . S
C134 C130 1.429 . S
C134 C133 1.391 . S
H135 C138 0.931 . S
H136 C141 0.928 . S
H137 C143 0.930 . S
C138 H135 0.931 . S
C138 C139 1.413 . S
C138 C140 1.360 . S
C139 C138 1.413 . S
C139 C143 1.429 . S
C140 C138 1.360 . S
C140 C141 1.372 . S
C141 H136 0.928 . S
C141 C140 1.372 . S
C141 C142 1.404 . S
C142 C141 1.404 . S
C142 C143 1.391 . S
C143 H137 0.930 . S
C143 C139 1.429 . S
C143 C142 1.391 . S
Zn144 O147 2.026 1_556 S
Zn144 O149 2.053 . S
Zn144 O154 2.075 . S
Zn145 O146 1.962 . S
Zn145 O148 1.986 . S
Zn145 O150 1.996 . S
Zn145 O153 1.943 1_554 S
O146 Zn145 1.962 . S
O146 C151 1.254 . S
O147 Zn144 2.026 1_554 S
O147 C151 1.269 . S
O148 Zn145 1.986 . S
O148 C155 1.262 . S
O149 Zn144 2.053 . S
O149 C157 1.260 . S
O150 Zn145 1.996 . S
O150 C157 1.257 1_554 S
C151 O146 1.254 . S
C151 O147 1.269 . S
C152 O153 1.249 . S
C152 O154 1.270 . S
O153 Zn145 1.943 1_556 S
O153 C152 1.249 . S
O154 Zn144 2.075 . S
O154 C152 1.270 . S
C155 O148 1.262 . S
C155 O156 1.232 . S
O156 C155 1.232 . S
C157 O149 1.260 . S
C157 O150 1.257 1_556 S
Zn158 O161 2.031 . S
Zn158 O163 2.049 . S
Zn158 O168 2.067 . S
Zn159 O160 1.962 . S
Zn159 O162 1.986 . S
Zn159 O164 1.996 . S
Zn159 O167 1.943 . S
O160 Zn159 1.962 . S
O160 C165 1.254 . S
O161 Zn158 2.031 . S
O161 C165 1.269 . S
O162 Zn159 1.986 . S
O162 C169 1.262 . S
O163 Zn158 2.049 . S
O163 C171 1.260 . S
O164 Zn159 1.996 . S
O164 C171 1.257 . S
C165 O160 1.254 . S
C165 O161 1.269 . S
C166 O167 1.249 . S
C166 O168 1.270 . S
O167 Zn159 1.943 . S
O167 C166 1.249 . S
O168 Zn158 2.067 . S
O168 C166 1.270 . S
C169 O162 1.262 . S
C169 O170 1.232 . S
O170 C169 1.232 . S
C171 O163 1.260 . S
C171 O164 1.257 . S
Zn172 O175 2.031 . S
Zn172 O177 2.049 . S
Zn172 O182 2.067 . S
Zn173 O174 1.962 . S
Zn173 O176 1.986 . S
Zn173 O178 1.996 1_554 S
Zn173 O181 1.943 . S
O174 Zn173 1.962 . S
O174 C179 1.254 . S
O175 Zn172 2.031 . S
O175 C179 1.269 1_556 S
O176 Zn173 1.986 . S
O176 C183 1.262 . S
O177 Zn172 2.049 . S
O177 C185 1.260 . S
O178 Zn173 1.996 1_556 S
O178 C185 1.257 . S
C179 O174 1.254 . S
C179 O175 1.269 1_554 S
C180 O181 1.249 1_556 S
C180 O182 1.270 . S
O181 Zn173 1.943 . S
O181 C180 1.249 1_554 S
O182 Zn172 2.067 . S
O182 C180 1.270 . S
C183 O176 1.262 . S
C183 O184 1.232 . S
O184 C183 1.232 . S
C185 O177 1.260 . S
C185 O178 1.257 . S
Zn186 O189 2.041 . S
Zn186 O191 2.042 1_545 S
Zn186 O196 2.054 1_545 S
Zn187 O188 1.962 . S
Zn187 O190 1.986 . S
Zn187 O192 1.996 . S
Zn187 O195 1.943 1_545 S
O188 Zn187 1.962 . S
O188 C193 1.254 . S
O189 Zn186 2.041 . S
O189 C193 1.269 . S
O190 Zn187 1.986 . S
O190 C197 1.262 . S
O191 Zn186 2.042 1_565 S
O191 C199 1.260 . S
O192 Zn187 1.996 . S
O192 C199 1.257 1_545 S
C193 O188 1.254 . S
C193 O189 1.269 . S
C194 O195 1.249 . S
C194 O196 1.270 . S
O195 Zn187 1.943 1_565 S
O195 C194 1.249 . S
O196 Zn186 2.054 1_565 S
O196 C194 1.270 . S
C197 O190 1.262 . S
C197 O198 1.232 . S
O198 C197 1.232 . S
C199 O191 1.260 . S
C199 O192 1.257 1_565 S
Zn200 O203 2.031 . S
Zn200 O205 2.049 . S
Zn200 O210 2.067 . S
Zn201 O202 1.962 . S
Zn201 O204 1.986 . S
Zn201 O206 1.996 . S
Zn201 O209 1.943 . S
O202 Zn201 1.962 . S
O202 C207 1.254 . S
O203 Zn200 2.031 . S
O203 C207 1.269 . S
O204 Zn201 1.986 . S
O204 C211 1.262 . S
O205 Zn200 2.049 . S
O205 C213 1.260 . S
O206 Zn201 1.996 . S
O206 C213 1.257 . S
C207 O202 1.254 . S
C207 O203 1.269 . S
C208 O209 1.249 . S
C208 O210 1.270 . S
O209 Zn201 1.943 . S
O209 C208 1.249 . S
O210 Zn200 2.067 . S
O210 C208 1.270 . S
C211 O204 1.262 . S
C211 O212 1.232 . S
O212 C211 1.232 . S
C213 O205 1.260 . S
C213 O206 1.257 . S
Zn214 O217 2.031 . S
Zn214 O219 2.049 . S
Zn214 O224 2.067 . S
Zn215 O216 1.962 . S
Zn215 O218 1.986 . S
Zn215 O220 1.996 . S
Zn215 O223 1.943 . S
O216 Zn215 1.962 . S
O216 C221 1.254 . S
O217 Zn214 2.031 . S
O217 C221 1.269 . S
O218 Zn215 1.986 . S
O218 C225 1.262 . S
O219 Zn214 2.049 . S
O219 C227 1.260 . S
O220 Zn215 1.996 . S
O220 C227 1.257 . S
C221 O216 1.254 . S
C221 O217 1.269 . S
C222 O223 1.249 . S
C222 O224 1.270 . S
O223 Zn215 1.943 . S
O223 C222 1.249 . S
O224 Zn214 2.067 . S
O224 C222 1.270 . S
C225 O218 1.262 . S
C225 O226 1.232 . S
O226 C225 1.232 . S
C227 O219 1.260 . S
C227 O220 1.257 . S
Zn228 O231 2.031 . S
Zn228 O233 2.049 . S
Zn228 O238 2.067 . S
Zn229 O230 1.962 . S
Zn229 O232 1.986 . S
Zn229 O234 1.996 . S
Zn229 O237 1.943 . S
O230 Zn229 1.962 . S
O230 C235 1.254 . S
O231 Zn228 2.031 . S
O231 C235 1.269 . S
O232 Zn229 1.986 . S
O232 C239 1.262 . S
O233 Zn228 2.049 . S
O233 C241 1.260 . S
O234 Zn229 1.996 . S
O234 C241 1.257 . S
C235 O230 1.254 . S
C235 O231 1.269 . S
C236 O237 1.249 . S
C236 O238 1.270 . S
O237 Zn229 1.943 . S
O237 C236 1.249 . S
O238 Zn228 2.067 . S
O238 C236 1.270 . S
C239 O232 1.262 . S
C239 O240 1.232 . S
O240 C239 1.232 . S
C241 O233 1.260 . S
C241 O234 1.257 . S
Zn242 O245 2.031 . S
Zn242 O247 2.049 . S
Zn242 O252 2.067 . S
Zn243 O244 1.962 . S
Zn243 O246 1.986 . S
Zn243 O248 1.996 1_545 S
Zn243 O251 1.943 . S
O244 Zn243 1.962 . S
O244 C249 1.254 . S
O245 Zn242 2.031 . S
O245 C249 1.269 1_565 S
O246 Zn243 1.986 . S
O246 C253 1.262 . S
O247 Zn242 2.049 . S
O247 C255 1.260 . S
O248 Zn243 1.996 1_565 S
O248 C255 1.257 . S
C249 O244 1.254 . S
C249 O245 1.269 1_545 S
C250 O251 1.249 1_565 S
C250 O252 1.270 . S
O251 Zn243 1.943 . S
O251 C250 1.249 1_545 S
O252 Zn242 2.067 . S
O252 C250 1.270 . S
C253 O246 1.262 . S
C253 O254 1.232 . S
O254 C253 1.232 . S
C255 O247 1.260 . S
C255 O248 1.257 . S
Zn256 O259 2.028 . S
Zn256 O261 2.052 1_455 S
Zn256 O266 2.072 1_455 S
Zn257 O258 1.962 . S
Zn257 O260 1.986 . S
Zn257 O262 1.996 . S
Zn257 O265 1.943 1_455 S
O258 Zn257 1.962 . S
O258 C263 1.254 . S
O259 Zn256 2.028 . S
O259 C263 1.269 . S
O260 Zn257 1.986 . S
O260 C267 1.262 . S
O261 Zn256 2.052 1_655 S
O261 C269 1.260 . S
O262 Zn257 1.996 . S
O262 C269 1.257 1_455 S
C263 O258 1.254 . S
C263 O259 1.269 . S
C264 O265 1.249 . S
C264 O266 1.270 . S
O265 Zn257 1.943 1_655 S
O265 C264 1.249 . S
O266 Zn256 2.072 1_655 S
O266 C264 1.270 . S
C267 O260 1.262 . S
C267 O268 1.232 . S
O268 C267 1.232 . S
C269 O261 1.260 . S
C269 O262 1.257 1_655 S
Zn270 O273 2.031 . S
Zn270 O275 2.049 . S
Zn270 O280 2.067 . S
Zn271 O272 1.962 . S
Zn271 O274 1.986 . S
Zn271 O276 1.996 . S
Zn271 O279 1.943 . S
O272 Zn271 1.962 . S
O272 C277 1.254 . S
O273 Zn270 2.031 . S
O273 C277 1.269 . S
O274 Zn271 1.986 . S
O274 C281 1.262 . S
O275 Zn270 2.049 . S
O275 C283 1.260 . S
O276 Zn271 1.996 . S
O276 C283 1.257 . S
C277 O272 1.254 . S
C277 O273 1.269 . S
C278 O279 1.249 . S
C278 O280 1.270 . S
O279 Zn271 1.943 . S
O279 C278 1.249 . S
O280 Zn270 2.067 . S
O280 C278 1.270 . S
C281 O274 1.262 . S
C281 O282 1.232 . S
O282 C281 1.232 . S
C283 O275 1.260 . S
C283 O276 1.257 . S
Zn284 O287 2.031 . S
Zn284 O289 2.049 . S
Zn284 O294 2.067 . S
Zn285 O286 1.962 . S
Zn285 O288 1.986 . S
Zn285 O290 1.996 1_455 S
Zn285 O293 1.943 . S
O286 Zn285 1.962 . S
O286 C291 1.254 . S
O287 Zn284 2.031 . S
O287 C291 1.269 1_655 S
O288 Zn285 1.986 . S
O288 C295 1.262 . S
O289 Zn284 2.049 . S
O289 C297 1.260 . S
O290 Zn285 1.996 1_655 S
O290 C297 1.257 . S
C291 O286 1.254 . S
C291 O287 1.269 1_455 S
C292 O293 1.249 1_655 S
C292 O294 1.270 . S
O293 Zn285 1.943 . S
O293 C292 1.249 1_455 S
O294 Zn284 2.067 . S
O294 C292 1.270 . S
C295 O288 1.262 . S
C295 O296 1.232 . S
O296 C295 1.232 . S
C297 O289 1.260 . S
C297 O290 1.257 . S
Zn298 O301 2.031 . S
Zn298 O303 2.049 . S
Zn298 O308 2.067 . S
Zn299 O300 1.962 . S
Zn299 O302 1.986 . S
Zn299 O304 1.996 . S
Zn299 O307 1.943 . S
O300 Zn299 1.962 . S
O300 C305 1.254 . S
O301 Zn298 2.031 . S
O301 C305 1.269 . S
O302 Zn299 1.986 . S
O302 C309 1.262 . S
O303 Zn298 2.049 . S
O303 C311 1.260 . S
O304 Zn299 1.996 . S
O304 C311 1.257 . S
C305 O300 1.254 . S
C305 O301 1.269 . S
C306 O307 1.249 . S
C306 O308 1.270 . S
O307 Zn299 1.943 . S
O307 C306 1.249 . S
O308 Zn298 2.067 . S
O308 C306 1.270 . S
C309 O302 1.262 . S
C309 O310 1.232 . S
O310 C309 1.232 . S
C311 O303 1.260 . S
C311 O304 1.257 . S
H312 C330 0.951 . S
H313 C332 0.951 . S
H314 C334 0.950 . S
H315 C335 0.950 . S
H316 C337 0.950 . S
H317 C340 0.950 . S
H318 C341 0.950 . S
H319 C343 0.950 . S
H320 C344 0.950 . S
H321 C345 0.951 . S
H322 C347 0.951 . S
H323 C349 0.950 . S
H324 C350 0.950 . S
H325 C352 0.950 . S
H326 C355 0.950 . S
H327 C356 0.950 . S
H328 C358 0.950 . S
H329 C359 0.950 . S
C330 H312 0.951 . S
C330 C331 1.366 . S
C330 C332 1.388 . S
C331 C330 1.366 . S
C331 C335 1.385 . S
C332 H313 0.951 . S
C332 C330 1.388 . S
C332 C333 1.366 . S
C333 C332 1.366 . S
C333 C334 1.414 . S
C333 C336 1.499 . S
C334 H314 0.950 . S
C334 C333 1.414 . S
C334 C335 1.374 . S
C335 H315 0.950 . S
C335 C331 1.385 . S
C335 C334 1.374 . S
C336 C333 1.499 . S
C336 C337 1.373 . S
C336 C338 1.389 . S
C337 H316 0.950 . S
C337 C336 1.373 . S
C337 C353 1.377 . S
C338 C336 1.389 . S
C338 C339 1.524 . S
C338 C352 1.377 . S
C339 C338 1.524 . S
C339 C340 1.397 . S
C339 C344 1.363 . S
C340 H317 0.950 . S
C340 C339 1.397 . S
C340 C341 1.334 . S
C341 H318 0.950 . S
C341 C340 1.334 . S
C341 C342 1.287 . S
C342 C341 1.287 . S
C342 C343 1.524 . S
C342 H361 0.913 . S
C343 H319 0.950 . S
C343 C342 1.524 . S
C343 C344 1.415 . S
C344 H320 0.950 . S
C344 C339 1.363 . S
C344 C343 1.415 . S
C345 H321 0.951 . S
C345 C346 1.366 . S
C345 C347 1.388 . S
C346 C345 1.366 . S
C346 C350 1.385 . S
C347 H322 0.951 . S
C347 C345 1.388 . S
C347 C348 1.366 . S
C348 C347 1.366 . S
C348 C349 1.414 . S
C348 C351 1.499 . S
C349 H323 0.950 . S
C349 C348 1.414 . S
C349 C350 1.374 . S
C350 H324 0.950 . S
C350 C346 1.385 . S
C350 C349 1.374 . S
C351 C348 1.499 . S
C351 C352 1.373 . S
C351 C353 1.389 . S
C352 H325 0.950 . S
C352 C338 1.377 . S
C352 C351 1.373 . S
C353 C337 1.377 . S
C353 C351 1.389 . S
C353 C354 1.524 . S
C354 C353 1.524 . S
C354 C355 1.397 . S
C354 C359 1.363 . S
C355 H326 0.950 . S
C355 C354 1.397 . S
C355 C356 1.334 . S
C356 H327 0.950 . S
C356 C355 1.334 . S
C356 C357 1.287 . S
C357 C356 1.287 . S
C357 C358 1.524 . S
C357 H360 0.999 . S
C358 H328 0.950 . S
C358 C357 1.524 . S
C358 C359 1.415 . S
C359 H329 0.950 . S
C359 C354 1.363 . S
C359 C358 1.415 . S
H360 C357 0.999 . S
H361 C342 0.913 . S
H362 C380 0.951 . S
H363 C382 0.951 . S
H364 C384 0.953 . S
H365 C385 0.950 . S
H366 C387 0.950 . S
H367 C390 0.950 . S
H368 C391 0.950 . S
H369 C393 0.950 . S
H370 C394 0.950 . S
H371 C395 0.951 . S
H372 C397 0.951 . S
H373 C399 0.950 . S
H374 C400 0.950 . S
H375 C402 0.950 . S
H376 C405 0.950 . S
H377 C406 0.950 . S
H378 C408 0.950 . S
H379 C409 0.950 . S
C380 H362 0.951 . S
C380 C381 1.366 . S
C380 C382 1.388 1_655 S
C381 C380 1.366 . S
C381 C385 1.385 . S
C382 H363 0.951 . S
C382 C380 1.388 1_455 S
C382 C383 1.366 . S
C383 C382 1.366 . S
C383 C384 1.418 . S
C383 C386 1.499 . S
C384 H364 0.953 . S
C384 C383 1.418 . S
C384 C385 1.367 1_455 S
C385 H365 0.950 . S
C385 C381 1.385 . S
C385 C384 1.367 1_655 S
C386 C383 1.499 . S
C386 C387 1.373 . S
C386 C388 1.389 . S
C387 H366 0.950 . S
C387 C386 1.373 . S
C387 C403 1.377 . S
C388 C386 1.389 . S
C388 C389 1.524 . S
C388 C402 1.377 . S
C389 C388 1.524 . S
C389 C390 1.397 1_455 S
C389 C394 1.363 . S
C390 H367 0.950 . S
C390 C389 1.397 1_655 S
C390 C391 1.334 . S
C391 H368 0.950 . S
C391 C390 1.334 . S
C391 C392 1.287 . S
C392 C391 1.287 . S
C392 C393 1.524 . S
C392 H411 0.913 . S
C393 H369 0.950 . S
C393 C392 1.524 . S
C393 C394 1.415 1_655 S
C394 H370 0.950 . S
C394 C389 1.363 . S
C394 C393 1.415 1_455 S
C395 H371 0.951 . S
C395 C396 1.366 . S
C395 C397 1.388 . S
C396 C395 1.366 . S
C396 C400 1.385 . S
C397 H372 0.951 . S
C397 C395 1.388 . S
C397 C398 1.366 . S
C398 C397 1.366 . S
C398 C399 1.414 . S
C398 C401 1.499 . S
C399 H373 0.950 . S
C399 C398 1.414 . S
C399 C400 1.374 . S
C400 H374 0.950 . S
C400 C396 1.385 . S
C400 C399 1.374 . S
C401 C398 1.499 . S
C401 C402 1.373 . S
C401 C403 1.389 . S
C402 H375 0.950 . S
C402 C388 1.377 . S
C402 C401 1.373 . S
C403 C387 1.377 . S
C403 C401 1.389 . S
C403 C404 1.524 . S
C404 C403 1.524 . S
C404 C405 1.397 . S
C404 C409 1.363 . S
C405 H376 0.950 . S
C405 C404 1.397 . S
C405 C406 1.334 . S
C406 H377 0.950 . S
C406 C405 1.334 . S
C406 C407 1.287 . S
C407 C406 1.287 . S
C407 C408 1.524 . S
C407 H410 0.999 . S
C408 H378 0.950 . S
C408 C407 1.524 . S
C408 C409 1.415 . S
C409 H379 0.950 . S
C409 C404 1.363 . S
C409 C408 1.415 . S
H410 C407 0.999 . S
H411 C392 0.913 . S
H412 C430 0.951 . S
H413 C432 0.951 . S
H414 C434 0.950 . S
H415 C435 0.950 . S
H416 C437 0.950 . S
H417 C440 0.950 . S
H418 C441 0.950 . S
H419 C443 0.950 . S
H420 C444 0.950 . S
H421 C445 0.951 . S
H422 C447 0.951 . S
H423 C449 0.950 . S
H424 C450 0.950 . S
H425 C452 0.950 . S
H426 C455 0.950 . S
H427 C456 0.950 . S
H428 C458 0.950 . S
H429 C459 0.950 . S
C430 H412 0.951 . S
C430 C431 1.366 . S
C430 C432 1.388 . S
C431 C430 1.366 . S
C431 C435 1.385 . S
C432 H413 0.951 . S
C432 C430 1.388 . S
C432 C433 1.366 . S
C433 C432 1.366 . S
C433 C434 1.414 . S
C433 C436 1.499 . S
C434 H414 0.950 . S
C434 C433 1.414 . S
C434 C435 1.374 . S
C435 H415 0.950 . S
C435 C431 1.385 . S
C435 C434 1.374 . S
C436 C433 1.499 . S
C436 C437 1.373 . S
C436 C438 1.389 . S
C437 H416 0.950 . S
C437 C436 1.373 . S
C437 C453 1.377 . S
C438 C436 1.389 . S
C438 C439 1.524 . S
C438 C452 1.377 . S
C439 C438 1.524 . S
C439 C440 1.397 . S
C439 C444 1.363 . S
C440 H417 0.950 . S
C440 C439 1.397 . S
C440 C441 1.334 . S
C441 H418 0.950 . S
C441 C440 1.334 . S
C441 C442 1.287 . S
C442 C441 1.287 . S
C442 C443 1.524 . S
C442 H461 0.913 . S
C443 H419 0.950 . S
C443 C442 1.524 . S
C443 C444 1.415 . S
C444 H420 0.950 . S
C444 C439 1.363 . S
C444 C443 1.415 . S
C445 H421 0.951 . S
C445 C446 1.366 . S
C445 C447 1.388 . S
C446 C445 1.366 . S
C446 C450 1.385 . S
C447 H422 0.951 . S
C447 C445 1.388 . S
C447 C448 1.366 . S
C448 C447 1.366 . S
C448 C449 1.414 . S
C448 C451 1.499 . S
C449 H423 0.950 . S
C449 C448 1.414 . S
C449 C450 1.374 . S
C450 H424 0.950 . S
C450 C446 1.385 . S
C450 C449 1.374 . S
C451 C448 1.499 . S
C451 C452 1.373 . S
C451 C453 1.389 . S
C452 H425 0.950 . S
C452 C438 1.377 . S
C452 C451 1.373 . S
C453 C437 1.377 . S
C453 C451 1.389 . S
C453 C454 1.524 . S
C454 C453 1.524 . S
C454 C455 1.397 . S
C454 C459 1.363 . S
C455 H426 0.950 . S
C455 C454 1.397 . S
C455 C456 1.334 . S
C456 H427 0.950 . S
C456 C455 1.334 . S
C456 C457 1.287 . S
C457 C456 1.287 . S
C457 C458 1.524 . S
C457 H460 0.999 . S
C458 H428 0.950 . S
C458 C457 1.524 . S
C458 C459 1.415 . S
C459 H429 0.950 . S
C459 C454 1.363 . S
C459 C458 1.415 . S
H460 C457 0.999 . S
H461 C442 0.913 . S
H462 C480 0.951 . S
H463 C482 0.951 . S
H464 C484 0.950 . S
H465 C485 0.950 . S
H466 C487 0.950 . S
H467 C490 0.950 . S
H468 C491 0.950 . S
H469 C493 0.950 . S
H470 C494 0.950 . S
H471 C495 0.951 . S
H472 C497 0.951 . S
H473 C499 0.950 . S
H474 C500 0.950 1_545 S
H475 C502 0.950 1_545 S
H476 C505 0.950 . S
H477 C506 0.950 . S
H478 C508 0.950 . S
H479 C509 0.950 . S
C480 H462 0.951 . S
C480 C481 1.366 . S
C480 C482 1.388 . S
C481 C480 1.366 . S
C481 C485 1.385 . S
C482 H463 0.951 . S
C482 C480 1.388 . S
C482 C483 1.366 . S
C483 C482 1.366 . S
C483 C484 1.414 1_455 S
C483 C486 1.499 1_455 S
C484 H464 0.950 . S
C484 C483 1.414 1_655 S
C484 C485 1.374 1_655 S
C485 H465 0.950 . S
C485 C481 1.385 . S
C485 C484 1.374 1_455 S
C486 C483 1.499 1_655 S
C486 C487 1.373 . S
C486 C488 1.389 . S
C487 H466 0.950 . S
C487 C486 1.373 . S
C487 C503 1.377 . S
C488 C486 1.389 . S
C488 C489 1.524 1_565 S
C488 C502 1.377 . S
C489 C488 1.524 1_545 S
C489 C490 1.397 . S
C489 C494 1.363 1_655 S
C490 H467 0.950 . S
C490 C489 1.397 . S
C490 C491 1.334 1_655 S
C491 H468 0.950 . S
C491 C490 1.334 1_455 S
C491 C492 1.287 . S
C492 C491 1.287 . S
C492 C493 1.524 . S
C492 H511 0.913 . S
C493 H469 0.950 . S
C493 C492 1.524 . S
C493 C494 1.415 . S
C494 H470 0.950 . S
C494 C489 1.363 1_455 S
C494 C493 1.415 . S
C495 H471 0.951 . S
C495 C496 1.366 . S
C495 C497 1.388 . S
C496 C495 1.366 . S
C496 C500 1.385 . S
C497 H472 0.951 . S
C497 C495 1.388 . S
C497 C498 1.366 . S
C498 C497 1.366 . S
C498 C499 1.414 . S
C498 C501 1.499 . S
C499 H473 0.950 . S
C499 C498 1.414 . S
C499 C500 1.374 . S
C500 H474 0.950 1_565 S
C500 C496 1.385 . S
C500 C499 1.374 . S
C501 C498 1.499 . S
C501 C502 1.373 . S
C501 C503 1.389 . S
C502 H475 0.950 1_565 S
C502 C488 1.377 . S
C502 C501 1.373 . S
C503 C487 1.377 . S
C503 C501 1.389 . S
C503 C504 1.524 . S
C504 C503 1.524 . S
C504 C505 1.397 . S
C504 C509 1.363 . S
C505 H476 0.950 . S
C505 C504 1.397 . S
C505 C506 1.334 . S
C506 H477 0.950 . S
C506 C505 1.334 . S
C506 C507 1.287 . S
C507 C506 1.287 . S
C507 C508 1.524 . S
C507 H510 0.999 . S
C508 H478 0.950 . S
C508 C507 1.524 . S
C508 C509 1.415 . S
C509 H479 0.950 . S
C509 C504 1.363 . S
C509 C508 1.415 . S
H510 C507 0.999 . S
H511 C492 0.913 . S
H512 C530 0.951 . S
H513 C532 0.951 . S
H514 C534 0.950 . S
H515 C535 0.950 . S
H516 C537 0.950 . S
H517 C540 0.950 . S
H518 C541 0.950 . S
H519 C543 0.950 . S
H520 C544 0.950 . S
H521 C545 0.951 . S
H522 C547 0.951 . S
H523 C549 0.950 . S
H524 C550 0.950 . S
H525 C552 0.950 . S
H526 C555 0.950 . S
H527 C556 0.950 . S
H528 C558 0.950 . S
H529 C559 0.950 . S
C530 H512 0.951 . S
C530 C531 1.366 . S
C530 C532 1.388 . S
C531 C530 1.366 . S
C531 C535 1.385 . S
C532 H513 0.951 . S
C532 C530 1.388 . S
C532 C533 1.366 . S
C533 C532 1.366 . S
C533 C534 1.414 . S
C533 C536 1.499 . S
C534 H514 0.950 . S
C534 C533 1.414 . S
C534 C535 1.374 . S
C535 H515 0.950 . S
C535 C531 1.385 . S
C535 C534 1.374 . S
C536 C533 1.499 . S
C536 C537 1.373 . S
C536 C538 1.389 . S
C537 H516 0.950 . S
C537 C536 1.373 . S
C537 C553 1.377 . S
C538 C536 1.389 . S
C538 C539 1.524 . S
C538 C552 1.377 . S
C539 C538 1.524 . S
C539 C540 1.397 . S
C539 C544 1.363 . S
C540 H517 0.950 . S
C540 C539 1.397 . S
C540 C541 1.334 . S
C541 H518 0.950 . S
C541 C540 1.334 . S
C541 C542 1.287 . S
C542 C541 1.287 . S
C542 C543 1.524 . S
C542 H561 0.913 . S
C543 H519 0.950 . S
C543 C542 1.524 . S
C543 C544 1.415 . S
C544 H520 0.950 . S
C544 C539 1.363 . S
C544 C543 1.415 . S
C545 H521 0.951 . S
C545 C546 1.366 . S
C545 C547 1.388 . S
C546 C545 1.366 . S
C546 C550 1.385 . S
C547 H522 0.951 . S
C547 C545 1.388 . S
C547 C548 1.366 . S
C548 C547 1.366 . S
C548 C549 1.414 . S
C548 C551 1.499 . S
C549 H523 0.950 . S
C549 C548 1.414 . S
C549 C550 1.374 . S
C550 H524 0.950 . S
C550 C546 1.385 . S
C550 C549 1.374 . S
C551 C548 1.499 . S
C551 C552 1.373 . S
C551 C553 1.389 . S
C552 H525 0.950 . S
C552 C538 1.377 . S
C552 C551 1.373 . S
C553 C537 1.377 . S
C553 C551 1.389 . S
C553 C554 1.524 . S
C554 C553 1.524 . S
C554 C555 1.397 . S
C554 C559 1.363 . S
C555 H526 0.950 . S
C555 C554 1.397 . S
C555 C556 1.334 . S
C556 H527 0.950 . S
C556 C555 1.334 . S
C556 C557 1.287 . S
C557 C556 1.287 . S
C557 C558 1.524 . S
C557 H560 0.999 . S
C558 H528 0.950 . S
C558 C557 1.524 . S
C558 C559 1.415 . S
C559 H529 0.950 . S
C559 C554 1.363 . S
C559 C558 1.415 . S
H560 C557 0.999 . S
H561 C542 0.913 . S
H562 C580 0.951 . S
H563 C582 0.951 . S
H564 C584 0.950 . S
H565 C585 0.950 . S
H566 C587 0.950 . S
H567 C590 0.950 . S
H568 C591 0.950 . S
H569 C593 0.950 . S
H570 C594 0.950 . S
H571 C595 0.951 . S
H572 C597 0.951 . S
H573 C599 0.950 . S
H574 C600 0.950 . S
H575 C602 0.950 . S
H576 C605 0.950 . S
H577 C606 0.950 . S
H578 C608 0.950 . S
H579 C609 0.950 . S
C580 H562 0.951 . S
C580 C581 1.366 . S
C580 C582 1.388 . S
C581 C580 1.366 . S
C581 C585 1.385 . S
C582 H563 0.951 . S
C582 C580 1.388 . S
C582 C583 1.366 . S
C583 C582 1.366 . S
C583 C584 1.414 . S
C583 C586 1.499 . S
C584 H564 0.950 . S
C584 C583 1.414 . S
C584 C585 1.374 . S
C585 H565 0.950 . S
C585 C581 1.385 . S
C585 C584 1.374 . S
C586 C583 1.499 . S
C586 C587 1.373 . S
C586 C588 1.389 . S
C587 H566 0.950 . S
C587 C586 1.373 . S
C587 C603 1.377 . S
C588 C586 1.389 . S
C588 C589 1.524 . S
C588 C602 1.377 . S
C589 C588 1.524 . S
C589 C590 1.397 . S
C589 C594 1.363 . S
C590 H567 0.950 . S
C590 C589 1.397 . S
C590 C591 1.334 . S
C591 H568 0.950 . S
C591 C590 1.334 . S
C591 C592 1.287 . S
C592 C591 1.287 . S
C592 C593 1.524 . S
C592 H611 0.913 . S
C593 H569 0.950 . S
C593 C592 1.524 . S
C593 C594 1.415 . S
C594 H570 0.950 . S
C594 C589 1.363 . S
C594 C593 1.415 . S
C595 H571 0.951 . S
C595 C596 1.366 . S
C595 C597 1.388 . S
C596 C595 1.366 . S
C596 C600 1.385 . S
C597 H572 0.951 . S
C597 C595 1.388 . S
C597 C598 1.366 . S
C598 C597 1.366 . S
C598 C599 1.414 . S
C598 C601 1.499 . S
C599 H573 0.950 . S
C599 C598 1.414 . S
C599 C600 1.374 . S
C600 H574 0.950 . S
C600 C596 1.385 . S
C600 C599 1.374 . S
C601 C598 1.499 . S
C601 C602 1.373 . S
C601 C603 1.389 . S
C602 H575 0.950 . S
C602 C588 1.377 . S
C602 C601 1.373 . S
C603 C587 1.377 . S
C603 C601 1.389 . S
C603 C604 1.524 . S
C604 C603 1.524 . S
C604 C605 1.397 . S
C604 C609 1.363 . S
C605 H576 0.950 . S
C605 C604 1.397 . S
C605 C606 1.334 . S
C606 H577 0.950 . S
C606 C605 1.334 . S
C606 C607 1.287 . S
C607 C606 1.287 . S
C607 C608 1.524 . S
C607 H610 0.999 . S
C608 H578 0.950 . S
C608 C607 1.524 . S
C608 C609 1.415 . S
C609 H579 0.950 . S
C609 C604 1.363 . S
C609 C608 1.415 . S
H610 C607 0.999 . S
H611 C592 0.913 . S
H612 C630 0.951 . S
H613 C632 0.951 . S
H614 C634 0.950 . S
H615 C635 0.950 . S
H616 C637 0.950 . S
H617 C640 0.950 . S
H618 C641 0.950 . S
H619 C643 0.950 . S
H620 C644 0.950 . S
H621 C645 0.951 . S
H622 C647 0.951 . S
H623 C649 0.950 . S
H624 C650 0.950 . S
H625 C652 0.950 . S
H626 C655 0.950 . S
H627 C656 0.950 . S
H628 C658 0.950 . S
H629 C659 0.950 . S
C630 H612 0.951 . S
C630 C631 1.366 . S
C630 C632 1.388 . S
C631 C630 1.366 . S
C631 C635 1.385 . S
C632 H613 0.951 . S
C632 C630 1.388 . S
C632 C633 1.366 . S
C633 C632 1.366 . S
C633 C634 1.414 . S
C633 C636 1.499 . S
C634 H614 0.950 . S
C634 C633 1.414 . S
C634 C635 1.374 . S
C635 H615 0.950 . S
C635 C631 1.385 . S
C635 C634 1.374 . S
C636 C633 1.499 . S
C636 C637 1.373 . S
C636 C638 1.389 . S
C637 H616 0.950 . S
C637 C636 1.373 . S
C637 C653 1.377 . S
C638 C636 1.389 . S
C638 C639 1.524 . S
C638 C652 1.377 . S
C639 C638 1.524 . S
C639 C640 1.397 . S
C639 C644 1.363 . S
C640 H617 0.950 . S
C640 C639 1.397 . S
C640 C641 1.334 . S
C641 H618 0.950 . S
C641 C640 1.334 . S
C641 C642 1.287 . S
C642 C641 1.287 . S
C642 C643 1.524 . S
C642 H661 0.913 . S
C643 H619 0.950 . S
C643 C642 1.524 . S
C643 C644 1.415 . S
C644 H620 0.950 . S
C644 C639 1.363 . S
C644 C643 1.415 . S
C645 H621 0.951 . S
C645 C646 1.366 . S
C645 C647 1.388 . S
C646 C645 1.366 . S
C646 C650 1.385 . S
C647 H622 0.951 . S
C647 C645 1.388 . S
C647 C648 1.366 . S
C648 C647 1.366 . S
C648 C649 1.414 . S
C648 C651 1.499 . S
C649 H623 0.950 . S
C649 C648 1.414 . S
C649 C650 1.374 . S
C650 H624 0.950 . S
C650 C646 1.385 . S
C650 C649 1.374 . S
C651 C648 1.499 . S
C651 C652 1.373 . S
C651 C653 1.389 . S
C652 H625 0.950 . S
C652 C638 1.377 . S
C652 C651 1.373 . S
C653 C637 1.377 . S
C653 C651 1.389 . S
C653 C654 1.524 . S
C654 C653 1.524 . S
C654 C655 1.397 . S
C654 C659 1.363 . S
C655 H626 0.950 . S
C655 C654 1.397 . S
C655 C656 1.334 . S
C656 H627 0.950 . S
C656 C655 1.334 . S
C656 C657 1.287 . S
C657 C656 1.287 . S
C657 C658 1.524 . S
C657 H660 0.999 . S
C658 H628 0.950 . S
C658 C657 1.524 . S
C658 C659 1.415 . S
C659 H629 0.950 . S
C659 C654 1.363 . S
C659 C658 1.415 . S
H660 C657 0.999 . S
H661 C642 0.913 . S
H662 C680 0.951 . S
H663 C682 0.951 . S
H664 C684 0.950 . S
H665 C685 0.950 . S
H666 C687 0.950 . S
H667 C690 0.950 1_545 S
H668 C691 0.950 1_545 S
H669 C693 0.950 . S
H670 C694 0.950 . S
H671 C695 0.951 . S
H672 C697 0.940 1_545 S
H673 C699 0.950 . S
H674 C700 0.950 . S
H675 C702 0.950 . S
H676 C705 0.950 . S
H677 C706 0.950 . S
H678 C708 0.950 . S
H679 C709 0.950 . S
C680 H662 0.951 . S
C680 C681 1.366 . S
C680 C682 1.388 . S
C681 C680 1.366 . S
C681 C685 1.385 . S
C682 H663 0.951 . S
C682 C680 1.388 . S
C682 C683 1.366 . S
C683 C682 1.366 . S
C683 C684 1.414 . S
C683 C686 1.499 . S
C684 H664 0.950 . S
C684 C683 1.414 . S
C684 C685 1.374 . S
C685 H665 0.950 . S
C685 C681 1.385 . S
C685 C684 1.374 . S
C686 C683 1.499 . S
C686 C687 1.373 . S
C686 C688 1.389 . S
C687 H666 0.950 . S
C687 C686 1.373 . S
C687 C703 1.377 . S
C688 C686 1.389 . S
C688 C689 1.524 . S
C688 C702 1.377 . S
C689 C688 1.524 . S
C689 C690 1.397 . S
C689 C694 1.363 . S
C690 H667 0.950 1_565 S
C690 C689 1.397 . S
C690 C691 1.334 . S
C691 H668 0.950 1_565 S
C691 C690 1.334 . S
C691 C692 1.287 . S
C692 C691 1.287 . S
C692 C693 1.524 . S
C692 H711 0.913 . S
C693 H669 0.950 . S
C693 C692 1.524 . S
C693 C694 1.415 . S
C694 H670 0.950 . S
C694 C689 1.363 . S
C694 C693 1.415 . S
C695 H671 0.951 . S
C695 C696 1.366 1_545 S
C695 C697 1.385 1_545 S
C696 C695 1.366 1_565 S
C696 C700 1.385 . S
C697 H672 0.940 1_565 S
C697 C695 1.385 1_565 S
C697 C698 1.379 . S
C698 C697 1.379 . S
C698 C699 1.414 . S
C698 C701 1.499 . S
C699 H673 0.950 . S
C699 C698 1.414 . S
C699 C700 1.374 . S
C700 H674 0.950 . S
C700 C696 1.385 . S
C700 C699 1.374 . S
C701 C698 1.499 . S
C701 C702 1.373 . S
C701 C703 1.389 . S
C702 H675 0.950 . S
C702 C688 1.377 . S
C702 C701 1.373 . S
C703 C687 1.377 . S
C703 C701 1.389 . S
C703 C704 1.524 . S
C704 C703 1.524 . S
C704 C705 1.397 . S
C704 C709 1.363 . S
C705 H676 0.950 . S
C705 C704 1.397 . S
C705 C706 1.334 . S
C706 H677 0.950 . S
C706 C705 1.334 . S
C706 C707 1.287 . S
C707 C706 1.287 . S
C707 C708 1.524 . S
C707 H710 0.999 . S
C708 H678 0.950 . S
C708 C707 1.524 . S
C708 C709 1.415 . S
C709 H679 0.950 . S
C709 C704 1.363 . S
C709 C708 1.415 . S
H710 C707 0.999 . S
H711 C692 0.913 . S
H712 C730 0.951 . S
H713 C732 0.951 . S
H714 C734 0.950 . S
H715 C735 0.950 . S
H716 C737 0.950 . S
H717 C740 0.950 . S
H718 C741 0.950 . S
H719 C743 0.950 . S
H720 C744 0.950 . S
H721 C745 0.951 . S
H722 C747 0.951 . S
H723 C749 0.950 . S
H724 C750 0.950 . S
H725 C752 0.950 . S
H726 C755 0.950 . S
H727 C756 0.950 . S
H728 C758 0.950 . S
H729 C759 0.950 . S
C730 H712 0.951 . S
C730 C731 1.366 . S
C730 C732 1.388 . S
C731 C730 1.366 . S
C731 C735 1.385 . S
C732 H713 0.951 . S
C732 C730 1.388 . S
C732 C733 1.366 . S
C733 C732 1.366 . S
C733 C734 1.414 . S
C733 C736 1.499 . S
C734 H714 0.950 . S
C734 C733 1.414 . S
C734 C735 1.374 . S
C735 H715 0.950 . S
C735 C731 1.385 . S
C735 C734 1.374 . S
C736 C733 1.499 . S
C736 C737 1.373 . S
C736 C738 1.389 . S
C737 H716 0.950 . S
C737 C736 1.373 . S
C737 C753 1.377 . S
C738 C736 1.389 . S
C738 C739 1.524 . S
C738 C752 1.377 . S
C739 C738 1.524 . S
C739 C740 1.397 . S
C739 C744 1.363 . S
C740 H717 0.950 . S
C740 C739 1.397 . S
C740 C741 1.334 . S
C741 H718 0.950 . S
C741 C740 1.334 . S
C741 C742 1.287 . S
C742 C741 1.287 . S
C742 C743 1.524 . S
C742 H761 0.913 . S
C743 H719 0.950 . S
C743 C742 1.524 . S
C743 C744 1.415 . S
C744 H720 0.950 . S
C744 C739 1.363 . S
C744 C743 1.415 . S
C745 H721 0.951 . S
C745 C746 1.366 . S
C745 C747 1.388 . S
C746 C745 1.366 . S
C746 C750 1.385 . S
C747 H722 0.951 . S
C747 C745 1.388 . S
C747 C748 1.366 . S
C748 C747 1.366 . S
C748 C749 1.414 . S
C748 C751 1.499 . S
C749 H723 0.950 . S
C749 C748 1.414 . S
C749 C750 1.374 . S
C750 H724 0.950 . S
C750 C746 1.385 . S
C750 C749 1.374 . S
C751 C748 1.499 . S
C751 C752 1.373 . S
C751 C753 1.389 . S
C752 H725 0.950 . S
C752 C738 1.377 . S
C752 C751 1.373 . S
C753 C737 1.377 . S
C753 C751 1.389 . S
C753 C754 1.524 . S
C754 C753 1.524 . S
C754 C755 1.397 . S
C754 C759 1.363 . S
C755 H726 0.950 . S
C755 C754 1.397 . S
C755 C756 1.334 . S
C756 H727 0.950 . S
C756 C755 1.334 . S
C756 C757 1.287 . S
C757 C756 1.287 . S
C757 C758 1.524 . S
C757 H760 0.999 . S
C758 H728 0.950 . S
C758 C757 1.524 . S
C758 C759 1.415 . S
C759 H729 0.950 . S
C759 C754 1.363 . S
C759 C758 1.415 . S
H760 C757 0.999 . S
H761 C742 0.913 . S
H762 C780 0.951 . S
H763 C782 0.951 . S
H764 C784 0.950 . S
H765 C785 0.950 . S
H766 C787 0.950 . S
H767 C790 0.950 . S
H768 C791 0.950 . S
H769 C793 0.950 . S
H770 C794 0.950 . S
H771 C795 0.951 . S
H772 C797 0.951 . S
H773 C799 0.950 . S
H774 C800 0.950 . S
H775 C802 0.950 . S
H776 C805 0.950 . S
H777 C806 0.950 . S
H778 C808 0.950 . S
H779 C809 0.950 . S
C780 H762 0.951 . S
C780 C781 1.366 . S
C780 C782 1.388 . S
C781 C780 1.366 . S
C781 C785 1.385 . S
C782 H763 0.951 . S
C782 C780 1.388 . S
C782 C783 1.366 . S
C783 C782 1.366 . S
C783 C784 1.414 . S
C783 C786 1.499 . S
C784 H764 0.950 . S
C784 C783 1.414 . S
C784 C785 1.374 . S
C785 H765 0.950 . S
C785 C781 1.385 . S
C785 C784 1.374 . S
C786 C783 1.499 . S
C786 C787 1.373 . S
C786 C788 1.389 . S
C787 H766 0.950 . S
C787 C786 1.373 . S
C787 C803 1.377 . S
C788 C786 1.389 . S
C788 C789 1.524 . S
C788 C802 1.377 . S
C789 C788 1.524 . S
C789 C790 1.397 . S
C789 C794 1.363 . S
C790 H767 0.950 . S
C790 C789 1.397 . S
C790 C791 1.334 . S
C791 H768 0.950 . S
C791 C790 1.334 . S
C791 C792 1.287 . S
C792 C791 1.287 . S
C792 C793 1.524 . S
C792 H811 0.913 . S
C793 H769 0.950 . S
C793 C792 1.524 . S
C793 C794 1.415 . S
C794 H770 0.950 . S
C794 C789 1.363 . S
C794 C793 1.415 . S
C795 H771 0.951 . S
C795 C796 1.366 . S
C795 C797 1.388 . S
C796 C795 1.366 . S
C796 C800 1.385 . S
C797 H772 0.951 . S
C797 C795 1.388 . S
C797 C798 1.366 . S
C798 C797 1.366 . S
C798 C799 1.414 . S
C798 C801 1.499 . S
C799 H773 0.950 . S
C799 C798 1.414 . S
C799 C800 1.374 . S
C800 H774 0.950 . S
C800 C796 1.385 . S
C800 C799 1.374 . S
C801 C798 1.499 . S
C801 C802 1.373 . S
C801 C803 1.389 . S
C802 H775 0.950 . S
C802 C788 1.377 . S
C802 C801 1.373 . S
C803 C787 1.377 . S
C803 C801 1.389 . S
C803 C804 1.524 . S
C804 C803 1.524 . S
C804 C805 1.397 . S
C804 C809 1.363 . S
C805 H776 0.950 . S
C805 C804 1.397 . S
C805 C806 1.334 . S
C806 H777 0.950 . S
C806 C805 1.334 . S
C806 C807 1.287 . S
C807 C806 1.287 . S
C807 C808 1.524 . S
C807 H810 0.999 . S
C808 H778 0.950 . S
C808 C807 1.524 . S
C808 C809 1.415 . S
C809 H779 0.950 . S
C809 C804 1.363 . S
C809 C808 1.415 . S
H810 C807 0.999 . S
H811 C792 0.913 . S
H812 C830 0.951 . S
H813 C832 0.951 . S
H814 C834 0.950 . S
H815 C835 0.950 . S
H816 C837 0.950 . S
H817 C840 0.950 . S
H818 C841 0.950 . S
H819 C843 0.950 . S
H820 C844 0.950 . S
H821 C845 0.951 . S
H822 C847 0.951 . S
H823 C849 0.950 . S
H824 C850 0.950 . S
H825 C852 0.950 . S
H826 C855 0.950 . S
H827 C856 0.950 . S
H828 C858 0.950 . S
H829 C859 0.950 . S
C830 H812 0.951 . S
C830 C831 1.366 . S
C830 C832 1.388 . S
C831 C830 1.366 . S
C831 C835 1.385 . S
C832 H813 0.951 . S
C832 C830 1.388 . S
C832 C833 1.366 . S
C833 C832 1.366 . S
C833 C834 1.414 . S
C833 C836 1.499 . S
C834 H814 0.950 . S
C834 C833 1.414 . S
C834 C835 1.374 . S
C835 H815 0.950 . S
C835 C831 1.385 . S
C835 C834 1.374 . S
C836 C833 1.499 . S
C836 C837 1.373 . S
C836 C838 1.389 . S
C837 H816 0.950 . S
C837 C836 1.373 . S
C837 C853 1.377 . S
C838 C836 1.389 . S
C838 C839 1.524 . S
C838 C852 1.377 . S
C839 C838 1.524 . S
C839 C840 1.397 . S
C839 C844 1.363 . S
C840 H817 0.950 . S
C840 C839 1.397 . S
C840 C841 1.334 . S
C841 H818 0.950 . S
C841 C840 1.334 . S
C841 C842 1.287 . S
C842 C841 1.287 . S
C842 C843 1.524 . S
C842 H861 0.913 . S
C843 H819 0.950 . S
C843 C842 1.524 . S
C843 C844 1.415 . S
C844 H820 0.950 . S
C844 C839 1.363 . S
C844 C843 1.415 . S
C845 H821 0.951 . S
C845 C846 1.366 . S
C845 C847 1.388 . S
C846 C845 1.366 . S
C846 C850 1.385 . S
C847 H822 0.951 . S
C847 C845 1.388 . S
C847 C848 1.366 . S
C848 C847 1.366 . S
C848 C849 1.414 . S
C848 C851 1.499 . S
C849 H823 0.950 . S
C849 C848 1.414 . S
C849 C850 1.374 . S
C850 H824 0.950 . S
C850 C846 1.385 . S
C850 C849 1.374 . S
C851 C848 1.499 . S
C851 C852 1.373 . S
C851 C853 1.389 . S
C852 H825 0.950 . S
C852 C838 1.377 . S
C852 C851 1.373 . S
C853 C837 1.377 . S
C853 C851 1.389 . S
C853 C854 1.524 . S
C854 C853 1.524 . S
C854 C855 1.397 . S
C854 C859 1.363 . S
C855 H826 0.950 . S
C855 C854 1.397 . S
C855 C856 1.334 . S
C856 H827 0.950 . S
C856 C855 1.334 . S
C856 C857 1.287 . S
C857 C856 1.287 . S
C857 C858 1.524 . S
C857 H860 0.999 . S
C858 H828 0.950 . S
C858 C857 1.524 . S
C858 C859 1.415 . S
C859 H829 0.950 . S
C859 C854 1.363 . S
C859 C858 1.415 . S
H860 C857 0.999 . S
H861 C842 0.913 . S
H862 C880 0.951 . S
H863 C882 0.951 . S
H864 C884 0.950 . S
H865 C885 0.950 . S
H866 C887 0.950 . S
H867 C890 0.950 . S
H868 C891 0.950 . S
H869 C893 0.950 . S
H870 C894 0.950 . S
H871 C895 0.951 . S
H872 C897 0.951 . S
H873 C899 0.950 . S
H874 C900 0.950 . S
H875 C902 0.950 . S
H876 C905 0.950 . S
H877 C906 0.950 . S
H878 C908 0.950 . S
H879 C909 0.950 . S
C880 H862 0.951 . S
C880 C881 1.366 . S
C880 C882 1.388 . S
C881 C880 1.366 . S
C881 C885 1.385 . S
C882 H863 0.951 . S
C882 C880 1.388 . S
C882 C883 1.366 . S
C883 C882 1.366 . S
C883 C884 1.414 . S
C883 C886 1.499 . S
C884 H864 0.950 . S
C884 C883 1.414 . S
C884 C885 1.374 . S
C885 H865 0.950 . S
C885 C881 1.385 . S
C885 C884 1.374 . S
C886 C883 1.499 . S
C886 C887 1.373 . S
C886 C888 1.389 . S
C887 H866 0.950 . S
C887 C886 1.373 . S
C887 C903 1.377 . S
C888 C886 1.389 . S
C888 C889 1.524 . S
C888 C902 1.377 . S
C889 C888 1.524 . S
C889 C890 1.397 . S
C889 C894 1.363 . S
C890 H867 0.950 . S
C890 C889 1.397 . S
C890 C891 1.334 . S
C891 H868 0.950 . S
C891 C890 1.334 . S
C891 C892 1.287 . S
C892 C891 1.287 . S
C892 C893 1.524 . S
C892 H911 0.913 . S
C893 H869 0.950 . S
C893 C892 1.524 . S
C893 C894 1.415 . S
C894 H870 0.950 . S
C894 C889 1.363 . S
C894 C893 1.415 . S
C895 H871 0.951 . S
C895 C896 1.366 . S
C895 C897 1.388 . S
C896 C895 1.366 . S
C896 C900 1.385 . S
C897 H872 0.951 . S
C897 C895 1.388 . S
C897 C898 1.366 . S
C898 C897 1.366 . S
C898 C899 1.414 . S
C898 C901 1.499 . S
C899 H873 0.950 . S
C899 C898 1.414 . S
C899 C900 1.374 . S
C900 H874 0.950 . S
C900 C896 1.385 . S
C900 C899 1.374 . S
C901 C898 1.499 . S
C901 C902 1.373 . S
C901 C903 1.389 . S
C902 H875 0.950 . S
C902 C888 1.377 . S
C902 C901 1.373 . S
C903 C887 1.377 . S
C903 C901 1.389 . S
C903 C904 1.524 . S
C904 C903 1.524 . S
C904 C905 1.397 . S
C904 C909 1.363 . S
C905 H876 0.950 . S
C905 C904 1.397 . S
C905 C906 1.334 . S
C906 H877 0.950 . S
C906 C905 1.334 . S
C906 C907 1.287 . S
C907 C906 1.287 . S
C907 C908 1.524 . S
C907 H910 0.999 . S
C908 H878 0.950 . S
C908 C907 1.524 . S
C908 C909 1.415 . S
C909 H879 0.950 . S
C909 C904 1.363 . S
C909 C908 1.415 . S
H910 C907 0.999 . S
H911 C892 0.913 . S
H912 C930 0.951 . S
H913 C932 0.951 . S
H914 C934 0.950 . S
H915 C935 0.950 . S
H916 C937 0.950 . S
H917 C940 0.950 . S
H918 C941 0.950 . S
H919 C943 0.950 . S
H920 C944 0.950 . S
H921 C945 0.951 . S
H922 C947 0.951 . S
H923 C949 0.950 . S
H924 C950 0.950 . S
H925 C952 0.950 . S
H926 C955 0.950 . S
H927 C956 0.950 . S
H928 C958 0.950 . S
H929 C959 0.950 . S
C930 H912 0.951 . S
C930 C931 1.366 . S
C930 C932 1.388 . S
C931 C930 1.366 . S
C931 C935 1.385 . S
C932 H913 0.951 . S
C932 C930 1.388 . S
C932 C933 1.366 . S
C933 C932 1.366 . S
C933 C934 1.414 . S
C933 C936 1.499 . S
C934 H914 0.950 . S
C934 C933 1.414 . S
C934 C935 1.374 . S
C935 H915 0.950 . S
C935 C931 1.385 . S
C935 C934 1.374 . S
C936 C933 1.499 . S
C936 C937 1.373 . S
C936 C938 1.389 . S
C937 H916 0.950 . S
C937 C936 1.373 . S
C937 C953 1.377 . S
C938 C936 1.389 . S
C938 C939 1.524 . S
C938 C952 1.377 . S
C939 C938 1.524 . S
C939 C940 1.397 . S
C939 C944 1.363 . S
C940 H917 0.950 . S
C940 C939 1.397 . S
C940 C941 1.334 . S
C941 H918 0.950 . S
C941 C940 1.334 . S
C941 C942 1.287 . S
C942 C941 1.287 . S
C942 C943 1.524 . S
C942 H961 0.913 . S
C943 H919 0.950 . S
C943 C942 1.524 . S
C943 C944 1.415 . S
C944 H920 0.950 . S
C944 C939 1.363 . S
C944 C943 1.415 . S
C945 H921 0.951 . S
C945 C946 1.366 . S
C945 C947 1.388 . S
C946 C945 1.366 . S
C946 C950 1.385 . S
C947 H922 0.951 . S
C947 C945 1.388 . S
C947 C948 1.366 . S
C948 C947 1.366 . S
C948 C949 1.414 . S
C948 C951 1.499 . S
C949 H923 0.950 . S
C949 C948 1.414 . S
C949 C950 1.374 . S
C950 H924 0.950 . S
C950 C946 1.385 . S
C950 C949 1.374 . S
C951 C948 1.499 . S
C951 C952 1.373 . S
C951 C953 1.389 . S
C952 H925 0.950 . S
C952 C938 1.377 . S
C952 C951 1.373 . S
C953 C937 1.377 . S
C953 C951 1.389 . S
C953 C954 1.524 . S
C954 C953 1.524 . S
C954 C955 1.397 . S
C954 C959 1.363 . S
C955 H926 0.950 . S
C955 C954 1.397 . S
C955 C956 1.334 . S
C956 H927 0.950 . S
C956 C955 1.334 . S
C956 C957 1.287 . S
C957 C956 1.287 . S
C957 C958 1.524 . S
C957 H960 0.999 . S
C958 H928 0.950 . S
C958 C957 1.524 . S
C958 C959 1.415 . S
C959 H929 0.950 . S
C959 C954 1.363 . S
C959 C958 1.415 . S
H960 C957 0.999 . S
H961 C942 0.913 . S
H962 C980 0.951 . S
H963 C982 0.951 . S
H964 C984 0.950 . S
H965 C985 0.950 . S
H966 C987 0.950 . S
H967 C990 0.950 1_455 S
H968 C991 0.950 . S
H969 C993 0.950 . S
H970 C994 0.950 . S
H971 C995 0.951 . S
H972 C997 0.951 . S
H973 C999 0.950 . S
H974 C1000 0.946 . S
H975 C1002 0.946 1_655 S
H976 C1005 0.950 . S
H977 C1006 0.950 . S
H978 C1008 0.950 . S
H979 C1009 0.950 . S
C980 H962 0.951 . S
C980 C981 1.366 . S
C980 C982 1.388 . S
C981 C980 1.366 . S
C981 C985 1.385 . S
C982 H963 0.951 . S
C982 C980 1.388 . S
C982 C983 1.366 . S
C983 C982 1.366 . S
C983 C984 1.414 . S
C983 C986 1.499 . S
C984 H964 0.950 . S
C984 C983 1.414 . S
C984 C985 1.374 . S
C985 H965 0.950 . S
C985 C981 1.385 . S
C985 C984 1.374 . S
C986 C983 1.499 . S
C986 C987 1.373 . S
C986 C988 1.389 . S
C987 H966 0.950 . S
C987 C986 1.373 . S
C987 C1003 1.377 . S
C988 C986 1.389 . S
C988 C989 1.524 1_455 S
C988 C1002 1.377 . S
C989 C988 1.524 1_655 S
C989 C990 1.397 . S
C989 C994 1.363 . S
C990 H967 0.950 1_655 S
C990 C989 1.397 . S
C990 C991 1.334 . S
C991 H968 0.950 . S
C991 C990 1.334 . S
C991 C992 1.287 . S
C992 C991 1.287 . S
C992 C993 1.524 . S
C992 H1011 0.913 . S
C993 H969 0.950 . S
C993 C992 1.524 . S
C993 C994 1.415 . S
C994 H970 0.950 . S
C994 C989 1.363 . S
C994 C993 1.415 . S
C995 H971 0.951 . S
C995 C996 1.366 . S
C995 C997 1.388 . S
C996 C995 1.366 . S
C996 C1000 1.385 . S
C997 H972 0.951 . S
C997 C995 1.388 . S
C997 C998 1.366 . S
C998 C997 1.366 . S
C998 C999 1.414 . S
C998 C1001 1.499 . S
C999 H973 0.950 . S
C999 C998 1.414 . S
C999 C1000 1.374 . S
C1000 H974 0.946 . S
C1000 C996 1.385 . S
C1000 C999 1.374 . S
C1001 C998 1.499 . S
C1001 C1002 1.373 . S
C1001 C1003 1.389 . S
C1002 H975 0.946 1_455 S
C1002 C988 1.377 . S
C1002 C1001 1.373 . S
C1003 C987 1.377 . S
C1003 C1001 1.389 . S
C1003 C1004 1.524 . S
C1004 C1003 1.524 . S
C1004 C1005 1.397 . S
C1004 C1009 1.363 . S
C1005 H976 0.950 . S
C1005 C1004 1.397 . S
C1005 C1006 1.334 . S
C1006 H977 0.950 . S
C1006 C1005 1.334 . S
C1006 C1007 1.287 . S
C1007 C1006 1.287 . S
C1007 C1008 1.524 . S
C1007 H1010 0.999 . S
C1008 H978 0.950 . S
C1008 C1007 1.524 . S
C1008 C1009 1.415 . S
C1009 H979 0.950 . S
C1009 C1004 1.363 . S
C1009 C1008 1.415 . S
H1010 C1007 0.999 . S
H1011 C992 0.913 . S
H1012 C1030 0.951 . S
H1013 C1032 0.951 . S
H1014 C1034 0.950 . S
H1015 C1035 0.950 . S
H1016 C1037 0.950 . S
H1017 C1040 0.950 . S
H1018 C1041 0.950 . S
H1019 C1043 0.950 . S
H1020 C1044 0.950 . S
H1021 C1045 0.951 . S
H1022 C1047 0.951 . S
H1023 C1049 0.950 . S
H1024 C1050 0.950 . S
H1025 C1052 0.950 . S
H1026 C1055 0.950 . S
H1027 C1056 0.950 . S
H1028 C1058 0.950 . S
H1029 C1059 0.950 . S
C1030 H1012 0.951 . S
C1030 C1031 1.366 . S
C1030 C1032 1.388 . S
C1031 C1030 1.366 . S
C1031 C1035 1.385 . S
C1032 H1013 0.951 . S
C1032 C1030 1.388 . S
C1032 C1033 1.366 . S
C1033 C1032 1.366 . S
C1033 C1034 1.414 . S
C1033 C1036 1.499 . S
C1034 H1014 0.950 . S
C1034 C1033 1.414 . S
C1034 C1035 1.374 . S
C1035 H1015 0.950 . S
C1035 C1031 1.385 . S
C1035 C1034 1.374 . S
C1036 C1033 1.499 . S
C1036 C1037 1.373 . S
C1036 C1038 1.389 . S
C1037 H1016 0.950 . S
C1037 C1036 1.373 . S
C1037 C1053 1.377 . S
C1038 C1036 1.389 . S
C1038 C1039 1.524 . S
C1038 C1052 1.377 . S
C1039 C1038 1.524 . S
C1039 C1040 1.397 . S
C1039 C1044 1.363 . S
C1040 H1017 0.950 . S
C1040 C1039 1.397 . S
C1040 C1041 1.334 . S
C1041 H1018 0.950 . S
C1041 C1040 1.334 . S
C1041 C1042 1.287 . S
C1042 C1041 1.287 . S
C1042 C1043 1.524 . S
C1042 H1061 0.913 . S
C1043 H1019 0.950 . S
C1043 C1042 1.524 . S
C1043 C1044 1.415 . S
C1044 H1020 0.950 . S
C1044 C1039 1.363 . S
C1044 C1043 1.415 . S
C1045 H1021 0.951 . S
C1045 C1046 1.366 . S
C1045 C1047 1.388 . S
C1046 C1045 1.366 . S
C1046 C1050 1.385 . S
C1047 H1022 0.951 . S
C1047 C1045 1.388 . S
C1047 C1048 1.366 . S
C1048 C1047 1.366 . S
C1048 C1049 1.414 . S
C1048 C1051 1.499 . S
C1049 H1023 0.950 . S
C1049 C1048 1.414 . S
C1049 C1050 1.374 . S
C1050 H1024 0.950 . S
C1050 C1046 1.385 . S
C1050 C1049 1.374 . S
C1051 C1048 1.499 . S
C1051 C1052 1.373 . S
C1051 C1053 1.389 . S
C1052 H1025 0.950 . S
C1052 C1038 1.377 . S
C1052 C1051 1.373 . S
C1053 C1037 1.377 . S
C1053 C1051 1.389 . S
C1053 C1054 1.524 . S
C1054 C1053 1.524 . S
C1054 C1055 1.397 . S
C1054 C1059 1.363 . S
C1055 H1026 0.950 . S
C1055 C1054 1.397 . S
C1055 C1056 1.334 . S
C1056 H1027 0.950 . S
C1056 C1055 1.334 . S
C1056 C1057 1.287 . S
C1057 C1056 1.287 . S
C1057 C1058 1.524 . S
C1057 H1060 0.999 . S
C1058 H1028 0.950 . S
C1058 C1057 1.524 . S
C1058 C1059 1.415 . S
C1059 H1029 0.950 . S
C1059 C1054 1.363 . S
C1059 C1058 1.415 . S
H1060 C1057 0.999 . S
H1061 C1042 0.913 . S
H1062 C1080 0.951 . S
H1063 C1082 0.951 . S
H1064 C1084 0.950 . S
H1065 C1085 0.950 . S
H1066 C1087 0.950 . S
H1067 C1090 0.950 . S
H1068 C1091 0.950 . S
H1069 C1093 0.950 . S
H1070 C1094 0.950 . S
H1071 C1095 0.951 . S
H1072 C1097 0.951 . S
H1073 C1099 0.950 . S
H1074 C1100 0.950 . S
H1075 C1102 0.950 . S
H1076 C1105 0.950 . S
H1077 C1106 0.950 . S
H1078 C1108 0.950 . S
H1079 C1109 0.950 . S
C1080 H1062 0.951 . S
C1080 C1081 1.366 . S
C1080 C1082 1.388 . S
C1081 C1080 1.366 . S
C1081 C1085 1.385 . S
C1082 H1063 0.951 . S
C1082 C1080 1.388 . S
C1082 C1083 1.366 . S
C1083 C1082 1.366 . S
C1083 C1084 1.414 . S
C1083 C1086 1.499 . S
C1084 H1064 0.950 . S
C1084 C1083 1.414 . S
C1084 C1085 1.374 . S
C1085 H1065 0.950 . S
C1085 C1081 1.385 . S
C1085 C1084 1.374 . S
C1086 C1083 1.499 . S
C1086 C1087 1.373 . S
C1086 C1088 1.389 . S
C1087 H1066 0.950 . S
C1087 C1086 1.373 . S
C1087 C1103 1.377 . S
C1088 C1086 1.389 . S
C1088 C1089 1.524 . S
C1088 C1102 1.377 . S
C1089 C1088 1.524 . S
C1089 C1090 1.397 . S
C1089 C1094 1.363 1_655 S
C1090 H1067 0.950 . S
C1090 C1089 1.397 . S
C1090 C1091 1.334 . S
C1091 H1068 0.950 . S
C1091 C1090 1.334 . S
C1091 C1092 1.287 . S
C1092 C1091 1.287 . S
C1092 C1093 1.524 1_655 S
C1092 H1111 0.913 . S
C1093 H1069 0.950 . S
C1093 C1092 1.524 1_455 S
C1093 C1094 1.415 . S
C1094 H1070 0.950 . S
C1094 C1089 1.363 1_455 S
C1094 C1093 1.415 . S
C1095 H1071 0.951 . S
C1095 C1096 1.366 . S
C1095 C1097 1.388 . S
C1096 C1095 1.366 . S
C1096 C1100 1.385 1_655 S
C1097 H1072 0.951 . S
C1097 C1095 1.388 . S
C1097 C1098 1.366 . S
C1098 C1097 1.366 . S
C1098 C1099 1.414 1_655 S
C1098 C1101 1.499 . S
C1099 H1073 0.950 . S
C1099 C1098 1.414 1_455 S
C1099 C1100 1.374 . S
C1100 H1074 0.950 . S
C1100 C1096 1.385 1_455 S
C1100 C1099 1.374 . S
C1101 C1098 1.499 . S
C1101 C1102 1.373 . S
C1101 C1103 1.389 . S
C1102 H1075 0.950 . S
C1102 C1088 1.377 . S
C1102 C1101 1.373 . S
C1103 C1087 1.377 . S
C1103 C1101 1.389 . S
C1103 C1104 1.524 . S
C1104 C1103 1.524 . S
C1104 C1105 1.397 . S
C1104 C1109 1.363 . S
C1105 H1076 0.950 . S
C1105 C1104 1.397 . S
C1105 C1106 1.334 . S
C1106 H1077 0.950 . S
C1106 C1105 1.334 . S
C1106 C1107 1.287 . S
C1107 C1106 1.287 . S
C1107 C1108 1.524 . S
C1107 H1110 0.999 . S
C1108 H1078 0.950 . S
C1108 C1107 1.524 . S
C1108 C1109 1.415 . S
C1109 H1079 0.950 . S
C1109 C1104 1.363 . S
C1109 C1108 1.415 . S
H1110 C1107 0.999 . S
H1111 C1092 0.913 . S
H1112 C1130 0.951 . S
H1113 C1132 0.951 . S
H1114 C1134 0.950 . S
H1115 C1135 0.950 . S
H1116 C1137 0.950 . S
H1117 C1140 0.950 . S
H1118 C1141 0.950 . S
H1119 C1143 0.950 . S
H1120 C1144 0.950 . S
H1121 C1145 0.951 . S
H1122 C1147 0.951 . S
H1123 C1149 0.950 . S
H1124 C1150 0.950 . S
H1125 C1152 0.950 . S
H1126 C1155 0.950 . S
H1127 C1156 0.950 . S
H1128 C1158 0.950 . S
H1129 C1159 0.950 . S
C1130 H1112 0.951 . S
C1130 C1131 1.366 . S
C1130 C1132 1.388 . S
C1131 C1130 1.366 . S
C1131 C1135 1.385 . S
C1132 H1113 0.951 . S
C1132 C1130 1.388 . S
C1132 C1133 1.366 . S
C1133 C1132 1.366 . S
C1133 C1134 1.414 . S
C1133 C1136 1.499 . S
C1134 H1114 0.950 . S
C1134 C1133 1.414 . S
C1134 C1135 1.374 . S
C1135 H1115 0.950 . S
C1135 C1131 1.385 . S
C1135 C1134 1.374 . S
C1136 C1133 1.499 . S
C1136 C1137 1.373 . S
C1136 C1138 1.389 . S
C1137 H1116 0.950 . S
C1137 C1136 1.373 . S
C1137 C1153 1.377 . S
C1138 C1136 1.389 . S
C1138 C1139 1.524 . S
C1138 C1152 1.377 . S
C1139 C1138 1.524 . S
C1139 C1140 1.397 . S
C1139 C1144 1.363 . S
C1140 H1117 0.950 . S
C1140 C1139 1.397 . S
C1140 C1141 1.334 . S
C1141 H1118 0.950 . S
C1141 C1140 1.334 . S
C1141 C1142 1.287 . S
C1142 C1141 1.287 . S
C1142 C1143 1.524 . S
C1142 H1161 0.913 . S
C1143 H1119 0.950 . S
C1143 C1142 1.524 . S
C1143 C1144 1.415 . S
C1144 H1120 0.950 . S
C1144 C1139 1.363 . S
C1144 C1143 1.415 . S
C1145 H1121 0.951 . S
C1145 C1146 1.366 . S
C1145 C1147 1.388 . S
C1146 C1145 1.366 . S
C1146 C1150 1.385 . S
C1147 H1122 0.951 . S
C1147 C1145 1.388 . S
C1147 C1148 1.366 . S
C1148 C1147 1.366 . S
C1148 C1149 1.414 . S
C1148 C1151 1.499 . S
C1149 H1123 0.950 . S
C1149 C1148 1.414 . S
C1149 C1150 1.374 . S
C1150 H1124 0.950 . S
C1150 C1146 1.385 . S
C1150 C1149 1.374 . S
C1151 C1148 1.499 . S
C1151 C1152 1.373 . S
C1151 C1153 1.389 . S
C1152 H1125 0.950 . S
C1152 C1138 1.377 . S
C1152 C1151 1.373 . S
C1153 C1137 1.377 . S
C1153 C1151 1.389 . S
C1153 C1154 1.524 . S
C1154 C1153 1.524 . S
C1154 C1155 1.397 . S
C1154 C1159 1.363 . S
C1155 H1126 0.950 . S
C1155 C1154 1.397 . S
C1155 C1156 1.334 . S
C1156 H1127 0.950 . S
C1156 C1155 1.334 . S
C1156 C1157 1.287 . S
C1157 C1156 1.287 . S
C1157 C1158 1.524 . S
C1157 H1160 0.999 . S
C1158 H1128 0.950 . S
C1158 C1157 1.524 . S
C1158 C1159 1.415 . S
C1159 H1129 0.950 . S
C1159 C1154 1.363 . S
C1159 C1158 1.415 . S
H1160 C1157 0.999 . S
H1161 C1142 0.913 . S
H1162 C1180 0.951 . S
H1163 C1182 0.951 . S
H1164 C1184 0.950 . S
H1165 C1185 0.950 . S
H1166 C1187 0.950 . S
H1167 C1190 0.950 . S
H1168 C1191 0.950 . S
H1169 C1193 0.950 . S
H1170 C1194 0.950 . S
H1171 C1195 0.951 . S
H1172 C1197 0.951 . S
H1173 C1199 0.950 . S
H1174 C1200 0.950 . S
H1175 C1202 0.950 . S
H1176 C1205 0.950 . S
H1177 C1206 0.950 . S
H1178 C1208 0.950 . S
H1179 C1209 0.950 . S
C1180 H1162 0.951 . S
C1180 C1181 1.366 . S
C1180 C1182 1.388 . S
C1181 C1180 1.366 . S
C1181 C1185 1.385 . S
C1182 H1163 0.951 . S
C1182 C1180 1.388 . S
C1182 C1183 1.366 . S
C1183 C1182 1.366 . S
C1183 C1184 1.414 . S
C1183 C1186 1.499 . S
C1184 H1164 0.950 . S
C1184 C1183 1.414 . S
C1184 C1185 1.374 . S
C1185 H1165 0.950 . S
C1185 C1181 1.385 . S
C1185 C1184 1.374 . S
C1186 C1183 1.499 . S
C1186 C1187 1.373 . S
C1186 C1188 1.389 . S
C1187 H1166 0.950 . S
C1187 C1186 1.373 . S
C1187 C1203 1.377 . S
C1188 C1186 1.389 . S
C1188 C1189 1.524 . S
C1188 C1202 1.377 . S
C1189 C1188 1.524 . S
C1189 C1190 1.397 . S
C1189 C1194 1.363 . S
C1190 H1167 0.950 . S
C1190 C1189 1.397 . S
C1190 C1191 1.334 . S
C1191 H1168 0.950 . S
C1191 C1190 1.334 . S
C1191 C1192 1.287 . S
C1192 C1191 1.287 . S
C1192 C1193 1.524 . S
C1192 H1211 0.913 . S
C1193 H1169 0.950 . S
C1193 C1192 1.524 . S
C1193 C1194 1.415 . S
C1194 H1170 0.950 . S
C1194 C1189 1.363 . S
C1194 C1193 1.415 . S
C1195 H1171 0.951 . S
C1195 C1196 1.366 . S
C1195 C1197 1.388 . S
C1196 C1195 1.366 . S
C1196 C1200 1.385 . S
C1197 H1172 0.951 . S
C1197 C1195 1.388 . S
C1197 C1198 1.366 . S
C1198 C1197 1.366 . S
C1198 C1199 1.414 . S
C1198 C1201 1.499 . S
C1199 H1173 0.950 . S
C1199 C1198 1.414 . S
C1199 C1200 1.374 . S
C1200 H1174 0.950 . S
C1200 C1196 1.385 . S
C1200 C1199 1.374 . S
C1201 C1198 1.499 . S
C1201 C1202 1.373 . S
C1201 C1203 1.389 . S
C1202 H1175 0.950 . S
C1202 C1188 1.377 . S
C1202 C1201 1.373 . S
C1203 C1187 1.377 . S
C1203 C1201 1.389 . S
C1203 C1204 1.524 . S
C1204 C1203 1.524 . S
C1204 C1205 1.397 . S
C1204 C1209 1.363 . S
C1205 H1176 0.950 . S
C1205 C1204 1.397 . S
C1205 C1206 1.334 . S
C1206 H1177 0.950 . S
C1206 C1205 1.334 . S
C1206 C1207 1.287 . S
C1207 C1206 1.287 . S
C1207 C1208 1.524 . S
C1207 H1210 0.999 . S
C1208 H1178 0.950 . S
C1208 C1207 1.524 . S
C1208 C1209 1.415 . S
C1209 H1179 0.950 . S
C1209 C1204 1.363 . S
C1209 C1208 1.415 . S
H1210 C1207 0.999 . S
H1211 C1192 0.913 . S
H1212 C1230 0.951 . S
H1213 C1232 0.951 1_565 S
H1214 C1234 0.950 . S
H1215 C1235 0.950 . S
H1216 C1237 0.950 . S
H1217 C1240 0.950 . S
H1218 C1241 0.950 . S
H1219 C1243 0.935 1_565 S
H1220 C1244 0.950 . S
H1221 C1245 0.951 . S
H1222 C1247 0.917 1_554 S
H1223 C1249 0.950 . S
H1224 C1250 0.950 . S
H1225 C1252 0.950 . S
H1226 C1255 0.950 1_556 S
H1227 C1256 0.950 . S
H1228 C1258 0.950 . S
H1229 C1259 0.950 . S
C1230 H1212 0.951 . S
C1230 C1231 1.366 . S
C1230 C1232 1.388 . S
C1231 C1230 1.366 . S
C1231 C1235 1.385 . S
C1232 H1213 0.951 1_545 S
C1232 C1230 1.388 . S
C1232 C1233 1.366 . S
C1233 C1232 1.366 . S
C1233 C1234 1.414 . S
C1233 C1236 1.499 1_545 S
C1234 H1214 0.950 . S
C1234 C1233 1.414 . S
C1234 C1235 1.374 . S
C1235 H1215 0.950 . S
C1235 C1231 1.385 . S
C1235 C1234 1.374 . S
C1236 C1233 1.499 1_565 S
C1236 C1237 1.373 . S
C1236 C1238 1.389 . S
C1237 H1216 0.950 . S
C1237 C1236 1.373 . S
C1237 C1253 1.377 . S
C1238 C1236 1.389 . S
C1238 C1239 1.524 . S
C1238 C1252 1.377 . S
C1239 C1238 1.524 . S
C1239 C1240 1.397 1_565 S
C1239 C1244 1.363 . S
C1240 H1217 0.950 . S
C1240 C1239 1.397 1_545 S
C1240 C1241 1.334 . S
C1241 H1218 0.950 . S
C1241 C1240 1.334 . S
C1241 C1242 1.287 . S
C1242 C1241 1.287 . S
C1242 C1243 1.571 . S
C1242 H1261 0.913 . S
C1243 H1219 0.935 1_545 S
C1243 C1242 1.571 . S
C1243 C1244 1.387 1_545 S
C1244 H1220 0.950 . S
C1244 C1239 1.363 . S
C1244 C1243 1.387 1_565 S
C1245 H1221 0.951 . S
C1245 C1246 1.366 1_554 S
C1245 C1247 1.378 1_554 S
C1246 C1245 1.366 1_556 S
C1246 C1250 1.385 . S
C1247 H1222 0.917 1_556 S
C1247 C1245 1.378 1_556 S
C1247 C1248 1.411 . S
C1248 C1247 1.411 . S
C1248 C1249 1.414 . S
C1248 C1251 1.499 . S
C1249 H1223 0.950 . S
C1249 C1248 1.414 . S
C1249 C1250 1.374 . S
C1250 H1224 0.950 . S
C1250 C1246 1.385 . S
C1250 C1249 1.374 . S
C1251 C1248 1.499 . S
C1251 C1252 1.373 . S
C1251 C1253 1.389 . S
C1252 H1225 0.950 . S
C1252 C1238 1.377 . S
C1252 C1251 1.373 . S
C1253 C1237 1.377 . S
C1253 C1251 1.389 . S
C1253 C1254 1.524 1_556 S
C1254 C1253 1.524 1_554 S
C1254 C1255 1.397 . S
C1254 C1259 1.363 . S
C1255 H1226 0.950 1_554 S
C1255 C1254 1.397 . S
C1255 C1256 1.334 . S
C1256 H1227 0.950 . S
C1256 C1255 1.334 . S
C1256 C1257 1.287 . S
C1257 C1256 1.287 . S
C1257 C1258 1.524 . S
C1257 H1260 0.999 . S
C1258 H1228 0.950 . S
C1258 C1257 1.524 . S
C1258 C1259 1.415 . S
C1259 H1229 0.950 . S
C1259 C1254 1.363 . S
C1259 C1258 1.415 . S
H1260 C1257 0.999 . S
H1261 C1242 0.913 . S
H1262 C1280 0.951 . S
H1263 C1282 0.951 . S
H1264 C1284 0.950 . S
H1265 C1285 0.950 . S
H1266 C1287 0.950 . S
H1267 C1290 0.950 . S
H1268 C1291 0.950 . S
H1269 C1293 0.950 . S
H1270 C1294 0.950 . S
H1271 C1295 0.951 . S
H1272 C1297 0.951 . S
H1273 C1299 0.950 . S
H1274 C1300 0.950 . S
H1275 C1302 0.950 . S
H1276 C1305 0.950 . S
H1277 C1306 0.950 . S
H1278 C1308 0.950 . S
H1279 C1309 0.950 . S
C1280 H1262 0.951 . S
C1280 C1281 1.366 . S
C1280 C1282 1.388 . S
C1281 C1280 1.366 . S
C1281 C1285 1.385 . S
C1282 H1263 0.951 . S
C1282 C1280 1.388 . S
C1282 C1283 1.366 . S
C1283 C1282 1.366 . S
C1283 C1284 1.414 . S
C1283 C1286 1.499 . S
C1284 H1264 0.950 . S
C1284 C1283 1.414 . S
C1284 C1285 1.374 . S
C1285 H1265 0.950 . S
C1285 C1281 1.385 . S
C1285 C1284 1.374 . S
C1286 C1283 1.499 . S
C1286 C1287 1.373 . S
C1286 C1288 1.389 . S
C1287 H1266 0.950 . S
C1287 C1286 1.373 . S
C1287 C1303 1.377 . S
C1288 C1286 1.389 . S
C1288 C1289 1.524 . S
C1288 C1302 1.377 . S
C1289 C1288 1.524 . S
C1289 C1290 1.397 . S
C1289 C1294 1.363 . S
C1290 H1267 0.950 . S
C1290 C1289 1.397 . S
C1290 C1291 1.334 . S
C1291 H1268 0.950 . S
C1291 C1290 1.334 . S
C1291 C1292 1.287 . S
C1292 C1291 1.287 . S
C1292 C1293 1.524 . S
C1292 H1311 0.913 . S
C1293 H1269 0.950 . S
C1293 C1292 1.524 . S
C1293 C1294 1.415 . S
C1294 H1270 0.950 . S
C1294 C1289 1.363 . S
C1294 C1293 1.415 . S
C1295 H1271 0.951 . S
C1295 C1296 1.366 . S
C1295 C1297 1.388 . S
C1296 C1295 1.366 . S
C1296 C1300 1.385 . S
C1297 H1272 0.951 . S
C1297 C1295 1.388 . S
C1297 C1298 1.366 . S
C1298 C1297 1.366 . S
C1298 C1299 1.414 . S
C1298 C1301 1.499 . S
C1299 H1273 0.950 . S
C1299 C1298 1.414 . S
C1299 C1300 1.374 . S
C1300 H1274 0.950 . S
C1300 C1296 1.385 . S
C1300 C1299 1.374 . S
C1301 C1298 1.499 . S
C1301 C1302 1.373 . S
C1301 C1303 1.389 . S
C1302 H1275 0.950 . S
C1302 C1288 1.377 . S
C1302 C1301 1.373 . S
C1303 C1287 1.377 . S
C1303 C1301 1.389 . S
C1303 C1304 1.524 . S
C1304 C1303 1.524 . S
C1304 C1305 1.397 . S
C1304 C1309 1.363 . S
C1305 H1276 0.950 . S
C1305 C1304 1.397 . S
C1305 C1306 1.334 . S
C1306 H1277 0.950 . S
C1306 C1305 1.334 . S
C1306 C1307 1.287 . S
C1307 C1306 1.287 . S
C1307 C1308 1.524 . S
C1307 H1310 0.999 . S
C1308 H1278 0.950 . S
C1308 C1307 1.524 . S
C1308 C1309 1.415 . S
C1309 H1279 0.950 . S
C1309 C1304 1.363 . S
C1309 C1308 1.415 . S
H1310 C1307 0.999 . S
H1311 C1292 0.913 . S
H1312 C1330 0.951 1_545 S
H1313 C1332 0.951 . S
H1314 C1334 0.950 . S
H1315 C1335 0.950 . S
H1316 C1337 0.950 . S
H1317 C1340 0.950 . S
H1318 C1341 0.950 . S
H1319 C1343 0.950 . S
H1320 C1344 0.950 . S
H1321 C1345 0.951 . S
H1322 C1347 0.951 . S
H1323 C1349 0.950 . S
H1324 C1350 0.950 . S
H1325 C1352 0.950 . S
H1326 C1355 0.950 . S
H1327 C1356 0.950 . S
H1328 C1358 0.950 . S
H1329 C1359 0.950 . S
C1330 H1312 0.951 1_565 S
C1330 C1331 1.366 . S
C1330 C1332 1.388 1_565 S
C1331 C1330 1.366 . S
C1331 C1335 1.385 . S
C1332 H1313 0.951 . S
C1332 C1330 1.388 1_545 S
C1332 C1333 1.366 . S
C1333 C1332 1.366 . S
C1333 C1334 1.414 1_545 S
C1333 C1336 1.499 . S
C1334 H1314 0.950 . S
C1334 C1333 1.414 1_565 S
C1334 C1335 1.374 . S
C1335 H1315 0.950 . S
C1335 C1331 1.385 . S
C1335 C1334 1.374 . S
C1336 C1333 1.499 . S
C1336 C1337 1.373 . S
C1336 C1338 1.389 . S
C1337 H1316 0.950 . S
C1337 C1336 1.373 . S
C1337 C1353 1.377 . S
C1338 C1336 1.389 . S
C1338 C1339 1.524 . S
C1338 C1352 1.377 . S
C1339 C1338 1.524 . S
C1339 C1340 1.397 . S
C1339 C1344 1.363 . S
C1340 H1317 0.950 . S
C1340 C1339 1.397 . S
C1340 C1341 1.334 . S
C1341 H1318 0.950 . S
C1341 C1340 1.334 . S
C1341 C1342 1.287 . S
C1342 C1341 1.287 . S
C1342 C1343 1.524 . S
C1342 H1361 0.913 . S
C1343 H1319 0.950 . S
C1343 C1342 1.524 . S
C1343 C1344 1.415 . S
C1344 H1320 0.950 . S
C1344 C1339 1.363 . S
C1344 C1343 1.415 . S
C1345 H1321 0.951 . S
C1345 C1346 1.366 . S
C1345 C1347 1.388 . S
C1346 C1345 1.366 . S
C1346 C1350 1.385 . S
C1347 H1322 0.951 . S
C1347 C1345 1.388 . S
C1347 C1348 1.366 . S
C1348 C1347 1.366 . S
C1348 C1349 1.414 . S
C1348 C1351 1.499 . S
C1349 H1323 0.950 . S
C1349 C1348 1.414 . S
C1349 C1350 1.374 . S
C1350 H1324 0.950 . S
C1350 C1346 1.385 . S
C1350 C1349 1.374 . S
C1351 C1348 1.499 . S
C1351 C1352 1.373 . S
C1351 C1353 1.389 . S
C1352 H1325 0.950 . S
C1352 C1338 1.377 . S
C1352 C1351 1.373 . S
C1353 C1337 1.377 . S
C1353 C1351 1.389 . S
C1353 C1354 1.524 . S
C1354 C1353 1.524 . S
C1354 C1355 1.397 . S
C1354 C1359 1.363 . S
C1355 H1326 0.950 . S
C1355 C1354 1.397 . S
C1355 C1356 1.334 . S
C1356 H1327 0.950 . S
C1356 C1355 1.334 . S
C1356 C1357 1.287 . S
C1357 C1356 1.287 . S
C1357 C1358 1.524 . S
C1357 H1360 0.999 . S
C1358 H1328 0.950 . S
C1358 C1357 1.524 . S
C1358 C1359 1.415 . S
C1359 H1329 0.950 . S
C1359 C1354 1.363 . S
C1359 C1358 1.415 . S
H1360 C1357 0.999 . S
H1361 C1342 0.913 . S
H1362 C1380 0.951 . S
H1363 C1382 0.951 . S
H1364 C1384 0.950 . S
H1365 C1385 0.950 . S
H1366 C1387 0.950 . S
H1367 C1390 0.950 . S
H1368 C1391 0.950 . S
H1369 C1393 0.950 . S
H1370 C1394 0.950 . S
H1371 C1395 0.951 . S
H1372 C1397 0.951 . S
H1373 C1399 0.950 . S
H1374 C1400 0.950 . S
H1375 C1402 0.950 . S
H1376 C1405 0.950 . S
H1377 C1406 0.950 . S
H1378 C1408 0.950 . S
H1379 C1409 0.950 . S
C1380 H1362 0.951 . S
C1380 C1381 1.366 . S
C1380 C1382 1.388 . S
C1381 C1380 1.366 . S
C1381 C1385 1.385 . S
C1382 H1363 0.951 . S
C1382 C1380 1.388 . S
C1382 C1383 1.366 . S
C1383 C1382 1.366 . S
C1383 C1384 1.414 . S
C1383 C1386 1.499 . S
C1384 H1364 0.950 . S
C1384 C1383 1.414 . S
C1384 C1385 1.374 . S
C1385 H1365 0.950 . S
C1385 C1381 1.385 . S
C1385 C1384 1.374 . S
C1386 C1383 1.499 . S
C1386 C1387 1.373 . S
C1386 C1388 1.389 . S
C1387 H1366 0.950 . S
C1387 C1386 1.373 . S
C1387 C1403 1.377 . S
C1388 C1386 1.389 . S
C1388 C1389 1.524 . S
C1388 C1402 1.377 . S
C1389 C1388 1.524 . S
C1389 C1390 1.397 . S
C1389 C1394 1.363 . S
C1390 H1367 0.950 . S
C1390 C1389 1.397 . S
C1390 C1391 1.334 . S
C1391 H1368 0.950 . S
C1391 C1390 1.334 . S
C1391 C1392 1.287 . S
C1392 C1391 1.287 . S
C1392 C1393 1.524 . S
C1392 H1411 0.913 . S
C1393 H1369 0.950 . S
C1393 C1392 1.524 . S
C1393 C1394 1.415 . S
C1394 H1370 0.950 . S
C1394 C1389 1.363 . S
C1394 C1393 1.415 . S
C1395 H1371 0.951 . S
C1395 C1396 1.366 . S
C1395 C1397 1.388 . S
C1396 C1395 1.366 . S
C1396 C1400 1.385 . S
C1397 H1372 0.951 . S
C1397 C1395 1.388 . S
C1397 C1398 1.366 . S
C1398 C1397 1.366 . S
C1398 C1399 1.414 . S
C1398 C1401 1.499 . S
C1399 H1373 0.950 . S
C1399 C1398 1.414 . S
C1399 C1400 1.374 . S
C1400 H1374 0.950 . S
C1400 C1396 1.385 . S
C1400 C1399 1.374 . S
C1401 C1398 1.499 . S
C1401 C1402 1.373 . S
C1401 C1403 1.389 . S
C1402 H1375 0.950 . S
C1402 C1388 1.377 . S
C1402 C1401 1.373 . S
C1403 C1387 1.377 . S
C1403 C1401 1.389 . S
C1403 C1404 1.524 . S
C1404 C1403 1.524 . S
C1404 C1405 1.397 . S
C1404 C1409 1.363 . S
C1405 H1376 0.950 . S
C1405 C1404 1.397 . S
C1405 C1406 1.334 . S
C1406 H1377 0.950 . S
C1406 C1405 1.334 . S
C1406 C1407 1.287 . S
C1407 C1406 1.287 . S
C1407 C1408 1.524 . S
C1407 H1410 0.999 . S
C1408 H1378 0.950 . S
C1408 C1407 1.524 . S
C1408 C1409 1.415 . S
C1409 H1379 0.950 . S
C1409 C1404 1.363 . S
C1409 C1408 1.415 . S
H1410 C1407 0.999 . S
H1411 C1392 0.913 . S
H1412 C1430 0.951 . S
H1413 C1432 0.951 . S
H1414 C1434 0.950 . S
H1415 C1435 0.943 1_545 S
H1416 C1437 0.950 . S
H1417 C1440 0.950 . S
H1418 C1441 0.950 . S
H1419 C1443 0.950 . S
H1420 C1444 0.950 . S
H1421 C1445 0.951 . S
H1422 C1447 0.951 . S
H1423 C1449 0.950 . S
H1424 C1450 0.950 . S
H1425 C1452 0.950 . S
H1426 C1455 0.950 . S
H1427 C1456 0.950 . S
H1428 C1458 0.950 . S
H1429 C1459 0.950 . S
C1430 H1412 0.951 . S
C1430 C1431 1.366 . S
C1430 C1432 1.388 . S
C1431 C1430 1.366 . S
C1431 C1435 1.427 . S
C1432 H1413 0.951 . S
C1432 C1430 1.388 . S
C1432 C1433 1.366 1_565 S
C1433 C1432 1.366 1_545 S
C1433 C1434 1.414 . S
C1433 C1436 1.499 . S
C1434 H1414 0.950 . S
C1434 C1433 1.414 . S
C1434 C1435 1.340 1_545 S
C1435 H1415 0.943 1_565 S
C1435 C1431 1.427 . S
C1435 C1434 1.340 1_565 S
C1436 C1433 1.499 . S
C1436 C1437 1.373 . S
C1436 C1438 1.389 . S
C1437 H1416 0.950 . S
C1437 C1436 1.373 . S
C1437 C1453 1.377 . S
C1438 C1436 1.389 . S
C1438 C1439 1.524 1_545 S
C1438 C1452 1.377 . S
C1439 C1438 1.524 1_565 S
C1439 C1440 1.397 . S
C1439 C1444 1.363 . S
C1440 H1417 0.950 . S
C1440 C1439 1.397 . S
C1440 C1441 1.334 . S
C1441 H1418 0.950 . S
C1441 C1440 1.334 . S
C1441 C1442 1.287 . S
C1442 C1441 1.287 . S
C1442 C1443 1.524 . S
C1442 H1461 0.913 . S
C1443 H1419 0.950 . S
C1443 C1442 1.524 . S
C1443 C1444 1.415 . S
C1444 H1420 0.950 . S
C1444 C1439 1.363 . S
C1444 C1443 1.415 . S
C1445 H1421 0.951 . S
C1445 C1446 1.366 . S
C1445 C1447 1.388 . S
C1446 C1445 1.366 . S
C1446 C1450 1.385 . S
C1447 H1422 0.951 . S
C1447 C1445 1.388 . S
C1447 C1448 1.366 . S
C1448 C1447 1.366 . S
C1448 C1449 1.414 . S
C1448 C1451 1.499 . S
C1449 H1423 0.950 . S
C1449 C1448 1.414 . S
C1449 C1450 1.374 . S
C1450 H1424 0.950 . S
C1450 C1446 1.385 . S
C1450 C1449 1.374 . S
C1451 C1448 1.499 . S
C1451 C1452 1.373 . S
C1451 C1453 1.389 . S
C1452 H1425 0.950 . S
C1452 C1438 1.377 . S
C1452 C1451 1.373 . S
C1453 C1437 1.377 . S
C1453 C1451 1.389 . S
C1453 C1454 1.524 . S
C1454 C1453 1.524 . S
C1454 C1455 1.397 . S
C1454 C1459 1.363 . S
C1455 H1426 0.950 . S
C1455 C1454 1.397 . S
C1455 C1456 1.334 . S
C1456 H1427 0.950 . S
C1456 C1455 1.334 . S
C1456 C1457 1.287 . S
C1457 C1456 1.287 . S
C1457 C1458 1.524 . S
C1457 H1460 0.999 . S
C1458 H1428 0.950 . S
C1458 C1457 1.524 . S
C1458 C1459 1.415 . S
C1459 H1429 0.950 . S
C1459 C1454 1.363 . S
C1459 C1458 1.415 . S
H1460 C1457 0.999 . S
H1461 C1442 0.913 . S
H1462 C1480 0.951 . S
H1463 C1482 0.951 . S
H1464 C1484 0.950 . S
H1465 C1485 0.950 . S
H1466 C1487 0.950 . S
H1467 C1490 0.950 . S
H1468 C1491 0.950 . S
H1469 C1493 0.950 . S
H1470 C1494 0.950 . S
H1471 C1495 0.951 . S
H1472 C1497 0.951 . S
H1473 C1499 0.950 . S
H1474 C1500 0.950 . S
H1475 C1502 0.950 . S
H1476 C1505 0.950 . S
H1477 C1506 0.950 . S
H1478 C1508 0.950 . S
H1479 C1509 0.950 . S
C1480 H1462 0.951 . S
C1480 C1481 1.366 . S
C1480 C1482 1.388 . S
C1481 C1480 1.366 . S
C1481 C1485 1.385 . S
C1482 H1463 0.951 . S
C1482 C1480 1.388 . S
C1482 C1483 1.366 . S
C1483 C1482 1.366 . S
C1483 C1484 1.414 . S
C1483 C1486 1.499 . S
C1484 H1464 0.950 . S
C1484 C1483 1.414 . S
C1484 C1485 1.374 . S
C1485 H1465 0.950 . S
C1485 C1481 1.385 . S
C1485 C1484 1.374 . S
C1486 C1483 1.499 . S
C1486 C1487 1.373 . S
C1486 C1488 1.389 . S
C1487 H1466 0.950 . S
C1487 C1486 1.373 . S
C1487 C1503 1.377 . S
C1488 C1486 1.389 . S
C1488 C1489 1.524 . S
C1488 C1502 1.377 . S
C1489 C1488 1.524 . S
C1489 C1490 1.397 . S
C1489 C1494 1.363 . S
C1490 H1467 0.950 . S
C1490 C1489 1.397 . S
C1490 C1491 1.334 . S
C1491 H1468 0.950 . S
C1491 C1490 1.334 . S
C1491 C1492 1.287 . S
C1492 C1491 1.287 . S
C1492 C1493 1.524 . S
C1492 H1511 0.913 . S
C1493 H1469 0.950 . S
C1493 C1492 1.524 . S
C1493 C1494 1.415 . S
C1494 H1470 0.950 . S
C1494 C1489 1.363 . S
C1494 C1493 1.415 . S
C1495 H1471 0.951 . S
C1495 C1496 1.366 . S
C1495 C1497 1.388 . S
C1496 C1495 1.366 . S
C1496 C1500 1.385 . S
C1497 H1472 0.951 . S
C1497 C1495 1.388 . S
C1497 C1498 1.366 . S
C1498 C1497 1.366 . S
C1498 C1499 1.414 . S
C1498 C1501 1.499 . S
C1499 H1473 0.950 . S
C1499 C1498 1.414 . S
C1499 C1500 1.374 . S
C1500 H1474 0.950 . S
C1500 C1496 1.385 . S
C1500 C1499 1.374 . S
C1501 C1498 1.499 . S
C1501 C1502 1.373 . S
C1501 C1503 1.389 . S
C1502 H1475 0.950 . S
C1502 C1488 1.377 . S
C1502 C1501 1.373 . S
C1503 C1487 1.377 . S
C1503 C1501 1.389 . S
C1503 C1504 1.524 . S
C1504 C1503 1.524 . S
C1504 C1505 1.397 . S
C1504 C1509 1.363 . S
C1505 H1476 0.950 . S
C1505 C1504 1.397 . S
C1505 C1506 1.334 . S
C1506 H1477 0.950 . S
C1506 C1505 1.334 . S
C1506 C1507 1.287 . S
C1507 C1506 1.287 . S
C1507 C1508 1.524 . S
C1507 H1510 0.999 . S
C1508 H1478 0.950 . S
C1508 C1507 1.524 . S
C1508 C1509 1.415 . S
C1509 H1479 0.950 . S
C1509 C1504 1.363 . S
C1509 C1508 1.415 . S
H1510 C1507 0.999 . S
H1511 C1492 0.913 . S
H1512 C1530 0.951 . S
H1513 C1532 0.951 . S
H1514 C1534 0.950 . S
H1515 C1535 0.950 . S
H1516 C1537 0.950 . S
H1517 C1540 0.950 . S
H1518 C1541 0.950 . S
H1519 C1543 0.950 . S
H1520 C1544 0.950 . S
H1521 C1545 0.951 . S
H1522 C1547 0.951 . S
H1523 C1549 0.950 . S
H1524 C1550 0.950 . S
H1525 C1552 0.950 . S
H1526 C1555 0.950 . S
H1527 C1556 0.950 . S
H1528 C1558 0.950 . S
H1529 C1559 0.950 . S
C1530 H1512 0.951 . S
C1530 C1531 1.366 . S
C1530 C1532 1.388 . S
C1531 C1530 1.366 . S
C1531 C1535 1.385 . S
C1532 H1513 0.951 . S
C1532 C1530 1.388 . S
C1532 C1533 1.366 . S
C1533 C1532 1.366 . S
C1533 C1534 1.414 . S
C1533 C1536 1.499 . S
C1534 H1514 0.950 . S
C1534 C1533 1.414 . S
C1534 C1535 1.374 . S
C1535 H1515 0.950 . S
C1535 C1531 1.385 . S
C1535 C1534 1.374 . S
C1536 C1533 1.499 . S
C1536 C1537 1.373 . S
C1536 C1538 1.389 . S
C1537 H1516 0.950 . S
C1537 C1536 1.373 . S
C1537 C1553 1.377 . S
C1538 C1536 1.389 . S
C1538 C1539 1.524 . S
C1538 C1552 1.377 . S
C1539 C1538 1.524 . S
C1539 C1540 1.397 . S
C1539 C1544 1.363 . S
C1540 H1517 0.950 . S
C1540 C1539 1.397 . S
C1540 C1541 1.334 . S
C1541 H1518 0.950 . S
C1541 C1540 1.334 . S
C1541 C1542 1.287 . S
C1542 C1541 1.287 . S
C1542 C1543 1.524 . S
C1542 H1561 0.913 . S
C1543 H1519 0.950 . S
C1543 C1542 1.524 . S
C1543 C1544 1.415 . S
C1544 H1520 0.950 . S
C1544 C1539 1.363 . S
C1544 C1543 1.415 . S
C1545 H1521 0.951 . S
C1545 C1546 1.366 . S
C1545 C1547 1.388 . S
C1546 C1545 1.366 . S
C1546 C1550 1.385 . S
C1547 H1522 0.951 . S
C1547 C1545 1.388 . S
C1547 C1548 1.366 . S
C1548 C1547 1.366 . S
C1548 C1549 1.414 . S
C1548 C1551 1.499 . S
C1549 H1523 0.950 . S
C1549 C1548 1.414 . S
C1549 C1550 1.374 . S
C1550 H1524 0.950 . S
C1550 C1546 1.385 . S
C1550 C1549 1.374 . S
C1551 C1548 1.499 . S
C1551 C1552 1.373 . S
C1551 C1553 1.389 . S
C1552 H1525 0.950 . S
C1552 C1538 1.377 . S
C1552 C1551 1.373 . S
C1553 C1537 1.377 . S
C1553 C1551 1.389 . S
C1553 C1554 1.524 . S
C1554 C1553 1.524 . S
C1554 C1555 1.397 . S
C1554 C1559 1.363 . S
C1555 H1526 0.950 . S
C1555 C1554 1.397 . S
C1555 C1556 1.334 . S
C1556 H1527 0.950 . S
C1556 C1555 1.334 . S
C1556 C1557 1.287 . S
C1557 C1556 1.287 . S
C1557 C1558 1.524 . S
C1557 H1560 0.999 . S
C1558 H1528 0.950 . S
C1558 C1557 1.524 . S
C1558 C1559 1.415 . S
C1559 H1529 0.950 . S
C1559 C1554 1.363 . S
C1559 C1558 1.415 . S
H1560 C1557 0.999 . S
H1561 C1542 0.913 . S
H1562 C1580 0.951 . S
H1563 C1582 0.951 . S
H1564 C1584 0.950 . S
H1565 C1585 0.950 . S
H1566 C1587 0.950 . S
H1567 C1590 0.950 . S
H1568 C1591 0.950 . S
H1569 C1593 0.950 . S
H1570 C1594 0.950 . S
H1571 C1595 0.951 . S
H1572 C1597 0.951 . S
H1573 C1599 0.950 . S
H1574 C1600 0.950 . S
H1575 C1602 0.950 . S
H1576 C1605 0.950 . S
H1577 C1606 0.950 . S
H1578 C1608 0.950 . S
H1579 C1609 0.950 . S
C1580 H1562 0.951 . S
C1580 C1581 1.366 . S
C1580 C1582 1.388 . S
C1581 C1580 1.366 . S
C1581 C1585 1.385 . S
C1582 H1563 0.951 . S
C1582 C1580 1.388 . S
C1582 C1583 1.366 . S
C1583 C1582 1.366 . S
C1583 C1584 1.414 . S
C1583 C1586 1.499 . S
C1584 H1564 0.950 . S
C1584 C1583 1.414 . S
C1584 C1585 1.374 . S
C1585 H1565 0.950 . S
C1585 C1581 1.385 . S
C1585 C1584 1.374 . S
C1586 C1583 1.499 . S
C1586 C1587 1.373 . S
C1586 C1588 1.389 . S
C1587 H1566 0.950 . S
C1587 C1586 1.373 . S
C1587 C1603 1.377 . S
C1588 C1586 1.389 . S
C1588 C1589 1.550 . S
C1588 C1602 1.377 . S
C1589 C1588 1.550 . S
C1589 C1590 1.384 1_545 S
C1589 C1594 1.350 1_545 S
C1590 H1567 0.950 . S
C1590 C1589 1.384 1_565 S
C1590 C1591 1.334 . S
C1591 H1568 0.950 . S
C1591 C1590 1.334 . S
C1591 C1592 1.287 . S
C1592 C1591 1.287 . S
C1592 C1593 1.524 . S
C1592 H1611 0.913 . S
C1593 H1569 0.950 . S
C1593 C1592 1.524 . S
C1593 C1594 1.415 . S
C1594 H1570 0.950 . S
C1594 C1589 1.350 1_565 S
C1594 C1593 1.415 . S
C1595 H1571 0.951 . S
C1595 C1596 1.366 . S
C1595 C1597 1.388 . S
C1596 C1595 1.366 . S
C1596 C1600 1.385 . S
C1597 H1572 0.951 . S
C1597 C1595 1.388 . S
C1597 C1598 1.366 . S
C1598 C1597 1.366 . S
C1598 C1599 1.414 . S
C1598 C1601 1.499 . S
C1599 H1573 0.950 . S
C1599 C1598 1.414 . S
C1599 C1600 1.374 . S
C1600 H1574 0.950 . S
C1600 C1596 1.385 . S
C1600 C1599 1.374 . S
C1601 C1598 1.499 . S
C1601 C1602 1.373 . S
C1601 C1603 1.389 . S
C1602 H1575 0.950 . S
C1602 C1588 1.377 . S
C1602 C1601 1.373 . S
C1603 C1587 1.377 . S
C1603 C1601 1.389 . S
C1603 C1604 1.524 . S
C1604 C1603 1.524 . S
C1604 C1605 1.397 . S
C1604 C1609 1.363 . S
C1605 H1576 0.950 . S
C1605 C1604 1.397 . S
C1605 C1606 1.334 . S
C1606 H1577 0.950 . S
C1606 C1605 1.334 . S
C1606 C1607 1.287 . S
C1607 C1606 1.287 . S
C1607 C1608 1.524 . S
C1607 H1610 0.999 . S
C1608 H1578 0.950 . S
C1608 C1607 1.524 . S
C1608 C1609 1.415 . S
C1609 H1579 0.950 . S
C1609 C1604 1.363 . S
C1609 C1608 1.415 . S
H1610 C1607 0.999 . S
H1611 C1592 0.913 . S
H1612 C1630 0.951 . S
H1613 C1632 0.951 . S
H1614 C1634 0.950 . S
H1615 C1635 0.950 . S
H1616 C1637 0.950 . S
H1617 C1640 0.950 . S
H1618 C1641 0.950 . S
H1619 C1643 0.950 . S
H1620 C1644 0.950 . S
H1621 C1645 0.951 . S
H1622 C1647 0.951 . S
H1623 C1649 0.950 . S
H1624 C1650 0.950 . S
H1625 C1652 0.950 . S
H1626 C1655 0.950 . S
H1627 C1656 0.950 . S
H1628 C1658 0.950 . S
H1629 C1659 0.950 . S
C1630 H1612 0.951 . S
C1630 C1631 1.366 . S
C1630 C1632 1.388 . S
C1631 C1630 1.366 . S
C1631 C1635 1.385 . S
C1632 H1613 0.951 . S
C1632 C1630 1.388 . S
C1632 C1633 1.366 . S
C1633 C1632 1.366 . S
C1633 C1634 1.414 . S
C1633 C1636 1.499 . S
C1634 H1614 0.950 . S
C1634 C1633 1.414 . S
C1634 C1635 1.374 . S
C1635 H1615 0.950 . S
C1635 C1631 1.385 . S
C1635 C1634 1.374 . S
C1636 C1633 1.499 . S
C1636 C1637 1.373 . S
C1636 C1638 1.389 . S
C1637 H1616 0.950 . S
C1637 C1636 1.373 . S
C1637 C1653 1.377 . S
C1638 C1636 1.389 . S
C1638 C1639 1.524 . S
C1638 C1652 1.377 . S
C1639 C1638 1.524 . S
C1639 C1640 1.397 . S
C1639 C1644 1.363 . S
C1640 H1617 0.950 . S
C1640 C1639 1.397 . S
C1640 C1641 1.334 . S
C1641 H1618 0.950 . S
C1641 C1640 1.334 . S
C1641 C1642 1.287 . S
C1642 C1641 1.287 . S
C1642 C1643 1.524 . S
C1642 H1661 0.913 . S
C1643 H1619 0.950 . S
C1643 C1642 1.524 . S
C1643 C1644 1.415 . S
C1644 H1620 0.950 . S
C1644 C1639 1.363 . S
C1644 C1643 1.415 . S
C1645 H1621 0.951 . S
C1645 C1646 1.366 . S
C1645 C1647 1.388 . S
C1646 C1645 1.366 . S
C1646 C1650 1.385 . S
C1647 H1622 0.951 . S
C1647 C1645 1.388 . S
C1647 C1648 1.366 . S
C1648 C1647 1.366 . S
C1648 C1649 1.414 . S
C1648 C1651 1.499 . S
C1649 H1623 0.950 . S
C1649 C1648 1.414 . S
C1649 C1650 1.374 . S
C1650 H1624 0.950 . S
C1650 C1646 1.385 . S
C1650 C1649 1.374 . S
C1651 C1648 1.499 . S
C1651 C1652 1.373 . S
C1651 C1653 1.389 . S
C1652 H1625 0.950 . S
C1652 C1638 1.377 . S
C1652 C1651 1.373 . S
C1653 C1637 1.377 . S
C1653 C1651 1.389 . S
C1653 C1654 1.524 . S
C1654 C1653 1.524 . S
C1654 C1655 1.397 . S
C1654 C1659 1.363 . S
C1655 H1626 0.950 . S
C1655 C1654 1.397 . S
C1655 C1656 1.334 . S
C1656 H1627 0.950 . S
C1656 C1655 1.334 . S
C1656 C1657 1.287 . S
C1657 C1656 1.287 . S
C1657 C1658 1.524 . S
C1657 H1660 0.999 . S
C1658 H1628 0.950 . S
C1658 C1657 1.524 . S
C1658 C1659 1.415 . S
C1659 H1629 0.950 . S
C1659 C1654 1.363 . S
C1659 C1658 1.415 . S
H1660 C1657 0.999 . S
H1661 C1642 0.913 . S
H1662 C1680 0.951 . S
H1663 C1682 0.951 . S
H1664 C1684 0.950 . S
H1665 C1685 0.950 . S
H1666 C1687 0.950 . S
H1667 C1690 0.950 . S
H1668 C1691 0.950 . S
H1669 C1693 0.950 . S
H1670 C1694 0.950 . S
H1671 C1695 0.951 . S
H1672 C1697 0.951 . S
H1673 C1699 0.950 . S
H1674 C1700 0.950 . S
H1675 C1702 0.950 . S
H1676 C1705 0.950 . S
H1677 C1706 0.950 . S
H1678 C1708 0.950 . S
H1679 C1709 0.950 . S
C1680 H1662 0.951 . S
C1680 C1681 1.366 . S
C1680 C1682 1.388 . S
C1681 C1680 1.366 . S
C1681 C1685 1.385 . S
C1682 H1663 0.951 . S
C1682 C1680 1.388 . S
C1682 C1683 1.366 . S
C1683 C1682 1.366 . S
C1683 C1684 1.414 . S
C1683 C1686 1.499 . S
C1684 H1664 0.950 . S
C1684 C1683 1.414 . S
C1684 C1685 1.374 . S
C1685 H1665 0.950 . S
C1685 C1681 1.385 . S
C1685 C1684 1.374 . S
C1686 C1683 1.499 . S
C1686 C1687 1.373 . S
C1686 C1688 1.389 . S
C1687 H1666 0.950 . S
C1687 C1686 1.373 . S
C1687 C1703 1.377 . S
C1688 C1686 1.389 . S
C1688 C1689 1.524 . S
C1688 C1702 1.377 . S
C1689 C1688 1.524 . S
C1689 C1690 1.397 . S
C1689 C1694 1.363 . S
C1690 H1667 0.950 . S
C1690 C1689 1.397 . S
C1690 C1691 1.334 . S
C1691 H1668 0.950 . S
C1691 C1690 1.334 . S
C1691 C1692 1.287 . S
C1692 C1691 1.287 . S
C1692 C1693 1.524 . S
C1692 H1711 0.913 . S
C1693 H1669 0.950 . S
C1693 C1692 1.524 . S
C1693 C1694 1.415 . S
C1694 H1670 0.950 . S
C1694 C1689 1.363 . S
C1694 C1693 1.415 . S
C1695 H1671 0.951 . S
C1695 C1696 1.366 . S
C1695 C1697 1.388 . S
C1696 C1695 1.366 . S
C1696 C1700 1.385 . S
C1697 H1672 0.951 . S
C1697 C1695 1.388 . S
C1697 C1698 1.366 . S
C1698 C1697 1.366 . S
C1698 C1699 1.414 . S
C1698 C1701 1.499 . S
C1699 H1673 0.950 . S
C1699 C1698 1.414 . S
C1699 C1700 1.374 . S
C1700 H1674 0.950 . S
C1700 C1696 1.385 . S
C1700 C1699 1.374 . S
C1701 C1698 1.499 . S
C1701 C1702 1.373 . S
C1701 C1703 1.389 . S
C1702 H1675 0.950 . S
C1702 C1688 1.377 . S
C1702 C1701 1.373 . S
C1703 C1687 1.377 . S
C1703 C1701 1.389 . S
C1703 C1704 1.524 . S
C1704 C1703 1.524 . S
C1704 C1705 1.397 . S
C1704 C1709 1.363 . S
C1705 H1676 0.950 . S
C1705 C1704 1.397 . S
C1705 C1706 1.334 . S
C1706 H1677 0.950 . S
C1706 C1705 1.334 . S
C1706 C1707 1.287 . S
C1707 C1706 1.287 . S
C1707 C1708 1.524 . S
C1707 H1710 0.999 . S
C1708 H1678 0.950 . S
C1708 C1707 1.524 . S
C1708 C1709 1.415 . S
C1709 H1679 0.950 . S
C1709 C1704 1.363 . S
C1709 C1708 1.415 . S
H1710 C1707 0.999 . S
H1711 C1692 0.913 . S
H1712 C1730 0.951 . S
H1713 C1732 0.951 . S
H1714 C1734 0.950 . S
H1715 C1735 0.950 . S
H1716 C1737 0.950 . S
H1717 C1740 0.950 . S
H1718 C1741 0.950 . S
H1719 C1743 0.950 . S
H1720 C1744 0.950 . S
H1721 C1745 0.951 . S
H1722 C1747 0.951 . S
H1723 C1749 0.950 . S
H1724 C1750 0.950 . S
H1725 C1752 0.950 . S
H1726 C1755 0.950 . S
H1727 C1756 0.950 . S
H1728 C1758 0.950 . S
H1729 C1759 0.950 . S
C1730 H1712 0.951 . S
C1730 C1731 1.366 . S
C1730 C1732 1.388 . S
C1731 C1730 1.366 . S
C1731 C1735 1.385 . S
C1732 H1713 0.951 . S
C1732 C1730 1.388 . S
C1732 C1733 1.366 . S
C1733 C1732 1.366 . S
C1733 C1734 1.414 . S
C1733 C1736 1.499 . S
C1734 H1714 0.950 . S
C1734 C1733 1.414 . S
C1734 C1735 1.374 . S
C1735 H1715 0.950 . S
C1735 C1731 1.385 . S
C1735 C1734 1.374 . S
C1736 C1733 1.499 . S
C1736 C1737 1.373 . S
C1736 C1738 1.389 . S
C1737 H1716 0.950 . S
C1737 C1736 1.373 . S
C1737 C1753 1.377 . S
C1738 C1736 1.389 . S
C1738 C1739 1.524 . S
C1738 C1752 1.377 . S
C1739 C1738 1.524 . S
C1739 C1740 1.397 . S
C1739 C1744 1.363 . S
C1740 H1717 0.950 . S
C1740 C1739 1.397 . S
C1740 C1741 1.334 . S
C1741 H1718 0.950 . S
C1741 C1740 1.334 . S
C1741 C1742 1.287 . S
C1742 C1741 1.287 . S
C1742 C1743 1.524 . S
C1742 H1761 0.913 . S
C1743 H1719 0.950 . S
C1743 C1742 1.524 . S
C1743 C1744 1.415 . S
C1744 H1720 0.950 . S
C1744 C1739 1.363 . S
C1744 C1743 1.415 . S
C1745 H1721 0.951 . S
C1745 C1746 1.366 . S
C1745 C1747 1.388 . S
C1746 C1745 1.366 . S
C1746 C1750 1.385 . S
C1747 H1722 0.951 . S
C1747 C1745 1.388 . S
C1747 C1748 1.366 . S
C1748 C1747 1.366 . S
C1748 C1749 1.414 . S
C1748 C1751 1.499 . S
C1749 H1723 0.950 . S
C1749 C1748 1.414 . S
C1749 C1750 1.374 . S
C1750 H1724 0.950 . S
C1750 C1746 1.385 . S
C1750 C1749 1.374 . S
C1751 C1748 1.499 . S
C1751 C1752 1.373 . S
C1751 C1753 1.389 . S
C1752 H1725 0.950 . S
C1752 C1738 1.377 . S
C1752 C1751 1.373 . S
C1753 C1737 1.377 . S
C1753 C1751 1.389 . S
C1753 C1754 1.524 . S
C1754 C1753 1.524 . S
C1754 C1755 1.397 . S
C1754 C1759 1.363 . S
C1755 H1726 0.950 . S
C1755 C1754 1.397 . S
C1755 C1756 1.334 . S
C1756 H1727 0.950 . S
C1756 C1755 1.334 . S
C1756 C1757 1.287 . S
C1757 C1756 1.287 . S
C1757 C1758 1.524 . S
C1757 H1760 0.999 . S
C1758 H1728 0.950 . S
C1758 C1757 1.524 . S
C1758 C1759 1.415 . S
C1759 H1729 0.950 . S
C1759 C1754 1.363 . S
C1759 C1758 1.415 . S
H1760 C1757 0.999 . S
H1761 C1742 0.913 . S
H1762 C1780 0.951 . S
H1763 C1782 0.951 . S
H1764 C1784 0.950 . S
H1765 C1785 0.950 . S
H1766 C1787 0.950 . S
H1767 C1790 0.950 . S
H1768 C1791 0.950 . S
H1769 C1793 0.950 . S
H1770 C1794 0.950 . S
H1771 C1795 0.951 . S
H1772 C1797 0.951 . S
H1773 C1799 0.950 . S
H1774 C1800 0.950 . S
H1775 C1802 0.950 . S
H1776 C1805 0.950 . S
H1777 C1806 0.950 . S
H1778 C1808 0.950 1_455 S
H1779 C1809 0.950 1_455 S
C1780 H1762 0.951 . S
C1780 C1781 1.366 1_655 S
C1780 C1782 1.388 . S
C1781 C1780 1.366 1_455 S
C1781 C1785 1.385 . S
C1782 H1763 0.951 . S
C1782 C1780 1.388 . S
C1782 C1783 1.366 . S
C1783 C1782 1.366 . S
C1783 C1784 1.414 1_655 S
C1783 C1786 1.499 . S
C1784 H1764 0.950 . S
C1784 C1783 1.414 1_455 S
C1784 C1785 1.374 . S
C1785 H1765 0.950 . S
C1785 C1781 1.385 . S
C1785 C1784 1.374 . S
C1786 C1783 1.499 . S
C1786 C1787 1.373 . S
C1786 C1788 1.389 . S
C1787 H1766 0.950 . S
C1787 C1786 1.373 . S
C1787 C1803 1.377 . S
C1788 C1786 1.389 . S
C1788 C1789 1.524 . S
C1788 C1802 1.377 . S
C1789 C1788 1.524 . S
C1789 C1790 1.397 . S
C1789 C1794 1.363 . S
C1790 H1767 0.950 . S
C1790 C1789 1.397 . S
C1790 C1791 1.334 . S
C1791 H1768 0.950 . S
C1791 C1790 1.334 . S
C1791 C1792 1.287 . S
C1792 C1791 1.287 . S
C1792 C1793 1.524 . S
C1792 H1811 0.913 . S
C1793 H1769 0.950 . S
C1793 C1792 1.524 . S
C1793 C1794 1.415 . S
C1794 H1770 0.950 . S
C1794 C1789 1.363 . S
C1794 C1793 1.415 . S
C1795 H1771 0.951 . S
C1795 C1796 1.366 . S
C1795 C1797 1.388 . S
C1796 C1795 1.366 . S
C1796 C1800 1.385 . S
C1797 H1772 0.951 . S
C1797 C1795 1.388 . S
C1797 C1798 1.366 . S
C1798 C1797 1.366 . S
C1798 C1799 1.414 . S
C1798 C1801 1.499 . S
C1799 H1773 0.950 . S
C1799 C1798 1.414 . S
C1799 C1800 1.374 . S
C1800 H1774 0.950 . S
C1800 C1796 1.385 . S
C1800 C1799 1.374 . S
C1801 C1798 1.499 . S
C1801 C1802 1.373 . S
C1801 C1803 1.389 . S
C1802 H1775 0.950 . S
C1802 C1788 1.377 . S
C1802 C1801 1.373 . S
C1803 C1787 1.377 . S
C1803 C1801 1.389 . S
C1803 C1804 1.524 1_545 S
C1804 C1803 1.524 1_565 S
C1804 C1805 1.397 . S
C1804 C1809 1.363 . S
C1805 H1776 0.950 . S
C1805 C1804 1.397 . S
C1805 C1806 1.334 . S
C1806 H1777 0.950 . S
C1806 C1805 1.334 . S
C1806 C1807 1.287 . S
C1807 C1806 1.287 . S
C1807 C1808 1.524 . S
C1807 H1810 0.999 . S
C1808 H1778 0.950 1_655 S
C1808 C1807 1.524 . S
C1808 C1809 1.415 . S
C1809 H1779 0.950 1_655 S
C1809 C1804 1.363 . S
C1809 C1808 1.415 . S
H1810 C1807 0.999 . S
H1811 C1792 0.913 . S
H1812 C1830 0.951 . S
H1813 C1832 0.951 . S
H1814 C1834 0.950 . S
H1815 C1835 0.950 . S
H1816 C1837 0.950 . S
H1817 C1840 0.950 . S
H1818 C1841 0.950 . S
H1819 C1843 0.950 . S
H1820 C1844 0.950 . S
H1821 C1845 0.951 . S
H1822 C1847 0.951 . S
H1823 C1849 0.950 . S
H1824 C1850 0.950 . S
H1825 C1852 0.950 . S
H1826 C1855 0.950 . S
H1827 C1856 0.950 . S
H1828 C1858 0.950 . S
H1829 C1859 0.950 . S
C1830 H1812 0.951 . S
C1830 C1831 1.366 . S
C1830 C1832 1.388 . S
C1831 C1830 1.366 . S
C1831 C1835 1.385 . S
C1832 H1813 0.951 . S
C1832 C1830 1.388 . S
C1832 C1833 1.366 . S
C1833 C1832 1.366 . S
C1833 C1834 1.414 . S
C1833 C1836 1.499 . S
C1834 H1814 0.950 . S
C1834 C1833 1.414 . S
C1834 C1835 1.374 . S
C1835 H1815 0.950 . S
C1835 C1831 1.385 . S
C1835 C1834 1.374 . S
C1836 C1833 1.499 . S
C1836 C1837 1.373 . S
C1836 C1838 1.389 . S
C1837 H1816 0.950 . S
C1837 C1836 1.373 . S
C1837 C1853 1.377 . S
C1838 C1836 1.389 . S
C1838 C1839 1.524 . S
C1838 C1852 1.377 . S
C1839 C1838 1.524 . S
C1839 C1840 1.397 . S
C1839 C1844 1.363 . S
C1840 H1817 0.950 . S
C1840 C1839 1.397 . S
C1840 C1841 1.334 . S
C1841 H1818 0.950 . S
C1841 C1840 1.334 . S
C1841 C1842 1.287 . S
C1842 C1841 1.287 . S
C1842 C1843 1.524 . S
C1842 H1861 0.913 . S
C1843 H1819 0.950 . S
C1843 C1842 1.524 . S
C1843 C1844 1.415 . S
C1844 H1820 0.950 . S
C1844 C1839 1.363 . S
C1844 C1843 1.415 . S
C1845 H1821 0.951 . S
C1845 C1846 1.366 . S
C1845 C1847 1.388 . S
C1846 C1845 1.366 . S
C1846 C1850 1.385 . S
C1847 H1822 0.951 . S
C1847 C1845 1.388 . S
C1847 C1848 1.366 . S
C1848 C1847 1.366 . S
C1848 C1849 1.414 . S
C1848 C1851 1.499 . S
C1849 H1823 0.950 . S
C1849 C1848 1.414 . S
C1849 C1850 1.374 . S
C1850 H1824 0.950 . S
C1850 C1846 1.385 . S
C1850 C1849 1.374 . S
C1851 C1848 1.499 . S
C1851 C1852 1.373 . S
C1851 C1853 1.389 . S
C1852 H1825 0.950 . S
C1852 C1838 1.377 . S
C1852 C1851 1.373 . S
C1853 C1837 1.377 . S
C1853 C1851 1.389 . S
C1853 C1854 1.524 . S
C1854 C1853 1.524 . S
C1854 C1855 1.397 . S
C1854 C1859 1.363 . S
C1855 H1826 0.950 . S
C1855 C1854 1.397 . S
C1855 C1856 1.334 . S
C1856 H1827 0.950 . S
C1856 C1855 1.334 . S
C1856 C1857 1.287 . S
C1857 C1856 1.287 . S
C1857 C1858 1.524 . S
C1857 H1860 0.999 . S
C1858 H1828 0.950 . S
C1858 C1857 1.524 . S
C1858 C1859 1.415 . S
C1859 H1829 0.950 . S
C1859 C1854 1.363 . S
C1859 C1858 1.415 . S
H1860 C1857 0.999 . S
H1861 C1842 0.913 . S
H1862 C1880 0.951 . S
H1863 C1882 0.951 . S
H1864 C1884 0.950 . S
H1865 C1885 0.965 . S
H1866 C1887 0.950 . S
H1867 C1890 0.950 . S
H1868 C1891 0.950 . S
H1869 C1893 0.947 . S
H1870 C1894 0.950 . S
H1871 C1895 0.951 . S
H1872 C1897 0.951 . S
H1873 C1899 0.950 . S
H1874 C1900 0.950 . S
H1875 C1902 0.950 . S
H1876 C1905 0.950 . S
H1877 C1906 0.950 . S
H1878 C1908 0.950 . S
H1879 C1909 0.950 . S
C1880 H1862 0.951 . S
C1880 C1881 1.366 . S
C1880 C1882 1.388 . S
C1881 C1880 1.366 . S
C1881 C1885 1.385 . S
C1882 H1863 0.951 . S
C1882 C1880 1.388 . S
C1882 C1883 1.366 1_655 S
C1883 C1882 1.366 1_455 S
C1883 C1884 1.414 . S
C1883 C1886 1.499 . S
C1884 H1864 0.950 . S
C1884 C1883 1.414 . S
C1884 C1885 1.374 1_455 S
C1885 H1865 0.965 . S
C1885 C1881 1.385 . S
C1885 C1884 1.374 1_655 S
C1886 C1883 1.499 . S
C1886 C1887 1.373 . S
C1886 C1888 1.389 . S
C1887 H1866 0.950 . S
C1887 C1886 1.373 . S
C1887 C1903 1.377 . S
C1888 C1886 1.389 . S
C1888 C1889 1.524 . S
C1888 C1902 1.377 . S
C1889 C1888 1.524 . S
C1889 C1890 1.397 . S
C1889 C1894 1.363 . S
C1890 H1867 0.950 . S
C1890 C1889 1.397 . S
C1890 C1891 1.334 . S
C1891 H1868 0.950 . S
C1891 C1890 1.334 . S
C1891 C1892 1.287 . S
C1892 C1891 1.287 . S
C1892 C1893 1.525 1_455 S
C1892 H1911 0.896 1_455 S
C1893 H1869 0.947 . S
C1893 C1892 1.525 1_655 S
C1893 C1894 1.416 1_655 S
C1894 H1870 0.950 . S
C1894 C1889 1.363 . S
C1894 C1893 1.416 1_455 S
C1895 H1871 0.951 . S
C1895 C1896 1.366 . S
C1895 C1897 1.388 . S
C1896 C1895 1.366 . S
C1896 C1900 1.385 . S
C1897 H1872 0.951 . S
C1897 C1895 1.388 . S
C1897 C1898 1.366 . S
C1898 C1897 1.366 . S
C1898 C1899 1.414 . S
C1898 C1901 1.499 . S
C1899 H1873 0.950 . S
C1899 C1898 1.414 . S
C1899 C1900 1.374 . S
C1900 H1874 0.950 . S
C1900 C1896 1.385 . S
C1900 C1899 1.374 . S
C1901 C1898 1.499 . S
C1901 C1902 1.373 . S
C1901 C1903 1.389 . S
C1902 H1875 0.950 . S
C1902 C1888 1.377 . S
C1902 C1901 1.373 . S
C1903 C1887 1.377 . S
C1903 C1901 1.389 . S
C1903 C1904 1.524 . S
C1904 C1903 1.524 . S
C1904 C1905 1.397 . S
C1904 C1909 1.363 . S
C1905 H1876 0.950 . S
C1905 C1904 1.397 . S
C1905 C1906 1.334 . S
C1906 H1877 0.950 . S
C1906 C1905 1.334 . S
C1906 C1907 1.287 . S
C1907 C1906 1.287 . S
C1907 C1908 1.524 . S
C1907 H1910 0.999 . S
C1908 H1878 0.950 . S
C1908 C1907 1.524 . S
C1908 C1909 1.415 . S
C1909 H1879 0.950 . S
C1909 C1904 1.363 . S
C1909 C1908 1.415 . S
H1910 C1907 0.999 . S
H1911 C1892 0.896 1_655 S
H1912 C1930 0.951 . S
H1913 C1932 0.951 . S
H1914 C1934 0.950 . S
H1915 C1935 0.950 . S
H1916 C1937 0.950 . S
H1917 C1940 0.950 . S
H1918 C1941 0.950 . S
H1919 C1943 0.950 . S
H1920 C1944 0.950 . S
H1921 C1945 0.951 . S
H1922 C1947 0.951 . S
H1923 C1949 0.950 . S
H1924 C1950 0.950 . S
H1925 C1952 0.950 . S
H1926 C1955 0.950 . S
H1927 C1956 0.950 . S
H1928 C1958 0.950 . S
H1929 C1959 0.950 . S
C1930 H1912 0.951 . S
C1930 C1931 1.366 . S
C1930 C1932 1.388 . S
C1931 C1930 1.366 . S
C1931 C1935 1.385 . S
C1932 H1913 0.951 . S
C1932 C1930 1.388 . S
C1932 C1933 1.366 . S
C1933 C1932 1.366 . S
C1933 C1934 1.414 . S
C1933 C1936 1.499 . S
C1934 H1914 0.950 . S
C1934 C1933 1.414 . S
C1934 C1935 1.374 . S
C1935 H1915 0.950 . S
C1935 C1931 1.385 . S
C1935 C1934 1.374 . S
C1936 C1933 1.499 . S
C1936 C1937 1.373 . S
C1936 C1938 1.389 . S
C1937 H1916 0.950 . S
C1937 C1936 1.373 . S
C1937 C1953 1.377 . S
C1938 C1936 1.389 . S
C1938 C1939 1.524 . S
C1938 C1952 1.377 . S
C1939 C1938 1.524 . S
C1939 C1940 1.397 . S
C1939 C1944 1.363 . S
C1940 H1917 0.950 . S
C1940 C1939 1.397 . S
C1940 C1941 1.334 . S
C1941 H1918 0.950 . S
C1941 C1940 1.334 . S
C1941 C1942 1.287 . S
C1942 C1941 1.287 . S
C1942 C1943 1.524 . S
C1942 H1961 0.913 . S
C1943 H1919 0.950 . S
C1943 C1942 1.524 . S
C1943 C1944 1.415 . S
C1944 H1920 0.950 . S
C1944 C1939 1.363 . S
C1944 C1943 1.415 . S
C1945 H1921 0.951 . S
C1945 C1946 1.366 . S
C1945 C1947 1.388 . S
C1946 C1945 1.366 . S
C1946 C1950 1.385 . S
C1947 H1922 0.951 . S
C1947 C1945 1.388 . S
C1947 C1948 1.366 . S
C1948 C1947 1.366 . S
C1948 C1949 1.414 . S
C1948 C1951 1.499 . S
C1949 H1923 0.950 . S
C1949 C1948 1.414 . S
C1949 C1950 1.374 . S
C1950 H1924 0.950 . S
C1950 C1946 1.385 . S
C1950 C1949 1.374 . S
C1951 C1948 1.499 . S
C1951 C1952 1.373 . S
C1951 C1953 1.389 . S
C1952 H1925 0.950 . S
C1952 C1938 1.377 . S
C1952 C1951 1.373 . S
C1953 C1937 1.377 . S
C1953 C1951 1.389 . S
C1953 C1954 1.524 . S
C1954 C1953 1.524 . S
C1954 C1955 1.397 . S
C1954 C1959 1.363 . S
C1955 H1926 0.950 . S
C1955 C1954 1.397 . S
C1955 C1956 1.334 . S
C1956 H1927 0.950 . S
C1956 C1955 1.334 . S
C1956 C1957 1.287 . S
C1957 C1956 1.287 . S
C1957 C1958 1.524 . S
C1957 H1960 0.999 . S
C1958 H1928 0.950 . S
C1958 C1957 1.524 . S
C1958 C1959 1.415 . S
C1959 H1929 0.950 . S
C1959 C1954 1.363 . S
C1959 C1958 1.415 . S
H1960 C1957 0.999 . S
H1961 C1942 0.913 . S
H1962 C1980 0.951 . S
H1963 C1982 0.951 . S
H1964 C1984 0.950 . S
H1965 C1985 0.950 . S
H1966 C1987 0.950 . S
H1967 C1990 0.931 1_554 S
H1968 C1991 0.950 1_554 S
H1969 C1993 0.950 . S
H1970 C1994 0.950 . S
H1971 C1995 0.951 . S
H1972 C1997 0.951 . S
H1973 C1999 0.950 . S
H1974 C2000 0.950 . S
H1975 C2002 0.950 . S
H1976 C2005 0.950 . S
H1977 C2006 0.950 . S
H1978 C2008 0.950 1_554 S
H1979 C2009 0.950 1_554 S
C1980 H1962 0.951 . S
C1980 C1981 1.366 . S
C1980 C1982 1.388 1_554 S
C1981 C1980 1.366 . S
C1981 C1985 1.385 . S
C1982 H1963 0.951 . S
C1982 C1980 1.388 1_556 S
C1982 C1983 1.366 1_556 S
C1983 C1982 1.366 1_554 S
C1983 C1984 1.414 . S
C1983 C1986 1.499 1_554 S
C1984 H1964 0.950 . S
C1984 C1983 1.414 . S
C1984 C1985 1.374 . S
C1985 H1965 0.950 . S
C1985 C1981 1.385 . S
C1985 C1984 1.374 . S
C1986 C1983 1.499 1_556 S
C1986 C1987 1.373 . S
C1986 C1988 1.389 . S
C1987 H1966 0.950 . S
C1987 C1986 1.373 . S
C1987 C2003 1.377 . S
C1988 C1986 1.389 . S
C1988 C1989 1.524 . S
C1988 C2002 1.377 . S
C1989 C1988 1.524 . S
C1989 C1990 1.397 . S
C1989 C1994 1.363 . S
C1990 H1967 0.931 1_556 S
C1990 C1989 1.397 . S
C1990 C1991 1.334 . S
C1991 H1968 0.950 1_556 S
C1991 C1990 1.334 . S
C1991 C1992 1.287 . S
C1992 C1991 1.287 . S
C1992 C1993 1.524 . S
C1992 H2011 0.913 . S
C1993 H1969 0.950 . S
C1993 C1992 1.524 . S
C1993 C1994 1.415 . S
C1994 H1970 0.950 . S
C1994 C1989 1.363 . S
C1994 C1993 1.415 . S
C1995 H1971 0.951 . S
C1995 C1996 1.366 . S
C1995 C1997 1.388 . S
C1996 C1995 1.366 . S
C1996 C2000 1.385 . S
C1997 H1972 0.951 . S
C1997 C1995 1.388 . S
C1997 C1998 1.366 . S
C1998 C1997 1.366 . S
C1998 C1999 1.414 . S
C1998 C2001 1.499 . S
C1999 H1973 0.950 . S
C1999 C1998 1.414 . S
C1999 C2000 1.374 . S
C2000 H1974 0.950 . S
C2000 C1996 1.385 . S
C2000 C1999 1.374 . S
C2001 C1998 1.499 . S
C2001 C2002 1.373 . S
C2001 C2003 1.389 . S
C2002 H1975 0.950 . S
C2002 C1988 1.377 . S
C2002 C2001 1.373 . S
C2003 C1987 1.377 . S
C2003 C2001 1.389 . S
C2003 C2004 1.524 1_655 S
C2004 C2003 1.524 1_455 S
C2004 C2005 1.397 . S
C2004 C2009 1.363 . S
C2005 H1976 0.950 . S
C2005 C2004 1.397 . S
C2005 C2006 1.334 . S
C2006 H1977 0.950 . S
C2006 C2005 1.334 . S
C2006 C2007 1.287 . S
C2007 C2006 1.287 . S
C2007 C2008 1.524 . S
C2007 H2010 0.999 . S
C2008 H1978 0.950 1_556 S
C2008 C2007 1.524 . S
C2008 C2009 1.415 . S
C2009 H1979 0.950 1_556 S
C2009 C2004 1.363 . S
C2009 C2008 1.415 . S
H2010 C2007 0.999 . S
H2011 C1992 0.913 . S
H2012 C2030 0.951 . S
H2013 C2032 0.951 . S
H2014 C2034 0.950 . S
H2015 C2035 0.950 . S
H2016 C2037 0.950 . S
H2017 C2040 0.950 . S
H2018 C2041 0.950 . S
H2019 C2043 0.950 . S
H2020 C2044 0.950 . S
H2021 C2045 0.951 . S
H2022 C2047 0.951 . S
H2023 C2049 0.950 . S
H2024 C2050 0.950 . S
H2025 C2052 0.950 . S
H2026 C2055 0.950 . S
H2027 C2056 0.950 . S
H2028 C2058 0.950 . S
H2029 C2059 0.950 . S
C2030 H2012 0.951 . S
C2030 C2031 1.366 . S
C2030 C2032 1.388 . S
C2031 C2030 1.366 . S
C2031 C2035 1.385 . S
C2032 H2013 0.951 . S
C2032 C2030 1.388 . S
C2032 C2033 1.366 . S
C2033 C2032 1.366 . S
C2033 C2034 1.414 . S
C2033 C2036 1.499 . S
C2034 H2014 0.950 . S
C2034 C2033 1.414 . S
C2034 C2035 1.374 . S
C2035 H2015 0.950 . S
C2035 C2031 1.385 . S
C2035 C2034 1.374 . S
C2036 C2033 1.499 . S
C2036 C2037 1.373 . S
C2036 C2038 1.389 . S
C2037 H2016 0.950 . S
C2037 C2036 1.373 . S
C2037 C2053 1.377 . S
C2038 C2036 1.389 . S
C2038 C2039 1.524 . S
C2038 C2052 1.377 . S
C2039 C2038 1.524 . S
C2039 C2040 1.397 . S
C2039 C2044 1.363 . S
C2040 H2017 0.950 . S
C2040 C2039 1.397 . S
C2040 C2041 1.334 . S
C2041 H2018 0.950 . S
C2041 C2040 1.334 . S
C2041 C2042 1.287 . S
C2042 C2041 1.287 . S
C2042 C2043 1.524 . S
C2042 H2061 0.913 . S
C2043 H2019 0.950 . S
C2043 C2042 1.524 . S
C2043 C2044 1.415 . S
C2044 H2020 0.950 . S
C2044 C2039 1.363 . S
C2044 C2043 1.415 . S
C2045 H2021 0.951 . S
C2045 C2046 1.366 . S
C2045 C2047 1.388 . S
C2046 C2045 1.366 . S
C2046 C2050 1.385 . S
C2047 H2022 0.951 . S
C2047 C2045 1.388 . S
C2047 C2048 1.366 . S
C2048 C2047 1.366 . S
C2048 C2049 1.414 . S
C2048 C2051 1.499 . S
C2049 H2023 0.950 . S
C2049 C2048 1.414 . S
C2049 C2050 1.374 . S
C2050 H2024 0.950 . S
C2050 C2046 1.385 . S
C2050 C2049 1.374 . S
C2051 C2048 1.499 . S
C2051 C2052 1.373 . S
C2051 C2053 1.389 . S
C2052 H2025 0.950 . S
C2052 C2038 1.377 . S
C2052 C2051 1.373 . S
C2053 C2037 1.377 . S
C2053 C2051 1.389 . S
C2053 C2054 1.524 . S
C2054 C2053 1.524 . S
C2054 C2055 1.397 . S
C2054 C2059 1.363 . S
C2055 H2026 0.950 . S
C2055 C2054 1.397 . S
C2055 C2056 1.334 . S
C2056 H2027 0.950 . S
C2056 C2055 1.334 . S
C2056 C2057 1.287 . S
C2057 C2056 1.287 . S
C2057 C2058 1.524 . S
C2057 H2060 0.999 . S
C2058 H2028 0.950 . S
C2058 C2057 1.524 . S
C2058 C2059 1.415 . S
C2059 H2029 0.950 . S
C2059 C2054 1.363 . S
C2059 C2058 1.415 . S
H2060 C2057 0.999 . S
H2061 C2042 0.913 . S
H2062 C2080 0.951 . S
H2063 C2082 0.951 . S
H2064 C2084 0.950 . S
H2065 C2085 0.950 . S
H2066 C2087 0.950 . S
H2067 C2090 0.950 . S
H2068 C2091 0.950 . S
H2069 C2093 0.950 . S
H2070 C2094 0.956 . S
H2071 C2095 0.951 . S
H2072 C2097 0.951 . S
H2073 C2099 0.950 . S
H2074 C2100 0.950 . S
H2075 C2102 0.977 . S
H2076 C2105 0.950 . S
H2077 C2106 0.950 . S
H2078 C2108 0.950 . S
H2079 C2109 0.950 . S
C2080 H2062 0.951 . S
C2080 C2081 1.366 . S
C2080 C2082 1.388 . S
C2081 C2080 1.366 . S
C2081 C2085 1.385 1_554 S
C2082 H2063 0.951 . S
C2082 C2080 1.388 . S
C2082 C2083 1.366 1_554 S
C2083 C2082 1.366 1_556 S
C2083 C2084 1.414 . S
C2083 C2086 1.499 . S
C2084 H2064 0.950 . S
C2084 C2083 1.414 . S
C2084 C2085 1.374 . S
C2085 H2065 0.950 . S
C2085 C2081 1.385 1_556 S
C2085 C2084 1.374 . S
C2086 C2083 1.499 . S
C2086 C2087 1.373 . S
C2086 C2088 1.389 . S
C2087 H2066 0.950 . S
C2087 C2086 1.373 . S
C2087 C2103 1.377 . S
C2088 C2086 1.389 . S
C2088 C2089 1.524 1_455 S
C2088 C2102 1.377 . S
C2089 C2088 1.524 1_655 S
C2089 C2090 1.397 . S
C2089 C2094 1.363 1_556 S
C2090 H2067 0.950 . S
C2090 C2089 1.397 . S
C2090 C2091 1.334 1_556 S
C2091 H2068 0.950 . S
C2091 C2090 1.334 1_554 S
C2091 C2092 1.287 . S
C2092 C2091 1.287 . S
C2092 C2093 1.524 . S
C2092 H2111 0.913 . S
C2093 H2069 0.950 . S
C2093 C2092 1.524 . S
C2093 C2094 1.415 . S
C2094 H2070 0.956 . S
C2094 C2089 1.363 1_554 S
C2094 C2093 1.415 . S
C2095 H2071 0.951 . S
C2095 C2096 1.366 . S
C2095 C2097 1.388 . S
C2096 C2095 1.366 . S
C2096 C2100 1.385 . S
C2097 H2072 0.951 . S
C2097 C2095 1.388 . S
C2097 C2098 1.366 . S
C2098 C2097 1.366 . S
C2098 C2099 1.414 . S
C2098 C2101 1.499 . S
C2099 H2073 0.950 . S
C2099 C2098 1.414 . S
C2099 C2100 1.374 . S
C2100 H2074 0.950 . S
C2100 C2096 1.385 . S
C2100 C2099 1.374 . S
C2101 C2098 1.499 . S
C2101 C2102 1.373 . S
C2101 C2103 1.389 . S
C2102 H2075 0.977 . S
C2102 C2088 1.377 . S
C2102 C2101 1.373 . S
C2103 C2087 1.377 . S
C2103 C2101 1.389 . S
C2103 C2104 1.524 . S
C2104 C2103 1.524 . S
C2104 C2105 1.397 . S
C2104 C2109 1.363 . S
C2105 H2076 0.950 . S
C2105 C2104 1.397 . S
C2105 C2106 1.334 . S
C2106 H2077 0.950 . S
C2106 C2105 1.334 . S
C2106 C2107 1.287 . S
C2107 C2106 1.287 . S
C2107 C2108 1.524 . S
C2107 H2110 0.999 . S
C2108 H2078 0.950 . S
C2108 C2107 1.524 . S
C2108 C2109 1.415 . S
C2109 H2079 0.950 . S
C2109 C2104 1.363 . S
C2109 C2108 1.415 . S
H2110 C2107 0.999 . S
H2111 C2092 0.913 . S
H2112 C2130 0.951 . S
H2113 C2132 0.951 . S
H2114 C2134 0.950 . S
H2115 C2135 0.950 . S
H2116 C2137 0.950 . S
H2117 C2140 0.950 . S
H2118 C2141 0.950 . S
H2119 C2143 0.950 . S
H2120 C2144 0.950 . S
H2121 C2145 0.951 . S
H2122 C2147 0.951 . S
H2123 C2149 0.950 . S
H2124 C2150 0.950 . S
H2125 C2152 0.950 . S
H2126 C2155 0.950 . S
H2127 C2156 0.950 . S
H2128 C2158 0.950 . S
H2129 C2159 0.950 . S
C2130 H2112 0.951 . S
C2130 C2131 1.366 . S
C2130 C2132 1.388 . S
C2131 C2130 1.366 . S
C2131 C2135 1.385 . S
C2132 H2113 0.951 . S
C2132 C2130 1.388 . S
C2132 C2133 1.366 . S
C2133 C2132 1.366 . S
C2133 C2134 1.414 . S
C2133 C2136 1.499 . S
C2134 H2114 0.950 . S
C2134 C2133 1.414 . S
C2134 C2135 1.374 . S
C2135 H2115 0.950 . S
C2135 C2131 1.385 . S
C2135 C2134 1.374 . S
C2136 C2133 1.499 . S
C2136 C2137 1.373 . S
C2136 C2138 1.389 . S
C2137 H2116 0.950 . S
C2137 C2136 1.373 . S
C2137 C2153 1.377 . S
C2138 C2136 1.389 . S
C2138 C2139 1.524 . S
C2138 C2152 1.377 . S
C2139 C2138 1.524 . S
C2139 C2140 1.397 . S
C2139 C2144 1.363 . S
C2140 H2117 0.950 . S
C2140 C2139 1.397 . S
C2140 C2141 1.334 . S
C2141 H2118 0.950 . S
C2141 C2140 1.334 . S
C2141 C2142 1.287 . S
C2142 C2141 1.287 . S
C2142 C2143 1.524 . S
C2142 H2161 0.913 . S
C2143 H2119 0.950 . S
C2143 C2142 1.524 . S
C2143 C2144 1.415 . S
C2144 H2120 0.950 . S
C2144 C2139 1.363 . S
C2144 C2143 1.415 . S
C2145 H2121 0.951 . S
C2145 C2146 1.366 . S
C2145 C2147 1.388 . S
C2146 C2145 1.366 . S
C2146 C2150 1.385 . S
C2147 H2122 0.951 . S
C2147 C2145 1.388 . S
C2147 C2148 1.366 . S
C2148 C2147 1.366 . S
C2148 C2149 1.414 . S
C2148 C2151 1.499 . S
C2149 H2123 0.950 . S
C2149 C2148 1.414 . S
C2149 C2150 1.374 . S
C2150 H2124 0.950 . S
C2150 C2146 1.385 . S
C2150 C2149 1.374 . S
C2151 C2148 1.499 . S
C2151 C2152 1.373 . S
C2151 C2153 1.389 . S
C2152 H2125 0.950 . S
C2152 C2138 1.377 . S
C2152 C2151 1.373 . S
C2153 C2137 1.377 . S
C2153 C2151 1.389 . S
C2153 C2154 1.524 . S
C2154 C2153 1.524 . S
C2154 C2155 1.397 . S
C2154 C2159 1.363 . S
C2155 H2126 0.950 . S
C2155 C2154 1.397 . S
C2155 C2156 1.334 . S
C2156 H2127 0.950 . S
C2156 C2155 1.334 . S
C2156 C2157 1.287 . S
C2157 C2156 1.287 . S
C2157 C2158 1.524 . S
C2157 H2160 0.999 . S
C2158 H2128 0.950 . S
C2158 C2157 1.524 . S
C2158 C2159 1.415 . S
C2159 H2129 0.950 . S
C2159 C2154 1.363 . S
C2159 C2158 1.415 . S
H2160 C2157 0.999 . S
H2161 C2142 0.913 . S
H2162 C2180 0.951 . S
H2163 C2182 0.951 . S
H2164 C2184 0.950 . S
H2165 C2185 0.950 . S
H2166 C2187 0.950 . S
H2167 C2190 0.950 . S
H2168 C2191 0.950 . S
H2169 C2193 0.950 . S
H2170 C2194 0.950 . S
H2171 C2195 0.951 . S
H2172 C2197 0.951 . S
H2173 C2199 0.950 . S
H2174 C2200 0.950 . S
H2175 C2202 0.950 . S
H2176 C2205 0.950 . S
H2177 C2206 0.950 . S
H2178 C2208 0.950 . S
H2179 C2209 0.950 . S
C2180 H2162 0.951 . S
C2180 C2181 1.366 1_554 S
C2180 C2182 1.388 . S
C2181 C2180 1.366 1_556 S
C2181 C2185 1.385 . S
C2182 H2163 0.951 . S
C2182 C2180 1.388 . S
C2182 C2183 1.366 . S
C2183 C2182 1.366 . S
C2183 C2184 1.414 1_554 S
C2183 C2186 1.499 . S
C2184 H2164 0.950 . S
C2184 C2183 1.414 1_556 S
C2184 C2185 1.374 . S
C2185 H2165 0.950 . S
C2185 C2181 1.385 . S
C2185 C2184 1.374 . S
C2186 C2183 1.499 . S
C2186 C2187 1.373 . S
C2186 C2188 1.389 . S
C2187 H2166 0.950 . S
C2187 C2186 1.373 . S
C2187 C2203 1.377 . S
C2188 C2186 1.389 . S
C2188 C2189 1.524 . S
C2188 C2202 1.377 . S
C2189 C2188 1.524 . S
C2189 C2190 1.397 . S
C2189 C2194 1.363 . S
C2190 H2167 0.950 . S
C2190 C2189 1.397 . S
C2190 C2191 1.334 . S
C2191 H2168 0.950 . S
C2191 C2190 1.334 . S
C2191 C2192 1.287 . S
C2192 C2191 1.287 . S
C2192 C2193 1.524 . S
C2192 H2211 0.913 . S
C2193 H2169 0.950 . S
C2193 C2192 1.524 . S
C2193 C2194 1.415 . S
C2194 H2170 0.950 . S
C2194 C2189 1.363 . S
C2194 C2193 1.415 . S
C2195 H2171 0.951 . S
C2195 C2196 1.366 . S
C2195 C2197 1.388 . S
C2196 C2195 1.366 . S
C2196 C2200 1.385 . S
C2197 H2172 0.951 . S
C2197 C2195 1.388 . S
C2197 C2198 1.366 . S
C2198 C2197 1.366 . S
C2198 C2199 1.414 . S
C2198 C2201 1.499 . S
C2199 H2173 0.950 . S
C2199 C2198 1.414 . S
C2199 C2200 1.374 . S
C2200 H2174 0.950 . S
C2200 C2196 1.385 . S
C2200 C2199 1.374 . S
C2201 C2198 1.499 . S
C2201 C2202 1.373 . S
C2201 C2203 1.389 . S
C2202 H2175 0.950 . S
C2202 C2188 1.377 . S
C2202 C2201 1.373 . S
C2203 C2187 1.377 . S
C2203 C2201 1.389 . S
C2203 C2204 1.524 . S
C2204 C2203 1.524 . S
C2204 C2205 1.397 . S
C2204 C2209 1.363 . S
C2205 H2176 0.950 . S
C2205 C2204 1.397 . S
C2205 C2206 1.334 . S
C2206 H2177 0.950 . S
C2206 C2205 1.334 . S
C2206 C2207 1.287 . S
C2207 C2206 1.287 . S
C2207 C2208 1.524 . S
C2207 H2210 0.999 . S
C2208 H2178 0.950 . S
C2208 C2207 1.524 . S
C2208 C2209 1.415 . S
C2209 H2179 0.950 . S
C2209 C2204 1.363 . S
C2209 C2208 1.415 . S
H2210 C2207 0.999 . S
H2211 C2192 0.913 . S
H2212 C2230 0.951 . S
H2213 C2232 0.951 . S
H2214 C2234 0.950 . S
H2215 C2235 0.950 . S
H2216 C2237 0.950 . S
H2217 C2240 0.950 . S
H2218 C2241 0.950 . S
H2219 C2243 0.950 . S
H2220 C2244 0.950 . S
H2221 C2245 0.951 . S
H2222 C2247 0.951 . S
H2223 C2249 0.950 . S
H2224 C2250 0.950 . S
H2225 C2252 0.950 . S
H2226 C2255 0.950 . S
H2227 C2256 0.950 . S
H2228 C2258 0.950 . S
H2229 C2259 0.950 . S
C2230 H2212 0.951 . S
C2230 C2231 1.366 . S
C2230 C2232 1.388 . S
C2231 C2230 1.366 . S
C2231 C2235 1.385 . S
C2232 H2213 0.951 . S
C2232 C2230 1.388 . S
C2232 C2233 1.366 . S
C2233 C2232 1.366 . S
C2233 C2234 1.414 . S
C2233 C2236 1.499 . S
C2234 H2214 0.950 . S
C2234 C2233 1.414 . S
C2234 C2235 1.374 . S
C2235 H2215 0.950 . S
C2235 C2231 1.385 . S
C2235 C2234 1.374 . S
C2236 C2233 1.499 . S
C2236 C2237 1.373 . S
C2236 C2238 1.389 . S
C2237 H2216 0.950 . S
C2237 C2236 1.373 . S
C2237 C2253 1.377 . S
C2238 C2236 1.389 . S
C2238 C2239 1.524 . S
C2238 C2252 1.377 . S
C2239 C2238 1.524 . S
C2239 C2240 1.397 . S
C2239 C2244 1.363 . S
C2240 H2217 0.950 . S
C2240 C2239 1.397 . S
C2240 C2241 1.334 . S
C2241 H2218 0.950 . S
C2241 C2240 1.334 . S
C2241 C2242 1.287 . S
C2242 C2241 1.287 . S
C2242 C2243 1.524 . S
C2242 H2261 0.913 . S
C2243 H2219 0.950 . S
C2243 C2242 1.524 . S
C2243 C2244 1.415 . S
C2244 H2220 0.950 . S
C2244 C2239 1.363 . S
C2244 C2243 1.415 . S
C2245 H2221 0.951 . S
C2245 C2246 1.366 . S
C2245 C2247 1.388 . S
C2246 C2245 1.366 . S
C2246 C2250 1.385 . S
C2247 H2222 0.951 . S
C2247 C2245 1.388 . S
C2247 C2248 1.366 . S
C2248 C2247 1.366 . S
C2248 C2249 1.414 . S
C2248 C2251 1.499 . S
C2249 H2223 0.950 . S
C2249 C2248 1.414 . S
C2249 C2250 1.374 . S
C2250 H2224 0.950 . S
C2250 C2246 1.385 . S
C2250 C2249 1.374 . S
C2251 C2248 1.499 . S
C2251 C2252 1.373 . S
C2251 C2253 1.389 . S
C2252 H2225 0.950 . S
C2252 C2238 1.377 . S
C2252 C2251 1.373 . S
C2253 C2237 1.377 . S
C2253 C2251 1.389 . S
C2253 C2254 1.524 . S
C2254 C2253 1.524 . S
C2254 C2255 1.397 . S
C2254 C2259 1.363 . S
C2255 H2226 0.950 . S
C2255 C2254 1.397 . S
C2255 C2256 1.334 . S
C2256 H2227 0.950 . S
C2256 C2255 1.334 . S
C2256 C2257 1.287 . S
C2257 C2256 1.287 . S
C2257 C2258 1.524 . S
C2257 H2260 0.999 . S
C2258 H2228 0.950 . S
C2258 C2257 1.524 . S
C2258 C2259 1.415 . S
C2259 H2229 0.950 . S
C2259 C2254 1.363 . S
C2259 C2258 1.415 . S
H2260 C2257 0.999 . S
H2261 C2242 0.913 . S
H2262 C2280 0.951 . S
H2263 C2282 0.956 . S
H2264 C2284 0.946 1_554 S
H2265 C2285 0.950 . S
H2266 C2287 0.950 . S
H2267 C2290 0.950 . S
H2268 C2291 0.950 . S
H2269 C2293 0.950 . S
H2270 C2294 0.950 . S
H2271 C2295 0.951 . S
H2272 C2297 0.951 . S
H2273 C2299 0.950 . S
H2274 C2300 0.950 . S
H2275 C2302 0.950 . S
H2276 C2305 0.950 . S
H2277 C2306 0.950 . S
H2278 C2308 0.950 . S
H2279 C2309 0.950 . S
C2280 H2262 0.951 . S
C2280 C2281 1.366 . S
C2280 C2282 1.388 . S
C2281 C2280 1.366 . S
C2281 C2285 1.385 . S
C2282 H2263 0.956 . S
C2282 C2280 1.388 . S
C2282 C2283 1.366 1_556 S
C2283 C2282 1.366 1_554 S
C2283 C2284 1.411 1_554 S
C2283 C2286 1.499 . S
C2284 H2264 0.946 1_556 S
C2284 C2283 1.411 1_556 S
C2284 C2285 1.381 . S
C2285 H2265 0.950 . S
C2285 C2281 1.385 . S
C2285 C2284 1.381 . S
C2286 C2283 1.499 . S
C2286 C2287 1.373 . S
C2286 C2288 1.389 . S
C2287 H2266 0.950 . S
C2287 C2286 1.373 . S
C2287 C2303 1.377 . S
C2288 C2286 1.389 . S
C2288 C2289 1.524 . S
C2288 C2302 1.377 . S
C2289 C2288 1.524 . S
C2289 C2290 1.397 . S
C2289 C2294 1.363 . S
C2290 H2267 0.950 . S
C2290 C2289 1.397 . S
C2290 C2291 1.334 . S
C2291 H2268 0.950 . S
C2291 C2290 1.334 . S
C2291 C2292 1.287 . S
C2292 C2291 1.287 . S
C2292 C2293 1.524 . S
C2292 H2311 0.913 . S
C2293 H2269 0.950 . S
C2293 C2292 1.524 . S
C2293 C2294 1.415 . S
C2294 H2270 0.950 . S
C2294 C2289 1.363 . S
C2294 C2293 1.415 . S
C2295 H2271 0.951 . S
C2295 C2296 1.366 . S
C2295 C2297 1.388 . S
C2296 C2295 1.366 . S
C2296 C2300 1.385 . S
C2297 H2272 0.951 . S
C2297 C2295 1.388 . S
C2297 C2298 1.366 . S
C2298 C2297 1.366 . S
C2298 C2299 1.414 . S
C2298 C2301 1.499 . S
C2299 H2273 0.950 . S
C2299 C2298 1.414 . S
C2299 C2300 1.374 . S
C2300 H2274 0.950 . S
C2300 C2296 1.385 . S
C2300 C2299 1.374 . S
C2301 C2298 1.499 . S
C2301 C2302 1.373 . S
C2301 C2303 1.389 . S
C2302 H2275 0.950 . S
C2302 C2288 1.377 . S
C2302 C2301 1.373 . S
C2303 C2287 1.377 . S
C2303 C2301 1.389 . S
C2303 C2304 1.524 . S
C2304 C2303 1.524 . S
C2304 C2305 1.397 . S
C2304 C2309 1.363 . S
C2305 H2276 0.950 . S
C2305 C2304 1.397 . S
C2305 C2306 1.334 . S
C2306 H2277 0.950 . S
C2306 C2305 1.334 . S
C2306 C2307 1.287 . S
C2307 C2306 1.287 . S
C2307 C2308 1.524 . S
C2307 H2310 0.999 . S
C2308 H2278 0.950 . S
C2308 C2307 1.524 . S
C2308 C2309 1.415 . S
C2309 H2279 0.950 . S
C2309 C2304 1.363 . S
C2309 C2308 1.415 . S
H2310 C2307 0.999 . S
H2311 C2292 0.913 . S
H2312 C2330 0.951 . S
H2313 C2332 0.951 . S
H2314 C2334 0.950 . S
H2315 C2335 0.950 . S
H2316 C2337 0.950 . S
H2317 C2340 0.950 . S
H2318 C2341 0.950 . S
H2319 C2343 0.950 . S
H2320 C2344 0.950 . S
H2321 C2345 0.951 . S
H2322 C2347 0.951 . S
H2323 C2349 0.950 . S
H2324 C2350 0.950 . S
H2325 C2352 0.950 . S
H2326 C2355 0.950 . S
H2327 C2356 0.950 . S
H2328 C2358 0.950 . S
H2329 C2359 0.950 . S
C2330 H2312 0.951 . S
C2330 C2331 1.366 . S
C2330 C2332 1.388 . S
C2331 C2330 1.366 . S
C2331 C2335 1.385 . S
C2332 H2313 0.951 . S
C2332 C2330 1.388 . S
C2332 C2333 1.366 . S
C2333 C2332 1.366 . S
C2333 C2334 1.414 . S
C2333 C2336 1.499 . S
C2334 H2314 0.950 . S
C2334 C2333 1.414 . S
C2334 C2335 1.374 . S
C2335 H2315 0.950 . S
C2335 C2331 1.385 . S
C2335 C2334 1.374 . S
C2336 C2333 1.499 . S
C2336 C2337 1.373 . S
C2336 C2338 1.389 . S
C2337 H2316 0.950 . S
C2337 C2336 1.373 . S
C2337 C2353 1.377 . S
C2338 C2336 1.389 . S
C2338 C2339 1.524 . S
C2338 C2352 1.377 . S
C2339 C2338 1.524 . S
C2339 C2340 1.397 . S
C2339 C2344 1.363 . S
C2340 H2317 0.950 . S
C2340 C2339 1.397 . S
C2340 C2341 1.334 . S
C2341 H2318 0.950 . S
C2341 C2340 1.334 . S
C2341 C2342 1.287 . S
C2342 C2341 1.287 . S
C2342 C2343 1.524 . S
C2342 H2361 0.913 . S
C2343 H2319 0.950 . S
C2343 C2342 1.524 . S
C2343 C2344 1.415 . S
C2344 H2320 0.950 . S
C2344 C2339 1.363 . S
C2344 C2343 1.415 . S
C2345 H2321 0.951 . S
C2345 C2346 1.366 . S
C2345 C2347 1.388 . S
C2346 C2345 1.366 . S
C2346 C2350 1.385 . S
C2347 H2322 0.951 . S
C2347 C2345 1.388 . S
C2347 C2348 1.366 . S
C2348 C2347 1.366 . S
C2348 C2349 1.414 . S
C2348 C2351 1.499 . S
C2349 H2323 0.950 . S
C2349 C2348 1.414 . S
C2349 C2350 1.374 . S
C2350 H2324 0.950 . S
C2350 C2346 1.385 . S
C2350 C2349 1.374 . S
C2351 C2348 1.499 . S
C2351 C2352 1.373 . S
C2351 C2353 1.389 . S
C2352 H2325 0.950 . S
C2352 C2338 1.377 . S
C2352 C2351 1.373 . S
C2353 C2337 1.377 . S
C2353 C2351 1.389 . S
C2353 C2354 1.524 . S
C2354 C2353 1.524 . S
C2354 C2355 1.397 . S
C2354 C2359 1.363 . S
C2355 H2326 0.950 . S
C2355 C2354 1.397 . S
C2355 C2356 1.334 . S
C2356 H2327 0.950 . S
C2356 C2355 1.334 . S
C2356 C2357 1.287 . S
C2357 C2356 1.287 . S
C2357 C2358 1.524 . S
C2357 H2360 0.999 . S
C2358 H2328 0.950 . S
C2358 C2357 1.524 . S
C2358 C2359 1.415 . S
C2359 H2329 0.950 . S
C2359 C2354 1.363 . S
C2359 C2358 1.415 . S
H2360 C2357 0.999 . S
H2361 C2342 0.913 . S
H2362 C2380 0.951 . S
H2363 C2382 0.951 . S
H2364 C2384 0.950 . S
H2365 C2385 0.950 . S
H2366 C2387 0.950 . S
H2367 C2390 0.950 . S
H2368 C2391 0.950 . S
H2369 C2393 0.950 . S
H2370 C2394 0.950 . S
H2371 C2395 0.951 . S
H2372 C2397 0.951 . S
H2373 C2399 0.950 . S
H2374 C2400 0.950 . S
H2375 C2402 0.950 . S
H2376 C2405 0.950 . S
H2377 C2406 0.950 . S
H2378 C2408 0.950 . S
H2379 C2409 0.950 . S
C2380 H2362 0.951 . S
C2380 C2381 1.366 . S
C2380 C2382 1.388 . S
C2381 C2380 1.366 . S
C2381 C2385 1.385 . S
C2382 H2363 0.951 . S
C2382 C2380 1.388 . S
C2382 C2383 1.366 . S
C2383 C2382 1.366 . S
C2383 C2384 1.414 . S
C2383 C2386 1.499 . S
C2384 H2364 0.950 . S
C2384 C2383 1.414 . S
C2384 C2385 1.374 . S
C2385 H2365 0.950 . S
C2385 C2381 1.385 . S
C2385 C2384 1.374 . S
C2386 C2383 1.499 . S
C2386 C2387 1.373 . S
C2386 C2388 1.389 . S
C2387 H2366 0.950 . S
C2387 C2386 1.373 . S
C2387 C2403 1.377 . S
C2388 C2386 1.389 . S
C2388 C2389 1.524 . S
C2388 C2402 1.377 . S
C2389 C2388 1.524 . S
C2389 C2390 1.397 . S
C2389 C2394 1.363 . S
C2390 H2367 0.950 . S
C2390 C2389 1.397 . S
C2390 C2391 1.334 . S
C2391 H2368 0.950 . S
C2391 C2390 1.334 . S
C2391 C2392 1.287 . S
C2392 C2391 1.287 . S
C2392 C2393 1.524 . S
C2392 H2411 0.913 . S
C2393 H2369 0.950 . S
C2393 C2392 1.524 . S
C2393 C2394 1.415 . S
C2394 H2370 0.950 . S
C2394 C2389 1.363 . S
C2394 C2393 1.415 . S
C2395 H2371 0.951 . S
C2395 C2396 1.366 . S
C2395 C2397 1.388 . S
C2396 C2395 1.366 . S
C2396 C2400 1.385 . S
C2397 H2372 0.951 . S
C2397 C2395 1.388 . S
C2397 C2398 1.366 . S
C2398 C2397 1.366 . S
C2398 C2399 1.414 . S
C2398 C2401 1.499 . S
C2399 H2373 0.950 . S
C2399 C2398 1.414 . S
C2399 C2400 1.374 . S
C2400 H2374 0.950 . S
C2400 C2396 1.385 . S
C2400 C2399 1.374 . S
C2401 C2398 1.499 . S
C2401 C2402 1.373 . S
C2401 C2403 1.389 . S
C2402 H2375 0.950 . S
C2402 C2388 1.377 . S
C2402 C2401 1.373 . S
C2403 C2387 1.377 . S
C2403 C2401 1.389 . S
C2403 C2404 1.524 . S
C2404 C2403 1.524 . S
C2404 C2405 1.397 . S
C2404 C2409 1.363 . S
C2405 H2376 0.950 . S
C2405 C2404 1.397 . S
C2405 C2406 1.334 . S
C2406 H2377 0.950 . S
C2406 C2405 1.334 . S
C2406 C2407 1.287 . S
C2407 C2406 1.287 . S
C2407 C2408 1.524 . S
C2407 H2410 0.999 . S
C2408 H2378 0.950 . S
C2408 C2407 1.524 . S
C2408 C2409 1.415 . S
C2409 H2379 0.950 . S
C2409 C2404 1.363 . S
C2409 C2408 1.415 . S
H2410 C2407 0.999 . S
H2411 C2392 0.913 . S
H2412 C2430 0.951 . S
H2413 C2432 0.951 . S
H2414 C2434 0.950 . S
H2415 C2435 0.950 . S
H2416 C2437 0.950 . S
H2417 C2440 0.950 . S
H2418 C2441 0.950 . S
H2419 C2443 0.950 . S
H2420 C2444 0.950 . S
H2421 C2445 0.951 . S
H2422 C2447 0.951 . S
H2423 C2449 0.950 . S
H2424 C2450 0.950 . S
H2425 C2452 0.950 . S
H2426 C2455 0.950 . S
H2427 C2456 0.950 . S
H2428 C2458 0.950 . S
H2429 C2459 0.950 . S
C2430 H2412 0.951 . S
C2430 C2431 1.366 . S
C2430 C2432 1.388 . S
C2431 C2430 1.366 . S
C2431 C2435 1.385 . S
C2432 H2413 0.951 . S
C2432 C2430 1.388 . S
C2432 C2433 1.366 . S
C2433 C2432 1.366 . S
C2433 C2434 1.414 . S
C2433 C2436 1.499 . S
C2434 H2414 0.950 . S
C2434 C2433 1.414 . S
C2434 C2435 1.374 . S
C2435 H2415 0.950 . S
C2435 C2431 1.385 . S
C2435 C2434 1.374 . S
C2436 C2433 1.499 . S
C2436 C2437 1.373 . S
C2436 C2438 1.389 . S
C2437 H2416 0.950 . S
C2437 C2436 1.373 . S
C2437 C2453 1.377 . S
C2438 C2436 1.389 . S
C2438 C2439 1.524 . S
C2438 C2452 1.377 . S
C2439 C2438 1.524 . S
C2439 C2440 1.397 . S
C2439 C2444 1.363 . S
C2440 H2417 0.950 . S
C2440 C2439 1.397 . S
C2440 C2441 1.334 . S
C2441 H2418 0.950 . S
C2441 C2440 1.334 . S
C2441 C2442 1.287 . S
C2442 C2441 1.287 . S
C2442 C2443 1.524 . S
C2442 H2461 0.913 . S
C2443 H2419 0.950 . S
C2443 C2442 1.524 . S
C2443 C2444 1.415 . S
C2444 H2420 0.950 . S
C2444 C2439 1.363 . S
C2444 C2443 1.415 . S
C2445 H2421 0.951 . S
C2445 C2446 1.366 . S
C2445 C2447 1.388 . S
C2446 C2445 1.366 . S
C2446 C2450 1.385 . S
C2447 H2422 0.951 . S
C2447 C2445 1.388 . S
C2447 C2448 1.366 . S
C2448 C2447 1.366 . S
C2448 C2449 1.414 . S
C2448 C2451 1.499 . S
C2449 H2423 0.950 . S
C2449 C2448 1.414 . S
C2449 C2450 1.374 . S
C2450 H2424 0.950 . S
C2450 C2446 1.385 . S
C2450 C2449 1.374 . S
C2451 C2448 1.499 . S
C2451 C2452 1.373 . S
C2451 C2453 1.389 . S
C2452 H2425 0.950 . S
C2452 C2438 1.377 . S
C2452 C2451 1.373 . S
C2453 C2437 1.377 . S
C2453 C2451 1.389 . S
C2453 C2454 1.524 . S
C2454 C2453 1.524 . S
C2454 C2455 1.397 . S
C2454 C2459 1.363 . S
C2455 H2426 0.950 . S
C2455 C2454 1.397 . S
C2455 C2456 1.334 . S
C2456 H2427 0.950 . S
C2456 C2455 1.334 . S
C2456 C2457 1.287 . S
C2457 C2456 1.287 . S
C2457 C2458 1.524 . S
C2457 H2460 0.999 . S
C2458 H2428 0.950 . S
C2458 C2457 1.524 . S
C2458 C2459 1.415 . S
C2459 H2429 0.950 . S
C2459 C2454 1.363 . S
C2459 C2458 1.415 . S
H2460 C2457 0.999 . S
H2461 C2442 0.913 . S
H2462 C2480 0.951 . S
H2463 C2482 0.951 . S
H2464 C2484 0.950 . S
H2465 C2485 0.950 . S
H2466 C2487 0.950 . S
H2467 C2490 0.950 . S
H2468 C2491 0.950 . S
H2469 C2493 0.950 . S
H2470 C2494 0.950 . S
H2471 C2495 0.951 . S
H2472 C2497 0.951 . S
H2473 C2499 0.950 . S
H2474 C2500 0.950 . S
H2475 C2502 0.950 . S
H2476 C2505 0.950 . S
H2477 C2506 0.950 . S
H2478 C2508 0.950 . S
H2479 C2509 0.950 . S
C2480 H2462 0.951 . S
C2480 C2481 1.366 . S
C2480 C2482 1.388 . S
C2481 C2480 1.366 . S
C2481 C2485 1.385 . S
C2482 H2463 0.951 . S
C2482 C2480 1.388 . S
C2482 C2483 1.366 . S
C2483 C2482 1.366 . S
C2483 C2484 1.414 . S
C2483 C2486 1.499 . S
C2484 H2464 0.950 . S
C2484 C2483 1.414 . S
C2484 C2485 1.374 . S
C2485 H2465 0.950 . S
C2485 C2481 1.385 . S
C2485 C2484 1.374 . S
C2486 C2483 1.499 . S
C2486 C2487 1.373 . S
C2486 C2488 1.389 . S
C2487 H2466 0.950 . S
C2487 C2486 1.373 . S
C2487 C2503 1.377 . S
C2488 C2486 1.389 . S
C2488 C2489 1.524 . S
C2488 C2502 1.377 . S
C2489 C2488 1.524 . S
C2489 C2490 1.397 . S
C2489 C2494 1.363 . S
C2490 H2467 0.950 . S
C2490 C2489 1.397 . S
C2490 C2491 1.334 . S
C2491 H2468 0.950 . S
C2491 C2490 1.334 . S
C2491 C2492 1.287 . S
C2492 C2491 1.287 . S
C2492 C2493 1.524 . S
C2492 H2511 0.913 . S
C2493 H2469 0.950 . S
C2493 C2492 1.524 . S
C2493 C2494 1.415 . S
C2494 H2470 0.950 . S
C2494 C2489 1.363 . S
C2494 C2493 1.415 . S
C2495 H2471 0.951 . S
C2495 C2496 1.366 . S
C2495 C2497 1.388 . S
C2496 C2495 1.366 . S
C2496 C2500 1.385 . S
C2497 H2472 0.951 . S
C2497 C2495 1.388 . S
C2497 C2498 1.366 . S
C2498 C2497 1.366 . S
C2498 C2499 1.414 . S
C2498 C2501 1.499 . S
C2499 H2473 0.950 . S
C2499 C2498 1.414 . S
C2499 C2500 1.374 . S
C2500 H2474 0.950 . S
C2500 C2496 1.385 . S
C2500 C2499 1.374 . S
C2501 C2498 1.499 . S
C2501 C2502 1.373 . S
C2501 C2503 1.389 . S
C2502 H2475 0.950 . S
C2502 C2488 1.377 . S
C2502 C2501 1.373 . S
C2503 C2487 1.377 . S
C2503 C2501 1.389 . S
C2503 C2504 1.524 . S
C2504 C2503 1.524 . S
C2504 C2505 1.397 . S
C2504 C2509 1.363 . S
C2505 H2476 0.950 . S
C2505 C2504 1.397 . S
C2505 C2506 1.334 . S
C2506 H2477 0.950 . S
C2506 C2505 1.334 . S
C2506 C2507 1.287 . S
C2507 C2506 1.287 . S
C2507 C2508 1.524 . S
C2507 H2510 0.999 . S
C2508 H2478 0.950 . S
C2508 C2507 1.524 . S
C2508 C2509 1.415 . S
C2509 H2479 0.950 . S
C2509 C2504 1.363 . S
C2509 C2508 1.415 . S
H2510 C2507 0.999 . S
H2511 C2492 0.913 . S
H2512 C2530 0.951 . S
H2513 C2532 0.951 . S
H2514 C2534 0.950 . S
H2515 C2535 0.950 . S
H2516 C2537 0.950 . S
H2517 C2540 0.950 . S
H2518 C2541 0.950 . S
H2519 C2543 0.950 . S
H2520 C2544 0.950 . S
H2521 C2545 0.951 . S
H2522 C2547 0.951 1_554 S
H2523 C2549 0.950 . S
H2524 C2550 0.950 . S
H2525 C2552 0.950 . S
H2526 C2555 0.950 . S
H2527 C2556 0.950 . S
H2528 C2558 0.950 . S
H2529 C2559 0.950 . S
C2530 H2512 0.951 . S
C2530 C2531 1.366 . S
C2530 C2532 1.388 . S
C2531 C2530 1.366 . S
C2531 C2535 1.385 . S
C2532 H2513 0.951 . S
C2532 C2530 1.388 . S
C2532 C2533 1.366 . S
C2533 C2532 1.366 . S
C2533 C2534 1.414 . S
C2533 C2536 1.499 . S
C2534 H2514 0.950 . S
C2534 C2533 1.414 . S
C2534 C2535 1.374 . S
C2535 H2515 0.950 . S
C2535 C2531 1.385 . S
C2535 C2534 1.374 . S
C2536 C2533 1.499 . S
C2536 C2537 1.373 . S
C2536 C2538 1.389 . S
C2537 H2516 0.950 . S
C2537 C2536 1.373 . S
C2537 C2553 1.377 . S
C2538 C2536 1.389 . S
C2538 C2539 1.524 . S
C2538 C2552 1.377 . S
C2539 C2538 1.524 . S
C2539 C2540 1.397 1_556 S
C2539 C2544 1.363 . S
C2540 H2517 0.950 . S
C2540 C2539 1.397 1_554 S
C2540 C2541 1.334 . S
C2541 H2518 0.950 . S
C2541 C2540 1.334 . S
C2541 C2542 1.287 . S
C2542 C2541 1.287 . S
C2542 C2543 1.524 1_554 S
C2542 H2561 0.913 . S
C2543 H2519 0.950 . S
C2543 C2542 1.524 1_556 S
C2543 C2544 1.415 . S
C2544 H2520 0.950 . S
C2544 C2539 1.363 . S
C2544 C2543 1.415 . S
C2545 H2521 0.951 . S
C2545 C2546 1.366 1_554 S
C2545 C2547 1.388 1_554 S
C2546 C2545 1.366 1_556 S
C2546 C2550 1.385 . S
C2547 H2522 0.951 1_556 S
C2547 C2545 1.388 1_556 S
C2547 C2548 1.366 . S
C2548 C2547 1.366 . S
C2548 C2549 1.414 . S
C2548 C2551 1.499 . S
C2549 H2523 0.950 . S
C2549 C2548 1.414 . S
C2549 C2550 1.374 . S
C2550 H2524 0.950 . S
C2550 C2546 1.385 . S
C2550 C2549 1.374 . S
C2551 C2548 1.499 . S
C2551 C2552 1.373 . S
C2551 C2553 1.389 . S
C2552 H2525 0.950 . S
C2552 C2538 1.377 . S
C2552 C2551 1.373 . S
C2553 C2537 1.377 . S
C2553 C2551 1.389 . S
C2553 C2554 1.524 . S
C2554 C2553 1.524 . S
C2554 C2555 1.397 . S
C2554 C2559 1.363 . S
C2555 H2526 0.950 . S
C2555 C2554 1.397 . S
C2555 C2556 1.334 . S
C2556 H2527 0.950 . S
C2556 C2555 1.334 . S
C2556 C2557 1.287 . S
C2557 C2556 1.287 . S
C2557 C2558 1.524 . S
C2557 H2560 0.999 . S
C2558 H2528 0.950 . S
C2558 C2557 1.524 . S
C2558 C2559 1.415 . S
C2559 H2529 0.950 . S
C2559 C2554 1.363 . S
C2559 C2558 1.415 . S
H2560 C2557 0.999 . S
H2561 C2542 0.913 . S
H2562 C2580 0.951 . S
H2563 C2582 0.951 . S
H2564 C2584 0.950 . S
H2565 C2585 0.950 . S
H2566 C2587 0.950 . S
H2567 C2590 0.950 . S
H2568 C2591 0.950 . S
H2569 C2593 0.950 . S
H2570 C2594 0.950 . S
H2571 C2595 0.951 . S
H2572 C2597 0.951 . S
H2573 C2599 0.950 . S
H2574 C2600 0.950 . S
H2575 C2602 0.950 . S
H2576 C2605 0.950 . S
H2577 C2606 0.950 . S
H2578 C2608 0.950 . S
H2579 C2609 0.950 . S
C2580 H2562 0.951 . S
C2580 C2581 1.366 . S
C2580 C2582 1.388 . S
C2581 C2580 1.366 . S
C2581 C2585 1.385 . S
C2582 H2563 0.951 . S
C2582 C2580 1.388 . S
C2582 C2583 1.366 . S
C2583 C2582 1.366 . S
C2583 C2584 1.414 . S
C2583 C2586 1.499 . S
C2584 H2564 0.950 . S
C2584 C2583 1.414 . S
C2584 C2585 1.374 . S
C2585 H2565 0.950 . S
C2585 C2581 1.385 . S
C2585 C2584 1.374 . S
C2586 C2583 1.499 . S
C2586 C2587 1.373 . S
C2586 C2588 1.389 . S
C2587 H2566 0.950 . S
C2587 C2586 1.373 . S
C2587 C2603 1.377 . S
C2588 C2586 1.389 . S
C2588 C2589 1.524 . S
C2588 C2602 1.377 . S
C2589 C2588 1.524 . S
C2589 C2590 1.397 . S
C2589 C2594 1.363 . S
C2590 H2567 0.950 . S
C2590 C2589 1.397 . S
C2590 C2591 1.334 . S
C2591 H2568 0.950 . S
C2591 C2590 1.334 . S
C2591 C2592 1.287 . S
C2592 C2591 1.287 . S
C2592 C2593 1.524 . S
C2592 H2611 0.913 . S
C2593 H2569 0.950 . S
C2593 C2592 1.524 . S
C2593 C2594 1.415 . S
C2594 H2570 0.950 . S
C2594 C2589 1.363 . S
C2594 C2593 1.415 . S
C2595 H2571 0.951 . S
C2595 C2596 1.366 . S
C2595 C2597 1.388 . S
C2596 C2595 1.366 . S
C2596 C2600 1.385 . S
C2597 H2572 0.951 . S
C2597 C2595 1.388 . S
C2597 C2598 1.366 . S
C2598 C2597 1.366 . S
C2598 C2599 1.414 . S
C2598 C2601 1.499 . S
C2599 H2573 0.950 . S
C2599 C2598 1.414 . S
C2599 C2600 1.374 . S
C2600 H2574 0.950 . S
C2600 C2596 1.385 . S
C2600 C2599 1.374 . S
C2601 C2598 1.499 . S
C2601 C2602 1.373 . S
C2601 C2603 1.389 . S
C2602 H2575 0.950 . S
C2602 C2588 1.377 . S
C2602 C2601 1.373 . S
C2603 C2587 1.377 . S
C2603 C2601 1.389 . S
C2603 C2604 1.524 . S
C2604 C2603 1.524 . S
C2604 C2605 1.397 . S
C2604 C2609 1.363 . S
C2605 H2576 0.950 . S
C2605 C2604 1.397 . S
C2605 C2606 1.334 . S
C2606 H2577 0.950 . S
C2606 C2605 1.334 . S
C2606 C2607 1.287 . S
C2607 C2606 1.287 . S
C2607 C2608 1.524 . S
C2607 H2610 0.999 . S
C2608 H2578 0.950 . S
C2608 C2607 1.524 . S
C2608 C2609 1.415 . S
C2609 H2579 0.950 . S
C2609 C2604 1.363 . S
C2609 C2608 1.415 . S
H2610 C2607 0.999 . S
H2611 C2592 0.913 . S
H2612 C2630 0.951 . S
H2613 C2632 0.951 . S
H2614 C2634 0.950 . S
H2615 C2635 0.950 . S
H2616 C2637 0.950 . S
H2617 C2640 0.945 1_556 S
H2618 C2641 0.950 . S
H2619 C2643 0.950 . S
H2620 C2644 0.950 . S
H2621 C2645 0.951 . S
H2622 C2647 0.951 . S
H2623 C2649 0.950 . S
H2624 C2650 0.950 . S
H2625 C2652 0.950 . S
H2626 C2655 0.950 . S
H2627 C2656 0.950 . S
H2628 C2658 0.950 . S
H2629 C2659 0.950 . S
C2630 H2612 0.951 . S
C2630 C2631 1.366 . S
C2630 C2632 1.388 . S
C2631 C2630 1.366 . S
C2631 C2635 1.385 . S
C2632 H2613 0.951 . S
C2632 C2630 1.388 . S
C2632 C2633 1.366 . S
C2633 C2632 1.366 . S
C2633 C2634 1.414 . S
C2633 C2636 1.499 . S
C2634 H2614 0.950 . S
C2634 C2633 1.414 . S
C2634 C2635 1.374 . S
C2635 H2615 0.950 . S
C2635 C2631 1.385 . S
C2635 C2634 1.374 . S
C2636 C2633 1.499 . S
C2636 C2637 1.373 . S
C2636 C2638 1.389 . S
C2637 H2616 0.950 . S
C2637 C2636 1.373 . S
C2637 C2653 1.377 . S
C2638 C2636 1.389 . S
C2638 C2639 1.524 . S
C2638 C2652 1.377 . S
C2639 C2638 1.524 . S
C2639 C2640 1.398 . S
C2639 C2644 1.363 . S
C2640 H2617 0.945 1_554 S
C2640 C2639 1.398 . S
C2640 C2641 1.333 1_554 S
C2641 H2618 0.950 . S
C2641 C2640 1.333 1_556 S
C2641 C2642 1.287 . S
C2642 C2641 1.287 . S
C2642 C2643 1.524 1_556 S
C2642 H2661 0.913 . S
C2643 H2619 0.950 . S
C2643 C2642 1.524 1_554 S
C2643 C2644 1.415 . S
C2644 H2620 0.950 . S
C2644 C2639 1.363 . S
C2644 C2643 1.415 . S
C2645 H2621 0.951 . S
C2645 C2646 1.366 . S
C2645 C2647 1.388 . S
C2646 C2645 1.366 . S
C2646 C2650 1.385 . S
C2647 H2622 0.951 . S
C2647 C2645 1.388 . S
C2647 C2648 1.366 . S
C2648 C2647 1.366 . S
C2648 C2649 1.414 . S
C2648 C2651 1.499 . S
C2649 H2623 0.950 . S
C2649 C2648 1.414 . S
C2649 C2650 1.374 . S
C2650 H2624 0.950 . S
C2650 C2646 1.385 . S
C2650 C2649 1.374 . S
C2651 C2648 1.499 . S
C2651 C2652 1.373 . S
C2651 C2653 1.389 . S
C2652 H2625 0.950 . S
C2652 C2638 1.377 . S
C2652 C2651 1.373 . S
C2653 C2637 1.377 . S
C2653 C2651 1.389 . S
C2653 C2654 1.524 . S
C2654 C2653 1.524 . S
C2654 C2655 1.397 . S
C2654 C2659 1.363 . S
C2655 H2626 0.950 . S
C2655 C2654 1.397 . S
C2655 C2656 1.334 . S
C2656 H2627 0.950 . S
C2656 C2655 1.334 . S
C2656 C2657 1.287 . S
C2657 C2656 1.287 . S
C2657 C2658 1.524 . S
C2657 H2660 0.999 . S
C2658 H2628 0.950 . S
C2658 C2657 1.524 . S
C2658 C2659 1.415 . S
C2659 H2629 0.950 . S
C2659 C2654 1.363 . S
C2659 C2658 1.415 . S
H2660 C2657 0.999 . S
H2661 C2642 0.913 . S
H2662 C2680 0.951 . S
H2663 C2682 0.951 . S
H2664 C2684 0.950 . S
H2665 C2685 0.953 . S
H2666 C2687 0.950 . S
H2667 C2690 0.950 1_554 S
H2668 C2691 0.950 . S
H2669 C2693 0.950 . S
H2670 C2694 0.950 . S
H2671 C2695 0.951 . S
H2672 C2697 0.951 . S
H2673 C2699 0.950 1_556 S
H2674 C2700 0.990 . S
H2675 C2702 0.950 1_556 S
H2676 C2705 0.950 . S
H2677 C2706 0.950 . S
H2678 C2708 0.950 . S
H2679 C2709 0.950 . S
C2680 H2662 0.951 . S
C2680 C2681 1.366 . S
C2680 C2682 1.388 . S
C2681 C2680 1.366 . S
C2681 C2685 1.385 . S
C2682 H2663 0.951 . S
C2682 C2680 1.388 . S
C2682 C2683 1.366 1_545 S
C2683 C2682 1.366 1_565 S
C2683 C2684 1.414 . S
C2683 C2686 1.499 . S
C2684 H2664 0.950 . S
C2684 C2683 1.414 . S
C2684 C2685 1.374 1_565 S
C2685 H2665 0.953 . S
C2685 C2681 1.385 . S
C2685 C2684 1.374 1_545 S
C2686 C2683 1.499 . S
C2686 C2687 1.373 . S
C2686 C2688 1.389 . S
C2687 H2666 0.950 . S
C2687 C2686 1.373 . S
C2687 C2703 1.377 . S
C2688 C2686 1.389 . S
C2688 C2689 1.524 1_554 S
C2688 C2702 1.377 . S
C2689 C2688 1.524 1_556 S
C2689 C2690 1.397 . S
C2689 C2694 1.363 . S
C2690 H2667 0.950 1_556 S
C2690 C2689 1.397 . S
C2690 C2691 1.334 . S
C2691 H2668 0.950 . S
C2691 C2690 1.334 . S
C2691 C2692 1.287 . S
C2692 C2691 1.287 . S
C2692 C2693 1.524 . S
C2692 H2711 0.913 . S
C2693 H2669 0.950 . S
C2693 C2692 1.524 . S
C2693 C2694 1.415 . S
C2694 H2670 0.950 . S
C2694 C2689 1.363 . S
C2694 C2693 1.415 . S
C2695 H2671 0.951 . S
C2695 C2696 1.366 . S
C2695 C2697 1.388 . S
C2696 C2695 1.366 . S
C2696 C2700 1.352 1_554 S
C2697 H2672 0.951 . S
C2697 C2695 1.388 . S
C2697 C2698 1.366 . S
C2698 C2697 1.366 . S
C2698 C2699 1.414 . S
C2698 C2701 1.499 . S
C2699 H2673 0.950 1_554 S
C2699 C2698 1.414 . S
C2699 C2700 1.368 1_554 S
C2700 H2674 0.990 . S
C2700 C2696 1.352 1_556 S
C2700 C2699 1.368 1_556 S
C2701 C2698 1.499 . S
C2701 C2702 1.373 . S
C2701 C2703 1.389 . S
C2702 H2675 0.950 1_554 S
C2702 C2688 1.377 . S
C2702 C2701 1.373 . S
C2703 C2687 1.377 . S
C2703 C2701 1.389 . S
C2703 C2704 1.524 . S
C2704 C2703 1.524 . S
C2704 C2705 1.397 . S
C2704 C2709 1.363 . S
C2705 H2676 0.950 . S
C2705 C2704 1.397 . S
C2705 C2706 1.334 . S
C2706 H2677 0.950 . S
C2706 C2705 1.334 . S
C2706 C2707 1.287 . S
C2707 C2706 1.287 . S
C2707 C2708 1.524 . S
C2707 H2710 0.999 . S
C2708 H2678 0.950 . S
C2708 C2707 1.524 . S
C2708 C2709 1.415 . S
C2709 H2679 0.950 . S
C2709 C2704 1.363 . S
C2709 C2708 1.415 . S
H2710 C2707 0.999 . S
H2711 C2692 0.913 . S
C346 C152 1.495 . S
C331 C50 1.524 . S
C396 C165 1.463 . S
C381 C61 1.471 . S
C431 C67 1.643 . S
C446 C185 1.536 . S
C496 C199 1.353 . S
C481 C41 1.432 . S
C546 C211 1.512 . S
C531 C95 1.516 . S
C596 C225 1.429 . S
C581 C113 1.431 . S
C631 C106 1.479 . S
C646 C235 1.469 . S
C696 C250 1.514 . S
C681 C86 1.546 . S
C731 C104 1.511 . S
C746 C264 1.483 . S
C796 C283 1.364 . S
C781 C88 1.443 . S
C831 C94 1.509 . S
C846 C263 1.500 . S
C896 C281 1.414 . S
C881 C112 1.417 . S
C931 C70 1.629 . S
C946 C297 1.523 . S
C981 C40 1.485 . S
C996 C291 1.477 . S
C1031 C49 1.524 . S
C1046 C295 1.519 . S
C1081 C59 1.546 . S
C1096 C292 1.512 . S
C1131 C34 1.509 . S
C1146 C194 1.481 . S
C1181 C133 1.487 . S
C1196 C193 1.477 . S
C1246 C157 1.364 . S
C1231 C139 1.442 . S
C1296 C171 1.536 . S
C1281 C77 1.643 . S
C1331 C43 1.525 . S
C1346 C208 1.491 . S
C1396 C253 1.517 . S
C1381 C103 1.522 . S
C1446 C207 1.491 . S
C1431 C85 1.499 . S
C1496 C239 1.407 . S
C1481 C115 1.410 . S
C1546 C236 1.496 . S
C1531 C131 1.524 . S
C1581 C142 1.472 . S
C1596 C249 1.463 . S
C1631 C76 1.643 . S
C1646 C213 1.535 . S
C1696 C227 1.354 . S
C1681 C122 1.432 . S
C1731 C32 1.516 . S
C1746 C183 1.511 . S
C1796 C197 1.428 . S
C1781 C5 1.431 . S
C1846 C151 1.470 . S
C1831 C16 1.479 . S
C1896 C166 1.514 . S
C1881 C23 1.546 . S
C1931 C14 1.511 . S
C1946 C278 1.483 . S
C1981 C25 1.443 . S
C1996 C269 1.365 . S
C2031 C31 1.509 . S
C2046 C277 1.500 . S
C2081 C4 1.416 . S
C2096 C267 1.414 . S
C2146 C311 1.524 . S
C2131 C79 1.629 . S
C2196 C305 1.477 . S
C2181 C121 1.485 . S
C2246 C309 1.519 . S
C2231 C130 1.524 . S
C2281 C140 1.546 . S
C2296 C306 1.512 . S
C2331 C97 1.509 . S
C2346 C222 1.481 . S
C2396 C221 1.478 . S
C2381 C52 1.487 . S
C2446 C241 1.362 . S
C2431 C58 1.442 . S
C2496 C255 1.537 . S
C2481 C68 1.643 . S
C2531 C124 1.525 . S
C2546 C180 1.491 . S
C2596 C169 1.517 . S
C2581 C13 1.522 . S
C2631 C22 1.500 . S
C2646 C179 1.491 . S
C2696 C155 1.407 . S
C2681 C7 1.410 . S
