# Generated by pormake.
# Topology ftw, (4,12)-cn, num edge types: 1
# Building blocks:
#     Node 0, Type 0, BuildingBlock: AZAVOO_clean_linker_0, # of connection points: 4
#     Node 1, Type 0, BuildingBlock: AZAVOO_clean_linker_0, # of connection points: 4
#     Node 2, Type 0, BuildingBlock: AZAVOO_clean_linker_0, # of connection points: 4
#     Node 3, Type 1, BuildingBlock: EZIPEK_clean_sbu_0, # of connection points: 12
#     Edge 4, Type (0, 1), BuildingBlock: OJICUG_clean_linker_0, # of connection points: 2
#     Edge 5, Type (0, 1), BuildingBlock: OJICUG_clean_linker_0, # of connection points: 2
#     Edge 6, Type (0, 1), BuildingBlock: OJICUG_clean_linker_0, # of connection points: 2
#     Edge 7, Type (0, 1), BuildingBlock: OJICUG_clean_linker_0, # of connection points: 2
#     Edge 8, Type (0, 1), BuildingBlock: OJICUG_clean_linker_0, # of connection points: 2
#     Edge 9, Type (0, 1), BuildingBlock: OJICUG_clean_linker_0, # of connection points: 2
#     Edge 10, Type (0, 1), BuildingBlock: OJICUG_clean_linker_0, # of connection points: 2
#     Edge 11, Type (0, 1), BuildingBlock: OJICUG_clean_linker_0, # of connection points: 2
#     Edge 12, Type (0, 1), BuildingBlock: OJICUG_clean_linker_0, # of connection points: 2
#     Edge 13, Type (0, 1), BuildingBlock: OJICUG_clean_linker_0, # of connection points: 2
#     Edge 14, Type (0, 1), BuildingBlock: OJICUG_clean_linker_0, # of connection points: 2
#     Edge 15, Type (0, 1), BuildingBlock: OJICUG_clean_linker_0, # of connection points: 2
# Relax obj value: 0.060
# Max RMSD: 0.221
# Mean RMSD: 0.172
data_MOF--net-ftw--node1-EZIPEK_clean_sbu_0--node2-AZAVOO_clean_linker_0--edge1-OJICUG_clean_linker_0
_symmetry_space_group_name_H-M    P1
_symmetry_Int_Tables_number       1
_symmetry_cell_setting            triclinic
loop_
_symmetry_equiv_pos_as_xyz
'x, y, z'
_cell_length_a     22.386495
_cell_length_b     22.373227
_cell_length_c     22.388278
_cell_angle_alpha  91.851086
_cell_angle_beta   88.160252
_cell_angle_gamma 91.853893
loop_
_atom_site_label
_atom_site_type_symbol
_atom_site_fract_x
_atom_site_fract_y
_atom_site_fract_z
_atom_type_partial_charge
H0 H 0.05926 0.12019 0.39151 0.0
H1 H 0.93465 0.61148 0.88431 0.0
H2 H 0.10143 0.45449 0.37547 0.0
H3 H 0.10101 0.37511 0.29773 0.0
H4 H 0.90869 0.38213 0.29249 0.0
H5 H 0.9095 0.46047 0.37062 0.0
H6 H 0.09855 0.3676 0.47769 0.0
H7 H 0.0998 0.26202 0.44531 0.0
H8 H 0.90889 0.26272 0.42139 0.0
H9 H 0.9083 0.36811 0.45438 0.0
H10 H 0.09753 0.42682 0.61222 0.0
H11 H 0.09866 0.3501 0.68795 0.0
H12 H 0.91311 0.30476 0.656 0.0
H13 H 0.91187 0.3827 0.58145 0.0
H14 H 0.09693 0.54332 0.6376 0.0
H15 H 0.09204 0.57458 0.74343 0.0
H16 H 0.89897 0.55999 0.74201 0.0
H17 H 0.90466 0.52816 0.63635 0.0
H18 H 0.09776 0.6349 0.55182 0.0
H19 H 0.09272 0.71081 0.63271 0.0
H20 H 0.89987 0.70159 0.62834 0.0
H21 H 0.90548 0.62619 0.54723 0.0
H22 H 0.09122 0.62855 0.43145 0.0
H23 H 0.08943 0.70607 0.35659 0.0
H24 H 0.91089 0.64609 0.31075 0.0
H25 H 0.91266 0.56957 0.38636 0.0
O26 O 0.05755 0.1615 0.40551 0.0
O27 O 0.95917 0.16384 0.39526 0.0
O28 O 0.03729 0.60231 0.84194 0.0
O29 O 0.93789 0.59764 0.84297 0.0
C30 C 0.00335 0.48448 0.44201 0.0
C31 C 0.00327 0.44008 0.48574 0.0
C32 C 0.00398 0.45669 0.54663 0.0
C33 C 0.00401 0.51729 0.56458 0.0
C34 C 0.00391 0.56208 0.5213 0.0
C35 C 0.00334 0.54597 0.45956 0.0
C36 C 0.00553 0.4636 0.37857 0.0
C37 C 0.05959 0.44138 0.35502 0.0
C38 C 0.05914 0.39499 0.31171 0.0
C39 C 0.00468 0.37131 0.29042 0.0
C40 C 0.95136 0.39931 0.30821 0.0
C41 C 0.9518 0.44511 0.35211 0.0
C42 C 0.00347 0.37548 0.46774 0.0
C43 C 0.05707 0.34471 0.46565 0.0
C44 C 0.05762 0.28448 0.4471 0.0
C45 C 0.00446 0.25397 0.43056 0.0
C46 C 0.95063 0.28487 0.4337 0.0
C47 C 0.95016 0.34504 0.45241 0.0
C48 C 0.00454 0.41024 0.59192 0.0
C49 C 0.05708 0.4006 0.62205 0.0
C50 C 0.05768 0.35696 0.665 0.0
C51 C 0.00597 0.32184 0.67745 0.0
C52 C 0.95358 0.33113 0.64666 0.0
C53 C 0.95276 0.37546 0.6044 0.0
C54 C 0.00115 0.5338 0.62946 0.0
C55 C 0.0537 0.54649 0.66043 0.0
C56 C 0.05073 0.5644 0.72079 0.0
C57 C 0.99505 0.57004 0.75113 0.0
C58 C 0.94253 0.55629 0.72 0.0
C59 C 0.94561 0.53802 0.65973 0.0
C60 C 0.00199 0.62498 0.54368 0.0
C61 C 0.0546 0.6519 0.56586 0.0
C62 C 0.05157 0.69409 0.61315 0.0
C63 C 0.99587 0.7105 0.63817 0.0
C64 C 0.94346 0.68949 0.61033 0.0
C65 C 0.94655 0.6471 0.56318 0.0
C66 C 0.00231 0.59288 0.41405 0.0
C67 C 0.05163 0.63233 0.40542 0.0
C68 C 0.05047 0.67668 0.36274 0.0
C69 C 1.00008 0.6821 0.32752 0.0
C70 C 0.9507 0.64254 0.33648 0.0
C71 C 0.95169 0.59867 0.37957 0.0
C72 C 0.00542 0.19038 0.4095 0.0
C73 C 0.99161 0.59085 0.81475 0.0
H74 H 0.62428 0.97533 0.11943 0.0
H75 H 0.11928 0.085 0.60937 0.0
H76 H 0.62555 0.92218 0.45831 0.0
H77 H 0.70352 0.91693 0.38013 0.0
H78 H 0.71239 0.10983 0.37586 0.0
H79 H 0.6348 0.11468 0.45523 0.0
H80 H 0.54387 0.92825 0.36513 0.0
H81 H 0.57727 0.92964 0.25998 0.0
H82 H 0.56496 0.12224 0.26398 0.0
H83 H 0.53213 0.12015 0.36935 0.0
H84 H 0.42022 0.93134 0.38702 0.0
H85 H 0.34564 0.9292 0.30912 0.0
H86 H 0.31811 0.11776 0.34248 0.0
H87 H 0.39385 0.1198 0.41953 0.0
H88 H 0.36166 0.93185 0.52908 0.0
H89 H 0.2554 0.93277 0.55877 0.0
H90 H 0.26459 0.12623 0.56773 0.0
H91 H 0.37085 0.12452 0.5384 0.0
H92 H 0.45718 0.9236 0.62208 0.0
H93 H 0.37609 0.91387 0.69707 0.0
H94 H 0.36619 0.1063 0.71117 0.0
H95 H 0.44749 0.11552 0.63605 0.0
H96 H 0.61599 0.92851 0.56652 0.0
H97 H 0.69148 0.92406 0.64283 0.0
H98 H 0.64508 0.10043 0.70923 0.0
H99 H 0.57071 0.10523 0.63159 0.0
O100 O 0.60986 0.97566 0.16066 0.0
O101 O 0.60032 0.07436 0.1643 0.0
O102 O 0.1583 0.98385 0.59044 0.0
O103 O 0.1609 0.08331 0.59652 0.0
C104 C 0.56125 0.02074 0.48388 0.0
C105 C 0.51794 0.02344 0.4393 0.0
C106 C 0.45709 0.02642 0.4555 0.0
C107 C 0.43874 0.0272 0.51596 0.0
C108 C 0.48149 0.02424 0.56103 0.0
C109 C 0.54325 0.02075 0.54532 0.0
C110 C 0.6247 0.01882 0.46307 0.0
C111 C 0.64718 0.96342 0.44371 0.0
C112 C 0.691 0.96049 0.39794 0.0
C113 C 0.7127 0.01296 0.3707 0.0
C114 C 0.69538 0.06864 0.39515 0.0
C115 C 0.65214 0.07153 0.44155 0.0
C116 C 0.5363 0.02415 0.37486 0.0
C117 C 0.54848 0.97065 0.34315 0.0
C118 C 0.56745 0.9716 0.28311 0.0
C119 C 0.57393 0.02608 0.25359 0.0
C120 C 0.56049 0.07953 0.28537 0.0
C121 C 0.54172 0.0785 0.34547 0.0
C122 C 0.41208 0.02569 0.40865 0.0
C123 C 0.3983 0.97218 0.37713 0.0
C124 C 0.35599 0.97107 0.33278 0.0
C125 C 0.3264 0.02334 0.32006 0.0
C126 C 0.34015 0.07686 0.35193 0.0
C127 C 0.38315 0.07811 0.39572 0.0
C128 C 0.37379 0.02809 0.53194 0.0
C129 C 0.34048 0.97432 0.53731 0.0
C130 C 0.27988 0.97501 0.55428 0.0
C131 C 0.2515 0.02962 0.5657 0.0
C132 C 0.28501 0.08343 0.5593 0.0
C133 C 0.34564 0.08263 0.5425 0.0
C134 C 0.45823 0.02023 0.62352 0.0
C135 C 0.44001 0.96371 0.64394 0.0
C136 C 0.39286 0.95824 0.68609 0.0
C137 C 0.36352 0.00933 0.70844 0.0
C138 C 0.38696 0.06612 0.69346 0.0
C139 C 0.43443 0.07153 0.6517 0.0
C140 C 0.5883 0.01758 0.59261 0.0
C141 C 0.62271 0.96662 0.59683 0.0
C142 C 0.66569 0.96402 0.64068 0.0
C143 C 0.67449 0.01199 0.68199 0.0
C144 C 0.63913 0.06256 0.67839 0.0
C145 C 0.59669 0.06541 0.63398 0.0
C146 C 0.59532 0.02706 0.19015 0.0
C147 C 0.18742 0.03062 0.58482 0.0
H148 H 0.39806 0.11818 0.95529 0.0
H149 H 0.88119 0.61769 0.07744 0.0
H150 H 0.38065 0.45743 0.91575 0.0
H151 H 0.30584 0.37595 0.90751 0.0
H152 H 0.29145 0.37002 0.10009 0.0
H153 H 0.36659 0.45151 0.1078 0.0
H154 H 0.47762 0.36659 0.9201 0.0
H155 H 0.44732 0.2604 0.91667 0.0
H156 H 0.43077 0.26358 0.10974 0.0
H157 H 0.46073 0.36986 0.11238 0.0
H158 H 0.61973 0.42528 0.92505 0.0
H159 H 0.69799 0.35109 0.92445 0.0
H160 H 0.65681 0.31872 0.11074 0.0
H161 H 0.57945 0.39398 0.11128 0.0
H162 H 0.6367 0.5508 0.92258 0.0
H163 H 0.74181 0.58442 0.92467 0.0
H164 H 0.73897 0.56384 0.11617 0.0
H165 H 0.63368 0.53084 0.1134 0.0
H166 H 0.54216 0.63185 0.91887 0.0
H167 H 0.62002 0.71028 0.91546 0.0
H168 H 0.62675 0.71215 0.10808 0.0
H169 H 0.54773 0.63407 0.11109 0.0
H170 H 0.43404 0.61681 0.92181 0.0
H171 H 0.3573 0.69198 0.91776 0.0
H172 H 0.29494 0.64838 0.09612 0.0
H173 H 0.3728 0.57407 0.10028 0.0
O174 O 0.41114 0.15982 0.9577 0.0
O175 O 0.40504 0.16335 0.05708 0.0
O176 O 0.83945 0.61208 0.97651 0.0
O177 O 0.84004 0.60337 0.07516 0.0
C178 C 0.44162 0.4836 0.01606 0.0
C179 C 0.4868 0.44085 0.01795 0.0
C180 C 0.54718 0.45945 0.01823 0.0
C181 C 0.56318 0.5205 0.0168 0.0
C182 C 0.51842 0.56374 0.01511 0.0
C183 C 0.45712 0.5455 0.01434 0.0
C184 C 0.37911 0.46039 0.01234 0.0
C185 C 0.35875 0.44103 0.95615 0.0
C186 C 0.31671 0.39367 0.95156 0.0
C187 C 0.29435 0.36535 0.0032 0.0
C188 C 0.3092 0.38999 0.05954 0.0
C189 C 0.35095 0.43759 0.06406 0.0
C190 C 0.47098 0.37577 0.01643 0.0
C191 C 0.46764 0.3441 0.96155 0.0
C192 C 0.45027 0.28353 0.95976 0.0
C193 C 0.43644 0.25353 0.01294 0.0
C194 C 0.44105 0.28532 0.06797 0.0
C195 C 0.4582 0.34594 0.06964 0.0
C196 C 0.59415 0.4146 0.01815 0.0
C197 C 0.62799 0.40237 0.96573 0.0
C198 C 0.67255 0.36031 0.96552 0.0
C199 C 0.68316 0.32945 0.01757 0.0
C200 C 0.64902 0.34172 0.07 0.0
C201 C 0.60503 0.38443 0.07038 0.0
C202 C 0.62757 0.53912 0.01792 0.0
C203 C 0.65892 0.55368 0.9649 0.0
C204 C 0.71893 0.57271 0.96623 0.0
C205 C 0.74878 0.57694 0.02065 0.0
C206 C 0.71735 0.56119 0.07354 0.0
C207 C 0.65727 0.54231 0.07213 0.0
C208 C 0.53879 0.6274 0.01524 0.0
C209 C 0.55724 0.65202 0.96058 0.0
C210 C 0.60281 0.69612 0.95868 0.0
C211 C 0.63069 0.71597 0.01144 0.0
C212 C 0.60698 0.69659 0.06664 0.0
C213 C 0.56079 0.65306 0.06853 0.0
C214 C 0.40977 0.59045 0.01167 0.0
C215 C 0.40443 0.62404 0.96035 0.0
C216 C 0.36039 0.66685 0.95803 0.0
C217 C 0.32012 0.67635 0.00671 0.0
C218 C 0.32494 0.64185 0.05771 0.0
C219 C 0.36948 0.59949 0.06022 0.0
C220 C 0.4167 0.18953 0.01083 0.0
C221 C 0.81217 0.59838 0.0225 0.0
C222 C 0.00521 0.14335 0.85658 0.0
C223 C 1.00059 0.15511 0.14314 0.0
C224 C 0.9916 0.85674 0.85434 0.0
C225 C 0.99779 0.86242 0.14634 0.0
C226 C 0.14 0.85738 1.00004 0.0
C227 C 0.14718 0.14975 0.9941 0.0
C228 C 0.84765 0.86198 0.00213 0.0
C229 C 0.8606 0.14865 0.00898 0.0
C230 C 0.85923 0.00297 0.15428 0.0
C231 C 0.14594 0.01163 0.14234 0.0
C232 C 0.8558 0.00389 0.86186 0.0
C233 C 0.14811 0.99579 0.8557 0.0
Eu234 Eu 0.0034 0.11539 0.00055 0.0
O235 O 0.05572 0.0589 0.05332 0.0
O236 O 0.94826 0.05489 0.94947 0.0
Eu237 Eu 0.11355 0.00328 0.99931 0.0
Eu238 Eu 0.88751 0.00467 0.00653 0.0
O239 O 0.05616 0.05465 0.94686 0.0
O240 O 0.94952 0.05853 0.05734 0.0
Eu241 Eu 0.00129 0.00051 0.88868 0.0
Eu242 Eu 0.00184 0.00746 0.11502 0.0
O243 O 0.05157 0.94839 0.94751 0.0
O244 O 0.05123 0.95115 0.05287 0.0
O245 O 0.94628 0.95238 0.05664 0.0
O246 O 0.94591 0.94993 0.95091 0.0
Eu247 Eu 0.99553 0.88922 0.00106 0.0
O248 O 0.00528 0.16316 0.91332 0.0
O249 O 0.00214 0.16955 0.08603 0.0
O250 O 0.99376 0.83788 0.91048 0.0
O251 O 0.99286 0.84245 0.0897 0.0
O252 O 0.16003 0.91435 0.99923 0.0
O253 O 0.16563 0.09346 0.99657 0.0
O254 O 0.83337 0.91915 0.00262 0.0
O255 O 0.84039 0.0922 0.01252 0.0
O256 O 0.91625 0.00341 0.169 0.0
O257 O 0.08933 0.01336 0.16239 0.0
O258 O 0.9126 0.0006 0.84187 0.0
O259 O 0.09186 0.99836 0.83716 0.0
O260 O 0.90314 0.84122 0.00331 0.0
O261 O 0.08247 0.83907 0.00071 0.0
O262 O 0.91781 0.16632 0.00265 0.0
O263 O 0.09073 0.16635 0.99518 0.0
O264 O 0.00109 0.09948 0.16372 0.0
O265 O 0.0031 0.91995 0.16431 0.0
O266 O 0.00387 0.08615 0.8381 0.0
O267 O 0.99371 0.91328 0.83791 0.0
O268 O 0.16462 0.99658 0.91217 0.0
O269 O 0.16407 0.00681 0.08515 0.0
O270 O 0.83772 0.0066 0.91944 0.0
O271 O 0.83894 0.00462 0.09864 0.0
C272 C 0.96617 0.30914 0.20435 0.0
C273 C 0.00266 0.31475 0.25403 0.0
H274 H 0.93644 0.25359 0.13115 0.0
C275 C 0.03536 0.26519 0.27006 0.0
H276 H 0.94044 0.34637 0.19097 0.0
C277 C 0.03228 0.21135 0.23631 0.0
C278 C 0.99735 0.20684 0.18543 0.0
H279 H 0.0633 0.26807 0.30869 0.0
H280 H 0.05894 0.17433 0.24853 0.0
C281 C 0.96383 0.25596 0.17027 0.0
C282 C 0.79563 0.96916 0.30754 0.0
C283 C 0.74876 0.00916 0.31398 0.0
H284 H 0.86664 0.93551 0.25126 0.0
C285 C 0.73508 0.04384 0.26504 0.0
H286 H 0.80717 0.94184 0.34429 0.0
C287 C 0.76835 0.03924 0.21105 0.0
C288 C 0.81658 0.0008 0.20574 0.0
H289 H 0.69871 0.07461 0.26854 0.0
H290 H 0.75811 0.06754 0.17461 0.0
C291 C 0.82943 0.9654 0.25422 0.0
C292 C 0.97748 0.71423 0.22422 0.0
C293 C 0.99909 0.72857 0.28136 0.0
H294 H 0.96031 0.74473 0.13698 0.0
C295 C 0.0198 0.78751 0.29395 0.0
H296 H 0.96165 0.66914 0.21291 0.0
C297 C 0.01879 0.8311 0.25047 0.0
C298 C 0.99773 0.81661 0.19307 0.0
H299 H 0.03623 0.80013 0.3377 0.0
H300 H 0.03518 0.876 0.26173 0.0
C301 C 0.9771 0.75757 0.18054 0.0
C302 C 0.22429 0.04522 0.28702 0.0
C303 C 0.28073 0.02166 0.27407 0.0
H304 H 0.13706 0.06011 0.25545 0.0
C305 C 0.29296 0.99547 0.21738 0.0
H306 H 0.21383 0.0653 0.33065 0.0
C307 C 0.24933 0.99281 0.17422 0.0
C308 C 0.19247 0.01551 0.18741 0.0
H309 H 0.3364 0.97735 0.20639 0.0
H310 H 0.25986 0.97213 0.13089 0.0
C311 C 0.18036 0.04181 0.24418 0.0
C312 C 0.0283 0.73166 0.74355 0.0
C313 C 0.99223 0.74537 0.69564 0.0
H314 H 0.05493 0.75505 0.833 0.0
C315 C 0.9518 0.79174 0.70351 0.0
H316 H 0.05933 0.69557 0.73905 0.0
C317 C 0.9494 0.82541 0.75698 0.0
C318 C 0.98673 0.81299 0.80408 0.0
H319 H 0.92343 0.80334 0.66762 0.0
H320 H 0.91948 0.86258 0.76089 0.0
C321 C 0.0252 0.76491 0.79762 0.0
C322 C 0.3001 0.96188 0.78921 0.0
C323 C 0.3063 0.00319 0.74348 0.0
H324 H 0.24431 0.9267 0.85985 0.0
C325 C 0.25705 0.03783 0.73065 0.0
H326 H 0.33707 0.93457 0.80012 0.0
C327 C 0.20326 0.03244 0.76414 0.0
C328 C 0.19838 0.9931 0.81164 0.0
H329 H 0.26032 0.06955 0.6951 0.0
H330 H 0.1668 0.06113 0.75494 0.0
C331 C 0.24691 0.95723 0.82317 0.0
C332 C 0.98568 0.21734 0.70961 0.0
C333 C 0.00654 0.27589 0.72293 0.0
H334 H 0.96942 0.12908 0.74151 0.0
C335 C 0.02757 0.29057 0.78005 0.0
H336 H 0.96961 0.20511 0.6656 0.0
C337 C 0.02705 0.24743 0.8236 0.0
C338 C 0.00628 0.1887 0.81038 0.0
H339 H 0.04354 0.33565 0.79126 0.0
H340 H 0.0432 0.26007 0.86746 0.0
C341 C 0.98595 0.17392 0.75288 0.0
C342 C 0.77811 0.98903 0.71313 0.0
C343 C 0.72065 0.00938 0.72834 0.0
H344 H 0.86565 0.97164 0.74282 0.0
C345 C 0.7078 0.02739 0.78802 0.0
H346 H 0.78961 0.97529 0.66748 0.0
C347 C 0.7513 0.02494 0.83146 0.0
C348 C 0.80903 0.00519 0.81613 0.0
H349 H 0.66382 0.0428 0.80129 0.0
H350 H 0.73979 0.03924 0.87695 0.0
C351 C 0.82183 0.9873 0.75635 0.0
C352 C 0.21383 0.30077 0.95685 0.0
C353 C 0.25944 0.30795 0.99819 0.0
H354 H 0.14331 0.2441 0.92273 0.0
C355 C 0.27221 0.25952 0.03399 0.0
H356 H 0.20299 0.33707 0.92863 0.0
C357 C 0.23869 0.20563 0.02978 0.0
C358 C 0.19128 0.19987 0.99043 0.0
H359 H 0.30773 0.26352 0.0657 0.0
H360 H 0.24778 0.16985 0.05934 0.0
C361 C 0.17988 0.24748 0.95334 0.0
C362 C 0.28835 0.77951 0.98276 0.0
C363 C 0.27365 0.7224 0.0044 0.0
H364 H 0.25811 0.86676 0.9647 0.0
C365 C 0.21438 0.70983 0.02399 0.0
H366 H 0.33368 0.79078 0.96775 0.0
C367 C 0.17083 0.75325 0.02182 0.0
C368 C 0.18571 0.81062 0.00082 0.0
H369 H 0.20151 0.66613 0.04047 0.0
H370 H 0.12567 0.74208 0.03743 0.0
C371 C 0.24505 0.82318 0.98137 0.0
C372 C 0.71532 0.22696 0.0391 0.0
C373 C 0.72913 0.28379 0.01678 0.0
H374 H 0.74609 0.13945 0.05389 0.0
C375 C 0.78665 0.29639 0.99274 0.0
H376 H 0.67106 0.2162 0.0575 0.0
C377 C 0.82975 0.25268 0.99086 0.0
C378 C 0.81571 0.19542 0.01229 0.0
H379 H 0.79832 0.34014 0.97567 0.0
H380 H 0.87371 0.26352 0.9718 0.0
C381 C 0.75813 0.18302 0.03659 0.0
C382 C 0.69344 0.80013 0.96949 0.0
C383 C 0.68738 0.75216 0.00818 0.0
H384 H 0.74957 0.87169 0.93681 0.0
C385 C 0.73671 0.73738 0.04181 0.0
H386 H 0.65639 0.81257 0.94303 0.0
C387 C 0.79078 0.77057 0.03735 0.0
C388 C 0.79579 0.81976 1.00012 0.0
H389 H 0.73348 0.70015 0.07157 0.0
H390 H 0.82759 0.75937 0.06476 0.0
C391 C 0.74686 0.83376 0.96582 0.0
loop_
_geom_bond_atom_site_label_1
_geom_bond_atom_site_label_2
_geom_bond_distance
_geom_bond_site_symmetry_2
_ccdc_geom_bond_type
H0 O26 0.856 . S
H1 O29 0.854 . S
H2 C37 0.930 . S
H3 C38 0.930 . S
H4 C40 0.930 . S
H5 C41 0.930 . S
H6 C43 0.931 . S
H7 C44 0.930 . S
H8 C46 0.930 . S
H9 C47 0.929 . S
H10 C49 0.930 . S
H11 C50 0.931 . S
H12 C52 0.930 . S
H13 C53 0.929 . S
H14 C55 0.931 . S
H15 C56 0.930 . S
H16 C58 0.930 . S
H17 C59 0.932 . S
H18 C61 0.930 . S
H19 C62 0.929 . S
H20 C64 0.931 . S
H21 C65 0.930 . S
H22 C67 0.929 . S
H23 C68 0.931 . S
H24 C70 0.930 . S
H25 C71 0.929 . S
O26 H0 0.856 . S
O26 C72 1.300 1_455 S
O27 C72 1.209 . S
O28 C73 1.199 1_455 S
O29 H1 0.854 . S
O29 C73 1.297 . S
C30 C31 1.404 . S
C30 C35 1.397 1_655 S
C30 C36 1.492 1_655 S
C31 C30 1.404 . S
C31 C32 1.396 . S
C31 C42 1.492 . S
C32 C31 1.396 . S
C32 C33 1.397 . S
C32 C48 1.509 . S
C33 C32 1.397 . S
C33 C34 1.413 . S
C33 C54 1.485 . S
C34 C33 1.413 . S
C34 C35 1.389 1_655 S
C34 C60 1.490 1_655 S
C35 C30 1.397 1_455 S
C35 C34 1.389 1_455 S
C35 C66 1.518 1_455 S
C36 C30 1.492 1_455 S
C36 C37 1.363 . S
C36 C41 1.390 1_455 S
C37 H2 0.930 . S
C37 C36 1.363 . S
C37 C38 1.372 . S
C38 H3 0.930 . S
C38 C37 1.372 . S
C38 C39 1.383 . S
C39 C38 1.383 . S
C39 C40 1.395 1_455 S
C40 H4 0.930 . S
C40 C39 1.395 1_655 S
C40 C41 1.362 . S
C41 H5 0.930 . S
C41 C36 1.390 1_655 S
C41 C40 1.362 . S
C42 C31 1.492 . S
C42 C43 1.377 1_655 S
C42 C47 1.397 . S
C43 H6 0.931 . S
C43 C42 1.377 1_455 S
C43 C44 1.376 . S
C44 H7 0.930 . S
C44 C43 1.376 . S
C44 C45 1.376 1_455 S
C45 C44 1.376 1_655 S
C45 C46 1.378 . S
C45 C72 1.486 . S
C46 H8 0.930 . S
C46 C45 1.378 . S
C46 C47 1.376 . S
C47 H9 0.929 . S
C47 C42 1.397 . S
C47 C46 1.376 . S
C48 C32 1.509 . S
C48 C49 1.391 1_655 S
C48 C53 1.386 . S
C49 H10 0.930 . S
C49 C48 1.391 1_455 S
C49 C50 1.375 . S
C50 H11 0.931 . S
C50 C49 1.375 . S
C50 C51 1.375 1_455 S
C51 C50 1.375 1_655 S
C51 C52 1.361 . S
C52 H12 0.930 . S
C52 C51 1.361 . S
C52 C53 1.399 . S
C53 H13 0.929 . S
C53 C48 1.386 . S
C53 C52 1.399 . S
C54 C33 1.485 . S
C54 C55 1.394 1_655 S
C54 C59 1.360 . S
C55 H14 0.931 . S
C55 C54 1.394 1_455 S
C55 C56 1.372 . S
C56 H15 0.930 . S
C56 C55 1.372 . S
C56 C57 1.397 1_455 S
C57 C56 1.397 1_655 S
C57 C58 1.390 . S
C57 C73 1.476 . S
C58 H16 0.930 . S
C58 C57 1.390 . S
C58 C59 1.366 . S
C59 H17 0.932 . S
C59 C54 1.360 . S
C59 C58 1.366 . S
C60 C34 1.490 1_455 S
C60 C61 1.380 . S
C60 C65 1.386 1_455 S
C61 H18 0.930 . S
C61 C60 1.380 . S
C61 C62 1.381 . S
C62 H19 0.929 . S
C62 C61 1.381 . S
C62 C63 1.371 . S
C63 C62 1.371 . S
C63 C64 1.380 1_455 S
C64 H20 0.931 . S
C64 C63 1.380 1_655 S
C64 C65 1.387 . S
C65 H21 0.930 . S
C65 C60 1.386 1_655 S
C65 C64 1.387 . S
C66 C35 1.518 1_655 S
C66 C67 1.377 1_655 S
C66 C71 1.361 . S
C67 H22 0.929 . S
C67 C66 1.377 1_455 S
C67 C68 1.386 . S
C68 H23 0.931 . S
C68 C67 1.386 . S
C68 C69 1.363 1_455 S
C69 C68 1.363 1_655 S
C69 C70 1.385 . S
C70 H24 0.930 . S
C70 C69 1.385 . S
C70 C71 1.396 . S
C71 H25 0.929 . S
C71 C66 1.361 . S
C71 C70 1.396 . S
C72 O26 1.300 1_655 S
C72 O27 1.209 . S
C72 C45 1.486 . S
C73 O28 1.199 1_655 S
C73 O29 1.297 . S
C73 C57 1.476 . S
H74 O100 0.856 1_545 S
H75 O103 0.854 . S
H76 C111 0.930 . S
H77 C112 0.930 . S
H78 C114 0.930 . S
H79 C115 0.930 . S
H80 C117 0.931 . S
H81 C118 0.930 . S
H82 C120 0.930 . S
H83 C121 0.929 . S
H84 C123 0.930 . S
H85 C124 0.931 . S
H86 C126 0.930 . S
H87 C127 0.929 . S
H88 C129 0.931 . S
H89 C130 0.930 . S
H90 C132 0.930 . S
H91 C133 0.932 . S
H92 C135 0.930 . S
H93 C136 0.929 . S
H94 C138 0.931 . S
H95 C139 0.930 . S
H96 C141 0.929 . S
H97 C142 0.931 . S
H98 C144 0.930 . S
H99 C145 0.929 . S
O100 H74 0.856 1_565 S
O100 C146 1.300 1_565 S
O101 C146 1.209 . S
O102 C147 1.199 1_565 S
O103 H75 0.854 . S
O103 C147 1.297 . S
C104 C105 1.404 . S
C104 C109 1.397 . S
C104 C110 1.492 . S
C105 C104 1.404 . S
C105 C106 1.396 . S
C105 C116 1.492 . S
C106 C105 1.396 . S
C106 C107 1.397 . S
C106 C122 1.509 . S
C107 C106 1.397 . S
C107 C108 1.412 . S
C107 C128 1.485 . S
C108 C107 1.412 . S
C108 C109 1.388 . S
C108 C134 1.490 . S
C109 C104 1.397 . S
C109 C108 1.388 . S
C109 C140 1.519 . S
C110 C104 1.492 . S
C110 C111 1.363 1_545 S
C110 C115 1.390 . S
C111 H76 0.930 . S
C111 C110 1.363 1_565 S
C111 C112 1.372 . S
C112 H77 0.930 . S
C112 C111 1.372 . S
C112 C113 1.383 . S
C113 C112 1.383 . S
C113 C114 1.395 1_565 S
C114 H78 0.930 . S
C114 C113 1.395 1_545 S
C114 C115 1.362 . S
C115 H79 0.930 . S
C115 C110 1.390 . S
C115 C114 1.362 . S
C116 C105 1.492 . S
C116 C117 1.377 1_545 S
C116 C121 1.397 . S
C117 H80 0.931 . S
C117 C116 1.377 1_565 S
C117 C118 1.376 . S
C118 H81 0.930 . S
C118 C117 1.376 . S
C118 C119 1.376 1_565 S
C119 C118 1.376 1_545 S
C119 C120 1.378 . S
C119 C146 1.486 . S
C120 H82 0.930 . S
C120 C119 1.378 . S
C120 C121 1.376 . S
C121 H83 0.929 . S
C121 C116 1.397 . S
C121 C120 1.376 . S
C122 C106 1.509 . S
C122 C123 1.391 1_545 S
C122 C127 1.386 . S
C123 H84 0.930 . S
C123 C122 1.391 1_565 S
C123 C124 1.375 . S
C124 H85 0.931 . S
C124 C123 1.375 . S
C124 C125 1.375 1_565 S
C125 C124 1.375 1_545 S
C125 C126 1.361 . S
C126 H86 0.930 . S
C126 C125 1.361 . S
C126 C127 1.399 . S
C127 H87 0.929 . S
C127 C122 1.386 . S
C127 C126 1.399 . S
C128 C107 1.485 . S
C128 C129 1.394 1_545 S
C128 C133 1.360 . S
C129 H88 0.931 . S
C129 C128 1.394 1_565 S
C129 C130 1.372 . S
C130 H89 0.930 . S
C130 C129 1.372 . S
C130 C131 1.397 1_565 S
C131 C130 1.397 1_545 S
C131 C132 1.390 . S
C131 C147 1.476 . S
C132 H90 0.930 . S
C132 C131 1.390 . S
C132 C133 1.366 . S
C133 H91 0.932 . S
C133 C128 1.360 . S
C133 C132 1.366 . S
C134 C108 1.490 . S
C134 C135 1.380 1_545 S
C134 C139 1.386 . S
C135 H92 0.930 . S
C135 C134 1.380 1_565 S
C135 C136 1.381 . S
C136 H93 0.929 . S
C136 C135 1.381 . S
C136 C137 1.371 . S
C137 C136 1.371 . S
C137 C138 1.380 1_565 S
C138 H94 0.931 . S
C138 C137 1.380 1_545 S
C138 C139 1.387 . S
C139 H95 0.930 . S
C139 C134 1.386 . S
C139 C138 1.387 . S
C140 C109 1.519 . S
C140 C141 1.377 1_545 S
C140 C145 1.361 . S
C141 H96 0.929 . S
C141 C140 1.377 1_565 S
C141 C142 1.386 . S
C142 H97 0.931 . S
C142 C141 1.386 . S
C142 C143 1.363 1_565 S
C143 C142 1.363 1_545 S
C143 C144 1.385 . S
C144 H98 0.930 . S
C144 C143 1.385 . S
C144 C145 1.396 . S
C145 H99 0.929 . S
C145 C140 1.361 . S
C145 C144 1.396 . S
C146 O100 1.300 1_545 S
C146 O101 1.209 . S
C146 C119 1.486 . S
C147 O102 1.199 1_545 S
C147 O103 1.297 . S
C147 C131 1.476 . S
H148 O174 0.856 . S
H149 O177 0.854 . S
H150 C185 0.930 . S
H151 C186 0.930 . S
H152 C188 0.930 . S
H153 C189 0.930 . S
H154 C191 0.931 . S
H155 C192 0.930 . S
H156 C194 0.930 . S
H157 C195 0.929 . S
H158 C197 0.930 . S
H159 C198 0.931 . S
H160 C200 0.930 . S
H161 C201 0.929 . S
H162 C203 0.931 . S
H163 C204 0.930 . S
H164 C206 0.930 . S
H165 C207 0.932 . S
H166 C209 0.930 . S
H167 C210 0.929 . S
H168 C212 0.931 . S
H169 C213 0.930 . S
H170 C215 0.929 . S
H171 C216 0.931 . S
H172 C218 0.930 . S
H173 C219 0.929 . S
O174 H148 0.856 . S
O174 C220 1.300 1_556 S
O175 C220 1.209 . S
O176 C221 1.199 1_556 S
O177 H149 0.854 . S
O177 C221 1.297 . S
C178 C179 1.404 . S
C178 C183 1.397 . S
C178 C184 1.490 1_554 S
C179 C178 1.404 . S
C179 C180 1.396 . S
C179 C190 1.492 . S
C180 C179 1.396 . S
C180 C181 1.397 . S
C180 C196 1.509 . S
C181 C180 1.397 . S
C181 C182 1.412 . S
C181 C202 1.485 . S
C182 C181 1.412 . S
C182 C183 1.388 . S
C182 C208 1.490 1_554 S
C183 C178 1.397 . S
C183 C182 1.388 . S
C183 C214 1.519 . S
C184 C178 1.490 1_556 S
C184 C185 1.377 . S
C184 C189 1.378 1_556 S
C185 H150 0.930 . S
C185 C184 1.377 . S
C185 C186 1.372 . S
C186 H151 0.930 . S
C186 C185 1.372 . S
C186 C187 1.383 . S
C187 C186 1.383 . S
C187 C188 1.395 1_556 S
C188 H152 0.930 . S
C188 C187 1.395 1_554 S
C188 C189 1.362 . S
C189 H153 0.930 . S
C189 C184 1.378 1_554 S
C189 C188 1.362 . S
C190 C179 1.492 . S
C190 C191 1.377 1_554 S
C190 C195 1.397 . S
C191 H154 0.931 . S
C191 C190 1.377 1_556 S
C191 C192 1.376 . S
C192 H155 0.930 . S
C192 C191 1.376 . S
C192 C193 1.376 1_556 S
C193 C192 1.376 1_554 S
C193 C194 1.378 . S
C193 C220 1.486 . S
C194 H156 0.930 . S
C194 C193 1.378 . S
C194 C195 1.376 . S
C195 H157 0.929 . S
C195 C190 1.397 . S
C195 C194 1.376 . S
C196 C180 1.509 . S
C196 C197 1.391 1_554 S
C196 C201 1.386 . S
C197 H158 0.930 . S
C197 C196 1.391 1_556 S
C197 C198 1.375 . S
C198 H159 0.931 . S
C198 C197 1.375 . S
C198 C199 1.375 1_556 S
C199 C198 1.375 1_554 S
C199 C200 1.361 . S
C200 H160 0.930 . S
C200 C199 1.361 . S
C200 C201 1.399 . S
C201 H161 0.929 . S
C201 C196 1.386 . S
C201 C200 1.399 . S
C202 C181 1.485 . S
C202 C203 1.394 1_554 S
C202 C207 1.360 . S
C203 H162 0.931 . S
C203 C202 1.394 1_556 S
C203 C204 1.372 . S
C204 H163 0.930 . S
C204 C203 1.372 . S
C204 C205 1.397 1_556 S
C205 C204 1.397 1_554 S
C205 C206 1.390 . S
C205 C221 1.476 . S
C206 H164 0.930 . S
C206 C205 1.390 . S
C206 C207 1.366 . S
C207 H165 0.932 . S
C207 C202 1.360 . S
C207 C206 1.366 . S
C208 C182 1.490 1_556 S
C208 C209 1.380 . S
C208 C213 1.386 1_556 S
C209 H166 0.930 . S
C209 C208 1.380 . S
C209 C210 1.381 . S
C210 H167 0.929 . S
C210 C209 1.381 . S
C210 C211 1.371 . S
C211 C210 1.371 . S
C211 C212 1.380 1_556 S
C212 H168 0.931 . S
C212 C211 1.380 1_554 S
C212 C213 1.387 . S
C213 H169 0.930 . S
C213 C208 1.386 1_554 S
C213 C212 1.387 . S
C214 C183 1.519 . S
C214 C215 1.377 1_554 S
C214 C219 1.361 . S
C215 H170 0.929 . S
C215 C214 1.377 1_556 S
C215 C216 1.386 . S
C216 H171 0.931 . S
C216 C215 1.386 . S
C216 C217 1.363 1_556 S
C217 C216 1.363 1_554 S
C217 C218 1.385 . S
C218 H172 0.930 . S
C218 C217 1.385 . S
C218 C219 1.396 . S
C219 H173 0.929 . S
C219 C214 1.361 . S
C219 C218 1.396 . S
C220 O174 1.300 1_554 S
C220 O175 1.209 . S
C220 C193 1.486 . S
C221 O176 1.199 1_554 S
C221 O177 1.297 . S
C221 C205 1.476 . S
C222 O248 1.283 . S
C222 O266 1.283 . S
C223 O249 1.283 . S
C223 O264 1.283 1_455 S
C224 O250 1.283 1_455 S
C224 O267 1.283 . S
C225 O251 1.283 . S
C225 O265 1.283 . S
C226 O252 1.283 . S
C226 O261 1.283 . S
C227 O253 1.283 . S
C227 O263 1.283 . S
C228 O254 1.283 . S
C228 O260 1.283 . S
C229 O255 1.283 . S
C229 O262 1.283 . S
C230 O256 1.283 . S
C230 O271 1.283 . S
C231 O257 1.283 . S
C231 O269 1.283 . S
C232 O258 1.283 . S
C232 O270 1.283 . S
C233 O259 1.283 . S
C233 O268 1.283 . S
Eu234 O235 2.370 . S
Eu234 O236 2.370 1_454 S
Eu234 O239 2.370 1_554 S
Eu234 O240 2.370 1_455 S
Eu234 O248 2.363 1_554 S
Eu234 O249 2.363 . S
Eu234 O262 2.363 1_455 S
Eu234 O263 2.363 . S
O235 Eu234 2.370 . S
O235 Eu237 2.370 . S
O235 Eu242 2.360 1_455 S
O236 Eu234 2.370 1_656 S
O236 Eu238 2.370 1_556 S
O236 Eu241 2.370 1_655 S
Eu237 O235 2.370 . S
Eu237 O239 2.371 1_554 S
Eu237 O243 2.370 1_544 S
Eu237 O244 2.370 1_545 S
Eu237 O252 2.363 1_544 S
Eu237 O253 2.363 . S
Eu237 O268 2.364 1_554 S
Eu237 O269 2.362 . S
Eu238 O236 2.370 1_554 S
Eu238 O240 2.370 . S
Eu238 O245 2.370 1_545 S
Eu238 O246 2.370 1_544 S
Eu238 O254 2.363 1_545 S
Eu238 O255 2.363 . S
Eu238 O270 2.363 1_554 S
Eu238 O271 2.363 . S
O239 Eu234 2.370 1_556 S
O239 Eu237 2.371 1_556 S
O239 Eu241 2.370 . S
O240 Eu234 2.370 1_655 S
O240 Eu238 2.370 . S
O240 Eu242 2.381 . S
Eu241 O236 2.370 1_455 S
Eu241 O239 2.370 . S
Eu241 O243 2.370 1_545 S
Eu241 O246 2.370 1_445 S
Eu241 O258 2.363 1_455 S
Eu241 O259 2.363 . S
Eu241 O266 2.363 . S
Eu241 O267 2.363 1_545 S
Eu242 O235 2.360 1_655 S
Eu242 O240 2.381 . S
Eu242 O244 2.360 1_645 S
Eu242 O245 2.380 1_545 S
Eu242 O256 2.380 . S
Eu242 O257 2.346 1_655 S
Eu242 O264 2.363 . S
Eu242 O265 2.363 1_545 S
O243 Eu237 2.370 1_566 S
O243 Eu241 2.370 1_565 S
O243 Eu247 2.361 1_456 S
O244 Eu237 2.370 1_565 S
O244 Eu242 2.360 1_465 S
O244 Eu247 2.360 1_455 S
O245 Eu238 2.370 1_565 S
O245 Eu242 2.380 1_565 S
O245 Eu247 2.380 . S
O246 Eu238 2.370 1_566 S
O246 Eu241 2.370 1_665 S
O246 Eu247 2.381 1_556 S
Eu247 O243 2.361 1_654 S
Eu247 O244 2.360 1_655 S
Eu247 O245 2.380 . S
Eu247 O246 2.381 1_554 S
Eu247 O250 2.364 1_554 S
Eu247 O251 2.362 . S
Eu247 O260 2.380 . S
Eu247 O261 2.346 1_654 S
O248 C222 1.283 . S
O248 Eu234 2.363 1_556 S
O249 C223 1.283 . S
O249 Eu234 2.363 . S
O250 C224 1.283 1_655 S
O250 Eu247 2.364 1_556 S
O251 C225 1.283 . S
O251 Eu247 2.362 . S
O252 C226 1.283 . S
O252 Eu237 2.363 1_566 S
O253 C227 1.283 . S
O253 Eu237 2.363 . S
O254 C228 1.283 . S
O254 Eu238 2.363 1_565 S
O255 C229 1.283 . S
O255 Eu238 2.363 . S
O256 C230 1.283 . S
O256 Eu242 2.380 . S
O257 C231 1.283 . S
O257 Eu242 2.346 1_455 S
O258 C232 1.283 . S
O258 Eu241 2.363 1_655 S
O259 C233 1.283 . S
O259 Eu241 2.363 . S
O260 C228 1.283 . S
O260 Eu247 2.380 . S
O261 C226 1.283 . S
O261 Eu247 2.346 1_456 S
O262 C229 1.283 . S
O262 Eu234 2.363 1_655 S
O263 C227 1.283 . S
O263 Eu234 2.363 . S
O264 C223 1.283 1_655 S
O264 Eu242 2.363 . S
O265 C225 1.283 . S
O265 Eu242 2.363 1_565 S
O266 C222 1.283 . S
O266 Eu241 2.363 . S
O267 C224 1.283 . S
O267 Eu241 2.363 1_565 S
O268 C233 1.283 . S
O268 Eu237 2.364 1_556 S
O269 C231 1.283 . S
O269 Eu237 2.362 . S
O270 C232 1.283 . S
O270 Eu238 2.363 1_556 S
O271 C230 1.283 . S
O271 Eu238 2.363 . S
C272 C273 1.387 1_655 S
C272 H276 0.950 . S
C272 C281 1.390 . S
C273 C272 1.387 1_455 S
C273 C275 1.387 . S
H274 C281 0.950 . S
C275 C273 1.387 . S
C275 C277 1.390 . S
C275 H279 0.950 . S
H276 C272 0.950 . S
C277 C275 1.390 . S
C277 C278 1.387 . S
C277 H280 0.950 . S
C278 C277 1.387 . S
C278 C281 1.387 1_455 S
H279 C275 0.950 . S
H280 C277 0.950 . S
C281 C272 1.390 . S
C281 H274 0.950 . S
C281 C278 1.387 1_655 S
C282 C283 1.387 . S
C282 H286 0.950 . S
C282 C291 1.390 . S
C283 C282 1.387 . S
C283 C285 1.387 1_565 S
H284 C291 0.950 . S
C285 C283 1.387 1_545 S
C285 C287 1.390 . S
C285 H289 0.950 . S
H286 C282 0.950 . S
C287 C285 1.390 . S
C287 C288 1.387 . S
C287 H290 0.950 . S
C288 C287 1.387 . S
C288 C291 1.387 1_545 S
H289 C285 0.950 . S
H290 C287 0.950 . S
C291 C282 1.390 . S
C291 H284 0.950 . S
C291 C288 1.387 1_565 S
C292 C293 1.387 . S
C292 H296 0.950 . S
C292 C301 1.390 . S
C293 C292 1.387 . S
C293 C295 1.387 1_655 S
H294 C301 0.950 . S
C295 C293 1.387 1_455 S
C295 C297 1.390 . S
C295 H299 0.950 . S
H296 C292 0.950 . S
C297 C295 1.390 . S
C297 C298 1.387 1_455 S
C297 H300 0.950 . S
C298 C297 1.387 1_655 S
C298 C301 1.387 . S
H299 C295 0.950 . S
H300 C297 0.950 . S
C301 C292 1.390 . S
C301 H294 0.950 . S
C301 C298 1.387 . S
C302 C303 1.387 . S
C302 H306 0.950 . S
C302 C311 1.390 . S
C303 C302 1.387 . S
C303 C305 1.387 1_545 S
H304 C311 0.950 . S
C305 C303 1.387 1_565 S
C305 C307 1.390 . S
C305 H309 0.950 . S
H306 C302 0.950 . S
C307 C305 1.390 . S
C307 C308 1.387 1_565 S
C307 H310 0.950 . S
C308 C307 1.387 1_545 S
C308 C311 1.387 . S
H309 C305 0.950 . S
H310 C307 0.950 . S
C311 C302 1.390 . S
C311 H304 0.950 . S
C311 C308 1.387 . S
C312 C313 1.387 . S
C312 H316 0.950 . S
C312 C321 1.390 . S
C313 C312 1.387 . S
C313 C315 1.387 1_455 S
H314 C321 0.950 . S
C315 C313 1.387 1_655 S
C315 C317 1.390 . S
C315 H319 0.950 . S
H316 C312 0.950 . S
C317 C315 1.390 . S
C317 C318 1.387 1_655 S
C317 H320 0.950 . S
C318 C317 1.387 1_455 S
C318 C321 1.387 . S
H319 C315 0.950 . S
H320 C317 0.950 . S
C321 C312 1.390 . S
C321 H314 0.950 . S
C321 C318 1.387 . S
C322 C323 1.387 . S
C322 H326 0.950 . S
C322 C331 1.390 . S
C323 C322 1.387 . S
C323 C325 1.387 1_565 S
H324 C331 0.950 . S
C325 C323 1.387 1_545 S
C325 C327 1.390 . S
C325 H329 0.950 . S
H326 C322 0.950 . S
C327 C325 1.390 . S
C327 C328 1.387 . S
C327 H330 0.950 . S
C328 C327 1.387 . S
C328 C331 1.387 1_545 S
H329 C325 0.950 . S
H330 C327 0.950 . S
C331 C322 1.390 . S
C331 H324 0.950 . S
C331 C328 1.387 1_565 S
C332 C333 1.387 . S
C332 H336 0.950 . S
C332 C341 1.390 . S
C333 C332 1.387 . S
C333 C335 1.387 1_655 S
H334 C341 0.950 . S
C335 C333 1.387 1_455 S
C335 C337 1.390 . S
C335 H339 0.950 . S
H336 C332 0.950 . S
C337 C335 1.390 . S
C337 C338 1.387 . S
C337 H340 0.950 . S
C338 C337 1.387 . S
C338 C341 1.387 1_455 S
H339 C335 0.950 . S
H340 C337 0.950 . S
C341 C332 1.390 . S
C341 H334 0.950 . S
C341 C338 1.387 1_655 S
C342 C343 1.387 1_565 S
C342 H346 0.950 . S
C342 C351 1.390 . S
C343 C342 1.387 1_545 S
C343 C345 1.387 . S
H344 C351 0.950 . S
C345 C343 1.387 . S
C345 C347 1.390 . S
C345 H349 0.950 . S
H346 C342 0.950 . S
C347 C345 1.390 . S
C347 C348 1.387 . S
C347 H350 0.950 . S
C348 C347 1.387 . S
C348 C351 1.387 1_545 S
H349 C345 0.950 . S
H350 C347 0.950 . S
C351 C342 1.390 . S
C351 H344 0.950 . S
C351 C348 1.387 1_565 S
C352 C353 1.387 . S
C352 H356 0.950 . S
C352 C361 1.390 . S
C353 C352 1.387 . S
C353 C355 1.387 1_556 S
H354 C361 0.950 . S
C355 C353 1.387 1_554 S
C355 C357 1.390 . S
C355 H359 0.950 . S
H356 C352 0.950 . S
C357 C355 1.390 . S
C357 C358 1.387 1_554 S
C357 H360 0.950 . S
C358 C357 1.387 1_556 S
C358 C361 1.387 . S
H359 C355 0.950 . S
H360 C357 0.950 . S
C361 C352 1.390 . S
C361 H354 0.950 . S
C361 C358 1.387 . S
C362 C363 1.387 1_556 S
C362 H366 0.950 . S
C362 C371 1.390 . S
C363 C362 1.387 1_554 S
C363 C365 1.387 . S
H364 C371 0.950 . S
C365 C363 1.387 . S
C365 C367 1.390 . S
C365 H369 0.950 . S
H366 C362 0.950 . S
C367 C365 1.390 . S
C367 C368 1.387 . S
C367 H370 0.950 . S
C368 C367 1.387 . S
C368 C371 1.387 1_554 S
H369 C365 0.950 . S
H370 C367 0.950 . S
C371 C362 1.390 . S
C371 H364 0.950 . S
C371 C368 1.387 1_556 S
C372 C373 1.387 . S
C372 H376 0.950 . S
C372 C381 1.390 . S
C373 C372 1.387 . S
C373 C375 1.387 1_554 S
H374 C381 0.950 . S
C375 C373 1.387 1_556 S
C375 C377 1.390 . S
C375 H379 0.950 . S
H376 C372 0.950 . S
C377 C375 1.390 . S
C377 C378 1.387 1_556 S
C377 H380 0.950 . S
C378 C377 1.387 1_554 S
C378 C381 1.387 . S
H379 C375 0.950 . S
H380 C377 0.950 . S
C381 C372 1.390 . S
C381 H374 0.950 . S
C381 C378 1.387 . S
C382 C383 1.387 . S
C382 H386 0.950 . S
C382 C391 1.390 . S
C383 C382 1.387 . S
C383 C385 1.387 1_556 S
H384 C391 0.950 . S
C385 C383 1.387 1_554 S
C385 C387 1.390 . S
C385 H389 0.950 . S
H386 C382 0.950 . S
C387 C385 1.390 . S
C387 C388 1.387 1_554 S
C387 H390 0.950 . S
C388 C387 1.387 1_556 S
C388 C391 1.387 . S
H389 C385 0.950 . S
H390 C387 0.950 . S
C391 C382 1.390 . S
C391 H384 0.950 . S
C391 C388 1.387 . S
C278 C223 1.830 . S
C273 C39 1.658 . S
C288 C230 1.840 . S
C283 C113 1.671 . S
C298 C225 2.017 . S
C293 C69 2.009 . S
C308 C231 0.910 . S
C303 C125 0.906 . S
C313 C63 1.635 . S
C318 C224 1.790 . S
C328 C233 1.798 . S
C323 C137 1.644 . S
C333 C51 0.921 . S
C338 C222 0.925 . S
C343 C143 2.026 . S
C348 C232 2.035 . S
C353 C187 1.665 . S
C358 C227 1.834 1_556 S
C363 C217 2.021 . S
C368 C226 2.030 1_554 S
C378 C229 0.906 . S
C373 C199 0.902 . S
C388 C228 1.795 1_556 S
C383 C211 1.641 . S
