# Generated by pormake.
# Topology zzz, (3,6)-cn, num edge types: 1
# Building blocks:
#     Node 0, Type 0, BuildingBlock: KAKCAD_clean_linker_0, # of connection points: 3
#     Node 1, Type 0, BuildingBlock: KAKCAD_clean_linker_0, # of connection points: 3
#     Node 2, Type 0, BuildingBlock: KAKCAD_clean_linker_0, # of connection points: 3
#     Node 3, Type 0, BuildingBlock: KAKCAD_clean_linker_0, # of connection points: 3
#     Node 4, Type 0, BuildingBlock: KAKCAD_clean_linker_0, # of connection points: 3
#     Node 5, Type 0, BuildingBlock: KAKCAD_clean_linker_0, # of connection points: 3
#     Node 6, Type 0, BuildingBlock: KAKCAD_clean_linker_0, # of connection points: 3
#     Node 7, Type 0, BuildingBlock: KAKCAD_clean_linker_0, # of connection points: 3
#     Node 8, Type 1, BuildingBlock: BETGAK_clean_sbu_0, # of connection points: 6
#     Node 9, Type 1, BuildingBlock: BETGAK_clean_sbu_0, # of connection points: 6
#     Node 10, Type 1, BuildingBlock: BETGAK_clean_sbu_0, # of connection points: 6
#     Node 11, Type 1, BuildingBlock: BETGAK_clean_sbu_0, # of connection points: 6
#     Edge 12, Type (0, 1), BuildingBlock: TEMPAE_clean_linker_10, # of connection points: 2
#     Edge 13, Type (0, 1), BuildingBlock: TEMPAE_clean_linker_10, # of connection points: 2
#     Edge 14, Type (0, 1), BuildingBlock: TEMPAE_clean_linker_10, # of connection points: 2
#     Edge 15, Type (0, 1), BuildingBlock: TEMPAE_clean_linker_10, # of connection points: 2
#     Edge 16, Type (0, 1), BuildingBlock: TEMPAE_clean_linker_10, # of connection points: 2
#     Edge 17, Type (0, 1), BuildingBlock: TEMPAE_clean_linker_10, # of connection points: 2
#     Edge 18, Type (0, 1), BuildingBlock: TEMPAE_clean_linker_10, # of connection points: 2
#     Edge 19, Type (0, 1), BuildingBlock: TEMPAE_clean_linker_10, # of connection points: 2
#     Edge 20, Type (0, 1), BuildingBlock: TEMPAE_clean_linker_10, # of connection points: 2
#     Edge 21, Type (0, 1), BuildingBlock: TEMPAE_clean_linker_10, # of connection points: 2
#     Edge 22, Type (0, 1), BuildingBlock: TEMPAE_clean_linker_10, # of connection points: 2
#     Edge 23, Type (0, 1), BuildingBlock: TEMPAE_clean_linker_10, # of connection points: 2
#     Edge 24, Type (0, 1), BuildingBlock: TEMPAE_clean_linker_10, # of connection points: 2
#     Edge 25, Type (0, 1), BuildingBlock: TEMPAE_clean_linker_10, # of connection points: 2
#     Edge 26, Type (0, 1), BuildingBlock: TEMPAE_clean_linker_10, # of connection points: 2
#     Edge 27, Type (0, 1), BuildingBlock: TEMPAE_clean_linker_10, # of connection points: 2
#     Edge 28, Type (0, 1), BuildingBlock: TEMPAE_clean_linker_10, # of connection points: 2
#     Edge 29, Type (0, 1), BuildingBlock: TEMPAE_clean_linker_10, # of connection points: 2
#     Edge 30, Type (0, 1), BuildingBlock: TEMPAE_clean_linker_10, # of connection points: 2
#     Edge 31, Type (0, 1), BuildingBlock: TEMPAE_clean_linker_10, # of connection points: 2
#     Edge 32, Type (0, 1), BuildingBlock: TEMPAE_clean_linker_10, # of connection points: 2
#     Edge 33, Type (0, 1), BuildingBlock: TEMPAE_clean_linker_10, # of connection points: 2
#     Edge 34, Type (0, 1), BuildingBlock: TEMPAE_clean_linker_10, # of connection points: 2
#     Edge 35, Type (0, 1), BuildingBlock: TEMPAE_clean_linker_10, # of connection points: 2
# Relax obj value: 0.448
# Max RMSD: 0.269
# Mean RMSD: 0.253
data_MOF--net-zzz--node1-BETGAK_clean_sbu_0--node2-KAKCAD_clean_linker_0--edge1-TEMPAE_clean_linker_10
_symmetry_space_group_name_H-M    P1
_symmetry_Int_Tables_number       1
_symmetry_cell_setting            triclinic
loop_
_symmetry_equiv_pos_as_xyz
'x, y, z'
_cell_length_a     60.739261
_cell_length_b     60.713392
_cell_length_c     18.617777
_cell_angle_alpha  89.811044
_cell_angle_beta   89.786995
_cell_angle_gamma 89.986461
loop_
_atom_site_label
_atom_site_type_symbol
_atom_site_fract_x
_atom_site_fract_y
_atom_site_fract_z
_atom_type_partial_charge
C0 C 0.75729 0.42845 0.058 0.0
C1 C 0.77013 0.41243 0.09329 0.0
C2 C 0.74352 0.4424 0.09707 0.0
C3 C 0.74251 0.44077 0.17214 0.0
C4 C 0.75307 0.42311 0.2065 0.0
C5 C 0.76649 0.40881 0.16718 0.0
C6 C 0.73466 0.45993 0.2138 0.0
C7 C 0.71435 0.46971 0.19882 0.0
C8 C 0.70886 0.49042 0.22719 0.0
C9 C 0.72422 0.50156 0.27121 0.0
C10 C 0.74466 0.49154 0.28747 0.0
C11 C 0.74942 0.47068 0.25933 0.0
C12 C 0.76261 0.50271 0.3276 0.0
C13 C 0.7821 0.50816 0.29071 0.0
C14 C 0.76271 0.50294 0.40308 0.0
C15 C 0.78228 0.50733 0.44076 0.0
C16 C 0.80217 0.51127 0.40354 0.0
C17 C 0.68765 0.50028 0.20372 0.0
C18 C 0.68743 0.51691 0.15113 0.0
C19 C 0.66783 0.48945 0.22045 0.0
C20 C 0.64852 0.49415 0.18243 0.0
C21 C 0.64858 0.50958 0.12575 0.0
C22 C 0.66812 0.52153 0.11254 0.0
C23 C 0.80159 0.51239 0.32809 0.0
H24 H 0.75955 0.43195 1.00141 0.0
H25 H 0.73557 0.45593 0.06931 0.0
H26 H 0.75226 0.4214 0.26439 0.0
H27 H 0.77551 0.39617 0.19582 0.0
H28 H 0.70316 0.4616 0.16215 0.0
H29 H 0.76546 0.46339 0.26924 0.0
H30 H 0.72053 0.5179 0.29114 0.0
H31 H 0.78257 0.50775 0.23253 0.0
H32 H 0.74806 0.49827 0.43281 0.0
H33 H 0.78215 0.50627 0.49883 0.0
H34 H 0.70259 0.52514 0.13602 0.0
H35 H 0.66762 0.47636 0.26014 0.0
H36 H 0.81648 0.5157 0.29769 0.0
H37 H 0.66895 0.53339 0.06907 0.0
H38 H 0.63376 0.48495 0.19541 0.0
C39 C 0.07849 0.7628 0.02373 0.0
C40 C 0.09398 0.77861 0.04539 0.0
C41 C 0.06546 0.75193 0.07456 0.0
C42 C 0.06793 0.75634 0.14825 0.0
C43 C 0.08512 0.77025 0.17008 0.0
C44 C 0.09794 0.78136 0.11922 0.0
C45 C 0.05131 0.74827 0.20097 0.0
C46 C 0.0418 0.72747 0.19332 0.0
C47 C 0.02444 0.72048 0.23788 0.0
C48 C 0.01651 0.7348 0.29222 0.0
C49 C 0.02668 0.75557 0.3026 0.0
C50 C 0.04377 0.76206 0.25606 0.0
C51 C 0.02039 0.77132 0.36076 0.0
C52 C 0.99965 0.78163 0.36196 0.0
C53 C 0.03691 0.7794 0.40644 0.0
C54 C 0.03337 0.79814 0.44852 0.0
C55 C 0.01318 0.80944 0.44636 0.0
C56 C 0.01521 0.69819 0.22327 0.0
C57 C 0.99393 0.6957 0.19526 0.0
C58 C 0.02972 0.68017 0.21976 0.0
C59 C 0.02394 0.66094 0.18326 0.0
C60 C 1.00328 0.65892 0.14974 0.0
C61 C 0.98797 0.67624 0.15927 0.0
C62 C 0.99605 0.80047 0.40456 0.0
H63 H 0.0753 0.76002 0.96727 0.0
H64 H 0.05243 0.74129 0.05555 0.0
H65 H 0.08791 0.77351 0.22648 0.0
H66 H 0.10967 0.79345 0.13805 0.0
H67 H 0.04774 0.71663 0.15133 0.0
H68 H 0.05074 0.77841 0.26163 0.0
H69 H 1.00313 0.72962 0.32699 0.0
H70 H 0.98673 0.77602 0.32653 0.0
H71 H 0.05309 0.77186 0.40656 0.0
H72 H 0.04679 0.80423 0.48105 0.0
H73 H 0.98248 0.70938 0.19641 0.0
H74 H 0.04633 0.68169 0.24022 0.0
H75 H 0.98029 0.80875 0.40148 0.0
H76 H 0.97169 0.67523 0.13613 0.0
H77 H 0.03644 0.64838 0.17709 0.0
C78 C 0.73111 1.00571 1.00406 0.0
C79 C 0.74186 0.02215 0.96358 0.0
C80 C 0.73874 0.99985 0.07199 0.0
C81 C 0.75738 0.01015 0.10044 0.0
C82 C 0.76899 0.02555 0.05823 0.0
C83 C 0.76122 0.03159 0.99045 0.0
C84 C 0.76421 1.00569 0.1752 0.0
C85 C 0.78627 1.00169 0.19013 0.0
C86 C 0.79362 0.99906 0.26072 0.0
C87 C 0.77833 1.0004 0.31833 0.0
C88 C 0.7557 1.00442 0.3039 0.0
C89 C 0.74899 1.00668 0.23182 0.0
C90 C 0.73855 1.0071 0.36154 0.0
C91 C 0.73567 0.99146 0.41671 0.0
C92 C 0.72303 0.02424 0.3559 0.0
C93 C 0.70452 0.02506 0.4008 0.0
C94 C 0.70088 0.00889 0.45396 0.0
C95 C 0.81776 0.99637 0.26866 0.0
C96 C 0.82726 0.9763 0.24717 0.0
C97 C 0.8309 0.01541 0.2672 0.0
C98 C 0.8521 0.0149 0.23705 0.0
C99 C 0.86065 0.9953 0.20774 0.0
C100 C 0.84849 0.97575 0.2172 0.0
C101 C 0.71706 0.99233 0.46229 0.0
H102 H 0.71589 0.99842 0.98549 0.0
H103 H 0.72969 0.98775 0.10318 0.0
H104 H 0.78343 0.03376 0.07914 0.0
H105 H 0.7697 0.04439 0.96061 0.0
H106 H 0.79802 1.00093 0.1461 0.0
H107 H 0.73183 0.00978 0.21961 0.0
H108 H 0.784 0.99887 0.3732 0.0
H109 H 0.74724 0.978 0.42254 0.0
H110 H 0.72477 0.03673 0.31455 0.0
H111 H 0.69255 0.03794 0.39128 0.0
H112 H 0.81733 0.96149 0.24572 0.0
H113 H 0.82385 0.03119 0.28169 0.0
H114 H 0.71519 0.97976 0.5032 0.0
H115 H 0.85443 0.96036 0.19517 0.0
H116 H 0.86114 0.0302 0.23193 0.0
C117 C 0.48919 0.7232 0.42429 0.0
C118 C 0.50797 0.71228 0.45059 0.0
C119 C 0.4911 0.74308 0.38606 0.0
C120 C 0.51183 0.75263 0.37292 0.0
C121 C 0.53047 0.74256 0.40327 0.0
C122 C 0.52856 0.72273 0.44222 0.0
C123 C 0.51441 0.76747 0.30956 0.0
C124 C 0.51548 0.79083 0.31275 0.0
C125 C 0.51668 0.80327 0.248 0.0
C126 C 0.51608 0.79229 0.18185 0.0
C127 C 0.51501 0.76943 0.17893 0.0
C128 C 0.51454 0.75716 0.24243 0.0
C129 C 0.51166 0.75812 0.11031 0.0
C130 C 0.4921 0.76166 0.07222 0.0
C131 C 0.52579 0.74098 0.09012 0.0
C132 C 0.51935 0.72616 0.0373 0.0
C133 C 0.49843 0.72798 1.00565 0.0
C134 C 0.51793 0.8277 0.24414 0.0
C135 C 0.49864 0.84034 0.24983 0.0
C136 C 0.53652 0.83727 0.21148 0.0
C137 C 0.5353 0.85811 0.17925 0.0
C138 C 0.51544 0.87013 0.17906 0.0
C139 C 0.49745 0.86138 0.21816 0.0
C140 C 0.48545 0.7466 0.02023 0.0
H141 H 0.47304 0.71584 0.43039 0.0
H142 H 0.47651 0.75007 0.36159 0.0
H143 H 0.54673 0.74907 0.39196 0.0
H144 H 0.54341 0.71478 0.46123 0.0
H145 H 0.5153 0.7991 0.36417 0.0
H146 H 0.51319 0.73935 0.23956 0.0
H147 H 0.51614 0.80165 0.13206 0.0
H148 H 0.48098 0.77482 0.08743 0.0
H149 H 0.54105 0.73817 0.11874 0.0
H150 H 0.52989 0.71221 0.02571 0.0
H151 H 0.48392 0.83322 0.27331 0.0
H152 H 0.55144 0.82769 0.20472 0.0
H153 H 0.46925 0.74841 0.99684 0.0
H154 H 0.48201 0.87023 0.22103 0.0
H155 H 0.54952 0.86386 0.14944 0.0
C156 C 0.24549 0.55781 0.40347 0.0
C157 C 0.2252 0.54939 0.4275 0.0
C158 C 0.25503 0.54991 0.33995 0.0
C159 C 0.24426 0.5337 0.29924 0.0
C160 C 0.22453 0.52468 0.32488 0.0
C161 C 0.21511 0.53242 0.38808 0.0
C162 C 0.25305 0.52655 0.22894 0.0
C163 C 0.2751 0.52062 0.22187 0.0
C164 C 0.28347 0.51293 0.15639 0.0
C165 C 0.26937 0.51138 0.09602 0.0
C166 C 0.247 0.51796 0.10213 0.0
C167 C 0.23918 0.52522 0.16921 0.0
C168 C 0.23099 0.51767 0.04107 0.0
C169 C 0.21726 0.53603 0.02987 0.0
C170 C 0.22666 0.49839 1.00191 0.0
C171 C 0.20824 0.49718 0.95614 0.0
C172 C 0.19366 0.51521 0.94848 0.0
C173 C 0.30711 0.50679 0.15616 0.0
C174 C 0.32293 0.52366 0.15389 0.0
C175 C 0.31324 0.48617 0.18409 0.0
C176 C 0.33407 0.4831 0.21495 0.0
C177 C 0.3492 0.50064 0.21903 0.0
C178 C 0.34377 0.52062 0.18468 0.0
C179 C 0.1989 0.53481 0.98489 0.0
H180 H 0.25361 0.57091 0.43248 0.0
H181 H 0.27033 0.55709 0.32117 0.0
H182 H 0.21607 0.51196 0.29505 0.0
H183 H 0.19922 0.52585 0.40371 0.0
H184 H 0.28581 0.52153 0.26832 0.0
H185 H 0.22205 0.52993 0.17511 0.0
H186 H 0.27576 0.50555 0.04515 0.0
H187 H 0.22011 0.55118 0.05902 0.0
H188 H 0.2368 0.4839 0.00958 0.0
H189 H 0.20515 0.4819 0.92816 0.0
H190 H 0.31842 0.53992 0.13476 0.0
H191 H 0.3012 0.47306 0.18826 0.0
H192 H 0.1882 0.54903 0.98189 0.0
H193 H 0.35484 0.53457 0.18708 0.0
H194 H 0.33777 0.46737 0.23973 0.0
C195 C 0.99679 0.26334 0.44766 0.0
C196 C 1.0056 0.24313 0.47008 0.0
C197 C 1.00184 0.27169 0.37975 0.0
C198 C 0.01593 0.26006 0.33302 0.0
C199 C 0.02612 0.24077 0.35775 0.0
C200 C 0.02103 0.23239 0.42569 0.0
C201 C 0.01802 0.26708 0.25692 0.0
C202 C 0.01887 0.28945 0.24041 0.0
C203 C 0.01573 0.29705 0.17024 0.0
C204 C 0.01345 0.28165 0.11366 0.0
C205 C 0.01385 0.2587 0.12902 0.0
C206 C 0.01605 0.25179 0.20097 0.0
C207 C 0.01053 0.2413 0.07314 0.0
C208 C 0.99442 0.22497 0.08418 0.0
C209 C 0.02523 0.23876 0.0152 0.0
C210 C 0.0245 0.21975 0.97185 0.0
C211 C 0.00895 0.20289 0.9851 0.0
C212 C 0.01165 0.3211 0.16385 0.0
C213 C 0.9915 0.32899 0.19059 0.0
C214 C 0.02957 0.33567 0.16085 0.0
C215 C 0.02792 0.35692 0.19026 0.0
C216 C 0.00853 0.36386 0.226 0.0
C217 C 0.99001 0.34985 0.22209 0.0
C218 C 0.99362 0.20613 0.04101 0.0
H219 H 0.98489 0.27195 0.48074 0.0
H220 H 0.99351 0.28653 0.36223 0.0
H221 H 0.03725 0.23163 0.32335 0.0
H222 H 0.02789 0.21659 0.44098 0.0
H223 H 0.02047 0.30131 0.28361 0.0
H224 H 0.01527 0.23437 0.2137 0.0
H225 H 0.01054 0.28737 0.05936 0.0
H226 H 0.98289 0.22636 0.12849 0.0
H227 H 0.03796 0.25092 1.00565 0.0
H228 H 0.03642 0.21808 0.92883 0.0
H229 H 0.97756 0.31793 0.1955 0.0
H230 H 0.04544 0.32994 0.14184 0.0
H231 H 0.98156 0.19359 0.05395 0.0
H232 H 0.97472 0.35392 0.2488 0.0
H233 H 0.04239 0.36728 0.1887 0.0
C234 C 0.25695 0.99246 0.43223 0.0
C235 C 0.27887 0.99905 0.44292 0.0
C236 C 0.2455 0.9994 0.37128 0.0
C237 C 0.25559 0.01344 0.32061 0.0
C238 C 0.27649 0.02198 0.33557 0.0
C239 C 0.28809 0.01471 0.39542 0.0
C240 C 0.24562 0.01684 0.2488 0.0
C241 C 0.22286 0.01862 0.24148 0.0
C242 C 0.21288 0.01803 0.17381 0.0
C243 C 0.22621 0.01684 0.11118 0.0
C244 C 0.24946 0.01572 0.11792 0.0
C245 C 0.25875 0.01571 0.18685 0.0
C246 C 0.265 0.01308 0.05609 0.0
C247 C 0.27917 0.99475 0.05504 0.0
C248 C 0.26947 0.03065 0.00899 0.0
C249 C 0.28843 0.03041 0.965 0.0
C250 C 0.30346 0.01263 0.96744 0.0
C251 C 0.18849 0.01612 0.17457 0.0
C252 C 0.17937 0.9965 0.20156 0.0
C253 C 0.17542 0.03518 0.17461 0.0
C254 C 0.15437 0.03501 0.20648 0.0
C255 C 0.14618 0.01592 0.24116 0.0
C256 C 0.15869 0.99641 0.23495 0.0
C257 C 0.29808 0.99453 0.01172 0.0
H258 H 0.24906 0.9809 0.46845 0.0
H259 H 0.22934 0.99251 0.36163 0.0
H260 H 0.28448 0.03327 0.29861 0.0
H261 H 0.30495 0.02019 0.40064 0.0
H262 H 0.2126 0.01951 0.28924 0.0
H263 H 0.27643 0.01386 0.19206 0.0
H264 H 0.21865 0.01595 0.05868 0.0
H265 H 0.27638 0.98111 0.09164 0.0
H266 H 0.2591 0.04516 0.00943 0.0
H267 H 0.29163 0.04451 0.93082 0.0
H268 H 0.18932 0.9817 0.20407 0.0
H269 H 0.18218 0.05065 0.15554 0.0
H270 H 0.30913 0.98063 0.01656 0.0
H271 H 0.15355 0.98132 0.26105 0.0
H272 H 0.14515 0.05025 0.20737 0.0
C273 C 0.49595 0.30046 0.96853 0.0
C274 C 0.51381 0.31474 0.95308 0.0
C275 C 0.49826 0.28262 0.01681 0.0
C276 C 0.51854 0.27839 0.05044 0.0
C277 C 0.53663 0.29168 0.03104 0.0
C278 C 0.53427 0.30963 0.9845 0.0
C279 C 0.52078 0.26237 0.11191 0.0
C280 C 0.51109 0.24105 0.11312 0.0
C281 C 0.51457 0.22687 0.1728 0.0
C282 C 0.52735 0.23411 0.23056 0.0
C283 C 0.53672 0.25504 0.23051 0.0
C284 C 0.5332 0.26905 0.17179 0.0
C285 C 0.54964 0.26273 0.29288 0.0
C286 C 0.54151 0.26004 0.36314 0.0
C287 C 0.56931 0.2744 0.28203 0.0
C288 C 0.57954 0.28495 0.33928 0.0
C289 C 0.57022 0.28411 0.40851 0.0
C290 C 0.50588 0.20407 0.17892 0.0
C291 C 0.486 0.20041 0.21599 0.0
C292 C 0.52076 0.18647 0.17194 0.0
C293 C 0.51683 0.16634 0.2068 0.0
C294 C 0.49787 0.1633 0.24933 0.0
C295 C 0.48194 0.18016 0.25041 0.0
C296 C 0.55173 0.27066 0.42055 0.0
H297 H 0.48 0.30323 0.94452 0.0
H298 H 0.48395 0.27276 0.0301 0.0
H299 H 0.55268 0.28876 0.0544 0.0
H300 H 0.54851 0.32001 0.97606 0.0
H301 H 0.50142 0.23542 0.06802 0.0
H302 H 0.53982 0.28562 0.17373 0.0
H303 H 0.53014 0.22321 0.27594 0.0
H304 H 0.52641 0.25102 0.37308 0.0
H305 H 0.57616 0.27633 0.22857 0.0
H306 H 0.59362 0.29536 0.32789 0.0
H307 H 0.47456 0.21388 0.22417 0.0
H308 H 0.53646 0.189 0.14538 0.0
H309 H 0.54427 0.26964 0.47339 0.0
H310 H 0.46722 0.17843 0.28297 0.0
H311 H 0.52932 0.15363 0.2042 0.0
La312 La 0.02203 0.99877 0.78136 0.0
La313 La 0.98834 0.01027 0.68163 0.0
C314 C 0.04572 0.98202 0.87803 0.0
C315 C 0.06154 0.96387 0.88116 0.0
C316 C 0.0752 0.96168 0.94109 0.0
C317 C 0.08911 0.94348 0.94741 0.0
C318 C 0.0894 0.92713 0.89402 0.0
C319 C 0.07658 0.93011 0.83198 0.0
C320 C 0.06281 0.9484 0.82549 0.0
C321 C 0.03837 0.01353 0.65733 0.0
C322 C 1.00266 0.96142 0.67584 0.0
C323 C 0.96431 0.03043 0.59376 0.0
C324 C 0.96234 0.0544 0.58211 0.0
C325 C 0.944 0.06587 0.60924 0.0
C326 C 0.94377 0.0889 0.60992 0.0
C327 C 0.96178 0.10077 0.58265 0.0
C328 C 0.97976 0.08929 0.55334 0.0
C329 C 0.98003 0.06638 0.55285 0.0
C330 C 0.97292 0.99465 0.8053 0.0
C331 C 0.00835 0.04731 0.78103 0.0
O332 O 0.05168 0.99882 0.83872 0.0
O333 O 0.02519 0.97646 0.86696 0.0
O334 O 0.04666 0.01709 0.71994 0.0
O335 O 0.02196 1.00102 0.6654 0.0
O336 O 0.01386 0.96608 0.73506 0.0
O337 O 0.99234 0.97714 0.64017 0.0
O338 O 0.95737 0.02346 0.65622 0.0
O339 O 0.98314 0.02141 0.57616 0.0
O340 O 0.96554 0.98947 0.74244 0.0
O341 O 0.98856 1.00813 0.79732 0.0
O342 O 1.00132 0.04262 0.71579 0.0
O343 O 0.01386 0.03108 0.82451 0.0
H344 H 0.07463 0.9737 0.98397 0.0
H345 H 0.09901 0.94175 0.99539 0.0
H346 H 0.07622 0.9177 0.79031 0.0
H347 H 0.05261 0.95007 0.77823 0.0
H348 H 0.93019 0.05702 0.63236 0.0
H349 H 0.92965 0.0974 0.63221 0.0
H350 H 0.99401 0.09803 0.53282 0.0
H351 H 0.99453 0.05815 0.53207 0.0
La352 La 0.50788 0.03061 0.76568 0.0
La353 La 0.4954 0.99915 0.64283 0.0
C354 C 0.52769 0.05019 0.86428 0.0
C355 C 0.55165 0.05276 0.87426 0.0
C356 C 0.5621 0.07239 0.85257 0.0
C357 C 0.58503 0.07355 0.84843 0.0
C358 C 0.59787 0.05522 0.86701 0.0
C359 C 0.58747 0.03595 0.89172 0.0
C360 C 0.56461 0.03472 0.89542 0.0
C361 C 0.49273 0.04926 0.64682 0.0
C362 C 0.54531 0.01165 0.65925 0.0
C363 C 0.47974 0.98431 0.52884 0.0
C364 C 0.46108 0.96951 0.51662 0.0
C365 C 0.45576 0.95297 0.56675 0.0
C366 C 0.43518 0.94272 0.5648 0.0
C367 C 0.41951 0.94915 0.51348 0.0
C368 C 0.42571 0.96451 0.46007 0.0
C369 C 0.44633 0.97451 0.46158 0.0
C370 C 0.50257 0.97647 0.76392 0.0
C371 C 0.45918 0.01468 0.75914 0.0
O372 O 0.51978 0.06022 0.8077 0.0
O373 O 0.51968 0.03022 0.87155 0.0
O374 O 0.48842 0.0559 0.71151 0.0
O375 O 0.50548 0.03285 0.65057 0.0
O376 O 0.54034 0.02054 0.72241 0.0
O377 O 0.5299 1.00432 0.61527 0.0
O378 O 0.49698 0.97569 0.56063 0.0
O379 O 0.47418 1.00351 0.55569 0.0
O380 O 0.49767 0.96759 0.70295 0.0
O381 O 0.50338 0.9968 0.75245 0.0
O382 O 0.46336 1.00779 0.69256 0.0
O383 O 0.47493 0.02198 0.80206 0.0
H384 H 0.5525 0.08655 0.83598 0.0
H385 H 0.59272 0.08867 0.83015 0.0
H386 H 0.59701 0.02151 0.90589 0.0
H387 H 0.55715 0.01932 0.91205 0.0
H388 H 0.46691 0.94891 0.61006 0.0
H389 H 0.43112 0.93074 0.60597 0.0
H390 H 0.41407 0.97027 0.42033 0.0
H391 H 0.45008 0.98739 0.42298 0.0
La392 La 0.48477 0.5157 0.73049 0.0
La393 La 0.51434 0.50292 0.6026 0.0
C394 C 0.46406 0.52324 0.84434 0.0
C395 C 0.44906 0.54149 0.86064 0.0
C396 C 0.43769 0.55185 0.80424 0.0
C397 C 0.43117 0.57375 0.81063 0.0
C398 C 0.43561 0.58527 0.87392 0.0
C399 C 0.44386 0.57392 0.9339 0.0
C400 C 0.45074 0.55208 0.9271 0.0
C401 C 0.46511 0.51414 0.60345 0.0
C402 C 0.50215 0.55335 0.63038 0.0
C403 C 0.52889 0.49008 0.48389 0.0
C404 C 0.54565 0.47321 0.46922 0.0
C405 C 0.56475 0.4718 0.51154 0.0
C406 C 0.57767 0.45279 0.5105 0.0
C407 C 0.57165 0.43486 0.46744 0.0
C408 C 0.55346 0.43705 0.42117 0.0
C409 C 0.54062 0.45608 0.422 0.0
C410 C 0.53904 0.51016 0.71889 0.0
C411 C 0.50249 0.46593 0.71543 0.0
O412 O 0.45729 0.50916 0.79586 0.0
O413 O 0.48449 0.52952 0.83329 0.0
O414 O 0.46025 0.52772 0.65425 0.0
O415 O 0.47981 0.5012 0.62608 0.0
O416 O 0.49588 0.54839 0.69688 0.0
O417 O 0.50692 0.53789 0.5824 0.0
O418 O 0.53571 0.5081 0.51529 0.0
O419 O 0.51077 0.48242 0.51305 0.0
O420 O 0.54657 0.50392 0.65718 0.0
O421 O 0.51855 0.51172 0.71168 0.0
O422 O 0.51072 0.47023 0.65087 0.0
O423 O 0.49319 0.48131 0.75596 0.0
H424 H 0.43597 0.54393 0.75265 0.0
H425 H 0.425 0.58233 0.76371 0.0
H426 H 0.44765 0.5827 0.98291 0.0
H427 H 0.45955 0.54439 0.97104 0.0
H428 H 0.56904 0.4848 0.54858 0.0
H429 H 0.59174 0.45172 0.54593 0.0
H430 H 0.54811 0.42346 0.38801 0.0
H431 H 0.52586 0.45675 0.38955 0.0
La432 La 0.98976 0.49736 0.74676 0.0
La433 La 1.00454 0.52671 0.61976 0.0
C434 C 0.9713 0.48189 0.85687 0.0
C435 C 0.95128 0.469 0.87015 0.0
C436 C 0.94341 0.45389 0.81924 0.0
C437 C 0.92378 0.44244 0.8319 0.0
C438 C 0.91166 0.44627 0.89495 0.0
C439 C 0.9197 0.46128 0.94584 0.0
C440 C 0.93938 0.47251 0.93357 0.0
C441 C 1.00237 0.47592 0.62935 0.0
C442 C 0.95354 0.51543 0.63532 0.0
C443 C 0.02073 0.54005 0.50407 0.0
C444 C 0.04005 0.5541 0.4913 0.0
C445 C 0.04371 0.57306 0.53283 0.0
C446 C 0.06436 0.58318 0.53292 0.0
C447 C 0.08175 0.57434 0.49222 0.0
C448 C 0.0775 0.55618 0.44733 0.0
C449 C 0.05682 0.54629 0.44657 0.0
C450 C 1.00113 0.55055 0.74009 0.0
C451 C 0.03947 0.51047 0.73469 0.0
O452 O 0.98719 0.47185 0.82232 0.0
O453 O 0.96814 0.50201 0.83354 0.0
O454 O 1.0045 0.46867 0.69452 0.0
O455 O 0.99196 0.4939 0.63175 0.0
O456 O 0.95792 0.50383 0.69432 0.0
O457 O 0.96925 0.52512 0.5968 0.0
O458 O 1.00362 0.54941 0.53467 0.0
O459 O 0.02544 0.52079 0.53247 0.0
O460 O 1.00757 0.5583 0.67877 0.0
O461 O 0.99736 0.53053 0.72983 0.0
O462 O 0.03578 0.51508 0.66603 0.0
O463 O 0.02304 0.50647 0.78001 0.0
H464 H 0.95227 0.45116 0.76945 0.0
H465 H 0.91779 0.43106 0.79177 0.0
H466 H 0.91069 0.46437 0.99513 0.0
H467 H 0.94519 0.48415 0.97322 0.0
H468 H 0.03103 0.5794 0.56819 0.0
H469 H 0.06694 0.59732 0.56716 0.0
H470 H 0.0905 0.54854 0.41621 0.0
H471 H 0.05442 0.53154 0.41487 0.0
C472 C 0.12099 0.03612 0.32806 0.0
C473 C 0.12634 0.01674 0.29036 0.0
C474 C 0.10447 0.03639 0.38145 0.0
C475 C 0.09339 0.01666 0.40021 0.0
C476 C 0.09796 0.99727 0.36074 0.0
C477 C 0.11393 0.99766 0.3056 0.0
C478 C 0.09968 0.05766 0.42026 0.0
C479 C 0.08694 0.97571 0.37959 0.0
C480 C 0.07495 0.01203 0.59578 0.0
C481 C 0.05203 0.01442 0.59096 0.0
C482 C 0.08839 0.01229 0.53414 0.0
C483 C 0.07886 0.01581 0.46566 0.0
C484 C 0.05571 0.0186 0.46055 0.0
C485 C 0.04252 0.01745 0.52315 0.0
C486 C 0.11285 0.00858 0.54242 0.0
C487 C 0.04491 0.02316 0.38919 0.0
H488 H 0.13032 0.05104 0.31856 0.0
H489 H 0.11709 0.98269 0.27594 0.0
H490 H 0.08165 0.0602 0.42563 0.0
H491 H 0.10662 0.0569 0.47523 0.0
H492 H 0.10691 0.07213 0.39212 0.0
H493 H 0.09116 0.96242 0.34105 0.0
H494 H 0.09213 0.97044 0.43411 0.0
H495 H 0.0688 0.9777 0.3809 0.0
H496 H 0.0824 0.00947 0.64796 0.0
H497 H 0.02484 0.0194 0.51924 0.0
H498 H 0.122 0.02342 0.52447 0.0
H499 H 0.11823 0.99468 0.50798 0.0
H500 H 0.11752 1.00489 0.59883 0.0
H501 H 0.05223 0.03814 0.36448 0.0
H502 H 0.02685 0.02559 0.39444 0.0
H503 H 0.04798 0.00932 0.35177 0.0
C504 C 0.47653 0.13212 0.30763 0.0
C505 C 0.49619 0.14406 0.29961 0.0
C506 C 0.47466 0.11498 0.35876 0.0
C507 C 0.49267 0.10998 0.40436 0.0
C508 C 0.51261 0.12185 0.39577 0.0
C509 C 0.51416 0.13853 0.34337 0.0
C510 C 0.45326 0.10248 0.36491 0.0
C511 C 0.53211 0.11751 0.44389 0.0
C512 C 0.4827 0.08538 0.59054 0.0
C513 C 0.49049 0.06375 0.58257 0.0
C514 C 0.48278 0.10034 0.53264 0.0
C515 C 0.4904 0.09347 0.46423 0.0
C516 C 0.49729 0.07131 0.45501 0.0
C517 C 0.49747 0.05679 0.5144 0.0
C518 C 0.47561 0.12381 0.54563 0.0
C519 C 0.50509 0.06311 0.38287 0.0
H520 H 0.46259 0.13622 0.27396 0.0
H521 H 0.52929 0.14789 0.33853 0.0
H522 H 0.45641 0.08448 0.3629 0.0
H523 H 0.44536 0.10601 0.41742 0.0
H524 H 0.44156 0.10692 0.32151 0.0
H525 H 0.54664 0.12768 0.42901 0.0
H526 H 0.52759 0.12113 0.50045 0.0
H527 H 0.53686 0.09989 0.44137 0.0
H528 H 0.47728 0.09093 0.64298 0.0
H529 H 0.50345 0.04009 0.50774 0.0
H530 H 0.46255 0.12857 0.50711 0.0
H531 H 0.48974 0.13509 0.53661 0.0
H532 H 0.46929 0.12634 0.60107 0.0
H533 H 0.49305 0.06755 0.34054 0.0
H534 H 0.50754 0.04497 0.38253 0.0
H535 H 0.52093 0.07113 0.36864 0.0
C536 C 0.38904 0.50924 0.24761 0.0
C537 C 0.36901 0.49919 0.26676 0.0
C538 C 0.40676 0.51027 0.29628 0.0
C539 C 0.40442 0.50123 0.36624 0.0
C540 C 0.38458 0.4903 0.38478 0.0
C541 C 0.36722 0.48939 0.33504 0.0
C542 C 0.42767 0.52186 0.27382 0.0
C543 C 0.38119 0.48057 0.45875 0.0
C544 C 0.45314 0.4928 0.49388 0.0
C545 C 0.45127 0.51131 0.53837 0.0
C546 C 0.43853 0.48959 0.43596 0.0
C547 C 0.42158 0.50518 0.42259 0.0
C548 C 0.42014 0.52419 0.46629 0.0
C549 C 0.43498 0.52702 0.52323 0.0
C550 C 0.4408 0.4692 0.39046 0.0
C551 C 0.40241 0.54127 0.45451 0.0
H552 H 0.39074 0.51668 0.1949 0.0
H553 H 0.35178 0.48191 0.35122 0.0
H554 H 0.42929 0.53749 0.30405 0.0
H555 H 0.44223 0.51157 0.28689 0.0
H556 H 0.42793 0.52572 0.21546 0.0
H557 H 0.36566 0.47098 0.46285 0.0
H558 H 0.39515 0.46963 0.47301 0.0
H559 H 0.38066 0.49399 0.49905 0.0
H560 H 0.46561 0.48055 0.50542 0.0
H561 H 0.43348 0.54143 0.55715 0.0
H562 H 0.44095 0.47367 0.33263 0.0
H563 H 0.42642 0.45827 0.39965 0.0
H564 H 0.45604 0.45984 0.40298 0.0
H565 H 0.40295 0.54737 0.3983 0.0
H566 H 0.40409 0.55556 0.4912 0.0
H567 H 0.38598 0.53372 0.46325 0.0
C568 C 0.98832 0.3945 0.29249 0.0
C569 C 0.00824 0.38399 0.27389 0.0
C570 C 0.98735 0.41069 0.34656 0.0
C571 C 1.00692 0.41763 0.38094 0.0
C572 C 0.02727 0.4085 0.35865 0.0
C573 C 0.02765 0.39157 0.307 0.0
C574 C 0.96517 0.41947 0.36965 0.0
C575 C 0.04869 0.41598 0.3915 0.0
C576 C 1.00404 0.47005 0.4952 0.0
C577 C 1.00388 0.46139 0.56516 0.0
C578 C 1.00566 0.45614 0.43475 0.0
C579 C 1.00592 0.43293 0.44421 0.0
C580 C 1.00516 0.42416 0.51485 0.0
C581 C 1.00465 0.43845 0.57419 0.0
C582 C 1.00736 0.4663 0.36086 0.0
C583 C 1.00456 0.39959 0.52792 0.0
H584 H 0.97319 0.38974 0.26636 0.0
H585 H 0.04326 0.38379 0.29514 0.0
H586 H 0.96203 0.41487 0.42653 0.0
H587 H 0.96494 0.4377 0.36653 0.0
H588 H 0.95153 0.41294 0.33633 0.0
H589 H 0.0632 0.41006 0.3606 0.0
H590 H 0.04932 0.43423 0.39426 0.0
H591 H 0.04994 0.40958 0.44719 0.0
H592 H 1.00313 0.4877 0.48763 0.0
H593 H 1.00426 0.43156 0.62797 0.0
H594 H 0.99262 0.46203 0.32887 0.0
H595 H 0.0219 0.45957 0.33208 0.0
H596 H 0.00882 0.48452 0.36294 0.0
H597 H 0.99073 0.39212 0.49775 0.0
H598 H 1.0026 0.39542 0.58573 0.0
H599 H 0.01998 0.39193 0.50803 0.0
C600 C 0.8823 0.01252 0.10677 0.0
C601 C 0.88029 0.99577 0.15869 0.0
C602 C 0.89898 0.01203 0.05416 0.0
C603 C 0.91429 0.99442 0.05313 0.0
C604 C 0.91293 0.97789 0.10699 0.0
C605 C 0.8959 0.97868 0.15872 0.0
C606 C 0.89958 0.02991 0.99758 0.0
C607 C 0.92904 0.95898 0.10861 0.0
C608 C 0.9391 0.98144 0.86951 0.0
C609 C 0.95927 0.99267 0.87161 0.0
C610 C 0.92468 0.98135 0.92884 0.0
C611 C 0.93058 0.9926 0.99254 0.0
C612 C 0.95136 1.0032 0.99603 0.0
C613 C 0.96542 1.00318 0.9355 0.0
C614 C 0.90271 0.9699 0.92224 0.0
C615 C 0.95845 0.0152 0.06292 0.0
H616 H 0.87015 0.02558 0.10507 0.0
H617 H 0.89462 0.96572 0.1987 0.0
H618 H 0.91621 0.03739 0.9947 0.0
H619 H 0.89607 0.02268 0.94416 0.0
H620 H 0.88737 0.04314 0.0082 0.0
H621 H 0.92709 0.94862 0.15751 0.0
H622 H 0.9266 0.94845 0.06072 0.0
H623 H 0.94618 0.96527 0.10635 0.0
H624 H 0.93423 0.97322 0.82047 0.0
H625 H 0.98101 0.01185 0.93764 0.0
H626 H 0.88924 0.98219 0.9263 0.0
H627 H 0.90045 0.95796 0.96688 0.0
H628 H 0.90103 0.961 0.87051 0.0
H629 H 0.94769 0.02972 0.07154 0.0
H630 H 0.97579 0.02091 0.0595 0.0
H631 H 0.95662 1.00435 0.11064 0.0
C632 C 0.53096 0.90399 0.11641 0.0
C633 C 0.51295 0.89009 0.13137 0.0
C634 C 0.52986 0.92042 0.06279 0.0
C635 C 0.51012 0.9235 0.02367 0.0
C636 C 0.49143 0.91064 0.04189 0.0
C637 C 0.49311 0.89405 0.09469 0.0
C638 C 0.55025 0.93358 0.04512 0.0
C639 C 0.46991 0.91352 1.00264 0.0
C640 C 0.50255 0.97354 0.89934 0.0
C641 C 0.50637 0.96413 0.83176 0.0
C642 C 0.50396 0.96069 0.96266 0.0
C643 C 0.50972 0.93805 0.95822 0.0
C644 C 0.51435 0.92883 0.88999 0.0
C645 C 0.51234 0.94187 0.82788 0.0
C646 C 0.49844 0.97111 0.03391 0.0
C647 C 0.52098 0.90497 0.88224 0.0
H648 H 0.54626 0.90164 0.14516 0.0
H649 H 0.47907 0.88345 0.10436 0.0
H650 H 0.55653 0.92868 0.99144 0.0
H651 H 0.54637 0.95142 0.04249 0.0
H652 H 0.56355 0.93097 0.08508 0.0
H653 H 0.45619 0.90458 0.02947 0.0
H654 H 0.46552 0.93123 0.9988 0.0
H655 H 0.4716 0.90719 0.94707 0.0
H656 H 0.4976 0.99066 0.90249 0.0
H657 H 0.51533 0.93452 0.77573 0.0
H658 H 0.51175 0.96796 0.07324 0.0
H659 H 0.48319 0.96357 0.05589 0.0
H660 H 0.49589 0.98918 0.02915 0.0
H661 H 0.53527 0.90128 0.91726 0.0
H662 H 0.52542 0.9007 0.82604 0.0
H663 H 0.50724 0.89416 0.89973 0.0
C664 C 0.61763 0.49253 0.05521 0.0
C665 C 0.62919 0.5115 0.07626 0.0
C666 C 0.60086 0.49348 1.00334 0.0
C667 C 0.59539 0.51389 0.97093 0.0
C668 C 0.60628 0.53326 0.99404 0.0
C669 C 0.62303 0.53184 0.04615 0.0
C670 C 0.58986 0.47236 0.98031 0.0
C671 C 0.60092 0.55539 0.96136 0.0
C672 C 0.57567 0.51043 0.77755 0.0
C673 C 0.55274 0.51243 0.78446 0.0
C674 C 0.58958 0.51135 0.83746 0.0
C675 C 0.58047 0.5144 0.90683 0.0
C676 C 0.5573 0.51686 0.91426 0.0
C677 C 0.54368 0.51581 0.8529 0.0
C678 C 0.61409 0.50856 0.82646 0.0
C679 C 0.54691 0.52019 0.9871 0.0
H680 H 0.62236 0.47664 0.07684 0.0
H681 H 0.63156 0.54667 0.06248 0.0
H682 H 0.57171 0.47433 0.98009 0.0
H683 H 0.59503 0.46828 0.92468 0.0
H684 H 0.59416 0.45828 0.01587 0.0
H685 H 0.60885 0.56915 0.99075 0.0
H686 H 0.60668 0.55583 0.90474 0.0
H687 H 0.58286 0.55809 0.96093 0.0
H688 H 0.58284 0.50785 0.72483 0.0
H689 H 0.526 0.51726 0.85864 0.0
H690 H 0.61986 0.49364 0.85536 0.0
H691 H 0.62303 0.52286 0.84908 0.0
H692 H 0.61861 0.50696 0.76884 0.0
H693 H 0.54959 0.50534 0.02082 0.0
H694 H 0.52893 0.52333 0.9835 0.0
H695 H 0.55481 0.53424 0.0149 0.0
C696 C 0.00899 0.61936 0.10974 0.0
C697 C 0.99892 0.64003 0.09932 0.0
C698 C 1.0082 0.60283 0.05681 0.0
C699 C 0.99648 0.60661 0.9923 0.0
C700 C 0.9849 0.6267 0.98367 0.0
C701 C 0.98646 0.64319 0.03652 0.0
C702 C 0.02104 0.58182 0.06822 0.0
C703 C 0.97175 0.63132 0.91663 0.0
C704 C 0.01559 0.5806 0.81683 0.0
C705 C 1.00079 0.56311 0.80831 0.0
C706 C 0.01484 0.59422 0.87764 0.0
C707 C 0.99838 0.5908 0.93067 0.0
C708 C 0.98351 0.57292 0.92281 0.0
C709 C 0.98508 0.55909 0.86207 0.0
C710 C 0.03147 0.61259 0.88432 0.0
C711 C 0.96537 0.56897 0.97689 0.0
H712 H 0.01814 0.61624 0.15853 0.0
H713 H 0.97873 0.65897 0.02656 0.0
H714 H 0.01057 0.56725 0.05733 0.0
H715 H 0.03507 0.58128 0.02989 0.0
H716 H 0.02761 0.58046 0.12366 0.0
H717 H 0.96121 0.64617 0.9223 0.0
H718 H 0.98312 0.63394 0.87062 0.0
H719 H 0.96113 0.61703 0.90344 0.0
H720 H 0.02782 0.5837 0.77544 0.0
H721 H 0.9734 0.5458 0.85506 0.0
H722 H 0.03978 0.61166 0.93723 0.0
H723 H 0.02299 0.62875 0.88135 0.0
H724 H 0.04421 0.612 0.84138 0.0
H725 H 0.97217 0.56825 0.03205 0.0
H726 H 0.95625 0.55346 0.96624 0.0
H727 H 0.95357 0.58291 0.97524 0.0
C728 C 0.00848 0.21735 0.57433 0.0
C729 C 0.99547 0.23085 0.53052 0.0
C730 C 0.99924 0.19897 0.60871 0.0
C731 C 0.97671 0.19412 0.59759 0.0
C732 C 0.96289 0.21018 0.56624 0.0
C733 C 0.97249 0.22846 0.53252 0.0
C734 C 0.01415 0.18305 0.64732 0.0
C735 C 0.93856 0.2062 0.55679 0.0
C736 C 0.96991 0.1367 0.52496 0.0
C737 C 0.96238 0.12509 0.58514 0.0
C738 C 0.97392 0.15928 0.52826 0.0
C739 C 0.97002 0.17069 0.59348 0.0
C740 C 0.96096 0.15939 0.65322 0.0
C741 C 0.95731 0.13657 0.64844 0.0
C742 C 0.98319 0.17066 0.46232 0.0
C743 C 0.95608 0.17104 0.72297 0.0
H744 H 0.02616 0.21976 0.57525 0.0
H745 H 0.96219 0.23912 0.50006 0.0
H746 H 1.00679 0.17846 0.69983 0.0
H747 H 0.01601 0.16779 0.61515 0.0
H748 H 0.03076 0.1901 0.65675 0.0
H749 H 0.92945 0.22199 0.55145 0.0
H750 H 0.93591 0.19654 0.50705 0.0
H751 H 0.93162 0.1967 0.60252 0.0
H752 H 0.97328 0.1279 0.47552 0.0
H753 H 0.95151 0.12757 0.69521 0.0
H754 H 0.99971 0.17749 0.4743 0.0
H755 H 0.9724 0.18455 0.44623 0.0
H756 H 0.98482 0.15935 0.41581 0.0
H757 H 0.97138 0.17223 0.75497 0.0
H758 H 0.94368 0.16191 0.7554 0.0
H759 H 0.95002 0.18804 0.7136 0.0
C760 C 0.29135 0.96416 0.50337 0.0
C761 C 0.29345 0.98708 0.494 0.0
C762 C 0.30906 0.95152 0.52861 0.0
C763 C 0.32948 0.96195 0.54086 0.0
C764 C 0.33066 0.98528 0.54125 0.0
C765 C 0.31225 0.99755 0.52074 0.0
C766 C 0.3064 0.92688 0.53421 0.0
C767 C 0.35213 0.99736 0.55204 0.0
C768 C 0.38601 0.94332 0.59051 0.0
C769 C 0.39589 0.94326 0.52201 0.0
C770 C 0.36315 0.94575 0.59801 0.0
C771 C 0.35032 0.94931 0.53596 0.0
C772 C 0.35971 0.94582 0.46716 0.0
C773 C 0.38238 0.94219 0.46129 0.0
C774 C 0.35314 0.94721 0.6721 0.0
C775 C 0.34648 0.94873 0.39921 0.0
H776 H 0.27676 0.95567 0.48501 0.0
H777 H 0.31355 0.01534 0.51789 0.0
H778 H 0.30708 0.91955 0.47975 0.0
H779 H 0.31936 0.91919 0.56784 0.0
H780 H 0.29002 0.92278 0.55741 0.0
H781 H 0.34952 0.01515 0.56301 0.0
H782 H 0.36167 0.99016 0.59677 0.0
H783 H 0.3623 0.99587 0.50259 0.0
H784 H 0.39612 0.94361 0.63831 0.0
H785 H 0.38981 0.94087 0.40845 0.0
H786 H 0.33668 0.93928 0.67327 0.0
H787 H 0.3509 0.96474 0.68704 0.0
H788 H 0.36382 0.93927 0.713 0.0
H789 H 0.33176 0.93798 0.4006 0.0
H790 H 0.35618 0.94476 0.35022 0.0
H791 H 0.3407 0.96604 0.39486 0.0
C792 C 0.59855 0.30769 0.46854 0.0
C793 C 0.57649 0.30123 0.46115 0.0
C794 C 0.60379 0.32887 0.49315 0.0
C795 C 0.58654 0.3438 0.50827 0.0
C796 C 0.5646 0.336 0.51291 0.0
C797 C 0.55986 0.31466 0.48961 0.0
C798 C 0.62754 0.33603 0.49432 0.0
C799 C 0.54569 0.35113 0.53175 0.0
C800 C 0.58626 0.40469 0.54627 0.0
C801 C 0.58211 0.41297 0.47702 0.0
C802 C 0.59059 0.38222 0.55726 0.0
C803 C 0.59001 0.36778 0.49791 0.0
C804 C 0.58825 0.37648 0.42733 0.0
C805 C 0.58469 0.39905 0.41785 0.0
C806 C 0.59387 0.37393 0.63293 0.0
C807 C 0.58777 0.36176 0.36196 0.0
H808 H 0.61154 0.29702 0.4489 0.0
H809 H 0.54278 0.30969 0.48518 0.0
H810 H 0.63213 0.34297 0.44116 0.0
H811 H 0.6303 0.34891 0.5355 0.0
H812 H 0.63858 0.32183 0.5053 0.0
H813 H 0.52999 0.34201 0.53931 0.0
H814 H 0.54927 0.36027 0.58177 0.0
H815 H 0.54338 0.36341 0.48809 0.0
H816 H 0.58455 0.41533 0.59257 0.0
H817 H 0.58228 0.40556 0.36415 0.0
H818 H 0.60269 0.35793 0.63428 0.0
H819 H 0.57762 0.3718 0.65938 0.0
H820 H 0.60326 0.38613 0.66492 0.0
H821 H 0.60263 0.3512 0.3603 0.0
H822 H 0.58698 0.3713 0.31099 0.0
H823 H 0.57319 0.35076 0.36466 0.0
C824 C 0.19839 0.54726 0.52859 0.0
C825 C 0.21246 0.56013 0.48586 0.0
C826 C 0.17867 0.5561 0.55479 0.0
C827 C 0.17377 0.5785 0.54031 0.0
C828 C 0.19063 0.59254 0.51481 0.0
C829 C 0.20977 0.5831 0.48571 0.0
C830 C 0.16165 0.54058 0.58576 0.0
C831 C 0.18702 0.617 0.5079 0.0
C832 C 0.11954 0.58093 0.44428 0.0
C833 C 0.10479 0.58197 0.50206 0.0
C834 C 0.14225 0.58137 0.45552 0.0
C835 C 0.15045 0.58434 0.52619 0.0
C836 C 0.13564 0.58877 0.58311 0.0
C837 C 0.11288 0.58713 0.57068 0.0
C838 C 0.15723 0.57652 0.39236 0.0
C839 C 0.14375 0.59461 0.65721 0.0
H840 H 0.20118 0.52966 0.5325 0.0
H841 H 0.22105 0.59345 0.45555 0.0
H842 H 0.15371 0.54783 0.63382 0.0
H843 H 0.14861 0.53759 0.54532 0.0
H844 H 0.16892 0.52445 0.60113 0.0
H845 H 0.20288 0.62602 0.51143 0.0
H846 H 0.17961 0.62078 0.45491 0.0
H847 H 0.17567 0.62305 0.55036 0.0
H848 H 0.11333 0.57808 0.39059 0.0
H849 H 0.10162 0.58854 0.61568 0.0
H850 H 0.16715 0.56153 0.40328 0.0
H851 H 0.16877 0.59039 0.38338 0.0
H852 H 0.14797 0.57384 0.34179 0.0
H853 H 0.15777 0.5841 0.67388 0.0
H854 H 0.13049 0.59332 0.69827 0.0
H855 H 0.14977 0.61186 0.65634 0.0
C856 C 0.0873 0.80501 0.94549 0.0
C857 C 0.10221 0.79541 0.99373 0.0
C858 C 0.09162 0.82555 0.91435 0.0
C859 C 0.11134 0.83668 0.93191 0.0
C860 C 0.12791 0.82553 0.97087 0.0
C861 C 0.12309 0.80499 1.00205 0.0
C862 C 0.07367 0.8366 0.87128 0.0
C863 C 0.1497 0.83632 0.98659 0.0
C864 C 0.11095 0.8941 0.85274 0.0
C865 C 0.10011 0.9056 0.90777 0.0
C866 C 0.11699 0.87193 0.86193 0.0
C867 C 0.11155 0.86106 0.92696 0.0
C868 C 0.10232 0.87318 0.98464 0.0
C869 C 0.09681 0.8953 0.97433 0.0
C870 C 0.12767 0.85995 0.80014 0.0
C871 C 0.09624 0.86233 0.05523 0.0
H872 H 0.07117 0.79777 0.9381 0.0
H873 H 0.13499 0.79729 0.03738 0.0
H874 H 0.06581 0.84964 0.90425 0.0
H875 H 0.08061 0.84455 0.82256 0.0
H876 H 0.06072 0.82478 0.85455 0.0
H877 H 0.16259 0.82387 0.99865 0.0
H878 H 0.15522 0.84666 0.94066 0.0
H879 H 0.14793 0.84716 0.03414 0.0
H880 H 0.1139 0.90214 0.80152 0.0
H881 H 0.08829 0.904 0.01691 0.0
H882 H 0.11472 0.85366 0.76372 0.0
H883 H 0.13772 0.84578 0.81872 0.0
H884 H 0.13831 0.87127 0.7684 0.0
H885 H 0.08286 0.85019 0.04645 0.0
H886 H 0.09052 0.87442 0.09591 0.0
H887 H 0.11055 0.85331 0.07754 0.0
C888 C 0.71837 0.01889 0.85469 0.0
C889 C 0.7301 0.03226 0.90234 0.0
C890 C 0.6993 0.02687 0.82147 0.0
C891 C 0.69202 0.04843 0.83773 0.0
C892 C 0.70653 0.06323 0.87194 0.0
C893 C 0.72557 0.0549 0.90439 0.0
C894 C 0.68504 0.01112 0.77987 0.0
C895 C 0.69997 0.08675 0.88662 0.0
C896 C 0.63244 0.06325 0.79751 0.0
C897 C 0.62209 0.05583 0.86064 0.0
C898 C 0.6554 0.06159 0.78915 0.0
C899 C 0.66802 0.05224 0.84519 0.0
C900 C 0.65759 0.04558 0.9101 0.0
C901 C 0.63481 0.04754 0.91688 0.0
C902 C 0.66586 0.06896 0.71949 0.0
C903 C 0.67031 0.03571 0.97212 0.0
H904 H 0.72246 1.00154 0.85071 0.0
H905 H 0.73493 0.06552 0.93963 0.0
H906 H 0.6708 1.00601 0.81356 0.0
H907 H 0.67852 0.0193 0.73106 0.0
H908 H 0.69424 0.99612 0.76359 0.0
H909 H 0.71468 0.09736 0.894 0.0
H910 H 0.6898 0.09355 0.84243 0.0
H911 H 0.69005 0.08733 0.9368 0.0
H912 H 0.62253 0.06951 0.75363 0.0
H913 H 0.6268 0.0422 0.9661 0.0
H914 H 0.66847 0.05443 0.68456 0.0
H915 H 0.68216 0.07666 0.72856 0.0
H916 H 0.6552 0.08081 0.69024 0.0
H917 H 0.67839 0.02021 0.95492 0.0
H918 H 0.65962 0.03192 0.01909 0.0
H919 H 0.68335 0.04723 0.98989 0.0
C920 C 0.49071 0.68795 1.00333 0.0
C921 C 0.48845 0.70863 0.9705 0.0
C922 C 0.47952 0.6696 0.97742 0.0
C923 C 0.46558 0.67196 0.91721 0.0
C924 C 0.46337 0.69266 0.88291 0.0
C925 C 0.47485 0.71088 0.91019 0.0
C926 C 0.48251 0.6477 0.01518 0.0
C927 C 0.44869 0.69558 0.81839 0.0
C928 C 0.45747 0.61673 0.83239 0.0
C929 C 0.439 0.60914 0.87021 0.0
C930 C 0.46536 0.63809 0.84245 0.0
C931 C 0.45406 0.65226 0.89004 0.0
C932 C 0.43415 0.64531 0.92301 0.0
C933 C 0.42703 0.62352 0.9138 0.0
C934 C 0.48712 0.64455 0.80885 0.0
C935 C 0.42161 0.66012 0.97361 0.0
H936 H 0.50067 0.68622 0.0512 0.0
H937 H 0.47302 0.72688 0.88496 0.0
H938 H 0.46646 0.64181 0.03646 0.0
H939 H 0.48859 0.63515 0.97672 0.0
H940 H 0.49431 0.64868 0.06051 0.0
H941 H 0.4488 0.71278 0.79785 0.0
H942 H 0.45405 0.68443 0.7746 0.0
H943 H 0.43153 0.69099 0.83264 0.0
H944 H 0.4669 0.60528 0.79989 0.0
H945 H 0.41289 0.61741 0.94346 0.0
H946 H 0.49953 0.64739 0.85142 0.0
H947 H 0.48534 0.6602 0.77852 0.0
H948 H 0.49362 0.63166 0.77228 0.0
H949 H 0.43029 0.66079 0.02591 0.0
H950 H 0.4046 0.65404 0.98336 0.0
H951 H 0.42078 0.67716 0.95207 0.0
C952 C 0.81022 0.40332 0.09592 0.0
C953 C 0.79039 0.4039 0.05733 0.0
C954 C 0.83056 0.40366 0.06034 0.0
C955 C 0.83105 0.40491 0.98451 0.0
C956 C 0.81137 0.40195 0.94535 0.0
C957 C 0.79119 0.4013 0.98237 0.0
C958 C 0.85127 0.40593 0.10428 0.0
C959 C 0.81131 0.4023 0.86436 0.0
C960 C 0.87201 0.44811 0.9265 0.0
C961 C 0.89027 0.43533 0.90758 0.0
C962 C 0.85217 0.43824 0.9471 0.0
C963 C 0.85061 0.41495 0.94926 0.0
C964 C 0.86859 0.40194 0.92585 0.0
C965 C 0.88831 0.41234 0.9051 0.0
C966 C 0.8333 0.45284 0.97046 0.0
C967 C 0.86759 0.37711 0.92673 0.0
H968 H 0.8101 0.40509 0.15377 0.0
H969 H 0.776 0.40077 0.95205 0.0
H970 H 0.86488 0.39613 0.08063 0.0
H971 H 0.85648 0.42346 0.10456 0.0
H972 H 0.8487 0.40055 0.16079 0.0
H973 H 0.79621 0.39451 0.84254 0.0
H974 H 0.81185 0.41964 0.84538 0.0
H975 H 0.82597 0.39372 0.84233 0.0
H976 H 0.87347 0.46591 0.92699 0.0
H977 H 0.90248 0.40247 0.8902 0.0
H978 H 0.83018 0.45055 0.02878 0.0
H979 H 0.81803 0.44827 0.94163 0.0
H980 H 0.83669 0.47057 0.96037 0.0
H981 H 0.87191 0.37107 0.98118 0.0
H982 H 0.87951 0.36989 0.88798 0.0
H983 H 0.85084 0.37103 0.91395 0.0
C984 C 0.02936 0.17117 0.92632 0.0
C985 C 0.00933 0.18143 0.94446 0.0
C986 C 0.02993 0.15 0.89509 0.0
C987 C 0.01002 0.13854 0.88168 0.0
C988 C 0.98975 0.14912 0.89727 0.0
C989 C 0.98965 0.17032 0.92806 0.0
C990 C 0.05192 0.13956 0.87875 0.0
C991 C 0.9681 0.13771 0.88365 0.0
C992 C 0.00864 0.08826 0.75717 0.0
C993 C 0.00924 0.07065 0.80625 0.0
C994 C 0.00939 0.11033 0.78062 0.0
C995 C 0.0103 0.1151 0.85514 0.0
C996 C 0.01087 0.09734 0.90483 0.0
C997 C 0.01053 0.07544 0.87987 0.0
C998 C 0.00943 0.12854 0.72548 0.0
C999 C 0.0116 0.10148 0.9847 0.0
H1000 H 0.04471 0.17932 0.93906 0.0
H1001 H 0.97402 0.17811 0.9402 0.0
H1002 H 0.05439 0.12501 0.914 0.0
H1003 H 0.05236 0.13366 0.82244 0.0
H1004 H 0.06582 0.15116 0.88695 0.0
H1005 H 0.95379 0.14881 0.89224 0.0
H1006 H 0.96754 0.13135 0.82789 0.0
H1007 H 0.96645 0.12335 0.9203 0.0
H1008 H 1.00782 0.0848 0.70016 0.0
H1009 H 0.01089 0.06201 0.91837 0.0
H1010 H 0.02559 0.13704 0.72601 0.0
H1011 H 0.99674 0.14094 0.73912 0.0
H1012 H 1.00636 0.12238 0.6703 0.0
H1013 H 0.02626 0.11153 0.99813 0.0
H1014 H 0.01219 0.08595 0.01638 0.0
H1015 H 0.99686 0.11098 1.00146 0.0
C1016 C 0.33534 0.99405 0.9028 0.0
C1017 C 0.32535 0.01342 0.9287 0.0
C1018 C 0.35675 0.99419 0.87314 0.0
C1019 C 0.36864 0.01422 0.86789 0.0
C1020 C 0.35842 0.03395 0.89128 0.0
C1021 C 0.33709 0.0333 0.9217 0.0
C1022 C 0.36694 0.97267 0.84983 0.0
C1023 C 0.37023 0.05577 0.88576 0.0
C1024 C 0.4317 0.01249 0.8605 0.0
C1025 C 0.43602 0.01438 0.78656 0.0
C1026 C 0.40996 0.01219 0.88745 0.0
C1027 C 0.39194 0.01442 0.83973 0.0
C1028 C 0.39624 0.0166 0.76509 0.0
C1029 C 0.41813 0.01623 0.73935 0.0
C1030 C 0.40628 0.00933 0.96716 0.0
C1031 C 0.37767 0.01958 0.71244 0.0
H1032 H 0.32651 0.97859 0.90628 0.0
H1033 H 0.32995 0.04839 0.94213 0.0
H1034 H 0.37485 0.97437 0.79633 0.0
H1035 H 0.38 0.96795 0.88846 0.0
H1036 H 0.35466 0.95914 0.84758 0.0
H1037 H 0.35953 0.06982 0.90124 0.0
H1038 H 0.38486 0.05565 0.92126 0.0
H1039 H 0.37622 0.05847 0.83004 0.0
H1040 H 0.44536 0.01087 0.89743 0.0
H1041 H 0.42126 0.01786 0.68222 0.0
H1042 H 0.39592 0.99459 0.97729 0.0
H1043 H 0.39728 0.02376 0.98891 0.0
H1044 H 0.42196 1.00744 0.99707 0.0
H1045 H 0.36591 1.00567 0.71719 0.0
H1046 H 0.38365 0.02068 0.6561 0.0
H1047 H 0.36843 0.03485 0.72524 0.0
C1048 C 0.49109 0.34695 0.90554 0.0
C1049 C 0.51121 0.33543 0.90805 0.0
C1050 C 0.48909 0.36726 0.86891 0.0
C1051 C 0.50778 0.37697 0.83568 0.0
C1052 C 0.52797 0.3653 0.83632 0.0
C1053 C 0.5293 0.34462 0.87082 0.0
C1054 C 0.46699 0.37863 0.86736 0.0
C1055 C 0.54854 0.37509 0.80336 0.0
C1056 C 0.50204 0.42461 0.70076 0.0
C1057 C 0.50417 0.44313 0.74515 0.0
C1058 C 0.50276 0.40303 0.72939 0.0
C1059 C 0.50655 0.3998 0.80392 0.0
C1060 C 0.50933 0.41851 0.84846 0.0
C1061 C 0.50769 0.43984 0.81887 0.0
C1062 C 0.49908 0.38371 0.68006 0.0
C1063 C 0.5143 0.41602 0.92747 0.0
H1064 H 0.4769 0.34052 0.93402 0.0
H1065 H 0.54482 0.33588 0.86929 0.0
H1066 H 0.46752 0.39362 0.90119 0.0
H1067 H 0.46301 0.38395 0.81181 0.0
H1068 H 0.45354 0.36783 0.88749 0.0
H1069 H 0.56262 0.36341 0.80399 0.0
H1070 H 0.54549 0.38024 0.74711 0.0
H1071 H 0.55327 0.39007 0.83362 0.0
H1072 H 0.4992 0.42701 0.64381 0.0
H1073 H 0.50962 0.45405 0.85342 0.0
H1074 H 0.48517 0.37357 0.70035 0.0
H1075 H 0.51387 0.373 0.67915 0.0
H1076 H 0.49542 0.38897 0.62416 0.0
H1077 H 0.50037 0.40772 0.95511 0.0
H1078 H 0.51726 0.43212 0.95393 0.0
H1079 H 0.52907 0.40549 0.93485 0.0
C1080 C 0.16021 0.49374 0.90657 0.0
C1081 C 0.1724 0.51345 0.90708 0.0
C1082 C 0.13926 0.49255 0.87414 0.0
C1083 C 0.12985 0.51159 0.84239 0.0
C1084 C 0.14229 0.53133 0.84059 0.0
C1085 C 0.16338 0.53195 0.872 0.0
C1086 C 0.12694 0.47097 0.87554 0.0
C1087 C 0.13305 0.55207 0.80735 0.0
C1088 C 0.08046 0.50686 0.71541 0.0
C1089 C 0.06259 0.51054 0.76196 0.0
C1090 C 0.10235 0.5069 0.74071 0.0
C1091 C 0.10664 0.51118 0.81423 0.0
C1092 C 0.08863 0.51526 0.86115 0.0
C1093 C 0.06691 0.51461 0.83474 0.0
C1094 C 0.12083 0.50185 0.68892 0.0
C1095 C 0.09232 0.5206 0.93932 0.0
H1096 H 0.16664 0.47933 0.93371 0.0
H1097 H 0.17267 0.54715 0.86982 0.0
H1098 H 0.11213 0.47249 0.91018 0.0
H1099 H 0.12122 0.46675 0.82074 0.0
H1100 H 0.13721 0.45721 0.89622 0.0
H1101 H 0.14495 0.56595 0.80854 0.0
H1102 H 0.1283 0.54904 0.75077 0.0
H1103 H 0.11792 0.55708 0.83666 0.0
H1104 H 0.07733 0.50356 0.65918 0.0
H1105 H 0.05328 0.51775 0.87104 0.0
H1106 H 0.12777 0.4854 0.70179 0.0
H1107 H 0.13436 0.51398 0.69429 0.0
H1108 H 0.1152 0.50179 0.63221 0.0
H1109 H 0.10074 0.50665 0.96632 0.0
H1110 H 0.07669 0.52404 0.96834 0.0
H1111 H 0.10322 0.53519 0.94393 0.0
C1112 C 0.99184 0.83663 0.52307 0.0
C1113 C 0.01081 0.83126 0.48342 0.0
C1114 C 0.98978 0.85719 0.55789 0.0
C1115 C 1.00691 0.87302 0.55211 0.0
C1116 C 0.026 0.8677 0.51174 0.0
C1117 C 0.02774 0.84699 0.47839 0.0
C1118 C 0.96925 0.86199 0.60092 0.0
C1119 C 0.04454 0.88407 0.50278 0.0
C1120 C 0.99414 0.93422 0.57784 0.0
C1121 C 1.00285 0.9385 0.64624 0.0
C1122 C 0.99505 0.91303 0.5473 0.0
C1123 C 1.00472 0.89539 0.58608 0.0
C1124 C 0.01316 0.89948 0.65577 0.0
C1125 C 0.01223 0.92093 0.68478 0.0
C1126 C 0.98612 0.90964 0.47256 0.0
C1127 C 0.02347 0.88123 0.69942 0.0
H1128 H 0.97871 0.82461 0.52771 0.0
H1129 H 0.04231 0.84324 0.44693 0.0
H1130 H 0.97372 0.86633 0.65685 0.0
H1131 H 0.96054 0.87639 0.57764 0.0
H1132 H 0.95774 0.84778 0.60228 0.0
H1133 H 0.05837 0.87739 0.47031 0.0
H1134 H 0.03833 0.89922 0.4762 0.0
H1135 H 0.05095 0.88896 0.55611 0.0
H1136 H 0.98692 0.94758 0.54719 0.0
H1137 H 0.01896 0.92393 0.73768 0.0
H1138 H 0.97354 0.89641 0.47298 0.0
H1139 H 0.99959 0.90428 0.43615 0.0
H1140 H 0.9786 0.92485 0.45012 0.0
H1141 H 0.01176 0.86729 0.70501 0.0
H1142 H 0.02837 0.88678 0.75387 0.0
H1143 H 0.03829 0.87487 0.67131 0.0
C1144 C 0.66906 0.02874 0.51449 0.0
C1145 C 0.6797 0.00885 0.49672 0.0
C1146 C 0.6479 0.02903 0.54589 0.0
C1147 C 0.63701 0.00895 0.56183 0.0
C1148 C 0.6481 0.98883 0.54807 0.0
C1149 C 0.66912 0.98901 0.51532 0.0
C1150 C 0.63676 0.0509 0.55881 0.0
C1151 C 0.63739 0.96702 0.56538 0.0
C1152 C 0.58619 0.01155 0.68491 0.0
C1153 C 0.56883 0.01069 0.6353 0.0
C1154 C 0.60838 0.01049 0.66217 0.0
C1155 C 0.61349 0.00908 0.58785 0.0
C1156 C 0.596 1.00837 0.53767 0.0
C1157 C 0.57401 0.00893 0.56194 0.0
C1158 C 0.62639 0.01068 0.7177 0.0
C1159 C 0.60051 1.00729 0.45794 0.0
H1160 H 0.67709 0.04426 0.50253 0.0
H1161 H 0.67683 0.97348 0.50176 0.0
H1162 H 0.62282 0.05281 0.52094 0.0
H1163 H 0.62985 0.05161 0.61398 0.0
H1164 H 0.64818 0.06501 0.55109 0.0
H1165 H 0.64897 0.95299 0.55904 0.0
H1166 H 0.63097 0.96701 0.62126 0.0
H1167 H 0.62317 0.96437 0.5292 0.0
H1168 H 0.58243 0.01274 0.74173 0.0
H1169 H 0.5608 1.00842 0.52298 0.0
H1170 H 0.63827 0.02404 0.70562 0.0
H1171 H 0.63564 0.99494 0.71562 0.0
H1172 H 0.6199 0.01294 0.77304 0.0
H1173 H 0.61043 0.02175 0.44098 0.0
H1174 H 0.58514 1.00696 0.4258 0.0
H1175 H 0.61026 0.99234 0.44527 0.0
C1176 C 0.49343 0.67336 0.44566 0.0
C1177 C 0.5063 0.68931 0.48054 0.0
C1178 C 0.49241 0.65141 0.47044 0.0
C1179 C 0.50439 0.64503 0.53234 0.0
C1180 C 0.51716 0.66111 0.56847 0.0
C1181 C 0.51811 0.68292 0.54192 0.0
C1182 C 0.47886 0.6349 0.42925 0.0
C1183 C 0.52995 0.65522 0.63514 0.0
C1184 C 0.4877 0.59234 0.63337 0.0
C1185 C 0.50298 0.57693 0.60721 0.0
C1186 C 0.48771 0.61438 0.60862 0.0
C1187 C 0.50389 0.6215 0.55846 0.0
C1188 C 0.51949 0.60601 0.53262 0.0
C1189 C 0.51865 0.58394 0.55646 0.0
C1190 C 0.46992 0.62988 0.63416 0.0
C1191 C 0.53702 0.61271 0.47919 0.0
H1192 H 0.48454 0.67793 0.39749 0.0
H1193 H 0.52801 0.69506 0.56957 0.0
H1194 H 0.48975 0.62188 0.40722 0.0
H1195 H 0.46686 0.6267 0.4655 0.0
H1196 H 0.46974 0.64262 0.3841 0.0
H1197 H 0.53857 0.66966 0.65838 0.0
H1198 H 0.51867 0.64826 0.67634 0.0
H1199 H 0.54232 0.64235 0.62237 0.0
H1200 H 0.47525 0.58699 0.6715 0.0
H1201 H 0.53049 0.57216 0.53587 0.0
H1202 H 0.45894 0.63408 0.58871 0.0
H1203 H 0.47722 0.64553 0.6533 0.0
H1204 H 0.4597 0.62256 0.6776 0.0
H1205 H 0.52923 0.61902 0.4294 0.0
H1206 H 0.5481 0.59883 0.46489 0.0
H1207 H 0.5471 0.62628 0.50155 0.0
C1208 C 0.84191 0.50041 0.41644 0.0
C1209 C 0.82375 0.51242 0.4421 0.0
C1210 C 0.86243 0.50107 0.45126 0.0
C1211 C 0.86513 0.51429 0.5132 0.0
C1212 C 0.84685 0.5264 0.5397 0.0
C1213 C 0.82636 0.52517 0.50427 0.0
C1214 C 0.88125 0.4876 0.42154 0.0
C1215 C 0.84903 0.54091 0.60492 0.0
C1216 C 0.91448 0.50125 0.63354 0.0
C1217 C 0.93044 0.51611 0.60788 0.0
C1218 C 0.89307 0.50077 0.60442 0.0
C1219 C 0.88726 0.51568 0.54883 0.0
C1220 C 0.90309 0.53117 0.5244 0.0
C1221 C 0.92444 0.53109 0.55372 0.0
C1222 C 0.8769 0.48378 0.63164 0.0
C1223 C 0.89761 0.54759 0.46605 0.0
H1224 H 0.83999 0.49017 0.36927 0.0
H1225 H 0.81248 0.53455 0.5244 0.0
H1226 H 0.89496 0.49862 0.40518 0.0
H1227 H 0.88768 0.47636 0.46365 0.0
H1228 H 0.87631 0.47761 0.37437 0.0
H1229 H 0.83327 0.54909 0.61936 0.0
H1230 H 0.85469 0.53103 0.65156 0.0
H1231 H 0.86165 0.55377 0.59476 0.0
H1232 H 0.91887 0.48953 0.67513 0.0
H1233 H 0.93651 0.54276 0.53373 0.0
H1234 H 0.8727 0.47225 0.58765 0.0
H1235 H 0.86138 0.49186 0.64886 0.0
H1236 H 0.88352 0.47411 0.67749 0.0
H1237 H 0.89428 0.53878 0.41512 0.0
H1238 H 0.91116 0.55955 0.45652 0.0
H1239 H 0.88246 0.55683 0.48039 0.0
loop_
_geom_bond_atom_site_label_1
_geom_bond_atom_site_label_2
_geom_bond_distance
_geom_bond_site_symmetry_2
_ccdc_geom_bond_type
C0 C1 1.386 . S
C0 C2 1.397 . S
C0 H24 0.931 . S
C1 C0 1.386 . S
C1 C5 1.397 . S
C2 C0 1.397 . S
C2 C3 1.384 . S
C2 H25 0.930 . S
C3 C2 1.384 . S
C3 C4 1.377 . S
C3 C6 1.481 . S
C4 C3 1.377 . S
C4 C5 1.389 . S
C4 H26 0.929 . S
C5 C1 1.397 . S
C5 C4 1.389 . S
C5 H27 0.931 . S
C6 C3 1.481 . S
C6 C7 1.387 . S
C6 C11 1.390 . S
C7 C6 1.387 . S
C7 C8 1.401 . S
C7 H28 0.930 . S
C8 C7 1.401 . S
C8 C9 1.376 . S
C8 C17 1.511 . S
C9 C8 1.376 . S
C9 C10 1.392 . S
C9 H30 0.931 . S
C10 C9 1.392 . S
C10 C11 1.361 . S
C10 C12 1.500 . S
C11 C6 1.390 . S
C11 C10 1.361 . S
C11 H29 0.931 . S
C12 C10 1.500 . S
C12 C13 1.371 . S
C12 C14 1.365 . S
C13 C12 1.371 . S
C13 C23 1.386 . S
C13 H31 0.931 . S
C14 C12 1.365 . S
C14 C15 1.409 . S
C14 H32 0.929 . S
C15 C14 1.409 . S
C15 C16 1.380 . S
C15 H33 0.930 . S
C16 C15 1.380 . S
C16 C23 1.357 . S
C17 C8 1.511 . S
C17 C18 1.341 . S
C17 C19 1.371 . S
C18 C17 1.341 . S
C18 C22 1.394 . S
C18 H34 0.930 . S
C19 C17 1.371 . S
C19 C20 1.392 . S
C19 H35 0.931 . S
C20 C19 1.392 . S
C20 C21 1.331 . S
C20 H38 0.932 . S
C21 C20 1.331 . S
C21 C22 1.336 . S
C22 C18 1.394 . S
C22 C21 1.336 . S
C22 H37 0.929 . S
C23 C13 1.386 . S
C23 C16 1.357 . S
C23 H36 0.928 . S
H24 C0 0.931 . S
H25 C2 0.930 . S
H26 C4 0.929 . S
H27 C5 0.931 . S
H28 C7 0.930 . S
H29 C11 0.931 . S
H30 C9 0.931 . S
H31 C13 0.931 . S
H32 C14 0.929 . S
H33 C15 0.930 . S
H34 C18 0.930 . S
H35 C19 0.931 . S
H36 C23 0.928 . S
H37 C22 0.929 . S
H38 C20 0.932 . S
C39 C40 1.394 . S
C39 C41 1.397 . S
C39 H63 0.931 . S
C40 C39 1.394 . S
C40 C44 1.389 1_655 S
C41 C39 1.397 . S
C41 C42 1.389 . S
C41 H64 0.930 . S
C42 C41 1.389 . S
C42 C43 1.373 1_655 S
C42 C45 1.480 . S
C43 C42 1.373 1_455 S
C43 C44 1.389 . S
C43 H65 0.929 . S
C44 C40 1.389 1_455 S
C44 C43 1.389 . S
C44 H66 0.931 . S
C45 C42 1.480 . S
C45 C46 1.388 . S
C45 C50 1.390 . S
C46 C45 1.388 . S
C46 C47 1.402 . S
C46 H67 0.930 . S
C47 C46 1.402 . S
C47 C48 1.376 . S
C47 C56 1.513 . S
C48 C47 1.376 . S
C48 C49 1.392 . S
C48 H69 0.934 . S
C49 C48 1.392 . S
C49 C50 1.361 . S
C49 C51 1.499 1_655 S
C50 C45 1.390 . S
C50 C49 1.361 . S
C50 H68 0.931 . S
C51 C49 1.499 1_455 S
C51 C52 1.362 1_455 S
C51 C53 1.374 . S
C52 C51 1.362 1_655 S
C52 C62 1.386 . S
C52 H70 0.931 . S
C53 C51 1.374 . S
C53 C54 1.409 . S
C53 H71 0.929 . S
C54 C53 1.409 . S
C54 C55 1.379 . S
C54 H72 0.930 . S
C55 C54 1.379 . S
C55 C62 1.359 1_455 S
C56 C47 1.513 . S
C56 C57 1.341 . S
C56 C58 1.371 1_655 S
C57 C56 1.341 . S
C57 C61 1.394 . S
C57 H73 0.930 . S
C58 C56 1.371 1_455 S
C58 C59 1.392 . S
C58 H74 0.931 . S
C59 C58 1.392 . S
C59 C60 1.322 1_455 S
C59 H77 0.932 . S
C60 C59 1.322 1_655 S
C60 C61 1.345 . S
C61 C57 1.394 . S
C61 C60 1.345 . S
C61 H76 0.929 . S
C62 C52 1.386 . S
C62 C55 1.359 1_655 S
C62 H75 0.928 . S
H63 C39 0.931 . S
H64 C41 0.930 . S
H65 C43 0.929 . S
H66 C44 0.931 . S
H67 C46 0.930 . S
H68 C50 0.931 . S
H69 C48 0.934 . S
H70 C52 0.931 . S
H71 C53 0.929 . S
H72 C54 0.930 . S
H73 C57 0.930 . S
H74 C58 0.931 . S
H75 C62 0.928 . S
H76 C61 0.929 . S
H77 C59 0.932 . S
C78 C79 1.394 . S
C78 C80 1.397 . S
C78 H102 0.931 . S
C79 C78 1.394 . S
C79 C83 1.389 1_565 S
C80 C78 1.397 . S
C80 C81 1.389 . S
C80 H103 0.930 . S
C81 C80 1.389 . S
C81 C82 1.373 1_565 S
C81 C84 1.480 . S
C82 C81 1.373 1_545 S
C82 C83 1.389 . S
C82 H104 0.929 . S
C83 C79 1.389 1_545 S
C83 C82 1.389 . S
C83 H105 0.931 . S
C84 C81 1.480 . S
C84 C85 1.388 . S
C84 C89 1.390 . S
C85 C84 1.388 . S
C85 C86 1.402 . S
C85 H106 0.930 . S
C86 C85 1.402 . S
C86 C87 1.376 . S
C86 C95 1.513 . S
C87 C86 1.376 . S
C87 C88 1.392 . S
C87 H108 0.934 . S
C88 C87 1.392 . S
C88 C89 1.361 . S
C88 C90 1.499 1_565 S
C89 C84 1.390 . S
C89 C88 1.361 . S
C89 H107 0.931 . S
C90 C88 1.499 1_545 S
C90 C91 1.362 1_545 S
C90 C92 1.374 . S
C91 C90 1.362 1_565 S
C91 C101 1.386 . S
C91 H109 0.931 . S
C92 C90 1.374 . S
C92 C93 1.409 . S
C92 H110 0.929 . S
C93 C92 1.409 . S
C93 C94 1.379 . S
C93 H111 0.930 . S
C94 C93 1.379 . S
C94 C101 1.359 1_545 S
C95 C86 1.513 . S
C95 C96 1.341 . S
C95 C97 1.371 1_565 S
C96 C95 1.341 . S
C96 C100 1.394 . S
C96 H112 0.930 . S
C97 C95 1.371 1_545 S
C97 C98 1.392 . S
C97 H113 0.931 . S
C98 C97 1.392 . S
C98 C99 1.322 1_545 S
C98 H116 0.932 . S
C99 C98 1.322 1_565 S
C99 C100 1.345 . S
C100 C96 1.394 . S
C100 C99 1.345 . S
C100 H115 0.929 . S
C101 C91 1.386 . S
C101 C94 1.359 1_565 S
C101 H114 0.928 . S
H102 C78 0.931 . S
H103 C80 0.930 . S
H104 C82 0.929 . S
H105 C83 0.931 . S
H106 C85 0.930 . S
H107 C89 0.931 . S
H108 C87 0.934 . S
H109 C91 0.931 . S
H110 C92 0.929 . S
H111 C93 0.930 . S
H112 C96 0.930 . S
H113 C97 0.931 . S
H114 C101 0.928 . S
H115 C100 0.929 . S
H116 C98 0.932 . S
C117 C118 1.386 . S
C117 C119 1.397 . S
C117 H141 0.931 . S
C118 C117 1.386 . S
C118 C122 1.397 . S
C119 C117 1.397 . S
C119 C120 1.384 . S
C119 H142 0.930 . S
C120 C119 1.384 . S
C120 C121 1.377 . S
C120 C123 1.481 . S
C121 C120 1.377 . S
C121 C122 1.389 . S
C121 H143 0.929 . S
C122 C118 1.397 . S
C122 C121 1.389 . S
C122 H144 0.931 . S
C123 C120 1.481 . S
C123 C124 1.387 . S
C123 C128 1.390 . S
C124 C123 1.387 . S
C124 C125 1.401 . S
C124 H145 0.930 . S
C125 C124 1.401 . S
C125 C126 1.376 . S
C125 C134 1.511 . S
C126 C125 1.376 . S
C126 C127 1.392 . S
C126 H147 0.931 . S
C127 C126 1.392 . S
C127 C128 1.361 . S
C127 C129 1.500 . S
C128 C123 1.390 . S
C128 C127 1.361 . S
C128 H146 0.931 . S
C129 C127 1.500 . S
C129 C130 1.371 . S
C129 C131 1.365 . S
C130 C129 1.371 . S
C130 C140 1.386 . S
C130 H148 0.931 . S
C131 C129 1.365 . S
C131 C132 1.409 . S
C131 H149 0.929 . S
C132 C131 1.409 . S
C132 C133 1.380 . S
C132 H150 0.930 . S
C133 C132 1.380 . S
C133 C140 1.357 . S
C134 C125 1.511 . S
C134 C135 1.341 . S
C134 C136 1.371 . S
C135 C134 1.341 . S
C135 C139 1.394 . S
C135 H151 0.930 . S
C136 C134 1.371 . S
C136 C137 1.392 . S
C136 H152 0.931 . S
C137 C136 1.392 . S
C137 C138 1.331 . S
C137 H155 0.932 . S
C138 C137 1.331 . S
C138 C139 1.336 . S
C139 C135 1.394 . S
C139 C138 1.336 . S
C139 H154 0.929 . S
C140 C130 1.386 . S
C140 C133 1.357 . S
C140 H153 0.928 . S
H141 C117 0.931 . S
H142 C119 0.930 . S
H143 C121 0.929 . S
H144 C122 0.931 . S
H145 C124 0.930 . S
H146 C128 0.931 . S
H147 C126 0.931 . S
H148 C130 0.931 . S
H149 C131 0.929 . S
H150 C132 0.930 . S
H151 C135 0.930 . S
H152 C136 0.931 . S
H153 C140 0.928 . S
H154 C139 0.929 . S
H155 C137 0.932 . S
C156 C157 1.386 . S
C156 C158 1.397 . S
C156 H180 0.931 . S
C157 C156 1.386 . S
C157 C161 1.397 . S
C158 C156 1.397 . S
C158 C159 1.384 . S
C158 H181 0.930 . S
C159 C158 1.384 . S
C159 C160 1.377 . S
C159 C162 1.481 . S
C160 C159 1.377 . S
C160 C161 1.389 . S
C160 H182 0.929 . S
C161 C157 1.397 . S
C161 C160 1.389 . S
C161 H183 0.931 . S
C162 C159 1.481 . S
C162 C163 1.387 . S
C162 C167 1.390 . S
C163 C162 1.387 . S
C163 C164 1.401 . S
C163 H184 0.930 . S
C164 C163 1.401 . S
C164 C165 1.376 1_554 S
C164 C173 1.511 . S
C165 C164 1.376 1_556 S
C165 C166 1.392 . S
C165 H186 0.931 . S
C166 C165 1.392 . S
C166 C167 1.361 1_556 S
C166 C168 1.500 . S
C167 C162 1.390 . S
C167 C166 1.361 1_554 S
C167 H185 0.931 . S
C168 C166 1.500 . S
C168 C169 1.371 . S
C168 C170 1.365 . S
C169 C168 1.371 . S
C169 C179 1.386 . S
C169 H187 0.931 . S
C170 C168 1.365 . S
C170 C171 1.409 . S
C170 H188 0.929 . S
C171 C170 1.409 . S
C171 C172 1.380 . S
C171 H189 0.930 . S
C172 C171 1.380 . S
C172 C179 1.357 . S
C173 C164 1.511 . S
C173 C174 1.341 . S
C173 C175 1.371 . S
C174 C173 1.341 . S
C174 C178 1.394 . S
C174 H190 0.930 . S
C175 C173 1.371 . S
C175 C176 1.392 . S
C175 H191 0.931 1_554 S
C176 C175 1.392 . S
C176 C177 1.331 . S
C176 H194 0.932 . S
C177 C176 1.331 . S
C177 C178 1.336 . S
C178 C174 1.394 . S
C178 C177 1.336 . S
C178 H193 0.929 . S
C179 C169 1.386 . S
C179 C172 1.357 . S
C179 H192 0.928 . S
H180 C156 0.931 . S
H181 C158 0.930 . S
H182 C160 0.929 . S
H183 C161 0.931 . S
H184 C163 0.930 . S
H185 C167 0.931 . S
H186 C165 0.931 . S
H187 C169 0.931 . S
H188 C170 0.929 . S
H189 C171 0.930 . S
H190 C174 0.930 . S
H191 C175 0.931 1_556 S
H192 C179 0.928 . S
H193 C178 0.929 . S
H194 C176 0.932 . S
C195 C196 1.387 . S
C195 C197 1.397 . S
C195 H219 0.931 . S
C196 C195 1.387 . S
C196 C200 1.396 1_655 S
C197 C195 1.397 . S
C197 C198 1.381 . S
C197 H220 0.930 . S
C198 C197 1.381 . S
C198 C199 1.380 1_655 S
C198 C201 1.480 . S
C199 C198 1.380 1_455 S
C199 C200 1.389 . S
C199 H221 0.929 . S
C200 C196 1.396 1_455 S
C200 C199 1.389 . S
C200 H222 0.931 . S
C201 C198 1.480 . S
C201 C202 1.388 . S
C201 C206 1.390 . S
C202 C201 1.388 . S
C202 C203 1.402 . S
C202 H223 0.930 . S
C203 C202 1.402 . S
C203 C204 1.376 1_554 S
C203 C212 1.512 . S
C204 C203 1.376 1_556 S
C204 C205 1.392 1_655 S
C204 H225 0.933 . S
C205 C204 1.392 1_455 S
C205 C206 1.361 1_456 S
C205 C207 1.499 . S
C206 C201 1.390 . S
C206 C205 1.361 1_654 S
C206 H224 0.931 . S
C207 C205 1.499 . S
C207 C208 1.357 1_455 S
C207 C209 1.380 . S
C208 C207 1.357 1_655 S
C208 C218 1.386 . S
C208 H226 0.931 . S
C209 C207 1.380 . S
C209 C210 1.409 . S
C209 H227 0.929 . S
C210 C209 1.409 . S
C210 C211 1.384 . S
C210 H228 0.930 . S
C211 C210 1.384 . S
C211 C218 1.353 1_455 S
C212 C203 1.512 . S
C212 C213 1.341 . S
C212 C214 1.371 1_655 S
C213 C212 1.341 . S
C213 C217 1.394 . S
C213 H229 0.930 . S
C214 C212 1.371 1_455 S
C214 C215 1.392 . S
C214 H230 0.931 1_554 S
C215 C214 1.392 . S
C215 C216 1.326 1_455 S
C215 H233 0.932 . S
C216 C215 1.326 1_655 S
C216 C217 1.341 . S
C217 C213 1.394 . S
C217 C216 1.341 . S
C217 H232 0.929 . S
C218 C208 1.386 . S
C218 C211 1.353 1_655 S
C218 H231 0.928 . S
H219 C195 0.931 . S
H220 C197 0.930 . S
H221 C199 0.929 . S
H222 C200 0.931 . S
H223 C202 0.930 . S
H224 C206 0.931 . S
H225 C204 0.933 . S
H226 C208 0.931 . S
H227 C209 0.929 . S
H228 C210 0.930 . S
H229 C213 0.930 . S
H230 C214 0.931 1_556 S
H231 C218 0.928 . S
H232 C217 0.929 . S
H233 C215 0.932 . S
C234 C235 1.387 . S
C234 C236 1.397 . S
C234 H258 0.931 . S
C235 C234 1.387 . S
C235 C239 1.396 1_565 S
C236 C234 1.397 . S
C236 C237 1.381 . S
C236 H259 0.930 . S
C237 C236 1.381 . S
C237 C238 1.380 1_565 S
C237 C240 1.480 . S
C238 C237 1.380 1_545 S
C238 C239 1.389 . S
C238 H260 0.929 . S
C239 C235 1.396 1_545 S
C239 C238 1.389 . S
C239 H261 0.931 . S
C240 C237 1.480 . S
C240 C241 1.388 . S
C240 C245 1.390 . S
C241 C240 1.388 . S
C241 C242 1.402 . S
C241 H262 0.930 . S
C242 C241 1.402 . S
C242 C243 1.376 1_554 S
C242 C251 1.512 . S
C243 C242 1.376 1_556 S
C243 C244 1.392 1_565 S
C243 H264 0.933 . S
C244 C243 1.392 1_545 S
C244 C245 1.361 1_546 S
C244 C246 1.499 . S
C245 C240 1.390 . S
C245 C244 1.361 1_564 S
C245 H263 0.931 . S
C246 C244 1.499 . S
C246 C247 1.357 1_545 S
C246 C248 1.380 . S
C247 C246 1.357 1_565 S
C247 C257 1.386 . S
C247 H265 0.931 . S
C248 C246 1.380 . S
C248 C249 1.409 . S
C248 H266 0.929 . S
C249 C248 1.409 . S
C249 C250 1.384 . S
C249 H267 0.930 . S
C250 C249 1.384 . S
C250 C257 1.353 1_545 S
C251 C242 1.512 . S
C251 C252 1.341 . S
C251 C253 1.371 1_565 S
C252 C251 1.341 . S
C252 C256 1.394 . S
C252 H268 0.930 . S
C253 C251 1.371 1_545 S
C253 C254 1.392 . S
C253 H269 0.931 1_554 S
C254 C253 1.392 . S
C254 C255 1.326 1_545 S
C254 H272 0.932 . S
C255 C254 1.326 1_565 S
C255 C256 1.341 . S
C256 C252 1.394 . S
C256 C255 1.341 . S
C256 H271 0.929 . S
C257 C247 1.386 . S
C257 C250 1.353 1_565 S
C257 H270 0.928 . S
H258 C234 0.931 . S
H259 C236 0.930 . S
H260 C238 0.929 . S
H261 C239 0.931 . S
H262 C241 0.930 . S
H263 C245 0.931 . S
H264 C243 0.933 . S
H265 C247 0.931 . S
H266 C248 0.929 . S
H267 C249 0.930 . S
H268 C252 0.930 . S
H269 C253 0.931 1_556 S
H270 C257 0.928 . S
H271 C256 0.929 . S
H272 C254 0.932 . S
C273 C274 1.386 . S
C273 C275 1.397 . S
C273 H297 0.931 . S
C274 C273 1.386 . S
C274 C278 1.397 . S
C275 C273 1.397 . S
C275 C276 1.384 . S
C275 H298 0.930 . S
C276 C275 1.384 . S
C276 C277 1.377 . S
C276 C279 1.481 . S
C277 C276 1.377 . S
C277 C278 1.389 . S
C277 H299 0.929 . S
C278 C274 1.397 . S
C278 C277 1.389 . S
C278 H300 0.931 . S
C279 C276 1.481 . S
C279 C280 1.387 . S
C279 C284 1.390 1_556 S
C280 C279 1.387 . S
C280 C281 1.401 1_556 S
C280 H301 0.930 . S
C281 C280 1.401 1_554 S
C281 C282 1.376 . S
C281 C290 1.511 . S
C282 C281 1.376 . S
C282 C283 1.392 . S
C282 H303 0.931 . S
C283 C282 1.392 . S
C283 C284 1.361 . S
C283 C285 1.500 . S
C284 C279 1.390 1_554 S
C284 C283 1.361 . S
C284 H302 0.931 . S
C285 C283 1.500 . S
C285 C286 1.371 . S
C285 C287 1.365 . S
C286 C285 1.371 . S
C286 C296 1.386 . S
C286 H304 0.931 . S
C287 C285 1.365 . S
C287 C288 1.409 . S
C287 H305 0.929 . S
C288 C287 1.409 . S
C288 C289 1.380 . S
C288 H306 0.930 . S
C289 C288 1.380 . S
C289 C296 1.357 . S
C290 C281 1.511 . S
C290 C291 1.341 . S
C290 C292 1.371 . S
C291 C290 1.341 . S
C291 C295 1.394 . S
C291 H307 0.930 1_554 S
C292 C290 1.371 . S
C292 C293 1.392 . S
C292 H308 0.931 . S
C293 C292 1.392 . S
C293 C294 1.331 . S
C293 H311 0.932 . S
C294 C293 1.331 . S
C294 C295 1.336 . S
C295 C291 1.394 . S
C295 C294 1.336 . S
C295 H310 0.929 . S
C296 C286 1.386 . S
C296 C289 1.357 . S
C296 H309 0.928 . S
H297 C273 0.931 . S
H298 C275 0.930 . S
H299 C277 0.929 . S
H300 C278 0.931 . S
H301 C280 0.930 . S
H302 C284 0.931 . S
H303 C282 0.931 . S
H304 C286 0.931 . S
H305 C287 0.929 . S
H306 C288 0.930 . S
H307 C291 0.930 1_556 S
H308 C292 0.931 . S
H309 C296 0.928 . S
H310 C295 0.929 . S
H311 C293 0.932 . S
La312 C314 2.928 . S
La312 O332 2.521 . S
La312 O333 2.628 . S
La312 O334 2.554 . S
La312 O335 2.757 1_565 S
La312 O336 2.470 . S
La312 O341 2.482 1_455 S
La312 O343 2.503 1_565 S
La313 C323 2.928 . S
La313 O335 2.482 1_655 S
La313 O337 2.503 1_545 S
La313 O338 2.521 . S
La313 O339 2.628 . S
La313 O340 2.554 . S
La313 O341 2.757 1_545 S
La313 O342 2.470 . S
C314 La312 2.928 . S
C314 C315 1.503 . S
C314 O332 1.261 . S
C314 O333 1.243 . S
C315 C314 1.503 . S
C315 C316 1.394 . S
C315 C320 1.373 . S
C316 C315 1.394 . S
C316 C317 1.380 . S
C316 H344 0.930 . S
C317 C316 1.380 . S
C317 C318 1.376 . S
C317 H345 0.930 . S
C318 C317 1.376 . S
C318 C319 1.370 . S
C319 C318 1.370 . S
C319 C320 1.396 . S
C319 H346 0.925 1_455 S
C320 C315 1.373 . S
C320 C319 1.396 . S
C320 H347 0.929 1_455 S
C321 O334 1.269 . S
C321 O335 1.272 1_565 S
C322 O336 1.258 1_655 S
C322 O337 1.256 . S
C323 La313 2.928 . S
C323 C324 1.503 . S
C323 O338 1.261 . S
C323 O339 1.243 . S
C324 C323 1.503 . S
C324 C325 1.394 . S
C324 C329 1.373 . S
C325 C324 1.394 . S
C325 C326 1.380 . S
C325 H348 0.930 . S
C326 C325 1.380 . S
C326 C327 1.376 . S
C326 H349 0.930 . S
C327 C326 1.376 . S
C327 C328 1.370 . S
C328 C327 1.370 . S
C328 C329 1.396 . S
C328 H350 0.916 1_655 S
C329 C324 1.373 . S
C329 C328 1.396 . S
C329 H351 0.929 1_655 S
C330 O340 1.240 . S
C330 O341 1.289 1_545 S
C331 O342 1.258 1_455 S
C331 O343 1.256 . S
O332 La312 2.521 . S
O332 C314 1.261 . S
O333 La312 2.628 . S
O333 C314 1.243 . S
O334 La312 2.554 . S
O334 C321 1.269 . S
O335 La312 2.757 1_545 S
O335 La313 2.482 1_455 S
O335 C321 1.272 1_545 S
O336 La312 2.470 . S
O336 C322 1.258 1_455 S
O337 La313 2.503 1_565 S
O337 C322 1.256 . S
O338 La313 2.521 . S
O338 C323 1.261 . S
O339 La313 2.628 . S
O339 C323 1.243 . S
O340 La313 2.554 . S
O340 C330 1.240 . S
O341 La312 2.482 1_655 S
O341 La313 2.757 1_565 S
O341 C330 1.289 1_565 S
O342 La313 2.470 . S
O342 C331 1.258 1_655 S
O343 La312 2.503 1_545 S
O343 C331 1.256 . S
H344 C316 0.930 . S
H345 C317 0.930 . S
H346 C319 0.925 1_655 S
H347 C320 0.929 1_655 S
H348 C325 0.930 . S
H349 C326 0.930 . S
H350 C328 0.916 1_455 S
H351 C329 0.929 1_455 S
La352 C354 2.928 . S
La352 O372 2.521 . S
La352 O373 2.628 . S
La352 O374 2.554 . S
La352 O375 2.757 . S
La352 O376 2.470 . S
La352 O381 2.482 1_545 S
La352 O383 2.503 . S
La353 C363 2.928 . S
La353 O375 2.482 1_565 S
La353 O377 2.503 . S
La353 O378 2.521 . S
La353 O379 2.628 . S
La353 O380 2.554 . S
La353 O381 2.757 . S
La353 O382 2.470 . S
C354 La352 2.928 . S
C354 C355 1.503 . S
C354 O372 1.261 . S
C354 O373 1.243 . S
C355 C354 1.503 . S
C355 C356 1.394 . S
C355 C360 1.373 . S
C356 C355 1.394 . S
C356 C357 1.380 . S
C356 H384 0.930 . S
C357 C356 1.380 . S
C357 C358 1.376 . S
C357 H385 0.930 . S
C358 C357 1.376 . S
C358 C359 1.370 . S
C359 C358 1.370 . S
C359 C360 1.396 . S
C359 H386 0.906 1_545 S
C360 C355 1.373 . S
C360 C359 1.396 . S
C360 H387 0.929 1_545 S
C361 O374 1.240 . S
C361 O375 1.289 . S
C362 O376 1.258 1_565 S
C362 O377 1.256 . S
C363 La353 2.928 . S
C363 C364 1.503 . S
C363 O378 1.261 . S
C363 O379 1.243 . S
C364 C363 1.503 . S
C364 C365 1.394 . S
C364 C369 1.373 . S
C365 C364 1.394 . S
C365 C366 1.380 . S
C365 H388 0.930 . S
C366 C365 1.380 . S
C366 C367 1.376 . S
C366 H389 0.930 . S
C367 C366 1.376 . S
C367 C368 1.370 . S
C368 C367 1.370 . S
C368 C369 1.396 . S
C368 H390 0.897 1_565 S
C369 C364 1.373 . S
C369 C368 1.396 . S
C369 H391 0.929 1_565 S
C370 O380 1.240 . S
C370 O381 1.289 . S
C371 O382 1.258 1_545 S
C371 O383 1.256 . S
O372 La352 2.521 . S
O372 C354 1.261 . S
O373 La352 2.628 . S
O373 C354 1.243 . S
O374 La352 2.554 . S
O374 C361 1.240 . S
O375 La352 2.757 . S
O375 La353 2.482 1_545 S
O375 C361 1.289 . S
O376 La352 2.470 . S
O376 C362 1.258 1_545 S
O377 La353 2.503 . S
O377 C362 1.256 . S
O378 La353 2.521 . S
O378 C363 1.261 . S
O379 La353 2.628 . S
O379 C363 1.243 . S
O380 La353 2.554 . S
O380 C370 1.240 . S
O381 La352 2.482 1_565 S
O381 La353 2.757 . S
O381 C370 1.289 . S
O382 La353 2.470 . S
O382 C371 1.258 1_565 S
O383 La352 2.503 . S
O383 C371 1.256 . S
H384 C356 0.930 . S
H385 C357 0.930 . S
H386 C359 0.906 1_565 S
H387 C360 0.929 1_565 S
H388 C365 0.930 . S
H389 C366 0.930 . S
H390 C368 0.897 1_545 S
H391 C369 0.929 1_545 S
La392 C394 2.928 . S
La392 O412 2.521 . S
La392 O413 2.628 . S
La392 O414 2.554 . S
La392 O415 2.757 . S
La392 O416 2.470 . S
La392 O421 2.482 . S
La392 O423 2.503 . S
La393 C403 2.928 . S
La393 O415 2.482 . S
La393 O417 2.503 . S
La393 O418 2.521 . S
La393 O419 2.628 . S
La393 O420 2.554 . S
La393 O421 2.757 . S
La393 O422 2.470 . S
C394 La392 2.928 . S
C394 C395 1.503 . S
C394 O412 1.261 . S
C394 O413 1.243 . S
C395 C394 1.503 . S
C395 C396 1.394 . S
C395 C400 1.373 . S
C396 C395 1.394 . S
C396 C397 1.380 . S
C396 H424 0.930 . S
C397 C396 1.380 . S
C397 C398 1.376 . S
C397 H425 0.930 . S
C398 C397 1.376 . S
C398 C399 1.370 . S
C399 C398 1.370 . S
C399 C400 1.396 . S
C399 H426 0.929 . S
C400 C395 1.373 . S
C400 C399 1.396 . S
C400 H427 0.929 . S
C401 O414 1.240 . S
C401 O415 1.289 . S
C402 O416 1.258 . S
C402 O417 1.256 . S
C403 La393 2.928 . S
C403 C404 1.503 . S
C403 O418 1.261 . S
C403 O419 1.243 . S
C404 C403 1.503 . S
C404 C405 1.394 . S
C404 C409 1.373 . S
C405 C404 1.394 . S
C405 C406 1.380 . S
C405 H428 0.930 . S
C406 C405 1.380 . S
C406 C407 1.376 . S
C406 H429 0.930 . S
C407 C406 1.376 . S
C407 C408 1.370 . S
C408 C407 1.370 . S
C408 C409 1.396 . S
C408 H430 0.929 . S
C409 C404 1.373 . S
C409 C408 1.396 . S
C409 H431 0.929 . S
C410 O420 1.240 . S
C410 O421 1.289 . S
C411 O422 1.258 . S
C411 O423 1.256 . S
O412 La392 2.521 . S
O412 C394 1.261 . S
O413 La392 2.628 . S
O413 C394 1.243 . S
O414 La392 2.554 . S
O414 C401 1.240 . S
O415 La392 2.757 . S
O415 La393 2.482 . S
O415 C401 1.289 . S
O416 La392 2.470 . S
O416 C402 1.258 . S
O417 La393 2.503 . S
O417 C402 1.256 . S
O418 La393 2.521 . S
O418 C403 1.261 . S
O419 La393 2.628 . S
O419 C403 1.243 . S
O420 La393 2.554 . S
O420 C410 1.240 . S
O421 La392 2.482 . S
O421 La393 2.757 . S
O421 C410 1.289 . S
O422 La393 2.470 . S
O422 C411 1.258 . S
O423 La392 2.503 . S
O423 C411 1.256 . S
H424 C396 0.930 . S
H425 C397 0.930 . S
H426 C399 0.929 . S
H427 C400 0.929 . S
H428 C405 0.930 . S
H429 C406 0.930 . S
H430 C408 0.929 . S
H431 C409 0.929 . S
La432 C434 2.928 . S
La432 O452 2.521 . S
La432 O453 2.628 . S
La432 O454 2.554 . S
La432 O455 2.757 1_655 S
La432 O456 2.470 . S
La432 O461 2.482 . S
La432 O463 2.503 1_655 S
La433 C443 2.928 . S
La433 O455 2.482 . S
La433 O457 2.503 1_455 S
La433 O458 2.521 . S
La433 O459 2.628 . S
La433 O460 2.554 . S
La433 O461 2.757 1_455 S
La433 O462 2.470 . S
C434 La432 2.928 . S
C434 C435 1.503 . S
C434 O452 1.261 . S
C434 O453 1.243 . S
C435 C434 1.503 . S
C435 C436 1.394 . S
C435 C440 1.373 . S
C436 C435 1.394 . S
C436 C437 1.380 . S
C436 H464 0.930 . S
C437 C436 1.380 . S
C437 C438 1.376 . S
C437 H465 0.930 . S
C438 C437 1.376 . S
C438 C439 1.370 . S
C439 C438 1.370 . S
C439 C440 1.396 . S
C439 H466 0.929 . S
C440 C435 1.373 . S
C440 C439 1.396 . S
C440 H467 0.929 . S
C441 O454 1.257 . S
C441 O455 1.279 1_655 S
C442 O456 1.258 . S
C442 O457 1.256 . S
C443 La433 2.928 . S
C443 C444 1.503 . S
C443 O458 1.261 . S
C443 O459 1.243 . S
C444 C443 1.503 . S
C444 C445 1.394 . S
C444 C449 1.373 . S
C445 C444 1.394 . S
C445 C446 1.380 . S
C445 H468 0.930 . S
C446 C445 1.380 . S
C446 C447 1.376 . S
C446 H469 0.930 . S
C447 C446 1.376 . S
C447 C448 1.370 . S
C448 C447 1.370 . S
C448 C449 1.396 . S
C448 H470 0.929 . S
C449 C444 1.373 . S
C449 C448 1.396 . S
C449 H471 0.929 . S
C450 O460 1.264 . S
C450 O461 1.275 1_455 S
C451 O462 1.258 . S
C451 O463 1.256 . S
O452 La432 2.521 . S
O452 C434 1.261 . S
O453 La432 2.628 . S
O453 C434 1.243 . S
O454 La432 2.554 . S
O454 C441 1.257 . S
O455 La432 2.757 1_455 S
O455 La433 2.482 . S
O455 C441 1.279 1_455 S
O456 La432 2.470 . S
O456 C442 1.258 . S
O457 La433 2.503 1_655 S
O457 C442 1.256 . S
O458 La433 2.521 . S
O458 C443 1.261 . S
O459 La433 2.628 . S
O459 C443 1.243 . S
O460 La433 2.554 . S
O460 C450 1.264 . S
O461 La432 2.482 . S
O461 La433 2.757 1_655 S
O461 C450 1.275 1_655 S
O462 La433 2.470 . S
O462 C451 1.258 . S
O463 La432 2.503 1_455 S
O463 C451 1.256 . S
H464 C436 0.930 . S
H465 C437 0.930 . S
H466 C439 0.929 . S
H467 C440 0.929 . S
H468 C445 0.930 . S
H469 C446 0.930 . S
H470 C448 0.929 . S
H471 C449 0.929 . S
C472 C473 1.391 . S
C472 C474 1.394 . S
C472 H488 0.931 . S
C473 C472 1.391 . S
C473 C477 1.376 1_545 S
C474 C472 1.394 . S
C474 C475 1.369 . S
C474 C478 1.531 . S
C475 C474 1.369 . S
C475 C476 1.410 1_545 S
C475 C483 1.503 . S
C476 C475 1.410 1_565 S
C476 C477 1.392 . S
C476 C479 1.511 . S
C477 C473 1.376 1_565 S
C477 C476 1.392 . S
C477 H489 0.929 . S
C478 C474 1.531 . S
C478 H490 0.960 . S
C478 H491 0.962 . S
C478 H492 0.960 . S
C479 C476 1.511 . S
C479 H493 0.961 . S
C479 H494 0.961 . S
C479 H495 0.961 . S
C480 C481 1.370 1_565 S
C480 C482 1.363 . S
C480 H496 0.931 . S
C481 C480 1.370 1_545 S
C481 C485 1.408 . S
C482 C480 1.363 . S
C482 C483 1.370 1_565 S
C482 C486 1.524 . S
C483 C475 1.503 . S
C483 C482 1.370 1_545 S
C483 C484 1.403 . S
C484 C483 1.403 . S
C484 C485 1.404 . S
C484 C487 1.539 . S
C485 C481 1.408 . S
C485 C484 1.404 . S
C485 H497 0.930 . S
C486 C482 1.524 . S
C486 H498 0.956 . S
C486 H499 0.961 . S
C486 H500 0.961 . S
C487 C484 1.539 . S
C487 H501 0.958 . S
C487 H502 0.961 . S
C487 H503 0.960 . S
H488 C472 0.931 . S
H489 C477 0.929 . S
H490 C478 0.960 . S
H491 C478 0.962 . S
H492 C478 0.960 . S
H493 C479 0.961 . S
H494 C479 0.961 . S
H495 C479 0.961 . S
H496 C480 0.931 . S
H497 C485 0.930 . S
H498 C486 0.956 . S
H499 C486 0.961 . S
H500 C486 0.961 . S
H501 C487 0.958 . S
H502 C487 0.961 . S
H503 C487 0.960 . S
C504 C505 1.391 . S
C504 C506 1.394 . S
C504 H520 0.931 . S
C505 C504 1.391 . S
C505 C509 1.376 . S
C506 C504 1.394 . S
C506 C507 1.369 . S
C506 C510 1.531 . S
C507 C506 1.369 . S
C507 C508 1.410 . S
C507 C515 1.503 . S
C508 C507 1.410 . S
C508 C509 1.392 . S
C508 C511 1.511 . S
C509 C505 1.376 . S
C509 C508 1.392 . S
C509 H521 0.929 . S
C510 C506 1.531 . S
C510 H522 0.960 . S
C510 H523 0.962 . S
C510 H524 0.960 . S
C511 C508 1.511 . S
C511 H525 0.961 . S
C511 H526 0.961 . S
C511 H527 0.961 . S
C512 C513 1.370 . S
C512 C514 1.363 . S
C512 H528 0.931 . S
C513 C512 1.370 . S
C513 C517 1.408 . S
C514 C512 1.363 . S
C514 C515 1.370 . S
C514 C518 1.524 . S
C515 C507 1.503 . S
C515 C514 1.370 . S
C515 C516 1.403 . S
C516 C515 1.403 . S
C516 C517 1.404 . S
C516 C519 1.539 . S
C517 C513 1.408 . S
C517 C516 1.404 . S
C517 H529 0.930 . S
C518 C514 1.524 . S
C518 H530 0.956 . S
C518 H531 0.961 . S
C518 H532 0.961 . S
C519 C516 1.539 . S
C519 H533 0.958 . S
C519 H534 0.961 . S
C519 H535 0.960 . S
H520 C504 0.931 . S
H521 C509 0.929 . S
H522 C510 0.960 . S
H523 C510 0.962 . S
H524 C510 0.960 . S
H525 C511 0.961 . S
H526 C511 0.961 . S
H527 C511 0.961 . S
H528 C512 0.931 . S
H529 C517 0.930 . S
H530 C518 0.956 . S
H531 C518 0.961 . S
H532 C518 0.961 . S
H533 C519 0.958 . S
H534 C519 0.961 . S
H535 C519 0.960 . S
C536 C537 1.391 . S
C536 C538 1.394 . S
C536 H552 0.931 . S
C537 C536 1.391 . S
C537 C541 1.376 . S
C538 C536 1.394 . S
C538 C539 1.369 . S
C538 C542 1.531 . S
C539 C538 1.369 . S
C539 C540 1.410 . S
C539 C547 1.503 . S
C540 C539 1.410 . S
C540 C541 1.392 . S
C540 C543 1.511 . S
C541 C537 1.376 . S
C541 C540 1.392 . S
C541 H553 0.929 . S
C542 C538 1.531 . S
C542 H554 0.960 . S
C542 H555 0.962 . S
C542 H556 0.960 . S
C543 C540 1.511 . S
C543 H557 0.961 . S
C543 H558 0.961 . S
C543 H559 0.961 . S
C544 C545 1.370 . S
C544 C546 1.363 . S
C544 H560 0.931 . S
C545 C544 1.370 . S
C545 C549 1.408 . S
C546 C544 1.363 . S
C546 C547 1.370 . S
C546 C550 1.524 . S
C547 C539 1.503 . S
C547 C546 1.370 . S
C547 C548 1.403 . S
C548 C547 1.403 . S
C548 C549 1.404 . S
C548 C551 1.539 . S
C549 C545 1.408 . S
C549 C548 1.404 . S
C549 H561 0.930 . S
C550 C546 1.524 . S
C550 H562 0.956 . S
C550 H563 0.961 . S
C550 H564 0.961 . S
C551 C548 1.539 . S
C551 H565 0.958 . S
C551 H566 0.961 . S
C551 H567 0.960 . S
H552 C536 0.931 . S
H553 C541 0.929 . S
H554 C542 0.960 . S
H555 C542 0.962 . S
H556 C542 0.960 . S
H557 C543 0.961 . S
H558 C543 0.961 . S
H559 C543 0.961 . S
H560 C544 0.931 . S
H561 C549 0.930 . S
H562 C550 0.956 . S
H563 C550 0.961 . S
H564 C550 0.961 . S
H565 C551 0.958 . S
H566 C551 0.961 . S
H567 C551 0.960 . S
C568 C569 1.353 1_655 S
C568 C570 1.394 . S
C568 H584 0.931 . S
C569 C568 1.353 1_455 S
C569 C573 1.415 . S
C570 C568 1.394 . S
C570 C571 1.369 1_655 S
C570 C574 1.531 . S
C571 C570 1.369 1_455 S
C571 C572 1.410 . S
C571 C579 1.503 . S
C572 C571 1.410 . S
C572 C573 1.392 . S
C572 C575 1.511 . S
C573 C569 1.415 . S
C573 C572 1.392 . S
C573 H585 0.929 . S
C574 C570 1.531 . S
C574 H586 0.960 . S
C574 H587 0.962 . S
C574 H588 0.960 . S
C575 C572 1.511 . S
C575 H589 0.961 . S
C575 H590 0.961 . S
C575 H591 0.961 . S
C576 C577 1.370 1_655 S
C576 C578 1.363 . S
C576 H592 0.931 . S
C577 C576 1.370 1_455 S
C577 C581 1.408 . S
C578 C576 1.363 . S
C578 C579 1.370 1_655 S
C578 C582 1.524 . S
C579 C571 1.503 . S
C579 C578 1.370 1_455 S
C579 C580 1.403 . S
C580 C579 1.403 . S
C580 C581 1.404 . S
C580 C583 1.539 . S
C581 C577 1.408 . S
C581 C580 1.404 . S
C581 H593 0.930 . S
C582 C578 1.524 . S
C582 H594 0.956 . S
C582 H595 0.961 1_655 S
C582 H596 0.961 . S
C583 C580 1.539 . S
C583 H597 0.982 . S
C583 H598 0.961 . S
C583 H599 0.960 . S
H584 C568 0.931 . S
H585 C573 0.929 . S
H586 C574 0.960 . S
H587 C574 0.962 . S
H588 C574 0.960 . S
H589 C575 0.961 . S
H590 C575 0.961 . S
H591 C575 0.961 . S
H592 C576 0.931 . S
H593 C581 0.930 . S
H594 C582 0.956 . S
H595 C582 0.961 1_455 S
H596 C582 0.961 . S
H597 C583 0.982 . S
H598 C583 0.961 . S
H599 C583 0.960 . S
C600 C601 1.391 . S
C600 C602 1.394 . S
C600 H616 0.931 . S
C601 C600 1.391 . S
C601 C605 1.376 1_545 S
C602 C600 1.394 . S
C602 C603 1.369 . S
C602 C606 1.531 . S
C603 C602 1.369 . S
C603 C604 1.410 1_545 S
C603 C611 1.503 . S
C604 C603 1.410 1_565 S
C604 C605 1.392 . S
C604 C607 1.511 . S
C605 C601 1.376 1_565 S
C605 C604 1.392 . S
C605 H617 0.929 . S
C606 C602 1.531 . S
C606 H618 0.960 1_554 S
C606 H619 0.962 1_554 S
C606 H620 0.960 . S
C607 C604 1.511 . S
C607 H621 0.961 . S
C607 H622 0.961 . S
C607 H623 0.961 . S
C608 C609 1.382 . S
C608 C610 1.363 . S
C608 H624 0.931 . S
C609 C608 1.382 . S
C609 C613 1.395 1_565 S
C610 C608 1.363 . S
C610 C611 1.370 1_566 S
C610 C614 1.524 . S
C611 C603 1.503 . S
C611 C610 1.370 1_544 S
C611 C612 1.403 1_554 S
C612 C611 1.403 1_556 S
C612 C613 1.404 . S
C612 C615 1.539 1_556 S
C613 C609 1.395 1_545 S
C613 C612 1.404 . S
C613 H625 0.930 . S
C614 C610 1.524 . S
C614 H626 0.956 . S
C614 H627 0.961 1_556 S
C614 H628 0.961 . S
C615 C612 1.539 1_554 S
C615 H629 0.958 . S
C615 H630 0.961 . S
C615 H631 0.960 . S
H616 C600 0.931 . S
H617 C605 0.929 . S
H618 C606 0.960 1_556 S
H619 C606 0.962 1_556 S
H620 C606 0.960 . S
H621 C607 0.961 . S
H622 C607 0.961 . S
H623 C607 0.961 . S
H624 C608 0.931 . S
H625 C613 0.930 . S
H626 C614 0.956 . S
H627 C614 0.961 1_554 S
H628 C614 0.961 . S
H629 C615 0.958 . S
H630 C615 0.961 . S
H631 C615 0.960 . S
C632 C633 1.391 . S
C632 C634 1.394 . S
C632 H648 0.931 . S
C633 C632 1.391 . S
C633 C637 1.376 . S
C634 C632 1.394 . S
C634 C635 1.369 . S
C634 C638 1.531 . S
C635 C634 1.369 . S
C635 C636 1.410 . S
C635 C643 1.503 1_554 S
C636 C635 1.410 . S
C636 C637 1.392 . S
C636 C639 1.511 . S
C637 C633 1.376 . S
C637 C636 1.392 . S
C637 H649 0.929 . S
C638 C634 1.531 . S
C638 H650 0.960 . S
C638 H651 0.962 . S
C638 H652 0.960 . S
C639 C636 1.511 . S
C639 H653 0.961 . S
C639 H654 0.961 . S
C639 H655 0.961 . S
C640 C641 1.370 . S
C640 C642 1.363 . S
C640 H656 0.931 . S
C641 C640 1.370 . S
C641 C645 1.408 . S
C642 C640 1.363 . S
C642 C643 1.370 . S
C642 C646 1.524 1_556 S
C643 C635 1.503 1_556 S
C643 C642 1.370 . S
C643 C644 1.403 . S
C644 C643 1.403 . S
C644 C645 1.404 . S
C644 C647 1.539 . S
C645 C641 1.408 . S
C645 C644 1.404 . S
C645 H657 0.930 . S
C646 C642 1.524 1_554 S
C646 H658 0.956 . S
C646 H659 0.961 . S
C646 H660 0.961 . S
C647 C644 1.539 . S
C647 H661 0.958 . S
C647 H662 0.961 . S
C647 H663 0.960 . S
H648 C632 0.931 . S
H649 C637 0.929 . S
H650 C638 0.960 . S
H651 C638 0.962 . S
H652 C638 0.960 . S
H653 C639 0.961 . S
H654 C639 0.961 . S
H655 C639 0.961 . S
H656 C640 0.931 . S
H657 C645 0.930 . S
H658 C646 0.956 . S
H659 C646 0.961 . S
H660 C646 0.961 . S
H661 C647 0.958 . S
H662 C647 0.961 . S
H663 C647 0.960 . S
C664 C665 1.391 . S
C664 C666 1.394 . S
C664 H680 0.931 . S
C665 C664 1.391 . S
C665 C669 1.376 . S
C666 C664 1.394 . S
C666 C667 1.369 . S
C666 C670 1.531 . S
C667 C666 1.369 . S
C667 C668 1.410 . S
C667 C675 1.503 . S
C668 C667 1.410 . S
C668 C669 1.392 . S
C668 C671 1.511 . S
C669 C665 1.376 . S
C669 C668 1.392 . S
C669 H681 0.929 . S
C670 C666 1.531 . S
C670 H682 0.960 . S
C670 H683 0.962 . S
C670 H684 0.960 . S
C671 C668 1.511 . S
C671 H685 0.961 . S
C671 H686 0.961 . S
C671 H687 0.961 . S
C672 C673 1.370 . S
C672 C674 1.363 . S
C672 H688 0.931 . S
C673 C672 1.370 . S
C673 C677 1.408 . S
C674 C672 1.363 . S
C674 C675 1.370 1_556 S
C674 C678 1.524 . S
C675 C667 1.503 . S
C675 C674 1.370 1_554 S
C675 C676 1.403 1_554 S
C676 C675 1.403 1_556 S
C676 C677 1.404 . S
C676 C679 1.539 1_556 S
C677 C673 1.408 . S
C677 C676 1.404 . S
C677 H689 0.930 . S
C678 C674 1.524 . S
C678 H690 0.956 . S
C678 H691 0.961 . S
C678 H692 0.961 . S
C679 C676 1.539 1_554 S
C679 H693 0.958 . S
C679 H694 0.961 . S
C679 H695 0.960 . S
H680 C664 0.931 . S
H681 C669 0.929 . S
H682 C670 0.960 . S
H683 C670 0.962 . S
H684 C670 0.960 . S
H685 C671 0.961 . S
H686 C671 0.961 . S
H687 C671 0.961 . S
H688 C672 0.931 . S
H689 C677 0.930 . S
H690 C678 0.956 . S
H691 C678 0.961 . S
H692 C678 0.961 . S
H693 C679 0.958 . S
H694 C679 0.961 . S
H695 C679 0.960 . S
C696 C697 1.391 1_455 S
C696 C698 1.394 . S
C696 H712 0.931 . S
C697 C696 1.391 1_655 S
C697 C701 1.376 . S
C698 C696 1.394 . S
C698 C699 1.369 1_455 S
C698 C702 1.531 . S
C699 C698 1.369 1_655 S
C699 C700 1.410 . S
C699 C707 1.503 . S
C700 C699 1.410 . S
C700 C701 1.392 . S
C700 C703 1.511 . S
C701 C697 1.376 . S
C701 C700 1.392 . S
C701 H713 0.929 . S
C702 C698 1.531 . S
C702 H714 0.960 . S
C702 H715 0.962 . S
C702 H716 0.960 . S
C703 C700 1.511 . S
C703 H717 0.961 . S
C703 H718 0.961 1_554 S
C703 H719 0.961 . S
C704 C705 1.370 1_455 S
C704 C706 1.363 . S
C704 H720 0.931 . S
C705 C704 1.370 1_655 S
C705 C709 1.408 . S
C706 C704 1.363 . S
C706 C707 1.370 1_456 S
C706 C710 1.524 . S
C707 C699 1.503 . S
C707 C706 1.370 1_654 S
C707 C708 1.403 1_554 S
C708 C707 1.403 1_556 S
C708 C709 1.404 . S
C708 C711 1.539 1_556 S
C709 C705 1.408 . S
C709 C708 1.404 . S
C709 H721 0.930 . S
C710 C706 1.524 . S
C710 H722 0.956 1_556 S
C710 H723 0.961 . S
C710 H724 0.961 . S
C711 C708 1.539 1_554 S
C711 H725 0.958 . S
C711 H726 0.961 . S
C711 H727 0.960 . S
H712 C696 0.931 . S
H713 C701 0.929 . S
H714 C702 0.960 . S
H715 C702 0.962 . S
H716 C702 0.960 . S
H717 C703 0.961 . S
H718 C703 0.961 1_556 S
H719 C703 0.961 . S
H720 C704 0.931 . S
H721 C709 0.930 . S
H722 C710 0.956 1_554 S
H723 C710 0.961 . S
H724 C710 0.961 . S
H725 C711 0.958 . S
H726 C711 0.961 . S
H727 C711 0.960 . S
C728 C729 1.391 . S
C728 C730 1.394 . S
C728 H744 0.931 . S
C729 C728 1.391 . S
C729 C733 1.376 1_455 S
C730 C728 1.394 . S
C730 C731 1.369 1_455 S
C730 C734 1.531 . S
C731 C730 1.369 1_655 S
C731 C732 1.410 . S
C731 C739 1.503 . S
C732 C731 1.410 . S
C732 C733 1.392 . S
C732 C735 1.511 . S
C733 C729 1.376 1_655 S
C733 C732 1.392 . S
C733 H745 0.929 . S
C734 C730 1.531 . S
C734 H746 0.960 . S
C734 H747 0.962 . S
C734 H748 0.960 . S
C735 C732 1.511 . S
C735 H749 0.961 . S
C735 H750 0.961 . S
C735 H751 0.961 . S
C736 C737 1.370 . S
C736 C738 1.363 . S
C736 H752 0.931 . S
C737 C736 1.370 . S
C737 C741 1.408 . S
C738 C736 1.363 . S
C738 C739 1.370 . S
C738 C742 1.524 . S
C739 C731 1.503 . S
C739 C738 1.370 . S
C739 C740 1.403 . S
C740 C739 1.403 . S
C740 C741 1.404 . S
C740 C743 1.539 . S
C741 C737 1.408 . S
C741 C740 1.404 . S
C741 H753 0.930 . S
C742 C738 1.524 . S
C742 H754 0.956 1_655 S
C742 H755 0.961 . S
C742 H756 0.961 . S
C743 C740 1.539 . S
C743 H757 0.958 . S
C743 H758 0.961 . S
C743 H759 0.960 . S
H744 C728 0.931 . S
H745 C733 0.929 . S
H746 C734 0.960 . S
H747 C734 0.962 . S
H748 C734 0.960 . S
H749 C735 0.961 . S
H750 C735 0.961 . S
H751 C735 0.961 . S
H752 C736 0.931 . S
H753 C741 0.930 . S
H754 C742 0.956 1_455 S
H755 C742 0.961 . S
H756 C742 0.961 . S
H757 C743 0.958 . S
H758 C743 0.961 . S
H759 C743 0.960 . S
C760 C761 1.391 1_565 S
C760 C762 1.394 . S
C760 H776 0.931 . S
C761 C760 1.391 1_545 S
C761 C765 1.376 . S
C762 C760 1.394 . S
C762 C763 1.369 . S
C762 C766 1.531 . S
C763 C762 1.369 . S
C763 C764 1.410 1_565 S
C763 C771 1.503 . S
C764 C763 1.410 1_545 S
C764 C765 1.392 . S
C764 C767 1.511 . S
C765 C761 1.376 . S
C765 C764 1.392 . S
C765 H777 0.929 . S
C766 C762 1.531 . S
C766 H778 0.960 . S
C766 H779 0.962 . S
C766 H780 0.960 . S
C767 C764 1.511 . S
C767 H781 0.961 . S
C767 H782 0.961 . S
C767 H783 0.961 . S
C768 C769 1.370 . S
C768 C770 1.363 . S
C768 H784 0.931 . S
C769 C768 1.370 . S
C769 C773 1.408 . S
C770 C768 1.363 . S
C770 C771 1.370 . S
C770 C774 1.524 . S
C771 C763 1.503 . S
C771 C770 1.370 . S
C771 C772 1.403 . S
C772 C771 1.403 . S
C772 C773 1.404 . S
C772 C775 1.539 . S
C773 C769 1.408 . S
C773 C772 1.404 . S
C773 H785 0.930 . S
C774 C770 1.524 . S
C774 H786 0.956 . S
C774 H787 0.961 1_565 S
C774 H788 0.961 . S
C775 C772 1.539 . S
C775 H789 0.958 . S
C775 H790 0.961 . S
C775 H791 0.960 . S
H776 C760 0.931 . S
H777 C765 0.929 . S
H778 C766 0.960 . S
H779 C766 0.962 . S
H780 C766 0.960 . S
H781 C767 0.961 . S
H782 C767 0.961 . S
H783 C767 0.961 . S
H784 C768 0.931 . S
H785 C773 0.930 . S
H786 C774 0.956 . S
H787 C774 0.961 1_545 S
H788 C774 0.961 . S
H789 C775 0.958 . S
H790 C775 0.961 . S
H791 C775 0.960 . S
C792 C793 1.391 . S
C792 C794 1.394 . S
C792 H808 0.931 . S
C793 C792 1.391 . S
C793 C797 1.376 . S
C794 C792 1.394 . S
C794 C795 1.369 . S
C794 C798 1.531 . S
C795 C794 1.369 . S
C795 C796 1.410 . S
C795 C803 1.503 . S
C796 C795 1.410 . S
C796 C797 1.392 . S
C796 C799 1.511 . S
C797 C793 1.376 . S
C797 C796 1.392 . S
C797 H809 0.929 . S
C798 C794 1.531 . S
C798 H810 0.960 . S
C798 H811 0.962 . S
C798 H812 0.960 . S
C799 C796 1.511 . S
C799 H813 0.961 . S
C799 H814 0.961 . S
C799 H815 0.961 . S
C800 C801 1.370 . S
C800 C802 1.363 . S
C800 H816 0.931 . S
C801 C800 1.370 . S
C801 C805 1.408 . S
C802 C800 1.363 . S
C802 C803 1.370 . S
C802 C806 1.524 . S
C803 C795 1.503 . S
C803 C802 1.370 . S
C803 C804 1.403 . S
C804 C803 1.403 . S
C804 C805 1.404 . S
C804 C807 1.539 . S
C805 C801 1.408 . S
C805 C804 1.404 . S
C805 H817 0.930 . S
C806 C802 1.524 . S
C806 H818 0.956 . S
C806 H819 0.961 . S
C806 H820 0.961 . S
C807 C804 1.539 . S
C807 H821 0.958 . S
C807 H822 0.961 . S
C807 H823 0.960 . S
H808 C792 0.931 . S
H809 C797 0.929 . S
H810 C798 0.960 . S
H811 C798 0.962 . S
H812 C798 0.960 . S
H813 C799 0.961 . S
H814 C799 0.961 . S
H815 C799 0.961 . S
H816 C800 0.931 . S
H817 C805 0.930 . S
H818 C806 0.956 . S
H819 C806 0.961 . S
H820 C806 0.961 . S
H821 C807 0.958 . S
H822 C807 0.961 . S
H823 C807 0.960 . S
C824 C825 1.391 . S
C824 C826 1.394 . S
C824 H840 0.931 . S
C825 C824 1.391 . S
C825 C829 1.376 . S
C826 C824 1.394 . S
C826 C827 1.369 . S
C826 C830 1.531 . S
C827 C826 1.369 . S
C827 C828 1.410 . S
C827 C835 1.503 . S
C828 C827 1.410 . S
C828 C829 1.392 . S
C828 C831 1.511 . S
C829 C825 1.376 . S
C829 C828 1.392 . S
C829 H841 0.929 . S
C830 C826 1.531 . S
C830 H842 0.960 . S
C830 H843 0.962 . S
C830 H844 0.960 . S
C831 C828 1.511 . S
C831 H845 0.961 . S
C831 H846 0.961 . S
C831 H847 0.961 . S
C832 C833 1.370 . S
C832 C834 1.363 . S
C832 H848 0.931 . S
C833 C832 1.370 . S
C833 C837 1.408 . S
C834 C832 1.363 . S
C834 C835 1.370 . S
C834 C838 1.524 . S
C835 C827 1.503 . S
C835 C834 1.370 . S
C835 C836 1.403 . S
C836 C835 1.403 . S
C836 C837 1.404 . S
C836 C839 1.539 . S
C837 C833 1.408 . S
C837 C836 1.404 . S
C837 H849 0.930 . S
C838 C834 1.524 . S
C838 H850 0.956 . S
C838 H851 0.961 . S
C838 H852 0.961 . S
C839 C836 1.539 . S
C839 H853 0.958 . S
C839 H854 0.961 . S
C839 H855 0.960 . S
H840 C824 0.931 . S
H841 C829 0.929 . S
H842 C830 0.960 . S
H843 C830 0.962 . S
H844 C830 0.960 . S
H845 C831 0.961 . S
H846 C831 0.961 . S
H847 C831 0.961 . S
H848 C832 0.931 . S
H849 C837 0.930 . S
H850 C838 0.956 . S
H851 C838 0.961 . S
H852 C838 0.961 . S
H853 C839 0.958 . S
H854 C839 0.961 . S
H855 C839 0.960 . S
C856 C857 1.391 . S
C856 C858 1.394 . S
C856 H872 0.931 . S
C857 C856 1.391 . S
C857 C861 1.376 1_655 S
C858 C856 1.394 . S
C858 C859 1.369 1_655 S
C858 C862 1.531 . S
C859 C858 1.369 1_455 S
C859 C860 1.410 . S
C859 C867 1.503 . S
C860 C859 1.410 . S
C860 C861 1.392 . S
C860 C863 1.511 . S
C861 C857 1.376 1_455 S
C861 C860 1.392 . S
C861 H873 0.929 . S
C862 C858 1.531 . S
C862 H874 0.960 . S
C862 H875 0.962 . S
C862 H876 0.960 . S
C863 C860 1.511 . S
C863 H877 0.961 1_554 S
C863 H878 0.961 1_554 S
C863 H879 0.961 . S
C864 C865 1.370 . S
C864 C866 1.363 . S
C864 H880 0.931 . S
C865 C864 1.370 . S
C865 C869 1.408 1_556 S
C866 C864 1.363 . S
C866 C867 1.370 1_556 S
C866 C870 1.524 1_455 S
C867 C859 1.503 . S
C867 C866 1.370 1_554 S
C867 C868 1.403 . S
C868 C867 1.403 . S
C868 C869 1.404 . S
C868 C871 1.539 . S
C869 C865 1.408 1_554 S
C869 C868 1.404 . S
C869 H881 0.930 . S
C870 C866 1.524 1_655 S
C870 H882 0.956 . S
C870 H883 0.961 1_655 S
C870 H884 0.961 . S
C871 C868 1.539 . S
C871 H885 0.958 . S
C871 H886 0.961 . S
C871 H887 0.960 . S
H872 C856 0.931 . S
H873 C861 0.929 . S
H874 C862 0.960 . S
H875 C862 0.962 . S
H876 C862 0.960 . S
H877 C863 0.961 1_556 S
H878 C863 0.961 1_556 S
H879 C863 0.961 . S
H880 C864 0.931 . S
H881 C869 0.930 . S
H882 C870 0.956 . S
H883 C870 0.961 1_455 S
H884 C870 0.961 . S
H885 C871 0.958 . S
H886 C871 0.961 . S
H887 C871 0.960 . S
C888 C889 1.391 . S
C888 C890 1.394 . S
C888 H904 0.931 . S
C889 C888 1.391 . S
C889 C893 1.376 1_565 S
C890 C888 1.394 . S
C890 C891 1.369 1_565 S
C890 C894 1.531 1_554 S
C891 C890 1.369 1_545 S
C891 C892 1.410 . S
C891 C899 1.503 . S
C892 C891 1.410 . S
C892 C893 1.392 . S
C892 C895 1.511 . S
C893 C889 1.376 1_545 S
C893 C892 1.392 . S
C893 H905 0.929 . S
C894 C890 1.531 1_556 S
C894 H906 0.960 . S
C894 H907 0.962 . S
C894 H908 0.960 . S
C895 C892 1.511 . S
C895 H909 0.961 . S
C895 H910 0.961 . S
C895 H911 0.961 . S
C896 C897 1.370 . S
C896 C898 1.363 . S
C896 H912 0.931 . S
C897 C896 1.370 . S
C897 C901 1.408 . S
C898 C896 1.363 . S
C898 C899 1.370 1_556 S
C898 C902 1.524 . S
C899 C891 1.503 . S
C899 C898 1.370 1_554 S
C899 C900 1.403 . S
C900 C899 1.403 . S
C900 C901 1.404 1_554 S
C900 C903 1.539 1_545 S
C901 C897 1.408 . S
C901 C900 1.404 1_556 S
C901 H913 0.930 1_556 S
C902 C898 1.524 . S
C902 H914 0.956 . S
C902 H915 0.961 1_556 S
C902 H916 0.961 . S
C903 C900 1.539 1_565 S
C903 H917 0.958 . S
C903 H918 0.961 . S
C903 H919 0.960 . S
H904 C888 0.931 . S
H905 C893 0.929 . S
H906 C894 0.960 . S
H907 C894 0.962 . S
H908 C894 0.960 . S
H909 C895 0.961 . S
H910 C895 0.961 . S
H911 C895 0.961 . S
H912 C896 0.931 . S
H913 C901 0.930 1_554 S
H914 C902 0.956 . S
H915 C902 0.961 1_554 S
H916 C902 0.961 . S
H917 C903 0.958 . S
H918 C903 0.961 . S
H919 C903 0.960 . S
C920 C921 1.391 . S
C920 C922 1.394 . S
C920 H936 0.931 . S
C921 C920 1.391 . S
C921 C925 1.376 . S
C922 C920 1.394 . S
C922 C923 1.369 . S
C922 C926 1.531 . S
C923 C922 1.369 . S
C923 C924 1.410 . S
C923 C931 1.503 . S
C924 C923 1.410 . S
C924 C925 1.392 . S
C924 C927 1.511 1_554 S
C925 C921 1.376 . S
C925 C924 1.392 . S
C925 H937 0.929 . S
C926 C922 1.531 . S
C926 H938 0.960 . S
C926 H939 0.962 . S
C926 H940 0.960 . S
C927 C924 1.511 1_556 S
C927 H941 0.961 . S
C927 H942 0.961 . S
C927 H943 0.961 . S
C928 C929 1.370 . S
C928 C930 1.363 . S
C928 H944 0.931 . S
C929 C928 1.370 . S
C929 C933 1.408 . S
C930 C928 1.363 . S
C930 C931 1.370 1_556 S
C930 C934 1.524 . S
C931 C923 1.503 . S
C931 C930 1.370 1_554 S
C931 C932 1.403 . S
C932 C931 1.403 . S
C932 C933 1.404 1_554 S
C932 C935 1.539 . S
C933 C929 1.408 . S
C933 C932 1.404 1_556 S
C933 H945 0.930 1_556 S
C934 C930 1.524 . S
C934 H946 0.956 1_556 S
C934 H947 0.961 . S
C934 H948 0.961 . S
C935 C932 1.539 . S
C935 H949 0.958 . S
C935 H950 0.961 . S
C935 H951 0.960 . S
H936 C920 0.931 . S
H937 C925 0.929 . S
H938 C926 0.960 . S
H939 C926 0.962 . S
H940 C926 0.960 . S
H941 C927 0.961 . S
H942 C927 0.961 . S
H943 C927 0.961 . S
H944 C928 0.931 . S
H945 C933 0.930 1_554 S
H946 C934 0.956 1_554 S
H947 C934 0.961 . S
H948 C934 0.961 . S
H949 C935 0.958 . S
H950 C935 0.961 . S
H951 C935 0.960 . S
C952 C953 1.391 . S
C952 C954 1.394 . S
C952 H968 0.931 . S
C953 C952 1.391 . S
C953 C957 1.376 . S
C954 C952 1.394 . S
C954 C955 1.369 . S
C954 C958 1.531 . S
C955 C954 1.369 . S
C955 C956 1.410 . S
C955 C963 1.503 . S
C956 C955 1.410 . S
C956 C957 1.392 . S
C956 C959 1.511 1_554 S
C957 C953 1.376 . S
C957 C956 1.392 . S
C957 H969 0.929 . S
C958 C954 1.531 . S
C958 H970 0.960 . S
C958 H971 0.962 . S
C958 H972 0.960 . S
C959 C956 1.511 1_556 S
C959 H973 0.961 . S
C959 H974 0.961 . S
C959 H975 0.961 . S
C960 C961 1.370 . S
C960 C962 1.363 . S
C960 H976 0.931 . S
C961 C960 1.370 . S
C961 C965 1.405 1_556 S
C962 C960 1.363 . S
C962 C963 1.370 1_556 S
C962 C966 1.524 . S
C963 C955 1.503 . S
C963 C962 1.370 1_554 S
C963 C964 1.403 . S
C964 C963 1.403 . S
C964 C965 1.406 . S
C964 C967 1.539 . S
C965 C961 1.405 1_554 S
C965 C964 1.406 . S
C965 H977 0.930 . S
C966 C962 1.524 . S
C966 H978 0.956 1_556 S
C966 H979 0.961 . S
C966 H980 0.961 . S
C967 C964 1.539 . S
C967 H981 0.958 . S
C967 H982 0.961 . S
C967 H983 0.960 . S
H968 C952 0.931 . S
H969 C957 0.929 . S
H970 C958 0.960 . S
H971 C958 0.962 . S
H972 C958 0.960 . S
H973 C959 0.961 . S
H974 C959 0.961 . S
H975 C959 0.961 . S
H976 C960 0.931 . S
H977 C965 0.930 . S
H978 C966 0.956 1_554 S
H979 C966 0.961 . S
H980 C966 0.961 . S
H981 C967 0.958 . S
H982 C967 0.961 . S
H983 C967 0.960 . S
C984 C985 1.391 . S
C984 C986 1.394 . S
C984 H1000 0.931 . S
C985 C984 1.391 . S
C985 C989 1.376 1_455 S
C986 C984 1.394 . S
C986 C987 1.369 . S
C986 C990 1.531 . S
C987 C986 1.369 . S
C987 C988 1.410 1_455 S
C987 C995 1.503 . S
C988 C987 1.410 1_655 S
C988 C989 1.392 . S
C988 C991 1.511 . S
C989 C985 1.376 1_655 S
C989 C988 1.392 . S
C989 H1001 0.929 . S
C990 C986 1.531 . S
C990 H1002 0.960 . S
C990 H1003 0.962 . S
C990 H1004 0.960 . S
C991 C988 1.511 . S
C991 H1005 0.961 . S
C991 H1006 0.961 . S
C991 H1007 0.961 . S
C992 C993 1.370 . S
C992 C994 1.363 . S
C992 H1008 0.931 . S
C993 C992 1.370 . S
C993 C997 1.408 . S
C994 C992 1.363 . S
C994 C995 1.370 . S
C994 C998 1.524 . S
C995 C987 1.503 . S
C995 C994 1.370 . S
C995 C996 1.403 . S
C996 C995 1.403 . S
C996 C997 1.404 . S
C996 C999 1.539 1_455 S
C997 C993 1.408 . S
C997 C996 1.404 . S
C997 H1009 0.930 . S
C998 C994 1.524 . S
C998 H1010 0.956 . S
C998 H1011 0.999 . S
C998 H1012 0.961 . S
C999 C996 1.539 1_655 S
C999 H1013 0.958 1_655 S
C999 H1014 0.961 . S
C999 H1015 0.960 . S
H1000 C984 0.931 . S
H1001 C989 0.929 . S
H1002 C990 0.960 . S
H1003 C990 0.962 . S
H1004 C990 0.960 . S
H1005 C991 0.961 . S
H1006 C991 0.961 . S
H1007 C991 0.961 . S
H1008 C992 0.931 . S
H1009 C997 0.930 . S
H1010 C998 0.956 . S
H1011 C998 0.999 . S
H1012 C998 0.961 . S
H1013 C999 0.958 1_455 S
H1014 C999 0.961 . S
H1015 C999 0.960 . S
C1016 C1017 1.391 1_565 S
C1016 C1018 1.394 . S
C1016 H1032 0.931 . S
C1017 C1016 1.391 1_545 S
C1017 C1021 1.376 . S
C1018 C1016 1.394 . S
C1018 C1019 1.369 1_565 S
C1018 C1022 1.531 . S
C1019 C1018 1.369 1_545 S
C1019 C1020 1.410 . S
C1019 C1027 1.503 . S
C1020 C1019 1.410 . S
C1020 C1021 1.392 . S
C1020 C1023 1.511 . S
C1021 C1017 1.376 . S
C1021 C1020 1.392 . S
C1021 H1033 0.929 . S
C1022 C1018 1.531 . S
C1022 H1034 0.960 . S
C1022 H1035 0.962 . S
C1022 H1036 0.960 . S
C1023 C1020 1.511 . S
C1023 H1037 0.961 . S
C1023 H1038 0.961 . S
C1023 H1039 0.961 . S
C1024 C1025 1.370 1_565 S
C1024 C1026 1.363 . S
C1024 H1040 0.931 . S
C1025 C1024 1.370 1_545 S
C1025 C1029 1.408 . S
C1026 C1024 1.363 . S
C1026 C1027 1.370 1_565 S
C1026 C1030 1.524 . S
C1027 C1019 1.503 . S
C1027 C1026 1.370 1_545 S
C1027 C1028 1.403 . S
C1028 C1027 1.403 . S
C1028 C1029 1.404 . S
C1028 C1031 1.539 . S
C1029 C1025 1.408 . S
C1029 C1028 1.404 . S
C1029 H1041 0.930 . S
C1030 C1026 1.524 . S
C1030 H1042 0.956 . S
C1030 H1043 0.961 . S
C1030 H1044 0.961 . S
C1031 C1028 1.539 . S
C1031 H1045 0.958 . S
C1031 H1046 0.961 . S
C1031 H1047 0.960 . S
H1032 C1016 0.931 . S
H1033 C1021 0.929 . S
H1034 C1022 0.960 . S
H1035 C1022 0.962 . S
H1036 C1022 0.960 . S
H1037 C1023 0.961 . S
H1038 C1023 0.961 . S
H1039 C1023 0.961 . S
H1040 C1024 0.931 . S
H1041 C1029 0.930 . S
H1042 C1030 0.956 . S
H1043 C1030 0.961 . S
H1044 C1030 0.961 . S
H1045 C1031 0.958 . S
H1046 C1031 0.961 . S
H1047 C1031 0.960 . S
C1048 C1049 1.391 . S
C1048 C1050 1.394 . S
C1048 H1064 0.931 . S
C1049 C1048 1.391 . S
C1049 C1053 1.376 . S
C1050 C1048 1.394 . S
C1050 C1051 1.369 . S
C1050 C1054 1.531 . S
C1051 C1050 1.369 . S
C1051 C1052 1.410 . S
C1051 C1059 1.503 . S
C1052 C1051 1.410 . S
C1052 C1053 1.392 . S
C1052 C1055 1.511 . S
C1053 C1049 1.376 . S
C1053 C1052 1.392 . S
C1053 H1065 0.929 . S
C1054 C1050 1.531 . S
C1054 H1066 0.960 . S
C1054 H1067 0.962 . S
C1054 H1068 0.960 . S
C1055 C1052 1.511 . S
C1055 H1069 0.961 . S
C1055 H1070 0.961 . S
C1055 H1071 0.961 . S
C1056 C1057 1.370 . S
C1056 C1058 1.363 . S
C1056 H1072 0.931 . S
C1057 C1056 1.370 . S
C1057 C1061 1.408 . S
C1058 C1056 1.363 . S
C1058 C1059 1.370 . S
C1058 C1062 1.524 . S
C1059 C1051 1.503 . S
C1059 C1058 1.370 . S
C1059 C1060 1.403 . S
C1060 C1059 1.403 . S
C1060 C1061 1.404 . S
C1060 C1063 1.539 . S
C1061 C1057 1.408 . S
C1061 C1060 1.404 . S
C1061 H1073 0.930 . S
C1062 C1058 1.524 . S
C1062 H1074 0.956 . S
C1062 H1075 0.961 . S
C1062 H1076 0.961 . S
C1063 C1060 1.539 . S
C1063 H1077 0.958 . S
C1063 H1078 0.961 . S
C1063 H1079 0.960 . S
H1064 C1048 0.931 . S
H1065 C1053 0.929 . S
H1066 C1054 0.960 . S
H1067 C1054 0.962 . S
H1068 C1054 0.960 . S
H1069 C1055 0.961 . S
H1070 C1055 0.961 . S
H1071 C1055 0.961 . S
H1072 C1056 0.931 . S
H1073 C1061 0.930 . S
H1074 C1062 0.956 . S
H1075 C1062 0.961 . S
H1076 C1062 0.961 . S
H1077 C1063 0.958 . S
H1078 C1063 0.961 . S
H1079 C1063 0.960 . S
C1080 C1081 1.391 . S
C1080 C1082 1.394 . S
C1080 H1096 0.931 . S
C1081 C1080 1.391 . S
C1081 C1085 1.376 . S
C1082 C1080 1.394 . S
C1082 C1083 1.369 . S
C1082 C1086 1.531 . S
C1083 C1082 1.369 . S
C1083 C1084 1.410 . S
C1083 C1091 1.503 . S
C1084 C1083 1.410 . S
C1084 C1085 1.392 . S
C1084 C1087 1.511 . S
C1085 C1081 1.376 . S
C1085 C1084 1.392 . S
C1085 H1097 0.929 . S
C1086 C1082 1.531 . S
C1086 H1098 0.960 . S
C1086 H1099 0.962 . S
C1086 H1100 0.960 . S
C1087 C1084 1.511 . S
C1087 H1101 0.961 . S
C1087 H1102 0.961 . S
C1087 H1103 0.961 . S
C1088 C1089 1.370 . S
C1088 C1090 1.363 . S
C1088 H1104 0.931 . S
C1089 C1088 1.370 . S
C1089 C1093 1.408 . S
C1090 C1088 1.363 . S
C1090 C1091 1.370 . S
C1090 C1094 1.524 . S
C1091 C1083 1.503 . S
C1091 C1090 1.370 . S
C1091 C1092 1.403 . S
C1092 C1091 1.403 . S
C1092 C1093 1.404 . S
C1092 C1095 1.539 . S
C1093 C1089 1.408 . S
C1093 C1092 1.404 . S
C1093 H1105 0.930 . S
C1094 C1090 1.524 . S
C1094 H1106 0.956 . S
C1094 H1107 0.961 . S
C1094 H1108 0.961 . S
C1095 C1092 1.539 . S
C1095 H1109 0.958 . S
C1095 H1110 0.961 . S
C1095 H1111 0.960 . S
H1096 C1080 0.931 . S
H1097 C1085 0.929 . S
H1098 C1086 0.960 . S
H1099 C1086 0.962 . S
H1100 C1086 0.960 . S
H1101 C1087 0.961 . S
H1102 C1087 0.961 . S
H1103 C1087 0.961 . S
H1104 C1088 0.931 . S
H1105 C1093 0.930 . S
H1106 C1094 0.956 . S
H1107 C1094 0.961 . S
H1108 C1094 0.961 . S
H1109 C1095 0.958 . S
H1110 C1095 0.961 . S
H1111 C1095 0.960 . S
C1112 C1113 1.391 . S
C1112 C1114 1.394 . S
C1112 H1128 0.931 . S
C1113 C1112 1.391 . S
C1113 C1117 1.376 1_655 S
C1114 C1112 1.394 . S
C1114 C1115 1.369 . S
C1114 C1118 1.531 . S
C1115 C1114 1.369 . S
C1115 C1116 1.410 1_655 S
C1115 C1123 1.503 . S
C1116 C1115 1.410 1_455 S
C1116 C1117 1.392 . S
C1116 C1119 1.511 . S
C1117 C1113 1.376 1_455 S
C1117 C1116 1.392 . S
C1117 H1129 0.929 . S
C1118 C1114 1.531 . S
C1118 H1130 0.960 . S
C1118 H1131 0.962 . S
C1118 H1132 0.960 . S
C1119 C1116 1.511 . S
C1119 H1133 0.961 . S
C1119 H1134 0.961 . S
C1119 H1135 0.961 . S
C1120 C1121 1.370 . S
C1120 C1122 1.363 . S
C1120 H1136 0.931 . S
C1121 C1120 1.370 . S
C1121 C1125 1.408 . S
C1122 C1120 1.363 . S
C1122 C1123 1.370 . S
C1122 C1126 1.524 . S
C1123 C1115 1.503 . S
C1123 C1122 1.370 . S
C1123 C1124 1.403 . S
C1124 C1123 1.403 . S
C1124 C1125 1.404 . S
C1124 C1127 1.539 1_655 S
C1125 C1121 1.408 . S
C1125 C1124 1.404 . S
C1125 H1137 0.930 . S
C1126 C1122 1.524 . S
C1126 H1138 0.956 . S
C1126 H1139 0.961 . S
C1126 H1140 0.961 . S
C1127 C1124 1.539 1_455 S
C1127 H1141 0.958 1_455 S
C1127 H1142 0.961 . S
C1127 H1143 0.960 . S
H1128 C1112 0.931 . S
H1129 C1117 0.929 . S
H1130 C1118 0.960 . S
H1131 C1118 0.962 . S
H1132 C1118 0.960 . S
H1133 C1119 0.961 . S
H1134 C1119 0.961 . S
H1135 C1119 0.961 . S
H1136 C1120 0.931 . S
H1137 C1125 0.930 . S
H1138 C1126 0.956 . S
H1139 C1126 0.961 . S
H1140 C1126 0.961 . S
H1141 C1127 0.958 1_655 S
H1142 C1127 0.961 . S
H1143 C1127 0.960 . S
C1144 C1145 1.391 1_545 S
C1144 C1146 1.394 . S
C1144 H1160 0.931 . S
C1145 C1144 1.391 1_565 S
C1145 C1149 1.376 . S
C1146 C1144 1.394 . S
C1146 C1147 1.369 1_545 S
C1146 C1150 1.531 . S
C1147 C1146 1.369 1_565 S
C1147 C1148 1.410 . S
C1147 C1155 1.503 . S
C1148 C1147 1.410 . S
C1148 C1149 1.392 . S
C1148 C1151 1.511 . S
C1149 C1145 1.376 . S
C1149 C1148 1.392 . S
C1149 H1161 0.929 . S
C1150 C1146 1.531 . S
C1150 H1162 0.960 . S
C1150 H1163 0.962 . S
C1150 H1164 0.960 . S
C1151 C1148 1.511 . S
C1151 H1165 0.961 . S
C1151 H1166 0.961 . S
C1151 H1167 0.961 . S
C1152 C1153 1.370 . S
C1152 C1154 1.363 . S
C1152 H1168 0.931 . S
C1153 C1152 1.370 . S
C1153 C1157 1.408 . S
C1154 C1152 1.363 . S
C1154 C1155 1.370 . S
C1154 C1158 1.524 . S
C1155 C1147 1.503 . S
C1155 C1154 1.370 . S
C1155 C1156 1.403 . S
C1156 C1155 1.403 . S
C1156 C1157 1.404 . S
C1156 C1159 1.539 1_565 S
C1157 C1153 1.408 . S
C1157 C1156 1.404 . S
C1157 H1169 0.930 . S
C1158 C1154 1.524 . S
C1158 H1170 0.956 . S
C1158 H1171 0.961 . S
C1158 H1172 0.961 . S
C1159 C1156 1.539 1_545 S
C1159 H1173 0.958 . S
C1159 H1174 0.961 1_545 S
C1159 H1175 0.960 1_545 S
H1160 C1144 0.931 . S
H1161 C1149 0.929 . S
H1162 C1150 0.960 . S
H1163 C1150 0.962 . S
H1164 C1150 0.960 . S
H1165 C1151 0.961 . S
H1166 C1151 0.961 . S
H1167 C1151 0.961 . S
H1168 C1152 0.931 . S
H1169 C1157 0.930 . S
H1170 C1158 0.956 . S
H1171 C1158 0.961 . S
H1172 C1158 0.961 . S
H1173 C1159 0.958 . S
H1174 C1159 0.961 1_565 S
H1175 C1159 0.960 1_565 S
C1176 C1177 1.391 . S
C1176 C1178 1.394 . S
C1176 H1192 0.931 . S
C1177 C1176 1.391 . S
C1177 C1181 1.376 . S
C1178 C1176 1.394 . S
C1178 C1179 1.369 . S
C1178 C1182 1.531 . S
C1179 C1178 1.369 . S
C1179 C1180 1.410 . S
C1179 C1187 1.503 . S
C1180 C1179 1.410 . S
C1180 C1181 1.392 . S
C1180 C1183 1.511 . S
C1181 C1177 1.376 . S
C1181 C1180 1.392 . S
C1181 H1193 0.929 . S
C1182 C1178 1.531 . S
C1182 H1194 0.960 . S
C1182 H1195 0.962 . S
C1182 H1196 0.960 . S
C1183 C1180 1.511 . S
C1183 H1197 0.961 . S
C1183 H1198 0.961 . S
C1183 H1199 0.961 . S
C1184 C1185 1.370 . S
C1184 C1186 1.363 . S
C1184 H1200 0.931 . S
C1185 C1184 1.370 . S
C1185 C1189 1.408 . S
C1186 C1184 1.363 . S
C1186 C1187 1.370 . S
C1186 C1190 1.524 . S
C1187 C1179 1.503 . S
C1187 C1186 1.370 . S
C1187 C1188 1.403 . S
C1188 C1187 1.403 . S
C1188 C1189 1.404 . S
C1188 C1191 1.539 . S
C1189 C1185 1.408 . S
C1189 C1188 1.404 . S
C1189 H1201 0.930 . S
C1190 C1186 1.524 . S
C1190 H1202 0.956 . S
C1190 H1203 0.961 . S
C1190 H1204 0.961 . S
C1191 C1188 1.539 . S
C1191 H1205 0.958 . S
C1191 H1206 0.961 . S
C1191 H1207 0.960 . S
H1192 C1176 0.931 . S
H1193 C1181 0.929 . S
H1194 C1182 0.960 . S
H1195 C1182 0.962 . S
H1196 C1182 0.960 . S
H1197 C1183 0.961 . S
H1198 C1183 0.961 . S
H1199 C1183 0.961 . S
H1200 C1184 0.931 . S
H1201 C1189 0.930 . S
H1202 C1190 0.956 . S
H1203 C1190 0.961 . S
H1204 C1190 0.961 . S
H1205 C1191 0.958 . S
H1206 C1191 0.961 . S
H1207 C1191 0.960 . S
C1208 C1209 1.391 . S
C1208 C1210 1.394 . S
C1208 H1224 0.931 . S
C1209 C1208 1.391 . S
C1209 C1213 1.376 . S
C1210 C1208 1.394 . S
C1210 C1211 1.369 . S
C1210 C1214 1.531 . S
C1211 C1210 1.369 . S
C1211 C1212 1.410 . S
C1211 C1219 1.503 . S
C1212 C1211 1.410 . S
C1212 C1213 1.392 . S
C1212 C1215 1.511 . S
C1213 C1209 1.376 . S
C1213 C1212 1.392 . S
C1213 H1225 0.929 . S
C1214 C1210 1.531 . S
C1214 H1226 0.960 . S
C1214 H1227 0.962 . S
C1214 H1228 0.960 . S
C1215 C1212 1.511 . S
C1215 H1229 0.961 . S
C1215 H1230 0.961 . S
C1215 H1231 0.961 . S
C1216 C1217 1.370 . S
C1216 C1218 1.363 . S
C1216 H1232 0.931 . S
C1217 C1216 1.370 . S
C1217 C1221 1.408 . S
C1218 C1216 1.363 . S
C1218 C1219 1.370 . S
C1218 C1222 1.524 . S
C1219 C1211 1.503 . S
C1219 C1218 1.370 . S
C1219 C1220 1.403 . S
C1220 C1219 1.403 . S
C1220 C1221 1.404 . S
C1220 C1223 1.539 . S
C1221 C1217 1.408 . S
C1221 C1220 1.404 . S
C1221 H1233 0.930 . S
C1222 C1218 1.524 . S
C1222 H1234 0.956 . S
C1222 H1235 0.961 . S
C1222 H1236 0.961 . S
C1223 C1220 1.539 . S
C1223 H1237 0.958 . S
C1223 H1238 0.961 . S
C1223 H1239 0.960 . S
H1224 C1208 0.931 . S
H1225 C1213 0.929 . S
H1226 C1214 0.960 . S
H1227 C1214 0.962 . S
H1228 C1214 0.960 . S
H1229 C1215 0.961 . S
H1230 C1215 0.961 . S
H1231 C1215 0.961 . S
H1232 C1216 0.931 . S
H1233 C1221 0.930 . S
H1234 C1222 0.956 . S
H1235 C1222 0.961 . S
H1236 C1222 0.961 . S
H1237 C1223 0.958 . S
H1238 C1223 0.961 . S
H1239 C1223 0.960 . S
C473 C255 2.195 1_545 S
C481 C321 2.353 1_545 S
C513 C361 2.373 . S
C505 C294 2.182 . S
C545 C401 2.365 . S
C537 C177 2.168 . S
C577 C441 2.368 1_455 S
C569 C216 2.145 1_455 S
C609 C330 2.354 1_565 S
C601 C99 2.187 1_545 S
C633 C138 2.125 . S
C641 C370 2.380 . S
C665 C21 2.207 . S
C673 C410 2.367 . S
C697 C60 2.198 . S
C705 C450 2.366 1_655 S
C737 C327 0.457 . S
C729 C196 0.476 1_455 S
C769 C367 0.452 . S
C761 C235 0.347 1_545 S
C801 C407 0.429 . S
C793 C289 0.355 . S
C825 C157 0.364 . S
C833 C447 0.476 . S
C857 C40 0.320 . S
C865 C318 0.473 . S
C897 C358 0.418 . S
C889 C79 0.437 . S
C929 C398 0.475 . S
C921 C133 0.331 . S
C953 C1 0.329 . S
C961 C438 0.482 . S
C985 C211 2.797 . S
C993 C331 3.214 . S
C1017 C250 2.830 . S
C1025 C371 3.204 . S
C1057 C411 3.201 . S
C1049 C274 2.783 . S
C1089 C451 3.205 . S
C1081 C172 2.793 . S
C1113 C55 2.857 1_655 S
C1121 C322 3.224 . S
C1153 C362 3.201 . S
C1145 C94 2.777 1_565 S
C1185 C402 3.205 . S
C1177 C118 2.792 . S
C1209 C16 2.837 . S
C1217 C442 3.217 . S
