# Generated by pormake.
# Topology anh, (6,3)-cn, num edge types: 1
# Building blocks:
#     Node 0, Type 0, BuildingBlock: BETDIP_clean_sbu_0, # of connection points: 6
#     Node 1, Type 0, BuildingBlock: BETDIP_clean_sbu_0, # of connection points: 6
#     Node 2, Type 0, BuildingBlock: BETDIP_clean_sbu_0, # of connection points: 6
#     Node 3, Type 1, BuildingBlock: CUQRIR_clean_linker_1, # of connection points: 3
#     Node 4, Type 1, BuildingBlock: CUQRIR_clean_linker_1, # of connection points: 3
#     Node 5, Type 1, BuildingBlock: CUQRIR_clean_linker_1, # of connection points: 3
#     Node 6, Type 1, BuildingBlock: CUQRIR_clean_linker_1, # of connection points: 3
#     Node 7, Type 1, BuildingBlock: CUQRIR_clean_linker_1, # of connection points: 3
#     Node 8, Type 1, BuildingBlock: CUQRIR_clean_linker_1, # of connection points: 3
#     Edge 9, Type (0, 1), BuildingBlock: OJICUG_clean_linker_0, # of connection points: 2
#     Edge 10, Type (0, 1), BuildingBlock: OJICUG_clean_linker_0, # of connection points: 2
#     Edge 11, Type (0, 1), BuildingBlock: OJICUG_clean_linker_0, # of connection points: 2
#     Edge 12, Type (0, 1), BuildingBlock: OJICUG_clean_linker_0, # of connection points: 2
#     Edge 13, Type (0, 1), BuildingBlock: OJICUG_clean_linker_0, # of connection points: 2
#     Edge 14, Type (0, 1), BuildingBlock: OJICUG_clean_linker_0, # of connection points: 2
#     Edge 15, Type (0, 1), BuildingBlock: OJICUG_clean_linker_0, # of connection points: 2
#     Edge 16, Type (0, 1), BuildingBlock: OJICUG_clean_linker_0, # of connection points: 2
#     Edge 17, Type (0, 1), BuildingBlock: OJICUG_clean_linker_0, # of connection points: 2
#     Edge 18, Type (0, 1), BuildingBlock: OJICUG_clean_linker_0, # of connection points: 2
#     Edge 19, Type (0, 1), BuildingBlock: OJICUG_clean_linker_0, # of connection points: 2
#     Edge 20, Type (0, 1), BuildingBlock: OJICUG_clean_linker_0, # of connection points: 2
#     Edge 21, Type (0, 1), BuildingBlock: OJICUG_clean_linker_0, # of connection points: 2
#     Edge 22, Type (0, 1), BuildingBlock: OJICUG_clean_linker_0, # of connection points: 2
#     Edge 23, Type (0, 1), BuildingBlock: OJICUG_clean_linker_0, # of connection points: 2
#     Edge 24, Type (0, 1), BuildingBlock: OJICUG_clean_linker_0, # of connection points: 2
#     Edge 25, Type (0, 1), BuildingBlock: OJICUG_clean_linker_0, # of connection points: 2
#     Edge 26, Type (0, 1), BuildingBlock: OJICUG_clean_linker_0, # of connection points: 2
# Relax obj value: 0.461
# Max RMSD: 0.215
# Mean RMSD: 0.164
data_MOF--net-anh--node1-BETDIP_clean_sbu_0--node2-CUQRIR_clean_linker_1--edge1-OJICUG_clean_linker_0
_symmetry_space_group_name_H-M    P1
_symmetry_Int_Tables_number       1
_symmetry_cell_setting            triclinic
loop_
_symmetry_equiv_pos_as_xyz
'x, y, z'
_cell_length_a     19.696615
_cell_length_b     19.442535
_cell_length_c     33.257336
_cell_angle_alpha  84.554078
_cell_angle_beta   92.788257
_cell_angle_gamma 120.35427
loop_
_atom_site_label
_atom_site_type_symbol
_atom_site_fract_x
_atom_site_fract_y
_atom_site_fract_z
_atom_type_partial_charge
Tb0 Tb 0.33356 0.72446 0.12668 0.0
Tb1 Tb 0.25537 0.55464 0.13822 0.0
C2 C 0.41089 0.86989 0.13834 0.0
C3 C 0.3879 0.92257 0.15478 0.0
C4 C 0.32475 0.89107 0.18197 0.0
C5 C 0.31331 0.94202 0.20404 0.0
C6 C 0.36341 1.02504 0.19809 0.0
C7 C 0.42002 1.05634 0.16713 0.0
C8 C 0.43279 1.0053 0.1459 0.0
C9 C 0.27976 0.65492 0.05927 0.0
C10 C 0.44026 0.64035 0.11956 0.0
C11 C 1.16021 0.40709 0.13929 0.0
C12 C 1.08586 0.36252 0.16161 0.0
C13 C 1.01532 0.32417 0.13981 0.0
C14 C 0.94515 0.30969 0.15644 0.0
C15 C 0.94514 0.33318 0.19506 0.0
C16 C 1.01383 0.36267 0.21853 0.0
C17 C 1.0838 0.37739 0.20194 0.0
C18 C 0.29628 0.6216 0.20869 0.0
C19 C 1.14892 0.64175 0.12334 0.0
O20 O 0.38047 0.84396 0.10337 0.0
O21 O 0.40872 0.81336 0.16406 0.0
O22 O 0.31196 0.63421 0.08778 0.0
O23 O 0.2851 0.72192 0.06599 0.0
O24 O 0.43864 0.70718 0.1241 0.0
O25 O 0.37163 0.57164 0.11987 0.0
O26 O 1.16075 0.45909 0.11138 0.0
O27 O 0.22467 0.43772 0.16078 0.0
O28 O 0.26825 0.64352 0.1781 0.0
O29 O 0.30138 0.5615 0.19956 0.0
O30 O 1.15178 0.57421 0.12524 0.0
O31 O 1.21497 0.70973 0.1288 0.0
H32 H 0.28784 0.82711 0.18811 0.0
H33 H 0.26998 0.91663 0.22802 0.0
H34 H 0.46024 1.12018 0.16243 0.0
H35 H 0.48093 1.03053 0.12453 0.0
H36 H 1.01586 0.31291 0.10856 0.0
H37 H 0.89258 0.28631 0.13792 0.0
H38 H 1.01452 0.37913 0.24884 0.0
H39 H 1.13723 0.40711 0.21954 0.0
Tb40 Tb 0.90656 0.17701 0.47308 0.0
Tb41 Tb 0.81846 0.25818 0.47906 0.0
C42 C 0.9511 1.07938 0.49227 0.0
C43 C 0.90095 0.99993 0.51344 0.0
C44 C 0.87874 0.99393 0.55383 0.0
C45 C 0.81317 0.92495 0.57008 0.0
C46 C 0.76912 0.8604 0.54648 0.0
C47 C 0.79514 0.86365 0.50736 0.0
C48 C 0.86072 0.93273 0.49104 0.0
C49 C 0.8741 0.23106 0.40405 0.0
C50 C 0.71337 1.07202 0.4687 0.0
C51 C 0.75112 0.33845 0.47382 0.0
C52 C 0.67232 0.32052 0.48509 0.0
C53 C 0.62852 0.34069 0.45718 0.0
C54 C 0.55652 0.33062 0.46827 0.0
C55 C 0.52961 0.30506 0.50837 0.0
C56 C 0.57027 0.27806 0.53523 0.0
C57 C 0.64077 0.28508 0.52354 0.0
C58 C 0.83208 0.18879 0.5497 0.0
C59 C 1.00942 0.3638 0.45961 0.0
O60 O 0.9697 1.1404 0.51316 0.0
O61 O 0.92853 1.08922 0.45551 0.0
O62 O 0.83194 0.19902 0.43442 0.0
O63 O 0.93872 0.22858 0.40939 0.0
O64 O 0.78086 1.07209 0.47657 0.0
O65 O 0.71539 1.14179 0.46494 0.0
O66 O 0.79872 0.34179 0.50348 0.0
O67 O 0.75337 0.30016 0.44412 0.0
O68 O 0.88594 0.22808 0.52324 0.0
O69 O 0.7697 0.1895 0.53641 0.0
O70 O 0.93968 0.36046 0.45962 0.0
O71 O 1.01202 0.29719 0.46851 0.0
H72 H 0.90865 1.04428 0.57218 0.0
H73 H 0.79573 0.92296 0.60076 0.0
H74 H 0.76239 0.81443 0.48855 0.0
H75 H 0.87635 0.9356 0.45988 0.0
H76 H 0.65192 0.36811 0.42743 0.0
H77 H 0.52571 0.35008 0.44649 0.0
H78 H 0.55178 0.25828 0.56636 0.0
H79 H 0.67269 0.26717 0.54539 0.0
Tb80 Tb 0.79244 0.68986 0.84023 0.0
Tb81 Tb 0.92927 0.76331 0.79428 0.0
C82 C 0.70565 0.61144 0.90002 0.0
C83 C 0.65359 0.61484 0.92793 0.0
C84 C 0.62065 0.55549 0.95985 0.0
C85 C 0.55419 0.54362 0.97943 0.0
C86 C 0.5192 0.58919 0.9658 0.0
C87 C 0.56163 0.65767 0.93884 0.0
C88 C 0.62838 0.67002 0.91978 0.0
C89 C 0.75392 0.69572 0.76525 0.0
C90 C 0.8465 0.86705 0.80404 0.0
C91 C 1.04651 0.83656 0.74801 0.0
C92 C 1.10197 0.8115 0.73662 0.0
C93 C 1.07954 0.7533 0.70889 0.0
C94 C 1.11519 0.70663 0.71013 0.0
C95 C 1.17221 0.71636 0.73976 0.0
C96 C 1.2045 0.78485 0.76167 0.0
C97 C 1.1699 0.83226 0.75987 0.0
C98 C 0.94833 0.75678 0.8753 0.0
C99 C 0.85952 0.58043 0.8068 0.0
O100 O 0.77981 0.66455 0.90292 0.0
O101 O 0.68157 0.60315 0.86254 0.0
O102 O 0.80795 0.68076 0.77797 0.0
O103 O 0.72103 0.70656 0.79512 0.0
O104 O 0.8014 0.81035 0.83253 0.0
O105 O 0.8958 0.85623 0.7835 0.0
O106 O 0.97421 0.79438 0.73524 0.0
O107 O 1.04843 0.84992 0.78596 0.0
O108 O 0.90689 0.7781 0.85416 0.0
O109 O 0.97806 0.73096 0.85079 0.0
O110 O 0.91138 0.64591 0.78612 0.0
O111 O 0.81102 0.58549 0.83157 0.0
H112 H 0.64202 0.51424 0.96723 0.0
H113 H 0.52509 0.49292 0.00154 0.0
H114 H 0.53828 0.69575 0.92785 0.0
H115 H 0.65525 0.71755 0.89583 0.0
H116 H 1.0293 0.73807 0.6892 0.0
H117 H 1.09178 0.6574 0.69105 0.0
H118 H 0.2496 0.79659 0.78428 0.0
H119 H 1.19045 0.87889 0.78046 0.0
C120 C 0.61307 0.30697 0.25154 0.0
N121 N 0.68618 0.3286 0.26531 0.0
N122 N 0.55899 0.27 0.28178 0.0
C123 C 0.5936 0.30947 0.20714 0.0
C124 C 0.60436 0.27473 0.31478 0.0
N125 N 0.68106 0.3088 0.30472 0.0
C126 C 0.57297 0.23812 0.35645 0.0
H127 H 0.64735 0.34549 0.18843 0.0
H128 H 0.55608 0.33678 0.20156 0.0
H129 H 0.56124 0.24783 0.19733 0.0
H130 H 0.57459 0.18196 0.36297 0.0
H131 H 0.51186 0.22563 0.35971 0.0
H132 H 0.61173 0.27925 0.37892 0.0
C133 C 0.44068 0.52848 0.59605 0.0
N134 N 0.50029 0.58422 0.61706 0.0
N135 N 0.43071 0.45428 0.60541 0.0
C136 C 0.39757 0.54879 0.56271 0.0
C137 C 0.47812 0.46613 0.63838 0.0
N138 N 0.52037 0.54452 0.64504 0.0
C139 C 0.48614 0.40132 0.66273 0.0
H140 H 0.37144 0.58128 0.57507 0.0
H141 H 0.35026 0.49415 0.54968 0.0
H142 H 0.43924 0.5899 0.53867 0.0
H143 H 0.42743 0.34739 0.66802 0.0
H144 H 0.51336 0.42043 0.69259 0.0
H145 H 0.52281 0.38528 0.6459 0.0
C146 C 1.20759 0.46491 0.87189 0.0
N147 N 1.21047 0.4696 0.9122 0.0
N148 N 1.15434 0.48279 0.85452 0.0
C149 C 0.26744 0.45819 0.84858 0.0
C150 C 1.12066 0.49267 0.88656 0.0
N151 N 1.15552 0.4859 0.9217 0.0
C152 C 1.05958 0.51762 0.88257 0.0
H153 H 0.32563 0.51347 0.85027 0.0
H154 H 0.24991 0.44887 0.81644 0.0
H155 H 0.27374 0.40742 0.86228 0.0
H156 H 1.01432 0.48236 0.86022 0.0
H157 H 1.0877 0.58156 0.87112 0.0
H158 H 1.03063 0.50871 0.91194 0.0
C159 C 0.36239 0.714 0.43871 0.0
N160 N 0.30769 0.66462 0.4118 0.0
N161 N 0.42231 0.78259 0.41976 0.0
C162 C 0.35587 0.69681 0.48371 0.0
C163 C 0.40172 0.77263 0.38017 0.0
N164 N 0.33315 0.70245 0.37503 0.0
C165 C 0.45223 0.82956 0.34589 0.0
H166 H 0.29351 0.6674 0.49332 0.0
H167 H 0.39146 0.7524 0.49923 0.0
H168 H 0.37806 0.65537 0.49284 0.0
H169 H 0.51368 0.86882 0.35572 0.0
H170 H 0.42728 0.86759 0.33429 0.0
H171 H 0.45292 0.79634 0.32072 0.0
C172 C 0.83782 0.21672 0.78314 0.0
N173 N 0.8392 0.16609 0.75713 0.0
N174 N 0.83968 0.28269 0.76298 0.0
C175 C 0.84256 0.20622 0.8283 0.0
C176 C 0.8423 0.27002 0.72369 0.0
N177 N 0.84387 0.20167 0.71992 0.0
C178 C 0.83814 0.32227 0.68821 0.0
H179 H 0.78208 0.17087 0.8408 0.0
H180 H 0.87248 0.265 0.84138 0.0
H181 H 0.87474 0.17406 0.83744 0.0
H182 H 0.89856 0.36506 0.67699 0.0
H183 H 0.81036 0.35619 0.69673 0.0
H184 H 0.80383 0.28596 0.66305 0.0
C185 C 0.79441 0.6359 0.09963 0.0
N186 N 0.85821 0.65468 0.07578 0.0
N187 N 0.74361 0.658 0.08059 0.0
C188 C 0.78377 0.59987 0.14237 0.0
C189 C 0.77953 0.69076 0.04416 0.0
N190 N 0.84764 0.68863 0.04085 0.0
C191 C 0.74635 0.72397 0.01123 0.0
H192 H 0.76024 0.53462 0.14219 0.0
H193 H 0.74183 0.60933 0.1588 0.0
H194 H 0.84119 0.62601 0.15835 0.0
H195 H 0.68149 0.69464 0.01373 0.0
H196 H 0.76153 0.71651 0.98099 0.0
H197 H 0.77162 0.7888 0.01415 0.0
C198 C 0.59084 0.71761 0.10446 0.0
C199 C 0.51951 0.6439 0.11151 0.0
H200 H 0.715 0.78001 0.08969 0.0
C201 C 0.52592 0.57444 0.11011 0.0
H202 H 0.59065 0.77313 0.10486 0.0
C203 C 0.59896 0.57862 0.10198 0.0
C204 C 0.66973 0.65254 0.09442 0.0
H205 H 0.47389 0.51602 0.11507 0.0
H206 H 0.59948 0.52353 0.10046 0.0
C207 C 0.66334 0.72175 0.09584 0.0
C208 C 1.1613 0.4527 0.45768 0.0
C209 C 1.08625 0.44236 0.44703 0.0
H210 H 0.28803 0.52876 0.45557 0.0
C211 C 1.08689 0.50703 0.42297 0.0
H212 H 1.16514 0.40554 0.47586 0.0
C213 C 1.15858 0.57779 0.41025 0.0
C214 C 0.23328 0.58831 0.42168 0.0
H215 H 1.03161 0.50274 0.41346 0.0
H216 H 1.15549 0.6254 0.39212 0.0
C217 C 0.23268 0.52401 0.44582 0.0
C218 C 0.78889 0.9604 0.80992 0.0
C219 C 0.84224 0.9434 0.79243 0.0
H220 H 0.74453 1.0415 0.81212 0.0
C221 C 0.89265 1.00112 0.7621 0.0
H222 H 0.74837 0.91842 0.83295 0.0
C223 C 0.89071 1.07222 0.75019 0.0
C224 C 0.83823 1.08977 0.76792 0.0
H225 H 0.93487 0.99182 0.74739 0.0
H226 H 0.93207 1.11457 0.7276 0.0
C227 C 0.7869 1.03181 0.7979 0.0
C228 C 0.99593 0.57481 0.11565 0.0
C229 C 1.07232 0.64341 0.11198 0.0
H230 H 0.86981 0.52405 0.10802 0.0
C231 C 1.0751 0.71496 0.09565 0.0
H232 H 0.98953 0.51811 0.12773 0.0
C233 C 1.00611 0.71789 0.08339 0.0
C234 C 0.92987 0.64989 0.08755 0.0
H235 H 1.13149 0.76947 0.09168 0.0
H236 H 1.01249 0.77443 0.07107 0.0
C237 C 0.92647 0.57822 0.10424 0.0
C238 C 0.62472 0.91696 0.46771 0.0
C239 C 0.63615 0.9951 0.45933 0.0
H240 H 0.54879 0.78923 0.46305 0.0
C241 C 0.57269 0.99952 0.43982 0.0
H242 H 0.67103 0.90951 0.4825 0.0
C243 C 0.50284 0.93041 0.42832 0.0
C244 C 0.49158 0.85261 0.43627 0.0
H245 H 0.57766 1.0573 0.43225 0.0
H246 H 0.45753 0.93799 0.41235 0.0
C247 C 0.55383 0.84728 0.4567 0.0
C248 C 0.79917 0.42529 0.81733 0.0
C249 C 0.85481 0.50145 0.79918 0.0
H250 H 0.75043 0.29655 0.82063 0.0
C251 C 0.90683 0.5023 0.77111 0.0
H252 H 0.75754 0.42082 0.83898 0.0
C253 C 0.90315 0.43162 0.76102 0.0
C254 C 0.84693 0.35546 0.778 0.0
H255 H 0.9503 0.5584 0.75596 0.0
H256 H 0.94407 0.43634 0.73893 0.0
C257 C 0.79533 0.35357 0.80693 0.0
C258 C 0.68147 0.7132 0.55675 0.0
C259 C 0.69607 0.78988 0.56256 0.0
H260 H 0.60652 0.5877 0.57 0.0
C261 C 0.64133 0.79837 0.5843 0.0
H262 H 0.72289 0.70476 0.54065 0.0
C263 C 0.57412 0.73077 0.60095 0.0
C264 C 0.56145 0.65462 0.59585 0.0
H265 H 0.65092 0.85712 0.58871 0.0
H266 H 0.53355 0.73769 0.61863 0.0
C267 C 0.61496 0.64641 0.5733 0.0
C268 C 1.11393 0.56947 0.75835 0.0
C269 C 1.18072 0.64695 0.75619 0.0
H270 H 1.0525 0.45532 0.79268 0.0
C271 C 0.24654 0.65958 0.77981 0.0
H272 H 1.06343 0.55598 0.73948 0.0
C273 C 0.23964 0.60227 0.81039 0.0
C274 C 1.16806 0.52997 0.81664 0.0
H275 H 0.30057 0.71684 0.77774 0.0
H276 H 0.28789 0.61754 0.83146 0.0
C277 C 1.1072 0.51164 0.78878 0.0
C278 C 0.38139 1.15063 0.22294 0.0
C279 C 0.37638 1.07601 0.23099 0.0
H280 H 0.44008 0.27281 0.23743 0.0
C281 C 0.41093 1.06197 0.26623 0.0
H282 H 0.35436 0.16245 0.19607 0.0
C283 C 0.46431 1.12584 0.28761 0.0
C284 C 0.48077 0.20403 0.27525 0.0
H285 H 0.40771 1.00476 0.27317 0.0
H286 H 0.50075 1.11485 0.30948 0.0
C287 C 0.43126 0.21384 0.24625 0.0
C288 C 0.48811 0.40456 0.51266 0.0
C289 C 0.47596 0.3282 0.52488 0.0
H290 H 0.48646 0.50517 0.52878 0.0
C291 C 0.42797 0.28568 0.55878 0.0
H292 H 0.52481 0.44 0.48697 0.0
C293 C 0.40242 0.3236 0.58297 0.0
C294 C 0.42696 0.40507 0.57428 0.0
H295 H 0.41559 0.22564 0.56837 0.0
H296 H 0.36962 0.29139 0.61016 0.0
C297 C 0.46508 0.44265 0.53716 0.0
C298 C 0.40041 0.60301 0.96179 0.0
C299 C 0.43274 0.55305 0.96785 0.0
H300 H 0.30899 0.6178 0.93338 0.0
C301 C 0.38404 0.4707 0.96259 0.0
H302 H 0.43486 0.66586 0.96693 0.0
C303 C 0.30877 0.44186 0.94635 0.0
C304 C 0.28231 0.49509 0.93454 0.0
H305 H 0.40623 0.42972 0.96694 0.0
H306 H 0.27347 0.37952 0.94039 0.0
C307 C 0.32799 0.57546 0.94295 0.0
C308 C 0.80063 0.26813 0.20678 0.0
C309 C 0.87642 0.33449 0.20952 0.0
H310 H 0.67931 0.21509 0.22283 0.0
C311 C 0.88687 0.40275 0.22657 0.0
H312 H 0.79127 0.21495 0.19381 0.0
C313 C 0.82297 0.40298 0.24255 0.0
C314 C 0.74811 0.33539 0.24141 0.0
H315 H 0.9447 0.45537 0.2282 0.0
H316 H 0.83216 0.45434 0.25731 0.0
C317 C 0.73686 0.26848 0.22286 0.0
C318 C 1.21395 0.52566 0.02677 0.0
C319 C 0.23221 0.60528 0.02656 0.0
H320 H 1.16219 0.42001 0.99504 0.0
C321 C 1.20516 0.63755 0.99446 0.0
H322 H 0.23668 0.50009 0.05009 0.0
C323 C 1.16871 0.59391 0.96099 0.0
C324 C 1.1557 0.51588 0.95997 0.0
H325 H 0.21786 0.69876 0.99368 0.0
H326 H 1.15943 0.62479 0.93446 0.0
C327 C 1.17126 0.4798 0.99508 0.0
C328 C 0.77781 0.19643 0.34955 0.0
C329 C 0.84446 0.25638 0.36795 0.0
H330 H 0.67243 0.1667 0.3156 0.0
C331 C 0.85958 0.33548 0.36305 0.0
H332 H 0.76348 1.13458 0.35411 0.0
C333 C 0.80601 0.35321 0.34215 0.0
C334 C 0.73671 0.29187 0.32639 0.0
H335 H 0.90914 0.38216 0.37817 0.0
H336 H 0.81694 0.4139 0.33956 0.0
C337 C 0.72459 0.21411 0.32878 0.0
C338 C 0.70508 0.60654 0.70751 0.0
C339 C 0.70547 0.6658 0.72883 0.0
H340 H 0.64571 0.52154 0.66298 0.0
C341 C 0.64773 0.68717 0.72003 0.0
H342 H 0.74889 0.58891 0.71374 0.0
C343 C 0.58736 0.64627 0.69302 0.0
C344 C 0.58377 0.58411 0.67331 0.0
H345 H 0.6468 0.73304 0.73575 0.0
H346 H 0.54197 0.66202 0.68807 0.0
C347 C 0.64494 0.56655 0.67942 0.0
C348 C 0.77546 1.12415 0.61857 0.0
C349 C 0.84238 0.17536 0.59445 0.0
H350 H 0.72415 1.08976 0.67809 0.0
C351 C 0.91402 0.22138 0.61444 0.0
H352 H 0.71914 1.08777 0.60436 0.0
C353 C 0.91659 0.22185 0.65701 0.0
C354 C 0.84809 0.17565 0.68086 0.0
H355 H 0.9666 0.262 0.59713 0.0
H356 H 0.97078 0.26403 0.67114 0.0
C357 C 0.77831 1.12414 0.66104 0.0
C358 C 0.92666 0.67209 0.94252 0.0
C359 C 0.94382 0.74515 0.92084 0.0
H360 H 0.88176 0.5963 -0.00197 0.0
C361 C 0.9421 0.80331 0.94229 0.0
H362 H 0.92618 0.62535 0.92698 0.0
C363 C 0.91929 0.78761 0.98314 0.0
C364 C 0.89414 0.71196 0.00376 0.0
H365 H 0.95455 0.86003 0.92676 0.0
H366 H 0.91516 0.83276 -0.00221 0.0
C367 C 0.90127 0.65541 0.98336 0.0
C368 C 0.3108 0.59258 0.28358 0.0
C369 C 0.29558 0.63775 0.25233 0.0
H370 H 0.3317 0.5757 0.34706 0.0
C371 C 0.28112 0.69703 0.26384 0.0
H372 H 0.32177 0.5459 0.27637 0.0
C373 C 0.28638 0.71354 0.30482 0.0
C374 C 0.30502 0.67052 0.33572 0.0
H375 H 0.26815 0.73231 0.24113 0.0
H376 H 0.2798 0.76289 0.31225 0.0
C377 C 0.3152 0.60852 0.32446 0.0
loop_
_geom_bond_atom_site_label_1
_geom_bond_atom_site_label_2
_geom_bond_distance
_geom_bond_site_symmetry_2
_ccdc_geom_bond_type
Tb0 C2 2.809 . S
Tb0 O20 2.484 . S
Tb0 O21 2.440 . S
Tb0 O22 2.658 . S
Tb0 O23 2.409 . S
Tb0 O24 2.378 . S
Tb0 O28 2.325 . S
Tb0 O31 2.341 1_455 S
Tb1 C11 2.809 . S
Tb1 O22 2.325 1_655 S
Tb1 O25 2.341 1_655 S
Tb1 O26 2.484 . S
Tb1 O27 2.440 . S
Tb1 O28 2.658 1_655 S
Tb1 O29 2.409 . S
Tb1 O30 2.378 . S
C2 Tb0 2.809 . S
C2 C3 1.514 . S
C2 O20 1.248 . S
C2 O21 1.266 . S
C3 C2 1.514 . S
C3 C4 1.359 . S
C3 C8 1.348 . S
C4 C3 1.359 . S
C4 C5 1.380 . S
C4 H32 0.929 . S
C5 C4 1.380 . S
C5 C6 1.347 . S
C5 H33 0.931 . S
C6 C5 1.347 . S
C6 C7 1.369 . S
C7 C6 1.369 . S
C7 C8 1.408 . S
C7 H34 0.930 . S
C8 C3 1.348 . S
C8 C7 1.408 . S
C8 H35 0.930 . S
C9 O22 1.281 . S
C9 O23 1.254 . S
C10 O24 1.236 . S
C10 O25 1.266 . S
C11 Tb1 2.809 . S
C11 C12 1.514 . S
C11 O26 1.248 . S
C11 O27 1.266 . S
C12 C11 1.514 . S
C12 C13 1.359 . S
C12 C17 1.348 . S
C13 C12 1.359 . S
C13 C14 1.380 . S
C13 H36 0.929 . S
C14 C13 1.380 . S
C14 C15 1.347 . S
C14 H37 0.931 . S
C15 C14 1.347 . S
C15 C16 1.369 . S
C16 C15 1.369 . S
C16 C17 1.408 . S
C16 H38 0.930 . S
C17 C12 1.348 . S
C17 C16 1.408 . S
C17 H39 0.930 . S
C18 O28 1.281 . S
C18 O29 1.254 1_455 S
C19 O30 1.236 . S
C19 O31 1.266 . S
O20 Tb0 2.484 . S
O20 C2 1.248 . S
O21 Tb0 2.440 . S
O21 C2 1.266 . S
O22 Tb0 2.658 . S
O22 Tb1 2.325 1_455 S
O22 C9 1.281 . S
O23 Tb0 2.409 . S
O23 C9 1.254 . S
O24 Tb0 2.378 . S
O24 C10 1.236 . S
O25 Tb1 2.341 1_455 S
O25 C10 1.266 . S
O26 Tb1 2.484 . S
O26 C11 1.248 . S
O27 Tb1 2.440 . S
O27 C11 1.266 . S
O28 Tb0 2.325 . S
O28 Tb1 2.658 1_455 S
O28 C18 1.281 . S
O29 Tb1 2.409 . S
O29 C18 1.254 1_655 S
O30 Tb1 2.378 . S
O30 C19 1.236 . S
O31 Tb0 2.341 1_655 S
O31 C19 1.266 . S
H32 C4 0.929 . S
H33 C5 0.931 . S
H34 C7 0.930 . S
H35 C8 0.930 . S
H36 C13 0.929 . S
H37 C14 0.931 . S
H38 C16 0.930 . S
H39 C17 0.930 . S
Tb40 C42 2.809 . S
Tb40 O60 2.484 . S
Tb40 O61 2.440 . S
Tb40 O62 2.658 1_565 S
Tb40 O63 2.409 . S
Tb40 O64 2.378 . S
Tb40 O68 2.320 1_565 S
Tb40 O71 2.341 1_565 S
Tb41 C51 2.809 . S
Tb41 O62 2.325 . S
Tb41 O65 2.341 1_545 S
Tb41 O66 2.484 . S
Tb41 O67 2.440 . S
Tb41 O68 2.666 . S
Tb41 O69 2.409 . S
Tb41 O70 2.378 . S
C42 Tb40 2.809 . S
C42 C43 1.514 . S
C42 O60 1.248 . S
C42 O61 1.266 . S
C43 C42 1.514 . S
C43 C44 1.359 . S
C43 C48 1.348 . S
C44 C43 1.359 . S
C44 C45 1.380 . S
C44 H72 0.929 . S
C45 C44 1.380 . S
C45 C46 1.347 . S
C45 H73 0.931 . S
C46 C45 1.347 . S
C46 C47 1.369 . S
C47 C46 1.369 . S
C47 C48 1.408 . S
C47 H74 0.930 . S
C48 C43 1.348 . S
C48 C47 1.408 . S
C48 H75 0.930 . S
C49 O62 1.281 . S
C49 O63 1.254 1_545 S
C50 O64 1.236 . S
C50 O65 1.266 . S
C51 Tb41 2.809 . S
C51 C52 1.514 . S
C51 O66 1.248 . S
C51 O67 1.266 . S
C52 C51 1.514 . S
C52 C53 1.359 . S
C52 C57 1.348 . S
C53 C52 1.359 . S
C53 C54 1.380 . S
C53 H76 0.929 . S
C54 C53 1.380 . S
C54 C55 1.347 . S
C54 H77 0.931 . S
C55 C54 1.347 . S
C55 C56 1.369 . S
C56 C55 1.369 . S
C56 C57 1.408 . S
C56 H78 0.930 . S
C57 C52 1.348 . S
C57 C56 1.408 . S
C57 H79 0.930 . S
C58 O68 1.286 . S
C58 O69 1.254 . S
C59 O70 1.236 . S
C59 O71 1.266 . S
O60 Tb40 2.484 . S
O60 C42 1.248 . S
O61 Tb40 2.440 . S
O61 C42 1.266 . S
O62 Tb40 2.658 1_545 S
O62 Tb41 2.325 . S
O62 C49 1.281 . S
O63 Tb40 2.409 . S
O63 C49 1.254 1_565 S
O64 Tb40 2.378 . S
O64 C50 1.236 . S
O65 Tb41 2.341 1_565 S
O65 C50 1.266 . S
O66 Tb41 2.484 . S
O66 C51 1.248 . S
O67 Tb41 2.440 . S
O67 C51 1.266 . S
O68 Tb40 2.320 1_545 S
O68 Tb41 2.666 . S
O68 C58 1.286 . S
O69 Tb41 2.409 . S
O69 C58 1.254 . S
O70 Tb41 2.378 . S
O70 C59 1.236 . S
O71 Tb40 2.341 1_545 S
O71 C59 1.266 . S
H72 C44 0.929 . S
H73 C45 0.931 . S
H74 C47 0.930 . S
H75 C48 0.930 . S
H76 C53 0.929 . S
H77 C54 0.931 . S
H78 C56 0.930 . S
H79 C57 0.930 . S
Tb80 C82 2.809 . S
Tb80 O100 2.484 . S
Tb80 O101 2.440 . S
Tb80 O102 2.658 . S
Tb80 O103 2.409 . S
Tb80 O104 2.378 . S
Tb80 O108 2.325 . S
Tb80 O111 2.341 . S
Tb81 C91 2.809 . S
Tb81 O102 2.325 . S
Tb81 O105 2.341 . S
Tb81 O106 2.484 . S
Tb81 O107 2.440 . S
Tb81 O108 2.658 . S
Tb81 O109 2.409 . S
Tb81 O110 2.378 . S
C82 Tb80 2.809 . S
C82 C83 1.514 . S
C82 O100 1.248 . S
C82 O101 1.266 . S
C83 C82 1.514 . S
C83 C84 1.359 . S
C83 C88 1.348 . S
C84 C83 1.359 . S
C84 C85 1.380 . S
C84 H112 0.929 . S
C85 C84 1.380 . S
C85 C86 1.347 . S
C85 H113 0.931 . S
C86 C85 1.347 . S
C86 C87 1.369 . S
C87 C86 1.369 . S
C87 C88 1.408 . S
C87 H114 0.930 . S
C88 C83 1.348 . S
C88 C87 1.408 . S
C88 H115 0.930 . S
C89 O102 1.281 . S
C89 O103 1.254 . S
C90 O104 1.236 . S
C90 O105 1.266 . S
C91 Tb81 2.809 . S
C91 C92 1.514 . S
C91 O106 1.248 . S
C91 O107 1.266 . S
C92 C91 1.514 . S
C92 C93 1.359 . S
C92 C97 1.348 . S
C93 C92 1.359 . S
C93 C94 1.380 . S
C93 H116 0.929 . S
C94 C93 1.380 . S
C94 C95 1.347 . S
C94 H117 0.931 . S
C95 C94 1.347 . S
C95 C96 1.369 . S
C96 C95 1.369 . S
C96 C97 1.408 . S
C96 H118 0.930 . S
C97 C92 1.348 . S
C97 C96 1.408 . S
C97 H119 0.930 . S
C98 O108 1.281 . S
C98 O109 1.254 . S
C99 O110 1.236 . S
C99 O111 1.266 . S
O100 Tb80 2.484 . S
O100 C82 1.248 . S
O101 Tb80 2.440 . S
O101 C82 1.266 . S
O102 Tb80 2.658 . S
O102 Tb81 2.325 . S
O102 C89 1.281 . S
O103 Tb80 2.409 . S
O103 C89 1.254 . S
O104 Tb80 2.378 . S
O104 C90 1.236 . S
O105 Tb81 2.341 . S
O105 C90 1.266 . S
O106 Tb81 2.484 . S
O106 C91 1.248 . S
O107 Tb81 2.440 . S
O107 C91 1.266 . S
O108 Tb80 2.325 . S
O108 Tb81 2.658 . S
O108 C98 1.281 . S
O109 Tb81 2.409 . S
O109 C98 1.254 . S
O110 Tb81 2.378 . S
O110 C99 1.236 . S
O111 Tb80 2.341 . S
O111 C99 1.266 . S
H112 C84 0.929 . S
H113 C85 0.931 . S
H114 C87 0.930 . S
H115 C88 0.930 . S
H116 C93 0.929 . S
H117 C94 0.931 . S
H118 C96 0.930 . S
H119 C97 0.930 . S
C120 N121 1.317 . S
C120 N122 1.348 1_545 S
C120 C123 1.485 . S
N121 C120 1.317 . S
N121 N125 1.370 . S
N122 C120 1.348 1_565 S
N122 C124 1.346 . S
C123 C120 1.485 . S
C123 H127 0.960 . S
C123 H128 0.961 1_545 S
C123 H129 0.960 . S
C124 N122 1.346 . S
C124 N125 1.307 1_565 S
C124 C126 1.486 . S
N125 N121 1.370 . S
N125 C124 1.307 1_545 S
C126 C124 1.486 . S
C126 H130 0.960 . S
C126 H131 0.960 . S
C126 H132 0.959 . S
H127 C123 0.960 . S
H128 C123 0.961 1_565 S
H129 C123 0.960 . S
H130 C126 0.960 . S
H131 C126 0.960 . S
H132 C126 0.959 . S
C133 N134 1.317 . S
C133 N135 1.348 . S
C133 C136 1.485 . S
N134 C133 1.317 . S
N134 N138 1.370 . S
N135 C133 1.348 . S
N135 C137 1.346 . S
C136 C133 1.485 . S
C136 H140 0.960 . S
C136 H141 0.961 . S
C136 H142 0.960 . S
C137 N135 1.346 . S
C137 N138 1.307 . S
C137 C139 1.486 . S
N138 N134 1.370 . S
N138 C137 1.307 . S
C139 C137 1.486 . S
C139 H143 0.960 . S
C139 H144 0.960 . S
C139 H145 0.959 . S
H140 C136 0.960 . S
H141 C136 0.961 . S
H142 C136 0.960 . S
H143 C139 0.960 . S
H144 C139 0.960 . S
H145 C139 0.959 . S
C146 N147 1.311 1_655 S
C146 N148 1.357 . S
C146 C149 1.482 1_655 S
N147 C146 1.311 1_455 S
N147 N151 1.370 . S
N148 C146 1.357 . S
N148 C150 1.346 . S
C149 C146 1.482 1_455 S
C149 H153 0.960 . S
C149 H154 0.961 1_455 S
C149 H155 0.960 . S
C150 N148 1.346 . S
C150 N151 1.307 1_655 S
C150 C152 1.486 . S
N151 N147 1.370 . S
N151 C150 1.307 1_455 S
C152 C150 1.486 . S
C152 H156 0.960 . S
C152 H157 0.960 . S
C152 H158 0.959 . S
H153 C149 0.960 . S
H154 C149 0.961 1_655 S
H155 C149 0.960 . S
H156 C152 0.960 . S
H157 C152 0.960 . S
H158 C152 0.959 . S
C159 N160 1.317 . S
C159 N161 1.348 . S
C159 C162 1.485 . S
N160 C159 1.317 . S
N160 N164 1.370 . S
N161 C159 1.348 . S
N161 C163 1.346 . S
C162 C159 1.485 . S
C162 H166 0.960 . S
C162 H167 0.961 . S
C162 H168 0.960 . S
C163 N161 1.346 . S
C163 N164 1.307 . S
C163 C165 1.486 . S
N164 N160 1.370 . S
N164 C163 1.307 . S
C165 C163 1.486 . S
C165 H169 0.960 . S
C165 H170 0.960 . S
C165 H171 0.959 . S
H166 C162 0.960 . S
H167 C162 0.961 . S
H168 C162 0.960 . S
H169 C165 0.960 . S
H170 C165 0.960 . S
H171 C165 0.959 . S
C172 N173 1.317 1_545 S
C172 N174 1.348 . S
C172 C175 1.485 . S
N173 C172 1.317 1_565 S
N173 N177 1.370 1_565 S
N174 C172 1.348 . S
N174 C176 1.346 . S
C175 C172 1.485 . S
C175 H179 0.960 1_545 S
C175 H180 0.961 . S
C175 H181 0.960 1_545 S
C176 N174 1.346 . S
C176 N177 1.307 . S
C176 C178 1.486 . S
N177 N173 1.370 1_545 S
N177 C176 1.307 . S
C178 C176 1.486 . S
C178 H182 0.960 . S
C178 H183 0.960 . S
C178 H184 0.959 . S
H179 C175 0.960 1_565 S
H180 C175 0.961 . S
H181 C175 0.960 1_565 S
H182 C178 0.960 . S
H183 C178 0.960 . S
H184 C178 0.959 . S
C185 N186 1.317 . S
C185 N187 1.348 . S
C185 C188 1.485 . S
N186 C185 1.317 . S
N186 N190 1.370 . S
N187 C185 1.348 . S
N187 C189 1.346 . S
C188 C185 1.485 . S
C188 H192 0.960 . S
C188 H193 0.961 . S
C188 H194 0.960 . S
C189 N187 1.346 . S
C189 N190 1.307 . S
C189 C191 1.486 . S
N190 N186 1.370 . S
N190 C189 1.307 . S
C191 C189 1.486 . S
C191 H195 0.960 . S
C191 H196 0.960 . S
C191 H197 0.959 . S
H192 C188 0.960 . S
H193 C188 0.961 . S
H194 C188 0.960 . S
H195 C191 0.960 . S
H196 C191 0.960 . S
H197 C191 0.959 . S
C198 C199 1.387 . S
C198 H202 0.950 . S
C198 C207 1.390 . S
C199 C198 1.387 . S
C199 C201 1.387 . S
H200 C207 0.950 . S
C201 C199 1.387 . S
C201 C203 1.390 . S
C201 H205 0.950 . S
H202 C198 0.950 . S
C203 C201 1.390 . S
C203 C204 1.387 . S
C203 H206 0.950 . S
C204 C203 1.387 . S
C204 C207 1.387 . S
H205 C201 0.950 . S
H206 C203 0.950 . S
C207 C198 1.390 . S
C207 H200 0.950 . S
C207 C204 1.387 . S
C208 C209 1.387 . S
C208 H212 0.950 . S
C208 C217 1.390 . S
C209 C208 1.387 . S
C209 C211 1.387 . S
H210 C217 0.950 . S
C211 C209 1.387 . S
C211 C213 1.390 . S
C211 H215 0.950 . S
H212 C208 0.950 . S
C213 C211 1.390 . S
C213 C214 1.387 . S
C213 H216 0.950 . S
C214 C213 1.387 . S
C214 C217 1.387 . S
H215 C211 0.950 . S
H216 C213 0.950 . S
C217 C208 1.390 . S
C217 H210 0.950 . S
C217 C214 1.387 . S
C218 C219 1.387 . S
C218 H222 0.950 . S
C218 C227 1.390 . S
C219 C218 1.387 . S
C219 C221 1.387 . S
H220 C227 0.950 . S
C221 C219 1.387 . S
C221 C223 1.390 . S
C221 H225 0.950 . S
H222 C218 0.950 . S
C223 C221 1.390 . S
C223 C224 1.387 . S
C223 H226 0.950 . S
C224 C223 1.387 . S
C224 C227 1.387 . S
H225 C221 0.950 . S
H226 C223 0.950 . S
C227 C218 1.390 . S
C227 H220 0.950 . S
C227 C224 1.387 . S
C228 C229 1.387 . S
C228 H232 0.950 . S
C228 C237 1.390 . S
C229 C228 1.387 . S
C229 C231 1.387 . S
H230 C237 0.950 . S
C231 C229 1.387 . S
C231 C233 1.390 . S
C231 H235 0.950 . S
H232 C228 0.950 . S
C233 C231 1.390 . S
C233 C234 1.387 . S
C233 H236 0.950 . S
C234 C233 1.387 . S
C234 C237 1.387 . S
H235 C231 0.950 . S
H236 C233 0.950 . S
C237 C228 1.390 . S
C237 H230 0.950 . S
C237 C234 1.387 . S
C238 C239 1.387 . S
C238 H242 0.950 . S
C238 C247 1.390 . S
C239 C238 1.387 . S
C239 C241 1.387 . S
H240 C247 0.950 . S
C241 C239 1.387 . S
C241 C243 1.390 . S
C241 H245 0.950 . S
H242 C238 0.950 . S
C243 C241 1.390 . S
C243 C244 1.387 . S
C243 H246 0.950 . S
C244 C243 1.387 . S
C244 C247 1.387 . S
H245 C241 0.950 . S
H246 C243 0.950 . S
C247 C238 1.390 . S
C247 H240 0.950 . S
C247 C244 1.387 . S
C248 C249 1.387 . S
C248 H252 0.950 . S
C248 C257 1.390 . S
C249 C248 1.387 . S
C249 C251 1.387 . S
H250 C257 0.950 . S
C251 C249 1.387 . S
C251 C253 1.390 . S
C251 H255 0.950 . S
H252 C248 0.950 . S
C253 C251 1.390 . S
C253 C254 1.387 . S
C253 H256 0.950 . S
C254 C253 1.387 . S
C254 C257 1.387 . S
H255 C251 0.950 . S
H256 C253 0.950 . S
C257 C248 1.390 . S
C257 H250 0.950 . S
C257 C254 1.387 . S
C258 C259 1.387 . S
C258 H262 0.950 . S
C258 C267 1.390 . S
C259 C258 1.387 . S
C259 C261 1.387 . S
H260 C267 0.950 . S
C261 C259 1.387 . S
C261 C263 1.390 . S
C261 H265 0.950 . S
H262 C258 0.950 . S
C263 C261 1.390 . S
C263 C264 1.387 . S
C263 H266 0.950 . S
C264 C263 1.387 . S
C264 C267 1.387 . S
H265 C261 0.950 . S
H266 C263 0.950 . S
C267 C258 1.390 . S
C267 H260 0.950 . S
C267 C264 1.387 . S
C268 C269 1.387 . S
C268 H272 0.950 . S
C268 C277 1.390 . S
C269 C268 1.387 . S
C269 C271 1.387 . S
H270 C277 0.950 . S
C271 C269 1.387 . S
C271 C273 1.390 . S
C271 H275 0.950 . S
H272 C268 0.950 . S
C273 C271 1.390 . S
C273 C274 1.387 . S
C273 H276 0.950 . S
C274 C273 1.387 . S
C274 C277 1.387 . S
H275 C271 0.950 . S
H276 C273 0.950 . S
C277 C268 1.390 . S
C277 H270 0.950 . S
C277 C274 1.387 . S
C278 C279 1.387 . S
C278 H282 0.950 . S
C278 C287 1.390 . S
C279 C278 1.387 . S
C279 C281 1.387 . S
H280 C287 0.950 . S
C281 C279 1.387 . S
C281 C283 1.390 . S
C281 H285 0.950 . S
H282 C278 0.950 . S
C283 C281 1.390 . S
C283 C284 1.387 . S
C283 H286 0.950 . S
C284 C283 1.387 . S
C284 C287 1.387 . S
H285 C281 0.950 . S
H286 C283 0.950 . S
C287 C278 1.390 . S
C287 H280 0.950 . S
C287 C284 1.387 . S
C288 C289 1.387 . S
C288 H292 0.950 . S
C288 C297 1.390 . S
C289 C288 1.387 . S
C289 C291 1.387 . S
H290 C297 0.950 . S
C291 C289 1.387 . S
C291 C293 1.390 . S
C291 H295 0.950 . S
H292 C288 0.950 . S
C293 C291 1.390 . S
C293 C294 1.387 . S
C293 H296 0.950 . S
C294 C293 1.387 . S
C294 C297 1.387 . S
H295 C291 0.950 . S
H296 C293 0.950 . S
C297 C288 1.390 . S
C297 H290 0.950 . S
C297 C294 1.387 . S
C298 C299 1.387 . S
C298 H302 0.950 . S
C298 C307 1.390 . S
C299 C298 1.387 . S
C299 C301 1.387 . S
H300 C307 0.950 . S
C301 C299 1.387 . S
C301 C303 1.390 . S
C301 H305 0.950 . S
H302 C298 0.950 . S
C303 C301 1.390 . S
C303 C304 1.387 . S
C303 H306 0.950 . S
C304 C303 1.387 . S
C304 C307 1.387 . S
H305 C301 0.950 . S
H306 C303 0.950 . S
C307 C298 1.390 . S
C307 H300 0.950 . S
C307 C304 1.387 . S
C308 C309 1.387 . S
C308 H312 0.950 . S
C308 C317 1.390 . S
C309 C308 1.387 . S
C309 C311 1.387 . S
H310 C317 0.950 . S
C311 C309 1.387 . S
C311 C313 1.390 . S
C311 H315 0.950 . S
H312 C308 0.950 . S
C313 C311 1.390 . S
C313 C314 1.387 . S
C313 H316 0.950 . S
C314 C313 1.387 . S
C314 C317 1.387 . S
H315 C311 0.950 . S
H316 C313 0.950 . S
C317 C308 1.390 . S
C317 H310 0.950 . S
C317 C314 1.387 . S
C318 C319 1.387 1_655 S
C318 H322 0.950 . S
C318 C327 1.390 1_554 S
C319 C318 1.387 1_455 S
C319 C321 1.387 . S
H320 C327 0.950 . S
C321 C319 1.387 . S
C321 C323 1.390 1_554 S
C321 H325 0.950 . S
H322 C318 0.950 . S
C323 C321 1.390 1_556 S
C323 C324 1.387 . S
C323 H326 0.950 . S
C324 C323 1.387 . S
C324 C327 1.387 1_455 S
H325 C321 0.950 . S
H326 C323 0.950 . S
C327 C318 1.390 1_556 S
C327 H320 0.950 . S
C327 C324 1.387 1_655 S
C328 C329 1.387 1_565 S
C328 H332 0.950 . S
C328 C337 1.390 . S
C329 C328 1.387 1_545 S
C329 C331 1.387 . S
H330 C337 0.950 . S
C331 C329 1.387 . S
C331 C333 1.390 . S
C331 H335 0.950 . S
H332 C328 0.950 . S
C333 C331 1.390 . S
C333 C334 1.387 . S
C333 H336 0.950 . S
C334 C333 1.387 . S
C334 C337 1.387 1_545 S
H335 C331 0.950 . S
H336 C333 0.950 . S
C337 C328 1.390 . S
C337 H330 0.950 . S
C337 C334 1.387 1_565 S
C338 C339 1.387 . S
C338 H342 0.950 . S
C338 C347 1.390 . S
C339 C338 1.387 . S
C339 C341 1.387 . S
H340 C347 0.950 . S
C341 C339 1.387 . S
C341 C343 1.390 . S
C341 H345 0.950 . S
H342 C338 0.950 . S
C343 C341 1.390 . S
C343 C344 1.387 . S
C343 H346 0.950 . S
C344 C343 1.387 . S
C344 C347 1.387 . S
H345 C341 0.950 . S
H346 C343 0.950 . S
C347 C338 1.390 . S
C347 H340 0.950 . S
C347 C344 1.387 . S
C348 C349 1.387 1_565 S
C348 H352 0.950 . S
C348 C357 1.390 . S
C349 C348 1.387 1_545 S
C349 C351 1.387 . S
H350 C357 0.950 . S
C351 C349 1.387 . S
C351 C353 1.390 . S
C351 H355 0.950 . S
H352 C348 0.950 . S
C353 C351 1.390 . S
C353 C354 1.387 . S
C353 H356 0.950 . S
C354 C353 1.387 . S
C354 C357 1.387 1_545 S
H355 C351 0.950 . S
H356 C353 0.950 . S
C357 C348 1.390 . S
C357 H350 0.950 . S
C357 C354 1.387 1_565 S
C358 C359 1.387 . S
C358 H362 0.950 . S
C358 C367 1.390 1_556 S
C359 C358 1.387 . S
C359 C361 1.387 . S
H360 C367 0.950 . S
C361 C359 1.387 . S
C361 C363 1.390 1_556 S
C361 H365 0.950 . S
H362 C358 0.950 . S
C363 C361 1.390 1_554 S
C363 C364 1.387 . S
C363 H366 0.950 . S
C364 C363 1.387 . S
C364 C367 1.387 . S
H365 C361 0.950 . S
H366 C363 0.950 . S
C367 C358 1.390 1_554 S
C367 H360 0.950 . S
C367 C364 1.387 . S
C368 C369 1.387 . S
C368 H372 0.950 1_455 S
C368 C377 1.390 . S
C369 C368 1.387 . S
C369 C371 1.387 . S
H370 C377 0.950 1_655 S
C371 C369 1.387 . S
C371 C373 1.390 . S
C371 H375 0.950 . S
H372 C368 0.950 1_655 S
C373 C371 1.390 . S
C373 C374 1.387 . S
C373 H376 0.950 . S
C374 C373 1.387 . S
C374 C377 1.387 . S
H375 C371 0.950 . S
H376 C373 0.950 . S
C377 C368 1.390 . S
C377 H370 0.950 1_455 S
C377 C374 1.387 . S
C199 C10 2.864 . S
C204 N187 2.819 . S
C209 C59 3.025 . S
C214 N160 3.030 1_655 S
C219 C90 2.974 . S
C224 N173 2.998 . S
C229 C19 3.308 . S
C234 N186 3.319 . S
C244 N161 3.082 . S
C239 C50 3.077 . S
C254 N174 3.124 . S
C249 C99 3.152 . S
C259 C46 0.629 . S
C264 N134 0.609 . S
C269 C95 0.706 . S
C274 N148 0.668 . S
C279 C6 0.905 . S
C284 N122 0.959 . S
C294 N135 0.929 . S
C289 C55 0.855 . S
C304 N147 0.986 . S
C299 C86 0.948 . S
C309 C15 0.725 . S
C314 N121 0.719 . S
C324 N151 1.061 . S
C319 C9 1.068 . S
C329 C49 1.192 . S
C334 N125 1.180 . S
C339 C89 1.029 . S
C344 N138 1.059 . S
C354 N177 1.854 . S
C349 C58 1.716 . S
C364 N190 1.768 . S
C359 C98 1.730 . S
C369 C18 1.732 . S
C374 N164 1.769 . S
