# Generated by pormake.
# Topology anh, (6,3)-cn, num edge types: 1
# Building blocks:
#     Node 0, Type 0, BuildingBlock: BETDIP_clean_sbu_0, # of connection points: 6
#     Node 1, Type 0, BuildingBlock: BETDIP_clean_sbu_0, # of connection points: 6
#     Node 2, Type 0, BuildingBlock: BETDIP_clean_sbu_0, # of connection points: 6
#     Node 3, Type 1, BuildingBlock: BETDIP_clean_linker_0, # of connection points: 3
#     Node 4, Type 1, BuildingBlock: BETDIP_clean_linker_0, # of connection points: 3
#     Node 5, Type 1, BuildingBlock: BETDIP_clean_linker_0, # of connection points: 3
#     Node 6, Type 1, BuildingBlock: BETDIP_clean_linker_0, # of connection points: 3
#     Node 7, Type 1, BuildingBlock: BETDIP_clean_linker_0, # of connection points: 3
#     Node 8, Type 1, BuildingBlock: BETDIP_clean_linker_0, # of connection points: 3
#     Edge 9, Type (0, 1), BuildingBlock: XIVTED_clean_linker_0, # of connection points: 2
#     Edge 10, Type (0, 1), BuildingBlock: XIVTED_clean_linker_0, # of connection points: 2
#     Edge 11, Type (0, 1), BuildingBlock: XIVTED_clean_linker_0, # of connection points: 2
#     Edge 12, Type (0, 1), BuildingBlock: XIVTED_clean_linker_0, # of connection points: 2
#     Edge 13, Type (0, 1), BuildingBlock: XIVTED_clean_linker_0, # of connection points: 2
#     Edge 14, Type (0, 1), BuildingBlock: XIVTED_clean_linker_0, # of connection points: 2
#     Edge 15, Type (0, 1), BuildingBlock: XIVTED_clean_linker_0, # of connection points: 2
#     Edge 16, Type (0, 1), BuildingBlock: XIVTED_clean_linker_0, # of connection points: 2
#     Edge 17, Type (0, 1), BuildingBlock: XIVTED_clean_linker_0, # of connection points: 2
#     Edge 18, Type (0, 1), BuildingBlock: XIVTED_clean_linker_0, # of connection points: 2
#     Edge 19, Type (0, 1), BuildingBlock: XIVTED_clean_linker_0, # of connection points: 2
#     Edge 20, Type (0, 1), BuildingBlock: XIVTED_clean_linker_0, # of connection points: 2
#     Edge 21, Type (0, 1), BuildingBlock: XIVTED_clean_linker_0, # of connection points: 2
#     Edge 22, Type (0, 1), BuildingBlock: XIVTED_clean_linker_0, # of connection points: 2
#     Edge 23, Type (0, 1), BuildingBlock: XIVTED_clean_linker_0, # of connection points: 2
#     Edge 24, Type (0, 1), BuildingBlock: XIVTED_clean_linker_0, # of connection points: 2
#     Edge 25, Type (0, 1), BuildingBlock: XIVTED_clean_linker_0, # of connection points: 2
#     Edge 26, Type (0, 1), BuildingBlock: XIVTED_clean_linker_0, # of connection points: 2
# Relax obj value: 0.261
# Max RMSD: 0.185
# Mean RMSD: 0.131
data_MOF--net-anh--node1-BETDIP_clean_sbu_0--node2-BETDIP_clean_linker_0--edge1-XIVTED_clean_linker_0
_symmetry_space_group_name_H-M    P1
_symmetry_Int_Tables_number       1
_symmetry_cell_setting            triclinic
loop_
_symmetry_equiv_pos_as_xyz
'x, y, z'
_cell_length_a     30.336253
_cell_length_b     30.232233
_cell_length_c     49.720308
_cell_angle_alpha  94.322496
_cell_angle_beta   87.561595
_cell_angle_gamma 120.00599
loop_
_atom_site_label
_atom_site_type_symbol
_atom_site_fract_x
_atom_site_fract_y
_atom_site_fract_z
_atom_type_partial_charge
Tb0 Tb 0.19694 0.63798 0.1552 0.0
Tb1 Tb 0.15085 0.5265 0.15675 0.0
C2 C 0.24821 0.73334 0.16417 0.0
C3 C 0.29893 0.77791 0.15937 0.0
C4 C 0.3344 0.80005 0.18042 0.0
C5 C 0.37786 0.84792 0.17811 0.0
C6 C 0.38643 0.87482 0.15479 0.0
C7 C 0.35282 0.85109 0.13301 0.0
C8 C 0.30944 0.80314 0.13528 0.0
C9 C 0.1695 0.58689 0.10799 0.0
C10 C 0.26918 0.58629 0.15124 0.0
C11 C 1.09046 0.43224 0.15052 0.0
C12 C 1.03469 0.40583 0.15514 0.0
C13 C 1.00197 0.4036 0.13517 0.0
C14 C 0.95303 0.39437 0.14204 0.0
C15 C 0.93625 0.38752 0.16896 0.0
C16 C 0.96658 0.38362 0.18815 0.0
C17 C 1.01519 0.39228 0.18127 0.0
C18 C 0.17799 0.57736 0.20417 0.0
C19 C 1.07912 0.57778 0.15648 0.0
O20 O 0.24479 0.7007 0.18122 0.0
O21 O 0.2188 0.71088 0.14321 0.0
O22 O 0.19004 0.5785 0.12679 0.0
O23 O 0.1664 0.62745 0.11458 0.0
O24 O 0.26534 0.62833 0.15579 0.0
O25 O 0.2278 0.54069 0.14764 0.0
O26 O 1.10744 0.46236 0.13045 0.0
O27 O 1.11834 0.45391 0.17209 0.0
O28 O 0.15653 0.58585 0.18566 0.0
O29 O 0.18298 0.53818 0.19673 0.0
O30 O 1.0843 0.53697 0.15079 0.0
O31 O 1.11924 0.6222 0.16379 0.0
H32 H 0.32712 0.78182 0.19931 0.0
H33 H 0.40268 0.86543 0.19539 0.0
H34 H 0.35873 0.87075 0.11472 0.0
H35 H 0.28284 0.78725 0.11868 0.0
H36 H 1.01551 0.41317 0.11475 0.0
H37 H 0.93022 0.39708 0.12676 0.0
H38 H 0.95386 0.3768 0.20889 0.0
H39 H 1.03892 0.39251 0.19701 0.0
Tb40 Tb 0.65477 0.1148 0.49264 0.0
Tb41 Tb 0.58735 0.16029 0.48747 0.0
C42 C 0.70372 1.07583 0.50935 0.0
C43 C 0.70496 1.03489 0.52299 0.0
C44 C 0.73403 1.04873 0.54651 0.0
C45 C 0.74746 1.01534 0.55656 0.0
C46 C 0.73194 0.96706 0.54335 0.0
C47 C 0.69899 0.95151 0.52111 0.0
C48 C 0.68592 0.9853 0.51087 0.0
C49 C 0.64495 0.13471 0.44341 0.0
C50 C 0.53214 1.04094 0.48876 0.0
C51 C 0.54761 0.21062 0.47372 0.0
C52 C 0.57007 0.26144 0.46289 0.0
C53 C 0.61001 0.2776 0.44393 0.0
C54 C 0.63931 0.32932 0.43881 0.0
C55 C 0.62972 0.36576 0.45293 0.0
C56 C 0.58666 0.34861 0.46992 0.0
C57 C 0.55709 0.29686 0.47481 0.0
C58 C 0.59869 0.14131 0.53684 0.0
C59 C 0.70997 0.23282 0.48614 0.0
O60 O 0.69368 0.10747 0.52415 0.0
O61 O 0.68555 1.06649 0.48482 0.0
O62 O 0.61101 0.11763 0.46131 0.0
O63 O 0.68624 0.13811 0.45221 0.0
O64 O 0.57689 1.04667 0.49571 0.0
O65 O 0.528 1.08043 0.48226 0.0
O66 O 0.54935 0.17473 0.45809 0.0
O67 O 0.5606 0.21101 0.49854 0.0
O68 O 0.63259 0.15916 0.5189 0.0
O69 O 0.55677 0.13595 0.52776 0.0
O70 O 0.66461 0.22573 0.47978 0.0
O71 O 0.71461 0.19513 0.49489 0.0
H72 H 0.7496 1.08696 0.55608 0.0
H73 H 0.77331 1.02924 0.57347 0.0
H74 H 0.68536 0.91418 0.51078 0.0
H75 H 0.6633 0.97358 0.49271 0.0
H76 H 0.62087 0.25102 0.43442 0.0
H77 H 0.67162 0.34115 0.42524 0.0
H78 H 0.57826 0.37547 0.48135 0.0
H79 H 0.52647 0.28511 0.4895 0.0
Tb80 Tb 0.61526 0.62665 0.826 0.0
Tb81 Tb 0.72714 0.69169 0.82326 0.0
C82 C 0.52291 0.58201 0.83955 0.0
C83 C 0.47215 0.57222 0.83195 0.0
C84 C 0.44098 0.57811 0.85188 0.0
C85 C 0.38865 0.55588 0.84764 0.0
C86 C 0.36676 0.52687 0.82354 0.0
C87 C 0.39854 0.52483 0.80273 0.0
C88 C 0.45089 0.54766 0.8068 0.0
C89 C 0.65273 0.64189 0.77655 0.0
C90 C 0.66585 0.74989 0.82371 0.0
C91 C 0.81978 0.72699 0.81204 0.0
C92 C 0.85203 0.70344 0.81373 0.0
C93 C 0.8425 0.65959 0.79729 0.0
C94 C 0.86416 0.63027 0.8034 0.0
C95 C 0.89558 0.64426 0.82602 0.0
C96 C 0.90894 0.69064 0.84084 0.0
C97 C 0.8875 0.7201 0.83467 0.0
C98 C 0.68876 0.67752 0.87281 0.0
C99 C 0.67701 0.56947 0.82263 0.0
O100 O 0.55614 0.6275 0.84978 0.0
O101 O 0.54371 0.56168 0.82319 0.0
O102 O 0.66732 0.67327 0.79654 0.0
O103 O 0.6116 0.60101 0.78297 0.0
O104 O 0.62518 0.70535 0.82954 0.0
O105 O 0.71002 0.75252 0.81741 0.0
O106 O 0.78376 0.70613 0.79394 0.0
O107 O 0.80337 0.73691 0.83518 0.0
O108 O 0.67509 0.64436 0.85335 0.0
O109 O 0.72653 0.71986 0.86498 0.0
O110 O 0.71579 0.61329 0.81506 0.0
O111 O 0.63574 0.56854 0.83298 0.0
H112 H 0.45641 0.59656 0.87146 0.0
H113 H 0.36482 0.55768 0.86405 0.0
H114 H 0.38245 0.50287 0.78393 0.0
H115 H 0.47395 0.54271 0.79094 0.0
H116 H 0.81572 0.64591 0.7808 0.0
H117 H 0.85322 0.5947 0.79163 0.0
H118 H 0.93386 0.70273 0.8581 0.0
H119 H 0.89602 0.75407 0.84742 0.0
H120 H 0.55421 0.272 0.20421 0.0
H121 H 0.61277 0.33774 0.28323 0.0
H122 H 0.59396 0.19069 0.2569 0.0
H123 H 0.62629 0.43674 0.23895 0.0
C124 C 0.62602 0.40132 0.23304 0.0
C125 C 0.56872 0.26942 0.22321 0.0
C126 C 0.57378 0.22682 0.22767 0.0
C127 C 0.58397 0.30986 0.24293 0.0
C128 C 0.60221 0.30691 0.2678 0.0
C129 C 0.60602 0.26391 0.27286 0.0
C130 C 0.59258 0.2246 0.25258 0.0
N131 N 0.58142 0.35393 0.23763 0.0
H132 H 0.92145 0.72638 0.53417 0.0
H133 H 0.90586 0.77528 0.61545 0.0
H134 H 0.78345 0.63693 0.57826 0.0
H135 H 1.01102 0.87767 0.58968 0.0
C136 C 0.97495 0.84878 0.58091 0.0
C137 C 0.89932 0.71971 0.55264 0.0
C138 C 0.84936 0.67861 0.55352 0.0
C139 C 0.91929 0.75469 0.57494 0.0
C140 C 0.89009 0.74715 0.59863 0.0
C141 C 0.84096 0.70438 0.60042 0.0
C142 C 0.821 0.67044 0.57754 0.0
N143 N 0.96762 0.7994 0.57293 0.0
H144 H 0.96208 0.34146 0.86666 0.0
H145 H 1.01598 0.31264 0.93845 0.0
H146 H 0.98237 0.43511 0.93926 0.0
H147 H 0.97164 0.27468 0.8458 0.0
C148 C 1.00341 0.28213 0.85832 0.0
C149 C 0.9726 0.35049 0.88772 0.0
C150 C 0.96892 0.39059 0.90161 0.0
C151 C 0.98958 0.32218 0.90095 0.0
C152 C 1.00233 0.33401 0.92838 0.0
C153 C 0.99924 0.37447 0.94248 0.0
C154 C 0.9825 0.40233 0.92887 0.0
N155 N 0.99676 0.28364 0.88673 0.0
H156 H 0.16537 0.67509 0.48157 0.0
H157 H 1.09663 0.59242 0.40631 0.0
H158 H 0.24709 0.72289 0.40648 0.0
H159 H 1.0247 0.58646 0.43115 0.0
C160 C 1.03025 0.56869 0.44793 0.0
C161 C 0.16718 0.67012 0.45983 0.0
C162 C 0.21188 0.70433 0.44572 0.0
C163 C 1.12478 0.62942 0.4457 0.0
C164 C 1.12792 0.62391 0.4174 0.0
C165 C 0.17185 0.65721 0.40322 0.0
C166 C 0.21349 0.69677 0.41752 0.0
N167 N 1.08001 0.59324 0.45976 0.0
H168 H 0.67313 0.20166 0.81442 0.0
H169 H 0.64697 0.10374 0.74201 0.0
H170 H 0.66848 0.25424 0.73684 0.0
H171 H 0.59257 1.04365 0.77616 0.0
C172 C 0.62559 1.05472 0.78856 0.0
C173 C 0.6685 0.19509 0.79275 0.0
C174 C 0.67176 0.23425 0.77718 0.0
C175 C 0.65929 0.14737 0.78019 0.0
C176 C 0.65312 0.13947 0.75199 0.0
C177 C 0.65703 0.17802 0.73632 0.0
C178 C 0.66654 0.225 0.74902 0.0
N179 N 0.65817 0.10827 0.79553 0.0
H180 H 0.63684 0.58727 0.14657 0.0
H181 H 0.72143 0.60331 0.07224 0.0
H182 H 0.58935 0.62058 0.07393 0.0
H183 H 0.73195 0.54004 0.09321 0.0
C184 C 0.74738 0.56297 0.11194 0.0
C185 C 0.6421 0.59416 0.1253 0.0
C186 C 0.60749 0.60373 0.11188 0.0
C187 C 0.68369 0.59366 0.11114 0.0
C188 C 0.68957 0.60247 0.08337 0.0
C189 C 0.65601 0.61275 0.07003 0.0
C190 C 0.61561 0.61346 0.08443 0.0
N191 N 0.72036 0.58653 0.12494 0.0
H192 H 0.36391 0.67334 0.14861 0.0
H193 H 0.52303 0.52386 0.13447 0.0
H194 H 0.29321 0.50908 0.14813 0.0
H195 H 0.58592 0.68174 0.11722 0.0
H196 H 0.44139 0.51984 0.14639 0.0
H197 H 0.4473 0.67893 0.14323 0.0
C198 C 0.36574 0.63838 0.1475 0.0
C199 C 0.32088 0.59061 0.14871 0.0
C200 C 0.47328 0.55562 0.14041 0.0
C201 C 0.41728 0.59685 0.14273 0.0
C202 C 0.52016 0.55808 0.13395 0.0
C203 C 0.56179 0.60339 0.12514 0.0
C204 C 0.4678 0.59888 0.13821 0.0
C205 C 0.55515 0.64616 0.12417 0.0
C206 C 0.41359 0.64163 0.14439 0.0
C207 C 0.32635 0.54681 0.14715 0.0
N208 N 0.50937 0.64283 0.1305 0.0
N209 N 0.37333 0.55098 0.14428 0.0
H210 H 0.72227 0.31017 0.45528 0.0
H211 H 1.02211 0.49888 0.48492 0.0
H212 H 0.80647 0.27128 0.50711 0.0
H213 H 0.93382 0.52724 0.43027 0.0
H214 H 0.94476 0.41761 0.49528 0.0
H215 H 0.80023 0.3908 0.44721 0.0
C216 C 0.75688 0.3188 0.46533 0.0
C217 C 0.75721 0.28355 0.48208 0.0
C218 C 0.94237 0.44179 0.4811 0.0
C219 C 0.84749 0.37738 0.47322 0.0
C220 C 0.98656 0.48835 0.47527 0.0
C221 C 0.98465 0.52024 0.45669 0.0
C222 C 0.89586 0.42702 0.46834 0.0
C223 C 0.93735 0.50413 0.44472 0.0
C224 C 0.8016 0.36508 0.46071 0.0
C225 C 0.80403 0.29705 0.49406 0.0
N226 N 0.89533 0.45914 0.45069 0.0
N227 N 0.84699 0.34272 0.48953 0.0
H228 H 0.74211 0.85024 0.81969 0.0
H229 H 0.55439 0.95445 0.78872 0.0
H230 H 0.57858 0.75725 0.82274 0.0
H231 H 0.71205 1.057 0.8083 0.0
H232 H 0.56384 0.88204 0.79947 0.0
H233 H 0.7335 0.92555 0.81396 0.0
C234 C 0.70432 0.8455 0.81928 0.0
C235 C 0.661 0.79678 0.82172 0.0
C236 C 0.59642 0.92028 0.80168 0.0
C237 C 0.65093 0.88366 0.8148 0.0
C238 C 0.59104 0.96184 0.79555 0.0
C239 C 0.63232 1.01219 0.79776 0.0
C240 C 0.64389 0.92837 0.80968 0.0
C241 C 0.67899 1.01906 0.80653 0.0
C242 C 0.6995 0.88877 0.81605 0.0
C243 C 0.61317 0.79367 0.82104 0.0
N244 N 0.68361 0.97769 0.8119 0.0
N245 N 0.6095 0.83613 0.81743 0.0
H246 H 0.99309 0.49873 0.13246 0.0
H247 H 0.81721 0.63011 0.15139 0.0
H248 H 1.04809 0.64836 0.17228 0.0
H249 H 0.78465 0.50017 0.09666 0.0
H250 H 0.89658 0.63315 0.16452 0.0
H251 H 0.91156 0.49372 0.12492 0.0
C252 C 0.98792 0.53033 0.14 0.0
C253 C 1.02795 0.57381 0.15325 0.0
C254 C 0.8718 0.60376 0.14978 0.0
C255 C 0.93372 0.56889 0.14409 0.0
C256 C 0.82628 0.60186 0.14239 0.0
C257 C 0.79388 0.56471 0.12287 0.0
C258 C 0.88481 0.56788 0.13785 0.0
C259 C 0.80821 0.52949 0.11177 0.0
C260 C 0.94124 0.52768 0.13544 0.0
C261 C 1.01865 0.61396 0.16197 0.0
N262 N 0.85208 0.53187 0.11938 0.0
N263 N 0.9728 0.61057 0.15725 0.0
H264 H 0.52415 0.94511 0.48421 0.0
H265 H 0.21718 0.7876 0.47557 0.0
H266 H 0.432 1.01723 0.48897 0.0
H267 H 0.311 0.72539 0.44474 0.0
H268 H 0.29473 0.86814 0.48916 0.0
H269 H 0.4462 0.86123 0.47783 0.0
C270 C 0.48764 0.94344 0.48423 0.0
C271 C 0.48509 0.98878 0.48703 0.0
C272 C 0.29836 0.8366 0.4798 0.0
C273 C 0.39512 0.89225 0.47992 0.0
C274 C 0.25398 0.79035 0.47232 0.0
C275 C 0.25736 0.74932 0.45919 0.0
C276 C 0.34678 0.84198 0.47441 0.0
C277 C 0.30644 0.75578 0.45496 0.0
C278 C 0.44306 0.89543 0.48046 0.0
C279 C 0.43628 0.98368 0.48672 0.0
N280 N 0.34892 0.80093 0.46247 0.0
N281 N 0.39359 0.93667 0.48329 0.0
H282 H 0.60937 0.47452 0.8411 0.0
H283 H 0.74416 0.33028 0.76353 0.0
H284 H 0.74991 0.5523 0.79651 0.0
H285 H 0.61599 0.25439 0.8169 0.0
H286 H 0.7483 0.41193 0.7768 0.0
H287 H 0.61178 0.39459 0.83361 0.0
C288 C 0.64099 0.47507 0.82986 0.0
C289 C 0.67957 0.52082 0.81948 0.0
C290 C 0.71957 0.37769 0.78593 0.0
C291 C 0.68233 0.42834 0.8106 0.0
C292 C 0.71732 0.3309 0.77843 0.0
C293 C 0.67981 0.28507 0.78918 0.0
C294 C 0.68354 0.37928 0.80414 0.0
C295 C 0.64593 0.28859 0.80829 0.0
C296 C 0.64233 0.42917 0.82561 0.0
C297 C 0.71941 0.51846 0.80506 0.0
N298 N 0.64823 0.33456 0.8149 0.0
N299 N 0.71955 0.47328 0.80095 0.0
H300 H 0.76067 0.91024 0.50917 0.0
H301 H 0.95042 0.90998 0.61351 0.0
H302 H 0.76031 0.95659 0.59352 0.0
H303 H 0.90926 0.81759 0.53858 0.0
H304 H 0.88288 0.93025 0.60638 0.0
H305 H 0.81428 0.87534 0.51965 0.0
C306 C 0.77073 0.91212 0.53002 0.0
C307 C 0.75617 0.93711 0.55042 0.0
C308 C 0.88831 0.90505 0.59168 0.0
C309 C 0.81956 0.89871 0.56234 0.0
C310 C 0.92698 0.89391 0.59565 0.0
C311 C 0.93475 0.86165 0.5768 0.0
C312 C 0.85818 0.88463 0.56838 0.0
C313 C 0.90371 0.84178 0.55389 0.0
C314 C 0.80194 0.89257 0.53593 0.0
C315 C 0.77158 0.93894 0.57698 0.0
N316 N 0.86698 0.85383 0.55024 0.0
N317 N 0.80312 0.9208 0.58211 0.0
H318 H 0.88657 0.61679 0.87752 0.0
H319 H 0.99711 0.42785 0.85115 0.0
H320 H 0.9314 0.58649 0.79785 0.0
H321 H 0.90591 0.42614 0.92057 0.0
H322 H 0.97833 0.48837 0.83123 0.0
H323 H 0.90137 0.55186 0.89437 0.0
C324 C 0.90029 0.59692 0.86364 0.0
C325 C 0.90836 0.60741 0.83631 0.0
C326 C 0.96216 0.47432 0.85071 0.0
C327 C 0.92445 0.53215 0.85538 0.0
C328 C 0.97255 0.43958 0.86202 0.0
C329 C 0.95347 0.42238 0.88771 0.0
C330 C 0.93294 0.49216 0.86535 0.0
C331 C 0.92231 0.43924 0.90099 0.0
C332 C 0.9081 0.55937 0.87319 0.0
C333 C 0.92485 0.57952 0.81908 0.0
N334 N 0.91345 0.47352 0.88978 0.0
N335 N 0.93264 0.5432 0.82894 0.0
H336 H 0.48483 0.92276 0.17324 0.0
H337 H 0.4895 0.18499 0.19528 0.0
H338 H 0.37546 0.95252 0.13791 0.0
H339 H 0.61746 0.16752 0.21402 0.0
H340 H 0.45343 0.10407 0.16837 0.0
H341 H 0.54003 1.01484 0.1828 0.0
C342 C 0.47294 0.94876 0.16702 0.0
C343 C 0.42521 0.92993 0.15512 0.0
C344 C 0.48983 0.11828 0.17799 0.0
C345 C 0.48767 1.03508 0.16625 0.0
C346 C 0.51064 0.16477 0.19329 0.0
C347 C 0.55607 0.18263 0.20747 0.0
C348 C 0.51421 0.08905 0.17717 0.0
C349 C 0.58149 0.1544 0.20416 0.0
C350 C 0.50446 1.00131 0.17241 0.0
C351 C 0.41193 0.96528 0.14712 0.0
N352 N 0.55974 0.10855 0.18978 0.0
N353 N 0.44253 1.01607 0.1533 0.0
H354 H 0.73277 0.40746 0.45466 0.0
H355 H 0.76057 0.65672 0.53067 0.0
H356 H 0.6165 0.44988 0.45555 0.0
H357 H 0.88331 0.62369 0.52165 0.0
H358 H 0.71372 0.59051 0.49529 0.0
H359 H 0.79459 0.49458 0.46968 0.0
C360 C 0.72052 0.43547 0.4571 0.0
C361 C 0.66904 0.42088 0.45435 0.0
C362 C 0.75124 0.59817 0.50063 0.0
C363 C 0.73945 0.52071 0.47262 0.0
C364 C 0.77782 0.63578 0.52089 0.0
C365 C 0.82522 0.64467 0.52931 0.0
C366 C 0.77181 0.56854 0.4891 0.0
C367 C 0.84654 0.61742 0.51581 0.0
C368 C 0.75587 0.48531 0.466 0.0
C369 C 0.65547 0.45901 0.45816 0.0
N370 N 0.81918 0.57973 0.49668 0.0
N371 N 0.69021 0.50691 0.46768 0.0
H372 H 0.28978 0.5493 0.83253 0.0
H373 H 1.08654 0.27324 0.86566 0.0
H374 H 0.31806 0.42432 0.81263 0.0
H375 H 1.03695 0.36467 0.82811 0.0
H376 H 0.17442 0.33249 0.85193 0.0
H377 H 0.19814 0.48699 0.83615 0.0
C378 C 0.27652 0.50888 0.8285 0.0
C379 C 0.31118 0.49174 0.82212 0.0
C380 C 0.14414 0.33913 0.8464 0.0
C381 C 0.20776 0.42099 0.82696 0.0
C382 C 1.09431 0.30551 0.8542 0.0
C383 C 1.05498 0.31412 0.84763 0.0
C384 C 0.15466 0.38248 0.83285 0.0
C385 C 1.06657 0.35668 0.83312 0.0
C386 C 0.22452 0.47355 0.8305 0.0
C387 C 0.29239 0.43901 0.8173 0.0
N388 N 1.11574 0.39003 0.82657 0.0
N389 N 0.24202 0.40538 0.82031 0.0
H390 H 0.92745 0.44328 0.21225 0.0
H391 H 0.63349 0.34667 0.18858 0.0
H392 H 0.84214 0.34103 0.14499 0.0
H393 H 0.72363 0.4616 0.25022 0.0
H394 H 0.70946 0.34465 0.17185 0.0
H395 H 0.85325 0.45057 0.22631 0.0
C396 C 0.8928 0.42185 0.20061 0.0
C397 C 0.89059 0.39071 0.17769 0.0
C398 C 0.71278 0.37039 0.18901 0.0
C399 C 0.80568 0.39962 0.19342 0.0
C400 C 0.66938 0.37116 0.1987 0.0
C401 C 0.67238 0.40317 0.22128 0.0
C402 C 0.75951 0.40205 0.202 0.0
C403 C 0.71994 0.43596 0.23294 0.0
C404 C 0.85063 0.42647 0.20849 0.0
C405 C 0.84531 0.36517 0.16286 0.0
N406 N 0.7617 0.43418 0.22335 0.0
N407 N 0.80446 0.36992 0.1711 0.0
H408 H 0.18861 0.51344 0.08481 0.0
H409 H 0.95391 0.40203 0.98382 0.0
H410 H 1.08942 0.57641 0.08007 0.0
H411 H 1.08641 0.38739 0.96501 0.0
H412 H 0.99306 0.44849 0.02641 0.0
H413 H 0.14242 0.45163 0.04704 0.0
C414 C 0.15712 0.51415 0.07576 0.0
C415 C 0.14298 0.55022 0.08519 0.0
C416 C 1.01327 0.43454 0.0131 0.0
C417 C 1.08968 0.47944 0.04281 0.0
C418 C 0.99095 0.40792 0.98886 0.0
C419 C 1.01738 0.39168 0.97063 0.0
C420 C 1.06223 0.44467 0.01932 0.0
C421 C 1.06476 0.39933 0.97846 0.0
C422 C 1.13084 0.47896 0.05436 0.0
C423 C 1.10184 0.54959 0.07307 0.0
N424 N 1.08603 0.42588 0.00215 0.0
N425 N 1.07648 0.5146 0.05255 0.0
H426 H 0.55855 0.11788 0.41951 0.0
H427 H 0.5619 0.26938 0.32092 0.0
H428 H 0.72182 0.19796 0.41024 0.0
H429 H 0.6782 0.24029 0.28597 0.0
H430 H 0.57272 0.24168 0.36411 0.0
H431 H 0.55211 0.15833 0.38017 0.0
C432 C 0.59306 0.14452 0.40935 0.0
C433 C 0.64082 0.15577 0.41848 0.0
C434 C 0.59608 0.24178 0.34699 0.0
C435 C 0.63376 0.20116 0.37327 0.0
C436 C 0.59044 0.25818 0.32253 0.0
C437 C 0.61901 0.25672 0.29993 0.0
C438 C 0.63082 0.22427 0.3488 0.0
C439 C 0.65522 0.2415 0.30297 0.0
C440 C 0.58937 0.16758 0.38699 0.0
C441 C 0.68429 0.18871 0.40391 0.0
N442 N 0.6601 0.22573 0.32701 0.0
N443 N 0.67974 0.21008 0.3818 0.0
H444 H 0.73513 0.72993 0.76152 0.0
H445 H 0.73626 0.65804 0.60687 0.0
H446 H 0.62524 0.57816 0.73055 0.0
H447 H 0.87579 0.72972 0.65281 0.0
H448 H 0.68811 0.64119 0.64916 0.0
H449 H 0.78043 0.74482 0.7183 0.0
C450 C 0.72067 0.69965 0.74565 0.0
C451 C 0.67728 0.65221 0.74978 0.0
C452 C 0.7293 0.66062 0.64974 0.0
C453 C 0.72752 0.66994 0.70013 0.0
C454 C 0.75703 0.67003 0.62565 0.0
C455 C 0.81064 0.69526 0.62596 0.0
C456 C 0.75523 0.6779 0.67429 0.0
C457 C 0.83483 0.71118 0.65122 0.0
C458 C 0.74638 0.70832 0.72104 0.0
C459 C 0.659 0.61502 0.72821 0.0
N460 N 0.80698 0.70264 0.67432 0.0
N461 N 0.68419 0.62472 0.70413 0.0
H462 H 0.52876 0.09379 0.57622 0.0
H463 H 0.72051 0.23891 0.69754 0.0
H464 H 0.69019 0.18836 0.56312 0.0
H465 H 0.57975 0.09787 0.70742 0.0
H466 H 0.70809 0.22604 0.64852 0.0
H467 H 0.54427 0.09894 0.6247 0.0
C468 C 0.5675 0.11535 0.58357 0.0
C469 C 0.60824 0.14077 0.56571 0.0
C470 C 0.68012 0.19773 0.6614 0.0
C471 C 0.62619 0.14759 0.62109 0.0
C472 C 0.68704 0.20519 0.68934 0.0
C473 C 0.65104 0.16942 0.70652 0.0
C474 C 0.63633 0.15474 0.65056 0.0
C475 C 0.6085 0.12621 0.69485 0.0
C476 C 0.57633 0.11819 0.61119 0.0
C477 C 0.65772 0.16813 0.57623 0.0
N478 N 0.60201 0.12036 0.66762 0.0
N479 N 0.66527 0.17138 0.60328 0.0
H480 H 0.64788 0.58403 0.89469 0.0
H481 H 0.66185 0.69466 0.04705 0.0
H482 H 0.70919 0.74484 0.91632 0.0
H483 H 0.66427 0.55468 0.027 0.0
H484 H 0.66745 0.70956 -0.00106 0.0
H485 H 0.6406 0.56786 0.94288 0.0
C486 C 0.65922 0.61581 0.90959 0.0
C487 C 0.6792 0.66589 0.90157 0.0
C488 C 0.66696 0.67568 0.00504 0.0
C489 C 0.67092 0.64768 0.95653 0.0
C490 C 0.66374 0.66716 0.03246 0.0
C491 C 0.66279 0.62347 0.04098 0.0
C492 C 0.66829 0.6398 0.98587 0.0
C493 C 0.66536 0.58905 0.02125 0.0
C494 C 0.65546 0.60662 0.93702 0.0
C495 C 0.69367 0.7057 0.92168 0.0
N496 N 0.66755 0.59769 -0.00543 0.0
N497 N 0.68909 0.69575 0.94819 0.0
H498 H 0.2371 0.57505 0.24272 0.0
H499 H 1.10144 0.64325 0.36574 0.0
H500 H 1.1281 0.62334 0.23031 0.0
H501 H 0.24832 0.65534 0.37277 0.0
H502 H 1.10612 0.63004 0.31658 0.0
H503 H 0.23835 0.59925 0.29088 0.0
C504 C 0.21375 0.59122 0.25017 0.0
C505 C 0.18243 0.59719 0.2326 0.0
C506 C 0.13744 0.63594 0.32889 0.0
C507 C 0.18285 0.62403 0.28776 0.0
C508 C 0.13464 0.6431 0.35692 0.0
C509 C 0.17451 0.65027 0.37335 0.0
C510 C 0.18 0.635 0.31725 0.0
C511 C 0.21687 0.65022 0.36085 0.0
C512 C 0.2145 0.60505 0.27763 0.0
C513 C 0.15291 0.61831 0.24323 0.0
N514 N 0.21827 0.64221 0.33362 0.0
N515 N 0.1533 0.63037 0.27024 0.0
loop_
_geom_bond_atom_site_label_1
_geom_bond_atom_site_label_2
_geom_bond_distance
_geom_bond_site_symmetry_2
_ccdc_geom_bond_type
Tb0 C2 2.809 . S
Tb0 O20 2.484 . S
Tb0 O21 2.440 . S
Tb0 O22 2.658 . S
Tb0 O23 2.409 . S
Tb0 O24 2.378 . S
Tb0 O28 2.325 . S
Tb0 O31 2.341 1_455 S
Tb1 C11 2.809 1_455 S
Tb1 O22 2.325 . S
Tb1 O25 2.341 . S
Tb1 O26 2.484 1_455 S
Tb1 O27 2.440 1_455 S
Tb1 O28 2.658 . S
Tb1 O29 2.409 . S
Tb1 O30 2.378 1_455 S
C2 Tb0 2.809 . S
C2 C3 1.514 . S
C2 O20 1.248 . S
C2 O21 1.266 . S
C3 C2 1.514 . S
C3 C4 1.359 . S
C3 C8 1.348 . S
C4 C3 1.359 . S
C4 C5 1.380 . S
C4 H32 0.929 . S
C5 C4 1.380 . S
C5 C6 1.347 . S
C5 H33 0.931 . S
C6 C5 1.347 . S
C6 C7 1.369 . S
C7 C6 1.369 . S
C7 C8 1.408 . S
C7 H34 0.930 . S
C8 C3 1.348 . S
C8 C7 1.408 . S
C8 H35 0.930 . S
C9 O22 1.281 . S
C9 O23 1.254 . S
C10 O24 1.236 . S
C10 O25 1.266 . S
C11 Tb1 2.809 1_655 S
C11 C12 1.514 . S
C11 O26 1.248 . S
C11 O27 1.266 . S
C12 C11 1.514 . S
C12 C13 1.359 . S
C12 C17 1.348 . S
C13 C12 1.359 . S
C13 C14 1.380 . S
C13 H36 0.929 . S
C14 C13 1.380 . S
C14 C15 1.347 . S
C14 H37 0.931 . S
C15 C14 1.347 . S
C15 C16 1.369 . S
C16 C15 1.369 . S
C16 C17 1.408 . S
C16 H38 0.930 . S
C17 C12 1.348 . S
C17 C16 1.408 . S
C17 H39 0.930 . S
C18 O28 1.281 . S
C18 O29 1.254 . S
C19 O30 1.236 . S
C19 O31 1.266 . S
O20 Tb0 2.484 . S
O20 C2 1.248 . S
O21 Tb0 2.440 . S
O21 C2 1.266 . S
O22 Tb0 2.658 . S
O22 Tb1 2.325 . S
O22 C9 1.281 . S
O23 Tb0 2.409 . S
O23 C9 1.254 . S
O24 Tb0 2.378 . S
O24 C10 1.236 . S
O25 Tb1 2.341 . S
O25 C10 1.266 . S
O26 Tb1 2.484 1_655 S
O26 C11 1.248 . S
O27 Tb1 2.440 1_655 S
O27 C11 1.266 . S
O28 Tb0 2.325 . S
O28 Tb1 2.658 . S
O28 C18 1.281 . S
O29 Tb1 2.409 . S
O29 C18 1.254 . S
O30 Tb1 2.378 1_655 S
O30 C19 1.236 . S
O31 Tb0 2.341 1_655 S
O31 C19 1.266 . S
H32 C4 0.929 . S
H33 C5 0.931 . S
H34 C7 0.930 . S
H35 C8 0.930 . S
H36 C13 0.929 . S
H37 C14 0.931 . S
H38 C16 0.930 . S
H39 C17 0.930 . S
Tb40 C42 2.809 1_545 S
Tb40 O60 2.484 1_545 S
Tb40 O61 2.440 1_545 S
Tb40 O62 2.658 . S
Tb40 O63 2.409 . S
Tb40 O64 2.378 1_545 S
Tb40 O68 2.325 . S
Tb40 O71 2.341 . S
Tb41 C51 2.809 . S
Tb41 O62 2.325 . S
Tb41 O65 2.341 1_545 S
Tb41 O66 2.484 . S
Tb41 O67 2.440 . S
Tb41 O68 2.658 . S
Tb41 O69 2.409 . S
Tb41 O70 2.378 . S
C42 Tb40 2.809 1_565 S
C42 C43 1.514 . S
C42 O60 1.248 . S
C42 O61 1.266 . S
C43 C42 1.514 . S
C43 C44 1.359 . S
C43 C48 1.348 . S
C44 C43 1.359 . S
C44 C45 1.380 . S
C44 H72 0.929 . S
C45 C44 1.380 . S
C45 C46 1.347 . S
C45 H73 0.931 . S
C46 C45 1.347 . S
C46 C47 1.369 . S
C47 C46 1.369 . S
C47 C48 1.408 . S
C47 H74 0.930 . S
C48 C43 1.348 . S
C48 C47 1.408 . S
C48 H75 0.930 . S
C49 O62 1.281 . S
C49 O63 1.254 . S
C50 O64 1.236 . S
C50 O65 1.266 . S
C51 Tb41 2.809 . S
C51 C52 1.514 . S
C51 O66 1.248 . S
C51 O67 1.266 . S
C52 C51 1.514 . S
C52 C53 1.359 . S
C52 C57 1.348 . S
C53 C52 1.359 . S
C53 C54 1.380 . S
C53 H76 0.929 . S
C54 C53 1.380 . S
C54 C55 1.347 . S
C54 H77 0.931 . S
C55 C54 1.347 . S
C55 C56 1.369 . S
C56 C55 1.369 . S
C56 C57 1.408 . S
C56 H78 0.930 . S
C57 C52 1.348 . S
C57 C56 1.408 . S
C57 H79 0.930 . S
C58 O68 1.281 . S
C58 O69 1.254 . S
C59 O70 1.236 . S
C59 O71 1.266 . S
O60 Tb40 2.484 1_565 S
O60 C42 1.248 . S
O61 Tb40 2.440 1_565 S
O61 C42 1.266 . S
O62 Tb40 2.658 . S
O62 Tb41 2.325 . S
O62 C49 1.281 . S
O63 Tb40 2.409 . S
O63 C49 1.254 . S
O64 Tb40 2.378 1_565 S
O64 C50 1.236 . S
O65 Tb41 2.341 1_565 S
O65 C50 1.266 . S
O66 Tb41 2.484 . S
O66 C51 1.248 . S
O67 Tb41 2.440 . S
O67 C51 1.266 . S
O68 Tb40 2.325 . S
O68 Tb41 2.658 . S
O68 C58 1.281 . S
O69 Tb41 2.409 . S
O69 C58 1.254 . S
O70 Tb41 2.378 . S
O70 C59 1.236 . S
O71 Tb40 2.341 . S
O71 C59 1.266 . S
H72 C44 0.929 . S
H73 C45 0.931 . S
H74 C47 0.930 . S
H75 C48 0.930 . S
H76 C53 0.929 . S
H77 C54 0.931 . S
H78 C56 0.930 . S
H79 C57 0.930 . S
Tb80 C82 2.809 . S
Tb80 O100 2.484 . S
Tb80 O101 2.440 . S
Tb80 O102 2.658 . S
Tb80 O103 2.409 . S
Tb80 O104 2.378 . S
Tb80 O108 2.325 . S
Tb80 O111 2.341 . S
Tb81 C91 2.809 . S
Tb81 O102 2.325 . S
Tb81 O105 2.341 . S
Tb81 O106 2.484 . S
Tb81 O107 2.440 . S
Tb81 O108 2.658 . S
Tb81 O109 2.409 . S
Tb81 O110 2.378 . S
C82 Tb80 2.809 . S
C82 C83 1.514 . S
C82 O100 1.248 . S
C82 O101 1.266 . S
C83 C82 1.514 . S
C83 C84 1.359 . S
C83 C88 1.348 . S
C84 C83 1.359 . S
C84 C85 1.380 . S
C84 H112 0.929 . S
C85 C84 1.380 . S
C85 C86 1.347 . S
C85 H113 0.931 . S
C86 C85 1.347 . S
C86 C87 1.369 . S
C87 C86 1.369 . S
C87 C88 1.408 . S
C87 H114 0.930 . S
C88 C83 1.348 . S
C88 C87 1.408 . S
C88 H115 0.930 . S
C89 O102 1.281 . S
C89 O103 1.254 . S
C90 O104 1.236 . S
C90 O105 1.266 . S
C91 Tb81 2.809 . S
C91 C92 1.514 . S
C91 O106 1.248 . S
C91 O107 1.266 . S
C92 C91 1.514 . S
C92 C93 1.359 . S
C92 C97 1.348 . S
C93 C92 1.359 . S
C93 C94 1.380 . S
C93 H116 0.929 . S
C94 C93 1.380 . S
C94 C95 1.347 . S
C94 H117 0.931 . S
C95 C94 1.347 . S
C95 C96 1.369 . S
C96 C95 1.369 . S
C96 C97 1.408 . S
C96 H118 0.930 . S
C97 C92 1.348 . S
C97 C96 1.408 . S
C97 H119 0.930 . S
C98 O108 1.281 . S
C98 O109 1.254 . S
C99 O110 1.236 . S
C99 O111 1.266 . S
O100 Tb80 2.484 . S
O100 C82 1.248 . S
O101 Tb80 2.440 . S
O101 C82 1.266 . S
O102 Tb80 2.658 . S
O102 Tb81 2.325 . S
O102 C89 1.281 . S
O103 Tb80 2.409 . S
O103 C89 1.254 . S
O104 Tb80 2.378 . S
O104 C90 1.236 . S
O105 Tb81 2.341 . S
O105 C90 1.266 . S
O106 Tb81 2.484 . S
O106 C91 1.248 . S
O107 Tb81 2.440 . S
O107 C91 1.266 . S
O108 Tb80 2.325 . S
O108 Tb81 2.658 . S
O108 C98 1.281 . S
O109 Tb81 2.409 . S
O109 C98 1.254 . S
O110 Tb81 2.378 . S
O110 C99 1.236 . S
O111 Tb80 2.341 . S
O111 C99 1.266 . S
H112 C84 0.929 . S
H113 C85 0.931 . S
H114 C87 0.930 . S
H115 C88 0.930 . S
H116 C93 0.929 . S
H117 C94 0.931 . S
H118 C96 0.930 . S
H119 C97 0.930 . S
H120 C125 0.930 . S
H121 C128 0.930 . S
H122 C130 0.930 . S
H123 C124 1.016 . S
C124 H123 1.016 . S
C124 N131 1.286 . S
C125 H120 0.930 . S
C125 C126 1.397 . S
C125 C127 1.361 . S
C126 C125 1.397 . S
C126 C130 1.390 . S
C127 C125 1.361 . S
C127 C128 1.393 . S
C127 N131 1.413 . S
C128 H121 0.930 . S
C128 C127 1.393 . S
C128 C129 1.399 . S
C129 C128 1.399 . S
C129 C130 1.381 . S
C130 H122 0.930 . S
C130 C126 1.390 . S
C130 C129 1.381 . S
N131 C124 1.286 . S
N131 C127 1.413 . S
H132 C137 0.930 . S
H133 C140 0.930 . S
H134 C142 0.930 . S
H135 C136 1.016 . S
C136 H135 1.016 . S
C136 N143 1.286 . S
C137 H132 0.930 . S
C137 C138 1.397 . S
C137 C139 1.361 . S
C138 C137 1.397 . S
C138 C142 1.390 . S
C139 C137 1.361 . S
C139 C140 1.393 . S
C139 N143 1.413 . S
C140 H133 0.930 . S
C140 C139 1.393 . S
C140 C141 1.399 . S
C141 C140 1.399 . S
C141 C142 1.381 . S
C142 H134 0.930 . S
C142 C138 1.390 . S
C142 C141 1.381 . S
N143 C136 1.286 . S
N143 C139 1.413 . S
H144 C149 0.930 . S
H145 C152 0.930 . S
H146 C154 0.930 . S
H147 C148 1.016 . S
C148 H147 1.016 . S
C148 N155 1.286 . S
C149 H144 0.930 . S
C149 C150 1.397 . S
C149 C151 1.361 1_655 S
C150 C149 1.397 . S
C150 C154 1.390 . S
C151 C149 1.361 1_455 S
C151 C152 1.393 . S
C151 N155 1.413 . S
C152 H145 0.930 . S
C152 C151 1.393 . S
C152 C153 1.399 . S
C153 C152 1.399 . S
C153 C154 1.381 1_455 S
C154 H146 0.930 . S
C154 C150 1.390 . S
C154 C153 1.381 1_655 S
N155 C148 1.286 . S
N155 C151 1.413 . S
H156 C161 0.930 . S
H157 C164 0.930 1_655 S
H158 C166 0.930 . S
H159 C160 1.016 . S
C160 H159 1.016 . S
C160 N167 1.286 . S
C161 H156 0.930 . S
C161 C162 1.397 . S
C161 C163 1.361 . S
C162 C161 1.397 . S
C162 C166 1.390 . S
C163 C161 1.361 . S
C163 C164 1.393 . S
C163 N167 1.413 1_455 S
C164 H157 0.930 1_455 S
C164 C163 1.393 . S
C164 C165 1.399 . S
C165 C164 1.399 . S
C165 C166 1.381 . S
C166 H158 0.930 . S
C166 C162 1.390 . S
C166 C165 1.381 . S
N167 C160 1.286 . S
N167 C163 1.413 1_655 S
H168 C173 0.930 . S
H169 C176 0.930 . S
H170 C178 0.930 . S
H171 C172 1.016 . S
C172 H171 1.016 . S
C172 N179 1.286 . S
C173 H168 0.930 . S
C173 C174 1.397 . S
C173 C175 1.357 1_545 S
C174 C173 1.397 . S
C174 C178 1.390 . S
C175 C173 1.357 1_565 S
C175 C176 1.393 . S
C175 N179 1.417 . S
C176 H169 0.930 . S
C176 C175 1.393 . S
C176 C177 1.399 1_565 S
C177 C176 1.399 1_545 S
C177 C178 1.381 . S
C178 H170 0.930 . S
C178 C174 1.390 . S
C178 C177 1.381 . S
N179 C172 1.286 . S
N179 C175 1.417 . S
H180 C185 0.930 . S
H181 C188 0.930 . S
H182 C190 0.930 . S
H183 C184 1.016 . S
C184 H183 1.016 . S
C184 N191 1.286 . S
C185 H180 0.930 . S
C185 C186 1.397 . S
C185 C187 1.361 . S
C186 C185 1.397 . S
C186 C190 1.390 . S
C187 C185 1.361 . S
C187 C188 1.393 . S
C187 N191 1.413 . S
C188 H181 0.930 . S
C188 C187 1.393 . S
C188 C189 1.399 . S
C189 C188 1.399 . S
C189 C190 1.381 . S
C190 H182 0.930 . S
C190 C186 1.390 . S
C190 C189 1.381 . S
N191 C184 1.286 . S
N191 C187 1.413 . S
H192 C198 0.930 . S
H193 C202 0.930 . S
H194 C207 0.929 . S
H195 C205 0.929 . S
H196 C200 0.929 . S
H197 C206 0.929 . S
C198 H192 0.930 . S
C198 C199 1.367 . S
C198 C206 1.378 . S
C199 C198 1.367 . S
C199 C207 1.433 . S
C200 H196 0.929 . S
C200 C202 1.378 . S
C200 C204 1.350 . S
C201 C204 1.463 . S
C201 C206 1.350 . S
C201 N209 1.427 . S
C202 H193 0.930 . S
C202 C200 1.378 . S
C202 C203 1.367 . S
C203 C202 1.367 . S
C203 C205 1.433 . S
C204 C200 1.350 . S
C204 C201 1.463 . S
C204 N208 1.427 . S
C205 H195 0.929 . S
C205 C203 1.433 . S
C205 N208 1.384 . S
C206 H197 0.929 . S
C206 C198 1.378 . S
C206 C201 1.350 . S
C207 H194 0.929 . S
C207 C199 1.433 . S
C207 N209 1.384 . S
N208 C204 1.427 . S
N208 C205 1.384 . S
N209 C201 1.427 . S
N209 C207 1.384 . S
H210 C216 0.930 . S
H211 C220 0.930 . S
H212 C225 0.929 . S
H213 C223 0.929 . S
H214 C218 0.929 . S
H215 C224 0.929 . S
C216 H210 0.930 . S
C216 C217 1.367 . S
C216 C224 1.378 . S
C217 C216 1.367 . S
C217 C225 1.433 . S
C218 H214 0.929 . S
C218 C220 1.378 . S
C218 C222 1.350 . S
C219 C222 1.463 . S
C219 C224 1.350 . S
C219 N227 1.427 . S
C220 H211 0.930 . S
C220 C218 1.378 . S
C220 C221 1.367 . S
C221 C220 1.367 . S
C221 C223 1.433 . S
C222 C218 1.350 . S
C222 C219 1.463 . S
C222 N226 1.427 . S
C223 H213 0.929 . S
C223 C221 1.433 . S
C223 N226 1.384 . S
C224 H215 0.929 . S
C224 C216 1.378 . S
C224 C219 1.350 . S
C225 H212 0.929 . S
C225 C217 1.433 . S
C225 N227 1.384 . S
N226 C222 1.427 . S
N226 C223 1.384 . S
N227 C219 1.427 . S
N227 C225 1.384 . S
H228 C234 0.930 . S
H229 C238 0.930 . S
H230 C243 0.929 . S
H231 C241 0.929 . S
H232 C236 0.929 . S
H233 C242 0.929 . S
C234 H228 0.930 . S
C234 C235 1.367 . S
C234 C242 1.378 . S
C235 C234 1.367 . S
C235 C243 1.433 . S
C236 H232 0.929 . S
C236 C238 1.378 . S
C236 C240 1.350 . S
C237 C240 1.463 . S
C237 C242 1.350 . S
C237 N245 1.427 . S
C238 H229 0.930 . S
C238 C236 1.378 . S
C238 C239 1.367 . S
C239 C238 1.367 . S
C239 C241 1.433 . S
C240 C236 1.350 . S
C240 C237 1.463 . S
C240 N244 1.427 . S
C241 H231 0.929 . S
C241 C239 1.433 . S
C241 N244 1.384 . S
C242 H233 0.929 . S
C242 C234 1.378 . S
C242 C237 1.350 . S
C243 H230 0.929 . S
C243 C235 1.433 . S
C243 N245 1.384 . S
N244 C240 1.427 . S
N244 C241 1.384 . S
N245 C237 1.427 . S
N245 C243 1.384 . S
H246 C252 0.930 . S
H247 C256 0.930 . S
H248 C261 0.929 . S
H249 C259 0.929 . S
H250 C254 0.929 . S
H251 C260 0.929 . S
C252 H246 0.930 . S
C252 C253 1.367 . S
C252 C260 1.378 . S
C253 C252 1.367 . S
C253 C261 1.433 . S
C254 H250 0.929 . S
C254 C256 1.378 . S
C254 C258 1.350 . S
C255 C258 1.463 . S
C255 C260 1.350 . S
C255 N263 1.427 . S
C256 H247 0.930 . S
C256 C254 1.378 . S
C256 C257 1.367 . S
C257 C256 1.367 . S
C257 C259 1.433 . S
C258 C254 1.350 . S
C258 C255 1.463 . S
C258 N262 1.427 . S
C259 H249 0.929 . S
C259 C257 1.433 . S
C259 N262 1.384 . S
C260 H251 0.929 . S
C260 C252 1.378 . S
C260 C255 1.350 . S
C261 H248 0.929 . S
C261 C253 1.433 . S
C261 N263 1.384 . S
N262 C258 1.427 . S
N262 C259 1.384 . S
N263 C255 1.427 . S
N263 C261 1.384 . S
H264 C270 0.930 . S
H265 C274 0.930 . S
H266 C279 0.929 . S
H267 C277 0.929 . S
H268 C272 0.929 . S
H269 C278 0.929 . S
C270 H264 0.930 . S
C270 C271 1.367 . S
C270 C278 1.378 . S
C271 C270 1.367 . S
C271 C279 1.433 . S
C272 H268 0.929 . S
C272 C274 1.378 . S
C272 C276 1.350 . S
C273 C276 1.463 . S
C273 C278 1.350 . S
C273 N281 1.427 . S
C274 H265 0.930 . S
C274 C272 1.378 . S
C274 C275 1.367 . S
C275 C274 1.367 . S
C275 C277 1.433 . S
C276 C272 1.350 . S
C276 C273 1.463 . S
C276 N280 1.427 . S
C277 H267 0.929 . S
C277 C275 1.433 . S
C277 N280 1.384 . S
C278 H269 0.929 . S
C278 C270 1.378 . S
C278 C273 1.350 . S
C279 H266 0.929 . S
C279 C271 1.433 . S
C279 N281 1.384 . S
N280 C276 1.427 . S
N280 C277 1.384 . S
N281 C273 1.427 . S
N281 C279 1.384 . S
H282 C288 0.930 . S
H283 C292 0.930 . S
H284 C297 0.929 . S
H285 C295 0.929 . S
H286 C290 0.929 . S
H287 C296 0.929 . S
C288 H282 0.930 . S
C288 C289 1.367 . S
C288 C296 1.378 . S
C289 C288 1.367 . S
C289 C297 1.433 . S
C290 H286 0.929 . S
C290 C292 1.378 . S
C290 C294 1.350 . S
C291 C294 1.463 . S
C291 C296 1.350 . S
C291 N299 1.427 . S
C292 H283 0.930 . S
C292 C290 1.378 . S
C292 C293 1.367 . S
C293 C292 1.367 . S
C293 C295 1.433 . S
C294 C290 1.350 . S
C294 C291 1.463 . S
C294 N298 1.427 . S
C295 H285 0.929 . S
C295 C293 1.433 . S
C295 N298 1.384 . S
C296 H287 0.929 . S
C296 C288 1.378 . S
C296 C291 1.350 . S
C297 H284 0.929 . S
C297 C289 1.433 . S
C297 N299 1.384 . S
N298 C294 1.427 . S
N298 C295 1.384 . S
N299 C291 1.427 . S
N299 C297 1.384 . S
H300 C306 0.930 . S
H301 C310 0.930 . S
H302 C315 0.929 . S
H303 C313 0.929 . S
H304 C308 0.929 . S
H305 C314 0.929 . S
C306 H300 0.930 . S
C306 C307 1.367 . S
C306 C314 1.378 . S
C307 C306 1.367 . S
C307 C315 1.433 . S
C308 H304 0.929 . S
C308 C310 1.378 . S
C308 C312 1.350 . S
C309 C312 1.463 . S
C309 C314 1.350 . S
C309 N317 1.427 . S
C310 H301 0.930 . S
C310 C308 1.378 . S
C310 C311 1.367 . S
C311 C310 1.367 . S
C311 C313 1.433 . S
C312 C308 1.350 . S
C312 C309 1.463 . S
C312 N316 1.427 . S
C313 H303 0.929 . S
C313 C311 1.433 . S
C313 N316 1.384 . S
C314 H305 0.929 . S
C314 C306 1.378 . S
C314 C309 1.350 . S
C315 H302 0.929 . S
C315 C307 1.433 . S
C315 N317 1.384 . S
N316 C312 1.427 . S
N316 C313 1.384 . S
N317 C309 1.427 . S
N317 C315 1.384 . S
H318 C324 0.930 . S
H319 C328 0.930 . S
H320 C333 0.929 . S
H321 C331 0.929 . S
H322 C326 0.929 . S
H323 C332 0.929 . S
C324 H318 0.930 . S
C324 C325 1.367 . S
C324 C332 1.378 . S
C325 C324 1.367 . S
C325 C333 1.433 . S
C326 H322 0.929 . S
C326 C328 1.378 . S
C326 C330 1.350 . S
C327 C330 1.463 . S
C327 C332 1.350 . S
C327 N335 1.427 . S
C328 H319 0.930 . S
C328 C326 1.378 . S
C328 C329 1.367 . S
C329 C328 1.367 . S
C329 C331 1.433 . S
C330 C326 1.350 . S
C330 C327 1.463 . S
C330 N334 1.427 . S
C331 H321 0.929 . S
C331 C329 1.433 . S
C331 N334 1.384 . S
C332 H323 0.929 . S
C332 C324 1.378 . S
C332 C327 1.350 . S
C333 H320 0.929 . S
C333 C325 1.433 . S
C333 N335 1.384 . S
N334 C330 1.427 . S
N334 C331 1.384 . S
N335 C327 1.427 . S
N335 C333 1.384 . S
H336 C342 0.930 . S
H337 C346 0.930 . S
H338 C351 0.929 . S
H339 C349 0.929 . S
H340 C344 0.929 . S
H341 C350 0.929 . S
C342 H336 0.930 . S
C342 C343 1.367 . S
C342 C350 1.378 . S
C343 C342 1.367 . S
C343 C351 1.433 . S
C344 H340 0.929 . S
C344 C346 1.378 1_565 S
C344 C348 1.350 . S
C345 C348 1.463 . S
C345 C350 1.350 . S
C345 N353 1.427 . S
C346 H337 0.930 . S
C346 C344 1.378 1_545 S
C346 C347 1.367 . S
C347 C346 1.367 . S
C347 C349 1.433 1_545 S
C348 C344 1.350 . S
C348 C345 1.463 . S
C348 N352 1.427 . S
C349 H339 0.929 . S
C349 C347 1.433 1_565 S
C349 N352 1.384 . S
C350 H341 0.929 . S
C350 C342 1.378 . S
C350 C345 1.350 . S
C351 H338 0.929 . S
C351 C343 1.433 . S
C351 N353 1.384 . S
N352 C348 1.427 . S
N352 C349 1.384 . S
N353 C345 1.427 . S
N353 C351 1.384 . S
H354 C360 0.930 . S
H355 C364 0.930 . S
H356 C369 0.929 . S
H357 C367 0.929 . S
H358 C362 0.929 . S
H359 C368 0.929 . S
C360 H354 0.930 . S
C360 C361 1.367 . S
C360 C368 1.378 . S
C361 C360 1.367 . S
C361 C369 1.433 . S
C362 H358 0.929 . S
C362 C364 1.378 . S
C362 C366 1.350 . S
C363 C366 1.463 . S
C363 C368 1.350 . S
C363 N371 1.427 . S
C364 H355 0.930 . S
C364 C362 1.378 . S
C364 C365 1.367 . S
C365 C364 1.367 . S
C365 C367 1.433 . S
C366 C362 1.350 . S
C366 C363 1.463 . S
C366 N370 1.427 . S
C367 H357 0.929 . S
C367 C365 1.433 . S
C367 N370 1.384 . S
C368 H359 0.929 . S
C368 C360 1.378 . S
C368 C363 1.350 . S
C369 H356 0.929 . S
C369 C361 1.433 . S
C369 N371 1.384 . S
N370 C366 1.427 . S
N370 C367 1.384 . S
N371 C363 1.427 . S
N371 C369 1.384 . S
H372 C378 0.930 . S
H373 C382 0.930 . S
H374 C387 0.929 . S
H375 C385 0.929 . S
H376 C380 0.929 . S
H377 C386 0.929 . S
C378 H372 0.930 . S
C378 C379 1.367 . S
C378 C386 1.378 . S
C379 C378 1.367 . S
C379 C387 1.433 . S
C380 H376 0.929 . S
C380 C382 1.378 . S
C380 C384 1.350 . S
C381 C384 1.463 . S
C381 C386 1.350 . S
C381 N389 1.427 . S
C382 H373 0.930 . S
C382 C380 1.378 . S
C382 C383 1.367 . S
C383 C382 1.367 . S
C383 C385 1.433 . S
C384 C380 1.350 . S
C384 C381 1.463 . S
C384 N388 1.427 . S
C385 H375 0.929 . S
C385 C383 1.433 . S
C385 N388 1.384 . S
C386 H377 0.929 . S
C386 C378 1.378 . S
C386 C381 1.350 . S
C387 H374 0.929 . S
C387 C379 1.433 . S
C387 N389 1.384 . S
N388 C384 1.427 . S
N388 C385 1.384 . S
N389 C381 1.427 . S
N389 C387 1.384 . S
H390 C396 0.930 . S
H391 C400 0.930 . S
H392 C405 0.929 . S
H393 C403 0.929 . S
H394 C398 0.929 . S
H395 C404 0.929 . S
C396 H390 0.930 . S
C396 C397 1.367 . S
C396 C404 1.378 . S
C397 C396 1.367 . S
C397 C405 1.433 . S
C398 H394 0.929 . S
C398 C400 1.378 . S
C398 C402 1.350 . S
C399 C402 1.463 . S
C399 C404 1.350 . S
C399 N407 1.427 . S
C400 H391 0.930 . S
C400 C398 1.378 . S
C400 C401 1.367 . S
C401 C400 1.367 . S
C401 C403 1.433 . S
C402 C398 1.350 . S
C402 C399 1.463 . S
C402 N406 1.427 . S
C403 H393 0.929 . S
C403 C401 1.433 . S
C403 N406 1.384 . S
C404 H395 0.929 . S
C404 C396 1.378 . S
C404 C399 1.350 . S
C405 H392 0.929 . S
C405 C397 1.433 . S
C405 N407 1.384 . S
N406 C402 1.427 . S
N406 C403 1.384 . S
N407 C399 1.427 . S
N407 C405 1.384 . S
H408 C414 0.930 . S
H409 C418 0.930 . S
H410 C423 0.929 . S
H411 C421 0.929 . S
H412 C416 0.929 1_554 S
H413 C422 0.929 . S
C414 H408 0.930 . S
C414 C415 1.367 . S
C414 C422 1.378 . S
C415 C414 1.367 . S
C415 C423 1.433 1_455 S
C416 H412 0.929 1_556 S
C416 C418 1.378 . S
C416 C420 1.350 1_656 S
C417 C420 1.463 . S
C417 C422 1.350 . S
C417 N425 1.427 1_455 S
C418 H409 0.930 . S
C418 C416 1.378 . S
C418 C419 1.367 1_655 S
C419 C418 1.367 1_455 S
C419 C421 1.433 . S
C420 C416 1.350 1_454 S
C420 C417 1.463 . S
C420 N424 1.427 1_554 S
C421 H411 0.929 . S
C421 C419 1.433 . S
C421 N424 1.384 . S
C422 H413 0.929 . S
C422 C414 1.378 . S
C422 C417 1.350 . S
C423 H410 0.929 . S
C423 C415 1.433 1_655 S
C423 N425 1.384 . S
N424 C420 1.427 1_556 S
N424 C421 1.384 . S
N425 C417 1.427 1_655 S
N425 C423 1.384 . S
H426 C432 0.930 1_565 S
H427 C436 0.930 . S
H428 C441 0.929 . S
H429 C439 0.929 . S
H430 C434 0.929 . S
H431 C440 0.929 1_565 S
C432 H426 0.930 1_545 S
C432 C433 1.367 . S
C432 C440 1.378 . S
C433 C432 1.367 . S
C433 C441 1.433 . S
C434 H430 0.929 . S
C434 C436 1.378 . S
C434 C438 1.350 . S
C435 C438 1.463 . S
C435 C440 1.350 . S
C435 N443 1.427 . S
C436 H427 0.930 . S
C436 C434 1.378 . S
C436 C437 1.367 . S
C437 C436 1.367 . S
C437 C439 1.433 . S
C438 C434 1.350 . S
C438 C435 1.463 . S
C438 N442 1.427 . S
C439 H429 0.929 . S
C439 C437 1.433 . S
C439 N442 1.384 . S
C440 H431 0.929 1_545 S
C440 C432 1.378 . S
C440 C435 1.350 . S
C441 H428 0.929 . S
C441 C433 1.433 . S
C441 N443 1.384 . S
N442 C438 1.427 . S
N442 C439 1.384 . S
N443 C435 1.427 . S
N443 C441 1.384 . S
H444 C450 0.930 . S
H445 C454 0.930 . S
H446 C459 0.929 . S
H447 C457 0.929 . S
H448 C452 0.929 . S
H449 C458 0.929 . S
C450 H444 0.930 . S
C450 C451 1.367 . S
C450 C458 1.378 . S
C451 C450 1.367 . S
C451 C459 1.433 . S
C452 H448 0.929 . S
C452 C454 1.378 . S
C452 C456 1.350 . S
C453 C456 1.463 . S
C453 C458 1.350 . S
C453 N461 1.427 . S
C454 H445 0.930 . S
C454 C452 1.378 . S
C454 C455 1.367 . S
C455 C454 1.367 . S
C455 C457 1.433 . S
C456 C452 1.350 . S
C456 C453 1.463 . S
C456 N460 1.427 . S
C457 H447 0.929 . S
C457 C455 1.433 . S
C457 N460 1.384 . S
C458 H449 0.929 . S
C458 C450 1.378 . S
C458 C453 1.350 . S
C459 H446 0.929 . S
C459 C451 1.433 . S
C459 N461 1.384 . S
N460 C456 1.427 . S
N460 C457 1.384 . S
N461 C453 1.427 . S
N461 C459 1.384 . S
H462 C468 0.930 . S
H463 C472 0.930 . S
H464 C477 0.929 . S
H465 C475 0.929 . S
H466 C470 0.929 . S
H467 C476 0.929 . S
C468 H462 0.930 . S
C468 C469 1.367 1_565 S
C468 C476 1.378 . S
C469 C468 1.367 1_545 S
C469 C477 1.433 . S
C470 H466 0.929 . S
C470 C472 1.378 . S
C470 C474 1.350 . S
C471 C474 1.463 . S
C471 C476 1.350 1_545 S
C471 N479 1.427 . S
C472 H463 0.930 . S
C472 C470 1.378 . S
C472 C473 1.367 . S
C473 C472 1.367 . S
C473 C475 1.433 1_545 S
C474 C470 1.350 . S
C474 C471 1.463 . S
C474 N478 1.427 1_545 S
C475 H465 0.929 . S
C475 C473 1.433 1_565 S
C475 N478 1.384 . S
C476 H467 0.929 . S
C476 C468 1.378 . S
C476 C471 1.350 1_565 S
C477 H464 0.929 . S
C477 C469 1.433 . S
C477 N479 1.384 . S
N478 C474 1.427 1_565 S
N478 C475 1.384 . S
N479 C471 1.427 . S
N479 C477 1.384 . S
H480 C486 0.930 . S
H481 C490 0.930 . S
H482 C495 0.929 . S
H483 C493 0.929 . S
H484 C488 0.938 . S
H485 C494 0.929 . S
C486 H480 0.930 . S
C486 C487 1.367 . S
C486 C494 1.378 . S
C487 C486 1.367 . S
C487 C495 1.433 . S
C488 H484 0.938 . S
C488 C490 1.378 . S
C488 C492 1.350 . S
C489 C492 1.463 1_556 S
C489 C494 1.350 . S
C489 N497 1.427 . S
C490 H481 0.930 . S
C490 C488 1.378 . S
C490 C491 1.367 . S
C491 C490 1.367 . S
C491 C493 1.433 . S
C492 C488 1.350 . S
C492 C489 1.463 1_554 S
C492 N496 1.427 . S
C493 H483 0.929 . S
C493 C491 1.433 . S
C493 N496 1.384 . S
C494 H485 0.929 . S
C494 C486 1.378 . S
C494 C489 1.350 . S
C495 H482 0.929 . S
C495 C487 1.433 . S
C495 N497 1.384 . S
N496 C492 1.427 . S
N496 C493 1.384 . S
N497 C489 1.427 . S
N497 C495 1.384 . S
H498 C504 0.930 . S
H499 C508 0.930 1_655 S
H500 C513 0.929 . S
H501 C511 0.929 . S
H502 C506 0.929 1_655 S
H503 C512 0.929 . S
C504 H498 0.930 . S
C504 C505 1.367 . S
C504 C512 1.378 . S
C505 C504 1.367 . S
C505 C513 1.433 . S
C506 H502 0.929 1_455 S
C506 C508 1.378 . S
C506 C510 1.350 . S
C507 C510 1.463 . S
C507 C512 1.350 . S
C507 N515 1.427 . S
C508 H499 0.930 1_455 S
C508 C506 1.378 . S
C508 C509 1.367 . S
C509 C508 1.367 . S
C509 C511 1.433 . S
C510 C506 1.350 . S
C510 C507 1.463 . S
C510 N514 1.427 . S
C511 H501 0.929 . S
C511 C509 1.433 . S
C511 N514 1.384 . S
C512 H503 0.929 . S
C512 C504 1.378 . S
C512 C507 1.350 . S
C513 H500 0.929 . S
C513 C505 1.433 . S
C513 N515 1.384 . S
N514 C510 1.427 . S
N514 C511 1.384 . S
N515 C507 1.427 . S
N515 C513 1.384 . S
C199 C10 3.256 . S
C203 C186 3.270 . S
C217 C59 3.152 . S
C221 C160 3.068 . S
C235 C90 3.066 . S
C239 C172 3.000 . S
C253 C19 2.861 . S
C257 C184 2.753 . S
C275 C162 2.909 . S
C271 C50 2.937 . S
C293 C174 2.962 . S
C289 C99 2.998 . S
C307 C46 0.572 . S
C311 C136 0.575 . S
C325 C95 0.563 . S
C329 C150 0.543 . S
C343 C6 0.271 . S
C347 C126 0.290 . S
C365 C138 0.226 . S
C361 C55 0.295 . S
C383 C148 0.359 . S
C379 C86 0.242 . S
C397 C15 0.437 . S
C401 C124 0.412 . S
C419 C153 1.243 . S
C415 C9 1.215 . S
C433 C49 1.176 . S
C437 C129 1.221 . S
C451 C89 1.243 . S
C455 C141 1.251 . S
C473 C177 1.739 . S
C469 C58 1.699 . S
C491 C189 1.815 . S
C487 C98 1.738 . S
C505 C18 1.675 . S
C509 C165 1.786 . S
