# Generated by pormake.
# Topology the, (3,8)-cn, num edge types: 1
# Building blocks:
#     Node 0, Type 0, BuildingBlock: VETTIZ_charged_linker_0, # of connection points: 3
#     Node 1, Type 0, BuildingBlock: VETTIZ_charged_linker_0, # of connection points: 3
#     Node 2, Type 0, BuildingBlock: VETTIZ_charged_linker_0, # of connection points: 3
#     Node 3, Type 0, BuildingBlock: VETTIZ_charged_linker_0, # of connection points: 3
#     Node 4, Type 0, BuildingBlock: VETTIZ_charged_linker_0, # of connection points: 3
#     Node 5, Type 0, BuildingBlock: VETTIZ_charged_linker_0, # of connection points: 3
#     Node 6, Type 0, BuildingBlock: VETTIZ_charged_linker_0, # of connection points: 3
#     Node 7, Type 0, BuildingBlock: VETTIZ_charged_linker_0, # of connection points: 3
#     Node 8, Type 1, BuildingBlock: GIZVER_clean_sbu_0, # of connection points: 8
#     Node 9, Type 1, BuildingBlock: GIZVER_clean_sbu_0, # of connection points: 8
#     Node 10, Type 1, BuildingBlock: GIZVER_clean_sbu_0, # of connection points: 8
#     Edge 11, Type (0, 1), BuildingBlock: XUDNAN_clean_linker_2, # of connection points: 2
#     Edge 12, Type (0, 1), BuildingBlock: XUDNAN_clean_linker_2, # of connection points: 2
#     Edge 13, Type (0, 1), BuildingBlock: XUDNAN_clean_linker_2, # of connection points: 2
#     Edge 14, Type (0, 1), BuildingBlock: XUDNAN_clean_linker_2, # of connection points: 2
#     Edge 15, Type (0, 1), BuildingBlock: XUDNAN_clean_linker_2, # of connection points: 2
#     Edge 16, Type (0, 1), BuildingBlock: XUDNAN_clean_linker_2, # of connection points: 2
#     Edge 17, Type (0, 1), BuildingBlock: XUDNAN_clean_linker_2, # of connection points: 2
#     Edge 18, Type (0, 1), BuildingBlock: XUDNAN_clean_linker_2, # of connection points: 2
#     Edge 19, Type (0, 1), BuildingBlock: XUDNAN_clean_linker_2, # of connection points: 2
#     Edge 20, Type (0, 1), BuildingBlock: XUDNAN_clean_linker_2, # of connection points: 2
#     Edge 21, Type (0, 1), BuildingBlock: XUDNAN_clean_linker_2, # of connection points: 2
#     Edge 22, Type (0, 1), BuildingBlock: XUDNAN_clean_linker_2, # of connection points: 2
#     Edge 23, Type (0, 1), BuildingBlock: XUDNAN_clean_linker_2, # of connection points: 2
#     Edge 24, Type (0, 1), BuildingBlock: XUDNAN_clean_linker_2, # of connection points: 2
#     Edge 25, Type (0, 1), BuildingBlock: XUDNAN_clean_linker_2, # of connection points: 2
#     Edge 26, Type (0, 1), BuildingBlock: XUDNAN_clean_linker_2, # of connection points: 2
#     Edge 27, Type (0, 1), BuildingBlock: XUDNAN_clean_linker_2, # of connection points: 2
#     Edge 28, Type (0, 1), BuildingBlock: XUDNAN_clean_linker_2, # of connection points: 2
#     Edge 29, Type (0, 1), BuildingBlock: XUDNAN_clean_linker_2, # of connection points: 2
#     Edge 30, Type (0, 1), BuildingBlock: XUDNAN_clean_linker_2, # of connection points: 2
#     Edge 31, Type (0, 1), BuildingBlock: XUDNAN_clean_linker_2, # of connection points: 2
#     Edge 32, Type (0, 1), BuildingBlock: XUDNAN_clean_linker_2, # of connection points: 2
#     Edge 33, Type (0, 1), BuildingBlock: XUDNAN_clean_linker_2, # of connection points: 2
#     Edge 34, Type (0, 1), BuildingBlock: XUDNAN_clean_linker_2, # of connection points: 2
# Relax obj value: 0.046
# Max RMSD: 0.138
# Mean RMSD: 0.068
data_MOF--net-the--node1-GIZVER_clean_sbu_0--node2-VETTIZ_charged_linker_0--edge1-XUDNAN_clean_linker_2
_symmetry_space_group_name_H-M    P1
_symmetry_Int_Tables_number       1
_symmetry_cell_setting            triclinic
loop_
_symmetry_equiv_pos_as_xyz
'x, y, z'
_cell_length_a     49.890735
_cell_length_b     47.361554
_cell_length_c     43.629304
_cell_angle_alpha  86.561629
_cell_angle_beta   94.043444
_cell_angle_gamma 101.2395
loop_
_atom_site_label
_atom_site_type_symbol
_atom_site_fract_x
_atom_site_fract_y
_atom_site_fract_z
_atom_type_partial_charge
C0 C 0.34041 0.25433 0.4542 0.0
C1 C 0.36068 0.24105 0.44388 0.0
C2 C 0.3772 0.25481 0.42042 0.0
C3 C 0.35249 0.29408 0.41682 0.0
C4 C 0.33697 0.28105 0.44065 0.0
C5 C 0.31712 0.2989 0.44938 0.0
H6 H 0.26188 0.41828 0.4241 0.0
C7 C 0.3434 0.32119 0.40717 0.0
C8 C 0.3231 0.3245 0.42654 0.0
H9 H 0.24173 0.34897 0.49253 0.0
H10 H 0.27625 0.32535 0.47498 0.0
H11 H 0.2646 0.3765 0.3703 0.0
H12 H 0.32831 0.42371 0.42973 0.0
H13 H 0.33958 0.42734 0.39211 0.0
H14 H 0.30967 0.44113 0.40004 0.0
H15 H 0.27512 0.41493 0.36621 0.0
H16 H 0.29223 0.39097 0.3478 0.0
C17 C 0.28775 0.28122 0.44382 0.0
C18 C 0.32472 0.30763 0.48304 0.0
C19 C 0.37638 0.37485 0.30894 0.0
C20 C 0.37 0.39934 0.29264 0.0
C21 C 0.35423 0.41628 0.30617 0.0
C22 C 0.34349 0.4078 0.33494 0.0
C23 C 0.34865 0.38214 0.35015 0.0
C24 C 0.36559 0.36669 0.33752 0.0
C25 C 0.36931 0.34029 0.35691 0.0
C26 C 0.35063 0.34156 0.38254 0.0
C27 C 0.33845 0.36597 0.37842 0.0
C28 C 0.35902 0.31361 0.33733 0.0
C29 C 0.3998 0.34405 0.3688 0.0
C30 C 0.2653 0.39822 0.43553 0.0
C31 C 0.24947 0.38548 0.45988 0.0
C32 C 0.25383 0.35905 0.47376 0.0
C33 C 0.27387 0.34546 0.46354 0.0
C34 C 0.28937 0.35828 0.43889 0.0
C35 C 0.28491 0.38419 0.42526 0.0
C36 C 0.30219 0.39378 0.39827 0.0
C37 C 0.31839 0.36978 0.39853 0.0
C38 C 0.31072 0.34908 0.42235 0.0
C39 C 0.28273 0.39434 0.36901 0.0
C40 C 0.32088 0.42313 0.40508 0.0
H41 H 0.38612 0.29042 0.38874 0.0
H42 H 0.32772 0.24425 0.47251 0.0
H43 H 0.34723 0.31083 0.48828 0.0
H44 H 0.31933 0.32844 0.48771 0.0
H45 H 0.31485 0.29073 0.49962 0.0
H46 H 0.28622 0.26839 0.423 0.0
H47 H 0.28191 0.26593 0.46363 0.0
H48 H 0.27216 0.29483 0.43927 0.0
H49 H 0.38883 0.36176 0.29909 0.0
H50 H 0.34921 0.43531 0.29387 0.0
H51 H 0.33097 0.42106 0.34383 0.0
H52 H 0.33931 0.31537 0.32445 0.0
H53 H 0.37404 0.31175 0.3203 0.0
H54 H 0.35486 0.29316 0.35116 0.0
H55 H 0.41001 0.36714 0.36875 0.0
H56 H 0.4022 0.3361 0.39305 0.0
H57 H 0.41153 0.33291 0.35429 0.0
H58 H 0.39287 0.24474 0.41214 0.0
C59 C 0.37319 0.28123 0.40681 0.0
C60 C 0.66081 0.2272 0.35754 0.0
C61 C 0.63255 0.21575 0.35324 0.0
C62 C 0.61663 0.23097 0.33261 0.0
C63 C 0.65648 0.2682 0.32268 0.0
C64 C 0.672 0.2536 0.34299 0.0
C65 C 0.7007 0.27021 0.34871 0.0
H66 H 0.78921 0.39709 0.34022 0.0
C67 C 0.67411 0.29568 0.31266 0.0
C68 C 0.69983 0.2973 0.32843 0.0
H69 H 0.80226 0.31576 0.38407 0.0
H70 H 0.75867 0.29241 0.36347 0.0
H71 H 0.7229 0.3922 0.34533 0.0
H72 H 0.76979 0.36542 0.27699 0.0
H73 H 0.74013 0.37393 0.25771 0.0
H74 H 0.76432 0.40172 0.27694 0.0
H75 H 0.74673 0.41646 0.32238 0.0
H76 H 0.71208 0.40392 0.30793 0.0
C77 C 0.70472 0.2766 0.38334 0.0
C78 C 0.72098 0.25253 0.33766 0.0
C79 C 0.63974 0.35931 0.22679 0.0
C80 C 0.65134 0.38589 0.21238 0.0
C81 C 0.67681 0.40081 0.22465 0.0
C82 C 0.69079 0.3891 0.24991 0.0
C83 C 0.67931 0.3621 0.26323 0.0
C84 C 0.65394 0.34793 0.252 0.0
C85 C 0.64442 0.31989 0.26969 0.0
C86 C 0.66923 0.31846 0.29159 0.0
C87 C 0.68956 0.3434 0.28801 0.0
C88 C 0.61898 0.32261 0.28701 0.0
C89 C 0.63909 0.29519 0.24707 0.0
C90 C 0.78288 0.37429 0.34563 0.0
C91 C 0.79912 0.35905 0.36592 0.0
C92 C 0.78989 0.32898 0.3707 0.0
C93 C 0.76448 0.3151 0.35832 0.0
C94 C 0.74789 0.33097 0.34013 0.0
C95 C 0.75769 0.35967 0.33255 0.0
C96 C 0.73875 0.37148 0.30863 0.0
C97 C 0.71503 0.34583 0.30559 0.0
C98 C 0.7204 0.32245 0.32475 0.0
C99 C 0.72962 0.39753 0.32155 0.0
C100 C 0.75391 0.37875 0.27849 0.0
H101 H 0.61526 0.26726 0.30185 0.0
H102 H 0.67423 0.21626 0.37235 0.0
H103 H 0.71113 0.23754 0.31966 0.0
H104 H 0.73853 0.26636 0.32659 0.0
H105 H 0.72879 0.23937 0.35694 0.0
H106 H 0.68666 0.28424 0.39102 0.0
H107 H 0.70709 0.25689 0.39756 0.0
H108 H 0.72245 0.29368 0.38892 0.0
H109 H 0.62029 0.34713 0.21822 0.0
H110 H 0.686 0.42167 0.21479 0.0
H111 H 0.71003 0.40148 0.25815 0.0
H112 H 0.61799 0.34552 0.29019 0.0
H113 H 0.59968 0.31278 0.27428 0.0
H114 H 0.61943 0.31269 0.31064 0.0
H115 H 0.65658 0.29707 0.23211 0.0
H116 H 0.63678 0.27365 0.25881 0.0
H117 H 0.62032 0.29592 0.23198 0.0
H118 H 0.5948 0.22352 0.3289 0.0
C119 C 0.62847 0.25682 0.31714 0.0
C120 C 0.77869 0.69128 0.38182 0.0
C121 C 0.78748 0.66579 0.37545 0.0
C122 C 0.77086 0.64712 0.3545 0.0
C123 C 0.73879 0.67986 0.34608 0.0
C124 C 0.75434 0.69754 0.36744 0.0
C125 C 0.74164 0.72281 0.37348 0.0
H126 H 0.63752 0.79562 0.34742 0.0
C127 C 0.71507 0.69316 0.33476 0.0
C128 C 0.7166 0.7182 0.35118 0.0
H129 H 0.70676 0.81301 0.41326 0.0
H130 H 0.72487 0.77362 0.39522 0.0
H131 H 0.6264 0.72365 0.35254 0.0
H132 H 0.67105 0.78951 0.29385 0.0
H133 H 0.66461 0.75854 0.27218 0.0
H134 H 0.6363 0.77335 0.28369 0.0
H135 H 0.612 0.74884 0.3271 0.0
H136 H 0.61803 0.71583 0.31341 0.0
C137 C 0.73385 0.71989 0.4075 0.0
C138 C 0.76198 0.75085 0.365 0.0
C139 C 0.6481 0.6502 0.2472 0.0
C140 C 0.62662 0.6605 0.22972 0.0
C141 C 0.62133 0.68765 0.23673 0.0
C142 C 0.63543 0.70304 0.26121 0.0
C143 C 0.65598 0.6921 0.27878 0.0
C144 C 0.66278 0.66661 0.27112 0.0
C145 C 0.68742 0.66026 0.29061 0.0
C146 C 0.69377 0.68591 0.31131 0.0
C147 C 0.67469 0.70403 0.30464 0.0
C148 C 0.67874 0.6315 0.30922 0.0
C149 C 0.71066 0.66017 0.26898 0.0
C150 C 0.65641 0.79062 0.35811 0.0
C151 C 0.67055 0.80706 0.3821 0.0
C152 C 0.6955 0.80055 0.39484 0.0
C153 C 0.70588 0.77758 0.38442 0.0
C154 C 0.69132 0.761 0.36073 0.0
C155 C 0.66727 0.76797 0.34762 0.0
C156 C 0.65557 0.74922 0.32133 0.0
C157 C 0.6755 0.72851 0.32234 0.0
C158 C 0.69638 0.73557 0.34541 0.0
C159 C 0.62638 0.73353 0.32875 0.0
C160 C 0.65673 0.7685 0.29118 0.0
H161 H 0.73523 0.63897 0.32414 0.0
H162 H 0.79053 0.70647 0.39747 0.0
H163 H 0.77221 0.74843 0.34372 0.0
H164 H 0.75191 0.76953 0.35987 0.0
H165 H 0.77819 0.75622 0.38368 0.0
H166 H 0.72886 0.69688 0.41574 0.0
H167 H 0.75094 0.7308 0.42288 0.0
H168 H 0.7152 0.72836 0.41091 0.0
H169 H 0.65343 0.62984 0.24271 0.0
H170 H 0.60641 0.69758 0.22314 0.0
H171 H 0.62982 0.7231 0.26538 0.0
H172 H 0.65787 0.6298 0.31748 0.0
H173 H 0.6784 0.6128 0.29489 0.0
H174 H 0.69213 0.62953 0.33017 0.0
H175 H 0.71181 0.6784 0.25151 0.0
H176 H 0.73109 0.66303 0.28107 0.0
H177 H 0.70707 0.63985 0.25653 0.0
H178 H 0.77612 0.62682 0.34963 0.0
C179 C 0.74681 0.65408 0.33975 0.0
C180 C 0.37127 0.77661 0.35283 0.0
C181 C 0.36207 0.79222 0.37502 0.0
C182 C 0.33657 0.78152 0.38738 0.0
C183 C 0.32985 0.73989 0.35581 0.0
C184 C 0.35499 0.7504 0.34383 0.0
C185 C 0.36226 0.73016 0.32179 0.0
H186 H 0.33365 0.60081 0.25542 0.0
C187 C 0.31846 0.71169 0.34245 0.0
C188 C 0.33747 0.7057 0.32272 0.0
H189 H 0.4046 0.66874 0.24637 0.0
H190 H 0.38519 0.69893 0.27772 0.0
H191 H 0.32961 0.60505 0.32534 0.0
H192 H 0.28665 0.64569 0.25122 0.0
H193 H 0.26337 0.62865 0.27836 0.0
H194 H 0.28183 0.6073 0.25814 0.0
H195 H 0.301 0.58511 0.30356 0.0
H196 H 0.29639 0.60467 0.33646 0.0
C197 C 0.38881 0.72032 0.33499 0.0
C198 C 0.36452 0.74587 0.28962 0.0
C199 C 0.2247 0.65741 0.37105 0.0
C200 C 0.20981 0.62924 0.36639 0.0
C201 C 0.22151 0.61129 0.34853 0.0
C202 C 0.24691 0.62117 0.33561 0.0
C203 C 0.2614 0.64916 0.34101 0.0
C204 C 0.25043 0.66649 0.35902 0.0
C205 C 0.26979 0.69441 0.36524 0.0
C206 C 0.29367 0.69164 0.34669 0.0
C207 C 0.28857 0.66525 0.33213 0.0
C208 C 0.27773 0.69494 0.40031 0.0
C209 C 0.25593 0.71955 0.35242 0.0
C210 C 0.34457 0.62246 0.25971 0.0
C211 C 0.37056 0.63262 0.24832 0.0
C212 C 0.38451 0.66062 0.25485 0.0
C213 C 0.37328 0.67802 0.27324 0.0
C214 C 0.34786 0.66726 0.28565 0.0
C215 C 0.33365 0.64012 0.27841 0.0
C216 C 0.30715 0.63223 0.29436 0.0
C217 C 0.30794 0.65902 0.31231 0.0
C218 C 0.332 0.67936 0.30727 0.0
C219 C 0.30831 0.60525 0.31595 0.0
C220 C 0.28334 0.62804 0.26937 0.0
H221 H 0.30099 0.74871 0.38781 0.0
H222 H 0.39093 0.78437 0.34317 0.0
H223 H 0.34929 0.76023 0.28573 0.0
H224 H 0.35989 0.73094 0.27062 0.0
H225 H 0.38517 0.75943 0.28722 0.0
H226 H 0.38917 0.71778 0.36053 0.0
H227 H 0.40727 0.73635 0.32884 0.0
H228 H 0.39068 0.69902 0.32742 0.0
H229 H 0.21686 0.67244 0.384 0.0
H230 H 0.21149 0.58927 0.34489 0.0
H231 H 0.25454 0.60641 0.32236 0.0
H232 H 0.27502 0.67283 0.4113 0.0
H233 H 0.26496 0.70705 0.41229 0.0
H234 H 0.29961 0.70425 0.40537 0.0
H235 H 0.2459 0.7149 0.32919 0.0
H236 H 0.27058 0.74008 0.34948 0.0
H237 H 0.23997 0.72285 0.36762 0.0
H238 H 0.32919 0.79338 0.40443 0.0
C239 C 0.32032 0.75558 0.37774 0.0
C240 C 0.37822 0.65419 0.799 0.0
C241 C 0.36856 0.62801 0.81516 0.0
C242 C 0.34388 0.61061 0.80419 0.0
C243 C 0.3386 0.64614 0.76247 0.0
C244 C 0.36315 0.66268 0.77294 0.0
C245 C 0.37106 0.68992 0.75352 0.0
H246 H 0.34483 0.77717 0.63136 0.0
C247 C 0.32805 0.66166 0.73488 0.0
C248 C 0.34728 0.68721 0.72957 0.0
H249 H 0.41316 0.79051 0.6992 0.0
H250 H 0.39541 0.74519 0.72494 0.0
H251 H 0.29955 0.75486 0.68115 0.0
H252 H 0.34258 0.71059 0.62348 0.0
H253 H 0.30895 0.69084 0.62404 0.0
H254 H 0.31493 0.72762 0.60862 0.0
H255 H 0.29231 0.75343 0.64034 0.0
H256 H 0.27576 0.7257 0.66661 0.0
C257 C 0.37224 0.71586 0.77399 0.0
C258 C 0.39836 0.68888 0.73909 0.0
C259 C 0.23492 0.62271 0.68031 0.0
C260 C 0.22095 0.63247 0.65371 0.0
C261 C 0.23354 0.65758 0.6374 0.0
C262 C 0.25926 0.67294 0.6474 0.0
C263 C 0.2729 0.66318 0.67404 0.0
C264 C 0.26097 0.63822 0.68985 0.0
C265 C 0.27942 0.63053 0.71679 0.0
C266 C 0.30378 0.65554 0.71511 0.0
C267 C 0.29965 0.67465 0.69001 0.0
C268 C 0.2643 0.63012 0.74657 0.0
C269 C 0.28747 0.60148 0.71086 0.0
C270 C 0.35591 0.77053 0.6519 0.0
C271 C 0.38069 0.78768 0.66292 0.0
C272 C 0.3944 0.77771 0.68962 0.0
C273 C 0.3839 0.75135 0.7048 0.0
C274 C 0.35918 0.73455 0.6935 0.0
C275 C 0.34555 0.7443 0.66756 0.0
C276 C 0.31918 0.7239 0.65938 0.0
C277 C 0.31934 0.70027 0.68459 0.0
C278 C 0.34289 0.70658 0.70439 0.0
C279 C 0.29531 0.74015 0.6617 0.0
C280 C 0.32121 0.71269 0.62713 0.0
H281 H 0.30997 0.60564 0.77112 0.0
H282 H 0.39731 0.66787 0.80642 0.0
H283 H 0.39896 0.66659 0.73281 0.0
H284 H 0.40123 0.70204 0.7174 0.0
H285 H 0.41617 0.6959 0.75546 0.0
H286 H 0.35703 0.71059 0.79196 0.0
H287 H 0.39279 0.72206 0.78591 0.0
H288 H 0.36682 0.73492 0.76101 0.0
H289 H 0.22598 0.60323 0.69306 0.0
H290 H 0.22323 0.66564 0.61699 0.0
H291 H 0.2675 0.69194 0.63395 0.0
H292 H 0.25445 0.64928 0.74657 0.0
H293 H 0.24801 0.61054 0.74858 0.0
H294 H 0.2781 0.63104 0.76751 0.0
H295 H 0.29034 0.59986 0.68601 0.0
H296 H 0.30721 0.59896 0.72272 0.0
H297 H 0.27134 0.58302 0.71787 0.0
H298 H 0.33596 0.59036 0.81623 0.0
C299 C 0.32879 0.61959 0.77806 0.0
C300 C 0.25437 0.3453 0.62515 0.0
C301 C 0.24391 0.36835 0.63539 0.0
C302 C 0.25689 0.38269 0.66144 0.0
C303 C 0.28879 0.34973 0.66776 0.0
C304 C 0.27667 0.33641 0.64157 0.0
C305 C 0.28962 0.31171 0.63417 0.0
H306 H 0.37666 0.22102 0.67447 0.0
C307 C 0.31031 0.33395 0.68051 0.0
C308 C 0.31088 0.3117 0.66086 0.0
H309 H 0.3243 0.2242 0.59133 0.0
H310 H 0.30933 0.26531 0.60846 0.0
H311 H 0.39903 0.29178 0.67354 0.0
H312 H 0.33498 0.23558 0.72147 0.0
H313 H 0.35251 0.26116 0.74706 0.0
H314 H 0.37058 0.23621 0.7317 0.0
H315 H 0.40605 0.26624 0.70369 0.0
H316 H 0.40105 0.30158 0.71204 0.0
C317 C 0.30296 0.31917 0.60287 0.0
C318 C 0.26729 0.28391 0.63482 0.0
C319 C 0.36343 0.36343 0.78108 0.0
C320 C 0.38282 0.35159 0.80004 0.0
C321 C 0.39085 0.32649 0.79109 0.0
C322 C 0.38002 0.31361 0.76356 0.0
C323 C 0.36069 0.32575 0.74479 0.0
C324 C 0.35253 0.35011 0.75387 0.0
C325 C 0.33082 0.35926 0.73194 0.0
C326 C 0.32781 0.33691 0.70776 0.0
C327 C 0.34545 0.31734 0.71526 0.0
C328 C 0.34211 0.38998 0.71861 0.0
C329 C 0.30441 0.35666 0.74947 0.0
C330 C 0.36208 0.23066 0.65988 0.0
C331 C 0.35125 0.21867 0.63172 0.0
C332 C 0.33239 0.23217 0.61353 0.0
C333 C 0.32385 0.25637 0.62338 0.0
C334 C 0.33427 0.26762 0.65177 0.0
C335 C 0.35341 0.25517 0.66933 0.0
C336 C 0.36287 0.27103 0.69834 0.0
C337 C 0.34609 0.29482 0.69522 0.0
C338 C 0.32917 0.29238 0.66801 0.0
C339 C 0.39392 0.28324 0.69717 0.0
C340 C 0.3551 0.25002 0.72627 0.0
H341 H 0.28793 0.38503 0.69756 0.0
H342 H 0.24519 0.33415 0.6049 0.0
H343 H 0.25418 0.28351 0.65452 0.0
H344 H 0.2757 0.264 0.63806 0.0
H345 H 0.25378 0.28267 0.61339 0.0
H346 H 0.30844 0.34288 0.59814 0.0
H347 H 0.28888 0.31009 0.58351 0.0
H348 H 0.32255 0.3116 0.60235 0.0
H349 H 0.35651 0.38242 0.78757 0.0
H350 H 0.40586 0.31704 0.80523 0.0
H351 H 0.38707 0.29465 0.75797 0.0
H352 H 0.36413 0.3924 0.71404 0.0
H353 H 0.34034 0.40654 0.73495 0.0
H354 H 0.33186 0.39497 0.69625 0.0
H355 H 0.30253 0.3384 0.76696 0.0
H356 H 0.28552 0.35183 0.73441 0.0
H357 H 0.30441 0.37658 0.76167 0.0
H358 H 0.24919 0.40044 0.66989 0.0
C359 C 0.27924 0.37352 0.67765 0.0
C360 C 0.64271 0.23303 0.65973 0.0
C361 C 0.6528 0.21567 0.63991 0.0
C362 C 0.67963 0.22451 0.63027 0.0
C363 C 0.68618 0.26696 0.66042 0.0
C364 C 0.65985 0.25838 0.66997 0.0
C365 C 0.65328 0.27855 0.69263 0.0
H366 H 0.69584 0.3962 0.77834 0.0
C367 C 0.69904 0.29368 0.67584 0.0
C368 C 0.67997 0.30053 0.69503 0.0
H369 H 0.61679 0.33912 0.7763 0.0
H370 H 0.63101 0.31171 0.73749 0.0
H371 H 0.70108 0.40043 0.70448 0.0
H372 H 0.73137 0.34764 0.77756 0.0
H373 H 0.75753 0.35792 0.75193 0.0
H374 H 0.74572 0.38521 0.77161 0.0
H375 H 0.72829 0.41455 0.73178 0.0
H376 H 0.73489 0.39872 0.69718 0.0
C377 C 0.62928 0.29225 0.67829 0.0
C378 C 0.64727 0.26127 0.72345 0.0
C379 C 0.79583 0.34336 0.65179 0.0
C380 C 0.81359 0.36794 0.66294 0.0
C381 C 0.80478 0.38313 0.68593 0.0
C382 C 0.77866 0.37433 0.69725 0.0
C383 C 0.76103 0.34993 0.68563 0.0
C384 C 0.76985 0.33472 0.66351 0.0
C385 C 0.7487 0.30883 0.65452 0.0
C386 C 0.72545 0.31145 0.67426 0.0
C387 C 0.73273 0.33562 0.69235 0.0
C388 C 0.7407 0.31258 0.61977 0.0
C389 C 0.76064 0.28138 0.66362 0.0
C390 C 0.68161 0.37767 0.76975 0.0
C391 C 0.65517 0.36979 0.78069 0.0
C392 C 0.63719 0.34586 0.76822 0.0
C393 C 0.64557 0.32981 0.74581 0.0
C394 C 0.67226 0.33767 0.7356 0.0
C395 C 0.68965 0.36147 0.74738 0.0
C396 C 0.71712 0.36705 0.73364 0.0
C397 C 0.71359 0.34246 0.71203 0.0
C398 C 0.68728 0.32519 0.71325 0.0
C399 C 0.72084 0.39678 0.71596 0.0
C400 C 0.73927 0.36458 0.75989 0.0
H401 H 0.71644 0.25549 0.63197 0.0
H402 H 0.62226 0.22658 0.66777 0.0
H403 H 0.66121 0.24561 0.72813 0.0
H404 H 0.65081 0.27495 0.74349 0.0
H405 H 0.62591 0.24892 0.72293 0.0
H406 H 0.63149 0.29727 0.65325 0.0
H407 H 0.60935 0.27736 0.68104 0.0
H408 H 0.62852 0.31301 0.68808 0.0
H409 H 0.80209 0.33098 0.63442 0.0
H410 H 0.8179 0.4023 0.6947 0.0
H411 H 0.77316 0.38701 0.71452 0.0
H412 H 0.73856 0.33521 0.61364 0.0
H413 H 0.75658 0.30743 0.60557 0.0
H414 H 0.72075 0.29926 0.61278 0.0
H415 H 0.77631 0.2851 0.68315 0.0
H416 H 0.74502 0.26318 0.67197 0.0
H417 H 0.77059 0.27448 0.64412 0.0
H418 H 0.68774 0.2116 0.61485 0.0
C419 C 0.69626 0.25004 0.64024 0.0
C420 C 0.6607 0.60351 0.70076 0.0
C421 C 0.64282 0.61186 0.72041 0.0
C422 C 0.6331 0.63764 0.71354 0.0
C423 C 0.65998 0.64714 0.66874 0.0
C424 C 0.66932 0.62167 0.6753 0.0
C425 C 0.68993 0.61742 0.65321 0.0
H426 H 0.7744 0.67576 0.54143 0.0
C427 C 0.6743 0.66218 0.64229 0.0
C428 C 0.69221 0.64512 0.63328 0.0
H429 H 0.76624 0.59034 0.58452 0.0
H430 H 0.72882 0.59881 0.61326 0.0
H431 H 0.77171 0.70782 0.59612 0.0
H432 H 0.70651 0.67365 0.53112 0.0
H433 H 0.70428 0.7095 0.53718 0.0
H434 H 0.73478 0.70215 0.52245 0.0
H435 H 0.76454 0.72792 0.5614 0.0
H436 H 0.74815 0.73087 0.59642 0.0
C437 C 0.7171 0.61532 0.67184 0.0
C438 C 0.67765 0.59056 0.63467 0.0
C439 C 0.65279 0.75759 0.59779 0.0
C440 C 0.66621 0.77882 0.57692 0.0
C441 C 0.6911 0.77479 0.56588 0.0
C442 C 0.70119 0.74963 0.57342 0.0
C443 C 0.68688 0.72836 0.59303 0.0
C444 C 0.66391 0.73308 0.60612 0.0
C445 C 0.65419 0.71007 0.6304 0.0
C446 C 0.67363 0.68947 0.62725 0.0
C447 C 0.69224 0.70018 0.60487 0.0
C448 C 0.65838 0.724 0.66218 0.0
C449 C 0.6242 0.69595 0.62173 0.0
C450 C 0.76421 0.65877 0.55673 0.0
C451 C 0.77302 0.63248 0.56092 0.0
C452 C 0.75944 0.61072 0.58091 0.0
C453 C 0.73801 0.6158 0.59773 0.0
C454 C 0.73023 0.64286 0.59435 0.0
C455 C 0.74281 0.66342 0.57342 0.0
C456 C 0.73165 0.69062 0.57197 0.0
C457 C 0.71035 0.68318 0.59571 0.0
C458 C 0.70985 0.65544 0.60919 0.0
C459 C 0.75512 0.71574 0.58175 0.0
C460 C 0.71869 0.69449 0.539 0.0
H461 H 0.63315 0.67441 0.68343 0.0
H462 H 0.66846 0.58379 0.70569 0.0
H463 H 0.655 0.58796 0.63125 0.0
H464 H 0.68495 0.59219 0.61117 0.0
H465 H 0.68223 0.57058 0.64679 0.0
H466 H 0.72193 0.63219 0.68913 0.0
H467 H 0.7157 0.594 0.68434 0.0
H468 H 0.73488 0.6188 0.65751 0.0
H469 H 0.63398 0.75955 0.60754 0.0
H470 H 0.70323 0.79107 0.5515 0.0
H471 H 0.71989 0.74785 0.56372 0.0
H472 H 0.67235 0.7454 0.66144 0.0
H473 H 0.63868 0.72732 0.67035 0.0
H474 H 0.6682 0.71095 0.67992 0.0
H475 H 0.62182 0.69035 0.59715 0.0
H476 H 0.61733 0.67569 0.63527 0.0
H477 H 0.61013 0.71087 0.62511 0.0
H478 H 0.61902 0.64416 0.72827 0.0
C479 C 0.64139 0.65518 0.68764 0.0
Co480 Co 0.06409 0.48155 0.52893 0.0
Co481 Co 0.04026 0.46777 0.47373 0.0
Co482 Co 1.00561 0.50587 0.50724 0.0
O483 O 0.02697 0.47419 0.51229 0.0
H484 H 0.01637 0.45656 0.52084 0.0
O485 O 0.98449 0.53807 0.50136 0.0
Co486 Co 0.96211 0.54841 0.46492 0.0
Co487 Co 0.9506 0.52403 0.51422 0.0
H488 H 0.99325 0.55477 0.5125 0.0
O489 O 0.05862 0.43657 0.4668 0.0
O490 O 0.07636 0.478 0.48824 0.0
O491 O 0.03785 0.49728 0.44141 0.0
O492 O 0.02944 0.52775 0.47468 0.0
O493 O 0.98129 0.48165 0.47614 0.0
O494 O 0.94275 0.56049 0.43302 0.0
O495 O 0.96527 0.58674 0.47142 0.0
O496 O 0.95438 0.5101 0.45344 0.0
O497 O 0.9822 0.48405 0.5412 0.0
O498 O 0.94005 0.48362 0.52153 0.0
O499 O 0.92821 0.5404 0.48824 0.0
O500 O 0.939 0.54728 0.53925 0.0
C501 C 0.09024 0.45644 0.54913 0.0
C502 C 0.05642 0.53483 0.53767 0.0
C503 C 0.0393 0.52282 0.44966 0.0
C504 C 0.0798 0.45419 0.47782 0.0
C505 C 0.94849 0.58468 0.44679 0.0
C506 C 0.96148 0.48582 0.45741 0.0
C507 C 0.95666 0.47243 0.53922 0.0
C508 C 0.92537 0.55251 0.51368 0.0
O509 O 0.09831 0.48424 0.54544 0.0
O510 O 0.06534 0.44468 0.53989 0.0
O511 O 0.03047 0.52891 0.53959 0.0
O512 O 0.06721 0.52104 0.51962 0.0
Co513 Co 0.53747 0.95364 0.48975 0.0
Co514 Co 0.54552 0.97067 0.5462 0.0
Co515 Co 0.50355 0.00469 0.51016 0.0
O516 O 0.53758 0.98895 0.50899 0.0
H517 H 0.55311 1.00369 0.50382 0.0
O518 O 0.46968 0.02096 0.51075 0.0
Co519 Co 0.4703 0.05706 0.52925 0.0
Co520 Co 0.46275 0.03916 0.4724 0.0
H521 H 0.45396 0.00645 0.51604 0.0
O522 O 0.58093 0.96702 0.55798 0.0
O523 O 0.549 0.93657 0.53009 0.0
O524 O 0.51692 0.9603 0.57403 0.0
O525 O 0.48533 0.97425 0.54111 0.0
O526 O 0.52214 0.03 0.54374 0.0
O527 O 0.46803 0.08923 0.54695 0.0
O528 O 0.4346 0.05059 0.53847 0.0
O529 O 0.50799 0.06871 0.52338 0.0
O530 O 0.52177 0.03497 0.47959 0.0
O531 O 0.49194 0.04876 0.44439 0.0
O532 O 0.46065 0.0738 0.48834 0.0
O533 O 0.42766 0.04493 0.46068 0.0
C534 C 0.56522 0.9363 0.46766 0.0
C535 C 0.48301 0.95185 0.47923 0.0
C536 C 0.49209 0.96006 0.56542 0.0
C537 C 0.57314 0.94298 0.54425 0.0
C538 C 0.44276 0.07624 0.54929 0.0
C539 C 0.52456 0.05739 0.54132 0.0
C540 C 0.51638 0.04889 0.45463 0.0
C541 C 0.43624 0.0687 0.47472 0.0
O542 O 0.54049 0.92203 0.47112 0.0
O543 O 0.57261 0.96186 0.47883 0.0
O544 O 0.48526 0.97923 0.47656 0.0
O545 O 0.49993 0.94074 0.497 0.0
Co546 Co 0.48619 0.51553 0.0799 0.0
Co547 Co 0.4747 0.46549 0.05755 0.0
Co548 Co 0.51159 0.50563 0.01125 0.0
O549 O 0.48004 0.5017 0.03858 0.0
H550 H 0.46343 0.50565 0.02791 0.0
O551 O 0.54341 0.5103 0.9844 0.0
Co552 Co 0.54005 0.48875 0.94805 0.0
Co553 Co 0.54885 0.54306 0.95833 0.0
H554 H 0.56024 0.50926 0.99644 0.0
O555 O 0.44084 0.44871 0.06772 0.0
O556 O 0.47434 0.47527 0.09787 0.0
O557 O 0.50239 0.44253 0.05723 0.0
O558 O 0.53224 0.47873 0.03733 0.0
O559 O 0.49033 0.47225 0.98755 0.0
O560 O 0.5402 0.46782 0.9154 0.0
O561 O 0.5752 0.48398 0.94924 0.0
O562 O 0.5028 0.49081 0.94222 0.0
O563 O 0.49113 0.53256 0.98448 0.0
O564 O 0.51922 0.56352 0.9547 0.0
O565 O 0.54823 0.52441 0.92192 0.0
O566 O 0.58223 0.55835 0.94073 0.0
C567 C 0.46487 0.53132 0.11169 0.0
C568 C 0.53706 0.53392 0.06534 0.0
C569 C 0.52678 0.45434 0.05212 0.0
C570 C 0.45036 0.45814 0.0945 0.0
C571 C 0.56576 0.46946 0.92496 0.0
C572 C 0.48621 0.47353 0.95835 0.0
C573 C 0.49591 0.5543 0.96526 0.0
C574 C 0.5716 0.54165 0.91872 0.0
O575 O 0.49018 0.52866 0.11693 0.0
O576 O 0.452 0.52297 0.08557 0.0
O577 O 0.5321 0.53818 0.03639 0.0
O578 O 0.52305 0.51204 0.07904 0.0
H579 H 0.19547 0.36143 0.46409 0.0
H580 H 0.25449 0.44082 0.47631 0.0
H581 H 0.21723 0.46566 0.48718 0.0
H582 H 0.14554 0.39224 0.42349 0.0
H583 H 0.11659 0.36915 0.44019 0.0
H584 H 0.14806 0.35639 0.43817 0.0
H585 H 0.14903 0.34485 0.49656 0.0
H586 H 0.11811 0.3585 0.49998 0.0
H587 H 0.1489 0.37292 0.52252 0.0
H588 H 0.17419 0.48276 0.49156 0.0
H589 H 0.12737 0.49214 0.48811 0.0
H590 H 0.09519 0.40191 0.47181 0.0
C591 C 0.20052 0.38382 0.46995 0.0
C592 C 0.22771 0.39929 0.46973 0.0
C593 C 0.23369 0.42874 0.47653 0.0
C594 C 0.21273 0.44292 0.48282 0.0
C595 C 0.18601 0.42726 0.48218 0.0
C596 C 0.17977 0.39838 0.47596 0.0
C597 C 0.1491 0.38736 0.47386 0.0
C598 C 0.13926 0.37561 0.44204 0.0
C599 C 0.14076 0.36455 0.49977 0.0
C600 C 0.13907 0.41488 0.47858 0.0
C601 C 0.16078 0.43742 0.484 0.0
C602 C 0.15699 0.46527 0.48765 0.0
C603 C 0.13028 0.47035 0.4855 0.0
C604 C 0.10763 0.44772 0.47961 0.0
C605 C 0.11211 0.41959 0.47625 0.0
H606 H 0.58482 0.1757 0.33864 0.0
H607 H 0.65001 0.1952 0.41041 0.0
H608 H 0.6301 0.15162 0.43978 0.0
H609 H 0.53259 0.15469 0.39223 0.0
H610 H 0.51253 0.12717 0.36884 0.0
H611 H 0.53377 0.158 0.35095 0.0
H612 H 0.55812 0.12403 0.32336 0.0
H613 H 0.53712 0.09308 0.34145 0.0
H614 H 0.57389 0.09778 0.34579 0.0
H615 H 0.60329 0.10657 0.46247 0.0
H616 H 0.56774 0.06688 0.4806 0.0
H617 H 0.51632 0.07906 0.3981 0.0
C618 C 0.59507 0.17111 0.36051 0.0
C619 C 0.61978 0.18904 0.3713 0.0
C620 C 0.63199 0.1816 0.40036 0.0
C621 C 0.62063 0.15683 0.41762 0.0
C622 C 0.59656 0.13977 0.40615 0.0
C623 C 0.58355 0.14683 0.37861 0.0
C624 C 0.55638 0.12625 0.37316 0.0
C625 C 0.5324 0.1425 0.37119 0.0
C626 C 0.55639 0.10928 0.34422 0.0
C627 C 0.55618 0.10673 0.40211 0.0
C628 C 0.5799 0.11463 0.42041 0.0
C629 C 0.58461 0.10016 0.44837 0.0
C630 C 0.56425 0.07746 0.45837 0.0
C631 C 0.53912 0.06968 0.44081 0.0
C632 C 0.5353 0.08433 0.41202 0.0
H633 H 0.82209 0.6333 0.35337 0.0
H634 H 0.81283 0.6816 0.4324 0.0
H635 H 0.85673 0.67203 0.45551 0.0
H636 H 0.84664 0.57728 0.39927 0.0
H637 H 0.86884 0.57097 0.37062 0.0
H638 H 0.83817 0.58445 0.35907 0.0
H639 H 0.86727 0.62786 0.32992 0.0
H640 H 0.89811 0.61478 0.34199 0.0
H641 H 0.89502 0.65077 0.35043 0.0
H642 H 0.90286 0.65715 0.47014 0.0
H643 H 0.94113 0.63063 0.4792 0.0
H644 H 0.91656 0.58791 0.39373 0.0
C645 C 0.82892 0.64185 0.37562 0.0
C646 C 0.81376 0.65891 0.3904 0.0
C647 C 0.82415 0.66947 0.41962 0.0
C648 C 0.84919 0.66403 0.43318 0.0
C649 C 0.86363 0.64754 0.41764 0.0
C650 C 0.85347 0.63605 0.38985 0.0
C651 C 0.87139 0.6166 0.37924 0.0
C652 C 0.85531 0.58549 0.37693 0.0
C653 C 0.88367 0.62821 0.34857 0.0
C654 C 0.89325 0.61894 0.40536 0.0
C655 C 0.88881 0.63731 0.42706 0.0
C656 C 0.90635 0.64253 0.45336 0.0
C657 C 0.92812 0.62746 0.45829 0.0
C658 C 0.93159 0.60676 0.43755 0.0
C659 C 0.91449 0.60348 0.41018 0.0
H660 H 0.39118 0.80152 0.43006 0.0
H661 H 0.37078 0.8442 0.34343 0.0
H662 H 0.39779 0.89057 0.36148 0.0
H663 H 0.38993 0.85991 0.47924 0.0
H664 H 0.41894 0.85346 0.50379 0.0
H665 H 0.39722 0.82405 0.4845 0.0
H666 H 0.43929 0.81223 0.4599 0.0
H667 H 0.46112 0.84146 0.47929 0.0
H668 H 0.46091 0.84009 0.43808 0.0
H669 H 0.42622 0.93253 0.38994 0.0
H670 H 0.45771 0.96565 0.42404 0.0
H671 H 0.4618 0.89468 0.49075 0.0
C672 C 0.39246 0.82072 0.41501 0.0
C673 C 0.37892 0.81958 0.38547 0.0
C674 C 0.3811 0.84487 0.36615 0.0
C675 C 0.39626 0.87122 0.37627 0.0
C676 C 0.40934 0.87175 0.40564 0.0
C677 C 0.40788 0.84706 0.42459 0.0
C678 C 0.4248 0.85316 0.45453 0.0
C679 C 0.40663 0.8473 0.48214 0.0
C680 C 0.4479 0.8357 0.45815 0.0
C681 C 0.43605 0.88509 0.4495 0.0
C682 C 0.42658 0.89553 0.42138 0.0
C683 C 0.43386 0.92454 0.41193 0.0
C684 C 0.45165 0.94322 0.4315 0.0
C685 C 0.46231 0.93273 0.45995 0.0
C686 C 0.45415 0.9033 0.46903 0.0
H687 H 0.20424 0.61638 0.59514 0.0
H688 H 0.17536 0.61375 0.68682 0.0
H689 H 0.12864 0.59152 0.66687 0.0
H690 H 0.14483 0.63326 0.55307 0.0
H691 H 0.14653 0.61035 0.52201 0.0
H692 H 0.17739 0.62612 0.54357 0.0
H693 H 0.18875 0.57539 0.55646 0.0
H694 H 0.15818 0.5596 0.53449 0.0
H695 H 0.16365 0.54771 0.57405 0.0
H696 H 0.0841 0.5702 0.63541 0.0
H697 H 0.04844 0.54684 0.59735 0.0
H698 H 0.10777 0.56339 0.52733 0.0
C699 C 0.18807 0.61114 0.61103 0.0
C700 C 0.19338 0.61696 0.64251 0.0
C701 C 0.17176 0.60936 0.66265 0.0
C702 C 0.14513 0.59694 0.65145 0.0
C703 C 0.14049 0.59199 0.62009 0.0
C704 C 0.16157 0.59849 0.60033 0.0
C705 C 0.15176 0.59006 0.56793 0.0
C706 C 0.15534 0.61653 0.54532 0.0
C707 C 0.16645 0.56681 0.55765 0.0
C708 C 0.12181 0.57803 0.57236 0.0
C709 C 0.11547 0.57944 0.60248 0.0
C710 C 0.08893 0.56904 0.61178 0.0
C711 C 0.0687 0.55606 0.58998 0.0
C712 C 0.07527 0.5534 0.55937 0.0
C713 C 0.10205 0.56518 0.55054 0.0
H714 H 0.4022 0.20323 0.63743 0.0
H715 H 0.31863 0.17433 0.60112 0.0
H716 H 0.33253 0.13361 0.57817 0.0
H717 H 0.43565 0.19025 0.57811 0.0
H718 H 0.46265 0.17396 0.59688 0.0
H719 H 0.44785 0.19892 0.61664 0.0
H720 H 0.43334 0.16412 0.6615 0.0
H721 H 0.45065 0.13886 0.64556 0.0
H722 H 0.41533 0.128 0.65467 0.0
H723 H 0.35573 0.09715 0.55684 0.0
H724 H 0.387 0.06789 0.53872 0.0
H725 H 0.45528 0.12039 0.58861 0.0
C726 C 0.38665 0.18802 0.62528 0.0
C727 C 0.35935 0.1924 0.6208 0.0
C728 C 0.33982 0.172 0.60432 0.0
C729 C 0.34744 0.14856 0.59141 0.0
C730 C 0.37459 0.14532 0.59559 0.0
C731 C 0.39384 0.16421 0.61252 0.0
C732 C 0.42182 0.15613 0.61294 0.0
C733 C 0.44325 0.18123 0.60033 0.0
C734 C 0.4308 0.14618 0.64561 0.0
C735 C 0.41558 0.13097 0.59189 0.0
C736 C 0.38806 0.12453 0.58291 0.0
C737 C 0.3773 0.10182 0.56392 0.0
C738 C 0.39516 0.08525 0.55382 0.0
C739 C 0.4235 0.09182 0.56226 0.0
C740 C 0.43369 0.11491 0.58168 0.0
H741 H 0.8252 0.37368 0.60224 0.0
H742 H 0.86304 0.38699 0.69408 0.0
H743 H 0.90717 0.40843 0.67191 0.0
H744 H 0.88614 0.35857 0.56576 0.0
H745 H 0.8783 0.37808 0.53057 0.0
H746 H 0.85104 0.35974 0.55372 0.0
H747 H 0.83329 0.40743 0.55637 0.0
H748 H 0.86028 0.4257 0.5331 0.0
H749 H 0.85639 0.43892 0.57011 0.0
H750 H 0.94599 0.4333 0.63929 0.0
H751 H 0.97391 0.46255 0.59964 0.0
H752 H 0.91038 0.43265 0.52965 0.0
C753 C 0.84297 0.3803 0.61771 0.0
C754 C 0.84074 0.37843 0.64989 0.0
C755 C 0.86428 0.38824 0.66934 0.0
C756 C 0.88949 0.40021 0.65695 0.0
C757 C 0.8909 0.40217 0.62506 0.0
C758 C 0.86819 0.39245 0.60572 0.0
C759 C 0.87412 0.39985 0.57234 0.0
C760 C 0.87229 0.37242 0.55455 0.0
C761 C 0.85489 0.41913 0.55711 0.0
C762 C 0.90337 0.41612 0.57592 0.0
C763 C 0.913 0.41676 0.6064 0.0
C764 C 0.93881 0.43253 0.61531 0.0
C765 C 0.95465 0.44893 0.59264 0.0
C766 C 0.94435 0.44972 0.56162 0.0
C767 C 0.91888 0.43221 0.55319 0.0
H768 H 0.62971 0.80422 0.60635 0.0
H769 H 0.67527 0.81331 0.52345 0.0
H770 H 0.6593 0.8581 0.50896 0.0
H771 H 0.57035 0.82507 0.56509 0.0
H772 H 0.56126 0.84204 0.59773 0.0
H773 H 0.57866 0.81203 0.60358 0.0
H774 H 0.61671 0.84306 0.63744 0.0
H775 H 0.59966 0.8733 0.63134 0.0
H776 H 0.6348 0.877 0.62186 0.0
H777 H 0.64222 0.90479 0.50637 0.0
H778 H 0.61564 0.94361 0.50886 0.0
H779 H 0.57245 0.89719 0.58468 0.0
C780 C 0.63625 0.81498 0.58487 0.0
C781 C 0.65485 0.80512 0.56691 0.0
C782 C 0.66243 0.82073 0.53893 0.0
C783 C 0.65318 0.84623 0.53012 0.0
C784 C 0.63541 0.85534 0.54874 0.0
C785 C 0.62619 0.83966 0.57487 0.0
C786 C 0.60492 0.85266 0.58916 0.0
C787 C 0.57715 0.8317 0.58885 0.0
C788 C 0.61462 0.86206 0.62189 0.0
C789 C 0.604 0.87837 0.56716 0.0
C790 C 0.62236 0.87998 0.54452 0.0
C791 C 0.62704 0.90324 0.52324 0.0
C792 C 0.61178 0.92494 0.52456 0.0
C793 C 0.59125 0.92221 0.54573 0.0
C794 C 0.5876 0.89904 0.56769 0.0
H795 H 0.40762 0.22668 0.46928 0.0
H796 H 0.32249 0.19135 0.44527 0.0
H797 H 0.33125 0.14199 0.45706 0.0
H798 H 0.43578 0.17874 0.43541 0.0
H799 H 0.46278 0.17577 0.46443 0.0
H800 H 0.4488 0.20807 0.46021 0.0
H801 H 0.4371 0.20261 0.5176 0.0
H802 H 0.45132 0.17027 0.52221 0.0
H803 H 0.4166 0.16935 0.5318 0.0
H804 H 0.35147 0.09709 0.46173 0.0
H805 H 0.38058 0.06023 0.46342 0.0
H806 H 0.45202 0.12542 0.48639 0.0
C807 C 0.39072 0.20851 0.4675 0.0
C808 C 0.36444 0.21249 0.45653 0.0
C809 C 0.34269 0.18849 0.45405 0.0
C810 C 0.34751 0.16049 0.46063 0.0
C811 C 0.37402 0.15715 0.47023 0.0
C812 C 0.39512 0.18059 0.47432 0.0
C813 C 0.42214 0.17131 0.48247 0.0
C814 C 0.44361 0.18423 0.45923 0.0
C815 C 0.43244 0.17887 0.51548 0.0
C816 C 0.41338 0.13916 0.48013 0.0
C817 C 0.3855 0.13126 0.47357 0.0
C818 C 0.37321 0.10294 0.46762 0.0
C819 C 0.38991 0.08223 0.46836 0.0
C820 C 0.41849 0.09007 0.47509 0.0
C821 C 0.43017 0.11878 0.48154 0.0
H822 H 0.83453 0.41083 0.34995 0.0
H823 H 0.82298 0.3421 0.42147 0.0
H824 H 0.86627 0.36377 0.44754 0.0
H825 H 0.90829 0.4241 0.34998 0.0
H826 H 0.91193 0.46277 0.34685 0.0
H827 H 0.88138 0.44028 0.3309 0.0
H828 H 0.85147 0.46476 0.36315 0.0
H829 H 0.88189 0.48759 0.37879 0.0
H830 H 0.85835 0.46583 0.40423 0.0
H831 H 0.91108 0.3925 0.46675 0.0
H832 H 0.94957 0.43105 0.4825 0.0
H833 H 0.92943 0.48465 0.40336 0.0
C834 C 0.84083 0.40014 0.37105 0.0
C835 C 0.82524 0.37371 0.38247 0.0
C836 C 0.83475 0.36124 0.41069 0.0
C837 C 0.85942 0.37361 0.42613 0.0
C838 C 0.87435 0.39911 0.41385 0.0
C839 C 0.8651 0.41271 0.38745 0.0
C840 C 0.8837 0.44163 0.38112 0.0
C841 C 0.89712 0.44221 0.35038 0.0
C842 C 0.86791 0.46641 0.38188 0.0
C843 C 0.9047 0.44203 0.40815 0.0
C844 C 0.89925 0.41694 0.42632 0.0
C845 C 0.9156 0.41225 0.45268 0.0
C846 C 0.9376 0.43418 0.46131 0.0
C847 C 0.94267 0.46077 0.44406 0.0
C848 C 0.92622 0.46444 0.41683 0.0
H849 H 0.61965 0.80475 0.403 0.0
H850 H 0.69655 0.86306 0.38807 0.0
H851 H 0.67798 0.90305 0.40745 0.0
H852 H 0.57462 0.85367 0.38195 0.0
H853 H 0.55157 0.84055 0.41188 0.0
H854 H 0.57089 0.81679 0.39662 0.0
H855 H 0.59102 0.80579 0.45159 0.0
H856 H 0.57157 0.8294 0.46696 0.0
H857 H 0.60816 0.83521 0.47446 0.0
H858 H 0.65015 0.937 0.42748 0.0
H859 H 0.61656 0.96119 0.4493 0.0
H860 H 0.55878 0.87987 0.45294 0.0
C861 C 0.63248 0.826 0.40368 0.0
C862 C 0.65943 0.83097 0.39381 0.0
C863 C 0.67584 0.85889 0.39553 0.0
C864 C 0.66544 0.88169 0.40643 0.0
C865 C 0.63873 0.87611 0.41596 0.0
C866 C 0.6226 0.84885 0.41503 0.0
C867 C 0.59495 0.84827 0.42758 0.0
C868 C 0.57164 0.83929 0.40304 0.0
C869 C 0.59122 0.8285 0.45688 0.0
C870 C 0.5977 0.8796 0.43491 0.0
C871 C 0.6231 0.89535 0.42814 0.0
C872 C 0.63024 0.92481 0.43297 0.0
C873 C 0.61101 0.93839 0.4453 0.0
C874 C 0.58502 0.9225 0.45288 0.0
C875 C 0.57838 0.89275 0.44732 0.0
H876 H 0.16682 0.58452 0.3488 0.0
H877 H 0.19106 0.64836 0.41843 0.0
H878 H 0.14688 0.6327 0.4408 0.0
H879 H 0.09409 0.58383 0.34172 0.0
H880 H 0.0847 0.54519 0.34027 0.0
H881 H 0.11683 0.56382 0.32617 0.0
H882 H 0.14299 0.532 0.36291 0.0
H883 H 0.11092 0.51299 0.37664 0.0
H884 H 0.13755 0.52976 0.40348 0.0
H885 H 0.10044 0.61008 0.45686 0.0
H886 H 0.0591 0.57619 0.47167 0.0
H887 H 0.06702 0.52227 0.39689 0.0
C888 C 0.16322 0.59537 0.36877 0.0
C889 C 0.18281 0.61868 0.38075 0.0
C890 C 0.17646 0.63165 0.40724 0.0
C891 C 0.15126 0.62269 0.42054 0.0
C892 C 0.13257 0.60008 0.40786 0.0
C893 C 0.13848 0.58604 0.38312 0.0
C894 C 0.1161 0.56005 0.37639 0.0
C895 C 0.10211 0.56344 0.34422 0.0
C896 C 0.12758 0.53205 0.38009 0.0
C897 C 0.09683 0.56168 0.40139 0.0
C898 C 0.10647 0.58541 0.41873 0.0
C899 C 0.09267 0.5914 0.44346 0.0
C900 C 0.06899 0.57199 0.45156 0.0
C901 C 0.0596 0.54637 0.43551 0.0
C902 C 0.0734 0.5417 0.4095 0.0
H903 H 0.43497 0.81178 0.65548 0.0
H904 H 0.35273 0.82778 0.63418 0.0
H905 H 0.37199 0.87435 0.60826 0.0
H906 H 0.46588 0.88489 0.67287 0.0
H907 H 0.49761 0.88338 0.65626 0.0
H908 H 0.47726 0.85105 0.67252 0.0
H909 H 0.4759 0.82622 0.6209 0.0
H910 H 0.4964 0.85841 0.60461 0.0
H911 H 0.46382 0.84325 0.58596 0.0
H912 H 0.40075 0.91919 0.58319 0.0
H913 H 0.43635 0.95783 0.56177 0.0
H914 H 0.49927 0.91338 0.60295 0.0
C915 C 0.42089 0.82513 0.64577 0.0
C916 C 0.39222 0.81586 0.64699 0.0
C917 C 0.37472 0.83399 0.63324 0.0
C918 C 0.38549 0.86067 0.61865 0.0
C919 C 0.41384 0.86915 0.61813 0.0
C920 C 0.43127 0.85189 0.63142 0.0
C921 C 0.46095 0.86582 0.62774 0.0
C922 C 0.47632 0.87163 0.65922 0.0
C923 C 0.47509 0.84732 0.60866 0.0
C924 C 0.45754 0.89364 0.6103 0.0
C925 C 0.43025 0.89518 0.60477 0.0
C926 C 0.42219 0.91833 0.58771 0.0
C927 C 0.44255 0.94023 0.57569 0.0
C928 C 0.47066 0.93899 0.58106 0.0
C929 C 0.47805 0.91545 0.59897 0.0
H930 H 0.23357 0.4227 0.62 0.0
H931 H 0.19705 0.33186 0.6164 0.0
H932 H 0.15422 0.34451 0.59293 0.0
H933 H 0.1745 0.44716 0.63999 0.0
H934 H 0.18067 0.47998 0.61623 0.0
H935 H 0.20898 0.46388 0.63141 0.0
H936 H 0.22461 0.4626 0.57629 0.0
H937 H 0.19617 0.47833 0.5606 0.0
H938 H 0.20103 0.4445 0.54731 0.0
H939 H 0.11453 0.36687 0.57269 0.0
H940 H 0.08144 0.39752 0.55426 0.0
H941 H 0.14374 0.47391 0.57044 0.0
C942 C 0.21656 0.40549 0.61424 0.0
C943 C 0.21867 0.37628 0.62001 0.0
C944 C 0.19603 0.35438 0.61185 0.0
C945 C 0.17156 0.36134 0.59866 0.0
C946 C 0.17006 0.39031 0.59359 0.0
C947 C 0.19201 0.41206 0.60083 0.0
C948 C 0.18492 0.44147 0.59304 0.0
C949 C 0.18741 0.45915 0.62189 0.0
C950 C 0.20275 0.4577 0.56781 0.0
C951 C 0.15536 0.43282 0.58112 0.0
C952 C 0.14722 0.40322 0.58155 0.0
C953 C 0.12068 0.3901 0.57216 0.0
C954 C 0.10199 0.4077 0.56186 0.0
C955 C 0.10989 0.43812 0.56114 0.0
C956 C 0.13699 0.45073 0.57086 0.0
H957 H 0.60107 0.20626 0.61146 0.0
H958 H 0.66717 0.1629 0.64449 0.0
H959 H 0.64099 0.11712 0.62463 0.0
H960 H 0.54436 0.14618 0.62626 0.0
H961 H 0.52476 0.15389 0.59154 0.0
H962 H 0.5478 0.18266 0.61042 0.0
H963 H 0.57247 0.19694 0.55985 0.0
H964 H 0.54958 0.16815 0.54091 0.0
H965 H 0.58606 0.17024 0.54126 0.0
H966 H 0.60789 0.07613 0.60007 0.0
H967 H 0.57112 0.04367 0.57109 0.0
H968 H 0.52768 0.11437 0.55201 0.0
C969 C 0.60975 0.18698 0.61492 0.0
C970 C 0.63603 0.18799 0.62969 0.0
C971 C 0.64705 0.16251 0.63324 0.0
C972 C 0.63232 0.13643 0.6221 0.0
C973 C 0.60663 0.13618 0.60723 0.0
C974 C 0.59545 0.16081 0.60352 0.0
C975 C 0.56814 0.15505 0.58518 0.0
C976 C 0.54489 0.15972 0.60451 0.0
C977 C 0.56914 0.1737 0.55501 0.0
C978 C 0.5658 0.12345 0.57907 0.0
C979 C 0.58805 0.11286 0.59222 0.0
C980 C 0.59035 0.08419 0.58967 0.0
C981 C 0.56937 0.0659 0.5732 0.0
C982 C 0.54656 0.07644 0.55918 0.0
C983 C 0.5449 0.10563 0.56228 0.0
H984 H 0.78074 0.59107 0.52289 0.0
H985 H 0.82243 0.66674 0.57006 0.0
H986 H 0.86669 0.65921 0.55376 0.0
H987 H 0.82516 0.54795 0.54247 0.0
H988 H 0.82451 0.53109 0.50639 0.0
H989 H 0.79561 0.5456 0.51576 0.0
H990 H 0.79891 0.57764 0.4653 0.0
H991 H 0.82787 0.56302 0.45566 0.0
H992 H 0.83073 0.6014 0.45726 0.0
H993 H 0.90529 0.63696 0.54536 0.0
H994 H 0.93707 0.60424 0.53888 0.0
H995 H 0.87225 0.54568 0.49102 0.0
C996 C 0.79921 0.60641 0.52885 0.0
C997 C 0.79848 0.62943 0.54761 0.0
C998 C 0.82279 0.64911 0.55545 0.0
C999 C 0.84793 0.6451 0.54618 0.0
C1000 C 0.84821 0.62176 0.52839 0.0
C1001 C 0.82449 0.60312 0.51903 0.0
C1002 C 0.83095 0.5783 0.50236 0.0
C1003 C 0.81832 0.54902 0.51768 0.0
C1004 C 0.82155 0.58021 0.46811 0.0
C1005 C 0.86189 0.58441 0.50661 0.0
C1006 C 0.87136 0.60986 0.52132 0.0
C1007 C 0.89841 0.61766 0.53268 0.0
C1008 C 0.91621 0.59887 0.52921 0.0
C1009 C 0.90702 0.57303 0.51387 0.0
C1010 C 0.87979 0.56599 0.50173 0.0
H1011 H 0.40077 0.44847 0.26657 0.0
H1012 H 0.35633 0.36271 0.24663 0.0
H1013 H 0.37036 0.36982 0.19319 0.0
H1014 H 0.38592 0.48151 0.19039 0.0
H1015 H 0.4191 0.50416 0.1879 0.0
H1016 H 0.40504 0.49485 0.2249 0.0
H1017 H 0.44694 0.47364 0.24557 0.0
H1018 H 0.46242 0.48425 0.20958 0.0
H1019 H 0.45821 0.44726 0.22401 0.0
H1020 H 0.38969 0.38507 0.14318 0.0
H1021 H 0.41539 0.40678 0.09888 0.0
H1022 H 0.45063 0.48169 0.15117 0.0
C1023 C 0.3938 0.43146 0.25071 0.0
C1024 C 0.37749 0.40506 0.26045 0.0
C1025 C 0.3689 0.38302 0.23941 0.0
C1026 C 0.37667 0.3869 0.20908 0.0
C1027 C 0.39312 0.41291 0.20021 0.0
C1028 C 0.40171 0.43484 0.22028 0.0
C1029 C 0.42031 0.4601 0.20487 0.0
C1030 C 0.40678 0.48673 0.20189 0.0
C1031 C 0.44865 0.46668 0.22204 0.0
C1032 C 0.42182 0.4483 0.1736 0.0
C1033 C 0.4053 0.42139 0.17127 0.0
C1034 C 0.40269 0.40615 0.14464 0.0
C1035 C 0.41739 0.41872 0.1196 0.0
C1036 C 0.43496 0.44602 0.1215 0.0
C1037 C 0.43732 0.46091 0.14898 0.0
H1038 H 0.38322 0.57545 0.8319 0.0
H1039 H 0.38979 0.66212 0.86255 0.0
H1040 H 0.41926 0.65078 0.90755 0.0
H1041 H 0.38354 0.53863 0.90946 0.0
H1042 H 0.40435 0.51399 0.89905 0.0
H1043 H 0.38151 0.52745 0.87044 0.0
H1044 H 0.42171 0.54599 0.83597 0.0
H1045 H 0.44511 0.53299 0.86414 0.0
H1046 H 0.45149 0.57034 0.851 0.0
H1047 H 0.45197 0.63221 0.94601 0.0
H1048 H 0.48536 0.60701 0.97553 0.0
H1049 H 0.45698 0.53177 0.92191 0.0
C1050 C 0.39035 0.59177 0.8485 0.0
C1051 C 0.38415 0.61971 0.84367 0.0
C1052 C 0.3944 0.64067 0.8656 0.0
C1053 C 0.41104 0.63437 0.89137 0.0
C1054 C 0.41724 0.60691 0.89516 0.0
C1055 C 0.40714 0.58583 0.87445 0.0
C1056 C 0.41858 0.5587 0.88291 0.0
C1057 C 0.39562 0.53319 0.89094 0.0
C1058 C 0.4352 0.5516 0.85696 0.0
C1059 C 0.43699 0.56806 0.91119 0.0
C1060 C 0.43579 0.59592 0.91793 0.0
C1061 C 0.45262 0.61015 0.94142 0.0
C1062 C 0.47144 0.59573 0.95814 0.0
C1063 C 0.47302 0.56729 0.95156 0.0
C1064 C 0.45536 0.55317 0.92806 0.0
H1065 H 0.4043 0.4087 0.80769 0.0
H1066 H 0.38867 0.3257 0.85742 0.0
H1067 H 0.40932 0.34875 0.90524 0.0
H1068 H 0.46947 0.43316 0.8441 0.0
H1069 H 0.46564 0.47021 0.84441 0.0
H1070 H 0.44744 0.44744 0.81517 0.0
H1071 H 0.40155 0.45901 0.83058 0.0
H1072 H 0.41985 0.48174 0.85988 0.0
H1073 H 0.39237 0.45269 0.87 0.0
H1074 H 0.43332 0.38114 0.94753 0.0
H1075 H 0.46244 0.41882 0.97875 0.0
H1076 H 0.46327 0.47988 0.90049 0.0
C1077 C 0.40483 0.39547 0.82877 0.0
C1078 C 0.3947 0.36545 0.82894 0.0
C1079 C 0.39637 0.34873 0.8568 0.0
C1080 C 0.40787 0.36167 0.8841 0.0
C1081 C 0.41776 0.39135 0.88314 0.0
C1082 C 0.41653 0.40798 0.85609 0.0
C1083 C 0.43041 0.43898 0.86055 0.0
C1084 C 0.45468 0.44796 0.83984 0.0
C1085 C 0.4098 0.45929 0.85492 0.0
C1086 C 0.44004 0.43716 0.89418 0.0
C1087 C 0.43217 0.40967 0.90705 0.0
C1088 C 0.43947 0.40277 0.9377 0.0
C1089 C 0.45588 0.42432 0.95533 0.0
C1090 C 0.46512 0.45223 0.94206 0.0
C1091 C 0.45651 0.45873 0.9113 0.0
H1092 H 0.60535 0.38589 0.78568 0.0
H1093 H 0.68581 0.39036 0.83214 0.0
H1094 H 0.67219 0.41707 0.87344 0.0
H1095 H 0.59639 0.45694 0.80484 0.0
H1096 H 0.56033 0.44559 0.81012 0.0
H1097 H 0.57666 0.42754 0.78369 0.0
H1098 H 0.5593 0.37857 0.8125 0.0
H1099 H 0.54295 0.39653 0.83897 0.0
H1100 H 0.56725 0.37455 0.8533 0.0
H1101 H 0.64952 0.44292 0.91034 0.0
H1102 H 0.61938 0.46541 0.93987 0.0
H1103 H 0.55354 0.44329 0.86986 0.0
C1104 C 0.62008 0.39235 0.8046 0.0
C1105 C 0.64673 0.38605 0.8055 0.0
C1106 C 0.66543 0.39526 0.83059 0.0
C1107 C 0.65784 0.41034 0.85428 0.0
C1108 C 0.63145 0.41619 0.85266 0.0
C1109 C 0.61286 0.40754 0.82843 0.0
C1110 C 0.58573 0.41643 0.8323 0.0
C1111 C 0.57942 0.4379 0.80618 0.0
C1112 C 0.56244 0.38994 0.8344 0.0
C1113 C 0.59181 0.43093 0.86274 0.0
C1114 C 0.61836 0.4308 0.87401 0.0
C1115 C 0.62868 0.44312 0.90172 0.0
C1116 C 0.61139 0.45584 0.91837 0.0
C1117 C 0.58402 0.45601 0.90736 0.0
C1118 C 0.57427 0.44338 0.8791 0.0
H1119 H 0.64918 0.62883 0.77942 0.0
H1120 H 0.61724 0.55546 0.72396 0.0
H1121 H 0.59905 0.52736 0.77031 0.0
H1122 H 0.66838 0.58598 0.84925 0.0
H1123 H 0.65911 0.61055 0.87479 0.0
H1124 H 0.67176 0.62367 0.83787 0.0
H1125 H 0.62819 0.64518 0.82445 0.0
H1126 H 0.61537 0.63206 0.86119 0.0
H1127 H 0.59499 0.62206 0.82635 0.0
H1128 H 0.57835 0.51062 0.82046 0.0
H1129 H 0.56007 0.50446 0.87174 0.0
H1130 H 0.60948 0.5868 0.89638 0.0
C1131 C 0.63874 0.60667 0.77726 0.0
C1132 C 0.63444 0.59416 0.74834 0.0
C1133 C 0.62077 0.5652 0.74609 0.0
C1134 C 0.61041 0.54917 0.77221 0.0
C1135 C 0.61451 0.56232 0.80038 0.0
C1136 C 0.6288 0.59023 0.80318 0.0
C1137 C 0.6295 0.59969 0.83582 0.0
C1138 C 0.65894 0.6053 0.85028 0.0
C1139 C 0.61621 0.62631 0.837 0.0
C1140 C 0.61236 0.57319 0.85071 0.0
C1141 C 0.60395 0.55188 0.82986 0.0
C1142 C 0.58553 0.52673 0.83726 0.0
C1143 C 0.57534 0.52336 0.86662 0.0
C1144 C 0.58407 0.54463 0.8886 0.0
C1145 C 0.60309 0.56971 0.8805 0.0
H1146 H 0.63958 0.61801 0.19389 0.0
H1147 H 0.57349 0.66292 0.2082 0.0
H1148 H 0.54711 0.63989 0.16425 0.0
H1149 H 0.63214 0.61533 0.11173 0.0
H1150 H 0.63693 0.57864 0.11082 0.0
H1151 H 0.65271 0.60066 0.14194 0.0
H1152 H 0.62916 0.5626 0.18159 0.0
H1153 H 0.61369 0.54029 0.15062 0.0
H1154 H 0.59252 0.55076 0.17806 0.0
H1155 H 0.52783 0.61371 0.11732 0.0
H1156 H 0.513 0.57811 0.07732 0.0
H1157 H 0.58699 0.54376 0.0978 0.0
C1158 C 0.61957 0.62307 0.18814 0.0
C1159 C 0.60965 0.6438 0.20428 0.0
C1160 C 0.58286 0.64884 0.19561 0.0
C1161 C 0.56731 0.63549 0.17064 0.0
C1162 C 0.57807 0.6161 0.15484 0.0
C1163 C 0.60315 0.60907 0.1638 0.0
C1164 C 0.60856 0.58523 0.14456 0.0
C1165 C 0.63411 0.5956 0.12618 0.0
C1166 C 0.61113 0.55811 0.16492 0.0
C1167 C 0.58268 0.58025 0.12339 0.0
C1168 C 0.56571 0.59884 0.12933 0.0
C1169 C 0.54087 0.59892 0.11255 0.0
C1170 C 0.53271 0.57885 0.08971 0.0
C1171 C 0.54899 0.55854 0.08436 0.0
C1172 C 0.5744 0.5594 0.10122 0.0
H1173 H 0.35844 0.60847 0.19137 0.0
H1174 H 0.41601 0.61434 0.27102 0.0
H1175 H 0.44402 0.58628 0.24552 0.0
H1176 H 0.36502 0.53456 0.17118 0.0
H1177 H 0.36289 0.5431 0.13038 0.0
H1178 H 0.3455 0.56105 0.15588 0.0
H1179 H 0.3709 0.61051 0.13445 0.0
H1180 H 0.38849 0.59269 0.10911 0.0
H1181 H 0.4078 0.61795 0.13555 0.0
H1182 H 0.46747 0.56164 0.21133 0.0
H1183 H 0.48589 0.54017 0.16994 0.0
H1184 H 0.41442 0.54935 0.10991 0.0
C1185 C 0.37666 0.60322 0.20351 0.0
C1186 C 0.38511 0.61332 0.23323 0.0
C1187 C 0.40927 0.60666 0.24832 0.0
C1188 C 0.42524 0.59073 0.23404 0.0
C1189 C 0.41682 0.58159 0.20456 0.0
C1190 C 0.39309 0.58734 0.18937 0.0
C1191 C 0.38991 0.57611 0.15703 0.0
C1192 C 0.3643 0.55229 0.15341 0.0
C1193 C 0.38924 0.60079 0.13259 0.0
C1194 C 0.41592 0.56393 0.15631 0.0
C1195 C 0.43085 0.56725 0.18421 0.0
C1196 C 0.45594 0.55877 0.18942 0.0
C1197 C 0.46626 0.54662 0.16552 0.0
C1198 C 0.4517 0.54302 0.13641 0.0
C1199 C 0.42596 0.55159 0.13187 0.0
H1200 H 0.59574 0.38226 0.19891 0.0
H1201 H 0.67483 0.416 0.16186 0.0
H1202 H 0.65172 0.43504 0.11557 0.0
H1203 H 0.56054 0.35941 0.12635 0.0
H1204 H 0.52891 0.36908 0.13544 0.0
H1205 H 0.5517 0.35825 0.16583 0.0
H1206 H 0.55325 0.40603 0.19252 0.0
H1207 H 0.53033 0.41687 0.16236 0.0
H1208 H 0.56292 0.43986 0.17117 0.0
H1209 H 0.61966 0.4522 0.07374 0.0
H1210 H 0.58143 0.46596 0.04063 0.0
H1211 H 0.52361 0.41799 0.10354 0.0
C1212 C 0.60831 0.3933 0.18098 0.0
C1213 C 0.63726 0.39762 0.18437 0.0
C1214 C 0.6527 0.41278 0.16033 0.0
C1215 C 0.63973 0.42346 0.1337 0.0
C1216 C 0.61122 0.41864 0.13112 0.0
C1217 C 0.59571 0.40385 0.15411 0.0
C1218 C 0.56538 0.40183 0.14592 0.0
C1219 C 0.55078 0.37026 0.14322 0.0
C1220 C 0.55221 0.41706 0.16938 0.0
C1221 C 0.56624 0.41797 0.11483 0.0
C1222 C 0.59285 0.42758 0.10667 0.0
C1223 C 0.59873 0.44444 0.07974 0.0
C1224 C 0.57689 0.45209 0.061 0.0
C1225 C 0.54945 0.44267 0.0691 0.0
C1226 C 0.54423 0.42496 0.09617 0.0
loop_
_geom_bond_atom_site_label_1
_geom_bond_atom_site_label_2
_geom_bond_distance
_geom_bond_site_symmetry_2
_ccdc_geom_bond_type
C0 C1 1.391 . S
C0 C4 1.391 . S
C0 H42 0.948 . S
C1 C0 1.391 . S
C1 C2 1.391 . S
C2 C1 1.391 . S
C2 H58 0.947 . S
C2 C59 1.392 . S
C3 C4 1.391 . S
C3 C7 1.397 . S
C3 C59 1.419 . S
C4 C0 1.391 . S
C4 C3 1.391 . S
C4 C5 1.399 . S
C5 C4 1.399 . S
C5 C8 1.396 . S
C5 C17 1.453 . S
C5 C18 1.684 . S
H6 C30 0.948 . S
C7 C3 1.397 . S
C7 C8 1.394 . S
C7 C26 1.723 . S
C8 C5 1.396 . S
C8 C7 1.394 . S
C8 C38 1.723 . S
H9 C32 0.947 . S
H10 C33 0.948 . S
H11 C39 0.982 . S
H12 C40 0.979 . S
H13 C40 0.980 . S
H14 C40 0.983 . S
H15 C39 0.979 . S
H16 C39 0.977 . S
C17 C5 1.453 . S
C17 H46 0.982 . S
C17 H47 0.979 . S
C17 H48 0.977 . S
C18 C5 1.684 . S
C18 H43 0.979 . S
C18 H44 0.980 . S
C18 H45 0.983 . S
C19 C20 1.391 . S
C19 C24 1.391 . S
C19 H49 0.948 . S
C20 C19 1.391 . S
C20 C21 1.391 . S
C21 C20 1.391 . S
C21 C22 1.392 . S
C21 H50 0.947 . S
C22 C21 1.392 . S
C22 C23 1.419 . S
C22 H51 0.948 . S
C23 C22 1.419 . S
C23 C24 1.391 . S
C23 C27 1.397 . S
C24 C19 1.391 . S
C24 C23 1.391 . S
C24 C25 1.399 . S
C25 C24 1.399 . S
C25 C26 1.396 . S
C25 C28 1.453 . S
C25 C29 1.684 . S
C26 C7 1.723 . S
C26 C25 1.396 . S
C26 C27 1.394 . S
C27 C23 1.397 . S
C27 C26 1.394 . S
C27 C37 1.723 . S
C28 C25 1.453 . S
C28 H52 0.982 . S
C28 H53 0.979 . S
C28 H54 0.977 . S
C29 C25 1.684 . S
C29 H55 0.979 . S
C29 H56 0.980 . S
C29 H57 0.983 . S
C30 H6 0.948 . S
C30 C31 1.391 . S
C30 C35 1.391 . S
C31 C30 1.391 . S
C31 C32 1.391 . S
C32 H9 0.947 . S
C32 C31 1.391 . S
C32 C33 1.392 . S
C33 H10 0.948 . S
C33 C32 1.392 . S
C33 C34 1.419 . S
C34 C33 1.419 . S
C34 C35 1.391 . S
C34 C38 1.397 . S
C35 C30 1.391 . S
C35 C34 1.391 . S
C35 C36 1.399 . S
C36 C35 1.399 . S
C36 C37 1.396 . S
C36 C39 1.453 . S
C36 C40 1.684 . S
C37 C27 1.723 . S
C37 C36 1.396 . S
C37 C38 1.394 . S
C38 C8 1.723 . S
C38 C34 1.397 . S
C38 C37 1.394 . S
C39 H11 0.982 . S
C39 H15 0.979 . S
C39 H16 0.977 . S
C39 C36 1.453 . S
C40 H12 0.979 . S
C40 H13 0.980 . S
C40 H14 0.983 . S
C40 C36 1.684 . S
H41 C59 0.948 . S
H42 C0 0.948 . S
H43 C18 0.979 . S
H44 C18 0.980 . S
H45 C18 0.983 . S
H46 C17 0.982 . S
H47 C17 0.979 . S
H48 C17 0.977 . S
H49 C19 0.948 . S
H50 C21 0.947 . S
H51 C22 0.948 . S
H52 C28 0.982 . S
H53 C28 0.979 . S
H54 C28 0.977 . S
H55 C29 0.979 . S
H56 C29 0.980 . S
H57 C29 0.983 . S
H58 C2 0.947 . S
C59 C2 1.392 . S
C59 C3 1.419 . S
C59 H41 0.948 . S
C60 C61 1.391 . S
C60 C64 1.391 . S
C60 H102 0.948 . S
C61 C60 1.391 . S
C61 C62 1.391 . S
C62 C61 1.391 . S
C62 H118 0.947 . S
C62 C119 1.392 . S
C63 C64 1.391 . S
C63 C67 1.397 . S
C63 C119 1.419 . S
C64 C60 1.391 . S
C64 C63 1.391 . S
C64 C65 1.399 . S
C65 C64 1.399 . S
C65 C68 1.396 . S
C65 C77 1.453 . S
C65 C78 1.684 . S
H66 C90 0.948 . S
C67 C63 1.397 . S
C67 C68 1.394 . S
C67 C86 1.723 . S
C68 C65 1.396 . S
C68 C67 1.394 . S
C68 C98 1.723 . S
H69 C92 0.947 . S
H70 C93 0.948 . S
H71 C99 0.982 . S
H72 C100 0.979 . S
H73 C100 0.980 . S
H74 C100 0.983 . S
H75 C99 0.979 . S
H76 C99 0.977 . S
C77 C65 1.453 . S
C77 H106 0.982 . S
C77 H107 0.979 . S
C77 H108 0.977 . S
C78 C65 1.684 . S
C78 H103 0.979 . S
C78 H104 0.980 . S
C78 H105 0.983 . S
C79 C80 1.391 . S
C79 C84 1.391 . S
C79 H109 0.948 . S
C80 C79 1.391 . S
C80 C81 1.391 . S
C81 C80 1.391 . S
C81 C82 1.392 . S
C81 H110 0.947 . S
C82 C81 1.392 . S
C82 C83 1.419 . S
C82 H111 0.948 . S
C83 C82 1.419 . S
C83 C84 1.391 . S
C83 C87 1.397 . S
C84 C79 1.391 . S
C84 C83 1.391 . S
C84 C85 1.399 . S
C85 C84 1.399 . S
C85 C86 1.396 . S
C85 C88 1.453 . S
C85 C89 1.684 . S
C86 C67 1.723 . S
C86 C85 1.396 . S
C86 C87 1.394 . S
C87 C83 1.397 . S
C87 C86 1.394 . S
C87 C97 1.723 . S
C88 C85 1.453 . S
C88 H112 0.982 . S
C88 H113 0.979 . S
C88 H114 0.977 . S
C89 C85 1.684 . S
C89 H115 0.979 . S
C89 H116 0.980 . S
C89 H117 0.983 . S
C90 H66 0.948 . S
C90 C91 1.391 . S
C90 C95 1.391 . S
C91 C90 1.391 . S
C91 C92 1.391 . S
C92 H69 0.947 . S
C92 C91 1.391 . S
C92 C93 1.392 . S
C93 H70 0.948 . S
C93 C92 1.392 . S
C93 C94 1.419 . S
C94 C93 1.419 . S
C94 C95 1.391 . S
C94 C98 1.397 . S
C95 C90 1.391 . S
C95 C94 1.391 . S
C95 C96 1.399 . S
C96 C95 1.399 . S
C96 C97 1.396 . S
C96 C99 1.453 . S
C96 C100 1.684 . S
C97 C87 1.723 . S
C97 C96 1.396 . S
C97 C98 1.394 . S
C98 C68 1.723 . S
C98 C94 1.397 . S
C98 C97 1.394 . S
C99 H71 0.982 . S
C99 H75 0.979 . S
C99 H76 0.977 . S
C99 C96 1.453 . S
C100 H72 0.979 . S
C100 H73 0.980 . S
C100 H74 0.983 . S
C100 C96 1.684 . S
H101 C119 0.948 . S
H102 C60 0.948 . S
H103 C78 0.979 . S
H104 C78 0.980 . S
H105 C78 0.983 . S
H106 C77 0.982 . S
H107 C77 0.979 . S
H108 C77 0.977 . S
H109 C79 0.948 . S
H110 C81 0.947 . S
H111 C82 0.948 . S
H112 C88 0.982 . S
H113 C88 0.979 . S
H114 C88 0.977 . S
H115 C89 0.979 . S
H116 C89 0.980 . S
H117 C89 0.983 . S
H118 C62 0.947 . S
C119 C62 1.392 . S
C119 C63 1.419 . S
C119 H101 0.948 . S
C120 C121 1.391 . S
C120 C124 1.391 . S
C120 H162 0.948 . S
C121 C120 1.391 . S
C121 C122 1.391 . S
C122 C121 1.391 . S
C122 H178 0.947 . S
C122 C179 1.392 . S
C123 C124 1.391 . S
C123 C127 1.397 . S
C123 C179 1.419 . S
C124 C120 1.391 . S
C124 C123 1.391 . S
C124 C125 1.399 . S
C125 C124 1.399 . S
C125 C128 1.396 . S
C125 C137 1.453 . S
C125 C138 1.684 . S
H126 C150 0.948 . S
C127 C123 1.397 . S
C127 C128 1.394 . S
C127 C146 1.723 . S
C128 C125 1.396 . S
C128 C127 1.394 . S
C128 C158 1.723 . S
H129 C152 0.947 . S
H130 C153 0.948 . S
H131 C159 0.982 . S
H132 C160 0.979 . S
H133 C160 0.980 . S
H134 C160 0.983 . S
H135 C159 0.979 . S
H136 C159 0.977 . S
C137 C125 1.453 . S
C137 H166 0.982 . S
C137 H167 0.979 . S
C137 H168 0.977 . S
C138 C125 1.684 . S
C138 H163 0.979 . S
C138 H164 0.980 . S
C138 H165 0.983 . S
C139 C140 1.391 . S
C139 C144 1.391 . S
C139 H169 0.948 . S
C140 C139 1.391 . S
C140 C141 1.391 . S
C141 C140 1.391 . S
C141 C142 1.392 . S
C141 H170 0.947 . S
C142 C141 1.392 . S
C142 C143 1.419 . S
C142 H171 0.948 . S
C143 C142 1.419 . S
C143 C144 1.391 . S
C143 C147 1.397 . S
C144 C139 1.391 . S
C144 C143 1.391 . S
C144 C145 1.399 . S
C145 C144 1.399 . S
C145 C146 1.396 . S
C145 C148 1.453 . S
C145 C149 1.684 . S
C146 C127 1.723 . S
C146 C145 1.396 . S
C146 C147 1.394 . S
C147 C143 1.397 . S
C147 C146 1.394 . S
C147 C157 1.723 . S
C148 C145 1.453 . S
C148 H172 0.982 . S
C148 H173 0.979 . S
C148 H174 0.977 . S
C149 C145 1.684 . S
C149 H175 0.979 . S
C149 H176 0.980 . S
C149 H177 0.983 . S
C150 H126 0.948 . S
C150 C151 1.391 . S
C150 C155 1.391 . S
C151 C150 1.391 . S
C151 C152 1.391 . S
C152 H129 0.947 . S
C152 C151 1.391 . S
C152 C153 1.392 . S
C153 H130 0.948 . S
C153 C152 1.392 . S
C153 C154 1.419 . S
C154 C153 1.419 . S
C154 C155 1.391 . S
C154 C158 1.397 . S
C155 C150 1.391 . S
C155 C154 1.391 . S
C155 C156 1.399 . S
C156 C155 1.399 . S
C156 C157 1.396 . S
C156 C159 1.453 . S
C156 C160 1.684 . S
C157 C147 1.723 . S
C157 C156 1.396 . S
C157 C158 1.394 . S
C158 C128 1.723 . S
C158 C154 1.397 . S
C158 C157 1.394 . S
C159 H131 0.982 . S
C159 H135 0.979 . S
C159 H136 0.977 . S
C159 C156 1.453 . S
C160 H132 0.979 . S
C160 H133 0.980 . S
C160 H134 0.983 . S
C160 C156 1.684 . S
H161 C179 0.948 . S
H162 C120 0.948 . S
H163 C138 0.979 . S
H164 C138 0.980 . S
H165 C138 0.983 . S
H166 C137 0.982 . S
H167 C137 0.979 . S
H168 C137 0.977 . S
H169 C139 0.948 . S
H170 C141 0.947 . S
H171 C142 0.948 . S
H172 C148 0.982 . S
H173 C148 0.979 . S
H174 C148 0.977 . S
H175 C149 0.979 . S
H176 C149 0.980 . S
H177 C149 0.983 . S
H178 C122 0.947 . S
C179 C122 1.392 . S
C179 C123 1.419 . S
C179 H161 0.948 . S
C180 C181 1.391 . S
C180 C184 1.391 . S
C180 H222 0.948 . S
C181 C180 1.391 . S
C181 C182 1.391 . S
C182 C181 1.391 . S
C182 H238 0.947 . S
C182 C239 1.392 . S
C183 C184 1.391 . S
C183 C187 1.397 . S
C183 C239 1.419 . S
C184 C180 1.391 . S
C184 C183 1.391 . S
C184 C185 1.399 . S
C185 C184 1.399 . S
C185 C188 1.396 . S
C185 C197 1.453 . S
C185 C198 1.684 . S
H186 C210 0.948 . S
C187 C183 1.397 . S
C187 C188 1.394 . S
C187 C206 1.723 . S
C188 C185 1.396 . S
C188 C187 1.394 . S
C188 C218 1.723 . S
H189 C212 0.947 . S
H190 C213 0.948 . S
H191 C219 0.982 . S
H192 C220 0.979 . S
H193 C220 0.980 . S
H194 C220 0.983 . S
H195 C219 0.979 . S
H196 C219 0.977 . S
C197 C185 1.453 . S
C197 H226 0.982 . S
C197 H227 0.979 . S
C197 H228 0.977 . S
C198 C185 1.684 . S
C198 H223 0.979 . S
C198 H224 0.980 . S
C198 H225 0.983 . S
C199 C200 1.391 . S
C199 C204 1.391 . S
C199 H229 0.948 . S
C200 C199 1.391 . S
C200 C201 1.391 . S
C201 C200 1.391 . S
C201 C202 1.392 . S
C201 H230 0.947 . S
C202 C201 1.392 . S
C202 C203 1.419 . S
C202 H231 0.948 . S
C203 C202 1.419 . S
C203 C204 1.391 . S
C203 C207 1.397 . S
C204 C199 1.391 . S
C204 C203 1.391 . S
C204 C205 1.399 . S
C205 C204 1.399 . S
C205 C206 1.396 . S
C205 C208 1.453 . S
C205 C209 1.684 . S
C206 C187 1.723 . S
C206 C205 1.396 . S
C206 C207 1.394 . S
C207 C203 1.397 . S
C207 C206 1.394 . S
C207 C217 1.723 . S
C208 C205 1.453 . S
C208 H232 0.982 . S
C208 H233 0.979 . S
C208 H234 0.977 . S
C209 C205 1.684 . S
C209 H235 0.979 . S
C209 H236 0.980 . S
C209 H237 0.983 . S
C210 H186 0.948 . S
C210 C211 1.391 . S
C210 C215 1.391 . S
C211 C210 1.391 . S
C211 C212 1.391 . S
C212 H189 0.947 . S
C212 C211 1.391 . S
C212 C213 1.392 . S
C213 H190 0.948 . S
C213 C212 1.392 . S
C213 C214 1.419 . S
C214 C213 1.419 . S
C214 C215 1.391 . S
C214 C218 1.397 . S
C215 C210 1.391 . S
C215 C214 1.391 . S
C215 C216 1.399 . S
C216 C215 1.399 . S
C216 C217 1.396 . S
C216 C219 1.453 . S
C216 C220 1.684 . S
C217 C207 1.723 . S
C217 C216 1.396 . S
C217 C218 1.394 . S
C218 C188 1.723 . S
C218 C214 1.397 . S
C218 C217 1.394 . S
C219 H191 0.982 . S
C219 H195 0.979 . S
C219 H196 0.977 . S
C219 C216 1.453 . S
C220 H192 0.979 . S
C220 H193 0.980 . S
C220 H194 0.983 . S
C220 C216 1.684 . S
H221 C239 0.948 . S
H222 C180 0.948 . S
H223 C198 0.979 . S
H224 C198 0.980 . S
H225 C198 0.983 . S
H226 C197 0.982 . S
H227 C197 0.979 . S
H228 C197 0.977 . S
H229 C199 0.948 . S
H230 C201 0.947 . S
H231 C202 0.948 . S
H232 C208 0.982 . S
H233 C208 0.979 . S
H234 C208 0.977 . S
H235 C209 0.979 . S
H236 C209 0.980 . S
H237 C209 0.983 . S
H238 C182 0.947 . S
C239 C182 1.392 . S
C239 C183 1.419 . S
C239 H221 0.948 . S
C240 C241 1.391 . S
C240 C244 1.391 . S
C240 H282 0.948 . S
C241 C240 1.391 . S
C241 C242 1.391 . S
C242 C241 1.391 . S
C242 H298 0.947 . S
C242 C299 1.392 . S
C243 C244 1.391 . S
C243 C247 1.397 . S
C243 C299 1.419 . S
C244 C240 1.391 . S
C244 C243 1.391 . S
C244 C245 1.399 . S
C245 C244 1.399 . S
C245 C248 1.396 . S
C245 C257 1.453 . S
C245 C258 1.684 . S
H246 C270 0.948 . S
C247 C243 1.397 . S
C247 C248 1.394 . S
C247 C266 1.723 . S
C248 C245 1.396 . S
C248 C247 1.394 . S
C248 C278 1.723 . S
H249 C272 0.947 . S
H250 C273 0.948 . S
H251 C279 0.982 . S
H252 C280 0.979 . S
H253 C280 0.980 . S
H254 C280 0.983 . S
H255 C279 0.979 . S
H256 C279 0.977 . S
C257 C245 1.453 . S
C257 H286 0.982 . S
C257 H287 0.979 . S
C257 H288 0.977 . S
C258 C245 1.684 . S
C258 H283 0.979 . S
C258 H284 0.980 . S
C258 H285 0.983 . S
C259 C260 1.391 . S
C259 C264 1.391 . S
C259 H289 0.948 . S
C260 C259 1.391 . S
C260 C261 1.391 . S
C261 C260 1.391 . S
C261 C262 1.392 . S
C261 H290 0.947 . S
C262 C261 1.392 . S
C262 C263 1.419 . S
C262 H291 0.948 . S
C263 C262 1.419 . S
C263 C264 1.391 . S
C263 C267 1.397 . S
C264 C259 1.391 . S
C264 C263 1.391 . S
C264 C265 1.399 . S
C265 C264 1.399 . S
C265 C266 1.396 . S
C265 C268 1.453 . S
C265 C269 1.684 . S
C266 C247 1.723 . S
C266 C265 1.396 . S
C266 C267 1.394 . S
C267 C263 1.397 . S
C267 C266 1.394 . S
C267 C277 1.723 . S
C268 C265 1.453 . S
C268 H292 0.982 . S
C268 H293 0.979 . S
C268 H294 0.977 . S
C269 C265 1.684 . S
C269 H295 0.979 . S
C269 H296 0.980 . S
C269 H297 0.983 . S
C270 H246 0.948 . S
C270 C271 1.391 . S
C270 C275 1.391 . S
C271 C270 1.391 . S
C271 C272 1.391 . S
C272 H249 0.947 . S
C272 C271 1.391 . S
C272 C273 1.392 . S
C273 H250 0.948 . S
C273 C272 1.392 . S
C273 C274 1.419 . S
C274 C273 1.419 . S
C274 C275 1.391 . S
C274 C278 1.397 . S
C275 C270 1.391 . S
C275 C274 1.391 . S
C275 C276 1.399 . S
C276 C275 1.399 . S
C276 C277 1.396 . S
C276 C279 1.453 . S
C276 C280 1.684 . S
C277 C267 1.723 . S
C277 C276 1.396 . S
C277 C278 1.394 . S
C278 C248 1.723 . S
C278 C274 1.397 . S
C278 C277 1.394 . S
C279 H251 0.982 . S
C279 H255 0.979 . S
C279 H256 0.977 . S
C279 C276 1.453 . S
C280 H252 0.979 . S
C280 H253 0.980 . S
C280 H254 0.983 . S
C280 C276 1.684 . S
H281 C299 0.948 . S
H282 C240 0.948 . S
H283 C258 0.979 . S
H284 C258 0.980 . S
H285 C258 0.983 . S
H286 C257 0.982 . S
H287 C257 0.979 . S
H288 C257 0.977 . S
H289 C259 0.948 . S
H290 C261 0.947 . S
H291 C262 0.948 . S
H292 C268 0.982 . S
H293 C268 0.979 . S
H294 C268 0.977 . S
H295 C269 0.979 . S
H296 C269 0.980 . S
H297 C269 0.983 . S
H298 C242 0.947 . S
C299 C242 1.392 . S
C299 C243 1.419 . S
C299 H281 0.948 . S
C300 C301 1.391 . S
C300 C304 1.391 . S
C300 H342 0.948 . S
C301 C300 1.391 . S
C301 C302 1.391 . S
C302 C301 1.391 . S
C302 H358 0.947 . S
C302 C359 1.392 . S
C303 C304 1.391 . S
C303 C307 1.397 . S
C303 C359 1.419 . S
C304 C300 1.391 . S
C304 C303 1.391 . S
C304 C305 1.399 . S
C305 C304 1.399 . S
C305 C308 1.396 . S
C305 C317 1.453 . S
C305 C318 1.684 . S
H306 C330 0.948 . S
C307 C303 1.397 . S
C307 C308 1.394 . S
C307 C326 1.723 . S
C308 C305 1.396 . S
C308 C307 1.394 . S
C308 C338 1.723 . S
H309 C332 0.947 . S
H310 C333 0.948 . S
H311 C339 0.982 . S
H312 C340 0.979 . S
H313 C340 0.980 . S
H314 C340 0.983 . S
H315 C339 0.979 . S
H316 C339 0.977 . S
C317 C305 1.453 . S
C317 H346 0.982 . S
C317 H347 0.979 . S
C317 H348 0.977 . S
C318 C305 1.684 . S
C318 H343 0.979 . S
C318 H344 0.980 . S
C318 H345 0.983 . S
C319 C320 1.391 . S
C319 C324 1.391 . S
C319 H349 0.948 . S
C320 C319 1.391 . S
C320 C321 1.391 . S
C321 C320 1.391 . S
C321 C322 1.392 . S
C321 H350 0.947 . S
C322 C321 1.392 . S
C322 C323 1.419 . S
C322 H351 0.948 . S
C323 C322 1.419 . S
C323 C324 1.391 . S
C323 C327 1.397 . S
C324 C319 1.391 . S
C324 C323 1.391 . S
C324 C325 1.399 . S
C325 C324 1.399 . S
C325 C326 1.396 . S
C325 C328 1.453 . S
C325 C329 1.684 . S
C326 C307 1.723 . S
C326 C325 1.396 . S
C326 C327 1.394 . S
C327 C323 1.397 . S
C327 C326 1.394 . S
C327 C337 1.723 . S
C328 C325 1.453 . S
C328 H352 0.982 . S
C328 H353 0.979 . S
C328 H354 0.977 . S
C329 C325 1.684 . S
C329 H355 0.979 . S
C329 H356 0.980 . S
C329 H357 0.983 . S
C330 H306 0.948 . S
C330 C331 1.391 . S
C330 C335 1.391 . S
C331 C330 1.391 . S
C331 C332 1.391 . S
C332 H309 0.947 . S
C332 C331 1.391 . S
C332 C333 1.392 . S
C333 H310 0.948 . S
C333 C332 1.392 . S
C333 C334 1.419 . S
C334 C333 1.419 . S
C334 C335 1.391 . S
C334 C338 1.397 . S
C335 C330 1.391 . S
C335 C334 1.391 . S
C335 C336 1.399 . S
C336 C335 1.399 . S
C336 C337 1.396 . S
C336 C339 1.453 . S
C336 C340 1.684 . S
C337 C327 1.723 . S
C337 C336 1.396 . S
C337 C338 1.394 . S
C338 C308 1.723 . S
C338 C334 1.397 . S
C338 C337 1.394 . S
C339 H311 0.982 . S
C339 H315 0.979 . S
C339 H316 0.977 . S
C339 C336 1.453 . S
C340 H312 0.979 . S
C340 H313 0.980 . S
C340 H314 0.983 . S
C340 C336 1.684 . S
H341 C359 0.948 . S
H342 C300 0.948 . S
H343 C318 0.979 . S
H344 C318 0.980 . S
H345 C318 0.983 . S
H346 C317 0.982 . S
H347 C317 0.979 . S
H348 C317 0.977 . S
H349 C319 0.948 . S
H350 C321 0.947 . S
H351 C322 0.948 . S
H352 C328 0.982 . S
H353 C328 0.979 . S
H354 C328 0.977 . S
H355 C329 0.979 . S
H356 C329 0.980 . S
H357 C329 0.983 . S
H358 C302 0.947 . S
C359 C302 1.392 . S
C359 C303 1.419 . S
C359 H341 0.948 . S
C360 C361 1.391 . S
C360 C364 1.391 . S
C360 H402 0.948 . S
C361 C360 1.391 . S
C361 C362 1.391 . S
C362 C361 1.391 . S
C362 H418 0.947 . S
C362 C419 1.392 . S
C363 C364 1.391 . S
C363 C367 1.397 . S
C363 C419 1.419 . S
C364 C360 1.391 . S
C364 C363 1.391 . S
C364 C365 1.399 . S
C365 C364 1.399 . S
C365 C368 1.396 . S
C365 C377 1.453 . S
C365 C378 1.684 . S
H366 C390 0.948 . S
C367 C363 1.397 . S
C367 C368 1.394 . S
C367 C386 1.723 . S
C368 C365 1.396 . S
C368 C367 1.394 . S
C368 C398 1.723 . S
H369 C392 0.947 . S
H370 C393 0.948 . S
H371 C399 0.982 . S
H372 C400 0.979 . S
H373 C400 0.980 . S
H374 C400 0.983 . S
H375 C399 0.979 . S
H376 C399 0.977 . S
C377 C365 1.453 . S
C377 H406 0.982 . S
C377 H407 0.979 . S
C377 H408 0.977 . S
C378 C365 1.684 . S
C378 H403 0.979 . S
C378 H404 0.980 . S
C378 H405 0.983 . S
C379 C380 1.391 . S
C379 C384 1.391 . S
C379 H409 0.948 . S
C380 C379 1.391 . S
C380 C381 1.391 . S
C381 C380 1.391 . S
C381 C382 1.392 . S
C381 H410 0.947 . S
C382 C381 1.392 . S
C382 C383 1.419 . S
C382 H411 0.948 . S
C383 C382 1.419 . S
C383 C384 1.391 . S
C383 C387 1.397 . S
C384 C379 1.391 . S
C384 C383 1.391 . S
C384 C385 1.399 . S
C385 C384 1.399 . S
C385 C386 1.396 . S
C385 C388 1.453 . S
C385 C389 1.684 . S
C386 C367 1.723 . S
C386 C385 1.396 . S
C386 C387 1.394 . S
C387 C383 1.397 . S
C387 C386 1.394 . S
C387 C397 1.723 . S
C388 C385 1.453 . S
C388 H412 0.982 . S
C388 H413 0.979 . S
C388 H414 0.977 . S
C389 C385 1.684 . S
C389 H415 0.979 . S
C389 H416 0.980 . S
C389 H417 0.983 . S
C390 H366 0.948 . S
C390 C391 1.391 . S
C390 C395 1.391 . S
C391 C390 1.391 . S
C391 C392 1.391 . S
C392 H369 0.947 . S
C392 C391 1.391 . S
C392 C393 1.392 . S
C393 H370 0.948 . S
C393 C392 1.392 . S
C393 C394 1.419 . S
C394 C393 1.419 . S
C394 C395 1.391 . S
C394 C398 1.397 . S
C395 C390 1.391 . S
C395 C394 1.391 . S
C395 C396 1.399 . S
C396 C395 1.399 . S
C396 C397 1.396 . S
C396 C399 1.453 . S
C396 C400 1.684 . S
C397 C387 1.723 . S
C397 C396 1.396 . S
C397 C398 1.394 . S
C398 C368 1.723 . S
C398 C394 1.397 . S
C398 C397 1.394 . S
C399 H371 0.982 . S
C399 H375 0.979 . S
C399 H376 0.977 . S
C399 C396 1.453 . S
C400 H372 0.979 . S
C400 H373 0.980 . S
C400 H374 0.983 . S
C400 C396 1.684 . S
H401 C419 0.948 . S
H402 C360 0.948 . S
H403 C378 0.979 . S
H404 C378 0.980 . S
H405 C378 0.983 . S
H406 C377 0.982 . S
H407 C377 0.979 . S
H408 C377 0.977 . S
H409 C379 0.948 . S
H410 C381 0.947 . S
H411 C382 0.948 . S
H412 C388 0.982 . S
H413 C388 0.979 . S
H414 C388 0.977 . S
H415 C389 0.979 . S
H416 C389 0.980 . S
H417 C389 0.983 . S
H418 C362 0.947 . S
C419 C362 1.392 . S
C419 C363 1.419 . S
C419 H401 0.948 . S
C420 C421 1.391 . S
C420 C424 1.391 . S
C420 H462 0.948 . S
C421 C420 1.391 . S
C421 C422 1.391 . S
C422 C421 1.391 . S
C422 H478 0.947 . S
C422 C479 1.392 . S
C423 C424 1.391 . S
C423 C427 1.397 . S
C423 C479 1.419 . S
C424 C420 1.391 . S
C424 C423 1.391 . S
C424 C425 1.399 . S
C425 C424 1.399 . S
C425 C428 1.396 . S
C425 C437 1.453 . S
C425 C438 1.684 . S
H426 C450 0.948 . S
C427 C423 1.397 . S
C427 C428 1.394 . S
C427 C446 1.723 . S
C428 C425 1.396 . S
C428 C427 1.394 . S
C428 C458 1.723 . S
H429 C452 0.947 . S
H430 C453 0.948 . S
H431 C459 0.982 . S
H432 C460 0.979 . S
H433 C460 0.980 . S
H434 C460 0.983 . S
H435 C459 0.979 . S
H436 C459 0.977 . S
C437 C425 1.453 . S
C437 H466 0.982 . S
C437 H467 0.979 . S
C437 H468 0.977 . S
C438 C425 1.684 . S
C438 H463 0.979 . S
C438 H464 0.980 . S
C438 H465 0.983 . S
C439 C440 1.391 . S
C439 C444 1.391 . S
C439 H469 0.948 . S
C440 C439 1.391 . S
C440 C441 1.391 . S
C441 C440 1.391 . S
C441 C442 1.392 . S
C441 H470 0.947 . S
C442 C441 1.392 . S
C442 C443 1.419 . S
C442 H471 0.948 . S
C443 C442 1.419 . S
C443 C444 1.391 . S
C443 C447 1.397 . S
C444 C439 1.391 . S
C444 C443 1.391 . S
C444 C445 1.399 . S
C445 C444 1.399 . S
C445 C446 1.396 . S
C445 C448 1.453 . S
C445 C449 1.684 . S
C446 C427 1.723 . S
C446 C445 1.396 . S
C446 C447 1.394 . S
C447 C443 1.397 . S
C447 C446 1.394 . S
C447 C457 1.723 . S
C448 C445 1.453 . S
C448 H472 0.982 . S
C448 H473 0.979 . S
C448 H474 0.977 . S
C449 C445 1.684 . S
C449 H475 0.979 . S
C449 H476 0.980 . S
C449 H477 0.983 . S
C450 H426 0.948 . S
C450 C451 1.391 . S
C450 C455 1.391 . S
C451 C450 1.391 . S
C451 C452 1.391 . S
C452 H429 0.947 . S
C452 C451 1.391 . S
C452 C453 1.392 . S
C453 H430 0.948 . S
C453 C452 1.392 . S
C453 C454 1.419 . S
C454 C453 1.419 . S
C454 C455 1.391 . S
C454 C458 1.397 . S
C455 C450 1.391 . S
C455 C454 1.391 . S
C455 C456 1.399 . S
C456 C455 1.399 . S
C456 C457 1.396 . S
C456 C459 1.453 . S
C456 C460 1.684 . S
C457 C447 1.723 . S
C457 C456 1.396 . S
C457 C458 1.394 . S
C458 C428 1.723 . S
C458 C454 1.397 . S
C458 C457 1.394 . S
C459 H431 0.982 . S
C459 H435 0.979 . S
C459 H436 0.977 . S
C459 C456 1.453 . S
C460 H432 0.979 . S
C460 H433 0.980 . S
C460 H434 0.983 . S
C460 C456 1.684 . S
H461 C479 0.948 . S
H462 C420 0.948 . S
H463 C438 0.979 . S
H464 C438 0.980 . S
H465 C438 0.983 . S
H466 C437 0.982 . S
H467 C437 0.979 . S
H468 C437 0.977 . S
H469 C439 0.948 . S
H470 C441 0.947 . S
H471 C442 0.948 . S
H472 C448 0.982 . S
H473 C448 0.979 . S
H474 C448 0.977 . S
H475 C449 0.979 . S
H476 C449 0.980 . S
H477 C449 0.983 . S
H478 C422 0.947 . S
C479 C422 1.392 . S
C479 C423 1.419 . S
C479 H461 0.948 . S
Co480 O483 2.042 . S
Co480 O490 2.264 . S
Co480 O509 2.286 . S
Co480 O510 2.069 . S
Co480 O512 2.015 . S
Co481 O483 2.122 . S
Co481 O489 2.073 . S
Co481 O490 2.327 . S
Co481 O491 1.976 . S
Co482 O483 2.111 . S
Co482 O485 2.063 1_455 S
Co482 O492 2.124 . S
Co482 O493 2.127 1_455 S
Co482 O497 2.099 1_455 S
Co482 O511 2.161 . S
O483 Co480 2.042 . S
O483 Co481 2.122 . S
O483 Co482 2.111 . S
O483 H484 0.980 . S
H484 O483 0.980 . S
O485 Co482 2.063 1_655 S
O485 Co486 2.042 . S
O485 Co487 2.122 . S
O485 H488 0.980 . S
Co486 O485 2.042 . S
Co486 O494 2.286 . S
Co486 O495 2.069 . S
Co486 O496 2.015 . S
Co486 O499 2.264 . S
Co487 O485 2.122 . S
Co487 O498 1.976 . S
Co487 O499 2.327 . S
Co487 O500 2.073 . S
H488 O485 0.980 . S
O489 Co481 2.073 . S
O489 C504 1.245 . S
O490 Co480 2.264 . S
O490 Co481 2.327 . S
O490 C504 1.257 . S
O491 Co481 1.976 . S
O491 C503 1.251 . S
O492 Co482 2.124 . S
O492 C503 1.274 . S
O493 Co482 2.127 1_655 S
O493 C506 1.246 . S
O494 Co486 2.286 . S
O494 C505 1.259 . S
O495 Co486 2.069 . S
O495 C505 1.289 . S
O496 Co486 2.015 . S
O496 C506 1.257 . S
O497 Co482 2.099 1_655 S
O497 C507 1.274 . S
O498 Co487 1.976 . S
O498 C507 1.251 . S
O499 Co486 2.264 . S
O499 Co487 2.327 . S
O499 C508 1.257 . S
O500 Co487 2.073 . S
O500 C508 1.245 . S
C501 O509 1.259 . S
C501 O510 1.289 . S
C502 O511 1.246 . S
C502 O512 1.257 . S
C503 O491 1.251 . S
C503 O492 1.274 . S
C504 O489 1.245 . S
C504 O490 1.257 . S
C505 O494 1.259 . S
C505 O495 1.289 . S
C506 O493 1.246 . S
C506 O496 1.257 . S
C507 O497 1.274 . S
C507 O498 1.251 . S
C508 O499 1.257 . S
C508 O500 1.245 . S
O509 Co480 2.286 . S
O509 C501 1.259 . S
O510 Co480 2.069 . S
O510 C501 1.289 . S
O511 Co482 2.161 . S
O511 C502 1.246 . S
O512 Co480 2.015 . S
O512 C502 1.257 . S
Co513 O516 2.042 . S
Co513 O523 2.264 . S
Co513 O542 2.286 . S
Co513 O543 2.069 . S
Co513 O545 2.015 . S
Co514 O516 2.122 . S
Co514 O522 2.073 . S
Co514 O523 2.327 . S
Co514 O524 1.976 . S
Co515 O516 2.064 1_545 S
Co515 O518 2.110 . S
Co515 O525 2.101 1_545 S
Co515 O526 2.160 . S
Co515 O530 2.122 . S
Co515 O544 2.127 1_545 S
O516 Co513 2.042 . S
O516 Co514 2.122 . S
O516 Co515 2.064 1_565 S
O516 H517 0.980 . S
H517 O516 0.980 . S
O518 Co515 2.110 . S
O518 Co519 2.042 . S
O518 Co520 2.122 . S
O518 H521 0.980 . S
Co519 O518 2.042 . S
Co519 O527 2.286 . S
Co519 O528 2.069 . S
Co519 O529 2.015 . S
Co519 O532 2.264 . S
Co520 O518 2.122 . S
Co520 O531 1.976 . S
Co520 O532 2.327 . S
Co520 O533 2.073 . S
H521 O518 0.980 . S
O522 Co514 2.073 . S
O522 C537 1.245 . S
O523 Co513 2.264 . S
O523 Co514 2.327 . S
O523 C537 1.257 . S
O524 Co514 1.976 . S
O524 C536 1.251 . S
O525 Co515 2.101 1_565 S
O525 C536 1.274 . S
O526 Co515 2.160 . S
O526 C539 1.246 . S
O527 Co519 2.286 . S
O527 C538 1.259 . S
O528 Co519 2.069 . S
O528 C538 1.289 . S
O529 Co519 2.015 . S
O529 C539 1.257 . S
O530 Co515 2.122 . S
O530 C540 1.274 . S
O531 Co520 1.976 . S
O531 C540 1.251 . S
O532 Co519 2.264 . S
O532 Co520 2.327 . S
O532 C541 1.257 . S
O533 Co520 2.073 . S
O533 C541 1.245 . S
C534 O542 1.259 . S
C534 O543 1.289 . S
C535 O544 1.246 . S
C535 O545 1.257 . S
C536 O524 1.251 . S
C536 O525 1.274 . S
C537 O522 1.245 . S
C537 O523 1.257 . S
C538 O527 1.259 . S
C538 O528 1.289 . S
C539 O526 1.246 . S
C539 O529 1.257 . S
C540 O530 1.274 . S
C540 O531 1.251 . S
C541 O532 1.257 . S
C541 O533 1.245 . S
O542 Co513 2.286 . S
O542 C534 1.259 . S
O543 Co513 2.069 . S
O543 C534 1.289 . S
O544 Co515 2.127 1_565 S
O544 C535 1.246 . S
O545 Co513 2.015 . S
O545 C535 1.257 . S
Co546 O549 2.042 . S
Co546 O556 2.264 . S
Co546 O575 2.286 . S
Co546 O576 2.069 . S
Co546 O578 2.015 . S
Co547 O549 2.122 . S
Co547 O555 2.073 . S
Co547 O556 2.327 . S
Co547 O557 1.976 . S
Co548 O549 2.096 . S
Co548 O551 2.078 1_554 S
Co548 O558 2.115 . S
Co548 O559 2.137 1_554 S
Co548 O563 2.107 1_554 S
Co548 O577 2.150 . S
O549 Co546 2.042 . S
O549 Co547 2.122 . S
O549 Co548 2.096 . S
O549 H550 0.980 . S
H550 O549 0.980 . S
O551 Co548 2.078 1_556 S
O551 Co552 2.042 . S
O551 Co553 2.122 . S
O551 H554 0.980 . S
Co552 O551 2.042 . S
Co552 O560 2.286 . S
Co552 O561 2.069 . S
Co552 O562 2.015 . S
Co552 O565 2.264 . S
Co553 O551 2.122 . S
Co553 O564 1.976 . S
Co553 O565 2.327 . S
Co553 O566 2.073 . S
H554 O551 0.980 . S
O555 Co547 2.073 . S
O555 C570 1.245 . S
O556 Co546 2.264 . S
O556 Co547 2.327 . S
O556 C570 1.257 . S
O557 Co547 1.976 . S
O557 C569 1.251 . S
O558 Co548 2.115 . S
O558 C569 1.274 . S
O559 Co548 2.137 1_556 S
O559 C572 1.246 . S
O560 Co552 2.286 . S
O560 C571 1.259 . S
O561 Co552 2.069 . S
O561 C571 1.289 . S
O562 Co552 2.015 . S
O562 C572 1.257 . S
O563 Co548 2.107 1_556 S
O563 C573 1.274 . S
O564 Co553 1.976 . S
O564 C573 1.251 . S
O565 Co552 2.264 . S
O565 Co553 2.327 . S
O565 C574 1.257 . S
O566 Co553 2.073 . S
O566 C574 1.245 . S
C567 O575 1.259 . S
C567 O576 1.289 . S
C568 O577 1.246 . S
C568 O578 1.257 . S
C569 O557 1.251 . S
C569 O558 1.274 . S
C570 O555 1.245 . S
C570 O556 1.257 . S
C571 O560 1.259 . S
C571 O561 1.289 . S
C572 O559 1.246 . S
C572 O562 1.257 . S
C573 O563 1.274 . S
C573 O564 1.251 . S
C574 O565 1.257 . S
C574 O566 1.245 . S
O575 Co546 2.286 . S
O575 C567 1.259 . S
O576 Co546 2.069 . S
O576 C567 1.289 . S
O577 Co548 2.150 . S
O577 C568 1.246 . S
O578 Co546 2.015 . S
O578 C568 1.257 . S
H579 C591 0.930 . S
H580 C593 0.930 . S
H581 C594 0.930 . S
H582 C598 0.959 . S
H583 C598 0.959 . S
H584 C598 0.961 . S
H585 C599 0.960 . S
H586 C599 0.961 . S
H587 C599 0.959 . S
H588 C602 0.929 . S
H589 C603 0.931 . S
H590 C605 0.930 . S
C591 H579 0.930 . S
C591 C592 1.399 . S
C591 C596 1.399 . S
C592 C591 1.399 . S
C592 C593 1.376 . S
C593 H580 0.930 . S
C593 C592 1.376 . S
C593 C594 1.388 . S
C594 H581 0.930 . S
C594 C593 1.388 . S
C594 C595 1.390 . S
C595 C594 1.390 . S
C595 C596 1.394 . S
C595 C601 1.465 . S
C596 C591 1.399 . S
C596 C595 1.394 . S
C596 C597 1.516 . S
C597 C596 1.516 . S
C597 C598 1.502 . S
C597 C599 1.561 . S
C597 C600 1.526 . S
C598 H582 0.959 . S
C598 H583 0.959 . S
C598 H584 0.961 . S
C598 C597 1.502 . S
C599 H585 0.960 . S
C599 H586 0.961 . S
C599 H587 0.959 . S
C599 C597 1.561 . S
C600 C597 1.526 . S
C600 C601 1.396 . S
C600 C605 1.390 . S
C601 C595 1.465 . S
C601 C600 1.396 . S
C601 C602 1.399 . S
C602 H588 0.929 . S
C602 C601 1.399 . S
C602 C603 1.385 . S
C603 H589 0.931 . S
C603 C602 1.385 . S
C603 C604 1.389 . S
C604 C603 1.389 . S
C604 C605 1.387 . S
C605 H590 0.930 . S
C605 C600 1.390 . S
C605 C604 1.387 . S
H606 C618 0.930 . S
H607 C620 0.930 . S
H608 C621 0.930 . S
H609 C625 0.959 . S
H610 C625 0.959 . S
H611 C625 0.961 . S
H612 C626 0.960 . S
H613 C626 0.961 . S
H614 C626 0.959 . S
H615 C629 0.929 . S
H616 C630 0.931 . S
H617 C632 0.930 . S
C618 H606 0.930 . S
C618 C619 1.399 . S
C618 C623 1.399 . S
C619 C618 1.399 . S
C619 C620 1.376 . S
C620 H607 0.930 . S
C620 C619 1.376 . S
C620 C621 1.388 . S
C621 H608 0.930 . S
C621 C620 1.388 . S
C621 C622 1.390 . S
C622 C621 1.390 . S
C622 C623 1.394 . S
C622 C628 1.465 . S
C623 C618 1.399 . S
C623 C622 1.394 . S
C623 C624 1.516 . S
C624 C623 1.516 . S
C624 C625 1.502 . S
C624 C626 1.561 . S
C624 C627 1.526 . S
C625 H609 0.959 . S
C625 H610 0.959 . S
C625 H611 0.961 . S
C625 C624 1.502 . S
C626 H612 0.960 . S
C626 H613 0.961 . S
C626 H614 0.959 . S
C626 C624 1.561 . S
C627 C624 1.526 . S
C627 C628 1.396 . S
C627 C632 1.390 . S
C628 C622 1.465 . S
C628 C627 1.396 . S
C628 C629 1.399 . S
C629 H615 0.929 . S
C629 C628 1.399 . S
C629 C630 1.385 . S
C630 H616 0.931 . S
C630 C629 1.385 . S
C630 C631 1.389 . S
C631 C630 1.389 . S
C631 C632 1.387 . S
C632 H617 0.930 . S
C632 C627 1.390 . S
C632 C631 1.387 . S
H633 C645 0.930 . S
H634 C647 0.930 . S
H635 C648 0.930 . S
H636 C652 0.959 . S
H637 C652 0.959 . S
H638 C652 0.961 . S
H639 C653 0.960 . S
H640 C653 0.961 . S
H641 C653 0.959 . S
H642 C656 0.929 . S
H643 C657 0.931 . S
H644 C659 0.930 . S
C645 H633 0.930 . S
C645 C646 1.399 . S
C645 C650 1.399 . S
C646 C645 1.399 . S
C646 C647 1.376 . S
C647 H634 0.930 . S
C647 C646 1.376 . S
C647 C648 1.388 . S
C648 H635 0.930 . S
C648 C647 1.388 . S
C648 C649 1.390 . S
C649 C648 1.390 . S
C649 C650 1.394 . S
C649 C655 1.465 . S
C650 C645 1.399 . S
C650 C649 1.394 . S
C650 C651 1.516 . S
C651 C650 1.516 . S
C651 C652 1.502 . S
C651 C653 1.561 . S
C651 C654 1.526 . S
C652 H636 0.959 . S
C652 H637 0.959 . S
C652 H638 0.961 . S
C652 C651 1.502 . S
C653 H639 0.960 . S
C653 H640 0.961 . S
C653 H641 0.959 . S
C653 C651 1.561 . S
C654 C651 1.526 . S
C654 C655 1.396 . S
C654 C659 1.390 . S
C655 C649 1.465 . S
C655 C654 1.396 . S
C655 C656 1.399 . S
C656 H642 0.929 . S
C656 C655 1.399 . S
C656 C657 1.385 . S
C657 H643 0.931 . S
C657 C656 1.385 . S
C657 C658 1.389 . S
C658 C657 1.389 . S
C658 C659 1.387 . S
C659 H644 0.930 . S
C659 C654 1.390 . S
C659 C658 1.387 . S
H660 C672 0.930 . S
H661 C674 0.930 . S
H662 C675 0.930 . S
H663 C679 0.959 . S
H664 C679 0.959 . S
H665 C679 0.961 . S
H666 C680 0.960 . S
H667 C680 0.961 . S
H668 C680 0.959 . S
H669 C683 0.929 . S
H670 C684 0.931 . S
H671 C686 0.930 . S
C672 H660 0.930 . S
C672 C673 1.399 . S
C672 C677 1.399 . S
C673 C672 1.399 . S
C673 C674 1.376 . S
C674 H661 0.930 . S
C674 C673 1.376 . S
C674 C675 1.388 . S
C675 H662 0.930 . S
C675 C674 1.388 . S
C675 C676 1.390 . S
C676 C675 1.390 . S
C676 C677 1.394 . S
C676 C682 1.465 . S
C677 C672 1.399 . S
C677 C676 1.394 . S
C677 C678 1.516 . S
C678 C677 1.516 . S
C678 C679 1.502 . S
C678 C680 1.561 . S
C678 C681 1.526 . S
C679 H663 0.959 . S
C679 H664 0.959 . S
C679 H665 0.961 . S
C679 C678 1.502 . S
C680 H666 0.960 . S
C680 H667 0.961 . S
C680 H668 0.959 . S
C680 C678 1.561 . S
C681 C678 1.526 . S
C681 C682 1.396 . S
C681 C686 1.390 . S
C682 C676 1.465 . S
C682 C681 1.396 . S
C682 C683 1.399 . S
C683 H669 0.929 . S
C683 C682 1.399 . S
C683 C684 1.385 . S
C684 H670 0.931 . S
C684 C683 1.385 . S
C684 C685 1.389 . S
C685 C684 1.389 . S
C685 C686 1.387 . S
C686 H671 0.930 . S
C686 C681 1.390 . S
C686 C685 1.387 . S
H687 C699 0.930 . S
H688 C701 0.930 . S
H689 C702 0.930 . S
H690 C706 0.959 . S
H691 C706 0.959 . S
H692 C706 0.961 . S
H693 C707 0.960 . S
H694 C707 0.961 . S
H695 C707 0.959 . S
H696 C710 0.929 . S
H697 C711 0.931 . S
H698 C713 0.930 . S
C699 H687 0.930 . S
C699 C700 1.399 . S
C699 C704 1.399 . S
C700 C699 1.399 . S
C700 C701 1.376 . S
C701 H688 0.930 . S
C701 C700 1.376 . S
C701 C702 1.388 . S
C702 H689 0.930 . S
C702 C701 1.388 . S
C702 C703 1.390 . S
C703 C702 1.390 . S
C703 C704 1.394 . S
C703 C709 1.465 . S
C704 C699 1.399 . S
C704 C703 1.394 . S
C704 C705 1.516 . S
C705 C704 1.516 . S
C705 C706 1.502 . S
C705 C707 1.561 . S
C705 C708 1.526 . S
C706 H690 0.959 . S
C706 H691 0.959 . S
C706 H692 0.961 . S
C706 C705 1.502 . S
C707 H693 0.960 . S
C707 H694 0.961 . S
C707 H695 0.959 . S
C707 C705 1.561 . S
C708 C705 1.526 . S
C708 C709 1.396 . S
C708 C713 1.390 . S
C709 C703 1.465 . S
C709 C708 1.396 . S
C709 C710 1.399 . S
C710 H696 0.929 . S
C710 C709 1.399 . S
C710 C711 1.385 . S
C711 H697 0.931 . S
C711 C710 1.385 . S
C711 C712 1.389 . S
C712 C711 1.389 . S
C712 C713 1.387 . S
C713 H698 0.930 . S
C713 C708 1.390 . S
C713 C712 1.387 . S
H714 C726 0.930 . S
H715 C728 0.930 . S
H716 C729 0.930 . S
H717 C733 0.959 . S
H718 C733 0.959 . S
H719 C733 0.961 . S
H720 C734 0.960 . S
H721 C734 0.961 . S
H722 C734 0.959 . S
H723 C737 0.929 . S
H724 C738 0.931 . S
H725 C740 0.930 . S
C726 H714 0.930 . S
C726 C727 1.399 . S
C726 C731 1.399 . S
C727 C726 1.399 . S
C727 C728 1.376 . S
C728 H715 0.930 . S
C728 C727 1.376 . S
C728 C729 1.388 . S
C729 H716 0.930 . S
C729 C728 1.388 . S
C729 C730 1.390 . S
C730 C729 1.390 . S
C730 C731 1.394 . S
C730 C736 1.465 . S
C731 C726 1.399 . S
C731 C730 1.394 . S
C731 C732 1.516 . S
C732 C731 1.516 . S
C732 C733 1.502 . S
C732 C734 1.561 . S
C732 C735 1.526 . S
C733 H717 0.959 . S
C733 H718 0.959 . S
C733 H719 0.961 . S
C733 C732 1.502 . S
C734 H720 0.960 . S
C734 H721 0.961 . S
C734 H722 0.959 . S
C734 C732 1.561 . S
C735 C732 1.526 . S
C735 C736 1.396 . S
C735 C740 1.390 . S
C736 C730 1.465 . S
C736 C735 1.396 . S
C736 C737 1.399 . S
C737 H723 0.929 . S
C737 C736 1.399 . S
C737 C738 1.385 . S
C738 H724 0.931 . S
C738 C737 1.385 . S
C738 C739 1.389 . S
C739 C738 1.389 . S
C739 C740 1.387 . S
C740 H725 0.930 . S
C740 C735 1.390 . S
C740 C739 1.387 . S
H741 C753 0.930 . S
H742 C755 0.930 . S
H743 C756 0.930 . S
H744 C760 0.959 . S
H745 C760 0.959 . S
H746 C760 0.961 . S
H747 C761 0.960 . S
H748 C761 0.961 . S
H749 C761 0.959 . S
H750 C764 0.929 . S
H751 C765 0.931 . S
H752 C767 0.930 . S
C753 H741 0.930 . S
C753 C754 1.399 . S
C753 C758 1.399 . S
C754 C753 1.399 . S
C754 C755 1.376 . S
C755 H742 0.930 . S
C755 C754 1.376 . S
C755 C756 1.388 . S
C756 H743 0.930 . S
C756 C755 1.388 . S
C756 C757 1.390 . S
C757 C756 1.390 . S
C757 C758 1.394 . S
C757 C763 1.465 . S
C758 C753 1.399 . S
C758 C757 1.394 . S
C758 C759 1.516 . S
C759 C758 1.516 . S
C759 C760 1.502 . S
C759 C761 1.561 . S
C759 C762 1.526 . S
C760 H744 0.959 . S
C760 H745 0.959 . S
C760 H746 0.961 . S
C760 C759 1.502 . S
C761 H747 0.960 . S
C761 H748 0.961 . S
C761 H749 0.959 . S
C761 C759 1.561 . S
C762 C759 1.526 . S
C762 C763 1.396 . S
C762 C767 1.390 . S
C763 C757 1.465 . S
C763 C762 1.396 . S
C763 C764 1.399 . S
C764 H750 0.929 . S
C764 C763 1.399 . S
C764 C765 1.385 . S
C765 H751 0.931 . S
C765 C764 1.385 . S
C765 C766 1.389 . S
C766 C765 1.389 . S
C766 C767 1.387 . S
C767 H752 0.930 . S
C767 C762 1.390 . S
C767 C766 1.387 . S
H768 C780 0.930 . S
H769 C782 0.930 . S
H770 C783 0.930 . S
H771 C787 0.959 . S
H772 C787 0.959 . S
H773 C787 0.961 . S
H774 C788 0.960 . S
H775 C788 0.961 . S
H776 C788 0.959 . S
H777 C791 0.929 . S
H778 C792 0.931 . S
H779 C794 0.930 . S
C780 H768 0.930 . S
C780 C781 1.399 . S
C780 C785 1.399 . S
C781 C780 1.399 . S
C781 C782 1.376 . S
C782 H769 0.930 . S
C782 C781 1.376 . S
C782 C783 1.388 . S
C783 H770 0.930 . S
C783 C782 1.388 . S
C783 C784 1.390 . S
C784 C783 1.390 . S
C784 C785 1.394 . S
C784 C790 1.465 . S
C785 C780 1.399 . S
C785 C784 1.394 . S
C785 C786 1.516 . S
C786 C785 1.516 . S
C786 C787 1.502 . S
C786 C788 1.561 . S
C786 C789 1.526 . S
C787 H771 0.959 . S
C787 H772 0.959 . S
C787 H773 0.961 . S
C787 C786 1.502 . S
C788 H774 0.960 . S
C788 H775 0.961 . S
C788 H776 0.959 . S
C788 C786 1.561 . S
C789 C786 1.526 . S
C789 C790 1.396 . S
C789 C794 1.390 . S
C790 C784 1.465 . S
C790 C789 1.396 . S
C790 C791 1.399 . S
C791 H777 0.929 . S
C791 C790 1.399 . S
C791 C792 1.385 . S
C792 H778 0.931 . S
C792 C791 1.385 . S
C792 C793 1.389 . S
C793 C792 1.389 . S
C793 C794 1.387 . S
C794 H779 0.930 . S
C794 C789 1.390 . S
C794 C793 1.387 . S
H795 C807 0.930 . S
H796 C809 0.930 . S
H797 C810 0.930 . S
H798 C814 0.959 . S
H799 C814 0.959 . S
H800 C814 0.961 . S
H801 C815 0.960 . S
H802 C815 0.961 . S
H803 C815 0.959 . S
H804 C818 0.929 . S
H805 C819 0.931 . S
H806 C821 0.930 . S
C807 H795 0.930 . S
C807 C808 1.399 . S
C807 C812 1.399 . S
C808 C807 1.399 . S
C808 C809 1.376 . S
C809 H796 0.930 . S
C809 C808 1.376 . S
C809 C810 1.388 . S
C810 H797 0.930 . S
C810 C809 1.388 . S
C810 C811 1.390 . S
C811 C810 1.390 . S
C811 C812 1.394 . S
C811 C817 1.465 . S
C812 C807 1.399 . S
C812 C811 1.394 . S
C812 C813 1.516 . S
C813 C812 1.516 . S
C813 C814 1.502 . S
C813 C815 1.561 . S
C813 C816 1.526 . S
C814 H798 0.959 . S
C814 H799 0.959 . S
C814 H800 0.961 . S
C814 C813 1.502 . S
C815 H801 0.960 . S
C815 H802 0.961 . S
C815 H803 0.959 . S
C815 C813 1.561 . S
C816 C813 1.526 . S
C816 C817 1.396 . S
C816 C821 1.390 . S
C817 C811 1.465 . S
C817 C816 1.396 . S
C817 C818 1.399 . S
C818 H804 0.929 . S
C818 C817 1.399 . S
C818 C819 1.385 . S
C819 H805 0.931 . S
C819 C818 1.385 . S
C819 C820 1.389 . S
C820 C819 1.389 . S
C820 C821 1.387 . S
C821 H806 0.930 . S
C821 C816 1.390 . S
C821 C820 1.387 . S
H822 C834 0.930 . S
H823 C836 0.930 . S
H824 C837 0.930 . S
H825 C841 0.959 . S
H826 C841 0.959 . S
H827 C841 0.961 . S
H828 C842 0.960 . S
H829 C842 0.961 . S
H830 C842 0.959 . S
H831 C845 0.929 . S
H832 C846 0.931 . S
H833 C848 0.930 . S
C834 H822 0.930 . S
C834 C835 1.399 . S
C834 C839 1.399 . S
C835 C834 1.399 . S
C835 C836 1.376 . S
C836 H823 0.930 . S
C836 C835 1.376 . S
C836 C837 1.388 . S
C837 H824 0.930 . S
C837 C836 1.388 . S
C837 C838 1.390 . S
C838 C837 1.390 . S
C838 C839 1.394 . S
C838 C844 1.465 . S
C839 C834 1.399 . S
C839 C838 1.394 . S
C839 C840 1.516 . S
C840 C839 1.516 . S
C840 C841 1.502 . S
C840 C842 1.561 . S
C840 C843 1.526 . S
C841 H825 0.959 . S
C841 H826 0.959 . S
C841 H827 0.961 . S
C841 C840 1.502 . S
C842 H828 0.960 . S
C842 H829 0.961 . S
C842 H830 0.959 . S
C842 C840 1.561 . S
C843 C840 1.526 . S
C843 C844 1.396 . S
C843 C848 1.390 . S
C844 C838 1.465 . S
C844 C843 1.396 . S
C844 C845 1.399 . S
C845 H831 0.929 . S
C845 C844 1.399 . S
C845 C846 1.385 . S
C846 H832 0.931 . S
C846 C845 1.385 . S
C846 C847 1.389 . S
C847 C846 1.389 . S
C847 C848 1.387 . S
C848 H833 0.930 . S
C848 C843 1.390 . S
C848 C847 1.387 . S
H849 C861 0.930 . S
H850 C863 0.930 . S
H851 C864 0.930 . S
H852 C868 0.959 . S
H853 C868 0.959 . S
H854 C868 0.961 . S
H855 C869 0.960 . S
H856 C869 0.961 . S
H857 C869 0.959 . S
H858 C872 0.929 . S
H859 C873 0.931 . S
H860 C875 0.930 . S
C861 H849 0.930 . S
C861 C862 1.399 . S
C861 C866 1.399 . S
C862 C861 1.399 . S
C862 C863 1.376 . S
C863 H850 0.930 . S
C863 C862 1.376 . S
C863 C864 1.388 . S
C864 H851 0.930 . S
C864 C863 1.388 . S
C864 C865 1.390 . S
C865 C864 1.390 . S
C865 C866 1.394 . S
C865 C871 1.465 . S
C866 C861 1.399 . S
C866 C865 1.394 . S
C866 C867 1.516 . S
C867 C866 1.516 . S
C867 C868 1.502 . S
C867 C869 1.561 . S
C867 C870 1.526 . S
C868 H852 0.959 . S
C868 H853 0.959 . S
C868 H854 0.961 . S
C868 C867 1.502 . S
C869 H855 0.960 . S
C869 H856 0.961 . S
C869 H857 0.959 . S
C869 C867 1.561 . S
C870 C867 1.526 . S
C870 C871 1.396 . S
C870 C875 1.390 . S
C871 C865 1.465 . S
C871 C870 1.396 . S
C871 C872 1.399 . S
C872 H858 0.929 . S
C872 C871 1.399 . S
C872 C873 1.385 . S
C873 H859 0.931 . S
C873 C872 1.385 . S
C873 C874 1.389 . S
C874 C873 1.389 . S
C874 C875 1.387 . S
C875 H860 0.930 . S
C875 C870 1.390 . S
C875 C874 1.387 . S
H876 C888 0.930 . S
H877 C890 0.930 . S
H878 C891 0.930 . S
H879 C895 0.959 . S
H880 C895 0.959 . S
H881 C895 0.961 . S
H882 C896 0.960 . S
H883 C896 0.961 . S
H884 C896 0.959 . S
H885 C899 0.929 . S
H886 C900 0.931 . S
H887 C902 0.930 . S
C888 H876 0.930 . S
C888 C889 1.399 . S
C888 C893 1.399 . S
C889 C888 1.399 . S
C889 C890 1.376 . S
C890 H877 0.930 . S
C890 C889 1.376 . S
C890 C891 1.388 . S
C891 H878 0.930 . S
C891 C890 1.388 . S
C891 C892 1.390 . S
C892 C891 1.390 . S
C892 C893 1.394 . S
C892 C898 1.465 . S
C893 C888 1.399 . S
C893 C892 1.394 . S
C893 C894 1.516 . S
C894 C893 1.516 . S
C894 C895 1.502 . S
C894 C896 1.561 . S
C894 C897 1.526 . S
C895 H879 0.959 . S
C895 H880 0.959 . S
C895 H881 0.961 . S
C895 C894 1.502 . S
C896 H882 0.960 . S
C896 H883 0.961 . S
C896 H884 0.959 . S
C896 C894 1.561 . S
C897 C894 1.526 . S
C897 C898 1.396 . S
C897 C902 1.390 . S
C898 C892 1.465 . S
C898 C897 1.396 . S
C898 C899 1.399 . S
C899 H885 0.929 . S
C899 C898 1.399 . S
C899 C900 1.385 . S
C900 H886 0.931 . S
C900 C899 1.385 . S
C900 C901 1.389 . S
C901 C900 1.389 . S
C901 C902 1.387 . S
C902 H887 0.930 . S
C902 C897 1.390 . S
C902 C901 1.387 . S
H903 C915 0.930 . S
H904 C917 0.930 . S
H905 C918 0.930 . S
H906 C922 0.959 . S
H907 C922 0.959 . S
H908 C922 0.961 . S
H909 C923 0.960 . S
H910 C923 0.961 . S
H911 C923 0.959 . S
H912 C926 0.929 . S
H913 C927 0.931 . S
H914 C929 0.930 . S
C915 H903 0.930 . S
C915 C916 1.399 . S
C915 C920 1.399 . S
C916 C915 1.399 . S
C916 C917 1.376 . S
C917 H904 0.930 . S
C917 C916 1.376 . S
C917 C918 1.388 . S
C918 H905 0.930 . S
C918 C917 1.388 . S
C918 C919 1.390 . S
C919 C918 1.390 . S
C919 C920 1.394 . S
C919 C925 1.465 . S
C920 C915 1.399 . S
C920 C919 1.394 . S
C920 C921 1.516 . S
C921 C920 1.516 . S
C921 C922 1.502 . S
C921 C923 1.561 . S
C921 C924 1.526 . S
C922 H906 0.959 . S
C922 H907 0.959 . S
C922 H908 0.961 . S
C922 C921 1.502 . S
C923 H909 0.960 . S
C923 H910 0.961 . S
C923 H911 0.959 . S
C923 C921 1.561 . S
C924 C921 1.526 . S
C924 C925 1.396 . S
C924 C929 1.390 . S
C925 C919 1.465 . S
C925 C924 1.396 . S
C925 C926 1.399 . S
C926 H912 0.929 . S
C926 C925 1.399 . S
C926 C927 1.385 . S
C927 H913 0.931 . S
C927 C926 1.385 . S
C927 C928 1.389 . S
C928 C927 1.389 . S
C928 C929 1.387 . S
C929 H914 0.930 . S
C929 C924 1.390 . S
C929 C928 1.387 . S
H930 C942 0.930 . S
H931 C944 0.930 . S
H932 C945 0.930 . S
H933 C949 0.959 . S
H934 C949 0.959 . S
H935 C949 0.961 . S
H936 C950 0.960 . S
H937 C950 0.961 . S
H938 C950 0.959 . S
H939 C953 0.929 . S
H940 C954 0.931 . S
H941 C956 0.930 . S
C942 H930 0.930 . S
C942 C943 1.399 . S
C942 C947 1.399 . S
C943 C942 1.399 . S
C943 C944 1.376 . S
C944 H931 0.930 . S
C944 C943 1.376 . S
C944 C945 1.388 . S
C945 H932 0.930 . S
C945 C944 1.388 . S
C945 C946 1.390 . S
C946 C945 1.390 . S
C946 C947 1.394 . S
C946 C952 1.465 . S
C947 C942 1.399 . S
C947 C946 1.394 . S
C947 C948 1.516 . S
C948 C947 1.516 . S
C948 C949 1.502 . S
C948 C950 1.561 . S
C948 C951 1.526 . S
C949 H933 0.959 . S
C949 H934 0.959 . S
C949 H935 0.961 . S
C949 C948 1.502 . S
C950 H936 0.960 . S
C950 H937 0.961 . S
C950 H938 0.959 . S
C950 C948 1.561 . S
C951 C948 1.526 . S
C951 C952 1.396 . S
C951 C956 1.390 . S
C952 C946 1.465 . S
C952 C951 1.396 . S
C952 C953 1.399 . S
C953 H939 0.929 . S
C953 C952 1.399 . S
C953 C954 1.385 . S
C954 H940 0.931 . S
C954 C953 1.385 . S
C954 C955 1.389 . S
C955 C954 1.389 . S
C955 C956 1.387 . S
C956 H941 0.930 . S
C956 C951 1.390 . S
C956 C955 1.387 . S
H957 C969 0.930 . S
H958 C971 0.930 . S
H959 C972 0.930 . S
H960 C976 0.959 . S
H961 C976 0.959 . S
H962 C976 0.961 . S
H963 C977 0.960 . S
H964 C977 0.961 . S
H965 C977 0.959 . S
H966 C980 0.929 . S
H967 C981 0.931 . S
H968 C983 0.930 . S
C969 H957 0.930 . S
C969 C970 1.399 . S
C969 C974 1.399 . S
C970 C969 1.399 . S
C970 C971 1.376 . S
C971 H958 0.930 . S
C971 C970 1.376 . S
C971 C972 1.388 . S
C972 H959 0.930 . S
C972 C971 1.388 . S
C972 C973 1.390 . S
C973 C972 1.390 . S
C973 C974 1.394 . S
C973 C979 1.465 . S
C974 C969 1.399 . S
C974 C973 1.394 . S
C974 C975 1.516 . S
C975 C974 1.516 . S
C975 C976 1.502 . S
C975 C977 1.561 . S
C975 C978 1.526 . S
C976 H960 0.959 . S
C976 H961 0.959 . S
C976 H962 0.961 . S
C976 C975 1.502 . S
C977 H963 0.960 . S
C977 H964 0.961 . S
C977 H965 0.959 . S
C977 C975 1.561 . S
C978 C975 1.526 . S
C978 C979 1.396 . S
C978 C983 1.390 . S
C979 C973 1.465 . S
C979 C978 1.396 . S
C979 C980 1.399 . S
C980 H966 0.929 . S
C980 C979 1.399 . S
C980 C981 1.385 . S
C981 H967 0.931 . S
C981 C980 1.385 . S
C981 C982 1.389 . S
C982 C981 1.389 . S
C982 C983 1.387 . S
C983 H968 0.930 . S
C983 C978 1.390 . S
C983 C982 1.387 . S
H984 C996 0.930 . S
H985 C998 0.930 . S
H986 C999 0.930 . S
H987 C1003 0.959 . S
H988 C1003 0.959 . S
H989 C1003 0.961 . S
H990 C1004 0.960 . S
H991 C1004 0.961 . S
H992 C1004 0.959 . S
H993 C1007 0.929 . S
H994 C1008 0.931 . S
H995 C1010 0.930 . S
C996 H984 0.930 . S
C996 C997 1.399 . S
C996 C1001 1.399 . S
C997 C996 1.399 . S
C997 C998 1.376 . S
C998 H985 0.930 . S
C998 C997 1.376 . S
C998 C999 1.388 . S
C999 H986 0.930 . S
C999 C998 1.388 . S
C999 C1000 1.390 . S
C1000 C999 1.390 . S
C1000 C1001 1.394 . S
C1000 C1006 1.465 . S
C1001 C996 1.399 . S
C1001 C1000 1.394 . S
C1001 C1002 1.516 . S
C1002 C1001 1.516 . S
C1002 C1003 1.502 . S
C1002 C1004 1.561 . S
C1002 C1005 1.526 . S
C1003 H987 0.959 . S
C1003 H988 0.959 . S
C1003 H989 0.961 . S
C1003 C1002 1.502 . S
C1004 H990 0.960 . S
C1004 H991 0.961 . S
C1004 H992 0.959 . S
C1004 C1002 1.561 . S
C1005 C1002 1.526 . S
C1005 C1006 1.396 . S
C1005 C1010 1.390 . S
C1006 C1000 1.465 . S
C1006 C1005 1.396 . S
C1006 C1007 1.399 . S
C1007 H993 0.929 . S
C1007 C1006 1.399 . S
C1007 C1008 1.385 . S
C1008 H994 0.931 . S
C1008 C1007 1.385 . S
C1008 C1009 1.389 . S
C1009 C1008 1.389 . S
C1009 C1010 1.387 . S
C1010 H995 0.930 . S
C1010 C1005 1.390 . S
C1010 C1009 1.387 . S
H1011 C1023 0.930 . S
H1012 C1025 0.930 . S
H1013 C1026 0.930 . S
H1014 C1030 0.959 . S
H1015 C1030 0.959 . S
H1016 C1030 0.961 . S
H1017 C1031 0.960 . S
H1018 C1031 0.961 . S
H1019 C1031 0.959 . S
H1020 C1034 0.929 . S
H1021 C1035 0.931 . S
H1022 C1037 0.930 . S
C1023 H1011 0.930 . S
C1023 C1024 1.399 . S
C1023 C1028 1.399 . S
C1024 C1023 1.399 . S
C1024 C1025 1.376 . S
C1025 H1012 0.930 . S
C1025 C1024 1.376 . S
C1025 C1026 1.388 . S
C1026 H1013 0.930 . S
C1026 C1025 1.388 . S
C1026 C1027 1.390 . S
C1027 C1026 1.390 . S
C1027 C1028 1.394 . S
C1027 C1033 1.465 . S
C1028 C1023 1.399 . S
C1028 C1027 1.394 . S
C1028 C1029 1.516 . S
C1029 C1028 1.516 . S
C1029 C1030 1.502 . S
C1029 C1031 1.561 . S
C1029 C1032 1.526 . S
C1030 H1014 0.959 . S
C1030 H1015 0.959 . S
C1030 H1016 0.961 . S
C1030 C1029 1.502 . S
C1031 H1017 0.960 . S
C1031 H1018 0.961 . S
C1031 H1019 0.959 . S
C1031 C1029 1.561 . S
C1032 C1029 1.526 . S
C1032 C1033 1.396 . S
C1032 C1037 1.390 . S
C1033 C1027 1.465 . S
C1033 C1032 1.396 . S
C1033 C1034 1.399 . S
C1034 H1020 0.929 . S
C1034 C1033 1.399 . S
C1034 C1035 1.385 . S
C1035 H1021 0.931 . S
C1035 C1034 1.385 . S
C1035 C1036 1.389 . S
C1036 C1035 1.389 . S
C1036 C1037 1.387 . S
C1037 H1022 0.930 . S
C1037 C1032 1.390 . S
C1037 C1036 1.387 . S
H1038 C1050 0.930 . S
H1039 C1052 0.930 . S
H1040 C1053 0.930 . S
H1041 C1057 0.959 . S
H1042 C1057 0.959 . S
H1043 C1057 0.961 . S
H1044 C1058 0.960 . S
H1045 C1058 0.961 . S
H1046 C1058 0.959 . S
H1047 C1061 0.929 . S
H1048 C1062 0.931 . S
H1049 C1064 0.930 . S
C1050 H1038 0.930 . S
C1050 C1051 1.399 . S
C1050 C1055 1.399 . S
C1051 C1050 1.399 . S
C1051 C1052 1.376 . S
C1052 H1039 0.930 . S
C1052 C1051 1.376 . S
C1052 C1053 1.388 . S
C1053 H1040 0.930 . S
C1053 C1052 1.388 . S
C1053 C1054 1.390 . S
C1054 C1053 1.390 . S
C1054 C1055 1.394 . S
C1054 C1060 1.465 . S
C1055 C1050 1.399 . S
C1055 C1054 1.394 . S
C1055 C1056 1.516 . S
C1056 C1055 1.516 . S
C1056 C1057 1.502 . S
C1056 C1058 1.561 . S
C1056 C1059 1.526 . S
C1057 H1041 0.959 . S
C1057 H1042 0.959 . S
C1057 H1043 0.961 . S
C1057 C1056 1.502 . S
C1058 H1044 0.960 . S
C1058 H1045 0.961 . S
C1058 H1046 0.959 . S
C1058 C1056 1.561 . S
C1059 C1056 1.526 . S
C1059 C1060 1.396 . S
C1059 C1064 1.390 . S
C1060 C1054 1.465 . S
C1060 C1059 1.396 . S
C1060 C1061 1.399 . S
C1061 H1047 0.929 . S
C1061 C1060 1.399 . S
C1061 C1062 1.385 . S
C1062 H1048 0.931 . S
C1062 C1061 1.385 . S
C1062 C1063 1.389 . S
C1063 C1062 1.389 . S
C1063 C1064 1.387 . S
C1064 H1049 0.930 . S
C1064 C1059 1.390 . S
C1064 C1063 1.387 . S
H1065 C1077 0.930 . S
H1066 C1079 0.930 . S
H1067 C1080 0.930 . S
H1068 C1084 0.959 . S
H1069 C1084 0.959 . S
H1070 C1084 0.961 . S
H1071 C1085 0.960 . S
H1072 C1085 0.961 . S
H1073 C1085 0.959 . S
H1074 C1088 0.929 . S
H1075 C1089 0.931 . S
H1076 C1091 0.930 . S
C1077 H1065 0.930 . S
C1077 C1078 1.399 . S
C1077 C1082 1.399 . S
C1078 C1077 1.399 . S
C1078 C1079 1.376 . S
C1079 H1066 0.930 . S
C1079 C1078 1.376 . S
C1079 C1080 1.388 . S
C1080 H1067 0.930 . S
C1080 C1079 1.388 . S
C1080 C1081 1.390 . S
C1081 C1080 1.390 . S
C1081 C1082 1.394 . S
C1081 C1087 1.465 . S
C1082 C1077 1.399 . S
C1082 C1081 1.394 . S
C1082 C1083 1.516 . S
C1083 C1082 1.516 . S
C1083 C1084 1.502 . S
C1083 C1085 1.561 . S
C1083 C1086 1.526 . S
C1084 H1068 0.959 . S
C1084 H1069 0.959 . S
C1084 H1070 0.961 . S
C1084 C1083 1.502 . S
C1085 H1071 0.960 . S
C1085 H1072 0.961 . S
C1085 H1073 0.959 . S
C1085 C1083 1.561 . S
C1086 C1083 1.526 . S
C1086 C1087 1.396 . S
C1086 C1091 1.390 . S
C1087 C1081 1.465 . S
C1087 C1086 1.396 . S
C1087 C1088 1.399 . S
C1088 H1074 0.929 . S
C1088 C1087 1.399 . S
C1088 C1089 1.385 . S
C1089 H1075 0.931 . S
C1089 C1088 1.385 . S
C1089 C1090 1.389 . S
C1090 C1089 1.389 . S
C1090 C1091 1.387 . S
C1091 H1076 0.930 . S
C1091 C1086 1.390 . S
C1091 C1090 1.387 . S
H1092 C1104 0.930 . S
H1093 C1106 0.930 . S
H1094 C1107 0.930 . S
H1095 C1111 0.959 . S
H1096 C1111 0.959 . S
H1097 C1111 0.961 . S
H1098 C1112 0.960 . S
H1099 C1112 0.961 . S
H1100 C1112 0.959 . S
H1101 C1115 0.929 . S
H1102 C1116 0.931 . S
H1103 C1118 0.930 . S
C1104 H1092 0.930 . S
C1104 C1105 1.399 . S
C1104 C1109 1.399 . S
C1105 C1104 1.399 . S
C1105 C1106 1.376 . S
C1106 H1093 0.930 . S
C1106 C1105 1.376 . S
C1106 C1107 1.388 . S
C1107 H1094 0.930 . S
C1107 C1106 1.388 . S
C1107 C1108 1.390 . S
C1108 C1107 1.390 . S
C1108 C1109 1.394 . S
C1108 C1114 1.465 . S
C1109 C1104 1.399 . S
C1109 C1108 1.394 . S
C1109 C1110 1.516 . S
C1110 C1109 1.516 . S
C1110 C1111 1.502 . S
C1110 C1112 1.561 . S
C1110 C1113 1.526 . S
C1111 H1095 0.959 . S
C1111 H1096 0.959 . S
C1111 H1097 0.961 . S
C1111 C1110 1.502 . S
C1112 H1098 0.960 . S
C1112 H1099 0.961 . S
C1112 H1100 0.959 . S
C1112 C1110 1.561 . S
C1113 C1110 1.526 . S
C1113 C1114 1.396 . S
C1113 C1118 1.390 . S
C1114 C1108 1.465 . S
C1114 C1113 1.396 . S
C1114 C1115 1.399 . S
C1115 H1101 0.929 . S
C1115 C1114 1.399 . S
C1115 C1116 1.385 . S
C1116 H1102 0.931 . S
C1116 C1115 1.385 . S
C1116 C1117 1.389 . S
C1117 C1116 1.389 . S
C1117 C1118 1.387 . S
C1118 H1103 0.930 . S
C1118 C1113 1.390 . S
C1118 C1117 1.387 . S
H1119 C1131 0.930 . S
H1120 C1133 0.930 . S
H1121 C1134 0.930 . S
H1122 C1138 0.959 . S
H1123 C1138 0.959 . S
H1124 C1138 0.961 . S
H1125 C1139 0.960 . S
H1126 C1139 0.961 . S
H1127 C1139 0.959 . S
H1128 C1142 0.929 . S
H1129 C1143 0.931 . S
H1130 C1145 0.930 . S
C1131 H1119 0.930 . S
C1131 C1132 1.399 . S
C1131 C1136 1.399 . S
C1132 C1131 1.399 . S
C1132 C1133 1.376 . S
C1133 H1120 0.930 . S
C1133 C1132 1.376 . S
C1133 C1134 1.388 . S
C1134 H1121 0.930 . S
C1134 C1133 1.388 . S
C1134 C1135 1.390 . S
C1135 C1134 1.390 . S
C1135 C1136 1.394 . S
C1135 C1141 1.465 . S
C1136 C1131 1.399 . S
C1136 C1135 1.394 . S
C1136 C1137 1.516 . S
C1137 C1136 1.516 . S
C1137 C1138 1.502 . S
C1137 C1139 1.561 . S
C1137 C1140 1.526 . S
C1138 H1122 0.959 . S
C1138 H1123 0.959 . S
C1138 H1124 0.961 . S
C1138 C1137 1.502 . S
C1139 H1125 0.960 . S
C1139 H1126 0.961 . S
C1139 H1127 0.959 . S
C1139 C1137 1.561 . S
C1140 C1137 1.526 . S
C1140 C1141 1.396 . S
C1140 C1145 1.390 . S
C1141 C1135 1.465 . S
C1141 C1140 1.396 . S
C1141 C1142 1.399 . S
C1142 H1128 0.929 . S
C1142 C1141 1.399 . S
C1142 C1143 1.385 . S
C1143 H1129 0.931 . S
C1143 C1142 1.385 . S
C1143 C1144 1.389 . S
C1144 C1143 1.389 . S
C1144 C1145 1.387 . S
C1145 H1130 0.930 . S
C1145 C1140 1.390 . S
C1145 C1144 1.387 . S
H1146 C1158 0.930 . S
H1147 C1160 0.930 . S
H1148 C1161 0.930 . S
H1149 C1165 0.959 . S
H1150 C1165 0.959 . S
H1151 C1165 0.961 . S
H1152 C1166 0.960 . S
H1153 C1166 0.961 . S
H1154 C1166 0.959 . S
H1155 C1169 0.929 . S
H1156 C1170 0.931 . S
H1157 C1172 0.930 . S
C1158 H1146 0.930 . S
C1158 C1159 1.399 . S
C1158 C1163 1.399 . S
C1159 C1158 1.399 . S
C1159 C1160 1.376 . S
C1160 H1147 0.930 . S
C1160 C1159 1.376 . S
C1160 C1161 1.388 . S
C1161 H1148 0.930 . S
C1161 C1160 1.388 . S
C1161 C1162 1.390 . S
C1162 C1161 1.390 . S
C1162 C1163 1.394 . S
C1162 C1168 1.465 . S
C1163 C1158 1.399 . S
C1163 C1162 1.394 . S
C1163 C1164 1.516 . S
C1164 C1163 1.516 . S
C1164 C1165 1.502 . S
C1164 C1166 1.561 . S
C1164 C1167 1.526 . S
C1165 H1149 0.959 . S
C1165 H1150 0.959 . S
C1165 H1151 0.961 . S
C1165 C1164 1.502 . S
C1166 H1152 0.960 . S
C1166 H1153 0.961 . S
C1166 H1154 0.959 . S
C1166 C1164 1.561 . S
C1167 C1164 1.526 . S
C1167 C1168 1.396 . S
C1167 C1172 1.390 . S
C1168 C1162 1.465 . S
C1168 C1167 1.396 . S
C1168 C1169 1.399 . S
C1169 H1155 0.929 . S
C1169 C1168 1.399 . S
C1169 C1170 1.385 . S
C1170 H1156 0.931 . S
C1170 C1169 1.385 . S
C1170 C1171 1.389 . S
C1171 C1170 1.389 . S
C1171 C1172 1.387 . S
C1172 H1157 0.930 . S
C1172 C1167 1.390 . S
C1172 C1171 1.387 . S
H1173 C1185 0.930 . S
H1174 C1187 0.930 . S
H1175 C1188 0.930 . S
H1176 C1192 0.959 . S
H1177 C1192 0.959 . S
H1178 C1192 0.961 . S
H1179 C1193 0.960 . S
H1180 C1193 0.961 . S
H1181 C1193 0.959 . S
H1182 C1196 0.929 . S
H1183 C1197 0.931 . S
H1184 C1199 0.930 . S
C1185 H1173 0.930 . S
C1185 C1186 1.399 . S
C1185 C1190 1.399 . S
C1186 C1185 1.399 . S
C1186 C1187 1.376 . S
C1187 H1174 0.930 . S
C1187 C1186 1.376 . S
C1187 C1188 1.388 . S
C1188 H1175 0.930 . S
C1188 C1187 1.388 . S
C1188 C1189 1.390 . S
C1189 C1188 1.390 . S
C1189 C1190 1.394 . S
C1189 C1195 1.465 . S
C1190 C1185 1.399 . S
C1190 C1189 1.394 . S
C1190 C1191 1.516 . S
C1191 C1190 1.516 . S
C1191 C1192 1.502 . S
C1191 C1193 1.561 . S
C1191 C1194 1.526 . S
C1192 H1176 0.959 . S
C1192 H1177 0.959 . S
C1192 H1178 0.961 . S
C1192 C1191 1.502 . S
C1193 H1179 0.960 . S
C1193 H1180 0.961 . S
C1193 H1181 0.959 . S
C1193 C1191 1.561 . S
C1194 C1191 1.526 . S
C1194 C1195 1.396 . S
C1194 C1199 1.390 . S
C1195 C1189 1.465 . S
C1195 C1194 1.396 . S
C1195 C1196 1.399 . S
C1196 H1182 0.929 . S
C1196 C1195 1.399 . S
C1196 C1197 1.385 . S
C1197 H1183 0.931 . S
C1197 C1196 1.385 . S
C1197 C1198 1.389 . S
C1198 C1197 1.389 . S
C1198 C1199 1.387 . S
C1199 H1184 0.930 . S
C1199 C1194 1.390 . S
C1199 C1198 1.387 . S
H1200 C1212 0.930 . S
H1201 C1214 0.930 . S
H1202 C1215 0.930 . S
H1203 C1219 0.959 . S
H1204 C1219 0.959 . S
H1205 C1219 0.961 . S
H1206 C1220 0.960 . S
H1207 C1220 0.961 . S
H1208 C1220 0.959 . S
H1209 C1223 0.929 . S
H1210 C1224 0.931 . S
H1211 C1226 0.930 . S
C1212 H1200 0.930 . S
C1212 C1213 1.399 . S
C1212 C1217 1.399 . S
C1213 C1212 1.399 . S
C1213 C1214 1.376 . S
C1214 H1201 0.930 . S
C1214 C1213 1.376 . S
C1214 C1215 1.388 . S
C1215 H1202 0.930 . S
C1215 C1214 1.388 . S
C1215 C1216 1.390 . S
C1216 C1215 1.390 . S
C1216 C1217 1.394 . S
C1216 C1222 1.465 . S
C1217 C1212 1.399 . S
C1217 C1216 1.394 . S
C1217 C1218 1.516 . S
C1218 C1217 1.516 . S
C1218 C1219 1.502 . S
C1218 C1220 1.561 . S
C1218 C1221 1.526 . S
C1219 H1203 0.959 . S
C1219 H1204 0.959 . S
C1219 H1205 0.961 . S
C1219 C1218 1.502 . S
C1220 H1206 0.960 . S
C1220 H1207 0.961 . S
C1220 H1208 0.959 . S
C1220 C1218 1.561 . S
C1221 C1218 1.526 . S
C1221 C1222 1.396 . S
C1221 C1226 1.390 . S
C1222 C1216 1.465 . S
C1222 C1221 1.396 . S
C1222 C1223 1.399 . S
C1223 H1209 0.929 . S
C1223 C1222 1.399 . S
C1223 C1224 1.385 . S
C1224 H1210 0.931 . S
C1224 C1223 1.385 . S
C1224 C1225 1.389 . S
C1225 C1224 1.389 . S
C1225 C1226 1.387 . S
C1226 H1211 0.930 . S
C1226 C1221 1.390 . S
C1226 C1225 1.387 . S
C604 C504 1.123 . S
C592 C31 1.082 . S
C631 C540 1.671 . S
C619 C61 1.758 . S
C658 C505 1.419 . S
C646 C121 1.418 . S
C685 C535 1.529 . S
C673 C181 1.595 . S
C712 C502 1.444 . S
C700 C260 1.479 . S
C727 C331 1.709 . S
C739 C538 1.693 . S
C754 C380 1.187 . S
C766 C507 1.040 . S
C793 C537 1.472 . S
C781 C440 1.473 . S
C820 C541 1.417 . S
C808 C1 1.400 . S
C847 C506 1.515 . S
C835 C91 1.501 . S
C874 C534 1.688 . S
C862 C151 1.708 . S
C901 C503 1.178 . S
C889 C200 1.224 . S
C928 C536 1.690 . S
C916 C271 1.734 . S
C943 C301 1.415 . S
C955 C501 1.418 . S
C970 C361 1.574 . S
C982 C539 1.530 . S
C1009 C508 1.029 . S
C997 C451 1.095 . S
C1036 C570 1.606 . S
C1024 C20 1.734 . S
C1051 C241 1.988 . S
C1063 C573 1.872 . S
C1090 C572 1.677 . S
C1078 C320 1.741 . S
C1105 C391 2.048 . S
C1117 C571 2.045 . S
C1144 C574 1.690 . S
C1132 C421 1.712 . S
C1159 C140 1.715 . S
C1171 C568 1.645 . S
C1198 C567 2.069 . S
C1186 C211 2.056 . S
C1213 C80 2.012 . S
C1225 C569 1.918 . S
