# Generated by pormake.
# Topology pyr, (3,6)-cn, num edge types: 1
# Building blocks:
#     Node 0, Type 0, BuildingBlock: QEWDON_clean_linker_0, # of connection points: 3
#     Node 1, Type 0, BuildingBlock: QEWDON_clean_linker_0, # of connection points: 3
#     Node 2, Type 0, BuildingBlock: QEWDON_clean_linker_0, # of connection points: 3
#     Node 3, Type 0, BuildingBlock: QEWDON_clean_linker_0, # of connection points: 3
#     Node 4, Type 0, BuildingBlock: QEWDON_clean_linker_0, # of connection points: 3
#     Node 5, Type 0, BuildingBlock: QEWDON_clean_linker_0, # of connection points: 3
#     Node 6, Type 0, BuildingBlock: QEWDON_clean_linker_0, # of connection points: 3
#     Node 7, Type 0, BuildingBlock: QEWDON_clean_linker_0, # of connection points: 3
#     Node 8, Type 1, BuildingBlock: BETFAJ_clean_sbu_0, # of connection points: 6
#     Node 9, Type 1, BuildingBlock: BETFAJ_clean_sbu_0, # of connection points: 6
#     Node 10, Type 1, BuildingBlock: BETFAJ_clean_sbu_0, # of connection points: 6
#     Node 11, Type 1, BuildingBlock: BETFAJ_clean_sbu_0, # of connection points: 6
#     Edge 12, Type (0, 1), None
#     Edge 13, Type (0, 1), None
#     Edge 14, Type (0, 1), None
#     Edge 15, Type (0, 1), None
#     Edge 16, Type (0, 1), None
#     Edge 17, Type (0, 1), None
#     Edge 18, Type (0, 1), None
#     Edge 19, Type (0, 1), None
#     Edge 20, Type (0, 1), None
#     Edge 21, Type (0, 1), None
#     Edge 22, Type (0, 1), None
#     Edge 23, Type (0, 1), None
#     Edge 24, Type (0, 1), None
#     Edge 25, Type (0, 1), None
#     Edge 26, Type (0, 1), None
#     Edge 27, Type (0, 1), None
#     Edge 28, Type (0, 1), None
#     Edge 29, Type (0, 1), None
#     Edge 30, Type (0, 1), None
#     Edge 31, Type (0, 1), None
#     Edge 32, Type (0, 1), None
#     Edge 33, Type (0, 1), None
#     Edge 34, Type (0, 1), None
#     Edge 35, Type (0, 1), None
# Relax obj value: 0.391
# Max RMSD: 0.269
# Mean RMSD: 0.202
data_MOF--net-pyr--node1-BETFAJ_clean_sbu_0--node2-QEWDON_clean_linker_0--edge1-none
_symmetry_space_group_name_H-M    P1
_symmetry_Int_Tables_number       1
_symmetry_cell_setting            triclinic
loop_
_symmetry_equiv_pos_as_xyz
'x, y, z'
_cell_length_a     18.085982
_cell_length_b     19.750714
_cell_length_c     19.297721
_cell_angle_alpha  93.39341
_cell_angle_beta   90.426046
_cell_angle_gamma 117.86458
loop_
_atom_site_label
_atom_site_type_symbol
_atom_site_fract_x
_atom_site_fract_y
_atom_site_fract_z
_atom_type_partial_charge
H0 H 0.63524 0.47567 0.21081 0.0
C1 C 0.62793 0.46876 0.2661 0.0
C2 C 0.62976 0.40524 0.29442 0.0
C3 C 0.60482 0.51672 0.30709 0.0
H4 H 0.60174 0.3366 0.37981 0.0
C5 C 0.60903 0.39061 0.36293 0.0
C6 C 0.57806 0.43342 0.40184 0.0
C7 C 0.58547 0.50132 0.37632 0.0
C8 C 0.58292 0.57209 0.27553 0.0
H9 H 0.56556 0.53717 0.40706 0.0
C10 C 0.50047 0.56247 0.27936 0.0
C11 C 0.47882 0.61692 0.25408 0.0
C12 C 0.64385 0.63565 0.24444 0.0
H13 H 0.70733 0.64404 0.241 0.0
C14 C 0.62377 0.69022 0.21967 0.0
H15 H 0.45334 0.51153 0.30126 0.0
C16 C 0.54276 0.68165 0.22507 0.0
H17 H 0.53129 0.72687 0.20715 0.0
H18 H 0.67158 0.74014 0.19693 0.0
H19 H 0.07591 0.94081 0.92091 0.0
C20 C 0.12533 0.92915 0.90149 0.0
C21 C 0.1991 0.95738 0.94133 0.0
C22 C 0.12299 0.90618 0.83158 0.0
H23 H 0.32411 0.97089 0.9463 0.0
C24 C 0.26612 0.9474 0.9158 0.0
C25 C 0.26154 0.91465 0.848 0.0
C26 C 0.19008 0.89631 0.80502 0.0
C27 C 0.06989 0.92598 0.78784 0.0
H28 H 0.18988 0.88127 0.75006 0.0
C29 C 0.11029 0.99694 0.75836 0.0
C30 C 0.06877 1.04049 0.74832 0.0
C31 C 0.98396 0.89473 0.7999 0.0
H32 H 0.95188 0.84117 0.82466 0.0
C33 C 0.94149 0.9368 0.78766 0.0
H34 H 0.17661 1.02162 0.74867 0.0
C35 C 0.98431 1.01057 0.76404 0.0
H36 H 0.95101 1.04278 0.75536 0.0
H37 H 0.87592 0.91285 0.79858 0.0
H38 H 0.82985 0.646 0.99699 0.0
C39 C 0.79398 0.5861 1.00682 0.0
C40 C 0.82592 0.55445 1.05667 0.0
C41 C 0.71415 0.54395 0.97211 0.0
H42 H 0.79816 0.45096 0.10779 0.0
C43 C 0.77565 0.47602 0.06983 0.0
C44 C 0.69559 0.42997 1.03582 0.0
C45 C 0.66602 0.46544 0.98764 0.0
C46 C 0.67208 0.58882 0.94203 0.0
H47 H 0.60293 0.43321 0.96538 0.0
C48 C 0.67292 0.61159 0.8712 0.0
C49 C 0.63592 0.66042 0.85337 0.0
C50 C 0.63301 0.61461 0.99167 0.0
H51 H 0.63093 0.59964 1.04506 0.0
C52 C 0.5982 0.66142 0.97505 0.0
H53 H 0.70224 0.59254 0.8314 0.0
C54 C 0.60035 0.68443 0.90802 0.0
H55 H 0.57167 0.72073 0.89908 0.0
H56 H 0.56957 0.68093 1.01517 0.0
H57 H 1.00167 0.97642 0.4523 0.0
C58 C 0.95004 0.94194 0.48401 0.0
C59 C 0.93728 0.97628 0.54651 0.0
C60 C 0.89368 0.86467 0.45985 0.0
H61 H 0.86133 0.95489 0.63582 0.0
C62 C 0.86922 0.93068 0.58663 0.0
C63 C 0.80861 0.85595 0.56417 0.0
C64 C 0.821 0.82344 0.49971 0.0
C65 C 0.89982 0.8368 0.38515 0.0
H66 H 0.77373 0.767 0.47995 0.0
C67 C 0.94825 0.79872 0.36284 0.0
C68 C 0.95566 0.7821 0.28974 0.0
C69 C 0.85893 0.8553 0.33323 0.0
H70 H 0.82213 0.88399 0.34729 0.0
C71 C 0.8661 0.83935 0.26286 0.0
H72 H 0.98039 0.78332 0.40145 0.0
C73 C 0.91416 0.80408 0.24153 0.0
H74 H 0.91756 0.79229 0.18652 0.0
H75 H 0.83417 0.85492 0.22416 0.0
H76 H 0.67156 0.87629 0.07495 0.0
C77 C 0.68002 0.89172 1.02155 0.0
C78 C 0.75549 0.90725 0.98911 0.0
C79 C 0.6195 0.90416 0.98601 0.0
H80 H 0.83079 0.95652 0.90134 0.0
C81 C 0.77008 0.93755 0.92378 0.0
C82 C 0.7103 0.95111 0.89059 0.0
C83 C 0.63255 0.92692 0.91824 0.0
C84 C 0.55763 0.92038 1.02156 0.0
H85 H 0.58756 0.93963 0.89229 0.0
C86 C 0.57073 0.9965 1.02185 0.0
C87 C 0.5048 1.01386 1.03061 0.0
C88 C 0.47885 0.86145 1.03575 0.0
H89 H 0.46712 0.8023 1.03344 0.0
C90 C 0.41345 0.87873 1.04891 0.0
H91 H 0.63217 1.04171 1.01072 0.0
C92 C 0.426 0.95403 1.04556 0.0
H93 H 0.37449 0.96556 1.05621 0.0
H94 H 0.35238 0.83344 1.06019 0.0
H95 H 0.92709 0.30015 0.60059 0.0
C96 C 0.93058 0.3001 0.54464 0.0
C97 C 1.00258 0.30657 0.51236 0.0
C98 C 0.86078 0.2903 0.50633 0.0
H99 H 1.06157 0.31245 0.41458 0.0
C100 C 1.00702 0.30924 0.44023 0.0
C101 C 0.93988 0.30753 0.40154 0.0
C102 C 0.86615 0.29687 0.43474 0.0
C103 C 0.78433 0.27421 0.54409 0.0
H104 H 0.81216 0.29065 0.40468 0.0
C105 C 0.75942 0.33103 0.55275 0.0
C106 C 0.70371 0.32804 0.60485 0.0
C107 C 0.74764 0.20963 0.58328 0.0
H108 H 0.76593 0.16475 0.57696 0.0
C109 C 0.69005 0.20429 0.63314 0.0
H110 H 0.78658 0.37874 0.52002 0.0
C111 C 0.66933 0.2637 0.64499 0.0
H112 H 0.62736 0.25927 0.68613 0.0
H113 H 0.66343 0.15508 0.66425 0.0
H114 H 0.5617 1.02726 0.31785 0.0
C115 C 0.49889 0.9905 0.29656 0.0
C116 C 0.46389 1.02 0.24706 0.0
C117 C 0.45636 0.91263 0.31587 0.0
H118 H 0.35574 0.98805 0.17861 0.0
C119 C 0.38346 0.96792 0.2167 0.0
C120 C 0.33915 0.88971 0.23381 0.0
C121 C 0.37673 0.86403 0.2839 0.0
C122 C 0.50374 0.87687 0.35278 0.0
H123 H 0.34565 0.80428 0.29574 0.0
C124 C 0.48265 0.83854 0.41726 0.0
C125 C 0.52844 0.80048 0.44251 0.0
C126 C 0.57069 0.8767 0.3167 0.0
H127 H 0.58841 0.90389 0.26806 0.0
C128 C 0.61417 0.83974 0.34049 0.0
H129 H 0.43175 0.83808 0.44671 0.0
C130 C 0.59301 0.80174 0.40144 0.0
H131 H 0.63002 0.7749 0.41762 0.0
H132 H 0.66502 0.84022 0.31091 0.0
H133 H 0.35653 0.6697 0.80807 0.0
C134 C 0.32036 0.61013 0.78906 0.0
C135 C 0.34192 0.58364 0.72526 0.0
C136 C 0.25423 0.55844 0.82957 0.0
H137 H 0.31619 0.48383 0.65712 0.0
C138 C 0.29869 0.50456 0.7042 0.0
C139 C 0.2352 0.45107 0.74309 0.0
C140 C 0.21201 0.47924 0.8041 0.0
C141 C 0.23937 0.57837 0.90517 0.0
H142 H 0.16278 0.43831 0.83421 0.0
C143 C 0.21276 0.63428 0.93081 0.0
C144 C 0.18714 0.63556 1.00224 0.0
C145 C 0.246 0.53105 0.95385 0.0
H146 H 0.26847 0.49036 0.93874 0.0
C147 C 0.22008 0.53139 1.02125 0.0
H148 H 0.20826 0.67291 0.89552 0.0
C149 C 0.18843 0.58037 1.04374 0.0
H150 H 0.16542 0.57539 0.09523 0.0
H151 H 0.22274 0.49167 1.05629 0.0
Sm152 Sm 0.1604 0.21408 0.61073 0.0
Sm153 Sm 1.02705 0.2152 0.67129 0.0
C154 C 0.30007 0.23614 0.55239 0.0
C155 C 0.37535 0.2944 0.52452 0.0
C156 C 0.37574 0.35778 0.49583 0.0
C157 C 0.44445 0.40662 0.45996 0.0
C158 C 0.51497 0.39402 0.45406 0.0
C159 C 0.51566 0.33317 0.48811 0.0
C160 C 0.44586 0.28316 0.52221 0.0
C161 C 0.10993 0.10807 0.708 0.0
C162 C 0.1919 0.36661 0.71741 0.0
C163 C 0.88229 0.19268 0.72199 0.0
C164 C 0.81632 0.1272 0.75278 0.0
C165 C 0.80563 1.05376 0.73295 0.0
C166 C 0.76879 0.99524 0.77718 0.0
C167 C 0.73633 1.00785 0.83873 0.0
C168 C 0.73753 1.07875 0.85466 0.0
C169 C 0.7787 0.1389 0.81208 0.0
C170 C 1.06531 0.30061 0.55631 0.0
C171 C 0.99117 1.05976 0.57193 0.0
O172 O 0.23025 0.21693 0.5171 0.0
O173 O 0.29377 0.24161 0.6196 0.0
O174 O 0.11052 0.17249 0.71854 0.0
O175 O 0.1415 1.10217 0.65008 0.0
O176 O 0.21752 0.34176 0.66165 0.0
O177 O 0.11983 0.31932 0.74205 0.0
O178 O 0.95276 0.22512 0.75855 0.0
O179 O 0.89281 0.18204 0.65633 0.0
O180 O 1.0613 0.23533 0.5583 0.0
O181 O 0.07068 0.32841 0.61916 0.0
O182 O 0.96814 1.08775 0.62662 0.0
O183 O 1.06364 1.1042 0.54543 0.0
H184 H 0.32119 0.36698 0.49778 0.0
H185 H 0.439 0.45092 0.43351 0.0
H186 H 0.56926 0.32272 0.48747 0.0
H187 H 0.44632 0.23471 0.54546 0.0
H188 H 0.83259 1.04364 0.68653 0.0
H189 H 0.76886 0.94133 0.76546 0.0
H190 H 0.71282 1.0894 0.90266 0.0
H191 H 0.78669 0.19551 0.82812 0.0
Sm192 Sm 0.64231 0.21725 0.15018 0.0
Sm193 Sm 0.50465 0.2288 0.11984 0.0
C194 C 0.78896 0.21722 0.14928 0.0
C195 C 0.86474 0.26143 0.19299 0.0
C196 C 0.87764 0.33169 0.22569 0.0
C197 C 0.91511 0.35404 0.29207 0.0
C198 C 0.93991 0.30635 0.32548 0.0
C199 C 0.94122 0.24412 0.28761 0.0
C200 C 0.90357 0.22166 0.22111 0.0
C201 C 0.51404 1.10255 0.22327 0.0
C202 C 0.61374 0.33796 0.24849 0.0
C203 C 0.3561 0.22045 0.10871 0.0
C204 C 0.28134 0.14838 0.08808 0.0
C205 C 0.27863 1.07998 0.10845 0.0
C206 C 0.24605 1.01468 1.06259 0.0
C207 C 0.21364 1.01662 0.99741 0.0
C208 C 0.20351 1.08077 0.98229 0.0
C209 C 0.23646 0.14618 1.02789 0.0
C210 C 0.64021 0.34744 1.05585 0.0
C211 C 0.52181 1.09534 1.03475 0.0
O212 O 0.76824 0.25453 0.10615 0.0
O213 O 0.72581 0.17123 0.18409 0.0
O214 O 0.50591 0.12159 0.16261 0.0
O215 O 0.58847 0.15021 0.24887 0.0
O216 O 0.67383 0.32468 0.22431 0.0
O217 O 0.53664 0.29514 0.22522 0.0
O218 O 0.39156 0.22425 0.16922 0.0
O219 O 0.40969 0.24361 1.05929 0.0
O220 O 0.64078 0.32601 0.11644 0.0
O221 O 0.56873 0.30073 1.02499 0.0
O222 O 0.46585 0.11037 1.06424 0.0
O223 O 0.5995 0.14943 1.04333 0.0
H224 H 0.84835 0.36342 0.2047 0.0
H225 H 0.91471 0.40287 0.3205 0.0
H226 H 0.96046 0.20686 0.31262 0.0
H227 H 0.89399 0.16726 0.19645 0.0
H228 H 0.31175 1.07993 0.15536 0.0
H229 H 0.25093 0.9646 0.07589 0.0
H230 H 0.17751 1.08323 0.93228 0.0
H231 H 0.23788 0.19818 1.01112 0.0
Sm232 Sm 0.56249 0.65972 0.61714 0.0
Sm233 Sm 0.58325 0.79212 0.67614 0.0
C234 C 0.58698 0.54518 0.56793 0.0
C235 C 0.62204 0.49775 0.59507 0.0
C236 C 0.70518 0.51628 0.58175 0.0
C237 C 0.73493 0.46456 0.59346 0.0
C238 C 0.68079 0.39121 0.61486 0.0
C239 C 0.60129 0.37724 0.63758 0.0
C240 C 0.57236 0.43066 0.62823 0.0
C241 C 0.41386 0.63386 0.68147 0.0
C242 C 0.62749 0.68766 0.78125 0.0
C243 C 0.54841 0.90197 0.72765 0.0
C244 C 0.47616 0.90303 0.76233 0.0
C245 C 0.39577 0.83962 0.7536 0.0
C246 C 0.3262 0.84332 0.78142 0.0
C247 C 0.33573 0.91006 0.81943 0.0
C248 C 0.41672 0.97276 0.82949 0.0
C249 C 0.48602 0.96944 0.80073 0.0
C250 C 0.73213 0.81764 0.60866 0.0
C251 C 0.51927 0.76285 0.51166 0.0
O252 O 0.64042 0.61711 0.56282 0.0
O253 O 0.51394 0.53488 0.58844 0.0
O254 O 0.48733 0.67467 0.70693 0.0
O255 O 0.41866 0.61176 0.61738 0.0
O256 O 0.627 0.65084 0.72179 0.0
O257 O 0.60648 0.74349 0.77786 0.0
O258 O 0.53429 0.87505 0.66308 0.0
O259 O 0.59227 0.87704 0.7616 0.0
O260 O 0.658 0.77676 0.58504 0.0
O261 O 0.72823 0.84622 0.67007 0.0
O262 O 0.51929 0.79922 0.57118 0.0
O263 O 0.53748 0.7054 0.51468 0.0
H264 H 0.74633 0.56911 0.55872 0.0
H265 H 0.79911 0.48079 0.58131 0.0
H266 H 0.55788 0.32251 0.65606 0.0
H267 H 0.50861 0.41597 0.64088 0.0
H268 H 0.38656 0.78769 0.72409 0.0
H269 H 0.26491 0.79391 0.77336 0.0
H270 H 0.42629 1.02529 0.85804 0.0
H271 H 0.54722 1.01917 0.80772 0.0
Sm272 Sm 0.07958 0.66018 0.19591 0.0
Sm273 Sm 0.08457 0.7746 0.10546 0.0
C274 C 0.13738 0.57788 0.26039 0.0
C275 C 0.22343 0.5859 0.25935 0.0
C276 C 0.27969 0.63101 0.21086 0.0
C277 C 0.36082 0.63961 0.20851 0.0
C278 C 0.39045 0.60617 0.25683 0.0
C279 C 0.33439 0.56268 0.3071 0.0
C280 C 0.25175 0.55215 0.30787 0.0
C281 C 1.00153 0.73937 0.25988 0.0
C282 C 0.25378 0.83372 0.19994 0.0
C283 C 1.04289 0.87268 1.05172 0.0
C284 C 0.96734 0.88233 1.04707 0.0
C285 C 0.88695 0.81953 1.04891 0.0
C286 C 0.81589 0.82871 1.03721 0.0
C287 C 0.82477 0.90091 1.02358 0.0
C288 C 0.90502 0.96485 1.02803 0.0
C289 C 0.97578 0.95553 1.03955 0.0
C290 C 0.15469 0.68786 1.03818 0.0
C291 C 0.91075 0.60596 0.09491 0.0
O292 O 0.09327 0.55389 0.20191 0.0
O293 O 0.13118 0.63546 0.2911 0.0
O294 O 1.06646 0.76785 0.22311 0.0
O295 O 0.97667 0.66639 0.26458 0.0
O296 O 0.21785 0.76058 0.21407 0.0
O297 O 0.21388 0.85715 0.15824 0.0
O298 O 0.07754 0.88397 0.11363 0.0
O299 O 1.042 0.81421 1.01551 0.0
O300 O 0.09269 0.66412 0.07804 0.0
O301 O 0.18064 0.76061 1.03056 0.0
O302 O 0.94621 0.68021 0.08592 0.0
O303 O 0.9508 0.57935 0.13457 0.0
H304 H 0.26116 0.66008 0.17427 0.0
H305 H 0.3996 0.67221 0.16782 0.0
H306 H 0.35414 0.53734 0.34669 0.0
H307 H 0.21035 0.5184 0.3469 0.0
H308 H 0.87912 0.76314 1.05716 0.0
H309 H 0.75481 0.77881 1.03416 0.0
H310 H 0.91323 1.02129 1.01788 0.0
H311 H 1.03716 1.00498 1.03968 0.0
loop_
_geom_bond_atom_site_label_1
_geom_bond_atom_site_label_2
_geom_bond_distance
_geom_bond_site_symmetry_2
_ccdc_geom_bond_type
H0 C1 0.949 . S
C1 H0 0.949 . S
C1 C2 1.395 . S
C1 C3 1.391 . S
C2 C1 1.395 . S
C2 C5 1.390 . S
C3 C1 1.391 . S
C3 C7 1.387 . S
C3 C8 1.491 . S
H4 C5 0.950 . S
C5 C2 1.390 . S
C5 H4 0.950 . S
C5 C6 1.378 . S
C6 C5 1.378 . S
C6 C7 1.409 . S
C7 C3 1.387 . S
C7 C6 1.409 . S
C7 H9 0.951 . S
C8 C3 1.491 . S
C8 C10 1.382 . S
C8 C12 1.404 . S
H9 C7 0.951 . S
C10 C8 1.382 . S
C10 C11 1.390 . S
C10 H15 0.949 . S
C11 C10 1.390 . S
C11 C16 1.399 . S
C12 C8 1.404 . S
C12 H13 0.950 . S
C12 C14 1.375 . S
H13 C12 0.950 . S
C14 C12 1.375 . S
C14 C16 1.382 . S
C14 H18 0.950 . S
H15 C10 0.949 . S
C16 C11 1.399 . S
C16 C14 1.382 . S
C16 H17 0.952 . S
H17 C16 0.952 . S
H18 C14 0.950 . S
H19 C20 0.949 . S
C20 H19 0.949 . S
C20 C21 1.395 . S
C20 C22 1.391 . S
C21 C20 1.395 . S
C21 C24 1.390 . S
C22 C20 1.391 . S
C22 C26 1.387 . S
C22 C27 1.491 . S
H23 C24 0.950 . S
C24 C21 1.390 . S
C24 H23 0.950 . S
C24 C25 1.378 . S
C25 C24 1.378 . S
C25 C26 1.409 . S
C26 C22 1.387 . S
C26 C25 1.409 . S
C26 H28 0.951 . S
C27 C22 1.491 . S
C27 C29 1.382 . S
C27 C31 1.404 1_455 S
H28 C26 0.951 . S
C29 C27 1.382 . S
C29 C30 1.390 1_455 S
C29 H34 0.949 . S
C30 C29 1.390 1_655 S
C30 C35 1.399 . S
C31 C27 1.404 1_655 S
C31 H32 0.950 . S
C31 C33 1.375 . S
H32 C31 0.950 . S
C33 C31 1.375 . S
C33 C35 1.382 . S
C33 H37 0.950 . S
H34 C29 0.949 . S
C35 C30 1.399 . S
C35 C33 1.382 . S
C35 H36 0.952 . S
H36 C35 0.952 . S
H37 C33 0.950 . S
H38 C39 0.949 . S
C39 H38 0.949 . S
C39 C40 1.395 . S
C39 C41 1.391 . S
C40 C39 1.395 . S
C40 C43 1.390 1_556 S
C41 C39 1.391 . S
C41 C45 1.387 . S
C41 C46 1.491 . S
H42 C43 0.950 . S
C43 C40 1.390 1_554 S
C43 H42 0.950 . S
C43 C44 1.378 1_554 S
C44 C43 1.378 1_556 S
C44 C45 1.409 . S
C45 C41 1.387 . S
C45 C44 1.409 . S
C45 H47 0.951 . S
C46 C41 1.491 . S
C46 C48 1.382 . S
C46 C50 1.404 . S
H47 C45 0.951 . S
C48 C46 1.382 . S
C48 C49 1.390 . S
C48 H53 0.949 . S
C49 C48 1.390 . S
C49 C54 1.399 . S
C50 C46 1.404 . S
C50 H51 0.950 . S
C50 C52 1.375 . S
H51 C50 0.950 . S
C52 C50 1.375 . S
C52 C54 1.382 . S
C52 H56 0.950 . S
H53 C48 0.949 . S
C54 C49 1.399 . S
C54 C52 1.382 . S
C54 H55 0.952 . S
H55 C54 0.952 . S
H56 C52 0.950 . S
H57 C58 0.949 . S
C58 H57 0.949 . S
C58 C59 1.395 . S
C58 C60 1.391 . S
C59 C58 1.395 . S
C59 C62 1.390 . S
C60 C58 1.391 . S
C60 C64 1.387 . S
C60 C65 1.491 . S
H61 C62 0.950 . S
C62 C59 1.390 . S
C62 H61 0.950 . S
C62 C63 1.378 . S
C63 C62 1.378 . S
C63 C64 1.409 . S
C64 C60 1.387 . S
C64 C63 1.409 . S
C64 H66 0.951 . S
C65 C60 1.491 . S
C65 C67 1.382 . S
C65 C69 1.404 . S
H66 C64 0.951 . S
C67 C65 1.382 . S
C67 C68 1.390 . S
C67 H72 0.949 . S
C68 C67 1.390 . S
C68 C73 1.399 . S
C69 C65 1.404 . S
C69 H70 0.950 . S
C69 C71 1.375 . S
H70 C69 0.950 . S
C71 C69 1.375 . S
C71 C73 1.382 . S
C71 H75 0.950 . S
H72 C67 0.949 . S
C73 C68 1.399 . S
C73 C71 1.382 . S
C73 H74 0.952 . S
H74 C73 0.952 . S
H75 C71 0.950 . S
H76 C77 0.949 . S
C77 H76 0.949 . S
C77 C78 1.395 . S
C77 C79 1.391 . S
C78 C77 1.395 . S
C78 C81 1.390 . S
C79 C77 1.391 . S
C79 C83 1.387 . S
C79 C84 1.491 . S
H80 C81 0.950 . S
C81 C78 1.390 . S
C81 H80 0.950 . S
C81 C82 1.378 . S
C82 C81 1.378 . S
C82 C83 1.409 . S
C83 C79 1.387 . S
C83 C82 1.409 . S
C83 H85 0.951 . S
C84 C79 1.491 . S
C84 C86 1.382 . S
C84 C88 1.404 . S
H85 C83 0.951 . S
C86 C84 1.382 . S
C86 C87 1.390 . S
C86 H91 0.949 . S
C87 C86 1.390 . S
C87 C92 1.399 . S
C88 C84 1.404 . S
C88 H89 0.950 . S
C88 C90 1.375 . S
H89 C88 0.950 . S
C90 C88 1.375 . S
C90 C92 1.382 . S
C90 H94 0.950 . S
H91 C86 0.949 . S
C92 C87 1.399 . S
C92 C90 1.382 . S
C92 H93 0.952 . S
H93 C92 0.952 . S
H94 C90 0.950 . S
H95 C96 0.949 . S
C96 H95 0.949 . S
C96 C97 1.395 . S
C96 C98 1.391 . S
C97 C96 1.395 . S
C97 C100 1.390 . S
C98 C96 1.391 . S
C98 C102 1.387 . S
C98 C103 1.491 . S
H99 C100 0.950 . S
C100 C97 1.390 . S
C100 H99 0.950 . S
C100 C101 1.378 . S
C101 C100 1.378 . S
C101 C102 1.409 . S
C102 C98 1.387 . S
C102 C101 1.409 . S
C102 H104 0.951 . S
C103 C98 1.491 . S
C103 C105 1.382 . S
C103 C107 1.404 . S
H104 C102 0.951 . S
C105 C103 1.382 . S
C105 C106 1.390 . S
C105 H110 0.949 . S
C106 C105 1.390 . S
C106 C111 1.399 . S
C107 C103 1.404 . S
C107 H108 0.950 . S
C107 C109 1.375 . S
H108 C107 0.950 . S
C109 C107 1.375 . S
C109 C111 1.382 . S
C109 H113 0.950 . S
H110 C105 0.949 . S
C111 C106 1.399 . S
C111 C109 1.382 . S
C111 H112 0.952 . S
H112 C111 0.952 . S
H113 C109 0.950 . S
H114 C115 0.949 . S
C115 H114 0.949 . S
C115 C116 1.395 . S
C115 C117 1.391 . S
C116 C115 1.395 . S
C116 C119 1.390 . S
C117 C115 1.391 . S
C117 C121 1.387 . S
C117 C122 1.491 . S
H118 C119 0.950 . S
C119 C116 1.390 . S
C119 H118 0.950 . S
C119 C120 1.378 . S
C120 C119 1.378 . S
C120 C121 1.409 . S
C121 C117 1.387 . S
C121 C120 1.409 . S
C121 H123 0.951 . S
C122 C117 1.491 . S
C122 C124 1.382 . S
C122 C126 1.404 . S
H123 C121 0.951 . S
C124 C122 1.382 . S
C124 C125 1.390 . S
C124 H129 0.949 . S
C125 C124 1.390 . S
C125 C130 1.399 . S
C126 C122 1.404 . S
C126 H127 0.950 . S
C126 C128 1.375 . S
H127 C126 0.950 . S
C128 C126 1.375 . S
C128 C130 1.382 . S
C128 H132 0.950 . S
H129 C124 0.949 . S
C130 C125 1.399 . S
C130 C128 1.382 . S
C130 H131 0.952 . S
H131 C130 0.952 . S
H132 C128 0.950 . S
H133 C134 0.949 . S
C134 H133 0.949 . S
C134 C135 1.395 . S
C134 C136 1.391 . S
C135 C134 1.395 . S
C135 C138 1.390 . S
C136 C134 1.391 . S
C136 C140 1.387 . S
C136 C141 1.491 . S
H137 C138 0.950 . S
C138 C135 1.390 . S
C138 H137 0.950 . S
C138 C139 1.378 . S
C139 C138 1.378 . S
C139 C140 1.409 . S
C140 C136 1.387 . S
C140 C139 1.409 . S
C140 H142 0.951 . S
C141 C136 1.491 . S
C141 C143 1.382 . S
C141 C145 1.404 . S
H142 C140 0.951 . S
C143 C141 1.382 . S
C143 C144 1.390 . S
C143 H148 0.949 . S
C144 C143 1.390 . S
C144 C149 1.399 . S
C145 C141 1.404 . S
C145 H146 0.950 . S
C145 C147 1.375 . S
H146 C145 0.950 . S
C147 C145 1.375 . S
C147 C149 1.382 . S
C147 H151 0.950 . S
H148 C143 0.949 . S
C149 C144 1.399 . S
C149 C147 1.382 . S
C149 H150 0.952 . S
H150 C149 0.952 . S
H151 C147 0.950 . S
Sm152 C154 2.846 . S
Sm152 O172 2.543 . S
Sm152 O173 2.450 . S
Sm152 O174 2.681 . S
Sm152 O175 2.464 . S
Sm152 O176 2.396 . S
Sm152 O180 2.386 1_455 S
Sm152 O183 2.408 1_445 S
Sm153 C163 2.846 1_545 S
Sm153 O174 2.386 1_655 S
Sm153 O177 2.408 1_655 S
Sm153 O178 2.543 1_545 S
Sm153 O179 2.450 . S
Sm153 O180 2.681 . S
Sm153 O181 2.464 . S
Sm153 O182 2.396 1_545 S
C154 Sm152 2.846 . S
C154 C155 1.506 . S
C154 O172 1.261 . S
C154 O173 1.242 . S
C155 C154 1.506 . S
C155 C156 1.358 . S
C155 C160 1.382 . S
C156 C155 1.358 . S
C156 C157 1.385 . S
C156 H184 0.930 . S
C157 C156 1.385 . S
C157 C158 1.395 . S
C157 H185 0.929 . S
C158 C157 1.395 . S
C158 C159 1.335 . S
C159 C158 1.335 . S
C159 C160 1.398 . S
C159 H186 0.930 . S
C160 C155 1.382 . S
C160 C159 1.398 . S
C160 H187 0.929 . S
C161 O174 1.271 . S
C161 O175 1.251 . S
C162 O176 1.252 . S
C162 O177 1.272 . S
C163 Sm153 2.846 1_565 S
C163 C164 1.506 . S
C163 O178 1.261 . S
C163 O179 1.239 1_565 S
C164 C163 1.506 . S
C164 C165 1.358 . S
C164 C169 1.382 . S
C165 C164 1.358 . S
C165 C166 1.385 . S
C165 H188 0.930 . S
C166 C165 1.385 . S
C166 C167 1.395 . S
C166 H189 0.929 . S
C167 C166 1.395 . S
C167 C168 1.335 . S
C168 C167 1.335 . S
C168 C169 1.398 . S
C168 H190 0.930 . S
C169 C164 1.382 . S
C169 C168 1.398 . S
C169 H191 0.929 . S
C170 O180 1.271 . S
C170 O181 1.251 . S
C171 O182 1.252 . S
C171 O183 1.272 . S
O172 Sm152 2.543 . S
O172 C154 1.261 . S
O173 Sm152 2.450 . S
O173 C154 1.242 . S
O174 Sm152 2.681 . S
O174 Sm153 2.386 1_455 S
O174 C161 1.271 . S
O175 Sm152 2.464 . S
O175 C161 1.251 . S
O176 Sm152 2.396 . S
O176 C162 1.252 . S
O177 Sm153 2.408 1_455 S
O177 C162 1.272 . S
O178 Sm153 2.543 1_565 S
O178 C163 1.261 . S
O179 Sm153 2.450 . S
O179 C163 1.239 1_545 S
O180 Sm152 2.386 1_655 S
O180 Sm153 2.681 . S
O180 C170 1.271 . S
O181 Sm153 2.464 . S
O181 C170 1.251 . S
O182 Sm153 2.396 1_565 S
O182 C171 1.252 . S
O183 Sm152 2.408 1_665 S
O183 C171 1.272 . S
H184 C156 0.930 . S
H185 C157 0.929 . S
H186 C159 0.930 . S
H187 C160 0.929 . S
H188 C165 0.930 . S
H189 C166 0.929 . S
H190 C168 0.930 . S
H191 C169 0.929 . S
Sm192 C194 2.846 . S
Sm192 O212 2.543 . S
Sm192 O213 2.450 . S
Sm192 O214 2.681 1_545 S
Sm192 O215 2.464 1_545 S
Sm192 O216 2.396 . S
Sm192 O220 2.386 . S
Sm192 O223 2.408 1_545 S
Sm193 C203 2.846 1_544 S
Sm193 O214 2.386 1_545 S
Sm193 O217 2.408 . S
Sm193 O218 2.543 1_545 S
Sm193 O219 2.450 1_554 S
Sm193 O220 2.681 . S
Sm193 O221 2.464 1_554 S
Sm193 O222 2.396 1_554 S
C194 Sm192 2.846 . S
C194 C195 1.506 . S
C194 O212 1.261 . S
C194 O213 1.242 . S
C195 C194 1.506 . S
C195 C196 1.358 . S
C195 C200 1.382 . S
C196 C195 1.358 . S
C196 C197 1.385 . S
C196 H224 0.930 . S
C197 C196 1.385 . S
C197 C198 1.395 . S
C197 H225 0.929 . S
C198 C197 1.395 . S
C198 C199 1.335 . S
C199 C198 1.335 . S
C199 C200 1.398 . S
C199 H226 0.930 . S
C200 C195 1.382 . S
C200 C199 1.398 . S
C200 H227 0.929 . S
C201 O214 1.271 . S
C201 O215 1.251 . S
C202 O216 1.252 . S
C202 O217 1.272 . S
C203 Sm193 2.846 1_566 S
C203 C204 1.506 . S
C203 O218 1.261 1_556 S
C203 O219 1.242 1_565 S
C204 C203 1.506 . S
C204 C205 1.358 . S
C204 C209 1.382 . S
C205 C204 1.358 . S
C205 C206 1.385 . S
C205 H228 0.930 . S
C206 C205 1.385 . S
C206 C207 1.395 . S
C206 H229 0.929 . S
C207 C206 1.395 . S
C207 C208 1.335 . S
C208 C207 1.335 . S
C208 C209 1.398 . S
C208 H230 0.930 . S
C209 C204 1.382 . S
C209 C208 1.398 . S
C209 H231 0.929 1_565 S
C210 O220 1.271 . S
C210 O221 1.251 1_554 S
C211 O222 1.252 1_564 S
C211 O223 1.272 . S
O212 Sm192 2.543 . S
O212 C194 1.261 . S
O213 Sm192 2.450 . S
O213 C194 1.242 . S
O214 Sm192 2.681 1_565 S
O214 Sm193 2.386 1_565 S
O214 C201 1.271 . S
O215 Sm192 2.464 1_565 S
O215 C201 1.251 . S
O216 Sm192 2.396 . S
O216 C202 1.252 . S
O217 Sm193 2.408 . S
O217 C202 1.272 . S
O218 Sm193 2.543 1_565 S
O218 C203 1.261 1_554 S
O219 Sm193 2.450 1_556 S
O219 C203 1.242 1_545 S
O220 Sm192 2.386 . S
O220 Sm193 2.681 . S
O220 C210 1.271 . S
O221 Sm193 2.464 1_556 S
O221 C210 1.251 1_556 S
O222 Sm193 2.396 1_556 S
O222 C211 1.252 1_546 S
O223 Sm192 2.408 1_565 S
O223 C211 1.272 . S
H224 C196 0.930 . S
H225 C197 0.929 . S
H226 C199 0.930 . S
H227 C200 0.929 . S
H228 C205 0.930 . S
H229 C206 0.929 . S
H230 C208 0.930 . S
H231 C209 0.929 1_545 S
Sm232 C234 2.846 . S
Sm232 O252 2.543 . S
Sm232 O253 2.450 . S
Sm232 O254 2.681 . S
Sm232 O255 2.464 . S
Sm232 O256 2.396 . S
Sm232 O260 2.386 . S
Sm232 O263 2.408 . S
Sm233 C243 2.846 . S
Sm233 O254 2.386 . S
Sm233 O257 2.408 . S
Sm233 O258 2.543 . S
Sm233 O259 2.450 . S
Sm233 O260 2.681 . S
Sm233 O261 2.464 . S
Sm233 O262 2.396 . S
C234 Sm232 2.846 . S
C234 C235 1.506 . S
C234 O252 1.261 . S
C234 O253 1.242 . S
C235 C234 1.506 . S
C235 C236 1.358 . S
C235 C240 1.382 . S
C236 C235 1.358 . S
C236 C237 1.385 . S
C236 H264 0.930 . S
C237 C236 1.385 . S
C237 C238 1.395 . S
C237 H265 0.929 . S
C238 C237 1.395 . S
C238 C239 1.335 . S
C239 C238 1.335 . S
C239 C240 1.398 . S
C239 H266 0.930 . S
C240 C235 1.382 . S
C240 C239 1.398 . S
C240 H267 0.929 . S
C241 O254 1.271 . S
C241 O255 1.251 . S
C242 O256 1.252 . S
C242 O257 1.272 . S
C243 Sm233 2.846 . S
C243 C244 1.506 . S
C243 O258 1.261 . S
C243 O259 1.242 . S
C244 C243 1.506 . S
C244 C245 1.358 . S
C244 C249 1.382 . S
C245 C244 1.358 . S
C245 C246 1.385 . S
C245 H268 0.930 . S
C246 C245 1.385 . S
C246 C247 1.395 . S
C246 H269 0.929 . S
C247 C246 1.395 . S
C247 C248 1.335 . S
C248 C247 1.335 . S
C248 C249 1.398 . S
C248 H270 0.930 1_565 S
C249 C244 1.382 . S
C249 C248 1.398 . S
C249 H271 0.929 . S
C250 O260 1.271 . S
C250 O261 1.251 . S
C251 O262 1.252 . S
C251 O263 1.272 . S
O252 Sm232 2.543 . S
O252 C234 1.261 . S
O253 Sm232 2.450 . S
O253 C234 1.242 . S
O254 Sm232 2.681 . S
O254 Sm233 2.386 . S
O254 C241 1.271 . S
O255 Sm232 2.464 . S
O255 C241 1.251 . S
O256 Sm232 2.396 . S
O256 C242 1.252 . S
O257 Sm233 2.408 . S
O257 C242 1.272 . S
O258 Sm233 2.543 . S
O258 C243 1.261 . S
O259 Sm233 2.450 . S
O259 C243 1.242 . S
O260 Sm232 2.386 . S
O260 Sm233 2.681 . S
O260 C250 1.271 . S
O261 Sm233 2.464 . S
O261 C250 1.251 . S
O262 Sm233 2.396 . S
O262 C251 1.252 . S
O263 Sm232 2.408 . S
O263 C251 1.272 . S
H264 C236 0.930 . S
H265 C237 0.929 . S
H266 C239 0.930 . S
H267 C240 0.929 . S
H268 C245 0.930 . S
H269 C246 0.929 . S
H270 C248 0.930 1_545 S
H271 C249 0.929 . S
Sm272 C274 2.846 . S
Sm272 O292 2.543 . S
Sm272 O293 2.450 . S
Sm272 O294 2.681 1_455 S
Sm272 O295 2.464 1_455 S
Sm272 O296 2.396 . S
Sm272 O300 2.386 1_554 S
Sm272 O303 2.408 1_455 S
Sm273 C283 2.846 1_455 S
Sm273 O294 2.386 1_456 S
Sm273 O297 2.408 1_556 S
Sm273 O298 2.543 1_455 S
Sm273 O299 2.450 1_455 S
Sm273 O300 2.681 . S
Sm273 O301 2.464 . S
Sm273 O302 2.396 1_455 S
C274 Sm272 2.846 . S
C274 C275 1.506 . S
C274 O292 1.261 . S
C274 O293 1.242 . S
C275 C274 1.506 . S
C275 C276 1.358 . S
C275 C280 1.382 . S
C276 C275 1.358 . S
C276 C277 1.385 . S
C276 H304 0.930 . S
C277 C276 1.385 . S
C277 C278 1.395 . S
C277 H305 0.929 . S
C278 C277 1.395 . S
C278 C279 1.335 . S
C279 C278 1.335 . S
C279 C280 1.398 . S
C279 H306 0.930 . S
C280 C275 1.382 . S
C280 C279 1.398 . S
C280 H307 0.929 . S
C281 O294 1.271 . S
C281 O295 1.251 . S
C282 O296 1.252 . S
C282 O297 1.272 . S
C283 Sm273 2.846 1_655 S
C283 C284 1.506 . S
C283 O298 1.261 . S
C283 O299 1.242 . S
C284 C283 1.506 . S
C284 C285 1.358 . S
C284 C289 1.382 . S
C285 C284 1.358 . S
C285 C286 1.385 . S
C285 H308 0.930 . S
C286 C285 1.385 . S
C286 C287 1.395 . S
C286 H309 0.929 . S
C287 C286 1.395 . S
C287 C288 1.335 . S
C288 C287 1.335 . S
C288 C289 1.398 . S
C288 H310 0.930 . S
C289 C284 1.382 . S
C289 C288 1.398 . S
C289 H311 0.929 . S
C290 O300 1.271 . S
C290 O301 1.251 . S
C291 O302 1.252 . S
C291 O303 1.272 1_556 S
O292 Sm272 2.543 . S
O292 C274 1.261 . S
O293 Sm272 2.450 . S
O293 C274 1.242 . S
O294 Sm272 2.681 1_655 S
O294 Sm273 2.386 1_654 S
O294 C281 1.271 . S
O295 Sm272 2.464 1_655 S
O295 C281 1.251 . S
O296 Sm272 2.396 . S
O296 C282 1.252 . S
O297 Sm273 2.408 1_554 S
O297 C282 1.272 . S
O298 Sm273 2.543 1_655 S
O298 C283 1.261 . S
O299 Sm273 2.450 1_655 S
O299 C283 1.242 . S
O300 Sm272 2.386 1_556 S
O300 Sm273 2.681 . S
O300 C290 1.271 . S
O301 Sm273 2.464 . S
O301 C290 1.251 . S
O302 Sm273 2.396 1_655 S
O302 C291 1.252 . S
O303 Sm272 2.408 1_655 S
O303 C291 1.272 1_554 S
H304 C276 0.930 . S
H305 C277 0.929 . S
H306 C279 0.930 . S
H307 C280 0.929 . S
H308 C285 0.930 . S
H309 C286 0.929 . S
H310 C288 0.930 . S
H311 C289 0.929 . S
C6 C158 1.783 . S
C21 C207 1.934 . S
C242 C49 3.312 . S
C68 C281 3.129 . S
C202 C2 3.841 . S
C161 C30 2.769 1_445 S
C291 C40 3.152 . S
C250 C63 2.738 . S
C11 C278 1.870 . S
C210 C44 3.930 1_554 S
C59 C171 2.904 . S
C25 C247 3.589 . S
C167 C82 1.149 . S
C101 C198 2.392 . S
C125 C251 3.254 . S
C144 C290 3.177 . S
C87 C211 3.920 1_556 S
C170 C97 1.701 . S
C282 C120 2.466 . S
C241 C135 2.756 . S
C78 C287 3.079 . S
C201 C116 2.761 . S
C162 C139 4.009 . S
C106 C238 1.471 . S
