# Generated by pormake.
# Topology ssa, (4,4)-cn, num edge types: 1
# Building blocks:
#     Node 0, Type 0, BuildingBlock: IZENUY_clean_linker_0, # of connection points: 4
#     Node 1, Type 0, BuildingBlock: IZENUY_clean_linker_0, # of connection points: 4
#     Node 2, Type 0, BuildingBlock: IZENUY_clean_linker_0, # of connection points: 4
#     Node 3, Type 0, BuildingBlock: IZENUY_clean_linker_0, # of connection points: 4
#     Node 4, Type 0, BuildingBlock: IZENUY_clean_linker_0, # of connection points: 4
#     Node 5, Type 0, BuildingBlock: IZENUY_clean_linker_0, # of connection points: 4
#     Node 6, Type 1, BuildingBlock: ESEHIV_clean_sbu_0, # of connection points: 4
#     Node 7, Type 1, BuildingBlock: ESEHIV_clean_sbu_0, # of connection points: 4
#     Node 8, Type 1, BuildingBlock: ESEHIV_clean_sbu_0, # of connection points: 4
#     Node 9, Type 1, BuildingBlock: ESEHIV_clean_sbu_0, # of connection points: 4
#     Node 10, Type 1, BuildingBlock: ESEHIV_clean_sbu_0, # of connection points: 4
#     Node 11, Type 1, BuildingBlock: ESEHIV_clean_sbu_0, # of connection points: 4
#     Edge 12, Type (0, 1), BuildingBlock: OJICUG_clean_linker_0, # of connection points: 2
#     Edge 13, Type (0, 1), BuildingBlock: OJICUG_clean_linker_0, # of connection points: 2
#     Edge 14, Type (0, 1), BuildingBlock: OJICUG_clean_linker_0, # of connection points: 2
#     Edge 15, Type (0, 1), BuildingBlock: OJICUG_clean_linker_0, # of connection points: 2
#     Edge 16, Type (0, 1), BuildingBlock: OJICUG_clean_linker_0, # of connection points: 2
#     Edge 17, Type (0, 1), BuildingBlock: OJICUG_clean_linker_0, # of connection points: 2
#     Edge 18, Type (0, 1), BuildingBlock: OJICUG_clean_linker_0, # of connection points: 2
#     Edge 19, Type (0, 1), BuildingBlock: OJICUG_clean_linker_0, # of connection points: 2
#     Edge 20, Type (0, 1), BuildingBlock: OJICUG_clean_linker_0, # of connection points: 2
#     Edge 21, Type (0, 1), BuildingBlock: OJICUG_clean_linker_0, # of connection points: 2
#     Edge 22, Type (0, 1), BuildingBlock: OJICUG_clean_linker_0, # of connection points: 2
#     Edge 23, Type (0, 1), BuildingBlock: OJICUG_clean_linker_0, # of connection points: 2
#     Edge 24, Type (0, 1), BuildingBlock: OJICUG_clean_linker_0, # of connection points: 2
#     Edge 25, Type (0, 1), BuildingBlock: OJICUG_clean_linker_0, # of connection points: 2
#     Edge 26, Type (0, 1), BuildingBlock: OJICUG_clean_linker_0, # of connection points: 2
#     Edge 27, Type (0, 1), BuildingBlock: OJICUG_clean_linker_0, # of connection points: 2
#     Edge 28, Type (0, 1), BuildingBlock: OJICUG_clean_linker_0, # of connection points: 2
#     Edge 29, Type (0, 1), BuildingBlock: OJICUG_clean_linker_0, # of connection points: 2
#     Edge 30, Type (0, 1), BuildingBlock: OJICUG_clean_linker_0, # of connection points: 2
#     Edge 31, Type (0, 1), BuildingBlock: OJICUG_clean_linker_0, # of connection points: 2
#     Edge 32, Type (0, 1), BuildingBlock: OJICUG_clean_linker_0, # of connection points: 2
#     Edge 33, Type (0, 1), BuildingBlock: OJICUG_clean_linker_0, # of connection points: 2
#     Edge 34, Type (0, 1), BuildingBlock: OJICUG_clean_linker_0, # of connection points: 2
#     Edge 35, Type (0, 1), BuildingBlock: OJICUG_clean_linker_0, # of connection points: 2
# Relax obj value: 0.015
# Max RMSD: 0.094
# Mean RMSD: 0.063
data_MOF--net-ssa--node1-ESEHIV_clean_sbu_0--node2-IZENUY_clean_linker_0--edge1-OJICUG_clean_linker_0
_symmetry_space_group_name_H-M    P1
_symmetry_Int_Tables_number       1
_symmetry_cell_setting            triclinic
loop_
_symmetry_equiv_pos_as_xyz
'x, y, z'
_cell_length_a     41.449061
_cell_length_b     40.63337
_cell_length_c     25.805577
_cell_angle_alpha  92.321735
_cell_angle_beta   89.186858
_cell_angle_gamma 120.4751
loop_
_atom_site_label
_atom_site_type_symbol
_atom_site_fract_x
_atom_site_fract_y
_atom_site_fract_z
_atom_type_partial_charge
H0 H 0.96472 0.45961 1.09568 0.0
H1 H 0.96699 0.56689 1.09978 0.0
H2 H 0.87574 0.46686 1.02445 0.0
H3 H 0.0733 0.58793 0.12655 0.0
H4 H 0.05256 0.48669 0.20341 0.0
H5 H 0.16175 0.58801 0.2104 0.0
N6 N 0.00593 0.53363 0.12611 0.0
N7 N 0.02041 0.51565 0.14365 0.0
C8 C 0.95154 0.47609 1.08773 0.0
C9 C 0.91817 0.45891 1.05892 0.0
C10 C 0.96952 0.51506 1.1026 0.0
C11 C 0.95284 0.53666 1.08926 0.0
C12 C 0.91815 0.51933 1.06213 0.0
C13 C 0.9014 0.48038 1.04716 0.0
C14 C 0.08303 0.57295 0.14964 0.0
C15 C 0.12028 0.59209 0.16676 0.0
C16 C 0.05824 0.5349 0.1624 0.0
C17 C 0.07159 0.51589 0.193 0.0
C18 C 0.10917 0.53528 0.21151 0.0
C19 C 0.13302 0.57288 0.19667 0.0
H20 H 0.5914 0.03879 0.61719 0.0
H21 H 0.49372 0.0505 0.60577 0.0
H22 H 0.5779 0.1147 0.72313 0.0
H23 H 0.47075 0.94912 0.5313 0.0
H24 H 0.57963 0.9684 0.4866 0.0
H25 H 0.47951 0.86606 0.43382 0.0
N26 N 0.52584 0.01111 0.56659 0.0
N27 N 0.5443 0.99716 0.54634 0.0
C28 C 0.57553 0.05216 0.62964 0.0
C29 C 0.58816 0.07776 0.67258 0.0
C30 C 0.54133 0.04172 0.6052 0.0
C31 C 0.52042 0.05888 0.62363 0.0
C32 C 0.53337 0.08551 0.66667 0.0
C33 C 0.56737 0.09446 0.69024 0.0
C34 C 0.48816 0.94043 0.51017 0.0
C35 C 0.47111 0.90528 0.48242 0.0
C36 C 0.52731 0.96351 0.51274 0.0
C37 C 0.54939 0.951 0.48508 0.0
C38 C 0.53209 0.91546 0.45644 0.0
C39 C 0.49305 0.893 0.4561 0.0
H40 H 0.42911 0.4079 1.00156 0.0
H41 H 0.54537 0.4973 1.00429 0.0
H42 H 0.50941 0.39725 0.90538 0.0
H43 H 0.49468 0.54635 1.09416 0.0
H44 H 0.3937 0.44141 0.12994 0.0
H45 H 0.42216 0.54516 0.2164 0.0
N46 N 0.48052 0.47991 1.04392 0.0
N47 N 0.45047 0.46845 1.06771 0.0
C48 C 0.45739 0.4198 0.98724 0.0
C49 C 0.46564 0.39866 0.94947 0.0
C50 C 0.4863 0.45649 1.00612 0.0
C51 C 0.52299 0.47019 0.98861 0.0
C52 C 0.53135 0.44883 0.95257 0.0
C53 C 0.50255 0.41401 0.93228 0.0
C54 C 0.46959 0.53099 0.11698 0.0
C55 C 0.46104 0.551 0.15632 0.0
C56 C 0.44463 0.49102 1.1068 0.0
C57 C 0.41232 0.47185 0.13696 0.0
C58 C 0.40457 0.49092 0.17722 0.0
C59 C 0.42866 0.5303 0.18589 0.0
H60 H 0.01389 0.4808 0.57424 0.0
H61 H 0.01565 0.58648 0.5537 0.0
H62 H 0.1057 0.57195 0.49516 0.0
H63 H 0.92294 0.52441 0.62894 0.0
H64 H 0.91779 0.41868 0.66124 0.0
H65 H 0.83278 0.44189 0.71894 0.0
N66 N 0.97584 0.5177 0.59411 0.0
N67 N 0.95844 0.48522 0.61305 0.0
C68 C 0.02715 0.50928 0.55935 0.0
C69 C 0.06161 0.52387 0.534 0.0
C70 C 0.0104 0.53172 0.56694 0.0
C71 C 0.02851 0.56913 0.54791 0.0
C72 C 0.06282 0.58395 0.52098 0.0
C73 C 0.07905 0.5609 0.51472 0.0
C74 C 0.90898 0.49668 0.64613 0.0
C75 C 0.87657 0.4859 0.67499 0.0
C76 C 0.92409 0.47268 0.64051 0.0
C77 C 0.90563 0.43679 0.66432 0.0
C78 C 0.87238 0.42516 0.69348 0.0
C79 C 0.85804 0.44996 0.69712 0.0
H80 H 0.46554 0.08592 0.12695 0.0
H81 H 0.55786 0.06644 1.09818 0.0
H82 H 0.56097 0.16583 1.04129 0.0
H83 H 0.48171 0.97424 0.17992 0.0
H84 H 0.39709 1.00238 0.22357 0.0
H85 H 0.38597 0.89613 0.26723 0.0
N86 N 0.49156 0.03821 0.14734 0.0
N87 N 0.46129 0.02778 0.17072 0.0
C88 C 0.4933 0.09506 0.11214 0.0
C89 C 0.51196 0.1288 1.08459 0.0
C90 C 0.5102 0.07278 0.1192 0.0
C91 C 0.54545 0.08423 1.09561 0.0
C92 C 0.56396 0.11822 1.0676 0.0
C93 C 0.54734 0.14043 1.06415 0.0
C94 C 0.45572 0.96738 0.19904 0.0
C95 C 0.43529 0.93237 0.22355 0.0
C96 C 0.44199 0.99288 0.19804 0.0
C97 C 0.40783 0.983 0.22366 0.0
C98 C 0.38738 0.94786 0.24865 0.0
C99 C 0.40143 0.92302 0.24787 0.0
H100 H 0.42762 0.50938 0.63399 0.0
H101 H 0.5357 0.61278 0.6243 0.0
H102 H 0.443 0.59985 0.53654 0.0
H103 H 0.59009 0.60399 0.75325 0.0
H104 H 0.512 0.48963 0.69427 0.0
H105 H 0.60111 0.50912 0.7967 0.0
N106 N 0.49918 0.54368 0.66835 0.0
N107 N 0.53046 0.56395 0.69026 0.0
C108 C 0.44518 0.53755 0.619 0.0
C109 C 0.42966 0.55245 0.58454 0.0
C110 C 0.48353 0.55939 0.63462 0.0
C111 C 0.50627 0.59587 0.61415 0.0
C112 C 0.49123 0.61001 0.57903 0.0
C113 C 0.45351 0.58849 0.56489 0.0
C114 C 0.57987 0.57358 0.752 0.0
C115 C 0.59861 0.55928 0.78102 0.0
C116 C 0.54784 0.54854 0.72122 0.0
C117 C 0.53558 0.5091 0.71876 0.0
C118 C 0.55532 0.49514 0.74537 0.0
C119 C 0.58597 0.52017 0.77671 0.0
Cu120 Cu 0.22829 0.46795 0.40901 0.0
N121 N 0.23959 0.43769 0.36483 0.0
N122 N 0.27621 0.42892 0.30843 0.0
C123 C 0.27416 0.45214 0.34534 0.0
C124 C 0.24128 0.3983 0.30426 0.0
C125 C 0.21866 0.40368 0.33952 0.0
O126 O 0.27323 0.49743 0.45417 0.0
C127 C 0.18236 0.47453 0.33678 0.0
O128 O 0.16724 0.43729 0.33744 0.0
H129 H 0.29693 0.48054 0.3558 0.0
H130 H 0.18887 0.38502 0.34432 0.0
N131 N 0.18755 0.44251 0.4525 0.0
N132 N 0.14033 0.44349 0.49421 0.0
C133 C 0.17649 0.46372 0.48002 0.0
C134 C 0.15757 0.40695 0.44982 0.0
C135 C 0.12832 0.40746 0.47575 0.0
C136 C 0.28478 0.47809 0.47791 0.0
O137 O 0.26563 0.44066 0.472 0.0
H138 H 0.19329 0.4946 0.48286 0.0
H139 H 0.15571 0.38354 0.42599 0.0
O140 O 0.21182 0.49556 0.36458 0.0
H141 H 0.2325 0.37442 0.27675 0.0
H142 H 0.09974 0.38392 0.47695 0.0
Cu143 Cu 0.76176 0.23298 0.88662 0.0
N144 N 0.7538 0.18951 0.84751 0.0
N145 N 0.71957 0.13887 0.79426 0.0
C146 C 0.71931 0.16291 0.83134 0.0
C147 C 0.75597 0.15028 0.78685 0.0
C148 C 0.77713 0.18125 0.8206 0.0
O149 O 0.72037 0.21445 0.9376 0.0
C150 C 0.79641 0.28267 0.80494 0.0
O151 O 0.81332 0.26278 0.802 0.0
H152 H 0.69441 0.16325 0.84267 0.0
H153 H 0.80735 0.19812 0.82243 0.0
N154 N 0.80549 0.25623 0.92602 0.0
N155 N 0.85055 0.30603 0.97144 0.0
C156 C 0.82483 0.29436 0.93328 0.0
C157 C 0.81931 0.24278 0.96092 0.0
C158 C 0.84733 0.27364 0.98914 0.0
C159 C 0.68571 0.20113 0.92795 0.0
O160 O 0.67566 0.20584 0.88206 0.0
H161 H 0.81762 0.31297 0.91409 0.0
H162 H 0.80815 0.21284 0.96782 0.0
O163 O 0.77012 0.27347 0.83826 0.0
H164 H 0.76655 0.13858 0.75732 0.0
H165 H 0.86273 0.27217 1.02161 0.0
Cu166 Cu 0.52904 0.76754 0.30482 0.0
N167 N 0.49502 0.78228 0.28614 0.0
N168 N 0.46892 0.81529 0.25982 0.0
C169 C 0.50126 0.81637 0.27076 0.0
C170 C 0.44151 0.77921 0.26873 0.0
C171 C 0.45768 0.75899 0.28475 0.0
O172 O 0.58007 0.81192 0.30137 0.0
C173 C 0.53569 0.7041 0.25302 0.0
O174 O 0.56645 0.71586 0.28018 0.0
H175 H 0.52883 0.84117 0.2668 0.0
H176 H 0.44327 0.72935 0.29508 0.0
N177 N 0.51906 0.75147 0.37283 0.0
N178 N 0.51966 0.72648 0.44817 0.0
C179 C 0.53345 0.73399 0.39952 0.0
C180 C 0.49525 0.75494 0.40543 0.0
C181 C 0.49565 0.73971 0.45186 0.0
C182 C 0.5966 0.84663 0.31971 0.0
O183 O 0.63128 0.8696 0.30542 0.0
H184 H 0.55325 0.72657 0.38336 0.0
H185 H 0.47869 0.76761 0.396 0.0
O186 O 0.51837 0.72274 0.25761 0.0
H187 H 0.41177 0.76832 0.26498 0.0
H188 H 0.47829 0.73709 0.48497 0.0
Cu189 Cu 0.77847 0.57802 0.90706 0.0
N190 N 0.80613 0.59045 0.84617 0.0
N191 N 0.8307 0.58173 0.77327 0.0
C192 C 0.80473 0.56494 0.81029 0.0
C193 C 0.84915 0.61942 0.78624 0.0
C194 C 0.83381 0.62475 0.83125 0.0
O195 O 0.80977 0.57876 0.96598 0.0
C196 C 0.74348 0.6195 0.8729 0.0
O197 O 0.7697 0.63308 0.83765 0.0
H198 H 0.78696 0.53436 0.81354 0.0
H199 H 0.84331 0.65145 0.85297 0.0
N200 N 0.7409 0.52699 0.90079 0.0
N201 N 0.68047 0.48288 0.90744 0.0
C202 C 0.70564 0.51619 0.88697 0.0
C203 C 0.73814 0.49861 0.92912 0.0
C204 C 0.70079 0.47142 0.93355 0.0
C205 C 0.84507 0.59131 0.96348 0.0
O206 O 0.86401 0.61253 0.92473 0.0
H207 H 0.69816 0.53506 0.8693 0.0
H208 H 0.76093 0.50014 0.95107 0.0
O209 O 0.74755 0.60291 0.91149 0.0
H210 H 0.87316 0.64122 0.76618 0.0
H211 H 0.68929 0.4477 0.95924 0.0
Cu212 Cu 0.22011 0.78575 0.37866 0.0
N213 N 0.2278 0.76841 0.3151 0.0
N214 N 0.21399 0.73855 0.23741 0.0
C215 C 0.20047 0.74351 0.28302 0.0
C216 C 0.25152 0.7613 0.24105 0.0
C217 C 0.25995 0.7802 0.28899 0.0
O218 O 0.17049 0.74457 0.40221 0.0
C219 C 0.25822 0.8679 0.37796 0.0
O220 O 0.26663 0.87062 0.42744 0.0
H221 H 0.17123 0.72842 0.29373 0.0
H222 H 0.28747 0.8011 0.30368 0.0
N223 N 0.25667 0.7896 0.42331 0.0
N224 N 0.31288 0.81108 0.45832 0.0
C225 C 0.2932 0.81586 0.42146 0.0
C226 C 0.25325 0.76654 0.46169 0.0
C227 C 0.28807 0.77986 0.48358 0.0
C228 C 0.15858 0.73862 0.44889 0.0
O229 O 0.17662 0.76553 0.48489 0.0
H230 H 0.30531 0.83766 0.39293 0.0
H231 H 0.22742 0.74158 0.47265 0.0
O232 O 0.23026 0.83676 0.3601 0.0
H233 H 0.27137 0.76363 0.21162 0.0
H234 H 0.29459 0.76782 0.51568 0.0
Cu235 Cu 0.46887 0.23832 0.81013 0.0
N236 N 0.50316 0.28251 0.77718 0.0
N237 N 0.52703 0.34184 0.74969 0.0
C238 C 0.50369 0.31581 0.78319 0.0
C239 C 0.5424 0.32441 0.72192 0.0
C240 C 0.52735 0.28759 0.73874 0.0
O241 O 0.42661 0.24742 0.82157 0.0
C242 C 0.49001 0.18566 0.77088 0.0
O243 O 0.51858 0.20752 0.80166 0.0
H244 H 0.48683 0.32064 0.81125 0.0
H245 H 0.53252 0.2657 0.72269 0.0
N246 N 0.48665 0.23977 0.87666 0.0
N247 N 0.48908 0.22097 0.95611 0.0
C248 C 0.47814 0.20988 0.90615 0.0
C249 C 0.50358 0.27086 0.90872 0.0
C250 C 0.50529 0.25945 0.95759 0.0
C251 C 0.41446 0.24821 0.86732 0.0
O252 O 0.4129 0.22374 0.90042 0.0
H253 H 0.46337 0.1806 0.89121 0.0
H254 H 0.51226 0.29961 0.89786 0.0
O255 O 0.4633 0.1929 0.76837 0.0
H256 H 0.56191 0.3368 0.69038 0.0
H257 H 0.51667 0.27816 0.99171 0.0
C258 C 0.15068 0.54087 0.28671 0.0
C259 C 0.12493 0.51812 0.24681 0.0
H260 H 0.18955 0.54578 0.34513 0.0
C261 C 0.11769 0.48063 0.23824 0.0
H262 H 0.15643 0.56963 0.29564 0.0
C263 C 0.13652 0.46687 0.26734 0.0
C264 C 0.16337 0.49023 0.30565 0.0
H265 H 0.0984 0.46231 0.20791 0.0
H266 H 0.13042 0.43791 0.25911 0.0
C267 C 0.16988 0.52732 0.31524 0.0
C268 C 0.61976 0.08074 0.75527 0.0
C269 C 0.6221 0.08591 0.70167 0.0
H270 H 0.64971 0.09249 0.8268 0.0
C271 C 0.65725 0.10215 0.67764 0.0
H272 H 0.59289 0.06773 0.77451 0.0
C273 C 0.68991 0.11641 0.70773 0.0
C274 C 0.68759 0.11432 0.76202 0.0
H275 H 0.65961 0.10625 0.63624 0.0
H276 H 0.71688 0.13185 0.68913 0.0
C277 C 0.65216 0.09459 0.78506 0.0
C278 C 0.46769 0.61592 0.16985 0.0
C279 C 0.4845 0.59317 0.16942 0.0
H280 H 0.47023 0.66809 0.19574 0.0
C281 C 0.5201 0.60891 0.19251 0.0
H282 H 0.44004 0.60453 0.15313 0.0
C283 C 0.53738 0.64546 0.21771 0.0
C284 C 0.51955 0.66734 0.2206 0.0
H285 H 0.53352 0.592 0.194 0.0
H286 H 0.56409 0.65586 0.23685 0.0
C287 C 0.48492 0.65236 0.1948 0.0
C288 C 0.82647 0.50226 0.69115 0.0
C289 C 0.86464 0.51393 0.68815 0.0
H290 H 0.78565 0.51558 0.72037 0.0
C291 C 0.89139 0.55128 0.70511 0.0
H292 H 0.80526 0.47394 0.67735 0.0
C293 C 0.88015 0.57513 0.72911 0.0
C294 C 0.842 0.56191 0.73693 0.0
H295 H 0.92103 0.56106 0.70371 0.0
H296 H 0.90135 0.60254 0.74549 0.0
C297 C 0.81525 0.52605 0.71552 0.0
C298 C 0.35215 0.94709 0.32904 0.0
C299 C 0.35149 0.93543 0.27687 0.0
H300 H 0.32323 0.93539 0.40168 0.0
C301 C 0.31795 0.90447 0.2566 0.0
H302 H 0.37785 0.97009 0.34618 0.0
C303 C 0.28651 0.88441 0.28832 0.0
C304 C 0.28795 0.89433 0.34157 0.0
H305 H 0.31689 0.89415 0.21692 0.0
H306 H 0.262 0.85949 0.27181 0.0
C307 C 0.32082 0.92686 0.36096 0.0
C308 C 0.51066 0.42493 0.7537 0.0
C309 C 0.54595 0.4548 0.73964 0.0
H310 H 0.47692 0.36525 0.76769 0.0
C311 C 0.57413 0.44656 0.72584 0.0
H312 H 0.48863 0.43063 0.76495 0.0
C313 C 0.56762 0.40938 0.72776 0.0
C314 C 0.53288 0.37965 0.74397 0.0
H315 H 0.60166 0.46922 0.71501 0.0
H316 H 0.59023 0.40417 0.71846 0.0
C317 C 0.50423 0.38769 0.75602 0.0
C318 C 0.54925 0.86504 0.43627 0.0
C319 C 0.55292 0.90049 0.42513 0.0
H320 H 0.56179 0.8213 0.41318 0.0
C321 C 0.57046 0.91744 0.37874 0.0
H322 H 0.53562 0.85107 0.47158 0.0
C323 C 0.58343 0.89913 0.34408 0.0
C324 C 0.5789 0.86321 0.35455 0.0
H325 H 0.57294 0.9442 0.36837 0.0
H326 H 0.59679 0.91298 0.30858 0.0
C327 C 0.56277 0.84707 0.4019 0.0
C328 C 0.59572 0.46693 0.9807 0.0
C329 C 0.57049 0.46002 0.9403 0.0
H330 H 0.65047 0.47855 1.0015 0.0
C331 C 0.5817 0.45972 0.88866 0.0
H332 H 0.58753 0.46665 1.02081 0.0
C333 C 0.61774 0.46667 0.87769 0.0
C334 C 0.64257 0.47274 0.91822 0.0
H335 H 0.56252 0.45403 0.85693 0.0
H336 H 0.62627 0.46713 0.83773 0.0
C337 C 0.63133 0.47295 0.96975 0.0
C338 C 0.0902 0.65571 0.53181 0.0
C339 C 0.0828 0.62355 0.5002 0.0
H340 H 0.11981 0.717 0.54072 0.0
C341 C 0.09761 0.62979 0.44965 0.0
H342 H 0.07952 0.65209 0.57099 0.0
C343 C 0.12026 0.66698 0.43193 0.0
C344 C 0.1294 0.69924 0.4645 0.0
H345 H 0.09235 0.60575 0.42406 0.0
H346 H 0.13202 0.6704 0.39342 0.0
C347 C 0.11345 0.69299 0.5144 0.0
C348 C 0.51264 0.18961 1.07727 0.0
C349 C 0.49384 0.14988 1.06793 0.0
H350 H 0.52666 0.24358 1.0485 0.0
C351 C 0.46719 0.13358 1.02783 0.0
H352 H 0.5336 0.2028 1.10777 0.0
C353 C 0.46331 0.15697 0.99319 0.0
C354 C 0.48616 0.19705 0.99806 0.0
H355 H 0.45255 0.103 1.01964 0.0
H356 H 0.44426 0.14346 0.96072 0.0
C357 C 0.50898 0.21301 1.04257 0.0
C358 C 0.37089 0.55151 0.55594 0.0
C359 C 0.38967 0.5313 0.56523 0.0
H360 H 0.32419 0.55141 0.52045 0.0
C361 C 0.37189 0.49261 0.54886 0.0
H362 H 0.38312 0.58117 0.56887 0.0
C363 C 0.33755 0.47538 0.52171 0.0
C364 C 0.32013 0.4964 0.50962 0.0
H365 H 0.38533 0.47611 0.55472 0.0
H366 H 0.32531 0.44579 0.50851 0.0
C367 C 0.337 0.53453 0.52801 0.0
C368 C 0.89463 0.41235 0.98345 0.0
C369 C 0.90267 0.41953 1.03668 0.0
H370 H 0.87349 0.37099 0.92065 0.0
C371 C 0.89652 0.38922 1.06768 0.0
H372 H 0.90008 0.43537 0.95841 0.0
C373 C 0.88083 0.35198 1.04609 0.0
C374 C 0.8714 0.34459 0.99304 0.0
H375 H 0.90282 0.39416 1.10883 0.0
H376 H 0.8748 0.3289 1.07125 0.0
C377 C 0.87949 0.37545 0.96185 0.0
C378 C 0.9211 0.57653 1.02109 0.0
C379 C 0.90011 0.54145 1.04529 0.0
H380 H 0.92037 0.61975 0.97683 0.0
C381 C 0.86091 0.52548 1.04792 0.0
H382 H 0.95118 0.58964 1.01786 0.0
C383 C 0.84311 0.54292 1.02464 0.0
C384 C 0.8639 0.5767 0.99745 0.0
H385 H 0.84376 0.49866 1.06662 0.0
H386 H 0.81285 0.52879 1.02563 0.0
C387 C 0.90327 0.59374 0.99729 0.0
C388 C 0.40857 0.89733 0.46552 0.0
C389 C 0.43004 0.88138 0.4799 0.0
H390 H 0.35401 0.8871 0.44761 0.0
C391 C 0.41227 0.84223 0.48959 0.0
H392 H 0.42175 0.92741 0.4576 0.0
C393 C 0.37354 0.8192 0.48399 0.0
C394 C 0.35223 0.83494 0.46796 0.0
H395 H 0.4284 0.82945 0.50101 0.0
H396 H 0.36042 0.78894 0.49053 0.0
C397 C 0.36999 0.87425 0.45938 0.0
C398 C 0.43357 0.35041 0.87642 0.0
C399 C 0.43866 0.35871 0.93031 0.0
H400 H 0.421 0.30893 0.81405 0.0
C401 C 0.42829 0.32825 0.9632 0.0
H402 H 0.44183 0.37336 0.84996 0.0
C403 C 0.41694 0.29135 0.94257 0.0
C404 C 0.41586 0.28395 0.88844 0.0
H405 H 0.43255 0.33371 1.0047 0.0
H406 H 0.41208 0.26943 0.96927 0.0
C407 C 0.42208 0.3135 0.85578 0.0
C408 C 0.06159 0.464 0.50535 0.0
C409 C 0.08017 0.5009 0.52875 0.0
H410 H 0.06619 0.41657 0.4756 0.0
C411 C 0.11716 0.5164 0.54605 0.0
H412 H 0.03294 0.45141 0.49189 0.0
C413 C 0.13587 0.49618 0.538 0.0
C414 C 0.11835 0.46031 0.51139 0.0
H415 H 0.13182 0.54447 0.56518 0.0
H416 H 0.16461 0.50928 0.55113 0.0
C417 C 0.08057 0.44394 0.49645 0.0
C418 C 0.59261 0.12404 0.98087 0.0
C419 C 0.59784 0.13022 1.03489 0.0
H420 H 0.6156 0.14191 0.90535 0.0
C421 C 0.63347 0.15821 1.05379 0.0
H422 H 0.56522 0.10364 0.96503 0.0
C423 C 0.66265 0.18038 1.01938 0.0
C424 C 0.65639 0.17594 0.96535 0.0
H425 H 0.638 0.16469 1.09509 0.0
H426 H 0.68942 0.20243 1.0351 0.0
C427 C 0.6213 0.1467 0.94666 0.0
C428 C 0.51098 0.67809 0.57196 0.0
C429 C 0.51371 0.64664 0.55369 0.0
H430 H 0.51167 0.72909 0.55244 0.0
C431 C 0.5259 0.64607 0.50283 0.0
H432 H 0.50096 0.6787 0.6108 0.0
C433 C 0.53119 0.67439 0.46896 0.0
C434 C 0.52415 0.70356 0.48548 0.0
H435 H 0.52732 0.62158 0.48769 0.0
H436 H 0.53725 0.67124 0.42876 0.0
C437 C 0.51635 0.70645 0.53819 0.0
C438 C 0.50801 0.10409 0.74467 0.0
C439 C 0.51228 0.10371 0.69037 0.0
H440 H 0.49733 0.12976 0.81197 0.0
C441 C 0.5024 0.12624 0.66178 0.0
H442 H 0.51511 0.08711 0.76815 0.0
C443 C 0.49147 0.15062 0.68735 0.0
C444 C 0.49024 0.15298 0.742 0.0
H445 H 0.50573 0.12713 0.62008 0.0
H446 H 0.48678 0.16966 0.66462 0.0
C447 C 0.4976 0.12849 0.76994 0.0
C448 C 0.37568 0.47743 0.26518 0.0
C449 C 0.37161 0.47012 0.2113 0.0
H450 H 0.3484 0.46912 0.33841 0.0
C451 C 0.33576 0.44486 0.19054 0.0
H452 H 0.40304 0.49602 0.28247 0.0
C453 C 0.30431 0.42928 0.22283 0.0
C454 C 0.30832 0.43877 0.27629 0.0
H455 H 0.33181 0.43871 0.14913 0.0
H456 H 0.27678 0.41166 0.20564 0.0
C457 C 0.34444 0.46195 0.29723 0.0
C458 C 0.85079 0.35467 0.70152 0.0
C459 C 0.85256 0.38819 0.72184 0.0
H460 H 0.83118 0.29524 0.71122 0.0
C461 C 0.83389 0.38582 0.76924 0.0
H462 H 0.86426 0.35486 0.66519 0.0
C463 C 0.81376 0.35123 0.79474 0.0
C464 C 0.8124 0.31802 0.77451 0.0
H465 H 0.83534 0.41096 0.7876 0.0
H466 H 0.80064 0.35091 0.83148 0.0
C467 C 0.83127 0.32025 0.72765 0.0
C468 C 0.48151 0.91327 0.2496 0.0
C469 C 0.44811 0.90437 0.22429 0.0
H470 H 0.51425 0.89151 0.28146 0.0
C471 C 0.42388 0.86666 0.20622 0.0
H472 H 0.50038 0.94212 0.26439 0.0
C473 C 0.43172 0.8379 0.21581 0.0
C474 C 0.46385 0.84606 0.24406 0.0
H475 H 0.39801 0.85916 0.18645 0.0
H476 H 0.41198 0.80899 0.20231 0.0
C477 C 0.48933 0.8843 0.25946 0.0
C478 C 0.63764 0.57244 0.86169 0.0
C479 C 0.63359 0.58385 0.81236 0.0
H480 H 0.67521 0.57524 0.92044 0.0
C481 C 0.66559 0.6131 0.7891 0.0
H482 H 0.61349 0.55001 0.88086 0.0
C483 C 0.70114 0.62749 0.81177 0.0
C484 C 0.70566 0.613 0.85831 0.0
H485 H 0.66363 0.62242 0.75114 0.0
H486 H 0.72538 0.64792 0.79057 0.0
C487 C 0.67315 0.58694 0.8845 0.0
C488 C 0.18352 0.65026 0.15737 0.0
C489 C 0.14453 0.6339 0.1621 0.0
H490 H 0.23717 0.69765 0.1788 0.0
C491 C 0.13008 0.65764 0.17606 0.0
H492 H 0.19538 0.63288 0.14486 0.0
C493 C 0.15408 0.69498 0.19422 0.0
C494 C 0.19257 0.70869 0.19941 0.0
H495 H 0.10021 0.64623 0.17931 0.0
H496 H 0.1421 0.71152 0.20986 0.0
C497 C 0.20751 0.68747 0.17642 0.0
loop_
_geom_bond_atom_site_label_1
_geom_bond_atom_site_label_2
_geom_bond_distance
_geom_bond_site_symmetry_2
_ccdc_geom_bond_type
H0 C8 0.940 . S
H1 C11 0.940 . S
H2 C13 0.940 . S
H3 C14 0.940 . S
H4 C17 0.940 . S
H5 C19 0.940 . S
N6 N7 1.190 1_655 S
N6 C10 1.477 1_554 S
N7 N6 1.190 1_455 S
N7 C16 1.477 . S
C8 H0 0.940 . S
C8 C9 1.390 . S
C8 C10 1.322 . S
C9 C8 1.390 . S
C9 C13 1.370 . S
C10 N6 1.477 1_556 S
C10 C8 1.322 . S
C10 C11 1.447 . S
C11 H1 0.940 . S
C11 C10 1.447 . S
C11 C12 1.373 . S
C12 C11 1.373 . S
C12 C13 1.417 . S
C13 H2 0.940 . S
C13 C9 1.370 . S
C13 C12 1.417 . S
C14 H3 0.940 . S
C14 C15 1.390 . S
C14 C16 1.322 . S
C15 C14 1.390 . S
C15 C19 1.370 . S
C16 N7 1.477 . S
C16 C14 1.322 . S
C16 C17 1.447 . S
C17 H4 0.940 . S
C17 C16 1.447 . S
C17 C18 1.373 . S
C18 C17 1.373 . S
C18 C19 1.417 . S
C19 H5 0.940 . S
C19 C15 1.370 . S
C19 C18 1.417 . S
H20 C28 0.940 . S
H21 C31 0.940 . S
H22 C33 0.940 . S
H23 C34 0.940 . S
H24 C37 0.940 . S
H25 C39 0.940 . S
N26 N27 1.190 . S
N26 C30 1.477 . S
N27 N26 1.190 . S
N27 C36 1.477 1_545 S
C28 H20 0.940 . S
C28 C29 1.390 . S
C28 C30 1.322 . S
C29 C28 1.390 . S
C29 C33 1.370 . S
C30 N26 1.477 . S
C30 C28 1.322 . S
C30 C31 1.447 . S
C31 H21 0.940 . S
C31 C30 1.447 . S
C31 C32 1.373 . S
C32 C31 1.373 . S
C32 C33 1.417 . S
C33 H22 0.940 . S
C33 C29 1.370 . S
C33 C32 1.417 . S
C34 H23 0.940 . S
C34 C35 1.390 . S
C34 C36 1.322 . S
C35 C34 1.390 . S
C35 C39 1.370 . S
C36 N27 1.477 1_565 S
C36 C34 1.322 . S
C36 C37 1.447 . S
C37 H24 0.940 . S
C37 C36 1.447 . S
C37 C38 1.373 . S
C38 C37 1.373 . S
C38 C39 1.417 . S
C39 H25 0.940 . S
C39 C35 1.370 . S
C39 C38 1.417 . S
H40 C48 0.940 . S
H41 C51 0.940 . S
H42 C53 0.940 . S
H43 C54 0.940 . S
H44 C57 0.940 . S
H45 C59 0.940 . S
N46 N47 1.187 1_556 S
N46 C50 1.477 . S
N47 N46 1.187 1_554 S
N47 C56 1.482 . S
C48 H40 0.940 . S
C48 C49 1.390 . S
C48 C50 1.322 . S
C49 C48 1.390 . S
C49 C53 1.370 . S
C50 N46 1.477 . S
C50 C48 1.322 . S
C50 C51 1.447 . S
C51 H41 0.940 . S
C51 C50 1.447 . S
C51 C52 1.373 . S
C52 C51 1.373 . S
C52 C53 1.417 . S
C53 H42 0.940 . S
C53 C49 1.370 . S
C53 C52 1.417 . S
C54 H43 0.940 . S
C54 C55 1.390 . S
C54 C56 1.322 . S
C55 C54 1.390 . S
C55 C59 1.370 . S
C56 N47 1.482 . S
C56 C54 1.322 . S
C56 C57 1.447 . S
C57 H44 0.940 . S
C57 C56 1.447 . S
C57 C58 1.373 . S
C58 C57 1.373 . S
C58 C59 1.417 . S
C59 H45 0.940 . S
C59 C55 1.370 . S
C59 C58 1.417 . S
H60 C68 0.940 . S
H61 C71 0.940 . S
H62 C73 0.940 . S
H63 C74 0.940 . S
H64 C77 0.940 . S
H65 C79 0.940 . S
N66 N67 1.189 . S
N66 C70 1.469 1_655 S
N67 N66 1.189 . S
N67 C76 1.477 . S
C68 H60 0.940 . S
C68 C69 1.390 . S
C68 C70 1.322 . S
C69 C68 1.390 . S
C69 C73 1.370 . S
C70 N66 1.469 1_455 S
C70 C68 1.322 . S
C70 C71 1.447 . S
C71 H61 0.940 . S
C71 C70 1.447 . S
C71 C72 1.373 . S
C72 C71 1.373 . S
C72 C73 1.417 . S
C73 H62 0.940 . S
C73 C69 1.370 . S
C73 C72 1.417 . S
C74 H63 0.940 . S
C74 C75 1.390 . S
C74 C76 1.322 . S
C75 C74 1.390 . S
C75 C79 1.370 . S
C76 N67 1.477 . S
C76 C74 1.322 . S
C76 C77 1.447 . S
C77 H64 0.940 . S
C77 C76 1.447 . S
C77 C78 1.373 . S
C78 C77 1.373 . S
C78 C79 1.417 . S
C79 H65 0.940 . S
C79 C75 1.370 . S
C79 C78 1.417 . S
H80 C88 0.940 . S
H81 C91 0.940 . S
H82 C93 0.940 . S
H83 C94 0.940 . S
H84 C97 0.940 . S
H85 C99 0.940 . S
N86 N87 1.190 . S
N86 C90 1.477 1_554 S
N87 N86 1.190 . S
N87 C96 1.477 1_545 S
C88 H80 0.940 . S
C88 C89 1.390 . S
C88 C90 1.322 . S
C89 C88 1.390 . S
C89 C93 1.370 . S
C90 N86 1.477 1_556 S
C90 C88 1.322 . S
C90 C91 1.447 . S
C91 H81 0.940 . S
C91 C90 1.447 . S
C91 C92 1.373 . S
C92 C91 1.373 . S
C92 C93 1.417 . S
C93 H82 0.940 . S
C93 C89 1.370 . S
C93 C92 1.417 . S
C94 H83 0.940 . S
C94 C95 1.390 . S
C94 C96 1.322 . S
C95 C94 1.390 . S
C95 C99 1.370 . S
C96 N87 1.477 1_565 S
C96 C94 1.322 . S
C96 C97 1.447 . S
C97 H84 0.940 . S
C97 C96 1.447 . S
C97 C98 1.373 . S
C98 C97 1.373 . S
C98 C99 1.417 . S
C99 H85 0.940 . S
C99 C95 1.370 . S
C99 C98 1.417 . S
H100 C108 0.940 . S
H101 C111 0.940 . S
H102 C113 0.940 . S
H103 C114 0.940 . S
H104 C117 0.940 . S
H105 C119 0.940 . S
N106 N107 1.190 . S
N106 C110 1.477 . S
N107 N106 1.190 . S
N107 C116 1.477 . S
C108 H100 0.940 . S
C108 C109 1.390 . S
C108 C110 1.322 . S
C109 C108 1.390 . S
C109 C113 1.370 . S
C110 N106 1.477 . S
C110 C108 1.322 . S
C110 C111 1.447 . S
C111 H101 0.940 . S
C111 C110 1.447 . S
C111 C112 1.373 . S
C112 C111 1.373 . S
C112 C113 1.417 . S
C113 H102 0.940 . S
C113 C109 1.370 . S
C113 C112 1.417 . S
C114 H103 0.940 . S
C114 C115 1.390 . S
C114 C116 1.322 . S
C115 C114 1.390 . S
C115 C119 1.370 . S
C116 N107 1.477 . S
C116 C114 1.322 . S
C116 C117 1.447 . S
C117 H104 0.940 . S
C117 C116 1.447 . S
C117 C118 1.373 . S
C118 C117 1.373 . S
C118 C119 1.417 . S
C119 H105 0.940 . S
C119 C115 1.370 . S
C119 C118 1.417 . S
Cu120 N121 1.999 . S
Cu120 O126 1.974 . S
Cu120 N131 1.985 . S
Cu120 O140 1.959 . S
N121 Cu120 1.999 . S
N121 C123 1.263 . S
N121 C125 1.389 . S
N122 C123 1.358 . S
N122 C124 1.400 . S
C123 N121 1.263 . S
C123 N122 1.358 . S
C123 H129 0.930 . S
C124 N122 1.400 . S
C124 C125 1.351 . S
C124 H141 0.930 . S
C125 N121 1.389 . S
C125 C124 1.351 . S
C125 H130 0.930 . S
O126 Cu120 1.974 . S
O126 C136 1.282 . S
C127 O128 1.261 . S
C127 O140 1.251 . S
O128 C127 1.261 . S
H129 C123 0.930 . S
H130 C125 0.930 . S
N131 Cu120 1.985 . S
N131 C133 1.335 . S
N131 C134 1.390 . S
N132 C133 1.345 . S
N132 C135 1.336 . S
C133 N131 1.335 . S
C133 N132 1.345 . S
C133 H138 0.930 . S
C134 N131 1.390 . S
C134 C135 1.346 . S
C134 H139 0.930 . S
C135 N132 1.336 . S
C135 C134 1.346 . S
C135 H142 0.929 . S
C136 O126 1.282 . S
C136 O137 1.216 . S
O137 C136 1.216 . S
H138 C133 0.930 . S
H139 C134 0.930 . S
O140 Cu120 1.959 . S
O140 C127 1.251 . S
H141 C124 0.930 . S
H142 C135 0.929 . S
Cu143 N144 1.999 . S
Cu143 O149 1.974 . S
Cu143 N154 1.985 . S
Cu143 O163 1.959 . S
N144 Cu143 1.999 . S
N144 C146 1.263 . S
N144 C148 1.389 . S
N145 C146 1.358 . S
N145 C147 1.400 . S
C146 N144 1.263 . S
C146 N145 1.358 . S
C146 H152 0.930 . S
C147 N145 1.400 . S
C147 C148 1.351 . S
C147 H164 0.930 . S
C148 N144 1.389 . S
C148 C147 1.351 . S
C148 H153 0.930 . S
O149 Cu143 1.974 . S
O149 C159 1.282 . S
C150 O151 1.261 . S
C150 O163 1.251 . S
O151 C150 1.261 . S
H152 C146 0.930 . S
H153 C148 0.930 . S
N154 Cu143 1.985 . S
N154 C156 1.335 . S
N154 C157 1.390 . S
N155 C156 1.345 . S
N155 C158 1.336 . S
C156 N154 1.335 . S
C156 N155 1.345 . S
C156 H161 0.930 . S
C157 N154 1.390 . S
C157 C158 1.346 . S
C157 H162 0.930 . S
C158 N155 1.336 . S
C158 C157 1.346 . S
C158 H165 0.929 . S
C159 O149 1.282 . S
C159 O160 1.216 . S
O160 C159 1.216 . S
H161 C156 0.930 . S
H162 C157 0.930 . S
O163 Cu143 1.959 . S
O163 C150 1.251 . S
H164 C147 0.930 . S
H165 C158 0.929 . S
Cu166 N167 1.999 . S
Cu166 O172 1.974 . S
Cu166 N177 1.985 . S
Cu166 O186 1.959 . S
N167 Cu166 1.999 . S
N167 C169 1.263 . S
N167 C171 1.389 . S
N168 C169 1.358 . S
N168 C170 1.400 . S
C169 N167 1.263 . S
C169 N168 1.358 . S
C169 H175 0.930 . S
C170 N168 1.400 . S
C170 C171 1.351 . S
C170 H187 0.930 . S
C171 N167 1.389 . S
C171 C170 1.351 . S
C171 H176 0.930 . S
O172 Cu166 1.974 . S
O172 C182 1.282 . S
C173 O174 1.261 . S
C173 O186 1.251 . S
O174 C173 1.261 . S
H175 C169 0.930 . S
H176 C171 0.930 . S
N177 Cu166 1.985 . S
N177 C179 1.335 . S
N177 C180 1.390 . S
N178 C179 1.345 . S
N178 C181 1.336 . S
C179 N177 1.335 . S
C179 N178 1.345 . S
C179 H184 0.930 . S
C180 N177 1.390 . S
C180 C181 1.346 . S
C180 H185 0.930 . S
C181 N178 1.336 . S
C181 C180 1.346 . S
C181 H188 0.929 . S
C182 O172 1.282 . S
C182 O183 1.216 . S
O183 C182 1.216 . S
H184 C179 0.930 . S
H185 C180 0.930 . S
O186 Cu166 1.959 . S
O186 C173 1.251 . S
H187 C170 0.930 . S
H188 C181 0.929 . S
Cu189 N190 1.999 . S
Cu189 O195 1.974 . S
Cu189 N200 1.985 . S
Cu189 O209 1.959 . S
N190 Cu189 1.999 . S
N190 C192 1.263 . S
N190 C194 1.389 . S
N191 C192 1.358 . S
N191 C193 1.400 . S
C192 N190 1.263 . S
C192 N191 1.358 . S
C192 H198 0.930 . S
C193 N191 1.400 . S
C193 C194 1.351 . S
C193 H210 0.930 . S
C194 N190 1.389 . S
C194 C193 1.351 . S
C194 H199 0.930 . S
O195 Cu189 1.974 . S
O195 C205 1.282 . S
C196 O197 1.261 . S
C196 O209 1.251 . S
O197 C196 1.261 . S
H198 C192 0.930 . S
H199 C194 0.930 . S
N200 Cu189 1.985 . S
N200 C202 1.335 . S
N200 C203 1.390 . S
N201 C202 1.345 . S
N201 C204 1.336 . S
C202 N200 1.335 . S
C202 N201 1.345 . S
C202 H207 0.930 . S
C203 N200 1.390 . S
C203 C204 1.346 . S
C203 H208 0.930 . S
C204 N201 1.336 . S
C204 C203 1.346 . S
C204 H211 0.929 . S
C205 O195 1.282 . S
C205 O206 1.216 . S
O206 C205 1.216 . S
H207 C202 0.930 . S
H208 C203 0.930 . S
O209 Cu189 1.959 . S
O209 C196 1.251 . S
H210 C193 0.930 . S
H211 C204 0.929 . S
Cu212 N213 1.999 . S
Cu212 O218 1.974 . S
Cu212 N223 1.985 . S
Cu212 O232 1.959 . S
N213 Cu212 1.999 . S
N213 C215 1.263 . S
N213 C217 1.389 . S
N214 C215 1.358 . S
N214 C216 1.400 . S
C215 N213 1.263 . S
C215 N214 1.358 . S
C215 H221 0.930 . S
C216 N214 1.400 . S
C216 C217 1.351 . S
C216 H233 0.930 . S
C217 N213 1.389 . S
C217 C216 1.351 . S
C217 H222 0.930 . S
O218 Cu212 1.974 . S
O218 C228 1.282 . S
C219 O220 1.261 . S
C219 O232 1.251 . S
O220 C219 1.261 . S
H221 C215 0.930 . S
H222 C217 0.930 . S
N223 Cu212 1.985 . S
N223 C225 1.335 . S
N223 C226 1.390 . S
N224 C225 1.345 . S
N224 C227 1.336 . S
C225 N223 1.335 . S
C225 N224 1.345 . S
C225 H230 0.930 . S
C226 N223 1.390 . S
C226 C227 1.346 . S
C226 H231 0.930 . S
C227 N224 1.336 . S
C227 C226 1.346 . S
C227 H234 0.929 . S
C228 O218 1.282 . S
C228 O229 1.216 . S
O229 C228 1.216 . S
H230 C225 0.930 . S
H231 C226 0.930 . S
O232 Cu212 1.959 . S
O232 C219 1.251 . S
H233 C216 0.930 . S
H234 C227 0.929 . S
Cu235 N236 1.999 . S
Cu235 O241 1.974 . S
Cu235 N246 1.985 . S
Cu235 O255 1.959 . S
N236 Cu235 1.999 . S
N236 C238 1.263 . S
N236 C240 1.389 . S
N237 C238 1.358 . S
N237 C239 1.400 . S
C238 N236 1.263 . S
C238 N237 1.358 . S
C238 H244 0.930 . S
C239 N237 1.400 . S
C239 C240 1.351 . S
C239 H256 0.930 . S
C240 N236 1.389 . S
C240 C239 1.351 . S
C240 H245 0.930 . S
O241 Cu235 1.974 . S
O241 C251 1.282 . S
C242 O243 1.261 . S
C242 O255 1.251 . S
O243 C242 1.261 . S
H244 C238 0.930 . S
H245 C240 0.930 . S
N246 Cu235 1.985 . S
N246 C248 1.335 . S
N246 C249 1.390 . S
N247 C248 1.345 . S
N247 C250 1.336 . S
C248 N246 1.335 . S
C248 N247 1.345 . S
C248 H253 0.930 . S
C249 N246 1.390 . S
C249 C250 1.346 . S
C249 H254 0.930 . S
C250 N247 1.336 . S
C250 C249 1.346 . S
C250 H257 0.929 . S
C251 O241 1.282 . S
C251 O252 1.216 . S
O252 C251 1.216 . S
H253 C248 0.930 . S
H254 C249 0.930 . S
O255 Cu235 1.959 . S
O255 C242 1.251 . S
H256 C239 0.930 . S
H257 C250 0.929 . S
C258 C259 1.387 . S
C258 H262 0.950 . S
C258 C267 1.390 . S
C259 C258 1.387 . S
C259 C261 1.387 . S
H260 C267 0.950 . S
C261 C259 1.387 . S
C261 C263 1.390 . S
C261 H265 0.950 . S
H262 C258 0.950 . S
C263 C261 1.390 . S
C263 C264 1.387 . S
C263 H266 0.950 . S
C264 C263 1.387 . S
C264 C267 1.387 . S
H265 C261 0.950 . S
H266 C263 0.950 . S
C267 C258 1.390 . S
C267 H260 0.950 . S
C267 C264 1.387 . S
C268 C269 1.387 . S
C268 H272 0.950 . S
C268 C277 1.390 . S
C269 C268 1.387 . S
C269 C271 1.387 . S
H270 C277 0.950 . S
C271 C269 1.387 . S
C271 C273 1.390 . S
C271 H275 0.950 . S
H272 C268 0.950 . S
C273 C271 1.390 . S
C273 C274 1.387 . S
C273 H276 0.950 . S
C274 C273 1.387 . S
C274 C277 1.387 . S
H275 C271 0.950 . S
H276 C273 0.950 . S
C277 C268 1.390 . S
C277 H270 0.950 . S
C277 C274 1.387 . S
C278 C279 1.387 . S
C278 H282 0.950 . S
C278 C287 1.390 . S
C279 C278 1.387 . S
C279 C281 1.387 . S
H280 C287 0.950 . S
C281 C279 1.387 . S
C281 C283 1.390 . S
C281 H285 0.950 . S
H282 C278 0.950 . S
C283 C281 1.390 . S
C283 C284 1.387 . S
C283 H286 0.950 . S
C284 C283 1.387 . S
C284 C287 1.387 . S
H285 C281 0.950 . S
H286 C283 0.950 . S
C287 C278 1.390 . S
C287 H280 0.950 . S
C287 C284 1.387 . S
C288 C289 1.387 . S
C288 H292 0.950 . S
C288 C297 1.390 . S
C289 C288 1.387 . S
C289 C291 1.387 . S
H290 C297 0.950 . S
C291 C289 1.387 . S
C291 C293 1.390 . S
C291 H295 0.950 . S
H292 C288 0.950 . S
C293 C291 1.390 . S
C293 C294 1.387 . S
C293 H296 0.950 . S
C294 C293 1.387 . S
C294 C297 1.387 . S
H295 C291 0.950 . S
H296 C293 0.950 . S
C297 C288 1.390 . S
C297 H290 0.950 . S
C297 C294 1.387 . S
C298 C299 1.387 . S
C298 H302 0.950 . S
C298 C307 1.390 . S
C299 C298 1.387 . S
C299 C301 1.387 . S
H300 C307 0.950 . S
C301 C299 1.387 . S
C301 C303 1.390 . S
C301 H305 0.950 . S
H302 C298 0.950 . S
C303 C301 1.390 . S
C303 C304 1.387 . S
C303 H306 0.950 . S
C304 C303 1.387 . S
C304 C307 1.387 . S
H305 C301 0.950 . S
H306 C303 0.950 . S
C307 C298 1.390 . S
C307 H300 0.950 . S
C307 C304 1.387 . S
C308 C309 1.387 . S
C308 H312 0.950 . S
C308 C317 1.390 . S
C309 C308 1.387 . S
C309 C311 1.387 . S
H310 C317 0.950 . S
C311 C309 1.387 . S
C311 C313 1.390 . S
C311 H315 0.950 . S
H312 C308 0.950 . S
C313 C311 1.390 . S
C313 C314 1.387 . S
C313 H316 0.950 . S
C314 C313 1.387 . S
C314 C317 1.387 . S
H315 C311 0.950 . S
H316 C313 0.950 . S
C317 C308 1.390 . S
C317 H310 0.950 . S
C317 C314 1.387 . S
C318 C319 1.387 . S
C318 H322 0.950 . S
C318 C327 1.390 . S
C319 C318 1.387 . S
C319 C321 1.387 . S
H320 C327 0.950 . S
C321 C319 1.387 . S
C321 C323 1.390 . S
C321 H325 0.950 . S
H322 C318 0.950 . S
C323 C321 1.390 . S
C323 C324 1.387 . S
C323 H326 0.950 . S
C324 C323 1.387 . S
C324 C327 1.387 . S
H325 C321 0.950 . S
H326 C323 0.950 . S
C327 C318 1.390 . S
C327 H320 0.950 . S
C327 C324 1.387 . S
C328 C329 1.387 . S
C328 H332 0.950 . S
C328 C337 1.390 . S
C329 C328 1.387 . S
C329 C331 1.387 . S
H330 C337 0.950 . S
C331 C329 1.387 . S
C331 C333 1.390 . S
C331 H335 0.950 . S
H332 C328 0.950 . S
C333 C331 1.390 . S
C333 C334 1.387 . S
C333 H336 0.950 . S
C334 C333 1.387 . S
C334 C337 1.387 . S
H335 C331 0.950 . S
H336 C333 0.950 . S
C337 C328 1.390 . S
C337 H330 0.950 . S
C337 C334 1.387 . S
C338 C339 1.387 . S
C338 H342 0.950 . S
C338 C347 1.390 . S
C339 C338 1.387 . S
C339 C341 1.387 . S
H340 C347 0.950 . S
C341 C339 1.387 . S
C341 C343 1.390 . S
C341 H345 0.950 . S
H342 C338 0.950 . S
C343 C341 1.390 . S
C343 C344 1.387 . S
C343 H346 0.950 . S
C344 C343 1.387 . S
C344 C347 1.387 . S
H345 C341 0.950 . S
H346 C343 0.950 . S
C347 C338 1.390 . S
C347 H340 0.950 . S
C347 C344 1.387 . S
C348 C349 1.387 . S
C348 H352 0.950 . S
C348 C357 1.390 . S
C349 C348 1.387 . S
C349 C351 1.387 . S
H350 C357 0.950 . S
C351 C349 1.387 . S
C351 C353 1.390 . S
C351 H355 0.950 . S
H352 C348 0.950 . S
C353 C351 1.390 . S
C353 C354 1.387 . S
C353 H356 0.950 . S
C354 C353 1.387 . S
C354 C357 1.387 . S
H355 C351 0.950 . S
H356 C353 0.950 . S
C357 C348 1.390 . S
C357 H350 0.950 . S
C357 C354 1.387 . S
C358 C359 1.387 . S
C358 H362 0.950 . S
C358 C367 1.390 . S
C359 C358 1.387 . S
C359 C361 1.387 . S
H360 C367 0.950 . S
C361 C359 1.387 . S
C361 C363 1.390 . S
C361 H365 0.950 . S
H362 C358 0.950 . S
C363 C361 1.390 . S
C363 C364 1.387 . S
C363 H366 0.950 . S
C364 C363 1.387 . S
C364 C367 1.387 . S
H365 C361 0.950 . S
H366 C363 0.950 . S
C367 C358 1.390 . S
C367 H360 0.950 . S
C367 C364 1.387 . S
C368 C369 1.387 . S
C368 H372 0.950 . S
C368 C377 1.390 . S
C369 C368 1.387 . S
C369 C371 1.387 . S
H370 C377 0.950 . S
C371 C369 1.387 . S
C371 C373 1.390 . S
C371 H375 0.950 . S
H372 C368 0.950 . S
C373 C371 1.390 . S
C373 C374 1.387 . S
C373 H376 0.950 . S
C374 C373 1.387 . S
C374 C377 1.387 . S
H375 C371 0.950 . S
H376 C373 0.950 . S
C377 C368 1.390 . S
C377 H370 0.950 . S
C377 C374 1.387 . S
C378 C379 1.387 . S
C378 H382 0.950 . S
C378 C387 1.390 . S
C379 C378 1.387 . S
C379 C381 1.387 . S
H380 C387 0.950 . S
C381 C379 1.387 . S
C381 C383 1.390 . S
C381 H385 0.950 . S
H382 C378 0.950 . S
C383 C381 1.390 . S
C383 C384 1.387 . S
C383 H386 0.950 . S
C384 C383 1.387 . S
C384 C387 1.387 . S
H385 C381 0.950 . S
H386 C383 0.950 . S
C387 C378 1.390 . S
C387 H380 0.950 . S
C387 C384 1.387 . S
C388 C389 1.387 . S
C388 H392 0.950 . S
C388 C397 1.390 . S
C389 C388 1.387 . S
C389 C391 1.387 . S
H390 C397 0.950 . S
C391 C389 1.387 . S
C391 C393 1.390 . S
C391 H395 0.950 . S
H392 C388 0.950 . S
C393 C391 1.390 . S
C393 C394 1.387 . S
C393 H396 0.950 . S
C394 C393 1.387 . S
C394 C397 1.387 . S
H395 C391 0.950 . S
H396 C393 0.950 . S
C397 C388 1.390 . S
C397 H390 0.950 . S
C397 C394 1.387 . S
C398 C399 1.387 . S
C398 H402 0.950 . S
C398 C407 1.390 . S
C399 C398 1.387 . S
C399 C401 1.387 . S
H400 C407 0.950 . S
C401 C399 1.387 . S
C401 C403 1.390 . S
C401 H405 0.950 . S
H402 C398 0.950 . S
C403 C401 1.390 . S
C403 C404 1.387 . S
C403 H406 0.950 . S
C404 C403 1.387 . S
C404 C407 1.387 . S
H405 C401 0.950 . S
H406 C403 0.950 . S
C407 C398 1.390 . S
C407 H400 0.950 . S
C407 C404 1.387 . S
C408 C409 1.387 . S
C408 H412 0.950 . S
C408 C417 1.390 . S
C409 C408 1.387 . S
C409 C411 1.387 . S
H410 C417 0.950 . S
C411 C409 1.387 . S
C411 C413 1.390 . S
C411 H415 0.950 . S
H412 C408 0.950 . S
C413 C411 1.390 . S
C413 C414 1.387 . S
C413 H416 0.950 . S
C414 C413 1.387 . S
C414 C417 1.387 . S
H415 C411 0.950 . S
H416 C413 0.950 . S
C417 C408 1.390 . S
C417 H410 0.950 . S
C417 C414 1.387 . S
C418 C419 1.387 . S
C418 H422 0.950 . S
C418 C427 1.390 . S
C419 C418 1.387 . S
C419 C421 1.387 . S
H420 C427 0.950 . S
C421 C419 1.387 . S
C421 C423 1.390 . S
C421 H425 0.950 . S
H422 C418 0.950 . S
C423 C421 1.390 . S
C423 C424 1.387 . S
C423 H426 0.950 . S
C424 C423 1.387 . S
C424 C427 1.387 . S
H425 C421 0.950 . S
H426 C423 0.950 . S
C427 C418 1.390 . S
C427 H420 0.950 . S
C427 C424 1.387 . S
C428 C429 1.387 . S
C428 H432 0.950 . S
C428 C437 1.390 . S
C429 C428 1.387 . S
C429 C431 1.387 . S
H430 C437 0.950 . S
C431 C429 1.387 . S
C431 C433 1.390 . S
C431 H435 0.950 . S
H432 C428 0.950 . S
C433 C431 1.390 . S
C433 C434 1.387 . S
C433 H436 0.950 . S
C434 C433 1.387 . S
C434 C437 1.387 . S
H435 C431 0.950 . S
H436 C433 0.950 . S
C437 C428 1.390 . S
C437 H430 0.950 . S
C437 C434 1.387 . S
C438 C439 1.387 . S
C438 H442 0.950 . S
C438 C447 1.390 . S
C439 C438 1.387 . S
C439 C441 1.387 . S
H440 C447 0.950 . S
C441 C439 1.387 . S
C441 C443 1.390 . S
C441 H445 0.950 . S
H442 C438 0.950 . S
C443 C441 1.390 . S
C443 C444 1.387 . S
C443 H446 0.950 . S
C444 C443 1.387 . S
C444 C447 1.387 . S
H445 C441 0.950 . S
H446 C443 0.950 . S
C447 C438 1.390 . S
C447 H440 0.950 . S
C447 C444 1.387 . S
C448 C449 1.387 . S
C448 H452 0.950 . S
C448 C457 1.390 . S
C449 C448 1.387 . S
C449 C451 1.387 . S
H450 C457 0.950 . S
C451 C449 1.387 . S
C451 C453 1.390 . S
C451 H455 0.950 . S
H452 C448 0.950 . S
C453 C451 1.390 . S
C453 C454 1.387 . S
C453 H456 0.950 . S
C454 C453 1.387 . S
C454 C457 1.387 . S
H455 C451 0.950 . S
H456 C453 0.950 . S
C457 C448 1.390 . S
C457 H450 0.950 . S
C457 C454 1.387 . S
C458 C459 1.387 . S
C458 H462 0.950 . S
C458 C467 1.390 . S
C459 C458 1.387 . S
C459 C461 1.387 . S
H460 C467 0.950 . S
C461 C459 1.387 . S
C461 C463 1.390 . S
C461 H465 0.950 . S
H462 C458 0.950 . S
C463 C461 1.390 . S
C463 C464 1.387 . S
C463 H466 0.950 . S
C464 C463 1.387 . S
C464 C467 1.387 . S
H465 C461 0.950 . S
H466 C463 0.950 . S
C467 C458 1.390 . S
C467 H460 0.950 . S
C467 C464 1.387 . S
C468 C469 1.387 . S
C468 H472 0.950 . S
C468 C477 1.390 . S
C469 C468 1.387 . S
C469 C471 1.387 . S
H470 C477 0.950 . S
C471 C469 1.387 . S
C471 C473 1.390 . S
C471 H475 0.950 . S
H472 C468 0.950 . S
C473 C471 1.390 . S
C473 C474 1.387 . S
C473 H476 0.950 . S
C474 C473 1.387 . S
C474 C477 1.387 . S
H475 C471 0.950 . S
H476 C473 0.950 . S
C477 C468 1.390 . S
C477 H470 0.950 . S
C477 C474 1.387 . S
C478 C479 1.387 . S
C478 H482 0.950 . S
C478 C487 1.390 . S
C479 C478 1.387 . S
C479 C481 1.387 . S
H480 C487 0.950 . S
C481 C479 1.387 . S
C481 C483 1.390 . S
C481 H485 0.950 . S
H482 C478 0.950 . S
C483 C481 1.390 . S
C483 C484 1.387 . S
C483 H486 0.950 . S
C484 C483 1.387 . S
C484 C487 1.387 . S
H485 C481 0.950 . S
H486 C483 0.950 . S
C487 C478 1.390 . S
C487 H480 0.950 . S
C487 C484 1.387 . S
C488 C489 1.387 . S
C488 H492 0.950 . S
C488 C497 1.390 . S
C489 C488 1.387 . S
C489 C491 1.387 . S
H490 C497 0.950 . S
C491 C489 1.387 . S
C491 C493 1.390 . S
C491 H495 0.950 . S
H492 C488 0.950 . S
C493 C491 1.390 . S
C493 C494 1.387 . S
C493 H496 0.950 . S
C494 C493 1.387 . S
C494 C497 1.387 . S
H495 C491 0.950 . S
H496 C493 0.950 . S
C497 C488 1.390 . S
C497 H490 0.950 . S
C497 C494 1.387 . S
C259 C18 1.773 . S
C264 C127 1.823 . S
C269 C29 1.143 . S
C274 N145 1.186 . S
C284 C173 1.872 . S
C279 C55 1.773 . S
C294 N191 1.209 . S
C289 C75 1.163 . S
C304 C219 1.837 . S
C299 C98 1.784 . S
C314 N237 1.171 . S
C309 C118 1.162 . S
C319 C38 1.769 . S
C324 C182 1.819 . S
C329 C52 1.164 . S
C334 N201 1.159 . S
C344 C228 1.832 . S
C339 C72 1.781 . S
C354 N247 1.197 . S
C349 C89 1.163 . S
C359 C109 1.765 . S
C364 C136 1.868 . S
C374 N155 1.176 . S
C369 C9 1.141 . S
C384 C205 1.797 . S
C379 C12 1.718 . S
C389 C35 1.093 . S
C394 N224 1.159 . S
C404 C251 1.843 . S
C399 C49 1.706 . S
C409 C69 1.107 . S
C414 N132 1.177 . S
C419 C92 1.732 . S
C424 C159 1.813 . S
C429 C112 1.115 . S
C434 N178 1.138 . S
C439 C32 1.729 . S
C444 C242 1.812 . S
C454 N122 1.141 . S
C449 C58 1.119 . S
C459 C78 1.740 . S
C464 C150 1.827 . S
C469 C95 1.107 . S
C474 N168 1.171 . S
C479 C115 1.713 . S
C484 C196 1.858 . S
C489 C15 1.088 . S
C494 N214 1.158 . S
