# Generated by pormake.
# Topology csq, (4,8)-cn, num edge types: 1
# Building blocks:
#     Node 0, Type 0, BuildingBlock: NAWXER_clean_linker_0, # of connection points: 4
#     Node 1, Type 0, BuildingBlock: NAWXER_clean_linker_0, # of connection points: 4
#     Node 2, Type 0, BuildingBlock: NAWXER_clean_linker_0, # of connection points: 4
#     Node 3, Type 0, BuildingBlock: NAWXER_clean_linker_0, # of connection points: 4
#     Node 4, Type 0, BuildingBlock: NAWXER_clean_linker_0, # of connection points: 4
#     Node 5, Type 0, BuildingBlock: NAWXER_clean_linker_0, # of connection points: 4
#     Node 6, Type 1, BuildingBlock: TAGTUT_clean_sbu_3, # of connection points: 8
#     Node 7, Type 1, BuildingBlock: TAGTUT_clean_sbu_3, # of connection points: 8
#     Node 8, Type 1, BuildingBlock: TAGTUT_clean_sbu_3, # of connection points: 8
#     Edge 9, Type (0, 1), BuildingBlock: ZUJKAS_clean_linker_0, # of connection points: 2
#     Edge 10, Type (0, 1), BuildingBlock: ZUJKAS_clean_linker_0, # of connection points: 2
#     Edge 11, Type (0, 1), BuildingBlock: ZUJKAS_clean_linker_0, # of connection points: 2
#     Edge 12, Type (0, 1), BuildingBlock: ZUJKAS_clean_linker_0, # of connection points: 2
#     Edge 13, Type (0, 1), BuildingBlock: ZUJKAS_clean_linker_0, # of connection points: 2
#     Edge 14, Type (0, 1), BuildingBlock: ZUJKAS_clean_linker_0, # of connection points: 2
#     Edge 15, Type (0, 1), BuildingBlock: ZUJKAS_clean_linker_0, # of connection points: 2
#     Edge 16, Type (0, 1), BuildingBlock: ZUJKAS_clean_linker_0, # of connection points: 2
#     Edge 17, Type (0, 1), BuildingBlock: ZUJKAS_clean_linker_0, # of connection points: 2
#     Edge 18, Type (0, 1), BuildingBlock: ZUJKAS_clean_linker_0, # of connection points: 2
#     Edge 19, Type (0, 1), BuildingBlock: ZUJKAS_clean_linker_0, # of connection points: 2
#     Edge 20, Type (0, 1), BuildingBlock: ZUJKAS_clean_linker_0, # of connection points: 2
#     Edge 21, Type (0, 1), BuildingBlock: ZUJKAS_clean_linker_0, # of connection points: 2
#     Edge 22, Type (0, 1), BuildingBlock: ZUJKAS_clean_linker_0, # of connection points: 2
#     Edge 23, Type (0, 1), BuildingBlock: ZUJKAS_clean_linker_0, # of connection points: 2
#     Edge 24, Type (0, 1), BuildingBlock: ZUJKAS_clean_linker_0, # of connection points: 2
#     Edge 25, Type (0, 1), BuildingBlock: ZUJKAS_clean_linker_0, # of connection points: 2
#     Edge 26, Type (0, 1), BuildingBlock: ZUJKAS_clean_linker_0, # of connection points: 2
#     Edge 27, Type (0, 1), BuildingBlock: ZUJKAS_clean_linker_0, # of connection points: 2
#     Edge 28, Type (0, 1), BuildingBlock: ZUJKAS_clean_linker_0, # of connection points: 2
#     Edge 29, Type (0, 1), BuildingBlock: ZUJKAS_clean_linker_0, # of connection points: 2
#     Edge 30, Type (0, 1), BuildingBlock: ZUJKAS_clean_linker_0, # of connection points: 2
#     Edge 31, Type (0, 1), BuildingBlock: ZUJKAS_clean_linker_0, # of connection points: 2
#     Edge 32, Type (0, 1), BuildingBlock: ZUJKAS_clean_linker_0, # of connection points: 2
# Relax obj value: 0.028
# Max RMSD: 0.113
# Mean RMSD: 0.043
data_MOF--net-csq--node1-TAGTUT_clean_sbu_3--node2-NAWXER_clean_linker_0--edge1-ZUJKAS_clean_linker_0
_symmetry_space_group_name_H-M    P1
_symmetry_Int_Tables_number       1
_symmetry_cell_setting            triclinic
loop_
_symmetry_equiv_pos_as_xyz
'x, y, z'
_cell_length_a     76.30931
_cell_length_b     75.416887
_cell_length_c     26.967238
_cell_angle_alpha  91.944774
_cell_angle_beta   92.338616
_cell_angle_gamma 119.95775
loop_
_atom_site_label
_atom_site_type_symbol
_atom_site_fract_x
_atom_site_fract_y
_atom_site_fract_z
_atom_type_partial_charge
C0 C 0.30441 0.49131 0.0611 0.0
C1 C 0.30125 0.47408 0.03176 0.0
C2 C 0.28846 0.49114 0.08489 0.0
C3 C 0.26904 0.47366 0.08044 0.0
C4 C 0.28163 0.4568 0.02603 0.0
C5 C 0.26564 0.45663 0.05005 0.0
C6 C 0.25244 0.47326 0.10782 0.0
C7 C 0.29528 0.46979 0.21522 0.0
C8 C 0.30808 0.48844 0.24251 0.0
C9 C 0.27761 0.46658 0.18972 0.0
C10 C 0.27249 0.48204 0.19037 0.0
C11 C 0.30253 0.50365 0.24471 0.0
C12 C 0.28475 0.5004 0.21904 0.0
C13 C 0.25488 0.4792 0.15893 0.0
C14 C 0.17295 0.46659 0.20604 0.0
C15 C 0.179 0.48541 0.23237 0.0
C16 C 0.18699 0.46352 0.1809 0.0
C17 C 0.20728 0.4793 0.1811 0.0
C18 C 0.19942 0.50101 0.2332 0.0
C19 C 0.21341 0.49793 0.20802 0.0
C20 C 0.22242 0.47653 0.15452 0.0
C21 C 0.17627 0.47167 0.03639 0.0
C22 C 0.16657 0.4528 0.00815 0.0
C23 C 0.19338 0.47707 0.06797 0.0
C24 C 0.2009 0.46357 0.07247 0.0
C25 C 0.17421 0.43936 0.01267 0.0
C26 C 0.19127 0.44476 0.04436 0.0
C27 C 0.21946 0.46931 0.10397 0.0
H28 H 0.3192 0.50504 0.06523 0.0
H29 H 0.29132 0.50471 0.10694 0.0
H30 H 0.27873 0.44327 0.00373 0.0
H31 H 0.25074 0.44304 0.04584 0.0
H32 H 0.29918 0.45783 0.21237 0.0
H33 H 0.26817 0.45216 0.16838 0.0
H34 H 0.31197 0.51807 0.26602 0.0
H35 H 0.28094 0.51245 0.22019 0.0
H36 H 0.15733 0.45428 0.20449 0.0
H37 H 0.18198 0.44882 0.1614 0.0
H38 H 0.20467 0.51552 0.2539 0.0
H39 H 0.22904 0.51023 0.20918 0.0
H40 H 0.17067 0.4823 0.03403 0.0
H41 H 0.20085 0.4919 0.08834 0.0
H42 H 0.16728 0.42488 0.99087 0.0
H43 H 0.19701 0.43423 0.04685 0.0
N44 N 0.23467 0.46812 0.08245 0.0
N45 N 0.24001 0.48104 0.18026 0.0
C46 C 0.70776 0.18922 0.17599 0.0
C47 C 0.71362 0.17714 0.2028 0.0
C48 C 0.72176 0.20527 0.14954 0.0
C49 C 0.74184 0.20942 0.14875 0.0
C50 C 0.7339 0.18171 0.20313 0.0
C51 C 0.74792 0.19781 0.17656 0.0
C52 C 0.7564 0.22578 0.11868 0.0
C53 C 0.7107 0.17489 0.01676 0.0
C54 C 0.69754 0.17973 0.9903 0.0
C55 C 0.7287 0.19035 0.04074 0.0
C56 C 0.73374 0.21095 0.0396 0.0
C57 C 0.70299 0.20045 0.98769 0.0
C58 C 0.721 0.21594 0.01199 0.0
C59 C 0.75202 0.2272 0.06815 0.0
C60 C 0.82945 0.29875 0.00635 0.0
C61 C 0.82103 0.3079 0.97632 0.0
C62 C 0.81727 0.28293 0.03629 0.0
C63 C 0.79649 0.27616 0.03742 0.0
C64 C 0.80017 0.30088 0.97716 0.0
C65 C 0.78805 0.28517 0.00724 0.0
C66 C 0.78306 0.25894 0.06735 0.0
C67 C 0.82768 0.30807 0.18086 0.0
C68 C 0.83821 0.30176 0.213 0.0
C69 C 0.81152 0.29374 0.14887 0.0
C70 C 0.80591 0.27293 0.14768 0.0
C71 C 0.83261 0.28097 0.21172 0.0
C72 C 0.81661 0.2667 0.17938 0.0
C73 C 0.78771 0.25721 0.11774 0.0
H74 H 0.69225 0.18604 0.17468 0.0
H75 H 0.71683 0.21433 0.12922 0.0
H76 H 0.73895 0.1729 0.22408 0.0
H77 H 0.76341 0.20093 0.17686 0.0
H78 H 0.70693 0.1591 0.01977 0.0
H79 H 0.73855 0.18618 0.06088 0.0
H80 H 0.69337 0.2047 0.96679 0.0
H81 H 0.72474 0.23177 0.01023 0.0
H82 H 0.84547 0.30384 0.00687 0.0
H83 H 0.82408 0.27586 0.05809 0.0
H84 H 0.79308 0.30727 0.95386 0.0
H85 H 0.77201 0.28002 0.0069 0.0
H86 H 0.83147 0.32397 0.18173 0.0
H87 H 0.80305 0.29887 0.12624 0.0
H88 H 0.84055 0.27573 0.23591 0.0
H89 H 0.81241 0.25069 0.17953 0.0
N90 N 0.77416 0.24068 0.14135 0.0
N91 N 0.76535 0.24381 0.04457 0.0
C92 C 0.56646 0.72423 0.96254 0.0
C93 C 0.55565 0.71801 0.91582 0.0
C94 C 0.56244 0.73557 0.99764 0.0
C95 C 0.54732 0.74058 0.98686 0.0
C96 C 0.54057 0.72307 0.90516 0.0
C97 C 0.53649 0.73427 0.94028 0.0
C98 C 0.5441 0.75418 0.0213 0.0
C99 C 0.52583 0.69823 0.10923 0.0
C100 C 0.53703 0.70173 0.15484 0.0
C101 C 0.52843 0.71467 0.08162 0.0
C102 C 0.54236 0.73496 0.09892 0.0
C103 C 0.55119 0.72203 0.17163 0.0
C104 C 0.55371 0.73845 0.14415 0.0
C105 C 0.54353 0.75259 0.07328 0.0
C106 C 0.52025 0.81298 0.14692 0.0
C107 C 0.53273 0.81997 0.19129 0.0
C108 C 0.52337 0.80157 0.10994 0.0
C109 C 0.5392 0.79728 0.1165 0.0
C110 C 0.54877 0.81597 0.19722 0.0
C111 C 0.55192 0.8047 0.16027 0.0
C112 C 0.54123 0.78304 0.08154 0.0
C113 C 0.55118 0.83584 0.98641 0.0
C114 C 0.53858 0.82979 0.94224 0.0
C115 C 0.55166 0.82113 0.01601 0.0
C116 C 0.53931 0.80011 0.00232 0.0
C117 C 0.52604 0.80876 0.92925 0.0
C118 C 0.52645 0.79414 0.95882 0.0
C119 C 0.54094 0.78413 0.02934 0.0
H120 H 0.57831 0.7207 0.9715 0.0
H121 H 0.57154 0.74088 0.03256 0.0
H122 H 0.53179 0.7182 0.86976 0.0
H123 H 0.52488 0.73811 0.93093 0.0
H124 H 0.51488 0.68278 0.09511 0.0
H125 H 0.51905 0.71151 0.04759 0.0
H126 H 0.55987 0.7253 0.20689 0.0
H127 H 0.56434 0.75396 0.15867 0.0
H128 H 0.50765 0.81568 0.14162 0.0
H129 H 0.51295 0.79547 0.07722 0.0
H130 H 0.55881 0.82144 0.23067 0.0
H131 H 0.56414 0.80144 0.16627 0.0
H132 H 0.56115 0.85194 0.99718 0.0
H133 H 0.56216 0.82622 0.04856 0.0
H134 H 0.5159 0.80357 0.89598 0.0
H135 H 0.51682 0.77805 0.94728 0.0
N136 N 0.54253 0.7697 0.00156 0.0
N137 N 0.54241 0.76727 0.10124 0.0
C138 C 0.83494 0.55255 0.94923 0.0
C139 C 0.82823 0.53283 0.92732 0.0
C140 C 0.82255 0.55617 0.9796 0.0
C141 C 0.80322 0.54016 0.98885 0.0
C142 C 0.80841 0.51706 0.93453 0.0
C143 C 0.79597 0.52073 0.96494 0.0
C144 C 0.7914 0.54337 0.02666 0.0
C145 C 0.83978 0.53707 0.10612 0.0
C146 C 0.85622 0.55609 0.124 0.0
C147 C 0.82129 0.53536 0.09125 0.0
C148 C 0.81892 0.55264 0.09383 0.0
C149 C 0.85382 0.5734 0.12686 0.0
C150 C 0.83518 0.57164 0.11225 0.0
C151 C 0.79954 0.55071 0.07578 0.0
C152 C 0.72713 0.53912 0.18112 0.0
C153 C 0.73519 0.55781 0.20968 0.0
C154 C 0.73823 0.53651 0.14461 0.0
C155 C 0.75751 0.55262 0.13527 0.0
C156 C 0.75474 0.57375 0.20113 0.0
C157 C 0.76584 0.57112 0.16445 0.0
C158 C 0.76919 0.55006 0.09597 0.0
C159 C 0.71495 0.54804 0.01887 0.0
C160 C 0.70148 0.52903 0.9937 0.0
C161 C 0.73429 0.55247 0.03621 0.0
C162 C 0.74043 0.5379 0.02915 0.0
C163 C 0.70772 0.51452 0.98654 0.0
C164 C 0.72706 0.51897 0.00387 0.0
C165 C 0.7609 0.54242 0.0468 0.0
H166 H 0.8499 0.56516 0.94341 0.0
H167 H 0.82829 0.57139 0.99702 0.0
H168 H 0.8028 0.50169 0.9183 0.0
H169 H 0.78108 0.50819 0.97165 0.0
H170 H 0.84127 0.52352 0.10336 0.0
H171 H 0.80883 0.52054 0.07745 0.0
H172 H 0.86624 0.58817 0.14107 0.0
H173 H 0.83355 0.5851 0.11448 0.0
H174 H 0.71206 0.52658 0.18635 0.0
H175 H 0.73169 0.52189 0.12351 0.0
H176 H 0.7615 0.58822 0.22295 0.0
H177 H 0.78082 0.58365 0.15833 0.0
H178 H 0.71055 0.55951 0.02504 0.0
H179 H 0.74451 0.56736 0.05473 0.0
H180 H 0.69782 0.49989 0.96649 0.0
H181 H 0.73158 0.50759 0.99769 0.0
N182 N 0.7723 0.53928 0.01395 0.0
N183 N 0.78827 0.55396 0.10864 0.0
C184 C 0.26386 0.86187 0.01623 0.0
C185 C 0.27002 0.8575 0.9711 0.0
C186 C 0.25221 0.84617 0.04693 0.0
C187 C 0.24624 0.82575 0.0329 0.0
C188 C 0.26383 0.83692 0.95719 0.0
C189 C 0.25186 0.82121 0.98748 0.0
C190 C 0.23373 0.80905 0.06494 0.0
C191 C 0.29596 0.83799 0.13829 0.0
C192 C 0.29879 0.84923 0.18347 0.0
C193 C 0.27655 0.82546 0.11585 0.0
C194 C 0.25954 0.82386 0.13804 0.0
C195 C 0.28167 0.8477 0.20541 0.0
C196 C 0.2622 0.83495 0.18313 0.0
C197 C 0.23902 0.80941 0.11568 0.0
C198 C 0.17879 0.72694 0.18175 0.0
C199 C 0.17466 0.73307 0.22764 0.0
C200 C 0.18915 0.74135 0.14689 0.0
C201 C 0.19533 0.76213 0.15697 0.0
C202 C 0.18074 0.75385 0.23732 0.0
C203 C 0.19103 0.7682 0.20249 0.0
C204 C 0.20807 0.77807 0.12324 0.0
C205 C 0.15007 0.73618 0.02547 0.0
C206 C 0.15394 0.72905 0.98064 0.0
C207 C 0.16613 0.75144 0.05648 0.0
C208 C 0.18621 0.75943 0.04329 0.0
C209 C 0.17407 0.73683 0.96838 0.0
C210 C 0.18998 0.75185 0.99925 0.0
C211 C 0.20354 0.77699 0.07141 0.0
H212 H 0.2679 0.8774 0.02783 0.0
H213 H 0.24767 0.84995 0.08142 0.0
H214 H 0.26856 0.83289 0.92339 0.0
H215 H 0.24737 0.80553 0.97599 0.0
H216 H 0.30868 0.83839 0.12086 0.0
H217 H 0.2748 0.81654 0.08176 0.0
H218 H 0.28329 0.85636 0.23984 0.0
H219 H 0.24923 0.83378 0.20099 0.0
H220 H 0.17457 0.7111 0.17342 0.0
H221 H 0.19288 0.73634 0.11282 0.0
H222 H 0.17758 0.75907 0.27194 0.0
H223 H 0.19581 0.78417 0.21133 0.0
H224 H 0.13465 0.7304 0.03571 0.0
H225 H 0.16283 0.75736 0.08978 0.0
H226 H 0.17755 0.73131 0.93469 0.0
H227 H 0.20534 0.75777 0.98832 0.0
N228 N 0.21643 0.7927 0.04458 0.0
N229 N 0.22582 0.79419 0.14321 0.0
C230 C 0.49477 0.19246 0.07904 0.0
C231 C 0.48289 0.18022 0.03696 0.0
C232 C 0.48869 0.2043 0.10633 0.0
C233 C 0.47074 0.20415 0.09169 0.0
C234 C 0.46479 0.17988 0.02286 0.0
C235 C 0.45887 0.19192 0.04974 0.0
C236 C 0.46521 0.21805 0.11725 0.0
C237 C 0.45462 0.17003 0.22608 0.0
C238 C 0.46722 0.17766 0.2702 0.0
C239 C 0.45384 0.18345 0.19264 0.0
C240 C 0.46565 0.20477 0.20269 0.0
C241 C 0.47905 0.199 0.28008 0.0
C242 C 0.47812 0.2124 0.24687 0.0
C243 C 0.46407 0.21917 0.16919 0.0
C244 C 0.43458 0.27838 0.20539 0.0
C245 C 0.44747 0.2894 0.24749 0.0
C246 C 0.43833 0.26504 0.17633 0.0
C247 C 0.45495 0.26254 0.18928 0.0
C248 C 0.46403 0.28678 0.26016 0.0
C249 C 0.46766 0.27342 0.2315 0.0
C250 C 0.45846 0.24744 0.16214 0.0
C251 C 0.47117 0.29622 0.05314 0.0
C252 C 0.46055 0.28912 0.00618 0.0
C253 C 0.47044 0.28242 0.08757 0.0
C254 C 0.45877 0.26115 0.07627 0.0
C255 C 0.44879 0.26781 0.99515 0.0
C256 C 0.44797 0.25403 0.0297 0.0
C257 C 0.45947 0.24627 0.10997 0.0
H258 H 0.50878 0.19295 0.09058 0.0
H259 H 0.4983 0.21401 0.13801 0.0
H260 H 0.45551 0.17077 0.99014 0.0
H261 H 0.44512 0.19182 0.03755 0.0
H262 H 0.44541 0.15367 0.2173 0.0
H263 H 0.44372 0.17714 0.15942 0.0
H264 H 0.48874 0.20534 0.31397 0.0
H265 H 0.48719 0.22878 0.2557 0.0
H266 H 0.42172 0.28017 0.19489 0.0
H267 H 0.42807 0.25641 0.14446 0.0
H268 H 0.47403 0.29483 0.29285 0.0
H269 H 0.48041 0.2715 0.24247 0.0
H270 H 0.48025 0.31249 0.06321 0.0
H271 H 0.47955 0.28846 0.12233 0.0
H272 H 0.44068 0.26172 0.95917 0.0
H273 H 0.43912 0.23773 0.01963 0.0
N274 N 0.46273 0.2315 0.08967 0.0
N275 N 0.46085 0.2339 0.18955 0.0
C276 C 0.03671 0.49683 0.54113 0.0
C277 C 0.0195 0.46392 0.71529 0.0
C278 C 0.96329 0.46321 0.68779 0.0
Mg279 Mg 0.02103 0.52433 0.48662 0.0
Mg280 Mg 0.00707 0.55282 0.55049 0.0
O281 O 0.00359 0.52669 0.53742 0.0
Mg282 Mg 0.00832 0.5121 0.5922 0.0
O283 O 0.0133 0.49599 0.64262 0.0
Mg284 Mg 0.99842 0.46794 0.60715 0.0
Mg285 Mg 0.00697 0.49726 0.70827 0.0
C286 C 0.97921 0.52875 0.63771 0.0
O287 O 0.02982 0.54163 0.64176 0.0
O288 O 0.00663 0.53731 0.43133 0.0
O289 O 0.02275 0.53034 0.71901 0.0
O290 O 0.04735 0.55742 0.50415 0.0
O291 O 0.99589 0.55494 0.47793 0.0
O292 O 0.03891 0.57531 0.55538 0.0
O293 O 0.98665 0.48188 0.54871 0.0
O294 O 0.99481 0.4914 0.47158 0.0
C295 C 0.98444 0.47768 0.50163 0.0
C296 C 0.9979 0.54808 0.43565 0.0
O297 O 0.98313 0.51406 0.6327 0.0
O298 O 0.01263 0.45761 0.66993 0.0
O299 O 0.98798 0.54509 0.61354 0.0
O300 O 0.96967 0.45689 0.65193 0.0
O301 O 0.01912 0.47912 0.73695 0.0
O302 O 0.97487 0.48017 0.71239 0.0
O303 O 0.03296 0.51151 0.54794 0.0
O304 O 0.02659 0.47985 0.56193 0.0
C305 C 0.05188 0.57396 0.52947 0.0
C306 C 0.03131 0.54487 0.68943 0.0
C307 C 0.49829 0.03232 0.52094 0.0
C308 C 0.55745 0.02022 0.46677 0.0
C309 C 0.51917 0.9598 0.51997 0.0
Mg310 Mg 0.467 0.01134 0.60811 0.0
Mg311 Mg 0.47803 0.99193 0.70415 0.0
O312 O 0.47625 0.99259 0.63517 0.0
Mg313 Mg 0.50052 0.00058 0.59627 0.0
O314 O 0.52356 0.00885 0.5528 0.0
Mg315 Mg 0.50762 0.99599 0.48769 0.0
Mg316 Mg 0.54394 0.00271 0.57019 0.0
C317 C 0.50024 0.96733 0.67552 0.0
O318 O 0.52421 0.02125 0.65887 0.0
O319 O 0.43794 0.99364 0.65342 0.0
O320 O 0.55104 0.01714 0.64535 0.0
O321 O 0.48305 0.03556 0.67374 0.0
O322 O 0.44646 0.97874 0.71354 0.0
O323 O 0.49342 0.02288 0.73455 0.0
O324 O 0.47863 0.98075 0.53119 0.0
O325 O 0.45354 0.98747 0.54259 0.0
C326 C 0.46126 0.97852 0.51773 0.0
C327 C 0.43349 0.98193 0.69005 0.0
O328 O 0.50366 0.97422 0.63172 0.0
O329 O 0.53877 0.01317 0.45194 0.0
O330 O 0.49202 0.97319 0.70792 0.0
O331 O 0.5107 0.96732 0.49282 0.0
O332 O 0.56282 0.01805 0.5108 0.0
O333 O 0.53186 0.97035 0.55618 0.0
O334 O 0.49626 0.02628 0.56543 0.0
O335 O 0.50365 0.02402 0.487 0.0
C336 C 0.4923 0.03765 0.71605 0.0
C337 C 0.54201 0.02434 0.67156 0.0
C338 C 0.52153 0.54269 0.66822 0.0
C339 C 0.45638 0.48104 0.73798 0.0
C340 C 0.48184 0.44497 0.68511 0.0
Mg341 Mg 0.54678 0.54285 0.57544 0.0
Mg342 Mg 0.52569 0.50903 0.48075 0.0
O343 O 0.53113 0.51324 0.54962 0.0
Mg344 Mg 0.50826 0.5025 0.59507 0.0
O345 O 0.48715 0.49334 0.64478 0.0
Mg346 Mg 0.50417 0.49666 0.70713 0.0
Mg347 Mg 0.46339 0.46783 0.63305 0.0
C348 C 0.49647 0.46386 0.51439 0.0
O349 O 0.48455 0.50164 0.53836 0.0
O350 O 0.57213 0.54652 0.52353 0.0
O351 O 0.45591 0.47342 0.55815 0.0
O352 O 0.53334 0.55407 0.51308 0.0
O353 O 0.55658 0.52189 0.46169 0.0
O354 O 0.51503 0.52884 0.45544 0.0
O355 O 0.52993 0.50247 0.65554 0.0
O356 O 0.5584 0.53086 0.63864 0.0
C357 C 0.54877 0.51548 0.6653 0.0
C358 C 0.57261 0.537 0.48349 0.0
O359 O 0.4972 0.46991 0.56008 0.0
O360 O 0.4756 0.49038 0.74977 0.0
O361 O 0.50509 0.47626 0.48016 0.0
O362 O 0.49406 0.4623 0.70769 0.0
O363 O 0.44875 0.47184 0.6951 0.0
O364 O 0.46917 0.44332 0.65031 0.0
O365 O 0.51996 0.53533 0.62378 0.0
O366 O 0.51529 0.53101 0.70464 0.0
C367 C 0.52174 0.54715 0.47315 0.0
C368 C 0.46567 0.48819 0.5297 0.0
H369 H 0.1755 0.51987 0.23819 0.0
H370 H 0.15166 0.52547 0.28495 0.0
H371 H 0.12506 0.46405 0.33418 0.0
H372 H 0.14894 0.45837 0.28811 0.0
H373 H 0.0966 0.47544 0.29739 0.0
H374 H 0.15373 0.53339 0.43818 0.0
H375 H 0.1586 0.53838 0.37398 0.0
H376 H 0.15906 0.5169 0.39932 0.0
C377 C 0.1647 0.50761 0.25934 0.0
C378 C 0.16419 0.48869 0.25958 0.0
C379 C 0.15109 0.51085 0.28597 0.0
C380 C 0.13678 0.49526 0.31347 0.0
C381 C 0.13601 0.47628 0.31319 0.0
H382 H 0.04569 0.46735 0.51361 0.0
H383 H 0.06972 0.46924 0.45465 0.0
C384 C 0.14961 0.47303 0.28663 0.0
C385 C 0.12246 0.49853 0.34248 0.0
H386 H 0.11966 0.52431 0.44572 0.0
C387 C 0.10164 0.48624 0.32957 0.0
C388 C 0.12912 0.51278 0.38416 0.0
C389 C 0.15132 0.52606 0.40017 0.0
C390 C 0.08724 0.48743 0.35803 0.0
C391 C 0.09385 0.50101 0.40097 0.0
C392 C 0.11468 0.51393 0.41273 0.0
C393 C 0.07938 0.5004 0.43673 0.0
C394 C 0.06504 0.4739 0.34232 0.0
C395 C 0.07724 0.51756 0.44729 0.0
C396 C 0.06343 0.51659 0.48138 0.0
C397 C 0.05174 0.49849 0.50571 0.0
C398 C 0.05431 0.48152 0.49549 0.0
C399 C 0.06797 0.4825 0.4615 0.0
H400 H 0.06268 0.46922 0.30198 0.0
H401 H 0.05876 0.45978 0.36313 0.0
H402 H 0.05639 0.48179 0.35053 0.0
H403 H 0.08609 0.5316 0.42884 0.0
H404 H 0.06192 0.52995 0.48857 0.0
H405 H 0.6841 0.17619 0.25872 0.0
H406 H 0.6584 0.14723 0.30065 0.0
H407 H 0.68336 0.10998 0.25122 0.0
H408 H 0.70879 0.13874 0.20765 0.0
H409 H 0.64102 0.09018 0.23736 0.0
H410 H 0.66762 0.12505 0.42938 0.0
H411 H 0.66317 0.14094 0.38868 0.0
H412 H 0.6829 0.13519 0.37698 0.0
C413 C 0.68408 0.16182 0.25654 0.0
C414 C 0.69851 0.15978 0.22992 0.0
C415 C 0.66951 0.14535 0.28094 0.0
C416 C 0.66918 0.12657 0.2796 0.0
C417 C 0.68347 0.12441 0.25294 0.0
H418 H 0.59764 0.03213 0.47829 0.0
H419 H 0.6249 0.05582 0.42913 0.0
C420 C 0.69807 0.14089 0.22845 0.0
C421 C 0.65364 0.10914 0.30539 0.0
H422 H 0.63488 0.09515 0.41904 0.0
C423 C 0.63975 0.09116 0.27715 0.0
C424 C 0.65221 0.11037 0.35735 0.0
C425 C 0.66739 0.12884 0.38999 0.0
C426 C 0.62405 0.07456 0.29939 0.0
C427 C 0.62206 0.0762 0.35101 0.0
C428 C 0.63632 0.09397 0.37938 0.0
C429 C 0.60519 0.05991 0.37665 0.0
C430 C 0.60984 0.05542 0.2675 0.0
C431 C 0.58498 0.05407 0.36298 0.0
C432 C 0.56929 0.04039 0.39088 0.0
C433 C 0.57358 0.03256 0.43338 0.0
C434 C 0.59379 0.03796 0.44596 0.0
C435 C 0.60941 0.0515 0.4179 0.0
H436 H 0.61682 0.05423 0.2331 0.0
H437 H 0.60535 0.04145 0.28816 0.0
H438 H 0.59594 0.05589 0.25627 0.0
H439 H 0.5814 0.06071 0.33192 0.0
H440 H 0.55392 0.03667 0.38035 0.0
H441 H 0.56523 0.69579 0.20617 0.0
H442 H 0.55915 0.66795 0.25968 0.0
H443 H 0.49473 0.64059 0.22721 0.0
H444 H 0.50065 0.6686 0.17434 0.0
H445 H 0.50677 0.64366 0.33049 0.0
H446 H 0.54036 0.60787 0.21342 0.0
H447 H 0.5565 0.63495 0.22742 0.0
H448 H 0.53322 0.62568 0.18998 0.0
C449 C 0.54977 0.68387 0.21045 0.0
C450 C 0.53343 0.68438 0.18579 0.0
C451 C 0.54632 0.66788 0.24073 0.0
C452 C 0.5265 0.65209 0.24697 0.0
C453 C 0.51015 0.65257 0.22265 0.0
H454 H 0.49985 0.53881 0.38369 0.0
H455 H 0.4982 0.56343 0.32981 0.0
C456 C 0.51358 0.6685 0.19215 0.0
C457 C 0.52285 0.63528 0.27965 0.0
H458 H 0.53287 0.59639 0.29498 0.0
C459 C 0.51234 0.63322 0.32261 0.0
C460 C 0.5299 0.62152 0.26895 0.0
C461 C 0.54047 0.62242 0.22222 0.0
C462 C 0.50927 0.61814 0.35599 0.0
C463 C 0.51704 0.60492 0.34627 0.0
C464 C 0.527 0.6066 0.30253 0.0
C465 C 0.51572 0.58969 0.38163 0.0
C466 C 0.49769 0.61644 0.40128 0.0
C467 C 0.52575 0.59621 0.42913 0.0
C468 C 0.52675 0.58218 0.46009 0.0
C469 C 0.51784 0.56134 0.44399 0.0
C470 C 0.50697 0.55472 0.39728 0.0
C471 C 0.50602 0.56878 0.36633 0.0
H472 H 0.48817 0.62368 0.39653 0.0
H473 H 0.48781 0.60015 0.40947 0.0
H474 H 0.50859 0.62441 0.43388 0.0
H475 H 0.53358 0.6123 0.44145 0.0
H476 H 0.53524 0.58785 0.49578 0.0
H477 H 0.89471 0.58436 0.10173 0.0
H478 H 0.92654 0.58629 0.13151 0.0
H479 H 0.89269 0.53337 0.21627 0.0
H480 H 0.86114 0.53114 0.18594 0.0
H481 H 0.94306 0.59306 0.2221 0.0
H482 H 0.92986 0.51772 0.15371 0.0
H483 H 0.91452 0.52811 0.13057 0.0
H484 H 0.90829 0.51389 0.18591 0.0
C485 C 0.89417 0.57309 0.12643 0.0
C486 C 0.87553 0.5575 0.14129 0.0
C487 C 0.91229 0.57412 0.14311 0.0
C488 C 0.91196 0.5596 0.17491 0.0
C489 C 0.89331 0.54422 0.19013 0.0
H490 H 0.97328 0.56453 0.43153 0.0
H491 H 0.95797 0.57056 0.35837 0.0
C492 C 0.87528 0.54307 0.17316 0.0
C493 C 0.93095 0.56141 0.1967 0.0
H494 H 0.94992 0.53129 0.23424 0.0
C495 C 0.94492 0.57973 0.22357 0.0
C496 C 0.93394 0.54435 0.19726 0.0
C497 C 0.92094 0.52503 0.16471 0.0
C498 C 0.96032 0.58062 0.25555 0.0
C499 C 0.96125 0.56255 0.26189 0.0
C500 C 0.94887 0.54501 0.23054 0.0
C501 C 0.97238 0.56052 0.30558 0.0
C502 C 0.97481 0.60067 0.28386 0.0
C503 C 0.98509 0.55217 0.30048 0.0
C504 C 0.99362 0.54825 0.34267 0.0
C505 C 0.98952 0.5526 0.39056 0.0
C506 C 0.97695 0.56116 0.39532 0.0
C507 C 0.96835 0.56487 0.35336 0.0
H508 H 0.97801 0.6138 0.26093 0.0
H509 H 0.96777 0.60236 0.31757 0.0
H510 H 0.98937 0.60151 0.29531 0.0
H511 H 0.98817 0.54842 0.26392 0.0
H512 H 0.00327 0.54168 0.33775 0.0
H513 H 0.30985 0.85447 0.28303 0.0
H514 H 0.3435 0.87613 0.32388 0.0
H515 H 0.36855 0.89324 0.18117 0.0
H516 H 0.33466 0.87263 0.13994 0.0
H517 H 0.37877 0.8755 0.3184 0.0
H518 H 0.38772 0.94849 0.25154 0.0
H519 H 0.36386 0.92477 0.24444 0.0
H520 H 0.38372 0.92925 0.2043 0.0
C521 C 0.32241 0.86309 0.26024 0.0
C522 C 0.31944 0.86201 0.20819 0.0
C523 C 0.34171 0.87524 0.28365 0.0
C524 C 0.3585 0.88647 0.2556 0.0
C525 C 0.35576 0.88498 0.20357 0.0
H526 H 0.47133 0.95645 0.45263 0.0
H527 H 0.45068 0.93444 0.37942 0.0
C528 C 0.33638 0.873 0.18008 0.0
C529 C 0.37854 0.9003 0.28171 0.0
H530 H 0.41259 0.95095 0.30931 0.0
C531 C 0.38642 0.892 0.31589 0.0
C532 C 0.38851 0.9218 0.27798 0.0
C533 C 0.38052 0.9317 0.2429 0.0
C534 C 0.40308 0.90468 0.34915 0.0
C535 C 0.41229 0.92619 0.34731 0.0
C536 C 0.40546 0.93442 0.31041 0.0
C537 C 0.42591 0.94026 0.3889 0.0
C538 C 0.40967 0.89504 0.38843 0.0
C539 C 0.41903 0.9511 0.41757 0.0
C540 C 0.43071 0.96365 0.45874 0.0
C541 C 0.44963 0.96568 0.47247 0.0
C542 C 0.45679 0.95512 0.44317 0.0
C543 C 0.44499 0.94251 0.4015 0.0
H544 H 0.39946 0.87817 0.38795 0.0
H545 H 0.4252 0.89813 0.38209 0.0
H546 H 0.41007 0.90183 0.42594 0.0
H547 H 0.40432 0.94952 0.40862 0.0
H548 H 0.42468 0.97155 0.48016 0.0
H549 H 0.41184 0.28285 0.2844 0.0
H550 H 0.40742 0.30596 0.34286 0.0
H551 H 0.47088 0.35076 0.33945 0.0
H552 H 0.47535 0.32809 0.28126 0.0
H553 H 0.4501 0.33503 0.44209 0.0
H554 H 0.41699 0.36732 0.30983 0.0
H555 H 0.40907 0.34034 0.30715 0.0
H556 H 0.43333 0.3585 0.2866 0.0
C557 C 0.42472 0.29776 0.29572 0.0
C558 C 0.44398 0.30368 0.27873 0.0
C559 C 0.4222 0.31081 0.32921 0.0
C560 C 0.4389 0.32985 0.3456 0.0
C561 C 0.45791 0.33597 0.32747 0.0
H562 H 0.50244 0.44467 0.43585 0.0
H563 H 0.48166 0.40899 0.40515 0.0
C564 C 0.46043 0.32304 0.29432 0.0
C565 C 0.43727 0.34388 0.38195 0.0
H566 H 0.43526 0.38795 0.38277 0.0
C567 C 0.44604 0.34618 0.43019 0.0
C568 C 0.4319 0.35824 0.36599 0.0
C569 C 0.4222 0.35608 0.31463 0.0
C570 C 0.45173 0.36383 0.4609 0.0
C571 C 0.44855 0.37936 0.44248 0.0
C572 C 0.43765 0.37592 0.3966 0.0
C573 C 0.46074 0.40066 0.46337 0.0
C574 C 0.46313 0.36687 0.51036 0.0
C575 C 0.45594 0.40761 0.5068 0.0
C576 C 0.46791 0.42814 0.52463 0.0
C577 C 0.48474 0.4418 0.4992 0.0
C578 C 0.48956 0.43455 0.45621 0.0
C579 C 0.47768 0.4142 0.43855 0.0
H580 H 0.46315 0.35276 0.52082 0.0
H581 H 0.47907 0.3794 0.50872 0.0
H582 H 0.45624 0.37153 0.53988 0.0
H583 H 0.44284 0.3973 0.52626 0.0
H584 H 0.46358 0.43346 0.55707 0.0
H585 H 0.53883 0.82912 0.8409 0.0
H586 H 0.53654 0.853 0.78558 0.0
H587 H 0.53588 0.88892 0.91263 0.0
H588 H 0.53829 0.86512 0.96827 0.0
H589 H 0.50587 0.86078 0.77564 0.0
H590 H 0.57691 0.9331 0.83077 0.0
H591 H 0.57267 0.90842 0.84826 0.0
H592 H 0.56239 0.92152 0.883 0.0
C593 C 0.53829 0.84216 0.8571 0.0
C594 C 0.53864 0.84517 0.90901 0.0
C595 C 0.53709 0.85585 0.82542 0.0
C596 C 0.5363 0.87291 0.84488 0.0
C597 C 0.53699 0.87617 0.89673 0.0
H598 H 0.48025 0.937 0.73716 0.0
H599 H 0.49024 0.91342 0.76996 0.0
C600 C 0.53828 0.86251 0.92853 0.0
C601 C 0.53309 0.8863 0.81093 0.0
H602 H 0.55079 0.93634 0.7859 0.0
C603 C 0.51589 0.87727 0.7774 0.0
C604 C 0.54631 0.90779 0.81245 0.0
C605 C 0.56572 0.91827 0.84519 0.0
C606 C 0.51096 0.88922 0.74744 0.0
C607 C 0.52339 0.9108 0.75161 0.0
C608 C 0.54119 0.91979 0.78302 0.0
C609 C 0.51694 0.9243 0.7281 0.0
C610 C 0.49224 0.87866 0.71228 0.0
C611 C 0.52872 0.93839 0.69375 0.0
C612 C 0.52298 0.95198 0.67472 0.0
C613 C 0.50555 0.95181 0.6904 0.0
C614 C 0.49374 0.93748 0.72428 0.0
C615 C 0.49936 0.9239 0.74286 0.0
H616 H 0.48811 0.86258 0.70203 0.0
H617 H 0.47933 0.87828 0.73074 0.0
H618 H 0.49442 0.88697 0.6778 0.0
H619 H 0.54248 0.93908 0.6823 0.0
H620 H 0.53261 0.96316 0.64963 0.0
H621 H 0.66493 0.49348 0.9952 0.0
H622 H 0.63238 0.48583 0.95437 0.0
H623 H 0.66029 0.54712 0.90372 0.0
H624 H 0.69273 0.55486 0.94415 0.0
H625 H 0.62154 0.53326 0.94085 0.0
H626 H 0.62186 0.47685 0.80219 0.0
H627 H 0.6237 0.47251 0.86685 0.0
H628 H 0.64412 0.49435 0.8412 0.0
C629 C 0.66407 0.50531 0.97539 0.0
C630 C 0.6814 0.52473 0.9726 0.0
C631 C 0.6455 0.50092 0.95221 0.0
C632 C 0.64404 0.51584 0.92561 0.0
C633 C 0.66112 0.53542 0.92422 0.0
H634 H 0.58471 0.54491 0.7104 0.0
H635 H 0.60349 0.54187 0.78151 0.0
C636 C 0.67963 0.53984 0.94745 0.0
C637 C 0.62514 0.51107 0.89677 0.0
H638 H 0.59698 0.486 0.78935 0.0
C639 C 0.6159 0.52263 0.90824 0.0
C640 C 0.61775 0.49708 0.85449 0.0
C641 C 0.62737 0.48453 0.84002 0.0
C642 C 0.60018 0.52144 0.87692 0.0
C643 C 0.59379 0.50855 0.83286 0.0
C644 C 0.60198 0.49587 0.82325 0.0
C645 C 0.58115 0.5104 0.79275 0.0
C646 C 0.59111 0.5346 0.89013 0.0
C647 C 0.56245 0.49356 0.77511 0.0
C648 C 0.5516 0.49524 0.73417 0.0
C649 C 0.55953 0.51366 0.70988 0.0
C650 C 0.5782 0.53048 0.72807 0.0
C651 C 0.58888 0.52885 0.76906 0.0
H652 H 0.59267 0.53827 0.93089 0.0
H653 H 0.59922 0.54928 0.87175 0.0
H654 H 0.57481 0.52691 0.8773 0.0
H655 H 0.5564 0.47912 0.79264 0.0
H656 H 0.53729 0.482 0.72086 0.0
H657 H 0.1497 0.72992 0.88022 0.0
H658 H 0.12577 0.70192 0.82164 0.0
H659 H 0.09708 0.66497 0.9442 0.0
H660 H 0.12107 0.69297 0.00312 0.0
H661 H 0.12438 0.66433 0.81831 0.0
H662 H 0.04875 0.65449 0.84939 0.0
H663 H 0.0721 0.67777 0.86871 0.0
H664 H 0.06293 0.6558 0.90558 0.0
C665 C 0.13807 0.71593 0.89467 0.0
C666 C 0.13735 0.71348 0.94617 0.0
C667 C 0.12439 0.70002 0.8612 0.0
C668 C 0.10963 0.68145 0.8786 0.0
C669 C 0.10815 0.67934 0.93006 0.0
H670 H 0.03287 0.5573 0.78629 0.0
H671 H 0.05162 0.59184 0.8249 0.0
C672 C 0.12186 0.6953 0.96367 0.0
C673 C 0.09755 0.66352 0.84319 0.0
H674 H 0.04921 0.6263 0.8069 0.0
C675 C 0.10794 0.65617 0.81508 0.0
C676 C 0.07616 0.65301 0.83918 0.0
C677 C 0.0643 0.66075 0.86696 0.0
C678 C 0.09748 0.63787 0.78512 0.0
C679 C 0.07605 0.62692 0.7825 0.0
C680 C 0.06566 0.63476 0.80898 0.0
C681 C 0.06421 0.60622 0.75713 0.0
C682 C 0.10947 0.62987 0.75885 0.0
C683 C 0.065 0.60283 0.70593 0.0
C684 C 0.05445 0.58289 0.6836 0.0
C685 C 0.04275 0.56612 0.71203 0.0
C686 C 0.0418 0.56976 0.76312 0.0
C687 C 0.0524 0.58956 0.78533 0.0
H688 H 0.12569 0.63807 0.77263 0.0
H689 H 0.10305 0.61324 0.76373 0.0
H690 H 0.10873 0.632 0.71846 0.0
H691 H 0.07385 0.61554 0.68335 0.0
H692 H 0.05563 0.58063 0.64437 0.0
H693 H 0.52021 0.19364 0.00141 0.0
H694 H 0.52995 0.1749 0.94292 0.0
H695 H 0.47052 0.12146 0.94602 0.0
H696 H 0.46064 0.14018 0.00354 0.0
H697 H 0.5311 0.13861 0.94488 0.0
H698 H 0.47512 0.13273 0.79909 0.0
H699 H 0.48208 0.14954 0.85451 0.0
H700 H 0.46335 0.12277 0.85567 0.0
C701 C 0.50935 0.17781 0.98999 0.0
C702 C 0.4896 0.16837 0.00635 0.0
C703 C 0.51491 0.16717 0.95658 0.0
C704 C 0.50078 0.147 0.93933 0.0
C705 C 0.48145 0.13723 0.9579 0.0
H706 H 0.50123 0.0445 0.81613 0.0
H707 H 0.50937 0.07534 0.86645 0.0
C708 C 0.47584 0.14787 0.99078 0.0
C709 C 0.50574 0.13616 0.90063 0.0
H710 H 0.48681 0.10858 0.7898 0.0
C711 C 0.52169 0.1323 0.9105 0.0
C712 C 0.49393 0.12861 0.85504 0.0
C713 C 0.47783 0.13383 0.84017 0.0
C714 C 0.52508 0.11967 0.87751 0.0
C715 C 0.5118 0.1103 0.83449 0.0
C716 C 0.49688 0.1155 0.82302 0.0
C717 C 0.51132 0.09336 0.80379 0.0
C718 C 0.54264 0.1163 0.88949 0.0
C719 C 0.50977 0.09313 0.75165 0.0
C720 C 0.50445 0.07523 0.72279 0.0
C721 C 0.50083 0.05734 0.7456 0.0
C722 C 0.5039 0.05805 0.79751 0.0
C723 C 0.50883 0.07581 0.82637 0.0
H724 H 0.55548 0.13017 0.90924 0.0
H725 H 0.53782 0.10355 0.91465 0.0
H726 H 0.54807 0.11241 0.85547 0.0
H727 H 0.51162 0.10648 0.73339 0.0
H728 H 0.50246 0.0752 0.68277 0.0
H729 H 0.3011 0.46003 0.93679 0.0
H730 H 0.32977 0.46208 0.89454 0.0
H731 H 0.36891 0.49161 0.02707 0.0
H732 H 0.3402 0.48908 0.07009 0.0
H733 H 0.36583 0.49879 0.87921 0.0
H734 H 0.38134 0.44601 0.98736 0.0
H735 H 0.35772 0.44604 0.98881 0.0
H736 H 0.38003 0.4658 0.02321 0.0
C737 C 0.31572 0.46661 0.95724 0.0
C738 C 0.31838 0.47439 0.00677 0.0
C739 C 0.3321 0.46789 0.93298 0.0
C740 C 0.3514 0.47683 0.95785 0.0
C741 C 0.35408 0.48438 0.00745 0.0
H742 H 0.46519 0.49832 0.83408 0.0
H743 H 0.44127 0.49896 0.89149 0.0
C744 C 0.33771 0.48313 0.03176 0.0
C745 C 0.36885 0.47915 0.9308 0.0
H746 H 0.40366 0.46338 0.92513 0.0
C747 C 0.37416 0.49112 0.88937 0.0
C748 C 0.3798 0.4693 0.94455 0.0
C749 C 0.37441 0.45592 0.98817 0.0
C750 C 0.38988 0.49318 0.86064 0.0
C751 C 0.40037 0.48276 0.87331 0.0
C752 C 0.39557 0.47136 0.91571 0.0
C753 C 0.41495 0.48201 0.84009 0.0
C754 C 0.39502 0.50628 0.81652 0.0
C755 C 0.40793 0.47193 0.79287 0.0
C756 C 0.4214 0.47148 0.76026 0.0
C757 C 0.44227 0.48109 0.77417 0.0
C758 C 0.44925 0.49085 0.82209 0.0
C759 C 0.43564 0.49122 0.85493 0.0
H760 H 0.38954 0.51741 0.81957 0.0
H761 H 0.41163 0.51484 0.81264 0.0
H762 H 0.38762 0.49627 0.78215 0.0
H763 H 0.39195 0.46447 0.78109 0.0
H764 H 0.41538 0.46371 0.72388 0.0
H765 H 0.81937 0.34256 0.95718 0.0
H766 H 0.84012 0.36947 0.90248 0.0
H767 H 0.87263 0.33801 0.86758 0.0
H768 H 0.85168 0.31079 0.92125 0.0
H769 H 0.89732 0.38096 0.89729 0.0
H770 H 0.83841 0.36558 0.74712 0.0
H771 H 0.83199 0.36769 0.80967 0.0
H772 H 0.83558 0.34676 0.7906 0.0
C773 C 0.83073 0.34119 0.93735 0.0
C774 C 0.83381 0.32445 0.9436 0.0
C775 C 0.84257 0.35659 0.90612 0.0
C776 C 0.85771 0.35557 0.88055 0.0
C777 C 0.86095 0.33902 0.8869 0.0
H778 H 0.93646 0.42341 0.65497 0.0
H779 H 0.90842 0.39803 0.69973 0.0
C780 C 0.84907 0.32356 0.91792 0.0
C781 C 0.87081 0.37219 0.84884 0.0
H782 H 0.87076 0.39493 0.74132 0.0
C783 C 0.89152 0.38406 0.86328 0.0
C784 C 0.86315 0.37607 0.80437 0.0
C785 C 0.8411 0.3633 0.78658 0.0
C786 C 0.90484 0.39978 0.83447 0.0
C787 C 0.89718 0.40382 0.79026 0.0
C788 C 0.87648 0.3919 0.77557 0.0
C789 C 0.91091 0.41975 0.75794 0.0
C790 C 0.92711 0.41169 0.85096 0.0
C791 C 0.92081 0.44051 0.7745 0.0
C792 C 0.93684 0.45509 0.74905 0.0
C793 C 0.94328 0.4491 0.70669 0.0
C794 C 0.93204 0.42855 0.68767 0.0
C795 C 0.91599 0.414 0.71318 0.0
H796 H 0.93104 0.40435 0.88113 0.0
H797 H 0.93647 0.41316 0.8192 0.0
H798 H 0.93117 0.42737 0.86499 0.0
H799 H 0.91689 0.44525 0.80868 0.0
H800 H 0.94496 0.47081 0.76443 0.0
H801 H 0.81954 0.50919 0.8402 0.0
H802 H 0.84298 0.50328 0.79242 0.0
H803 H 0.89191 0.5419 0.90057 0.0
H804 H 0.86852 0.54719 0.94939 0.0
H805 H 0.87587 0.53159 0.74921 0.0
H806 H 0.89968 0.49285 0.88423 0.0
H807 H 0.87789 0.49589 0.89175 0.0
H808 H 0.90299 0.51659 0.91045 0.0
C809 C 0.83521 0.51611 0.85424 0.0
C810 C 0.84217 0.52872 0.89851 0.0
C811 C 0.8486 0.51279 0.82682 0.0
C812 C 0.86913 0.52187 0.84333 0.0
C813 C 0.87606 0.53434 0.88765 0.0
H814 H 0.97293 0.55901 0.67528 0.0
H815 H 0.94537 0.55535 0.72468 0.0
C816 C 0.86271 0.53762 0.9151 0.0
C817 C 0.88369 0.51966 0.81256 0.0
H818 H 0.92152 0.50789 0.81738 0.0
C819 C 0.88566 0.52615 0.76391 0.0
C820 C 0.89626 0.51227 0.83144 0.0
C821 C 0.89397 0.5038 0.88215 0.0
C822 C 0.90048 0.52634 0.73449 0.0
C823 C 0.91397 0.5203 0.75464 0.0
C824 C 0.91138 0.51285 0.80234 0.0
C825 C 0.93131 0.52241 0.72732 0.0
C826 C 0.90162 0.53315 0.68214 0.0
C827 C 0.93304 0.5052 0.71426 0.0
C828 C 0.94891 0.50726 0.68617 0.0
C829 C 0.96336 0.52659 0.67097 0.0
C830 C 0.96194 0.54386 0.68579 0.0
C831 C 0.94614 0.5418 0.71388 0.0
H832 H 0.88692 0.53127 0.66757 0.0
H833 H 0.91321 0.54964 0.68201 0.0
H834 H 0.90599 0.52436 0.6566 0.0
H835 H 0.92181 0.49012 0.72462 0.0
H836 H 0.94946 0.49364 0.67503 0.0
H837 H 0.30034 0.89653 0.00129 0.0
H838 H 0.32389 0.92296 0.95019 0.0
H839 H 0.29513 0.88257 0.81876 0.0
H840 H 0.27036 0.85672 0.86898 0.0
H841 H 0.35068 0.92061 0.90294 0.0
H842 H 0.30463 0.93435 0.76362 0.0
H843 H 0.29402 0.92043 0.81798 0.0
H844 H 0.29615 0.90751 0.76299 0.0
C845 C 0.29846 0.89346 0.96135 0.0
C846 C 0.2834 0.87431 0.9395 0.0
C847 C 0.31211 0.9086 0.93212 0.0
C848 C 0.31124 0.90493 0.88042 0.0
C849 C 0.29589 0.88608 0.85832 0.0
H850 H 0.41219 0.94223 0.70995 0.0
H851 H 0.38094 0.92537 0.75301 0.0
C852 C 0.28197 0.87106 0.8874 0.0
C853 C 0.32791 0.91954 0.85084 0.0
H854 H 0.33817 0.94216 0.73972 0.0
C855 C 0.34787 0.92563 0.8678 0.0
C856 C 0.32445 0.92643 0.80516 0.0
C857 C 0.30364 0.92201 0.78675 0.0
C858 C 0.36426 0.93738 0.83932 0.0
C859 C 0.36059 0.94265 0.79173 0.0
C860 C 0.34086 0.93771 0.77581 0.0
C861 C 0.37704 0.95189 0.75728 0.0
C862 C 0.38537 0.94364 0.8601 0.0
C863 C 0.38441 0.97195 0.74245 0.0
C864 C 0.40218 0.98154 0.71679 0.0
C865 C 0.4127 0.97113 0.70632 0.0
C866 C 0.40442 0.95061 0.71809 0.0
C867 C 0.38664 0.94101 0.7428 0.0
H868 H 0.38627 0.94411 0.9014 0.0
H869 H 0.38951 0.93226 0.8464 0.0
H870 H 0.39669 0.95894 0.84818 0.0
H871 H 0.37709 0.98053 0.75308 0.0
H872 H 0.40838 0.99741 0.70819 0.0
H873 H 0.4309 0.28628 0.93934 0.0
H874 H 0.43427 0.3098 0.87536 0.0
H875 H 0.49718 0.34922 0.9243 0.0
H876 H 0.49425 0.32535 0.98662 0.0
H877 H 0.44384 0.34926 0.8846 0.0
H878 H 0.50138 0.34389 0.77686 0.0
H879 H 0.48794 0.32619 0.82335 0.0
H880 H 0.5095 0.35099 0.84138 0.0
C881 C 0.44555 0.29978 0.93605 0.0
C882 C 0.46232 0.30379 0.96817 0.0
C883 C 0.44742 0.31329 0.89958 0.0
C884 C 0.46608 0.3311 0.89423 0.0
C885 C 0.48275 0.33534 0.92675 0.0
H886 H 0.5095 0.44297 0.74876 0.0
H887 H 0.50497 0.41351 0.7935 0.0
C888 C 0.48094 0.3218 0.96303 0.0
C889 C 0.46793 0.34568 0.85614 0.0
H890 H 0.49604 0.37198 0.76072 0.0
C891 C 0.45507 0.354 0.85707 0.0
C892 C 0.48254 0.35185 0.82004 0.0
C893 C 0.49598 0.3426 0.81493 0.0
C894 C 0.45695 0.36887 0.82433 0.0
C895 C 0.47196 0.37547 0.78932 0.0
C896 C 0.48454 0.36687 0.78759 0.0
C897 C 0.47567 0.39234 0.75679 0.0
C898 C 0.44338 0.37801 0.82866 0.0
C899 C 0.46107 0.39 0.71972 0.0
C900 C 0.46365 0.40683 0.69371 0.0
C901 C 0.48084 0.42633 0.70464 0.0
C902 C 0.496 0.42824 0.73963 0.0
C903 C 0.49345 0.41141 0.76528 0.0
H904 H 0.43487 0.37369 0.86282 0.0
H905 H 0.45242 0.395 0.82894 0.0
H906 H 0.43225 0.37247 0.79599 0.0
H907 H 0.44735 0.37531 0.71215 0.0
H908 H 0.4517 0.40479 0.66697 0.0
H909 H 0.13166 0.4156 0.99088 0.0
H910 H 0.10262 0.40716 0.93277 0.0
H911 H 0.13239 0.46963 0.88967 0.0
H912 H 0.16163 0.47796 0.94588 0.0
H913 H 0.07768 0.42293 0.93363 0.0
H914 H 0.11433 0.43808 0.75592 0.0
H915 H 0.12605 0.43512 0.81218 0.0
H916 H 0.12845 0.45956 0.79986 0.0
C917 C 0.13214 0.42743 0.96835 0.0
C918 C 0.14894 0.44746 0.97298 0.0
C919 C 0.11552 0.42259 0.93534 0.0
C920 C 0.11554 0.43765 0.90617 0.0
C921 C 0.13227 0.45763 0.91084 0.0
H922 H 0.03439 0.47235 0.81207 0.0
H923 H 0.05375 0.45944 0.85551 0.0
C924 C 0.14885 0.46246 0.94364 0.0
C925 C 0.09758 0.43321 0.87348 0.0
H926 H 0.0848 0.44251 0.7587 0.0
C927 C 0.07906 0.42671 0.895 0.0
C928 C 0.09916 0.43752 0.82271 0.0
C929 C 0.11803 0.44272 0.79624 0.0
C930 C 0.06271 0.42635 0.86836 0.0
C931 C 0.06519 0.43314 0.81952 0.0
C932 C 0.083 0.43767 0.79649 0.0
C933 C 0.05101 0.43857 0.79456 0.0
C934 C 0.04322 0.41944 0.89348 0.0
C935 C 0.04319 0.43135 0.74542 0.0
C936 C 0.03225 0.43898 0.71995 0.0
C937 C 0.02914 0.4541 0.74317 0.0
C938 C 0.03646 0.46074 0.79292 0.0
C939 C 0.04737 0.45317 0.81816 0.0
H940 H 0.04075 0.40752 0.91987 0.0
H941 H 0.04416 0.43268 0.91526 0.0
H942 H 0.02995 0.41319 0.86605 0.0
H943 H 0.04601 0.42023 0.72636 0.0
H944 H 0.02682 0.43352 0.68167 0.0
H945 H 0.66029 0.17703 0.98581 0.0
H946 H 0.62853 0.14952 0.9447 0.0
H947 H 0.65933 0.11748 0.89885 0.0
H948 H 0.69111 0.14498 0.93866 0.0
H949 H 0.62208 0.1361 0.84207 0.0
H950 H 0.6087 0.07337 0.9635 0.0
H951 H 0.62538 0.10012 0.98259 0.0
H952 H 0.63402 0.08668 0.9433 0.0
C953 C 0.66031 0.16417 0.96675 0.0
C954 C 0.67822 0.16315 0.96564 0.0
C955 C 0.64214 0.14841 0.94372 0.0
C956 C 0.64156 0.13133 0.91976 0.0
C957 C 0.65939 0.13031 0.91837 0.0
H958 H 0.57683 0.02977 0.71905 0.0
H959 H 0.59766 0.05533 0.78573 0.0
C960 C 0.67754 0.14605 0.94109 0.0
C961 C 0.62276 0.11509 0.89301 0.0
H962 H 0.59165 0.0632 0.88182 0.0
C963 C 0.61509 0.12018 0.85117 0.0
C964 C 0.61371 0.09443 0.9054 0.0
C965 C 0.62074 0.08831 0.95145 0.0
C966 C 0.59955 0.10493 0.81903 0.0
C967 C 0.59125 0.0841 0.82988 0.0
C968 C 0.59811 0.07916 0.87348 0.0
C969 C 0.57724 0.06722 0.7937 0.0
C970 C 0.59313 0.11119 0.77218 0.0
C971 C 0.55857 0.06503 0.77706 0.0
C972 C 0.54681 0.05065 0.73827 0.0
C973 C 0.55326 0.03791 0.71622 0.0
C974 C 0.57144 0.0394 0.73495 0.0
C975 C 0.58331 0.05393 0.77328 0.0
H976 H 0.60387 0.12738 0.76464 0.0
H977 H 0.59196 0.10121 0.73952 0.0
H978 H 0.57801 0.10962 0.77616 0.0
H979 H 0.55341 0.07488 0.79292 0.0
H980 H 0.53314 0.05015 0.72414 0.0
H981 H 0.55954 0.72319 0.81616 0.0
H982 H 0.56237 0.70059 0.75348 0.0
H983 H 0.56336 0.66276 0.86879 0.0
H984 H 0.56066 0.68528 0.93145 0.0
H985 H 0.5907 0.66898 0.79349 0.0
H986 H 0.51239 0.6442 0.7157 0.0
H987 H 0.53087 0.67107 0.71738 0.0
H988 H 0.52236 0.65884 0.77446 0.0
C989 C 0.5605 0.71011 0.82806 0.0
C990 C 0.55962 0.70581 0.87856 0.0
C991 C 0.56216 0.69729 0.7923 0.0
C992 C 0.56278 0.67989 0.80654 0.0
C993 C 0.56294 0.67617 0.85714 0.0
H994 H 0.5377 0.56349 0.75762 0.0
H995 H 0.55248 0.60004 0.77754 0.0
C996 C 0.5614 0.68902 0.89289 0.0
C997 C 0.56139 0.66439 0.76922 0.0
H998 H 0.52675 0.62464 0.69099 0.0
C999 C 0.57693 0.65956 0.77009 0.0
C1000 C 0.5435 0.6523 0.7383 0.0
C1001 C 0.52623 0.65669 0.73631 0.0
C1002 C 0.57437 0.64199 0.7438 0.0
C1003 C 0.55574 0.62889 0.7167 0.0
C1004 C 0.541 0.63475 0.71198 0.0
C1005 C 0.54957 0.60744 0.70189 0.0
C1006 C 0.59119 0.637 0.74745 0.0
C1007 C 0.54282 0.59943 0.65268 0.0
C1008 C 0.53423 0.57837 0.6411 0.0
C1009 C 0.53191 0.56508 0.67884 0.0
C1010 C 0.53912 0.57329 0.72777 0.0
C1011 C 0.54785 0.59424 0.73913 0.0
H1012 H 0.60624 0.65119 0.75295 0.0
H1013 H 0.58928 0.62774 0.78006 0.0
H1014 H 0.59098 0.62805 0.71362 0.0
H1015 H 0.54375 0.60938 0.62362 0.0
H1016 H 0.52876 0.57243 0.60308 0.0
H1017 H 0.43545 0.14321 0.30369 0.0
H1018 H 0.43691 0.11922 0.36041 0.0
H1019 H 0.5022 0.15566 0.37256 0.0
H1020 H 0.50078 0.17985 0.31681 0.0
H1021 H 0.45263 0.09581 0.34675 0.0
H1022 H 0.4917 0.14585 0.51598 0.0
H1023 H 0.48138 0.15375 0.46556 0.0
H1024 H 0.50611 0.15631 0.46299 0.0
C1025 C 0.45011 0.14615 0.31876 0.0
C1026 C 0.46801 0.16342 0.30583 0.0
C1027 C 0.45092 0.13251 0.3514 0.0
C1028 C 0.46964 0.13581 0.37169 0.0
C1029 C 0.48753 0.15309 0.35885 0.0
H1030 H 0.50754 0.0522 0.43567 0.0
H1031 H 0.4982 0.07661 0.40654 0.0
C1032 C 0.48672 0.16685 0.32663 0.0
C1033 C 0.47063 0.12025 0.40234 0.0
H1034 H 0.4937 0.11471 0.50736 0.0
C1035 C 0.46128 0.09992 0.38234 0.0
C1036 C 0.48157 0.12539 0.44933 0.0
C1037 C 0.49055 0.14647 0.47494 0.0
C1038 C 0.46369 0.08498 0.40629 0.0
C1039 C 0.47615 0.09059 0.45092 0.0
C1040 C 0.48438 0.11052 0.47277 0.0
C1041 C 0.48259 0.07662 0.47164 0.0
C1042 C 0.45333 0.06342 0.38277 0.0
C1043 C 0.47765 0.06912 0.51913 0.0
C1044 C 0.48311 0.05504 0.53636 0.0
C1045 C 0.4936 0.04836 0.50623 0.0
C1046 C 0.49916 0.05665 0.45964 0.0
C1047 C 0.49379 0.07063 0.44273 0.0
H1048 H 0.43963 0.06002 0.35904 0.0
H1049 H 0.46392 0.06169 0.35874 0.0
H1050 H 0.44884 0.05194 0.4114 0.0
H1051 H 0.46919 0.07377 0.54225 0.0
H1052 H 0.47872 0.04905 0.57252 0.0
H1053 H 0.34547 0.52323 0.24574 0.0
H1054 H 0.37762 0.52794 0.28232 0.0
H1055 H 0.34632 0.4663 0.3307 0.0
H1056 H 0.31423 0.4616 0.29531 0.0
H1057 H 0.38732 0.52305 0.38411 0.0
H1058 H 0.39288 0.46908 0.25006 0.0
H1059 H 0.3769 0.47999 0.23749 0.0
H1060 H 0.36855 0.45848 0.27572 0.0
C1061 C 0.34543 0.51079 0.26471 0.0
C1062 C 0.32735 0.49198 0.26733 0.0
C1063 C 0.3638 0.51345 0.28514 0.0
C1064 C 0.36433 0.49729 0.30805 0.0
C1065 C 0.34626 0.47875 0.31196 0.0
H1066 H 0.42817 0.45984 0.48913 0.0
H1067 H 0.4072 0.46509 0.42755 0.0
C1068 C 0.32794 0.47611 0.2918 0.0
C1069 C 0.38355 0.49972 0.3296 0.0
H1070 H 0.4124 0.47682 0.32821 0.0
C1071 C 0.39318 0.51333 0.37137 0.0
C1072 C 0.39112 0.48709 0.31243 0.0
C1073 C 0.38196 0.47297 0.26614 0.0
C1074 C 0.40924 0.51346 0.39895 0.0
C1075 C 0.41594 0.49982 0.38361 0.0
C1076 C 0.40717 0.4872 0.3399 0.0
C1077 C 0.42992 0.49639 0.416 0.0
C1078 C 0.41794 0.52712 0.44611 0.0
C1079 C 0.44988 0.51208 0.42867 0.0
C1080 C 0.46191 0.50918 0.46426 0.0
C1081 C 0.45417 0.49049 0.48741 0.0
C1082 C 0.43455 0.47448 0.47243 0.0
C1083 C 0.42256 0.47741 0.43705 0.0
H1084 H 0.40899 0.53447 0.45647 0.0
H1085 H 0.41852 0.51822 0.47747 0.0
H1086 H 0.43366 0.53942 0.44088 0.0
H1087 H 0.45592 0.52675 0.41222 0.0
H1088 H 0.4769 0.52185 0.47514 0.0
H1089 H 0.8695 0.33956 0.19547 0.0
H1090 H 0.8954 0.365 0.2561 0.0
H1091 H 0.86942 0.32337 0.37248 0.0
H1092 H 0.84338 0.29782 0.31199 0.0
H1093 H 0.87627 0.3651 0.39074 0.0
H1094 H 0.94409 0.36349 0.33029 0.0
H1095 H 0.92849 0.36487 0.28053 0.0
H1096 H 0.91855 0.34249 0.31602 0.0
C1097 C 0.86938 0.33581 0.23393 0.0
C1098 C 0.85448 0.31674 0.24907 0.0
C1099 C 0.88424 0.35025 0.26838 0.0
C1100 C 0.8844 0.3459 0.31851 0.0
C1101 C 0.86961 0.32687 0.3338 0.0
H1102 H 0.96058 0.44325 0.55165 0.0
H1103 H 0.93653 0.40874 0.51508 0.0
C1104 C 0.85484 0.31232 0.29925 0.0
C1105 C 0.89932 0.36187 0.3551 0.0
H1106 H 0.95015 0.39306 0.38043 0.0
C1107 C 0.89243 0.37102 0.38939 0.0
C1108 C 0.9203 0.36935 0.35314 0.0
C1109 C 0.92836 0.35945 0.31833 0.0
C1110 C 0.90612 0.38853 0.41938 0.0
C1111 C 0.92718 0.39673 0.41542 0.0
C1112 C 0.93399 0.38675 0.38328 0.0
C1113 C 0.94227 0.41704 0.43893 0.0
C1114 C 0.89797 0.39887 0.45254 0.0
C1115 C 0.95375 0.43292 0.40831 0.0
C1116 C 0.96751 0.45247 0.42892 0.0
C1117 C 0.97013 0.45662 0.48076 0.0
C1118 C 0.95884 0.44059 0.5116 0.0
C1119 C 0.94505 0.4209 0.49079 0.0
H1120 H 0.8814 0.39244 0.44515 0.0
H1121 H 0.9008 0.39676 0.49198 0.0
H1122 H 0.90579 0.4156 0.4474 0.0
H1123 H 0.95181 0.43027 0.3682 0.0
H1124 H 0.97594 0.46438 0.40395 0.0
H1125 H 0.53248 0.81382 0.29048 0.0
H1126 H 0.52783 0.83324 0.35821 0.0
H1127 H 0.51936 0.87016 0.25179 0.0
H1128 H 0.52428 0.851 0.18383 0.0
H1129 H 0.5498 0.8919 0.33462 0.0
H1130 H 0.47456 0.83316 0.3944 0.0
H1131 H 0.49323 0.82554 0.38612 0.0
H1132 H 0.48282 0.83179 0.33323 0.0
C1133 C 0.52961 0.82607 0.28154 0.0
C1134 C 0.52884 0.831 0.23193 0.0
C1135 C 0.52677 0.83698 0.32019 0.0
C1136 C 0.52309 0.85295 0.3098 0.0
C1137 C 0.52205 0.85775 0.26034 0.0
H1138 H 0.49019 0.93142 0.45287 0.0
H1139 H 0.49045 0.90234 0.41144 0.0
C1140 C 0.52479 0.84678 0.22164 0.0
C1141 C 0.5216 0.86557 0.35056 0.0
H1142 H 0.49084 0.86538 0.43925 0.0
C1143 C 0.53703 0.8861 0.35788 0.0
C1144 C 0.50488 0.85782 0.38059 0.0
C1145 C 0.48781 0.8359 0.37328 0.0
C1146 C 0.53598 0.89932 0.39377 0.0
C1147 C 0.51913 0.89169 0.42348 0.0
C1148 C 0.50385 0.87103 0.41684 0.0
C1149 C 0.51609 0.90572 0.45681 0.0
C1150 C 0.55244 0.9216 0.39807 0.0
C1151 C 0.52972 0.91645 0.4979 0.0
C1152 C 0.52967 0.93319 0.52172 0.0
C1153 C 0.51604 0.93939 0.50442 0.0
C1154 C 0.50112 0.92726 0.46653 0.0
C1155 C 0.50116 0.91056 0.44293 0.0
H1156 H 0.56272 0.92562 0.36716 0.0
H1157 H 0.54573 0.93172 0.3983 0.0
H1158 H 0.56168 0.92485 0.4336 0.0
H1159 H 0.54119 0.91271 0.50945 0.0
H1160 H 0.54121 0.94208 0.55117 0.0
H1161 H 0.73152 0.59167 0.22939 0.0
H1162 H 0.70926 0.5952 0.2868 0.0
H1163 H 0.6882 0.53361 0.33035 0.0
H1164 H 0.71096 0.53029 0.27482 0.0
H1165 H 0.6689 0.57305 0.28006 0.0
H1166 H 0.69652 0.5633 0.46374 0.0
H1167 H 0.71127 0.56859 0.40986 0.0
H1168 H 0.69194 0.54275 0.42005 0.0
C1169 C 0.72255 0.57908 0.25218 0.0
C1170 C 0.72298 0.56067 0.24739 0.0
C1171 C 0.70976 0.58109 0.28479 0.0
C1172 C 0.69727 0.56479 0.31345 0.0
C1173 C 0.69803 0.54659 0.30957 0.0
H1174 H 0.57893 0.52067 0.39895 0.0
H1175 H 0.61075 0.53109 0.36117 0.0
C1176 C 0.71083 0.54459 0.27715 0.0
C1177 C 0.68187 0.56585 0.34332 0.0
H1178 H 0.66139 0.55514 0.45626 0.0
C1179 C 0.66752 0.56954 0.31888 0.0
C1180 C 0.68021 0.56164 0.39422 0.0
C1181 C 0.69596 0.55908 0.42359 0.0
C1182 C 0.65082 0.56776 0.34295 0.0
C1183 C 0.6482 0.56173 0.39244 0.0
C1184 C 0.66326 0.55944 0.41804 0.0
C1185 C 0.62905 0.55582 0.41629 0.0
C1186 C 0.63585 0.57184 0.31471 0.0
C1187 C 0.62884 0.56591 0.46079 0.0
C1188 C 0.61053 0.55989 0.48291 0.0
C1189 C 0.59221 0.54357 0.46103 0.0
C1190 C 0.59266 0.53338 0.41681 0.0
C1191 C 0.61086 0.5394 0.39486 0.0
H1192 H 0.6431 0.58249 0.28486 0.0
H1193 H 0.62341 0.5572 0.29687 0.0
H1194 H 0.62913 0.57848 0.33984 0.0
H1195 H 0.64278 0.5785 0.47815 0.0
H1196 H 0.61076 0.56802 0.51704 0.0
H1197 H 0.14232 0.69392 0.21353 0.0
H1198 H 0.12526 0.66951 0.27677 0.0
H1199 H 0.16651 0.71373 0.39125 0.0
H1200 H 0.18399 0.73806 0.32817 0.0
H1201 H 0.15991 0.67374 0.40165 0.0
H1202 H 0.08763 0.67408 0.37511 0.0
H1203 H 0.09613 0.66848 0.31868 0.0
H1204 H 0.1109 0.69327 0.35107 0.0
C1205 C 0.14787 0.69841 0.2521 0.0
C1206 C 0.16442 0.71801 0.2658 0.0
C1207 C 0.13799 0.68451 0.28825 0.0
C1208 C 0.14442 0.68994 0.33879 0.0
C1209 C 0.16121 0.7093 0.35251 0.0
H1210 H 0.06377 0.61383 0.5588 0.0
H1211 H 0.0897 0.64448 0.52222 0.0
C1212 C 0.17107 0.72323 0.31643 0.0
C1213 C 0.13357 0.67541 0.37724 0.0
H1214 H 0.08697 0.64782 0.42297 0.0
C1215 C 0.14401 0.66819 0.40671 0.0
C1216 C 0.11296 0.66852 0.38452 0.0
C1217 C 0.10126 0.67662 0.35605 0.0
C1218 C 0.1341 0.65355 0.44174 0.0
C1219 C 0.11318 0.6458 0.44698 0.0
C1220 C 0.103 0.6537 0.41895 0.0
C1221 C 0.10099 0.62834 0.47791 0.0
C1222 C 0.1461 0.64647 0.47261 0.0
C1223 C 0.09932 0.60922 0.46696 0.0
C1224 C 0.08459 0.59169 0.48797 0.0
C1225 C 0.071 0.59286 0.51989 0.0
C1226 C 0.07388 0.61231 0.53423 0.0
C1227 C 0.08866 0.62987 0.51316 0.0
H1228 H 0.16243 0.65835 0.47677 0.0
H1229 H 0.14031 0.64263 0.51016 0.0
H1230 H 0.14486 0.63254 0.45375 0.0
H1231 H 0.10841 0.60755 0.43938 0.0
H1232 H 0.0829 0.577 0.4762 0.0
loop_
_geom_bond_atom_site_label_1
_geom_bond_atom_site_label_2
_geom_bond_distance
_geom_bond_site_symmetry_2
_ccdc_geom_bond_type
C0 C1 1.384 . S
C0 C2 1.384 . S
C0 H28 0.931 . S
C1 C0 1.384 . S
C1 C4 1.382 . S
C2 C0 1.384 . S
C2 C3 1.381 . S
C2 H29 0.930 . S
C3 C2 1.381 . S
C3 C5 1.381 . S
C3 C6 1.487 . S
C4 C1 1.382 . S
C4 C5 1.387 . S
C4 H30 0.930 . S
C5 C3 1.381 . S
C5 C4 1.387 . S
C5 H31 0.931 . S
C6 C3 1.487 . S
C6 C13 1.399 . S
C6 N44 1.343 . S
C7 C8 1.384 . S
C7 C9 1.384 . S
C7 H32 0.931 . S
C8 C7 1.384 . S
C8 C11 1.382 . S
C9 C7 1.384 . S
C9 C10 1.381 . S
C9 H33 0.930 . S
C10 C9 1.381 . S
C10 C12 1.381 . S
C10 C13 1.487 . S
C11 C8 1.382 . S
C11 C12 1.387 . S
C11 H34 0.930 . S
C12 C10 1.381 . S
C12 C11 1.387 . S
C12 H35 0.931 . S
C13 C6 1.399 . S
C13 C10 1.487 . S
C13 N45 1.343 . S
C14 C15 1.384 . S
C14 C16 1.384 . S
C14 H36 0.931 . S
C15 C14 1.384 . S
C15 C18 1.382 . S
C16 C14 1.384 . S
C16 C17 1.381 . S
C16 H37 0.930 . S
C17 C16 1.381 . S
C17 C19 1.381 . S
C17 C20 1.487 . S
C18 C15 1.382 . S
C18 C19 1.387 . S
C18 H38 0.930 . S
C19 C17 1.381 . S
C19 C18 1.387 . S
C19 H39 0.931 . S
C20 C17 1.487 . S
C20 C27 1.399 . S
C20 N45 1.343 . S
C21 C22 1.384 . S
C21 C23 1.384 . S
C21 H40 0.931 . S
C22 C21 1.384 . S
C22 C25 1.382 . S
C23 C21 1.384 . S
C23 C24 1.381 . S
C23 H41 0.930 . S
C24 C23 1.381 . S
C24 C26 1.381 . S
C24 C27 1.487 . S
C25 C22 1.382 . S
C25 C26 1.387 . S
C25 H42 0.930 . S
C26 C24 1.381 . S
C26 C25 1.387 . S
C26 H43 0.931 . S
C27 C20 1.399 . S
C27 C24 1.487 . S
C27 N44 1.343 . S
H28 C0 0.931 . S
H29 C2 0.930 . S
H30 C4 0.930 . S
H31 C5 0.931 . S
H32 C7 0.931 . S
H33 C9 0.930 . S
H34 C11 0.930 . S
H35 C12 0.931 . S
H36 C14 0.931 . S
H37 C16 0.930 . S
H38 C18 0.930 . S
H39 C19 0.931 . S
H40 C21 0.931 . S
H41 C23 0.930 . S
H42 C25 0.930 . S
H43 C26 0.931 . S
N44 C6 1.343 . S
N44 C27 1.343 . S
N45 C13 1.343 . S
N45 C20 1.343 . S
C46 C47 1.384 . S
C46 C48 1.384 . S
C46 H74 0.931 . S
C47 C46 1.384 . S
C47 C50 1.382 . S
C48 C46 1.384 . S
C48 C49 1.381 . S
C48 H75 0.930 . S
C49 C48 1.381 . S
C49 C51 1.381 . S
C49 C52 1.487 . S
C50 C47 1.382 . S
C50 C51 1.387 . S
C50 H76 0.930 . S
C51 C49 1.381 . S
C51 C50 1.387 . S
C51 H77 0.931 . S
C52 C49 1.487 . S
C52 C59 1.399 . S
C52 N90 1.343 . S
C53 C54 1.385 1_554 S
C53 C55 1.383 . S
C53 H78 0.930 . S
C54 C53 1.385 1_556 S
C54 C57 1.382 . S
C55 C53 1.383 . S
C55 C56 1.381 . S
C55 H79 0.930 . S
C56 C55 1.381 . S
C56 C58 1.381 1_554 S
C56 C59 1.487 . S
C57 C54 1.382 . S
C57 C58 1.387 . S
C57 H80 0.930 . S
C58 C56 1.381 1_556 S
C58 C57 1.387 . S
C58 H81 0.931 . S
C59 C52 1.399 . S
C59 C56 1.487 . S
C59 N91 1.343 . S
C60 C61 1.384 1_554 S
C60 C62 1.384 . S
C60 H82 0.931 . S
C61 C60 1.384 1_556 S
C61 C64 1.382 . S
C62 C60 1.384 . S
C62 C63 1.381 . S
C62 H83 0.930 . S
C63 C62 1.381 . S
C63 C65 1.381 1_554 S
C63 C66 1.487 . S
C64 C61 1.382 . S
C64 C65 1.387 . S
C64 H84 0.930 . S
C65 C63 1.381 1_556 S
C65 C64 1.387 . S
C65 H85 0.931 . S
C66 C63 1.487 . S
C66 C73 1.399 . S
C66 N91 1.343 . S
C67 C68 1.384 . S
C67 C69 1.384 . S
C67 H86 0.931 . S
C68 C67 1.384 . S
C68 C71 1.382 . S
C69 C67 1.384 . S
C69 C70 1.381 . S
C69 H87 0.930 . S
C70 C69 1.381 . S
C70 C72 1.381 . S
C70 C73 1.487 . S
C71 C68 1.382 . S
C71 C72 1.387 . S
C71 H88 0.930 . S
C72 C70 1.381 . S
C72 C71 1.387 . S
C72 H89 0.931 . S
C73 C66 1.399 . S
C73 C70 1.487 . S
C73 N90 1.343 . S
H74 C46 0.931 . S
H75 C48 0.930 . S
H76 C50 0.930 . S
H77 C51 0.931 . S
H78 C53 0.930 . S
H79 C55 0.930 . S
H80 C57 0.930 . S
H81 C58 0.931 . S
H82 C60 0.931 . S
H83 C62 0.930 . S
H84 C64 0.930 . S
H85 C65 0.931 . S
H86 C67 0.931 . S
H87 C69 0.930 . S
H88 C71 0.930 . S
H89 C72 0.931 . S
N90 C52 1.343 . S
N90 C73 1.343 . S
N91 C59 1.343 . S
N91 C66 1.343 . S
C92 C93 1.384 . S
C92 C94 1.384 . S
C92 H120 0.931 . S
C93 C92 1.384 . S
C93 C96 1.382 . S
C94 C92 1.384 . S
C94 C95 1.381 . S
C94 H121 0.930 1_556 S
C95 C94 1.381 . S
C95 C97 1.381 . S
C95 C98 1.487 1_556 S
C96 C93 1.382 . S
C96 C97 1.387 . S
C96 H122 0.930 . S
C97 C95 1.381 . S
C97 C96 1.387 . S
C97 H123 0.931 . S
C98 C95 1.487 1_554 S
C98 C105 1.399 . S
C98 N136 1.343 1_554 S
C99 C100 1.384 . S
C99 C101 1.384 . S
C99 H124 0.931 . S
C100 C99 1.384 . S
C100 C103 1.382 . S
C101 C99 1.384 . S
C101 C102 1.381 . S
C101 H125 0.930 . S
C102 C101 1.381 . S
C102 C104 1.381 . S
C102 C105 1.487 . S
C103 C100 1.382 . S
C103 C104 1.387 . S
C103 H126 0.930 . S
C104 C102 1.381 . S
C104 C103 1.387 . S
C104 H127 0.931 . S
C105 C98 1.399 . S
C105 C102 1.487 . S
C105 N137 1.343 . S
C106 C107 1.384 . S
C106 C108 1.384 . S
C106 H128 0.931 . S
C107 C106 1.384 . S
C107 C110 1.382 . S
C108 C106 1.384 . S
C108 C109 1.381 . S
C108 H129 0.930 . S
C109 C108 1.381 . S
C109 C111 1.381 . S
C109 C112 1.487 . S
C110 C107 1.382 . S
C110 C111 1.387 . S
C110 H130 0.930 . S
C111 C109 1.381 . S
C111 C110 1.387 . S
C111 H131 0.931 . S
C112 C109 1.487 . S
C112 C119 1.399 . S
C112 N137 1.343 . S
C113 C114 1.384 . S
C113 C115 1.384 . S
C113 H132 0.931 . S
C114 C113 1.384 . S
C114 C117 1.382 . S
C115 C113 1.384 . S
C115 C116 1.381 . S
C115 H133 0.930 1_556 S
C116 C115 1.381 . S
C116 C118 1.381 . S
C116 C119 1.487 1_556 S
C117 C114 1.382 . S
C117 C118 1.387 . S
C117 H134 0.930 . S
C118 C116 1.381 . S
C118 C117 1.387 . S
C118 H135 0.931 . S
C119 C112 1.399 . S
C119 C116 1.487 1_554 S
C119 N136 1.343 1_554 S
H120 C92 0.931 . S
H121 C94 0.930 1_554 S
H122 C96 0.930 . S
H123 C97 0.931 . S
H124 C99 0.931 . S
H125 C101 0.930 . S
H126 C103 0.930 . S
H127 C104 0.931 . S
H128 C106 0.931 . S
H129 C108 0.930 . S
H130 C110 0.930 . S
H131 C111 0.931 . S
H132 C113 0.931 . S
H133 C115 0.930 1_554 S
H134 C117 0.930 . S
H135 C118 0.931 . S
N136 C98 1.343 1_556 S
N136 C119 1.343 1_556 S
N137 C105 1.343 . S
N137 C112 1.343 . S
C138 C139 1.384 . S
C138 C140 1.384 . S
C138 H166 0.931 . S
C139 C138 1.384 . S
C139 C142 1.382 . S
C140 C138 1.384 . S
C140 C141 1.381 . S
C140 H167 0.926 1_556 S
C141 C140 1.381 . S
C141 C143 1.381 . S
C141 C144 1.487 . S
C142 C139 1.382 . S
C142 C143 1.387 . S
C142 H168 0.930 . S
C143 C141 1.381 . S
C143 C142 1.387 . S
C143 H169 0.931 . S
C144 C141 1.487 . S
C144 C151 1.399 1_556 S
C144 N182 1.343 . S
C145 C146 1.384 . S
C145 C147 1.384 . S
C145 H170 0.931 . S
C146 C145 1.384 . S
C146 C149 1.382 . S
C147 C145 1.384 . S
C147 C148 1.381 . S
C147 H171 0.930 . S
C148 C147 1.381 . S
C148 C150 1.381 . S
C148 C151 1.487 . S
C149 C146 1.382 . S
C149 C150 1.387 . S
C149 H172 0.930 . S
C150 C148 1.381 . S
C150 C149 1.387 . S
C150 H173 0.931 . S
C151 C144 1.399 1_554 S
C151 C148 1.487 . S
C151 N183 1.343 . S
C152 C153 1.384 . S
C152 C154 1.384 . S
C152 H174 0.931 . S
C153 C152 1.384 . S
C153 C156 1.382 . S
C154 C152 1.384 . S
C154 C155 1.381 . S
C154 H175 0.930 . S
C155 C154 1.381 . S
C155 C157 1.381 . S
C155 C158 1.487 . S
C156 C153 1.382 . S
C156 C157 1.387 . S
C156 H176 0.930 . S
C157 C155 1.381 . S
C157 C156 1.387 . S
C157 H177 0.931 . S
C158 C155 1.487 . S
C158 C165 1.399 1_554 S
C158 N183 1.343 . S
C159 C160 1.384 . S
C159 C161 1.384 . S
C159 H178 0.931 . S
C160 C159 1.384 . S
C160 C163 1.382 . S
C161 C159 1.384 . S
C161 C162 1.381 . S
C161 H179 0.930 . S
C162 C161 1.381 . S
C162 C164 1.381 . S
C162 C165 1.487 . S
C163 C160 1.382 . S
C163 C164 1.387 . S
C163 H180 0.930 . S
C164 C162 1.381 . S
C164 C163 1.387 . S
C164 H181 0.931 . S
C165 C158 1.399 1_556 S
C165 C162 1.487 . S
C165 N182 1.343 . S
H166 C138 0.931 . S
H167 C140 0.926 1_554 S
H168 C142 0.930 . S
H169 C143 0.931 . S
H170 C145 0.931 . S
H171 C147 0.930 . S
H172 C149 0.930 . S
H173 C150 0.931 . S
H174 C152 0.931 . S
H175 C154 0.930 . S
H176 C156 0.930 . S
H177 C157 0.931 . S
H178 C159 0.931 . S
H179 C161 0.930 . S
H180 C163 0.930 . S
H181 C164 0.931 . S
N182 C144 1.343 . S
N182 C165 1.343 . S
N183 C151 1.343 . S
N183 C158 1.343 . S
C184 C185 1.384 1_554 S
C184 C186 1.384 . S
C184 H212 0.931 . S
C185 C184 1.384 1_556 S
C185 C188 1.382 . S
C186 C184 1.384 . S
C186 C187 1.381 . S
C186 H213 0.930 . S
C187 C186 1.381 . S
C187 C189 1.381 . S
C187 C190 1.487 . S
C188 C185 1.382 . S
C188 C189 1.387 1_556 S
C188 H214 0.930 . S
C189 C187 1.381 . S
C189 C188 1.387 1_554 S
C189 H215 0.932 . S
C190 C187 1.487 . S
C190 C197 1.399 . S
C190 N228 1.343 . S
C191 C192 1.384 . S
C191 C193 1.384 . S
C191 H216 0.931 . S
C192 C191 1.384 . S
C192 C195 1.382 . S
C193 C191 1.384 . S
C193 C194 1.381 . S
C193 H217 0.930 . S
C194 C193 1.381 . S
C194 C196 1.381 . S
C194 C197 1.487 . S
C195 C192 1.382 . S
C195 C196 1.387 . S
C195 H218 0.930 . S
C196 C194 1.381 . S
C196 C195 1.387 . S
C196 H219 0.931 . S
C197 C190 1.399 . S
C197 C194 1.487 . S
C197 N229 1.343 . S
C198 C199 1.384 . S
C198 C200 1.384 . S
C198 H220 0.931 . S
C199 C198 1.384 . S
C199 C202 1.382 . S
C200 C198 1.384 . S
C200 C201 1.381 . S
C200 H221 0.930 . S
C201 C200 1.381 . S
C201 C203 1.381 . S
C201 C204 1.487 . S
C202 C199 1.382 . S
C202 C203 1.387 . S
C202 H222 0.930 . S
C203 C201 1.381 . S
C203 C202 1.387 . S
C203 H223 0.931 . S
C204 C201 1.487 . S
C204 C211 1.399 . S
C204 N229 1.343 . S
C205 C206 1.384 1_554 S
C205 C207 1.384 . S
C205 H224 0.931 . S
C206 C205 1.384 1_556 S
C206 C209 1.382 . S
C207 C205 1.384 . S
C207 C208 1.381 . S
C207 H225 0.930 . S
C208 C207 1.381 . S
C208 C210 1.392 . S
C208 C211 1.487 . S
C209 C206 1.382 . S
C209 C210 1.380 1_556 S
C209 H226 0.930 . S
C210 C208 1.392 . S
C210 C209 1.380 1_554 S
C210 H227 0.929 1_554 S
C211 C204 1.399 . S
C211 C208 1.487 . S
C211 N228 1.343 . S
H212 C184 0.931 . S
H213 C186 0.930 . S
H214 C188 0.930 . S
H215 C189 0.932 . S
H216 C191 0.931 . S
H217 C193 0.930 . S
H218 C195 0.930 . S
H219 C196 0.931 . S
H220 C198 0.931 . S
H221 C200 0.930 . S
H222 C202 0.930 . S
H223 C203 0.931 . S
H224 C205 0.931 . S
H225 C207 0.930 . S
H226 C209 0.930 . S
H227 C210 0.929 1_556 S
N228 C190 1.343 . S
N228 C211 1.343 . S
N229 C197 1.343 . S
N229 C204 1.343 . S
C230 C231 1.384 . S
C230 C232 1.384 . S
C230 H258 0.931 . S
C231 C230 1.384 . S
C231 C234 1.382 . S
C232 C230 1.384 . S
C232 C233 1.381 . S
C232 H259 0.930 . S
C233 C232 1.381 . S
C233 C235 1.381 . S
C233 C236 1.487 . S
C234 C231 1.382 . S
C234 C235 1.387 . S
C234 H260 0.930 1_554 S
C235 C233 1.381 . S
C235 C234 1.387 . S
C235 H261 0.931 . S
C236 C233 1.487 . S
C236 C243 1.399 . S
C236 N274 1.343 . S
C237 C238 1.384 . S
C237 C239 1.384 . S
C237 H262 0.931 . S
C238 C237 1.384 . S
C238 C241 1.382 . S
C239 C237 1.384 . S
C239 C240 1.381 . S
C239 H263 0.930 . S
C240 C239 1.381 . S
C240 C242 1.381 . S
C240 C243 1.487 . S
C241 C238 1.382 . S
C241 C242 1.387 . S
C241 H264 0.930 . S
C242 C240 1.381 . S
C242 C241 1.387 . S
C242 H265 0.931 . S
C243 C236 1.399 . S
C243 C240 1.487 . S
C243 N275 1.343 . S
C244 C245 1.384 . S
C244 C246 1.384 . S
C244 H266 0.931 . S
C245 C244 1.384 . S
C245 C248 1.382 . S
C246 C244 1.384 . S
C246 C247 1.381 . S
C246 H267 0.930 . S
C247 C246 1.381 . S
C247 C249 1.381 . S
C247 C250 1.487 . S
C248 C245 1.382 . S
C248 C249 1.387 . S
C248 H268 0.930 . S
C249 C247 1.381 . S
C249 C248 1.387 . S
C249 H269 0.931 . S
C250 C247 1.487 . S
C250 C257 1.399 . S
C250 N275 1.343 . S
C251 C252 1.384 . S
C251 C253 1.384 . S
C251 H270 0.931 . S
C252 C251 1.384 . S
C252 C255 1.382 . S
C253 C251 1.384 . S
C253 C254 1.381 . S
C253 H271 0.930 . S
C254 C253 1.381 . S
C254 C256 1.381 . S
C254 C257 1.487 . S
C255 C252 1.382 . S
C255 C256 1.387 . S
C255 H272 0.930 . S
C256 C254 1.381 . S
C256 C255 1.387 . S
C256 H273 0.931 . S
C257 C250 1.399 . S
C257 C254 1.487 . S
C257 N274 1.343 . S
H258 C230 0.931 . S
H259 C232 0.930 . S
H260 C234 0.930 1_556 S
H261 C235 0.931 . S
H262 C237 0.931 . S
H263 C239 0.930 . S
H264 C241 0.930 . S
H265 C242 0.931 . S
H266 C244 0.931 . S
H267 C246 0.930 . S
H268 C248 0.930 . S
H269 C249 0.931 . S
H270 C251 0.931 . S
H271 C253 0.930 . S
H272 C255 0.930 . S
H273 C256 0.931 . S
N274 C236 1.343 . S
N274 C257 1.343 . S
N275 C243 1.343 . S
N275 C250 1.343 . S
C276 O303 1.312 . S
C276 O304 1.208 . S
C277 O298 1.331 . S
C277 O301 1.244 . S
C278 O300 1.264 . S
C278 O302 1.273 . S
Mg279 O281 1.936 1_455 S
Mg279 O288 2.081 1_455 S
Mg279 O290 2.023 . S
Mg279 O294 2.031 1_455 S
Mg279 O303 2.291 . S
Mg280 O281 1.963 . S
Mg280 O291 1.942 . S
Mg280 O292 1.955 1_655 S
Mg280 O299 1.986 . S
O281 Mg279 1.936 1_655 S
O281 Mg280 1.963 . S
O281 Mg282 1.915 1_655 S
Mg282 O281 1.915 1_455 S
Mg282 O283 1.915 . S
Mg282 O287 2.013 . S
Mg282 O293 2.114 1_455 S
Mg282 O297 2.013 1_455 S
Mg282 O303 2.114 . S
O283 Mg282 1.915 . S
O283 Mg284 1.936 . S
O283 Mg285 1.963 . S
Mg284 O283 1.936 . S
Mg284 O293 2.291 1_455 S
Mg284 O298 2.081 . S
Mg284 O300 2.023 1_455 S
Mg284 O304 2.031 . S
Mg285 O283 1.963 . S
Mg285 O289 1.986 . S
Mg285 O301 1.942 . S
Mg285 O302 1.955 1_455 S
C286 O297 1.191 . S
C286 O299 1.307 . S
O287 Mg282 2.013 . S
O287 C306 1.191 . S
O288 Mg279 2.081 1_655 S
O288 C296 1.331 . S
O289 Mg285 1.986 . S
O289 C306 1.307 . S
O290 Mg279 2.023 . S
O290 C305 1.264 . S
O291 Mg280 1.942 . S
O291 C296 1.244 . S
O292 Mg280 1.955 1_455 S
O292 C305 1.273 . S
O293 Mg282 2.114 1_655 S
O293 Mg284 2.291 1_655 S
O293 C295 1.312 . S
O294 Mg279 2.031 1_655 S
O294 C295 1.208 . S
C295 O293 1.312 . S
C295 O294 1.208 . S
C296 O288 1.331 . S
C296 O291 1.244 . S
O297 Mg282 2.013 1_655 S
O297 C286 1.191 . S
O298 C277 1.331 . S
O298 Mg284 2.081 . S
O299 Mg280 1.986 . S
O299 C286 1.307 . S
O300 C278 1.264 . S
O300 Mg284 2.023 1_655 S
O301 C277 1.244 . S
O301 Mg285 1.942 . S
O302 C278 1.273 . S
O302 Mg285 1.955 1_655 S
O303 C276 1.312 . S
O303 Mg279 2.291 . S
O303 Mg282 2.114 . S
O304 C276 1.208 . S
O304 Mg284 2.031 . S
C305 O290 1.264 . S
C305 O292 1.273 . S
C306 O287 1.191 . S
C306 O289 1.307 . S
C307 O334 1.312 . S
C307 O335 1.208 . S
C308 O329 1.331 . S
C308 O332 1.244 . S
C309 O331 1.264 . S
C309 O333 1.273 . S
Mg310 O312 1.911 1_545 S
Mg310 O319 2.081 1_545 S
Mg310 O321 2.023 . S
Mg310 O325 2.031 1_545 S
Mg310 O334 2.291 . S
Mg311 O312 1.971 1_545 S
Mg311 O322 1.941 1_545 S
Mg311 O323 1.964 . S
Mg311 O330 1.978 1_545 S
O312 Mg310 1.911 1_565 S
O312 Mg311 1.971 1_565 S
O312 Mg313 1.918 1_565 S
Mg313 O312 1.918 1_545 S
Mg313 O314 1.915 . S
Mg313 O318 2.013 . S
Mg313 O324 2.114 1_545 S
Mg313 O328 2.013 1_545 S
Mg313 O334 2.114 . S
O314 Mg313 1.915 . S
O314 Mg315 1.936 . S
O314 Mg316 1.963 . S
Mg315 O314 1.936 . S
Mg315 O324 2.291 1_545 S
Mg315 O329 2.081 . S
Mg315 O331 2.023 1_545 S
Mg315 O335 2.031 . S
Mg316 O314 1.963 . S
Mg316 O320 1.986 . S
Mg316 O332 1.942 . S
Mg316 O333 1.955 1_545 S
C317 O328 1.191 . S
C317 O330 1.307 . S
O318 Mg313 2.013 . S
O318 C337 1.191 . S
O319 Mg310 2.081 1_565 S
O319 C327 1.331 . S
O320 Mg316 1.986 . S
O320 C337 1.307 . S
O321 Mg310 2.023 . S
O321 C336 1.264 . S
O322 Mg311 1.941 1_565 S
O322 C327 1.244 . S
O323 Mg311 1.964 . S
O323 C336 1.273 . S
O324 Mg313 2.114 1_565 S
O324 Mg315 2.291 1_565 S
O324 C326 1.312 . S
O325 Mg310 2.031 1_565 S
O325 C326 1.208 . S
C326 O324 1.312 . S
C326 O325 1.208 . S
C327 O319 1.331 . S
C327 O322 1.244 . S
O328 Mg313 2.013 1_565 S
O328 C317 1.191 . S
O329 C308 1.331 . S
O329 Mg315 2.081 . S
O330 Mg311 1.978 1_565 S
O330 C317 1.307 . S
O331 C309 1.264 . S
O331 Mg315 2.023 1_565 S
O332 C308 1.244 . S
O332 Mg316 1.942 . S
O333 C309 1.273 . S
O333 Mg316 1.955 1_565 S
O334 C307 1.312 . S
O334 Mg310 2.291 . S
O334 Mg313 2.114 . S
O335 C307 1.208 . S
O335 Mg315 2.031 . S
C336 O321 1.264 . S
C336 O323 1.273 . S
C337 O318 1.191 . S
C337 O320 1.307 . S
C338 O365 1.312 . S
C338 O366 1.208 . S
C339 O360 1.331 . S
C339 O363 1.244 . S
C340 O362 1.264 . S
C340 O364 1.273 . S
Mg341 O343 1.936 . S
Mg341 O350 2.081 . S
Mg341 O352 2.023 . S
Mg341 O356 2.031 . S
Mg341 O365 2.291 . S
Mg342 O343 1.963 . S
Mg342 O353 1.942 . S
Mg342 O354 1.955 . S
Mg342 O361 1.986 . S
O343 Mg341 1.936 . S
O343 Mg342 1.963 . S
O343 Mg344 1.915 . S
Mg344 O343 1.915 . S
Mg344 O345 1.915 . S
Mg344 O349 2.013 . S
Mg344 O355 2.114 . S
Mg344 O359 2.013 . S
Mg344 O365 2.114 . S
O345 Mg344 1.915 . S
O345 Mg346 1.936 . S
O345 Mg347 1.963 . S
Mg346 O345 1.936 . S
Mg346 O355 2.291 . S
Mg346 O360 2.081 . S
Mg346 O362 2.023 . S
Mg346 O366 2.031 . S
Mg347 O345 1.963 . S
Mg347 O351 1.986 . S
Mg347 O363 1.942 . S
Mg347 O364 1.955 . S
C348 O359 1.191 . S
C348 O361 1.307 . S
O349 Mg344 2.013 . S
O349 C368 1.191 . S
O350 Mg341 2.081 . S
O350 C358 1.331 . S
O351 Mg347 1.986 . S
O351 C368 1.307 . S
O352 Mg341 2.023 . S
O352 C367 1.264 . S
O353 Mg342 1.942 . S
O353 C358 1.244 . S
O354 Mg342 1.955 . S
O354 C367 1.273 . S
O355 Mg344 2.114 . S
O355 Mg346 2.291 . S
O355 C357 1.312 . S
O356 Mg341 2.031 . S
O356 C357 1.208 . S
C357 O355 1.312 . S
C357 O356 1.208 . S
C358 O350 1.331 . S
C358 O353 1.244 . S
O359 Mg344 2.013 . S
O359 C348 1.191 . S
O360 C339 1.331 . S
O360 Mg346 2.081 . S
O361 Mg342 1.986 . S
O361 C348 1.307 . S
O362 C340 1.264 . S
O362 Mg346 2.023 . S
O363 C339 1.244 . S
O363 Mg347 1.942 . S
O364 C340 1.273 . S
O364 Mg347 1.955 . S
O365 C338 1.312 . S
O365 Mg341 2.291 . S
O365 Mg344 2.114 . S
O366 C338 1.208 . S
O366 Mg346 2.031 . S
C367 O352 1.264 . S
C367 O354 1.273 . S
C368 O349 1.191 . S
C368 O351 1.307 . S
H369 C377 0.929 . S
H370 C379 0.930 . S
H371 C381 0.930 . S
H372 C384 0.929 . S
H373 C387 0.930 . S
H374 C389 0.960 . S
H375 C389 0.960 . S
H376 C389 0.960 . S
C377 H369 0.929 . S
C377 C378 1.377 . S
C377 C379 1.384 . S
C378 C377 1.377 . S
C378 C384 1.390 . S
C379 H370 0.930 . S
C379 C377 1.384 . S
C379 C380 1.372 . S
C380 C379 1.372 . S
C380 C381 1.400 . S
C380 C385 1.490 . S
C381 H371 0.930 . S
C381 C380 1.400 . S
C381 C384 1.386 . S
H382 C398 0.930 . S
H383 C399 0.931 . S
C384 H372 0.929 . S
C384 C378 1.390 . S
C384 C381 1.386 . S
C385 C380 1.490 . S
C385 C387 1.395 . S
C385 C388 1.403 . S
H386 C392 0.930 . S
C387 H373 0.930 . S
C387 C385 1.395 . S
C387 C390 1.403 . S
C388 C385 1.403 . S
C388 C389 1.524 . S
C388 C392 1.400 . S
C389 H374 0.960 . S
C389 H375 0.960 . S
C389 H376 0.960 . S
C389 C388 1.524 . S
C390 C387 1.403 . S
C390 C391 1.392 . S
C390 C394 1.495 . S
C391 C390 1.392 . S
C391 C392 1.385 . S
C391 C393 1.478 . S
C392 H386 0.930 . S
C392 C388 1.400 . S
C392 C391 1.385 . S
C393 C391 1.478 . S
C393 C395 1.381 . S
C393 C399 1.383 . S
C394 C390 1.495 . S
C394 H400 0.959 . S
C394 H401 0.961 . S
C394 H402 0.960 . S
C395 C393 1.381 . S
C395 C396 1.394 . S
C395 H403 0.930 . S
C396 C395 1.394 . S
C396 C397 1.383 . S
C396 H404 0.929 . S
C397 C396 1.383 . S
C397 C398 1.377 . S
C398 H382 0.930 . S
C398 C397 1.377 . S
C398 C399 1.379 . S
C399 H383 0.931 . S
C399 C393 1.383 . S
C399 C398 1.379 . S
H400 C394 0.959 . S
H401 C394 0.961 . S
H402 C394 0.960 . S
H403 C395 0.930 . S
H404 C396 0.929 . S
H405 C413 0.929 . S
H406 C415 0.930 . S
H407 C417 0.930 . S
H408 C420 0.929 . S
H409 C423 0.930 . S
H410 C425 0.960 . S
H411 C425 0.960 . S
H412 C425 0.960 . S
C413 H405 0.929 . S
C413 C414 1.377 . S
C413 C415 1.384 . S
C414 C413 1.377 . S
C414 C420 1.390 . S
C415 H406 0.930 . S
C415 C413 1.384 . S
C415 C416 1.372 . S
C416 C415 1.372 . S
C416 C417 1.400 . S
C416 C421 1.490 . S
C417 H407 0.930 . S
C417 C416 1.400 . S
C417 C420 1.386 . S
H418 C434 0.930 . S
H419 C435 0.931 . S
C420 H408 0.929 . S
C420 C414 1.390 . S
C420 C417 1.386 . S
C421 C416 1.490 . S
C421 C423 1.395 . S
C421 C424 1.403 . S
H422 C428 0.930 . S
C423 H409 0.930 . S
C423 C421 1.395 . S
C423 C426 1.403 . S
C424 C421 1.403 . S
C424 C425 1.524 . S
C424 C428 1.400 . S
C425 H410 0.960 . S
C425 H411 0.960 . S
C425 H412 0.960 . S
C425 C424 1.524 . S
C426 C423 1.403 . S
C426 C427 1.392 . S
C426 C430 1.495 . S
C427 C426 1.392 . S
C427 C428 1.385 . S
C427 C429 1.478 . S
C428 H422 0.930 . S
C428 C424 1.400 . S
C428 C427 1.385 . S
C429 C427 1.478 . S
C429 C431 1.381 . S
C429 C435 1.383 . S
C430 C426 1.495 . S
C430 H436 0.959 . S
C430 H437 0.961 . S
C430 H438 0.960 . S
C431 C429 1.381 . S
C431 C432 1.394 . S
C431 H439 0.930 . S
C432 C431 1.394 . S
C432 C433 1.383 . S
C432 H440 0.929 . S
C433 C432 1.383 . S
C433 C434 1.377 . S
C434 H418 0.930 . S
C434 C433 1.377 . S
C434 C435 1.379 . S
C435 H419 0.931 . S
C435 C429 1.383 . S
C435 C434 1.379 . S
H436 C430 0.959 . S
H437 C430 0.961 . S
H438 C430 0.960 . S
H439 C431 0.930 . S
H440 C432 0.929 . S
H441 C449 0.929 . S
H442 C451 0.930 . S
H443 C453 0.930 . S
H444 C456 0.929 . S
H445 C459 0.930 . S
H446 C461 0.960 . S
H447 C461 0.960 . S
H448 C461 0.960 . S
C449 H441 0.929 . S
C449 C450 1.377 . S
C449 C451 1.384 . S
C450 C449 1.377 . S
C450 C456 1.390 . S
C451 H442 0.930 . S
C451 C449 1.384 . S
C451 C452 1.372 . S
C452 C451 1.372 . S
C452 C453 1.400 . S
C452 C457 1.490 . S
C453 H443 0.930 . S
C453 C452 1.400 . S
C453 C456 1.386 . S
H454 C470 0.930 . S
H455 C471 0.931 . S
C456 H444 0.929 . S
C456 C450 1.390 . S
C456 C453 1.386 . S
C457 C452 1.490 . S
C457 C459 1.395 . S
C457 C460 1.403 . S
H458 C464 0.930 . S
C459 H445 0.930 . S
C459 C457 1.395 . S
C459 C462 1.403 . S
C460 C457 1.403 . S
C460 C461 1.524 . S
C460 C464 1.400 . S
C461 H446 0.960 . S
C461 H447 0.960 . S
C461 H448 0.960 . S
C461 C460 1.524 . S
C462 C459 1.403 . S
C462 C463 1.392 . S
C462 C466 1.495 . S
C463 C462 1.392 . S
C463 C464 1.385 . S
C463 C465 1.478 . S
C464 H458 0.930 . S
C464 C460 1.400 . S
C464 C463 1.385 . S
C465 C463 1.478 . S
C465 C467 1.381 . S
C465 C471 1.383 . S
C466 C462 1.495 . S
C466 H472 0.959 . S
C466 H473 0.961 . S
C466 H474 0.960 . S
C467 C465 1.381 . S
C467 C468 1.394 . S
C467 H475 0.930 . S
C468 C467 1.394 . S
C468 C469 1.383 . S
C468 H476 0.929 . S
C469 C468 1.383 . S
C469 C470 1.377 . S
C470 H454 0.930 . S
C470 C469 1.377 . S
C470 C471 1.379 . S
C471 H455 0.931 . S
C471 C465 1.383 . S
C471 C470 1.379 . S
H472 C466 0.959 . S
H473 C466 0.961 . S
H474 C466 0.960 . S
H475 C467 0.930 . S
H476 C468 0.929 . S
H477 C485 0.929 . S
H478 C487 0.930 . S
H479 C489 0.930 . S
H480 C492 0.929 . S
H481 C495 0.930 . S
H482 C497 0.960 . S
H483 C497 0.960 . S
H484 C497 0.960 . S
C485 H477 0.929 . S
C485 C486 1.377 . S
C485 C487 1.384 . S
C486 C485 1.377 . S
C486 C492 1.390 . S
C487 H478 0.930 . S
C487 C485 1.384 . S
C487 C488 1.372 . S
C488 C487 1.372 . S
C488 C489 1.400 . S
C488 C493 1.490 . S
C489 H479 0.930 . S
C489 C488 1.400 . S
C489 C492 1.386 . S
H490 C506 0.930 . S
H491 C507 0.931 . S
C492 H480 0.929 . S
C492 C486 1.390 . S
C492 C489 1.386 . S
C493 C488 1.490 . S
C493 C495 1.395 . S
C493 C496 1.403 . S
H494 C500 0.930 . S
C495 H481 0.930 . S
C495 C493 1.395 . S
C495 C498 1.403 . S
C496 C493 1.403 . S
C496 C497 1.524 . S
C496 C500 1.400 . S
C497 H482 0.960 . S
C497 H483 0.960 . S
C497 H484 0.960 . S
C497 C496 1.524 . S
C498 C495 1.403 . S
C498 C499 1.392 . S
C498 C502 1.495 . S
C499 C498 1.392 . S
C499 C500 1.385 . S
C499 C501 1.478 . S
C500 H494 0.930 . S
C500 C496 1.400 . S
C500 C499 1.385 . S
C501 C499 1.478 . S
C501 C503 1.381 . S
C501 C507 1.383 . S
C502 C498 1.495 . S
C502 H508 0.959 . S
C502 H509 0.961 . S
C502 H510 0.960 . S
C503 C501 1.381 . S
C503 C504 1.394 . S
C503 H511 0.930 . S
C504 C503 1.394 . S
C504 C505 1.383 . S
C504 H512 0.929 . S
C505 C504 1.383 . S
C505 C506 1.377 . S
C506 H490 0.930 . S
C506 C505 1.377 . S
C506 C507 1.379 . S
C507 H491 0.931 . S
C507 C501 1.383 . S
C507 C506 1.379 . S
H508 C502 0.959 . S
H509 C502 0.961 . S
H510 C502 0.960 . S
H511 C503 0.930 . S
H512 C504 0.929 . S
H513 C521 0.929 . S
H514 C523 0.930 . S
H515 C525 0.930 . S
H516 C528 0.929 . S
H517 C531 0.930 . S
H518 C533 0.960 . S
H519 C533 0.960 . S
H520 C533 0.960 . S
C521 H513 0.929 . S
C521 C522 1.377 . S
C521 C523 1.384 . S
C522 C521 1.377 . S
C522 C528 1.390 . S
C523 H514 0.930 . S
C523 C521 1.384 . S
C523 C524 1.372 . S
C524 C523 1.372 . S
C524 C525 1.400 . S
C524 C529 1.490 . S
C525 H515 0.930 . S
C525 C524 1.400 . S
C525 C528 1.386 . S
H526 C542 0.930 . S
H527 C543 0.931 . S
C528 H516 0.929 . S
C528 C522 1.390 . S
C528 C525 1.386 . S
C529 C524 1.490 . S
C529 C531 1.395 . S
C529 C532 1.403 . S
H530 C536 0.930 . S
C531 H517 0.930 . S
C531 C529 1.395 . S
C531 C534 1.403 . S
C532 C529 1.403 . S
C532 C533 1.524 . S
C532 C536 1.400 . S
C533 H518 0.960 . S
C533 H519 0.960 . S
C533 H520 0.960 . S
C533 C532 1.524 . S
C534 C531 1.403 . S
C534 C535 1.392 . S
C534 C538 1.495 . S
C535 C534 1.392 . S
C535 C536 1.385 . S
C535 C537 1.478 . S
C536 H530 0.930 . S
C536 C532 1.400 . S
C536 C535 1.385 . S
C537 C535 1.478 . S
C537 C539 1.381 . S
C537 C543 1.383 . S
C538 C534 1.495 . S
C538 H544 0.959 . S
C538 H545 0.961 . S
C538 H546 0.960 . S
C539 C537 1.381 . S
C539 C540 1.394 . S
C539 H547 0.930 . S
C540 C539 1.394 . S
C540 C541 1.383 . S
C540 H548 0.929 . S
C541 C540 1.383 . S
C541 C542 1.377 . S
C542 H526 0.930 . S
C542 C541 1.377 . S
C542 C543 1.379 . S
C543 H527 0.931 . S
C543 C537 1.383 . S
C543 C542 1.379 . S
H544 C538 0.959 . S
H545 C538 0.961 . S
H546 C538 0.960 . S
H547 C539 0.930 . S
H548 C540 0.929 . S
H549 C557 0.929 . S
H550 C559 0.930 . S
H551 C561 0.930 . S
H552 C564 0.929 . S
H553 C567 0.930 . S
H554 C569 0.960 . S
H555 C569 0.960 . S
H556 C569 0.960 . S
C557 H549 0.929 . S
C557 C558 1.377 . S
C557 C559 1.384 . S
C558 C557 1.377 . S
C558 C564 1.390 . S
C559 H550 0.930 . S
C559 C557 1.384 . S
C559 C560 1.372 . S
C560 C559 1.372 . S
C560 C561 1.400 . S
C560 C565 1.490 . S
C561 H551 0.930 . S
C561 C560 1.400 . S
C561 C564 1.386 . S
H562 C578 0.930 . S
H563 C579 0.931 . S
C564 H552 0.929 . S
C564 C558 1.390 . S
C564 C561 1.386 . S
C565 C560 1.490 . S
C565 C567 1.395 . S
C565 C568 1.403 . S
H566 C572 0.930 . S
C567 H553 0.930 . S
C567 C565 1.395 . S
C567 C570 1.403 . S
C568 C565 1.403 . S
C568 C569 1.524 . S
C568 C572 1.400 . S
C569 H554 0.960 . S
C569 H555 0.960 . S
C569 H556 0.960 . S
C569 C568 1.524 . S
C570 C567 1.403 . S
C570 C571 1.392 . S
C570 C574 1.495 . S
C571 C570 1.392 . S
C571 C572 1.385 . S
C571 C573 1.478 . S
C572 H566 0.930 . S
C572 C568 1.400 . S
C572 C571 1.385 . S
C573 C571 1.478 . S
C573 C575 1.381 . S
C573 C579 1.383 . S
C574 C570 1.495 . S
C574 H580 0.959 . S
C574 H581 0.961 . S
C574 H582 0.960 . S
C575 C573 1.381 . S
C575 C576 1.394 . S
C575 H583 0.930 . S
C576 C575 1.394 . S
C576 C577 1.383 . S
C576 H584 0.929 . S
C577 C576 1.383 . S
C577 C578 1.377 . S
C578 H562 0.930 . S
C578 C577 1.377 . S
C578 C579 1.379 . S
C579 H563 0.931 . S
C579 C573 1.383 . S
C579 C578 1.379 . S
H580 C574 0.959 . S
H581 C574 0.961 . S
H582 C574 0.960 . S
H583 C575 0.930 . S
H584 C576 0.929 . S
H585 C593 0.929 . S
H586 C595 0.930 . S
H587 C597 0.930 . S
H588 C600 0.929 . S
H589 C603 0.930 . S
H590 C605 0.960 . S
H591 C605 0.960 . S
H592 C605 0.960 . S
C593 H585 0.929 . S
C593 C594 1.377 . S
C593 C595 1.384 . S
C594 C593 1.377 . S
C594 C600 1.390 . S
C595 H586 0.930 . S
C595 C593 1.384 . S
C595 C596 1.372 . S
C596 C595 1.372 . S
C596 C597 1.400 . S
C596 C601 1.490 . S
C597 H587 0.930 . S
C597 C596 1.400 . S
C597 C600 1.386 . S
H598 C614 0.930 . S
H599 C615 0.931 . S
C600 H588 0.929 . S
C600 C594 1.390 . S
C600 C597 1.386 . S
C601 C596 1.490 . S
C601 C603 1.395 . S
C601 C604 1.403 . S
H602 C608 0.930 . S
C603 H589 0.930 . S
C603 C601 1.395 . S
C603 C606 1.403 . S
C604 C601 1.403 . S
C604 C605 1.524 . S
C604 C608 1.400 . S
C605 H590 0.960 . S
C605 H591 0.960 . S
C605 H592 0.960 . S
C605 C604 1.524 . S
C606 C603 1.403 . S
C606 C607 1.392 . S
C606 C610 1.495 . S
C607 C606 1.392 . S
C607 C608 1.385 . S
C607 C609 1.478 . S
C608 H602 0.930 . S
C608 C604 1.400 . S
C608 C607 1.385 . S
C609 C607 1.478 . S
C609 C611 1.381 . S
C609 C615 1.383 . S
C610 C606 1.495 . S
C610 H616 0.959 . S
C610 H617 0.961 . S
C610 H618 0.960 . S
C611 C609 1.381 . S
C611 C612 1.394 . S
C611 H619 0.930 . S
C612 C611 1.394 . S
C612 C613 1.383 . S
C612 H620 0.929 . S
C613 C612 1.383 . S
C613 C614 1.377 . S
C614 H598 0.930 . S
C614 C613 1.377 . S
C614 C615 1.379 . S
C615 H599 0.931 . S
C615 C609 1.383 . S
C615 C614 1.379 . S
H616 C610 0.959 . S
H617 C610 0.961 . S
H618 C610 0.960 . S
H619 C611 0.930 . S
H620 C612 0.929 . S
H621 C629 0.929 . S
H622 C631 0.930 . S
H623 C633 0.930 . S
H624 C636 0.929 . S
H625 C639 0.930 . S
H626 C641 0.960 . S
H627 C641 0.960 . S
H628 C641 0.960 . S
C629 H621 0.929 . S
C629 C630 1.377 . S
C629 C631 1.384 . S
C630 C629 1.377 . S
C630 C636 1.390 . S
C631 H622 0.930 . S
C631 C629 1.384 . S
C631 C632 1.372 . S
C632 C631 1.372 . S
C632 C633 1.400 . S
C632 C637 1.490 . S
C633 H623 0.930 . S
C633 C632 1.400 . S
C633 C636 1.386 . S
H634 C650 0.930 . S
H635 C651 0.931 . S
C636 H624 0.929 . S
C636 C630 1.390 . S
C636 C633 1.386 . S
C637 C632 1.490 . S
C637 C639 1.395 . S
C637 C640 1.403 . S
H638 C644 0.930 . S
C639 H625 0.930 . S
C639 C637 1.395 . S
C639 C642 1.403 . S
C640 C637 1.403 . S
C640 C641 1.524 . S
C640 C644 1.400 . S
C641 H626 0.960 . S
C641 H627 0.960 . S
C641 H628 0.960 . S
C641 C640 1.524 . S
C642 C639 1.403 . S
C642 C643 1.392 . S
C642 C646 1.495 . S
C643 C642 1.392 . S
C643 C644 1.385 . S
C643 C645 1.478 . S
C644 H638 0.930 . S
C644 C640 1.400 . S
C644 C643 1.385 . S
C645 C643 1.478 . S
C645 C647 1.381 . S
C645 C651 1.383 . S
C646 C642 1.495 . S
C646 H652 0.959 . S
C646 H653 0.961 . S
C646 H654 0.960 . S
C647 C645 1.381 . S
C647 C648 1.394 . S
C647 H655 0.930 . S
C648 C647 1.394 . S
C648 C649 1.383 . S
C648 H656 0.929 . S
C649 C648 1.383 . S
C649 C650 1.377 . S
C650 H634 0.930 . S
C650 C649 1.377 . S
C650 C651 1.379 . S
C651 H635 0.931 . S
C651 C645 1.383 . S
C651 C650 1.379 . S
H652 C646 0.959 . S
H653 C646 0.961 . S
H654 C646 0.960 . S
H655 C647 0.930 . S
H656 C648 0.929 . S
H657 C665 0.929 . S
H658 C667 0.930 . S
H659 C669 0.930 . S
H660 C672 0.929 . S
H661 C675 0.930 . S
H662 C677 0.960 . S
H663 C677 0.960 . S
H664 C677 0.960 . S
C665 H657 0.929 . S
C665 C666 1.377 . S
C665 C667 1.384 . S
C666 C665 1.377 . S
C666 C672 1.390 . S
C667 H658 0.930 . S
C667 C665 1.384 . S
C667 C668 1.372 . S
C668 C667 1.372 . S
C668 C669 1.400 . S
C668 C673 1.490 . S
C669 H659 0.930 . S
C669 C668 1.400 . S
C669 C672 1.386 . S
H670 C686 0.930 . S
H671 C687 0.931 . S
C672 H660 0.929 . S
C672 C666 1.390 . S
C672 C669 1.386 . S
C673 C668 1.490 . S
C673 C675 1.395 . S
C673 C676 1.403 . S
H674 C680 0.930 . S
C675 H661 0.930 . S
C675 C673 1.395 . S
C675 C678 1.403 . S
C676 C673 1.403 . S
C676 C677 1.524 . S
C676 C680 1.400 . S
C677 H662 0.960 . S
C677 H663 0.960 . S
C677 H664 0.960 . S
C677 C676 1.524 . S
C678 C675 1.403 . S
C678 C679 1.392 . S
C678 C682 1.495 . S
C679 C678 1.392 . S
C679 C680 1.385 . S
C679 C681 1.478 . S
C680 H674 0.930 . S
C680 C676 1.400 . S
C680 C679 1.385 . S
C681 C679 1.478 . S
C681 C683 1.381 . S
C681 C687 1.383 . S
C682 C678 1.495 . S
C682 H688 0.959 . S
C682 H689 0.961 . S
C682 H690 0.960 . S
C683 C681 1.381 . S
C683 C684 1.394 . S
C683 H691 0.930 . S
C684 C683 1.394 . S
C684 C685 1.383 . S
C684 H692 0.929 . S
C685 C684 1.383 . S
C685 C686 1.377 . S
C686 H670 0.930 . S
C686 C685 1.377 . S
C686 C687 1.379 . S
C687 H671 0.931 . S
C687 C681 1.383 . S
C687 C686 1.379 . S
H688 C682 0.959 . S
H689 C682 0.961 . S
H690 C682 0.960 . S
H691 C683 0.930 . S
H692 C684 0.929 . S
H693 C701 0.929 . S
H694 C703 0.930 . S
H695 C705 0.930 . S
H696 C708 0.927 1_554 S
H697 C711 0.930 . S
H698 C713 0.960 . S
H699 C713 0.960 . S
H700 C713 0.960 . S
C701 H693 0.929 . S
C701 C702 1.377 . S
C701 C703 1.384 . S
C702 C701 1.377 . S
C702 C708 1.390 . S
C703 H694 0.930 . S
C703 C701 1.384 . S
C703 C704 1.372 . S
C704 C703 1.372 . S
C704 C705 1.400 . S
C704 C709 1.490 . S
C705 H695 0.930 . S
C705 C704 1.400 . S
C705 C708 1.386 . S
H706 C722 0.930 . S
H707 C723 0.931 . S
C708 H696 0.927 1_556 S
C708 C702 1.390 . S
C708 C705 1.386 . S
C709 C704 1.490 . S
C709 C711 1.395 . S
C709 C712 1.403 . S
H710 C716 0.930 . S
C711 H697 0.930 . S
C711 C709 1.395 . S
C711 C714 1.403 . S
C712 C709 1.403 . S
C712 C713 1.524 . S
C712 C716 1.400 . S
C713 H698 0.960 . S
C713 H699 0.960 . S
C713 H700 0.960 . S
C713 C712 1.524 . S
C714 C711 1.403 . S
C714 C715 1.392 . S
C714 C718 1.495 . S
C715 C714 1.392 . S
C715 C716 1.385 . S
C715 C717 1.478 . S
C716 H710 0.930 . S
C716 C712 1.400 . S
C716 C715 1.385 . S
C717 C715 1.478 . S
C717 C719 1.381 . S
C717 C723 1.383 . S
C718 C714 1.495 . S
C718 H724 0.959 . S
C718 H725 0.961 . S
C718 H726 0.960 . S
C719 C717 1.381 . S
C719 C720 1.394 . S
C719 H727 0.930 . S
C720 C719 1.394 . S
C720 C721 1.383 . S
C720 H728 0.929 . S
C721 C720 1.383 . S
C721 C722 1.377 . S
C722 H706 0.930 . S
C722 C721 1.377 . S
C722 C723 1.379 . S
C723 H707 0.931 . S
C723 C717 1.383 . S
C723 C722 1.379 . S
H724 C718 0.959 . S
H725 C718 0.961 . S
H726 C718 0.960 . S
H727 C719 0.930 . S
H728 C720 0.929 . S
H729 C737 0.929 . S
H730 C739 0.930 . S
H731 C741 0.930 1_554 S
H732 C744 0.929 . S
H733 C747 0.930 . S
H734 C749 0.960 . S
H735 C749 0.960 . S
H736 C749 0.960 . S
C737 H729 0.929 . S
C737 C738 1.377 1_556 S
C737 C739 1.384 . S
C738 C737 1.377 1_554 S
C738 C744 1.390 . S
C739 H730 0.930 . S
C739 C737 1.384 . S
C739 C740 1.372 . S
C740 C739 1.372 . S
C740 C741 1.400 . S
C740 C745 1.490 . S
C741 H731 0.930 1_556 S
C741 C740 1.400 . S
C741 C744 1.386 1_556 S
H742 C758 0.930 . S
H743 C759 0.931 . S
C744 H732 0.929 . S
C744 C738 1.390 . S
C744 C741 1.386 1_554 S
C745 C740 1.490 . S
C745 C747 1.395 . S
C745 C748 1.403 . S
H746 C752 0.930 . S
C747 H733 0.930 . S
C747 C745 1.395 . S
C747 C750 1.403 . S
C748 C745 1.403 . S
C748 C749 1.524 . S
C748 C752 1.400 . S
C749 H734 0.960 . S
C749 H735 0.960 . S
C749 H736 0.960 . S
C749 C748 1.524 . S
C750 C747 1.403 . S
C750 C751 1.392 . S
C750 C754 1.495 . S
C751 C750 1.392 . S
C751 C752 1.385 . S
C751 C753 1.478 . S
C752 H746 0.930 . S
C752 C748 1.400 . S
C752 C751 1.385 . S
C753 C751 1.478 . S
C753 C755 1.381 . S
C753 C759 1.383 . S
C754 C750 1.495 . S
C754 H760 0.959 . S
C754 H761 0.961 . S
C754 H762 0.960 . S
C755 C753 1.381 . S
C755 C756 1.394 . S
C755 H763 0.930 . S
C756 C755 1.394 . S
C756 C757 1.383 . S
C756 H764 0.929 . S
C757 C756 1.383 . S
C757 C758 1.377 . S
C758 H742 0.930 . S
C758 C757 1.377 . S
C758 C759 1.379 . S
C759 H743 0.931 . S
C759 C753 1.383 . S
C759 C758 1.379 . S
H760 C754 0.959 . S
H761 C754 0.961 . S
H762 C754 0.960 . S
H763 C755 0.930 . S
H764 C756 0.929 . S
H765 C773 0.929 . S
H766 C775 0.930 . S
H767 C777 0.930 . S
H768 C780 0.929 . S
H769 C783 0.930 . S
H770 C785 0.960 . S
H771 C785 0.960 . S
H772 C785 0.960 . S
C773 H765 0.929 . S
C773 C774 1.377 . S
C773 C775 1.384 . S
C774 C773 1.377 . S
C774 C780 1.390 . S
C775 H766 0.930 . S
C775 C773 1.384 . S
C775 C776 1.372 . S
C776 C775 1.372 . S
C776 C777 1.400 . S
C776 C781 1.490 . S
C777 H767 0.930 . S
C777 C776 1.400 . S
C777 C780 1.386 . S
H778 C794 0.930 . S
H779 C795 0.931 . S
C780 H768 0.929 . S
C780 C774 1.390 . S
C780 C777 1.386 . S
C781 C776 1.490 . S
C781 C783 1.395 . S
C781 C784 1.403 . S
H782 C788 0.930 . S
C783 H769 0.930 . S
C783 C781 1.395 . S
C783 C786 1.403 . S
C784 C781 1.403 . S
C784 C785 1.524 . S
C784 C788 1.400 . S
C785 H770 0.960 . S
C785 H771 0.960 . S
C785 H772 0.960 . S
C785 C784 1.524 . S
C786 C783 1.403 . S
C786 C787 1.392 . S
C786 C790 1.495 . S
C787 C786 1.392 . S
C787 C788 1.385 . S
C787 C789 1.478 . S
C788 H782 0.930 . S
C788 C784 1.400 . S
C788 C787 1.385 . S
C789 C787 1.478 . S
C789 C791 1.381 . S
C789 C795 1.383 . S
C790 C786 1.495 . S
C790 H796 0.959 . S
C790 H797 0.961 . S
C790 H798 0.960 . S
C791 C789 1.381 . S
C791 C792 1.394 . S
C791 H799 0.930 . S
C792 C791 1.394 . S
C792 C793 1.383 . S
C792 H800 0.929 . S
C793 C792 1.383 . S
C793 C794 1.377 . S
C794 H778 0.930 . S
C794 C793 1.377 . S
C794 C795 1.379 . S
C795 H779 0.931 . S
C795 C789 1.383 . S
C795 C794 1.379 . S
H796 C790 0.959 . S
H797 C790 0.961 . S
H798 C790 0.960 . S
H799 C791 0.930 . S
H800 C792 0.929 . S
H801 C809 0.929 . S
H802 C811 0.930 . S
H803 C813 0.930 . S
H804 C816 0.929 . S
H805 C819 0.930 . S
H806 C821 0.960 . S
H807 C821 0.960 . S
H808 C821 0.960 . S
C809 H801 0.929 . S
C809 C810 1.377 . S
C809 C811 1.384 . S
C810 C809 1.377 . S
C810 C816 1.390 . S
C811 H802 0.930 . S
C811 C809 1.384 . S
C811 C812 1.372 . S
C812 C811 1.372 . S
C812 C813 1.400 . S
C812 C817 1.490 . S
C813 H803 0.930 . S
C813 C812 1.400 . S
C813 C816 1.386 . S
H814 C830 0.930 . S
H815 C831 0.931 . S
C816 H804 0.929 . S
C816 C810 1.390 . S
C816 C813 1.386 . S
C817 C812 1.490 . S
C817 C819 1.395 . S
C817 C820 1.403 . S
H818 C824 0.930 . S
C819 H805 0.930 . S
C819 C817 1.395 . S
C819 C822 1.403 . S
C820 C817 1.403 . S
C820 C821 1.524 . S
C820 C824 1.400 . S
C821 H806 0.960 . S
C821 H807 0.960 . S
C821 H808 0.960 . S
C821 C820 1.524 . S
C822 C819 1.403 . S
C822 C823 1.392 . S
C822 C826 1.495 . S
C823 C822 1.392 . S
C823 C824 1.385 . S
C823 C825 1.478 . S
C824 H818 0.930 . S
C824 C820 1.400 . S
C824 C823 1.385 . S
C825 C823 1.478 . S
C825 C827 1.381 . S
C825 C831 1.383 . S
C826 C822 1.495 . S
C826 H832 0.959 . S
C826 H833 0.961 . S
C826 H834 0.960 . S
C827 C825 1.381 . S
C827 C828 1.394 . S
C827 H835 0.930 . S
C828 C827 1.394 . S
C828 C829 1.383 . S
C828 H836 0.929 . S
C829 C828 1.383 . S
C829 C830 1.377 . S
C830 H814 0.930 . S
C830 C829 1.377 . S
C830 C831 1.379 . S
C831 H815 0.931 . S
C831 C825 1.383 . S
C831 C830 1.379 . S
H832 C826 0.959 . S
H833 C826 0.961 . S
H834 C826 0.960 . S
H835 C827 0.930 . S
H836 C828 0.929 . S
H837 C845 0.929 . S
H838 C847 0.930 . S
H839 C849 0.930 . S
H840 C852 0.929 . S
H841 C855 0.930 . S
H842 C857 0.960 . S
H843 C857 0.960 . S
H844 C857 0.960 . S
C845 H837 0.929 . S
C845 C846 1.377 . S
C845 C847 1.384 . S
C846 C845 1.377 . S
C846 C852 1.390 . S
C847 H838 0.930 . S
C847 C845 1.384 . S
C847 C848 1.372 . S
C848 C847 1.372 . S
C848 C849 1.400 . S
C848 C853 1.490 . S
C849 H839 0.930 . S
C849 C848 1.400 . S
C849 C852 1.386 . S
H850 C866 0.930 . S
H851 C867 0.931 . S
C852 H840 0.929 . S
C852 C846 1.390 . S
C852 C849 1.386 . S
C853 C848 1.490 . S
C853 C855 1.395 . S
C853 C856 1.403 . S
H854 C860 0.930 . S
C855 H841 0.930 . S
C855 C853 1.395 . S
C855 C858 1.403 . S
C856 C853 1.403 . S
C856 C857 1.524 . S
C856 C860 1.400 . S
C857 H842 0.960 . S
C857 H843 0.960 . S
C857 H844 0.960 . S
C857 C856 1.524 . S
C858 C855 1.403 . S
C858 C859 1.392 . S
C858 C862 1.495 . S
C859 C858 1.392 . S
C859 C860 1.385 . S
C859 C861 1.478 . S
C860 H854 0.930 . S
C860 C856 1.400 . S
C860 C859 1.385 . S
C861 C859 1.478 . S
C861 C863 1.381 . S
C861 C867 1.383 . S
C862 C858 1.495 . S
C862 H868 0.959 . S
C862 H869 0.961 . S
C862 H870 0.960 . S
C863 C861 1.381 . S
C863 C864 1.394 . S
C863 H871 0.930 . S
C864 C863 1.394 . S
C864 C865 1.383 . S
C864 H872 0.929 . S
C865 C864 1.383 . S
C865 C866 1.377 . S
C866 H850 0.930 . S
C866 C865 1.377 . S
C866 C867 1.379 . S
C867 H851 0.931 . S
C867 C861 1.383 . S
C867 C866 1.379 . S
H868 C862 0.959 . S
H869 C862 0.961 . S
H870 C862 0.960 . S
H871 C863 0.930 . S
H872 C864 0.929 . S
H873 C881 0.929 . S
H874 C883 0.930 . S
H875 C885 0.930 . S
H876 C888 0.929 1_554 S
H877 C891 0.930 . S
H878 C893 0.960 . S
H879 C893 0.960 . S
H880 C893 0.960 . S
C881 H873 0.929 . S
C881 C882 1.377 . S
C881 C883 1.384 . S
C882 C881 1.377 . S
C882 C888 1.390 . S
C883 H874 0.930 . S
C883 C881 1.384 . S
C883 C884 1.372 . S
C884 C883 1.372 . S
C884 C885 1.400 . S
C884 C889 1.490 . S
C885 H875 0.930 . S
C885 C884 1.400 . S
C885 C888 1.386 . S
H886 C902 0.930 . S
H887 C903 0.931 . S
C888 H876 0.929 1_556 S
C888 C882 1.390 . S
C888 C885 1.386 . S
C889 C884 1.490 . S
C889 C891 1.395 . S
C889 C892 1.403 . S
H890 C896 0.930 . S
C891 H877 0.930 . S
C891 C889 1.395 . S
C891 C894 1.403 . S
C892 C889 1.403 . S
C892 C893 1.524 . S
C892 C896 1.400 . S
C893 H878 0.960 . S
C893 H879 0.960 . S
C893 H880 0.960 . S
C893 C892 1.524 . S
C894 C891 1.403 . S
C894 C895 1.392 . S
C894 C898 1.495 . S
C895 C894 1.392 . S
C895 C896 1.385 . S
C895 C897 1.478 . S
C896 H890 0.930 . S
C896 C892 1.400 . S
C896 C895 1.385 . S
C897 C895 1.478 . S
C897 C899 1.381 . S
C897 C903 1.383 . S
C898 C894 1.495 . S
C898 H904 0.959 . S
C898 H905 0.961 . S
C898 H906 0.960 . S
C899 C897 1.381 . S
C899 C900 1.394 . S
C899 H907 0.930 . S
C900 C899 1.394 . S
C900 C901 1.383 . S
C900 H908 0.929 . S
C901 C900 1.383 . S
C901 C902 1.377 . S
C902 H886 0.930 . S
C902 C901 1.377 . S
C902 C903 1.379 . S
C903 H887 0.931 . S
C903 C897 1.383 . S
C903 C902 1.379 . S
H904 C898 0.959 . S
H905 C898 0.961 . S
H906 C898 0.960 . S
H907 C899 0.930 . S
H908 C900 0.929 . S
H909 C917 0.929 . S
H910 C919 0.930 . S
H911 C921 0.930 . S
H912 C924 0.929 . S
H913 C927 0.930 . S
H914 C929 0.960 . S
H915 C929 0.960 . S
H916 C929 0.960 . S
C917 H909 0.929 . S
C917 C918 1.377 1_556 S
C917 C919 1.384 . S
C918 C917 1.377 1_554 S
C918 C924 1.390 . S
C919 H910 0.930 . S
C919 C917 1.384 . S
C919 C920 1.372 . S
C920 C919 1.372 . S
C920 C921 1.400 . S
C920 C925 1.490 . S
C921 H911 0.930 . S
C921 C920 1.400 . S
C921 C924 1.386 1_556 S
H922 C938 0.930 . S
H923 C939 0.931 . S
C924 H912 0.929 . S
C924 C918 1.390 . S
C924 C921 1.386 1_554 S
C925 C920 1.490 . S
C925 C927 1.395 . S
C925 C928 1.403 . S
H926 C932 0.930 . S
C927 H913 0.930 . S
C927 C925 1.395 . S
C927 C930 1.403 . S
C928 C925 1.403 . S
C928 C929 1.524 . S
C928 C932 1.400 . S
C929 H914 0.960 . S
C929 H915 0.960 . S
C929 H916 0.960 . S
C929 C928 1.524 . S
C930 C927 1.403 . S
C930 C931 1.392 . S
C930 C934 1.495 . S
C931 C930 1.392 . S
C931 C932 1.385 . S
C931 C933 1.478 . S
C932 H926 0.930 . S
C932 C928 1.400 . S
C932 C931 1.385 . S
C933 C931 1.478 . S
C933 C935 1.381 . S
C933 C939 1.383 . S
C934 C930 1.495 . S
C934 H940 0.959 . S
C934 H941 0.961 . S
C934 H942 0.960 . S
C935 C933 1.381 . S
C935 C936 1.394 . S
C935 H943 0.930 . S
C936 C935 1.394 . S
C936 C937 1.383 . S
C936 H944 0.929 . S
C937 C936 1.383 . S
C937 C938 1.377 . S
C938 H922 0.930 . S
C938 C937 1.377 . S
C938 C939 1.379 . S
C939 H923 0.931 . S
C939 C933 1.383 . S
C939 C938 1.379 . S
H940 C934 0.959 . S
H941 C934 0.961 . S
H942 C934 0.960 . S
H943 C935 0.930 . S
H944 C936 0.929 . S
H945 C953 0.929 . S
H946 C955 0.930 . S
H947 C957 0.930 . S
H948 C960 0.929 . S
H949 C963 0.930 . S
H950 C965 0.960 . S
H951 C965 0.960 . S
H952 C965 0.960 . S
C953 H945 0.929 . S
C953 C954 1.377 . S
C953 C955 1.384 . S
C954 C953 1.377 . S
C954 C960 1.390 . S
C955 H946 0.930 . S
C955 C953 1.384 . S
C955 C956 1.372 . S
C956 C955 1.372 . S
C956 C957 1.400 . S
C956 C961 1.490 . S
C957 H947 0.930 . S
C957 C956 1.400 . S
C957 C960 1.386 . S
H958 C974 0.930 . S
H959 C975 0.931 . S
C960 H948 0.929 . S
C960 C954 1.390 . S
C960 C957 1.386 . S
C961 C956 1.490 . S
C961 C963 1.395 . S
C961 C964 1.403 . S
H962 C968 0.930 . S
C963 H949 0.930 . S
C963 C961 1.395 . S
C963 C966 1.403 . S
C964 C961 1.403 . S
C964 C965 1.524 . S
C964 C968 1.400 . S
C965 H950 0.960 . S
C965 H951 0.960 . S
C965 H952 0.960 . S
C965 C964 1.524 . S
C966 C963 1.403 . S
C966 C967 1.392 . S
C966 C970 1.495 . S
C967 C966 1.392 . S
C967 C968 1.385 . S
C967 C969 1.478 . S
C968 H962 0.930 . S
C968 C964 1.400 . S
C968 C967 1.385 . S
C969 C967 1.478 . S
C969 C971 1.381 . S
C969 C975 1.383 . S
C970 C966 1.495 . S
C970 H976 0.959 . S
C970 H977 0.961 . S
C970 H978 0.960 . S
C971 C969 1.381 . S
C971 C972 1.394 . S
C971 H979 0.930 . S
C972 C971 1.394 . S
C972 C973 1.383 . S
C972 H980 0.929 . S
C973 C972 1.383 . S
C973 C974 1.377 . S
C974 H958 0.930 . S
C974 C973 1.377 . S
C974 C975 1.379 . S
C975 H959 0.931 . S
C975 C969 1.383 . S
C975 C974 1.379 . S
H976 C970 0.959 . S
H977 C970 0.961 . S
H978 C970 0.960 . S
H979 C971 0.930 . S
H980 C972 0.929 . S
H981 C989 0.929 . S
H982 C991 0.930 . S
H983 C993 0.930 . S
H984 C996 0.929 . S
H985 C999 0.930 . S
H986 C1001 0.960 . S
H987 C1001 0.960 . S
H988 C1001 0.960 . S
C989 H981 0.929 . S
C989 C990 1.377 . S
C989 C991 1.384 . S
C990 C989 1.377 . S
C990 C996 1.390 . S
C991 H982 0.930 . S
C991 C989 1.384 . S
C991 C992 1.372 . S
C992 C991 1.372 . S
C992 C993 1.400 . S
C992 C997 1.490 . S
C993 H983 0.930 . S
C993 C992 1.400 . S
C993 C996 1.386 . S
H994 C1010 0.930 . S
H995 C1011 0.931 . S
C996 H984 0.929 . S
C996 C990 1.390 . S
C996 C993 1.386 . S
C997 C992 1.490 . S
C997 C999 1.395 . S
C997 C1000 1.403 . S
H998 C1004 0.930 . S
C999 H985 0.930 . S
C999 C997 1.395 . S
C999 C1002 1.403 . S
C1000 C997 1.403 . S
C1000 C1001 1.524 . S
C1000 C1004 1.400 . S
C1001 H986 0.960 . S
C1001 H987 0.960 . S
C1001 H988 0.960 . S
C1001 C1000 1.524 . S
C1002 C999 1.403 . S
C1002 C1003 1.392 . S
C1002 C1006 1.495 . S
C1003 C1002 1.392 . S
C1003 C1004 1.385 . S
C1003 C1005 1.478 . S
C1004 H998 0.930 . S
C1004 C1000 1.400 . S
C1004 C1003 1.385 . S
C1005 C1003 1.478 . S
C1005 C1007 1.381 . S
C1005 C1011 1.383 . S
C1006 C1002 1.495 . S
C1006 H1012 0.959 . S
C1006 H1013 0.961 . S
C1006 H1014 0.960 . S
C1007 C1005 1.381 . S
C1007 C1008 1.394 . S
C1007 H1015 0.930 . S
C1008 C1007 1.394 . S
C1008 C1009 1.383 . S
C1008 H1016 0.929 . S
C1009 C1008 1.383 . S
C1009 C1010 1.377 . S
C1010 H994 0.930 . S
C1010 C1009 1.377 . S
C1010 C1011 1.379 . S
C1011 H995 0.931 . S
C1011 C1005 1.383 . S
C1011 C1010 1.379 . S
H1012 C1006 0.959 . S
H1013 C1006 0.961 . S
H1014 C1006 0.960 . S
H1015 C1007 0.930 . S
H1016 C1008 0.929 . S
H1017 C1025 0.929 . S
H1018 C1027 0.930 . S
H1019 C1029 0.930 . S
H1020 C1032 0.929 . S
H1021 C1035 0.930 . S
H1022 C1037 0.960 . S
H1023 C1037 0.960 . S
H1024 C1037 0.960 . S
C1025 H1017 0.929 . S
C1025 C1026 1.377 . S
C1025 C1027 1.384 . S
C1026 C1025 1.377 . S
C1026 C1032 1.390 . S
C1027 H1018 0.930 . S
C1027 C1025 1.384 . S
C1027 C1028 1.372 . S
C1028 C1027 1.372 . S
C1028 C1029 1.400 . S
C1028 C1033 1.490 . S
C1029 H1019 0.930 . S
C1029 C1028 1.400 . S
C1029 C1032 1.386 . S
H1030 C1046 0.930 . S
H1031 C1047 0.931 . S
C1032 H1020 0.929 . S
C1032 C1026 1.390 . S
C1032 C1029 1.386 . S
C1033 C1028 1.490 . S
C1033 C1035 1.395 . S
C1033 C1036 1.403 . S
H1034 C1040 0.930 . S
C1035 H1021 0.930 . S
C1035 C1033 1.395 . S
C1035 C1038 1.403 . S
C1036 C1033 1.403 . S
C1036 C1037 1.524 . S
C1036 C1040 1.400 . S
C1037 H1022 0.960 . S
C1037 H1023 0.960 . S
C1037 H1024 0.960 . S
C1037 C1036 1.524 . S
C1038 C1035 1.403 . S
C1038 C1039 1.392 . S
C1038 C1042 1.495 . S
C1039 C1038 1.392 . S
C1039 C1040 1.385 . S
C1039 C1041 1.478 . S
C1040 H1034 0.930 . S
C1040 C1036 1.400 . S
C1040 C1039 1.385 . S
C1041 C1039 1.478 . S
C1041 C1043 1.381 . S
C1041 C1047 1.383 . S
C1042 C1038 1.495 . S
C1042 H1048 0.959 . S
C1042 H1049 0.961 . S
C1042 H1050 0.960 . S
C1043 C1041 1.381 . S
C1043 C1044 1.394 . S
C1043 H1051 0.930 . S
C1044 C1043 1.394 . S
C1044 C1045 1.383 . S
C1044 H1052 0.929 . S
C1045 C1044 1.383 . S
C1045 C1046 1.377 . S
C1046 H1030 0.930 . S
C1046 C1045 1.377 . S
C1046 C1047 1.379 . S
C1047 H1031 0.931 . S
C1047 C1041 1.383 . S
C1047 C1046 1.379 . S
H1048 C1042 0.959 . S
H1049 C1042 0.961 . S
H1050 C1042 0.960 . S
H1051 C1043 0.930 . S
H1052 C1044 0.929 . S
H1053 C1061 0.929 . S
H1054 C1063 0.930 . S
H1055 C1065 0.930 . S
H1056 C1068 0.929 . S
H1057 C1071 0.930 . S
H1058 C1073 0.960 . S
H1059 C1073 0.960 . S
H1060 C1073 0.960 . S
C1061 H1053 0.929 . S
C1061 C1062 1.377 . S
C1061 C1063 1.384 . S
C1062 C1061 1.377 . S
C1062 C1068 1.390 . S
C1063 H1054 0.930 . S
C1063 C1061 1.384 . S
C1063 C1064 1.372 . S
C1064 C1063 1.372 . S
C1064 C1065 1.400 . S
C1064 C1069 1.490 . S
C1065 H1055 0.930 . S
C1065 C1064 1.400 . S
C1065 C1068 1.386 . S
H1066 C1082 0.930 . S
H1067 C1083 0.931 . S
C1068 H1056 0.929 . S
C1068 C1062 1.390 . S
C1068 C1065 1.386 . S
C1069 C1064 1.490 . S
C1069 C1071 1.395 . S
C1069 C1072 1.403 . S
H1070 C1076 0.930 . S
C1071 H1057 0.930 . S
C1071 C1069 1.395 . S
C1071 C1074 1.403 . S
C1072 C1069 1.403 . S
C1072 C1073 1.524 . S
C1072 C1076 1.400 . S
C1073 H1058 0.960 . S
C1073 H1059 0.960 . S
C1073 H1060 0.960 . S
C1073 C1072 1.524 . S
C1074 C1071 1.403 . S
C1074 C1075 1.392 . S
C1074 C1078 1.495 . S
C1075 C1074 1.392 . S
C1075 C1076 1.385 . S
C1075 C1077 1.478 . S
C1076 H1070 0.930 . S
C1076 C1072 1.400 . S
C1076 C1075 1.385 . S
C1077 C1075 1.478 . S
C1077 C1079 1.381 . S
C1077 C1083 1.383 . S
C1078 C1074 1.495 . S
C1078 H1084 0.959 . S
C1078 H1085 0.961 . S
C1078 H1086 0.960 . S
C1079 C1077 1.381 . S
C1079 C1080 1.394 . S
C1079 H1087 0.930 . S
C1080 C1079 1.394 . S
C1080 C1081 1.383 . S
C1080 H1088 0.929 . S
C1081 C1080 1.383 . S
C1081 C1082 1.377 . S
C1082 H1066 0.930 . S
C1082 C1081 1.377 . S
C1082 C1083 1.379 . S
C1083 H1067 0.931 . S
C1083 C1077 1.383 . S
C1083 C1082 1.379 . S
H1084 C1078 0.959 . S
H1085 C1078 0.961 . S
H1086 C1078 0.960 . S
H1087 C1079 0.930 . S
H1088 C1080 0.929 . S
H1089 C1097 0.929 . S
H1090 C1099 0.930 . S
H1091 C1101 0.930 . S
H1092 C1104 0.929 . S
H1093 C1107 0.930 . S
H1094 C1109 0.960 . S
H1095 C1109 0.960 . S
H1096 C1109 0.960 . S
C1097 H1089 0.929 . S
C1097 C1098 1.377 . S
C1097 C1099 1.384 . S
C1098 C1097 1.377 . S
C1098 C1104 1.390 . S
C1099 H1090 0.930 . S
C1099 C1097 1.384 . S
C1099 C1100 1.372 . S
C1100 C1099 1.372 . S
C1100 C1101 1.400 . S
C1100 C1105 1.490 . S
C1101 H1091 0.930 . S
C1101 C1100 1.400 . S
C1101 C1104 1.386 . S
H1102 C1118 0.930 . S
H1103 C1119 0.931 . S
C1104 H1092 0.929 . S
C1104 C1098 1.390 . S
C1104 C1101 1.386 . S
C1105 C1100 1.490 . S
C1105 C1107 1.395 . S
C1105 C1108 1.403 . S
H1106 C1112 0.930 . S
C1107 H1093 0.930 . S
C1107 C1105 1.395 . S
C1107 C1110 1.403 . S
C1108 C1105 1.403 . S
C1108 C1109 1.524 . S
C1108 C1112 1.400 . S
C1109 H1094 0.960 . S
C1109 H1095 0.960 . S
C1109 H1096 0.960 . S
C1109 C1108 1.524 . S
C1110 C1107 1.403 . S
C1110 C1111 1.392 . S
C1110 C1114 1.495 . S
C1111 C1110 1.392 . S
C1111 C1112 1.385 . S
C1111 C1113 1.478 . S
C1112 H1106 0.930 . S
C1112 C1108 1.400 . S
C1112 C1111 1.385 . S
C1113 C1111 1.478 . S
C1113 C1115 1.381 . S
C1113 C1119 1.383 . S
C1114 C1110 1.495 . S
C1114 H1120 0.959 . S
C1114 H1121 0.961 . S
C1114 H1122 0.960 . S
C1115 C1113 1.381 . S
C1115 C1116 1.394 . S
C1115 H1123 0.930 . S
C1116 C1115 1.394 . S
C1116 C1117 1.383 . S
C1116 H1124 0.929 . S
C1117 C1116 1.383 . S
C1117 C1118 1.377 . S
C1118 H1102 0.930 . S
C1118 C1117 1.377 . S
C1118 C1119 1.379 . S
C1119 H1103 0.931 . S
C1119 C1113 1.383 . S
C1119 C1118 1.379 . S
H1120 C1114 0.959 . S
H1121 C1114 0.961 . S
H1122 C1114 0.960 . S
H1123 C1115 0.930 . S
H1124 C1116 0.929 . S
H1125 C1133 0.929 . S
H1126 C1135 0.930 . S
H1127 C1137 0.930 . S
H1128 C1140 0.929 . S
H1129 C1143 0.930 . S
H1130 C1145 0.960 . S
H1131 C1145 0.960 . S
H1132 C1145 0.960 . S
C1133 H1125 0.929 . S
C1133 C1134 1.377 . S
C1133 C1135 1.384 . S
C1134 C1133 1.377 . S
C1134 C1140 1.390 . S
C1135 H1126 0.930 . S
C1135 C1133 1.384 . S
C1135 C1136 1.372 . S
C1136 C1135 1.372 . S
C1136 C1137 1.400 . S
C1136 C1141 1.490 . S
C1137 H1127 0.930 . S
C1137 C1136 1.400 . S
C1137 C1140 1.386 . S
H1138 C1154 0.930 . S
H1139 C1155 0.931 . S
C1140 H1128 0.929 . S
C1140 C1134 1.390 . S
C1140 C1137 1.386 . S
C1141 C1136 1.490 . S
C1141 C1143 1.395 . S
C1141 C1144 1.403 . S
H1142 C1148 0.930 . S
C1143 H1129 0.930 . S
C1143 C1141 1.395 . S
C1143 C1146 1.403 . S
C1144 C1141 1.403 . S
C1144 C1145 1.524 . S
C1144 C1148 1.400 . S
C1145 H1130 0.960 . S
C1145 H1131 0.960 . S
C1145 H1132 0.960 . S
C1145 C1144 1.524 . S
C1146 C1143 1.403 . S
C1146 C1147 1.392 . S
C1146 C1150 1.495 . S
C1147 C1146 1.392 . S
C1147 C1148 1.385 . S
C1147 C1149 1.478 . S
C1148 H1142 0.930 . S
C1148 C1144 1.400 . S
C1148 C1147 1.385 . S
C1149 C1147 1.478 . S
C1149 C1151 1.381 . S
C1149 C1155 1.383 . S
C1150 C1146 1.495 . S
C1150 H1156 0.959 . S
C1150 H1157 0.961 . S
C1150 H1158 0.960 . S
C1151 C1149 1.381 . S
C1151 C1152 1.394 . S
C1151 H1159 0.930 . S
C1152 C1151 1.394 . S
C1152 C1153 1.383 . S
C1152 H1160 0.929 . S
C1153 C1152 1.383 . S
C1153 C1154 1.377 . S
C1154 H1138 0.930 . S
C1154 C1153 1.377 . S
C1154 C1155 1.379 . S
C1155 H1139 0.931 . S
C1155 C1149 1.383 . S
C1155 C1154 1.379 . S
H1156 C1150 0.959 . S
H1157 C1150 0.961 . S
H1158 C1150 0.960 . S
H1159 C1151 0.930 . S
H1160 C1152 0.929 . S
H1161 C1169 0.929 . S
H1162 C1171 0.930 . S
H1163 C1173 0.930 . S
H1164 C1176 0.929 . S
H1165 C1179 0.930 . S
H1166 C1181 0.960 . S
H1167 C1181 0.960 . S
H1168 C1181 0.960 . S
C1169 H1161 0.929 . S
C1169 C1170 1.377 . S
C1169 C1171 1.384 . S
C1170 C1169 1.377 . S
C1170 C1176 1.390 . S
C1171 H1162 0.930 . S
C1171 C1169 1.384 . S
C1171 C1172 1.372 . S
C1172 C1171 1.372 . S
C1172 C1173 1.400 . S
C1172 C1177 1.490 . S
C1173 H1163 0.930 . S
C1173 C1172 1.400 . S
C1173 C1176 1.386 . S
H1174 C1190 0.930 . S
H1175 C1191 0.931 . S
C1176 H1164 0.929 . S
C1176 C1170 1.390 . S
C1176 C1173 1.386 . S
C1177 C1172 1.490 . S
C1177 C1179 1.395 . S
C1177 C1180 1.403 . S
H1178 C1184 0.930 . S
C1179 H1165 0.930 . S
C1179 C1177 1.395 . S
C1179 C1182 1.403 . S
C1180 C1177 1.403 . S
C1180 C1181 1.524 . S
C1180 C1184 1.400 . S
C1181 H1166 0.960 . S
C1181 H1167 0.960 . S
C1181 H1168 0.960 . S
C1181 C1180 1.524 . S
C1182 C1179 1.403 . S
C1182 C1183 1.392 . S
C1182 C1186 1.495 . S
C1183 C1182 1.392 . S
C1183 C1184 1.385 . S
C1183 C1185 1.478 . S
C1184 H1178 0.930 . S
C1184 C1180 1.400 . S
C1184 C1183 1.385 . S
C1185 C1183 1.478 . S
C1185 C1187 1.381 . S
C1185 C1191 1.383 . S
C1186 C1182 1.495 . S
C1186 H1192 0.959 . S
C1186 H1193 0.961 . S
C1186 H1194 0.960 . S
C1187 C1185 1.381 . S
C1187 C1188 1.394 . S
C1187 H1195 0.930 . S
C1188 C1187 1.394 . S
C1188 C1189 1.383 . S
C1188 H1196 0.929 . S
C1189 C1188 1.383 . S
C1189 C1190 1.377 . S
C1190 H1174 0.930 . S
C1190 C1189 1.377 . S
C1190 C1191 1.379 . S
C1191 H1175 0.931 . S
C1191 C1185 1.383 . S
C1191 C1190 1.379 . S
H1192 C1186 0.959 . S
H1193 C1186 0.961 . S
H1194 C1186 0.960 . S
H1195 C1187 0.930 . S
H1196 C1188 0.929 . S
H1197 C1205 0.929 . S
H1198 C1207 0.930 . S
H1199 C1209 0.930 . S
H1200 C1212 0.929 . S
H1201 C1215 0.930 . S
H1202 C1217 0.960 . S
H1203 C1217 0.960 . S
H1204 C1217 0.960 . S
C1205 H1197 0.929 . S
C1205 C1206 1.377 . S
C1205 C1207 1.384 . S
C1206 C1205 1.377 . S
C1206 C1212 1.390 . S
C1207 H1198 0.930 . S
C1207 C1205 1.384 . S
C1207 C1208 1.372 . S
C1208 C1207 1.372 . S
C1208 C1209 1.400 . S
C1208 C1213 1.490 . S
C1209 H1199 0.930 . S
C1209 C1208 1.400 . S
C1209 C1212 1.386 . S
H1210 C1226 0.930 . S
H1211 C1227 0.931 . S
C1212 H1200 0.929 . S
C1212 C1206 1.390 . S
C1212 C1209 1.386 . S
C1213 C1208 1.490 . S
C1213 C1215 1.395 . S
C1213 C1216 1.403 . S
H1214 C1220 0.930 . S
C1215 H1201 0.930 . S
C1215 C1213 1.395 . S
C1215 C1218 1.403 . S
C1216 C1213 1.403 . S
C1216 C1217 1.524 . S
C1216 C1220 1.400 . S
C1217 H1202 0.960 . S
C1217 H1203 0.960 . S
C1217 H1204 0.960 . S
C1217 C1216 1.524 . S
C1218 C1215 1.403 . S
C1218 C1219 1.392 . S
C1218 C1222 1.495 . S
C1219 C1218 1.392 . S
C1219 C1220 1.385 . S
C1219 C1221 1.478 . S
C1220 H1214 0.930 . S
C1220 C1216 1.400 . S
C1220 C1219 1.385 . S
C1221 C1219 1.478 . S
C1221 C1223 1.381 . S
C1221 C1227 1.383 . S
C1222 C1218 1.495 . S
C1222 H1228 0.959 . S
C1222 H1229 0.961 . S
C1222 H1230 0.960 . S
C1223 C1221 1.381 . S
C1223 C1224 1.394 . S
C1223 H1231 0.930 . S
C1224 C1223 1.394 . S
C1224 C1225 1.383 . S
C1224 H1232 0.929 . S
C1225 C1224 1.383 . S
C1225 C1226 1.377 . S
C1226 H1210 0.930 . S
C1226 C1225 1.377 . S
C1226 C1227 1.379 . S
C1227 H1211 0.931 . S
C1227 C1221 1.383 . S
C1227 C1226 1.379 . S
H1228 C1222 0.959 . S
H1229 C1222 0.961 . S
H1230 C1222 0.960 . S
H1231 C1223 0.930 . S
H1232 C1224 0.929 . S
C378 C15 1.710 . S
C397 C276 1.632 . S
C414 C47 1.615 . S
C433 C308 1.577 . S
C469 C367 1.981 . S
C450 C100 2.040 . S
C505 C296 1.455 . S
C486 C146 1.513 . S
C522 C192 1.624 . S
C541 C326 1.563 . S
C577 C348 1.153 . S
C558 C245 1.137 . S
C613 C317 1.641 . S
C594 C114 1.647 . S
C630 C160 1.204 . S
C649 C357 1.166 . S
C685 C306 1.528 . S
C666 C206 1.547 . S
C702 C231 1.582 1_556 S
C721 C336 1.549 . S
C738 C1 1.967 . S
C757 C339 1.931 . S
C793 C278 1.654 . S
C774 C61 1.675 . S
C829 C286 1.552 . S
C810 C139 1.603 . S
C865 C327 1.566 . S
C846 C185 1.605 . S
C901 C340 1.992 . S
C882 C252 2.064 1_556 S
C937 C277 1.493 . S
C918 C22 1.554 . S
C973 C337 1.487 . S
C954 C54 1.519 . S
C990 C93 1.156 . S
C1009 C338 1.114 . S
C1045 C307 1.539 . S
C1026 C238 1.625 . S
C1081 C368 1.129 . S
C1062 C8 1.144 . S
C1117 C295 1.483 . S
C1098 C68 1.565 . S
C1153 C309 1.581 . S
C1134 C107 1.636 . S
C1170 C153 1.975 . S
C1189 C358 1.907 . S
C1206 C199 1.707 . S
C1225 C305 1.684 . S
