# Generated by pormake.
# Topology eea, (3,6)-cn, num edge types: 1
# Building blocks:
#     Node 0, Type 0, BuildingBlock: CUQRIR_clean_linker_1, # of connection points: 3
#     Node 1, Type 0, BuildingBlock: CUQRIR_clean_linker_1, # of connection points: 3
#     Node 2, Type 0, BuildingBlock: CUQRIR_clean_linker_1, # of connection points: 3
#     Node 3, Type 0, BuildingBlock: CUQRIR_clean_linker_1, # of connection points: 3
#     Node 4, Type 0, BuildingBlock: CUQRIR_clean_linker_1, # of connection points: 3
#     Node 5, Type 0, BuildingBlock: CUQRIR_clean_linker_1, # of connection points: 3
#     Node 6, Type 0, BuildingBlock: CUQRIR_clean_linker_1, # of connection points: 3
#     Node 7, Type 0, BuildingBlock: CUQRIR_clean_linker_1, # of connection points: 3
#     Node 8, Type 0, BuildingBlock: CUQRIR_clean_linker_1, # of connection points: 3
#     Node 9, Type 0, BuildingBlock: CUQRIR_clean_linker_1, # of connection points: 3
#     Node 10, Type 0, BuildingBlock: CUQRIR_clean_linker_1, # of connection points: 3
#     Node 11, Type 0, BuildingBlock: CUQRIR_clean_linker_1, # of connection points: 3
#     Node 12, Type 0, BuildingBlock: CUQRIR_clean_linker_1, # of connection points: 3
#     Node 13, Type 0, BuildingBlock: CUQRIR_clean_linker_1, # of connection points: 3
#     Node 14, Type 0, BuildingBlock: CUQRIR_clean_linker_1, # of connection points: 3
#     Node 15, Type 0, BuildingBlock: CUQRIR_clean_linker_1, # of connection points: 3
#     Node 16, Type 0, BuildingBlock: CUQRIR_clean_linker_1, # of connection points: 3
#     Node 17, Type 0, BuildingBlock: CUQRIR_clean_linker_1, # of connection points: 3
#     Node 18, Type 1, BuildingBlock: NUHQIS_clean_sbu_0, # of connection points: 6
#     Node 19, Type 1, BuildingBlock: NUHQIS_clean_sbu_0, # of connection points: 6
#     Node 20, Type 1, BuildingBlock: NUHQIS_clean_sbu_0, # of connection points: 6
#     Node 21, Type 1, BuildingBlock: NUHQIS_clean_sbu_0, # of connection points: 6
#     Node 22, Type 1, BuildingBlock: NUHQIS_clean_sbu_0, # of connection points: 6
#     Node 23, Type 1, BuildingBlock: NUHQIS_clean_sbu_0, # of connection points: 6
#     Node 24, Type 1, BuildingBlock: NUHQIS_clean_sbu_0, # of connection points: 6
#     Node 25, Type 1, BuildingBlock: NUHQIS_clean_sbu_0, # of connection points: 6
#     Node 26, Type 1, BuildingBlock: NUHQIS_clean_sbu_0, # of connection points: 6
#     Edge 27, Type (0, 1), BuildingBlock: TEMPAE_clean_linker_10, # of connection points: 2
#     Edge 28, Type (0, 1), BuildingBlock: TEMPAE_clean_linker_10, # of connection points: 2
#     Edge 29, Type (0, 1), BuildingBlock: TEMPAE_clean_linker_10, # of connection points: 2
#     Edge 30, Type (0, 1), BuildingBlock: TEMPAE_clean_linker_10, # of connection points: 2
#     Edge 31, Type (0, 1), BuildingBlock: TEMPAE_clean_linker_10, # of connection points: 2
#     Edge 32, Type (0, 1), BuildingBlock: TEMPAE_clean_linker_10, # of connection points: 2
#     Edge 33, Type (0, 1), BuildingBlock: TEMPAE_clean_linker_10, # of connection points: 2
#     Edge 34, Type (0, 1), BuildingBlock: TEMPAE_clean_linker_10, # of connection points: 2
#     Edge 35, Type (0, 1), BuildingBlock: TEMPAE_clean_linker_10, # of connection points: 2
#     Edge 36, Type (0, 1), BuildingBlock: TEMPAE_clean_linker_10, # of connection points: 2
#     Edge 37, Type (0, 1), BuildingBlock: TEMPAE_clean_linker_10, # of connection points: 2
#     Edge 38, Type (0, 1), BuildingBlock: TEMPAE_clean_linker_10, # of connection points: 2
#     Edge 39, Type (0, 1), BuildingBlock: TEMPAE_clean_linker_10, # of connection points: 2
#     Edge 40, Type (0, 1), BuildingBlock: TEMPAE_clean_linker_10, # of connection points: 2
#     Edge 41, Type (0, 1), BuildingBlock: TEMPAE_clean_linker_10, # of connection points: 2
#     Edge 42, Type (0, 1), BuildingBlock: TEMPAE_clean_linker_10, # of connection points: 2
#     Edge 43, Type (0, 1), BuildingBlock: TEMPAE_clean_linker_10, # of connection points: 2
#     Edge 44, Type (0, 1), BuildingBlock: TEMPAE_clean_linker_10, # of connection points: 2
#     Edge 45, Type (0, 1), BuildingBlock: TEMPAE_clean_linker_10, # of connection points: 2
#     Edge 46, Type (0, 1), BuildingBlock: TEMPAE_clean_linker_10, # of connection points: 2
#     Edge 47, Type (0, 1), BuildingBlock: TEMPAE_clean_linker_10, # of connection points: 2
#     Edge 48, Type (0, 1), BuildingBlock: TEMPAE_clean_linker_10, # of connection points: 2
#     Edge 49, Type (0, 1), BuildingBlock: TEMPAE_clean_linker_10, # of connection points: 2
#     Edge 50, Type (0, 1), BuildingBlock: TEMPAE_clean_linker_10, # of connection points: 2
#     Edge 51, Type (0, 1), BuildingBlock: TEMPAE_clean_linker_10, # of connection points: 2
#     Edge 52, Type (0, 1), BuildingBlock: TEMPAE_clean_linker_10, # of connection points: 2
#     Edge 53, Type (0, 1), BuildingBlock: TEMPAE_clean_linker_10, # of connection points: 2
#     Edge 54, Type (0, 1), BuildingBlock: TEMPAE_clean_linker_10, # of connection points: 2
#     Edge 55, Type (0, 1), BuildingBlock: TEMPAE_clean_linker_10, # of connection points: 2
#     Edge 56, Type (0, 1), BuildingBlock: TEMPAE_clean_linker_10, # of connection points: 2
#     Edge 57, Type (0, 1), BuildingBlock: TEMPAE_clean_linker_10, # of connection points: 2
#     Edge 58, Type (0, 1), BuildingBlock: TEMPAE_clean_linker_10, # of connection points: 2
#     Edge 59, Type (0, 1), BuildingBlock: TEMPAE_clean_linker_10, # of connection points: 2
#     Edge 60, Type (0, 1), BuildingBlock: TEMPAE_clean_linker_10, # of connection points: 2
#     Edge 61, Type (0, 1), BuildingBlock: TEMPAE_clean_linker_10, # of connection points: 2
#     Edge 62, Type (0, 1), BuildingBlock: TEMPAE_clean_linker_10, # of connection points: 2
#     Edge 63, Type (0, 1), BuildingBlock: TEMPAE_clean_linker_10, # of connection points: 2
#     Edge 64, Type (0, 1), BuildingBlock: TEMPAE_clean_linker_10, # of connection points: 2
#     Edge 65, Type (0, 1), BuildingBlock: TEMPAE_clean_linker_10, # of connection points: 2
#     Edge 66, Type (0, 1), BuildingBlock: TEMPAE_clean_linker_10, # of connection points: 2
#     Edge 67, Type (0, 1), BuildingBlock: TEMPAE_clean_linker_10, # of connection points: 2
#     Edge 68, Type (0, 1), BuildingBlock: TEMPAE_clean_linker_10, # of connection points: 2
#     Edge 69, Type (0, 1), BuildingBlock: TEMPAE_clean_linker_10, # of connection points: 2
#     Edge 70, Type (0, 1), BuildingBlock: TEMPAE_clean_linker_10, # of connection points: 2
#     Edge 71, Type (0, 1), BuildingBlock: TEMPAE_clean_linker_10, # of connection points: 2
#     Edge 72, Type (0, 1), BuildingBlock: TEMPAE_clean_linker_10, # of connection points: 2
#     Edge 73, Type (0, 1), BuildingBlock: TEMPAE_clean_linker_10, # of connection points: 2
#     Edge 74, Type (0, 1), BuildingBlock: TEMPAE_clean_linker_10, # of connection points: 2
#     Edge 75, Type (0, 1), BuildingBlock: TEMPAE_clean_linker_10, # of connection points: 2
#     Edge 76, Type (0, 1), BuildingBlock: TEMPAE_clean_linker_10, # of connection points: 2
#     Edge 77, Type (0, 1), BuildingBlock: TEMPAE_clean_linker_10, # of connection points: 2
#     Edge 78, Type (0, 1), BuildingBlock: TEMPAE_clean_linker_10, # of connection points: 2
#     Edge 79, Type (0, 1), BuildingBlock: TEMPAE_clean_linker_10, # of connection points: 2
#     Edge 80, Type (0, 1), BuildingBlock: TEMPAE_clean_linker_10, # of connection points: 2
# Relax obj value: 0.106
# Max RMSD: 0.247
# Mean RMSD: 0.180
data_MOF--net-eea--node1-NUHQIS_clean_sbu_0--node2-CUQRIR_clean_linker_1--edge1-TEMPAE_clean_linker_10
_symmetry_space_group_name_H-M    P1
_symmetry_Int_Tables_number       1
_symmetry_cell_setting            triclinic
loop_
_symmetry_equiv_pos_as_xyz
'x, y, z'
_cell_length_a     49.197836
_cell_length_b     51.311772
_cell_length_c     67.304966
_cell_angle_alpha  87.207239
_cell_angle_beta   93.193482
_cell_angle_gamma 118.79789
loop_
_atom_site_label
_atom_site_type_symbol
_atom_site_fract_x
_atom_site_fract_y
_atom_site_fract_z
_atom_type_partial_charge
C0 C 0.21435 0.10433 0.40196 0.0
N1 N 0.22516 0.12743 0.41448 0.0
N2 N 0.2212 0.08309 0.40945 0.0
C3 C 0.19929 0.10353 0.38175 0.0
C4 C 0.23668 0.09416 0.42692 0.0
N5 N 0.23934 0.12119 0.42985 0.0
C6 C 0.24752 0.07786 0.44172 0.0
H7 H 0.1739 0.09391 0.38332 0.0
H8 H 0.20338 0.08952 0.37155 0.0
H9 H 0.20831 0.12628 0.37512 0.0
H10 H 0.23286 0.05343 0.44051 0.0
H11 H 0.24712 0.08426 0.45717 0.0
H12 H 0.27179 0.08383 0.43865 0.0
C13 C 0.91453 0.12429 0.4082 0.0
N14 N 0.92837 0.14681 0.42127 0.0
N15 N 0.88683 0.10287 0.41483 0.0
C16 C 0.92777 0.12346 0.38877 0.0
C17 C 0.88437 0.11318 0.43243 0.0
N18 N 0.90944 0.13987 0.43633 0.0
C19 C 0.858 0.09661 0.44627 0.0
H20 H 0.94265 0.14617 0.38265 0.0
H21 H 0.90898 0.1106 0.37768 0.0
H22 H 0.94231 0.11241 0.39136 0.0
H23 H 0.86619 0.10142 0.46203 0.0
H24 H 0.84689 0.07226 0.44416 0.0
H25 H 0.84035 0.10398 0.44308 0.0
C26 C 0.92265 0.82171 0.4237 0.0
N27 N 0.93542 0.80841 0.43583 0.0
N28 N 0.89495 0.81633 0.43035 0.0
C29 C 0.93542 0.83687 0.40409 0.0
C30 C 0.89111 0.79897 0.44683 0.0
N31 N 0.91553 0.79383 0.45004 0.0
C32 C 0.86239 0.78526 0.45889 0.0
H33 H 0.96086 0.85158 0.40568 0.0
H34 H 0.92421 0.85016 0.39836 0.0
H35 H 0.93121 0.81973 0.39311 0.0
H36 H 0.84563 0.76342 0.45261 0.0
H37 H 0.85117 0.79956 0.45828 0.0
H38 H 0.86802 0.78165 0.47463 0.0
C39 C 0.10313 0.21232 0.61901 0.0
N40 N 0.12654 0.2244 0.60622 0.0
N41 N 0.0811 0.22005 0.61351 0.0
C42 C 0.1029 0.19488 0.63767 0.0
C43 C 0.09207 0.23755 0.59705 0.0
N44 N 0.11994 0.24045 0.59275 0.0
C45 C 0.07641 0.25305 0.58585 0.0
H46 H 0.07895 0.18099 0.64287 0.0
H47 H 0.11705 0.21065 0.6495 0.0
H48 H 0.11339 0.18048 0.63514 0.0
H49 H 0.08528 0.27551 0.59198 0.0
H50 H 0.05092 0.24069 0.58744 0.0
H51 H 0.08167 0.25567 0.56982 0.0
C52 C 0.78646 0.89191 0.63133 0.0
N53 N 0.77728 0.87054 0.61761 0.0
N54 N 0.77779 0.91247 0.62533 0.0
C55 C 0.80196 0.89161 0.6512 0.0
C56 C 0.76285 0.90276 0.60751 0.0
N57 N 0.7621 0.87698 0.60295 0.0
C58 C 0.75175 0.91997 0.5937 0.0
H59 H 0.79694 0.9038 0.66235 0.0
H60 H 0.82744 0.90257 0.64949 0.0
H61 H 0.79412 0.86845 0.65676 0.0
H62 H 0.76515 0.94417 0.59643 0.0
H63 H 0.72694 0.91235 0.59629 0.0
H64 H 0.75388 0.91618 0.5779 0.0
C65 C 0.10076 0.90231 0.62029 0.0
N66 N 0.08713 0.87851 0.60826 0.0
N67 N 0.12848 0.92308 0.61326 0.0
C68 C 0.08785 0.90445 0.63952 0.0
C69 C 0.13116 0.91097 0.59652 0.0
N70 N 0.10628 0.88375 0.59359 0.0
C71 C 0.15702 0.92675 0.58221 0.0
H72 H 0.07248 0.9145 0.63635 0.0
H73 H 0.10672 0.91868 0.65014 0.0
H74 H 0.07386 0.8821 0.64647 0.0
H75 H 0.17528 0.92031 0.58587 0.0
H76 H 0.16754 0.95125 0.58329 0.0
H77 H 0.14841 0.92041 0.56666 0.0
C78 C 0.87371 0.43642 0.73707 0.0
N79 N 0.88691 0.45966 0.7495 0.0
N80 N 0.88282 0.41599 0.74247 0.0
C81 C 0.85338 0.43445 0.71905 0.0
C82 C 0.90201 0.42758 0.75859 0.0
N83 N 0.90483 0.45435 0.76273 0.0
C84 C 0.91591 0.41157 0.77117 0.0
H85 H 0.82924 0.42592 0.72378 0.0
H86 H 0.85348 0.41911 0.70803 0.0
H87 H 0.86113 0.45676 0.71193 0.0
H88 H 0.93994 0.41925 0.76652 0.0
H89 H 0.90237 0.38715 0.7693 0.0
H90 H 0.91687 0.4165 0.78714 0.0
C91 C 0.57098 0.44723 0.73907 0.0
N92 N 0.58519 0.46953 0.75225 0.0
N93 N 0.54533 0.42422 0.74684 0.0
C94 C 0.58222 0.44775 0.71865 0.0
C95 C 0.54445 0.43331 0.76524 0.0
N96 N 0.56869 0.46072 0.7686 0.0
C97 C 0.51922 0.41585 0.77969 0.0
H98 H 0.57163 0.45769 0.70792 0.0
H99 H 0.57516 0.42487 0.71392 0.0
H100 H 0.60779 0.46143 0.71811 0.0
H101 H 0.52673 0.40274 0.78995 0.0
H102 H 0.49729 0.40028 0.77181 0.0
H103 H 0.51489 0.43088 0.78874 0.0
C104 C 0.54452 0.07823 0.73673 0.0
N105 N 0.56264 0.07277 0.75026 0.0
N106 N 0.52038 0.07793 0.74558 0.0
C107 C 0.55203 0.08663 0.71522 0.0
C108 C 0.52463 0.0725 0.76503 0.0
N109 N 0.55061 0.0698 0.76793 0.0
C110 C 0.50445 0.07157 0.78135 0.0
H111 H 0.53146 0.08448 0.70625 0.0
H112 H 0.56052 0.0724 0.70894 0.0
H113 H 0.57083 0.11004 0.7142 0.0
H114 H 0.48072 0.06575 0.7756 0.0
H115 H 0.51487 0.09384 0.78804 0.0
H116 H 0.503 0.0552 0.79322 0.0
C117 C 0.79362 0.59373 0.96993 0.0
N118 N 0.81488 0.6026 0.95575 0.0
N119 N 0.77141 0.60129 0.96459 0.0
C120 C 0.79485 0.57808 0.9892 0.0
C121 C 0.78002 0.61526 0.94661 0.0
N122 N 0.80677 0.61637 0.94132 0.0
C123 C 0.76036 0.62442 0.93322 0.0
H124 H 0.78389 0.55382 0.98676 0.0
H125 H 0.78218 0.58195 1.00085 0.0
H126 H 0.81927 0.58585 0.99444 0.0
H127 H 0.76715 0.64794 0.93602 0.0
H128 H 0.73536 0.61057 0.93624 0.0
H129 H 0.7638 0.62256 0.91731 0.0
C130 C 0.46571 0.23243 0.96119 0.0
N131 N 0.45438 0.20983 0.94823 0.0
N132 N 0.45534 0.25195 0.95594 0.0
C133 C 0.48512 0.23443 0.97973 0.0
C134 C 0.43718 0.24046 0.93941 0.0
N135 N 0.43622 0.21459 0.93484 0.0
C136 C 0.42248 0.25579 0.92689 0.0
H137 H 0.483 0.24844 0.99094 0.0
H138 H 0.50982 0.24459 0.97578 0.0
H139 H 0.47814 0.21198 0.98638 0.0
H140 H 0.42279 0.25195 0.91084 0.0
H141 H 0.43461 0.28009 0.92936 0.0
H142 H 0.39795 0.24653 0.931 0.0
C143 C 0.77993 0.23922 0.95936 0.0
N144 N 0.76453 0.2164 0.94665 0.0
N145 N 0.80262 0.26319 0.94996 0.0
C146 C 0.7715 0.23882 0.98055 0.0
C147 C 0.80045 0.25419 0.93109 0.0
N148 N 0.77707 0.22595 0.92898 0.0
C149 C 0.82293 0.27209 0.91518 0.0
H150 H 0.74609 0.22509 0.98222 0.0
H151 H 0.77908 0.26166 0.98558 0.0
H152 H 0.78326 0.2289 0.99027 0.0
H153 H 0.84546 0.28889 0.92177 0.0
H154 H 0.8129 0.28381 0.90564 0.0
H155 H 0.82711 0.25744 0.90563 0.0
C156 C 0.55031 0.77478 0.06849 0.0
N157 N 0.55959 0.79654 0.08195 0.0
N158 N 0.54911 0.74992 0.07722 0.0
C159 C 0.54275 0.77793 0.04683 0.0
C160 C 0.55765 0.75721 0.09648 0.0
N161 N 0.56363 0.7854 0.09939 0.0
C162 C 0.56107 0.73725 0.11241 0.0
H163 H 0.52839 0.75602 0.03995 0.0
H164 H 0.5647 0.78986 0.03879 0.0
H165 H 0.53042 0.79124 0.04504 0.0
H166 H 0.55455 0.71493 0.10687 0.0
H167 H 0.54614 0.73456 0.12495 0.0
H168 H 0.58545 0.74786 0.11832 0.0
C169 C 0.242 0.78985 0.0727 0.0
N170 N 0.2561 0.81258 0.08558 0.0
N171 N 0.21315 0.77005 0.07858 0.0
C172 C 0.25556 0.78798 0.05366 0.0
C173 C 0.21012 0.7816 0.09546 0.0
N174 N 0.236 0.80757 0.09962 0.0
C175 C 0.18255 0.76665 0.10856 0.0
H176 H 0.27043 0.81052 0.04721 0.0
H177 H 0.23703 0.77467 0.04255 0.0
H178 H 0.27016 0.77711 0.05689 0.0
H179 H 0.18962 0.77171 0.12444 0.0
H180 H 0.17041 0.74217 0.10687 0.0
H181 H 0.16607 0.77511 0.10421 0.0
C182 C 0.24814 0.4799 0.08754 0.0
N183 N 0.26195 0.46703 0.09918 0.0
N184 N 0.219 0.47075 0.09339 0.0
C185 C 0.26181 0.49849 0.06906 0.0
C186 C 0.21536 0.45163 0.10878 0.0
N187 N 0.24131 0.44906 0.11216 0.0
C188 C 0.18642 0.43562 0.12055 0.0
H189 H 0.28217 0.51985 0.07341 0.0
H190 H 0.24486 0.50325 0.06031 0.0
H191 H 0.27015 0.48692 0.05955 0.0
H192 H 0.17221 0.41282 0.11484 0.0
H193 H 0.17238 0.4473 0.11908 0.0
H194 H 0.19241 0.43378 0.13651 0.0
C195 C 0.45886 0.92177 0.30209 0.0
N196 N 0.48104 0.93145 0.28846 0.0
N197 N 0.43661 0.92908 0.29627 0.0
C198 C 0.45938 0.90588 0.32139 0.0
C199 C 0.44617 0.94375 0.27859 0.0
N200 N 0.47349 0.94551 0.27393 0.0
C201 C 0.42705 0.95316 0.26486 0.0
H202 H 0.44888 0.8817 0.31877 0.0
H203 H 0.44594 0.90927 0.33274 0.0
H204 H 0.48361 0.91385 0.32715 0.0
H205 H 0.43352 0.97655 0.26787 0.0
H206 H 0.4019 0.93909 0.26732 0.0
H207 H 0.43141 0.95184 0.24904 0.0
C208 C 0.12947 0.56176 0.29461 0.0
N209 N 0.12117 0.54087 0.28061 0.0
N210 N 0.13057 0.58687 0.28646 0.0
C211 C 0.13858 0.5584 0.31591 0.0
C212 C 0.12277 0.58058 0.267 0.0
N213 N 0.11752 0.55278 0.26338 0.0
C214 C 0.11786 0.60067 0.25187 0.0
H215 H 0.1173 0.5468 0.32466 0.0
H216 H 0.15389 0.58038 0.32252 0.0
H217 H 0.15066 0.54484 0.31699 0.0
H218 H 0.11206 0.61624 0.25912 0.0
H219 H 0.09897 0.58754 0.2409 0.0
H220 H 0.13954 0.61386 0.24371 0.0
C221 C 0.44622 0.57872 0.2887 0.0
N222 N 0.43197 0.55433 0.27715 0.0
N223 N 0.47429 0.59844 0.28164 0.0
C224 C 0.43388 0.58248 0.3077 0.0
C225 C 0.47678 0.58523 0.26544 0.0
N226 N 0.45127 0.55832 0.26277 0.0
C227 C 0.50333 0.59956 0.25154 0.0
H228 H 0.41776 0.59156 0.30405 0.0
H229 H 0.45295 0.5982 0.31763 0.0
H230 H 0.42094 0.56077 0.31568 0.0
H231 H 0.52009 0.59132 0.25551 0.0
H232 H 0.51561 0.62412 0.25272 0.0
H233 H 0.49496 0.5937 0.23589 0.0
Tb234 Tb 0.50552 0.99183 0.99803 0.0
Eu235 Eu 0.52659 0.02831 0.03999 0.0
C236 C 0.53185 0.96944 0.03416 0.0
C237 C 0.45946 0.97086 0.03401 0.0
C238 C 0.50541 0.97715 0.94493 0.0
C239 C 0.4996 0.97047 0.90921 0.0
C240 C 0.48912 0.96023 0.92839 0.0
C241 C 0.53255 1.00436 0.9421 0.0
C242 C 0.54318 0.01453 0.92293 0.0
C243 C 0.52664 0.99782 0.90625 0.0
C244 C 0.49378 0.96656 0.965 0.0
O245 O 0.50466 0.03303 0.99076 0.0
O246 O 0.49895 0.04625 0.02173 0.0
O247 O 0.56033 0.05894 0.01757 0.0
O248 O 0.55554 0.02278 0.99683 0.0
C249 C 0.49707 0.04833 1.00219 0.0
O250 O 0.51642 0.04727 0.06496 0.0
O251 O 0.56157 0.04989 0.06378 0.0
O252 O 0.54636 0.99659 0.04087 0.0
O253 O 0.50998 0.96191 0.02016 0.0
O254 O 0.4624 0.97378 0.0145 0.0
O255 O 0.48308 0.98584 0.04632 0.0
C256 C 0.5705 0.0504 1.00294 0.0
O257 O 0.51406 0.96646 0.97828 0.0
O258 O 0.47723 0.97745 0.97196 0.0
C259 C 0.53952 0.04149 0.09518 0.0
C260 C 0.53245 0.01894 0.13471 0.0
C261 C 0.55384 0.04883 0.1304 0.0
C262 C 0.55727 0.06003 0.11077 0.0
C263 C 0.51873 0.01146 0.09936 0.0
C264 C 0.51512 1.00032 0.11895 0.0
C265 C 0.54247 0.05342 0.07463 0.0
H266 H 0.48651 0.95699 0.89666 0.0
H267 H 0.46816 0.93918 0.9303 0.0
H268 H 0.54533 0.01785 0.95471 0.0
H269 H 0.56386 0.03582 0.92112 0.0
H270 H 0.56732 0.06375 0.14225 0.0
H271 H 0.5735 0.08323 0.10779 0.0
H272 H 0.50505 0.9967 0.08748 0.0
H273 H 0.49874 0.97712 0.12178 0.0
Tb274 Tb 0.0236 0.52547 0.99061 0.0
Eu275 Eu 0.99224 0.51042 0.03485 0.0
C276 C 0.05301 0.57163 0.02555 0.0
C277 C 0.05011 0.5012 0.02561 0.0
C278 C 0.0301 0.53007 0.93593 0.0
C279 C 0.03331 0.54094 0.90037 0.0
C280 C 0.04722 0.5462 0.91949 0.0
C281 C 0.99884 0.50865 0.93311 0.0
C282 C 0.98495 0.50326 0.91399 0.0
C283 C 1.00203 0.51939 0.89741 0.0
C284 C 0.04455 0.53677 0.95602 0.0
O285 O 0.99053 0.47771 0.99157 0.0
O286 O 0.95676 0.47619 0.01437 0.0
O287 O 0.97538 0.53896 0.01764 0.0
O288 O 0.98022 0.52645 0.98633 0.0
C289 C 0.96322 0.4642 0.99979 0.0
O290 O 0.97822 0.52379 0.061 0.0
O291 O 0.97136 0.47891 0.05966 0.0
O292 O 0.0393 0.55016 0.0388 0.0
O293 O 0.04559 0.56753 1.00642 0.0
O294 O 0.05684 0.51997 0.01039 0.0
O295 O 0.0232 0.48966 0.03401 0.0
C296 C 0.9694 0.5383 0.99835 0.0
O297 O 0.03879 0.55469 0.96585 0.0
O298 O 0.04196 0.51414 0.96709 0.0
C299 C 0.9866 0.50174 0.09103 0.0
C300 C 0.01546 0.50592 0.12916 0.0
C301 C 0.99242 0.47827 0.12215 0.0
C302 C 0.97802 0.47625 0.10331 0.0
C303 C 0.00987 0.52936 0.09798 0.0
C304 C 0.02402 0.53141 0.11686 0.0
C305 C 0.97174 0.49909 0.07092 0.0
H306 H 0.04713 0.55348 0.88788 0.0
H307 H 0.07131 0.56297 0.92146 0.0
H308 H 0.98515 0.49626 0.9457 0.0
H309 H 0.96073 0.48675 0.91219 0.0
H310 H 0.9852 0.45829 0.13136 0.0
H311 H 0.96021 0.4547 0.0983 0.0
H312 H 0.01732 0.54942 0.08883 0.0
H313 H 0.04198 0.55296 0.12175 0.0
Tb314 Tb 0.50084 0.49124 0.03939 0.0
Eu315 Eu 0.48641 0.50516 0.9915 0.0
C316 C 0.49084 0.44635 1.00632 0.0
C317 C 0.55443 0.51978 0.00859 0.0
C318 C 0.4913 0.48353 0.09439 0.0
C319 C 0.47907 0.47037 0.12924 0.0
C320 C 0.49044 0.4666 0.11158 0.0
C321 C 0.47971 0.50372 0.09496 0.0
C322 C 0.46857 0.5077 0.11267 0.0
C323 C 0.46848 0.49134 0.13012 0.0
C324 C 0.50505 0.48042 0.07625 0.0
O325 O 0.4923 0.52909 0.03931 0.0
O326 O 0.50656 0.54827 0.00773 0.0
O327 O 0.44558 0.49856 0.00907 0.0
O328 O 0.45227 0.4665 0.03048 0.0
C329 C 0.50193 0.5514 0.0263 0.0
O330 O 0.49989 0.53498 0.96532 0.0
O331 O 0.45991 0.4911 0.9632 0.0
O332 O 0.47596 0.45746 0.99507 0.0
O333 O 0.50691 0.45928 0.02262 0.0
O334 O 0.54649 0.51847 0.02713 0.0
O335 O 0.53392 0.50957 0.99372 0.0
C336 C 0.43601 0.47939 0.02411 0.0
O337 O 0.48613 0.46068 0.06368 0.0
O338 O 0.52413 0.50504 0.06715 0.0
C339 C 0.4914 0.51104 0.93456 0.0
C340 C 0.51551 0.50531 0.89854 0.0
C341 C 0.51928 0.533 0.90405 0.0
C342 C 0.50729 0.53578 0.92177 0.0
C343 C 0.48774 0.48333 0.92918 0.0
C344 C 0.49953 0.48049 0.91136 0.0
C345 C 0.47949 0.51492 0.95344 0.0
H346 H 0.4796 0.4576 0.14241 0.0
H347 H 0.49914 0.45082 0.11145 0.0
H348 H 0.47971 0.51672 0.0818 0.0
H349 H 0.4602 0.52374 0.11275 0.0
H350 H 0.5311 0.55251 0.89448 0.0
H351 H 0.51047 0.5574 0.92551 0.0
H352 H 0.47588 0.46384 0.93876 0.0
H353 H 0.49648 0.45889 0.90773 0.0
Tb354 Tb 0.17543 0.3254 0.33067 0.0
Eu355 Eu 0.19749 0.36305 0.37195 0.0
C356 C 0.20272 0.30443 0.3677 0.0
C357 C 0.12985 0.30453 0.36661 0.0
C358 C 0.17277 0.31414 0.2775 0.0
C359 C 0.18796 0.31232 0.24408 0.0
C360 C 0.1765 0.29833 0.26244 0.0
C361 C 0.18054 0.34408 0.27401 0.0
C362 C 0.19189 0.35803 0.25571 0.0
C363 C 0.19587 0.34236 0.24056 0.0
C364 C 0.16438 0.30067 0.29752 0.0
O365 O 0.15478 0.35477 0.32831 0.0
O366 O 0.18704 0.39144 0.34978 0.0
O367 O 0.23992 0.38031 0.35324 0.0
O368 O 0.21482 0.36814 0.32281 0.0
C369 C 0.16632 0.3819 0.33497 0.0
O370 O 0.18992 0.38549 0.39617 0.0
O371 O 0.23306 0.38385 0.39532 0.0
O372 O 0.19526 0.31917 0.37959 0.0
O373 O 0.20338 0.30958 0.34838 0.0
O374 O 0.13959 0.29644 0.35136 0.0
O375 O 0.14618 0.33106 0.37431 0.0
C376 C 0.24003 0.38368 0.33376 0.0
O377 O 0.18804 0.30517 0.30928 0.0
O378 O 0.14427 0.30529 0.30646 0.0
C379 C 0.21138 0.37792 0.42686 0.0
C380 C 0.19955 0.35227 0.46559 0.0
C381 C 0.18743 0.37103 0.4587 0.0
C382 C 0.19342 0.38385 0.43954 0.0
C383 C 0.22408 0.35965 0.43395 0.0
C384 C 0.21831 0.34707 0.45314 0.0
C385 C 0.21517 0.38935 0.40604 0.0
H386 H 0.19054 0.29964 0.23263 0.0
H387 H 0.1711 0.27535 0.265 0.0
H388 H 0.17847 0.35688 0.28561 0.0
H389 H 0.19819 0.38129 0.25355 0.0
H390 H 0.1731 0.3756 0.46808 0.0
H391 H 0.18344 0.39789 0.43447 0.0
H392 H 0.2379 0.35445 0.42455 0.0
H393 H 0.22767 0.33245 0.458 0.0
Tb394 Tb 0.69487 0.86147 0.32409 0.0
Eu395 Eu 0.66394 0.8441 0.36848 0.0
C396 C 0.72409 0.90645 0.35971 0.0
C397 C 0.72274 0.83705 0.35832 0.0
C398 C 0.70036 0.86671 0.26935 0.0
C399 C 0.69345 0.88279 0.23576 0.0
C400 C 0.70849 0.88915 0.25454 0.0
C401 C 0.67698 0.83773 0.26509 0.0
C402 C 0.66213 0.8313 0.24627 0.0
C403 C 0.67013 0.85379 0.23143 0.0
C404 C 0.71517 0.87431 0.2894 0.0
O405 O 0.66203 0.81361 0.32366 0.0
O406 O 0.62899 0.80939 0.34801 0.0
O407 O 0.64524 0.87187 0.35204 0.0
O408 O 0.65077 0.86105 0.32041 0.0
C409 C 0.63533 0.79882 0.33256 0.0
O410 O 0.64274 0.81132 0.39257 0.0
O411 O 0.65061 0.85631 0.39544 0.0
O412 O 0.71068 0.88443 0.37266 0.0
O413 O 0.71627 0.90299 0.34058 0.0
O414 O 0.72877 0.85636 0.34348 0.0
O415 O 0.69579 0.8244 0.36675 0.0
C416 C 0.63929 0.87182 0.33276 0.0
O417 O 0.70789 0.89104 0.2994 0.0
O418 O 0.71522 0.85271 0.30047 0.0
C419 C 0.65702 0.83176 0.42449 0.0
C420 C 0.68339 0.83374 0.46311 0.0
C421 C 0.65214 0.81321 0.45875 0.0
C422 C 0.63907 0.81229 0.43961 0.0
C423 C 0.68842 0.85183 0.42864 0.0
C424 C 0.70144 0.85292 0.4478 0.0
C425 C 0.64292 0.83073 0.40445 0.0
H426 H 0.70024 0.90048 0.22456 0.0
H427 H 0.7263 0.91169 0.25758 0.0
H428 H 0.66996 0.82011 0.27634 0.0
H429 H 0.64398 0.80883 0.24343 0.0
H430 H 0.63758 0.79836 0.47027 0.0
H431 H 0.61485 0.79653 0.43666 0.0
H432 H 0.70282 0.8668 0.4171 0.0
H433 H 0.72566 0.86875 0.45064 0.0
Tb434 Tb 0.16711 0.82152 0.37277 0.0
Eu435 Eu 0.15147 0.83529 0.3254 0.0
C436 C 0.15513 0.77612 0.33991 0.0
C437 C 0.21997 0.84939 0.3414 0.0
C438 C 0.15662 0.81282 0.42737 0.0
C439 C 0.14387 0.79981 0.46215 0.0
C440 C 0.15671 0.79688 0.44487 0.0
C441 C 0.14266 0.83114 0.42722 0.0
C442 C 0.13004 0.83429 0.44455 0.0
C443 C 0.13083 0.81892 0.4623 0.0
C444 C 0.1715 0.81049 0.40953 0.0
O445 O 0.15933 0.85979 0.37299 0.0
O446 O 0.17329 0.87869 0.34138 0.0
O447 O 0.1114 0.82938 0.34348 0.0
O448 O 0.11814 0.79719 0.36472 0.0
C449 C 0.16918 0.8821 0.35999 0.0
O450 O 0.1619 0.8655 0.29961 0.0
O451 O 0.12568 0.81986 0.29687 0.0
O452 O 0.13947 0.78711 0.32938 0.0
O453 O 0.17282 0.78978 0.35552 0.0
O454 O 0.21262 0.84802 0.3601 0.0
O455 O 0.19903 0.83971 0.32673 0.0
C456 C 0.10195 0.81024 0.35854 0.0
O457 O 0.15343 0.79053 0.39681 0.0
O458 O 0.1901 0.83549 0.40059 0.0
C459 C 0.1566 0.84293 0.26862 0.0
C460 C 0.18168 0.84076 0.23207 0.0
C461 C 0.1496 0.83041 0.23355 0.0
C462 C 0.13726 0.83154 0.25159 0.0
C463 C 0.1886 0.853 0.26727 0.0
C464 C 0.20099 0.85202 0.24922 0.0
C465 C 0.14328 0.84482 0.28745 0.0
H466 H 0.14512 0.78788 0.47559 0.0
H467 H 0.16721 0.78251 0.44527 0.0
H468 H 0.14189 0.84333 0.41379 0.0
H469 H 0.11982 0.84888 0.44409 0.0
H470 H 0.13403 0.82189 0.22064 0.0
H471 H 0.11255 0.82373 0.25219 0.0
H472 H 0.20413 0.86181 0.28016 0.0
H473 H 0.2257 0.85982 0.24875 0.0
Tb474 Tb 0.83271 0.65406 0.66355 0.0
Eu475 Eu 0.8524 0.69039 0.70579 0.0
C476 C 0.85873 0.63152 0.70017 0.0
C477 C 0.78617 0.63113 0.69952 0.0
C478 C 0.83688 0.6477 0.61071 0.0
C479 C 0.85123 0.64717 0.57682 0.0
C480 C 0.83718 0.63191 0.59438 0.0
C481 C 0.85124 0.67888 0.60943 0.0
C482 C 0.86509 0.69407 0.59195 0.0
C483 C 0.86505 0.6784 0.5754 0.0
C484 C 0.82341 0.63226 0.62955 0.0
O485 O 0.831 0.69509 0.657 0.0
O486 O 0.82307 0.70648 0.68789 0.0
O487 O 0.8868 0.72124 0.68358 0.0
O488 O 0.88242 0.68539 0.66271 0.0
C489 C 0.8219 0.70919 0.66841 0.0
O490 O 0.84161 0.70918 0.73057 0.0
O491 O 0.88732 0.71304 0.72939 0.0
O492 O 0.87105 0.65788 0.70806 0.0
O493 O 0.83901 0.6242 0.68484 0.0
O494 O 0.78951 0.63328 0.68004 0.0
O495 O 0.809 0.6476 0.71196 0.0
C496 C 0.89704 0.71292 0.66886 0.0
O497 O 0.84337 0.6314 0.64277 0.0
O498 O 0.80469 0.63993 0.6374 0.0
C499 C 0.86559 0.70493 0.76083 0.0
C500 C 0.85998 0.68361 0.80057 0.0
C501 C 0.88113 0.7134 0.7958 0.0
C502 C 0.88384 0.72399 0.77606 0.0
C503 C 0.84505 0.67499 0.76546 0.0
C504 C 0.84216 0.66446 0.78517 0.0
C505 C 0.86793 0.71622 0.74016 0.0
H506 H 0.85074 0.63455 0.56423 0.0
H507 H 0.82658 0.60787 0.5952 0.0
H508 H 0.8519 0.69157 0.62201 0.0
H509 H 0.87597 0.71814 0.5914 0.0
H510 H 0.89497 0.72868 0.80739 0.0
H511 H 0.89991 0.74711 0.77271 0.0
H512 H 0.83103 0.65984 0.75384 0.0
H513 H 0.82593 0.64134 0.78839 0.0
Tb514 Tb 0.35218 0.18073 0.65892 0.0
Eu515 Eu 0.32108 0.16645 0.70317 0.0
C516 C 0.38198 0.22777 0.69264 0.0
C517 C 0.37634 0.15412 0.69414 0.0
C518 C 0.36007 0.18857 0.60408 0.0
C519 C 0.3554 0.17234 0.57017 0.0
C520 C 0.36906 0.17623 0.58932 0.0
C521 C 0.33746 0.1974 0.59932 0.0
C522 C 0.32399 0.19379 0.58008 0.0
C523 C 0.33259 0.1809 0.56538 0.0
C524 C 0.37351 0.1907 0.62445 0.0
O525 O 0.30581 0.14303 0.65451 0.0
O526 O 0.29795 0.12355 0.68635 0.0
O527 O 0.28827 0.17436 0.68237 0.0
O528 O 0.32376 0.20251 0.65893 0.0
C529 C 0.29123 0.1207 0.66713 0.0
O530 O 0.30363 0.13583 0.72869 0.0
O531 O 0.30467 0.17849 0.72892 0.0
O532 O 0.35513 0.21547 0.70128 0.0
O533 O 0.38739 0.2142 0.67848 0.0
O534 O 0.36803 0.15261 0.67519 0.0
O535 O 0.366 0.16537 0.70693 0.0
C536 C 0.29658 0.19263 0.66678 0.0
O537 O 0.37437 0.21121 0.63557 0.0
O538 O 0.3644 0.16552 0.63424 0.0
C539 C 0.31497 0.15924 0.75948 0.0
C540 C 0.34322 0.16533 0.79794 0.0
C541 C 0.31251 0.14294 0.79419 0.0
C542 C 0.29853 0.13997 0.77514 0.0
C543 C 0.34569 0.18153 0.76309 0.0
C544 C 0.35963 0.18464 0.78217 0.0
C545 C 0.30046 0.15472 0.73929 0.0
H546 H 0.36267 0.16259 0.55908 0.0
H547 H 0.38639 0.1692 0.59269 0.0
H548 H 0.32989 0.2067 0.61052 0.0
H549 H 0.30628 0.20035 0.57683 0.0
H550 H 0.29914 0.12793 0.80604 0.0
H551 H 0.2749 0.12248 0.7726 0.0
H552 H 0.35898 0.19634 0.75112 0.0
H553 H 0.38341 0.2019 0.78452 0.0
Tb554 Tb 0.83617 0.15624 0.70938 0.0
Eu555 Eu 0.82152 0.1693 0.66158 0.0
C556 C 0.82252 0.10999 0.67603 0.0
C557 C 0.88888 0.18287 0.67908 0.0
C558 C 0.83318 0.15243 0.76468 0.0
C559 C 0.84104 0.16061 0.80032 0.0
C560 C 0.85084 0.15577 0.78238 0.0
C561 C 0.80553 0.15411 0.76517 0.0
C562 C 0.79556 0.15869 0.78314 0.0
C563 C 0.81323 0.16204 0.80094 0.0
C564 C 0.84351 0.1466 0.74599 0.0
O565 O 0.84874 0.20321 0.70627 0.0
O566 O 0.81848 0.20392 0.679 0.0
O567 O 0.77503 0.14098 0.67583 0.0
O568 O 0.79186 0.1551 0.70801 0.0
C569 C 0.83527 0.21599 0.69521 0.0
O570 O 0.83224 0.19964 0.63559 0.0
O571 O 0.79832 0.15317 0.63266 0.0
O572 O 0.83221 0.13157 0.66259 0.0
O573 O 0.81689 0.11397 0.6942 0.0
O574 O 0.87651 0.16325 0.69364 0.0
O575 O 0.87294 0.19337 0.66847 0.0
C576 C 0.76951 0.1415 0.6947 0.0
O577 O 0.82175 0.1274 0.73433 0.0
O578 O 0.8635 0.16975 0.73599 0.0
C579 C 0.83012 0.17747 0.60487 0.0
C580 C 0.85737 0.17606 0.56901 0.0
C581 C 0.85253 0.20019 0.57298 0.0
C582 C 0.83901 0.20082 0.59065 0.0
C583 C 0.83544 0.15358 0.60115 0.0
C584 C 0.84878 0.15284 0.58342 0.0
C585 C 0.81526 0.1784 0.62331 0.0
H586 H 0.85505 0.16285 0.81377 0.0
H587 H 0.87218 0.15448 0.78235 0.0
H588 H 0.79161 0.15185 0.75167 0.0
H589 H 0.77425 0.16006 0.78305 0.0
H590 H 0.85853 0.21831 0.56219 0.0
H591 H 0.83523 0.21952 0.59313 0.0
H592 H 0.82917 0.13536 0.6119 0.0
H593 H 0.8525 0.13409 0.58104 0.0
C594 C 0.28985 0.86626 0.07923 0.0
C595 C 0.28655 0.83793 0.08349 0.0
C596 C 0.31803 0.88962 0.0723 0.0
C597 C 0.3434 0.8844 0.06956 0.0
C598 C 0.34054 0.85617 0.07497 0.0
C599 C 0.31221 0.83336 0.08188 0.0
C600 C 0.32008 0.91938 0.06694 0.0
C601 C 0.36688 0.84951 0.07248 0.0
C602 C 0.40369 0.93004 0.03083 0.0
C603 C 0.42908 0.94956 0.04276 0.0
C604 C 0.37551 0.90919 0.03931 0.0
C605 C 0.37246 0.90782 0.06024 0.0
C606 C 0.39777 0.92788 0.0723 0.0
C607 C 0.42564 0.94837 0.06347 0.0
C608 C 0.34916 0.88817 0.02588 0.0
C609 C 0.39564 0.92735 0.09463 0.0
H610 H 0.26983 0.86959 0.08019 0.0
H611 H 0.30945 0.81133 0.08507 0.0
H612 H 0.34133 0.93755 0.07389 0.0
H613 H 0.32172 0.9232 0.05058 0.0
H614 H 0.29956 0.92077 0.0717 0.0
H615 H 0.36164 0.82712 0.07855 0.0
H616 H 0.3716 0.85065 0.05644 0.0
H617 H 0.3884 0.8664 0.08005 0.0
H618 H 0.40596 0.93069 0.01486 0.0
H619 H 0.44491 0.96337 0.07294 0.0
H620 H 0.32798 0.88996 0.02819 0.0
H621 H 0.34364 0.86489 0.02969 0.0
H622 H 0.35473 0.89268 0.00989 0.0
H623 H 0.3753 0.9297 0.09846 0.0
H624 H 0.41682 0.94534 0.10184 0.0
H625 H 0.39214 0.90563 0.10097 0.0
C626 C 0.19634 0.50273 0.08293 0.0
C627 C 0.19522 0.47503 0.08304 0.0
C628 C 0.17278 0.50694 0.07315 0.0
C629 C 0.14797 0.48284 0.06314 0.0
C630 C 0.14715 0.4549 0.06302 0.0
C631 C 0.17081 0.4513 0.07313 0.0
C632 C 0.17418 0.53693 0.07377 0.0
C633 C 0.12126 0.42882 0.05233 0.0
C634 C 0.07201 0.48419 0.05445 0.0
C635 C 0.07435 0.4949 0.0347 0.0
C636 C 0.09587 0.4802 0.06389 0.0
C637 C 0.12244 0.48663 0.05321 0.0
C638 C 0.12466 0.49681 0.03313 0.0
C639 C 0.10064 0.50106 0.02415 0.0
C640 C 0.0929 0.46965 0.08541 0.0
C641 C 0.1525 0.50344 0.02123 0.0
H642 H 0.21546 0.52086 0.09072 0.0
H643 H 0.17047 0.43001 0.0733 0.0
H644 H 0.17406 0.5458 0.05842 0.0
H645 H 0.15333 0.53461 0.08094 0.0
H646 H 0.19519 0.55336 0.08207 0.0
H647 H 0.12473 0.40894 0.05311 0.0
H648 H 0.09876 0.4228 0.05894 0.0
H649 H 0.11955 0.43496 0.03645 0.0
H650 H 0.05188 0.47969 0.06276 0.0
H651 H 0.10248 0.50927 0.00886 0.0
H652 H 0.11241 0.48642 0.09456 0.0
H653 H 0.09432 0.44871 0.08689 0.0
H654 H 0.07072 0.46569 0.0916 0.0
H655 H 0.17378 0.52149 0.02827 0.0
H656 H 0.15019 0.5103 1.00559 0.0
H657 H 0.15578 0.48351 0.02116 0.0
C658 C 0.51178 0.70328 0.06138 0.0
C659 C 0.54209 0.72257 0.06809 0.0
C660 C 0.50424 0.67563 0.05356 0.0
C661 C 0.52763 0.66716 0.05268 0.0
C662 C 0.55844 0.68693 0.05921 0.0
C663 C 0.56529 0.71449 0.06681 0.0
C664 C 0.47119 0.65525 0.04666 0.0
C665 C 0.58399 0.67868 0.05862 0.0
C666 C 0.50432 0.58505 0.05284 0.0
C667 C 0.50732 0.58078 0.0328 0.0
C668 C 0.51048 0.61295 0.05944 0.0
C669 C 0.51973 0.63719 0.04566 0.0
C670 C 0.52227 0.63296 0.02536 0.0
C671 C 0.5161 0.60482 0.01917 0.0
C672 C 0.50759 0.61657 0.08123 0.0
C673 C 0.53188 0.65826 0.01023 0.0
H674 H 0.49398 0.70975 0.06259 0.0
H675 H 0.58867 0.72965 0.07212 0.0
H676 H 0.47055 0.6486 0.03113 0.0
H677 H 0.46132 0.63461 0.05607 0.0
H678 H 0.45618 0.66582 0.04738 0.0
H679 H 0.60687 0.69695 0.06369 0.0
H680 H 0.57835 0.6587 0.06828 0.0
H681 H 0.58589 0.67293 0.04327 0.0
H682 H 0.49755 0.56667 0.06351 0.0
H683 H 0.5184 0.60176 1.00366 0.0
H684 H 0.49107 0.62518 0.083 0.0
H685 H 0.5304 0.63311 0.08767 0.0
H686 H 0.49947 0.59533 0.08994 0.0
H687 H 0.51615 0.66809 0.01044 0.0
H688 H 0.53159 0.65105 0.99488 0.0
H689 H 0.55564 0.67611 0.01409 0.0
C690 C 0.84401 0.29369 0.97435 0.0
C691 C 0.82434 0.29175 0.95798 0.0
C692 C 0.86652 0.3215 0.98154 0.0
C693 C 0.86929 0.34799 0.97215 0.0
C694 C 0.84904 0.34602 0.95577 0.0
C695 C 0.82686 0.31792 0.94889 0.0
C696 C 0.88766 0.32255 0.99897 0.0
C697 C 0.85097 0.37359 0.94541 0.0
C698 C 0.90964 0.42015 1.00075 0.0
C699 C 0.93923 0.43448 0.99266 0.0
C700 C 0.88675 0.39207 0.99426 0.0
C701 C 0.8935 0.37775 0.97932 0.0
C702 C 0.9233 0.39203 0.97109 0.0
C703 C 0.94573 0.42019 0.9778 0.0
C704 C 0.85525 0.37775 1.00334 0.0
C705 C 0.93149 0.37754 0.95516 0.0
H706 H 0.84215 0.27338 0.98122 0.0
H707 H 0.81147 0.31628 0.93628 0.0
H708 H 0.91215 0.33429 0.99443 0.0
H709 H 0.88574 0.33528 0.01117 0.0
H710 H 0.88219 0.29999 1.00482 0.0
H711 H 0.83315 0.36824 0.93315 0.0
H712 H 0.84793 0.38751 0.95625 0.0
H713 H 0.87426 0.38716 0.93916 0.0
H714 H 0.90423 0.43091 0.0122 0.0
H715 H 0.96845 0.43097 0.97141 0.0
H716 H 0.85011 0.35587 0.01026 0.0
H717 H 0.83702 0.37362 0.99157 0.0
H718 H 0.85366 0.39173 0.01484 0.0
H719 H 0.92848 0.35562 0.9607 0.0
H720 H 0.95575 0.39138 0.95041 0.0
H721 H 0.91557 0.37344 0.94194 0.0
C722 C 0.73203 0.61121 0.97818 0.0
C723 C 0.74223 0.59108 0.97375 0.0
C724 C 0.70256 0.60109 0.98581 0.0
C725 C 0.68314 0.57017 0.98906 0.0
C726 C 0.69392 0.5499 0.98524 0.0
C727 C 0.72331 0.56064 0.97748 0.0
C728 C 0.69172 0.62331 0.98961 0.0
C729 C 0.67389 0.51678 0.98847 0.0
C730 C 0.61067 0.54107 0.01914 0.0
C731 C 0.58758 0.53323 1.00396 0.0
C732 C 0.6421 0.55367 0.01458 0.0
C733 C 0.65044 0.55862 0.99441 0.0
C734 C 0.62728 0.55121 0.97907 0.0
C735 C 0.59618 0.53856 0.98402 0.0
C736 C 0.66629 0.56121 0.03127 0.0
C737 C 0.63529 0.55624 0.95736 0.0
H738 H 0.74694 0.63474 0.97526 0.0
H739 H 0.7312 0.54517 0.9737 0.0
H740 H 0.67246 0.62009 0.97887 0.0
H741 H 0.68257 0.61973 1.00477 0.0
H742 H 0.7106 0.64664 0.98806 0.0
H743 H 0.68686 0.50439 0.98661 0.0
H744 H 0.66449 0.51183 1.00361 0.0
H745 H 0.65382 0.50838 0.97765 0.0
H746 H 0.60422 0.53708 0.03457 0.0
H747 H 0.57857 0.53287 0.97216 0.0
H748 H 0.68432 0.58488 0.02991 0.0
H749 H 0.67808 0.54757 0.03025 0.0
H750 H 0.65614 0.5572 0.04617 0.0
H751 H 0.65246 0.57988 0.95448 0.0
H752 H 0.6146 0.55038 0.94728 0.0
H753 H 0.6461 0.5426 0.95352 0.0
C754 C 0.43286 0.15593 0.95383 0.0
C755 C 0.45839 0.18385 0.9502 0.0
C756 C 0.43711 0.13169 0.96049 0.0
C757 C 0.46762 0.1357 0.96358 0.0
C758 C 0.49334 0.16343 0.95854 0.0
C759 C 0.48834 0.18715 0.95185 0.0
C760 C 0.40908 0.1024 0.96542 0.0
C761 C 0.52623 0.16867 0.96146 0.0
C762 C 0.48404 0.08988 1.00379 0.0
C763 C 0.48775 0.06962 0.99251 0.0
C764 C 0.47679 0.11105 0.99456 0.0
C765 C 0.47296 0.11189 0.97354 0.0
C766 C 0.47585 0.09101 0.96211 0.0
C767 C 0.48328 0.07021 0.97171 0.0
C768 C 0.47398 0.13303 0.00727 0.0
C769 C 0.47177 0.09105 0.93971 0.0
H770 H 0.40976 0.15364 0.95267 0.0
H771 H 0.50795 0.20886 0.94893 0.0
H772 H 0.41071 0.08374 0.95898 0.0
H773 H 0.40815 0.09871 0.98181 0.0
H774 H 0.3871 0.10178 0.95985 0.0
H775 H 0.54339 0.19062 0.95523 0.0
H776 H 0.53181 0.16774 0.97759 0.0
H777 H 0.52881 0.15099 0.95432 0.0
H778 H 0.4874 0.08963 0.01984 0.0
H779 H 0.48585 0.05454 0.96281 0.0
H780 H 0.45109 0.13204 1.00432 0.0
H781 H 0.49205 0.15597 1.00339 0.0
H782 H 0.47657 0.12881 0.02343 0.0
H783 H 0.44919 0.08994 0.93525 0.0
H784 H 0.47279 0.07215 0.93308 0.0
H785 H 0.49023 0.11211 0.93331 0.0
C786 C 0.70906 0.18051 0.94126 0.0
C787 C 0.73768 0.18822 0.95105 0.0
C788 C 0.68158 0.15595 0.94789 0.0
C789 C 0.68288 0.13861 0.96463 0.0
C790 C 0.71215 0.1453 0.9737 0.0
C791 C 0.73914 0.17009 0.96685 0.0
C792 C 0.65099 0.14975 0.93777 0.0
C793 C 0.71481 0.12731 0.99139 0.0
C794 C 0.61396 0.10257 0.9985 0.0
C795 C 0.59931 0.07264 0.99302 0.0
C796 C 0.6408 0.12412 0.9892 0.0
C797 C 0.65367 0.11573 0.97402 0.0
C798 C 0.63899 0.0856 0.96831 0.0
C799 C 0.612 0.06445 0.97784 0.0
C800 C 0.65546 0.15599 0.99569 0.0
C801 C 0.65194 0.07567 0.95225 0.0
H802 H 0.70802 0.19473 0.92913 0.0
H803 H 0.76139 0.17608 0.9743 0.0
H804 H 0.63683 0.12576 0.93454 0.0
H805 H 0.63765 0.15547 0.94785 0.0
H806 H 0.65415 0.16286 0.92364 0.0
H807 H 0.73932 0.13322 0.99529 0.0
H808 H 0.70467 0.13129 1.00447 0.0
H809 H 0.70155 0.10319 0.98836 0.0
H810 H 0.60437 0.10933 0.01007 0.0
H811 H 0.60091 0.04146 0.97341 0.0
H812 H 0.65694 0.1708 0.98275 0.0
H813 H 0.67949 0.16327 1.00158 0.0
H814 H 0.64223 0.15905 0.00738 0.0
H815 H 0.65394 0.08885 0.93832 0.0
H816 H 0.63729 0.05169 0.94905 0.0
H817 H 0.67565 0.07975 0.95685 0.0
C818 C 0.87049 0.61797 0.95769 0.0
C819 C 0.83972 0.59555 0.95563 0.0
C820 C 0.89432 0.61073 0.96215 0.0
C821 C 0.88678 0.58041 0.96461 0.0
C822 C 0.85591 0.55779 0.96095 0.0
C823 C 0.83274 0.56572 0.95644 0.0
C824 C 0.92707 0.63542 0.96561 0.0
C825 C 0.84687 0.52523 0.96332 0.0
C826 C 0.9472 0.55454 0.9691 0.0
C827 C 0.94942 0.5505 0.9898 0.0
C828 C 0.92783 0.56544 0.96066 0.0
C829 C 0.91006 0.57213 0.97321 0.0
C830 C 0.91269 0.56871 0.99413 0.0
C831 C 0.93247 0.55807 1.00219 0.0
C832 C 0.92581 0.56907 0.93831 0.0
C833 C 0.89385 0.57542 0.00799 0.0
H834 H 0.87553 0.64101 0.95705 0.0
H835 H 0.80874 0.54862 0.95466 0.0
H836 H 0.93313 0.63686 0.98179 0.0
H837 H 0.9438 0.63079 0.95817 0.0
H838 H 0.92988 0.65732 0.9601 0.0
H839 H 0.8226 0.51057 0.95797 0.0
H840 H 0.8626 0.52019 0.95505 0.0
H841 H 0.84913 0.51974 0.97927 0.0
H842 H 0.96052 0.54908 0.95941 0.0
H843 H 0.93414 0.55508 0.01818 0.0
H844 H 0.92939 0.59168 0.93419 0.0
H845 H 0.9023 0.55295 0.93257 0.0
H846 H 0.94317 0.5654 0.93077 0.0
H847 H 0.89794 0.59851 1.00527 0.0
H848 H 0.89953 0.57277 0.02391 0.0
H849 H 0.86874 0.56029 1.00504 0.0
C850 C 0.49293 0.30202 0.96704 0.0
C851 C 0.46231 0.279 0.96549 0.0
C852 C 0.49977 0.32938 0.97501 0.0
C853 C 0.47535 0.33349 0.98173 0.0
C854 C 0.44448 0.30975 0.98085 0.0
C855 C 0.43833 0.2828 0.97259 0.0
C856 C 0.53289 0.35424 0.97546 0.0
C857 C 0.41784 0.31313 0.98804 0.0
C858 C 0.49275 0.39894 0.01409 0.0
C859 C 0.48899 0.41828 1.00016 0.0
C860 C 0.48882 0.37133 0.0083 0.0
C861 C 0.48153 0.36326 0.98809 0.0
C862 C 0.47883 0.38322 0.9739 0.0
C863 C 0.48235 0.41035 0.98013 0.0
C864 C 0.49154 0.35044 0.02387 0.0
C865 C 0.47161 0.37571 0.95214 0.0
H866 H 0.51129 0.29881 0.9614 0.0
H867 H 0.41473 0.26471 0.97141 0.0
H868 H 0.53488 0.37253 0.96511 0.0
H869 H 0.53982 0.36356 0.99057 0.0
H870 H 0.54941 0.34675 0.97109 0.0
H871 H 0.39572 0.29181 0.98788 0.0
H872 H 0.42307 0.32161 1.0034 0.0
H873 H 0.41457 0.32964 0.9784 0.0
H874 H 0.4978 0.40496 0.0296 0.0
H875 H 0.47984 0.42541 0.96924 0.0
H876 H 0.5086 0.34369 0.01946 0.0
H877 H 0.46885 0.3299 0.02506 0.0
H878 H 0.49877 0.36058 0.03876 0.0
H879 H 0.4886 0.36979 0.94641 0.0
H880 H 0.47209 0.39442 0.94285 0.0
H881 H 0.44828 0.35606 0.95033 0.0
C882 C 0.16052 0.73671 0.06503 0.0
C883 C 0.19107 0.74255 0.06943 0.0
C884 C 0.13829 0.70938 0.05713 0.0
C885 C 0.1469 0.68744 0.05341 0.0
C886 C 0.17799 0.69357 0.05743 0.0
C887 C 0.19966 0.72104 0.06545 0.0
C888 C 0.10543 0.70377 0.05313 0.0
C889 C 0.18818 0.67087 0.05365 0.0
C890 C 0.0835 0.60654 0.05298 0.0
C891 C 0.07729 0.60126 0.03252 0.0
C892 C 0.10608 0.6344 0.05993 0.0
C893 C 0.1231 0.65766 0.04612 0.0
C894 C 0.11713 0.65249 0.02545 0.0
C895 C 0.09427 0.6244 0.0189 0.0
C896 C 0.11159 0.63896 0.0821 0.0
C897 C 0.13488 0.67666 0.01026 0.0
H898 H 0.15405 0.75353 0.06795 0.0
H899 H 0.22325 0.72554 0.06904 0.0
H900 H 0.09823 0.69774 0.03737 0.0
H901 H 0.08938 0.68471 0.06252 0.0
H902 H 0.10272 0.72344 0.05625 0.0
H903 H 0.21351 0.67966 0.05656 0.0
H904 H 0.17553 0.65086 0.06333 0.0
H905 H 0.18238 0.66364 0.038 0.0
H906 H 0.07056 0.58892 0.06368 0.0
H907 H 0.08976 0.6206 1.00307 0.0
H908 H 0.10731 0.65729 0.08629 0.0
H909 H 0.13615 0.64559 0.0863 0.0
H910 H 0.09641 0.61862 0.09088 0.0
H911 H 0.13112 0.69602 0.01222 0.0
H912 H 0.1278 0.669 0.99474 0.0
H913 H 0.16013 0.68453 0.01251 0.0
C914 C 0.31778 0.49236 0.0939 0.0
C915 C 0.28941 0.46609 0.09423 0.0
C916 C 0.34291 0.49389 0.08406 0.0
C917 C 0.33916 0.4686 0.07412 0.0
C918 C 0.31108 0.44145 0.07558 0.0
C919 C 0.28651 0.44052 0.08575 0.0
C920 C 0.37273 0.52304 0.08325 0.0
C921 C 0.30622 0.414 0.06523 0.0
C922 C 0.38752 0.48274 0.02872 0.0
C923 C 0.41028 0.47567 0.03632 0.0
C924 C 0.36397 0.4802 0.04085 0.0
C925 C 0.36373 0.47106 0.06111 0.0
C926 C 0.38691 0.46427 0.06889 0.0
C927 C 0.40969 0.46639 0.05637 0.0
C928 C 0.33936 0.48736 0.03203 0.0
C929 C 0.38803 0.45531 0.09053 0.0
H930 H 0.31959 0.51208 0.10039 0.0
H931 H 0.26422 0.42046 0.08582 0.0
H932 H 0.39299 0.51949 0.08692 0.0
H933 H 0.37549 0.53276 0.06793 0.0
H934 H 0.37313 0.53939 0.09365 0.0
H935 H 0.28402 0.39413 0.06915 0.0
H936 H 0.30602 0.41789 0.04887 0.0
H937 H 0.32559 0.4092 0.06915 0.0
H938 H 0.38804 0.49008 0.0133 0.0
H939 H 0.4276 0.46146 0.0625 0.0
H940 H 0.33997 0.50605 0.04001 0.0
H941 H 0.31602 0.46789 0.03391 0.0
H942 H 0.34244 0.49352 0.01594 0.0
H943 H 0.39152 0.47373 0.10013 0.0
H944 H 0.40703 0.44979 0.09405 0.0
H945 H 0.36566 0.43576 0.09446 0.0
C946 C 0.58045 0.84464 0.06374 0.0
C947 C 0.56175 0.82537 0.07861 0.0
C948 C 0.57907 0.87071 0.0582 0.0
C949 C 0.55841 0.8775 0.06779 0.0
C950 C 0.54102 0.85901 0.08377 0.0
C951 C 0.54298 0.83312 0.08901 0.0
C952 C 0.59824 0.88993 0.04125 0.0
C953 C 0.51875 0.86541 0.0944 0.0
C954 C 0.56232 0.95303 0.05797 0.0
C955 C 0.53918 0.94632 0.04289 0.0
C956 C 0.56894 0.93091 0.0663 0.0
C957 C 0.55196 0.90145 0.05942 0.0
C958 C 0.52858 0.89459 0.04425 0.0
C959 C 0.52253 0.91705 0.03618 0.0
C960 C 0.59407 0.93903 0.08241 0.0
C961 C 0.50984 0.86343 0.03652 0.0
H962 H 0.59531 0.83867 0.05599 0.0
H963 H 0.52855 0.81803 0.1005 0.0
H964 H 0.58279 0.88749 0.02801 0.0
H965 H 0.61016 0.91373 0.04522 0.0
H966 H 0.61592 0.88377 0.03711 0.0
H967 H 0.51015 0.85126 0.10807 0.0
H968 H 0.52998 0.88911 0.09854 0.0
H969 H 0.49852 0.8612 0.0843 0.0
H970 H 0.57528 0.97555 0.06328 0.0
H971 H 0.50456 0.91153 0.02458 0.0
H972 H 0.61229 0.9341 0.07759 0.0
H973 H 0.58429 0.92535 0.09607 0.0
H974 H 0.60508 0.9629 0.08618 0.0
H975 H 0.52548 0.8562 0.0303 0.0
H976 H 0.49233 0.86174 0.02477 0.0
H977 H 0.49764 0.84767 0.0489 0.0
C978 C 0.98535 0.1747 0.42473 0.0
C979 C 0.95731 0.17375 0.41842 0.0
C980 C 0.01393 0.19736 0.41783 0.0
C981 C 0.01442 0.21939 0.40402 0.0
C982 C 0.9861 0.2192 0.39837 0.0
C983 C 0.95794 0.19641 0.40566 0.0
C984 C 0.04342 0.19676 0.42449 0.0
C985 C 0.98529 0.242 0.38368 0.0
C986 C 0.09103 0.28979 0.39361 0.0
C987 C 0.10009 0.28283 0.37601 0.0
C988 C 0.06346 0.26943 0.40291 0.0
C989 C 0.04411 0.24132 0.39446 0.0
C990 C 0.05303 0.23417 0.37669 0.0
C991 C 0.08083 0.25488 0.36775 0.0
C992 C 0.05507 0.278 0.42187 0.0
C993 C 0.03313 0.20455 0.36707 0.0
H994 H 0.98468 0.15677 0.43426 0.0
H995 H 0.93611 0.19516 0.40046 0.0
H996 H 0.05283 0.19109 0.41176 0.0
H997 H 0.06131 0.21903 0.42953 0.0
H998 H 0.03958 0.18021 0.43676 0.0
H999 H 0.96191 0.24034 0.38209 0.0
H1000 H 1.00231 0.26479 0.38835 0.0
H1001 H 0.99197 0.23881 0.36888 0.0
H1002 H 0.10565 0.31117 0.40028 0.0
H1003 H 0.08743 0.24911 0.35422 0.0
H1004 H 0.05273 0.26168 0.43399 0.0
H1005 H 0.03229 0.27746 0.41973 0.0
H1006 H 0.07267 0.30055 0.4267 0.0
H1007 H 0.03046 0.18622 0.37761 0.0
H1008 H 0.04309 0.20238 0.35323 0.0
H1009 H 0.00956 0.20162 0.36342 0.0
C1010 C 0.86168 0.83958 0.42509 0.0
C1011 C 0.87108 0.81955 0.41919 0.0
C1012 C 0.83767 0.84221 0.41456 0.0
C1013 C 0.82287 0.82418 0.39787 0.0
C1014 C 0.83256 0.80399 0.39185 0.0
C1015 C 0.85667 0.80196 0.40263 0.0
C1016 C 0.828 0.86404 0.42136 0.0
C1017 C 0.81724 0.78433 0.37421 0.0
C1018 C 0.74196 0.8112 0.38306 0.0
C1019 C 0.74791 0.83186 0.36724 0.0
C1020 C 0.76612 0.8081 0.39294 0.0
C1021 C 0.79693 0.82616 0.38689 0.0
C1022 C 0.80303 0.8465 0.37063 0.0
C1023 C 0.77842 0.84906 0.36095 0.0
C1024 C 0.75876 0.78599 0.41015 0.0
C1025 C 0.83566 0.86614 0.36381 0.0
H1026 H 0.87311 0.853 0.43799 0.0
H1027 H 0.86417 0.78639 0.39834 0.0
H1028 H 0.82998 0.87996 0.40904 0.0
H1029 H 0.80331 0.85205 0.42546 0.0
H1030 H 0.84231 0.87679 0.43437 0.0
H1031 H 0.82791 0.77016 0.37134 0.0
H1032 H 0.79221 0.76971 0.37679 0.0
H1033 H 0.81889 0.79815 0.36066 0.0
H1034 H 0.71847 0.79777 0.388 0.0
H1035 H 0.78326 0.86514 0.34879 0.0
H1036 H 0.77035 0.79787 0.42403 0.0
H1037 H 0.76786 0.77047 0.40754 0.0
H1038 H 0.73343 0.7728 0.41247 0.0
H1039 H 0.85008 0.88102 0.37598 0.0
H1040 H 0.83634 0.88006 0.35048 0.0
H1041 H 0.84644 0.85236 0.36025 0.0
C1042 C 0.18255 0.03523 0.39541 0.0
C1043 C 0.21334 0.05492 0.40107 0.0
C1044 C 0.17438 0.00721 0.38796 0.0
C1045 C 0.19759 0.99869 0.38635 0.0
C1046 C 0.22882 0.01872 0.39185 0.0
C1047 C 0.23632 0.04669 0.39905 0.0
C1048 C 0.14089 0.98657 0.38212 0.0
C1049 C 0.25422 0.01043 0.39044 0.0
C1050 C 0.17394 0.91645 0.38674 0.0
C1051 C 0.1754 0.91171 0.36655 0.0
C1052 C 0.1808 0.94456 0.39333 0.0
C1053 C 0.18917 0.96853 0.37941 0.0
C1054 C 0.19019 0.96383 0.35897 0.0
C1055 C 0.1834 0.9355 0.35279 0.0
C1056 C 0.17957 0.9487 0.41527 0.0
C1057 C 0.19876 0.9888 0.34367 0.0
H1058 H 0.16483 0.04163 0.39718 0.0
H1059 H 0.26016 0.06218 0.40325 0.0
H1060 H 0.13902 0.97951 0.36656 0.0
H1061 H 0.13181 0.96618 0.39176 0.0
H1062 H 0.12595 0.9971 0.38342 0.0
H1063 H 0.27737 0.02872 0.39507 0.0
H1064 H 0.24909 0.9905 0.40003 0.0
H1065 H 0.25523 1.00461 0.37494 0.0
H1066 H 0.16782 0.89827 0.39751 0.0
H1067 H 0.1845 0.93207 0.33716 0.0
H1068 H 0.16331 0.9574 0.41766 0.0
H1069 H 0.20282 0.96537 0.42105 0.0
H1070 H 0.17207 0.92766 0.42412 0.0
H1071 H 0.18307 0.99859 0.34441 0.0
H1072 H 0.19744 0.98126 0.32828 0.0
H1073 H 0.22272 0.00677 0.34691 0.0
C1074 C 0.52596 0.63127 0.29666 0.0
C1075 C 0.49678 0.62679 0.28956 0.0
C1076 C 0.54855 0.65904 0.30385 0.0
C1077 C 0.54201 0.68314 0.30353 0.0
C1078 C 0.51246 0.67862 0.29624 0.0
C1079 C 0.49009 0.6504 0.28953 0.0
C1080 C 0.57939 0.66257 0.31185 0.0
C1081 C 0.50463 0.70372 0.29527 0.0
C1082 C 0.5892 0.74842 0.33778 0.0
C1083 C 0.61165 0.76924 0.32507 0.0
C1084 C 0.56668 0.72031 0.33103 0.0
C1085 C 0.56599 0.71295 0.31092 0.0
C1086 C 0.58838 0.73403 0.29795 0.0
C1087 C 0.61113 0.76172 0.30523 0.0
C1088 C 0.54378 0.69836 0.3455 0.0
C1089 C 0.58815 0.72744 0.27631 0.0
H1090 H 0.53094 0.61287 0.29663 0.0
H1091 H 0.46754 0.64681 0.28385 0.0
H1092 H 0.59841 0.67974 0.30291 0.0
H1093 H 0.58366 0.6703 0.32739 0.0
H1094 H 0.58051 0.64148 0.31159 0.0
H1095 H 0.48089 0.69674 0.28887 0.0
H1096 H 0.50639 0.7122 0.31039 0.0
H1097 H 0.52157 0.72247 0.28606 0.0
H1098 H 0.58952 0.75392 0.35317 0.0
H1099 H 0.62819 0.77772 0.29527 0.0
H1100 H 0.54545 0.67753 0.34624 0.0
H1101 H 0.51976 0.69245 0.3403 0.0
H1102 H 0.54776 0.70724 0.36074 0.0
H1103 H 0.59174 0.70784 0.27506 0.0
H1104 H 0.60644 0.74653 0.268 0.0
H1105 H 0.56522 0.7218 0.26908 0.0
C1106 C 0.38818 0.88848 0.30891 0.0
C1107 C 0.40712 0.91888 0.30504 0.0
C1108 C 0.35877 0.87784 0.31665 0.0
C1109 C 0.34796 0.89815 0.32029 0.0
C1110 C 0.3673 0.92902 0.31675 0.0
C1111 C 0.39681 0.93904 0.30918 0.0
C1112 C 0.33884 0.84477 0.32021 0.0
C1113 C 0.35643 0.95128 0.32031 0.0
C1114 C 0.26089 0.86662 0.3163 0.0
C1115 C 0.25293 0.8622 0.33636 0.0
C1116 C 0.29179 0.87887 0.31095 0.0
C1117 C 0.31541 0.88672 0.32601 0.0
C1118 C 0.30771 0.88252 0.34629 0.0
C1119 C 0.27648 0.87037 0.35125 0.0
C1120 C 0.29907 0.8831 0.28912 0.0
C1121 C 0.33239 0.89047 0.36271 0.0
H1122 H 0.39615 0.87297 0.30537 0.0
H1123 H 0.41172 0.96255 0.30618 0.0
H1124 H 0.32987 0.84016 0.33546 0.0
H1125 H 0.31848 0.83614 0.30963 0.0
H1126 H 0.35174 0.83233 0.31829 0.0
H1127 H 0.3751 0.9746 0.31821 0.0
H1128 H 0.33668 0.94745 0.30985 0.0
H1129 H 0.34795 0.94834 0.33562 0.0
H1130 H 0.24296 0.86054 0.30465 0.0
H1131 H 0.27055 0.86707 0.36678 0.0
H1132 H 0.30969 0.86926 0.28536 0.0
H1133 H 0.31618 0.90663 0.28583 0.0
H1134 H 0.27808 0.87694 0.27928 0.0
H1135 H 0.34428 0.87694 0.3616 0.0
H1136 H 0.32269 0.88671 0.37774 0.0
H1137 H 0.35026 0.91417 0.36107 0.0
C1138 C 0.14195 0.50731 0.27422 0.0
C1139 C 0.12039 0.51259 0.28348 0.0
C1140 C 0.14676 0.48325 0.28043 0.0
C1141 C 0.12939 0.46412 0.2962 0.0
C1142 C 0.10574 0.46805 0.30438 0.0
C1143 C 0.10161 0.49236 0.29793 0.0
C1144 C 0.17213 0.47983 0.27126 0.0
C1145 C 0.08645 0.44802 0.32102 0.0
C1146 C 0.13433 0.39336 0.30917 0.0
C1147 C 0.15634 0.4026 0.32512 0.0
C1148 C 0.12531 0.41308 0.29952 0.0
C1149 C 0.13869 0.44274 0.30591 0.0
C1150 C 0.16093 0.4522 0.32196 0.0
C1151 C 0.16942 0.43205 0.33136 0.0
C1152 C 0.10147 0.40218 0.28252 0.0
C1153 C 0.17584 0.4837 0.32921 0.0
H1154 H 0.15654 0.52323 0.26313 0.0
H1155 H 0.08489 0.49663 0.30495 0.0
H1156 H 0.19214 0.48676 0.28205 0.0
H1157 H 0.164 0.45624 0.2678 0.0
H1158 H 0.18031 0.49362 0.25742 0.0
H1159 H 0.06634 0.45143 0.32377 0.0
H1160 H 0.07777 0.42432 0.3176 0.0
H1161 H 0.10107 0.45268 0.33493 0.0
H1162 H 0.12414 0.3707 0.30416 0.0
H1163 H 0.18652 0.43952 0.34359 0.0
H1164 H 0.11134 0.4159 0.26889 0.0
H1165 H 0.0811 0.40467 0.2861 0.0
H1166 H 0.0934 0.3785 0.27926 0.0
H1167 H 0.18778 0.49964 0.31685 0.0
H1168 H 0.19299 0.48762 0.34171 0.0
H1169 H 0.15777 0.48869 0.33425 0.0
C1170 C 0.40185 0.50004 0.28363 0.0
C1171 C 0.40294 0.52778 0.28104 0.0
C1172 C 0.37506 0.47496 0.29061 0.0
C1173 C 0.34877 0.47774 0.29521 0.0
C1174 C 0.34935 0.50546 0.29162 0.0
C1175 C 0.37633 0.53003 0.28451 0.0
C1176 C 0.37542 0.44584 0.29394 0.0
C1177 C 0.32197 0.50957 0.29617 0.0
C1178 C 0.26951 0.40947 0.30301 0.0
C1179 C 0.26853 0.40673 0.32389 0.0
C1180 C 0.29564 0.43194 0.29346 0.0
C1181 C 0.32152 0.45244 0.30499 0.0
C1182 C 0.32086 0.4495 0.32605 0.0
C1183 C 0.29452 0.42671 0.33521 0.0
C1184 C 0.29532 0.43402 0.271 0.0
C1185 C 0.3478 0.47089 0.33897 0.0
H1186 H 0.42249 0.49834 0.28108 0.0
H1187 H 0.37709 0.55142 0.28228 0.0
H1188 H 0.37528 0.44061 0.31014 0.0
H1189 H 0.35431 0.42747 0.28701 0.0
H1190 H 0.39621 0.44646 0.28776 0.0
H1191 H 0.32532 0.53192 0.29137 0.0
H1192 H 0.30052 0.49245 0.28868 0.0
H1193 H 0.31832 0.50668 0.31242 0.0
H1194 H 0.24969 0.39416 0.29404 0.0
H1195 H 0.29412 0.42493 0.35132 0.0
H1196 H 0.31606 0.43383 0.26548 0.0
H1197 H 0.29641 0.45536 0.26586 0.0
H1198 H 0.27418 0.41547 0.26415 0.0
H1199 H 0.36944 0.47095 0.33505 0.0
H1200 H 0.3441 0.46521 0.35508 0.0
H1201 H 0.35138 0.49382 0.33625 0.0
C1202 C 0.53692 0.9483 0.29212 0.0
C1203 C 0.50661 0.92535 0.2891 0.0
C1204 C 0.56112 0.94182 0.29731 0.0
C1205 C 0.55445 0.91172 0.29953 0.0
C1206 C 0.52412 0.88861 0.29507 0.0
C1207 C 0.50057 0.89578 0.28985 0.0
C1208 C 0.59328 0.96704 0.30164 0.0
C1209 C 0.51603 0.85625 0.29714 0.0
C1210 C 0.61691 0.88847 0.30386 0.0
C1211 C 0.6187 0.88352 0.32449 0.0
C1212 C 0.59699 0.8988 0.29555 0.0
C1213 C 0.57821 0.90405 0.30816 0.0
C1214 C 0.58039 0.89976 0.32903 0.0
C1215 C 0.60075 0.88968 0.33697 0.0
C1216 C 0.59548 0.90335 0.27326 0.0
C1217 C 0.56049 0.90496 0.34293 0.0
H1218 H 0.54122 0.97112 0.29158 0.0
H1219 H 0.47692 0.87825 0.2874 0.0
H1220 H 0.5986 0.96767 0.31791 0.0
H1221 H 0.61089 0.9636 0.29428 0.0
H1222 H 0.59553 0.98892 0.29662 0.0
H1223 H 0.49203 0.84118 0.29151 0.0
H1224 H 0.53243 0.85208 0.28893 0.0
H1225 H 0.51812 0.85047 0.31305 0.0
H1226 H 0.631 0.88413 0.2941 0.0
H1227 H 0.60208 0.88601 0.35291 0.0
H1228 H 0.59845 0.92586 0.26956 0.0
H1229 H 0.57233 0.88702 0.26714 0.0
H1230 H 0.61348 0.90069 0.26571 0.0
H1231 H 0.56374 0.92782 0.34059 0.0
H1232 H 0.56596 0.90189 0.35882 0.0
H1233 H 0.53563 0.88928 0.33963 0.0
C1234 C 0.11936 0.61224 0.31231 0.0
C1235 C 0.13699 0.6136 0.2963 0.0
C1236 C 0.12369 0.63832 0.32105 0.0
C1237 C 0.14619 0.66633 0.31351 0.0
C1238 C 0.16484 0.66768 0.29777 0.0
C1239 C 0.15995 0.64122 0.28934 0.0
C1240 C 0.10329 0.63594 0.33774 0.0
C1241 C 0.18911 0.69707 0.28934 0.0
C1242 C 0.13222 0.73227 0.31782 0.0
C1243 C 0.15259 0.74766 0.3337 0.0
C1244 C 0.12982 0.70571 0.31128 0.0
C1245 C 0.14827 0.69417 0.32078 0.0
C1246 C 0.16874 0.7094 0.33691 0.0
C1247 C 0.17065 0.73598 0.34321 0.0
C1248 C 0.10763 0.69011 0.29405 0.0
C1249 C 0.18881 0.69774 0.34736 0.0
H1250 H 0.10149 0.59075 0.31752 0.0
H1251 H 0.17366 0.64201 0.27704 0.0
H1252 H 0.11764 0.64937 0.35049 0.0
H1253 H 0.08763 0.645 0.33257 0.0
H1254 H 0.08889 0.61257 0.34304 0.0
H1255 H 0.20332 0.69421 0.27826 0.0
H1256 H 0.17765 0.70926 0.282 0.0
H1257 H 0.20475 0.71114 0.30146 0.0
H1258 H 0.11809 0.74099 0.31037 0.0
H1259 H 0.18649 0.74773 0.35546 0.0
H1260 H 0.0907 0.66708 0.29865 0.0
H1261 H 0.12059 0.68852 0.28161 0.0
H1262 H 0.09461 0.70181 0.28846 0.0
H1263 H 0.1741 0.6748 0.35322 0.0
H1264 H 0.20311 0.71189 0.35989 0.0
H1265 H 0.20451 0.69661 0.33663 0.0
C1266 C 0.87319 0.05492 0.39969 0.0
C1267 C 0.86452 0.07574 0.40529 0.0
C1268 C 0.8512 0.02771 0.39139 0.0
C1269 C 0.81975 0.02114 0.38871 0.0
C1270 C 0.81109 0.04244 0.39404 0.0
C1271 C 0.83359 0.06948 0.4022 0.0
C1272 C 0.8615 0.00573 0.38588 0.0
C1273 C 0.7779 0.03644 0.3915 0.0
C1274 C 0.76478 0.95977 0.35363 0.0
C1275 C 0.74878 0.93582 0.36696 0.0
C1276 C 0.78811 0.98753 0.36045 0.0
C1277 C 0.79565 0.99158 0.3811 0.0
C1278 C 0.77968 0.96748 0.3946 0.0
C1279 C 0.75656 0.93999 0.3874 0.0
C1280 C 0.80463 0.01258 0.34554 0.0
C1281 C 0.78685 0.97077 0.41674 0.0
H1282 H 0.89707 0.0597 0.40224 0.0
H1283 H 0.82701 0.08576 0.40636 0.0
H1284 H 0.84978 0.98516 0.39522 0.0
H1285 H 0.85465 0.99934 0.37014 0.0
H1286 H 0.887 0.01479 0.38791 0.0
H1287 H 0.77514 0.05564 0.3958 0.0
H1288 H 0.76962 0.03122 0.37579 0.0
H1289 H 0.76274 0.01675 0.40077 0.0
H1290 H 0.75911 0.95687 0.33783 0.0
H1291 H 0.74447 0.92174 0.39789 0.0
H1292 H 0.83001 0.02068 0.3469 0.0
H1293 H 0.80079 0.03157 0.34867 0.0
H1294 H 0.79656 0.00573 0.32997 0.0
H1295 H 0.77259 0.94983 0.42526 0.0
H1296 H 0.78258 0.98849 0.4222 0.0
H1297 H 0.81172 0.97762 0.41992 0.0
C1298 C 0.95424 0.77847 0.42032 0.0
C1299 C 0.96064 0.80389 0.43064 0.0
C1300 C 0.97744 0.77725 0.40985 0.0
C1301 C 0.00762 0.8021 0.40985 0.0
C1302 C 0.01467 0.82689 0.42161 0.0
C1303 C 0.99091 0.82753 0.4318 0.0
C1304 C 0.96906 0.75036 0.3976 0.0
C1305 C 0.0467 0.85359 0.42231 0.0
C1306 C 0.07359 0.79379 0.39013 0.0
C1307 C 0.07623 0.80645 0.37085 0.0
C1308 C 0.05146 0.79228 0.40301 0.0
C1309 C 0.03102 0.80319 0.39635 0.0
C1310 C 0.03312 0.81552 0.3768 0.0
C1311 C 0.05591 0.81723 0.3643 0.0
C1312 C 0.05042 0.77959 0.42386 0.0
C1313 C 0.01154 0.82728 0.36919 0.0
H1314 H 0.93054 0.76054 0.41928 0.0
H1315 H 0.99538 0.84725 0.43963 0.0
H1316 H 0.96957 0.75656 0.38155 0.0
H1317 H 0.98625 0.74236 0.40048 0.0
H1318 H 0.94558 0.73182 0.40079 0.0
H1319 H 0.04927 0.86929 0.43398 0.0
H1320 H 0.06466 0.84654 0.42516 0.0
H1321 H 0.05126 0.86561 0.40769 0.0
H1322 H 0.08949 0.78578 0.39549 0.0
H1323 H 0.05797 0.82717 0.3495 0.0
H1324 H 0.02704 0.76057 0.42648 0.0
H1325 H 0.05471 0.79666 0.4349 0.0
H1326 H 0.06793 0.77191 0.42669 0.0
H1327 H 0.98705 0.80958 0.37031 0.0
H1328 H 0.01563 0.83543 0.35347 0.0
H1329 H 0.01466 0.84583 0.37853 0.0
C1330 C 0.19429 0.15294 0.40712 0.0
C1331 C 0.22313 0.15439 0.41138 0.0
C1332 C 0.19214 0.1786 0.40154 0.0
C1333 C 0.21957 0.20637 0.40028 0.0
C1334 C 0.24869 0.2081 0.40553 0.0
C1335 C 0.2501 0.18199 0.411 0.0
C1336 C 0.16063 0.17577 0.39619 0.0
C1337 C 0.27843 0.23728 0.40451 0.0
C1338 C 0.21482 0.26285 0.36364 0.0
C1339 C 0.20946 0.28082 0.37618 0.0
C1340 C 0.21897 0.23904 0.37138 0.0
C1341 C 0.21779 0.23306 0.39218 0.0
C1342 C 0.21332 0.25163 0.40498 0.0
C1343 C 0.20917 0.27526 0.39684 0.0
C1344 C 0.22372 0.21976 0.35722 0.0
C1345 C 0.21207 0.24606 0.42723 0.0
H1346 H 0.1735 0.1315 0.40765 0.0
H1347 H 0.27237 0.1829 0.41416 0.0
H1348 H 0.15695 0.19168 0.40475 0.0
H1349 H 0.15937 0.18143 0.38016 0.0
H1350 H 0.14148 0.15295 0.39916 0.0
H1351 H 0.2987 0.23534 0.41093 0.0
H1352 H 0.28289 0.24503 0.38876 0.0
H1353 H 0.27639 0.25457 0.41257 0.0
H1354 H 0.21513 0.26695 0.34768 0.0
H1355 H 0.20517 0.28907 0.40669 0.0
H1356 H 0.20407 0.19674 0.358 0.0
H1357 H 0.24519 0.21859 0.3616 0.0
H1358 H 0.22544 0.22816 0.34156 0.0
H1359 H 0.19143 0.22448 0.43075 0.0
H1360 H 0.21076 0.26382 0.43525 0.0
H1361 H 0.23284 0.2445 0.43296 0.0
C1362 C 0.64201 0.49427 0.75148 0.0
C1363 C 0.61448 0.49608 0.74954 0.0
C1364 C 0.67001 0.51729 0.74423 0.0
C1365 C 0.67058 0.54294 0.73491 0.0
C1366 C 0.64303 0.54546 0.73389 0.0
C1367 C 0.61524 0.52185 0.74106 0.0
C1368 C 0.69858 0.5134 0.74559 0.0
C1369 C 0.64257 0.57251 0.72441 0.0
C1370 C 0.75018 0.61098 0.72812 0.0
C1371 C 0.75592 0.60913 0.70812 0.0
C1372 C 0.72237 0.59009 0.73686 0.0
C1373 C 0.69961 0.56635 0.72549 0.0
C1374 C 0.70508 0.56445 0.70526 0.0
C1375 C 0.733 0.58592 0.69679 0.0
C1376 C 0.71748 0.5933 0.75837 0.0
C1377 C 0.68164 0.53934 0.69262 0.0
H1378 H 0.64108 0.47396 0.75764 0.0
H1379 H 0.59374 0.52286 0.73923 0.0
H1380 H 0.70541 0.51203 0.73039 0.0
H1381 H 0.71831 0.5329 0.75267 0.0
H1382 H 0.69477 0.49299 0.75423 0.0
H1383 H 0.62027 0.57239 0.7265 0.0
H1384 H 0.6618 0.5931 0.73077 0.0
H1385 H 0.64614 0.5733 0.70822 0.0
H1386 H 0.76752 0.62888 0.73706 0.0
H1387 H 0.73712 0.58414 0.68139 0.0
H1388 H 0.71534 0.57367 0.76727 0.0
H1389 H 0.6955 0.59409 0.75964 0.0
H1390 H 0.73682 0.61366 0.76496 0.0
H1391 H 0.67792 0.51772 0.69929 0.0
H1392 H 0.6891 0.54112 0.67711 0.0
H1393 H 0.65896 0.53914 0.69221 0.0
C1394 C 0.46797 0.06867 0.73534 0.0
C1395 C 0.49977 0.08824 0.73726 0.0
C1396 C 0.44746 0.07882 0.72791 0.0
C1397 C 0.45933 0.10921 0.72228 0.0
C1398 C 0.49163 0.12894 0.72395 0.0
C1399 C 0.51151 0.11814 0.73148 0.0
C1400 C 0.41316 0.05718 0.72633 0.0
C1401 C 0.5051 0.16147 0.71808 0.0
C1402 C 0.41016 0.13166 0.68782 0.0
C1403 C 0.39762 0.14267 0.70129 0.0
C1404 C 0.43026 0.12062 0.69446 0.0
C1405 C 0.4379 0.12055 0.71503 0.0
C1406 C 0.42533 0.13158 0.7287 0.0
C1407 C 0.40536 0.14255 0.72166 0.0
C1408 C 0.44339 0.10911 0.67947 0.0
C1409 C 0.43301 0.13183 0.75076 0.0
H1410 H 0.45931 0.04553 0.73985 0.0
H1411 H 0.53625 0.13303 0.73314 0.0
H1412 H 0.40037 0.06438 0.73582 0.0
H1413 H 0.40429 0.05695 0.71078 0.0
H1414 H 0.40784 0.03418 0.73096 0.0
H1415 H 0.53083 0.1736 0.71981 0.0
H1416 H 0.49841 0.16387 0.70236 0.0
H1417 H 0.49555 0.17219 0.72738 0.0
H1418 H 0.40433 0.13171 0.67206 0.0
H1419 H 0.39574 0.15096 0.73218 0.0
H1420 H 0.4369 0.08556 0.68311 0.0
H1421 H 0.46911 0.122 0.68016 0.0
H1422 H 0.435 0.11059 0.66401 0.0
H1423 H 0.4263 0.10892 0.75638 0.0
H1424 H 0.42102 0.1409 0.75943 0.0
H1425 H 0.45841 0.14546 0.75358 0.0
C1426 C 0.89717 0.38312 0.7259 0.0
C1427 C 0.87426 0.38825 0.73335 0.0
C1428 C 0.88967 0.35537 0.71835 0.0
C1429 C 0.85855 0.33216 0.7186 0.0
C1430 C 0.83518 0.33757 0.7257 0.0
C1431 C 0.84336 0.36573 0.73291 0.0
C1432 C 0.91518 0.35063 0.71068 0.0
C1433 C 0.80183 0.31333 0.72642 0.0
C1434 C 0.83621 0.26462 0.68723 0.0
C1435 C 0.83983 0.24522 0.7012 0.0
C1436 C 0.84193 0.29295 0.69269 0.0
C1437 C 0.85094 0.3018 0.71264 0.0
C1438 C 0.85381 0.28197 0.7269 0.0
C1439 C 0.84846 0.25403 0.72097 0.0
C1440 C 0.83907 0.31367 0.67704 0.0
C1441 C 0.86289 0.2904 0.74839 0.0
H1442 H 0.92102 0.40082 0.72627 0.0
H1443 H 0.82586 0.36996 0.73886 0.0
H1444 H 0.91844 0.33424 0.72047 0.0
H1445 H 0.90871 0.34135 0.69554 0.0
H1446 H 0.93766 0.37156 0.7101 0.0
H1447 H 0.78623 0.32166 0.73122 0.0
H1448 H 0.79349 0.30333 0.71158 0.0
H1449 H 0.80013 0.29533 0.73696 0.0
H1450 H 0.82966 0.25796 0.67191 0.0
H1451 H 0.85096 0.239 0.73189 0.0
H1452 H 0.86193 0.33386 0.67533 0.0
H1453 H 0.82267 0.32109 0.68171 0.0
H1454 H 0.83089 0.30309 0.66233 0.0
H1455 H 0.88657 0.30974 0.74941 0.0
H1456 H 0.86257 0.27186 0.75781 0.0
H1457 H 0.84686 0.29718 0.75458 0.0
C1458 C 0.14217 0.97222 0.62654 0.0
C1459 C 0.15084 0.95098 0.62192 0.0
C1460 C 0.16413 0.99993 0.63423 0.0
C1461 C 0.19556 0.00657 0.63731 0.0
C1462 C 0.20427 0.98495 0.63284 0.0
C1463 C 0.18181 0.95745 0.62527 0.0
C1464 C 0.15379 0.02222 0.63884 0.0
C1465 C 0.23741 0.99097 0.63589 0.0
C1466 C 0.25938 0.08758 0.639 0.0
C1467 C 0.26629 0.09169 0.65952 0.0
C1468 C 0.23626 0.06018 0.63161 0.0
C1469 C 0.21944 0.03616 0.64501 0.0
C1470 C 0.22606 0.04023 0.66574 0.0
C1471 C 0.24936 0.06785 0.67272 0.0
C1472 C 0.23006 0.05682 0.60941 0.0
C1473 C 0.20867 0.0153 0.68056 0.0
H1474 H 0.11827 0.96728 0.62379 0.0
H1475 H 0.18839 0.94086 0.62189 0.0
H1476 H 0.15972 0.02873 0.65462 0.0
H1477 H 0.16625 0.0427 0.62952 0.0
H1478 H 0.12842 0.01339 0.63612 0.0
H1479 H 0.24036 0.97178 0.63181 0.0
H1480 H 0.25289 0.01069 0.62675 0.0
H1481 H 0.24514 0.99616 0.65168 0.0
H1482 H 0.27222 0.10575 0.62862 0.0
H1483 H 0.25435 0.07067 0.6886 0.0
H1484 H 0.2053 0.04995 0.60571 0.0
H1485 H 0.23459 0.03908 0.60431 0.0
H1486 H 0.2447 0.07774 0.60097 0.0
H1487 H 0.18336 0.00727 0.67858 0.0
H1488 H 0.21593 0.02223 0.69619 0.0
H1489 H 0.21263 0.99624 0.6779 0.0
C1490 C 0.05935 0.22879 0.64267 0.0
C1491 C 0.05489 0.21499 0.62449 0.0
C1492 C 0.03391 0.22446 0.65347 0.0
C1493 C 0.00352 0.20578 0.6458 0.0
C1494 C 0.99904 0.19139 0.62752 0.0
C1495 C 0.02495 0.19625 0.61705 0.0
C1496 C 0.03951 0.24025 0.67284 0.0
C1497 C 0.96695 0.17121 0.61893 0.0
C1498 C 0.93403 0.17334 0.67861 0.0
C1499 C 0.92033 0.19112 0.67287 0.0
C1500 C 0.96185 0.17849 0.67044 0.0
C1501 C 0.97627 0.20211 0.65638 0.0
C1502 C 0.96343 0.2211 0.65137 0.0
C1503 C 0.93553 0.21531 0.65963 0.0
C1504 C 0.97492 0.15777 0.67607 0.0
C1505 C 0.9784 0.24673 0.63658 0.0
H1506 H 0.0828 0.24324 0.64821 0.0
H1507 H 0.02198 0.18558 0.60299 0.0
H1508 H 0.02972 0.25576 0.67156 0.0
H1509 H 0.02747 0.22393 0.68499 0.0
H1510 H 0.0646 0.25308 0.67708 0.0
H1511 H 0.96758 0.16088 0.60495 0.0
H1512 H 0.95347 0.15328 0.62988 0.0
H1513 H 0.95432 0.18405 0.61574 0.0
H1514 H 0.92234 0.15455 0.6888 0.0
H1515 H 0.92519 0.22931 0.65528 0.0
H1516 H 0.9999 0.17064 0.68046 0.0
H1517 H 0.97306 0.14455 0.663 0.0
H1518 H 0.96249 0.14218 0.6885 0.0
H1519 H 0.00329 0.26087 0.64075 0.0
H1520 H 0.9669 0.26084 0.63558 0.0
H1521 H 0.97721 0.23801 0.62161 0.0
C1522 C 0.81223 0.84912 0.62226 0.0
C1523 C 0.78209 0.84502 0.6192 0.0
C1524 C 0.81742 0.82529 0.62821 0.0
C1525 C 0.79172 0.79664 0.63107 0.0
C1526 C 0.76123 0.79202 0.62657 0.0
C1527 C 0.75678 0.81641 0.62068 0.0
C1528 C 0.85029 0.83121 0.6327 0.0
C1529 C 0.73327 0.76178 0.6292 0.0
C1530 C 0.81023 0.73285 0.63803 0.0
C1531 C 0.81209 0.73019 0.65888 0.0
C1532 C 0.80261 0.75369 0.62871 0.0
C1533 C 0.79682 0.77242 0.64051 0.0
C1534 C 0.79787 0.76935 0.66154 0.0
C1535 C 0.80542 0.74824 0.67047 0.0
C1536 C 0.8016 0.75621 0.60627 0.0
C1537 C 0.7919 0.789 0.67465 0.0
H1538 H 0.83166 0.8714 0.62097 0.0
H1539 H 0.73352 0.8135 0.61839 0.0
H1540 H 0.85372 0.82843 0.64894 0.0
H1541 H 0.85473 0.81497 0.62513 0.0
H1542 H 0.8677 0.85404 0.62798 0.0
H1543 H 0.71174 0.76108 0.62258 0.0
H1544 H 0.7368 0.74449 0.62229 0.0
H1545 H 0.73 0.75601 0.6453 0.0
H1546 H 0.81515 0.7189 0.62889 0.0
H1547 H 0.8067 0.74634 0.68656 0.0
H1548 H 0.82039 0.77818 0.60131 0.0
H1549 H 0.77927 0.75483 0.60078 0.0
H1550 H 0.80442 0.73856 0.59922 0.0
H1551 H 0.80979 0.81256 0.67235 0.0
H1552 H 0.79228 0.78295 0.6907 0.0
H1553 H 0.76903 0.78747 0.67055 0.0
C1554 C 0.06029 0.82656 0.62056 0.0
C1555 C 0.05889 0.85135 0.6121 0.0
C1556 C 0.03374 0.80221 0.62839 0.0
C1557 C 0.00504 0.8026 0.62751 0.0
C1558 C 0.0033 0.82698 0.61785 0.0
C1559 C 0.03035 0.85122 0.6105 0.0
C1560 C 0.03686 0.77696 0.63871 0.0
C1561 C 0.97321 0.82819 0.61617 0.0
C1562 C 0.93037 0.73089 0.63892 0.0
C1563 C 0.92528 0.73523 0.65854 0.0
C1564 C 0.95603 0.75258 0.62857 0.0
C1565 C 0.97767 0.77899 0.6382 0.0
C1566 C 0.97295 0.78319 0.65814 0.0
C1567 C 0.94669 0.76149 0.66795 0.0
C1568 C 0.95963 0.74747 0.60719 0.0
C1569 C 0.9956 0.81076 0.66912 0.0
H1570 H 0.0826 0.82708 0.62206 0.0
H1571 H 0.02956 0.87067 0.60414 0.0
H1572 H 0.03353 0.77697 0.65489 0.0
H1573 H 0.01863 0.75529 0.63302 0.0
H1574 H 0.05995 0.77874 0.63668 0.0
H1575 H 0.97486 0.84677 0.60621 0.0
H1576 H 0.95414 0.80697 0.61044 0.0
H1577 H 0.96687 0.83121 0.63112 0.0
H1578 H 0.91383 0.71082 0.63144 0.0
H1579 H 0.94304 0.76502 0.6831 0.0
H1580 H 0.98233 0.74828 0.60553 0.0
H1581 H 0.95937 0.76545 0.59747 0.0
H1582 H 0.94089 0.72573 0.60185 0.0
H1583 H 0.01931 0.8133 0.66906 0.0
H1584 H 0.98932 0.81015 0.6848 0.0
H1585 H 0.99642 0.83076 0.66148 0.0
C1586 C 0.17915 0.24801 0.62075 0.0
C1587 C 0.15591 0.22525 0.60949 0.0
C1588 C 0.20477 0.24551 0.62867 0.0
C1589 C 0.20691 0.21961 0.62509 0.0
C1590 C 0.1845 0.19759 0.61242 0.0
C1591 C 0.15905 0.20065 0.60484 0.0
C1592 C 0.22815 0.26945 0.64209 0.0
C1593 C 0.1862 0.16985 0.60804 0.0
C1594 C 0.28152 0.21727 0.63866 0.0
C1595 C 0.27435 0.20121 0.65687 0.0
C1596 C 0.2599 0.2236 0.62816 0.0
C1597 C 0.23057 0.21403 0.63621 0.0
C1598 C 0.22343 0.19852 0.65481 0.0
C1599 C 0.24537 0.19216 0.66489 0.0
C1600 C 0.26819 0.23995 0.60828 0.0
C1601 C 0.19238 0.18818 0.66392 0.0
H1602 H 0.17607 0.26674 0.62444 0.0
H1603 H 0.14058 0.18305 0.59628 0.0
H1604 H 0.22538 0.26079 0.65769 0.0
H1605 H 0.25214 0.27584 0.63802 0.0
H1606 H 0.22524 0.28965 0.6414 0.0
H1607 H 0.16929 0.15686 0.59602 0.0
H1608 H 0.20988 0.17561 0.60363 0.0
H1609 H 0.18119 0.15548 0.62168 0.0
H1610 H 0.30387 0.22445 0.63233 0.0
H1611 H 0.23965 0.17982 0.67894 0.0
H1612 H 0.26596 0.26043 0.60854 0.0
H1613 H 0.2518 0.2258 0.59646 0.0
H1614 H 0.29219 0.24619 0.60422 0.0
H1615 H 0.18813 0.20734 0.66548 0.0
H1616 H 0.19087 0.17728 0.6788 0.0
H1617 H 0.17354 0.17217 0.654 0.0
C1618 C 0.76019 0.94576 0.63801 0.0
C1619 C 0.7842 0.93925 0.63511 0.0
C1620 C 0.76638 0.9728 0.64615 0.0
C1621 C 0.79733 0.99359 0.6517 0.0
C1622 C 0.82151 0.98656 0.6495 0.0
C1623 C 0.81464 0.95949 0.64108 0.0
C1624 C 0.74001 0.97957 0.64811 0.0
C1625 C 0.85474 0.00805 0.65537 0.0
C1626 C 0.81812 0.07495 0.65006 0.0
C1627 C 0.817 0.08035 0.67016 0.0
C1628 C 0.81191 0.04687 0.64393 0.0
C1629 C 0.80468 0.02358 0.65826 0.0
C1630 C 0.80398 0.02891 0.67863 0.0
C1631 C 0.81001 0.05724 0.68434 0.0
C1632 C 0.81266 0.04203 0.62204 0.0
C1633 C 0.79669 1.00465 0.69433 0.0
H1634 H 0.73664 0.92981 0.63354 0.0
H1635 H 0.83316 0.95443 0.63863 0.0
H1636 H 0.73958 0.98591 0.66356 0.0
H1637 H 0.74352 0.99877 0.63819 0.0
H1638 H 0.7171 0.96036 0.64417 0.0
H1639 H 0.87026 0.99807 0.65447 0.0
H1640 H 0.86337 0.02808 0.64541 0.0
H1641 H 0.85627 0.01554 0.67078 0.0
H1642 H 0.8234 0.0926 0.63896 0.0
H1643 H 0.80922 0.06125 0.69991 0.0
H1644 H 0.78964 0.02434 0.61671 0.0
H1645 H 0.8298 0.0344 0.61964 0.0
H1646 H 0.8188 0.06253 0.61281 0.0
H1647 H 0.77301 0.98597 0.69144 0.0
H1648 H 0.79805 0.01265 0.70958 0.0
H1649 H 0.81311 0.99567 0.69367 0.0
C1650 C 0.51837 0.3694 0.74722 0.0
C1651 C 0.52389 0.39638 0.73783 0.0
C1652 C 0.49636 0.34203 0.73924 0.0
C1653 C 0.47929 0.34164 0.72147 0.0
C1654 C 0.48524 0.36894 0.71175 0.0
C1655 C 0.50755 0.39599 0.72004 0.0
C1656 C 0.49098 0.31354 0.75002 0.0
C1657 C 0.46746 0.36959 0.69289 0.0
C1658 C 0.43721 0.26942 0.69281 0.0
C1659 C 0.40689 0.25721 0.69958 0.0
C1660 C 0.46097 0.29691 0.6997 0.0
C1661 C 0.45428 0.31274 0.7136 0.0
C1662 C 0.42366 0.30068 0.7203 0.0
C1663 C 0.40045 0.27311 0.71329 0.0
C1664 C 0.49333 0.30885 0.69229 0.0
C1665 C 0.41542 0.31685 0.73501 0.0
H1666 H 0.53123 0.36986 0.76092 0.0
H1667 H 0.51174 0.41693 0.71292 0.0
H1668 H 0.46685 0.30144 0.75519 0.0
H1669 H 0.49378 0.2988 0.73976 0.0
H1670 H 0.50719 0.31762 0.7631 0.0
H1671 H 0.47576 0.39253 0.68671 0.0
H1672 H 0.46959 0.35589 0.68145 0.0
H1673 H 0.44244 0.35978 0.69591 0.0
H1674 H 0.44253 0.25736 0.68227 0.0
H1675 H 0.37714 0.26403 0.71861 0.0
H1676 H 0.50971 0.3114 0.705 0.0
H1677 H 0.50122 0.33123 0.68526 0.0
H1678 H 0.4947 0.2941 0.68129 0.0
H1679 H 0.42923 0.31966 0.74911 0.0
H1680 H 0.39039 0.30485 0.7384 0.0
H1681 H 0.42129 0.33942 0.72906 0.0
C1682 C 0.61844 0.10591 0.74972 0.0
C1683 C 0.59319 0.07771 0.74665 0.0
C1684 C 0.64706 0.11418 0.7414 0.0
C1685 C 0.65031 0.0935 0.72989 0.0
C1686 C 0.62526 0.0643 0.72782 0.0
C1687 C 0.59681 0.05682 0.73615 0.0
C1688 C 0.67321 0.14551 0.744 0.0
C1689 C 0.62803 0.04148 0.71602 0.0
C1690 C 0.7129 0.12688 0.69143 0.0
C1691 C 0.73776 0.12616 0.70207 0.0
C1692 C 0.68386 0.11555 0.70012 0.0
C1693 C 0.67974 0.10284 0.71968 0.0
C1694 C 0.70443 0.10069 0.72996 0.0
C1695 C 0.73314 0.11252 0.72107 0.0
C1696 C 0.65803 0.11841 0.6888 0.0
C1697 C 0.70091 0.08692 0.75066 0.0
H1698 H 0.61505 0.12204 0.75754 0.0
H1699 H 0.57684 0.03521 0.73359 0.0
H1700 H 0.69443 0.14514 0.75014 0.0
H1701 H 0.67887 0.15728 0.7293 0.0
H1702 H 0.66727 0.15841 0.75406 0.0
H1703 H 0.60743 0.01908 0.7174 0.0
H1704 H 0.63054 0.04841 0.70006 0.0
H1705 H 0.64907 0.03992 0.72104 0.0
H1706 H 0.71656 0.13752 0.67677 0.0
H1707 H 0.7523 0.1115 0.72918 0.0
H1708 H 0.65224 0.13345 0.69674 0.0
H1709 H 0.63677 0.09644 0.68805 0.0
H1710 H 0.66439 0.12738 0.6734 0.0
H1711 H 0.69746 0.10085 0.76128 0.0
H1712 H 0.72156 0.08473 0.7559 0.0
H1713 H 0.68013 0.06458 0.75106 0.0
C1714 C 0.91178 0.51333 0.7422 0.0
C1715 C 0.88531 0.48686 0.74716 0.0
C1716 C 0.90964 0.53898 0.73648 0.0
C1717 C 0.88033 0.53802 0.73605 0.0
C1718 C 0.85391 0.51174 0.74241 0.0
C1719 C 0.8567 0.48634 0.74772 0.0
C1720 C 0.93829 0.56639 0.72961 0.0
C1721 C 0.82237 0.50994 0.74255 0.0
C1722 C 0.87506 0.60961 0.72948 0.0
C1723 C 0.86614 0.60876 0.70925 0.0
C1724 C 0.88002 0.58685 0.73847 0.0
C1725 C 0.87655 0.5631 0.72683 0.0
C1726 C 0.86842 0.56266 0.70628 0.0
C1727 C 0.86301 0.58532 0.6978 0.0
C1728 C 0.88809 0.58778 0.76048 0.0
C1729 C 0.86501 0.538 0.69327 0.0
H1730 H 0.93378 0.51337 0.74171 0.0
H1731 H 0.83639 0.46569 0.75169 0.0
H1732 H 0.93611 0.56966 0.7133 0.0
H1733 H 0.94072 0.58646 0.73677 0.0
H1734 H 0.95974 0.56465 0.73294 0.0
H1735 H 0.80518 0.48935 0.75025 0.0
H1736 H 0.82395 0.52948 0.74997 0.0
H1737 H 0.81366 0.51022 0.72702 0.0
H1738 H 0.87723 0.62756 0.73843 0.0
H1739 H 0.85634 0.58469 0.68213 0.0
H1740 H 0.90985 0.58646 0.76315 0.0
H1741 H 0.86948 0.56821 0.76818 0.0
H1742 H 0.89098 0.6083 0.76729 0.0
H1743 H 0.88652 0.53598 0.69439 0.0
H1744 H 0.86016 0.54176 0.67738 0.0
H1745 H 0.84577 0.51645 0.69846 0.0
C1746 C 0.49434 0.93939 0.24309 0.0
C1747 C 0.48948 0.95753 0.2557 0.0
C1748 C 0.50513 0.94945 0.22383 0.0
C1749 C 0.51072 0.97814 0.21706 0.0
C1750 C 0.50745 0.99708 0.23023 0.0
C1751 C 0.49703 0.98655 0.24944 0.0
C1752 C 0.50873 0.92872 0.21037 0.0
C1753 C 0.51302 0.02776 0.22364 0.0
C1754 C 0.5523 0.01388 0.16913 0.0
C1755 C 0.52722 0.00747 0.15564 0.0
C1756 C 0.54738 1.00378 0.18908 0.0
C1757 C 0.51667 0.98724 0.19571 0.0
C1758 C 0.49129 0.98044 0.18208 0.0
C1759 C 0.49688 0.99053 0.16221 0.0
C1760 C 0.57499 0.01111 0.20312 0.0
C1761 C 0.45817 0.96311 0.18857 0.0
H1762 H 0.48813 0.91682 0.24791 0.0
H1763 H 0.49334 1.00048 0.25936 0.0
H1764 H 0.48975 0.92069 0.19876 0.0
H1765 H 0.531 0.94057 0.20265 0.0
H1766 H 0.50787 0.90911 0.21868 0.0
H1767 H 0.51211 0.04059 0.23617 0.0
H1768 H 0.53595 0.04048 0.21679 0.0
H1769 H 0.49511 0.02581 0.21214 0.0
H1770 H 0.57579 0.02671 0.16405 0.0
H1771 H 0.47742 0.98581 0.15191 0.0
H1772 H 0.57301 0.99045 0.21045 0.0
H1773 H 0.57547 0.02553 0.21504 0.0
H1774 H 0.59731 0.0227 0.19539 0.0
H1775 H 0.45379 0.94131 0.19527 0.0
H1776 H 0.44107 0.95913 0.17603 0.0
H1777 H 0.45417 0.9754 0.20018 0.0
C1778 C 0.1227 0.54909 0.22778 0.0
C1779 C 0.10555 0.53764 0.24493 0.0
C1780 C 0.10872 0.53989 0.20884 0.0
C1781 C 0.0767 0.51903 0.20712 0.0
C1782 C 0.05995 0.50571 0.22455 0.0
C1783 C 0.0747 0.51515 0.24332 0.0
C1784 C 0.1276 0.55435 0.19071 0.0
C1785 C 0.02581 0.48348 0.22342 0.0
C1786 C 0.03385 0.5309 0.16191 0.0
C1787 C 0.03032 0.50841 0.14934 0.0
C1788 C 0.04839 0.53416 0.18084 0.0
C1789 C 0.05999 0.51458 0.18736 0.0
C1790 C 0.05628 0.49162 0.17482 0.0
C1791 C 0.04132 0.48871 0.15598 0.0
C1792 C 0.05158 0.55877 0.19381 0.0
C1793 C 0.06863 0.47057 0.18115 0.0
H1794 H 0.14657 0.5666 0.22922 0.0
H1795 H 0.06153 0.50667 0.2567 0.0
H1796 H 0.12317 0.53748 0.17949 0.0
H1797 H 0.12066 0.57041 0.18373 0.0
H1798 H 0.15289 0.5665 0.19449 0.0
H1799 H 0.01738 0.47203 0.238 0.0
H1800 H 0.01241 0.49514 0.21872 0.0
H1801 H 0.0209 0.46652 0.21217 0.0
H1802 H 0.02501 0.54592 0.15695 0.0
H1803 H 0.03886 0.47143 0.14623 0.0
H1804 H 0.07649 0.57447 0.1969 0.0
H1805 H 0.04092 0.54937 0.20834 0.0
H1806 H 0.04042 0.57147 0.1868 0.0
H1807 H 0.09423 0.48322 0.18337 0.0
H1808 H 0.06285 0.45322 0.17 0.0
H1809 H 0.05904 0.4595 0.19561 0.0
C1810 C 0.46716 0.53036 0.24195 0.0
C1811 C 0.44539 0.53932 0.24614 0.0
C1812 C 0.46679 0.51884 0.22337 0.0
C1813 C 0.44377 0.51584 0.20866 0.0
C1814 C 0.42005 0.52242 0.2135 0.0
C1815 C 0.42124 0.53424 0.23221 0.0
C1816 C 0.49251 0.5121 0.21901 0.0
C1817 C 0.3947 0.51898 0.19848 0.0
C1818 C 0.47065 0.52671 0.15545 0.0
C1819 C 0.4593 0.49734 0.14947 0.0
C1820 C 0.46483 0.53293 0.17439 0.0
C1821 C 0.4469 0.50923 0.18772 0.0
C1822 C 0.43424 0.47952 0.18147 0.0
C1823 C 0.44078 0.47393 0.1625 0.0
C1824 C 0.47902 0.56496 0.18043 0.0
C1825 C 0.41454 0.45363 0.19503 0.0
H1826 H 0.48571 0.53423 0.25284 0.0
H1827 H 0.40451 0.54134 0.23547 0.0
H1828 H 0.48283 0.48982 0.21246 0.0
H1829 H 0.5079 0.52865 0.20793 0.0
H1830 H 0.50679 0.51284 0.23257 0.0
H1831 H 0.37541 0.52016 0.20548 0.0
H1832 H 0.40442 0.537 0.18695 0.0
H1833 H 0.38521 0.49749 0.19083 0.0
H1834 H 0.48522 0.54493 0.14559 0.0
H1835 H 0.4316 0.45117 0.15791 0.0
H1836 H 0.49591 0.56906 0.1931 0.0
H1837 H 0.46079 0.56965 0.18554 0.0
H1838 H 0.49118 0.58083 0.16807 0.0
H1839 H 0.42905 0.45232 0.20785 0.0
H1840 H 0.40375 0.43212 0.18726 0.0
H1841 H 0.39592 0.45688 0.20112 0.0
C1842 C 0.90421 0.47763 0.79362 0.0
C1843 C 0.92075 0.47179 0.77986 0.0
C1844 C 0.91778 0.48927 0.81226 0.0
C1845 C 0.94852 0.49496 0.81714 0.0
C1846 C 0.96598 0.49106 0.80266 0.0
C1847 C 0.95186 0.47962 0.78412 0.0
C1848 C 0.89852 0.49349 0.82717 0.0
C1849 C 0.99881 0.49692 0.8072 0.0
C1850 C 0.99214 0.53684 0.86362 0.0
C1851 C 0.98745 0.51336 0.87704 0.0
C1852 C 0.97909 0.53129 0.84416 0.0
C1853 C 0.96116 0.50156 0.83797 0.0
C1854 C 0.95608 0.47779 0.85154 0.0
C1855 C 0.96921 0.48398 0.87091 0.0
C1856 C 0.98472 0.55716 0.83018 0.0
C1857 C 0.93725 0.44575 0.84548 0.0
H1858 H 0.88007 0.47137 0.79024 0.0
H1859 H 0.96457 0.47532 0.77326 0.0
H1860 H 0.89188 0.47584 0.83897 0.0
H1861 H 0.91209 0.51521 0.83448 0.0
H1862 H 0.87699 0.49233 0.82016 0.0
H1863 H 0.01022 0.49584 0.79371 0.0
H1864 H 0.01295 0.51912 0.81381 0.0
H1865 H 0.99862 0.48012 0.8183 0.0
H1866 H 0.00592 0.55959 0.86838 0.0
H1867 H 0.9658 0.46577 0.88114 0.0
H1868 H 0.96228 0.55504 0.82422 0.0
H1869 H 0.99776 0.55703 0.81729 0.0
H1870 H 0.99805 0.57891 0.83755 0.0
H1871 H 0.91365 0.44115 0.84013 0.0
H1872 H 0.935 0.42987 0.85791 0.0
H1873 H 0.94831 0.44156 0.83298 0.0
C1874 C 0.56153 0.49682 0.7871 0.0
C1875 C 0.57371 0.47725 0.78638 0.0
C1876 C 0.55578 0.50506 0.80543 0.0
C1877 C 0.56249 0.49345 0.82349 0.0
C1878 C 0.57725 0.47566 0.82277 0.0
C1879 C 0.58245 0.46761 0.80422 0.0
C1880 C 0.54002 0.52403 0.80538 0.0
C1881 C 0.58522 0.46304 0.84152 0.0
C1882 C 0.5574 0.52373 0.87325 0.0
C1883 C 0.52784 0.5023 0.8794 0.0
C1884 C 0.56908 0.5212 0.85519 0.0
C1885 C 0.55071 0.49681 0.84279 0.0
C1886 C 0.52083 0.47518 0.84889 0.0
C1887 C 0.50986 0.47812 0.86708 0.0
C1888 C 0.60116 0.54454 0.84942 0.0
C1889 C 0.50028 0.44891 0.83612 0.0
H1890 H 0.55405 0.50359 0.77327 0.0
H1891 H 0.59119 0.45191 0.80359 0.0
H1892 H 0.51554 0.51001 0.80958 0.0
H1893 H 0.55143 0.54175 0.8165 0.0
H1894 H 0.5402 0.53453 0.79052 0.0
H1895 H 0.6006 0.45347 0.83865 0.0
H1896 H 0.59681 0.48044 0.85284 0.0
H1897 H 0.56358 0.4452 0.84793 0.0
H1898 H 0.57166 0.54233 0.88274 0.0
H1899 H 0.48687 0.46166 0.87152 0.0
H1900 H 0.59991 0.55502 0.83484 0.0
H1901 H 0.61597 0.53401 0.84769 0.0
H1902 H 0.61252 0.56221 0.86062 0.0
H1903 H 0.47755 0.43422 0.84283 0.0
H1904 H 0.51203 0.43553 0.83383 0.0
H1905 H 0.49603 0.4568 0.82122 0.0
C1906 C 0.55991 0.03626 0.79092 0.0
C1907 C 0.56241 0.06425 0.78674 0.0
C1908 C 0.56082 0.0265 0.8107 0.0
C1909 C 0.56413 0.04528 0.82647 0.0
C1910 C 0.57032 0.07487 0.82209 0.0
C1911 C 0.56948 0.08402 0.8022 0.0
C1912 C 0.55477 0.99501 0.81467 0.0
C1913 C 0.57418 0.09577 0.83835 0.0
C1914 C 0.51469 0.00834 0.87118 0.0
C1915 C 0.53664 0.00943 0.88577 0.0
C1916 C 0.52346 0.01973 0.85187 0.0
C1917 C 0.55501 0.03241 0.84689 0.0
C1918 C 0.57733 0.03339 0.86148 0.0
C1919 C 0.5679 0.02203 0.88082 0.0
C1920 C 0.49892 0.01866 0.83687 0.0
C1921 C 0.6111 0.04654 0.8567 0.0
H1922 H 0.55438 0.02108 0.77883 0.0
H1923 H 0.57152 0.10574 0.79876 0.0
H1924 H 0.5697 0.99395 0.82732 0.0
H1925 H 0.53025 0.98089 0.81875 0.0
H1926 H 0.55888 0.98554 0.80138 0.0
H1927 H 0.58436 0.1192 0.83276 0.0
H1928 H 0.55112 0.08929 0.8443 0.0
H1929 H 0.58913 0.09443 0.85086 0.0
H1930 H 0.49061 0.9991 0.87501 0.0
H1931 H 0.58492 0.02276 0.89204 0.0
H1932 H 0.49859 0.00674 0.82347 0.0
H1933 H 0.50442 0.0416 0.83201 0.0
H1934 H 0.47533 0.00741 0.84299 0.0
H1935 H 0.6135 0.03517 0.84383 0.0
H1936 H 0.62537 0.04468 0.8695 0.0
H1937 H 0.62056 0.07038 0.85234 0.0
C1938 C 0.14385 0.24374 0.56114 0.0
C1939 C 0.1391 0.25788 0.57675 0.0
C1940 C 0.15729 0.25963 0.5436 0.0
C1941 C 0.16633 0.29036 0.54191 0.0
C1942 C 0.16358 0.30507 0.55832 0.0
C1943 C 0.1498 0.28854 0.57556 0.0
C1944 C 0.15973 0.24311 0.52643 0.0
C1945 C 0.17333 0.33785 0.55724 0.0
C1946 C 0.21434 0.33623 0.49835 0.0
C1947 C 0.19142 0.33697 0.48533 0.0
C1948 C 0.20662 0.32119 0.51688 0.0
C1949 C 0.17523 0.3063 0.52235 0.0
C1950 C 0.15202 0.30686 0.50919 0.0
C1951 C 0.16043 0.32231 0.49088 0.0
C1952 C 0.23199 0.32134 0.53065 0.0
C1953 C 0.11821 0.29096 0.51439 0.0
H1954 H 0.13532 0.21993 0.56226 0.0
H1955 H 0.14613 0.29922 0.58786 0.0
H1956 H 0.14261 0.24144 0.51442 0.0
H1957 H 0.1831 0.25536 0.52011 0.0
H1958 H 0.15518 0.22028 0.53092 0.0
H1959 H 0.17331 0.34657 0.57202 0.0
H1960 H 0.19689 0.35074 0.55124 0.0
H1961 H 0.15713 0.3417 0.54694 0.0
H1962 H 0.23835 0.3477 0.4941 0.0
H1963 H 0.14262 0.32245 0.4807 0.0
H1964 H 0.22726 0.2982 0.5341 0.0
H1965 H 0.23247 0.33145 0.54495 0.0
H1966 H 0.25525 0.3339 0.52414 0.0
H1967 H 0.1104 0.26697 0.5173 0.0
H1968 H 0.103 0.29317 0.50235 0.0
H1969 H 0.11512 0.30004 0.5282 0.0
C1970 C 0.76879 0.85837 0.57156 0.0
C1971 C 0.74941 0.86113 0.58477 0.0
C1972 C 0.75843 0.84955 0.55189 0.0
C1973 C 0.72812 0.84367 0.5454 0.0
C1974 C 0.70777 0.8442 0.55926 0.0
C1975 C 0.71867 0.85277 0.57882 0.0
C1976 C 0.78067 0.84872 0.5377 0.0
C1977 C 0.67532 0.83815 0.55307 0.0
C1978 C 0.71405 0.86407 0.49229 0.0
C1979 C 0.69668 0.83609 0.48376 0.0
C1980 C 0.72512 0.86678 0.51217 0.0
C1981 C 0.71894 0.84088 0.5238 0.0
C1982 C 0.7023 0.81259 0.5151 0.0
C1983 C 0.69116 0.81051 0.49521 0.0
C1984 C 0.74251 0.89738 0.52091 0.0
C1985 C 0.69566 0.78453 0.52693 0.0
H1986 H 0.79263 0.86503 0.57624 0.0
H1987 H 0.7038 0.85485 0.58921 0.0
H1988 H 0.76886 0.82872 0.52839 0.0
H1989 H 0.7891 0.86853 0.52754 0.0
H1990 H 0.80107 0.84876 0.54569 0.0
H1991 H 0.66142 0.83629 0.56604 0.0
H1992 H 0.67657 0.85653 0.54309 0.0
H1993 H 0.66301 0.81732 0.54462 0.0
H1994 H 0.7181 0.88388 0.4836 0.0
H1995 H 0.67805 0.78884 0.48861 0.0
H1996 H 0.76539 0.90126 0.52731 0.0
H1997 H 0.72932 0.899 0.5332 0.0
H1998 H 0.74633 0.91532 0.50969 0.0
H1999 H 0.7174 0.7865 0.53411 0.0
H2000 H 0.68488 0.76455 0.51753 0.0
H2001 H 0.67972 0.78119 0.53898 0.0
C2002 C 0.12447 0.85745 0.57304 0.0
C2003 C 0.10144 0.8648 0.57713 0.0
C2004 C 0.12489 0.84608 0.55458 0.0
C2005 C 0.10136 0.84153 0.53987 0.0
C2006 C 0.07645 0.84641 0.54463 0.0
C2007 C 0.07688 0.85818 0.56322 0.0
C2008 C 0.1519 0.84121 0.5503 0.0
C2009 C 0.05049 0.84118 0.52963 0.0
C2010 C 0.12912 0.85332 0.48687 0.0
C2011 C 0.12002 0.8242 0.48126 0.0
C2012 C 0.12206 0.8591 0.50558 0.0
C2013 C 0.10512 0.83515 0.51902 0.0
C2014 C 0.09451 0.8056 0.51305 0.0
C2015 C 0.10231 0.80048 0.49433 0.0
C2016 C 0.13406 0.89099 0.51132 0.0
C2017 C 0.07584 0.77942 0.5267 0.0
H2018 H 0.14332 0.86249 0.58392 0.0
H2019 H 0.05917 0.86405 0.56638 0.0
H2020 H 0.1435 0.81893 0.54401 0.0
H2021 H 0.16649 0.85798 0.53904 0.0
H2022 H 0.16667 0.84316 0.56385 0.0
H2023 H 0.03039 0.8408 0.53666 0.0
H2024 H 0.05905 0.85926 0.51809 0.0
H2025 H 0.04247 0.81987 0.522 0.0
H2026 H 0.14302 0.87179 0.47697 0.0
H2027 H 0.09483 0.77789 0.48999 0.0
H2028 H 0.15115 0.89636 0.52401 0.0
H2029 H 0.11477 0.8942 0.51627 0.0
H2030 H 0.14544 0.90697 0.49884 0.0
H2031 H 0.09076 0.77909 0.53958 0.0
H2032 H 0.06623 0.7579 0.51903 0.0
H2033 H 0.0564 0.78147 0.53268 0.0
C2034 C 0.60816 0.82338 0.11805 0.0
C2035 C 0.57692 0.80173 0.11726 0.0
C2036 C 0.62332 0.83524 0.13631 0.0
C2037 C 0.60658 0.82519 0.15404 0.0
C2038 C 0.57436 0.80487 0.153 0.0
C2039 C 0.55993 0.79326 0.13455 0.0
C2040 C 0.65766 0.85682 0.13677 0.0
C2041 C 0.55556 0.79389 0.17148 0.0
C2042 C 0.64992 0.82169 0.20163 0.0
C2043 C 0.65422 0.84691 0.21148 0.0
C2044 C 0.63474 0.81464 0.18285 0.0
C2045 C 0.62333 0.83312 0.17375 0.0
C2046 C 0.62762 0.85865 0.18361 0.0
C2047 C 0.64318 0.86533 0.20234 0.0
C2048 C 0.63087 0.78734 0.17274 0.0
C2049 C 0.61546 0.87865 0.17447 0.0
H2050 H 0.62107 0.82961 0.10453 0.0
H2051 H 0.53567 0.77654 0.13368 0.0
H2052 H 0.66299 0.87614 0.14601 0.0
H2053 H 0.6705 0.84565 0.14364 0.0
H2054 H 0.66638 0.86507 0.12162 0.0
H2055 H 0.53025 0.78121 0.16788 0.0
H2056 H 0.56251 0.77914 0.1804 0.0
H2057 H 0.56014 0.81281 0.18092 0.0
H2058 H 0.65876 0.80761 0.20855 0.0
H2059 H 0.6462 0.88469 0.21003 0.0
H2060 H 0.64157 0.79366 0.15798 0.0
H2061 H 0.60585 0.77157 0.17015 0.0
H2062 H 0.6416 0.77564 0.18166 0.0
H2063 H 0.62535 0.88714 0.15964 0.0
H2064 H 0.62112 0.89791 0.18392 0.0
H2065 H 0.58988 0.8658 0.17217 0.0
C2066 C 0.2548 0.81799 0.13433 0.0
C2067 C 0.24102 0.82423 0.11732 0.0
C2068 C 0.24969 0.82446 0.15344 0.0
C2069 C 0.23037 0.83756 0.15553 0.0
C2070 C 0.21883 0.84636 0.13819 0.0
C2071 C 0.22415 0.83941 0.11932 0.0
C2072 C 0.26258 0.81471 0.17141 0.0
C2073 C 0.19844 0.86064 0.13956 0.0
C2074 C 0.17928 0.81494 0.2006 0.0
C2075 C 0.19482 0.83981 0.21272 0.0
C2076 C 0.19089 0.81386 0.18219 0.0
C2077 C 0.21878 0.83831 0.17553 0.0
C2078 C 0.23479 0.86338 0.18776 0.0
C2079 C 0.2227 0.86381 0.20618 0.0
C2080 C 0.17313 0.78652 0.16977 0.0
C2081 C 0.26442 0.88996 0.18121 0.0
H2082 H 0.26716 0.80557 0.13275 0.0
H2083 H 0.21296 0.84358 0.10616 0.0
H2084 H 0.2724 0.83226 0.18272 0.0
H2085 H 0.24355 0.7946 0.17836 0.0
H2086 H 0.28087 0.8093 0.16741 0.0
H2087 H 0.19527 0.87013 0.12498 0.0
H2088 H 0.17527 0.84372 0.14465 0.0
H2089 H 0.20841 0.87856 0.15061 0.0
H2090 H 0.15804 0.79609 0.20559 0.0
H2091 H 0.23477 0.88327 0.2153 0.0
H2092 H 0.18831 0.77687 0.16665 0.0
H2093 H 0.16571 0.79266 0.15523 0.0
H2094 H 0.15221 0.76915 0.17721 0.0
H2095 H 0.28169 0.88293 0.17777 0.0
H2096 H 0.27476 0.90726 0.19272 0.0
H2097 H 0.25976 0.9 0.16736 0.0
C2098 C 0.2256 0.40084 0.12893 0.0
C2099 C 0.246 0.43141 0.12777 0.0
C2100 C 0.22237 0.38477 0.14688 0.0
C2101 C 0.24012 0.39981 0.16397 0.0
C2102 C 0.26343 0.42995 0.16215 0.0
C2103 C 0.26606 0.44547 0.14396 0.0
C2104 C 0.19748 0.35263 0.14803 0.0
C2105 C 0.28323 0.4467 0.17989 0.0
C2106 C 0.19639 0.37527 0.21183 0.0
C2107 C 0.20791 0.35736 0.22111 0.0
C2108 C 0.20716 0.38952 0.19342 0.0
C2109 C 0.23013 0.38587 0.18401 0.0
C2110 C 0.24219 0.36812 0.19339 0.0
C2111 C 0.23083 0.35395 0.21182 0.0
C2112 C 0.19343 0.40806 0.18386 0.0
C2113 C 0.26685 0.36395 0.18388 0.0
H2114 H 0.21029 0.39018 0.11623 0.0
H2115 H 0.28175 0.46919 0.1429 0.0
H2116 H 0.20583 0.33904 0.15703 0.0
H2117 H 0.17712 0.35108 0.15542 0.0
H2118 H 0.1897 0.34297 0.13303 0.0
H2119 H 0.3041 0.46747 0.17529 0.0
H2120 H 0.26939 0.45278 0.18928 0.0
H2121 H 0.29075 0.43271 0.18919 0.0
H2122 H 0.17844 0.3777 0.21882 0.0
H2123 H 0.24008 0.34041 0.21908 0.0
H2124 H 0.18138 0.39829 0.16953 0.0
H2125 H 0.21211 0.43094 0.18055 0.0
H2126 H 0.17657 0.40948 0.19347 0.0
H2127 H 0.25775 0.35274 0.16947 0.0
H2128 H 0.27476 0.35049 0.19349 0.0
H2129 H 0.28718 0.3859 0.18065 0.0
C2130 C 0.82527 0.60831 0.91013 0.0
C2131 C 0.82157 0.6273 0.92262 0.0
C2132 C 0.83525 0.61745 0.89063 0.0
C2133 C 0.8411 0.64605 0.88349 0.0
C2134 C 0.83887 0.6658 0.89646 0.0
C2135 C 0.8293 0.6562 0.91593 0.0
C2136 C 0.83777 0.59589 0.87737 0.0
C2137 C 0.84471 0.6964 0.88944 0.0
C2138 C 0.88097 0.67942 0.83475 0.0
C2139 C 0.85545 0.67285 0.82162 0.0
C2140 C 0.87672 0.6701 0.85486 0.0
C2141 C 0.84628 0.65425 0.862 0.0
C2142 C 0.82046 0.64728 0.84873 0.0
C2143 C 0.82537 0.65655 0.8287 0.0
C2144 C 0.90476 0.67752 0.86851 0.0
C2145 C 0.78761 0.63069 0.85579 0.0
H2146 H 0.81886 0.58582 0.91527 0.0
H2147 H 0.82649 0.67077 0.92576 0.0
H2148 H 0.81836 0.58772 0.86606 0.0
H2149 H 0.85972 0.60709 0.86927 0.0
H2150 H 0.83685 0.57641 0.88591 0.0
H2151 H 0.84451 0.70986 0.90181 0.0
H2152 H 0.86739 0.70856 0.88223 0.0
H2153 H 0.82651 0.6943 0.87813 0.0
H2154 H 0.90425 0.69177 0.82926 0.0
H2155 H 0.8056 0.65173 0.81865 0.0
H2156 H 0.90267 0.657 0.87612 0.0
H2157 H 0.90605 0.69259 0.88023 0.0
H2158 H 0.92675 0.68844 0.8604 0.0
H2159 H 0.78309 0.60901 0.86278 0.0
H2160 H 0.77009 0.62652 0.84349 0.0
H2161 H 0.78439 0.64364 0.8673 0.0
C2162 C 0.43948 0.19554 0.90273 0.0
C2163 C 0.42148 0.19777 0.91724 0.0
C2164 C 0.4269 0.18622 0.88345 0.0
C2165 C 0.3957 0.17919 0.87871 0.0
C2166 C 0.37685 0.17915 0.89389 0.0
C2167 C 0.38999 0.18832 0.913 0.0
C2168 C 0.44767 0.18613 0.86783 0.0
C2169 C 0.3435 0.17177 0.88958 0.0
C2170 C 0.37469 0.1971 0.8265 0.0
C2171 C 0.35786 0.16881 0.81831 0.0
C2172 C 0.38758 0.20074 0.84597 0.0
C2173 C 0.3838 0.17548 0.85757 0.0
C2174 C 0.36745 0.1469 0.84926 0.0
C2175 C 0.35454 0.14388 0.82977 0.0
C2176 C 0.40462 0.23162 0.85431 0.0
C2177 C 0.36323 0.1195 0.86104 0.0
H2178 H 0.4639 0.20308 0.90607 0.0
H2179 H 0.37621 0.19002 0.92438 0.0
H2180 H 0.43548 0.16578 0.85887 0.0
H2181 H 0.45388 0.20554 0.8575 0.0
H2182 H 0.46945 0.18743 0.8745 0.0
H2183 H 0.33111 0.16951 0.9034 0.0
H2184 H 0.34279 0.1897 0.88003 0.0
H2185 H 0.33086 0.15079 0.88132 0.0
H2186 H 0.37708 0.21642 0.81783 0.0
H2187 H 0.34191 0.12198 0.82344 0.0
H2188 H 0.42846 0.23676 0.85945 0.0
H2189 H 0.39256 0.23277 0.86742 0.0
H2190 H 0.40621 0.249 0.84321 0.0
H2191 H 0.38608 0.12233 0.86673 0.0
H2192 H 0.35155 0.09912 0.85205 0.0
H2193 H 0.34915 0.11626 0.87417 0.0
C2194 C 0.76388 0.21946 0.89322 0.0
C2195 C 0.77021 0.20861 0.91138 0.0
C2196 C 0.76606 0.20832 0.87509 0.0
C2197 C 0.7746 0.18559 0.87517 0.0
C2198 C 0.77808 0.17263 0.89358 0.0
C2199 C 0.7759 0.18439 0.91152 0.0
C2200 C 0.76201 0.22278 0.8559 0.0
C2201 C 0.78671 0.14809 0.89439 0.0
C2202 C 0.77203 0.15114 0.82557 0.0
C2203 C 0.80308 0.16756 0.82005 0.0
C2204 C 0.76239 0.1563 0.84361 0.0
C2205 C 0.78423 0.17862 0.85633 0.0
C2206 C 0.81557 0.19524 0.8508 0.0
C2207 C 0.8246 0.18944 0.83281 0.0
C2208 C 0.72886 0.13795 0.84903 0.0
C2209 C 0.8396 0.21951 0.86377 0.0
H2210 H 0.75946 0.23821 0.89326 0.0
H2211 H 0.781 0.17622 0.92562 0.0
H2212 H 0.78503 0.23684 0.84941 0.0
H2213 H 0.74745 0.20573 0.84487 0.0
H2214 H 0.75123 0.23703 0.85824 0.0
H2215 H 0.78351 0.13719 0.90938 0.0
H2216 H 0.77262 0.131 0.88327 0.0
H2217 H 0.81144 0.15749 0.89068 0.0
H2218 H 0.75532 0.13399 0.81588 0.0
H2219 H 0.84851 0.20249 0.82854 0.0
H2220 H 0.71836 0.15264 0.85045 0.0
H2221 H 0.72735 0.12658 0.8637 0.0
H2222 H 0.71491 0.12094 0.8378 0.0
H2223 H 0.83272 0.23688 0.86565 0.0
H2224 H 0.86303 0.2302 0.85744 0.0
H2225 H 0.84101 0.21025 0.8788 0.0
C2226 C 0.28456 0.15228 0.45106 0.0
C2227 C 0.25248 0.13844 0.44738 0.0
C2228 C 0.29749 0.16347 0.46987 0.0
C2229 C 0.27763 0.15998 0.48541 0.0
C2230 C 0.24526 0.1476 0.48132 0.0
C2231 C 0.23306 0.13707 0.46222 0.0
C2232 C 0.33214 0.17696 0.47346 0.0
C2233 C 0.22324 0.1432 0.49747 0.0
C2234 C 0.30628 0.1477 0.53666 0.0
C2235 C 0.31732 0.17551 0.54523 0.0
C2236 C 0.29264 0.14225 0.51741 0.0
C2237 C 0.29025 0.1653 0.50632 0.0
C2238 C 0.30092 0.19334 0.51499 0.0
C2239 C 0.31417 0.19806 0.53444 0.0
C2240 C 0.28114 0.11188 0.50884 0.0
C2241 C 0.29906 0.2185 0.50356 0.0
H2242 H 0.29929 0.15294 0.43943 0.0
H2243 H 0.20819 0.1259 0.45922 0.0
H2244 H 0.34128 0.19774 0.48191 0.0
H2245 H 0.33741 0.16119 0.48254 0.0
H2246 H 0.34457 0.18202 0.45933 0.0
H2247 H 0.19961 0.13731 0.49132 0.0
H2248 H 0.2215 0.12497 0.5078 0.0
H2249 H 0.23204 0.16357 0.50631 0.0
H2250 H 0.30824 0.13009 0.54509 0.0
H2251 H 0.32283 0.21963 0.54101 0.0
H2252 H 0.29449 0.11377 0.49559 0.0
H2253 H 0.2564 0.1025 0.50385 0.0
H2254 H 0.28339 0.096 0.51974 0.0
H2255 H 0.31371 0.22485 0.49036 0.0
H2256 H 0.30692 0.23845 0.51276 0.0
H2257 H 0.2749 0.21128 0.49799 0.0
C2258 C 0.89348 0.16881 0.45588 0.0
C2259 C 0.91353 0.15703 0.45365 0.0
C2260 C 0.88831 0.17594 0.47473 0.0
C2261 C 0.90357 0.1711 0.49187 0.0
C2262 C 0.9259 0.16159 0.48944 0.0
C2263 C 0.93051 0.15456 0.47034 0.0
C2264 C 0.86439 0.18605 0.47643 0.0
C2265 C 0.94298 0.15639 0.50717 0.0
C2266 C 0.89517 0.2001 0.5413 0.0
C2267 C 0.87039 0.1747 0.54969 0.0
C2268 C 0.90679 0.19919 0.52278 0.0
C2269 C 0.89319 0.17232 0.51222 0.0
C2270 C 0.86845 0.14654 0.52074 0.0
C2271 C 0.85749 0.14802 0.53931 0.0
C2272 C 0.93338 0.22708 0.51441 0.0
C2273 C 0.85302 0.11742 0.51 0.0
H2274 H 0.87987 0.17003 0.44299 0.0
H2275 H 0.94544 0.14477 0.46866 0.0
H2276 H 0.84331 0.16778 0.48312 0.0
H2277 H 0.87327 0.20532 0.48635 0.0
H2278 H 0.85761 0.19238 0.46171 0.0
H2279 H 0.96293 0.15382 0.50268 0.0
H2280 H 0.95157 0.17502 0.51762 0.0
H2281 H 0.92684 0.13582 0.51534 0.0
H2282 H 0.90561 0.22075 0.54927 0.0
H2283 H 0.83813 0.12835 0.54546 0.0
H2284 H 0.92566 0.23398 0.50028 0.0
H2285 H 0.95258 0.22272 0.51091 0.0
H2286 H 0.94247 0.2458 0.52486 0.0
H2287 H 0.84249 0.12016 0.49557 0.0
H2288 H 0.83461 0.09924 0.5188 0.0
H2289 H 0.87052 0.11064 0.50665 0.0
C2290 C 0.93974 0.7859 0.48091 0.0
C2291 C 0.91806 0.7742 0.46508 0.0
C2292 C 0.9366 0.76895 0.49853 0.0
C2293 C 0.91102 0.73989 0.50018 0.0
C2294 C 0.89115 0.72704 0.48332 0.0
C2295 C 0.89506 0.74439 0.4659 0.0
C2296 C 0.95879 0.78323 0.51597 0.0
C2297 C 0.86365 0.69617 0.4843 0.0
C2298 C 0.8982 0.68885 0.5458 0.0
C2299 C 0.87814 0.69471 0.55649 0.0
C2300 C 0.91016 0.70414 0.52773 0.0
C2301 C 0.90136 0.72531 0.52011 0.0
C2302 C 0.88137 0.73147 0.53102 0.0
C2303 C 0.87016 0.71621 0.54908 0.0
C2304 C 0.93179 0.69735 0.51668 0.0
C2305 C 0.87106 0.75362 0.52335 0.0
H2306 H 0.95754 0.80901 0.48008 0.0
H2307 H 0.87858 0.73552 0.45343 0.0
H2308 H 0.94753 0.79043 0.52669 0.0
H2309 H 0.96486 0.76717 0.5239 0.0
H2310 H 0.98046 0.80305 0.51122 0.0
H2311 H 0.85358 0.68783 0.46927 0.0
H2312 H 0.87026 0.68029 0.49192 0.0
H2313 H 0.84539 0.69658 0.49305 0.0
H2314 H 0.90466 0.67245 0.55163 0.0
H2315 H 0.85441 0.72057 0.5572 0.0
H2316 H 0.95312 0.71824 0.51299 0.0
H2317 H 0.92042 0.6867 0.50242 0.0
H2318 H 0.93852 0.68228 0.52543 0.0
H2319 H 0.89155 0.77562 0.52053 0.0
H2320 H 0.85619 0.75646 0.53393 0.0
H2321 H 0.8578 0.74614 0.50898 0.0
loop_
_geom_bond_atom_site_label_1
_geom_bond_atom_site_label_2
_geom_bond_distance
_geom_bond_site_symmetry_2
_ccdc_geom_bond_type
C0 N1 1.317 . S
C0 N2 1.348 . S
C0 C3 1.485 . S
N1 C0 1.317 . S
N1 N5 1.370 . S
N2 C0 1.348 . S
N2 C4 1.346 . S
C3 C0 1.485 . S
C3 H7 0.960 . S
C3 H8 0.961 . S
C3 H9 0.960 . S
C4 N2 1.346 . S
C4 N5 1.307 . S
C4 C6 1.486 . S
N5 N1 1.370 . S
N5 C4 1.307 . S
C6 C4 1.486 . S
C6 H10 0.960 . S
C6 H11 0.960 . S
C6 H12 0.959 . S
H7 C3 0.960 . S
H8 C3 0.961 . S
H9 C3 0.960 . S
H10 C6 0.960 . S
H11 C6 0.960 . S
H12 C6 0.959 . S
C13 N14 1.317 . S
C13 N15 1.348 . S
C13 C16 1.485 . S
N14 C13 1.317 . S
N14 N18 1.370 . S
N15 C13 1.348 . S
N15 C17 1.346 . S
C16 C13 1.485 . S
C16 H20 0.960 . S
C16 H21 0.961 . S
C16 H22 0.960 . S
C17 N15 1.346 . S
C17 N18 1.307 . S
C17 C19 1.486 . S
N18 N14 1.370 . S
N18 C17 1.307 . S
C19 C17 1.486 . S
C19 H23 0.960 . S
C19 H24 0.960 . S
C19 H25 0.959 . S
H20 C16 0.960 . S
H21 C16 0.961 . S
H22 C16 0.960 . S
H23 C19 0.960 . S
H24 C19 0.960 . S
H25 C19 0.959 . S
C26 N27 1.317 . S
C26 N28 1.348 . S
C26 C29 1.485 . S
N27 C26 1.317 . S
N27 N31 1.370 . S
N28 C26 1.348 . S
N28 C30 1.346 . S
C29 C26 1.485 . S
C29 H33 0.960 . S
C29 H34 0.961 . S
C29 H35 0.960 . S
C30 N28 1.346 . S
C30 N31 1.307 . S
C30 C32 1.486 . S
N31 N27 1.370 . S
N31 C30 1.307 . S
C32 C30 1.486 . S
C32 H36 0.960 . S
C32 H37 0.960 . S
C32 H38 0.959 . S
H33 C29 0.960 . S
H34 C29 0.961 . S
H35 C29 0.960 . S
H36 C32 0.960 . S
H37 C32 0.960 . S
H38 C32 0.959 . S
C39 N40 1.317 . S
C39 N41 1.348 . S
C39 C42 1.485 . S
N40 C39 1.317 . S
N40 N44 1.370 . S
N41 C39 1.348 . S
N41 C43 1.346 . S
C42 C39 1.485 . S
C42 H46 0.960 . S
C42 H47 0.961 . S
C42 H48 0.960 . S
C43 N41 1.346 . S
C43 N44 1.307 . S
C43 C45 1.486 . S
N44 N40 1.370 . S
N44 C43 1.307 . S
C45 C43 1.486 . S
C45 H49 0.960 . S
C45 H50 0.960 . S
C45 H51 0.959 . S
H46 C42 0.960 . S
H47 C42 0.961 . S
H48 C42 0.960 . S
H49 C45 0.960 . S
H50 C45 0.960 . S
H51 C45 0.959 . S
C52 N53 1.317 . S
C52 N54 1.348 . S
C52 C55 1.485 . S
N53 C52 1.317 . S
N53 N57 1.370 . S
N54 C52 1.348 . S
N54 C56 1.346 . S
C55 C52 1.485 . S
C55 H59 0.960 . S
C55 H60 0.961 . S
C55 H61 0.960 . S
C56 N54 1.346 . S
C56 N57 1.307 . S
C56 C58 1.486 . S
N57 N53 1.370 . S
N57 C56 1.307 . S
C58 C56 1.486 . S
C58 H62 0.960 . S
C58 H63 0.960 . S
C58 H64 0.959 . S
H59 C55 0.960 . S
H60 C55 0.961 . S
H61 C55 0.960 . S
H62 C58 0.960 . S
H63 C58 0.960 . S
H64 C58 0.959 . S
C65 N66 1.317 . S
C65 N67 1.348 . S
C65 C68 1.485 . S
N66 C65 1.317 . S
N66 N70 1.370 . S
N67 C65 1.348 . S
N67 C69 1.346 . S
C68 C65 1.485 . S
C68 H72 0.960 . S
C68 H73 0.961 . S
C68 H74 0.960 . S
C69 N67 1.346 . S
C69 N70 1.307 . S
C69 C71 1.486 . S
N70 N66 1.370 . S
N70 C69 1.307 . S
C71 C69 1.486 . S
C71 H75 0.960 . S
C71 H76 0.960 . S
C71 H77 0.959 . S
H72 C68 0.960 . S
H73 C68 0.961 . S
H74 C68 0.960 . S
H75 C71 0.960 . S
H76 C71 0.960 . S
H77 C71 0.959 . S
C78 N79 1.317 . S
C78 N80 1.348 . S
C78 C81 1.485 . S
N79 C78 1.317 . S
N79 N83 1.370 . S
N80 C78 1.348 . S
N80 C82 1.346 . S
C81 C78 1.485 . S
C81 H85 0.960 . S
C81 H86 0.961 . S
C81 H87 0.960 . S
C82 N80 1.346 . S
C82 N83 1.307 . S
C82 C84 1.486 . S
N83 N79 1.370 . S
N83 C82 1.307 . S
C84 C82 1.486 . S
C84 H88 0.960 . S
C84 H89 0.960 . S
C84 H90 0.959 . S
H85 C81 0.960 . S
H86 C81 0.961 . S
H87 C81 0.960 . S
H88 C84 0.960 . S
H89 C84 0.960 . S
H90 C84 0.959 . S
C91 N92 1.317 . S
C91 N93 1.348 . S
C91 C94 1.485 . S
N92 C91 1.317 . S
N92 N96 1.370 . S
N93 C91 1.348 . S
N93 C95 1.346 . S
C94 C91 1.485 . S
C94 H98 0.960 . S
C94 H99 0.961 . S
C94 H100 0.960 . S
C95 N93 1.346 . S
C95 N96 1.307 . S
C95 C97 1.486 . S
N96 N92 1.370 . S
N96 C95 1.307 . S
C97 C95 1.486 . S
C97 H101 0.960 . S
C97 H102 0.960 . S
C97 H103 0.959 . S
H98 C94 0.960 . S
H99 C94 0.961 . S
H100 C94 0.960 . S
H101 C97 0.960 . S
H102 C97 0.960 . S
H103 C97 0.959 . S
C104 N105 1.317 . S
C104 N106 1.348 . S
C104 C107 1.485 . S
N105 C104 1.317 . S
N105 N109 1.370 . S
N106 C104 1.348 . S
N106 C108 1.346 . S
C107 C104 1.485 . S
C107 H111 0.960 . S
C107 H112 0.961 . S
C107 H113 0.960 . S
C108 N106 1.346 . S
C108 N109 1.307 . S
C108 C110 1.486 . S
N109 N105 1.370 . S
N109 C108 1.307 . S
C110 C108 1.486 . S
C110 H114 0.960 . S
C110 H115 0.960 . S
C110 H116 0.959 . S
H111 C107 0.960 . S
H112 C107 0.961 . S
H113 C107 0.960 . S
H114 C110 0.960 . S
H115 C110 0.960 . S
H116 C110 0.959 . S
C117 N118 1.317 . S
C117 N119 1.348 . S
C117 C120 1.485 . S
N118 C117 1.317 . S
N118 N122 1.370 . S
N119 C117 1.348 . S
N119 C121 1.346 . S
C120 C117 1.485 . S
C120 H124 0.960 . S
C120 H125 0.961 . S
C120 H126 0.960 . S
C121 N119 1.346 . S
C121 N122 1.307 . S
C121 C123 1.486 . S
N122 N118 1.370 . S
N122 C121 1.307 . S
C123 C121 1.486 . S
C123 H127 0.960 . S
C123 H128 0.960 . S
C123 H129 0.959 . S
H124 C120 0.960 . S
H125 C120 0.961 . S
H126 C120 0.960 . S
H127 C123 0.960 . S
H128 C123 0.960 . S
H129 C123 0.959 . S
C130 N131 1.317 . S
C130 N132 1.348 . S
C130 C133 1.485 1_556 S
N131 C130 1.317 . S
N131 N135 1.370 . S
N132 C130 1.348 . S
N132 C134 1.346 . S
C133 C130 1.485 1_554 S
C133 H137 0.960 . S
C133 H138 0.961 . S
C133 H139 0.960 . S
C134 N132 1.346 . S
C134 N135 1.307 . S
C134 C136 1.486 . S
N135 N131 1.370 . S
N135 C134 1.307 . S
C136 C134 1.486 . S
C136 H140 0.960 . S
C136 H141 0.960 . S
C136 H142 0.959 . S
H137 C133 0.960 . S
H138 C133 0.961 . S
H139 C133 0.960 . S
H140 C136 0.960 . S
H141 C136 0.960 . S
H142 C136 0.959 . S
C143 N144 1.317 . S
C143 N145 1.348 . S
C143 C146 1.485 1_556 S
N144 C143 1.317 . S
N144 N148 1.370 . S
N145 C143 1.348 . S
N145 C147 1.346 . S
C146 C143 1.485 1_554 S
C146 H150 0.960 . S
C146 H151 0.961 . S
C146 H152 0.960 . S
C147 N145 1.346 . S
C147 N148 1.307 . S
C147 C149 1.486 . S
N148 N144 1.370 . S
N148 C147 1.307 . S
C149 C147 1.486 . S
C149 H153 0.960 . S
C149 H154 0.960 . S
C149 H155 0.959 . S
H150 C146 0.960 . S
H151 C146 0.961 . S
H152 C146 0.960 . S
H153 C149 0.960 . S
H154 C149 0.960 . S
H155 C149 0.959 . S
C156 N157 1.317 . S
C156 N158 1.348 . S
C156 C159 1.485 . S
N157 C156 1.317 . S
N157 N161 1.370 . S
N158 C156 1.348 . S
N158 C160 1.346 . S
C159 C156 1.485 . S
C159 H163 0.960 . S
C159 H164 0.961 1_554 S
C159 H165 0.960 . S
C160 N158 1.346 . S
C160 N161 1.307 . S
C160 C162 1.486 . S
N161 N157 1.370 . S
N161 C160 1.307 . S
C162 C160 1.486 . S
C162 H166 0.960 . S
C162 H167 0.960 . S
C162 H168 0.959 . S
H163 C159 0.960 . S
H164 C159 0.961 1_556 S
H165 C159 0.960 . S
H166 C162 0.960 . S
H167 C162 0.960 . S
H168 C162 0.959 . S
C169 N170 1.317 . S
C169 N171 1.348 . S
C169 C172 1.485 . S
N170 C169 1.317 . S
N170 N174 1.370 . S
N171 C169 1.348 . S
N171 C173 1.346 . S
C172 C169 1.485 . S
C172 H176 0.960 . S
C172 H177 0.961 . S
C172 H178 0.960 . S
C173 N171 1.346 . S
C173 N174 1.307 . S
C173 C175 1.486 . S
N174 N170 1.370 . S
N174 C173 1.307 . S
C175 C173 1.486 . S
C175 H179 0.960 . S
C175 H180 0.960 . S
C175 H181 0.959 . S
H176 C172 0.960 . S
H177 C172 0.961 . S
H178 C172 0.960 . S
H179 C175 0.960 . S
H180 C175 0.960 . S
H181 C175 0.959 . S
C182 N183 1.317 . S
C182 N184 1.348 . S
C182 C185 1.485 . S
N183 C182 1.317 . S
N183 N187 1.370 . S
N184 C182 1.348 . S
N184 C186 1.346 . S
C185 C182 1.485 . S
C185 H189 0.960 . S
C185 H190 0.961 . S
C185 H191 0.960 . S
C186 N184 1.346 . S
C186 N187 1.307 . S
C186 C188 1.486 . S
N187 N183 1.370 . S
N187 C186 1.307 . S
C188 C186 1.486 . S
C188 H192 0.960 . S
C188 H193 0.960 . S
C188 H194 0.959 . S
H189 C185 0.960 . S
H190 C185 0.961 . S
H191 C185 0.960 . S
H192 C188 0.960 . S
H193 C188 0.960 . S
H194 C188 0.959 . S
C195 N196 1.317 . S
C195 N197 1.348 . S
C195 C198 1.485 . S
N196 C195 1.317 . S
N196 N200 1.370 . S
N197 C195 1.348 . S
N197 C199 1.346 . S
C198 C195 1.485 . S
C198 H202 0.960 . S
C198 H203 0.961 . S
C198 H204 0.960 . S
C199 N197 1.346 . S
C199 N200 1.307 . S
C199 C201 1.486 . S
N200 N196 1.370 . S
N200 C199 1.307 . S
C201 C199 1.486 . S
C201 H205 0.960 . S
C201 H206 0.960 . S
C201 H207 0.959 . S
H202 C198 0.960 . S
H203 C198 0.961 . S
H204 C198 0.960 . S
H205 C201 0.960 . S
H206 C201 0.960 . S
H207 C201 0.959 . S
C208 N209 1.317 . S
C208 N210 1.348 . S
C208 C211 1.485 . S
N209 C208 1.317 . S
N209 N213 1.370 . S
N210 C208 1.348 . S
N210 C212 1.346 . S
C211 C208 1.485 . S
C211 H215 0.960 . S
C211 H216 0.961 . S
C211 H217 0.960 . S
C212 N210 1.346 . S
C212 N213 1.307 . S
C212 C214 1.486 . S
N213 N209 1.370 . S
N213 C212 1.307 . S
C214 C212 1.486 . S
C214 H218 0.960 . S
C214 H219 0.960 . S
C214 H220 0.959 . S
H215 C211 0.960 . S
H216 C211 0.961 . S
H217 C211 0.960 . S
H218 C214 0.960 . S
H219 C214 0.960 . S
H220 C214 0.959 . S
C221 N222 1.317 . S
C221 N223 1.348 . S
C221 C224 1.485 . S
N222 C221 1.317 . S
N222 N226 1.370 . S
N223 C221 1.348 . S
N223 C225 1.346 . S
C224 C221 1.485 . S
C224 H228 0.960 . S
C224 H229 0.961 . S
C224 H230 0.960 . S
C225 N223 1.346 . S
C225 N226 1.307 . S
C225 C227 1.486 . S
N226 N222 1.370 . S
N226 C225 1.307 . S
C227 C225 1.486 . S
C227 H231 0.960 . S
C227 H232 0.960 . S
C227 H233 0.959 . S
H228 C224 0.960 . S
H229 C224 0.961 . S
H230 C224 0.960 . S
H231 C227 0.960 . S
H232 C227 0.960 . S
H233 C227 0.959 . S
Tb234 C244 2.825 1_565 S
Tb234 O245 2.347 1_566 S
Tb234 O248 2.366 1_565 S
Tb234 O253 2.418 . S
Tb234 O254 2.384 1_556 S
Tb234 O257 2.479 . S
Tb234 O258 2.471 1_565 S
Eu235 O246 2.418 . S
Eu235 O247 2.384 . S
Eu235 O250 2.479 . S
Eu235 O251 2.471 1_545 S
Eu235 O252 2.347 1_545 S
Eu235 O255 2.366 1_545 S
Eu235 C265 2.825 1_545 S
C236 O252 1.259 . S
C236 O253 1.265 1_554 S
C237 O254 1.255 . S
C237 O255 1.265 . S
C238 C240 1.380 . S
C238 C241 1.374 . S
C238 C244 1.507 . S
C239 C240 1.384 . S
C239 C243 1.387 . S
C239 H266 0.930 . S
C240 C238 1.380 . S
C240 C239 1.384 . S
C240 H267 0.931 1_545 S
C241 C238 1.374 . S
C241 C242 1.390 . S
C241 H268 0.930 . S
C242 C241 1.390 . S
C242 C243 1.391 . S
C242 H269 0.930 . S
C243 C239 1.387 . S
C243 C242 1.391 . S
C244 Tb234 2.825 1_545 S
C244 C238 1.507 . S
C244 O257 1.238 1_545 S
C244 O258 1.247 . S
O245 Tb234 2.347 1_544 S
O245 C249 1.259 . S
O246 Eu235 2.418 . S
O246 C249 1.265 . S
O247 Eu235 2.384 . S
O247 C256 1.254 . S
O248 Tb234 2.366 1_545 S
O248 C256 1.265 1_556 S
C249 O245 1.259 . S
C249 O246 1.265 . S
O250 Eu235 2.479 . S
O250 C265 1.238 1_545 S
O251 Eu235 2.471 1_565 S
O251 C265 1.247 . S
O252 Eu235 2.347 1_565 S
O252 C236 1.259 . S
O253 Tb234 2.418 . S
O253 C236 1.265 1_556 S
O254 Tb234 2.384 1_554 S
O254 C237 1.255 . S
O255 Eu235 2.366 1_565 S
O255 C237 1.265 . S
C256 O247 1.254 . S
C256 O248 1.265 1_554 S
O257 Tb234 2.479 . S
O257 C244 1.238 1_565 S
O258 Tb234 2.471 1_545 S
O258 C244 1.247 . S
C259 C262 1.380 . S
C259 C263 1.374 . S
C259 C265 1.507 . S
C260 C261 1.387 . S
C260 C264 1.391 . S
C261 C260 1.387 . S
C261 C262 1.384 . S
C261 H270 0.930 . S
C262 C259 1.380 . S
C262 C261 1.384 . S
C262 H271 0.931 1_565 S
C263 C259 1.374 . S
C263 C264 1.390 . S
C263 H272 0.930 . S
C264 C260 1.391 . S
C264 C263 1.390 . S
C264 H273 0.930 . S
C265 Eu235 2.825 1_565 S
C265 O250 1.238 1_565 S
C265 O251 1.247 . S
C265 C259 1.507 . S
H266 C239 0.930 . S
H267 C240 0.931 1_565 S
H268 C241 0.930 . S
H269 C242 0.930 . S
H270 C261 0.930 . S
H271 C262 0.931 1_545 S
H272 C263 0.930 . S
H273 C264 0.930 . S
Tb274 C284 2.825 . S
Tb274 O285 2.347 1_455 S
Tb274 O288 2.366 1_455 S
Tb274 O293 2.418 . S
Tb274 O294 2.384 1_556 S
Tb274 O297 2.479 . S
Tb274 O298 2.462 1_455 S
Eu275 O286 2.418 . S
Eu275 O287 2.384 . S
Eu275 O290 2.479 . S
Eu275 O291 2.471 1_655 S
Eu275 O292 2.347 1_655 S
Eu275 O295 2.366 1_655 S
Eu275 C305 2.825 1_655 S
C276 O292 1.259 . S
C276 O293 1.265 1_554 S
C277 O294 1.255 . S
C277 O295 1.265 . S
C278 C280 1.377 1_655 S
C278 C281 1.380 . S
C278 C284 1.503 1_655 S
C279 C280 1.384 . S
C279 C283 1.387 1_455 S
C279 H306 0.930 . S
C280 C278 1.377 1_455 S
C280 C279 1.384 . S
C280 H307 0.931 . S
C281 C278 1.380 . S
C281 C282 1.390 . S
C281 H308 0.930 . S
C282 C281 1.390 . S
C282 C283 1.391 . S
C282 H309 0.930 . S
C283 C279 1.387 1_655 S
C283 C282 1.391 . S
C284 Tb274 2.825 . S
C284 C278 1.503 1_455 S
C284 O297 1.238 . S
C284 O298 1.246 1_455 S
O285 Tb274 2.347 1_655 S
O285 C289 1.259 1_556 S
O286 Eu275 2.418 . S
O286 C289 1.265 . S
O287 Eu275 2.384 . S
O287 C296 1.255 1_554 S
O288 Tb274 2.366 1_655 S
O288 C296 1.265 . S
C289 O285 1.259 1_554 S
C289 O286 1.265 . S
O290 Eu275 2.479 . S
O290 C305 1.238 1_655 S
O291 Eu275 2.471 1_455 S
O291 C305 1.247 . S
O292 Eu275 2.347 1_455 S
O292 C276 1.259 . S
O293 Tb274 2.418 . S
O293 C276 1.265 1_556 S
O294 Tb274 2.384 1_554 S
O294 C277 1.255 . S
O295 Eu275 2.366 1_455 S
O295 C277 1.265 . S
C296 O287 1.255 1_556 S
C296 O288 1.265 . S
O297 Tb274 2.479 . S
O297 C284 1.238 . S
O298 Tb274 2.462 1_655 S
O298 C284 1.246 1_655 S
C299 C302 1.375 1_455 S
C299 C303 1.374 . S
C299 C305 1.507 . S
C300 C301 1.387 . S
C300 C304 1.391 . S
C301 C300 1.387 . S
C301 C302 1.379 1_455 S
C301 H310 0.930 1_455 S
C302 C299 1.375 1_655 S
C302 C301 1.379 1_655 S
C302 H311 0.941 . S
C303 C299 1.374 . S
C303 C304 1.390 . S
C303 H312 0.930 . S
C304 C300 1.391 . S
C304 C303 1.390 . S
C304 H313 0.930 . S
C305 Eu275 2.825 1_455 S
C305 O290 1.238 1_455 S
C305 O291 1.247 . S
C305 C299 1.507 . S
H306 C279 0.930 . S
H307 C280 0.931 . S
H308 C281 0.930 . S
H309 C282 0.930 . S
H310 C301 0.930 1_655 S
H311 C302 0.941 . S
H312 C303 0.930 . S
H313 C304 0.930 . S
Tb314 C324 2.825 . S
Tb314 O325 2.347 . S
Tb314 O328 2.366 . S
Tb314 O333 2.418 . S
Tb314 O334 2.384 . S
Tb314 O337 2.479 . S
Tb314 O338 2.471 . S
Eu315 O326 2.418 . S
Eu315 O327 2.384 1_556 S
Eu315 O330 2.479 . S
Eu315 O331 2.471 . S
Eu315 O332 2.347 1_556 S
Eu315 O335 2.366 . S
Eu315 C345 2.825 . S
C316 O332 1.259 . S
C316 O333 1.265 . S
C317 O334 1.275 . S
C317 O335 1.255 1_554 S
C318 C320 1.380 . S
C318 C321 1.374 . S
C318 C324 1.507 . S
C319 C320 1.384 . S
C319 C323 1.387 . S
C319 H346 0.930 . S
C320 C318 1.380 . S
C320 C319 1.384 . S
C320 H347 0.931 . S
C321 C318 1.374 . S
C321 C322 1.390 . S
C321 H348 0.930 . S
C322 C321 1.390 . S
C322 C323 1.391 . S
C322 H349 0.930 . S
C323 C319 1.387 . S
C323 C322 1.391 . S
C324 Tb314 2.825 . S
C324 C318 1.507 . S
C324 O337 1.238 . S
C324 O338 1.247 . S
O325 Tb314 2.347 . S
O325 C329 1.259 . S
O326 Eu315 2.418 . S
O326 C329 1.265 1_556 S
O327 Eu315 2.384 1_554 S
O327 C336 1.255 . S
O328 Tb314 2.366 . S
O328 C336 1.265 . S
C329 O325 1.259 . S
C329 O326 1.265 1_554 S
O330 Eu315 2.479 . S
O330 C345 1.238 . S
O331 Eu315 2.471 . S
O331 C345 1.247 . S
O332 Eu315 2.347 1_554 S
O332 C316 1.259 . S
O333 Tb314 2.418 . S
O333 C316 1.265 . S
O334 Tb314 2.384 . S
O334 C317 1.275 . S
O335 Eu315 2.366 . S
O335 C317 1.255 1_556 S
C336 O327 1.255 . S
C336 O328 1.265 . S
O337 Tb314 2.479 . S
O337 C324 1.238 . S
O338 Tb314 2.471 . S
O338 C324 1.247 . S
C339 C342 1.380 . S
C339 C343 1.374 . S
C339 C345 1.507 . S
C340 C341 1.387 . S
C340 C344 1.391 . S
C341 C340 1.387 . S
C341 C342 1.384 . S
C341 H350 0.930 . S
C342 C339 1.380 . S
C342 C341 1.384 . S
C342 H351 0.931 . S
C343 C339 1.374 . S
C343 C344 1.390 . S
C343 H352 0.930 . S
C344 C340 1.391 . S
C344 C343 1.390 . S
C344 H353 0.930 . S
C345 Eu315 2.825 . S
C345 O330 1.238 . S
C345 O331 1.247 . S
C345 C339 1.507 . S
H346 C319 0.930 . S
H347 C320 0.931 . S
H348 C321 0.930 . S
H349 C322 0.930 . S
H350 C341 0.930 . S
H351 C342 0.931 . S
H352 C343 0.930 . S
H353 C344 0.930 . S
Tb354 C364 2.825 . S
Tb354 O365 2.347 . S
Tb354 O368 2.366 . S
Tb354 O373 2.418 . S
Tb354 O374 2.384 . S
Tb354 O377 2.479 . S
Tb354 O378 2.471 . S
Eu355 O366 2.418 . S
Eu355 O367 2.384 . S
Eu355 O370 2.479 . S
Eu355 O371 2.471 . S
Eu355 O372 2.347 . S
Eu355 O375 2.366 . S
Eu355 C385 2.825 . S
C356 O372 1.259 . S
C356 O373 1.265 . S
C357 O374 1.255 . S
C357 O375 1.265 . S
C358 C360 1.380 . S
C358 C361 1.374 . S
C358 C364 1.507 . S
C359 C360 1.384 . S
C359 C363 1.387 . S
C359 H386 0.930 . S
C360 C358 1.380 . S
C360 C359 1.384 . S
C360 H387 0.931 . S
C361 C358 1.374 . S
C361 C362 1.390 . S
C361 H388 0.930 . S
C362 C361 1.390 . S
C362 C363 1.391 . S
C362 H389 0.930 . S
C363 C359 1.387 . S
C363 C362 1.391 . S
C364 Tb354 2.825 . S
C364 C358 1.507 . S
C364 O377 1.238 . S
C364 O378 1.247 . S
O365 Tb354 2.347 . S
O365 C369 1.259 . S
O366 Eu355 2.418 . S
O366 C369 1.265 . S
O367 Eu355 2.384 . S
O367 C376 1.255 . S
O368 Tb354 2.366 . S
O368 C376 1.265 . S
C369 O365 1.259 . S
C369 O366 1.265 . S
O370 Eu355 2.479 . S
O370 C385 1.238 . S
O371 Eu355 2.471 . S
O371 C385 1.247 . S
O372 Eu355 2.347 . S
O372 C356 1.259 . S
O373 Tb354 2.418 . S
O373 C356 1.265 . S
O374 Tb354 2.384 . S
O374 C357 1.255 . S
O375 Eu355 2.366 . S
O375 C357 1.265 . S
C376 O367 1.255 . S
C376 O368 1.265 . S
O377 Tb354 2.479 . S
O377 C364 1.238 . S
O378 Tb354 2.471 . S
O378 C364 1.247 . S
C379 C382 1.380 . S
C379 C383 1.374 . S
C379 C385 1.507 . S
C380 C381 1.387 . S
C380 C384 1.391 . S
C381 C380 1.387 . S
C381 C382 1.384 . S
C381 H390 0.930 . S
C382 C379 1.380 . S
C382 C381 1.384 . S
C382 H391 0.931 . S
C383 C379 1.374 . S
C383 C384 1.390 . S
C383 H392 0.930 . S
C384 C380 1.391 . S
C384 C383 1.390 . S
C384 H393 0.930 . S
C385 Eu355 2.825 . S
C385 O370 1.238 . S
C385 O371 1.247 . S
C385 C379 1.507 . S
H386 C359 0.930 . S
H387 C360 0.931 . S
H388 C361 0.930 . S
H389 C362 0.930 . S
H390 C381 0.930 . S
H391 C382 0.931 . S
H392 C383 0.930 . S
H393 C384 0.930 . S
Tb394 C404 2.825 . S
Tb394 O405 2.347 . S
Tb394 O408 2.366 . S
Tb394 O413 2.418 . S
Tb394 O414 2.384 . S
Tb394 O417 2.479 . S
Tb394 O418 2.471 . S
Eu395 O406 2.418 . S
Eu395 O407 2.384 . S
Eu395 O410 2.479 . S
Eu395 O411 2.471 . S
Eu395 O412 2.347 . S
Eu395 O415 2.366 . S
Eu395 C425 2.825 . S
C396 O412 1.259 . S
C396 O413 1.265 . S
C397 O414 1.255 . S
C397 O415 1.265 . S
C398 C400 1.380 . S
C398 C401 1.374 . S
C398 C404 1.507 . S
C399 C400 1.384 . S
C399 C403 1.387 . S
C399 H426 0.930 . S
C400 C398 1.380 . S
C400 C399 1.384 . S
C400 H427 0.931 . S
C401 C398 1.374 . S
C401 C402 1.390 . S
C401 H428 0.930 . S
C402 C401 1.390 . S
C402 C403 1.391 . S
C402 H429 0.930 . S
C403 C399 1.387 . S
C403 C402 1.391 . S
C404 Tb394 2.825 . S
C404 C398 1.507 . S
C404 O417 1.238 . S
C404 O418 1.247 . S
O405 Tb394 2.347 . S
O405 C409 1.259 . S
O406 Eu395 2.418 . S
O406 C409 1.265 . S
O407 Eu395 2.384 . S
O407 C416 1.255 . S
O408 Tb394 2.366 . S
O408 C416 1.265 . S
C409 O405 1.259 . S
C409 O406 1.265 . S
O410 Eu395 2.479 . S
O410 C425 1.238 . S
O411 Eu395 2.471 . S
O411 C425 1.247 . S
O412 Eu395 2.347 . S
O412 C396 1.259 . S
O413 Tb394 2.418 . S
O413 C396 1.265 . S
O414 Tb394 2.384 . S
O414 C397 1.255 . S
O415 Eu395 2.366 . S
O415 C397 1.265 . S
C416 O407 1.255 . S
C416 O408 1.265 . S
O417 Tb394 2.479 . S
O417 C404 1.238 . S
O418 Tb394 2.471 . S
O418 C404 1.247 . S
C419 C422 1.380 . S
C419 C423 1.374 . S
C419 C425 1.507 . S
C420 C421 1.387 . S
C420 C424 1.391 . S
C421 C420 1.387 . S
C421 C422 1.384 . S
C421 H430 0.930 . S
C422 C419 1.380 . S
C422 C421 1.384 . S
C422 H431 0.931 . S
C423 C419 1.374 . S
C423 C424 1.390 . S
C423 H432 0.930 . S
C424 C420 1.391 . S
C424 C423 1.390 . S
C424 H433 0.930 . S
C425 Eu395 2.825 . S
C425 O410 1.238 . S
C425 O411 1.247 . S
C425 C419 1.507 . S
H426 C399 0.930 . S
H427 C400 0.931 . S
H428 C401 0.930 . S
H429 C402 0.930 . S
H430 C421 0.930 . S
H431 C422 0.931 . S
H432 C423 0.930 . S
H433 C424 0.930 . S
Tb434 C444 2.825 . S
Tb434 O445 2.347 . S
Tb434 O448 2.366 . S
Tb434 O453 2.418 . S
Tb434 O454 2.384 . S
Tb434 O457 2.479 . S
Tb434 O458 2.471 . S
Eu435 O446 2.418 . S
Eu435 O447 2.384 . S
Eu435 O450 2.479 . S
Eu435 O451 2.471 . S
Eu435 O452 2.347 . S
Eu435 O455 2.366 . S
Eu435 C465 2.825 . S
C436 O452 1.259 . S
C436 O453 1.265 . S
C437 O454 1.255 . S
C437 O455 1.265 . S
C438 C440 1.380 . S
C438 C441 1.374 . S
C438 C444 1.507 . S
C439 C440 1.384 . S
C439 C443 1.387 . S
C439 H466 0.930 . S
C440 C438 1.380 . S
C440 C439 1.384 . S
C440 H467 0.931 . S
C441 C438 1.374 . S
C441 C442 1.390 . S
C441 H468 0.930 . S
C442 C441 1.390 . S
C442 C443 1.391 . S
C442 H469 0.930 . S
C443 C439 1.387 . S
C443 C442 1.391 . S
C444 Tb434 2.825 . S
C444 C438 1.507 . S
C444 O457 1.238 . S
C444 O458 1.247 . S
O445 Tb434 2.347 . S
O445 C449 1.259 . S
O446 Eu435 2.418 . S
O446 C449 1.265 . S
O447 Eu435 2.384 . S
O447 C456 1.255 . S
O448 Tb434 2.366 . S
O448 C456 1.265 . S
C449 O445 1.259 . S
C449 O446 1.265 . S
O450 Eu435 2.479 . S
O450 C465 1.238 . S
O451 Eu435 2.471 . S
O451 C465 1.247 . S
O452 Eu435 2.347 . S
O452 C436 1.259 . S
O453 Tb434 2.418 . S
O453 C436 1.265 . S
O454 Tb434 2.384 . S
O454 C437 1.255 . S
O455 Eu435 2.366 . S
O455 C437 1.265 . S
C456 O447 1.255 . S
C456 O448 1.265 . S
O457 Tb434 2.479 . S
O457 C444 1.238 . S
O458 Tb434 2.471 . S
O458 C444 1.247 . S
C459 C462 1.380 . S
C459 C463 1.374 . S
C459 C465 1.507 . S
C460 C461 1.387 . S
C460 C464 1.391 . S
C461 C460 1.387 . S
C461 C462 1.384 . S
C461 H470 0.930 . S
C462 C459 1.380 . S
C462 C461 1.384 . S
C462 H471 0.931 . S
C463 C459 1.374 . S
C463 C464 1.390 . S
C463 H472 0.930 . S
C464 C460 1.391 . S
C464 C463 1.390 . S
C464 H473 0.930 . S
C465 Eu435 2.825 . S
C465 O450 1.238 . S
C465 O451 1.247 . S
C465 C459 1.507 . S
H466 C439 0.930 . S
H467 C440 0.931 . S
H468 C441 0.930 . S
H469 C442 0.930 . S
H470 C461 0.930 . S
H471 C462 0.931 . S
H472 C463 0.930 . S
H473 C464 0.930 . S
Tb474 C484 2.825 . S
Tb474 O485 2.347 . S
Tb474 O488 2.366 . S
Tb474 O493 2.418 . S
Tb474 O494 2.384 . S
Tb474 O497 2.479 . S
Tb474 O498 2.471 . S
Eu475 O486 2.418 . S
Eu475 O487 2.384 . S
Eu475 O490 2.479 . S
Eu475 O491 2.471 . S
Eu475 O492 2.347 . S
Eu475 O495 2.366 . S
Eu475 C505 2.825 . S
C476 O492 1.259 . S
C476 O493 1.265 . S
C477 O494 1.255 . S
C477 O495 1.265 . S
C478 C480 1.380 . S
C478 C481 1.374 . S
C478 C484 1.507 . S
C479 C480 1.384 . S
C479 C483 1.387 . S
C479 H506 0.930 . S
C480 C478 1.380 . S
C480 C479 1.384 . S
C480 H507 0.931 . S
C481 C478 1.374 . S
C481 C482 1.390 . S
C481 H508 0.930 . S
C482 C481 1.390 . S
C482 C483 1.391 . S
C482 H509 0.930 . S
C483 C479 1.387 . S
C483 C482 1.391 . S
C484 Tb474 2.825 . S
C484 C478 1.507 . S
C484 O497 1.238 . S
C484 O498 1.247 . S
O485 Tb474 2.347 . S
O485 C489 1.259 . S
O486 Eu475 2.418 . S
O486 C489 1.265 . S
O487 Eu475 2.384 . S
O487 C496 1.255 . S
O488 Tb474 2.366 . S
O488 C496 1.265 . S
C489 O485 1.259 . S
C489 O486 1.265 . S
O490 Eu475 2.479 . S
O490 C505 1.238 . S
O491 Eu475 2.471 . S
O491 C505 1.247 . S
O492 Eu475 2.347 . S
O492 C476 1.259 . S
O493 Tb474 2.418 . S
O493 C476 1.265 . S
O494 Tb474 2.384 . S
O494 C477 1.255 . S
O495 Eu475 2.366 . S
O495 C477 1.265 . S
C496 O487 1.255 . S
C496 O488 1.265 . S
O497 Tb474 2.479 . S
O497 C484 1.238 . S
O498 Tb474 2.471 . S
O498 C484 1.247 . S
C499 C502 1.380 . S
C499 C503 1.374 . S
C499 C505 1.507 . S
C500 C501 1.387 . S
C500 C504 1.391 . S
C501 C500 1.387 . S
C501 C502 1.384 . S
C501 H510 0.930 . S
C502 C499 1.380 . S
C502 C501 1.384 . S
C502 H511 0.931 . S
C503 C499 1.374 . S
C503 C504 1.390 . S
C503 H512 0.930 . S
C504 C500 1.391 . S
C504 C503 1.390 . S
C504 H513 0.930 . S
C505 Eu475 2.825 . S
C505 O490 1.238 . S
C505 O491 1.247 . S
C505 C499 1.507 . S
H506 C479 0.930 . S
H507 C480 0.931 . S
H508 C481 0.930 . S
H509 C482 0.930 . S
H510 C501 0.930 . S
H511 C502 0.931 . S
H512 C503 0.930 . S
H513 C504 0.930 . S
Tb514 C524 2.825 . S
Tb514 O525 2.347 . S
Tb514 O528 2.366 . S
Tb514 O533 2.418 . S
Tb514 O534 2.384 . S
Tb514 O537 2.479 . S
Tb514 O538 2.471 . S
Eu515 O526 2.418 . S
Eu515 O527 2.384 . S
Eu515 O530 2.479 . S
Eu515 O531 2.471 . S
Eu515 O532 2.347 . S
Eu515 O535 2.366 . S
Eu515 C545 2.825 . S
C516 O532 1.259 . S
C516 O533 1.265 . S
C517 O534 1.255 . S
C517 O535 1.265 . S
C518 C520 1.380 . S
C518 C521 1.374 . S
C518 C524 1.507 . S
C519 C520 1.384 . S
C519 C523 1.387 . S
C519 H546 0.930 . S
C520 C518 1.380 . S
C520 C519 1.384 . S
C520 H547 0.931 . S
C521 C518 1.374 . S
C521 C522 1.390 . S
C521 H548 0.930 . S
C522 C521 1.390 . S
C522 C523 1.391 . S
C522 H549 0.930 . S
C523 C519 1.387 . S
C523 C522 1.391 . S
C524 Tb514 2.825 . S
C524 C518 1.507 . S
C524 O537 1.238 . S
C524 O538 1.247 . S
O525 Tb514 2.347 . S
O525 C529 1.259 . S
O526 Eu515 2.418 . S
O526 C529 1.265 . S
O527 Eu515 2.384 . S
O527 C536 1.255 . S
O528 Tb514 2.366 . S
O528 C536 1.265 . S
C529 O525 1.259 . S
C529 O526 1.265 . S
O530 Eu515 2.479 . S
O530 C545 1.238 . S
O531 Eu515 2.471 . S
O531 C545 1.247 . S
O532 Eu515 2.347 . S
O532 C516 1.259 . S
O533 Tb514 2.418 . S
O533 C516 1.265 . S
O534 Tb514 2.384 . S
O534 C517 1.255 . S
O535 Eu515 2.366 . S
O535 C517 1.265 . S
C536 O527 1.255 . S
C536 O528 1.265 . S
O537 Tb514 2.479 . S
O537 C524 1.238 . S
O538 Tb514 2.471 . S
O538 C524 1.247 . S
C539 C542 1.380 . S
C539 C543 1.374 . S
C539 C545 1.507 . S
C540 C541 1.387 . S
C540 C544 1.391 . S
C541 C540 1.387 . S
C541 C542 1.384 . S
C541 H550 0.930 . S
C542 C539 1.380 . S
C542 C541 1.384 . S
C542 H551 0.931 . S
C543 C539 1.374 . S
C543 C544 1.390 . S
C543 H552 0.930 . S
C544 C540 1.391 . S
C544 C543 1.390 . S
C544 H553 0.930 . S
C545 Eu515 2.825 . S
C545 O530 1.238 . S
C545 O531 1.247 . S
C545 C539 1.507 . S
H546 C519 0.930 . S
H547 C520 0.931 . S
H548 C521 0.930 . S
H549 C522 0.930 . S
H550 C541 0.930 . S
H551 C542 0.931 . S
H552 C543 0.930 . S
H553 C544 0.930 . S
Tb554 C564 2.825 . S
Tb554 O565 2.347 . S
Tb554 O568 2.366 . S
Tb554 O573 2.418 . S
Tb554 O574 2.384 . S
Tb554 O577 2.479 . S
Tb554 O578 2.471 . S
Eu555 O566 2.418 . S
Eu555 O567 2.384 . S
Eu555 O570 2.479 . S
Eu555 O571 2.471 . S
Eu555 O572 2.347 . S
Eu555 O575 2.366 . S
Eu555 C585 2.825 . S
C556 O572 1.259 . S
C556 O573 1.265 . S
C557 O574 1.255 . S
C557 O575 1.265 . S
C558 C560 1.380 . S
C558 C561 1.374 . S
C558 C564 1.507 . S
C559 C560 1.384 . S
C559 C563 1.387 . S
C559 H586 0.930 . S
C560 C558 1.380 . S
C560 C559 1.384 . S
C560 H587 0.931 . S
C561 C558 1.374 . S
C561 C562 1.390 . S
C561 H588 0.930 . S
C562 C561 1.390 . S
C562 C563 1.391 . S
C562 H589 0.930 . S
C563 C559 1.387 . S
C563 C562 1.391 . S
C564 Tb554 2.825 . S
C564 C558 1.507 . S
C564 O577 1.238 . S
C564 O578 1.247 . S
O565 Tb554 2.347 . S
O565 C569 1.259 . S
O566 Eu555 2.418 . S
O566 C569 1.265 . S
O567 Eu555 2.384 . S
O567 C576 1.255 . S
O568 Tb554 2.366 . S
O568 C576 1.265 . S
C569 O565 1.259 . S
C569 O566 1.265 . S
O570 Eu555 2.479 . S
O570 C585 1.238 . S
O571 Eu555 2.471 . S
O571 C585 1.247 . S
O572 Eu555 2.347 . S
O572 C556 1.259 . S
O573 Tb554 2.418 . S
O573 C556 1.265 . S
O574 Tb554 2.384 . S
O574 C557 1.255 . S
O575 Eu555 2.366 . S
O575 C557 1.265 . S
C576 O567 1.255 . S
C576 O568 1.265 . S
O577 Tb554 2.479 . S
O577 C564 1.238 . S
O578 Tb554 2.471 . S
O578 C564 1.247 . S
C579 C582 1.380 . S
C579 C583 1.374 . S
C579 C585 1.507 . S
C580 C581 1.387 . S
C580 C584 1.391 . S
C581 C580 1.387 . S
C581 C582 1.384 . S
C581 H590 0.930 . S
C582 C579 1.380 . S
C582 C581 1.384 . S
C582 H591 0.931 . S
C583 C579 1.374 . S
C583 C584 1.390 . S
C583 H592 0.930 . S
C584 C580 1.391 . S
C584 C583 1.390 . S
C584 H593 0.930 . S
C585 Eu555 2.825 . S
C585 O570 1.238 . S
C585 O571 1.247 . S
C585 C579 1.507 . S
H586 C559 0.930 . S
H587 C560 0.931 . S
H588 C561 0.930 . S
H589 C562 0.930 . S
H590 C581 0.930 . S
H591 C582 0.931 . S
H592 C583 0.930 . S
H593 C584 0.930 . S
C594 C595 1.391 . S
C594 C596 1.394 . S
C594 H610 0.931 . S
C595 C594 1.391 . S
C595 C599 1.376 . S
C596 C594 1.394 . S
C596 C597 1.369 . S
C596 C600 1.531 . S
C597 C596 1.369 . S
C597 C598 1.410 . S
C597 C605 1.503 . S
C598 C597 1.410 . S
C598 C599 1.392 . S
C598 C601 1.511 . S
C599 C595 1.376 . S
C599 C598 1.392 . S
C599 H611 0.929 . S
C600 C596 1.531 . S
C600 H612 0.960 . S
C600 H613 0.962 . S
C600 H614 0.960 1_554 S
C601 C598 1.511 . S
C601 H615 0.961 . S
C601 H616 0.961 . S
C601 H617 0.961 . S
C602 C603 1.370 . S
C602 C604 1.363 . S
C602 H618 0.931 . S
C603 C602 1.370 . S
C603 C607 1.408 . S
C604 C602 1.363 . S
C604 C605 1.370 . S
C604 C608 1.524 . S
C605 C597 1.503 . S
C605 C604 1.370 . S
C605 C606 1.403 . S
C606 C605 1.403 . S
C606 C607 1.404 . S
C606 C609 1.539 . S
C607 C603 1.408 . S
C607 C606 1.404 . S
C607 H619 0.930 . S
C608 C604 1.524 . S
C608 H620 0.956 . S
C608 H621 0.961 . S
C608 H622 0.961 . S
C609 C606 1.539 . S
C609 H623 0.958 . S
C609 H624 0.961 . S
C609 H625 0.960 . S
H610 C594 0.931 . S
H611 C599 0.929 . S
H612 C600 0.960 . S
H613 C600 0.962 . S
H614 C600 0.960 1_556 S
H615 C601 0.961 . S
H616 C601 0.961 . S
H617 C601 0.961 . S
H618 C602 0.931 . S
H619 C607 0.930 . S
H620 C608 0.956 . S
H621 C608 0.961 . S
H622 C608 0.961 . S
H623 C609 0.958 . S
H624 C609 0.961 . S
H625 C609 0.960 . S
C626 C627 1.391 . S
C626 C628 1.394 . S
C626 H642 0.931 . S
C627 C626 1.391 . S
C627 C631 1.376 . S
C628 C626 1.394 . S
C628 C629 1.369 . S
C628 C632 1.531 . S
C629 C628 1.369 . S
C629 C630 1.410 . S
C629 C637 1.503 . S
C630 C629 1.410 . S
C630 C631 1.392 . S
C630 C633 1.511 . S
C631 C627 1.376 . S
C631 C630 1.392 . S
C631 H643 0.929 . S
C632 C628 1.531 . S
C632 H644 0.960 . S
C632 H645 0.962 . S
C632 H646 0.960 . S
C633 C630 1.511 . S
C633 H647 0.961 . S
C633 H648 0.961 . S
C633 H649 0.961 . S
C634 C635 1.370 . S
C634 C636 1.363 . S
C634 H650 0.931 . S
C635 C634 1.370 . S
C635 C639 1.408 . S
C636 C634 1.363 . S
C636 C637 1.370 . S
C636 C640 1.524 . S
C637 C629 1.503 . S
C637 C636 1.370 . S
C637 C638 1.403 . S
C638 C637 1.403 . S
C638 C639 1.404 . S
C638 C641 1.539 . S
C639 C635 1.408 . S
C639 C638 1.404 . S
C639 H651 0.930 . S
C640 C636 1.524 . S
C640 H652 0.956 . S
C640 H653 0.961 . S
C640 H654 0.961 . S
C641 C638 1.539 . S
C641 H655 0.958 . S
C641 H656 0.961 1_554 S
C641 H657 0.960 . S
H642 C626 0.931 . S
H643 C631 0.929 . S
H644 C632 0.960 . S
H645 C632 0.962 . S
H646 C632 0.960 . S
H647 C633 0.961 . S
H648 C633 0.961 . S
H649 C633 0.961 . S
H650 C634 0.931 . S
H651 C639 0.930 . S
H652 C640 0.956 . S
H653 C640 0.961 . S
H654 C640 0.961 . S
H655 C641 0.958 . S
H656 C641 0.961 1_556 S
H657 C641 0.960 . S
C658 C659 1.391 . S
C658 C660 1.394 . S
C658 H674 0.931 . S
C659 C658 1.391 . S
C659 C663 1.376 . S
C660 C658 1.394 . S
C660 C661 1.369 . S
C660 C664 1.531 . S
C661 C660 1.369 . S
C661 C662 1.410 . S
C661 C669 1.503 . S
C662 C661 1.410 . S
C662 C663 1.392 . S
C662 C665 1.511 1_554 S
C663 C659 1.376 . S
C663 C662 1.392 . S
C663 H675 0.929 . S
C664 C660 1.531 . S
C664 H676 0.960 . S
C664 H677 0.962 . S
C664 H678 0.960 . S
C665 C662 1.511 1_556 S
C665 H679 0.961 . S
C665 H680 0.961 . S
C665 H681 0.961 . S
C666 C667 1.370 . S
C666 C668 1.363 . S
C666 H682 0.931 . S
C667 C666 1.370 . S
C667 C671 1.408 . S
C668 C666 1.363 . S
C668 C669 1.370 . S
C668 C672 1.524 . S
C669 C661 1.503 . S
C669 C668 1.370 . S
C669 C670 1.403 . S
C670 C669 1.403 . S
C670 C671 1.404 . S
C670 C673 1.539 . S
C671 C667 1.408 . S
C671 C670 1.404 . S
C671 H683 0.930 . S
C672 C668 1.524 . S
C672 H684 0.956 . S
C672 H685 0.961 . S
C672 H686 0.961 . S
C673 C670 1.539 . S
C673 H687 0.958 . S
C673 H688 0.961 . S
C673 H689 0.960 . S
H674 C658 0.931 . S
H675 C663 0.929 . S
H676 C664 0.960 . S
H677 C664 0.962 . S
H678 C664 0.960 . S
H679 C665 0.961 . S
H680 C665 0.961 . S
H681 C665 0.961 . S
H682 C666 0.931 . S
H683 C671 0.930 . S
H684 C672 0.956 . S
H685 C672 0.961 . S
H686 C672 0.961 . S
H687 C673 0.958 . S
H688 C673 0.961 . S
H689 C673 0.960 . S
C690 C691 1.391 . S
C690 C692 1.394 . S
C690 H706 0.931 . S
C691 C690 1.391 . S
C691 C695 1.376 . S
C692 C690 1.394 . S
C692 C693 1.369 . S
C692 C696 1.531 . S
C693 C692 1.369 . S
C693 C694 1.410 . S
C693 C701 1.503 . S
C694 C693 1.410 . S
C694 C695 1.392 . S
C694 C697 1.511 . S
C695 C691 1.376 . S
C695 C694 1.392 . S
C695 H707 0.929 . S
C696 C692 1.531 . S
C696 H708 0.960 . S
C696 H709 0.962 . S
C696 H710 0.960 . S
C697 C694 1.511 . S
C697 H711 0.961 1_556 S
C697 H712 0.961 1_556 S
C697 H713 0.961 . S
C698 C699 1.370 1_554 S
C698 C700 1.363 . S
C698 H714 0.931 . S
C699 C698 1.370 1_556 S
C699 C703 1.408 . S
C700 C698 1.363 . S
C700 C701 1.370 1_554 S
C700 C704 1.524 . S
C701 C693 1.503 . S
C701 C700 1.370 1_556 S
C701 C702 1.403 . S
C702 C701 1.403 . S
C702 C703 1.404 . S
C702 C705 1.539 . S
C703 C699 1.408 . S
C703 C702 1.404 . S
C703 H715 0.930 . S
C704 C700 1.524 . S
C704 H716 0.956 . S
C704 H717 0.961 . S
C704 H718 0.961 . S
C705 C702 1.539 . S
C705 H719 0.958 . S
C705 H720 0.961 . S
C705 H721 0.960 . S
H706 C690 0.931 . S
H707 C695 0.929 . S
H708 C696 0.960 . S
H709 C696 0.962 . S
H710 C696 0.960 . S
H711 C697 0.961 1_554 S
H712 C697 0.961 1_554 S
H713 C697 0.961 . S
H714 C698 0.931 . S
H715 C703 0.930 . S
H716 C704 0.956 . S
H717 C704 0.961 . S
H718 C704 0.961 . S
H719 C705 0.958 . S
H720 C705 0.961 . S
H721 C705 0.960 . S
C722 C723 1.391 . S
C722 C724 1.394 . S
C722 H738 0.931 . S
C723 C722 1.391 . S
C723 C727 1.376 . S
C724 C722 1.394 . S
C724 C725 1.369 . S
C724 C728 1.578 . S
C725 C724 1.369 . S
C725 C726 1.410 . S
C725 C733 1.503 . S
C726 C725 1.410 . S
C726 C727 1.392 . S
C726 C729 1.511 . S
C727 C723 1.376 . S
C727 C726 1.392 . S
C727 H739 0.929 . S
C728 C724 1.578 . S
C728 H740 0.951 1_556 S
C728 H741 0.937 1_556 S
C728 H742 0.951 1_556 S
C729 C726 1.511 . S
C729 H743 0.961 . S
C729 H744 0.961 . S
C729 H745 0.961 . S
C730 C731 1.370 . S
C730 C732 1.363 . S
C730 H746 0.951 . S
C731 C730 1.370 . S
C731 C735 1.408 . S
C732 C730 1.363 . S
C732 C733 1.370 . S
C732 C736 1.524 . S
C733 C725 1.503 . S
C733 C732 1.370 . S
C733 C734 1.403 . S
C734 C733 1.403 . S
C734 C735 1.404 . S
C734 C737 1.539 . S
C735 C731 1.408 . S
C735 C734 1.404 . S
C735 H747 0.930 . S
C736 C732 1.524 . S
C736 H748 0.956 . S
C736 H749 0.961 . S
C736 H750 0.961 . S
C737 C734 1.539 . S
C737 H751 0.958 . S
C737 H752 0.961 . S
C737 H753 0.960 . S
H738 C722 0.931 . S
H739 C727 0.929 . S
H740 C728 0.951 1_554 S
H741 C728 0.937 1_554 S
H742 C728 0.951 1_554 S
H743 C729 0.961 . S
H744 C729 0.961 . S
H745 C729 0.961 . S
H746 C730 0.951 . S
H747 C735 0.930 . S
H748 C736 0.956 . S
H749 C736 0.961 . S
H750 C736 0.961 . S
H751 C737 0.958 . S
H752 C737 0.961 . S
H753 C737 0.960 . S
C754 C755 1.391 . S
C754 C756 1.394 . S
C754 H770 0.931 . S
C755 C754 1.391 . S
C755 C759 1.376 . S
C756 C754 1.394 . S
C756 C757 1.369 . S
C756 C760 1.531 . S
C757 C756 1.369 . S
C757 C758 1.410 . S
C757 C765 1.503 . S
C758 C757 1.410 . S
C758 C759 1.392 . S
C758 C761 1.511 . S
C759 C755 1.376 . S
C759 C758 1.392 . S
C759 H771 0.929 . S
C760 C756 1.531 . S
C760 H772 0.960 . S
C760 H773 0.962 . S
C760 H774 0.960 . S
C761 C758 1.511 . S
C761 H775 0.961 1_556 S
C761 H776 0.961 1_556 S
C761 H777 0.961 . S
C762 C763 1.389 . S
C762 C764 1.363 . S
C762 H778 0.931 . S
C763 C762 1.389 . S
C763 C767 1.382 1_554 S
C764 C762 1.363 . S
C764 C765 1.370 1_554 S
C764 C768 1.524 . S
C765 C757 1.503 . S
C765 C764 1.370 1_556 S
C765 C766 1.403 . S
C766 C765 1.403 . S
C766 C767 1.404 . S
C766 C769 1.539 . S
C767 C763 1.382 1_556 S
C767 C766 1.404 . S
C767 H779 0.930 . S
C768 C764 1.524 . S
C768 H780 0.956 . S
C768 H781 0.961 . S
C768 H782 0.961 . S
C769 C766 1.539 . S
C769 H783 0.958 . S
C769 H784 0.961 . S
C769 H785 0.960 . S
H770 C754 0.931 . S
H771 C759 0.929 . S
H772 C760 0.960 . S
H773 C760 0.962 . S
H774 C760 0.960 . S
H775 C761 0.961 1_554 S
H776 C761 0.961 1_554 S
H777 C761 0.961 . S
H778 C762 0.931 . S
H779 C767 0.930 . S
H780 C768 0.956 . S
H781 C768 0.961 . S
H782 C768 0.961 . S
H783 C769 0.958 . S
H784 C769 0.961 . S
H785 C769 0.960 . S
C786 C787 1.391 . S
C786 C788 1.394 . S
C786 H802 0.931 . S
C787 C786 1.391 . S
C787 C791 1.376 . S
C788 C786 1.394 . S
C788 C789 1.369 . S
C788 C792 1.531 . S
C789 C788 1.369 . S
C789 C790 1.410 . S
C789 C797 1.503 . S
C790 C789 1.410 . S
C790 C791 1.392 . S
C790 C793 1.511 1_556 S
C791 C787 1.376 . S
C791 C790 1.392 . S
C791 H803 0.929 . S
C792 C788 1.531 . S
C792 H804 0.960 . S
C792 H805 0.962 . S
C792 H806 0.960 . S
C793 C790 1.511 1_554 S
C793 H807 0.961 . S
C793 H808 0.961 . S
C793 H809 0.961 . S
C794 C795 1.370 . S
C794 C796 1.363 . S
C794 H810 0.931 1_556 S
C795 C794 1.370 . S
C795 C799 1.408 . S
C796 C794 1.363 . S
C796 C797 1.370 . S
C796 C800 1.524 1_556 S
C797 C789 1.503 . S
C797 C796 1.370 . S
C797 C798 1.403 . S
C798 C797 1.403 . S
C798 C799 1.404 . S
C798 C801 1.539 . S
C799 C795 1.408 . S
C799 C798 1.404 . S
C799 H811 0.930 . S
C800 C796 1.524 1_554 S
C800 H812 0.956 1_554 S
C800 H813 0.961 . S
C800 H814 0.961 . S
C801 C798 1.539 . S
C801 H815 0.958 . S
C801 H816 0.961 . S
C801 H817 0.960 . S
H802 C786 0.931 . S
H803 C791 0.929 . S
H804 C792 0.960 . S
H805 C792 0.962 . S
H806 C792 0.960 . S
H807 C793 0.961 . S
H808 C793 0.961 . S
H809 C793 0.961 . S
H810 C794 0.931 1_554 S
H811 C799 0.930 . S
H812 C800 0.956 1_556 S
H813 C800 0.961 . S
H814 C800 0.961 . S
H815 C801 0.958 . S
H816 C801 0.961 . S
H817 C801 0.960 . S
C818 C819 1.391 . S
C818 C820 1.394 . S
C818 H834 0.931 . S
C819 C818 1.391 . S
C819 C823 1.376 . S
C820 C818 1.394 . S
C820 C821 1.369 . S
C820 C824 1.531 . S
C821 C820 1.369 . S
C821 C822 1.410 . S
C821 C829 1.503 . S
C822 C821 1.410 . S
C822 C823 1.392 . S
C822 C825 1.511 . S
C823 C819 1.376 . S
C823 C822 1.392 . S
C823 H835 0.929 . S
C824 C820 1.531 . S
C824 H836 0.960 . S
C824 H837 0.962 . S
C824 H838 0.960 . S
C825 C822 1.511 . S
C825 H839 0.961 . S
C825 H840 0.961 . S
C825 H841 0.961 . S
C826 C827 1.370 . S
C826 C828 1.363 . S
C826 H842 0.931 . S
C827 C826 1.370 . S
C827 C831 1.408 . S
C828 C826 1.363 . S
C828 C829 1.370 . S
C828 C832 1.524 . S
C829 C821 1.503 . S
C829 C828 1.370 . S
C829 C830 1.403 . S
C830 C829 1.403 . S
C830 C831 1.404 . S
C830 C833 1.539 . S
C831 C827 1.408 . S
C831 C830 1.404 . S
C831 H843 0.930 . S
C832 C828 1.524 . S
C832 H844 0.956 . S
C832 H845 0.961 . S
C832 H846 0.961 . S
C833 C830 1.539 . S
C833 H847 0.958 . S
C833 H848 0.961 1_556 S
C833 H849 0.960 . S
H834 C818 0.931 . S
H835 C823 0.929 . S
H836 C824 0.960 . S
H837 C824 0.962 . S
H838 C824 0.960 . S
H839 C825 0.961 . S
H840 C825 0.961 . S
H841 C825 0.961 . S
H842 C826 0.931 . S
H843 C831 0.930 . S
H844 C832 0.956 . S
H845 C832 0.961 . S
H846 C832 0.961 . S
H847 C833 0.958 . S
H848 C833 0.961 1_554 S
H849 C833 0.960 . S
C850 C851 1.391 . S
C850 C852 1.394 . S
C850 H866 0.931 . S
C851 C850 1.391 . S
C851 C855 1.374 1_556 S
C852 C850 1.394 . S
C852 C853 1.369 . S
C852 C856 1.531 . S
C853 C852 1.369 . S
C853 C854 1.410 1_556 S
C853 C861 1.503 . S
C854 C853 1.410 1_554 S
C854 C855 1.393 . S
C854 C857 1.511 . S
C855 C851 1.374 1_554 S
C855 C854 1.393 . S
C855 H867 0.930 . S
C856 C852 1.531 . S
C856 H868 0.960 . S
C856 H869 0.962 . S
C856 H870 0.960 . S
C857 C854 1.511 . S
C857 H871 0.961 . S
C857 H872 0.961 . S
C857 H873 0.961 . S
C858 C859 1.370 . S
C858 C860 1.363 . S
C858 H874 0.931 . S
C859 C858 1.370 . S
C859 C863 1.408 1_554 S
C860 C858 1.363 . S
C860 C861 1.370 1_554 S
C860 C864 1.524 . S
C861 C853 1.503 . S
C861 C860 1.370 1_556 S
C861 C862 1.403 . S
C862 C861 1.403 . S
C862 C863 1.404 . S
C862 C865 1.539 . S
C863 C859 1.408 1_556 S
C863 C862 1.404 . S
C863 H875 0.930 . S
C864 C860 1.524 . S
C864 H876 0.956 . S
C864 H877 0.961 . S
C864 H878 0.961 . S
C865 C862 1.539 . S
C865 H879 0.958 . S
C865 H880 0.961 . S
C865 H881 0.960 . S
H866 C850 0.931 . S
H867 C855 0.930 . S
H868 C856 0.960 . S
H869 C856 0.962 . S
H870 C856 0.960 . S
H871 C857 0.961 . S
H872 C857 0.961 . S
H873 C857 0.961 . S
H874 C858 0.931 . S
H875 C863 0.930 . S
H876 C864 0.956 . S
H877 C864 0.961 . S
H878 C864 0.961 . S
H879 C865 0.958 . S
H880 C865 0.961 . S
H881 C865 0.960 . S
C882 C883 1.391 . S
C882 C884 1.394 . S
C882 H898 0.931 . S
C883 C882 1.391 . S
C883 C887 1.376 . S
C884 C882 1.394 . S
C884 C885 1.369 . S
C884 C888 1.531 . S
C885 C884 1.369 . S
C885 C886 1.410 . S
C885 C893 1.503 . S
C886 C885 1.410 . S
C886 C887 1.392 . S
C886 C889 1.511 . S
C887 C883 1.376 . S
C887 C886 1.392 . S
C887 H899 0.929 . S
C888 C884 1.531 . S
C888 H900 0.960 . S
C888 H901 0.962 . S
C888 H902 0.960 . S
C889 C886 1.511 . S
C889 H903 0.961 . S
C889 H904 0.961 . S
C889 H905 0.961 . S
C890 C891 1.370 . S
C890 C892 1.363 . S
C890 H906 0.931 . S
C891 C890 1.370 . S
C891 C895 1.408 1_554 S
C892 C890 1.363 . S
C892 C893 1.370 . S
C892 C896 1.524 . S
C893 C885 1.503 . S
C893 C892 1.370 . S
C893 C894 1.440 . S
C894 C893 1.440 . S
C894 C895 1.395 1_554 S
C894 C897 1.510 1_554 S
C895 C891 1.408 1_556 S
C895 C894 1.395 1_556 S
C895 H907 0.930 . S
C896 C892 1.524 . S
C896 H908 0.956 . S
C896 H909 0.961 . S
C896 H910 0.961 . S
C897 C894 1.510 1_556 S
C897 H911 0.958 . S
C897 H912 0.961 . S
C897 H913 0.960 . S
H898 C882 0.931 . S
H899 C887 0.929 . S
H900 C888 0.960 . S
H901 C888 0.962 . S
H902 C888 0.960 . S
H903 C889 0.961 . S
H904 C889 0.961 . S
H905 C889 0.961 . S
H906 C890 0.931 . S
H907 C895 0.930 . S
H908 C896 0.956 . S
H909 C896 0.961 . S
H910 C896 0.961 . S
H911 C897 0.958 . S
H912 C897 0.961 . S
H913 C897 0.960 . S
C914 C915 1.391 . S
C914 C916 1.394 . S
C914 H930 0.931 . S
C915 C914 1.391 . S
C915 C919 1.376 . S
C916 C914 1.394 . S
C916 C917 1.369 . S
C916 C920 1.531 . S
C917 C916 1.369 . S
C917 C918 1.410 . S
C917 C925 1.503 . S
C918 C917 1.410 . S
C918 C919 1.392 . S
C918 C921 1.511 . S
C919 C915 1.376 . S
C919 C918 1.392 . S
C919 H931 0.929 . S
C920 C916 1.531 . S
C920 H932 0.960 . S
C920 H933 0.962 . S
C920 H934 0.960 . S
C921 C918 1.511 . S
C921 H935 0.961 . S
C921 H936 0.961 . S
C921 H937 0.961 . S
C922 C923 1.370 . S
C922 C924 1.363 . S
C922 H938 0.931 . S
C923 C922 1.370 . S
C923 C927 1.408 . S
C924 C922 1.363 . S
C924 C925 1.370 . S
C924 C928 1.524 . S
C925 C917 1.503 . S
C925 C924 1.370 . S
C925 C926 1.403 . S
C926 C925 1.403 . S
C926 C927 1.404 . S
C926 C929 1.539 . S
C927 C923 1.408 . S
C927 C926 1.404 . S
C927 H939 0.930 . S
C928 C924 1.524 . S
C928 H940 0.956 . S
C928 H941 0.961 . S
C928 H942 0.961 . S
C929 C926 1.539 . S
C929 H943 0.958 . S
C929 H944 0.961 . S
C929 H945 0.960 . S
H930 C914 0.931 . S
H931 C919 0.929 . S
H932 C920 0.960 . S
H933 C920 0.962 . S
H934 C920 0.960 . S
H935 C921 0.961 . S
H936 C921 0.961 . S
H937 C921 0.961 . S
H938 C922 0.931 . S
H939 C927 0.930 . S
H940 C928 0.956 . S
H941 C928 0.961 . S
H942 C928 0.961 . S
H943 C929 0.958 . S
H944 C929 0.961 . S
H945 C929 0.960 . S
C946 C947 1.391 . S
C946 C948 1.394 . S
C946 H962 0.931 . S
C947 C946 1.391 . S
C947 C951 1.376 . S
C948 C946 1.394 . S
C948 C949 1.369 . S
C948 C952 1.531 1_554 S
C949 C948 1.369 . S
C949 C950 1.410 . S
C949 C957 1.503 . S
C950 C949 1.410 . S
C950 C951 1.392 . S
C950 C953 1.511 . S
C951 C947 1.376 . S
C951 C950 1.392 . S
C951 H963 0.929 . S
C952 C948 1.531 1_556 S
C952 H964 0.960 . S
C952 H965 0.962 . S
C952 H966 0.960 . S
C953 C950 1.511 . S
C953 H967 0.961 . S
C953 H968 0.961 . S
C953 H969 0.961 . S
C954 C955 1.370 . S
C954 C956 1.363 . S
C954 H970 0.931 . S
C955 C954 1.370 . S
C955 C959 1.408 . S
C956 C954 1.363 . S
C956 C957 1.370 . S
C956 C960 1.524 . S
C957 C949 1.503 . S
C957 C956 1.370 . S
C957 C958 1.403 . S
C958 C957 1.403 . S
C958 C959 1.404 . S
C958 C961 1.539 . S
C959 C955 1.408 . S
C959 C958 1.404 . S
C959 H971 0.930 . S
C960 C956 1.524 . S
C960 H972 0.956 . S
C960 H973 0.961 . S
C960 H974 0.961 . S
C961 C958 1.539 . S
C961 H975 0.958 1_554 S
C961 H976 0.961 . S
C961 H977 0.960 . S
H962 C946 0.931 . S
H963 C951 0.929 . S
H964 C952 0.960 . S
H965 C952 0.962 . S
H966 C952 0.960 . S
H967 C953 0.961 . S
H968 C953 0.961 . S
H969 C953 0.961 . S
H970 C954 0.931 . S
H971 C959 0.930 . S
H972 C960 0.956 . S
H973 C960 0.961 . S
H974 C960 0.961 . S
H975 C961 0.958 1_556 S
H976 C961 0.961 . S
H977 C961 0.960 . S
C978 C979 1.391 . S
C978 C980 1.394 . S
C978 H994 0.931 . S
C979 C978 1.391 . S
C979 C983 1.376 . S
C980 C978 1.394 . S
C980 C981 1.369 . S
C980 C984 1.531 . S
C981 C980 1.369 . S
C981 C982 1.410 . S
C981 C989 1.503 1_655 S
C982 C981 1.410 . S
C982 C983 1.392 . S
C982 C985 1.511 . S
C983 C979 1.376 . S
C983 C982 1.392 . S
C983 H995 0.929 . S
C984 C980 1.531 . S
C984 H996 0.960 1_655 S
C984 H997 0.962 1_655 S
C984 H998 0.960 . S
C985 C982 1.511 . S
C985 H999 0.961 . S
C985 H1000 0.961 1_655 S
C985 H1001 0.961 . S
C986 C987 1.370 . S
C986 C988 1.363 . S
C986 H1002 0.931 . S
C987 C986 1.370 . S
C987 C991 1.408 . S
C988 C986 1.363 . S
C988 C989 1.370 . S
C988 C992 1.524 . S
C989 C981 1.503 1_455 S
C989 C988 1.370 . S
C989 C990 1.403 . S
C990 C989 1.403 . S
C990 C991 1.404 . S
C990 C993 1.539 . S
C991 C987 1.408 . S
C991 C990 1.404 . S
C991 H1003 0.930 . S
C992 C988 1.524 . S
C992 H1004 0.956 . S
C992 H1005 0.961 . S
C992 H1006 0.961 . S
C993 C990 1.539 . S
C993 H1007 0.958 . S
C993 H1008 0.961 . S
C993 H1009 0.960 1_455 S
H994 C978 0.931 . S
H995 C983 0.929 . S
H996 C984 0.960 1_455 S
H997 C984 0.962 1_455 S
H998 C984 0.960 . S
H999 C985 0.961 . S
H1000 C985 0.961 1_455 S
H1001 C985 0.961 . S
H1002 C986 0.931 . S
H1003 C991 0.930 . S
H1004 C992 0.956 . S
H1005 C992 0.961 . S
H1006 C992 0.961 . S
H1007 C993 0.958 . S
H1008 C993 0.961 . S
H1009 C993 0.960 1_655 S
C1010 C1011 1.391 . S
C1010 C1012 1.394 . S
C1010 H1026 0.931 . S
C1011 C1010 1.391 . S
C1011 C1015 1.376 . S
C1012 C1010 1.394 . S
C1012 C1013 1.369 . S
C1012 C1016 1.531 . S
C1013 C1012 1.369 . S
C1013 C1014 1.410 . S
C1013 C1021 1.503 . S
C1014 C1013 1.410 . S
C1014 C1015 1.392 . S
C1014 C1017 1.511 . S
C1015 C1011 1.376 . S
C1015 C1014 1.392 . S
C1015 H1027 0.929 . S
C1016 C1012 1.531 . S
C1016 H1028 0.960 . S
C1016 H1029 0.962 . S
C1016 H1030 0.960 . S
C1017 C1014 1.511 . S
C1017 H1031 0.961 . S
C1017 H1032 0.961 . S
C1017 H1033 0.961 . S
C1018 C1019 1.370 . S
C1018 C1020 1.363 . S
C1018 H1034 0.931 . S
C1019 C1018 1.370 . S
C1019 C1023 1.408 . S
C1020 C1018 1.363 . S
C1020 C1021 1.370 . S
C1020 C1024 1.524 . S
C1021 C1013 1.503 . S
C1021 C1020 1.370 . S
C1021 C1022 1.403 . S
C1022 C1021 1.403 . S
C1022 C1023 1.404 . S
C1022 C1025 1.539 . S
C1023 C1019 1.408 . S
C1023 C1022 1.404 . S
C1023 H1035 0.930 . S
C1024 C1020 1.524 . S
C1024 H1036 0.956 . S
C1024 H1037 0.961 . S
C1024 H1038 0.961 . S
C1025 C1022 1.539 . S
C1025 H1039 0.958 . S
C1025 H1040 0.961 . S
C1025 H1041 0.960 . S
H1026 C1010 0.931 . S
H1027 C1015 0.929 . S
H1028 C1016 0.960 . S
H1029 C1016 0.962 . S
H1030 C1016 0.960 . S
H1031 C1017 0.961 . S
H1032 C1017 0.961 . S
H1033 C1017 0.961 . S
H1034 C1018 0.931 . S
H1035 C1023 0.930 . S
H1036 C1024 0.956 . S
H1037 C1024 0.961 . S
H1038 C1024 0.961 . S
H1039 C1025 0.958 . S
H1040 C1025 0.961 . S
H1041 C1025 0.960 . S
C1042 C1043 1.391 . S
C1042 C1044 1.394 . S
C1042 H1058 0.931 . S
C1043 C1042 1.391 . S
C1043 C1047 1.376 . S
C1044 C1042 1.394 . S
C1044 C1045 1.369 . S
C1044 C1048 1.531 . S
C1045 C1044 1.369 . S
C1045 C1046 1.410 . S
C1045 C1053 1.503 1_545 S
C1046 C1045 1.410 . S
C1046 C1047 1.392 . S
C1046 C1049 1.511 . S
C1047 C1043 1.376 . S
C1047 C1046 1.392 . S
C1047 H1059 0.929 . S
C1048 C1044 1.531 . S
C1048 H1060 0.960 1_545 S
C1048 H1061 0.962 . S
C1048 H1062 0.960 . S
C1049 C1046 1.511 . S
C1049 H1063 0.961 . S
C1049 H1064 0.961 1_545 S
C1049 H1065 0.961 . S
C1050 C1051 1.370 . S
C1050 C1052 1.363 . S
C1050 H1066 0.931 . S
C1051 C1050 1.370 . S
C1051 C1055 1.408 . S
C1052 C1050 1.363 . S
C1052 C1053 1.370 . S
C1052 C1056 1.524 . S
C1053 C1045 1.503 1_565 S
C1053 C1052 1.370 . S
C1053 C1054 1.403 . S
C1054 C1053 1.403 . S
C1054 C1055 1.404 . S
C1054 C1057 1.539 . S
C1055 C1051 1.408 . S
C1055 C1054 1.404 . S
C1055 H1067 0.930 . S
C1056 C1052 1.524 . S
C1056 H1068 0.956 . S
C1056 H1069 0.961 . S
C1056 H1070 0.961 . S
C1057 C1054 1.539 . S
C1057 H1071 0.958 . S
C1057 H1072 0.961 . S
C1057 H1073 0.928 1_565 S
H1058 C1042 0.931 . S
H1059 C1047 0.929 . S
H1060 C1048 0.960 1_565 S
H1061 C1048 0.962 . S
H1062 C1048 0.960 . S
H1063 C1049 0.961 . S
H1064 C1049 0.961 1_565 S
H1065 C1049 0.961 . S
H1066 C1050 0.931 . S
H1067 C1055 0.930 . S
H1068 C1056 0.956 . S
H1069 C1056 0.961 . S
H1070 C1056 0.961 . S
H1071 C1057 0.958 . S
H1072 C1057 0.961 . S
H1073 C1057 0.928 1_545 S
C1074 C1075 1.391 . S
C1074 C1076 1.394 . S
C1074 H1090 0.931 . S
C1075 C1074 1.391 . S
C1075 C1079 1.376 . S
C1076 C1074 1.394 . S
C1076 C1077 1.369 . S
C1076 C1080 1.531 . S
C1077 C1076 1.369 . S
C1077 C1078 1.410 . S
C1077 C1085 1.503 . S
C1078 C1077 1.410 . S
C1078 C1079 1.392 . S
C1078 C1081 1.511 . S
C1079 C1075 1.376 . S
C1079 C1078 1.392 . S
C1079 H1091 0.929 . S
C1080 C1076 1.531 . S
C1080 H1092 0.960 . S
C1080 H1093 0.962 . S
C1080 H1094 0.960 . S
C1081 C1078 1.511 . S
C1081 H1095 0.961 . S
C1081 H1096 0.961 . S
C1081 H1097 0.961 . S
C1082 C1083 1.370 . S
C1082 C1084 1.363 . S
C1082 H1098 0.931 . S
C1083 C1082 1.370 . S
C1083 C1087 1.408 . S
C1084 C1082 1.363 . S
C1084 C1085 1.370 . S
C1084 C1088 1.524 . S
C1085 C1077 1.503 . S
C1085 C1084 1.370 . S
C1085 C1086 1.403 . S
C1086 C1085 1.403 . S
C1086 C1087 1.404 . S
C1086 C1089 1.539 . S
C1087 C1083 1.408 . S
C1087 C1086 1.404 . S
C1087 H1099 0.930 . S
C1088 C1084 1.524 . S
C1088 H1100 0.956 . S
C1088 H1101 0.961 . S
C1088 H1102 0.961 . S
C1089 C1086 1.539 . S
C1089 H1103 0.958 . S
C1089 H1104 0.961 . S
C1089 H1105 0.960 . S
H1090 C1074 0.931 . S
H1091 C1079 0.929 . S
H1092 C1080 0.960 . S
H1093 C1080 0.962 . S
H1094 C1080 0.960 . S
H1095 C1081 0.961 . S
H1096 C1081 0.961 . S
H1097 C1081 0.961 . S
H1098 C1082 0.931 . S
H1099 C1087 0.930 . S
H1100 C1088 0.956 . S
H1101 C1088 0.961 . S
H1102 C1088 0.961 . S
H1103 C1089 0.958 . S
H1104 C1089 0.961 . S
H1105 C1089 0.960 . S
C1106 C1107 1.391 . S
C1106 C1108 1.394 . S
C1106 H1122 0.931 . S
C1107 C1106 1.391 . S
C1107 C1111 1.376 . S
C1108 C1106 1.394 . S
C1108 C1109 1.369 . S
C1108 C1112 1.531 . S
C1109 C1108 1.369 . S
C1109 C1110 1.410 . S
C1109 C1117 1.503 . S
C1110 C1109 1.410 . S
C1110 C1111 1.392 . S
C1110 C1113 1.511 . S
C1111 C1107 1.376 . S
C1111 C1110 1.392 . S
C1111 H1123 0.929 . S
C1112 C1108 1.531 . S
C1112 H1124 0.960 . S
C1112 H1125 0.962 . S
C1112 H1126 0.960 . S
C1113 C1110 1.511 . S
C1113 H1127 0.961 . S
C1113 H1128 0.961 . S
C1113 H1129 0.961 . S
C1114 C1115 1.370 . S
C1114 C1116 1.363 . S
C1114 H1130 0.931 . S
C1115 C1114 1.370 . S
C1115 C1119 1.408 . S
C1116 C1114 1.363 . S
C1116 C1117 1.370 . S
C1116 C1120 1.524 . S
C1117 C1109 1.503 . S
C1117 C1116 1.370 . S
C1117 C1118 1.403 . S
C1118 C1117 1.403 . S
C1118 C1119 1.404 . S
C1118 C1121 1.539 . S
C1119 C1115 1.408 . S
C1119 C1118 1.404 . S
C1119 H1131 0.930 . S
C1120 C1116 1.524 . S
C1120 H1132 0.956 . S
C1120 H1133 0.961 . S
C1120 H1134 0.961 . S
C1121 C1118 1.539 . S
C1121 H1135 0.958 . S
C1121 H1136 0.961 . S
C1121 H1137 0.960 . S
H1122 C1106 0.931 . S
H1123 C1111 0.929 . S
H1124 C1112 0.960 . S
H1125 C1112 0.962 . S
H1126 C1112 0.960 . S
H1127 C1113 0.961 . S
H1128 C1113 0.961 . S
H1129 C1113 0.961 . S
H1130 C1114 0.931 . S
H1131 C1119 0.930 . S
H1132 C1120 0.956 . S
H1133 C1120 0.961 . S
H1134 C1120 0.961 . S
H1135 C1121 0.958 . S
H1136 C1121 0.961 . S
H1137 C1121 0.960 . S
C1138 C1139 1.391 . S
C1138 C1140 1.394 . S
C1138 H1154 0.931 . S
C1139 C1138 1.391 . S
C1139 C1143 1.376 . S
C1140 C1138 1.394 . S
C1140 C1141 1.369 . S
C1140 C1144 1.531 . S
C1141 C1140 1.369 . S
C1141 C1142 1.410 . S
C1141 C1149 1.503 . S
C1142 C1141 1.410 . S
C1142 C1143 1.392 . S
C1142 C1145 1.511 . S
C1143 C1139 1.376 . S
C1143 C1142 1.392 . S
C1143 H1155 0.929 . S
C1144 C1140 1.531 . S
C1144 H1156 0.960 . S
C1144 H1157 0.962 . S
C1144 H1158 0.960 . S
C1145 C1142 1.511 . S
C1145 H1159 0.961 . S
C1145 H1160 0.961 . S
C1145 H1161 0.961 . S
C1146 C1147 1.370 . S
C1146 C1148 1.363 . S
C1146 H1162 0.931 . S
C1147 C1146 1.370 . S
C1147 C1151 1.408 . S
C1148 C1146 1.363 . S
C1148 C1149 1.370 . S
C1148 C1152 1.524 . S
C1149 C1141 1.503 . S
C1149 C1148 1.370 . S
C1149 C1150 1.403 . S
C1150 C1149 1.403 . S
C1150 C1151 1.404 . S
C1150 C1153 1.539 . S
C1151 C1147 1.408 . S
C1151 C1150 1.404 . S
C1151 H1163 0.930 . S
C1152 C1148 1.524 . S
C1152 H1164 0.956 . S
C1152 H1165 0.961 . S
C1152 H1166 0.961 . S
C1153 C1150 1.539 . S
C1153 H1167 0.958 . S
C1153 H1168 0.961 . S
C1153 H1169 0.960 . S
H1154 C1138 0.931 . S
H1155 C1143 0.929 . S
H1156 C1144 0.960 . S
H1157 C1144 0.962 . S
H1158 C1144 0.960 . S
H1159 C1145 0.961 . S
H1160 C1145 0.961 . S
H1161 C1145 0.961 . S
H1162 C1146 0.931 . S
H1163 C1151 0.930 . S
H1164 C1152 0.956 . S
H1165 C1152 0.961 . S
H1166 C1152 0.961 . S
H1167 C1153 0.958 . S
H1168 C1153 0.961 . S
H1169 C1153 0.960 . S
C1170 C1171 1.391 . S
C1170 C1172 1.394 . S
C1170 H1186 0.931 . S
C1171 C1170 1.391 . S
C1171 C1175 1.376 . S
C1172 C1170 1.394 . S
C1172 C1173 1.369 . S
C1172 C1176 1.531 . S
C1173 C1172 1.369 . S
C1173 C1174 1.410 . S
C1173 C1181 1.503 . S
C1174 C1173 1.410 . S
C1174 C1175 1.392 . S
C1174 C1177 1.511 . S
C1175 C1171 1.376 . S
C1175 C1174 1.392 . S
C1175 H1187 0.929 . S
C1176 C1172 1.531 . S
C1176 H1188 0.960 . S
C1176 H1189 0.962 . S
C1176 H1190 0.960 . S
C1177 C1174 1.511 . S
C1177 H1191 0.961 . S
C1177 H1192 0.961 . S
C1177 H1193 0.961 . S
C1178 C1179 1.370 . S
C1178 C1180 1.363 . S
C1178 H1194 0.931 . S
C1179 C1178 1.370 . S
C1179 C1183 1.408 . S
C1180 C1178 1.363 . S
C1180 C1181 1.370 . S
C1180 C1184 1.524 . S
C1181 C1173 1.503 . S
C1181 C1180 1.370 . S
C1181 C1182 1.403 . S
C1182 C1181 1.403 . S
C1182 C1183 1.404 . S
C1182 C1185 1.539 . S
C1183 C1179 1.408 . S
C1183 C1182 1.404 . S
C1183 H1195 0.930 . S
C1184 C1180 1.524 . S
C1184 H1196 0.956 . S
C1184 H1197 0.961 . S
C1184 H1198 0.961 . S
C1185 C1182 1.539 . S
C1185 H1199 0.958 . S
C1185 H1200 0.961 . S
C1185 H1201 0.960 . S
H1186 C1170 0.931 . S
H1187 C1175 0.929 . S
H1188 C1176 0.960 . S
H1189 C1176 0.962 . S
H1190 C1176 0.960 . S
H1191 C1177 0.961 . S
H1192 C1177 0.961 . S
H1193 C1177 0.961 . S
H1194 C1178 0.931 . S
H1195 C1183 0.930 . S
H1196 C1184 0.956 . S
H1197 C1184 0.961 . S
H1198 C1184 0.961 . S
H1199 C1185 0.958 . S
H1200 C1185 0.961 . S
H1201 C1185 0.960 . S
C1202 C1203 1.391 . S
C1202 C1204 1.394 . S
C1202 H1218 0.931 . S
C1203 C1202 1.391 . S
C1203 C1207 1.376 . S
C1204 C1202 1.394 . S
C1204 C1205 1.369 . S
C1204 C1208 1.531 . S
C1205 C1204 1.369 . S
C1205 C1206 1.410 . S
C1205 C1213 1.503 . S
C1206 C1205 1.410 . S
C1206 C1207 1.392 . S
C1206 C1209 1.511 . S
C1207 C1203 1.376 . S
C1207 C1206 1.392 . S
C1207 H1219 0.929 . S
C1208 C1204 1.531 . S
C1208 H1220 0.960 . S
C1208 H1221 0.962 . S
C1208 H1222 0.960 . S
C1209 C1206 1.511 . S
C1209 H1223 0.961 . S
C1209 H1224 0.961 . S
C1209 H1225 0.961 . S
C1210 C1211 1.370 . S
C1210 C1212 1.363 . S
C1210 H1226 0.931 . S
C1211 C1210 1.370 . S
C1211 C1215 1.408 . S
C1212 C1210 1.363 . S
C1212 C1213 1.370 . S
C1212 C1216 1.524 . S
C1213 C1205 1.503 . S
C1213 C1212 1.370 . S
C1213 C1214 1.403 . S
C1214 C1213 1.403 . S
C1214 C1215 1.404 . S
C1214 C1217 1.539 . S
C1215 C1211 1.408 . S
C1215 C1214 1.404 . S
C1215 H1227 0.930 . S
C1216 C1212 1.524 . S
C1216 H1228 0.956 . S
C1216 H1229 0.961 . S
C1216 H1230 0.961 . S
C1217 C1214 1.539 . S
C1217 H1231 0.958 . S
C1217 H1232 0.961 . S
C1217 H1233 0.960 . S
H1218 C1202 0.931 . S
H1219 C1207 0.929 . S
H1220 C1208 0.960 . S
H1221 C1208 0.962 . S
H1222 C1208 0.960 . S
H1223 C1209 0.961 . S
H1224 C1209 0.961 . S
H1225 C1209 0.961 . S
H1226 C1210 0.931 . S
H1227 C1215 0.930 . S
H1228 C1216 0.956 . S
H1229 C1216 0.961 . S
H1230 C1216 0.961 . S
H1231 C1217 0.958 . S
H1232 C1217 0.961 . S
H1233 C1217 0.960 . S
C1234 C1235 1.391 . S
C1234 C1236 1.394 . S
C1234 H1250 0.931 . S
C1235 C1234 1.391 . S
C1235 C1239 1.376 . S
C1236 C1234 1.394 . S
C1236 C1237 1.369 . S
C1236 C1240 1.531 . S
C1237 C1236 1.369 . S
C1237 C1238 1.410 . S
C1237 C1245 1.503 . S
C1238 C1237 1.410 . S
C1238 C1239 1.392 . S
C1238 C1241 1.511 . S
C1239 C1235 1.376 . S
C1239 C1238 1.392 . S
C1239 H1251 0.929 . S
C1240 C1236 1.531 . S
C1240 H1252 0.960 . S
C1240 H1253 0.962 . S
C1240 H1254 0.960 . S
C1241 C1238 1.511 . S
C1241 H1255 0.961 . S
C1241 H1256 0.961 . S
C1241 H1257 0.961 . S
C1242 C1243 1.370 . S
C1242 C1244 1.363 . S
C1242 H1258 0.931 . S
C1243 C1242 1.370 . S
C1243 C1247 1.408 . S
C1244 C1242 1.363 . S
C1244 C1245 1.370 . S
C1244 C1248 1.524 . S
C1245 C1237 1.503 . S
C1245 C1244 1.370 . S
C1245 C1246 1.403 . S
C1246 C1245 1.403 . S
C1246 C1247 1.404 . S
C1246 C1249 1.539 . S
C1247 C1243 1.408 . S
C1247 C1246 1.404 . S
C1247 H1259 0.930 . S
C1248 C1244 1.524 . S
C1248 H1260 0.956 . S
C1248 H1261 0.961 . S
C1248 H1262 0.961 . S
C1249 C1246 1.539 . S
C1249 H1263 0.958 . S
C1249 H1264 0.961 . S
C1249 H1265 0.960 . S
H1250 C1234 0.931 . S
H1251 C1239 0.929 . S
H1252 C1240 0.960 . S
H1253 C1240 0.962 . S
H1254 C1240 0.960 . S
H1255 C1241 0.961 . S
H1256 C1241 0.961 . S
H1257 C1241 0.961 . S
H1258 C1242 0.931 . S
H1259 C1247 0.930 . S
H1260 C1248 0.956 . S
H1261 C1248 0.961 . S
H1262 C1248 0.961 . S
H1263 C1249 0.958 . S
H1264 C1249 0.961 . S
H1265 C1249 0.960 . S
C1266 C1267 1.391 . S
C1266 C1268 1.394 . S
C1266 H1282 0.931 . S
C1267 C1266 1.391 . S
C1267 C1271 1.376 . S
C1268 C1266 1.394 . S
C1268 C1269 1.369 . S
C1268 C1272 1.531 . S
C1269 C1268 1.369 . S
C1269 C1270 1.410 . S
C1269 C1277 1.503 1_545 S
C1270 C1269 1.410 . S
C1270 C1271 1.392 . S
C1270 C1273 1.511 . S
C1271 C1267 1.376 . S
C1271 C1270 1.392 . S
C1271 H1283 0.929 . S
C1272 C1268 1.531 . S
C1272 H1284 0.967 . S
C1272 H1285 0.962 . S
C1272 H1286 0.960 . S
C1273 C1270 1.511 . S
C1273 H1287 0.961 . S
C1273 H1288 0.961 . S
C1273 H1289 0.961 . S
C1274 C1275 1.370 . S
C1274 C1276 1.363 . S
C1274 H1290 0.931 . S
C1275 C1274 1.370 . S
C1275 C1279 1.408 . S
C1276 C1274 1.363 . S
C1276 C1277 1.370 . S
C1276 C1280 1.524 . S
C1277 C1269 1.503 1_565 S
C1277 C1276 1.370 . S
C1277 C1278 1.403 . S
C1278 C1277 1.403 . S
C1278 C1279 1.404 . S
C1278 C1281 1.539 1_565 S
C1279 C1275 1.408 . S
C1279 C1278 1.404 . S
C1279 H1291 0.930 . S
C1280 C1276 1.524 . S
C1280 H1292 0.956 . S
C1280 H1293 0.961 . S
C1280 H1294 0.961 . S
C1281 C1278 1.539 1_545 S
C1281 H1295 0.958 . S
C1281 H1296 0.962 1_545 S
C1281 H1297 0.960 . S
H1282 C1266 0.931 . S
H1283 C1271 0.929 . S
H1284 C1272 0.967 . S
H1285 C1272 0.962 . S
H1286 C1272 0.960 . S
H1287 C1273 0.961 . S
H1288 C1273 0.961 . S
H1289 C1273 0.961 . S
H1290 C1274 0.931 . S
H1291 C1279 0.930 . S
H1292 C1280 0.956 . S
H1293 C1280 0.961 . S
H1294 C1280 0.961 . S
H1295 C1281 0.958 . S
H1296 C1281 0.962 1_565 S
H1297 C1281 0.960 . S
C1298 C1299 1.391 . S
C1298 C1300 1.394 . S
C1298 H1314 0.931 . S
C1299 C1298 1.391 . S
C1299 C1303 1.376 . S
C1300 C1298 1.394 . S
C1300 C1301 1.369 . S
C1300 C1304 1.534 . S
C1301 C1300 1.369 . S
C1301 C1302 1.410 . S
C1301 C1309 1.503 1_655 S
C1302 C1301 1.410 . S
C1302 C1303 1.392 . S
C1302 C1305 1.511 . S
C1303 C1299 1.376 . S
C1303 C1302 1.392 . S
C1303 H1315 0.929 . S
C1304 C1300 1.534 . S
C1304 H1316 0.956 1_655 S
C1304 H1317 0.959 1_655 S
C1304 H1318 0.963 . S
C1305 C1302 1.511 . S
C1305 H1319 0.961 . S
C1305 H1320 0.961 1_655 S
C1305 H1321 0.961 . S
C1306 C1307 1.370 . S
C1306 C1308 1.363 . S
C1306 H1322 0.931 . S
C1307 C1306 1.370 . S
C1307 C1311 1.408 . S
C1308 C1306 1.363 . S
C1308 C1309 1.370 . S
C1308 C1312 1.524 . S
C1309 C1301 1.503 1_455 S
C1309 C1308 1.370 . S
C1309 C1310 1.403 . S
C1310 C1309 1.403 . S
C1310 C1311 1.404 . S
C1310 C1313 1.551 . S
C1311 C1307 1.408 . S
C1311 C1310 1.404 . S
C1311 H1323 0.930 . S
C1312 C1308 1.524 . S
C1312 H1324 0.956 . S
C1312 H1325 0.961 . S
C1312 H1326 0.961 . S
C1313 C1310 1.551 . S
C1313 H1327 0.961 1_455 S
C1313 H1328 0.968 . S
C1313 H1329 0.938 1_455 S
H1314 C1298 0.931 . S
H1315 C1303 0.929 . S
H1316 C1304 0.956 1_455 S
H1317 C1304 0.959 1_455 S
H1318 C1304 0.963 . S
H1319 C1305 0.961 . S
H1320 C1305 0.961 1_455 S
H1321 C1305 0.961 . S
H1322 C1306 0.931 . S
H1323 C1311 0.930 . S
H1324 C1312 0.956 . S
H1325 C1312 0.961 . S
H1326 C1312 0.961 . S
H1327 C1313 0.961 1_655 S
H1328 C1313 0.968 . S
H1329 C1313 0.938 1_655 S
C1330 C1331 1.391 . S
C1330 C1332 1.394 . S
C1330 H1346 0.931 . S
C1331 C1330 1.391 . S
C1331 C1335 1.376 . S
C1332 C1330 1.394 . S
C1332 C1333 1.369 . S
C1332 C1336 1.531 . S
C1333 C1332 1.369 . S
C1333 C1334 1.410 . S
C1333 C1341 1.503 . S
C1334 C1333 1.410 . S
C1334 C1335 1.392 . S
C1334 C1337 1.511 . S
C1335 C1331 1.376 . S
C1335 C1334 1.392 . S
C1335 H1347 0.929 . S
C1336 C1332 1.531 . S
C1336 H1348 0.960 . S
C1336 H1349 0.962 . S
C1336 H1350 0.960 . S
C1337 C1334 1.511 . S
C1337 H1351 0.961 . S
C1337 H1352 0.961 . S
C1337 H1353 0.961 . S
C1338 C1339 1.370 . S
C1338 C1340 1.363 . S
C1338 H1354 0.931 . S
C1339 C1338 1.370 . S
C1339 C1343 1.408 . S
C1340 C1338 1.363 . S
C1340 C1341 1.370 . S
C1340 C1344 1.524 . S
C1341 C1333 1.503 . S
C1341 C1340 1.370 . S
C1341 C1342 1.403 . S
C1342 C1341 1.403 . S
C1342 C1343 1.404 . S
C1342 C1345 1.539 . S
C1343 C1339 1.408 . S
C1343 C1342 1.404 . S
C1343 H1355 0.930 . S
C1344 C1340 1.524 . S
C1344 H1356 0.956 . S
C1344 H1357 0.961 . S
C1344 H1358 0.961 . S
C1345 C1342 1.539 . S
C1345 H1359 0.958 . S
C1345 H1360 0.961 . S
C1345 H1361 0.960 . S
H1346 C1330 0.931 . S
H1347 C1335 0.929 . S
H1348 C1336 0.960 . S
H1349 C1336 0.962 . S
H1350 C1336 0.960 . S
H1351 C1337 0.961 . S
H1352 C1337 0.961 . S
H1353 C1337 0.961 . S
H1354 C1338 0.931 . S
H1355 C1343 0.930 . S
H1356 C1344 0.956 . S
H1357 C1344 0.961 . S
H1358 C1344 0.961 . S
H1359 C1345 0.958 . S
H1360 C1345 0.961 . S
H1361 C1345 0.960 . S
C1362 C1363 1.391 . S
C1362 C1364 1.394 . S
C1362 H1378 0.931 . S
C1363 C1362 1.391 . S
C1363 C1367 1.376 . S
C1364 C1362 1.394 . S
C1364 C1365 1.369 . S
C1364 C1368 1.531 . S
C1365 C1364 1.369 . S
C1365 C1366 1.410 . S
C1365 C1373 1.503 . S
C1366 C1365 1.410 . S
C1366 C1367 1.392 . S
C1366 C1369 1.511 . S
C1367 C1363 1.376 . S
C1367 C1366 1.392 . S
C1367 H1379 0.929 . S
C1368 C1364 1.531 . S
C1368 H1380 0.960 . S
C1368 H1381 0.962 . S
C1368 H1382 0.960 . S
C1369 C1366 1.511 . S
C1369 H1383 0.961 . S
C1369 H1384 0.961 . S
C1369 H1385 0.961 . S
C1370 C1371 1.370 . S
C1370 C1372 1.363 . S
C1370 H1386 0.931 . S
C1371 C1370 1.370 . S
C1371 C1375 1.408 . S
C1372 C1370 1.363 . S
C1372 C1373 1.370 . S
C1372 C1376 1.524 . S
C1373 C1365 1.503 . S
C1373 C1372 1.370 . S
C1373 C1374 1.403 . S
C1374 C1373 1.403 . S
C1374 C1375 1.404 . S
C1374 C1377 1.539 . S
C1375 C1371 1.408 . S
C1375 C1374 1.404 . S
C1375 H1387 0.930 . S
C1376 C1372 1.524 . S
C1376 H1388 0.956 . S
C1376 H1389 0.961 . S
C1376 H1390 0.961 . S
C1377 C1374 1.539 . S
C1377 H1391 0.958 . S
C1377 H1392 0.961 . S
C1377 H1393 0.960 . S
H1378 C1362 0.931 . S
H1379 C1367 0.929 . S
H1380 C1368 0.960 . S
H1381 C1368 0.962 . S
H1382 C1368 0.960 . S
H1383 C1369 0.961 . S
H1384 C1369 0.961 . S
H1385 C1369 0.961 . S
H1386 C1370 0.931 . S
H1387 C1375 0.930 . S
H1388 C1376 0.956 . S
H1389 C1376 0.961 . S
H1390 C1376 0.961 . S
H1391 C1377 0.958 . S
H1392 C1377 0.961 . S
H1393 C1377 0.960 . S
C1394 C1395 1.391 . S
C1394 C1396 1.394 . S
C1394 H1410 0.931 . S
C1395 C1394 1.391 . S
C1395 C1399 1.376 . S
C1396 C1394 1.394 . S
C1396 C1397 1.369 . S
C1396 C1400 1.531 . S
C1397 C1396 1.369 . S
C1397 C1398 1.410 . S
C1397 C1405 1.503 . S
C1398 C1397 1.410 . S
C1398 C1399 1.392 . S
C1398 C1401 1.511 . S
C1399 C1395 1.376 . S
C1399 C1398 1.392 . S
C1399 H1411 0.929 . S
C1400 C1396 1.531 . S
C1400 H1412 0.960 . S
C1400 H1413 0.962 . S
C1400 H1414 0.960 . S
C1401 C1398 1.511 . S
C1401 H1415 0.961 . S
C1401 H1416 0.961 . S
C1401 H1417 0.961 . S
C1402 C1403 1.370 . S
C1402 C1404 1.363 . S
C1402 H1418 0.931 . S
C1403 C1402 1.370 . S
C1403 C1407 1.408 . S
C1404 C1402 1.363 . S
C1404 C1405 1.370 . S
C1404 C1408 1.524 . S
C1405 C1397 1.503 . S
C1405 C1404 1.370 . S
C1405 C1406 1.403 . S
C1406 C1405 1.403 . S
C1406 C1407 1.404 . S
C1406 C1409 1.539 . S
C1407 C1403 1.408 . S
C1407 C1406 1.404 . S
C1407 H1419 0.930 . S
C1408 C1404 1.524 . S
C1408 H1420 0.956 . S
C1408 H1421 0.961 . S
C1408 H1422 0.961 . S
C1409 C1406 1.539 . S
C1409 H1423 0.958 . S
C1409 H1424 0.961 . S
C1409 H1425 0.960 . S
H1410 C1394 0.931 . S
H1411 C1399 0.929 . S
H1412 C1400 0.960 . S
H1413 C1400 0.962 . S
H1414 C1400 0.960 . S
H1415 C1401 0.961 . S
H1416 C1401 0.961 . S
H1417 C1401 0.961 . S
H1418 C1402 0.931 . S
H1419 C1407 0.930 . S
H1420 C1408 0.956 . S
H1421 C1408 0.961 . S
H1422 C1408 0.961 . S
H1423 C1409 0.958 . S
H1424 C1409 0.961 . S
H1425 C1409 0.960 . S
C1426 C1427 1.391 . S
C1426 C1428 1.394 . S
C1426 H1442 0.931 . S
C1427 C1426 1.391 . S
C1427 C1431 1.376 . S
C1428 C1426 1.394 . S
C1428 C1429 1.369 . S
C1428 C1432 1.531 . S
C1429 C1428 1.369 . S
C1429 C1430 1.410 . S
C1429 C1437 1.503 . S
C1430 C1429 1.410 . S
C1430 C1431 1.392 . S
C1430 C1433 1.511 . S
C1431 C1427 1.376 . S
C1431 C1430 1.392 . S
C1431 H1443 0.929 . S
C1432 C1428 1.531 . S
C1432 H1444 0.960 . S
C1432 H1445 0.962 . S
C1432 H1446 0.960 . S
C1433 C1430 1.511 . S
C1433 H1447 0.961 . S
C1433 H1448 0.961 . S
C1433 H1449 0.961 . S
C1434 C1435 1.370 . S
C1434 C1436 1.363 . S
C1434 H1450 0.931 . S
C1435 C1434 1.370 . S
C1435 C1439 1.408 . S
C1436 C1434 1.363 . S
C1436 C1437 1.370 . S
C1436 C1440 1.524 . S
C1437 C1429 1.503 . S
C1437 C1436 1.370 . S
C1437 C1438 1.403 . S
C1438 C1437 1.403 . S
C1438 C1439 1.404 . S
C1438 C1441 1.539 . S
C1439 C1435 1.408 . S
C1439 C1438 1.404 . S
C1439 H1451 0.930 . S
C1440 C1436 1.524 . S
C1440 H1452 0.956 . S
C1440 H1453 0.961 . S
C1440 H1454 0.961 . S
C1441 C1438 1.539 . S
C1441 H1455 0.958 . S
C1441 H1456 0.961 . S
C1441 H1457 0.960 . S
H1442 C1426 0.931 . S
H1443 C1431 0.929 . S
H1444 C1432 0.960 . S
H1445 C1432 0.962 . S
H1446 C1432 0.960 . S
H1447 C1433 0.961 . S
H1448 C1433 0.961 . S
H1449 C1433 0.961 . S
H1450 C1434 0.931 . S
H1451 C1439 0.930 . S
H1452 C1440 0.956 . S
H1453 C1440 0.961 . S
H1454 C1440 0.961 . S
H1455 C1441 0.958 . S
H1456 C1441 0.961 . S
H1457 C1441 0.960 . S
C1458 C1459 1.391 . S
C1458 C1460 1.394 . S
C1458 H1474 0.931 . S
C1459 C1458 1.391 . S
C1459 C1463 1.376 . S
C1460 C1458 1.394 . S
C1460 C1461 1.369 . S
C1460 C1464 1.531 1_565 S
C1461 C1460 1.369 . S
C1461 C1462 1.442 . S
C1461 C1469 1.471 1_565 S
C1462 C1461 1.442 . S
C1462 C1463 1.392 . S
C1462 C1465 1.511 . S
C1463 C1459 1.376 . S
C1463 C1462 1.392 . S
C1463 H1475 0.929 . S
C1464 C1460 1.531 1_545 S
C1464 H1476 0.960 . S
C1464 H1477 0.962 . S
C1464 H1478 0.960 1_545 S
C1465 C1462 1.511 . S
C1465 H1479 0.961 . S
C1465 H1480 0.961 1_565 S
C1465 H1481 0.961 . S
C1466 C1467 1.370 . S
C1466 C1468 1.363 . S
C1466 H1482 0.931 . S
C1467 C1466 1.370 . S
C1467 C1471 1.408 . S
C1468 C1466 1.363 . S
C1468 C1469 1.370 . S
C1468 C1472 1.524 . S
C1469 C1461 1.471 1_545 S
C1469 C1468 1.370 . S
C1469 C1470 1.403 . S
C1470 C1469 1.403 . S
C1470 C1471 1.404 . S
C1470 C1473 1.539 . S
C1471 C1467 1.408 . S
C1471 C1470 1.404 . S
C1471 H1483 0.930 . S
C1472 C1468 1.524 . S
C1472 H1484 0.956 . S
C1472 H1485 0.961 . S
C1472 H1486 0.961 . S
C1473 C1470 1.539 . S
C1473 H1487 0.958 . S
C1473 H1488 0.961 . S
C1473 H1489 0.960 . S
H1474 C1458 0.931 . S
H1475 C1463 0.929 . S
H1476 C1464 0.960 . S
H1477 C1464 0.962 . S
H1478 C1464 0.960 1_565 S
H1479 C1465 0.961 . S
H1480 C1465 0.961 1_545 S
H1481 C1465 0.961 . S
H1482 C1466 0.931 . S
H1483 C1471 0.930 . S
H1484 C1472 0.956 . S
H1485 C1472 0.961 . S
H1486 C1472 0.961 . S
H1487 C1473 0.958 . S
H1488 C1473 0.961 . S
H1489 C1473 0.960 . S
C1490 C1491 1.391 . S
C1490 C1492 1.394 . S
C1490 H1506 0.931 . S
C1491 C1490 1.391 . S
C1491 C1495 1.376 . S
C1492 C1490 1.394 . S
C1492 C1493 1.369 1_455 S
C1492 C1496 1.531 . S
C1493 C1492 1.369 1_655 S
C1493 C1494 1.410 . S
C1493 C1501 1.503 . S
C1494 C1493 1.410 . S
C1494 C1495 1.392 1_655 S
C1494 C1497 1.511 . S
C1495 C1491 1.376 . S
C1495 C1494 1.392 1_455 S
C1495 H1507 0.929 . S
C1496 C1492 1.531 . S
C1496 H1508 0.950 1_455 S
C1496 H1509 0.962 . S
C1496 H1510 0.960 . S
C1497 C1494 1.511 . S
C1497 H1511 0.961 . S
C1497 H1512 0.961 . S
C1497 H1513 0.961 . S
C1498 C1499 1.370 . S
C1498 C1500 1.363 . S
C1498 H1514 0.931 . S
C1499 C1498 1.370 . S
C1499 C1503 1.408 . S
C1500 C1498 1.363 . S
C1500 C1501 1.370 . S
C1500 C1504 1.524 . S
C1501 C1493 1.503 . S
C1501 C1500 1.370 . S
C1501 C1502 1.403 . S
C1502 C1501 1.403 . S
C1502 C1503 1.404 . S
C1502 C1505 1.539 . S
C1503 C1499 1.408 . S
C1503 C1502 1.404 . S
C1503 H1515 0.930 . S
C1504 C1500 1.524 . S
C1504 H1516 0.956 . S
C1504 H1517 0.961 . S
C1504 H1518 0.961 . S
C1505 C1502 1.539 . S
C1505 H1519 0.958 . S
C1505 H1520 0.961 . S
C1505 H1521 0.960 . S
H1506 C1490 0.931 . S
H1507 C1495 0.929 . S
H1508 C1496 0.950 1_655 S
H1509 C1496 0.962 . S
H1510 C1496 0.960 . S
H1511 C1497 0.961 . S
H1512 C1497 0.961 . S
H1513 C1497 0.961 . S
H1514 C1498 0.931 . S
H1515 C1503 0.930 . S
H1516 C1504 0.956 . S
H1517 C1504 0.961 . S
H1518 C1504 0.961 . S
H1519 C1505 0.958 . S
H1520 C1505 0.961 . S
H1521 C1505 0.960 . S
C1522 C1523 1.391 . S
C1522 C1524 1.394 . S
C1522 H1538 0.931 . S
C1523 C1522 1.391 . S
C1523 C1527 1.376 . S
C1524 C1522 1.394 . S
C1524 C1525 1.369 . S
C1524 C1528 1.531 . S
C1525 C1524 1.369 . S
C1525 C1526 1.410 . S
C1525 C1533 1.503 . S
C1526 C1525 1.410 . S
C1526 C1527 1.392 . S
C1526 C1529 1.511 . S
C1527 C1523 1.376 . S
C1527 C1526 1.392 . S
C1527 H1539 0.929 . S
C1528 C1524 1.531 . S
C1528 H1540 0.960 . S
C1528 H1541 0.962 . S
C1528 H1542 0.960 . S
C1529 C1526 1.511 . S
C1529 H1543 0.961 . S
C1529 H1544 0.961 . S
C1529 H1545 0.961 . S
C1530 C1531 1.370 . S
C1530 C1532 1.363 . S
C1530 H1546 0.931 . S
C1531 C1530 1.370 . S
C1531 C1535 1.408 . S
C1532 C1530 1.363 . S
C1532 C1533 1.370 . S
C1532 C1536 1.524 . S
C1533 C1525 1.503 . S
C1533 C1532 1.370 . S
C1533 C1534 1.403 . S
C1534 C1533 1.403 . S
C1534 C1535 1.404 . S
C1534 C1537 1.539 . S
C1535 C1531 1.408 . S
C1535 C1534 1.404 . S
C1535 H1547 0.930 . S
C1536 C1532 1.524 . S
C1536 H1548 0.956 . S
C1536 H1549 0.961 . S
C1536 H1550 0.961 . S
C1537 C1534 1.539 . S
C1537 H1551 0.958 . S
C1537 H1552 0.961 . S
C1537 H1553 0.960 . S
H1538 C1522 0.931 . S
H1539 C1527 0.929 . S
H1540 C1528 0.960 . S
H1541 C1528 0.962 . S
H1542 C1528 0.960 . S
H1543 C1529 0.961 . S
H1544 C1529 0.961 . S
H1545 C1529 0.961 . S
H1546 C1530 0.931 . S
H1547 C1535 0.930 . S
H1548 C1536 0.956 . S
H1549 C1536 0.961 . S
H1550 C1536 0.961 . S
H1551 C1537 0.958 . S
H1552 C1537 0.961 . S
H1553 C1537 0.960 . S
C1554 C1555 1.391 . S
C1554 C1556 1.394 . S
C1554 H1570 0.931 . S
C1555 C1554 1.391 . S
C1555 C1559 1.376 . S
C1556 C1554 1.394 . S
C1556 C1557 1.369 . S
C1556 C1560 1.531 . S
C1557 C1556 1.369 . S
C1557 C1558 1.410 . S
C1557 C1565 1.503 . S
C1558 C1557 1.410 . S
C1558 C1559 1.392 . S
C1558 C1561 1.511 . S
C1559 C1555 1.376 . S
C1559 C1558 1.392 . S
C1559 H1571 0.929 . S
C1560 C1556 1.531 . S
C1560 H1572 0.960 . S
C1560 H1573 0.962 . S
C1560 H1574 0.960 . S
C1561 C1558 1.511 . S
C1561 H1575 0.961 . S
C1561 H1576 0.961 . S
C1561 H1577 0.961 . S
C1562 C1563 1.370 . S
C1562 C1564 1.363 1_655 S
C1562 H1578 0.931 . S
C1563 C1562 1.370 . S
C1563 C1567 1.408 . S
C1564 C1562 1.363 1_455 S
C1564 C1565 1.370 . S
C1564 C1568 1.524 . S
C1565 C1557 1.503 . S
C1565 C1564 1.370 . S
C1565 C1566 1.403 1_455 S
C1566 C1565 1.403 1_655 S
C1566 C1567 1.404 . S
C1566 C1569 1.539 . S
C1567 C1563 1.408 . S
C1567 C1566 1.404 . S
C1567 H1579 0.930 . S
C1568 C1564 1.524 . S
C1568 H1580 0.956 . S
C1568 H1581 0.961 . S
C1568 H1582 0.961 . S
C1569 C1566 1.539 . S
C1569 H1583 0.958 1_655 S
C1569 H1584 0.961 . S
C1569 H1585 0.960 1_655 S
H1570 C1554 0.931 . S
H1571 C1559 0.929 . S
H1572 C1560 0.960 . S
H1573 C1560 0.962 . S
H1574 C1560 0.960 . S
H1575 C1561 0.961 . S
H1576 C1561 0.961 . S
H1577 C1561 0.961 . S
H1578 C1562 0.931 . S
H1579 C1567 0.930 . S
H1580 C1568 0.956 . S
H1581 C1568 0.961 . S
H1582 C1568 0.961 . S
H1583 C1569 0.958 1_455 S
H1584 C1569 0.961 . S
H1585 C1569 0.960 1_455 S
C1586 C1587 1.391 . S
C1586 C1588 1.394 . S
C1586 H1602 0.931 . S
C1587 C1586 1.391 . S
C1587 C1591 1.376 . S
C1588 C1586 1.394 . S
C1588 C1589 1.369 . S
C1588 C1592 1.531 . S
C1589 C1588 1.369 . S
C1589 C1590 1.410 . S
C1589 C1597 1.503 . S
C1590 C1589 1.410 . S
C1590 C1591 1.392 . S
C1590 C1593 1.511 . S
C1591 C1587 1.376 . S
C1591 C1590 1.392 . S
C1591 H1603 0.929 . S
C1592 C1588 1.531 . S
C1592 H1604 0.960 . S
C1592 H1605 0.962 . S
C1592 H1606 0.960 . S
C1593 C1590 1.511 . S
C1593 H1607 0.961 . S
C1593 H1608 0.961 . S
C1593 H1609 0.961 . S
C1594 C1595 1.370 . S
C1594 C1596 1.363 . S
C1594 H1610 0.931 . S
C1595 C1594 1.370 . S
C1595 C1599 1.408 . S
C1596 C1594 1.363 . S
C1596 C1597 1.370 . S
C1596 C1600 1.524 . S
C1597 C1589 1.503 . S
C1597 C1596 1.370 . S
C1597 C1598 1.403 . S
C1598 C1597 1.403 . S
C1598 C1599 1.404 . S
C1598 C1601 1.539 . S
C1599 C1595 1.408 . S
C1599 C1598 1.404 . S
C1599 H1611 0.930 . S
C1600 C1596 1.524 . S
C1600 H1612 0.956 . S
C1600 H1613 0.961 . S
C1600 H1614 0.961 . S
C1601 C1598 1.539 . S
C1601 H1615 0.958 . S
C1601 H1616 0.961 . S
C1601 H1617 0.960 . S
H1602 C1586 0.931 . S
H1603 C1591 0.929 . S
H1604 C1592 0.960 . S
H1605 C1592 0.962 . S
H1606 C1592 0.960 . S
H1607 C1593 0.961 . S
H1608 C1593 0.961 . S
H1609 C1593 0.961 . S
H1610 C1594 0.931 . S
H1611 C1599 0.930 . S
H1612 C1600 0.956 . S
H1613 C1600 0.961 . S
H1614 C1600 0.961 . S
H1615 C1601 0.958 . S
H1616 C1601 0.961 . S
H1617 C1601 0.960 . S
C1618 C1619 1.391 . S
C1618 C1620 1.394 . S
C1618 H1634 0.931 . S
C1619 C1618 1.391 . S
C1619 C1623 1.376 . S
C1620 C1618 1.394 . S
C1620 C1621 1.369 . S
C1620 C1624 1.531 . S
C1621 C1620 1.369 . S
C1621 C1622 1.410 . S
C1621 C1629 1.503 1_565 S
C1622 C1621 1.410 . S
C1622 C1623 1.392 . S
C1622 C1625 1.511 . S
C1623 C1619 1.376 . S
C1623 C1622 1.392 . S
C1623 H1635 0.929 . S
C1624 C1620 1.531 . S
C1624 H1636 0.960 . S
C1624 H1637 0.962 . S
C1624 H1638 0.960 . S
C1625 C1622 1.511 . S
C1625 H1639 0.961 . S
C1625 H1640 0.961 1_565 S
C1625 H1641 0.961 . S
C1626 C1627 1.370 . S
C1626 C1628 1.363 . S
C1626 H1642 0.931 . S
C1627 C1626 1.370 . S
C1627 C1631 1.408 . S
C1628 C1626 1.363 . S
C1628 C1629 1.370 . S
C1628 C1632 1.524 . S
C1629 C1621 1.503 1_545 S
C1629 C1628 1.370 . S
C1629 C1630 1.403 . S
C1630 C1629 1.403 . S
C1630 C1631 1.404 . S
C1630 C1633 1.539 1_545 S
C1631 C1627 1.408 . S
C1631 C1630 1.404 . S
C1631 H1643 0.930 . S
C1632 C1628 1.524 . S
C1632 H1644 0.956 . S
C1632 H1645 0.961 . S
C1632 H1646 0.961 . S
C1633 C1630 1.539 1_565 S
C1633 H1647 0.958 . S
C1633 H1648 0.961 1_565 S
C1633 H1649 0.960 . S
H1634 C1618 0.931 . S
H1635 C1623 0.929 . S
H1636 C1624 0.960 . S
H1637 C1624 0.962 . S
H1638 C1624 0.960 . S
H1639 C1625 0.961 . S
H1640 C1625 0.961 1_545 S
H1641 C1625 0.961 . S
H1642 C1626 0.931 . S
H1643 C1631 0.930 . S
H1644 C1632 0.956 . S
H1645 C1632 0.961 . S
H1646 C1632 0.961 . S
H1647 C1633 0.958 . S
H1648 C1633 0.961 1_545 S
H1649 C1633 0.960 . S
C1650 C1651 1.391 . S
C1650 C1652 1.394 . S
C1650 H1666 0.931 . S
C1651 C1650 1.391 . S
C1651 C1655 1.376 . S
C1652 C1650 1.394 . S
C1652 C1653 1.369 . S
C1652 C1656 1.531 . S
C1653 C1652 1.369 . S
C1653 C1654 1.410 . S
C1653 C1661 1.503 . S
C1654 C1653 1.410 . S
C1654 C1655 1.392 . S
C1654 C1657 1.511 . S
C1655 C1651 1.376 . S
C1655 C1654 1.392 . S
C1655 H1667 0.929 . S
C1656 C1652 1.531 . S
C1656 H1668 0.960 . S
C1656 H1669 0.962 . S
C1656 H1670 0.960 . S
C1657 C1654 1.511 . S
C1657 H1671 0.961 . S
C1657 H1672 0.961 . S
C1657 H1673 0.961 . S
C1658 C1659 1.370 . S
C1658 C1660 1.363 . S
C1658 H1674 0.931 . S
C1659 C1658 1.370 . S
C1659 C1663 1.408 . S
C1660 C1658 1.363 . S
C1660 C1661 1.370 . S
C1660 C1664 1.524 . S
C1661 C1653 1.503 . S
C1661 C1660 1.370 . S
C1661 C1662 1.403 . S
C1662 C1661 1.403 . S
C1662 C1663 1.404 . S
C1662 C1665 1.539 . S
C1663 C1659 1.408 . S
C1663 C1662 1.404 . S
C1663 H1675 0.930 . S
C1664 C1660 1.524 . S
C1664 H1676 0.956 . S
C1664 H1677 0.961 . S
C1664 H1678 0.961 . S
C1665 C1662 1.539 . S
C1665 H1679 0.958 . S
C1665 H1680 0.961 . S
C1665 H1681 0.960 . S
H1666 C1650 0.931 . S
H1667 C1655 0.929 . S
H1668 C1656 0.960 . S
H1669 C1656 0.962 . S
H1670 C1656 0.960 . S
H1671 C1657 0.961 . S
H1672 C1657 0.961 . S
H1673 C1657 0.961 . S
H1674 C1658 0.931 . S
H1675 C1663 0.930 . S
H1676 C1664 0.956 . S
H1677 C1664 0.961 . S
H1678 C1664 0.961 . S
H1679 C1665 0.958 . S
H1680 C1665 0.961 . S
H1681 C1665 0.960 . S
C1682 C1683 1.391 . S
C1682 C1684 1.394 . S
C1682 H1698 0.931 . S
C1683 C1682 1.391 . S
C1683 C1687 1.376 . S
C1684 C1682 1.394 . S
C1684 C1685 1.369 . S
C1684 C1688 1.531 . S
C1685 C1684 1.369 . S
C1685 C1686 1.410 . S
C1685 C1693 1.503 . S
C1686 C1685 1.410 . S
C1686 C1687 1.392 . S
C1686 C1689 1.511 . S
C1687 C1683 1.376 . S
C1687 C1686 1.392 . S
C1687 H1699 0.929 . S
C1688 C1684 1.531 . S
C1688 H1700 0.960 . S
C1688 H1701 0.962 . S
C1688 H1702 0.960 . S
C1689 C1686 1.511 . S
C1689 H1703 0.961 . S
C1689 H1704 0.961 . S
C1689 H1705 0.961 . S
C1690 C1691 1.370 . S
C1690 C1692 1.363 . S
C1690 H1706 0.931 . S
C1691 C1690 1.370 . S
C1691 C1695 1.408 . S
C1692 C1690 1.363 . S
C1692 C1693 1.370 . S
C1692 C1696 1.524 . S
C1693 C1685 1.503 . S
C1693 C1692 1.370 . S
C1693 C1694 1.403 . S
C1694 C1693 1.403 . S
C1694 C1695 1.404 . S
C1694 C1697 1.539 . S
C1695 C1691 1.408 . S
C1695 C1694 1.404 . S
C1695 H1707 0.930 . S
C1696 C1692 1.524 . S
C1696 H1708 0.956 . S
C1696 H1709 0.961 . S
C1696 H1710 0.961 . S
C1697 C1694 1.539 . S
C1697 H1711 0.958 . S
C1697 H1712 0.961 . S
C1697 H1713 0.960 . S
H1698 C1682 0.931 . S
H1699 C1687 0.929 . S
H1700 C1688 0.960 . S
H1701 C1688 0.962 . S
H1702 C1688 0.960 . S
H1703 C1689 0.961 . S
H1704 C1689 0.961 . S
H1705 C1689 0.961 . S
H1706 C1690 0.931 . S
H1707 C1695 0.930 . S
H1708 C1696 0.956 . S
H1709 C1696 0.961 . S
H1710 C1696 0.961 . S
H1711 C1697 0.958 . S
H1712 C1697 0.961 . S
H1713 C1697 0.960 . S
C1714 C1715 1.391 . S
C1714 C1716 1.394 . S
C1714 H1730 0.931 . S
C1715 C1714 1.391 . S
C1715 C1719 1.376 . S
C1716 C1714 1.394 . S
C1716 C1717 1.369 . S
C1716 C1720 1.531 . S
C1717 C1716 1.369 . S
C1717 C1718 1.410 . S
C1717 C1725 1.503 . S
C1718 C1717 1.410 . S
C1718 C1719 1.392 . S
C1718 C1721 1.511 . S
C1719 C1715 1.376 . S
C1719 C1718 1.392 . S
C1719 H1731 0.929 . S
C1720 C1716 1.531 . S
C1720 H1732 0.960 . S
C1720 H1733 0.962 . S
C1720 H1734 0.960 . S
C1721 C1718 1.511 . S
C1721 H1735 0.961 . S
C1721 H1736 0.961 . S
C1721 H1737 0.961 . S
C1722 C1723 1.370 . S
C1722 C1724 1.363 . S
C1722 H1738 0.931 . S
C1723 C1722 1.370 . S
C1723 C1727 1.408 . S
C1724 C1722 1.363 . S
C1724 C1725 1.370 . S
C1724 C1728 1.524 . S
C1725 C1717 1.503 . S
C1725 C1724 1.370 . S
C1725 C1726 1.403 . S
C1726 C1725 1.403 . S
C1726 C1727 1.404 . S
C1726 C1729 1.539 . S
C1727 C1723 1.408 . S
C1727 C1726 1.404 . S
C1727 H1739 0.930 . S
C1728 C1724 1.524 . S
C1728 H1740 0.956 . S
C1728 H1741 0.961 . S
C1728 H1742 0.961 . S
C1729 C1726 1.539 . S
C1729 H1743 0.958 . S
C1729 H1744 0.961 . S
C1729 H1745 0.960 . S
H1730 C1714 0.931 . S
H1731 C1719 0.929 . S
H1732 C1720 0.960 . S
H1733 C1720 0.962 . S
H1734 C1720 0.960 . S
H1735 C1721 0.961 . S
H1736 C1721 0.961 . S
H1737 C1721 0.961 . S
H1738 C1722 0.931 . S
H1739 C1727 0.930 . S
H1740 C1728 0.956 . S
H1741 C1728 0.961 . S
H1742 C1728 0.961 . S
H1743 C1729 0.958 . S
H1744 C1729 0.961 . S
H1745 C1729 0.960 . S
C1746 C1747 1.391 . S
C1746 C1748 1.394 . S
C1746 H1762 0.931 . S
C1747 C1746 1.391 . S
C1747 C1751 1.376 . S
C1748 C1746 1.394 . S
C1748 C1749 1.369 . S
C1748 C1752 1.531 . S
C1749 C1748 1.369 . S
C1749 C1750 1.410 . S
C1749 C1757 1.503 . S
C1750 C1749 1.410 . S
C1750 C1751 1.392 . S
C1750 C1753 1.511 . S
C1751 C1747 1.376 . S
C1751 C1750 1.392 . S
C1751 H1763 0.929 . S
C1752 C1748 1.531 . S
C1752 H1764 0.960 . S
C1752 H1765 0.962 . S
C1752 H1766 0.960 . S
C1753 C1750 1.511 . S
C1753 H1767 0.961 . S
C1753 H1768 0.961 . S
C1753 H1769 0.961 . S
C1754 C1755 1.370 . S
C1754 C1756 1.363 . S
C1754 H1770 0.931 . S
C1755 C1754 1.370 . S
C1755 C1759 1.408 . S
C1756 C1754 1.363 . S
C1756 C1757 1.370 . S
C1756 C1760 1.524 . S
C1757 C1749 1.503 . S
C1757 C1756 1.370 . S
C1757 C1758 1.403 . S
C1758 C1757 1.403 . S
C1758 C1759 1.404 . S
C1758 C1761 1.539 . S
C1759 C1755 1.408 . S
C1759 C1758 1.404 . S
C1759 H1771 0.930 . S
C1760 C1756 1.524 . S
C1760 H1772 0.956 . S
C1760 H1773 0.961 . S
C1760 H1774 0.961 . S
C1761 C1758 1.539 . S
C1761 H1775 0.958 . S
C1761 H1776 0.961 . S
C1761 H1777 0.960 . S
H1762 C1746 0.931 . S
H1763 C1751 0.929 . S
H1764 C1752 0.960 . S
H1765 C1752 0.962 . S
H1766 C1752 0.960 . S
H1767 C1753 0.961 . S
H1768 C1753 0.961 . S
H1769 C1753 0.961 . S
H1770 C1754 0.931 . S
H1771 C1759 0.930 . S
H1772 C1760 0.956 . S
H1773 C1760 0.961 . S
H1774 C1760 0.961 . S
H1775 C1761 0.958 . S
H1776 C1761 0.961 . S
H1777 C1761 0.960 . S
C1778 C1779 1.391 . S
C1778 C1780 1.394 . S
C1778 H1794 0.931 . S
C1779 C1778 1.391 . S
C1779 C1783 1.376 . S
C1780 C1778 1.394 . S
C1780 C1781 1.369 . S
C1780 C1784 1.531 . S
C1781 C1780 1.369 . S
C1781 C1782 1.410 . S
C1781 C1789 1.503 . S
C1782 C1781 1.410 . S
C1782 C1783 1.392 . S
C1782 C1785 1.547 . S
C1783 C1779 1.376 . S
C1783 C1782 1.392 . S
C1783 H1795 0.929 . S
C1784 C1780 1.531 . S
C1784 H1796 0.960 . S
C1784 H1797 0.962 . S
C1784 H1798 0.960 . S
C1785 C1782 1.547 . S
C1785 H1799 0.938 1_455 S
C1785 H1800 0.972 . S
C1785 H1801 0.939 1_455 S
C1786 C1787 1.370 . S
C1786 C1788 1.363 . S
C1786 H1802 0.931 . S
C1787 C1786 1.370 . S
C1787 C1791 1.408 . S
C1788 C1786 1.363 . S
C1788 C1789 1.370 . S
C1788 C1792 1.524 . S
C1789 C1781 1.503 . S
C1789 C1788 1.370 . S
C1789 C1790 1.403 . S
C1790 C1789 1.403 . S
C1790 C1791 1.404 . S
C1790 C1793 1.553 . S
C1791 C1787 1.408 . S
C1791 C1790 1.404 . S
C1791 H1803 0.930 . S
C1792 C1788 1.524 . S
C1792 H1804 0.956 . S
C1792 H1805 0.961 . S
C1792 H1806 0.961 . S
C1793 C1790 1.553 . S
C1793 H1807 0.989 . S
C1793 H1808 0.936 1_455 S
C1793 H1809 0.942 1_455 S
H1794 C1778 0.931 . S
H1795 C1783 0.929 . S
H1796 C1784 0.960 . S
H1797 C1784 0.962 . S
H1798 C1784 0.960 . S
H1799 C1785 0.938 1_655 S
H1800 C1785 0.972 . S
H1801 C1785 0.939 1_655 S
H1802 C1786 0.931 . S
H1803 C1791 0.930 . S
H1804 C1792 0.956 . S
H1805 C1792 0.961 . S
H1806 C1792 0.961 . S
H1807 C1793 0.989 . S
H1808 C1793 0.936 1_655 S
H1809 C1793 0.942 1_655 S
C1810 C1811 1.391 . S
C1810 C1812 1.394 . S
C1810 H1826 0.931 . S
C1811 C1810 1.391 . S
C1811 C1815 1.376 . S
C1812 C1810 1.394 . S
C1812 C1813 1.369 . S
C1812 C1816 1.531 . S
C1813 C1812 1.369 . S
C1813 C1814 1.410 . S
C1813 C1821 1.503 . S
C1814 C1813 1.410 . S
C1814 C1815 1.392 . S
C1814 C1817 1.511 . S
C1815 C1811 1.376 . S
C1815 C1814 1.392 . S
C1815 H1827 0.929 . S
C1816 C1812 1.531 . S
C1816 H1828 0.960 . S
C1816 H1829 0.962 . S
C1816 H1830 0.960 . S
C1817 C1814 1.511 . S
C1817 H1831 0.961 . S
C1817 H1832 0.961 . S
C1817 H1833 0.961 . S
C1818 C1819 1.370 . S
C1818 C1820 1.363 . S
C1818 H1834 0.931 . S
C1819 C1818 1.370 . S
C1819 C1823 1.408 . S
C1820 C1818 1.363 . S
C1820 C1821 1.370 . S
C1820 C1824 1.524 . S
C1821 C1813 1.503 . S
C1821 C1820 1.370 . S
C1821 C1822 1.403 . S
C1822 C1821 1.403 . S
C1822 C1823 1.404 . S
C1822 C1825 1.539 . S
C1823 C1819 1.408 . S
C1823 C1822 1.404 . S
C1823 H1835 0.930 . S
C1824 C1820 1.524 . S
C1824 H1836 0.956 . S
C1824 H1837 0.961 . S
C1824 H1838 0.961 . S
C1825 C1822 1.539 . S
C1825 H1839 0.958 . S
C1825 H1840 0.961 . S
C1825 H1841 0.960 . S
H1826 C1810 0.931 . S
H1827 C1815 0.929 . S
H1828 C1816 0.960 . S
H1829 C1816 0.962 . S
H1830 C1816 0.960 . S
H1831 C1817 0.961 . S
H1832 C1817 0.961 . S
H1833 C1817 0.961 . S
H1834 C1818 0.931 . S
H1835 C1823 0.930 . S
H1836 C1824 0.956 . S
H1837 C1824 0.961 . S
H1838 C1824 0.961 . S
H1839 C1825 0.958 . S
H1840 C1825 0.961 . S
H1841 C1825 0.960 . S
C1842 C1843 1.391 . S
C1842 C1844 1.394 . S
C1842 H1858 0.931 . S
C1843 C1842 1.391 . S
C1843 C1847 1.376 . S
C1844 C1842 1.394 . S
C1844 C1845 1.369 . S
C1844 C1848 1.531 . S
C1845 C1844 1.369 . S
C1845 C1846 1.410 . S
C1845 C1853 1.503 . S
C1846 C1845 1.410 . S
C1846 C1847 1.392 . S
C1846 C1849 1.511 1_655 S
C1847 C1843 1.376 . S
C1847 C1846 1.392 . S
C1847 H1859 0.929 1_655 S
C1848 C1844 1.531 . S
C1848 H1860 0.960 . S
C1848 H1861 0.962 . S
C1848 H1862 0.960 . S
C1849 C1846 1.511 1_455 S
C1849 H1863 0.961 . S
C1849 H1864 0.961 . S
C1849 H1865 0.961 . S
C1850 C1851 1.370 . S
C1850 C1852 1.363 . S
C1850 H1866 0.931 . S
C1851 C1850 1.370 . S
C1851 C1855 1.408 . S
C1852 C1850 1.363 . S
C1852 C1853 1.370 . S
C1852 C1856 1.524 . S
C1853 C1845 1.503 . S
C1853 C1852 1.370 . S
C1853 C1854 1.403 . S
C1854 C1853 1.403 . S
C1854 C1855 1.404 . S
C1854 C1857 1.539 . S
C1855 C1851 1.408 . S
C1855 C1854 1.404 . S
C1855 H1867 0.930 . S
C1856 C1852 1.524 . S
C1856 H1868 0.956 . S
C1856 H1869 0.961 . S
C1856 H1870 0.961 . S
C1857 C1854 1.539 . S
C1857 H1871 0.958 . S
C1857 H1872 0.961 . S
C1857 H1873 0.960 . S
H1858 C1842 0.931 . S
H1859 C1847 0.929 1_455 S
H1860 C1848 0.960 . S
H1861 C1848 0.962 . S
H1862 C1848 0.960 . S
H1863 C1849 0.961 . S
H1864 C1849 0.961 . S
H1865 C1849 0.961 . S
H1866 C1850 0.931 . S
H1867 C1855 0.930 . S
H1868 C1856 0.956 . S
H1869 C1856 0.961 . S
H1870 C1856 0.961 . S
H1871 C1857 0.958 . S
H1872 C1857 0.961 . S
H1873 C1857 0.960 . S
C1874 C1875 1.391 . S
C1874 C1876 1.394 . S
C1874 H1890 0.931 . S
C1875 C1874 1.391 . S
C1875 C1879 1.376 . S
C1876 C1874 1.394 . S
C1876 C1877 1.369 . S
C1876 C1880 1.531 . S
C1877 C1876 1.369 . S
C1877 C1878 1.410 . S
C1877 C1885 1.503 . S
C1878 C1877 1.410 . S
C1878 C1879 1.392 . S
C1878 C1881 1.511 . S
C1879 C1875 1.376 . S
C1879 C1878 1.392 . S
C1879 H1891 0.929 . S
C1880 C1876 1.531 . S
C1880 H1892 0.960 . S
C1880 H1893 0.962 . S
C1880 H1894 0.960 . S
C1881 C1878 1.511 . S
C1881 H1895 0.961 . S
C1881 H1896 0.961 . S
C1881 H1897 0.961 . S
C1882 C1883 1.370 . S
C1882 C1884 1.363 . S
C1882 H1898 0.931 . S
C1883 C1882 1.370 . S
C1883 C1887 1.408 . S
C1884 C1882 1.363 . S
C1884 C1885 1.370 . S
C1884 C1888 1.524 . S
C1885 C1877 1.503 . S
C1885 C1884 1.370 . S
C1885 C1886 1.403 . S
C1886 C1885 1.403 . S
C1886 C1887 1.404 . S
C1886 C1889 1.539 . S
C1887 C1883 1.408 . S
C1887 C1886 1.404 . S
C1887 H1899 0.930 . S
C1888 C1884 1.524 . S
C1888 H1900 0.956 . S
C1888 H1901 0.961 . S
C1888 H1902 0.961 . S
C1889 C1886 1.539 . S
C1889 H1903 0.958 . S
C1889 H1904 0.961 . S
C1889 H1905 0.960 . S
H1890 C1874 0.931 . S
H1891 C1879 0.929 . S
H1892 C1880 0.960 . S
H1893 C1880 0.962 . S
H1894 C1880 0.960 . S
H1895 C1881 0.961 . S
H1896 C1881 0.961 . S
H1897 C1881 0.961 . S
H1898 C1882 0.931 . S
H1899 C1887 0.930 . S
H1900 C1888 0.956 . S
H1901 C1888 0.961 . S
H1902 C1888 0.961 . S
H1903 C1889 0.958 . S
H1904 C1889 0.961 . S
H1905 C1889 0.960 . S
C1906 C1907 1.391 . S
C1906 C1908 1.394 . S
C1906 H1922 0.931 . S
C1907 C1906 1.391 . S
C1907 C1911 1.376 . S
C1908 C1906 1.394 . S
C1908 C1909 1.369 . S
C1908 C1912 1.531 . S
C1909 C1908 1.369 . S
C1909 C1910 1.410 . S
C1909 C1917 1.503 . S
C1910 C1909 1.410 . S
C1910 C1911 1.392 . S
C1910 C1913 1.511 . S
C1911 C1907 1.376 . S
C1911 C1910 1.392 . S
C1911 H1923 0.929 . S
C1912 C1908 1.531 . S
C1912 H1924 0.960 . S
C1912 H1925 0.962 . S
C1912 H1926 0.960 . S
C1913 C1910 1.511 . S
C1913 H1927 0.961 . S
C1913 H1928 0.961 . S
C1913 H1929 0.961 . S
C1914 C1915 1.370 . S
C1914 C1916 1.363 . S
C1914 H1930 0.931 . S
C1915 C1914 1.370 . S
C1915 C1919 1.408 . S
C1916 C1914 1.363 . S
C1916 C1917 1.370 . S
C1916 C1920 1.524 . S
C1917 C1909 1.503 . S
C1917 C1916 1.370 . S
C1917 C1918 1.403 . S
C1918 C1917 1.403 . S
C1918 C1919 1.404 . S
C1918 C1921 1.539 . S
C1919 C1915 1.408 . S
C1919 C1918 1.404 . S
C1919 H1931 0.930 . S
C1920 C1916 1.524 . S
C1920 H1932 0.956 . S
C1920 H1933 0.961 . S
C1920 H1934 0.961 . S
C1921 C1918 1.539 . S
C1921 H1935 0.958 . S
C1921 H1936 0.961 . S
C1921 H1937 0.960 . S
H1922 C1906 0.931 . S
H1923 C1911 0.929 . S
H1924 C1912 0.960 . S
H1925 C1912 0.962 . S
H1926 C1912 0.960 . S
H1927 C1913 0.961 . S
H1928 C1913 0.961 . S
H1929 C1913 0.961 . S
H1930 C1914 0.931 . S
H1931 C1919 0.930 . S
H1932 C1920 0.956 . S
H1933 C1920 0.961 . S
H1934 C1920 0.961 . S
H1935 C1921 0.958 . S
H1936 C1921 0.961 . S
H1937 C1921 0.960 . S
C1938 C1939 1.391 . S
C1938 C1940 1.394 . S
C1938 H1954 0.931 . S
C1939 C1938 1.391 . S
C1939 C1943 1.376 . S
C1940 C1938 1.394 . S
C1940 C1941 1.369 . S
C1940 C1944 1.531 . S
C1941 C1940 1.369 . S
C1941 C1942 1.410 . S
C1941 C1949 1.503 . S
C1942 C1941 1.410 . S
C1942 C1943 1.392 . S
C1942 C1945 1.511 . S
C1943 C1939 1.376 . S
C1943 C1942 1.392 . S
C1943 H1955 0.929 . S
C1944 C1940 1.531 . S
C1944 H1956 0.960 . S
C1944 H1957 0.962 . S
C1944 H1958 0.960 . S
C1945 C1942 1.511 . S
C1945 H1959 0.961 . S
C1945 H1960 0.961 . S
C1945 H1961 0.961 . S
C1946 C1947 1.370 . S
C1946 C1948 1.363 . S
C1946 H1962 0.931 . S
C1947 C1946 1.370 . S
C1947 C1951 1.408 . S
C1948 C1946 1.363 . S
C1948 C1949 1.370 . S
C1948 C1952 1.524 . S
C1949 C1941 1.503 . S
C1949 C1948 1.370 . S
C1949 C1950 1.403 . S
C1950 C1949 1.403 . S
C1950 C1951 1.404 . S
C1950 C1953 1.539 . S
C1951 C1947 1.408 . S
C1951 C1950 1.404 . S
C1951 H1963 0.930 . S
C1952 C1948 1.524 . S
C1952 H1964 0.956 . S
C1952 H1965 0.961 . S
C1952 H1966 0.961 . S
C1953 C1950 1.539 . S
C1953 H1967 0.958 . S
C1953 H1968 0.961 . S
C1953 H1969 0.960 . S
H1954 C1938 0.931 . S
H1955 C1943 0.929 . S
H1956 C1944 0.960 . S
H1957 C1944 0.962 . S
H1958 C1944 0.960 . S
H1959 C1945 0.961 . S
H1960 C1945 0.961 . S
H1961 C1945 0.961 . S
H1962 C1946 0.931 . S
H1963 C1951 0.930 . S
H1964 C1952 0.956 . S
H1965 C1952 0.961 . S
H1966 C1952 0.961 . S
H1967 C1953 0.958 . S
H1968 C1953 0.961 . S
H1969 C1953 0.960 . S
C1970 C1971 1.391 . S
C1970 C1972 1.394 . S
C1970 H1986 0.931 . S
C1971 C1970 1.391 . S
C1971 C1975 1.376 . S
C1972 C1970 1.394 . S
C1972 C1973 1.369 . S
C1972 C1976 1.531 . S
C1973 C1972 1.369 . S
C1973 C1974 1.410 . S
C1973 C1981 1.503 . S
C1974 C1973 1.410 . S
C1974 C1975 1.392 . S
C1974 C1977 1.511 . S
C1975 C1971 1.376 . S
C1975 C1974 1.392 . S
C1975 H1987 0.929 . S
C1976 C1972 1.531 . S
C1976 H1988 0.960 . S
C1976 H1989 0.962 . S
C1976 H1990 0.960 . S
C1977 C1974 1.511 . S
C1977 H1991 0.961 . S
C1977 H1992 0.961 . S
C1977 H1993 0.961 . S
C1978 C1979 1.370 . S
C1978 C1980 1.363 . S
C1978 H1994 0.931 . S
C1979 C1978 1.370 . S
C1979 C1983 1.408 . S
C1980 C1978 1.363 . S
C1980 C1981 1.370 . S
C1980 C1984 1.524 . S
C1981 C1973 1.503 . S
C1981 C1980 1.370 . S
C1981 C1982 1.403 . S
C1982 C1981 1.403 . S
C1982 C1983 1.404 . S
C1982 C1985 1.539 . S
C1983 C1979 1.408 . S
C1983 C1982 1.404 . S
C1983 H1995 0.930 . S
C1984 C1980 1.524 . S
C1984 H1996 0.956 . S
C1984 H1997 0.961 . S
C1984 H1998 0.961 . S
C1985 C1982 1.539 . S
C1985 H1999 0.958 . S
C1985 H2000 0.961 . S
C1985 H2001 0.960 . S
H1986 C1970 0.931 . S
H1987 C1975 0.929 . S
H1988 C1976 0.960 . S
H1989 C1976 0.962 . S
H1990 C1976 0.960 . S
H1991 C1977 0.961 . S
H1992 C1977 0.961 . S
H1993 C1977 0.961 . S
H1994 C1978 0.931 . S
H1995 C1983 0.930 . S
H1996 C1984 0.956 . S
H1997 C1984 0.961 . S
H1998 C1984 0.961 . S
H1999 C1985 0.958 . S
H2000 C1985 0.961 . S
H2001 C1985 0.960 . S
C2002 C2003 1.391 . S
C2002 C2004 1.394 . S
C2002 H2018 0.931 . S
C2003 C2002 1.391 . S
C2003 C2007 1.376 . S
C2004 C2002 1.394 . S
C2004 C2005 1.369 . S
C2004 C2008 1.531 . S
C2005 C2004 1.369 . S
C2005 C2006 1.410 . S
C2005 C2013 1.503 . S
C2006 C2005 1.410 . S
C2006 C2007 1.392 . S
C2006 C2009 1.511 . S
C2007 C2003 1.376 . S
C2007 C2006 1.392 . S
C2007 H2019 0.929 . S
C2008 C2004 1.531 . S
C2008 H2020 0.960 . S
C2008 H2021 0.962 . S
C2008 H2022 0.960 . S
C2009 C2006 1.511 . S
C2009 H2023 0.961 . S
C2009 H2024 0.961 . S
C2009 H2025 0.961 . S
C2010 C2011 1.370 . S
C2010 C2012 1.363 . S
C2010 H2026 0.931 . S
C2011 C2010 1.370 . S
C2011 C2015 1.408 . S
C2012 C2010 1.363 . S
C2012 C2013 1.370 . S
C2012 C2016 1.524 . S
C2013 C2005 1.503 . S
C2013 C2012 1.370 . S
C2013 C2014 1.403 . S
C2014 C2013 1.403 . S
C2014 C2015 1.404 . S
C2014 C2017 1.539 . S
C2015 C2011 1.408 . S
C2015 C2014 1.404 . S
C2015 H2027 0.930 . S
C2016 C2012 1.524 . S
C2016 H2028 0.956 . S
C2016 H2029 0.961 . S
C2016 H2030 0.961 . S
C2017 C2014 1.539 . S
C2017 H2031 0.958 . S
C2017 H2032 0.961 . S
C2017 H2033 0.960 . S
H2018 C2002 0.931 . S
H2019 C2007 0.929 . S
H2020 C2008 0.960 . S
H2021 C2008 0.962 . S
H2022 C2008 0.960 . S
H2023 C2009 0.961 . S
H2024 C2009 0.961 . S
H2025 C2009 0.961 . S
H2026 C2010 0.931 . S
H2027 C2015 0.930 . S
H2028 C2016 0.956 . S
H2029 C2016 0.961 . S
H2030 C2016 0.961 . S
H2031 C2017 0.958 . S
H2032 C2017 0.961 . S
H2033 C2017 0.960 . S
C2034 C2035 1.391 . S
C2034 C2036 1.394 . S
C2034 H2050 0.931 . S
C2035 C2034 1.391 . S
C2035 C2039 1.376 . S
C2036 C2034 1.394 . S
C2036 C2037 1.369 . S
C2036 C2040 1.531 . S
C2037 C2036 1.369 . S
C2037 C2038 1.410 . S
C2037 C2045 1.503 . S
C2038 C2037 1.410 . S
C2038 C2039 1.392 . S
C2038 C2041 1.511 . S
C2039 C2035 1.376 . S
C2039 C2038 1.392 . S
C2039 H2051 0.929 . S
C2040 C2036 1.531 . S
C2040 H2052 0.960 . S
C2040 H2053 0.962 . S
C2040 H2054 0.960 . S
C2041 C2038 1.511 . S
C2041 H2055 0.961 . S
C2041 H2056 0.961 . S
C2041 H2057 0.961 . S
C2042 C2043 1.370 . S
C2042 C2044 1.363 . S
C2042 H2058 0.931 . S
C2043 C2042 1.370 . S
C2043 C2047 1.408 . S
C2044 C2042 1.363 . S
C2044 C2045 1.370 . S
C2044 C2048 1.524 . S
C2045 C2037 1.503 . S
C2045 C2044 1.370 . S
C2045 C2046 1.403 . S
C2046 C2045 1.403 . S
C2046 C2047 1.404 . S
C2046 C2049 1.539 . S
C2047 C2043 1.408 . S
C2047 C2046 1.404 . S
C2047 H2059 0.930 . S
C2048 C2044 1.524 . S
C2048 H2060 0.956 . S
C2048 H2061 0.961 . S
C2048 H2062 0.961 . S
C2049 C2046 1.539 . S
C2049 H2063 0.958 . S
C2049 H2064 0.961 . S
C2049 H2065 0.960 . S
H2050 C2034 0.931 . S
H2051 C2039 0.929 . S
H2052 C2040 0.960 . S
H2053 C2040 0.962 . S
H2054 C2040 0.960 . S
H2055 C2041 0.961 . S
H2056 C2041 0.961 . S
H2057 C2041 0.961 . S
H2058 C2042 0.931 . S
H2059 C2047 0.930 . S
H2060 C2048 0.956 . S
H2061 C2048 0.961 . S
H2062 C2048 0.961 . S
H2063 C2049 0.958 . S
H2064 C2049 0.961 . S
H2065 C2049 0.960 . S
C2066 C2067 1.391 . S
C2066 C2068 1.394 . S
C2066 H2082 0.931 . S
C2067 C2066 1.391 . S
C2067 C2071 1.376 . S
C2068 C2066 1.394 . S
C2068 C2069 1.369 . S
C2068 C2072 1.531 . S
C2069 C2068 1.369 . S
C2069 C2070 1.410 . S
C2069 C2077 1.503 . S
C2070 C2069 1.410 . S
C2070 C2071 1.392 . S
C2070 C2073 1.511 . S
C2071 C2067 1.376 . S
C2071 C2070 1.392 . S
C2071 H2083 0.929 . S
C2072 C2068 1.531 . S
C2072 H2084 0.960 . S
C2072 H2085 0.962 . S
C2072 H2086 0.960 . S
C2073 C2070 1.511 . S
C2073 H2087 0.961 . S
C2073 H2088 0.961 . S
C2073 H2089 0.961 . S
C2074 C2075 1.370 . S
C2074 C2076 1.363 . S
C2074 H2090 0.931 . S
C2075 C2074 1.370 . S
C2075 C2079 1.408 . S
C2076 C2074 1.363 . S
C2076 C2077 1.370 . S
C2076 C2080 1.524 . S
C2077 C2069 1.503 . S
C2077 C2076 1.370 . S
C2077 C2078 1.403 . S
C2078 C2077 1.403 . S
C2078 C2079 1.404 . S
C2078 C2081 1.539 . S
C2079 C2075 1.408 . S
C2079 C2078 1.404 . S
C2079 H2091 0.930 . S
C2080 C2076 1.524 . S
C2080 H2092 0.956 . S
C2080 H2093 0.961 . S
C2080 H2094 0.961 . S
C2081 C2078 1.539 . S
C2081 H2095 0.958 . S
C2081 H2096 0.961 . S
C2081 H2097 0.960 . S
H2082 C2066 0.931 . S
H2083 C2071 0.929 . S
H2084 C2072 0.960 . S
H2085 C2072 0.962 . S
H2086 C2072 0.960 . S
H2087 C2073 0.961 . S
H2088 C2073 0.961 . S
H2089 C2073 0.961 . S
H2090 C2074 0.931 . S
H2091 C2079 0.930 . S
H2092 C2080 0.956 . S
H2093 C2080 0.961 . S
H2094 C2080 0.961 . S
H2095 C2081 0.958 . S
H2096 C2081 0.961 . S
H2097 C2081 0.960 . S
C2098 C2099 1.391 . S
C2098 C2100 1.394 . S
C2098 H2114 0.931 . S
C2099 C2098 1.391 . S
C2099 C2103 1.376 . S
C2100 C2098 1.394 . S
C2100 C2101 1.369 . S
C2100 C2104 1.531 . S
C2101 C2100 1.369 . S
C2101 C2102 1.410 . S
C2101 C2109 1.503 . S
C2102 C2101 1.410 . S
C2102 C2103 1.392 . S
C2102 C2105 1.511 . S
C2103 C2099 1.376 . S
C2103 C2102 1.392 . S
C2103 H2115 0.929 . S
C2104 C2100 1.531 . S
C2104 H2116 0.960 . S
C2104 H2117 0.962 . S
C2104 H2118 0.960 . S
C2105 C2102 1.511 . S
C2105 H2119 0.961 . S
C2105 H2120 0.961 . S
C2105 H2121 0.961 . S
C2106 C2107 1.370 . S
C2106 C2108 1.363 . S
C2106 H2122 0.931 . S
C2107 C2106 1.370 . S
C2107 C2111 1.408 . S
C2108 C2106 1.363 . S
C2108 C2109 1.370 . S
C2108 C2112 1.524 . S
C2109 C2101 1.503 . S
C2109 C2108 1.370 . S
C2109 C2110 1.403 . S
C2110 C2109 1.403 . S
C2110 C2111 1.404 . S
C2110 C2113 1.539 . S
C2111 C2107 1.408 . S
C2111 C2110 1.404 . S
C2111 H2123 0.930 . S
C2112 C2108 1.524 . S
C2112 H2124 0.956 . S
C2112 H2125 0.961 . S
C2112 H2126 0.961 . S
C2113 C2110 1.539 . S
C2113 H2127 0.958 . S
C2113 H2128 0.961 . S
C2113 H2129 0.960 . S
H2114 C2098 0.931 . S
H2115 C2103 0.929 . S
H2116 C2104 0.960 . S
H2117 C2104 0.962 . S
H2118 C2104 0.960 . S
H2119 C2105 0.961 . S
H2120 C2105 0.961 . S
H2121 C2105 0.961 . S
H2122 C2106 0.931 . S
H2123 C2111 0.930 . S
H2124 C2112 0.956 . S
H2125 C2112 0.961 . S
H2126 C2112 0.961 . S
H2127 C2113 0.958 . S
H2128 C2113 0.961 . S
H2129 C2113 0.960 . S
C2130 C2131 1.391 . S
C2130 C2132 1.394 . S
C2130 H2146 0.931 . S
C2131 C2130 1.391 . S
C2131 C2135 1.376 . S
C2132 C2130 1.394 . S
C2132 C2133 1.369 . S
C2132 C2136 1.531 . S
C2133 C2132 1.369 . S
C2133 C2134 1.410 . S
C2133 C2141 1.503 . S
C2134 C2133 1.410 . S
C2134 C2135 1.392 . S
C2134 C2137 1.511 . S
C2135 C2131 1.376 . S
C2135 C2134 1.392 . S
C2135 H2147 0.929 . S
C2136 C2132 1.531 . S
C2136 H2148 0.960 . S
C2136 H2149 0.962 . S
C2136 H2150 0.960 . S
C2137 C2134 1.511 . S
C2137 H2151 0.961 . S
C2137 H2152 0.961 . S
C2137 H2153 0.961 . S
C2138 C2139 1.370 . S
C2138 C2140 1.363 . S
C2138 H2154 0.931 . S
C2139 C2138 1.370 . S
C2139 C2143 1.408 . S
C2140 C2138 1.363 . S
C2140 C2141 1.370 . S
C2140 C2144 1.524 . S
C2141 C2133 1.503 . S
C2141 C2140 1.370 . S
C2141 C2142 1.403 . S
C2142 C2141 1.403 . S
C2142 C2143 1.404 . S
C2142 C2145 1.539 . S
C2143 C2139 1.408 . S
C2143 C2142 1.404 . S
C2143 H2155 0.930 . S
C2144 C2140 1.524 . S
C2144 H2156 0.956 . S
C2144 H2157 0.961 . S
C2144 H2158 0.961 . S
C2145 C2142 1.539 . S
C2145 H2159 0.958 . S
C2145 H2160 0.961 . S
C2145 H2161 0.960 . S
H2146 C2130 0.931 . S
H2147 C2135 0.929 . S
H2148 C2136 0.960 . S
H2149 C2136 0.962 . S
H2150 C2136 0.960 . S
H2151 C2137 0.961 . S
H2152 C2137 0.961 . S
H2153 C2137 0.961 . S
H2154 C2138 0.931 . S
H2155 C2143 0.930 . S
H2156 C2144 0.956 . S
H2157 C2144 0.961 . S
H2158 C2144 0.961 . S
H2159 C2145 0.958 . S
H2160 C2145 0.961 . S
H2161 C2145 0.960 . S
C2162 C2163 1.391 . S
C2162 C2164 1.394 . S
C2162 H2178 0.931 . S
C2163 C2162 1.391 . S
C2163 C2167 1.376 . S
C2164 C2162 1.394 . S
C2164 C2165 1.369 . S
C2164 C2168 1.531 . S
C2165 C2164 1.369 . S
C2165 C2166 1.410 . S
C2165 C2173 1.503 . S
C2166 C2165 1.410 . S
C2166 C2167 1.392 . S
C2166 C2169 1.511 . S
C2167 C2163 1.376 . S
C2167 C2166 1.392 . S
C2167 H2179 0.929 . S
C2168 C2164 1.531 . S
C2168 H2180 0.960 . S
C2168 H2181 0.962 . S
C2168 H2182 0.960 . S
C2169 C2166 1.511 . S
C2169 H2183 0.961 . S
C2169 H2184 0.961 . S
C2169 H2185 0.961 . S
C2170 C2171 1.370 . S
C2170 C2172 1.363 . S
C2170 H2186 0.931 . S
C2171 C2170 1.370 . S
C2171 C2175 1.408 . S
C2172 C2170 1.363 . S
C2172 C2173 1.370 . S
C2172 C2176 1.524 . S
C2173 C2165 1.503 . S
C2173 C2172 1.370 . S
C2173 C2174 1.403 . S
C2174 C2173 1.403 . S
C2174 C2175 1.404 . S
C2174 C2177 1.539 . S
C2175 C2171 1.408 . S
C2175 C2174 1.404 . S
C2175 H2187 0.930 . S
C2176 C2172 1.524 . S
C2176 H2188 0.956 . S
C2176 H2189 0.961 . S
C2176 H2190 0.961 . S
C2177 C2174 1.539 . S
C2177 H2191 0.958 . S
C2177 H2192 0.961 . S
C2177 H2193 0.960 . S
H2178 C2162 0.931 . S
H2179 C2167 0.929 . S
H2180 C2168 0.960 . S
H2181 C2168 0.962 . S
H2182 C2168 0.960 . S
H2183 C2169 0.961 . S
H2184 C2169 0.961 . S
H2185 C2169 0.961 . S
H2186 C2170 0.931 . S
H2187 C2175 0.930 . S
H2188 C2176 0.956 . S
H2189 C2176 0.961 . S
H2190 C2176 0.961 . S
H2191 C2177 0.958 . S
H2192 C2177 0.961 . S
H2193 C2177 0.960 . S
C2194 C2195 1.391 . S
C2194 C2196 1.394 . S
C2194 H2210 0.931 . S
C2195 C2194 1.391 . S
C2195 C2199 1.376 . S
C2196 C2194 1.394 . S
C2196 C2197 1.369 . S
C2196 C2200 1.531 . S
C2197 C2196 1.369 . S
C2197 C2198 1.410 . S
C2197 C2205 1.503 . S
C2198 C2197 1.410 . S
C2198 C2199 1.392 . S
C2198 C2201 1.511 . S
C2199 C2195 1.376 . S
C2199 C2198 1.392 . S
C2199 H2211 0.929 . S
C2200 C2196 1.531 . S
C2200 H2212 0.960 . S
C2200 H2213 0.962 . S
C2200 H2214 0.960 . S
C2201 C2198 1.511 . S
C2201 H2215 0.961 . S
C2201 H2216 0.961 . S
C2201 H2217 0.961 . S
C2202 C2203 1.370 . S
C2202 C2204 1.363 . S
C2202 H2218 0.931 . S
C2203 C2202 1.370 . S
C2203 C2207 1.408 . S
C2204 C2202 1.363 . S
C2204 C2205 1.370 . S
C2204 C2208 1.524 . S
C2205 C2197 1.503 . S
C2205 C2204 1.370 . S
C2205 C2206 1.403 . S
C2206 C2205 1.403 . S
C2206 C2207 1.404 . S
C2206 C2209 1.539 . S
C2207 C2203 1.408 . S
C2207 C2206 1.404 . S
C2207 H2219 0.930 . S
C2208 C2204 1.524 . S
C2208 H2220 0.956 . S
C2208 H2221 0.961 . S
C2208 H2222 0.961 . S
C2209 C2206 1.539 . S
C2209 H2223 0.958 . S
C2209 H2224 0.961 . S
C2209 H2225 0.960 . S
H2210 C2194 0.931 . S
H2211 C2199 0.929 . S
H2212 C2200 0.960 . S
H2213 C2200 0.962 . S
H2214 C2200 0.960 . S
H2215 C2201 0.961 . S
H2216 C2201 0.961 . S
H2217 C2201 0.961 . S
H2218 C2202 0.931 . S
H2219 C2207 0.930 . S
H2220 C2208 0.956 . S
H2221 C2208 0.961 . S
H2222 C2208 0.961 . S
H2223 C2209 0.958 . S
H2224 C2209 0.961 . S
H2225 C2209 0.960 . S
C2226 C2227 1.391 . S
C2226 C2228 1.394 . S
C2226 H2242 0.931 . S
C2227 C2226 1.391 . S
C2227 C2231 1.376 . S
C2228 C2226 1.394 . S
C2228 C2229 1.369 . S
C2228 C2232 1.531 . S
C2229 C2228 1.369 . S
C2229 C2230 1.410 . S
C2229 C2237 1.503 . S
C2230 C2229 1.410 . S
C2230 C2231 1.392 . S
C2230 C2233 1.511 . S
C2231 C2227 1.376 . S
C2231 C2230 1.392 . S
C2231 H2243 0.929 . S
C2232 C2228 1.531 . S
C2232 H2244 0.960 . S
C2232 H2245 0.962 . S
C2232 H2246 0.960 . S
C2233 C2230 1.511 . S
C2233 H2247 0.961 . S
C2233 H2248 0.961 . S
C2233 H2249 0.961 . S
C2234 C2235 1.370 . S
C2234 C2236 1.363 . S
C2234 H2250 0.931 . S
C2235 C2234 1.370 . S
C2235 C2239 1.408 . S
C2236 C2234 1.363 . S
C2236 C2237 1.370 . S
C2236 C2240 1.524 . S
C2237 C2229 1.503 . S
C2237 C2236 1.370 . S
C2237 C2238 1.403 . S
C2238 C2237 1.403 . S
C2238 C2239 1.404 . S
C2238 C2241 1.539 . S
C2239 C2235 1.408 . S
C2239 C2238 1.404 . S
C2239 H2251 0.930 . S
C2240 C2236 1.524 . S
C2240 H2252 0.956 . S
C2240 H2253 0.961 . S
C2240 H2254 0.961 . S
C2241 C2238 1.539 . S
C2241 H2255 0.958 . S
C2241 H2256 0.961 . S
C2241 H2257 0.960 . S
H2242 C2226 0.931 . S
H2243 C2231 0.929 . S
H2244 C2232 0.960 . S
H2245 C2232 0.962 . S
H2246 C2232 0.960 . S
H2247 C2233 0.961 . S
H2248 C2233 0.961 . S
H2249 C2233 0.961 . S
H2250 C2234 0.931 . S
H2251 C2239 0.930 . S
H2252 C2240 0.956 . S
H2253 C2240 0.961 . S
H2254 C2240 0.961 . S
H2255 C2241 0.958 . S
H2256 C2241 0.961 . S
H2257 C2241 0.960 . S
C2258 C2259 1.391 . S
C2258 C2260 1.394 . S
C2258 H2274 0.931 . S
C2259 C2258 1.391 . S
C2259 C2263 1.376 . S
C2260 C2258 1.394 . S
C2260 C2261 1.369 . S
C2260 C2264 1.531 . S
C2261 C2260 1.369 . S
C2261 C2262 1.410 . S
C2261 C2269 1.503 . S
C2262 C2261 1.410 . S
C2262 C2263 1.392 . S
C2262 C2265 1.511 . S
C2263 C2259 1.376 . S
C2263 C2262 1.392 . S
C2263 H2275 0.929 . S
C2264 C2260 1.531 . S
C2264 H2276 0.960 . S
C2264 H2277 0.962 . S
C2264 H2278 0.960 . S
C2265 C2262 1.511 . S
C2265 H2279 0.961 . S
C2265 H2280 0.961 . S
C2265 H2281 0.961 . S
C2266 C2267 1.370 . S
C2266 C2268 1.363 . S
C2266 H2282 0.931 . S
C2267 C2266 1.370 . S
C2267 C2271 1.408 . S
C2268 C2266 1.363 . S
C2268 C2269 1.370 . S
C2268 C2272 1.524 . S
C2269 C2261 1.503 . S
C2269 C2268 1.370 . S
C2269 C2270 1.403 . S
C2270 C2269 1.403 . S
C2270 C2271 1.404 . S
C2270 C2273 1.539 . S
C2271 C2267 1.408 . S
C2271 C2270 1.404 . S
C2271 H2283 0.930 . S
C2272 C2268 1.524 . S
C2272 H2284 0.956 . S
C2272 H2285 0.961 . S
C2272 H2286 0.961 . S
C2273 C2270 1.539 . S
C2273 H2287 0.958 . S
C2273 H2288 0.961 . S
C2273 H2289 0.960 . S
H2274 C2258 0.931 . S
H2275 C2263 0.929 . S
H2276 C2264 0.960 . S
H2277 C2264 0.962 . S
H2278 C2264 0.960 . S
H2279 C2265 0.961 . S
H2280 C2265 0.961 . S
H2281 C2265 0.961 . S
H2282 C2266 0.931 . S
H2283 C2271 0.930 . S
H2284 C2272 0.956 . S
H2285 C2272 0.961 . S
H2286 C2272 0.961 . S
H2287 C2273 0.958 . S
H2288 C2273 0.961 . S
H2289 C2273 0.960 . S
C2290 C2291 1.391 . S
C2290 C2292 1.394 . S
C2290 H2306 0.931 . S
C2291 C2290 1.391 . S
C2291 C2295 1.376 . S
C2292 C2290 1.394 . S
C2292 C2293 1.369 . S
C2292 C2296 1.531 . S
C2293 C2292 1.369 . S
C2293 C2294 1.410 . S
C2293 C2301 1.503 . S
C2294 C2293 1.410 . S
C2294 C2295 1.392 . S
C2294 C2297 1.511 . S
C2295 C2291 1.376 . S
C2295 C2294 1.392 . S
C2295 H2307 0.929 . S
C2296 C2292 1.531 . S
C2296 H2308 0.960 . S
C2296 H2309 0.962 . S
C2296 H2310 0.960 . S
C2297 C2294 1.511 . S
C2297 H2311 0.961 . S
C2297 H2312 0.961 . S
C2297 H2313 0.961 . S
C2298 C2299 1.370 . S
C2298 C2300 1.363 . S
C2298 H2314 0.931 . S
C2299 C2298 1.370 . S
C2299 C2303 1.408 . S
C2300 C2298 1.363 . S
C2300 C2301 1.370 . S
C2300 C2304 1.524 . S
C2301 C2293 1.503 . S
C2301 C2300 1.370 . S
C2301 C2302 1.403 . S
C2302 C2301 1.403 . S
C2302 C2303 1.404 . S
C2302 C2305 1.539 . S
C2303 C2299 1.408 . S
C2303 C2302 1.404 . S
C2303 H2315 0.930 . S
C2304 C2300 1.524 . S
C2304 H2316 0.956 . S
C2304 H2317 0.961 . S
C2304 H2318 0.961 . S
C2305 C2302 1.539 . S
C2305 H2319 0.958 . S
C2305 H2320 0.961 . S
C2305 H2321 0.960 . S
H2306 C2290 0.931 . S
H2307 C2295 0.929 . S
H2308 C2296 0.960 . S
H2309 C2296 0.962 . S
H2310 C2296 0.960 . S
H2311 C2297 0.961 . S
H2312 C2297 0.961 . S
H2313 C2297 0.961 . S
H2314 C2298 0.931 . S
H2315 C2303 0.930 . S
H2316 C2304 0.956 . S
H2317 C2304 0.961 . S
H2318 C2304 0.961 . S
H2319 C2305 0.958 . S
H2320 C2305 0.961 . S
H2321 C2305 0.960 . S
C595 N170 2.104 . S
C603 C237 2.137 . S
C627 N184 1.165 . S
C635 C277 1.151 . S
C659 N158 1.669 . S
C667 C329 1.665 . S
C691 N145 1.535 . S
C699 C289 1.546 1_556 S
C731 C317 0.821 1_556 S
C723 N119 0.834 . S
C755 N131 1.823 . S
C763 C249 1.884 . S
C795 C256 1.788 1_556 S
C787 N144 1.784 . S
C827 C296 1.668 . S
C819 N118 1.663 . S
C851 N132 1.560 . S
C859 C316 1.582 . S
C883 N171 1.481 . S
C891 C276 1.468 . S
C915 N183 1.323 . S
C923 C336 1.331 . S
C955 C236 1.459 . S
C947 N157 1.455 . S
C987 C357 2.137 . S
C979 N14 2.086 . S
C1011 N28 1.161 . S
C1019 C397 1.155 . S
C1043 N2 1.692 . S
C1051 C449 1.669 . S
C1075 N223 1.539 . S
C1083 C409 1.540 . S
C1107 N197 0.830 . S
C1115 C437 0.831 . S
C1139 N209 1.808 . S
C1147 C369 1.868 . S
C1171 N222 1.775 . S
C1179 C376 1.785 . S
C1203 N196 1.667 . S
C1211 C416 1.670 . S
C1243 C436 1.569 . S
C1235 N210 1.566 . S
C1267 N15 1.488 . S
C1275 C396 1.476 . S
C1307 C456 1.329 . S
C1299 N27 1.305 . S
C1331 N1 1.474 . S
C1339 C356 1.471 . S
C1371 C477 2.141 . S
C1363 N92 2.068 . S
C1395 N106 1.144 . S
C1403 C517 1.160 . S
C1435 C569 1.675 . S
C1427 N80 1.657 . S
C1467 C529 1.535 . S
C1459 N67 1.567 . S
C1499 C557 0.831 . S
C1491 N41 0.833 . S
C1523 N53 1.824 . S
C1531 C489 1.864 . S
C1555 N66 1.758 . S
C1563 C496 1.789 . S
C1587 N40 1.665 . S
C1595 C536 1.667 . S
C1627 C556 1.569 . S
C1619 N54 1.577 . S
C1651 N93 1.477 . S
C1659 C516 1.481 . S
C1683 N105 1.318 . S
C1691 C576 1.332 . S
C1715 N79 1.472 . S
C1723 C476 1.455 . S
C1747 N200 0.997 . S
C1755 C260 1.032 . S
C1787 C300 2.013 . S
C1779 N213 2.014 . S
C1811 N226 1.594 . S
C1819 C323 1.591 . S
C1843 N83 1.800 . S
C1851 C283 1.782 . S
C1875 N96 1.792 . S
C1883 C340 1.851 . S
C1915 C243 1.161 . S
C1907 N109 1.175 . S
C1939 N44 0.992 . S
C1947 C380 1.032 . S
C1971 N57 2.014 . S
C1979 C420 2.013 . S
C2003 N70 1.591 . S
C2011 C443 1.591 . S
C2035 N161 1.817 . S
C2043 C403 1.800 . S
C2075 C460 1.852 . S
C2067 N174 1.804 . S
C2099 N187 1.188 . S
C2107 C363 1.169 . S
C2131 N122 0.999 . S
C2139 C500 1.033 . S
C2163 N135 2.014 . S
C2171 C540 2.013 . S
C2203 C563 1.580 . S
C2195 N148 1.584 . S
C2227 N5 1.798 . S
C2235 C523 1.795 . S
C2259 N18 1.795 . S
C2267 C580 1.845 . S
C2291 N31 1.160 . S
C2299 C483 1.150 . S
