# Generated by pormake.
# Topology apo, (3,6)-cn, num edge types: 1
# Building blocks:
#     Node 0, Type 0, BuildingBlock: CUQRIR_clean_linker_1, # of connection points: 3
#     Node 1, Type 0, BuildingBlock: CUQRIR_clean_linker_1, # of connection points: 3
#     Node 2, Type 0, BuildingBlock: CUQRIR_clean_linker_1, # of connection points: 3
#     Node 3, Type 0, BuildingBlock: CUQRIR_clean_linker_1, # of connection points: 3
#     Node 4, Type 0, BuildingBlock: CUQRIR_clean_linker_1, # of connection points: 3
#     Node 5, Type 0, BuildingBlock: CUQRIR_clean_linker_1, # of connection points: 3
#     Node 6, Type 0, BuildingBlock: CUQRIR_clean_linker_1, # of connection points: 3
#     Node 7, Type 0, BuildingBlock: CUQRIR_clean_linker_1, # of connection points: 3
#     Node 8, Type 1, BuildingBlock: KUMJIN_clean_sbu_1, # of connection points: 6
#     Node 9, Type 1, BuildingBlock: KUMJIN_clean_sbu_1, # of connection points: 6
#     Node 10, Type 1, BuildingBlock: KUMJIN_clean_sbu_1, # of connection points: 6
#     Node 11, Type 1, BuildingBlock: KUMJIN_clean_sbu_1, # of connection points: 6
#     Edge 12, Type (0, 1), BuildingBlock: TEMPAE_clean_linker_10, # of connection points: 2
#     Edge 13, Type (0, 1), BuildingBlock: TEMPAE_clean_linker_10, # of connection points: 2
#     Edge 14, Type (0, 1), BuildingBlock: TEMPAE_clean_linker_10, # of connection points: 2
#     Edge 15, Type (0, 1), BuildingBlock: TEMPAE_clean_linker_10, # of connection points: 2
#     Edge 16, Type (0, 1), BuildingBlock: TEMPAE_clean_linker_10, # of connection points: 2
#     Edge 17, Type (0, 1), BuildingBlock: TEMPAE_clean_linker_10, # of connection points: 2
#     Edge 18, Type (0, 1), BuildingBlock: TEMPAE_clean_linker_10, # of connection points: 2
#     Edge 19, Type (0, 1), BuildingBlock: TEMPAE_clean_linker_10, # of connection points: 2
#     Edge 20, Type (0, 1), BuildingBlock: TEMPAE_clean_linker_10, # of connection points: 2
#     Edge 21, Type (0, 1), BuildingBlock: TEMPAE_clean_linker_10, # of connection points: 2
#     Edge 22, Type (0, 1), BuildingBlock: TEMPAE_clean_linker_10, # of connection points: 2
#     Edge 23, Type (0, 1), BuildingBlock: TEMPAE_clean_linker_10, # of connection points: 2
#     Edge 24, Type (0, 1), BuildingBlock: TEMPAE_clean_linker_10, # of connection points: 2
#     Edge 25, Type (0, 1), BuildingBlock: TEMPAE_clean_linker_10, # of connection points: 2
#     Edge 26, Type (0, 1), BuildingBlock: TEMPAE_clean_linker_10, # of connection points: 2
#     Edge 27, Type (0, 1), BuildingBlock: TEMPAE_clean_linker_10, # of connection points: 2
#     Edge 28, Type (0, 1), BuildingBlock: TEMPAE_clean_linker_10, # of connection points: 2
#     Edge 29, Type (0, 1), BuildingBlock: TEMPAE_clean_linker_10, # of connection points: 2
#     Edge 30, Type (0, 1), BuildingBlock: TEMPAE_clean_linker_10, # of connection points: 2
#     Edge 31, Type (0, 1), BuildingBlock: TEMPAE_clean_linker_10, # of connection points: 2
#     Edge 32, Type (0, 1), BuildingBlock: TEMPAE_clean_linker_10, # of connection points: 2
#     Edge 33, Type (0, 1), BuildingBlock: TEMPAE_clean_linker_10, # of connection points: 2
#     Edge 34, Type (0, 1), BuildingBlock: TEMPAE_clean_linker_10, # of connection points: 2
#     Edge 35, Type (0, 1), BuildingBlock: TEMPAE_clean_linker_10, # of connection points: 2
# Relax obj value: 0.045
# Max RMSD: 0.226
# Mean RMSD: 0.177
data_MOF--net-apo--node1-KUMJIN_clean_sbu_1--node2-CUQRIR_clean_linker_1--edge1-TEMPAE_clean_linker_10
_symmetry_space_group_name_H-M    P1
_symmetry_Int_Tables_number       1
_symmetry_cell_setting            triclinic
loop_
_symmetry_equiv_pos_as_xyz
'x, y, z'
_cell_length_a     26.080825
_cell_length_b     39.998428
_cell_length_c     48.192644
_cell_angle_alpha  89.952684
_cell_angle_beta   89.981655
_cell_angle_gamma 90.366545
loop_
_atom_site_label
_atom_site_type_symbol
_atom_site_fract_x
_atom_site_fract_y
_atom_site_fract_z
_atom_type_partial_charge
C0 C 0.25694 0.34021 0.41865 0.0
N1 N 0.28879 0.36698 0.42084 0.0
N2 N 0.24893 0.33234 0.39163 0.0
C3 C 0.23491 0.32105 0.44286 0.0
C4 C 0.27739 0.35524 0.37753 0.0
N5 N 0.30184 0.37609 0.39532 0.0
C6 C 0.28162 0.35714 0.34643 0.0
H7 H 0.26309 0.30202 0.44958 0.0
H8 H 0.19871 0.30817 0.43705 0.0
H9 H 0.22722 0.33754 0.46079 0.0
H10 H 0.25114 0.37381 0.33844 0.0
H11 H 0.27658 0.33207 0.33694 0.0
H12 H 0.31916 0.3677 0.33996 0.0
C13 C 0.22833 0.17454 0.91793 0.0
N14 N 0.20319 0.14495 0.92042 0.0
N15 N 0.24988 0.1773 0.89252 0.0
C16 C 0.23417 0.19993 0.94072 0.0
C17 C 0.23721 0.14846 0.8796 0.0
N18 N 0.20932 0.12851 0.89668 0.0
C19 C 0.24896 0.14102 0.84964 0.0
H20 H 0.19874 0.21507 0.94185 0.0
H21 H 0.26715 0.21693 0.93676 0.0
H22 H 0.23938 0.1873 0.96103 0.0
H23 H 0.28321 0.12477 0.84859 0.0
H24 H 0.25719 0.16426 0.83783 0.0
H25 H 0.2164 0.12763 0.83971 0.0
C26 C 0.757 0.17834 0.6102 0.0
N27 N 0.78622 0.15085 0.60569 0.0
N28 N 0.75117 0.18389 0.6377 0.0
C29 C 0.73757 0.20148 0.58796 0.0
C30 C 0.77804 0.15915 0.64988 0.0
N31 N 0.79983 0.13932 0.63051 0.0
C32 C 0.78111 0.15342 0.68073 0.0
H33 H 0.73117 0.22696 0.59632 0.0
H34 H 0.70049 0.19174 0.57998 0.0
H35 H 0.7651 0.20305 0.57044 0.0
H36 H 0.74814 0.16484 0.69166 0.0
H37 H 0.81701 0.16499 0.68864 0.0
H38 H 0.78221 0.12632 0.6856 0.0
C39 C 0.73818 0.33145 0.11525 0.0
N40 N 0.7122 0.36025 0.11105 0.0
N41 N 0.76078 0.33161 0.14049 0.0
C42 C 0.74463 0.30432 0.09395 0.0
C43 C 0.74808 0.36148 0.15147 0.0
N44 N 0.71918 0.37913 0.13342 0.0
C45 C 0.76137 0.37255 0.18046 0.0
H46 H 0.70881 0.28926 0.09293 0.0
H47 H 0.77692 0.28757 0.09924 0.0
H48 H 0.75135 0.31539 0.07312 0.0
H49 H 0.79452 0.39003 0.17949 0.0
H50 H 0.77177 0.35102 0.1938 0.0
H51 H 0.72871 0.38599 0.19 0.0
C52 C 0.7402 0.67036 0.61418 0.0
N53 N 0.71288 0.64163 0.61108 0.0
N54 N 0.76027 0.67239 0.64012 0.0
C55 C 0.74666 0.69663 0.59205 0.0
C56 C 0.74441 0.64367 0.65245 0.0
N57 N 0.71536 0.62509 0.63497 0.0
C58 C 0.75976 0.63252 0.68112 0.0
H59 H 0.78305 0.69206 0.58079 0.0
H60 H 0.74854 0.72195 0.60139 0.0
H61 H 0.71498 0.69588 0.57677 0.0
H62 H 0.73071 0.64099 0.69634 0.0
H63 H 0.7976 0.6432 0.68699 0.0
H64 H 0.76156 0.60482 0.6822 0.0
C65 C 0.75612 0.84369 0.10594 0.0
N66 N 0.78691 0.87097 0.10398 0.0
N67 N 0.74087 0.83887 0.13248 0.0
C68 C 0.74105 0.82179 0.08193 0.0
C69 C 0.76362 0.8641 0.14666 0.0
N70 N 0.79179 0.88365 0.12936 0.0
C71 C 0.76014 0.86886 0.17762 0.0
H72 H 0.70649 0.80659 0.08684 0.0
H73 H 0.77325 0.80473 0.07716 0.0
H74 H 0.73374 0.83718 0.06319 0.0
H75 H 0.79132 0.85454 0.1877 0.0
H76 H 0.72318 0.85954 0.18597 0.0
H77 H 0.7647 0.89562 0.18321 0.0
C78 C 0.25276 0.83199 0.41898 0.0
N79 N 0.22439 0.86026 0.4213 0.0
N80 N 0.27048 0.82852 0.39287 0.0
C81 C 0.25901 0.8059 0.44126 0.0
C82 C 0.25187 0.85513 0.37916 0.0
N83 N 0.22293 0.87429 0.3962 0.0
C84 C 0.26426 0.86299 0.34931 0.0
H85 H 0.29433 0.81144 0.45328 0.0
H86 H 0.26313 0.78065 0.43204 0.0
H87 H 0.22575 0.80575 0.45563 0.0
H88 H 0.23647 0.84985 0.33565 0.0
H89 H 0.3032 0.854 0.34396 0.0
H90 H 0.26219 0.89026 0.34525 0.0
C91 C 0.25858 0.67833 0.91662 0.0
N92 N 0.28891 0.6513 0.92042 0.0
N93 N 0.25225 0.68452 0.88926 0.0
C94 C 0.23698 0.69966 0.93943 0.0
C95 C 0.27971 0.66052 0.87649 0.0
N96 N 0.30237 0.64052 0.89539 0.0
C97 C 0.2823 0.6553 0.84561 0.0
H98 H 0.22882 0.72528 0.93187 0.0
H99 H 0.26395 0.70106 0.95721 0.0
H100 H 0.20052 0.6883 0.9468 0.0
H101 H 0.32218 0.65994 0.83848 0.0
H102 H 0.25596 0.6721 0.83423 0.0
H103 H 0.27262 0.62893 0.84058 0.0
Eu104 Eu 0.06317 0.10875 0.23573 0.0
C105 C 0.8383 0.07776 0.2806 0.0
N106 N 0.8659 0.10548 0.2738 0.0
C107 C 0.79596 0.12565 0.24629 0.0
C108 C 0.78905 0.07216 0.26931 0.0
C109 C 0.84449 0.13006 0.25808 0.0
C110 C 0.7684 0.09631 0.25158 0.0
C111 C 0.83083 0.02656 0.30727 0.0
C112 C 0.85905 0.05522 0.29928 0.0
C113 C 0.78264 0.02024 0.2953 0.0
C114 C 0.76173 0.04305 0.27643 0.0
Eu115 Eu 0.9476 0.11115 0.29464 0.0
N116 N 0.90551 0.06218 0.31075 0.0
C117 C 0.85107 0.00572 0.3278 0.0
C118 C 0.92318 0.0435 0.33237 0.0
C119 C 0.89697 0.01461 0.34079 0.0
H120 H 0.86422 0.15333 0.25508 0.0
H121 H 0.91178 0.99948 0.35756 0.0
H122 H 0.15183 0.04951 0.24955 0.0
H123 H 0.09085 0.24049 0.20954 0.0
H124 H 0.95736 0.05111 0.34342 0.0
H125 H 0.83061 0.98348 0.33451 0.0
H126 H 0.04247 0.18769 0.21448 0.0
H127 H 0.77959 0.14508 0.23346 0.0
H128 H 0.76068 0.9982 0.30101 0.0
H129 H 0.72408 0.03818 0.26778 0.0
H130 H 0.24413 0.0467 0.26012 0.0
H131 H 0.73068 0.09297 0.24253 0.0
H132 H 0.18308 0.24246 0.22138 0.0
N133 N 0.15106 0.10262 0.24634 0.0
C134 C 0.17986 0.13105 0.24446 0.0
C135 C 0.22642 0.07064 0.25617 0.0
C136 C 0.2332 0.13035 0.24939 0.0
C137 C 0.17389 0.07242 0.25072 0.0
C138 C 0.2561 0.09978 0.2559 0.0
N139 N 0.10516 0.16088 0.23136 0.0
C140 C 0.08205 0.18857 0.22066 0.0
C141 C 0.18604 0.19021 0.23308 0.0
C142 C 0.15653 0.16074 0.23628 0.0
C143 C 0.16173 0.21934 0.22402 0.0
C144 C 0.10963 0.21839 0.21744 0.0
H145 H 0.29692 0.09824 0.25982 0.0
H146 H 0.30324 0.15975 0.2507 0.0
H147 H 0.262 0.21207 0.23644 0.0
O148 O 0.03889 0.10788 0.19182 0.0
O149 O 0.06328 0.15025 0.26793 0.0
O150 O 0.02892 0.12515 0.30688 0.0
O151 O 0.11536 0.09309 0.20315 0.0
O152 O 0.98741 0.13334 0.22589 0.0
O153 O 0.96166 0.15637 0.26725 0.0
O154 O 0.92264 0.11413 0.33828 0.0
O155 O 0.93318 0.0849 0.25306 0.0
O156 O 0.01242 0.06345 0.24196 0.0
O157 O 0.91502 0.15741 0.31094 0.0
O158 O 0.01164 0.07492 0.30528 0.0
O159 O 0.07109 0.06781 0.26885 0.0
C160 C 0.05814 0.14792 0.29504 0.0
C161 C 0.08649 0.07466 0.15944 0.0
C162 C 0.09818 0.06646 0.10958 0.0
C163 C 0.10268 0.03191 0.1142 0.0
C164 C 0.09287 0.04024 0.1637 0.0
C165 C 0.10041 0.01899 0.14111 0.0
C166 C 0.0896 0.0877 0.13237 0.0
C167 C 0.96401 0.15678 0.24002 0.0
C168 C 0.08348 0.09797 0.18297 0.0
C169 C 0.26231 0.15984 0.24685 0.0
C170 C 0.23885 0.18964 0.23864 0.0
C171 C 0.96228 0.06364 0.23935 0.0
C172 C 0.88413 0.16419 0.35839 0.0
C173 C 0.86127 0.17126 0.4075 0.0
C174 C 0.83361 0.2001 0.40008 0.0
C175 C 0.85733 0.19349 0.35198 0.0
C176 C 0.88617 0.15312 0.38626 0.0
C177 C 0.83211 0.21117 0.37269 0.0
C178 C 0.0519 0.06044 0.29369 0.0
C179 C 0.90728 0.14476 0.33554 0.0
H180 H 0.10981 0.01503 0.09708 0.0
H181 H 0.09256 0.02988 0.18447 0.0
H182 H 0.10515 0.99243 0.1445 0.0
H183 H 0.08666 0.11445 0.12913 0.0
H184 H 0.81231 0.21407 0.41543 0.0
H185 H 0.85484 0.20241 0.33079 0.0
H186 H 0.90732 0.13072 0.39135 0.0
H187 H 0.81074 0.23341 0.36743 0.0
Eu188 Eu 0.44144 0.40092 0.73713 0.0
C189 C 0.66913 0.41796 0.78398 0.0
N190 N 0.63886 0.39031 0.78146 0.0
C191 C 0.71014 0.35853 0.76489 0.0
C192 C 0.72127 0.41702 0.77624 0.0
C193 C 0.65874 0.36062 0.77284 0.0
C194 C 0.7415 0.38689 0.76645 0.0
C195 C 0.67813 0.47673 0.79593 0.0
C196 C 0.64775 0.4475 0.79396 0.0
C197 C 0.73005 0.47577 0.78826 0.0
C198 C 0.75155 0.44602 0.77849 0.0
Eu199 Eu 0.55388 0.39608 0.79696 0.0
N200 N 0.59699 0.448 0.80071 0.0
C201 C 0.65526 0.50623 0.80518 0.0
C202 C 0.57488 0.47654 0.81035 0.0
C203 C 0.60347 0.5061 0.81248 0.0
H204 H 0.63562 0.33822 0.77302 0.0
H205 H 0.58561 0.52872 0.81994 0.0
H206 H 0.35122 0.45222 0.76485 0.0
H207 H 0.41616 0.27526 0.69595 0.0
H208 H 0.5355 0.47674 0.81681 0.0
H209 H 0.67726 0.52922 0.80684 0.0
H210 H 0.46128 0.32889 0.70453 0.0
H211 H 0.72571 0.33495 0.75796 0.0
H212 H 0.75388 0.49799 0.78963 0.0
H213 H 0.79165 0.44575 0.77261 0.0
H214 H 0.26478 0.44805 0.78461 0.0
H215 H 0.78139 0.38516 0.76037 0.0
H216 H 0.32909 0.26598 0.71504 0.0
N217 N 0.35686 0.40036 0.75565 0.0
C218 C 0.33036 0.37107 0.75312 0.0
C219 C 0.28312 0.42601 0.77632 0.0
C220 C 0.27971 0.36786 0.76314 0.0
C221 C 0.33295 0.42809 0.76572 0.0
C222 C 0.25666 0.39561 0.77545 0.0
N223 N 0.40117 0.34887 0.72904 0.0
C224 C 0.4236 0.32476 0.71322 0.0
C225 C 0.32538 0.3148 0.73433 0.0
C226 C 0.35268 0.34485 0.73882 0.0
C227 C 0.3488 0.28944 0.71893 0.0
C228 C 0.39801 0.29454 0.70819 0.0
H229 H 0.21779 0.3942 0.78333 0.0
H230 H 0.21427 0.33455 0.76743 0.0
H231 H 0.25439 0.28804 0.74229 0.0
O232 O 0.45347 0.39957 0.69198 0.0
O233 O 0.44399 0.35573 0.76552 0.0
O234 O 0.47183 0.38013 0.80544 0.0
O235 O 0.39427 0.4305 0.7092 0.0
O236 O 0.51819 0.37707 0.72685 0.0
O237 O 0.54393 0.35193 0.76786 0.0
O238 O 0.57008 0.40419 0.84078 0.0
O239 O 0.57353 0.42243 0.75619 0.0
O240 O 0.49538 0.44387 0.74542 0.0
O241 O 0.58343 0.35544 0.8229 0.0
O242 O 0.48421 0.42638 0.80874 0.0
O243 O 0.44062 0.44362 0.76892 0.0
C244 C 0.44742 0.35604 0.79261 0.0
C245 C 0.37555 0.40337 0.66706 0.0
C246 C 0.34937 0.38866 0.61991 0.0
C247 C 0.30342 0.37525 0.63064 0.0
C248 C 0.32905 0.3901 0.67706 0.0
C249 C 0.29348 0.37598 0.65899 0.0
C250 C 0.38552 0.4028 0.63834 0.0
C251 C 0.54269 0.35344 0.74052 0.0
C252 C 0.41325 0.41759 0.6867 0.0
C253 C 0.25301 0.33752 0.75965 0.0
C254 C 0.27575 0.31108 0.74523 0.0
C255 C 0.54479 0.44245 0.74128 0.0
C256 C 0.63412 0.37201 0.86188 0.0
C257 C 0.67442 0.37273 0.90771 0.0
C258 C 0.72275 0.37122 0.89478 0.0
C259 C 0.68269 0.37019 0.84953 0.0
C260 C 0.63015 0.37333 0.89098 0.0
C261 C 0.72671 0.36991 0.86593 0.0
C262 C 0.45108 0.44569 0.7958 0.0
C263 C 0.58718 0.37415 0.84501 0.0
H264 H 0.27452 0.36477 0.61698 0.0
H265 H 0.31976 0.39094 0.69886 0.0
H266 H 0.2578 0.36587 0.66697 0.0
H267 H 0.42121 0.41307 0.63043 0.0
H268 H 0.75763 0.37135 0.90698 0.0
H269 H 0.68682 0.36913 0.82731 0.0
H270 H 0.59256 0.37451 0.90054 0.0
H271 H 0.7641 0.36878 0.85622 0.0
Eu272 Eu 0.05303 0.90405 0.73499 0.0
C273 C 0.83735 0.85974 0.77518 0.0
N274 N 0.85657 0.8912 0.7725 0.0
C275 C 0.78065 0.90858 0.74872 0.0
C276 C 0.78911 0.85125 0.76395 0.0
C277 C 0.82862 0.91584 0.76025 0.0
C278 C 0.76097 0.87607 0.75036 0.0
C279 C 0.84693 0.80324 0.79255 0.0
C280 C 0.86611 0.83606 0.78926 0.0
C281 C 0.79911 0.79457 0.78116 0.0
C282 C 0.77028 0.81851 0.76691 0.0
Eu283 Eu 0.93803 0.90137 0.79182 0.0
N284 N 0.91186 0.84539 0.80053 0.0
C285 C 0.87577 0.78031 0.80782 0.0
C286 C 0.93811 0.82378 0.81716 0.0
C287 C 0.92122 0.79077 0.82048 0.0
H288 H 0.8433 0.9411 0.75935 0.0
H289 H 0.94282 0.77359 0.83324 0.0
H290 H 0.13862 0.84556 0.75618 0.0
H291 H 0.09139 0.03525 0.71222 0.0
H292 H 0.97145 0.83193 0.82851 0.0
H293 H 0.86248 0.75482 0.81069 0.0
H294 H 0.04401 0.98134 0.70972 0.0
H295 H 0.75881 0.92807 0.73869 0.0
H296 H 0.78375 0.7695 0.78358 0.0
H297 H 0.73323 0.81153 0.75848 0.0
H298 H 0.21985 0.84362 0.78217 0.0
H299 H 0.72377 0.87051 0.74143 0.0
H300 H 0.17119 0.03931 0.7399 0.0
N301 N 0.13411 0.89864 0.75677 0.0
C302 C 0.16043 0.92765 0.76109 0.0
C303 C 0.20311 0.86747 0.77685 0.0
C304 C 0.20817 0.92775 0.77484 0.0
C305 C 0.15634 0.86867 0.76272 0.0
C306 C 0.22864 0.8972 0.78348 0.0
N307 N 0.09603 0.95603 0.73615 0.0
C308 C 0.07889 0.98315 0.72174 0.0
C309 C 0.16947 0.98718 0.75213 0.0
C310 C 0.14144 0.95707 0.74992 0.0
C311 C 0.15071 0.0157 0.73872 0.0
C312 C 0.10564 0.01353 0.72309 0.0
H313 H 0.26519 0.89619 0.79412 0.0
H314 H 0.27122 0.95868 0.78938 0.0
H315 H 0.23731 0.01071 0.76946 0.0
O316 O 0.03797 0.90784 0.69038 0.0
O317 O 0.04044 0.94682 0.76553 0.0
O318 O 0.01773 0.91745 0.80381 0.0
O319 O 0.11105 0.88994 0.7047 0.0
O320 O 0.9778 0.92722 0.7229 0.0
O321 O 0.93905 0.9472 0.7629 0.0
O322 O 0.9057 0.89685 0.8338 0.0
O323 O 0.92588 0.88166 0.7481 0.0
O324 O 0.00254 0.85755 0.73665 0.0
O325 O 0.90863 0.94562 0.81319 0.0
O326 O 0.01338 0.87591 0.80303 0.0
O327 O 0.04852 0.85714 0.76176 0.0
C328 C 0.03953 0.94355 0.79258 0.0
C329 C 0.08139 0.86936 0.66185 0.0
C330 C 0.09289 0.85377 0.61304 0.0
C331 C 0.09095 0.81984 0.62132 0.0
C332 C 0.07778 0.83558 0.66924 0.0
C333 C 0.08243 0.81098 0.64899 0.0
C334 C 0.08734 0.87839 0.63384 0.0
C335 C 0.949 0.94904 0.73593 0.0
C336 C 0.08198 0.89543 0.68328 0.0
C337 C 0.23485 0.95806 0.77853 0.0
C338 C 0.21561 0.9877 0.76713 0.0
C339 C 0.9521 0.85742 0.73668 0.0
C340 C 0.87346 0.94443 0.86026 0.0
C341 C 0.85666 0.94551 0.91029 0.0
C342 C 0.83686 0.97789 0.90744 0.0
C343 C 0.85322 0.97677 0.85807 0.0
C344 C 0.87435 0.92855 0.8865 0.0
C345 C 0.83481 0.99324 0.88149 0.0
C346 C 0.04215 0.85491 0.78884 0.0
C347 C 0.89687 0.92876 0.83552 0.0
H348 H 0.09714 0.79976 0.60674 0.0
H349 H 0.07256 0.82826 0.69072 0.0
H350 H 0.08072 0.78486 0.65485 0.0
H351 H 0.08807 0.9047 0.62865 0.0
H352 H 0.82269 0.9913 0.92538 0.0
H353 H 0.85209 0.98954 0.83825 0.0
H354 H 0.89036 0.90374 0.88861 0.0
H355 H 0.81939 0.0182 0.87957 0.0
Eu356 Eu 0.46004 0.61016 0.23665 0.0
C357 C 0.68663 0.63816 0.28459 0.0
N358 N 0.66019 0.60908 0.28071 0.0
C359 C 0.73641 0.58217 0.2646 0.0
C360 C 0.73941 0.64026 0.27839 0.0
C361 C 0.6843 0.58109 0.27134 0.0
C362 C 0.76408 0.61188 0.26807 0.0
C363 C 0.68779 0.69621 0.29964 0.0
C364 C 0.6609 0.66602 0.29487 0.0
C365 C 0.74036 0.69824 0.29355 0.0
C366 C 0.76601 0.67042 0.28285 0.0
Eu367 Eu 0.57387 0.61011 0.29498 0.0
N368 N 0.60944 0.66391 0.29954 0.0
C369 C 0.66076 0.72368 0.30996 0.0
C370 C 0.58326 0.69025 0.31032 0.0
C371 C 0.60831 0.72064 0.31536 0.0
H372 H 0.664 0.55763 0.26972 0.0
H373 H 0.58729 0.74158 0.32374 0.0
H374 H 0.37369 0.66745 0.25756 0.0
H375 H 0.43298 0.47917 0.20981 0.0
H376 H 0.54348 0.68768 0.3158 0.0
H377 H 0.68001 0.7473 0.31384 0.0
H378 H 0.48125 0.53213 0.2153 0.0
H379 H 0.7554 0.55994 0.25711 0.0
H380 H 0.76148 0.7213 0.29689 0.0
H381 H 0.80657 0.67245 0.2782 0.0
H382 H 0.28371 0.66877 0.27313 0.0
H383 H 0.80457 0.61252 0.26305 0.0
H384 H 0.34223 0.47578 0.22467 0.0
N385 N 0.37437 0.61473 0.25179 0.0
C386 C 0.34639 0.58588 0.25141 0.0
C387 C 0.30098 0.64526 0.26728 0.0
C388 C 0.29419 0.58576 0.25905 0.0
C389 C 0.35226 0.64434 0.25889 0.0
C390 C 0.27187 0.61583 0.2675 0.0
N391 N 0.41976 0.55746 0.23459 0.0
C392 C 0.44242 0.53044 0.22272 0.0
C393 C 0.34009 0.52706 0.23905 0.0
C394 C 0.36936 0.55659 0.24204 0.0
C395 C 0.36351 0.49888 0.22749 0.0
C396 C 0.41482 0.50064 0.21918 0.0
H397 H 0.23191 0.61674 0.27359 0.0
H398 H 0.22549 0.55538 0.26316 0.0
H399 H 0.26546 0.50417 0.24533 0.0
O400 O 0.47122 0.60097 0.19226 0.0
O401 O 0.44798 0.57759 0.27551 0.0
O402 O 0.52685 0.56287 0.29396 0.0
O403 O 0.41277 0.63532 0.20564 0.0
O404 O 0.53949 0.59059 0.22761 0.0
O405 O 0.57212 0.56499 0.26627 0.0
O406 O 0.56381 0.61773 0.33972 0.0
O407 O 0.58719 0.64228 0.25621 0.0
O408 O 0.50773 0.65738 0.23876 0.0
O409 O 0.62663 0.58774 0.32458 0.0
O410 O 0.49502 0.63091 0.30537 0.0
O411 O 0.46445 0.65471 0.26506 0.0
C412 C 0.47677 0.56014 0.29272 0.0
C413 C 0.39706 0.60504 0.16428 0.0
C414 C 0.37012 0.5956 0.11634 0.0
C415 C 0.33017 0.57491 0.12598 0.0
C416 C 0.35566 0.58532 0.17328 0.0
C417 C 0.32291 0.56999 0.1543 0.0
C418 C 0.40383 0.61057 0.13564 0.0
C419 C 0.56297 0.56547 0.23937 0.0
C420 C 0.43304 0.61975 0.18462 0.0
C421 C 0.26561 0.55594 0.25732 0.0
C422 C 0.28838 0.52675 0.24717 0.0
C423 C 0.55795 0.66014 0.23955 0.0
C424 C 0.59755 0.57669 0.37023 0.0
C425 C 0.60386 0.56783 0.42046 0.0
C426 C 0.59514 0.53343 0.41601 0.0
C427 C 0.58877 0.5424 0.36642 0.0
C428 C 0.60448 0.58934 0.39722 0.0
C429 C 0.58734 0.52097 0.38925 0.0
C430 C 0.46736 0.65323 0.29221 0.0
C431 C 0.6031 0.59937 0.34633 0.0
H432 H 0.30345 0.56341 0.1116 0.0
H433 H 0.34803 0.58212 0.19495 0.0
H434 H 0.29131 0.55466 0.1616 0.0
H435 H 0.435 0.62639 0.12841 0.0
H436 H 0.59551 0.51586 0.4331 0.0
H437 H 0.58351 0.53217 0.3458 0.0
H438 H 0.61084 0.61594 0.39995 0.0
H439 H 0.58085 0.49448 0.38618 0.0
C440 C 0.19419 0.93315 0.39838 0.0
C441 C 0.19051 0.90111 0.38694 0.0
C442 C 0.1695 0.96039 0.38563 0.0
C443 C 0.14334 0.95553 0.36004 0.0
C444 C 0.13867 0.92283 0.34903 0.0
C445 C 0.16008 0.89602 0.3634 0.0
C446 C 0.17308 0.99413 0.39945 0.0
C447 C 0.11273 0.91587 0.32156 0.0
C448 C 0.04563 0.01074 0.32465 0.0
C449 C 0.07632 0.03344 0.30999 0.0
C450 C 0.06673 0.98736 0.3429 0.0
C451 C 0.12067 0.98404 0.34442 0.0
C452 C 0.1523 0.00586 0.3285 0.0
C453 C 0.12967 0.03109 0.31231 0.0
C454 C 0.03018 0.96653 0.36016 0.0
C455 C 0.20995 1.00274 0.32827 0.0
H456 H 0.21746 0.93707 0.41673 0.0
H457 H 0.15605 0.87095 0.35512 0.0
H458 H 0.21136 0.00525 0.3952 0.0
H459 H 0.14315 0.01167 0.39218 0.0
H460 H 0.16965 0.99138 0.42232 0.0
H461 H 0.12576 0.89189 0.31239 0.0
H462 H 0.07074 0.9139 0.32478 0.0
H463 H 0.12026 0.93613 0.30632 0.0
H464 H 0.00481 0.01081 0.32162 0.0
H465 H 0.1538 0.04905 0.30173 0.0
H466 H 0.04937 0.95143 0.37637 0.0
H467 H 0.00776 0.94971 0.34638 0.0
H468 H 0.00219 0.98318 0.37055 0.0
H469 H 0.22597 0.01581 0.34663 0.0
H470 H 0.22697 0.01442 0.30945 0.0
H471 H 0.222 0.97619 0.32915 0.0
C472 C 0.29867 0.58029 0.88735 0.0
C473 C 0.3276 0.60975 0.88902 0.0
C474 C 0.31826 0.55193 0.874 0.0
C475 C 0.36819 0.5532 0.86245 0.0
C476 C 0.39871 0.58236 0.86578 0.0
C477 C 0.37768 0.6105 0.87876 0.0
C478 C 0.28426 0.52153 0.87059 0.0
C479 C 0.45249 0.5845 0.85429 0.0
C480 C 0.43283 0.47227 0.84171 0.0
C481 C 0.42723 0.47251 0.81268 0.0
C482 C 0.41385 0.4983 0.85814 0.0
C483 C 0.38738 0.52492 0.84541 0.0
C484 C 0.38034 0.525 0.81625 0.0
C485 C 0.40109 0.49909 0.80018 0.0
C486 C 0.42315 0.49769 0.88908 0.0
C487 C 0.35145 0.55272 0.80196 0.0
H488 H 0.25946 0.58036 0.89482 0.0
H489 H 0.39928 0.63371 0.87973 0.0
H490 H 0.27414 0.51849 0.84836 0.0
H491 H 0.30476 0.49861 0.87708 0.0
H492 H 0.24827 0.52349 0.8828 0.0
H493 H 0.47308 0.60729 0.8615 0.0
H494 H 0.47486 0.56219 0.86046 0.0
H495 H 0.451 0.58496 0.83129 0.0
H496 H 0.45297 0.45194 0.85171 0.0
H497 H 0.39751 0.50003 0.7778 0.0
H498 H 0.38613 0.49851 0.90038 0.0
H499 H 0.4455 0.52016 0.8953 0.0
H500 H 0.44436 0.47508 0.89579 0.0
H501 H 0.31303 0.55564 0.81153 0.0
H502 H 0.34649 0.54801 0.7794 0.0
H503 H 0.37229 0.57676 0.80466 0.0
C504 C 0.68925 0.56554 0.63324 0.0
C505 C 0.68247 0.59791 0.64353 0.0
C506 C 0.66353 0.53816 0.64541 0.0
C507 C 0.63224 0.54331 0.66908 0.0
C508 C 0.62391 0.57622 0.67879 0.0
C509 C 0.64829 0.60309 0.6655 0.0
C510 C 0.67189 0.50362 0.63378 0.0
C511 C 0.59212 0.58293 0.70438 0.0
C512 C 0.53917 0.47989 0.69981 0.0
C513 C 0.56866 0.46587 0.72116 0.0
C514 C 0.56035 0.50355 0.68146 0.0
C515 C 0.61159 0.51448 0.68528 0.0
C516 C 0.64188 0.49978 0.70637 0.0
C517 C 0.62038 0.47505 0.72355 0.0
C518 C 0.5275 0.51744 0.65845 0.0
C519 C 0.69618 0.51137 0.7118 0.0
H520 H 0.71641 0.56138 0.61667 0.0
H521 H 0.64322 0.62826 0.67333 0.0
H522 H 0.69838 0.48963 0.64747 0.0
H523 H 0.6352 0.48943 0.63296 0.0
H524 H 0.68878 0.50453 0.61262 0.0
H525 H 0.58858 0.61008 0.70881 0.0
H526 H 0.55311 0.57217 0.70198 0.0
H527 H 0.60997 0.57066 0.72262 0.0
H528 H 0.4994 0.47239 0.69744 0.0
H529 H 0.64372 0.46385 0.73947 0.0
H530 H 0.54888 0.51732 0.63853 0.0
H531 H 0.51759 0.54378 0.66308 0.0
H532 H 0.49132 0.50298 0.6558 0.0
H533 H 0.71938 0.50987 0.69258 0.0
H534 H 0.71526 0.49638 0.72819 0.0
H535 H 0.69598 0.53795 0.71841 0.0
C536 C 0.81423 0.94363 0.13045 0.0
C537 C 0.82513 0.9106 0.13784 0.0
C538 C 0.83902 0.97052 0.14384 0.0
C539 C 0.87413 0.96401 0.16561 0.0
C540 C 0.8875 0.9306 0.17181 0.0
C541 C 0.86327 0.90434 0.15758 0.0
C542 C 0.8264 0.00584 0.13544 0.0
C543 C 0.92546 0.92252 0.19444 0.0
C544 C 0.96456 0.02963 0.19583 0.0
C545 C 0.93819 0.03959 0.21973 0.0
C546 C 0.94339 0.00623 0.17727 0.0
C547 C 0.89488 0.99178 0.18307 0.0
C548 C 0.86761 1.00216 0.20697 0.0
C549 C 0.88947 0.02606 0.22486 0.0
C550 C 0.97422 0.99675 0.15202 0.0
C551 C 0.81606 0.9871 0.2142 0.0
H552 H 0.78449 0.94841 0.11532 0.0
H553 H 0.87171 0.87867 0.16305 0.0
H554 H 0.80536 0.01838 0.15247 0.0
H555 H 0.86228 0.02027 0.13177 0.0
H556 H 0.80253 0.00669 0.11636 0.0
H557 H 0.93183 0.8952 0.1966 0.0
H558 H 0.96276 0.93489 0.18997 0.0
H559 H 0.91145 0.93237 0.21458 0.0
H560 H 0.00182 0.04031 0.19154 0.0
H561 H 0.86916 0.03309 0.24338 0.0
H562 H 0.98971 0.01964 0.14192 0.0
H563 H 0.95193 0.98253 0.13635 0.0
H564 H 0.00726 0.98134 0.15866 0.0
H565 H 0.78879 0.99081 0.19683 0.0
H566 H 0.79943 0.99818 0.23326 0.0
H567 H 0.81998 0.95974 0.21738 0.0
C568 C 0.79921 0.07902 0.63834 0.0
C569 C 0.82675 0.10905 0.63661 0.0
C570 C 0.81881 0.05165 0.65313 0.0
C571 C 0.86726 0.05453 0.66626 0.0
C572 C 0.89669 0.08413 0.66284 0.0
C573 C 0.87578 0.11117 0.64822 0.0
C574 C 0.78623 0.02055 0.65627 0.0
C575 C 0.94887 0.08804 0.67603 0.0
C576 C 0.89612 1.00125 0.73002 0.0
C577 C 0.92608 0.97579 0.71853 0.0
C578 C 0.87609 0.02685 0.71318 0.0
C579 C 0.88656 0.02705 0.68427 0.0
C580 C 0.9164 1.00133 0.67259 0.0
C581 C 0.93549 0.97605 0.68976 0.0
C582 C 0.84409 0.05387 0.72632 0.0
C583 C 0.92882 1.00072 0.64197 0.0
H584 H 0.76066 0.078 0.62997 0.0
H585 H 0.89619 0.13483 0.64736 0.0
H586 H 0.80872 0.99799 0.651 0.0
H587 H 0.77389 0.01797 0.67821 0.0
H588 H 0.75153 0.02122 0.64292 0.0
H589 H 0.96877 0.11124 0.66912 0.0
H590 H 0.94472 0.08887 0.69893 0.0
H591 H 0.97337 0.0663 0.67099 0.0
H592 H 0.88861 1.00134 0.75213 0.0
H593 H 0.95845 0.95658 0.68043 0.0
H594 H 0.80606 0.05503 0.71606 0.0
H595 H 0.86295 0.07855 0.72333 0.0
H596 H 0.83826 0.04969 0.7489 0.0
H597 H 0.89292 1.00031 0.62963 0.0
H598 H 0.9522 0.97871 0.63608 0.0
H599 H 0.95019 0.02375 0.63615 0.0
C600 C 0.72334 0.43802 0.14692 0.0
C601 C 0.69397 0.41002 0.1396 0.0
C602 C 0.70108 0.46515 0.16071 0.0
C603 C 0.64821 0.464 0.16737 0.0
C604 C 0.61768 0.43677 0.15811 0.0
C605 C 0.64106 0.41004 0.14421 0.0
C606 C 0.73488 0.49385 0.1699 0.0
C607 C 0.56116 0.43467 0.16468 0.0
C608 C 0.60678 0.5104 0.23238 0.0
C609 C 0.58556 0.53954 0.22119 0.0
C610 C 0.6271 0.48554 0.21505 0.0
C611 C 0.62595 0.4899 0.18585 0.0
C612 C 0.60439 0.51917 0.17445 0.0
C613 C 0.58457 0.54362 0.19222 0.0
C614 C 0.64979 0.45458 0.22798 0.0
C615 C 0.60239 0.52471 0.14346 0.0
H616 H 0.76438 0.43757 0.14341 0.0
H617 H 0.61883 0.388 0.13882 0.0
H618 H 0.71719 0.51811 0.16438 0.0
H619 H 0.73907 0.49323 0.19281 0.0
H620 H 0.77369 0.49272 0.16045 0.0
H621 H 0.54182 0.41409 0.1532 0.0
H622 H 0.55598 0.43026 0.18725 0.0
H623 H 0.54193 0.45856 0.15959 0.0
H624 H 0.60722 0.50687 0.25468 0.0
H625 H 0.56817 0.566 0.18329 0.0
H626 H 0.69057 0.45219 0.22177 0.0
H627 H 0.62929 0.43202 0.22031 0.0
H628 H 0.64761 0.45495 0.251 0.0
H629 H 0.64181 0.52485 0.1348 0.0
H630 H 0.58357 0.54863 0.13789 0.0
H631 H 0.58118 0.5039 0.13336 0.0
C632 C 0.30865 0.43641 0.38718 0.0
C633 C 0.33175 0.40501 0.38792 0.0
C634 C 0.33383 0.46385 0.37493 0.0
C635 C 0.38322 0.45953 0.36324 0.0
C636 C 0.40791 0.42819 0.36567 0.0
C637 C 0.38168 0.40121 0.37796 0.0
C638 C 0.30619 0.49679 0.37285 0.0
C639 C 0.46058 0.42254 0.35365 0.0
C640 C 0.41898 0.51091 0.29981 0.0
C641 C 0.45196 0.53505 0.31088 0.0
C642 C 0.39567 0.48665 0.31672 0.0
C643 C 0.40627 0.48626 0.34554 0.0
C644 C 0.43953 0.51077 0.35697 0.0
C645 C 0.46203 0.5349 0.33944 0.0
C646 C 0.36021 0.46114 0.30365 0.0
C647 C 0.45182 0.51126 0.38756 0.0
H648 H 0.2698 0.43892 0.39486 0.0
H649 H 0.39901 0.37667 0.37859 0.0
H650 H 0.33179 0.51768 0.37918 0.0
H651 H 0.29492 0.50128 0.35096 0.0
H652 H 0.27111 0.49726 0.38592 0.0
H653 H 0.47667 0.39804 0.35999 0.0
H654 H 0.45845 0.42329 0.33066 0.0
H655 H 0.48731 0.44269 0.36026 0.0
H656 H 0.4127 0.51031 0.27781 0.0
H657 H 0.48712 0.55391 0.34807 0.0
H658 H 0.32194 0.46211 0.31366 0.0
H659 H 0.37546 0.43561 0.30693 0.0
H660 H 0.35529 0.46523 0.28103 0.0
H661 H 0.41618 0.50945 0.40006 0.0
H662 H 0.47302 0.53427 0.3937 0.0
H663 H 0.47561 0.48925 0.39281 0.0
C664 C 0.21337 0.07211 0.87669 0.0
C665 C 0.18468 0.09759 0.88898 0.0
C666 C 0.18916 0.04523 0.86326 0.0
C667 C 0.13493 0.04364 0.86258 0.0
C668 C 0.10587 0.06802 0.87686 0.0
C669 C 0.13121 0.09486 0.88984 0.0
C670 C 0.22155 0.01986 0.84822 0.0
C671 C 0.04802 0.06698 0.87686 0.0
C672 C 0.07419 1.00121 0.80018 0.0
C673 C 0.06263 0.96941 0.81067 0.0
C674 C 0.09773 0.02557 0.81686 0.0
C675 C 0.10883 0.01818 0.84497 0.0
C676 C 0.09593 0.9864 0.85593 0.0
C677 C 0.07318 0.96232 0.83861 0.0
C678 C 0.11142 0.05903 0.80424 0.0
C679 C 0.10665 0.97774 0.88586 0.0
H680 H 0.25479 0.07429 0.87635 0.0
H681 H 0.10923 0.1148 0.8992 0.0
H682 H 0.20928 0.99408 0.85367 0.0
H683 H 0.21633 0.02283 0.8255 0.0
H684 H 0.26299 0.02275 0.85305 0.0
H685 H 0.03142 0.08528 0.89163 0.0
H686 H 0.03367 0.07279 0.85573 0.0
H687 H 0.03392 0.04159 0.88234 0.0
H688 H 0.06471 0.00714 0.7789 0.0
H689 H 0.06411 0.93779 0.84692 0.0
H690 H 0.15367 0.06253 0.80454 0.0
H691 H 0.0945 0.07955 0.81663 0.0
H692 H 0.09792 0.06135 0.78247 0.0
H693 H 0.14852 0.97897 0.88984 0.0
H694 H 0.09253 0.95235 0.89144 0.0
H695 H 0.08823 0.99622 0.89976 0.0
C696 C 0.20154 0.10368 0.95811 0.0
C697 C 0.18044 0.1318 0.94536 0.0
C698 C 0.18484 0.09332 0.98448 0.0
C699 C 0.14549 0.11129 0.99811 0.0
C700 C 0.12258 0.13893 0.98465 0.0
C701 C 0.14068 0.149 0.95847 0.0
C702 C 0.2108 0.06404 0.99823 0.0
C703 C 0.0801 0.15846 0.99822 0.0
C704 C 0.08079 0.06635 0.05842 0.0
C705 C 0.10637 0.08026 0.08129 0.0
C706 C 0.09174 0.0771 0.03127 0.0
C707 C 0.12991 0.10188 0.02687 0.0
C708 C 0.15497 0.1166 0.04996 0.0
C709 C 0.14259 0.10578 0.07691 0.0
C710 C 0.06339 0.06134 1.00726 0.0
C711 C 0.1963 0.14283 0.04616 0.0
H712 H 0.23273 0.09079 0.94791 0.0
H713 H 0.12457 0.17074 0.94836 0.0
H714 H 0.23059 0.07259 0.01736 0.0
H715 H 0.18193 0.04501 1.00452 0.0
H716 H 0.23939 0.05201 0.98444 0.0
H717 H 0.06357 0.17749 0.98406 0.0
H718 H 0.04901 0.14131 1.00513 0.0
H719 H 0.09504 0.17137 0.01694 0.0
H720 H 0.05249 0.04679 0.0618 0.0
H721 H 0.16281 0.11634 0.09453 0.0
H722 H 0.0905 0.04678 0.99437 0.0
H723 H 0.04681 0.081 0.99378 0.0
H724 H 0.03206 0.04439 1.01427 0.0
H725 H 0.22906 0.13196 0.03465 0.0
H726 H 0.2106 0.15276 0.06626 0.0
H727 H 0.18162 0.16396 0.03361 0.0
C728 C 0.35985 0.37524 0.45353 0.0
C729 C 0.30882 0.38091 0.44609 0.0
C730 C 0.37676 0.38146 0.48074 0.0
C731 C 0.34134 0.39306 0.5008 0.0
C732 C 0.29098 0.40165 0.49249 0.0
C733 C 0.27556 0.3958 0.46505 0.0
C734 C 0.43116 0.37298 0.48852 0.0
C735 C 0.25178 0.41388 0.51312 0.0
C736 C 0.34462 0.35975 0.57417 0.0
C737 C 0.35756 0.38841 0.58941 0.0
C738 C 0.34194 0.36056 0.54517 0.0
C739 C 0.35337 0.39069 0.53093 0.0
C740 C 0.37066 0.41896 0.54602 0.0
C741 C 0.37233 0.41755 0.5752 0.0
C742 C 0.32342 0.32973 0.52995 0.0
C743 C 0.38435 0.45126 0.53154 0.0
H744 H 0.38543 0.3639 0.43858 0.0
H745 H 0.23627 0.40039 0.45888 0.0
H746 H 0.44747 0.39213 0.5027 0.0
H747 H 0.43161 0.34867 0.49962 0.0
H748 H 0.45617 0.37092 0.46994 0.0
H749 H 0.21632 0.42282 0.50282 0.0
H750 H 0.24128 0.39318 0.52743 0.0
H751 H 0.26789 0.43448 0.52586 0.0
H752 H 0.33427 0.33696 0.58508 0.0
H753 H 0.38242 0.43979 0.58689 0.0
H754 H 0.35068 0.32304 0.51323 0.0
H755 H 0.28588 0.33488 0.52003 0.0
H756 H 0.31879 0.30785 0.54396 0.0
H757 H 0.40747 0.44639 0.51265 0.0
H758 H 0.40609 0.46848 0.54533 0.0
H759 H 0.34875 0.46399 0.52488 0.0
C760 C 0.65198 0.3519 0.07257 0.0
C761 C 0.69086 0.37087 0.08504 0.0
C762 C 0.64075 0.35556 0.04425 0.0
C763 C 0.6697 0.37849 0.02809 0.0
C764 C 0.70593 0.39976 0.04126 0.0
C765 C 0.7159 0.39576 0.06971 0.0
C766 C 0.60128 0.33275 0.03121 0.0
C767 C 0.73776 0.42445 0.02485 0.0
C768 C 0.70243 0.35267 0.95448 0.0
C769 C 0.67074 0.37338 0.93856 0.0
C770 C 0.70183 0.35392 0.98354 0.0
C771 C 0.66842 0.37632 0.99721 0.0
C772 C 0.63525 0.39671 0.98136 0.0
C773 C 0.63684 0.39504 0.95219 0.0
C774 C 0.73764 0.33152 0.99961 0.0
C775 C 0.59883 0.42066 0.99521 0.0
H776 H 0.63287 0.33263 0.08464 0.0
H777 H 0.74634 0.41008 0.07948 0.0
H778 H 0.5769 0.34673 0.0164 0.0
H779 H 0.621 0.31282 0.01937 0.0
H780 H 0.5763 0.32069 0.04704 0.0
H781 H 0.75875 0.44221 0.03853 0.0
H782 H 0.7662 0.4107 1.01217 0.0
H783 H 0.7133 0.43888 1.01039 0.0
H784 H 0.72792 0.33537 0.94415 0.0
H785 H 0.61242 0.41128 0.94005 0.0
H786 H 0.71541 0.31537 1.01404 0.0
H787 H 0.76416 0.34694 1.01235 0.0
H788 H 0.76079 0.31526 0.98583 0.0
H789 H 0.57497 0.40726 1.01076 0.0
H790 H 0.57314 0.43313 0.98007 0.0
H791 H 0.62093 0.44015 1.00649 0.0
C792 C 0.85462 0.13611 0.57248 0.0
C793 C 0.80241 0.13848 0.57896 0.0
C794 C 0.87092 0.13337 0.54468 0.0
C795 C 0.83413 0.13418 0.52301 0.0
C796 C 0.78127 0.13325 0.52981 0.0
C797 C 0.7662 0.13465 0.55773 0.0
C798 C 0.92755 0.13238 0.53846 0.0
C799 C 0.74047 0.13445 0.50762 0.0
C800 C 0.86317 0.18494 0.45832 0.0
C801 C 0.86255 0.16058 0.43733 0.0
C802 C 0.85579 0.17644 0.48627 0.0
C803 C 0.84989 0.14244 0.49392 0.0
C804 C 0.85391 0.11738 0.47325 0.0
C805 C 0.85941 0.12674 0.44514 0.0
C806 C 0.85124 0.2042 0.50739 0.0
C807 C 0.85015 0.08076 0.48053 0.0
H808 H 0.88274 0.13885 0.58887 0.0
H809 H 0.72582 0.13569 0.56293 0.0
H810 H 0.93546 0.11539 0.52079 0.0
H811 H 0.94115 0.15774 0.53257 0.0
H812 H 0.94993 0.12403 0.55679 0.0
H813 H 0.7013 0.13095 0.51626 0.0
H814 H 0.74216 0.15905 0.49695 0.0
H815 H 0.74723 0.11492 0.49177 0.0
H816 H 0.86767 0.21106 0.45281 0.0
H817 H 0.85916 0.10755 0.42928 0.0
H818 H 0.87991 0.20088 0.52412 0.0
H819 H 0.81269 0.20334 0.51715 0.0
H820 H 0.85697 0.22935 0.49805 0.0
H821 H 0.86896 0.07551 0.50072 0.0
H822 H 0.86792 0.06492 0.46428 0.0
H823 H 0.80923 0.0734 0.48236 0.0
C824 C 0.78007 0.90844 0.06405 0.0
C825 C 0.80774 0.88441 0.07868 0.0
C826 C 0.79351 0.91718 0.03676 0.0
C827 C 0.83565 0.90131 0.02376 0.0
C828 C 0.86469 0.87764 0.0389 0.0
C829 C 0.85006 0.86927 0.06617 0.0
C830 C 0.76122 0.94237 0.02144 0.0
C831 C 0.90998 0.86028 0.02597 0.0
C832 C 0.83002 0.90165 0.94472 0.0
C833 C 0.85875 0.93038 0.93843 0.0
C834 C 0.82404 0.89091 0.97239 0.0
C835 C 0.848 0.90909 0.99415 0.0
C836 C 0.87988 0.93677 0.98759 0.0
C837 C 0.88445 0.94725 0.95986 0.0
C838 C 0.78952 0.86136 0.97847 0.0
C839 C 0.90694 0.95645 1.01 0.0
H840 H 0.7464 0.9192 0.07362 0.0
H841 H 0.87041 0.85003 0.07745 0.0
H842 H 0.78574 0.96298 1.01342 0.0
H843 H 0.74268 0.93024 1.0033 0.0
H844 H 0.73089 0.95324 0.03481 0.0
H845 H 0.93105 0.84468 0.0412 0.0
H846 H 0.89666 0.84399 1.00877 0.0
H847 H 0.93692 0.87893 0.01695 0.0
H848 H 0.80986 0.88874 0.92818 0.0
H849 H 0.90687 0.96941 0.95496 0.0
H850 H 0.75467 0.87003 0.98948 0.0
H851 H 0.80912 0.84336 0.99232 0.0
H852 H 0.77748 0.84812 0.95927 0.0
H853 H 0.8783 0.9703 0.02246 0.0
H854 H 0.93493 0.97472 1.00131 0.0
H855 H 0.92739 0.93938 0.02432 0.0
C856 C 0.71659 0.60463 0.57066 0.0
C857 C 0.69093 0.62926 0.58568 0.0
C858 C 0.69932 0.59465 0.54435 0.0
C859 C 0.6562 0.61055 0.53241 0.0
C860 C 0.62994 0.63543 0.54768 0.0
C861 C 0.64738 0.64424 0.57432 0.0
C862 C 0.72802 0.56767 0.52906 0.0
C863 C 0.58471 0.6536 0.53547 0.0
C864 C 0.65015 0.6066 0.45354 0.0
C865 C 0.61433 0.58073 0.4491 0.0
C866 C 0.6626 0.61744 0.48048 0.0
C867 C 0.63965 0.60158 0.5037 0.0
C868 C 0.60282 0.57597 0.49944 0.0
C869 C 0.59014 0.5662 0.47228 0.0
C870 C 0.7014 0.64529 0.4841 0.0
C871 C 0.57794 0.55815 0.52362 0.0
H872 H 0.75109 0.59386 0.57931 0.0
H873 H 0.62829 0.6637 0.58597 0.0
H874 H 0.70105 0.5478 0.52211 0.0
H875 H 0.74635 0.57836 0.51024 0.0
H876 H 0.75824 0.55608 0.54209 0.0
H877 H 0.56743 0.67145 0.55038 0.0
H878 H 0.59708 0.66764 0.51673 0.0
H879 H 0.55481 0.63548 0.52881 0.0
H880 H 0.66974 0.61784 0.43601 0.0
H881 H 0.56151 0.5468 0.46926 0.0
H882 H 0.73656 0.63536 0.49399 0.0
H883 H 0.68594 0.66487 0.49803 0.0
H884 H 0.71225 0.65705 0.46403 0.0
H885 H 0.60771 0.54537 0.53613 0.0
H886 H 0.54914 0.53927 0.51685 0.0
H887 H 0.55885 0.57642 0.53743 0.0
C888 C 0.27121 0.63042 0.96743 0.0
C889 C 0.30652 0.63822 0.94653 0.0
C890 C 0.28763 0.6225 0.99433 0.0
C891 C 0.34081 0.62202 1.00034 0.0
C892 C 0.37675 0.62841 0.9789 0.0
C893 C 0.35908 0.63652 0.95218 0.0
C894 C 0.24798 0.61579 0.01653 0.0
C895 C 0.43368 0.62788 0.98442 0.0
C896 C 0.37079 0.63571 0.0766 0.0
C897 C 0.37351 0.60273 0.08623 0.0
C898 C 0.36287 0.64251 0.04831 0.0
C899 C 0.35817 0.61564 0.02929 0.0
C900 C 0.36468 0.58241 0.0387 0.0
C901 C 0.37195 0.57635 0.0671 0.0
C902 C 0.35596 0.67829 0.03913 0.0
C903 C 0.36067 0.55311 0.01908 0.0
H904 H 0.2306 0.63148 0.9628 0.0
H905 H 0.3862 0.64294 0.93597 0.0
H906 H 0.25476 0.59106 0.02626 0.0
H907 H 0.25131 0.63491 0.03312 0.0
H908 H 0.20825 0.61621 1.00824 0.0
H909 H 0.4565 0.63052 0.96506 0.0
H910 H 0.4441 0.64866 0.99861 0.0
H911 H 0.44449 0.60423 0.99487 0.0
H912 H 0.37153 0.6561 0.09142 0.0
H913 H 0.37434 0.55082 0.07457 0.0
H914 H 0.31544 0.68225 0.03298 0.0
H915 H 0.38013 0.68376 0.02072 0.0
H916 H 0.3658 0.69638 0.05581 0.0
H917 H 0.3203 0.55007 1.01222 0.0
H918 H 0.37313 0.5294 0.02894 0.0
H919 H 0.38426 0.55761 1.00027 0.0
C920 C 0.23309 0.87299 0.47073 0.0
C921 C 0.2027 0.8728 0.44679 0.0
C922 C 0.21115 0.87524 0.49715 0.0
C923 C 0.15768 0.88055 0.4997 0.0
C924 C 0.1279 0.88523 0.47532 0.0
C925 C 0.15047 0.88019 0.44909 0.0
C926 C 0.2451 0.86956 0.52212 0.0
C927 C 0.07184 0.89408 0.4765 0.0
C928 C 0.09187 0.84037 0.56172 0.0
C929 C 0.10313 0.86303 0.58321 0.0
C930 C 0.10832 0.8461 0.53439 0.0
C931 C 0.13299 0.87668 0.52751 0.0
C932 C 0.13954 0.90129 0.54836 0.0
C933 C 0.12623 0.89378 0.57597 0.0
C934 C 0.10098 0.81856 0.51327 0.0
C935 C 0.16202 0.93537 0.54221 0.0
H936 H 0.27386 0.86854 0.46875 0.0
H937 H 0.12676 0.88051 0.43064 0.0
H938 H 0.25226 0.89371 0.53272 0.0
H939 H 0.22653 0.85232 0.53719 0.0
H940 H 0.28285 0.85895 0.51626 0.0
H941 H 0.06344 0.91392 0.46104 0.0
H942 H 0.04841 0.87193 0.47067 0.0
H943 H 0.05972 0.90295 0.49729 0.0
H944 H 0.07135 0.8174 0.56616 0.0
H945 H 0.13565 0.912 0.59176 0.0
H946 H 0.13607 0.81516 0.50056 0.0
H947 H 0.06913 0.82519 0.49913 0.0
H948 H 0.09126 0.79425 0.52319 0.0
H949 H 0.20092 0.93725 0.55142 0.0
H950 H 0.13842 0.95494 0.55228 0.0
H951 H 0.16438 0.94094 0.51969 0.0
C952 C 0.18105 0.31208 0.36015 0.0
C953 C 0.21801 0.30554 0.38047 0.0
C954 C 0.15238 0.28602 0.34813 0.0
C955 C 0.15992 0.25273 0.35726 0.0
C956 C 0.19598 0.24619 0.37853 0.0
C957 C 0.22514 0.27263 0.38957 0.0
C958 C 0.11551 0.29395 0.32494 0.0
C959 C 0.20539 0.21107 0.38872 0.0
C960 C 0.06088 0.18708 0.33571 0.0
C961 C 0.08496 0.1728 0.31261 0.0
C962 C 0.08508 0.21283 0.35087 0.0
C963 C 0.13425 0.22448 0.34258 0.0
C964 C 0.15919 0.20922 0.31987 0.0
C965 C 0.13436 0.18346 0.30546 0.0
C966 C 0.05787 0.22786 0.37546 0.0
C967 C 0.21139 0.22074 0.30994 0.0
H968 H 0.17521 0.33761 0.3534 0.0
H969 H 0.25429 0.26755 0.40498 0.0
H970 H 0.12886 0.28201 0.30547 0.0
H971 H 0.07696 0.28356 0.32967 0.0
H972 H 0.11204 0.32128 0.3213 0.0
H973 H 0.23036 0.21062 0.40739 0.0
H974 H 0.1685 0.19848 0.39375 0.0
H975 H 0.2241 0.19633 0.37209 0.0
H976 H 0.02269 0.17874 0.34146 0.0
H977 H 0.15406 0.1714 0.28871 0.0
H978 H 0.05038 0.25472 0.37153 0.0
H979 H 0.08263 0.22636 0.39414 0.0
H980 H 0.02082 0.2151 0.37993 0.0
H981 H 0.20687 0.24377 0.29734 0.0
H982 H 0.23022 0.20155 0.2969 0.0
H983 H 0.23731 0.22676 0.32748 0.0
C984 C 0.25607 0.23436 0.87417 0.0
C985 C 0.27975 0.20439 0.88148 0.0
C986 C 0.28389 0.25984 0.86078 0.0
C987 C 0.33673 0.25521 0.85519 0.0
C988 C 0.36101 0.22522 0.86344 0.0
C989 C 0.33194 0.19996 0.87624 0.0
C990 C 0.25641 0.2911 0.85171 0.0
C991 C 0.41731 0.21947 0.85809 0.0
C992 C 0.39825 0.30229 0.79544 0.0
C993 C 0.42067 0.32978 0.8089 0.0
C994 C 0.36993 0.27828 0.81017 0.0
C995 C 0.36598 0.2809 0.83936 0.0
C996 C 0.39041 0.30775 0.85332 0.0
C997 C 0.41698 0.33212 0.83788 0.0
C998 C 0.34352 0.25044 0.79442 0.0
C999 C 0.38849 0.31069 0.88452 0.0
H1000 H 0.21543 0.23723 0.87813 0.0
H1001 H 0.34962 0.17648 0.88192 0.0
H1002 H 0.27584 0.31355 0.86032 0.0
H1003 H 0.25781 0.29325 0.82876 0.0
H1004 H 0.21564 0.29121 0.8584 0.0
H1005 H 0.43112 0.19599 0.86779 0.0
H1006 H 0.42438 0.21809 0.83542 0.0
H1007 H 0.44034 0.24073 0.86622 0.0
H1008 H 0.40283 0.29942 0.77329 0.0
H1009 H 0.43478 0.35302 0.84855 0.0
H1010 H 0.30138 0.25265 0.79694 0.0
H1011 H 0.35472 0.22575 0.80286 0.0
H1012 H 0.35263 0.25098 0.77191 0.0
H1013 H 0.34818 0.3133 0.8915 0.0
H1014 H 0.41097 0.33243 0.89229 0.0
H1015 H 0.40373 0.28759 0.89418 0.0
C1016 C 0.74455 0.23189 0.66921 0.0
C1017 C 0.7212 0.2092 0.65106 0.0
C1018 C 0.7154 0.2559 0.68327 0.0
C1019 C 0.66161 0.25677 0.67924 0.0
C1020 C 0.638 0.23389 0.66073 0.0
C1021 C 0.66826 0.21045 0.6467 0.0
C1022 C 0.74205 0.2801 0.7026 0.0
C1023 C 0.58073 0.23377 0.65616 0.0
C1024 C 0.58162 0.29679 0.73592 0.0
C1025 C 0.57154 0.32831 0.7245 0.0
C1026 C 0.61051 0.27314 0.7213 0.0
C1027 C 0.62998 0.28132 0.6947 0.0
C1028 C 0.61955 0.31302 0.68298 0.0
C1029 C 0.59012 0.33606 0.69795 0.0
C1030 C 0.6204 0.23946 0.73436 0.0
C1031 C 0.64012 0.32276 0.6548 0.0
H1032 H 0.78564 0.23067 0.67235 0.0
H1033 H 0.65061 0.19254 0.63275 0.0
H1034 H 0.73312 0.3062 0.69656 0.0
H1035 H 0.72781 0.27644 0.72409 0.0
H1036 H 0.78434 0.27694 0.70254 0.0
H1037 H 0.5685 0.2146 0.64082 0.0
H1038 H 0.56072 0.22879 0.67608 0.0
H1039 H 0.5681 0.25866 0.64877 0.0
H1040 H 0.56692 0.29062 0.75635 0.0
H1041 H 0.58264 0.36048 0.68911 0.0
H1042 H 0.66224 0.23573 0.73695 0.0
H1043 H 0.60607 0.21927 0.72057 0.0
H1044 H 0.60169 0.2368 0.75497 0.0
H1045 H 0.68261 0.32151 0.65486 0.0
H1046 H 0.62854 0.34839 0.64863 0.0
H1047 H 0.62617 0.30489 0.63887 0.0
C1048 C 0.76967 0.27555 0.16038 0.0
C1049 C 0.79168 0.30618 0.15291 0.0
C1050 C 0.79864 0.25126 0.17421 0.0
C1051 C 0.85097 0.2578 0.18015 0.0
C1052 C 0.87354 0.28856 0.17196 0.0
C1053 C 0.84333 0.31258 0.15863 0.0
C1054 C 0.77305 0.21898 0.183 0.0
C1055 C 0.92936 0.29621 0.17752 0.0
C1056 C 0.91339 0.20984 0.23894 0.0
C1057 C 0.93749 0.18374 0.22463 0.0
C1058 C 0.88497 0.23406 0.22471 0.0
C1059 C 0.88181 0.23272 0.19542 0.0
C1060 C 0.90754 0.2072 0.18076 0.0
C1061 C 0.93475 0.18287 0.19555 0.0
C1062 C 0.85737 0.26065 0.24108 0.0
C1063 C 0.90584 0.20537 0.14948 0.0
H1064 H 0.72946 0.2711 0.15596 0.0
H1065 H 0.85979 0.33648 0.15268 0.0
H1066 H 0.7934 0.19737 0.17382 0.0
H1067 H 0.77522 0.21627 0.20589 0.0
H1068 H 0.73214 0.21776 0.17664 0.0
H1069 H 0.94155 0.32059 0.16855 0.0
H1070 H 0.93642 0.29678 0.20022 0.0
H1071 H 0.95378 0.27623 0.16871 0.0
H1072 H 0.9155 0.21086 0.26138 0.0
H1073 H 0.95351 0.16297 0.18426 0.0
H1074 H 0.81559 0.25915 0.23687 0.0
H1075 H 0.8706 0.28584 0.23447 0.0
H1076 H 0.86358 0.25813 0.26379 0.0
H1077 H 0.86577 0.20137 0.14246 0.0
H1078 H 0.92985 0.18484 0.14116 0.0
H1079 H 0.91929 0.22937 0.14038 0.0
C1080 C 0.82922 0.71529 0.63975 0.0
C1081 C 0.78733 0.69994 0.65293 0.0
C1082 C 0.85578 0.74191 0.65244 0.0
C1083 C 0.84162 0.75225 0.67949 0.0
C1084 C 0.7998 0.73642 0.69297 0.0
C1085 C 0.77225 0.7113 0.67916 0.0
C1086 C 0.89882 0.75902 0.6369 0.0
C1087 C 0.78422 0.74576 0.72206 0.0
C1088 C 0.94257 0.79782 0.7224 0.0
C1089 C 0.92439 0.83066 0.72184 0.0
C1090 C 0.91563 0.77196 0.70899 0.0
C1091 C 0.87059 0.77945 0.69381 0.0
C1092 C 0.85259 0.81277 0.69291 0.0
C1093 C 0.87923 0.83787 0.70738 0.0
C1094 C 0.93462 0.73653 0.71166 0.0
C1095 C 0.80532 0.82202 0.67662 0.0
H1096 H 0.84135 0.70636 0.61961 0.0
H1097 H 0.73896 0.70021 0.68904 0.0
H1098 H 0.89219 0.7864 0.63624 0.0
H1099 H 0.93567 0.75499 0.64783 0.0
H1100 H 0.90255 0.74966 0.6153 0.0
H1101 H 0.75646 0.72761 0.73112 0.0
H1102 H 0.81836 0.74716 0.73576 0.0
H1103 H 0.76609 0.7707 0.72181 0.0
H1104 H 0.97712 0.79223 0.73398 0.0
H1105 H 0.8652 0.86334 0.70697 0.0
H1106 H 0.94383 0.72629 0.69089 0.0
H1107 H 0.90403 0.72046 0.72072 0.0
H1108 H 0.96931 0.73479 0.72495 0.0
H1109 H 0.80734 0.81154 0.65533 0.0
H1110 H 0.80031 0.84953 0.67514 0.0
H1111 H 0.77082 0.81125 0.68676 0.0
C1112 C 0.66294 0.81848 0.1557 0.0
C1113 C 0.71057 0.81194 0.14364 0.0
C1114 C 0.63536 0.79316 0.16939 0.0
C1115 C 0.65587 0.76048 0.17068 0.0
C1116 C 0.703 0.75348 0.15731 0.0
C1117 C 0.72989 0.77942 0.14393 0.0
C1118 C 0.58558 0.80176 0.18362 0.0
C1119 C 0.72608 0.71899 0.15815 0.0
C1120 C 0.61988 0.70719 0.23283 0.0
C1121 C 0.58229 0.68595 0.22193 0.0
C1122 C 0.6441 0.73148 0.2164 0.0
C1123 C 0.6304 0.73453 0.18811 0.0
C1124 C 0.59205 0.71325 0.17688 0.0
C1125 C 0.56806 0.68935 0.19403 0.0
C1126 C 0.68416 0.75398 0.22941 0.0
C1127 C 0.57674 0.71559 0.14675 0.0
H1128 H 0.64824 0.84376 0.15512 0.0
H1129 H 0.76684 0.77468 0.13448 0.0
H1130 H 0.5548 0.78415 0.17717 0.0
H1131 H 0.59018 0.79919 0.20641 0.0
H1132 H 0.57313 0.82768 0.17897 0.0
H1133 H 0.76025 0.71692 0.14451 0.0
H1134 H 0.73773 0.71295 0.17972 0.0
H1135 H 0.6973 0.69998 0.15172 0.0
H1136 H 0.62938 0.70548 0.25442 0.0
H1137 H 0.53883 0.6729 0.18554 0.0
H1138 H 0.67331 0.78056 0.22673 0.0
H1139 H 0.72156 0.75047 0.21887 0.0
H1140 H 0.68928 0.74897 0.2519 0.0
H1141 H 0.56212 0.74098 0.14215 0.0
H1142 H 0.54673 0.69696 0.14114 0.0
H1143 H 0.61074 0.71159 0.13334 0.0
C1144 C 0.34916 0.796 0.38788 0.0
C1145 C 0.2977 0.80096 0.38121 0.0
C1146 C 0.37743 0.77093 0.37464 0.0
C1147 C 0.35297 0.7502 0.35475 0.0
C1148 C 0.30027 0.7545 0.34877 0.0
C1149 C 0.27334 0.78016 0.36196 0.0
C1150 C 0.43376 0.76744 0.38113 0.0
C1151 C 0.27272 0.73259 0.32799 0.0
C1152 C 0.43227 0.71032 0.2981 0.0
C1153 C 0.43865 0.67791 0.30846 0.0
C1154 C 0.40522 0.73429 0.31325 0.0
C1155 C 0.38306 0.72527 0.33903 0.0
C1156 C 0.38906 0.69244 0.34947 0.0
C1157 C 0.41749 0.66919 0.33418 0.0
C1158 C 0.40043 0.76925 0.3017 0.0
C1159 C 0.36481 0.68177 0.37654 0.0
H1160 H 0.36745 0.81252 0.40274 0.0
H1161 H 0.23332 0.78436 0.3571 0.0
H1162 H 0.44234 0.74141 0.38747 0.0
H1163 H 0.4567 0.77284 0.36223 0.0
H1164 H 0.44639 0.78465 0.3979 0.0
H1165 H 0.23086 0.73751 0.32742 0.0
H1166 H 0.28866 0.737 0.30695 0.0
H1167 H 0.27874 0.70582 0.33301 0.0
H1168 H 0.44915 0.71707 0.27829 0.0
H1169 H 0.4222 0.64398 0.34203 0.0
H1170 H 0.41548 0.78769 0.31689 0.0
H1171 H 0.35949 0.7752 0.29812 0.0
H1172 H 0.42152 0.77246 0.28183 0.0
H1173 H 0.37923 0.69771 0.39371 0.0
H1174 H 0.37279 0.65522 0.38164 0.0
H1175 H 0.32266 0.6852 0.37548 0.0
C1176 C 0.16806 0.70697 0.87706 0.0
C1177 C 0.22146 0.70974 0.87651 0.0
C1178 C 0.13748 0.73034 0.86315 0.0
C1179 C 0.16124 0.75719 0.84877 0.0
C1180 C 0.21539 0.76032 0.84871 0.0
C1181 C 0.24492 0.73628 0.86246 0.0
C1182 C 0.07993 0.726 0.86341 0.0
C1183 C 0.24207 0.78876 0.83386 0.0
C1184 C 0.08822 0.80034 0.79096 0.0
C1185 C 0.07128 0.82937 0.80429 0.0
C1186 C 0.11745 0.77655 0.80522 0.0
C1187 C 0.12954 0.78184 0.83353 0.0
C1188 C 0.11186 0.81086 0.84719 0.0
C1189 C 0.08295 0.8343 0.83239 0.0
C1190 C 0.13567 0.74587 0.78997 0.0
C1191 C 0.12401 0.81733 0.87736 0.0
H1192 H 0.15054 0.68607 0.8879 0.0
H1193 H 0.28641 0.73796 0.86221 0.0
H1194 H 0.06154 0.74872 0.87192 0.0
H1195 H 0.06567 0.72274 0.84188 0.0
H1196 H 0.06753 0.70406 0.87594 0.0
H1197 H 0.28426 0.78849 0.83705 0.0
H1198 H 0.23418 0.7872 0.81128 0.0
H1199 H 0.22702 0.81308 0.84122 0.0
H1200 H 0.07879 0.79629 0.76931 0.0
H1201 H 0.07009 0.85678 0.84277 0.0
H1202 H 0.1214 0.72299 0.80055 0.0
H1203 H 0.17817 0.74495 0.79027 0.0
H1204 H 0.1226 0.74538 0.76804 0.0
H1205 H 0.1095 0.79639 0.89033 0.0
H1206 H 0.10691 0.84098 0.88499 0.0
H1207 H 0.16617 0.81866 0.88032 0.0
loop_
_geom_bond_atom_site_label_1
_geom_bond_atom_site_label_2
_geom_bond_distance
_geom_bond_site_symmetry_2
_ccdc_geom_bond_type
C0 N1 1.317 . S
C0 N2 1.348 . S
C0 C3 1.485 . S
N1 C0 1.317 . S
N1 N5 1.370 . S
N2 C0 1.348 . S
N2 C4 1.346 . S
C3 C0 1.485 . S
C3 H7 0.960 . S
C3 H8 0.961 . S
C3 H9 0.960 . S
C4 N2 1.346 . S
C4 N5 1.307 . S
C4 C6 1.486 . S
N5 N1 1.370 . S
N5 C4 1.307 . S
C6 C4 1.486 . S
C6 H10 0.960 . S
C6 H11 0.960 . S
C6 H12 0.959 . S
H7 C3 0.960 . S
H8 C3 0.961 . S
H9 C3 0.960 . S
H10 C6 0.960 . S
H11 C6 0.960 . S
H12 C6 0.959 . S
C13 N14 1.317 . S
C13 N15 1.348 . S
C13 C16 1.485 . S
N14 C13 1.317 . S
N14 N18 1.370 . S
N15 C13 1.348 . S
N15 C17 1.346 . S
C16 C13 1.485 . S
C16 H20 0.960 . S
C16 H21 0.961 . S
C16 H22 0.960 . S
C17 N15 1.346 . S
C17 N18 1.307 . S
C17 C19 1.486 . S
N18 N14 1.370 . S
N18 C17 1.307 . S
C19 C17 1.486 . S
C19 H23 0.960 . S
C19 H24 0.960 . S
C19 H25 0.959 . S
H20 C16 0.960 . S
H21 C16 0.961 . S
H22 C16 0.960 . S
H23 C19 0.960 . S
H24 C19 0.960 . S
H25 C19 0.959 . S
C26 N27 1.317 . S
C26 N28 1.348 . S
C26 C29 1.485 . S
N27 C26 1.317 . S
N27 N31 1.370 . S
N28 C26 1.348 . S
N28 C30 1.346 . S
C29 C26 1.485 . S
C29 H33 0.960 . S
C29 H34 0.961 . S
C29 H35 0.960 . S
C30 N28 1.346 . S
C30 N31 1.307 . S
C30 C32 1.486 . S
N31 N27 1.370 . S
N31 C30 1.307 . S
C32 C30 1.486 . S
C32 H36 0.960 . S
C32 H37 0.960 . S
C32 H38 0.959 . S
H33 C29 0.960 . S
H34 C29 0.961 . S
H35 C29 0.960 . S
H36 C32 0.960 . S
H37 C32 0.960 . S
H38 C32 0.959 . S
C39 N40 1.317 . S
C39 N41 1.348 . S
C39 C42 1.485 . S
N40 C39 1.317 . S
N40 N44 1.370 . S
N41 C39 1.348 . S
N41 C43 1.346 . S
C42 C39 1.485 . S
C42 H46 0.960 . S
C42 H47 0.961 . S
C42 H48 0.960 . S
C43 N41 1.346 . S
C43 N44 1.307 . S
C43 C45 1.486 . S
N44 N40 1.370 . S
N44 C43 1.307 . S
C45 C43 1.486 . S
C45 H49 0.960 . S
C45 H50 0.960 . S
C45 H51 0.959 . S
H46 C42 0.960 . S
H47 C42 0.961 . S
H48 C42 0.960 . S
H49 C45 0.960 . S
H50 C45 0.960 . S
H51 C45 0.959 . S
C52 N53 1.317 . S
C52 N54 1.348 . S
C52 C55 1.485 . S
N53 C52 1.317 . S
N53 N57 1.370 . S
N54 C52 1.348 . S
N54 C56 1.346 . S
C55 C52 1.485 . S
C55 H59 0.960 . S
C55 H60 0.961 . S
C55 H61 0.960 . S
C56 N54 1.346 . S
C56 N57 1.307 . S
C56 C58 1.486 . S
N57 N53 1.370 . S
N57 C56 1.307 . S
C58 C56 1.486 . S
C58 H62 0.960 . S
C58 H63 0.960 . S
C58 H64 0.959 . S
H59 C55 0.960 . S
H60 C55 0.961 . S
H61 C55 0.960 . S
H62 C58 0.960 . S
H63 C58 0.960 . S
H64 C58 0.959 . S
C65 N66 1.317 . S
C65 N67 1.348 . S
C65 C68 1.485 . S
N66 C65 1.317 . S
N66 N70 1.370 . S
N67 C65 1.348 . S
N67 C69 1.346 . S
C68 C65 1.485 . S
C68 H72 0.960 . S
C68 H73 0.961 . S
C68 H74 0.960 . S
C69 N67 1.346 . S
C69 N70 1.307 . S
C69 C71 1.486 . S
N70 N66 1.370 . S
N70 C69 1.307 . S
C71 C69 1.486 . S
C71 H75 0.960 . S
C71 H76 0.960 . S
C71 H77 0.959 . S
H72 C68 0.960 . S
H73 C68 0.961 . S
H74 C68 0.960 . S
H75 C71 0.960 . S
H76 C71 0.960 . S
H77 C71 0.959 . S
C78 N79 1.317 . S
C78 N80 1.348 . S
C78 C81 1.485 . S
N79 C78 1.317 . S
N79 N83 1.370 . S
N80 C78 1.348 . S
N80 C82 1.346 . S
C81 C78 1.485 . S
C81 H85 0.960 . S
C81 H86 0.961 . S
C81 H87 0.960 . S
C82 N80 1.346 . S
C82 N83 1.307 . S
C82 C84 1.486 . S
N83 N79 1.370 . S
N83 C82 1.307 . S
C84 C82 1.486 . S
C84 H88 0.960 . S
C84 H89 0.960 . S
C84 H90 0.959 . S
H85 C81 0.960 . S
H86 C81 0.961 . S
H87 C81 0.960 . S
H88 C84 0.960 . S
H89 C84 0.960 . S
H90 C84 0.959 . S
C91 N92 1.317 . S
C91 N93 1.348 . S
C91 C94 1.485 . S
N92 C91 1.317 . S
N92 N96 1.370 . S
N93 C91 1.348 . S
N93 C95 1.346 . S
C94 C91 1.485 . S
C94 H98 0.960 . S
C94 H99 0.961 . S
C94 H100 0.960 . S
C95 N93 1.346 . S
C95 N96 1.307 . S
C95 C97 1.486 . S
N96 N92 1.370 . S
N96 C95 1.307 . S
C97 C95 1.486 . S
C97 H101 0.960 . S
C97 H102 0.960 . S
C97 H103 0.959 . S
H98 C94 0.960 . S
H99 C94 0.961 . S
H100 C94 0.960 . S
H101 C97 0.960 . S
H102 C97 0.960 . S
H103 C97 0.959 . S
Eu104 N133 2.600 . S
Eu104 N139 2.562 . S
Eu104 O148 2.462 . S
Eu104 O149 2.373 . S
Eu104 O151 2.432 . S
Eu104 O152 2.291 1_455 S
Eu104 O156 2.325 1_455 S
Eu104 O159 2.372 . S
Eu104 C168 2.787 . S
C105 N106 1.365 . S
C105 C108 1.405 . S
C105 C112 1.448 . S
N106 C105 1.365 . S
N106 C109 1.319 . S
N106 Eu115 2.600 . S
C107 C109 1.397 . S
C107 C110 1.367 . S
C107 H127 0.931 . S
C108 C105 1.405 . S
C108 C110 1.403 . S
C108 C114 1.439 . S
C109 N106 1.319 . S
C109 C107 1.397 . S
C109 H120 0.930 . S
C110 C107 1.367 . S
C110 C108 1.403 . S
C110 H131 0.929 . S
C111 C112 1.430 . S
C111 C113 1.387 . S
C111 C117 1.404 1_545 S
C112 C105 1.448 . S
C112 C111 1.430 . S
C112 N116 1.351 . S
C113 C111 1.387 . S
C113 C114 1.374 . S
C113 H128 0.931 1_545 S
C114 C108 1.439 . S
C114 C113 1.374 . S
C114 H129 0.931 . S
Eu115 N106 2.600 . S
Eu115 N116 2.562 . S
Eu115 O150 2.335 1_655 S
Eu115 O153 2.372 . S
Eu115 O154 2.462 . S
Eu115 O155 2.373 . S
Eu115 O157 2.432 . S
Eu115 O158 2.291 1_655 S
Eu115 C179 2.787 . S
N116 C112 1.351 . S
N116 Eu115 2.562 . S
N116 C118 1.325 . S
C117 C111 1.404 1_565 S
C117 C119 1.366 . S
C117 H125 0.930 . S
C118 N116 1.325 . S
C118 C119 1.416 1_545 S
C118 H124 0.929 . S
C119 C117 1.366 . S
C119 C118 1.416 1_565 S
C119 H121 0.930 . S
H120 C109 0.930 . S
H121 C119 0.930 . S
H122 C137 0.930 . S
H123 C144 0.930 . S
H124 C118 0.929 . S
H125 C117 0.930 . S
H126 C140 0.929 . S
H127 C107 0.931 . S
H128 C113 0.931 1_565 S
H129 C114 0.931 . S
H130 C135 0.931 . S
H131 C110 0.929 . S
H132 C143 0.930 . S
N133 Eu104 2.600 . S
N133 C134 1.365 . S
N133 C137 1.319 . S
C134 N133 1.365 . S
C134 C136 1.405 . S
C134 C142 1.448 . S
C135 H130 0.931 . S
C135 C137 1.397 . S
C135 C138 1.367 . S
C136 C134 1.405 . S
C136 C138 1.403 . S
C136 C169 1.439 . S
C137 H122 0.930 . S
C137 N133 1.319 . S
C137 C135 1.397 . S
C138 C135 1.367 . S
C138 C136 1.403 . S
C138 H145 0.929 . S
N139 Eu104 2.562 . S
N139 C140 1.325 . S
N139 C142 1.351 . S
C140 H126 0.929 . S
C140 N139 1.325 . S
C140 C144 1.416 . S
C141 C142 1.430 . S
C141 C143 1.404 . S
C141 C170 1.387 . S
C142 C134 1.448 . S
C142 N139 1.351 . S
C142 C141 1.430 . S
C143 H132 0.930 . S
C143 C141 1.404 . S
C143 C144 1.366 . S
C144 H123 0.930 . S
C144 C140 1.416 . S
C144 C143 1.366 . S
H145 C138 0.929 . S
H146 C169 0.931 . S
H147 C170 0.931 . S
O148 Eu104 2.462 . S
O148 C168 1.252 . S
O149 Eu104 2.373 . S
O149 C160 1.249 . S
O150 Eu115 2.335 1_455 S
O150 C160 1.264 . S
O151 Eu104 2.432 . S
O151 C168 1.268 . S
O152 Eu104 2.291 1_655 S
O152 C167 1.255 . S
O153 Eu115 2.372 . S
O153 C167 1.257 . S
O154 Eu115 2.462 . S
O154 C179 1.252 . S
O155 Eu115 2.373 . S
O155 C171 1.249 . S
O156 Eu104 2.325 1_655 S
O156 C171 1.276 . S
O157 Eu115 2.432 . S
O157 C179 1.268 . S
O158 Eu115 2.291 1_455 S
O158 C178 1.255 . S
O159 Eu104 2.372 . S
O159 C178 1.257 . S
C160 O149 1.249 . S
C160 O150 1.264 . S
C161 C164 1.382 . S
C161 C166 1.390 . S
C161 C168 1.506 . S
C162 C163 1.398 . S
C162 C166 1.392 . S
C163 C162 1.398 . S
C163 C165 1.372 . S
C163 H180 0.931 . S
C164 C161 1.382 . S
C164 C165 1.390 . S
C164 H181 0.931 . S
C165 C163 1.372 . S
C165 C164 1.390 . S
C165 H182 0.929 . S
C166 C161 1.390 . S
C166 C162 1.392 . S
C166 H183 0.930 . S
C167 O152 1.255 . S
C167 O153 1.257 . S
C168 Eu104 2.787 . S
C168 O148 1.252 . S
C168 O151 1.268 . S
C168 C161 1.506 . S
C169 C136 1.439 . S
C169 H146 0.931 . S
C169 C170 1.374 . S
C170 C141 1.387 . S
C170 H147 0.931 . S
C170 C169 1.374 . S
C171 O155 1.249 . S
C171 O156 1.276 . S
C172 C175 1.382 . S
C172 C176 1.390 . S
C172 C179 1.506 . S
C173 C174 1.398 . S
C173 C176 1.392 . S
C174 C173 1.398 . S
C174 C177 1.372 . S
C174 H184 0.931 . S
C175 C172 1.382 . S
C175 C177 1.390 . S
C175 H185 0.931 . S
C176 C172 1.390 . S
C176 C173 1.392 . S
C176 H186 0.930 . S
C177 C174 1.372 . S
C177 C175 1.390 . S
C177 H187 0.929 . S
C178 O158 1.255 . S
C178 O159 1.257 . S
C179 Eu115 2.787 . S
C179 O154 1.252 . S
C179 O157 1.268 . S
C179 C172 1.506 . S
H180 C163 0.931 . S
H181 C164 0.931 . S
H182 C165 0.929 . S
H183 C166 0.930 . S
H184 C174 0.931 . S
H185 C175 0.931 . S
H186 C176 0.930 . S
H187 C177 0.929 . S
Eu188 N217 2.600 . S
Eu188 N223 2.562 . S
Eu188 O232 2.462 . S
Eu188 O233 2.373 . S
Eu188 O235 2.432 . S
Eu188 O236 2.291 . S
Eu188 O240 2.335 . S
Eu188 O243 2.372 . S
Eu188 C252 2.787 . S
C189 N190 1.365 . S
C189 C192 1.405 . S
C189 C196 1.448 . S
N190 C189 1.365 . S
N190 C193 1.319 . S
N190 Eu199 2.600 . S
C191 C193 1.397 . S
C191 C194 1.367 . S
C191 H211 0.931 . S
C192 C189 1.405 . S
C192 C194 1.403 . S
C192 C198 1.439 . S
C193 N190 1.319 . S
C193 C191 1.397 . S
C193 H204 0.930 . S
C194 C191 1.367 . S
C194 C192 1.403 . S
C194 H215 0.929 . S
C195 C196 1.430 . S
C195 C197 1.387 . S
C195 C201 1.404 . S
C196 C189 1.448 . S
C196 C195 1.430 . S
C196 N200 1.351 . S
C197 C195 1.387 . S
C197 C198 1.374 . S
C197 H212 0.931 . S
C198 C192 1.439 . S
C198 C197 1.374 . S
C198 H213 0.931 . S
Eu199 N190 2.600 . S
Eu199 N200 2.562 . S
Eu199 O234 2.335 . S
Eu199 O237 2.372 . S
Eu199 O238 2.462 . S
Eu199 O239 2.373 . S
Eu199 O241 2.432 . S
Eu199 O242 2.291 . S
Eu199 C263 2.787 . S
N200 C196 1.351 . S
N200 Eu199 2.562 . S
N200 C202 1.325 . S
C201 C195 1.404 . S
C201 C203 1.366 . S
C201 H209 0.930 . S
C202 N200 1.325 . S
C202 C203 1.416 . S
C202 H208 0.929 . S
C203 C201 1.366 . S
C203 C202 1.416 . S
C203 H205 0.930 . S
H204 C193 0.930 . S
H205 C203 0.930 . S
H206 C221 0.930 . S
H207 C228 0.930 . S
H208 C202 0.929 . S
H209 C201 0.930 . S
H210 C224 0.929 . S
H211 C191 0.931 . S
H212 C197 0.931 . S
H213 C198 0.931 . S
H214 C219 0.931 . S
H215 C194 0.929 . S
H216 C227 0.930 . S
N217 Eu188 2.600 . S
N217 C218 1.365 . S
N217 C221 1.319 . S
C218 N217 1.365 . S
C218 C220 1.405 . S
C218 C226 1.448 . S
C219 H214 0.931 . S
C219 C221 1.397 . S
C219 C222 1.367 . S
C220 C218 1.405 . S
C220 C222 1.403 . S
C220 C253 1.439 . S
C221 H206 0.930 . S
C221 N217 1.319 . S
C221 C219 1.397 . S
C222 C219 1.367 . S
C222 C220 1.403 . S
C222 H229 0.929 . S
N223 Eu188 2.562 . S
N223 C224 1.325 . S
N223 C226 1.351 . S
C224 H210 0.929 . S
C224 N223 1.325 . S
C224 C228 1.416 . S
C225 C226 1.430 . S
C225 C227 1.404 . S
C225 C254 1.387 . S
C226 C218 1.448 . S
C226 N223 1.351 . S
C226 C225 1.430 . S
C227 H216 0.930 . S
C227 C225 1.404 . S
C227 C228 1.366 . S
C228 H207 0.930 . S
C228 C224 1.416 . S
C228 C227 1.366 . S
H229 C222 0.929 . S
H230 C253 0.931 . S
H231 C254 0.931 . S
O232 Eu188 2.462 . S
O232 C252 1.252 . S
O233 Eu188 2.373 . S
O233 C244 1.249 . S
O234 Eu199 2.335 . S
O234 C244 1.264 . S
O235 Eu188 2.432 . S
O235 C252 1.268 . S
O236 Eu188 2.291 . S
O236 C251 1.255 . S
O237 Eu199 2.372 . S
O237 C251 1.257 . S
O238 Eu199 2.462 . S
O238 C263 1.252 . S
O239 Eu199 2.373 . S
O239 C255 1.249 . S
O240 Eu188 2.335 . S
O240 C255 1.264 . S
O241 Eu199 2.432 . S
O241 C263 1.268 . S
O242 Eu199 2.291 . S
O242 C262 1.255 . S
O243 Eu188 2.372 . S
O243 C262 1.257 . S
C244 O233 1.249 . S
C244 O234 1.264 . S
C245 C248 1.382 . S
C245 C250 1.390 . S
C245 C252 1.506 . S
C246 C247 1.398 . S
C246 C250 1.392 . S
C247 C246 1.398 . S
C247 C249 1.372 . S
C247 H264 0.931 . S
C248 C245 1.382 . S
C248 C249 1.390 . S
C248 H265 0.931 . S
C249 C247 1.372 . S
C249 C248 1.390 . S
C249 H266 0.929 . S
C250 C245 1.390 . S
C250 C246 1.392 . S
C250 H267 0.930 . S
C251 O236 1.255 . S
C251 O237 1.257 . S
C252 Eu188 2.787 . S
C252 O232 1.252 . S
C252 O235 1.268 . S
C252 C245 1.506 . S
C253 C220 1.439 . S
C253 H230 0.931 . S
C253 C254 1.374 . S
C254 C225 1.387 . S
C254 H231 0.931 . S
C254 C253 1.374 . S
C255 O239 1.249 . S
C255 O240 1.264 . S
C256 C259 1.382 . S
C256 C260 1.390 . S
C256 C263 1.506 . S
C257 C258 1.398 . S
C257 C260 1.392 . S
C258 C257 1.398 . S
C258 C261 1.372 . S
C258 H268 0.931 . S
C259 C256 1.382 . S
C259 C261 1.390 . S
C259 H269 0.931 . S
C260 C256 1.390 . S
C260 C257 1.392 . S
C260 H270 0.930 . S
C261 C258 1.372 . S
C261 C259 1.390 . S
C261 H271 0.929 . S
C262 O242 1.255 . S
C262 O243 1.257 . S
C263 Eu199 2.787 . S
C263 O238 1.252 . S
C263 O241 1.268 . S
C263 C256 1.506 . S
H264 C247 0.931 . S
H265 C248 0.931 . S
H266 C249 0.929 . S
H267 C250 0.930 . S
H268 C258 0.931 . S
H269 C259 0.931 . S
H270 C260 0.930 . S
H271 C261 0.929 . S
Eu272 N301 2.600 . S
Eu272 N307 2.562 . S
Eu272 O316 2.462 . S
Eu272 O317 2.373 . S
Eu272 O319 2.432 . S
Eu272 O320 2.307 . S
Eu272 O324 2.335 . S
Eu272 O327 2.372 . S
Eu272 C336 2.787 . S
C273 N274 1.365 . S
C273 C276 1.405 . S
C273 C280 1.448 . S
N274 C273 1.365 . S
N274 C277 1.319 . S
N274 Eu283 2.600 . S
C275 C277 1.397 . S
C275 C278 1.367 . S
C275 H295 0.931 . S
C276 C273 1.405 . S
C276 C278 1.403 . S
C276 C282 1.439 . S
C277 N274 1.319 . S
C277 C275 1.397 . S
C277 H288 0.930 . S
C278 C275 1.367 . S
C278 C276 1.403 . S
C278 H299 0.929 . S
C279 C280 1.430 . S
C279 C281 1.387 . S
C279 C285 1.404 . S
C280 C273 1.448 . S
C280 C279 1.430 . S
C280 N284 1.351 . S
C281 C279 1.387 . S
C281 C282 1.374 . S
C281 H296 0.931 . S
C282 C276 1.439 . S
C282 C281 1.374 . S
C282 H297 0.931 . S
Eu283 N274 2.600 . S
Eu283 N284 2.562 . S
Eu283 O318 2.335 1_655 S
Eu283 O321 2.372 . S
Eu283 O322 2.462 . S
Eu283 O323 2.373 . S
Eu283 O325 2.432 . S
Eu283 O326 2.291 1_655 S
Eu283 C347 2.787 . S
N284 C280 1.351 . S
N284 Eu283 2.562 . S
N284 C286 1.325 . S
C285 C279 1.404 . S
C285 C287 1.366 . S
C285 H293 0.930 . S
C286 N284 1.325 . S
C286 C287 1.416 . S
C286 H292 0.929 . S
C287 C285 1.366 . S
C287 C286 1.416 . S
C287 H289 0.930 . S
H288 C277 0.930 . S
H289 C287 0.930 . S
H290 C305 0.930 . S
H291 C312 0.930 . S
H292 C286 0.929 . S
H293 C285 0.930 . S
H294 C308 0.929 . S
H295 C275 0.931 . S
H296 C281 0.931 . S
H297 C282 0.931 . S
H298 C303 0.931 . S
H299 C278 0.929 . S
H300 C311 0.930 . S
N301 Eu272 2.600 . S
N301 C302 1.365 . S
N301 C305 1.319 . S
C302 N301 1.365 . S
C302 C304 1.405 . S
C302 C310 1.448 . S
C303 H298 0.931 . S
C303 C305 1.397 . S
C303 C306 1.367 . S
C304 C302 1.405 . S
C304 C306 1.403 . S
C304 C337 1.439 . S
C305 H290 0.930 . S
C305 N301 1.319 . S
C305 C303 1.397 . S
C306 C303 1.367 . S
C306 C304 1.403 . S
C306 H313 0.929 . S
N307 Eu272 2.562 . S
N307 C308 1.325 . S
N307 C310 1.351 . S
C308 H294 0.929 . S
C308 N307 1.325 . S
C308 C312 1.416 1_565 S
C309 C310 1.430 . S
C309 C311 1.404 1_565 S
C309 C338 1.387 . S
C310 C302 1.448 . S
C310 N307 1.351 . S
C310 C309 1.430 . S
C311 H300 0.930 . S
C311 C309 1.404 1_545 S
C311 C312 1.366 . S
C312 H291 0.930 . S
C312 C308 1.416 1_545 S
C312 C311 1.366 . S
H313 C306 0.929 . S
H314 C337 0.931 . S
H315 C338 0.931 1_545 S
O316 Eu272 2.462 . S
O316 C336 1.252 . S
O317 Eu272 2.373 . S
O317 C328 1.249 . S
O318 Eu283 2.335 1_455 S
O318 C328 1.264 . S
O319 Eu272 2.432 . S
O319 C336 1.268 . S
O320 Eu272 2.307 . S
O320 C335 1.237 1_455 S
O321 Eu283 2.372 . S
O321 C335 1.257 . S
O322 Eu283 2.462 . S
O322 C347 1.252 . S
O323 Eu283 2.373 . S
O323 C339 1.249 . S
O324 Eu272 2.335 . S
O324 C339 1.264 1_455 S
O325 Eu283 2.432 . S
O325 C347 1.268 . S
O326 Eu283 2.291 1_455 S
O326 C346 1.255 . S
O327 Eu272 2.372 . S
O327 C346 1.257 . S
C328 O317 1.249 . S
C328 O318 1.264 . S
C329 C332 1.382 . S
C329 C334 1.390 . S
C329 C336 1.506 . S
C330 C331 1.398 . S
C330 C334 1.392 . S
C331 C330 1.398 . S
C331 C333 1.372 . S
C331 H348 0.931 . S
C332 C329 1.382 . S
C332 C333 1.390 . S
C332 H349 0.931 . S
C333 C331 1.372 . S
C333 C332 1.390 . S
C333 H350 0.929 . S
C334 C329 1.390 . S
C334 C330 1.392 . S
C334 H351 0.930 . S
C335 O320 1.237 1_655 S
C335 O321 1.257 . S
C336 Eu272 2.787 . S
C336 O316 1.252 . S
C336 O319 1.268 . S
C336 C329 1.506 . S
C337 C304 1.439 . S
C337 H314 0.931 . S
C337 C338 1.374 . S
C338 C309 1.387 . S
C338 H315 0.931 1_565 S
C338 C337 1.374 . S
C339 O323 1.249 . S
C339 O324 1.264 1_655 S
C340 C343 1.382 . S
C340 C344 1.390 . S
C340 C347 1.506 . S
C341 C342 1.398 . S
C341 C344 1.392 . S
C342 C341 1.398 . S
C342 C345 1.372 . S
C342 H352 0.931 . S
C343 C340 1.382 . S
C343 C345 1.390 . S
C343 H353 0.931 . S
C344 C340 1.390 . S
C344 C341 1.392 . S
C344 H354 0.930 . S
C345 C342 1.372 . S
C345 C343 1.390 . S
C345 H355 0.929 . S
C346 O326 1.255 . S
C346 O327 1.257 . S
C347 Eu283 2.787 . S
C347 O322 1.252 . S
C347 O325 1.268 . S
C347 C340 1.506 . S
H348 C331 0.931 . S
H349 C332 0.931 . S
H350 C333 0.929 . S
H351 C334 0.930 . S
H352 C342 0.931 . S
H353 C343 0.931 . S
H354 C344 0.930 . S
H355 C345 0.929 . S
Eu356 N385 2.600 . S
Eu356 N391 2.562 . S
Eu356 O400 2.462 . S
Eu356 O401 2.373 . S
Eu356 O403 2.432 . S
Eu356 O404 2.291 . S
Eu356 O408 2.335 . S
Eu356 O411 2.372 . S
Eu356 C420 2.787 . S
C357 N358 1.365 . S
C357 C360 1.405 . S
C357 C364 1.448 . S
N358 C357 1.365 . S
N358 C361 1.319 . S
N358 Eu367 2.600 . S
C359 C361 1.397 . S
C359 C362 1.367 . S
C359 H379 0.931 . S
C360 C357 1.405 . S
C360 C362 1.403 . S
C360 C366 1.439 . S
C361 N358 1.319 . S
C361 C359 1.397 . S
C361 H372 0.930 . S
C362 C359 1.367 . S
C362 C360 1.403 . S
C362 H383 0.929 . S
C363 C364 1.430 . S
C363 C365 1.387 . S
C363 C369 1.404 . S
C364 C357 1.448 . S
C364 C363 1.430 . S
C364 N368 1.351 . S
C365 C363 1.387 . S
C365 C366 1.374 . S
C365 H380 0.931 . S
C366 C360 1.439 . S
C366 C365 1.374 . S
C366 H381 0.931 . S
Eu367 N358 2.600 . S
Eu367 N368 2.562 . S
Eu367 O402 2.335 . S
Eu367 O405 2.372 . S
Eu367 O406 2.462 . S
Eu367 O407 2.373 . S
Eu367 O409 2.432 . S
Eu367 O410 2.291 . S
Eu367 C431 2.787 . S
N368 C364 1.351 . S
N368 Eu367 2.562 . S
N368 C370 1.325 . S
C369 C363 1.404 . S
C369 C371 1.366 . S
C369 H377 0.930 . S
C370 N368 1.325 . S
C370 C371 1.416 . S
C370 H376 0.929 . S
C371 C369 1.366 . S
C371 C370 1.416 . S
C371 H373 0.930 . S
H372 C361 0.930 . S
H373 C371 0.930 . S
H374 C389 0.930 . S
H375 C396 0.930 . S
H376 C370 0.929 . S
H377 C369 0.930 . S
H378 C392 0.929 . S
H379 C359 0.931 . S
H380 C365 0.931 . S
H381 C366 0.931 . S
H382 C387 0.931 . S
H383 C362 0.929 . S
H384 C395 0.930 . S
N385 Eu356 2.600 . S
N385 C386 1.365 . S
N385 C389 1.319 . S
C386 N385 1.365 . S
C386 C388 1.405 . S
C386 C394 1.448 . S
C387 H382 0.931 . S
C387 C389 1.397 . S
C387 C390 1.367 . S
C388 C386 1.405 . S
C388 C390 1.403 . S
C388 C421 1.439 . S
C389 H374 0.930 . S
C389 N385 1.319 . S
C389 C387 1.397 . S
C390 C387 1.367 . S
C390 C388 1.403 . S
C390 H397 0.929 . S
N391 Eu356 2.562 . S
N391 C392 1.325 . S
N391 C394 1.351 . S
C392 H378 0.929 . S
C392 N391 1.325 . S
C392 C396 1.416 . S
C393 C394 1.430 . S
C393 C395 1.404 . S
C393 C422 1.387 . S
C394 C386 1.448 . S
C394 N391 1.351 . S
C394 C393 1.430 . S
C395 H384 0.930 . S
C395 C393 1.404 . S
C395 C396 1.366 . S
C396 H375 0.930 . S
C396 C392 1.416 . S
C396 C395 1.366 . S
H397 C390 0.929 . S
H398 C421 0.931 . S
H399 C422 0.931 . S
O400 Eu356 2.462 . S
O400 C420 1.252 . S
O401 Eu356 2.373 . S
O401 C412 1.249 . S
O402 Eu367 2.335 . S
O402 C412 1.264 . S
O403 Eu356 2.432 . S
O403 C420 1.268 . S
O404 Eu356 2.291 . S
O404 C419 1.255 . S
O405 Eu367 2.372 . S
O405 C419 1.257 . S
O406 Eu367 2.462 . S
O406 C431 1.252 . S
O407 Eu367 2.373 . S
O407 C423 1.249 . S
O408 Eu356 2.335 . S
O408 C423 1.264 . S
O409 Eu367 2.432 . S
O409 C431 1.268 . S
O410 Eu367 2.291 . S
O410 C430 1.255 . S
O411 Eu356 2.372 . S
O411 C430 1.257 . S
C412 O401 1.249 . S
C412 O402 1.264 . S
C413 C416 1.382 . S
C413 C418 1.390 . S
C413 C420 1.506 . S
C414 C415 1.398 . S
C414 C418 1.392 . S
C415 C414 1.398 . S
C415 C417 1.372 . S
C415 H432 0.931 . S
C416 C413 1.382 . S
C416 C417 1.390 . S
C416 H433 0.931 . S
C417 C415 1.372 . S
C417 C416 1.390 . S
C417 H434 0.929 . S
C418 C413 1.390 . S
C418 C414 1.392 . S
C418 H435 0.930 . S
C419 O404 1.255 . S
C419 O405 1.257 . S
C420 Eu356 2.787 . S
C420 O400 1.252 . S
C420 O403 1.268 . S
C420 C413 1.506 . S
C421 C388 1.439 . S
C421 H398 0.931 . S
C421 C422 1.374 . S
C422 C393 1.387 . S
C422 H399 0.931 . S
C422 C421 1.374 . S
C423 O407 1.249 . S
C423 O408 1.264 . S
C424 C427 1.382 . S
C424 C428 1.390 . S
C424 C431 1.506 . S
C425 C426 1.398 . S
C425 C428 1.392 . S
C426 C425 1.398 . S
C426 C429 1.372 . S
C426 H436 0.931 . S
C427 C424 1.382 . S
C427 C429 1.390 . S
C427 H437 0.931 . S
C428 C424 1.390 . S
C428 C425 1.392 . S
C428 H438 0.930 . S
C429 C426 1.372 . S
C429 C427 1.390 . S
C429 H439 0.929 . S
C430 O410 1.255 . S
C430 O411 1.257 . S
C431 Eu367 2.787 . S
C431 O406 1.252 . S
C431 O409 1.268 . S
C431 C424 1.506 . S
H432 C415 0.931 . S
H433 C416 0.931 . S
H434 C417 0.929 . S
H435 C418 0.930 . S
H436 C426 0.931 . S
H437 C427 0.931 . S
H438 C428 0.930 . S
H439 C429 0.929 . S
C440 C441 1.391 . S
C440 C442 1.394 . S
C440 H456 0.931 . S
C441 C440 1.391 . S
C441 C445 1.376 . S
C442 C440 1.394 . S
C442 C443 1.369 . S
C442 C446 1.531 . S
C443 C442 1.369 . S
C443 C444 1.410 . S
C443 C451 1.503 . S
C444 C443 1.410 . S
C444 C445 1.392 . S
C444 C447 1.511 . S
C445 C441 1.376 . S
C445 C444 1.392 . S
C445 H457 0.929 . S
C446 C442 1.531 . S
C446 H458 0.960 1_565 S
C446 H459 0.962 . S
C446 H460 0.960 . S
C447 C444 1.511 . S
C447 H461 0.961 . S
C447 H462 0.961 . S
C447 H463 0.961 . S
C448 C449 1.370 . S
C448 C450 1.363 1_545 S
C448 H464 0.931 . S
C449 C448 1.370 . S
C449 C453 1.408 . S
C450 C448 1.363 1_565 S
C450 C451 1.370 . S
C450 C454 1.524 . S
C451 C443 1.503 . S
C451 C450 1.370 . S
C451 C452 1.403 1_565 S
C452 C451 1.403 1_545 S
C452 C453 1.404 . S
C452 C455 1.539 . S
C453 C449 1.408 . S
C453 C452 1.404 . S
C453 H465 0.930 . S
C454 C450 1.524 . S
C454 H466 0.956 . S
C454 H467 0.961 . S
C454 H468 0.961 . S
C455 C452 1.539 . S
C455 H469 0.958 . S
C455 H470 0.961 . S
C455 H471 0.960 1_545 S
H456 C440 0.931 . S
H457 C445 0.929 . S
H458 C446 0.960 1_545 S
H459 C446 0.962 . S
H460 C446 0.960 . S
H461 C447 0.961 . S
H462 C447 0.961 . S
H463 C447 0.961 . S
H464 C448 0.931 . S
H465 C453 0.930 . S
H466 C454 0.956 . S
H467 C454 0.961 . S
H468 C454 0.961 . S
H469 C455 0.958 . S
H470 C455 0.961 . S
H471 C455 0.960 1_565 S
C472 C473 1.391 . S
C472 C474 1.394 . S
C472 H488 0.931 . S
C473 C472 1.391 . S
C473 C477 1.376 . S
C474 C472 1.394 . S
C474 C475 1.369 . S
C474 C478 1.531 . S
C475 C474 1.369 . S
C475 C476 1.410 . S
C475 C483 1.503 . S
C476 C475 1.410 . S
C476 C477 1.392 . S
C476 C479 1.511 . S
C477 C473 1.376 . S
C477 C476 1.392 . S
C477 H489 0.929 . S
C478 C474 1.531 . S
C478 H490 0.960 . S
C478 H491 0.962 . S
C478 H492 0.960 . S
C479 C476 1.511 . S
C479 H493 0.961 . S
C479 H494 0.961 . S
C479 H495 0.961 . S
C480 C481 1.370 . S
C480 C482 1.363 . S
C480 H496 0.931 . S
C481 C480 1.370 . S
C481 C485 1.408 . S
C482 C480 1.363 . S
C482 C483 1.370 . S
C482 C486 1.524 . S
C483 C475 1.503 . S
C483 C482 1.370 . S
C483 C484 1.403 . S
C484 C483 1.403 . S
C484 C485 1.404 . S
C484 C487 1.539 . S
C485 C481 1.408 . S
C485 C484 1.404 . S
C485 H497 0.930 . S
C486 C482 1.524 . S
C486 H498 0.956 . S
C486 H499 0.961 . S
C486 H500 0.961 . S
C487 C484 1.539 . S
C487 H501 0.958 . S
C487 H502 0.961 . S
C487 H503 0.960 . S
H488 C472 0.931 . S
H489 C477 0.929 . S
H490 C478 0.960 . S
H491 C478 0.962 . S
H492 C478 0.960 . S
H493 C479 0.961 . S
H494 C479 0.961 . S
H495 C479 0.961 . S
H496 C480 0.931 . S
H497 C485 0.930 . S
H498 C486 0.956 . S
H499 C486 0.961 . S
H500 C486 0.961 . S
H501 C487 0.958 . S
H502 C487 0.961 . S
H503 C487 0.960 . S
C504 C505 1.391 . S
C504 C506 1.394 . S
C504 H520 0.931 . S
C505 C504 1.391 . S
C505 C509 1.376 . S
C506 C504 1.394 . S
C506 C507 1.369 . S
C506 C510 1.531 . S
C507 C506 1.369 . S
C507 C508 1.410 . S
C507 C515 1.503 . S
C508 C507 1.410 . S
C508 C509 1.392 . S
C508 C511 1.511 . S
C509 C505 1.376 . S
C509 C508 1.392 . S
C509 H521 0.929 . S
C510 C506 1.531 . S
C510 H522 0.960 . S
C510 H523 0.962 . S
C510 H524 0.960 . S
C511 C508 1.511 . S
C511 H525 0.961 . S
C511 H526 0.961 . S
C511 H527 0.961 . S
C512 C513 1.370 . S
C512 C514 1.363 . S
C512 H528 0.931 . S
C513 C512 1.370 . S
C513 C517 1.408 . S
C514 C512 1.363 . S
C514 C515 1.370 . S
C514 C518 1.524 . S
C515 C507 1.503 . S
C515 C514 1.370 . S
C515 C516 1.403 . S
C516 C515 1.403 . S
C516 C517 1.404 . S
C516 C519 1.539 . S
C517 C513 1.408 . S
C517 C516 1.404 . S
C517 H529 0.930 . S
C518 C514 1.524 . S
C518 H530 0.956 . S
C518 H531 0.961 . S
C518 H532 0.961 . S
C519 C516 1.539 . S
C519 H533 0.958 . S
C519 H534 0.961 . S
C519 H535 0.960 . S
H520 C504 0.931 . S
H521 C509 0.929 . S
H522 C510 0.960 . S
H523 C510 0.962 . S
H524 C510 0.960 . S
H525 C511 0.961 . S
H526 C511 0.961 . S
H527 C511 0.961 . S
H528 C512 0.931 . S
H529 C517 0.930 . S
H530 C518 0.956 . S
H531 C518 0.961 . S
H532 C518 0.961 . S
H533 C519 0.958 . S
H534 C519 0.961 . S
H535 C519 0.960 . S
C536 C537 1.391 . S
C536 C538 1.394 . S
C536 H552 0.931 . S
C537 C536 1.391 . S
C537 C541 1.376 . S
C538 C536 1.394 . S
C538 C539 1.369 . S
C538 C542 1.531 . S
C539 C538 1.369 . S
C539 C540 1.410 . S
C539 C547 1.503 . S
C540 C539 1.410 . S
C540 C541 1.392 . S
C540 C543 1.511 . S
C541 C537 1.376 . S
C541 C540 1.392 . S
C541 H553 0.929 . S
C542 C538 1.531 . S
C542 H554 0.960 1_565 S
C542 H555 0.962 . S
C542 H556 0.960 . S
C543 C540 1.511 . S
C543 H557 0.961 . S
C543 H558 0.961 . S
C543 H559 0.961 . S
C544 C545 1.370 1_565 S
C544 C546 1.363 . S
C544 H560 0.931 . S
C545 C544 1.370 1_545 S
C545 C549 1.408 . S
C546 C544 1.363 . S
C546 C547 1.370 . S
C546 C550 1.524 . S
C547 C539 1.503 . S
C547 C546 1.370 . S
C547 C548 1.403 1_565 S
C548 C547 1.403 1_545 S
C548 C549 1.404 . S
C548 C551 1.539 . S
C549 C545 1.408 . S
C549 C548 1.404 . S
C549 H561 0.930 . S
C550 C546 1.524 . S
C550 H562 0.956 . S
C550 H563 0.961 . S
C550 H564 0.961 . S
C551 C548 1.539 . S
C551 H565 0.958 . S
C551 H566 0.961 . S
C551 H567 0.960 . S
H552 C536 0.931 . S
H553 C541 0.929 . S
H554 C542 0.960 1_545 S
H555 C542 0.962 . S
H556 C542 0.960 . S
H557 C543 0.961 . S
H558 C543 0.961 . S
H559 C543 0.961 . S
H560 C544 0.931 . S
H561 C549 0.930 . S
H562 C550 0.956 . S
H563 C550 0.961 . S
H564 C550 0.961 . S
H565 C551 0.958 . S
H566 C551 0.961 . S
H567 C551 0.960 . S
C568 C569 1.391 . S
C568 C570 1.394 . S
C568 H584 0.931 . S
C569 C568 1.391 . S
C569 C573 1.376 . S
C570 C568 1.394 . S
C570 C571 1.369 . S
C570 C574 1.531 . S
C571 C570 1.369 . S
C571 C572 1.410 . S
C571 C579 1.503 . S
C572 C571 1.410 . S
C572 C573 1.392 . S
C572 C575 1.511 . S
C573 C569 1.376 . S
C573 C572 1.392 . S
C573 H585 0.929 . S
C574 C570 1.531 . S
C574 H586 0.960 1_545 S
C574 H587 0.962 1_545 S
C574 H588 0.960 . S
C575 C572 1.511 . S
C575 H589 0.961 . S
C575 H590 0.961 . S
C575 H591 0.961 . S
C576 C577 1.370 . S
C576 C578 1.363 1_565 S
C576 H592 0.931 . S
C577 C576 1.370 . S
C577 C581 1.408 . S
C578 C576 1.363 1_545 S
C578 C579 1.370 . S
C578 C582 1.524 . S
C579 C571 1.503 . S
C579 C578 1.370 . S
C579 C580 1.403 . S
C580 C579 1.403 . S
C580 C581 1.404 1_545 S
C580 C583 1.539 . S
C581 C577 1.408 . S
C581 C580 1.404 1_565 S
C581 H593 0.930 . S
C582 C578 1.524 . S
C582 H594 0.956 . S
C582 H595 0.961 . S
C582 H596 0.961 . S
C583 C580 1.539 . S
C583 H597 0.958 . S
C583 H598 0.961 1_655 S
C583 H599 0.960 . S
H584 C568 0.931 . S
H585 C573 0.929 . S
H586 C574 0.960 1_565 S
H587 C574 0.962 1_565 S
H588 C574 0.960 . S
H589 C575 0.961 . S
H590 C575 0.961 . S
H591 C575 0.961 . S
H592 C576 0.931 . S
H593 C581 0.930 . S
H594 C582 0.956 . S
H595 C582 0.961 . S
H596 C582 0.961 . S
H597 C583 0.958 . S
H598 C583 0.961 1_455 S
H599 C583 0.960 . S
C600 C601 1.391 . S
C600 C602 1.394 . S
C600 H616 0.931 . S
C601 C600 1.391 . S
C601 C605 1.376 . S
C602 C600 1.394 . S
C602 C603 1.369 . S
C602 C606 1.531 . S
C603 C602 1.369 . S
C603 C604 1.410 . S
C603 C611 1.503 . S
C604 C603 1.410 . S
C604 C605 1.392 . S
C604 C607 1.511 . S
C605 C601 1.376 . S
C605 C604 1.392 . S
C605 H617 0.929 . S
C606 C602 1.531 . S
C606 H618 0.960 . S
C606 H619 0.962 . S
C606 H620 0.960 . S
C607 C604 1.511 . S
C607 H621 0.961 . S
C607 H622 0.961 . S
C607 H623 0.961 . S
C608 C609 1.370 . S
C608 C610 1.363 . S
C608 H624 0.931 . S
C609 C608 1.370 . S
C609 C613 1.408 . S
C610 C608 1.363 . S
C610 C611 1.370 . S
C610 C614 1.524 . S
C611 C603 1.503 . S
C611 C610 1.370 . S
C611 C612 1.403 . S
C612 C611 1.403 . S
C612 C613 1.404 . S
C612 C615 1.539 . S
C613 C609 1.408 . S
C613 C612 1.404 . S
C613 H625 0.930 . S
C614 C610 1.524 . S
C614 H626 0.956 . S
C614 H627 0.961 . S
C614 H628 0.961 . S
C615 C612 1.539 . S
C615 H629 0.958 . S
C615 H630 0.961 . S
C615 H631 0.960 . S
H616 C600 0.931 . S
H617 C605 0.929 . S
H618 C606 0.960 . S
H619 C606 0.962 . S
H620 C606 0.960 . S
H621 C607 0.961 . S
H622 C607 0.961 . S
H623 C607 0.961 . S
H624 C608 0.931 . S
H625 C613 0.930 . S
H626 C614 0.956 . S
H627 C614 0.961 . S
H628 C614 0.961 . S
H629 C615 0.958 . S
H630 C615 0.961 . S
H631 C615 0.960 . S
C632 C633 1.391 . S
C632 C634 1.394 . S
C632 H648 0.931 . S
C633 C632 1.391 . S
C633 C637 1.376 . S
C634 C632 1.394 . S
C634 C635 1.369 . S
C634 C638 1.531 . S
C635 C634 1.369 . S
C635 C636 1.410 . S
C635 C643 1.503 . S
C636 C635 1.410 . S
C636 C637 1.392 . S
C636 C639 1.511 . S
C637 C633 1.376 . S
C637 C636 1.392 . S
C637 H649 0.929 . S
C638 C634 1.531 . S
C638 H650 0.960 . S
C638 H651 0.962 . S
C638 H652 0.960 . S
C639 C636 1.511 . S
C639 H653 0.961 . S
C639 H654 0.961 . S
C639 H655 0.961 . S
C640 C641 1.370 . S
C640 C642 1.363 . S
C640 H656 0.931 . S
C641 C640 1.370 . S
C641 C645 1.408 . S
C642 C640 1.363 . S
C642 C643 1.370 . S
C642 C646 1.524 . S
C643 C635 1.503 . S
C643 C642 1.370 . S
C643 C644 1.403 . S
C644 C643 1.403 . S
C644 C645 1.404 . S
C644 C647 1.539 . S
C645 C641 1.408 . S
C645 C644 1.404 . S
C645 H657 0.930 . S
C646 C642 1.524 . S
C646 H658 0.956 . S
C646 H659 0.961 . S
C646 H660 0.961 . S
C647 C644 1.539 . S
C647 H661 0.958 . S
C647 H662 0.961 . S
C647 H663 0.960 . S
H648 C632 0.931 . S
H649 C637 0.929 . S
H650 C638 0.960 . S
H651 C638 0.962 . S
H652 C638 0.960 . S
H653 C639 0.961 . S
H654 C639 0.961 . S
H655 C639 0.961 . S
H656 C640 0.931 . S
H657 C645 0.930 . S
H658 C646 0.956 . S
H659 C646 0.961 . S
H660 C646 0.961 . S
H661 C647 0.958 . S
H662 C647 0.961 . S
H663 C647 0.960 . S
C664 C665 1.391 . S
C664 C666 1.394 . S
C664 H680 0.931 . S
C665 C664 1.391 . S
C665 C669 1.376 . S
C666 C664 1.394 . S
C666 C667 1.369 . S
C666 C670 1.531 . S
C667 C666 1.369 . S
C667 C668 1.410 . S
C667 C675 1.503 . S
C668 C667 1.410 . S
C668 C669 1.392 . S
C668 C671 1.511 . S
C669 C665 1.376 . S
C669 C668 1.392 . S
C669 H681 0.929 . S
C670 C666 1.531 . S
C670 H682 0.960 1_545 S
C670 H683 0.962 . S
C670 H684 0.960 . S
C671 C668 1.511 . S
C671 H685 0.961 . S
C671 H686 0.961 . S
C671 H687 0.961 . S
C672 C673 1.344 1_545 S
C672 C674 1.385 . S
C672 H688 0.936 . S
C673 C672 1.344 1_565 S
C673 C677 1.408 . S
C674 C672 1.385 . S
C674 C675 1.370 . S
C674 C678 1.524 . S
C675 C667 1.503 . S
C675 C674 1.370 . S
C675 C676 1.403 1_545 S
C676 C675 1.403 1_565 S
C676 C677 1.404 . S
C676 C679 1.539 . S
C677 C673 1.408 . S
C677 C676 1.404 . S
C677 H689 0.930 . S
C678 C674 1.524 . S
C678 H690 0.956 . S
C678 H691 0.961 . S
C678 H692 0.961 . S
C679 C676 1.539 . S
C679 H693 0.958 . S
C679 H694 0.961 . S
C679 H695 0.960 1_565 S
H680 C664 0.931 . S
H681 C669 0.929 . S
H682 C670 0.960 1_565 S
H683 C670 0.962 . S
H684 C670 0.960 . S
H685 C671 0.961 . S
H686 C671 0.961 . S
H687 C671 0.961 . S
H688 C672 0.936 . S
H689 C677 0.930 . S
H690 C678 0.956 . S
H691 C678 0.961 . S
H692 C678 0.961 . S
H693 C679 0.958 . S
H694 C679 0.961 . S
H695 C679 0.960 1_545 S
C696 C697 1.391 . S
C696 C698 1.394 . S
C696 H712 0.931 . S
C697 C696 1.391 . S
C697 C701 1.376 . S
C698 C696 1.394 . S
C698 C699 1.369 . S
C698 C702 1.531 1_556 S
C699 C698 1.369 . S
C699 C700 1.410 . S
C699 C707 1.503 1_556 S
C700 C699 1.410 . S
C700 C701 1.392 . S
C700 C703 1.511 . S
C701 C697 1.376 . S
C701 C700 1.392 . S
C701 H713 0.929 . S
C702 C698 1.531 1_554 S
C702 H714 0.960 . S
C702 H715 0.962 . S
C702 H716 0.960 . S
C703 C700 1.511 . S
C703 H717 0.961 . S
C703 H718 0.961 . S
C703 H719 0.961 . S
C704 C705 1.370 . S
C704 C706 1.363 . S
C704 H720 0.931 . S
C705 C704 1.370 . S
C705 C709 1.408 . S
C706 C704 1.363 . S
C706 C707 1.370 . S
C706 C710 1.498 1_554 S
C707 C699 1.503 1_554 S
C707 C706 1.370 . S
C707 C708 1.403 . S
C708 C707 1.403 . S
C708 C709 1.404 . S
C708 C711 1.539 . S
C709 C705 1.408 . S
C709 C708 1.404 . S
C709 H721 0.930 . S
C710 C706 1.498 1_556 S
C710 H722 0.964 . S
C710 H723 0.988 . S
C710 H724 0.953 1_556 S
C711 C708 1.539 . S
C711 H725 0.958 . S
C711 H726 0.961 . S
C711 H727 0.960 . S
H712 C696 0.931 . S
H713 C701 0.929 . S
H714 C702 0.960 . S
H715 C702 0.962 . S
H716 C702 0.960 . S
H717 C703 0.961 . S
H718 C703 0.961 . S
H719 C703 0.961 . S
H720 C704 0.931 . S
H721 C709 0.930 . S
H722 C710 0.964 . S
H723 C710 0.988 . S
H724 C710 0.953 1_554 S
H725 C711 0.958 . S
H726 C711 0.961 . S
H727 C711 0.960 . S
C728 C729 1.391 . S
C728 C730 1.394 . S
C728 H744 0.931 . S
C729 C728 1.391 . S
C729 C733 1.376 . S
C730 C728 1.394 . S
C730 C731 1.369 . S
C730 C734 1.531 . S
C731 C730 1.369 . S
C731 C732 1.410 . S
C731 C739 1.503 . S
C732 C731 1.410 . S
C732 C733 1.392 . S
C732 C735 1.511 . S
C733 C729 1.376 . S
C733 C732 1.392 . S
C733 H745 0.929 . S
C734 C730 1.531 . S
C734 H746 0.960 . S
C734 H747 0.962 . S
C734 H748 0.960 . S
C735 C732 1.511 . S
C735 H749 0.961 . S
C735 H750 0.961 . S
C735 H751 0.961 . S
C736 C737 1.370 . S
C736 C738 1.363 . S
C736 H752 0.931 . S
C737 C736 1.370 . S
C737 C741 1.408 . S
C738 C736 1.363 . S
C738 C739 1.370 . S
C738 C742 1.524 . S
C739 C731 1.503 . S
C739 C738 1.370 . S
C739 C740 1.403 . S
C740 C739 1.403 . S
C740 C741 1.404 . S
C740 C743 1.539 . S
C741 C737 1.408 . S
C741 C740 1.404 . S
C741 H753 0.930 . S
C742 C738 1.524 . S
C742 H754 0.956 . S
C742 H755 0.961 . S
C742 H756 0.961 . S
C743 C740 1.539 . S
C743 H757 0.958 . S
C743 H758 0.961 . S
C743 H759 0.960 . S
H744 C728 0.931 . S
H745 C733 0.929 . S
H746 C734 0.960 . S
H747 C734 0.962 . S
H748 C734 0.960 . S
H749 C735 0.961 . S
H750 C735 0.961 . S
H751 C735 0.961 . S
H752 C736 0.931 . S
H753 C741 0.930 . S
H754 C742 0.956 . S
H755 C742 0.961 . S
H756 C742 0.961 . S
H757 C743 0.958 . S
H758 C743 0.961 . S
H759 C743 0.960 . S
C760 C761 1.391 . S
C760 C762 1.394 . S
C760 H776 0.931 . S
C761 C760 1.391 . S
C761 C765 1.376 . S
C762 C760 1.394 . S
C762 C763 1.369 . S
C762 C766 1.531 . S
C763 C762 1.369 . S
C763 C764 1.410 . S
C763 C771 1.503 1_554 S
C764 C763 1.410 . S
C764 C765 1.392 . S
C764 C767 1.494 1_554 S
C765 C761 1.376 . S
C765 C764 1.392 . S
C765 H777 0.929 . S
C766 C762 1.531 . S
C766 H778 0.960 . S
C766 H779 0.962 . S
C766 H780 0.960 . S
C767 C764 1.494 1_556 S
C767 H781 0.957 1_556 S
C767 H782 0.987 . S
C767 H783 0.957 1_556 S
C768 C769 1.370 . S
C768 C770 1.363 . S
C768 H784 0.931 . S
C769 C768 1.370 . S
C769 C773 1.408 . S
C770 C768 1.363 . S
C770 C771 1.370 . S
C770 C774 1.524 . S
C771 C763 1.503 1_556 S
C771 C770 1.370 . S
C771 C772 1.403 . S
C772 C771 1.403 . S
C772 C773 1.404 . S
C772 C775 1.526 1_556 S
C773 C769 1.408 . S
C773 C772 1.404 . S
C773 H785 0.930 . S
C774 C770 1.524 . S
C774 H786 0.956 . S
C774 H787 0.961 . S
C774 H788 0.961 . S
C775 C772 1.526 1_554 S
C775 H789 0.967 . S
C775 H790 0.953 1_554 S
C775 H791 0.972 . S
H776 C760 0.931 . S
H777 C765 0.929 . S
H778 C766 0.960 . S
H779 C766 0.962 . S
H780 C766 0.960 . S
H781 C767 0.957 1_554 S
H782 C767 0.987 . S
H783 C767 0.957 1_554 S
H784 C768 0.931 . S
H785 C773 0.930 . S
H786 C774 0.956 . S
H787 C774 0.961 . S
H788 C774 0.961 . S
H789 C775 0.967 . S
H790 C775 0.953 1_556 S
H791 C775 0.972 . S
C792 C793 1.391 . S
C792 C794 1.394 . S
C792 H808 0.931 . S
C793 C792 1.391 . S
C793 C797 1.376 . S
C794 C792 1.394 . S
C794 C795 1.369 . S
C794 C798 1.531 . S
C795 C794 1.369 . S
C795 C796 1.410 . S
C795 C803 1.503 . S
C796 C795 1.410 . S
C796 C797 1.392 . S
C796 C799 1.511 . S
C797 C793 1.376 . S
C797 C796 1.392 . S
C797 H809 0.929 . S
C798 C794 1.531 . S
C798 H810 0.960 . S
C798 H811 0.962 . S
C798 H812 0.960 . S
C799 C796 1.511 . S
C799 H813 0.961 . S
C799 H814 0.961 . S
C799 H815 0.961 . S
C800 C801 1.370 . S
C800 C802 1.363 . S
C800 H816 0.931 . S
C801 C800 1.370 . S
C801 C805 1.408 . S
C802 C800 1.363 . S
C802 C803 1.370 . S
C802 C806 1.524 . S
C803 C795 1.503 . S
C803 C802 1.370 . S
C803 C804 1.403 . S
C804 C803 1.403 . S
C804 C805 1.404 . S
C804 C807 1.539 . S
C805 C801 1.408 . S
C805 C804 1.404 . S
C805 H817 0.930 . S
C806 C802 1.524 . S
C806 H818 0.956 . S
C806 H819 0.961 . S
C806 H820 0.961 . S
C807 C804 1.539 . S
C807 H821 0.958 . S
C807 H822 0.961 . S
C807 H823 0.960 . S
H808 C792 0.931 . S
H809 C797 0.929 . S
H810 C798 0.960 . S
H811 C798 0.962 . S
H812 C798 0.960 . S
H813 C799 0.961 . S
H814 C799 0.961 . S
H815 C799 0.961 . S
H816 C800 0.931 . S
H817 C805 0.930 . S
H818 C806 0.956 . S
H819 C806 0.961 . S
H820 C806 0.961 . S
H821 C807 0.958 . S
H822 C807 0.961 . S
H823 C807 0.960 . S
C824 C825 1.391 . S
C824 C826 1.394 . S
C824 H840 0.931 . S
C825 C824 1.391 . S
C825 C829 1.376 . S
C826 C824 1.394 . S
C826 C827 1.369 . S
C826 C830 1.531 . S
C827 C826 1.369 . S
C827 C828 1.410 . S
C827 C835 1.503 1_554 S
C828 C827 1.410 . S
C828 C829 1.392 . S
C828 C831 1.511 . S
C829 C825 1.376 . S
C829 C828 1.392 . S
C829 H841 0.929 . S
C830 C826 1.531 . S
C830 H842 0.960 1_554 S
C830 H843 0.962 1_554 S
C830 H844 0.960 . S
C831 C828 1.511 . S
C831 H845 0.961 . S
C831 H846 0.961 1_554 S
C831 H847 0.961 . S
C832 C833 1.370 . S
C832 C834 1.363 . S
C832 H848 0.931 . S
C833 C832 1.370 . S
C833 C837 1.408 . S
C834 C832 1.363 . S
C834 C835 1.370 . S
C834 C838 1.524 . S
C835 C827 1.503 1_556 S
C835 C834 1.370 . S
C835 C836 1.403 . S
C836 C835 1.403 . S
C836 C837 1.404 . S
C836 C839 1.539 1_556 S
C837 C833 1.408 . S
C837 C836 1.404 . S
C837 H849 0.930 . S
C838 C834 1.524 . S
C838 H850 0.956 . S
C838 H851 0.961 . S
C838 H852 0.961 . S
C839 C836 1.539 1_554 S
C839 H853 0.958 . S
C839 H854 0.961 . S
C839 H855 0.960 . S
H840 C824 0.931 . S
H841 C829 0.929 . S
H842 C830 0.960 1_556 S
H843 C830 0.962 1_556 S
H844 C830 0.960 . S
H845 C831 0.961 . S
H846 C831 0.961 1_556 S
H847 C831 0.961 . S
H848 C832 0.931 . S
H849 C837 0.930 . S
H850 C838 0.956 . S
H851 C838 0.961 . S
H852 C838 0.961 . S
H853 C839 0.958 . S
H854 C839 0.961 . S
H855 C839 0.960 . S
C856 C857 1.391 . S
C856 C858 1.394 . S
C856 H872 0.931 . S
C857 C856 1.391 . S
C857 C861 1.376 . S
C858 C856 1.394 . S
C858 C859 1.369 . S
C858 C862 1.531 . S
C859 C858 1.369 . S
C859 C860 1.410 . S
C859 C867 1.503 . S
C860 C859 1.410 . S
C860 C861 1.392 . S
C860 C863 1.511 . S
C861 C857 1.376 . S
C861 C860 1.392 . S
C861 H873 0.929 . S
C862 C858 1.531 . S
C862 H874 0.960 . S
C862 H875 0.962 . S
C862 H876 0.960 . S
C863 C860 1.511 . S
C863 H877 0.961 . S
C863 H878 0.961 . S
C863 H879 0.961 . S
C864 C865 1.370 . S
C864 C866 1.363 . S
C864 H880 0.931 . S
C865 C864 1.370 . S
C865 C869 1.408 . S
C866 C864 1.363 . S
C866 C867 1.370 . S
C866 C870 1.524 . S
C867 C859 1.503 . S
C867 C866 1.370 . S
C867 C868 1.403 . S
C868 C867 1.403 . S
C868 C869 1.404 . S
C868 C871 1.539 . S
C869 C865 1.408 . S
C869 C868 1.404 . S
C869 H881 0.930 . S
C870 C866 1.524 . S
C870 H882 0.956 . S
C870 H883 0.961 . S
C870 H884 0.961 . S
C871 C868 1.539 . S
C871 H885 0.958 . S
C871 H886 0.961 . S
C871 H887 0.960 . S
H872 C856 0.931 . S
H873 C861 0.929 . S
H874 C862 0.960 . S
H875 C862 0.962 . S
H876 C862 0.960 . S
H877 C863 0.961 . S
H878 C863 0.961 . S
H879 C863 0.961 . S
H880 C864 0.931 . S
H881 C869 0.930 . S
H882 C870 0.956 . S
H883 C870 0.961 . S
H884 C870 0.961 . S
H885 C871 0.958 . S
H886 C871 0.961 . S
H887 C871 0.960 . S
C888 C889 1.391 . S
C888 C890 1.394 . S
C888 H904 0.931 . S
C889 C888 1.391 . S
C889 C893 1.376 . S
C890 C888 1.394 . S
C890 C891 1.369 . S
C890 C894 1.531 1_556 S
C891 C890 1.369 . S
C891 C892 1.410 . S
C891 C899 1.503 1_556 S
C892 C891 1.410 . S
C892 C893 1.392 . S
C892 C895 1.511 . S
C893 C889 1.376 . S
C893 C892 1.392 . S
C893 H905 0.929 . S
C894 C890 1.531 1_554 S
C894 H906 0.960 . S
C894 H907 0.962 . S
C894 H908 0.960 1_554 S
C895 C892 1.511 . S
C895 H909 0.961 . S
C895 H910 0.961 . S
C895 H911 0.961 . S
C896 C897 1.370 . S
C896 C898 1.363 . S
C896 H912 0.931 . S
C897 C896 1.370 . S
C897 C901 1.408 . S
C898 C896 1.363 . S
C898 C899 1.370 . S
C898 C902 1.524 . S
C899 C891 1.503 1_554 S
C899 C898 1.370 . S
C899 C900 1.403 . S
C900 C899 1.403 . S
C900 C901 1.404 . S
C900 C903 1.539 . S
C901 C897 1.408 . S
C901 C900 1.404 . S
C901 H913 0.930 . S
C902 C898 1.524 . S
C902 H914 0.956 . S
C902 H915 0.961 . S
C902 H916 0.961 . S
C903 C900 1.539 . S
C903 H917 0.958 . S
C903 H918 0.961 . S
C903 H919 0.960 1_554 S
H904 C888 0.931 . S
H905 C893 0.929 . S
H906 C894 0.960 . S
H907 C894 0.962 . S
H908 C894 0.960 1_556 S
H909 C895 0.961 . S
H910 C895 0.961 . S
H911 C895 0.961 . S
H912 C896 0.931 . S
H913 C901 0.930 . S
H914 C902 0.956 . S
H915 C902 0.961 . S
H916 C902 0.961 . S
H917 C903 0.958 . S
H918 C903 0.961 . S
H919 C903 0.960 1_556 S
C920 C921 1.391 . S
C920 C922 1.394 . S
C920 H936 0.931 . S
C921 C920 1.391 . S
C921 C925 1.376 . S
C922 C920 1.394 . S
C922 C923 1.369 . S
C922 C926 1.531 . S
C923 C922 1.369 . S
C923 C924 1.410 . S
C923 C931 1.503 . S
C924 C923 1.410 . S
C924 C925 1.392 . S
C924 C927 1.511 . S
C925 C921 1.376 . S
C925 C924 1.392 . S
C925 H937 0.929 . S
C926 C922 1.531 . S
C926 H938 0.960 . S
C926 H939 0.962 . S
C926 H940 0.960 . S
C927 C924 1.511 . S
C927 H941 0.961 . S
C927 H942 0.961 . S
C927 H943 0.961 . S
C928 C929 1.370 . S
C928 C930 1.363 . S
C928 H944 0.931 . S
C929 C928 1.370 . S
C929 C933 1.408 . S
C930 C928 1.363 . S
C930 C931 1.370 . S
C930 C934 1.524 . S
C931 C923 1.503 . S
C931 C930 1.370 . S
C931 C932 1.403 . S
C932 C931 1.403 . S
C932 C933 1.404 . S
C932 C935 1.539 . S
C933 C929 1.408 . S
C933 C932 1.404 . S
C933 H945 0.930 . S
C934 C930 1.524 . S
C934 H946 0.956 . S
C934 H947 0.961 . S
C934 H948 0.961 . S
C935 C932 1.539 . S
C935 H949 0.958 . S
C935 H950 0.961 . S
C935 H951 0.960 . S
H936 C920 0.931 . S
H937 C925 0.929 . S
H938 C926 0.960 . S
H939 C926 0.962 . S
H940 C926 0.960 . S
H941 C927 0.961 . S
H942 C927 0.961 . S
H943 C927 0.961 . S
H944 C928 0.931 . S
H945 C933 0.930 . S
H946 C934 0.956 . S
H947 C934 0.961 . S
H948 C934 0.961 . S
H949 C935 0.958 . S
H950 C935 0.961 . S
H951 C935 0.960 . S
C952 C953 1.391 . S
C952 C954 1.394 . S
C952 H968 0.931 . S
C953 C952 1.391 . S
C953 C957 1.376 . S
C954 C952 1.394 . S
C954 C955 1.369 . S
C954 C958 1.531 . S
C955 C954 1.369 . S
C955 C956 1.410 . S
C955 C963 1.503 . S
C956 C955 1.410 . S
C956 C957 1.392 . S
C956 C959 1.511 . S
C957 C953 1.376 . S
C957 C956 1.392 . S
C957 H969 0.929 . S
C958 C954 1.531 . S
C958 H970 0.960 . S
C958 H971 0.962 . S
C958 H972 0.960 . S
C959 C956 1.511 . S
C959 H973 0.961 . S
C959 H974 0.961 . S
C959 H975 0.961 . S
C960 C961 1.370 . S
C960 C962 1.363 . S
C960 H976 0.931 . S
C961 C960 1.370 . S
C961 C965 1.408 . S
C962 C960 1.363 . S
C962 C963 1.370 . S
C962 C966 1.524 . S
C963 C955 1.503 . S
C963 C962 1.370 . S
C963 C964 1.403 . S
C964 C963 1.403 . S
C964 C965 1.404 . S
C964 C967 1.539 . S
C965 C961 1.408 . S
C965 C964 1.404 . S
C965 H977 0.930 . S
C966 C962 1.524 . S
C966 H978 0.956 . S
C966 H979 0.961 . S
C966 H980 0.961 . S
C967 C964 1.539 . S
C967 H981 0.958 . S
C967 H982 0.961 . S
C967 H983 0.960 . S
H968 C952 0.931 . S
H969 C957 0.929 . S
H970 C958 0.960 . S
H971 C958 0.962 . S
H972 C958 0.960 . S
H973 C959 0.961 . S
H974 C959 0.961 . S
H975 C959 0.961 . S
H976 C960 0.931 . S
H977 C965 0.930 . S
H978 C966 0.956 . S
H979 C966 0.961 . S
H980 C966 0.961 . S
H981 C967 0.958 . S
H982 C967 0.961 . S
H983 C967 0.960 . S
C984 C985 1.391 . S
C984 C986 1.394 . S
C984 H1000 0.931 . S
C985 C984 1.391 . S
C985 C989 1.376 . S
C986 C984 1.394 . S
C986 C987 1.369 . S
C986 C990 1.531 . S
C987 C986 1.369 . S
C987 C988 1.410 . S
C987 C995 1.503 . S
C988 C987 1.410 . S
C988 C989 1.392 . S
C988 C991 1.511 . S
C989 C985 1.376 . S
C989 C988 1.392 . S
C989 H1001 0.929 . S
C990 C986 1.531 . S
C990 H1002 0.960 . S
C990 H1003 0.962 . S
C990 H1004 0.960 . S
C991 C988 1.511 . S
C991 H1005 0.961 . S
C991 H1006 0.961 . S
C991 H1007 0.961 . S
C992 C993 1.370 . S
C992 C994 1.363 . S
C992 H1008 0.931 . S
C993 C992 1.370 . S
C993 C997 1.408 . S
C994 C992 1.363 . S
C994 C995 1.370 . S
C994 C998 1.524 . S
C995 C987 1.503 . S
C995 C994 1.370 . S
C995 C996 1.403 . S
C996 C995 1.403 . S
C996 C997 1.404 . S
C996 C999 1.539 . S
C997 C993 1.408 . S
C997 C996 1.404 . S
C997 H1009 0.930 . S
C998 C994 1.524 . S
C998 H1010 0.956 . S
C998 H1011 0.961 . S
C998 H1012 0.961 . S
C999 C996 1.539 . S
C999 H1013 0.958 . S
C999 H1014 0.961 . S
C999 H1015 0.960 . S
H1000 C984 0.931 . S
H1001 C989 0.929 . S
H1002 C990 0.960 . S
H1003 C990 0.962 . S
H1004 C990 0.960 . S
H1005 C991 0.961 . S
H1006 C991 0.961 . S
H1007 C991 0.961 . S
H1008 C992 0.931 . S
H1009 C997 0.930 . S
H1010 C998 0.956 . S
H1011 C998 0.961 . S
H1012 C998 0.961 . S
H1013 C999 0.958 . S
H1014 C999 0.961 . S
H1015 C999 0.960 . S
C1016 C1017 1.391 . S
C1016 C1018 1.394 . S
C1016 H1032 0.931 . S
C1017 C1016 1.391 . S
C1017 C1021 1.376 . S
C1018 C1016 1.394 . S
C1018 C1019 1.369 . S
C1018 C1022 1.531 . S
C1019 C1018 1.369 . S
C1019 C1020 1.410 . S
C1019 C1027 1.503 . S
C1020 C1019 1.410 . S
C1020 C1021 1.392 . S
C1020 C1023 1.511 . S
C1021 C1017 1.376 . S
C1021 C1020 1.392 . S
C1021 H1033 0.929 . S
C1022 C1018 1.531 . S
C1022 H1034 0.960 . S
C1022 H1035 0.962 . S
C1022 H1036 0.960 . S
C1023 C1020 1.511 . S
C1023 H1037 0.961 . S
C1023 H1038 0.961 . S
C1023 H1039 0.961 . S
C1024 C1025 1.370 . S
C1024 C1026 1.363 . S
C1024 H1040 0.931 . S
C1025 C1024 1.370 . S
C1025 C1029 1.408 . S
C1026 C1024 1.363 . S
C1026 C1027 1.370 . S
C1026 C1030 1.524 . S
C1027 C1019 1.503 . S
C1027 C1026 1.370 . S
C1027 C1028 1.403 . S
C1028 C1027 1.403 . S
C1028 C1029 1.404 . S
C1028 C1031 1.539 . S
C1029 C1025 1.408 . S
C1029 C1028 1.404 . S
C1029 H1041 0.930 . S
C1030 C1026 1.524 . S
C1030 H1042 0.956 . S
C1030 H1043 0.961 . S
C1030 H1044 0.961 . S
C1031 C1028 1.539 . S
C1031 H1045 0.958 . S
C1031 H1046 0.961 . S
C1031 H1047 0.960 . S
H1032 C1016 0.931 . S
H1033 C1021 0.929 . S
H1034 C1022 0.960 . S
H1035 C1022 0.962 . S
H1036 C1022 0.960 . S
H1037 C1023 0.961 . S
H1038 C1023 0.961 . S
H1039 C1023 0.961 . S
H1040 C1024 0.931 . S
H1041 C1029 0.930 . S
H1042 C1030 0.956 . S
H1043 C1030 0.961 . S
H1044 C1030 0.961 . S
H1045 C1031 0.958 . S
H1046 C1031 0.961 . S
H1047 C1031 0.960 . S
C1048 C1049 1.391 . S
C1048 C1050 1.394 . S
C1048 H1064 0.931 . S
C1049 C1048 1.391 . S
C1049 C1053 1.376 . S
C1050 C1048 1.394 . S
C1050 C1051 1.369 . S
C1050 C1054 1.531 . S
C1051 C1050 1.369 . S
C1051 C1052 1.410 . S
C1051 C1059 1.503 . S
C1052 C1051 1.410 . S
C1052 C1053 1.392 . S
C1052 C1055 1.511 . S
C1053 C1049 1.376 . S
C1053 C1052 1.392 . S
C1053 H1065 0.929 . S
C1054 C1050 1.531 . S
C1054 H1066 0.960 . S
C1054 H1067 0.962 . S
C1054 H1068 0.960 . S
C1055 C1052 1.511 . S
C1055 H1069 0.961 . S
C1055 H1070 0.961 . S
C1055 H1071 0.961 . S
C1056 C1057 1.370 . S
C1056 C1058 1.363 . S
C1056 H1072 0.931 . S
C1057 C1056 1.370 . S
C1057 C1061 1.408 . S
C1058 C1056 1.363 . S
C1058 C1059 1.370 . S
C1058 C1062 1.524 . S
C1059 C1051 1.503 . S
C1059 C1058 1.370 . S
C1059 C1060 1.403 . S
C1060 C1059 1.403 . S
C1060 C1061 1.404 . S
C1060 C1063 1.539 . S
C1061 C1057 1.408 . S
C1061 C1060 1.404 . S
C1061 H1073 0.930 . S
C1062 C1058 1.524 . S
C1062 H1074 0.956 . S
C1062 H1075 0.961 . S
C1062 H1076 0.961 . S
C1063 C1060 1.539 . S
C1063 H1077 0.958 . S
C1063 H1078 0.961 . S
C1063 H1079 0.960 . S
H1064 C1048 0.931 . S
H1065 C1053 0.929 . S
H1066 C1054 0.960 . S
H1067 C1054 0.962 . S
H1068 C1054 0.960 . S
H1069 C1055 0.961 . S
H1070 C1055 0.961 . S
H1071 C1055 0.961 . S
H1072 C1056 0.931 . S
H1073 C1061 0.930 . S
H1074 C1062 0.956 . S
H1075 C1062 0.961 . S
H1076 C1062 0.961 . S
H1077 C1063 0.958 . S
H1078 C1063 0.961 . S
H1079 C1063 0.960 . S
C1080 C1081 1.391 . S
C1080 C1082 1.394 . S
C1080 H1096 0.931 . S
C1081 C1080 1.391 . S
C1081 C1085 1.376 . S
C1082 C1080 1.394 . S
C1082 C1083 1.369 . S
C1082 C1086 1.531 . S
C1083 C1082 1.369 . S
C1083 C1084 1.410 . S
C1083 C1091 1.503 . S
C1084 C1083 1.410 . S
C1084 C1085 1.392 . S
C1084 C1087 1.511 . S
C1085 C1081 1.376 . S
C1085 C1084 1.392 . S
C1085 H1097 0.929 . S
C1086 C1082 1.531 . S
C1086 H1098 0.960 . S
C1086 H1099 0.962 . S
C1086 H1100 0.960 . S
C1087 C1084 1.511 . S
C1087 H1101 0.961 . S
C1087 H1102 0.961 . S
C1087 H1103 0.961 . S
C1088 C1089 1.370 . S
C1088 C1090 1.363 . S
C1088 H1104 0.931 . S
C1089 C1088 1.370 . S
C1089 C1093 1.408 . S
C1090 C1088 1.363 . S
C1090 C1091 1.370 . S
C1090 C1094 1.524 . S
C1091 C1083 1.503 . S
C1091 C1090 1.370 . S
C1091 C1092 1.403 . S
C1092 C1091 1.403 . S
C1092 C1093 1.404 . S
C1092 C1095 1.539 . S
C1093 C1089 1.408 . S
C1093 C1092 1.404 . S
C1093 H1105 0.930 . S
C1094 C1090 1.524 . S
C1094 H1106 0.956 . S
C1094 H1107 0.961 . S
C1094 H1108 0.961 . S
C1095 C1092 1.539 . S
C1095 H1109 0.958 . S
C1095 H1110 0.961 . S
C1095 H1111 0.960 . S
H1096 C1080 0.931 . S
H1097 C1085 0.929 . S
H1098 C1086 0.960 . S
H1099 C1086 0.962 . S
H1100 C1086 0.960 . S
H1101 C1087 0.961 . S
H1102 C1087 0.961 . S
H1103 C1087 0.961 . S
H1104 C1088 0.931 . S
H1105 C1093 0.930 . S
H1106 C1094 0.956 . S
H1107 C1094 0.961 . S
H1108 C1094 0.961 . S
H1109 C1095 0.958 . S
H1110 C1095 0.961 . S
H1111 C1095 0.960 . S
C1112 C1113 1.391 . S
C1112 C1114 1.394 . S
C1112 H1128 0.931 . S
C1113 C1112 1.391 . S
C1113 C1117 1.376 . S
C1114 C1112 1.394 . S
C1114 C1115 1.369 . S
C1114 C1118 1.531 . S
C1115 C1114 1.369 . S
C1115 C1116 1.410 . S
C1115 C1123 1.503 . S
C1116 C1115 1.410 . S
C1116 C1117 1.392 . S
C1116 C1119 1.511 . S
C1117 C1113 1.376 . S
C1117 C1116 1.392 . S
C1117 H1129 0.929 . S
C1118 C1114 1.531 . S
C1118 H1130 0.960 . S
C1118 H1131 0.962 . S
C1118 H1132 0.960 . S
C1119 C1116 1.511 . S
C1119 H1133 0.961 . S
C1119 H1134 0.961 . S
C1119 H1135 0.961 . S
C1120 C1121 1.370 . S
C1120 C1122 1.363 . S
C1120 H1136 0.931 . S
C1121 C1120 1.370 . S
C1121 C1125 1.408 . S
C1122 C1120 1.363 . S
C1122 C1123 1.370 . S
C1122 C1126 1.524 . S
C1123 C1115 1.503 . S
C1123 C1122 1.370 . S
C1123 C1124 1.403 . S
C1124 C1123 1.403 . S
C1124 C1125 1.404 . S
C1124 C1127 1.539 . S
C1125 C1121 1.408 . S
C1125 C1124 1.404 . S
C1125 H1137 0.930 . S
C1126 C1122 1.524 . S
C1126 H1138 0.956 . S
C1126 H1139 0.961 . S
C1126 H1140 0.961 . S
C1127 C1124 1.539 . S
C1127 H1141 0.958 . S
C1127 H1142 0.961 . S
C1127 H1143 0.960 . S
H1128 C1112 0.931 . S
H1129 C1117 0.929 . S
H1130 C1118 0.960 . S
H1131 C1118 0.962 . S
H1132 C1118 0.960 . S
H1133 C1119 0.961 . S
H1134 C1119 0.961 . S
H1135 C1119 0.961 . S
H1136 C1120 0.931 . S
H1137 C1125 0.930 . S
H1138 C1126 0.956 . S
H1139 C1126 0.961 . S
H1140 C1126 0.961 . S
H1141 C1127 0.958 . S
H1142 C1127 0.961 . S
H1143 C1127 0.960 . S
C1144 C1145 1.391 . S
C1144 C1146 1.394 . S
C1144 H1160 0.931 . S
C1145 C1144 1.391 . S
C1145 C1149 1.376 . S
C1146 C1144 1.394 . S
C1146 C1147 1.369 . S
C1146 C1150 1.531 . S
C1147 C1146 1.369 . S
C1147 C1148 1.410 . S
C1147 C1155 1.503 . S
C1148 C1147 1.410 . S
C1148 C1149 1.392 . S
C1148 C1151 1.511 . S
C1149 C1145 1.376 . S
C1149 C1148 1.392 . S
C1149 H1161 0.929 . S
C1150 C1146 1.531 . S
C1150 H1162 0.960 . S
C1150 H1163 0.962 . S
C1150 H1164 0.960 . S
C1151 C1148 1.511 . S
C1151 H1165 0.961 . S
C1151 H1166 0.961 . S
C1151 H1167 0.961 . S
C1152 C1153 1.370 . S
C1152 C1154 1.363 . S
C1152 H1168 0.931 . S
C1153 C1152 1.370 . S
C1153 C1157 1.408 . S
C1154 C1152 1.363 . S
C1154 C1155 1.370 . S
C1154 C1158 1.524 . S
C1155 C1147 1.503 . S
C1155 C1154 1.370 . S
C1155 C1156 1.403 . S
C1156 C1155 1.403 . S
C1156 C1157 1.404 . S
C1156 C1159 1.539 . S
C1157 C1153 1.408 . S
C1157 C1156 1.404 . S
C1157 H1169 0.930 . S
C1158 C1154 1.524 . S
C1158 H1170 0.956 . S
C1158 H1171 0.961 . S
C1158 H1172 0.961 . S
C1159 C1156 1.539 . S
C1159 H1173 0.958 . S
C1159 H1174 0.961 . S
C1159 H1175 0.960 . S
H1160 C1144 0.931 . S
H1161 C1149 0.929 . S
H1162 C1150 0.960 . S
H1163 C1150 0.962 . S
H1164 C1150 0.960 . S
H1165 C1151 0.961 . S
H1166 C1151 0.961 . S
H1167 C1151 0.961 . S
H1168 C1152 0.931 . S
H1169 C1157 0.930 . S
H1170 C1158 0.956 . S
H1171 C1158 0.961 . S
H1172 C1158 0.961 . S
H1173 C1159 0.958 . S
H1174 C1159 0.961 . S
H1175 C1159 0.960 . S
C1176 C1177 1.391 . S
C1176 C1178 1.394 . S
C1176 H1192 0.931 . S
C1177 C1176 1.391 . S
C1177 C1181 1.376 . S
C1178 C1176 1.394 . S
C1178 C1179 1.369 . S
C1178 C1182 1.531 . S
C1179 C1178 1.369 . S
C1179 C1180 1.410 . S
C1179 C1187 1.503 . S
C1180 C1179 1.410 . S
C1180 C1181 1.392 . S
C1180 C1183 1.511 . S
C1181 C1177 1.376 . S
C1181 C1180 1.392 . S
C1181 H1193 0.929 . S
C1182 C1178 1.531 . S
C1182 H1194 0.960 . S
C1182 H1195 0.962 . S
C1182 H1196 0.960 . S
C1183 C1180 1.511 . S
C1183 H1197 0.961 . S
C1183 H1198 0.961 . S
C1183 H1199 0.961 . S
C1184 C1185 1.370 . S
C1184 C1186 1.363 . S
C1184 H1200 0.931 . S
C1185 C1184 1.370 . S
C1185 C1189 1.408 . S
C1186 C1184 1.363 . S
C1186 C1187 1.370 . S
C1186 C1190 1.524 . S
C1187 C1179 1.503 . S
C1187 C1186 1.370 . S
C1187 C1188 1.403 . S
C1188 C1187 1.403 . S
C1188 C1189 1.404 . S
C1188 C1191 1.539 . S
C1189 C1185 1.408 . S
C1189 C1188 1.404 . S
C1189 H1201 0.930 . S
C1190 C1186 1.524 . S
C1190 H1202 0.956 . S
C1190 H1203 0.961 . S
C1190 H1204 0.961 . S
C1191 C1188 1.539 . S
C1191 H1205 0.958 . S
C1191 H1206 0.961 . S
C1191 H1207 0.960 . S
H1192 C1176 0.931 . S
H1193 C1181 0.929 . S
H1194 C1182 0.960 . S
H1195 C1182 0.962 . S
H1196 C1182 0.960 . S
H1197 C1183 0.961 . S
H1198 C1183 0.961 . S
H1199 C1183 0.961 . S
H1200 C1184 0.931 . S
H1201 C1189 0.930 . S
H1202 C1190 0.956 . S
H1203 C1190 0.961 . S
H1204 C1190 0.961 . S
H1205 C1191 0.958 . S
H1206 C1191 0.961 . S
H1207 C1191 0.960 . S
C441 N83 1.634 . S
C449 C178 1.636 . S
C481 C262 1.634 . S
C473 N96 1.628 . S
C513 C255 1.651 . S
C505 N57 1.619 . S
C537 N70 1.635 . S
C545 C171 1.648 . S
C577 C335 1.644 . S
C569 N31 1.648 . S
C609 C419 1.647 . S
C601 N44 1.656 . S
C633 N5 1.647 . S
C641 C412 1.652 . S
C665 N18 1.649 . S
C673 C328 1.651 . S
C705 C162 1.457 . S
C697 N14 1.603 . S
C737 C246 1.434 . S
C729 N1 1.615 . S
C769 C257 1.411 . S
C761 N40 1.622 . S
C801 C173 1.388 . S
C793 N27 1.616 . S
C833 C341 1.464 . S
C825 N66 1.607 . S
C857 N53 1.614 . S
C865 C425 1.453 . S
C897 C414 1.412 . S
C889 N92 1.616 . S
C921 N79 1.615 . S
C929 C330 1.385 . S
C961 C160 1.541 . S
C953 N2 1.535 . S
C993 C244 1.544 . S
C985 N15 1.546 . S
C1017 N28 1.543 . S
C1025 C251 1.525 . S
C1057 C167 1.523 . S
C1049 N41 1.543 . S
C1089 C339 1.541 . S
C1081 N54 1.529 . S
C1113 N67 1.544 . S
C1121 C423 1.543 . S
C1145 N80 1.531 . S
C1153 C430 1.521 . S
C1177 N93 1.544 . S
C1185 C346 1.522 . S
