# Generated by pormake.
# Topology pyr, (3,6)-cn, num edge types: 1
# Building blocks:
#     Node 0, Type 0, BuildingBlock: VETTIZ_charged_linker_0, # of connection points: 3
#     Node 1, Type 0, BuildingBlock: VETTIZ_charged_linker_0, # of connection points: 3
#     Node 2, Type 0, BuildingBlock: VETTIZ_charged_linker_0, # of connection points: 3
#     Node 3, Type 0, BuildingBlock: VETTIZ_charged_linker_0, # of connection points: 3
#     Node 4, Type 0, BuildingBlock: VETTIZ_charged_linker_0, # of connection points: 3
#     Node 5, Type 0, BuildingBlock: VETTIZ_charged_linker_0, # of connection points: 3
#     Node 6, Type 0, BuildingBlock: VETTIZ_charged_linker_0, # of connection points: 3
#     Node 7, Type 0, BuildingBlock: VETTIZ_charged_linker_0, # of connection points: 3
#     Node 8, Type 1, BuildingBlock: BETGAK_clean_sbu_0, # of connection points: 6
#     Node 9, Type 1, BuildingBlock: BETGAK_clean_sbu_0, # of connection points: 6
#     Node 10, Type 1, BuildingBlock: BETGAK_clean_sbu_0, # of connection points: 6
#     Node 11, Type 1, BuildingBlock: BETGAK_clean_sbu_0, # of connection points: 6
#     Edge 12, Type (0, 1), BuildingBlock: XUDNAN_clean_linker_2, # of connection points: 2
#     Edge 13, Type (0, 1), BuildingBlock: XUDNAN_clean_linker_2, # of connection points: 2
#     Edge 14, Type (0, 1), BuildingBlock: XUDNAN_clean_linker_2, # of connection points: 2
#     Edge 15, Type (0, 1), BuildingBlock: XUDNAN_clean_linker_2, # of connection points: 2
#     Edge 16, Type (0, 1), BuildingBlock: XUDNAN_clean_linker_2, # of connection points: 2
#     Edge 17, Type (0, 1), BuildingBlock: XUDNAN_clean_linker_2, # of connection points: 2
#     Edge 18, Type (0, 1), BuildingBlock: XUDNAN_clean_linker_2, # of connection points: 2
#     Edge 19, Type (0, 1), BuildingBlock: XUDNAN_clean_linker_2, # of connection points: 2
#     Edge 20, Type (0, 1), BuildingBlock: XUDNAN_clean_linker_2, # of connection points: 2
#     Edge 21, Type (0, 1), BuildingBlock: XUDNAN_clean_linker_2, # of connection points: 2
#     Edge 22, Type (0, 1), BuildingBlock: XUDNAN_clean_linker_2, # of connection points: 2
#     Edge 23, Type (0, 1), BuildingBlock: XUDNAN_clean_linker_2, # of connection points: 2
#     Edge 24, Type (0, 1), BuildingBlock: XUDNAN_clean_linker_2, # of connection points: 2
#     Edge 25, Type (0, 1), BuildingBlock: XUDNAN_clean_linker_2, # of connection points: 2
#     Edge 26, Type (0, 1), BuildingBlock: XUDNAN_clean_linker_2, # of connection points: 2
#     Edge 27, Type (0, 1), BuildingBlock: XUDNAN_clean_linker_2, # of connection points: 2
#     Edge 28, Type (0, 1), BuildingBlock: XUDNAN_clean_linker_2, # of connection points: 2
#     Edge 29, Type (0, 1), BuildingBlock: XUDNAN_clean_linker_2, # of connection points: 2
#     Edge 30, Type (0, 1), BuildingBlock: XUDNAN_clean_linker_2, # of connection points: 2
#     Edge 31, Type (0, 1), BuildingBlock: XUDNAN_clean_linker_2, # of connection points: 2
#     Edge 32, Type (0, 1), BuildingBlock: XUDNAN_clean_linker_2, # of connection points: 2
#     Edge 33, Type (0, 1), BuildingBlock: XUDNAN_clean_linker_2, # of connection points: 2
#     Edge 34, Type (0, 1), BuildingBlock: XUDNAN_clean_linker_2, # of connection points: 2
#     Edge 35, Type (0, 1), BuildingBlock: XUDNAN_clean_linker_2, # of connection points: 2
# Relax obj value: 0.097
# Max RMSD: 0.121
# Mean RMSD: 0.058
data_MOF--net-pyr--node1-BETGAK_clean_sbu_0--node2-VETTIZ_charged_linker_0--edge1-XUDNAN_clean_linker_2
_symmetry_space_group_name_H-M    P1
_symmetry_Int_Tables_number       1
_symmetry_cell_setting            triclinic
loop_
_symmetry_equiv_pos_as_xyz
'x, y, z'
_cell_length_a     45.982884
_cell_length_b     48.206641
_cell_length_c     43.219277
_cell_angle_alpha  90.105568
_cell_angle_beta   88.438068
_cell_angle_gamma 101.54333
loop_
_atom_site_label
_atom_site_type_symbol
_atom_site_fract_x
_atom_site_fract_y
_atom_site_fract_z
_atom_type_partial_charge
C0 C 0.29487 0.27839 0.34258 0.0
C1 C 0.27909 0.29765 0.35663 0.0
C2 C 0.28296 0.32516 0.34379 0.0
C3 C 0.30997 0.31082 0.29985 0.0
C4 C 0.31062 0.28569 0.31461 0.0
C5 C 0.32849 0.26796 0.29635 0.0
H6 H 0.37661 0.23185 0.15701 0.0
C7 C 0.32341 0.30996 0.26867 0.0
C8 C 0.33556 0.28551 0.2668 0.0
H9 H 0.388 0.19473 0.24558 0.0
H10 H 0.36932 0.23245 0.27179 0.0
H11 H 0.40343 0.29448 0.17629 0.0
H12 H 0.31213 0.25059 0.17396 0.0
H13 H 0.31683 0.28307 0.15379 0.0
H14 H 0.33682 0.2569 0.14063 0.0
H15 H 0.38334 0.29124 0.14104 0.0
H16 H 0.38234 0.31999 0.16774 0.0
C17 C 0.35685 0.26639 0.3144 0.0
C18 C 0.30852 0.23868 0.29029 0.0
C19 C 0.28869 0.36771 0.18449 0.0
C20 C 0.29219 0.36805 0.15201 0.0
C21 C 0.31308 0.35354 0.1384 0.0
C22 C 0.3282 0.33719 0.15651 0.0
C23 C 0.32229 0.3351 0.18856 0.0
C24 C 0.30396 0.35131 0.20222 0.0
C25 C 0.30138 0.34758 0.2368 0.0
C26 C 0.32021 0.32535 0.24141 0.0
C27 C 0.33167 0.31756 0.21293 0.0
C28 C 0.31476 0.37616 0.25236 0.0
C29 C 0.26824 0.3363 0.24565 0.0
C30 C 0.37505 0.232 0.18206 0.0
C31 C 0.38316 0.21026 0.1994 0.0
C32 C 0.38165 0.21128 0.23192 0.0
C33 C 0.3707 0.23299 0.24702 0.0
C34 C 0.36115 0.25375 0.22937 0.0
C35 C 0.36454 0.25374 0.19753 0.0
C36 C 0.35503 0.27866 0.18284 0.0
C37 C 0.34515 0.29348 0.21122 0.0
C38 C 0.34785 0.27812 0.23823 0.0
C39 C 0.38227 0.29707 0.16586 0.0
C40 C 0.32889 0.26692 0.16154 0.0
H41 H 0.29942 0.35252 0.306 0.0
H42 H 0.29376 0.25741 0.35182 0.0
H43 H 0.28722 0.24125 0.28021 0.0
H44 H 0.3188 0.22566 0.27398 0.0
H45 H 0.30334 0.22636 0.31213 0.0
H46 H 0.36075 0.28214 0.33345 0.0
H47 H 0.35538 0.24517 0.32504 0.0
H48 H 0.37717 0.27132 0.29935 0.0
H49 H 0.27313 0.37868 0.19598 0.0
H50 H 0.31718 0.35416 0.1136 0.0
H51 H 0.34319 0.32604 0.14476 0.0
H52 H 0.32744 0.3918 0.23557 0.0
H53 H 0.29715 0.38605 0.26318 0.0
H54 H 0.33091 0.37358 0.27022 0.0
H55 H 0.25939 0.31673 0.23246 0.0
H56 H 0.26436 0.33108 0.27036 0.0
H57 H 0.25467 0.35225 0.24039 0.0
H58 H 0.27319 0.34138 0.35488 0.0
C59 C 0.29824 0.33177 0.31543 0.0
C60 C 0.19684 0.88126 0.59905 0.0
C61 C 0.18811 0.9053 0.61174 0.0
C62 C 0.2047 0.91999 0.63581 0.0
C63 C 0.24023 0.88929 0.63095 0.0
C64 C 0.22309 0.87392 0.60862 0.0
C65 C 0.23754 0.85139 0.59449 0.0
H66 H 0.35648 0.78926 0.58303 0.0
C67 C 0.26783 0.87832 0.63297 0.0
C68 C 0.26643 0.85615 0.61167 0.0
H69 H 0.2752 0.76926 0.53221 0.0
H70 H 0.25616 0.80565 0.55994 0.0
H71 H 0.36324 0.85872 0.57926 0.0
H72 H 0.32698 0.79539 0.6477 0.0
H73 H 0.34471 0.82552 0.66773 0.0
H74 H 0.36627 0.80747 0.64196 0.0
H75 H 0.38564 0.8392 0.60041 0.0
H76 H 0.37609 0.87103 0.61576 0.0
C77 C 0.24268 0.85766 0.55933 0.0
C78 C 0.21767 0.82222 0.60235 0.0
C79 C 0.34808 0.92593 0.70445 0.0
C80 C 0.376 0.92063 0.71179 0.0
C81 C 0.38617 0.898 0.69733 0.0
C82 C 0.3688 0.88111 0.67549 0.0
C83 C 0.3409 0.8868 0.66829 0.0
C84 C 0.33091 0.90874 0.68297 0.0
C85 C 0.30039 0.9112 0.67346 0.0
C86 C 0.29362 0.88714 0.65051 0.0
C87 C 0.3175 0.87313 0.64726 0.0
C88 C 0.30269 0.94052 0.65779 0.0
C89 C 0.27933 0.90606 0.70244 0.0
C90 C 0.33485 0.79312 0.57729 0.0
C91 C 0.31747 0.77662 0.55505 0.0
C92 C 0.289 0.7817 0.54921 0.0
C93 C 0.27802 0.80284 0.56534 0.0
C94 C 0.29572 0.81913 0.58748 0.0
C95 C 0.32364 0.81416 0.59308 0.0
C96 C 0.33922 0.83321 0.61768 0.0
C97 C 0.31608 0.85062 0.62581 0.0
C98 C 0.29069 0.84224 0.60808 0.0
C99 C 0.36769 0.85149 0.60279 0.0
C100 C 0.34488 0.81462 0.64523 0.0
H101 H 0.24272 0.92458 0.66328 0.0
H102 H 0.18442 0.86928 0.58079 0.0
H103 H 0.20793 0.82212 0.62622 0.0
H104 H 0.23008 0.80483 0.60215 0.0
H105 H 0.19901 0.81705 0.58616 0.0
H106 H 0.24705 0.88083 0.55464 0.0
H107 H 0.22295 0.84778 0.54606 0.0
H108 H 0.26243 0.85064 0.54957 0.0
H109 H 0.33937 0.94273 0.7158 0.0
H110 H 0.40758 0.89348 0.70288 0.0
H111 H 0.3777 0.86423 0.66514 0.0
H112 H 0.3241 0.94683 0.64457 0.0
H113 H 0.30152 0.95722 0.67526 0.0
H114 H 0.2855 0.94073 0.6405 0.0
H115 H 0.28589 0.89039 0.71834 0.0
H116 H 0.25612 0.89682 0.69676 0.0
H117 H 0.27988 0.92594 0.71563 0.0
H118 H 0.19876 0.93876 0.64585 0.0
C119 C 0.23058 0.91198 0.6456 0.0
C120 C 0.64246 0.27733 0.93363 0.0
C121 C 0.61516 0.26001 0.92615 0.0
C122 C 0.59997 0.26786 0.9006 0.0
C123 C 0.63854 0.31022 0.89186 0.0
C124 C 0.6536 0.30198 0.91641 0.0
C125 C 0.68207 0.32245 0.92233 0.0
H126 H 0.77742 0.44554 0.89082 0.0
C127 C 0.65636 0.3375 0.8794 0.0
C128 C 0.68197 0.34441 0.89728 0.0
H129 H 0.78217 0.38448 0.96281 0.0
H130 H 0.73821 0.35412 0.94412 0.0
H131 H 0.70565 0.4415 0.89772 0.0
H132 H 0.7603 0.40133 0.83704 0.0
H133 H 0.73005 0.40631 0.8153 0.0
H134 H 0.75535 0.43674 0.83011 0.0
H135 H 0.73103 0.46015 0.8689 0.0
H136 H 0.69375 0.44355 0.85955 0.0
C137 C 0.67961 0.33486 0.95524 0.0
C138 C 0.70808 0.30667 0.91742 0.0
C139 C 0.61884 0.39193 0.79171 0.0
C140 C 0.63147 0.41717 0.77556 0.0
C141 C 0.66042 0.4311 0.78285 0.0
C142 C 0.67609 0.42086 0.80627 0.0
C143 C 0.66296 0.39619 0.82275 0.0
C144 C 0.6351 0.38165 0.81487 0.0
C145 C 0.62569 0.35475 0.83378 0.0
C146 C 0.65193 0.35622 0.85504 0.0
C147 C 0.67352 0.38086 0.84862 0.0
C148 C 0.59678 0.3564 0.8521 0.0
C149 C 0.62263 0.32925 0.81152 0.0
C150 C 0.76893 0.42568 0.90269 0.0
C151 C 0.78349 0.41762 0.92855 0.0
C152 C 0.77183 0.39125 0.94271 0.0
C153 C 0.746 0.37368 0.93194 0.0
C154 C 0.73129 0.38241 0.90669 0.0
C155 C 0.743 0.40788 0.89227 0.0
C156 C 0.72438 0.41365 0.86572 0.0
C157 C 0.69925 0.38769 0.867 0.0
C158 C 0.70343 0.36954 0.8911 0.0
C159 C 0.71313 0.44122 0.87303 0.0
C160 C 0.74338 0.41481 0.83539 0.0
H161 H 0.59858 0.29792 0.86475 0.0
H162 H 0.65505 0.27186 0.95272 0.0
H163 H 0.70337 0.29085 0.8985 0.0
H164 H 0.72907 0.32086 0.91003 0.0
H165 H 0.71184 0.29517 0.93872 0.0
H166 H 0.65638 0.33683 0.96103 0.0
H167 H 0.68642 0.32107 0.9731 0.0
H168 H 0.69275 0.35655 0.95758 0.0
H169 H 0.59683 0.38044 0.78637 0.0
H170 H 0.67066 0.45055 0.77102 0.0
H171 H 0.6978 0.43283 0.81091 0.0
H172 H 0.59859 0.37754 0.8631 0.0
H173 H 0.57752 0.35315 0.83659 0.0
H174 H 0.59187 0.34081 0.8711 0.0
H175 H 0.64066 0.33292 0.79341 0.0
H176 H 0.62474 0.30949 0.82329 0.0
H177 H 0.60107 0.3258 0.79966 0.0
H178 H 0.57885 0.25504 0.89431 0.0
C179 C 0.61142 0.29286 0.88354 0.0
C180 C 0.92252 0.80008 0.3822 0.0
C181 C 0.91187 0.81562 0.40633 0.0
C182 C 0.88557 0.80287 0.42261 0.0
C183 C 0.88126 0.76033 0.39144 0.0
C184 C 0.90692 0.77257 0.37519 0.0
C185 C 0.91497 0.75296 0.3504 0.0
H186 H 0.88033 0.62545 0.27699 0.0
C187 C 0.87024 0.73166 0.37873 0.0
C188 C 0.88992 0.7271 0.3545 0.0
H189 H 0.95734 0.69154 0.25845 0.0
H190 H 0.94005 0.72086 0.29804 0.0
H191 H 0.88524 0.62717 0.34713 0.0
H192 H 0.83214 0.66616 0.28699 0.0
H193 H 0.80922 0.65142 0.31848 0.0
H194 H 0.82617 0.62869 0.29375 0.0
H195 H 0.85121 0.60777 0.33205 0.0
H196 H 0.85198 0.62714 0.36795 0.0
C197 C 0.94546 0.74612 0.35784 0.0
C198 C 0.91427 0.76731 0.31857 0.0
C199 C 0.77447 0.67032 0.42371 0.0
C200 C 0.75874 0.64292 0.41647 0.0
C201 C 0.7711 0.62729 0.39371 0.0
C202 C 0.79757 0.63889 0.37761 0.0
C203 C 0.81245 0.66652 0.38426 0.0
C204 C 0.80121 0.68161 0.40735 0.0
C205 C 0.82064 0.71049 0.4115 0.0
C206 C 0.84503 0.71025 0.38688 0.0
C207 C 0.83993 0.68448 0.37087 0.0
C208 C 0.83285 0.71193 0.44465 0.0
C209 C 0.80198 0.73305 0.40445 0.0
C210 C 0.89375 0.64616 0.28135 0.0
C211 C 0.92055 0.65583 0.26453 0.0
C212 C 0.93659 0.68339 0.2708 0.0
C213 C 0.92662 0.70032 0.29405 0.0
C214 C 0.90027 0.68967 0.31138 0.0
C215 C 0.88439 0.66297 0.30459 0.0
C216 C 0.85754 0.65415 0.32557 0.0
C217 C 0.85952 0.67993 0.34614 0.0
C218 C 0.88448 0.70097 0.33785 0.0
C219 C 0.86137 0.62758 0.34408 0.0
C220 C 0.82967 0.64963 0.30535 0.0
H221 H 0.8505 0.76734 0.4287 0.0
H222 H 0.94271 0.80896 0.36924 0.0
H223 H 0.89446 0.7772 0.31724 0.0
H224 H 0.91258 0.75222 0.29918 0.0
H225 H 0.93434 0.78419 0.31464 0.0
H226 H 0.94691 0.74228 0.38307 0.0
H227 H 0.9638 0.76398 0.35108 0.0
H228 H 0.94937 0.72667 0.3464 0.0
H229 H 0.76579 0.683 0.44103 0.0
H230 H 0.76013 0.60591 0.3881 0.0
H231 H 0.80525 0.62585 0.36034 0.0
H232 H 0.8371 0.69099 0.45192 0.0
H233 H 0.8168 0.71808 0.46172 0.0
H234 H 0.8545 0.72658 0.44652 0.0
H235 H 0.78664 0.72603 0.38522 0.0
H236 H 0.81562 0.75341 0.39647 0.0
H237 H 0.78828 0.73686 0.425 0.0
H238 H 0.8763 0.81427 0.44076 0.0
C239 C 0.87036 0.77553 0.41538 0.0
C240 C 0.75318 0.74691 0.94732 0.0
C241 C 0.77306 0.73026 0.93615 0.0
C242 C 0.77549 0.72587 0.904 0.0
C243 C 0.74183 0.75745 0.89465 0.0
C244 C 0.73775 0.76019 0.9262 0.0
C245 C 0.717 0.77989 0.93391 0.0
H246 H 0.65175 0.88547 0.88751 0.0
C247 C 0.7253 0.77634 0.87893 0.0
C248 C 0.71008 0.7891 0.90173 0.0
H249 H 0.65197 0.85115 0.97958 0.0
H250 H 0.67484 0.8133 0.95968 0.0
H251 H 0.63004 0.82706 0.85468 0.0
H252 H 0.71787 0.87695 0.8651 0.0
H253 H 0.71239 0.86754 0.8259 0.0
H254 H 0.68874 0.8881 0.84449 0.0
H255 H 0.6452 0.85493 0.82794 0.0
H256 H 0.65097 0.81921 0.82238 0.0
C257 C 0.68905 0.76277 0.95097 0.0
C258 C 0.73437 0.80481 0.95286 0.0
C259 C 0.74967 0.80151 0.76605 0.0
C260 C 0.74112 0.82146 0.74628 0.0
C261 C 0.71695 0.83385 0.7555 0.0
C262 C 0.70367 0.82873 0.78504 0.0
C263 C 0.71478 0.81121 0.80569 0.0
C264 C 0.73617 0.79666 0.7955 0.0
C265 C 0.74441 0.77804 0.82033 0.0
C266 C 0.72544 0.78496 0.84752 0.0
C267 C 0.70877 0.80499 0.83895 0.0
C268 C 0.73507 0.74674 0.81009 0.0
C269 C 0.77808 0.78774 0.82597 0.0
C270 C 0.65664 0.8696 0.90318 0.0
C271 C 0.65064 0.87121 0.93502 0.0
C272 C 0.65668 0.85017 0.95495 0.0
C273 C 0.67007 0.82842 0.94338 0.0
C274 C 0.6776 0.82795 0.91165 0.0
C275 C 0.66983 0.84767 0.89196 0.0
C276 C 0.67845 0.84324 0.8588 0.0
C277 C 0.69348 0.81806 0.86195 0.0
C278 C 0.69355 0.80968 0.89307 0.0
C279 C 0.64983 0.8359 0.83977 0.0
C280 C 0.70044 0.8703 0.84772 0.0
H281 H 0.76331 0.73571 0.85906 0.0
H282 H 0.75038 0.7502 0.97193 0.0
H283 H 0.75667 0.81282 0.94198 0.0
H284 H 0.72355 0.8232 0.95423 0.0
H285 H 0.73762 0.79799 0.97684 0.0
H286 H 0.68496 0.74003 0.94436 0.0
H287 H 0.69143 0.76388 0.97647 0.0
H288 H 0.66854 0.76996 0.94481 0.0
H289 H 0.76799 0.79141 0.75978 0.0
H290 H 0.7092 0.84857 0.74039 0.0
H291 H 0.68622 0.83965 0.7912 0.0
H292 H 0.71714 0.74399 0.7929 0.0
H293 H 0.75406 0.73889 0.79927 0.0
H294 H 0.72561 0.73259 0.82959 0.0
H295 H 0.78421 0.81124 0.82714 0.0
H296 H 0.78513 0.78004 0.84794 0.0
H297 H 0.79155 0.78065 0.80692 0.0
H298 H 0.7907 0.71326 0.8947 0.0
C299 C 0.75982 0.73918 0.88326 0.0
C300 C 0.8174 0.18607 0.48952 0.0
C301 C 0.82326 0.1668 0.46695 0.0
C302 C 0.80218 0.15736 0.44431 0.0
C303 C 0.77008 0.18678 0.46649 0.0
C304 C 0.79056 0.19546 0.48911 0.0
C305 C 0.77999 0.21469 0.51243 0.0
H306 H 0.67505 0.28702 0.55825 0.0
C307 C 0.74447 0.20026 0.47275 0.0
C308 C 0.74981 0.21615 0.49998 0.0
H309 H 0.75959 0.28791 0.59993 0.0
H310 H 0.76946 0.25256 0.56326 0.0
H311 H 0.65677 0.2171 0.54319 0.0
H312 H 0.69926 0.29253 0.49409 0.0
H313 H 0.67933 0.27039 0.4665 0.0
H314 H 0.65964 0.28288 0.49862 0.0
H315 H 0.6378 0.24443 0.53184 0.0
H316 H 0.64189 0.21601 0.50595 0.0
C317 C 0.77745 0.20008 0.54456 0.0
C318 C 0.80164 0.24378 0.51081 0.0
C319 C 0.66437 0.19298 0.39345 0.0
C320 C 0.63922 0.20522 0.39125 0.0
C321 C 0.63049 0.2202 0.41671 0.0
C322 C 0.64753 0.2241 0.44342 0.0
C323 C 0.67356 0.21297 0.44454 0.0
C324 C 0.68121 0.19723 0.42003 0.0
C325 C 0.70952 0.187 0.42503 0.0
C326 C 0.71833 0.20023 0.4561 0.0
C327 C 0.69722 0.21533 0.46743 0.0
C328 C 0.70219 0.15419 0.42676 0.0
C329 C 0.73203 0.19929 0.39877 0.0
C330 C 0.69519 0.2788 0.56037 0.0
C331 C 0.71629 0.2897 0.58247 0.0
C332 C 0.74288 0.27949 0.58334 0.0
C333 C 0.7486 0.25918 0.56188 0.0
C334 C 0.72774 0.2495 0.53901 0.0
C335 C 0.70143 0.25914 0.53881 0.0
C336 C 0.68295 0.24878 0.51142 0.0
C337 C 0.7022 0.23077 0.49539 0.0
C338 C 0.72836 0.2312 0.51161 0.0
C339 C 0.65313 0.23074 0.52351 0.0
C340 C 0.67982 0.27482 0.49158 0.0
H341 H 0.76045 0.15951 0.42601 0.0
H342 H 0.83301 0.19304 0.50763 0.0
H343 H 0.80946 0.24913 0.48655 0.0
H344 H 0.79123 0.26147 0.5184 0.0
H345 H 0.82153 0.24369 0.52481 0.0
H346 H 0.76962 0.17679 0.54236 0.0
H347 H 0.79927 0.20376 0.55589 0.0
H348 H 0.76098 0.20699 0.56029 0.0
H349 H 0.67114 0.18066 0.37457 0.0
H350 H 0.61106 0.22964 0.41558 0.0
H351 H 0.64017 0.23618 0.46186 0.0
H352 H 0.67873 0.14608 0.43444 0.0
H353 H 0.70551 0.14464 0.40386 0.0
H354 H 0.71551 0.14575 0.44407 0.0
H355 H 0.73142 0.22191 0.39442 0.0
H356 H 0.75525 0.19906 0.40422 0.0
H357 H 0.72672 0.18757 0.37682 0.0
H358 H 0.80633 0.14228 0.42694 0.0
C359 C 0.77563 0.16734 0.44389 0.0
C360 C 0.42438 0.66877 0.31699 0.0
C361 C 0.41303 0.64161 0.32963 0.0
C362 C 0.38606 0.62606 0.31868 0.0
C363 C 0.38299 0.66317 0.28178 0.0
C364 C 0.40901 0.67911 0.29298 0.0
C365 C 0.41814 0.70686 0.27547 0.0
H366 H 0.38917 0.79229 0.15842 0.0
C367 C 0.37342 0.67855 0.25543 0.0
C368 C 0.39401 0.70432 0.25139 0.0
H369 H 0.45986 0.8124 0.22349 0.0
H370 H 0.44427 0.76576 0.24721 0.0
H371 H 0.34005 0.76659 0.20683 0.0
H372 H 0.396 0.72936 0.14515 0.0
H373 H 0.3615 0.70589 0.14589 0.0
H374 H 0.36411 0.7417 0.13213 0.0
H375 H 0.33453 0.76377 0.16593 0.0
H376 H 0.31748 0.73597 0.19232 0.0
C377 C 0.41691 0.73126 0.29836 0.0
C378 C 0.44914 0.70805 0.26025 0.0
C379 C 0.27834 0.63561 0.19904 0.0
C380 C 0.26424 0.6453 0.17386 0.0
C381 C 0.27842 0.67006 0.15815 0.0
C382 C 0.30565 0.68561 0.16786 0.0
C383 C 0.31897 0.67658 0.19389 0.0
C384 C 0.30576 0.6516 0.2086 0.0
C385 C 0.32367 0.64535 0.23559 0.0
C386 C 0.34915 0.67113 0.23512 0.0
C387 C 0.34602 0.68935 0.21078 0.0
C388 C 0.304 0.64428 0.26541 0.0
C389 C 0.33464 0.61757 0.22844 0.0
C390 C 0.40133 0.7869 0.1779 0.0
C391 C 0.42554 0.80642 0.18926 0.0
C392 C 0.44108 0.79789 0.21419 0.0
C393 C 0.43182 0.77087 0.22811 0.0
C394 C 0.40676 0.75203 0.217 0.0
C395 C 0.39233 0.76033 0.19201 0.0
C396 C 0.36596 0.73845 0.18306 0.0
C397 C 0.36638 0.71556 0.2069 0.0
C398 C 0.39032 0.72327 0.22695 0.0
C399 C 0.33794 0.7517 0.18693 0.0
C400 C 0.37187 0.72833 0.14978 0.0
H401 H 0.35084 0.6234 0.28767 0.0
H402 H 0.44525 0.68108 0.32469 0.0
H403 H 0.45034 0.68748 0.2491 0.0
H404 H 0.45442 0.72416 0.24177 0.0
H405 H 0.46672 0.71247 0.27774 0.0
H406 H 0.39651 0.72625 0.3134 0.0
H407 H 0.43639 0.73476 0.31358 0.0
H408 H 0.41593 0.75133 0.28663 0.0
H409 H 0.26771 0.61678 0.21172 0.0
H410 H 0.26779 0.67795 0.13888 0.0
H411 H 0.3148 0.70458 0.15518 0.0
H412 H 0.29049 0.66101 0.26489 0.0
H413 H 0.28845 0.62352 0.26783 0.0
H414 H 0.31699 0.64844 0.28662 0.0
H415 H 0.3382 0.615 0.20311 0.0
H416 H 0.35645 0.61721 0.2384 0.0
H417 H 0.31824 0.59876 0.23678 0.0
H418 H 0.37695 0.60516 0.32795 0.0
C419 C 0.37102 0.63664 0.29507 0.0
C420 C 0.11584 0.29159 0.69862 0.0
C421 C 0.12625 0.27606 0.67434 0.0
C422 C 0.15343 0.288 0.65919 0.0
C423 C 0.15959 0.32935 0.69252 0.0
C424 C 0.13278 0.31811 0.70722 0.0
C425 C 0.12518 0.33751 0.73242 0.0
H426 H 0.16701 0.4541 0.82264 0.0
C427 C 0.1722 0.35679 0.7074 0.0
C428 C 0.15215 0.36188 0.73078 0.0
H429 H 0.08367 0.39346 0.82473 0.0
H430 H 0.09984 0.36945 0.78091 0.0
H431 H 0.1682 0.46046 0.74556 0.0
H432 H 0.21104 0.40992 0.80534 0.0
H433 H 0.23681 0.42805 0.7776 0.0
H434 H 0.2198 0.44797 0.8055 0.0
H435 H 0.19812 0.47622 0.7698 0.0
H436 H 0.205 0.46212 0.73222 0.0
C437 C 0.09631 0.34725 0.72371 0.0
C438 C 0.12292 0.32134 0.76356 0.0
C439 C 0.2745 0.40916 0.67183 0.0
C440 C 0.29367 0.43405 0.68124 0.0
C441 C 0.28358 0.45055 0.70468 0.0
C442 C 0.25532 0.44174 0.71919 0.0
C443 C 0.23679 0.41624 0.71003 0.0
C444 C 0.24652 0.40075 0.68634 0.0
C445 C 0.22437 0.37433 0.67917 0.0
C446 C 0.19957 0.37623 0.70242 0.0
C447 C 0.2068 0.40072 0.72075 0.0
C448 C 0.21449 0.3766 0.64539 0.0
C449 C 0.23889 0.34856 0.68559 0.0
C450 C 0.15217 0.43578 0.81357 0.0
C451 C 0.12429 0.4253 0.82831 0.0
C452 C 0.10569 0.40154 0.81505 0.0
C453 C 0.11503 0.38757 0.78928 0.0
C454 C 0.1433 0.39737 0.77583 0.0
C455 C 0.16111 0.42157 0.78735 0.0
C456 C 0.18983 0.42959 0.76861 0.0
C457 C 0.18655 0.40583 0.74475 0.0
C458 C 0.15924 0.38676 0.74939 0.0
C459 C 0.19064 0.45871 0.7533 0.0
C460 C 0.21592 0.42906 0.79027 0.0
H461 H 0.19055 0.32186 0.65561 0.0
H462 H 0.09491 0.28338 0.7106 0.0
H463 H 0.14176 0.31019 0.76554 0.0
H464 H 0.12407 0.33531 0.78389 0.0
H465 H 0.10199 0.3052 0.76539 0.0
H466 H 0.09414 0.34795 0.69816 0.0
H467 H 0.07634 0.33263 0.73331 0.0
H468 H 0.09595 0.36906 0.73146 0.0
H469 H 0.28128 0.39617 0.65358 0.0
H470 H 0.2979 0.46979 0.71244 0.0
H471 H 0.24914 0.45488 0.7373 0.0
H472 H 0.21427 0.39894 0.63915 0.0
H473 H 0.22978 0.36881 0.62869 0.0
H474 H 0.19154 0.3651 0.64169 0.0
H475 H 0.25406 0.3528 0.70543 0.0
H476 H 0.22264 0.32931 0.69244 0.0
H477 H 0.25216 0.34371 0.66517 0.0
H478 H 0.16241 0.2766 0.64083 0.0
C479 C 0.16999 0.31435 0.66804 0.0
La480 La 0.03457 0.06281 0.51167 0.0
La481 La 0.99818 1.03272 0.56466 0.0
C482 C 0.05557 0.08986 0.46384 0.0
C483 C 0.07631 0.11713 0.45943 0.0
C484 C 0.10017 0.11894 0.43819 0.0
C485 C 0.12144 0.14395 0.43524 0.0
C486 C 0.11908 0.16767 0.45339 0.0
C487 C 0.09504 0.16596 0.47453 0.0
C488 C 0.07392 0.1408 0.47772 0.0
C489 C 0.06276 1.03346 0.54786 0.0
C490 C 0.04073 0.09327 0.57533 0.0
C491 C 0.97655 1.00644 0.61273 0.0
C492 C 0.95103 0.98291 0.61849 0.0
C493 C 0.92227 0.98501 0.60986 0.0
C494 C 0.89828 0.96273 0.61579 0.0
C495 C 0.90257 0.93781 0.63013 0.0
C496 C 0.93141 0.9354 0.63804 0.0
C497 C 0.95542 0.95783 0.63239 0.0
C498 C 0.97036 0.06145 0.52804 0.0
C499 C 0.99281 1.00158 0.50097 0.0
O500 O 0.06707 0.06983 0.47599 0.0
O501 O 0.0293 0.09067 0.47594 0.0
O502 O 0.07476 0.05709 0.53432 0.0
O503 O 0.03645 1.02666 0.53929 0.0
O504 O 0.04319 0.09703 0.54502 0.0
O505 O 0.02748 0.06851 0.58759 0.0
O506 O 0.97038 1.0306 0.6041 0.0
O507 O 0.99901 1.00019 0.5968 0.0
O508 O 0.95782 1.03784 0.54133 0.0
O509 O 0.99642 0.06869 0.53707 0.0
O510 O 0.98849 0.9986 0.53125 0.0
O511 O 1.00756 1.02572 0.4885 0.0
H512 H 0.10254 0.10086 0.4241 0.0
H513 H 0.13955 0.14486 0.41846 0.0
H514 H 0.09283 0.18393 0.48884 0.0
H515 H 0.05595 0.13979 0.49468 0.0
H516 H 0.91817 1.00391 0.59871 0.0
H517 H 0.87629 0.96503 0.60928 0.0
H518 H 0.93526 0.91652 0.64943 0.0
H519 H 0.9774 0.95569 0.6391 0.0
La520 La 0.53647 0.04699 0.08728 0.0
La521 La 0.48925 1.02951 1.04211 0.0
C522 C 0.57544 0.07183 0.12311 0.0
C523 C 0.57967 0.09645 0.14355 0.0
C524 C 0.55907 0.11434 0.145 0.0
C525 C 0.5607 0.13469 0.16834 0.0
C526 C 0.58327 0.13766 0.19007 0.0
C527 C 0.60476 0.12067 0.18736 0.0
C528 C 0.60287 0.10015 0.16435 0.0
C529 C 0.50722 0.99374 0.09402 0.0
C530 C 0.47475 0.0652 0.09938 0.0
C531 C 0.4453 1.00964 1.01003 0.0
C532 C 0.44198 1.00301 0.97694 0.0
C533 C 0.42004 1.01272 0.96064 0.0
C534 C 0.41789 1.00855 0.92875 0.0
C535 C 0.43754 0.99439 0.9127 0.0
C536 C 0.45923 0.98426 0.92912 0.0
C537 C 0.46161 0.98874 0.96097 0.0
C538 C 0.52957 0.07528 1.02537 0.0
C539 C 0.54965 1.01154 1.03077 0.0
O540 O 0.55379 0.05106 0.13162 0.0
O541 O 0.57603 0.07678 0.09326 0.0
O542 O 0.53537 1.00222 0.09785 0.0
O543 O 0.49634 1.01497 0.08746 0.0
O544 O 0.50297 0.06895 0.1068 0.0
O545 O 0.46399 0.04847 0.07647 0.0
O546 O 0.45338 1.03659 1.01641 0.0
O547 O 0.45959 0.99389 1.02617 0.0
O548 O 0.51698 0.05598 1.00652 0.0
O549 O 0.51858 0.0689 0.052 0.0
O550 O 0.52066 1.00318 1.02876 0.0
O551 O 0.56121 1.03294 1.04863 0.0
H552 H 0.54125 0.11195 0.12879 0.0
H553 H 0.54404 0.14764 0.1699 0.0
H554 H 0.62217 0.12218 0.20404 0.0
H555 H 0.61883 0.08637 0.16361 0.0
H556 H 0.40482 1.0239 0.97252 0.0
H557 H 0.40072 1.01624 0.91666 0.0
H558 H 0.47472 0.97342 0.9172 0.0
H559 H 0.47905 0.98138 0.97295 0.0
La560 La 0.53363 0.51099 0.53575 0.0
La561 La 0.52374 0.56129 0.57101 0.0
C562 C 0.55979 0.47488 0.51218 0.0
C563 C 0.57832 0.45748 0.52694 0.0
C564 C 0.60573 0.45544 0.51316 0.0
C565 C 0.62562 0.4427 0.52911 0.0
C566 C 0.61839 0.43181 0.55914 0.0
C567 C 0.59057 0.43327 0.57254 0.0
C568 C 0.57079 0.44613 0.55668 0.0
C569 C 0.4807 0.50443 0.5636 0.0
C570 C 0.55362 0.51866 0.60675 0.0
C571 C 0.4983 0.59775 0.59506 0.0
C572 C 0.47799 0.61436 0.58201 0.0
C573 C 0.44924 0.6114 0.59494 0.0
C574 C 0.42829 0.62409 0.58086 0.0
C575 C 0.43579 0.64017 0.55367 0.0
C576 C 0.46476 0.64365 0.54108 0.0
C577 C 0.48565 0.63064 0.55496 0.0
C578 C 0.57553 0.5677 0.54078 0.0
C579 C 0.50159 0.55206 0.50048 0.0
O580 O 0.53148 0.46942 0.51998 0.0
O581 O 0.5711 0.50204 0.51222 0.0
O582 O 0.48621 0.49281 0.53752 0.0
O583 O 0.50518 0.51712 0.57405 0.0
O584 O 0.55673 0.50685 0.57945 0.0
O585 O 0.539 0.53957 0.60975 0.0
O586 O 0.52601 0.60343 0.585 0.0
O587 O 0.48758 0.57053 0.59654 0.0
O588 O 0.57202 0.57911 0.56756 0.0
O589 O 0.55055 0.55495 0.53213 0.0
O590 O 0.49957 0.56478 0.5276 0.0
O591 O 0.51666 0.53147 0.49743 0.0
H592 H 0.61207 0.46439 0.4904 0.0
H593 H 0.64665 0.44135 0.5179 0.0
H594 H 0.58432 0.42509 0.5956 0.0
H595 H 0.54997 0.44791 0.56809 0.0
H596 H 0.4428 0.59873 0.61563 0.0
H597 H 0.40631 0.6216 0.59149 0.0
H598 H 0.47111 0.65609 0.52028 0.0
H599 H 0.50753 0.63291 0.54416 0.0
La600 La 0.02342 0.51248 0.06363 0.0
La601 La 0.02336 0.56681 1.03298 0.0
C602 C 0.03689 0.46757 0.08344 0.0
C603 C 0.06503 0.45788 0.08678 0.0
C604 C 0.066 0.42954 0.08064 0.0
C605 C 0.09286 0.42024 0.08162 0.0
C606 C 0.11933 0.43921 0.08857 0.0
C607 C 0.11819 0.46757 0.09507 0.0
C608 C 0.09129 0.47681 0.09424 0.0
C609 C 0.99139 0.54386 0.09499 0.0
C610 C 0.07727 0.56438 0.07301 0.0
C611 C 1.01214 0.61291 1.01363 0.0
C612 C 0.98612 0.62621 1.01312 0.0
C613 C 0.98955 0.65435 1.00323 0.0
C614 C 0.96504 0.66739 1.00272 0.0
C615 C 0.93669 0.65229 1.01171 0.0
C616 C 0.93332 0.62414 1.02182 0.0
C617 C 0.95798 0.61132 1.02294 0.0
C618 C 0.05298 0.53285 1.00142 0.0
C619 C 0.96743 0.51658 1.02698 0.0
O620 O 0.03242 0.4883 0.10132 0.0
O621 O 0.02954 0.47113 0.05501 0.0
O622 O 0.98519 0.51655 0.09243 0.0
O623 O 1.01583 0.5529 0.08055 0.0
O624 O 0.0691 0.53654 0.07084 0.0
O625 O 0.06082 0.58113 0.06178 0.0
O626 O 1.01118 0.59045 0.99641 0.0
O627 O 0.02217 0.6095 1.04102 0.0
O628 O 0.06056 0.56023 1.00158 0.0
O629 O 0.02914 0.52623 1.01695 0.0
O630 O 0.97721 0.54426 1.02899 0.0
O631 O 0.98376 0.49869 1.03643 0.0
H632 H 0.04599 0.41463 0.07479 0.0
H633 H 0.09281 0.39814 0.07709 0.0
H634 H 0.13816 0.48277 0.10026 0.0
H635 H 0.09116 0.4988 0.09912 0.0
H636 H 1.01119 0.66622 0.99586 0.0
H637 H 0.96809 0.68909 0.99469 0.0
H638 H 0.91169 0.6122 1.0291 0.0
H639 H 0.95512 0.58988 1.03151 0.0
H640 H 0.27566 0.25373 0.39925 0.0
H641 H 0.22821 0.31828 0.36977 0.0
H642 H 0.18564 0.29665 0.40228 0.0
H643 H 0.21831 0.20016 0.38672 0.0
H644 H 0.22447 0.17777 0.41824 0.0
H645 H 0.25501 0.20291 0.40165 0.0
H646 H 0.26664 0.22534 0.45558 0.0
H647 H 0.23613 0.20003 0.47247 0.0
H648 H 0.23786 0.23741 0.47781 0.0
H649 H 0.14447 0.26355 0.42864 0.0
H650 H 0.10814 0.22055 0.44431 0.0
H651 H 0.17956 0.17451 0.45156 0.0
C652 C 0.25666 0.26379 0.39981 0.0
C653 C 0.25595 0.28802 0.38155 0.0
C654 C 0.23034 0.30034 0.38387 0.0
C655 C 0.20564 0.28802 0.4023 0.0
C656 C 0.20648 0.26317 0.41822 0.0
C657 C 0.23137 0.25117 0.4172 0.0
C658 C 0.22482 0.22182 0.4315 0.0
C659 C 0.231 0.19936 0.40813 0.0
C660 C 0.24241 0.22112 0.46111 0.0
C661 C 0.19194 0.21858 0.43891 0.0
C662 C 0.18203 0.24307 0.43215 0.0
C663 C 0.15205 0.24444 0.43465 0.0
C664 C 0.13157 0.21996 0.44354 0.0
C665 C 0.14115 0.19436 0.44913 0.0
C666 C 0.17176 0.19392 0.44753 0.0
H667 H 0.40101 0.90175 0.76211 0.0
H668 H 0.38847 0.9782 0.71622 0.0
H669 H 0.40959 1.0066 0.76085 0.0
H670 H 0.37767 0.91832 0.83367 0.0
H671 H 0.40378 0.90353 0.85554 0.0
H672 H 0.39342 0.88978 0.81787 0.0
H673 H 0.44868 0.89968 0.79961 0.0
H674 H 0.45931 0.91322 0.83746 0.0
H675 H 0.47092 0.93475 0.80357 0.0
H676 H 0.42399 1.02539 0.81296 0.0
H677 H 0.43256 1.03362 0.86872 0.0
H678 H 0.43603 0.94509 0.88096 0.0
C679 C 0.40385 0.92458 0.76102 0.0
C680 C 0.39339 0.9379 0.73577 0.0
C681 C 0.39646 0.9677 0.73544 0.0
C682 C 0.40853 0.98398 0.76058 0.0
C683 C 0.41762 0.97011 0.7857 0.0
C684 C 0.41577 0.94111 0.786 0.0
C685 C 0.42399 0.93108 0.81716 0.0
C686 C 0.39817 0.90941 0.83191 0.0
C687 C 0.45243 0.91897 0.81427 0.0
C688 C 0.42939 0.95874 0.83472 0.0
C689 C 0.42603 0.98106 0.81602 0.0
C690 C 0.42731 1.00823 0.82769 0.0
C691 C 0.43192 1.01265 0.85937 0.0
C692 C 0.4351 0.99001 0.87895 0.0
C693 C 0.43431 0.96287 0.86631 0.0
H694 H 0.6496 0.43827 0.71701 0.0
H695 H 0.57473 0.42608 0.78221 0.0
H696 H 0.54764 0.45142 0.74669 0.0
H697 H 0.64432 0.50802 0.69109 0.0
H698 H 0.65402 0.5021 0.65127 0.0
H699 H 0.66773 0.48315 0.68174 0.0
H700 H 0.64516 0.43565 0.65599 0.0
H701 H 0.6314 0.45456 0.62558 0.0
H702 H 0.60621 0.42779 0.64764 0.0
H703 H 0.53034 0.48162 0.70605 0.0
H704 H 0.52062 0.50806 0.65985 0.0
H705 H 0.60426 0.49705 0.61782 0.0
C706 C 0.62742 0.4408 0.72371 0.0
C707 C 0.61429 0.43012 0.75253 0.0
C708 C 0.58515 0.43376 0.76024 0.0
C709 C 0.56969 0.44836 0.74029 0.0
C710 C 0.5834 0.45895 0.71234 0.0
C711 C 0.61141 0.45492 0.70376 0.0
C712 C 0.62073 0.46784 0.67201 0.0
C713 C 0.64834 0.4917 0.67417 0.0
C714 C 0.62617 0.44506 0.64894 0.0
C715 C 0.59349 0.4796 0.66393 0.0
C716 C 0.57258 0.4748 0.68795 0.0
C717 C 0.54639 0.48515 0.68697 0.0
C718 C 0.54117 0.50036 0.66069 0.0
C719 C 0.56162 0.50468 0.6352 0.0
C720 C 0.58813 0.494 0.63687 0.0
H721 H 0.95054 0.6673 0.20679 0.0
H722 H 0.91753 0.59923 0.27232 0.0
H723 H 0.93184 0.565 0.23602 0.0
H724 H 0.92883 0.62824 0.13735 0.0
H725 H 0.96186 0.64294 0.11481 0.0
H726 H 0.94939 0.66325 0.14571 0.0
H727 H 1.00058 0.66902 0.17107 0.0
H728 H 1.01326 0.64887 0.14013 0.0
H729 H 1.0152 0.63798 0.17977 0.0
H730 H 0.94589 0.5373 0.19281 0.0
H731 H 0.96418 0.51718 0.14593 0.0
H732 H 0.99302 0.60158 0.10702 0.0
C733 C 0.9466 0.64524 0.2136 0.0
C734 C 0.93203 0.63609 0.2424 0.0
C735 C 0.92756 0.60693 0.25021 0.0
C736 C 0.93588 0.5872 0.22977 0.0
C737 C 0.94929 0.59669 0.20148 0.0
C738 C 0.95517 0.62498 0.19334 0.0
C739 C 0.97039 0.62894 0.16128 0.0
C740 C 0.95149 0.6416 0.13844 0.0
C741 C 1.00172 0.6473 0.16319 0.0
C742 C 0.97169 0.59842 0.15279 0.0
C743 C 0.95907 0.58038 0.17648 0.0
C744 C 0.95617 0.5512 0.17425 0.0
C745 C 0.9666 0.53996 0.14728 0.0
C746 C 0.98033 0.55768 0.12266 0.0
C747 C 0.98296 0.58747 0.12552 0.0
H748 H 0.43612 0.19254 0.20093 0.0
H749 H 0.34848 0.17311 0.16216 0.0
H750 H 0.36123 0.13141 0.13561 0.0
H751 H 0.47306 0.17585 0.13205 0.0
H752 H 0.50096 0.16121 0.15094 0.0
H753 H 0.48493 0.18805 0.17001 0.0
H754 H 0.46894 0.15573 0.21743 0.0
H755 H 0.48548 0.12863 0.19952 0.0
H756 H 0.44702 0.12068 0.21219 0.0
H757 H 0.3836 0.09274 0.11271 0.0
H758 H 0.41538 0.06163 0.09104 0.0
H759 H 0.48947 0.107 0.14312 0.0
C760 C 0.41963 0.17923 0.18708 0.0
C761 C 0.39128 0.18566 0.18362 0.0
C762 C 0.3703 0.16832 0.16494 0.0
C763 C 0.37728 0.14459 0.14999 0.0
C764 C 0.40545 0.13875 0.15378 0.0
C765 C 0.42643 0.1557 0.17157 0.0
C766 C 0.45583 0.14604 0.16964 0.0
C767 C 0.48013 0.16916 0.1548 0.0
C768 C 0.46483 0.13724 0.20161 0.0
C769 C 0.44791 0.12073 0.14845 0.0
C770 C 0.41871 0.11687 0.1397 0.0
C771 C 0.40649 0.09547 0.11946 0.0
C772 C 0.42476 0.07787 0.1073 0.0
C773 C 0.45501 0.08182 0.11531 0.0
C774 C 0.46648 0.10328 0.1366 0.0
H775 H 0.1466 0.9319 0.63986 0.0
H776 H 0.17814 0.90783 0.54998 0.0
H777 H 0.1455 0.93463 0.52446 0.0
H778 H 0.06895 0.93391 0.61675 0.0
H779 H 0.06786 0.96457 0.64034 0.0
H780 H 0.08952 0.93923 0.65192 0.0
H781 H 0.13605 0.97952 0.65452 0.0
H782 H 0.11474 1.0049 0.64251 0.0
H783 H 0.1478 1.00127 0.6208 0.0
H784 H 0.11621 0.96918 0.50839 0.0
H785 H 0.08809 1.00746 0.50274 0.0
H786 H 0.07555 1.01045 0.60234 0.0
C787 C 0.14614 0.93178 0.61483 0.0
C788 C 0.16475 0.91748 0.59699 0.0
C789 C 0.16359 0.91794 0.56425 0.0
C790 C 0.14526 0.93331 0.54946 0.0
C791 C 0.12814 0.94804 0.56768 0.0
C792 C 0.12803 0.94716 0.59963 0.0
C793 C 0.10941 0.9669 0.61361 0.0
C794 C 0.08233 0.95014 0.63172 0.0
C795 C 0.12813 0.98948 0.63406 0.0
C796 C 0.1002 0.97984 0.58449 0.0
C797 C 0.11106 0.96839 0.55829 0.0
C798 C 0.10716 0.97802 0.52865 0.0
C799 C 0.09149 0.99983 0.52567 0.0
C800 C 0.08011 1.01166 0.55215 0.0
C801 C 0.08423 1.00153 0.58189 0.0
H802 H 0.834 0.40413 0.95339 0.0
H803 H 0.79231 0.47534 0.9343 0.0
H804 H 0.83433 0.50763 0.95761 0.0
H805 H 0.86245 0.42874 1.02764 0.0
H806 H 0.89663 0.41619 1.02241 0.0
H807 H 0.86364 0.39842 1.00351 0.0
H808 H 0.89164 0.40547 0.95041 0.0
H809 H 0.92474 0.42315 0.96915 0.0
H810 H 0.90974 0.4406 0.93828 0.0
H811 H 0.88013 0.53228 0.9836 0.0
H812 H 0.92761 0.54813 1.00905 0.0
H813 H 0.94032 0.46132 1.01271 0.0
C814 C 0.83361 0.4265 0.95419 0.0
C815 C 0.80971 0.43709 0.94173 0.0
C816 C 0.81044 0.46662 0.94305 0.0
C817 C 0.83414 0.48517 0.95653 0.0
C818 C 0.85712 0.474 0.96871 0.0
C819 C 0.85717 0.44539 0.9676 0.0
C820 C 0.88476 0.43901 0.98242 0.0
C821 C 0.87636 0.41943 1.01067 0.0
C822 C 0.90385 0.42631 0.95864 0.0
C823 C 0.90015 0.46852 0.99207 0.0
C824 C 0.88369 0.48831 0.98392 0.0
C825 C 0.89319 0.51697 0.9901 0.0
C826 C 0.92031 0.52577 1.00469 0.0
C827 C 0.93791 0.50607 1.01313 0.0
C828 C 0.92744 0.47696 1.00681 0.0
H829 H 0.73877 0.64572 0.47792 0.0
H830 H 0.71057 0.61279 0.38757 0.0
H831 H 0.66235 0.58964 0.41027 0.0
H832 H 0.70229 0.58495 0.52252 0.0
H833 H 0.69087 0.60504 0.55421 0.0
H834 H 0.72376 0.61948 0.53135 0.0
H835 H 0.70255 0.66405 0.51947 0.0
H836 H 0.66969 0.64983 0.54248 0.0
H837 H 0.66643 0.66001 0.50281 0.0
H838 H 0.61799 0.5688 0.44176 0.0
H839 H 0.57767 0.55387 0.48021 0.0
H840 H 0.63159 0.6008 0.55134 0.0
C841 C 0.72234 0.63384 0.4629 0.0
C842 C 0.72892 0.63072 0.43091 0.0
C843 C 0.70664 0.61495 0.41219 0.0
C844 C 0.67899 0.60181 0.42484 0.0
C845 C 0.6735 0.60472 0.45636 0.0
C846 C 0.69427 0.62054 0.47522 0.0
C847 C 0.68204 0.62026 0.5084 0.0
C848 C 0.70087 0.60662 0.53042 0.0
C849 C 0.68006 0.65033 0.5189 0.0
C850 C 0.65127 0.60178 0.50507 0.0
C851 C 0.6471 0.59301 0.47477 0.0
C852 C 0.62091 0.5756 0.46555 0.0
C853 C 0.59812 0.56713 0.48769 0.0
C854 C 0.60135 0.57607 0.51889 0.0
C855 C 0.62844 0.59358 0.52771 0.0
H856 H 0.26784 0.41508 0.16448 0.0
H857 H 0.26885 0.34889 0.09625 0.0
H858 H 0.22908 0.36465 0.06864 0.0
H859 H 0.19183 0.40385 0.17183 0.0
H860 H 0.18942 0.44041 0.17728 0.0
H861 H 0.22235 0.42845 0.18804 0.0
H862 H 0.25445 0.4667 0.15264 0.0
H863 H 0.22154 0.47892 0.14185 0.0
H864 H 0.24568 0.46852 0.11238 0.0
H865 H 0.18465 0.38272 0.05245 0.0
H866 H 0.13909 0.40205 1.0489 0.0
H867 H 0.16413 0.45365 0.13004 0.0
C868 C 0.26012 0.40411 0.14347 0.0
C869 C 0.27185 0.38076 0.13261 0.0
C870 C 0.261 0.36726 0.10483 0.0
C871 C 0.23815 0.37594 0.08899 0.0
C872 C 0.22626 0.39815 0.10115 0.0
C873 C 0.23696 0.41217 0.12768 0.0
C874 C 0.21807 0.4331 0.13795 0.0
C875 C 0.20463 0.42601 0.1707 0.0
C876 C 0.23601 0.46362 0.13608 0.0
C877 C 0.19445 0.42784 0.11372 0.0
C878 C 0.1999 0.408 0.09238 0.0
C879 C 0.18031 0.3985 0.06884 0.0
C880 C 0.15432 0.40939 0.06722 0.0
C881 C 0.14792 0.4293 0.08926 0.0
C882 C 0.16857 0.43885 0.11252 0.0
H883 H 0.58844 0.20556 0.90813 0.0
H884 H 0.61327 0.25709 0.98929 0.0
H885 H 0.59524 0.2156 1.02285 0.0
H886 H 0.52103 0.1624 0.94212 0.0
H887 H 0.52618 0.13036 0.92311 0.0
H888 H 0.54065 0.16423 0.90526 0.0
H889 H 0.59305 0.15219 0.90209 0.0
H890 H 0.57878 0.11836 0.92013 0.0
H891 H 0.60942 0.1424 0.93683 0.0
H892 H 0.57465 0.1686 1.04809 0.0
H893 H 0.55202 0.1194 0.06304 0.0
H894 H 0.54083 0.09722 0.96616 0.0
C895 C 0.58981 0.20814 0.93297 0.0
C896 C 0.60252 0.23472 0.94596 0.0
C897 C 0.60409 0.237 0.97865 0.0
C898 C 0.59378 0.21352 0.99798 0.0
C899 C 0.58187 0.18762 0.98448 0.0
C900 C 0.57974 0.18473 0.95274 0.0
C901 C 0.56618 0.15429 0.94436 0.0
C902 C 0.53676 0.15274 0.92773 0.0
C903 C 0.58818 0.14103 0.92469 0.0
C904 C 0.56101 0.14065 0.97629 0.0
C905 C 0.57023 0.16033 0.99909 0.0
C906 C 0.56743 0.153 1.03041 0.0
C907 C 0.55462 0.12495 1.03871 0.0
C908 C 0.54481 0.10437 1.01585 0.0
C909 C 0.54831 0.11239 0.9842 0.0
H910 H 0.91917 0.84009 0.46429 0.0
H911 H 0.93957 0.85842 0.36691 0.0
H912 H 0.96259 0.9077 0.38017 0.0
H913 H 0.8992 0.90628 0.4833 0.0
H914 H 0.91524 0.90841 0.52104 0.0
H915 H 0.90152 0.87437 0.50395 0.0
H916 H 0.95283 0.8609 0.51026 0.0
H917 H 0.96664 0.89486 0.52748 0.0
H918 H 0.98562 0.88369 0.49411 0.0
H919 H 0.98225 0.95609 0.40445 0.0
H920 H 0.9981 0.9981 0.43743 0.0
H921 H 0.96371 0.94804 0.51865 0.0
C922 C 0.92833 0.85441 0.44562 0.0
C923 C 0.92738 0.84511 0.41442 0.0
C924 C 0.94024 0.86469 0.39098 0.0
C925 C 0.9532 0.89287 0.3983 0.0
C926 C 0.95328 0.90135 0.42921 0.0
C927 C 0.94127 0.88259 0.4525 0.0
C928 C 0.94395 0.89695 0.48389 0.0
C929 C 0.91314 0.89647 0.49892 0.0
C930 C 0.96343 0.88329 0.50518 0.0
C931 C 0.95918 0.92679 0.47467 0.0
C932 C 0.96442 0.92895 0.44305 0.0
C933 C 0.97826 0.95453 0.42924 0.0
C934 C 0.98715 0.97837 0.4482 0.0
C935 C 0.9822 0.97661 0.48074 0.0
C936 C 0.96786 0.95033 0.49391 0.0
H937 H 0.37365 0.77666 0.53311 0.0
H938 H 0.28644 0.72289 0.54467 0.0
H939 H 0.30751 0.68122 0.53114 0.0
H940 H 0.40531 0.73072 0.47232 0.0
H941 H 0.44082 0.73847 0.4905 0.0
H942 H 0.41786 0.76473 0.49005 0.0
H943 H 0.42033 0.76848 0.54979 0.0
H944 H 0.44296 0.74228 0.55046 0.0
H945 H 0.40872 0.73696 0.57301 0.0
H946 H 0.33872 0.64522 0.5307 0.0
H947 H 0.3772 0.6183 0.54336 0.0
H948 H 0.44466 0.69492 0.53434 0.0
C949 C 0.35886 0.75621 0.53168 0.0
C950 C 0.32847 0.75297 0.53993 0.0
C951 C 0.30972 0.72595 0.53794 0.0
C952 C 0.32153 0.70212 0.53026 0.0
C953 C 0.35203 0.70576 0.52429 0.0
C954 C 0.37042 0.73226 0.52446 0.0
C955 C 0.40283 0.73017 0.52309 0.0
C956 C 0.41757 0.7417 0.49214 0.0
C957 C 0.41965 0.74534 0.55074 0.0
C958 C 0.39983 0.69842 0.52505 0.0
C959 C 0.3704 0.68464 0.52453 0.0
C960 C 0.36187 0.65566 0.53026 0.0
C961 C 0.3838 0.6406 0.53773 0.0
C962 C 0.41381 0.65464 0.5398 0.0
C963 C 0.42197 0.68361 0.53215 0.0
H964 H 0.75648 0.87633 0.72674 0.0
H965 H 0.77048 0.79195 0.70509 0.0
H966 H 0.81044 0.81251 0.66756 0.0
H967 H 0.77384 0.90682 0.64635 0.0
H968 H 0.79145 0.94047 0.66207 0.0
H969 H 0.76069 0.91861 0.68279 0.0
H970 H 0.79306 0.92035 0.73116 0.0
H971 H 0.82401 0.9417 0.71059 0.0
H972 H 0.82797 0.90879 0.72805 0.0
H973 H 0.85443 0.84293 0.63977 0.0
H974 H 0.89615 0.88052 0.62111 0.0
H975 H 0.8515 0.94432 0.65978 0.0
C976 C 0.76687 0.86194 0.71313 0.0
C977 C 0.7602 0.83248 0.71889 0.0
C978 C 0.77531 0.81462 0.70129 0.0
C979 C 0.79793 0.82609 0.67976 0.0
C980 C 0.80479 0.85539 0.67573 0.0
C981 C 0.78926 0.873 0.6915 0.0
C982 C 0.80261 0.90386 0.68538 0.0
C983 C 0.78085 0.91829 0.66811 0.0
C984 C 0.8125 0.91957 0.71559 0.0
C985 C 0.82891 0.90093 0.66483 0.0
C986 C 0.82972 0.87285 0.65922 0.0
C987 C 0.85363 0.86499 0.64335 0.0
C988 C 0.87728 0.88641 0.63307 0.0
C989 C 0.87677 0.91525 0.63871 0.0
C990 C 0.85206 0.92247 0.65441 0.0
H991 H 0.66333 0.2129 0.33314 0.0
H992 H 0.57891 0.1914 0.3833 0.0
H993 H 0.55328 0.18084 0.33371 0.0
H994 H 0.63536 0.24135 0.26084 0.0
H995 H 0.66046 0.22574 0.23689 0.0
H996 H 0.67091 0.23796 0.27525 0.0
H997 H 0.68039 0.18824 0.28908 0.0
H998 H 0.67001 0.17594 0.25097 0.0
H999 H 0.65107 0.15765 0.28438 0.0
H1000 H 0.53848 0.16436 0.28009 0.0
H1001 H 0.53616 0.14192 0.22853 0.0
H1002 H 0.63052 0.17385 0.21385 0.0
C1003 C 0.63935 0.20659 0.33362 0.0
C1004 C 0.62304 0.20286 0.36193 0.0
C1005 C 0.59174 0.19464 0.36176 0.0
C1006 C 0.57704 0.18866 0.33371 0.0
C1007 C 0.59401 0.19146 0.30618 0.0
C1008 C 0.62451 0.20048 0.306 0.0
C1009 C 0.63827 0.19813 0.2742 0.0
C1010 C 0.65206 0.22755 0.26102 0.0
C1011 C 0.66126 0.17884 0.27471 0.0
C1012 C 0.611 0.18473 0.25681 0.0
C1013 C 0.58553 0.18174 0.27533 0.0
C1014 C 0.55814 0.16722 0.26516 0.0
C1015 C 0.557 0.15462 0.2358 0.0
C1016 C 0.58319 0.1563 0.21728 0.0
C1017 C 0.61018 0.17245 0.22752 0.0
H1018 H 0.42819 0.65476 0.39092 0.0
H1019 H 0.43538 0.59516 0.31722 0.0
H1020 H 0.45858 0.56662 0.3528 0.0
H1021 H 0.49867 0.64995 0.42726 0.0
H1022 H 0.48474 0.65189 0.46635 0.0
H1023 H 0.46948 0.66912 0.43552 0.0
H1024 H 0.41687 0.64188 0.44993 0.0
H1025 H 0.4312 0.62424 0.48105 0.0
H1026 H 0.40951 0.60373 0.45176 0.0
H1027 H 0.47863 0.54318 0.39586 0.0
H1028 H 0.4969 0.52673 0.44396 0.0
H1029 H 0.47739 0.60036 0.49212 0.0
C1030 C 0.43522 0.63598 0.38228 0.0
C1031 C 0.43024 0.62726 0.35114 0.0
C1032 C 0.43917 0.60228 0.34083 0.0
C1033 C 0.45228 0.58589 0.36092 0.0
C1034 C 0.45635 0.59458 0.39152 0.0
C1035 C 0.44834 0.61909 0.40229 0.0
C1036 C 0.45495 0.62299 0.43664 0.0
C1037 C 0.47834 0.6501 0.44175 0.0
C1038 C 0.42643 0.62323 0.45597 0.0
C1039 C 0.46739 0.59662 0.4434 0.0
C1040 C 0.46803 0.58073 0.41685 0.0
C1041 C 0.47838 0.5555 0.41679 0.0
C1042 C 0.48871 0.54629 0.4444 0.0
C1043 C 0.48871 0.56211 0.47211 0.0
C1044 C 0.47764 0.58763 0.4715 0.0
H1045 H 0.13349 0.4821 0.84798 0.0
H1046 H 0.09317 0.39643 0.87702 0.0
H1047 H 0.07234 0.41502 0.92352 0.0
H1048 H 0.15276 0.50759 0.92754 0.0
H1049 H 0.14526 0.54232 0.92062 0.0
H1050 H 0.15791 0.52271 0.88918 0.0
H1051 H 0.11198 0.52771 0.85801 0.0
H1052 H 0.09912 0.54721 0.88939 0.0
H1053 H 0.07534 0.5158 0.87495 0.0
H1054 H 0.05103 0.44196 0.96359 0.0
H1055 H 0.03516 0.47594 0.99918 0.0
H1056 H 0.09319 0.5452 0.95085 0.0
C1057 C 0.12063 0.46723 0.86431 0.0
C1058 C 0.11442 0.43764 0.85798 0.0
C1059 C 0.09749 0.41913 0.88031 0.0
C1060 C 0.08571 0.42949 0.90715 0.0
C1061 C 0.09141 0.45855 0.91216 0.0
C1062 C 0.10889 0.47726 0.89183 0.0
C1063 C 0.1114 0.50758 0.9035 0.0
C1064 C 0.14376 0.52084 0.91063 0.0
C1065 C 0.0987 0.52564 0.88006 0.0
C1066 C 0.09212 0.50282 0.93311 0.0
C1067 C 0.08076 0.47426 0.93727 0.0
C1068 C 0.06056 0.46429 0.9612 0.0
C1069 C 0.05188 0.48385 0.98167 0.0
C1070 C 0.06383 0.51321 0.97904 0.0
C1071 C 0.08429 0.52283 0.95419 0.0
H1072 H 0.5952 0.87371 0.95778 0.0
H1073 H 0.68317 0.9242 0.94027 0.0
H1074 H 0.66684 0.96633 0.96209 0.0
H1075 H 0.55535 0.92872 0.93734 0.0
H1076 H 0.52664 0.91848 0.96671 0.0
H1077 H 0.54535 0.89235 0.94997 0.0
H1078 H 0.55973 0.87873 1.00468 0.0
H1079 H 0.54102 0.90477 1.02157 0.0
H1080 H 0.57951 0.90582 1.02944 0.0
H1081 H 0.64152 1.00208 0.98809 0.0
H1082 H 0.60811 1.02987 1.01389 0.0
H1083 H 0.53581 0.95669 1.01141 0.0
C1084 C 0.61086 0.89371 0.95861 0.0
C1085 C 0.64038 0.89602 0.94764 0.0
C1086 C 0.66045 0.92234 0.9487 0.0
C1087 C 0.65138 0.94624 0.96101 0.0
C1088 C 0.62208 0.94341 0.97172 0.0
C1089 C 0.60202 0.91789 0.97037 0.0
C1090 C 0.57172 0.92069 0.98301 0.0
C1091 C 0.54839 0.91471 0.95774 0.0
C1092 C 0.56247 0.90136 1.01136 0.0
C1093 C 0.578 0.95163 0.99205 0.0
C1094 C 0.6072 0.96432 0.98551 0.0
C1095 C 0.61851 0.99248 0.99303 0.0
C1096 C 0.59943 1.00806 1.00771 0.0
C1097 C 0.56938 0.99549 1.01432 0.0
C1098 C 0.55857 0.96698 1.00615 0.0
H1099 H 0.8272 0.1115 0.47094 0.0
H1100 H 0.8802 0.19659 0.46772 0.0
H1101 H 0.92555 0.17751 0.47591 0.0
H1102 H 0.86238 0.08907 0.5323 0.0
H1103 H 0.86042 0.05326 0.51911 0.0
H1104 H 0.83323 0.07282 0.50711 0.0
H1105 H 0.84609 0.06425 0.44957 0.0
H1106 H 0.87329 0.04446 0.46141 0.0
H1107 H 0.88401 0.07423 0.4355 0.0
H1108 H 0.96361 0.15006 0.4902 0.0
H1109 H 0.9916 0.11655 0.51232 0.0
H1110 H 0.91346 0.04932 0.50817 0.0
C1111 C 0.84854 0.12592 0.47096 0.0
C1112 C 0.85056 0.15537 0.46827 0.0
C1113 C 0.87851 0.17391 0.46951 0.0
C1114 C 0.90428 0.16325 0.47396 0.0
C1115 C 0.90153 0.13408 0.47723 0.0
C1116 C 0.87436 0.11565 0.47583 0.0
C1117 C 0.87688 0.08569 0.48386 0.0
C1118 C 0.85706 0.07458 0.51228 0.0
C1119 C 0.86964 0.066 0.45591 0.0
C1120 C 0.90946 0.09033 0.49113 0.0
C1121 C 0.92342 0.11826 0.48648 0.0
C1122 C 0.95308 0.12805 0.49346 0.0
C1123 C 0.96877 0.10888 0.50601 0.0
C1124 C 0.95461 0.08042 0.51173 0.0
C1125 C 0.92479 0.07095 0.50371 0.0
H1126 H 0.24206 0.59554 0.14235 0.0
H1127 H 0.21676 0.66815 0.18685 0.0
H1128 H 0.16578 0.6531 0.16838 0.0
H1129 H 0.20133 0.5971 0.07511 0.0
H1130 H 0.18944 0.55935 0.07088 0.0
H1131 H 0.22332 0.57348 0.09033 0.0
H1132 H 0.2041 0.54314 0.1388 0.0
H1133 H 0.17031 0.52868 0.11928 0.0
H1134 H 0.16868 0.54553 0.15636 0.0
H1135 H 0.12038 0.63452 0.14073 0.0
H1136 H 0.08001 0.61082 0.10822 0.0
H1137 H 0.13154 0.54783 0.08175 0.0
C1138 C 0.22543 0.60766 0.14886 0.0
C1139 C 0.23308 0.63284 0.16636 0.0
C1140 C 0.21112 0.64869 0.1738 0.0
C1141 C 0.18217 0.64032 0.16336 0.0
C1142 C 0.17537 0.61589 0.14555 0.0
C1143 C 0.19608 0.59945 0.13861 0.0
C1144 C 0.1828 0.57492 0.11766 0.0
C1145 C 0.20027 0.57631 0.08666 0.0
C1146 C 0.18139 0.54638 0.13401 0.0
C1147 C 0.1518 0.58077 0.11327 0.0
C1148 C 0.14827 0.60457 0.12971 0.0
C1149 C 0.12266 0.61563 0.12811 0.0
C1150 C 0.09992 0.60209 0.10931 0.0
C1151 C 0.10256 0.57749 0.09235 0.0
C1152 C 0.12879 0.56645 0.09466 0.0
H1153 H 0.32477 0.48586 0.65839 0.0
H1154 H 0.33218 0.3985 0.67278 0.0
H1155 H 0.3814 0.40806 0.6466 0.0
H1156 H 0.35831 0.49319 0.58297 0.0
H1157 H 0.37808 0.52912 0.58783 0.0
H1158 H 0.34413 0.51637 0.60967 0.0
H1159 H 0.37141 0.5305 0.6607 0.0
H1160 H 0.40542 0.54336 0.63892 0.0
H1161 H 0.40433 0.51714 0.66884 0.0
H1162 H 0.4279 0.42543 0.61614 0.0
H1163 H 0.47018 0.45043 0.5838 0.0
H1164 H 0.43479 0.52722 0.58887 0.0
C1165 C 0.33703 0.46894 0.65647 0.0
C1166 C 0.32446 0.44133 0.66755 0.0
C1167 C 0.3411 0.41968 0.66419 0.0
C1168 C 0.36919 0.42493 0.64948 0.0
C1169 C 0.38066 0.45206 0.63823 0.0
C1170 C 0.36532 0.47383 0.64163 0.0
C1171 C 0.38258 0.50074 0.62615 0.0
C1172 C 0.36471 0.51042 0.60011 0.0
C1173 C 0.39146 0.52433 0.65009 0.0
C1174 C 0.40967 0.49047 0.61322 0.0
C1175 C 0.40802 0.4623 0.62065 0.0
C1176 C 0.4296 0.44755 0.61044 0.0
C1177 C 0.45347 0.46186 0.59204 0.0
C1178 C 0.45573 0.49066 0.58409 0.0
C1179 C 0.43368 0.50525 0.595 0.0
H1180 H 0.78962 0.67853 0.93581 0.0
H1181 H 0.80394 0.75941 0.9831 0.0
H1182 H 0.844 0.74564 1.01258 0.0
H1183 H 0.80808 0.63581 1.00221 0.0
H1184 H 0.82628 0.61446 0.97687 0.0
H1185 H 0.79557 0.62875 0.96328 0.0
H1186 H 0.8284 0.65229 0.91705 0.0
H1187 H 0.8592 0.63831 0.93059 0.0
H1188 H 0.86318 0.67587 0.92444 0.0
H1189 H 0.88755 0.72671 1.0302 0.0
H1190 H 0.92932 0.70217 1.03751 0.0
H1191 H 0.8863 0.63319 0.9799 0.0
C1192 C 0.80074 0.69306 0.95289 0.0
C1193 C 0.79353 0.71997 0.95729 0.0
C1194 C 0.80868 0.73847 0.97975 0.0
C1195 C 0.83159 0.7309 0.99651 0.0
C1196 C 0.83883 0.70461 0.99083 0.0
C1197 C 0.82357 0.68577 0.96991 0.0
C1198 C 0.83722 0.6598 0.96633 0.0
C1199 C 0.81549 0.63312 0.97787 0.0
C1200 C 0.84762 0.65639 0.93261 0.0
C1201 C 0.86327 0.66752 0.98751 0.0
C1202 C 0.86369 0.69337 1.0016 0.0
C1203 C 0.8871 0.70615 1.01992 0.0
C1204 C 0.91074 0.6922 1.02381 0.0
C1205 C 0.91065 0.66574 1.00959 0.0
C1206 C 0.88643 0.6531 0.99161 0.0
H1207 H 0.48114 0.83977 0.17451 0.0
H1208 H 0.38677 0.8398 0.17333 0.0
H1209 H 0.39738 0.88639 0.14768 0.0
H1210 H 0.50471 0.91517 0.19022 0.0
H1211 H 0.5377 0.91919 0.1658 0.0
H1212 H 0.52286 0.88565 0.18421 0.0
H1213 H 0.5203 0.86108 0.13073 0.0
H1214 H 0.53489 0.89459 0.11214 0.0
H1215 H 0.50007 0.87355 0.10029 0.0
H1216 H 0.41767 0.93269 0.12103 0.0
H1217 H 0.44684 0.97694 0.09813 0.0
H1218 H 0.5283 0.9484 0.11694 0.0
C1219 C 0.46275 0.84971 0.16913 0.0
C1220 C 0.43303 0.83572 0.1757 0.0
C1221 C 0.40968 0.8496 0.16806 0.0
C1222 C 0.41547 0.87622 0.15354 0.0
C1223 C 0.44483 0.8891 0.14679 0.0
C1224 C 0.46816 0.87649 0.15451 0.0
C1225 C 0.49766 0.89521 0.14467 0.0
C1226 C 0.51687 0.90435 0.17291 0.0
C1227 C 0.5142 0.88021 0.12052 0.0
C1228 C 0.4872 0.92023 0.13039 0.0
C1229 C 0.4566 0.91614 0.13172 0.0
C1230 C 0.44166 0.93617 0.11995 0.0
C1231 C 0.45841 0.96123 0.1069 0.0
C1232 C 0.48981 0.96621 0.10578 0.0
C1233 C 0.5043 0.94522 0.11746 0.0
H1234 H 0.11868 0.2531 0.61559 0.0
H1235 H 0.09678 0.23316 0.71239 0.0
H1236 H 0.07256 0.18458 0.69785 0.0
H1237 H 0.05115 0.21167 0.5845 0.0
H1238 H 0.06987 0.20059 0.55089 0.0
H1239 H 0.08449 0.23401 0.56891 0.0
H1240 H 0.13505 0.21891 0.57489 0.0
H1241 H 0.12043 0.18543 0.55699 0.0
H1242 H 0.13629 0.18633 0.59476 0.0
H1243 H 0.05234 0.13703 0.67264 0.0
H1244 H 0.03567 0.09579 0.63885 0.0
H1245 H 0.07099 0.14675 0.55853 0.0
C1246 C 0.10884 0.23857 0.63382 0.0
C1247 C 0.10976 0.24719 0.66527 0.0
C1248 C 0.09613 0.2274 0.68816 0.0
C1249 C 0.08249 0.19961 0.68012 0.0
C1250 C 0.08244 0.19175 0.64901 0.0
C1251 C 0.09508 0.21076 0.62619 0.0
C1252 C 0.09212 0.19701 0.59445 0.0
C1253 C 0.07328 0.21169 0.57346 0.0
C1254 C 0.1228 0.19691 0.5794 0.0
C1255 C 0.07603 0.16724 0.60298 0.0
C1256 C 0.07068 0.16459 0.63456 0.0
C1257 C 0.05635 0.13896 0.64787 0.0
C1258 C 0.04701 0.11556 0.62845 0.0
C1259 C 0.05192 0.11782 0.59593 0.0
C1260 C 0.06679 0.14413 0.58324 0.0
H1261 H 0.66678 0.29699 0.61425 0.0
H1262 H 0.75556 0.33982 0.58708 0.0
H1263 H 0.74113 0.38582 0.59429 0.0
H1264 H 0.63355 0.32911 0.56977 0.0
H1265 H 0.60142 0.33326 0.59283 0.0
H1266 H 0.6204 0.3055 0.60176 0.0
H1267 H 0.62862 0.32382 0.6578 0.0
H1268 H 0.60869 0.35147 0.64942 0.0
H1269 H 0.64555 0.36034 0.66445 0.0
H1270 H 0.7143 0.42362 0.58426 0.0
H1271 H 0.67866 0.44992 0.56278 0.0
H1272 H 0.60586 0.38292 0.59276 0.0
C1273 C 0.68351 0.31621 0.61188 0.0
C1274 C 0.71211 0.31501 0.60007 0.0
C1275 C 0.73361 0.34029 0.59656 0.0
C1276 C 0.72549 0.3666 0.60049 0.0
C1277 C 0.69595 0.36715 0.60829 0.0
C1278 C 0.67537 0.34253 0.61494 0.0
C1279 C 0.64398 0.34787 0.61556 0.0
C1280 C 0.62372 0.32778 0.59365 0.0
C1281 C 0.63095 0.34576 0.64879 0.0
C1282 C 0.64982 0.37815 0.60419 0.0
C1283 C 0.67994 0.38936 0.60157 0.0
C1284 C 0.69071 0.41541 0.58719 0.0
C1285 C 0.67033 0.43 0.57458 0.0
C1286 C 0.63953 0.4183 0.57599 0.0
C1287 C 0.62924 0.39257 0.59193 0.0
loop_
_geom_bond_atom_site_label_1
_geom_bond_atom_site_label_2
_geom_bond_distance
_geom_bond_site_symmetry_2
_ccdc_geom_bond_type
C0 C1 1.391 . S
C0 C4 1.391 . S
C0 H42 0.948 . S
C1 C0 1.391 . S
C1 C2 1.391 . S
C2 C1 1.391 . S
C2 H58 0.947 . S
C2 C59 1.392 . S
C3 C4 1.391 . S
C3 C7 1.397 . S
C3 C59 1.419 . S
C4 C0 1.391 . S
C4 C3 1.391 . S
C4 C5 1.399 . S
C5 C4 1.399 . S
C5 C8 1.396 . S
C5 C17 1.453 . S
C5 C18 1.684 . S
H6 C30 0.948 . S
C7 C3 1.397 . S
C7 C8 1.394 . S
C7 C26 1.723 . S
C8 C5 1.396 . S
C8 C7 1.394 . S
C8 C38 1.723 . S
H9 C32 0.947 . S
H10 C33 0.948 . S
H11 C39 0.982 . S
H12 C40 0.979 . S
H13 C40 0.980 . S
H14 C40 0.983 . S
H15 C39 0.979 . S
H16 C39 0.977 . S
C17 C5 1.453 . S
C17 H46 0.982 . S
C17 H47 0.979 . S
C17 H48 0.977 . S
C18 C5 1.684 . S
C18 H43 0.979 . S
C18 H44 0.980 . S
C18 H45 0.983 . S
C19 C20 1.391 . S
C19 C24 1.391 . S
C19 H49 0.948 . S
C20 C19 1.391 . S
C20 C21 1.391 . S
C21 C20 1.391 . S
C21 C22 1.392 . S
C21 H50 0.947 . S
C22 C21 1.392 . S
C22 C23 1.419 . S
C22 H51 0.948 . S
C23 C22 1.419 . S
C23 C24 1.391 . S
C23 C27 1.397 . S
C24 C19 1.391 . S
C24 C23 1.391 . S
C24 C25 1.399 . S
C25 C24 1.399 . S
C25 C26 1.396 . S
C25 C28 1.453 . S
C25 C29 1.684 . S
C26 C7 1.723 . S
C26 C25 1.396 . S
C26 C27 1.394 . S
C27 C23 1.397 . S
C27 C26 1.394 . S
C27 C37 1.723 . S
C28 C25 1.453 . S
C28 H52 0.982 . S
C28 H53 0.979 . S
C28 H54 0.977 . S
C29 C25 1.684 . S
C29 H55 0.979 . S
C29 H56 0.980 . S
C29 H57 0.983 . S
C30 H6 0.948 . S
C30 C31 1.391 . S
C30 C35 1.391 . S
C31 C30 1.391 . S
C31 C32 1.391 . S
C32 H9 0.947 . S
C32 C31 1.391 . S
C32 C33 1.392 . S
C33 H10 0.948 . S
C33 C32 1.392 . S
C33 C34 1.419 . S
C34 C33 1.419 . S
C34 C35 1.391 . S
C34 C38 1.397 . S
C35 C30 1.391 . S
C35 C34 1.391 . S
C35 C36 1.399 . S
C36 C35 1.399 . S
C36 C37 1.396 . S
C36 C39 1.453 . S
C36 C40 1.684 . S
C37 C27 1.723 . S
C37 C36 1.396 . S
C37 C38 1.394 . S
C38 C8 1.723 . S
C38 C34 1.397 . S
C38 C37 1.394 . S
C39 H11 0.982 . S
C39 H15 0.979 . S
C39 H16 0.977 . S
C39 C36 1.453 . S
C40 H12 0.979 . S
C40 H13 0.980 . S
C40 H14 0.983 . S
C40 C36 1.684 . S
H41 C59 0.948 . S
H42 C0 0.948 . S
H43 C18 0.979 . S
H44 C18 0.980 . S
H45 C18 0.983 . S
H46 C17 0.982 . S
H47 C17 0.979 . S
H48 C17 0.977 . S
H49 C19 0.948 . S
H50 C21 0.947 . S
H51 C22 0.948 . S
H52 C28 0.982 . S
H53 C28 0.979 . S
H54 C28 0.977 . S
H55 C29 0.979 . S
H56 C29 0.980 . S
H57 C29 0.983 . S
H58 C2 0.947 . S
C59 C2 1.392 . S
C59 C3 1.419 . S
C59 H41 0.948 . S
C60 C61 1.391 . S
C60 C64 1.391 . S
C60 H102 0.948 . S
C61 C60 1.391 . S
C61 C62 1.391 . S
C62 C61 1.391 . S
C62 H118 0.947 . S
C62 C119 1.392 . S
C63 C64 1.391 . S
C63 C67 1.397 . S
C63 C119 1.419 . S
C64 C60 1.391 . S
C64 C63 1.391 . S
C64 C65 1.399 . S
C65 C64 1.399 . S
C65 C68 1.396 . S
C65 C77 1.453 . S
C65 C78 1.684 . S
H66 C90 0.948 . S
C67 C63 1.397 . S
C67 C68 1.394 . S
C67 C86 1.723 . S
C68 C65 1.396 . S
C68 C67 1.394 . S
C68 C98 1.723 . S
H69 C92 0.947 . S
H70 C93 0.948 . S
H71 C99 0.982 . S
H72 C100 0.979 . S
H73 C100 0.980 . S
H74 C100 0.983 . S
H75 C99 0.979 . S
H76 C99 0.977 . S
C77 C65 1.453 . S
C77 H106 0.982 . S
C77 H107 0.979 . S
C77 H108 0.977 . S
C78 C65 1.684 . S
C78 H103 0.979 . S
C78 H104 0.980 . S
C78 H105 0.983 . S
C79 C80 1.391 . S
C79 C84 1.391 . S
C79 H109 0.948 . S
C80 C79 1.391 . S
C80 C81 1.391 . S
C81 C80 1.391 . S
C81 C82 1.392 . S
C81 H110 0.947 . S
C82 C81 1.392 . S
C82 C83 1.419 . S
C82 H111 0.948 . S
C83 C82 1.419 . S
C83 C84 1.391 . S
C83 C87 1.397 . S
C84 C79 1.391 . S
C84 C83 1.391 . S
C84 C85 1.399 . S
C85 C84 1.399 . S
C85 C86 1.396 . S
C85 C88 1.453 . S
C85 C89 1.684 . S
C86 C67 1.723 . S
C86 C85 1.396 . S
C86 C87 1.394 . S
C87 C83 1.397 . S
C87 C86 1.394 . S
C87 C97 1.723 . S
C88 C85 1.453 . S
C88 H112 0.982 . S
C88 H113 0.979 . S
C88 H114 0.977 . S
C89 C85 1.684 . S
C89 H115 0.979 . S
C89 H116 0.980 . S
C89 H117 0.983 . S
C90 H66 0.948 . S
C90 C91 1.391 . S
C90 C95 1.391 . S
C91 C90 1.391 . S
C91 C92 1.391 . S
C92 H69 0.947 . S
C92 C91 1.391 . S
C92 C93 1.392 . S
C93 H70 0.948 . S
C93 C92 1.392 . S
C93 C94 1.419 . S
C94 C93 1.419 . S
C94 C95 1.391 . S
C94 C98 1.397 . S
C95 C90 1.391 . S
C95 C94 1.391 . S
C95 C96 1.399 . S
C96 C95 1.399 . S
C96 C97 1.396 . S
C96 C99 1.453 . S
C96 C100 1.684 . S
C97 C87 1.723 . S
C97 C96 1.396 . S
C97 C98 1.394 . S
C98 C68 1.723 . S
C98 C94 1.397 . S
C98 C97 1.394 . S
C99 H71 0.982 . S
C99 H75 0.979 . S
C99 H76 0.977 . S
C99 C96 1.453 . S
C100 H72 0.979 . S
C100 H73 0.980 . S
C100 H74 0.983 . S
C100 C96 1.684 . S
H101 C119 0.948 . S
H102 C60 0.948 . S
H103 C78 0.979 . S
H104 C78 0.980 . S
H105 C78 0.983 . S
H106 C77 0.982 . S
H107 C77 0.979 . S
H108 C77 0.977 . S
H109 C79 0.948 . S
H110 C81 0.947 . S
H111 C82 0.948 . S
H112 C88 0.982 . S
H113 C88 0.979 . S
H114 C88 0.977 . S
H115 C89 0.979 . S
H116 C89 0.980 . S
H117 C89 0.983 . S
H118 C62 0.947 . S
C119 C62 1.392 . S
C119 C63 1.419 . S
C119 H101 0.948 . S
C120 C121 1.391 . S
C120 C124 1.391 . S
C120 H162 0.948 . S
C121 C120 1.391 . S
C121 C122 1.391 . S
C122 C121 1.391 . S
C122 H178 0.947 . S
C122 C179 1.392 . S
C123 C124 1.391 . S
C123 C127 1.397 . S
C123 C179 1.419 . S
C124 C120 1.391 . S
C124 C123 1.391 . S
C124 C125 1.399 . S
C125 C124 1.399 . S
C125 C128 1.396 . S
C125 C137 1.453 . S
C125 C138 1.684 . S
H126 C150 0.948 . S
C127 C123 1.397 . S
C127 C128 1.394 . S
C127 C146 1.723 . S
C128 C125 1.396 . S
C128 C127 1.394 . S
C128 C158 1.723 . S
H129 C152 0.947 . S
H130 C153 0.948 . S
H131 C159 0.982 . S
H132 C160 0.979 . S
H133 C160 0.980 . S
H134 C160 0.983 . S
H135 C159 0.979 . S
H136 C159 0.977 . S
C137 C125 1.453 . S
C137 H166 0.982 . S
C137 H167 0.979 . S
C137 H168 0.977 . S
C138 C125 1.684 . S
C138 H163 0.979 . S
C138 H164 0.980 . S
C138 H165 0.983 . S
C139 C140 1.391 . S
C139 C144 1.391 . S
C139 H169 0.948 . S
C140 C139 1.391 . S
C140 C141 1.391 . S
C141 C140 1.391 . S
C141 C142 1.392 . S
C141 H170 0.947 . S
C142 C141 1.392 . S
C142 C143 1.419 . S
C142 H171 0.948 . S
C143 C142 1.419 . S
C143 C144 1.391 . S
C143 C147 1.397 . S
C144 C139 1.391 . S
C144 C143 1.391 . S
C144 C145 1.399 . S
C145 C144 1.399 . S
C145 C146 1.396 . S
C145 C148 1.453 . S
C145 C149 1.684 . S
C146 C127 1.723 . S
C146 C145 1.396 . S
C146 C147 1.394 . S
C147 C143 1.397 . S
C147 C146 1.394 . S
C147 C157 1.723 . S
C148 C145 1.453 . S
C148 H172 0.982 . S
C148 H173 0.979 . S
C148 H174 0.977 . S
C149 C145 1.684 . S
C149 H175 0.979 . S
C149 H176 0.980 . S
C149 H177 0.983 . S
C150 H126 0.948 . S
C150 C151 1.391 . S
C150 C155 1.391 . S
C151 C150 1.391 . S
C151 C152 1.391 . S
C152 H129 0.947 . S
C152 C151 1.391 . S
C152 C153 1.392 . S
C153 H130 0.948 . S
C153 C152 1.392 . S
C153 C154 1.419 . S
C154 C153 1.419 . S
C154 C155 1.391 . S
C154 C158 1.397 . S
C155 C150 1.391 . S
C155 C154 1.391 . S
C155 C156 1.399 . S
C156 C155 1.399 . S
C156 C157 1.396 . S
C156 C159 1.453 . S
C156 C160 1.684 . S
C157 C147 1.723 . S
C157 C156 1.396 . S
C157 C158 1.394 . S
C158 C128 1.723 . S
C158 C154 1.397 . S
C158 C157 1.394 . S
C159 H131 0.982 . S
C159 H135 0.979 . S
C159 H136 0.977 . S
C159 C156 1.453 . S
C160 H132 0.979 . S
C160 H133 0.980 . S
C160 H134 0.983 . S
C160 C156 1.684 . S
H161 C179 0.948 . S
H162 C120 0.948 . S
H163 C138 0.979 . S
H164 C138 0.980 . S
H165 C138 0.983 . S
H166 C137 0.982 . S
H167 C137 0.979 . S
H168 C137 0.977 . S
H169 C139 0.948 . S
H170 C141 0.947 . S
H171 C142 0.948 . S
H172 C148 0.982 . S
H173 C148 0.979 . S
H174 C148 0.977 . S
H175 C149 0.979 . S
H176 C149 0.980 . S
H177 C149 0.983 . S
H178 C122 0.947 . S
C179 C122 1.392 . S
C179 C123 1.419 . S
C179 H161 0.948 . S
C180 C181 1.391 . S
C180 C184 1.391 . S
C180 H222 0.948 . S
C181 C180 1.391 . S
C181 C182 1.391 . S
C182 C181 1.391 . S
C182 H238 0.947 . S
C182 C239 1.392 . S
C183 C184 1.391 . S
C183 C187 1.397 . S
C183 C239 1.419 . S
C184 C180 1.391 . S
C184 C183 1.391 . S
C184 C185 1.399 . S
C185 C184 1.399 . S
C185 C188 1.396 . S
C185 C197 1.453 . S
C185 C198 1.684 . S
H186 C210 0.948 . S
C187 C183 1.397 . S
C187 C188 1.394 . S
C187 C206 1.723 . S
C188 C185 1.396 . S
C188 C187 1.394 . S
C188 C218 1.723 . S
H189 C212 0.947 . S
H190 C213 0.948 . S
H191 C219 0.982 . S
H192 C220 0.979 . S
H193 C220 0.980 . S
H194 C220 0.983 . S
H195 C219 0.979 . S
H196 C219 0.977 . S
C197 C185 1.453 . S
C197 H226 0.982 . S
C197 H227 0.979 . S
C197 H228 0.977 . S
C198 C185 1.684 . S
C198 H223 0.979 . S
C198 H224 0.980 . S
C198 H225 0.983 . S
C199 C200 1.391 . S
C199 C204 1.391 . S
C199 H229 0.948 . S
C200 C199 1.391 . S
C200 C201 1.391 . S
C201 C200 1.391 . S
C201 C202 1.392 . S
C201 H230 0.947 . S
C202 C201 1.392 . S
C202 C203 1.419 . S
C202 H231 0.948 . S
C203 C202 1.419 . S
C203 C204 1.391 . S
C203 C207 1.397 . S
C204 C199 1.391 . S
C204 C203 1.391 . S
C204 C205 1.399 . S
C205 C204 1.399 . S
C205 C206 1.396 . S
C205 C208 1.453 . S
C205 C209 1.684 . S
C206 C187 1.723 . S
C206 C205 1.396 . S
C206 C207 1.394 . S
C207 C203 1.397 . S
C207 C206 1.394 . S
C207 C217 1.723 . S
C208 C205 1.453 . S
C208 H232 0.982 . S
C208 H233 0.979 . S
C208 H234 0.977 . S
C209 C205 1.684 . S
C209 H235 0.979 . S
C209 H236 0.980 . S
C209 H237 0.983 . S
C210 H186 0.948 . S
C210 C211 1.391 . S
C210 C215 1.391 . S
C211 C210 1.391 . S
C211 C212 1.391 . S
C212 H189 0.947 . S
C212 C211 1.391 . S
C212 C213 1.392 . S
C213 H190 0.948 . S
C213 C212 1.392 . S
C213 C214 1.419 . S
C214 C213 1.419 . S
C214 C215 1.391 . S
C214 C218 1.397 . S
C215 C210 1.391 . S
C215 C214 1.391 . S
C215 C216 1.399 . S
C216 C215 1.399 . S
C216 C217 1.396 . S
C216 C219 1.453 . S
C216 C220 1.684 . S
C217 C207 1.723 . S
C217 C216 1.396 . S
C217 C218 1.394 . S
C218 C188 1.723 . S
C218 C214 1.397 . S
C218 C217 1.394 . S
C219 H191 0.982 . S
C219 H195 0.979 . S
C219 H196 0.977 . S
C219 C216 1.453 . S
C220 H192 0.979 . S
C220 H193 0.980 . S
C220 H194 0.983 . S
C220 C216 1.684 . S
H221 C239 0.948 . S
H222 C180 0.948 . S
H223 C198 0.979 . S
H224 C198 0.980 . S
H225 C198 0.983 . S
H226 C197 0.982 . S
H227 C197 0.979 . S
H228 C197 0.977 . S
H229 C199 0.948 . S
H230 C201 0.947 . S
H231 C202 0.948 . S
H232 C208 0.982 . S
H233 C208 0.979 . S
H234 C208 0.977 . S
H235 C209 0.979 . S
H236 C209 0.980 . S
H237 C209 0.983 . S
H238 C182 0.947 . S
C239 C182 1.392 . S
C239 C183 1.419 . S
C239 H221 0.948 . S
C240 C241 1.391 . S
C240 C244 1.391 . S
C240 H282 0.948 . S
C241 C240 1.391 . S
C241 C242 1.391 . S
C242 C241 1.391 . S
C242 H298 0.947 . S
C242 C299 1.392 . S
C243 C244 1.391 . S
C243 C247 1.397 . S
C243 C299 1.419 . S
C244 C240 1.391 . S
C244 C243 1.391 . S
C244 C245 1.399 . S
C245 C244 1.399 . S
C245 C248 1.396 . S
C245 C257 1.453 . S
C245 C258 1.684 . S
H246 C270 0.948 . S
C247 C243 1.397 . S
C247 C248 1.394 . S
C247 C266 1.723 . S
C248 C245 1.396 . S
C248 C247 1.394 . S
C248 C278 1.723 . S
H249 C272 0.947 . S
H250 C273 0.948 . S
H251 C279 0.982 . S
H252 C280 0.979 . S
H253 C280 0.980 . S
H254 C280 0.983 . S
H255 C279 0.979 . S
H256 C279 0.977 . S
C257 C245 1.453 . S
C257 H286 0.982 . S
C257 H287 0.979 . S
C257 H288 0.977 . S
C258 C245 1.684 . S
C258 H283 0.979 . S
C258 H284 0.980 . S
C258 H285 0.983 . S
C259 C260 1.391 . S
C259 C264 1.391 . S
C259 H289 0.948 . S
C260 C259 1.391 . S
C260 C261 1.391 . S
C261 C260 1.391 . S
C261 C262 1.392 . S
C261 H290 0.947 . S
C262 C261 1.392 . S
C262 C263 1.419 . S
C262 H291 0.948 . S
C263 C262 1.419 . S
C263 C264 1.391 . S
C263 C267 1.397 . S
C264 C259 1.391 . S
C264 C263 1.391 . S
C264 C265 1.399 . S
C265 C264 1.399 . S
C265 C266 1.396 . S
C265 C268 1.453 . S
C265 C269 1.684 . S
C266 C247 1.723 . S
C266 C265 1.396 . S
C266 C267 1.394 . S
C267 C263 1.397 . S
C267 C266 1.394 . S
C267 C277 1.723 . S
C268 C265 1.453 . S
C268 H292 0.982 . S
C268 H293 0.979 . S
C268 H294 0.977 . S
C269 C265 1.684 . S
C269 H295 0.979 . S
C269 H296 0.980 . S
C269 H297 0.983 . S
C270 H246 0.948 . S
C270 C271 1.391 . S
C270 C275 1.391 . S
C271 C270 1.391 . S
C271 C272 1.391 . S
C272 H249 0.947 . S
C272 C271 1.391 . S
C272 C273 1.392 . S
C273 H250 0.948 . S
C273 C272 1.392 . S
C273 C274 1.419 . S
C274 C273 1.419 . S
C274 C275 1.391 . S
C274 C278 1.397 . S
C275 C270 1.391 . S
C275 C274 1.391 . S
C275 C276 1.399 . S
C276 C275 1.399 . S
C276 C277 1.396 . S
C276 C279 1.453 . S
C276 C280 1.684 . S
C277 C267 1.723 . S
C277 C276 1.396 . S
C277 C278 1.394 . S
C278 C248 1.723 . S
C278 C274 1.397 . S
C278 C277 1.394 . S
C279 H251 0.982 . S
C279 H255 0.979 . S
C279 H256 0.977 . S
C279 C276 1.453 . S
C280 H252 0.979 . S
C280 H253 0.980 . S
C280 H254 0.983 . S
C280 C276 1.684 . S
H281 C299 0.948 . S
H282 C240 0.948 . S
H283 C258 0.979 . S
H284 C258 0.980 . S
H285 C258 0.983 . S
H286 C257 0.982 . S
H287 C257 0.979 . S
H288 C257 0.977 . S
H289 C259 0.948 . S
H290 C261 0.947 . S
H291 C262 0.948 . S
H292 C268 0.982 . S
H293 C268 0.979 . S
H294 C268 0.977 . S
H295 C269 0.979 . S
H296 C269 0.980 . S
H297 C269 0.983 . S
H298 C242 0.947 . S
C299 C242 1.392 . S
C299 C243 1.419 . S
C299 H281 0.948 . S
C300 C301 1.391 . S
C300 C304 1.391 . S
C300 H342 0.948 . S
C301 C300 1.391 . S
C301 C302 1.391 . S
C302 C301 1.391 . S
C302 H358 0.947 . S
C302 C359 1.392 . S
C303 C304 1.391 . S
C303 C307 1.397 . S
C303 C359 1.419 . S
C304 C300 1.391 . S
C304 C303 1.391 . S
C304 C305 1.399 . S
C305 C304 1.399 . S
C305 C308 1.396 . S
C305 C317 1.453 . S
C305 C318 1.684 . S
H306 C330 0.948 . S
C307 C303 1.397 . S
C307 C308 1.394 . S
C307 C326 1.723 . S
C308 C305 1.396 . S
C308 C307 1.394 . S
C308 C338 1.723 . S
H309 C332 0.947 . S
H310 C333 0.948 . S
H311 C339 0.982 . S
H312 C340 0.979 . S
H313 C340 0.980 . S
H314 C340 0.983 . S
H315 C339 0.979 . S
H316 C339 0.977 . S
C317 C305 1.453 . S
C317 H346 0.982 . S
C317 H347 0.979 . S
C317 H348 0.977 . S
C318 C305 1.684 . S
C318 H343 0.979 . S
C318 H344 0.980 . S
C318 H345 0.983 . S
C319 C320 1.391 . S
C319 C324 1.391 . S
C319 H349 0.948 . S
C320 C319 1.391 . S
C320 C321 1.391 . S
C321 C320 1.391 . S
C321 C322 1.392 . S
C321 H350 0.947 . S
C322 C321 1.392 . S
C322 C323 1.419 . S
C322 H351 0.948 . S
C323 C322 1.419 . S
C323 C324 1.391 . S
C323 C327 1.397 . S
C324 C319 1.391 . S
C324 C323 1.391 . S
C324 C325 1.399 . S
C325 C324 1.399 . S
C325 C326 1.396 . S
C325 C328 1.453 . S
C325 C329 1.684 . S
C326 C307 1.723 . S
C326 C325 1.396 . S
C326 C327 1.394 . S
C327 C323 1.397 . S
C327 C326 1.394 . S
C327 C337 1.723 . S
C328 C325 1.453 . S
C328 H352 0.982 . S
C328 H353 0.979 . S
C328 H354 0.977 . S
C329 C325 1.684 . S
C329 H355 0.979 . S
C329 H356 0.980 . S
C329 H357 0.983 . S
C330 H306 0.948 . S
C330 C331 1.391 . S
C330 C335 1.391 . S
C331 C330 1.391 . S
C331 C332 1.391 . S
C332 H309 0.947 . S
C332 C331 1.391 . S
C332 C333 1.392 . S
C333 H310 0.948 . S
C333 C332 1.392 . S
C333 C334 1.419 . S
C334 C333 1.419 . S
C334 C335 1.391 . S
C334 C338 1.397 . S
C335 C330 1.391 . S
C335 C334 1.391 . S
C335 C336 1.399 . S
C336 C335 1.399 . S
C336 C337 1.396 . S
C336 C339 1.453 . S
C336 C340 1.684 . S
C337 C327 1.723 . S
C337 C336 1.396 . S
C337 C338 1.394 . S
C338 C308 1.723 . S
C338 C334 1.397 . S
C338 C337 1.394 . S
C339 H311 0.982 . S
C339 H315 0.979 . S
C339 H316 0.977 . S
C339 C336 1.453 . S
C340 H312 0.979 . S
C340 H313 0.980 . S
C340 H314 0.983 . S
C340 C336 1.684 . S
H341 C359 0.948 . S
H342 C300 0.948 . S
H343 C318 0.979 . S
H344 C318 0.980 . S
H345 C318 0.983 . S
H346 C317 0.982 . S
H347 C317 0.979 . S
H348 C317 0.977 . S
H349 C319 0.948 . S
H350 C321 0.947 . S
H351 C322 0.948 . S
H352 C328 0.982 . S
H353 C328 0.979 . S
H354 C328 0.977 . S
H355 C329 0.979 . S
H356 C329 0.980 . S
H357 C329 0.983 . S
H358 C302 0.947 . S
C359 C302 1.392 . S
C359 C303 1.419 . S
C359 H341 0.948 . S
C360 C361 1.391 . S
C360 C364 1.391 . S
C360 H402 0.948 . S
C361 C360 1.391 . S
C361 C362 1.391 . S
C362 C361 1.391 . S
C362 H418 0.947 . S
C362 C419 1.392 . S
C363 C364 1.391 . S
C363 C367 1.397 . S
C363 C419 1.419 . S
C364 C360 1.391 . S
C364 C363 1.391 . S
C364 C365 1.399 . S
C365 C364 1.399 . S
C365 C368 1.396 . S
C365 C377 1.453 . S
C365 C378 1.684 . S
H366 C390 0.948 . S
C367 C363 1.397 . S
C367 C368 1.394 . S
C367 C386 1.723 . S
C368 C365 1.396 . S
C368 C367 1.394 . S
C368 C398 1.723 . S
H369 C392 0.947 . S
H370 C393 0.948 . S
H371 C399 0.982 . S
H372 C400 0.979 . S
H373 C400 0.980 . S
H374 C400 0.983 . S
H375 C399 0.979 . S
H376 C399 0.977 . S
C377 C365 1.453 . S
C377 H406 0.982 . S
C377 H407 0.979 . S
C377 H408 0.977 . S
C378 C365 1.684 . S
C378 H403 0.979 . S
C378 H404 0.980 . S
C378 H405 0.983 . S
C379 C380 1.391 . S
C379 C384 1.391 . S
C379 H409 0.948 . S
C380 C379 1.391 . S
C380 C381 1.391 . S
C381 C380 1.391 . S
C381 C382 1.392 . S
C381 H410 0.947 . S
C382 C381 1.392 . S
C382 C383 1.419 . S
C382 H411 0.948 . S
C383 C382 1.419 . S
C383 C384 1.391 . S
C383 C387 1.397 . S
C384 C379 1.391 . S
C384 C383 1.391 . S
C384 C385 1.399 . S
C385 C384 1.399 . S
C385 C386 1.396 . S
C385 C388 1.453 . S
C385 C389 1.684 . S
C386 C367 1.723 . S
C386 C385 1.396 . S
C386 C387 1.394 . S
C387 C383 1.397 . S
C387 C386 1.394 . S
C387 C397 1.723 . S
C388 C385 1.453 . S
C388 H412 0.982 . S
C388 H413 0.979 . S
C388 H414 0.977 . S
C389 C385 1.684 . S
C389 H415 0.979 . S
C389 H416 0.980 . S
C389 H417 0.983 . S
C390 H366 0.948 . S
C390 C391 1.391 . S
C390 C395 1.391 . S
C391 C390 1.391 . S
C391 C392 1.391 . S
C392 H369 0.947 . S
C392 C391 1.391 . S
C392 C393 1.392 . S
C393 H370 0.948 . S
C393 C392 1.392 . S
C393 C394 1.419 . S
C394 C393 1.419 . S
C394 C395 1.391 . S
C394 C398 1.397 . S
C395 C390 1.391 . S
C395 C394 1.391 . S
C395 C396 1.399 . S
C396 C395 1.399 . S
C396 C397 1.396 . S
C396 C399 1.453 . S
C396 C400 1.684 . S
C397 C387 1.723 . S
C397 C396 1.396 . S
C397 C398 1.394 . S
C398 C368 1.723 . S
C398 C394 1.397 . S
C398 C397 1.394 . S
C399 H371 0.982 . S
C399 H375 0.979 . S
C399 H376 0.977 . S
C399 C396 1.453 . S
C400 H372 0.979 . S
C400 H373 0.980 . S
C400 H374 0.983 . S
C400 C396 1.684 . S
H401 C419 0.948 . S
H402 C360 0.948 . S
H403 C378 0.979 . S
H404 C378 0.980 . S
H405 C378 0.983 . S
H406 C377 0.982 . S
H407 C377 0.979 . S
H408 C377 0.977 . S
H409 C379 0.948 . S
H410 C381 0.947 . S
H411 C382 0.948 . S
H412 C388 0.982 . S
H413 C388 0.979 . S
H414 C388 0.977 . S
H415 C389 0.979 . S
H416 C389 0.980 . S
H417 C389 0.983 . S
H418 C362 0.947 . S
C419 C362 1.392 . S
C419 C363 1.419 . S
C419 H401 0.948 . S
C420 C421 1.391 . S
C420 C424 1.391 . S
C420 H462 0.948 . S
C421 C420 1.391 . S
C421 C422 1.391 . S
C422 C421 1.391 . S
C422 H478 0.947 . S
C422 C479 1.392 . S
C423 C424 1.391 . S
C423 C427 1.397 . S
C423 C479 1.419 . S
C424 C420 1.391 . S
C424 C423 1.391 . S
C424 C425 1.399 . S
C425 C424 1.399 . S
C425 C428 1.396 . S
C425 C437 1.453 . S
C425 C438 1.684 . S
H426 C450 0.948 . S
C427 C423 1.397 . S
C427 C428 1.394 . S
C427 C446 1.723 . S
C428 C425 1.396 . S
C428 C427 1.394 . S
C428 C458 1.723 . S
H429 C452 0.947 . S
H430 C453 0.948 . S
H431 C459 0.982 . S
H432 C460 0.979 . S
H433 C460 0.980 . S
H434 C460 0.983 . S
H435 C459 0.979 . S
H436 C459 0.977 . S
C437 C425 1.453 . S
C437 H466 0.982 . S
C437 H467 0.979 . S
C437 H468 0.977 . S
C438 C425 1.684 . S
C438 H463 0.979 . S
C438 H464 0.980 . S
C438 H465 0.983 . S
C439 C440 1.391 . S
C439 C444 1.391 . S
C439 H469 0.948 . S
C440 C439 1.391 . S
C440 C441 1.391 . S
C441 C440 1.391 . S
C441 C442 1.392 . S
C441 H470 0.947 . S
C442 C441 1.392 . S
C442 C443 1.419 . S
C442 H471 0.948 . S
C443 C442 1.419 . S
C443 C444 1.391 . S
C443 C447 1.397 . S
C444 C439 1.391 . S
C444 C443 1.391 . S
C444 C445 1.399 . S
C445 C444 1.399 . S
C445 C446 1.396 . S
C445 C448 1.453 . S
C445 C449 1.684 . S
C446 C427 1.723 . S
C446 C445 1.396 . S
C446 C447 1.394 . S
C447 C443 1.397 . S
C447 C446 1.394 . S
C447 C457 1.723 . S
C448 C445 1.453 . S
C448 H472 0.982 . S
C448 H473 0.979 . S
C448 H474 0.977 . S
C449 C445 1.684 . S
C449 H475 0.979 . S
C449 H476 0.980 . S
C449 H477 0.983 . S
C450 H426 0.948 . S
C450 C451 1.391 . S
C450 C455 1.391 . S
C451 C450 1.391 . S
C451 C452 1.391 . S
C452 H429 0.947 . S
C452 C451 1.391 . S
C452 C453 1.392 . S
C453 H430 0.948 . S
C453 C452 1.392 . S
C453 C454 1.419 . S
C454 C453 1.419 . S
C454 C455 1.391 . S
C454 C458 1.397 . S
C455 C450 1.391 . S
C455 C454 1.391 . S
C455 C456 1.399 . S
C456 C455 1.399 . S
C456 C457 1.396 . S
C456 C459 1.453 . S
C456 C460 1.684 . S
C457 C447 1.723 . S
C457 C456 1.396 . S
C457 C458 1.394 . S
C458 C428 1.723 . S
C458 C454 1.397 . S
C458 C457 1.394 . S
C459 H431 0.982 . S
C459 H435 0.979 . S
C459 H436 0.977 . S
C459 C456 1.453 . S
C460 H432 0.979 . S
C460 H433 0.980 . S
C460 H434 0.983 . S
C460 C456 1.684 . S
H461 C479 0.948 . S
H462 C420 0.948 . S
H463 C438 0.979 . S
H464 C438 0.980 . S
H465 C438 0.983 . S
H466 C437 0.982 . S
H467 C437 0.979 . S
H468 C437 0.977 . S
H469 C439 0.948 . S
H470 C441 0.947 . S
H471 C442 0.948 . S
H472 C448 0.982 . S
H473 C448 0.979 . S
H474 C448 0.977 . S
H475 C449 0.979 . S
H476 C449 0.980 . S
H477 C449 0.983 . S
H478 C422 0.947 . S
C479 C422 1.392 . S
C479 C423 1.419 . S
C479 H461 0.948 . S
La480 C482 2.928 . S
La480 O500 2.521 . S
La480 O501 2.628 . S
La480 O502 2.554 1_545 S
La480 O503 2.757 1_545 S
La480 O504 2.470 . S
La480 O509 2.482 1_455 S
La480 O511 2.503 1_445 S
La481 C491 2.928 . S
La481 O503 2.482 1_655 S
La481 O505 2.503 1_665 S
La481 O506 2.521 . S
La481 O507 2.628 . S
La481 O508 2.554 1_565 S
La481 O509 2.757 1_565 S
La481 O510 2.470 . S
C482 La480 2.928 . S
C482 C483 1.503 . S
C482 O500 1.261 . S
C482 O501 1.243 . S
C483 C482 1.503 . S
C483 C484 1.394 . S
C483 C488 1.373 . S
C484 C483 1.394 . S
C484 C485 1.380 . S
C484 H512 0.930 . S
C485 C484 1.380 . S
C485 C486 1.376 . S
C485 H513 0.930 . S
C486 C485 1.376 . S
C486 C487 1.370 . S
C487 C486 1.370 . S
C487 C488 1.396 . S
C487 H514 0.929 . S
C488 C483 1.373 . S
C488 C487 1.396 . S
C488 H515 0.929 . S
C489 O502 1.240 . S
C489 O503 1.289 . S
C490 O504 1.258 . S
C490 O505 1.256 . S
C491 La481 2.928 . S
C491 C492 1.503 . S
C491 O506 1.261 . S
C491 O507 1.243 . S
C492 C491 1.503 . S
C492 C493 1.394 . S
C492 C497 1.373 . S
C493 C492 1.394 . S
C493 C494 1.380 . S
C493 H516 0.930 . S
C494 C493 1.380 . S
C494 C495 1.376 . S
C494 H517 0.930 . S
C495 C494 1.376 . S
C495 C496 1.370 . S
C496 C495 1.370 . S
C496 C497 1.396 . S
C496 H518 0.929 . S
C497 C492 1.373 . S
C497 C496 1.396 . S
C497 H519 0.929 . S
C498 O508 1.240 . S
C498 O509 1.289 . S
C499 O510 1.258 . S
C499 O511 1.256 . S
O500 La480 2.521 . S
O500 C482 1.261 . S
O501 La480 2.628 . S
O501 C482 1.243 . S
O502 La480 2.554 1_565 S
O502 C489 1.240 . S
O503 La480 2.757 1_565 S
O503 La481 2.482 1_455 S
O503 C489 1.289 . S
O504 La480 2.470 . S
O504 C490 1.258 . S
O505 La481 2.503 1_445 S
O505 C490 1.256 . S
O506 La481 2.521 . S
O506 C491 1.261 . S
O507 La481 2.628 . S
O507 C491 1.243 . S
O508 La481 2.554 1_545 S
O508 C498 1.240 . S
O509 La480 2.482 1_655 S
O509 La481 2.757 1_545 S
O509 C498 1.289 . S
O510 La481 2.470 . S
O510 C499 1.258 . S
O511 La480 2.503 1_665 S
O511 C499 1.256 . S
H512 C484 0.930 . S
H513 C485 0.930 . S
H514 C487 0.929 . S
H515 C488 0.929 . S
H516 C493 0.930 . S
H517 C494 0.930 . S
H518 C496 0.929 . S
H519 C497 0.929 . S
La520 C522 2.910 1_565 S
La520 O540 2.519 1_565 S
La520 O541 2.597 1_565 S
La520 O542 2.582 . S
La520 O543 2.772 . S
La520 O544 2.451 1_565 S
La520 O549 2.456 1_564 S
La520 O551 2.524 1_554 S
La521 C531 2.928 1_545 S
La521 O543 2.482 1_546 S
La521 O545 2.503 1_556 S
La521 O546 2.521 1_545 S
La521 O547 2.628 1_545 S
La521 O548 2.554 . S
La521 O549 2.757 . S
La521 O550 2.470 1_545 S
C522 La520 2.910 1_545 S
C522 C523 1.503 . S
C522 O540 1.261 . S
C522 O541 1.243 . S
C523 C522 1.503 . S
C523 C524 1.394 . S
C523 C528 1.373 . S
C524 C523 1.394 . S
C524 C525 1.380 . S
C524 H552 0.930 . S
C525 C524 1.380 . S
C525 C526 1.376 . S
C525 H553 0.930 . S
C526 C525 1.376 . S
C526 C527 1.370 . S
C527 C526 1.370 . S
C527 C528 1.396 . S
C527 H554 0.929 . S
C528 C523 1.373 . S
C528 C527 1.396 . S
C528 H555 0.929 . S
C529 O542 1.240 . S
C529 O543 1.289 . S
C530 O544 1.258 . S
C530 O545 1.256 . S
C531 La521 2.928 1_565 S
C531 C532 1.503 . S
C531 O546 1.261 . S
C531 O547 1.243 . S
C532 C531 1.503 . S
C532 C533 1.394 . S
C532 C537 1.373 . S
C533 C532 1.394 . S
C533 C534 1.380 . S
C533 H556 0.930 . S
C534 C533 1.380 . S
C534 C535 1.376 . S
C534 H557 0.930 . S
C535 C534 1.376 . S
C535 C536 1.370 . S
C536 C535 1.370 . S
C536 C537 1.396 . S
C536 H558 0.929 . S
C537 C532 1.373 . S
C537 C536 1.396 . S
C537 H559 0.929 . S
C538 O548 1.240 . S
C538 O549 1.289 . S
C539 O550 1.258 . S
C539 O551 1.256 . S
O540 La520 2.519 1_545 S
O540 C522 1.261 . S
O541 La520 2.597 1_545 S
O541 C522 1.243 . S
O542 La520 2.582 . S
O542 C529 1.240 . S
O543 La520 2.772 . S
O543 La521 2.482 1_564 S
O543 C529 1.289 . S
O544 La520 2.451 1_545 S
O544 C530 1.258 . S
O545 La521 2.503 1_554 S
O545 C530 1.256 . S
O546 La521 2.521 1_565 S
O546 C531 1.261 . S
O547 La521 2.628 1_565 S
O547 C531 1.243 . S
O548 La521 2.554 . S
O548 C538 1.240 . S
O549 La520 2.456 1_546 S
O549 La521 2.757 . S
O549 C538 1.289 . S
O550 La521 2.470 1_565 S
O550 C539 1.258 . S
O551 La520 2.524 1_556 S
O551 C539 1.256 . S
H552 C524 0.930 . S
H553 C525 0.930 . S
H554 C527 0.929 . S
H555 C528 0.929 . S
H556 C533 0.930 . S
H557 C534 0.930 . S
H558 C536 0.929 . S
H559 C537 0.929 . S
La560 C562 2.928 . S
La560 O580 2.521 . S
La560 O581 2.628 . S
La560 O582 2.554 . S
La560 O583 2.757 . S
La560 O584 2.470 . S
La560 O589 2.482 . S
La560 O591 2.503 . S
La561 C571 2.928 . S
La561 O583 2.482 . S
La561 O585 2.503 . S
La561 O586 2.521 . S
La561 O587 2.628 . S
La561 O588 2.554 . S
La561 O589 2.757 . S
La561 O590 2.470 . S
C562 La560 2.928 . S
C562 C563 1.503 . S
C562 O580 1.261 . S
C562 O581 1.243 . S
C563 C562 1.503 . S
C563 C564 1.394 . S
C563 C568 1.373 . S
C564 C563 1.394 . S
C564 C565 1.380 . S
C564 H592 0.930 . S
C565 C564 1.380 . S
C565 C566 1.376 . S
C565 H593 0.930 . S
C566 C565 1.376 . S
C566 C567 1.370 . S
C567 C566 1.370 . S
C567 C568 1.396 . S
C567 H594 0.929 . S
C568 C563 1.373 . S
C568 C567 1.396 . S
C568 H595 0.929 . S
C569 O582 1.240 . S
C569 O583 1.289 . S
C570 O584 1.258 . S
C570 O585 1.256 . S
C571 La561 2.928 . S
C571 C572 1.503 . S
C571 O586 1.261 . S
C571 O587 1.243 . S
C572 C571 1.503 . S
C572 C573 1.394 . S
C572 C577 1.373 . S
C573 C572 1.394 . S
C573 C574 1.380 . S
C573 H596 0.930 . S
C574 C573 1.380 . S
C574 C575 1.376 . S
C574 H597 0.930 . S
C575 C574 1.376 . S
C575 C576 1.370 . S
C576 C575 1.370 . S
C576 C577 1.396 . S
C576 H598 0.929 . S
C577 C572 1.373 . S
C577 C576 1.396 . S
C577 H599 0.929 . S
C578 O588 1.240 . S
C578 O589 1.289 . S
C579 O590 1.258 . S
C579 O591 1.256 . S
O580 La560 2.521 . S
O580 C562 1.261 . S
O581 La560 2.628 . S
O581 C562 1.243 . S
O582 La560 2.554 . S
O582 C569 1.240 . S
O583 La560 2.757 . S
O583 La561 2.482 . S
O583 C569 1.289 . S
O584 La560 2.470 . S
O584 C570 1.258 . S
O585 La561 2.503 . S
O585 C570 1.256 . S
O586 La561 2.521 . S
O586 C571 1.261 . S
O587 La561 2.628 . S
O587 C571 1.243 . S
O588 La561 2.554 . S
O588 C578 1.240 . S
O589 La560 2.482 . S
O589 La561 2.757 . S
O589 C578 1.289 . S
O590 La561 2.470 . S
O590 C579 1.258 . S
O591 La560 2.503 . S
O591 C579 1.256 . S
H592 C564 0.930 . S
H593 C565 0.930 . S
H594 C567 0.929 . S
H595 C568 0.929 . S
H596 C573 0.930 . S
H597 C574 0.930 . S
H598 C576 0.929 . S
H599 C577 0.929 . S
La600 C602 2.928 . S
La600 O620 2.521 . S
La600 O621 2.628 . S
La600 O622 2.554 1_455 S
La600 O623 2.757 1_455 S
La600 O624 2.470 . S
La600 O629 2.482 1_554 S
La600 O631 2.503 1_454 S
La601 C611 2.928 . S
La601 O623 2.482 1_556 S
La601 O625 2.503 1_656 S
La601 O626 2.521 . S
La601 O627 2.628 . S
La601 O628 2.554 1_655 S
La601 O629 2.757 1_655 S
La601 O630 2.470 . S
C602 La600 2.928 . S
C602 C603 1.503 . S
C602 O620 1.261 . S
C602 O621 1.243 . S
C603 C602 1.503 . S
C603 C604 1.394 . S
C603 C608 1.373 . S
C604 C603 1.394 . S
C604 C605 1.380 . S
C604 H632 0.930 . S
C605 C604 1.380 . S
C605 C606 1.376 . S
C605 H633 0.930 . S
C606 C605 1.376 . S
C606 C607 1.370 . S
C607 C606 1.370 . S
C607 C608 1.396 . S
C607 H634 0.929 . S
C608 C603 1.373 . S
C608 C607 1.396 . S
C608 H635 0.929 . S
C609 O622 1.240 . S
C609 O623 1.289 . S
C610 O624 1.258 . S
C610 O625 1.256 . S
C611 La601 2.928 . S
C611 C612 1.503 . S
C611 O626 1.261 . S
C611 O627 1.243 . S
C612 C611 1.503 . S
C612 C613 1.394 . S
C612 C617 1.373 . S
C613 C612 1.394 . S
C613 C614 1.380 . S
C613 H636 0.930 . S
C614 C613 1.380 . S
C614 C615 1.376 . S
C614 H637 0.930 . S
C615 C614 1.376 . S
C615 C616 1.370 . S
C616 C615 1.370 . S
C616 C617 1.396 . S
C616 H638 0.929 . S
C617 C612 1.373 . S
C617 C616 1.396 . S
C617 H639 0.929 . S
C618 O628 1.240 . S
C618 O629 1.289 . S
C619 O630 1.258 . S
C619 O631 1.256 . S
O620 La600 2.521 . S
O620 C602 1.261 . S
O621 La600 2.628 . S
O621 C602 1.243 . S
O622 La600 2.554 1_655 S
O622 C609 1.240 . S
O623 La600 2.757 1_655 S
O623 La601 2.482 1_554 S
O623 C609 1.289 . S
O624 La600 2.470 . S
O624 C610 1.258 . S
O625 La601 2.503 1_454 S
O625 C610 1.256 . S
O626 La601 2.521 . S
O626 C611 1.261 . S
O627 La601 2.628 . S
O627 C611 1.243 . S
O628 La601 2.554 1_455 S
O628 C618 1.240 . S
O629 La600 2.482 1_556 S
O629 La601 2.757 1_455 S
O629 C618 1.289 . S
O630 La601 2.470 . S
O630 C619 1.258 . S
O631 La600 2.503 1_656 S
O631 C619 1.256 . S
H632 C604 0.930 . S
H633 C605 0.930 . S
H634 C607 0.929 . S
H635 C608 0.929 . S
H636 C613 0.930 . S
H637 C614 0.930 . S
H638 C616 0.929 . S
H639 C617 0.929 . S
H640 C652 0.930 . S
H641 C654 0.930 . S
H642 C655 0.930 . S
H643 C659 0.959 . S
H644 C659 0.959 . S
H645 C659 0.961 . S
H646 C660 0.960 . S
H647 C660 0.961 . S
H648 C660 0.959 . S
H649 C663 0.929 . S
H650 C664 0.931 . S
H651 C666 0.930 . S
C652 H640 0.930 . S
C652 C653 1.399 . S
C652 C657 1.399 . S
C653 C652 1.399 . S
C653 C654 1.376 . S
C654 H641 0.930 . S
C654 C653 1.376 . S
C654 C655 1.388 . S
C655 H642 0.930 . S
C655 C654 1.388 . S
C655 C656 1.390 . S
C656 C655 1.390 . S
C656 C657 1.394 . S
C656 C662 1.465 . S
C657 C652 1.399 . S
C657 C656 1.394 . S
C657 C658 1.516 . S
C658 C657 1.516 . S
C658 C659 1.502 . S
C658 C660 1.561 . S
C658 C661 1.526 . S
C659 H643 0.959 . S
C659 H644 0.959 . S
C659 H645 0.961 . S
C659 C658 1.502 . S
C660 H646 0.960 . S
C660 H647 0.961 . S
C660 H648 0.959 . S
C660 C658 1.561 . S
C661 C658 1.526 . S
C661 C662 1.396 . S
C661 C666 1.390 . S
C662 C656 1.465 . S
C662 C661 1.396 . S
C662 C663 1.399 . S
C663 H649 0.929 . S
C663 C662 1.399 . S
C663 C664 1.385 . S
C664 H650 0.931 . S
C664 C663 1.385 . S
C664 C665 1.389 . S
C665 C664 1.389 . S
C665 C666 1.387 . S
C666 H651 0.930 . S
C666 C661 1.390 . S
C666 C665 1.387 . S
H667 C679 0.930 . S
H668 C681 0.930 . S
H669 C682 0.930 . S
H670 C686 0.959 . S
H671 C686 0.959 . S
H672 C686 0.961 . S
H673 C687 0.960 . S
H674 C687 0.961 . S
H675 C687 0.959 . S
H676 C690 0.929 . S
H677 C691 0.931 . S
H678 C693 0.930 . S
C679 H667 0.930 . S
C679 C680 1.399 . S
C679 C684 1.399 . S
C680 C679 1.399 . S
C680 C681 1.376 . S
C681 H668 0.930 . S
C681 C680 1.376 . S
C681 C682 1.388 . S
C682 H669 0.930 . S
C682 C681 1.388 . S
C682 C683 1.390 . S
C683 C682 1.390 . S
C683 C684 1.394 . S
C683 C689 1.465 . S
C684 C679 1.399 . S
C684 C683 1.394 . S
C684 C685 1.516 . S
C685 C684 1.516 . S
C685 C686 1.502 . S
C685 C687 1.561 . S
C685 C688 1.526 . S
C686 H670 0.959 . S
C686 H671 0.959 . S
C686 H672 0.961 . S
C686 C685 1.502 . S
C687 H673 0.960 . S
C687 H674 0.961 . S
C687 H675 0.959 . S
C687 C685 1.561 . S
C688 C685 1.526 . S
C688 C689 1.396 . S
C688 C693 1.390 . S
C689 C683 1.465 . S
C689 C688 1.396 . S
C689 C690 1.399 . S
C690 H676 0.929 . S
C690 C689 1.399 . S
C690 C691 1.385 . S
C691 H677 0.931 . S
C691 C690 1.385 . S
C691 C692 1.389 . S
C692 C691 1.389 . S
C692 C693 1.387 . S
C693 H678 0.930 . S
C693 C688 1.390 . S
C693 C692 1.387 . S
H694 C706 0.930 . S
H695 C708 0.930 . S
H696 C709 0.930 . S
H697 C713 0.959 . S
H698 C713 0.959 . S
H699 C713 0.961 . S
H700 C714 0.960 . S
H701 C714 0.961 . S
H702 C714 0.959 . S
H703 C717 0.929 . S
H704 C718 0.931 . S
H705 C720 0.930 . S
C706 H694 0.930 . S
C706 C707 1.399 . S
C706 C711 1.399 . S
C707 C706 1.399 . S
C707 C708 1.376 . S
C708 H695 0.930 . S
C708 C707 1.376 . S
C708 C709 1.388 . S
C709 H696 0.930 . S
C709 C708 1.388 . S
C709 C710 1.390 . S
C710 C709 1.390 . S
C710 C711 1.394 . S
C710 C716 1.465 . S
C711 C706 1.399 . S
C711 C710 1.394 . S
C711 C712 1.516 . S
C712 C711 1.516 . S
C712 C713 1.502 . S
C712 C714 1.561 . S
C712 C715 1.526 . S
C713 H697 0.959 . S
C713 H698 0.959 . S
C713 H699 0.961 . S
C713 C712 1.502 . S
C714 H700 0.960 . S
C714 H701 0.961 . S
C714 H702 0.959 . S
C714 C712 1.561 . S
C715 C712 1.526 . S
C715 C716 1.396 . S
C715 C720 1.390 . S
C716 C710 1.465 . S
C716 C715 1.396 . S
C716 C717 1.399 . S
C717 H703 0.929 . S
C717 C716 1.399 . S
C717 C718 1.385 . S
C718 H704 0.931 . S
C718 C717 1.385 . S
C718 C719 1.389 . S
C719 C718 1.389 . S
C719 C720 1.387 . S
C720 H705 0.930 . S
C720 C715 1.390 . S
C720 C719 1.387 . S
H721 C733 0.930 . S
H722 C735 0.930 . S
H723 C736 0.930 . S
H724 C740 0.959 . S
H725 C740 0.959 . S
H726 C740 0.961 . S
H727 C741 0.960 . S
H728 C741 0.961 . S
H729 C741 0.959 . S
H730 C744 0.929 . S
H731 C745 0.931 . S
H732 C747 0.930 . S
C733 H721 0.930 . S
C733 C734 1.399 . S
C733 C738 1.399 . S
C734 C733 1.399 . S
C734 C735 1.376 . S
C735 H722 0.930 . S
C735 C734 1.376 . S
C735 C736 1.388 . S
C736 H723 0.930 . S
C736 C735 1.388 . S
C736 C737 1.390 . S
C737 C736 1.390 . S
C737 C738 1.394 . S
C737 C743 1.465 . S
C738 C733 1.399 . S
C738 C737 1.394 . S
C738 C739 1.516 . S
C739 C738 1.516 . S
C739 C740 1.502 . S
C739 C741 1.561 . S
C739 C742 1.526 . S
C740 H724 0.959 . S
C740 H725 0.959 . S
C740 H726 0.961 . S
C740 C739 1.502 . S
C741 H727 0.960 . S
C741 H728 0.961 . S
C741 H729 0.959 . S
C741 C739 1.561 . S
C742 C739 1.526 . S
C742 C743 1.396 . S
C742 C747 1.390 . S
C743 C737 1.465 . S
C743 C742 1.396 . S
C743 C744 1.399 . S
C744 H730 0.929 . S
C744 C743 1.399 . S
C744 C745 1.385 . S
C745 H731 0.931 . S
C745 C744 1.385 . S
C745 C746 1.389 . S
C746 C745 1.389 . S
C746 C747 1.387 . S
C747 H732 0.930 . S
C747 C742 1.390 . S
C747 C746 1.387 . S
H748 C760 0.930 . S
H749 C762 0.930 . S
H750 C763 0.930 . S
H751 C767 0.959 . S
H752 C767 0.959 . S
H753 C767 0.961 . S
H754 C768 0.960 . S
H755 C768 0.961 . S
H756 C768 0.959 . S
H757 C771 0.929 . S
H758 C772 0.931 . S
H759 C774 0.930 . S
C760 H748 0.930 . S
C760 C761 1.399 . S
C760 C765 1.399 . S
C761 C760 1.399 . S
C761 C762 1.376 . S
C762 H749 0.930 . S
C762 C761 1.376 . S
C762 C763 1.388 . S
C763 H750 0.930 . S
C763 C762 1.388 . S
C763 C764 1.390 . S
C764 C763 1.390 . S
C764 C765 1.394 . S
C764 C770 1.465 . S
C765 C760 1.399 . S
C765 C764 1.394 . S
C765 C766 1.516 . S
C766 C765 1.516 . S
C766 C767 1.502 . S
C766 C768 1.561 . S
C766 C769 1.526 . S
C767 H751 0.959 . S
C767 H752 0.959 . S
C767 H753 0.961 . S
C767 C766 1.502 . S
C768 H754 0.960 . S
C768 H755 0.961 . S
C768 H756 0.959 . S
C768 C766 1.561 . S
C769 C766 1.526 . S
C769 C770 1.396 . S
C769 C774 1.390 . S
C770 C764 1.465 . S
C770 C769 1.396 . S
C770 C771 1.399 . S
C771 H757 0.929 . S
C771 C770 1.399 . S
C771 C772 1.385 . S
C772 H758 0.931 . S
C772 C771 1.385 . S
C772 C773 1.389 . S
C773 C772 1.389 . S
C773 C774 1.387 . S
C774 H759 0.930 . S
C774 C769 1.390 . S
C774 C773 1.387 . S
H775 C787 0.930 . S
H776 C789 0.930 . S
H777 C790 0.930 . S
H778 C794 0.959 . S
H779 C794 0.959 . S
H780 C794 0.961 . S
H781 C795 0.960 . S
H782 C795 0.961 . S
H783 C795 0.959 . S
H784 C798 0.929 . S
H785 C799 0.931 . S
H786 C801 0.930 . S
C787 H775 0.930 . S
C787 C788 1.399 . S
C787 C792 1.399 . S
C788 C787 1.399 . S
C788 C789 1.376 . S
C789 H776 0.930 . S
C789 C788 1.376 . S
C789 C790 1.388 . S
C790 H777 0.930 . S
C790 C789 1.388 . S
C790 C791 1.390 . S
C791 C790 1.390 . S
C791 C792 1.394 . S
C791 C797 1.465 . S
C792 C787 1.399 . S
C792 C791 1.394 . S
C792 C793 1.516 . S
C793 C792 1.516 . S
C793 C794 1.502 . S
C793 C795 1.561 . S
C793 C796 1.526 . S
C794 H778 0.959 . S
C794 H779 0.959 . S
C794 H780 0.961 . S
C794 C793 1.502 . S
C795 H781 0.960 . S
C795 H782 0.961 . S
C795 H783 0.959 . S
C795 C793 1.561 . S
C796 C793 1.526 . S
C796 C797 1.396 . S
C796 C801 1.390 . S
C797 C791 1.465 . S
C797 C796 1.396 . S
C797 C798 1.399 . S
C798 H784 0.929 . S
C798 C797 1.399 . S
C798 C799 1.385 . S
C799 H785 0.931 . S
C799 C798 1.385 . S
C799 C800 1.389 . S
C800 C799 1.389 . S
C800 C801 1.387 . S
C801 H786 0.930 . S
C801 C796 1.390 . S
C801 C800 1.387 . S
H802 C814 0.930 . S
H803 C816 0.930 . S
H804 C817 0.930 . S
H805 C821 0.959 . S
H806 C821 0.959 . S
H807 C821 0.961 . S
H808 C822 0.960 . S
H809 C822 0.961 . S
H810 C822 0.959 . S
H811 C825 0.929 . S
H812 C826 0.931 . S
H813 C828 0.930 . S
C814 H802 0.930 . S
C814 C815 1.399 . S
C814 C819 1.399 . S
C815 C814 1.399 . S
C815 C816 1.376 . S
C816 H803 0.930 . S
C816 C815 1.376 . S
C816 C817 1.388 . S
C817 H804 0.930 . S
C817 C816 1.388 . S
C817 C818 1.390 . S
C818 C817 1.390 . S
C818 C819 1.394 . S
C818 C824 1.465 . S
C819 C814 1.399 . S
C819 C818 1.394 . S
C819 C820 1.516 . S
C820 C819 1.516 . S
C820 C821 1.502 . S
C820 C822 1.561 . S
C820 C823 1.526 . S
C821 H805 0.959 . S
C821 H806 0.959 . S
C821 H807 0.961 . S
C821 C820 1.502 . S
C822 H808 0.960 . S
C822 H809 0.961 . S
C822 H810 0.959 . S
C822 C820 1.561 . S
C823 C820 1.526 . S
C823 C824 1.396 . S
C823 C828 1.390 . S
C824 C818 1.465 . S
C824 C823 1.396 . S
C824 C825 1.399 . S
C825 H811 0.929 . S
C825 C824 1.399 . S
C825 C826 1.385 . S
C826 H812 0.931 . S
C826 C825 1.385 . S
C826 C827 1.389 . S
C827 C826 1.389 . S
C827 C828 1.387 . S
C828 H813 0.930 . S
C828 C823 1.390 . S
C828 C827 1.387 . S
H829 C841 0.930 . S
H830 C843 0.930 . S
H831 C844 0.930 . S
H832 C848 0.959 . S
H833 C848 0.959 . S
H834 C848 0.961 . S
H835 C849 0.960 . S
H836 C849 0.961 . S
H837 C849 0.959 . S
H838 C852 0.929 . S
H839 C853 0.931 . S
H840 C855 0.930 . S
C841 H829 0.930 . S
C841 C842 1.399 . S
C841 C846 1.399 . S
C842 C841 1.399 . S
C842 C843 1.376 . S
C843 H830 0.930 . S
C843 C842 1.376 . S
C843 C844 1.388 . S
C844 H831 0.930 . S
C844 C843 1.388 . S
C844 C845 1.390 . S
C845 C844 1.390 . S
C845 C846 1.394 . S
C845 C851 1.465 . S
C846 C841 1.399 . S
C846 C845 1.394 . S
C846 C847 1.516 . S
C847 C846 1.516 . S
C847 C848 1.502 . S
C847 C849 1.561 . S
C847 C850 1.526 . S
C848 H832 0.959 . S
C848 H833 0.959 . S
C848 H834 0.961 . S
C848 C847 1.502 . S
C849 H835 0.960 . S
C849 H836 0.961 . S
C849 H837 0.959 . S
C849 C847 1.561 . S
C850 C847 1.526 . S
C850 C851 1.396 . S
C850 C855 1.390 . S
C851 C845 1.465 . S
C851 C850 1.396 . S
C851 C852 1.399 . S
C852 H838 0.929 . S
C852 C851 1.399 . S
C852 C853 1.385 . S
C853 H839 0.931 . S
C853 C852 1.385 . S
C853 C854 1.389 . S
C854 C853 1.389 . S
C854 C855 1.387 . S
C855 H840 0.930 . S
C855 C850 1.390 . S
C855 C854 1.387 . S
H856 C868 0.930 . S
H857 C870 0.930 . S
H858 C871 0.930 . S
H859 C875 0.959 . S
H860 C875 0.959 . S
H861 C875 0.961 . S
H862 C876 0.960 . S
H863 C876 0.961 . S
H864 C876 0.959 . S
H865 C879 0.929 . S
H866 C880 0.931 . S
H867 C882 0.930 . S
C868 H856 0.930 . S
C868 C869 1.399 . S
C868 C873 1.399 . S
C869 C868 1.399 . S
C869 C870 1.376 . S
C870 H857 0.930 . S
C870 C869 1.376 . S
C870 C871 1.388 . S
C871 H858 0.930 . S
C871 C870 1.388 . S
C871 C872 1.390 . S
C872 C871 1.390 . S
C872 C873 1.394 . S
C872 C878 1.465 . S
C873 C868 1.399 . S
C873 C872 1.394 . S
C873 C874 1.516 . S
C874 C873 1.516 . S
C874 C875 1.502 . S
C874 C876 1.561 . S
C874 C877 1.526 . S
C875 H859 0.959 . S
C875 H860 0.959 . S
C875 H861 0.961 . S
C875 C874 1.502 . S
C876 H862 0.960 . S
C876 H863 0.961 . S
C876 H864 0.959 . S
C876 C874 1.561 . S
C877 C874 1.526 . S
C877 C878 1.396 . S
C877 C882 1.390 . S
C878 C872 1.465 . S
C878 C877 1.396 . S
C878 C879 1.399 . S
C879 H865 0.929 . S
C879 C878 1.399 . S
C879 C880 1.385 . S
C880 H866 0.931 . S
C880 C879 1.385 . S
C880 C881 1.389 . S
C881 C880 1.389 . S
C881 C882 1.387 . S
C882 H867 0.930 . S
C882 C877 1.390 . S
C882 C881 1.387 . S
H883 C895 0.930 . S
H884 C897 0.930 . S
H885 C898 0.930 . S
H886 C902 0.959 . S
H887 C902 0.959 . S
H888 C902 0.961 . S
H889 C903 0.960 . S
H890 C903 0.961 . S
H891 C903 0.959 . S
H892 C906 0.929 . S
H893 C907 0.931 . S
H894 C909 0.930 . S
C895 H883 0.930 . S
C895 C896 1.399 . S
C895 C900 1.399 . S
C896 C895 1.399 . S
C896 C897 1.376 . S
C897 H884 0.930 . S
C897 C896 1.376 . S
C897 C898 1.388 . S
C898 H885 0.930 . S
C898 C897 1.388 . S
C898 C899 1.390 . S
C899 C898 1.390 . S
C899 C900 1.394 . S
C899 C905 1.465 . S
C900 C895 1.399 . S
C900 C899 1.394 . S
C900 C901 1.516 . S
C901 C900 1.516 . S
C901 C902 1.502 . S
C901 C903 1.561 . S
C901 C904 1.526 . S
C902 H886 0.959 . S
C902 H887 0.959 . S
C902 H888 0.961 . S
C902 C901 1.502 . S
C903 H889 0.960 . S
C903 H890 0.961 . S
C903 H891 0.959 . S
C903 C901 1.561 . S
C904 C901 1.526 . S
C904 C905 1.396 . S
C904 C909 1.390 . S
C905 C899 1.465 . S
C905 C904 1.396 . S
C905 C906 1.399 . S
C906 H892 0.929 . S
C906 C905 1.399 . S
C906 C907 1.385 . S
C907 H893 0.931 . S
C907 C906 1.385 . S
C907 C908 1.389 . S
C908 C907 1.389 . S
C908 C909 1.387 . S
C909 H894 0.930 . S
C909 C904 1.390 . S
C909 C908 1.387 . S
H910 C922 0.930 . S
H911 C924 0.930 . S
H912 C925 0.930 . S
H913 C929 0.959 . S
H914 C929 0.959 . S
H915 C929 0.961 . S
H916 C930 0.960 . S
H917 C930 0.961 . S
H918 C930 0.959 . S
H919 C933 0.929 . S
H920 C934 0.931 . S
H921 C936 0.930 . S
C922 H910 0.930 . S
C922 C923 1.399 . S
C922 C927 1.399 . S
C923 C922 1.399 . S
C923 C924 1.376 . S
C924 H911 0.930 . S
C924 C923 1.376 . S
C924 C925 1.388 . S
C925 H912 0.930 . S
C925 C924 1.388 . S
C925 C926 1.390 . S
C926 C925 1.390 . S
C926 C927 1.394 . S
C926 C932 1.465 . S
C927 C922 1.399 . S
C927 C926 1.394 . S
C927 C928 1.516 . S
C928 C927 1.516 . S
C928 C929 1.502 . S
C928 C930 1.561 . S
C928 C931 1.526 . S
C929 H913 0.959 . S
C929 H914 0.959 . S
C929 H915 0.961 . S
C929 C928 1.502 . S
C930 H916 0.960 . S
C930 H917 0.961 . S
C930 H918 0.959 . S
C930 C928 1.561 . S
C931 C928 1.526 . S
C931 C932 1.396 . S
C931 C936 1.390 . S
C932 C926 1.465 . S
C932 C931 1.396 . S
C932 C933 1.399 . S
C933 H919 0.929 . S
C933 C932 1.399 . S
C933 C934 1.385 . S
C934 H920 0.931 . S
C934 C933 1.385 . S
C934 C935 1.389 . S
C935 C934 1.389 . S
C935 C936 1.387 . S
C936 H921 0.930 . S
C936 C931 1.390 . S
C936 C935 1.387 . S
H937 C949 0.930 . S
H938 C951 0.930 . S
H939 C952 0.930 . S
H940 C956 0.959 . S
H941 C956 0.959 . S
H942 C956 0.961 . S
H943 C957 0.960 . S
H944 C957 0.961 . S
H945 C957 0.959 . S
H946 C960 0.929 . S
H947 C961 0.931 . S
H948 C963 0.930 . S
C949 H937 0.930 . S
C949 C950 1.399 . S
C949 C954 1.399 . S
C950 C949 1.399 . S
C950 C951 1.376 . S
C951 H938 0.930 . S
C951 C950 1.376 . S
C951 C952 1.388 . S
C952 H939 0.930 . S
C952 C951 1.388 . S
C952 C953 1.390 . S
C953 C952 1.390 . S
C953 C954 1.394 . S
C953 C959 1.465 . S
C954 C949 1.399 . S
C954 C953 1.394 . S
C954 C955 1.516 . S
C955 C954 1.516 . S
C955 C956 1.502 . S
C955 C957 1.561 . S
C955 C958 1.526 . S
C956 H940 0.959 . S
C956 H941 0.959 . S
C956 H942 0.961 . S
C956 C955 1.502 . S
C957 H943 0.960 . S
C957 H944 0.961 . S
C957 H945 0.959 . S
C957 C955 1.561 . S
C958 C955 1.526 . S
C958 C959 1.396 . S
C958 C963 1.390 . S
C959 C953 1.465 . S
C959 C958 1.396 . S
C959 C960 1.399 . S
C960 H946 0.929 . S
C960 C959 1.399 . S
C960 C961 1.385 . S
C961 H947 0.931 . S
C961 C960 1.385 . S
C961 C962 1.389 . S
C962 C961 1.389 . S
C962 C963 1.387 . S
C963 H948 0.930 . S
C963 C958 1.390 . S
C963 C962 1.387 . S
H964 C976 0.930 . S
H965 C978 0.930 . S
H966 C979 0.930 . S
H967 C983 0.959 . S
H968 C983 0.959 . S
H969 C983 0.961 . S
H970 C984 0.960 . S
H971 C984 0.961 . S
H972 C984 0.959 . S
H973 C987 0.929 . S
H974 C988 0.931 . S
H975 C990 0.930 . S
C976 H964 0.930 . S
C976 C977 1.399 . S
C976 C981 1.399 . S
C977 C976 1.399 . S
C977 C978 1.376 . S
C978 H965 0.930 . S
C978 C977 1.376 . S
C978 C979 1.388 . S
C979 H966 0.930 . S
C979 C978 1.388 . S
C979 C980 1.390 . S
C980 C979 1.390 . S
C980 C981 1.394 . S
C980 C986 1.465 . S
C981 C976 1.399 . S
C981 C980 1.394 . S
C981 C982 1.516 . S
C982 C981 1.516 . S
C982 C983 1.502 . S
C982 C984 1.561 . S
C982 C985 1.526 . S
C983 H967 0.959 . S
C983 H968 0.959 . S
C983 H969 0.961 . S
C983 C982 1.502 . S
C984 H970 0.960 . S
C984 H971 0.961 . S
C984 H972 0.959 . S
C984 C982 1.561 . S
C985 C982 1.526 . S
C985 C986 1.396 . S
C985 C990 1.390 . S
C986 C980 1.465 . S
C986 C985 1.396 . S
C986 C987 1.399 . S
C987 H973 0.929 . S
C987 C986 1.399 . S
C987 C988 1.385 . S
C988 H974 0.931 . S
C988 C987 1.385 . S
C988 C989 1.389 . S
C989 C988 1.389 . S
C989 C990 1.387 . S
C990 H975 0.930 . S
C990 C985 1.390 . S
C990 C989 1.387 . S
H991 C1003 0.930 . S
H992 C1005 0.930 . S
H993 C1006 0.930 . S
H994 C1010 0.959 . S
H995 C1010 0.959 . S
H996 C1010 0.961 . S
H997 C1011 0.960 . S
H998 C1011 0.961 . S
H999 C1011 0.959 . S
H1000 C1014 0.929 . S
H1001 C1015 0.931 . S
H1002 C1017 0.930 . S
C1003 H991 0.930 . S
C1003 C1004 1.399 . S
C1003 C1008 1.399 . S
C1004 C1003 1.399 . S
C1004 C1005 1.376 . S
C1005 H992 0.930 . S
C1005 C1004 1.376 . S
C1005 C1006 1.388 . S
C1006 H993 0.930 . S
C1006 C1005 1.388 . S
C1006 C1007 1.390 . S
C1007 C1006 1.390 . S
C1007 C1008 1.394 . S
C1007 C1013 1.465 . S
C1008 C1003 1.399 . S
C1008 C1007 1.394 . S
C1008 C1009 1.516 . S
C1009 C1008 1.516 . S
C1009 C1010 1.502 . S
C1009 C1011 1.561 . S
C1009 C1012 1.526 . S
C1010 H994 0.959 . S
C1010 H995 0.959 . S
C1010 H996 0.961 . S
C1010 C1009 1.502 . S
C1011 H997 0.960 . S
C1011 H998 0.961 . S
C1011 H999 0.959 . S
C1011 C1009 1.561 . S
C1012 C1009 1.526 . S
C1012 C1013 1.396 . S
C1012 C1017 1.390 . S
C1013 C1007 1.465 . S
C1013 C1012 1.396 . S
C1013 C1014 1.399 . S
C1014 H1000 0.929 . S
C1014 C1013 1.399 . S
C1014 C1015 1.385 . S
C1015 H1001 0.931 . S
C1015 C1014 1.385 . S
C1015 C1016 1.389 . S
C1016 C1015 1.389 . S
C1016 C1017 1.387 . S
C1017 H1002 0.930 . S
C1017 C1012 1.390 . S
C1017 C1016 1.387 . S
H1018 C1030 0.930 . S
H1019 C1032 0.930 . S
H1020 C1033 0.930 . S
H1021 C1037 0.959 . S
H1022 C1037 0.959 . S
H1023 C1037 0.961 . S
H1024 C1038 0.960 . S
H1025 C1038 0.961 . S
H1026 C1038 0.959 . S
H1027 C1041 0.929 . S
H1028 C1042 0.931 . S
H1029 C1044 0.930 . S
C1030 H1018 0.930 . S
C1030 C1031 1.399 . S
C1030 C1035 1.399 . S
C1031 C1030 1.399 . S
C1031 C1032 1.376 . S
C1032 H1019 0.930 . S
C1032 C1031 1.376 . S
C1032 C1033 1.388 . S
C1033 H1020 0.930 . S
C1033 C1032 1.388 . S
C1033 C1034 1.390 . S
C1034 C1033 1.390 . S
C1034 C1035 1.394 . S
C1034 C1040 1.465 . S
C1035 C1030 1.399 . S
C1035 C1034 1.394 . S
C1035 C1036 1.516 . S
C1036 C1035 1.516 . S
C1036 C1037 1.502 . S
C1036 C1038 1.561 . S
C1036 C1039 1.526 . S
C1037 H1021 0.959 . S
C1037 H1022 0.959 . S
C1037 H1023 0.961 . S
C1037 C1036 1.502 . S
C1038 H1024 0.960 . S
C1038 H1025 0.961 . S
C1038 H1026 0.959 . S
C1038 C1036 1.561 . S
C1039 C1036 1.526 . S
C1039 C1040 1.396 . S
C1039 C1044 1.390 . S
C1040 C1034 1.465 . S
C1040 C1039 1.396 . S
C1040 C1041 1.399 . S
C1041 H1027 0.929 . S
C1041 C1040 1.399 . S
C1041 C1042 1.385 . S
C1042 H1028 0.931 . S
C1042 C1041 1.385 . S
C1042 C1043 1.389 . S
C1043 C1042 1.389 . S
C1043 C1044 1.387 . S
C1044 H1029 0.930 . S
C1044 C1039 1.390 . S
C1044 C1043 1.387 . S
H1045 C1057 0.930 . S
H1046 C1059 0.930 . S
H1047 C1060 0.930 . S
H1048 C1064 0.959 . S
H1049 C1064 0.959 . S
H1050 C1064 0.961 . S
H1051 C1065 0.960 . S
H1052 C1065 0.961 . S
H1053 C1065 0.959 . S
H1054 C1068 0.929 . S
H1055 C1069 0.931 . S
H1056 C1071 0.930 . S
C1057 H1045 0.930 . S
C1057 C1058 1.399 . S
C1057 C1062 1.399 . S
C1058 C1057 1.399 . S
C1058 C1059 1.376 . S
C1059 H1046 0.930 . S
C1059 C1058 1.376 . S
C1059 C1060 1.388 . S
C1060 H1047 0.930 . S
C1060 C1059 1.388 . S
C1060 C1061 1.390 . S
C1061 C1060 1.390 . S
C1061 C1062 1.394 . S
C1061 C1067 1.465 . S
C1062 C1057 1.399 . S
C1062 C1061 1.394 . S
C1062 C1063 1.516 . S
C1063 C1062 1.516 . S
C1063 C1064 1.502 . S
C1063 C1065 1.561 . S
C1063 C1066 1.526 . S
C1064 H1048 0.959 . S
C1064 H1049 0.959 . S
C1064 H1050 0.961 . S
C1064 C1063 1.502 . S
C1065 H1051 0.960 . S
C1065 H1052 0.961 . S
C1065 H1053 0.959 . S
C1065 C1063 1.561 . S
C1066 C1063 1.526 . S
C1066 C1067 1.396 . S
C1066 C1071 1.390 . S
C1067 C1061 1.465 . S
C1067 C1066 1.396 . S
C1067 C1068 1.399 . S
C1068 H1054 0.929 . S
C1068 C1067 1.399 . S
C1068 C1069 1.385 . S
C1069 H1055 0.931 . S
C1069 C1068 1.385 . S
C1069 C1070 1.389 . S
C1070 C1069 1.389 . S
C1070 C1071 1.387 . S
C1071 H1056 0.930 . S
C1071 C1066 1.390 . S
C1071 C1070 1.387 . S
H1072 C1084 0.930 . S
H1073 C1086 0.930 . S
H1074 C1087 0.930 . S
H1075 C1091 0.959 . S
H1076 C1091 0.959 . S
H1077 C1091 0.961 . S
H1078 C1092 0.960 . S
H1079 C1092 0.961 . S
H1080 C1092 0.959 . S
H1081 C1095 0.929 . S
H1082 C1096 0.931 . S
H1083 C1098 0.930 . S
C1084 H1072 0.930 . S
C1084 C1085 1.399 . S
C1084 C1089 1.399 . S
C1085 C1084 1.399 . S
C1085 C1086 1.376 . S
C1086 H1073 0.930 . S
C1086 C1085 1.376 . S
C1086 C1087 1.388 . S
C1087 H1074 0.930 . S
C1087 C1086 1.388 . S
C1087 C1088 1.390 . S
C1088 C1087 1.390 . S
C1088 C1089 1.394 . S
C1088 C1094 1.465 . S
C1089 C1084 1.399 . S
C1089 C1088 1.394 . S
C1089 C1090 1.516 . S
C1090 C1089 1.516 . S
C1090 C1091 1.502 . S
C1090 C1092 1.561 . S
C1090 C1093 1.526 . S
C1091 H1075 0.959 . S
C1091 H1076 0.959 . S
C1091 H1077 0.961 . S
C1091 C1090 1.502 . S
C1092 H1078 0.960 . S
C1092 H1079 0.961 . S
C1092 H1080 0.959 . S
C1092 C1090 1.561 . S
C1093 C1090 1.526 . S
C1093 C1094 1.396 . S
C1093 C1098 1.390 . S
C1094 C1088 1.465 . S
C1094 C1093 1.396 . S
C1094 C1095 1.399 . S
C1095 H1081 0.929 . S
C1095 C1094 1.399 . S
C1095 C1096 1.385 . S
C1096 H1082 0.931 . S
C1096 C1095 1.385 . S
C1096 C1097 1.389 . S
C1097 C1096 1.389 . S
C1097 C1098 1.387 . S
C1098 H1083 0.930 . S
C1098 C1093 1.390 . S
C1098 C1097 1.387 . S
H1099 C1111 0.930 . S
H1100 C1113 0.930 . S
H1101 C1114 0.930 . S
H1102 C1118 0.959 . S
H1103 C1118 0.959 . S
H1104 C1118 0.961 . S
H1105 C1119 0.960 . S
H1106 C1119 0.961 . S
H1107 C1119 0.959 . S
H1108 C1122 0.929 . S
H1109 C1123 0.931 . S
H1110 C1125 0.930 . S
C1111 H1099 0.930 . S
C1111 C1112 1.399 . S
C1111 C1116 1.399 . S
C1112 C1111 1.399 . S
C1112 C1113 1.376 . S
C1113 H1100 0.930 . S
C1113 C1112 1.376 . S
C1113 C1114 1.388 . S
C1114 H1101 0.930 . S
C1114 C1113 1.388 . S
C1114 C1115 1.390 . S
C1115 C1114 1.390 . S
C1115 C1116 1.394 . S
C1115 C1121 1.465 . S
C1116 C1111 1.399 . S
C1116 C1115 1.394 . S
C1116 C1117 1.516 . S
C1117 C1116 1.516 . S
C1117 C1118 1.502 . S
C1117 C1119 1.561 . S
C1117 C1120 1.526 . S
C1118 H1102 0.959 . S
C1118 H1103 0.959 . S
C1118 H1104 0.961 . S
C1118 C1117 1.502 . S
C1119 H1105 0.960 . S
C1119 H1106 0.961 . S
C1119 H1107 0.959 . S
C1119 C1117 1.561 . S
C1120 C1117 1.526 . S
C1120 C1121 1.396 . S
C1120 C1125 1.390 . S
C1121 C1115 1.465 . S
C1121 C1120 1.396 . S
C1121 C1122 1.399 . S
C1122 H1108 0.929 . S
C1122 C1121 1.399 . S
C1122 C1123 1.385 . S
C1123 H1109 0.931 . S
C1123 C1122 1.385 . S
C1123 C1124 1.389 . S
C1124 C1123 1.389 . S
C1124 C1125 1.387 . S
C1125 H1110 0.930 . S
C1125 C1120 1.390 . S
C1125 C1124 1.387 . S
H1126 C1138 0.930 . S
H1127 C1140 0.930 . S
H1128 C1141 0.930 . S
H1129 C1145 0.959 . S
H1130 C1145 0.959 . S
H1131 C1145 0.961 . S
H1132 C1146 0.960 . S
H1133 C1146 0.961 . S
H1134 C1146 0.959 . S
H1135 C1149 0.929 . S
H1136 C1150 0.931 . S
H1137 C1152 0.930 . S
C1138 H1126 0.930 . S
C1138 C1139 1.399 . S
C1138 C1143 1.399 . S
C1139 C1138 1.399 . S
C1139 C1140 1.376 . S
C1140 H1127 0.930 . S
C1140 C1139 1.376 . S
C1140 C1141 1.388 . S
C1141 H1128 0.930 . S
C1141 C1140 1.388 . S
C1141 C1142 1.390 . S
C1142 C1141 1.390 . S
C1142 C1143 1.394 . S
C1142 C1148 1.465 . S
C1143 C1138 1.399 . S
C1143 C1142 1.394 . S
C1143 C1144 1.516 . S
C1144 C1143 1.516 . S
C1144 C1145 1.502 . S
C1144 C1146 1.561 . S
C1144 C1147 1.526 . S
C1145 H1129 0.959 . S
C1145 H1130 0.959 . S
C1145 H1131 0.961 . S
C1145 C1144 1.502 . S
C1146 H1132 0.960 . S
C1146 H1133 0.961 . S
C1146 H1134 0.959 . S
C1146 C1144 1.561 . S
C1147 C1144 1.526 . S
C1147 C1148 1.396 . S
C1147 C1152 1.390 . S
C1148 C1142 1.465 . S
C1148 C1147 1.396 . S
C1148 C1149 1.399 . S
C1149 H1135 0.929 . S
C1149 C1148 1.399 . S
C1149 C1150 1.385 . S
C1150 H1136 0.931 . S
C1150 C1149 1.385 . S
C1150 C1151 1.389 . S
C1151 C1150 1.389 . S
C1151 C1152 1.387 . S
C1152 H1137 0.930 . S
C1152 C1147 1.390 . S
C1152 C1151 1.387 . S
H1153 C1165 0.930 . S
H1154 C1167 0.930 . S
H1155 C1168 0.930 . S
H1156 C1172 0.959 . S
H1157 C1172 0.959 . S
H1158 C1172 0.961 . S
H1159 C1173 0.960 . S
H1160 C1173 0.961 . S
H1161 C1173 0.959 . S
H1162 C1176 0.929 . S
H1163 C1177 0.931 . S
H1164 C1179 0.930 . S
C1165 H1153 0.930 . S
C1165 C1166 1.399 . S
C1165 C1170 1.399 . S
C1166 C1165 1.399 . S
C1166 C1167 1.376 . S
C1167 H1154 0.930 . S
C1167 C1166 1.376 . S
C1167 C1168 1.388 . S
C1168 H1155 0.930 . S
C1168 C1167 1.388 . S
C1168 C1169 1.390 . S
C1169 C1168 1.390 . S
C1169 C1170 1.394 . S
C1169 C1175 1.465 . S
C1170 C1165 1.399 . S
C1170 C1169 1.394 . S
C1170 C1171 1.516 . S
C1171 C1170 1.516 . S
C1171 C1172 1.502 . S
C1171 C1173 1.561 . S
C1171 C1174 1.526 . S
C1172 H1156 0.959 . S
C1172 H1157 0.959 . S
C1172 H1158 0.961 . S
C1172 C1171 1.502 . S
C1173 H1159 0.960 . S
C1173 H1160 0.961 . S
C1173 H1161 0.959 . S
C1173 C1171 1.561 . S
C1174 C1171 1.526 . S
C1174 C1175 1.396 . S
C1174 C1179 1.390 . S
C1175 C1169 1.465 . S
C1175 C1174 1.396 . S
C1175 C1176 1.399 . S
C1176 H1162 0.929 . S
C1176 C1175 1.399 . S
C1176 C1177 1.385 . S
C1177 H1163 0.931 . S
C1177 C1176 1.385 . S
C1177 C1178 1.389 . S
C1178 C1177 1.389 . S
C1178 C1179 1.387 . S
C1179 H1164 0.930 . S
C1179 C1174 1.390 . S
C1179 C1178 1.387 . S
H1180 C1192 0.930 . S
H1181 C1194 0.930 . S
H1182 C1195 0.930 . S
H1183 C1199 0.959 . S
H1184 C1199 0.959 . S
H1185 C1199 0.961 . S
H1186 C1200 0.960 . S
H1187 C1200 0.961 . S
H1188 C1200 0.959 . S
H1189 C1203 0.929 . S
H1190 C1204 0.931 . S
H1191 C1206 0.930 . S
C1192 H1180 0.930 . S
C1192 C1193 1.399 . S
C1192 C1197 1.399 . S
C1193 C1192 1.399 . S
C1193 C1194 1.376 . S
C1194 H1181 0.930 . S
C1194 C1193 1.376 . S
C1194 C1195 1.388 . S
C1195 H1182 0.930 . S
C1195 C1194 1.388 . S
C1195 C1196 1.390 . S
C1196 C1195 1.390 . S
C1196 C1197 1.394 . S
C1196 C1202 1.465 . S
C1197 C1192 1.399 . S
C1197 C1196 1.394 . S
C1197 C1198 1.516 . S
C1198 C1197 1.516 . S
C1198 C1199 1.502 . S
C1198 C1200 1.561 . S
C1198 C1201 1.526 . S
C1199 H1183 0.959 . S
C1199 H1184 0.959 . S
C1199 H1185 0.961 . S
C1199 C1198 1.502 . S
C1200 H1186 0.960 . S
C1200 H1187 0.961 . S
C1200 H1188 0.959 . S
C1200 C1198 1.561 . S
C1201 C1198 1.526 . S
C1201 C1202 1.396 . S
C1201 C1206 1.390 . S
C1202 C1196 1.465 . S
C1202 C1201 1.396 . S
C1202 C1203 1.399 . S
C1203 H1189 0.929 . S
C1203 C1202 1.399 . S
C1203 C1204 1.385 . S
C1204 H1190 0.931 . S
C1204 C1203 1.385 . S
C1204 C1205 1.389 . S
C1205 C1204 1.389 . S
C1205 C1206 1.387 . S
C1206 H1191 0.930 . S
C1206 C1201 1.390 . S
C1206 C1205 1.387 . S
H1207 C1219 0.930 . S
H1208 C1221 0.930 . S
H1209 C1222 0.930 . S
H1210 C1226 0.959 . S
H1211 C1226 0.959 . S
H1212 C1226 0.961 . S
H1213 C1227 0.960 . S
H1214 C1227 0.961 . S
H1215 C1227 0.959 . S
H1216 C1230 0.929 . S
H1217 C1231 0.931 . S
H1218 C1233 0.930 . S
C1219 H1207 0.930 . S
C1219 C1220 1.399 . S
C1219 C1224 1.399 . S
C1220 C1219 1.399 . S
C1220 C1221 1.376 . S
C1221 H1208 0.930 . S
C1221 C1220 1.376 . S
C1221 C1222 1.388 . S
C1222 H1209 0.930 . S
C1222 C1221 1.388 . S
C1222 C1223 1.390 . S
C1223 C1222 1.390 . S
C1223 C1224 1.394 . S
C1223 C1229 1.465 . S
C1224 C1219 1.399 . S
C1224 C1223 1.394 . S
C1224 C1225 1.516 . S
C1225 C1224 1.516 . S
C1225 C1226 1.502 . S
C1225 C1227 1.561 . S
C1225 C1228 1.526 . S
C1226 H1210 0.959 . S
C1226 H1211 0.959 . S
C1226 H1212 0.961 . S
C1226 C1225 1.502 . S
C1227 H1213 0.960 . S
C1227 H1214 0.961 . S
C1227 H1215 0.959 . S
C1227 C1225 1.561 . S
C1228 C1225 1.526 . S
C1228 C1229 1.396 . S
C1228 C1233 1.390 . S
C1229 C1223 1.465 . S
C1229 C1228 1.396 . S
C1229 C1230 1.399 . S
C1230 H1216 0.929 . S
C1230 C1229 1.399 . S
C1230 C1231 1.385 . S
C1231 H1217 0.931 . S
C1231 C1230 1.385 . S
C1231 C1232 1.389 . S
C1232 C1231 1.389 . S
C1232 C1233 1.387 . S
C1233 H1218 0.930 . S
C1233 C1228 1.390 . S
C1233 C1232 1.387 . S
H1234 C1246 0.930 . S
H1235 C1248 0.930 . S
H1236 C1249 0.930 . S
H1237 C1253 0.959 . S
H1238 C1253 0.959 . S
H1239 C1253 0.961 . S
H1240 C1254 0.960 . S
H1241 C1254 0.961 . S
H1242 C1254 0.959 . S
H1243 C1257 0.929 . S
H1244 C1258 0.931 . S
H1245 C1260 0.930 . S
C1246 H1234 0.930 . S
C1246 C1247 1.399 . S
C1246 C1251 1.399 . S
C1247 C1246 1.399 . S
C1247 C1248 1.376 . S
C1248 H1235 0.930 . S
C1248 C1247 1.376 . S
C1248 C1249 1.388 . S
C1249 H1236 0.930 . S
C1249 C1248 1.388 . S
C1249 C1250 1.390 . S
C1250 C1249 1.390 . S
C1250 C1251 1.394 . S
C1250 C1256 1.465 . S
C1251 C1246 1.399 . S
C1251 C1250 1.394 . S
C1251 C1252 1.516 . S
C1252 C1251 1.516 . S
C1252 C1253 1.502 . S
C1252 C1254 1.561 . S
C1252 C1255 1.526 . S
C1253 H1237 0.959 . S
C1253 H1238 0.959 . S
C1253 H1239 0.961 . S
C1253 C1252 1.502 . S
C1254 H1240 0.960 . S
C1254 H1241 0.961 . S
C1254 H1242 0.959 . S
C1254 C1252 1.561 . S
C1255 C1252 1.526 . S
C1255 C1256 1.396 . S
C1255 C1260 1.390 . S
C1256 C1250 1.465 . S
C1256 C1255 1.396 . S
C1256 C1257 1.399 . S
C1257 H1243 0.929 . S
C1257 C1256 1.399 . S
C1257 C1258 1.385 . S
C1258 H1244 0.931 . S
C1258 C1257 1.385 . S
C1258 C1259 1.389 . S
C1259 C1258 1.389 . S
C1259 C1260 1.387 . S
C1260 H1245 0.930 . S
C1260 C1255 1.390 . S
C1260 C1259 1.387 . S
H1261 C1273 0.930 . S
H1262 C1275 0.930 . S
H1263 C1276 0.930 . S
H1264 C1280 0.959 . S
H1265 C1280 0.959 . S
H1266 C1280 0.961 . S
H1267 C1281 0.960 . S
H1268 C1281 0.961 . S
H1269 C1281 0.959 . S
H1270 C1284 0.929 . S
H1271 C1285 0.931 . S
H1272 C1287 0.930 . S
C1273 H1261 0.930 . S
C1273 C1274 1.399 . S
C1273 C1278 1.399 . S
C1274 C1273 1.399 . S
C1274 C1275 1.376 . S
C1275 H1262 0.930 . S
C1275 C1274 1.376 . S
C1275 C1276 1.388 . S
C1276 H1263 0.930 . S
C1276 C1275 1.388 . S
C1276 C1277 1.390 . S
C1277 C1276 1.390 . S
C1277 C1278 1.394 . S
C1277 C1283 1.465 . S
C1278 C1273 1.399 . S
C1278 C1277 1.394 . S
C1278 C1279 1.516 . S
C1279 C1278 1.516 . S
C1279 C1280 1.502 . S
C1279 C1281 1.561 . S
C1279 C1282 1.526 . S
C1280 H1264 0.959 . S
C1280 H1265 0.959 . S
C1280 H1266 0.961 . S
C1280 C1279 1.502 . S
C1281 H1267 0.960 . S
C1281 H1268 0.961 . S
C1281 H1269 0.959 . S
C1281 C1279 1.561 . S
C1282 C1279 1.526 . S
C1282 C1283 1.396 . S
C1282 C1287 1.390 . S
C1283 C1277 1.465 . S
C1283 C1282 1.396 . S
C1283 C1284 1.399 . S
C1284 H1270 0.929 . S
C1284 C1283 1.399 . S
C1284 C1285 1.385 . S
C1285 H1271 0.931 . S
C1285 C1284 1.385 . S
C1285 C1286 1.389 . S
C1286 C1285 1.389 . S
C1286 C1287 1.387 . S
C1287 H1272 0.930 . S
C1287 C1282 1.390 . S
C1287 C1286 1.387 . S
C653 C1 1.065 . S
C665 C486 1.278 . S
C680 C80 0.938 . S
C692 C535 0.922 . S
C719 C570 2.457 . S
C707 C140 2.505 . S
C734 C211 2.390 . S
C746 C609 2.326 . S
C773 C530 2.455 . S
C761 C31 2.196 . S
C800 C489 0.736 . S
C788 C61 0.875 . S
C827 C619 1.855 . S
C815 C151 1.907 . S
C854 C578 1.643 . S
C842 C200 1.604 . S
C869 C20 1.589 . S
C881 C606 1.708 . S
C908 C538 2.345 . S
C896 C121 2.410 . S
C923 C181 2.319 . S
C935 C499 2.325 . S
C950 C91 0.830 . S
C962 C575 0.845 . S
C989 C495 1.266 . S
C977 C260 1.199 . S
C1004 C320 0.983 . S
C1016 C526 0.897 . S
C1031 C361 2.467 . S
C1043 C579 2.478 . S
C1058 C451 2.369 . S
C1070 C618 2.353 . S
C1085 C271 2.232 . S
C1097 C539 2.455 . S
C1124 C498 0.778 . S
C1112 C301 0.881 . S
C1151 C610 1.860 . S
C1139 C380 1.904 . S
C1178 C569 1.601 . S
C1166 C440 1.613 . S
C1193 C241 1.481 . S
C1205 C615 1.720 . S
C1232 C529 2.325 . S
C1220 C391 2.409 . S
C1259 C490 2.323 . S
C1247 C421 2.305 . S
C1274 C331 0.830 . S
C1286 C566 0.843 . S
