# Generated by pormake.
# Topology rtl, (3,6)-cn, num edge types: 1
# Building blocks:
#     Node 0, Type 0, BuildingBlock: ESEHIV_clean_linker_0, # of connection points: 3
#     Node 1, Type 0, BuildingBlock: ESEHIV_clean_linker_0, # of connection points: 3
#     Node 2, Type 0, BuildingBlock: ESEHIV_clean_linker_0, # of connection points: 3
#     Node 3, Type 0, BuildingBlock: ESEHIV_clean_linker_0, # of connection points: 3
#     Node 4, Type 1, BuildingBlock: CIFDUS_clean_sbu_1, # of connection points: 6
#     Node 5, Type 1, BuildingBlock: CIFDUS_clean_sbu_1, # of connection points: 6
#     Edge 6, Type (0, 1), BuildingBlock: MIFKUJ_clean_linker_0, # of connection points: 2
#     Edge 7, Type (0, 1), BuildingBlock: MIFKUJ_clean_linker_0, # of connection points: 2
#     Edge 8, Type (0, 1), BuildingBlock: MIFKUJ_clean_linker_0, # of connection points: 2
#     Edge 9, Type (0, 1), BuildingBlock: MIFKUJ_clean_linker_0, # of connection points: 2
#     Edge 10, Type (0, 1), BuildingBlock: MIFKUJ_clean_linker_0, # of connection points: 2
#     Edge 11, Type (0, 1), BuildingBlock: MIFKUJ_clean_linker_0, # of connection points: 2
#     Edge 12, Type (0, 1), BuildingBlock: MIFKUJ_clean_linker_0, # of connection points: 2
#     Edge 13, Type (0, 1), BuildingBlock: MIFKUJ_clean_linker_0, # of connection points: 2
#     Edge 14, Type (0, 1), BuildingBlock: MIFKUJ_clean_linker_0, # of connection points: 2
#     Edge 15, Type (0, 1), BuildingBlock: MIFKUJ_clean_linker_0, # of connection points: 2
#     Edge 16, Type (0, 1), BuildingBlock: MIFKUJ_clean_linker_0, # of connection points: 2
#     Edge 17, Type (0, 1), BuildingBlock: MIFKUJ_clean_linker_0, # of connection points: 2
# Relax obj value: 0.028
# Max RMSD: 0.063
# Mean RMSD: 0.047
data_MOF--net-rtl--node1-CIFDUS_clean_sbu_1--node2-ESEHIV_clean_linker_0--edge1-MIFKUJ_clean_linker_0
_symmetry_space_group_name_H-M    P1
_symmetry_Int_Tables_number       1
_symmetry_cell_setting            triclinic
loop_
_symmetry_equiv_pos_as_xyz
'x, y, z'
_cell_length_a     37.973559
_cell_length_b     42.959843
_cell_length_c     30.028867
_cell_angle_alpha  90.097884
_cell_angle_beta   97.658769
_cell_angle_gamma 89.689571
loop_
_atom_site_label
_atom_site_type_symbol
_atom_site_fract_x
_atom_site_fract_y
_atom_site_fract_z
_atom_type_partial_charge
H0 H 0.18966 0.89679 0.0688 0.0
H1 H 0.25332 0.83507 0.15999 0.0
H2 H 0.24314 0.81879 0.0175 0.0
C3 C 0.20644 0.87634 0.07489 0.0
C4 C 0.2144 0.85861 0.03807 0.0
C5 C 0.22073 0.86839 0.11916 0.0
C6 C 0.2431 0.84214 0.12608 0.0
C7 C 0.25123 0.82402 0.08975 0.0
C8 C 0.23691 0.83253 0.04577 0.0
H9 H 0.67969 0.64302 0.57754 0.0
H10 H 0.73434 0.71764 0.52053 0.0
H11 H 0.74768 0.70421 0.66359 0.0
C12 C 0.69768 0.66262 0.5817 0.0
C13 C 0.71263 0.67164 0.62519 0.0
C14 C 0.70544 0.67898 0.54359 0.0
C15 C 0.72849 0.70463 0.54954 0.0
C16 C 0.74381 0.7138 0.59276 0.0
C17 C 0.73596 0.69708 0.63026 0.0
H18 H 0.83352 0.13836 0.01711 0.0
H19 H 0.77786 0.21552 0.06768 0.0
H20 H 0.77232 0.20129 0.92523 0.0
C21 C 0.81614 0.15843 0.01097 0.0
C22 C 0.80415 0.16766 0.96652 0.0
C23 C 0.80712 0.17578 0.04767 0.0
C24 C 0.78515 0.20217 0.03959 0.0
C25 C 0.77257 0.21146 0.99545 0.0
C26 C 0.78239 0.19427 0.95923 0.0
H27 H 0.33099 0.39653 0.50909 0.0
H28 H 0.26629 0.32898 0.56632 0.0
H29 H 0.25754 0.34009 0.42324 0.0
C30 C 0.31069 0.37878 0.50536 0.0
C31 C 0.29471 0.37081 0.46183 0.0
C32 C 0.30085 0.36394 0.54375 0.0
C33 C 0.27464 0.34059 0.53754 0.0
C34 C 0.25937 0.33164 0.49417 0.0
C35 C 0.26936 0.34698 0.45665 0.0
O36 O 0.97827 0.04041 0.48823 0.0
Mn37 Mn 0.00962 0.0157 0.54037 0.0
O38 O 0.94691 0.00445 0.44536 0.0
Mn39 Mn 0.97301 0.97055 0.46877 0.0
O40 O 0.04046 0.99067 0.59231 0.0
O41 O 0.03876 0.0546 0.55399 0.0
Mn42 Mn 0.04627 0.0598 0.61277 0.0
O43 O 0.97403 0.02901 0.58516 0.0
O44 O 0.07206 0.02571 0.6365 0.0
O45 O 0.0451 0.00248 0.49511 0.0
O46 O 0.01678 0.96631 0.44928 0.0
O47 O 0.06845 0.09258 0.58953 0.0
O48 O 0.002 0.06541 0.63081 0.0
C49 C 0.96255 0.9521 0.53142 0.0
C50 C 0.95437 0.03271 0.45541 0.0
C51 C 0.06421 0.99773 0.62549 0.0
C52 C 0.05667 0.07995 0.55134 0.0
C53 C 0.97465 0.04933 0.61683 0.0
C54 C 0.04383 0.98306 0.46214 0.0
O55 O 0.98084 0.9769 0.52702 0.0
O56 O 0.95128 0.93812 0.49406 0.0
O57 O 0.53201 0.54226 0.09964 0.0
Mn58 Mn 0.50793 0.51609 0.04409 0.0
O59 O 0.57022 0.51061 0.14154 0.0
Mn60 Mn 0.54828 0.47493 0.11776 0.0
O61 O 0.48359 0.49119 0.98752 0.0
O62 O 0.47433 0.55216 0.02931 0.0
Mn63 Mn 0.47447 0.56267 0.97273 0.0
O64 O 0.54533 0.53418 0.0051 0.0
O65 O 0.45986 0.528 0.93875 0.0
O66 O 0.47148 0.49737 0.08366 0.0
O67 O 0.50404 0.46653 0.13431 0.0
O68 O 0.44243 0.5891 0.99414 0.0
O69 O 0.52003 0.57558 0.96797 0.0
C70 C 0.5612 0.45534 0.05683 0.0
C71 C 0.55725 0.53749 0.13206 0.0
C72 C 0.46663 0.49961 0.94923 0.0
C73 C 0.45135 0.57425 0.03144 0.0
C74 C 0.54692 0.5584 0.98029 0.0
C75 C 0.47435 0.47815 0.11691 0.0
O76 O 0.54113 0.47961 0.05894 0.0
O77 O 0.57387 0.44361 0.09536 0.0
H78 H 0.26262 0.28005 0.44198 0.0
H79 H 0.22172 0.23599 0.43351 0.0
H80 H 0.15647 0.28117 0.52198 0.0
H81 H 0.19842 0.32452 0.53211 0.0
H82 H 0.1634 0.22538 0.54545 0.0
H83 H 0.13259 0.2727 0.40173 0.0
H84 H 0.14302 0.29515 0.32914 0.0
H85 H 0.18498 0.20767 0.29036 0.0
H86 H 0.17527 0.18479 0.363 0.0
H87 H 0.01957 0.12758 0.51022 0.0
H88 H 0.04896 0.17065 0.47736 0.0
H89 H 0.14144 0.11301 0.47184 0.0
H90 H 0.11213 0.06996 0.50525 0.0
H91 H 0.11691 0.17517 0.40055 0.0
H92 H 0.16282 0.13797 0.55908 0.0
H93 H 0.14934 0.11742 0.63169 0.0
H94 H 0.07157 0.18973 0.6379 0.0
H95 H 0.0847 0.2106 0.56528 0.0
C96 C 0.23936 0.28059 0.45932 0.0
C97 C 0.23365 0.30561 0.48776 0.0
C98 C 0.21581 0.25551 0.45418 0.0
C99 C 0.1855 0.2553 0.47646 0.0
C100 C 0.17958 0.28064 0.50438 0.0
C101 C 0.20353 0.30541 0.51023 0.0
C102 C 0.16138 0.22782 0.47333 0.0
C103 C 0.15304 0.2149 0.51351 0.0
C104 C 0.14786 0.2135 0.43187 0.0
C105 C 0.15348 0.22711 0.388 0.0
C106 C 0.14427 0.2583 0.37786 0.0
C107 C 0.15002 0.2711 0.33668 0.0
C108 C 0.16473 0.25287 0.30521 0.0
C109 C 0.17362 0.22177 0.31479 0.0
C110 C 0.16796 0.20886 0.35594 0.0
C111 C 0.04509 0.12336 0.49884 0.0
C112 C 0.06353 0.09544 0.50993 0.0
C113 C 0.06201 0.14812 0.48039 0.0
C114 C 0.09746 0.14507 0.47253 0.0
C115 C 0.11395 0.11572 0.47727 0.0
C116 C 0.09705 0.091 0.496 0.0
C117 C 0.11961 0.17335 0.47244 0.0
C118 C 0.12743 0.18616 0.43203 0.0
C119 C 0.13238 0.18806 0.51344 0.0
C120 C 0.1246 0.17568 0.55695 0.0
C121 C 0.14283 0.14939 0.57601 0.0
C122 C 0.13532 0.13775 0.61714 0.0
C123 C 0.10964 0.15228 0.63942 0.0
C124 C 0.09147 0.17852 0.62064 0.0
C125 C 0.09898 0.19029 0.57957 0.0
H126 H 0.10378 0.14319 0.6712 0.0
H127 H 0.16919 0.26283 0.27336 0.0
H128 H 0.31458 0.81854 0.14455 0.0
H129 H 0.35203 0.77196 0.15853 0.0
H130 H 0.27678 0.71928 0.06845 0.0
H131 H 0.23925 0.76578 0.0543 0.0
H132 H 0.30269 0.68752 0.15102 0.0
H133 H 0.34706 0.74516 0.03045 0.0
H134 H 0.37121 0.79174 0.99764 0.0
H135 H 0.45958 0.7919 0.103 0.0
H136 H 0.43565 0.74553 0.13678 0.0
H137 H 0.38329 0.56871 0.04465 0.0
H138 H 0.3525 0.60772 0.08362 0.0
H139 H 0.45324 0.64417 0.14474 0.0
H140 H 0.48411 0.60514 0.10433 0.0
H141 H 0.42038 0.68666 0.09662 0.0
H142 H 0.38327 0.62526 0.21163 0.0
H143 H 0.36018 0.58001 0.24868 0.0
H144 H 0.26175 0.58638 0.16039 0.0
H145 H 0.28398 0.63209 0.12328 0.0
C146 C 0.30594 0.79697 0.12794 0.0
C147 C 0.27408 0.79584 0.0981 0.0
C148 C 0.32735 0.77041 0.13595 0.0
C149 C 0.31715 0.74215 0.11459 0.0
C150 C 0.28505 0.74082 0.08545 0.0
C151 C 0.26384 0.76745 0.07701 0.0
C152 C 0.34074 0.71435 0.12052 0.0
C153 C 0.32843 0.68718 0.13912 0.0
C154 C 0.37495 0.71437 0.10684 0.0
C155 C 0.38934 0.74216 0.08645 0.0
C156 C 0.37147 0.75531 0.04684 0.0
C157 C 0.38514 0.78163 0.02802 0.0
C158 C 0.41684 0.79484 0.04831 0.0
C159 C 0.43499 0.78169 0.08738 0.0
C160 C 0.42139 0.75539 0.10637 0.0
C161 C 0.39882 0.58372 0.06872 0.0
C162 C 0.43598 0.58393 0.07161 0.0
C163 C 0.38116 0.60627 0.09104 0.0
C164 C 0.40041 0.62936 0.11692 0.0
C165 C 0.43772 0.6268 0.12476 0.0
C166 C 0.45542 0.60417 0.1022 0.0
C167 C 0.38215 0.65909 0.12616 0.0
C168 C 0.39522 0.68687 0.11001 0.0
C169 C 0.34892 0.65966 0.14274 0.0
C170 C 0.33539 0.63201 0.16451 0.0
C171 C 0.35678 0.6169 0.19992 0.0
C172 C 0.34382 0.5912 0.22098 0.0
C173 C 0.30967 0.58011 0.20662 0.0
C174 C 0.28824 0.59495 0.17144 0.0
C175 C 0.3009 0.62091 0.15058 0.0
H176 H 0.29977 0.56012 0.22289 0.0
H177 H 0.4274 0.81521 0.03368 0.0
H178 H 0.73032 0.77204 0.55889 0.0
H179 H 0.76911 0.81749 0.56803 0.0
H180 H 0.84942 0.76314 0.649 0.0
H181 H 0.80989 0.71789 0.64134 0.0
H182 H 0.84995 0.81975 0.68196 0.0
H183 H 0.85309 0.7771 0.53604 0.0
H184 H 0.82887 0.75701 0.46129 0.0
H185 H 0.78089 0.84593 0.42648 0.0
H186 H 0.8044 0.86644 0.50132 0.0
H187 H 0.99152 0.90481 0.58326 0.0
H188 H 0.95457 0.86811 0.61833 0.0
H189 H 0.86805 0.93415 0.60194 0.0
H190 H 0.9053 0.97115 0.56805 0.0
H191 H 0.87142 0.87281 0.54159 0.0
H192 H 0.87583 0.91498 0.69151 0.0
H193 H 0.90671 0.932 0.76484 0.0
H194 H 0.94941 0.83995 0.78968 0.0
H195 H 0.91922 0.82249 0.71609 0.0
C196 C 0.75625 0.76985 0.57864 0.0
C197 C 0.76733 0.74139 0.5989 0.0
C198 C 0.77842 0.79581 0.58392 0.0
C199 C 0.81257 0.79366 0.60851 0.0
C200 C 0.82327 0.76544 0.62986 0.0
C201 C 0.80078 0.73957 0.62527 0.0
C202 C 0.8376 0.82034 0.60969 0.0
C203 C 0.8548 0.83122 0.65123 0.0
C204 C 0.84418 0.83535 0.56967 0.0
C205 C 0.8302 0.8232 0.52447 0.0
C206 C 0.83717 0.79231 0.51256 0.0
C207 C 0.82359 0.78085 0.47017 0.0
C208 C 0.80326 0.80015 0.43921 0.0
C209 C 0.79658 0.83099 0.45053 0.0
C210 C 0.81004 0.84255 0.49292 0.0
C211 C 0.96559 0.9124 0.59041 0.0
C212 C 0.95122 0.94078 0.57321 0.0
C213 C 0.94434 0.89128 0.61005 0.0
C214 C 0.90851 0.89835 0.6123 0.0
C215 C 0.89573 0.92838 0.60081 0.0
C216 C 0.91717 0.94965 0.58185 0.0
C217 C 0.88296 0.87258 0.6137 0.0
C218 C 0.86611 0.86157 0.57234 0.0
C219 C 0.87762 0.85712 0.65367 0.0
C220 C 0.89557 0.86752 0.69804 0.0
C221 C 0.89211 0.89844 0.71236 0.0
C222 C 0.90942 0.90815 0.75405 0.0
C223 C 0.93009 0.88709 0.78185 0.0
C224 C 0.93341 0.85625 0.76808 0.0
C225 C 0.91618 0.84643 0.72641 0.0
H226 H 0.94347 0.89465 0.81411 0.0
H227 H 0.79276 0.79124 0.40641 0.0
H228 H 0.71004 0.22266 0.02799 0.0
H229 H 0.67055 0.26802 0.01335 0.0
H230 H 0.74258 0.30788 0.92991 0.0
H231 H 0.78171 0.2621 0.94347 0.0
H232 H 0.71862 0.347 0.00552 0.0
H233 H 0.67532 0.28686 0.87467 0.0
H234 H 0.65298 0.2393 0.83465 0.0
H235 H 0.56352 0.23838 0.9083 0.0
H236 H 0.58563 0.28567 0.94931 0.0
H237 H 0.60575 0.4726 0.99742 0.0
H238 H 0.63848 0.43484 0.95713 0.0
H239 H 0.56885 0.36206 0.9912 0.0
H240 H 0.53512 0.40004 0.02842 0.0
H241 H 0.59634 0.34295 0.92338 0.0
H242 H 0.64408 0.38933 0.06636 0.0
H243 H 0.66462 0.43315 0.11625 0.0
H244 H 0.74351 0.4556 0.03153 0.0
H245 H 0.72308 0.4121 0.98085 0.0
C246 C 0.71734 0.24109 0.00646 0.0
C247 C 0.74889 0.239 0.98694 0.0
C248 C 0.69473 0.26682 0.99789 0.0
C249 C 0.70357 0.29112 0.97028 0.0
C250 C 0.73521 0.28924 0.95104 0.0
C251 C 0.75748 0.26317 0.95881 0.0
C252 C 0.68054 0.31918 0.9638 0.0
C253 C 0.69221 0.34646 0.98658 0.0
C254 C 0.6458 0.31804 0.94012 0.0
C255 C 0.6323 0.28971 0.91531 0.0
C256 C 0.65105 0.27637 0.88263 0.0
C257 C 0.63839 0.24949 0.8597 0.0
C258 C 0.60688 0.23579 0.86898 0.0
C259 C 0.58793 0.249 0.90115 0.0
C260 C 0.60049 0.27587 0.92421 0.0
C261 C 0.59595 0.44901 0.99324 0.0
C262 C 0.5679 0.43916 0.01572 0.0
C263 C 0.61512 0.42721 0.97109 0.0
C264 C 0.60718 0.39526 0.97287 0.0
C265 C 0.57596 0.38639 0.98969 0.0
C266 C 0.55644 0.40821 0.01082 0.0
C267 C 0.63405 0.37081 0.96599 0.0
C268 C 0.62313 0.34399 0.9411 0.0
C269 C 0.66923 0.37191 0.98899 0.0
C270 C 0.68181 0.39779 0.0196 0.0
C271 C 0.66572 0.40371 0.05834 0.0
C272 C 0.67732 0.42848 0.08672 0.0
C273 C 0.70529 0.4472 0.07699 0.0
C274 C 0.72179 0.44113 0.03894 0.0
C275 C 0.71021 0.41644 0.01037 0.0
H276 H 0.71423 0.46637 0.09899 0.0
H277 H 0.59713 0.21498 0.85119 0.0
H278 H 0.15664 0.89497 0.13028 0.0
H279 H 0.14123 0.92398 0.19482 0.0
H280 H 0.24793 0.91201 0.26235 0.0
H281 H 0.26403 0.8836 0.19715 0.0
H282 H 0.19724 0.89796 0.31703 0.0
H283 H 0.22339 0.98262 0.22633 0.0
H284 H 0.22221 0.01362 0.15714 0.0
H285 H 0.10928 0.02535 0.15053 0.0
H286 H 0.10966 0.99402 0.21931 0.0
H287 H 0.11695 0.98268 0.4868 0.0
H288 H 0.16221 0.9731 0.43617 0.0
H289 H 0.07946 0.97087 0.32276 0.0
H290 H 0.0351 0.98026 0.37232 0.0
H291 H 0.13687 1.00081 0.3014 0.0
H292 H 0.11078 0.90401 0.37821 0.0
H293 H 0.11065 0.87159 0.44595 0.0
H294 H 0.22349 0.88301 0.47781 0.0
H295 H 0.22415 0.9158 0.41044 0.0
C296 C 0.17713 0.89897 0.15836 0.0
C297 C 0.21165 0.88694 0.15824 0.0
C298 C 0.16822 0.91552 0.1954 0.0
C299 C 0.19353 0.92046 0.23328 0.0
C300 C 0.228 0.90851 0.23347 0.0
C301 C 0.23706 0.89212 0.19622 0.0
C302 C 0.18305 0.93695 0.2731 0.0
C303 C 0.18489 0.92083 0.314 0.0
C304 C 0.16699 0.96679 0.26927 0.0
C305 C 0.16656 0.98584 0.22796 0.0
C306 C 0.19826 0.99164 0.20999 0.0
C307 C 0.19774 0.0093 0.17084 0.0
C308 C 0.16569 0.02143 0.14943 0.0
C309 C 0.13409 0.01596 0.16717 0.0
C310 C 0.13446 0.99829 0.20629 0.0
C311 C 0.10878 0.98068 0.45096 0.0
C312 C 0.07257 0.98174 0.43348 0.0
C313 C 0.13451 0.97511 0.42213 0.0
C314 C 0.12417 0.97102 0.37563 0.0
C315 C 0.08819 0.97398 0.35834 0.0
C316 C 0.06278 0.97912 0.38684 0.0
C317 C 0.14936 0.9611 0.34436 0.0
C318 C 0.15036 0.97845 0.30494 0.0
C319 C 0.16789 0.93237 0.34948 0.0
C320 C 0.16745 0.91263 0.38974 0.0
C321 C 0.1355 0.89976 0.39986 0.0
C322 C 0.13534 0.88131 0.43814 0.0
C323 C 0.16703 0.87534 0.46626 0.0
C324 C 0.19896 0.88773 0.45607 0.0
C325 C 0.19924 0.90624 0.41787 0.0
H326 H 0.16685 0.86104 0.49587 0.0
H327 H 0.16534 0.03509 0.11912 0.0
H328 H 0.69464 0.69783 0.70187 0.0
H329 H 0.67829 0.67164 0.76803 0.0
H330 H 0.69225 0.58241 0.70639 0.0
H331 H 0.70823 0.6087 0.63947 0.0
H332 H 0.63397 0.58189 0.74373 0.0
H333 H 0.75288 0.60968 0.79496 0.0
H334 H 0.80555 0.6434 0.80835 0.0
H335 H 0.75146 0.70302 0.89229 0.0
H336 H 0.69824 0.66992 0.87889 0.0
H337 H 0.59047 0.51661 0.94554 0.0
H338 H 0.63237 0.52851 0.89238 0.0
H339 H 0.61577 0.62671 0.9122 0.0
H340 H 0.57418 0.61491 0.96514 0.0
H341 H 0.68532 0.61291 0.89797 0.0
H342 H 0.56324 0.58752 0.83357 0.0
H343 H 0.51222 0.55175 0.8213 0.0
H344 H 0.57627 0.48464 0.76213 0.0
H345 H 0.62778 0.51968 0.77502 0.0
C346 C 0.69466 0.67262 0.70257 0.0
C347 C 0.70301 0.65534 0.66554 0.0
C348 C 0.68539 0.65763 0.74053 0.0
C349 C 0.68473 0.62497 0.74274 0.0
C350 C 0.69275 0.60761 0.70564 0.0
C351 C 0.70179 0.62264 0.66738 0.0
C352 C 0.67413 0.60932 0.78313 0.0
C353 C 0.64582 0.58815 0.77741 0.0
C354 C 0.68945 0.61741 0.82727 0.0
C355 C 0.72146 0.63737 0.83569 0.0
C356 C 0.75212 0.63009 0.81604 0.0
C357 C 0.78209 0.64909 0.82366 0.0
C358 C 0.78184 0.67536 0.8511 0.0
C359 C 0.75162 0.68266 0.87105 0.0
C360 C 0.72155 0.66376 0.8635 0.0
C361 C 0.59702 0.54067 0.94001 0.0
C362 C 0.57914 0.56486 0.95938 0.0
C363 C 0.62067 0.54746 0.90931 0.0
C364 C 0.62674 0.57851 0.89782 0.0
C365 C 0.61145 0.6026 0.92047 0.0
C366 C 0.58767 0.59585 0.95069 0.0
C367 C 0.64471 0.58633 0.85832 0.0
C368 C 0.67423 0.60612 0.86421 0.0
C369 C 0.63079 0.57673 0.81436 0.0
C370 C 0.59947 0.55604 0.80577 0.0
C371 C 0.56647 0.56503 0.81824 0.0
C372 C 0.53746 0.54487 0.81121 0.0
C373 C 0.54099 0.51584 0.79115 0.0
C374 C 0.57352 0.50701 0.77788 0.0
C375 C 0.60265 0.527 0.78507 0.0
H376 H 0.51852 0.50025 0.78577 0.0
H377 H 0.80507 0.69005 0.85695 0.0
H378 H 0.84309 0.21185 0.11353 0.0
H379 H 0.86758 0.19613 0.19021 0.0
H380 H 0.82656 0.10359 0.16398 0.0
H381 H 0.80287 0.11895 0.08702 0.0
H382 H 0.81263 0.13513 0.25042 0.0
H383 H 0.90642 0.10931 0.15967 0.0
H384 H 0.94905 0.12256 0.10756 0.0
H385 H 0.99712 0.19079 0.20087 0.0
H386 H 0.95436 0.17825 0.25325 0.0
H387 H 0.89242 0.02579 0.40015 0.0
H388 H 0.86711 0.05949 0.33977 0.0
H389 H 0.94794 0.12801 0.37958 0.0
H390 H 0.97476 0.09317 0.43998 0.0
H391 H 0.94242 0.12018 0.29298 0.0
H392 H 0.85712 0.14123 0.38959 0.0
H393 H 0.8148 0.13063 0.44315 0.0
H394 H 0.7503 0.07697 0.34299 0.0
H395 H 0.79248 0.08682 0.28899 0.0
C396 C 0.83923 0.18819 0.12428 0.0
C397 C 0.82113 0.16657 0.0944 0.0
C398 C 0.85326 0.17926 0.16795 0.0
C399 C 0.84883 0.14873 0.18273 0.0
C400 C 0.83019 0.12728 0.15323 0.0
C401 C 0.81683 0.13601 0.10929 0.0
C402 C 0.86411 0.13877 0.22865 0.0
C403 C 0.84097 0.13171 0.25984 0.0
C404 C 0.90117 0.13574 0.24147 0.0
C405 C 0.92691 0.14315 0.21007 0.0
C406 C 0.92583 0.12737 0.16885 0.0
C407 C 0.95007 0.1347 0.13932 0.0
C408 C 0.9757 0.15759 0.15082 0.0
C409 C 0.9772 0.17312 0.19195 0.0
C410 C 0.95298 0.16591 0.22157 0.0
C411 C 0.9047 0.04821 0.39676 0.0
C412 C 0.93583 0.05663 0.42494 0.0
C413 C 0.88986 0.06772 0.36221 0.0
C414 C 0.90516 0.09664 0.35515 0.0
C415 C 0.93549 0.10587 0.38437 0.0
C416 C 0.95064 0.08607 0.41915 0.0
C417 C 0.89085 0.11537 0.31481 0.0
C418 C 0.9141 0.12416 0.28437 0.0
C419 C 0.85383 0.12055 0.303 0.0
C420 C 0.82811 0.1147 0.33524 0.0
C421 C 0.83402 0.12702 0.37903 0.0
C422 C 0.81003 0.12115 0.40948 0.0
C423 C 0.7799 0.10312 0.39649 0.0
C424 C 0.77365 0.09096 0.35299 0.0
C425 C 0.79756 0.09673 0.32241 0.0
H426 H 0.76137 0.09859 0.42013 0.0
H427 H 0.99445 0.16322 0.12792 0.0
H428 H 0.31669 0.32601 0.61825 0.0
H429 H 0.34608 0.34024 0.69295 0.0
H430 H 0.35653 0.43461 0.64871 0.0
H431 H 0.32509 0.42144 0.57498 0.0
H432 H 0.42333 0.39729 0.69596 0.0
H433 H 0.30103 0.43141 0.70662 0.0
H434 H 0.23678 0.42176 0.70334 0.0
H435 H 0.25779 0.35103 0.80441 0.0
H436 H 0.32227 0.35997 0.80774 0.0
H437 H 0.46718 0.50778 0.86054 0.0
H438 H 0.44274 0.47443 0.79901 0.0
H439 H 0.41607 0.40572 0.8935 0.0
H440 H 0.44076 0.43977 0.95635 0.0
H441 H 0.36014 0.41716 0.82769 0.0
H442 H 0.47995 0.38952 0.83017 0.0
H443 H 0.54479 0.39593 0.83502 0.0
H444 H 0.53115 0.44788 0.71185 0.0
H445 H 0.46617 0.44247 0.70677 0.0
C446 C 0.32446 0.34999 0.6244 0.0
C447 C 0.31838 0.37248 0.58994 0.0
C448 C 0.34161 0.35796 0.66716 0.0
C449 C 0.3536 0.38841 0.67622 0.0
C450 C 0.34769 0.4109 0.64223 0.0
C451 C 0.32991 0.40317 0.59985 0.0
C452 C 0.37283 0.39702 0.72085 0.0
C453 C 0.40961 0.40174 0.7248 0.0
C454 C 0.35511 0.40132 0.75895 0.0
C455 C 0.31644 0.39602 0.75694 0.0
C456 C 0.29196 0.41354 0.72774 0.0
C457 C 0.25551 0.40827 0.72597 0.0
C458 C 0.24321 0.3857 0.75352 0.0
C459 C 0.26736 0.36844 0.783 0.0
C460 C 0.30385 0.3736 0.78485 0.0
C461 C 0.45645 0.48544 0.86847 0.0
C462 C 0.45566 0.4765 0.91337 0.0
C463 C 0.44265 0.46624 0.8331 0.0
C464 C 0.4277 0.43741 0.84141 0.0
C465 C 0.42755 0.42787 0.88627 0.0
C466 C 0.44184 0.44716 0.9221 0.0
C467 C 0.41068 0.41876 0.80251 0.0
C468 C 0.37424 0.41209 0.79938 0.0
C469 C 0.4289 0.41209 0.76532 0.0
C470 C 0.46806 0.41565 0.76818 0.0
C471 C 0.49072 0.40255 0.80429 0.0
C472 C 0.52753 0.406 0.80708 0.0
C473 C 0.54208 0.42228 0.77375 0.0
C474 C 0.51984 0.43522 0.73761 0.0
C475 C 0.483 0.43197 0.73476 0.0
H476 H 0.57059 0.42486 0.77592 0.0
H477 H 0.21497 0.38167 0.75213 0.0
H478 H 0.73772 0.67291 0.46758 0.0
H479 H 0.71107 0.65578 0.39289 0.0
H480 H 0.60944 0.64715 0.44098 0.0
H481 H 0.63613 0.66371 0.5158 0.0
H482 H 0.62197 0.59778 0.39584 0.0
H483 H 0.63006 0.70756 0.3683 0.0
H484 H 0.66078 0.75795 0.36763 0.0
H485 H 0.73003 0.72014 0.27903 0.0
H486 H 0.70004 0.66938 0.27966 0.0
H487 H 0.51855 0.57197 0.18436 0.0
H488 H 0.54239 0.60285 0.25051 0.0
H489 H 0.64852 0.58973 0.2174 0.0
H490 H 0.6249 0.55782 0.15248 0.0
H491 H 0.63296 0.65222 0.25285 0.0
H492 H 0.62635 0.54294 0.28163 0.0
H493 H 0.59974 0.49115 0.28661 0.0
H494 H 0.53163 0.52712 0.37801 0.0
H495 H 0.55632 0.57948 0.37145 0.0
C496 C 0.70961 0.66766 0.46207 0.0
C497 C 0.68907 0.66956 0.49769 0.0
C498 C 0.69434 0.65799 0.41926 0.0
C499 C 0.65805 0.65049 0.41093 0.0
C500 C 0.63747 0.65275 0.44641 0.0
C501 C 0.65278 0.66212 0.48926 0.0
C502 C 0.64186 0.63853 0.36616 0.0
C503 C 0.62373 0.61011 0.36471 0.0
C504 C 0.64522 0.65397 0.32523 0.0
C505 C 0.66298 0.68459 0.32433 0.0
C506 C 0.65198 0.70993 0.34889 0.0
C507 C 0.66925 0.73857 0.34849 0.0
C508 C 0.69739 0.74223 0.32339 0.0
C509 C 0.70825 0.71727 0.29849 0.0
C510 C 0.69109 0.68857 0.29882 0.0
C511 C 0.5468 0.57663 0.19041 0.0
C512 C 0.56993 0.56285 0.16322 0.0
C513 C 0.56042 0.59406 0.22832 0.0
C514 C 0.59726 0.59845 0.23896 0.0
C515 C 0.62004 0.58676 0.2097 0.0
C516 C 0.60655 0.56864 0.1726 0.0
C517 C 0.6124 0.61195 0.28298 0.0
C518 C 0.63065 0.64034 0.28416 0.0
C519 C 0.60927 0.59649 0.32385 0.0
C520 C 0.59267 0.56537 0.32523 0.0
C521 C 0.60495 0.54005 0.3017 0.0
C522 C 0.59024 0.51052 0.30488 0.0
C523 C 0.56377 0.50585 0.33227 0.0
C524 C 0.55181 0.53076 0.35632 0.0
C525 C 0.56597 0.56043 0.35263 0.0
H526 H 0.55273 0.48287 0.33512 0.0
H527 H 0.71075 0.76441 0.32317 0.0
H528 H 0.80779 0.10421 0.95525 0.0
H529 H 0.82571 0.07574 0.89103 0.0
H530 H 0.84246 0.16276 0.82574 0.0
H531 H 0.82469 0.19123 0.88954 0.0
H532 H 0.8091 0.12254 0.76675 0.0
H533 H 0.9115 0.11969 0.88217 0.0
H534 H 0.9431 0.10721 0.95723 0.0
H535 H 0.91933 0.01031 0.93563 0.0
H536 H 0.88715 0.0223 0.86063 0.0
H537 H 0.94509 0.10455 0.63308 0.0
H538 H 0.90319 0.11526 0.68615 0.0
H539 H 0.89365 0.01679 0.70956 0.0
H540 H 0.93553 0.00595 0.6553 0.0
H541 H 0.91324 0.05133 0.7879 0.0
H542 H 0.82162 0.05451 0.66477 0.0
H543 H 0.79267 0.0682 0.5889 0.0
H544 H 0.79774 0.16519 0.62373 0.0
H545 H 0.82725 0.15216 0.69961 0.0
C546 C 0.81548 0.11726 0.92729 0.0
C547 C 0.81482 0.15003 0.92759 0.0
C548 C 0.82559 0.10095 0.89053 0.0
C549 C 0.8356 0.11708 0.85355 0.0
C550 C 0.8346 0.14976 0.85366 0.0
C551 C 0.82441 0.16603 0.89022 0.0
C552 C 0.8482 0.10034 0.81512 0.0
C553 C 0.8319 0.107 0.77135 0.0
C554 C 0.87715 0.07914 0.82109 0.0
C555 C 0.89652 0.07194 0.86609 0.0
C556 C 0.91276 0.09576 0.8936 0.0
C557 C 0.93081 0.08877 0.93609 0.0
C558 C 0.93311 0.058 0.95126 0.0
C559 C 0.91744 0.03414 0.92389 0.0
C560 C 0.8993 0.04102 0.88139 0.0
C561 C 0.93311 0.08515 0.6484 0.0
C562 C 0.94325 0.05446 0.63999 0.0
C563 C 0.90916 0.09126 0.67873 0.0
C564 C 0.89518 0.06684 0.70179 0.0
C565 C 0.904 0.03596 0.69194 0.0
C566 C 0.92762 0.02977 0.66076 0.0
C567 C 0.87491 0.07441 0.73951 0.0
C568 C 0.8898 0.06615 0.78323 0.0
C569 C 0.84481 0.09427 0.73348 0.0
C570 C 0.82681 0.10232 0.68792 0.0
C571 C 0.81679 0.07878 0.65619 0.0
C572 C 0.80024 0.08642 0.61317 0.0
C573 C 0.7934 0.11754 0.60149 0.0
C574 C 0.80304 0.14109 0.63284 0.0
C575 C 0.81963 0.13358 0.6759 0.0
H576 H 0.7806 0.12341 0.56815 0.0
H577 H 0.94711 0.05263 0.98416 0.0
H578 H 0.25101 0.39305 0.38861 0.0
H579 H 0.26818 0.41798 0.32144 0.0
H580 H 0.37864 0.40916 0.3767 0.0
H581 H 0.3616 0.38467 0.44393 0.0
H582 H 0.36782 0.46387 0.33969 0.0
H583 H 0.3357 0.35803 0.29575 0.0
H584 H 0.29508 0.31325 0.28428 0.0
H585 H 0.22199 0.36748 0.19388 0.0
H586 H 0.26202 0.41272 0.2053 0.0
H587 H 0.46713 0.42666 0.16681 0.0
H588 H 0.4211 0.41569 0.21338 0.0
H589 H 0.36325 0.49756 0.16245 0.0
H590 H 0.41023 0.50939 0.1158 0.0
H591 H 0.33413 0.41662 0.18927 0.0
H592 H 0.37566 0.52404 0.23605 0.0
H593 H 0.42516 0.56159 0.24723 0.0
H594 H 0.48703 0.49636 0.33379 0.0
H595 H 0.43853 0.45848 0.32207 0.0
C596 C 0.27896 0.39642 0.38635 0.0
C597 C 0.30498 0.38682 0.42157 0.0
C598 C 0.28873 0.41069 0.34794 0.0
C599 C 0.32474 0.41526 0.34371 0.0
C600 C 0.35067 0.40609 0.37919 0.0
C601 C 0.34092 0.39209 0.41768 0.0
C602 C 0.33593 0.42886 0.30221 0.0
C603 C 0.3598 0.45386 0.30672 0.0
C604 C 0.32549 0.41606 0.25891 0.0
C605 C 0.3016 0.38884 0.25183 0.0
C606 C 0.31084 0.36045 0.27369 0.0
C607 C 0.28795 0.33499 0.26716 0.0
C608 C 0.25591 0.33755 0.2385 0.0
C609 C 0.24677 0.36555 0.21616 0.0
C610 C 0.26954 0.3911 0.22264 0.0
C611 C 0.44446 0.44225 0.16484 0.0
C612 C 0.44272 0.46925 0.13812 0.0
C613 C 0.418 0.43574 0.19132 0.0
C614 C 0.38903 0.45593 0.1917 0.0
C615 C 0.38561 0.48178 0.16273 0.0
C616 C 0.41238 0.48845 0.13605 0.0
C617 C 0.36582 0.45144 0.2271 0.0
C618 C 0.34035 0.42773 0.22182 0.0
C619 C 0.37499 0.46509 0.26987 0.0
C620 C 0.40364 0.48844 0.27792 0.0
C621 C 0.39999 0.51777 0.2572 0.0
C622 C 0.42791 0.53912 0.26362 0.0
C623 C 0.45937 0.53145 0.29116 0.0
C624 C 0.46288 0.50245 0.31238 0.0
C625 C 0.43519 0.48101 0.30584 0.0
H626 H 0.48097 0.54796 0.2961 0.0
H627 H 0.23822 0.31782 0.2335 0.0
H628 H 0.1447 0.86885 0.00536 0.0
H629 H 0.11992 0.88561 0.92931 0.0
H630 H 0.22518 0.88659 0.89062 0.0
H631 H 0.25001 0.86893 0.96623 0.0
H632 H 0.1716 0.94618 0.87845 0.0
H633 H 0.1901 0.83676 0.84416 0.0
H634 H 0.18273 0.78055 0.85628 0.0
H635 H 0.0693 0.79147 0.83297 0.0
H636 H 0.07603 0.84789 0.82144 0.0
H637 H 0.13414 0.99235 0.6569 0.0
H638 H 0.16062 0.96155 0.72118 0.0
H639 H 0.0588 0.91967 0.73035 0.0
H640 H 0.0326 0.94952 0.66422 0.0
H641 H 0.10956 0.87907 0.75832 0.0
H642 H 0.08687 0.98485 0.79253 0.0
H643 H 0.08872 0.04191 0.78458 0.0
H644 H 0.2025 0.03983 0.81412 0.0
H645 H 0.20137 0.98265 0.82157 0.0
C646 C 0.16248 0.8724 0.98046 0.0
C647 C 0.19926 0.86758 0.9916 0.0
C648 C 0.1483 0.88184 0.9371 0.0
C649 C 0.17072 0.88715 0.90437 0.0
C650 C 0.20745 0.88238 0.91536 0.0
C651 C 0.22156 0.87227 0.95844 0.0
C652 C 0.15597 0.89949 0.85955 0.0
C653 C 0.15858 0.93148 0.85186 0.0
C654 C 0.13763 0.88045 0.82573 0.0
C655 C 0.13357 0.84658 0.83254 0.0
C656 C 0.16359 0.82724 0.84217 0.0
C657 C 0.15953 0.79532 0.84879 0.0
C658 C 0.12557 0.78246 0.84555 0.0
C659 C 0.09559 0.80148 0.83556 0.0
C660 C 0.09951 0.83342 0.82895 0.0
C661 C 0.11771 0.97576 0.6717 0.0
C662 C 0.08136 0.97332 0.65569 0.0
C663 C 0.13275 0.95839 0.70876 0.0
C664 C 0.1115 0.93903 0.73171 0.0
C665 C 0.07574 0.93464 0.71355 0.0
C666 C 0.06079 0.95157 0.67563 0.0
C667 C 0.12595 0.92587 0.77651 0.0
C668 C 0.1229 0.89384 0.78458 0.0
C669 C 0.14323 0.94502 0.81127 0.0
C670 C 0.14405 0.97944 0.80716 0.0
C671 C 0.1123 0.99654 0.79703 0.0
C672 C 0.11322 0.0289 0.79264 0.0
C673 C 0.14571 0.04448 0.79873 0.0
C674 C 0.17735 0.02772 0.80934 0.0
C675 C 0.17659 0.99533 0.81368 0.0
H676 H 0.14637 0.06954 0.79532 0.0
H677 H 0.12248 0.75774 0.85066 0.0
loop_
_geom_bond_atom_site_label_1
_geom_bond_atom_site_label_2
_geom_bond_distance
_geom_bond_site_symmetry_2
_ccdc_geom_bond_type
H0 C3 0.931 . S
H1 C6 0.928 . S
H2 C8 0.930 . S
C3 H0 0.931 . S
C3 C4 1.413 . S
C3 C5 1.360 . S
C4 C3 1.413 . S
C4 C8 1.429 . S
C5 C3 1.360 . S
C5 C6 1.372 . S
C6 H1 0.928 . S
C6 C5 1.372 . S
C6 C7 1.404 . S
C7 C6 1.404 . S
C7 C8 1.391 . S
C8 H2 0.930 . S
C8 C4 1.429 . S
C8 C7 1.391 . S
H9 C12 0.931 . S
H10 C15 0.928 . S
H11 C17 0.930 . S
C12 H9 0.931 . S
C12 C13 1.413 . S
C12 C14 1.360 . S
C13 C12 1.413 . S
C13 C17 1.429 . S
C14 C12 1.360 . S
C14 C15 1.372 . S
C15 H10 0.928 . S
C15 C14 1.372 . S
C15 C16 1.404 . S
C16 C15 1.404 . S
C16 C17 1.391 . S
C17 H11 0.930 . S
C17 C13 1.429 . S
C17 C16 1.391 . S
H18 C21 0.931 . S
H19 C24 0.928 . S
H20 C26 0.930 . S
C21 H18 0.931 . S
C21 C22 1.413 1_554 S
C21 C23 1.360 . S
C22 C21 1.413 1_556 S
C22 C26 1.429 . S
C23 C21 1.360 . S
C23 C24 1.372 . S
C24 H19 0.928 . S
C24 C23 1.372 . S
C24 C25 1.388 1_554 S
C25 C24 1.388 1_556 S
C25 C26 1.408 . S
C26 H20 0.930 . S
C26 C22 1.429 . S
C26 C25 1.408 . S
H27 C30 0.931 . S
H28 C33 0.928 . S
H29 C35 0.930 . S
C30 H27 0.931 . S
C30 C31 1.413 . S
C30 C32 1.360 . S
C31 C30 1.413 . S
C31 C35 1.429 . S
C32 C30 1.360 . S
C32 C33 1.372 . S
C33 H28 0.928 . S
C33 C32 1.372 . S
C33 C34 1.404 . S
C34 C33 1.404 . S
C34 C35 1.391 . S
C35 H29 0.930 . S
C35 C31 1.429 . S
C35 C34 1.391 . S
O36 Mn37 2.163 1_655 S
O36 C50 1.244 . S
Mn37 O36 2.163 1_455 S
Mn37 O40 2.160 1_545 S
Mn37 O41 2.221 . S
Mn37 O43 2.163 1_455 S
Mn37 O45 2.160 1_545 S
Mn37 O55 2.221 1_445 S
O38 Mn39 2.087 1_545 S
O38 C50 1.256 . S
Mn39 O38 2.087 1_565 S
Mn39 O46 2.089 1_655 S
Mn39 O55 2.290 . S
Mn39 O56 2.251 . S
O40 Mn37 2.160 1_565 S
O40 C51 1.239 . S
O41 Mn37 2.221 . S
O41 Mn42 2.290 . S
O41 C52 1.278 . S
Mn42 O41 2.290 . S
Mn42 O44 2.089 . S
Mn42 O47 2.251 . S
Mn42 O48 2.087 1_455 S
O43 Mn37 2.163 1_655 S
O43 C53 1.244 . S
O44 Mn42 2.089 . S
O44 C51 1.256 1_545 S
O45 Mn37 2.160 1_565 S
O45 C54 1.239 . S
O46 Mn39 2.089 1_455 S
O46 C54 1.256 . S
O47 Mn42 2.251 . S
O47 C52 1.241 . S
O48 Mn42 2.087 1_655 S
O48 C53 1.256 . S
C49 O55 1.278 . S
C49 O56 1.241 . S
C50 O36 1.244 . S
C50 O38 1.256 . S
C51 O40 1.239 . S
C51 O44 1.256 1_565 S
C52 O41 1.278 . S
C52 O47 1.241 . S
C53 O43 1.244 . S
C53 O48 1.256 . S
C54 O45 1.239 . S
C54 O46 1.256 . S
O55 Mn37 2.221 1_665 S
O55 Mn39 2.290 . S
O55 C49 1.278 . S
O56 Mn39 2.251 . S
O56 C49 1.241 . S
O57 Mn58 2.163 . S
O57 C71 1.244 . S
Mn58 O57 2.163 . S
Mn58 O61 2.160 1_554 S
Mn58 O62 2.221 . S
Mn58 O64 2.163 1_554 S
Mn58 O66 2.160 . S
Mn58 O76 2.221 . S
O59 Mn60 2.087 . S
O59 C71 1.256 . S
Mn60 O59 2.087 . S
Mn60 O67 2.089 . S
Mn60 O76 2.290 . S
Mn60 O77 2.251 . S
O61 Mn58 2.160 1_556 S
O61 C72 1.239 . S
O62 Mn58 2.221 . S
O62 Mn63 2.290 1_554 S
O62 C73 1.278 . S
Mn63 O62 2.290 1_556 S
Mn63 O65 2.089 . S
Mn63 O68 2.251 1_556 S
Mn63 O69 2.087 . S
O64 Mn58 2.163 1_556 S
O64 C74 1.244 . S
O65 Mn63 2.089 . S
O65 C72 1.256 . S
O66 Mn58 2.160 . S
O66 C75 1.239 . S
O67 Mn60 2.089 . S
O67 C75 1.256 . S
O68 Mn63 2.251 1_554 S
O68 C73 1.241 . S
O69 Mn63 2.087 . S
O69 C74 1.256 . S
C70 O76 1.278 . S
C70 O77 1.241 . S
C71 O57 1.244 . S
C71 O59 1.256 . S
C72 O61 1.239 . S
C72 O65 1.256 . S
C73 O62 1.278 . S
C73 O68 1.241 . S
C74 O64 1.244 . S
C74 O69 1.256 . S
C75 O66 1.239 . S
C75 O67 1.256 . S
O76 Mn58 2.221 . S
O76 Mn60 2.290 . S
O76 C70 1.278 . S
O77 Mn60 2.251 . S
O77 C70 1.241 . S
H78 C96 0.951 . S
H79 C98 0.951 . S
H80 C100 0.950 . S
H81 C101 0.950 . S
H82 C103 0.950 . S
H83 C106 0.950 . S
H84 C107 0.950 . S
H85 C109 0.950 . S
H86 C110 0.950 . S
H87 C111 0.951 . S
H88 C113 0.951 . S
H89 C115 0.950 . S
H90 C116 0.950 . S
H91 C118 0.950 . S
H92 C121 0.950 . S
H93 C122 0.950 . S
H94 C124 0.950 . S
H95 C125 0.950 . S
C96 H78 0.951 . S
C96 C97 1.366 . S
C96 C98 1.388 . S
C97 C96 1.366 . S
C97 C101 1.385 . S
C98 H79 0.951 . S
C98 C96 1.388 . S
C98 C99 1.366 . S
C99 C98 1.366 . S
C99 C100 1.414 . S
C99 C102 1.499 . S
C100 H80 0.950 . S
C100 C99 1.414 . S
C100 C101 1.374 . S
C101 H81 0.950 . S
C101 C97 1.385 . S
C101 C100 1.374 . S
C102 C99 1.499 . S
C102 C103 1.373 . S
C102 C104 1.389 . S
C103 H82 0.950 . S
C103 C102 1.373 . S
C103 C119 1.377 . S
C104 C102 1.389 . S
C104 C105 1.524 . S
C104 C118 1.377 . S
C105 C104 1.524 . S
C105 C106 1.397 . S
C105 C110 1.363 . S
C106 H83 0.950 . S
C106 C105 1.397 . S
C106 C107 1.334 . S
C107 H84 0.950 . S
C107 C106 1.334 . S
C107 C108 1.287 . S
C108 C107 1.287 . S
C108 C109 1.524 . S
C108 H127 0.913 . S
C109 H85 0.950 . S
C109 C108 1.524 . S
C109 C110 1.415 . S
C110 H86 0.950 . S
C110 C105 1.363 . S
C110 C109 1.415 . S
C111 H87 0.951 . S
C111 C112 1.366 . S
C111 C113 1.388 . S
C112 C111 1.366 . S
C112 C116 1.385 . S
C113 H88 0.951 . S
C113 C111 1.388 . S
C113 C114 1.366 . S
C114 C113 1.366 . S
C114 C115 1.414 . S
C114 C117 1.499 . S
C115 H89 0.950 . S
C115 C114 1.414 . S
C115 C116 1.374 . S
C116 H90 0.950 . S
C116 C112 1.385 . S
C116 C115 1.374 . S
C117 C114 1.499 . S
C117 C118 1.373 . S
C117 C119 1.389 . S
C118 H91 0.950 . S
C118 C104 1.377 . S
C118 C117 1.373 . S
C119 C103 1.377 . S
C119 C117 1.389 . S
C119 C120 1.524 . S
C120 C119 1.524 . S
C120 C121 1.397 . S
C120 C125 1.363 . S
C121 H92 0.950 . S
C121 C120 1.397 . S
C121 C122 1.334 . S
C122 H93 0.950 . S
C122 C121 1.334 . S
C122 C123 1.287 . S
C123 C122 1.287 . S
C123 C124 1.524 . S
C123 H126 0.999 . S
C124 H94 0.950 . S
C124 C123 1.524 . S
C124 C125 1.415 . S
C125 H95 0.950 . S
C125 C120 1.363 . S
C125 C124 1.415 . S
H126 C123 0.999 . S
H127 C108 0.913 . S
H128 C146 0.951 . S
H129 C148 0.951 . S
H130 C150 0.950 . S
H131 C151 0.950 . S
H132 C153 0.950 . S
H133 C156 0.950 . S
H134 C157 0.950 . S
H135 C159 0.950 . S
H136 C160 0.950 . S
H137 C161 0.951 . S
H138 C163 0.951 . S
H139 C165 0.950 . S
H140 C166 0.950 . S
H141 C168 0.950 . S
H142 C171 0.950 . S
H143 C172 0.950 . S
H144 C174 0.950 . S
H145 C175 0.950 . S
C146 H128 0.951 . S
C146 C147 1.366 . S
C146 C148 1.388 . S
C147 C146 1.366 . S
C147 C151 1.385 . S
C148 H129 0.951 . S
C148 C146 1.388 . S
C148 C149 1.366 . S
C149 C148 1.366 . S
C149 C150 1.414 . S
C149 C152 1.499 . S
C150 H130 0.950 . S
C150 C149 1.414 . S
C150 C151 1.374 . S
C151 H131 0.950 . S
C151 C147 1.385 . S
C151 C150 1.374 . S
C152 C149 1.499 . S
C152 C153 1.373 . S
C152 C154 1.389 . S
C153 H132 0.950 . S
C153 C152 1.373 . S
C153 C169 1.377 . S
C154 C152 1.389 . S
C154 C155 1.524 . S
C154 C168 1.377 . S
C155 C154 1.524 . S
C155 C156 1.397 1_554 S
C155 C160 1.363 . S
C156 H133 0.950 . S
C156 C155 1.397 1_556 S
C156 C157 1.334 . S
C157 H134 0.950 . S
C157 C156 1.334 . S
C157 C158 1.287 . S
C158 C157 1.287 . S
C158 C159 1.524 . S
C158 H177 0.913 . S
C159 H135 0.950 . S
C159 C158 1.524 . S
C159 C160 1.415 1_556 S
C160 H136 0.950 . S
C160 C155 1.363 . S
C160 C159 1.415 1_554 S
C161 H137 0.951 . S
C161 C162 1.366 . S
C161 C163 1.388 . S
C162 C161 1.366 . S
C162 C166 1.385 . S
C163 H138 0.951 . S
C163 C161 1.388 . S
C163 C164 1.366 . S
C164 C163 1.366 . S
C164 C165 1.414 . S
C164 C167 1.499 . S
C165 H139 0.950 . S
C165 C164 1.414 . S
C165 C166 1.374 . S
C166 H140 0.950 . S
C166 C162 1.385 . S
C166 C165 1.374 . S
C167 C164 1.499 . S
C167 C168 1.373 . S
C167 C169 1.389 . S
C168 H141 0.950 . S
C168 C154 1.377 . S
C168 C167 1.373 . S
C169 C153 1.377 . S
C169 C167 1.389 . S
C169 C170 1.524 . S
C170 C169 1.524 . S
C170 C171 1.397 . S
C170 C175 1.363 . S
C171 H142 0.950 . S
C171 C170 1.397 . S
C171 C172 1.334 . S
C172 H143 0.950 . S
C172 C171 1.334 . S
C172 C173 1.287 . S
C173 C172 1.287 . S
C173 C174 1.524 . S
C173 H176 0.999 . S
C174 H144 0.950 . S
C174 C173 1.524 . S
C174 C175 1.415 . S
C175 H145 0.950 . S
C175 C170 1.363 . S
C175 C174 1.415 . S
H176 C173 0.999 . S
H177 C158 0.913 . S
H178 C196 0.951 . S
H179 C198 0.951 . S
H180 C200 0.950 . S
H181 C201 0.950 . S
H182 C203 0.950 . S
H183 C206 0.950 . S
H184 C207 0.950 . S
H185 C209 0.950 . S
H186 C210 0.950 . S
H187 C211 0.951 . S
H188 C213 0.951 . S
H189 C215 0.950 . S
H190 C216 0.950 . S
H191 C218 0.950 . S
H192 C221 0.950 . S
H193 C222 0.950 . S
H194 C224 0.950 . S
H195 C225 0.950 . S
C196 H178 0.951 . S
C196 C197 1.366 . S
C196 C198 1.388 . S
C197 C196 1.366 . S
C197 C201 1.385 . S
C198 H179 0.951 . S
C198 C196 1.388 . S
C198 C199 1.366 . S
C199 C198 1.366 . S
C199 C200 1.414 . S
C199 C202 1.499 . S
C200 H180 0.950 . S
C200 C199 1.414 . S
C200 C201 1.374 . S
C201 H181 0.950 . S
C201 C197 1.385 . S
C201 C200 1.374 . S
C202 C199 1.499 . S
C202 C203 1.373 . S
C202 C204 1.389 . S
C203 H182 0.950 . S
C203 C202 1.373 . S
C203 C219 1.377 . S
C204 C202 1.389 . S
C204 C205 1.524 . S
C204 C218 1.377 . S
C205 C204 1.524 . S
C205 C206 1.397 . S
C205 C210 1.363 . S
C206 H183 0.950 . S
C206 C205 1.397 . S
C206 C207 1.334 . S
C207 H184 0.950 . S
C207 C206 1.334 . S
C207 C208 1.287 . S
C208 C207 1.287 . S
C208 C209 1.524 . S
C208 H227 0.913 . S
C209 H185 0.950 . S
C209 C208 1.524 . S
C209 C210 1.415 . S
C210 H186 0.950 . S
C210 C205 1.363 . S
C210 C209 1.415 . S
C211 H187 0.951 . S
C211 C212 1.366 . S
C211 C213 1.388 . S
C212 C211 1.366 . S
C212 C216 1.385 . S
C213 H188 0.951 . S
C213 C211 1.388 . S
C213 C214 1.366 . S
C214 C213 1.366 . S
C214 C215 1.414 . S
C214 C217 1.499 . S
C215 H189 0.950 . S
C215 C214 1.414 . S
C215 C216 1.374 . S
C216 H190 0.950 . S
C216 C212 1.385 . S
C216 C215 1.374 . S
C217 C214 1.499 . S
C217 C218 1.373 . S
C217 C219 1.389 . S
C218 H191 0.950 . S
C218 C204 1.377 . S
C218 C217 1.373 . S
C219 C203 1.377 . S
C219 C217 1.389 . S
C219 C220 1.524 . S
C220 C219 1.524 . S
C220 C221 1.397 . S
C220 C225 1.363 . S
C221 H192 0.950 . S
C221 C220 1.397 . S
C221 C222 1.334 . S
C222 H193 0.950 . S
C222 C221 1.334 . S
C222 C223 1.287 . S
C223 C222 1.287 . S
C223 C224 1.524 . S
C223 H226 0.999 . S
C224 H194 0.950 . S
C224 C223 1.524 . S
C224 C225 1.415 . S
C225 H195 0.950 . S
C225 C220 1.363 . S
C225 C224 1.415 . S
H226 C223 0.999 . S
H227 C208 0.913 . S
H228 C246 0.951 . S
H229 C248 0.951 . S
H230 C250 0.950 . S
H231 C251 0.950 . S
H232 C253 0.950 . S
H233 C256 0.950 . S
H234 C257 0.950 . S
H235 C259 0.950 . S
H236 C260 0.958 . S
H237 C261 0.951 1_556 S
H238 C263 0.958 . S
H239 C265 0.950 . S
H240 C266 0.950 . S
H241 C268 0.951 . S
H242 C271 0.950 . S
H243 C272 0.950 . S
H244 C274 0.950 . S
H245 C275 0.950 1_556 S
C246 H228 0.951 . S
C246 C247 1.363 1_554 S
C246 C248 1.388 . S
C247 C246 1.363 1_556 S
C247 C251 1.387 . S
C248 H229 0.951 . S
C248 C246 1.388 . S
C248 C249 1.366 . S
C249 C248 1.366 . S
C249 C250 1.414 1_554 S
C249 C252 1.499 . S
C250 H230 0.950 . S
C250 C249 1.414 1_556 S
C250 C251 1.374 . S
C251 H231 0.950 . S
C251 C247 1.387 . S
C251 C250 1.374 . S
C252 C249 1.499 . S
C252 C253 1.373 . S
C252 C254 1.389 1_554 S
C253 H232 0.950 . S
C253 C252 1.373 . S
C253 C269 1.377 . S
C254 C252 1.389 1_556 S
C254 C255 1.532 . S
C254 C268 1.372 1_556 S
C255 C254 1.532 . S
C255 C256 1.397 . S
C255 C260 1.358 1_556 S
C256 H233 0.950 . S
C256 C255 1.397 . S
C256 C257 1.334 . S
C257 H234 0.950 . S
C257 C256 1.334 . S
C257 C258 1.287 . S
C258 C257 1.287 . S
C258 C259 1.524 . S
C258 H277 0.913 . S
C259 H235 0.950 . S
C259 C258 1.524 . S
C259 C260 1.412 1_556 S
C260 H236 0.958 . S
C260 C255 1.358 1_554 S
C260 C259 1.412 1_554 S
C261 H237 0.951 1_554 S
C261 C262 1.366 . S
C261 C263 1.386 1_554 S
C262 C261 1.366 . S
C262 C266 1.385 . S
C263 H238 0.958 . S
C263 C261 1.386 1_556 S
C263 C264 1.360 1_556 S
C264 C263 1.360 1_554 S
C264 C265 1.414 . S
C264 C267 1.499 . S
C265 H239 0.950 . S
C265 C264 1.414 . S
C265 C266 1.374 . S
C266 H240 0.950 . S
C266 C262 1.385 . S
C266 C265 1.374 . S
C267 C264 1.499 . S
C267 C268 1.373 . S
C267 C269 1.389 . S
C268 H241 0.951 . S
C268 C254 1.372 1_554 S
C268 C267 1.373 . S
C269 C253 1.377 . S
C269 C267 1.389 . S
C269 C270 1.524 . S
C270 C269 1.524 . S
C270 C271 1.397 . S
C270 C275 1.363 . S
C271 H242 0.950 . S
C271 C270 1.397 . S
C271 C272 1.334 . S
C272 H243 0.950 . S
C272 C271 1.334 . S
C272 C273 1.287 . S
C273 C272 1.287 . S
C273 C274 1.524 . S
C273 H276 0.999 . S
C274 H244 0.950 . S
C274 C273 1.524 . S
C274 C275 1.415 . S
C275 H245 0.950 1_554 S
C275 C270 1.363 . S
C275 C274 1.415 . S
H276 C273 0.999 . S
H277 C258 0.913 . S
H278 C296 0.951 . S
H279 C298 0.951 . S
H280 C300 0.950 . S
H281 C301 0.950 . S
H282 C303 0.950 . S
H283 C306 0.950 . S
H284 C307 0.950 1_545 S
H285 C309 0.950 . S
H286 C310 0.950 . S
H287 C311 0.951 1_545 S
H288 C313 0.951 . S
H289 C315 0.950 . S
H290 C316 0.950 . S
H291 C318 0.950 . S
H292 C321 0.950 . S
H293 C322 0.950 . S
H294 C324 0.950 . S
H295 C325 0.950 . S
C296 H278 0.951 . S
C296 C297 1.366 . S
C296 C298 1.388 . S
C297 C296 1.366 . S
C297 C301 1.385 . S
C298 H279 0.951 . S
C298 C296 1.388 . S
C298 C299 1.366 . S
C299 C298 1.366 . S
C299 C300 1.414 . S
C299 C302 1.499 . S
C300 H280 0.950 . S
C300 C299 1.414 . S
C300 C301 1.374 . S
C301 H281 0.950 . S
C301 C297 1.385 . S
C301 C300 1.374 . S
C302 C299 1.499 . S
C302 C303 1.373 . S
C302 C304 1.389 . S
C303 H282 0.950 . S
C303 C302 1.373 . S
C303 C319 1.377 . S
C304 C302 1.389 . S
C304 C305 1.524 . S
C304 C318 1.377 . S
C305 C304 1.524 . S
C305 C306 1.397 . S
C305 C310 1.363 . S
C306 H283 0.950 . S
C306 C305 1.397 . S
C306 C307 1.334 . S
C307 H284 0.950 1_565 S
C307 C306 1.334 . S
C307 C308 1.287 . S
C308 C307 1.287 . S
C308 C309 1.524 . S
C308 H327 0.913 . S
C309 H285 0.950 . S
C309 C308 1.524 . S
C309 C310 1.415 . S
C310 H286 0.950 . S
C310 C305 1.363 . S
C310 C309 1.415 . S
C311 H287 0.951 1_565 S
C311 C312 1.366 . S
C311 C313 1.388 . S
C312 C311 1.366 . S
C312 C316 1.385 . S
C313 H288 0.951 . S
C313 C311 1.388 . S
C313 C314 1.366 . S
C314 C313 1.366 . S
C314 C315 1.414 . S
C314 C317 1.499 . S
C315 H289 0.950 . S
C315 C314 1.414 . S
C315 C316 1.374 . S
C316 H290 0.950 . S
C316 C312 1.385 . S
C316 C315 1.374 . S
C317 C314 1.499 . S
C317 C318 1.373 . S
C317 C319 1.389 . S
C318 H291 0.950 . S
C318 C304 1.377 . S
C318 C317 1.373 . S
C319 C303 1.377 . S
C319 C317 1.389 . S
C319 C320 1.524 . S
C320 C319 1.524 . S
C320 C321 1.397 . S
C320 C325 1.363 . S
C321 H292 0.950 . S
C321 C320 1.397 . S
C321 C322 1.334 . S
C322 H293 0.950 . S
C322 C321 1.334 . S
C322 C323 1.287 . S
C323 C322 1.287 . S
C323 C324 1.524 . S
C323 H326 0.999 . S
C324 H294 0.950 . S
C324 C323 1.524 . S
C324 C325 1.415 . S
C325 H295 0.950 . S
C325 C320 1.363 . S
C325 C324 1.415 . S
H326 C323 0.999 . S
H327 C308 0.913 . S
H328 C346 0.951 . S
H329 C348 0.951 . S
H330 C350 0.950 . S
H331 C351 0.950 . S
H332 C353 0.950 . S
H333 C356 0.950 . S
H334 C357 0.950 . S
H335 C359 0.950 . S
H336 C360 0.950 . S
H337 C361 0.951 . S
H338 C363 0.951 . S
H339 C365 0.950 . S
H340 C366 0.950 . S
H341 C368 0.950 . S
H342 C371 0.950 . S
H343 C372 0.950 . S
H344 C374 0.950 . S
H345 C375 0.950 . S
C346 H328 0.951 . S
C346 C347 1.366 . S
C346 C348 1.388 . S
C347 C346 1.366 . S
C347 C351 1.385 . S
C348 H329 0.951 . S
C348 C346 1.388 . S
C348 C349 1.366 . S
C349 C348 1.366 . S
C349 C350 1.414 . S
C349 C352 1.499 . S
C350 H330 0.950 . S
C350 C349 1.414 . S
C350 C351 1.374 . S
C351 H331 0.950 . S
C351 C347 1.385 . S
C351 C350 1.374 . S
C352 C349 1.499 . S
C352 C353 1.373 . S
C352 C354 1.389 . S
C353 H332 0.950 . S
C353 C352 1.373 . S
C353 C369 1.377 . S
C354 C352 1.389 . S
C354 C355 1.524 . S
C354 C368 1.377 . S
C355 C354 1.524 . S
C355 C356 1.397 . S
C355 C360 1.363 . S
C356 H333 0.950 . S
C356 C355 1.397 . S
C356 C357 1.334 . S
C357 H334 0.950 . S
C357 C356 1.334 . S
C357 C358 1.287 . S
C358 C357 1.287 . S
C358 C359 1.524 . S
C358 H377 0.913 . S
C359 H335 0.950 . S
C359 C358 1.524 . S
C359 C360 1.415 . S
C360 H336 0.950 . S
C360 C355 1.363 . S
C360 C359 1.415 . S
C361 H337 0.951 . S
C361 C362 1.366 . S
C361 C363 1.388 . S
C362 C361 1.366 . S
C362 C366 1.385 . S
C363 H338 0.951 . S
C363 C361 1.388 . S
C363 C364 1.366 . S
C364 C363 1.366 . S
C364 C365 1.414 . S
C364 C367 1.499 . S
C365 H339 0.950 . S
C365 C364 1.414 . S
C365 C366 1.374 . S
C366 H340 0.950 . S
C366 C362 1.385 . S
C366 C365 1.374 . S
C367 C364 1.499 . S
C367 C368 1.373 . S
C367 C369 1.389 . S
C368 H341 0.950 . S
C368 C354 1.377 . S
C368 C367 1.373 . S
C369 C353 1.377 . S
C369 C367 1.389 . S
C369 C370 1.524 . S
C370 C369 1.524 . S
C370 C371 1.397 . S
C370 C375 1.363 . S
C371 H342 0.950 . S
C371 C370 1.397 . S
C371 C372 1.334 . S
C372 H343 0.950 . S
C372 C371 1.334 . S
C372 C373 1.287 . S
C373 C372 1.287 . S
C373 C374 1.524 . S
C373 H376 0.999 . S
C374 H344 0.950 . S
C374 C373 1.524 . S
C374 C375 1.415 . S
C375 H345 0.950 . S
C375 C370 1.363 . S
C375 C374 1.415 . S
H376 C373 0.999 . S
H377 C358 0.913 . S
H378 C396 0.951 . S
H379 C398 0.951 . S
H380 C400 0.950 . S
H381 C401 0.950 . S
H382 C403 0.950 . S
H383 C406 0.950 . S
H384 C407 0.950 . S
H385 C409 0.950 . S
H386 C410 0.950 . S
H387 C411 0.951 . S
H388 C413 0.951 . S
H389 C415 0.950 . S
H390 C416 0.950 . S
H391 C418 0.950 . S
H392 C421 0.950 . S
H393 C422 0.950 . S
H394 C424 0.950 . S
H395 C425 0.950 . S
C396 H378 0.951 . S
C396 C397 1.366 . S
C396 C398 1.388 . S
C397 C396 1.366 . S
C397 C401 1.385 . S
C398 H379 0.951 . S
C398 C396 1.388 . S
C398 C399 1.366 . S
C399 C398 1.366 . S
C399 C400 1.414 . S
C399 C402 1.499 . S
C400 H380 0.950 . S
C400 C399 1.414 . S
C400 C401 1.374 . S
C401 H381 0.950 . S
C401 C397 1.385 . S
C401 C400 1.374 . S
C402 C399 1.499 . S
C402 C403 1.373 . S
C402 C404 1.389 . S
C403 H382 0.950 . S
C403 C402 1.373 . S
C403 C419 1.377 . S
C404 C402 1.389 . S
C404 C405 1.524 . S
C404 C418 1.377 . S
C405 C404 1.524 . S
C405 C406 1.397 . S
C405 C410 1.363 . S
C406 H383 0.950 . S
C406 C405 1.397 . S
C406 C407 1.334 . S
C407 H384 0.950 . S
C407 C406 1.334 . S
C407 C408 1.287 . S
C408 C407 1.287 . S
C408 C409 1.524 . S
C408 H427 0.913 . S
C409 H385 0.950 . S
C409 C408 1.524 . S
C409 C410 1.415 . S
C410 H386 0.950 . S
C410 C405 1.363 . S
C410 C409 1.415 . S
C411 H387 0.951 . S
C411 C412 1.366 . S
C411 C413 1.388 . S
C412 C411 1.366 . S
C412 C416 1.385 . S
C413 H388 0.951 . S
C413 C411 1.388 . S
C413 C414 1.366 . S
C414 C413 1.366 . S
C414 C415 1.414 . S
C414 C417 1.499 . S
C415 H389 0.950 . S
C415 C414 1.414 . S
C415 C416 1.374 . S
C416 H390 0.950 . S
C416 C412 1.385 . S
C416 C415 1.374 . S
C417 C414 1.499 . S
C417 C418 1.373 . S
C417 C419 1.389 . S
C418 H391 0.950 . S
C418 C404 1.377 . S
C418 C417 1.373 . S
C419 C403 1.377 . S
C419 C417 1.389 . S
C419 C420 1.524 . S
C420 C419 1.524 . S
C420 C421 1.397 . S
C420 C425 1.363 . S
C421 H392 0.950 . S
C421 C420 1.397 . S
C421 C422 1.334 . S
C422 H393 0.950 . S
C422 C421 1.334 . S
C422 C423 1.287 . S
C423 C422 1.287 . S
C423 C424 1.524 . S
C423 H426 0.999 . S
C424 H394 0.950 . S
C424 C423 1.524 . S
C424 C425 1.415 . S
C425 H395 0.950 . S
C425 C420 1.363 . S
C425 C424 1.415 . S
H426 C423 0.999 . S
H427 C408 0.913 . S
H428 C446 0.951 . S
H429 C448 0.951 . S
H430 C450 0.950 . S
H431 C451 0.950 . S
H432 C453 0.950 . S
H433 C456 0.950 . S
H434 C457 0.950 . S
H435 C459 0.950 . S
H436 C460 0.950 . S
H437 C461 0.951 . S
H438 C463 0.951 . S
H439 C465 0.950 . S
H440 C466 0.950 . S
H441 C468 0.950 . S
H442 C471 0.950 . S
H443 C472 0.950 . S
H444 C474 0.950 . S
H445 C475 0.950 . S
C446 H428 0.951 . S
C446 C447 1.366 . S
C446 C448 1.388 . S
C447 C446 1.366 . S
C447 C451 1.385 . S
C448 H429 0.951 . S
C448 C446 1.388 . S
C448 C449 1.366 . S
C449 C448 1.366 . S
C449 C450 1.414 . S
C449 C452 1.499 . S
C450 H430 0.950 . S
C450 C449 1.414 . S
C450 C451 1.374 . S
C451 H431 0.950 . S
C451 C447 1.385 . S
C451 C450 1.374 . S
C452 C449 1.499 . S
C452 C453 1.373 . S
C452 C454 1.389 . S
C453 H432 0.950 . S
C453 C452 1.373 . S
C453 C469 1.377 . S
C454 C452 1.389 . S
C454 C455 1.524 . S
C454 C468 1.377 . S
C455 C454 1.524 . S
C455 C456 1.397 . S
C455 C460 1.363 . S
C456 H433 0.950 . S
C456 C455 1.397 . S
C456 C457 1.334 . S
C457 H434 0.950 . S
C457 C456 1.334 . S
C457 C458 1.287 . S
C458 C457 1.287 . S
C458 C459 1.524 . S
C458 H477 0.913 . S
C459 H435 0.950 . S
C459 C458 1.524 . S
C459 C460 1.415 . S
C460 H436 0.950 . S
C460 C455 1.363 . S
C460 C459 1.415 . S
C461 H437 0.951 . S
C461 C462 1.366 . S
C461 C463 1.388 . S
C462 C461 1.366 . S
C462 C466 1.385 . S
C463 H438 0.951 . S
C463 C461 1.388 . S
C463 C464 1.366 . S
C464 C463 1.366 . S
C464 C465 1.414 . S
C464 C467 1.499 . S
C465 H439 0.950 . S
C465 C464 1.414 . S
C465 C466 1.374 . S
C466 H440 0.950 . S
C466 C462 1.385 . S
C466 C465 1.374 . S
C467 C464 1.499 . S
C467 C468 1.373 . S
C467 C469 1.389 . S
C468 H441 0.950 . S
C468 C454 1.377 . S
C468 C467 1.373 . S
C469 C453 1.377 . S
C469 C467 1.389 . S
C469 C470 1.524 . S
C470 C469 1.524 . S
C470 C471 1.397 . S
C470 C475 1.363 . S
C471 H442 0.950 . S
C471 C470 1.397 . S
C471 C472 1.334 . S
C472 H443 0.950 . S
C472 C471 1.334 . S
C472 C473 1.287 . S
C473 C472 1.287 . S
C473 C474 1.524 . S
C473 H476 0.999 . S
C474 H444 0.950 . S
C474 C473 1.524 . S
C474 C475 1.415 . S
C475 H445 0.950 . S
C475 C470 1.363 . S
C475 C474 1.415 . S
H476 C473 0.999 . S
H477 C458 0.913 . S
H478 C496 0.951 . S
H479 C498 0.951 . S
H480 C500 0.950 . S
H481 C501 0.950 . S
H482 C503 0.950 . S
H483 C506 0.950 . S
H484 C507 0.950 . S
H485 C509 0.950 . S
H486 C510 0.950 . S
H487 C511 0.951 . S
H488 C513 0.951 . S
H489 C515 0.950 . S
H490 C516 0.950 . S
H491 C518 0.950 . S
H492 C521 0.950 . S
H493 C522 0.950 . S
H494 C524 0.950 . S
H495 C525 0.950 . S
C496 H478 0.951 . S
C496 C497 1.366 . S
C496 C498 1.388 . S
C497 C496 1.366 . S
C497 C501 1.385 . S
C498 H479 0.951 . S
C498 C496 1.388 . S
C498 C499 1.366 . S
C499 C498 1.366 . S
C499 C500 1.414 . S
C499 C502 1.499 . S
C500 H480 0.950 . S
C500 C499 1.414 . S
C500 C501 1.374 . S
C501 H481 0.950 . S
C501 C497 1.385 . S
C501 C500 1.374 . S
C502 C499 1.499 . S
C502 C503 1.373 . S
C502 C504 1.389 . S
C503 H482 0.950 . S
C503 C502 1.373 . S
C503 C519 1.377 . S
C504 C502 1.389 . S
C504 C505 1.524 . S
C504 C518 1.377 . S
C505 C504 1.524 . S
C505 C506 1.397 . S
C505 C510 1.363 . S
C506 H483 0.950 . S
C506 C505 1.397 . S
C506 C507 1.334 . S
C507 H484 0.950 . S
C507 C506 1.334 . S
C507 C508 1.287 . S
C508 C507 1.287 . S
C508 C509 1.524 . S
C508 H527 0.913 . S
C509 H485 0.950 . S
C509 C508 1.524 . S
C509 C510 1.415 . S
C510 H486 0.950 . S
C510 C505 1.363 . S
C510 C509 1.415 . S
C511 H487 0.951 . S
C511 C512 1.366 . S
C511 C513 1.388 . S
C512 C511 1.366 . S
C512 C516 1.385 . S
C513 H488 0.951 . S
C513 C511 1.388 . S
C513 C514 1.366 . S
C514 C513 1.366 . S
C514 C515 1.414 . S
C514 C517 1.499 . S
C515 H489 0.950 . S
C515 C514 1.414 . S
C515 C516 1.374 . S
C516 H490 0.950 . S
C516 C512 1.385 . S
C516 C515 1.374 . S
C517 C514 1.499 . S
C517 C518 1.373 . S
C517 C519 1.389 . S
C518 H491 0.950 . S
C518 C504 1.377 . S
C518 C517 1.373 . S
C519 C503 1.377 . S
C519 C517 1.389 . S
C519 C520 1.524 . S
C520 C519 1.524 . S
C520 C521 1.397 . S
C520 C525 1.363 . S
C521 H492 0.950 . S
C521 C520 1.397 . S
C521 C522 1.334 . S
C522 H493 0.950 . S
C522 C521 1.334 . S
C522 C523 1.287 . S
C523 C522 1.287 . S
C523 C524 1.524 . S
C523 H526 0.999 . S
C524 H494 0.950 . S
C524 C523 1.524 . S
C524 C525 1.415 . S
C525 H495 0.950 . S
C525 C520 1.363 . S
C525 C524 1.415 . S
H526 C523 0.999 . S
H527 C508 0.913 . S
H528 C546 0.951 . S
H529 C548 0.951 . S
H530 C550 0.950 . S
H531 C551 0.950 . S
H532 C553 0.950 . S
H533 C556 0.950 . S
H534 C557 0.950 . S
H535 C559 0.950 . S
H536 C560 0.950 . S
H537 C561 0.951 . S
H538 C563 0.951 . S
H539 C565 0.950 . S
H540 C566 0.950 . S
H541 C568 0.950 . S
H542 C571 0.950 . S
H543 C572 0.950 . S
H544 C574 0.950 . S
H545 C575 0.950 . S
C546 H528 0.951 . S
C546 C547 1.366 . S
C546 C548 1.388 . S
C547 C546 1.366 . S
C547 C551 1.385 . S
C548 H529 0.951 . S
C548 C546 1.388 . S
C548 C549 1.366 . S
C549 C548 1.366 . S
C549 C550 1.414 . S
C549 C552 1.499 . S
C550 H530 0.950 . S
C550 C549 1.414 . S
C550 C551 1.374 . S
C551 H531 0.950 . S
C551 C547 1.385 . S
C551 C550 1.374 . S
C552 C549 1.499 . S
C552 C553 1.373 . S
C552 C554 1.389 . S
C553 H532 0.950 . S
C553 C552 1.373 . S
C553 C569 1.377 . S
C554 C552 1.389 . S
C554 C555 1.524 . S
C554 C568 1.377 . S
C555 C554 1.524 . S
C555 C556 1.397 . S
C555 C560 1.363 . S
C556 H533 0.950 . S
C556 C555 1.397 . S
C556 C557 1.334 . S
C557 H534 0.950 . S
C557 C556 1.334 . S
C557 C558 1.287 . S
C558 C557 1.287 . S
C558 C559 1.524 . S
C558 H577 0.913 . S
C559 H535 0.950 . S
C559 C558 1.524 . S
C559 C560 1.415 . S
C560 H536 0.950 . S
C560 C555 1.363 . S
C560 C559 1.415 . S
C561 H537 0.951 . S
C561 C562 1.366 . S
C561 C563 1.388 . S
C562 C561 1.366 . S
C562 C566 1.385 . S
C563 H538 0.951 . S
C563 C561 1.388 . S
C563 C564 1.366 . S
C564 C563 1.366 . S
C564 C565 1.414 . S
C564 C567 1.499 . S
C565 H539 0.950 . S
C565 C564 1.414 . S
C565 C566 1.374 . S
C566 H540 0.950 . S
C566 C562 1.385 . S
C566 C565 1.374 . S
C567 C564 1.499 . S
C567 C568 1.373 . S
C567 C569 1.389 . S
C568 H541 0.950 . S
C568 C554 1.377 . S
C568 C567 1.373 . S
C569 C553 1.377 . S
C569 C567 1.389 . S
C569 C570 1.524 . S
C570 C569 1.524 . S
C570 C571 1.397 . S
C570 C575 1.363 . S
C571 H542 0.950 . S
C571 C570 1.397 . S
C571 C572 1.334 . S
C572 H543 0.950 . S
C572 C571 1.334 . S
C572 C573 1.287 . S
C573 C572 1.287 . S
C573 C574 1.524 . S
C573 H576 0.999 . S
C574 H544 0.950 . S
C574 C573 1.524 . S
C574 C575 1.415 . S
C575 H545 0.950 . S
C575 C570 1.363 . S
C575 C574 1.415 . S
H576 C573 0.999 . S
H577 C558 0.913 . S
H578 C596 0.951 . S
H579 C598 0.951 . S
H580 C600 0.950 . S
H581 C601 0.950 . S
H582 C603 0.950 . S
H583 C606 0.950 . S
H584 C607 0.950 . S
H585 C609 0.950 . S
H586 C610 0.950 . S
H587 C611 0.951 . S
H588 C613 0.951 . S
H589 C615 0.950 . S
H590 C616 0.950 . S
H591 C618 0.950 . S
H592 C621 0.950 . S
H593 C622 0.950 . S
H594 C624 0.950 . S
H595 C625 0.950 . S
C596 H578 0.951 . S
C596 C597 1.366 . S
C596 C598 1.388 . S
C597 C596 1.366 . S
C597 C601 1.385 . S
C598 H579 0.951 . S
C598 C596 1.388 . S
C598 C599 1.366 . S
C599 C598 1.366 . S
C599 C600 1.414 . S
C599 C602 1.499 . S
C600 H580 0.950 . S
C600 C599 1.414 . S
C600 C601 1.374 . S
C601 H581 0.950 . S
C601 C597 1.385 . S
C601 C600 1.374 . S
C602 C599 1.499 . S
C602 C603 1.373 . S
C602 C604 1.389 . S
C603 H582 0.950 . S
C603 C602 1.373 . S
C603 C619 1.377 . S
C604 C602 1.389 . S
C604 C605 1.524 . S
C604 C618 1.377 . S
C605 C604 1.524 . S
C605 C606 1.397 . S
C605 C610 1.363 . S
C606 H583 0.950 . S
C606 C605 1.397 . S
C606 C607 1.334 . S
C607 H584 0.950 . S
C607 C606 1.334 . S
C607 C608 1.287 . S
C608 C607 1.287 . S
C608 C609 1.524 . S
C608 H627 0.913 . S
C609 H585 0.950 . S
C609 C608 1.524 . S
C609 C610 1.415 . S
C610 H586 0.950 . S
C610 C605 1.363 . S
C610 C609 1.415 . S
C611 H587 0.951 . S
C611 C612 1.366 . S
C611 C613 1.388 . S
C612 C611 1.366 . S
C612 C616 1.385 . S
C613 H588 0.951 . S
C613 C611 1.388 . S
C613 C614 1.366 . S
C614 C613 1.366 . S
C614 C615 1.414 . S
C614 C617 1.499 . S
C615 H589 0.950 . S
C615 C614 1.414 . S
C615 C616 1.374 . S
C616 H590 0.950 . S
C616 C612 1.385 . S
C616 C615 1.374 . S
C617 C614 1.499 . S
C617 C618 1.373 . S
C617 C619 1.389 . S
C618 H591 0.950 . S
C618 C604 1.377 . S
C618 C617 1.373 . S
C619 C603 1.377 . S
C619 C617 1.389 . S
C619 C620 1.524 . S
C620 C619 1.524 . S
C620 C621 1.397 . S
C620 C625 1.363 . S
C621 H592 0.950 . S
C621 C620 1.397 . S
C621 C622 1.334 . S
C622 H593 0.950 . S
C622 C621 1.334 . S
C622 C623 1.287 . S
C623 C622 1.287 . S
C623 C624 1.524 . S
C623 H626 0.999 . S
C624 H594 0.950 . S
C624 C623 1.524 . S
C624 C625 1.415 . S
C625 H595 0.950 . S
C625 C620 1.363 . S
C625 C624 1.415 . S
H626 C623 0.999 . S
H627 C608 0.913 . S
H628 C646 0.951 1_554 S
H629 C648 0.951 . S
H630 C650 0.950 . S
H631 C651 0.950 . S
H632 C653 0.950 . S
H633 C656 0.950 . S
H634 C657 0.950 . S
H635 C659 0.950 . S
H636 C660 0.950 . S
H637 C661 0.951 1_545 S
H638 C663 0.951 . S
H639 C665 0.950 . S
H640 C666 0.950 . S
H641 C668 0.950 . S
H642 C671 0.950 . S
H643 C672 0.950 . S
H644 C674 0.950 . S
H645 C675 0.950 . S
C646 H628 0.951 1_556 S
C646 C647 1.366 1_556 S
C646 C648 1.388 . S
C647 C646 1.366 1_554 S
C647 C651 1.385 1_554 S
C648 H629 0.951 . S
C648 C646 1.388 . S
C648 C649 1.366 . S
C649 C648 1.366 . S
C649 C650 1.414 . S
C649 C652 1.499 . S
C650 H630 0.950 . S
C650 C649 1.414 . S
C650 C651 1.374 . S
C651 H631 0.950 . S
C651 C647 1.385 1_556 S
C651 C650 1.374 . S
C652 C649 1.499 . S
C652 C653 1.373 . S
C652 C654 1.389 . S
C653 H632 0.950 . S
C653 C652 1.373 . S
C653 C669 1.377 . S
C654 C652 1.389 . S
C654 C655 1.524 . S
C654 C668 1.377 . S
C655 C654 1.524 . S
C655 C656 1.397 . S
C655 C660 1.363 . S
C656 H633 0.950 . S
C656 C655 1.397 . S
C656 C657 1.334 . S
C657 H634 0.950 . S
C657 C656 1.334 . S
C657 C658 1.287 . S
C658 C657 1.287 . S
C658 C659 1.524 . S
C658 H677 0.913 . S
C659 H635 0.950 . S
C659 C658 1.524 . S
C659 C660 1.415 . S
C660 H636 0.950 . S
C660 C655 1.363 . S
C660 C659 1.415 . S
C661 H637 0.951 1_565 S
C661 C662 1.366 . S
C661 C663 1.388 . S
C662 C661 1.366 . S
C662 C666 1.385 . S
C663 H638 0.951 . S
C663 C661 1.388 . S
C663 C664 1.366 . S
C664 C663 1.366 . S
C664 C665 1.414 . S
C664 C667 1.499 . S
C665 H639 0.950 . S
C665 C664 1.414 . S
C665 C666 1.374 . S
C666 H640 0.950 . S
C666 C662 1.385 . S
C666 C665 1.374 . S
C667 C664 1.499 . S
C667 C668 1.373 . S
C667 C669 1.389 . S
C668 H641 0.950 . S
C668 C654 1.377 . S
C668 C667 1.373 . S
C669 C653 1.377 . S
C669 C667 1.389 . S
C669 C670 1.524 1_565 S
C670 C669 1.524 1_545 S
C670 C671 1.397 . S
C670 C675 1.363 . S
C671 H642 0.950 . S
C671 C670 1.397 . S
C671 C672 1.334 . S
C672 H643 0.950 . S
C672 C671 1.334 . S
C672 C673 1.287 . S
C673 C672 1.287 . S
C673 C674 1.524 . S
C673 H676 0.999 . S
C674 H644 0.950 . S
C674 C673 1.524 . S
C674 C675 1.415 . S
C675 H645 0.950 . S
C675 C670 1.363 . S
C675 C674 1.415 . S
H676 C673 0.999 . S
H677 C658 0.913 . S
C112 C52 1.233 . S
C97 C34 1.411 . S
C147 C7 1.416 . S
C162 C73 1.231 . S
C197 C16 1.609 . S
C212 C49 1.393 . S
C247 C25 1.608 . S
C262 C70 1.394 . S
C312 C54 1.490 . S
C297 C5 1.525 . S
C362 C74 1.486 . S
C347 C13 1.536 . S
C397 C23 1.525 . S
C412 C50 1.473 . S
C447 C32 1.520 . S
C462 C72 1.468 . S
C512 C71 1.471 . S
C497 C14 1.523 . S
C562 C53 1.483 . S
C547 C22 1.534 . S
C612 C75 1.488 . S
C597 C31 1.518 . S
C647 C4 1.522 . S
C662 C51 1.467 . S
