# Generated by pormake.
# Topology pyr, (3,6)-cn, num edge types: 1
# Building blocks:
#     Node 0, Type 0, BuildingBlock: CUQRIR_clean_linker_1, # of connection points: 3
#     Node 1, Type 0, BuildingBlock: CUQRIR_clean_linker_1, # of connection points: 3
#     Node 2, Type 0, BuildingBlock: CUQRIR_clean_linker_1, # of connection points: 3
#     Node 3, Type 0, BuildingBlock: CUQRIR_clean_linker_1, # of connection points: 3
#     Node 4, Type 0, BuildingBlock: CUQRIR_clean_linker_1, # of connection points: 3
#     Node 5, Type 0, BuildingBlock: CUQRIR_clean_linker_1, # of connection points: 3
#     Node 6, Type 0, BuildingBlock: CUQRIR_clean_linker_1, # of connection points: 3
#     Node 7, Type 0, BuildingBlock: CUQRIR_clean_linker_1, # of connection points: 3
#     Node 8, Type 1, BuildingBlock: MIFKUJ_clean_sbu_0, # of connection points: 6
#     Node 9, Type 1, BuildingBlock: MIFKUJ_clean_sbu_0, # of connection points: 6
#     Node 10, Type 1, BuildingBlock: MIFKUJ_clean_sbu_0, # of connection points: 6
#     Node 11, Type 1, BuildingBlock: MIFKUJ_clean_sbu_0, # of connection points: 6
#     Edge 12, Type (0, 1), BuildingBlock: UVAHIK_clean_linker_0, # of connection points: 2
#     Edge 13, Type (0, 1), BuildingBlock: UVAHIK_clean_linker_0, # of connection points: 2
#     Edge 14, Type (0, 1), BuildingBlock: UVAHIK_clean_linker_0, # of connection points: 2
#     Edge 15, Type (0, 1), BuildingBlock: UVAHIK_clean_linker_0, # of connection points: 2
#     Edge 16, Type (0, 1), BuildingBlock: UVAHIK_clean_linker_0, # of connection points: 2
#     Edge 17, Type (0, 1), BuildingBlock: UVAHIK_clean_linker_0, # of connection points: 2
#     Edge 18, Type (0, 1), BuildingBlock: UVAHIK_clean_linker_0, # of connection points: 2
#     Edge 19, Type (0, 1), BuildingBlock: UVAHIK_clean_linker_0, # of connection points: 2
#     Edge 20, Type (0, 1), BuildingBlock: UVAHIK_clean_linker_0, # of connection points: 2
#     Edge 21, Type (0, 1), BuildingBlock: UVAHIK_clean_linker_0, # of connection points: 2
#     Edge 22, Type (0, 1), BuildingBlock: UVAHIK_clean_linker_0, # of connection points: 2
#     Edge 23, Type (0, 1), BuildingBlock: UVAHIK_clean_linker_0, # of connection points: 2
#     Edge 24, Type (0, 1), BuildingBlock: UVAHIK_clean_linker_0, # of connection points: 2
#     Edge 25, Type (0, 1), BuildingBlock: UVAHIK_clean_linker_0, # of connection points: 2
#     Edge 26, Type (0, 1), BuildingBlock: UVAHIK_clean_linker_0, # of connection points: 2
#     Edge 27, Type (0, 1), BuildingBlock: UVAHIK_clean_linker_0, # of connection points: 2
#     Edge 28, Type (0, 1), BuildingBlock: UVAHIK_clean_linker_0, # of connection points: 2
#     Edge 29, Type (0, 1), BuildingBlock: UVAHIK_clean_linker_0, # of connection points: 2
#     Edge 30, Type (0, 1), BuildingBlock: UVAHIK_clean_linker_0, # of connection points: 2
#     Edge 31, Type (0, 1), BuildingBlock: UVAHIK_clean_linker_0, # of connection points: 2
#     Edge 32, Type (0, 1), BuildingBlock: UVAHIK_clean_linker_0, # of connection points: 2
#     Edge 33, Type (0, 1), BuildingBlock: UVAHIK_clean_linker_0, # of connection points: 2
#     Edge 34, Type (0, 1), BuildingBlock: UVAHIK_clean_linker_0, # of connection points: 2
#     Edge 35, Type (0, 1), BuildingBlock: UVAHIK_clean_linker_0, # of connection points: 2
# Relax obj value: 0.092
# Max RMSD: 0.222
# Mean RMSD: 0.153
data_MOF--net-pyr--node1-MIFKUJ_clean_sbu_0--node2-CUQRIR_clean_linker_1--edge1-UVAHIK_clean_linker_0
_symmetry_space_group_name_H-M    P1
_symmetry_Int_Tables_number       1
_symmetry_cell_setting            triclinic
loop_
_symmetry_equiv_pos_as_xyz
'x, y, z'
_cell_length_a     47.775319
_cell_length_b     43.011324
_cell_length_c     45.376284
_cell_angle_alpha  84.171144
_cell_angle_beta   90.236286
_cell_angle_gamma 99.715026
loop_
_atom_site_label
_atom_site_type_symbol
_atom_site_fract_x
_atom_site_fract_y
_atom_site_fract_z
_atom_type_partial_charge
C0 C 0.18516 0.21149 0.19506 0.0
N1 N 0.20354 0.19129 0.20236 0.0
N2 N 0.18753 0.22198 0.16589 0.0
C3 C 0.16473 0.22062 0.21654 0.0
C4 C 0.20797 0.20735 0.15564 0.0
N5 N 0.21741 0.18831 0.17777 0.0
C6 C 0.21857 0.21133 0.1241 0.0
H7 H 0.15285 0.19899 0.22917 0.0
H8 H 0.1495 0.23459 0.20551 0.0
H9 H 0.17687 0.23518 0.23264 0.0
H10 H 0.24205 0.2135 0.12356 0.0
H11 H 0.21224 0.23227 0.11124 0.0
H12 H 0.20956 0.18992 0.11329 0.0
C13 C 0.34616 0.83766 0.67463 0.0
N14 N 0.34053 0.85709 0.69477 0.0
N15 N 0.36324 0.8176 0.68634 0.0
C16 C 0.33445 0.83787 0.64375 0.0
C17 C 0.36757 0.82523 0.7144 0.0
N18 N 0.35346 0.84895 0.71966 0.0
C19 C 0.3852 0.80926 0.73684 0.0
H20 H 0.31157 0.83974 0.6442 0.0
H21 H 0.33718 0.81647 0.63315 0.0
H22 H 0.34579 0.85889 0.62986 0.0
H23 H 0.39965 0.79589 0.72632 0.0
H24 H 0.37083 0.79238 0.75244 0.0
H25 H 0.39782 0.82707 0.74984 0.0
C26 C 0.6547 0.34462 0.81245 0.0
N27 N 0.67179 0.34072 0.8359 0.0
N28 N 0.66386 0.37264 0.79614 0.0
C29 C 0.62772 0.3224 0.80695 0.0
C30 C 0.68696 0.38577 0.81075 0.0
N31 N 0.69155 0.36647 0.83507 0.0
C32 C 0.70607 0.41637 0.80029 0.0
H33 H 0.63276 0.30406 0.79327 0.0
H34 H 0.61214 0.33527 0.79497 0.0
H35 H 0.61794 0.31029 0.82811 0.0
H36 H 0.69896 0.43597 0.81077 0.0
H37 H 0.70522 0.42151 0.77588 0.0
H38 H 0.72836 0.41554 0.80685 0.0
C39 C 0.82764 0.65144 0.29418 0.0
N40 N 0.85498 0.66572 0.28922 0.0
N41 N 0.81872 0.65633 0.32128 0.0
C42 C 0.8101 0.63102 0.27352 0.0
C43 C 0.84151 0.67379 0.33283 0.0
N44 N 0.86373 0.6792 0.31348 0.0
C45 C 0.84129 0.68772 0.36194 0.0
H46 H 0.80027 0.64643 0.25687 0.0
H47 H 0.79289 0.61412 0.28571 0.0
H48 H 0.82357 0.61754 0.26167 0.0
H49 H 0.85246 0.67376 0.37862 0.0
H50 H 0.81934 0.68722 0.37007 0.0
H51 H 0.85271 0.71257 0.35974 0.0
C52 C 0.8167 0.86176 0.84096 0.0
N53 N 0.83809 0.85802 0.82296 0.0
N54 N 0.79987 0.88065 0.82672 0.0
C55 C 0.81129 0.84539 0.87182 0.0
C56 C 0.81175 0.88807 0.79927 0.0
N57 N 0.83491 0.87404 0.7969 0.0
C58 C 0.8024 0.91144 0.77592 0.0
H59 H 0.78838 0.84162 0.87774 0.0
H60 H 0.82326 0.86038 0.88774 0.0
H61 H 0.8187 0.82217 0.87393 0.0
H62 H 0.79152 0.92866 0.78602 0.0
H63 H 0.78733 0.89837 0.76097 0.0
H64 H 0.82078 0.92459 0.76245 0.0
C65 C 0.70997 0.18321 0.38873 0.0
N66 N 0.7157 0.159 0.37399 0.0
N67 N 0.68349 0.18921 0.38241 0.0
C68 C 0.7296 0.20051 0.40999 0.0
C69 C 0.67326 0.1676 0.36365 0.0
N70 N 0.69268 0.14914 0.35875 0.0
C71 C 0.64437 0.16468 0.34977 0.0
H72 H 0.72337 0.19026 0.43292 0.0
H73 H 0.7276 0.22597 0.40803 0.0
H74 H 0.75206 0.1984 0.40652 0.0
H75 H 0.64621 0.17884 0.32781 0.0
H76 H 0.62909 0.17359 0.36376 0.0
H77 H 0.63595 0.1397 0.34632 0.0
C78 C 0.32176 0.6512 0.19333 0.0
N79 N 0.34586 0.66848 0.20288 0.0
N80 N 0.30773 0.66964 0.17474 0.0
C81 C 0.31111 0.61682 0.20338 0.0
C82 C 0.32371 0.69878 0.17365 0.0
N83 N 0.34672 0.69818 0.19103 0.0
C84 C 0.31661 0.72789 0.15599 0.0
H85 H 0.32306 0.60196 0.19133 0.0
H86 H 0.2882 0.60995 0.19883 0.0
H87 H 0.31476 0.61182 0.22744 0.0
H88 H 0.30618 0.74155 0.17086 0.0
H89 H 0.30191 0.7216 0.13772 0.0
H90 H 0.33622 0.7433 0.1467 0.0
C91 C 0.14563 0.35746 0.72203 0.0
N92 N 0.16504 0.35013 0.7034 0.0
N93 N 0.15769 0.3808 0.73828 0.0
C94 C 0.11557 0.34015 0.72604 0.0
C95 C 0.18515 0.38727 0.72896 0.0
N96 N 0.18967 0.3684 0.70796 0.0
C97 C 0.20691 0.4137 0.73865 0.0
H98 H 0.10181 0.35168 0.71016 0.0
H99 H 0.10759 0.34094 0.74883 0.0
H100 H 0.11403 0.31504 0.72154 0.0
H101 H 0.21916 0.40408 0.75722 0.0
H102 H 0.19661 0.43274 0.74637 0.0
H103 H 0.22196 0.42401 0.72028 0.0
Zn104 Zn 0.07486 0.01684 0.53047 0.0
Zn105 Zn 0.00665 0.9947 0.4722 0.0
C106 C 0.09861 0.08062 0.53909 0.0
O107 O 0.11589 0.07598 0.51813 0.0
C108 C 0.00415 0.93048 0.45457 0.0
O109 O 0.01781 0.92508 0.47925 0.0
O110 O 0.10673 0.99648 0.54914 0.0
O111 O 0.0376 0.99017 0.54422 0.0
O112 O 1.00055 0.97764 0.51536 0.0
C113 C 0.10681 0.99037 0.57716 0.0
O114 O 0.08558 0.99618 0.59285 0.0
O115 O 0.07826 0.05857 0.5478 0.0
C116 C 0.96821 0.02493 0.43458 0.0
O117 O 0.97958 0.01039 0.41478 0.0
O118 O 0.97724 0.02293 0.46104 0.0
O119 O 0.04565 0.01642 0.45768 0.0
O120 O 0.08298 0.02646 0.4868 0.0
O121 O 0.99727 0.95759 0.44798 0.0
C122 C 0.0123 0.97637 0.54058 0.0
C123 C 0.07182 0.02694 0.46133 0.0
Zn124 Zn 0.52637 0.99604 0.00418 0.0
Zn125 Zn 0.50447 0.04029 0.07291 0.0
C126 C 0.47557 0.96114 0.97956 0.0
O127 O 0.47915 0.93928 0.001 0.0
C128 C 0.55163 0.05728 0.11056 0.0
O129 O 0.55464 0.08269 0.09143 0.0
O130 O 0.55911 0.98138 0.98465 0.0
O131 O 0.53807 0.04322 0.00561 0.0
O132 O 0.52612 0.071 0.04098 0.0
C133 C 0.55942 0.97801 0.95712 0.0
O134 O 0.53783 0.98405 0.94081 0.0
O135 O 0.49227 0.98765 0.97759 0.0
C136 C 0.45977 0.05076 0.11197 0.0
O137 O 0.46956 0.02916 0.12976 0.0
O138 O 0.47153 0.05948 0.08669 0.0
O139 O 0.48903 0.99869 0.05769 0.0
O140 O 0.51934 0.97019 0.04373 0.0
O141 O 0.53113 0.03477 0.10749 0.0
C142 C 0.5387 0.06941 0.01663 0.0
C143 C 0.5021 0.97545 0.06306 0.0
Zn144 Zn 0.50669 0.47788 0.48011 0.0
Zn145 Zn 0.48478 0.52838 0.51712 0.0
C146 C 0.54609 0.51432 0.44052 0.0
O147 O 0.52964 0.49658 0.42326 0.0
C148 C 0.45053 0.4852 0.55881 0.0
O149 O 0.4699 0.49891 0.57614 0.0
O150 O 0.51681 0.43866 0.46419 0.0
O151 O 0.50608 0.46796 0.5246 0.0
O152 O 0.52128 0.51716 0.53325 0.0
C153 C 0.53831 0.42932 0.47659 0.0
O154 O 0.55097 0.44502 0.49766 0.0
O155 O 0.54019 0.51166 0.46804 0.0
C156 C 0.45172 0.57165 0.53624 0.0
O157 O 0.43225 0.55289 0.52286 0.0
O158 O 0.47713 0.56638 0.5365 0.0
O159 O 0.48235 0.53988 0.47353 0.0
O160 O 0.47301 0.49197 0.45853 0.0
O161 O 0.45252 0.49319 0.53103 0.0
C162 C 0.52098 0.48772 0.53978 0.0
C163 C 0.47168 0.52144 0.45473 0.0
Zn164 Zn 0.98575 0.55877 0.97838 0.0
Zn165 Zn 0.00365 0.50779 0.02317 0.0
C166 C 0.94841 0.51298 0.94832 0.0
O167 O 0.96749 0.52224 0.92708 0.0
C168 C 0.04022 0.54791 0.05628 0.0
O169 O 0.02198 0.53238 0.07643 0.0
O170 O 0.97887 0.597 0.95173 0.0
O171 O 0.98484 0.57015 0.02032 0.0
O172 O 0.96917 0.52152 0.04037 0.0
C173 C 0.98838 0.62517 0.95733 0.0
O174 O 0.00414 0.62971 0.98082 0.0
O175 O 0.95169 0.5251 0.97278 0.0
C176 C 0.03939 0.46552 0.04013 0.0
O177 O 0.05378 0.4859 0.01984 0.0
O178 O 0.01434 0.46907 0.04687 0.0
O179 O 0.00368 0.49662 0.9813 0.0
O180 O 0.02104 0.54515 0.96323 0.0
O181 O 0.03671 0.54235 0.02941 0.0
C182 C 0.97139 0.55139 0.04098 0.0
C183 C 0.01945 0.51548 0.96253 0.0
C184 C 0.19459 0.13922 0.23153 0.0
C185 C 0.2038 0.17207 0.23015 0.0
C186 C 0.18706 0.12157 0.2588 0.0
C187 C 0.1538 0.13433 0.32623 0.0
H188 H 0.16604 0.05004 0.35626 0.0
C189 C 0.07736 0.0519 0.40893 0.0
C190 C 0.08979 0.04083 0.43521 0.0
C191 C 0.09436 0.06673 0.38486 0.0
C192 C 0.1626 0.07363 0.3481 0.0
H193 H 0.21558 0.21178 0.25579 0.0
H194 H 0.20202 0.18114 0.30361 0.0
H195 H 0.19363 0.07831 0.31305 0.0
H196 H 0.12977 0.03561 0.45645 0.0
H197 H 0.15944 0.06091 0.41388 0.0
H198 H 0.1221 0.12932 0.36038 0.0
C199 C 0.20031 0.16903 0.2837 0.0
C200 C 0.17828 0.08971 0.32348 0.0
C201 C 0.20808 0.18652 0.2565 0.0
C202 C 0.11957 0.04404 0.43655 0.0
C203 C 0.13655 0.05834 0.41221 0.0
C204 C 0.13781 0.11807 0.35036 0.0
C205 C 0.18851 0.13671 0.28494 0.0
C206 C 0.17396 0.1202 0.31232 0.0
C207 C 0.12408 0.07024 0.38637 0.0
C208 C 0.14191 0.08753 0.36139 0.0
H209 H 0.19103 0.12778 0.21133 0.0
H210 H 0.17795 0.0967 0.25914 0.0
H211 H 0.14974 0.15761 0.31781 0.0
H212 H 0.05451 0.04984 0.40721 0.0
H213 H 0.0843 0.07561 0.36505 0.0
C214 C 0.36814 0.89582 0.74649 0.0
C215 C 0.3545 0.86432 0.74644 0.0
C216 C 0.3748 0.90865 0.77333 0.0
C217 C 0.3904 0.88066 0.84986 0.0
H218 H 0.39401 0.96858 0.8641 0.0
C219 C 0.4358 0.9246 0.95841 0.0
C220 C 0.45495 0.95341 0.95576 0.0
C221 C 0.4187 0.91547 0.93463 0.0
C222 C 0.39326 0.94398 0.8604 0.0
H223 H 0.33484 0.82229 0.77366 0.0
H224 H 0.34582 0.84466 0.82068 0.0
H225 H 0.37188 0.94979 0.81901 0.0
H226 H 0.47023 0.99587 0.9264 0.0
H227 H 0.44083 0.9797 0.8848 0.0
H228 H 0.41243 0.87486 0.89053 0.0
C229 C 0.35213 0.85934 0.80019 0.0
C230 C 0.38054 0.93322 0.83458 0.0
C231 C 0.34564 0.84657 0.77339 0.0
C232 C 0.45568 0.97352 0.92922 0.0
C233 C 0.43869 0.9643 0.90536 0.0
C234 C 0.40312 0.89139 0.87553 0.0
C235 C 0.36778 0.89011 0.80053 0.0
C236 C 0.37916 0.90145 0.82889 0.0
C237 C 0.42046 0.93481 0.90753 0.0
C238 C 0.40497 0.92324 0.88107 0.0
H239 H 0.37527 0.90971 0.72583 0.0
H240 H 0.38697 0.93235 0.77274 0.0
H241 H 0.39034 0.85622 0.84594 0.0
H242 H 0.43449 0.90867 0.97863 0.0
H243 H 0.40448 0.89291 0.93733 0.0
C244 C 0.6452 0.41609 0.76708 0.0
C245 C 0.65173 0.38534 0.76947 0.0
C246 C 0.63235 0.42789 0.74159 0.0
C247 C 0.58653 0.40165 0.68148 0.0
H248 H 0.61392 0.48507 0.64118 0.0
C249 C 0.53955 0.44436 0.57073 0.0
C250 C 0.53657 0.4764 0.56579 0.0
C251 C 0.55439 0.43362 0.59519 0.0
C252 C 0.60573 0.4619 0.6524 0.0
H253 H 0.65085 0.3431 0.74717 0.0
H254 H 0.62767 0.36336 0.70273 0.0
H255 H 0.6386 0.46595 0.68479 0.0
H256 H 0.54643 0.52224 0.58289 0.0
H257 H 0.57147 0.50332 0.62613 0.0
H258 H 0.55324 0.39771 0.64984 0.0
C259 C 0.63241 0.3783 0.72056 0.0
C260 C 0.61996 0.45095 0.67728 0.0
C261 C 0.64558 0.3667 0.74587 0.0
C262 C 0.54855 0.49744 0.58596 0.0
C263 C 0.56308 0.48661 0.61066 0.0
C264 C 0.57209 0.41271 0.65686 0.0
C265 C 0.62552 0.40892 0.71827 0.0
C266 C 0.61054 0.42067 0.69194 0.0
C267 C 0.56622 0.45457 0.61556 0.0
C268 C 0.58156 0.44294 0.64192 0.0
H269 H 0.64951 0.43067 0.78521 0.0
H270 H 0.62703 0.45148 0.74045 0.0
H271 H 0.5786 0.37837 0.69268 0.0
H272 H 0.53062 0.42754 0.55557 0.0
H273 H 0.55679 0.40891 0.59793 0.0
C274 C 0.8623 0.67017 0.23522 0.0
C275 C 0.87225 0.66344 0.26388 0.0
C276 C 0.87553 0.66133 0.21076 0.0
C277 C 0.93974 0.63629 0.18342 0.0
H278 H 0.88682 0.58641 0.13424 0.0
C279 C 0.97096 0.59635 0.07176 0.0
C280 C 0.96102 0.56459 0.06696 0.0
C281 C 0.96159 0.60908 0.0963 0.0
C282 C 0.90185 0.60016 0.14785 0.0
H283 H 0.90498 0.64473 0.28953 0.0
H284 H 0.92879 0.6298 0.24655 0.0
H285 H 0.86892 0.61012 0.17546 0.0
H286 H 0.93353 0.52126 0.08422 0.0
H287 H 0.91666 0.54379 0.12693 0.0
H288 H 0.97267 0.62633 0.15562 0.0
C289 C 0.91057 0.6416 0.24301 0.0
C290 C 0.89161 0.61402 0.17122 0.0
C291 C 0.8971 0.65023 0.26754 0.0
C292 C 0.94151 0.54581 0.08729 0.0
C293 C 0.93181 0.55871 0.11165 0.0
C294 C 0.94998 0.62277 0.15973 0.0
C295 C 0.89921 0.64596 0.21453 0.0
C296 C 0.91043 0.63222 0.18926 0.0
C297 C 0.94179 0.59048 0.11638 0.0
C298 C 0.93111 0.60449 0.14178 0.0
H299 H 0.8434 0.68084 0.23197 0.0
H300 H 0.86667 0.66554 0.189 0.0
H301 H 0.9547 0.65018 0.19699 0.0
H302 H 0.98616 0.61143 0.05664 0.0
H303 H 0.96945 0.63368 0.09926 0.0
C304 C 0.26506 0.17851 0.19223 0.0
C305 C 0.24031 0.17073 0.17597 0.0
C306 C 0.28866 0.16406 0.18802 0.0
C307 C 0.31163 0.09496 0.15976 0.0
H308 H 0.38366 0.15121 0.14431 0.0
C309 C 0.41811 0.04989 0.14565 0.0
C310 C 0.43498 0.06429 0.12105 0.0
C311 C 0.39436 0.06223 0.15392 0.0
C312 C 0.36369 0.13523 0.14857 0.0
H313 H 0.21988 0.1409 0.14389 0.0
H314 H 0.26106 0.11514 0.13661 0.0
H315 H 0.3417 0.17298 0.15697 0.0
H316 H 0.44033 0.1032 0.08608 0.0
H317 H 0.39908 0.125 0.10082 0.0
H318 H 0.33364 0.05723 0.15117 0.0
C319 C 0.26239 0.13253 0.15246 0.0
C320 C 0.33975 0.14763 0.15608 0.0
C321 C 0.23895 0.1473 0.15643 0.0
C322 C 0.42776 0.09152 0.10511 0.0
C323 C 0.40423 0.10411 0.11363 0.0
C324 C 0.33569 0.08249 0.15264 0.0
C325 C 0.28771 0.14123 0.16776 0.0
C326 C 0.3134 0.12767 0.16149 0.0
C327 C 0.3872 0.0895 0.13803 0.0
C328 C 0.3619 0.10255 0.14668 0.0
H329 H 0.26639 0.19661 0.20736 0.0
H330 H 0.30778 0.17099 0.20034 0.0
H331 H 0.29163 0.07901 0.16394 0.0
H332 H 0.42305 0.02884 0.15837 0.0
H333 H 0.38173 0.05062 0.17294 0.0
C334 C 0.32353 0.90222 0.66694 0.0
C335 C 0.32069 0.87888 0.69115 0.0
C336 C 0.30115 0.91834 0.65901 0.0
C337 C 0.22286 0.90638 0.66686 0.0
H338 H 0.23265 0.98967 0.62281 0.0
C339 C 0.12872 0.96591 0.62208 0.0
C340 C 0.1311 0.97854 0.5922 0.0
C341 C 0.15187 0.95561 0.63666 0.0
C342 C 0.22964 0.96634 0.63502 0.0
H343 H 0.29354 0.85589 0.72768 0.0
H344 H 0.25467 0.88512 0.71488 0.0
H345 H 0.27354 0.9708 0.64633 0.0
H346 H 0.15971 0.99041 0.55422 0.0
H347 H 0.20026 0.97275 0.57984 0.0
H348 H 0.17886 0.90219 0.65563 0.0
C349 C 0.27375 0.89025 0.70123 0.0
C350 C 0.25306 0.95546 0.64848 0.0
C351 C 0.29611 0.87387 0.70892 0.0
C352 C 0.15716 0.98068 0.57721 0.0
C353 C 0.18043 0.97082 0.59193 0.0
C354 C 0.19939 0.91747 0.65375 0.0
C355 C 0.27551 0.91176 0.67544 0.0
C356 C 0.25012 0.92506 0.66413 0.0
C357 C 0.17802 0.95818 0.6218 0.0
C358 C 0.20263 0.94731 0.63725 0.0
H359 H 0.34253 0.90666 0.65319 0.0
H360 H 0.30344 0.93453 0.63895 0.0
H361 H 0.2197 0.88263 0.67816 0.0
H362 H 0.10894 0.96393 0.63425 0.0
H363 H 0.14945 0.94607 0.65971 0.0
C364 C 0.71773 0.39598 0.87294 0.0
C365 C 0.71516 0.37135 0.85464 0.0
C366 C 0.74271 0.40404 0.88857 0.0
C367 C 0.8173 0.4086 0.87876 0.0
H368 H 0.82374 0.42486 0.9612 0.0
C369 C 0.92377 0.46758 0.92279 0.0
C370 C 0.92284 0.48986 0.94312 0.0
C371 C 0.89912 0.44725 0.91602 0.0
C372 C 0.82232 0.4208 0.93804 0.0
H373 H 0.73553 0.33507 0.83867 0.0
H374 H 0.77993 0.34967 0.86548 0.0
H375 H 0.77828 0.3997 0.94263 0.0
H376 H 0.89571 0.508 0.97293 0.0
H377 H 0.85236 0.47394 0.95998 0.0
H378 H 0.86033 0.43153 0.87317 0.0
C379 C 0.76251 0.36239 0.86812 0.0
C380 C 0.79633 0.40612 0.92756 0.0
C381 C 0.73728 0.35397 0.85296 0.0
C382 C 0.89699 0.4909 0.95723 0.0
C383 C 0.87216 0.47113 0.94991 0.0
C384 C 0.84306 0.42386 0.88901 0.0
C385 C 0.76562 0.38792 0.88557 0.0
C386 C 0.79358 0.40019 0.89776 0.0
C387 C 0.87277 0.44935 0.92882 0.0
C388 C 0.8459 0.43056 0.91873 0.0
H389 H 0.70078 0.40966 0.87417 0.0
H390 H 0.74473 0.42401 0.90164 0.0
H391 H 0.81556 0.40472 0.85554 0.0
H392 H 0.94358 0.46599 0.91195 0.0
H393 H 0.90074 0.43022 0.90038 0.0
C394 C 0.78689 0.62457 0.35945 0.0
C395 C 0.79095 0.6465 0.33425 0.0
C396 C 0.75973 0.61442 0.37172 0.0
C397 C 0.68367 0.6104 0.35258 0.0
H398 H 0.67313 0.58542 0.43683 0.0
C399 C 0.5819 0.53141 0.39981 0.0
C400 C 0.57227 0.53476 0.42832 0.0
C401 C 0.60758 0.5489 0.38872 0.0
C402 C 0.67553 0.59278 0.41332 0.0
H403 H 0.77082 0.67595 0.30234 0.0
H404 H 0.72325 0.65935 0.32426 0.0
H405 H 0.7199 0.60978 0.41749 0.0
H406 H 0.58148 0.55992 0.46721 0.0
H407 H 0.62604 0.59139 0.44742 0.0
H408 H 0.63916 0.59442 0.3485 0.0
C409 C 0.74066 0.64906 0.33419 0.0
C410 C 0.70253 0.60629 0.40212 0.0
C411 C 0.76778 0.65875 0.3217 0.0
C412 C 0.58847 0.5567 0.44521 0.0
C413 C 0.61409 0.57457 0.43393 0.0
C414 C 0.65662 0.59737 0.36382 0.0
C415 C 0.7362 0.62648 0.35921 0.0
C416 C 0.70708 0.61464 0.37152 0.0
C417 C 0.62414 0.57058 0.40566 0.0
C418 C 0.6523 0.58768 0.39423 0.0
H419 H 0.80472 0.61492 0.36922 0.0
H420 H 0.75714 0.59658 0.39058 0.0
H421 H 0.68627 0.61622 0.32886 0.0
H422 H 0.57001 0.51455 0.38629 0.0
H423 H 0.61482 0.54462 0.36715 0.0
C424 C 0.18547 0.274 0.13874 0.0
C425 C 0.1718 0.24369 0.14982 0.0
C426 C 0.16979 0.29609 0.12533 0.0
C427 C 0.09931 0.31786 0.12567 0.0
H428 H 0.12426 0.36832 0.05191 0.0
C429 C 0.03644 0.41156 0.06846 0.0
C430 C 0.05269 0.43924 0.05424 0.0
C431 C 0.04961 0.38615 0.07975 0.0
C432 C 0.11715 0.35475 0.07273 0.0
H433 H 0.13153 0.21209 0.15533 0.0
H434 H 0.10371 0.25097 0.13224 0.0
H435 H 0.15019 0.32684 0.07158 0.0
H436 H 0.09549 0.46264 0.04195 0.0
H437 H 0.11834 0.41924 0.06236 0.0
H438 H 0.06684 0.34642 0.12742 0.0
C439 C 0.12652 0.25767 0.13386 0.0
C440 C 0.13197 0.33088 0.08388 0.0
C441 C 0.14231 0.23547 0.14686 0.0
C442 C 0.0823 0.44144 0.05238 0.0
C443 C 0.09542 0.41637 0.06391 0.0
C444 C 0.08465 0.34206 0.1147 0.0
C445 C 0.1401 0.28829 0.12318 0.0
C446 C 0.12337 0.3124 0.11058 0.0
C447 C 0.07927 0.38814 0.07726 0.0
C448 C 0.09362 0.36109 0.08827 0.0
H449 H 0.20819 0.28072 0.14114 0.0
H450 H 0.18075 0.3196 0.1175 0.0
H451 H 0.09237 0.30408 0.14646 0.0
H452 H 0.01356 0.4092 0.07012 0.0
H453 H 0.03647 0.36471 0.08975 0.0
C454 C 0.66245 0.32006 0.88808 0.0
C455 C 0.66792 0.31477 0.85886 0.0
C456 C 0.65359 0.29443 0.90934 0.0
C457 C 0.64664 0.20697 0.92461 0.0
H458 H 0.57778 0.21399 0.96659 0.0
C459 C 0.56879 0.09752 0.97373 0.0
C460 C 0.55549 0.09856 0.00112 0.0
C461 C 0.58541 0.12463 0.95947 0.0
C462 C 0.59726 0.21176 0.95549 0.0
H463 H 0.6704 0.27931 0.829 0.0
H464 H 0.65495 0.23428 0.86599 0.0
H465 H 0.6038 0.26029 0.93719 0.0
H466 H 0.54937 0.12906 0.035 0.0
H467 H 0.57856 0.17636 0.01011 0.0
H468 H 0.63975 0.15825 0.9424 0.0
C469 C 0.65752 0.25804 0.87272 0.0
C470 C 0.61222 0.23833 0.93867 0.0
C471 C 0.66621 0.28366 0.85152 0.0
C472 C 0.55916 0.12744 0.01385 0.0
C473 C 0.57586 0.15458 0.99957 0.0
C474 C 0.63172 0.18041 0.94149 0.0
C475 C 0.65027 0.26315 0.90164 0.0
C476 C 0.63674 0.23607 0.92256 0.0
C477 C 0.58923 0.15346 0.97224 0.0
C478 C 0.60652 0.18233 0.9566 0.0
H479 H 0.66355 0.34401 0.89398 0.0
H480 H 0.64846 0.29907 0.93153 0.0
H481 H 0.66567 0.20462 0.91275 0.0
H482 H 0.56639 0.07573 0.96321 0.0
H483 H 0.59496 0.12308 0.93817 0.0
C484 C 0.90668 0.69685 0.34124 0.0
C485 C 0.88958 0.70111 0.31647 0.0
C486 C 0.9265 0.7221 0.34954 0.0
C487 C 0.93203 0.80764 0.34604 0.0
H488 H 0.00201 0.80337 0.38863 0.0
C489 C 0.98624 0.91269 0.40607 0.0
C490 C 0.99661 0.90533 0.43451 0.0
C491 C 0.9782 0.88895 0.38737 0.0
C492 C 0.98241 0.80489 0.37692 0.0
H493 H 0.88133 0.73361 0.2793 0.0
H494 H 0.91643 0.77794 0.29334 0.0
H495 H 0.98082 0.7591 0.36151 0.0
H496 H 0.00722 0.86734 0.46538 0.0
H497 H 0.9924 0.8257 0.43312 0.0
H498 H 0.93268 0.85255 0.36237 0.0
C499 C 0.91428 0.75528 0.30668 0.0
C500 C 0.97038 0.77961 0.36126 0.0
C501 C 0.8945 0.72993 0.29839 0.0
C502 C 0.99932 0.87378 0.4436 0.0
C503 C 0.99102 0.84994 0.42497 0.0
C504 C 0.94393 0.83276 0.36178 0.0
C505 C 0.92946 0.75207 0.33317 0.0
C506 C 0.94478 0.78048 0.34605 0.0
C507 C 0.98005 0.85717 0.39673 0.0
C508 C 0.969 0.83152 0.37787 0.0
H509 H 0.90303 0.6747 0.35543 0.0
H510 H 0.93771 0.7188 0.3701 0.0
H511 H 0.91198 0.80884 0.33513 0.0
H512 H 0.9842 0.93683 0.39822 0.0
H513 H 0.97036 0.89552 0.36559 0.0
C514 C 0.35392 0.76635 0.66552 0.0
C515 C 0.37318 0.7928 0.67259 0.0
C516 C 0.36329 0.74285 0.65092 0.0
C517 C 0.42609 0.70792 0.63616 0.0
H518 H 0.38359 0.67894 0.56829 0.0
C519 C 0.46462 0.62083 0.56228 0.0
C520 C 0.44378 0.59777 0.55152 0.0
C521 C 0.45681 0.64533 0.57681 0.0
C522 C 0.39552 0.6864 0.58743 0.0
H523 H 0.41709 0.81561 0.67079 0.0
H524 H 0.43386 0.77411 0.64554 0.0
H525 H 0.36831 0.71968 0.59489 0.0
H526 H 0.39841 0.58205 0.54796 0.0
H527 H 0.38483 0.62403 0.57386 0.0
H528 H 0.45297 0.67419 0.62917 0.0
C529 C 0.41153 0.77153 0.65119 0.0
C530 C 0.38677 0.70983 0.6026 0.0
C531 C 0.40204 0.7952 0.66551 0.0
C532 C 0.41502 0.5996 0.55573 0.0
C533 C 0.40722 0.62385 0.57046 0.0
C534 C 0.4347 0.68421 0.62115 0.0
C535 C 0.39217 0.74528 0.64346 0.0
C536 C 0.40188 0.72074 0.62719 0.0
C537 C 0.42798 0.64714 0.5811 0.0
C538 C 0.41943 0.67302 0.59667 0.0
H539 H 0.3316 0.76417 0.67104 0.0
H540 H 0.34796 0.72271 0.64557 0.0
H541 H 0.438 0.71573 0.6552 0.0
H542 H 0.48697 0.62012 0.55929 0.0
H543 H 0.47338 0.66305 0.58435 0.0
C544 C 0.88321 0.88934 0.77554 0.0
C545 C 0.85423 0.87811 0.772 0.0
C546 C 0.90158 0.89589 0.75098 0.0
C547 C 0.9079 0.88346 0.6714 0.0
H548 H 0.96224 0.96162 0.66897 0.0
C549 C 0.96699 0.94589 0.56429 0.0
C550 C 0.99556 0.96006 0.56689 0.0
C551 C 0.95074 0.93268 0.58949 0.0
C552 C 0.94747 0.93949 0.66943 0.0
H553 H 0.82172 0.86375 0.74057 0.0
H554 H 0.85356 0.8759 0.69731 0.0
H555 H 0.93233 0.94414 0.71272 0.0
H556 H 0.02963 0.9702 0.5981 0.0
H557 H 0.00142 0.94708 0.6418 0.0
H558 H 0.92279 0.87935 0.62767 0.0
C559 C 0.86231 0.87929 0.71902 0.0
C560 C 0.93033 0.92941 0.69458 0.0
C561 C 0.84401 0.8726 0.74366 0.0
C562 C 0.00768 0.95975 0.59519 0.0
C563 C 0.99146 0.94663 0.62033 0.0
C564 C 0.92502 0.89365 0.64613 0.0
C565 C 0.89126 0.89153 0.72232 0.0
C566 C 0.91026 0.90132 0.69589 0.0
C567 C 0.96269 0.9334 0.61784 0.0
C568 C 0.94496 0.92183 0.64486 0.0
H569 H 0.89145 0.894 0.79721 0.0
H570 H 0.92381 0.9048 0.75441 0.0
H571 H 0.89291 0.86152 0.67178 0.0
H572 H 0.95694 0.94562 0.54285 0.0
H573 H 0.92857 0.92286 0.58685 0.0
C574 C 0.67347 0.09739 0.34206 0.0
C575 C 0.69045 0.12733 0.33659 0.0
C576 C 0.66386 0.07997 0.3185 0.0
C577 C 0.66941 0.07857 0.23632 0.0
H578 H 0.58778 0.05206 0.24298 0.0
C579 C 0.59574 0.07925 0.13633 0.0
C580 C 0.57126 0.05603 0.13587 0.0
C581 C 0.6134 0.08001 0.16091 0.0
C582 C 0.61063 0.05864 0.24085 0.0
H583 H 0.71239 0.16187 0.3031 0.0
H584 H 0.69579 0.13177 0.26171 0.0
H585 H 0.6147 0.06672 0.28645 0.0
H586 H 0.54666 0.01464 0.16051 0.0
H587 H 0.57757 0.0161 0.20376 0.0
H588 H 0.66497 0.07192 0.19027 0.0
C589 C 0.69005 0.12124 0.28402 0.0
C590 C 0.62616 0.06702 0.26586 0.0
C591 C 0.69967 0.13853 0.30762 0.0
C592 C 0.56533 0.03289 0.16023 0.0
C593 C 0.58296 0.03379 0.18501 0.0
C594 C 0.65385 0.07027 0.21127 0.0
C595 C 0.67096 0.0924 0.28906 0.0
C596 C 0.65563 0.07802 0.26375 0.0
C597 C 0.60701 0.05765 0.18577 0.0
C598 C 0.62415 0.06115 0.21307 0.0
H599 H 0.66596 0.08867 0.36435 0.0
H600 H 0.6496 0.05762 0.32323 0.0
H601 H 0.69213 0.08642 0.23399 0.0
H602 H 0.60103 0.09736 0.1179 0.0
H603 H 0.63147 0.09898 0.16086 0.0
C604 C 0.36835 0.67216 0.25153 0.0
C605 C 0.36456 0.65777 0.22513 0.0
C606 C 0.38237 0.65847 0.27525 0.0
C607 C 0.4272 0.59705 0.29698 0.0
H608 H 0.39079 0.59538 0.37348 0.0
C609 C 0.45426 0.51933 0.4024 0.0
C610 C 0.4585 0.53522 0.42805 0.0
C611 C 0.44325 0.5338 0.37686 0.0
C612 C 0.4013 0.5958 0.3523 0.0
H613 H 0.37392 0.61935 0.20175 0.0
H614 H 0.39787 0.59475 0.24335 0.0
H615 H 0.37289 0.6234 0.33008 0.0
H616 H 0.45396 0.57838 0.44722 0.0
H617 H 0.4347 0.60326 0.40303 0.0
H618 H 0.45538 0.56894 0.31947 0.0
C619 C 0.39029 0.6167 0.24587 0.0
C620 C 0.39118 0.61206 0.32743 0.0
C621 C 0.37643 0.63056 0.22213 0.0
C622 C 0.45103 0.5655 0.42782 0.0
C623 C 0.43984 0.57973 0.40253 0.0
C624 C 0.43724 0.58059 0.32192 0.0
C625 C 0.39269 0.62998 0.27303 0.0
C626 C 0.4041 0.61311 0.29948 0.0
C627 C 0.43595 0.56417 0.37673 0.0
C628 C 0.4245 0.58002 0.34987 0.0
H629 H 0.35919 0.69306 0.2543 0.0
H630 H 0.3844 0.66972 0.29562 0.0
H631 H 0.43778 0.59756 0.27584 0.0
H632 H 0.45994 0.49605 0.40188 0.0
H633 H 0.44029 0.52119 0.35729 0.0
C634 C 0.11981 0.40793 0.75442 0.0
C635 C 0.14454 0.39512 0.76064 0.0
C636 C 0.10706 0.42187 0.77617 0.0
C637 C 0.0935 0.46545 0.82084 0.0
H638 H 0.08919 0.42551 0.90161 0.0
C639 C 0.05223 0.52307 0.9183 0.0
C640 C 0.03454 0.50273 0.9393 0.0
C641 C 0.06641 0.51069 0.89647 0.0
C642 C 0.09005 0.43686 0.87913 0.0
H643 H 0.17543 0.38656 0.7941 0.0
H644 H 0.15363 0.41153 0.83212 0.0
H645 H 0.11184 0.40213 0.8634 0.0
H646 H 0.01778 0.45345 0.95375 0.0
H647 H 0.04208 0.43201 0.91556 0.0
H648 H 0.07097 0.49968 0.83647 0.0
C649 C 0.14377 0.4105 0.81063 0.0
C650 C 0.10335 0.42367 0.85728 0.0
C651 C 0.15642 0.3965 0.78888 0.0
C652 C 0.03132 0.46981 0.93798 0.0
C653 C 0.04542 0.45748 0.91619 0.0
C654 C 0.08015 0.47863 0.8427 0.0
C655 C 0.11889 0.4233 0.80455 0.0
C656 C 0.10515 0.43772 0.82785 0.0
C657 C 0.06318 0.47774 0.8952 0.0
C658 C 0.07813 0.46438 0.87208 0.0
H659 H 0.11047 0.40722 0.73267 0.0
H660 H 0.08773 0.43113 0.77086 0.0
H661 H 0.09482 0.47708 0.79845 0.0
H662 H 0.05522 0.54854 0.91877 0.0
H663 H 0.08018 0.52693 0.88083 0.0
C664 C 0.74979 0.88812 0.82387 0.0
C665 C 0.7758 0.8915 0.83867 0.0
C666 C 0.72621 0.89777 0.83605 0.0
C667 C 0.69656 0.91135 0.90709 0.0
H668 H 0.64963 0.96148 0.85926 0.0
C669 C 0.60919 0.96664 0.95923 0.0
C670 C 0.58393 0.96768 0.94348 0.0
C671 C 0.63244 0.9573 0.94613 0.0
C672 C 0.66224 0.94709 0.87286 0.0
H673 H 0.79801 0.90834 0.8771 0.0
H674 H 0.7567 0.92471 0.89881 0.0
H675 H 0.69033 0.94514 0.83662 0.0
H676 H 0.56313 0.95931 0.90175 0.0
H677 H 0.60335 0.9422 0.8792 0.0
H678 H 0.66837 0.9127 0.94321 0.0
C679 C 0.75441 0.91437 0.87795 0.0
C680 C 0.6856 0.93783 0.85987 0.0
C681 C 0.77799 0.90503 0.86561 0.0
C682 C 0.58236 0.95896 0.91443 0.0
C683 C 0.60551 0.94933 0.90142 0.0
C684 C 0.67307 0.92033 0.92002 0.0
C685 C 0.72823 0.9107 0.86338 0.0
C686 C 0.70309 0.92004 0.87691 0.0
C687 C 0.6309 0.94847 0.91706 0.0
C688 C 0.65568 0.93848 0.90312 0.0
H689 H 0.74765 0.8775 0.80316 0.0
H690 H 0.70623 0.89446 0.82444 0.0
H691 H 0.70945 0.89723 0.92065 0.0
H692 H 0.61115 0.97341 0.98159 0.0
H693 H 0.65177 0.95746 0.95869 0.0
C694 C 0.73983 0.11327 0.38687 0.0
C695 C 0.74109 0.14502 0.37551 0.0
C696 C 0.76477 0.10041 0.39105 0.0
C697 C 0.84102 0.12448 0.40395 0.0
H698 H 0.84679 0.03963 0.38575 0.0
C699 C 0.93181 0.05793 0.44686 0.0
C700 C 0.94366 0.04103 0.42654 0.0
C701 C 0.90769 0.07153 0.43954 0.0
C702 C 0.84557 0.06344 0.39082 0.0
H703 H 0.76875 0.18772 0.35764 0.0
H704 H 0.81262 0.16553 0.36522 0.0
H705 H 0.80347 0.06113 0.37365 0.0
H706 H 0.93957 0.02563 0.38239 0.0
H707 H 0.89759 0.04917 0.3698 0.0
H708 H 0.88308 0.12672 0.42124 0.0
C709 C 0.79247 0.15065 0.37144 0.0
C710 C 0.82067 0.07565 0.3841 0.0
C711 C 0.76749 0.16334 0.36702 0.0
C712 C 0.93104 0.03844 0.39863 0.0
C713 C 0.90683 0.05175 0.39144 0.0
C714 C 0.86581 0.11214 0.41095 0.0
C715 C 0.79145 0.11918 0.38397 0.0
C716 C 0.81811 0.10633 0.39055 0.0
C717 C 0.89473 0.06826 0.41187 0.0
C718 C 0.8684 0.08149 0.40444 0.0
H719 H 0.71959 0.0988 0.39344 0.0
H720 H 0.76325 0.07613 0.40082 0.0
H721 H 0.83961 0.14808 0.40949 0.0
H722 H 0.94097 0.06036 0.46855 0.0
H723 H 0.89877 0.08393 0.45584 0.0
C724 C 0.27837 0.65593 0.13194 0.0
C725 C 0.28047 0.6612 0.16186 0.0
C726 C 0.25173 0.64748 0.11944 0.0
C727 C 0.17847 0.61104 0.14047 0.0
H728 H 0.16044 0.6448 0.06144 0.0
C729 C 0.0673 0.5779 0.09436 0.0
C730 C 0.06592 0.56848 0.06558 0.0
C731 C 0.09271 0.59351 0.10496 0.0
C732 C 0.16525 0.63506 0.08347 0.0
H733 H 0.25736 0.66276 0.20226 0.0
H734 H 0.21046 0.64809 0.1806 0.0
H735 H 0.20676 0.66339 0.08243 0.0
H736 H 0.08959 0.56954 0.02472 0.0
H737 H 0.13427 0.59645 0.04345 0.0
H738 H 0.13736 0.58237 0.1415 0.0
C739 C 0.22922 0.65 0.16676 0.0
C740 C 0.19175 0.64566 0.09546 0.0
C741 C 0.25585 0.65845 0.17916 0.0
C742 C 0.09005 0.57654 0.04701 0.0
C743 C 0.11561 0.59202 0.05772 0.0
C744 C 0.15208 0.60046 0.12852 0.0
C745 C 0.22687 0.64419 0.13681 0.0
C746 C 0.19863 0.63369 0.12409 0.0
C747 C 0.11738 0.59984 0.0871 0.0
C748 C 0.14515 0.6123 0.09988 0.0
H749 H 0.29737 0.65812 0.11844 0.0
H750 H 0.25063 0.64284 0.09641 0.0
H751 H 0.18332 0.6009 0.16235 0.0
H752 H 0.04891 0.57242 0.10904 0.0
H753 H 0.09322 0.59991 0.12746 0.0
C754 C 0.24079 0.36641 0.70716 0.0
C755 C 0.21573 0.36952 0.69184 0.0
C756 C 0.26681 0.37179 0.69205 0.0
C757 C 0.30118 0.38259 0.61756 0.0
H758 H 0.35923 0.4387 0.65553 0.0
C759 C 0.40023 0.45721 0.55597 0.0
C760 C 0.42542 0.46349 0.57201 0.0
C761 C 0.37545 0.44018 0.56995 0.0
C762 C 0.34355 0.42253 0.64479 0.0
H763 H 0.19758 0.37895 0.64886 0.0
H764 H 0.24322 0.38863 0.6221 0.0
H765 H 0.31446 0.41827 0.68113 0.0
H766 H 0.44501 0.4549 0.61458 0.0
H767 H 0.40214 0.42459 0.6387 0.0
H768 H 0.33033 0.38747 0.5809 0.0
C769 C 0.24284 0.38178 0.64575 0.0
C770 C 0.3178 0.4108 0.65951 0.0
C771 C 0.21677 0.37633 0.66096 0.0
C772 C 0.42581 0.45084 0.60174 0.0
C773 C 0.40118 0.4336 0.61561 0.0
C774 C 0.32709 0.39429 0.60279 0.0
C775 C 0.26824 0.38048 0.66128 0.0
C776 C 0.29622 0.39089 0.64603 0.0
C777 C 0.37547 0.4289 0.60017 0.0
C778 C 0.34851 0.4146 0.61618 0.0
H779 H 0.24022 0.36074 0.73098 0.0
H780 H 0.28592 0.36998 0.70457 0.0
H781 H 0.28503 0.36711 0.60668 0.0
H782 H 0.39929 0.4667 0.53301 0.0
H783 H 0.356 0.43719 0.55743 0.0
C784 C 0.86168 0.81239 0.81684 0.0
C785 C 0.86006 0.83973 0.83063 0.0
C786 C 0.88036 0.79212 0.82738 0.0
C787 C 0.91701 0.77105 0.89658 0.0
H788 H 0.95299 0.71974 0.8478 0.0
C789 C 0.98619 0.68312 0.94784 0.0
C790 C 0.97964 0.65234 0.93907 0.0
C791 C 0.97561 0.70825 0.9322 0.0
C792 C 0.94302 0.73391 0.86167 0.0
H793 H 0.87746 0.86886 0.86452 0.0
H794 H 0.9109 0.83426 0.88247 0.0
H795 H 0.92765 0.76037 0.82428 0.0
H796 H 0.95795 0.62412 0.90614 0.0
H797 H 0.93949 0.668 0.8789 0.0
H798 H 0.93209 0.74451 0.93392 0.0
C799 C 0.89726 0.82767 0.86421 0.0
C800 C 0.92845 0.75712 0.84823 0.0
C801 C 0.87838 0.84761 0.85389 0.0
C802 C 0.9633 0.64752 0.91357 0.0
C803 C 0.95287 0.6727 0.89782 0.0
C804 C 0.9317 0.74809 0.90995 0.0
C805 C 0.89787 0.79913 0.85174 0.0
C806 C 0.91503 0.7758 0.86555 0.0
C807 C 0.95841 0.70319 0.90734 0.0
C808 C 0.94464 0.72905 0.8927 0.0
H809 H 0.84751 0.80602 0.79893 0.0
H810 H 0.88006 0.77027 0.81737 0.0
H811 H 0.90641 0.78439 0.91072 0.0
H812 H 0.99883 0.68769 0.9673 0.0
H813 H 0.98053 0.73159 0.93983 0.0
C814 C 0.362 0.75156 0.2059 0.0
C815 C 0.36875 0.72465 0.19448 0.0
C816 C 0.38087 0.78024 0.20222 0.0
C817 C 0.45308 0.81954 0.17548 0.0
H818 H 0.41183 0.88345 0.13918 0.0
C819 C 0.50352 0.92215 0.09052 0.0
C820 C 0.49246 0.95059 0.08764 0.0
C821 C 0.49186 0.89701 0.11116 0.0
C822 C 0.42383 0.86636 0.14989 0.0
H823 H 0.40094 0.70531 0.17262 0.0
H824 H 0.43419 0.75564 0.16577 0.0
H825 H 0.38587 0.83445 0.16339 0.0
H826 H 0.46165 0.97554 0.1055 0.0
H827 H 0.44206 0.93226 0.14228 0.0
H828 H 0.49112 0.85136 0.16108 0.0
C829 C 0.41451 0.7547 0.17784 0.0
C830 C 0.40886 0.83811 0.16381 0.0
C831 C 0.3956 0.72593 0.1817 0.0
C832 C 0.47066 0.95399 0.10711 0.0
C833 C 0.45923 0.929 0.12801 0.0
C834 C 0.46814 0.84803 0.16166 0.0
C835 C 0.40673 0.78249 0.18681 0.0
C836 C 0.42323 0.81407 0.1762 0.0
C837 C 0.46903 0.8998 0.12963 0.0
C838 C 0.45365 0.87148 0.14805 0.0
H839 H 0.34134 0.75077 0.21596 0.0
H840 H 0.3745 0.80108 0.20989 0.0
H841 H 0.46474 0.80155 0.18504 0.0
H842 H 0.5204 0.91874 0.07595 0.0
H843 H 0.49981 0.87485 0.11148 0.0
C844 C 0.13965 0.32499 0.66236 0.0
C845 C 0.16065 0.32534 0.68405 0.0
C846 C 0.1339 0.29971 0.64498 0.0
C847 C 0.13822 0.2155 0.64688 0.0
H848 H 0.12564 0.22755 0.56228 0.0
C849 C 0.08993 0.11255 0.58034 0.0
C850 C 0.10417 0.11016 0.55383 0.0
C851 C 0.0967 0.1396 0.59533 0.0
C852 C 0.12918 0.22386 0.58588 0.0
H853 H 0.19254 0.30045 0.70446 0.0
H854 H 0.18259 0.25591 0.67404 0.0
H855 H 0.1393 0.27375 0.58977 0.0
H856 H 0.13607 0.13465 0.52182 0.0
H857 H 0.14766 0.18199 0.5479 0.0
H858 H 0.12807 0.16567 0.64305 0.0
C859 C 0.17046 0.27506 0.67053 0.0
C860 C 0.13682 0.25026 0.60162 0.0
C861 C 0.17633 0.30051 0.68771 0.0
C862 C 0.12475 0.13574 0.54222 0.0
C863 C 0.13131 0.16292 0.55707 0.0
C864 C 0.1303 0.18915 0.63121 0.0
C865 C 0.14896 0.27423 0.64921 0.0
C866 C 0.14146 0.24633 0.63227 0.0
C867 C 0.11763 0.16494 0.58398 0.0
C868 C 0.1257 0.19304 0.60056 0.0
H869 H 0.12746 0.34411 0.65925 0.0
H870 H 0.1171 0.29962 0.62888 0.0
H871 H 0.14136 0.21177 0.67055 0.0
H872 H 0.07398 0.09325 0.58987 0.0
H873 H 0.08559 0.14069 0.61587 0.0
C874 C 0.65867 0.23473 0.37089 0.0
C875 C 0.66975 0.21393 0.3919 0.0
C876 C 0.64384 0.25756 0.37991 0.0
C877 C 0.63569 0.3046 0.44078 0.0
H878 H 0.56143 0.31082 0.40814 0.0
C879 C 0.56662 0.38596 0.48686 0.0
C880 C 0.55011 0.40225 0.4671 0.0
C881 C 0.57996 0.36204 0.47772 0.0
C882 C 0.5823 0.3098 0.41718 0.0
H883 H 0.67439 0.2008 0.4387 0.0
H884 H 0.64931 0.24164 0.45468 0.0
H885 H 0.58811 0.27187 0.39178 0.0
H886 H 0.53421 0.40603 0.42236 0.0
H887 H 0.55838 0.36495 0.40589 0.0
H888 H 0.63063 0.34303 0.46542 0.0
C889 C 0.65194 0.24007 0.43121 0.0
C890 C 0.59751 0.28736 0.40788 0.0
C891 C 0.66638 0.21687 0.42214 0.0
C892 C 0.54667 0.39367 0.43811 0.0
C893 C 0.56049 0.37004 0.42875 0.0
C894 C 0.62073 0.32735 0.44974 0.0
C895 C 0.64026 0.2604 0.41017 0.0
C896 C 0.62427 0.28443 0.41973 0.0
C897 C 0.57766 0.35418 0.44836 0.0
C898 C 0.59369 0.33013 0.43827 0.0
H899 H 0.6614 0.23314 0.34745 0.0
H900 H 0.63538 0.27319 0.36324 0.0
H901 H 0.65645 0.30313 0.44996 0.0
H902 H 0.56937 0.39181 0.50948 0.0
H903 H 0.59221 0.34982 0.49378 0.0
loop_
_geom_bond_atom_site_label_1
_geom_bond_atom_site_label_2
_geom_bond_distance
_geom_bond_site_symmetry_2
_ccdc_geom_bond_type
C0 N1 1.317 . S
C0 N2 1.348 . S
C0 C3 1.485 . S
N1 C0 1.317 . S
N1 N5 1.370 . S
N2 C0 1.348 . S
N2 C4 1.346 . S
C3 C0 1.485 . S
C3 H7 0.960 . S
C3 H8 0.961 . S
C3 H9 0.960 . S
C4 N2 1.346 . S
C4 N5 1.307 . S
C4 C6 1.486 . S
N5 N1 1.370 . S
N5 C4 1.307 . S
C6 C4 1.486 . S
C6 H10 0.960 . S
C6 H11 0.960 . S
C6 H12 0.959 . S
H7 C3 0.960 . S
H8 C3 0.961 . S
H9 C3 0.960 . S
H10 C6 0.960 . S
H11 C6 0.960 . S
H12 C6 0.959 . S
C13 N14 1.317 . S
C13 N15 1.348 . S
C13 C16 1.485 . S
N14 C13 1.317 . S
N14 N18 1.370 . S
N15 C13 1.348 . S
N15 C17 1.346 . S
C16 C13 1.485 . S
C16 H20 0.960 . S
C16 H21 0.961 . S
C16 H22 0.960 . S
C17 N15 1.346 . S
C17 N18 1.307 . S
C17 C19 1.486 . S
N18 N14 1.370 . S
N18 C17 1.307 . S
C19 C17 1.486 . S
C19 H23 0.960 . S
C19 H24 0.960 . S
C19 H25 0.959 . S
H20 C16 0.960 . S
H21 C16 0.961 . S
H22 C16 0.960 . S
H23 C19 0.960 . S
H24 C19 0.960 . S
H25 C19 0.959 . S
C26 N27 1.317 . S
C26 N28 1.348 . S
C26 C29 1.485 . S
N27 C26 1.317 . S
N27 N31 1.370 . S
N28 C26 1.348 . S
N28 C30 1.346 . S
C29 C26 1.485 . S
C29 H33 0.960 . S
C29 H34 0.961 . S
C29 H35 0.960 . S
C30 N28 1.346 . S
C30 N31 1.307 . S
C30 C32 1.486 . S
N31 N27 1.370 . S
N31 C30 1.307 . S
C32 C30 1.486 . S
C32 H36 0.960 . S
C32 H37 0.960 . S
C32 H38 0.959 . S
H33 C29 0.960 . S
H34 C29 0.961 . S
H35 C29 0.960 . S
H36 C32 0.960 . S
H37 C32 0.960 . S
H38 C32 0.959 . S
C39 N40 1.317 . S
C39 N41 1.348 . S
C39 C42 1.485 . S
N40 C39 1.317 . S
N40 N44 1.370 . S
N41 C39 1.348 . S
N41 C43 1.346 . S
C42 C39 1.485 . S
C42 H46 0.960 . S
C42 H47 0.961 . S
C42 H48 0.960 . S
C43 N41 1.346 . S
C43 N44 1.307 . S
C43 C45 1.486 . S
N44 N40 1.370 . S
N44 C43 1.307 . S
C45 C43 1.486 . S
C45 H49 0.960 . S
C45 H50 0.960 . S
C45 H51 0.959 . S
H46 C42 0.960 . S
H47 C42 0.961 . S
H48 C42 0.960 . S
H49 C45 0.960 . S
H50 C45 0.960 . S
H51 C45 0.959 . S
C52 N53 1.317 . S
C52 N54 1.348 . S
C52 C55 1.485 . S
N53 C52 1.317 . S
N53 N57 1.370 . S
N54 C52 1.348 . S
N54 C56 1.346 . S
C55 C52 1.485 . S
C55 H59 0.960 . S
C55 H60 0.961 . S
C55 H61 0.960 . S
C56 N54 1.346 . S
C56 N57 1.307 . S
C56 C58 1.486 . S
N57 N53 1.370 . S
N57 C56 1.307 . S
C58 C56 1.486 . S
C58 H62 0.960 . S
C58 H63 0.960 . S
C58 H64 0.959 . S
H59 C55 0.960 . S
H60 C55 0.961 . S
H61 C55 0.960 . S
H62 C58 0.960 . S
H63 C58 0.960 . S
H64 C58 0.959 . S
C65 N66 1.317 . S
C65 N67 1.348 . S
C65 C68 1.485 . S
N66 C65 1.317 . S
N66 N70 1.370 . S
N67 C65 1.348 . S
N67 C69 1.346 . S
C68 C65 1.485 . S
C68 H72 0.960 . S
C68 H73 0.961 . S
C68 H74 0.960 . S
C69 N67 1.346 . S
C69 N70 1.307 . S
C69 C71 1.486 . S
N70 N66 1.370 . S
N70 C69 1.307 . S
C71 C69 1.486 . S
C71 H75 0.960 . S
C71 H76 0.960 . S
C71 H77 0.959 . S
H72 C68 0.960 . S
H73 C68 0.961 . S
H74 C68 0.960 . S
H75 C71 0.960 . S
H76 C71 0.960 . S
H77 C71 0.959 . S
C78 N79 1.317 . S
C78 N80 1.348 . S
C78 C81 1.485 . S
N79 C78 1.317 . S
N79 N83 1.370 . S
N80 C78 1.348 . S
N80 C82 1.346 . S
C81 C78 1.485 . S
C81 H85 0.960 . S
C81 H86 0.961 . S
C81 H87 0.960 . S
C82 N80 1.346 . S
C82 N83 1.307 . S
C82 C84 1.486 . S
N83 N79 1.370 . S
N83 C82 1.307 . S
C84 C82 1.486 . S
C84 H88 0.960 . S
C84 H89 0.960 . S
C84 H90 0.959 . S
H85 C81 0.960 . S
H86 C81 0.961 . S
H87 C81 0.960 . S
H88 C84 0.960 . S
H89 C84 0.960 . S
H90 C84 0.959 . S
C91 N92 1.317 . S
C91 N93 1.348 . S
C91 C94 1.485 . S
N92 C91 1.317 . S
N92 N96 1.370 . S
N93 C91 1.348 . S
N93 C95 1.346 . S
C94 C91 1.485 . S
C94 H98 0.960 . S
C94 H99 0.961 . S
C94 H100 0.960 . S
C95 N93 1.346 . S
C95 N96 1.307 . S
C95 C97 1.486 . S
N96 N92 1.370 . S
N96 C95 1.307 . S
C97 C95 1.486 . S
C97 H101 0.960 . S
C97 H102 0.960 . S
C97 H103 0.959 . S
H98 C94 0.960 . S
H99 C94 0.961 . S
H100 C94 0.960 . S
H101 C97 0.960 . S
H102 C97 0.960 . S
H103 C97 0.959 . S
Zn104 O110 1.969 1_545 S
Zn104 O111 1.965 1_545 S
Zn104 O115 2.024 . S
Zn104 O120 1.969 . S
Zn105 O112 1.975 1_455 S
Zn105 O118 1.955 1_465 S
Zn105 O119 1.954 1_565 S
Zn105 O121 2.040 . S
C106 O107 1.229 . S
C106 O115 1.058 . S
O107 C106 1.229 . S
C108 O109 1.229 . S
C108 O121 1.058 1_655 S
O109 C108 1.229 . S
O110 Zn104 1.969 1_565 S
O110 C113 1.267 . S
O111 Zn104 1.965 1_565 S
O111 C122 1.260 . S
O112 Zn105 1.975 1_655 S
O112 C122 1.258 1_655 S
C113 O110 1.267 . S
C113 O114 1.228 . S
O114 C113 1.228 . S
O115 Zn104 2.024 . S
O115 C106 1.058 . S
C116 O117 1.228 . S
C116 O118 1.267 . S
O117 C116 1.228 . S
O118 Zn105 1.955 1_645 S
O118 C116 1.267 . S
O119 Zn105 1.954 1_545 S
O119 C123 1.260 . S
O120 Zn104 1.969 . S
O120 C123 1.258 . S
O121 Zn105 2.040 . S
O121 C108 1.058 1_455 S
C122 O111 1.260 . S
C122 O112 1.258 1_455 S
C123 O119 1.260 . S
C123 O120 1.258 . S
Zn124 O130 1.969 . S
Zn124 O131 1.965 1_565 S
Zn124 O135 2.024 1_554 S
Zn124 O140 1.969 . S
Zn125 O132 1.969 . S
Zn125 O138 1.969 . S
Zn125 O139 1.965 . S
Zn125 O141 2.024 . S
C126 O127 1.229 . S
C126 O135 1.058 . S
O127 C126 1.229 . S
C128 O129 1.229 . S
C128 O141 1.058 . S
O129 C128 1.229 . S
O130 Zn124 1.969 . S
O130 C133 1.267 1_554 S
O131 Zn124 1.965 1_545 S
O131 C142 1.260 . S
O132 Zn125 1.969 . S
O132 C142 1.258 . S
C133 O130 1.267 1_556 S
C133 O134 1.228 . S
O134 C133 1.228 . S
O135 Zn124 2.024 1_556 S
O135 C126 1.058 . S
C136 O137 1.228 . S
C136 O138 1.267 . S
O137 C136 1.228 . S
O138 Zn125 1.969 . S
O138 C136 1.267 . S
O139 Zn125 1.965 . S
O139 C143 1.260 1_545 S
O140 Zn124 1.969 . S
O140 C143 1.258 . S
O141 Zn125 2.024 . S
O141 C128 1.058 . S
C142 O131 1.260 . S
C142 O132 1.258 . S
C143 O139 1.260 1_565 S
C143 O140 1.258 . S
Zn144 O150 1.969 . S
Zn144 O151 1.965 . S
Zn144 O155 2.024 . S
Zn144 O160 1.969 . S
Zn145 O152 1.969 . S
Zn145 O158 1.969 . S
Zn145 O159 1.965 . S
Zn145 O161 2.024 . S
C146 O147 1.229 . S
C146 O155 1.058 . S
O147 C146 1.229 . S
C148 O149 1.229 . S
C148 O161 1.058 . S
O149 C148 1.229 . S
O150 Zn144 1.969 . S
O150 C153 1.267 . S
O151 Zn144 1.965 . S
O151 C162 1.260 . S
O152 Zn145 1.969 . S
O152 C162 1.258 . S
C153 O150 1.267 . S
C153 O154 1.228 . S
O154 C153 1.228 . S
O155 Zn144 2.024 . S
O155 C146 1.058 . S
C156 O157 1.228 . S
C156 O158 1.267 . S
O157 C156 1.228 . S
O158 Zn145 1.969 . S
O158 C156 1.267 . S
O159 Zn145 1.965 . S
O159 C163 1.260 . S
O160 Zn144 1.969 . S
O160 C163 1.258 . S
O161 Zn145 2.024 . S
O161 C148 1.058 . S
C162 O151 1.260 . S
C162 O152 1.258 . S
C163 O159 1.260 . S
C163 O160 1.258 . S
Zn164 O170 1.969 . S
Zn164 O171 1.965 1_556 S
Zn164 O175 2.024 . S
Zn164 O180 1.969 1_655 S
Zn165 O172 1.969 . S
Zn165 O178 1.969 . S
Zn165 O179 1.965 1_554 S
Zn165 O181 2.024 . S
C166 O167 1.229 . S
C166 O175 1.058 . S
O167 C166 1.229 . S
C168 O169 1.229 . S
C168 O181 1.058 . S
O169 C168 1.229 . S
O170 Zn164 1.969 . S
O170 C173 1.267 . S
O171 Zn164 1.965 1_554 S
O171 C182 1.260 . S
O172 Zn165 1.969 . S
O172 C182 1.258 1_455 S
C173 O170 1.267 . S
C173 O174 1.228 . S
O174 C173 1.228 . S
O175 Zn164 2.024 . S
O175 C166 1.058 . S
C176 O177 1.228 . S
C176 O178 1.267 . S
O177 C176 1.228 . S
O178 Zn165 1.969 . S
O178 C176 1.267 . S
O179 Zn165 1.965 1_556 S
O179 C183 1.260 . S
O180 Zn164 1.969 1_455 S
O180 C183 1.258 . S
O181 Zn165 2.024 . S
O181 C168 1.058 . S
C182 O171 1.260 . S
C182 O172 1.258 1_655 S
C183 O179 1.260 . S
C183 O180 1.258 . S
C184 C185 1.349 . S
C184 C186 1.327 . S
C184 H209 0.950 . S
C185 C184 1.349 . S
C185 C201 1.349 . S
C186 C184 1.327 . S
C186 C205 1.429 . S
C186 H210 0.950 . S
C187 C204 1.574 . S
C187 C206 1.368 . S
C187 H211 0.949 . S
H188 C192 0.949 . S
C189 C190 1.349 . S
C189 C191 1.327 . S
C189 H212 0.950 . S
C190 C189 1.349 . S
C190 C202 1.349 . S
C191 C189 1.327 . S
C191 C207 1.429 . S
C191 H213 0.950 . S
C192 H188 0.949 . S
C192 C200 1.574 . S
C192 C208 1.368 . S
H193 C201 0.950 . S
H194 C199 0.950 . S
H195 C200 0.949 . S
H196 C202 0.950 . S
H197 C203 0.950 . S
H198 C204 0.949 . S
C199 H194 0.950 . S
C199 C201 1.327 . S
C199 C205 1.429 . S
C200 C192 1.574 . S
C200 H195 0.949 . S
C200 C206 1.368 . S
C201 C185 1.349 . S
C201 H193 0.950 . S
C201 C199 1.327 . S
C202 C190 1.349 . S
C202 H196 0.950 . S
C202 C203 1.327 . S
C203 H197 0.950 . S
C203 C202 1.327 . S
C203 C207 1.429 . S
C204 C187 1.574 . S
C204 H198 0.949 . S
C204 C208 1.368 . S
C205 C186 1.429 . S
C205 C199 1.429 . S
C205 C206 1.523 . S
C206 C187 1.368 . S
C206 C200 1.368 . S
C206 C205 1.523 . S
C207 C191 1.429 . S
C207 C203 1.429 . S
C207 C208 1.523 . S
C208 C192 1.368 . S
C208 C204 1.368 . S
C208 C207 1.523 . S
H209 C184 0.950 . S
H210 C186 0.950 . S
H211 C187 0.949 . S
H212 C189 0.950 . S
H213 C191 0.950 . S
C214 C215 1.349 . S
C214 C216 1.327 . S
C214 H239 0.950 . S
C215 C214 1.349 . S
C215 C231 1.349 . S
C216 C214 1.327 . S
C216 C235 1.429 . S
C216 H240 0.950 . S
C217 C234 1.574 . S
C217 C236 1.368 . S
C217 H241 0.949 . S
H218 C222 0.949 . S
C219 C220 1.349 . S
C219 C221 1.327 . S
C219 H242 0.950 . S
C220 C219 1.349 . S
C220 C232 1.349 . S
C221 C219 1.327 . S
C221 C237 1.429 . S
C221 H243 0.950 . S
C222 H218 0.949 . S
C222 C230 1.574 . S
C222 C238 1.368 . S
H223 C231 0.950 . S
H224 C229 0.950 . S
H225 C230 0.949 . S
H226 C232 0.982 . S
H227 C233 0.950 . S
H228 C234 0.949 . S
C229 H224 0.950 . S
C229 C231 1.327 . S
C229 C235 1.429 . S
C230 C222 1.574 . S
C230 H225 0.949 . S
C230 C236 1.368 . S
C231 C215 1.349 . S
C231 H223 0.950 . S
C231 C229 1.327 . S
C232 C220 1.349 . S
C232 H226 0.982 . S
C232 C233 1.327 . S
C233 H227 0.950 . S
C233 C232 1.327 . S
C233 C237 1.429 . S
C234 C217 1.574 . S
C234 H228 0.949 . S
C234 C238 1.368 . S
C235 C216 1.429 . S
C235 C229 1.429 . S
C235 C236 1.523 . S
C236 C217 1.368 . S
C236 C230 1.368 . S
C236 C235 1.523 . S
C237 C221 1.429 . S
C237 C233 1.429 . S
C237 C238 1.523 . S
C238 C222 1.368 . S
C238 C234 1.368 . S
C238 C237 1.523 . S
H239 C214 0.950 . S
H240 C216 0.950 . S
H241 C217 0.949 . S
H242 C219 0.950 . S
H243 C221 0.950 . S
C244 C245 1.349 . S
C244 C246 1.327 . S
C244 H269 0.950 . S
C245 C244 1.349 . S
C245 C261 1.349 . S
C246 C244 1.327 . S
C246 C265 1.429 . S
C246 H270 0.950 . S
C247 C264 1.574 . S
C247 C266 1.368 . S
C247 H271 0.949 . S
H248 C252 0.949 . S
C249 C250 1.349 . S
C249 C251 1.327 . S
C249 H272 0.950 . S
C250 C249 1.349 . S
C250 C262 1.349 . S
C251 C249 1.327 . S
C251 C267 1.429 . S
C251 H273 0.950 . S
C252 H248 0.949 . S
C252 C260 1.574 . S
C252 C268 1.368 . S
H253 C261 0.950 . S
H254 C259 0.950 . S
H255 C260 0.949 . S
H256 C262 0.950 . S
H257 C263 0.950 . S
H258 C264 0.949 . S
C259 H254 0.950 . S
C259 C261 1.327 . S
C259 C265 1.429 . S
C260 C252 1.574 . S
C260 H255 0.949 . S
C260 C266 1.368 . S
C261 C245 1.349 . S
C261 H253 0.950 . S
C261 C259 1.327 . S
C262 C250 1.349 . S
C262 H256 0.950 . S
C262 C263 1.327 . S
C263 H257 0.950 . S
C263 C262 1.327 . S
C263 C267 1.429 . S
C264 C247 1.574 . S
C264 H258 0.949 . S
C264 C268 1.368 . S
C265 C246 1.429 . S
C265 C259 1.429 . S
C265 C266 1.523 . S
C266 C247 1.368 . S
C266 C260 1.368 . S
C266 C265 1.523 . S
C267 C251 1.429 . S
C267 C263 1.429 . S
C267 C268 1.523 . S
C268 C252 1.368 . S
C268 C264 1.368 . S
C268 C267 1.523 . S
H269 C244 0.950 . S
H270 C246 0.950 . S
H271 C247 0.949 . S
H272 C249 0.950 . S
H273 C251 0.950 . S
C274 C275 1.349 . S
C274 C276 1.327 . S
C274 H299 0.950 . S
C275 C274 1.349 . S
C275 C291 1.349 . S
C276 C274 1.327 . S
C276 C295 1.429 . S
C276 H300 0.950 . S
C277 C294 1.574 . S
C277 C296 1.368 . S
C277 H301 0.949 . S
H278 C282 0.949 . S
C279 C280 1.349 . S
C279 C281 1.327 . S
C279 H302 0.950 . S
C280 C279 1.349 . S
C280 C292 1.349 . S
C281 C279 1.327 . S
C281 C297 1.429 . S
C281 H303 0.950 . S
C282 H278 0.949 . S
C282 C290 1.574 . S
C282 C298 1.368 . S
H283 C291 0.950 . S
H284 C289 0.950 . S
H285 C290 0.949 . S
H286 C292 0.950 . S
H287 C293 0.950 . S
H288 C294 0.949 . S
C289 H284 0.950 . S
C289 C291 1.327 . S
C289 C295 1.429 . S
C290 C282 1.574 . S
C290 H285 0.949 . S
C290 C296 1.368 . S
C291 C275 1.349 . S
C291 H283 0.950 . S
C291 C289 1.327 . S
C292 C280 1.349 . S
C292 H286 0.950 . S
C292 C293 1.327 . S
C293 H287 0.950 . S
C293 C292 1.327 . S
C293 C297 1.429 . S
C294 C277 1.574 . S
C294 H288 0.949 . S
C294 C298 1.368 . S
C295 C276 1.429 . S
C295 C289 1.429 . S
C295 C296 1.523 . S
C296 C277 1.368 . S
C296 C290 1.368 . S
C296 C295 1.523 . S
C297 C281 1.429 . S
C297 C293 1.429 . S
C297 C298 1.523 . S
C298 C282 1.368 . S
C298 C294 1.368 . S
C298 C297 1.523 . S
H299 C274 0.950 . S
H300 C276 0.950 . S
H301 C277 0.949 . S
H302 C279 0.950 . S
H303 C281 0.950 . S
C304 C305 1.349 . S
C304 C306 1.327 . S
C304 H329 0.950 . S
C305 C304 1.349 . S
C305 C321 1.349 . S
C306 C304 1.327 . S
C306 C325 1.429 . S
C306 H330 0.950 . S
C307 C324 1.574 . S
C307 C326 1.368 . S
C307 H331 0.949 . S
H308 C312 0.949 . S
C309 C310 1.349 . S
C309 C311 1.327 . S
C309 H332 0.950 . S
C310 C309 1.349 . S
C310 C322 1.349 . S
C311 C309 1.327 . S
C311 C327 1.429 . S
C311 H333 0.950 . S
C312 H308 0.949 . S
C312 C320 1.574 . S
C312 C328 1.368 . S
H313 C321 0.950 . S
H314 C319 0.950 . S
H315 C320 0.949 . S
H316 C322 0.950 . S
H317 C323 0.950 . S
H318 C324 0.949 . S
C319 H314 0.950 . S
C319 C321 1.327 . S
C319 C325 1.429 . S
C320 C312 1.574 . S
C320 H315 0.949 . S
C320 C326 1.368 . S
C321 C305 1.349 . S
C321 H313 0.950 . S
C321 C319 1.327 . S
C322 C310 1.349 . S
C322 H316 0.950 . S
C322 C323 1.327 . S
C323 H317 0.950 . S
C323 C322 1.327 . S
C323 C327 1.429 . S
C324 C307 1.574 . S
C324 H318 0.949 . S
C324 C328 1.368 . S
C325 C306 1.429 . S
C325 C319 1.429 . S
C325 C326 1.523 . S
C326 C307 1.368 . S
C326 C320 1.368 . S
C326 C325 1.523 . S
C327 C311 1.429 . S
C327 C323 1.429 . S
C327 C328 1.523 . S
C328 C312 1.368 . S
C328 C324 1.368 . S
C328 C327 1.523 . S
H329 C304 0.950 . S
H330 C306 0.950 . S
H331 C307 0.949 . S
H332 C309 0.950 . S
H333 C311 0.950 . S
C334 C335 1.349 . S
C334 C336 1.327 . S
C334 H359 0.950 . S
C335 C334 1.349 . S
C335 C351 1.349 . S
C336 C334 1.327 . S
C336 C355 1.429 . S
C336 H360 0.950 . S
C337 C354 1.574 . S
C337 C356 1.368 . S
C337 H361 0.949 . S
H338 C342 0.949 . S
C339 C340 1.349 . S
C339 C341 1.327 . S
C339 H362 0.950 . S
C340 C339 1.349 . S
C340 C352 1.349 . S
C341 C339 1.327 . S
C341 C357 1.429 . S
C341 H363 0.950 . S
C342 H338 0.949 . S
C342 C350 1.574 . S
C342 C358 1.368 . S
H343 C351 0.950 . S
H344 C349 0.950 . S
H345 C350 0.949 . S
H346 C352 0.950 . S
H347 C353 0.950 . S
H348 C354 0.949 . S
C349 H344 0.950 . S
C349 C351 1.327 . S
C349 C355 1.429 . S
C350 C342 1.574 . S
C350 H345 0.949 . S
C350 C356 1.368 . S
C351 C335 1.349 . S
C351 H343 0.950 . S
C351 C349 1.327 . S
C352 C340 1.349 . S
C352 H346 0.950 . S
C352 C353 1.327 . S
C353 H347 0.950 . S
C353 C352 1.327 . S
C353 C357 1.429 . S
C354 C337 1.574 . S
C354 H348 0.949 . S
C354 C358 1.368 . S
C355 C336 1.429 . S
C355 C349 1.429 . S
C355 C356 1.523 . S
C356 C337 1.368 . S
C356 C350 1.368 . S
C356 C355 1.523 . S
C357 C341 1.429 . S
C357 C353 1.429 . S
C357 C358 1.523 . S
C358 C342 1.368 . S
C358 C354 1.368 . S
C358 C357 1.523 . S
H359 C334 0.950 . S
H360 C336 0.950 . S
H361 C337 0.949 . S
H362 C339 0.950 . S
H363 C341 0.950 . S
C364 C365 1.349 . S
C364 C366 1.327 . S
C364 H389 0.950 . S
C365 C364 1.349 . S
C365 C381 1.349 . S
C366 C364 1.327 . S
C366 C385 1.429 . S
C366 H390 0.950 . S
C367 C384 1.574 . S
C367 C386 1.368 . S
C367 H391 0.949 . S
H368 C372 0.949 . S
C369 C370 1.349 . S
C369 C371 1.327 . S
C369 H392 0.950 . S
C370 C369 1.349 . S
C370 C382 1.349 . S
C371 C369 1.327 . S
C371 C387 1.429 . S
C371 H393 0.950 . S
C372 H368 0.949 . S
C372 C380 1.574 . S
C372 C388 1.368 . S
H373 C381 0.950 . S
H374 C379 0.950 . S
H375 C380 0.949 . S
H376 C382 0.950 . S
H377 C383 0.950 . S
H378 C384 0.949 . S
C379 H374 0.950 . S
C379 C381 1.327 . S
C379 C385 1.429 . S
C380 C372 1.574 . S
C380 H375 0.949 . S
C380 C386 1.368 . S
C381 C365 1.349 . S
C381 H373 0.950 . S
C381 C379 1.327 . S
C382 C370 1.349 . S
C382 H376 0.950 . S
C382 C383 1.327 . S
C383 H377 0.950 . S
C383 C382 1.327 . S
C383 C387 1.429 . S
C384 C367 1.574 . S
C384 H378 0.949 . S
C384 C388 1.368 . S
C385 C366 1.429 . S
C385 C379 1.429 . S
C385 C386 1.523 . S
C386 C367 1.368 . S
C386 C380 1.368 . S
C386 C385 1.523 . S
C387 C371 1.429 . S
C387 C383 1.429 . S
C387 C388 1.523 . S
C388 C372 1.368 . S
C388 C384 1.368 . S
C388 C387 1.523 . S
H389 C364 0.950 . S
H390 C366 0.950 . S
H391 C367 0.949 . S
H392 C369 0.950 . S
H393 C371 0.950 . S
C394 C395 1.349 . S
C394 C396 1.327 . S
C394 H419 0.950 . S
C395 C394 1.349 . S
C395 C411 1.349 . S
C396 C394 1.327 . S
C396 C415 1.429 . S
C396 H420 0.950 . S
C397 C414 1.574 . S
C397 C416 1.368 . S
C397 H421 0.949 . S
H398 C402 0.949 . S
C399 C400 1.349 . S
C399 C401 1.327 . S
C399 H422 0.950 . S
C400 C399 1.349 . S
C400 C412 1.349 . S
C401 C399 1.327 . S
C401 C417 1.429 . S
C401 H423 0.950 . S
C402 H398 0.949 . S
C402 C410 1.574 . S
C402 C418 1.368 . S
H403 C411 0.950 . S
H404 C409 0.950 . S
H405 C410 0.949 . S
H406 C412 0.950 . S
H407 C413 0.950 . S
H408 C414 0.949 . S
C409 H404 0.950 . S
C409 C411 1.327 . S
C409 C415 1.429 . S
C410 C402 1.574 . S
C410 H405 0.949 . S
C410 C416 1.368 . S
C411 C395 1.349 . S
C411 H403 0.950 . S
C411 C409 1.327 . S
C412 C400 1.349 . S
C412 H406 0.950 . S
C412 C413 1.327 . S
C413 H407 0.950 . S
C413 C412 1.327 . S
C413 C417 1.429 . S
C414 C397 1.574 . S
C414 H408 0.949 . S
C414 C418 1.368 . S
C415 C396 1.429 . S
C415 C409 1.429 . S
C415 C416 1.523 . S
C416 C397 1.368 . S
C416 C410 1.368 . S
C416 C415 1.523 . S
C417 C401 1.429 . S
C417 C413 1.429 . S
C417 C418 1.523 . S
C418 C402 1.368 . S
C418 C414 1.368 . S
C418 C417 1.523 . S
H419 C394 0.950 . S
H420 C396 0.950 . S
H421 C397 0.949 . S
H422 C399 0.950 . S
H423 C401 0.950 . S
C424 C425 1.349 . S
C424 C426 1.327 . S
C424 H449 0.950 . S
C425 C424 1.349 . S
C425 C441 1.349 . S
C426 C424 1.327 . S
C426 C445 1.429 . S
C426 H450 0.950 . S
C427 C444 1.574 . S
C427 C446 1.368 . S
C427 H451 0.949 . S
H428 C432 0.949 . S
C429 C430 1.349 . S
C429 C431 1.327 . S
C429 H452 0.950 . S
C430 C429 1.349 . S
C430 C442 1.349 . S
C431 C429 1.327 . S
C431 C447 1.429 . S
C431 H453 0.950 . S
C432 H428 0.949 . S
C432 C440 1.574 . S
C432 C448 1.368 . S
H433 C441 0.950 . S
H434 C439 0.950 . S
H435 C440 0.949 . S
H436 C442 0.950 . S
H437 C443 0.950 . S
H438 C444 0.949 . S
C439 H434 0.950 . S
C439 C441 1.327 . S
C439 C445 1.429 . S
C440 C432 1.574 . S
C440 H435 0.949 . S
C440 C446 1.368 . S
C441 C425 1.349 . S
C441 H433 0.950 . S
C441 C439 1.327 . S
C442 C430 1.349 . S
C442 H436 0.950 . S
C442 C443 1.327 . S
C443 H437 0.950 . S
C443 C442 1.327 . S
C443 C447 1.429 . S
C444 C427 1.574 . S
C444 H438 0.949 . S
C444 C448 1.368 . S
C445 C426 1.429 . S
C445 C439 1.429 . S
C445 C446 1.523 . S
C446 C427 1.368 . S
C446 C440 1.368 . S
C446 C445 1.523 . S
C447 C431 1.429 . S
C447 C443 1.429 . S
C447 C448 1.523 . S
C448 C432 1.368 . S
C448 C444 1.368 . S
C448 C447 1.523 . S
H449 C424 0.950 . S
H450 C426 0.950 . S
H451 C427 0.949 . S
H452 C429 0.950 . S
H453 C431 0.950 . S
C454 C455 1.349 . S
C454 C456 1.327 . S
C454 H479 0.950 . S
C455 C454 1.349 . S
C455 C471 1.349 . S
C456 C454 1.327 . S
C456 C475 1.429 . S
C456 H480 0.950 . S
C457 C474 1.574 . S
C457 C476 1.368 . S
C457 H481 0.949 . S
H458 C462 0.949 . S
C459 C460 1.349 . S
C459 C461 1.327 . S
C459 H482 0.950 . S
C460 C459 1.349 . S
C460 C472 1.349 . S
C461 C459 1.327 . S
C461 C477 1.429 . S
C461 H483 0.950 . S
C462 H458 0.949 . S
C462 C470 1.574 . S
C462 C478 1.368 . S
H463 C471 0.950 . S
H464 C469 0.950 . S
H465 C470 0.949 . S
H466 C472 0.950 1_554 S
H467 C473 0.950 . S
H468 C474 0.949 . S
C469 H464 0.950 . S
C469 C471 1.327 . S
C469 C475 1.429 . S
C470 C462 1.574 . S
C470 H465 0.949 . S
C470 C476 1.368 . S
C471 C455 1.349 . S
C471 H463 0.950 . S
C471 C469 1.327 . S
C472 C460 1.349 . S
C472 H466 0.950 1_556 S
C472 C473 1.327 . S
C473 H467 0.950 . S
C473 C472 1.327 . S
C473 C477 1.429 . S
C474 C457 1.574 . S
C474 H468 0.949 . S
C474 C478 1.368 . S
C475 C456 1.429 . S
C475 C469 1.429 . S
C475 C476 1.523 . S
C476 C457 1.368 . S
C476 C470 1.368 . S
C476 C475 1.523 . S
C477 C461 1.429 . S
C477 C473 1.429 . S
C477 C478 1.523 . S
C478 C462 1.368 . S
C478 C474 1.368 . S
C478 C477 1.523 . S
H479 C454 0.950 . S
H480 C456 0.950 . S
H481 C457 0.949 . S
H482 C459 0.950 . S
H483 C461 0.950 . S
C484 C485 1.349 . S
C484 C486 1.327 . S
C484 H509 0.950 . S
C485 C484 1.349 . S
C485 C501 1.349 . S
C486 C484 1.327 . S
C486 C505 1.429 . S
C486 H510 0.950 . S
C487 C504 1.574 . S
C487 C506 1.368 . S
C487 H511 0.949 . S
H488 C492 0.949 . S
C489 C490 1.349 . S
C489 C491 1.327 . S
C489 H512 0.950 . S
C490 C489 1.349 . S
C490 C502 1.349 . S
C491 C489 1.327 . S
C491 C507 1.429 . S
C491 H513 0.950 . S
C492 H488 0.949 . S
C492 C500 1.574 . S
C492 C508 1.368 . S
H493 C501 0.950 . S
H494 C499 0.950 . S
H495 C500 0.949 . S
H496 C502 0.978 . S
H497 C503 0.950 . S
H498 C504 0.949 . S
C499 H494 0.950 . S
C499 C501 1.327 . S
C499 C505 1.429 . S
C500 C492 1.574 . S
C500 H495 0.949 . S
C500 C506 1.368 . S
C501 C485 1.349 . S
C501 H493 0.950 . S
C501 C499 1.327 . S
C502 C490 1.349 . S
C502 H496 0.978 . S
C502 C503 1.327 . S
C503 H497 0.950 . S
C503 C502 1.327 . S
C503 C507 1.429 . S
C504 C487 1.574 . S
C504 H498 0.949 . S
C504 C508 1.368 . S
C505 C486 1.429 . S
C505 C499 1.429 . S
C505 C506 1.523 . S
C506 C487 1.368 . S
C506 C500 1.368 . S
C506 C505 1.523 . S
C507 C491 1.429 . S
C507 C503 1.429 . S
C507 C508 1.523 . S
C508 C492 1.368 . S
C508 C504 1.368 . S
C508 C507 1.523 . S
H509 C484 0.950 . S
H510 C486 0.950 . S
H511 C487 0.949 . S
H512 C489 0.950 . S
H513 C491 0.950 . S
C514 C515 1.349 . S
C514 C516 1.327 . S
C514 H539 0.950 . S
C515 C514 1.349 . S
C515 C531 1.349 . S
C516 C514 1.327 . S
C516 C535 1.429 . S
C516 H540 0.950 . S
C517 C534 1.574 . S
C517 C536 1.368 . S
C517 H541 0.949 . S
H518 C522 0.949 . S
C519 C520 1.349 . S
C519 C521 1.327 . S
C519 H542 0.950 . S
C520 C519 1.349 . S
C520 C532 1.349 . S
C521 C519 1.327 . S
C521 C537 1.429 . S
C521 H543 0.950 . S
C522 H518 0.949 . S
C522 C530 1.574 . S
C522 C538 1.368 . S
H523 C531 0.950 . S
H524 C529 0.950 . S
H525 C530 0.949 . S
H526 C532 0.950 . S
H527 C533 0.950 . S
H528 C534 0.949 . S
C529 H524 0.950 . S
C529 C531 1.327 . S
C529 C535 1.429 . S
C530 C522 1.574 . S
C530 H525 0.949 . S
C530 C536 1.368 . S
C531 C515 1.349 . S
C531 H523 0.950 . S
C531 C529 1.327 . S
C532 C520 1.349 . S
C532 H526 0.950 . S
C532 C533 1.327 . S
C533 H527 0.950 . S
C533 C532 1.327 . S
C533 C537 1.429 . S
C534 C517 1.574 . S
C534 H528 0.949 . S
C534 C538 1.368 . S
C535 C516 1.429 . S
C535 C529 1.429 . S
C535 C536 1.523 . S
C536 C517 1.368 . S
C536 C530 1.368 . S
C536 C535 1.523 . S
C537 C521 1.429 . S
C537 C533 1.429 . S
C537 C538 1.523 . S
C538 C522 1.368 . S
C538 C534 1.368 . S
C538 C537 1.523 . S
H539 C514 0.950 . S
H540 C516 0.950 . S
H541 C517 0.949 . S
H542 C519 0.950 . S
H543 C521 0.950 . S
C544 C545 1.349 . S
C544 C546 1.327 . S
C544 H569 0.950 . S
C545 C544 1.349 . S
C545 C561 1.349 . S
C546 C544 1.327 . S
C546 C565 1.429 . S
C546 H570 0.950 . S
C547 C564 1.574 . S
C547 C566 1.368 . S
C547 H571 0.949 . S
H548 C552 0.949 . S
C549 C550 1.349 . S
C549 C551 1.327 . S
C549 H572 0.950 . S
C550 C549 1.349 . S
C550 C562 1.348 1_655 S
C551 C549 1.327 . S
C551 C567 1.429 . S
C551 H573 0.950 . S
C552 H548 0.949 . S
C552 C560 1.574 . S
C552 C568 1.368 . S
H553 C561 0.950 . S
H554 C559 0.950 . S
H555 C560 0.949 . S
H556 C562 0.956 . S
H557 C563 0.950 . S
H558 C564 0.949 . S
C559 H554 0.950 . S
C559 C561 1.327 . S
C559 C565 1.429 . S
C560 C552 1.574 . S
C560 H555 0.949 . S
C560 C566 1.368 . S
C561 C545 1.349 . S
C561 H553 0.950 . S
C561 C559 1.327 . S
C562 C550 1.348 1_455 S
C562 H556 0.956 . S
C562 C563 1.322 1_455 S
C563 H557 0.950 . S
C563 C562 1.322 1_655 S
C563 C567 1.429 . S
C564 C547 1.574 . S
C564 H558 0.949 . S
C564 C568 1.368 . S
C565 C546 1.429 . S
C565 C559 1.429 . S
C565 C566 1.523 . S
C566 C547 1.368 . S
C566 C560 1.368 . S
C566 C565 1.523 . S
C567 C551 1.429 . S
C567 C563 1.429 . S
C567 C568 1.523 . S
C568 C552 1.368 . S
C568 C564 1.368 . S
C568 C567 1.523 . S
H569 C544 0.950 . S
H570 C546 0.950 . S
H571 C547 0.949 . S
H572 C549 0.950 . S
H573 C551 0.950 . S
C574 C575 1.349 . S
C574 C576 1.327 . S
C574 H599 0.950 . S
C575 C574 1.349 . S
C575 C591 1.349 . S
C576 C574 1.327 . S
C576 C595 1.429 . S
C576 H600 0.950 . S
C577 C594 1.574 . S
C577 C596 1.368 . S
C577 H601 0.949 . S
H578 C582 0.949 . S
C579 C580 1.349 . S
C579 C581 1.327 . S
C579 H602 0.950 . S
C580 C579 1.349 . S
C580 C592 1.349 . S
C581 C579 1.327 . S
C581 C597 1.429 . S
C581 H603 0.950 . S
C582 H578 0.949 . S
C582 C590 1.574 . S
C582 C598 1.368 . S
H583 C591 0.950 . S
H584 C589 0.950 . S
H585 C590 0.949 . S
H586 C592 0.950 . S
H587 C593 0.950 . S
H588 C594 0.949 . S
C589 H584 0.950 . S
C589 C591 1.327 . S
C589 C595 1.429 . S
C590 C582 1.574 . S
C590 H585 0.949 . S
C590 C596 1.368 . S
C591 C575 1.349 . S
C591 H583 0.950 . S
C591 C589 1.327 . S
C592 C580 1.349 . S
C592 H586 0.950 . S
C592 C593 1.327 . S
C593 H587 0.950 . S
C593 C592 1.327 . S
C593 C597 1.429 . S
C594 C577 1.574 . S
C594 H588 0.949 . S
C594 C598 1.368 . S
C595 C576 1.429 . S
C595 C589 1.429 . S
C595 C596 1.523 . S
C596 C577 1.368 . S
C596 C590 1.368 . S
C596 C595 1.523 . S
C597 C581 1.429 . S
C597 C593 1.429 . S
C597 C598 1.523 . S
C598 C582 1.368 . S
C598 C594 1.368 . S
C598 C597 1.523 . S
H599 C574 0.950 . S
H600 C576 0.950 . S
H601 C577 0.949 . S
H602 C579 0.950 . S
H603 C581 0.950 . S
C604 C605 1.349 . S
C604 C606 1.327 . S
C604 H629 0.950 . S
C605 C604 1.349 . S
C605 C621 1.349 . S
C606 C604 1.327 . S
C606 C625 1.429 . S
C606 H630 0.950 . S
C607 C624 1.574 . S
C607 C626 1.368 . S
C607 H631 0.949 . S
H608 C612 0.949 . S
C609 C610 1.349 . S
C609 C611 1.327 . S
C609 H632 0.950 . S
C610 C609 1.349 . S
C610 C622 1.349 . S
C611 C609 1.327 . S
C611 C627 1.429 . S
C611 H633 0.950 . S
C612 H608 0.949 . S
C612 C620 1.574 . S
C612 C628 1.368 . S
H613 C621 0.950 . S
H614 C619 0.950 . S
H615 C620 0.949 . S
H616 C622 0.950 . S
H617 C623 0.950 . S
H618 C624 0.949 . S
C619 H614 0.950 . S
C619 C621 1.327 . S
C619 C625 1.429 . S
C620 C612 1.574 . S
C620 H615 0.949 . S
C620 C626 1.368 . S
C621 C605 1.349 . S
C621 H613 0.950 . S
C621 C619 1.327 . S
C622 C610 1.349 . S
C622 H616 0.950 . S
C622 C623 1.327 . S
C623 H617 0.950 . S
C623 C622 1.327 . S
C623 C627 1.429 . S
C624 C607 1.574 . S
C624 H618 0.949 . S
C624 C628 1.368 . S
C625 C606 1.429 . S
C625 C619 1.429 . S
C625 C626 1.523 . S
C626 C607 1.368 . S
C626 C620 1.368 . S
C626 C625 1.523 . S
C627 C611 1.429 . S
C627 C623 1.429 . S
C627 C628 1.523 . S
C628 C612 1.368 . S
C628 C624 1.368 . S
C628 C627 1.523 . S
H629 C604 0.950 . S
H630 C606 0.950 . S
H631 C607 0.949 . S
H632 C609 0.950 . S
H633 C611 0.950 . S
C634 C635 1.349 . S
C634 C636 1.327 . S
C634 H659 0.950 . S
C635 C634 1.349 . S
C635 C651 1.349 . S
C636 C634 1.327 . S
C636 C655 1.429 . S
C636 H660 0.950 . S
C637 C654 1.574 . S
C637 C656 1.368 . S
C637 H661 0.949 . S
H638 C642 0.949 . S
C639 C640 1.349 . S
C639 C641 1.327 . S
C639 H662 0.950 . S
C640 C639 1.349 . S
C640 C652 1.349 . S
C641 C639 1.327 . S
C641 C657 1.429 . S
C641 H663 0.950 . S
C642 H638 0.949 . S
C642 C650 1.574 . S
C642 C658 1.368 . S
H643 C651 0.950 . S
H644 C649 0.950 . S
H645 C650 0.949 . S
H646 C652 0.950 . S
H647 C653 0.950 . S
H648 C654 0.949 . S
C649 H644 0.950 . S
C649 C651 1.327 . S
C649 C655 1.429 . S
C650 C642 1.574 . S
C650 H645 0.949 . S
C650 C656 1.368 . S
C651 C635 1.349 . S
C651 H643 0.950 . S
C651 C649 1.327 . S
C652 C640 1.349 . S
C652 H646 0.950 . S
C652 C653 1.327 . S
C653 H647 0.950 . S
C653 C652 1.327 . S
C653 C657 1.429 . S
C654 C637 1.574 . S
C654 H648 0.949 . S
C654 C658 1.368 . S
C655 C636 1.429 . S
C655 C649 1.429 . S
C655 C656 1.523 . S
C656 C637 1.368 . S
C656 C650 1.368 . S
C656 C655 1.523 . S
C657 C641 1.429 . S
C657 C653 1.429 . S
C657 C658 1.523 . S
C658 C642 1.368 . S
C658 C654 1.368 . S
C658 C657 1.523 . S
H659 C634 0.950 . S
H660 C636 0.950 . S
H661 C637 0.949 . S
H662 C639 0.950 . S
H663 C641 0.950 . S
C664 C665 1.349 . S
C664 C666 1.327 . S
C664 H689 0.950 . S
C665 C664 1.349 . S
C665 C681 1.349 . S
C666 C664 1.327 . S
C666 C685 1.429 . S
C666 H690 0.950 . S
C667 C684 1.574 . S
C667 C686 1.368 . S
C667 H691 0.949 . S
H668 C672 0.949 . S
C669 C670 1.349 . S
C669 C671 1.327 . S
C669 H692 0.950 1_556 S
C670 C669 1.349 . S
C670 C682 1.349 . S
C671 C669 1.327 . S
C671 C687 1.429 . S
C671 H693 0.950 . S
C672 H668 0.949 . S
C672 C680 1.574 . S
C672 C688 1.368 . S
H673 C681 0.950 . S
H674 C679 0.950 . S
H675 C680 0.949 . S
H676 C682 0.950 . S
H677 C683 0.950 . S
H678 C684 0.949 . S
C679 H674 0.950 . S
C679 C681 1.327 . S
C679 C685 1.429 . S
C680 C672 1.574 . S
C680 H675 0.949 . S
C680 C686 1.368 . S
C681 C665 1.349 . S
C681 H673 0.950 . S
C681 C679 1.327 . S
C682 C670 1.349 . S
C682 H676 0.950 . S
C682 C683 1.327 . S
C683 H677 0.950 . S
C683 C682 1.327 . S
C683 C687 1.429 . S
C684 C667 1.574 . S
C684 H678 0.949 . S
C684 C688 1.368 . S
C685 C666 1.429 . S
C685 C679 1.429 . S
C685 C686 1.523 . S
C686 C667 1.368 . S
C686 C680 1.368 . S
C686 C685 1.523 . S
C687 C671 1.429 . S
C687 C683 1.429 . S
C687 C688 1.523 . S
C688 C672 1.368 . S
C688 C684 1.368 . S
C688 C687 1.523 . S
H689 C664 0.950 . S
H690 C666 0.950 . S
H691 C667 0.949 . S
H692 C669 0.950 1_554 S
H693 C671 0.950 . S
C694 C695 1.349 . S
C694 C696 1.327 . S
C694 H719 0.950 . S
C695 C694 1.349 . S
C695 C711 1.349 . S
C696 C694 1.327 . S
C696 C715 1.429 . S
C696 H720 0.950 . S
C697 C714 1.574 . S
C697 C716 1.368 . S
C697 H721 0.949 . S
H698 C702 0.949 . S
C699 C700 1.349 . S
C699 C701 1.327 . S
C699 H722 0.950 . S
C700 C699 1.349 . S
C700 C712 1.349 . S
C701 C699 1.327 . S
C701 C717 1.429 . S
C701 H723 0.950 . S
C702 H698 0.949 . S
C702 C710 1.574 . S
C702 C718 1.368 . S
H703 C711 0.950 . S
H704 C709 0.950 . S
H705 C710 0.949 . S
H706 C712 0.950 . S
H707 C713 0.950 . S
H708 C714 0.949 . S
C709 H704 0.950 . S
C709 C711 1.327 . S
C709 C715 1.429 . S
C710 C702 1.574 . S
C710 H705 0.949 . S
C710 C716 1.368 . S
C711 C695 1.349 . S
C711 H703 0.950 . S
C711 C709 1.327 . S
C712 C700 1.349 . S
C712 H706 0.950 . S
C712 C713 1.327 . S
C713 H707 0.950 . S
C713 C712 1.327 . S
C713 C717 1.429 . S
C714 C697 1.574 . S
C714 H708 0.949 . S
C714 C718 1.368 . S
C715 C696 1.429 . S
C715 C709 1.429 . S
C715 C716 1.523 . S
C716 C697 1.368 . S
C716 C710 1.368 . S
C716 C715 1.523 . S
C717 C701 1.429 . S
C717 C713 1.429 . S
C717 C718 1.523 . S
C718 C702 1.368 . S
C718 C714 1.368 . S
C718 C717 1.523 . S
H719 C694 0.950 . S
H720 C696 0.950 . S
H721 C697 0.949 . S
H722 C699 0.950 . S
H723 C701 0.950 . S
C724 C725 1.349 . S
C724 C726 1.327 . S
C724 H749 0.950 . S
C725 C724 1.349 . S
C725 C741 1.349 . S
C726 C724 1.327 . S
C726 C745 1.429 . S
C726 H750 0.950 . S
C727 C744 1.574 . S
C727 C746 1.368 . S
C727 H751 0.949 . S
H728 C732 0.949 . S
C729 C730 1.349 . S
C729 C731 1.327 . S
C729 H752 0.950 . S
C730 C729 1.349 . S
C730 C742 1.349 . S
C731 C729 1.327 . S
C731 C747 1.429 . S
C731 H753 0.950 . S
C732 H728 0.949 . S
C732 C740 1.574 . S
C732 C748 1.368 . S
H733 C741 0.950 . S
H734 C739 0.950 . S
H735 C740 0.949 . S
H736 C742 0.950 . S
H737 C743 0.950 . S
H738 C744 0.949 . S
C739 H734 0.950 . S
C739 C741 1.327 . S
C739 C745 1.429 . S
C740 C732 1.574 . S
C740 H735 0.949 . S
C740 C746 1.368 . S
C741 C725 1.349 . S
C741 H733 0.950 . S
C741 C739 1.327 . S
C742 C730 1.349 . S
C742 H736 0.950 . S
C742 C743 1.327 . S
C743 H737 0.950 . S
C743 C742 1.327 . S
C743 C747 1.429 . S
C744 C727 1.574 . S
C744 H738 0.949 . S
C744 C748 1.368 . S
C745 C726 1.429 . S
C745 C739 1.429 . S
C745 C746 1.523 . S
C746 C727 1.368 . S
C746 C740 1.368 . S
C746 C745 1.523 . S
C747 C731 1.429 . S
C747 C743 1.429 . S
C747 C748 1.523 . S
C748 C732 1.368 . S
C748 C744 1.368 . S
C748 C747 1.523 . S
H749 C724 0.950 . S
H750 C726 0.950 . S
H751 C727 0.949 . S
H752 C729 0.950 . S
H753 C731 0.950 . S
C754 C755 1.349 . S
C754 C756 1.327 . S
C754 H779 0.950 . S
C755 C754 1.349 . S
C755 C771 1.349 . S
C756 C754 1.327 . S
C756 C775 1.429 . S
C756 H780 0.950 . S
C757 C774 1.574 . S
C757 C776 1.368 . S
C757 H781 0.949 . S
H758 C762 0.949 . S
C759 C760 1.349 . S
C759 C761 1.327 . S
C759 H782 0.950 . S
C760 C759 1.349 . S
C760 C772 1.349 . S
C761 C759 1.327 . S
C761 C777 1.429 . S
C761 H783 0.950 . S
C762 H758 0.949 . S
C762 C770 1.574 . S
C762 C778 1.368 . S
H763 C771 0.950 . S
H764 C769 0.950 . S
H765 C770 0.949 . S
H766 C772 0.950 . S
H767 C773 0.950 . S
H768 C774 0.949 . S
C769 H764 0.950 . S
C769 C771 1.327 . S
C769 C775 1.429 . S
C770 C762 1.574 . S
C770 H765 0.949 . S
C770 C776 1.368 . S
C771 C755 1.349 . S
C771 H763 0.950 . S
C771 C769 1.327 . S
C772 C760 1.349 . S
C772 H766 0.950 . S
C772 C773 1.327 . S
C773 H767 0.950 . S
C773 C772 1.327 . S
C773 C777 1.429 . S
C774 C757 1.574 . S
C774 H768 0.949 . S
C774 C778 1.368 . S
C775 C756 1.429 . S
C775 C769 1.429 . S
C775 C776 1.523 . S
C776 C757 1.368 . S
C776 C770 1.368 . S
C776 C775 1.523 . S
C777 C761 1.429 . S
C777 C773 1.429 . S
C777 C778 1.523 . S
C778 C762 1.368 . S
C778 C774 1.368 . S
C778 C777 1.523 . S
H779 C754 0.950 . S
H780 C756 0.950 . S
H781 C757 0.949 . S
H782 C759 0.950 . S
H783 C761 0.950 . S
C784 C785 1.349 . S
C784 C786 1.327 . S
C784 H809 0.950 . S
C785 C784 1.349 . S
C785 C801 1.349 . S
C786 C784 1.327 . S
C786 C805 1.429 . S
C786 H810 0.950 . S
C787 C804 1.574 . S
C787 C806 1.368 . S
C787 H811 0.949 . S
H788 C792 0.949 . S
C789 C790 1.349 . S
C789 C791 1.327 . S
C789 H812 0.950 . S
C790 C789 1.349 . S
C790 C802 1.349 . S
C791 C789 1.327 . S
C791 C807 1.429 . S
C791 H813 0.950 . S
C792 H788 0.949 . S
C792 C800 1.574 . S
C792 C808 1.368 . S
H793 C801 0.950 . S
H794 C799 0.950 . S
H795 C800 0.949 . S
H796 C802 0.950 . S
H797 C803 0.950 . S
H798 C804 0.949 . S
C799 H794 0.950 . S
C799 C801 1.327 . S
C799 C805 1.429 . S
C800 C792 1.574 . S
C800 H795 0.949 . S
C800 C806 1.368 . S
C801 C785 1.349 . S
C801 H793 0.950 . S
C801 C799 1.327 . S
C802 C790 1.349 . S
C802 H796 0.950 . S
C802 C803 1.327 . S
C803 H797 0.950 . S
C803 C802 1.327 . S
C803 C807 1.429 . S
C804 C787 1.574 . S
C804 H798 0.949 . S
C804 C808 1.368 . S
C805 C786 1.429 . S
C805 C799 1.429 . S
C805 C806 1.523 . S
C806 C787 1.368 . S
C806 C800 1.368 . S
C806 C805 1.523 . S
C807 C791 1.429 . S
C807 C803 1.429 . S
C807 C808 1.523 . S
C808 C792 1.368 . S
C808 C804 1.368 . S
C808 C807 1.523 . S
H809 C784 0.950 . S
H810 C786 0.950 . S
H811 C787 0.949 . S
H812 C789 0.950 . S
H813 C791 0.950 . S
C814 C815 1.349 . S
C814 C816 1.327 . S
C814 H839 0.950 . S
C815 C814 1.349 . S
C815 C831 1.349 . S
C816 C814 1.327 . S
C816 C835 1.429 . S
C816 H840 0.950 . S
C817 C834 1.574 . S
C817 C836 1.368 . S
C817 H841 0.949 . S
H818 C822 0.949 . S
C819 C820 1.349 . S
C819 C821 1.327 . S
C819 H842 0.950 . S
C820 C819 1.349 . S
C820 C832 1.349 . S
C821 C819 1.327 . S
C821 C837 1.429 . S
C821 H843 0.950 . S
C822 H818 0.949 . S
C822 C830 1.574 . S
C822 C838 1.368 . S
H823 C831 0.950 . S
H824 C829 0.950 . S
H825 C830 0.949 . S
H826 C832 0.950 . S
H827 C833 0.950 . S
H828 C834 0.949 . S
C829 H824 0.950 . S
C829 C831 1.327 . S
C829 C835 1.429 . S
C830 C822 1.574 . S
C830 H825 0.949 . S
C830 C836 1.368 . S
C831 C815 1.349 . S
C831 H823 0.950 . S
C831 C829 1.327 . S
C832 C820 1.349 . S
C832 H826 0.950 . S
C832 C833 1.327 . S
C833 H827 0.950 . S
C833 C832 1.327 . S
C833 C837 1.429 . S
C834 C817 1.574 . S
C834 H828 0.949 . S
C834 C838 1.368 . S
C835 C816 1.429 . S
C835 C829 1.429 . S
C835 C836 1.523 . S
C836 C817 1.368 . S
C836 C830 1.368 . S
C836 C835 1.523 . S
C837 C821 1.429 . S
C837 C833 1.429 . S
C837 C838 1.523 . S
C838 C822 1.368 . S
C838 C834 1.368 . S
C838 C837 1.523 . S
H839 C814 0.950 . S
H840 C816 0.950 . S
H841 C817 0.949 . S
H842 C819 0.950 . S
H843 C821 0.950 . S
C844 C845 1.349 . S
C844 C846 1.327 . S
C844 H869 0.950 . S
C845 C844 1.349 . S
C845 C861 1.349 . S
C846 C844 1.327 . S
C846 C865 1.429 . S
C846 H870 0.950 . S
C847 C864 1.574 . S
C847 C866 1.368 . S
C847 H871 0.949 . S
H848 C852 0.949 . S
C849 C850 1.349 . S
C849 C851 1.327 . S
C849 H872 0.950 . S
C850 C849 1.349 . S
C850 C862 1.349 . S
C851 C849 1.327 . S
C851 C867 1.429 . S
C851 H873 0.950 . S
C852 H848 0.949 . S
C852 C860 1.574 . S
C852 C868 1.368 . S
H853 C861 0.950 . S
H854 C859 0.950 . S
H855 C860 0.949 . S
H856 C862 0.950 . S
H857 C863 0.950 . S
H858 C864 0.949 . S
C859 H854 0.950 . S
C859 C861 1.327 . S
C859 C865 1.429 . S
C860 C852 1.574 . S
C860 H855 0.949 . S
C860 C866 1.368 . S
C861 C845 1.349 . S
C861 H853 0.950 . S
C861 C859 1.327 . S
C862 C850 1.349 . S
C862 H856 0.950 . S
C862 C863 1.327 . S
C863 H857 0.950 . S
C863 C862 1.327 . S
C863 C867 1.429 . S
C864 C847 1.574 . S
C864 H858 0.949 . S
C864 C868 1.368 . S
C865 C846 1.429 . S
C865 C859 1.429 . S
C865 C866 1.523 . S
C866 C847 1.368 . S
C866 C860 1.368 . S
C866 C865 1.523 . S
C867 C851 1.429 . S
C867 C863 1.429 . S
C867 C868 1.523 . S
C868 C852 1.368 . S
C868 C864 1.368 . S
C868 C867 1.523 . S
H869 C844 0.950 . S
H870 C846 0.950 . S
H871 C847 0.949 . S
H872 C849 0.950 . S
H873 C851 0.950 . S
C874 C875 1.349 . S
C874 C876 1.327 . S
C874 H899 0.950 . S
C875 C874 1.349 . S
C875 C891 1.349 . S
C876 C874 1.327 . S
C876 C895 1.429 . S
C876 H900 0.950 . S
C877 C894 1.574 . S
C877 C896 1.368 . S
C877 H901 0.949 . S
H878 C882 0.949 . S
C879 C880 1.349 . S
C879 C881 1.327 . S
C879 H902 0.950 . S
C880 C879 1.349 . S
C880 C892 1.349 . S
C881 C879 1.327 . S
C881 C897 1.429 . S
C881 H903 0.950 . S
C882 H878 0.949 . S
C882 C890 1.574 . S
C882 C898 1.368 . S
H883 C891 0.950 . S
H884 C889 0.950 . S
H885 C890 0.949 . S
H886 C892 0.950 . S
H887 C893 0.950 . S
H888 C894 0.949 . S
C889 H884 0.950 . S
C889 C891 1.327 . S
C889 C895 1.429 . S
C890 C882 1.574 . S
C890 H885 0.949 . S
C890 C896 1.368 . S
C891 C875 1.349 . S
C891 H883 0.950 . S
C891 C889 1.327 . S
C892 C880 1.349 . S
C892 H886 0.950 . S
C892 C893 1.327 . S
C893 H887 0.950 . S
C893 C892 1.327 . S
C893 C897 1.429 . S
C894 C877 1.574 . S
C894 H888 0.949 . S
C894 C898 1.368 . S
C895 C876 1.429 . S
C895 C889 1.429 . S
C895 C896 1.523 . S
C896 C877 1.368 . S
C896 C890 1.368 . S
C896 C895 1.523 . S
C897 C881 1.429 . S
C897 C893 1.429 . S
C897 C898 1.523 . S
C898 C882 1.368 . S
C898 C894 1.368 . S
C898 C897 1.523 . S
H899 C874 0.950 . S
H900 C876 0.950 . S
H901 C877 0.949 . S
H902 C879 0.950 . S
H903 C881 0.950 . S
C185 N1 1.422 . S
C190 C123 1.425 . S
C215 N18 1.624 . S
C220 C126 1.588 . S
C250 C162 1.225 . S
C245 N28 1.243 . S
C275 N40 1.808 . S
C280 C182 1.815 . S
C310 C136 2.129 . S
C305 N5 2.130 . S
C340 C113 1.644 . S
C335 N14 1.634 . S
C370 C166 1.557 . S
C365 N31 1.639 . S
C400 C146 1.001 . S
C395 N41 1.042 . S
C425 N2 1.224 . S
C430 C176 1.172 . S
C460 C142 1.743 1_556 S
C455 N27 1.736 . S
C485 N44 1.757 . S
C490 C108 1.725 . S
C515 N15 1.143 . S
C520 C156 1.124 . S
C550 C122 1.872 1_655 S
C545 N57 1.888 . S
C575 N70 1.117 . S
C580 C128 1.104 . S
C605 N79 1.549 . S
C610 C163 1.537 . S
C635 N93 1.571 . S
C640 C183 1.542 . S
C665 N54 1.612 . S
C670 C133 1.570 . S
C700 C116 2.126 . S
C695 N66 2.124 . S
C730 C168 0.982 . S
C725 N80 1.047 . S
C760 C148 1.331 . S
C755 N96 1.419 . S
C785 N53 1.270 . S
C790 C173 1.250 . S
C820 C143 1.493 . S
C815 N83 1.494 . S
C850 C106 1.837 . S
C845 N92 1.876 . S
C875 N67 1.205 . S
C880 C153 1.153 . S
