# Generated by pormake.
# Topology anh, (6,3)-cn, num edge types: 1
# Building blocks:
#     Node 0, Type 0, BuildingBlock: CUKXOW_clean_sbu_0, # of connection points: 6
#     Node 1, Type 0, BuildingBlock: CUKXOW_clean_sbu_0, # of connection points: 6
#     Node 2, Type 0, BuildingBlock: CUKXOW_clean_sbu_0, # of connection points: 6
#     Node 3, Type 1, BuildingBlock: CUQRIR_clean_linker_1, # of connection points: 3
#     Node 4, Type 1, BuildingBlock: CUQRIR_clean_linker_1, # of connection points: 3
#     Node 5, Type 1, BuildingBlock: CUQRIR_clean_linker_1, # of connection points: 3
#     Node 6, Type 1, BuildingBlock: CUQRIR_clean_linker_1, # of connection points: 3
#     Node 7, Type 1, BuildingBlock: CUQRIR_clean_linker_1, # of connection points: 3
#     Node 8, Type 1, BuildingBlock: CUQRIR_clean_linker_1, # of connection points: 3
#     Edge 9, Type (0, 1), BuildingBlock: MIFKUJ_clean_linker_0, # of connection points: 2
#     Edge 10, Type (0, 1), BuildingBlock: MIFKUJ_clean_linker_0, # of connection points: 2
#     Edge 11, Type (0, 1), BuildingBlock: MIFKUJ_clean_linker_0, # of connection points: 2
#     Edge 12, Type (0, 1), BuildingBlock: MIFKUJ_clean_linker_0, # of connection points: 2
#     Edge 13, Type (0, 1), BuildingBlock: MIFKUJ_clean_linker_0, # of connection points: 2
#     Edge 14, Type (0, 1), BuildingBlock: MIFKUJ_clean_linker_0, # of connection points: 2
#     Edge 15, Type (0, 1), BuildingBlock: MIFKUJ_clean_linker_0, # of connection points: 2
#     Edge 16, Type (0, 1), BuildingBlock: MIFKUJ_clean_linker_0, # of connection points: 2
#     Edge 17, Type (0, 1), BuildingBlock: MIFKUJ_clean_linker_0, # of connection points: 2
#     Edge 18, Type (0, 1), BuildingBlock: MIFKUJ_clean_linker_0, # of connection points: 2
#     Edge 19, Type (0, 1), BuildingBlock: MIFKUJ_clean_linker_0, # of connection points: 2
#     Edge 20, Type (0, 1), BuildingBlock: MIFKUJ_clean_linker_0, # of connection points: 2
#     Edge 21, Type (0, 1), BuildingBlock: MIFKUJ_clean_linker_0, # of connection points: 2
#     Edge 22, Type (0, 1), BuildingBlock: MIFKUJ_clean_linker_0, # of connection points: 2
#     Edge 23, Type (0, 1), BuildingBlock: MIFKUJ_clean_linker_0, # of connection points: 2
#     Edge 24, Type (0, 1), BuildingBlock: MIFKUJ_clean_linker_0, # of connection points: 2
#     Edge 25, Type (0, 1), BuildingBlock: MIFKUJ_clean_linker_0, # of connection points: 2
#     Edge 26, Type (0, 1), BuildingBlock: MIFKUJ_clean_linker_0, # of connection points: 2
# Relax obj value: 0.138
# Max RMSD: 0.198
# Mean RMSD: 0.166
data_MOF--net-anh--node1-CUKXOW_clean_sbu_0--node2-CUQRIR_clean_linker_1--edge1-MIFKUJ_clean_linker_0
_symmetry_space_group_name_H-M    P1
_symmetry_Int_Tables_number       1
_symmetry_cell_setting            triclinic
loop_
_symmetry_equiv_pos_as_xyz
'x, y, z'
_cell_length_a     35.706217
_cell_length_b     34.743444
_cell_length_c     60.51689
_cell_angle_alpha  91.276423
_cell_angle_beta   89.867551
_cell_angle_gamma 114.89717
loop_
_atom_site_label
_atom_site_type_symbol
_atom_site_fract_x
_atom_site_fract_y
_atom_site_fract_z
_atom_type_partial_charge
Tb0 Tb 0.03504 0.51386 0.14918 0.0
C1 C 0.99957 0.47523 0.19488 0.0
Tb2 Tb 0.97881 0.41803 0.1514 0.0
O3 O 0.98704 0.53717 0.14309 0.0
O4 O 0.97127 0.47395 0.14658 0.0
O5 O 0.0309 0.50517 0.18471 0.0
C6 C 0.91804 0.34267 0.15977 0.0
O7 O 0.97197 0.44163 0.18415 0.0
C8 C 0.05896 0.43731 0.14861 0.0
C9 C 1.00872 0.45792 0.10524 0.0
O10 O 0.94883 0.36397 0.17287 0.0
O11 O 0.92146 0.36355 0.14179 0.0
O12 O 0.02961 0.40142 0.14216 0.0
O13 O 0.04238 0.45849 0.15868 0.0
O14 O 0.97886 0.42717 0.11594 0.0
O15 O 0.03657 0.49224 0.11538 0.0
C16 C 0.10216 0.58698 0.14851 0.0
O17 O 0.09712 0.55299 0.13714 0.0
O18 O 0.06939 0.57981 0.16013 0.0
C19 C 0.95589 0.50015 0.14354 0.0
Tb20 Tb 0.54944 0.99972 0.50558 0.0
C21 C 0.58851 0.03391 0.45993 0.0
Tb22 Tb 0.63929 0.06455 0.50527 0.0
O23 O 0.52847 0.0471 0.49471 0.0
O24 O 0.58207 0.06521 0.51376 0.0
O25 O 0.55812 1.003 0.47012 0.0
C26 C 0.70841 0.13454 0.49929 0.0
O27 O 0.62085 0.06297 0.47061 0.0
C28 C 0.62838 0.98562 0.50851 0.0
C29 C 0.60011 0.02984 0.5509 0.0
O30 O 0.7033 0.09622 0.49409 0.0
O31 O 0.67491 0.13333 0.5082 0.0
O32 O 0.66019 0.01765 0.51676 0.0
O33 O 0.60677 0.99911 0.49731 0.0
O34 O 0.62994 0.06169 0.5408 0.0
O35 O 0.56837 1.00016 0.54003 0.0
C36 C 0.47983 0.92916 0.50879 0.0
O37 O 0.48479 0.96661 0.51578 0.0
O38 O 0.51392 0.93162 0.50013 0.0
C39 C 0.56042 0.07902 0.50287 0.0
Tb40 Tb 0.5471 0.60004 0.83992 0.0
C41 C 0.59927 0.59316 0.88116 0.0
Tb42 Tb 0.63789 0.6065 0.83275 0.0
O43 O 0.51514 0.52916 0.83739 0.0
O44 O 0.57734 0.56155 0.8349 0.0
O45 O 0.56628 0.598 0.87394 0.0
C46 C 0.69731 0.58138 0.82516 0.0
O47 O 0.62947 0.59346 0.86805 0.0
C48 C 0.63019 0.67852 0.83082 0.0
C49 C 0.58443 0.60881 0.79201 0.0
O50 O 0.70137 0.61389 0.83775 0.0
O51 O 0.66029 0.5637 0.81694 0.0
O52 O 0.66093 0.67261 0.82224 0.0
O53 O 0.60911 0.64675 0.8422 0.0
O54 O 0.61298 0.59722 0.79946 0.0
O55 O 0.55947 0.61807 0.80529 0.0
C56 C 0.48302 0.61829 0.84811 0.0
O57 O 0.48923 0.60178 0.8298 0.0
O58 O 0.51303 0.62473 0.86183 0.0
C59 C 0.54931 0.5248 0.83467 0.0
C60 C 0.50116 0.97964 0.19466 0.0
N61 N 0.52872 1.00508 0.20991 0.0
N62 N 0.4674 0.95078 0.20465 0.0
C63 C 0.5056 0.98487 0.17004 0.0
C64 C 0.47522 0.95953 0.22649 0.0
N65 N 0.51231 0.99285 0.2297 0.0
C66 C 0.44848 0.933 0.24466 0.0
H67 H 0.47491 0.974 0.16192 0.0
H68 H 0.52103 0.96531 0.16336 0.0
H69 H 0.52458 0.0185 0.16595 0.0
H70 H 0.4306 0.89967 0.2389 0.0
H71 H 0.4264 0.94627 0.24984 0.0
H72 H 0.46738 0.93333 0.25925 0.0
C73 C 0.5752 0.52783 0.52657 0.0
N74 N 0.57442 0.55721 0.54158 0.0
N75 N 0.57558 0.49372 0.53694 0.0
C76 C 0.57902 0.53385 0.50204 0.0
C77 C 0.57481 0.50332 0.55866 0.0
N78 N 0.57447 0.54184 0.56148 0.0
C79 C 0.57247 0.47418 0.57717 0.0
H80 H 0.54775 0.52436 0.49483 0.0
H81 H 0.59306 0.51395 0.4942 0.0
H82 H 0.59787 0.56768 0.49826 0.0
H83 H 0.60416 0.48154 0.58315 0.0
H84 H 0.55773 0.44044 0.57153 0.0
H85 H 0.55469 0.47894 0.59116 0.0
C86 C 0.05214 0.46774 0.83846 0.0
N87 N 0.07085 0.4658 0.85748 0.0
N88 N 1.01064 0.4464 0.84 0.0
C89 C 0.07403 0.49439 0.8192 0.0
C90 C 1.00506 0.43095 0.86071 0.0
N91 N 0.04164 0.44277 0.87134 0.0
C92 C 0.96379 0.41131 0.87192 0.0
H93 H 0.05535 0.48273 0.80384 0.0
H94 H 0.10471 0.49393 0.81696 0.0
H95 H 0.07899 0.52774 0.82251 0.0
H96 H 0.94005 0.38906 0.86041 0.0
H97 H 0.95422 0.43673 0.87698 0.0
H98 H 0.9654 0.394 0.88682 0.0
C99 C 0.07125 0.54799 0.46018 0.0
N100 N 0.04579 0.52337 0.44396 0.0
N101 N 0.10424 0.57996 0.45136 0.0
C102 C 0.0657 0.53889 0.48444 0.0
C103 C 0.09809 0.57392 0.42928 0.0
N104 N 0.06265 0.53934 0.42477 0.0
C105 C 0.12594 0.6029 0.41224 0.0
H106 H 0.04414 0.55154 0.49125 0.0
H107 H 0.09545 0.55421 0.49357 0.0
H108 H 0.0521 0.50418 0.4871 0.0
H109 H 0.14898 0.59092 0.40703 0.0
H110 H 0.14275 0.63558 0.41917 0.0
H111 H 0.10802 0.60376 0.39745 0.0
C112 C 0.59096 0.10036 0.81549 0.0
N113 N 0.59702 0.07297 0.80106 0.0
N114 N 0.59331 0.13534 0.80495 0.0
C115 C 0.58392 0.09376 0.83984 0.0
C116 C 0.60096 0.12842 0.78371 0.0
N117 N 0.60364 0.09086 0.78137 0.0
C118 C 0.60407 0.15762 0.76506 0.0
H119 H 0.55048 0.07491 0.84271 0.0
H120 H 0.59371 0.12459 0.84893 0.0
H121 H 0.60094 0.07603 0.84636 0.0
H122 H 0.63714 0.17702 0.76149 0.0
H123 H 0.58959 0.17945 0.76932 0.0
H124 H 0.58923 0.13905 0.74986 0.0
C125 C 0.51167 0.47779 0.1377 0.0
N126 N 0.54557 0.4894 0.12445 0.0
N127 N 0.48222 0.48795 0.12849 0.0
C128 C 0.50777 0.45794 0.15982 0.0
C129 C 0.49932 0.50583 0.10922 0.0
N130 N 0.53757 0.50707 0.10685 0.0
C131 C 0.4774 0.51961 0.09198 0.0
H132 H 0.49746 0.42323 0.15735 0.0
H133 H 0.48466 0.46339 0.17015 0.0
H134 H 0.53809 0.47084 0.16849 0.0
H135 H 0.44345 0.50446 0.09419 0.0
H136 H 0.4847 0.51167 0.07513 0.0
H137 H 0.48811 0.55453 0.09339 0.0
H138 H 0.12793 0.50875 0.16339 0.0
H139 H 0.20087 0.51975 0.16231 0.0
H140 H 0.164 0.39514 0.13259 0.0
H141 H 0.09199 0.3845 0.13321 0.0
H142 H 0.21987 0.4087 0.16603 0.0
H143 H 0.20508 0.48308 0.10308 0.0
H144 H 0.19026 0.53677 0.08367 0.0
H145 H 0.28918 0.63633 0.11904 0.0
H146 H 0.30397 0.58313 0.13897 0.0
H147 H 0.41233 0.41507 0.12735 0.0
H148 H 0.34147 0.40784 0.1329 0.0
H149 H 0.3891 0.54069 0.1514 0.0
H150 H 0.45968 0.54774 0.14492 0.0
H151 H 0.32813 0.52522 0.12555 0.0
H152 H 0.34186 0.45291 0.18941 0.0
H153 H 0.35692 0.40043 0.20992 0.0
H154 H 0.26149 0.29889 0.17367 0.0
H155 H 0.24621 0.35078 0.15274 0.0
C156 C 0.13545 0.48387 0.15651 0.0
C157 C 0.10384 0.44576 0.14833 0.0
C158 C 0.17725 0.49013 0.15591 0.0
C159 C 0.18838 0.45825 0.14735 0.0
C160 C 0.15666 0.42024 0.13938 0.0
C161 C 0.11526 0.41426 0.13969 0.0
C162 C 0.23265 0.4638 0.14653 0.0
C163 C 0.24343 0.43409 0.15704 0.0
C164 C 0.26402 0.49728 0.13518 0.0
C165 C 0.25505 0.5291 0.12297 0.0
C166 C 0.22328 0.51639 0.10699 0.0
C167 C 0.21495 0.54674 0.09581 0.0
C168 C 0.23858 0.58994 0.1002 0.0
C169 C 0.27068 0.60287 0.11574 0.0
C170 C 0.27897 0.57264 0.12703 0.0
C171 C 0.40754 0.44229 0.13326 0.0
C172 C 0.44159 0.48168 0.13632 0.0
C173 C 0.36692 0.43831 0.13637 0.0
C174 C 0.35918 0.47357 0.14292 0.0
C175 C 0.39357 0.51279 0.14641 0.0
C176 C 0.43408 0.51679 0.14304 0.0
C177 C 0.31557 0.47017 0.14516 0.0
C178 C 0.30478 0.5001 0.13478 0.0
C179 C 0.28418 0.43703 0.15674 0.0
C180 C 0.29314 0.40576 0.16938 0.0
C181 C 0.32427 0.4194 0.18572 0.0
C182 C 0.33282 0.38975 0.19743 0.0
C183 C 0.31024 0.34636 0.19307 0.0
C184 C 0.27898 0.33251 0.17702 0.0
C185 C 0.27033 0.36202 0.16524 0.0
H186 H 0.31692 0.32346 0.20215 0.0
H187 H 0.2321 0.61339 0.09153 0.0
H188 H 0.77656 0.14101 0.4765 0.0
H189 H 0.8343 0.20616 0.46495 0.0
H190 H 0.77922 0.28093 0.49784 0.0
H191 H 0.72102 0.21583 0.50901 0.0
H192 H 0.80502 0.3099 0.45739 0.0
H193 H 0.86243 0.26969 0.52021 0.0
H194 H 0.88132 0.22141 0.54212 0.0
H195 H 0.95796 0.21232 0.48932 0.0
H196 H 0.93909 0.26015 0.46698 0.0
H197 H 0.97701 0.51068 0.46669 0.0
H198 H 0.91879 0.44211 0.47354 0.0
H199 H 0.97776 0.37846 0.43428 0.0
H200 H 0.03604 0.44717 0.42764 0.0
H201 H 0.95088 0.34187 0.47521 0.0
H202 H 0.89793 0.38625 0.41349 0.0
H203 H 0.88067 0.43591 0.39186 0.0
H204 H 0.79629 0.43747 0.44218 0.0
H205 H 0.8137 0.38846 0.46437 0.0
C206 C 0.77703 0.17139 0.4814 0.0
C207 C 0.74458 0.17355 0.49372 0.0
C208 C 0.80999 0.20854 0.47482 0.0
C209 C 0.8112 0.2484 0.48068 0.0
C210 C 0.77886 0.25051 0.49312 0.0
C211 C 0.74581 0.21337 0.4996 0.0
C212 C 0.84587 0.28798 0.47362 0.0
C213 C 0.83687 0.31711 0.4615 0.0
C214 C 0.88752 0.29675 0.47838 0.0
C215 C 0.89901 0.26814 0.49184 0.0
C216 C 0.88306 0.25714 0.51321 0.0
C217 C 0.89381 0.2299 0.52571 0.0
C218 C 0.92073 0.21371 0.51709 0.0
C219 C 0.93706 0.22483 0.49596 0.0
C220 C 0.92638 0.25203 0.48338 0.0
C221 C 0.97713 0.48193 0.45949 0.0
C222 C 1.01053 0.48371 0.44668 0.0
C223 C 0.94404 0.44298 0.46329 0.0
C224 C 0.94403 0.40532 0.45435 0.0
C225 C 0.97728 0.40719 0.44131 0.0
C226 C 1.01024 0.44623 0.43741 0.0
C227 C 0.9099 0.36394 0.45933 0.0
C228 C 0.91902 0.33449 0.471 0.0
C229 C 0.86841 0.35488 0.45413 0.0
C230 C 0.8574 0.38393 0.4407 0.0
C231 C 0.87594 0.39743 0.42005 0.0
C232 C 0.8661 0.42545 0.40767 0.0
C233 C 0.83744 0.43989 0.41566 0.0
C234 C 0.81851 0.42627 0.43603 0.0
C235 C 0.82834 0.39836 0.44851 0.0
H236 H 0.82985 0.46157 0.40605 0.0
H237 H 0.92901 0.19263 0.5268 0.0
H238 H 0.67617 0.74807 0.80725 0.0
H239 H 0.66692 0.81352 0.80378 0.0
H240 H 0.55935 0.76271 0.8452 0.0
H241 H 0.56882 0.69704 0.84885 0.0
H242 H 0.54806 0.80448 0.80827 0.0
H243 H 0.64652 0.83304 0.86707 0.0
H244 H 0.70971 0.83566 0.88477 0.0
H245 H 0.78381 0.92077 0.83541 0.0
H246 H 0.72099 0.91818 0.81722 0.0
H247 H 0.53979 0.00616 0.8224 0.0
H248 H 0.54212 0.93777 0.82933 0.0
H249 H 0.65928 0.98073 0.79603 0.0
H250 H 0.65762 0.04948 0.79006 0.0
H251 H 0.66244 0.94119 0.83152 0.0
H252 H 0.56521 0.91167 0.77185 0.0
H253 H 0.50269 0.9085 0.75316 0.0
H254 H 0.42679 0.82476 0.80253 0.0
H255 H 0.48894 0.82808 0.82178 0.0
C256 C 0.6505 0.75077 0.81561 0.0
C257 C 0.62326 0.71743 0.8284 0.0
C258 C 0.64527 0.78825 0.81363 0.0
C259 C 0.61268 0.7933 0.82441 0.0
C260 C 0.58475 0.7596 0.83676 0.0
C261 C 0.59017 0.72209 0.83885 0.0
C262 C 0.60861 0.83418 0.82306 0.0
C263 C 0.57275 0.83435 0.81367 0.0
C264 C 0.64115 0.87326 0.8297 0.0
C265 C 0.67901 0.87513 0.84068 0.0
C266 C 0.67627 0.85207 0.8599 0.0
C267 C 0.71202 0.85359 0.87004 0.0
C268 C 0.75074 0.87829 0.8612 0.0
C269 C 0.75379 0.90162 0.84223 0.0
C270 C 0.71812 0.90017 0.83201 0.0
C271 C 0.56622 1.00103 0.81689 0.0
C272 C 0.59858 0.03303 0.80575 0.0
C273 C 0.56735 0.96181 0.82059 0.0
C274 C 0.60066 0.95367 0.81297 0.0
C275 C 0.6332 0.98599 0.80207 0.0
C276 C 0.63215 0.02518 0.79852 0.0
C277 C 0.60209 0.91182 0.81637 0.0
C278 C 0.63753 0.91141 0.8262 0.0
C279 C 0.56922 0.87261 0.80999 0.0
C280 C 0.5318 0.87057 0.79842 0.0
C281 C 0.53522 0.8929 0.77885 0.0
C282 C 0.49983 0.89103 0.76813 0.0
C283 C 0.46079 0.86653 0.77668 0.0
C284 C 0.45705 0.84379 0.79595 0.0
C285 C 0.49236 0.84568 0.80678 0.0
H286 H 0.43342 0.86508 0.76835 0.0
H287 H 0.77839 0.87943 0.86907 0.0
H288 H 0.88384 0.42477 0.14525 0.0
H289 H 0.81181 0.41681 0.14316 0.0
H290 H 0.85605 0.55197 0.13576 0.0
H291 H 0.92699 0.55985 0.13795 0.0
H292 H 0.79643 0.52806 0.16408 0.0
H293 H 0.81604 0.47622 0.09313 0.0
H294 H 0.82936 0.43006 0.06573 0.0
H295 H 0.72239 0.32288 0.08762 0.0
H296 H 0.70958 0.36789 0.11589 0.0
H297 H 0.62196 0.55342 0.12294 0.0
H298 H 0.68853 0.54956 0.12735 0.0
H299 H 0.62514 0.41559 0.13927 0.0
H300 H 0.55824 0.41958 0.13459 0.0
H301 H 0.69089 0.4325 0.11107 0.0
H302 H 0.67152 0.48566 0.18174 0.0
H303 H 0.65682 0.53345 0.20751 0.0
H304 H 0.76231 0.64005 0.18376 0.0
H305 H 0.77731 0.59297 0.1576 0.0
C306 C 0.87807 0.45266 0.14308 0.0
C307 C 0.91144 0.49297 0.14175 0.0
C308 C 0.83677 0.44813 0.14183 0.0
C309 C 0.82787 0.4838 0.13923 0.0
C310 C 0.86143 0.52382 0.13787 0.0
C311 C 0.90231 0.52828 0.13905 0.0
C312 C 0.78422 0.48054 0.13826 0.0
C313 C 0.77363 0.50726 0.15232 0.0
C314 C 0.75345 0.45284 0.12335 0.0
C315 C 0.76228 0.42537 0.10696 0.0
C316 C 0.79586 0.44263 0.09246 0.0
C317 C 0.80334 0.41663 0.07675 0.0
C318 C 0.777 0.37344 0.07508 0.0
C319 C 0.74311 0.3562 0.0891 0.0
C320 C 0.73584 0.38191 0.10505 0.0
C321 C 0.62223 0.52319 0.12663 0.0
C322 C 0.58472 0.48693 0.12863 0.0
C323 C 0.6604 0.52097 0.12922 0.0
C324 C 0.66239 0.48233 0.13389 0.0
C325 C 0.62483 0.44588 0.13577 0.0
C326 C 0.5865 0.44821 0.13332 0.0
C327 C 0.70363 0.48034 0.13666 0.0
C328 C 0.7137 0.45282 0.12297 0.0
C329 C 0.73412 0.50744 0.15179 0.0
C330 C 0.72534 0.53581 0.16759 0.0
C331 C 0.69142 0.51933 0.1819 0.0
C332 C 0.68306 0.54629 0.19659 0.0
C333 C 0.70857 0.58977 0.19724 0.0
C334 C 0.74256 0.60637 0.18323 0.0
C335 C 0.75103 0.57956 0.16848 0.0
H336 H 0.70204 0.61059 0.20863 0.0
H337 H 0.78267 0.3534 0.06282 0.0
H338 H 0.4052 0.91947 0.52538 0.0
H339 H 0.33888 0.85731 0.5205 0.0
H340 H 0.40047 0.79086 0.48576 0.0
H341 H 0.46646 0.85262 0.49056 0.0
H342 H 0.33624 0.79013 0.46258 0.0
H343 H 0.36068 0.76028 0.53754 0.0
H344 H 0.37604 0.77749 0.57721 0.0
H345 H 0.26712 0.8 0.58395 0.0
H346 H 0.25148 0.78342 0.54423 0.0
H347 H 0.18156 0.58724 0.44785 0.0
H348 H 0.24408 0.64504 0.46301 0.0
H349 H 0.1694 0.70073 0.49448 0.0
H350 H 0.10665 0.64192 0.47958 0.0
H351 H 0.2369 0.70968 0.52033 0.0
H352 H 0.21032 0.73628 0.44604 0.0
H353 H 0.19425 0.71853 0.40649 0.0
H354 H 0.30698 0.7037 0.39833 0.0
H355 H 0.32344 0.72075 0.43793 0.0
C356 C 0.40451 0.89129 0.51702 0.0
C357 C 0.44072 0.89077 0.50822 0.0
C358 C 0.36674 0.85582 0.51432 0.0
C359 C 0.36482 0.81946 0.50282 0.0
C360 C 0.40128 0.81863 0.49465 0.0
C361 C 0.43892 0.85389 0.49741 0.0
C362 C 0.32467 0.78357 0.49757 0.0
C363 C 0.3148 0.77222 0.47525 0.0
C364 C 0.29602 0.76129 0.51404 0.0
C365 C 0.30525 0.77115 0.5379 0.0
C366 C 0.34028 0.76932 0.54746 0.0
C367 C 0.34896 0.77885 0.56995 0.0
C368 C 0.32266 0.78999 0.58308 0.0
C369 C 0.28752 0.79146 0.57375 0.0
C370 C 0.27872 0.78195 0.55126 0.0
C371 C 0.17876 0.61158 0.45831 0.0
C372 C 0.13991 0.61089 0.46249 0.0
C373 C 0.21422 0.64445 0.46693 0.0
C374 C 0.21132 0.67752 0.47951 0.0
C375 C 0.17223 0.67555 0.48476 0.0
C376 C 0.13661 0.64226 0.47627 0.0
C377 C 0.24924 0.71565 0.48541 0.0
C378 C 0.25844 0.72767 0.50773 0.0
C379 C 0.27733 0.73889 0.46893 0.0
C380 C 0.26796 0.72949 0.44499 0.0
C381 C 0.23158 0.72902 0.43584 0.0
C382 C 0.22241 0.7191 0.41341 0.0
C383 C 0.24953 0.7099 0.39992 0.0
C384 C 0.28598 0.71079 0.40881 0.0
C385 C 0.29527 0.72064 0.43124 0.0
H386 H 0.24234 0.70215 0.38257 0.0
H387 H 0.32943 0.79737 0.60049 0.0
H388 H 0.49133 0.44804 0.82044 0.0
H389 H 0.49829 0.38089 0.81676 0.0
H390 H 0.62392 0.44327 0.84068 0.0
H391 H 0.61663 0.51015 0.8447 0.0
H392 H 0.61601 0.39085 0.80423 0.0
H393 H 0.54389 0.38305 0.87323 0.0
H394 H 0.4863 0.38474 0.89505 0.0
H395 H 0.4004 0.27699 0.85817 0.0
H396 H 0.4572 0.27571 0.83537 0.0
H397 H 0.65191 0.20855 0.82105 0.0
H398 H 0.64435 0.27484 0.82851 0.0
H399 H 0.51425 0.20995 0.81307 0.0
H400 H 0.5221 0.14375 0.8063 0.0
H401 H 0.52394 0.26395 0.84507 0.0
H402 H 0.58795 0.26728 0.77637 0.0
H403 H 0.63924 0.26457 0.74989 0.0
H404 H 0.73211 0.37786 0.77957 0.0
H405 H 0.68149 0.38085 0.80648 0.0
C406 C 0.52042 0.44735 0.82485 0.0
C407 C 0.55379 0.48448 0.83235 0.0
C408 C 0.52437 0.40899 0.82278 0.0
C409 C 0.56161 0.4069 0.82851 0.0
C410 C 0.59501 0.4441 0.83598 0.0
C411 C 0.591 0.48243 0.83805 0.0
C412 C 0.56567 0.36593 0.82703 0.0
C413 C 0.59639 0.36323 0.81342 0.0
C414 C 0.53876 0.32937 0.83828 0.0
C415 C 0.50483 0.32954 0.85244 0.0
C416 C 0.51271 0.35989 0.86964 0.0
C417 C 0.48019 0.36077 0.88221 0.0
C418 C 0.43977 0.33091 0.87811 0.0
C419 C 0.43173 0.30012 0.86135 0.0
C420 C 0.46406 0.29939 0.84854 0.0
C421 C 0.62163 0.2085 0.81997 0.0
C422 C 0.58743 0.17134 0.81347 0.0
C423 C 0.61732 0.24633 0.82394 0.0
C424 C 0.57883 0.24773 0.82097 0.0
C425 C 0.54426 0.20986 0.81549 0.0
C426 C 0.54858 0.17203 0.81172 0.0
C427 C 0.57481 0.28881 0.82246 0.0
C428 C 0.54394 0.29154 0.83598 0.0
C429 C 0.60075 0.325 0.81051 0.0
C430 C 0.63117 0.32348 0.79404 0.0
C431 C 0.61946 0.29123 0.77755 0.0
C432 C 0.64839 0.28973 0.76236 0.0
C433 C 0.68903 0.32078 0.76318 0.0
C434 C 0.70073 0.35356 0.77909 0.0
C435 C 0.67194 0.35508 0.79437 0.0
H436 H 0.71137 0.3196 0.75138 0.0
H437 H 0.41468 0.33167 0.88791 0.0
H438 H 0.57313 0.91569 0.48565 0.0
H439 H 0.5604 0.84124 0.49058 0.0
H440 H 0.65636 0.88019 0.54032 0.0
H441 H 0.66793 0.95426 0.53612 0.0
H442 H 0.66186 0.82278 0.50822 0.0
H443 H 0.56165 0.83954 0.55567 0.0
H444 H 0.50336 0.85735 0.56455 0.0
H445 H 0.42497 0.75829 0.52008 0.0
H446 H 0.48319 0.74091 0.51029 0.0
H447 H 0.63202 0.63099 0.55802 0.0
H448 H 0.63806 0.7026 0.55129 0.0
H449 H 0.53138 0.65023 0.50819 0.0
H450 H 0.52469 0.57821 0.51561 0.0
H451 H 0.52879 0.71318 0.53458 0.0
H452 H 0.62754 0.69612 0.48683 0.0
H453 H 0.6856 0.67854 0.47687 0.0
H454 H 0.76564 0.77717 0.52104 0.0
H455 H 0.70788 0.79493 0.53153 0.0
C456 C 0.59078 0.90822 0.49798 0.0
C457 C 0.62083 0.94065 0.51086 0.0
C458 C 0.58379 0.86576 0.50063 0.0
C459 C 0.60727 0.85515 0.51593 0.0
C460 C 0.63788 0.88764 0.52845 0.0
C461 C 0.64442 0.92993 0.52603 0.0
C462 C 0.60036 0.81029 0.51887 0.0
C463 C 0.6329 0.7989 0.51418 0.0
C464 C 0.56215 0.77891 0.52606 0.0
C465 C 0.52703 0.78933 0.53198 0.0
C466 C 0.53216 0.82194 0.54753 0.0
C467 C 0.4991 0.83195 0.55275 0.0
C468 C 0.46053 0.80912 0.54282 0.0
C469 C 0.45491 0.77612 0.52769 0.0
C470 C 0.48797 0.76626 0.52224 0.0
C471 C 0.60967 0.63486 0.54732 0.0
C472 C 0.57788 0.59929 0.53734 0.0
C473 C 0.6133 0.67574 0.5433 0.0
C474 C 0.58547 0.68195 0.529 0.0
C475 C 0.55328 0.6463 0.51923 0.0
C476 C 0.54963 0.60529 0.52331 0.0
C477 C 0.5905 0.72573 0.52415 0.0
C478 C 0.55765 0.73696 0.52846 0.0
C479 C 0.62836 0.75702 0.51647 0.0
C480 C 0.66327 0.74661 0.51011 0.0
C481 C 0.65744 0.71386 0.49454 0.0
C482 C 0.69031 0.70389 0.48878 0.0
C483 C 0.72926 0.72666 0.49835 0.0
C484 C 0.73544 0.75953 0.51366 0.0
C485 C 0.70265 0.76958 0.5195 0.0
H486 H 0.75468 0.7189 0.49386 0.0
H487 H 0.43505 0.81706 0.54684 0.0
H488 H 0.6856 0.50606 0.80591 0.0
H489 H 0.73694 0.47743 0.80011 0.0
H490 H 0.83076 0.59138 0.82958 0.0
H491 H 0.77931 0.62008 0.83563 0.0
H492 H 0.85522 0.5628 0.78996 0.0
H493 H 0.78575 0.5086 0.85874 0.0
H494 H 0.72556 0.46942 0.88204 0.0
H495 H 0.70263 0.3543 0.84544 0.0
H496 H 0.76204 0.39307 0.82147 0.0
H497 H 1.01153 0.5234 0.838 0.0
H498 H 0.95592 0.54039 0.82501 0.0
H499 H 0.88595 0.40945 0.80466 0.0
H500 H 0.94251 0.39259 0.81783 0.0
H501 H 0.84282 0.43648 0.83146 0.0
H502 H 0.91783 0.48797 0.76598 0.0
H503 H 0.97847 0.52664 0.74284 0.0
H504 H 0.99213 0.64474 0.77319 0.0
H505 H 0.93197 0.60679 0.79678 0.0
C506 C 0.71726 0.5251 0.81102 0.0
C507 C 0.72871 0.56522 0.82125 0.0
C508 C 0.74643 0.5087 0.80769 0.0
C509 C 0.78746 0.53234 0.81444 0.0
C510 C 0.79916 0.57284 0.8242 0.0
C511 C 0.76986 0.58907 0.82776 0.0
C512 C 0.81801 0.51428 0.81223 0.0
C513 C 0.8527 0.53523 0.79902 0.0
C514 C 0.81355 0.47728 0.82342 0.0
C515 C 0.77784 0.454 0.83793 0.0
C516 C 0.76751 0.47509 0.85539 0.0
C517 C 0.73356 0.45292 0.86877 0.0
C518 C 0.7101 0.40946 0.86512 0.0
C519 C 0.72073 0.38802 0.84819 0.0
C520 C 0.75447 0.41011 0.83466 0.0
C521 C 0.98499 0.49871 0.82991 0.0
C522 C 0.98122 0.45691 0.82854 0.0
C523 C 0.9532 0.50834 0.82251 0.0
C524 C 0.917 0.4763 0.81357 0.0
C525 C 0.91383 0.43468 0.81133 0.0
C526 C 0.94592 0.42506 0.81875 0.0
C527 C 0.8809 0.48576 0.8097 0.0
C528 C 0.84499 0.46329 0.82181 0.0
C529 C 0.88419 0.52127 0.79747 0.0
C530 C 0.92036 0.54443 0.78322 0.0
C531 C 0.93389 0.52216 0.76783 0.0
C532 C 0.96819 0.54397 0.75461 0.0
C533 C 0.98915 0.58811 0.75655 0.0
C534 C 0.97583 0.61055 0.77169 0.0
C535 C 0.94157 0.5889 0.78496 0.0
H536 H 1.0157 0.60493 0.74631 0.0
H537 H 0.68382 0.39235 0.87548 0.0
H538 H 0.17587 0.6025 0.12904 0.0
H539 H 0.24043 0.6671 0.13307 0.0
H540 H 0.17829 0.72441 0.17435 0.0
H541 H 0.11382 0.66032 0.17022 0.0
H542 H 0.23107 0.7805 0.14492 0.0
H543 H 0.23052 0.67537 0.19568 0.0
H544 H 0.22774 0.60627 0.20646 0.0
H545 H 0.33902 0.63096 0.17052 0.0
H546 H 0.34129 0.69924 0.15852 0.0
H547 H 0.38781 0.93512 0.21092 0.0
H548 H 0.32722 0.87479 0.19582 0.0
H549 H 0.40726 0.83065 0.16036 0.0
H550 H 0.4678 0.89055 0.17604 0.0
H551 H 0.34886 0.76775 0.18214 0.0
H552 H 0.35201 0.87399 0.1328 0.0
H553 H 0.35563 0.94349 0.12206 0.0
H554 H 0.24227 0.91813 0.15608 0.0
H555 H 0.23826 0.8487 0.16731 0.0
C556 C 0.17601 0.62915 0.13873 0.0
C557 C 0.14011 0.62656 0.14942 0.0
C558 C 0.21281 0.66584 0.14106 0.0
C559 C 0.21413 0.70024 0.15417 0.0
C560 C 0.17786 0.69819 0.16415 0.0
C561 C 0.14116 0.66156 0.16187 0.0
C562 C 0.2536 0.73753 0.15865 0.0
C563 C 0.25681 0.77781 0.15313 0.0
C564 C 0.28746 0.73369 0.16887 0.0
C565 C 0.28564 0.69218 0.17584 0.0
C566 C 0.25396 0.66574 0.18969 0.0
C567 C 0.25244 0.62665 0.196 0.0
C568 C 0.28294 0.61401 0.18899 0.0
C569 C 0.31512 0.64054 0.17573 0.0
C570 C 0.31641 0.67934 0.16905 0.0
C571 C 0.39219 0.91253 0.1998 0.0
C572 C 0.43208 0.91715 0.19453 0.0
C573 C 0.35776 0.87837 0.19106 0.0
C574 C 0.36276 0.84849 0.17676 0.0
C575 C 0.40274 0.85346 0.17127 0.0
C576 C 0.43718 0.88765 0.18006 0.0
C577 C 0.32621 0.81083 0.16864 0.0
C578 C 0.32346 0.77045 0.17355 0.0
C579 C 0.29283 0.81454 0.15784 0.0
C580 C 0.295 0.85623 0.15104 0.0
C581 C 0.328 0.88335 0.13814 0.0
C582 C 0.3301 0.92272 0.13194 0.0
C583 C 0.29924 0.93525 0.13842 0.0
C584 C 0.26616 0.90839 0.15108 0.0
C585 C 0.26394 0.86899 0.15734 0.0
H586 H 0.30092 0.96575 0.1336 0.0
H587 H 0.2818 0.5838 0.19395 0.0
H588 H 0.61642 0.14642 0.52668 0.0
H589 H 0.6229 0.21927 0.52832 0.0
H590 H 0.51897 0.1841 0.48372 0.0
H591 H 0.51427 0.11175 0.48092 0.0
H592 H 0.57274 0.25985 0.47408 0.0
H593 H 0.51054 0.19354 0.54146 0.0
H594 H 0.5044 0.154 0.57563 0.0
H595 H 0.61818 0.25201 0.60003 0.0
H596 H 0.62529 0.29189 0.56586 0.0
H597 H 0.52315 0.43468 0.50843 0.0
H598 H 0.52353 0.36566 0.49848 0.0
H599 H 0.63639 0.40065 0.53582 0.0
H600 H 0.63588 0.46928 0.54554 0.0
H601 H 0.57666 0.32495 0.54831 0.0
H602 H 0.63619 0.39207 0.48012 0.0
H603 H 0.63898 0.43076 0.44604 0.0
H604 H 0.52516 0.33023 0.42351 0.0
H605 H 0.52138 0.29118 0.45762 0.0
C606 C 0.59563 0.15446 0.5168 0.0
C607 C 0.56513 0.12347 0.5035 0.0
C608 C 0.59892 0.19603 0.518 0.0
C609 C 0.57092 0.20722 0.50647 0.0
C610 C 0.54092 0.17641 0.49282 0.0
C611 C 0.5381 0.13498 0.49133 0.0
C612 C 0.57211 0.25055 0.50921 0.0
C613 C 0.57309 0.27385 0.49032 0.0
C614 C 0.57298 0.26924 0.53037 0.0
C615 C 0.56863 0.2455 0.55101 0.0
C616 C 0.53438 0.20653 0.55405 0.0
C617 C 0.53071 0.18407 0.57343 0.0
C618 C 0.56093 0.20042 0.58997 0.0
C619 C 0.59483 0.23935 0.58719 0.0
C620 C 0.59867 0.26191 0.56784 0.0
C621 C 0.54848 0.42782 0.51392 0.0
C622 C 0.5794 0.45691 0.52777 0.0
C623 C 0.54869 0.38848 0.50833 0.0
C624 C 0.57993 0.37786 0.5165 0.0
C625 C 0.61187 0.40796 0.52944 0.0
C626 C 0.61168 0.44713 0.53492 0.0
C627 C 0.57783 0.33439 0.51323 0.0
C628 C 0.57641 0.31096 0.53206 0.0
C629 C 0.576 0.31551 0.49206 0.0
C630 C 0.57829 0.33891 0.47153 0.0
C631 C 0.61156 0.37838 0.46799 0.0
C632 C 0.61336 0.40034 0.44865 0.0
C633 C 0.58221 0.38302 0.43265 0.0
C634 C 0.54924 0.34364 0.43593 0.0
C635 C 0.54727 0.32156 0.45526 0.0
H636 H 0.58366 0.40007 0.41768 0.0
H637 H 0.55805 0.18298 0.60495 0.0
H638 H 0.41696 0.59993 0.82132 0.0
H639 H 0.34996 0.59711 0.83146 0.0
H640 H 0.39587 0.64445 0.89712 0.0
H641 H 0.46323 0.64616 0.88707 0.0
H642 H 0.3267 0.57891 0.90038 0.0
H643 H 0.36533 0.70428 0.86252 0.0
H644 H 0.39673 0.75726 0.83373 0.0
H645 H 0.3092 0.6751 0.78598 0.0
H646 H 0.27768 0.62127 0.81433 0.0
H647 H 0.10238 0.55038 0.86345 0.0
H648 H 0.17466 0.59807 0.87212 0.0
H649 H 0.20397 0.48951 0.87416 0.0
H650 H 0.13154 0.44234 0.86611 0.0
H651 H 0.23826 0.61361 0.84876 0.0
H652 H 0.28153 0.50342 0.90688 0.0
H653 H 0.25011 0.45727 0.93837 0.0
H654 H 0.17449 0.52364 0.95187 0.0
H655 H 0.20603 0.57086 0.92078 0.0
C656 C 0.41305 0.61054 0.83778 0.0
C657 C 0.44504 0.62307 0.85345 0.0
C658 C 0.3748 0.60926 0.84354 0.0
C659 C 0.36795 0.62111 0.865 0.0
C660 C 0.40051 0.63534 0.88046 0.0
C661 C 0.4389 0.63641 0.8747 0.0
C662 C 0.32544 0.61364 0.87152 0.0
C663 C 0.3074 0.58705 0.88936 0.0
C664 C 0.30063 0.62623 0.85789 0.0
C665 C 0.31906 0.65865 0.84064 0.0
C666 C 0.35284 0.69738 0.84586 0.0
C667 C 0.37069 0.72759 0.82961 0.0
C668 C 0.35495 0.71956 0.80805 0.0
C669 C 0.3213 0.68131 0.80271 0.0
C670 C 0.30336 0.65097 0.81889 0.0
C671 C 0.12455 0.53713 0.86601 0.0
C672 C 0.11233 0.49322 0.86389 0.0
C673 C 0.16555 0.56414 0.87101 0.0
C674 C 0.19472 0.54741 0.87398 0.0
C675 C 0.18192 0.50318 0.87244 0.0
C676 C 0.14086 0.47625 0.86765 0.0
C677 C 0.23925 0.57581 0.87634 0.0
C678 C 0.25763 0.60657 0.86027 0.0
C679 C 0.26442 0.56847 0.89219 0.0
C680 C 0.24619 0.54074 0.91137 0.0
C681 C 0.25855 0.50856 0.91668 0.0
C682 C 0.24062 0.48211 0.93446 0.0
C683 C 0.21031 0.4875 0.9471 0.0
C684 C 0.19794 0.51946 0.94205 0.0
C685 C 0.21584 0.54607 0.92434 0.0
H686 H 0.1964 0.46693 0.96082 0.0
H687 H 0.36883 0.74296 0.79548 0.0
H688 H 0.87531 0.27154 0.13481 0.0
H689 H 0.81175 0.21077 0.14492 0.0
H690 H 0.81295 0.27145 0.20822 0.0
H691 H 0.8787 0.32978 0.19888 0.0
H692 H 0.78254 0.19501 0.2152 0.0
H693 H 0.7532 0.27396 0.1597 0.0
H694 H 0.76244 0.30939 0.12399 0.0
H695 H 0.72689 0.18961 0.08957 0.0
H696 H 0.71836 0.15356 0.12513 0.0
H697 H 0.55952 0.08546 0.22641 0.0
H698 H 0.62811 0.14237 0.21919 0.0
H699 H 0.65547 0.05732 0.17599 0.0
H700 H 0.58799 0.99994 0.18413 0.0
H701 H 0.66901 0.14588 0.15964 0.0
H702 H 0.69784 0.07011 0.21996 0.0
H703 H 0.68321 0.0409 0.25738 0.0
H704 H 0.71207 0.16527 0.28485 0.0
H705 H 0.72618 0.19511 0.24751 0.0
C706 C 0.86213 0.2713 0.15097 0.0
C707 C 0.8814 0.30504 0.16607 0.0
C708 C 0.82563 0.23689 0.1567 0.0
C709 C 0.80653 0.237 0.17709 0.0
C710 C 0.82674 0.27042 0.19239 0.0
C711 C 0.86419 0.30384 0.18703 0.0
C712 C 0.76487 0.20337 0.18212 0.0
C713 C 0.75778 0.18475 0.20304 0.0
C714 C 0.732 0.18983 0.16647 0.0
C715 C 0.73554 0.21114 0.14508 0.0
C716 C 0.74745 0.25519 0.14451 0.0
C717 C 0.7526 0.27539 0.12429 0.0
C718 C 0.74534 0.25177 0.1045 0.0
C719 C 0.73259 0.20786 0.10491 0.0
C720 C 0.72761 0.18753 0.1251 0.0
C721 C 0.58049 0.07897 0.21561 0.0
C722 C 0.56869 0.03859 0.20572 0.0
C723 C 0.61934 0.11138 0.2114 0.0
C724 C 0.64649 0.10384 0.197 0.0
C725 C 0.63466 0.06364 0.18702 0.0
C726 C 0.59623 0.03109 0.19157 0.0
C727 C 0.68746 0.13782 0.19236 0.0
C728 C 0.69413 0.15646 0.17161 0.0
C729 C 0.71929 0.15244 0.20841 0.0
C730 C 0.71276 0.13478 0.23093 0.0
C731 C 0.70089 0.0912 0.23397 0.0
C732 C 0.69271 0.07453 0.25516 0.0
C733 C 0.69662 0.1012 0.27348 0.0
C734 C 0.70902 0.14465 0.27065 0.0
C735 C 0.71717 0.16146 0.24947 0.0
H736 H 0.69008 0.08821 0.28987 0.0
H737 H 0.74961 0.26744 0.08884 0.0
H738 H 0.96421 0.38943 0.0781 0.0
H739 H 0.97392 0.38153 0.03848 0.0
H740 H 0.0714 0.5083 0.03816 0.0
H741 H 0.0625 0.51628 0.07761 0.0
H742 H 0.96574 0.42402 0.00431 0.0
H743 H 0.14477 0.51344 0.00033 0.0
H744 H 0.20517 0.52768 0.02428 0.0
H745 H 0.13609 0.41446 0.06005 0.0
H746 H 0.07548 0.39905 0.03607 0.0
H747 H 0.02994 0.49774 0.8988 0.0
H748 H 0.0294 0.49664 0.93934 0.0
H749 H 0.06368 0.3914 0.93717 0.0
H750 H 0.06416 0.39283 0.89638 0.0
H751 H 0.10293 0.45336 0.97212 0.0
H752 H 0.96791 0.36684 0.9426 0.0
H753 H 0.9078 0.35218 0.91835 0.0
H754 H 0.88837 0.45404 0.95 0.0
H755 H 0.94874 0.46969 0.97426 0.0
C756 C 0.98767 0.41565 0.0696 0.0
C757 C 1.01264 0.45342 0.08108 0.0
C758 C 0.99322 0.41105 0.04697 0.0
C759 C 0.02388 0.44404 0.03547 0.0
C760 C 0.04821 0.48206 0.0468 0.0
C761 C 0.04282 0.48664 0.06937 0.0
C762 C 0.02965 0.43948 0.01145 0.0
C763 C 0.99568 0.4301 0.99734 0.0
C764 C 0.0687 0.44701 0.00234 0.0
C765 C 0.10538 0.45532 0.0165 0.0
C766 C 0.1425 0.49141 0.01321 0.0
C767 C 0.17679 0.49971 0.0268 0.0
C768 C 0.17443 0.47205 0.04371 0.0
C769 C 0.13783 0.43592 0.04699 0.0
C770 C 0.10349 0.4274 0.0334 0.0
C771 C 0.03795 0.47495 0.90715 0.0
C772 C 0.04662 0.44506 0.89489 0.0
C773 C 0.03765 0.47426 0.93014 0.0
C774 C 0.04594 0.44355 0.94115 0.0
C775 C 0.05711 0.41523 0.9289 0.0
C776 C 0.05729 0.4159 0.90578 0.0
C777 C 0.03929 0.43903 0.96523 0.0
C778 C 0.07299 0.44676 0.97925 0.0
C779 C 0.99995 0.42959 0.97435 0.0
C780 C 0.963 0.41959 0.96016 0.0
C781 C 0.95094 0.38624 0.94432 0.0
C782 C 0.91681 0.37774 0.93058 0.0
C783 C 0.89434 0.40222 0.9326 0.0
C784 C 0.90583 0.43512 0.94845 0.0
C785 C 0.93995 0.44377 0.96222 0.0
H786 H 0.86798 0.39565 0.92191 0.0
H787 H 0.20097 0.47859 0.05425 0.0
H788 H 0.65277 0.06746 0.4312 0.0
H789 H 0.64918 0.06754 0.39083 0.0
H790 H 0.51604 0.00646 0.39368 0.0
H791 H 0.51969 1.00428 0.43386 0.0
H792 H 0.53792 0.97006 0.36342 0.0
H793 H 0.57672 0.11706 0.38228 0.0
H794 H 0.61933 0.18717 0.39928 0.0
H795 H 0.72326 0.19518 0.36063 0.0
H796 H 0.6814 0.12482 0.34361 0.0
H797 H 0.48007 0.02321 0.26196 0.0
H798 H 0.50524 0.04018 0.3002 0.0
H799 H 0.61237 0.01884 0.28311 0.0
H800 H 0.58651 1.00074 0.24482 0.0
H801 H 0.61157 0.09789 0.31866 0.0
H802 H 0.56711 0.94386 0.30221 0.0
H803 H 0.51794 0.87769 0.2839 0.0
H804 H 0.41733 0.88897 0.31805 0.0
H805 H 0.46596 0.95555 0.33631 0.0
C806 C 0.62277 0.05421 0.42316 0.0
C807 C 0.58649 0.03575 0.43563 0.0
C808 C 0.62072 0.05449 0.40008 0.0
C809 C 0.58231 0.03746 0.3891 0.0
C810 C 0.54609 0.01961 0.40167 0.0
C811 C 0.54816 0.01843 0.42466 0.0
C812 C 0.57947 0.0367 0.36454 0.0
C813 C 0.55411 0.99821 0.3538 0.0
C814 C 0.60088 0.07313 0.35168 0.0
C815 C 0.62607 0.11543 0.36189 0.0
C816 C 0.60876 0.13361 0.37755 0.0
C817 C 0.63276 0.17342 0.38716 0.0
C818 C 0.67402 0.19554 0.3811 0.0
C819 C 0.69133 0.17796 0.36535 0.0
C820 C 0.66748 0.13812 0.35571 0.0
C821 C 0.50937 0.02303 0.26635 0.0
C822 C 0.53119 0.01026 0.25074 0.0
C823 C 0.52385 0.03299 0.28804 0.0
C824 C 0.56059 0.03074 0.29434 0.0
C825 C 0.58414 0.0211 0.2784 0.0
C826 C 0.56938 0.01071 0.25666 0.0
C827 C 0.57015 0.03162 0.3181 0.0
C828 C 0.59632 0.06991 0.32853 0.0
C829 C 0.54905 0.99538 0.33083 0.0
C830 C 0.52006 0.95468 0.32049 0.0
C831 C 0.53448 0.93227 0.30572 0.0
C832 C 0.50673 0.89471 0.29538 0.0
C833 C 0.46453 0.87915 0.2998 0.0
C834 C 0.45002 0.90104 0.31465 0.0
C835 C 0.47766 0.93865 0.32502 0.0
H836 H 0.44308 0.85013 0.29173 0.0
H837 H 0.69255 0.22636 0.38856 0.0
H838 H 0.63692 0.60312 0.76083 0.0
H839 H 0.62896 0.6002 0.72095 0.0
H840 H 0.51571 0.61557 0.7276 0.0
H841 H 0.52352 0.6188 0.76805 0.0
H842 H 0.5652 0.53906 0.6984 0.0
H843 H 0.5074 0.66475 0.67694 0.0
H844 H 0.50965 0.73235 0.69194 0.0
H845 H 0.62568 0.75942 0.72379 0.0
H846 H 0.6244 0.69233 0.70873 0.0
H847 H 0.51479 0.56214 0.5782 0.0
H848 H 0.50963 0.58244 0.61708 0.0
H849 H 0.6299 0.58651 0.63044 0.0
H850 H 0.63462 0.5661 0.59189 0.0
H851 H 0.56267 0.65027 0.64912 0.0
H852 H 0.61851 0.52296 0.67166 0.0
H853 H 0.61545 0.45496 0.65678 0.0
H854 H 0.5012 0.43049 0.6236 0.0
H855 H 0.5037 0.49841 0.63821 0.0
C856 C 0.61033 0.60616 0.75397 0.0
C857 C 0.58057 0.6107 0.76772 0.0
C858 C 0.60589 0.60452 0.73109 0.0
C859 C 0.57169 0.60746 0.7213 0.0
C860 C 0.54247 0.61345 0.73484 0.0
C861 C 0.54693 0.61518 0.75793 0.0
C862 C 0.56607 0.60135 0.69701 0.0
C863 C 0.56473 0.56349 0.68768 0.0
C864 C 0.56396 0.63254 0.68303 0.0
C865 C 0.56547 0.67325 0.69195 0.0
C866 C 0.53342 0.68519 0.68711 0.0
C867 C 0.53454 0.72342 0.69562 0.0
C868 C 0.5677 0.75007 0.70889 0.0
C869 C 0.59991 0.73865 0.7136 0.0
C870 C 0.59897 0.70049 0.70511 0.0
C871 C 0.54043 0.56873 0.58943 0.0
C872 C 0.57495 0.56241 0.58241 0.0
C873 C 0.53752 0.58023 0.61151 0.0
C874 C 0.56917 0.58539 0.62663 0.0
C875 C 0.60501 0.5823 0.61906 0.0
C876 C 0.60778 0.57075 0.59715 0.0
C877 C 0.56342 0.58874 0.65072 0.0
C878 C 0.56241 0.62571 0.65995 0.0
C879 C 0.56314 0.55668 0.66478 0.0
C880 C 0.56142 0.51581 0.65593 0.0
C881 C 0.59271 0.503 0.66122 0.0
C882 C 0.59113 0.46454 0.65279 0.0
C883 C 0.55819 0.43846 0.63922 0.0
C884 C 0.52673 0.45076 0.63408 0.0
C885 C 0.52834 0.48934 0.64232 0.0
H886 H 0.55702 0.40871 0.6327 0.0
H887 H 0.56848 0.77962 0.71548 0.0
H888 H 0.66119 0.08132 0.57933 0.0
H889 H 0.66219 0.07867 0.61962 0.0
H890 H 0.54384 0.97053 0.61805 0.0
H891 H 0.54239 0.97296 0.57777 0.0
H892 H 0.54581 0.03095 0.64774 0.0
H893 H 0.62876 0.95706 0.63067 0.0
H894 H 0.68511 0.94522 0.61263 0.0
H895 H 0.77464 0.0572 0.64512 0.0
H896 H 0.71878 0.0701 0.6631 0.0
H897 H 0.54942 0.01672 0.76338 0.0
H898 H 0.54993 0.99159 0.72512 0.0
H899 H 0.66698 0.09812 0.71465 0.0
H900 H 0.66664 0.1224 0.75298 0.0
H901 H 0.66156 0.02713 0.69148 0.0
H902 H 0.57934 0.10657 0.70343 0.0
H903 H 0.52396 0.12057 0.72121 0.0
H904 H 0.43388 0.99937 0.69775 0.0
H905 H 0.48889 0.9844 0.68009 0.0
C906 C 0.63545 0.0568 0.58751 0.0
C907 C 0.60166 0.02745 0.57528 0.0
C908 C 0.6362 0.05517 0.61055 0.0
C909 C 0.60325 0.02415 0.62181 0.0
C910 C 0.56962 0.99465 0.60967 0.0
C911 C 0.56891 0.99612 0.58663 0.0
C912 C 0.60297 0.02404 0.64632 0.0
C913 C 0.57066 0.02915 0.65731 0.0
C914 C 0.63579 0.02247 0.65879 0.0
C915 C 0.66953 0.01471 0.64811 0.0
C916 C 0.66045 0.97935 0.63384 0.0
C917 C 0.69231 0.97242 0.62364 0.0
C918 C 0.73343 1.00048 0.62769 0.0
C919 C 0.74277 0.03549 0.64199 0.0
C920 C 0.71101 0.04261 0.65221 0.0
C921 C 0.57571 0.03382 0.753 0.0
C922 C 0.60774 0.07166 0.76076 0.0
C923 C 0.57595 0.01968 0.7312 0.0
C924 C 0.60815 0.04348 0.71694 0.0
C925 C 0.64179 0.07937 0.72533 0.0
C926 C 0.64153 0.09337 0.74709 0.0
C927 C 0.60466 0.03448 0.69278 0.0
C928 C 0.63632 0.02797 0.68188 0.0
C929 C 0.57136 0.03496 0.68032 0.0
C930 C 0.53823 0.04416 0.69067 0.0
C931 C 0.54775 0.08279 0.70219 0.0
C932 C 0.51644 0.09092 0.71224 0.0
C933 C 0.47544 0.06082 0.71067 0.0
C934 C 0.46566 0.02261 0.69899 0.0
C935 C 0.49688 0.01429 0.68896 0.0
H936 H 0.45123 0.06716 0.71846 0.0
H937 H 0.75805 0.99506 0.61978 0.0
H938 H 0.66324 0.58737 0.90393 0.0
H939 H 0.66549 0.57213 0.94312 0.0
H940 H 0.54364 0.56709 0.95175 0.0
H941 H 0.54093 0.58212 0.9128 0.0
H942 H 0.65959 0.6134 0.98169 0.0
H943 H 0.48974 0.48748 0.98501 0.0
H944 H 0.43849 0.4318 0.96113 0.0
H945 H 0.5363 0.42181 0.92348 0.0
H946 H 0.58794 0.4772 0.94714 0.0
H947 H 0.56713 0.5831 0.08759 0.0
H948 H 0.59347 0.598 0.04985 0.0
H949 H 0.58846 0.47188 0.04364 0.0
H950 H 0.56098 0.45691 0.08128 0.0
H951 H 0.54693 0.48479 0.01159 0.0
H952 H 0.68099 0.56094 0.04137 0.0
H953 H 0.73504 0.61195 0.06584 0.0
H954 H 0.71578 0.71483 0.03797 0.0
H955 H 0.6611 0.66438 0.01358 0.0
C956 C 0.63694 0.58317 0.91417 0.0
C957 C 0.60181 0.58583 0.9051 0.0
C958 C 0.63838 0.57458 0.93659 0.0
C959 C 0.60458 0.56803 0.9503 0.0
C960 C 0.56988 0.57149 0.94141 0.0
C961 C 0.56848 0.58027 0.9191 0.0
C962 C 0.60485 0.55684 0.97384 0.0
C963 C 0.63513 0.58522 0.98828 0.0
C964 C 0.57363 0.51948 0.98232 0.0
C965 C 0.54267 0.4867 0.96774 0.0
C966 C 0.50025 0.47337 0.97162 0.0
C967 C 0.47111 0.44189 0.9581 0.0
C968 C 0.48405 0.42334 0.94074 0.0
C969 C 0.52618 0.43632 0.93682 0.0
C970 C 0.55542 0.46785 0.95024 0.0
C971 C 0.57278 0.55914 0.07827 0.0
C972 C 0.56191 0.51886 0.08707 0.0
C973 C 0.58802 0.56764 0.05679 0.0
C974 C 0.59297 0.53605 0.04384 0.0
C975 C 0.58485 0.49673 0.05329 0.0
C976 C 0.5695 0.48824 0.07478 0.0
C977 C 0.60082 0.54208 0.01974 0.0
C978 C 0.57186 0.51276 0.00511 0.0
C979 C 0.63367 0.57819 0.01116 0.0
C980 C 0.66672 0.60878 0.02571 0.0
C981 C 0.68804 0.59441 0.04056 0.0
C982 C 0.71884 0.62324 0.05441 0.0
C983 C 0.7288 0.6666 0.05348 0.0
C984 C 0.70803 0.68122 0.03867 0.0
C985 C 0.67716 0.65252 0.0248 0.0
H986 H 0.75265 0.68887 0.06421 0.0
H987 H 0.46137 0.3988 0.93041 0.0
H988 H 0.94287 0.41769 0.22199 0.0
H989 H 0.93937 0.42142 0.26228 0.0
H990 H 0.04528 0.54255 0.26317 0.0
H991 H 0.04881 0.53941 0.22295 0.0
H992 H 0.99394 0.42362 0.29294 0.0
H993 H 0.03766 0.60462 0.30454 0.0
H994 H 0.0262 0.66078 0.28547 0.0
H995 H 0.91619 0.56704 0.25497 0.0
H996 H 0.92663 0.51038 0.27411 0.0
H997 H 0.0992 0.51529 0.39186 0.0
H998 H 0.0733 0.49496 0.35393 0.0
H999 H 0.96138 0.50698 0.37146 0.0
H1000 H 0.9878 0.52771 0.4095 0.0
H1001 H 0.99675 0.55009 0.33399 0.0
H1002 H 0.95512 0.41199 0.36074 0.0
H1003 H 0.96204 0.35434 0.38078 0.0
H1004 H 0.05622 0.35697 0.33579 0.0
H1005 H 0.05052 0.4153 0.31573 0.0
C1006 C 0.96524 0.44535 0.23072 0.0
C1007 C 0.99613 0.47832 0.21919 0.0
C1008 C 0.96322 0.44731 0.25377 0.0
C1009 C 0.99181 0.48239 0.26572 0.0
C1010 C 0.02247 0.51546 0.25426 0.0
C1011 C 0.02456 0.51353 0.23124 0.0
C1012 C 0.99085 0.48397 0.29023 0.0
C1013 C 0.99422 0.45109 0.30194 0.0
C1014 C 0.98993 0.51921 0.30201 0.0
C1015 C 0.98312 0.55321 0.29066 0.0
C1016 C 1.0109 0.596 0.29387 0.0
C1017 C 1.00461 0.62792 0.28302 0.0
C1018 C 0.97055 0.61748 0.26898 0.0
C1019 C 0.94264 0.57509 0.2658 0.0
C1020 C 0.94876 0.54304 0.27662 0.0
C1021 C 0.06898 0.51318 0.38753 0.0
C1022 C 0.0455 0.52329 0.40327 0.0
C1023 C 0.05408 0.50137 0.36601 0.0
C1024 C 1.01538 0.4994 0.35992 0.0
C1025 C 0.99132 0.50836 0.37585 0.0
C1026 C 1.00621 0.51993 0.39747 0.0
C1027 C 1.00177 0.49072 0.33652 0.0
C1028 C 0.99571 0.52227 0.32502 0.0
C1029 C 0.99936 0.45386 0.32501 0.0
C1030 C 1.00251 0.41823 0.33677 0.0
C1031 C 0.97751 0.40049 0.35518 0.0
C1032 C 0.9812 0.36766 0.36655 0.0
C1033 C 1.00956 0.35201 0.35957 0.0
C1034 C 0.03424 0.36912 0.34117 0.0
C1035 C 0.03076 0.40205 0.32978 0.0
H1036 H 1.01239 0.32659 0.36839 0.0
H1037 H 0.96576 0.64224 0.26058 0.0
loop_
_geom_bond_atom_site_label_1
_geom_bond_atom_site_label_2
_geom_bond_distance
_geom_bond_site_symmetry_2
_ccdc_geom_bond_type
Tb0 O3 2.453 1_455 S
Tb0 O4 2.596 1_455 S
Tb0 O5 2.374 . S
Tb0 O13 2.343 . S
Tb0 O15 2.353 . S
Tb0 O17 2.427 . S
Tb0 O18 2.513 . S
C1 O5 1.249 1_655 S
C1 O7 1.255 . S
Tb2 O4 2.343 . S
Tb2 O7 2.353 . S
Tb2 O10 2.427 . S
Tb2 O11 2.513 . S
Tb2 O12 2.453 1_655 S
Tb2 O13 2.596 1_655 S
Tb2 O14 2.374 . S
O3 Tb0 2.453 1_655 S
O3 C19 1.245 . S
O4 Tb0 2.596 1_655 S
O4 Tb2 2.343 . S
O4 C19 1.259 . S
O5 Tb0 2.374 . S
O5 C1 1.249 1_455 S
C6 O10 1.275 . S
C6 O11 1.246 . S
O7 C1 1.255 . S
O7 Tb2 2.353 . S
C8 O12 1.245 . S
C8 O13 1.259 . S
C9 O14 1.250 1_455 S
C9 O15 1.263 . S
O10 Tb2 2.427 . S
O10 C6 1.275 . S
O11 Tb2 2.513 . S
O11 C6 1.246 . S
O12 Tb2 2.453 1_455 S
O12 C8 1.245 . S
O13 Tb0 2.343 . S
O13 Tb2 2.596 1_455 S
O13 C8 1.259 . S
O14 Tb2 2.374 . S
O14 C9 1.250 1_655 S
O15 Tb0 2.353 . S
O15 C9 1.263 . S
C16 O17 1.275 . S
C16 O18 1.246 . S
O17 Tb0 2.427 . S
O17 C16 1.275 . S
O18 Tb0 2.513 . S
O18 C16 1.246 . S
C19 O3 1.245 . S
C19 O4 1.259 . S
Tb20 O23 2.453 . S
Tb20 O24 2.596 . S
Tb20 O25 2.374 . S
Tb20 O33 2.343 1_545 S
Tb20 O35 2.353 . S
Tb20 O37 2.427 1_545 S
Tb20 O38 2.513 1_545 S
C21 O25 1.251 . S
C21 O27 1.263 . S
Tb22 O24 2.343 . S
Tb22 O27 2.353 . S
Tb22 O30 2.427 . S
Tb22 O31 2.513 . S
Tb22 O32 2.453 1_545 S
Tb22 O33 2.596 1_545 S
Tb22 O34 2.374 . S
O23 Tb20 2.453 . S
O23 C39 1.245 . S
O24 Tb20 2.596 . S
O24 Tb22 2.343 . S
O24 C39 1.259 . S
O25 Tb20 2.374 . S
O25 C21 1.251 . S
C26 O30 1.275 . S
C26 O31 1.246 . S
O27 C21 1.263 . S
O27 Tb22 2.353 . S
C28 O32 1.245 . S
C28 O33 1.259 . S
C29 O34 1.250 . S
C29 O35 1.263 . S
O30 Tb22 2.427 . S
O30 C26 1.275 . S
O31 Tb22 2.513 . S
O31 C26 1.246 . S
O32 Tb22 2.453 1_565 S
O32 C28 1.245 . S
O33 Tb20 2.343 1_565 S
O33 Tb22 2.596 1_565 S
O33 C28 1.259 . S
O34 Tb22 2.374 . S
O34 C29 1.250 . S
O35 Tb20 2.353 . S
O35 C29 1.263 . S
C36 O37 1.275 . S
C36 O38 1.246 . S
O37 Tb20 2.427 1_565 S
O37 C36 1.275 . S
O38 Tb20 2.513 1_565 S
O38 C36 1.246 . S
C39 O23 1.245 . S
C39 O24 1.259 . S
Tb40 O43 2.453 . S
Tb40 O44 2.596 . S
Tb40 O45 2.374 . S
Tb40 O53 2.343 . S
Tb40 O55 2.353 . S
Tb40 O57 2.427 . S
Tb40 O58 2.513 . S
C41 O45 1.251 . S
C41 O47 1.263 . S
Tb42 O44 2.343 . S
Tb42 O47 2.353 . S
Tb42 O50 2.427 . S
Tb42 O51 2.513 . S
Tb42 O52 2.453 . S
Tb42 O53 2.596 . S
Tb42 O54 2.374 . S
O43 Tb40 2.453 . S
O43 C59 1.245 . S
O44 Tb40 2.596 . S
O44 Tb42 2.343 . S
O44 C59 1.259 . S
O45 Tb40 2.374 . S
O45 C41 1.251 . S
C46 O50 1.275 . S
C46 O51 1.246 . S
O47 C41 1.263 . S
O47 Tb42 2.353 . S
C48 O52 1.245 . S
C48 O53 1.259 . S
C49 O54 1.250 . S
C49 O55 1.263 . S
O50 Tb42 2.427 . S
O50 C46 1.275 . S
O51 Tb42 2.513 . S
O51 C46 1.246 . S
O52 Tb42 2.453 . S
O52 C48 1.245 . S
O53 Tb40 2.343 . S
O53 Tb42 2.596 . S
O53 C48 1.259 . S
O54 Tb42 2.374 . S
O54 C49 1.250 . S
O55 Tb40 2.353 . S
O55 C49 1.263 . S
C56 O57 1.275 . S
C56 O58 1.246 . S
O57 Tb40 2.427 . S
O57 C56 1.275 . S
O58 Tb40 2.513 . S
O58 C56 1.246 . S
C59 O43 1.245 . S
C59 O44 1.259 . S
C60 N61 1.317 1_565 S
C60 N62 1.348 . S
C60 C63 1.485 . S
N61 C60 1.317 1_545 S
N61 N65 1.370 . S
N62 C60 1.348 . S
N62 C64 1.346 . S
C63 C60 1.485 . S
C63 H67 0.960 1_565 S
C63 H68 0.961 . S
C63 H69 0.960 1_565 S
C64 N62 1.346 . S
C64 N65 1.307 1_565 S
C64 C66 1.486 . S
N65 N61 1.370 . S
N65 C64 1.307 1_545 S
C66 C64 1.486 . S
C66 H70 0.960 . S
C66 H71 0.960 . S
C66 H72 0.959 . S
H67 C63 0.960 1_545 S
H68 C63 0.961 . S
H69 C63 0.960 1_545 S
H70 C66 0.960 . S
H71 C66 0.960 . S
H72 C66 0.959 . S
C73 N74 1.317 . S
C73 N75 1.348 . S
C73 C76 1.485 . S
N74 C73 1.317 . S
N74 N78 1.370 . S
N75 C73 1.348 . S
N75 C77 1.346 . S
C76 C73 1.485 . S
C76 H80 0.960 . S
C76 H81 0.961 . S
C76 H82 0.960 . S
C77 N75 1.346 . S
C77 N78 1.307 . S
C77 C79 1.486 . S
N78 N74 1.370 . S
N78 C77 1.307 . S
C79 C77 1.486 . S
C79 H83 0.960 . S
C79 H84 0.960 . S
C79 H85 0.959 . S
H80 C76 0.960 . S
H81 C76 0.961 . S
H82 C76 0.960 . S
H83 C79 0.960 . S
H84 C79 0.960 . S
H85 C79 0.959 . S
C86 N87 1.317 . S
C86 N88 1.348 . S
C86 C89 1.485 . S
N87 C86 1.317 . S
N87 N91 1.370 . S
N88 C86 1.348 . S
N88 C90 1.346 . S
C89 C86 1.485 . S
C89 H93 0.960 . S
C89 H94 0.961 . S
C89 H95 0.960 . S
C90 N88 1.346 . S
C90 N91 1.307 . S
C90 C92 1.486 1_455 S
N91 N87 1.370 . S
N91 C90 1.307 . S
C92 C90 1.486 1_655 S
C92 H96 0.960 . S
C92 H97 0.960 . S
C92 H98 0.959 . S
H93 C89 0.960 . S
H94 C89 0.961 . S
H95 C89 0.960 . S
H96 C92 0.960 . S
H97 C92 0.960 . S
H98 C92 0.959 . S
C99 N100 1.317 . S
C99 N101 1.348 . S
C99 C102 1.485 . S
N100 C99 1.317 . S
N100 N104 1.370 . S
N101 C99 1.348 . S
N101 C103 1.346 . S
C102 C99 1.485 . S
C102 H106 0.960 . S
C102 H107 0.961 . S
C102 H108 0.960 . S
C103 N101 1.346 . S
C103 N104 1.307 . S
C103 C105 1.486 . S
N104 N100 1.370 . S
N104 C103 1.307 . S
C105 C103 1.486 . S
C105 H109 0.960 . S
C105 H110 0.960 . S
C105 H111 0.959 . S
H106 C102 0.960 . S
H107 C102 0.961 . S
H108 C102 0.960 . S
H109 C105 0.960 . S
H110 C105 0.960 . S
H111 C105 0.959 . S
C112 N113 1.317 . S
C112 N114 1.348 . S
C112 C115 1.485 . S
N113 C112 1.317 . S
N113 N117 1.370 . S
N114 C112 1.348 . S
N114 C116 1.346 . S
C115 C112 1.485 . S
C115 H119 0.960 . S
C115 H120 0.961 . S
C115 H121 0.960 . S
C116 N114 1.346 . S
C116 N117 1.307 . S
C116 C118 1.486 . S
N117 N113 1.370 . S
N117 C116 1.307 . S
C118 C116 1.486 . S
C118 H122 0.960 . S
C118 H123 0.960 . S
C118 H124 0.959 . S
H119 C115 0.960 . S
H120 C115 0.961 . S
H121 C115 0.960 . S
H122 C118 0.960 . S
H123 C118 0.960 . S
H124 C118 0.959 . S
C125 N126 1.317 . S
C125 N127 1.348 . S
C125 C128 1.485 . S
N126 C125 1.317 . S
N126 N130 1.370 . S
N127 C125 1.348 . S
N127 C129 1.346 . S
C128 C125 1.485 . S
C128 H132 0.960 . S
C128 H133 0.961 . S
C128 H134 0.960 . S
C129 N127 1.346 . S
C129 N130 1.307 . S
C129 C131 1.486 . S
N130 N126 1.370 . S
N130 C129 1.307 . S
C131 C129 1.486 . S
C131 H135 0.960 . S
C131 H136 0.960 . S
C131 H137 0.959 . S
H132 C128 0.960 . S
H133 C128 0.961 . S
H134 C128 0.960 . S
H135 C131 0.960 . S
H136 C131 0.960 . S
H137 C131 0.959 . S
H138 C156 0.951 . S
H139 C158 0.951 . S
H140 C160 0.950 . S
H141 C161 0.950 . S
H142 C163 0.950 . S
H143 C166 0.950 . S
H144 C167 0.950 . S
H145 C169 0.950 . S
H146 C170 0.950 . S
H147 C171 0.951 . S
H148 C173 0.951 . S
H149 C175 0.950 . S
H150 C176 0.950 . S
H151 C178 0.950 . S
H152 C181 0.950 . S
H153 C182 0.950 . S
H154 C184 0.950 . S
H155 C185 0.950 . S
C156 H138 0.951 . S
C156 C157 1.366 . S
C156 C158 1.388 . S
C157 C156 1.366 . S
C157 C161 1.385 . S
C158 H139 0.951 . S
C158 C156 1.388 . S
C158 C159 1.366 . S
C159 C158 1.366 . S
C159 C160 1.414 . S
C159 C162 1.499 . S
C160 H140 0.950 . S
C160 C159 1.414 . S
C160 C161 1.374 . S
C161 H141 0.950 . S
C161 C157 1.385 . S
C161 C160 1.374 . S
C162 C159 1.499 . S
C162 C163 1.373 . S
C162 C164 1.389 . S
C163 H142 0.950 . S
C163 C162 1.373 . S
C163 C179 1.377 . S
C164 C162 1.389 . S
C164 C165 1.524 . S
C164 C178 1.377 . S
C165 C164 1.524 . S
C165 C166 1.397 . S
C165 C170 1.363 . S
C166 H143 0.950 . S
C166 C165 1.397 . S
C166 C167 1.334 . S
C167 H144 0.950 . S
C167 C166 1.334 . S
C167 C168 1.287 . S
C168 C167 1.287 . S
C168 C169 1.524 . S
C168 H187 0.913 . S
C169 H145 0.950 . S
C169 C168 1.524 . S
C169 C170 1.415 . S
C170 H146 0.950 . S
C170 C165 1.363 . S
C170 C169 1.415 . S
C171 H147 0.951 . S
C171 C172 1.366 . S
C171 C173 1.388 . S
C172 C171 1.366 . S
C172 C176 1.385 . S
C173 H148 0.951 . S
C173 C171 1.388 . S
C173 C174 1.366 . S
C174 C173 1.366 . S
C174 C175 1.414 . S
C174 C177 1.499 . S
C175 H149 0.950 . S
C175 C174 1.414 . S
C175 C176 1.374 . S
C176 H150 0.950 . S
C176 C172 1.385 . S
C176 C175 1.374 . S
C177 C174 1.499 . S
C177 C178 1.373 . S
C177 C179 1.389 . S
C178 H151 0.950 . S
C178 C164 1.377 . S
C178 C177 1.373 . S
C179 C163 1.377 . S
C179 C177 1.389 . S
C179 C180 1.524 . S
C180 C179 1.524 . S
C180 C181 1.397 . S
C180 C185 1.363 . S
C181 H152 0.950 . S
C181 C180 1.397 . S
C181 C182 1.334 . S
C182 H153 0.950 . S
C182 C181 1.334 . S
C182 C183 1.287 . S
C183 C182 1.287 . S
C183 C184 1.524 . S
C183 H186 0.999 . S
C184 H154 0.950 . S
C184 C183 1.524 . S
C184 C185 1.415 . S
C185 H155 0.950 . S
C185 C180 1.363 . S
C185 C184 1.415 . S
H186 C183 0.999 . S
H187 C168 0.913 . S
H188 C206 0.951 . S
H189 C208 0.951 . S
H190 C210 0.950 . S
H191 C211 0.950 . S
H192 C213 0.950 . S
H193 C216 0.950 . S
H194 C217 0.950 . S
H195 C219 0.950 . S
H196 C220 0.950 . S
H197 C221 0.951 . S
H198 C223 0.951 . S
H199 C225 0.950 . S
H200 C226 0.950 . S
H201 C228 0.950 . S
H202 C231 0.950 . S
H203 C232 0.950 . S
H204 C234 0.950 . S
H205 C235 0.950 . S
C206 H188 0.951 . S
C206 C207 1.366 . S
C206 C208 1.388 . S
C207 C206 1.366 . S
C207 C211 1.385 . S
C208 H189 0.951 . S
C208 C206 1.388 . S
C208 C209 1.366 . S
C209 C208 1.366 . S
C209 C210 1.414 . S
C209 C212 1.499 . S
C210 H190 0.950 . S
C210 C209 1.414 . S
C210 C211 1.374 . S
C211 H191 0.950 . S
C211 C207 1.385 . S
C211 C210 1.374 . S
C212 C209 1.499 . S
C212 C213 1.373 . S
C212 C214 1.389 . S
C213 H192 0.950 . S
C213 C212 1.373 . S
C213 C229 1.377 . S
C214 C212 1.389 . S
C214 C215 1.524 . S
C214 C228 1.377 . S
C215 C214 1.524 . S
C215 C216 1.397 . S
C215 C220 1.363 . S
C216 H193 0.950 . S
C216 C215 1.397 . S
C216 C217 1.334 . S
C217 H194 0.950 . S
C217 C216 1.334 . S
C217 C218 1.287 . S
C218 C217 1.287 . S
C218 C219 1.524 . S
C218 H237 0.913 . S
C219 H195 0.950 . S
C219 C218 1.524 . S
C219 C220 1.415 . S
C220 H196 0.950 . S
C220 C215 1.363 . S
C220 C219 1.415 . S
C221 H197 0.951 . S
C221 C222 1.366 . S
C221 C223 1.388 . S
C222 C221 1.366 . S
C222 C226 1.385 . S
C223 H198 0.951 . S
C223 C221 1.388 . S
C223 C224 1.366 . S
C224 C223 1.366 . S
C224 C225 1.414 . S
C224 C227 1.499 . S
C225 H199 0.950 . S
C225 C224 1.414 . S
C225 C226 1.374 . S
C226 H200 0.950 . S
C226 C222 1.385 . S
C226 C225 1.374 . S
C227 C224 1.499 . S
C227 C228 1.373 . S
C227 C229 1.389 . S
C228 H201 0.950 . S
C228 C214 1.377 . S
C228 C227 1.373 . S
C229 C213 1.377 . S
C229 C227 1.389 . S
C229 C230 1.524 . S
C230 C229 1.524 . S
C230 C231 1.397 . S
C230 C235 1.363 . S
C231 H202 0.950 . S
C231 C230 1.397 . S
C231 C232 1.334 . S
C232 H203 0.950 . S
C232 C231 1.334 . S
C232 C233 1.287 . S
C233 C232 1.287 . S
C233 C234 1.524 . S
C233 H236 0.999 . S
C234 H204 0.950 . S
C234 C233 1.524 . S
C234 C235 1.415 . S
C235 H205 0.950 . S
C235 C230 1.363 . S
C235 C234 1.415 . S
H236 C233 0.999 . S
H237 C218 0.913 . S
H238 C256 0.951 . S
H239 C258 0.951 . S
H240 C260 0.950 . S
H241 C261 0.950 . S
H242 C263 0.950 . S
H243 C266 0.950 . S
H244 C267 0.950 . S
H245 C269 0.950 . S
H246 C270 0.950 . S
H247 C271 0.951 . S
H248 C273 0.951 . S
H249 C275 0.950 . S
H250 C276 0.950 . S
H251 C278 0.950 . S
H252 C281 0.950 . S
H253 C282 0.950 . S
H254 C284 0.950 . S
H255 C285 0.950 . S
C256 H238 0.951 . S
C256 C257 1.366 . S
C256 C258 1.388 . S
C257 C256 1.366 . S
C257 C261 1.385 . S
C258 H239 0.951 . S
C258 C256 1.388 . S
C258 C259 1.366 . S
C259 C258 1.366 . S
C259 C260 1.414 . S
C259 C262 1.499 . S
C260 H240 0.950 . S
C260 C259 1.414 . S
C260 C261 1.374 . S
C261 H241 0.950 . S
C261 C257 1.385 . S
C261 C260 1.374 . S
C262 C259 1.499 . S
C262 C263 1.373 . S
C262 C264 1.389 . S
C263 H242 0.950 . S
C263 C262 1.373 . S
C263 C279 1.377 . S
C264 C262 1.389 . S
C264 C265 1.524 . S
C264 C278 1.377 . S
C265 C264 1.524 . S
C265 C266 1.397 . S
C265 C270 1.363 . S
C266 H243 0.950 . S
C266 C265 1.397 . S
C266 C267 1.334 . S
C267 H244 0.950 . S
C267 C266 1.334 . S
C267 C268 1.287 . S
C268 C267 1.287 . S
C268 C269 1.524 . S
C268 H287 0.913 . S
C269 H245 0.950 . S
C269 C268 1.524 . S
C269 C270 1.415 . S
C270 H246 0.950 . S
C270 C265 1.363 . S
C270 C269 1.415 . S
C271 H247 0.951 . S
C271 C272 1.366 . S
C271 C273 1.388 . S
C272 C271 1.366 . S
C272 C276 1.385 . S
C273 H248 0.951 . S
C273 C271 1.388 . S
C273 C274 1.366 . S
C274 C273 1.366 . S
C274 C275 1.414 . S
C274 C277 1.499 . S
C275 H249 0.950 . S
C275 C274 1.414 . S
C275 C276 1.374 . S
C276 H250 0.950 . S
C276 C272 1.385 . S
C276 C275 1.374 . S
C277 C274 1.499 . S
C277 C278 1.373 . S
C277 C279 1.389 . S
C278 H251 0.950 . S
C278 C264 1.377 . S
C278 C277 1.373 . S
C279 C263 1.377 . S
C279 C277 1.389 . S
C279 C280 1.524 . S
C280 C279 1.524 . S
C280 C281 1.397 . S
C280 C285 1.363 . S
C281 H252 0.950 . S
C281 C280 1.397 . S
C281 C282 1.334 . S
C282 H253 0.950 . S
C282 C281 1.334 . S
C282 C283 1.287 . S
C283 C282 1.287 . S
C283 C284 1.524 . S
C283 H286 0.999 . S
C284 H254 0.950 . S
C284 C283 1.524 . S
C284 C285 1.415 . S
C285 H255 0.950 . S
C285 C280 1.363 . S
C285 C284 1.415 . S
H286 C283 0.999 . S
H287 C268 0.913 . S
H288 C306 0.951 . S
H289 C308 0.951 . S
H290 C310 0.950 . S
H291 C311 0.950 . S
H292 C313 0.950 . S
H293 C316 0.950 . S
H294 C317 0.950 . S
H295 C319 0.950 . S
H296 C320 0.950 . S
H297 C321 0.951 . S
H298 C323 0.951 . S
H299 C325 0.950 . S
H300 C326 0.950 . S
H301 C328 0.950 . S
H302 C331 0.950 . S
H303 C332 0.950 . S
H304 C334 0.950 . S
H305 C335 0.950 . S
C306 H288 0.951 . S
C306 C307 1.366 . S
C306 C308 1.388 . S
C307 C306 1.366 . S
C307 C311 1.385 . S
C308 H289 0.951 . S
C308 C306 1.388 . S
C308 C309 1.366 . S
C309 C308 1.366 . S
C309 C310 1.414 . S
C309 C312 1.499 . S
C310 H290 0.950 . S
C310 C309 1.414 . S
C310 C311 1.374 . S
C311 H291 0.950 . S
C311 C307 1.385 . S
C311 C310 1.374 . S
C312 C309 1.499 . S
C312 C313 1.373 . S
C312 C314 1.389 . S
C313 H292 0.950 . S
C313 C312 1.373 . S
C313 C329 1.377 . S
C314 C312 1.389 . S
C314 C315 1.524 . S
C314 C328 1.377 . S
C315 C314 1.524 . S
C315 C316 1.397 . S
C315 C320 1.363 . S
C316 H293 0.950 . S
C316 C315 1.397 . S
C316 C317 1.334 . S
C317 H294 0.950 . S
C317 C316 1.334 . S
C317 C318 1.287 . S
C318 C317 1.287 . S
C318 C319 1.524 . S
C318 H337 0.913 . S
C319 H295 0.950 . S
C319 C318 1.524 . S
C319 C320 1.415 . S
C320 H296 0.950 . S
C320 C315 1.363 . S
C320 C319 1.415 . S
C321 H297 0.951 . S
C321 C322 1.366 . S
C321 C323 1.388 . S
C322 C321 1.366 . S
C322 C326 1.385 . S
C323 H298 0.951 . S
C323 C321 1.388 . S
C323 C324 1.366 . S
C324 C323 1.366 . S
C324 C325 1.414 . S
C324 C327 1.499 . S
C325 H299 0.950 . S
C325 C324 1.414 . S
C325 C326 1.374 . S
C326 H300 0.950 . S
C326 C322 1.385 . S
C326 C325 1.374 . S
C327 C324 1.499 . S
C327 C328 1.373 . S
C327 C329 1.389 . S
C328 H301 0.950 . S
C328 C314 1.377 . S
C328 C327 1.373 . S
C329 C313 1.377 . S
C329 C327 1.389 . S
C329 C330 1.524 . S
C330 C329 1.524 . S
C330 C331 1.397 . S
C330 C335 1.363 . S
C331 H302 0.950 . S
C331 C330 1.397 . S
C331 C332 1.334 . S
C332 H303 0.950 . S
C332 C331 1.334 . S
C332 C333 1.287 . S
C333 C332 1.287 . S
C333 C334 1.524 . S
C333 H336 0.999 . S
C334 H304 0.950 . S
C334 C333 1.524 . S
C334 C335 1.415 . S
C335 H305 0.950 . S
C335 C330 1.363 . S
C335 C334 1.415 . S
H336 C333 0.999 . S
H337 C318 0.913 . S
H338 C356 0.951 . S
H339 C358 0.951 . S
H340 C360 0.950 . S
H341 C361 0.950 . S
H342 C363 0.950 . S
H343 C366 0.950 . S
H344 C367 0.950 . S
H345 C369 0.950 . S
H346 C370 0.950 . S
H347 C371 0.951 . S
H348 C373 0.951 . S
H349 C375 0.950 . S
H350 C376 0.950 . S
H351 C378 0.950 . S
H352 C381 0.950 . S
H353 C382 0.950 . S
H354 C384 0.950 . S
H355 C385 0.950 . S
C356 H338 0.951 . S
C356 C357 1.366 . S
C356 C358 1.388 . S
C357 C356 1.366 . S
C357 C361 1.385 . S
C358 H339 0.951 . S
C358 C356 1.388 . S
C358 C359 1.366 . S
C359 C358 1.366 . S
C359 C360 1.414 . S
C359 C362 1.499 . S
C360 H340 0.950 . S
C360 C359 1.414 . S
C360 C361 1.374 . S
C361 H341 0.950 . S
C361 C357 1.385 . S
C361 C360 1.374 . S
C362 C359 1.499 . S
C362 C363 1.373 . S
C362 C364 1.389 . S
C363 H342 0.950 . S
C363 C362 1.373 . S
C363 C379 1.377 . S
C364 C362 1.389 . S
C364 C365 1.524 . S
C364 C378 1.377 . S
C365 C364 1.524 . S
C365 C366 1.397 . S
C365 C370 1.363 . S
C366 H343 0.950 . S
C366 C365 1.397 . S
C366 C367 1.334 . S
C367 H344 0.950 . S
C367 C366 1.334 . S
C367 C368 1.287 . S
C368 C367 1.287 . S
C368 C369 1.524 . S
C368 H387 0.913 . S
C369 H345 0.950 . S
C369 C368 1.524 . S
C369 C370 1.415 . S
C370 H346 0.950 . S
C370 C365 1.363 . S
C370 C369 1.415 . S
C371 H347 0.951 . S
C371 C372 1.366 . S
C371 C373 1.388 . S
C372 C371 1.366 . S
C372 C376 1.385 . S
C373 H348 0.951 . S
C373 C371 1.388 . S
C373 C374 1.366 . S
C374 C373 1.366 . S
C374 C375 1.414 . S
C374 C377 1.499 . S
C375 H349 0.950 . S
C375 C374 1.414 . S
C375 C376 1.374 . S
C376 H350 0.950 . S
C376 C372 1.385 . S
C376 C375 1.374 . S
C377 C374 1.499 . S
C377 C378 1.373 . S
C377 C379 1.389 . S
C378 H351 0.950 . S
C378 C364 1.377 . S
C378 C377 1.373 . S
C379 C363 1.377 . S
C379 C377 1.389 . S
C379 C380 1.524 . S
C380 C379 1.524 . S
C380 C381 1.397 . S
C380 C385 1.363 . S
C381 H352 0.950 . S
C381 C380 1.397 . S
C381 C382 1.334 . S
C382 H353 0.950 . S
C382 C381 1.334 . S
C382 C383 1.287 . S
C383 C382 1.287 . S
C383 C384 1.524 . S
C383 H386 0.999 . S
C384 H354 0.950 . S
C384 C383 1.524 . S
C384 C385 1.415 . S
C385 H355 0.950 . S
C385 C380 1.363 . S
C385 C384 1.415 . S
H386 C383 0.999 . S
H387 C368 0.913 . S
H388 C406 0.951 . S
H389 C408 0.951 . S
H390 C410 0.950 . S
H391 C411 0.950 . S
H392 C413 0.950 . S
H393 C416 0.950 . S
H394 C417 0.950 . S
H395 C419 0.950 . S
H396 C420 0.950 . S
H397 C421 0.951 . S
H398 C423 0.951 . S
H399 C425 0.950 . S
H400 C426 0.950 . S
H401 C428 0.950 . S
H402 C431 0.950 . S
H403 C432 0.950 . S
H404 C434 0.950 . S
H405 C435 0.950 . S
C406 H388 0.951 . S
C406 C407 1.366 . S
C406 C408 1.388 . S
C407 C406 1.366 . S
C407 C411 1.385 . S
C408 H389 0.951 . S
C408 C406 1.388 . S
C408 C409 1.366 . S
C409 C408 1.366 . S
C409 C410 1.414 . S
C409 C412 1.499 . S
C410 H390 0.950 . S
C410 C409 1.414 . S
C410 C411 1.374 . S
C411 H391 0.950 . S
C411 C407 1.385 . S
C411 C410 1.374 . S
C412 C409 1.499 . S
C412 C413 1.373 . S
C412 C414 1.389 . S
C413 H392 0.950 . S
C413 C412 1.373 . S
C413 C429 1.377 . S
C414 C412 1.389 . S
C414 C415 1.524 . S
C414 C428 1.377 . S
C415 C414 1.524 . S
C415 C416 1.397 . S
C415 C420 1.363 . S
C416 H393 0.950 . S
C416 C415 1.397 . S
C416 C417 1.334 . S
C417 H394 0.950 . S
C417 C416 1.334 . S
C417 C418 1.287 . S
C418 C417 1.287 . S
C418 C419 1.524 . S
C418 H437 0.913 . S
C419 H395 0.950 . S
C419 C418 1.524 . S
C419 C420 1.415 . S
C420 H396 0.950 . S
C420 C415 1.363 . S
C420 C419 1.415 . S
C421 H397 0.951 . S
C421 C422 1.366 . S
C421 C423 1.388 . S
C422 C421 1.366 . S
C422 C426 1.385 . S
C423 H398 0.951 . S
C423 C421 1.388 . S
C423 C424 1.366 . S
C424 C423 1.366 . S
C424 C425 1.414 . S
C424 C427 1.499 . S
C425 H399 0.950 . S
C425 C424 1.414 . S
C425 C426 1.374 . S
C426 H400 0.950 . S
C426 C422 1.385 . S
C426 C425 1.374 . S
C427 C424 1.499 . S
C427 C428 1.373 . S
C427 C429 1.389 . S
C428 H401 0.950 . S
C428 C414 1.377 . S
C428 C427 1.373 . S
C429 C413 1.377 . S
C429 C427 1.389 . S
C429 C430 1.524 . S
C430 C429 1.524 . S
C430 C431 1.397 . S
C430 C435 1.363 . S
C431 H402 0.950 . S
C431 C430 1.397 . S
C431 C432 1.334 . S
C432 H403 0.950 . S
C432 C431 1.334 . S
C432 C433 1.287 . S
C433 C432 1.287 . S
C433 C434 1.524 . S
C433 H436 0.999 . S
C434 H404 0.950 . S
C434 C433 1.524 . S
C434 C435 1.415 . S
C435 H405 0.950 . S
C435 C430 1.363 . S
C435 C434 1.415 . S
H436 C433 0.999 . S
H437 C418 0.913 . S
H438 C456 0.951 . S
H439 C458 0.951 . S
H440 C460 0.950 . S
H441 C461 0.950 . S
H442 C463 0.950 . S
H443 C466 0.950 . S
H444 C467 0.950 . S
H445 C469 0.950 . S
H446 C470 0.950 . S
H447 C471 0.951 . S
H448 C473 0.951 . S
H449 C475 0.950 . S
H450 C476 0.950 . S
H451 C478 0.950 . S
H452 C481 0.950 . S
H453 C482 0.950 . S
H454 C484 0.950 . S
H455 C485 0.950 . S
C456 H438 0.951 . S
C456 C457 1.366 . S
C456 C458 1.388 . S
C457 C456 1.366 . S
C457 C461 1.385 . S
C458 H439 0.951 . S
C458 C456 1.388 . S
C458 C459 1.366 . S
C459 C458 1.366 . S
C459 C460 1.414 . S
C459 C462 1.499 . S
C460 H440 0.950 . S
C460 C459 1.414 . S
C460 C461 1.374 . S
C461 H441 0.950 . S
C461 C457 1.385 . S
C461 C460 1.374 . S
C462 C459 1.499 . S
C462 C463 1.373 . S
C462 C464 1.389 . S
C463 H442 0.950 . S
C463 C462 1.373 . S
C463 C479 1.377 . S
C464 C462 1.389 . S
C464 C465 1.524 . S
C464 C478 1.377 . S
C465 C464 1.524 . S
C465 C466 1.397 . S
C465 C470 1.363 . S
C466 H443 0.950 . S
C466 C465 1.397 . S
C466 C467 1.334 . S
C467 H444 0.950 . S
C467 C466 1.334 . S
C467 C468 1.287 . S
C468 C467 1.287 . S
C468 C469 1.524 . S
C468 H487 0.913 . S
C469 H445 0.950 . S
C469 C468 1.524 . S
C469 C470 1.415 . S
C470 H446 0.950 . S
C470 C465 1.363 . S
C470 C469 1.415 . S
C471 H447 0.951 . S
C471 C472 1.366 . S
C471 C473 1.388 . S
C472 C471 1.366 . S
C472 C476 1.385 . S
C473 H448 0.951 . S
C473 C471 1.388 . S
C473 C474 1.366 . S
C474 C473 1.366 . S
C474 C475 1.414 . S
C474 C477 1.499 . S
C475 H449 0.950 . S
C475 C474 1.414 . S
C475 C476 1.374 . S
C476 H450 0.950 . S
C476 C472 1.385 . S
C476 C475 1.374 . S
C477 C474 1.499 . S
C477 C478 1.373 . S
C477 C479 1.389 . S
C478 H451 0.950 . S
C478 C464 1.377 . S
C478 C477 1.373 . S
C479 C463 1.377 . S
C479 C477 1.389 . S
C479 C480 1.524 . S
C480 C479 1.524 . S
C480 C481 1.397 . S
C480 C485 1.363 . S
C481 H452 0.950 . S
C481 C480 1.397 . S
C481 C482 1.334 . S
C482 H453 0.950 . S
C482 C481 1.334 . S
C482 C483 1.287 . S
C483 C482 1.287 . S
C483 C484 1.524 . S
C483 H486 0.999 . S
C484 H454 0.950 . S
C484 C483 1.524 . S
C484 C485 1.415 . S
C485 H455 0.950 . S
C485 C480 1.363 . S
C485 C484 1.415 . S
H486 C483 0.999 . S
H487 C468 0.913 . S
H488 C506 0.951 . S
H489 C508 0.951 . S
H490 C510 0.950 . S
H491 C511 0.950 . S
H492 C513 0.950 . S
H493 C516 0.950 . S
H494 C517 0.950 . S
H495 C519 0.950 . S
H496 C520 0.950 . S
H497 C521 0.951 1_455 S
H498 C523 0.951 . S
H499 C525 0.950 . S
H500 C526 0.950 . S
H501 C528 0.950 . S
H502 C531 0.950 . S
H503 C532 0.950 . S
H504 C534 0.950 . S
H505 C535 0.950 . S
C506 H488 0.951 . S
C506 C507 1.366 . S
C506 C508 1.388 . S
C507 C506 1.366 . S
C507 C511 1.385 . S
C508 H489 0.951 . S
C508 C506 1.388 . S
C508 C509 1.366 . S
C509 C508 1.366 . S
C509 C510 1.414 . S
C509 C512 1.499 . S
C510 H490 0.950 . S
C510 C509 1.414 . S
C510 C511 1.374 . S
C511 H491 0.950 . S
C511 C507 1.385 . S
C511 C510 1.374 . S
C512 C509 1.499 . S
C512 C513 1.373 . S
C512 C514 1.389 . S
C513 H492 0.950 . S
C513 C512 1.373 . S
C513 C529 1.377 . S
C514 C512 1.389 . S
C514 C515 1.524 . S
C514 C528 1.377 . S
C515 C514 1.524 . S
C515 C516 1.397 . S
C515 C520 1.363 . S
C516 H493 0.950 . S
C516 C515 1.397 . S
C516 C517 1.334 . S
C517 H494 0.950 . S
C517 C516 1.334 . S
C517 C518 1.287 . S
C518 C517 1.287 . S
C518 C519 1.524 . S
C518 H537 0.913 . S
C519 H495 0.950 . S
C519 C518 1.524 . S
C519 C520 1.415 . S
C520 H496 0.950 . S
C520 C515 1.363 . S
C520 C519 1.415 . S
C521 H497 0.951 1_655 S
C521 C522 1.366 . S
C521 C523 1.388 . S
C522 C521 1.366 . S
C522 C526 1.385 . S
C523 H498 0.951 . S
C523 C521 1.388 . S
C523 C524 1.366 . S
C524 C523 1.366 . S
C524 C525 1.414 . S
C524 C527 1.499 . S
C525 H499 0.950 . S
C525 C524 1.414 . S
C525 C526 1.374 . S
C526 H500 0.950 . S
C526 C522 1.385 . S
C526 C525 1.374 . S
C527 C524 1.499 . S
C527 C528 1.373 . S
C527 C529 1.389 . S
C528 H501 0.950 . S
C528 C514 1.377 . S
C528 C527 1.373 . S
C529 C513 1.377 . S
C529 C527 1.389 . S
C529 C530 1.524 . S
C530 C529 1.524 . S
C530 C531 1.397 . S
C530 C535 1.363 . S
C531 H502 0.950 . S
C531 C530 1.397 . S
C531 C532 1.334 . S
C532 H503 0.950 . S
C532 C531 1.334 . S
C532 C533 1.287 . S
C533 C532 1.287 . S
C533 C534 1.524 . S
C533 H536 0.999 . S
C534 H504 0.950 . S
C534 C533 1.524 . S
C534 C535 1.415 . S
C535 H505 0.950 . S
C535 C530 1.363 . S
C535 C534 1.415 . S
H536 C533 0.999 . S
H537 C518 0.913 . S
H538 C556 0.951 . S
H539 C558 0.951 . S
H540 C560 0.950 . S
H541 C561 0.950 . S
H542 C563 0.950 . S
H543 C566 0.950 . S
H544 C567 0.950 . S
H545 C569 0.950 . S
H546 C570 0.950 . S
H547 C571 0.951 . S
H548 C573 0.951 . S
H549 C575 0.950 . S
H550 C576 0.950 . S
H551 C578 0.950 . S
H552 C581 0.950 . S
H553 C582 0.950 . S
H554 C584 0.950 . S
H555 C585 0.950 . S
C556 H538 0.951 . S
C556 C557 1.366 . S
C556 C558 1.388 . S
C557 C556 1.366 . S
C557 C561 1.385 . S
C558 H539 0.951 . S
C558 C556 1.388 . S
C558 C559 1.366 . S
C559 C558 1.366 . S
C559 C560 1.414 . S
C559 C562 1.499 . S
C560 H540 0.950 . S
C560 C559 1.414 . S
C560 C561 1.374 . S
C561 H541 0.950 . S
C561 C557 1.385 . S
C561 C560 1.374 . S
C562 C559 1.499 . S
C562 C563 1.373 . S
C562 C564 1.389 . S
C563 H542 0.950 . S
C563 C562 1.373 . S
C563 C579 1.377 . S
C564 C562 1.389 . S
C564 C565 1.524 . S
C564 C578 1.377 . S
C565 C564 1.524 . S
C565 C566 1.397 . S
C565 C570 1.363 . S
C566 H543 0.950 . S
C566 C565 1.397 . S
C566 C567 1.334 . S
C567 H544 0.950 . S
C567 C566 1.334 . S
C567 C568 1.287 . S
C568 C567 1.287 . S
C568 C569 1.524 . S
C568 H587 0.913 . S
C569 H545 0.950 . S
C569 C568 1.524 . S
C569 C570 1.415 . S
C570 H546 0.950 . S
C570 C565 1.363 . S
C570 C569 1.415 . S
C571 H547 0.951 . S
C571 C572 1.366 . S
C571 C573 1.388 . S
C572 C571 1.366 . S
C572 C576 1.385 . S
C573 H548 0.951 . S
C573 C571 1.388 . S
C573 C574 1.366 . S
C574 C573 1.366 . S
C574 C575 1.414 . S
C574 C577 1.499 . S
C575 H549 0.950 . S
C575 C574 1.414 . S
C575 C576 1.374 . S
C576 H550 0.950 . S
C576 C572 1.385 . S
C576 C575 1.374 . S
C577 C574 1.499 . S
C577 C578 1.373 . S
C577 C579 1.389 . S
C578 H551 0.950 . S
C578 C564 1.377 . S
C578 C577 1.373 . S
C579 C563 1.377 . S
C579 C577 1.389 . S
C579 C580 1.524 . S
C580 C579 1.524 . S
C580 C581 1.397 . S
C580 C585 1.363 . S
C581 H552 0.950 . S
C581 C580 1.397 . S
C581 C582 1.334 . S
C582 H553 0.950 . S
C582 C581 1.334 . S
C582 C583 1.287 . S
C583 C582 1.287 . S
C583 C584 1.524 . S
C583 H586 0.999 . S
C584 H554 0.950 . S
C584 C583 1.524 . S
C584 C585 1.415 . S
C585 H555 0.950 . S
C585 C580 1.363 . S
C585 C584 1.415 . S
H586 C583 0.999 . S
H587 C568 0.913 . S
H588 C606 0.951 . S
H589 C608 0.951 . S
H590 C610 0.950 . S
H591 C611 0.950 . S
H592 C613 0.950 . S
H593 C616 0.950 . S
H594 C617 0.950 . S
H595 C619 0.950 . S
H596 C620 0.950 . S
H597 C621 0.951 . S
H598 C623 0.951 . S
H599 C625 0.950 . S
H600 C626 0.950 . S
H601 C628 0.950 . S
H602 C631 0.950 . S
H603 C632 0.950 . S
H604 C634 0.950 . S
H605 C635 0.950 . S
C606 H588 0.951 . S
C606 C607 1.366 . S
C606 C608 1.388 . S
C607 C606 1.366 . S
C607 C611 1.385 . S
C608 H589 0.951 . S
C608 C606 1.388 . S
C608 C609 1.366 . S
C609 C608 1.366 . S
C609 C610 1.414 . S
C609 C612 1.499 . S
C610 H590 0.950 . S
C610 C609 1.414 . S
C610 C611 1.374 . S
C611 H591 0.950 . S
C611 C607 1.385 . S
C611 C610 1.374 . S
C612 C609 1.499 . S
C612 C613 1.373 . S
C612 C614 1.389 . S
C613 H592 0.950 . S
C613 C612 1.373 . S
C613 C629 1.377 . S
C614 C612 1.389 . S
C614 C615 1.524 . S
C614 C628 1.377 . S
C615 C614 1.524 . S
C615 C616 1.397 . S
C615 C620 1.363 . S
C616 H593 0.950 . S
C616 C615 1.397 . S
C616 C617 1.334 . S
C617 H594 0.950 . S
C617 C616 1.334 . S
C617 C618 1.287 . S
C618 C617 1.287 . S
C618 C619 1.524 . S
C618 H637 0.913 . S
C619 H595 0.950 . S
C619 C618 1.524 . S
C619 C620 1.415 . S
C620 H596 0.950 . S
C620 C615 1.363 . S
C620 C619 1.415 . S
C621 H597 0.951 . S
C621 C622 1.366 . S
C621 C623 1.388 . S
C622 C621 1.366 . S
C622 C626 1.385 . S
C623 H598 0.951 . S
C623 C621 1.388 . S
C623 C624 1.366 . S
C624 C623 1.366 . S
C624 C625 1.414 . S
C624 C627 1.499 . S
C625 H599 0.950 . S
C625 C624 1.414 . S
C625 C626 1.374 . S
C626 H600 0.950 . S
C626 C622 1.385 . S
C626 C625 1.374 . S
C627 C624 1.499 . S
C627 C628 1.373 . S
C627 C629 1.389 . S
C628 H601 0.950 . S
C628 C614 1.377 . S
C628 C627 1.373 . S
C629 C613 1.377 . S
C629 C627 1.389 . S
C629 C630 1.524 . S
C630 C629 1.524 . S
C630 C631 1.397 . S
C630 C635 1.363 . S
C631 H602 0.950 . S
C631 C630 1.397 . S
C631 C632 1.334 . S
C632 H603 0.950 . S
C632 C631 1.334 . S
C632 C633 1.287 . S
C633 C632 1.287 . S
C633 C634 1.524 . S
C633 H636 0.999 . S
C634 H604 0.950 . S
C634 C633 1.524 . S
C634 C635 1.415 . S
C635 H605 0.950 . S
C635 C630 1.363 . S
C635 C634 1.415 . S
H636 C633 0.999 . S
H637 C618 0.913 . S
H638 C656 0.951 . S
H639 C658 0.951 . S
H640 C660 0.950 . S
H641 C661 0.950 . S
H642 C663 0.950 . S
H643 C666 0.950 . S
H644 C667 0.950 . S
H645 C669 0.950 . S
H646 C670 0.950 . S
H647 C671 0.951 . S
H648 C673 0.951 . S
H649 C675 0.950 . S
H650 C676 0.950 . S
H651 C678 0.950 . S
H652 C681 0.950 . S
H653 C682 0.950 . S
H654 C684 0.950 . S
H655 C685 0.950 . S
C656 H638 0.951 . S
C656 C657 1.366 . S
C656 C658 1.388 . S
C657 C656 1.366 . S
C657 C661 1.385 . S
C658 H639 0.951 . S
C658 C656 1.388 . S
C658 C659 1.366 . S
C659 C658 1.366 . S
C659 C660 1.414 . S
C659 C662 1.499 . S
C660 H640 0.950 . S
C660 C659 1.414 . S
C660 C661 1.374 . S
C661 H641 0.950 . S
C661 C657 1.385 . S
C661 C660 1.374 . S
C662 C659 1.499 . S
C662 C663 1.373 . S
C662 C664 1.389 . S
C663 H642 0.950 . S
C663 C662 1.373 . S
C663 C679 1.377 . S
C664 C662 1.389 . S
C664 C665 1.524 . S
C664 C678 1.377 . S
C665 C664 1.524 . S
C665 C666 1.397 . S
C665 C670 1.363 . S
C666 H643 0.950 . S
C666 C665 1.397 . S
C666 C667 1.334 . S
C667 H644 0.950 . S
C667 C666 1.334 . S
C667 C668 1.287 . S
C668 C667 1.287 . S
C668 C669 1.524 . S
C668 H687 0.913 . S
C669 H645 0.950 . S
C669 C668 1.524 . S
C669 C670 1.415 . S
C670 H646 0.950 . S
C670 C665 1.363 . S
C670 C669 1.415 . S
C671 H647 0.951 . S
C671 C672 1.366 . S
C671 C673 1.388 . S
C672 C671 1.366 . S
C672 C676 1.385 . S
C673 H648 0.951 . S
C673 C671 1.388 . S
C673 C674 1.366 . S
C674 C673 1.366 . S
C674 C675 1.414 . S
C674 C677 1.499 . S
C675 H649 0.950 . S
C675 C674 1.414 . S
C675 C676 1.374 . S
C676 H650 0.950 . S
C676 C672 1.385 . S
C676 C675 1.374 . S
C677 C674 1.499 . S
C677 C678 1.373 . S
C677 C679 1.389 . S
C678 H651 0.950 . S
C678 C664 1.377 . S
C678 C677 1.373 . S
C679 C663 1.377 . S
C679 C677 1.389 . S
C679 C680 1.524 . S
C680 C679 1.524 . S
C680 C681 1.397 . S
C680 C685 1.363 . S
C681 H652 0.950 . S
C681 C680 1.397 . S
C681 C682 1.334 . S
C682 H653 0.950 . S
C682 C681 1.334 . S
C682 C683 1.287 . S
C683 C682 1.287 . S
C683 C684 1.524 . S
C683 H686 0.999 . S
C684 H654 0.950 . S
C684 C683 1.524 . S
C684 C685 1.415 . S
C685 H655 0.950 . S
C685 C680 1.363 . S
C685 C684 1.415 . S
H686 C683 0.999 . S
H687 C668 0.913 . S
H688 C706 0.951 . S
H689 C708 0.951 . S
H690 C710 0.950 . S
H691 C711 0.950 . S
H692 C713 0.950 . S
H693 C716 0.950 . S
H694 C717 0.950 . S
H695 C719 0.950 . S
H696 C720 0.950 . S
H697 C721 0.951 . S
H698 C723 0.951 . S
H699 C725 0.950 . S
H700 C726 0.950 . S
H701 C728 0.950 . S
H702 C731 0.950 . S
H703 C732 0.950 . S
H704 C734 0.950 . S
H705 C735 0.950 . S
C706 H688 0.951 . S
C706 C707 1.366 . S
C706 C708 1.388 . S
C707 C706 1.366 . S
C707 C711 1.385 . S
C708 H689 0.951 . S
C708 C706 1.388 . S
C708 C709 1.366 . S
C709 C708 1.366 . S
C709 C710 1.414 . S
C709 C712 1.499 . S
C710 H690 0.950 . S
C710 C709 1.414 . S
C710 C711 1.374 . S
C711 H691 0.950 . S
C711 C707 1.385 . S
C711 C710 1.374 . S
C712 C709 1.499 . S
C712 C713 1.373 . S
C712 C714 1.389 . S
C713 H692 0.950 . S
C713 C712 1.373 . S
C713 C729 1.377 . S
C714 C712 1.389 . S
C714 C715 1.524 . S
C714 C728 1.377 . S
C715 C714 1.524 . S
C715 C716 1.397 . S
C715 C720 1.363 . S
C716 H693 0.950 . S
C716 C715 1.397 . S
C716 C717 1.334 . S
C717 H694 0.950 . S
C717 C716 1.334 . S
C717 C718 1.287 . S
C718 C717 1.287 . S
C718 C719 1.524 . S
C718 H737 0.913 . S
C719 H695 0.950 . S
C719 C718 1.524 . S
C719 C720 1.415 . S
C720 H696 0.950 . S
C720 C715 1.363 . S
C720 C719 1.415 . S
C721 H697 0.951 . S
C721 C722 1.366 . S
C721 C723 1.388 . S
C722 C721 1.366 . S
C722 C726 1.385 . S
C723 H698 0.951 . S
C723 C721 1.388 . S
C723 C724 1.366 . S
C724 C723 1.366 . S
C724 C725 1.414 . S
C724 C727 1.499 . S
C725 H699 0.950 . S
C725 C724 1.414 . S
C725 C726 1.374 . S
C726 H700 0.950 . S
C726 C722 1.385 . S
C726 C725 1.374 . S
C727 C724 1.499 . S
C727 C728 1.373 . S
C727 C729 1.389 . S
C728 H701 0.950 . S
C728 C714 1.377 . S
C728 C727 1.373 . S
C729 C713 1.377 . S
C729 C727 1.389 . S
C729 C730 1.524 . S
C730 C729 1.524 . S
C730 C731 1.397 . S
C730 C735 1.363 . S
C731 H702 0.950 . S
C731 C730 1.397 . S
C731 C732 1.334 . S
C732 H703 0.950 . S
C732 C731 1.334 . S
C732 C733 1.287 . S
C733 C732 1.287 . S
C733 C734 1.524 . S
C733 H736 0.999 . S
C734 H704 0.950 . S
C734 C733 1.524 . S
C734 C735 1.415 . S
C735 H705 0.950 . S
C735 C730 1.363 . S
C735 C734 1.415 . S
H736 C733 0.999 . S
H737 C718 0.913 . S
H738 C756 0.951 . S
H739 C758 0.951 . S
H740 C760 0.950 1_655 S
H741 C761 0.945 1_655 S
H742 C763 0.951 1_655 S
H743 C766 0.950 . S
H744 C767 0.950 . S
H745 C769 0.950 . S
H746 C770 0.950 . S
H747 C771 0.951 . S
H748 C773 0.951 . S
H749 C775 0.950 . S
H750 C776 0.950 . S
H751 C778 0.950 . S
H752 C781 0.950 . S
H753 C782 0.950 . S
H754 C784 0.950 . S
H755 C785 0.950 . S
C756 H738 0.951 . S
C756 C757 1.366 . S
C756 C758 1.388 . S
C757 C756 1.366 . S
C757 C761 1.390 . S
C758 H739 0.951 . S
C758 C756 1.388 . S
C758 C759 1.366 . S
C759 C758 1.366 . S
C759 C760 1.414 . S
C759 C762 1.499 . S
C760 H740 0.950 1_455 S
C760 C759 1.414 . S
C760 C761 1.374 . S
C761 H741 0.945 1_455 S
C761 C757 1.390 . S
C761 C760 1.374 . S
C762 C759 1.499 . S
C762 C763 1.373 . S
C762 C764 1.389 . S
C763 H742 0.951 1_455 S
C763 C762 1.373 . S
C763 C779 1.376 1_554 S
C764 C762 1.389 . S
C764 C765 1.524 . S
C764 C778 1.377 1_554 S
C765 C764 1.524 . S
C765 C766 1.397 . S
C765 C770 1.363 . S
C766 H743 0.950 . S
C766 C765 1.397 . S
C766 C767 1.334 . S
C767 H744 0.950 . S
C767 C766 1.334 . S
C767 C768 1.287 . S
C768 C767 1.287 . S
C768 C769 1.524 . S
C768 H787 0.913 . S
C769 H745 0.950 . S
C769 C768 1.524 . S
C769 C770 1.415 . S
C770 H746 0.950 . S
C770 C765 1.363 . S
C770 C769 1.415 . S
C771 H747 0.951 . S
C771 C772 1.366 . S
C771 C773 1.388 . S
C772 C771 1.366 . S
C772 C776 1.385 . S
C773 H748 0.951 . S
C773 C771 1.388 . S
C773 C774 1.366 . S
C774 C773 1.366 . S
C774 C775 1.414 . S
C774 C777 1.499 . S
C775 H749 0.950 . S
C775 C774 1.414 . S
C775 C776 1.374 . S
C776 H750 0.950 . S
C776 C772 1.385 . S
C776 C775 1.374 . S
C777 C774 1.499 . S
C777 C778 1.373 . S
C777 C779 1.389 . S
C778 H751 0.950 . S
C778 C764 1.377 1_556 S
C778 C777 1.373 . S
C779 C763 1.376 1_556 S
C779 C777 1.389 . S
C779 C780 1.524 1_455 S
C780 C779 1.524 1_655 S
C780 C781 1.397 . S
C780 C785 1.363 . S
C781 H752 0.950 . S
C781 C780 1.397 . S
C781 C782 1.334 . S
C782 H753 0.950 . S
C782 C781 1.334 . S
C782 C783 1.287 . S
C783 C782 1.287 . S
C783 C784 1.524 . S
C783 H786 0.999 . S
C784 H754 0.950 . S
C784 C783 1.524 . S
C784 C785 1.415 . S
C785 H755 0.950 . S
C785 C780 1.363 . S
C785 C784 1.415 . S
H786 C783 0.999 . S
H787 C768 0.913 . S
H788 C806 0.951 . S
H789 C808 0.951 . S
H790 C810 0.950 . S
H791 C811 0.950 . S
H792 C813 0.962 . S
H793 C816 0.950 . S
H794 C817 0.950 . S
H795 C819 0.950 . S
H796 C820 0.950 . S
H797 C821 0.951 . S
H798 C823 0.951 . S
H799 C825 0.950 . S
H800 C826 0.950 . S
H801 C828 0.950 . S
H802 C831 0.950 . S
H803 C832 0.950 . S
H804 C834 0.950 . S
H805 C835 0.950 . S
C806 H788 0.951 . S
C806 C807 1.366 . S
C806 C808 1.388 . S
C807 C806 1.366 . S
C807 C811 1.385 . S
C808 H789 0.951 . S
C808 C806 1.388 . S
C808 C809 1.366 . S
C809 C808 1.366 . S
C809 C810 1.414 . S
C809 C812 1.499 . S
C810 H790 0.950 . S
C810 C809 1.414 . S
C810 C811 1.374 . S
C811 H791 0.950 . S
C811 C807 1.385 . S
C811 C810 1.374 . S
C812 C809 1.499 . S
C812 C813 1.362 1_545 S
C812 C814 1.389 . S
C813 H792 0.962 . S
C813 C812 1.362 1_565 S
C813 C829 1.377 . S
C814 C812 1.389 . S
C814 C815 1.524 . S
C814 C828 1.377 . S
C815 C814 1.524 . S
C815 C816 1.397 . S
C815 C820 1.363 . S
C816 H793 0.950 . S
C816 C815 1.397 . S
C816 C817 1.334 . S
C817 H794 0.950 . S
C817 C816 1.334 . S
C817 C818 1.287 . S
C818 C817 1.287 . S
C818 C819 1.524 . S
C818 H837 0.913 . S
C819 H795 0.950 . S
C819 C818 1.524 . S
C819 C820 1.415 . S
C820 H796 0.950 . S
C820 C815 1.363 . S
C820 C819 1.415 . S
C821 H797 0.951 . S
C821 C822 1.366 . S
C821 C823 1.388 . S
C822 C821 1.366 . S
C822 C826 1.385 . S
C823 H798 0.951 . S
C823 C821 1.388 . S
C823 C824 1.366 . S
C824 C823 1.366 . S
C824 C825 1.414 . S
C824 C827 1.499 . S
C825 H799 0.950 . S
C825 C824 1.414 . S
C825 C826 1.374 . S
C826 H800 0.950 . S
C826 C822 1.385 . S
C826 C825 1.374 . S
C827 C824 1.499 . S
C827 C828 1.373 . S
C827 C829 1.389 1_545 S
C828 H801 0.950 . S
C828 C814 1.377 . S
C828 C827 1.373 . S
C829 C813 1.377 . S
C829 C827 1.389 1_565 S
C829 C830 1.524 . S
C830 C829 1.524 . S
C830 C831 1.397 . S
C830 C835 1.363 . S
C831 H802 0.950 . S
C831 C830 1.397 . S
C831 C832 1.334 . S
C832 H803 0.950 . S
C832 C831 1.334 . S
C832 C833 1.287 . S
C833 C832 1.287 . S
C833 C834 1.524 . S
C833 H836 0.999 . S
C834 H804 0.950 . S
C834 C833 1.524 . S
C834 C835 1.415 . S
C835 H805 0.950 . S
C835 C830 1.363 . S
C835 C834 1.415 . S
H836 C833 0.999 . S
H837 C818 0.913 . S
H838 C856 0.951 . S
H839 C858 0.951 . S
H840 C860 0.950 . S
H841 C861 0.950 . S
H842 C863 0.950 . S
H843 C866 0.950 . S
H844 C867 0.950 . S
H845 C869 0.950 . S
H846 C870 0.950 . S
H847 C871 0.951 . S
H848 C873 0.951 . S
H849 C875 0.950 . S
H850 C876 0.950 . S
H851 C878 0.950 . S
H852 C881 0.950 . S
H853 C882 0.950 . S
H854 C884 0.950 . S
H855 C885 0.950 . S
C856 H838 0.951 . S
C856 C857 1.366 . S
C856 C858 1.388 . S
C857 C856 1.366 . S
C857 C861 1.385 . S
C858 H839 0.951 . S
C858 C856 1.388 . S
C858 C859 1.366 . S
C859 C858 1.366 . S
C859 C860 1.414 . S
C859 C862 1.499 . S
C860 H840 0.950 . S
C860 C859 1.414 . S
C860 C861 1.374 . S
C861 H841 0.950 . S
C861 C857 1.385 . S
C861 C860 1.374 . S
C862 C859 1.499 . S
C862 C863 1.373 . S
C862 C864 1.389 . S
C863 H842 0.950 . S
C863 C862 1.373 . S
C863 C879 1.377 . S
C864 C862 1.389 . S
C864 C865 1.524 . S
C864 C878 1.377 . S
C865 C864 1.524 . S
C865 C866 1.397 . S
C865 C870 1.363 . S
C866 H843 0.950 . S
C866 C865 1.397 . S
C866 C867 1.334 . S
C867 H844 0.950 . S
C867 C866 1.334 . S
C867 C868 1.287 . S
C868 C867 1.287 . S
C868 C869 1.524 . S
C868 H887 0.913 . S
C869 H845 0.950 . S
C869 C868 1.524 . S
C869 C870 1.415 . S
C870 H846 0.950 . S
C870 C865 1.363 . S
C870 C869 1.415 . S
C871 H847 0.951 . S
C871 C872 1.366 . S
C871 C873 1.388 . S
C872 C871 1.366 . S
C872 C876 1.385 . S
C873 H848 0.951 . S
C873 C871 1.388 . S
C873 C874 1.366 . S
C874 C873 1.366 . S
C874 C875 1.414 . S
C874 C877 1.499 . S
C875 H849 0.950 . S
C875 C874 1.414 . S
C875 C876 1.374 . S
C876 H850 0.950 . S
C876 C872 1.385 . S
C876 C875 1.374 . S
C877 C874 1.499 . S
C877 C878 1.373 . S
C877 C879 1.389 . S
C878 H851 0.950 . S
C878 C864 1.377 . S
C878 C877 1.373 . S
C879 C863 1.377 . S
C879 C877 1.389 . S
C879 C880 1.524 . S
C880 C879 1.524 . S
C880 C881 1.397 . S
C880 C885 1.363 . S
C881 H852 0.950 . S
C881 C880 1.397 . S
C881 C882 1.334 . S
C882 H853 0.950 . S
C882 C881 1.334 . S
C882 C883 1.287 . S
C883 C882 1.287 . S
C883 C884 1.524 . S
C883 H886 0.999 . S
C884 H854 0.950 . S
C884 C883 1.524 . S
C884 C885 1.415 . S
C885 H855 0.950 . S
C885 C880 1.363 . S
C885 C884 1.415 . S
H886 C883 0.999 . S
H887 C868 0.913 . S
H888 C906 0.951 . S
H889 C908 0.951 . S
H890 C910 0.950 . S
H891 C911 0.950 . S
H892 C913 0.950 1_565 S
H893 C916 0.950 1_565 S
H894 C917 0.950 . S
H895 C919 0.950 . S
H896 C920 0.950 . S
H897 C921 0.940 1_565 S
H898 C923 0.951 . S
H899 C925 0.950 . S
H900 C926 0.950 . S
H901 C928 0.950 . S
H902 C931 0.950 . S
H903 C932 0.950 . S
H904 C934 0.950 . S
H905 C935 0.950 . S
C906 H888 0.951 . S
C906 C907 1.366 . S
C906 C908 1.388 . S
C907 C906 1.366 . S
C907 C911 1.385 1_545 S
C908 H889 0.951 . S
C908 C906 1.388 . S
C908 C909 1.366 . S
C909 C908 1.366 . S
C909 C910 1.414 1_545 S
C909 C912 1.499 . S
C910 H890 0.950 . S
C910 C909 1.414 1_565 S
C910 C911 1.374 . S
C911 H891 0.950 . S
C911 C907 1.385 1_565 S
C911 C910 1.374 . S
C912 C909 1.499 . S
C912 C913 1.373 . S
C912 C914 1.389 . S
C913 H892 0.950 1_545 S
C913 C912 1.373 . S
C913 C929 1.377 . S
C914 C912 1.389 . S
C914 C915 1.524 . S
C914 C928 1.377 . S
C915 C914 1.524 . S
C915 C916 1.397 . S
C915 C920 1.363 . S
C916 H893 0.950 1_545 S
C916 C915 1.397 . S
C916 C917 1.334 . S
C917 H894 0.950 . S
C917 C916 1.334 . S
C917 C918 1.287 . S
C918 C917 1.287 . S
C918 C919 1.524 . S
C918 H937 0.913 . S
C919 H895 0.950 . S
C919 C918 1.524 . S
C919 C920 1.415 . S
C920 H896 0.950 . S
C920 C915 1.363 . S
C920 C919 1.415 . S
C921 H897 0.940 1_545 S
C921 C922 1.377 . S
C921 C923 1.387 1_545 S
C922 C921 1.377 . S
C922 C926 1.385 . S
C923 H898 0.951 . S
C923 C921 1.387 1_565 S
C923 C924 1.366 1_565 S
C924 C923 1.366 1_545 S
C924 C925 1.414 . S
C924 C927 1.499 . S
C925 H899 0.950 . S
C925 C924 1.414 . S
C925 C926 1.374 . S
C926 H900 0.950 . S
C926 C922 1.385 . S
C926 C925 1.374 . S
C927 C924 1.499 . S
C927 C928 1.373 . S
C927 C929 1.389 . S
C928 H901 0.950 . S
C928 C914 1.377 . S
C928 C927 1.373 . S
C929 C913 1.377 . S
C929 C927 1.389 . S
C929 C930 1.524 . S
C930 C929 1.524 . S
C930 C931 1.397 . S
C930 C935 1.363 1_545 S
C931 H902 0.950 . S
C931 C930 1.397 . S
C931 C932 1.334 . S
C932 H903 0.950 . S
C932 C931 1.334 . S
C932 C933 1.287 1_545 S
C933 C932 1.287 1_565 S
C933 C934 1.524 . S
C933 H936 0.999 . S
C934 H904 0.950 . S
C934 C933 1.524 . S
C934 C935 1.415 . S
C935 H905 0.950 . S
C935 C930 1.363 1_565 S
C935 C934 1.415 . S
H936 C933 0.999 . S
H937 C918 0.913 . S
H938 C956 0.951 . S
H939 C958 0.951 . S
H940 C960 0.950 . S
H941 C961 0.950 . S
H942 C963 0.950 . S
H943 C966 0.950 . S
H944 C967 0.950 . S
H945 C969 0.950 . S
H946 C970 0.950 . S
H947 C971 0.951 . S
H948 C973 0.951 . S
H949 C975 0.950 . S
H950 C976 0.950 . S
H951 C978 0.950 1_554 S
H952 C981 0.950 . S
H953 C982 0.950 . S
H954 C984 0.950 . S
H955 C985 0.950 . S
C956 H938 0.951 . S
C956 C957 1.366 . S
C956 C958 1.388 . S
C957 C956 1.366 . S
C957 C961 1.385 . S
C958 H939 0.951 . S
C958 C956 1.388 . S
C958 C959 1.366 . S
C959 C958 1.366 . S
C959 C960 1.414 . S
C959 C962 1.499 . S
C960 H940 0.950 . S
C960 C959 1.414 . S
C960 C961 1.374 . S
C961 H941 0.950 . S
C961 C957 1.385 . S
C961 C960 1.374 . S
C962 C959 1.499 . S
C962 C963 1.373 . S
C962 C964 1.389 . S
C963 H942 0.950 . S
C963 C962 1.373 . S
C963 C979 1.377 1_556 S
C964 C962 1.389 . S
C964 C965 1.524 . S
C964 C978 1.377 . S
C965 C964 1.524 . S
C965 C966 1.397 . S
C965 C970 1.363 . S
C966 H943 0.950 . S
C966 C965 1.397 . S
C966 C967 1.334 . S
C967 H944 0.950 . S
C967 C966 1.334 . S
C967 C968 1.287 . S
C968 C967 1.287 . S
C968 C969 1.524 . S
C968 H987 0.913 . S
C969 H945 0.950 . S
C969 C968 1.524 . S
C969 C970 1.415 . S
C970 H946 0.950 . S
C970 C965 1.363 . S
C970 C969 1.415 . S
C971 H947 0.951 . S
C971 C972 1.366 . S
C971 C973 1.388 . S
C972 C971 1.366 . S
C972 C976 1.385 . S
C973 H948 0.951 . S
C973 C971 1.388 . S
C973 C974 1.366 . S
C974 C973 1.366 . S
C974 C975 1.414 . S
C974 C977 1.499 . S
C975 H949 0.950 . S
C975 C974 1.414 . S
C975 C976 1.374 . S
C976 H950 0.950 . S
C976 C972 1.385 . S
C976 C975 1.374 . S
C977 C974 1.499 . S
C977 C978 1.373 1_554 S
C977 C979 1.389 . S
C978 H951 0.950 1_556 S
C978 C964 1.377 . S
C978 C977 1.373 1_556 S
C979 C963 1.377 1_554 S
C979 C977 1.389 . S
C979 C980 1.524 . S
C980 C979 1.524 . S
C980 C981 1.397 . S
C980 C985 1.363 . S
C981 H952 0.950 . S
C981 C980 1.397 . S
C981 C982 1.334 . S
C982 H953 0.950 . S
C982 C981 1.334 . S
C982 C983 1.287 . S
C983 C982 1.287 . S
C983 C984 1.524 . S
C983 H986 0.999 . S
C984 H954 0.950 . S
C984 C983 1.524 . S
C984 C985 1.415 . S
C985 H955 0.950 . S
C985 C980 1.363 . S
C985 C984 1.415 . S
H986 C983 0.999 . S
H987 C968 0.913 . S
H988 C1006 0.951 . S
H989 C1008 0.951 . S
H990 C1010 0.950 . S
H991 C1011 0.950 . S
H992 C1013 0.950 . S
H993 C1016 0.950 1_455 S
H994 C1017 0.950 . S
H995 C1019 0.950 . S
H996 C1020 0.950 . S
H997 C1021 0.951 . S
H998 C1023 0.951 . S
H999 C1025 0.950 . S
H1000 C1026 0.950 . S
H1001 C1028 0.950 . S
H1002 C1031 0.950 1_655 S
H1003 C1032 0.950 . S
H1004 C1034 0.950 . S
H1005 C1035 0.950 . S
C1006 H988 0.951 . S
C1006 C1007 1.366 . S
C1006 C1008 1.388 . S
C1007 C1006 1.366 . S
C1007 C1011 1.385 1_655 S
C1008 H989 0.951 . S
C1008 C1006 1.388 . S
C1008 C1009 1.366 . S
C1009 C1008 1.366 . S
C1009 C1010 1.414 1_655 S
C1009 C1012 1.499 1_655 S
C1010 H990 0.950 . S
C1010 C1009 1.414 1_455 S
C1010 C1011 1.374 . S
C1011 H991 0.950 . S
C1011 C1007 1.385 1_455 S
C1011 C1010 1.374 . S
C1012 C1009 1.499 1_455 S
C1012 C1013 1.378 . S
C1012 C1014 1.384 1_455 S
C1013 H992 0.950 . S
C1013 C1012 1.378 . S
C1013 C1029 1.377 . S
C1014 C1012 1.384 1_655 S
C1014 C1015 1.524 . S
C1014 C1028 1.377 . S
C1015 C1014 1.524 . S
C1015 C1016 1.397 . S
C1015 C1020 1.363 . S
C1016 H993 0.950 1_655 S
C1016 C1015 1.397 . S
C1016 C1017 1.334 . S
C1017 H994 0.950 . S
C1017 C1016 1.334 . S
C1017 C1018 1.287 . S
C1018 C1017 1.287 . S
C1018 C1019 1.524 . S
C1018 H1037 0.913 . S
C1019 H995 0.950 . S
C1019 C1018 1.524 . S
C1019 C1020 1.415 . S
C1020 H996 0.950 . S
C1020 C1015 1.363 . S
C1020 C1019 1.415 . S
C1021 H997 0.951 . S
C1021 C1022 1.366 . S
C1021 C1023 1.388 . S
C1022 C1021 1.366 . S
C1022 C1026 1.385 1_455 S
C1023 H998 0.951 . S
C1023 C1021 1.388 . S
C1023 C1024 1.366 . S
C1024 C1023 1.366 . S
C1024 C1025 1.414 1_455 S
C1024 C1027 1.499 . S
C1025 H999 0.950 . S
C1025 C1024 1.414 1_655 S
C1025 C1026 1.374 . S
C1026 H1000 0.950 . S
C1026 C1022 1.385 1_655 S
C1026 C1025 1.374 . S
C1027 C1024 1.499 . S
C1027 C1028 1.352 1_455 S
C1027 C1029 1.412 . S
C1028 H1001 0.950 . S
C1028 C1014 1.377 . S
C1028 C1027 1.352 1_655 S
C1029 C1013 1.377 . S
C1029 C1027 1.412 . S
C1029 C1030 1.524 . S
C1030 C1029 1.524 . S
C1030 C1031 1.397 . S
C1030 C1035 1.363 . S
C1031 H1002 0.950 1_455 S
C1031 C1030 1.397 . S
C1031 C1032 1.334 . S
C1032 H1003 0.950 . S
C1032 C1031 1.334 . S
C1032 C1033 1.287 . S
C1033 C1032 1.287 . S
C1033 C1034 1.524 . S
C1033 H1036 0.999 . S
C1034 H1004 0.950 . S
C1034 C1033 1.524 . S
C1034 C1035 1.415 . S
C1035 H1005 0.950 . S
C1035 C1030 1.363 . S
C1035 C1034 1.415 . S
H1036 C1033 0.999 . S
H1037 C1018 0.913 . S
C157 C8 1.629 . S
C172 N127 1.662 . S
C207 C26 1.225 . S
C222 N100 1.227 1_655 S
C257 C48 1.398 . S
C272 N113 1.448 1_565 S
C307 C19 1.991 . S
C322 N126 2.116 . S
C372 N101 1.557 . S
C357 C36 1.517 . S
C422 N114 1.695 . S
C407 C59 1.604 . S
C457 C28 1.404 . S
C472 N74 1.452 . S
C507 C46 0.846 . S
C522 N88 0.844 1_655 S
C557 C16 1.517 . S
C572 N62 1.545 . S
C622 N75 1.696 . S
C607 C39 1.605 . S
C672 N87 1.336 . S
C657 C56 1.278 . S
C707 C6 1.259 . S
C722 N61 1.259 . S
C772 N91 1.529 . S
C757 C9 1.526 . S
C807 C21 1.532 . S
C822 N65 1.536 . S
C857 C49 1.553 . S
C872 N78 1.575 . S
C922 N117 1.537 . S
C907 C29 1.528 . S
C972 N130 1.596 . S
C957 C41 1.616 . S
C1007 C1 1.577 . S
C1022 N104 1.581 . S
