# Generated by pormake.
# Topology eea, (3,6)-cn, num edge types: 1
# Building blocks:
#     Node 0, Type 0, BuildingBlock: BETDAH_clean_linker_0, # of connection points: 3
#     Node 1, Type 0, BuildingBlock: BETDAH_clean_linker_0, # of connection points: 3
#     Node 2, Type 0, BuildingBlock: BETDAH_clean_linker_0, # of connection points: 3
#     Node 3, Type 0, BuildingBlock: BETDAH_clean_linker_0, # of connection points: 3
#     Node 4, Type 0, BuildingBlock: BETDAH_clean_linker_0, # of connection points: 3
#     Node 5, Type 0, BuildingBlock: BETDAH_clean_linker_0, # of connection points: 3
#     Node 6, Type 0, BuildingBlock: BETDAH_clean_linker_0, # of connection points: 3
#     Node 7, Type 0, BuildingBlock: BETDAH_clean_linker_0, # of connection points: 3
#     Node 8, Type 0, BuildingBlock: BETDAH_clean_linker_0, # of connection points: 3
#     Node 9, Type 0, BuildingBlock: BETDAH_clean_linker_0, # of connection points: 3
#     Node 10, Type 0, BuildingBlock: BETDAH_clean_linker_0, # of connection points: 3
#     Node 11, Type 0, BuildingBlock: BETDAH_clean_linker_0, # of connection points: 3
#     Node 12, Type 0, BuildingBlock: BETDAH_clean_linker_0, # of connection points: 3
#     Node 13, Type 0, BuildingBlock: BETDAH_clean_linker_0, # of connection points: 3
#     Node 14, Type 0, BuildingBlock: BETDAH_clean_linker_0, # of connection points: 3
#     Node 15, Type 0, BuildingBlock: BETDAH_clean_linker_0, # of connection points: 3
#     Node 16, Type 0, BuildingBlock: BETDAH_clean_linker_0, # of connection points: 3
#     Node 17, Type 0, BuildingBlock: BETDAH_clean_linker_0, # of connection points: 3
#     Node 18, Type 1, BuildingBlock: KUMJIN_clean_sbu_0, # of connection points: 6
#     Node 19, Type 1, BuildingBlock: KUMJIN_clean_sbu_0, # of connection points: 6
#     Node 20, Type 1, BuildingBlock: KUMJIN_clean_sbu_0, # of connection points: 6
#     Node 21, Type 1, BuildingBlock: KUMJIN_clean_sbu_0, # of connection points: 6
#     Node 22, Type 1, BuildingBlock: KUMJIN_clean_sbu_0, # of connection points: 6
#     Node 23, Type 1, BuildingBlock: KUMJIN_clean_sbu_0, # of connection points: 6
#     Node 24, Type 1, BuildingBlock: KUMJIN_clean_sbu_0, # of connection points: 6
#     Node 25, Type 1, BuildingBlock: KUMJIN_clean_sbu_0, # of connection points: 6
#     Node 26, Type 1, BuildingBlock: KUMJIN_clean_sbu_0, # of connection points: 6
#     Edge 27, Type (0, 1), BuildingBlock: TEMPAE_clean_linker_10, # of connection points: 2
#     Edge 28, Type (0, 1), BuildingBlock: TEMPAE_clean_linker_10, # of connection points: 2
#     Edge 29, Type (0, 1), BuildingBlock: TEMPAE_clean_linker_10, # of connection points: 2
#     Edge 30, Type (0, 1), BuildingBlock: TEMPAE_clean_linker_10, # of connection points: 2
#     Edge 31, Type (0, 1), BuildingBlock: TEMPAE_clean_linker_10, # of connection points: 2
#     Edge 32, Type (0, 1), BuildingBlock: TEMPAE_clean_linker_10, # of connection points: 2
#     Edge 33, Type (0, 1), BuildingBlock: TEMPAE_clean_linker_10, # of connection points: 2
#     Edge 34, Type (0, 1), BuildingBlock: TEMPAE_clean_linker_10, # of connection points: 2
#     Edge 35, Type (0, 1), BuildingBlock: TEMPAE_clean_linker_10, # of connection points: 2
#     Edge 36, Type (0, 1), BuildingBlock: TEMPAE_clean_linker_10, # of connection points: 2
#     Edge 37, Type (0, 1), BuildingBlock: TEMPAE_clean_linker_10, # of connection points: 2
#     Edge 38, Type (0, 1), BuildingBlock: TEMPAE_clean_linker_10, # of connection points: 2
#     Edge 39, Type (0, 1), BuildingBlock: TEMPAE_clean_linker_10, # of connection points: 2
#     Edge 40, Type (0, 1), BuildingBlock: TEMPAE_clean_linker_10, # of connection points: 2
#     Edge 41, Type (0, 1), BuildingBlock: TEMPAE_clean_linker_10, # of connection points: 2
#     Edge 42, Type (0, 1), BuildingBlock: TEMPAE_clean_linker_10, # of connection points: 2
#     Edge 43, Type (0, 1), BuildingBlock: TEMPAE_clean_linker_10, # of connection points: 2
#     Edge 44, Type (0, 1), BuildingBlock: TEMPAE_clean_linker_10, # of connection points: 2
#     Edge 45, Type (0, 1), BuildingBlock: TEMPAE_clean_linker_10, # of connection points: 2
#     Edge 46, Type (0, 1), BuildingBlock: TEMPAE_clean_linker_10, # of connection points: 2
#     Edge 47, Type (0, 1), BuildingBlock: TEMPAE_clean_linker_10, # of connection points: 2
#     Edge 48, Type (0, 1), BuildingBlock: TEMPAE_clean_linker_10, # of connection points: 2
#     Edge 49, Type (0, 1), BuildingBlock: TEMPAE_clean_linker_10, # of connection points: 2
#     Edge 50, Type (0, 1), BuildingBlock: TEMPAE_clean_linker_10, # of connection points: 2
#     Edge 51, Type (0, 1), BuildingBlock: TEMPAE_clean_linker_10, # of connection points: 2
#     Edge 52, Type (0, 1), BuildingBlock: TEMPAE_clean_linker_10, # of connection points: 2
#     Edge 53, Type (0, 1), BuildingBlock: TEMPAE_clean_linker_10, # of connection points: 2
#     Edge 54, Type (0, 1), BuildingBlock: TEMPAE_clean_linker_10, # of connection points: 2
#     Edge 55, Type (0, 1), BuildingBlock: TEMPAE_clean_linker_10, # of connection points: 2
#     Edge 56, Type (0, 1), BuildingBlock: TEMPAE_clean_linker_10, # of connection points: 2
#     Edge 57, Type (0, 1), BuildingBlock: TEMPAE_clean_linker_10, # of connection points: 2
#     Edge 58, Type (0, 1), BuildingBlock: TEMPAE_clean_linker_10, # of connection points: 2
#     Edge 59, Type (0, 1), BuildingBlock: TEMPAE_clean_linker_10, # of connection points: 2
#     Edge 60, Type (0, 1), BuildingBlock: TEMPAE_clean_linker_10, # of connection points: 2
#     Edge 61, Type (0, 1), BuildingBlock: TEMPAE_clean_linker_10, # of connection points: 2
#     Edge 62, Type (0, 1), BuildingBlock: TEMPAE_clean_linker_10, # of connection points: 2
#     Edge 63, Type (0, 1), BuildingBlock: TEMPAE_clean_linker_10, # of connection points: 2
#     Edge 64, Type (0, 1), BuildingBlock: TEMPAE_clean_linker_10, # of connection points: 2
#     Edge 65, Type (0, 1), BuildingBlock: TEMPAE_clean_linker_10, # of connection points: 2
#     Edge 66, Type (0, 1), BuildingBlock: TEMPAE_clean_linker_10, # of connection points: 2
#     Edge 67, Type (0, 1), BuildingBlock: TEMPAE_clean_linker_10, # of connection points: 2
#     Edge 68, Type (0, 1), BuildingBlock: TEMPAE_clean_linker_10, # of connection points: 2
#     Edge 69, Type (0, 1), BuildingBlock: TEMPAE_clean_linker_10, # of connection points: 2
#     Edge 70, Type (0, 1), BuildingBlock: TEMPAE_clean_linker_10, # of connection points: 2
#     Edge 71, Type (0, 1), BuildingBlock: TEMPAE_clean_linker_10, # of connection points: 2
#     Edge 72, Type (0, 1), BuildingBlock: TEMPAE_clean_linker_10, # of connection points: 2
#     Edge 73, Type (0, 1), BuildingBlock: TEMPAE_clean_linker_10, # of connection points: 2
#     Edge 74, Type (0, 1), BuildingBlock: TEMPAE_clean_linker_10, # of connection points: 2
#     Edge 75, Type (0, 1), BuildingBlock: TEMPAE_clean_linker_10, # of connection points: 2
#     Edge 76, Type (0, 1), BuildingBlock: TEMPAE_clean_linker_10, # of connection points: 2
#     Edge 77, Type (0, 1), BuildingBlock: TEMPAE_clean_linker_10, # of connection points: 2
#     Edge 78, Type (0, 1), BuildingBlock: TEMPAE_clean_linker_10, # of connection points: 2
#     Edge 79, Type (0, 1), BuildingBlock: TEMPAE_clean_linker_10, # of connection points: 2
#     Edge 80, Type (0, 1), BuildingBlock: TEMPAE_clean_linker_10, # of connection points: 2
# Relax obj value: 0.023
# Max RMSD: 0.163
# Mean RMSD: 0.118
data_MOF--net-eea--node1-KUMJIN_clean_sbu_0--node2-BETDAH_clean_linker_0--edge1-TEMPAE_clean_linker_10
_symmetry_space_group_name_H-M    P1
_symmetry_Int_Tables_number       1
_symmetry_cell_setting            triclinic
loop_
_symmetry_equiv_pos_as_xyz
'x, y, z'
_cell_length_a     55.424065
_cell_length_b     56.634809
_cell_length_c     67.438699
_cell_angle_alpha  90.118483
_cell_angle_beta   90.187643
_cell_angle_gamma 119.94995
loop_
_atom_site_label
_atom_site_type_symbol
_atom_site_fract_x
_atom_site_fract_y
_atom_site_fract_z
_atom_type_partial_charge
H0 H 0.25103 0.07395 0.43912 0.0
H1 H 0.25491 0.15 0.42464 0.0
H2 H 0.22196 0.08412 0.38249 0.0
C3 C 0.24711 0.08647 0.42895 0.0
C4 C 0.23514 0.07577 0.4104 0.0
C5 C 0.25421 0.11323 0.43436 0.0
C6 C 0.24942 0.12935 0.42073 0.0
C7 C 0.23775 0.11869 0.40197 0.0
C8 C 0.23072 0.09207 0.39702 0.0
N9 N 0.23337 0.13407 0.38731 0.0
C10 C 0.23288 0.158 0.39059 0.0
H11 H 0.94687 0.18226 0.4358 0.0
H12 H 0.88061 0.09865 0.43156 0.0
H13 H 0.94473 0.1315 0.38752 0.0
C14 C 0.93688 0.16279 0.42816 0.0
C15 C 0.94858 0.1598 0.4105 0.0
C16 C 0.9124 0.14082 0.43601 0.0
C17 C 0.89955 0.11564 0.42583 0.0
C18 C 0.91127 0.11243 0.40827 0.0
C19 C 0.93571 0.13439 0.4009 0.0
N20 N 0.89962 0.08741 0.39768 0.0
C21 C 0.87273 0.06559 0.3998 0.0
H22 H 0.83282 0.7706 0.43606 0.0
H23 H 0.91672 0.78496 0.43 0.0
H24 H 0.88376 0.81779 0.38741 0.0
C25 C 0.85231 0.7793 0.42808 0.0
C26 C 0.85519 0.79394 0.41056 0.0
C27 C 0.87429 0.77583 0.4354 0.0
C28 C 0.89962 0.78741 0.42474 0.0
C29 C 0.90293 0.80254 0.40738 0.0
C30 C 0.8808 0.80575 0.4006 0.0
N31 N 0.92842 0.81617 0.3967 0.0
C32 C 0.94986 0.81001 0.39638 0.0
H33 H 0.06864 0.23825 0.5953 0.0
H34 H 0.13835 0.22452 0.60041 0.0
H35 H 0.07346 0.19169 0.64392 0.0
C36 C 0.0795 0.22963 0.60316 0.0
C37 C 0.06803 0.21501 0.6208 0.0
C38 C 0.10479 0.23311 0.59551 0.0
C39 C 0.11888 0.22194 0.60598 0.0
C40 C 0.10756 0.20713 0.62354 0.0
C41 C 0.08221 0.20362 0.63062 0.0
N42 N 0.12011 0.19432 0.63418 0.0
C43 C 0.14798 0.20099 0.63371 0.0
H44 H 0.75896 0.82963 0.5946 0.0
H45 H 0.74954 0.89864 0.60944 0.0
H46 H 0.77682 0.86266 0.65376 0.0
C47 C 0.76048 0.84464 0.6053 0.0
C48 C 0.76916 0.84404 0.62476 0.0
C49 C 0.75314 0.86415 0.59968 0.0
C50 C 0.75543 0.88373 0.6136 0.0
C51 C 0.76376 0.8829 0.6332 0.0
C52 C 0.77026 0.86297 0.63864 0.0
N53 N 0.76489 0.90104 0.64814 0.0
C54 C 0.76806 0.92652 0.64458 0.0
H55 H 0.17306 0.9395 0.58639 0.0
H56 H 0.09154 0.86982 0.59639 0.0
H57 H 0.12777 0.93512 0.63903 0.0
C58 C 0.15449 0.92877 0.59536 0.0
C59 C 0.15316 0.94014 0.61352 0.0
C60 C 0.13246 0.90333 0.58898 0.0
C61 C 0.10879 0.88922 0.60119 0.0
C62 C 0.10711 0.90095 0.61923 0.0
C63 C 0.1293 0.92618 0.62518 0.0
N64 N 0.08322 0.88905 0.63155 0.0
C65 C 0.06211 0.86194 0.63172 0.0
H66 H 0.91751 0.40569 0.77478 0.0
H67 H 0.91742 0.47981 0.76011 0.0
H68 H 0.8841 0.41267 0.71904 0.0
C69 C 0.91245 0.4175 0.7647 0.0
C70 C 0.89963 0.40599 0.74653 0.0
C71 C 0.91879 0.44411 0.76988 0.0
C72 C 0.91258 0.4593 0.75634 0.0
C73 C 0.90006 0.44782 0.73794 0.0
C74 C 0.89362 0.4213 0.73328 0.0
N75 N 0.89388 0.46212 0.72345 0.0
C76 C 0.89533 0.48704 0.72627 0.0
H77 H 0.62221 0.51597 0.77173 0.0
H78 H 0.55226 0.43452 0.76624 0.0
H79 H 0.61095 0.46915 0.71871 0.0
C80 C 0.61071 0.49725 0.7633 0.0
C81 C 0.61971 0.4955 0.74416 0.0
C82 C 0.58655 0.47533 0.77153 0.0
C83 C 0.5708 0.45154 0.76008 0.0
C84 C 0.57968 0.44952 0.74093 0.0
C85 C 0.60409 0.47131 0.73329 0.0
N86 N 0.56527 0.42585 0.72889 0.0
C87 C 0.53891 0.4037 0.73232 0.0
H88 H 0.50168 0.10786 0.77018 0.0
H89 H 0.58536 0.12144 0.76586 0.0
H90 H 0.55361 0.1527 0.7211 0.0
C91 C 0.5214 0.11656 0.76248 0.0
C92 C 0.5246 0.1303 0.74445 0.0
C93 C 0.54314 0.11328 0.77048 0.0
C94 C 0.56836 0.12351 0.75985 0.0
C95 C 0.57204 0.13777 0.74198 0.0
C96 C 0.55027 0.14118 0.73462 0.0
N97 N 0.59769 0.15077 0.73147 0.0
C98 C 0.6187 0.144 0.73147 0.0
H99 H 0.72599 0.56486 0.92688 0.0
H100 H 0.7961 0.55191 0.93271 0.0
H101 H 0.73517 0.52629 0.97896 0.0
C102 C 0.73727 0.55712 0.93524 0.0
C103 C 0.72742 0.54555 0.95404 0.0
C104 C 0.76186 0.55935 0.92722 0.0
C105 C 0.77734 0.55058 0.93867 0.0
C106 C 0.76763 0.53873 0.95743 0.0
C107 C 0.74272 0.5361 0.96475 0.0
N108 N 0.78104 0.52765 0.96911 0.0
C109 C 0.80859 0.53336 0.96798 0.0
H110 H 0.42576 0.16318 0.92912 0.0
H111 H 0.4567 0.24999 0.92546 0.0
H112 H 0.48643 0.21796 0.97073 0.0
C113 C 0.43896 0.1839 0.93421 0.0
C114 C 0.4563 0.18819 0.9506 0.0
C115 C 0.4387 0.20596 0.92464 0.0
C116 C 0.4555 0.23239 0.93264 0.0
C117 C 0.4722 0.23654 0.94949 0.0
C118 C 0.47279 0.2145 0.95815 0.0
N119 N 0.48973 0.26282 0.95756 0.0
C120 C 0.48352 0.28369 0.95713 0.0
H121 H 0.83557 0.26732 0.92065 0.0
H122 H 0.7559 0.1958 0.93203 0.0
H123 H 0.79167 0.26157 0.97432 0.0
C124 C 0.81743 0.25615 0.92995 0.0
C125 C 0.81629 0.26741 0.94822 0.0
C126 C 0.79584 0.23027 0.9239 0.0
C127 C 0.77277 0.21558 0.93655 0.0
C128 C 0.7713 0.22713 0.95474 0.0
C129 C 0.79306 0.2528 0.96036 0.0
N130 N 0.74817 0.21448 0.96775 0.0
C131 C 0.72652 0.18761 0.96731 0.0
H132 H 0.58462 0.74157 0.10647 0.0
H133 H 0.59322 0.8191 0.09008 0.0
H134 H 0.56232 0.75338 0.04786 0.0
C135 C 0.58231 0.75456 0.09575 0.0
C136 C 0.57191 0.74421 0.07682 0.0
C137 C 0.58997 0.78158 0.10083 0.0
C138 C 0.58724 0.79823 0.08648 0.0
C139 C 0.57729 0.78792 0.06733 0.0
C140 C 0.56978 0.76109 0.06269 0.0
N141 N 0.57559 0.80404 0.05196 0.0
C142 C 0.57212 0.82642 0.05474 0.0
H143 H 0.27776 0.8478 0.10084 0.0
H144 H 0.2098 0.76505 0.09655 0.0
H145 H 0.27332 0.79674 0.05202 0.0
C146 C 0.26723 0.8284 0.09311 0.0
C147 C 0.27844 0.82514 0.07531 0.0
C148 C 0.2425 0.80681 0.10101 0.0
C149 C 0.22894 0.78171 0.09076 0.0
C150 C 0.24009 0.77821 0.07302 0.0
C151 C 0.26474 0.79983 0.06556 0.0
N152 N 0.22752 0.75328 0.06226 0.0
C153 C 0.20099 0.73126 0.06537 0.0
H154 H 0.16104 0.43555 0.10357 0.0
H155 H 0.24494 0.44998 0.09748 0.0
H156 H 0.21155 0.4819 0.05448 0.0
C157 C 0.18047 0.44415 0.09552 0.0
C158 C 0.18318 0.45847 0.07786 0.0
C159 C 0.20253 0.44087 0.1029 0.0
C160 C 0.22778 0.45229 0.09216 0.0
C161 C 0.23092 0.46707 0.07464 0.0
C162 C 0.2087 0.47011 0.06779 0.0
N163 N 0.25631 0.48046 0.06383 0.0
C164 C 0.27793 0.47454 0.06384 0.0
H165 H 0.39989 0.90234 0.26058 0.0
H166 H 0.46807 0.88627 0.26556 0.0
H167 H 0.40299 0.85453 0.30895 0.0
C168 C 0.4103 0.89322 0.26839 0.0
C169 C 0.3985 0.87858 0.28596 0.0
C170 C 0.43534 0.89607 0.26074 0.0
C171 C 0.44881 0.88422 0.27114 0.0
C172 C 0.43713 0.86935 0.28862 0.0
C173 C 0.41205 0.86649 0.29571 0.0
N174 N 0.44898 0.85575 0.29911 0.0
C175 C 0.47676 0.86209 0.29898 0.0
H176 H 0.10758 0.5062 0.25751 0.0
H177 H 0.08825 0.56956 0.27029 0.0
H178 H 0.1074 0.53119 0.31774 0.0
C179 C 0.1055 0.51956 0.26804 0.0
C180 C 0.10901 0.51671 0.28838 0.0
C181 C 0.09777 0.53841 0.26131 0.0
C182 C 0.09427 0.55502 0.27523 0.0
C183 C 0.09768 0.55219 0.29559 0.0
C184 C 0.10473 0.53299 0.30199 0.0
N185 N 0.09306 0.56747 0.3102 0.0
C186 C 0.09835 0.59389 0.30746 0.0
H187 H 0.50219 0.60229 0.25629 0.0
H188 H 0.41822 0.53533 0.26294 0.0
H189 H 0.4508 0.60298 0.30356 0.0
C190 C 0.48255 0.59254 0.26416 0.0
C191 C 0.47927 0.60554 0.28082 0.0
C192 C 0.46057 0.56738 0.25734 0.0
C193 C 0.43538 0.55459 0.26806 0.0
C194 C 0.43192 0.56764 0.28473 0.0
C195 C 0.4537 0.5931 0.29073 0.0
N196 N 0.40649 0.55683 0.29528 0.0
C197 C 0.38682 0.52938 0.29724 0.0
Eu198 Eu 0.49137 0.98706 0.99053 0.0
C199 C 0.54857 0.08297 0.05221 0.0
C200 C 0.59706 0.09511 0.05357 0.0
C201 C 0.58411 0.12956 0.05995 0.0
C202 C 0.56882 0.07574 0.05013 0.0
C203 C 0.55591 0.10987 0.05743 0.0
C204 C 0.60464 0.12216 0.05811 0.0
C205 C 0.50686 0.09528 0.05896 0.0
N206 N 0.52153 0.06336 0.05004 0.0
C207 C 0.50064 0.06882 0.05405 0.0
C208 C 0.53464 0.11598 0.06046 0.0
Eu209 Eu 0.51256 0.01943 0.04052 0.0
N210 N 0.56081 0.04946 0.04563 0.0
C211 C 0.57989 0.0409 0.0453 0.0
C212 C 0.61673 0.08654 0.05285 0.0
C213 C 0.6081 0.05931 0.04872 0.0
H214 H 0.47913 0.05289 0.05283 0.0
H215 H 0.62315 0.05245 0.04824 0.0
H216 H 0.62627 0.13739 0.06056 0.0
H217 H 0.49026 0.09969 0.06161 0.0
H218 H 0.57361 0.01995 0.04217 0.0
H219 H 0.37987 0.95113 0.98546 0.0
H220 H 0.63851 0.10062 0.05589 0.0
H221 H 0.52565 0.95545 0.9756 0.0
H222 H 0.42957 0.98493 0.98962 0.0
H223 H 0.51546 0.90916 0.96617 0.0
H224 H 0.59019 0.15039 0.06381 0.0
H225 H 0.36529 0.90285 0.97889 0.0
H226 H 0.37873 0.86706 0.97332 0.0
H227 H 0.53942 0.13643 0.0644 0.0
H228 H 0.41565 0.85556 0.96818 0.0
N229 N 0.44316 0.95603 0.9862 0.0
C230 C 0.42359 0.96395 0.98686 0.0
C231 C 0.38716 0.91755 0.98098 0.0
C232 C 0.40738 0.90975 0.97948 0.0
C233 C 0.39532 0.94482 0.98453 0.0
C234 C 0.43561 0.92981 0.98196 0.0
H235 H 0.4667 0.87121 0.96515 0.0
N236 N 0.48318 0.94361 0.98033 0.0
C237 C 0.49861 0.91285 0.9698 0.0
C238 C 0.45628 0.92336 0.979 0.0
C239 C 0.50431 0.93904 0.9751 0.0
C240 C 0.47107 0.89147 0.96931 0.0
C241 C 0.44945 0.89666 0.9736 0.0
O242 O 0.51497 0.99936 0.96286 0.0
O243 O 0.5245 0.02033 0.00887 0.0
O244 O 0.50939 0.04896 0.01971 0.0
O245 O 0.47791 0.01859 0.99642 0.0
O246 O 0.53768 0.00212 0.98844 0.0
O247 O 0.47761 0.00196 0.96539 0.0
O248 O 0.4895 0.00959 0.06841 0.0
O249 O 0.47957 0.98607 0.02224 0.0
O250 O 0.49601 0.95764 0.01071 0.0
O251 O 0.52557 0.98758 0.0351 0.0
O252 O 0.46624 0.00445 0.0424 0.0
O253 O 0.52432 0.00272 0.06558 0.0
C254 C 0.54586 0.02107 1.00166 0.0
C255 C 0.48989 0.99437 0.93329 0.0
C256 C 0.49193 0.0022 0.89732 0.0
C257 C 0.49889 0.01235 0.91697 0.0
C258 C 0.47613 0.97376 0.8945 0.0
C259 C 0.4739 0.96625 0.92993 0.0
C260 C 0.46715 0.95605 0.91065 0.0
C261 C 0.49091 0.04275 0.0053 0.0
C262 C 0.49769 0.00495 0.95374 0.0
C263 C 0.42134 0.87627 0.9721 0.0
C264 C 0.40033 0.88281 0.97502 0.0
C265 C 0.45816 0.98525 0.02938 0.0
C266 C 0.51422 0.01224 0.09775 0.0
C267 C 0.50352 0.99445 0.11409 0.0
C268 C 0.51187 0.00427 0.13367 0.0
C269 C 0.53089 0.03224 0.13644 0.0
C270 C 0.53325 0.0399 0.10101 0.0
C271 C 0.54148 0.0498 0.12025 0.0
C272 C 0.51359 0.96371 0.02577 0.0
C273 C 0.5053 0.0019 0.07738 0.0
H274 H 0.51099 0.03411 0.91962 0.0
H275 H 0.47091 0.96506 0.87973 0.0
H276 H 0.4668 0.95215 0.94221 0.0
H277 H 0.45501 0.93427 0.90819 0.0
H278 H 0.48899 0.97302 0.11151 0.0
H279 H 0.53736 0.04072 0.15119 0.0
H280 H 0.54166 0.05385 0.08869 0.0
H281 H 0.55605 0.07123 0.12265 0.0
Eu282 Eu 0.02031 0.51 0.99247 0.0
C283 C 0.91593 0.46817 0.04684 0.0
C284 C 0.90899 0.50687 0.05085 0.0
C285 C 0.86945 0.46094 0.05284 0.0
C286 C 0.92674 0.49613 0.04723 0.0
C287 C 0.8872 0.45028 0.04981 0.0
C288 C 0.88034 0.48916 0.05349 0.0
C289 C 0.89584 0.41253 0.04811 0.0
N290 N 0.93357 0.4584 0.04415 0.0
C291 C 0.92416 0.43102 0.04553 0.0
C292 C 0.87722 0.42219 0.05007 0.0
Eu293 Eu 0.98124 0.49085 0.03935 0.0
N294 N 0.95455 0.51282 0.04441 0.0
C295 C 0.96583 0.5405 0.0456 0.0
C296 C 0.92057 0.53512 0.05197 0.0
C297 C 0.94907 0.55197 0.04925 0.0
H298 H 0.93859 0.42351 0.04406 0.0
H299 H 0.9582 0.57389 0.05002 0.0
H300 H 0.86644 0.49708 0.0562 0.0
H301 H 0.88843 0.39088 0.04864 0.0
H302 H 0.98766 0.55423 0.04346 0.0
H303 H 0.05909 0.43869 0.98452 0.0
H304 H 0.90774 0.54413 0.05508 0.0
H305 H 0.05402 0.57746 0.98465 0.0
H306 H 0.02364 0.45236 0.98834 0.0
H307 H 0.10234 0.61528 0.9805 0.0
H308 H 0.84733 0.44753 0.05506 0.0
H309 H 0.10882 0.47375 0.98213 0.0
H310 H 0.1455 0.52327 0.98195 0.0
H311 H 0.85529 0.40783 0.05221 0.0
H312 H 0.15734 0.57133 0.98113 0.0
N313 N 0.05296 0.49489 0.98889 0.0
C314 C 0.04524 0.46796 0.9875 0.0
C315 C 0.09338 0.47992 0.98418 0.0
C316 C 0.10114 0.50749 0.98505 0.0
C317 C 0.06531 0.46007 0.98535 0.0
C318 C 0.08013 0.51443 0.98717 0.0
H319 H 0.14136 0.60581 0.98032 0.0
N320 N 0.06579 0.54717 0.98737 0.0
C321 C 0.09825 0.59461 0.9822 0.0
C322 C 0.08678 0.54142 0.98651 0.0
C323 C 0.07094 0.57317 0.9845 0.0
C324 C 0.12023 0.58919 0.98217 0.0
C325 C 0.11461 0.56229 0.98399 0.0
O326 O 0.01493 0.52662 0.96469 0.0
O327 O 0.98299 0.50547 0.00853 0.0
O328 O 0.95466 0.46125 0.0152 0.0
O329 O 0.98793 0.46462 0.99272 0.0
O330 O 0.00396 0.5398 0.99153 0.0
O331 O 0.00906 0.48584 0.96522 0.0
O332 O 0.00417 0.51159 0.06658 0.0
O333 O 0.01781 0.49433 0.02313 0.0
O334 O 0.048 0.5393 0.01603 0.0
O335 O 0.01597 0.5357 0.0399 0.0
O336 O 0.99485 0.45892 0.03839 0.0
O337 O 0.97273 0.46909 0.06734 0.0
C338 C 0.98253 0.52636 1.00267 0.0
C339 C 0.02507 0.51051 0.93541 0.0
C340 C 0.02401 0.50836 0.89922 0.0
C341 C 0.01012 0.50375 0.91748 0.0
C342 C 0.05315 0.52 0.89923 0.0
C343 C 0.05409 0.52204 0.93509 0.0
C344 C 0.06803 0.52679 0.91707 0.0
C345 C 0.96246 0.45169 1.00014 0.0
C346 C 0.01007 0.50527 0.95426 0.0
C347 C 0.13578 0.55558 0.98287 0.0
C348 C 0.12905 0.52822 0.98333 0.0
C349 C 0.01735 0.4728 0.02836 0.0
C350 C 0.01054 0.48317 0.08955 0.0
C351 C 0.02069 0.49644 0.10793 0.0
C352 C 0.03583 0.48868 0.12059 0.0
C353 C 0.04173 0.46844 0.11426 0.0
C354 C 0.01603 0.46237 0.08398 0.0
C355 C 0.03182 0.45539 0.0961 0.0
C356 C 0.04113 0.5485 0.0318 0.0
C357 C 0.99237 0.48943 0.07716 0.0
H358 H 0.98764 0.49448 0.91779 0.0
H359 H 0.06447 0.52406 0.88543 0.0
H360 H 0.06593 0.52733 0.94871 0.0
H361 H 0.09045 0.53576 0.91693 0.0
H362 H 0.01572 0.51179 0.11273 0.0
H363 H 0.05363 0.46234 0.12358 0.0
H364 H 0.00749 0.45079 0.07057 0.0
H365 H 0.03578 0.43929 0.09158 0.0
Eu366 Eu 0.51098 0.49592 0.03957 0.0
C367 C 0.45516 0.53779 0.98062 0.0
C368 C 0.4072 0.50104 0.97986 0.0
C369 C 0.41775 0.54761 0.9745 0.0
C370 C 0.43584 0.51026 0.98264 0.0
C371 C 0.4463 0.55659 0.97599 0.0
C372 C 0.39826 0.51989 0.97633 0.0
C373 C 0.49452 0.59116 0.97187 0.0
N374 N 0.48266 0.54592 0.98164 0.0
C375 C 0.50226 0.57174 0.97618 0.0
C376 C 0.46642 0.58368 0.97213 0.0
Eu377 Eu 0.49417 0.51239 0.99055 0.0
N378 N 0.44503 0.49236 0.98612 0.0
C379 C 0.42661 0.46488 0.98554 0.0
C380 C 0.3884 0.47304 0.97998 0.0
C381 C 0.39816 0.45492 0.98273 0.0
H382 H 0.52401 0.57748 0.9758 0.0
H383 H 0.38376 0.43318 0.98258 0.0
H384 H 0.37633 0.51314 0.97445 0.0
H385 H 0.5102 0.61183 0.96825 0.0
H386 H 0.43316 0.45012 0.9875 0.0
H387 H 0.62174 0.57065 0.04748 0.0
H388 H 0.3664 0.46516 0.97734 0.0
H389 H 0.47779 0.42912 0.04951 0.0
H390 H 0.57182 0.55514 0.04362 0.0
H391 H 0.48921 0.3927 0.05565 0.0
H392 H 0.41057 0.56181 0.9712 0.0
H393 H 0.63748 0.53699 0.05088 0.0
H394 H 0.62524 0.48796 0.05319 0.0
H395 H 0.46042 0.5987 0.96857 0.0
H396 H 0.58923 0.43955 0.05535 0.0
N397 N 0.55927 0.51296 0.04427 0.0
C398 C 0.5783 0.54016 0.04511 0.0
C399 C 0.6155 0.53001 0.04907 0.0
C400 C 0.59579 0.50218 0.0491 0.0
C401 C 0.60668 0.54908 0.04726 0.0
C402 C 0.56741 0.4942 0.04686 0.0
H403 H 0.53845 0.40388 0.05659 0.0
N404 N 0.52009 0.46022 0.04667 0.0
C405 C 0.50572 0.4135 0.05348 0.0
C406 C 0.54721 0.46699 0.04806 0.0
C407 C 0.49932 0.43411 0.05008 0.0
C408 C 0.53354 0.41988 0.05395 0.0
C409 C 0.55472 0.44696 0.05153 0.0
O410 O 0.48686 0.47914 0.06662 0.0
O411 O 0.47929 0.50049 0.02172 0.0
O412 O 0.50584 0.5493 0.01 0.0
O413 O 0.52269 0.5404 0.03928 0.0
O414 O 0.46446 0.46615 0.03913 0.0
O415 O 0.52275 0.51983 0.06701 0.0
O416 O 0.51184 0.49647 0.96871 0.0
O417 O 0.52644 0.51046 0.00894 0.0
O418 O 0.50917 0.46552 0.01721 0.0
O419 O 0.47942 0.46705 0.99351 0.0
O420 O 0.53992 0.54475 0.99182 0.0
O421 O 0.49232 0.51876 0.95867 0.0
C422 C 0.4573 0.47975 0.02758 0.0
C423 C 0.51046 0.49538 0.09719 0.0
C424 C 0.50832 0.49844 0.13332 0.0
C425 C 0.50165 0.50346 0.11415 0.0
C426 C 0.52389 0.48507 0.13511 0.0
C427 C 0.5261 0.48231 0.09938 0.0
C428 C 0.53271 0.47716 0.11826 0.0
C429 C 0.51744 0.55622 0.02781 0.0
C430 C 0.50289 0.50052 0.07739 0.0
C431 C 0.58301 0.45467 0.05291 0.0
C432 C 0.60351 0.48224 0.0517 0.0
C433 C 0.548 0.53193 1.00347 0.0
C434 C 0.52961 0.52239 0.93949 0.0
C435 C 0.52998 0.51062 0.92115 0.0
C436 C 0.55155 0.52534 0.90745 0.0
C437 C 0.57314 0.55153 0.9127 0.0
C438 C 0.55104 0.54885 0.94408 0.0
C439 C 0.57283 0.56312 0.93087 0.0
C440 C 0.49224 0.45509 1.00183 0.0
C441 C 0.50657 0.50724 0.95353 0.0
H442 H 0.48992 0.51395 0.11237 0.0
H443 H 0.52902 0.48045 0.14956 0.0
H444 H 0.5331 0.476 0.08653 0.0
H445 H 0.54466 0.4669 0.11985 0.0
H446 H 0.5132 0.49041 0.91736 0.0
H447 H 0.59029 0.56311 0.90268 0.0
H448 H 0.55092 0.55873 0.95771 0.0
H449 H 0.58941 0.5834 0.93465 0.0
Eu450 Eu 0.16017 0.32296 0.32521 0.0
C451 C 0.21596 0.41976 0.38641 0.0
C452 C 0.26472 0.4328 0.38692 0.0
C453 C 0.25109 0.4667 0.39357 0.0
C454 C 0.2365 0.41298 0.38402 0.0
C455 C 0.22294 0.44657 0.39158 0.0
C456 C 0.27194 0.45981 0.3913 0.0
C457 C 0.17377 0.43105 0.39413 0.0
N458 N 0.18902 0.39976 0.38465 0.0
C459 C 0.16792 0.40472 0.38914 0.0
C460 C 0.20141 0.45216 0.39512 0.0
Eu461 Eu 0.18057 0.35605 0.37502 0.0
N462 N 0.2288 0.38673 0.37974 0.0
C463 C 0.24822 0.37859 0.37928 0.0
C464 C 0.28476 0.42472 0.38586 0.0
C465 C 0.27645 0.39747 0.38211 0.0
H466 H 0.14651 0.38848 0.38827 0.0
H467 H 0.29177 0.39097 0.38144 0.0
H468 H 0.29354 0.47538 0.39334 0.0
H469 H 0.15697 0.43504 0.39717 0.0
H470 H 0.2422 0.35764 0.37639 0.0
H471 H 0.04856 0.28633 0.31961 0.0
H472 H 0.30659 0.4392 0.38837 0.0
H473 H 0.1949 0.29143 0.3113 0.0
H474 H 0.09817 0.32045 0.3237 0.0
H475 H 0.18504 0.24499 0.30257 0.0
H476 H 0.2569 0.48749 0.39735 0.0
H477 H 0.03431 0.23799 0.31372 0.0
H478 H 0.04809 0.2023 0.30887 0.0
H479 H 0.2059 0.47252 0.39906 0.0
H480 H 0.08523 0.19098 0.30433 0.0
N481 N 0.11203 0.29168 0.32089 0.0
C482 C 0.09234 0.29945 0.32123 0.0
C483 C 0.05614 0.25284 0.31576 0.0
C484 C 0.0765 0.24518 0.31459 0.0
C485 C 0.06412 0.28013 0.31893 0.0
C486 C 0.10467 0.26541 0.317 0.0
H487 H 0.13637 0.20685 0.30163 0.0
N488 N 0.15233 0.27943 0.31568 0.0
C489 C 0.16809 0.24864 0.30592 0.0
C490 C 0.12549 0.25906 0.31438 0.0
C491 C 0.1736 0.2749 0.31081 0.0
C492 C 0.1406 0.22715 0.30546 0.0
C493 C 0.11884 0.23228 0.30939 0.0
O494 O 0.18372 0.33437 0.29752 0.0
O495 O 0.19267 0.35678 0.34345 0.0
O496 O 0.17611 0.38499 0.35423 0.0
O497 O 0.14649 0.35443 0.33019 0.0
O498 O 0.20669 0.33885 0.32346 0.0
O499 O 0.14641 0.3372 0.29971 0.0
O500 O 0.15724 0.34572 0.40282 0.0
O501 O 0.14801 0.32233 0.35677 0.0
O502 O 0.16477 0.29407 0.34588 0.0
O503 O 0.19421 0.32451 0.37006 0.0
O504 O 0.13416 0.34063 0.37658 0.0
O505 O 0.1928 0.34001 0.40025 0.0
C506 C 0.21436 0.35805 0.33644 0.0
C507 C 0.1586 0.32877 0.26787 0.0
C508 C 0.16188 0.33573 0.23185 0.0
C509 C 0.16833 0.34634 0.25136 0.0
C510 C 0.14528 0.30735 0.22926 0.0
C511 C 0.14201 0.30062 0.26481 0.0
C512 C 0.13538 0.29002 0.24561 0.0
C513 C 0.15866 0.37861 0.33907 0.0
C514 C 0.16645 0.33981 0.28819 0.0
C515 C 0.09078 0.21175 0.30795 0.0
C516 C 0.06964 0.21819 0.31052 0.0
C517 C 0.1264 0.32134 0.36367 0.0
C518 C 0.18202 0.34916 0.4323 0.0
C519 C 0.17156 0.33139 0.44867 0.0
C520 C 0.17963 0.34136 0.46825 0.0
C521 C 0.19812 0.36945 0.47099 0.0
C522 C 0.20053 0.37695 0.43553 0.0
C523 C 0.20846 0.38699 0.45478 0.0
C524 C 0.18231 0.30047 0.36098 0.0
C525 C 0.17343 0.33866 0.41193 0.0
H526 H 0.18128 0.36812 0.25368 0.0
H527 H 0.13962 0.29855 0.21453 0.0
H528 H 0.13428 0.28683 0.27726 0.0
H529 H 0.12255 0.26825 0.24338 0.0
H530 H 0.15745 0.30985 0.44612 0.0
H531 H 0.20435 0.37804 0.48573 0.0
H532 H 0.20877 0.39088 0.42319 0.0
H533 H 0.22263 0.40853 0.45715 0.0
Eu534 Eu 0.68937 0.84199 0.32574 0.0
C535 C 0.58781 0.80092 0.38369 0.0
C536 C 0.57641 0.83695 0.38385 0.0
C537 C 0.54043 0.79038 0.39064 0.0
C538 C 0.59577 0.82799 0.38098 0.0
C539 C 0.56024 0.78191 0.38909 0.0
C540 C 0.54855 0.81791 0.38813 0.0
C541 C 0.57489 0.7487 0.39406 0.0
N542 N 0.6077 0.79369 0.38289 0.0
C543 C 0.60203 0.76845 0.38897 0.0
C544 C 0.55377 0.75533 0.39378 0.0
Eu545 Eu 0.65319 0.82774 0.37396 0.0
N546 N 0.6229 0.84588 0.37701 0.0
C547 C 0.63227 0.87325 0.37662 0.0
C548 C 0.5859 0.8649 0.38317 0.0
C549 C 0.61392 0.88311 0.37949 0.0
H550 H 0.61838 0.76332 0.38926 0.0
H551 H 0.62148 0.9048 0.37907 0.0
H552 H 0.53332 0.82438 0.3901 0.0
H553 H 0.57031 0.72845 0.39825 0.0
H554 H 0.65387 0.88772 0.37399 0.0
H555 H 0.72162 0.76545 0.32004 0.0
H556 H 0.57195 0.87269 0.38605 0.0
H557 H 0.72559 0.9084 0.31466 0.0
H558 H 0.68849 0.78207 0.32386 0.0
H559 H 0.77452 0.94395 0.30855 0.0
H560 H 0.51908 0.77604 0.39457 0.0
H561 H 0.77177 0.79817 0.3159 0.0
H562 H 0.81043 0.84679 0.31374 0.0
H563 H 0.53282 0.74011 0.39797 0.0
H564 H 0.82495 0.89543 0.31105 0.0
N565 N 0.71963 0.82401 0.32265 0.0
C566 C 0.71032 0.79667 0.32226 0.0
C567 C 0.7574 0.80567 0.31797 0.0
C568 C 0.76675 0.83363 0.31789 0.0
C569 C 0.72906 0.78712 0.32012 0.0
C570 C 0.74705 0.84228 0.32002 0.0
H571 H 0.81166 0.93181 0.30881 0.0
N572 N 0.73536 0.87694 0.31899 0.0
C573 C 0.76938 0.92314 0.31133 0.0
C574 C 0.7552 0.86962 0.31832 0.0
C575 C 0.74176 0.90303 0.31473 0.0
C576 C 0.7903 0.91622 0.31157 0.0
C577 C 0.78328 0.88909 0.31469 0.0
O578 O 0.68391 0.85768 0.29752 0.0
O579 O 0.6531 0.83899 0.34226 0.0
O580 O 0.62472 0.79296 0.35348 0.0
O581 O 0.65511 0.79738 0.32777 0.0
O582 O 0.67337 0.8719 0.32365 0.0
O583 O 0.67645 0.81637 0.29919 0.0
O584 O 0.66133 0.81442 0.40235 0.0
O585 O 0.68863 0.82971 0.35714 0.0
O586 O 0.71846 0.87336 0.34775 0.0
O587 O 0.68672 0.87267 0.37052 0.0
O588 O 0.66889 0.79757 0.37633 0.0
O589 O 0.66829 0.85533 0.39949 0.0
C590 C 0.65234 0.85928 0.3353 0.0
C591 C 0.69205 0.83917 0.26862 0.0
C592 C 0.68999 0.83627 0.23243 0.0
C593 C 0.67677 0.83319 0.25084 0.0
C594 C 0.71877 0.84569 0.23215 0.0
C595 C 0.72067 0.8484 0.26797 0.0
C596 C 0.73395 0.8517 0.24981 0.0
C597 C 0.63111 0.78384 0.33733 0.0
C598 C 0.67784 0.83552 0.28769 0.0
C599 C 0.80322 0.88074 0.31363 0.0
C600 C 0.79495 0.85304 0.31515 0.0
C601 C 0.68932 0.80939 0.36409 0.0
C602 C 0.65487 0.83465 0.4309 0.0
C603 C 0.67133 0.84265 0.44818 0.0
C604 C 0.65903 0.83959 0.46699 0.0
C605 C 0.62995 0.82842 0.46806 0.0
C606 C 0.62607 0.824 0.43237 0.0
C607 C 0.6137 0.82089 0.45086 0.0
C608 C 0.71191 0.88434 0.36258 0.0
C609 C 0.66792 0.83715 0.41149 0.0
H610 H 0.65456 0.8257 0.25137 0.0
H611 H 0.72961 0.8486 0.21824 0.0
H612 H 0.73273 0.853 0.28144 0.0
H613 H 0.75608 0.85892 0.24943 0.0
H614 H 0.69366 0.85134 0.4469 0.0
H615 H 0.61958 0.82504 0.48221 0.0
H616 H 0.61312 0.81795 0.41929 0.0
H617 H 0.59139 0.81237 0.45187 0.0
Eu618 Eu 0.18322 0.83237 0.36983 0.0
C619 C 0.12831 0.87699 0.31011 0.0
C620 C 0.07953 0.84254 0.30975 0.0
C621 C 0.09327 0.88971 0.30297 0.0
C622 C 0.10773 0.85025 0.31271 0.0
C623 C 0.12139 0.89694 0.30473 0.0
C624 C 0.07236 0.86251 0.3054 0.0
C625 C 0.17049 0.92881 0.30078 0.0
N626 N 0.1552 0.88307 0.31135 0.0
C627 C 0.17622 0.90817 0.30586 0.0
C628 C 0.14296 0.92329 0.30049 0.0
Eu629 Eu 0.1638 0.84773 0.32089 0.0
N630 N 0.11541 0.83147 0.31679 0.0
C631 C 0.09594 0.80436 0.31699 0.0
C632 C 0.05949 0.81487 0.31049 0.0
C633 C 0.06775 0.7957 0.31408 0.0
H634 H 0.19752 0.91245 0.30599 0.0
H635 H 0.05242 0.77421 0.31448 0.0
H636 H 0.05077 0.85701 0.30335 0.0
H637 H 0.1873 0.94891 0.29702 0.0
H638 H 0.10185 0.78919 0.31965 0.0
H639 H 0.29466 0.90522 0.37638 0.0
H640 H 0.03773 0.80804 0.30771 0.0
H641 H 0.14873 0.76623 0.38177 0.0
H642 H 0.24505 0.89073 0.3722 0.0
H643 H 0.15891 0.72929 0.38918 0.0
H644 H 0.08751 0.9048 0.29905 0.0
H645 H 0.30914 0.87084 0.38131 0.0
H646 H 0.29569 0.82161 0.38476 0.0
H647 H 0.13853 0.93922 0.29635 0.0
H648 H 0.25879 0.7737 0.38807 0.0
N649 N 0.2314 0.84836 0.37404 0.0
C650 C 0.25097 0.87542 0.37424 0.0
C651 C 0.28731 0.86429 0.37921 0.0
C652 C 0.26709 0.83665 0.37973 0.0
C653 C 0.27919 0.88376 0.37658 0.0
C654 C 0.23889 0.82925 0.37732 0.0
H655 H 0.20772 0.73913 0.39005 0.0
N656 N 0.19127 0.79628 0.37801 0.0
C657 C 0.17577 0.74974 0.38638 0.0
C658 C 0.21818 0.80235 0.37928 0.0
C659 C 0.17008 0.77066 0.38224 0.0
C660 C 0.20335 0.75536 0.38679 0.0
C661 C 0.225 0.78202 0.38355 0.0
O662 O 0.15981 0.81839 0.39745 0.0
O663 O 0.15098 0.8363 0.35243 0.0
O664 O 0.17108 0.88244 0.34132 0.0
O665 O 0.19664 0.87735 0.36709 0.0
O666 O 0.13664 0.80305 0.37092 0.0
O667 O 0.19653 0.8584 0.39623 0.0
O668 O 0.18681 0.86053 0.293 0.0
O669 O 0.19611 0.84452 0.33853 0.0
O670 O 0.17925 0.80016 0.34824 0.0
O671 O 0.14957 0.80256 0.32485 0.0
O672 O 0.21047 0.87705 0.31951 0.0
O673 O 0.15102 0.82018 0.29536 0.0
C674 C 0.12914 0.81602 0.35901 0.0
C675 C 0.18474 0.83625 0.42733 0.0
C676 C 0.18247 0.83998 0.46339 0.0
C677 C 0.1752 0.84395 0.44411 0.0
C678 C 0.1993 0.82799 0.46549 0.0
C679 C 0.20162 0.82453 0.42982 0.0
C680 C 0.20879 0.8204 0.44882 0.0
C681 C 0.18695 0.89126 0.35741 0.0
C682 C 0.17671 0.84034 0.40736 0.0
C683 C 0.25311 0.78907 0.385 0.0
C684 C 0.27412 0.81635 0.38312 0.0
C685 C 0.218 0.86466 0.33194 0.0
C686 C 0.16107 0.84072 0.26375 0.0
C687 C 0.1721 0.83477 0.24694 0.0
C688 C 0.16369 0.83742 0.22769 0.0
C689 C 0.14416 0.84629 0.22565 0.0
C690 C 0.14154 0.84934 0.26131 0.0
C691 C 0.13319 0.85213 0.24234 0.0
C692 C 0.1615 0.78981 0.33327 0.0
C693 C 0.17016 0.83795 0.2837 0.0
H694 H 0.16246 0.85335 0.44209 0.0
H695 H 0.20493 0.82419 0.48004 0.0
H696 H 0.20917 0.81854 0.41711 0.0
H697 H 0.22171 0.8112 0.45065 0.0
H698 H 0.18694 0.82779 0.24891 0.0
H699 H 0.1376 0.84906 0.21112 0.0
H700 H 0.13278 0.85391 0.27404 0.0
H701 H 0.11821 0.85894 0.24057 0.0
Eu702 Eu 0.83186 0.6562 0.65694 0.0
C703 C 0.88856 0.75213 0.71722 0.0
C704 C 0.93683 0.76316 0.71794 0.0
C705 C 0.9253 0.79872 0.72371 0.0
C706 C 0.90832 0.74401 0.71509 0.0
C707 C 0.89688 0.77944 0.72199 0.0
C708 C 0.94521 0.79058 0.72178 0.0
C709 C 0.84832 0.76622 0.72516 0.0
N710 N 0.86117 0.7331 0.7158 0.0
C711 C 0.84106 0.73939 0.72063 0.0
C712 C 0.87634 0.78644 0.72553 0.0
Eu713 Eu 0.8508 0.68878 0.70653 0.0
N714 N 0.89971 0.71732 0.71118 0.0
C715 C 0.91857 0.70841 0.71126 0.0
C716 C 0.95611 0.75412 0.71741 0.0
C717 C 0.94693 0.72665 0.71414 0.0
H718 H 0.81935 0.7238 0.72033 0.0
H719 H 0.9617 0.71943 0.71391 0.0
H720 H 0.96705 0.80555 0.72372 0.0
H721 H 0.83231 0.77129 0.72836 0.0
H722 H 0.91243 0.68741 0.70883 0.0
H723 H 0.71984 0.61742 0.65115 0.0
H724 H 0.97805 0.76806 0.72001 0.0
H725 H 0.86774 0.62539 0.64416 0.0
H726 H 0.76924 0.65234 0.65491 0.0
H727 H 0.85884 0.57912 0.63601 0.0
H728 H 0.93207 0.81983 0.72715 0.0
H729 H 0.70652 0.56917 0.64593 0.0
H730 H 0.72132 0.53418 0.64135 0.0
H731 H 0.88192 0.80721 0.72915 0.0
H732 H 0.75913 0.52373 0.63724 0.0
N733 N 0.78392 0.62417 0.65254 0.0
C734 C 0.76382 0.63142 0.65267 0.0
C735 C 0.72827 0.58441 0.64775 0.0
C736 C 0.74905 0.5773 0.64667 0.0
C737 C 0.73572 0.61164 0.65057 0.0
C738 C 0.77707 0.59798 0.64895 0.0
H739 H 0.81048 0.54042 0.6349 0.0
N740 N 0.82493 0.61281 0.64797 0.0
C741 C 0.84161 0.58247 0.63901 0.0
C742 C 0.79826 0.5921 0.64661 0.0
C743 C 0.84658 0.60864 0.64358 0.0
C744 C 0.81428 0.56067 0.63845 0.0
C745 C 0.79216 0.56538 0.64199 0.0
O746 O 0.85554 0.66689 0.62931 0.0
O747 O 0.86413 0.69075 0.67512 0.0
O748 O 0.8431 0.71631 0.68626 0.0
O749 O 0.81777 0.68741 0.66004 0.0
O750 O 0.87842 0.67227 0.65581 0.0
O751 O 0.81816 0.66967 0.63098 0.0
O752 O 0.83487 0.65506 0.72793 0.0
O753 O 0.81792 0.65583 0.68812 0.0
O754 O 0.83606 0.62779 0.67835 0.0
O755 O 0.86626 0.65874 0.70194 0.0
O756 O 0.80526 0.67697 0.70613 0.0
O757 O 0.85175 0.69592 0.7386 0.0
C758 C 0.88589 0.69184 0.66844 0.0
C759 C 0.83087 0.66112 0.59936 0.0
C760 C 0.83397 0.66827 0.56335 0.0
C761 C 0.8402 0.67879 0.58289 0.0
C762 C 0.81798 0.63985 0.56069 0.0
C763 C 0.81491 0.63293 0.59624 0.0
C764 C 0.8085 0.62241 0.577 0.0
C765 C 0.82745 0.71047 0.67012 0.0
C766 C 0.83837 0.67218 0.61969 0.0
C767 C 0.76426 0.54445 0.64058 0.0
C768 C 0.74274 0.5504 0.64291 0.0
C769 C 0.79675 0.65648 0.69418 0.0
C770 C 0.81632 0.66102 0.758 0.0
C771 C 0.81794 0.65014 0.77651 0.0
C772 C 0.79646 0.64231 0.79064 0.0
C773 C 0.77306 0.64461 0.78566 0.0
C774 C 0.79292 0.66359 0.75376 0.0
C775 C 0.77133 0.65509 0.76737 0.0
C776 C 0.85388 0.6344 0.6933 0.0
C777 C 0.83928 0.67034 0.74344 0.0
H778 H 0.85268 0.7006 0.58528 0.0
H779 H 0.81247 0.63109 0.54594 0.0
H780 H 0.8075 0.61906 0.60866 0.0
H781 H 0.79614 0.60061 0.57471 0.0
H782 H 0.8361 0.64846 0.78009 0.0
H783 H 0.75601 0.63832 0.79599 0.0
H784 H 0.7913 0.67245 0.74008 0.0
H785 H 0.75329 0.65695 0.76382 0.0
Eu786 Eu 0.36083 0.17972 0.65705 0.0
C787 C 0.2572 0.13143 0.71292 0.0
C788 C 0.24331 0.16558 0.71618 0.0
C789 C 0.20884 0.11762 0.7196 0.0
C790 C 0.2639 0.15848 0.71244 0.0
C791 C 0.22965 0.11072 0.71672 0.0
C792 C 0.21569 0.14501 0.71945 0.0
C793 C 0.24569 0.0781 0.71636 0.0
N794 N 0.27787 0.12544 0.71049 0.0
C795 C 0.27277 0.09937 0.71297 0.0
C796 C 0.22397 0.08375 0.71805 0.0
Eu797 Eu 0.32298 0.1627 0.70452 0.0
N798 N 0.29072 0.17793 0.70906 0.0
C799 C 0.29855 0.20492 0.70986 0.0
C800 C 0.25122 0.1932 0.71699 0.0
C801 C 0.27893 0.21295 0.71372 0.0
H802 H 0.2895 0.0949 0.71173 0.0
H803 H 0.28523 0.23436 0.71434 0.0
H804 H 0.19955 0.1501 0.72213 0.0
H805 H 0.2416 0.05739 0.71776 0.0
H806 H 0.31995 0.22039 0.70755 0.0
H807 H 0.3978 0.10678 0.65094 0.0
H808 H 0.23623 0.1995 0.7205 0.0
H809 H 0.39488 0.24642 0.64675 0.0
H810 H 0.36298 0.12137 0.65433 0.0
H811 H 0.44325 0.28351 0.64121 0.0
H812 H 0.18752 0.10199 0.72242 0.0
H813 H 0.44765 0.14114 0.6477 0.0
H814 H 0.48483 0.19044 0.64598 0.0
H815 H 0.20304 0.06726 0.72085 0.0
H816 H 0.49727 0.23858 0.64356 0.0
N817 N 0.39281 0.16374 0.65376 0.0
C818 C 0.38464 0.13666 0.65307 0.0
C819 C 0.4325 0.14773 0.64952 0.0
C820 C 0.44067 0.17542 0.64957 0.0
C821 C 0.40435 0.12826 0.65118 0.0
C822 C 0.42001 0.18287 0.65147 0.0
H823 H 0.48186 0.27344 0.64146 0.0
N824 N 0.40629 0.21602 0.65059 0.0
C825 C 0.43897 0.2629 0.64369 0.0
C826 C 0.427 0.20988 0.64996 0.0
C827 C 0.41165 0.24189 0.64677 0.0
C828 C 0.46072 0.25715 0.64391 0.0
C829 C 0.45484 0.2303 0.64672 0.0
O830 O 0.35471 0.19475 0.62876 0.0
O831 O 0.32457 0.17656 0.67349 0.0
O832 O 0.29482 0.13247 0.68145 0.0
O833 O 0.32794 0.13441 0.65935 0.0
O834 O 0.34432 0.20938 0.65495 0.0
O835 O 0.34758 0.15359 0.63075 0.0
O836 O 0.33362 0.14887 0.7315 0.0
O837 O 0.35974 0.16659 0.68828 0.0
O838 O 0.38862 0.21085 0.67974 0.0
O839 O 0.35598 0.20815 0.7027 0.0
O840 O 0.33894 0.1327 0.70587 0.0
O841 O 0.33117 0.18583 0.73228 0.0
C842 C 0.32362 0.19688 0.66687 0.0
C843 C 0.36264 0.17593 0.59998 0.0
C844 C 0.35996 0.17224 0.56384 0.0
C845 C 0.34701 0.16923 0.58234 0.0
C846 C 0.38885 0.18222 0.56333 0.0
C847 C 0.39136 0.18576 0.59914 0.0
C848 C 0.40438 0.18892 0.58088 0.0
C849 C 0.30236 0.12216 0.66671 0.0
C850 C 0.34866 0.17247 0.61911 0.0
C851 C 0.47571 0.22316 0.64583 0.0
C852 C 0.46863 0.19575 0.6472 0.0
C853 C 0.36027 0.14587 0.69456 0.0
C854 C 0.32069 0.15978 0.76181 0.0
C855 C 0.33587 0.17173 0.77925 0.0
C856 C 0.32462 0.16098 0.79809 0.0
C857 C 0.29721 0.13854 0.7988 0.0
C858 C 0.29332 0.13806 0.76308 0.0
C859 C 0.28163 0.12765 0.78149 0.0
C860 C 0.38132 0.2208 0.69487 0.0
C861 C 0.33473 0.1683 0.74253 0.0
H862 H 0.32473 0.16129 0.58307 0.0
H863 H 0.3995 0.18509 0.54935 0.0
H864 H 0.4037 0.19097 0.61255 0.0
H865 H 0.42659 0.1966 0.58033 0.0
H866 H 0.35664 0.18904 0.77785 0.0
H867 H 0.28775 0.12864 0.81261 0.0
H868 H 0.28126 0.1286 0.74987 0.0
H869 H 0.26066 0.11047 0.78234 0.0
Eu870 Eu 0.85101 0.16425 0.70457 0.0
C871 C 0.79595 0.20904 0.64496 0.0
C872 C 0.7472 0.17453 0.64465 0.0
C873 C 0.76084 0.22167 0.63784 0.0
C874 C 0.77543 0.1823 0.64757 0.0
C875 C 0.78898 0.22896 0.63958 0.0
C876 C 0.73997 0.19446 0.6403 0.0
C877 C 0.83806 0.2609 0.63564 0.0
N878 N 0.82286 0.21518 0.64621 0.0
C879 C 0.84384 0.24031 0.64075 0.0
C880 C 0.8105 0.25532 0.63534 0.0
Eu881 Eu 0.8316 0.17994 0.65574 0.0
N882 N 0.78318 0.16357 0.65165 0.0
C883 C 0.76374 0.13644 0.65189 0.0
C884 C 0.72721 0.14686 0.64545 0.0
C885 C 0.73552 0.12773 0.64904 0.0
H886 H 0.86518 0.24466 0.64093 0.0
H887 H 0.72022 0.10624 0.64949 0.0
H888 H 0.71837 0.18891 0.63829 0.0
H889 H 0.85483 0.28102 0.63189 0.0
H890 H 0.76968 0.1213 0.65457 0.0
H891 H 0.9625 0.23667 0.71152 0.0
H892 H 0.70542 0.13999 0.64273 0.0
H893 H 0.81619 0.09797 0.71611 0.0
H894 H 0.91295 0.22242 0.70727 0.0
H895 H 0.82611 0.06083 0.72338 0.0
H896 H 0.75504 0.23672 0.63392 0.0
H897 H 0.97675 0.20208 0.71629 0.0
H898 H 0.96306 0.15278 0.71955 0.0
H899 H 0.80603 0.27121 0.63119 0.0
H900 H 0.92598 0.10489 0.72263 0.0
N901 N 0.89912 0.18 0.70888 0.0
C902 C 0.91877 0.20703 0.70923 0.0
C903 C 0.95495 0.19565 0.71415 0.0
C904 C 0.93463 0.16803 0.71455 0.0
C905 C 0.94696 0.21524 0.71162 0.0
C906 C 0.90648 0.16077 0.71208 0.0
H907 H 0.87485 0.07047 0.72438 0.0
N908 N 0.8588 0.12794 0.71257 0.0
C909 C 0.84306 0.08128 0.7207 0.0
C910 C 0.88567 0.13389 0.71391 0.0
C911 C 0.83751 0.10232 0.71664 0.0
C912 C 0.8706 0.08678 0.72119 0.0
C913 C 0.89235 0.11344 0.7181 0.0
O914 O 0.82747 0.15015 0.73214 0.0
O915 O 0.81882 0.16834 0.68725 0.0
O916 O 0.83878 0.21445 0.67637 0.0
O917 O 0.86455 0.20923 0.70194 0.0
O918 O 0.8044 0.13497 0.70561 0.0
O919 O 0.86437 0.19004 0.73109 0.0
O920 O 0.85469 0.19291 0.62788 0.0
O921 O 0.86401 0.17676 0.67332 0.0
O922 O 0.84727 0.13236 0.68278 0.0
O923 O 0.81738 0.13478 0.6596 0.0
O924 O 0.8782 0.2095 0.65447 0.0
O925 O 0.81906 0.15245 0.63018 0.0
C926 C 0.79694 0.14807 0.6938 0.0
C927 C 0.85226 0.16768 0.7621 0.0
C928 C 0.84917 0.17047 0.79818 0.0
C929 C 0.84198 0.17454 0.7789 0.0
C930 C 0.86666 0.1592 0.80026 0.0
C931 C 0.86975 0.15664 0.76458 0.0
C932 C 0.87684 0.15239 0.78358 0.0
C933 C 0.85469 0.22314 0.69248 0.0
C934 C 0.84442 0.17199 0.74214 0.0
C935 C 0.92041 0.12036 0.71961 0.0
C936 C 0.94152 0.14762 0.71787 0.0
C937 C 0.88583 0.1971 0.66682 0.0
C938 C 0.82913 0.173 0.59858 0.0
C939 C 0.84037 0.16724 0.58181 0.0
C940 C 0.83195 0.16977 0.56253 0.0
C941 C 0.81219 0.17834 0.56043 0.0
C942 C 0.80939 0.18134 0.59608 0.0
C943 C 0.80103 0.18402 0.57709 0.0
C944 C 0.82943 0.12204 0.66786 0.0
C945 C 0.83819 0.1703 0.61856 0.0
H946 H 0.82874 0.1834 0.77692 0.0
H947 H 0.87228 0.15539 0.81481 0.0
H948 H 0.87786 0.15128 0.75185 0.0
H949 H 0.89026 0.14374 0.78539 0.0
H950 H 0.85539 0.16048 0.58381 0.0
H951 H 0.8056 0.18101 0.54588 0.0
H952 H 0.80047 0.18578 0.60878 0.0
H953 H 0.78588 0.19061 0.57526 0.0
C954 C 0.30625 0.85332 0.04633 0.0
C955 C 0.30439 0.84799 0.06677 0.0
C956 C 0.33059 0.87464 0.03798 0.0
C957 C 0.35379 0.89098 0.05031 0.0
C958 C 0.35211 0.8856 0.07094 0.0
C959 C 0.32744 0.86425 0.07891 0.0
C960 C 0.33146 0.87952 0.01594 0.0
C961 C 0.37637 0.90251 0.08463 0.0
C962 C 0.42736 0.93448 0.03042 0.0
C963 C 0.43047 0.96059 0.0312 0.0
C964 C 0.40198 0.91135 0.03554 0.0
C965 C 0.37943 0.91453 0.04197 0.0
C966 C 0.38218 0.94077 0.04189 0.0
C967 C 0.40769 0.96347 0.03661 0.0
C968 C 0.39982 0.88373 0.035 0.0
C969 C 0.35854 0.94505 0.04825 0.0
H970 H 0.28847 0.84099 0.03684 0.0
H971 H 0.32632 0.86005 0.09466 0.0
H972 H 0.33954 0.90142 0.01282 0.0
H973 H 0.3458 0.87365 0.00896 0.0
H974 H 0.31064 0.86746 0.00886 0.0
H975 H 0.37202 0.89527 0.10021 0.0
H976 H 0.3951 0.90197 0.07953 0.0
H977 H 0.38142 0.92409 0.08428 0.0
H978 H 0.44505 0.93221 0.02658 0.0
H979 H 0.41015 0.98369 0.0373 0.0
H980 H 0.3806 0.86883 0.02707 0.0
H981 H 0.39848 0.87621 0.05037 0.0
H982 H 0.41802 0.88434 0.02761 0.0
H983 H 0.3393 0.93116 0.03988 0.0
H984 H 0.3633 0.96636 0.04591 0.0
H985 H 0.35416 0.94011 0.06421 0.0
C986 C 0.15345 0.45854 0.04944 0.0
C987 C 0.15945 0.46129 0.06985 0.0
C988 C 0.13105 0.46076 0.04167 0.0
C989 C 0.11415 0.46615 0.05452 0.0
C990 C 0.12039 0.46939 0.07512 0.0
C991 C 0.14272 0.46671 0.08251 0.0
C992 C 0.12587 0.4578 0.01961 0.0
C993 C 0.10313 0.47486 0.08968 0.0
C994 C 0.0691 0.49435 0.03411 0.0
C995 C 0.04267 0.47091 0.033 0.0
C996 C 0.09262 0.49302 0.04048 0.0
C997 C 0.08966 0.46773 0.04649 0.0
C998 C 0.06302 0.44398 0.04532 0.0
C999 C 0.03996 0.44583 0.0385 0.0
C1000 C 0.1205 0.51887 0.04138 0.0
C1001 C 0.05877 0.41665 0.0517 0.0
H1002 H 0.16606 0.45418 0.03949 0.0
H1003 H 0.14724 0.46919 0.09827 0.0
H1004 H 0.10335 0.44478 0.01623 0.0
H1005 H 0.13289 0.47825 0.01326 0.0
H1006 H 0.13743 0.44898 0.01215 0.0
H1007 H 0.11551 0.48586 0.10302 0.0
H1008 H 0.09437 0.48688 0.08304 0.0
H1009 H 0.08565 0.45505 0.09466 0.0
H1010 H 0.07139 0.51393 0.03042 0.0
H1011 H 0.01956 0.42769 0.03795 0.0
H1012 H 0.13616 0.51626 0.03294 0.0
H1013 H 0.12777 0.52335 0.05702 0.0
H1014 H 0.11963 0.53665 0.03527 0.0
H1015 H 0.07292 0.41175 0.04332 0.0
H1016 H 0.03698 0.39998 0.04937 0.0
H1017 H 0.06406 0.41745 0.06767 0.0
C1018 C 0.58275 0.70668 0.07263 0.0
C1019 C 0.56355 0.71585 0.07144 0.0
C1020 C 0.57564 0.6805 0.06595 0.0
C1021 C 0.54855 0.66305 0.05831 0.0
C1022 C 0.52886 0.672 0.05768 0.0
C1023 C 0.53672 0.69846 0.06406 0.0
C1024 C 0.59732 0.6718 0.06653 0.0
C1025 C 0.49961 0.65379 0.05001 0.0
C1026 C 0.53622 0.60598 0.02281 0.0
C1027 C 0.52546 0.58351 0.0355 0.0
C1028 C 0.54423 0.63209 0.0301 0.0
C1029 C 0.54094 0.63564 0.05052 0.0
C1030 C 0.52998 0.61294 0.06339 0.0
C1031 C 0.52263 0.58716 0.05574 0.0
C1032 C 0.55633 0.65589 0.01597 0.0
C1033 C 0.52563 0.61583 0.08516 0.0
H1034 H 0.60358 0.72034 0.07819 0.0
H1035 H 0.52191 0.70564 0.06325 0.0
H1036 H 0.58956 0.65275 0.07518 0.0
H1037 H 0.60143 0.66739 0.05126 0.0
H1038 H 0.61727 0.68763 0.0732 0.0
H1039 H 0.48642 0.66335 0.0515 0.0
H1040 H 0.50022 0.64892 0.03415 0.0
H1041 H 0.48964 0.63422 0.0582 0.0
H1042 H 0.53903 0.60326 0.00727 0.0
H1043 H 0.51418 0.56971 0.06555 0.0
H1044 H 0.57734 0.6716 0.02116 0.0
H1045 H 0.54314 0.66551 0.01567 0.0
H1046 H 0.55803 0.64973 1.00062 0.0
H1047 H 0.54569 0.63053 0.09228 0.0
H1048 H 0.5168 0.59612 0.09314 0.0
H1049 H 0.51132 0.62407 0.08695 0.0
C1050 C 0.84907 0.31715 0.94231 0.0
C1051 C 0.83923 0.29445 0.95478 0.0
C1052 C 0.8696 0.34313 0.94888 0.0
C1053 C 0.88086 0.34634 0.96825 0.0
C1054 C 0.87148 0.32331 0.98069 0.0
C1055 C 0.85064 0.2977 0.97386 0.0
C1056 C 0.87876 0.36723 0.93528 0.0
C1057 C 0.88326 0.32577 1.0013 0.0
C1058 C 0.95025 0.40949 0.98053 0.0
C1059 C 0.94171 0.42517 0.99139 0.0
C1060 C 0.93068 0.38386 0.97281 0.0
C1061 C 0.90189 0.37386 0.97576 0.0
C1062 C 0.89316 0.38988 0.98637 0.0
C1063 C 0.91317 0.41526 0.99411 0.0
C1064 C 0.94084 0.36725 0.96183 0.0
C1065 C 0.86269 0.38015 0.98969 0.0
H1066 H 0.84011 0.3147 0.92762 0.0
H1067 H 0.84325 0.28011 0.98345 0.0
H1068 H 0.87389 0.3822 0.94213 0.0
H1069 H 0.90163 0.37771 0.93314 0.0
H1070 H 0.86842 0.36123 0.92053 0.0
H1071 H 0.87459 0.30572 0.00878 0.0
H1072 H 0.90625 0.33521 1.00063 0.0
H1073 H 0.87867 0.33929 0.01051 0.0
H1074 H 0.97227 0.41699 0.97842 0.0
H1075 H 0.90639 0.42745 1.00223 0.0
H1076 H 0.93163 0.36218 0.94672 0.0
H1077 H 0.93395 0.3477 0.96965 0.0
H1078 H 0.96389 0.3781 0.96053 0.0
H1079 H 0.85153 0.3754 0.97525 0.0
H1080 H 0.85936 0.39549 0.99764 0.0
H1081 H 0.85316 0.3611 0.99848 0.0
C1082 C 0.69906 0.54706 0.98287 0.0
C1083 C 0.70118 0.54315 0.96248 0.0
C1084 C 0.67462 0.54481 0.99104 0.0
C1085 C 0.65153 0.53858 0.9786 0.0
C1086 C 0.65345 0.53458 0.95802 0.0
C1087 C 0.67809 0.53681 0.95025 0.0
C1088 C 0.67348 0.54891 0.01306 0.0
C1089 C 0.62942 0.52802 0.94416 0.0
C1090 C 0.5782 0.5106 0.99953 0.0
C1091 C 0.57541 0.53389 0.99979 0.0
C1092 C 0.60316 0.51196 0.99344 0.0
C1093 C 0.62571 0.5371 0.9869 0.0
C1094 C 0.62311 0.56076 0.9875 0.0
C1095 C 0.59807 0.55886 0.99393 0.0
C1096 C 0.60501 0.48627 0.99341 0.0
C1097 C 0.64653 0.588 0.98077 0.0
H1098 H 0.71671 0.5523 0.99251 0.0
H1099 H 0.67912 0.53326 0.93457 0.0
H1100 H 0.66618 0.56359 0.01605 0.0
H1101 H 0.65832 0.52924 0.01992 0.0
H1102 H 0.69402 0.5564 0.0204 0.0
H1103 H 0.63405 0.52532 0.92857 0.0
H1104 H 0.61061 0.50908 0.94899 0.0
H1105 H 0.62429 0.54462 0.94465 0.0
H1106 H 0.56062 0.49109 1.00353 0.0
H1107 H 0.59592 0.57687 0.99386 0.0
H1108 H 0.62391 0.48969 1.00156 0.0
H1109 H 0.60684 0.48066 0.97794 0.0
H1110 H 0.5865 0.46887 1.00031 0.0
H1111 H 0.66593 0.59318 0.989 0.0
H1112 H 0.64174 0.60467 0.98298 0.0
H1113 H 0.65064 0.58694 0.96479 0.0
C1114 C 0.46915 0.15215 0.94745 0.0
C1115 C 0.45873 0.16549 0.9591 0.0
C1116 C 0.47387 0.13206 0.95562 0.0
C1117 C 0.46732 0.12474 0.97577 0.0
C1118 C 0.45603 0.13767 0.98744 0.0
C1119 C 0.45224 0.15825 0.97901 0.0
C1120 C 0.48649 0.11915 0.94281 0.0
C1121 C 0.44809 0.12986 0.00882 0.0
C1122 C 0.45862 0.05609 0.98971 0.0
C1123 C 0.48427 0.06371 0.99881 0.0
C1124 C 0.45242 0.0758 0.98279 0.0
C1125 C 0.47264 0.10375 0.9846 0.0
C1126 C 0.49844 0.11156 0.99404 0.0
C1127 C 0.50382 0.09142 1.00124 0.0
C1128 C 0.4244 0.0667 0.97329 0.0
C1129 C 0.52072 0.14113 0.99595 0.0
H1130 H 0.47442 0.15809 0.93209 0.0
H1131 H 0.44417 0.16868 0.98794 0.0
H1132 H 0.50634 0.12267 0.94952 0.0
H1133 H 0.47231 0.09679 0.94199 0.0
H1134 H 0.49069 0.12739 0.92749 0.0
H1135 H 0.43838 0.141 0.01557 0.0
H1136 H 0.43327 0.10765 0.00989 0.0
H1137 H 0.4668 0.13423 0.01764 0.0
H1138 H 0.44331 0.03469 0.98803 0.0
H1139 H 0.52372 0.09737 0.00823 0.0
H1140 H 0.42715 0.07239 0.95739 0.0
H1141 H 0.41427 0.07717 0.98042 0.0
H1142 H 0.41025 0.04433 0.97439 0.0
H1143 H 0.52731 0.15013 0.98097 0.0
H1144 H 0.53933 0.14379 0.00417 0.0
H1145 H 0.5124 0.15281 1.00372 0.0
C1146 C 0.69959 0.15226 0.99165 0.0
C1147 C 0.70246 0.16172 0.97219 0.0
C1148 C 0.67498 0.12922 0.99791 0.0
C1149 C 0.6526 0.11542 0.98436 0.0
C1150 C 0.65577 0.12465 0.96446 0.0
C1151 C 0.6807 0.14787 0.95862 0.0
C1152 C 0.67263 0.12071 0.01931 0.0
C1153 C 0.63259 0.11032 0.94948 0.0
C1154 C 0.59625 0.04221 0.99419 0.0
C1155 C 0.57392 0.04543 1.00031 0.0
C1156 C 0.62215 0.06483 0.98946 0.0
C1157 C 0.62588 0.09139 0.99091 0.0
C1158 C 0.60371 0.09482 0.99793 0.0
C1159 C 0.57785 0.07176 1.00222 0.0
C1160 C 0.64531 0.06026 0.98238 0.0
C1161 C 0.60706 0.12278 1.00039 0.0
H1162 H 0.71636 0.16343 1.00221 0.0
H1163 H 0.68291 0.15554 0.94363 0.0
H1164 H 0.66112 0.12899 0.02747 0.0
H1165 H 0.66104 0.09822 0.02084 0.0
H1166 H 0.69341 0.12883 0.02641 0.0
H1167 H 0.63863 0.11948 0.93448 0.0
H1168 H 0.62648 0.08847 0.94848 0.0
H1169 H 0.61398 0.11127 0.95433 0.0
H1170 H 0.59316 0.02183 0.99254 0.0
H1171 H 0.56052 0.07438 0.0065 0.0
H1172 H 0.66403 0.07181 0.99188 0.0
H1173 H 0.6512 0.06801 0.96703 0.0
H1174 H 0.63931 0.03838 0.98256 0.0
H1175 H 0.62538 0.13559 0.00995 0.0
H1176 H 0.58839 0.12201 0.0071 0.0
H1177 H 0.6109 0.1329 0.98575 0.0
C1178 C 0.84967 0.52925 0.95819 0.0
C1179 C 0.83544 0.53574 0.97232 0.0
C1180 C 0.87399 0.52848 0.9634 0.0
C1181 C 0.88403 0.53401 0.98326 0.0
C1182 C 0.8698 0.54109 0.99739 0.0
C1183 C 0.84571 0.54179 0.99175 0.0
C1184 C 0.88867 0.5213 0.94775 0.0
C1185 C 0.87918 0.54672 0.01872 0.0
C1186 C 0.93031 0.50539 1.00037 0.0
C1187 C 0.95699 0.52846 0.9997 0.0
C1188 C 0.90639 0.50702 0.99562 0.0
C1189 C 0.90918 0.53215 0.98929 0.0
C1190 C 0.93611 0.55551 0.98861 0.0
C1191 C 0.95958 0.5534 0.99388 0.0
C1192 C 0.87815 0.48172 0.99717 0.0
C1193 C 0.9402 0.58269 0.98197 0.0
H1194 H 0.8415 0.52424 0.94319 0.0
H1195 H 0.83439 0.54637 1.00276 0.0
H1196 H 0.91088 0.53744 0.94694 0.0
H1197 H 0.88814 0.50206 0.95179 0.0
H1198 H 0.87903 0.51874 0.93285 0.0
H1199 H 0.8688 0.5561 0.02705 0.0
H1200 H 0.87395 0.52719 0.02594 0.0
H1201 H 0.90204 0.56036 0.0198 0.0
H1202 H 0.92808 0.4859 0.00429 0.0
H1203 H 0.98016 0.57125 0.99307 0.0
H1204 H 0.86811 0.47613 0.98232 0.0
H1205 H 0.86449 0.4857 0.00694 0.0
H1206 H 0.87941 0.46411 1.00317 0.0
H1207 H 0.93192 0.58089 0.9667 0.0
H1208 H 0.96247 0.5989 0.98217 0.0
H1209 H 0.92839 0.58906 0.99174 0.0
C1210 C 0.46208 0.30596 0.97518 0.0
C1211 C 0.47902 0.30641 0.95973 0.0
C1212 C 0.46124 0.32953 0.98037 0.0
C1213 C 0.47785 0.35397 0.9698 0.0
C1214 C 0.4937 0.35394 0.95336 0.0
C1215 C 0.49419 0.33004 0.94856 0.0
C1216 C 0.44411 0.32874 0.99798 0.0
C1217 C 0.51157 0.37954 0.9417 0.0
C1218 C 0.46737 0.41452 0.97923 0.0
C1219 C 0.48827 0.42927 0.99334 0.0
C1220 C 0.46375 0.39 0.97126 0.0
C1221 C 0.48147 0.38012 0.97756 0.0
C1222 C 0.50276 0.39511 0.99164 0.0
C1223 C 0.50597 0.41951 0.99924 0.0
C1224 C 0.44093 0.37459 0.9562 0.0
C1225 C 0.52213 0.38533 0.99879 0.0
H1226 H 0.45052 0.28753 0.98382 0.0
H1227 H 0.50739 0.33019 0.93667 0.0
H1228 H 0.45819 0.34052 0.01043 0.0
H1229 H 0.4315 0.33839 0.99429 0.0
H1230 H 0.42995 0.3076 1.00311 0.0
H1231 H 0.51966 0.37531 0.92789 0.0
H1232 H 0.49961 0.38978 0.93774 0.0
H1233 H 0.52955 0.394 0.95094 0.0
H1234 H 0.45373 0.42201 0.97447 0.0
H1235 H 0.52262 0.43104 0.00976 0.0
H1236 H 0.42601 0.35406 0.96197 0.0
H1237 H 0.44987 0.3716 0.94237 0.0
H1238 H 0.42932 0.38531 0.95253 0.0
H1239 H 0.50995 0.36512 0.00594 0.0
H1240 H 0.53782 0.39961 0.00963 0.0
H1241 H 0.53327 0.38282 0.98605 0.0
C1242 C 0.16813 0.68566 0.07845 0.0
C1243 C 0.1743 0.70651 0.06486 0.0
C1244 C 0.14448 0.65975 0.07583 0.0
C1245 C 0.12698 0.65472 0.05909 0.0
C1246 C 0.13255 0.67631 0.04592 0.0
C1247 C 0.15621 0.70199 0.04898 0.0
C1248 C 0.13922 0.63735 0.09024 0.0
C1249 C 0.11455 0.67183 0.02786 0.0
C1250 C 0.09095 0.58462 0.03525 0.0
C1251 C 0.06302 0.5746 0.04048 0.0
C1252 C 0.11195 0.61029 0.04166 0.0
C1253 C 0.10505 0.62638 0.0539 0.0
C1254 C 0.07711 0.6159 0.06005 0.0
C1255 C 0.05639 0.59008 0.05326 0.0
C1256 C 0.14142 0.62055 0.0347 0.0
C1257 C 0.069 0.63232 0.07324 0.0
H1258 H 0.18241 0.68926 0.09063 0.0
H1259 H 0.16129 0.7182 0.03841 0.0
H1260 H 0.11699 0.62612 0.09465 0.0
H1261 H 0.14391 0.6225 0.083 0.0
H1262 H 0.15232 0.64535 0.1038 0.0
H1263 H 0.12008 0.69121 0.02019 0.0
H1264 H 0.11701 0.65818 0.01724 0.0
H1265 H 0.09227 0.66167 0.03206 0.0
H1266 H 0.09646 0.57254 0.02584 0.0
H1267 H 0.03493 0.58241 0.05756 0.0
H1268 H 0.15599 0.62747 0.04751 0.0
H1269 H 0.14784 0.63834 0.02482 0.0
H1270 H 0.14362 0.60474 0.02644 0.0
H1271 H 0.08266 0.63962 0.08655 0.0
H1272 H 0.04698 0.6204 0.07812 0.0
H1273 H 0.07188 0.65059 0.06516 0.0
C1274 C 0.30597 0.46685 0.03931 0.0
C1275 C 0.30229 0.47241 0.05894 0.0
C1276 C 0.33066 0.46771 0.03327 0.0
C1277 C 0.3524 0.47444 0.04718 0.0
C1278 C 0.34849 0.47964 0.0672 0.0
C1279 C 0.3235 0.4787 0.07282 0.0
C1280 C 0.33378 0.46237 0.0118 0.0
C1281 C 0.37088 0.48657 0.0826 0.0
C1282 C 0.40685 0.45362 0.0363 0.0
C1283 C 0.42996 0.47831 0.03047 0.0
C1284 C 0.38153 0.45204 0.04153 0.0
C1285 C 0.37903 0.47574 0.04087 0.0
C1286 C 0.40211 0.50063 0.03445 0.0
C1287 C 0.42741 0.50171 0.02965 0.0
C1288 C 0.35757 0.42506 0.04815 0.0
C1289 C 0.40028 0.52626 0.03297 0.0
H1290 H 0.2897 0.46246 0.0285 0.0
H1291 H 0.32076 0.48338 0.08797 0.0
H1292 H 0.3491 0.48182 0.00479 0.0
H1293 H 0.34176 0.44796 0.01046 0.0
H1294 H 0.31383 0.45396 1.00347 0.0
H1295 H 0.36443 0.48943 0.09758 0.0
H1296 H 0.3762 0.47013 0.08332 0.0
H1297 H 0.39008 0.50556 0.07837 0.0
H1298 H 0.40878 0.43551 0.03713 0.0
H1299 H 0.44534 0.52099 0.02559 0.0
H1300 H 0.33913 0.41921 0.03855 0.0
H1301 H 0.35161 0.42691 0.06353 0.0
H1302 H 0.36274 0.40847 0.04769 0.0
H1303 H 0.3822 0.52252 0.02361 0.0
H1304 H 0.41941 0.54348 0.02655 0.0
H1305 H 0.39693 0.53229 0.04792 0.0
C1306 C 0.57846 0.86776 0.0387 0.0
C1307 C 0.56621 0.84839 0.05368 0.0
C1308 C 0.57002 0.88697 0.03526 0.0
C1309 C 0.54883 0.88664 0.04715 0.0
C1310 C 0.53706 0.86755 0.06278 0.0
C1311 C 0.54585 0.84846 0.0658 0.0
C1312 C 0.58306 0.90697 0.01847 0.0
C1313 C 0.51457 0.86671 0.07582 0.0
C1314 C 0.54296 0.95052 0.04595 0.0
C1315 C 0.52148 0.94341 0.03203 0.0
C1316 C 0.55155 0.93199 0.05143 0.0
C1317 C 0.53847 0.90573 0.04273 0.0
C1318 C 0.5163 0.89814 0.02906 0.0
C1319 C 0.50792 0.917 0.02402 0.0
C1320 C 0.57509 0.94074 0.06618 0.0
C1321 C 0.50186 0.87032 0.0194 0.0
H1322 H 0.59399 0.86728 0.02922 0.0
H1323 H 0.53625 0.8331 0.07722 0.0
H1324 H 0.56694 0.90345 0.00721 0.0
H1325 H 0.5917 0.92813 0.02404 0.0
H1326 H 0.59999 0.90519 0.01111 0.0
H1327 H 0.50889 0.85183 0.08809 0.0
H1328 H 0.52148 0.88717 0.08226 0.0
H1329 H 0.49566 0.86106 0.06681 0.0
H1330 H 0.55343 0.97076 0.05243 0.0
H1331 H 0.49085 0.91105 0.01367 0.0
H1332 H 0.59318 0.94113 0.05887 0.0
H1333 H 0.56865 0.92588 0.0785 0.0
H1334 H 0.58191 0.96127 0.07251 0.0
H1335 H 0.51699 0.86764 0.01031 0.0
H1336 H 0.48428 0.86726 0.00969 0.0
H1337 H 0.4938 0.85421 0.03088 0.0
C1338 C 0.99703 0.19986 0.41404 0.0
C1339 C 0.97417 0.18301 0.40192 0.0
C1340 C 0.02145 0.22143 0.40598 0.0
C1341 C 0.02305 0.22644 0.3853 0.0
C1342 C 1.00003 0.20954 0.373 0.0
C1343 C 0.97595 0.18802 0.38144 0.0
C1344 C 0.04555 0.23895 0.41963 0.0
C1345 C 1.00084 0.21403 0.35091 0.0
C1346 C 0.0759 0.29894 0.37088 0.0
C1347 C 0.09896 0.29643 0.36566 0.0
C1348 C 0.05064 0.27609 0.37636 0.0
C1349 C 0.04844 0.25008 0.37682 0.0
C1350 C 0.07128 0.24726 0.37058 0.0
C1351 C 0.09639 0.27054 0.36526 0.0
C1352 C 0.02668 0.27997 0.38253 0.0
C1353 C 0.06971 0.21988 0.37046 0.0
H1354 H 0.99597 0.1959 0.42982 0.0
H1355 H 0.95829 0.17524 0.37198 0.0
H1356 H 0.06451 0.2387 0.4147 0.0
H1357 H 0.05019 0.26039 0.41899 0.0
H1358 H 0.04127 0.23201 0.43527 0.0
H1359 H 0.98016 0.20131 0.34379 0.0
H1360 H 0.00819 0.23576 0.34761 0.0
H1361 H 0.01577 0.2088 0.34411 0.0
H1362 H 0.07795 0.31901 0.37128 0.0
H1363 H 0.1143 0.26856 0.36159 0.0
H1364 H 0.02241 0.27535 0.39854 0.0
H1365 H 0.00751 0.26564 0.37427 0.0
H1366 H 0.03101 0.30109 0.37991 0.0
H1367 H 0.08805 0.2207 0.36316 0.0
H1368 H 0.05058 0.20454 0.36267 0.0
H1369 H 0.0686 0.2128 0.38594 0.0
C1370 C 0.8148 0.80236 0.4151 0.0
C1371 C 0.83155 0.79687 0.40251 0.0
C1372 C 0.79255 0.80511 0.40759 0.0
C1373 C 0.78666 0.80217 0.38695 0.0
C1374 C 0.80353 0.79667 0.37419 0.0
C1375 C 0.82572 0.7942 0.38207 0.0
C1376 C 0.77522 0.81104 0.42179 0.0
C1377 C 0.79824 0.79345 0.35215 0.0
C1378 C 0.71223 0.78227 0.37234 0.0
C1379 C 0.71487 0.8074 0.36713 0.0
C1380 C 0.73551 0.78017 0.37813 0.0
C1381 C 0.76223 0.80385 0.37894 0.0
C1382 C 0.76514 0.82919 0.37306 0.0
C1383 C 0.74142 0.8307 0.36746 0.0
C1384 C 0.73135 0.75268 0.38398 0.0
C1385 C 0.79316 0.85492 0.37334 0.0
H1386 H 0.81928 0.80484 0.43087 0.0
H1387 H 0.8383 0.78969 0.37219 0.0
H1388 H 0.77548 0.83002 0.41736 0.0
H1389 H 0.75324 0.79429 0.42119 0.0
H1390 H 0.7828 0.81335 0.43734 0.0
H1391 H 0.81142 0.78664 0.34447 0.0
H1392 H 0.77605 0.77852 0.34904 0.0
H1393 H 0.80275 0.81329 0.34582 0.0
H1394 H 0.69172 0.76425 0.3723 0.0
H1395 H 0.74363 0.85031 0.36395 0.0
H1396 H 0.73664 0.75297 0.3999 0.0
H1397 H 0.74551 0.74803 0.37537 0.0
H1398 H 0.70958 0.73603 0.38153 0.0
H1399 H 0.80077 0.86011 0.38886 0.0
H1400 H 0.7923 0.87247 0.36677 0.0
H1401 H 0.80859 0.85181 0.36503 0.0
C1402 C 0.2007 0.02971 0.39757 0.0
C1403 C 0.22759 0.04773 0.40459 0.0
C1404 C 0.19363 0.00367 0.39066 0.0
C1405 C 0.21415 0.99576 0.39043 0.0
C1406 C 0.24126 0.01378 0.39779 0.0
C1407 C 0.2476 0.03953 0.40497 0.0
C1408 C 0.16436 0.98482 0.3833 0.0
C1409 C 0.26378 0.00617 0.3975 0.0
C1410 C 0.19128 0.92064 0.38609 0.0
C1411 C 0.19388 0.91794 0.36568 0.0
C1412 C 0.19764 0.94584 0.39437 0.0
C1413 C 0.20741 0.96892 0.38195 0.0
C1414 C 0.21044 0.9663 0.36134 0.0
C1415 C 0.20343 0.94073 0.35343 0.0
C1416 C 0.19359 0.94769 0.41633 0.0
C1417 C 0.22129 0.99054 0.34767 0.0
H1418 H 0.18522 0.03609 0.39742 0.0
H1419 H 0.26846 0.05365 0.41025 0.0
H1420 H 0.16472 0.98062 0.36726 0.0
H1421 H 0.15532 0.965 0.39111 0.0
H1422 H 0.15049 0.99351 0.38551 0.0
H1423 H 0.28359 0.02227 0.40416 0.0
H1424 H 0.25689 0.98692 0.40571 0.0
H1425 H 0.26781 0.0026 0.38198 0.0
H1426 H 0.18377 0.90288 0.39552 0.0
H1427 H 0.20617 0.93875 0.33778 0.0
H1428 H 0.17863 0.95502 0.41879 0.0
H1429 H 0.21357 0.9627 0.42338 0.0
H1430 H 0.18568 0.92777 0.42389 0.0
H1431 H 0.20741 0.9994 0.34813 0.0
H1432 H 0.2228 0.9851 0.33207 0.0
H1433 H 0.24222 0.00662 0.35272 0.0
C1434 C 0.52916 0.63579 0.29083 0.0
C1435 C 0.50243 0.63213 0.28794 0.0
C1436 C 0.55086 0.66037 0.29855 0.0
C1437 C 0.54578 0.68191 0.30321 0.0
C1438 C 0.51898 0.6785 0.2999 0.0
C1439 C 0.49759 0.6536 0.29242 0.0
C1440 C 0.57904 0.66309 0.3021 0.0
C1441 C 0.51282 0.70109 0.3044 0.0
C1442 C 0.59183 0.7359 0.34092 0.0
C1443 C 0.60986 0.75747 0.32872 0.0
C1444 C 0.57115 0.71108 0.33284 0.0
C1445 C 0.56829 0.70781 0.31198 0.0
C1446 C 0.58663 0.72948 0.29955 0.0
C1447 C 0.60732 0.75397 0.30808 0.0
C1448 C 0.55233 0.68836 0.34663 0.0
C1449 C 0.58406 0.72698 0.27724 0.0
H1450 H 0.53289 0.61914 0.28755 0.0
H1451 H 0.47702 0.65092 0.29 0.0
H1452 H 0.59529 0.6809 0.29393 0.0
H1453 H 0.58444 0.66675 0.3181 0.0
H1454 H 0.57972 0.64462 0.29738 0.0
H1455 H 0.49119 0.69554 0.3003 0.0
H1456 H 0.51591 0.70608 0.32046 0.0
H1457 H 0.52749 0.71982 0.29627 0.0
H1458 H 0.59418 0.73819 0.3568 0.0
H1459 H 0.62112 0.77066 0.29855 0.0
H1460 H 0.55372 0.66986 0.34343 0.0
H1461 H 0.53036 0.68298 0.34418 0.0
H1462 H 0.55768 0.69397 0.36249 0.0
H1463 H 0.58593 0.70932 0.27217 0.0
H1464 H 0.60017 0.74559 0.26967 0.0
H1465 H 0.5632 0.72318 0.27256 0.0
C1466 C 0.36919 0.87814 0.3147 0.0
C1467 C 0.37207 0.87576 0.2942 0.0
C1468 C 0.34458 0.87563 0.32273 0.0
C1469 C 0.322 0.8704 0.31005 0.0
C1470 C 0.32465 0.86771 0.28936 0.0
C1471 C 0.34958 0.87049 0.28171 0.0
C1472 C 0.34279 0.87858 0.34483 0.0
C1473 C 0.30115 0.86206 0.27525 0.0
C1474 C 0.24781 0.84269 0.32937 0.0
C1475 C 0.24541 0.8662 0.3295 0.0
C1476 C 0.27295 0.84387 0.32395 0.0
C1477 C 0.29612 0.86907 0.31814 0.0
C1478 C 0.29399 0.89298 0.31896 0.0
C1479 C 0.2687 0.89121 0.32451 0.0
C1480 C 0.27429 0.81791 0.32367 0.0
C1481 C 0.31817 0.92036 0.31326 0.0
H1482 H 0.38644 0.88243 0.32452 0.0
H1483 H 0.35133 0.8682 0.26591 0.0
H1484 H 0.33588 0.89348 0.34814 0.0
H1485 H 0.3271 0.85868 0.35108 0.0
H1486 H 0.363 0.88527 0.35244 0.0
H1487 H 0.30608 0.85966 0.25968 0.0
H1488 H 0.28196 0.84321 0.27972 0.0
H1489 H 0.29655 0.879 0.2759 0.0
H1490 H 0.22979 0.8232 0.33281 0.0
H1491 H 0.26688 0.90941 0.32446 0.0
H1492 H 0.293 0.82081 0.3318 0.0
H1493 H 0.27607 0.81251 0.30813 0.0
H1494 H 0.25555 0.80059 0.33042 0.0
H1495 H 0.33703 0.92458 0.32184 0.0
H1496 H 0.31378 0.93722 0.31587 0.0
H1497 H 0.32299 0.92017 0.29732 0.0
C1498 C 0.10348 0.48057 0.3123 0.0
C1499 C 0.11659 0.49645 0.29555 0.0
C1500 C 0.11086 0.46188 0.31963 0.0
C1501 C 0.13172 0.45882 0.3099 0.0
C1502 C 0.14495 0.47465 0.29292 0.0
C1503 C 0.13722 0.4933 0.28595 0.0
C1504 C 0.0962 0.44526 0.33772 0.0
C1505 C 0.16723 0.47186 0.28213 0.0
C1506 C 0.16666 0.42626 0.33857 0.0
C1507 C 0.15191 0.39926 0.33169 0.0
C1508 C 0.1604 0.44592 0.33158 0.0
C1509 C 0.13909 0.43847 0.31721 0.0
C1510 C 0.12435 0.41135 0.31004 0.0
C1511 C 0.1309 0.39209 0.31738 0.0
C1512 C 0.17652 0.47464 0.33962 0.0
C1513 C 0.10152 0.40262 0.29468 0.0
H1514 H 0.0872 0.48257 0.31961 0.0
H1515 H 0.14763 0.50572 0.27314 0.0
H1516 H 0.08505 0.42325 0.3339 0.0
H1517 H 0.11164 0.44847 0.34945 0.0
H1518 H 0.08094 0.45059 0.34386 0.0
H1519 H 0.17565 0.48584 0.26927 0.0
H1520 H 0.18464 0.47622 0.29243 0.0
H1521 H 0.15866 0.45062 0.27676 0.0
H1522 H 0.18325 0.43214 0.34935 0.0
H1523 H 0.11941 0.37133 0.31189 0.0
H1524 H 0.16206 0.48035 0.34661 0.0
H1525 H 0.1871 0.48913 0.32732 0.0
H1526 H 0.19243 0.4771 0.35077 0.0
H1527 H 0.08466 0.40582 0.30049 0.0
H1528 H 0.0924 0.38085 0.2904 0.0
H1529 H 0.10979 0.41528 0.28118 0.0
C1530 C 0.3633 0.49477 0.32286 0.0
C1531 C 0.36454 0.50294 0.30316 0.0
C1532 C 0.3401 0.47096 0.3299 0.0
C1533 C 0.31753 0.45512 0.31691 0.0
C1534 C 0.31912 0.46307 0.29679 0.0
C1535 C 0.34264 0.48703 0.29016 0.0
C1536 C 0.3393 0.46366 0.35147 0.0
C1537 C 0.29564 0.44665 0.2824 0.0
C1538 C 0.26478 0.38124 0.32842 0.0
C1539 C 0.2417 0.38319 0.33456 0.0
C1540 C 0.28991 0.40457 0.32329 0.0
C1541 C 0.29201 0.43051 0.32431 0.0
C1542 C 0.26914 0.43269 0.33137 0.0
C1543 C 0.24412 0.40896 0.33612 0.0
C1544 C 0.3139 0.40138 0.31614 0.0
C1545 C 0.27071 0.45997 0.33327 0.0
H1546 H 0.38016 0.50748 0.33295 0.0
H1547 H 0.34359 0.49369 0.27497 0.0
H1548 H 0.32594 0.46986 0.35955 0.0
H1549 H 0.33028 0.44137 0.35338 0.0
H1550 H 0.36035 0.47428 0.35837 0.0
H1551 H 0.30052 0.455 0.26712 0.0
H1552 H 0.29107 0.42522 0.28202 0.0
H1553 H 0.27646 0.4464 0.28741 0.0
H1554 H 0.26286 0.36129 0.32705 0.0
H1555 H 0.22622 0.41058 0.34043 0.0
H1556 H 0.33288 0.41456 0.325 0.0
H1557 H 0.31859 0.40807 0.30048 0.0
H1558 H 0.30941 0.37998 0.31713 0.0
H1559 H 0.28924 0.47413 0.34218 0.0
H1560 H 0.25187 0.45832 0.34039 0.0
H1561 H 0.27304 0.4691 0.31836 0.0
C1562 C 0.51444 0.87259 0.32276 0.0
C1563 C 0.5038 0.86511 0.30352 0.0
C1564 C 0.53877 0.87253 0.32865 0.0
C1565 C 0.55281 0.86456 0.31499 0.0
C1566 C 0.54236 0.85756 0.2953 0.0
C1567 C 0.51784 0.85778 0.28982 0.0
C1568 C 0.54838 0.87963 0.34983 0.0
C1569 C 0.5568 0.84937 0.28013 0.0
C1570 C 0.62879 0.88523 0.32509 0.0
C1571 C 0.62659 0.86087 0.33194 0.0
C1572 C 0.60503 0.88676 0.3197 0.0
C1573 C 0.57823 0.86338 0.32128 0.0
C1574 C 0.57586 0.83886 0.32867 0.0
C1575 C 0.60005 0.83776 0.33353 0.0
C1576 C 0.60864 0.91337 0.31209 0.0
C1577 C 0.54777 0.81367 0.33128 0.0
H1578 H 0.50323 0.87778 0.33346 0.0
H1579 H 0.50936 0.85165 0.27498 0.0
H1580 H 0.54096 0.8604 0.35819 0.0
H1581 H 0.57142 0.89153 0.35091 0.0
H1582 H 0.53974 0.89146 0.35701 0.0
H1583 H 0.54675 0.84557 0.26529 0.0
H1584 H 0.57892 0.86558 0.27878 0.0
H1585 H 0.5566 0.83059 0.28504 0.0
H1586 H 0.64926 0.9031 0.32363 0.0
H1587 H 0.59816 0.81869 0.33834 0.0
H1588 H 0.59713 0.92029 0.32171 0.0
H1589 H 0.5997 0.91046 0.29694 0.0
H1590 H 0.63085 0.92966 0.31164 0.0
H1591 H 0.53438 0.81841 0.34075 0.0
H1592 H 0.54937 0.7967 0.33818 0.0
H1593 H 0.53725 0.80676 0.31667 0.0
C1594 C 0.0955 0.63098 0.32365 0.0
C1595 C 0.10529 0.62195 0.308 0.0
C1596 C 0.10456 0.65875 0.32609 0.0
C1597 C 0.12384 0.67776 0.31247 0.0
C1598 C 0.13309 0.6685 0.29622 0.0
C1599 C 0.12373 0.64053 0.29422 0.0
C1600 C 0.09428 0.66782 0.34363 0.0
C1601 C 0.15353 0.68818 0.28139 0.0
C1602 C 0.13033 0.74766 0.31375 0.0
C1603 C 0.15333 0.76196 0.32641 0.0
C1604 C 0.12113 0.72051 0.30841 0.0
C1605 C 0.13522 0.70737 0.31595 0.0
C1606 C 0.15913 0.72204 0.32807 0.0
C1607 C 0.16801 0.74922 0.33302 0.0
C1608 C 0.09572 0.70559 0.2953 0.0
C1609 C 0.17472 0.70876 0.33648 0.0
H1610 H 0.08137 0.61637 0.33435 0.0
H1611 H 0.13136 0.63328 0.28222 0.0
H1612 H 0.11203 0.68094 0.35355 0.0
H1613 H 0.08502 0.6802 0.33854 0.0
H1614 H 0.07845 0.65035 0.35236 0.0
H1615 H 0.15703 0.67754 0.26882 0.0
H1616 H 0.14597 0.70158 0.27543 0.0
H1617 H 0.1738 0.70151 0.28883 0.0
H1618 H 0.11902 0.7574 0.30838 0.0
H1619 H 0.18626 0.76034 0.34234 0.0
H1620 H 0.07843 0.6893 0.30392 0.0
H1621 H 0.10012 0.6956 0.28276 0.0
H1622 H 0.08866 0.71936 0.28923 0.0
H1623 H 0.16116 0.69254 0.34702 0.0
H1624 H 0.19405 0.72355 0.34442 0.0
H1625 H 0.18028 0.69895 0.32447 0.0
C1626 C 0.83889 0.01922 0.41091 0.0
C1627 C 0.8459 0.04116 0.3982 0.0
C1628 C 0.81516 0.99372 0.40719 0.0
C1629 C 0.79844 0.99023 0.39026 0.0
C1630 C 0.80488 0.01287 0.37797 0.0
C1631 C 0.82862 0.03812 0.38211 0.0
C1632 C 0.80893 0.97015 0.42071 0.0
C1633 C 0.78771 0.01004 0.35975 0.0
C1634 C 0.76174 0.92102 0.36497 0.0
C1635 C 0.7339 0.91099 0.37043 0.0
C1636 C 0.78287 0.94658 0.37151 0.0
C1637 C 0.77617 0.96248 0.38412 0.0
C1638 C 0.74825 0.95219 0.3902 0.0
C1639 C 0.72741 0.92656 0.38325 0.0
C1640 C 0.81234 0.95672 0.36461 0.0
C1641 C 0.74035 0.96845 0.40376 0.0
H1642 H 0.85257 0.02169 0.42325 0.0
H1643 H 0.83438 0.05518 0.37221 0.0
H1644 H 0.7866 0.95918 0.42485 0.0
H1645 H 0.8132 0.95543 0.41281 0.0
H1646 H 0.82176 0.9769 0.43446 0.0
H1647 H 0.79391 0.03004 0.35283 0.0
H1648 H 0.79028 0.99698 0.34864 0.0
H1649 H 0.76528 -5e-05 0.36353 0.0
H1650 H 0.76714 0.90891 0.3555 0.0
H1651 H 0.706 0.91891 0.38767 0.0
H1652 H 0.8265 0.96184 0.37756 0.0
H1653 H 0.81962 0.97564 0.35586 0.0
H1654 H 0.81416 0.9415 0.35528 0.0
H1655 H 0.75319 0.9742 0.41747 0.0
H1656 H 0.71801 0.957 0.40793 0.0
H1657 H 0.74463 0.98762 0.39636 0.0
C1658 C 0.99578 0.81464 0.40477 0.0
C1659 C 0.97411 0.80783 0.3912 0.0
C1660 C 0.02071 0.8157 0.39883 0.0
C1661 C 0.02409 0.81008 0.3788 0.0
C1662 C 1.00186 0.80277 0.36521 0.0
C1663 C 0.97725 0.80185 0.37157 0.0
C1664 C 0.04362 0.82324 0.4139 0.0
C1665 C 0.00435 0.79711 0.3437 0.0
C1666 C 0.0988 0.83756 0.36052 0.0
C1667 C 0.1017 0.81438 0.36171 0.0
C1668 C 0.07343 0.8363 0.36536 0.0
C1669 C 0.05065 0.81148 0.3722 0.0
C1670 C 0.05346 0.78797 0.37313 0.0
C1671 C 0.07884 0.78971 0.36786 0.0
C1672 C 0.07117 0.86165 0.36347 0.0
C1673 C 0.02974 0.76102 0.38002 0.0
H1674 H 0.99346 0.81966 0.41991 0.0
H1675 H 0.96066 0.79712 0.36097 0.0
H1676 H 0.04913 0.80692 0.41472 0.0
H1677 H 0.0626 0.84217 0.40925 0.0
H1678 H 0.03761 0.82647 0.42893 0.0
H1679 H 0.9837 0.78604 0.33625 0.0
H1680 H 0.01694 0.81683 0.33602 0.0
H1681 H 0.01496 0.78501 0.34199 0.0
H1682 H 0.11652 0.85682 0.35617 0.0
H1683 H 0.08102 0.77177 0.36895 0.0
H1684 H 0.06754 0.86785 0.37828 0.0
H1685 H 0.05309 0.85745 0.35394 0.0
H1686 H 0.09021 0.87892 0.357 0.0
H1687 H 0.02387 0.76308 0.39538 0.0
H1688 H 0.03511 0.74456 0.37973 0.0
H1689 H 0.01118 0.75484 0.37046 0.0
C1690 C 0.24258 0.20071 0.37498 0.0
C1691 C 0.22954 0.18159 0.39001 0.0
C1692 C 0.2359 0.22122 0.37169 0.0
C1693 C 0.21567 0.22243 0.38377 0.0
C1694 C 0.20339 0.20377 0.39958 0.0
C1695 C 0.21041 0.18336 0.40246 0.0
C1696 C 0.24941 0.2407 0.35467 0.0
C1697 C 0.1819 0.20455 0.41283 0.0
C1698 C 0.21179 0.28742 0.38124 0.0
C1699 C 0.19 0.28015 0.36758 0.0
C1700 C 0.21996 0.26865 0.38704 0.0
C1701 C 0.2061 0.24203 0.37892 0.0
C1702 C 0.18369 0.23438 0.36547 0.0
C1703 C 0.17578 0.25345 0.3601 0.0
C1704 C 0.24377 0.27746 0.40155 0.0
C1705 C 0.16842 0.20619 0.35641 0.0
H1706 H 0.25715 0.19892 0.36526 0.0
H1707 H 0.20016 0.16819 0.41392 0.0
H1708 H 0.23345 0.23727 0.34331 0.0
H1709 H 0.25858 0.26207 0.3599 0.0
H1710 H 0.26602 0.23816 0.34754 0.0
H1711 H 0.17635 0.19035 0.42555 0.0
H1712 H 0.18967 0.22548 0.41864 0.0
H1713 H 0.16273 0.19887 0.40413 0.0
H1714 H 0.2228 0.30792 0.38726 0.0
H1715 H 0.15848 0.24741 0.34994 0.0
H1716 H 0.26139 0.27696 0.39422 0.0
H1717 H 0.23726 0.26313 0.41422 0.0
H1718 H 0.25129 0.29837 0.40739 0.0
H1719 H 0.18306 0.20261 0.34745 0.0
H1720 H 0.15088 0.20323 0.3467 0.0
H1721 H 0.16013 0.19056 0.36824 0.0
C1722 C 0.64617 0.52523 0.71527 0.0
C1723 C 0.6453 0.5188 0.73547 0.0
C1724 C 0.67011 0.54691 0.70681 0.0
C1725 C 0.69385 0.56275 0.71882 0.0
C1726 C 0.69314 0.55652 0.73923 0.0
C1727 C 0.66897 0.5346 0.74727 0.0
C1728 C 0.67008 0.55252 0.68494 0.0
C1729 C 0.71793 0.57311 0.7526 0.0
C1730 C 0.76618 0.60585 0.69696 0.0
C1731 C 0.76933 0.63199 0.69761 0.0
C1732 C 0.74121 0.58291 0.7029 0.0
C1733 C 0.71923 0.58632 0.71028 0.0
C1734 C 0.72214 0.61262 0.71053 0.0
C1735 C 0.74712 0.63511 0.70414 0.0
C1736 C 0.73876 0.55517 0.7019 0.0
C1737 C 0.69921 0.61716 0.71821 0.0
H1738 H 0.62796 0.51346 0.70602 0.0
H1739 H 0.66877 0.52963 0.7628 0.0
H1740 H 0.67912 0.57464 0.68215 0.0
H1741 H 0.68316 0.54575 0.67712 0.0
H1742 H 0.6488 0.54149 0.67843 0.0
H1743 H 0.71408 0.56566 0.76813 0.0
H1744 H 0.73638 0.57246 0.74696 0.0
H1745 H 0.72321 0.59476 0.75258 0.0
H1746 H 0.78349 0.60338 0.69237 0.0
H1747 H 0.74964 0.65535 0.70485 0.0
H1748 H 0.71947 0.54066 0.69385 0.0
H1749 H 0.7373 0.54718 0.71712 0.0
H1750 H 0.75683 0.55574 0.69435 0.0
H1751 H 0.67944 0.60372 0.71022 0.0
H1752 H 0.70419 0.63864 0.71651 0.0
H1753 H 0.69566 0.61175 0.73415 0.0
C1754 C 0.49617 0.13082 0.71527 0.0
C1755 C 0.50133 0.1334 0.73581 0.0
C1756 C 0.47438 0.13355 0.70689 0.0
C1757 C 0.45716 0.13908 0.71925 0.0
C1758 C 0.46234 0.1419 0.73997 0.0
C1759 C 0.48426 0.13902 0.74798 0.0
C1760 C 0.46998 0.13067 0.68474 0.0
C1761 C 0.44454 0.14776 0.75376 0.0
C1762 C 0.41229 0.1675 0.69883 0.0
C1763 C 0.38583 0.1441 0.6981 0.0
C1764 C 0.43592 0.16607 0.70483 0.0
C1765 C 0.43296 0.14073 0.71074 0.0
C1766 C 0.40636 0.11696 0.7095 0.0
C1767 C 0.38321 0.11895 0.70325 0.0
C1768 C 0.46387 0.19186 0.70547 0.0
C1769 C 0.40218 0.08946 0.71537 0.0
H1770 H 0.50896 0.12622 0.70569 0.0
H1771 H 0.48821 0.14148 0.76381 0.0
H1772 H 0.44772 0.11668 0.6811 0.0
H1773 H 0.47591 0.15088 0.67838 0.0
H1774 H 0.48268 0.12296 0.67749 0.0
H1775 H 0.45157 0.14995 0.76944 0.0
H1776 H 0.44498 0.16678 0.7492 0.0
H1777 H 0.42258 0.13103 0.75281 0.0
H1778 H 0.41446 0.18709 0.69528 0.0
H1779 H 0.36277 0.10083 0.70285 0.0
H1780 H 0.47952 0.18891 0.69732 0.0
H1781 H 0.47112 0.19689 0.72106 0.0
H1782 H 0.46308 0.20945 0.69889 0.0
H1783 H 0.41657 0.08495 0.70693 0.0
H1784 H 0.3805 0.07277 0.7127 0.0
H1785 H 0.40716 0.08966 0.73134 0.0
C1786 C 0.91361 0.37104 0.74033 0.0
C1787 C 0.89275 0.3781 0.74096 0.0
C1788 C 0.90783 0.3455 0.73307 0.0
C1789 C 0.88046 0.32657 0.72667 0.0
C1790 C 0.85912 0.33329 0.72801 0.0
C1791 C 0.86561 0.35913 0.73498 0.0
C1792 C 0.93117 0.33913 0.73159 0.0
C1793 C 0.82959 0.31344 0.72168 0.0
C1794 C 0.86933 0.27228 0.68892 0.0
C1795 C 0.86139 0.24961 0.70104 0.0
C1796 C 0.87598 0.29761 0.69711 0.0
C1797 C 0.87427 0.30007 0.71789 0.0
C1798 C 0.8662 0.27715 0.7302 0.0
C1799 C 0.8601 0.25221 0.72162 0.0
C1800 C 0.88496 0.32172 0.68353 0.0
C1801 C 0.86364 0.27887 0.75238 0.0
H1802 H 0.93464 0.3859 0.74481 0.0
H1803 H 0.84951 0.36467 0.73561 0.0
H1804 H 0.92558 0.31998 0.73958 0.0
H1805 H 0.93448 0.33591 0.71583 0.0
H1806 H 0.95106 0.35572 0.7378 0.0
H1807 H 0.81513 0.32122 0.72483 0.0
H1808 H 0.82893 0.30932 0.70554 0.0
H1809 H 0.82197 0.29372 0.72942 0.0
H1810 H 0.87106 0.27043 0.67312 0.0
H1811 H 0.8538 0.23455 0.73097 0.0
H1812 H 0.90589 0.3384 0.68801 0.0
H1813 H 0.87036 0.32968 0.68481 0.0
H1814 H 0.88571 0.31645 0.66775 0.0
H1815 H 0.88381 0.29455 0.7588 0.0
H1816 H 0.85718 0.25914 0.75984 0.0
H1817 H 0.84811 0.28522 0.75574 0.0
C1818 C 0.18716 0.98972 0.60831 0.0
C1819 C 0.17654 0.96665 0.62046 0.0
C1820 C 0.2081 0.01527 0.61526 0.0
C1821 C 0.21902 0.01764 0.63466 0.0
C1822 C 0.20885 0.99421 0.64677 0.0
C1823 C 0.18755 0.96906 0.63958 0.0
C1824 C 0.21805 0.03984 0.60203 0.0
C1825 C 0.22029 0.99575 0.66738 0.0
C1826 C 0.28918 0.07959 0.64727 0.0
C1827 C 0.28119 0.09559 0.65826 0.0
C1828 C 0.26919 0.05415 0.63952 0.0
C1829 C 0.24052 0.04472 0.64254 0.0
C1830 C 0.23235 0.06099 0.65341 0.0
C1831 C 0.25277 0.08611 0.66123 0.0
C1832 C 0.27875 0.0372 0.62834 0.0
C1833 C 0.20202 0.05188 0.65679 0.0
H1834 H 0.17849 0.9879 0.59358 0.0
H1835 H 0.1795 0.95116 0.64892 0.0
H1836 H 0.21377 0.05504 0.60917 0.0
H1837 H 0.24089 0.04977 0.59994 0.0
H1838 H 0.20778 0.03451 0.58724 0.0
H1839 H 0.21102 0.97545 0.67455 0.0
H1840 H 0.24322 0.00465 0.66681 0.0
H1841 H 0.21611 0.00936 0.67683 0.0
H1842 H 0.31111 0.08672 0.64499 0.0
H1843 H 0.24639 0.09848 0.66954 0.0
H1844 H 0.2699 0.03292 0.61312 0.0
H1845 H 0.27103 0.01728 0.63581 0.0
H1846 H 0.3018 0.04741 0.62731 0.0
H1847 H 0.19094 0.04777 0.64235 0.0
H1848 H 0.19916 0.0673 0.66504 0.0
H1849 H 0.19203 0.03258 0.66529 0.0
C1850 C 0.01869 0.20581 0.61659 0.0
C1851 C 0.04132 0.21152 0.62907 0.0
C1852 C 0.99352 0.2024 0.62426 0.0
C1853 C 0.99073 0.20485 0.64496 0.0
C1854 C 0.01344 0.21049 0.65763 0.0
C1855 C 0.03831 0.21366 0.64958 0.0
C1856 C 0.9699 0.19638 0.61015 0.0
C1857 C 0.01151 0.21313 0.67975 0.0
C1858 C 0.93651 0.22434 0.65958 0.0
C1859 C 0.91345 0.19909 0.66444 0.0
C1860 C 0.96201 0.22659 0.65401 0.0
C1861 C 0.96461 0.20296 0.65307 0.0
C1862 C 0.94169 0.17752 0.65878 0.0
C1863 C 0.91631 0.17584 0.66419 0.0
C1864 C 0.98591 0.25421 0.64843 0.0
C1865 C 0.94356 0.15186 0.6584 0.0
H1866 H 0.02053 0.20368 0.60078 0.0
H1867 H 0.05566 0.21829 0.6594 0.0
H1868 H 0.95093 0.17729 0.61457 0.0
H1869 H 0.96486 0.21302 0.61088 0.0
H1870 H 0.97496 0.19422 0.59457 0.0
H1871 H 0.03189 0.22059 0.68733 0.0
H1872 H 0.00366 0.22726 0.68321 0.0
H1873 H 0.9965 0.19292 0.68594 0.0
H1874 H 0.93434 0.24234 0.65963 0.0
H1875 H 0.89846 0.15618 0.66754 0.0
H1876 H 0.9909 0.25423 0.63251 0.0
H1877 H 0.00481 0.2587 0.65707 0.0
H1878 H 0.98112 0.27081 0.65107 0.0
H1879 H 0.9456 0.14668 0.64285 0.0
H1880 H 0.92493 0.13428 0.66504 0.0
H1881 H 0.96233 0.15502 0.6666 0.0
C1882 C 0.76649 0.80888 0.64832 0.0
C1883 C 0.77711 0.82374 0.6308 0.0
C1884 C 0.77481 0.79053 0.65479 0.0
C1885 C 0.7944 0.78716 0.64354 0.0
C1886 C 0.8051 0.80201 0.62577 0.0
C1887 C 0.79618 0.82005 0.61954 0.0
C1888 C 0.76264 0.77474 0.67366 0.0
C1889 C 0.82617 0.79905 0.61348 0.0
C1890 C 0.8339 0.75744 0.66973 0.0
C1891 C 0.81923 0.73024 0.66333 0.0
C1892 C 0.82619 0.7763 0.66329 0.0
C1893 C 0.80325 0.76767 0.6502 0.0
C1894 C 0.78842 0.74027 0.64366 0.0
C1895 C 0.79667 0.72192 0.65024 0.0
C1896 C 0.84261 0.80543 0.67048 0.0
C1897 C 0.76368 0.73026 0.62985 0.0
H1898 H 0.75154 0.81157 0.65693 0.0
H1899 H 0.80461 0.83177 0.60611 0.0
H1900 H 0.75187 0.75254 0.6705 0.0
H1901 H 0.77953 0.77919 0.68448 0.0
H1902 H 0.74757 0.77969 0.68065 0.0
H1903 H 0.83265 0.81228 0.60016 0.0
H1904 H 0.84492 0.80431 0.62258 0.0
H1905 H 0.81735 0.77757 0.6086 0.0
H1906 H 0.85164 0.76411 0.67958 0.0
H1907 H 0.78517 0.70092 0.64524 0.0
H1908 H 0.82871 0.81105 0.67845 0.0
H1909 H 0.85136 0.81936 0.65763 0.0
H1910 H 0.85996 0.80884 0.68057 0.0
H1911 H 0.7474 0.7335 0.63675 0.0
H1912 H 0.75441 0.70829 0.62616 0.0
H1913 H 0.76998 0.74209 0.61587 0.0
C1914 C 0.0362 0.82696 0.65653 0.0
C1915 C 0.03865 0.83582 0.63693 0.0
C1916 C 0.01213 0.80352 0.66301 0.0
C1917 C 0.98991 0.78867 0.64952 0.0
C1918 C 0.99265 0.79736 0.62951 0.0
C1919 C 0.01702 0.821 0.62345 0.0
C1920 C 0.01013 0.79543 0.68448 0.0
C1921 C 0.96961 0.78194 0.6146 0.0
C1922 C 0.93625 0.71482 0.66032 0.0
C1923 C 0.91325 0.71694 0.6664 0.0
C1924 C 0.96148 0.73803 0.65523 0.0
C1925 C 0.96384 0.76408 0.65629 0.0
C1926 C 0.94096 0.76641 0.66317 0.0
C1927 C 0.91578 0.74276 0.66783 0.0
C1928 C 0.98537 0.7346 0.64816 0.0
C1929 C 0.9428 0.79381 0.66509 0.0
H1930 H 0.05286 0.83885 0.667 0.0
H1931 H 0.01891 0.82821 0.60834 0.0
H1932 H 0.99572 0.80064 0.69214 0.0
H1933 H 1.00163 0.77315 0.6859 0.0
H1934 H 0.03063 0.80621 0.69215 0.0
H1935 H 0.97529 0.79085 0.59951 0.0
H1936 H 0.9645 0.76035 0.61387 0.0
H1937 H 0.95051 0.78203 0.61934 0.0
H1938 H 0.93422 0.69482 0.65904 0.0
H1939 H 0.89786 0.74445 0.67209 0.0
H1940 H 0.00415 0.74714 0.65739 0.0
H1941 H 0.99066 0.74192 0.63267 0.0
H1942 H 0.98046 0.71305 0.64871 0.0
H1943 H 0.9612 0.80775 0.6742 0.0
H1944 H 0.9239 0.79227 0.67202 0.0
H1945 H 0.94555 0.80313 0.65022 0.0
C1946 C 0.18576 0.21091 0.65726 0.0
C1947 C 0.1752 0.20427 0.63794 0.0
C1948 C 0.21024 0.21092 0.66279 0.0
C1949 C 0.22452 0.20387 0.64867 0.0
C1950 C 0.21421 0.19784 0.62889 0.0
C1951 C 0.18954 0.19796 0.62378 0.0
C1952 C 0.21957 0.21692 0.68411 0.0
C1953 C 0.22892 0.19069 0.61324 0.0
C1954 C 0.30036 0.22372 0.65845 0.0
C1955 C 0.29799 0.19889 0.6643 0.0
C1956 C 0.2767 0.2257 0.65356 0.0
C1957 C 0.24984 0.20229 0.65458 0.0
C1958 C 0.24728 0.17731 0.66101 0.0
C1959 C 0.27136 0.1758 0.66537 0.0
C1960 C 0.28045 0.25281 0.64707 0.0
C1961 C 0.21911 0.15205 0.66309 0.0
H1962 H 0.17434 0.21531 0.6683 0.0
H1963 H 0.18114 0.19251 0.60887 0.0
H1964 H 0.20988 0.19736 0.69227 0.0
H1965 H 0.24251 0.22678 0.68568 0.0
H1966 H 0.2126 0.23023 0.69117 0.0
H1967 H 0.21909 0.18781 0.59839 0.0
H1968 H 0.25105 0.20701 0.61228 0.0
H1969 H 0.22869 0.17163 0.6174 0.0
H1970 H 0.32089 0.2416 0.65736 0.0
H1971 H 0.26926 0.15638 0.66931 0.0
H1972 H 0.2689 0.25909 0.65719 0.0
H1973 H 0.27163 0.25092 0.63197 0.0
H1974 H 0.30269 0.26908 0.64695 0.0
H1975 H 0.20589 0.15627 0.67315 0.0
H1976 H 0.22058 0.13454 0.66908 0.0
H1977 H 0.2085 0.14619 0.64846 0.0
C1978 C 0.76363 0.96336 0.65962 0.0
C1979 C 0.77361 0.95414 0.64422 0.0
C1980 C 0.77215 0.99108 0.66149 0.0
C1981 C 0.79108 0.00981 0.64757 0.0
C1982 C 0.80027 0.00026 0.63146 0.0
C1983 C 0.79147 0.97236 0.63003 0.0
C1984 C 0.76194 0.00048 0.67889 0.0
C1985 C 0.82032 0.01962 0.6163 0.0
C1986 C 0.79796 0.07985 0.6485 0.0
C1987 C 0.82114 0.09419 0.66101 0.0
C1988 C 0.78857 0.05262 0.64328 0.0
C1989 C 0.80264 0.03946 0.65082 0.0
C1990 C 0.82674 0.05418 0.66274 0.0
C1991 C 0.83583 0.08143 0.66754 0.0
C1992 C 0.76298 0.03765 0.63035 0.0
C1993 C 0.84231 0.04086 0.67113 0.0
H1994 H 0.74997 0.94903 0.67064 0.0
H1995 H 0.79927 0.96496 0.61824 0.0
H1996 H 0.77972 0.01361 0.68878 0.0
H1997 H 0.75281 0.01291 0.67366 0.0
H1998 H 0.74604 0.98315 0.68769 0.0
H1999 H 0.82324 0.00869 0.60366 0.0
H2000 H 0.81281 0.03313 0.61048 0.0
H2001 H 0.84087 0.03285 0.62341 0.0
H2002 H 0.78666 0.08962 0.64317 0.0
H2003 H 0.85421 0.09257 0.67674 0.0
H2004 H 0.74569 0.02166 0.63916 0.0
H2005 H 0.76706 0.02729 0.61791 0.0
H2006 H 0.75606 0.05148 0.62415 0.0
H2007 H 0.82884 0.02483 0.68183 0.0
H2008 H 0.8618 0.05568 0.6789 0.0
H2009 H 0.84762 0.03082 0.65915 0.0
C2010 C 0.49406 0.37542 0.71574 0.0
C2011 C 0.51229 0.37888 0.73129 0.0
C2012 C 0.47068 0.34983 0.71179 0.0
C2013 C 0.46552 0.32722 0.72372 0.0
C2014 C 0.48311 0.33111 0.7402 0.0
C2015 C 0.5065 0.35696 0.74372 0.0
C2016 C 0.45262 0.34662 0.69402 0.0
C2017 C 0.47824 0.30763 0.75337 0.0
C2018 C 0.39565 0.262 0.7166 0.0
C2019 C 0.40273 0.24747 0.70318 0.0
C2020 C 0.41595 0.28772 0.72386 0.0
C2021 C 0.4439 0.2992 0.71747 0.0
C2022 C 0.45121 0.28432 0.70429 0.0
C2023 C 0.43065 0.25864 0.69748 0.0
C2024 C 0.40741 0.30282 0.73807 0.0
C2025 C 0.48069 0.29574 0.69697 0.0
H2026 H 0.49887 0.39245 0.70603 0.0
H2027 H 0.5209 0.35972 0.75562 0.0
H2028 H 0.4555 0.33424 0.68249 0.0
H2029 H 0.43031 0.33564 0.69819 0.0
H2030 H 0.45774 0.36656 0.68746 0.0
H2031 H 0.49135 0.31462 0.76698 0.0
H2032 H 0.45603 0.29575 0.75774 0.0
H2033 H 0.48321 0.29365 0.74509 0.0
H2034 H 0.37419 0.25348 0.72123 0.0
H2035 H 0.43657 0.24736 0.68755 0.0
H2036 H 0.41045 0.3218 0.73104 0.0
H2037 H 0.42076 0.30887 0.75154 0.0
H2038 H 0.38528 0.2904 0.7426 0.0
H2039 H 0.48696 0.31464 0.68842 0.0
H2040 H 0.48311 0.28114 0.68732 0.0
H2041 H 0.49526 0.30124 0.70971 0.0
C2042 C 0.64564 0.13506 0.70676 0.0
C2043 C 0.64268 0.14132 0.72636 0.0
C2044 C 0.6701 0.13568 0.7004 0.0
C2045 C 0.69236 0.14296 0.71395 0.0
C2046 C 0.68916 0.14883 0.73395 0.0
C2047 C 0.66438 0.14809 0.7399 0.0
C2048 C 0.67243 0.12977 0.67892 0.0
C2049 C 0.71212 0.15635 0.74898 0.0
C2050 C 0.74671 0.12208 0.70293 0.0
C2051 C 0.76961 0.14663 0.69664 0.0
C2052 C 0.72146 0.12055 0.7083 0.0
C2053 C 0.71882 0.14414 0.70732 0.0
C2054 C 0.74162 0.16884 0.70035 0.0
C2055 C 0.76687 0.1699 0.69542 0.0
C2056 C 0.6977 0.09372 0.71535 0.0
C2057 C 0.73953 0.19428 0.6984 0.0
H2058 H 0.62904 0.13038 0.69619 0.0
H2059 H 0.66222 0.15336 0.755 0.0
H2060 H 0.68514 0.1494 0.67115 0.0
H2061 H 0.68284 0.11749 0.67727 0.0
H2062 H 0.65173 0.11881 0.67151 0.0
H2063 H 0.70621 0.15971 0.76401 0.0
H2064 H 0.71752 0.13996 0.74983 0.0
H2065 H 0.73112 0.1752 0.74428 0.0
H2066 H 0.74877 0.10407 0.70405 0.0
H2067 H 0.78461 0.18907 0.69097 0.0
H2068 H 0.6791 0.08754 0.70584 0.0
H2069 H 0.69197 0.09598 0.73071 0.0
H2070 H 0.70296 0.07719 0.71512 0.0
H2071 H 0.72142 0.19011 0.68892 0.0
H2072 H 0.75858 0.21144 0.69184 0.0
H2073 H 0.73606 0.20063 0.7132 0.0
C2074 C 0.87523 0.51471 0.73755 0.0
C2075 C 0.89393 0.51166 0.72549 0.0
C2076 C 0.86983 0.53612 0.73432 0.0
C2077 C 0.88332 0.55449 0.71853 0.0
C2078 C 0.90326 0.55208 0.70694 0.0
C2079 C 0.90831 0.53057 0.71058 0.0
C2080 C 0.84858 0.53817 0.74704 0.0
C2081 C 0.91804 0.57124 0.68998 0.0
C2082 C 0.84612 0.58699 0.69313 0.0
C2083 C 0.86076 0.61376 0.70043 0.0
C2084 C 0.85306 0.56744 0.69909 0.0
C2085 C 0.87492 0.57472 0.71296 0.0
C2086 C 0.88922 0.60143 0.72089 0.0
C2087 C 0.88198 0.62065 0.71453 0.0
C2088 C 0.83731 0.53914 0.69025 0.0
C2089 C 0.91245 0.60981 0.73585 0.0
H2090 H 0.86397 0.49972 0.74894 0.0
H2091 H 0.92255 0.52779 0.70117 0.0
H2092 H 0.85692 0.55935 0.75248 0.0
H2093 H 0.82974 0.53287 0.73804 0.0
H2094 H 0.8423 0.52427 0.75999 0.0
H2095 H 0.93453 0.56795 0.68348 0.0
H2096 H 0.90277 0.56819 0.67815 0.0
H2097 H 0.92762 0.59272 0.69502 0.0
H2098 H 0.8292 0.58121 0.68267 0.0
H2099 H 0.89316 0.64114 0.72051 0.0
H2100 H 0.82825 0.52374 0.70219 0.0
H2101 H 0.85181 0.53484 0.68175 0.0
H2102 H 0.82026 0.53656 0.68016 0.0
H2103 H 0.90505 0.59581 0.74872 0.0
H2104 H 0.9206 0.63099 0.74129 0.0
H2105 H 0.92985 0.6083 0.72907 0.0
C2106 C 0.45714 0.90062 0.22712 0.0
C2107 C 0.44702 0.9111 0.24175 0.0
C2108 C 0.46741 0.91421 0.20895 0.0
C2109 C 0.46779 0.93904 0.20529 0.0
C2110 C 0.45773 0.94977 0.22004 0.0
C2111 C 0.44746 0.9357 0.238 0.0
C2112 C 0.47775 0.90193 0.19364 0.0
C2113 C 0.45799 0.97629 0.21691 0.0
C2114 C 0.5183 0.98942 0.16755 0.0
C2115 C 0.50079 0.98588 0.15132 0.0
C2116 C 0.50796 0.97401 0.18496 0.0
C2117 C 0.47934 0.95423 0.18629 0.0
C2118 C 0.46169 0.94984 0.16975 0.0
C2119 C 0.47258 0.9657 0.15251 0.0
C2120 C 0.5276 0.97938 0.20215 0.0
C2121 C 0.4311 0.92886 0.17045 0.0
H2122 H 0.45656 0.88147 0.22972 0.0
H2123 H 0.44003 0.94418 0.24926 0.0
H2124 H 0.46583 0.89827 0.17962 0.0
H2125 H 0.49993 0.91635 0.19025 0.0
H2126 H 0.47579 0.88237 0.19863 0.0
H2127 H 0.44917 0.98177 0.22971 0.0
H2128 H 0.47966 0.99301 0.2145 0.0
H2129 H 0.44583 0.9749 0.20342 0.0
H2130 H 0.54023 0.0045 0.16671 0.0
H2131 H 0.45877 0.96286 0.1402 0.0
H2132 H 0.52697 0.96024 0.20661 0.0
H2133 H 0.52093 0.98673 0.21513 0.0
H2134 H 0.54944 0.9948 0.19855 0.0
H2135 H 0.42828 0.90876 0.17481 0.0
H2136 H 0.42053 0.92662 0.15597 0.0
H2137 H 0.4207 0.9348 0.18185 0.0
C2138 C 0.10847 0.53743 0.22533 0.0
C2139 C 0.09134 0.53893 0.23994 0.0
C2140 C 0.10039 0.53344 0.2053 0.0
C2141 C 0.07449 0.5308 0.19974 0.0
C2142 C 0.058 0.53417 0.21422 0.0
C2143 C 0.06663 0.53821 0.23417 0.0
C2144 C 0.11873 0.53021 0.19031 0.0
C2145 C 0.03028 0.53154 0.20893 0.0
C2146 C 0.0583 0.52821 0.14446 0.0
C2147 C 0.04406 0.50003 0.14094 0.0
C2148 C 0.06793 0.53871 0.16363 0.0
C2149 C 0.06295 0.52054 0.17954 0.0
C2150 C 0.0477 0.49208 0.1761 0.0
C2151 C 0.03849 0.48222 0.15689 0.0
C2152 C 0.08411 0.56917 0.16673 0.0
C2153 C 0.04165 0.47193 0.19264 0.0
H2154 H 0.12782 0.53842 0.22967 0.0
H2155 H 0.05319 0.5392 0.24538 0.0
H2156 H 0.10875 0.50859 0.1855 0.0
H2157 H 0.12129 0.54262 0.17695 0.0
H2158 H 0.13966 0.53626 0.19647 0.0
H2159 H 0.02207 0.53875 0.22111 0.0
H2160 H 0.03201 0.54324 0.19532 0.0
H2161 H 0.01494 0.50983 0.20583 0.0
H2162 H 0.06266 0.54201 0.13213 0.0
H2163 H 0.02705 0.4604 0.15426 0.0
H2164 H 0.10591 0.57555 0.17091 0.0
H2165 H 0.07508 0.5751 0.17912 0.0
H2166 H 0.08437 0.58047 0.15322 0.0
H2167 H 0.06148 0.47453 0.19871 0.0
H2168 H 0.02858 0.45047 0.18762 0.0
H2169 H 0.03079 0.47577 0.20494 0.0
C2170 C 0.47605 0.57209 0.22201 0.0
C2171 C 0.46404 0.55539 0.23861 0.0
C2172 C 0.48144 0.56192 0.2046 0.0
C2173 C 0.47472 0.53433 0.20369 0.0
C2174 C 0.46176 0.5171 0.22016 0.0
C2175 C 0.45647 0.52782 0.23741 0.0
C2176 C 0.49501 0.58096 0.18736 0.0
C2177 C 0.45433 0.48758 0.21979 0.0
C2178 C 0.47279 0.50453 0.15252 0.0
C2179 C 0.49937 0.50725 0.15142 0.0
C2180 C 0.46427 0.51282 0.16953 0.0
C2181 C 0.48272 0.52407 0.18589 0.0
C2182 C 0.50947 0.52667 0.18492 0.0
C2183 C 0.51747 0.51834 0.16774 0.0
C2184 C 0.43562 0.50977 0.16993 0.0
C2185 C 0.52985 0.53867 0.20197 0.0
H2186 H 0.48147 0.5933 0.2227 0.0
H2187 H 0.44726 0.51484 0.2502 0.0
H2188 H 0.51585 0.58339 0.1846 0.0
H2189 H 0.48244 0.57226 0.17367 0.0
H2190 H 0.49752 0.60144 0.19003 0.0
H2191 H 0.44277 0.47646 0.23325 0.0
H2192 H 0.44145 0.47719 0.20652 0.0
H2193 H 0.4736 0.48627 0.21874 0.0
H2194 H 0.45849 0.49565 0.14014 0.0
H2195 H 0.53819 0.52095 0.16696 0.0
H2196 H 0.43741 0.53007 0.1717 0.0
H2197 H 0.42382 0.49731 0.18285 0.0
H2198 H 0.42351 0.50006 0.15621 0.0
H2199 H 0.53519 0.5601 0.20453 0.0
H2200 H 0.54939 0.53827 0.19923 0.0
H2201 H 0.52026 0.52726 0.21579 0.0
C2202 C 0.92321 0.43978 0.80648 0.0
C2203 C 0.93229 0.4558 0.78931 0.0
C2204 C 0.93727 0.44943 0.82461 0.0
C2205 C 0.96097 0.47582 0.82565 0.0
C2206 C 0.96959 0.49254 0.80858 0.0
C2207 C 0.95514 0.48233 0.79059 0.0
C2208 C 0.92731 0.431 0.84248 0.0
C2209 C 0.99471 0.52083 0.80913 0.0
C2210 C 0.98664 0.50642 0.87695 0.0
C2211 C 0.00816 0.50062 0.88023 0.0
C2212 C 0.97136 0.49889 0.85913 0.0
C2213 C 0.97768 0.48512 0.84428 0.0
C2214 C 0.99949 0.47937 0.84747 0.0
C2215 C 0.01447 0.48721 0.86537 0.0
C2216 C 0.94835 0.50549 0.85622 0.0
C2217 C 0.00674 0.46454 0.83207 0.0
H2218 H 0.90524 0.41944 0.80566 0.0
H2219 H 0.96237 0.49475 0.77736 0.0
H2220 H 0.94345 0.42596 0.84708 0.0
H2221 H 0.92397 0.44154 0.85515 0.0
H2222 H 0.90762 0.41168 0.83949 0.0
H2223 H 0.99733 0.53205 0.79508 0.0
H2224 H 0.99297 0.53278 0.82154 0.0
H2225 H 0.01375 0.51949 0.8118 0.0
H2226 H 0.98189 0.51707 0.88829 0.0
H2227 H 0.03082 0.48235 0.86792 0.0
H2228 H 0.92816 0.4864 0.85418 0.0
H2229 H 0.95214 0.51778 0.8426 0.0
H2230 H 0.94653 0.51692 0.86899 0.0
H2231 H 0.98856 0.44397 0.82937 0.0
H2232 H 0.02473 0.46223 0.83663 0.0
H2233 H 0.01178 0.47567 0.81779 0.0
C2234 C 0.59845 0.48903 0.80715 0.0
C2235 C 0.57822 0.47767 0.79211 0.0
C2236 C 0.59169 0.49373 0.82623 0.0
C2237 C 0.56395 0.48689 0.8305 0.0
C2238 C 0.54314 0.47432 0.81565 0.0
C2239 C 0.55052 0.46982 0.79663 0.0
C2240 C 0.61453 0.50703 0.84162 0.0
C2241 C 0.51334 0.4667 0.81959 0.0
C2242 C 0.54711 0.4875 0.88525 0.0
C2243 C 0.55172 0.51407 0.88751 0.0
C2244 C 0.54998 0.47789 0.86662 0.0
C2245 C 0.55751 0.49523 0.84989 0.0
C2246 C 0.56098 0.52163 0.85199 0.0
C2247 C 0.55805 0.53069 0.87072 0.0
C2248 C 0.54606 0.4496 0.86501 0.0
C2249 C 0.56881 0.54076 0.83456 0.0
H2250 H 0.6198 0.49466 0.80388 0.0
H2251 H 0.53478 0.46111 0.78508 0.0
H2252 H 0.61789 0.52756 0.84534 0.0
H2253 H 0.6084 0.49492 0.85547 0.0
H2254 H 0.63456 0.50927 0.83642 0.0
H2255 H 0.49917 0.45452 0.80728 0.0
H2256 H 0.50591 0.45486 0.83352 0.0
H2257 H 0.51201 0.48547 0.82155 0.0
H2258 H 0.5423 0.47459 0.89818 0.0
H2259 H 0.56113 0.55107 0.8723 0.0
H2260 H 0.56636 0.45101 0.8618 0.0
H2261 H 0.53179 0.4383 0.85253 0.0
H2262 H 0.53758 0.43773 0.87885 0.0
H2263 H 0.58984 0.54606 0.82924 0.0
H2264 H 0.56896 0.55992 0.83839 0.0
H2265 H 0.55404 0.5307 0.82209 0.0
C2266 C 0.54626 0.07914 0.79284 0.0
C2267 C 0.53919 0.0995 0.79009 0.0
C2268 C 0.54039 0.06459 0.81081 0.0
C2269 C 0.52742 0.07072 0.82654 0.0
C2270 C 0.52128 0.092 0.82408 0.0
C2271 C 0.5271 0.10599 0.80593 0.0
C2272 C 0.54712 0.04195 0.81268 0.0
C2273 C 0.50782 0.09954 0.84046 0.0
C2274 C 0.48301 0.01453 0.86324 0.0
C2275 C 0.50092 0.02075 0.87966 0.0
C2276 C 0.49145 0.03048 0.84596 0.0
C2277 C 0.51844 0.05366 0.84497 0.0
C2278 C 0.53647 0.06051 0.86162 0.0
C2279 C 0.52756 0.04398 0.8787 0.0
C2280 C 0.47143 0.02237 0.82867 0.0
C2281 C 0.5653 0.08518 0.8613 0.0
H2282 H 0.55547 0.07389 0.78068 0.0
H2283 H 0.52197 0.12199 0.80408 0.0
H2284 H 0.55966 0.04485 0.82626 0.0
H2285 H 0.52753 0.02214 0.81413 0.0
H2286 H 0.55875 0.04082 0.79967 0.0
H2287 H 0.50632 0.11789 0.8368 0.0
H2288 H 0.48653 0.08233 0.84321 0.0
H2289 H 0.51982 0.10345 0.85445 0.0
H2290 H 0.46217 0.99705 0.86386 0.0
H2291 H 0.54172 0.04894 0.89115 0.0
H2292 H 0.4809 0.01897 0.81528 0.0
H2293 H 0.46712 0.03905 0.82522 0.0
H2294 H 0.45134 0.00353 0.83165 0.0
H2295 H 0.57769 0.08297 0.8493 0.0
H2296 H 0.57654 0.08823 0.87559 0.0
H2297 H 0.56403 0.10372 0.85805 0.0
C2298 C 0.12674 0.23801 0.5619 0.0
C2299 C 0.11615 0.24812 0.57646 0.0
C2300 C 0.13678 0.2516 0.54371 0.0
C2301 C 0.13646 0.27607 0.53995 0.0
C2302 C 0.12591 0.28642 0.55463 0.0
C2303 C 0.11587 0.27235 0.57261 0.0
C2304 C 0.14766 0.23973 0.52847 0.0
C2305 C 0.12542 0.31255 0.55139 0.0
C2306 C 0.1864 0.327 0.50222 0.0
C2307 C 0.16883 0.32298 0.48593 0.0
C2308 C 0.17627 0.31158 0.51965 0.0
C2309 C 0.14782 0.29131 0.52094 0.0
C2310 C 0.13013 0.28645 0.50434 0.0
C2311 C 0.14081 0.30233 0.48708 0.0
C2312 C 0.19595 0.31745 0.5369 0.0
C2313 C 0.09972 0.26494 0.50499 0.0
H2314 H 0.12673 0.21914 0.56458 0.0
H2315 H 0.10807 0.28054 0.58383 0.0
H2316 H 0.13577 0.23579 0.51442 0.0
H2317 H 0.16976 0.25452 0.52514 0.0
H2318 H 0.14618 0.22038 0.53352 0.0
H2319 H 0.11623 0.31773 0.56413 0.0
H2320 H 0.14691 0.32962 0.54903 0.0
H2321 H 0.1132 0.31081 0.53785 0.0
H2322 H 0.20821 0.34245 0.50142 0.0
H2323 H 0.12694 0.29912 0.47472 0.0
H2324 H 0.19584 0.29858 0.54143 0.0
H2325 H 0.18892 0.32454 0.54983 0.0
H2326 H 0.21767 0.33324 0.53334 0.0
H2327 H 0.09741 0.24506 0.50941 0.0
H2328 H 0.08913 0.26241 0.49048 0.0
H2329 H 0.08896 0.27054 0.51633 0.0
C2330 C 0.75224 0.88571 0.56742 0.0
C2331 C 0.74135 0.86274 0.57968 0.0
C2332 C 0.74109 0.8842 0.54838 0.0
C2333 C 0.71817 0.8593 0.54173 0.0
C2334 C 0.707 0.83616 0.55419 0.0
C2335 C 0.71889 0.83811 0.57293 0.0
C2336 C 0.75389 0.90914 0.53536 0.0
C2337 C 0.68223 0.80938 0.54785 0.0
C2338 C 0.66917 0.85815 0.50181 0.0
C2339 C 0.67612 0.84722 0.48554 0.0
C2340 C 0.68322 0.86295 0.52001 0.0
C2341 C 0.70528 0.85732 0.52193 0.0
C2342 C 0.71345 0.84769 0.50532 0.0
C2343 C 0.69861 0.84249 0.4874 0.0
C2344 C 0.67366 0.87296 0.53742 0.0
C2345 C 0.73719 0.84188 0.50668 0.0
H2346 H 0.76972 0.90472 0.57263 0.0
H2347 H 0.71028 0.82043 0.58251 0.0
H2348 H 0.76064 0.90446 0.52113 0.0
H2349 H 0.7382 0.91519 0.53175 0.0
H2350 H 0.77212 0.9267 0.54252 0.0
H2351 H 0.6759 0.79342 0.55939 0.0
H2352 H 0.66427 0.81229 0.54451 0.0
H2353 H 0.68714 0.80193 0.53407 0.0
H2354 H 0.65235 0.86259 0.50044 0.0
H2355 H 0.70409 0.83382 0.47506 0.0
H2356 H 0.69144 0.89152 0.54393 0.0
H2357 H 0.66544 0.85718 0.54916 0.0
H2358 H 0.65713 0.87767 0.53323 0.0
H2359 H 0.75576 0.85945 0.51347 0.0
H2360 H 0.74302 0.83754 0.49194 0.0
H2361 H 0.73117 0.82401 0.51638 0.0
C2362 C 0.12892 0.86488 0.56799 0.0
C2363 C 0.13478 0.89194 0.56959 0.0
C2364 C 0.13431 0.85507 0.55031 0.0
C2365 C 0.14566 0.87269 0.53381 0.0
C2366 C 0.15033 0.89961 0.53507 0.0
C2367 C 0.14486 0.90888 0.55291 0.0
C2368 C 0.12903 0.82624 0.54959 0.0
C2369 C 0.16214 0.91902 0.51783 0.0
C2370 C 0.19095 0.86078 0.49747 0.0
C2371 C 0.17282 0.84841 0.48133 0.0
C2372 C 0.18224 0.86844 0.51464 0.0
C2373 C 0.15469 0.86378 0.51579 0.0
C2374 C 0.13626 0.8514 0.49955 0.0
C2375 C 0.14553 0.84387 0.48253 0.0
C2376 C 0.20265 0.88173 0.53153 0.0
C2377 C 0.10675 0.84613 0.50017 0.0
H2378 H 0.12126 0.85172 0.58083 0.0
H2379 H 0.14901 0.92969 0.55394 0.0
H2380 H 0.11656 0.8155 0.53625 0.0
H2381 H 0.14916 0.82656 0.54846 0.0
H2382 H 0.11794 0.81442 0.56296 0.0
H2383 H 0.16252 0.93853 0.52066 0.0
H2384 H 0.18374 0.92358 0.5149 0.0
H2385 H 0.14975 0.90955 0.5042 0.0
H2386 H 0.2122 0.86482 0.49659 0.0
H2387 H 0.13125 0.83405 0.47027 0.0
H2388 H 0.19406 0.86989 0.54534 0.0
H2389 H 0.20605 0.9025 0.53426 0.0
H2390 H 0.22311 0.88333 0.52851 0.0
H2391 H 0.09562 0.83292 0.51296 0.0
H2392 H 0.09495 0.83619 0.48639 0.0
H2393 H 0.10685 0.8656 0.50231 0.0
C2394 C 0.5902 0.77605 0.13769 0.0
C2395 C 0.60185 0.79229 0.12084 0.0
C2396 C 0.6031 0.78426 0.15634 0.0
C2397 C 0.62824 0.80941 0.15825 0.0
C2398 C 0.63936 0.82655 0.14151 0.0
C2399 C 0.62603 0.81778 0.123 0.0
C2400 C 0.59047 0.76543 0.17381 0.0
C2401 C 0.66607 0.85357 0.14295 0.0
C2402 C 0.6542 0.83761 0.21015 0.0
C2403 C 0.67388 0.82934 0.21354 0.0
C2404 C 0.63929 0.83148 0.19217 0.0
C2405 C 0.64408 0.81661 0.1773 0.0
C2406 C 0.66381 0.8081 0.18071 0.0
C2407 C 0.67845 0.81458 0.19875 0.0
C2408 C 0.61852 0.84099 0.18905 0.0
C2409 C 0.66936 0.79199 0.16533 0.0
H2410 H 0.57123 0.75654 0.13619 0.0
H2411 H 0.63527 0.83036 0.11004 0.0
H2412 H 0.60447 0.75775 0.17859 0.0
H2413 H 0.58826 0.7766 0.18656 0.0
H2414 H 0.56972 0.74768 0.17024 0.0
H2415 H 0.67045 0.86567 0.12914 0.0
H2416 H 0.66513 0.86574 0.15553 0.0
H2417 H 0.68372 0.85003 0.14587 0.0
H2418 H 0.65078 0.84925 0.22144 0.0
H2419 H 0.69332 0.80778 0.20139 0.0
H2420 H 0.59755 0.82325 0.18613 0.0
H2421 H 0.62434 0.85434 0.17583 0.0
H2422 H 0.61725 0.85238 0.20205 0.0
H2423 H 0.6499 0.77264 0.16202 0.0
H2424 H 0.68551 0.78709 0.17023 0.0
H2425 H 0.67629 0.80365 0.1513 0.0
C2426 C 0.22103 0.79035 0.13458 0.0
C2427 C 0.23093 0.81057 0.11992 0.0
C2428 C 0.21031 0.79379 0.15255 0.0
C2429 C 0.20934 0.81799 0.15595 0.0
C2430 C 0.21928 0.83846 0.14121 0.0
C2431 C 0.22996 0.83453 0.12342 0.0
C2432 C 0.20007 0.77154 0.16792 0.0
C2433 C 0.21842 0.86447 0.14416 0.0
C2434 C 0.15798 0.81781 0.19337 0.0
C2435 C 0.17526 0.83124 0.20972 0.0
C2436 C 0.16873 0.81307 0.17593 0.0
C2437 C 0.19747 0.82178 0.17475 0.0
C2438 C 0.21495 0.83478 0.19133 0.0
C2439 C 0.20366 0.8394 0.20858 0.0
C2440 C 0.14935 0.79907 0.15863 0.0
C2441 C 0.24569 0.84431 0.19071 0.0
H2442 H 0.22202 0.77193 0.13211 0.0
H2443 H 0.23723 0.8501 0.11208 0.0
H2444 H 0.21171 0.77977 0.18201 0.0
H2445 H 0.17776 0.76397 0.17109 0.0
H2446 H 0.20247 0.75406 0.16309 0.0
H2447 H 0.22727 0.87853 0.13137 0.0
H2448 H 0.1966 0.85966 0.14633 0.0
H2449 H 0.23026 0.87518 0.15772 0.0
H2450 H 0.13593 0.81097 0.1942 0.0
H2451 H 0.21726 0.85003 0.22102 0.0
H2452 H 0.15019 0.7806 0.15427 0.0
H2453 H 0.15611 0.81285 0.14563 0.0
H2454 H 0.12742 0.79302 0.16205 0.0
H2455 H 0.24896 0.82713 0.18662 0.0
H2456 H 0.25619 0.85288 0.20515 0.0
H2457 H 0.25584 0.86017 0.17917 0.0
C2458 C 0.17334 0.40269 0.12653 0.0
C2459 C 0.19897 0.42586 0.12198 0.0
C2460 C 0.16892 0.38931 0.14483 0.0
C2461 C 0.19074 0.39892 0.15901 0.0
C2462 C 0.21686 0.42192 0.15441 0.0
C2463 C 0.22063 0.43515 0.13603 0.0
C2464 C 0.14073 0.36488 0.14902 0.0
C2465 C 0.24077 0.4327 0.16899 0.0
C2466 C 0.16895 0.37685 0.21263 0.0
C2467 C 0.17201 0.35377 0.21406 0.0
C2468 C 0.1757 0.39222 0.19502 0.0
C2469 C 0.1861 0.38456 0.17849 0.0
C2470 C 0.19036 0.36197 0.18021 0.0
C2471 C 0.18315 0.34683 0.19787 0.0
C2472 C 0.17062 0.416 0.19383 0.0
C2473 C 0.20176 0.35327 0.16315 0.0
H2474 H 0.15659 0.3949 0.11571 0.0
H2475 H 0.24042 0.45315 0.13286 0.0
H2476 H 0.14288 0.34669 0.15171 0.0
H2477 H 0.13188 0.36851 0.16265 0.0
H2478 H 0.12576 0.36025 0.13661 0.0
H2479 H 0.25999 0.45028 0.16302 0.0
H2480 H 0.23498 0.43918 0.18286 0.0
H2481 H 0.24538 0.41635 0.17299 0.0
H2482 H 0.16019 0.38225 0.225 0.0
H2483 H 0.18593 0.32924 0.19895 0.0
H2484 H 0.15402 0.41151 0.18274 0.0
H2485 H 0.18969 0.43452 0.18878 0.0
H2486 H 0.1642 0.42046 0.2083 0.0
H2487 H 0.18668 0.34604 0.15064 0.0
H2488 H 0.20589 0.33665 0.16734 0.0
H2489 H 0.22139 0.37083 0.15771 0.0
C2490 C 0.75065 0.56229 0.89147 0.0
C2491 C 0.77061 0.57034 0.9067 0.0
C2492 C 0.75776 0.57373 0.87242 0.0
C2493 C 0.78562 0.59387 0.86831 0.0
C2494 C 0.80614 0.60139 0.88337 0.0
C2495 C 0.79842 0.58951 0.90235 0.0
C2496 C 0.73517 0.56486 0.85687 0.0
C2497 C 0.83605 0.62277 0.87968 0.0
C2498 C 0.8028 0.61032 0.81332 0.0
C2499 C 0.79791 0.63216 0.8108 0.0
C2500 C 0.80006 0.59828 0.83211 0.0
C2501 C 0.79248 0.60846 0.84879 0.0
C2502 C 0.78904 0.63146 0.84643 0.0
C2503 C 0.79172 0.64292 0.82754 0.0
C2504 C 0.80393 0.57383 0.83392 0.0
C2505 C 0.78124 0.64326 0.86371 0.0
H2506 H 0.72922 0.5471 0.89452 0.0
H2507 H 0.814 0.59594 0.91399 0.0
H2508 H 0.73213 0.58223 0.853 0.0
H2509 H 0.74138 0.55851 0.84313 0.0
H2510 H 0.71496 0.5477 0.86197 0.0
H2511 H 0.84995 0.62445 0.89216 0.0
H2512 H 0.84368 0.61804 0.86588 0.0
H2513 H 0.83752 0.64287 0.87757 0.0
H2514 H 0.80745 0.60182 0.80045 0.0
H2515 H 0.78825 0.66002 0.82574 0.0
H2516 H 0.78352 0.5554 0.83685 0.0
H2517 H 0.81782 0.57641 0.84662 0.0
H2518 H 0.8128 0.57028 0.82024 0.0
H2519 H 0.75998 0.62831 0.86882 0.0
H2520 H 0.7816 0.66248 0.85979 0.0
H2521 H 0.79569 0.64737 0.87635 0.0
C2522 C 0.41494 0.17886 0.89369 0.0
C2523 C 0.42178 0.20139 0.90609 0.0
C2524 C 0.39844 0.17371 0.87667 0.0
C2525 C 0.39016 0.1926 0.87085 0.0
C2526 C 0.39775 0.21595 0.88271 0.0
C2527 C 0.41256 0.21954 0.90048 0.0
C2528 C 0.38965 0.1478 0.86504 0.0
C2529 C 0.39026 0.23723 0.8769 0.0
C2530 C 0.37102 0.18514 0.81625 0.0
C2531 C 0.34171 0.17184 0.81674 0.0
C2532 C 0.38703 0.1939 0.8337 0.0
C2533 C 0.37359 0.18759 0.8523 0.0
C2534 C 0.34423 0.17468 0.85307 0.0
C2535 C 0.32879 0.16792 0.83535 0.0
C2536 C 0.4184 0.20947 0.8322 0.0
C2537 C 0.32897 0.16716 0.8726 0.0
H2538 H 0.4225 0.16502 0.89706 0.0
H2539 H 0.41678 0.2367 0.90988 0.0
H2540 H 0.36686 0.13705 0.86221 0.0
H2541 H 0.40016 0.1527 0.85045 0.0
H2542 H 0.39483 0.13367 0.8729 0.0
H2543 H 0.40549 0.25754 0.88308 0.0
H2544 H 0.38938 0.23904 0.86057 0.0
H2545 H 0.36954 0.2316 0.88305 0.0
H2546 H 0.38181 0.18825 0.80233 0.0
H2547 H 0.30644 0.15902 0.83629 0.0
H2548 H 0.42688 0.19612 0.83643 0.0
H2549 H 0.42738 0.22714 0.84255 0.0
H2550 H 0.42549 0.21703 0.81693 0.0
H2551 H 0.33635 0.15597 0.88202 0.0
H2552 H 0.30607 0.15431 0.87061 0.0
H2553 H 0.33327 0.18592 0.88071 0.0
C2554 C 0.79337 0.19228 0.90289 0.0
C2555 C 0.79815 0.21898 0.90445 0.0
C2556 C 0.7991 0.18281 0.88518 0.0
C2557 C 0.80976 0.20042 0.86862 0.0
C2558 C 0.81324 0.22691 0.86983 0.0
C2559 C 0.8074 0.23583 0.88768 0.0
C2560 C 0.79501 0.1544 0.8845 0.0
C2561 C 0.82433 0.24632 0.85254 0.0
C2562 C 0.8567 0.19087 0.83233 0.0
C2563 C 0.83882 0.17811 0.81614 0.0
C2564 C 0.84737 0.19789 0.8495 0.0
C2565 C 0.81942 0.1921 0.85061 0.0
C2566 C 0.80122 0.17925 0.83434 0.0
C2567 C 0.81113 0.17244 0.8173 0.0
C2568 C 0.86758 0.21177 0.86641 0.0
C2569 C 0.77129 0.17271 0.83493 0.0
H2570 H 0.78635 0.17919 0.91579 0.0
H2571 H 0.8107 0.25634 0.88866 0.0
H2572 H 0.78287 0.14338 0.87112 0.0
H2573 H 0.81557 0.15559 0.88349 0.0
H2574 H 0.7841 0.14237 0.89785 0.0
H2575 H 0.82374 0.26536 0.85532 0.0
H2576 H 0.8462 0.25178 0.84961 0.0
H2577 H 0.8121 0.23644 0.83893 0.0
H2578 H 0.87822 0.19574 0.83148 0.0
H2579 H 0.79707 0.16232 0.80498 0.0
H2580 H 0.85934 0.19979 0.88021 0.0
H2581 H 0.87003 0.23218 0.86916 0.0
H2582 H 0.88843 0.21429 0.86341 0.0
H2583 H 0.76055 0.15936 0.84776 0.0
H2584 H 0.7597 0.1624 0.82117 0.0
H2585 H 0.77042 0.19171 0.837 0.0
C2586 C 0.29116 0.15009 0.45562 0.0
C2587 C 0.26737 0.12421 0.45401 0.0
C2588 C 0.30549 0.15936 0.47375 0.0
C2589 C 0.29576 0.14236 0.49066 0.0
C2590 C 0.27108 0.11672 0.4893 0.0
C2591 C 0.2572 0.10798 0.47102 0.0
C2592 C 0.3317 0.18686 0.47461 0.0
C2593 C 0.2599 0.09805 0.50699 0.0
C2594 C 0.34825 0.15024 0.53023 0.0
C2595 C 0.34344 0.16472 0.54511 0.0
C2596 C 0.33301 0.14303 0.51243 0.0
C2597 C 0.31239 0.15047 0.50938 0.0
C2598 C 0.3074 0.16511 0.52432 0.0
C2599 C 0.32296 0.17202 0.54203 0.0
C2600 C 0.33882 0.12724 0.49694 0.0
C2601 C 0.28565 0.17345 0.52159 0.0
H2602 H 0.29924 0.16265 0.44251 0.0
H2603 H 0.23856 0.08814 0.46993 0.0
H2604 H 0.33074 0.19908 0.48714 0.0
H2605 H 0.34991 0.1841 0.47726 0.0
H2606 H 0.33519 0.19854 0.46068 0.0
H2607 H 0.23945 0.07964 0.50384 0.0
H2608 H 0.27487 0.09141 0.51145 0.0
H2609 H 0.25754 0.10902 0.51981 0.0
H2610 H 0.36374 0.14417 0.53262 0.0
H2611 H 0.31935 0.18348 0.55337 0.0
H2612 H 0.34469 0.1386 0.48275 0.0
H2613 H 0.31975 0.10737 0.49408 0.0
H2614 H 0.35582 0.12337 0.50148 0.0
H2615 H 0.2904 0.18638 0.50821 0.0
H2616 H 0.28441 0.1849 0.53458 0.0
H2617 H 0.26491 0.15514 0.51918 0.0
C2618 C 0.89082 0.12404 0.46953 0.0
C2619 C 0.90042 0.14424 0.45486 0.0
C2620 C 0.87987 0.12722 0.48748 0.0
C2621 C 0.87835 0.15115 0.49085 0.0
C2622 C 0.88795 0.17158 0.47608 0.0
C2623 C 0.89886 0.16789 0.45831 0.0
C2624 C 0.86998 0.10502 0.50286 0.0
C2625 C 0.88654 0.1973 0.479 0.0
C2626 C 0.82654 0.15012 0.52825 0.0
C2627 C 0.84373 0.16377 0.54458 0.0
C2628 C 0.83746 0.14555 0.51082 0.0
C2629 C 0.86631 0.15469 0.50965 0.0
C2630 C 0.8837 0.16792 0.52622 0.0
C2631 C 0.87222 0.17233 0.54346 0.0
C2632 C 0.81816 0.13127 0.49354 0.0
C2633 C 0.91454 0.17793 0.5256 0.0
H2634 H 0.89227 0.10586 0.4671 0.0
H2635 H 0.90587 0.18344 0.44696 0.0
H2636 H 0.88162 0.11339 0.51693 0.0
H2637 H 0.84763 0.09713 0.50607 0.0
H2638 H 0.8727 0.08773 0.49802 0.0
H2639 H 0.89516 0.21136 0.46619 0.0
H2640 H 0.8646 0.1921 0.48119 0.0
H2641 H 0.89829 0.20817 0.49255 0.0
H2642 H 0.80443 0.14297 0.52907 0.0
H2643 H 0.88574 0.18313 0.55589 0.0
H2644 H 0.81941 0.11301 0.4892 0.0
H2645 H 0.82467 0.14503 0.48053 0.0
H2646 H 0.79614 0.12484 0.49698 0.0
H2647 H 0.91818 0.16098 0.52153 0.0
H2648 H 0.92498 0.18665 0.54003 0.0
H2649 H 0.92447 0.19381 0.51404 0.0
C2650 C 0.89217 0.76938 0.4684 0.0
C2651 C 0.87058 0.76044 0.45431 0.0
C2652 C 0.88832 0.75574 0.48661 0.0
C2653 C 0.86217 0.73265 0.49101 0.0
C2654 C 0.84041 0.72338 0.47679 0.0
C2655 C 0.84491 0.7372 0.45867 0.0
C2656 C 0.91218 0.76619 0.50122 0.0
C2657 C 0.81221 0.69885 0.48077 0.0
C2658 C 0.85482 0.67988 0.52922 0.0
C2659 C 0.84371 0.68648 0.54561 0.0
C2660 C 0.86185 0.69528 0.51168 0.0
C2661 C 0.85748 0.71783 0.5103 0.0
C2662 C 0.84706 0.72513 0.52701 0.0
C2663 C 0.84046 0.70948 0.54447 0.0
C2664 C 0.87325 0.68694 0.49441 0.0
C2665 C 0.84189 0.74886 0.52618 0.0
H2666 H 0.91199 0.78744 0.46539 0.0
H2667 H 0.8282 0.72966 0.44783 0.0
H2668 H 0.90631 0.77231 0.51522 0.0
H2669 H 0.9168 0.74977 0.50492 0.0
H2670 H 0.9314 0.78394 0.49542 0.0
H2671 H 0.79729 0.6945 0.46837 0.0
H2672 H 0.81435 0.68061 0.48318 0.0
H2673 H 0.80329 0.70217 0.49449 0.0
H2674 H 0.8578 0.66238 0.53005 0.0
H2675 H 0.83172 0.71463 0.55699 0.0
H2676 H 0.89293 0.7046 0.48915 0.0
H2677 H 0.85822 0.68009 0.48187 0.0
H2678 H 0.87729 0.67017 0.4983 0.0
H2679 H 0.86096 0.76754 0.52133 0.0
H2680 H 0.83535 0.75295 0.54074 0.0
H2681 H 0.82535 0.74459 0.51509 0.0
loop_
_geom_bond_atom_site_label_1
_geom_bond_atom_site_label_2
_geom_bond_distance
_geom_bond_site_symmetry_2
_ccdc_geom_bond_type
H0 C3 0.929 . S
H1 C6 0.929 . S
H2 C8 0.930 . S
C3 H0 0.929 . S
C3 C4 1.398 . S
C3 C5 1.396 . S
C4 C3 1.398 . S
C4 C8 1.407 . S
C5 C3 1.396 . S
C5 C6 1.394 . S
C6 H1 0.929 . S
C6 C5 1.394 . S
C6 C7 1.382 . S
C7 C6 1.382 . S
C7 C8 1.392 . S
C7 N9 1.420 . S
C8 H2 0.930 . S
C8 C4 1.407 . S
C8 C7 1.392 . S
N9 C7 1.420 . S
N9 C10 1.244 . S
C10 N9 1.244 . S
H11 C14 0.929 . S
H12 C17 0.929 . S
H13 C19 0.930 . S
C14 H11 0.929 . S
C14 C15 1.398 . S
C14 C16 1.396 . S
C15 C14 1.398 . S
C15 C19 1.407 . S
C16 C14 1.396 . S
C16 C17 1.394 . S
C17 H12 0.929 . S
C17 C16 1.394 . S
C17 C18 1.382 . S
C18 C17 1.382 . S
C18 C19 1.392 . S
C18 N20 1.420 . S
C19 H13 0.930 . S
C19 C15 1.407 . S
C19 C18 1.392 . S
N20 C18 1.420 . S
N20 C21 1.244 . S
C21 N20 1.244 . S
H22 C25 0.929 . S
H23 C28 0.929 . S
H24 C30 0.930 . S
C25 H22 0.929 . S
C25 C26 1.398 . S
C25 C27 1.396 . S
C26 C25 1.398 . S
C26 C30 1.407 . S
C27 C25 1.396 . S
C27 C28 1.394 . S
C28 H23 0.929 . S
C28 C27 1.394 . S
C28 C29 1.382 . S
C29 C28 1.382 . S
C29 C30 1.392 . S
C29 N31 1.420 . S
C30 H24 0.930 . S
C30 C26 1.407 . S
C30 C29 1.392 . S
N31 C29 1.420 . S
N31 C32 1.244 . S
C32 N31 1.244 . S
H33 C36 0.929 . S
H34 C39 0.929 . S
H35 C41 0.930 . S
C36 H33 0.929 . S
C36 C37 1.398 . S
C36 C38 1.396 . S
C37 C36 1.398 . S
C37 C41 1.407 . S
C38 C36 1.396 . S
C38 C39 1.394 . S
C39 H34 0.929 . S
C39 C38 1.394 . S
C39 C40 1.382 . S
C40 C39 1.382 . S
C40 C41 1.392 . S
C40 N42 1.420 . S
C41 H35 0.930 . S
C41 C37 1.407 . S
C41 C40 1.392 . S
N42 C40 1.420 . S
N42 C43 1.244 . S
C43 N42 1.244 . S
H44 C47 0.929 . S
H45 C50 0.929 . S
H46 C52 0.930 . S
C47 H44 0.929 . S
C47 C48 1.398 . S
C47 C49 1.396 . S
C48 C47 1.398 . S
C48 C52 1.407 . S
C49 C47 1.396 . S
C49 C50 1.394 . S
C50 H45 0.929 . S
C50 C49 1.394 . S
C50 C51 1.382 . S
C51 C50 1.382 . S
C51 C52 1.392 . S
C51 N53 1.420 . S
C52 H46 0.930 . S
C52 C48 1.407 . S
C52 C51 1.392 . S
N53 C51 1.420 . S
N53 C54 1.244 . S
C54 N53 1.244 . S
H55 C58 0.929 . S
H56 C61 0.929 . S
H57 C63 0.930 . S
C58 H55 0.929 . S
C58 C59 1.398 . S
C58 C60 1.396 . S
C59 C58 1.398 . S
C59 C63 1.407 . S
C60 C58 1.396 . S
C60 C61 1.394 . S
C61 H56 0.929 . S
C61 C60 1.394 . S
C61 C62 1.382 . S
C62 C61 1.382 . S
C62 C63 1.392 . S
C62 N64 1.420 . S
C63 H57 0.930 . S
C63 C59 1.407 . S
C63 C62 1.392 . S
N64 C62 1.420 . S
N64 C65 1.244 . S
C65 N64 1.244 . S
H66 C69 0.929 . S
H67 C72 0.929 . S
H68 C74 0.930 . S
C69 H66 0.929 . S
C69 C70 1.398 . S
C69 C71 1.396 . S
C70 C69 1.398 . S
C70 C74 1.407 . S
C71 C69 1.396 . S
C71 C72 1.394 . S
C72 H67 0.929 . S
C72 C71 1.394 . S
C72 C73 1.382 . S
C73 C72 1.382 . S
C73 C74 1.392 . S
C73 N75 1.420 . S
C74 H68 0.930 . S
C74 C70 1.407 . S
C74 C73 1.392 . S
N75 C73 1.420 . S
N75 C76 1.244 . S
C76 N75 1.244 . S
H77 C80 0.929 . S
H78 C83 0.929 . S
H79 C85 0.930 . S
C80 H77 0.929 . S
C80 C81 1.398 . S
C80 C82 1.396 . S
C81 C80 1.398 . S
C81 C85 1.407 . S
C82 C80 1.396 . S
C82 C83 1.394 . S
C83 H78 0.929 . S
C83 C82 1.394 . S
C83 C84 1.382 . S
C84 C83 1.382 . S
C84 C85 1.392 . S
C84 N86 1.420 . S
C85 H79 0.930 . S
C85 C81 1.407 . S
C85 C84 1.392 . S
N86 C84 1.420 . S
N86 C87 1.244 . S
C87 N86 1.244 . S
H88 C91 0.929 . S
H89 C94 0.929 . S
H90 C96 0.930 . S
C91 H88 0.929 . S
C91 C92 1.398 . S
C91 C93 1.396 . S
C92 C91 1.398 . S
C92 C96 1.407 . S
C93 C91 1.396 . S
C93 C94 1.394 . S
C94 H89 0.929 . S
C94 C93 1.394 . S
C94 C95 1.382 . S
C95 C94 1.382 . S
C95 C96 1.392 . S
C95 N97 1.420 . S
C96 H90 0.930 . S
C96 C92 1.407 . S
C96 C95 1.392 . S
N97 C95 1.420 . S
N97 C98 1.244 . S
C98 N97 1.244 . S
H99 C102 0.929 . S
H100 C105 0.929 . S
H101 C107 0.930 . S
C102 H99 0.929 . S
C102 C103 1.398 . S
C102 C104 1.396 . S
C103 C102 1.398 . S
C103 C107 1.407 . S
C104 C102 1.396 . S
C104 C105 1.394 . S
C105 H100 0.929 . S
C105 C104 1.394 . S
C105 C106 1.382 . S
C106 C105 1.382 . S
C106 C107 1.392 . S
C106 N108 1.420 . S
C107 H101 0.930 . S
C107 C103 1.407 . S
C107 C106 1.392 . S
N108 C106 1.420 . S
N108 C109 1.244 . S
C109 N108 1.244 . S
H110 C113 0.929 . S
H111 C116 0.929 . S
H112 C118 0.930 . S
C113 H110 0.929 . S
C113 C114 1.398 . S
C113 C115 1.396 . S
C114 C113 1.398 . S
C114 C118 1.407 . S
C115 C113 1.396 . S
C115 C116 1.394 . S
C116 H111 0.929 . S
C116 C115 1.394 . S
C116 C117 1.382 . S
C117 C116 1.382 . S
C117 C118 1.392 . S
C117 N119 1.420 . S
C118 H112 0.930 . S
C118 C114 1.407 . S
C118 C117 1.392 . S
N119 C117 1.420 . S
N119 C120 1.244 . S
C120 N119 1.244 . S
H121 C124 0.929 . S
H122 C127 0.929 . S
H123 C129 0.930 . S
C124 H121 0.929 . S
C124 C125 1.398 . S
C124 C126 1.396 . S
C125 C124 1.398 . S
C125 C129 1.407 . S
C126 C124 1.396 . S
C126 C127 1.394 . S
C127 H122 0.929 . S
C127 C126 1.394 . S
C127 C128 1.382 . S
C128 C127 1.382 . S
C128 C129 1.392 . S
C128 N130 1.420 . S
C129 H123 0.930 . S
C129 C125 1.407 . S
C129 C128 1.392 . S
N130 C128 1.420 . S
N130 C131 1.244 . S
C131 N130 1.244 . S
H132 C135 0.929 . S
H133 C138 0.929 . S
H134 C140 0.930 . S
C135 H132 0.929 . S
C135 C136 1.398 . S
C135 C137 1.396 . S
C136 C135 1.398 . S
C136 C140 1.407 . S
C137 C135 1.396 . S
C137 C138 1.394 . S
C138 H133 0.929 . S
C138 C137 1.394 . S
C138 C139 1.382 . S
C139 C138 1.382 . S
C139 C140 1.392 . S
C139 N141 1.420 . S
C140 H134 0.930 . S
C140 C136 1.407 . S
C140 C139 1.392 . S
N141 C139 1.420 . S
N141 C142 1.244 . S
C142 N141 1.244 . S
H143 C146 0.929 . S
H144 C149 0.929 . S
H145 C151 0.930 . S
C146 H143 0.929 . S
C146 C147 1.398 . S
C146 C148 1.396 . S
C147 C146 1.398 . S
C147 C151 1.407 . S
C148 C146 1.396 . S
C148 C149 1.394 . S
C149 H144 0.929 . S
C149 C148 1.394 . S
C149 C150 1.382 . S
C150 C149 1.382 . S
C150 C151 1.392 . S
C150 N152 1.420 . S
C151 H145 0.930 . S
C151 C147 1.407 . S
C151 C150 1.392 . S
N152 C150 1.420 . S
N152 C153 1.244 . S
C153 N152 1.244 . S
H154 C157 0.929 . S
H155 C160 0.929 . S
H156 C162 0.930 . S
C157 H154 0.929 . S
C157 C158 1.398 . S
C157 C159 1.396 . S
C158 C157 1.398 . S
C158 C162 1.407 . S
C159 C157 1.396 . S
C159 C160 1.394 . S
C160 H155 0.929 . S
C160 C159 1.394 . S
C160 C161 1.382 . S
C161 C160 1.382 . S
C161 C162 1.392 . S
C161 N163 1.420 . S
C162 H156 0.930 . S
C162 C158 1.407 . S
C162 C161 1.392 . S
N163 C161 1.420 . S
N163 C164 1.244 . S
C164 N163 1.244 . S
H165 C168 0.929 . S
H166 C171 0.929 . S
H167 C173 0.930 . S
C168 H165 0.929 . S
C168 C169 1.398 . S
C168 C170 1.396 . S
C169 C168 1.398 . S
C169 C173 1.407 . S
C170 C168 1.396 . S
C170 C171 1.394 . S
C171 H166 0.929 . S
C171 C170 1.394 . S
C171 C172 1.382 . S
C172 C171 1.382 . S
C172 C173 1.392 . S
C172 N174 1.420 . S
C173 H167 0.930 . S
C173 C169 1.407 . S
C173 C172 1.392 . S
N174 C172 1.420 . S
N174 C175 1.244 . S
C175 N174 1.244 . S
H176 C179 0.929 . S
H177 C182 0.929 . S
H178 C184 0.930 . S
C179 H176 0.929 . S
C179 C180 1.398 . S
C179 C181 1.396 . S
C180 C179 1.398 . S
C180 C184 1.407 . S
C181 C179 1.396 . S
C181 C182 1.394 . S
C182 H177 0.929 . S
C182 C181 1.394 . S
C182 C183 1.382 . S
C183 C182 1.382 . S
C183 C184 1.392 . S
C183 N185 1.420 . S
C184 H178 0.930 . S
C184 C180 1.407 . S
C184 C183 1.392 . S
N185 C183 1.420 . S
N185 C186 1.244 . S
C186 N185 1.244 . S
H187 C190 0.929 . S
H188 C193 0.929 . S
H189 C195 0.930 . S
C190 H187 0.929 . S
C190 C191 1.398 . S
C190 C192 1.396 . S
C191 C190 1.398 . S
C191 C195 1.407 . S
C192 C190 1.396 . S
C192 C193 1.394 . S
C193 H188 0.929 . S
C193 C192 1.394 . S
C193 C194 1.382 . S
C194 C193 1.382 . S
C194 C195 1.392 . S
C194 N196 1.420 . S
C195 H189 0.930 . S
C195 C191 1.407 . S
C195 C194 1.392 . S
N196 C194 1.420 . S
N196 C197 1.244 . S
C197 N196 1.244 . S
Eu198 N229 2.657 . S
Eu198 N236 2.609 . S
Eu198 O242 2.558 . S
Eu198 O243 2.612 1_566 S
Eu198 O245 2.339 1_565 S
Eu198 O246 2.563 1_565 S
Eu198 O247 2.419 1_565 S
Eu198 O249 2.380 1_556 S
Eu198 O250 2.432 1_556 S
Eu198 C262 2.846 1_565 S
C199 C202 1.429 . S
C199 C203 1.411 . S
C199 N206 1.377 . S
C200 C202 1.420 . S
C200 C204 1.423 . S
C200 C212 1.392 . S
C201 C203 1.420 . S
C201 C204 1.351 . S
C201 H224 0.931 . S
C202 C199 1.429 . S
C202 C200 1.420 . S
C202 N210 1.362 . S
C203 C199 1.411 . S
C203 C201 1.420 . S
C203 C208 1.395 . S
C204 C200 1.423 . S
C204 C201 1.351 . S
C204 H216 0.930 . S
C205 C207 1.400 . S
C205 C208 1.386 . S
C205 H217 0.930 . S
N206 C199 1.377 . S
N206 C207 1.321 . S
N206 Eu209 2.609 . S
C207 C205 1.400 . S
C207 N206 1.321 . S
C207 H214 0.930 . S
C208 C203 1.395 . S
C208 C205 1.386 . S
C208 H227 0.930 . S
Eu209 N206 2.609 . S
Eu209 N210 2.657 . S
Eu209 O243 2.380 . S
Eu209 O244 2.432 . S
Eu209 O248 2.558 . S
Eu209 O249 2.612 1_545 S
Eu209 O251 2.339 1_545 S
Eu209 O252 2.563 1_545 S
Eu209 O253 2.419 1_545 S
Eu209 C273 2.848 . S
N210 C202 1.362 . S
N210 Eu209 2.657 . S
N210 C211 1.334 . S
C211 N210 1.334 . S
C211 C213 1.413 . S
C211 H218 0.929 . S
C212 C200 1.392 . S
C212 C213 1.367 . S
C212 H220 0.930 . S
C213 C211 1.413 . S
C213 C212 1.367 . S
C213 H215 0.930 . S
H214 C207 0.930 . S
H215 C213 0.930 . S
H216 C204 0.930 . S
H217 C205 0.930 . S
H218 C211 0.929 . S
H219 C233 0.930 . S
H220 C212 0.930 . S
H221 C239 0.930 . S
H222 C230 0.965 . S
H223 C237 0.930 . S
H224 C201 0.931 . S
H225 C231 0.930 . S
H226 C264 0.930 . S
H227 C208 0.930 . S
H228 C263 0.931 . S
N229 Eu198 2.657 . S
N229 C230 1.334 . S
N229 C234 1.362 . S
C230 H222 0.965 . S
C230 N229 1.334 . S
C230 C233 1.413 . S
C231 H225 0.930 . S
C231 C232 1.392 . S
C231 C233 1.367 . S
C232 C231 1.392 . S
C232 C234 1.420 . S
C232 C264 1.423 . S
C233 H219 0.930 . S
C233 C230 1.413 . S
C233 C231 1.367 . S
C234 N229 1.362 . S
C234 C232 1.420 . S
C234 C238 1.429 . S
H235 C240 0.930 . S
N236 Eu198 2.609 . S
N236 C238 1.377 . S
N236 C239 1.321 . S
C237 H223 0.930 . S
C237 C239 1.400 . S
C237 C240 1.386 . S
C238 C234 1.429 . S
C238 N236 1.377 . S
C238 C241 1.411 . S
C239 H221 0.930 . S
C239 N236 1.321 . S
C239 C237 1.400 . S
C240 H235 0.930 . S
C240 C237 1.386 . S
C240 C241 1.395 . S
C241 C238 1.411 . S
C241 C240 1.395 . S
C241 C263 1.420 . S
O242 Eu198 2.558 . S
O242 C262 1.240 1_565 S
O243 Eu198 2.612 1_544 S
O243 Eu209 2.380 . S
O243 C254 1.276 1_554 S
O244 Eu209 2.432 . S
O244 C261 1.264 . S
O245 Eu198 2.339 1_545 S
O245 C261 1.254 1_556 S
O246 Eu198 2.563 1_545 S
O246 C254 1.235 . S
O247 Eu198 2.419 1_545 S
O247 C262 1.263 . S
O248 Eu209 2.558 . S
O248 C273 1.257 . S
O249 Eu198 2.380 1_554 S
O249 Eu209 2.612 1_565 S
O249 C265 1.276 . S
O250 Eu198 2.432 1_554 S
O250 C272 1.265 . S
O251 Eu209 2.339 1_565 S
O251 C272 1.254 . S
O252 Eu209 2.563 1_565 S
O252 C265 1.235 . S
O253 Eu209 2.419 1_565 S
O253 C273 1.249 1_565 S
C254 O243 1.276 1_556 S
C254 O246 1.235 . S
C255 C257 1.393 . S
C255 C259 1.395 1_545 S
C255 C262 1.494 . S
C256 C257 1.392 . S
C256 C258 1.386 . S
C257 C255 1.393 . S
C257 C256 1.392 . S
C257 H274 0.930 . S
C258 C256 1.386 . S
C258 C260 1.395 1_545 S
C258 H275 0.930 . S
C259 C255 1.395 1_565 S
C259 C260 1.379 . S
C259 H276 0.930 . S
C260 C258 1.395 1_565 S
C260 C259 1.379 . S
C260 H277 0.930 . S
C261 O244 1.264 . S
C261 O245 1.254 1_554 S
C262 Eu198 2.846 1_545 S
C262 O242 1.240 1_545 S
C262 O247 1.263 . S
C262 C255 1.494 . S
C263 H228 0.931 . S
C263 C241 1.420 . S
C263 C264 1.351 . S
C264 H226 0.930 . S
C264 C232 1.423 . S
C264 C263 1.351 . S
C265 O249 1.276 . S
C265 O252 1.235 . S
C266 C267 1.393 1_545 S
C266 C270 1.395 . S
C266 C273 1.492 . S
C267 C266 1.393 1_565 S
C267 C268 1.392 . S
C267 H278 0.930 . S
C268 C267 1.392 . S
C268 C269 1.386 . S
C269 C268 1.386 . S
C269 C271 1.395 1_565 S
C269 H279 0.930 . S
C270 C266 1.395 . S
C270 C271 1.379 . S
C270 H280 0.930 . S
C271 C269 1.395 1_545 S
C271 C270 1.379 . S
C271 H281 0.930 . S
C272 O250 1.265 . S
C272 O251 1.254 . S
C273 Eu209 2.848 . S
C273 O248 1.257 . S
C273 O253 1.249 1_545 S
C273 C266 1.492 . S
H274 C257 0.930 . S
H275 C258 0.930 . S
H276 C259 0.930 . S
H277 C260 0.930 . S
H278 C267 0.930 . S
H279 C269 0.930 . S
H280 C270 0.930 . S
H281 C271 0.930 . S
Eu282 N313 2.657 . S
Eu282 N320 2.609 . S
Eu282 O326 2.558 . S
Eu282 O327 2.612 1_456 S
Eu282 O329 2.339 1_455 S
Eu282 O330 2.563 1_455 S
Eu282 O331 2.419 . S
Eu282 O333 2.380 1_556 S
Eu282 O334 2.432 1_556 S
Eu282 C346 2.848 . S
C283 C286 1.429 . S
C283 C287 1.411 . S
C283 N290 1.377 . S
C284 C286 1.420 . S
C284 C288 1.423 . S
C284 C296 1.392 . S
C285 C287 1.420 . S
C285 C288 1.351 . S
C285 H308 0.931 . S
C286 C283 1.429 . S
C286 C284 1.420 . S
C286 N294 1.362 . S
C287 C283 1.411 . S
C287 C285 1.420 . S
C287 C292 1.395 . S
C288 C284 1.423 . S
C288 C285 1.351 . S
C288 H300 0.930 . S
C289 C291 1.400 . S
C289 C292 1.386 . S
C289 H301 0.930 . S
N290 C283 1.377 . S
N290 C291 1.321 . S
N290 Eu293 2.609 . S
C291 C289 1.400 . S
C291 N290 1.321 . S
C291 H298 0.930 . S
C292 C287 1.395 . S
C292 C289 1.386 . S
C292 H311 0.930 . S
Eu293 N290 2.609 . S
Eu293 N294 2.657 . S
Eu293 O327 2.380 . S
Eu293 O328 2.432 . S
Eu293 O332 2.558 . S
Eu293 O333 2.612 1_655 S
Eu293 O335 2.339 1_655 S
Eu293 O336 2.563 1_655 S
Eu293 O337 2.419 1_655 S
Eu293 C357 2.848 . S
N294 C286 1.362 . S
N294 Eu293 2.657 . S
N294 C295 1.334 . S
C295 N294 1.334 . S
C295 C297 1.413 . S
C295 H302 0.929 . S
C296 C284 1.392 . S
C296 C297 1.367 . S
C296 H304 0.930 . S
C297 C295 1.413 . S
C297 C296 1.367 . S
C297 H299 0.930 . S
H298 C291 0.930 . S
H299 C297 0.930 . S
H300 C288 0.930 . S
H301 C289 0.930 . S
H302 C295 0.929 . S
H303 C317 0.930 . S
H304 C296 0.930 . S
H305 C323 0.930 . S
H306 C314 0.929 . S
H307 C321 0.930 . S
H308 C285 0.931 . S
H309 C315 0.930 . S
H310 C348 0.930 . S
H311 C292 0.930 . S
H312 C347 0.931 . S
N313 Eu282 2.657 . S
N313 C314 1.334 . S
N313 C318 1.362 . S
C314 H306 0.929 . S
C314 N313 1.334 . S
C314 C317 1.413 . S
C315 H309 0.930 . S
C315 C316 1.392 . S
C315 C317 1.367 . S
C316 C315 1.392 . S
C316 C318 1.420 . S
C316 C348 1.423 . S
C317 H303 0.930 . S
C317 C314 1.413 . S
C317 C315 1.367 . S
C318 N313 1.362 . S
C318 C316 1.420 . S
C318 C322 1.429 . S
H319 C324 0.930 . S
N320 Eu282 2.609 . S
N320 C322 1.377 . S
N320 C323 1.321 . S
C321 H307 0.930 . S
C321 C323 1.400 . S
C321 C324 1.386 . S
C322 C318 1.429 . S
C322 N320 1.377 . S
C322 C325 1.411 . S
C323 H305 0.930 . S
C323 N320 1.321 . S
C323 C321 1.400 . S
C324 H319 0.930 . S
C324 C321 1.386 . S
C324 C325 1.395 . S
C325 C322 1.411 . S
C325 C324 1.395 . S
C325 C347 1.420 . S
O326 Eu282 2.558 . S
O326 C346 1.257 . S
O327 Eu282 2.612 1_654 S
O327 Eu293 2.380 . S
O327 C338 1.276 1_554 S
O328 Eu293 2.432 . S
O328 C345 1.264 . S
O329 Eu282 2.339 1_655 S
O329 C345 1.254 1_556 S
O330 Eu282 2.563 1_655 S
O330 C338 1.235 . S
O331 Eu282 2.419 . S
O331 C346 1.249 . S
O332 Eu293 2.558 . S
O332 C357 1.257 . S
O333 Eu282 2.380 1_554 S
O333 Eu293 2.612 1_455 S
O333 C349 1.276 . S
O334 Eu282 2.432 1_554 S
O334 C356 1.264 . S
O335 Eu293 2.339 1_455 S
O335 C356 1.254 . S
O336 Eu293 2.563 1_455 S
O336 C349 1.235 . S
O337 Eu293 2.419 1_455 S
O337 C357 1.249 1_455 S
C338 O327 1.276 1_556 S
C338 O330 1.235 . S
C339 C341 1.393 1_455 S
C339 C343 1.395 . S
C339 C346 1.492 . S
C340 C341 1.392 . S
C340 C342 1.386 . S
C341 C339 1.393 1_655 S
C341 C340 1.392 . S
C341 H358 0.930 . S
C342 C340 1.386 . S
C342 C344 1.395 1_655 S
C342 H359 0.930 . S
C343 C339 1.395 . S
C343 C344 1.379 . S
C343 H360 0.930 . S
C344 C342 1.395 1_455 S
C344 C343 1.379 . S
C344 H361 0.930 . S
C345 O328 1.264 . S
C345 O329 1.254 1_554 S
C346 Eu282 2.848 . S
C346 O326 1.257 . S
C346 O331 1.249 . S
C346 C339 1.492 . S
C347 H312 0.931 . S
C347 C325 1.420 . S
C347 C348 1.351 . S
C348 H310 0.930 . S
C348 C316 1.423 . S
C348 C347 1.351 . S
C349 O333 1.276 . S
C349 O336 1.235 . S
C350 C351 1.393 . S
C350 C354 1.395 1_455 S
C350 C357 1.492 1_455 S
C351 C350 1.393 . S
C351 C352 1.392 . S
C351 H362 0.930 . S
C352 C351 1.392 . S
C352 C353 1.386 . S
C353 C352 1.386 . S
C353 C355 1.395 1_455 S
C353 H363 0.930 . S
C354 C350 1.395 1_655 S
C354 C355 1.379 . S
C354 H364 0.930 . S
C355 C353 1.395 1_655 S
C355 C354 1.379 . S
C355 H365 0.930 . S
C356 O334 1.264 . S
C356 O335 1.254 . S
C357 Eu293 2.848 . S
C357 O332 1.257 . S
C357 O337 1.249 1_655 S
C357 C350 1.492 1_655 S
H358 C341 0.930 . S
H359 C342 0.930 . S
H360 C343 0.930 . S
H361 C344 0.930 . S
H362 C351 0.930 . S
H363 C353 0.930 . S
H364 C354 0.930 . S
H365 C355 0.930 . S
Eu366 N397 2.657 . S
Eu366 N404 2.609 . S
Eu366 O410 2.558 . S
Eu366 O411 2.612 . S
Eu366 O413 2.339 . S
Eu366 O414 2.563 . S
Eu366 O415 2.419 . S
Eu366 O417 2.380 . S
Eu366 O418 2.432 . S
Eu366 C430 2.848 . S
C367 C370 1.429 . S
C367 C371 1.411 . S
C367 N374 1.377 . S
C368 C370 1.420 . S
C368 C372 1.423 . S
C368 C380 1.392 . S
C369 C371 1.420 . S
C369 C372 1.351 . S
C369 H392 0.931 . S
C370 C367 1.429 . S
C370 C368 1.420 . S
C370 N378 1.362 . S
C371 C367 1.411 . S
C371 C369 1.420 . S
C371 C376 1.395 . S
C372 C368 1.423 . S
C372 C369 1.351 . S
C372 H384 0.930 . S
C373 C375 1.400 . S
C373 C376 1.386 . S
C373 H385 0.930 . S
N374 C367 1.377 . S
N374 C375 1.321 . S
N374 Eu377 2.609 . S
C375 C373 1.400 . S
C375 N374 1.321 . S
C375 H382 0.930 . S
C376 C371 1.395 . S
C376 C373 1.386 . S
C376 H395 0.930 . S
Eu377 N374 2.609 . S
Eu377 N378 2.657 . S
Eu377 O411 2.380 1_556 S
Eu377 O412 2.432 1_556 S
Eu377 O416 2.558 . S
Eu377 O417 2.612 1_556 S
Eu377 O419 2.339 . S
Eu377 O420 2.563 . S
Eu377 O421 2.419 . S
Eu377 C441 2.848 . S
N378 C370 1.362 . S
N378 Eu377 2.657 . S
N378 C379 1.334 . S
C379 N378 1.334 . S
C379 C381 1.413 . S
C379 H386 0.929 . S
C380 C368 1.392 . S
C380 C381 1.367 . S
C380 H388 0.930 . S
C381 C379 1.413 . S
C381 C380 1.367 . S
C381 H383 0.930 . S
H382 C375 0.930 . S
H383 C381 0.930 . S
H384 C372 0.930 . S
H385 C373 0.930 . S
H386 C379 0.929 . S
H387 C401 0.930 . S
H388 C380 0.930 . S
H389 C407 0.930 . S
H390 C398 0.929 . S
H391 C405 0.930 . S
H392 C369 0.931 . S
H393 C399 0.930 . S
H394 C432 0.930 . S
H395 C376 0.930 . S
H396 C431 0.931 . S
N397 Eu366 2.657 . S
N397 C398 1.334 . S
N397 C402 1.362 . S
C398 H390 0.929 . S
C398 N397 1.334 . S
C398 C401 1.413 . S
C399 H393 0.930 . S
C399 C400 1.392 . S
C399 C401 1.367 . S
C400 C399 1.392 . S
C400 C402 1.420 . S
C400 C432 1.423 . S
C401 H387 0.930 . S
C401 C398 1.413 . S
C401 C399 1.367 . S
C402 N397 1.362 . S
C402 C400 1.420 . S
C402 C406 1.429 . S
H403 C408 0.930 . S
N404 Eu366 2.609 . S
N404 C406 1.377 . S
N404 C407 1.321 . S
C405 H391 0.930 . S
C405 C407 1.400 . S
C405 C408 1.386 . S
C406 C402 1.429 . S
C406 N404 1.377 . S
C406 C409 1.411 . S
C407 H389 0.930 . S
C407 N404 1.321 . S
C407 C405 1.400 . S
C408 H403 0.930 . S
C408 C405 1.386 . S
C408 C409 1.395 . S
C409 C406 1.411 . S
C409 C408 1.395 . S
C409 C431 1.420 . S
O410 Eu366 2.558 . S
O410 C430 1.257 . S
O411 Eu366 2.612 . S
O411 Eu377 2.380 1_554 S
O411 C422 1.276 . S
O412 Eu377 2.432 1_554 S
O412 C429 1.264 . S
O413 Eu366 2.339 . S
O413 C429 1.254 . S
O414 Eu366 2.563 . S
O414 C422 1.235 . S
O415 Eu366 2.419 . S
O415 C430 1.249 . S
O416 Eu377 2.558 . S
O416 C441 1.257 . S
O417 Eu366 2.380 . S
O417 Eu377 2.612 1_554 S
O417 C433 1.276 1_554 S
O418 Eu366 2.432 . S
O418 C440 1.264 . S
O419 Eu377 2.339 . S
O419 C440 1.254 1_556 S
O420 Eu377 2.563 . S
O420 C433 1.235 . S
O421 Eu377 2.419 . S
O421 C441 1.249 . S
C422 O411 1.276 . S
C422 O414 1.235 . S
C423 C425 1.393 . S
C423 C427 1.395 . S
C423 C430 1.492 . S
C424 C425 1.392 . S
C424 C426 1.386 . S
C425 C423 1.393 . S
C425 C424 1.392 . S
C425 H442 0.930 . S
C426 C424 1.386 . S
C426 C428 1.395 . S
C426 H443 0.930 . S
C427 C423 1.395 . S
C427 C428 1.379 . S
C427 H444 0.930 . S
C428 C426 1.395 . S
C428 C427 1.379 . S
C428 H445 0.930 . S
C429 O412 1.264 . S
C429 O413 1.254 . S
C430 Eu366 2.848 . S
C430 O410 1.257 . S
C430 O415 1.249 . S
C430 C423 1.492 . S
C431 H396 0.931 . S
C431 C409 1.420 . S
C431 C432 1.351 . S
C432 H394 0.930 . S
C432 C400 1.423 . S
C432 C431 1.351 . S
C433 O417 1.276 1_556 S
C433 O420 1.235 . S
C434 C435 1.393 . S
C434 C438 1.395 . S
C434 C441 1.492 . S
C435 C434 1.393 . S
C435 C436 1.392 . S
C435 H446 0.930 . S
C436 C435 1.392 . S
C436 C437 1.386 . S
C437 C436 1.386 . S
C437 C439 1.395 . S
C437 H447 0.930 . S
C438 C434 1.395 . S
C438 C439 1.379 . S
C438 H448 0.930 . S
C439 C437 1.395 . S
C439 C438 1.379 . S
C439 H449 0.930 . S
C440 O418 1.264 . S
C440 O419 1.254 1_554 S
C441 Eu377 2.848 . S
C441 O416 1.257 . S
C441 O421 1.249 . S
C441 C434 1.492 . S
H442 C425 0.930 . S
H443 C426 0.930 . S
H444 C427 0.930 . S
H445 C428 0.930 . S
H446 C435 0.930 . S
H447 C437 0.930 . S
H448 C438 0.930 . S
H449 C439 0.930 . S
Eu450 N481 2.657 . S
Eu450 N488 2.609 . S
Eu450 O494 2.558 . S
Eu450 O495 2.612 . S
Eu450 O497 2.339 . S
Eu450 O498 2.563 . S
Eu450 O499 2.419 . S
Eu450 O501 2.380 . S
Eu450 O502 2.432 . S
Eu450 C514 2.848 . S
C451 C454 1.429 . S
C451 C455 1.411 . S
C451 N458 1.377 . S
C452 C454 1.420 . S
C452 C456 1.423 . S
C452 C464 1.392 . S
C453 C455 1.420 . S
C453 C456 1.351 . S
C453 H476 0.931 . S
C454 C451 1.429 . S
C454 C452 1.420 . S
C454 N462 1.362 . S
C455 C451 1.411 . S
C455 C453 1.420 . S
C455 C460 1.395 . S
C456 C452 1.423 . S
C456 C453 1.351 . S
C456 H468 0.930 . S
C457 C459 1.400 . S
C457 C460 1.386 . S
C457 H469 0.930 . S
N458 C451 1.377 . S
N458 C459 1.321 . S
N458 Eu461 2.609 . S
C459 C457 1.400 . S
C459 N458 1.321 . S
C459 H466 0.930 . S
C460 C455 1.395 . S
C460 C457 1.386 . S
C460 H479 0.930 . S
Eu461 N458 2.609 . S
Eu461 N462 2.657 . S
Eu461 O495 2.380 . S
Eu461 O496 2.432 . S
Eu461 O500 2.558 . S
Eu461 O501 2.612 . S
Eu461 O503 2.339 . S
Eu461 O504 2.563 . S
Eu461 O505 2.419 . S
Eu461 C525 2.848 . S
N462 C454 1.362 . S
N462 Eu461 2.657 . S
N462 C463 1.334 . S
C463 N462 1.334 . S
C463 C465 1.413 . S
C463 H470 0.929 . S
C464 C452 1.392 . S
C464 C465 1.367 . S
C464 H472 0.930 . S
C465 C463 1.413 . S
C465 C464 1.367 . S
C465 H467 0.930 . S
H466 C459 0.930 . S
H467 C465 0.930 . S
H468 C456 0.930 . S
H469 C457 0.930 . S
H470 C463 0.929 . S
H471 C485 0.930 . S
H472 C464 0.930 . S
H473 C491 0.930 . S
H474 C482 0.929 . S
H475 C489 0.930 . S
H476 C453 0.931 . S
H477 C483 0.930 . S
H478 C516 0.930 . S
H479 C460 0.930 . S
H480 C515 0.931 . S
N481 Eu450 2.657 . S
N481 C482 1.334 . S
N481 C486 1.362 . S
C482 H474 0.929 . S
C482 N481 1.334 . S
C482 C485 1.413 . S
C483 H477 0.930 . S
C483 C484 1.392 . S
C483 C485 1.367 . S
C484 C483 1.392 . S
C484 C486 1.420 . S
C484 C516 1.423 . S
C485 H471 0.930 . S
C485 C482 1.413 . S
C485 C483 1.367 . S
C486 N481 1.362 . S
C486 C484 1.420 . S
C486 C490 1.429 . S
H487 C492 0.930 . S
N488 Eu450 2.609 . S
N488 C490 1.377 . S
N488 C491 1.321 . S
C489 H475 0.930 . S
C489 C491 1.400 . S
C489 C492 1.386 . S
C490 C486 1.429 . S
C490 N488 1.377 . S
C490 C493 1.411 . S
C491 H473 0.930 . S
C491 N488 1.321 . S
C491 C489 1.400 . S
C492 H487 0.930 . S
C492 C489 1.386 . S
C492 C493 1.395 . S
C493 C490 1.411 . S
C493 C492 1.395 . S
C493 C515 1.420 . S
O494 Eu450 2.558 . S
O494 C514 1.257 . S
O495 Eu450 2.612 . S
O495 Eu461 2.380 . S
O495 C506 1.276 . S
O496 Eu461 2.432 . S
O496 C513 1.264 . S
O497 Eu450 2.339 . S
O497 C513 1.254 . S
O498 Eu450 2.563 . S
O498 C506 1.235 . S
O499 Eu450 2.419 . S
O499 C514 1.249 . S
O500 Eu461 2.558 . S
O500 C525 1.257 . S
O501 Eu450 2.380 . S
O501 Eu461 2.612 . S
O501 C517 1.276 . S
O502 Eu450 2.432 . S
O502 C524 1.264 . S
O503 Eu461 2.339 . S
O503 C524 1.254 . S
O504 Eu461 2.563 . S
O504 C517 1.235 . S
O505 Eu461 2.419 . S
O505 C525 1.249 . S
C506 O495 1.276 . S
C506 O498 1.235 . S
C507 C509 1.393 . S
C507 C511 1.395 . S
C507 C514 1.492 . S
C508 C509 1.392 . S
C508 C510 1.386 . S
C509 C507 1.393 . S
C509 C508 1.392 . S
C509 H526 0.930 . S
C510 C508 1.386 . S
C510 C512 1.395 . S
C510 H527 0.930 . S
C511 C507 1.395 . S
C511 C512 1.379 . S
C511 H528 0.930 . S
C512 C510 1.395 . S
C512 C511 1.379 . S
C512 H529 0.930 . S
C513 O496 1.264 . S
C513 O497 1.254 . S
C514 Eu450 2.848 . S
C514 O494 1.257 . S
C514 O499 1.249 . S
C514 C507 1.492 . S
C515 H480 0.931 . S
C515 C493 1.420 . S
C515 C516 1.351 . S
C516 H478 0.930 . S
C516 C484 1.423 . S
C516 C515 1.351 . S
C517 O501 1.276 . S
C517 O504 1.235 . S
C518 C519 1.393 . S
C518 C522 1.395 . S
C518 C525 1.492 . S
C519 C518 1.393 . S
C519 C520 1.392 . S
C519 H530 0.930 . S
C520 C519 1.392 . S
C520 C521 1.386 . S
C521 C520 1.386 . S
C521 C523 1.395 . S
C521 H531 0.930 . S
C522 C518 1.395 . S
C522 C523 1.379 . S
C522 H532 0.930 . S
C523 C521 1.395 . S
C523 C522 1.379 . S
C523 H533 0.930 . S
C524 O502 1.264 . S
C524 O503 1.254 . S
C525 Eu461 2.848 . S
C525 O500 1.257 . S
C525 O505 1.249 . S
C525 C518 1.492 . S
H526 C509 0.930 . S
H527 C510 0.930 . S
H528 C511 0.930 . S
H529 C512 0.930 . S
H530 C519 0.930 . S
H531 C521 0.930 . S
H532 C522 0.930 . S
H533 C523 0.930 . S
Eu534 N565 2.657 . S
Eu534 N572 2.609 . S
Eu534 O578 2.558 . S
Eu534 O579 2.612 . S
Eu534 O581 2.339 . S
Eu534 O582 2.563 . S
Eu534 O583 2.419 . S
Eu534 O585 2.380 . S
Eu534 O586 2.432 . S
Eu534 C598 2.848 . S
C535 C538 1.429 . S
C535 C539 1.411 . S
C535 N542 1.377 . S
C536 C538 1.420 . S
C536 C540 1.423 . S
C536 C548 1.392 . S
C537 C539 1.420 . S
C537 C540 1.351 . S
C537 H560 0.931 . S
C538 C535 1.429 . S
C538 C536 1.420 . S
C538 N546 1.362 . S
C539 C535 1.411 . S
C539 C537 1.420 . S
C539 C544 1.395 . S
C540 C536 1.423 . S
C540 C537 1.351 . S
C540 H552 0.930 . S
C541 C543 1.400 . S
C541 C544 1.386 . S
C541 H553 0.930 . S
N542 C535 1.377 . S
N542 C543 1.321 . S
N542 Eu545 2.609 . S
C543 C541 1.400 . S
C543 N542 1.321 . S
C543 H550 0.930 . S
C544 C539 1.395 . S
C544 C541 1.386 . S
C544 H563 0.930 . S
Eu545 N542 2.609 . S
Eu545 N546 2.657 . S
Eu545 O579 2.380 . S
Eu545 O580 2.432 . S
Eu545 O584 2.558 . S
Eu545 O585 2.612 . S
Eu545 O587 2.339 . S
Eu545 O588 2.563 . S
Eu545 O589 2.419 . S
Eu545 C609 2.848 . S
N546 C538 1.362 . S
N546 Eu545 2.657 . S
N546 C547 1.334 . S
C547 N546 1.334 . S
C547 C549 1.413 . S
C547 H554 0.929 . S
C548 C536 1.392 . S
C548 C549 1.367 . S
C548 H556 0.930 . S
C549 C547 1.413 . S
C549 C548 1.367 . S
C549 H551 0.930 . S
H550 C543 0.930 . S
H551 C549 0.930 . S
H552 C540 0.930 . S
H553 C541 0.930 . S
H554 C547 0.929 . S
H555 C569 0.930 . S
H556 C548 0.930 . S
H557 C575 0.930 . S
H558 C566 0.929 . S
H559 C573 0.930 . S
H560 C537 0.931 . S
H561 C567 0.930 . S
H562 C600 0.930 . S
H563 C544 0.930 . S
H564 C599 0.931 . S
N565 Eu534 2.657 . S
N565 C566 1.334 . S
N565 C570 1.362 . S
C566 H558 0.929 . S
C566 N565 1.334 . S
C566 C569 1.413 . S
C567 H561 0.930 . S
C567 C568 1.392 . S
C567 C569 1.367 . S
C568 C567 1.392 . S
C568 C570 1.420 . S
C568 C600 1.423 . S
C569 H555 0.930 . S
C569 C566 1.413 . S
C569 C567 1.367 . S
C570 N565 1.362 . S
C570 C568 1.420 . S
C570 C574 1.429 . S
H571 C576 0.930 . S
N572 Eu534 2.609 . S
N572 C574 1.377 . S
N572 C575 1.321 . S
C573 H559 0.930 . S
C573 C575 1.400 . S
C573 C576 1.386 . S
C574 C570 1.429 . S
C574 N572 1.377 . S
C574 C577 1.411 . S
C575 H557 0.930 . S
C575 N572 1.321 . S
C575 C573 1.400 . S
C576 H571 0.930 . S
C576 C573 1.386 . S
C576 C577 1.395 . S
C577 C574 1.411 . S
C577 C576 1.395 . S
C577 C599 1.420 . S
O578 Eu534 2.558 . S
O578 C598 1.257 . S
O579 Eu534 2.612 . S
O579 Eu545 2.380 . S
O579 C590 1.276 . S
O580 Eu545 2.432 . S
O580 C597 1.264 . S
O581 Eu534 2.339 . S
O581 C597 1.254 . S
O582 Eu534 2.563 . S
O582 C590 1.235 . S
O583 Eu534 2.419 . S
O583 C598 1.249 . S
O584 Eu545 2.558 . S
O584 C609 1.257 . S
O585 Eu534 2.380 . S
O585 Eu545 2.612 . S
O585 C601 1.276 . S
O586 Eu534 2.432 . S
O586 C608 1.264 . S
O587 Eu545 2.339 . S
O587 C608 1.254 . S
O588 Eu545 2.563 . S
O588 C601 1.235 . S
O589 Eu545 2.419 . S
O589 C609 1.249 . S
C590 O579 1.276 . S
C590 O582 1.235 . S
C591 C593 1.393 . S
C591 C595 1.395 . S
C591 C598 1.492 . S
C592 C593 1.392 . S
C592 C594 1.386 . S
C593 C591 1.393 . S
C593 C592 1.392 . S
C593 H610 0.930 . S
C594 C592 1.386 . S
C594 C596 1.395 . S
C594 H611 0.930 . S
C595 C591 1.395 . S
C595 C596 1.379 . S
C595 H612 0.930 . S
C596 C594 1.395 . S
C596 C595 1.379 . S
C596 H613 0.930 . S
C597 O580 1.264 . S
C597 O581 1.254 . S
C598 Eu534 2.848 . S
C598 O578 1.257 . S
C598 O583 1.249 . S
C598 C591 1.492 . S
C599 H564 0.931 . S
C599 C577 1.420 . S
C599 C600 1.351 . S
C600 H562 0.930 . S
C600 C568 1.423 . S
C600 C599 1.351 . S
C601 O585 1.276 . S
C601 O588 1.235 . S
C602 C603 1.393 . S
C602 C606 1.395 . S
C602 C609 1.492 . S
C603 C602 1.393 . S
C603 C604 1.392 . S
C603 H614 0.930 . S
C604 C603 1.392 . S
C604 C605 1.386 . S
C605 C604 1.386 . S
C605 C607 1.395 . S
C605 H615 0.930 . S
C606 C602 1.395 . S
C606 C607 1.379 . S
C606 H616 0.930 . S
C607 C605 1.395 . S
C607 C606 1.379 . S
C607 H617 0.930 . S
C608 O586 1.264 . S
C608 O587 1.254 . S
C609 Eu545 2.848 . S
C609 O584 1.257 . S
C609 O589 1.249 . S
C609 C602 1.492 . S
H610 C593 0.930 . S
H611 C594 0.930 . S
H612 C595 0.930 . S
H613 C596 0.930 . S
H614 C603 0.930 . S
H615 C605 0.930 . S
H616 C606 0.930 . S
H617 C607 0.930 . S
Eu618 N649 2.657 . S
Eu618 N656 2.609 . S
Eu618 O662 2.558 . S
Eu618 O663 2.612 . S
Eu618 O665 2.339 . S
Eu618 O666 2.563 . S
Eu618 O667 2.419 . S
Eu618 O669 2.380 . S
Eu618 O670 2.432 . S
Eu618 C682 2.848 . S
C619 C622 1.429 . S
C619 C623 1.411 . S
C619 N626 1.377 . S
C620 C622 1.420 . S
C620 C624 1.423 . S
C620 C632 1.392 . S
C621 C623 1.420 . S
C621 C624 1.351 . S
C621 H644 0.931 . S
C622 C619 1.429 . S
C622 C620 1.420 . S
C622 N630 1.362 . S
C623 C619 1.411 . S
C623 C621 1.420 . S
C623 C628 1.395 . S
C624 C620 1.423 . S
C624 C621 1.351 . S
C624 H636 0.930 . S
C625 C627 1.400 . S
C625 C628 1.386 . S
C625 H637 0.930 . S
N626 C619 1.377 . S
N626 C627 1.321 . S
N626 Eu629 2.609 . S
C627 C625 1.400 . S
C627 N626 1.321 . S
C627 H634 0.930 . S
C628 C623 1.395 . S
C628 C625 1.386 . S
C628 H647 0.930 . S
Eu629 N626 2.609 . S
Eu629 N630 2.657 . S
Eu629 O663 2.380 . S
Eu629 O664 2.432 . S
Eu629 O668 2.558 . S
Eu629 O669 2.612 . S
Eu629 O671 2.339 . S
Eu629 O672 2.563 . S
Eu629 O673 2.419 . S
Eu629 C693 2.848 . S
N630 C622 1.362 . S
N630 Eu629 2.657 . S
N630 C631 1.334 . S
C631 N630 1.334 . S
C631 C633 1.413 . S
C631 H638 0.929 . S
C632 C620 1.392 . S
C632 C633 1.367 . S
C632 H640 0.930 . S
C633 C631 1.413 . S
C633 C632 1.367 . S
C633 H635 0.930 . S
H634 C627 0.930 . S
H635 C633 0.930 . S
H636 C624 0.930 . S
H637 C625 0.930 . S
H638 C631 0.929 . S
H639 C653 0.930 . S
H640 C632 0.930 . S
H641 C659 0.930 . S
H642 C650 0.929 . S
H643 C657 0.930 . S
H644 C621 0.931 . S
H645 C651 0.930 . S
H646 C684 0.930 . S
H647 C628 0.930 . S
H648 C683 0.931 . S
N649 Eu618 2.657 . S
N649 C650 1.334 . S
N649 C654 1.362 . S
C650 H642 0.929 . S
C650 N649 1.334 . S
C650 C653 1.413 . S
C651 H645 0.930 . S
C651 C652 1.392 . S
C651 C653 1.367 . S
C652 C651 1.392 . S
C652 C654 1.420 . S
C652 C684 1.423 . S
C653 H639 0.930 . S
C653 C650 1.413 . S
C653 C651 1.367 . S
C654 N649 1.362 . S
C654 C652 1.420 . S
C654 C658 1.429 . S
H655 C660 0.930 . S
N656 Eu618 2.609 . S
N656 C658 1.377 . S
N656 C659 1.321 . S
C657 H643 0.930 . S
C657 C659 1.400 . S
C657 C660 1.386 . S
C658 C654 1.429 . S
C658 N656 1.377 . S
C658 C661 1.411 . S
C659 H641 0.930 . S
C659 N656 1.321 . S
C659 C657 1.400 . S
C660 H655 0.930 . S
C660 C657 1.386 . S
C660 C661 1.395 . S
C661 C658 1.411 . S
C661 C660 1.395 . S
C661 C683 1.420 . S
O662 Eu618 2.558 . S
O662 C682 1.257 . S
O663 Eu618 2.612 . S
O663 Eu629 2.380 . S
O663 C674 1.276 . S
O664 Eu629 2.432 . S
O664 C681 1.264 . S
O665 Eu618 2.339 . S
O665 C681 1.254 . S
O666 Eu618 2.563 . S
O666 C674 1.235 . S
O667 Eu618 2.419 . S
O667 C682 1.249 . S
O668 Eu629 2.558 . S
O668 C693 1.257 . S
O669 Eu618 2.380 . S
O669 Eu629 2.612 . S
O669 C685 1.276 . S
O670 Eu618 2.432 . S
O670 C692 1.264 . S
O671 Eu629 2.339 . S
O671 C692 1.254 . S
O672 Eu629 2.563 . S
O672 C685 1.235 . S
O673 Eu629 2.419 . S
O673 C693 1.249 . S
C674 O663 1.276 . S
C674 O666 1.235 . S
C675 C677 1.393 . S
C675 C679 1.395 . S
C675 C682 1.492 . S
C676 C677 1.392 . S
C676 C678 1.386 . S
C677 C675 1.393 . S
C677 C676 1.392 . S
C677 H694 0.930 . S
C678 C676 1.386 . S
C678 C680 1.395 . S
C678 H695 0.930 . S
C679 C675 1.395 . S
C679 C680 1.379 . S
C679 H696 0.930 . S
C680 C678 1.395 . S
C680 C679 1.379 . S
C680 H697 0.930 . S
C681 O664 1.264 . S
C681 O665 1.254 . S
C682 Eu618 2.848 . S
C682 O662 1.257 . S
C682 O667 1.249 . S
C682 C675 1.492 . S
C683 H648 0.931 . S
C683 C661 1.420 . S
C683 C684 1.351 . S
C684 H646 0.930 . S
C684 C652 1.423 . S
C684 C683 1.351 . S
C685 O669 1.276 . S
C685 O672 1.235 . S
C686 C687 1.393 . S
C686 C690 1.395 . S
C686 C693 1.492 . S
C687 C686 1.393 . S
C687 C688 1.392 . S
C687 H698 0.930 . S
C688 C687 1.392 . S
C688 C689 1.386 . S
C689 C688 1.386 . S
C689 C691 1.395 . S
C689 H699 0.930 . S
C690 C686 1.395 . S
C690 C691 1.379 . S
C690 H700 0.930 . S
C691 C689 1.395 . S
C691 C690 1.379 . S
C691 H701 0.930 . S
C692 O670 1.264 . S
C692 O671 1.254 . S
C693 Eu629 2.848 . S
C693 O668 1.257 . S
C693 O673 1.249 . S
C693 C686 1.492 . S
H694 C677 0.930 . S
H695 C678 0.930 . S
H696 C679 0.930 . S
H697 C680 0.930 . S
H698 C687 0.930 . S
H699 C689 0.930 . S
H700 C690 0.930 . S
H701 C691 0.930 . S
Eu702 N733 2.657 . S
Eu702 N740 2.609 . S
Eu702 O746 2.558 . S
Eu702 O747 2.612 . S
Eu702 O749 2.339 . S
Eu702 O750 2.563 . S
Eu702 O751 2.419 . S
Eu702 O753 2.380 . S
Eu702 O754 2.432 . S
Eu702 C766 2.848 . S
C703 C706 1.429 . S
C703 C707 1.411 . S
C703 N710 1.377 . S
C704 C706 1.420 . S
C704 C708 1.423 . S
C704 C716 1.392 . S
C705 C707 1.420 . S
C705 C708 1.351 . S
C705 H728 0.931 . S
C706 C703 1.429 . S
C706 C704 1.420 . S
C706 N714 1.362 . S
C707 C703 1.411 . S
C707 C705 1.420 . S
C707 C712 1.395 . S
C708 C704 1.423 . S
C708 C705 1.351 . S
C708 H720 0.930 . S
C709 C711 1.400 . S
C709 C712 1.386 . S
C709 H721 0.930 . S
N710 C703 1.377 . S
N710 C711 1.321 . S
N710 Eu713 2.609 . S
C711 C709 1.400 . S
C711 N710 1.321 . S
C711 H718 0.930 . S
C712 C707 1.395 . S
C712 C709 1.386 . S
C712 H731 0.930 . S
Eu713 N710 2.609 . S
Eu713 N714 2.657 . S
Eu713 O747 2.380 . S
Eu713 O748 2.432 . S
Eu713 O752 2.558 . S
Eu713 O753 2.612 . S
Eu713 O755 2.339 . S
Eu713 O756 2.563 . S
Eu713 O757 2.419 . S
Eu713 C777 2.848 . S
N714 C706 1.362 . S
N714 Eu713 2.657 . S
N714 C715 1.334 . S
C715 N714 1.334 . S
C715 C717 1.413 . S
C715 H722 0.929 . S
C716 C704 1.392 . S
C716 C717 1.367 . S
C716 H724 0.930 . S
C717 C715 1.413 . S
C717 C716 1.367 . S
C717 H719 0.930 . S
H718 C711 0.930 . S
H719 C717 0.930 . S
H720 C708 0.930 . S
H721 C709 0.930 . S
H722 C715 0.929 . S
H723 C737 0.930 . S
H724 C716 0.930 . S
H725 C743 0.930 . S
H726 C734 0.929 . S
H727 C741 0.930 . S
H728 C705 0.931 . S
H729 C735 0.930 . S
H730 C768 0.930 . S
H731 C712 0.930 . S
H732 C767 0.931 . S
N733 Eu702 2.657 . S
N733 C734 1.334 . S
N733 C738 1.362 . S
C734 H726 0.929 . S
C734 N733 1.334 . S
C734 C737 1.413 . S
C735 H729 0.930 . S
C735 C736 1.392 . S
C735 C737 1.367 . S
C736 C735 1.392 . S
C736 C738 1.420 . S
C736 C768 1.423 . S
C737 H723 0.930 . S
C737 C734 1.413 . S
C737 C735 1.367 . S
C738 N733 1.362 . S
C738 C736 1.420 . S
C738 C742 1.429 . S
H739 C744 0.930 . S
N740 Eu702 2.609 . S
N740 C742 1.377 . S
N740 C743 1.321 . S
C741 H727 0.930 . S
C741 C743 1.400 . S
C741 C744 1.386 . S
C742 C738 1.429 . S
C742 N740 1.377 . S
C742 C745 1.411 . S
C743 H725 0.930 . S
C743 N740 1.321 . S
C743 C741 1.400 . S
C744 H739 0.930 . S
C744 C741 1.386 . S
C744 C745 1.395 . S
C745 C742 1.411 . S
C745 C744 1.395 . S
C745 C767 1.420 . S
O746 Eu702 2.558 . S
O746 C766 1.257 . S
O747 Eu702 2.612 . S
O747 Eu713 2.380 . S
O747 C758 1.276 . S
O748 Eu713 2.432 . S
O748 C765 1.264 . S
O749 Eu702 2.339 . S
O749 C765 1.254 . S
O750 Eu702 2.563 . S
O750 C758 1.235 . S
O751 Eu702 2.419 . S
O751 C766 1.249 . S
O752 Eu713 2.558 . S
O752 C777 1.257 . S
O753 Eu702 2.380 . S
O753 Eu713 2.612 . S
O753 C769 1.276 . S
O754 Eu702 2.432 . S
O754 C776 1.264 . S
O755 Eu713 2.339 . S
O755 C776 1.254 . S
O756 Eu713 2.563 . S
O756 C769 1.235 . S
O757 Eu713 2.419 . S
O757 C777 1.249 . S
C758 O747 1.276 . S
C758 O750 1.235 . S
C759 C761 1.393 . S
C759 C763 1.395 . S
C759 C766 1.492 . S
C760 C761 1.392 . S
C760 C762 1.386 . S
C761 C759 1.393 . S
C761 C760 1.392 . S
C761 H778 0.930 . S
C762 C760 1.386 . S
C762 C764 1.395 . S
C762 H779 0.930 . S
C763 C759 1.395 . S
C763 C764 1.379 . S
C763 H780 0.930 . S
C764 C762 1.395 . S
C764 C763 1.379 . S
C764 H781 0.930 . S
C765 O748 1.264 . S
C765 O749 1.254 . S
C766 Eu702 2.848 . S
C766 O746 1.257 . S
C766 O751 1.249 . S
C766 C759 1.492 . S
C767 H732 0.931 . S
C767 C745 1.420 . S
C767 C768 1.351 . S
C768 H730 0.930 . S
C768 C736 1.423 . S
C768 C767 1.351 . S
C769 O753 1.276 . S
C769 O756 1.235 . S
C770 C771 1.393 . S
C770 C774 1.395 . S
C770 C777 1.492 . S
C771 C770 1.393 . S
C771 C772 1.392 . S
C771 H782 0.930 . S
C772 C771 1.392 . S
C772 C773 1.386 . S
C773 C772 1.386 . S
C773 C775 1.395 . S
C773 H783 0.930 . S
C774 C770 1.395 . S
C774 C775 1.379 . S
C774 H784 0.930 . S
C775 C773 1.395 . S
C775 C774 1.379 . S
C775 H785 0.930 . S
C776 O754 1.264 . S
C776 O755 1.254 . S
C777 Eu713 2.848 . S
C777 O752 1.257 . S
C777 O757 1.249 . S
C777 C770 1.492 . S
H778 C761 0.930 . S
H779 C762 0.930 . S
H780 C763 0.930 . S
H781 C764 0.930 . S
H782 C771 0.930 . S
H783 C773 0.930 . S
H784 C774 0.930 . S
H785 C775 0.930 . S
Eu786 N817 2.657 . S
Eu786 N824 2.609 . S
Eu786 O830 2.558 . S
Eu786 O831 2.612 . S
Eu786 O833 2.339 . S
Eu786 O834 2.563 . S
Eu786 O835 2.419 . S
Eu786 O837 2.380 . S
Eu786 O838 2.432 . S
Eu786 C850 2.848 . S
C787 C790 1.429 . S
C787 C791 1.411 . S
C787 N794 1.377 . S
C788 C790 1.420 . S
C788 C792 1.423 . S
C788 C800 1.392 . S
C789 C791 1.420 . S
C789 C792 1.351 . S
C789 H812 0.931 . S
C790 C787 1.429 . S
C790 C788 1.420 . S
C790 N798 1.362 . S
C791 C787 1.411 . S
C791 C789 1.420 . S
C791 C796 1.395 . S
C792 C788 1.423 . S
C792 C789 1.351 . S
C792 H804 0.930 . S
C793 C795 1.400 . S
C793 C796 1.386 . S
C793 H805 0.930 . S
N794 C787 1.377 . S
N794 C795 1.321 . S
N794 Eu797 2.609 . S
C795 C793 1.400 . S
C795 N794 1.321 . S
C795 H802 0.930 . S
C796 C791 1.395 . S
C796 C793 1.386 . S
C796 H815 0.930 . S
Eu797 N794 2.609 . S
Eu797 N798 2.657 . S
Eu797 O831 2.380 . S
Eu797 O832 2.432 . S
Eu797 O836 2.558 . S
Eu797 O837 2.612 . S
Eu797 O839 2.339 . S
Eu797 O840 2.563 . S
Eu797 O841 2.419 . S
Eu797 C861 2.848 . S
N798 C790 1.362 . S
N798 Eu797 2.657 . S
N798 C799 1.334 . S
C799 N798 1.334 . S
C799 C801 1.413 . S
C799 H806 0.929 . S
C800 C788 1.392 . S
C800 C801 1.367 . S
C800 H808 0.930 . S
C801 C799 1.413 . S
C801 C800 1.367 . S
C801 H803 0.930 . S
H802 C795 0.930 . S
H803 C801 0.930 . S
H804 C792 0.930 . S
H805 C793 0.930 . S
H806 C799 0.929 . S
H807 C821 0.930 . S
H808 C800 0.930 . S
H809 C827 0.930 . S
H810 C818 0.929 . S
H811 C825 0.930 . S
H812 C789 0.931 . S
H813 C819 0.930 . S
H814 C852 0.930 . S
H815 C796 0.930 . S
H816 C851 0.931 . S
N817 Eu786 2.657 . S
N817 C818 1.334 . S
N817 C822 1.362 . S
C818 H810 0.929 . S
C818 N817 1.334 . S
C818 C821 1.413 . S
C819 H813 0.930 . S
C819 C820 1.392 . S
C819 C821 1.367 . S
C820 C819 1.392 . S
C820 C822 1.420 . S
C820 C852 1.423 . S
C821 H807 0.930 . S
C821 C818 1.413 . S
C821 C819 1.367 . S
C822 N817 1.362 . S
C822 C820 1.420 . S
C822 C826 1.429 . S
H823 C828 0.930 . S
N824 Eu786 2.609 . S
N824 C826 1.377 . S
N824 C827 1.321 . S
C825 H811 0.930 . S
C825 C827 1.400 . S
C825 C828 1.386 . S
C826 C822 1.429 . S
C826 N824 1.377 . S
C826 C829 1.411 . S
C827 H809 0.930 . S
C827 N824 1.321 . S
C827 C825 1.400 . S
C828 H823 0.930 . S
C828 C825 1.386 . S
C828 C829 1.395 . S
C829 C826 1.411 . S
C829 C828 1.395 . S
C829 C851 1.420 . S
O830 Eu786 2.558 . S
O830 C850 1.257 . S
O831 Eu786 2.612 . S
O831 Eu797 2.380 . S
O831 C842 1.276 . S
O832 Eu797 2.432 . S
O832 C849 1.264 . S
O833 Eu786 2.339 . S
O833 C849 1.254 . S
O834 Eu786 2.563 . S
O834 C842 1.235 . S
O835 Eu786 2.419 . S
O835 C850 1.249 . S
O836 Eu797 2.558 . S
O836 C861 1.257 . S
O837 Eu786 2.380 . S
O837 Eu797 2.612 . S
O837 C853 1.276 . S
O838 Eu786 2.432 . S
O838 C860 1.264 . S
O839 Eu797 2.339 . S
O839 C860 1.254 . S
O840 Eu797 2.563 . S
O840 C853 1.235 . S
O841 Eu797 2.419 . S
O841 C861 1.249 . S
C842 O831 1.276 . S
C842 O834 1.235 . S
C843 C845 1.393 . S
C843 C847 1.395 . S
C843 C850 1.492 . S
C844 C845 1.392 . S
C844 C846 1.386 . S
C845 C843 1.393 . S
C845 C844 1.392 . S
C845 H862 0.930 . S
C846 C844 1.386 . S
C846 C848 1.395 . S
C846 H863 0.930 . S
C847 C843 1.395 . S
C847 C848 1.379 . S
C847 H864 0.930 . S
C848 C846 1.395 . S
C848 C847 1.379 . S
C848 H865 0.930 . S
C849 O832 1.264 . S
C849 O833 1.254 . S
C850 Eu786 2.848 . S
C850 O830 1.257 . S
C850 O835 1.249 . S
C850 C843 1.492 . S
C851 H816 0.931 . S
C851 C829 1.420 . S
C851 C852 1.351 . S
C852 H814 0.930 . S
C852 C820 1.423 . S
C852 C851 1.351 . S
C853 O837 1.276 . S
C853 O840 1.235 . S
C854 C855 1.393 . S
C854 C858 1.395 . S
C854 C861 1.492 . S
C855 C854 1.393 . S
C855 C856 1.392 . S
C855 H866 0.930 . S
C856 C855 1.392 . S
C856 C857 1.386 . S
C857 C856 1.386 . S
C857 C859 1.395 . S
C857 H867 0.930 . S
C858 C854 1.395 . S
C858 C859 1.379 . S
C858 H868 0.930 . S
C859 C857 1.395 . S
C859 C858 1.379 . S
C859 H869 0.930 . S
C860 O838 1.264 . S
C860 O839 1.254 . S
C861 Eu797 2.848 . S
C861 O836 1.257 . S
C861 O841 1.249 . S
C861 C854 1.492 . S
H862 C845 0.930 . S
H863 C846 0.930 . S
H864 C847 0.930 . S
H865 C848 0.930 . S
H866 C855 0.930 . S
H867 C857 0.930 . S
H868 C858 0.930 . S
H869 C859 0.930 . S
Eu870 N901 2.657 . S
Eu870 N908 2.609 . S
Eu870 O914 2.558 . S
Eu870 O915 2.612 . S
Eu870 O917 2.339 . S
Eu870 O918 2.563 . S
Eu870 O919 2.419 . S
Eu870 O921 2.380 . S
Eu870 O922 2.432 . S
Eu870 C934 2.848 . S
C871 C874 1.429 . S
C871 C875 1.411 . S
C871 N878 1.377 . S
C872 C874 1.420 . S
C872 C876 1.423 . S
C872 C884 1.392 . S
C873 C875 1.420 . S
C873 C876 1.351 . S
C873 H896 0.931 . S
C874 C871 1.429 . S
C874 C872 1.420 . S
C874 N882 1.362 . S
C875 C871 1.411 . S
C875 C873 1.420 . S
C875 C880 1.395 . S
C876 C872 1.423 . S
C876 C873 1.351 . S
C876 H888 0.930 . S
C877 C879 1.400 . S
C877 C880 1.386 . S
C877 H889 0.930 . S
N878 C871 1.377 . S
N878 C879 1.321 . S
N878 Eu881 2.609 . S
C879 C877 1.400 . S
C879 N878 1.321 . S
C879 H886 0.930 . S
C880 C875 1.395 . S
C880 C877 1.386 . S
C880 H899 0.930 . S
Eu881 N878 2.609 . S
Eu881 N882 2.657 . S
Eu881 O915 2.380 . S
Eu881 O916 2.432 . S
Eu881 O920 2.558 . S
Eu881 O921 2.612 . S
Eu881 O923 2.339 . S
Eu881 O924 2.563 . S
Eu881 O925 2.419 . S
Eu881 C945 2.848 . S
N882 C874 1.362 . S
N882 Eu881 2.657 . S
N882 C883 1.334 . S
C883 N882 1.334 . S
C883 C885 1.413 . S
C883 H890 0.929 . S
C884 C872 1.392 . S
C884 C885 1.367 . S
C884 H892 0.930 . S
C885 C883 1.413 . S
C885 C884 1.367 . S
C885 H887 0.930 . S
H886 C879 0.930 . S
H887 C885 0.930 . S
H888 C876 0.930 . S
H889 C877 0.930 . S
H890 C883 0.929 . S
H891 C905 0.930 . S
H892 C884 0.930 . S
H893 C911 0.930 . S
H894 C902 0.929 . S
H895 C909 0.930 . S
H896 C873 0.931 . S
H897 C903 0.930 1_455 S
H898 C936 0.930 1_455 S
H899 C880 0.930 . S
H900 C935 0.931 . S
N901 Eu870 2.657 . S
N901 C902 1.334 . S
N901 C906 1.362 . S
C902 H894 0.929 . S
C902 N901 1.334 . S
C902 C905 1.413 . S
C903 H897 0.930 1_655 S
C903 C904 1.392 . S
C903 C905 1.367 . S
C904 C903 1.392 . S
C904 C906 1.420 . S
C904 C936 1.423 . S
C905 H891 0.930 . S
C905 C902 1.413 . S
C905 C903 1.367 . S
C906 N901 1.362 . S
C906 C904 1.420 . S
C906 C910 1.429 . S
H907 C912 0.930 . S
N908 Eu870 2.609 . S
N908 C910 1.377 . S
N908 C911 1.321 . S
C909 H895 0.930 . S
C909 C911 1.400 . S
C909 C912 1.386 . S
C910 C906 1.429 . S
C910 N908 1.377 . S
C910 C913 1.411 . S
C911 H893 0.930 . S
C911 N908 1.321 . S
C911 C909 1.400 . S
C912 H907 0.930 . S
C912 C909 1.386 . S
C912 C913 1.395 . S
C913 C910 1.411 . S
C913 C912 1.395 . S
C913 C935 1.420 . S
O914 Eu870 2.558 . S
O914 C934 1.257 . S
O915 Eu870 2.612 . S
O915 Eu881 2.380 . S
O915 C926 1.276 . S
O916 Eu881 2.432 . S
O916 C933 1.264 . S
O917 Eu870 2.339 . S
O917 C933 1.254 . S
O918 Eu870 2.563 . S
O918 C926 1.235 . S
O919 Eu870 2.419 . S
O919 C934 1.249 . S
O920 Eu881 2.558 . S
O920 C945 1.257 . S
O921 Eu870 2.380 . S
O921 Eu881 2.612 . S
O921 C937 1.276 . S
O922 Eu870 2.432 . S
O922 C944 1.264 . S
O923 Eu881 2.339 . S
O923 C944 1.254 . S
O924 Eu881 2.563 . S
O924 C937 1.235 . S
O925 Eu881 2.419 . S
O925 C945 1.249 . S
C926 O915 1.276 . S
C926 O918 1.235 . S
C927 C929 1.393 . S
C927 C931 1.395 . S
C927 C934 1.492 . S
C928 C929 1.392 . S
C928 C930 1.386 . S
C929 C927 1.393 . S
C929 C928 1.392 . S
C929 H946 0.930 . S
C930 C928 1.386 . S
C930 C932 1.395 . S
C930 H947 0.930 . S
C931 C927 1.395 . S
C931 C932 1.379 . S
C931 H948 0.930 . S
C932 C930 1.395 . S
C932 C931 1.379 . S
C932 H949 0.930 . S
C933 O916 1.264 . S
C933 O917 1.254 . S
C934 Eu870 2.848 . S
C934 O914 1.257 . S
C934 O919 1.249 . S
C934 C927 1.492 . S
C935 H900 0.931 . S
C935 C913 1.420 . S
C935 C936 1.351 . S
C936 H898 0.930 1_655 S
C936 C904 1.423 . S
C936 C935 1.351 . S
C937 O921 1.276 . S
C937 O924 1.235 . S
C938 C939 1.393 . S
C938 C942 1.395 . S
C938 C945 1.492 . S
C939 C938 1.393 . S
C939 C940 1.392 . S
C939 H950 0.930 . S
C940 C939 1.392 . S
C940 C941 1.386 . S
C941 C940 1.386 . S
C941 C943 1.395 . S
C941 H951 0.930 . S
C942 C938 1.395 . S
C942 C943 1.379 . S
C942 H952 0.930 . S
C943 C941 1.395 . S
C943 C942 1.379 . S
C943 H953 0.930 . S
C944 O922 1.264 . S
C944 O923 1.254 . S
C945 Eu881 2.848 . S
C945 O920 1.257 . S
C945 O925 1.249 . S
C945 C938 1.492 . S
H946 C929 0.930 . S
H947 C930 0.930 . S
H948 C931 0.930 . S
H949 C932 0.930 . S
H950 C939 0.930 . S
H951 C941 0.930 . S
H952 C942 0.930 . S
H953 C943 0.930 . S
C954 C955 1.391 . S
C954 C956 1.394 . S
C954 H970 0.931 . S
C955 C954 1.391 . S
C955 C959 1.376 . S
C956 C954 1.394 . S
C956 C957 1.369 . S
C956 C960 1.531 . S
C957 C956 1.369 . S
C957 C958 1.410 . S
C957 C965 1.503 . S
C958 C957 1.410 . S
C958 C959 1.392 . S
C958 C961 1.511 . S
C959 C955 1.376 . S
C959 C958 1.392 . S
C959 H971 0.929 . S
C960 C956 1.531 . S
C960 H972 0.960 . S
C960 H973 0.962 . S
C960 H974 0.960 . S
C961 C958 1.511 . S
C961 H975 0.961 . S
C961 H976 0.961 . S
C961 H977 0.961 . S
C962 C963 1.370 . S
C962 C964 1.363 . S
C962 H978 0.931 . S
C963 C962 1.370 . S
C963 C967 1.408 . S
C964 C962 1.363 . S
C964 C965 1.370 . S
C964 C968 1.524 . S
C965 C957 1.503 . S
C965 C964 1.370 . S
C965 C966 1.403 . S
C966 C965 1.403 . S
C966 C967 1.404 . S
C966 C969 1.539 . S
C967 C963 1.408 . S
C967 C966 1.404 . S
C967 H979 0.930 . S
C968 C964 1.524 . S
C968 H980 0.956 . S
C968 H981 0.961 . S
C968 H982 0.961 . S
C969 C966 1.539 . S
C969 H983 0.958 . S
C969 H984 0.961 . S
C969 H985 0.960 . S
H970 C954 0.931 . S
H971 C959 0.929 . S
H972 C960 0.960 . S
H973 C960 0.962 . S
H974 C960 0.960 . S
H975 C961 0.961 . S
H976 C961 0.961 . S
H977 C961 0.961 . S
H978 C962 0.931 . S
H979 C967 0.930 . S
H980 C968 0.956 . S
H981 C968 0.961 . S
H982 C968 0.961 . S
H983 C969 0.958 . S
H984 C969 0.961 . S
H985 C969 0.960 . S
C986 C987 1.391 . S
C986 C988 1.394 . S
C986 H1002 0.931 . S
C987 C986 1.391 . S
C987 C991 1.376 . S
C988 C986 1.394 . S
C988 C989 1.369 . S
C988 C992 1.531 . S
C989 C988 1.369 . S
C989 C990 1.410 . S
C989 C997 1.503 . S
C990 C989 1.410 . S
C990 C991 1.392 . S
C990 C993 1.511 . S
C991 C987 1.376 . S
C991 C990 1.392 . S
C991 H1003 0.929 . S
C992 C988 1.531 . S
C992 H1004 0.960 . S
C992 H1005 0.962 . S
C992 H1006 0.960 . S
C993 C990 1.511 . S
C993 H1007 0.961 . S
C993 H1008 0.961 . S
C993 H1009 0.961 . S
C994 C995 1.370 . S
C994 C996 1.363 . S
C994 H1010 0.931 . S
C995 C994 1.370 . S
C995 C999 1.408 . S
C996 C994 1.363 . S
C996 C997 1.370 . S
C996 C1000 1.524 . S
C997 C989 1.503 . S
C997 C996 1.370 . S
C997 C998 1.403 . S
C998 C997 1.403 . S
C998 C999 1.404 . S
C998 C1001 1.539 . S
C999 C995 1.408 . S
C999 C998 1.404 . S
C999 H1011 0.930 . S
C1000 C996 1.524 . S
C1000 H1012 0.956 . S
C1000 H1013 0.961 . S
C1000 H1014 0.961 . S
C1001 C998 1.539 . S
C1001 H1015 0.958 . S
C1001 H1016 0.961 . S
C1001 H1017 0.960 . S
H1002 C986 0.931 . S
H1003 C991 0.929 . S
H1004 C992 0.960 . S
H1005 C992 0.962 . S
H1006 C992 0.960 . S
H1007 C993 0.961 . S
H1008 C993 0.961 . S
H1009 C993 0.961 . S
H1010 C994 0.931 . S
H1011 C999 0.930 . S
H1012 C1000 0.956 . S
H1013 C1000 0.961 . S
H1014 C1000 0.961 . S
H1015 C1001 0.958 . S
H1016 C1001 0.961 . S
H1017 C1001 0.960 . S
C1018 C1019 1.391 . S
C1018 C1020 1.394 . S
C1018 H1034 0.931 . S
C1019 C1018 1.391 . S
C1019 C1023 1.376 . S
C1020 C1018 1.394 . S
C1020 C1021 1.369 . S
C1020 C1024 1.531 . S
C1021 C1020 1.369 . S
C1021 C1022 1.410 . S
C1021 C1029 1.503 . S
C1022 C1021 1.410 . S
C1022 C1023 1.392 . S
C1022 C1025 1.511 . S
C1023 C1019 1.376 . S
C1023 C1022 1.392 . S
C1023 H1035 0.929 . S
C1024 C1020 1.531 . S
C1024 H1036 0.960 . S
C1024 H1037 0.962 . S
C1024 H1038 0.960 . S
C1025 C1022 1.511 . S
C1025 H1039 0.961 . S
C1025 H1040 0.961 . S
C1025 H1041 0.961 . S
C1026 C1027 1.370 . S
C1026 C1028 1.363 . S
C1026 H1042 0.931 . S
C1027 C1026 1.370 . S
C1027 C1031 1.408 . S
C1028 C1026 1.363 . S
C1028 C1029 1.370 . S
C1028 C1032 1.524 . S
C1029 C1021 1.503 . S
C1029 C1028 1.370 . S
C1029 C1030 1.403 . S
C1030 C1029 1.403 . S
C1030 C1031 1.404 . S
C1030 C1033 1.539 . S
C1031 C1027 1.408 . S
C1031 C1030 1.404 . S
C1031 H1043 0.930 . S
C1032 C1028 1.524 . S
C1032 H1044 0.956 . S
C1032 H1045 0.961 . S
C1032 H1046 0.961 . S
C1033 C1030 1.539 . S
C1033 H1047 0.958 . S
C1033 H1048 0.961 . S
C1033 H1049 0.960 . S
H1034 C1018 0.931 . S
H1035 C1023 0.929 . S
H1036 C1024 0.960 . S
H1037 C1024 0.962 . S
H1038 C1024 0.960 . S
H1039 C1025 0.961 . S
H1040 C1025 0.961 . S
H1041 C1025 0.961 . S
H1042 C1026 0.931 . S
H1043 C1031 0.930 . S
H1044 C1032 0.956 . S
H1045 C1032 0.961 . S
H1046 C1032 0.961 . S
H1047 C1033 0.958 . S
H1048 C1033 0.961 . S
H1049 C1033 0.960 . S
C1050 C1051 1.391 . S
C1050 C1052 1.394 . S
C1050 H1066 0.931 . S
C1051 C1050 1.391 . S
C1051 C1055 1.376 . S
C1052 C1050 1.394 . S
C1052 C1053 1.369 . S
C1052 C1056 1.531 . S
C1053 C1052 1.369 . S
C1053 C1054 1.410 . S
C1053 C1061 1.503 . S
C1054 C1053 1.410 . S
C1054 C1055 1.392 . S
C1054 C1057 1.511 . S
C1055 C1051 1.376 . S
C1055 C1054 1.392 . S
C1055 H1067 0.929 . S
C1056 C1052 1.531 . S
C1056 H1068 0.960 . S
C1056 H1069 0.962 . S
C1056 H1070 0.960 . S
C1057 C1054 1.511 . S
C1057 H1071 0.961 . S
C1057 H1072 0.961 . S
C1057 H1073 0.961 1_556 S
C1058 C1059 1.370 . S
C1058 C1060 1.363 . S
C1058 H1074 0.931 . S
C1059 C1058 1.370 . S
C1059 C1063 1.408 1_556 S
C1060 C1058 1.363 . S
C1060 C1061 1.370 . S
C1060 C1064 1.524 . S
C1061 C1053 1.503 . S
C1061 C1060 1.370 . S
C1061 C1062 1.403 1_556 S
C1062 C1061 1.403 1_554 S
C1062 C1063 1.404 . S
C1062 C1065 1.539 . S
C1063 C1059 1.408 1_554 S
C1063 C1062 1.404 . S
C1063 H1075 0.930 . S
C1064 C1060 1.524 . S
C1064 H1076 0.956 . S
C1064 H1077 0.961 . S
C1064 H1078 0.961 . S
C1065 C1062 1.539 . S
C1065 H1079 0.958 . S
C1065 H1080 0.961 . S
C1065 H1081 0.960 . S
H1066 C1050 0.931 . S
H1067 C1055 0.929 . S
H1068 C1056 0.960 . S
H1069 C1056 0.962 . S
H1070 C1056 0.960 . S
H1071 C1057 0.961 . S
H1072 C1057 0.961 . S
H1073 C1057 0.961 1_554 S
H1074 C1058 0.931 . S
H1075 C1063 0.930 . S
H1076 C1064 0.956 . S
H1077 C1064 0.961 . S
H1078 C1064 0.961 . S
H1079 C1065 0.958 . S
H1080 C1065 0.961 . S
H1081 C1065 0.960 . S
C1082 C1083 1.391 . S
C1082 C1084 1.394 . S
C1082 H1098 0.931 . S
C1083 C1082 1.391 . S
C1083 C1087 1.376 . S
C1084 C1082 1.394 . S
C1084 C1085 1.369 . S
C1084 C1088 1.531 1_556 S
C1085 C1084 1.369 . S
C1085 C1086 1.410 . S
C1085 C1093 1.503 . S
C1086 C1085 1.410 . S
C1086 C1087 1.392 . S
C1086 C1089 1.511 . S
C1087 C1083 1.376 . S
C1087 C1086 1.392 . S
C1087 H1099 0.929 . S
C1088 C1084 1.531 1_554 S
C1088 H1100 0.960 . S
C1088 H1101 0.962 . S
C1088 H1102 0.960 . S
C1089 C1086 1.511 . S
C1089 H1103 0.961 . S
C1089 H1104 0.961 . S
C1089 H1105 0.961 . S
C1090 C1091 1.370 . S
C1090 C1092 1.363 . S
C1090 H1106 0.931 1_556 S
C1091 C1090 1.370 . S
C1091 C1095 1.408 . S
C1092 C1090 1.363 . S
C1092 C1093 1.370 . S
C1092 C1096 1.524 . S
C1093 C1085 1.503 . S
C1093 C1092 1.370 . S
C1093 C1094 1.403 . S
C1094 C1093 1.403 . S
C1094 C1095 1.404 . S
C1094 C1097 1.539 . S
C1095 C1091 1.408 . S
C1095 C1094 1.404 . S
C1095 H1107 0.930 . S
C1096 C1092 1.524 . S
C1096 H1108 0.956 . S
C1096 H1109 0.961 . S
C1096 H1110 0.961 . S
C1097 C1094 1.539 . S
C1097 H1111 0.958 . S
C1097 H1112 0.961 . S
C1097 H1113 0.960 . S
H1098 C1082 0.931 . S
H1099 C1087 0.929 . S
H1100 C1088 0.960 . S
H1101 C1088 0.962 . S
H1102 C1088 0.960 . S
H1103 C1089 0.961 . S
H1104 C1089 0.961 . S
H1105 C1089 0.961 . S
H1106 C1090 0.931 1_554 S
H1107 C1095 0.930 . S
H1108 C1096 0.956 . S
H1109 C1096 0.961 . S
H1110 C1096 0.961 . S
H1111 C1097 0.958 . S
H1112 C1097 0.961 . S
H1113 C1097 0.960 . S
C1114 C1115 1.391 . S
C1114 C1116 1.394 . S
C1114 H1130 0.931 . S
C1115 C1114 1.391 . S
C1115 C1119 1.376 . S
C1116 C1114 1.394 . S
C1116 C1117 1.369 . S
C1116 C1120 1.531 . S
C1117 C1116 1.369 . S
C1117 C1118 1.410 . S
C1117 C1125 1.503 . S
C1118 C1117 1.410 . S
C1118 C1119 1.392 . S
C1118 C1121 1.511 . S
C1119 C1115 1.376 . S
C1119 C1118 1.392 . S
C1119 H1131 0.929 . S
C1120 C1116 1.531 . S
C1120 H1132 0.960 . S
C1120 H1133 0.962 . S
C1120 H1134 0.960 . S
C1121 C1118 1.511 . S
C1121 H1135 0.961 . S
C1121 H1136 0.961 . S
C1121 H1137 0.961 . S
C1122 C1123 1.370 . S
C1122 C1124 1.363 . S
C1122 H1138 0.931 . S
C1123 C1122 1.370 . S
C1123 C1127 1.408 1_556 S
C1124 C1122 1.363 . S
C1124 C1125 1.370 . S
C1124 C1128 1.524 . S
C1125 C1117 1.503 . S
C1125 C1124 1.370 . S
C1125 C1126 1.403 1_556 S
C1126 C1125 1.403 1_554 S
C1126 C1127 1.404 . S
C1126 C1129 1.539 . S
C1127 C1123 1.408 1_554 S
C1127 C1126 1.404 . S
C1127 H1139 0.930 . S
C1128 C1124 1.524 . S
C1128 H1140 0.956 . S
C1128 H1141 0.961 . S
C1128 H1142 0.961 . S
C1129 C1126 1.539 . S
C1129 H1143 0.958 . S
C1129 H1144 0.961 . S
C1129 H1145 0.960 . S
H1130 C1114 0.931 . S
H1131 C1119 0.929 . S
H1132 C1120 0.960 . S
H1133 C1120 0.962 . S
H1134 C1120 0.960 . S
H1135 C1121 0.961 . S
H1136 C1121 0.961 . S
H1137 C1121 0.961 . S
H1138 C1122 0.931 . S
H1139 C1127 0.930 . S
H1140 C1128 0.956 . S
H1141 C1128 0.961 . S
H1142 C1128 0.961 . S
H1143 C1129 0.958 . S
H1144 C1129 0.961 . S
H1145 C1129 0.960 . S
C1146 C1147 1.391 . S
C1146 C1148 1.394 . S
C1146 H1162 0.931 . S
C1147 C1146 1.391 . S
C1147 C1151 1.376 . S
C1148 C1146 1.394 . S
C1148 C1149 1.369 . S
C1148 C1152 1.531 1_556 S
C1149 C1148 1.369 . S
C1149 C1150 1.410 . S
C1149 C1157 1.503 . S
C1150 C1149 1.410 . S
C1150 C1151 1.392 . S
C1150 C1153 1.511 . S
C1151 C1147 1.376 . S
C1151 C1150 1.392 . S
C1151 H1163 0.929 . S
C1152 C1148 1.531 1_554 S
C1152 H1164 0.960 . S
C1152 H1165 0.962 1_554 S
C1152 H1166 0.960 . S
C1153 C1150 1.511 . S
C1153 H1167 0.961 . S
C1153 H1168 0.961 . S
C1153 H1169 0.961 . S
C1154 C1155 1.370 . S
C1154 C1156 1.363 . S
C1154 H1170 0.931 . S
C1155 C1154 1.370 . S
C1155 C1159 1.408 1_556 S
C1156 C1154 1.363 . S
C1156 C1157 1.370 . S
C1156 C1160 1.524 . S
C1157 C1149 1.503 . S
C1157 C1156 1.370 . S
C1157 C1158 1.403 1_556 S
C1158 C1157 1.403 1_554 S
C1158 C1159 1.404 . S
C1158 C1161 1.539 . S
C1159 C1155 1.408 1_554 S
C1159 C1158 1.404 . S
C1159 H1171 0.930 . S
C1160 C1156 1.524 . S
C1160 H1172 0.956 . S
C1160 H1173 0.961 . S
C1160 H1174 0.961 . S
C1161 C1158 1.539 . S
C1161 H1175 0.958 . S
C1161 H1176 0.961 . S
C1161 H1177 0.960 . S
H1162 C1146 0.931 . S
H1163 C1151 0.929 . S
H1164 C1152 0.960 . S
H1165 C1152 0.962 1_556 S
H1166 C1152 0.960 . S
H1167 C1153 0.961 . S
H1168 C1153 0.961 . S
H1169 C1153 0.961 . S
H1170 C1154 0.931 . S
H1171 C1159 0.930 . S
H1172 C1160 0.956 . S
H1173 C1160 0.961 . S
H1174 C1160 0.961 . S
H1175 C1161 0.958 . S
H1176 C1161 0.961 . S
H1177 C1161 0.960 . S
C1178 C1179 1.391 . S
C1178 C1180 1.394 . S
C1178 H1194 0.931 . S
C1179 C1178 1.391 . S
C1179 C1183 1.376 . S
C1180 C1178 1.394 . S
C1180 C1181 1.369 . S
C1180 C1184 1.531 . S
C1181 C1180 1.369 . S
C1181 C1182 1.410 . S
C1181 C1189 1.503 . S
C1182 C1181 1.410 . S
C1182 C1183 1.392 . S
C1182 C1185 1.511 1_556 S
C1183 C1179 1.376 . S
C1183 C1182 1.392 . S
C1183 H1195 0.929 . S
C1184 C1180 1.531 . S
C1184 H1196 0.960 . S
C1184 H1197 0.962 . S
C1184 H1198 0.960 . S
C1185 C1182 1.511 1_554 S
C1185 H1199 0.961 . S
C1185 H1200 0.961 . S
C1185 H1201 0.961 . S
C1186 C1187 1.370 . S
C1186 C1188 1.363 . S
C1186 H1202 0.931 1_556 S
C1187 C1186 1.370 . S
C1187 C1191 1.408 . S
C1188 C1186 1.363 . S
C1188 C1189 1.370 . S
C1188 C1192 1.524 . S
C1189 C1181 1.503 . S
C1189 C1188 1.370 . S
C1189 C1190 1.403 . S
C1190 C1189 1.403 . S
C1190 C1191 1.404 . S
C1190 C1193 1.539 . S
C1191 C1187 1.408 . S
C1191 C1190 1.404 . S
C1191 H1203 0.930 . S
C1192 C1188 1.524 . S
C1192 H1204 0.956 . S
C1192 H1205 0.961 1_556 S
C1192 H1206 0.961 1_556 S
C1193 C1190 1.539 . S
C1193 H1207 0.958 . S
C1193 H1208 0.961 . S
C1193 H1209 0.960 . S
H1194 C1178 0.931 . S
H1195 C1183 0.929 . S
H1196 C1184 0.960 . S
H1197 C1184 0.962 . S
H1198 C1184 0.960 . S
H1199 C1185 0.961 . S
H1200 C1185 0.961 . S
H1201 C1185 0.961 . S
H1202 C1186 0.931 1_554 S
H1203 C1191 0.930 . S
H1204 C1192 0.956 . S
H1205 C1192 0.961 1_554 S
H1206 C1192 0.961 1_554 S
H1207 C1193 0.958 . S
H1208 C1193 0.961 . S
H1209 C1193 0.960 . S
C1210 C1211 1.391 . S
C1210 C1212 1.394 . S
C1210 H1226 0.931 . S
C1211 C1210 1.391 . S
C1211 C1215 1.376 . S
C1212 C1210 1.394 . S
C1212 C1213 1.369 . S
C1212 C1216 1.537 . S
C1213 C1212 1.369 . S
C1213 C1214 1.410 . S
C1213 C1221 1.503 . S
C1214 C1213 1.410 . S
C1214 C1215 1.392 . S
C1214 C1217 1.511 . S
C1215 C1211 1.376 . S
C1215 C1214 1.392 . S
C1215 H1227 0.929 . S
C1216 C1212 1.537 . S
C1216 H1228 0.951 1_556 S
C1216 H1229 0.972 . S
C1216 H1230 0.953 1_556 S
C1217 C1214 1.511 . S
C1217 H1231 0.961 . S
C1217 H1232 0.961 . S
C1217 H1233 0.961 . S
C1218 C1219 1.370 . S
C1218 C1220 1.363 . S
C1218 H1234 0.931 . S
C1219 C1218 1.370 . S
C1219 C1223 1.408 1_556 S
C1220 C1218 1.363 . S
C1220 C1221 1.370 . S
C1220 C1224 1.524 . S
C1221 C1213 1.503 . S
C1221 C1220 1.370 . S
C1221 C1222 1.403 1_556 S
C1222 C1221 1.403 1_554 S
C1222 C1223 1.404 . S
C1222 C1225 1.539 . S
C1223 C1219 1.408 1_554 S
C1223 C1222 1.404 . S
C1223 H1235 0.930 . S
C1224 C1220 1.524 . S
C1224 H1236 0.956 . S
C1224 H1237 0.961 . S
C1224 H1238 0.961 . S
C1225 C1222 1.539 . S
C1225 H1239 0.958 . S
C1225 H1240 0.961 . S
C1225 H1241 0.960 . S
H1226 C1210 0.931 . S
H1227 C1215 0.929 . S
H1228 C1216 0.951 1_554 S
H1229 C1216 0.972 . S
H1230 C1216 0.953 1_554 S
H1231 C1217 0.961 . S
H1232 C1217 0.961 . S
H1233 C1217 0.961 . S
H1234 C1218 0.931 . S
H1235 C1223 0.930 . S
H1236 C1224 0.956 . S
H1237 C1224 0.961 . S
H1238 C1224 0.961 . S
H1239 C1225 0.958 . S
H1240 C1225 0.961 . S
H1241 C1225 0.960 . S
C1242 C1243 1.391 . S
C1242 C1244 1.394 . S
C1242 H1258 0.931 . S
C1243 C1242 1.391 . S
C1243 C1247 1.376 . S
C1244 C1242 1.394 . S
C1244 C1245 1.369 . S
C1244 C1248 1.531 . S
C1245 C1244 1.369 . S
C1245 C1246 1.410 . S
C1245 C1253 1.503 . S
C1246 C1245 1.410 . S
C1246 C1247 1.392 . S
C1246 C1249 1.511 . S
C1247 C1243 1.376 . S
C1247 C1246 1.392 . S
C1247 H1259 0.929 . S
C1248 C1244 1.531 . S
C1248 H1260 0.960 . S
C1248 H1261 0.962 . S
C1248 H1262 0.960 . S
C1249 C1246 1.511 . S
C1249 H1263 0.947 1_554 S
C1249 H1264 0.961 . S
C1249 H1265 0.961 1_554 S
C1250 C1251 1.370 . S
C1250 C1252 1.363 . S
C1250 H1266 0.931 . S
C1251 C1250 1.370 . S
C1251 C1255 1.408 . S
C1252 C1250 1.363 . S
C1252 C1253 1.370 . S
C1252 C1256 1.524 . S
C1253 C1245 1.503 . S
C1253 C1252 1.370 . S
C1253 C1254 1.403 . S
C1254 C1253 1.403 . S
C1254 C1255 1.404 . S
C1254 C1257 1.539 . S
C1255 C1251 1.408 . S
C1255 C1254 1.404 . S
C1255 H1267 0.930 . S
C1256 C1252 1.524 . S
C1256 H1268 0.956 . S
C1256 H1269 0.961 . S
C1256 H1270 0.961 . S
C1257 C1254 1.539 . S
C1257 H1271 0.958 . S
C1257 H1272 0.961 . S
C1257 H1273 0.960 . S
H1258 C1242 0.931 . S
H1259 C1247 0.929 . S
H1260 C1248 0.960 . S
H1261 C1248 0.962 . S
H1262 C1248 0.960 . S
H1263 C1249 0.947 1_556 S
H1264 C1249 0.961 . S
H1265 C1249 0.961 1_556 S
H1266 C1250 0.931 . S
H1267 C1255 0.930 . S
H1268 C1256 0.956 . S
H1269 C1256 0.961 . S
H1270 C1256 0.961 . S
H1271 C1257 0.958 . S
H1272 C1257 0.961 . S
H1273 C1257 0.960 . S
C1274 C1275 1.391 . S
C1274 C1276 1.394 . S
C1274 H1290 0.931 . S
C1275 C1274 1.391 . S
C1275 C1279 1.376 . S
C1276 C1274 1.394 . S
C1276 C1277 1.369 . S
C1276 C1280 1.531 . S
C1277 C1276 1.369 . S
C1277 C1278 1.410 . S
C1277 C1285 1.503 . S
C1278 C1277 1.410 . S
C1278 C1279 1.392 . S
C1278 C1281 1.511 . S
C1279 C1275 1.376 . S
C1279 C1278 1.392 . S
C1279 H1291 0.929 . S
C1280 C1276 1.531 . S
C1280 H1292 0.960 . S
C1280 H1293 0.962 . S
C1280 H1294 0.960 . S
C1281 C1278 1.511 . S
C1281 H1295 0.961 . S
C1281 H1296 0.961 . S
C1281 H1297 0.961 . S
C1282 C1283 1.370 . S
C1282 C1284 1.363 . S
C1282 H1298 0.931 . S
C1283 C1282 1.370 . S
C1283 C1287 1.408 . S
C1284 C1282 1.363 . S
C1284 C1285 1.370 . S
C1284 C1288 1.524 . S
C1285 C1277 1.503 . S
C1285 C1284 1.370 . S
C1285 C1286 1.403 . S
C1286 C1285 1.403 . S
C1286 C1287 1.404 . S
C1286 C1289 1.539 . S
C1287 C1283 1.408 . S
C1287 C1286 1.404 . S
C1287 H1299 0.930 . S
C1288 C1284 1.524 . S
C1288 H1300 0.956 . S
C1288 H1301 0.961 . S
C1288 H1302 0.961 . S
C1289 C1286 1.539 . S
C1289 H1303 0.958 . S
C1289 H1304 0.961 . S
C1289 H1305 0.960 . S
H1290 C1274 0.931 . S
H1291 C1279 0.929 . S
H1292 C1280 0.960 . S
H1293 C1280 0.962 . S
H1294 C1280 0.960 . S
H1295 C1281 0.961 . S
H1296 C1281 0.961 . S
H1297 C1281 0.961 . S
H1298 C1282 0.931 . S
H1299 C1287 0.930 . S
H1300 C1288 0.956 . S
H1301 C1288 0.961 . S
H1302 C1288 0.961 . S
H1303 C1289 0.958 . S
H1304 C1289 0.961 . S
H1305 C1289 0.960 . S
C1306 C1307 1.391 . S
C1306 C1308 1.394 . S
C1306 H1322 0.931 . S
C1307 C1306 1.391 . S
C1307 C1311 1.376 . S
C1308 C1306 1.394 . S
C1308 C1309 1.369 . S
C1308 C1312 1.531 . S
C1309 C1308 1.369 . S
C1309 C1310 1.410 . S
C1309 C1317 1.503 . S
C1310 C1309 1.410 . S
C1310 C1311 1.392 . S
C1310 C1313 1.511 . S
C1311 C1307 1.376 . S
C1311 C1310 1.392 . S
C1311 H1323 0.929 . S
C1312 C1308 1.531 . S
C1312 H1324 0.960 . S
C1312 H1325 0.962 . S
C1312 H1326 0.960 . S
C1313 C1310 1.511 . S
C1313 H1327 0.961 . S
C1313 H1328 0.961 . S
C1313 H1329 0.961 . S
C1314 C1315 1.370 . S
C1314 C1316 1.363 . S
C1314 H1330 0.931 . S
C1315 C1314 1.370 . S
C1315 C1319 1.408 . S
C1316 C1314 1.363 . S
C1316 C1317 1.370 . S
C1316 C1320 1.524 . S
C1317 C1309 1.503 . S
C1317 C1316 1.370 . S
C1317 C1318 1.403 . S
C1318 C1317 1.403 . S
C1318 C1319 1.404 . S
C1318 C1321 1.576 . S
C1319 C1315 1.408 . S
C1319 C1318 1.404 . S
C1319 H1331 0.940 . S
C1320 C1316 1.524 . S
C1320 H1332 0.956 . S
C1320 H1333 0.961 . S
C1320 H1334 0.961 . S
C1321 C1318 1.576 . S
C1321 H1335 0.912 1_554 S
C1321 H1336 0.943 1_554 S
C1321 H1337 0.992 . S
H1322 C1306 0.931 . S
H1323 C1311 0.929 . S
H1324 C1312 0.960 . S
H1325 C1312 0.962 . S
H1326 C1312 0.960 . S
H1327 C1313 0.961 . S
H1328 C1313 0.961 . S
H1329 C1313 0.961 . S
H1330 C1314 0.931 . S
H1331 C1319 0.940 . S
H1332 C1320 0.956 . S
H1333 C1320 0.961 . S
H1334 C1320 0.961 . S
H1335 C1321 0.912 1_556 S
H1336 C1321 0.943 1_556 S
H1337 C1321 0.992 . S
C1338 C1339 1.391 . S
C1338 C1340 1.394 . S
C1338 H1354 0.931 . S
C1339 C1338 1.391 . S
C1339 C1343 1.376 . S
C1340 C1338 1.394 . S
C1340 C1341 1.369 . S
C1340 C1344 1.531 1_655 S
C1341 C1340 1.369 . S
C1341 C1342 1.410 . S
C1341 C1349 1.503 1_655 S
C1342 C1341 1.410 . S
C1342 C1343 1.392 . S
C1342 C1345 1.511 . S
C1343 C1339 1.376 . S
C1343 C1342 1.392 . S
C1343 H1355 0.929 . S
C1344 C1340 1.531 1_455 S
C1344 H1356 0.960 . S
C1344 H1357 0.962 . S
C1344 H1358 0.960 . S
C1345 C1342 1.511 . S
C1345 H1359 0.961 . S
C1345 H1360 0.961 . S
C1345 H1361 0.961 . S
C1346 C1347 1.370 . S
C1346 C1348 1.363 . S
C1346 H1362 0.931 . S
C1347 C1346 1.370 . S
C1347 C1351 1.408 . S
C1348 C1346 1.363 . S
C1348 C1349 1.370 . S
C1348 C1352 1.524 . S
C1349 C1341 1.503 1_455 S
C1349 C1348 1.370 . S
C1349 C1350 1.403 . S
C1350 C1349 1.403 . S
C1350 C1351 1.404 . S
C1350 C1353 1.539 . S
C1351 C1347 1.408 . S
C1351 C1350 1.404 . S
C1351 H1363 0.930 . S
C1352 C1348 1.524 . S
C1352 H1364 0.956 . S
C1352 H1365 0.961 . S
C1352 H1366 0.961 . S
C1353 C1350 1.539 . S
C1353 H1367 0.958 . S
C1353 H1368 0.961 . S
C1353 H1369 0.960 1_455 S
H1354 C1338 0.931 . S
H1355 C1343 0.929 . S
H1356 C1344 0.960 . S
H1357 C1344 0.962 . S
H1358 C1344 0.960 . S
H1359 C1345 0.961 . S
H1360 C1345 0.961 . S
H1361 C1345 0.961 . S
H1362 C1346 0.931 . S
H1363 C1351 0.930 . S
H1364 C1352 0.956 . S
H1365 C1352 0.961 . S
H1366 C1352 0.961 . S
H1367 C1353 0.958 . S
H1368 C1353 0.961 . S
H1369 C1353 0.960 1_655 S
C1370 C1371 1.391 . S
C1370 C1372 1.394 . S
C1370 H1386 0.931 . S
C1371 C1370 1.391 . S
C1371 C1375 1.376 . S
C1372 C1370 1.394 . S
C1372 C1373 1.369 . S
C1372 C1376 1.531 . S
C1373 C1372 1.369 . S
C1373 C1374 1.410 . S
C1373 C1381 1.503 . S
C1374 C1373 1.410 . S
C1374 C1375 1.392 . S
C1374 C1377 1.511 . S
C1375 C1371 1.376 . S
C1375 C1374 1.392 . S
C1375 H1387 0.929 . S
C1376 C1372 1.531 . S
C1376 H1388 0.960 . S
C1376 H1389 0.962 . S
C1376 H1390 0.960 . S
C1377 C1374 1.511 . S
C1377 H1391 0.961 . S
C1377 H1392 0.961 . S
C1377 H1393 0.961 . S
C1378 C1379 1.370 . S
C1378 C1380 1.363 . S
C1378 H1394 0.931 . S
C1379 C1378 1.370 . S
C1379 C1383 1.408 . S
C1380 C1378 1.363 . S
C1380 C1381 1.370 . S
C1380 C1384 1.524 . S
C1381 C1373 1.503 . S
C1381 C1380 1.370 . S
C1381 C1382 1.403 . S
C1382 C1381 1.403 . S
C1382 C1383 1.404 . S
C1382 C1385 1.539 . S
C1383 C1379 1.408 . S
C1383 C1382 1.404 . S
C1383 H1395 0.930 . S
C1384 C1380 1.524 . S
C1384 H1396 0.956 . S
C1384 H1397 0.961 . S
C1384 H1398 0.961 . S
C1385 C1382 1.539 . S
C1385 H1399 0.958 . S
C1385 H1400 0.961 . S
C1385 H1401 0.960 . S
H1386 C1370 0.931 . S
H1387 C1375 0.929 . S
H1388 C1376 0.960 . S
H1389 C1376 0.962 . S
H1390 C1376 0.960 . S
H1391 C1377 0.961 . S
H1392 C1377 0.961 . S
H1393 C1377 0.961 . S
H1394 C1378 0.931 . S
H1395 C1383 0.930 . S
H1396 C1384 0.956 . S
H1397 C1384 0.961 . S
H1398 C1384 0.961 . S
H1399 C1385 0.958 . S
H1400 C1385 0.961 . S
H1401 C1385 0.960 . S
C1402 C1403 1.391 . S
C1402 C1404 1.394 . S
C1402 H1418 0.931 . S
C1403 C1402 1.391 . S
C1403 C1407 1.376 . S
C1404 C1402 1.394 . S
C1404 C1405 1.369 . S
C1404 C1408 1.531 . S
C1405 C1404 1.369 . S
C1405 C1406 1.410 . S
C1405 C1413 1.503 1_545 S
C1406 C1405 1.410 . S
C1406 C1407 1.392 . S
C1406 C1409 1.511 . S
C1407 C1403 1.376 . S
C1407 C1406 1.392 . S
C1407 H1419 0.929 . S
C1408 C1404 1.531 . S
C1408 H1420 0.960 . S
C1408 H1421 0.962 . S
C1408 H1422 0.960 . S
C1409 C1406 1.511 . S
C1409 H1423 0.961 . S
C1409 H1424 0.961 1_545 S
C1409 H1425 0.961 . S
C1410 C1411 1.370 . S
C1410 C1412 1.363 . S
C1410 H1426 0.931 . S
C1411 C1410 1.370 . S
C1411 C1415 1.408 . S
C1412 C1410 1.363 . S
C1412 C1413 1.370 . S
C1412 C1416 1.524 . S
C1413 C1405 1.503 1_565 S
C1413 C1412 1.370 . S
C1413 C1414 1.403 . S
C1414 C1413 1.403 . S
C1414 C1415 1.404 . S
C1414 C1417 1.539 1_565 S
C1415 C1411 1.408 . S
C1415 C1414 1.404 . S
C1415 H1427 0.930 . S
C1416 C1412 1.524 . S
C1416 H1428 0.956 . S
C1416 H1429 0.961 . S
C1416 H1430 0.961 . S
C1417 C1414 1.539 1_545 S
C1417 H1431 0.958 . S
C1417 H1432 0.961 . S
C1417 H1433 0.960 . S
H1418 C1402 0.931 . S
H1419 C1407 0.929 . S
H1420 C1408 0.960 . S
H1421 C1408 0.962 . S
H1422 C1408 0.960 . S
H1423 C1409 0.961 . S
H1424 C1409 0.961 1_565 S
H1425 C1409 0.961 . S
H1426 C1410 0.931 . S
H1427 C1415 0.930 . S
H1428 C1416 0.956 . S
H1429 C1416 0.961 . S
H1430 C1416 0.961 . S
H1431 C1417 0.958 . S
H1432 C1417 0.961 . S
H1433 C1417 0.960 . S
C1434 C1435 1.391 . S
C1434 C1436 1.394 . S
C1434 H1450 0.931 . S
C1435 C1434 1.391 . S
C1435 C1439 1.376 . S
C1436 C1434 1.394 . S
C1436 C1437 1.369 . S
C1436 C1440 1.531 . S
C1437 C1436 1.369 . S
C1437 C1438 1.410 . S
C1437 C1445 1.503 . S
C1438 C1437 1.410 . S
C1438 C1439 1.392 . S
C1438 C1441 1.511 . S
C1439 C1435 1.376 . S
C1439 C1438 1.392 . S
C1439 H1451 0.929 . S
C1440 C1436 1.531 . S
C1440 H1452 0.960 . S
C1440 H1453 0.962 . S
C1440 H1454 0.960 . S
C1441 C1438 1.511 . S
C1441 H1455 0.961 . S
C1441 H1456 0.961 . S
C1441 H1457 0.961 . S
C1442 C1443 1.370 . S
C1442 C1444 1.363 . S
C1442 H1458 0.931 . S
C1443 C1442 1.370 . S
C1443 C1447 1.408 . S
C1444 C1442 1.363 . S
C1444 C1445 1.370 . S
C1444 C1448 1.524 . S
C1445 C1437 1.503 . S
C1445 C1444 1.370 . S
C1445 C1446 1.403 . S
C1446 C1445 1.403 . S
C1446 C1447 1.404 . S
C1446 C1449 1.539 . S
C1447 C1443 1.408 . S
C1447 C1446 1.404 . S
C1447 H1459 0.930 . S
C1448 C1444 1.524 . S
C1448 H1460 0.956 . S
C1448 H1461 0.961 . S
C1448 H1462 0.961 . S
C1449 C1446 1.539 . S
C1449 H1463 0.958 . S
C1449 H1464 0.961 . S
C1449 H1465 0.960 . S
H1450 C1434 0.931 . S
H1451 C1439 0.929 . S
H1452 C1440 0.960 . S
H1453 C1440 0.962 . S
H1454 C1440 0.960 . S
H1455 C1441 0.961 . S
H1456 C1441 0.961 . S
H1457 C1441 0.961 . S
H1458 C1442 0.931 . S
H1459 C1447 0.930 . S
H1460 C1448 0.956 . S
H1461 C1448 0.961 . S
H1462 C1448 0.961 . S
H1463 C1449 0.958 . S
H1464 C1449 0.961 . S
H1465 C1449 0.960 . S
C1466 C1467 1.391 . S
C1466 C1468 1.394 . S
C1466 H1482 0.931 . S
C1467 C1466 1.391 . S
C1467 C1471 1.376 . S
C1468 C1466 1.394 . S
C1468 C1469 1.369 . S
C1468 C1472 1.531 . S
C1469 C1468 1.369 . S
C1469 C1470 1.410 . S
C1469 C1477 1.503 . S
C1470 C1469 1.410 . S
C1470 C1471 1.392 . S
C1470 C1473 1.511 . S
C1471 C1467 1.376 . S
C1471 C1470 1.392 . S
C1471 H1483 0.929 . S
C1472 C1468 1.531 . S
C1472 H1484 0.960 . S
C1472 H1485 0.962 . S
C1472 H1486 0.960 . S
C1473 C1470 1.511 . S
C1473 H1487 0.961 . S
C1473 H1488 0.961 . S
C1473 H1489 0.961 . S
C1474 C1475 1.370 . S
C1474 C1476 1.363 . S
C1474 H1490 0.931 . S
C1475 C1474 1.370 . S
C1475 C1479 1.408 . S
C1476 C1474 1.363 . S
C1476 C1477 1.370 . S
C1476 C1480 1.524 . S
C1477 C1469 1.503 . S
C1477 C1476 1.370 . S
C1477 C1478 1.403 . S
C1478 C1477 1.403 . S
C1478 C1479 1.404 . S
C1478 C1481 1.539 . S
C1479 C1475 1.408 . S
C1479 C1478 1.404 . S
C1479 H1491 0.930 . S
C1480 C1476 1.524 . S
C1480 H1492 0.956 . S
C1480 H1493 0.961 . S
C1480 H1494 0.961 . S
C1481 C1478 1.539 . S
C1481 H1495 0.958 . S
C1481 H1496 0.961 . S
C1481 H1497 0.960 . S
H1482 C1466 0.931 . S
H1483 C1471 0.929 . S
H1484 C1472 0.960 . S
H1485 C1472 0.962 . S
H1486 C1472 0.960 . S
H1487 C1473 0.961 . S
H1488 C1473 0.961 . S
H1489 C1473 0.961 . S
H1490 C1474 0.931 . S
H1491 C1479 0.930 . S
H1492 C1480 0.956 . S
H1493 C1480 0.961 . S
H1494 C1480 0.961 . S
H1495 C1481 0.958 . S
H1496 C1481 0.961 . S
H1497 C1481 0.960 . S
C1498 C1499 1.391 . S
C1498 C1500 1.394 . S
C1498 H1514 0.931 . S
C1499 C1498 1.391 . S
C1499 C1503 1.376 . S
C1500 C1498 1.394 . S
C1500 C1501 1.369 . S
C1500 C1504 1.531 . S
C1501 C1500 1.369 . S
C1501 C1502 1.410 . S
C1501 C1509 1.503 . S
C1502 C1501 1.410 . S
C1502 C1503 1.392 . S
C1502 C1505 1.511 . S
C1503 C1499 1.376 . S
C1503 C1502 1.392 . S
C1503 H1515 0.929 . S
C1504 C1500 1.531 . S
C1504 H1516 0.960 . S
C1504 H1517 0.962 . S
C1504 H1518 0.960 . S
C1505 C1502 1.511 . S
C1505 H1519 0.961 . S
C1505 H1520 0.961 . S
C1505 H1521 0.961 . S
C1506 C1507 1.370 . S
C1506 C1508 1.363 . S
C1506 H1522 0.931 . S
C1507 C1506 1.370 . S
C1507 C1511 1.408 . S
C1508 C1506 1.363 . S
C1508 C1509 1.370 . S
C1508 C1512 1.524 . S
C1509 C1501 1.503 . S
C1509 C1508 1.370 . S
C1509 C1510 1.403 . S
C1510 C1509 1.403 . S
C1510 C1511 1.404 . S
C1510 C1513 1.539 . S
C1511 C1507 1.408 . S
C1511 C1510 1.404 . S
C1511 H1523 0.930 . S
C1512 C1508 1.524 . S
C1512 H1524 0.956 . S
C1512 H1525 0.961 . S
C1512 H1526 0.961 . S
C1513 C1510 1.539 . S
C1513 H1527 0.958 . S
C1513 H1528 0.961 . S
C1513 H1529 0.960 . S
H1514 C1498 0.931 . S
H1515 C1503 0.929 . S
H1516 C1504 0.960 . S
H1517 C1504 0.962 . S
H1518 C1504 0.960 . S
H1519 C1505 0.961 . S
H1520 C1505 0.961 . S
H1521 C1505 0.961 . S
H1522 C1506 0.931 . S
H1523 C1511 0.930 . S
H1524 C1512 0.956 . S
H1525 C1512 0.961 . S
H1526 C1512 0.961 . S
H1527 C1513 0.958 . S
H1528 C1513 0.961 . S
H1529 C1513 0.960 . S
C1530 C1531 1.391 . S
C1530 C1532 1.394 . S
C1530 H1546 0.931 . S
C1531 C1530 1.391 . S
C1531 C1535 1.376 . S
C1532 C1530 1.394 . S
C1532 C1533 1.369 . S
C1532 C1536 1.531 . S
C1533 C1532 1.369 . S
C1533 C1534 1.410 . S
C1533 C1541 1.503 . S
C1534 C1533 1.410 . S
C1534 C1535 1.392 . S
C1534 C1537 1.511 . S
C1535 C1531 1.376 . S
C1535 C1534 1.392 . S
C1535 H1547 0.929 . S
C1536 C1532 1.531 . S
C1536 H1548 0.960 . S
C1536 H1549 0.962 . S
C1536 H1550 0.960 . S
C1537 C1534 1.511 . S
C1537 H1551 0.961 . S
C1537 H1552 0.961 . S
C1537 H1553 0.961 . S
C1538 C1539 1.370 . S
C1538 C1540 1.363 . S
C1538 H1554 0.931 . S
C1539 C1538 1.370 . S
C1539 C1543 1.408 . S
C1540 C1538 1.363 . S
C1540 C1541 1.370 . S
C1540 C1544 1.524 . S
C1541 C1533 1.503 . S
C1541 C1540 1.370 . S
C1541 C1542 1.403 . S
C1542 C1541 1.403 . S
C1542 C1543 1.404 . S
C1542 C1545 1.539 . S
C1543 C1539 1.408 . S
C1543 C1542 1.404 . S
C1543 H1555 0.930 . S
C1544 C1540 1.524 . S
C1544 H1556 0.956 . S
C1544 H1557 0.961 . S
C1544 H1558 0.961 . S
C1545 C1542 1.539 . S
C1545 H1559 0.958 . S
C1545 H1560 0.961 . S
C1545 H1561 0.960 . S
H1546 C1530 0.931 . S
H1547 C1535 0.929 . S
H1548 C1536 0.960 . S
H1549 C1536 0.962 . S
H1550 C1536 0.960 . S
H1551 C1537 0.961 . S
H1552 C1537 0.961 . S
H1553 C1537 0.961 . S
H1554 C1538 0.931 . S
H1555 C1543 0.930 . S
H1556 C1544 0.956 . S
H1557 C1544 0.961 . S
H1558 C1544 0.961 . S
H1559 C1545 0.958 . S
H1560 C1545 0.961 . S
H1561 C1545 0.960 . S
C1562 C1563 1.391 . S
C1562 C1564 1.394 . S
C1562 H1578 0.931 . S
C1563 C1562 1.391 . S
C1563 C1567 1.376 . S
C1564 C1562 1.394 . S
C1564 C1565 1.369 . S
C1564 C1568 1.531 . S
C1565 C1564 1.369 . S
C1565 C1566 1.410 . S
C1565 C1573 1.503 . S
C1566 C1565 1.410 . S
C1566 C1567 1.392 . S
C1566 C1569 1.511 . S
C1567 C1563 1.376 . S
C1567 C1566 1.392 . S
C1567 H1579 0.929 . S
C1568 C1564 1.531 . S
C1568 H1580 0.960 . S
C1568 H1581 0.962 . S
C1568 H1582 0.960 . S
C1569 C1566 1.511 . S
C1569 H1583 0.961 . S
C1569 H1584 0.961 . S
C1569 H1585 0.961 . S
C1570 C1571 1.370 . S
C1570 C1572 1.363 . S
C1570 H1586 0.931 . S
C1571 C1570 1.370 . S
C1571 C1575 1.408 . S
C1572 C1570 1.363 . S
C1572 C1573 1.370 . S
C1572 C1576 1.524 . S
C1573 C1565 1.503 . S
C1573 C1572 1.370 . S
C1573 C1574 1.403 . S
C1574 C1573 1.403 . S
C1574 C1575 1.404 . S
C1574 C1577 1.539 . S
C1575 C1571 1.408 . S
C1575 C1574 1.404 . S
C1575 H1587 0.930 . S
C1576 C1572 1.524 . S
C1576 H1588 0.956 . S
C1576 H1589 0.961 . S
C1576 H1590 0.961 . S
C1577 C1574 1.539 . S
C1577 H1591 0.958 . S
C1577 H1592 0.961 . S
C1577 H1593 0.960 . S
H1578 C1562 0.931 . S
H1579 C1567 0.929 . S
H1580 C1568 0.960 . S
H1581 C1568 0.962 . S
H1582 C1568 0.960 . S
H1583 C1569 0.961 . S
H1584 C1569 0.961 . S
H1585 C1569 0.961 . S
H1586 C1570 0.931 . S
H1587 C1575 0.930 . S
H1588 C1576 0.956 . S
H1589 C1576 0.961 . S
H1590 C1576 0.961 . S
H1591 C1577 0.958 . S
H1592 C1577 0.961 . S
H1593 C1577 0.960 . S
C1594 C1595 1.391 . S
C1594 C1596 1.394 . S
C1594 H1610 0.931 . S
C1595 C1594 1.391 . S
C1595 C1599 1.376 . S
C1596 C1594 1.394 . S
C1596 C1597 1.369 . S
C1596 C1600 1.531 . S
C1597 C1596 1.369 . S
C1597 C1598 1.410 . S
C1597 C1605 1.503 . S
C1598 C1597 1.410 . S
C1598 C1599 1.392 . S
C1598 C1601 1.511 . S
C1599 C1595 1.376 . S
C1599 C1598 1.392 . S
C1599 H1611 0.929 . S
C1600 C1596 1.531 . S
C1600 H1612 0.960 . S
C1600 H1613 0.962 . S
C1600 H1614 0.960 . S
C1601 C1598 1.511 . S
C1601 H1615 0.961 . S
C1601 H1616 0.961 . S
C1601 H1617 0.961 . S
C1602 C1603 1.370 . S
C1602 C1604 1.363 . S
C1602 H1618 0.931 . S
C1603 C1602 1.370 . S
C1603 C1607 1.408 . S
C1604 C1602 1.363 . S
C1604 C1605 1.370 . S
C1604 C1608 1.524 . S
C1605 C1597 1.503 . S
C1605 C1604 1.370 . S
C1605 C1606 1.403 . S
C1606 C1605 1.403 . S
C1606 C1607 1.404 . S
C1606 C1609 1.539 . S
C1607 C1603 1.408 . S
C1607 C1606 1.404 . S
C1607 H1619 0.930 . S
C1608 C1604 1.524 . S
C1608 H1620 0.956 . S
C1608 H1621 0.961 . S
C1608 H1622 0.961 . S
C1609 C1606 1.539 . S
C1609 H1623 0.958 . S
C1609 H1624 0.961 . S
C1609 H1625 0.960 . S
H1610 C1594 0.931 . S
H1611 C1599 0.929 . S
H1612 C1600 0.960 . S
H1613 C1600 0.962 . S
H1614 C1600 0.960 . S
H1615 C1601 0.961 . S
H1616 C1601 0.961 . S
H1617 C1601 0.961 . S
H1618 C1602 0.931 . S
H1619 C1607 0.930 . S
H1620 C1608 0.956 . S
H1621 C1608 0.961 . S
H1622 C1608 0.961 . S
H1623 C1609 0.958 . S
H1624 C1609 0.961 . S
H1625 C1609 0.960 . S
C1626 C1627 1.400 . S
C1626 C1628 1.387 1_545 S
C1626 H1642 0.929 . S
C1627 C1626 1.400 . S
C1627 C1631 1.376 . S
C1628 C1626 1.387 1_565 S
C1628 C1629 1.369 . S
C1628 C1632 1.531 . S
C1629 C1628 1.369 . S
C1629 C1630 1.410 . S
C1629 C1637 1.503 . S
C1630 C1629 1.410 . S
C1630 C1631 1.392 1_565 S
C1630 C1633 1.511 . S
C1631 C1627 1.376 . S
C1631 C1630 1.392 1_545 S
C1631 H1643 0.929 . S
C1632 C1628 1.531 . S
C1632 H1644 0.960 . S
C1632 H1645 0.962 . S
C1632 H1646 0.960 . S
C1633 C1630 1.511 . S
C1633 H1647 0.961 . S
C1633 H1648 0.961 . S
C1633 H1649 0.961 . S
C1634 C1635 1.370 . S
C1634 C1636 1.363 . S
C1634 H1650 0.931 . S
C1635 C1634 1.370 . S
C1635 C1639 1.408 . S
C1636 C1634 1.363 . S
C1636 C1637 1.370 . S
C1636 C1640 1.524 . S
C1637 C1629 1.503 . S
C1637 C1636 1.370 . S
C1637 C1638 1.403 . S
C1638 C1637 1.403 . S
C1638 C1639 1.404 . S
C1638 C1641 1.539 . S
C1639 C1635 1.408 . S
C1639 C1638 1.404 . S
C1639 H1651 0.930 . S
C1640 C1636 1.524 . S
C1640 H1652 0.956 . S
C1640 H1653 0.961 . S
C1640 H1654 0.961 . S
C1641 C1638 1.539 . S
C1641 H1655 0.958 . S
C1641 H1656 0.961 . S
C1641 H1657 0.960 . S
H1642 C1626 0.929 . S
H1643 C1631 0.929 . S
H1644 C1632 0.960 . S
H1645 C1632 0.962 . S
H1646 C1632 0.960 . S
H1647 C1633 0.961 . S
H1648 C1633 0.961 . S
H1649 C1633 0.961 . S
H1650 C1634 0.931 . S
H1651 C1639 0.930 . S
H1652 C1640 0.956 . S
H1653 C1640 0.961 . S
H1654 C1640 0.961 . S
H1655 C1641 0.958 . S
H1656 C1641 0.961 . S
H1657 C1641 0.960 . S
C1658 C1659 1.391 1_455 S
C1658 C1660 1.394 . S
C1658 H1674 0.931 . S
C1659 C1658 1.391 1_655 S
C1659 C1663 1.379 1_655 S
C1660 C1658 1.394 . S
C1660 C1661 1.369 . S
C1660 C1664 1.531 . S
C1661 C1660 1.369 . S
C1661 C1662 1.410 . S
C1661 C1669 1.503 . S
C1662 C1661 1.410 . S
C1662 C1663 1.388 . S
C1662 C1665 1.511 . S
C1663 C1659 1.379 1_455 S
C1663 C1662 1.388 . S
C1663 H1675 0.930 1_455 S
C1664 C1660 1.531 . S
C1664 H1676 0.960 . S
C1664 H1677 0.962 . S
C1664 H1678 0.960 . S
C1665 C1662 1.511 . S
C1665 H1679 0.961 . S
C1665 H1680 0.961 . S
C1665 H1681 0.961 . S
C1666 C1667 1.370 . S
C1666 C1668 1.363 . S
C1666 H1682 0.931 . S
C1667 C1666 1.370 . S
C1667 C1671 1.408 . S
C1668 C1666 1.363 . S
C1668 C1669 1.370 . S
C1668 C1672 1.524 . S
C1669 C1661 1.503 . S
C1669 C1668 1.370 . S
C1669 C1670 1.403 . S
C1670 C1669 1.403 . S
C1670 C1671 1.404 . S
C1670 C1673 1.539 . S
C1671 C1667 1.408 . S
C1671 C1670 1.404 . S
C1671 H1683 0.930 . S
C1672 C1668 1.524 . S
C1672 H1684 0.956 . S
C1672 H1685 0.961 . S
C1672 H1686 0.961 . S
C1673 C1670 1.539 . S
C1673 H1687 0.958 . S
C1673 H1688 0.961 . S
C1673 H1689 0.960 . S
H1674 C1658 0.931 . S
H1675 C1663 0.930 1_655 S
H1676 C1664 0.960 . S
H1677 C1664 0.962 . S
H1678 C1664 0.960 . S
H1679 C1665 0.961 . S
H1680 C1665 0.961 . S
H1681 C1665 0.961 . S
H1682 C1666 0.931 . S
H1683 C1671 0.930 . S
H1684 C1672 0.956 . S
H1685 C1672 0.961 . S
H1686 C1672 0.961 . S
H1687 C1673 0.958 . S
H1688 C1673 0.961 . S
H1689 C1673 0.960 . S
C1690 C1691 1.391 . S
C1690 C1692 1.394 . S
C1690 H1706 0.931 . S
C1691 C1690 1.391 . S
C1691 C1695 1.376 . S
C1692 C1690 1.394 . S
C1692 C1693 1.369 . S
C1692 C1696 1.531 . S
C1693 C1692 1.369 . S
C1693 C1694 1.410 . S
C1693 C1701 1.503 . S
C1694 C1693 1.410 . S
C1694 C1695 1.392 . S
C1694 C1697 1.511 . S
C1695 C1691 1.376 . S
C1695 C1694 1.392 . S
C1695 H1707 0.929 . S
C1696 C1692 1.531 . S
C1696 H1708 0.960 . S
C1696 H1709 0.962 . S
C1696 H1710 0.960 . S
C1697 C1694 1.511 . S
C1697 H1711 0.961 . S
C1697 H1712 0.961 . S
C1697 H1713 0.961 . S
C1698 C1699 1.370 . S
C1698 C1700 1.363 . S
C1698 H1714 0.931 . S
C1699 C1698 1.370 . S
C1699 C1703 1.408 . S
C1700 C1698 1.363 . S
C1700 C1701 1.370 . S
C1700 C1704 1.524 . S
C1701 C1693 1.503 . S
C1701 C1700 1.370 . S
C1701 C1702 1.403 . S
C1702 C1701 1.403 . S
C1702 C1703 1.404 . S
C1702 C1705 1.539 . S
C1703 C1699 1.408 . S
C1703 C1702 1.404 . S
C1703 H1715 0.930 . S
C1704 C1700 1.524 . S
C1704 H1716 0.956 . S
C1704 H1717 0.961 . S
C1704 H1718 0.961 . S
C1705 C1702 1.539 . S
C1705 H1719 0.958 . S
C1705 H1720 0.961 . S
C1705 H1721 0.960 . S
H1706 C1690 0.931 . S
H1707 C1695 0.929 . S
H1708 C1696 0.960 . S
H1709 C1696 0.962 . S
H1710 C1696 0.960 . S
H1711 C1697 0.961 . S
H1712 C1697 0.961 . S
H1713 C1697 0.961 . S
H1714 C1698 0.931 . S
H1715 C1703 0.930 . S
H1716 C1704 0.956 . S
H1717 C1704 0.961 . S
H1718 C1704 0.961 . S
H1719 C1705 0.958 . S
H1720 C1705 0.961 . S
H1721 C1705 0.960 . S
C1722 C1723 1.391 . S
C1722 C1724 1.394 . S
C1722 H1738 0.931 . S
C1723 C1722 1.391 . S
C1723 C1727 1.376 . S
C1724 C1722 1.394 . S
C1724 C1725 1.369 . S
C1724 C1728 1.531 . S
C1725 C1724 1.369 . S
C1725 C1726 1.410 . S
C1725 C1733 1.503 . S
C1726 C1725 1.410 . S
C1726 C1727 1.392 . S
C1726 C1729 1.511 . S
C1727 C1723 1.376 . S
C1727 C1726 1.392 . S
C1727 H1739 0.929 . S
C1728 C1724 1.531 . S
C1728 H1740 0.960 . S
C1728 H1741 0.962 . S
C1728 H1742 0.960 . S
C1729 C1726 1.511 . S
C1729 H1743 0.961 . S
C1729 H1744 0.961 . S
C1729 H1745 0.961 . S
C1730 C1731 1.370 . S
C1730 C1732 1.363 . S
C1730 H1746 0.931 . S
C1731 C1730 1.370 . S
C1731 C1735 1.408 . S
C1732 C1730 1.363 . S
C1732 C1733 1.370 . S
C1732 C1736 1.524 . S
C1733 C1725 1.503 . S
C1733 C1732 1.370 . S
C1733 C1734 1.403 . S
C1734 C1733 1.403 . S
C1734 C1735 1.404 . S
C1734 C1737 1.539 . S
C1735 C1731 1.408 . S
C1735 C1734 1.404 . S
C1735 H1747 0.930 . S
C1736 C1732 1.524 . S
C1736 H1748 0.956 . S
C1736 H1749 0.961 . S
C1736 H1750 0.961 . S
C1737 C1734 1.539 . S
C1737 H1751 0.958 . S
C1737 H1752 0.961 . S
C1737 H1753 0.960 . S
H1738 C1722 0.931 . S
H1739 C1727 0.929 . S
H1740 C1728 0.960 . S
H1741 C1728 0.962 . S
H1742 C1728 0.960 . S
H1743 C1729 0.961 . S
H1744 C1729 0.961 . S
H1745 C1729 0.961 . S
H1746 C1730 0.931 . S
H1747 C1735 0.930 . S
H1748 C1736 0.956 . S
H1749 C1736 0.961 . S
H1750 C1736 0.961 . S
H1751 C1737 0.958 . S
H1752 C1737 0.961 . S
H1753 C1737 0.960 . S
C1754 C1755 1.391 . S
C1754 C1756 1.394 . S
C1754 H1770 0.931 . S
C1755 C1754 1.391 . S
C1755 C1759 1.376 . S
C1756 C1754 1.394 . S
C1756 C1757 1.369 . S
C1756 C1760 1.531 . S
C1757 C1756 1.369 . S
C1757 C1758 1.410 . S
C1757 C1765 1.503 . S
C1758 C1757 1.410 . S
C1758 C1759 1.392 . S
C1758 C1761 1.511 . S
C1759 C1755 1.376 . S
C1759 C1758 1.392 . S
C1759 H1771 0.929 . S
C1760 C1756 1.531 . S
C1760 H1772 0.960 . S
C1760 H1773 0.962 . S
C1760 H1774 0.960 . S
C1761 C1758 1.511 . S
C1761 H1775 0.961 . S
C1761 H1776 0.961 . S
C1761 H1777 0.961 . S
C1762 C1763 1.370 . S
C1762 C1764 1.363 . S
C1762 H1778 0.931 . S
C1763 C1762 1.370 . S
C1763 C1767 1.408 . S
C1764 C1762 1.363 . S
C1764 C1765 1.370 . S
C1764 C1768 1.524 . S
C1765 C1757 1.503 . S
C1765 C1764 1.370 . S
C1765 C1766 1.403 . S
C1766 C1765 1.403 . S
C1766 C1767 1.404 . S
C1766 C1769 1.539 . S
C1767 C1763 1.408 . S
C1767 C1766 1.404 . S
C1767 H1779 0.930 . S
C1768 C1764 1.524 . S
C1768 H1780 0.956 . S
C1768 H1781 0.961 . S
C1768 H1782 0.961 . S
C1769 C1766 1.539 . S
C1769 H1783 0.958 . S
C1769 H1784 0.961 . S
C1769 H1785 0.960 . S
H1770 C1754 0.931 . S
H1771 C1759 0.929 . S
H1772 C1760 0.960 . S
H1773 C1760 0.962 . S
H1774 C1760 0.960 . S
H1775 C1761 0.961 . S
H1776 C1761 0.961 . S
H1777 C1761 0.961 . S
H1778 C1762 0.931 . S
H1779 C1767 0.930 . S
H1780 C1768 0.956 . S
H1781 C1768 0.961 . S
H1782 C1768 0.961 . S
H1783 C1769 0.958 . S
H1784 C1769 0.961 . S
H1785 C1769 0.960 . S
C1786 C1787 1.391 . S
C1786 C1788 1.394 . S
C1786 H1802 0.931 . S
C1787 C1786 1.391 . S
C1787 C1791 1.376 . S
C1788 C1786 1.394 . S
C1788 C1789 1.369 . S
C1788 C1792 1.531 . S
C1789 C1788 1.369 . S
C1789 C1790 1.410 . S
C1789 C1797 1.503 . S
C1790 C1789 1.410 . S
C1790 C1791 1.392 . S
C1790 C1793 1.511 . S
C1791 C1787 1.376 . S
C1791 C1790 1.392 . S
C1791 H1803 0.929 . S
C1792 C1788 1.531 . S
C1792 H1804 0.960 . S
C1792 H1805 0.962 . S
C1792 H1806 0.960 . S
C1793 C1790 1.511 . S
C1793 H1807 0.961 . S
C1793 H1808 0.961 . S
C1793 H1809 0.961 . S
C1794 C1795 1.370 . S
C1794 C1796 1.363 . S
C1794 H1810 0.931 . S
C1795 C1794 1.370 . S
C1795 C1799 1.408 . S
C1796 C1794 1.363 . S
C1796 C1797 1.370 . S
C1796 C1800 1.524 . S
C1797 C1789 1.503 . S
C1797 C1796 1.370 . S
C1797 C1798 1.403 . S
C1798 C1797 1.403 . S
C1798 C1799 1.404 . S
C1798 C1801 1.539 . S
C1799 C1795 1.408 . S
C1799 C1798 1.404 . S
C1799 H1811 0.930 . S
C1800 C1796 1.524 . S
C1800 H1812 0.956 . S
C1800 H1813 0.961 . S
C1800 H1814 0.961 . S
C1801 C1798 1.539 . S
C1801 H1815 0.958 . S
C1801 H1816 0.961 . S
C1801 H1817 0.960 . S
H1802 C1786 0.931 . S
H1803 C1791 0.929 . S
H1804 C1792 0.960 . S
H1805 C1792 0.962 . S
H1806 C1792 0.960 . S
H1807 C1793 0.961 . S
H1808 C1793 0.961 . S
H1809 C1793 0.961 . S
H1810 C1794 0.931 . S
H1811 C1799 0.930 . S
H1812 C1800 0.956 . S
H1813 C1800 0.961 . S
H1814 C1800 0.961 . S
H1815 C1801 0.958 . S
H1816 C1801 0.961 . S
H1817 C1801 0.960 . S
C1818 C1819 1.391 . S
C1818 C1820 1.394 . S
C1818 H1834 0.931 . S
C1819 C1818 1.391 . S
C1819 C1823 1.376 . S
C1820 C1818 1.394 . S
C1820 C1821 1.369 . S
C1820 C1824 1.531 1_565 S
C1821 C1820 1.369 . S
C1821 C1822 1.410 . S
C1821 C1829 1.503 1_565 S
C1822 C1821 1.410 . S
C1822 C1823 1.392 . S
C1822 C1825 1.511 . S
C1823 C1819 1.376 . S
C1823 C1822 1.392 . S
C1823 H1835 0.929 . S
C1824 C1820 1.531 1_545 S
C1824 H1836 0.960 . S
C1824 H1837 0.962 . S
C1824 H1838 0.960 . S
C1825 C1822 1.511 . S
C1825 H1839 0.961 . S
C1825 H1840 0.961 . S
C1825 H1841 0.961 . S
C1826 C1827 1.370 . S
C1826 C1828 1.363 . S
C1826 H1842 0.931 . S
C1827 C1826 1.370 . S
C1827 C1831 1.408 . S
C1828 C1826 1.363 . S
C1828 C1829 1.370 . S
C1828 C1832 1.524 . S
C1829 C1821 1.503 1_545 S
C1829 C1828 1.370 . S
C1829 C1830 1.403 . S
C1830 C1829 1.403 . S
C1830 C1831 1.404 . S
C1830 C1833 1.539 . S
C1831 C1827 1.408 . S
C1831 C1830 1.404 . S
C1831 H1843 0.930 . S
C1832 C1828 1.524 . S
C1832 H1844 0.956 . S
C1832 H1845 0.961 1_545 S
C1832 H1846 0.961 . S
C1833 C1830 1.539 . S
C1833 H1847 0.958 . S
C1833 H1848 0.961 . S
C1833 H1849 0.960 . S
H1834 C1818 0.931 . S
H1835 C1823 0.929 . S
H1836 C1824 0.960 . S
H1837 C1824 0.962 . S
H1838 C1824 0.960 . S
H1839 C1825 0.961 . S
H1840 C1825 0.961 . S
H1841 C1825 0.961 . S
H1842 C1826 0.931 . S
H1843 C1831 0.930 . S
H1844 C1832 0.956 . S
H1845 C1832 0.961 1_565 S
H1846 C1832 0.961 . S
H1847 C1833 0.958 . S
H1848 C1833 0.961 . S
H1849 C1833 0.960 . S
C1850 C1851 1.391 . S
C1850 C1852 1.394 . S
C1850 H1866 0.931 . S
C1851 C1850 1.391 . S
C1851 C1855 1.376 . S
C1852 C1850 1.394 . S
C1852 C1853 1.369 . S
C1852 C1856 1.531 . S
C1853 C1852 1.369 . S
C1853 C1854 1.410 . S
C1853 C1861 1.503 1_455 S
C1854 C1853 1.410 . S
C1854 C1855 1.392 . S
C1854 C1857 1.511 1_455 S
C1855 C1851 1.376 . S
C1855 C1854 1.392 . S
C1855 H1867 0.929 . S
C1856 C1852 1.531 . S
C1856 H1868 0.960 1_455 S
C1856 H1869 0.962 . S
C1856 H1870 0.960 . S
C1857 C1854 1.511 1_655 S
C1857 H1871 0.961 1_655 S
C1857 H1872 0.961 . S
C1857 H1873 0.961 . S
C1858 C1859 1.370 . S
C1858 C1860 1.363 . S
C1858 H1874 0.931 . S
C1859 C1858 1.370 . S
C1859 C1863 1.408 . S
C1860 C1858 1.363 . S
C1860 C1861 1.370 . S
C1860 C1864 1.524 1_655 S
C1861 C1853 1.503 1_655 S
C1861 C1860 1.370 . S
C1861 C1862 1.403 . S
C1862 C1861 1.403 . S
C1862 C1863 1.404 . S
C1862 C1865 1.539 . S
C1863 C1859 1.408 . S
C1863 C1862 1.404 . S
C1863 H1875 0.930 . S
C1864 C1860 1.524 1_455 S
C1864 H1876 0.956 . S
C1864 H1877 0.961 . S
C1864 H1878 0.961 . S
C1865 C1862 1.539 . S
C1865 H1879 0.958 . S
C1865 H1880 0.961 . S
C1865 H1881 0.960 . S
H1866 C1850 0.931 . S
H1867 C1855 0.929 . S
H1868 C1856 0.960 1_655 S
H1869 C1856 0.962 . S
H1870 C1856 0.960 . S
H1871 C1857 0.961 1_455 S
H1872 C1857 0.961 . S
H1873 C1857 0.961 . S
H1874 C1858 0.931 . S
H1875 C1863 0.930 . S
H1876 C1864 0.956 . S
H1877 C1864 0.961 . S
H1878 C1864 0.961 . S
H1879 C1865 0.958 . S
H1880 C1865 0.961 . S
H1881 C1865 0.960 . S
C1882 C1883 1.391 . S
C1882 C1884 1.394 . S
C1882 H1898 0.931 . S
C1883 C1882 1.391 . S
C1883 C1887 1.376 . S
C1884 C1882 1.394 . S
C1884 C1885 1.369 . S
C1884 C1888 1.531 . S
C1885 C1884 1.369 . S
C1885 C1886 1.410 . S
C1885 C1893 1.503 . S
C1886 C1885 1.410 . S
C1886 C1887 1.392 . S
C1886 C1889 1.511 . S
C1887 C1883 1.376 . S
C1887 C1886 1.392 . S
C1887 H1899 0.929 . S
C1888 C1884 1.531 . S
C1888 H1900 0.960 . S
C1888 H1901 0.962 . S
C1888 H1902 0.960 . S
C1889 C1886 1.511 . S
C1889 H1903 0.961 . S
C1889 H1904 0.961 . S
C1889 H1905 0.961 . S
C1890 C1891 1.370 . S
C1890 C1892 1.363 . S
C1890 H1906 0.931 . S
C1891 C1890 1.370 . S
C1891 C1895 1.408 . S
C1892 C1890 1.363 . S
C1892 C1893 1.370 . S
C1892 C1896 1.524 . S
C1893 C1885 1.503 . S
C1893 C1892 1.370 . S
C1893 C1894 1.403 . S
C1894 C1893 1.403 . S
C1894 C1895 1.404 . S
C1894 C1897 1.539 . S
C1895 C1891 1.408 . S
C1895 C1894 1.404 . S
C1895 H1907 0.930 . S
C1896 C1892 1.524 . S
C1896 H1908 0.956 . S
C1896 H1909 0.961 . S
C1896 H1910 0.961 . S
C1897 C1894 1.539 . S
C1897 H1911 0.958 . S
C1897 H1912 0.961 . S
C1897 H1913 0.960 . S
H1898 C1882 0.931 . S
H1899 C1887 0.929 . S
H1900 C1888 0.960 . S
H1901 C1888 0.962 . S
H1902 C1888 0.960 . S
H1903 C1889 0.961 . S
H1904 C1889 0.961 . S
H1905 C1889 0.961 . S
H1906 C1890 0.931 . S
H1907 C1895 0.930 . S
H1908 C1896 0.956 . S
H1909 C1896 0.961 . S
H1910 C1896 0.961 . S
H1911 C1897 0.958 . S
H1912 C1897 0.961 . S
H1913 C1897 0.960 . S
C1914 C1915 1.391 . S
C1914 C1916 1.394 1_455 S
C1914 H1930 0.931 . S
C1915 C1914 1.391 . S
C1915 C1919 1.376 1_455 S
C1916 C1914 1.394 1_655 S
C1916 C1917 1.369 . S
C1916 C1920 1.531 . S
C1917 C1916 1.369 . S
C1917 C1918 1.410 . S
C1917 C1925 1.503 . S
C1918 C1917 1.410 . S
C1918 C1919 1.392 . S
C1918 C1921 1.511 . S
C1919 C1915 1.376 1_655 S
C1919 C1918 1.392 . S
C1919 H1931 0.935 . S
C1920 C1916 1.531 . S
C1920 H1932 0.960 . S
C1920 H1933 0.962 . S
C1920 H1934 0.960 . S
C1921 C1918 1.511 . S
C1921 H1935 0.961 . S
C1921 H1936 0.961 . S
C1921 H1937 0.961 . S
C1922 C1923 1.370 . S
C1922 C1924 1.363 . S
C1922 H1938 0.931 . S
C1923 C1922 1.370 . S
C1923 C1927 1.408 . S
C1924 C1922 1.363 . S
C1924 C1925 1.370 . S
C1924 C1928 1.524 . S
C1925 C1917 1.503 . S
C1925 C1924 1.370 . S
C1925 C1926 1.403 . S
C1926 C1925 1.403 . S
C1926 C1927 1.404 . S
C1926 C1929 1.539 . S
C1927 C1923 1.408 . S
C1927 C1926 1.404 . S
C1927 H1939 0.930 . S
C1928 C1924 1.524 . S
C1928 H1940 0.956 . S
C1928 H1941 0.961 . S
C1928 H1942 0.961 . S
C1929 C1926 1.539 . S
C1929 H1943 0.958 . S
C1929 H1944 0.961 . S
C1929 H1945 0.960 . S
H1930 C1914 0.931 . S
H1931 C1919 0.935 . S
H1932 C1920 0.960 . S
H1933 C1920 0.962 . S
H1934 C1920 0.960 . S
H1935 C1921 0.961 . S
H1936 C1921 0.961 . S
H1937 C1921 0.961 . S
H1938 C1922 0.931 . S
H1939 C1927 0.930 . S
H1940 C1928 0.956 . S
H1941 C1928 0.961 . S
H1942 C1928 0.961 . S
H1943 C1929 0.958 . S
H1944 C1929 0.961 . S
H1945 C1929 0.960 . S
C1946 C1947 1.391 . S
C1946 C1948 1.394 . S
C1946 H1962 0.931 . S
C1947 C1946 1.391 . S
C1947 C1951 1.376 . S
C1948 C1946 1.394 . S
C1948 C1949 1.369 . S
C1948 C1952 1.531 . S
C1949 C1948 1.369 . S
C1949 C1950 1.410 . S
C1949 C1957 1.503 . S
C1950 C1949 1.410 . S
C1950 C1951 1.392 . S
C1950 C1953 1.511 . S
C1951 C1947 1.376 . S
C1951 C1950 1.392 . S
C1951 H1963 0.929 . S
C1952 C1948 1.531 . S
C1952 H1964 0.960 . S
C1952 H1965 0.962 . S
C1952 H1966 0.960 . S
C1953 C1950 1.511 . S
C1953 H1967 0.961 . S
C1953 H1968 0.961 . S
C1953 H1969 0.961 . S
C1954 C1955 1.370 . S
C1954 C1956 1.363 . S
C1954 H1970 0.931 . S
C1955 C1954 1.370 . S
C1955 C1959 1.408 . S
C1956 C1954 1.363 . S
C1956 C1957 1.370 . S
C1956 C1960 1.524 . S
C1957 C1949 1.503 . S
C1957 C1956 1.370 . S
C1957 C1958 1.403 . S
C1958 C1957 1.403 . S
C1958 C1959 1.404 . S
C1958 C1961 1.539 . S
C1959 C1955 1.408 . S
C1959 C1958 1.404 . S
C1959 H1971 0.930 . S
C1960 C1956 1.524 . S
C1960 H1972 0.956 . S
C1960 H1973 0.961 . S
C1960 H1974 0.961 . S
C1961 C1958 1.539 . S
C1961 H1975 0.958 . S
C1961 H1976 0.961 . S
C1961 H1977 0.960 . S
H1962 C1946 0.931 . S
H1963 C1951 0.929 . S
H1964 C1952 0.960 . S
H1965 C1952 0.962 . S
H1966 C1952 0.960 . S
H1967 C1953 0.961 . S
H1968 C1953 0.961 . S
H1969 C1953 0.961 . S
H1970 C1954 0.931 . S
H1971 C1959 0.930 . S
H1972 C1960 0.956 . S
H1973 C1960 0.961 . S
H1974 C1960 0.961 . S
H1975 C1961 0.958 . S
H1976 C1961 0.961 . S
H1977 C1961 0.960 . S
C1978 C1979 1.391 . S
C1978 C1980 1.394 1_565 S
C1978 H1994 0.931 . S
C1979 C1978 1.391 . S
C1979 C1983 1.376 1_565 S
C1980 C1978 1.394 1_545 S
C1980 C1981 1.369 . S
C1980 C1984 1.531 . S
C1981 C1980 1.369 . S
C1981 C1982 1.410 . S
C1981 C1989 1.503 . S
C1982 C1981 1.410 . S
C1982 C1983 1.392 . S
C1982 C1985 1.511 . S
C1983 C1979 1.376 1_545 S
C1983 C1982 1.392 . S
C1983 H1995 0.929 . S
C1984 C1980 1.531 . S
C1984 H1996 0.960 . S
C1984 H1997 0.962 . S
C1984 H1998 0.960 . S
C1985 C1982 1.511 . S
C1985 H1999 0.961 . S
C1985 H2000 0.961 . S
C1985 H2001 0.961 . S
C1986 C1987 1.370 . S
C1986 C1988 1.363 . S
C1986 H2002 0.931 . S
C1987 C1986 1.370 . S
C1987 C1991 1.408 . S
C1988 C1986 1.363 . S
C1988 C1989 1.370 . S
C1988 C1992 1.524 . S
C1989 C1981 1.503 . S
C1989 C1988 1.370 . S
C1989 C1990 1.403 . S
C1990 C1989 1.403 . S
C1990 C1991 1.404 . S
C1990 C1993 1.539 . S
C1991 C1987 1.408 . S
C1991 C1990 1.404 . S
C1991 H2003 0.930 . S
C1992 C1988 1.524 . S
C1992 H2004 0.956 . S
C1992 H2005 0.961 . S
C1992 H2006 0.961 . S
C1993 C1990 1.539 . S
C1993 H2007 0.958 . S
C1993 H2008 0.961 . S
C1993 H2009 0.960 . S
H1994 C1978 0.931 . S
H1995 C1983 0.929 . S
H1996 C1984 0.960 . S
H1997 C1984 0.962 . S
H1998 C1984 0.960 . S
H1999 C1985 0.961 . S
H2000 C1985 0.961 . S
H2001 C1985 0.961 . S
H2002 C1986 0.931 . S
H2003 C1991 0.930 . S
H2004 C1992 0.956 . S
H2005 C1992 0.961 . S
H2006 C1992 0.961 . S
H2007 C1993 0.958 . S
H2008 C1993 0.961 . S
H2009 C1993 0.960 . S
C2010 C2011 1.391 . S
C2010 C2012 1.394 . S
C2010 H2026 0.931 . S
C2011 C2010 1.391 . S
C2011 C2015 1.376 . S
C2012 C2010 1.394 . S
C2012 C2013 1.369 . S
C2012 C2016 1.531 . S
C2013 C2012 1.369 . S
C2013 C2014 1.410 . S
C2013 C2021 1.503 . S
C2014 C2013 1.410 . S
C2014 C2015 1.392 . S
C2014 C2017 1.511 . S
C2015 C2011 1.376 . S
C2015 C2014 1.392 . S
C2015 H2027 0.929 . S
C2016 C2012 1.531 . S
C2016 H2028 0.960 . S
C2016 H2029 0.962 . S
C2016 H2030 0.960 . S
C2017 C2014 1.511 . S
C2017 H2031 0.961 . S
C2017 H2032 0.961 . S
C2017 H2033 0.961 . S
C2018 C2019 1.370 . S
C2018 C2020 1.363 . S
C2018 H2034 0.931 . S
C2019 C2018 1.370 . S
C2019 C2023 1.408 . S
C2020 C2018 1.363 . S
C2020 C2021 1.370 . S
C2020 C2024 1.524 . S
C2021 C2013 1.503 . S
C2021 C2020 1.370 . S
C2021 C2022 1.403 . S
C2022 C2021 1.403 . S
C2022 C2023 1.404 . S
C2022 C2025 1.539 . S
C2023 C2019 1.408 . S
C2023 C2022 1.404 . S
C2023 H2035 0.930 . S
C2024 C2020 1.524 . S
C2024 H2036 0.956 . S
C2024 H2037 0.961 . S
C2024 H2038 0.961 . S
C2025 C2022 1.539 . S
C2025 H2039 0.958 . S
C2025 H2040 0.961 . S
C2025 H2041 0.960 . S
H2026 C2010 0.931 . S
H2027 C2015 0.929 . S
H2028 C2016 0.960 . S
H2029 C2016 0.962 . S
H2030 C2016 0.960 . S
H2031 C2017 0.961 . S
H2032 C2017 0.961 . S
H2033 C2017 0.961 . S
H2034 C2018 0.931 . S
H2035 C2023 0.930 . S
H2036 C2024 0.956 . S
H2037 C2024 0.961 . S
H2038 C2024 0.961 . S
H2039 C2025 0.958 . S
H2040 C2025 0.961 . S
H2041 C2025 0.960 . S
C2042 C2043 1.391 . S
C2042 C2044 1.394 . S
C2042 H2058 0.931 . S
C2043 C2042 1.391 . S
C2043 C2047 1.376 . S
C2044 C2042 1.394 . S
C2044 C2045 1.369 . S
C2044 C2048 1.531 . S
C2045 C2044 1.369 . S
C2045 C2046 1.410 . S
C2045 C2053 1.503 . S
C2046 C2045 1.410 . S
C2046 C2047 1.392 . S
C2046 C2049 1.511 . S
C2047 C2043 1.376 . S
C2047 C2046 1.392 . S
C2047 H2059 0.929 . S
C2048 C2044 1.531 . S
C2048 H2060 0.960 . S
C2048 H2061 0.962 . S
C2048 H2062 0.960 . S
C2049 C2046 1.511 . S
C2049 H2063 0.961 . S
C2049 H2064 0.961 . S
C2049 H2065 0.961 . S
C2050 C2051 1.370 . S
C2050 C2052 1.363 . S
C2050 H2066 0.931 . S
C2051 C2050 1.370 . S
C2051 C2055 1.408 . S
C2052 C2050 1.363 . S
C2052 C2053 1.370 . S
C2052 C2056 1.524 . S
C2053 C2045 1.503 . S
C2053 C2052 1.370 . S
C2053 C2054 1.403 . S
C2054 C2053 1.403 . S
C2054 C2055 1.404 . S
C2054 C2057 1.539 . S
C2055 C2051 1.408 . S
C2055 C2054 1.404 . S
C2055 H2067 0.930 . S
C2056 C2052 1.524 . S
C2056 H2068 0.956 . S
C2056 H2069 0.961 . S
C2056 H2070 0.961 . S
C2057 C2054 1.539 . S
C2057 H2071 0.958 . S
C2057 H2072 0.961 . S
C2057 H2073 0.960 . S
H2058 C2042 0.931 . S
H2059 C2047 0.929 . S
H2060 C2048 0.960 . S
H2061 C2048 0.962 . S
H2062 C2048 0.960 . S
H2063 C2049 0.961 . S
H2064 C2049 0.961 . S
H2065 C2049 0.961 . S
H2066 C2050 0.931 . S
H2067 C2055 0.930 . S
H2068 C2056 0.956 . S
H2069 C2056 0.961 . S
H2070 C2056 0.961 . S
H2071 C2057 0.958 . S
H2072 C2057 0.961 . S
H2073 C2057 0.960 . S
C2074 C2075 1.391 . S
C2074 C2076 1.394 . S
C2074 H2090 0.931 . S
C2075 C2074 1.391 . S
C2075 C2079 1.376 . S
C2076 C2074 1.394 . S
C2076 C2077 1.369 . S
C2076 C2080 1.531 . S
C2077 C2076 1.369 . S
C2077 C2078 1.410 . S
C2077 C2085 1.503 . S
C2078 C2077 1.410 . S
C2078 C2079 1.392 . S
C2078 C2081 1.511 . S
C2079 C2075 1.376 . S
C2079 C2078 1.392 . S
C2079 H2091 0.929 . S
C2080 C2076 1.531 . S
C2080 H2092 0.960 . S
C2080 H2093 0.962 . S
C2080 H2094 0.960 . S
C2081 C2078 1.511 . S
C2081 H2095 0.961 . S
C2081 H2096 0.961 . S
C2081 H2097 0.961 . S
C2082 C2083 1.370 . S
C2082 C2084 1.363 . S
C2082 H2098 0.931 . S
C2083 C2082 1.370 . S
C2083 C2087 1.408 . S
C2084 C2082 1.363 . S
C2084 C2085 1.370 . S
C2084 C2088 1.524 . S
C2085 C2077 1.503 . S
C2085 C2084 1.370 . S
C2085 C2086 1.403 . S
C2086 C2085 1.403 . S
C2086 C2087 1.404 . S
C2086 C2089 1.539 . S
C2087 C2083 1.408 . S
C2087 C2086 1.404 . S
C2087 H2099 0.930 . S
C2088 C2084 1.524 . S
C2088 H2100 0.956 . S
C2088 H2101 0.961 . S
C2088 H2102 0.961 . S
C2089 C2086 1.539 . S
C2089 H2103 0.958 . S
C2089 H2104 0.961 . S
C2089 H2105 0.960 . S
H2090 C2074 0.931 . S
H2091 C2079 0.929 . S
H2092 C2080 0.960 . S
H2093 C2080 0.962 . S
H2094 C2080 0.960 . S
H2095 C2081 0.961 . S
H2096 C2081 0.961 . S
H2097 C2081 0.961 . S
H2098 C2082 0.931 . S
H2099 C2087 0.930 . S
H2100 C2088 0.956 . S
H2101 C2088 0.961 . S
H2102 C2088 0.961 . S
H2103 C2089 0.958 . S
H2104 C2089 0.961 . S
H2105 C2089 0.960 . S
C2106 C2107 1.391 . S
C2106 C2108 1.394 . S
C2106 H2122 0.931 . S
C2107 C2106 1.391 . S
C2107 C2111 1.376 . S
C2108 C2106 1.394 . S
C2108 C2109 1.369 . S
C2108 C2112 1.531 . S
C2109 C2108 1.369 . S
C2109 C2110 1.410 . S
C2109 C2117 1.503 . S
C2110 C2109 1.410 . S
C2110 C2111 1.392 . S
C2110 C2113 1.511 . S
C2111 C2107 1.376 . S
C2111 C2110 1.392 . S
C2111 H2123 0.929 . S
C2112 C2108 1.531 . S
C2112 H2124 0.960 . S
C2112 H2125 0.962 . S
C2112 H2126 0.960 . S
C2113 C2110 1.511 . S
C2113 H2127 0.961 . S
C2113 H2128 0.961 . S
C2113 H2129 0.961 . S
C2114 C2115 1.370 . S
C2114 C2116 1.363 . S
C2114 H2130 0.931 . S
C2115 C2114 1.370 . S
C2115 C2119 1.408 . S
C2116 C2114 1.363 . S
C2116 C2117 1.370 . S
C2116 C2120 1.524 . S
C2117 C2109 1.503 . S
C2117 C2116 1.370 . S
C2117 C2118 1.403 . S
C2118 C2117 1.403 . S
C2118 C2119 1.404 . S
C2118 C2121 1.539 . S
C2119 C2115 1.408 . S
C2119 C2118 1.404 . S
C2119 H2131 0.930 . S
C2120 C2116 1.524 . S
C2120 H2132 0.956 . S
C2120 H2133 0.961 . S
C2120 H2134 0.961 . S
C2121 C2118 1.539 . S
C2121 H2135 0.958 . S
C2121 H2136 0.961 . S
C2121 H2137 0.960 . S
H2122 C2106 0.931 . S
H2123 C2111 0.929 . S
H2124 C2112 0.960 . S
H2125 C2112 0.962 . S
H2126 C2112 0.960 . S
H2127 C2113 0.961 . S
H2128 C2113 0.961 . S
H2129 C2113 0.961 . S
H2130 C2114 0.931 . S
H2131 C2119 0.930 . S
H2132 C2120 0.956 . S
H2133 C2120 0.961 . S
H2134 C2120 0.961 . S
H2135 C2121 0.958 . S
H2136 C2121 0.961 . S
H2137 C2121 0.960 . S
C2138 C2139 1.391 . S
C2138 C2140 1.394 . S
C2138 H2154 0.931 . S
C2139 C2138 1.391 . S
C2139 C2143 1.376 . S
C2140 C2138 1.394 . S
C2140 C2141 1.369 . S
C2140 C2144 1.531 . S
C2141 C2140 1.369 . S
C2141 C2142 1.410 . S
C2141 C2149 1.503 . S
C2142 C2141 1.410 . S
C2142 C2143 1.392 . S
C2142 C2145 1.511 . S
C2143 C2139 1.376 . S
C2143 C2142 1.392 . S
C2143 H2155 0.929 . S
C2144 C2140 1.531 . S
C2144 H2156 0.960 . S
C2144 H2157 0.962 . S
C2144 H2158 0.960 . S
C2145 C2142 1.511 . S
C2145 H2159 0.961 . S
C2145 H2160 0.961 . S
C2145 H2161 0.961 . S
C2146 C2147 1.370 . S
C2146 C2148 1.363 . S
C2146 H2162 0.931 . S
C2147 C2146 1.370 . S
C2147 C2151 1.408 . S
C2148 C2146 1.363 . S
C2148 C2149 1.370 . S
C2148 C2152 1.524 . S
C2149 C2141 1.503 . S
C2149 C2148 1.370 . S
C2149 C2150 1.403 . S
C2150 C2149 1.403 . S
C2150 C2151 1.404 . S
C2150 C2153 1.539 . S
C2151 C2147 1.408 . S
C2151 C2150 1.404 . S
C2151 H2163 0.930 . S
C2152 C2148 1.524 . S
C2152 H2164 0.956 . S
C2152 H2165 0.961 . S
C2152 H2166 0.961 . S
C2153 C2150 1.539 . S
C2153 H2167 0.958 . S
C2153 H2168 0.961 . S
C2153 H2169 0.960 . S
H2154 C2138 0.931 . S
H2155 C2143 0.929 . S
H2156 C2144 0.960 . S
H2157 C2144 0.962 . S
H2158 C2144 0.960 . S
H2159 C2145 0.961 . S
H2160 C2145 0.961 . S
H2161 C2145 0.961 . S
H2162 C2146 0.931 . S
H2163 C2151 0.930 . S
H2164 C2152 0.956 . S
H2165 C2152 0.961 . S
H2166 C2152 0.961 . S
H2167 C2153 0.958 . S
H2168 C2153 0.961 . S
H2169 C2153 0.960 . S
C2170 C2171 1.391 . S
C2170 C2172 1.394 . S
C2170 H2186 0.931 . S
C2171 C2170 1.391 . S
C2171 C2175 1.376 . S
C2172 C2170 1.394 . S
C2172 C2173 1.369 . S
C2172 C2176 1.531 . S
C2173 C2172 1.369 . S
C2173 C2174 1.410 . S
C2173 C2181 1.503 . S
C2174 C2173 1.410 . S
C2174 C2175 1.392 . S
C2174 C2177 1.511 . S
C2175 C2171 1.376 . S
C2175 C2174 1.392 . S
C2175 H2187 0.929 . S
C2176 C2172 1.531 . S
C2176 H2188 0.960 . S
C2176 H2189 0.962 . S
C2176 H2190 0.960 . S
C2177 C2174 1.511 . S
C2177 H2191 0.961 . S
C2177 H2192 0.961 . S
C2177 H2193 0.961 . S
C2178 C2179 1.370 . S
C2178 C2180 1.363 . S
C2178 H2194 0.931 . S
C2179 C2178 1.370 . S
C2179 C2183 1.408 . S
C2180 C2178 1.363 . S
C2180 C2181 1.370 . S
C2180 C2184 1.524 . S
C2181 C2173 1.503 . S
C2181 C2180 1.370 . S
C2181 C2182 1.403 . S
C2182 C2181 1.403 . S
C2182 C2183 1.404 . S
C2182 C2185 1.539 . S
C2183 C2179 1.408 . S
C2183 C2182 1.404 . S
C2183 H2195 0.930 . S
C2184 C2180 1.524 . S
C2184 H2196 0.956 . S
C2184 H2197 0.961 . S
C2184 H2198 0.961 . S
C2185 C2182 1.539 . S
C2185 H2199 0.958 . S
C2185 H2200 0.961 . S
C2185 H2201 0.960 . S
H2186 C2170 0.931 . S
H2187 C2175 0.929 . S
H2188 C2176 0.960 . S
H2189 C2176 0.962 . S
H2190 C2176 0.960 . S
H2191 C2177 0.961 . S
H2192 C2177 0.961 . S
H2193 C2177 0.961 . S
H2194 C2178 0.931 . S
H2195 C2183 0.930 . S
H2196 C2184 0.956 . S
H2197 C2184 0.961 . S
H2198 C2184 0.961 . S
H2199 C2185 0.958 . S
H2200 C2185 0.961 . S
H2201 C2185 0.960 . S
C2202 C2203 1.391 . S
C2202 C2204 1.394 . S
C2202 H2218 0.931 . S
C2203 C2202 1.391 . S
C2203 C2207 1.376 . S
C2204 C2202 1.394 . S
C2204 C2205 1.369 . S
C2204 C2208 1.531 . S
C2205 C2204 1.369 . S
C2205 C2206 1.410 . S
C2205 C2213 1.503 . S
C2206 C2205 1.410 . S
C2206 C2207 1.392 . S
C2206 C2209 1.511 . S
C2207 C2203 1.376 . S
C2207 C2206 1.392 . S
C2207 H2219 0.929 . S
C2208 C2204 1.531 . S
C2208 H2220 0.960 . S
C2208 H2221 0.962 . S
C2208 H2222 0.960 . S
C2209 C2206 1.511 . S
C2209 H2223 0.961 . S
C2209 H2224 0.961 . S
C2209 H2225 0.961 . S
C2210 C2211 1.370 . S
C2210 C2212 1.363 . S
C2210 H2226 0.931 . S
C2211 C2210 1.370 . S
C2211 C2215 1.408 . S
C2212 C2210 1.363 . S
C2212 C2213 1.370 . S
C2212 C2216 1.524 . S
C2213 C2205 1.503 . S
C2213 C2212 1.370 . S
C2213 C2214 1.403 . S
C2214 C2213 1.403 . S
C2214 C2215 1.404 . S
C2214 C2217 1.539 . S
C2215 C2211 1.408 . S
C2215 C2214 1.404 . S
C2215 H2227 0.930 . S
C2216 C2212 1.524 . S
C2216 H2228 0.956 . S
C2216 H2229 0.961 . S
C2216 H2230 0.961 . S
C2217 C2214 1.539 . S
C2217 H2231 0.958 . S
C2217 H2232 0.961 . S
C2217 H2233 0.960 . S
H2218 C2202 0.931 . S
H2219 C2207 0.929 . S
H2220 C2208 0.960 . S
H2221 C2208 0.962 . S
H2222 C2208 0.960 . S
H2223 C2209 0.961 . S
H2224 C2209 0.961 . S
H2225 C2209 0.961 . S
H2226 C2210 0.931 . S
H2227 C2215 0.930 . S
H2228 C2216 0.956 . S
H2229 C2216 0.961 . S
H2230 C2216 0.961 . S
H2231 C2217 0.958 . S
H2232 C2217 0.961 . S
H2233 C2217 0.960 . S
C2234 C2235 1.391 . S
C2234 C2236 1.394 . S
C2234 H2250 0.931 . S
C2235 C2234 1.391 . S
C2235 C2239 1.376 . S
C2236 C2234 1.394 . S
C2236 C2237 1.369 . S
C2236 C2240 1.531 . S
C2237 C2236 1.369 . S
C2237 C2238 1.410 . S
C2237 C2245 1.503 . S
C2238 C2237 1.410 . S
C2238 C2239 1.392 . S
C2238 C2241 1.511 . S
C2239 C2235 1.376 . S
C2239 C2238 1.392 . S
C2239 H2251 0.929 . S
C2240 C2236 1.531 . S
C2240 H2252 0.960 . S
C2240 H2253 0.962 . S
C2240 H2254 0.960 . S
C2241 C2238 1.511 . S
C2241 H2255 0.961 . S
C2241 H2256 0.961 . S
C2241 H2257 0.961 . S
C2242 C2243 1.370 . S
C2242 C2244 1.363 . S
C2242 H2258 0.931 . S
C2243 C2242 1.370 . S
C2243 C2247 1.408 . S
C2244 C2242 1.363 . S
C2244 C2245 1.370 . S
C2244 C2248 1.524 . S
C2245 C2237 1.503 . S
C2245 C2244 1.370 . S
C2245 C2246 1.403 . S
C2246 C2245 1.403 . S
C2246 C2247 1.404 . S
C2246 C2249 1.539 . S
C2247 C2243 1.408 . S
C2247 C2246 1.404 . S
C2247 H2259 0.930 . S
C2248 C2244 1.524 . S
C2248 H2260 0.956 . S
C2248 H2261 0.961 . S
C2248 H2262 0.961 . S
C2249 C2246 1.539 . S
C2249 H2263 0.958 . S
C2249 H2264 0.961 . S
C2249 H2265 0.960 . S
H2250 C2234 0.931 . S
H2251 C2239 0.929 . S
H2252 C2240 0.960 . S
H2253 C2240 0.962 . S
H2254 C2240 0.960 . S
H2255 C2241 0.961 . S
H2256 C2241 0.961 . S
H2257 C2241 0.961 . S
H2258 C2242 0.931 . S
H2259 C2247 0.930 . S
H2260 C2248 0.956 . S
H2261 C2248 0.961 . S
H2262 C2248 0.961 . S
H2263 C2249 0.958 . S
H2264 C2249 0.961 . S
H2265 C2249 0.960 . S
C2266 C2267 1.391 . S
C2266 C2268 1.394 . S
C2266 H2282 0.931 . S
C2267 C2266 1.391 . S
C2267 C2271 1.376 . S
C2268 C2266 1.394 . S
C2268 C2269 1.369 . S
C2268 C2272 1.531 . S
C2269 C2268 1.369 . S
C2269 C2270 1.410 . S
C2269 C2277 1.503 . S
C2270 C2269 1.410 . S
C2270 C2271 1.392 . S
C2270 C2273 1.511 . S
C2271 C2267 1.376 . S
C2271 C2270 1.392 . S
C2271 H2283 0.929 . S
C2272 C2268 1.531 . S
C2272 H2284 0.960 . S
C2272 H2285 0.962 . S
C2272 H2286 0.960 . S
C2273 C2270 1.511 . S
C2273 H2287 0.961 . S
C2273 H2288 0.961 . S
C2273 H2289 0.961 . S
C2274 C2275 1.370 . S
C2274 C2276 1.363 . S
C2274 H2290 0.931 . S
C2275 C2274 1.370 . S
C2275 C2279 1.408 . S
C2276 C2274 1.363 . S
C2276 C2277 1.370 . S
C2276 C2280 1.524 . S
C2277 C2269 1.503 . S
C2277 C2276 1.370 . S
C2277 C2278 1.403 . S
C2278 C2277 1.403 . S
C2278 C2279 1.404 . S
C2278 C2281 1.539 . S
C2279 C2275 1.408 . S
C2279 C2278 1.404 . S
C2279 H2291 0.930 . S
C2280 C2276 1.524 . S
C2280 H2292 0.956 . S
C2280 H2293 0.961 . S
C2280 H2294 0.961 . S
C2281 C2278 1.539 . S
C2281 H2295 0.958 . S
C2281 H2296 0.961 . S
C2281 H2297 0.960 . S
H2282 C2266 0.931 . S
H2283 C2271 0.929 . S
H2284 C2272 0.960 . S
H2285 C2272 0.962 . S
H2286 C2272 0.960 . S
H2287 C2273 0.961 . S
H2288 C2273 0.961 . S
H2289 C2273 0.961 . S
H2290 C2274 0.931 . S
H2291 C2279 0.930 . S
H2292 C2280 0.956 . S
H2293 C2280 0.961 . S
H2294 C2280 0.961 . S
H2295 C2281 0.958 . S
H2296 C2281 0.961 . S
H2297 C2281 0.960 . S
C2298 C2299 1.391 . S
C2298 C2300 1.394 . S
C2298 H2314 0.931 . S
C2299 C2298 1.391 . S
C2299 C2303 1.376 . S
C2300 C2298 1.394 . S
C2300 C2301 1.369 . S
C2300 C2304 1.531 . S
C2301 C2300 1.369 . S
C2301 C2302 1.410 . S
C2301 C2309 1.503 . S
C2302 C2301 1.410 . S
C2302 C2303 1.392 . S
C2302 C2305 1.511 . S
C2303 C2299 1.376 . S
C2303 C2302 1.392 . S
C2303 H2315 0.929 . S
C2304 C2300 1.531 . S
C2304 H2316 0.960 . S
C2304 H2317 0.962 . S
C2304 H2318 0.960 . S
C2305 C2302 1.511 . S
C2305 H2319 0.961 . S
C2305 H2320 0.961 . S
C2305 H2321 0.961 . S
C2306 C2307 1.370 . S
C2306 C2308 1.363 . S
C2306 H2322 0.931 . S
C2307 C2306 1.370 . S
C2307 C2311 1.408 . S
C2308 C2306 1.363 . S
C2308 C2309 1.370 . S
C2308 C2312 1.524 . S
C2309 C2301 1.503 . S
C2309 C2308 1.370 . S
C2309 C2310 1.403 . S
C2310 C2309 1.403 . S
C2310 C2311 1.404 . S
C2310 C2313 1.539 . S
C2311 C2307 1.408 . S
C2311 C2310 1.404 . S
C2311 H2323 0.930 . S
C2312 C2308 1.524 . S
C2312 H2324 0.956 . S
C2312 H2325 0.961 . S
C2312 H2326 0.961 . S
C2313 C2310 1.539 . S
C2313 H2327 0.958 . S
C2313 H2328 0.961 . S
C2313 H2329 0.960 . S
H2314 C2298 0.931 . S
H2315 C2303 0.929 . S
H2316 C2304 0.960 . S
H2317 C2304 0.962 . S
H2318 C2304 0.960 . S
H2319 C2305 0.961 . S
H2320 C2305 0.961 . S
H2321 C2305 0.961 . S
H2322 C2306 0.931 . S
H2323 C2311 0.930 . S
H2324 C2312 0.956 . S
H2325 C2312 0.961 . S
H2326 C2312 0.961 . S
H2327 C2313 0.958 . S
H2328 C2313 0.961 . S
H2329 C2313 0.960 . S
C2330 C2331 1.391 . S
C2330 C2332 1.394 . S
C2330 H2346 0.931 . S
C2331 C2330 1.391 . S
C2331 C2335 1.376 . S
C2332 C2330 1.394 . S
C2332 C2333 1.369 . S
C2332 C2336 1.531 . S
C2333 C2332 1.369 . S
C2333 C2334 1.410 . S
C2333 C2341 1.503 . S
C2334 C2333 1.410 . S
C2334 C2335 1.392 . S
C2334 C2337 1.511 . S
C2335 C2331 1.376 . S
C2335 C2334 1.392 . S
C2335 H2347 0.929 . S
C2336 C2332 1.531 . S
C2336 H2348 0.960 . S
C2336 H2349 0.962 . S
C2336 H2350 0.960 . S
C2337 C2334 1.511 . S
C2337 H2351 0.961 . S
C2337 H2352 0.961 . S
C2337 H2353 0.961 . S
C2338 C2339 1.370 . S
C2338 C2340 1.363 . S
C2338 H2354 0.931 . S
C2339 C2338 1.370 . S
C2339 C2343 1.408 . S
C2340 C2338 1.363 . S
C2340 C2341 1.370 . S
C2340 C2344 1.524 . S
C2341 C2333 1.503 . S
C2341 C2340 1.370 . S
C2341 C2342 1.403 . S
C2342 C2341 1.403 . S
C2342 C2343 1.404 . S
C2342 C2345 1.539 . S
C2343 C2339 1.408 . S
C2343 C2342 1.404 . S
C2343 H2355 0.930 . S
C2344 C2340 1.524 . S
C2344 H2356 0.956 . S
C2344 H2357 0.961 . S
C2344 H2358 0.961 . S
C2345 C2342 1.539 . S
C2345 H2359 0.958 . S
C2345 H2360 0.961 . S
C2345 H2361 0.960 . S
H2346 C2330 0.931 . S
H2347 C2335 0.929 . S
H2348 C2336 0.960 . S
H2349 C2336 0.962 . S
H2350 C2336 0.960 . S
H2351 C2337 0.961 . S
H2352 C2337 0.961 . S
H2353 C2337 0.961 . S
H2354 C2338 0.931 . S
H2355 C2343 0.930 . S
H2356 C2344 0.956 . S
H2357 C2344 0.961 . S
H2358 C2344 0.961 . S
H2359 C2345 0.958 . S
H2360 C2345 0.961 . S
H2361 C2345 0.960 . S
C2362 C2363 1.391 . S
C2362 C2364 1.394 . S
C2362 H2378 0.931 . S
C2363 C2362 1.391 . S
C2363 C2367 1.376 . S
C2364 C2362 1.394 . S
C2364 C2365 1.369 . S
C2364 C2368 1.531 . S
C2365 C2364 1.369 . S
C2365 C2366 1.410 . S
C2365 C2373 1.503 . S
C2366 C2365 1.410 . S
C2366 C2367 1.392 . S
C2366 C2369 1.511 . S
C2367 C2363 1.376 . S
C2367 C2366 1.392 . S
C2367 H2379 0.929 . S
C2368 C2364 1.531 . S
C2368 H2380 0.960 . S
C2368 H2381 0.962 . S
C2368 H2382 0.960 . S
C2369 C2366 1.511 . S
C2369 H2383 0.961 . S
C2369 H2384 0.961 . S
C2369 H2385 0.961 . S
C2370 C2371 1.370 . S
C2370 C2372 1.363 . S
C2370 H2386 0.931 . S
C2371 C2370 1.370 . S
C2371 C2375 1.408 . S
C2372 C2370 1.363 . S
C2372 C2373 1.370 . S
C2372 C2376 1.524 . S
C2373 C2365 1.503 . S
C2373 C2372 1.370 . S
C2373 C2374 1.403 . S
C2374 C2373 1.403 . S
C2374 C2375 1.404 . S
C2374 C2377 1.539 . S
C2375 C2371 1.408 . S
C2375 C2374 1.404 . S
C2375 H2387 0.930 . S
C2376 C2372 1.524 . S
C2376 H2388 0.956 . S
C2376 H2389 0.961 . S
C2376 H2390 0.961 . S
C2377 C2374 1.539 . S
C2377 H2391 0.958 . S
C2377 H2392 0.961 . S
C2377 H2393 0.960 . S
H2378 C2362 0.931 . S
H2379 C2367 0.929 . S
H2380 C2368 0.960 . S
H2381 C2368 0.962 . S
H2382 C2368 0.960 . S
H2383 C2369 0.961 . S
H2384 C2369 0.961 . S
H2385 C2369 0.961 . S
H2386 C2370 0.931 . S
H2387 C2375 0.930 . S
H2388 C2376 0.956 . S
H2389 C2376 0.961 . S
H2390 C2376 0.961 . S
H2391 C2377 0.958 . S
H2392 C2377 0.961 . S
H2393 C2377 0.960 . S
C2394 C2395 1.391 . S
C2394 C2396 1.394 . S
C2394 H2410 0.931 . S
C2395 C2394 1.391 . S
C2395 C2399 1.376 . S
C2396 C2394 1.394 . S
C2396 C2397 1.369 . S
C2396 C2400 1.531 . S
C2397 C2396 1.369 . S
C2397 C2398 1.410 . S
C2397 C2405 1.503 . S
C2398 C2397 1.410 . S
C2398 C2399 1.392 . S
C2398 C2401 1.511 . S
C2399 C2395 1.376 . S
C2399 C2398 1.392 . S
C2399 H2411 0.929 . S
C2400 C2396 1.531 . S
C2400 H2412 0.960 . S
C2400 H2413 0.962 . S
C2400 H2414 0.960 . S
C2401 C2398 1.511 . S
C2401 H2415 0.961 . S
C2401 H2416 0.961 . S
C2401 H2417 0.961 . S
C2402 C2403 1.370 . S
C2402 C2404 1.363 . S
C2402 H2418 0.931 . S
C2403 C2402 1.370 . S
C2403 C2407 1.408 . S
C2404 C2402 1.363 . S
C2404 C2405 1.370 . S
C2404 C2408 1.524 . S
C2405 C2397 1.503 . S
C2405 C2404 1.370 . S
C2405 C2406 1.403 . S
C2406 C2405 1.403 . S
C2406 C2407 1.404 . S
C2406 C2409 1.539 . S
C2407 C2403 1.408 . S
C2407 C2406 1.404 . S
C2407 H2419 0.930 . S
C2408 C2404 1.524 . S
C2408 H2420 0.956 . S
C2408 H2421 0.961 . S
C2408 H2422 0.961 . S
C2409 C2406 1.539 . S
C2409 H2423 0.958 . S
C2409 H2424 0.961 . S
C2409 H2425 0.960 . S
H2410 C2394 0.931 . S
H2411 C2399 0.929 . S
H2412 C2400 0.960 . S
H2413 C2400 0.962 . S
H2414 C2400 0.960 . S
H2415 C2401 0.961 . S
H2416 C2401 0.961 . S
H2417 C2401 0.961 . S
H2418 C2402 0.931 . S
H2419 C2407 0.930 . S
H2420 C2408 0.956 . S
H2421 C2408 0.961 . S
H2422 C2408 0.961 . S
H2423 C2409 0.958 . S
H2424 C2409 0.961 . S
H2425 C2409 0.960 . S
C2426 C2427 1.391 . S
C2426 C2428 1.394 . S
C2426 H2442 0.931 . S
C2427 C2426 1.391 . S
C2427 C2431 1.376 . S
C2428 C2426 1.394 . S
C2428 C2429 1.369 . S
C2428 C2432 1.531 . S
C2429 C2428 1.369 . S
C2429 C2430 1.410 . S
C2429 C2437 1.503 . S
C2430 C2429 1.410 . S
C2430 C2431 1.392 . S
C2430 C2433 1.511 . S
C2431 C2427 1.376 . S
C2431 C2430 1.392 . S
C2431 H2443 0.929 . S
C2432 C2428 1.531 . S
C2432 H2444 0.960 . S
C2432 H2445 0.962 . S
C2432 H2446 0.960 . S
C2433 C2430 1.511 . S
C2433 H2447 0.961 . S
C2433 H2448 0.961 . S
C2433 H2449 0.961 . S
C2434 C2435 1.370 . S
C2434 C2436 1.363 . S
C2434 H2450 0.931 . S
C2435 C2434 1.370 . S
C2435 C2439 1.408 . S
C2436 C2434 1.363 . S
C2436 C2437 1.370 . S
C2436 C2440 1.524 . S
C2437 C2429 1.503 . S
C2437 C2436 1.370 . S
C2437 C2438 1.403 . S
C2438 C2437 1.403 . S
C2438 C2439 1.404 . S
C2438 C2441 1.539 . S
C2439 C2435 1.408 . S
C2439 C2438 1.404 . S
C2439 H2451 0.930 . S
C2440 C2436 1.524 . S
C2440 H2452 0.956 . S
C2440 H2453 0.961 . S
C2440 H2454 0.961 . S
C2441 C2438 1.539 . S
C2441 H2455 0.958 . S
C2441 H2456 0.961 . S
C2441 H2457 0.960 . S
H2442 C2426 0.931 . S
H2443 C2431 0.929 . S
H2444 C2432 0.960 . S
H2445 C2432 0.962 . S
H2446 C2432 0.960 . S
H2447 C2433 0.961 . S
H2448 C2433 0.961 . S
H2449 C2433 0.961 . S
H2450 C2434 0.931 . S
H2451 C2439 0.930 . S
H2452 C2440 0.956 . S
H2453 C2440 0.961 . S
H2454 C2440 0.961 . S
H2455 C2441 0.958 . S
H2456 C2441 0.961 . S
H2457 C2441 0.960 . S
C2458 C2459 1.391 . S
C2458 C2460 1.394 . S
C2458 H2474 0.931 . S
C2459 C2458 1.391 . S
C2459 C2463 1.376 . S
C2460 C2458 1.394 . S
C2460 C2461 1.369 . S
C2460 C2464 1.531 . S
C2461 C2460 1.369 . S
C2461 C2462 1.410 . S
C2461 C2469 1.503 . S
C2462 C2461 1.410 . S
C2462 C2463 1.392 . S
C2462 C2465 1.511 . S
C2463 C2459 1.376 . S
C2463 C2462 1.392 . S
C2463 H2475 0.929 . S
C2464 C2460 1.531 . S
C2464 H2476 0.960 . S
C2464 H2477 0.962 . S
C2464 H2478 0.960 . S
C2465 C2462 1.511 . S
C2465 H2479 0.961 . S
C2465 H2480 0.961 . S
C2465 H2481 0.961 . S
C2466 C2467 1.370 . S
C2466 C2468 1.363 . S
C2466 H2482 0.931 . S
C2467 C2466 1.370 . S
C2467 C2471 1.408 . S
C2468 C2466 1.363 . S
C2468 C2469 1.370 . S
C2468 C2472 1.524 . S
C2469 C2461 1.503 . S
C2469 C2468 1.370 . S
C2469 C2470 1.403 . S
C2470 C2469 1.403 . S
C2470 C2471 1.404 . S
C2470 C2473 1.539 . S
C2471 C2467 1.408 . S
C2471 C2470 1.404 . S
C2471 H2483 0.930 . S
C2472 C2468 1.524 . S
C2472 H2484 0.956 . S
C2472 H2485 0.961 . S
C2472 H2486 0.961 . S
C2473 C2470 1.539 . S
C2473 H2487 0.958 . S
C2473 H2488 0.961 . S
C2473 H2489 0.960 . S
H2474 C2458 0.931 . S
H2475 C2463 0.929 . S
H2476 C2464 0.960 . S
H2477 C2464 0.962 . S
H2478 C2464 0.960 . S
H2479 C2465 0.961 . S
H2480 C2465 0.961 . S
H2481 C2465 0.961 . S
H2482 C2466 0.931 . S
H2483 C2471 0.930 . S
H2484 C2472 0.956 . S
H2485 C2472 0.961 . S
H2486 C2472 0.961 . S
H2487 C2473 0.958 . S
H2488 C2473 0.961 . S
H2489 C2473 0.960 . S
C2490 C2491 1.391 . S
C2490 C2492 1.394 . S
C2490 H2506 0.931 . S
C2491 C2490 1.391 . S
C2491 C2495 1.376 . S
C2492 C2490 1.394 . S
C2492 C2493 1.369 . S
C2492 C2496 1.531 . S
C2493 C2492 1.369 . S
C2493 C2494 1.410 . S
C2493 C2501 1.503 . S
C2494 C2493 1.410 . S
C2494 C2495 1.392 . S
C2494 C2497 1.511 . S
C2495 C2491 1.376 . S
C2495 C2494 1.392 . S
C2495 H2507 0.929 . S
C2496 C2492 1.531 . S
C2496 H2508 0.960 . S
C2496 H2509 0.962 . S
C2496 H2510 0.960 . S
C2497 C2494 1.511 . S
C2497 H2511 0.961 . S
C2497 H2512 0.961 . S
C2497 H2513 0.961 . S
C2498 C2499 1.370 . S
C2498 C2500 1.363 . S
C2498 H2514 0.931 . S
C2499 C2498 1.370 . S
C2499 C2503 1.408 . S
C2500 C2498 1.363 . S
C2500 C2501 1.370 . S
C2500 C2504 1.524 . S
C2501 C2493 1.503 . S
C2501 C2500 1.370 . S
C2501 C2502 1.403 . S
C2502 C2501 1.403 . S
C2502 C2503 1.404 . S
C2502 C2505 1.539 . S
C2503 C2499 1.408 . S
C2503 C2502 1.404 . S
C2503 H2515 0.930 . S
C2504 C2500 1.524 . S
C2504 H2516 0.956 . S
C2504 H2517 0.961 . S
C2504 H2518 0.961 . S
C2505 C2502 1.539 . S
C2505 H2519 0.958 . S
C2505 H2520 0.961 . S
C2505 H2521 0.960 . S
H2506 C2490 0.931 . S
H2507 C2495 0.929 . S
H2508 C2496 0.960 . S
H2509 C2496 0.962 . S
H2510 C2496 0.960 . S
H2511 C2497 0.961 . S
H2512 C2497 0.961 . S
H2513 C2497 0.961 . S
H2514 C2498 0.931 . S
H2515 C2503 0.930 . S
H2516 C2504 0.956 . S
H2517 C2504 0.961 . S
H2518 C2504 0.961 . S
H2519 C2505 0.958 . S
H2520 C2505 0.961 . S
H2521 C2505 0.960 . S
C2522 C2523 1.391 . S
C2522 C2524 1.394 . S
C2522 H2538 0.931 . S
C2523 C2522 1.391 . S
C2523 C2527 1.376 . S
C2524 C2522 1.394 . S
C2524 C2525 1.369 . S
C2524 C2528 1.531 . S
C2525 C2524 1.369 . S
C2525 C2526 1.410 . S
C2525 C2533 1.503 . S
C2526 C2525 1.410 . S
C2526 C2527 1.392 . S
C2526 C2529 1.511 . S
C2527 C2523 1.376 . S
C2527 C2526 1.392 . S
C2527 H2539 0.929 . S
C2528 C2524 1.531 . S
C2528 H2540 0.960 . S
C2528 H2541 0.962 . S
C2528 H2542 0.960 . S
C2529 C2526 1.511 . S
C2529 H2543 0.961 . S
C2529 H2544 0.961 . S
C2529 H2545 0.961 . S
C2530 C2531 1.370 . S
C2530 C2532 1.363 . S
C2530 H2546 0.931 . S
C2531 C2530 1.370 . S
C2531 C2535 1.408 . S
C2532 C2530 1.363 . S
C2532 C2533 1.370 . S
C2532 C2536 1.524 . S
C2533 C2525 1.503 . S
C2533 C2532 1.370 . S
C2533 C2534 1.403 . S
C2534 C2533 1.403 . S
C2534 C2535 1.404 . S
C2534 C2537 1.539 . S
C2535 C2531 1.408 . S
C2535 C2534 1.404 . S
C2535 H2547 0.930 . S
C2536 C2532 1.524 . S
C2536 H2548 0.956 . S
C2536 H2549 0.961 . S
C2536 H2550 0.961 . S
C2537 C2534 1.539 . S
C2537 H2551 0.958 . S
C2537 H2552 0.961 . S
C2537 H2553 0.960 . S
H2538 C2522 0.931 . S
H2539 C2527 0.929 . S
H2540 C2528 0.960 . S
H2541 C2528 0.962 . S
H2542 C2528 0.960 . S
H2543 C2529 0.961 . S
H2544 C2529 0.961 . S
H2545 C2529 0.961 . S
H2546 C2530 0.931 . S
H2547 C2535 0.930 . S
H2548 C2536 0.956 . S
H2549 C2536 0.961 . S
H2550 C2536 0.961 . S
H2551 C2537 0.958 . S
H2552 C2537 0.961 . S
H2553 C2537 0.960 . S
C2554 C2555 1.391 . S
C2554 C2556 1.394 . S
C2554 H2570 0.931 . S
C2555 C2554 1.391 . S
C2555 C2559 1.376 . S
C2556 C2554 1.394 . S
C2556 C2557 1.369 . S
C2556 C2560 1.531 . S
C2557 C2556 1.369 . S
C2557 C2558 1.410 . S
C2557 C2565 1.503 . S
C2558 C2557 1.410 . S
C2558 C2559 1.392 . S
C2558 C2561 1.511 . S
C2559 C2555 1.376 . S
C2559 C2558 1.392 . S
C2559 H2571 0.929 . S
C2560 C2556 1.531 . S
C2560 H2572 0.960 . S
C2560 H2573 0.962 . S
C2560 H2574 0.960 . S
C2561 C2558 1.511 . S
C2561 H2575 0.961 . S
C2561 H2576 0.961 . S
C2561 H2577 0.961 . S
C2562 C2563 1.370 . S
C2562 C2564 1.363 . S
C2562 H2578 0.931 . S
C2563 C2562 1.370 . S
C2563 C2567 1.408 . S
C2564 C2562 1.363 . S
C2564 C2565 1.370 . S
C2564 C2568 1.524 . S
C2565 C2557 1.503 . S
C2565 C2564 1.370 . S
C2565 C2566 1.403 . S
C2566 C2565 1.403 . S
C2566 C2567 1.404 . S
C2566 C2569 1.539 . S
C2567 C2563 1.408 . S
C2567 C2566 1.404 . S
C2567 H2579 0.930 . S
C2568 C2564 1.524 . S
C2568 H2580 0.956 . S
C2568 H2581 0.961 . S
C2568 H2582 0.961 . S
C2569 C2566 1.539 . S
C2569 H2583 0.958 . S
C2569 H2584 0.961 . S
C2569 H2585 0.960 . S
H2570 C2554 0.931 . S
H2571 C2559 0.929 . S
H2572 C2560 0.960 . S
H2573 C2560 0.962 . S
H2574 C2560 0.960 . S
H2575 C2561 0.961 . S
H2576 C2561 0.961 . S
H2577 C2561 0.961 . S
H2578 C2562 0.931 . S
H2579 C2567 0.930 . S
H2580 C2568 0.956 . S
H2581 C2568 0.961 . S
H2582 C2568 0.961 . S
H2583 C2569 0.958 . S
H2584 C2569 0.961 . S
H2585 C2569 0.960 . S
C2586 C2587 1.391 . S
C2586 C2588 1.394 . S
C2586 H2602 0.931 . S
C2587 C2586 1.391 . S
C2587 C2591 1.376 . S
C2588 C2586 1.394 . S
C2588 C2589 1.369 . S
C2588 C2592 1.531 . S
C2589 C2588 1.369 . S
C2589 C2590 1.410 . S
C2589 C2597 1.503 . S
C2590 C2589 1.410 . S
C2590 C2591 1.392 . S
C2590 C2593 1.511 . S
C2591 C2587 1.376 . S
C2591 C2590 1.392 . S
C2591 H2603 0.929 . S
C2592 C2588 1.531 . S
C2592 H2604 0.960 . S
C2592 H2605 0.962 . S
C2592 H2606 0.960 . S
C2593 C2590 1.511 . S
C2593 H2607 0.961 . S
C2593 H2608 0.961 . S
C2593 H2609 0.961 . S
C2594 C2595 1.370 . S
C2594 C2596 1.363 . S
C2594 H2610 0.931 . S
C2595 C2594 1.370 . S
C2595 C2599 1.408 . S
C2596 C2594 1.363 . S
C2596 C2597 1.370 . S
C2596 C2600 1.524 . S
C2597 C2589 1.503 . S
C2597 C2596 1.370 . S
C2597 C2598 1.403 . S
C2598 C2597 1.403 . S
C2598 C2599 1.404 . S
C2598 C2601 1.539 . S
C2599 C2595 1.408 . S
C2599 C2598 1.404 . S
C2599 H2611 0.930 . S
C2600 C2596 1.524 . S
C2600 H2612 0.956 . S
C2600 H2613 0.961 . S
C2600 H2614 0.961 . S
C2601 C2598 1.539 . S
C2601 H2615 0.958 . S
C2601 H2616 0.961 . S
C2601 H2617 0.960 . S
H2602 C2586 0.931 . S
H2603 C2591 0.929 . S
H2604 C2592 0.960 . S
H2605 C2592 0.962 . S
H2606 C2592 0.960 . S
H2607 C2593 0.961 . S
H2608 C2593 0.961 . S
H2609 C2593 0.961 . S
H2610 C2594 0.931 . S
H2611 C2599 0.930 . S
H2612 C2600 0.956 . S
H2613 C2600 0.961 . S
H2614 C2600 0.961 . S
H2615 C2601 0.958 . S
H2616 C2601 0.961 . S
H2617 C2601 0.960 . S
C2618 C2619 1.391 . S
C2618 C2620 1.394 . S
C2618 H2634 0.931 . S
C2619 C2618 1.391 . S
C2619 C2623 1.376 . S
C2620 C2618 1.394 . S
C2620 C2621 1.369 . S
C2620 C2624 1.531 . S
C2621 C2620 1.369 . S
C2621 C2622 1.410 . S
C2621 C2629 1.503 . S
C2622 C2621 1.410 . S
C2622 C2623 1.392 . S
C2622 C2625 1.511 . S
C2623 C2619 1.376 . S
C2623 C2622 1.392 . S
C2623 H2635 0.929 . S
C2624 C2620 1.531 . S
C2624 H2636 0.960 . S
C2624 H2637 0.962 . S
C2624 H2638 0.960 . S
C2625 C2622 1.511 . S
C2625 H2639 0.961 . S
C2625 H2640 0.961 . S
C2625 H2641 0.961 . S
C2626 C2627 1.370 . S
C2626 C2628 1.363 . S
C2626 H2642 0.931 . S
C2627 C2626 1.370 . S
C2627 C2631 1.408 . S
C2628 C2626 1.363 . S
C2628 C2629 1.370 . S
C2628 C2632 1.524 . S
C2629 C2621 1.503 . S
C2629 C2628 1.370 . S
C2629 C2630 1.403 . S
C2630 C2629 1.403 . S
C2630 C2631 1.404 . S
C2630 C2633 1.539 . S
C2631 C2627 1.408 . S
C2631 C2630 1.404 . S
C2631 H2643 0.930 . S
C2632 C2628 1.524 . S
C2632 H2644 0.956 . S
C2632 H2645 0.961 . S
C2632 H2646 0.961 . S
C2633 C2630 1.539 . S
C2633 H2647 0.958 . S
C2633 H2648 0.961 . S
C2633 H2649 0.960 . S
H2634 C2618 0.931 . S
H2635 C2623 0.929 . S
H2636 C2624 0.960 . S
H2637 C2624 0.962 . S
H2638 C2624 0.960 . S
H2639 C2625 0.961 . S
H2640 C2625 0.961 . S
H2641 C2625 0.961 . S
H2642 C2626 0.931 . S
H2643 C2631 0.930 . S
H2644 C2632 0.956 . S
H2645 C2632 0.961 . S
H2646 C2632 0.961 . S
H2647 C2633 0.958 . S
H2648 C2633 0.961 . S
H2649 C2633 0.960 . S
C2650 C2651 1.391 . S
C2650 C2652 1.394 . S
C2650 H2666 0.931 . S
C2651 C2650 1.391 . S
C2651 C2655 1.376 . S
C2652 C2650 1.394 . S
C2652 C2653 1.369 . S
C2652 C2656 1.531 . S
C2653 C2652 1.369 . S
C2653 C2654 1.410 . S
C2653 C2661 1.503 . S
C2654 C2653 1.410 . S
C2654 C2655 1.392 . S
C2654 C2657 1.511 . S
C2655 C2651 1.376 . S
C2655 C2654 1.392 . S
C2655 H2667 0.929 . S
C2656 C2652 1.531 . S
C2656 H2668 0.960 . S
C2656 H2669 0.962 . S
C2656 H2670 0.960 . S
C2657 C2654 1.511 . S
C2657 H2671 0.961 . S
C2657 H2672 0.961 . S
C2657 H2673 0.961 . S
C2658 C2659 1.370 . S
C2658 C2660 1.363 . S
C2658 H2674 0.931 . S
C2659 C2658 1.370 . S
C2659 C2663 1.408 . S
C2660 C2658 1.363 . S
C2660 C2661 1.370 . S
C2660 C2664 1.524 . S
C2661 C2653 1.503 . S
C2661 C2660 1.370 . S
C2661 C2662 1.403 . S
C2662 C2661 1.403 . S
C2662 C2663 1.404 . S
C2662 C2665 1.539 . S
C2663 C2659 1.408 . S
C2663 C2662 1.404 . S
C2663 H2675 0.930 . S
C2664 C2660 1.524 . S
C2664 H2676 0.956 . S
C2664 H2677 0.961 . S
C2664 H2678 0.961 . S
C2665 C2662 1.539 . S
C2665 H2679 0.958 . S
C2665 H2680 0.961 . S
C2665 H2681 0.960 . S
H2666 C2650 0.931 . S
H2667 C2655 0.929 . S
H2668 C2656 0.960 . S
H2669 C2656 0.962 . S
H2670 C2656 0.960 . S
H2671 C2657 0.961 . S
H2672 C2657 0.961 . S
H2673 C2657 0.961 . S
H2674 C2658 0.931 . S
H2675 C2663 0.930 . S
H2676 C2664 0.956 . S
H2677 C2664 0.961 . S
H2678 C2664 0.961 . S
H2679 C2665 0.958 . S
H2680 C2665 0.961 . S
H2681 C2665 0.960 . S
C955 C147 1.436 . S
C963 C265 1.383 . S
C987 C158 1.462 . S
C995 C349 1.416 . S
C1019 C136 1.439 . S
C1027 C429 1.448 . S
C1051 C125 1.436 . S
C1059 C345 1.422 1_556 S
C1091 C433 1.371 . S
C1083 C103 1.421 . S
C1115 C114 1.413 . S
C1123 C261 1.395 1_556 S
C1155 C254 1.459 . S
C1147 C131 1.512 . S
C1187 C338 1.457 . S
C1179 C109 1.513 . S
C1211 C120 1.530 . S
C1219 C440 1.483 1_556 S
C1243 C153 1.492 . S
C1251 C356 1.440 . S
C1275 C164 1.481 . S
C1283 C422 1.431 . S
C1315 C272 1.439 . S
C1307 C142 1.479 . S
C1347 C517 1.410 . S
C1339 C15 1.457 . S
C1371 C26 1.480 . S
C1379 C601 1.430 . S
C1403 C4 1.442 . S
C1411 C681 1.434 . S
C1435 C191 1.413 . S
C1443 C597 1.427 . S
C1467 C169 1.420 . S
C1475 C685 1.364 . S
C1499 C180 1.396 . S
C1507 C513 1.393 . S
C1531 C197 1.514 . S
C1539 C506 1.459 . S
C1563 C175 1.514 . S
C1571 C590 1.471 . S
C1603 C692 1.493 . S
C1595 C186 1.500 . S
C1627 C21 1.473 . S
C1635 C608 1.446 . S
C1667 C674 1.401 . S
C1659 C32 1.457 . S
C1691 C10 1.463 . S
C1699 C524 1.446 . S
C1731 C769 1.383 . S
C1723 C81 1.436 . S
C1755 C92 1.467 . S
C1763 C853 1.424 . S
C1795 C933 1.448 . S
C1787 C70 1.441 . S
C1827 C849 1.425 . S
C1819 C59 1.435 . S
C1859 C937 1.371 . S
C1851 C37 1.429 . S
C1883 C48 1.389 . S
C1891 C765 1.401 . S
C1915 C65 1.500 . S
C1923 C758 1.453 . S
C1947 C43 1.511 . S
C1955 C842 1.467 . S
C1987 C944 1.493 . S
C1979 C54 1.515 . S
C2011 C87 1.503 . S
C2019 C860 1.449 . S
C2043 C98 1.480 . S
C2051 C926 1.430 . S
C2075 C76 1.474 . S
C2083 C776 1.419 . S
C2107 C170 1.546 . S
C2115 C268 1.450 . S
C2147 C352 1.455 . S
C2139 C181 1.606 . S
C2171 C192 1.543 . S
C2179 C424 1.386 . S
C2203 C71 1.567 . S
C2211 C340 1.404 . S
C2235 C82 1.563 . S
C2243 C436 1.424 . S
C2275 C256 1.369 . S
C2267 C93 1.538 . S
C2299 C38 1.550 . S
C2307 C520 1.454 . S
C2331 C49 1.611 . S
C2339 C604 1.492 . S
C2363 C60 1.569 . S
C2371 C676 1.401 . S
C2395 C137 1.567 . S
C2403 C592 1.398 . S
C2435 C688 1.456 . S
C2427 C148 1.566 . S
C2459 C159 1.526 . S
C2467 C508 1.342 . S
C2491 C104 1.544 . S
C2499 C772 1.420 . S
C2523 C115 1.606 . S
C2531 C856 1.455 . S
C2563 C928 1.372 . S
C2555 C126 1.574 . S
C2587 C5 1.598 . S
C2595 C844 1.393 . S
C2619 C16 1.569 . S
C2627 C940 1.459 . S
C2651 C27 1.518 . S
C2659 C760 1.386 . S
