# Generated by pormake.
# Topology pyr, (3,6)-cn, num edge types: 1
# Building blocks:
#     Node 0, Type 0, BuildingBlock: BETDIP_clean_linker_0, # of connection points: 3
#     Node 1, Type 0, BuildingBlock: BETDIP_clean_linker_0, # of connection points: 3
#     Node 2, Type 0, BuildingBlock: BETDIP_clean_linker_0, # of connection points: 3
#     Node 3, Type 0, BuildingBlock: BETDIP_clean_linker_0, # of connection points: 3
#     Node 4, Type 0, BuildingBlock: BETDIP_clean_linker_0, # of connection points: 3
#     Node 5, Type 0, BuildingBlock: BETDIP_clean_linker_0, # of connection points: 3
#     Node 6, Type 0, BuildingBlock: BETDIP_clean_linker_0, # of connection points: 3
#     Node 7, Type 0, BuildingBlock: BETDIP_clean_linker_0, # of connection points: 3
#     Node 8, Type 1, BuildingBlock: BETGAK_clean_sbu_0, # of connection points: 6
#     Node 9, Type 1, BuildingBlock: BETGAK_clean_sbu_0, # of connection points: 6
#     Node 10, Type 1, BuildingBlock: BETGAK_clean_sbu_0, # of connection points: 6
#     Node 11, Type 1, BuildingBlock: BETGAK_clean_sbu_0, # of connection points: 6
#     Edge 12, Type (0, 1), BuildingBlock: KIFKEQ_clean_linker_1, # of connection points: 2
#     Edge 13, Type (0, 1), BuildingBlock: KIFKEQ_clean_linker_1, # of connection points: 2
#     Edge 14, Type (0, 1), BuildingBlock: KIFKEQ_clean_linker_1, # of connection points: 2
#     Edge 15, Type (0, 1), BuildingBlock: KIFKEQ_clean_linker_1, # of connection points: 2
#     Edge 16, Type (0, 1), BuildingBlock: KIFKEQ_clean_linker_1, # of connection points: 2
#     Edge 17, Type (0, 1), BuildingBlock: KIFKEQ_clean_linker_1, # of connection points: 2
#     Edge 18, Type (0, 1), BuildingBlock: KIFKEQ_clean_linker_1, # of connection points: 2
#     Edge 19, Type (0, 1), BuildingBlock: KIFKEQ_clean_linker_1, # of connection points: 2
#     Edge 20, Type (0, 1), BuildingBlock: KIFKEQ_clean_linker_1, # of connection points: 2
#     Edge 21, Type (0, 1), BuildingBlock: KIFKEQ_clean_linker_1, # of connection points: 2
#     Edge 22, Type (0, 1), BuildingBlock: KIFKEQ_clean_linker_1, # of connection points: 2
#     Edge 23, Type (0, 1), BuildingBlock: KIFKEQ_clean_linker_1, # of connection points: 2
#     Edge 24, Type (0, 1), BuildingBlock: KIFKEQ_clean_linker_1, # of connection points: 2
#     Edge 25, Type (0, 1), BuildingBlock: KIFKEQ_clean_linker_1, # of connection points: 2
#     Edge 26, Type (0, 1), BuildingBlock: KIFKEQ_clean_linker_1, # of connection points: 2
#     Edge 27, Type (0, 1), BuildingBlock: KIFKEQ_clean_linker_1, # of connection points: 2
#     Edge 28, Type (0, 1), BuildingBlock: KIFKEQ_clean_linker_1, # of connection points: 2
#     Edge 29, Type (0, 1), BuildingBlock: KIFKEQ_clean_linker_1, # of connection points: 2
#     Edge 30, Type (0, 1), BuildingBlock: KIFKEQ_clean_linker_1, # of connection points: 2
#     Edge 31, Type (0, 1), BuildingBlock: KIFKEQ_clean_linker_1, # of connection points: 2
#     Edge 32, Type (0, 1), BuildingBlock: KIFKEQ_clean_linker_1, # of connection points: 2
#     Edge 33, Type (0, 1), BuildingBlock: KIFKEQ_clean_linker_1, # of connection points: 2
#     Edge 34, Type (0, 1), BuildingBlock: KIFKEQ_clean_linker_1, # of connection points: 2
#     Edge 35, Type (0, 1), BuildingBlock: KIFKEQ_clean_linker_1, # of connection points: 2
# Relax obj value: 0.129
# Max RMSD: 0.168
# Mean RMSD: 0.137
data_MOF--net-pyr--node1-BETGAK_clean_sbu_0--node2-BETDIP_clean_linker_0--edge1-KIFKEQ_clean_linker_1
_symmetry_space_group_name_H-M    P1
_symmetry_Int_Tables_number       1
_symmetry_cell_setting            triclinic
loop_
_symmetry_equiv_pos_as_xyz
'x, y, z'
_cell_length_a     40.002994
_cell_length_b     38.869031
_cell_length_c     36.507438
_cell_angle_alpha  90.808972
_cell_angle_beta   87.343542
_cell_angle_gamma 107.16454
loop_
_atom_site_label
_atom_site_type_symbol
_atom_site_fract_x
_atom_site_fract_y
_atom_site_fract_z
_atom_type_partial_charge
H0 H 0.31178 0.36194 0.25351 0.0
H1 H 0.38742 0.3378 0.17817 0.0
H2 H 0.33649 0.26208 0.26277 0.0
H3 H 0.3508 0.42488 0.2348 0.0
C4 C 0.34241 0.41467 0.20781 0.0
C5 C 0.3269 0.34421 0.24444 0.0
C6 C 0.32127 0.31098 0.26213 0.0
C7 C 0.3506 0.35389 0.21404 0.0
C8 C 0.36953 0.33049 0.20193 0.0
C9 C 0.3654 0.2978 0.22021 0.0
C10 C 0.34121 0.28827 0.2502 0.0
N11 N 0.35335 0.38542 0.1934 0.0
H12 H 0.19502 0.88226 0.70705 0.0
H13 H 0.21431 0.82543 0.60998 0.0
H14 H 0.29755 0.87173 0.68184 0.0
H15 H 0.16389 0.82928 0.59255 0.0
C16 C 0.15273 0.84413 0.61256 0.0
C17 C 0.21272 0.87224 0.68955 0.0
C18 C 0.248 0.87981 0.69804 0.0
C19 C 0.20037 0.85337 0.65752 0.0
C20 C 0.22335 0.84069 0.63441 0.0
C21 C 0.25854 0.84766 0.64293 0.0
C22 C 0.27061 0.86729 0.67463 0.0
N23 N 0.16538 0.84984 0.64852 0.0
H24 H 0.71212 0.44974 0.87584 0.0
H25 H 0.61951 0.35868 0.87638 0.0
H26 H 0.70284 0.36068 0.94785 0.0
H27 H 0.59584 0.39985 0.853 0.0
C28 C 0.61632 0.41629 0.83468 0.0
C29 C 0.69722 0.4236 0.88664 0.0
C30 C 0.71115 0.4075 0.91411 0.0
C31 C 0.66429 0.40627 0.87267 0.0
C32 C 0.6449 0.37215 0.88682 0.0
C33 C 0.6583 0.35527 0.91436 0.0
C34 C 0.69172 0.37324 0.92724 0.0
N35 N 0.65206 0.42346 0.84383 0.0
H36 H 0.79537 0.65919 0.38359 0.0
H37 H 0.88439 0.75346 0.37089 0.0
H38 H 0.80306 0.7523 0.45193 0.0
H39 H 0.90949 0.71469 0.34374 0.0
C40 C 0.889 0.69476 0.32995 0.0
C41 C 0.80905 0.68644 0.3917 0.0
C42 C 0.795 0.70328 0.42041 0.0
C43 C 0.84134 0.70395 0.37381 0.0
C44 C 0.85986 0.73914 0.38477 0.0
C45 C 0.84612 0.75665 0.41308 0.0
C46 C 0.81365 0.73863 0.43034 0.0
N47 N 0.85382 0.68558 0.34454 0.0
H48 H 0.63839 0.82014 0.9618 0.0
H49 H 0.71666 0.79697 0.88982 0.0
H50 H 0.68437 0.89094 0.87112 0.0
H51 H 0.67323 0.7332 0.90691 0.0
C52 C 0.68234 0.74285 0.93384 0.0
C53 C 0.65553 0.82676 0.93743 0.0
C54 C 0.65837 0.8584 0.91755 0.0
C55 C 0.67554 0.80392 0.92671 0.0
C56 C 0.69949 0.81331 0.89655 0.0
C57 C 0.70344 0.84512 0.87693 0.0
C58 C 0.68207 0.86692 0.88695 0.0
N59 N 0.6739 0.77344 0.94853 0.0
H60 H 0.81567 0.25422 0.41601 0.0
H61 H 0.80367 0.30595 0.51862 0.0
H62 H 0.74869 0.32283 0.42566 0.0
H63 H 0.81474 0.25631 0.54129 0.0
C64 C 0.83327 0.24993 0.52165 0.0
C65 C 0.80429 0.27199 0.43199 0.0
C66 C 0.78129 0.28795 0.41595 0.0
C67 C 0.81183 0.27757 0.46904 0.0
C68 C 0.79746 0.30069 0.49015 0.0
C69 C 0.77547 0.31781 0.47413 0.0
C70 C 0.76732 0.31114 0.43724 0.0
N71 N 0.83359 0.25898 0.48408 0.0
H72 H 0.29941 0.67406 0.25271 0.0
H73 H 0.3883 0.76844 0.25985 0.0
H74 H 0.31152 0.76269 0.17932 0.0
H75 H 0.39007 0.74855 0.31682 0.0
C76 C 0.38117 0.71935 0.31582 0.0
C77 C 0.31411 0.70069 0.24301 0.0
C78 C 0.30126 0.71667 0.21456 0.0
C79 C 0.34518 0.71922 0.26004 0.0
C80 C 0.3642 0.75406 0.24734 0.0
C81 C 0.35229 0.77039 0.21822 0.0
C82 C 0.32073 0.75121 0.20227 0.0
N83 N 0.35666 0.70175 0.28925 0.0
H84 H 0.12214 0.35731 0.75714 0.0
H85 H 0.2094 0.45405 0.75578 0.0
H86 H 0.21082 0.36767 0.68191 0.0
H87 H 0.19291 0.45386 0.81658 0.0
C88 C 0.1645 0.44587 0.81659 0.0
C89 C 0.14765 0.37274 0.74598 0.0
C90 C 0.16445 0.35809 0.71769 0.0
C91 C 0.16406 0.40676 0.76092 0.0
C92 C 0.19693 0.42715 0.74584 0.0
C93 C 0.21393 0.41293 0.71758 0.0
C94 C 0.19781 0.37831 0.70408 0.0
N95 N 0.14678 0.41989 0.79065 0.0
La96 La 0.0134 0.07654 0.52289 0.0
La97 La 0.00898 1.04073 0.59617 0.0
C98 C 0.01533 0.11787 0.46986 0.0
C99 C 0.04446 0.145 0.45067 0.0
C100 C 0.05327 0.13878 0.41402 0.0
C101 C 0.08381 0.16074 0.3968 0.0
C102 C 0.10585 0.1897 0.4157 0.0
C103 C 0.09613 0.19728 0.45167 0.0
C104 C 0.06578 0.17492 0.46917 0.0
C105 C 0.0616 1.04361 0.53273 0.0
C106 C 0.05129 0.12105 0.59144 0.0
C107 C 0.00765 0.99898 0.64872 0.0
C108 C 0.97808 0.9729 0.66776 0.0
C109 C 0.94459 0.96483 0.6537 0.0
C110 C 0.91533 0.94474 0.67441 0.0
C111 C 0.91906 0.93249 0.70962 0.0
C112 C 0.95294 0.93916 0.72278 0.0
C113 C 0.98224 0.95934 0.70201 0.0
C114 C 0.96039 0.07299 0.58647 0.0
C115 C 0.97113 0.99628 0.52755 0.0
O116 O 0.01631 0.0847 0.46611 0.0
O117 O 0.00696 0.12489 0.50366 0.0
O118 O 0.04912 1.0469 0.50146 0.0
O119 O 0.04953 0.06131 0.55589 0.0
O120 O 0.03556 0.1217 0.56038 0.0
O121 O 0.05049 0.09008 0.60664 0.0
O122 O 0.00776 1.03245 0.65285 0.0
O123 O 0.01409 0.99157 0.61454 0.0
O124 O 0.97245 0.06941 0.61789 0.0
O125 O 0.97275 1.05575 0.5631 0.0
O126 O 0.98706 0.99564 0.55848 0.0
O127 O 0.97177 1.02726 0.51247 0.0
H128 H 0.03723 0.11599 0.39916 0.0
H129 H 0.0906 0.15468 0.36887 0.0
H130 H 0.1128 0.21949 0.46675 0.0
H131 H 0.05975 0.18037 0.4975 0.0
H132 H 0.94092 0.9755 0.62741 0.0
H133 H 0.88966 0.94053 0.66363 0.0
H134 H 0.9567 0.92968 0.74959 0.0
H135 H 0.00793 0.96551 0.71327 0.0
La136 La 0.53439 0.07922 0.09439 0.0
La137 La 0.47009 1.05625 1.05225 0.0
C138 C 0.59026 0.10915 0.12553 0.0
C139 C 0.61001 0.14179 0.14481 0.0
C140 C 0.59618 0.15401 0.17678 0.0
C141 C 0.61806 0.17976 0.19905 0.0
C142 C 0.65404 0.19363 0.18968 0.0
C143 C 0.66704 0.18351 0.15611 0.0
C144 C 0.64522 0.15773 0.13396 0.0
C145 C 0.4935 1.01308 0.10949 0.0
C146 C 0.47229 0.11002 0.11861 0.0
C147 C 0.40928 1.03099 1.02928 0.0
C148 C 0.39287 1.01743 0.99483 0.0
C149 C 0.4114 1.02607 0.96103 0.0
C150 C 0.39499 1.0134 0.92846 0.0
C151 C 0.35987 0.99171 0.92924 0.0
C152 C 0.3416 0.98299 0.96333 0.0
C153 C 0.35799 0.9958 0.99582 0.0
C154 C 0.52075 0.11058 1.02234 0.0
C155 C 0.53298 1.02877 1.02729 0.0
O156 O 0.56209 0.08822 0.14243 0.0
O157 O 0.58678 0.11163 0.09019 0.0
O158 O 0.52727 1.02261 0.10783 0.0
O159 O 0.48364 1.04042 0.10398 0.0
O160 O 0.50579 0.11294 0.12177 0.0
O161 O 0.45286 0.08711 0.09545 0.0
O162 O 0.42612 0.06541 1.03018 0.0
O163 O 0.42652 1.01132 1.04424 0.0
O164 O 0.49974 0.08519 1.00385 0.0
O165 O 0.51193 0.10548 1.05578 0.0
O166 O 0.49844 1.01991 1.03015 0.0
O167 O 0.5525 1.05675 1.04514 0.0
H168 H 0.56903 0.14223 0.18571 0.0
H169 H 0.60726 0.18685 0.22481 0.0
H170 H 0.6945 0.1942 0.14786 0.0
H171 H 0.65638 0.14873 0.10936 0.0
H172 H 0.43842 1.04276 0.95983 0.0
H173 H 0.40968 1.02093 0.90267 0.0
H174 H 0.31475 0.96586 0.96495 0.0
H175 H 0.34341 0.9888 1.02178 0.0
La176 La 0.50274 0.53514 0.54541 0.0
La177 La 0.50274 0.59511 0.59548 0.0
C178 C 0.52237 0.48873 0.50923 0.0
C179 C 0.54899 0.47059 0.51633 0.0
C180 C 0.54612 0.44868 0.54741 0.0
C181 C 0.57328 0.43451 0.55533 0.0
C182 C 0.60385 0.44248 0.53263 0.0
C183 C 0.6065 0.464 0.50142 0.0
C184 C 0.57924 0.47774 0.49325 0.0
C185 C 0.44219 0.52863 0.58043 0.0
C186 C 0.53054 0.53627 0.62716 0.0
C187 C 0.48643 0.6439 0.63109 0.0
C188 C 0.46619 0.66838 0.62164 0.0
C189 C 0.48235 0.70566 0.62146 0.0
C190 C 0.46389 0.72921 0.61147 0.0
C191 C 0.42872 0.7159 0.60188 0.0
C192 C 0.41278 0.67845 0.60159 0.0
C193 C 0.43134 0.65493 0.61118 0.0
C194 C 0.56323 0.60055 0.56071 0.0
C195 C 0.47307 0.59336 0.51437 0.0
O196 O 0.49427 0.48084 0.53109 0.0
O197 O 0.53477 0.52337 0.50302 0.0
O198 O 0.44547 0.5181 0.54693 0.0
O199 O 0.47204 0.54027 0.59349 0.0
O200 O 0.53224 0.52565 0.59254 0.0
O201 O 0.51561 0.56149 0.63611 0.0
O202 O 0.51639 0.64899 0.61285 0.0
O203 O 0.46906 0.60968 0.63425 0.0
O204 O 0.56002 0.6102 0.59449 0.0
O205 O 0.53342 0.5899 0.54746 0.0
O206 O 0.47404 0.60574 0.54852 0.0
O207 O 0.48609 0.56673 0.50528 0.0
H208 H 0.52325 0.44296 0.56598 0.0
H209 H 0.57068 0.4179 0.57949 0.0
H210 H 0.62958 0.46993 0.48311 0.0
H211 H 0.5821 0.49458 0.46921 0.0
H212 H 0.50934 0.71659 0.62894 0.0
H213 H 0.47714 0.75786 0.61146 0.0
H214 H 0.3856 0.66723 0.59497 0.0
H215 H 0.41825 0.62625 0.61059 0.0
La216 La 0.00621 0.52733 0.07838 0.0
La217 La 0.00705 0.59884 1.04806 0.0
C218 C 0.02381 0.47247 0.09438 0.0
C219 C 0.05727 0.46686 0.10364 0.0
C220 C 0.05745 0.4404 0.12921 0.0
C221 C 0.08911 0.43565 0.13928 0.0
C222 C 0.12119 0.45731 0.12387 0.0
C223 C 0.12087 0.4837 0.09804 0.0
C224 C 0.08922 0.4885 0.08808 0.0
C225 C 0.9714 0.56303 0.11914 0.0
C226 C 0.07181 0.59767 0.0914 0.0
C227 C 0.99052 0.6545 1.03242 0.0
C228 C 0.95763 0.662 1.02449 0.0
C229 C 0.95864 0.69245 1.00392 0.0
C230 C 0.92761 0.70003 0.99629 0.0
C231 C 0.89497 0.67719 1.00907 0.0
C232 C 0.89412 0.64652 1.02955 0.0
C233 C 0.92517 0.63903 1.03723 0.0
C234 C 0.04304 0.56403 1.0081 0.0
C235 C 0.9416 0.52819 1.03496 0.0
O236 O 0.01056 0.49066 0.11839 0.0
O237 O 0.02189 0.48268 0.06072 0.0
O238 O 0.9622 0.52819 0.1162 0.0
O239 O 1.00006 0.57603 0.1014 0.0
O240 O 0.05917 0.56206 0.09031 0.0
O241 O 0.05416 0.61865 0.07891 0.0
O242 O 1.00195 0.63517 1.00805 0.0
O243 O 0.99285 0.64424 0.06595 0.0
O244 O 0.05175 0.59883 1.01127 0.0
O245 O 0.01397 0.55043 1.02498 0.0
O246 O 0.95409 0.56384 1.03616 0.0
O247 O 0.95928 0.5073 1.04748 0.0
H248 H 0.03308 0.42352 0.14157 0.0
H249 H 0.08846 0.41484 0.15895 0.0
H250 H 0.14513 0.50112 0.08604 0.0
H251 H 0.08977 0.50931 0.06844 0.0
H252 H 0.98346 0.71039 0.99374 0.0
H253 H 0.92917 0.72356 0.97999 0.0
H254 H 0.86948 0.62859 1.04013 0.0
H255 H 0.92379 0.61543 1.05334 0.0
H256 H 0.25647 0.3217 0.264 0.0
H257 H 0.31996 0.27121 0.32424 0.0
H258 H 0.20714 0.29635 0.30668 0.0
H259 H 0.26972 0.24457 0.36605 0.0
H260 H 0.15623 0.16333 0.38504 0.0
H261 H 0.21106 0.19671 0.35326 0.0
H262 H 0.18675 0.29633 0.37529 0.0
H263 H 0.13178 0.26274 0.40756 0.0
C264 C 0.26027 0.30591 0.28677 0.0
C265 C 0.29235 0.29848 0.29052 0.0
C266 C 0.23185 0.29127 0.31116 0.0
C267 C 0.23463 0.26845 0.33952 0.0
C268 C 0.26687 0.26188 0.34415 0.0
C269 C 0.29552 0.27697 0.32008 0.0
C270 C 0.16276 0.19239 0.38327 0.0
C271 C 0.13978 0.21053 0.39838 0.0
C272 C 0.19422 0.21148 0.36543 0.0
C273 C 0.20309 0.24905 0.36192 0.0
C274 C 0.18041 0.26733 0.37762 0.0
C275 C 0.14913 0.24822 0.39607 0.0
H276 H 0.218 0.87244 0.76759 0.0
H277 H 0.30906 0.93382 0.70357 0.0
H278 H 0.24405 0.90215 0.82335 0.0
H279 H 0.33506 0.9633 0.75913 0.0
H280 H 0.38774 0.96585 0.86896 0.0
H281 H 0.35908 0.94211 0.81272 0.0
H282 H 0.26373 0.9616 0.85522 0.0
H283 H 0.29257 0.98593 0.9115 0.0
C284 C 0.24327 0.8927 0.76538 0.0
C285 C 0.2617 0.90048 0.73133 0.0
C286 C 0.25819 0.90968 0.79725 0.0
C287 C 0.29178 0.93469 0.7956 0.0
C288 C 0.30946 0.94358 0.76133 0.0
C289 C 0.29456 0.92672 0.72955 0.0
C290 C 0.36083 0.9656 0.86616 0.0
C291 C 0.34247 0.97783 0.89472 0.0
C292 C 0.3444 0.95196 0.83394 0.0
C293 C 0.30919 0.95011 0.82956 0.0
C294 C 0.29079 0.96238 0.85802 0.0
C295 C 0.30729 0.97621 0.89023 0.0
H296 H 0.55115 0.41953 0.82223 0.0
H297 H 0.65688 0.45329 0.77585 0.0
H298 H 0.53175 0.44847 0.77177 0.0
H299 H 0.63732 0.48204 0.72477 0.0
H300 H 0.57473 0.49349 0.62039 0.0
H301 H 0.59706 0.46511 0.66961 0.0
H302 H 0.54089 0.51184 0.75002 0.0
H303 H 0.51892 0.54029 0.70127 0.0
C304 C 0.57028 0.43317 0.8012 0.0
C305 C 0.60558 0.43428 0.80326 0.0
C306 C 0.55918 0.44987 0.77229 0.0
C307 C 0.58295 0.46775 0.74419 0.0
C308 C 0.61827 0.46838 0.74584 0.0
C309 C 0.62953 0.4521 0.77523 0.0
C310 C 0.56723 0.49778 0.64858 0.0
C311 C 0.54493 0.51922 0.65672 0.0
C312 C 0.5802 0.48166 0.67681 0.0
C313 C 0.5707 0.48605 0.71385 0.0
C314 C 0.54851 0.50756 0.72186 0.0
C315 C 0.53603 0.52406 0.6938 0.0
H316 H 0.95465 0.70176 0.30255 0.0
H317 H 0.8466 0.64415 0.285 0.0
H318 H 0.9731 0.67036 0.25085 0.0
H319 H 0.86484 0.61336 0.23235 0.0
H320 H 0.91397 0.53695 0.16547 0.0
H321 H 0.89291 0.5687 0.21547 0.0
H322 H 0.97462 0.66629 0.18626 0.0
H323 H 0.9964 0.63405 0.13755 0.0
C324 C 0.93481 0.6825 0.28741 0.0
C325 C 0.89924 0.6754 0.29794 0.0
C326 C 0.94534 0.66465 0.25751 0.0
C327 C 0.92052 0.63932 0.23705 0.0
C328 C 0.88479 0.63231 0.24761 0.0
C329 C 0.87427 0.6501 0.27773 0.0
C330 C 0.92727 0.56524 0.16968 0.0
C331 C 0.95682 0.58299 0.14751 0.0
C332 C 0.91508 0.58356 0.19824 0.0
C333 C 0.93211 0.62015 0.20526 0.0
C334 C 0.96114 0.63802 0.18228 0.0
C335 C 0.97342 0.61964 0.15394 0.0
H336 H 0.37229 0.2759 0.14971 0.0
H337 H 0.40038 0.26138 0.25998 0.0
H338 H 0.39916 0.23019 0.12772 0.0
H339 H 0.42725 0.21539 0.2379 0.0
H340 H 0.50254 0.16232 0.16864 0.0
H341 H 0.47835 0.20885 0.19466 0.0
H342 H 0.38302 0.1626 0.13805 0.0
H343 H 0.40668 0.11626 0.11233 0.0
C344 C 0.38464 0.26328 0.16914 0.0
C345 C 0.38422 0.27215 0.20654 0.0
C346 C 0.39972 0.23689 0.15664 0.0
C347 C 0.41502 0.21906 0.18118 0.0
C348 C 0.4157 0.22877 0.2184 0.0
C349 C 0.40019 0.25489 0.23102 0.0
C350 C 0.47625 0.1618 0.16215 0.0
C351 C 0.45666 0.13562 0.13822 0.0
C352 C 0.46245 0.18844 0.17704 0.0
C353 C 0.42904 0.18959 0.1679 0.0
C354 C 0.40909 0.16273 0.14504 0.0
C355 C 0.42264 0.13599 0.13053 0.0
H356 H 0.15013 0.86455 0.54233 0.0
H357 H 0.11243 0.87778 0.65277 0.0
H358 H 0.12737 0.91233 0.52139 0.0
H359 H 0.0884 0.92441 0.63185 0.0
H360 H 0.05983 0.98385 0.49221 0.0
H361 H 0.07742 0.93185 0.51073 0.0
H362 H 0.1124 0.98527 0.61284 0.0
H363 H 0.09346 1.03645 0.59475 0.0
C364 C 0.13617 0.87712 0.56188 0.0
C365 C 0.13338 0.86795 0.59913 0.0
C366 C 0.12311 0.90444 0.54995 0.0
C367 C 0.10665 0.92269 0.57509 0.0
C368 C 0.10188 0.91167 0.61198 0.0
C369 C 0.11532 0.88474 0.62393 0.0
C370 C 0.07161 0.98448 0.51844 0.0
C371 C 0.07545 1.01402 0.54211 0.0
C372 C 0.08165 0.95473 0.52907 0.0
C373 C 0.09603 0.95422 0.56341 0.0
C374 C 0.10065 0.98437 0.58658 0.0
C375 C 0.09026 1.01388 0.57609 0.0
H376 H 0.76581 0.38047 0.92541 0.0
H377 H 0.73464 0.47721 0.93866 0.0
H378 H 0.82094 0.40999 0.95366 0.0
H379 H 0.78919 0.50659 0.96842 0.0
H380 H 0.9038 0.56059 0.9935 0.0
H381 H 0.84954 0.5325 0.96302 0.0
H382 H 0.84653 0.42955 1.00869 0.0
H383 H 0.90158 0.45745 1.03761 0.0
C384 C 0.7707 0.40807 0.9346 0.0
C385 C 0.74574 0.42642 0.92978 0.0
C386 C 0.80232 0.42504 0.95115 0.0
C387 C 0.80984 0.46081 0.96395 0.0
C388 C 0.78491 0.47929 0.95863 0.0
C389 C 0.75346 0.46241 0.94158 0.0
C390 C 0.89154 0.53194 0.99707 0.0
C391 C 0.90732 0.51132 1.01794 0.0
C392 C 0.86014 0.51574 0.97967 0.0
C393 C 0.84328 0.47846 0.98294 0.0
C394 C 0.85885 0.45808 1.00453 0.0
C395 C 0.89045 0.4742 1.02152 0.0
H396 H 0.7358 0.65492 0.39346 0.0
H397 H 0.77742 0.70772 0.49359 0.0
H398 H 0.68094 0.62495 0.4266 0.0
H399 H 0.72191 0.68077 0.52567 0.0
H400 H 0.62812 0.61073 0.58606 0.0
H401 H 0.68414 0.63029 0.55177 0.0
H402 H 0.62995 0.63313 0.45247 0.0
H403 H 0.57399 0.61108 0.48673 0.0
C404 C 0.73338 0.66022 0.4225 0.0
C405 C 0.76126 0.68415 0.44057 0.0
C406 C 0.70156 0.64339 0.44149 0.0
C407 C 0.6965 0.65034 0.47902 0.0
C408 C 0.72459 0.67401 0.49705 0.0
C409 C 0.75648 0.69024 0.47829 0.0
C410 C 0.62833 0.61516 0.5568 0.0
C411 C 0.59683 0.60971 0.53909 0.0
C412 C 0.66048 0.62676 0.53708 0.0
C413 C 0.66201 0.63413 0.49922 0.0
C414 C 0.63017 0.62749 0.48139 0.0
C415 C 0.59797 0.61506 0.50105 0.0
H416 H 0.30913 0.46061 0.23687 0.0
H417 H 0.30841 0.38978 0.14455 0.0
H418 H 0.25685 0.47298 0.21549 0.0
H419 H 0.25584 0.4017 0.1234 0.0
H420 H 0.17849 0.45682 0.07997 0.0
H421 H 0.23382 0.44928 0.09856 0.0
H422 H 0.19485 0.43889 0.21145 0.0
H423 H 0.14002 0.44737 0.19302 0.0
C424 C 0.2979 0.44793 0.21184 0.0
C425 C 0.31271 0.42419 0.19247 0.0
C426 C 0.26785 0.45478 0.19975 0.0
C427 C 0.25202 0.43808 0.16792 0.0
C428 C 0.26754 0.41518 0.14787 0.0
C429 C 0.29758 0.40825 0.16007 0.0
C430 C 0.18189 0.45325 0.10879 0.0
C431 C 0.15485 0.45265 0.13502 0.0
C432 C 0.21346 0.44861 0.11938 0.0
C433 C 0.21876 0.44354 0.15648 0.0
C434 C 0.19177 0.44316 0.1827 0.0
C435 C 0.16018 0.44759 0.1721 0.0
H436 H 0.61241 0.29753 0.87981 0.0
H437 H 0.65686 0.33023 0.98498 0.0
H438 H 0.57924 0.23961 0.90565 0.0
H439 H 0.62673 0.27138 1.00961 0.0
H440 H 0.54405 0.17496 0.05766 0.0
H441 H 0.57542 0.23335 1.0316 0.0
H442 H 0.57913 0.18366 0.92526 0.0
H443 H 0.54549 0.12558 0.95137 0.0
C444 C 0.61531 0.29255 0.90841 0.0
C445 C 0.63771 0.31911 0.93001 0.0
C446 C 0.59663 0.25877 0.92319 0.0
C447 C 0.60007 0.25011 0.95997 0.0
C448 C 0.62258 0.27669 0.98144 0.0
C449 C 0.64066 0.3106 0.9669 0.0
C450 C 0.55165 0.17655 1.02871 0.0
C451 C 0.54223 0.14564 1.00657 0.0
C452 C 0.56999 0.21017 1.01364 0.0
C453 C 0.58025 0.21386 0.97602 0.0
C454 C 0.57128 0.18252 0.95408 0.0
C455 C 0.55226 0.14897 0.9691 0.0
H456 H 0.91546 0.78219 0.42856 0.0
H457 H 0.82094 0.81408 0.42667 0.0
H458 H 0.9462 0.84074 0.45462 0.0
H459 H 0.85144 0.87232 0.45314 0.0
H460 H 0.92752 0.9857 0.46991 0.0
H461 H 0.89864 0.92894 0.43957 0.0
H462 H 0.94424 0.87203 0.51413 0.0
H463 H 0.97322 0.92864 0.54434 0.0
C464 C 0.90138 0.80186 0.43329 0.0
C465 C 0.86574 0.79343 0.42567 0.0
C466 C 0.91887 0.83525 0.44858 0.0
C467 C 0.90122 0.86114 0.45623 0.0
C468 C 0.86588 0.85312 0.44744 0.0
C469 C 0.84834 0.81964 0.4325 0.0
C470 C 0.93133 0.96108 0.4799 0.0
C471 C 0.95257 0.96176 0.5097 0.0
C472 C 0.91469 0.92852 0.46255 0.0
C473 C 0.9192 0.89592 0.47432 0.0
C474 C 0.94054 0.89667 0.50406 0.0
C475 C 0.95689 0.92913 0.52161 0.0
H476 H 0.32503 0.8827 0.61807 0.0
H477 H 0.24674 0.77884 0.61808 0.0
H478 H 0.36932 0.85495 0.59523 0.0
H479 H 0.29095 0.75106 0.59536 0.0
H480 H 0.43175 0.77892 0.63732 0.0
H481 H 0.3921 0.81506 0.6333 0.0
H482 H 0.33721 0.7451 0.54856 0.0
H483 H 0.37788 0.7091 0.55173 0.0
C484 C 0.31718 0.85407 0.61229 0.0
C485 C 0.28271 0.83272 0.62051 0.0
C486 C 0.34246 0.83825 0.59921 0.0
C487 C 0.33367 0.80081 0.59416 0.0
C488 C 0.29845 0.78003 0.59882 0.0
C489 C 0.27312 0.79589 0.61191 0.0
C490 C 0.4121 0.77182 0.61687 0.0
C491 C 0.40782 0.74083 0.59513 0.0
C492 C 0.3893 0.79263 0.61455 0.0
C493 C 0.3615 0.78282 0.59067 0.0
C494 C 0.35827 0.75304 0.56742 0.0
C495 C 0.38139 0.73236 0.56945 0.0
H496 H 0.72545 0.80473 0.82396 0.0
H497 H 0.7476 0.91301 0.86673 0.0
H498 H 0.77769 0.82384 0.78307 0.0
H499 H 0.79875 0.93229 0.82499 0.0
H500 H 0.90924 0.94524 0.78238 0.0
H501 H 0.85618 0.92277 0.82085 0.0
H502 H 0.80356 0.86176 0.72948 0.0
H503 H 0.85732 0.8832 0.69116 0.0
C504 C 0.74123 0.83266 0.82434 0.0
C505 C 0.73242 0.85731 0.8487 0.0
C506 C 0.77099 0.84364 0.80074 0.0
C507 C 0.79258 0.87947 0.80113 0.0
C508 C 0.78301 0.90434 0.82452 0.0
C509 C 0.75335 0.8934 0.84806 0.0
C510 C 0.88664 0.92643 0.77063 0.0
C511 C 0.88756 0.916 0.73367 0.0
C512 C 0.85602 0.914 0.79255 0.0
C513 C 0.82551 0.8909 0.77807 0.0
C514 C 0.82665 0.8795 0.74145 0.0
C515 C 0.85736 0.89198 0.71945 0.0
H516 H 0.76589 0.22164 0.38358 0.0
H517 H 0.76867 0.33179 0.3632 0.0
H518 H 0.74029 0.20392 0.32464 0.0
H519 H 0.74203 0.31361 0.30434 0.0
H520 H 0.7167 0.18527 0.20679 0.0
H521 H 0.75296 0.21253 0.25732 0.0
H522 H 0.68222 0.27464 0.28641 0.0
H523 H 0.64616 0.24796 0.23504 0.0
C524 C 0.76181 0.24227 0.36621 0.0
C525 C 0.76934 0.27816 0.37822 0.0
C526 C 0.74699 0.23205 0.33244 0.0
C527 C 0.73913 0.2574 0.30996 0.0
C528 C 0.74752 0.29348 0.32133 0.0
C529 C 0.76269 0.30381 0.35504 0.0
C530 C 0.70935 0.20552 0.22324 0.0
C531 C 0.67848 0.21441 0.21695 0.0
C532 C 0.72996 0.22082 0.25243 0.0
C533 C 0.72022 0.24541 0.27596 0.0
C534 C 0.69044 0.25587 0.26856 0.0
C535 C 0.66966 0.2404 0.23939 0.0
H536 H 0.36751 0.64558 0.32469 0.0
H537 H 0.42173 0.74773 0.37258 0.0
H538 H 0.38793 0.61431 0.37285 0.0
H539 H 0.44239 0.71678 0.42034 0.0
H540 H 0.44661 0.65103 0.52148 0.0
H541 H 0.42287 0.67972 0.47426 0.0
H542 H 0.44078 0.60336 0.3944 0.0
H543 H 0.46415 0.57433 0.44175 0.0
C544 C 0.38376 0.66138 0.34548 0.0
C545 C 0.39291 0.69922 0.3448 0.0
C546 C 0.39566 0.64346 0.37305 0.0
C547 C 0.41682 0.66289 0.40079 0.0
C548 C 0.42577 0.70074 0.39996 0.0
C549 C 0.41408 0.71857 0.37237 0.0
C550 C 0.44542 0.64019 0.49391 0.0
C551 C 0.45752 0.6103 0.4856 0.0
C552 C 0.43193 0.65685 0.46666 0.0
C553 C 0.42995 0.6441 0.43023 0.0
C554 C 0.44149 0.61382 0.42209 0.0
C555 C 0.45514 0.59725 0.44932 0.0
H556 H 0.19307 0.49097 0.8712 0.0
H557 H 0.09315 0.43446 0.82783 0.0
H558 H 0.16375 0.51732 0.91898 0.0
H559 H 0.06358 0.46153 0.87529 0.0
H560 H 0.10508 0.59152 0.97035 0.0
H561 H 0.13332 0.56171 0.9248 0.0
H562 H 0.04917 0.46293 0.94092 0.0
H563 H 0.0204 0.49337 0.98602 0.0
C564 C 0.16476 0.48424 0.87189 0.0
C565 C 0.14548 0.46076 0.8457 0.0
C566 C 0.14792 0.49951 0.89917 0.0
C567 C 0.11123 0.49185 0.90096 0.0
C568 C 0.09182 0.46782 0.87502 0.0
C569 C 0.10877 0.45245 0.84765 0.0
C570 C 0.09266 0.5634 0.96428 0.0
C571 C 0.06059 0.54477 0.98186 0.0
C572 C 0.10896 0.54618 0.93828 0.0
C573 C 0.09366 0.50978 0.92914 0.0
C574 C 0.06157 0.49105 0.94696 0.0
C575 C 0.04524 0.50836 0.97308 0.0
H576 H 0.59088 0.84219 0.94691 0.0
H577 H 0.68068 0.93219 0.91661 0.0
H578 H 0.55999 0.88393 0.97049 0.0
H579 H 0.64904 0.97364 0.93764 0.0
H580 H 0.60272 1.03517 1.02253 0.0
H581 H 0.63137 0.99421 0.99394 0.0
H582 H 0.53209 0.92841 0.95566 0.0
H583 H 0.50297 0.96907 0.98569 0.0
C584 C 0.60397 0.87082 0.94501 0.0
C585 C 0.63839 0.88368 0.92992 0.0
C586 C 0.58603 0.89481 0.95804 0.0
C587 C 0.60201 0.93225 0.95614 0.0
C588 C 0.63605 0.94503 0.94014 0.0
C589 C 0.65406 0.92113 0.9275 0.0
C590 C 0.58691 1.01219 1.00776 0.0
C591 C 0.55048 1.00543 1.00648 0.0
C592 C 0.60346 0.9887 0.99111 0.0
C593 C 0.58413 0.95792 0.97236 0.0
C594 C 0.54774 0.95157 0.97029 0.0
C595 C 0.53108 0.97504 0.98724 0.0
H596 H 0.82678 0.21436 0.58625 0.0
H597 H 0.88488 0.2311 0.48205 0.0
H598 H 0.85658 0.1706 0.60315 0.0
H599 H 0.91519 0.18834 0.49912 0.0
H600 H 0.93252 0.08089 0.52187 0.0
H601 H 0.90169 0.12421 0.50743 0.0
H602 H 0.91329 0.16519 0.61832 0.0
H603 H 0.94338 0.12111 0.63288 0.0
C604 C 0.84619 0.20893 0.5672 0.0
C605 C 0.8533 0.22578 0.5328 0.0
C606 C 0.86331 0.18402 0.57686 0.0
C607 C 0.88797 0.17573 0.55229 0.0
C608 C 0.89575 0.19351 0.51831 0.0
C609 C 0.87854 0.2182 0.50862 0.0
C610 C 0.92824 0.09904 0.54315 0.0
C611 C 0.94027 0.09782 0.57841 0.0
C612 C 0.91085 0.12401 0.53486 0.0
C613 C 0.9053 0.14835 0.56166 0.0
C614 C 0.91686 0.1466 0.59718 0.0
C615 C 0.93416 0.12149 0.60549 0.0
H616 H 0.27817 0.64694 0.18929 0.0
H617 H 0.24748 0.74405 0.20146 0.0
H618 H 0.22402 0.61793 0.15849 0.0
H619 H 0.19283 0.71496 0.1723 0.0
H620 H 0.1125 0.66817 0.08833 0.0
H621 H 0.16773 0.69559 0.11712 0.0
H622 H 0.16351 0.59251 0.16334 0.0
H623 H 0.10912 0.56489 0.13297 0.0
C624 C 0.25959 0.66192 0.18581 0.0
C625 C 0.26729 0.69789 0.19763 0.0
C626 C 0.22837 0.64527 0.16821 0.0
C627 C 0.20371 0.66398 0.16238 0.0
C628 C 0.21127 0.69974 0.17514 0.0
C629 C 0.24262 0.71647 0.1922 0.0
C630 C 0.12342 0.6513 0.10451 0.0
C631 C 0.10616 0.61429 0.10831 0.0
C632 C 0.15512 0.66713 0.12141 0.0
C633 C 0.17038 0.64657 0.14315 0.0
C634 C 0.15316 0.60938 0.14658 0.0
C635 C 0.12167 0.59347 0.12926 0.0
H636 H 0.22945 0.4768 0.68107 0.0
H637 H 0.2754 0.39635 0.71689 0.0
H638 H 0.28525 0.50908 0.64929 0.0
H639 H 0.33138 0.42908 0.68613 0.0
H640 H 0.43373 0.51989 0.65469 0.0
H641 H 0.3787 0.49501 0.69064 0.0
H642 H 0.32084 0.48783 0.59256 0.0
H643 H 0.37591 0.5117 0.55639 0.0
C644 C 0.2517 0.46645 0.68261 0.0
C645 C 0.24833 0.43422 0.70137 0.0
C646 C 0.28345 0.48475 0.66437 0.0
C647 C 0.31255 0.47157 0.66538 0.0
C648 C 0.30942 0.43995 0.68519 0.0
C649 C 0.27748 0.42122 0.70266 0.0
C650 C 0.40923 0.51333 0.6409 0.0
C651 C 0.409 0.51747 0.60274 0.0
C652 C 0.37783 0.49902 0.66144 0.0
C653 C 0.34561 0.48948 0.64432 0.0
C654 C 0.34533 0.49515 0.60642 0.0
C655 C 0.37677 0.50866 0.58575 0.0
H656 H 0.70875 0.6911 0.90595 0.0
H657 H 0.71917 0.76644 0.99576 0.0
H658 H 0.75871 0.67375 0.92643 0.0
H659 H 0.76882 0.74873 1.0167 0.0
H660 H 0.88247 0.74274 1.01089 0.0
H661 H 0.82924 0.75654 0.9954 0.0
H662 H 0.77908 0.64373 0.97488 0.0
H663 H 0.83282 0.6301 0.98906 0.0
C664 C 0.72144 0.70351 0.93042 0.0
C665 C 0.71019 0.73014 0.94916 0.0
C666 C 0.74996 0.6935 0.94225 0.0
C667 C 0.76789 0.70997 0.97312 0.0
C668 C 0.7559 0.7359 0.99252 0.0
C669 C 0.72731 0.74588 0.98068 0.0
C670 C 0.86016 0.7209 1.00286 0.0
C671 C 0.862 0.68534 1.00101 0.0
C672 C 0.82947 0.72875 0.99445 0.0
C673 C 0.79985 0.70123 0.98395 0.0
C674 C 0.80152 0.6656 0.98256 0.0
C675 C 0.83222 0.65774 0.99103 0.0
H676 H 0.32723 0.8233 0.19037 0.0
H677 H 0.42411 0.80154 0.21307 0.0
H678 H 0.3599 0.88011 0.16244 0.0
H679 H 0.45682 0.85998 0.18838 0.0
H680 H 0.51023 0.95038 0.11025 0.0
H681 H 0.47606 0.89263 0.1359 0.0
H682 H 0.39323 0.93874 0.16905 0.0
H683 H 0.42695 0.9959 0.14106 0.0
C684 C 0.35553 0.83053 0.1896 0.0
C685 C 0.37274 0.80707 0.20378 0.0
C686 C 0.37445 0.86375 0.17402 0.0
C687 C 0.41134 0.87517 0.17268 0.0
C688 C 0.42854 0.85219 0.18789 0.0
C689 C 0.40961 0.81864 0.20288 0.0
C690 C 0.48456 0.948 0.1228 0.0
C691 C 0.4713 0.97768 0.12368 0.0
C692 C 0.46499 0.91488 0.13798 0.0
C693 C 0.43173 0.91055 0.15528 0.0
C694 C 0.41837 0.94041 0.15569 0.0
C695 C 0.43777 0.97342 0.13978 0.0
H696 H 0.09683 0.33127 0.6965 0.0
H697 H 0.19336 0.30364 0.70213 0.0
H698 H 0.0699 0.27368 0.66646 0.0
H699 H 0.16661 0.24631 0.67178 0.0
H700 H 0.0932 0.13152 0.65052 0.0
H701 H 0.11999 0.18799 0.68238 0.0
H702 H 0.07657 0.24509 0.60592 0.0
H703 H 0.04976 0.18879 0.57408 0.0
C704 C 0.11218 0.31275 0.69165 0.0
C705 C 0.14725 0.32207 0.70163 0.0
C706 C 0.09688 0.27993 0.6741 0.0
C707 C 0.11617 0.25547 0.66652 0.0
C708 C 0.15097 0.26442 0.67736 0.0
C709 C 0.16636 0.29738 0.69453 0.0
C710 C 0.08952 0.15613 0.64036 0.0
C711 C 0.06935 0.15555 0.60967 0.0
C712 C 0.10495 0.18852 0.65859 0.0
C713 C 0.10025 0.22104 0.64684 0.0
C714 C 0.08031 0.22047 0.61599 0.0
C715 C 0.06519 0.18818 0.59754 0.0
H716 H 0.73769 0.30262 0.53922 0.0
H717 H 0.77558 0.38532 0.457 0.0
H718 H 0.7004 0.33658 0.56745 0.0
H719 H 0.73825 0.4188 0.48435 0.0
H720 H 0.67325 0.47836 0.53536 0.0
H721 H 0.72156 0.45189 0.53473 0.0
H722 H 0.64716 0.34581 0.54463 0.0
H723 H 0.59909 0.3725 0.54623 0.0
C724 C 0.73875 0.32855 0.52791 0.0
C725 C 0.75906 0.34132 0.49579 0.0
C726 C 0.71729 0.34783 0.54384 0.0
C727 C 0.71613 0.38021 0.52798 0.0
C728 C 0.73873 0.3942 0.49759 0.0
C729 C 0.75991 0.37491 0.48165 0.0
C730 C 0.66741 0.44946 0.53829 0.0
C731 C 0.6326 0.42732 0.5401 0.0
C732 C 0.69497 0.43432 0.53795 0.0
C733 C 0.68817 0.39674 0.53891 0.0
C734 C 0.65334 0.37487 0.54409 0.0
C735 C 0.62576 0.39009 0.5448 0.0
loop_
_geom_bond_atom_site_label_1
_geom_bond_atom_site_label_2
_geom_bond_distance
_geom_bond_site_symmetry_2
_ccdc_geom_bond_type
H0 C5 0.930 . S
H1 C8 0.930 . S
H2 C10 0.930 . S
H3 C4 1.016 . S
C4 H3 1.016 . S
C4 N11 1.286 . S
C5 H0 0.930 . S
C5 C6 1.397 . S
C5 C7 1.361 . S
C6 C5 1.397 . S
C6 C10 1.390 . S
C7 C5 1.361 . S
C7 C8 1.393 . S
C7 N11 1.413 . S
C8 H1 0.930 . S
C8 C7 1.393 . S
C8 C9 1.399 . S
C9 C8 1.399 . S
C9 C10 1.381 . S
C10 H2 0.930 . S
C10 C6 1.390 . S
C10 C9 1.381 . S
N11 C4 1.286 . S
N11 C7 1.413 . S
H12 C17 0.930 . S
H13 C20 0.930 . S
H14 C22 0.930 . S
H15 C16 1.016 . S
C16 H15 1.016 . S
C16 N23 1.286 . S
C17 H12 0.930 . S
C17 C18 1.397 . S
C17 C19 1.361 . S
C18 C17 1.397 . S
C18 C22 1.390 . S
C19 C17 1.361 . S
C19 C20 1.393 . S
C19 N23 1.413 . S
C20 H13 0.930 . S
C20 C19 1.393 . S
C20 C21 1.399 . S
C21 C20 1.399 . S
C21 C22 1.381 . S
C22 H14 0.930 . S
C22 C18 1.390 . S
C22 C21 1.381 . S
N23 C16 1.286 . S
N23 C19 1.413 . S
H24 C29 0.930 . S
H25 C32 0.930 . S
H26 C34 0.930 . S
H27 C28 1.016 . S
C28 H27 1.016 . S
C28 N35 1.286 . S
C29 H24 0.930 . S
C29 C30 1.397 . S
C29 C31 1.361 . S
C30 C29 1.397 . S
C30 C34 1.390 . S
C31 C29 1.361 . S
C31 C32 1.393 . S
C31 N35 1.413 . S
C32 H25 0.930 . S
C32 C31 1.393 . S
C32 C33 1.399 . S
C33 C32 1.399 . S
C33 C34 1.381 . S
C34 H26 0.930 . S
C34 C30 1.390 . S
C34 C33 1.381 . S
N35 C28 1.286 . S
N35 C31 1.413 . S
H36 C41 0.930 . S
H37 C44 0.930 . S
H38 C46 0.930 . S
H39 C40 1.016 . S
C40 H39 1.016 . S
C40 N47 1.286 . S
C41 H36 0.930 . S
C41 C42 1.397 . S
C41 C43 1.361 . S
C42 C41 1.397 . S
C42 C46 1.390 . S
C43 C41 1.361 . S
C43 C44 1.393 . S
C43 N47 1.413 . S
C44 H37 0.930 . S
C44 C43 1.393 . S
C44 C45 1.399 . S
C45 C44 1.399 . S
C45 C46 1.381 . S
C46 H38 0.930 . S
C46 C42 1.390 . S
C46 C45 1.381 . S
N47 C40 1.286 . S
N47 C43 1.413 . S
H48 C53 0.930 . S
H49 C56 0.930 . S
H50 C58 0.930 . S
H51 C52 1.016 . S
C52 H51 1.016 . S
C52 N59 1.286 . S
C53 H48 0.930 . S
C53 C54 1.397 . S
C53 C55 1.361 . S
C54 C53 1.397 . S
C54 C58 1.390 . S
C55 C53 1.361 . S
C55 C56 1.393 . S
C55 N59 1.413 . S
C56 H49 0.930 . S
C56 C55 1.393 . S
C56 C57 1.399 . S
C57 C56 1.399 . S
C57 C58 1.381 . S
C58 H50 0.930 . S
C58 C54 1.390 . S
C58 C57 1.381 . S
N59 C52 1.286 . S
N59 C55 1.413 . S
H60 C65 0.930 . S
H61 C68 0.930 . S
H62 C70 0.930 . S
H63 C64 1.016 . S
C64 H63 1.016 . S
C64 N71 1.286 . S
C65 H60 0.930 . S
C65 C66 1.397 . S
C65 C67 1.361 . S
C66 C65 1.397 . S
C66 C70 1.390 . S
C67 C65 1.361 . S
C67 C68 1.393 . S
C67 N71 1.413 . S
C68 H61 0.930 . S
C68 C67 1.393 . S
C68 C69 1.399 . S
C69 C68 1.399 . S
C69 C70 1.381 . S
C70 H62 0.930 . S
C70 C66 1.390 . S
C70 C69 1.381 . S
N71 C64 1.286 . S
N71 C67 1.413 . S
H72 C77 0.930 . S
H73 C80 0.930 . S
H74 C82 0.930 . S
H75 C76 1.016 . S
C76 H75 1.016 . S
C76 N83 1.286 . S
C77 H72 0.930 . S
C77 C78 1.397 . S
C77 C79 1.361 . S
C78 C77 1.397 . S
C78 C82 1.390 . S
C79 C77 1.361 . S
C79 C80 1.393 . S
C79 N83 1.413 . S
C80 H73 0.930 . S
C80 C79 1.393 . S
C80 C81 1.399 . S
C81 C80 1.399 . S
C81 C82 1.381 . S
C82 H74 0.930 . S
C82 C78 1.390 . S
C82 C81 1.381 . S
N83 C76 1.286 . S
N83 C79 1.413 . S
H84 C89 0.930 . S
H85 C92 0.930 . S
H86 C94 0.930 . S
H87 C88 1.016 . S
C88 H87 1.016 . S
C88 N95 1.286 . S
C89 H84 0.930 . S
C89 C90 1.397 . S
C89 C91 1.361 . S
C90 C89 1.397 . S
C90 C94 1.390 . S
C91 C89 1.361 . S
C91 C92 1.393 . S
C91 N95 1.413 . S
C92 H85 0.930 . S
C92 C91 1.393 . S
C92 C93 1.399 . S
C93 C92 1.399 . S
C93 C94 1.381 . S
C94 H86 0.930 . S
C94 C90 1.390 . S
C94 C93 1.381 . S
N95 C88 1.286 . S
N95 C91 1.413 . S
La96 C98 2.928 . S
La96 O116 2.521 . S
La96 O117 2.628 . S
La96 O118 2.554 1_545 S
La96 O119 2.757 1_545 S
La96 O120 2.470 . S
La96 O125 2.482 1_455 S
La96 O127 2.503 1_445 S
La97 C107 2.944 . S
La97 O119 2.492 1_655 S
La97 O121 2.487 1_665 S
La97 O122 2.528 . S
La97 O123 2.648 . S
La97 O124 2.540 1_565 S
La97 O125 2.745 1_565 S
La97 O126 2.482 . S
C98 La96 2.928 . S
C98 C99 1.503 . S
C98 O116 1.261 . S
C98 O117 1.243 . S
C99 C98 1.503 . S
C99 C100 1.394 . S
C99 C104 1.373 . S
C100 C99 1.394 . S
C100 C101 1.380 . S
C100 H128 0.930 . S
C101 C100 1.380 . S
C101 C102 1.376 . S
C101 H129 0.930 . S
C102 C101 1.376 . S
C102 C103 1.370 . S
C103 C102 1.370 . S
C103 C104 1.396 . S
C103 H130 0.929 . S
C104 C99 1.373 . S
C104 C103 1.396 . S
C104 H131 0.929 . S
C105 O118 1.240 . S
C105 O119 1.289 . S
C106 O120 1.258 . S
C106 O121 1.256 . S
C107 La97 2.944 . S
C107 C108 1.503 . S
C107 O122 1.261 . S
C107 O123 1.243 . S
C108 C107 1.503 . S
C108 C109 1.394 . S
C108 C113 1.373 . S
C109 C108 1.394 . S
C109 C110 1.380 . S
C109 H132 0.930 . S
C110 C109 1.380 . S
C110 C111 1.376 . S
C110 H133 0.930 . S
C111 C110 1.376 . S
C111 C112 1.370 . S
C112 C111 1.370 . S
C112 C113 1.396 . S
C112 H134 0.929 . S
C113 C108 1.373 . S
C113 C112 1.396 . S
C113 H135 0.929 . S
C114 O124 1.240 . S
C114 O125 1.289 . S
C115 O126 1.258 . S
C115 O127 1.256 . S
O116 La96 2.521 . S
O116 C98 1.261 . S
O117 La96 2.628 . S
O117 C98 1.243 . S
O118 La96 2.554 1_565 S
O118 C105 1.240 . S
O119 La96 2.757 1_565 S
O119 La97 2.492 1_455 S
O119 C105 1.289 . S
O120 La96 2.470 . S
O120 C106 1.258 . S
O121 La97 2.487 1_445 S
O121 C106 1.256 . S
O122 La97 2.528 . S
O122 C107 1.261 . S
O123 La97 2.648 . S
O123 C107 1.243 . S
O124 La97 2.540 1_545 S
O124 C114 1.240 . S
O125 La96 2.482 1_655 S
O125 La97 2.745 1_545 S
O125 C114 1.289 . S
O126 La97 2.482 . S
O126 C115 1.258 . S
O127 La96 2.503 1_665 S
O127 C115 1.256 . S
H128 C100 0.930 . S
H129 C101 0.930 . S
H130 C103 0.929 . S
H131 C104 0.929 . S
H132 C109 0.930 . S
H133 C110 0.930 . S
H134 C112 0.929 . S
H135 C113 0.929 . S
La136 C138 2.928 . S
La136 O156 2.521 . S
La136 O157 2.628 . S
La136 O158 2.554 1_545 S
La136 O159 2.757 1_545 S
La136 O160 2.470 . S
La136 O165 2.484 . S
La136 O167 2.503 1_544 S
La137 C147 2.928 1_545 S
La137 O159 2.482 1_546 S
La137 O161 2.503 1_556 S
La137 O162 2.521 1_545 S
La137 O163 2.628 1_545 S
La137 O164 2.554 . S
La137 O165 2.756 1_556 S
La137 O166 2.470 1_545 S
C138 La136 2.928 . S
C138 C139 1.503 . S
C138 O156 1.261 . S
C138 O157 1.243 . S
C139 C138 1.503 . S
C139 C140 1.394 . S
C139 C144 1.373 . S
C140 C139 1.394 . S
C140 C141 1.380 . S
C140 H168 0.930 . S
C141 C140 1.380 . S
C141 C142 1.376 . S
C141 H169 0.930 . S
C142 C141 1.376 . S
C142 C143 1.370 . S
C143 C142 1.370 . S
C143 C144 1.396 . S
C143 H170 0.929 . S
C144 C139 1.373 . S
C144 C143 1.396 . S
C144 H171 0.929 . S
C145 O158 1.240 . S
C145 O159 1.289 . S
C146 O160 1.258 . S
C146 O161 1.256 . S
C147 La137 2.928 1_565 S
C147 C148 1.503 . S
C147 O162 1.261 . S
C147 O163 1.243 . S
C148 C147 1.503 . S
C148 C149 1.394 . S
C148 C153 1.373 . S
C149 C148 1.394 . S
C149 C150 1.380 . S
C149 H172 0.930 . S
C150 C149 1.380 . S
C150 C151 1.376 . S
C150 H173 0.930 . S
C151 C150 1.376 . S
C151 C152 1.370 . S
C152 C151 1.370 . S
C152 C153 1.396 . S
C152 H174 0.929 . S
C153 C148 1.373 . S
C153 C152 1.396 . S
C153 H175 0.929 . S
C154 O164 1.240 . S
C154 O165 1.287 1_556 S
C155 O166 1.258 . S
C155 O167 1.256 . S
O156 La136 2.521 . S
O156 C138 1.261 . S
O157 La136 2.628 . S
O157 C138 1.243 . S
O158 La136 2.554 1_565 S
O158 C145 1.240 . S
O159 La136 2.757 1_565 S
O159 La137 2.482 1_564 S
O159 C145 1.289 . S
O160 La136 2.470 . S
O160 C146 1.258 . S
O161 La137 2.503 1_554 S
O161 C146 1.256 . S
O162 La137 2.521 1_565 S
O162 C147 1.261 . S
O163 La137 2.628 1_565 S
O163 C147 1.243 . S
O164 La137 2.554 . S
O164 C154 1.240 . S
O165 La136 2.484 . S
O165 La137 2.756 1_554 S
O165 C154 1.287 1_554 S
O166 La137 2.470 1_565 S
O166 C155 1.258 . S
O167 La136 2.503 1_566 S
O167 C155 1.256 . S
H168 C140 0.930 . S
H169 C141 0.930 . S
H170 C143 0.929 . S
H171 C144 0.929 . S
H172 C149 0.930 . S
H173 C150 0.930 . S
H174 C152 0.929 . S
H175 C153 0.929 . S
La176 C178 2.928 . S
La176 O196 2.521 . S
La176 O197 2.628 . S
La176 O198 2.554 . S
La176 O199 2.757 . S
La176 O200 2.470 . S
La176 O205 2.482 . S
La176 O207 2.503 . S
La177 C187 2.928 . S
La177 O199 2.482 . S
La177 O201 2.503 . S
La177 O202 2.521 . S
La177 O203 2.628 . S
La177 O204 2.554 . S
La177 O205 2.757 . S
La177 O206 2.470 . S
C178 La176 2.928 . S
C178 C179 1.503 . S
C178 O196 1.261 . S
C178 O197 1.243 . S
C179 C178 1.503 . S
C179 C180 1.394 . S
C179 C184 1.373 . S
C180 C179 1.394 . S
C180 C181 1.380 . S
C180 H208 0.930 . S
C181 C180 1.380 . S
C181 C182 1.376 . S
C181 H209 0.930 . S
C182 C181 1.376 . S
C182 C183 1.370 . S
C183 C182 1.370 . S
C183 C184 1.396 . S
C183 H210 0.929 . S
C184 C179 1.373 . S
C184 C183 1.396 . S
C184 H211 0.929 . S
C185 O198 1.240 . S
C185 O199 1.289 . S
C186 O200 1.258 . S
C186 O201 1.256 . S
C187 La177 2.928 . S
C187 C188 1.503 . S
C187 O202 1.261 . S
C187 O203 1.243 . S
C188 C187 1.503 . S
C188 C189 1.394 . S
C188 C193 1.373 . S
C189 C188 1.394 . S
C189 C190 1.380 . S
C189 H212 0.930 . S
C190 C189 1.380 . S
C190 C191 1.376 . S
C190 H213 0.930 . S
C191 C190 1.376 . S
C191 C192 1.370 . S
C192 C191 1.370 . S
C192 C193 1.396 . S
C192 H214 0.929 . S
C193 C188 1.373 . S
C193 C192 1.396 . S
C193 H215 0.929 . S
C194 O204 1.240 . S
C194 O205 1.289 . S
C195 O206 1.258 . S
C195 O207 1.256 . S
O196 La176 2.521 . S
O196 C178 1.261 . S
O197 La176 2.628 . S
O197 C178 1.243 . S
O198 La176 2.554 . S
O198 C185 1.240 . S
O199 La176 2.757 . S
O199 La177 2.482 . S
O199 C185 1.289 . S
O200 La176 2.470 . S
O200 C186 1.258 . S
O201 La177 2.503 . S
O201 C186 1.256 . S
O202 La177 2.521 . S
O202 C187 1.261 . S
O203 La177 2.628 . S
O203 C187 1.243 . S
O204 La177 2.554 . S
O204 C194 1.240 . S
O205 La176 2.482 . S
O205 La177 2.757 . S
O205 C194 1.289 . S
O206 La177 2.470 . S
O206 C195 1.258 . S
O207 La176 2.503 . S
O207 C195 1.256 . S
H208 C180 0.930 . S
H209 C181 0.930 . S
H210 C183 0.929 . S
H211 C184 0.929 . S
H212 C189 0.930 . S
H213 C190 0.930 . S
H214 C192 0.929 . S
H215 C193 0.929 . S
La216 C218 2.928 . S
La216 O236 2.521 . S
La216 O237 2.628 . S
La216 O238 2.554 1_455 S
La216 O239 2.757 1_455 S
La216 O240 2.470 . S
La216 O245 2.482 1_554 S
La216 O247 2.503 1_454 S
La217 C227 2.928 1_455 S
La217 O239 2.482 1_456 S
La217 O241 2.503 1_556 S
La217 O242 2.521 1_455 S
La217 O243 2.628 1_455 S
La217 O244 2.554 . S
La217 O245 2.757 . S
La217 O246 2.470 1_455 S
C218 La216 2.928 . S
C218 C219 1.503 . S
C218 O236 1.261 . S
C218 O237 1.243 . S
C219 C218 1.503 . S
C219 C220 1.394 . S
C219 C224 1.373 . S
C220 C219 1.394 . S
C220 C221 1.380 . S
C220 H248 0.930 . S
C221 C220 1.380 . S
C221 C222 1.376 . S
C221 H249 0.930 . S
C222 C221 1.376 . S
C222 C223 1.370 . S
C223 C222 1.370 . S
C223 C224 1.396 . S
C223 H250 0.929 . S
C224 C219 1.373 . S
C224 C223 1.396 . S
C224 H251 0.929 . S
C225 O238 1.240 . S
C225 O239 1.289 . S
C226 O240 1.258 . S
C226 O241 1.256 . S
C227 La217 2.928 1_655 S
C227 C228 1.503 . S
C227 O242 1.261 . S
C227 O243 1.243 . S
C228 C227 1.503 . S
C228 C229 1.394 . S
C228 C233 1.373 . S
C229 C228 1.394 . S
C229 C230 1.380 . S
C229 H252 0.930 . S
C230 C229 1.380 . S
C230 C231 1.376 . S
C230 H253 0.930 . S
C231 C230 1.376 . S
C231 C232 1.370 . S
C232 C231 1.370 . S
C232 C233 1.396 . S
C232 H254 0.929 . S
C233 C228 1.373 . S
C233 C232 1.396 . S
C233 H255 0.929 . S
C234 O244 1.240 . S
C234 O245 1.289 . S
C235 O246 1.258 . S
C235 O247 1.256 . S
O236 La216 2.521 . S
O236 C218 1.261 . S
O237 La216 2.628 . S
O237 C218 1.243 . S
O238 La216 2.554 1_655 S
O238 C225 1.240 . S
O239 La216 2.757 1_655 S
O239 La217 2.482 1_654 S
O239 C225 1.289 . S
O240 La216 2.470 . S
O240 C226 1.258 . S
O241 La217 2.503 1_554 S
O241 C226 1.256 . S
O242 La217 2.521 1_655 S
O242 C227 1.261 . S
O243 La217 2.628 1_655 S
O243 C227 1.243 . S
O244 La217 2.554 . S
O244 C234 1.240 . S
O245 La216 2.482 1_556 S
O245 La217 2.757 . S
O245 C234 1.289 . S
O246 La217 2.470 1_655 S
O246 C235 1.258 . S
O247 La216 2.503 1_656 S
O247 C235 1.256 . S
H248 C220 0.930 . S
H249 C221 0.930 . S
H250 C223 0.929 . S
H251 C224 0.929 . S
H252 C229 0.930 . S
H253 C230 0.930 . S
H254 C232 0.929 . S
H255 C233 0.929 . S
H256 C264 0.950 . S
H257 C269 0.950 . S
H258 C266 0.950 . S
H259 C268 0.950 . S
H260 C270 0.950 . S
H261 C272 0.950 . S
H262 C274 0.950 . S
H263 C275 0.950 . S
C264 H256 0.950 . S
C264 C265 1.386 . S
C264 C266 1.391 . S
C265 C264 1.386 . S
C265 C269 1.393 . S
C266 H258 0.950 . S
C266 C264 1.391 . S
C266 C267 1.400 . S
C267 C266 1.400 . S
C267 C268 1.398 . S
C267 C273 1.491 . S
C268 H259 0.950 . S
C268 C267 1.398 . S
C268 C269 1.391 . S
C269 H257 0.950 . S
C269 C265 1.393 . S
C269 C268 1.391 . S
C270 H260 0.950 . S
C270 C271 1.386 . S
C270 C272 1.391 . S
C271 C270 1.386 . S
C271 C275 1.393 . S
C272 H261 0.950 . S
C272 C270 1.391 . S
C272 C273 1.400 . S
C273 C267 1.491 . S
C273 C272 1.400 . S
C273 C274 1.398 . S
C274 H262 0.950 . S
C274 C273 1.398 . S
C274 C275 1.391 . S
C275 H263 0.950 . S
C275 C271 1.393 . S
C275 C274 1.391 . S
H276 C284 0.950 . S
H277 C289 0.950 . S
H278 C286 0.950 . S
H279 C288 0.950 . S
H280 C290 0.950 . S
H281 C292 0.950 . S
H282 C294 0.950 . S
H283 C295 0.950 . S
C284 H276 0.950 . S
C284 C285 1.386 . S
C284 C286 1.391 . S
C285 C284 1.386 . S
C285 C289 1.393 . S
C286 H278 0.950 . S
C286 C284 1.391 . S
C286 C287 1.400 . S
C287 C286 1.400 . S
C287 C288 1.398 . S
C287 C293 1.491 . S
C288 H279 0.950 . S
C288 C287 1.398 . S
C288 C289 1.391 . S
C289 H277 0.950 . S
C289 C285 1.393 . S
C289 C288 1.391 . S
C290 H280 0.950 . S
C290 C291 1.386 . S
C290 C292 1.391 . S
C291 C290 1.386 . S
C291 C295 1.393 . S
C292 H281 0.950 . S
C292 C290 1.391 . S
C292 C293 1.400 . S
C293 C287 1.491 . S
C293 C292 1.400 . S
C293 C294 1.398 . S
C294 H282 0.950 . S
C294 C293 1.398 . S
C294 C295 1.391 . S
C295 H283 0.950 . S
C295 C291 1.393 . S
C295 C294 1.391 . S
H296 C304 0.950 . S
H297 C309 0.950 . S
H298 C306 0.950 . S
H299 C308 0.950 . S
H300 C310 0.950 . S
H301 C312 0.950 . S
H302 C314 0.950 . S
H303 C315 0.950 . S
C304 H296 0.950 . S
C304 C305 1.386 . S
C304 C306 1.391 . S
C305 C304 1.386 . S
C305 C309 1.393 . S
C306 H298 0.950 . S
C306 C304 1.391 . S
C306 C307 1.400 . S
C307 C306 1.400 . S
C307 C308 1.398 . S
C307 C313 1.491 . S
C308 H299 0.950 . S
C308 C307 1.398 . S
C308 C309 1.391 . S
C309 H297 0.950 . S
C309 C305 1.393 . S
C309 C308 1.391 . S
C310 H300 0.950 . S
C310 C311 1.386 . S
C310 C312 1.391 . S
C311 C310 1.386 . S
C311 C315 1.393 . S
C312 H301 0.950 . S
C312 C310 1.391 . S
C312 C313 1.400 . S
C313 C307 1.491 . S
C313 C312 1.400 . S
C313 C314 1.398 . S
C314 H302 0.950 . S
C314 C313 1.398 . S
C314 C315 1.391 . S
C315 H303 0.950 . S
C315 C311 1.393 . S
C315 C314 1.391 . S
H316 C324 0.950 . S
H317 C329 0.950 . S
H318 C326 0.950 . S
H319 C328 0.950 . S
H320 C330 0.950 . S
H321 C332 0.950 . S
H322 C334 0.950 . S
H323 C335 0.950 . S
C324 H316 0.950 . S
C324 C325 1.386 . S
C324 C326 1.391 . S
C325 C324 1.386 . S
C325 C329 1.393 . S
C326 H318 0.950 . S
C326 C324 1.391 . S
C326 C327 1.400 . S
C327 C326 1.400 . S
C327 C328 1.398 . S
C327 C333 1.491 . S
C328 H319 0.950 . S
C328 C327 1.398 . S
C328 C329 1.391 . S
C329 H317 0.950 . S
C329 C325 1.393 . S
C329 C328 1.391 . S
C330 H320 0.950 . S
C330 C331 1.386 . S
C330 C332 1.391 . S
C331 C330 1.386 . S
C331 C335 1.393 . S
C332 H321 0.950 . S
C332 C330 1.391 . S
C332 C333 1.400 . S
C333 C327 1.491 . S
C333 C332 1.400 . S
C333 C334 1.398 . S
C334 H322 0.950 . S
C334 C333 1.398 . S
C334 C335 1.391 . S
C335 H323 0.950 . S
C335 C331 1.393 . S
C335 C334 1.391 . S
H336 C344 0.950 . S
H337 C349 0.950 . S
H338 C346 0.950 . S
H339 C348 0.950 . S
H340 C350 0.950 . S
H341 C352 0.950 . S
H342 C354 0.950 . S
H343 C355 0.950 . S
C344 H336 0.950 . S
C344 C345 1.386 . S
C344 C346 1.391 . S
C345 C344 1.386 . S
C345 C349 1.393 . S
C346 H338 0.950 . S
C346 C344 1.391 . S
C346 C347 1.400 . S
C347 C346 1.400 . S
C347 C348 1.398 . S
C347 C353 1.491 . S
C348 H339 0.950 . S
C348 C347 1.398 . S
C348 C349 1.391 . S
C349 H337 0.950 . S
C349 C345 1.393 . S
C349 C348 1.391 . S
C350 H340 0.950 . S
C350 C351 1.386 . S
C350 C352 1.391 . S
C351 C350 1.386 . S
C351 C355 1.393 . S
C352 H341 0.950 . S
C352 C350 1.391 . S
C352 C353 1.400 . S
C353 C347 1.491 . S
C353 C352 1.400 . S
C353 C354 1.398 . S
C354 H342 0.950 . S
C354 C353 1.398 . S
C354 C355 1.391 . S
C355 H343 0.950 . S
C355 C351 1.393 . S
C355 C354 1.391 . S
H356 C364 0.950 . S
H357 C369 0.950 . S
H358 C366 0.950 . S
H359 C368 0.950 . S
H360 C370 0.950 . S
H361 C372 0.950 . S
H362 C374 0.950 . S
H363 C375 0.950 . S
C364 H356 0.950 . S
C364 C365 1.386 . S
C364 C366 1.391 . S
C365 C364 1.386 . S
C365 C369 1.393 . S
C366 H358 0.950 . S
C366 C364 1.391 . S
C366 C367 1.400 . S
C367 C366 1.400 . S
C367 C368 1.398 . S
C367 C373 1.491 . S
C368 H359 0.950 . S
C368 C367 1.398 . S
C368 C369 1.391 . S
C369 H357 0.950 . S
C369 C365 1.393 . S
C369 C368 1.391 . S
C370 H360 0.950 . S
C370 C371 1.386 . S
C370 C372 1.391 . S
C371 C370 1.386 . S
C371 C375 1.393 . S
C372 H361 0.950 . S
C372 C370 1.391 . S
C372 C373 1.400 . S
C373 C367 1.491 . S
C373 C372 1.400 . S
C373 C374 1.398 . S
C374 H362 0.950 . S
C374 C373 1.398 . S
C374 C375 1.391 . S
C375 H363 0.950 . S
C375 C371 1.393 . S
C375 C374 1.391 . S
H376 C384 0.950 . S
H377 C389 0.950 . S
H378 C386 0.950 . S
H379 C388 0.950 . S
H380 C390 0.950 . S
H381 C392 0.950 . S
H382 C394 0.950 . S
H383 C395 0.950 . S
C384 H376 0.950 . S
C384 C385 1.386 . S
C384 C386 1.391 . S
C385 C384 1.386 . S
C385 C389 1.393 . S
C386 H378 0.950 . S
C386 C384 1.391 . S
C386 C387 1.400 . S
C387 C386 1.400 . S
C387 C388 1.398 . S
C387 C393 1.491 . S
C388 H379 0.950 . S
C388 C387 1.398 . S
C388 C389 1.391 . S
C389 H377 0.950 . S
C389 C385 1.393 . S
C389 C388 1.391 . S
C390 H380 0.950 . S
C390 C391 1.386 . S
C390 C392 1.391 . S
C391 C390 1.386 . S
C391 C395 1.393 . S
C392 H381 0.950 . S
C392 C390 1.391 . S
C392 C393 1.400 . S
C393 C387 1.491 . S
C393 C392 1.400 . S
C393 C394 1.398 . S
C394 H382 0.950 . S
C394 C393 1.398 . S
C394 C395 1.391 . S
C395 H383 0.950 . S
C395 C391 1.393 . S
C395 C394 1.391 . S
H396 C404 0.950 . S
H397 C409 0.950 . S
H398 C406 0.950 . S
H399 C408 0.950 . S
H400 C410 0.950 . S
H401 C412 0.950 . S
H402 C414 0.950 . S
H403 C415 0.950 . S
C404 H396 0.950 . S
C404 C405 1.386 . S
C404 C406 1.391 . S
C405 C404 1.386 . S
C405 C409 1.393 . S
C406 H398 0.950 . S
C406 C404 1.391 . S
C406 C407 1.400 . S
C407 C406 1.400 . S
C407 C408 1.398 . S
C407 C413 1.491 . S
C408 H399 0.950 . S
C408 C407 1.398 . S
C408 C409 1.391 . S
C409 H397 0.950 . S
C409 C405 1.393 . S
C409 C408 1.391 . S
C410 H400 0.950 . S
C410 C411 1.386 . S
C410 C412 1.391 . S
C411 C410 1.386 . S
C411 C415 1.393 . S
C412 H401 0.950 . S
C412 C410 1.391 . S
C412 C413 1.400 . S
C413 C407 1.491 . S
C413 C412 1.400 . S
C413 C414 1.398 . S
C414 H402 0.950 . S
C414 C413 1.398 . S
C414 C415 1.391 . S
C415 H403 0.950 . S
C415 C411 1.393 . S
C415 C414 1.391 . S
H416 C424 0.950 . S
H417 C429 0.950 . S
H418 C426 0.950 . S
H419 C428 0.950 . S
H420 C430 0.950 . S
H421 C432 0.950 . S
H422 C434 0.950 . S
H423 C435 0.950 . S
C424 H416 0.950 . S
C424 C425 1.386 . S
C424 C426 1.391 . S
C425 C424 1.386 . S
C425 C429 1.393 . S
C426 H418 0.950 . S
C426 C424 1.391 . S
C426 C427 1.400 . S
C427 C426 1.400 . S
C427 C428 1.398 . S
C427 C433 1.491 . S
C428 H419 0.950 . S
C428 C427 1.398 . S
C428 C429 1.391 . S
C429 H417 0.950 . S
C429 C425 1.393 . S
C429 C428 1.391 . S
C430 H420 0.950 . S
C430 C431 1.386 . S
C430 C432 1.391 . S
C431 C430 1.386 . S
C431 C435 1.393 . S
C432 H421 0.950 . S
C432 C430 1.391 . S
C432 C433 1.400 . S
C433 C427 1.491 . S
C433 C432 1.400 . S
C433 C434 1.398 . S
C434 H422 0.950 . S
C434 C433 1.398 . S
C434 C435 1.391 . S
C435 H423 0.950 . S
C435 C431 1.393 . S
C435 C434 1.391 . S
H436 C444 0.950 . S
H437 C449 0.950 . S
H438 C446 0.950 . S
H439 C448 0.950 . S
H440 C450 0.950 . S
H441 C452 0.950 . S
H442 C454 0.950 . S
H443 C455 0.950 . S
C444 H436 0.950 . S
C444 C445 1.386 . S
C444 C446 1.391 . S
C445 C444 1.386 . S
C445 C449 1.393 . S
C446 H438 0.950 . S
C446 C444 1.391 . S
C446 C447 1.400 . S
C447 C446 1.400 . S
C447 C448 1.398 . S
C447 C453 1.491 . S
C448 H439 0.950 . S
C448 C447 1.398 . S
C448 C449 1.391 . S
C449 H437 0.950 . S
C449 C445 1.393 . S
C449 C448 1.391 . S
C450 H440 0.950 . S
C450 C451 1.386 . S
C450 C452 1.391 . S
C451 C450 1.386 . S
C451 C455 1.393 . S
C452 H441 0.950 . S
C452 C450 1.391 . S
C452 C453 1.400 . S
C453 C447 1.491 . S
C453 C452 1.400 . S
C453 C454 1.398 . S
C454 H442 0.950 . S
C454 C453 1.398 . S
C454 C455 1.391 . S
C455 H443 0.950 . S
C455 C451 1.393 . S
C455 C454 1.391 . S
H456 C464 0.950 . S
H457 C469 0.950 . S
H458 C466 0.950 . S
H459 C468 0.950 . S
H460 C470 0.950 . S
H461 C472 0.950 . S
H462 C474 0.950 . S
H463 C475 0.950 . S
C464 H456 0.950 . S
C464 C465 1.386 . S
C464 C466 1.391 . S
C465 C464 1.386 . S
C465 C469 1.393 . S
C466 H458 0.950 . S
C466 C464 1.391 . S
C466 C467 1.400 . S
C467 C466 1.400 . S
C467 C468 1.398 . S
C467 C473 1.491 . S
C468 H459 0.950 . S
C468 C467 1.398 . S
C468 C469 1.391 . S
C469 H457 0.950 . S
C469 C465 1.393 . S
C469 C468 1.391 . S
C470 H460 0.950 . S
C470 C471 1.386 . S
C470 C472 1.391 . S
C471 C470 1.386 . S
C471 C475 1.393 . S
C472 H461 0.950 . S
C472 C470 1.391 . S
C472 C473 1.400 . S
C473 C467 1.491 . S
C473 C472 1.400 . S
C473 C474 1.398 . S
C474 H462 0.950 . S
C474 C473 1.398 . S
C474 C475 1.391 . S
C475 H463 0.950 . S
C475 C471 1.393 . S
C475 C474 1.391 . S
H476 C484 0.950 . S
H477 C489 0.950 . S
H478 C486 0.950 . S
H479 C488 0.950 . S
H480 C490 0.950 . S
H481 C492 0.950 . S
H482 C494 0.950 . S
H483 C495 0.950 . S
C484 H476 0.950 . S
C484 C485 1.386 . S
C484 C486 1.391 . S
C485 C484 1.386 . S
C485 C489 1.393 . S
C486 H478 0.950 . S
C486 C484 1.391 . S
C486 C487 1.400 . S
C487 C486 1.400 . S
C487 C488 1.398 . S
C487 C493 1.491 . S
C488 H479 0.950 . S
C488 C487 1.398 . S
C488 C489 1.391 . S
C489 H477 0.950 . S
C489 C485 1.393 . S
C489 C488 1.391 . S
C490 H480 0.950 . S
C490 C491 1.386 . S
C490 C492 1.391 . S
C491 C490 1.386 . S
C491 C495 1.393 . S
C492 H481 0.950 . S
C492 C490 1.391 . S
C492 C493 1.400 . S
C493 C487 1.491 . S
C493 C492 1.400 . S
C493 C494 1.398 . S
C494 H482 0.950 . S
C494 C493 1.398 . S
C494 C495 1.391 . S
C495 H483 0.950 . S
C495 C491 1.393 . S
C495 C494 1.391 . S
H496 C504 0.950 . S
H497 C509 0.950 . S
H498 C506 0.950 . S
H499 C508 0.950 . S
H500 C510 0.950 . S
H501 C512 0.950 . S
H502 C514 0.950 . S
H503 C515 0.950 . S
C504 H496 0.950 . S
C504 C505 1.386 . S
C504 C506 1.391 . S
C505 C504 1.386 . S
C505 C509 1.393 . S
C506 H498 0.950 . S
C506 C504 1.391 . S
C506 C507 1.400 . S
C507 C506 1.400 . S
C507 C508 1.398 . S
C507 C513 1.491 . S
C508 H499 0.950 . S
C508 C507 1.398 . S
C508 C509 1.391 . S
C509 H497 0.950 . S
C509 C505 1.393 . S
C509 C508 1.391 . S
C510 H500 0.950 . S
C510 C511 1.386 . S
C510 C512 1.391 . S
C511 C510 1.386 . S
C511 C515 1.393 . S
C512 H501 0.950 . S
C512 C510 1.391 . S
C512 C513 1.400 . S
C513 C507 1.491 . S
C513 C512 1.400 . S
C513 C514 1.398 . S
C514 H502 0.950 . S
C514 C513 1.398 . S
C514 C515 1.391 . S
C515 H503 0.950 . S
C515 C511 1.393 . S
C515 C514 1.391 . S
H516 C524 0.950 . S
H517 C529 0.950 . S
H518 C526 0.950 . S
H519 C528 0.950 . S
H520 C530 0.950 . S
H521 C532 0.950 . S
H522 C534 0.950 . S
H523 C535 0.950 . S
C524 H516 0.950 . S
C524 C525 1.386 . S
C524 C526 1.391 . S
C525 C524 1.386 . S
C525 C529 1.393 . S
C526 H518 0.950 . S
C526 C524 1.391 . S
C526 C527 1.400 . S
C527 C526 1.400 . S
C527 C528 1.398 . S
C527 C533 1.491 . S
C528 H519 0.950 . S
C528 C527 1.398 . S
C528 C529 1.391 . S
C529 H517 0.950 . S
C529 C525 1.393 . S
C529 C528 1.391 . S
C530 H520 0.950 . S
C530 C531 1.386 . S
C530 C532 1.391 . S
C531 C530 1.386 . S
C531 C535 1.393 . S
C532 H521 0.950 . S
C532 C530 1.391 . S
C532 C533 1.400 . S
C533 C527 1.491 . S
C533 C532 1.400 . S
C533 C534 1.398 . S
C534 H522 0.950 . S
C534 C533 1.398 . S
C534 C535 1.391 . S
C535 H523 0.950 . S
C535 C531 1.393 . S
C535 C534 1.391 . S
H536 C544 0.950 . S
H537 C549 0.950 . S
H538 C546 0.950 . S
H539 C548 0.950 . S
H540 C550 0.950 . S
H541 C552 0.950 . S
H542 C554 0.950 . S
H543 C555 0.950 . S
C544 H536 0.950 . S
C544 C545 1.386 . S
C544 C546 1.391 . S
C545 C544 1.386 . S
C545 C549 1.393 . S
C546 H538 0.950 . S
C546 C544 1.391 . S
C546 C547 1.400 . S
C547 C546 1.400 . S
C547 C548 1.398 . S
C547 C553 1.491 . S
C548 H539 0.950 . S
C548 C547 1.398 . S
C548 C549 1.391 . S
C549 H537 0.950 . S
C549 C545 1.393 . S
C549 C548 1.391 . S
C550 H540 0.950 . S
C550 C551 1.386 . S
C550 C552 1.391 . S
C551 C550 1.386 . S
C551 C555 1.393 . S
C552 H541 0.950 . S
C552 C550 1.391 . S
C552 C553 1.400 . S
C553 C547 1.491 . S
C553 C552 1.400 . S
C553 C554 1.398 . S
C554 H542 0.950 . S
C554 C553 1.398 . S
C554 C555 1.391 . S
C555 H543 0.950 . S
C555 C551 1.393 . S
C555 C554 1.391 . S
H556 C564 0.950 . S
H557 C569 0.950 . S
H558 C566 0.950 . S
H559 C568 0.950 . S
H560 C570 0.950 . S
H561 C572 0.950 . S
H562 C574 0.950 . S
H563 C575 0.950 . S
C564 H556 0.950 . S
C564 C565 1.386 . S
C564 C566 1.391 . S
C565 C564 1.386 . S
C565 C569 1.393 . S
C566 H558 0.950 . S
C566 C564 1.391 . S
C566 C567 1.400 . S
C567 C566 1.400 . S
C567 C568 1.398 . S
C567 C573 1.491 . S
C568 H559 0.950 . S
C568 C567 1.398 . S
C568 C569 1.391 . S
C569 H557 0.950 . S
C569 C565 1.393 . S
C569 C568 1.391 . S
C570 H560 0.950 . S
C570 C571 1.386 . S
C570 C572 1.391 . S
C571 C570 1.386 . S
C571 C575 1.393 . S
C572 H561 0.950 . S
C572 C570 1.391 . S
C572 C573 1.400 . S
C573 C567 1.491 . S
C573 C572 1.400 . S
C573 C574 1.398 . S
C574 H562 0.950 . S
C574 C573 1.398 . S
C574 C575 1.391 . S
C575 H563 0.950 . S
C575 C571 1.393 . S
C575 C574 1.391 . S
H576 C584 0.950 . S
H577 C589 0.950 . S
H578 C586 0.950 . S
H579 C588 0.950 . S
H580 C590 0.950 . S
H581 C592 0.950 . S
H582 C594 0.950 . S
H583 C595 0.950 . S
C584 H576 0.950 . S
C584 C585 1.386 . S
C584 C586 1.391 . S
C585 C584 1.386 . S
C585 C589 1.393 . S
C586 H578 0.950 . S
C586 C584 1.391 . S
C586 C587 1.400 . S
C587 C586 1.400 . S
C587 C588 1.398 . S
C587 C593 1.491 . S
C588 H579 0.950 . S
C588 C587 1.398 . S
C588 C589 1.391 . S
C589 H577 0.950 . S
C589 C585 1.393 . S
C589 C588 1.391 . S
C590 H580 0.950 . S
C590 C591 1.386 . S
C590 C592 1.391 . S
C591 C590 1.386 . S
C591 C595 1.393 . S
C592 H581 0.950 . S
C592 C590 1.391 . S
C592 C593 1.400 . S
C593 C587 1.491 . S
C593 C592 1.400 . S
C593 C594 1.398 . S
C594 H582 0.950 . S
C594 C593 1.398 . S
C594 C595 1.391 . S
C595 H583 0.950 . S
C595 C591 1.393 . S
C595 C594 1.391 . S
H596 C604 0.950 . S
H597 C609 0.950 . S
H598 C606 0.950 . S
H599 C608 0.950 . S
H600 C610 0.950 . S
H601 C612 0.950 . S
H602 C614 0.950 . S
H603 C615 0.950 . S
C604 H596 0.950 . S
C604 C605 1.386 . S
C604 C606 1.391 . S
C605 C604 1.386 . S
C605 C609 1.393 . S
C606 H598 0.950 . S
C606 C604 1.391 . S
C606 C607 1.400 . S
C607 C606 1.400 . S
C607 C608 1.398 . S
C607 C613 1.491 . S
C608 H599 0.950 . S
C608 C607 1.398 . S
C608 C609 1.391 . S
C609 H597 0.950 . S
C609 C605 1.393 . S
C609 C608 1.391 . S
C610 H600 0.950 . S
C610 C611 1.386 . S
C610 C612 1.391 . S
C611 C610 1.386 . S
C611 C615 1.393 . S
C612 H601 0.950 . S
C612 C610 1.391 . S
C612 C613 1.400 . S
C613 C607 1.491 . S
C613 C612 1.400 . S
C613 C614 1.398 . S
C614 H602 0.950 . S
C614 C613 1.398 . S
C614 C615 1.391 . S
C615 H603 0.950 . S
C615 C611 1.393 . S
C615 C614 1.391 . S
H616 C624 0.950 . S
H617 C629 0.950 . S
H618 C626 0.950 . S
H619 C628 0.950 . S
H620 C630 0.950 . S
H621 C632 0.950 . S
H622 C634 0.950 . S
H623 C635 0.950 . S
C624 H616 0.950 . S
C624 C625 1.386 . S
C624 C626 1.391 . S
C625 C624 1.386 . S
C625 C629 1.393 . S
C626 H618 0.950 . S
C626 C624 1.391 . S
C626 C627 1.400 . S
C627 C626 1.400 . S
C627 C628 1.398 . S
C627 C633 1.491 . S
C628 H619 0.950 . S
C628 C627 1.398 . S
C628 C629 1.391 . S
C629 H617 0.950 . S
C629 C625 1.393 . S
C629 C628 1.391 . S
C630 H620 0.950 . S
C630 C631 1.386 . S
C630 C632 1.391 . S
C631 C630 1.386 . S
C631 C635 1.393 . S
C632 H621 0.950 . S
C632 C630 1.391 . S
C632 C633 1.400 . S
C633 C627 1.491 . S
C633 C632 1.400 . S
C633 C634 1.398 . S
C634 H622 0.950 . S
C634 C633 1.398 . S
C634 C635 1.391 . S
C635 H623 0.950 . S
C635 C631 1.393 . S
C635 C634 1.391 . S
H636 C644 0.950 . S
H637 C649 0.950 . S
H638 C646 0.950 . S
H639 C648 0.950 . S
H640 C650 0.950 . S
H641 C652 0.950 . S
H642 C654 0.950 . S
H643 C655 0.950 . S
C644 H636 0.950 . S
C644 C645 1.386 . S
C644 C646 1.391 . S
C645 C644 1.386 . S
C645 C649 1.393 . S
C646 H638 0.950 . S
C646 C644 1.391 . S
C646 C647 1.400 . S
C647 C646 1.400 . S
C647 C648 1.398 . S
C647 C653 1.491 . S
C648 H639 0.950 . S
C648 C647 1.398 . S
C648 C649 1.391 . S
C649 H637 0.950 . S
C649 C645 1.393 . S
C649 C648 1.391 . S
C650 H640 0.950 . S
C650 C651 1.386 . S
C650 C652 1.391 . S
C651 C650 1.386 . S
C651 C655 1.393 . S
C652 H641 0.950 . S
C652 C650 1.391 . S
C652 C653 1.400 . S
C653 C647 1.491 . S
C653 C652 1.400 . S
C653 C654 1.398 . S
C654 H642 0.950 . S
C654 C653 1.398 . S
C654 C655 1.391 . S
C655 H643 0.950 . S
C655 C651 1.393 . S
C655 C654 1.391 . S
H656 C664 0.950 . S
H657 C669 0.950 . S
H658 C666 0.950 . S
H659 C668 0.950 . S
H660 C670 0.950 . S
H661 C672 0.950 . S
H662 C674 0.950 . S
H663 C675 0.950 . S
C664 H656 0.950 . S
C664 C665 1.386 . S
C664 C666 1.391 . S
C665 C664 1.386 . S
C665 C669 1.393 . S
C666 H658 0.950 . S
C666 C664 1.391 . S
C666 C667 1.400 . S
C667 C666 1.400 . S
C667 C668 1.398 . S
C667 C673 1.491 . S
C668 H659 0.950 . S
C668 C667 1.398 . S
C668 C669 1.391 . S
C669 H657 0.950 . S
C669 C665 1.393 . S
C669 C668 1.391 . S
C670 H660 0.950 . S
C670 C671 1.386 . S
C670 C672 1.391 . S
C671 C670 1.386 . S
C671 C675 1.393 . S
C672 H661 0.950 . S
C672 C670 1.391 . S
C672 C673 1.400 . S
C673 C667 1.491 . S
C673 C672 1.400 . S
C673 C674 1.398 . S
C674 H662 0.950 . S
C674 C673 1.398 . S
C674 C675 1.391 . S
C675 H663 0.950 . S
C675 C671 1.393 . S
C675 C674 1.391 . S
H676 C684 0.950 . S
H677 C689 0.950 . S
H678 C686 0.950 . S
H679 C688 0.950 . S
H680 C690 0.950 . S
H681 C692 0.950 . S
H682 C694 0.950 . S
H683 C695 0.950 . S
C684 H676 0.950 . S
C684 C685 1.386 . S
C684 C686 1.391 . S
C685 C684 1.386 . S
C685 C689 1.393 . S
C686 H678 0.950 . S
C686 C684 1.391 . S
C686 C687 1.400 . S
C687 C686 1.400 . S
C687 C688 1.398 . S
C687 C693 1.491 . S
C688 H679 0.950 . S
C688 C687 1.398 . S
C688 C689 1.391 . S
C689 H677 0.950 . S
C689 C685 1.393 . S
C689 C688 1.391 . S
C690 H680 0.950 . S
C690 C691 1.386 . S
C690 C692 1.391 . S
C691 C690 1.386 . S
C691 C695 1.393 . S
C692 H681 0.950 . S
C692 C690 1.391 . S
C692 C693 1.400 . S
C693 C687 1.491 . S
C693 C692 1.400 . S
C693 C694 1.398 . S
C694 H682 0.950 . S
C694 C693 1.398 . S
C694 C695 1.391 . S
C695 H683 0.950 . S
C695 C691 1.393 . S
C695 C694 1.391 . S
H696 C704 0.950 . S
H697 C709 0.950 . S
H698 C706 0.950 . S
H699 C708 0.950 . S
H700 C710 0.950 . S
H701 C712 0.950 . S
H702 C714 0.950 . S
H703 C715 0.950 . S
C704 H696 0.950 . S
C704 C705 1.386 . S
C704 C706 1.391 . S
C705 C704 1.386 . S
C705 C709 1.393 . S
C706 H698 0.950 . S
C706 C704 1.391 . S
C706 C707 1.400 . S
C707 C706 1.400 . S
C707 C708 1.398 . S
C707 C713 1.491 . S
C708 H699 0.950 . S
C708 C707 1.398 . S
C708 C709 1.391 . S
C709 H697 0.950 . S
C709 C705 1.393 . S
C709 C708 1.391 . S
C710 H700 0.950 . S
C710 C711 1.386 . S
C710 C712 1.391 . S
C711 C710 1.386 . S
C711 C715 1.393 . S
C712 H701 0.950 . S
C712 C710 1.391 . S
C712 C713 1.400 . S
C713 C707 1.491 . S
C713 C712 1.400 . S
C713 C714 1.398 . S
C714 H702 0.950 . S
C714 C713 1.398 . S
C714 C715 1.391 . S
C715 H703 0.950 . S
C715 C711 1.393 . S
C715 C714 1.391 . S
H716 C724 0.950 . S
H717 C729 0.950 . S
H718 C726 0.950 . S
H719 C728 0.950 . S
H720 C730 0.950 . S
H721 C732 0.950 . S
H722 C734 0.950 . S
H723 C735 0.950 . S
C724 H716 0.950 . S
C724 C725 1.386 . S
C724 C726 1.391 . S
C725 C724 1.386 . S
C725 C729 1.393 . S
C726 H718 0.950 . S
C726 C724 1.391 . S
C726 C727 1.400 . S
C727 C726 1.400 . S
C727 C728 1.398 . S
C727 C733 1.491 . S
C728 H719 0.950 . S
C728 C727 1.398 . S
C728 C729 1.391 . S
C729 H717 0.950 . S
C729 C725 1.393 . S
C729 C728 1.391 . S
C730 H720 0.950 . S
C730 C731 1.386 . S
C730 C732 1.391 . S
C731 C730 1.386 . S
C731 C735 1.393 . S
C732 H721 0.950 . S
C732 C730 1.391 . S
C732 C733 1.400 . S
C733 C727 1.491 . S
C733 C732 1.400 . S
C733 C734 1.398 . S
C734 H722 0.950 . S
C734 C733 1.398 . S
C734 C735 1.391 . S
C735 H723 0.950 . S
C735 C731 1.393 . S
C735 C734 1.391 . S
C265 C6 1.026 . S
C271 C102 1.062 . S
C285 C18 1.222 . S
C291 C151 1.208 . S
C311 C186 2.593 . S
C305 C28 2.653 . S
C325 C40 1.811 . S
C331 C225 1.772 . S
C351 C146 2.318 . S
C345 C9 2.231 . S
C371 C105 0.828 . S
C365 C16 0.833 . S
C391 C235 1.891 . S
C385 C30 1.928 . S
C411 C194 1.295 . S
C405 C42 1.332 . S
C425 C4 1.463 . S
C431 C222 1.488 . S
C451 C154 2.506 . S
C445 C33 2.600 . S
C465 C45 2.082 . S
C471 C115 2.058 . S
C485 C21 0.998 . S
C491 C191 1.021 . S
C511 C111 1.074 . S
C505 C57 1.065 . S
C525 C66 1.249 . S
C531 C142 1.227 . S
C545 C76 2.700 . S
C551 C195 2.642 . S
C565 C88 1.738 . S
C571 C234 1.709 . S
C585 C54 2.199 . S
C591 C155 2.309 . S
C611 C114 0.941 . S
C605 C64 0.950 . S
C631 C226 1.790 . S
C625 C78 1.844 . S
C651 C185 1.337 . S
C645 C93 1.375 . S
C665 C52 1.405 . S
C671 C231 1.481 . S
C691 C145 2.509 . S
C685 C81 2.596 . S
C711 C106 2.044 . S
C705 C90 2.061 . S
C725 C69 1.026 . S
C731 C182 1.035 . S
