# Generated by pormake.
# Topology tbo, (3,4)-cn, num edge types: 1
# Building blocks:
#     Node 0, Type 0, BuildingBlock: PAMTOO_clean_linker_0, # of connection points: 3
#     Node 1, Type 0, BuildingBlock: PAMTOO_clean_linker_0, # of connection points: 3
#     Node 2, Type 0, BuildingBlock: PAMTOO_clean_linker_0, # of connection points: 3
#     Node 3, Type 0, BuildingBlock: PAMTOO_clean_linker_0, # of connection points: 3
#     Node 4, Type 0, BuildingBlock: PAMTOO_clean_linker_0, # of connection points: 3
#     Node 5, Type 0, BuildingBlock: PAMTOO_clean_linker_0, # of connection points: 3
#     Node 6, Type 0, BuildingBlock: PAMTOO_clean_linker_0, # of connection points: 3
#     Node 7, Type 0, BuildingBlock: PAMTOO_clean_linker_0, # of connection points: 3
#     Node 8, Type 0, BuildingBlock: PAMTOO_clean_linker_0, # of connection points: 3
#     Node 9, Type 0, BuildingBlock: PAMTOO_clean_linker_0, # of connection points: 3
#     Node 10, Type 0, BuildingBlock: PAMTOO_clean_linker_0, # of connection points: 3
#     Node 11, Type 0, BuildingBlock: PAMTOO_clean_linker_0, # of connection points: 3
#     Node 12, Type 0, BuildingBlock: PAMTOO_clean_linker_0, # of connection points: 3
#     Node 13, Type 0, BuildingBlock: PAMTOO_clean_linker_0, # of connection points: 3
#     Node 14, Type 0, BuildingBlock: PAMTOO_clean_linker_0, # of connection points: 3
#     Node 15, Type 0, BuildingBlock: PAMTOO_clean_linker_0, # of connection points: 3
#     Node 16, Type 0, BuildingBlock: PAMTOO_clean_linker_0, # of connection points: 3
#     Node 17, Type 0, BuildingBlock: PAMTOO_clean_linker_0, # of connection points: 3
#     Node 18, Type 0, BuildingBlock: PAMTOO_clean_linker_0, # of connection points: 3
#     Node 19, Type 0, BuildingBlock: PAMTOO_clean_linker_0, # of connection points: 3
#     Node 20, Type 0, BuildingBlock: PAMTOO_clean_linker_0, # of connection points: 3
#     Node 21, Type 0, BuildingBlock: PAMTOO_clean_linker_0, # of connection points: 3
#     Node 22, Type 0, BuildingBlock: PAMTOO_clean_linker_0, # of connection points: 3
#     Node 23, Type 0, BuildingBlock: PAMTOO_clean_linker_0, # of connection points: 3
#     Node 24, Type 0, BuildingBlock: PAMTOO_clean_linker_0, # of connection points: 3
#     Node 25, Type 0, BuildingBlock: PAMTOO_clean_linker_0, # of connection points: 3
#     Node 26, Type 0, BuildingBlock: PAMTOO_clean_linker_0, # of connection points: 3
#     Node 27, Type 0, BuildingBlock: PAMTOO_clean_linker_0, # of connection points: 3
#     Node 28, Type 0, BuildingBlock: PAMTOO_clean_linker_0, # of connection points: 3
#     Node 29, Type 0, BuildingBlock: PAMTOO_clean_linker_0, # of connection points: 3
#     Node 30, Type 0, BuildingBlock: PAMTOO_clean_linker_0, # of connection points: 3
#     Node 31, Type 0, BuildingBlock: PAMTOO_clean_linker_0, # of connection points: 3
#     Node 32, Type 1, BuildingBlock: ESEHIV_clean_sbu_0, # of connection points: 4
#     Node 33, Type 1, BuildingBlock: ESEHIV_clean_sbu_0, # of connection points: 4
#     Node 34, Type 1, BuildingBlock: ESEHIV_clean_sbu_0, # of connection points: 4
#     Node 35, Type 1, BuildingBlock: ESEHIV_clean_sbu_0, # of connection points: 4
#     Node 36, Type 1, BuildingBlock: ESEHIV_clean_sbu_0, # of connection points: 4
#     Node 37, Type 1, BuildingBlock: ESEHIV_clean_sbu_0, # of connection points: 4
#     Node 38, Type 1, BuildingBlock: ESEHIV_clean_sbu_0, # of connection points: 4
#     Node 39, Type 1, BuildingBlock: ESEHIV_clean_sbu_0, # of connection points: 4
#     Node 40, Type 1, BuildingBlock: ESEHIV_clean_sbu_0, # of connection points: 4
#     Node 41, Type 1, BuildingBlock: ESEHIV_clean_sbu_0, # of connection points: 4
#     Node 42, Type 1, BuildingBlock: ESEHIV_clean_sbu_0, # of connection points: 4
#     Node 43, Type 1, BuildingBlock: ESEHIV_clean_sbu_0, # of connection points: 4
#     Node 44, Type 1, BuildingBlock: ESEHIV_clean_sbu_0, # of connection points: 4
#     Node 45, Type 1, BuildingBlock: ESEHIV_clean_sbu_0, # of connection points: 4
#     Node 46, Type 1, BuildingBlock: ESEHIV_clean_sbu_0, # of connection points: 4
#     Node 47, Type 1, BuildingBlock: ESEHIV_clean_sbu_0, # of connection points: 4
#     Node 48, Type 1, BuildingBlock: ESEHIV_clean_sbu_0, # of connection points: 4
#     Node 49, Type 1, BuildingBlock: ESEHIV_clean_sbu_0, # of connection points: 4
#     Node 50, Type 1, BuildingBlock: ESEHIV_clean_sbu_0, # of connection points: 4
#     Node 51, Type 1, BuildingBlock: ESEHIV_clean_sbu_0, # of connection points: 4
#     Node 52, Type 1, BuildingBlock: ESEHIV_clean_sbu_0, # of connection points: 4
#     Node 53, Type 1, BuildingBlock: ESEHIV_clean_sbu_0, # of connection points: 4
#     Node 54, Type 1, BuildingBlock: ESEHIV_clean_sbu_0, # of connection points: 4
#     Node 55, Type 1, BuildingBlock: ESEHIV_clean_sbu_0, # of connection points: 4
#     Edge 56, Type (0, 1), BuildingBlock: OJICUG_clean_linker_0, # of connection points: 2
#     Edge 57, Type (0, 1), BuildingBlock: OJICUG_clean_linker_0, # of connection points: 2
#     Edge 58, Type (0, 1), BuildingBlock: OJICUG_clean_linker_0, # of connection points: 2
#     Edge 59, Type (0, 1), BuildingBlock: OJICUG_clean_linker_0, # of connection points: 2
#     Edge 60, Type (0, 1), BuildingBlock: OJICUG_clean_linker_0, # of connection points: 2
#     Edge 61, Type (0, 1), BuildingBlock: OJICUG_clean_linker_0, # of connection points: 2
#     Edge 62, Type (0, 1), BuildingBlock: OJICUG_clean_linker_0, # of connection points: 2
#     Edge 63, Type (0, 1), BuildingBlock: OJICUG_clean_linker_0, # of connection points: 2
#     Edge 64, Type (0, 1), BuildingBlock: OJICUG_clean_linker_0, # of connection points: 2
#     Edge 65, Type (0, 1), BuildingBlock: OJICUG_clean_linker_0, # of connection points: 2
#     Edge 66, Type (0, 1), BuildingBlock: OJICUG_clean_linker_0, # of connection points: 2
#     Edge 67, Type (0, 1), BuildingBlock: OJICUG_clean_linker_0, # of connection points: 2
#     Edge 68, Type (0, 1), BuildingBlock: OJICUG_clean_linker_0, # of connection points: 2
#     Edge 69, Type (0, 1), BuildingBlock: OJICUG_clean_linker_0, # of connection points: 2
#     Edge 70, Type (0, 1), BuildingBlock: OJICUG_clean_linker_0, # of connection points: 2
#     Edge 71, Type (0, 1), BuildingBlock: OJICUG_clean_linker_0, # of connection points: 2
#     Edge 72, Type (0, 1), BuildingBlock: OJICUG_clean_linker_0, # of connection points: 2
#     Edge 73, Type (0, 1), BuildingBlock: OJICUG_clean_linker_0, # of connection points: 2
#     Edge 74, Type (0, 1), BuildingBlock: OJICUG_clean_linker_0, # of connection points: 2
#     Edge 75, Type (0, 1), BuildingBlock: OJICUG_clean_linker_0, # of connection points: 2
#     Edge 76, Type (0, 1), BuildingBlock: OJICUG_clean_linker_0, # of connection points: 2
#     Edge 77, Type (0, 1), BuildingBlock: OJICUG_clean_linker_0, # of connection points: 2
#     Edge 78, Type (0, 1), BuildingBlock: OJICUG_clean_linker_0, # of connection points: 2
#     Edge 79, Type (0, 1), BuildingBlock: OJICUG_clean_linker_0, # of connection points: 2
#     Edge 80, Type (0, 1), BuildingBlock: OJICUG_clean_linker_0, # of connection points: 2
#     Edge 81, Type (0, 1), BuildingBlock: OJICUG_clean_linker_0, # of connection points: 2
#     Edge 82, Type (0, 1), BuildingBlock: OJICUG_clean_linker_0, # of connection points: 2
#     Edge 83, Type (0, 1), BuildingBlock: OJICUG_clean_linker_0, # of connection points: 2
#     Edge 84, Type (0, 1), BuildingBlock: OJICUG_clean_linker_0, # of connection points: 2
#     Edge 85, Type (0, 1), BuildingBlock: OJICUG_clean_linker_0, # of connection points: 2
#     Edge 86, Type (0, 1), BuildingBlock: OJICUG_clean_linker_0, # of connection points: 2
#     Edge 87, Type (0, 1), BuildingBlock: OJICUG_clean_linker_0, # of connection points: 2
#     Edge 88, Type (0, 1), BuildingBlock: OJICUG_clean_linker_0, # of connection points: 2
#     Edge 89, Type (0, 1), BuildingBlock: OJICUG_clean_linker_0, # of connection points: 2
#     Edge 90, Type (0, 1), BuildingBlock: OJICUG_clean_linker_0, # of connection points: 2
#     Edge 91, Type (0, 1), BuildingBlock: OJICUG_clean_linker_0, # of connection points: 2
#     Edge 92, Type (0, 1), BuildingBlock: OJICUG_clean_linker_0, # of connection points: 2
#     Edge 93, Type (0, 1), BuildingBlock: OJICUG_clean_linker_0, # of connection points: 2
#     Edge 94, Type (0, 1), BuildingBlock: OJICUG_clean_linker_0, # of connection points: 2
#     Edge 95, Type (0, 1), BuildingBlock: OJICUG_clean_linker_0, # of connection points: 2
#     Edge 96, Type (0, 1), BuildingBlock: OJICUG_clean_linker_0, # of connection points: 2
#     Edge 97, Type (0, 1), BuildingBlock: OJICUG_clean_linker_0, # of connection points: 2
#     Edge 98, Type (0, 1), BuildingBlock: OJICUG_clean_linker_0, # of connection points: 2
#     Edge 99, Type (0, 1), BuildingBlock: OJICUG_clean_linker_0, # of connection points: 2
#     Edge 100, Type (0, 1), BuildingBlock: OJICUG_clean_linker_0, # of connection points: 2
#     Edge 101, Type (0, 1), BuildingBlock: OJICUG_clean_linker_0, # of connection points: 2
#     Edge 102, Type (0, 1), BuildingBlock: OJICUG_clean_linker_0, # of connection points: 2
#     Edge 103, Type (0, 1), BuildingBlock: OJICUG_clean_linker_0, # of connection points: 2
#     Edge 104, Type (0, 1), BuildingBlock: OJICUG_clean_linker_0, # of connection points: 2
#     Edge 105, Type (0, 1), BuildingBlock: OJICUG_clean_linker_0, # of connection points: 2
#     Edge 106, Type (0, 1), BuildingBlock: OJICUG_clean_linker_0, # of connection points: 2
#     Edge 107, Type (0, 1), BuildingBlock: OJICUG_clean_linker_0, # of connection points: 2
#     Edge 108, Type (0, 1), BuildingBlock: OJICUG_clean_linker_0, # of connection points: 2
#     Edge 109, Type (0, 1), BuildingBlock: OJICUG_clean_linker_0, # of connection points: 2
#     Edge 110, Type (0, 1), BuildingBlock: OJICUG_clean_linker_0, # of connection points: 2
#     Edge 111, Type (0, 1), BuildingBlock: OJICUG_clean_linker_0, # of connection points: 2
#     Edge 112, Type (0, 1), BuildingBlock: OJICUG_clean_linker_0, # of connection points: 2
#     Edge 113, Type (0, 1), BuildingBlock: OJICUG_clean_linker_0, # of connection points: 2
#     Edge 114, Type (0, 1), BuildingBlock: OJICUG_clean_linker_0, # of connection points: 2
#     Edge 115, Type (0, 1), BuildingBlock: OJICUG_clean_linker_0, # of connection points: 2
#     Edge 116, Type (0, 1), BuildingBlock: OJICUG_clean_linker_0, # of connection points: 2
#     Edge 117, Type (0, 1), BuildingBlock: OJICUG_clean_linker_0, # of connection points: 2
#     Edge 118, Type (0, 1), BuildingBlock: OJICUG_clean_linker_0, # of connection points: 2
#     Edge 119, Type (0, 1), BuildingBlock: OJICUG_clean_linker_0, # of connection points: 2
#     Edge 120, Type (0, 1), BuildingBlock: OJICUG_clean_linker_0, # of connection points: 2
#     Edge 121, Type (0, 1), BuildingBlock: OJICUG_clean_linker_0, # of connection points: 2
#     Edge 122, Type (0, 1), BuildingBlock: OJICUG_clean_linker_0, # of connection points: 2
#     Edge 123, Type (0, 1), BuildingBlock: OJICUG_clean_linker_0, # of connection points: 2
#     Edge 124, Type (0, 1), BuildingBlock: OJICUG_clean_linker_0, # of connection points: 2
#     Edge 125, Type (0, 1), BuildingBlock: OJICUG_clean_linker_0, # of connection points: 2
#     Edge 126, Type (0, 1), BuildingBlock: OJICUG_clean_linker_0, # of connection points: 2
#     Edge 127, Type (0, 1), BuildingBlock: OJICUG_clean_linker_0, # of connection points: 2
#     Edge 128, Type (0, 1), BuildingBlock: OJICUG_clean_linker_0, # of connection points: 2
#     Edge 129, Type (0, 1), BuildingBlock: OJICUG_clean_linker_0, # of connection points: 2
#     Edge 130, Type (0, 1), BuildingBlock: OJICUG_clean_linker_0, # of connection points: 2
#     Edge 131, Type (0, 1), BuildingBlock: OJICUG_clean_linker_0, # of connection points: 2
#     Edge 132, Type (0, 1), BuildingBlock: OJICUG_clean_linker_0, # of connection points: 2
#     Edge 133, Type (0, 1), BuildingBlock: OJICUG_clean_linker_0, # of connection points: 2
#     Edge 134, Type (0, 1), BuildingBlock: OJICUG_clean_linker_0, # of connection points: 2
#     Edge 135, Type (0, 1), BuildingBlock: OJICUG_clean_linker_0, # of connection points: 2
#     Edge 136, Type (0, 1), BuildingBlock: OJICUG_clean_linker_0, # of connection points: 2
#     Edge 137, Type (0, 1), BuildingBlock: OJICUG_clean_linker_0, # of connection points: 2
#     Edge 138, Type (0, 1), BuildingBlock: OJICUG_clean_linker_0, # of connection points: 2
#     Edge 139, Type (0, 1), BuildingBlock: OJICUG_clean_linker_0, # of connection points: 2
#     Edge 140, Type (0, 1), BuildingBlock: OJICUG_clean_linker_0, # of connection points: 2
#     Edge 141, Type (0, 1), BuildingBlock: OJICUG_clean_linker_0, # of connection points: 2
#     Edge 142, Type (0, 1), BuildingBlock: OJICUG_clean_linker_0, # of connection points: 2
#     Edge 143, Type (0, 1), BuildingBlock: OJICUG_clean_linker_0, # of connection points: 2
#     Edge 144, Type (0, 1), BuildingBlock: OJICUG_clean_linker_0, # of connection points: 2
#     Edge 145, Type (0, 1), BuildingBlock: OJICUG_clean_linker_0, # of connection points: 2
#     Edge 146, Type (0, 1), BuildingBlock: OJICUG_clean_linker_0, # of connection points: 2
#     Edge 147, Type (0, 1), BuildingBlock: OJICUG_clean_linker_0, # of connection points: 2
#     Edge 148, Type (0, 1), BuildingBlock: OJICUG_clean_linker_0, # of connection points: 2
#     Edge 149, Type (0, 1), BuildingBlock: OJICUG_clean_linker_0, # of connection points: 2
#     Edge 150, Type (0, 1), BuildingBlock: OJICUG_clean_linker_0, # of connection points: 2
#     Edge 151, Type (0, 1), BuildingBlock: OJICUG_clean_linker_0, # of connection points: 2
# Relax obj value: 0.022
# Max RMSD: 0.194
# Mean RMSD: 0.111
data_MOF--net-tbo--node1-ESEHIV_clean_sbu_0--node2-PAMTOO_clean_linker_0--edge1-OJICUG_clean_linker_0
_symmetry_space_group_name_H-M    P1
_symmetry_Int_Tables_number       1
_symmetry_cell_setting            triclinic
loop_
_symmetry_equiv_pos_as_xyz
'x, y, z'
_cell_length_a     51.757243
_cell_length_b     54.016653
_cell_length_c     53.641147
_cell_angle_alpha  90.720484
_cell_angle_beta   94.664083
_cell_angle_gamma 98.470882
loop_
_atom_site_label
_atom_site_type_symbol
_atom_site_fract_x
_atom_site_fract_y
_atom_site_fract_z
_atom_type_partial_charge
H0 H 0.14528 0.24029 0.2189 0.0
H1 H 0.15033 0.17636 0.26539 0.0
H2 H 0.20237 0.19142 0.20748 0.0
H3 H 0.18693 0.13816 0.21387 0.0
C4 C 0.18187 0.13804 0.23364 0.0
O5 O 0.18951 0.16177 0.24424 0.0
H6 H 0.16024 0.13284 0.23353 0.0
C7 C 0.15392 0.22369 0.2236 0.0
C8 C 0.17475 0.21773 0.21027 0.0
C9 C 0.14486 0.20906 0.24364 0.0
C10 C 0.15697 0.18804 0.25021 0.0
C11 C 0.17764 0.18173 0.2372 0.0
C12 C 0.18649 0.19661 0.21741 0.0
H13 H 0.87517 0.17738 0.22813 0.0
H14 H 0.82261 0.17841 0.16194 0.0
H15 H 0.88598 0.23855 0.17714 0.0
H16 H 0.82976 0.25062 0.16051 0.0
C17 C 0.82484 0.23502 0.14639 0.0
O18 O 0.845 0.2209 0.14667 0.0
H19 H 0.80657 0.22305 0.15113 0.0
C20 C 0.86934 0.1864 0.21109 0.0
C21 C 0.88386 0.20923 0.2045 0.0
C22 C 0.8473 0.17504 0.19582 0.0
C23 C 0.83969 0.18671 0.17385 0.0
C24 C 0.85327 0.20972 0.16755 0.0
C25 C 0.87533 0.22098 0.18271 0.0
H26 H 0.89287 0.83125 0.19979 0.0
H27 H 0.8396 0.88565 0.20146 0.0
H28 H 0.89982 0.88582 0.26064 0.0
H29 H 0.85073 0.89628 0.27681 0.0
C30 C 0.84338 0.90665 0.26056 0.0
O31 O 0.86148 0.90838 0.24278 0.0
H32 H 0.82448 0.8959 0.25253 0.0
C33 C 0.88598 0.84666 0.20905 0.0
C34 C 0.89942 0.85711 0.23178 0.0
C35 C 0.86444 0.85694 0.19757 0.0
C36 C 0.85615 0.8775 0.20959 0.0
C37 C 0.869 0.88787 0.23213 0.0
C38 C 0.89038 0.87763 0.24308 0.0
H39 H 0.13222 0.86206 0.21909 0.0
H40 H 0.1387 0.80824 0.16108 0.0
H41 H 0.19316 0.87672 0.16878 0.0
H42 H 0.18104 0.85991 0.11412 0.0
C43 C 0.17019 0.84134 0.1184 0.0
O44 O 0.17846 0.83495 0.14228 0.0
H45 H 0.14888 0.84293 0.11706 0.0
C46 C 0.14191 0.85663 0.20314 0.0
C47 C 0.1638 0.87241 0.1956 0.0
C48 C 0.1328 0.83348 0.1909 0.0
C49 C 0.14566 0.82598 0.17079 0.0
C50 C 0.16714 0.84176 0.16262 0.0
C51 C 0.17648 0.86474 0.17522 0.0
H52 H 0.15744 0.92391 0.82155 0.0
H53 H 0.17396 0.87052 0.87758 0.0
H54 H 0.23012 0.93547 0.86816 0.0
H55 H 0.2573 0.89177 0.88147 0.0
C56 C 0.23943 0.87902 0.88587 0.0
O57 O 0.22071 0.89343 0.89192 0.0
H58 H 0.23228 0.86693 0.86901 0.0
C59 C 0.16995 0.91812 0.83687 0.0
C60 C 0.19424 0.9329 0.84375 0.0
C61 C 0.16212 0.89557 0.84887 0.0
C62 C 0.17942 0.88764 0.86775 0.0
C63 C 0.20403 0.90176 0.87427 0.0
C64 C 0.21127 0.92447 0.86252 0.0
H65 H 0.18737 0.26645 0.94173 0.0
H66 H 0.18618 0.2261 0.87152 0.0
H67 H 0.23827 0.21129 0.93431 0.0
H68 H 0.26209 0.20655 0.88978 0.0
C69 C 0.2451 0.2023 0.87552 0.0
O70 O 0.22214 0.1989 0.88751 0.0
H71 H 0.24517 0.21854 0.86296 0.0
C72 C 0.19432 0.25258 0.93026 0.0
C73 C 0.21384 0.23944 0.94099 0.0
C74 C 0.18376 0.24811 0.90522 0.0
C75 C 0.19411 0.23048 0.89063 0.0
C76 C 0.21393 0.21735 0.90102 0.0
C77 C 0.22365 0.22193 0.92617 0.0
H78 H 0.82308 0.18757 0.90231 0.0
H79 H 0.89156 0.23751 0.88284 0.0
H80 H 0.8693 0.16689 0.84452 0.0
H81 H 0.92538 0.18126 0.83945 0.0
C82 C 0.92548 0.19717 0.85282 0.0
O83 O 0.9028 0.20752 0.84797 0.0
H84 H 0.92684 0.18957 0.87205 0.0
C85 C 0.83969 0.19206 0.89127 0.0
C86 C 0.8446 0.17444 0.87336 0.0
C87 C 0.85633 0.21534 0.89477 0.0
C88 C 0.87792 0.22026 0.88016 0.0
C89 C 0.88225 0.20284 0.86202 0.0
C90 C 0.86549 0.18028 0.8585 0.0
H91 H 0.78827 0.90809 0.91553 0.0
H92 H 0.84582 0.85798 0.92057 0.0
H93 H 0.84177 0.90659 0.85813 0.0
H94 H 0.85136 0.85402 0.84589 0.0
C95 C 0.86347 0.85075 0.8633 0.0
O96 O 0.86637 0.87179 0.87889 0.0
H97 H 0.85282 0.8345 0.87264 0.0
C98 C 0.80454 0.90084 0.90802 0.0
C99 C 0.81355 0.91005 0.88529 0.0
C100 C 0.81592 0.88211 0.92106 0.0
C101 C 0.83645 0.87209 0.91071 0.0
C102 C 0.8456 0.88073 0.88794 0.0
C103 C 0.83411 0.89963 0.87532 0.0
H104 H 0.15359 0.76781 0.68869 0.0
H105 H 0.14974 0.70462 0.73804 0.0
H106 H 0.20826 0.71497 0.68632 0.0
H107 H 0.19008 0.66259 0.69496 0.0
C108 C 0.18365 0.66414 0.71414 0.0
O109 O 0.1907 0.68844 0.72319 0.0
H110 H 0.16193 0.65903 0.71287 0.0
C111 C 0.16037 0.75082 0.69524 0.0
C112 C 0.18199 0.74281 0.68455 0.0
C113 C 0.14861 0.7376 0.71522 0.0
C114 C 0.1585 0.71578 0.72345 0.0
C115 C 0.18005 0.70799 0.71328 0.0
C116 C 0.19157 0.72136 0.69394 0.0
H117 H 0.90274 0.72583 0.74484 0.0
H118 H 0.8341 0.69792 0.69556 0.0
H119 H 0.88571 0.76319 0.6765 0.0
H120 H 0.8285 0.764 0.6751 0.0
C121 C 0.82352 0.74821 0.66114 0.0
O122 O 0.84294 0.73308 0.66247 0.0
H123 H 0.8048 0.73701 0.66569 0.0
C124 C 0.88994 0.72722 0.72805 0.0
C125 C 0.89656 0.74676 0.71158 0.0
C126 C 0.86765 0.70902 0.72248 0.0
C127 C 0.85169 0.71122 0.70019 0.0
C128 C 0.85824 0.73081 0.68377 0.0
C129 C 0.88083 0.74819 0.68933 0.0
H130 H 0.89047 0.34977 0.71857 0.0
H131 H 0.83299 0.39813 0.69907 0.0
H132 H 0.88978 0.41773 0.76137 0.0
H133 H 0.8307 0.42547 0.76517 0.0
C134 C 0.82864 0.43411 0.74654 0.0
O135 O 0.85057 0.4321 0.7338 0.0
H136 H 0.81105 0.42375 0.73567 0.0
C137 C 0.88191 0.36646 0.72199 0.0
C138 C 0.89285 0.38275 0.74221 0.0
C139 C 0.86023 0.37152 0.7061 0.0
C140 C 0.84964 0.39363 0.71074 0.0
C141 C 0.86011 0.41014 0.7307 0.0
C142 C 0.88152 0.40457 0.7464 0.0
H143 H 0.15988 0.40474 0.74315 0.0
H144 H 0.13767 0.3436 0.68988 0.0
H145 H 0.2062 0.39694 0.68113 0.0
H146 H 0.17501 0.37875 0.63299 0.0
C147 C 0.16593 0.36021 0.63935 0.0
O148 O 0.17692 0.3559 0.6629 0.0
H149 H 0.14448 0.36029 0.63996 0.0
C150 C 0.16305 0.39513 0.72606 0.0
C151 C 0.18493 0.40392 0.71306 0.0
C152 C 0.14577 0.37351 0.71786 0.0
C153 C 0.15075 0.36032 0.69654 0.0
C154 C 0.17242 0.36887 0.68336 0.0
C155 C 0.18953 0.39055 0.69159 0.0
H156 H 0.13531 0.40857 0.31478 0.0
H157 H 0.14817 0.3617 0.37782 0.0
H158 H 0.20945 0.41875 0.35942 0.0
H159 H 0.22994 0.37604 0.37608 0.0
C160 C 0.21375 0.36656 0.38656 0.0
O161 O 0.19623 0.38303 0.38999 0.0
H162 H 0.20384 0.34982 0.3754 0.0
C163 C 0.14791 0.40316 0.33026 0.0
C164 C 0.17354 0.41617 0.33511 0.0
C165 C 0.13825 0.38366 0.34577 0.0
C166 C 0.15483 0.37703 0.36596 0.0
C167 C 0.18033 0.38976 0.37079 0.0
C168 C 0.1895 0.40937 0.35559 0.0
H169 H 0.19867 0.73565 0.40309 0.0
H170 H 0.19647 0.68493 0.34027 0.0
H171 H 0.24581 0.67605 0.40704 0.0
H172 H 0.27107 0.66455 0.3643 0.0
C173 C 0.25437 0.65971 0.34984 0.0
O174 O 0.23107 0.65835 0.36135 0.0
H175 H 0.25538 0.67491 0.33599 0.0
C176 C 0.20527 0.7196 0.39472 0.0
C177 C 0.22337 0.70691 0.40857 0.0
C178 C 0.19508 0.71183 0.37028 0.0
C179 C 0.20405 0.69122 0.35906 0.0
C180 C 0.2229 0.67865 0.37208 0.0
C181 C 0.23213 0.68639 0.39688 0.0
H182 H 0.81889 0.64817 0.39155 0.0
H183 H 0.88179 0.70899 0.41057 0.0
H184 H 0.88639 0.65845 0.34928 0.0
H185 H 0.93157 0.66813 0.37868 0.0
C186 C 0.93328 0.68855 0.38303 0.0
O187 O 0.91039 0.69741 0.37505 0.0
H188 H 0.93698 0.69131 0.40368 0.0
C189 C 0.83798 0.65844 0.38866 0.0
C190 C 0.85171 0.65056 0.36926 0.0
C191 C 0.84825 0.67975 0.40364 0.0
C192 C 0.873 0.69284 0.39904 0.0
C193 C 0.88662 0.68509 0.37943 0.0
C194 C 0.87566 0.66435 0.36428 0.0
H195 H 0.78086 0.37972 0.43983 0.0
H196 H 0.84032 0.33163 0.44112 0.0
H197 H 0.83846 0.38733 0.38538 0.0
H198 H 0.84888 0.33924 0.36568 0.0
C199 C 0.85838 0.33187 0.38281 0.0
O200 O 0.86181 0.35009 0.40168 0.0
H201 H 0.84497 0.31519 0.38841 0.0
C202 C 0.7981 0.37432 0.43241 0.0
C203 C 0.80823 0.38652 0.41136 0.0
C204 C 0.8094 0.35453 0.44348 0.0
C205 C 0.83103 0.34665 0.4329 0.0
C206 C 0.84112 0.35816 0.41175 0.0
C207 C 0.82995 0.37821 0.40128 0.0
H208 H 0.65271 0.24871 0.70104 0.0
H209 H 0.65018 0.19077 0.75609 0.0
H210 H 0.70415 0.19274 0.69981 0.0
H211 H 0.68103 0.14239 0.71093 0.0
C212 C 0.67756 0.14484 0.73095 0.0
O213 O 0.68724 0.16917 0.73888 0.0
H214 H 0.65599 0.14123 0.73234 0.0
C215 C 0.6596 0.23219 0.70874 0.0
C216 C 0.68003 0.22246 0.69777 0.0
C217 C 0.64838 0.2209 0.72982 0.0
C218 C 0.65784 0.19946 0.73959 0.0
C219 C 0.6778 0.18935 0.72872 0.0
C220 C 0.68875 0.20084 0.70797 0.0
H221 H 0.37801 0.22538 0.72599 0.0
H222 H 0.3248 0.23095 0.66104 0.0
H223 H 0.39202 0.28723 0.6765 0.0
H224 H 0.34887 0.30845 0.65376 0.0
C225 C 0.3364 0.29129 0.64555 0.0
O226 O 0.35134 0.2721 0.64531 0.0
H227 H 0.31967 0.2863 0.65725 0.0
C228 C 0.37211 0.23542 0.70964 0.0
C229 C 0.3877 0.2578 0.70356 0.0
C230 C 0.3492 0.22556 0.69474 0.0
C231 C 0.3424 0.23803 0.67283 0.0
C232 C 0.35802 0.26011 0.6663 0.0
C233 C 0.38056 0.26988 0.68158 0.0
H234 H 0.39071 0.86403 0.71412 0.0
H235 H 0.33798 0.91869 0.70268 0.0
H236 H 0.39843 0.92871 0.76304 0.0
H237 H 0.35486 0.94814 0.77654 0.0
C238 C 0.34478 0.95233 0.7583 0.0
O239 O 0.36076 0.9489 0.73939 0.0
H240 H 0.32613 0.93908 0.75529 0.0
C241 C 0.38347 0.88086 0.71977 0.0
C242 C 0.39645 0.89465 0.74079 0.0
C243 C 0.36223 0.88901 0.70553 0.0
C244 C 0.35428 0.91183 0.71288 0.0
C245 C 0.36749 0.92622 0.73345 0.0
C246 C 0.38854 0.91759 0.74716 0.0
H247 H 0.6254 0.87338 0.72722 0.0
H248 H 0.62865 0.80967 0.67944 0.0
H249 H 0.6882 0.87422 0.67902 0.0
H250 H 0.66893 0.85187 0.62786 0.0
C251 C 0.6618 0.83252 0.63363 0.0
O252 O 0.67027 0.8298 0.65839 0.0
H253 H 0.63997 0.82976 0.6312 0.0
C254 C 0.63497 0.86443 0.71308 0.0
C255 C 0.6582 0.87683 0.70442 0.0
C256 C 0.62434 0.84022 0.70433 0.0
C257 C 0.63688 0.82829 0.68652 0.0
C258 C 0.65957 0.84074 0.67704 0.0
C259 C 0.67054 0.8648 0.68632 0.0
H260 H 0.63544 0.89129 0.32962 0.0
H261 H 0.64682 0.83835 0.38741 0.0
H262 H 0.7085 0.89804 0.3755 0.0
H263 H 0.72578 0.8509 0.38312 0.0
C264 C 0.712 0.84214 0.3965 0.0
O265 O 0.69502 0.85864 0.4018 0.0
H266 H 0.70069 0.82474 0.38754 0.0
C267 C 0.64761 0.8847 0.34475 0.0
C268 C 0.67313 0.89727 0.3507 0.0
C269 C 0.63768 0.86354 0.35784 0.0
C270 C 0.65379 0.85493 0.37732 0.0
C271 C 0.67933 0.86733 0.3835 0.0
C272 C 0.68881 0.88856 0.37038 0.0
H273 H 0.66557 0.22798 0.40772 0.0
H274 H 0.67112 0.18099 0.34317 0.0
H275 H 0.71637 0.17127 0.41169 0.0
H276 H 0.74433 0.1626 0.37246 0.0
C277 C 0.72906 0.15702 0.35679 0.0
O278 O 0.70452 0.15469 0.3659 0.0
H279 H 0.73074 0.17189 0.34261 0.0
C280 C 0.67365 0.21299 0.39899 0.0
C281 C 0.69202 0.20059 0.41312 0.0
C282 C 0.66578 0.20618 0.37357 0.0
C283 C 0.67691 0.1868 0.36246 0.0
C284 C 0.69495 0.17419 0.37632 0.0
C285 C 0.7022 0.18104 0.40145 0.0
H286 H 0.3079 0.16146 0.39701 0.0
H287 H 0.36382 0.2272 0.41738 0.0
H288 H 0.38339 0.17187 0.36703 0.0
H289 H 0.42647 0.1956 0.40698 0.0
C290 C 0.42133 0.21489 0.40637 0.0
O291 O 0.3996 0.21541 0.38977 0.0
H292 H 0.4169 0.2202 0.42551 0.0
C293 C 0.32703 0.17242 0.39577 0.0
C294 C 0.34469 0.16375 0.38039 0.0
C295 C 0.33361 0.19521 0.40927 0.0
C296 C 0.35831 0.20951 0.40721 0.0
C297 C 0.37629 0.20097 0.39224 0.0
C298 C 0.36955 0.17806 0.37896 0.0
H299 H 0.27562 0.89785 0.42068 0.0
H300 H 0.32941 0.84391 0.42494 0.0
H301 H 0.33067 0.89472 0.36459 0.0
H302 H 0.33671 0.84265 0.35004 0.0
C303 C 0.3466 0.83713 0.36787 0.0
O304 O 0.3514 0.85749 0.38435 0.0
H305 H 0.33313 0.82179 0.37576 0.0
C306 C 0.29147 0.88984 0.41324 0.0
C307 C 0.30169 0.89902 0.39083 0.0
C308 C 0.30104 0.86969 0.42565 0.0
C309 C 0.32133 0.85906 0.41557 0.0
C310 C 0.3317 0.86791 0.39354 0.0
C311 C 0.32198 0.88782 0.38133 0.0
H312 H 0.63383 0.74464 0.20666 0.0
H313 H 0.63971 0.68323 0.25643 0.0
H314 H 0.6948 0.6984 0.20168 0.0
H315 H 0.68037 0.64284 0.21097 0.0
C316 C 0.67264 0.64514 0.22947 0.0
O317 O 0.6803 0.66952 0.23818 0.0
H318 H 0.65086 0.64084 0.22675 0.0
C319 C 0.6435 0.72914 0.21302 0.0
C320 C 0.66535 0.72332 0.20095 0.0
C321 C 0.63417 0.71512 0.23346 0.0
C322 C 0.64669 0.69477 0.24129 0.0
C323 C 0.66819 0.68874 0.22966 0.0
C324 C 0.67759 0.70304 0.2098 0.0
H325 H 0.3707 0.69432 0.21219 0.0
H326 H 0.32868 0.68767 0.13904 0.0
H327 H 0.3807 0.7551 0.16138 0.0
H328 H 0.33343 0.765 0.13787 0.0
C329 C 0.32706 0.7484 0.12515 0.0
O330 O 0.34648 0.73331 0.12627 0.0
H331 H 0.30877 0.73797 0.13169 0.0
C332 C 0.3662 0.70184 0.194 0.0
C333 C 0.37805 0.72614 0.18886 0.0
C334 C 0.34861 0.6873 0.17625 0.0
C335 C 0.3423 0.6981 0.15313 0.0
C336 C 0.35371 0.72257 0.14793 0.0
C337 C 0.37204 0.73626 0.16554 0.0
H338 H 0.33852 0.40853 0.20329 0.0
H339 H 0.38702 0.35007 0.209 0.0
H340 H 0.39587 0.40789 0.26607 0.0
H341 H 0.44821 0.38745 0.25519 0.0
C342 C 0.43845 0.36927 0.24663 0.0
O343 O 0.41218 0.36591 0.25149 0.0
H344 H 0.43997 0.37004 0.22606 0.0
C345 C 0.35435 0.40031 0.21282 0.0
C346 C 0.36653 0.41152 0.23553 0.0
C347 C 0.36135 0.37806 0.20289 0.0
C348 C 0.38112 0.36701 0.21619 0.0
C349 C 0.39378 0.37773 0.23876 0.0
C350 C 0.3863 0.39987 0.24848 0.0
H351 H 0.70524 0.41108 0.2524 0.0
H352 H 0.6781 0.35449 0.19478 0.0
H353 H 0.74803 0.40695 0.18779 0.0
H354 H 0.70962 0.39887 0.14578 0.0
C355 C 0.70932 0.37825 0.14408 0.0
O356 O 0.7171 0.36855 0.16675 0.0
H357 H 0.68883 0.36954 0.13837 0.0
C358 C 0.70705 0.40211 0.23456 0.0
C359 C 0.72817 0.4114 0.22095 0.0
C360 C 0.68857 0.3816 0.22556 0.0
C361 C 0.69206 0.37018 0.20245 0.0
C362 C 0.71363 0.37927 0.18895 0.0
C363 C 0.73171 0.39975 0.19839 0.0
H364 H 0.66605 0.43838 0.83623 0.0
H365 H 0.63389 0.3768 0.87971 0.0
H366 H 0.71185 0.41393 0.89985 0.0
H367 H 0.68693 0.35085 0.88722 0.0
C368 C 0.67998 0.35312 0.90614 0.0
O369 O 0.67542 0.37734 0.91046 0.0
H370 H 0.66124 0.3402 0.90679 0.0
C371 C 0.66828 0.42602 0.85177 0.0
C372 C 0.69166 0.42912 0.86783 0.0
C373 C 0.64742 0.40721 0.85606 0.0
C374 C 0.64982 0.39149 0.87638 0.0
C375 C 0.6731 0.39368 0.89181 0.0
C376 C 0.69392 0.41248 0.88767 0.0
H377 H 0.67304 0.75376 0.93393 0.0
H378 H 0.66797 0.70916 0.86604 0.0
H379 H 0.72441 0.69867 0.92683 0.0
H380 H 0.73844 0.69844 0.86835 0.0
C381 C 0.7202 0.68548 0.86225 0.0
O382 O 0.704 0.68244 0.8817 0.0
H383 H 0.70989 0.69399 0.84628 0.0
C384 C 0.67997 0.7396 0.92281 0.0
C385 C 0.70023 0.72721 0.93342 0.0
C386 C 0.6682 0.73367 0.89842 0.0
C387 C 0.67681 0.71443 0.88471 0.0
C388 C 0.6972 0.70197 0.89473 0.0
C389 C 0.70913 0.70868 0.91894 0.0
H390 H 0.28136 0.64761 0.84448 0.0
H391 H 0.3375 0.71337 0.86578 0.0
H392 H 0.35206 0.66453 0.80687 0.0
H393 H 0.39677 0.67939 0.83964 0.0
C394 C 0.39325 0.69803 0.84653 0.0
O395 O 0.37084 0.70434 0.83407 0.0
H396 H 0.39081 0.69668 0.86693 0.0
C397 C 0.2996 0.65972 0.84213 0.0
C398 C 0.31567 0.65362 0.82371 0.0
C399 C 0.30689 0.68174 0.85704 0.0
C400 C 0.33096 0.69687 0.85393 0.0
C401 C 0.34716 0.69051 0.83601 0.0
C402 C 0.33922 0.66932 0.8206 0.0
H403 H 0.30168 0.41233 0.92669 0.0
H404 H 0.35615 0.35959 0.93796 0.0
H405 H 0.36186 0.4092 0.87622 0.0
H406 H 0.36491 0.3544 0.86629 0.0
C407 C 0.37868 0.35175 0.88276 0.0
O408 O 0.38156 0.3726 0.8986 0.0
H409 H 0.37006 0.33502 0.89276 0.0
C410 C 0.31854 0.40451 0.92123 0.0
C411 C 0.33078 0.41365 0.89995 0.0
C412 C 0.32746 0.38517 0.93537 0.0
C413 C 0.34864 0.3743 0.92734 0.0
C414 C 0.36072 0.38272 0.9058 0.0
C415 C 0.35184 0.40239 0.89231 0.0
Cu416 Cu 0.26484 0.30471 0.08 0.0
N417 N 0.26457 0.33136 0.05776 0.0
N418 N 0.27628 0.35362 0.02432 0.0
C419 C 0.27902 0.33311 0.03784 0.0
C420 C 0.25931 0.36532 0.0363 0.0
C421 C 0.25204 0.35151 0.05683 0.0
O422 O 0.26288 0.2765 0.05593 0.0
C423 C 0.29689 0.33483 0.1149 0.0
O424 O 0.27831 0.34827 0.10866 0.0
H425 H 0.2917 0.31964 0.03364 0.0
H426 H 0.23883 0.35608 0.07021 0.0
N427 N 0.23626 0.29865 0.10007 0.0
N428 N 0.21144 0.28085 0.1295 0.0
C429 C 0.23402 0.28149 0.11822 0.0
C430 C 0.21438 0.30938 0.09993 0.0
C431 C 0.19908 0.29845 0.11794 0.0
C432 C 0.24031 0.27128 0.04386 0.0
O433 O 0.22106 0.28209 0.0513 0.0
H434 H 0.24859 0.26943 0.12273 0.0
H435 H 0.20966 0.32392 0.08746 0.0
O436 O 0.29591 0.31344 0.104 0.0
H437 H 0.25243 0.38252 0.03057 0.0
H438 H 0.18038 0.30334 0.12228 0.0
Cu439 Cu 0.78916 0.30993 0.01603 0.0
N440 N 0.79179 0.33819 0.037 0.0
N441 N 0.77782 0.3597 0.06792 0.0
C442 C 0.77131 0.34193 0.0497 0.0
C443 C 0.80368 0.36765 0.06649 0.0
C444 C 0.81229 0.35427 0.04738 0.0
O445 O 0.78871 0.28276 0.03922 0.0
C446 C 0.76045 0.32997 0.98 0.0
O447 O 0.7823 0.3459 0.98303 0.0
H448 H 0.75241 0.33022 0.04686 0.0
H449 H 0.83228 0.35506 0.04256 0.0
N450 N 0.81636 0.30754 0.99559 0.0
N451 N 0.83722 0.28937 0.9671 0.0
C452 C 0.81789 0.28636 0.98268 0.0
C453 C 0.83551 0.32473 0.98808 0.0
C454 C 0.84841 0.31355 0.9704 0.0
C455 C 0.81085 0.28344 0.0517 0.0
O456 O 0.83051 0.30002 0.04585 0.0
H457 H 0.80416 0.26933 0.9839 0.0
H458 H 0.83925 0.34414 0.99435 0.0
O459 O 0.75806 0.31071 0.99359 0.0
H460 H 0.81576 0.38138 0.07895 0.0
H461 H 0.86448 0.32261 0.9605 0.0
Cu462 Cu 0.76336 0.79889 0.06978 0.0
N463 N 0.76602 0.82699 0.04896 0.0
N464 N 0.77679 0.85019 0.01571 0.0
C465 C 0.77757 0.82808 0.02719 0.0
C466 C 0.76416 0.86349 0.03102 0.0
C467 C 0.7576 0.84923 0.05138 0.0
O468 O 0.75771 0.77083 0.04486 0.0
C469 C 0.7974 0.82339 0.10763 0.0
O470 O 0.78008 0.83864 0.10338 0.0
H471 H 0.78661 0.81289 0.02012 0.0
H472 H 0.74756 0.8549 0.06689 0.0
N473 N 0.73442 0.79578 0.08965 0.0
N474 N 0.70821 0.78172 0.11952 0.0
C475 C 0.72947 0.77849 0.10737 0.0
C476 C 0.71544 0.81029 0.09054 0.0
C477 C 0.6994 0.80176 0.10895 0.0
C478 C 0.73519 0.76834 0.03251 0.0
O479 O 0.71817 0.7824 0.03924 0.0
H480 H 0.74163 0.76418 0.11165 0.0
H481 H 0.71327 0.82595 0.07866 0.0
O482 O 0.79473 0.80318 0.09428 0.0
H483 H 0.75962 0.88215 0.02774 0.0
H484 H 0.68237 0.80957 0.11396 0.0
Cu485 Cu 0.24402 0.76377 0.9903 0.0
N486 N 0.2159 0.76289 1.01011 0.0
N487 N 0.19317 0.77518 0.04057 0.0
C488 C 0.21663 0.77723 0.03091 0.0
C489 C 0.17692 0.75881 0.0251 0.0
C490 C 0.19101 0.75129 1.00628 0.0
O491 O 0.27445 0.76104 0.0133 0.0
C492 C 0.26288 0.80571 0.95979 0.0
O493 O 0.28579 0.79786 0.96136 0.0
H494 H 0.23375 0.78999 0.03803 0.0
H495 H 0.18339 0.73899 0.99048 0.0
N496 N 0.23995 0.73656 0.96773 0.0
N497 N 0.2487 0.71251 0.93608 0.0
C498 C 0.25346 0.7354 0.94744 0.0
C499 C 0.22615 0.71359 0.96941 0.0
C500 C 0.23145 0.69872 0.94988 0.0
C501 C 0.28635 0.77825 0.02822 0.0
O502 O 0.28117 0.80122 0.02565 0.0
H503 H 0.26753 0.75075 0.94191 0.0
H504 H 0.21386 0.70777 0.98427 0.0
O505 O 0.24441 0.79434 0.97144 0.0
H506 H 0.15624 0.75308 0.02688 0.0
H507 H 0.22356 0.67918 0.94643 0.0
Cu508 Cu 1.00454 0.28036 0.30765 0.0
N509 N 0.02855 0.25719 0.31006 0.0
N510 N 0.06165 0.23755 0.29935 0.0
C511 C 0.04406 0.2528 0.29191 0.0
C512 C 0.05684 0.23217 0.32325 0.0
C513 C 0.03663 0.24438 0.32981 0.0
O514 O 0.02702 0.31263 0.30856 0.0
C515 C 0.97171 0.24933 0.27428 0.0
O516 O 0.97843 0.23351 0.29115 0.0
H517 H 0.04313 0.26163 0.27393 0.0
H518 H 0.02914 0.24461 0.34802 0.0
N519 N 0.98187 0.27968 0.33363 0.0
N520 N 0.9498 0.29021 0.35581 0.0
C521 C 0.96587 0.29679 0.33748 0.0
C522 C 0.9756 0.26153 0.34996 0.0
C523 C 0.95605 0.268 0.36369 0.0
C524 C 0.03856 0.31943 0.32999 0.0
O525 O 0.03215 0.30597 0.3494 0.0
H526 H 0.96571 0.31347 0.32655 0.0
H527 H 0.98374 0.24423 0.35108 0.0
O528 O 0.98168 0.27233 0.27703 0.0
H529 H 0.06737 0.22055 0.33541 0.0
H530 H 0.94633 0.25652 0.37756 0.0
Cu531 Cu 0.77111 0.03324 0.27735 0.0
N532 N 0.77279 0.05163 0.24839 0.0
N533 N 0.78695 0.08333 0.2243 0.0
C534 C 0.78724 0.07433 0.24762 0.0
C535 C 0.77167 0.0654 0.20975 0.0
C536 C 0.76298 0.04577 0.22472 0.0
O537 O 0.76933 0.05806 0.30431 0.0
C538 C 0.80762 0.99843 0.29309 0.0
O539 O 0.80009 0.99955 0.31582 0.0
H540 H 0.79855 0.08356 0.26386 0.0
H541 H 0.75093 0.02831 0.2187 0.0
N542 N 0.74054 0.01016 0.27661 0.0
N543 N 0.71274 0.97842 0.2896 0.0
C544 C 0.73693 0.99162 0.29295 0.0
C545 C 0.71771 1.00871 0.26229 0.0
C546 C 0.70037 0.98911 0.27041 0.0
C547 C 0.7491 0.06915 0.30093 0.0
O548 O 0.73268 0.06246 0.28122 0.0
H549 H 0.75142 0.98841 0.30772 0.0
H550 H 0.71372 0.02134 0.24746 0.0
O551 O 0.79985 0.01318 0.27669 0.0
H552 H 0.76724 0.06624 0.18974 0.0
H553 H 0.68032 0.98323 0.26291 0.0
Cu554 Cu 0.04052 0.77103 0.29536 0.0
N555 N 0.01997 0.79732 0.29625 0.0
N556 N 0.98859 0.82043 0.28403 0.0
C557 C 0.99954 0.79974 0.27946 0.0
C558 C 1.00261 0.83131 0.30469 0.0
C559 C 0.02178 0.81701 0.31223 0.0
O560 O 0.01846 0.74262 0.30813 0.0
C561 C 0.05934 0.79069 0.25371 0.0
O562 O 0.06059 0.81013 0.26893 0.0
H563 H 0.99322 0.78678 0.26385 0.0
H564 H 0.03593 0.82074 0.32828 0.0
N565 N 0.07296 0.77515 0.31517 0.0
N566 N 0.1115 0.76566 0.33229 0.0
C567 C 0.08845 0.75715 0.31886 0.0
C568 C 0.08665 0.79585 0.32656 0.0
C569 C 0.11018 0.79008 0.33719 0.0
C570 C 0.01538 0.74582 0.33124 0.0
O571 O 0.02839 0.76587 0.34306 0.0
H572 H 0.08305 0.73831 0.3112 0.0
H573 H 0.08031 0.81403 0.32673 0.0
O574 O 0.05026 0.76907 0.26118 0.0
H575 H 0.9991 0.84827 0.31395 0.0
H576 H 0.1251 0.8031 0.34771 0.0
Cu577 Cu 0.25268 0.01437 0.29573 0.0
N578 N 0.28398 0.03671 0.30949 0.0
N579 N 0.31041 0.06959 0.32762 0.0
C580 C 0.28532 0.05848 0.32237 0.0
C581 C 0.32528 0.05402 0.31776 0.0
C582 C 0.30891 0.03381 0.30654 0.0
O583 O 0.23946 0.0439 0.27721 0.0
C584 C 0.26477 0.98294 0.33809 0.0
O585 O 0.25581 1.00043 0.35066 0.0
H586 H 0.26828 0.06599 0.32772 0.0
H587 H 0.31472 0.01828 0.29655 0.0
N588 N 0.22205 0.99166 0.2812 0.0
N589 N 0.19746 0.96082 0.25802 0.0
C590 C 0.22174 0.97388 0.26328 0.0
C591 C 0.19733 0.98989 0.28767 0.0
C592 C 0.18211 0.97092 0.27339 0.0
C593 C 0.22448 0.05727 0.28719 0.0
O594 O 0.2173 0.05173 0.30964 0.0
H595 H 0.239 0.97063 0.25438 0.0
H596 H 0.19095 1.0013 0.302 0.0
O597 O 0.26555 0.98491 0.31446 0.0
H598 H 0.34643 0.0573 0.31797 0.0
H599 H 0.16146 0.96466 0.2748 0.0
Cu600 Cu 0.01738 0.81604 0.7895 0.0
N601 N 0.0329 0.78783 0.78116 0.0
N602 N 0.06186 0.76601 0.76555 0.0
C603 C 0.05348 0.78845 0.76702 0.0
C604 C 0.04619 0.75069 0.77951 0.0
C605 C 0.02823 0.76414 0.78898 0.0
O606 O 0.04629 0.84189 0.80063 0.0
C607 C 0.99276 0.81214 0.74019 0.0
O608 O 1.01351 0.80432 0.73215 0.0
H609 H 0.06263 0.80525 0.75857 0.0
H610 H 1.01324 0.75725 0.80114 0.0
N611 N 0.99422 0.8115 0.81501 0.0
N612 N 0.96015 0.81799 0.83663 0.0
C613 C 0.97372 0.82419 0.81649 0.0
C614 C 0.99379 0.79673 0.83501 0.0
C615 C 0.97285 0.80066 0.84833 0.0
C616 C 0.06264 0.83486 0.81715 0.0
O617 O 0.05783 0.81217 0.82585 0.0
H618 H 0.96913 0.838 0.80306 0.0
H619 H 1.00768 0.78404 0.83964 0.0
O620 O 0.99497 0.82416 0.76098 0.0
H621 H 0.04772 0.73119 0.78275 0.0
H622 H 0.96729 0.79114 0.86514 0.0
Cu623 Cu 0.27757 0.08342 0.78133 0.0
N624 N 0.2783 0.1024 0.75228 0.0
N625 N 0.29036 0.13429 0.72737 0.0
C626 C 0.29393 0.12439 0.75019 0.0
C627 C 0.27171 0.11776 0.71456 0.0
C628 C 0.26421 0.09817 0.73002 0.0
O629 O 0.27751 0.10742 0.80949 0.0
C630 C 0.30403 0.04736 0.76222 0.0
O631 O 0.28693 0.05035 0.74345 0.0
H632 H 0.30786 0.13279 0.76516 0.0
H633 H 0.24956 0.08201 0.72533 0.0
N634 N 0.24721 0.0602 0.7819 0.0
N635 N 0.22278 0.02528 0.79337 0.0
C636 C 0.24664 0.03933 0.79534 0.0
C637 C 0.22278 0.05948 0.77091 0.0
C638 C 0.20758 0.03791 0.77807 0.0
C639 C 0.25801 0.11962 0.80812 0.0
O640 O 0.24055 0.11493 0.78882 0.0
H641 H 0.26347 0.03482 0.80674 0.0
H642 H 0.21644 0.0736 0.75871 0.0
O643 O 0.30523 0.06171 0.78164 0.0
H644 H 0.26375 0.11983 0.69554 0.0
H645 H 0.18706 0.03192 0.77229 0.0
Cu646 Cu 0.03998 0.31538 0.81922 0.0
N647 N 0.01609 0.33889 0.81947 0.0
N648 N 0.98205 0.35809 0.8054 0.0
C649 C 0.99728 0.34046 0.80074 0.0
C650 C 0.99178 0.368 0.8281 0.0
C651 C 1.01269 0.35621 0.83668 0.0
O652 O 0.01849 0.28319 0.82014 0.0
C653 C 0.06676 0.34292 0.78492 0.0
O654 O 0.06255 0.36054 0.80054 0.0
H655 H 0.99457 0.32844 0.78416 0.0
H656 H 0.02441 0.36005 0.85425 0.0
N657 N 0.06654 0.31615 0.84583 0.0
N658 N 0.09995 0.30302 0.86905 0.0
C659 C 0.08565 0.30143 0.84664 0.0
C660 C 0.06902 0.32761 0.8685 0.0
C661 C 0.08949 0.31956 0.8828 0.0
C662 C 1.00773 0.2795 0.84052 0.0
O663 O 1.01276 0.29693 0.85828 0.0
H664 H 0.08811 0.28879 0.83148 0.0
H665 H 0.05623 0.34007 0.87471 0.0
O666 O 0.05785 0.32026 0.78906 0.0
H667 H 0.98453 0.38291 0.83782 0.0
H668 H 0.09583 0.3251 0.90205 0.0
Cu669 Cu 0.74855 0.02323 0.79748 0.0
N670 N 0.77815 0.04592 0.81395 0.0
N671 N 0.80163 0.07752 0.83673 0.0
C672 C 0.77747 0.0672 0.82712 0.0
C673 C 0.81801 0.06211 0.8293 0.0
C674 C 0.80346 0.04265 0.81523 0.0
O675 O 0.73515 0.05307 0.77956 0.0
C676 C 0.76552 0.99113 0.83798 0.0
O677 O 0.75813 1.0083 0.85225 0.0
H678 H 0.75973 0.07486 0.82984 0.0
H679 H 0.81076 0.02716 0.80658 0.0
N680 N 0.71886 1.00054 0.78122 0.0
N681 N 0.69473 0.9696 0.7579 0.0
C682 C 0.71922 0.98147 0.76483 0.0
C683 C 0.69354 1.00069 0.78494 0.0
C684 C 0.67862 0.98171 0.77059 0.0
C685 C 0.71927 0.0661 0.78859 0.0
O686 O 0.71074 0.06041 0.81051 0.0
H687 H 0.737 0.97643 0.75823 0.0
H688 H 0.68645 0.01346 0.79752 0.0
O689 O 0.76273 0.9932 0.81428 0.0
H690 H 0.8391 0.06503 0.83321 0.0
H691 H 0.65755 0.97676 0.77017 0.0
Cu692 Cu 0.26415 0.80111 0.56146 0.0
N693 N 0.29489 0.81244 0.58263 0.0
N694 N 0.32023 0.83108 0.61559 0.0
C695 C 0.29687 0.82927 0.6019 0.0
C696 C 0.33352 0.81495 0.60448 0.0
C697 C 0.318 0.80367 0.58411 0.0
O698 O 0.23583 0.79429 0.58427 0.0
C699 C 0.28002 0.82797 0.52128 0.0
O700 O 0.29957 0.81559 0.52719 0.0
H701 H 0.28101 0.83905 0.60653 0.0
H702 H 0.32304 0.78958 0.57168 0.0
N703 N 0.26565 0.77142 0.54271 0.0
N704 N 0.25947 0.7451 0.50916 0.0
C705 C 0.25285 0.76585 0.51986 0.0
C706 C 0.28064 0.75324 0.54674 0.0
C707 C 0.277 0.73712 0.52605 0.0
C708 C 0.2415 0.78043 0.6025 0.0
O709 O 0.26372 0.77135 0.60294 0.0
H710 H 0.23971 0.77746 0.5108 0.0
H711 H 0.29367 0.75196 0.56331 0.0
O712 O 0.26092 0.82591 0.53521 0.0
H713 H 0.35297 0.81133 0.61087 0.0
H714 H 0.28654 0.72082 0.52363 0.0
Cu715 Cu 0.7582 0.76334 0.51965 0.0
N716 N 0.76167 0.73646 0.49854 0.0
N717 N 0.78011 0.71257 0.47292 0.0
C718 C 0.78325 0.73389 0.48688 0.0
C719 C 0.75569 0.70104 0.47618 0.0
C720 C 0.74434 0.71585 0.49201 0.0
O721 O 0.75395 0.79248 0.49944 0.0
C722 C 0.79314 0.78251 0.56254 0.0
O723 O 0.78279 0.80328 0.5607 0.0
H724 H 0.80109 0.74725 0.48889 0.0
H725 H 0.72485 0.71187 0.49824 0.0
N726 N 0.72743 0.75757 0.53602 0.0
N727 N 0.69996 0.76786 0.5633 0.0
C728 C 0.72511 0.76665 0.5591 0.0
C729 C 0.70276 0.7522 0.52537 0.0
C730 C 0.68576 0.75834 0.5422 0.0
C731 C 0.76624 0.79937 0.4805 0.0
O732 O 0.78719 0.78954 0.4761 0.0
H733 H 0.74168 0.77412 0.57183 0.0
H734 H 0.69768 0.74679 0.5059 0.0
O735 O 0.78722 0.7657 0.54538 0.0
H736 H 0.74651 0.68345 0.46736 0.0
H737 H 0.66491 0.75823 0.53818 0.0
Cu738 Cu 0.75636 0.27972 0.57134 0.0
N739 N 0.75049 0.25107 0.54976 0.0
N740 N 0.73581 0.22854 0.51447 0.0
C741 C 0.73637 0.25035 0.52733 0.0
C742 C 0.75013 0.2149 0.52962 0.0
C743 C 0.75918 0.22881 0.55126 0.0
O744 O 0.7593 0.30683 0.54715 0.0
C745 C 0.7325 0.25799 0.61052 0.0
O746 O 0.75098 0.2445 0.60661 0.0
H747 H 0.7268 0.26576 0.52055 0.0
H748 H 0.77154 0.22317 0.56673 0.0
N749 N 0.78803 0.28522 0.59221 0.0
N750 N 0.81614 0.30336 0.6236 0.0
C751 C 0.7945 0.30511 0.6082 0.0
C752 C 0.80642 0.27041 0.5975 0.0
C753 C 0.82371 0.2815 0.6169 0.0
C754 C 0.77819 0.30462 0.53365 0.0
O755 O 0.79313 0.28754 0.53954 0.0
H756 H 0.78271 0.31999 0.60936 0.0
H757 H 0.80674 0.25241 0.5886 0.0
O758 O 0.72915 0.27569 0.59546 0.0
H759 H 0.75441 0.19642 0.52517 0.0
H760 H 0.84031 0.27388 0.62565 0.0
Cu761 Cu 0.24041 0.28419 0.51393 0.0
N762 N 0.21202 0.28082 0.53342 0.0
N763 N 0.18817 0.29189 0.56345 0.0
C764 C 0.21228 0.29321 0.55531 0.0
C765 C 0.172 0.27783 0.54594 0.0
C766 C 0.18681 0.27106 0.52737 0.0
O767 O 0.27182 0.28859 0.5367 0.0
C768 C 0.25245 0.32124 0.47684 0.0
O769 O 0.27642 0.31579 0.47897 0.0
H770 H 0.22952 0.30474 0.56405 0.0
H771 H 0.17948 0.26119 0.50997 0.0
N772 N 0.24177 0.25549 0.49492 0.0
N773 N 0.25893 0.23004 0.46994 0.0
C774 C 0.26134 0.2531 0.48052 0.0
C775 C 0.22634 0.23309 0.49362 0.0
C776 C 0.23693 0.21728 0.47816 0.0
C777 C 0.28125 0.30782 0.55017 0.0
O778 O 0.27169 0.32884 0.5466 0.0
H779 H 0.27769 0.26774 0.47871 0.0
H780 H 0.20903 0.22839 0.50362 0.0
O781 O 0.23581 0.31108 0.49119 0.0
H782 H 0.1509 0.27371 0.54591 0.0
H783 H 0.22914 0.19792 0.47348 0.0
Cu784 Cu 0.79232 0.56776 0.80596 0.0
N785 N 0.82189 0.59219 0.80458 0.0
N786 N 0.84437 0.62637 0.78891 0.0
C787 C 0.82492 0.60685 0.78456 0.0
C788 C 0.85412 0.62376 0.81273 0.0
C789 C 0.84017 0.60268 0.82238 0.0
O790 O 0.76392 0.58809 0.80964 0.0
C791 C 0.81425 0.53424 0.77901 0.0
O792 O 0.8336 0.54446 0.79498 0.0
H793 H 0.81173 0.60416 0.7677 0.0
H794 H 0.84225 0.59636 0.84139 0.0
N795 N 0.79062 0.54598 0.83277 0.0
N796 N 0.77201 0.51209 0.85182 0.0
C797 C 0.77076 0.52685 0.83188 0.0
C798 C 0.80532 0.5434 0.85421 0.0
C799 C 0.79367 0.5225 0.86617 0.0
C800 C 0.76589 0.59888 0.83132 0.0
O801 O 0.78469 0.59414 0.84771 0.0
H802 H 0.75542 0.52402 0.81671 0.0
H803 H 0.82314 0.55564 0.86062 0.0
O804 O 0.79263 0.54331 0.77827 0.0
H805 H 0.86963 0.63659 0.82278 0.0
H806 H 0.8008 0.51533 0.88377 0.0
Cu807 Cu 0.26834 0.53361 0.78745 0.0
N808 N 0.2798 0.5224 0.81904 0.0
N809 N 0.29476 0.49783 0.84879 0.0
C810 C 0.28745 0.5 0.82414 0.0
C811 C 0.29151 0.51986 0.85944 0.0
C812 C 0.28224 0.53478 0.84122 0.0
O813 O 0.24556 0.50602 0.76996 0.0
C814 C 0.31105 0.56399 0.76436 0.0
O815 O 0.32825 0.56626 0.74753 0.0
H816 H 0.28737 0.48554 0.81002 0.0
H817 H 0.27812 0.5536 0.84399 0.0
N818 N 0.2492 0.5605 0.78944 0.0
N819 N 0.22855 0.59276 0.77775 0.0
C820 C 0.24393 0.57609 0.77085 0.0
C821 C 0.23648 0.56736 0.80869 0.0
C822 C 0.22389 0.58727 0.80162 0.0
C823 C 0.25483 0.48908 0.7583 0.0
O824 O 0.28036 0.4902 0.75838 0.0
H825 H 0.25069 0.57471 0.75238 0.0
H826 H 0.23577 0.55816 0.82644 0.0
O827 O 0.29774 0.54257 0.7672 0.0
H828 H 0.29589 0.52522 0.87899 0.0
H829 H 0.21205 0.59678 0.81318 0.0
Cu830 Cu 0.28902 0.5378 0.25944 0.0
N831 N 0.25663 0.51685 0.2583 0.0
N832 N 0.22384 0.48987 0.27158 0.0
C833 C 0.24752 0.50364 0.27768 0.0
C834 C 0.21764 0.49481 0.24743 0.0
C835 C 0.23779 0.51159 0.23935 0.0
O836 O 0.31648 0.51532 0.25842 0.0
C837 C 0.26862 0.57383 0.2865 0.0
O838 O 0.25076 0.56814 0.26767 0.0
H839 H 0.25831 0.50388 0.29583 0.0
H840 H 0.23836 0.51944 0.22098 0.0
N841 N 0.29147 0.55699 0.23048 0.0
N842 N 0.30208 0.58947 0.2059 0.0
C843 C 0.30291 0.58103 0.22951 0.0
C844 C 0.2837 0.5499 0.20653 0.0
C845 C 0.28991 0.57002 0.19137 0.0
C846 C 0.31878 0.49589 0.27145 0.0
O847 O 0.30477 0.49166 0.29069 0.0
H848 H 0.31188 0.59208 0.24577 0.0
H849 H 0.27495 0.53122 0.20033 0.0
O850 O 0.28875 0.56235 0.28759 0.0
H851 H 0.19974 0.48705 0.23645 0.0
H852 H 0.28674 0.57007 0.17117 0.0
Cu853 Cu 0.75673 0.52351 0.31848 0.0
N854 N 0.75146 0.49902 0.34284 0.0
N855 N 0.75931 0.46725 0.36742 0.0
C856 C 0.76696 0.4814 0.34801 0.0
C857 C 0.73811 0.47629 0.37478 0.0
C858 C 0.73324 0.49579 0.35951 0.0
O859 O 0.75677 0.5069 0.28655 0.0
C860 C 0.79766 0.5633 0.3155 0.0
O861 O 0.78621 0.56608 0.29315 0.0
H862 H 0.78405 0.47946 0.33825 0.0
H863 H 0.71763 0.50691 0.36069 0.0
N864 N 0.731 0.54461 0.31577 0.0
N865 N 0.70899 0.57419 0.29932 0.0
C866 C 0.72397 0.55636 0.2948 0.0
C867 C 0.72014 0.55537 0.33426 0.0
C868 C 0.70638 0.57342 0.32416 0.0
C869 C 0.77485 0.49517 0.28023 0.0
O870 O 0.79644 0.49593 0.29507 0.0
H871 H 0.73075 0.55259 0.27678 0.0
H872 H 0.72339 0.55156 0.35391 0.0
O873 O 0.78921 0.54462 0.32823 0.0
H874 H 0.72687 0.46924 0.39002 0.0
H875 H 0.69659 0.58602 0.3346 0.0
Cu876 Cu 0.52413 0.31446 0.7961 0.0
N877 N 0.50655 0.31663 0.82539 0.0
N878 N 0.47577 0.32531 0.85013 0.0
C879 C 0.48352 0.32539 0.82661 0.0
C880 C 0.49488 0.31613 0.86425 0.0
C881 C 0.51377 0.31085 0.849 0.0
O882 O 0.49714 0.30957 0.76833 0.0
C883 C 0.54971 0.36444 0.80649 0.0
O884 O 0.52806 0.36778 0.81638 0.0
H885 H 0.47295 0.33208 0.81046 0.0
H886 H 0.53153 0.30336 0.85472 0.0
N887 N 0.54258 0.28699 0.79536 0.0
N888 N 0.56972 0.26158 0.78234 0.0
C889 C 0.56101 0.2839 0.77959 0.0
C890 C 0.53958 0.26597 0.80865 0.0
C891 C 0.55624 0.25029 0.80068 0.0
C892 C 0.47916 0.2913 0.77133 0.0
O893 O 0.48115 0.27783 0.79144 0.0
H894 H 0.56733 0.29752 0.76588 0.0
H895 H 0.52596 0.26215 0.82286 0.0
O896 O 0.55045 0.34401 0.79465 0.0
H897 H 0.49514 0.3131 0.88416 0.0
H898 H 0.55827 0.23201 0.80793 0.0
Cu899 Cu 0.52475 0.79889 0.80983 0.0
N900 N 0.54978 0.79801 0.83717 0.0
N901 N 0.5836 0.78637 0.8608 0.0
C902 C 0.56743 0.78189 0.83958 0.0
C903 C 0.57564 0.80605 0.87219 0.0
C904 C 0.5548 0.81312 0.85765 0.0
O905 O 0.54335 0.79555 0.78031 0.0
C906 C 0.48239 0.77327 0.83095 0.0
O907 O 0.48846 0.79247 0.84671 0.0
H908 H 0.56872 0.76749 0.82571 0.0
H909 H 0.54413 0.82826 0.8617 0.0
N910 N 0.51025 0.82896 0.80804 0.0
N911 N 0.48273 0.85589 0.79554 0.0
C912 C 0.48665 0.83163 0.79651 0.0
C913 C 0.52167 0.8523 0.81488 0.0
C914 C 0.5048 0.86887 0.80734 0.0
C915 C 0.53695 0.80426 0.75916 0.0
O916 O 0.51468 0.81314 0.75566 0.0
H917 H 0.47329 0.81605 0.78784 0.0
H918 H 0.54125 0.85704 0.82394 0.0
O919 O 0.49629 0.77178 0.81263 0.0
H920 H 0.5841 0.81463 0.8899 0.0
H921 H 0.50888 0.88898 0.80999 0.0
Cu922 Cu 0.49474 0.78157 0.3017 0.0
N923 N 0.47134 0.78118 0.32705 0.0
N924 N 0.43822 0.79263 0.34699 0.0
C925 C 0.4537 0.79719 0.32791 0.0
C926 C 0.44663 0.7729 0.35866 0.0
C927 C 0.46694 0.76587 0.34635 0.0
O928 O 0.47313 0.78132 0.27021 0.0
C929 C 0.53366 0.81021 0.33055 0.0
O930 O 0.52448 0.79353 0.34646 0.0
H931 H 0.45224 0.81183 0.31451 0.0
H932 H 0.47731 0.75041 0.351 0.0
N933 N 0.51372 0.75464 0.29954 0.0
N934 N 0.54597 0.73538 0.28646 0.0
C935 C 0.53063 0.75326 0.28184 0.0
C936 C 0.51842 0.73685 0.31593 0.0
C937 C 0.53822 0.72493 0.30789 0.0
C938 C 0.45398 0.76346 0.26906 0.0
O939 O 0.45201 0.74793 0.28771 0.0
H940 H 0.53289 0.7664 0.26682 0.0
H941 H 0.50933 0.73364 0.33323 0.0
O942 O 0.52211 0.80994 0.30858 0.0
H943 H 0.43823 0.76363 0.37453 0.0
H944 H 0.54684 0.71027 0.31756 0.0
Cu945 Cu 0.55379 0.29552 0.31698 0.0
N946 N 0.5376 0.29835 0.34654 0.0
N947 N 0.50724 0.28363 0.37229 0.0
C948 C 0.52548 0.278 0.35737 0.0
C949 C 0.50882 0.30882 0.37158 0.0
C950 C 0.52745 0.31783 0.35553 0.0
O951 O 0.52633 0.29929 0.28956 0.0
C952 C 0.59384 0.26237 0.31588 0.0
O953 O 0.60473 0.27748 0.2995 0.0
H954 H 0.52808 0.25918 0.35214 0.0
H955 H 0.53109 0.33671 0.34878 0.0
N956 N 0.58012 0.32239 0.31257 0.0
N957 N 0.61063 0.34676 0.29312 0.0
C958 C 0.59164 0.32672 0.29106 0.0
C959 C 0.5919 0.34063 0.32873 0.0
C960 C 0.61073 0.35577 0.31673 0.0
C961 C 0.50179 0.29741 0.29265 0.0
O962 O 0.49279 0.28493 0.31173 0.0
H963 H 0.58641 0.31511 0.27429 0.0
H964 H 0.58741 0.34254 0.34795 0.0
O965 O 0.57104 0.26506 0.3222 0.0
H966 H 0.49563 0.31969 0.3799 0.0
H967 H 0.62405 0.37165 0.32495 0.0
C968 C 0.21118 0.23883 0.18541 0.0
C969 C 0.1843 0.23371 0.18915 0.0
H970 H 0.24089 0.25787 0.16397 0.0
C971 C 0.16658 0.24424 0.17262 0.0
H972 H 0.22554 0.23144 0.19789 0.0
C973 C 0.17544 0.25952 0.15316 0.0
C974 C 0.20232 0.26476 0.1495 0.0
H975 H 0.1457 0.24044 0.17449 0.0
H976 H 0.16108 0.26696 0.14077 0.0
C977 C 0.22005 0.25408 0.16588 0.0
C978 C 0.79625 0.24283 0.10749 0.0
C979 C 0.82101 0.24589 0.12098 0.0
H980 H 0.77349 0.25213 0.0746 0.0
C981 C 0.84237 0.26007 0.11089 0.0
H982 H 0.77946 0.232 0.11501 0.0
C983 C 0.83907 0.27127 0.08786 0.0
C984 C 0.81423 0.26883 0.07451 0.0
H985 H 0.86159 0.26275 0.12105 0.0
H986 H 0.85598 0.2824 0.08085 0.0
C987 C 0.79287 0.25422 0.08437 0.0
C988 C 0.84308 0.86437 0.15502 0.0
C989 C 0.85076 0.84729 0.17272 0.0
H990 H 0.82085 0.87011 0.1208 0.0
C991 C 0.8436 0.82146 0.16693 0.0
H992 H 0.84874 0.88433 0.1583 0.0
C993 C 0.82767 0.81316 0.14484 0.0
C994 C 0.8186 0.83055 0.12817 0.0
H995 H 0.84916 0.80772 0.18005 0.0
H996 H 0.82123 0.7933 0.14158 0.0
C997 C 0.8272 0.85617 0.1333 0.0
C998 C 0.15558 0.81123 0.08167 0.0
C999 C 0.1755 0.82221 0.09951 0.0
H1000 H 0.14552 0.78766 0.04892 0.0
C1001 C 0.20092 0.81639 0.09848 0.0
H1002 H 0.13583 0.81556 0.08195 0.0
C1003 C 0.20646 0.80024 0.07972 0.0
C1004 C 0.18675 0.78978 0.06134 0.0
H1005 H 0.21662 0.82469 0.11197 0.0
H1006 H 0.22631 0.79622 0.07946 0.0
C1007 C 0.16112 0.79513 0.06282 0.0
C1008 C 0.27165 0.85683 0.91176 0.0
C1009 C 0.24592 0.86213 0.90703 0.0
H1010 H 0.29732 0.83516 0.93227 0.0
C1011 C 0.22603 0.84931 0.92035 0.0
H1012 H 0.28727 0.86605 0.90138 0.0
C1013 C 0.23177 0.8317 0.9381 0.0
C1014 C 0.25746 0.82609 0.94261 0.0
H1015 H 0.20593 0.85254 0.91668 0.0
H1016 H 0.21585 0.82194 0.94776 0.0
C1017 C 0.27738 0.83907 0.9294 0.0
C1018 C 0.2032 0.24079 0.9855 0.0
C1019 C 0.22229 0.24321 0.96822 0.0
H1020 H 0.19426 0.2468 0.02306 0.0
C1021 C 0.24864 0.25124 0.97702 0.0
H1022 H 0.18282 0.23435 0.97936 0.0
C1023 C 0.25533 0.25854 1.00235 0.0
C1024 C 0.23575 0.25769 0.01921 0.0
H1025 H 0.26376 0.25329 0.96406 0.0
H1026 H 0.2754 0.26638 1.00829 0.0
C1027 C 0.20983 0.24781 1.0106 0.0
C1028 C 0.8566 0.26023 0.90871 0.0
C1029 C 0.85156 0.23446 0.91362 0.0
H1030 H 0.85609 0.2978 0.92179 0.0
C1031 C 0.84224 0.22725 0.93676 0.0
H1032 H 0.86334 0.26658 0.89096 0.0
C1033 C 0.83789 0.24524 0.95434 0.0
C1034 C 0.84288 0.27094 0.94936 0.0
H1035 H 0.83861 0.20768 0.94148 0.0
H1036 H 0.83082 0.23902 0.97199 0.0
C1037 C 0.85246 0.27821 0.92639 0.0
C1038 C 0.80275 0.84819 0.95179 0.0
C1039 C 0.80659 0.87367 0.94575 0.0
H1040 H 0.78984 0.82065 0.97826 0.0
C1041 C 0.801 0.89122 0.96339 0.0
H1042 H 0.80662 0.83412 0.9386 0.0
C1043 C 0.79153 0.88356 0.98622 0.0
C1044 C 0.7872 0.85804 0.9922 0.0
H1045 H 0.80418 0.91105 0.95964 0.0
H1046 H 0.78783 0.89781 0.99924 0.0
C1047 C 0.7931 0.84047 0.97464 0.0
C1048 C 0.10126 0.22472 0.24561 0.0
C1049 C 0.12313 0.21602 0.25795 0.0
H1050 H 0.06455 0.23781 0.24874 0.0
C1051 C 0.12417 0.21427 0.28416 0.0
H1052 H 0.09952 0.22599 0.22542 0.0
C1053 C 0.1041 0.22117 0.29763 0.0
C1054 C 0.08223 0.22998 0.28533 0.0
H1055 H 0.14083 0.20803 0.29442 0.0
H1056 H 0.10608 0.21997 0.31778 0.0
C1057 C 0.08112 0.23154 0.25906 0.0
C1058 C 0.82453 0.14841 0.2276 0.0
C1059 C 0.83176 0.15135 0.20305 0.0
H1060 H 0.8039 0.12491 0.25337 0.0
C1061 C 0.82344 0.13181 0.18534 0.0
H1062 H 0.8302 0.16335 0.2415 0.0
C1063 C 0.80846 0.10962 0.19215 0.0
C1064 C 0.80139 0.10656 0.2168 0.0
H1065 H 0.82887 0.13355 0.16628 0.0
H1066 H 0.80291 0.09472 0.17822 0.0
C1067 C 0.80943 0.12634 0.23436 0.0
C1068 C 0.92508 0.82158 0.24385 0.0
C1069 C 0.92315 0.84735 0.2438 0.0
H1070 H 0.94719 0.79279 0.25674 0.0
C1071 C 0.94391 0.86395 0.25629 0.0
H1072 H 0.90955 0.80813 0.23465 0.0
C1073 C 0.96523 0.85513 0.2692 0.0
C1074 C 0.96685 0.82939 0.26982 0.0
H1075 H 0.94377 0.88397 0.25615 0.0
H1076 H 0.98061 0.86858 0.27859 0.0
C1077 C 0.94668 0.81274 0.25661 0.0
C1078 C 0.19978 0.90373 0.21739 0.0
C1079 C 0.17313 0.89658 0.20945 0.0
H1080 H 0.22842 0.92944 0.23939 0.0
C1081 C 0.155 0.91183 0.21641 0.0
H1082 H 0.2142 0.89227 0.2125 0.0
C1083 C 0.16309 0.93315 0.23171 0.0
C1084 C 0.18956 0.93981 0.24063 0.0
H1085 H 0.13438 0.90709 0.21025 0.0
H1086 H 0.14846 0.94429 0.23669 0.0
C1087 C 0.2079 0.92507 0.23286 0.0
C1088 C 0.11432 0.89147 0.83275 0.0
C1089 C 0.13626 0.88015 0.84112 0.0
H1090 H 0.07391 0.88608 0.81821 0.0
C1091 C 0.13341 0.85386 0.84146 0.0
H1092 H 0.11548 0.91164 0.83266 0.0
C1093 C 0.10939 0.83937 0.83388 0.0
C1094 C 0.08772 0.85071 0.82524 0.0
H1095 H 0.14983 0.84433 0.84714 0.0
H1096 H 0.10797 0.81917 0.83432 0.0
C1097 C 0.0904 0.87689 0.8246 0.0
C1098 C 0.27055 0.16774 0.86249 0.0
C1099 C 0.24774 0.17926 0.85985 0.0
H1100 H 0.29182 0.13981 0.84851 0.0
C1101 C 0.22829 0.17036 0.84082 0.0
H1102 H 0.28606 0.17437 0.87684 0.0
C1103 C 0.23161 0.15072 0.82464 0.0
C1104 C 0.25458 0.13941 0.82685 0.0
H1105 H 0.21069 0.17899 0.83813 0.0
H1106 H 0.21618 0.14471 0.81003 0.0
C1107 C 0.2739 0.14797 0.84623 0.0
C1108 C 0.95949 0.22017 0.82704 0.0
C1109 C 0.94852 0.21689 0.85008 0.0
H1110 H 0.98728 0.24251 0.80595 0.0
C1111 C 0.9577 0.23367 0.87004 0.0
H1112 H 0.95229 0.2076 0.81129 0.0
C1113 C 0.97753 0.25355 0.86704 0.0
C1114 C 0.98836 0.25717 0.84392 0.0
H1115 H 0.94914 0.23164 0.88782 0.0
H1116 H 0.98396 0.26639 0.88275 0.0
C1117 C 0.97941 0.2401 0.82401 0.0
C1118 C 0.79721 0.93168 0.84645 0.0
C1119 C 0.80179 0.931 0.87269 0.0
H1120 H 0.78206 0.95089 0.81488 0.0
C1121 C 0.79461 0.95049 0.88709 0.0
H1122 H 0.80227 0.91698 0.8347 0.0
C1123 C 0.78284 0.96972 0.87578 0.0
C1124 C 0.77796 0.9703 0.84963 0.0
H1125 H 0.79828 0.95107 0.90727 0.0
H1126 H 0.77767 0.98427 0.88767 0.0
C1127 C 0.78544 0.95106 0.83507 0.0
C1128 C 0.21174 0.10448 0.23687 0.0
C1129 C 0.19483 0.11856 0.24818 0.0
H1130 H 0.23434 0.07418 0.24014 0.0
C1131 C 0.18856 0.11289 0.27264 0.0
H1132 H 0.21686 0.10832 0.21798 0.0
C1133 C 0.19848 0.09328 0.28532 0.0
C1134 C 0.21493 0.07876 0.27386 0.0
H1135 H 0.17548 0.12333 0.28175 0.0
H1136 H 0.19289 0.08929 0.30404 0.0
C1137 C 0.22168 0.08483 0.24955 0.0
C1138 C 0.18298 0.97276 0.82481 0.0
C1139 C 0.20171 0.95688 0.83093 0.0
H1140 H 0.17498 1.00694 0.80809 0.0
C1141 C 0.2274 0.96383 0.82419 0.0
H1142 H 0.16309 0.96817 0.83004 0.0
C1143 C 0.23418 0.9861 0.81169 0.0
C1144 C 0.21545 1.00196 0.80559 0.0
H1145 H 0.24219 0.95186 0.82817 0.0
H1146 H 0.25406 0.99073 0.8065 0.0
C1147 C 0.18974 0.99498 0.8122 0.0
C1148 C 0.14292 0.26767 0.91109 0.0
C1149 C 0.16147 0.26136 0.89513 0.0
H1150 H 0.1093 0.28568 0.9155 0.0
C1151 C 0.15857 0.2683 0.86988 0.0
H1152 H 0.14357 0.26202 0.93039 0.0
C1153 C 0.13822 0.28157 0.86117 0.0
C1154 C 0.12041 0.28855 0.87751 0.0
H1155 H 0.17235 0.26403 0.85691 0.0
H1156 H 0.13682 0.28694 0.84179 0.0
C1157 C 0.12299 0.28121 0.90252 0.0
C1158 C 0.80568 0.14541 0.85473 0.0
C1159 C 0.82926 0.14921 0.87005 0.0
H1160 H 0.77823 0.11921 0.83192 0.0
C1161 C 0.84154 0.12855 0.87696 0.0
H1162 H 0.79624 0.16121 0.84877 0.0
C1163 C 0.83152 0.1047 0.86717 0.0
C1164 C 0.80905 0.10106 0.85024 0.0
H1165 H 0.85996 0.13119 0.8885 0.0
H1166 H 0.84207 0.08929 0.87192 0.0
C1167 C 0.79553 0.12143 0.84498 0.0
C1168 C 0.90596 0.83354 0.87486 0.0
C1169 C 0.88987 0.84429 0.85699 0.0
H1170 H 0.94083 0.81697 0.88263 0.0
C1171 C 0.89785 0.84719 0.83262 0.0
H1172 H 0.90031 0.83107 0.89377 0.0
C1173 C 0.92091 0.83889 0.82607 0.0
C1174 C 0.9368 0.82749 0.84373 0.0
H1175 H 0.88584 0.85531 0.81839 0.0
H1176 H 0.92582 0.84084 0.80691 0.0
C1177 C 0.92909 0.82524 0.86833 0.0
C1178 C 0.8322 0.95029 0.2518 0.0
C1179 C 0.83823 0.93229 0.26917 0.0
H1180 H 0.81846 0.98547 0.24565 0.0
C1181 C 0.83611 0.93727 0.29469 0.0
H1182 H 0.83317 0.94681 0.23199 0.0
C1183 C 0.82755 0.95933 0.30259 0.0
C1184 C 0.82069 0.97702 0.28517 0.0
H1185 H 0.84021 0.92363 0.30853 0.0
H1186 H 0.82536 0.96204 0.3223 0.0
C1187 C 0.82373 0.97244 0.25969 0.0
C1188 C 0.11277 0.79437 0.21082 0.0
C1189 C 0.10997 0.81746 0.1999 0.0
H1190 H 0.09771 0.76683 0.23662 0.0
C1191 C 0.0867 0.82745 0.20184 0.0
H1192 H 0.13067 0.78643 0.20959 0.0
C1193 C 0.06791 0.8162 0.21694 0.0
C1194 C 0.07212 0.79483 0.23037 0.0
H1195 H 0.08412 0.84516 0.19344 0.0
H1196 H 0.05136 0.82567 0.22016 0.0
C1197 C 0.09384 0.78306 0.22607 0.0
C1198 C 0.9248 0.20469 0.23135 0.0
C1199 C 0.90788 0.22035 0.22039 0.0
H1200 H 0.95819 0.20164 0.25661 0.0
C1201 C 0.91372 0.24633 0.22548 0.0
H1202 H 0.92143 0.18472 0.22734 0.0
C1203 C 0.93529 0.25618 0.24208 0.0
C1204 C 0.95126 0.24018 0.25399 0.0
H1205 H 0.90109 0.25895 0.21742 0.0
H1206 H 0.93876 0.27609 0.24641 0.0
C1207 C 0.94606 0.21444 0.24801 0.0
C1208 C 0.22361 0.76184 0.66727 0.0
C1209 C 0.1961 0.75692 0.66457 0.0
H1210 H 0.25906 0.77323 0.65007 0.0
C1211 C 0.1831 0.76296 0.64179 0.0
H1212 H 0.23429 0.75789 0.68463 0.0
C1213 C 0.19753 0.77207 0.62166 0.0
C1214 C 0.22514 0.77513 0.62403 0.0
H1215 H 0.16191 0.75935 0.63911 0.0
H1216 H 0.18715 0.77536 0.60394 0.0
C1217 C 0.23784 0.77065 0.64736 0.0
C1218 C 0.81909 0.74284 0.6139 0.0
C1219 C 0.81975 0.75841 0.63517 0.0
H1220 H 0.81114 0.73852 0.57422 0.0
C1221 C 0.81401 0.78289 0.63203 0.0
H1222 H 0.82302 0.72378 0.61577 0.0
C1223 C 0.80704 0.79139 0.6082 0.0
C1224 C 0.80544 0.77551 0.58698 0.0
H1225 H 0.81402 0.79519 0.64813 0.0
H1226 H 0.80172 0.81 0.6066 0.0
C1227 C 0.81227 0.75136 0.59008 0.0
C1228 C 0.84899 0.3278 0.68629 0.0
C1229 C 0.84888 0.35385 0.68464 0.0
H1230 H 0.83891 0.29152 0.66834 0.0
C1231 C 0.83784 0.36279 0.66219 0.0
H1232 H 0.85664 0.31988 0.70327 0.0
C1233 C 0.8271 0.34629 0.64232 0.0
C1234 C 0.82747 0.32039 0.64403 0.0
H1235 H 0.83776 0.38262 0.65972 0.0
H1236 H 0.81886 0.35386 0.62539 0.0
C1237 C 0.83868 0.31139 0.66624 0.0
C1238 C 0.19508 0.33183 0.62194 0.0
C1239 C 0.17067 0.3403 0.62107 0.0
H1240 H 0.2193 0.30883 0.605 0.0
C1241 C 0.15147 0.33144 0.60172 0.0
H1242 H 0.21037 0.33861 0.63645 0.0
C1243 C 0.1567 0.31463 0.58339 0.0
C1244 C 0.18135 0.30653 0.58395 0.0
H1245 H 0.13263 0.338 0.60043 0.0
H1246 H 0.14183 0.30888 0.56825 0.0
C1247 C 0.20024 0.31491 0.60378 0.0
C1248 C 0.25117 0.35583 0.41574 0.0
C1249 C 0.22441 0.35783 0.41139 0.0
H1250 H 0.28118 0.3431 0.44004 0.0
C1251 C 0.20734 0.34923 0.42948 0.0
H1252 H 0.26469 0.36201 0.40191 0.0
C1253 C 0.21674 0.33853 0.45135 0.0
C1254 C 0.24339 0.3358 0.45542 0.0
H1255 H 0.18656 0.35019 0.42639 0.0
H1256 H 0.20288 0.33155 0.46461 0.0
C1257 C 0.26059 0.34501 0.43757 0.0
C1258 C 0.25835 0.71408 0.44536 0.0
C1259 C 0.23258 0.71532 0.43518 0.0
H1260 H 0.28708 0.72252 0.47676 0.0
C1261 C 0.21571 0.72561 0.45052 0.0
H1262 H 0.27211 0.70657 0.43429 0.0
C1263 C 0.22454 0.73526 0.47459 0.0
C1264 C 0.25033 0.73442 0.4845 0.0
H1265 H 0.19548 0.72625 0.444 0.0
H1266 H 0.21102 0.7432 0.48561 0.0
C1267 C 0.26703 0.72334 0.46974 0.0
C1268 C 0.8165 0.67094 0.43683 0.0
C1269 C 0.83253 0.68839 0.42332 0.0
H1270 H 0.78721 0.66498 0.46307 0.0
C1271 C 0.832 0.71406 0.42761 0.0
H1272 H 0.8168 0.65104 0.43457 0.0
C1273 C 0.81529 0.72198 0.44433 0.0
C1274 C 0.79853 0.70445 0.45696 0.0
H1275 H 0.84376 0.72805 0.41738 0.0
H1276 H 0.81477 0.74183 0.44668 0.0
C1277 C 0.79954 0.67887 0.45324 0.0
C1278 C 0.78974 0.35536 0.48543 0.0
C1279 C 0.79851 0.34181 0.46585 0.0
H1280 H 0.77596 0.35426 0.52238 0.0
C1281 C 0.79748 0.31582 0.46807 0.0
H1282 H 0.79028 0.37543 0.48441 0.0
C1283 C 0.7895 0.30394 0.48969 0.0
C1284 C 0.782 0.31755 0.50972 0.0
H1285 H 0.80323 0.30458 0.4532 0.0
H1286 H 0.78978 0.28397 0.49097 0.0
C1287 C 0.78145 0.3433 0.50716 0.0
C1288 C 0.12384 0.74108 0.75376 0.0
C1289 C 0.12672 0.74642 0.7283 0.0
H1290 H 0.10081 0.74258 0.78514 0.0
C1291 C 0.10813 0.75959 0.71573 0.0
H1292 H 0.13807 0.73205 0.76473 0.0
C1293 C 0.08719 0.76655 0.72808 0.0
C1294 C 0.08395 0.76003 0.75306 0.0
H1295 H 0.10932 0.76404 0.69621 0.0
H1296 H 0.07304 0.77638 0.71791 0.0
C1297 C 0.10257 0.74735 0.76574 0.0
C1298 C 0.86614 0.69118 0.76587 0.0
C1299 C 0.8615 0.68769 0.73971 0.0
H1300 H 0.86439 0.67464 0.80193 0.0
C1301 C 0.85152 0.66348 0.73015 0.0
H1302 H 0.87341 0.70957 0.77404 0.0
C1303 C 0.84625 0.64343 0.74623 0.0
C1304 C 0.85087 0.64695 0.77236 0.0
H1305 H 0.84815 0.65985 0.71017 0.0
H1306 H 0.83878 0.62507 0.73815 0.0
C1307 C 0.861 0.67109 0.78194 0.0
C1308 C 0.91869 0.38205 0.78456 0.0
C1309 C 0.91622 0.37699 0.75856 0.0
H1310 H 0.94102 0.37984 0.81973 0.0
C1311 C 0.93621 0.36596 0.74835 0.0
H1312 H 0.90368 0.39022 0.79329 0.0
C1313 C 0.95763 0.35987 0.76359 0.0
C1314 C 0.95996 0.36469 0.7896 0.0
H1315 H 0.93551 0.36223 0.72841 0.0
H1316 H 0.97257 0.35163 0.75485 0.0
C1317 C 0.9402 0.37603 0.79981 0.0
C1318 C 0.193 0.44722 0.7324 0.0
C1319 C 0.20302 0.42664 0.72263 0.0
H1320 H 0.20136 0.48295 0.75133 0.0
C1321 C 0.23034 0.42736 0.72356 0.0
H1322 H 0.17205 0.44747 0.73159 0.0
C1323 C 0.24719 0.44784 0.73477 0.0
C1324 C 0.23708 0.468 0.7453 0.0
H1325 H 0.23869 0.41173 0.71641 0.0
H1326 H 0.26813 0.44758 0.73565 0.0
C1327 C 0.2098 0.46761 0.74367 0.0
C1328 C 0.10055 0.36233 0.31656 0.0
C1329 C 0.1111 0.36994 0.34096 0.0
H1330 H 0.06905 0.34049 0.29378 0.0
C1331 C 0.096 0.3632 0.36109 0.0
H1332 H 0.11172 0.36715 0.30064 0.0
C1333 C 0.07172 0.348 0.35717 0.0
C1334 C 0.0618 0.33917 0.333 0.0
H1335 H 0.10322 0.36924 0.38005 0.0
H1336 H 0.06109 0.34247 0.37328 0.0
C1337 C 0.07609 0.34709 0.31261 0.0
C1338 C 0.28087 0.62535 0.3381 0.0
C1339 C 0.25702 0.63531 0.33607 0.0
H1340 H 0.3034 0.59816 0.32454 0.0
C1341 C 0.23703 0.62408 0.31852 0.0
H1342 H 0.29693 0.63384 0.3511 0.0
C1343 C 0.24079 0.60378 0.30327 0.0
C1344 C 0.26478 0.59407 0.30482 0.0
H1345 H 0.21866 0.63148 0.31607 0.0
H1346 H 0.22487 0.59606 0.28975 0.0
C1347 C 0.28466 0.60492 0.3228 0.0
C1348 C 0.95759 0.69709 0.34431 0.0
C1349 C 0.95554 0.70204 0.36982 0.0
H1350 H 0.97841 0.70686 0.31193 0.0
C1351 C 0.97389 0.72045 0.38261 0.0
H1352 H 0.94346 0.68301 0.3341 0.0
C1353 C 0.99381 0.73389 0.37011 0.0
C1354 C 0.99571 0.72941 0.34445 0.0
H1355 H 0.97263 0.72469 0.40223 0.0
H1356 H 1.00742 0.74821 0.38055 0.0
C1357 C 0.97758 0.71063 0.3317 0.0
C1358 C 0.7847 0.42418 0.41493 0.0
C1359 C 0.79593 0.40768 0.39994 0.0
H1360 H 0.76419 0.45584 0.41635 0.0
C1361 C 0.79495 0.41146 0.37394 0.0
H1362 H 0.78553 0.42244 0.43505 0.0
C1363 C 0.78318 0.43108 0.36335 0.0
C1364 C 0.77167 0.44719 0.37836 0.0
H1365 H 0.80285 0.39901 0.3616 0.0
H1366 H 0.78259 0.43334 0.34329 0.0
C1367 C 0.77252 0.44348 0.40426 0.0
C1368 C 0.18373 0.63721 0.75238 0.0
C1369 C 0.19602 0.64632 0.73126 0.0
H1370 H 0.18407 0.6128 0.78343 0.0
C1371 C 0.21987 0.63853 0.72632 0.0
H1372 H 0.16547 0.64315 0.75673 0.0
C1373 C 0.2307 0.62121 0.74168 0.0
C1374 C 0.21801 0.61143 0.76245 0.0
H1375 H 0.22997 0.64561 0.71037 0.0
H1376 H 0.24905 0.61553 0.7373 0.0
C1377 C 0.19453 0.61993 0.76775 0.0
C1378 C 0.18024 0.4334 0.29241 0.0
C1379 C 0.1842 0.43637 0.31858 0.0
H1380 H 0.18998 0.44802 0.25689 0.0
C1381 C 0.19988 0.45813 0.32889 0.0
H1382 H 0.16846 0.41674 0.28388 0.0
C1383 C 0.21224 0.47597 0.31346 0.0
C1384 C 0.20919 0.47254 0.28732 0.0
H1385 H 0.20289 0.46122 0.34898 0.0
H1386 H 0.22439 0.49238 0.32204 0.0
C1387 C 0.1926 0.45132 0.27694 0.0
C1388 C 0.1504 0.71241 0.34711 0.0
C1389 C 0.17459 0.72535 0.3574 0.0
H1390 H 0.11135 0.71475 0.33158 0.0
C1391 C 0.17808 0.75168 0.35778 0.0
H1392 H 0.14693 0.69213 0.34674 0.0
C1393 C 0.15778 0.76473 0.34903 0.0
C1394 C 0.13306 0.75193 0.33974 0.0
H1395 H 0.19652 0.76229 0.36533 0.0
H1396 H 0.16158 0.78494 0.34988 0.0
C1397 C 0.1299 0.72549 0.33849 0.0
C1398 C 0.83644 0.62775 0.32861 0.0
C1399 C 0.84108 0.62746 0.35474 0.0
H1400 H 0.81897 0.60736 0.29543 0.0
C1401 C 0.83436 0.60516 0.36731 0.0
H1402 H 0.84162 0.64482 0.31859 0.0
C1403 C 0.82192 0.58373 0.35416 0.0
C1404 C 0.81554 0.58433 0.3282 0.0
H1405 H 0.83815 0.6045 0.38744 0.0
H1406 H 0.81613 0.56708 0.36461 0.0
C1407 C 0.82357 0.60635 0.31542 0.0
C1408 C 0.8963 0.30785 0.39352 0.0
C1409 C 0.8842 0.32365 0.37721 0.0
H1410 H 0.92671 0.28514 0.39978 0.0
C1411 C 0.89524 0.32978 0.35457 0.0
H1412 H 0.88826 0.30287 0.41112 0.0
C1413 C 0.91714 0.31946 0.34788 0.0
C1414 C 0.92865 0.3027 0.36366 0.0
H1415 H 0.88635 0.3419 0.34159 0.0
H1416 H 0.92435 0.32393 0.32986 0.0
C1417 C 0.91821 0.29751 0.38685 0.0
C1418 C 0.79952 0.46798 0.75053 0.0
C1419 C 0.82491 0.46131 0.75064 0.0
H1420 H 0.77598 0.49633 0.75881 0.0
C1421 C 0.84643 0.47967 0.75783 0.0
H1422 H 0.78247 0.45411 0.74555 0.0
C1423 C 0.84271 0.50379 0.76524 0.0
C1424 C 0.81734 0.51028 0.76608 0.0
H1425 H 0.86617 0.47513 0.75862 0.0
H1426 H 0.85987 0.51711 0.77138 0.0
C1427 C 0.79576 0.49222 0.75802 0.0
C1428 C 0.10843 0.38215 0.7416 0.0
C1429 C 0.12297 0.36472 0.73212 0.0
H1430 H 0.07904 0.38877 0.76552 0.0
C1431 C 0.11669 0.33932 0.73785 0.0
H1432 H 0.11239 0.40175 0.73702 0.0
C1433 C 0.09728 0.33179 0.75402 0.0
C1434 C 0.08402 0.34959 0.76477 0.0
H1435 H 0.12764 0.32548 0.73084 0.0
H1436 H 0.09363 0.31231 0.75909 0.0
C1437 C 0.08925 0.37469 0.75783 0.0
C1438 C 0.92323 0.77911 0.74043 0.0
C1439 C 0.92004 0.76565 0.7176 0.0
H1440 H 0.9483 0.80521 0.76507 0.0
C1441 C 0.93966 0.76987 0.70088 0.0
H1442 H 0.90818 0.77635 0.75346 0.0
C1443 C 0.96285 0.78621 0.70758 0.0
C1444 C 0.96656 0.79896 0.7309 0.0
H1445 H 0.93752 0.75972 0.68311 0.0
H1446 H 0.97825 0.78818 0.6949 0.0
C1447 C 0.94612 0.79582 0.74691 0.0
C1448 C 0.72044 0.23664 0.67579 0.0
C1449 C 0.69313 0.23493 0.67626 0.0
H1450 H 0.75389 0.24559 0.65502 0.0
C1451 C 0.67889 0.24407 0.65564 0.0
H1452 H 0.73226 0.23058 0.6915 0.0
C1453 C 0.69158 0.25321 0.63451 0.0
C1454 C 0.71867 0.25324 0.63367 0.0
H1455 H 0.65783 0.24312 0.65536 0.0
H1456 H 0.68005 0.25893 0.61844 0.0
C1457 C 0.73292 0.24548 0.65486 0.0
C1458 C 0.31767 0.27648 0.60191 0.0
C1459 C 0.32537 0.29621 0.61947 0.0
H1460 H 0.29863 0.26485 0.566 0.0
C1461 C 0.32001 0.32027 0.61334 0.0
H1462 H 0.32098 0.25761 0.60627 0.0
C1463 C 0.30687 0.32447 0.59026 0.0
C1464 C 0.29868 0.3046 0.5729 0.0
H1465 H 0.32532 0.33571 0.62675 0.0
H1466 H 0.30231 0.34305 0.58644 0.0
C1467 C 0.30479 0.28068 0.5788 0.0
C1468 C 0.33812 0.88535 0.66179 0.0
C1469 C 0.34922 0.87388 0.68278 0.0
H1470 H 0.31984 0.8806 0.6241 0.0
C1471 C 0.34879 0.84768 0.68138 0.0
H1472 H 0.33816 0.90538 0.66169 0.0
C1473 C 0.33912 0.8338 0.65948 0.0
C1474 C 0.32869 0.84539 0.63853 0.0
H1475 H 0.35607 0.83769 0.69717 0.0
H1476 H 0.33971 0.81384 0.65891 0.0
C1477 C 0.32771 0.87121 0.64007 0.0
C1478 C 0.65544 0.79348 0.60581 0.0
C1479 C 0.67217 0.81407 0.61722 0.0
H1480 H 0.6513 0.76236 0.57984 0.0
C1481 C 0.69862 0.81793 0.61233 0.0
H1482 H 0.63498 0.78995 0.60954 0.0
C1483 C 0.70796 0.80224 0.59539 0.0
C1484 C 0.69102 0.78221 0.58296 0.0
H1485 H 0.71187 0.83363 0.62104 0.0
H1486 H 0.72822 0.80659 0.59131 0.0
C1487 C 0.66476 0.77775 0.58879 0.0
C1488 C 0.71462 0.82886 0.44176 0.0
C1489 C 0.7272 0.83504 0.41995 0.0
H1490 H 0.71729 0.81344 0.4783 0.0
C1491 C 0.75346 0.8314 0.41915 0.0
H1492 H 0.69424 0.831 0.44272 0.0
C1493 C 0.76667 0.82117 0.43942 0.0
C1494 C 0.75387 0.81419 0.46095 0.0
H1495 H 0.76353 0.83561 0.40244 0.0
H1496 H 0.78659 0.81782 0.43779 0.0
C1497 C 0.72788 0.81878 0.46213 0.0
C1498 C 0.70573 0.18966 0.45751 0.0
C1499 C 0.70129 0.208 0.43984 0.0
H1500 H 0.71976 0.18164 0.49477 0.0
C1501 C 0.7074 0.23333 0.44763 0.0
H1502 H 0.70085 0.16995 0.45247 0.0
C1503 C 0.71836 0.24007 0.47208 0.0
C1504 C 0.72347 0.22168 0.48951 0.0
H1505 H 0.70459 0.24801 0.43456 0.0
H1506 H 0.72352 0.25975 0.47704 0.0
C1507 C 0.71667 0.19638 0.48188 0.0
C1508 C 0.31075 0.22943 0.42503 0.0
C1509 C 0.31435 0.20417 0.42502 0.0
H1510 H 0.28989 0.25731 0.43888 0.0
C1511 C 0.29898 0.18741 0.43972 0.0
H1512 H 0.32187 0.24273 0.41355 0.0
C1513 C 0.2805 0.19575 0.45413 0.0
C1514 C 0.27708 0.22106 0.45428 0.0
H1515 H 0.3015 0.16787 0.44037 0.0
H1516 H 0.26932 0.1825 0.46559 0.0
C1517 C 0.29235 0.23777 0.43949 0.0
C1518 C 0.28683 0.87506 0.46942 0.0
C1519 C 0.29034 0.85936 0.44913 0.0
H1520 H 0.28037 0.8774 0.50858 0.0
C1521 C 0.28596 0.83331 0.45224 0.0
H1522 H 0.29013 0.89521 0.4677 0.0
C1523 C 0.28038 0.82327 0.47541 0.0
C1524 C 0.27866 0.83892 0.49611 0.0
H1525 H 0.28798 0.82061 0.43696 0.0
H1526 H 0.27872 0.80317 0.4775 0.0
C1527 C 0.28111 0.86491 0.49279 0.0
C1528 C 0.60695 0.21574 0.75242 0.0
C1529 C 0.62732 0.23162 0.74221 0.0
H1530 H 0.57281 0.21266 0.77283 0.0
C1531 C 0.62782 0.25768 0.74484 0.0
H1532 H 0.60545 0.1956 0.75038 0.0
C1533 C 0.60883 0.26751 0.75767 0.0
C1534 C 0.58888 0.25156 0.76836 0.0
H1535 H 0.64331 0.27057 0.73758 0.0
H1536 H 0.6102 0.28762 0.75976 0.0
C1537 C 0.58813 0.22555 0.76535 0.0
C1538 C 0.32152 0.18337 0.68524 0.0
C1539 C 0.33251 0.20254 0.70261 0.0
H1540 H 0.29974 0.14648 0.67951 0.0
C1541 C 0.32823 0.19924 0.728 0.0
H1542 H 0.32456 0.18522 0.66558 0.0
C1543 C 0.31413 0.1771 0.73597 0.0
C1544 C 0.3038 0.15761 0.71878 0.0
H1545 H 0.33584 0.21383 0.74184 0.0
H1546 H 0.31128 0.17533 0.75566 0.0
C1547 C 0.30731 0.16115 0.69324 0.0
C1548 C 0.44162 0.9009 0.76396 0.0
C1549 C 0.4184 0.88497 0.75578 0.0
H1550 H 0.48018 0.90438 0.78243 0.0
C1551 C 0.41644 0.85948 0.76164 0.0
H1552 H 0.44395 0.92059 0.7596 0.0
C1553 C 0.43719 0.8501 0.77498 0.0
C1554 C 0.46074 0.86587 0.78274 0.0
H1555 H 0.39869 0.84671 0.75603 0.0
H1556 H 0.43461 0.83041 0.77919 0.0
C1557 C 0.46249 0.8915 0.77715 0.0
C1558 C 0.65256 0.92033 0.71679 0.0
C1559 C 0.66915 0.90217 0.71481 0.0
H1560 H 0.64786 0.95618 0.73139 0.0
C1561 C 0.69526 0.90758 0.72513 0.0
H1562 H 0.63246 0.91682 0.70869 0.0
C1563 C 0.70408 0.93014 0.73851 0.0
C1564 C 0.68696 0.94772 0.7417 0.0
H1565 H 0.70841 0.89383 0.72398 0.0
H1566 H 0.72389 0.93324 0.74731 0.0
C1567 C 0.66137 0.94283 0.72996 0.0
C1568 C 0.59434 0.84114 0.36927 0.0
C1569 C 0.6106 0.85054 0.3508 0.0
H1570 H 0.5571 0.82148 0.37732 0.0
C1571 C 0.60061 0.84784 0.3255 0.0
H1572 H 0.60116 0.84329 0.38892 0.0
C1573 C 0.57511 0.83583 0.31886 0.0
C1574 C 0.55917 0.82595 0.33735 0.0
H1575 H 0.61271 0.85448 0.3107 0.0
H1576 H 0.56827 0.83346 0.29923 0.0
C1577 C 0.56896 0.82891 0.36262 0.0
C1578 C 0.7575 0.12326 0.34907 0.0
C1579 C 0.73356 0.13268 0.34451 0.0
H1580 H 0.78131 0.09565 0.33924 0.0
C1581 C 0.71478 0.12039 0.32648 0.0
H1582 H 0.77255 0.1326 0.36263 0.0
C1583 C 0.71976 0.0994 0.31319 0.0
C1584 C 0.74383 0.09013 0.31729 0.0
H1585 H 0.69638 0.12738 0.32225 0.0
H1586 H 0.70476 0.09073 0.29922 0.0
C1587 C 0.76255 0.10212 0.33569 0.0
C1588 C 0.45798 0.22576 0.37844 0.0
C1589 C 0.44418 0.2327 0.39818 0.0
H1590 H 0.48849 0.23628 0.35462 0.0
C1591 C 0.45148 0.25659 0.4095 0.0
H1592 H 0.45244 0.20759 0.36918 0.0
C1593 C 0.47245 0.27313 0.40137 0.0
C1594 C 0.48644 0.26619 0.38163 0.0
H1595 H 0.44094 0.26247 0.42462 0.0
H1596 H 0.47769 0.29135 0.41053 0.0
C1597 C 0.47885 0.24223 0.37029 0.0
C1598 C 0.2842 0.94047 0.3905 0.0
C1599 C 0.29148 0.92025 0.37728 0.0
H1600 H 0.27027 0.9759 0.38868 0.0
C1601 C 0.28949 0.92079 0.35091 0.0
H1602 H 0.28574 0.94102 0.41075 0.0
C1603 C 0.2809 0.94104 0.3382 0.0
C1604 C 0.27385 0.96129 0.35146 0.0
H1605 H 0.29439 0.90543 0.33995 0.0
H1606 H 0.2797 0.94074 0.31794 0.0
C1607 C 0.27548 0.96064 0.37778 0.0
C1608 C 0.68258 0.1205 0.77078 0.0
C1609 C 0.69025 0.126 0.7467 0.0
H1610 H 0.68555 0.09739 0.80277 0.0
C1611 C 0.70864 0.11255 0.73697 0.0
H1612 H 0.66851 0.1306 0.77876 0.0
C1613 C 0.71838 0.09341 0.75064 0.0
C1614 C 0.71005 0.08728 0.77444 0.0
H1615 H 0.71499 0.11643 0.71849 0.0
H1616 H 0.73212 0.08313 0.74235 0.0
C1617 C 0.69231 0.10138 0.78446 0.0
C1618 C 0.66722 0.93595 0.32647 0.0
C1619 C 0.68353 0.91875 0.33552 0.0
H1620 H 0.66375 0.96831 0.30438 0.0
C1621 C 0.7095 0.92153 0.32892 0.0
H1622 H 0.64725 0.93466 0.33152 0.0
C1623 C 0.71893 0.94099 0.3137 0.0
C1624 C 0.70254 0.95793 0.30448 0.0
H1625 H 0.72244 0.90838 0.33509 0.0
H1626 H 0.73899 0.94262 0.3088 0.0
C1627 C 0.67658 0.9552 0.31091 0.0
C1628 C 0.62339 0.22506 0.36841 0.0
C1629 C 0.64629 0.21935 0.35846 0.0
H1630 H 0.58849 0.24233 0.36271 0.0
C1631 C 0.6505 0.22638 0.33375 0.0
H1632 H 0.61928 0.21975 0.38724 0.0
C1633 C 0.63291 0.23935 0.31974 0.0
C1634 C 0.61024 0.24544 0.32976 0.0
H1635 H 0.6679 0.22251 0.32542 0.0
H1636 H 0.6374 0.24507 0.3011 0.0
C1637 C 0.60551 0.23775 0.3542 0.0
C1638 C 0.31132 0.13477 0.35328 0.0
C1639 C 0.3366 0.13996 0.36568 0.0
H1640 H 0.28334 0.10865 0.33127 0.0
C1641 C 0.35344 0.12189 0.36474 0.0
H1642 H 0.29804 0.1485 0.35324 0.0
C1643 C 0.34492 0.09886 0.35221 0.0
C1644 C 0.31941 0.09346 0.34024 0.0
H1645 H 0.37294 0.12526 0.3743 0.0
H1646 H 0.35816 0.08511 0.35239 0.0
C1647 C 0.30284 0.11184 0.34074 0.0
C1648 C 0.38477 0.81459 0.3817 0.0
C1649 C 0.37179 0.8274 0.36308 0.0
H1650 H 0.41614 0.79377 0.39138 0.0
C1651 C 0.38173 0.82963 0.33947 0.0
H1652 H 0.37753 0.81267 0.40007 0.0
C1653 C 0.40368 0.81863 0.33434 0.0
C1654 C 0.41635 0.80514 0.35272 0.0
H1655 H 0.37211 0.83936 0.32474 0.0
H1656 H 0.41015 0.82013 0.31569 0.0
C1657 C 0.40676 0.80359 0.3766 0.0
C1658 C 0.32772 0.98921 0.73722 0.0
C1659 C 0.33811 0.97885 0.75897 0.0
H1660 H 0.30959 0.01905 0.72115 0.0
C1661 C 0.33921 0.99236 0.78182 0.0
H1662 H 0.32622 0.97915 0.71944 0.0
C1663 C 0.32957 0.01538 0.78294 0.0
C1664 C 0.31833 0.02529 0.76124 0.0
H1665 H 0.34674 0.98469 0.79902 0.0
H1666 H 0.32982 0.02479 0.80092 0.0
C1667 C 0.3181 0.0121 0.73831 0.0
C1668 C 0.57715 0.83837 0.71124 0.0
C1669 C 0.60027 0.82768 0.71438 0.0
H1670 H 0.53851 0.83873 0.72244 0.0
C1671 C 0.60114 0.80692 0.72968 0.0
H1672 H 0.57618 0.85444 0.6995 0.0
C1673 C 0.57977 0.79813 0.74317 0.0
C1674 C 0.55711 0.80977 0.74121 0.0
H1675 H 0.61889 0.79853 0.7324 0.0
H1676 H 0.58144 0.78301 0.75601 0.0
C1677 C 0.55562 0.8293 0.72432 0.0
C1678 C 0.43429 0.28027 0.71143 0.0
C1679 C 0.41091 0.26855 0.72066 0.0
H1680 H 0.47441 0.29705 0.72032 0.0
C1681 C 0.40994 0.26653 0.74668 0.0
H1682 H 0.43579 0.2821 0.6915 0.0
C1683 C 0.43203 0.27458 0.76292 0.0
C1684 C 0.45558 0.2854 0.7537 0.0
H1685 H 0.3921 0.25846 0.75461 0.0
H1686 H 0.4307 0.27214 0.78282 0.0
C1687 C 0.45642 0.2888 0.72786 0.0
C1688 C 0.67479 0.76433 0.17822 0.0
C1689 C 0.67581 0.73843 0.17951 0.0
H1690 H 0.68428 0.79829 0.15835 0.0
C1691 C 0.68756 0.72716 0.16032 0.0
H1692 H 0.66646 0.77399 0.19269 0.0
C1693 C 0.69835 0.74133 0.1409 0.0
C1694 C 0.69729 0.76713 0.13972 0.0
H1695 H 0.68828 0.70724 0.16006 0.0
H1696 H 0.70712 0.73197 0.12651 0.0
C1697 C 0.68519 0.7784 0.15853 0.0
C1698 C 0.32033 0.78198 0.0938 0.0
C1699 C 0.32101 0.75657 0.09876 0.0
H1700 H 0.30934 0.80886 0.06749 0.0
C1701 C 0.31289 0.73868 0.07943 0.0
H1702 H 0.3263 0.79616 0.10842 0.0
C1703 C 0.30322 0.74593 0.05593 0.0
C1704 C 0.30121 0.77124 0.05132 0.0
H1705 H 0.313 0.71898 0.08286 0.0
H1706 H 0.29615 0.73152 0.04177 0.0
C1707 C 0.31062 0.78925 0.07032 0.0
C1708 C 0.3393 0.38145 0.1596 0.0
C1709 C 0.34755 0.3663 0.17892 0.0
H1710 H 0.31728 0.38328 0.12433 0.0
C1711 C 0.34152 0.34003 0.17539 0.0
H1712 H 0.34411 0.40164 0.16109 0.0
C1713 C 0.32655 0.32939 0.15373 0.0
C1714 C 0.31707 0.3448 0.1353 0.0
H1715 H 0.34734 0.32766 0.18982 0.0
H1716 H 0.32116 0.30925 0.15212 0.0
C1717 C 0.32413 0.37088 0.13829 0.0
C1718 C 0.75484 0.37841 0.12942 0.0
C1719 C 0.72745 0.37342 0.12441 0.0
H1720 H 0.79244 0.37778 0.11552 0.0
C1721 C 0.71705 0.36551 0.10016 0.0
H1722 H 0.76338 0.38513 0.14782 0.0
C1723 C 0.7336 0.3617 0.08159 0.0
C1724 C 0.76104 0.36577 0.08671 0.0
H1725 H 0.69604 0.36221 0.09555 0.0
H1726 H 0.72482 0.35554 0.06314 0.0
C1727 C 0.77148 0.3745 0.11082 0.0
C1728 C 0.69474 0.32726 0.94226 0.0
C1729 C 0.70048 0.34661 0.92537 0.0
H1730 H 0.70936 0.30654 0.97288 0.0
C1731 C 0.72589 0.35991 0.9263 0.0
H1732 H 0.67522 0.31668 0.94177 0.0
C1733 C 0.74522 0.35426 0.94401 0.0
C1734 C 0.73963 0.33502 0.96107 0.0
H1735 H 0.73077 0.37473 0.91331 0.0
H1736 H 0.76463 0.36503 0.94424 0.0
C1737 C 0.71423 0.32142 0.95995 0.0
C1738 C 0.69283 0.73454 0.97834 0.0
C1739 C 0.7106 0.73326 0.96008 0.0
H1740 H 0.68684 0.74591 0.01546 0.0
C1741 C 0.73759 0.74006 0.96722 0.0
H1742 H 0.67198 0.72907 0.97368 0.0
C1743 C 0.74628 0.74973 0.99158 0.0
C1744 C 0.72809 0.75264 1.00916 0.0
H1745 H 0.7518 0.73931 0.95358 0.0
H1746 H 0.76693 0.75642 0.99606 0.0
C1747 C 0.70141 0.74409 1.0024 0.0
C1748 C 0.28638 0.71421 0.879 0.0
C1749 C 0.28992 0.68905 0.87615 0.0
H1750 H 0.27008 0.74125 0.89978 0.0
C1751 C 0.27819 0.67138 0.89241 0.0
H1752 H 0.29471 0.72821 0.86647 0.0
C1753 C 0.2641 0.6789 0.91168 0.0
C1754 C 0.26138 0.70426 0.91508 0.0
H1755 H 0.28071 0.65188 0.89081 0.0
H1756 H 0.25617 0.66496 0.92442 0.0
C1757 C 0.27228 0.7217 0.89816 0.0
C1758 C 0.30636 0.39445 0.97462 0.0
C1759 C 0.31473 0.37687 0.95861 0.0
H1760 H 0.28784 0.40097 1.00788 0.0
C1761 C 0.31035 0.35145 0.96483 0.0
H1762 H 0.30983 0.41425 0.97082 0.0
C1763 C 0.29776 0.34384 0.98628 0.0
C1764 C 0.28918 0.36144 1.00211 0.0
H1765 H 0.31616 0.33732 0.95286 0.0
H1766 H 0.29435 0.32408 0.99019 0.0
C1767 C 0.29371 0.38684 0.99597 0.0
C1768 C 0.58971 0.7297 0.23425 0.0
C1769 C 0.61163 0.72145 0.24702 0.0
H1770 H 0.55157 0.74036 0.23671 0.0
C1771 C 0.61156 0.71847 0.2731 0.0
H1772 H 0.58881 0.732 0.21419 0.0
C1773 C 0.59007 0.72283 0.28586 0.0
C1774 C 0.56805 0.7307 0.27308 0.0
H1775 H 0.62827 0.71285 0.28383 0.0
H1776 H 0.59092 0.72041 0.30589 0.0
C1777 C 0.56825 0.73437 0.24714 0.0
C1778 C 0.35104 0.64669 0.19861 0.0
C1779 C 0.33681 0.66128 0.18251 0.0
H1780 H 0.35084 0.61278 0.21905 0.0
C1781 C 0.31104 0.65106 0.17348 0.0
H1782 H 0.37121 0.65322 0.20532 0.0
C1783 C 0.29979 0.62729 0.18077 0.0
C1784 C 0.31378 0.61349 0.19769 0.0
H1785 H 0.29925 0.66162 0.16131 0.0
H1786 H 0.27988 0.61994 0.1738 0.0
C1787 C 0.33951 0.62336 0.20642 0.0
C1788 C 0.47878 0.34744 0.24979 0.0
C1789 C 0.45331 0.34855 0.25689 0.0
H1790 H 0.51386 0.3305 0.25492 0.0
C1791 C 0.44343 0.33148 0.27461 0.0
H1792 H 0.48711 0.36049 0.23638 0.0
C1793 C 0.45869 0.31409 0.28508 0.0
C1794 C 0.48447 0.3134 0.27847 0.0
H1795 H 0.4241 0.33182 0.28083 0.0
H1796 H 0.4505 0.3017 0.29909 0.0
C1797 C 0.49412 0.33016 0.26037 0.0
C1798 C 0.73569 0.45726 0.22742 0.0
C1799 C 0.74517 0.43439 0.23019 0.0
H1800 H 0.73833 0.495 0.24091 0.0
C1801 C 0.76778 0.43305 0.24608 0.0
H1802 H 0.71811 0.45849 0.21534 0.0
C1803 C 0.77945 0.45395 0.26074 0.0
C1804 C 0.7683 0.47618 0.25984 0.0
H1805 H 0.7751 0.41539 0.24859 0.0
H1806 H 0.79564 0.45196 0.27432 0.0
C1807 C 0.7472 0.47805 0.2421 0.0
C1808 C 0.59973 0.40854 0.84707 0.0
C1809 C 0.62322 0.40252 0.83908 0.0
H1810 H 0.55785 0.40178 0.84243 0.0
C1811 C 0.62246 0.38725 0.81762 0.0
H1812 H 0.59994 0.42004 0.8638 0.0
C1813 C 0.59838 0.37643 0.80552 0.0
C1814 C 0.57469 0.38076 0.81473 0.0
H1815 H 0.6404 0.38213 0.81139 0.0
H1816 H 0.59836 0.36335 0.79004 0.0
C1817 C 0.57566 0.39797 0.83484 0.0
C1818 C 0.72734 0.65404 0.82836 0.0
C1819 C 0.72785 0.66069 0.85396 0.0
H1820 H 0.7384 0.62897 0.80086 0.0
C1821 C 0.7386 0.64537 0.87165 0.0
H1822 H 0.71949 0.66569 0.81423 0.0
C1823 C 0.74931 0.62446 0.86401 0.0
C1824 C 0.74985 0.61829 0.83843 0.0
H1825 H 0.73961 0.65012 0.89142 0.0
H1826 H 0.75815 0.61362 0.87831 0.0
C1827 C 0.73807 0.63295 0.82066 0.0
C1828 C 0.43116 0.71519 0.82184 0.0
C1829 C 0.41628 0.71748 0.84229 0.0
H1830 H 0.46396 0.73095 0.80227 0.0
C1831 C 0.42276 0.73845 0.85846 0.0
H1832 H 0.42621 0.69931 0.80892 0.0
C1833 C 0.44425 0.7565 0.85473 0.0
C1834 C 0.45956 0.75406 0.83458 0.0
H1835 H 0.41128 0.74076 0.87412 0.0
H1836 H 0.44885 0.77237 0.8677 0.0
C1837 C 0.45269 0.73328 0.81807 0.0
C1838 C 0.31387 0.45505 0.8999 0.0
C1839 C 0.32188 0.4354 0.88643 0.0
H1840 H 0.2986 0.48952 0.89889 0.0
C1841 C 0.32105 0.43678 0.86019 0.0
H1842 H 0.31466 0.45502 0.92013 0.0
C1843 C 0.31223 0.45714 0.84782 0.0
C1844 C 0.30395 0.47668 0.86135 0.0
H1845 H 0.32687 0.42196 0.84912 0.0
H1846 H 0.31208 0.45751 0.82766 0.0
C1847 C 0.30493 0.47521 0.8876 0.0
C1848 C 0.70455 0.61572 0.24362 0.0
C1849 C 0.68254 0.62707 0.24794 0.0
H1850 H 0.73028 0.59016 0.25649 0.0
C1851 C 0.66966 0.62117 0.26962 0.0
H1852 H 0.71502 0.62017 0.22719 0.0
C1853 C 0.67826 0.60382 0.2864 0.0
C1854 C 0.70003 0.59203 0.28192 0.0
H1855 H 0.65273 0.6298 0.27342 0.0
H1856 H 0.66761 0.5994 0.3027 0.0
C1857 C 0.71314 0.59835 0.26035 0.0
C1858 C 0.728 0.4633 0.88437 0.0
C1859 C 0.71359 0.44962 0.86393 0.0
H1860 H 0.75792 0.49394 0.89658 0.0
C1861 C 0.72003 0.45597 0.83964 0.0
H1862 H 0.72347 0.45906 0.90335 0.0
C1863 C 0.73969 0.47591 0.83584 0.0
C1864 C 0.7535 0.49012 0.85619 0.0
H1865 H 0.70988 0.44551 0.82349 0.0
H1866 H 0.74402 0.48026 0.81685 0.0
C1867 C 0.74778 0.48329 0.88054 0.0
C1868 C 0.64724 0.77302 0.89338 0.0
C1869 C 0.64669 0.74737 0.88774 0.0
H1870 H 0.62797 0.80538 0.88926 0.0
C1871 C 0.62514 0.735 0.87235 0.0
H1872 H 0.66368 0.78348 0.9046 0.0
C1873 C 0.60469 0.7478 0.86325 0.0
C1874 C 0.60506 0.77326 0.86944 0.0
H1875 H 0.6237 0.71525 0.86778 0.0
H1876 H 0.58824 0.73756 0.85187 0.0
C1877 C 0.62671 0.78569 0.88451 0.0
C1878 C 0.30788 0.63113 0.78227 0.0
C1879 C 0.30927 0.6302 0.8085 0.0
H1880 H 0.30691 0.61055 0.74767 0.0
C1881 C 0.30893 0.60699 0.82 0.0
H1882 H 0.30843 0.6489 0.77305 0.0
C1883 C 0.30866 0.58522 0.80551 0.0
C1884 C 0.30791 0.58621 0.77938 0.0
H1885 H 0.31076 0.60594 0.84021 0.0
H1886 H 0.31089 0.56794 0.8147 0.0
C1887 C 0.30719 0.60929 0.76783 0.0
C1888 C 0.40707 0.34138 0.84885 0.0
C1889 C 0.40481 0.34698 0.87418 0.0
H1890 H 0.43088 0.32993 0.8214 0.0
C1891 C 0.42639 0.34555 0.8915 0.0
H1892 H 0.39062 0.34179 0.83509 0.0
C1893 C 0.44971 0.3388 0.88365 0.0
C1894 C 0.45198 0.33304 0.85826 0.0
H1895 H 0.42508 0.34933 0.9112 0.0
H1896 H 0.4659 0.33808 0.89755 0.0
C1897 C 0.43028 0.33458 0.84099 0.0
C1898 C 0.35264 0.45451 0.22981 0.0
C1899 C 0.35747 0.43474 0.24569 0.0
H1900 H 0.3374 0.48931 0.22538 0.0
C1901 C 0.3515 0.43656 0.27073 0.0
H1902 H 0.3571 0.45395 0.21045 0.0
C1903 C 0.3399 0.45681 0.27925 0.0
C1904 C 0.33429 0.47617 0.26316 0.0
H1905 H 0.3547 0.42174 0.28351 0.0
H1906 H 0.33471 0.45694 0.29841 0.0
C1907 C 0.34145 0.47496 0.23844 0.0
C1908 C 0.65718 0.34672 0.24272 0.0
C1909 C 0.66625 0.37245 0.24084 0.0
H1910 H 0.63232 0.31839 0.26094 0.0
C1911 C 0.6551 0.38951 0.25527 0.0
H1912 H 0.66534 0.33299 0.23214 0.0
C1913 C 0.63675 0.38109 0.27219 0.0
C1914 C 0.62843 0.35543 0.27465 0.0
H1915 H 0.66082 0.40951 0.25384 0.0
H1916 H 0.62904 0.39465 0.28341 0.0
C1917 C 0.63835 0.33833 0.25933 0.0
C1918 C 0.42143 0.75223 0.20326 0.0
C1919 C 0.39632 0.7406 0.20845 0.0
H1920 H 0.45982 0.76909 0.21871 0.0
C1921 C 0.38955 0.74046 0.23326 0.0
H1922 H 0.42714 0.75262 0.18427 0.0
C1923 C 0.4081 0.74955 0.2527 0.0
C1924 C 0.43377 0.75936 0.24782 0.0
H1925 H 0.37017 0.73219 0.23778 0.0
H1926 H 0.40262 0.74791 0.27175 0.0
C1927 C 0.44009 0.76166 0.22289 0.0
loop_
_geom_bond_atom_site_label_1
_geom_bond_atom_site_label_2
_geom_bond_distance
_geom_bond_site_symmetry_2
_ccdc_geom_bond_type
H0 C7 0.929 . S
H1 C10 0.930 . S
H2 C12 0.929 . S
H3 C4 0.969 . S
C4 H3 0.969 . S
C4 O5 1.550 . S
C4 H6 0.973 . S
O5 C4 1.550 . S
O5 C11 1.412 . S
H6 C4 0.973 . S
C7 H0 0.929 . S
C7 C8 1.400 . S
C7 C9 1.364 . S
C8 C7 1.400 . S
C8 C12 1.377 . S
C9 C7 1.364 . S
C9 C10 1.374 . S
C10 H1 0.930 . S
C10 C9 1.374 . S
C10 C11 1.383 . S
C11 O5 1.412 . S
C11 C10 1.383 . S
C11 C12 1.394 . S
C12 H2 0.929 . S
C12 C8 1.377 . S
C12 C11 1.394 . S
H13 C20 0.929 . S
H14 C23 0.930 . S
H15 C25 0.929 . S
H16 C17 0.969 . S
C17 H16 0.969 . S
C17 O18 1.550 . S
C17 H19 0.973 . S
O18 C17 1.550 . S
O18 C24 1.412 . S
H19 C17 0.973 . S
C20 H13 0.929 . S
C20 C21 1.400 . S
C20 C22 1.364 . S
C21 C20 1.400 . S
C21 C25 1.377 . S
C22 C20 1.364 . S
C22 C23 1.374 . S
C23 H14 0.930 . S
C23 C22 1.374 . S
C23 C24 1.383 . S
C24 O18 1.412 . S
C24 C23 1.383 . S
C24 C25 1.394 . S
C25 H15 0.929 . S
C25 C21 1.377 . S
C25 C24 1.394 . S
H26 C33 0.929 . S
H27 C36 0.930 . S
H28 C38 0.929 . S
H29 C30 0.969 . S
C30 H29 0.969 . S
C30 O31 1.550 . S
C30 H32 0.973 . S
O31 C30 1.550 . S
O31 C37 1.412 . S
H32 C30 0.973 . S
C33 H26 0.929 . S
C33 C34 1.400 . S
C33 C35 1.364 . S
C34 C33 1.400 . S
C34 C38 1.377 . S
C35 C33 1.364 . S
C35 C36 1.374 . S
C36 H27 0.930 . S
C36 C35 1.374 . S
C36 C37 1.383 . S
C37 O31 1.412 . S
C37 C36 1.383 . S
C37 C38 1.394 . S
C38 H28 0.929 . S
C38 C34 1.377 . S
C38 C37 1.394 . S
H39 C46 0.929 . S
H40 C49 0.930 . S
H41 C51 0.929 . S
H42 C43 0.969 . S
C43 H42 0.969 . S
C43 O44 1.550 . S
C43 H45 0.973 . S
O44 C43 1.550 . S
O44 C50 1.412 . S
H45 C43 0.973 . S
C46 H39 0.929 . S
C46 C47 1.400 . S
C46 C48 1.364 . S
C47 C46 1.400 . S
C47 C51 1.377 . S
C48 C46 1.364 . S
C48 C49 1.374 . S
C49 H40 0.930 . S
C49 C48 1.374 . S
C49 C50 1.383 . S
C50 O44 1.412 . S
C50 C49 1.383 . S
C50 C51 1.394 . S
C51 H41 0.929 . S
C51 C47 1.377 . S
C51 C50 1.394 . S
H52 C59 0.929 . S
H53 C62 0.930 . S
H54 C64 0.929 . S
H55 C56 0.969 . S
C56 H55 0.969 . S
C56 O57 1.550 . S
C56 H58 0.973 . S
O57 C56 1.550 . S
O57 C63 1.412 . S
H58 C56 0.973 . S
C59 H52 0.929 . S
C59 C60 1.400 . S
C59 C61 1.364 . S
C60 C59 1.400 . S
C60 C64 1.377 . S
C61 C59 1.364 . S
C61 C62 1.374 . S
C62 H53 0.930 . S
C62 C61 1.374 . S
C62 C63 1.383 . S
C63 O57 1.412 . S
C63 C62 1.383 . S
C63 C64 1.394 . S
C64 H54 0.929 . S
C64 C60 1.377 . S
C64 C63 1.394 . S
H65 C72 0.929 . S
H66 C75 0.930 . S
H67 C77 0.929 . S
H68 C69 0.969 . S
C69 H68 0.969 . S
C69 O70 1.550 . S
C69 H71 0.973 . S
O70 C69 1.550 . S
O70 C76 1.412 . S
H71 C69 0.973 . S
C72 H65 0.929 . S
C72 C73 1.400 . S
C72 C74 1.364 . S
C73 C72 1.400 . S
C73 C77 1.377 . S
C74 C72 1.364 . S
C74 C75 1.374 . S
C75 H66 0.930 . S
C75 C74 1.374 . S
C75 C76 1.383 . S
C76 O70 1.412 . S
C76 C75 1.383 . S
C76 C77 1.394 . S
C77 H67 0.929 . S
C77 C73 1.377 . S
C77 C76 1.394 . S
H78 C85 0.929 . S
H79 C88 0.930 . S
H80 C90 0.929 . S
H81 C82 0.969 . S
C82 H81 0.969 . S
C82 O83 1.550 . S
C82 H84 0.973 . S
O83 C82 1.550 . S
O83 C89 1.412 . S
H84 C82 0.973 . S
C85 H78 0.929 . S
C85 C86 1.400 . S
C85 C87 1.364 . S
C86 C85 1.400 . S
C86 C90 1.377 . S
C87 C85 1.364 . S
C87 C88 1.374 . S
C88 H79 0.930 . S
C88 C87 1.374 . S
C88 C89 1.383 . S
C89 O83 1.412 . S
C89 C88 1.383 . S
C89 C90 1.394 . S
C90 H80 0.929 . S
C90 C86 1.377 . S
C90 C89 1.394 . S
H91 C98 0.929 . S
H92 C101 0.930 . S
H93 C103 0.929 . S
H94 C95 0.969 . S
C95 H94 0.969 . S
C95 O96 1.550 . S
C95 H97 0.973 . S
O96 C95 1.550 . S
O96 C102 1.412 . S
H97 C95 0.973 . S
C98 H91 0.929 . S
C98 C99 1.400 . S
C98 C100 1.364 . S
C99 C98 1.400 . S
C99 C103 1.377 . S
C100 C98 1.364 . S
C100 C101 1.374 . S
C101 H92 0.930 . S
C101 C100 1.374 . S
C101 C102 1.383 . S
C102 O96 1.412 . S
C102 C101 1.383 . S
C102 C103 1.394 . S
C103 H93 0.929 . S
C103 C99 1.377 . S
C103 C102 1.394 . S
H104 C111 0.929 . S
H105 C114 0.930 . S
H106 C116 0.929 . S
H107 C108 0.969 . S
C108 H107 0.969 . S
C108 O109 1.550 . S
C108 H110 0.973 . S
O109 C108 1.550 . S
O109 C115 1.412 . S
H110 C108 0.973 . S
C111 H104 0.929 . S
C111 C112 1.400 . S
C111 C113 1.364 . S
C112 C111 1.400 . S
C112 C116 1.377 . S
C113 C111 1.364 . S
C113 C114 1.374 . S
C114 H105 0.930 . S
C114 C113 1.374 . S
C114 C115 1.383 . S
C115 O109 1.412 . S
C115 C114 1.383 . S
C115 C116 1.394 . S
C116 H106 0.929 . S
C116 C112 1.377 . S
C116 C115 1.394 . S
H117 C124 0.929 . S
H118 C127 0.930 . S
H119 C129 0.929 . S
H120 C121 0.969 . S
C121 H120 0.969 . S
C121 O122 1.550 . S
C121 H123 0.973 . S
O122 C121 1.550 . S
O122 C128 1.412 . S
H123 C121 0.973 . S
C124 H117 0.929 . S
C124 C125 1.400 . S
C124 C126 1.364 . S
C125 C124 1.400 . S
C125 C129 1.377 . S
C126 C124 1.364 . S
C126 C127 1.374 . S
C127 H118 0.930 . S
C127 C126 1.374 . S
C127 C128 1.383 . S
C128 O122 1.412 . S
C128 C127 1.383 . S
C128 C129 1.394 . S
C129 H119 0.929 . S
C129 C125 1.377 . S
C129 C128 1.394 . S
H130 C137 0.929 . S
H131 C140 0.930 . S
H132 C142 0.929 . S
H133 C134 0.969 . S
C134 H133 0.969 . S
C134 O135 1.550 . S
C134 H136 0.973 . S
O135 C134 1.550 . S
O135 C141 1.412 . S
H136 C134 0.973 . S
C137 H130 0.929 . S
C137 C138 1.400 . S
C137 C139 1.364 . S
C138 C137 1.400 . S
C138 C142 1.377 . S
C139 C137 1.364 . S
C139 C140 1.374 . S
C140 H131 0.930 . S
C140 C139 1.374 . S
C140 C141 1.383 . S
C141 O135 1.412 . S
C141 C140 1.383 . S
C141 C142 1.394 . S
C142 H132 0.929 . S
C142 C138 1.377 . S
C142 C141 1.394 . S
H143 C150 0.929 . S
H144 C153 0.930 . S
H145 C155 0.929 . S
H146 C147 0.969 . S
C147 H146 0.969 . S
C147 O148 1.550 . S
C147 H149 0.973 . S
O148 C147 1.550 . S
O148 C154 1.412 . S
H149 C147 0.973 . S
C150 H143 0.929 . S
C150 C151 1.400 . S
C150 C152 1.364 . S
C151 C150 1.400 . S
C151 C155 1.377 . S
C152 C150 1.364 . S
C152 C153 1.374 . S
C153 H144 0.930 . S
C153 C152 1.374 . S
C153 C154 1.383 . S
C154 O148 1.412 . S
C154 C153 1.383 . S
C154 C155 1.394 . S
C155 H145 0.929 . S
C155 C151 1.377 . S
C155 C154 1.394 . S
H156 C163 0.929 . S
H157 C166 0.930 . S
H158 C168 0.929 . S
H159 C160 0.969 . S
C160 H159 0.969 . S
C160 O161 1.550 . S
C160 H162 0.973 . S
O161 C160 1.550 . S
O161 C167 1.412 . S
H162 C160 0.973 . S
C163 H156 0.929 . S
C163 C164 1.400 . S
C163 C165 1.364 . S
C164 C163 1.400 . S
C164 C168 1.377 . S
C165 C163 1.364 . S
C165 C166 1.374 . S
C166 H157 0.930 . S
C166 C165 1.374 . S
C166 C167 1.383 . S
C167 O161 1.412 . S
C167 C166 1.383 . S
C167 C168 1.394 . S
C168 H158 0.929 . S
C168 C164 1.377 . S
C168 C167 1.394 . S
H169 C176 0.929 . S
H170 C179 0.930 . S
H171 C181 0.929 . S
H172 C173 0.969 . S
C173 H172 0.969 . S
C173 O174 1.550 . S
C173 H175 0.973 . S
O174 C173 1.550 . S
O174 C180 1.412 . S
H175 C173 0.973 . S
C176 H169 0.929 . S
C176 C177 1.400 . S
C176 C178 1.364 . S
C177 C176 1.400 . S
C177 C181 1.377 . S
C178 C176 1.364 . S
C178 C179 1.374 . S
C179 H170 0.930 . S
C179 C178 1.374 . S
C179 C180 1.383 . S
C180 O174 1.412 . S
C180 C179 1.383 . S
C180 C181 1.394 . S
C181 H171 0.929 . S
C181 C177 1.377 . S
C181 C180 1.394 . S
H182 C189 0.929 . S
H183 C192 0.930 . S
H184 C194 0.929 . S
H185 C186 0.969 . S
C186 H185 0.969 . S
C186 O187 1.550 . S
C186 H188 0.973 . S
O187 C186 1.550 . S
O187 C193 1.412 . S
H188 C186 0.973 . S
C189 H182 0.929 . S
C189 C190 1.400 . S
C189 C191 1.364 . S
C190 C189 1.400 . S
C190 C194 1.377 . S
C191 C189 1.364 . S
C191 C192 1.374 . S
C192 H183 0.930 . S
C192 C191 1.374 . S
C192 C193 1.383 . S
C193 O187 1.412 . S
C193 C192 1.383 . S
C193 C194 1.394 . S
C194 H184 0.929 . S
C194 C190 1.377 . S
C194 C193 1.394 . S
H195 C202 0.929 . S
H196 C205 0.930 . S
H197 C207 0.929 . S
H198 C199 0.969 . S
C199 H198 0.969 . S
C199 O200 1.550 . S
C199 H201 0.973 . S
O200 C199 1.550 . S
O200 C206 1.412 . S
H201 C199 0.973 . S
C202 H195 0.929 . S
C202 C203 1.400 . S
C202 C204 1.364 . S
C203 C202 1.400 . S
C203 C207 1.377 . S
C204 C202 1.364 . S
C204 C205 1.374 . S
C205 H196 0.930 . S
C205 C204 1.374 . S
C205 C206 1.383 . S
C206 O200 1.412 . S
C206 C205 1.383 . S
C206 C207 1.394 . S
C207 H197 0.929 . S
C207 C203 1.377 . S
C207 C206 1.394 . S
H208 C215 0.929 . S
H209 C218 0.930 . S
H210 C220 0.929 . S
H211 C212 0.969 . S
C212 H211 0.969 . S
C212 O213 1.550 . S
C212 H214 0.973 . S
O213 C212 1.550 . S
O213 C219 1.412 . S
H214 C212 0.973 . S
C215 H208 0.929 . S
C215 C216 1.400 . S
C215 C217 1.364 . S
C216 C215 1.400 . S
C216 C220 1.377 . S
C217 C215 1.364 . S
C217 C218 1.374 . S
C218 H209 0.930 . S
C218 C217 1.374 . S
C218 C219 1.383 . S
C219 O213 1.412 . S
C219 C218 1.383 . S
C219 C220 1.394 . S
C220 H210 0.929 . S
C220 C216 1.377 . S
C220 C219 1.394 . S
H221 C228 0.929 . S
H222 C231 0.930 . S
H223 C233 0.929 . S
H224 C225 0.969 . S
C225 H224 0.969 . S
C225 O226 1.550 . S
C225 H227 0.973 . S
O226 C225 1.550 . S
O226 C232 1.412 . S
H227 C225 0.973 . S
C228 H221 0.929 . S
C228 C229 1.400 . S
C228 C230 1.364 . S
C229 C228 1.400 . S
C229 C233 1.377 . S
C230 C228 1.364 . S
C230 C231 1.374 . S
C231 H222 0.930 . S
C231 C230 1.374 . S
C231 C232 1.383 . S
C232 O226 1.412 . S
C232 C231 1.383 . S
C232 C233 1.394 . S
C233 H223 0.929 . S
C233 C229 1.377 . S
C233 C232 1.394 . S
H234 C241 0.929 . S
H235 C244 0.930 . S
H236 C246 0.929 . S
H237 C238 0.969 . S
C238 H237 0.969 . S
C238 O239 1.550 . S
C238 H240 0.973 . S
O239 C238 1.550 . S
O239 C245 1.412 . S
H240 C238 0.973 . S
C241 H234 0.929 . S
C241 C242 1.400 . S
C241 C243 1.364 . S
C242 C241 1.400 . S
C242 C246 1.377 . S
C243 C241 1.364 . S
C243 C244 1.374 . S
C244 H235 0.930 . S
C244 C243 1.374 . S
C244 C245 1.383 . S
C245 O239 1.412 . S
C245 C244 1.383 . S
C245 C246 1.394 . S
C246 H236 0.929 . S
C246 C242 1.377 . S
C246 C245 1.394 . S
H247 C254 0.929 . S
H248 C257 0.930 . S
H249 C259 0.929 . S
H250 C251 0.969 . S
C251 H250 0.969 . S
C251 O252 1.550 . S
C251 H253 0.973 . S
O252 C251 1.550 . S
O252 C258 1.412 . S
H253 C251 0.973 . S
C254 H247 0.929 . S
C254 C255 1.400 . S
C254 C256 1.364 . S
C255 C254 1.400 . S
C255 C259 1.377 . S
C256 C254 1.364 . S
C256 C257 1.374 . S
C257 H248 0.930 . S
C257 C256 1.374 . S
C257 C258 1.383 . S
C258 O252 1.412 . S
C258 C257 1.383 . S
C258 C259 1.394 . S
C259 H249 0.929 . S
C259 C255 1.377 . S
C259 C258 1.394 . S
H260 C267 0.929 . S
H261 C270 0.930 . S
H262 C272 0.929 . S
H263 C264 0.969 . S
C264 H263 0.969 . S
C264 O265 1.550 . S
C264 H266 0.973 . S
O265 C264 1.550 . S
O265 C271 1.412 . S
H266 C264 0.973 . S
C267 H260 0.929 . S
C267 C268 1.400 . S
C267 C269 1.364 . S
C268 C267 1.400 . S
C268 C272 1.377 . S
C269 C267 1.364 . S
C269 C270 1.374 . S
C270 H261 0.930 . S
C270 C269 1.374 . S
C270 C271 1.383 . S
C271 O265 1.412 . S
C271 C270 1.383 . S
C271 C272 1.394 . S
C272 H262 0.929 . S
C272 C268 1.377 . S
C272 C271 1.394 . S
H273 C280 0.929 . S
H274 C283 0.930 . S
H275 C285 0.929 . S
H276 C277 0.969 . S
C277 H276 0.969 . S
C277 O278 1.550 . S
C277 H279 0.973 . S
O278 C277 1.550 . S
O278 C284 1.412 . S
H279 C277 0.973 . S
C280 H273 0.929 . S
C280 C281 1.400 . S
C280 C282 1.364 . S
C281 C280 1.400 . S
C281 C285 1.377 . S
C282 C280 1.364 . S
C282 C283 1.374 . S
C283 H274 0.930 . S
C283 C282 1.374 . S
C283 C284 1.383 . S
C284 O278 1.412 . S
C284 C283 1.383 . S
C284 C285 1.394 . S
C285 H275 0.929 . S
C285 C281 1.377 . S
C285 C284 1.394 . S
H286 C293 0.929 . S
H287 C296 0.930 . S
H288 C298 0.929 . S
H289 C290 0.969 . S
C290 H289 0.969 . S
C290 O291 1.550 . S
C290 H292 0.973 . S
O291 C290 1.550 . S
O291 C297 1.412 . S
H292 C290 0.973 . S
C293 H286 0.929 . S
C293 C294 1.400 . S
C293 C295 1.364 . S
C294 C293 1.400 . S
C294 C298 1.377 . S
C295 C293 1.364 . S
C295 C296 1.374 . S
C296 H287 0.930 . S
C296 C295 1.374 . S
C296 C297 1.383 . S
C297 O291 1.412 . S
C297 C296 1.383 . S
C297 C298 1.394 . S
C298 H288 0.929 . S
C298 C294 1.377 . S
C298 C297 1.394 . S
H299 C306 0.929 . S
H300 C309 0.930 . S
H301 C311 0.929 . S
H302 C303 0.969 . S
C303 H302 0.969 . S
C303 O304 1.550 . S
C303 H305 0.973 . S
O304 C303 1.550 . S
O304 C310 1.412 . S
H305 C303 0.973 . S
C306 H299 0.929 . S
C306 C307 1.400 . S
C306 C308 1.364 . S
C307 C306 1.400 . S
C307 C311 1.377 . S
C308 C306 1.364 . S
C308 C309 1.374 . S
C309 H300 0.930 . S
C309 C308 1.374 . S
C309 C310 1.383 . S
C310 O304 1.412 . S
C310 C309 1.383 . S
C310 C311 1.394 . S
C311 H301 0.929 . S
C311 C307 1.377 . S
C311 C310 1.394 . S
H312 C319 0.929 . S
H313 C322 0.930 . S
H314 C324 0.929 . S
H315 C316 0.969 . S
C316 H315 0.969 . S
C316 O317 1.550 . S
C316 H318 0.973 . S
O317 C316 1.550 . S
O317 C323 1.412 . S
H318 C316 0.973 . S
C319 H312 0.929 . S
C319 C320 1.400 . S
C319 C321 1.364 . S
C320 C319 1.400 . S
C320 C324 1.377 . S
C321 C319 1.364 . S
C321 C322 1.374 . S
C322 H313 0.930 . S
C322 C321 1.374 . S
C322 C323 1.383 . S
C323 O317 1.412 . S
C323 C322 1.383 . S
C323 C324 1.394 . S
C324 H314 0.929 . S
C324 C320 1.377 . S
C324 C323 1.394 . S
H325 C332 0.929 . S
H326 C335 0.930 . S
H327 C337 0.929 . S
H328 C329 0.969 . S
C329 H328 0.969 . S
C329 O330 1.550 . S
C329 H331 0.973 . S
O330 C329 1.550 . S
O330 C336 1.412 . S
H331 C329 0.973 . S
C332 H325 0.929 . S
C332 C333 1.400 . S
C332 C334 1.364 . S
C333 C332 1.400 . S
C333 C337 1.377 . S
C334 C332 1.364 . S
C334 C335 1.374 . S
C335 H326 0.930 . S
C335 C334 1.374 . S
C335 C336 1.383 . S
C336 O330 1.412 . S
C336 C335 1.383 . S
C336 C337 1.394 . S
C337 H327 0.929 . S
C337 C333 1.377 . S
C337 C336 1.394 . S
H338 C345 0.929 . S
H339 C348 0.930 . S
H340 C350 0.929 . S
H341 C342 0.969 . S
C342 H341 0.969 . S
C342 O343 1.550 . S
C342 H344 0.973 . S
O343 C342 1.550 . S
O343 C349 1.412 . S
H344 C342 0.973 . S
C345 H338 0.929 . S
C345 C346 1.400 . S
C345 C347 1.364 . S
C346 C345 1.400 . S
C346 C350 1.377 . S
C347 C345 1.364 . S
C347 C348 1.374 . S
C348 H339 0.930 . S
C348 C347 1.374 . S
C348 C349 1.383 . S
C349 O343 1.412 . S
C349 C348 1.383 . S
C349 C350 1.394 . S
C350 H340 0.929 . S
C350 C346 1.377 . S
C350 C349 1.394 . S
H351 C358 0.929 . S
H352 C361 0.930 . S
H353 C363 0.929 . S
H354 C355 0.969 . S
C355 H354 0.969 . S
C355 O356 1.550 . S
C355 H357 0.973 . S
O356 C355 1.550 . S
O356 C362 1.412 . S
H357 C355 0.973 . S
C358 H351 0.929 . S
C358 C359 1.400 . S
C358 C360 1.364 . S
C359 C358 1.400 . S
C359 C363 1.377 . S
C360 C358 1.364 . S
C360 C361 1.374 . S
C361 H352 0.930 . S
C361 C360 1.374 . S
C361 C362 1.383 . S
C362 O356 1.412 . S
C362 C361 1.383 . S
C362 C363 1.394 . S
C363 H353 0.929 . S
C363 C359 1.377 . S
C363 C362 1.394 . S
H364 C371 0.929 . S
H365 C374 0.930 . S
H366 C376 0.929 . S
H367 C368 0.969 . S
C368 H367 0.969 . S
C368 O369 1.550 . S
C368 H370 0.973 . S
O369 C368 1.550 . S
O369 C375 1.412 . S
H370 C368 0.973 . S
C371 H364 0.929 . S
C371 C372 1.400 . S
C371 C373 1.364 . S
C372 C371 1.400 . S
C372 C376 1.377 . S
C373 C371 1.364 . S
C373 C374 1.374 . S
C374 H365 0.930 . S
C374 C373 1.374 . S
C374 C375 1.383 . S
C375 O369 1.412 . S
C375 C374 1.383 . S
C375 C376 1.394 . S
C376 H366 0.929 . S
C376 C372 1.377 . S
C376 C375 1.394 . S
H377 C384 0.929 . S
H378 C387 0.930 . S
H379 C389 0.929 . S
H380 C381 0.969 . S
C381 H380 0.969 . S
C381 O382 1.550 . S
C381 H383 0.973 . S
O382 C381 1.550 . S
O382 C388 1.412 . S
H383 C381 0.973 . S
C384 H377 0.929 . S
C384 C385 1.400 . S
C384 C386 1.364 . S
C385 C384 1.400 . S
C385 C389 1.377 . S
C386 C384 1.364 . S
C386 C387 1.374 . S
C387 H378 0.930 . S
C387 C386 1.374 . S
C387 C388 1.383 . S
C388 O382 1.412 . S
C388 C387 1.383 . S
C388 C389 1.394 . S
C389 H379 0.929 . S
C389 C385 1.377 . S
C389 C388 1.394 . S
H390 C397 0.929 . S
H391 C400 0.930 . S
H392 C402 0.929 . S
H393 C394 0.969 . S
C394 H393 0.969 . S
C394 O395 1.550 . S
C394 H396 0.973 . S
O395 C394 1.550 . S
O395 C401 1.412 . S
H396 C394 0.973 . S
C397 H390 0.929 . S
C397 C398 1.400 . S
C397 C399 1.364 . S
C398 C397 1.400 . S
C398 C402 1.377 . S
C399 C397 1.364 . S
C399 C400 1.374 . S
C400 H391 0.930 . S
C400 C399 1.374 . S
C400 C401 1.383 . S
C401 O395 1.412 . S
C401 C400 1.383 . S
C401 C402 1.394 . S
C402 H392 0.929 . S
C402 C398 1.377 . S
C402 C401 1.394 . S
H403 C410 0.929 . S
H404 C413 0.930 . S
H405 C415 0.929 . S
H406 C407 0.969 . S
C407 H406 0.969 . S
C407 O408 1.550 . S
C407 H409 0.973 . S
O408 C407 1.550 . S
O408 C414 1.412 . S
H409 C407 0.973 . S
C410 H403 0.929 . S
C410 C411 1.400 . S
C410 C412 1.364 . S
C411 C410 1.400 . S
C411 C415 1.377 . S
C412 C410 1.364 . S
C412 C413 1.374 . S
C413 H404 0.930 . S
C413 C412 1.374 . S
C413 C414 1.383 . S
C414 O408 1.412 . S
C414 C413 1.383 . S
C414 C415 1.394 . S
C415 H405 0.929 . S
C415 C411 1.377 . S
C415 C414 1.394 . S
Cu416 N417 1.999 . S
Cu416 O422 1.974 . S
Cu416 N427 1.985 . S
Cu416 O436 1.959 . S
N417 Cu416 1.999 . S
N417 C419 1.263 . S
N417 C421 1.389 . S
N418 C419 1.358 . S
N418 C420 1.400 . S
C419 N417 1.263 . S
C419 N418 1.358 . S
C419 H425 0.930 . S
C420 N418 1.400 . S
C420 C421 1.351 . S
C420 H437 0.930 . S
C421 N417 1.389 . S
C421 C420 1.351 . S
C421 H426 0.930 . S
O422 Cu416 1.974 . S
O422 C432 1.282 . S
C423 O424 1.261 . S
C423 O436 1.251 . S
O424 C423 1.261 . S
H425 C419 0.930 . S
H426 C421 0.930 . S
N427 Cu416 1.985 . S
N427 C429 1.335 . S
N427 C430 1.390 . S
N428 C429 1.345 . S
N428 C431 1.336 . S
C429 N427 1.335 . S
C429 N428 1.345 . S
C429 H434 0.930 . S
C430 N427 1.390 . S
C430 C431 1.346 . S
C430 H435 0.930 . S
C431 N428 1.336 . S
C431 C430 1.346 . S
C431 H438 0.929 . S
C432 O422 1.282 . S
C432 O433 1.216 . S
O433 C432 1.216 . S
H434 C429 0.930 . S
H435 C430 0.930 . S
O436 Cu416 1.959 . S
O436 C423 1.251 . S
H437 C420 0.930 . S
H438 C431 0.929 . S
Cu439 N440 1.999 . S
Cu439 O445 1.974 . S
Cu439 N450 1.985 1_554 S
Cu439 O459 1.959 1_554 S
N440 Cu439 1.999 . S
N440 C442 1.263 . S
N440 C444 1.389 . S
N441 C442 1.358 . S
N441 C443 1.400 . S
C442 N440 1.263 . S
C442 N441 1.358 . S
C442 H448 0.930 . S
C443 N441 1.400 . S
C443 C444 1.351 . S
C443 H460 0.930 . S
C444 N440 1.389 . S
C444 C443 1.351 . S
C444 H449 0.930 . S
O445 Cu439 1.974 . S
O445 C455 1.282 . S
C446 O447 1.285 . S
C446 O459 1.251 . S
O447 C446 1.285 . S
H448 C442 0.930 . S
H449 C444 0.930 . S
N450 Cu439 1.985 1_556 S
N450 C452 1.335 . S
N450 C453 1.390 1_556 S
N451 C452 1.345 . S
N451 C454 1.336 . S
C452 N450 1.335 . S
C452 N451 1.345 . S
C452 H457 0.930 . S
C453 N450 1.390 1_554 S
C453 C454 1.346 1_554 S
C453 H458 0.930 . S
C454 N451 1.336 . S
C454 C453 1.346 1_556 S
C454 H461 0.929 . S
C455 O445 1.282 . S
C455 O456 1.216 . S
O456 C455 1.216 . S
H457 C452 0.930 . S
H458 C453 0.930 . S
O459 Cu439 1.959 1_556 S
O459 C446 1.251 . S
H460 C443 0.930 . S
H461 C454 0.929 . S
Cu462 N463 1.999 . S
Cu462 O468 1.974 . S
Cu462 N473 1.985 . S
Cu462 O482 1.959 . S
N463 Cu462 1.999 . S
N463 C465 1.263 1_554 S
N463 C467 1.389 . S
N464 C465 1.358 . S
N464 C466 1.375 1_556 S
C465 N463 1.263 1_556 S
C465 N464 1.358 . S
C465 H471 0.930 . S
C466 N464 1.375 1_554 S
C466 C467 1.384 . S
C466 H483 0.926 . S
C467 N463 1.389 . S
C467 C466 1.384 . S
C467 H472 0.930 . S
O468 Cu462 1.974 . S
O468 C478 1.282 1_554 S
C469 O470 1.261 . S
C469 O482 1.251 . S
O470 C469 1.261 . S
H471 C465 0.930 . S
H472 C467 0.930 . S
N473 Cu462 1.985 . S
N473 C475 1.335 . S
N473 C476 1.390 . S
N474 C475 1.345 . S
N474 C477 1.336 . S
C475 N473 1.335 . S
C475 N474 1.345 . S
C475 H480 0.930 . S
C476 N473 1.390 . S
C476 C477 1.346 . S
C476 H481 0.930 . S
C477 N474 1.336 . S
C477 C476 1.346 . S
C477 H484 0.929 . S
C478 O468 1.282 1_556 S
C478 O479 1.216 . S
O479 C478 1.216 . S
H480 C475 0.930 . S
H481 C476 0.930 . S
O482 Cu462 1.959 . S
O482 C469 1.251 . S
H483 C466 0.926 . S
H484 C477 0.929 . S
Cu485 N486 1.999 1_556 S
Cu485 O491 1.974 1_556 S
Cu485 N496 1.985 . S
Cu485 O505 1.959 . S
N486 Cu485 1.999 1_554 S
N486 C488 1.263 . S
N486 C490 1.389 . S
N487 C488 1.358 . S
N487 C489 1.400 . S
C488 N486 1.263 . S
C488 N487 1.358 . S
C488 H494 0.930 . S
C489 N487 1.400 . S
C489 C490 1.351 . S
C489 H506 0.930 . S
C490 N486 1.389 . S
C490 C489 1.351 . S
C490 H495 0.897 1_554 S
O491 Cu485 1.974 1_554 S
O491 C501 1.282 . S
C492 O493 1.261 . S
C492 O505 1.251 . S
O493 C492 1.261 . S
H494 C488 0.930 . S
H495 C490 0.897 1_556 S
N496 Cu485 1.985 . S
N496 C498 1.335 . S
N496 C499 1.390 . S
N497 C498 1.345 . S
N497 C500 1.336 . S
C498 N496 1.335 . S
C498 N497 1.345 . S
C498 H503 0.930 . S
C499 N496 1.390 . S
C499 C500 1.346 . S
C499 H504 0.945 . S
C500 N497 1.336 . S
C500 C499 1.346 . S
C500 H507 0.929 . S
C501 O491 1.282 . S
C501 O502 1.216 . S
O502 C501 1.216 . S
H503 C498 0.930 . S
H504 C499 0.945 . S
O505 Cu485 1.959 . S
O505 C492 1.251 . S
H506 C489 0.930 . S
H507 C500 0.929 . S
Cu508 N509 1.999 . S
Cu508 O514 1.974 . S
Cu508 N519 1.985 1_455 S
Cu508 O528 1.959 1_455 S
N509 Cu508 1.999 . S
N509 C511 1.263 . S
N509 C513 1.389 . S
N510 C511 1.358 . S
N510 C512 1.400 . S
C511 N509 1.263 . S
C511 N510 1.358 . S
C511 H517 0.930 . S
C512 N510 1.400 . S
C512 C513 1.351 . S
C512 H529 0.930 . S
C513 N509 1.389 . S
C513 C512 1.351 . S
C513 H518 0.930 . S
O514 Cu508 1.974 . S
O514 C524 1.282 . S
C515 O516 1.261 . S
C515 O528 1.251 . S
O516 C515 1.261 . S
H517 C511 0.930 . S
H518 C513 0.930 . S
N519 Cu508 1.985 1_655 S
N519 C521 1.335 . S
N519 C522 1.390 1_655 S
N520 C521 1.345 . S
N520 C523 1.336 . S
C521 N519 1.335 . S
C521 N520 1.345 . S
C521 H526 0.930 . S
C522 N519 1.390 1_455 S
C522 C523 1.346 1_455 S
C522 H527 0.930 . S
C523 N520 1.336 . S
C523 C522 1.346 1_655 S
C523 H530 0.929 . S
C524 O514 1.282 . S
C524 O525 1.216 . S
O525 C524 1.216 . S
H526 C521 0.930 . S
H527 C522 0.930 . S
O528 Cu508 1.959 1_655 S
O528 C515 1.251 . S
H529 C512 0.930 . S
H530 C523 0.929 . S
Cu531 N532 1.999 . S
Cu531 O537 1.974 . S
Cu531 N542 1.985 . S
Cu531 O551 1.959 . S
N532 Cu531 1.999 . S
N532 C534 1.263 . S
N532 C536 1.389 . S
N533 C534 1.358 . S
N533 C535 1.400 . S
C534 N532 1.263 . S
C534 N533 1.358 . S
C534 H540 0.930 . S
C535 N533 1.400 . S
C535 C536 1.351 . S
C535 H552 0.930 . S
C536 N532 1.389 . S
C536 C535 1.351 . S
C536 H541 0.930 . S
O537 Cu531 1.974 . S
O537 C547 1.282 . S
C538 O539 1.261 . S
C538 O551 1.251 . S
O539 C538 1.261 . S
H540 C534 0.930 . S
H541 C536 0.930 . S
N542 Cu531 1.985 . S
N542 C544 1.335 1_545 S
N542 C545 1.390 . S
N543 C544 1.345 . S
N543 C546 1.336 . S
C544 N542 1.335 1_565 S
C544 N543 1.345 . S
C544 H549 0.930 . S
C545 N542 1.390 . S
C545 C546 1.346 1_545 S
C545 H550 0.930 . S
C546 N543 1.336 . S
C546 C545 1.346 1_565 S
C546 H553 0.929 . S
C547 O537 1.282 . S
C547 O548 1.216 . S
O548 C547 1.216 . S
H549 C544 0.930 . S
H550 C545 0.930 . S
O551 Cu531 1.959 . S
O551 C538 1.251 . S
H552 C535 0.930 . S
H553 C546 0.929 . S
Cu554 N555 1.999 . S
Cu554 O560 1.974 . S
Cu554 N565 1.985 1_655 S
Cu554 O574 1.959 1_655 S
N555 Cu554 1.999 . S
N555 C557 1.263 . S
N555 C559 1.389 . S
N556 C557 1.358 . S
N556 C558 1.400 . S
C557 N555 1.263 . S
C557 N556 1.358 . S
C557 H563 0.930 . S
C558 N556 1.400 . S
C558 C559 1.351 . S
C558 H575 0.930 . S
C559 N555 1.389 . S
C559 C558 1.351 . S
C559 H564 0.930 . S
O560 Cu554 1.974 . S
O560 C570 1.282 . S
C561 O562 1.261 . S
C561 O574 1.251 . S
O562 C561 1.261 . S
H563 C557 0.930 . S
H564 C559 0.930 . S
N565 Cu554 1.985 1_455 S
N565 C567 1.335 . S
N565 C568 1.390 . S
N566 C567 1.345 . S
N566 C569 1.336 . S
C567 N565 1.335 . S
C567 N566 1.345 . S
C567 H572 0.930 . S
C568 N565 1.390 . S
C568 C569 1.346 . S
C568 H573 0.930 . S
C569 N566 1.336 . S
C569 C568 1.346 . S
C569 H576 0.929 . S
C570 O560 1.282 . S
C570 O571 1.216 . S
O571 C570 1.216 . S
H572 C567 0.930 . S
H573 C568 0.930 . S
O574 Cu554 1.959 1_455 S
O574 C561 1.251 . S
H575 C558 0.930 . S
H576 C569 0.929 . S
Cu577 N578 1.999 . S
Cu577 O583 1.974 . S
Cu577 N588 1.985 1_545 S
Cu577 O597 1.959 1_545 S
N578 Cu577 1.999 . S
N578 C580 1.263 . S
N578 C582 1.389 . S
N579 C580 1.358 . S
N579 C581 1.400 . S
C580 N578 1.263 . S
C580 N579 1.358 . S
C580 H586 0.930 . S
C581 N579 1.400 . S
C581 C582 1.351 . S
C581 H598 0.930 . S
C582 N578 1.389 . S
C582 C581 1.351 . S
C582 H587 0.930 . S
O583 Cu577 1.974 . S
O583 C593 1.282 . S
C584 O585 1.261 . S
C584 O597 1.251 . S
O585 C584 1.261 . S
H586 C580 0.930 . S
H587 C582 0.930 . S
N588 Cu577 1.985 1_565 S
N588 C590 1.335 . S
N588 C591 1.390 . S
N589 C590 1.345 . S
N589 C592 1.336 . S
C590 N588 1.335 . S
C590 N589 1.345 . S
C590 H595 0.930 . S
C591 N588 1.390 . S
C591 C592 1.346 . S
C591 H596 0.930 . S
C592 N589 1.336 . S
C592 C591 1.346 . S
C592 H599 0.929 . S
C593 O583 1.282 . S
C593 O594 1.216 . S
O594 C593 1.216 . S
H595 C590 0.930 . S
H596 C591 0.930 . S
O597 Cu577 1.959 1_565 S
O597 C584 1.251 . S
H598 C581 0.930 . S
H599 C592 0.929 . S
Cu600 N601 1.999 . S
Cu600 O606 1.974 . S
Cu600 N611 1.965 1_455 S
Cu600 O620 1.959 1_455 S
N601 Cu600 1.999 . S
N601 C603 1.263 . S
N601 C605 1.389 . S
N602 C603 1.358 . S
N602 C604 1.400 . S
C603 N601 1.263 . S
C603 N602 1.358 . S
C603 H609 0.930 . S
C604 N602 1.400 . S
C604 C605 1.351 . S
C604 H621 0.930 . S
C605 N601 1.389 . S
C605 C604 1.351 . S
C605 H610 0.930 . S
O606 Cu600 1.974 . S
O606 C616 1.282 . S
C607 O608 1.261 . S
C607 O620 1.251 . S
O608 C607 1.261 . S
H609 C603 0.930 . S
H610 C605 0.930 . S
N611 Cu600 1.965 1_655 S
N611 C613 1.364 . S
N611 C614 1.385 1_655 S
N612 C613 1.345 . S
N612 C615 1.336 . S
C613 N611 1.364 . S
C613 N612 1.345 . S
C613 H618 0.930 . S
C614 N611 1.385 1_455 S
C614 C615 1.346 1_455 S
C614 H619 0.930 . S
C615 N612 1.336 . S
C615 C614 1.346 1_655 S
C615 H622 0.929 . S
C616 O606 1.282 . S
C616 O617 1.216 . S
O617 C616 1.216 . S
H618 C613 0.930 . S
H619 C614 0.930 . S
O620 Cu600 1.959 1_655 S
O620 C607 1.251 . S
H621 C604 0.930 . S
H622 C615 0.929 . S
Cu623 N624 1.999 . S
Cu623 O629 1.974 . S
Cu623 N634 1.985 . S
Cu623 O643 1.959 . S
N624 Cu623 1.999 . S
N624 C626 1.263 . S
N624 C628 1.389 . S
N625 C626 1.358 . S
N625 C627 1.400 . S
C626 N624 1.263 . S
C626 N625 1.358 . S
C626 H632 0.930 . S
C627 N625 1.400 . S
C627 C628 1.351 . S
C627 H644 0.930 . S
C628 N624 1.389 . S
C628 C627 1.351 . S
C628 H633 0.930 . S
O629 Cu623 1.974 . S
O629 C639 1.282 . S
C630 O631 1.261 . S
C630 O643 1.251 . S
O631 C630 1.261 . S
H632 C626 0.930 . S
H633 C628 0.930 . S
N634 Cu623 1.985 . S
N634 C636 1.335 . S
N634 C637 1.390 . S
N635 C636 1.345 1_565 S
N635 C638 1.336 1_565 S
C636 N634 1.335 . S
C636 N635 1.345 1_545 S
C636 H641 0.930 1_545 S
C637 N634 1.390 . S
C637 C638 1.346 . S
C637 H642 0.930 . S
C638 N635 1.336 1_545 S
C638 C637 1.346 . S
C638 H645 0.929 . S
C639 O629 1.282 . S
C639 O640 1.216 . S
O640 C639 1.216 . S
H641 C636 0.930 1_565 S
H642 C637 0.930 . S
O643 Cu623 1.959 . S
O643 C630 1.251 . S
H644 C627 0.930 . S
H645 C638 0.929 . S
Cu646 N647 1.999 . S
Cu646 O652 1.981 . S
Cu646 N657 1.985 . S
Cu646 O666 1.959 . S
N647 Cu646 1.999 . S
N647 C649 1.263 1_455 S
N647 C651 1.389 . S
N648 C649 1.358 . S
N648 C650 1.400 . S
C649 N647 1.263 1_655 S
C649 N648 1.358 . S
C649 H655 0.930 . S
C650 N648 1.400 . S
C650 C651 1.351 1_655 S
C650 H667 0.930 . S
C651 N647 1.389 . S
C651 C650 1.351 1_455 S
C651 H656 0.930 . S
O652 Cu646 1.981 . S
O652 C662 1.278 1_455 S
C653 O654 1.261 . S
C653 O666 1.251 . S
O654 C653 1.261 . S
H655 C649 0.930 . S
H656 C651 0.930 . S
N657 Cu646 1.985 . S
N657 C659 1.335 . S
N657 C660 1.390 . S
N658 C659 1.345 . S
N658 C661 1.336 . S
C659 N657 1.335 . S
C659 N658 1.345 . S
C659 H664 0.930 . S
C660 N657 1.390 . S
C660 C661 1.346 . S
C660 H665 0.930 . S
C661 N658 1.336 . S
C661 C660 1.346 . S
C661 H668 0.929 . S
C662 O652 1.278 1_655 S
C662 O663 1.216 1_655 S
O663 C662 1.216 1_455 S
H664 C659 0.930 . S
H665 C660 0.930 . S
O666 Cu646 1.959 . S
O666 C653 1.251 . S
H667 C650 0.930 . S
H668 C661 0.929 . S
Cu669 N670 1.999 . S
Cu669 O675 1.974 . S
Cu669 N680 1.961 1_545 S
Cu669 O689 1.959 . S
N670 Cu669 1.999 . S
N670 C672 1.263 . S
N670 C674 1.389 . S
N671 C672 1.358 . S
N671 C673 1.400 . S
C672 N670 1.263 . S
C672 N671 1.358 . S
C672 H678 0.930 . S
C673 N671 1.400 . S
C673 C674 1.351 . S
C673 H690 0.930 . S
C674 N670 1.389 . S
C674 C673 1.351 . S
C674 H679 0.930 . S
O675 Cu669 1.974 . S
O675 C685 1.282 . S
C676 O677 1.248 1_565 S
C676 O689 1.251 1_565 S
O677 C676 1.248 1_545 S
H678 C672 0.930 . S
H679 C674 0.930 . S
N680 Cu669 1.961 1_565 S
N680 C682 1.374 . S
N680 C683 1.375 1_565 S
N681 C682 1.345 . S
N681 C684 1.336 . S
C682 N680 1.374 . S
C682 N681 1.345 . S
C682 H687 0.930 . S
C683 N680 1.375 1_545 S
C683 C684 1.320 1_545 S
C683 H688 0.959 . S
C684 N681 1.336 . S
C684 C683 1.320 1_565 S
C684 H691 0.929 . S
C685 O675 1.282 . S
C685 O686 1.216 . S
O686 C685 1.216 . S
H687 C682 0.930 . S
H688 C683 0.959 . S
O689 Cu669 1.959 . S
O689 C676 1.251 1_545 S
H690 C673 0.930 . S
H691 C684 0.929 . S
Cu692 N693 1.999 . S
Cu692 O698 1.974 . S
Cu692 N703 1.985 . S
Cu692 O712 1.959 . S
N693 Cu692 1.999 . S
N693 C695 1.263 . S
N693 C697 1.389 . S
N694 C695 1.358 . S
N694 C696 1.400 . S
C695 N693 1.263 . S
C695 N694 1.358 . S
C695 H701 0.930 . S
C696 N694 1.400 . S
C696 C697 1.351 . S
C696 H713 0.930 . S
C697 N693 1.389 . S
C697 C696 1.351 . S
C697 H702 0.930 . S
O698 Cu692 1.974 . S
O698 C708 1.282 . S
C699 O700 1.261 . S
C699 O712 1.251 . S
O700 C699 1.261 . S
H701 C695 0.930 . S
H702 C697 0.930 . S
N703 Cu692 1.985 . S
N703 C705 1.335 . S
N703 C706 1.390 . S
N704 C705 1.345 . S
N704 C707 1.336 . S
C705 N703 1.335 . S
C705 N704 1.345 . S
C705 H710 0.930 . S
C706 N703 1.390 . S
C706 C707 1.346 . S
C706 H711 0.930 . S
C707 N704 1.336 . S
C707 C706 1.346 . S
C707 H714 0.929 . S
C708 O698 1.282 . S
C708 O709 1.216 . S
O709 C708 1.216 . S
H710 C705 0.930 . S
H711 C706 0.930 . S
O712 Cu692 1.959 . S
O712 C699 1.251 . S
H713 C696 0.930 . S
H714 C707 0.929 . S
Cu715 N716 1.999 . S
Cu715 O721 1.974 . S
Cu715 N726 1.985 . S
Cu715 O735 1.959 . S
N716 Cu715 1.999 . S
N716 C718 1.263 . S
N716 C720 1.389 . S
N717 C718 1.358 . S
N717 C719 1.400 . S
C718 N716 1.263 . S
C718 N717 1.358 . S
C718 H724 0.930 . S
C719 N717 1.400 . S
C719 C720 1.351 . S
C719 H736 0.930 . S
C720 N716 1.389 . S
C720 C719 1.351 . S
C720 H725 0.930 . S
O721 Cu715 1.974 . S
O721 C731 1.282 . S
C722 O723 1.261 . S
C722 O735 1.251 . S
O723 C722 1.261 . S
H724 C718 0.930 . S
H725 C720 0.930 . S
N726 Cu715 1.985 . S
N726 C728 1.335 . S
N726 C729 1.390 . S
N727 C728 1.345 . S
N727 C730 1.336 . S
C728 N726 1.335 . S
C728 N727 1.345 . S
C728 H733 0.930 . S
C729 N726 1.390 . S
C729 C730 1.346 . S
C729 H734 0.930 . S
C730 N727 1.336 . S
C730 C729 1.346 . S
C730 H737 0.929 . S
C731 O721 1.282 . S
C731 O732 1.216 . S
O732 C731 1.216 . S
H733 C728 0.930 . S
H734 C729 0.930 . S
O735 Cu715 1.959 . S
O735 C722 1.251 . S
H736 C719 0.930 . S
H737 C730 0.929 . S
Cu738 N739 1.999 . S
Cu738 O744 1.974 . S
Cu738 N749 1.985 . S
Cu738 O758 1.959 . S
N739 Cu738 1.999 . S
N739 C741 1.263 . S
N739 C743 1.389 . S
N740 C741 1.358 . S
N740 C742 1.400 . S
C741 N739 1.263 . S
C741 N740 1.358 . S
C741 H747 0.930 . S
C742 N740 1.400 . S
C742 C743 1.351 . S
C742 H759 0.930 . S
C743 N739 1.389 . S
C743 C742 1.351 . S
C743 H748 0.930 . S
O744 Cu738 1.974 . S
O744 C754 1.282 . S
C745 O746 1.261 . S
C745 O758 1.251 . S
O746 C745 1.261 . S
H747 C741 0.930 . S
H748 C743 0.930 . S
N749 Cu738 1.985 . S
N749 C751 1.335 . S
N749 C752 1.390 . S
N750 C751 1.345 . S
N750 C753 1.336 . S
C751 N749 1.335 . S
C751 N750 1.345 . S
C751 H756 0.930 . S
C752 N749 1.390 . S
C752 C753 1.346 . S
C752 H757 0.930 . S
C753 N750 1.336 . S
C753 C752 1.346 . S
C753 H760 0.929 . S
C754 O744 1.282 . S
C754 O755 1.216 . S
O755 C754 1.216 . S
H756 C751 0.930 . S
H757 C752 0.930 . S
O758 Cu738 1.959 . S
O758 C745 1.251 . S
H759 C742 0.930 . S
H760 C753 0.929 . S
Cu761 N762 1.999 . S
Cu761 O767 1.974 . S
Cu761 N772 1.985 . S
Cu761 O781 1.959 . S
N762 Cu761 1.999 . S
N762 C764 1.263 . S
N762 C766 1.389 . S
N763 C764 1.358 . S
N763 C765 1.400 . S
C764 N762 1.263 . S
C764 N763 1.358 . S
C764 H770 0.930 . S
C765 N763 1.400 . S
C765 C766 1.351 . S
C765 H782 0.930 . S
C766 N762 1.389 . S
C766 C765 1.351 . S
C766 H771 0.930 . S
O767 Cu761 1.974 . S
O767 C777 1.282 . S
C768 O769 1.261 . S
C768 O781 1.251 . S
O769 C768 1.261 . S
H770 C764 0.930 . S
H771 C766 0.930 . S
N772 Cu761 1.985 . S
N772 C774 1.335 . S
N772 C775 1.390 . S
N773 C774 1.345 . S
N773 C776 1.336 . S
C774 N772 1.335 . S
C774 N773 1.345 . S
C774 H779 0.930 . S
C775 N772 1.390 . S
C775 C776 1.346 . S
C775 H780 0.930 . S
C776 N773 1.336 . S
C776 C775 1.346 . S
C776 H783 0.929 . S
C777 O767 1.282 . S
C777 O778 1.216 . S
O778 C777 1.216 . S
H779 C774 0.930 . S
H780 C775 0.930 . S
O781 Cu761 1.959 . S
O781 C768 1.251 . S
H782 C765 0.930 . S
H783 C776 0.929 . S
Cu784 N785 1.999 . S
Cu784 O790 1.974 . S
Cu784 N795 1.985 . S
Cu784 O804 1.959 . S
N785 Cu784 1.999 . S
N785 C787 1.263 . S
N785 C789 1.389 . S
N786 C787 1.358 . S
N786 C788 1.400 . S
C787 N785 1.263 . S
C787 N786 1.358 . S
C787 H793 0.930 . S
C788 N786 1.400 . S
C788 C789 1.351 . S
C788 H805 0.930 . S
C789 N785 1.389 . S
C789 C788 1.351 . S
C789 H794 0.930 . S
O790 Cu784 1.974 . S
O790 C800 1.282 . S
C791 O792 1.261 . S
C791 O804 1.251 . S
O792 C791 1.261 . S
H793 C787 0.930 . S
H794 C789 0.930 . S
N795 Cu784 1.985 . S
N795 C797 1.335 . S
N795 C798 1.390 . S
N796 C797 1.345 . S
N796 C799 1.336 . S
C797 N795 1.335 . S
C797 N796 1.345 . S
C797 H802 0.930 . S
C798 N795 1.390 . S
C798 C799 1.346 . S
C798 H803 0.930 . S
C799 N796 1.336 . S
C799 C798 1.346 . S
C799 H806 0.929 . S
C800 O790 1.282 . S
C800 O801 1.216 . S
O801 C800 1.216 . S
H802 C797 0.930 . S
H803 C798 0.930 . S
O804 Cu784 1.959 . S
O804 C791 1.251 . S
H805 C788 0.930 . S
H806 C799 0.929 . S
Cu807 N808 1.999 . S
Cu807 O813 1.974 . S
Cu807 N818 1.985 . S
Cu807 O827 1.959 . S
N808 Cu807 1.999 . S
N808 C810 1.263 . S
N808 C812 1.389 . S
N809 C810 1.358 . S
N809 C811 1.400 . S
C810 N808 1.263 . S
C810 N809 1.358 . S
C810 H816 0.930 . S
C811 N809 1.400 . S
C811 C812 1.351 . S
C811 H828 0.930 . S
C812 N808 1.389 . S
C812 C811 1.351 . S
C812 H817 0.930 . S
O813 Cu807 1.974 . S
O813 C823 1.282 . S
C814 O815 1.261 . S
C814 O827 1.251 . S
O815 C814 1.261 . S
H816 C810 0.930 . S
H817 C812 0.930 . S
N818 Cu807 1.985 . S
N818 C820 1.335 . S
N818 C821 1.390 . S
N819 C820 1.345 . S
N819 C822 1.336 . S
C820 N818 1.335 . S
C820 N819 1.345 . S
C820 H825 0.930 . S
C821 N818 1.390 . S
C821 C822 1.346 . S
C821 H826 0.930 . S
C822 N819 1.336 . S
C822 C821 1.346 . S
C822 H829 0.929 . S
C823 O813 1.282 . S
C823 O824 1.216 . S
O824 C823 1.216 . S
H825 C820 0.930 . S
H826 C821 0.930 . S
O827 Cu807 1.959 . S
O827 C814 1.251 . S
H828 C811 0.930 . S
H829 C822 0.929 . S
Cu830 N831 1.999 . S
Cu830 O836 1.974 . S
Cu830 N841 1.985 . S
Cu830 O850 1.959 . S
N831 Cu830 1.999 . S
N831 C833 1.263 . S
N831 C835 1.389 . S
N832 C833 1.358 . S
N832 C834 1.400 . S
C833 N831 1.263 . S
C833 N832 1.358 . S
C833 H839 0.930 . S
C834 N832 1.400 . S
C834 C835 1.351 . S
C834 H851 0.930 . S
C835 N831 1.389 . S
C835 C834 1.351 . S
C835 H840 0.930 . S
O836 Cu830 1.974 . S
O836 C846 1.282 . S
C837 O838 1.261 . S
C837 O850 1.251 . S
O838 C837 1.261 . S
H839 C833 0.930 . S
H840 C835 0.930 . S
N841 Cu830 1.985 . S
N841 C843 1.335 . S
N841 C844 1.390 . S
N842 C843 1.345 . S
N842 C845 1.336 . S
C843 N841 1.335 . S
C843 N842 1.345 . S
C843 H848 0.930 . S
C844 N841 1.390 . S
C844 C845 1.346 . S
C844 H849 0.930 . S
C845 N842 1.336 . S
C845 C844 1.346 . S
C845 H852 0.929 . S
C846 O836 1.282 . S
C846 O847 1.216 . S
O847 C846 1.216 . S
H848 C843 0.930 . S
H849 C844 0.930 . S
O850 Cu830 1.959 . S
O850 C837 1.251 . S
H851 C834 0.930 . S
H852 C845 0.929 . S
Cu853 N854 1.999 . S
Cu853 O859 1.974 . S
Cu853 N864 1.985 . S
Cu853 O873 1.959 . S
N854 Cu853 1.999 . S
N854 C856 1.263 . S
N854 C858 1.389 . S
N855 C856 1.358 . S
N855 C857 1.400 . S
C856 N854 1.263 . S
C856 N855 1.358 . S
C856 H862 0.930 . S
C857 N855 1.400 . S
C857 C858 1.351 . S
C857 H874 0.930 . S
C858 N854 1.389 . S
C858 C857 1.351 . S
C858 H863 0.930 . S
O859 Cu853 1.974 . S
O859 C869 1.282 . S
C860 O861 1.261 . S
C860 O873 1.251 . S
O861 C860 1.261 . S
H862 C856 0.930 . S
H863 C858 0.930 . S
N864 Cu853 1.985 . S
N864 C866 1.335 . S
N864 C867 1.390 . S
N865 C866 1.345 . S
N865 C868 1.336 . S
C866 N864 1.335 . S
C866 N865 1.345 . S
C866 H871 0.930 . S
C867 N864 1.390 . S
C867 C868 1.346 . S
C867 H872 0.930 . S
C868 N865 1.336 . S
C868 C867 1.346 . S
C868 H875 0.929 . S
C869 O859 1.282 . S
C869 O870 1.216 . S
O870 C869 1.216 . S
H871 C866 0.930 . S
H872 C867 0.930 . S
O873 Cu853 1.959 . S
O873 C860 1.251 . S
H874 C857 0.930 . S
H875 C868 0.929 . S
Cu876 N877 1.999 . S
Cu876 O882 1.974 . S
Cu876 N887 1.985 . S
Cu876 O896 1.959 . S
N877 Cu876 1.999 . S
N877 C879 1.263 . S
N877 C881 1.389 . S
N878 C879 1.358 . S
N878 C880 1.400 . S
C879 N877 1.263 . S
C879 N878 1.358 . S
C879 H885 0.930 . S
C880 N878 1.400 . S
C880 C881 1.351 . S
C880 H897 0.930 . S
C881 N877 1.389 . S
C881 C880 1.351 . S
C881 H886 0.930 . S
O882 Cu876 1.974 . S
O882 C892 1.282 . S
C883 O884 1.261 . S
C883 O896 1.251 . S
O884 C883 1.261 . S
H885 C879 0.930 . S
H886 C881 0.930 . S
N887 Cu876 1.985 . S
N887 C889 1.335 . S
N887 C890 1.390 . S
N888 C889 1.345 . S
N888 C891 1.336 . S
C889 N887 1.335 . S
C889 N888 1.345 . S
C889 H894 0.930 . S
C890 N887 1.390 . S
C890 C891 1.346 . S
C890 H895 0.930 . S
C891 N888 1.336 . S
C891 C890 1.346 . S
C891 H898 0.929 . S
C892 O882 1.282 . S
C892 O893 1.216 . S
O893 C892 1.216 . S
H894 C889 0.930 . S
H895 C890 0.930 . S
O896 Cu876 1.959 . S
O896 C883 1.251 . S
H897 C880 0.930 . S
H898 C891 0.929 . S
Cu899 N900 1.999 . S
Cu899 O905 1.974 . S
Cu899 N910 1.985 . S
Cu899 O919 1.959 . S
N900 Cu899 1.999 . S
N900 C902 1.263 . S
N900 C904 1.389 . S
N901 C902 1.358 . S
N901 C903 1.400 . S
C902 N900 1.263 . S
C902 N901 1.358 . S
C902 H908 0.930 . S
C903 N901 1.400 . S
C903 C904 1.351 . S
C903 H920 0.930 . S
C904 N900 1.389 . S
C904 C903 1.351 . S
C904 H909 0.930 . S
O905 Cu899 1.974 . S
O905 C915 1.282 . S
C906 O907 1.261 . S
C906 O919 1.251 . S
O907 C906 1.261 . S
H908 C902 0.930 . S
H909 C904 0.930 . S
N910 Cu899 1.985 . S
N910 C912 1.335 . S
N910 C913 1.390 . S
N911 C912 1.345 . S
N911 C914 1.336 . S
C912 N910 1.335 . S
C912 N911 1.345 . S
C912 H917 0.930 . S
C913 N910 1.390 . S
C913 C914 1.346 . S
C913 H918 0.930 . S
C914 N911 1.336 . S
C914 C913 1.346 . S
C914 H921 0.929 . S
C915 O905 1.282 . S
C915 O916 1.216 . S
O916 C915 1.216 . S
H917 C912 0.930 . S
H918 C913 0.930 . S
O919 Cu899 1.959 . S
O919 C906 1.251 . S
H920 C903 0.930 . S
H921 C914 0.929 . S
Cu922 N923 1.999 . S
Cu922 O928 1.974 . S
Cu922 N933 1.985 . S
Cu922 O942 1.959 . S
N923 Cu922 1.999 . S
N923 C925 1.263 . S
N923 C927 1.389 . S
N924 C925 1.358 . S
N924 C926 1.400 . S
C925 N923 1.263 . S
C925 N924 1.358 . S
C925 H931 0.930 . S
C926 N924 1.400 . S
C926 C927 1.351 . S
C926 H943 0.930 . S
C927 N923 1.389 . S
C927 C926 1.351 . S
C927 H932 0.930 . S
O928 Cu922 1.974 . S
O928 C938 1.282 . S
C929 O930 1.261 . S
C929 O942 1.251 . S
O930 C929 1.261 . S
H931 C925 0.930 . S
H932 C927 0.930 . S
N933 Cu922 1.985 . S
N933 C935 1.335 . S
N933 C936 1.390 . S
N934 C935 1.345 . S
N934 C937 1.336 . S
C935 N933 1.335 . S
C935 N934 1.345 . S
C935 H940 0.930 . S
C936 N933 1.390 . S
C936 C937 1.346 . S
C936 H941 0.930 . S
C937 N934 1.336 . S
C937 C936 1.346 . S
C937 H944 0.929 . S
C938 O928 1.282 . S
C938 O939 1.216 . S
O939 C938 1.216 . S
H940 C935 0.930 . S
H941 C936 0.930 . S
O942 Cu922 1.959 . S
O942 C929 1.251 . S
H943 C926 0.930 . S
H944 C937 0.929 . S
Cu945 N946 1.999 . S
Cu945 O951 1.974 . S
Cu945 N956 1.985 . S
Cu945 O965 1.959 . S
N946 Cu945 1.999 . S
N946 C948 1.263 . S
N946 C950 1.389 . S
N947 C948 1.358 . S
N947 C949 1.400 . S
C948 N946 1.263 . S
C948 N947 1.358 . S
C948 H954 0.930 . S
C949 N947 1.400 . S
C949 C950 1.351 . S
C949 H966 0.930 . S
C950 N946 1.389 . S
C950 C949 1.351 . S
C950 H955 0.930 . S
O951 Cu945 1.974 . S
O951 C961 1.282 . S
C952 O953 1.261 . S
C952 O965 1.251 . S
O953 C952 1.261 . S
H954 C948 0.930 . S
H955 C950 0.930 . S
N956 Cu945 1.985 . S
N956 C958 1.335 . S
N956 C959 1.390 . S
N957 C958 1.345 . S
N957 C960 1.336 . S
C958 N956 1.335 . S
C958 N957 1.345 . S
C958 H963 0.930 . S
C959 N956 1.390 . S
C959 C960 1.346 . S
C959 H964 0.930 . S
C960 N957 1.336 . S
C960 C959 1.346 . S
C960 H967 0.929 . S
C961 O951 1.282 . S
C961 O962 1.216 . S
O962 C961 1.216 . S
H963 C958 0.930 . S
H964 C959 0.930 . S
O965 Cu945 1.959 . S
O965 C952 1.251 . S
H966 C949 0.930 . S
H967 C960 0.929 . S
C968 C969 1.387 . S
C968 H972 0.950 . S
C968 C977 1.390 . S
C969 C968 1.387 . S
C969 C971 1.387 . S
H970 C977 0.950 . S
C971 C969 1.387 . S
C971 C973 1.390 . S
C971 H975 0.950 . S
H972 C968 0.950 . S
C973 C971 1.390 . S
C973 C974 1.387 . S
C973 H976 0.950 . S
C974 C973 1.387 . S
C974 C977 1.387 . S
H975 C971 0.950 . S
H976 C973 0.950 . S
C977 C968 1.390 . S
C977 H970 0.950 . S
C977 C974 1.387 . S
C978 C979 1.387 . S
C978 H982 0.950 . S
C978 C987 1.390 . S
C979 C978 1.387 . S
C979 C981 1.387 . S
H980 C987 0.950 . S
C981 C979 1.387 . S
C981 C983 1.390 . S
C981 H985 0.950 . S
H982 C978 0.950 . S
C983 C981 1.390 . S
C983 C984 1.387 . S
C983 H986 0.950 . S
C984 C983 1.387 . S
C984 C987 1.387 . S
H985 C981 0.950 . S
H986 C983 0.950 . S
C987 C978 1.390 . S
C987 H980 0.950 . S
C987 C984 1.387 . S
C988 C989 1.387 . S
C988 H992 0.950 . S
C988 C997 1.390 . S
C989 C988 1.387 . S
C989 C991 1.387 . S
H990 C997 0.950 . S
C991 C989 1.387 . S
C991 C993 1.390 . S
C991 H995 0.950 . S
H992 C988 0.950 . S
C993 C991 1.390 . S
C993 C994 1.387 . S
C993 H996 0.950 . S
C994 C993 1.387 . S
C994 C997 1.387 . S
H995 C991 0.950 . S
H996 C993 0.950 . S
C997 C988 1.390 . S
C997 H990 0.950 . S
C997 C994 1.387 . S
C998 C999 1.387 . S
C998 H1002 0.950 . S
C998 C1007 1.390 . S
C999 C998 1.387 . S
C999 C1001 1.387 . S
H1000 C1007 0.950 . S
C1001 C999 1.387 . S
C1001 C1003 1.390 . S
C1001 H1005 0.950 . S
H1002 C998 0.950 . S
C1003 C1001 1.390 . S
C1003 C1004 1.387 . S
C1003 H1006 0.950 . S
C1004 C1003 1.387 . S
C1004 C1007 1.387 . S
H1005 C1001 0.950 . S
H1006 C1003 0.950 . S
C1007 C998 1.390 . S
C1007 H1000 0.950 . S
C1007 C1004 1.387 . S
C1008 C1009 1.387 . S
C1008 H1012 0.950 . S
C1008 C1017 1.390 . S
C1009 C1008 1.387 . S
C1009 C1011 1.387 . S
H1010 C1017 0.950 . S
C1011 C1009 1.387 . S
C1011 C1013 1.390 . S
C1011 H1015 0.950 . S
H1012 C1008 0.950 . S
C1013 C1011 1.390 . S
C1013 C1014 1.387 . S
C1013 H1016 0.950 . S
C1014 C1013 1.387 . S
C1014 C1017 1.387 . S
H1015 C1011 0.950 . S
H1016 C1013 0.950 . S
C1017 C1008 1.390 . S
C1017 H1010 0.950 . S
C1017 C1014 1.387 . S
C1018 C1019 1.387 . S
C1018 H1022 0.950 . S
C1018 C1027 1.390 . S
C1019 C1018 1.387 . S
C1019 C1021 1.387 . S
H1020 C1027 0.950 . S
C1021 C1019 1.387 . S
C1021 C1023 1.390 . S
C1021 H1025 0.950 . S
H1022 C1018 0.950 . S
C1023 C1021 1.390 . S
C1023 C1024 1.387 . S
C1023 H1026 0.950 . S
C1024 C1023 1.387 . S
C1024 C1027 1.387 . S
H1025 C1021 0.950 . S
H1026 C1023 0.950 . S
C1027 C1018 1.390 . S
C1027 H1020 0.950 . S
C1027 C1024 1.387 . S
C1028 C1029 1.387 . S
C1028 H1032 0.950 . S
C1028 C1037 1.390 . S
C1029 C1028 1.387 . S
C1029 C1031 1.387 . S
H1030 C1037 0.950 . S
C1031 C1029 1.387 . S
C1031 C1033 1.390 . S
C1031 H1035 0.950 . S
H1032 C1028 0.950 . S
C1033 C1031 1.390 . S
C1033 C1034 1.387 . S
C1033 H1036 0.950 . S
C1034 C1033 1.387 . S
C1034 C1037 1.387 . S
H1035 C1031 0.950 . S
H1036 C1033 0.950 . S
C1037 C1028 1.390 . S
C1037 H1030 0.950 . S
C1037 C1034 1.387 . S
C1038 C1039 1.387 . S
C1038 H1042 0.950 . S
C1038 C1047 1.390 . S
C1039 C1038 1.387 . S
C1039 C1041 1.387 . S
H1040 C1047 0.950 . S
C1041 C1039 1.387 . S
C1041 C1043 1.390 . S
C1041 H1045 0.950 . S
H1042 C1038 0.950 . S
C1043 C1041 1.390 . S
C1043 C1044 1.387 . S
C1043 H1046 0.950 . S
C1044 C1043 1.387 . S
C1044 C1047 1.387 . S
H1045 C1041 0.950 . S
H1046 C1043 0.950 . S
C1047 C1038 1.390 . S
C1047 H1040 0.950 . S
C1047 C1044 1.387 . S
C1048 C1049 1.387 . S
C1048 H1052 0.950 . S
C1048 C1057 1.390 . S
C1049 C1048 1.387 . S
C1049 C1051 1.387 . S
H1050 C1057 0.950 . S
C1051 C1049 1.387 . S
C1051 C1053 1.390 . S
C1051 H1055 0.950 . S
H1052 C1048 0.950 . S
C1053 C1051 1.390 . S
C1053 C1054 1.387 . S
C1053 H1056 0.950 . S
C1054 C1053 1.387 . S
C1054 C1057 1.387 . S
H1055 C1051 0.950 . S
H1056 C1053 0.950 . S
C1057 C1048 1.390 . S
C1057 H1050 0.950 . S
C1057 C1054 1.387 . S
C1058 C1059 1.387 . S
C1058 H1062 0.950 . S
C1058 C1067 1.390 . S
C1059 C1058 1.387 . S
C1059 C1061 1.387 . S
H1060 C1067 0.950 . S
C1061 C1059 1.387 . S
C1061 C1063 1.390 . S
C1061 H1065 0.950 . S
H1062 C1058 0.950 . S
C1063 C1061 1.390 . S
C1063 C1064 1.387 . S
C1063 H1066 0.950 . S
C1064 C1063 1.387 . S
C1064 C1067 1.387 . S
H1065 C1061 0.950 . S
H1066 C1063 0.950 . S
C1067 C1058 1.390 . S
C1067 H1060 0.950 . S
C1067 C1064 1.387 . S
C1068 C1069 1.387 . S
C1068 H1072 0.950 . S
C1068 C1077 1.390 . S
C1069 C1068 1.387 . S
C1069 C1071 1.387 . S
H1070 C1077 0.950 . S
C1071 C1069 1.387 . S
C1071 C1073 1.390 . S
C1071 H1075 0.950 . S
H1072 C1068 0.950 . S
C1073 C1071 1.390 . S
C1073 C1074 1.387 . S
C1073 H1076 0.950 . S
C1074 C1073 1.387 . S
C1074 C1077 1.387 . S
H1075 C1071 0.950 . S
H1076 C1073 0.950 . S
C1077 C1068 1.390 . S
C1077 H1070 0.950 . S
C1077 C1074 1.387 . S
C1078 C1079 1.387 . S
C1078 H1082 0.950 . S
C1078 C1087 1.390 . S
C1079 C1078 1.387 . S
C1079 C1081 1.387 . S
H1080 C1087 0.950 . S
C1081 C1079 1.387 . S
C1081 C1083 1.390 . S
C1081 H1085 0.950 . S
H1082 C1078 0.950 . S
C1083 C1081 1.390 . S
C1083 C1084 1.387 . S
C1083 H1086 0.950 . S
C1084 C1083 1.387 . S
C1084 C1087 1.387 . S
H1085 C1081 0.950 . S
H1086 C1083 0.950 . S
C1087 C1078 1.390 . S
C1087 H1080 0.950 . S
C1087 C1084 1.387 . S
C1088 C1089 1.387 . S
C1088 H1092 0.950 . S
C1088 C1097 1.390 . S
C1089 C1088 1.387 . S
C1089 C1091 1.387 . S
H1090 C1097 0.950 . S
C1091 C1089 1.387 . S
C1091 C1093 1.390 . S
C1091 H1095 0.950 . S
H1092 C1088 0.950 . S
C1093 C1091 1.390 . S
C1093 C1094 1.387 . S
C1093 H1096 0.950 . S
C1094 C1093 1.387 . S
C1094 C1097 1.387 . S
H1095 C1091 0.950 . S
H1096 C1093 0.950 . S
C1097 C1088 1.390 . S
C1097 H1090 0.950 . S
C1097 C1094 1.387 . S
C1098 C1099 1.387 . S
C1098 H1102 0.950 . S
C1098 C1107 1.390 . S
C1099 C1098 1.387 . S
C1099 C1101 1.387 . S
H1100 C1107 0.950 . S
C1101 C1099 1.387 . S
C1101 C1103 1.390 . S
C1101 H1105 0.950 . S
H1102 C1098 0.950 . S
C1103 C1101 1.390 . S
C1103 C1104 1.387 . S
C1103 H1106 0.950 . S
C1104 C1103 1.387 . S
C1104 C1107 1.387 . S
H1105 C1101 0.950 . S
H1106 C1103 0.950 . S
C1107 C1098 1.390 . S
C1107 H1100 0.950 . S
C1107 C1104 1.387 . S
C1108 C1109 1.387 . S
C1108 H1112 0.950 . S
C1108 C1117 1.390 . S
C1109 C1108 1.387 . S
C1109 C1111 1.387 . S
H1110 C1117 0.950 . S
C1111 C1109 1.387 . S
C1111 C1113 1.390 . S
C1111 H1115 0.950 . S
H1112 C1108 0.950 . S
C1113 C1111 1.390 . S
C1113 C1114 1.387 . S
C1113 H1116 0.950 . S
C1114 C1113 1.387 . S
C1114 C1117 1.387 . S
H1115 C1111 0.950 . S
H1116 C1113 0.950 . S
C1117 C1108 1.390 . S
C1117 H1110 0.950 . S
C1117 C1114 1.387 . S
C1118 C1119 1.387 . S
C1118 H1122 0.950 . S
C1118 C1127 1.390 . S
C1119 C1118 1.387 . S
C1119 C1121 1.387 . S
H1120 C1127 0.950 . S
C1121 C1119 1.387 . S
C1121 C1123 1.390 . S
C1121 H1125 0.950 . S
H1122 C1118 0.950 . S
C1123 C1121 1.390 . S
C1123 C1124 1.387 . S
C1123 H1126 0.950 . S
C1124 C1123 1.387 . S
C1124 C1127 1.387 . S
H1125 C1121 0.950 . S
H1126 C1123 0.950 . S
C1127 C1118 1.390 . S
C1127 H1120 0.950 . S
C1127 C1124 1.387 . S
C1128 C1129 1.387 . S
C1128 H1132 0.950 . S
C1128 C1137 1.390 . S
C1129 C1128 1.387 . S
C1129 C1131 1.387 . S
H1130 C1137 0.950 . S
C1131 C1129 1.387 . S
C1131 C1133 1.390 . S
C1131 H1135 0.950 . S
H1132 C1128 0.950 . S
C1133 C1131 1.390 . S
C1133 C1134 1.387 . S
C1133 H1136 0.950 . S
C1134 C1133 1.387 . S
C1134 C1137 1.387 . S
H1135 C1131 0.950 . S
H1136 C1133 0.950 . S
C1137 C1128 1.390 . S
C1137 H1130 0.950 . S
C1137 C1134 1.387 . S
C1138 C1139 1.387 . S
C1138 H1142 0.950 . S
C1138 C1147 1.390 . S
C1139 C1138 1.387 . S
C1139 C1141 1.387 . S
H1140 C1147 0.950 . S
C1141 C1139 1.387 . S
C1141 C1143 1.390 . S
C1141 H1145 0.950 . S
H1142 C1138 0.950 . S
C1143 C1141 1.390 . S
C1143 C1144 1.387 . S
C1143 H1146 0.950 . S
C1144 C1143 1.387 . S
C1144 C1147 1.387 . S
H1145 C1141 0.950 . S
H1146 C1143 0.950 . S
C1147 C1138 1.390 . S
C1147 H1140 0.950 . S
C1147 C1144 1.387 . S
C1148 C1149 1.387 . S
C1148 H1152 0.950 . S
C1148 C1157 1.390 . S
C1149 C1148 1.387 . S
C1149 C1151 1.387 . S
H1150 C1157 0.950 . S
C1151 C1149 1.387 . S
C1151 C1153 1.390 . S
C1151 H1155 0.950 . S
H1152 C1148 0.950 . S
C1153 C1151 1.390 . S
C1153 C1154 1.387 . S
C1153 H1156 0.950 . S
C1154 C1153 1.387 . S
C1154 C1157 1.387 . S
H1155 C1151 0.950 . S
H1156 C1153 0.950 . S
C1157 C1148 1.390 . S
C1157 H1150 0.950 . S
C1157 C1154 1.387 . S
C1158 C1159 1.387 . S
C1158 H1162 0.950 . S
C1158 C1167 1.390 . S
C1159 C1158 1.387 . S
C1159 C1161 1.387 . S
H1160 C1167 0.950 . S
C1161 C1159 1.387 . S
C1161 C1163 1.390 . S
C1161 H1165 0.950 . S
H1162 C1158 0.950 . S
C1163 C1161 1.390 . S
C1163 C1164 1.387 . S
C1163 H1166 0.950 . S
C1164 C1163 1.387 . S
C1164 C1167 1.387 . S
H1165 C1161 0.950 . S
H1166 C1163 0.950 . S
C1167 C1158 1.390 . S
C1167 H1160 0.950 . S
C1167 C1164 1.387 . S
C1168 C1169 1.387 . S
C1168 H1172 0.950 . S
C1168 C1177 1.390 . S
C1169 C1168 1.387 . S
C1169 C1171 1.387 . S
H1170 C1177 0.950 . S
C1171 C1169 1.387 . S
C1171 C1173 1.390 . S
C1171 H1175 0.950 . S
H1172 C1168 0.950 . S
C1173 C1171 1.390 . S
C1173 C1174 1.387 . S
C1173 H1176 0.950 . S
C1174 C1173 1.387 . S
C1174 C1177 1.387 . S
H1175 C1171 0.950 . S
H1176 C1173 0.950 . S
C1177 C1168 1.390 . S
C1177 H1170 0.950 . S
C1177 C1174 1.387 . S
C1178 C1179 1.387 . S
C1178 H1182 0.950 . S
C1178 C1187 1.390 . S
C1179 C1178 1.387 . S
C1179 C1181 1.387 . S
H1180 C1187 0.950 1_545 S
C1181 C1179 1.387 . S
C1181 C1183 1.390 . S
C1181 H1185 0.950 . S
H1182 C1178 0.950 . S
C1183 C1181 1.390 . S
C1183 C1184 1.387 . S
C1183 H1186 0.950 . S
C1184 C1183 1.387 . S
C1184 C1187 1.387 . S
H1185 C1181 0.950 . S
H1186 C1183 0.950 . S
C1187 C1178 1.390 . S
C1187 H1180 0.950 1_565 S
C1187 C1184 1.387 . S
C1188 C1189 1.387 . S
C1188 H1192 0.950 . S
C1188 C1197 1.390 . S
C1189 C1188 1.387 . S
C1189 C1191 1.387 . S
H1190 C1197 0.950 . S
C1191 C1189 1.387 . S
C1191 C1193 1.390 . S
C1191 H1195 0.950 . S
H1192 C1188 0.950 . S
C1193 C1191 1.390 . S
C1193 C1194 1.387 . S
C1193 H1196 0.950 . S
C1194 C1193 1.387 . S
C1194 C1197 1.387 . S
H1195 C1191 0.950 . S
H1196 C1193 0.950 . S
C1197 C1188 1.390 . S
C1197 H1190 0.950 . S
C1197 C1194 1.387 . S
C1198 C1199 1.387 . S
C1198 H1202 0.950 . S
C1198 C1207 1.390 . S
C1199 C1198 1.387 . S
C1199 C1201 1.387 . S
H1200 C1207 0.950 . S
C1201 C1199 1.387 . S
C1201 C1203 1.390 . S
C1201 H1205 0.950 . S
H1202 C1198 0.950 . S
C1203 C1201 1.390 . S
C1203 C1204 1.387 . S
C1203 H1206 0.950 . S
C1204 C1203 1.387 . S
C1204 C1207 1.387 . S
H1205 C1201 0.950 . S
H1206 C1203 0.950 . S
C1207 C1198 1.390 . S
C1207 H1200 0.950 . S
C1207 C1204 1.387 . S
C1208 C1209 1.387 . S
C1208 H1212 0.950 . S
C1208 C1217 1.390 . S
C1209 C1208 1.387 . S
C1209 C1211 1.387 . S
H1210 C1217 0.950 . S
C1211 C1209 1.387 . S
C1211 C1213 1.390 . S
C1211 H1215 0.950 . S
H1212 C1208 0.950 . S
C1213 C1211 1.390 . S
C1213 C1214 1.387 . S
C1213 H1216 0.950 . S
C1214 C1213 1.387 . S
C1214 C1217 1.387 . S
H1215 C1211 0.950 . S
H1216 C1213 0.950 . S
C1217 C1208 1.390 . S
C1217 H1210 0.950 . S
C1217 C1214 1.387 . S
C1218 C1219 1.387 . S
C1218 H1222 0.950 . S
C1218 C1227 1.390 . S
C1219 C1218 1.387 . S
C1219 C1221 1.387 . S
H1220 C1227 0.950 . S
C1221 C1219 1.387 . S
C1221 C1223 1.390 . S
C1221 H1225 0.950 . S
H1222 C1218 0.950 . S
C1223 C1221 1.390 . S
C1223 C1224 1.387 . S
C1223 H1226 0.950 . S
C1224 C1223 1.387 . S
C1224 C1227 1.387 . S
H1225 C1221 0.950 . S
H1226 C1223 0.950 . S
C1227 C1218 1.390 . S
C1227 H1220 0.950 . S
C1227 C1224 1.387 . S
C1228 C1229 1.387 . S
C1228 H1232 0.950 . S
C1228 C1237 1.390 . S
C1229 C1228 1.387 . S
C1229 C1231 1.387 . S
H1230 C1237 0.950 . S
C1231 C1229 1.387 . S
C1231 C1233 1.390 . S
C1231 H1235 0.950 . S
H1232 C1228 0.950 . S
C1233 C1231 1.390 . S
C1233 C1234 1.387 . S
C1233 H1236 0.950 . S
C1234 C1233 1.387 . S
C1234 C1237 1.387 . S
H1235 C1231 0.950 . S
H1236 C1233 0.950 . S
C1237 C1228 1.390 . S
C1237 H1230 0.950 . S
C1237 C1234 1.387 . S
C1238 C1239 1.387 . S
C1238 H1242 0.950 . S
C1238 C1247 1.390 . S
C1239 C1238 1.387 . S
C1239 C1241 1.387 . S
H1240 C1247 0.950 . S
C1241 C1239 1.387 . S
C1241 C1243 1.390 . S
C1241 H1245 0.950 . S
H1242 C1238 0.950 . S
C1243 C1241 1.390 . S
C1243 C1244 1.387 . S
C1243 H1246 0.950 . S
C1244 C1243 1.387 . S
C1244 C1247 1.387 . S
H1245 C1241 0.950 . S
H1246 C1243 0.950 . S
C1247 C1238 1.390 . S
C1247 H1240 0.950 . S
C1247 C1244 1.387 . S
C1248 C1249 1.387 . S
C1248 H1252 0.950 . S
C1248 C1257 1.390 . S
C1249 C1248 1.387 . S
C1249 C1251 1.387 . S
H1250 C1257 0.950 . S
C1251 C1249 1.387 . S
C1251 C1253 1.390 . S
C1251 H1255 0.950 . S
H1252 C1248 0.950 . S
C1253 C1251 1.390 . S
C1253 C1254 1.387 . S
C1253 H1256 0.950 . S
C1254 C1253 1.387 . S
C1254 C1257 1.387 . S
H1255 C1251 0.950 . S
H1256 C1253 0.950 . S
C1257 C1248 1.390 . S
C1257 H1250 0.950 . S
C1257 C1254 1.387 . S
C1258 C1259 1.387 . S
C1258 H1262 0.950 . S
C1258 C1267 1.390 . S
C1259 C1258 1.387 . S
C1259 C1261 1.387 . S
H1260 C1267 0.950 . S
C1261 C1259 1.387 . S
C1261 C1263 1.390 . S
C1261 H1265 0.950 . S
H1262 C1258 0.950 . S
C1263 C1261 1.390 . S
C1263 C1264 1.387 . S
C1263 H1266 0.950 . S
C1264 C1263 1.387 . S
C1264 C1267 1.387 . S
H1265 C1261 0.950 . S
H1266 C1263 0.950 . S
C1267 C1258 1.390 . S
C1267 H1260 0.950 . S
C1267 C1264 1.387 . S
C1268 C1269 1.387 . S
C1268 H1272 0.950 . S
C1268 C1277 1.390 . S
C1269 C1268 1.387 . S
C1269 C1271 1.387 . S
H1270 C1277 0.950 . S
C1271 C1269 1.387 . S
C1271 C1273 1.390 . S
C1271 H1275 0.950 . S
H1272 C1268 0.950 . S
C1273 C1271 1.390 . S
C1273 C1274 1.387 . S
C1273 H1276 0.950 . S
C1274 C1273 1.387 . S
C1274 C1277 1.387 . S
H1275 C1271 0.950 . S
H1276 C1273 0.950 . S
C1277 C1268 1.390 . S
C1277 H1270 0.950 . S
C1277 C1274 1.387 . S
C1278 C1279 1.387 . S
C1278 H1282 0.950 . S
C1278 C1287 1.390 . S
C1279 C1278 1.387 . S
C1279 C1281 1.387 . S
H1280 C1287 0.950 . S
C1281 C1279 1.387 . S
C1281 C1283 1.390 . S
C1281 H1285 0.950 . S
H1282 C1278 0.950 . S
C1283 C1281 1.390 . S
C1283 C1284 1.387 . S
C1283 H1286 0.950 . S
C1284 C1283 1.387 . S
C1284 C1287 1.387 . S
H1285 C1281 0.950 . S
H1286 C1283 0.950 . S
C1287 C1278 1.390 . S
C1287 H1280 0.950 . S
C1287 C1284 1.387 . S
C1288 C1289 1.387 . S
C1288 H1292 0.950 . S
C1288 C1297 1.390 . S
C1289 C1288 1.387 . S
C1289 C1291 1.387 . S
H1290 C1297 0.950 . S
C1291 C1289 1.387 . S
C1291 C1293 1.390 . S
C1291 H1295 0.950 . S
H1292 C1288 0.950 . S
C1293 C1291 1.390 . S
C1293 C1294 1.387 . S
C1293 H1296 0.950 . S
C1294 C1293 1.387 . S
C1294 C1297 1.387 . S
H1295 C1291 0.950 . S
H1296 C1293 0.950 . S
C1297 C1288 1.390 . S
C1297 H1290 0.950 . S
C1297 C1294 1.387 . S
C1298 C1299 1.387 . S
C1298 H1302 0.950 . S
C1298 C1307 1.390 . S
C1299 C1298 1.387 . S
C1299 C1301 1.387 . S
H1300 C1307 0.950 . S
C1301 C1299 1.387 . S
C1301 C1303 1.390 . S
C1301 H1305 0.950 . S
H1302 C1298 0.950 . S
C1303 C1301 1.390 . S
C1303 C1304 1.387 . S
C1303 H1306 0.950 . S
C1304 C1303 1.387 . S
C1304 C1307 1.387 . S
H1305 C1301 0.950 . S
H1306 C1303 0.950 . S
C1307 C1298 1.390 . S
C1307 H1300 0.950 . S
C1307 C1304 1.387 . S
C1308 C1309 1.387 . S
C1308 H1312 0.950 . S
C1308 C1317 1.390 . S
C1309 C1308 1.387 . S
C1309 C1311 1.387 . S
H1310 C1317 0.950 . S
C1311 C1309 1.387 . S
C1311 C1313 1.390 . S
C1311 H1315 0.950 . S
H1312 C1308 0.950 . S
C1313 C1311 1.390 . S
C1313 C1314 1.387 . S
C1313 H1316 0.950 . S
C1314 C1313 1.387 . S
C1314 C1317 1.387 . S
H1315 C1311 0.950 . S
H1316 C1313 0.950 . S
C1317 C1308 1.390 . S
C1317 H1310 0.950 . S
C1317 C1314 1.387 . S
C1318 C1319 1.387 . S
C1318 H1322 0.950 . S
C1318 C1327 1.390 . S
C1319 C1318 1.387 . S
C1319 C1321 1.387 . S
H1320 C1327 0.950 . S
C1321 C1319 1.387 . S
C1321 C1323 1.390 . S
C1321 H1325 0.950 . S
H1322 C1318 0.950 . S
C1323 C1321 1.390 . S
C1323 C1324 1.387 . S
C1323 H1326 0.950 . S
C1324 C1323 1.387 . S
C1324 C1327 1.387 . S
H1325 C1321 0.950 . S
H1326 C1323 0.950 . S
C1327 C1318 1.390 . S
C1327 H1320 0.950 . S
C1327 C1324 1.387 . S
C1328 C1329 1.387 . S
C1328 H1332 0.950 . S
C1328 C1337 1.390 . S
C1329 C1328 1.387 . S
C1329 C1331 1.387 . S
H1330 C1337 0.950 . S
C1331 C1329 1.387 . S
C1331 C1333 1.390 . S
C1331 H1335 0.950 . S
H1332 C1328 0.950 . S
C1333 C1331 1.390 . S
C1333 C1334 1.387 . S
C1333 H1336 0.950 . S
C1334 C1333 1.387 . S
C1334 C1337 1.387 . S
H1335 C1331 0.950 . S
H1336 C1333 0.950 . S
C1337 C1328 1.390 . S
C1337 H1330 0.950 . S
C1337 C1334 1.387 . S
C1338 C1339 1.387 . S
C1338 H1342 0.950 . S
C1338 C1347 1.390 . S
C1339 C1338 1.387 . S
C1339 C1341 1.387 . S
H1340 C1347 0.950 . S
C1341 C1339 1.387 . S
C1341 C1343 1.390 . S
C1341 H1345 0.950 . S
H1342 C1338 0.950 . S
C1343 C1341 1.390 . S
C1343 C1344 1.387 . S
C1343 H1346 0.950 . S
C1344 C1343 1.387 . S
C1344 C1347 1.387 . S
H1345 C1341 0.950 . S
H1346 C1343 0.950 . S
C1347 C1338 1.390 . S
C1347 H1340 0.950 . S
C1347 C1344 1.387 . S
C1348 C1349 1.387 . S
C1348 H1352 0.950 . S
C1348 C1357 1.390 . S
C1349 C1348 1.387 . S
C1349 C1351 1.387 . S
H1350 C1357 0.950 . S
C1351 C1349 1.387 . S
C1351 C1353 1.390 . S
C1351 H1355 0.950 . S
H1352 C1348 0.950 . S
C1353 C1351 1.390 . S
C1353 C1354 1.387 . S
C1353 H1356 0.950 . S
C1354 C1353 1.387 . S
C1354 C1357 1.387 . S
H1355 C1351 0.950 . S
H1356 C1353 0.950 . S
C1357 C1348 1.390 . S
C1357 H1350 0.950 . S
C1357 C1354 1.387 . S
C1358 C1359 1.387 . S
C1358 H1362 0.950 . S
C1358 C1367 1.390 . S
C1359 C1358 1.387 . S
C1359 C1361 1.387 . S
H1360 C1367 0.950 . S
C1361 C1359 1.387 . S
C1361 C1363 1.390 . S
C1361 H1365 0.950 . S
H1362 C1358 0.950 . S
C1363 C1361 1.390 . S
C1363 C1364 1.387 . S
C1363 H1366 0.950 . S
C1364 C1363 1.387 . S
C1364 C1367 1.387 . S
H1365 C1361 0.950 . S
H1366 C1363 0.950 . S
C1367 C1358 1.390 . S
C1367 H1360 0.950 . S
C1367 C1364 1.387 . S
C1368 C1369 1.387 . S
C1368 H1372 0.950 . S
C1368 C1377 1.390 . S
C1369 C1368 1.387 . S
C1369 C1371 1.387 . S
H1370 C1377 0.950 . S
C1371 C1369 1.387 . S
C1371 C1373 1.390 . S
C1371 H1375 0.950 . S
H1372 C1368 0.950 . S
C1373 C1371 1.390 . S
C1373 C1374 1.387 . S
C1373 H1376 0.950 . S
C1374 C1373 1.387 . S
C1374 C1377 1.387 . S
H1375 C1371 0.950 . S
H1376 C1373 0.950 . S
C1377 C1368 1.390 . S
C1377 H1370 0.950 . S
C1377 C1374 1.387 . S
C1378 C1379 1.387 . S
C1378 H1382 0.950 . S
C1378 C1387 1.390 . S
C1379 C1378 1.387 . S
C1379 C1381 1.387 . S
H1380 C1387 0.950 . S
C1381 C1379 1.387 . S
C1381 C1383 1.390 . S
C1381 H1385 0.950 . S
H1382 C1378 0.950 . S
C1383 C1381 1.390 . S
C1383 C1384 1.387 . S
C1383 H1386 0.950 . S
C1384 C1383 1.387 . S
C1384 C1387 1.387 . S
H1385 C1381 0.950 . S
H1386 C1383 0.950 . S
C1387 C1378 1.390 . S
C1387 H1380 0.950 . S
C1387 C1384 1.387 . S
C1388 C1389 1.387 . S
C1388 H1392 0.950 . S
C1388 C1397 1.390 . S
C1389 C1388 1.387 . S
C1389 C1391 1.387 . S
H1390 C1397 0.950 . S
C1391 C1389 1.387 . S
C1391 C1393 1.390 . S
C1391 H1395 0.950 . S
H1392 C1388 0.950 . S
C1393 C1391 1.390 . S
C1393 C1394 1.387 . S
C1393 H1396 0.950 . S
C1394 C1393 1.387 . S
C1394 C1397 1.387 . S
H1395 C1391 0.950 . S
H1396 C1393 0.950 . S
C1397 C1388 1.390 . S
C1397 H1390 0.950 . S
C1397 C1394 1.387 . S
C1398 C1399 1.387 . S
C1398 H1402 0.950 . S
C1398 C1407 1.390 . S
C1399 C1398 1.387 . S
C1399 C1401 1.387 . S
H1400 C1407 0.950 . S
C1401 C1399 1.387 . S
C1401 C1403 1.390 . S
C1401 H1405 0.950 . S
H1402 C1398 0.950 . S
C1403 C1401 1.390 . S
C1403 C1404 1.387 . S
C1403 H1406 0.950 . S
C1404 C1403 1.387 . S
C1404 C1407 1.387 . S
H1405 C1401 0.950 . S
H1406 C1403 0.950 . S
C1407 C1398 1.390 . S
C1407 H1400 0.950 . S
C1407 C1404 1.387 . S
C1408 C1409 1.387 . S
C1408 H1412 0.950 . S
C1408 C1417 1.390 . S
C1409 C1408 1.387 . S
C1409 C1411 1.387 . S
H1410 C1417 0.950 . S
C1411 C1409 1.387 . S
C1411 C1413 1.390 . S
C1411 H1415 0.950 . S
H1412 C1408 0.950 . S
C1413 C1411 1.390 . S
C1413 C1414 1.387 . S
C1413 H1416 0.950 . S
C1414 C1413 1.387 . S
C1414 C1417 1.387 . S
H1415 C1411 0.950 . S
H1416 C1413 0.950 . S
C1417 C1408 1.390 . S
C1417 H1410 0.950 . S
C1417 C1414 1.387 . S
C1418 C1419 1.387 . S
C1418 H1422 0.950 . S
C1418 C1427 1.390 . S
C1419 C1418 1.387 . S
C1419 C1421 1.387 . S
H1420 C1427 0.950 . S
C1421 C1419 1.387 . S
C1421 C1423 1.390 . S
C1421 H1425 0.950 . S
H1422 C1418 0.950 . S
C1423 C1421 1.390 . S
C1423 C1424 1.387 . S
C1423 H1426 0.950 . S
C1424 C1423 1.387 . S
C1424 C1427 1.387 . S
H1425 C1421 0.950 . S
H1426 C1423 0.950 . S
C1427 C1418 1.390 . S
C1427 H1420 0.950 . S
C1427 C1424 1.387 . S
C1428 C1429 1.387 . S
C1428 H1432 0.950 . S
C1428 C1437 1.390 . S
C1429 C1428 1.387 . S
C1429 C1431 1.387 . S
H1430 C1437 0.950 . S
C1431 C1429 1.387 . S
C1431 C1433 1.390 . S
C1431 H1435 0.950 . S
H1432 C1428 0.950 . S
C1433 C1431 1.390 . S
C1433 C1434 1.387 . S
C1433 H1436 0.950 . S
C1434 C1433 1.387 . S
C1434 C1437 1.387 . S
H1435 C1431 0.950 . S
H1436 C1433 0.950 . S
C1437 C1428 1.390 . S
C1437 H1430 0.950 . S
C1437 C1434 1.387 . S
C1438 C1439 1.387 . S
C1438 H1442 0.950 . S
C1438 C1447 1.390 . S
C1439 C1438 1.387 . S
C1439 C1441 1.387 . S
H1440 C1447 0.950 . S
C1441 C1439 1.387 . S
C1441 C1443 1.390 . S
C1441 H1445 0.950 . S
H1442 C1438 0.950 . S
C1443 C1441 1.390 . S
C1443 C1444 1.387 . S
C1443 H1446 0.950 . S
C1444 C1443 1.387 . S
C1444 C1447 1.387 . S
H1445 C1441 0.950 . S
H1446 C1443 0.950 . S
C1447 C1438 1.390 . S
C1447 H1440 0.950 . S
C1447 C1444 1.387 . S
C1448 C1449 1.387 . S
C1448 H1452 0.950 . S
C1448 C1457 1.390 . S
C1449 C1448 1.387 . S
C1449 C1451 1.387 . S
H1450 C1457 0.950 . S
C1451 C1449 1.387 . S
C1451 C1453 1.390 . S
C1451 H1455 0.950 . S
H1452 C1448 0.950 . S
C1453 C1451 1.390 . S
C1453 C1454 1.387 . S
C1453 H1456 0.950 . S
C1454 C1453 1.387 . S
C1454 C1457 1.387 . S
H1455 C1451 0.950 . S
H1456 C1453 0.950 . S
C1457 C1448 1.390 . S
C1457 H1450 0.950 . S
C1457 C1454 1.387 . S
C1458 C1459 1.387 . S
C1458 H1462 0.950 . S
C1458 C1467 1.390 . S
C1459 C1458 1.387 . S
C1459 C1461 1.387 . S
H1460 C1467 0.950 . S
C1461 C1459 1.387 . S
C1461 C1463 1.390 . S
C1461 H1465 0.950 . S
H1462 C1458 0.950 . S
C1463 C1461 1.390 . S
C1463 C1464 1.387 . S
C1463 H1466 0.950 . S
C1464 C1463 1.387 . S
C1464 C1467 1.387 . S
H1465 C1461 0.950 . S
H1466 C1463 0.950 . S
C1467 C1458 1.390 . S
C1467 H1460 0.950 . S
C1467 C1464 1.387 . S
C1468 C1469 1.387 . S
C1468 H1472 0.950 . S
C1468 C1477 1.390 . S
C1469 C1468 1.387 . S
C1469 C1471 1.387 . S
H1470 C1477 0.950 . S
C1471 C1469 1.387 . S
C1471 C1473 1.390 . S
C1471 H1475 0.950 . S
H1472 C1468 0.950 . S
C1473 C1471 1.390 . S
C1473 C1474 1.387 . S
C1473 H1476 0.950 . S
C1474 C1473 1.387 . S
C1474 C1477 1.387 . S
H1475 C1471 0.950 . S
H1476 C1473 0.950 . S
C1477 C1468 1.390 . S
C1477 H1470 0.950 . S
C1477 C1474 1.387 . S
C1478 C1479 1.387 . S
C1478 H1482 0.950 . S
C1478 C1487 1.390 . S
C1479 C1478 1.387 . S
C1479 C1481 1.387 . S
H1480 C1487 0.950 . S
C1481 C1479 1.387 . S
C1481 C1483 1.390 . S
C1481 H1485 0.950 . S
H1482 C1478 0.950 . S
C1483 C1481 1.390 . S
C1483 C1484 1.387 . S
C1483 H1486 0.950 . S
C1484 C1483 1.387 . S
C1484 C1487 1.387 . S
H1485 C1481 0.950 . S
H1486 C1483 0.950 . S
C1487 C1478 1.390 . S
C1487 H1480 0.950 . S
C1487 C1484 1.387 . S
C1488 C1489 1.387 . S
C1488 H1492 0.950 . S
C1488 C1497 1.390 . S
C1489 C1488 1.387 . S
C1489 C1491 1.387 . S
H1490 C1497 0.950 . S
C1491 C1489 1.387 . S
C1491 C1493 1.390 . S
C1491 H1495 0.950 . S
H1492 C1488 0.950 . S
C1493 C1491 1.390 . S
C1493 C1494 1.387 . S
C1493 H1496 0.950 . S
C1494 C1493 1.387 . S
C1494 C1497 1.387 . S
H1495 C1491 0.950 . S
H1496 C1493 0.950 . S
C1497 C1488 1.390 . S
C1497 H1490 0.950 . S
C1497 C1494 1.387 . S
C1498 C1499 1.387 . S
C1498 H1502 0.950 . S
C1498 C1507 1.390 . S
C1499 C1498 1.387 . S
C1499 C1501 1.387 . S
H1500 C1507 0.950 . S
C1501 C1499 1.387 . S
C1501 C1503 1.390 . S
C1501 H1505 0.950 . S
H1502 C1498 0.950 . S
C1503 C1501 1.390 . S
C1503 C1504 1.387 . S
C1503 H1506 0.950 . S
C1504 C1503 1.387 . S
C1504 C1507 1.387 . S
H1505 C1501 0.950 . S
H1506 C1503 0.950 . S
C1507 C1498 1.390 . S
C1507 H1500 0.950 . S
C1507 C1504 1.387 . S
C1508 C1509 1.387 . S
C1508 H1512 0.950 . S
C1508 C1517 1.390 . S
C1509 C1508 1.387 . S
C1509 C1511 1.387 . S
H1510 C1517 0.950 . S
C1511 C1509 1.387 . S
C1511 C1513 1.390 . S
C1511 H1515 0.950 . S
H1512 C1508 0.950 . S
C1513 C1511 1.390 . S
C1513 C1514 1.387 . S
C1513 H1516 0.950 . S
C1514 C1513 1.387 . S
C1514 C1517 1.387 . S
H1515 C1511 0.950 . S
H1516 C1513 0.950 . S
C1517 C1508 1.390 . S
C1517 H1510 0.950 . S
C1517 C1514 1.387 . S
C1518 C1519 1.387 . S
C1518 H1522 0.950 . S
C1518 C1527 1.390 . S
C1519 C1518 1.387 . S
C1519 C1521 1.387 . S
H1520 C1527 0.950 . S
C1521 C1519 1.387 . S
C1521 C1523 1.390 . S
C1521 H1525 0.950 . S
H1522 C1518 0.950 . S
C1523 C1521 1.390 . S
C1523 C1524 1.387 . S
C1523 H1526 0.950 . S
C1524 C1523 1.387 . S
C1524 C1527 1.387 . S
H1525 C1521 0.950 . S
H1526 C1523 0.950 . S
C1527 C1518 1.390 . S
C1527 H1520 0.950 . S
C1527 C1524 1.387 . S
C1528 C1529 1.387 . S
C1528 H1532 0.950 . S
C1528 C1537 1.390 . S
C1529 C1528 1.387 . S
C1529 C1531 1.387 . S
H1530 C1537 0.950 . S
C1531 C1529 1.387 . S
C1531 C1533 1.390 . S
C1531 H1535 0.950 . S
H1532 C1528 0.950 . S
C1533 C1531 1.390 . S
C1533 C1534 1.387 . S
C1533 H1536 0.950 . S
C1534 C1533 1.387 . S
C1534 C1537 1.387 . S
H1535 C1531 0.950 . S
H1536 C1533 0.950 . S
C1537 C1528 1.390 . S
C1537 H1530 0.950 . S
C1537 C1534 1.387 . S
C1538 C1539 1.387 . S
C1538 H1542 0.950 . S
C1538 C1547 1.390 . S
C1539 C1538 1.387 . S
C1539 C1541 1.387 . S
H1540 C1547 0.950 . S
C1541 C1539 1.387 . S
C1541 C1543 1.390 . S
C1541 H1545 0.950 . S
H1542 C1538 0.950 . S
C1543 C1541 1.390 . S
C1543 C1544 1.387 . S
C1543 H1546 0.950 . S
C1544 C1543 1.387 . S
C1544 C1547 1.387 . S
H1545 C1541 0.950 . S
H1546 C1543 0.950 . S
C1547 C1538 1.390 . S
C1547 H1540 0.950 . S
C1547 C1544 1.387 . S
C1548 C1549 1.387 . S
C1548 H1552 0.950 . S
C1548 C1557 1.390 . S
C1549 C1548 1.387 . S
C1549 C1551 1.387 . S
H1550 C1557 0.950 . S
C1551 C1549 1.387 . S
C1551 C1553 1.390 . S
C1551 H1555 0.950 . S
H1552 C1548 0.950 . S
C1553 C1551 1.390 . S
C1553 C1554 1.387 . S
C1553 H1556 0.950 . S
C1554 C1553 1.387 . S
C1554 C1557 1.387 . S
H1555 C1551 0.950 . S
H1556 C1553 0.950 . S
C1557 C1548 1.390 . S
C1557 H1550 0.950 . S
C1557 C1554 1.387 . S
C1558 C1559 1.387 . S
C1558 H1562 0.950 . S
C1558 C1567 1.390 . S
C1559 C1558 1.387 . S
C1559 C1561 1.387 . S
H1560 C1567 0.950 . S
C1561 C1559 1.387 . S
C1561 C1563 1.390 . S
C1561 H1565 0.950 . S
H1562 C1558 0.950 . S
C1563 C1561 1.390 . S
C1563 C1564 1.387 . S
C1563 H1566 0.950 . S
C1564 C1563 1.387 . S
C1564 C1567 1.387 . S
H1565 C1561 0.950 . S
H1566 C1563 0.950 . S
C1567 C1558 1.390 . S
C1567 H1560 0.950 . S
C1567 C1564 1.387 . S
C1568 C1569 1.387 . S
C1568 H1572 0.950 . S
C1568 C1577 1.390 . S
C1569 C1568 1.387 . S
C1569 C1571 1.387 . S
H1570 C1577 0.950 . S
C1571 C1569 1.387 . S
C1571 C1573 1.390 . S
C1571 H1575 0.950 . S
H1572 C1568 0.950 . S
C1573 C1571 1.390 . S
C1573 C1574 1.387 . S
C1573 H1576 0.950 . S
C1574 C1573 1.387 . S
C1574 C1577 1.387 . S
H1575 C1571 0.950 . S
H1576 C1573 0.950 . S
C1577 C1568 1.390 . S
C1577 H1570 0.950 . S
C1577 C1574 1.387 . S
C1578 C1579 1.387 . S
C1578 H1582 0.950 . S
C1578 C1587 1.390 . S
C1579 C1578 1.387 . S
C1579 C1581 1.387 . S
H1580 C1587 0.950 . S
C1581 C1579 1.387 . S
C1581 C1583 1.390 . S
C1581 H1585 0.950 . S
H1582 C1578 0.950 . S
C1583 C1581 1.390 . S
C1583 C1584 1.387 . S
C1583 H1586 0.950 . S
C1584 C1583 1.387 . S
C1584 C1587 1.387 . S
H1585 C1581 0.950 . S
H1586 C1583 0.950 . S
C1587 C1578 1.390 . S
C1587 H1580 0.950 . S
C1587 C1584 1.387 . S
C1588 C1589 1.387 . S
C1588 H1592 0.950 . S
C1588 C1597 1.390 . S
C1589 C1588 1.387 . S
C1589 C1591 1.387 . S
H1590 C1597 0.950 . S
C1591 C1589 1.387 . S
C1591 C1593 1.390 . S
C1591 H1595 0.950 . S
H1592 C1588 0.950 . S
C1593 C1591 1.390 . S
C1593 C1594 1.387 . S
C1593 H1596 0.950 . S
C1594 C1593 1.387 . S
C1594 C1597 1.387 . S
H1595 C1591 0.950 . S
H1596 C1593 0.950 . S
C1597 C1588 1.390 . S
C1597 H1590 0.950 . S
C1597 C1594 1.387 . S
C1598 C1599 1.387 . S
C1598 H1602 0.950 . S
C1598 C1607 1.390 . S
C1599 C1598 1.387 . S
C1599 C1601 1.387 . S
H1600 C1607 0.950 . S
C1601 C1599 1.387 . S
C1601 C1603 1.390 . S
C1601 H1605 0.950 . S
H1602 C1598 0.950 . S
C1603 C1601 1.390 . S
C1603 C1604 1.387 . S
C1603 H1606 0.950 . S
C1604 C1603 1.387 . S
C1604 C1607 1.387 . S
H1605 C1601 0.950 . S
H1606 C1603 0.950 . S
C1607 C1598 1.390 . S
C1607 H1600 0.950 . S
C1607 C1604 1.387 . S
C1608 C1609 1.387 . S
C1608 H1612 0.950 . S
C1608 C1617 1.390 . S
C1609 C1608 1.387 . S
C1609 C1611 1.387 . S
H1610 C1617 0.950 . S
C1611 C1609 1.387 . S
C1611 C1613 1.390 . S
C1611 H1615 0.950 . S
H1612 C1608 0.950 . S
C1613 C1611 1.390 . S
C1613 C1614 1.387 . S
C1613 H1616 0.950 . S
C1614 C1613 1.387 . S
C1614 C1617 1.387 . S
H1615 C1611 0.950 . S
H1616 C1613 0.950 . S
C1617 C1608 1.390 . S
C1617 H1610 0.950 . S
C1617 C1614 1.387 . S
C1618 C1619 1.387 . S
C1618 H1622 0.950 . S
C1618 C1627 1.390 . S
C1619 C1618 1.387 . S
C1619 C1621 1.387 . S
H1620 C1627 0.950 . S
C1621 C1619 1.387 . S
C1621 C1623 1.390 . S
C1621 H1625 0.950 . S
H1622 C1618 0.950 . S
C1623 C1621 1.390 . S
C1623 C1624 1.387 . S
C1623 H1626 0.950 . S
C1624 C1623 1.387 . S
C1624 C1627 1.387 . S
H1625 C1621 0.950 . S
H1626 C1623 0.950 . S
C1627 C1618 1.390 . S
C1627 H1620 0.950 . S
C1627 C1624 1.387 . S
C1628 C1629 1.387 . S
C1628 H1632 0.950 . S
C1628 C1637 1.390 . S
C1629 C1628 1.387 . S
C1629 C1631 1.387 . S
H1630 C1637 0.950 . S
C1631 C1629 1.387 . S
C1631 C1633 1.390 . S
C1631 H1635 0.950 . S
H1632 C1628 0.950 . S
C1633 C1631 1.390 . S
C1633 C1634 1.387 . S
C1633 H1636 0.950 . S
C1634 C1633 1.387 . S
C1634 C1637 1.387 . S
H1635 C1631 0.950 . S
H1636 C1633 0.950 . S
C1637 C1628 1.390 . S
C1637 H1630 0.950 . S
C1637 C1634 1.387 . S
C1638 C1639 1.387 . S
C1638 H1642 0.950 . S
C1638 C1647 1.390 . S
C1639 C1638 1.387 . S
C1639 C1641 1.387 . S
H1640 C1647 0.950 . S
C1641 C1639 1.387 . S
C1641 C1643 1.390 . S
C1641 H1645 0.950 . S
H1642 C1638 0.950 . S
C1643 C1641 1.390 . S
C1643 C1644 1.387 . S
C1643 H1646 0.950 . S
C1644 C1643 1.387 . S
C1644 C1647 1.387 . S
H1645 C1641 0.950 . S
H1646 C1643 0.950 . S
C1647 C1638 1.390 . S
C1647 H1640 0.950 . S
C1647 C1644 1.387 . S
C1648 C1649 1.387 . S
C1648 H1652 0.950 . S
C1648 C1657 1.390 . S
C1649 C1648 1.387 . S
C1649 C1651 1.387 . S
H1650 C1657 0.950 . S
C1651 C1649 1.387 . S
C1651 C1653 1.390 . S
C1651 H1655 0.950 . S
H1652 C1648 0.950 . S
C1653 C1651 1.390 . S
C1653 C1654 1.387 . S
C1653 H1656 0.950 . S
C1654 C1653 1.387 . S
C1654 C1657 1.387 . S
H1655 C1651 0.950 . S
H1656 C1653 0.950 . S
C1657 C1648 1.390 . S
C1657 H1650 0.950 . S
C1657 C1654 1.387 . S
C1658 C1659 1.387 . S
C1658 H1662 0.950 . S
C1658 C1667 1.390 1_565 S
C1659 C1658 1.387 . S
C1659 C1661 1.387 . S
H1660 C1667 0.950 . S
C1661 C1659 1.387 . S
C1661 C1663 1.390 . S
C1661 H1665 0.950 . S
H1662 C1658 0.950 . S
C1663 C1661 1.390 . S
C1663 C1664 1.387 1_565 S
C1663 H1666 0.950 . S
C1664 C1663 1.387 1_545 S
C1664 C1667 1.387 . S
H1665 C1661 0.950 . S
H1666 C1663 0.950 . S
C1667 C1658 1.390 1_545 S
C1667 H1660 0.950 . S
C1667 C1664 1.387 . S
C1668 C1669 1.387 . S
C1668 H1672 0.950 . S
C1668 C1677 1.390 . S
C1669 C1668 1.387 . S
C1669 C1671 1.387 . S
H1670 C1677 0.950 . S
C1671 C1669 1.387 . S
C1671 C1673 1.390 . S
C1671 H1675 0.950 . S
H1672 C1668 0.950 . S
C1673 C1671 1.390 . S
C1673 C1674 1.387 . S
C1673 H1676 0.950 . S
C1674 C1673 1.387 . S
C1674 C1677 1.387 . S
H1675 C1671 0.950 . S
H1676 C1673 0.950 . S
C1677 C1668 1.390 . S
C1677 H1670 0.950 . S
C1677 C1674 1.387 . S
C1678 C1679 1.387 . S
C1678 H1682 0.950 . S
C1678 C1687 1.390 . S
C1679 C1678 1.387 . S
C1679 C1681 1.387 . S
H1680 C1687 0.950 . S
C1681 C1679 1.387 . S
C1681 C1683 1.390 . S
C1681 H1685 0.950 . S
H1682 C1678 0.950 . S
C1683 C1681 1.390 . S
C1683 C1684 1.387 . S
C1683 H1686 0.950 . S
C1684 C1683 1.387 . S
C1684 C1687 1.387 . S
H1685 C1681 0.950 . S
H1686 C1683 0.950 . S
C1687 C1678 1.390 . S
C1687 H1680 0.950 . S
C1687 C1684 1.387 . S
C1688 C1689 1.387 . S
C1688 H1692 0.950 . S
C1688 C1697 1.390 . S
C1689 C1688 1.387 . S
C1689 C1691 1.387 . S
H1690 C1697 0.950 . S
C1691 C1689 1.387 . S
C1691 C1693 1.390 . S
C1691 H1695 0.950 . S
H1692 C1688 0.950 . S
C1693 C1691 1.390 . S
C1693 C1694 1.387 . S
C1693 H1696 0.950 . S
C1694 C1693 1.387 . S
C1694 C1697 1.387 . S
H1695 C1691 0.950 . S
H1696 C1693 0.950 . S
C1697 C1688 1.390 . S
C1697 H1690 0.950 . S
C1697 C1694 1.387 . S
C1698 C1699 1.387 . S
C1698 H1702 0.950 . S
C1698 C1707 1.390 . S
C1699 C1698 1.387 . S
C1699 C1701 1.387 . S
H1700 C1707 0.950 . S
C1701 C1699 1.387 . S
C1701 C1703 1.390 . S
C1701 H1705 0.950 . S
H1702 C1698 0.950 . S
C1703 C1701 1.390 . S
C1703 C1704 1.387 . S
C1703 H1706 0.950 . S
C1704 C1703 1.387 . S
C1704 C1707 1.387 . S
H1705 C1701 0.950 . S
H1706 C1703 0.950 . S
C1707 C1698 1.390 . S
C1707 H1700 0.950 . S
C1707 C1704 1.387 . S
C1708 C1709 1.387 . S
C1708 H1712 0.950 . S
C1708 C1717 1.390 . S
C1709 C1708 1.387 . S
C1709 C1711 1.387 . S
H1710 C1717 0.950 . S
C1711 C1709 1.387 . S
C1711 C1713 1.390 . S
C1711 H1715 0.950 . S
H1712 C1708 0.950 . S
C1713 C1711 1.390 . S
C1713 C1714 1.387 . S
C1713 H1716 0.950 . S
C1714 C1713 1.387 . S
C1714 C1717 1.387 . S
H1715 C1711 0.950 . S
H1716 C1713 0.950 . S
C1717 C1708 1.390 . S
C1717 H1710 0.950 . S
C1717 C1714 1.387 . S
C1718 C1719 1.387 . S
C1718 H1722 0.950 . S
C1718 C1727 1.390 . S
C1719 C1718 1.387 . S
C1719 C1721 1.387 . S
H1720 C1727 0.950 . S
C1721 C1719 1.387 . S
C1721 C1723 1.390 . S
C1721 H1725 0.950 . S
H1722 C1718 0.950 . S
C1723 C1721 1.390 . S
C1723 C1724 1.387 . S
C1723 H1726 0.950 . S
C1724 C1723 1.387 . S
C1724 C1727 1.387 . S
H1725 C1721 0.950 . S
H1726 C1723 0.950 . S
C1727 C1718 1.390 . S
C1727 H1720 0.950 . S
C1727 C1724 1.387 . S
C1728 C1729 1.387 . S
C1728 H1732 0.950 . S
C1728 C1737 1.390 . S
C1729 C1728 1.387 . S
C1729 C1731 1.387 . S
H1730 C1737 0.950 . S
C1731 C1729 1.387 . S
C1731 C1733 1.390 . S
C1731 H1735 0.950 . S
H1732 C1728 0.950 . S
C1733 C1731 1.390 . S
C1733 C1734 1.387 . S
C1733 H1736 0.950 . S
C1734 C1733 1.387 . S
C1734 C1737 1.387 . S
H1735 C1731 0.950 . S
H1736 C1733 0.950 . S
C1737 C1728 1.390 . S
C1737 H1730 0.950 . S
C1737 C1734 1.387 . S
C1738 C1739 1.387 . S
C1738 H1742 0.950 . S
C1738 C1747 1.390 . S
C1739 C1738 1.387 . S
C1739 C1741 1.387 . S
H1740 C1747 0.950 . S
C1741 C1739 1.387 . S
C1741 C1743 1.390 . S
C1741 H1745 0.950 . S
H1742 C1738 0.950 . S
C1743 C1741 1.390 . S
C1743 C1744 1.387 . S
C1743 H1746 0.950 . S
C1744 C1743 1.387 . S
C1744 C1747 1.387 . S
H1745 C1741 0.950 . S
H1746 C1743 0.950 . S
C1747 C1738 1.390 . S
C1747 H1740 0.950 . S
C1747 C1744 1.387 . S
C1748 C1749 1.387 . S
C1748 H1752 0.950 . S
C1748 C1757 1.390 . S
C1749 C1748 1.387 . S
C1749 C1751 1.387 . S
H1750 C1757 0.950 . S
C1751 C1749 1.387 . S
C1751 C1753 1.390 . S
C1751 H1755 0.950 . S
H1752 C1748 0.950 . S
C1753 C1751 1.390 . S
C1753 C1754 1.387 . S
C1753 H1756 0.950 . S
C1754 C1753 1.387 . S
C1754 C1757 1.387 . S
H1755 C1751 0.950 . S
H1756 C1753 0.950 . S
C1757 C1748 1.390 . S
C1757 H1750 0.950 . S
C1757 C1754 1.387 . S
C1758 C1759 1.387 . S
C1758 H1762 0.950 . S
C1758 C1767 1.390 . S
C1759 C1758 1.387 . S
C1759 C1761 1.387 . S
H1760 C1767 0.950 . S
C1761 C1759 1.387 . S
C1761 C1763 1.390 . S
C1761 H1765 0.950 . S
H1762 C1758 0.950 . S
C1763 C1761 1.390 . S
C1763 C1764 1.387 . S
C1763 H1766 0.950 . S
C1764 C1763 1.387 . S
C1764 C1767 1.387 . S
H1765 C1761 0.950 . S
H1766 C1763 0.950 . S
C1767 C1758 1.390 . S
C1767 H1760 0.950 . S
C1767 C1764 1.387 . S
C1768 C1769 1.387 . S
C1768 H1772 0.950 . S
C1768 C1777 1.390 . S
C1769 C1768 1.387 . S
C1769 C1771 1.387 . S
H1770 C1777 0.950 . S
C1771 C1769 1.387 . S
C1771 C1773 1.390 . S
C1771 H1775 0.950 . S
H1772 C1768 0.950 . S
C1773 C1771 1.390 . S
C1773 C1774 1.387 . S
C1773 H1776 0.950 . S
C1774 C1773 1.387 . S
C1774 C1777 1.387 . S
H1775 C1771 0.950 . S
H1776 C1773 0.950 . S
C1777 C1768 1.390 . S
C1777 H1770 0.950 . S
C1777 C1774 1.387 . S
C1778 C1779 1.387 . S
C1778 H1782 0.950 . S
C1778 C1787 1.390 . S
C1779 C1778 1.387 . S
C1779 C1781 1.387 . S
H1780 C1787 0.950 . S
C1781 C1779 1.387 . S
C1781 C1783 1.390 . S
C1781 H1785 0.950 . S
H1782 C1778 0.950 . S
C1783 C1781 1.390 . S
C1783 C1784 1.387 . S
C1783 H1786 0.950 . S
C1784 C1783 1.387 . S
C1784 C1787 1.387 . S
H1785 C1781 0.950 . S
H1786 C1783 0.950 . S
C1787 C1778 1.390 . S
C1787 H1780 0.950 . S
C1787 C1784 1.387 . S
C1788 C1789 1.387 . S
C1788 H1792 0.950 . S
C1788 C1797 1.390 . S
C1789 C1788 1.387 . S
C1789 C1791 1.387 . S
H1790 C1797 0.950 . S
C1791 C1789 1.387 . S
C1791 C1793 1.390 . S
C1791 H1795 0.950 . S
H1792 C1788 0.950 . S
C1793 C1791 1.390 . S
C1793 C1794 1.387 . S
C1793 H1796 0.950 . S
C1794 C1793 1.387 . S
C1794 C1797 1.387 . S
H1795 C1791 0.950 . S
H1796 C1793 0.950 . S
C1797 C1788 1.390 . S
C1797 H1790 0.950 . S
C1797 C1794 1.387 . S
C1798 C1799 1.387 . S
C1798 H1802 0.950 . S
C1798 C1807 1.390 . S
C1799 C1798 1.387 . S
C1799 C1801 1.387 . S
H1800 C1807 0.950 . S
C1801 C1799 1.387 . S
C1801 C1803 1.390 . S
C1801 H1805 0.950 . S
H1802 C1798 0.950 . S
C1803 C1801 1.390 . S
C1803 C1804 1.387 . S
C1803 H1806 0.950 . S
C1804 C1803 1.387 . S
C1804 C1807 1.387 . S
H1805 C1801 0.950 . S
H1806 C1803 0.950 . S
C1807 C1798 1.390 . S
C1807 H1800 0.950 . S
C1807 C1804 1.387 . S
C1808 C1809 1.387 . S
C1808 H1812 0.950 . S
C1808 C1817 1.390 . S
C1809 C1808 1.387 . S
C1809 C1811 1.387 . S
H1810 C1817 0.950 . S
C1811 C1809 1.387 . S
C1811 C1813 1.390 . S
C1811 H1815 0.950 . S
H1812 C1808 0.950 . S
C1813 C1811 1.390 . S
C1813 C1814 1.387 . S
C1813 H1816 0.950 . S
C1814 C1813 1.387 . S
C1814 C1817 1.387 . S
H1815 C1811 0.950 . S
H1816 C1813 0.950 . S
C1817 C1808 1.390 . S
C1817 H1810 0.950 . S
C1817 C1814 1.387 . S
C1818 C1819 1.387 . S
C1818 H1822 0.950 . S
C1818 C1827 1.390 . S
C1819 C1818 1.387 . S
C1819 C1821 1.387 . S
H1820 C1827 0.950 . S
C1821 C1819 1.387 . S
C1821 C1823 1.390 . S
C1821 H1825 0.950 . S
H1822 C1818 0.950 . S
C1823 C1821 1.390 . S
C1823 C1824 1.387 . S
C1823 H1826 0.950 . S
C1824 C1823 1.387 . S
C1824 C1827 1.387 . S
H1825 C1821 0.950 . S
H1826 C1823 0.950 . S
C1827 C1818 1.390 . S
C1827 H1820 0.950 . S
C1827 C1824 1.387 . S
C1828 C1829 1.387 . S
C1828 H1832 0.950 . S
C1828 C1837 1.390 . S
C1829 C1828 1.387 . S
C1829 C1831 1.387 . S
H1830 C1837 0.950 . S
C1831 C1829 1.387 . S
C1831 C1833 1.390 . S
C1831 H1835 0.950 . S
H1832 C1828 0.950 . S
C1833 C1831 1.390 . S
C1833 C1834 1.387 . S
C1833 H1836 0.950 . S
C1834 C1833 1.387 . S
C1834 C1837 1.387 . S
H1835 C1831 0.950 . S
H1836 C1833 0.950 . S
C1837 C1828 1.390 . S
C1837 H1830 0.950 . S
C1837 C1834 1.387 . S
C1838 C1839 1.387 . S
C1838 H1842 0.950 . S
C1838 C1847 1.390 . S
C1839 C1838 1.387 . S
C1839 C1841 1.387 . S
H1840 C1847 0.950 . S
C1841 C1839 1.387 . S
C1841 C1843 1.390 . S
C1841 H1845 0.950 . S
H1842 C1838 0.950 . S
C1843 C1841 1.390 . S
C1843 C1844 1.387 . S
C1843 H1846 0.950 . S
C1844 C1843 1.387 . S
C1844 C1847 1.387 . S
H1845 C1841 0.950 . S
H1846 C1843 0.950 . S
C1847 C1838 1.390 . S
C1847 H1840 0.950 . S
C1847 C1844 1.387 . S
C1848 C1849 1.387 . S
C1848 H1852 0.950 . S
C1848 C1857 1.390 . S
C1849 C1848 1.387 . S
C1849 C1851 1.387 . S
H1850 C1857 0.950 . S
C1851 C1849 1.387 . S
C1851 C1853 1.390 . S
C1851 H1855 0.950 . S
H1852 C1848 0.950 . S
C1853 C1851 1.390 . S
C1853 C1854 1.387 . S
C1853 H1856 0.950 . S
C1854 C1853 1.387 . S
C1854 C1857 1.387 . S
H1855 C1851 0.950 . S
H1856 C1853 0.950 . S
C1857 C1848 1.390 . S
C1857 H1850 0.950 . S
C1857 C1854 1.387 . S
C1858 C1859 1.387 . S
C1858 H1862 0.950 . S
C1858 C1867 1.390 . S
C1859 C1858 1.387 . S
C1859 C1861 1.387 . S
H1860 C1867 0.950 . S
C1861 C1859 1.387 . S
C1861 C1863 1.390 . S
C1861 H1865 0.950 . S
H1862 C1858 0.950 . S
C1863 C1861 1.390 . S
C1863 C1864 1.387 . S
C1863 H1866 0.950 . S
C1864 C1863 1.387 . S
C1864 C1867 1.387 . S
H1865 C1861 0.950 . S
H1866 C1863 0.950 . S
C1867 C1858 1.390 . S
C1867 H1860 0.950 . S
C1867 C1864 1.387 . S
C1868 C1869 1.387 . S
C1868 H1872 0.950 . S
C1868 C1877 1.390 . S
C1869 C1868 1.387 . S
C1869 C1871 1.387 . S
H1870 C1877 0.950 . S
C1871 C1869 1.387 . S
C1871 C1873 1.390 . S
C1871 H1875 0.950 . S
H1872 C1868 0.950 . S
C1873 C1871 1.390 . S
C1873 C1874 1.387 . S
C1873 H1876 0.950 . S
C1874 C1873 1.387 . S
C1874 C1877 1.387 . S
H1875 C1871 0.950 . S
H1876 C1873 0.950 . S
C1877 C1868 1.390 . S
C1877 H1870 0.950 . S
C1877 C1874 1.387 . S
C1878 C1879 1.387 . S
C1878 H1882 0.950 . S
C1878 C1887 1.390 . S
C1879 C1878 1.387 . S
C1879 C1881 1.387 . S
H1880 C1887 0.950 . S
C1881 C1879 1.387 . S
C1881 C1883 1.390 . S
C1881 H1885 0.950 . S
H1882 C1878 0.950 . S
C1883 C1881 1.390 . S
C1883 C1884 1.387 . S
C1883 H1886 0.950 . S
C1884 C1883 1.387 . S
C1884 C1887 1.387 . S
H1885 C1881 0.950 . S
H1886 C1883 0.950 . S
C1887 C1878 1.390 . S
C1887 H1880 0.950 . S
C1887 C1884 1.387 . S
C1888 C1889 1.387 . S
C1888 H1892 0.950 . S
C1888 C1897 1.390 . S
C1889 C1888 1.387 . S
C1889 C1891 1.387 . S
H1890 C1897 0.950 . S
C1891 C1889 1.387 . S
C1891 C1893 1.390 . S
C1891 H1895 0.950 . S
H1892 C1888 0.950 . S
C1893 C1891 1.390 . S
C1893 C1894 1.387 . S
C1893 H1896 0.950 . S
C1894 C1893 1.387 . S
C1894 C1897 1.387 . S
H1895 C1891 0.950 . S
H1896 C1893 0.950 . S
C1897 C1888 1.390 . S
C1897 H1890 0.950 . S
C1897 C1894 1.387 . S
C1898 C1899 1.387 . S
C1898 H1902 0.950 . S
C1898 C1907 1.390 . S
C1899 C1898 1.387 . S
C1899 C1901 1.387 . S
H1900 C1907 0.950 . S
C1901 C1899 1.387 . S
C1901 C1903 1.390 . S
C1901 H1905 0.950 . S
H1902 C1898 0.950 . S
C1903 C1901 1.390 . S
C1903 C1904 1.387 . S
C1903 H1906 0.950 . S
C1904 C1903 1.387 . S
C1904 C1907 1.387 . S
H1905 C1901 0.950 . S
H1906 C1903 0.950 . S
C1907 C1898 1.390 . S
C1907 H1900 0.950 . S
C1907 C1904 1.387 . S
C1908 C1909 1.387 . S
C1908 H1912 0.950 . S
C1908 C1917 1.390 . S
C1909 C1908 1.387 . S
C1909 C1911 1.387 . S
H1910 C1917 0.950 . S
C1911 C1909 1.387 . S
C1911 C1913 1.390 . S
C1911 H1915 0.950 . S
H1912 C1908 0.950 . S
C1913 C1911 1.390 . S
C1913 C1914 1.387 . S
C1913 H1916 0.950 . S
C1914 C1913 1.387 . S
C1914 C1917 1.387 . S
H1915 C1911 0.950 . S
H1916 C1913 0.950 . S
C1917 C1908 1.390 . S
C1917 H1910 0.950 . S
C1917 C1914 1.387 . S
C1918 C1919 1.387 . S
C1918 H1922 0.950 . S
C1918 C1927 1.390 . S
C1919 C1918 1.387 . S
C1919 C1921 1.387 . S
H1920 C1927 0.950 . S
C1921 C1919 1.387 . S
C1921 C1923 1.390 . S
C1921 H1925 0.950 . S
H1922 C1918 0.950 . S
C1923 C1921 1.390 . S
C1923 C1924 1.387 . S
C1923 H1926 0.950 . S
C1924 C1923 1.387 . S
C1924 C1927 1.387 . S
H1925 C1921 0.950 . S
H1926 C1923 0.950 . S
C1927 C1918 1.390 . S
C1927 H1920 0.950 . S
C1927 C1924 1.387 . S
C974 N428 1.735 . S
C969 C8 1.786 . S
C984 C455 1.156 . S
C979 C17 1.134 . S
C989 C35 1.863 . S
C994 C469 1.834 . S
C1004 N487 1.501 . S
C999 C43 1.388 . S
C1009 C56 1.261 . S
C1014 C492 1.319 . S
C1019 C73 1.729 . S
C1024 C432 1.736 1_556 S
C1029 C87 1.487 . S
C1034 N451 1.447 . S
C1044 N464 1.642 . S
C1039 C100 1.677 . S
C1054 N510 1.648 . S
C1049 C9 1.631 . S
C1059 C22 1.466 . S
C1064 N533 1.427 . S
C1069 C34 1.783 . S
C1074 N556 1.746 . S
C1084 N589 1.525 . S
C1079 C47 1.555 . S
C1089 C61 1.445 . S
C1094 C616 1.424 . S
C1104 C639 1.613 . S
C1099 C69 1.572 . S
C1109 C82 1.262 . S
C1114 C662 1.336 . S
C1124 C676 1.819 . S
C1119 C99 1.842 . S
C1129 C4 1.688 . S
C1134 C593 1.814 . S
C1139 C60 1.533 . S
C1144 N635 1.519 . S
C1154 N658 1.626 . S
C1149 C74 1.695 . S
C1159 C86 1.428 . S
C1164 N671 1.341 . S
C1174 N612 1.698 . S
C1169 C95 1.784 . S
C1184 C538 1.505 1_565 S
C1179 C30 1.432 . S
C1189 C48 1.266 . S
C1194 C561 1.287 . S
C1204 C515 1.481 . S
C1199 C21 1.484 . S
C1214 C708 1.760 . S
C1209 C112 1.772 . S
C1219 C121 1.237 . S
C1224 C722 1.277 . S
C1229 C139 1.682 . S
C1234 N750 1.604 . S
C1244 N763 1.544 . S
C1239 C147 1.405 . S
C1249 C160 1.229 . S
C1254 C768 1.293 . S
C1259 C177 1.679 . S
C1264 N704 1.630 . S
C1269 C191 1.509 . S
C1274 N717 1.540 . S
C1279 C204 1.719 . S
C1284 C754 1.723 . S
C1294 N602 1.790 . S
C1289 C113 1.780 . S
C1299 C126 1.504 . S
C1304 N786 1.440 . S
C1314 N648 1.614 . S
C1309 C138 1.644 . S
C1319 C151 1.515 . S
C1324 C823 1.471 . S
C1329 C165 1.347 . S
C1334 C524 1.346 . S
C1344 C837 1.677 . S
C1339 C173 1.621 . S
C1349 C186 1.337 . S
C1354 C570 1.373 . S
C1364 N855 1.754 . S
C1359 C203 1.756 . S
C1369 C108 1.637 . S
C1374 N819 1.669 . S
C1384 N832 1.425 . S
C1379 C164 1.460 . S
C1389 C178 1.782 . S
C1394 N566 1.715 . S
C1404 C860 1.428 . S
C1399 C190 1.458 . S
C1409 C199 1.694 . S
C1414 N520 1.624 . S
C1419 C134 1.354 . S
C1424 C791 1.405 . S
C1429 C152 1.339 . S
C1434 C653 1.354 . S
C1439 C125 1.577 . S
C1444 C607 1.557 . S
C1449 C216 1.853 . S
C1454 C745 1.848 . S
C1464 C777 1.207 . S
C1459 C225 1.182 . S
C1469 C243 1.844 . S
C1474 N694 1.820 . S
C1479 C251 1.372 . S
C1484 N727 1.424 . S
C1489 C264 1.282 . S
C1494 C731 1.302 . S
C1499 C281 1.558 . S
C1504 N740 1.540 . S
C1514 N773 1.411 . S
C1509 C295 1.463 . S
C1519 C308 1.717 . S
C1524 C699 1.731 . S
C1534 N888 1.711 . S
C1529 C217 1.773 . S
C1539 C230 1.437 . S
C1544 N625 1.381 . S
C1554 N911 1.636 . S
C1549 C242 1.700 . S
C1559 C255 1.548 . S
C1564 N681 1.528 . S
C1569 C269 1.412 . S
C1574 C929 1.415 . S
C1579 C277 1.569 . S
C1584 C547 1.611 . S
C1594 N947 1.334 . S
C1589 C290 1.272 . S
C1599 C307 1.853 . S
C1604 C584 1.832 . S
C1614 C685 1.814 . S
C1609 C212 1.700 . S
C1624 N543 1.475 . S
C1619 C268 1.491 . S
C1629 C282 1.735 . S
C1634 C952 1.751 . S
C1639 C294 1.443 . S
C1644 N579 1.343 . S
C1654 N924 1.784 . S
C1649 C303 1.788 . S
C1664 C630 1.527 . S
C1659 C238 1.495 . S
C1674 C915 1.347 . S
C1669 C256 1.313 . S
C1684 C892 1.487 . S
C1679 C229 1.508 . S
C1689 C320 1.688 . S
C1694 N474 1.639 . S
C1699 C329 1.227 . S
C1704 C501 1.240 . S
C1714 C423 1.910 . S
C1709 C347 1.901 . S
C1724 N441 1.539 . S
C1719 C355 1.368 . S
C1734 C446 1.257 . S
C1729 C368 1.205 . S
C1744 C478 1.622 . S
C1739 C385 1.619 . S
C1754 N497 1.466 . S
C1749 C399 1.498 . S
C1759 C412 1.717 . S
C1764 N418 1.672 1_556 S
C1769 C321 1.672 . S
C1774 N934 1.622 . S
C1784 N842 1.454 . S
C1779 C334 1.489 . S
C1794 C961 1.713 . S
C1789 C342 1.694 . S
C1804 C869 1.408 . S
C1799 C359 1.458 . S
C1809 C373 1.450 . S
C1814 C883 1.448 . S
C1824 C800 1.553 . S
C1819 C381 1.515 . S
C1834 C906 1.425 . S
C1829 C394 1.361 . S
C1839 C411 1.800 . S
C1844 N809 1.786 . S
C1854 N865 1.606 . S
C1849 C316 1.578 . S
C1864 N796 1.505 . S
C1859 C372 1.522 . S
C1874 N901 1.728 . S
C1869 C386 1.749 . S
C1879 C398 1.395 . S
C1884 C814 1.384 . S
C1889 C407 1.751 . S
C1894 N878 1.759 . S
C1899 C346 1.707 . S
C1904 C846 1.699 . S
C1909 C360 1.279 . S
C1914 N957 1.257 . S
C1924 C938 1.534 . S
C1919 C333 1.568 . S
