# Generated by pormake.
# Topology csq, (4,8)-cn, num edge types: 1
# Building blocks:
#     Node 0, Type 0, BuildingBlock: MIFKUJ_clean_linker_1, # of connection points: 4
#     Node 1, Type 0, BuildingBlock: MIFKUJ_clean_linker_1, # of connection points: 4
#     Node 2, Type 0, BuildingBlock: MIFKUJ_clean_linker_1, # of connection points: 4
#     Node 3, Type 0, BuildingBlock: MIFKUJ_clean_linker_1, # of connection points: 4
#     Node 4, Type 0, BuildingBlock: MIFKUJ_clean_linker_1, # of connection points: 4
#     Node 5, Type 0, BuildingBlock: MIFKUJ_clean_linker_1, # of connection points: 4
#     Node 6, Type 1, BuildingBlock: TAGTUT_clean_sbu_1, # of connection points: 8
#     Node 7, Type 1, BuildingBlock: TAGTUT_clean_sbu_1, # of connection points: 8
#     Node 8, Type 1, BuildingBlock: TAGTUT_clean_sbu_1, # of connection points: 8
#     Edge 9, Type (0, 1), BuildingBlock: MIFKUJ_clean_linker_0, # of connection points: 2
#     Edge 10, Type (0, 1), BuildingBlock: MIFKUJ_clean_linker_0, # of connection points: 2
#     Edge 11, Type (0, 1), BuildingBlock: MIFKUJ_clean_linker_0, # of connection points: 2
#     Edge 12, Type (0, 1), BuildingBlock: MIFKUJ_clean_linker_0, # of connection points: 2
#     Edge 13, Type (0, 1), BuildingBlock: MIFKUJ_clean_linker_0, # of connection points: 2
#     Edge 14, Type (0, 1), BuildingBlock: MIFKUJ_clean_linker_0, # of connection points: 2
#     Edge 15, Type (0, 1), BuildingBlock: MIFKUJ_clean_linker_0, # of connection points: 2
#     Edge 16, Type (0, 1), BuildingBlock: MIFKUJ_clean_linker_0, # of connection points: 2
#     Edge 17, Type (0, 1), BuildingBlock: MIFKUJ_clean_linker_0, # of connection points: 2
#     Edge 18, Type (0, 1), BuildingBlock: MIFKUJ_clean_linker_0, # of connection points: 2
#     Edge 19, Type (0, 1), BuildingBlock: MIFKUJ_clean_linker_0, # of connection points: 2
#     Edge 20, Type (0, 1), BuildingBlock: MIFKUJ_clean_linker_0, # of connection points: 2
#     Edge 21, Type (0, 1), BuildingBlock: MIFKUJ_clean_linker_0, # of connection points: 2
#     Edge 22, Type (0, 1), BuildingBlock: MIFKUJ_clean_linker_0, # of connection points: 2
#     Edge 23, Type (0, 1), BuildingBlock: MIFKUJ_clean_linker_0, # of connection points: 2
#     Edge 24, Type (0, 1), BuildingBlock: MIFKUJ_clean_linker_0, # of connection points: 2
#     Edge 25, Type (0, 1), BuildingBlock: MIFKUJ_clean_linker_0, # of connection points: 2
#     Edge 26, Type (0, 1), BuildingBlock: MIFKUJ_clean_linker_0, # of connection points: 2
#     Edge 27, Type (0, 1), BuildingBlock: MIFKUJ_clean_linker_0, # of connection points: 2
#     Edge 28, Type (0, 1), BuildingBlock: MIFKUJ_clean_linker_0, # of connection points: 2
#     Edge 29, Type (0, 1), BuildingBlock: MIFKUJ_clean_linker_0, # of connection points: 2
#     Edge 30, Type (0, 1), BuildingBlock: MIFKUJ_clean_linker_0, # of connection points: 2
#     Edge 31, Type (0, 1), BuildingBlock: MIFKUJ_clean_linker_0, # of connection points: 2
#     Edge 32, Type (0, 1), BuildingBlock: MIFKUJ_clean_linker_0, # of connection points: 2
# Relax obj value: 0.033
# Max RMSD: 0.129
# Mean RMSD: 0.058
data_MOF--net-csq--node1-TAGTUT_clean_sbu_1--node2-MIFKUJ_clean_linker_1--edge1-MIFKUJ_clean_linker_0
_symmetry_space_group_name_H-M    P1
_symmetry_Int_Tables_number       1
_symmetry_cell_setting            triclinic
loop_
_symmetry_equiv_pos_as_xyz
'x, y, z'
_cell_length_a     77.011174
_cell_length_b     76.131317
_cell_length_c     27.092086
_cell_angle_alpha  92.446864
_cell_angle_beta   91.815335
_cell_angle_gamma 119.88372
loop_
_atom_site_label
_atom_site_type_symbol
_atom_site_fract_x
_atom_site_fract_y
_atom_site_fract_z
_atom_type_partial_charge
H0 H 0.24992 0.4592 0.22347 0.0
H1 H 0.27414 0.45715 0.27996 0.0
H2 H 0.3209 0.51473 0.23492 0.0
H3 H 0.2966 0.51664 0.1783 0.0
H4 H 0.23982 0.48813 0.23057 0.0
H5 H 0.27256 0.46663 0.11139 0.0
H6 H 0.29776 0.46725 0.05703 0.0
H7 H 0.30414 0.52132 0.99543 0.0
H8 H 0.2799 0.52141 0.05127 0.0
H9 H 0.23305 0.52542 0.0574 0.0
H10 H 0.20991 0.52573 0.99421 0.0
H11 H 0.16308 0.46785 0.03735 0.0
H12 H 0.18642 0.46758 0.10079 0.0
H13 H 0.24324 0.49675 0.05057 0.0
H14 H 0.21061 0.51853 0.16262 0.0
H15 H 0.1853 0.51935 0.21181 0.0
H16 H 0.18119 0.46951 0.29189 0.0
H17 H 0.20437 0.46703 0.23786 0.0
C18 C 0.2715 0.48801 0.19651 0.0
C19 C 0.26545 0.47128 0.22544 0.0
C20 C 0.27925 0.47017 0.25786 0.0
C21 C 0.29939 0.48582 0.26206 0.0
C22 C 0.30553 0.50232 0.23206 0.0
C23 C 0.29168 0.50343 0.19967 0.0
C24 C 0.25628 0.49002 0.16644 0.0
C25 C 0.24025 0.48964 0.19094 0.0
C26 C 0.25773 0.4931 0.11523 0.0
C27 C 0.27429 0.49405 0.08596 0.0
C28 C 0.27976 0.47896 0.0873 0.0
C29 C 0.29404 0.47921 0.05594 0.0
C30 C 0.30271 0.49423 0.02182 0.0
C31 C 0.29751 0.50945 0.02104 0.0
C32 C 0.28364 0.50948 0.05301 0.0
C33 C 0.21145 0.49644 0.08358 0.0
C34 C 0.21769 0.51296 0.05387 0.0
C35 C 0.20452 0.51307 0.01764 0.0
C36 C 0.18484 0.49667 0.01045 0.0
C37 C 0.17818 0.48071 0.04227 0.0
C38 C 0.19146 0.48055 0.07852 0.0
C39 C 0.22665 0.49474 0.11454 0.0
C40 C 0.24269 0.49517 0.0902 0.0
C41 C 0.22534 0.49206 0.16598 0.0
C42 C 0.20932 0.49242 0.19531 0.0
C43 C 0.20372 0.50723 0.1894 0.0
C44 C 0.18948 0.50804 0.21891 0.0
C45 C 0.18098 0.49461 0.25681 0.0
C46 C 0.18679 0.47991 0.2628 0.0
C47 C 0.20046 0.47866 0.23212 0.0
H48 H 0.78204 0.27285 0.01173 0.0
H49 H 0.80979 0.29718 0.96577 0.0
H50 H 0.85176 0.2913 0.06378 0.0
H51 H 0.82387 0.2662 0.10777 0.0
H52 H 0.76741 0.2343 0.02856 0.0
H53 H 0.79103 0.29498 0.13018 0.0
H54 H 0.81891 0.32723 0.1661 0.0
H55 H 0.84024 0.29448 0.25198 0.0
H56 H 0.81226 0.2622 0.2158 0.0
H57 H 0.75468 0.2041 0.22044 0.0
H58 H 0.72867 0.18318 0.27541 0.0
H59 H 0.68667 0.19554 0.19669 0.0
H60 H 0.7129 0.21667 0.14196 0.0
H61 H 0.76895 0.2455 0.21073 0.0
H62 H 0.73243 0.18179 0.10551 0.0
H63 H 0.70516 0.15475 0.05122 0.0
H64 H 0.70469 0.19992 0.96109 0.0
H65 H 0.73114 0.22679 0.01602 0.0
C66 C 0.80087 0.26786 0.06356 0.0
C67 C 0.79721 0.27663 0.02293 0.0
C68 C 0.81312 0.29073 0.99707 0.0
C69 C 0.83306 0.29638 0.01137 0.0
C70 C 0.83663 0.28722 0.05148 0.0
C71 C 0.82069 0.27302 0.07705 0.0
C72 C 0.78405 0.25374 0.09272 0.0
C73 C 0.76757 0.23678 0.06835 0.0
C74 C 0.7842 0.25712 0.14439 0.0
C75 C 0.79974 0.27631 0.17029 0.0
C76 C 0.80161 0.29479 0.15718 0.0
C77 C 0.81747 0.31315 0.17767 0.0
C78 C 0.83176 0.31327 0.21135 0.0
C79 C 0.82952 0.29473 0.22553 0.0
C80 C 0.81351 0.27635 0.20538 0.0
C81 C 0.73568 0.2118 0.1769 0.0
C82 C 0.73981 0.20214 0.21474 0.0
C83 C 0.72491 0.19013 0.24598 0.0
C84 C 0.70561 0.18771 0.24039 0.0
C85 C 0.70144 0.19725 0.20213 0.0
C86 C 0.71634 0.20916 0.17058 0.0
C87 C 0.75208 0.22572 0.14658 0.0
C88 C 0.76863 0.24281 0.17097 0.0
C89 C 0.7513 0.22297 0.09433 0.0
C90 C 0.7338 0.20635 0.06496 0.0
C91 C 0.72615 0.18588 0.07474 0.0
C92 C 0.71073 0.17047 0.04361 0.0
C93 C 0.70316 0.17538 0.00182 0.0
C94 C 0.71056 0.19581 0.99269 0.0
C95 C 0.72562 0.21113 0.02412 0.0
H96 H 0.54633 0.75752 0.96732 0.0
H97 H 0.54712 0.72769 0.93386 0.0
H98 H 0.50157 0.69038 0.03171 0.0
H99 H 0.50009 0.72016 0.06303 0.0
H100 H 0.51906 0.76949 0.97285 0.0
H101 H 0.55716 0.75289 0.085 0.0
H102 H 0.56077 0.72804 0.1321 0.0
H103 H 0.51382 0.72241 0.2244 0.0
H104 H 0.50967 0.74671 0.17598 0.0
H105 H 0.50411 0.8005 0.15048 0.0
H106 H 0.50754 0.83268 0.18339 0.0
H107 H 0.56065 0.86566 0.10224 0.0
H108 H 0.55723 0.83348 0.06994 0.0
H109 H 0.53327 0.78579 0.15433 0.0
H110 H 0.49411 0.80074 0.0351 0.0
H111 H 0.49173 0.82633 0.98845 0.0
H112 H 0.54513 0.838 0.91482 0.0
H113 H 0.54699 0.81198 0.96067 0.0
C114 C 0.52334 0.7411 0.01807 0.0
C115 C 0.53624 0.74285 0.98084 0.0
C116 C 0.53689 0.72582 0.96233 0.0
C117 C 0.5247 0.7067 0.98082 0.0
C118 C 0.51114 0.70485 0.01658 0.0
C119 C 0.51035 0.72187 0.03471 0.0
C120 C 0.5247 0.75964 0.04206 0.0
C121 C 0.52221 0.77302 0.01247 0.0
C122 C 0.52885 0.76433 0.09385 0.0
C123 C 0.53283 0.75132 0.12629 0.0
C124 C 0.54761 0.74629 0.11531 0.0
C125 C 0.54968 0.73212 0.14217 0.0
C126 C 0.53744 0.72321 0.18146 0.0
C127 C 0.52344 0.7291 0.19425 0.0
C128 C 0.5211 0.743 0.16675 0.0
C129 C 0.5304 0.8147 0.10788 0.0
C130 C 0.51657 0.81469 0.14025 0.0
C131 C 0.51842 0.83303 0.15847 0.0
C132 C 0.53427 0.85163 0.14497 0.0
C133 C 0.54834 0.85155 0.11335 0.0
C134 C 0.5464 0.83323 0.09491 0.0
C135 C 0.52752 0.79538 0.08509 0.0
C136 C 0.52985 0.782 0.11485 0.0
C137 C 0.52348 0.79077 0.03351 0.0
C138 C 0.52074 0.80453 0.00129 0.0
C139 C 0.50512 0.80865 0.00837 0.0
C140 C 0.5039 0.82341 0.982 0.0
C141 C 0.51833 0.83438 0.94812 0.0
C142 C 0.53361 0.8297 0.94009 0.0
C143 C 0.53473 0.81484 0.96626 0.0
H144 H 0.76317 0.48867 0.15869 0.0
H145 H 0.78544 0.48786 0.22361 0.0
H146 H 0.83308 0.546 0.18398 0.0
H147 H 0.81069 0.54663 0.1187 0.0
H148 H 0.75265 0.51752 0.16296 0.0
H149 H 0.78206 0.49246 0.03931 0.0
H150 H 0.80683 0.49146 0.98692 0.0
H151 H 0.82643 0.55302 0.94966 0.0
H152 H 0.80097 0.55343 1.00035 0.0
H153 H 0.74287 0.55637 0.00534 0.0
H154 H 0.71938 0.55627 0.9417 0.0
H155 H 0.68321 0.49104 0.94436 0.0
H156 H 0.7067 0.49134 0.00746 0.0
H157 H 0.75969 0.52638 0.98318 0.0
H158 H 0.74268 0.55076 0.16031 0.0
H159 H 0.71729 0.54994 0.21323 0.0
H160 H 0.67395 0.49097 0.14471 0.0
H161 H 0.69988 0.49154 0.09388 0.0
C162 C 0.78528 0.51769 0.13387 0.0
C163 C 0.77853 0.50106 0.16339 0.0
C164 C 0.79121 0.5007 0.20073 0.0
C165 C 0.8109 0.51702 0.20941 0.0
C166 C 0.81801 0.53316 0.17803 0.0
C167 C 0.80526 0.53352 0.14059 0.0
C168 C 0.77062 0.51968 0.10144 0.0
C169 C 0.75411 0.51922 0.12348 0.0
C170 C 0.77295 0.52273 0.05038 0.0
C171 C 0.78972 0.52305 0.02398 0.0
C172 C 0.7919 0.50582 0.02035 0.0
C173 C 0.80614 0.50531 0.99029 0.0
C174 C 0.81869 0.52213 0.96347 0.0
C175 C 0.81681 0.53959 0.9686 0.0
C176 C 0.8024 0.53996 0.99812 0.0
C177 C 0.72611 0.52393 0.01198 0.0
C178 C 0.72961 0.54216 0.99284 0.0
C179 C 0.71634 0.54204 0.95621 0.0
C180 C 0.69944 0.52365 0.93816 0.0
C181 C 0.69588 0.50549 0.95814 0.0
C182 C 0.7092 0.50562 0.99443 0.0
C183 C 0.74153 0.52348 0.04453 0.0
C184 C 0.75832 0.52461 0.02266 0.0
C185 C 0.73952 0.52108 0.09575 0.0
C186 C 0.7231 0.52143 0.12231 0.0
C187 C 0.72761 0.5378 0.15618 0.0
C188 C 0.71298 0.53732 0.18634 0.0
C189 C 0.69341 0.52041 0.18338 0.0
C190 C 0.68885 0.50418 0.14852 0.0
C191 C 0.70358 0.50462 0.11862 0.0
H192 H 0.24717 0.79986 0.98995 0.0
H193 H 0.27093 0.82018 0.93038 0.0
H194 H 0.31832 0.8176 0.01382 0.0
H195 H 0.29413 0.79628 0.07195 0.0
H196 H 0.23584 0.76185 0.00579 0.0
H197 H 0.26743 0.82575 0.12251 0.0
H198 H 0.29354 0.85279 0.1792 0.0
H199 H 0.30776 0.8093 0.23829 0.0
H200 H 0.28187 0.7826 0.1818 0.0
H201 H 0.22443 0.7361 0.2081 0.0
H202 H 0.19639 0.71249 0.25484 0.0
H203 H 0.15524 0.7201 0.15821 0.0
H204 H 0.1833 0.74383 0.11204 0.0
H205 H 0.24069 0.77445 0.18816 0.0
H206 H 0.21044 0.71219 0.09675 0.0
H207 H 0.18184 0.68067 0.06139 0.0
H208 H 0.1688 0.71446 0.95652 0.0
H209 H 0.19674 0.74611 0.99437 0.0
C210 C 0.26883 0.79664 0.0358 0.0
C211 C 0.26271 0.80377 0.99566 0.0
C212 C 0.27639 0.81555 0.96171 0.0
C213 C 0.2966 0.82057 0.96711 0.0
C214 C 0.30283 0.81382 0.00807 0.0
C215 C 0.28906 0.80189 0.04191 0.0
C216 C 0.25354 0.78231 0.06816 0.0
C217 C 0.2368 0.76484 0.04558 0.0
C218 C 0.25526 0.78529 0.1204 0.0
C219 C 0.27288 0.80229 0.14794 0.0
C220 C 0.27652 0.82224 0.14698 0.0
C221 C 0.29126 0.83756 0.17962 0.0
C222 C 0.30261 0.83311 0.21328 0.0
C223 C 0.29942 0.81325 0.21249 0.0
C224 C 0.28463 0.79798 0.18032 0.0
C225 C 0.20595 0.74153 0.15616 0.0
C226 C 0.20941 0.73288 0.19739 0.0
C227 C 0.19337 0.71939 0.22403 0.0
C228 C 0.1736 0.7143 0.20985 0.0
C229 C 0.17026 0.72344 0.16944 0.0
C230 C 0.18629 0.73703 0.14312 0.0
C231 C 0.2227 0.75467 0.12551 0.0
C232 C 0.2397 0.77163 0.14828 0.0
C233 C 0.2217 0.75073 0.07372 0.0
C234 C 0.20548 0.73153 0.0488 0.0
C235 C 0.20133 0.71281 0.06634 0.0
C236 C 0.18508 0.69476 0.04571 0.0
C237 C 0.17289 0.69501 0.00634 0.0
C238 C 0.17759 0.71375 0.98754 0.0
C239 C 0.19372 0.73184 0.00866 0.0
H240 H 0.49916 0.22679 0.06903 0.0
H241 H 0.49785 0.19584 0.03527 0.0
H242 H 0.44501 0.15977 0.11496 0.0
H243 H 0.44658 0.19086 0.14904 0.0
H244 H 0.47145 0.24024 0.06369 0.0
H245 H 0.504 0.22056 0.18597 0.0
H246 H 0.5034 0.19386 0.23348 0.0
H247 H 0.45446 0.19091 0.31392 0.0
H248 H 0.45427 0.21667 0.26353 0.0
H249 H 0.45536 0.27033 0.24649 0.0
H250 H 0.45752 0.30175 0.27957 0.0
H251 H 0.50553 0.33594 0.18419 0.0
H252 H 0.50418 0.30465 0.15403 0.0
H253 H 0.48052 0.25561 0.24582 0.0
H254 H 0.44449 0.27045 0.11951 0.0
H255 H 0.44181 0.29493 0.06849 0.0
H256 H 0.49632 0.30711 1.00034 0.0
H257 H 0.49886 0.2825 0.05127 0.0
C258 C 0.47303 0.21109 0.11163 0.0
C259 C 0.48721 0.2122 0.07883 0.0
C260 C 0.48643 0.1945 0.05964 0.0
C261 C 0.47136 0.17535 0.07262 0.0
C262 C 0.45699 0.17429 0.10494 0.0
C263 C 0.45778 0.19201 0.12412 0.0
C264 C 0.47479 0.22997 0.1344 0.0
C265 C 0.47363 0.24369 0.10344 0.0
C266 C 0.47727 0.23426 0.18637 0.0
C267 C 0.47888 0.22029 0.2204 0.0
C268 C 0.49312 0.21413 0.2138 0.0
C269 C 0.49288 0.19897 0.24147 0.0
C270 C 0.47872 0.18998 0.27732 0.0
C271 C 0.46525 0.19708 0.28582 0.0
C272 C 0.4653 0.21204 0.25752 0.0
C273 C 0.47938 0.2851 0.19723 0.0
C274 C 0.46652 0.28464 0.23327 0.0
C275 C 0.46761 0.30261 0.25162 0.0
C276 C 0.48151 0.32141 0.23405 0.0
C277 C 0.49473 0.32182 0.19886 0.0
C278 C 0.49382 0.30388 0.1811 0.0
C279 C 0.47725 0.26592 0.17505 0.0
C280 C 0.47833 0.25214 0.20609 0.0
C281 C 0.47451 0.26142 0.1232 0.0
C282 C 0.47192 0.27478 0.08922 0.0
C283 C 0.45572 0.27824 0.09316 0.0
C284 C 0.45418 0.29215 0.06399 0.0
C285 C 0.46893 0.30295 0.03077 0.0
C286 C 0.48487 0.2991 0.02604 0.0
C287 C 0.48625 0.28497 0.05474 0.0
C288 C 0.98193 0.44915 0.72982 0.0
C289 C 0.04045 0.48974 0.67499 0.0
C290 C 0.01943 0.54644 0.68965 0.0
Mg291 Mg 0.9978 0.46429 0.6271 0.0
O292 O 0.99167 0.48429 0.64844 0.0
Mg293 Mg 0.00462 0.49961 0.71358 0.0
Mg294 Mg 0.99889 0.50787 0.60752 0.0
O295 O 0.00621 0.53146 0.56672 0.0
Mg296 Mg 0.00062 0.55188 0.58789 0.0
Mg297 Mg 0.99363 0.51624 0.50134 0.0
C298 C 0.97946 0.46973 0.52494 0.0
C299 C 0.03188 0.51087 0.52926 0.0
O300 O 0.9895 0.46776 0.74652 0.0
O301 O 0.9829 0.44423 0.6845 0.0
O302 O 0.0334 0.49824 0.7032 0.0
O303 O 0.02957 0.47652 0.64032 0.0
O304 O 0.98506 0.45946 0.55093 0.0
O305 O 0.98084 0.48643 0.54179 0.0
C306 C 0.96629 0.50518 0.68666 0.0
O307 O 0.97155 0.50855 0.6418 0.0
O308 O 0.97628 0.50133 0.7188 0.0
O309 O 0.00892 0.54798 0.46839 0.0
O310 O 0.01612 0.57169 0.53042 0.0
O311 O 0.96496 0.51754 0.51173 0.0
C312 C 0.01697 0.56663 0.48514 0.0
O313 O 0.96868 0.53953 0.5739 0.0
O314 O 0.01408 0.55698 0.66384 0.0
C315 C 0.95781 0.52603 0.53963 0.0
O316 O 0.01702 0.5293 0.67281 0.0
O317 O 0.02625 0.50727 0.57373 0.0
O318 O 0.02214 0.51476 0.49654 0.0
C319 C 0.46071 0.01627 0.7702 0.0
C320 C 0.44056 0.96238 0.67312 0.0
C321 C 0.51911 0.98762 0.65863 0.0
Mg322 Mg 0.45551 0.00744 0.65602 0.0
O323 O 0.48234 0.01391 0.66757 0.0
Mg324 Mg 0.48774 0.99774 0.71598 0.0
Mg325 Mg 0.49674 0.01072 0.61138 0.0
O326 O 0.51078 0.00719 0.5545 0.0
Mg327 Mg 0.53755 0.01367 0.56454 0.0
Mg328 Mg 0.50459 0.02215 0.50423 0.0
C329 C 0.47463 0.03362 0.56202 0.0
C330 C 0.46311 0.98157 0.52523 0.0
O331 O 0.47257 0.00895 0.77221 0.0
O332 O 0.45283 0.01768 0.72918 0.0
O333 O 0.45736 0.96841 0.69713 0.0
O334 O 0.43681 0.97471 0.651 0.0
O335 O 0.46009 0.02555 0.5911 0.0
O336 O 0.49021 0.03163 0.56692 0.0
C337 C 0.52921 0.03938 0.70011 0.0
O338 O 0.52544 0.03678 0.65294 0.0
O339 O 0.51727 0.02683 0.72977 0.0
O340 O 0.51894 0.00983 0.44773 0.0
O341 O 0.54012 0.00325 0.49193 0.0
O342 O 0.53545 0.05115 0.51822 0.0
C343 C 0.53162 0.00353 0.45073 0.0
O344 O 0.55626 0.04624 0.56709 0.0
O345 O 0.53334 0.99555 0.62871 0.0
C346 C 0.55248 0.0578 0.54159 0.0
O347 O 0.50355 0.98974 0.65492 0.0
O348 O 0.46789 0.98488 0.5718 0.0
O349 O 0.47451 0.99313 0.49331 0.0
C350 C 0.53376 0.56913 0.47384 0.0
C351 C 0.55659 0.52996 0.51581 0.0
C352 C 0.47873 0.47361 0.53089 0.0
Mg353 Mg 0.54299 0.55649 0.57427 0.0
O354 O 0.51609 0.53604 0.5621 0.0
Mg355 Mg 0.50853 0.51935 0.49773 0.0
Mg356 Mg 0.50295 0.51371 0.60763 0.0
O357 O 0.48984 0.49128 0.65295 0.0
Mg358 Mg 0.46273 0.47111 0.6407 0.0
Mg359 Mg 0.49809 0.50766 0.71786 0.0
C360 C 0.52737 0.55372 0.68449 0.0
C361 C 0.53789 0.51094 0.6714 0.0
O362 O 0.52232 0.55021 0.46009 0.0
O363 O 0.54252 0.57513 0.51731 0.0
O364 O 0.53885 0.5201 0.4953 0.0
O365 O 0.56163 0.54441 0.54893 0.0
O366 O 0.54079 0.56312 0.65328 0.0
O367 O 0.51142 0.5366 0.67284 0.0
C368 C 0.46835 0.51615 0.54168 0.0
O369 O 0.47363 0.51361 0.58508 0.0
O370 O 0.47913 0.51869 0.5047 0.0
O371 O 0.48482 0.47662 0.75369 0.0
O372 O 0.46274 0.45216 0.69791 0.0
O373 O 0.46761 0.50616 0.7236 0.0
C374 C 0.47244 0.45785 0.74036 0.0
O375 O 0.4446 0.48383 0.66708 0.0
O376 O 0.46503 0.46408 0.56145 0.0
C377 C 0.4498 0.49713 0.70337 0.0
O378 O 0.49446 0.49079 0.54331 0.0
O379 O 0.53225 0.51364 0.62871 0.0
O380 O 0.52751 0.50846 0.70912 0.0
H381 H 0.15093 0.46435 0.30755 0.0
H382 H 0.12866 0.46727 0.36408 0.0
H383 H 0.15355 0.53039 0.3353 0.0
H384 H 0.17781 0.52841 0.28401 0.0
H385 H 0.14634 0.52861 0.42288 0.0
H386 H 0.10529 0.48769 0.28105 0.0
H387 H 0.09085 0.45921 0.2172 0.0
H388 H 0.0667 0.4167 0.32978 0.0
H389 H 0.08121 0.44493 0.39437 0.0
H390 H 0.05912 0.53609 0.46817 0.0
H391 H 0.0864 0.53323 0.43221 0.0
H392 H 0.07216 0.48141 0.51647 0.0
H393 H 0.04484 0.48439 0.55314 0.0
H394 H 0.07418 0.47618 0.40897 0.0
H395 H 0.11195 0.52279 0.54832 0.0
H396 H 0.12299 0.55417 0.60086 0.0
H397 H 0.15141 0.58997 0.47891 0.0
H398 H 0.13967 0.55882 0.42477 0.0
C399 C 0.15219 0.47907 0.31385 0.0
C400 C 0.16646 0.49611 0.2903 0.0
C401 C 0.13896 0.48059 0.34571 0.0
C402 C 0.13886 0.49892 0.3533 0.0
C403 C 0.15309 0.51598 0.33016 0.0
C404 C 0.16683 0.51468 0.29971 0.0
C405 C 0.12394 0.50035 0.38497 0.0
C406 C 0.13055 0.51719 0.4193 0.0
C407 C 0.10324 0.48542 0.38126 0.0
C408 C 0.09454 0.46841 0.34255 0.0
C409 C 0.09702 0.47226 0.2922 0.0
C410 C 0.08881 0.45617 0.25588 0.0
C411 C 0.07792 0.43616 0.26944 0.0
C412 C 0.07517 0.43221 0.31934 0.0
C413 C 0.08338 0.44824 0.35582 0.0
C414 C 0.06204 0.52431 0.47972 0.0
C415 C 0.04996 0.51053 0.51371 0.0
C416 C 0.07762 0.5227 0.45916 0.0
C417 C 0.08131 0.50713 0.47167 0.0
C418 C 0.06957 0.49358 0.50647 0.0
C419 C 0.05413 0.4954 0.52778 0.0
C420 C 0.09664 0.50443 0.44588 0.0
C421 C 0.09005 0.4874 0.41268 0.0
C422 C 0.11715 0.51961 0.44915 0.0
C423 C 0.1248 0.53838 0.48229 0.0
C424 C 0.12039 0.53733 0.53246 0.0
C425 C 0.12676 0.5551 0.56256 0.0
C426 C 0.13803 0.57404 0.54336 0.0
C427 C 0.14279 0.57527 0.49383 0.0
C428 C 0.13618 0.55755 0.46333 0.0
H429 H 0.14301 0.58777 0.56679 0.0
H430 H 0.07157 0.42372 0.24127 0.0
H431 H 0.68017 0.19763 0.28615 0.0
H432 H 0.65551 0.17837 0.34593 0.0
H433 H 0.67172 0.13175 0.33417 0.0
H434 H 0.69621 0.15079 0.27394 0.0
H435 H 0.63124 0.11576 0.33061 0.0
H436 H 0.68839 0.16469 0.43321 0.0
H437 H 0.71553 0.19895 0.46221 0.0
H438 H 0.67203 0.21645 0.49724 0.0
H439 H 0.64462 0.18236 0.46775 0.0
H440 H 0.59233 0.07608 0.57362 0.0
H441 H 0.62039 0.10251 0.5321 0.0
H442 H 0.57889 0.11042 0.43833 0.0
H443 H 0.55084 0.08447 0.47987 0.0
H444 H 0.63357 0.1455 0.49918 0.0
H445 H 0.58991 0.0986 0.32099 0.0
H446 H 0.56354 0.06358 0.29438 0.0
H447 H 0.58261 0.04084 0.41439 0.0
H448 H 0.60931 0.07561 0.44096 0.0
C449 C 0.67834 0.18318 0.29597 0.0
C450 C 0.69015 0.17573 0.27536 0.0
C451 C 0.66439 0.17229 0.33047 0.0
C452 C 0.66193 0.15372 0.3449 0.0
C453 C 0.67343 0.14608 0.32372 0.0
C454 C 0.68748 0.15702 0.28951 0.0
C455 C 0.64719 0.14212 0.38162 0.0
C456 C 0.63181 0.1223 0.36741 0.0
C457 C 0.64801 0.15054 0.42992 0.0
C458 C 0.66446 0.17103 0.44782 0.0
C459 C 0.68461 0.17589 0.44671 0.0
C460 C 0.70005 0.19527 0.46331 0.0
C461 C 0.69551 0.20989 0.48144 0.0
C462 C 0.67553 0.20513 0.48313 0.0
C463 C 0.66003 0.18577 0.46651 0.0
C464 C 0.58918 0.08397 0.5455 0.0
C465 C 0.56927 0.07776 0.52929 0.0
C466 C 0.60526 0.0991 0.52184 0.0
C467 C 0.60161 0.10806 0.4816 0.0
C468 C 0.58195 0.10351 0.46907 0.0
C469 C 0.56592 0.08862 0.49297 0.0
C470 C 0.6176 0.11942 0.44764 0.0
C471 C 0.6331 0.13909 0.4623 0.0
C472 C 0.6171 0.1108 0.39991 0.0
C473 C 0.60143 0.08975 0.38332 0.0
C474 C 0.58851 0.08611 0.34153 0.0
C475 C 0.57352 0.06629 0.32644 0.0
C476 C 0.57134 0.04999 0.35278 0.0
C477 C 0.58423 0.05346 0.3941 0.0
C478 C 0.59929 0.07322 0.40921 0.0
H479 H 0.55971 0.03467 0.3411 0.0
H480 H 0.70748 0.22488 0.49429 0.0
H481 H 0.53619 0.6891 0.14159 0.0
H482 H 0.53728 0.66216 0.18588 0.0
H483 H 0.54301 0.69474 0.32523 0.0
H484 H 0.54164 0.72157 0.28115 0.0
H485 H 0.57061 0.67923 0.31467 0.0
H486 H 0.49998 0.65805 0.29232 0.0
H487 H 0.469 0.64933 0.24278 0.0
H488 H 0.4725 0.60158 0.16184 0.0
H489 H 0.50383 0.61035 0.21011 0.0
H490 H 0.5475 0.60936 0.49617 0.0
H491 H 0.5499 0.63464 0.44059 0.0
H492 H 0.52839 0.58971 0.31731 0.0
H493 H 0.52519 0.56399 0.37338 0.0
H494 H 0.51045 0.6105 0.31105 0.0
H495 H 0.57887 0.6288 0.33456 0.0
H496 H 0.61047 0.6371 0.3805 0.0
H497 H 0.61249 0.68932 0.45348 0.0
H498 H 0.58074 0.68118 0.40849 0.0
C499 C 0.53783 0.69054 0.18167 0.0
C500 C 0.53883 0.70736 0.2081 0.0
C501 C 0.53837 0.67515 0.20683 0.0
C502 C 0.54019 0.67651 0.25873 0.0
C503 C 0.54163 0.69349 0.28514 0.0
C504 C 0.54075 0.7087 0.26003 0.0
C505 C 0.54013 0.66001 0.2858 0.0
C506 C 0.55744 0.66422 0.31429 0.0
C507 C 0.52318 0.64028 0.28357 0.0
C508 C 0.50439 0.63503 0.25441 0.0
C509 C 0.49429 0.64585 0.26355 0.0
C510 C 0.47666 0.64089 0.23572 0.0
C511 C 0.46886 0.62498 0.199 0.0
C512 C 0.47864 0.61397 0.19011 0.0
C513 C 0.49634 0.61894 0.21767 0.0
C514 C 0.54344 0.60484 0.45717 0.0
C515 C 0.53623 0.58465 0.4392 0.0
C516 C 0.54492 0.61938 0.4253 0.0
C517 C 0.53969 0.61423 0.37448 0.0
C518 C 0.53258 0.59409 0.35632 0.0
C519 C 0.5308 0.57941 0.38839 0.0
C520 C 0.54088 0.62973 0.34103 0.0
C521 C 0.52377 0.62537 0.31115 0.0
C522 C 0.55817 0.64926 0.34132 0.0
C523 C 0.57733 0.65428 0.36838 0.0
C524 C 0.58598 0.64198 0.36066 0.0
C525 C 0.60393 0.64666 0.38649 0.0
C526 C 0.61346 0.6637 0.41995 0.0
C527 C 0.60508 0.67612 0.42756 0.0
C528 C 0.58712 0.67149 0.40185 0.0
H529 H 0.62736 0.6673 0.43992 0.0
H530 H 0.45518 0.62113 0.17756 0.0
H531 H 0.85073 0.52837 0.21338 0.0
H532 H 0.87135 0.52931 0.28513 0.0
H533 H 0.82033 0.50837 0.37509 0.0
H534 H 0.79963 0.50737 0.30352 0.0
H535 H 0.88192 0.55025 0.37259 0.0
H536 H 0.82417 0.47798 0.46129 0.0
H537 H 0.79372 0.44515 0.43717 0.0
H538 H 0.81356 0.44699 0.29013 0.0
H539 H 0.8442 0.47967 0.31357 0.0
H540 H 0.93874 0.54618 0.5741 0.0
H541 H 0.90767 0.54299 0.53761 0.0
H542 H 0.89928 0.49247 0.44099 0.0
H543 H 0.92965 0.49511 0.47785 0.0
H544 H 0.8641 0.48794 0.4597 0.0
H545 H 0.92814 0.54243 0.40876 0.0
H546 H 0.96097 0.57369 0.42489 0.0
H547 H 0.93179 0.60508 0.48248 0.0
H548 H 0.8988 0.57389 0.46716 0.0
C549 C 0.84394 0.52407 0.2485 0.0
C550 C 0.82353 0.51762 0.25269 0.0
C551 C 0.85572 0.52463 0.28947 0.0
C552 C 0.84733 0.51877 0.33538 0.0
C553 C 0.82704 0.51266 0.33988 0.0
C554 C 0.81523 0.51201 0.29888 0.0
C555 C 0.85985 0.51877 0.37808 0.0
C556 C 0.87789 0.53668 0.39201 0.0
C557 C 0.85462 0.50108 0.40349 0.0
C558 C 0.8363 0.4814 0.38902 0.0
C559 C 0.82201 0.47136 0.42384 0.0
C560 C 0.80474 0.45278 0.41029 0.0
C561 C 0.80166 0.44404 0.36209 0.0
C562 C 0.8159 0.45382 0.32738 0.0
C563 C 0.83321 0.47239 0.34076 0.0
C564 C 0.92993 0.53402 0.54613 0.0
C565 C 0.937 0.52133 0.52768 0.0
C566 C 0.91221 0.53225 0.52525 0.0
C567 C 0.9015 0.51789 0.48555 0.0
C568 C 0.90736 0.50379 0.47123 0.0
C569 C 0.9249 0.50546 0.49212 0.0
C570 C 0.88635 0.51929 0.4534 0.0
C571 C 0.86779 0.50168 0.44139 0.0
C572 C 0.89134 0.53707 0.42866 0.0
C573 C 0.91109 0.55583 0.43735 0.0
C574 C 0.92876 0.55599 0.42506 0.0
C575 C 0.94738 0.57368 0.43405 0.0
C576 C 0.94847 0.59135 0.45482 0.0
C577 C 0.93093 0.59137 0.4665 0.0
C578 C 0.91227 0.57371 0.45768 0.0
H579 H 0.96289 0.60503 0.46177 0.0
H580 H 0.78828 0.42966 0.35167 0.0
H581 H 0.29703 0.85979 0.27197 0.0
H582 H 0.31997 0.88385 0.33833 0.0
H583 H 0.36327 0.86527 0.30684 0.0
H584 H 0.34039 0.84116 0.24082 0.0
H585 H 0.35987 0.86809 0.40494 0.0
H586 H 0.3676 0.90933 0.26618 0.0
H587 H 0.35567 0.92335 0.20155 0.0
H588 H 0.33437 0.94868 0.31268 0.0
H589 H 0.34597 0.93457 0.37794 0.0
H590 H 0.45696 0.95282 0.45436 0.0
H591 H 0.42467 0.926 0.41653 0.0
H592 H 0.3936 0.94562 0.51438 0.0
H593 H 0.42604 0.97218 0.55354 0.0
H594 H 0.38525 0.94198 0.39933 0.0
H595 H 0.38583 0.90703 0.53904 0.0
H596 H 0.40119 0.89527 0.60075 0.0
H597 H 0.40837 0.85871 0.48719 0.0
H598 H 0.39379 0.87088 0.42429 0.0
C599 C 0.31155 0.86104 0.27885 0.0
C600 C 0.31698 0.84867 0.25109 0.0
C601 C 0.32457 0.87468 0.31696 0.0
C602 C 0.34333 0.87635 0.32752 0.0
C603 C 0.34879 0.86409 0.29964 0.0
C604 C 0.33576 0.85039 0.26181 0.0
C605 C 0.35764 0.8912 0.3666 0.0
C606 C 0.36541 0.88424 0.40379 0.0
C607 C 0.36437 0.91222 0.36604 0.0
C608 C 0.3574 0.92067 0.32684 0.0
C609 C 0.36022 0.91774 0.27678 0.0
C610 C 0.35355 0.92573 0.24005 0.0
C611 C 0.3442 0.93683 0.25299 0.0
C612 C 0.34157 0.94003 0.3027 0.0
C613 C 0.34818 0.93204 0.33957 0.0
C614 C 0.4432 0.95109 0.46839 0.0
C615 C 0.44379 0.96422 0.50707 0.0
C616 C 0.42486 0.93587 0.44683 0.0
C617 C 0.40689 0.93392 0.46289 0.0
C618 C 0.40739 0.94692 0.50187 0.0
C619 C 0.42581 0.96187 0.52439 0.0
C620 C 0.38785 0.91888 0.43636 0.0
C621 C 0.37925 0.92578 0.40141 0.0
C622 C 0.38047 0.89787 0.43885 0.0
C623 C 0.38885 0.89006 0.47671 0.0
C624 C 0.39096 0.89673 0.52697 0.0
C625 C 0.39954 0.88998 0.56224 0.0
C626 C 0.40577 0.87626 0.54791 0.0
C627 C 0.40351 0.86932 0.49824 0.0
C628 C 0.39511 0.87618 0.46272 0.0
H629 H 0.41232 0.87098 0.57531 0.0
H630 H 0.33906 0.94302 0.2245 0.0
H631 H 0.44988 0.32675 0.25604 0.0
H632 H 0.45103 0.35741 0.29016 0.0
H633 H 0.51547 0.39036 0.28413 0.0
H634 H 0.51458 0.35933 0.25318 0.0
H635 H 0.50675 0.3988 0.36798 0.0
H636 H 0.48369 0.39913 0.20496 0.0
H637 H 0.46319 0.38587 0.1262 0.0
H638 H 0.41047 0.37371 0.2014 0.0
H639 H 0.43058 0.38664 0.28077 0.0
H640 H 0.50763 0.48562 0.46368 0.0
H641 H 0.50889 0.46502 0.39428 0.0
H642 H 0.44866 0.41784 0.41761 0.0
H643 H 0.4472 0.43842 0.48738 0.0
H644 H 0.45942 0.42169 0.31441 0.0
H645 H 0.48463 0.41783 0.47961 0.0
H646 H 0.50686 0.43349 0.55518 0.0
H647 H 0.55854 0.45462 0.46885 0.0
H648 H 0.53658 0.43945 0.39263 0.0
C649 C 0.46434 0.34045 0.26231 0.0
C650 C 0.48215 0.34046 0.25217 0.0
C651 C 0.46494 0.35812 0.28097 0.0
C652 C 0.48331 0.37634 0.28897 0.0
C653 C 0.50109 0.37653 0.278 0.0
C654 C 0.50053 0.35877 0.25993 0.0
C655 C 0.484 0.39465 0.31268 0.0
C656 C 0.49673 0.40407 0.35538 0.0
C657 C 0.47089 0.40158 0.29658 0.0
C658 C 0.45865 0.39374 0.24894 0.0
C659 C 0.4677 0.39349 0.2048 0.0
C660 C 0.45615 0.38605 0.16001 0.0
C661 C 0.43554 0.37892 0.15881 0.0
C662 C 0.42644 0.37924 0.20239 0.0
C663 C 0.43791 0.38665 0.24728 0.0
C664 C 0.49438 0.47118 0.45328 0.0
C665 C 0.47749 0.46348 0.48195 0.0
C666 C 0.49515 0.45942 0.41342 0.0
C667 C 0.47901 0.43981 0.40154 0.0
C668 C 0.4613 0.43295 0.42649 0.0
C669 C 0.46056 0.44467 0.46659 0.0
C670 C 0.48178 0.42525 0.36974 0.0
C671 C 0.46971 0.41658 0.3259 0.0
C672 C 0.49578 0.41924 0.38416 0.0
C673 C 0.50895 0.42786 0.43026 0.0
C674 C 0.50073 0.42601 0.47666 0.0
C675 C 0.51328 0.43478 0.51964 0.0
C676 C 0.5341 0.44519 0.51677 0.0
C677 C 0.54241 0.44671 0.47096 0.0
C678 C 0.52992 0.43806 0.42785 0.0
H679 H 0.5438 0.452 0.55007 0.0
H680 H 0.42662 0.37317 0.12411 0.0
H681 H 0.50886 0.86241 0.98571 0.0
H682 H 0.50906 0.89035 0.94384 0.0
H683 H 0.52766 0.87257 0.81147 0.0
H684 H 0.52689 0.84423 0.85231 0.0
H685 H 0.55098 0.91429 0.8417 0.0
H686 H 0.4805 0.86191 0.81667 0.0
H687 H 0.44726 0.83743 0.84456 0.0
H688 H 0.44543 0.88558 0.92849 0.0
H689 H 0.47869 0.91023 0.90154 0.0
H690 H 0.53733 0.96522 0.65013 0.0
H691 H 0.53818 0.94204 0.70765 0.0
H692 H 0.5057 0.95802 0.81025 0.0
H693 H 0.50392 0.98059 0.75112 0.0
H694 H 0.49047 0.92007 0.80689 0.0
H695 H 0.55848 0.97289 0.83277 0.0
H696 H 0.5925 -0.0012 0.81234 0.0
H697 H 0.6003 0.95285 0.73618 0.0
H698 H 0.56643 0.92664 0.75644 0.0
C699 C 0.51265 0.86419 0.9474 0.0
C700 C 0.51784 0.85102 0.92237 0.0
C701 C 0.51286 0.88025 0.92367 0.0
C702 C 0.51835 0.88347 0.8746 0.0
C703 C 0.52348 0.87037 0.84947 0.0
C704 C 0.52311 0.85423 0.87297 0.0
C705 C 0.51923 0.90076 0.84947 0.0
C706 C 0.53775 0.91553 0.83368 0.0
C707 C 0.50213 0.90282 0.8412 0.0
C708 C 0.48218 0.88787 0.85755 0.0
C709 C 0.47308 0.86722 0.84145 0.0
C710 C 0.45419 0.85331 0.85698 0.0
C711 C 0.44422 0.85991 0.88835 0.0
C712 C 0.45311 0.88043 0.9042 0.0
C713 C 0.47198 0.89438 0.8888 0.0
C714 C 0.53054 0.964 0.68518 0.0
C715 C 0.52052 0.97474 0.69603 0.0
C716 C 0.5312 0.95083 0.71836 0.0
C717 C 0.52242 0.94855 0.76401 0.0
C718 C 0.51266 0.95954 0.77536 0.0
C719 C 0.51159 0.97242 0.7415 0.0
C720 C 0.52223 0.93355 0.79778 0.0
C721 C 0.50384 0.91915 0.81537 0.0
C722 C 0.53958 0.93208 0.80872 0.0
C723 C 0.55986 0.94783 0.79584 0.0
C724 C 0.5674 0.96834 0.81137 0.0
C725 C 0.58666 0.98307 0.7999 0.0
C726 C 0.59848 0.9775 0.77271 0.0
C727 C 0.59112 0.95716 0.75718 0.0
C728 C 0.57193 0.94234 0.76884 0.0
H729 H 0.61337 0.98894 0.76382 0.0
H730 H 0.4296 0.84912 0.90028 0.0
H731 H 0.70946 0.54386 0.85301 0.0
H732 H 0.68662 0.54177 0.78483 0.0
H733 H 0.63597 0.50007 0.86365 0.0
H734 H 0.65859 0.50214 0.93161 0.0
H735 H 0.6326 0.4872 0.76626 0.0
H736 H 0.65108 0.55089 0.8633 0.0
H737 H 0.67548 0.58547 0.89795 0.0
H738 H 0.69391 0.60386 0.75206 0.0
H739 H 0.66975 0.5693 0.71666 0.0
H740 H 0.54636 0.49138 0.74067 0.0
H741 H 0.57818 0.49312 0.76007 0.0
H742 H 0.6041 0.5311 0.63877 0.0
H743 H 0.57192 0.52946 0.61918 0.0
H744 H 0.62664 0.54719 0.72781 0.0
H745 H 0.60034 0.48589 0.6304 0.0
H746 H 0.57482 0.45171 0.59629 0.0
H747 H 0.57078 0.42864 0.7399 0.0
H748 H 0.59606 0.46273 0.77511 0.0
C749 C 0.69343 0.53441 0.8559 0.0
C750 C 0.68578 0.52316 0.89764 0.0
C751 C 0.68044 0.53314 0.81684 0.0
C752 C 0.65963 0.52071 0.81916 0.0
C753 C 0.65201 0.50956 0.86086 0.0
C754 C 0.66493 0.51078 0.89972 0.0
C755 C 0.64541 0.51952 0.77931 0.0
C756 C 0.63132 0.5003 0.75753 0.0
C757 C 0.64439 0.53678 0.76607 0.0
C758 C 0.65884 0.55749 0.78745 0.0
C759 C 0.66046 0.56228 0.83869 0.0
C760 C 0.67421 0.58187 0.85845 0.0
C761 C 0.68629 0.59683 0.82725 0.0
C762 C 0.68459 0.59225 0.7762 0.0
C763 C 0.67087 0.57267 0.75628 0.0
C764 C 0.55872 0.49992 0.71762 0.0
C765 C 0.55669 0.51041 0.67851 0.0
C766 C 0.57687 0.50074 0.72849 0.0
C767 C 0.59344 0.51206 0.70053 0.0
C768 C 0.59141 0.52216 0.66051 0.0
C769 C 0.57304 0.52116 0.64924 0.0
C770 C 0.61309 0.51467 0.71736 0.0
C771 C 0.6283 0.53415 0.73477 0.0
C772 C 0.61518 0.49765 0.72641 0.0
C773 C 0.60016 0.47694 0.70542 0.0
C774 C 0.59397 0.47356 0.65479 0.0
C775 C 0.57953 0.45419 0.63524 0.0
C776 C 0.57118 0.43802 0.6659 0.0
C777 C 0.57729 0.44118 0.71617 0.0
C778 C 0.59173 0.46053 0.73592 0.0
H779 H 0.55998 0.42303 0.65071 0.0
H780 H 0.69693 0.61199 0.8426 0.0
H781 H 0.16964 0.65759 0.99083 0.0
H782 H 0.14079 0.62634 0.95466 0.0
H783 H 0.10779 0.65793 0.93564 0.0
H784 H 0.13607 0.68889 0.97466 0.0
H785 H 0.08363 0.62099 0.96293 0.0
H786 H 0.13358 0.65026 0.84068 0.0
H787 H 0.16704 0.66284 0.80824 0.0
H788 H 0.16225 0.60474 0.82448 0.0
H789 H 0.1288 0.59187 0.85736 0.0
H790 H 0.02216 0.57885 0.74395 0.0
H791 H 0.04495 0.59725 0.81578 0.0
H792 H 0.06374 0.55252 0.81793 0.0
H793 H 0.04111 0.5341 0.74557 0.0
H794 H 0.09467 0.59002 0.81106 0.0
H795 H 0.04064 0.55913 0.91562 0.0
H796 H 0.00658 0.54712 0.94338 0.0
H797 H 0.01813 0.60846 0.95703 0.0
H798 H 0.05216 0.62084 0.92862 0.0
C799 C 0.15612 0.65782 0.97984 0.0
C800 C 0.15527 0.67584 0.98519 0.0
C801 C 0.13969 0.63997 0.95877 0.0
C802 C 0.12225 0.63988 0.94175 0.0
C803 C 0.12112 0.65766 0.94839 0.0
C804 C 0.13743 0.67544 0.97002 0.0
C805 C 0.10557 0.62173 0.91434 0.0
C806 C 0.08598 0.61421 0.92964 0.0
C807 C 0.10875 0.61247 0.87184 0.0
C808 C 0.12884 0.6202 0.85207 0.0
C809 C 0.13973 0.64022 0.83764 0.0
C810 C 0.15867 0.64738 0.81908 0.0
C811 C 0.16678 0.63461 0.8144 0.0
C812 C 0.15595 0.61462 0.82813 0.0
C813 C 0.137 0.60738 0.84672 0.0
C814 C 0.03078 0.57264 0.76034 0.0
C815 C 0.03001 0.55515 0.73864 0.0
C816 C 0.04369 0.58309 0.80173 0.0
C817 C 0.056 0.57621 0.82226 0.0
C818 C 0.05431 0.55803 0.80269 0.0
C819 C 0.04132 0.54751 0.76136 0.0
C820 C 0.07261 0.58966 0.85868 0.0
C821 C 0.09225 0.59637 0.84505 0.0
C822 C 0.06941 0.59825 0.90232 0.0
C823 C 0.04896 0.59091 0.91974 0.0
C824 C 0.03589 0.57006 0.92421 0.0
C825 C 0.01658 0.56318 0.94011 0.0
C826 C 0.01019 0.57702 0.95191 0.0
C827 C 0.0231 0.59776 0.9479 0.0
C828 C 0.04242 0.60472 0.93198 0.0
H829 H 0.99523 0.57166 0.9642 0.0
H830 H 0.18145 0.64018 0.80003 0.0
H831 H 0.47727 0.16709 0.97775 0.0
H832 H 0.4754 0.13618 0.9424 0.0
H833 H 0.46122 0.10997 0.08388 0.0
H834 H 0.46336 0.14114 0.11996 0.0
H835 H 0.49648 0.11719 0.96498 0.0
H836 H 0.42722 0.05813 0.05623 0.0
H837 H 0.39751 0.055 0.09613 0.0
H838 H 0.39807 0.1005 0.00671 0.0
H839 H 0.42761 0.1037 0.96592 0.0
H840 H 0.48094 0.02401 0.86081 0.0
H841 H 0.48127 0.04589 0.92997 0.0
H842 H 0.43504 0.05205 0.85227 0.0
H843 H 0.43442 0.0301 0.78327 0.0
H844 H 0.43156 0.05234 0.95378 0.0
H845 H 0.48283 0.08455 0.8343 0.0
H846 H 0.5116 0.08848 0.78839 0.0
H847 H 0.54584 0.09854 0.92538 0.0
H848 H 0.51713 0.09438 0.97211 0.0
C849 C 0.47403 0.15489 0.0016 0.0
C850 C 0.47046 0.15657 0.05164 0.0
C851 C 0.47294 0.13722 0.98132 0.0
C852 C 0.46814 0.1208 0.0105 0.0
C853 C 0.46479 0.12243 0.06067 0.0
C854 C 0.46591 0.14019 0.08109 0.0
C855 C 0.46604 0.10185 0.9872 0.0
C856 C 0.48239 0.10292 0.96324 0.0
C857 C 0.44765 0.08327 0.98485 0.0
C858 C 0.42975 0.08132 0.00855 0.0
C859 C 0.42096 0.06742 0.04506 0.0
C860 C 0.40416 0.06564 0.06781 0.0
C861 C 0.39596 0.07761 0.0541 0.0
C862 C 0.40449 0.09131 0.01745 0.0
C863 C 0.42127 0.09313 0.99455 0.0
C864 C 0.47043 0.02954 0.85896 0.0
C865 C 0.45793 0.02564 0.81604 0.0
C866 C 0.47066 0.04204 0.89857 0.0
C867 C 0.45842 0.05081 0.8958 0.0
C868 C 0.44464 0.04544 0.85506 0.0
C869 C 0.44442 0.033 0.81545 0.0
C870 C 0.4619 0.06782 0.93096 0.0
C871 C 0.44585 0.06641 0.95701 0.0
C872 C 0.4805 0.08623 0.9347 0.0
C873 C 0.49779 0.08893 0.90666 0.0
C874 C 0.49646 0.08747 0.8546 0.0
C875 C 0.51274 0.08975 0.82845 0.0
C876 C 0.53051 0.09372 0.85396 0.0
C877 C 0.53204 0.09543 0.90569 0.0
C878 C 0.51578 0.09312 0.93202 0.0
H879 H 0.54313 0.09556 0.83365 0.0
H880 H 0.38296 0.07622 0.07178 0.0
H881 H 0.33798 0.49463 0.04113 0.0
H882 H 0.36194 0.49613 0.98107 0.0
H883 H 0.32253 0.494 0.86146 0.0
H884 H 0.29888 0.49314 0.92138 0.0
H885 H 0.34104 0.46574 0.85367 0.0
H886 H 0.35628 0.53571 0.88177 0.0
H887 H 0.36443 0.5662 0.93518 0.0
H888 H 0.4173 0.56758 0.99601 0.0
H889 H 0.40926 0.53686 0.94353 0.0
H890 H 0.41089 0.48477 0.66953 0.0
H891 H 0.38472 0.4858 0.71669 0.0
H892 H 0.42736 0.51557 0.84184 0.0
H893 H 0.45356 0.51576 0.79432 0.0
H894 H 0.40509 0.53023 0.84261 0.0
H895 H 0.39111 0.46115 0.82567 0.0
H896 H 0.3841 0.42919 0.78082 0.0
H897 H 0.33097 0.42393 0.70946 0.0
H898 H 0.33781 0.45601 0.7535 0.0
C899 C 0.33443 0.49436 0.002 0.0
C900 C 0.31666 0.49384 0.9858 0.0
C901 C 0.34809 0.49525 0.96781 0.0
C902 C 0.34398 0.4952 0.91688 0.0
C903 C 0.32595 0.49404 0.90057 0.0
C904 C 0.31252 0.49362 0.93477 0.0
C905 C 0.35881 0.49702 0.88079 0.0
C906 C 0.35495 0.47988 0.85061 0.0
C907 C 0.37713 0.51532 0.87788 0.0
C908 C 0.38204 0.53386 0.90913 0.0
C909 C 0.36953 0.54239 0.9069 0.0
C910 C 0.37415 0.55974 0.93693 0.0
C911 C 0.39134 0.56879 0.96908 0.0
C912 C 0.40397 0.56053 0.97116 0.0
C913 C 0.39939 0.54316 0.94126 0.0
C914 C 0.41473 0.49188 0.70676 0.0
C915 C 0.43435 0.50006 0.72808 0.0
C916 C 0.39969 0.49226 0.734 0.0
C917 C 0.40381 0.50026 0.78359 0.0
C918 C 0.42361 0.50924 0.80388 0.0
C919 C 0.43868 0.50931 0.77644 0.0
C920 C 0.38764 0.49878 0.81542 0.0
C921 C 0.39119 0.51603 0.84504 0.0
C922 C 0.36927 0.48038 0.8188 0.0
C923 C 0.3651 0.46108 0.79241 0.0
C924 C 0.37801 0.45324 0.80017 0.0
C925 C 0.37405 0.4351 0.77493 0.0
C926 C 0.35713 0.42457 0.74219 0.0
C927 C 0.34409 0.43213 0.73475 0.0
C928 C 0.34799 0.45028 0.75984 0.0
H929 H 0.3541 0.41053 0.72269 0.0
H930 H 0.3949 0.58222 0.99229 0.0
H931 H 0.83721 0.33136 0.97602 0.0
H932 H 0.86462 0.35628 0.93028 0.0
H933 H 0.8951 0.32193 0.94206 0.0
H934 H 0.8675 0.29661 0.98685 0.0
H935 H 0.92081 0.36373 0.96099 0.0
H936 H 0.871 0.3177 0.83709 0.0
H937 H 0.83699 0.29813 0.79645 0.0
H938 H 0.83685 0.35346 0.77265 0.0
H939 H 0.87077 0.37336 0.81383 0.0
H940 H 0.96278 0.40813 0.70731 0.0
H941 H 0.94023 0.38122 0.75799 0.0
H942 H 0.95139 0.42567 0.87711 0.0
H943 H 0.97413 0.45279 0.8268 0.0
H944 H 0.90585 0.37662 0.7912 0.0
H945 H 0.94552 0.40275 0.98749 0.0
H946 H 0.97989 0.421 0.02648 0.0
H947 H 0.00146 0.40285 0.90116 0.0
H948 H 0.96718 0.38426 0.86175 0.0
C949 C 0.84963 0.32896 0.96852 0.0
C950 C 0.85004 0.31186 0.98477 0.0
C951 C 0.86534 0.3433 0.94267 0.0
C952 C 0.8818 0.34086 0.93256 0.0
C953 C 0.88255 0.32411 0.94968 0.0
C954 C 0.86677 0.30968 0.97535 0.0
C955 C 0.89789 0.35549 0.90272 0.0
C956 C 0.91759 0.36657 0.92386 0.0
C957 C 0.89369 0.35891 0.85402 0.0
C958 C 0.87335 0.347 0.82893 0.0
C959 C 0.86366 0.32569 0.82353 0.0
C960 C 0.84441 0.31454 0.80034 0.0
C961 C 0.83475 0.32454 0.78208 0.0
C962 C 0.84434 0.34573 0.78686 0.0
C963 C 0.86359 0.35695 0.81008 0.0
C964 C 0.96071 0.41224 0.74453 0.0
C965 C 0.97021 0.43269 0.7628 0.0
C966 C 0.94774 0.3968 0.7734 0.0
C967 C 0.94412 0.40143 0.82127 0.0
C968 C 0.95412 0.42173 0.84041 0.0
C969 C 0.96709 0.43723 0.8115 0.0
C970 C 0.9288 0.38517 0.84967 0.0
C971 C 0.90916 0.37379 0.82828 0.0
C972 C 0.93315 0.38135 0.89785 0.0
C973 C 0.9538 0.39228 0.92148 0.0
C974 C 0.95758 0.40259 0.96835 0.0
C975 C 0.97705 0.413 0.99051 0.0
C976 C 0.99286 0.41314 0.96624 0.0
C977 C 0.98921 0.4028 0.91983 0.0
C978 C 0.96977 0.39235 0.89753 0.0
H979 H 0.00792 0.42122 0.98345 0.0
H980 H 0.81985 0.31588 0.76415 0.0
H981 H 0.8405 0.50274 0.9755 0.0
H982 H 0.86411 0.50121 0.92042 0.0
H983 H 0.85509 0.53912 0.82108 0.0
H984 H 0.83026 0.53953 0.87429 0.0
H985 H 0.85855 0.51201 0.76782 0.0
H986 H 0.8977 0.55828 0.90219 0.0
H987 H 0.90874 0.57144 0.98899 0.0
H988 H 0.92187 0.5238 0.01345 0.0
H989 H 0.91064 0.51016 0.92698 0.0
H990 H 0.94957 0.52754 0.65251 0.0
H991 H 0.92372 0.53241 0.69123 0.0
H992 H 0.91767 0.48994 0.79916 0.0
H993 H 0.94337 0.48523 0.7612 0.0
H994 H 0.92392 0.52525 0.84265 0.0
H995 H 0.88123 0.47849 0.70337 0.0
H996 H 0.87335 0.46951 0.61369 0.0
H997 H 0.87075 0.52392 0.59557 0.0
H998 H 0.87878 0.53331 0.68515 0.0
C999 C 0.84322 0.51053 0.94164 0.0
C1000 C 0.83342 0.52138 0.92985 0.0
C1001 C 0.85701 0.50986 0.91034 0.0
C1002 C 0.8618 0.52042 0.86692 0.0
C1003 C 0.85182 0.53096 0.85446 0.0
C1004 C 0.83778 0.53141 0.88544 0.0
C1005 C 0.87741 0.52056 0.83528 0.0
C1006 C 0.87294 0.51517 0.78417 0.0
C1007 C 0.8964 0.52497 0.85603 0.0
C1008 C 0.90317 0.5331 0.90816 0.0
C1009 C 0.90281 0.55051 0.92617 0.0
C1010 C 0.90912 0.55807 0.9753 0.0
C1011 C 0.91596 0.54843 0.00674 0.0
C1012 C 0.91655 0.53124 0.98907 0.0
C1013 C 0.91023 0.5236 0.93998 0.0
C1014 C 0.9424 0.51894 0.68372 0.0
C1015 C 0.94864 0.50611 0.70386 0.0
C1016 C 0.92766 0.52177 0.70601 0.0
C1017 C 0.91881 0.51162 0.74841 0.0
C1018 C 0.92439 0.4981 0.76687 0.0
C1019 C 0.9391 0.4954 0.74498 0.0
C1020 C 0.90463 0.51568 0.77606 0.0
C1021 C 0.90953 0.52215 0.8264 0.0
C1022 C 0.88635 0.51274 0.75427 0.0
C1023 C 0.88071 0.50665 0.70088 0.0
C1024 C 0.879 0.48854 0.68024 0.0
C1025 C 0.87451 0.48339 0.62944 0.0
C1026 C 0.87157 0.49615 0.59896 0.0
C1027 C 0.87301 0.51404 0.61925 0.0
C1028 C 0.87749 0.51927 0.67004 0.0
H1029 H 0.86816 0.49216 0.55964 0.0
H1030 H 0.92085 0.55431 0.04477 0.0
H1031 H 0.3267 0.81531 0.93062 0.0
H1032 H 0.34989 0.83434 0.86814 0.0
H1033 H 0.3217 0.87074 0.8537 0.0
H1034 H 0.2988 0.85222 0.91714 0.0
H1035 H 0.32939 0.85693 0.76097 0.0
H1036 H 0.36514 0.89245 0.91847 0.0
H1037 H 0.37749 0.89243 0.00365 0.0
H1038 H 0.41032 0.86456 0.94871 0.0
H1039 H 0.39842 0.86472 0.86304 0.0
H1040 H 0.40025 0.94826 0.6646 0.0
H1041 H 0.37436 0.91812 0.69985 0.0
H1042 H 0.41726 0.89863 0.73108 0.0
H1043 H 0.44354 0.92948 0.69812 0.0
H1044 H 0.40191 0.89925 0.81046 0.0
H1045 H 0.37003 0.86685 0.65197 0.0
H1046 H 0.35566 0.86311 0.56681 0.0
H1047 H 0.31505 0.88182 0.61984 0.0
H1048 H 0.32878 0.88513 0.70547 0.0
C1049 C 0.32555 0.82751 0.91468 0.0
C1050 C 0.31089 0.83226 0.92927 0.0
C1051 C 0.33871 0.83825 0.87859 0.0
C1052 C 0.33748 0.85392 0.85625 0.0
C1053 C 0.32276 0.85856 0.87015 0.0
C1054 C 0.30968 0.84793 0.90646 0.0
C1055 C 0.35214 0.86615 0.82008 0.0
C1056 C 0.34526 0.86629 0.77161 0.0
C1057 C 0.37288 0.87776 0.83355 0.0
C1058 C 0.38085 0.87854 0.88455 0.0
C1059 C 0.37508 0.88641 0.92461 0.0
C1060 C 0.38204 0.88643 0.9729 0.0
C1061 C 0.39476 0.87858 0.98152 0.0
C1062 C 0.40064 0.87081 0.94185 0.0
C1063 C 0.39386 0.87093 0.89342 0.0
C1064 C 0.40406 0.93724 0.6774 0.0
C1065 C 0.42404 0.94146 0.67935 0.0
C1066 C 0.38912 0.91983 0.69743 0.0
C1067 C 0.39374 0.90597 0.71857 0.0
C1068 C 0.41329 0.90915 0.71566 0.0
C1069 C 0.42832 0.92677 0.69655 0.0
C1070 C 0.37931 0.89035 0.75053 0.0
C1071 C 0.38618 0.88964 0.79879 0.0
C1072 C 0.3586 0.87798 0.73644 0.0
C1073 C 0.35056 0.87642 0.68501 0.0
C1074 C 0.35812 0.87029 0.6454 0.0
C1075 C 0.35005 0.86818 0.5971 0.0
C1076 C 0.33463 0.87246 0.58786 0.0
C1077 C 0.32705 0.87858 0.62701 0.0
C1078 C 0.33485 0.88042 0.67548 0.0
H1079 H 0.32849 0.87091 0.5504 0.0
H1080 H 0.40004 0.87848 0.01896 0.0
H1081 H 0.43688 0.29959 0.97603 0.0
H1082 H 0.43555 0.3258 0.92898 0.0
H1083 H 0.49742 0.36792 0.97509 0.0
H1084 H 0.49887 0.34176 0.02186 0.0
H1085 H 0.4707 0.38394 0.98416 0.0
H1086 H 0.48845 0.34713 0.865 0.0
H1087 H 0.48357 0.31629 0.81847 0.0
H1088 H 0.42631 0.30472 0.75818 0.0
H1089 H 0.43072 0.33535 0.80497 0.0
H1090 H 0.49763 0.46153 0.81849 0.0
H1091 H 0.49479 0.43496 0.87051 0.0
H1092 H 0.43864 0.39213 0.79197 0.0
H1093 H 0.44179 0.4185 0.73852 0.0
H1094 H 0.46009 0.3753 0.80114 0.0
H1095 H 0.44194 0.41213 0.91429 0.0
H1096 H 0.44493 0.44191 0.96207 0.0
H1097 H 0.49981 0.45235 0.03546 0.0
H1098 H 0.49732 0.4228 0.98758 0.0
C1099 C 0.45015 0.31447 0.97615 0.0
C1100 C 0.46801 0.31866 0.00224 0.0
C1101 C 0.44939 0.32936 0.94926 0.0
C1102 C 0.46641 0.34873 0.94854 0.0
C1103 C 0.48415 0.35305 0.97525 0.0
C1104 C 0.485 0.33809 0.00156 0.0
C1105 C 0.46588 0.36442 0.91923 0.0
C1106 C 0.46858 0.38222 0.94409 0.0
C1107 C 0.46243 0.36175 0.8672 0.0
C1108 C 0.45982 0.3434 0.83891 0.0
C1109 C 0.47474 0.33791 0.84218 0.0
C1110 C 0.47207 0.32049 0.81568 0.0
C1111 C 0.45461 0.30852 0.7855 0.0
C1112 C 0.43981 0.31398 0.78164 0.0
C1113 C 0.44239 0.33138 0.80811 0.0
C1114 C 0.48456 0.44651 0.81261 0.0
C1115 C 0.46994 0.44213 0.77434 0.0
C1116 C 0.4829 0.43133 0.84259 0.0
C1117 C 0.46636 0.41155 0.83569 0.0
C1118 C 0.45155 0.40725 0.79804 0.0
C1119 C 0.45336 0.42235 0.76755 0.0
C1120 C 0.46507 0.39512 0.86588 0.0
C1121 C 0.46205 0.37711 0.84122 0.0
C1122 C 0.46793 0.3975 0.91821 0.0
C1123 C 0.46954 0.41535 0.94696 0.0
C1124 C 0.45474 0.42088 0.9403 0.0
C1125 C 0.45633 0.4377 0.96747 0.0
C1126 C 0.47258 0.44904 0.00169 0.0
C1127 C 0.48725 0.44356 0.00889 0.0
C1128 C 0.48575 0.42677 0.98177 0.0
H1129 H 0.47377 0.46205 0.0227 0.0
H1130 H 0.45258 0.29504 0.76501 0.0
H1131 H 0.14552 0.48711 0.0087 0.0
H1132 H 0.12454 0.48567 0.937 0.0
H1133 H 0.17403 0.50185 0.84367 0.0
H1134 H 0.19509 0.5037 0.91527 0.0
H1135 H 0.15692 0.52258 0.82185 0.0
H1136 H 0.13401 0.45271 0.84093 0.0
H1137 H 0.1214 0.42126 0.88469 0.0
H1138 H 0.06825 0.42348 0.91671 0.0
H1139 H 0.08067 0.45512 0.87376 0.0
H1140 H 0.05683 0.46639 0.64711 0.0
H1141 H 0.08681 0.46806 0.68591 0.0
H1142 H 0.09975 0.52283 0.77126 0.0
H1143 H 0.07003 0.52133 0.73273 0.0
H1144 H 0.08873 0.46366 0.78234 0.0
H1145 H 0.14614 0.55029 0.80605 0.0
H1146 H 0.16068 0.57991 0.75501 0.0
H1147 H 0.1481 0.54048 0.62445 0.0
H1148 H 0.13312 0.51067 0.67445 0.0
C1149 C 0.15184 0.49027 0.97281 0.0
C1150 C 0.17192 0.49562 0.96751 0.0
C1151 C 0.13986 0.48939 0.93186 0.0
C1152 C 0.14766 0.49344 0.88482 0.0
C1153 C 0.16771 0.49873 0.87957 0.0
C1154 C 0.17973 0.49982 0.92051 0.0
C1155 C 0.13505 0.49259 0.84129 0.0
C1156 C 0.14205 0.50964 0.81307 0.0
C1157 C 0.11593 0.47545 0.82864 0.0
C1158 C 0.10834 0.45638 0.85439 0.0
C1159 C 0.11969 0.44657 0.85759 0.0
C1160 C 0.11257 0.4287 0.88221 0.0
C1161 C 0.09405 0.4204 0.90354 0.0
C1162 C 0.0826 0.42994 0.9002 0.0
C1163 C 0.08966 0.44783 0.87566 0.0
C1164 C 0.06644 0.47915 0.67292 0.0
C1165 C 0.06087 0.4935 0.68764 0.0
C1166 C 0.08353 0.48005 0.69513 0.0
C1167 C 0.09543 0.49549 0.73168 0.0
C1168 C 0.09091 0.51088 0.74286 0.0
C1169 C 0.0738 0.50991 0.72102 0.0
C1170 C 0.11037 0.49388 0.76406 0.0
C1171 C 0.10375 0.47643 0.79054 0.0
C1172 C 0.13002 0.51038 0.77419 0.0
C1173 C 0.13843 0.52827 0.74395 0.0
C1174 C 0.14642 0.54796 0.76642 0.0
C1175 C 0.15464 0.56478 0.73764 0.0
C1176 C 0.15519 0.56208 0.68647 0.0
C1177 C 0.14745 0.54256 0.66397 0.0
C1178 C 0.13897 0.5257 0.69245 0.0
H1179 H 0.16165 0.57512 0.66428 0.0
H1180 H 0.08856 0.40656 0.92258 0.0
H1181 H 0.70502 0.17048 0.90274 0.0
H1182 H 0.67788 0.14681 0.84333 0.0
H1183 H 0.63895 0.1216 0.96328 0.0
H1184 H 0.6664 0.14478 0.02287 0.0
H1185 H 0.63179 0.09261 0.89622 0.0
H1186 H 0.63952 0.15953 0.89336 0.0
H1187 H 0.65808 0.19644 0.88393 0.0
H1188 H 0.66971 0.18596 0.73473 0.0
H1189 H 0.65144 0.14899 0.74354 0.0
H1190 H 0.53602 0.05579 0.79422 0.0
H1191 H 0.56814 0.07995 0.83631 0.0
H1192 H 0.59732 0.08655 0.69951 0.0
H1193 H 0.56493 0.06215 0.65666 0.0
H1194 H 0.61187 0.12386 0.76498 0.0
H1195 H 0.59857 0.05528 0.76782 0.0
H1196 H 0.57646 0.01894 0.77957 0.0
H1197 H 0.57333 0.03298 0.93307 0.0
H1198 H 0.59482 0.0695 0.92183 0.0
C1199 C 0.69072 0.15964 0.91629 0.0
C1200 C 0.68762 0.15946 0.9671 0.0
C1201 C 0.67524 0.14622 0.88242 0.0
C1202 C 0.65625 0.13278 0.89876 0.0
C1203 C 0.65346 0.1319 0.94983 0.0
C1204 C 0.66909 0.14511 0.98382 0.0
C1205 C 0.63898 0.12044 0.86277 0.0
C1206 C 0.62744 0.09947 0.86765 0.0
C1207 C 0.63349 0.12932 0.82476 0.0
C1208 C 0.64432 0.15153 0.8193 0.0
C1209 C 0.64615 0.16512 0.85866 0.0
C1210 C 0.65661 0.18604 0.85342 0.0
C1211 C 0.66512 0.19354 0.80881 0.0
C1212 C 0.66314 0.18013 0.76929 0.0
C1213 C 0.65274 0.15919 0.77438 0.0
C1214 C 0.54919 0.06253 0.77276 0.0
C1215 C 0.54805 0.05672 0.72226 0.0
C1216 C 0.56751 0.07639 0.7969 0.0
C1217 C 0.58506 0.08463 0.77115 0.0
C1218 C 0.58386 0.08018 0.71993 0.0
C1219 C 0.56539 0.06626 0.69554 0.0
C1220 C 0.60462 0.09626 0.79931 0.0
C1221 C 0.61653 0.11702 0.79296 0.0
C1222 C 0.61032 0.08724 0.83637 0.0
C1223 C 0.59823 0.06518 0.84387 0.0
C1224 C 0.59309 0.05065 0.80404 0.0
C1225 C 0.58062 0.03001 0.81058 0.0
C1226 C 0.5735 0.02365 0.85705 0.0
C1227 C 0.57886 0.03793 0.89709 0.0
C1228 C 0.59116 0.05861 0.89063 0.0
H1229 H 0.56384 0.00767 0.86206 0.0
H1230 H 0.67321 0.20975 0.80482 0.0
H1231 H 0.49449 0.66726 0.96089 0.0
H1232 H 0.4975 0.6386 0.92741 0.0
H1233 H 0.56165 0.67729 0.92658 0.0
H1234 H 0.5589 0.70585 0.96142 0.0
H1235 H 0.54353 0.65714 0.83588 0.0
H1236 H 0.54417 0.64188 0.00477 0.0
H1237 H 0.53201 0.63532 0.08881 0.0
H1238 H 0.47726 0.58299 0.03067 0.0
H1239 H 0.48894 0.58943 0.94609 0.0
H1240 H 0.56157 0.58418 0.73244 0.0
H1241 H 0.56355 0.60718 0.80081 0.0
H1242 H 0.49965 0.57084 0.81349 0.0
H1243 H 0.49762 0.54744 0.74599 0.0
H1244 H 0.51962 0.58985 0.90386 0.0
H1245 H 0.51646 0.60756 0.73619 0.0
H1246 H 0.52737 0.61384 0.65096 0.0
H1247 H 0.58544 0.66186 0.70651 0.0
H1248 H 0.57496 0.65562 0.79218 0.0
C1249 C 0.50928 0.66959 0.95458 0.0
C1250 C 0.52643 0.68892 0.96326 0.0
C1251 C 0.51097 0.65319 0.93548 0.0
C1252 C 0.5298 0.65587 0.9247 0.0
C1253 C 0.54698 0.67497 0.93461 0.0
C1254 C 0.54534 0.6913 0.95403 0.0
C1255 C 0.53139 0.63932 0.89862 0.0
C1256 C 0.5387 0.64258 0.85121 0.0
C1257 C 0.5245 0.62016 0.91816 0.0
C1258 C 0.51737 0.61625 0.96897 0.0
C1259 C 0.52945 0.62909 0.0098 0.0
C1260 C 0.52266 0.62537 0.05756 0.0
C1261 C 0.50387 0.60876 0.06504 0.0
C1262 C 0.49181 0.59585 0.02479 0.0
C1263 C 0.49852 0.59952 0.97692 0.0
C1264 C 0.54804 0.58073 0.75078 0.0
C1265 C 0.52938 0.56428 0.73315 0.0
C1266 C 0.54919 0.59387 0.78988 0.0
C1267 C 0.53166 0.59099 0.81123 0.0
C1268 C 0.51334 0.57339 0.7973 0.0
C1269 C 0.51221 0.56005 0.75858 0.0
C1270 C 0.53192 0.60781 0.84138 0.0
C1271 C 0.52476 0.60455 0.88908 0.0
C1272 C 0.53875 0.62702 0.82206 0.0
C1273 C 0.545 0.63098 0.77057 0.0
C1274 C 0.5316 0.61936 0.73023 0.0
C1275 C 0.5377 0.62292 0.68185 0.0
C1276 C 0.55711 0.6382 0.67333 0.0
C1277 C 0.57043 0.65 0.71317 0.0
C1278 C 0.56442 0.64647 0.76164 0.0
H1279 H 0.5618 0.64093 0.63585 0.0
H1280 H 0.4987 0.60585 0.10205 0.0
H1281 H 0.50975 0.18448 0.31011 0.0
H1282 H 0.50754 0.15556 0.35131 0.0
H1283 H 0.44319 0.12807 0.34901 0.0
H1284 H 0.44506 0.15639 0.30572 0.0
H1285 H 0.46215 0.12935 0.44264 0.0
H1286 H 0.46009 0.1087 0.27208 0.0
H1287 H 0.47184 0.11278 0.18749 0.0
H1288 H 0.52747 0.11843 0.24212 0.0
H1289 H 0.51619 0.11474 0.32723 0.0
H1290 H 0.44197 0.03589 0.52855 0.0
H1291 H 0.44145 0.06015 0.47332 0.0
H1292 H 0.50463 0.08496 0.45396 0.0
H1293 H 0.50521 0.06046 0.5084 0.0
H1294 H 0.48523 0.08431 0.36865 0.0
H1295 H 0.48859 0.10713 0.53873 0.0
H1296 H 0.4778 0.10422 0.62418 0.0
H1297 H 0.42079 0.0957 0.57126 0.0
H1298 H 0.43115 0.09828 0.48537 0.0
C1299 C 0.49507 0.17219 0.31768 0.0
C1300 C 0.47758 0.17284 0.30442 0.0
C1301 C 0.49387 0.15572 0.34145 0.0
C1302 C 0.4752 0.13968 0.35287 0.0
C1303 C 0.45774 0.14036 0.34053 0.0
C1304 C 0.45889 0.15667 0.31614 0.0
C1305 C 0.47394 0.12234 0.37852 0.0
C1306 C 0.46689 0.11928 0.42621 0.0
C1307 C 0.48059 0.10958 0.35735 0.0
C1308 C 0.48737 0.11165 0.30615 0.0
C1309 C 0.47491 0.111 0.26615 0.0
C1310 C 0.48147 0.11321 0.21808 0.0
C1311 C 0.50041 0.11591 0.20946 0.0
C1312 C 0.51281 0.11636 0.24888 0.0
C1313 C 0.50634 0.1142 0.29704 0.0
C1314 C 0.45572 0.04631 0.51205 0.0
C1315 C 0.4737 0.04638 0.5234 0.0
C1316 C 0.45539 0.06021 0.48055 0.0
C1317 C 0.4731 0.07466 0.46037 0.0
C1318 C 0.49081 0.07401 0.46928 0.0
C1319 C 0.49111 0.05998 0.50048 0.0
C1320 C 0.47342 0.09128 0.43292 0.0
C1321 C 0.48036 0.09427 0.38498 0.0
C1322 C 0.46679 0.10411 0.45396 0.0
C1323 C 0.46057 0.10269 0.5056 0.0
C1324 C 0.4737 0.10449 0.54529 0.0
C1325 C 0.46767 0.10292 0.5938 0.0
C1326 C 0.4486 0.09972 0.60313 0.0
C1327 C 0.43554 0.09815 0.56397 0.0
C1328 C 0.44149 0.09967 0.51537 0.0
H1329 H 0.44396 0.09851 0.64072 0.0
H1330 H 0.50546 0.11761 0.17222 0.0
H1331 H 0.29307 0.4752 0.35782 0.0
H1332 H 0.31738 0.47622 0.41997 0.0
H1333 H 0.36252 0.49706 0.31252 0.0
H1334 H 0.33818 0.49552 0.2499 0.0
H1335 H 0.36388 0.46886 0.36747 0.0
H1336 H 0.35956 0.5301 0.39581 0.0
H1337 H 0.34184 0.54889 0.41419 0.0
H1338 H 0.32441 0.52033 0.55139 0.0
H1339 H 0.34183 0.50117 0.53346 0.0
H1340 H 0.45824 0.53233 0.46675 0.0
H1341 H 0.4246 0.52382 0.43755 0.0
H1342 H 0.4002 0.48834 0.56338 0.0
H1343 H 0.43413 0.49666 0.59286 0.0
H1344 H 0.38318 0.51705 0.51543 0.0
H1345 H 0.39259 0.45904 0.48939 0.0
H1346 H 0.4136 0.4439 0.46989 0.0
H1347 H 0.42295 0.4683 0.32691 0.0
H1348 H 0.40235 0.48397 0.34601 0.0
C1349 C 0.30808 0.47967 0.34723 0.0
C1350 C 0.31376 0.48537 0.29901 0.0
C1351 C 0.32197 0.48038 0.38288 0.0
C1352 C 0.34177 0.48688 0.37095 0.0
C1353 C 0.3473 0.492 0.32248 0.0
C1354 C 0.33344 0.4913 0.28687 0.0
C1355 C 0.35714 0.48928 0.40906 0.0
C1356 C 0.36792 0.47921 0.4001 0.0
C1357 C 0.36216 0.50247 0.45223 0.0
C1358 C 0.35176 0.51402 0.463 0.0
C1359 C 0.35181 0.52771 0.4297 0.0
C1360 C 0.34184 0.53844 0.44006 0.0
C1361 C 0.33194 0.53575 0.48384 0.0
C1362 C 0.33204 0.52236 0.51743 0.0
C1363 C 0.34196 0.51156 0.50719 0.0
C1364 C 0.44582 0.52307 0.48895 0.0
C1365 C 0.44877 0.51481 0.53168 0.0
C1366 C 0.42663 0.51833 0.4723 0.0
C1367 C 0.41004 0.50529 0.49806 0.0
C1368 C 0.41294 0.49844 0.54313 0.0
C1369 C 0.43229 0.5032 0.55991 0.0
C1370 C 0.38995 0.49689 0.47316 0.0
C1371 C 0.37847 0.50599 0.48407 0.0
C1372 C 0.38425 0.48281 0.43173 0.0
C1373 C 0.39602 0.47278 0.41928 0.0
C1374 C 0.39923 0.46128 0.45392 0.0
C1375 C 0.41106 0.45261 0.44294 0.0
C1376 C 0.41963 0.45517 0.39722 0.0
C1377 C 0.41631 0.46634 0.36232 0.0
C1378 C 0.40454 0.4751 0.37319 0.0
H1379 H 0.42882 0.44847 0.38882 0.0
H1380 H 0.32424 0.54408 0.49181 0.0
H1381 H 0.87104 0.32352 0.21562 0.0
H1382 H 0.89969 0.35484 0.2529 0.0
H1383 H 0.86032 0.37801 0.28888 0.0
H1384 H 0.83164 0.34681 0.25068 0.0
H1385 H 0.89643 0.40815 0.26132 0.0
H1386 H 0.87252 0.35464 0.37371 0.0
H1387 H 0.86263 0.32035 0.39933 0.0
H1388 H 0.92192 0.33084 0.37692 0.0
H1389 H 0.93207 0.3651 0.35045 0.0
H1390 H 0.94839 0.47154 0.47972 0.0
H1391 H 0.92689 0.44955 0.40911 0.0
H1392 H 0.96745 0.42651 0.38781 0.0
H1393 H 0.9884 0.44775 0.45991 0.0
H1394 H 0.9322 0.39714 0.40139 0.0
H1395 H 0.95702 0.45341 0.29812 0.0
H1396 H 0.96597 0.48795 0.27658 0.0
H1397 H 0.90466 0.47317 0.28617 0.0
H1398 H 0.89538 0.43861 0.30835 0.0
C1399 C 0.86855 0.33536 0.23129 0.0
C1400 C 0.84915 0.33269 0.2311 0.0
C1401 C 0.8849 0.35325 0.25226 0.0
C1402 C 0.88204 0.36859 0.27423 0.0
C1403 C 0.86281 0.36635 0.27203 0.0
C1404 C 0.84647 0.34852 0.2505 0.0
C1405 C 0.89872 0.38598 0.30358 0.0
C1406 C 0.90428 0.40585 0.29209 0.0
C1407 C 0.90902 0.38287 0.34331 0.0
C1408 C 0.90298 0.36233 0.35959 0.0
C1409 C 0.8834 0.34957 0.37391 0.0
C1410 C 0.87775 0.33015 0.38862 0.0
C1411 C 0.89162 0.3234 0.38962 0.0
C1412 C 0.91119 0.33607 0.37604 0.0
C1413 C 0.9169 0.35549 0.3612 0.0
C1414 C 0.95301 0.46225 0.45892 0.0
C1415 C 0.9698 0.46101 0.4755 0.0
C1416 C 0.94077 0.44974 0.41839 0.0
C1417 C 0.9455 0.43628 0.39323 0.0
C1418 C 0.96342 0.43664 0.40693 0.0
C1419 C 0.97537 0.44876 0.44804 0.0
C1420 C 0.93034 0.41956 0.35893 0.0
C1421 C 0.9248 0.39965 0.36996 0.0
C1422 C 0.92004 0.42275 0.31925 0.0
C1423 C 0.92553 0.44344 0.30519 0.0
C1424 C 0.94547 0.45755 0.2959 0.0
C1425 C 0.9506 0.47713 0.28353 0.0
C1426 C 0.9359 0.48276 0.28008 0.0
C1427 C 0.91603 0.46879 0.28884 0.0
C1428 C 0.91082 0.44919 0.30121 0.0
H1429 H 0.93991 0.49793 0.27056 0.0
H1430 H 0.88723 0.30836 0.40102 0.0
H1431 H 0.56817 0.88519 0.18453 0.0
H1432 H 0.57097 0.91618 0.22344 0.0
H1433 H 0.50788 0.89286 0.18915 0.0
H1434 H 0.50499 0.86183 0.14975 0.0
H1435 H 0.53343 0.93619 0.17757 0.0
H1436 H 0.51956 0.88536 0.29602 0.0
H1437 H 0.52595 0.8609 0.33835 0.0
H1438 H 0.58486 0.90886 0.38856 0.0
H1439 H 0.57891 0.93355 0.34583 0.0
H1440 H 0.50669 0.98456 0.3681 0.0
H1441 H 0.51094 0.964 0.30298 0.0
H1442 H 0.57007 0.98248 0.3671 0.0
H1443 H 0.56555 0.00234 0.43316 0.0
H1444 H 0.54906 0.94353 0.3589 0.0
H1445 H 0.56189 0.99556 0.25042 0.0
H1446 H 0.55602 0.0204 0.20856 0.0
H1447 H 0.50083 0.97207 0.13937 0.0
H1448 H 0.50617 0.94693 0.18155 0.0
C1449 C 0.55498 0.88684 0.18443 0.0
C1450 C 0.53631 0.87105 0.16465 0.0
C1451 C 0.55661 0.90452 0.20663 0.0
C1452 C 0.53961 0.9067 0.20924 0.0
C1453 C 0.52116 0.89143 0.18729 0.0
C1454 C 0.51949 0.87367 0.16539 0.0
C1455 C 0.5406 0.92377 0.23973 0.0
C1456 C 0.53673 0.93784 0.21727 0.0
C1457 C 0.54536 0.92604 0.29123 0.0
C1458 C 0.54888 0.91124 0.31727 0.0
C1459 C 0.53394 0.89065 0.31573 0.0
C1460 C 0.53746 0.87675 0.33985 0.0
C1461 C 0.55582 0.88331 0.366 0.0
C1462 C 0.57066 0.90379 0.36821 0.0
C1463 C 0.56722 0.91774 0.34406 0.0
C1464 C 0.52078 0.98463 0.36749 0.0
C1465 C 0.53567 0.99478 0.40598 0.0
C1466 C 0.52324 0.97294 0.33015 0.0
C1467 C 0.54082 0.97163 0.33022 0.0
C1468 C 0.55632 0.98311 0.36652 0.0
C1469 C 0.55372 0.99446 0.40423 0.0
C1470 C 0.54198 0.95629 0.29704 0.0
C1471 C 0.54609 0.94229 0.31911 0.0
C1472 C 0.53758 0.95428 0.24526 0.0
C1473 C 0.53436 0.96934 0.21951 0.0
C1474 C 0.54841 0.99022 0.2266 0.0
C1475 C 0.54519 0.00436 0.20276 0.0
C1476 C 0.52805 0.99782 0.17138 0.0
C1477 C 0.5141 0.97712 0.16371 0.0
C1478 C 0.51723 0.9629 0.18756 0.0
H1479 H 0.52558 0.0088 0.15294 0.0
H1480 H 0.55852 0.87253 0.38467 0.0
H1481 H 0.68774 0.55152 0.21862 0.0
H1482 H 0.66473 0.55037 0.28008 0.0
H1483 H 0.64108 0.48603 0.28748 0.0
H1484 H 0.66457 0.48709 0.22739 0.0
H1485 H 0.61111 0.49805 0.28264 0.0
H1486 H 0.67228 0.51509 0.37655 0.0
H1487 H 0.70878 0.53491 0.39664 0.0
H1488 H 0.70524 0.58912 0.42104 0.0
H1489 H 0.66875 0.56966 0.40038 0.0
H1490 H 0.55329 0.49383 0.48342 0.0
H1491 H 0.57703 0.4891 0.4344 0.0
H1492 H 0.61756 0.55392 0.44606 0.0
H1493 H 0.59468 0.55839 0.49838 0.0
H1494 H 0.63898 0.53837 0.44301 0.0
H1495 H 0.57935 0.5236 0.34342 0.0
H1496 H 0.54297 0.50526 0.32105 0.0
H1497 H 0.54342 0.44922 0.30185 0.0
H1498 H 0.57971 0.46714 0.32542 0.0
C1499 C 0.6778 0.53711 0.23349 0.0
C1500 C 0.67823 0.51943 0.21805 0.0
C1501 C 0.66455 0.53648 0.26848 0.0
C1502 C 0.6513 0.51815 0.28869 0.0
C1503 C 0.65115 0.50034 0.2723 0.0
C1504 C 0.66456 0.50098 0.23764 0.0
C1505 C 0.638 0.51776 0.32782 0.0
C1506 C 0.61713 0.50663 0.31803 0.0
C1507 C 0.6459 0.52926 0.37355 0.0
C1508 C 0.66781 0.54094 0.38653 0.0
C1509 C 0.67931 0.53126 0.38585 0.0
C1510 C 0.69999 0.54243 0.3974 0.0
C1511 C 0.70933 0.56327 0.41001 0.0
C1512 C 0.69799 0.57297 0.41123 0.0
C1513 C 0.6773 0.56188 0.39966 0.0
C1514 C 0.56756 0.50696 0.47659 0.0
C1515 C 0.57217 0.52648 0.49461 0.0
C1516 C 0.58101 0.5043 0.44796 0.0
C1517 C 0.59887 0.5212 0.43469 0.0
C1518 C 0.60391 0.54057 0.45523 0.0
C1519 C 0.59082 0.54315 0.48533 0.0
C1520 C 0.61186 0.51907 0.39769 0.0
C1521 C 0.63278 0.52969 0.40783 0.0
C1522 C 0.60397 0.50739 0.35182 0.0
C1523 C 0.58221 0.49668 0.33673 0.0
C1524 C 0.57167 0.50735 0.33471 0.0
C1525 C 0.55106 0.49702 0.32193 0.0
C1526 C 0.54088 0.47607 0.31029 0.0
C1527 C 0.55132 0.46543 0.31109 0.0
C1528 C 0.57189 0.47566 0.32427 0.0
H1529 H 0.52491 0.46809 0.30051 0.0
H1530 H 0.72535 0.57189 0.41892 0.0
H1531 H 0.138 0.68297 0.16981 0.0
H1532 H 0.10978 0.65797 0.21345 0.0
H1533 H 0.14217 0.68652 0.35343 0.0
H1534 H 0.17056 0.71144 0.30987 0.0
H1535 H 0.12517 0.64664 0.35436 0.0
H1536 H 0.10329 0.69308 0.30774 0.0
H1537 H 0.09573 0.71296 0.25022 0.0
H1538 H 0.05216 0.658 0.16829 0.0
H1539 H 0.05965 0.63779 0.22497 0.0
H1540 H 0.04552 0.60571 0.51306 0.0
H1541 H 0.07023 0.63061 0.46165 0.0
H1542 H 0.04244 0.58932 0.33258 0.0
H1543 H 0.01774 0.56397 0.38395 0.0
H1544 H 0.05597 0.63435 0.32353 0.0
H1545 H 0.07863 0.58819 0.36907 0.0
H1546 H 0.08546 0.56834 0.42823 0.0
H1547 H 0.1272 0.62323 0.5133 0.0
H1548 H 0.12044 0.64343 0.45481 0.0
C1549 C 0.13903 0.68402 0.20991 0.0
C1550 C 0.15645 0.69923 0.23646 0.0
C1551 C 0.12289 0.66973 0.23481 0.0
C1552 C 0.12373 0.67053 0.28676 0.0
C1553 C 0.14118 0.68561 0.31333 0.0
C1554 C 0.15739 0.69982 0.28844 0.0
C1555 C 0.10657 0.65547 0.31345 0.0
C1556 C 0.11011 0.64417 0.34792 0.0
C1557 C 0.08677 0.65182 0.3043 0.0
C1558 C 0.08218 0.66394 0.27032 0.0
C1559 C 0.09221 0.68524 0.27724 0.0
C1560 C 0.08792 0.69657 0.24483 0.0
C1561 C 0.07351 0.68675 0.20555 0.0
C1562 C 0.06333 0.66559 0.19869 0.0
C1563 C 0.06758 0.65419 0.23097 0.0
C1564 C 0.04436 0.60199 0.47361 0.0
C1565 C 0.02971 0.58277 0.45265 0.0
C1566 C 0.05854 0.61625 0.44436 0.0
C1567 C 0.05818 0.61169 0.39356 0.0
C1568 C 0.0429 0.59305 0.37182 0.0
C1569 C 0.02886 0.5786 0.40123 0.0
C1570 C 0.07474 0.62583 0.36429 0.0
C1571 C 0.07106 0.63688 0.32957 0.0
C1572 C 0.09442 0.6293 0.37315 0.0
C1573 C 0.09884 0.61729 0.40791 0.0
C1574 C 0.08914 0.59602 0.40061 0.0
C1575 C 0.09302 0.5847 0.43396 0.0
C1576 C 0.10666 0.59451 0.47466 0.0
C1577 C 0.11659 0.61566 0.48183 0.0
C1578 C 0.11276 0.62706 0.44854 0.0
H1579 H 0.10952 0.5857 0.50062 0.0
H1580 H 0.07021 0.69555 0.18049 0.0
loop_
_geom_bond_atom_site_label_1
_geom_bond_atom_site_label_2
_geom_bond_distance
_geom_bond_site_symmetry_2
_ccdc_geom_bond_type
H0 C19 0.949 . S
H1 C20 0.950 . S
H2 C22 0.950 . S
H3 C23 0.950 . S
H4 C25 0.950 . S
H5 C28 0.950 . S
H6 C29 0.950 . S
H7 C31 0.951 . S
H8 C32 0.949 . S
H9 C34 0.949 . S
H10 C35 0.950 . S
H11 C37 0.950 . S
H12 C38 0.950 . S
H13 C40 0.950 . S
H14 C43 0.950 . S
H15 C44 0.950 . S
H16 C46 0.951 . S
H17 C47 0.949 . S
C18 C19 1.376 . S
C18 C23 1.386 . S
C18 C24 1.483 . S
C19 H0 0.949 . S
C19 C18 1.376 . S
C19 C20 1.397 . S
C20 H1 0.950 . S
C20 C19 1.397 . S
C20 C21 1.391 . S
C21 C20 1.391 . S
C21 C22 1.405 . S
C22 H2 0.950 . S
C22 C21 1.405 . S
C22 C23 1.367 . S
C23 H3 0.950 . S
C23 C18 1.386 . S
C23 C22 1.367 . S
C24 C18 1.483 . S
C24 C25 1.382 . S
C24 C26 1.403 . S
C25 H4 0.950 . S
C25 C24 1.382 . S
C25 C41 1.411 . S
C26 C24 1.403 . S
C26 C27 1.489 . S
C26 C40 1.411 . S
C27 C26 1.489 . S
C27 C28 1.383 . S
C27 C32 1.382 . S
C28 H5 0.950 . S
C28 C27 1.383 . S
C28 C29 1.395 . S
C29 H6 0.950 . S
C29 C28 1.395 . S
C29 C30 1.288 . S
C30 C29 1.288 . S
C30 C31 1.392 . S
C31 H7 0.951 . S
C31 C30 1.392 . S
C31 C32 1.392 . S
C32 H8 0.949 . S
C32 C27 1.382 . S
C32 C31 1.392 . S
C33 C34 1.376 . S
C33 C38 1.386 . S
C33 C39 1.483 . S
C34 H9 0.949 . S
C34 C33 1.376 . S
C34 C35 1.397 . S
C35 H10 0.950 . S
C35 C34 1.397 . S
C35 C36 1.391 . S
C36 C35 1.391 . S
C36 C37 1.405 . S
C37 H11 0.950 . S
C37 C36 1.405 . S
C37 C38 1.367 . S
C38 H12 0.950 . S
C38 C33 1.386 . S
C38 C37 1.367 . S
C39 C33 1.483 . S
C39 C40 1.382 . S
C39 C41 1.403 . S
C40 H13 0.950 . S
C40 C26 1.411 . S
C40 C39 1.382 . S
C41 C25 1.411 . S
C41 C39 1.403 . S
C41 C42 1.489 . S
C42 C41 1.489 . S
C42 C43 1.383 . S
C42 C47 1.382 . S
C43 H14 0.950 . S
C43 C42 1.383 . S
C43 C44 1.395 . S
C44 H15 0.950 . S
C44 C43 1.395 . S
C44 C45 1.288 . S
C45 C44 1.288 . S
C45 C46 1.392 . S
C46 H16 0.951 . S
C46 C45 1.392 . S
C46 C47 1.392 . S
C47 H17 0.949 . S
C47 C42 1.382 . S
C47 C46 1.392 . S
H48 C67 0.949 . S
H49 C68 0.950 1_556 S
H50 C70 0.950 . S
H51 C71 0.950 . S
H52 C73 0.950 . S
H53 C76 0.950 . S
H54 C77 0.950 . S
H55 C79 0.951 . S
H56 C80 0.949 . S
H57 C82 0.949 . S
H58 C83 0.950 . S
H59 C85 0.950 . S
H60 C86 0.950 . S
H61 C88 0.950 . S
H62 C91 0.950 . S
H63 C92 0.950 . S
H64 C94 0.951 1_556 S
H65 C95 0.949 . S
C66 C67 1.376 . S
C66 C71 1.386 . S
C66 C72 1.483 . S
C67 H48 0.949 . S
C67 C66 1.376 . S
C67 C68 1.397 . S
C68 H49 0.950 1_554 S
C68 C67 1.397 . S
C68 C69 1.391 . S
C69 C68 1.391 . S
C69 C70 1.405 . S
C70 H50 0.950 . S
C70 C69 1.405 . S
C70 C71 1.367 . S
C71 H51 0.950 . S
C71 C66 1.386 . S
C71 C70 1.367 . S
C72 C66 1.483 . S
C72 C73 1.382 . S
C72 C74 1.403 . S
C73 H52 0.950 . S
C73 C72 1.382 . S
C73 C89 1.411 . S
C74 C72 1.403 . S
C74 C75 1.489 . S
C74 C88 1.411 . S
C75 C74 1.489 . S
C75 C76 1.383 . S
C75 C80 1.382 . S
C76 H53 0.950 . S
C76 C75 1.383 . S
C76 C77 1.395 . S
C77 H54 0.950 . S
C77 C76 1.395 . S
C77 C78 1.288 . S
C78 C77 1.288 . S
C78 C79 1.392 . S
C79 H55 0.951 . S
C79 C78 1.392 . S
C79 C80 1.392 . S
C80 H56 0.949 . S
C80 C75 1.382 . S
C80 C79 1.392 . S
C81 C82 1.376 . S
C81 C86 1.386 . S
C81 C87 1.483 . S
C82 H57 0.949 . S
C82 C81 1.376 . S
C82 C83 1.397 . S
C83 H58 0.950 . S
C83 C82 1.397 . S
C83 C84 1.391 . S
C84 C83 1.391 . S
C84 C85 1.405 . S
C85 H59 0.950 . S
C85 C84 1.405 . S
C85 C86 1.367 . S
C86 H60 0.950 . S
C86 C81 1.386 . S
C86 C85 1.367 . S
C87 C81 1.483 . S
C87 C88 1.382 . S
C87 C89 1.403 . S
C88 H61 0.950 . S
C88 C74 1.411 . S
C88 C87 1.382 . S
C89 C73 1.411 . S
C89 C87 1.403 . S
C89 C90 1.489 . S
C90 C89 1.489 . S
C90 C91 1.383 . S
C90 C95 1.382 . S
C91 H62 0.950 . S
C91 C90 1.383 . S
C91 C92 1.395 . S
C92 H63 0.950 . S
C92 C91 1.395 . S
C92 C93 1.288 . S
C93 C92 1.288 . S
C93 C94 1.392 . S
C94 H64 0.951 1_554 S
C94 C93 1.392 . S
C94 C95 1.392 . S
C95 H65 0.949 . S
C95 C90 1.382 . S
C95 C94 1.392 . S
H96 C115 0.949 . S
H97 C116 0.950 . S
H98 C118 0.950 . S
H99 C119 0.950 . S
H100 C121 0.950 . S
H101 C124 0.950 . S
H102 C125 0.950 . S
H103 C127 0.951 . S
H104 C128 0.949 . S
H105 C130 0.949 . S
H106 C131 0.950 . S
H107 C133 0.950 . S
H108 C134 0.950 . S
H109 C136 0.950 . S
H110 C139 0.950 . S
H111 C140 0.950 . S
H112 C142 0.951 . S
H113 C143 0.949 . S
C114 C115 1.376 . S
C114 C119 1.386 . S
C114 C120 1.483 . S
C115 H96 0.949 . S
C115 C114 1.376 . S
C115 C116 1.397 . S
C116 H97 0.950 . S
C116 C115 1.397 . S
C116 C117 1.391 . S
C117 C116 1.391 . S
C117 C118 1.405 . S
C118 H98 0.950 . S
C118 C117 1.405 . S
C118 C119 1.367 . S
C119 H99 0.950 . S
C119 C114 1.386 . S
C119 C118 1.367 . S
C120 C114 1.483 . S
C120 C121 1.382 . S
C120 C122 1.403 1_556 S
C121 H100 0.950 . S
C121 C120 1.382 . S
C121 C137 1.411 . S
C122 C120 1.403 1_554 S
C122 C123 1.489 . S
C122 C136 1.411 . S
C123 C122 1.489 . S
C123 C124 1.383 . S
C123 C128 1.382 . S
C124 H101 0.950 . S
C124 C123 1.383 . S
C124 C125 1.395 . S
C125 H102 0.950 . S
C125 C124 1.395 . S
C125 C126 1.288 . S
C126 C125 1.288 . S
C126 C127 1.392 . S
C127 H103 0.951 . S
C127 C126 1.392 . S
C127 C128 1.392 . S
C128 H104 0.949 . S
C128 C123 1.382 . S
C128 C127 1.392 . S
C129 C130 1.376 . S
C129 C134 1.386 . S
C129 C135 1.483 . S
C130 H105 0.949 . S
C130 C129 1.376 . S
C130 C131 1.397 . S
C131 H106 0.950 . S
C131 C130 1.397 . S
C131 C132 1.391 . S
C132 C131 1.391 . S
C132 C133 1.405 . S
C133 H107 0.950 . S
C133 C132 1.405 . S
C133 C134 1.367 . S
C134 H108 0.950 . S
C134 C129 1.386 . S
C134 C133 1.367 . S
C135 C129 1.483 . S
C135 C136 1.382 . S
C135 C137 1.403 1_554 S
C136 H109 0.950 . S
C136 C122 1.411 . S
C136 C135 1.382 . S
C137 C121 1.411 . S
C137 C135 1.403 1_556 S
C137 C138 1.489 . S
C138 C137 1.489 . S
C138 C139 1.383 . S
C138 C143 1.382 . S
C139 H110 0.950 . S
C139 C138 1.383 . S
C139 C140 1.395 . S
C140 H111 0.950 . S
C140 C139 1.395 . S
C140 C141 1.288 . S
C141 C140 1.288 . S
C141 C142 1.392 . S
C142 H112 0.951 . S
C142 C141 1.392 . S
C142 C143 1.392 . S
C143 H113 0.949 . S
C143 C138 1.382 . S
C143 C142 1.392 . S
H144 C163 0.949 . S
H145 C164 0.950 . S
H146 C166 0.950 . S
H147 C167 0.950 . S
H148 C169 0.950 . S
H149 C172 0.950 . S
H150 C173 0.950 . S
H151 C175 0.951 . S
H152 C176 0.949 . S
H153 C178 0.949 . S
H154 C179 0.950 . S
H155 C181 0.950 . S
H156 C182 0.950 . S
H157 C184 0.950 1_556 S
H158 C187 0.950 . S
H159 C188 0.950 . S
H160 C190 0.951 . S
H161 C191 0.949 . S
C162 C163 1.376 . S
C162 C167 1.386 . S
C162 C168 1.483 . S
C163 H144 0.949 . S
C163 C162 1.376 . S
C163 C164 1.397 . S
C164 H145 0.950 . S
C164 C163 1.397 . S
C164 C165 1.391 . S
C165 C164 1.391 . S
C165 C166 1.405 . S
C166 H146 0.950 . S
C166 C165 1.405 . S
C166 C167 1.367 . S
C167 H147 0.950 . S
C167 C162 1.386 . S
C167 C166 1.367 . S
C168 C162 1.483 . S
C168 C169 1.382 . S
C168 C170 1.403 . S
C169 H148 0.950 . S
C169 C168 1.382 . S
C169 C185 1.411 . S
C170 C168 1.403 . S
C170 C171 1.489 . S
C170 C184 1.411 . S
C171 C170 1.489 . S
C171 C172 1.383 . S
C171 C176 1.382 1_554 S
C172 H149 0.950 . S
C172 C171 1.383 . S
C172 C173 1.395 1_554 S
C173 H150 0.950 . S
C173 C172 1.395 1_556 S
C173 C174 1.288 . S
C174 C173 1.288 . S
C174 C175 1.392 . S
C175 H151 0.951 . S
C175 C174 1.392 . S
C175 C176 1.392 . S
C176 H152 0.949 . S
C176 C171 1.382 1_556 S
C176 C175 1.392 . S
C177 C178 1.376 1_554 S
C177 C182 1.386 . S
C177 C183 1.483 . S
C178 H153 0.949 . S
C178 C177 1.376 1_556 S
C178 C179 1.397 . S
C179 H154 0.950 . S
C179 C178 1.397 . S
C179 C180 1.391 . S
C180 C179 1.391 . S
C180 C181 1.405 . S
C181 H155 0.950 . S
C181 C180 1.405 . S
C181 C182 1.367 1_556 S
C182 H156 0.950 . S
C182 C177 1.386 . S
C182 C181 1.367 1_554 S
C183 C177 1.483 . S
C183 C184 1.382 . S
C183 C185 1.403 . S
C184 H157 0.950 1_554 S
C184 C170 1.411 . S
C184 C183 1.382 . S
C185 C169 1.411 . S
C185 C183 1.403 . S
C185 C186 1.489 . S
C186 C185 1.489 . S
C186 C187 1.383 . S
C186 C191 1.382 . S
C187 H158 0.950 . S
C187 C186 1.383 . S
C187 C188 1.395 . S
C188 H159 0.950 . S
C188 C187 1.395 . S
C188 C189 1.288 . S
C189 C188 1.288 . S
C189 C190 1.392 . S
C190 H160 0.951 . S
C190 C189 1.392 . S
C190 C191 1.392 . S
C191 H161 0.949 . S
C191 C186 1.382 . S
C191 C190 1.392 . S
H192 C211 0.949 . S
H193 C212 0.950 . S
H194 C214 0.950 . S
H195 C215 0.950 . S
H196 C217 0.966 . S
H197 C220 0.950 . S
H198 C221 0.950 . S
H199 C223 0.951 . S
H200 C224 0.949 . S
H201 C226 0.949 . S
H202 C227 0.950 . S
H203 C229 0.950 . S
H204 C230 0.950 . S
H205 C232 0.950 . S
H206 C235 0.950 . S
H207 C236 0.951 . S
H208 C238 0.951 . S
H209 C239 0.949 . S
C210 C211 1.376 . S
C210 C215 1.386 . S
C210 C216 1.483 . S
C211 H192 0.949 . S
C211 C210 1.376 . S
C211 C212 1.397 1_554 S
C212 H193 0.950 . S
C212 C211 1.397 1_556 S
C212 C213 1.391 . S
C213 C212 1.391 . S
C213 C214 1.405 1_556 S
C214 H194 0.950 . S
C214 C213 1.405 1_554 S
C214 C215 1.367 . S
C215 H195 0.950 . S
C215 C210 1.386 . S
C215 C214 1.367 . S
C216 C210 1.483 . S
C216 C217 1.382 . S
C216 C218 1.403 . S
C217 H196 0.966 . S
C217 C216 1.382 . S
C217 C233 1.411 . S
C218 C216 1.403 . S
C218 C219 1.489 . S
C218 C232 1.411 . S
C219 C218 1.489 . S
C219 C220 1.383 . S
C219 C224 1.382 . S
C220 H197 0.950 . S
C220 C219 1.383 . S
C220 C221 1.395 . S
C221 H198 0.950 . S
C221 C220 1.395 . S
C221 C222 1.288 . S
C222 C221 1.288 . S
C222 C223 1.392 . S
C223 H199 0.951 . S
C223 C222 1.392 . S
C223 C224 1.392 . S
C224 H200 0.949 . S
C224 C219 1.382 . S
C224 C223 1.392 . S
C225 C226 1.376 . S
C225 C230 1.386 . S
C225 C231 1.483 . S
C226 H201 0.949 . S
C226 C225 1.376 . S
C226 C227 1.397 . S
C227 H202 0.950 . S
C227 C226 1.397 . S
C227 C228 1.391 . S
C228 C227 1.391 . S
C228 C229 1.405 . S
C229 H203 0.950 . S
C229 C228 1.405 . S
C229 C230 1.367 . S
C230 H204 0.950 . S
C230 C225 1.386 . S
C230 C229 1.367 . S
C231 C225 1.483 . S
C231 C232 1.382 . S
C231 C233 1.403 . S
C232 H205 0.950 . S
C232 C218 1.411 . S
C232 C231 1.382 . S
C233 C217 1.411 . S
C233 C231 1.403 . S
C233 C234 1.489 . S
C234 C233 1.489 . S
C234 C235 1.383 . S
C234 C239 1.382 1_554 S
C235 H206 0.950 . S
C235 C234 1.383 . S
C235 C236 1.395 1_554 S
C236 H207 0.951 . S
C236 C235 1.395 1_556 S
C236 C237 1.288 . S
C237 C236 1.288 . S
C237 C238 1.392 . S
C238 H208 0.951 . S
C238 C237 1.392 . S
C238 C239 1.392 . S
C239 H209 0.949 . S
C239 C234 1.382 1_556 S
C239 C238 1.392 . S
H240 C259 0.949 . S
H241 C260 0.950 . S
H242 C262 0.950 . S
H243 C263 0.950 . S
H244 C265 0.950 . S
H245 C268 0.950 . S
H246 C269 0.950 . S
H247 C271 0.951 . S
H248 C272 0.949 . S
H249 C274 0.949 . S
H250 C275 0.950 . S
H251 C277 0.950 . S
H252 C278 0.950 . S
H253 C280 0.950 . S
H254 C283 0.950 . S
H255 C284 0.950 . S
H256 C286 0.951 . S
H257 C287 0.949 . S
C258 C259 1.376 . S
C258 C263 1.386 . S
C258 C264 1.483 . S
C259 H240 0.949 . S
C259 C258 1.376 . S
C259 C260 1.397 . S
C260 H241 0.950 . S
C260 C259 1.397 . S
C260 C261 1.391 . S
C261 C260 1.391 . S
C261 C262 1.405 . S
C262 H242 0.950 . S
C262 C261 1.405 . S
C262 C263 1.367 . S
C263 H243 0.950 . S
C263 C258 1.386 . S
C263 C262 1.367 . S
C264 C258 1.483 . S
C264 C265 1.382 . S
C264 C266 1.403 . S
C265 H244 0.950 . S
C265 C264 1.382 . S
C265 C281 1.411 . S
C266 C264 1.403 . S
C266 C267 1.489 . S
C266 C280 1.411 . S
C267 C266 1.489 . S
C267 C268 1.383 . S
C267 C272 1.382 . S
C268 H245 0.950 . S
C268 C267 1.383 . S
C268 C269 1.395 . S
C269 H246 0.950 . S
C269 C268 1.395 . S
C269 C270 1.288 . S
C270 C269 1.288 . S
C270 C271 1.392 . S
C271 H247 0.951 . S
C271 C270 1.392 . S
C271 C272 1.392 . S
C272 H248 0.949 . S
C272 C267 1.382 . S
C272 C271 1.392 . S
C273 C274 1.376 . S
C273 C278 1.386 . S
C273 C279 1.483 . S
C274 H249 0.949 . S
C274 C273 1.376 . S
C274 C275 1.397 . S
C275 H250 0.950 . S
C275 C274 1.397 . S
C275 C276 1.391 . S
C276 C275 1.391 . S
C276 C277 1.405 . S
C277 H251 0.950 . S
C277 C276 1.405 . S
C277 C278 1.367 . S
C278 H252 0.950 . S
C278 C273 1.386 . S
C278 C277 1.367 . S
C279 C273 1.483 . S
C279 C280 1.382 . S
C279 C281 1.403 . S
C280 H253 0.950 . S
C280 C266 1.411 . S
C280 C279 1.382 . S
C281 C265 1.411 . S
C281 C279 1.403 . S
C281 C282 1.489 . S
C282 C281 1.489 . S
C282 C283 1.383 . S
C282 C287 1.382 . S
C283 H254 0.950 . S
C283 C282 1.383 . S
C283 C284 1.395 . S
C284 H255 0.950 . S
C284 C283 1.395 . S
C284 C285 1.288 . S
C285 C284 1.288 . S
C285 C286 1.392 . S
C286 H256 0.951 . S
C286 C285 1.392 . S
C286 C287 1.392 . S
C287 H257 0.949 . S
C287 C282 1.382 . S
C287 C286 1.392 . S
C288 O300 1.241 . S
C288 O301 1.280 . S
C289 O302 1.277 . S
C289 O303 1.245 . S
C290 O314 1.247 . S
C290 O316 1.289 . S
Mg291 O292 1.926 . S
Mg291 O301 1.984 . S
Mg291 O303 1.988 1_655 S
Mg291 O304 2.061 . S
O292 Mg291 1.926 . S
O292 Mg293 1.988 1_655 S
O292 Mg294 1.919 1_655 S
Mg293 O292 1.988 1_455 S
Mg293 O300 2.032 1_455 S
Mg293 O302 2.076 . S
Mg293 O308 2.004 1_455 S
Mg293 O316 2.246 . S
Mg294 O292 1.919 1_455 S
Mg294 O295 1.915 . S
Mg294 O305 2.101 1_455 S
Mg294 O307 2.058 1_455 S
Mg294 O316 2.112 . S
Mg294 O317 2.099 . S
O295 Mg294 1.915 . S
O295 Mg296 1.926 . S
O295 Mg297 1.986 . S
Mg296 O295 1.926 . S
Mg296 O310 1.984 . S
Mg296 O313 1.988 1_455 S
Mg296 O314 2.061 . S
Mg297 O295 1.986 . S
Mg297 O305 2.236 1_455 S
Mg297 O309 2.045 . S
Mg297 O311 2.034 1_455 S
Mg297 O318 2.046 . S
C298 O304 1.247 . S
C298 O305 1.289 . S
C299 O317 1.245 . S
C299 O318 1.274 . S
O300 C288 1.241 . S
O300 Mg293 2.032 1_655 S
O301 C288 1.280 . S
O301 Mg291 1.984 . S
O302 C289 1.277 . S
O302 Mg293 2.076 . S
O303 C289 1.245 . S
O303 Mg291 1.988 1_455 S
O304 Mg291 2.061 . S
O304 C298 1.247 . S
O305 Mg294 2.101 1_655 S
O305 Mg297 2.236 1_655 S
O305 C298 1.289 . S
C306 O307 1.245 . S
C306 O308 1.274 . S
O307 Mg294 2.058 1_655 S
O307 C306 1.245 . S
O308 Mg293 2.004 1_655 S
O308 C306 1.274 . S
O309 Mg297 2.045 . S
O309 C312 1.241 . S
O310 Mg296 1.984 . S
O310 C312 1.280 . S
O311 Mg297 2.034 1_655 S
O311 C315 1.277 . S
C312 O309 1.241 . S
C312 O310 1.280 . S
O313 Mg296 1.988 1_655 S
O313 C315 1.245 . S
O314 C290 1.247 . S
O314 Mg296 2.061 . S
C315 O311 1.277 . S
C315 O313 1.245 . S
O316 C290 1.289 . S
O316 Mg293 2.246 . S
O316 Mg294 2.112 . S
O317 Mg294 2.099 . S
O317 C299 1.245 . S
O318 Mg297 2.046 . S
O318 C299 1.274 . S
C319 O331 1.241 . S
C319 O332 1.280 . S
C320 O333 1.277 . S
C320 O334 1.245 . S
C321 O345 1.247 . S
C321 O347 1.289 . S
Mg322 O323 1.926 . S
Mg322 O332 1.984 . S
Mg322 O334 1.988 1_545 S
Mg322 O335 2.061 . S
O323 Mg322 1.926 . S
O323 Mg324 1.986 . S
O323 Mg325 1.917 . S
Mg324 O323 1.986 . S
Mg324 O331 2.042 . S
Mg324 O333 2.041 1_545 S
Mg324 O339 2.038 . S
Mg324 O347 2.238 1_545 S
Mg325 O323 1.917 . S
Mg325 O326 1.917 . S
Mg325 O336 2.106 . S
Mg325 O338 2.079 . S
Mg325 O347 2.106 1_545 S
Mg325 O348 2.079 1_545 S
O326 Mg325 1.917 . S
O326 Mg327 1.930 . S
O326 Mg328 1.986 . S
Mg327 O326 1.930 . S
Mg327 O341 1.981 1_545 S
Mg327 O344 1.993 . S
Mg327 O345 2.059 1_545 S
Mg328 O326 1.986 . S
Mg328 O336 2.238 . S
Mg328 O340 2.042 1_545 S
Mg328 O342 2.041 . S
Mg328 O349 2.038 1_545 S
C329 O335 1.247 . S
C329 O336 1.289 . S
C330 O348 1.245 . S
C330 O349 1.274 . S
O331 C319 1.241 . S
O331 Mg324 2.042 . S
O332 C319 1.280 . S
O332 Mg322 1.984 . S
O333 C320 1.277 . S
O333 Mg324 2.041 1_565 S
O334 C320 1.245 . S
O334 Mg322 1.988 1_565 S
O335 Mg322 2.061 . S
O335 C329 1.247 . S
O336 Mg325 2.106 . S
O336 Mg328 2.238 . S
O336 C329 1.289 . S
C337 O338 1.245 . S
C337 O339 1.274 . S
O338 Mg325 2.079 . S
O338 C337 1.245 . S
O339 Mg324 2.038 . S
O339 C337 1.274 . S
O340 Mg328 2.042 1_565 S
O340 C343 1.241 . S
O341 Mg327 1.981 1_565 S
O341 C343 1.280 . S
O342 Mg328 2.041 . S
O342 C346 1.277 . S
C343 O340 1.241 . S
C343 O341 1.280 . S
O344 Mg327 1.993 . S
O344 C346 1.245 . S
O345 C321 1.247 . S
O345 Mg327 2.059 1_565 S
C346 O342 1.277 . S
C346 O344 1.245 . S
O347 C321 1.289 . S
O347 Mg324 2.238 1_565 S
O347 Mg325 2.106 1_565 S
O348 Mg325 2.079 1_565 S
O348 C330 1.245 . S
O349 Mg328 2.038 1_565 S
O349 C330 1.274 . S
C350 O362 1.241 . S
C350 O363 1.280 . S
C351 O364 1.277 . S
C351 O365 1.245 . S
C352 O376 1.247 . S
C352 O378 1.289 . S
Mg353 O354 1.926 . S
Mg353 O363 1.984 . S
Mg353 O365 1.988 . S
Mg353 O366 2.061 . S
O354 Mg353 1.926 . S
O354 Mg355 1.986 . S
O354 Mg356 1.917 . S
Mg355 O354 1.986 . S
Mg355 O362 2.042 . S
Mg355 O364 2.041 . S
Mg355 O370 2.038 . S
Mg355 O378 2.238 . S
Mg356 O354 1.917 . S
Mg356 O357 1.917 . S
Mg356 O367 2.106 . S
Mg356 O369 2.079 . S
Mg356 O378 2.106 . S
Mg356 O379 2.079 . S
O357 Mg356 1.917 . S
O357 Mg358 1.926 . S
O357 Mg359 1.986 . S
Mg358 O357 1.926 . S
Mg358 O372 1.984 . S
Mg358 O375 1.988 . S
Mg358 O376 2.061 . S
Mg359 O357 1.986 . S
Mg359 O367 2.238 . S
Mg359 O371 2.042 . S
Mg359 O373 2.041 . S
Mg359 O380 2.038 . S
C360 O366 1.247 . S
C360 O367 1.289 . S
C361 O379 1.245 . S
C361 O380 1.274 . S
O362 C350 1.241 . S
O362 Mg355 2.042 . S
O363 C350 1.280 . S
O363 Mg353 1.984 . S
O364 C351 1.277 . S
O364 Mg355 2.041 . S
O365 C351 1.245 . S
O365 Mg353 1.988 . S
O366 Mg353 2.061 . S
O366 C360 1.247 . S
O367 Mg356 2.106 . S
O367 Mg359 2.238 . S
O367 C360 1.289 . S
C368 O369 1.245 . S
C368 O370 1.274 . S
O369 Mg356 2.079 . S
O369 C368 1.245 . S
O370 Mg355 2.038 . S
O370 C368 1.274 . S
O371 Mg359 2.042 . S
O371 C374 1.241 . S
O372 Mg358 1.984 . S
O372 C374 1.280 . S
O373 Mg359 2.041 . S
O373 C377 1.277 . S
C374 O371 1.241 . S
C374 O372 1.280 . S
O375 Mg358 1.988 . S
O375 C377 1.245 . S
O376 C352 1.247 . S
O376 Mg358 2.061 . S
C377 O373 1.277 . S
C377 O375 1.245 . S
O378 C352 1.289 . S
O378 Mg355 2.238 . S
O378 Mg356 2.106 . S
O379 Mg356 2.079 . S
O379 C361 1.245 . S
O380 Mg359 2.038 . S
O380 C361 1.274 . S
H381 C399 0.951 . S
H382 C401 0.951 . S
H383 C403 0.950 . S
H384 C404 0.950 . S
H385 C406 0.950 . S
H386 C409 0.950 . S
H387 C410 0.950 . S
H388 C412 0.950 . S
H389 C413 0.950 . S
H390 C414 0.951 . S
H391 C416 0.951 . S
H392 C418 0.950 . S
H393 C419 0.950 . S
H394 C421 0.950 . S
H395 C424 0.950 . S
H396 C425 0.950 . S
H397 C427 0.950 . S
H398 C428 0.950 . S
C399 H381 0.951 . S
C399 C400 1.366 . S
C399 C401 1.388 . S
C400 C399 1.366 . S
C400 C404 1.385 . S
C401 H382 0.951 . S
C401 C399 1.388 . S
C401 C402 1.366 . S
C402 C401 1.366 . S
C402 C403 1.414 . S
C402 C405 1.499 . S
C403 H383 0.950 . S
C403 C402 1.414 . S
C403 C404 1.374 . S
C404 H384 0.950 . S
C404 C400 1.385 . S
C404 C403 1.374 . S
C405 C402 1.499 . S
C405 C406 1.373 . S
C405 C407 1.389 . S
C406 H385 0.950 . S
C406 C405 1.373 . S
C406 C422 1.377 . S
C407 C405 1.389 . S
C407 C408 1.524 . S
C407 C421 1.377 . S
C408 C407 1.524 . S
C408 C409 1.397 . S
C408 C413 1.363 . S
C409 H386 0.950 . S
C409 C408 1.397 . S
C409 C410 1.334 . S
C410 H387 0.950 . S
C410 C409 1.334 . S
C410 C411 1.287 . S
C411 C410 1.287 . S
C411 C412 1.524 . S
C411 H430 0.913 . S
C412 H388 0.950 . S
C412 C411 1.524 . S
C412 C413 1.415 . S
C413 H389 0.950 . S
C413 C408 1.363 . S
C413 C412 1.415 . S
C414 H390 0.951 . S
C414 C415 1.366 . S
C414 C416 1.388 . S
C415 C414 1.366 . S
C415 C419 1.385 . S
C416 H391 0.951 . S
C416 C414 1.388 . S
C416 C417 1.366 . S
C417 C416 1.366 . S
C417 C418 1.414 . S
C417 C420 1.499 . S
C418 H392 0.950 . S
C418 C417 1.414 . S
C418 C419 1.374 . S
C419 H393 0.950 . S
C419 C415 1.385 . S
C419 C418 1.374 . S
C420 C417 1.499 . S
C420 C421 1.373 . S
C420 C422 1.389 . S
C421 H394 0.950 . S
C421 C407 1.377 . S
C421 C420 1.373 . S
C422 C406 1.377 . S
C422 C420 1.389 . S
C422 C423 1.524 . S
C423 C422 1.524 . S
C423 C424 1.397 . S
C423 C428 1.363 . S
C424 H395 0.950 . S
C424 C423 1.397 . S
C424 C425 1.334 . S
C425 H396 0.950 . S
C425 C424 1.334 . S
C425 C426 1.287 . S
C426 C425 1.287 . S
C426 C427 1.524 . S
C426 H429 0.999 . S
C427 H397 0.950 . S
C427 C426 1.524 . S
C427 C428 1.415 . S
C428 H398 0.950 . S
C428 C423 1.363 . S
C428 C427 1.415 . S
H429 C426 0.999 . S
H430 C411 0.913 . S
H431 C449 0.951 . S
H432 C451 0.951 . S
H433 C453 0.950 . S
H434 C454 0.950 . S
H435 C456 0.950 . S
H436 C459 0.950 . S
H437 C460 0.950 . S
H438 C462 0.950 . S
H439 C463 0.950 . S
H440 C464 0.951 . S
H441 C466 0.951 . S
H442 C468 0.950 . S
H443 C469 0.950 . S
H444 C471 0.950 . S
H445 C474 0.950 . S
H446 C475 0.950 . S
H447 C477 0.950 . S
H448 C478 0.950 . S
C449 H431 0.951 . S
C449 C450 1.366 . S
C449 C451 1.388 . S
C450 C449 1.366 . S
C450 C454 1.385 . S
C451 H432 0.951 . S
C451 C449 1.388 . S
C451 C452 1.366 . S
C452 C451 1.366 . S
C452 C453 1.414 . S
C452 C455 1.499 . S
C453 H433 0.950 . S
C453 C452 1.414 . S
C453 C454 1.374 . S
C454 H434 0.950 . S
C454 C450 1.385 . S
C454 C453 1.374 . S
C455 C452 1.499 . S
C455 C456 1.373 . S
C455 C457 1.389 . S
C456 H435 0.950 . S
C456 C455 1.373 . S
C456 C472 1.377 . S
C457 C455 1.389 . S
C457 C458 1.524 . S
C457 C471 1.377 . S
C458 C457 1.524 . S
C458 C459 1.397 . S
C458 C463 1.363 . S
C459 H436 0.950 . S
C459 C458 1.397 . S
C459 C460 1.334 . S
C460 H437 0.950 . S
C460 C459 1.334 . S
C460 C461 1.287 . S
C461 C460 1.287 . S
C461 C462 1.524 . S
C461 H480 0.913 . S
C462 H438 0.950 . S
C462 C461 1.524 . S
C462 C463 1.415 . S
C463 H439 0.950 . S
C463 C458 1.363 . S
C463 C462 1.415 . S
C464 H440 0.951 . S
C464 C465 1.366 . S
C464 C466 1.388 . S
C465 C464 1.366 . S
C465 C469 1.385 . S
C466 H441 0.951 . S
C466 C464 1.388 . S
C466 C467 1.366 . S
C467 C466 1.366 . S
C467 C468 1.414 . S
C467 C470 1.499 . S
C468 H442 0.950 . S
C468 C467 1.414 . S
C468 C469 1.374 . S
C469 H443 0.950 . S
C469 C465 1.385 . S
C469 C468 1.374 . S
C470 C467 1.499 . S
C470 C471 1.373 . S
C470 C472 1.389 . S
C471 H444 0.950 . S
C471 C457 1.377 . S
C471 C470 1.373 . S
C472 C456 1.377 . S
C472 C470 1.389 . S
C472 C473 1.524 . S
C473 C472 1.524 . S
C473 C474 1.397 . S
C473 C478 1.363 . S
C474 H445 0.950 . S
C474 C473 1.397 . S
C474 C475 1.334 . S
C475 H446 0.950 . S
C475 C474 1.334 . S
C475 C476 1.287 . S
C476 C475 1.287 . S
C476 C477 1.524 . S
C476 H479 0.999 . S
C477 H447 0.950 . S
C477 C476 1.524 . S
C477 C478 1.415 . S
C478 H448 0.950 . S
C478 C473 1.363 . S
C478 C477 1.415 . S
H479 C476 0.999 . S
H480 C461 0.913 . S
H481 C499 0.951 . S
H482 C501 0.951 . S
H483 C503 0.950 . S
H484 C504 0.950 . S
H485 C506 0.950 . S
H486 C509 0.950 . S
H487 C510 0.950 . S
H488 C512 0.950 . S
H489 C513 0.950 . S
H490 C514 0.951 . S
H491 C516 0.951 . S
H492 C518 0.950 . S
H493 C519 0.950 . S
H494 C521 0.950 . S
H495 C524 0.950 . S
H496 C525 0.950 . S
H497 C527 0.950 . S
H498 C528 0.950 . S
C499 H481 0.951 . S
C499 C500 1.366 . S
C499 C501 1.388 . S
C500 C499 1.366 . S
C500 C504 1.385 . S
C501 H482 0.951 . S
C501 C499 1.388 . S
C501 C502 1.366 . S
C502 C501 1.366 . S
C502 C503 1.414 . S
C502 C505 1.499 . S
C503 H483 0.950 . S
C503 C502 1.414 . S
C503 C504 1.374 . S
C504 H484 0.950 . S
C504 C500 1.385 . S
C504 C503 1.374 . S
C505 C502 1.499 . S
C505 C506 1.373 . S
C505 C507 1.389 . S
C506 H485 0.950 . S
C506 C505 1.373 . S
C506 C522 1.377 . S
C507 C505 1.389 . S
C507 C508 1.524 . S
C507 C521 1.377 . S
C508 C507 1.524 . S
C508 C509 1.397 . S
C508 C513 1.363 . S
C509 H486 0.950 . S
C509 C508 1.397 . S
C509 C510 1.334 . S
C510 H487 0.950 . S
C510 C509 1.334 . S
C510 C511 1.287 . S
C511 C510 1.287 . S
C511 C512 1.524 . S
C511 H530 0.913 . S
C512 H488 0.950 . S
C512 C511 1.524 . S
C512 C513 1.415 . S
C513 H489 0.950 . S
C513 C508 1.363 . S
C513 C512 1.415 . S
C514 H490 0.951 . S
C514 C515 1.366 . S
C514 C516 1.388 . S
C515 C514 1.366 . S
C515 C519 1.385 . S
C516 H491 0.951 . S
C516 C514 1.388 . S
C516 C517 1.366 . S
C517 C516 1.366 . S
C517 C518 1.414 . S
C517 C520 1.499 . S
C518 H492 0.950 . S
C518 C517 1.414 . S
C518 C519 1.374 . S
C519 H493 0.950 . S
C519 C515 1.385 . S
C519 C518 1.374 . S
C520 C517 1.499 . S
C520 C521 1.373 . S
C520 C522 1.389 . S
C521 H494 0.950 . S
C521 C507 1.377 . S
C521 C520 1.373 . S
C522 C506 1.377 . S
C522 C520 1.389 . S
C522 C523 1.524 . S
C523 C522 1.524 . S
C523 C524 1.397 . S
C523 C528 1.363 . S
C524 H495 0.950 . S
C524 C523 1.397 . S
C524 C525 1.334 . S
C525 H496 0.950 . S
C525 C524 1.334 . S
C525 C526 1.287 . S
C526 C525 1.287 . S
C526 C527 1.524 . S
C526 H529 0.999 . S
C527 H497 0.950 . S
C527 C526 1.524 . S
C527 C528 1.415 . S
C528 H498 0.950 . S
C528 C523 1.363 . S
C528 C527 1.415 . S
H529 C526 0.999 . S
H530 C511 0.913 . S
H531 C549 0.951 . S
H532 C551 0.951 . S
H533 C553 0.950 . S
H534 C554 0.950 . S
H535 C556 0.950 . S
H536 C559 0.950 . S
H537 C560 0.950 . S
H538 C562 0.950 . S
H539 C563 0.950 . S
H540 C564 0.951 . S
H541 C566 0.951 . S
H542 C568 0.950 . S
H543 C569 0.950 . S
H544 C571 0.950 . S
H545 C574 0.950 . S
H546 C575 0.950 . S
H547 C577 0.950 . S
H548 C578 0.950 . S
C549 H531 0.951 . S
C549 C550 1.366 . S
C549 C551 1.388 . S
C550 C549 1.366 . S
C550 C554 1.385 . S
C551 H532 0.951 . S
C551 C549 1.388 . S
C551 C552 1.366 . S
C552 C551 1.366 . S
C552 C553 1.414 . S
C552 C555 1.499 . S
C553 H533 0.950 . S
C553 C552 1.414 . S
C553 C554 1.374 . S
C554 H534 0.950 . S
C554 C550 1.385 . S
C554 C553 1.374 . S
C555 C552 1.499 . S
C555 C556 1.373 . S
C555 C557 1.389 . S
C556 H535 0.950 . S
C556 C555 1.373 . S
C556 C572 1.377 . S
C557 C555 1.389 . S
C557 C558 1.524 . S
C557 C571 1.377 . S
C558 C557 1.524 . S
C558 C559 1.397 . S
C558 C563 1.363 . S
C559 H536 0.950 . S
C559 C558 1.397 . S
C559 C560 1.334 . S
C560 H537 0.950 . S
C560 C559 1.334 . S
C560 C561 1.287 . S
C561 C560 1.287 . S
C561 C562 1.524 . S
C561 H580 0.913 . S
C562 H538 0.950 . S
C562 C561 1.524 . S
C562 C563 1.415 . S
C563 H539 0.950 . S
C563 C558 1.363 . S
C563 C562 1.415 . S
C564 H540 0.951 . S
C564 C565 1.366 . S
C564 C566 1.388 . S
C565 C564 1.366 . S
C565 C569 1.385 . S
C566 H541 0.951 . S
C566 C564 1.388 . S
C566 C567 1.366 . S
C567 C566 1.366 . S
C567 C568 1.414 . S
C567 C570 1.499 . S
C568 H542 0.950 . S
C568 C567 1.414 . S
C568 C569 1.374 . S
C569 H543 0.950 . S
C569 C565 1.385 . S
C569 C568 1.374 . S
C570 C567 1.499 . S
C570 C571 1.373 . S
C570 C572 1.389 . S
C571 H544 0.950 . S
C571 C557 1.377 . S
C571 C570 1.373 . S
C572 C556 1.377 . S
C572 C570 1.389 . S
C572 C573 1.524 . S
C573 C572 1.524 . S
C573 C574 1.397 . S
C573 C578 1.363 . S
C574 H545 0.950 . S
C574 C573 1.397 . S
C574 C575 1.334 . S
C575 H546 0.950 . S
C575 C574 1.334 . S
C575 C576 1.287 . S
C576 C575 1.287 . S
C576 C577 1.524 . S
C576 H579 0.999 . S
C577 H547 0.950 . S
C577 C576 1.524 . S
C577 C578 1.415 . S
C578 H548 0.950 . S
C578 C573 1.363 . S
C578 C577 1.415 . S
H579 C576 0.999 . S
H580 C561 0.913 . S
H581 C599 0.951 . S
H582 C601 0.951 . S
H583 C603 0.950 . S
H584 C604 0.950 . S
H585 C606 0.950 . S
H586 C609 0.950 . S
H587 C610 0.950 . S
H588 C612 0.950 . S
H589 C613 0.950 . S
H590 C614 0.951 . S
H591 C616 0.951 . S
H592 C618 0.950 . S
H593 C619 0.950 . S
H594 C621 0.950 . S
H595 C624 0.950 . S
H596 C625 0.950 . S
H597 C627 0.950 . S
H598 C628 0.950 . S
C599 H581 0.951 . S
C599 C600 1.366 . S
C599 C601 1.388 . S
C600 C599 1.366 . S
C600 C604 1.385 . S
C601 H582 0.951 . S
C601 C599 1.388 . S
C601 C602 1.366 . S
C602 C601 1.366 . S
C602 C603 1.414 . S
C602 C605 1.499 . S
C603 H583 0.950 . S
C603 C602 1.414 . S
C603 C604 1.374 . S
C604 H584 0.950 . S
C604 C600 1.385 . S
C604 C603 1.374 . S
C605 C602 1.499 . S
C605 C606 1.373 . S
C605 C607 1.389 . S
C606 H585 0.950 . S
C606 C605 1.373 . S
C606 C622 1.377 . S
C607 C605 1.389 . S
C607 C608 1.524 . S
C607 C621 1.377 . S
C608 C607 1.524 . S
C608 C609 1.397 . S
C608 C613 1.363 . S
C609 H586 0.950 . S
C609 C608 1.397 . S
C609 C610 1.334 . S
C610 H587 0.950 . S
C610 C609 1.334 . S
C610 C611 1.287 . S
C611 C610 1.287 . S
C611 C612 1.524 . S
C611 H630 0.913 . S
C612 H588 0.950 . S
C612 C611 1.524 . S
C612 C613 1.415 . S
C613 H589 0.950 . S
C613 C608 1.363 . S
C613 C612 1.415 . S
C614 H590 0.951 . S
C614 C615 1.366 . S
C614 C616 1.388 . S
C615 C614 1.366 . S
C615 C619 1.385 . S
C616 H591 0.951 . S
C616 C614 1.388 . S
C616 C617 1.366 . S
C617 C616 1.366 . S
C617 C618 1.414 . S
C617 C620 1.499 . S
C618 H592 0.950 . S
C618 C617 1.414 . S
C618 C619 1.374 . S
C619 H593 0.950 . S
C619 C615 1.385 . S
C619 C618 1.374 . S
C620 C617 1.499 . S
C620 C621 1.373 . S
C620 C622 1.389 . S
C621 H594 0.950 . S
C621 C607 1.377 . S
C621 C620 1.373 . S
C622 C606 1.377 . S
C622 C620 1.389 . S
C622 C623 1.524 . S
C623 C622 1.524 . S
C623 C624 1.397 . S
C623 C628 1.363 . S
C624 H595 0.950 . S
C624 C623 1.397 . S
C624 C625 1.334 . S
C625 H596 0.950 . S
C625 C624 1.334 . S
C625 C626 1.287 . S
C626 C625 1.287 . S
C626 C627 1.524 . S
C626 H629 0.999 . S
C627 H597 0.950 . S
C627 C626 1.524 . S
C627 C628 1.415 . S
C628 H598 0.950 . S
C628 C623 1.363 . S
C628 C627 1.415 . S
H629 C626 0.999 . S
H630 C611 0.913 . S
H631 C649 0.951 . S
H632 C651 0.951 . S
H633 C653 0.950 . S
H634 C654 0.950 . S
H635 C656 0.950 . S
H636 C659 0.950 . S
H637 C660 0.950 . S
H638 C662 0.950 . S
H639 C663 0.950 . S
H640 C664 0.951 . S
H641 C666 0.951 . S
H642 C668 0.950 . S
H643 C669 0.950 . S
H644 C671 0.950 . S
H645 C674 0.950 . S
H646 C675 0.950 . S
H647 C677 0.950 . S
H648 C678 0.950 . S
C649 H631 0.951 . S
C649 C650 1.366 . S
C649 C651 1.388 . S
C650 C649 1.366 . S
C650 C654 1.385 . S
C651 H632 0.951 . S
C651 C649 1.388 . S
C651 C652 1.366 . S
C652 C651 1.366 . S
C652 C653 1.414 . S
C652 C655 1.499 . S
C653 H633 0.950 . S
C653 C652 1.414 . S
C653 C654 1.374 . S
C654 H634 0.950 . S
C654 C650 1.385 . S
C654 C653 1.374 . S
C655 C652 1.499 . S
C655 C656 1.373 . S
C655 C657 1.389 . S
C656 H635 0.950 . S
C656 C655 1.373 . S
C656 C672 1.377 . S
C657 C655 1.389 . S
C657 C658 1.524 . S
C657 C671 1.377 . S
C658 C657 1.524 . S
C658 C659 1.397 . S
C658 C663 1.363 . S
C659 H636 0.950 . S
C659 C658 1.397 . S
C659 C660 1.334 . S
C660 H637 0.950 . S
C660 C659 1.334 . S
C660 C661 1.287 . S
C661 C660 1.287 . S
C661 C662 1.524 . S
C661 H680 0.913 . S
C662 H638 0.950 . S
C662 C661 1.524 . S
C662 C663 1.415 . S
C663 H639 0.950 . S
C663 C658 1.363 . S
C663 C662 1.415 . S
C664 H640 0.951 . S
C664 C665 1.366 . S
C664 C666 1.388 . S
C665 C664 1.366 . S
C665 C669 1.385 . S
C666 H641 0.951 . S
C666 C664 1.388 . S
C666 C667 1.366 . S
C667 C666 1.366 . S
C667 C668 1.414 . S
C667 C670 1.499 . S
C668 H642 0.950 . S
C668 C667 1.414 . S
C668 C669 1.374 . S
C669 H643 0.950 . S
C669 C665 1.385 . S
C669 C668 1.374 . S
C670 C667 1.499 . S
C670 C671 1.373 . S
C670 C672 1.389 . S
C671 H644 0.950 . S
C671 C657 1.377 . S
C671 C670 1.373 . S
C672 C656 1.377 . S
C672 C670 1.389 . S
C672 C673 1.524 . S
C673 C672 1.524 . S
C673 C674 1.397 . S
C673 C678 1.363 . S
C674 H645 0.950 . S
C674 C673 1.397 . S
C674 C675 1.334 . S
C675 H646 0.950 . S
C675 C674 1.334 . S
C675 C676 1.287 . S
C676 C675 1.287 . S
C676 C677 1.524 . S
C676 H679 0.999 . S
C677 H647 0.950 . S
C677 C676 1.524 . S
C677 C678 1.415 . S
C678 H648 0.950 . S
C678 C673 1.363 . S
C678 C677 1.415 . S
H679 C676 0.999 . S
H680 C661 0.913 . S
H681 C699 0.951 . S
H682 C701 0.951 . S
H683 C703 0.950 . S
H684 C704 0.950 . S
H685 C706 0.950 . S
H686 C709 0.950 . S
H687 C710 0.950 . S
H688 C712 0.950 . S
H689 C713 0.950 . S
H690 C714 0.951 . S
H691 C716 0.951 . S
H692 C718 0.950 . S
H693 C719 0.950 . S
H694 C721 0.950 . S
H695 C724 0.950 . S
H696 C725 0.950 . S
H697 C727 0.950 . S
H698 C728 0.950 . S
C699 H681 0.951 . S
C699 C700 1.366 . S
C699 C701 1.388 . S
C700 C699 1.366 . S
C700 C704 1.385 . S
C701 H682 0.951 . S
C701 C699 1.388 . S
C701 C702 1.366 . S
C702 C701 1.366 . S
C702 C703 1.414 . S
C702 C705 1.499 . S
C703 H683 0.950 . S
C703 C702 1.414 . S
C703 C704 1.374 . S
C704 H684 0.950 . S
C704 C700 1.385 . S
C704 C703 1.374 . S
C705 C702 1.499 . S
C705 C706 1.373 . S
C705 C707 1.389 . S
C706 H685 0.950 . S
C706 C705 1.373 . S
C706 C722 1.377 . S
C707 C705 1.389 . S
C707 C708 1.524 . S
C707 C721 1.377 . S
C708 C707 1.524 . S
C708 C709 1.397 . S
C708 C713 1.363 . S
C709 H686 0.950 . S
C709 C708 1.397 . S
C709 C710 1.334 . S
C710 H687 0.950 . S
C710 C709 1.334 . S
C710 C711 1.287 . S
C711 C710 1.287 . S
C711 C712 1.524 . S
C711 H730 0.913 . S
C712 H688 0.950 . S
C712 C711 1.524 . S
C712 C713 1.415 . S
C713 H689 0.950 . S
C713 C708 1.363 . S
C713 C712 1.415 . S
C714 H690 0.951 . S
C714 C715 1.366 . S
C714 C716 1.388 . S
C715 C714 1.366 . S
C715 C719 1.385 . S
C716 H691 0.951 . S
C716 C714 1.388 . S
C716 C717 1.366 . S
C717 C716 1.366 . S
C717 C718 1.414 . S
C717 C720 1.499 . S
C718 H692 0.950 . S
C718 C717 1.414 . S
C718 C719 1.374 . S
C719 H693 0.950 . S
C719 C715 1.385 . S
C719 C718 1.374 . S
C720 C717 1.499 . S
C720 C721 1.373 . S
C720 C722 1.389 . S
C721 H694 0.950 . S
C721 C707 1.377 . S
C721 C720 1.373 . S
C722 C706 1.377 . S
C722 C720 1.389 . S
C722 C723 1.524 . S
C723 C722 1.524 . S
C723 C724 1.397 . S
C723 C728 1.363 . S
C724 H695 0.950 . S
C724 C723 1.397 . S
C724 C725 1.334 . S
C725 H696 0.950 . S
C725 C724 1.334 . S
C725 C726 1.287 . S
C726 C725 1.287 . S
C726 C727 1.524 . S
C726 H729 0.998 . S
C727 H697 0.950 . S
C727 C726 1.524 . S
C727 C728 1.415 . S
C728 H698 0.950 . S
C728 C723 1.363 . S
C728 C727 1.415 . S
H729 C726 0.998 . S
H730 C711 0.913 . S
H731 C749 0.951 . S
H732 C751 0.951 . S
H733 C753 0.950 . S
H734 C754 0.950 . S
H735 C756 0.950 . S
H736 C759 0.950 . S
H737 C760 0.950 . S
H738 C762 0.950 . S
H739 C763 0.950 . S
H740 C764 0.951 . S
H741 C766 0.951 . S
H742 C768 0.950 . S
H743 C769 0.950 . S
H744 C771 0.950 . S
H745 C774 0.950 . S
H746 C775 0.950 . S
H747 C777 0.950 . S
H748 C778 0.950 . S
C749 H731 0.951 . S
C749 C750 1.366 . S
C749 C751 1.388 . S
C750 C749 1.366 . S
C750 C754 1.385 . S
C751 H732 0.951 . S
C751 C749 1.388 . S
C751 C752 1.366 . S
C752 C751 1.366 . S
C752 C753 1.414 . S
C752 C755 1.499 . S
C753 H733 0.950 . S
C753 C752 1.414 . S
C753 C754 1.374 . S
C754 H734 0.950 . S
C754 C750 1.385 . S
C754 C753 1.374 . S
C755 C752 1.499 . S
C755 C756 1.373 . S
C755 C757 1.389 . S
C756 H735 0.950 . S
C756 C755 1.373 . S
C756 C772 1.377 . S
C757 C755 1.389 . S
C757 C758 1.524 . S
C757 C771 1.377 . S
C758 C757 1.524 . S
C758 C759 1.397 . S
C758 C763 1.363 . S
C759 H736 0.950 . S
C759 C758 1.397 . S
C759 C760 1.334 . S
C760 H737 0.950 . S
C760 C759 1.334 . S
C760 C761 1.287 . S
C761 C760 1.287 . S
C761 C762 1.524 . S
C761 H780 0.913 . S
C762 H738 0.950 . S
C762 C761 1.524 . S
C762 C763 1.415 . S
C763 H739 0.950 . S
C763 C758 1.363 . S
C763 C762 1.415 . S
C764 H740 0.951 . S
C764 C765 1.366 . S
C764 C766 1.388 . S
C765 C764 1.366 . S
C765 C769 1.385 . S
C766 H741 0.951 . S
C766 C764 1.388 . S
C766 C767 1.366 . S
C767 C766 1.366 . S
C767 C768 1.414 . S
C767 C770 1.499 . S
C768 H742 0.950 . S
C768 C767 1.414 . S
C768 C769 1.374 . S
C769 H743 0.950 . S
C769 C765 1.385 . S
C769 C768 1.374 . S
C770 C767 1.499 . S
C770 C771 1.373 . S
C770 C772 1.389 . S
C771 H744 0.950 . S
C771 C757 1.377 . S
C771 C770 1.373 . S
C772 C756 1.377 . S
C772 C770 1.389 . S
C772 C773 1.524 . S
C773 C772 1.524 . S
C773 C774 1.397 . S
C773 C778 1.363 . S
C774 H745 0.950 . S
C774 C773 1.397 . S
C774 C775 1.334 . S
C775 H746 0.950 . S
C775 C774 1.334 . S
C775 C776 1.287 . S
C776 C775 1.287 . S
C776 C777 1.524 . S
C776 H779 0.999 . S
C777 H747 0.950 . S
C777 C776 1.524 . S
C777 C778 1.415 . S
C778 H748 0.950 . S
C778 C773 1.363 . S
C778 C777 1.415 . S
H779 C776 0.999 . S
H780 C761 0.913 . S
H781 C799 0.951 . S
H782 C801 0.951 . S
H783 C803 0.950 . S
H784 C804 0.950 . S
H785 C806 0.950 . S
H786 C809 0.950 . S
H787 C810 0.950 . S
H788 C812 0.950 . S
H789 C813 0.950 . S
H790 C814 0.951 . S
H791 C816 0.951 . S
H792 C818 0.950 . S
H793 C819 0.950 . S
H794 C821 0.950 . S
H795 C824 0.950 . S
H796 C825 0.950 . S
H797 C827 0.950 . S
H798 C828 0.950 . S
C799 H781 0.951 . S
C799 C800 1.366 . S
C799 C801 1.388 . S
C800 C799 1.366 . S
C800 C804 1.385 . S
C801 H782 0.951 . S
C801 C799 1.388 . S
C801 C802 1.366 . S
C802 C801 1.366 . S
C802 C803 1.414 . S
C802 C805 1.499 . S
C803 H783 0.950 . S
C803 C802 1.414 . S
C803 C804 1.374 . S
C804 H784 0.950 . S
C804 C800 1.385 . S
C804 C803 1.374 . S
C805 C802 1.499 . S
C805 C806 1.373 . S
C805 C807 1.389 . S
C806 H785 0.950 . S
C806 C805 1.373 . S
C806 C822 1.377 . S
C807 C805 1.389 . S
C807 C808 1.524 . S
C807 C821 1.377 . S
C808 C807 1.524 . S
C808 C809 1.397 . S
C808 C813 1.363 . S
C809 H786 0.950 . S
C809 C808 1.397 . S
C809 C810 1.334 . S
C810 H787 0.950 . S
C810 C809 1.334 . S
C810 C811 1.287 . S
C811 C810 1.287 . S
C811 C812 1.524 . S
C811 H830 0.913 . S
C812 H788 0.950 . S
C812 C811 1.524 . S
C812 C813 1.415 . S
C813 H789 0.950 . S
C813 C808 1.363 . S
C813 C812 1.415 . S
C814 H790 0.951 . S
C814 C815 1.366 . S
C814 C816 1.388 . S
C815 C814 1.366 . S
C815 C819 1.385 . S
C816 H791 0.951 . S
C816 C814 1.388 . S
C816 C817 1.366 . S
C817 C816 1.366 . S
C817 C818 1.414 . S
C817 C820 1.499 . S
C818 H792 0.950 . S
C818 C817 1.414 . S
C818 C819 1.374 . S
C819 H793 0.950 . S
C819 C815 1.385 . S
C819 C818 1.374 . S
C820 C817 1.499 . S
C820 C821 1.373 . S
C820 C822 1.389 . S
C821 H794 0.950 . S
C821 C807 1.377 . S
C821 C820 1.373 . S
C822 C806 1.377 . S
C822 C820 1.389 . S
C822 C823 1.524 . S
C823 C822 1.524 . S
C823 C824 1.397 . S
C823 C828 1.363 . S
C824 H795 0.950 . S
C824 C823 1.397 . S
C824 C825 1.334 . S
C825 H796 0.950 . S
C825 C824 1.334 . S
C825 C826 1.287 . S
C826 C825 1.287 . S
C826 C827 1.524 . S
C826 H829 0.999 . S
C827 H797 0.950 . S
C827 C826 1.524 . S
C827 C828 1.415 . S
C828 H798 0.950 . S
C828 C823 1.363 . S
C828 C827 1.415 . S
H829 C826 0.999 . S
H830 C811 0.913 . S
H831 C849 0.951 . S
H832 C851 0.951 . S
H833 C853 0.950 . S
H834 C854 0.950 . S
H835 C856 0.950 . S
H836 C859 0.950 . S
H837 C860 0.950 . S
H838 C862 0.950 . S
H839 C863 0.950 . S
H840 C864 0.951 . S
H841 C866 0.951 . S
H842 C868 0.950 . S
H843 C869 0.950 . S
H844 C871 0.950 . S
H845 C874 0.950 . S
H846 C875 0.950 . S
H847 C877 0.950 1_554 S
H848 C878 0.950 . S
C849 H831 0.951 . S
C849 C850 1.366 1_556 S
C849 C851 1.388 . S
C850 C849 1.366 1_554 S
C850 C854 1.385 . S
C851 H832 0.951 . S
C851 C849 1.388 . S
C851 C852 1.366 . S
C852 C851 1.366 . S
C852 C853 1.414 1_556 S
C852 C855 1.499 . S
C853 H833 0.950 . S
C853 C852 1.414 1_554 S
C853 C854 1.374 . S
C854 H834 0.950 . S
C854 C850 1.385 . S
C854 C853 1.374 . S
C855 C852 1.499 . S
C855 C856 1.373 . S
C855 C857 1.389 . S
C856 H835 0.950 . S
C856 C855 1.373 . S
C856 C872 1.377 . S
C857 C855 1.389 . S
C857 C858 1.524 . S
C857 C871 1.377 . S
C858 C857 1.524 . S
C858 C859 1.397 . S
C858 C863 1.363 . S
C859 H836 0.950 . S
C859 C858 1.397 . S
C859 C860 1.334 . S
C860 H837 0.950 . S
C860 C859 1.334 . S
C860 C861 1.287 . S
C861 C860 1.287 . S
C861 C862 1.524 . S
C861 H880 0.913 . S
C862 H838 0.950 . S
C862 C861 1.524 . S
C862 C863 1.415 . S
C863 H839 0.950 . S
C863 C858 1.363 . S
C863 C862 1.415 . S
C864 H840 0.951 . S
C864 C865 1.366 . S
C864 C866 1.388 . S
C865 C864 1.366 . S
C865 C869 1.385 . S
C866 H841 0.951 . S
C866 C864 1.388 . S
C866 C867 1.366 . S
C867 C866 1.366 . S
C867 C868 1.414 . S
C867 C870 1.499 . S
C868 H842 0.950 . S
C868 C867 1.414 . S
C868 C869 1.374 . S
C869 H843 0.950 . S
C869 C865 1.385 . S
C869 C868 1.374 . S
C870 C867 1.499 . S
C870 C871 1.373 . S
C870 C872 1.389 . S
C871 H844 0.950 . S
C871 C857 1.377 . S
C871 C870 1.373 . S
C872 C856 1.377 . S
C872 C870 1.389 . S
C872 C873 1.524 . S
C873 C872 1.524 . S
C873 C874 1.397 . S
C873 C878 1.363 . S
C874 H845 0.950 . S
C874 C873 1.397 . S
C874 C875 1.334 . S
C875 H846 0.950 . S
C875 C874 1.334 . S
C875 C876 1.287 . S
C876 C875 1.287 . S
C876 C877 1.524 . S
C876 H879 0.999 . S
C877 H847 0.950 1_556 S
C877 C876 1.524 . S
C877 C878 1.415 . S
C878 H848 0.950 . S
C878 C873 1.363 . S
C878 C877 1.415 . S
H879 C876 0.999 . S
H880 C861 0.913 . S
H881 C899 0.951 . S
H882 C901 0.951 . S
H883 C903 0.950 . S
H884 C904 0.950 . S
H885 C906 0.950 . S
H886 C909 0.950 . S
H887 C910 0.950 . S
H888 C912 0.950 . S
H889 C913 0.950 . S
H890 C914 0.951 . S
H891 C916 0.951 . S
H892 C918 0.950 . S
H893 C919 0.950 . S
H894 C921 0.950 . S
H895 C924 0.950 . S
H896 C925 0.950 . S
H897 C927 0.950 . S
H898 C928 0.950 . S
C899 H881 0.951 . S
C899 C900 1.366 1_554 S
C899 C901 1.388 1_554 S
C900 C899 1.366 1_556 S
C900 C904 1.385 . S
C901 H882 0.951 . S
C901 C899 1.388 1_556 S
C901 C902 1.366 . S
C902 C901 1.366 . S
C902 C903 1.414 . S
C902 C905 1.499 . S
C903 H883 0.950 . S
C903 C902 1.414 . S
C903 C904 1.374 . S
C904 H884 0.950 . S
C904 C900 1.385 . S
C904 C903 1.374 . S
C905 C902 1.499 . S
C905 C906 1.373 . S
C905 C907 1.389 . S
C906 H885 0.950 . S
C906 C905 1.373 . S
C906 C922 1.377 . S
C907 C905 1.389 . S
C907 C908 1.524 . S
C907 C921 1.377 . S
C908 C907 1.524 . S
C908 C909 1.397 . S
C908 C913 1.363 . S
C909 H886 0.950 . S
C909 C908 1.397 . S
C909 C910 1.334 1_556 S
C910 H887 0.950 . S
C910 C909 1.334 1_554 S
C910 C911 1.287 . S
C911 C910 1.287 . S
C911 C912 1.524 . S
C911 H930 0.913 . S
C912 H888 0.950 . S
C912 C911 1.524 . S
C912 C913 1.415 1_554 S
C913 H889 0.950 . S
C913 C908 1.363 . S
C913 C912 1.415 1_556 S
C914 H890 0.951 . S
C914 C915 1.366 . S
C914 C916 1.388 . S
C915 C914 1.366 . S
C915 C919 1.385 . S
C916 H891 0.951 . S
C916 C914 1.388 . S
C916 C917 1.366 . S
C917 C916 1.366 . S
C917 C918 1.414 . S
C917 C920 1.499 . S
C918 H892 0.950 . S
C918 C917 1.414 . S
C918 C919 1.374 . S
C919 H893 0.950 . S
C919 C915 1.385 . S
C919 C918 1.374 . S
C920 C917 1.499 . S
C920 C921 1.373 . S
C920 C922 1.389 . S
C921 H894 0.950 . S
C921 C907 1.377 . S
C921 C920 1.373 . S
C922 C906 1.377 . S
C922 C920 1.389 . S
C922 C923 1.524 . S
C923 C922 1.524 . S
C923 C924 1.397 . S
C923 C928 1.363 . S
C924 H895 0.950 . S
C924 C923 1.397 . S
C924 C925 1.334 . S
C925 H896 0.950 . S
C925 C924 1.334 . S
C925 C926 1.287 . S
C926 C925 1.287 . S
C926 C927 1.524 . S
C926 H929 0.999 . S
C927 H897 0.950 . S
C927 C926 1.524 . S
C927 C928 1.415 . S
C928 H898 0.950 . S
C928 C923 1.363 . S
C928 C927 1.415 . S
H929 C926 0.999 . S
H930 C911 0.913 . S
H931 C949 0.951 . S
H932 C951 0.951 . S
H933 C953 0.950 . S
H934 C954 0.950 . S
H935 C956 0.950 . S
H936 C959 0.950 . S
H937 C960 0.950 . S
H938 C962 0.950 . S
H939 C963 0.950 . S
H940 C964 0.951 . S
H941 C966 0.951 . S
H942 C968 0.950 . S
H943 C969 0.950 . S
H944 C971 0.950 . S
H945 C974 0.950 . S
H946 C975 0.950 . S
H947 C977 0.950 . S
H948 C978 0.950 . S
C949 H931 0.951 . S
C949 C950 1.366 . S
C949 C951 1.388 . S
C950 C949 1.366 . S
C950 C954 1.385 . S
C951 H932 0.951 . S
C951 C949 1.388 . S
C951 C952 1.366 . S
C952 C951 1.366 . S
C952 C953 1.414 . S
C952 C955 1.499 . S
C953 H933 0.950 . S
C953 C952 1.414 . S
C953 C954 1.374 . S
C954 H934 0.950 . S
C954 C950 1.385 . S
C954 C953 1.374 . S
C955 C952 1.499 . S
C955 C956 1.373 . S
C955 C957 1.389 . S
C956 H935 0.950 . S
C956 C955 1.373 . S
C956 C972 1.377 . S
C957 C955 1.389 . S
C957 C958 1.524 . S
C957 C971 1.377 . S
C958 C957 1.524 . S
C958 C959 1.397 . S
C958 C963 1.363 . S
C959 H936 0.950 . S
C959 C958 1.397 . S
C959 C960 1.334 . S
C960 H937 0.950 . S
C960 C959 1.334 . S
C960 C961 1.287 . S
C961 C960 1.287 . S
C961 C962 1.524 . S
C961 H980 0.913 . S
C962 H938 0.950 . S
C962 C961 1.524 . S
C962 C963 1.415 . S
C963 H939 0.950 . S
C963 C958 1.363 . S
C963 C962 1.415 . S
C964 H940 0.951 . S
C964 C965 1.366 . S
C964 C966 1.388 . S
C965 C964 1.366 . S
C965 C969 1.385 . S
C966 H941 0.951 . S
C966 C964 1.388 . S
C966 C967 1.366 . S
C967 C966 1.366 . S
C967 C968 1.414 . S
C967 C970 1.499 . S
C968 H942 0.950 . S
C968 C967 1.414 . S
C968 C969 1.374 . S
C969 H943 0.950 . S
C969 C965 1.385 . S
C969 C968 1.374 . S
C970 C967 1.499 . S
C970 C971 1.373 . S
C970 C972 1.389 . S
C971 H944 0.950 . S
C971 C957 1.377 . S
C971 C970 1.373 . S
C972 C956 1.377 . S
C972 C970 1.389 . S
C972 C973 1.524 . S
C973 C972 1.524 . S
C973 C974 1.397 . S
C973 C978 1.363 . S
C974 H945 0.950 . S
C974 C973 1.397 . S
C974 C975 1.334 . S
C975 H946 0.950 . S
C975 C974 1.334 . S
C975 C976 1.287 . S
C976 C975 1.287 . S
C976 C977 1.524 . S
C976 H979 0.999 . S
C977 H947 0.950 . S
C977 C976 1.524 . S
C977 C978 1.415 . S
C978 H948 0.950 . S
C978 C973 1.363 . S
C978 C977 1.415 . S
H979 C976 0.999 . S
H980 C961 0.913 . S
H981 C999 0.951 . S
H982 C1001 0.951 . S
H983 C1003 0.950 . S
H984 C1004 0.950 . S
H985 C1006 0.950 . S
H986 C1009 0.950 . S
H987 C1010 0.950 . S
H988 C1012 0.950 . S
H989 C1013 0.950 . S
H990 C1014 0.951 . S
H991 C1016 0.951 . S
H992 C1018 0.950 . S
H993 C1019 0.950 . S
H994 C1021 0.950 . S
H995 C1024 0.950 . S
H996 C1025 0.950 . S
H997 C1027 0.950 . S
H998 C1028 0.950 . S
C999 H981 0.951 . S
C999 C1000 1.366 . S
C999 C1001 1.388 . S
C1000 C999 1.366 . S
C1000 C1004 1.385 . S
C1001 H982 0.951 . S
C1001 C999 1.388 . S
C1001 C1002 1.366 . S
C1002 C1001 1.366 . S
C1002 C1003 1.414 . S
C1002 C1005 1.499 . S
C1003 H983 0.950 . S
C1003 C1002 1.414 . S
C1003 C1004 1.374 . S
C1004 H984 0.950 . S
C1004 C1000 1.385 . S
C1004 C1003 1.374 . S
C1005 C1002 1.499 . S
C1005 C1006 1.373 . S
C1005 C1007 1.389 . S
C1006 H985 0.950 . S
C1006 C1005 1.373 . S
C1006 C1022 1.377 . S
C1007 C1005 1.389 . S
C1007 C1008 1.524 . S
C1007 C1021 1.377 . S
C1008 C1007 1.524 . S
C1008 C1009 1.397 . S
C1008 C1013 1.363 . S
C1009 H986 0.950 . S
C1009 C1008 1.397 . S
C1009 C1010 1.334 . S
C1010 H987 0.950 . S
C1010 C1009 1.334 . S
C1010 C1011 1.287 . S
C1011 C1010 1.287 . S
C1011 C1012 1.524 . S
C1011 H1030 0.913 . S
C1012 H988 0.950 . S
C1012 C1011 1.524 . S
C1012 C1013 1.415 . S
C1013 H989 0.950 . S
C1013 C1008 1.363 . S
C1013 C1012 1.415 . S
C1014 H990 0.951 . S
C1014 C1015 1.366 . S
C1014 C1016 1.388 . S
C1015 C1014 1.366 . S
C1015 C1019 1.385 . S
C1016 H991 0.951 . S
C1016 C1014 1.388 . S
C1016 C1017 1.366 . S
C1017 C1016 1.366 . S
C1017 C1018 1.414 . S
C1017 C1020 1.499 . S
C1018 H992 0.950 . S
C1018 C1017 1.414 . S
C1018 C1019 1.374 . S
C1019 H993 0.950 . S
C1019 C1015 1.385 . S
C1019 C1018 1.374 . S
C1020 C1017 1.499 . S
C1020 C1021 1.373 . S
C1020 C1022 1.389 . S
C1021 H994 0.950 . S
C1021 C1007 1.377 . S
C1021 C1020 1.373 . S
C1022 C1006 1.377 . S
C1022 C1020 1.389 . S
C1022 C1023 1.524 . S
C1023 C1022 1.524 . S
C1023 C1024 1.397 . S
C1023 C1028 1.363 . S
C1024 H995 0.950 . S
C1024 C1023 1.397 . S
C1024 C1025 1.334 . S
C1025 H996 0.950 . S
C1025 C1024 1.334 . S
C1025 C1026 1.287 . S
C1026 C1025 1.287 . S
C1026 C1027 1.524 . S
C1026 H1029 0.999 . S
C1027 H997 0.950 . S
C1027 C1026 1.524 . S
C1027 C1028 1.415 . S
C1028 H998 0.950 . S
C1028 C1023 1.363 . S
C1028 C1027 1.415 . S
H1029 C1026 0.999 . S
H1030 C1011 0.913 . S
H1031 C1049 0.951 . S
H1032 C1051 0.951 . S
H1033 C1053 0.950 . S
H1034 C1054 0.950 . S
H1035 C1056 0.950 . S
H1036 C1059 0.950 . S
H1037 C1060 0.950 . S
H1038 C1062 0.950 1_554 S
H1039 C1063 0.950 . S
H1040 C1064 0.951 . S
H1041 C1066 0.951 . S
H1042 C1068 0.950 . S
H1043 C1069 0.950 . S
H1044 C1071 0.950 . S
H1045 C1074 0.950 . S
H1046 C1075 0.950 . S
H1047 C1077 0.950 . S
H1048 C1078 0.950 . S
C1049 H1031 0.951 . S
C1049 C1050 1.366 . S
C1049 C1051 1.388 . S
C1050 C1049 1.366 . S
C1050 C1054 1.385 . S
C1051 H1032 0.951 . S
C1051 C1049 1.388 . S
C1051 C1052 1.366 . S
C1052 C1051 1.366 . S
C1052 C1053 1.414 . S
C1052 C1055 1.499 . S
C1053 H1033 0.950 . S
C1053 C1052 1.414 . S
C1053 C1054 1.374 . S
C1054 H1034 0.950 . S
C1054 C1050 1.385 . S
C1054 C1053 1.374 . S
C1055 C1052 1.499 . S
C1055 C1056 1.373 . S
C1055 C1057 1.389 . S
C1056 H1035 0.950 . S
C1056 C1055 1.373 . S
C1056 C1072 1.377 . S
C1057 C1055 1.389 . S
C1057 C1058 1.524 . S
C1057 C1071 1.377 . S
C1058 C1057 1.524 . S
C1058 C1059 1.397 . S
C1058 C1063 1.363 . S
C1059 H1036 0.950 . S
C1059 C1058 1.397 . S
C1059 C1060 1.334 1_556 S
C1060 H1037 0.950 . S
C1060 C1059 1.334 1_554 S
C1060 C1061 1.287 . S
C1061 C1060 1.287 . S
C1061 C1062 1.524 1_554 S
C1061 H1080 0.913 . S
C1062 H1038 0.950 1_556 S
C1062 C1061 1.524 1_556 S
C1062 C1063 1.415 . S
C1063 H1039 0.950 . S
C1063 C1058 1.363 . S
C1063 C1062 1.415 . S
C1064 H1040 0.951 . S
C1064 C1065 1.366 . S
C1064 C1066 1.388 . S
C1065 C1064 1.366 . S
C1065 C1069 1.385 . S
C1066 H1041 0.951 . S
C1066 C1064 1.388 . S
C1066 C1067 1.366 . S
C1067 C1066 1.366 . S
C1067 C1068 1.414 . S
C1067 C1070 1.499 . S
C1068 H1042 0.950 . S
C1068 C1067 1.414 . S
C1068 C1069 1.374 . S
C1069 H1043 0.950 . S
C1069 C1065 1.385 . S
C1069 C1068 1.374 . S
C1070 C1067 1.499 . S
C1070 C1071 1.373 . S
C1070 C1072 1.389 . S
C1071 H1044 0.950 . S
C1071 C1057 1.377 . S
C1071 C1070 1.373 . S
C1072 C1056 1.377 . S
C1072 C1070 1.389 . S
C1072 C1073 1.524 . S
C1073 C1072 1.524 . S
C1073 C1074 1.397 . S
C1073 C1078 1.363 . S
C1074 H1045 0.950 . S
C1074 C1073 1.397 . S
C1074 C1075 1.334 . S
C1075 H1046 0.950 . S
C1075 C1074 1.334 . S
C1075 C1076 1.287 . S
C1076 C1075 1.287 . S
C1076 C1077 1.524 . S
C1076 H1079 0.999 . S
C1077 H1047 0.950 . S
C1077 C1076 1.524 . S
C1077 C1078 1.415 . S
C1078 H1048 0.950 . S
C1078 C1073 1.363 . S
C1078 C1077 1.415 . S
H1079 C1076 0.999 . S
H1080 C1061 0.913 . S
H1081 C1099 0.951 . S
H1082 C1101 0.951 . S
H1083 C1103 0.950 . S
H1084 C1104 0.950 . S
H1085 C1106 0.950 . S
H1086 C1109 0.950 . S
H1087 C1110 0.950 . S
H1088 C1112 0.950 . S
H1089 C1113 0.950 . S
H1090 C1114 0.951 . S
H1091 C1116 0.951 . S
H1092 C1118 0.950 . S
H1093 C1119 0.950 . S
H1094 C1121 0.950 . S
H1095 C1124 0.950 . S
H1096 C1125 0.950 . S
H1097 C1127 0.950 1_554 S
H1098 C1128 0.950 . S
C1099 H1081 0.951 . S
C1099 C1100 1.366 . S
C1099 C1101 1.388 1_554 S
C1100 C1099 1.366 . S
C1100 C1104 1.385 . S
C1101 H1082 0.951 . S
C1101 C1099 1.388 1_556 S
C1101 C1102 1.366 . S
C1102 C1101 1.366 . S
C1102 C1103 1.414 . S
C1102 C1105 1.499 . S
C1103 H1083 0.950 . S
C1103 C1102 1.414 . S
C1103 C1104 1.374 1_556 S
C1104 H1084 0.950 . S
C1104 C1100 1.385 . S
C1104 C1103 1.374 1_554 S
C1105 C1102 1.499 . S
C1105 C1106 1.373 . S
C1105 C1107 1.389 . S
C1106 H1085 0.950 . S
C1106 C1105 1.373 . S
C1106 C1122 1.377 . S
C1107 C1105 1.389 . S
C1107 C1108 1.524 . S
C1107 C1121 1.377 . S
C1108 C1107 1.524 . S
C1108 C1109 1.397 . S
C1108 C1113 1.363 . S
C1109 H1086 0.950 . S
C1109 C1108 1.397 . S
C1109 C1110 1.334 . S
C1110 H1087 0.950 . S
C1110 C1109 1.334 . S
C1110 C1111 1.287 . S
C1111 C1110 1.287 . S
C1111 C1112 1.524 . S
C1111 H1130 0.913 . S
C1112 H1088 0.950 . S
C1112 C1111 1.524 . S
C1112 C1113 1.415 . S
C1113 H1089 0.950 . S
C1113 C1108 1.363 . S
C1113 C1112 1.415 . S
C1114 H1090 0.951 . S
C1114 C1115 1.366 . S
C1114 C1116 1.388 . S
C1115 C1114 1.366 . S
C1115 C1119 1.385 . S
C1116 H1091 0.951 . S
C1116 C1114 1.388 . S
C1116 C1117 1.366 . S
C1117 C1116 1.366 . S
C1117 C1118 1.414 . S
C1117 C1120 1.499 . S
C1118 H1092 0.950 . S
C1118 C1117 1.414 . S
C1118 C1119 1.374 . S
C1119 H1093 0.950 . S
C1119 C1115 1.385 . S
C1119 C1118 1.374 . S
C1120 C1117 1.499 . S
C1120 C1121 1.373 . S
C1120 C1122 1.389 . S
C1121 H1094 0.950 . S
C1121 C1107 1.377 . S
C1121 C1120 1.373 . S
C1122 C1106 1.377 . S
C1122 C1120 1.389 . S
C1122 C1123 1.524 . S
C1123 C1122 1.524 . S
C1123 C1124 1.397 . S
C1123 C1128 1.363 . S
C1124 H1095 0.950 . S
C1124 C1123 1.397 . S
C1124 C1125 1.334 . S
C1125 H1096 0.950 . S
C1125 C1124 1.334 . S
C1125 C1126 1.287 . S
C1126 C1125 1.287 . S
C1126 C1127 1.524 . S
C1126 H1129 0.999 1_556 S
C1127 H1097 0.950 1_556 S
C1127 C1126 1.524 . S
C1127 C1128 1.415 . S
C1128 H1098 0.950 . S
C1128 C1123 1.363 . S
C1128 C1127 1.415 . S
H1129 C1126 0.999 1_554 S
H1130 C1111 0.913 . S
H1131 C1149 0.951 . S
H1132 C1151 0.951 . S
H1133 C1153 0.950 . S
H1134 C1154 0.950 . S
H1135 C1156 0.950 . S
H1136 C1159 0.950 . S
H1137 C1160 0.950 . S
H1138 C1162 0.950 . S
H1139 C1163 0.950 . S
H1140 C1164 0.951 . S
H1141 C1166 0.951 . S
H1142 C1168 0.950 . S
H1143 C1169 0.950 . S
H1144 C1171 0.950 . S
H1145 C1174 0.950 . S
H1146 C1175 0.950 . S
H1147 C1177 0.950 . S
H1148 C1178 0.950 . S
C1149 H1131 0.951 . S
C1149 C1150 1.366 1_554 S
C1149 C1151 1.388 1_554 S
C1150 C1149 1.366 1_556 S
C1150 C1154 1.385 . S
C1151 H1132 0.951 . S
C1151 C1149 1.388 1_556 S
C1151 C1152 1.366 . S
C1152 C1151 1.366 . S
C1152 C1153 1.414 . S
C1152 C1155 1.499 . S
C1153 H1133 0.950 . S
C1153 C1152 1.414 . S
C1153 C1154 1.374 . S
C1154 H1134 0.950 . S
C1154 C1150 1.385 . S
C1154 C1153 1.374 . S
C1155 C1152 1.499 . S
C1155 C1156 1.373 . S
C1155 C1157 1.389 . S
C1156 H1135 0.950 . S
C1156 C1155 1.373 . S
C1156 C1172 1.377 . S
C1157 C1155 1.389 . S
C1157 C1158 1.524 . S
C1157 C1171 1.377 . S
C1158 C1157 1.524 . S
C1158 C1159 1.397 . S
C1158 C1163 1.363 . S
C1159 H1136 0.950 . S
C1159 C1158 1.397 . S
C1159 C1160 1.334 . S
C1160 H1137 0.950 . S
C1160 C1159 1.334 . S
C1160 C1161 1.287 . S
C1161 C1160 1.287 . S
C1161 C1162 1.524 . S
C1161 H1180 0.913 . S
C1162 H1138 0.950 . S
C1162 C1161 1.524 . S
C1162 C1163 1.415 . S
C1163 H1139 0.950 . S
C1163 C1158 1.363 . S
C1163 C1162 1.415 . S
C1164 H1140 0.951 . S
C1164 C1165 1.366 . S
C1164 C1166 1.388 . S
C1165 C1164 1.366 . S
C1165 C1169 1.385 . S
C1166 H1141 0.951 . S
C1166 C1164 1.388 . S
C1166 C1167 1.366 . S
C1167 C1166 1.366 . S
C1167 C1168 1.414 . S
C1167 C1170 1.499 . S
C1168 H1142 0.950 . S
C1168 C1167 1.414 . S
C1168 C1169 1.374 . S
C1169 H1143 0.950 . S
C1169 C1165 1.385 . S
C1169 C1168 1.374 . S
C1170 C1167 1.499 . S
C1170 C1171 1.373 . S
C1170 C1172 1.389 . S
C1171 H1144 0.950 . S
C1171 C1157 1.377 . S
C1171 C1170 1.373 . S
C1172 C1156 1.377 . S
C1172 C1170 1.389 . S
C1172 C1173 1.524 . S
C1173 C1172 1.524 . S
C1173 C1174 1.397 . S
C1173 C1178 1.363 . S
C1174 H1145 0.950 . S
C1174 C1173 1.397 . S
C1174 C1175 1.334 . S
C1175 H1146 0.950 . S
C1175 C1174 1.334 . S
C1175 C1176 1.287 . S
C1176 C1175 1.287 . S
C1176 C1177 1.524 . S
C1176 H1179 0.999 . S
C1177 H1147 0.950 . S
C1177 C1176 1.524 . S
C1177 C1178 1.415 . S
C1178 H1148 0.950 . S
C1178 C1173 1.363 . S
C1178 C1177 1.415 . S
H1179 C1176 0.999 . S
H1180 C1161 0.913 . S
H1181 C1199 0.951 . S
H1182 C1201 0.951 . S
H1183 C1203 0.950 . S
H1184 C1204 0.950 1_554 S
H1185 C1206 0.950 . S
H1186 C1209 0.950 . S
H1187 C1210 0.950 . S
H1188 C1212 0.950 . S
H1189 C1213 0.950 . S
H1190 C1214 0.951 . S
H1191 C1216 0.951 . S
H1192 C1218 0.950 . S
H1193 C1219 0.950 . S
H1194 C1221 0.950 . S
H1195 C1224 0.950 . S
H1196 C1225 0.950 . S
H1197 C1227 0.950 . S
H1198 C1228 0.950 . S
C1199 H1181 0.951 . S
C1199 C1200 1.366 . S
C1199 C1201 1.388 . S
C1200 C1199 1.366 . S
C1200 C1204 1.385 . S
C1201 H1182 0.951 . S
C1201 C1199 1.388 . S
C1201 C1202 1.366 . S
C1202 C1201 1.366 . S
C1202 C1203 1.414 . S
C1202 C1205 1.499 . S
C1203 H1183 0.950 . S
C1203 C1202 1.414 . S
C1203 C1204 1.374 . S
C1204 H1184 0.950 1_556 S
C1204 C1200 1.385 . S
C1204 C1203 1.374 . S
C1205 C1202 1.499 . S
C1205 C1206 1.373 . S
C1205 C1207 1.389 . S
C1206 H1185 0.950 . S
C1206 C1205 1.373 . S
C1206 C1222 1.377 . S
C1207 C1205 1.389 . S
C1207 C1208 1.524 . S
C1207 C1221 1.377 . S
C1208 C1207 1.524 . S
C1208 C1209 1.397 . S
C1208 C1213 1.363 . S
C1209 H1186 0.950 . S
C1209 C1208 1.397 . S
C1209 C1210 1.334 . S
C1210 H1187 0.950 . S
C1210 C1209 1.334 . S
C1210 C1211 1.287 . S
C1211 C1210 1.287 . S
C1211 C1212 1.524 . S
C1211 H1230 0.913 . S
C1212 H1188 0.950 . S
C1212 C1211 1.524 . S
C1212 C1213 1.415 . S
C1213 H1189 0.950 . S
C1213 C1208 1.363 . S
C1213 C1212 1.415 . S
C1214 H1190 0.951 . S
C1214 C1215 1.366 . S
C1214 C1216 1.388 . S
C1215 C1214 1.366 . S
C1215 C1219 1.385 . S
C1216 H1191 0.951 . S
C1216 C1214 1.388 . S
C1216 C1217 1.366 . S
C1217 C1216 1.366 . S
C1217 C1218 1.414 . S
C1217 C1220 1.499 . S
C1218 H1192 0.950 . S
C1218 C1217 1.414 . S
C1218 C1219 1.374 . S
C1219 H1193 0.950 . S
C1219 C1215 1.385 . S
C1219 C1218 1.374 . S
C1220 C1217 1.499 . S
C1220 C1221 1.373 . S
C1220 C1222 1.389 . S
C1221 H1194 0.950 . S
C1221 C1207 1.377 . S
C1221 C1220 1.373 . S
C1222 C1206 1.377 . S
C1222 C1220 1.389 . S
C1222 C1223 1.524 . S
C1223 C1222 1.524 . S
C1223 C1224 1.397 . S
C1223 C1228 1.363 . S
C1224 H1195 0.950 . S
C1224 C1223 1.397 . S
C1224 C1225 1.334 . S
C1225 H1196 0.950 . S
C1225 C1224 1.334 . S
C1225 C1226 1.287 . S
C1226 C1225 1.287 . S
C1226 C1227 1.524 . S
C1226 H1229 0.999 . S
C1227 H1197 0.950 . S
C1227 C1226 1.524 . S
C1227 C1228 1.415 . S
C1228 H1198 0.950 . S
C1228 C1223 1.363 . S
C1228 C1227 1.415 . S
H1229 C1226 0.999 . S
H1230 C1211 0.913 . S
H1231 C1249 0.951 . S
H1232 C1251 0.951 . S
H1233 C1253 0.950 . S
H1234 C1254 0.950 . S
H1235 C1256 0.950 . S
H1236 C1259 0.950 . S
H1237 C1260 0.950 . S
H1238 C1262 0.950 . S
H1239 C1263 0.950 . S
H1240 C1264 0.951 . S
H1241 C1266 0.951 . S
H1242 C1268 0.950 . S
H1243 C1269 0.950 . S
H1244 C1271 0.950 . S
H1245 C1274 0.950 . S
H1246 C1275 0.950 . S
H1247 C1277 0.950 . S
H1248 C1278 0.950 . S
C1249 H1231 0.951 . S
C1249 C1250 1.366 . S
C1249 C1251 1.388 . S
C1250 C1249 1.366 . S
C1250 C1254 1.385 . S
C1251 H1232 0.951 . S
C1251 C1249 1.388 . S
C1251 C1252 1.366 . S
C1252 C1251 1.366 . S
C1252 C1253 1.414 . S
C1252 C1255 1.499 . S
C1253 H1233 0.950 . S
C1253 C1252 1.414 . S
C1253 C1254 1.374 . S
C1254 H1234 0.950 . S
C1254 C1250 1.385 . S
C1254 C1253 1.374 . S
C1255 C1252 1.499 . S
C1255 C1256 1.373 . S
C1255 C1257 1.389 . S
C1256 H1235 0.950 . S
C1256 C1255 1.373 . S
C1256 C1272 1.377 . S
C1257 C1255 1.389 . S
C1257 C1258 1.524 . S
C1257 C1271 1.377 . S
C1258 C1257 1.524 . S
C1258 C1259 1.397 . S
C1258 C1263 1.363 . S
C1259 H1236 0.950 . S
C1259 C1258 1.397 . S
C1259 C1260 1.334 . S
C1260 H1237 0.950 . S
C1260 C1259 1.334 . S
C1260 C1261 1.287 . S
C1261 C1260 1.287 . S
C1261 C1262 1.524 . S
C1261 H1280 0.913 . S
C1262 H1238 0.950 . S
C1262 C1261 1.524 . S
C1262 C1263 1.415 . S
C1263 H1239 0.950 . S
C1263 C1258 1.363 . S
C1263 C1262 1.415 . S
C1264 H1240 0.951 . S
C1264 C1265 1.366 . S
C1264 C1266 1.388 . S
C1265 C1264 1.366 . S
C1265 C1269 1.385 . S
C1266 H1241 0.951 . S
C1266 C1264 1.388 . S
C1266 C1267 1.366 . S
C1267 C1266 1.366 . S
C1267 C1268 1.414 . S
C1267 C1270 1.499 . S
C1268 H1242 0.950 . S
C1268 C1267 1.414 . S
C1268 C1269 1.374 . S
C1269 H1243 0.950 . S
C1269 C1265 1.385 . S
C1269 C1268 1.374 . S
C1270 C1267 1.499 . S
C1270 C1271 1.373 . S
C1270 C1272 1.389 . S
C1271 H1244 0.950 . S
C1271 C1257 1.377 . S
C1271 C1270 1.373 . S
C1272 C1256 1.377 . S
C1272 C1270 1.389 . S
C1272 C1273 1.524 . S
C1273 C1272 1.524 . S
C1273 C1274 1.397 . S
C1273 C1278 1.363 . S
C1274 H1245 0.950 . S
C1274 C1273 1.397 . S
C1274 C1275 1.334 . S
C1275 H1246 0.950 . S
C1275 C1274 1.334 . S
C1275 C1276 1.287 . S
C1276 C1275 1.287 . S
C1276 C1277 1.524 . S
C1276 H1279 0.999 . S
C1277 H1247 0.950 . S
C1277 C1276 1.524 . S
C1277 C1278 1.415 . S
C1278 H1248 0.950 . S
C1278 C1273 1.363 . S
C1278 C1277 1.415 . S
H1279 C1276 0.999 . S
H1280 C1261 0.913 . S
H1281 C1299 0.951 . S
H1282 C1301 0.951 . S
H1283 C1303 0.950 . S
H1284 C1304 0.950 . S
H1285 C1306 0.950 . S
H1286 C1309 0.950 . S
H1287 C1310 0.950 . S
H1288 C1312 0.950 . S
H1289 C1313 0.950 . S
H1290 C1314 0.951 . S
H1291 C1316 0.951 . S
H1292 C1318 0.950 . S
H1293 C1319 0.950 . S
H1294 C1321 0.950 . S
H1295 C1324 0.950 . S
H1296 C1325 0.950 . S
H1297 C1327 0.950 . S
H1298 C1328 0.950 . S
C1299 H1281 0.951 . S
C1299 C1300 1.366 . S
C1299 C1301 1.388 . S
C1300 C1299 1.366 . S
C1300 C1304 1.385 . S
C1301 H1282 0.951 . S
C1301 C1299 1.388 . S
C1301 C1302 1.366 . S
C1302 C1301 1.366 . S
C1302 C1303 1.414 . S
C1302 C1305 1.499 . S
C1303 H1283 0.950 . S
C1303 C1302 1.414 . S
C1303 C1304 1.374 . S
C1304 H1284 0.950 . S
C1304 C1300 1.385 . S
C1304 C1303 1.374 . S
C1305 C1302 1.499 . S
C1305 C1306 1.373 . S
C1305 C1307 1.389 . S
C1306 H1285 0.950 . S
C1306 C1305 1.373 . S
C1306 C1322 1.377 . S
C1307 C1305 1.389 . S
C1307 C1308 1.524 . S
C1307 C1321 1.377 . S
C1308 C1307 1.524 . S
C1308 C1309 1.397 . S
C1308 C1313 1.363 . S
C1309 H1286 0.950 . S
C1309 C1308 1.397 . S
C1309 C1310 1.334 . S
C1310 H1287 0.950 . S
C1310 C1309 1.334 . S
C1310 C1311 1.287 . S
C1311 C1310 1.287 . S
C1311 C1312 1.524 . S
C1311 H1330 0.913 . S
C1312 H1288 0.950 . S
C1312 C1311 1.524 . S
C1312 C1313 1.415 . S
C1313 H1289 0.950 . S
C1313 C1308 1.363 . S
C1313 C1312 1.415 . S
C1314 H1290 0.951 . S
C1314 C1315 1.366 . S
C1314 C1316 1.388 . S
C1315 C1314 1.366 . S
C1315 C1319 1.385 . S
C1316 H1291 0.951 . S
C1316 C1314 1.388 . S
C1316 C1317 1.366 . S
C1317 C1316 1.366 . S
C1317 C1318 1.414 . S
C1317 C1320 1.499 . S
C1318 H1292 0.950 . S
C1318 C1317 1.414 . S
C1318 C1319 1.374 . S
C1319 H1293 0.950 . S
C1319 C1315 1.385 . S
C1319 C1318 1.374 . S
C1320 C1317 1.499 . S
C1320 C1321 1.373 . S
C1320 C1322 1.389 . S
C1321 H1294 0.950 . S
C1321 C1307 1.377 . S
C1321 C1320 1.373 . S
C1322 C1306 1.377 . S
C1322 C1320 1.389 . S
C1322 C1323 1.524 . S
C1323 C1322 1.524 . S
C1323 C1324 1.397 . S
C1323 C1328 1.363 . S
C1324 H1295 0.950 . S
C1324 C1323 1.397 . S
C1324 C1325 1.334 . S
C1325 H1296 0.950 . S
C1325 C1324 1.334 . S
C1325 C1326 1.287 . S
C1326 C1325 1.287 . S
C1326 C1327 1.524 . S
C1326 H1329 0.999 . S
C1327 H1297 0.950 . S
C1327 C1326 1.524 . S
C1327 C1328 1.415 . S
C1328 H1298 0.950 . S
C1328 C1323 1.363 . S
C1328 C1327 1.415 . S
H1329 C1326 0.999 . S
H1330 C1311 0.913 . S
H1331 C1349 0.951 . S
H1332 C1351 0.951 . S
H1333 C1353 0.950 . S
H1334 C1354 0.950 . S
H1335 C1356 0.950 . S
H1336 C1359 0.950 . S
H1337 C1360 0.950 . S
H1338 C1362 0.950 . S
H1339 C1363 0.950 . S
H1340 C1364 0.951 . S
H1341 C1366 0.951 . S
H1342 C1368 0.950 . S
H1343 C1369 0.950 . S
H1344 C1371 0.950 . S
H1345 C1374 0.950 . S
H1346 C1375 0.950 . S
H1347 C1377 0.950 . S
H1348 C1378 0.950 . S
C1349 H1331 0.951 . S
C1349 C1350 1.366 . S
C1349 C1351 1.388 . S
C1350 C1349 1.366 . S
C1350 C1354 1.385 . S
C1351 H1332 0.951 . S
C1351 C1349 1.388 . S
C1351 C1352 1.366 . S
C1352 C1351 1.366 . S
C1352 C1353 1.414 . S
C1352 C1355 1.499 . S
C1353 H1333 0.950 . S
C1353 C1352 1.414 . S
C1353 C1354 1.374 . S
C1354 H1334 0.950 . S
C1354 C1350 1.385 . S
C1354 C1353 1.374 . S
C1355 C1352 1.499 . S
C1355 C1356 1.373 . S
C1355 C1357 1.389 . S
C1356 H1335 0.950 . S
C1356 C1355 1.373 . S
C1356 C1372 1.377 . S
C1357 C1355 1.389 . S
C1357 C1358 1.524 . S
C1357 C1371 1.377 . S
C1358 C1357 1.524 . S
C1358 C1359 1.397 . S
C1358 C1363 1.363 . S
C1359 H1336 0.950 . S
C1359 C1358 1.397 . S
C1359 C1360 1.334 . S
C1360 H1337 0.950 . S
C1360 C1359 1.334 . S
C1360 C1361 1.287 . S
C1361 C1360 1.287 . S
C1361 C1362 1.524 . S
C1361 H1380 0.913 . S
C1362 H1338 0.950 . S
C1362 C1361 1.524 . S
C1362 C1363 1.415 . S
C1363 H1339 0.950 . S
C1363 C1358 1.363 . S
C1363 C1362 1.415 . S
C1364 H1340 0.951 . S
C1364 C1365 1.366 . S
C1364 C1366 1.388 . S
C1365 C1364 1.366 . S
C1365 C1369 1.385 . S
C1366 H1341 0.951 . S
C1366 C1364 1.388 . S
C1366 C1367 1.366 . S
C1367 C1366 1.366 . S
C1367 C1368 1.414 . S
C1367 C1370 1.499 . S
C1368 H1342 0.950 . S
C1368 C1367 1.414 . S
C1368 C1369 1.374 . S
C1369 H1343 0.950 . S
C1369 C1365 1.385 . S
C1369 C1368 1.374 . S
C1370 C1367 1.499 . S
C1370 C1371 1.373 . S
C1370 C1372 1.389 . S
C1371 H1344 0.950 . S
C1371 C1357 1.377 . S
C1371 C1370 1.373 . S
C1372 C1356 1.377 . S
C1372 C1370 1.389 . S
C1372 C1373 1.524 . S
C1373 C1372 1.524 . S
C1373 C1374 1.397 . S
C1373 C1378 1.363 . S
C1374 H1345 0.950 . S
C1374 C1373 1.397 . S
C1374 C1375 1.334 . S
C1375 H1346 0.950 . S
C1375 C1374 1.334 . S
C1375 C1376 1.287 . S
C1376 C1375 1.287 . S
C1376 C1377 1.524 . S
C1376 H1379 0.999 . S
C1377 H1347 0.950 . S
C1377 C1376 1.524 . S
C1377 C1378 1.415 . S
C1378 H1348 0.950 . S
C1378 C1373 1.363 . S
C1378 C1377 1.415 . S
H1379 C1376 0.999 . S
H1380 C1361 0.913 . S
H1381 C1399 0.951 . S
H1382 C1401 0.951 . S
H1383 C1403 0.950 . S
H1384 C1404 0.950 . S
H1385 C1406 0.950 . S
H1386 C1409 0.950 . S
H1387 C1410 0.950 . S
H1388 C1412 0.950 . S
H1389 C1413 0.950 . S
H1390 C1414 0.951 . S
H1391 C1416 0.951 . S
H1392 C1418 0.950 . S
H1393 C1419 0.950 . S
H1394 C1421 0.950 . S
H1395 C1424 0.950 . S
H1396 C1425 0.950 . S
H1397 C1427 0.950 . S
H1398 C1428 0.950 . S
C1399 H1381 0.951 . S
C1399 C1400 1.366 . S
C1399 C1401 1.388 . S
C1400 C1399 1.366 . S
C1400 C1404 1.385 . S
C1401 H1382 0.951 . S
C1401 C1399 1.388 . S
C1401 C1402 1.366 . S
C1402 C1401 1.366 . S
C1402 C1403 1.414 . S
C1402 C1405 1.499 . S
C1403 H1383 0.950 . S
C1403 C1402 1.414 . S
C1403 C1404 1.374 . S
C1404 H1384 0.950 . S
C1404 C1400 1.385 . S
C1404 C1403 1.374 . S
C1405 C1402 1.499 . S
C1405 C1406 1.373 . S
C1405 C1407 1.389 . S
C1406 H1385 0.950 . S
C1406 C1405 1.373 . S
C1406 C1422 1.377 . S
C1407 C1405 1.389 . S
C1407 C1408 1.524 . S
C1407 C1421 1.377 . S
C1408 C1407 1.524 . S
C1408 C1409 1.397 . S
C1408 C1413 1.363 . S
C1409 H1386 0.950 . S
C1409 C1408 1.397 . S
C1409 C1410 1.334 . S
C1410 H1387 0.950 . S
C1410 C1409 1.334 . S
C1410 C1411 1.287 . S
C1411 C1410 1.287 . S
C1411 C1412 1.524 . S
C1411 H1430 0.913 . S
C1412 H1388 0.950 . S
C1412 C1411 1.524 . S
C1412 C1413 1.415 . S
C1413 H1389 0.950 . S
C1413 C1408 1.363 . S
C1413 C1412 1.415 . S
C1414 H1390 0.951 . S
C1414 C1415 1.366 . S
C1414 C1416 1.388 . S
C1415 C1414 1.366 . S
C1415 C1419 1.385 . S
C1416 H1391 0.951 . S
C1416 C1414 1.388 . S
C1416 C1417 1.366 . S
C1417 C1416 1.366 . S
C1417 C1418 1.414 . S
C1417 C1420 1.499 . S
C1418 H1392 0.950 . S
C1418 C1417 1.414 . S
C1418 C1419 1.374 . S
C1419 H1393 0.950 . S
C1419 C1415 1.385 . S
C1419 C1418 1.374 . S
C1420 C1417 1.499 . S
C1420 C1421 1.373 . S
C1420 C1422 1.389 . S
C1421 H1394 0.950 . S
C1421 C1407 1.377 . S
C1421 C1420 1.373 . S
C1422 C1406 1.377 . S
C1422 C1420 1.389 . S
C1422 C1423 1.524 . S
C1423 C1422 1.524 . S
C1423 C1424 1.397 . S
C1423 C1428 1.363 . S
C1424 H1395 0.950 . S
C1424 C1423 1.397 . S
C1424 C1425 1.334 . S
C1425 H1396 0.950 . S
C1425 C1424 1.334 . S
C1425 C1426 1.287 . S
C1426 C1425 1.287 . S
C1426 C1427 1.524 . S
C1426 H1429 0.999 . S
C1427 H1397 0.950 . S
C1427 C1426 1.524 . S
C1427 C1428 1.415 . S
C1428 H1398 0.950 . S
C1428 C1423 1.363 . S
C1428 C1427 1.415 . S
H1429 C1426 0.999 . S
H1430 C1411 0.913 . S
H1431 C1449 0.951 . S
H1432 C1451 0.951 . S
H1433 C1453 0.950 . S
H1434 C1454 0.950 . S
H1435 C1456 0.950 . S
H1436 C1459 0.950 . S
H1437 C1460 0.950 . S
H1438 C1462 0.950 . S
H1439 C1463 0.950 . S
H1440 C1464 0.951 . S
H1441 C1466 0.951 . S
H1442 C1468 0.950 . S
H1443 C1469 0.950 . S
H1444 C1471 0.950 . S
H1445 C1474 0.950 . S
H1446 C1475 0.950 . S
H1447 C1477 0.950 . S
H1448 C1478 0.950 . S
C1449 H1431 0.951 . S
C1449 C1450 1.366 . S
C1449 C1451 1.388 . S
C1450 C1449 1.366 . S
C1450 C1454 1.385 . S
C1451 H1432 0.951 . S
C1451 C1449 1.388 . S
C1451 C1452 1.366 . S
C1452 C1451 1.366 . S
C1452 C1453 1.414 . S
C1452 C1455 1.499 . S
C1453 H1433 0.950 . S
C1453 C1452 1.414 . S
C1453 C1454 1.374 . S
C1454 H1434 0.950 . S
C1454 C1450 1.385 . S
C1454 C1453 1.374 . S
C1455 C1452 1.499 . S
C1455 C1456 1.373 . S
C1455 C1457 1.389 . S
C1456 H1435 0.950 . S
C1456 C1455 1.373 . S
C1456 C1472 1.377 . S
C1457 C1455 1.389 . S
C1457 C1458 1.524 . S
C1457 C1471 1.377 . S
C1458 C1457 1.524 . S
C1458 C1459 1.397 . S
C1458 C1463 1.363 . S
C1459 H1436 0.950 . S
C1459 C1458 1.397 . S
C1459 C1460 1.334 . S
C1460 H1437 0.950 . S
C1460 C1459 1.334 . S
C1460 C1461 1.287 . S
C1461 C1460 1.287 . S
C1461 C1462 1.524 . S
C1461 H1480 0.913 . S
C1462 H1438 0.950 . S
C1462 C1461 1.524 . S
C1462 C1463 1.415 . S
C1463 H1439 0.950 . S
C1463 C1458 1.363 . S
C1463 C1462 1.415 . S
C1464 H1440 0.951 . S
C1464 C1465 1.366 . S
C1464 C1466 1.388 . S
C1465 C1464 1.366 . S
C1465 C1469 1.385 . S
C1466 H1441 0.951 . S
C1466 C1464 1.388 . S
C1466 C1467 1.366 . S
C1467 C1466 1.366 . S
C1467 C1468 1.414 . S
C1467 C1470 1.499 . S
C1468 H1442 0.950 . S
C1468 C1467 1.414 . S
C1468 C1469 1.374 . S
C1469 H1443 0.950 . S
C1469 C1465 1.385 . S
C1469 C1468 1.374 . S
C1470 C1467 1.499 . S
C1470 C1471 1.373 . S
C1470 C1472 1.389 . S
C1471 H1444 0.950 . S
C1471 C1457 1.377 . S
C1471 C1470 1.373 . S
C1472 C1456 1.377 . S
C1472 C1470 1.389 . S
C1472 C1473 1.524 . S
C1473 C1472 1.524 . S
C1473 C1474 1.397 . S
C1473 C1478 1.363 . S
C1474 H1445 0.950 . S
C1474 C1473 1.397 . S
C1474 C1475 1.334 . S
C1475 H1446 0.950 . S
C1475 C1474 1.334 . S
C1475 C1476 1.287 . S
C1476 C1475 1.287 . S
C1476 C1477 1.524 . S
C1476 H1479 0.999 . S
C1477 H1447 0.950 . S
C1477 C1476 1.524 . S
C1477 C1478 1.415 . S
C1478 H1448 0.950 . S
C1478 C1473 1.363 . S
C1478 C1477 1.415 . S
H1479 C1476 0.999 . S
H1480 C1461 0.913 . S
H1481 C1499 0.951 . S
H1482 C1501 0.951 . S
H1483 C1503 0.950 . S
H1484 C1504 0.950 . S
H1485 C1506 0.950 . S
H1486 C1509 0.950 . S
H1487 C1510 0.950 . S
H1488 C1512 0.950 . S
H1489 C1513 0.950 . S
H1490 C1514 0.951 . S
H1491 C1516 0.951 . S
H1492 C1518 0.950 . S
H1493 C1519 0.950 . S
H1494 C1521 0.950 . S
H1495 C1524 0.950 . S
H1496 C1525 0.950 . S
H1497 C1527 0.950 . S
H1498 C1528 0.950 . S
C1499 H1481 0.951 . S
C1499 C1500 1.366 . S
C1499 C1501 1.388 . S
C1500 C1499 1.366 . S
C1500 C1504 1.385 . S
C1501 H1482 0.951 . S
C1501 C1499 1.388 . S
C1501 C1502 1.366 . S
C1502 C1501 1.366 . S
C1502 C1503 1.414 . S
C1502 C1505 1.499 . S
C1503 H1483 0.950 . S
C1503 C1502 1.414 . S
C1503 C1504 1.374 . S
C1504 H1484 0.950 . S
C1504 C1500 1.385 . S
C1504 C1503 1.374 . S
C1505 C1502 1.499 . S
C1505 C1506 1.373 . S
C1505 C1507 1.389 . S
C1506 H1485 0.950 . S
C1506 C1505 1.373 . S
C1506 C1522 1.377 . S
C1507 C1505 1.389 . S
C1507 C1508 1.524 . S
C1507 C1521 1.377 . S
C1508 C1507 1.524 . S
C1508 C1509 1.397 . S
C1508 C1513 1.363 . S
C1509 H1486 0.950 . S
C1509 C1508 1.397 . S
C1509 C1510 1.334 . S
C1510 H1487 0.950 . S
C1510 C1509 1.334 . S
C1510 C1511 1.287 . S
C1511 C1510 1.287 . S
C1511 C1512 1.524 . S
C1511 H1530 0.913 . S
C1512 H1488 0.950 . S
C1512 C1511 1.524 . S
C1512 C1513 1.415 . S
C1513 H1489 0.950 . S
C1513 C1508 1.363 . S
C1513 C1512 1.415 . S
C1514 H1490 0.951 . S
C1514 C1515 1.366 . S
C1514 C1516 1.388 . S
C1515 C1514 1.366 . S
C1515 C1519 1.385 . S
C1516 H1491 0.951 . S
C1516 C1514 1.388 . S
C1516 C1517 1.366 . S
C1517 C1516 1.366 . S
C1517 C1518 1.414 . S
C1517 C1520 1.499 . S
C1518 H1492 0.950 . S
C1518 C1517 1.414 . S
C1518 C1519 1.374 . S
C1519 H1493 0.950 . S
C1519 C1515 1.385 . S
C1519 C1518 1.374 . S
C1520 C1517 1.499 . S
C1520 C1521 1.373 . S
C1520 C1522 1.389 . S
C1521 H1494 0.950 . S
C1521 C1507 1.377 . S
C1521 C1520 1.373 . S
C1522 C1506 1.377 . S
C1522 C1520 1.389 . S
C1522 C1523 1.524 . S
C1523 C1522 1.524 . S
C1523 C1524 1.397 . S
C1523 C1528 1.363 . S
C1524 H1495 0.950 . S
C1524 C1523 1.397 . S
C1524 C1525 1.334 . S
C1525 H1496 0.950 . S
C1525 C1524 1.334 . S
C1525 C1526 1.287 . S
C1526 C1525 1.287 . S
C1526 C1527 1.524 . S
C1526 H1529 0.999 . S
C1527 H1497 0.950 . S
C1527 C1526 1.524 . S
C1527 C1528 1.415 . S
C1528 H1498 0.950 . S
C1528 C1523 1.363 . S
C1528 C1527 1.415 . S
H1529 C1526 0.999 . S
H1530 C1511 0.913 . S
H1531 C1549 0.951 . S
H1532 C1551 0.951 . S
H1533 C1553 0.950 . S
H1534 C1554 0.950 . S
H1535 C1556 0.950 . S
H1536 C1559 0.950 . S
H1537 C1560 0.950 . S
H1538 C1562 0.950 . S
H1539 C1563 0.950 . S
H1540 C1564 0.951 . S
H1541 C1566 0.951 . S
H1542 C1568 0.950 . S
H1543 C1569 0.950 . S
H1544 C1571 0.950 . S
H1545 C1574 0.950 . S
H1546 C1575 0.950 . S
H1547 C1577 0.950 . S
H1548 C1578 0.950 . S
C1549 H1531 0.951 . S
C1549 C1550 1.366 . S
C1549 C1551 1.388 . S
C1550 C1549 1.366 . S
C1550 C1554 1.385 . S
C1551 H1532 0.951 . S
C1551 C1549 1.388 . S
C1551 C1552 1.366 . S
C1552 C1551 1.366 . S
C1552 C1553 1.414 . S
C1552 C1555 1.499 . S
C1553 H1533 0.950 . S
C1553 C1552 1.414 . S
C1553 C1554 1.374 . S
C1554 H1534 0.950 . S
C1554 C1550 1.385 . S
C1554 C1553 1.374 . S
C1555 C1552 1.499 . S
C1555 C1556 1.373 . S
C1555 C1557 1.389 . S
C1556 H1535 0.950 . S
C1556 C1555 1.373 . S
C1556 C1572 1.377 . S
C1557 C1555 1.389 . S
C1557 C1558 1.524 . S
C1557 C1571 1.377 . S
C1558 C1557 1.524 . S
C1558 C1559 1.397 . S
C1558 C1563 1.363 . S
C1559 H1536 0.950 . S
C1559 C1558 1.397 . S
C1559 C1560 1.334 . S
C1560 H1537 0.950 . S
C1560 C1559 1.334 . S
C1560 C1561 1.287 . S
C1561 C1560 1.287 . S
C1561 C1562 1.524 . S
C1561 H1580 0.913 . S
C1562 H1538 0.950 . S
C1562 C1561 1.524 . S
C1562 C1563 1.415 . S
C1563 H1539 0.950 . S
C1563 C1558 1.363 . S
C1563 C1562 1.415 . S
C1564 H1540 0.951 . S
C1564 C1565 1.366 . S
C1564 C1566 1.388 . S
C1565 C1564 1.366 . S
C1565 C1569 1.385 . S
C1566 H1541 0.951 . S
C1566 C1564 1.388 . S
C1566 C1567 1.366 . S
C1567 C1566 1.366 . S
C1567 C1568 1.414 . S
C1567 C1570 1.499 . S
C1568 H1542 0.950 . S
C1568 C1567 1.414 . S
C1568 C1569 1.374 . S
C1569 H1543 0.950 . S
C1569 C1565 1.385 . S
C1569 C1568 1.374 . S
C1570 C1567 1.499 . S
C1570 C1571 1.373 . S
C1570 C1572 1.389 . S
C1571 H1544 0.950 . S
C1571 C1557 1.377 . S
C1571 C1570 1.373 . S
C1572 C1556 1.377 . S
C1572 C1570 1.389 . S
C1572 C1573 1.524 . S
C1573 C1572 1.524 . S
C1573 C1574 1.397 . S
C1573 C1578 1.363 . S
C1574 H1545 0.950 . S
C1574 C1573 1.397 . S
C1574 C1575 1.334 . S
C1575 H1546 0.950 . S
C1575 C1574 1.334 . S
C1575 C1576 1.287 . S
C1576 C1575 1.287 . S
C1576 C1577 1.524 . S
C1576 H1579 0.999 . S
C1577 H1547 0.950 . S
C1577 C1576 1.524 . S
C1577 C1578 1.415 . S
C1578 H1548 0.950 . S
C1578 C1573 1.363 . S
C1578 C1577 1.415 . S
H1579 C1576 0.999 . S
H1580 C1561 0.913 . S
C400 C45 1.904 . S
C415 C299 1.824 . S
C450 C84 1.723 . S
C465 C346 1.688 . S
C515 C350 1.925 . S
C500 C126 1.962 . S
C565 C315 1.597 . S
C550 C165 1.630 . S
C600 C222 1.774 . S
C615 C330 1.732 . S
C665 C352 0.914 . S
C650 C276 0.936 . S
C715 C321 1.359 . S
C700 C141 1.422 . S
C750 C180 1.415 . S
C765 C361 1.369 . S
C815 C290 1.246 . S
C800 C237 1.307 . S
C850 C261 1.551 . S
C865 C319 1.509 . S
C900 C30 2.043 1_556 S
C915 C377 2.017 . S
C965 C288 1.593 . S
C950 C69 1.632 1_556 S
C1015 C306 1.824 . S
C1000 C174 1.904 . S
C1065 C320 1.687 . S
C1050 C213 1.724 . S
C1115 C374 1.924 . S
C1100 C285 1.962 . S
C1165 C289 1.596 . S
C1150 C36 1.630 1_556 S
C1215 C337 1.733 . S
C1200 C93 1.775 1_556 S
C1250 C117 0.936 . S
C1265 C360 0.914 . S
C1315 C329 1.359 . S
C1300 C270 1.422 . S
C1365 C368 1.369 . S
C1350 C21 1.415 . S
C1415 C298 1.246 . S
C1400 C78 1.307 . S
C1465 C343 1.510 . S
C1450 C132 1.551 . S
C1500 C189 2.042 . S
C1515 C351 2.017 . S
C1550 C228 1.632 . S
C1565 C312 1.592 . S
