# Generated by pormake.
# Topology pyr, (3,6)-cn, num edge types: 1
# Building blocks:
#     Node 0, Type 0, BuildingBlock: BETDAH_clean_linker_0, # of connection points: 3
#     Node 1, Type 0, BuildingBlock: BETDAH_clean_linker_0, # of connection points: 3
#     Node 2, Type 0, BuildingBlock: BETDAH_clean_linker_0, # of connection points: 3
#     Node 3, Type 0, BuildingBlock: BETDAH_clean_linker_0, # of connection points: 3
#     Node 4, Type 0, BuildingBlock: BETDAH_clean_linker_0, # of connection points: 3
#     Node 5, Type 0, BuildingBlock: BETDAH_clean_linker_0, # of connection points: 3
#     Node 6, Type 0, BuildingBlock: BETDAH_clean_linker_0, # of connection points: 3
#     Node 7, Type 0, BuildingBlock: BETDAH_clean_linker_0, # of connection points: 3
#     Node 8, Type 1, BuildingBlock: BETFAJ_clean_sbu_0, # of connection points: 6
#     Node 9, Type 1, BuildingBlock: BETFAJ_clean_sbu_0, # of connection points: 6
#     Node 10, Type 1, BuildingBlock: BETFAJ_clean_sbu_0, # of connection points: 6
#     Node 11, Type 1, BuildingBlock: BETFAJ_clean_sbu_0, # of connection points: 6
#     Edge 12, Type (0, 1), BuildingBlock: TEMPAE_clean_linker_10, # of connection points: 2
#     Edge 13, Type (0, 1), BuildingBlock: TEMPAE_clean_linker_10, # of connection points: 2
#     Edge 14, Type (0, 1), BuildingBlock: TEMPAE_clean_linker_10, # of connection points: 2
#     Edge 15, Type (0, 1), BuildingBlock: TEMPAE_clean_linker_10, # of connection points: 2
#     Edge 16, Type (0, 1), BuildingBlock: TEMPAE_clean_linker_10, # of connection points: 2
#     Edge 17, Type (0, 1), BuildingBlock: TEMPAE_clean_linker_10, # of connection points: 2
#     Edge 18, Type (0, 1), BuildingBlock: TEMPAE_clean_linker_10, # of connection points: 2
#     Edge 19, Type (0, 1), BuildingBlock: TEMPAE_clean_linker_10, # of connection points: 2
#     Edge 20, Type (0, 1), BuildingBlock: TEMPAE_clean_linker_10, # of connection points: 2
#     Edge 21, Type (0, 1), BuildingBlock: TEMPAE_clean_linker_10, # of connection points: 2
#     Edge 22, Type (0, 1), BuildingBlock: TEMPAE_clean_linker_10, # of connection points: 2
#     Edge 23, Type (0, 1), BuildingBlock: TEMPAE_clean_linker_10, # of connection points: 2
#     Edge 24, Type (0, 1), BuildingBlock: TEMPAE_clean_linker_10, # of connection points: 2
#     Edge 25, Type (0, 1), BuildingBlock: TEMPAE_clean_linker_10, # of connection points: 2
#     Edge 26, Type (0, 1), BuildingBlock: TEMPAE_clean_linker_10, # of connection points: 2
#     Edge 27, Type (0, 1), BuildingBlock: TEMPAE_clean_linker_10, # of connection points: 2
#     Edge 28, Type (0, 1), BuildingBlock: TEMPAE_clean_linker_10, # of connection points: 2
#     Edge 29, Type (0, 1), BuildingBlock: TEMPAE_clean_linker_10, # of connection points: 2
#     Edge 30, Type (0, 1), BuildingBlock: TEMPAE_clean_linker_10, # of connection points: 2
#     Edge 31, Type (0, 1), BuildingBlock: TEMPAE_clean_linker_10, # of connection points: 2
#     Edge 32, Type (0, 1), BuildingBlock: TEMPAE_clean_linker_10, # of connection points: 2
#     Edge 33, Type (0, 1), BuildingBlock: TEMPAE_clean_linker_10, # of connection points: 2
#     Edge 34, Type (0, 1), BuildingBlock: TEMPAE_clean_linker_10, # of connection points: 2
#     Edge 35, Type (0, 1), BuildingBlock: TEMPAE_clean_linker_10, # of connection points: 2
# Relax obj value: 0.144
# Max RMSD: 0.193
# Mean RMSD: 0.140
data_MOF--net-pyr--node1-BETFAJ_clean_sbu_0--node2-BETDAH_clean_linker_0--edge1-TEMPAE_clean_linker_10
_symmetry_space_group_name_H-M    P1
_symmetry_Int_Tables_number       1
_symmetry_cell_setting            triclinic
loop_
_symmetry_equiv_pos_as_xyz
'x, y, z'
_cell_length_a     37.648701
_cell_length_b     41.47427
_cell_length_c     38.641844
_cell_angle_alpha  92.028108
_cell_angle_beta   89.775337
_cell_angle_gamma 106.76948
loop_
_atom_site_label
_atom_site_type_symbol
_atom_site_fract_x
_atom_site_fract_y
_atom_site_fract_z
_atom_type_partial_charge
H0 H 0.38985 0.25237 0.29 0.0
H1 H 0.41783 0.31345 0.20169 0.0
H2 H 0.34256 0.33463 0.27664 0.0
C3 C 0.38663 0.27341 0.27584 0.0
C4 C 0.36319 0.29231 0.28786 0.0
C5 C 0.40483 0.27999 0.24427 0.0
C6 C 0.40354 0.30821 0.22618 0.0
C7 C 0.38195 0.32856 0.23839 0.0
C8 C 0.36099 0.32005 0.26869 0.0
N9 N 0.38115 0.35668 0.21889 0.0
C10 C 0.35405 0.37338 0.22147 0.0
H11 H 0.28144 0.84179 0.71895 0.0
H12 H 0.28867 0.94001 0.68323 0.0
H13 H 0.29355 0.86177 0.61017 0.0
C14 C 0.28156 0.8581 0.69757 0.0
C15 C 0.28756 0.8475 0.66386 0.0
C16 C 0.28509 0.89204 0.70481 0.0
C17 C 0.28589 0.91356 0.67774 0.0
C18 C 0.28692 0.90167 0.64344 0.0
C19 C 0.28897 0.8692 0.63658 0.0
N20 N 0.28552 0.92219 0.61568 0.0
C21 C 0.25771 0.9375 0.61676 0.0
H22 H 0.71616 0.35668 0.96149 0.0
H23 H 0.70947 0.42792 0.88465 0.0
H24 H 0.62321 0.33421 0.89121 0.0
C25 C 0.70116 0.36382 0.94062 0.0
C26 C 0.66753 0.3411 0.92866 0.0
C27 C 0.71666 0.39524 0.92528 0.0
C28 C 0.6979 0.40406 0.89681 0.0
C29 C 0.66395 0.38184 0.88444 0.0
C30 C 0.64943 0.35079 0.90061 0.0
N31 N 0.64316 0.38823 0.85563 0.0
C32 C 0.64691 0.41709 0.83619 0.0
H33 H 0.84607 0.74918 0.45989 0.0
H34 H 0.91406 0.75556 0.36852 0.0
H35 H 0.82487 0.66604 0.38614 0.0
C36 C 0.85334 0.73782 0.43625 0.0
C37 C 0.83193 0.70524 0.42591 0.0
C38 C 0.88287 0.75667 0.41598 0.0
C39 C 0.89232 0.74129 0.38506 0.0
C40 C 0.87124 0.70823 0.37432 0.0
C41 C 0.84134 0.69094 0.39492 0.0
N42 N 0.87371 0.69348 0.34058 0.0
C43 C 0.90451 0.69236 0.32046 0.0
H44 H 0.73219 0.76003 0.82781 0.0
H45 H 0.67554 0.76293 0.92286 0.0
H46 H 0.66575 0.82882 0.84263 0.0
C47 C 0.71479 0.77141 0.84343 0.0
C48 C 0.70287 0.79806 0.83124 0.0
C49 C 0.7088 0.76174 0.87755 0.0
C50 C 0.68193 0.77158 0.89681 0.0
C51 C 0.6647 0.79426 0.88324 0.0
C52 C 0.67673 0.80908 0.85131 0.0
N53 N 0.63507 0.80095 0.90209 0.0
C54 C 0.63035 0.83269 0.9082 0.0
H55 H 0.77389 0.17882 0.45253 0.0
H56 H 0.83987 0.2565 0.52218 0.0
H57 H 0.76648 0.27984 0.44894 0.0
C58 C 0.78183 0.20448 0.46316 0.0
C59 C 0.76655 0.22787 0.44882 0.0
C60 C 0.80857 0.21443 0.48953 0.0
C61 C 0.81995 0.24825 0.50121 0.0
C62 C 0.80504 0.27169 0.48659 0.0
C63 C 0.77804 0.26157 0.46041 0.0
N64 N 0.81566 0.30499 0.50016 0.0
C65 C 0.78859 0.31735 0.51476 0.0
H66 H 0.34078 0.77254 0.19742 0.0
H67 H 0.34345 0.69871 0.27321 0.0
H68 H 0.43002 0.79337 0.27091 0.0
C69 C 0.35401 0.7648 0.21925 0.0
C70 C 0.38716 0.78656 0.23246 0.0
C71 C 0.33757 0.73325 0.23363 0.0
C72 C 0.35556 0.72301 0.26211 0.0
C73 C 0.38931 0.74499 0.27596 0.0
C74 C 0.40427 0.77653 0.26075 0.0
N75 N 0.41068 0.73789 0.30415 0.0
C76 C 0.40601 0.71168 0.32765 0.0
H77 H 0.21778 0.3678 0.67762 0.0
H78 H 0.20508 0.44926 0.74586 0.0
H79 H 0.11869 0.35528 0.73639 0.0
C80 C 0.20193 0.3784 0.69584 0.0
C81 C 0.16665 0.35805 0.70497 0.0
C82 C 0.21639 0.41197 0.70931 0.0
C83 C 0.19521 0.42382 0.73502 0.0
C84 C 0.16006 0.40306 0.7454 0.0
C85 C 0.14603 0.37081 0.72939 0.0
N86 N 0.1359 0.4135 0.76942 0.0
C87 C 0.14284 0.43903 0.79564 0.0
Sm88 Sm 0.04052 0.0724 0.52407 0.0
Sm89 Sm 1.00315 0.04533 0.58891 0.0
C90 C 0.06364 0.09426 0.46287 0.0
C91 C 0.09554 0.12192 0.45279 0.0
C92 C 0.08939 0.1492 0.43601 0.0
C93 C 0.11918 0.17639 0.42744 0.0
C94 C 0.15564 0.17644 0.43502 0.0
C95 C 0.16176 0.14955 0.45275 0.0
C96 C 0.13191 0.12255 0.46176 0.0
C97 C 0.08532 0.05487 0.57076 0.0
C98 C 0.05553 0.12511 0.58941 0.0
C99 C 0.97667 1.02401 0.64945 0.0
C100 C 0.9429 0.99814 0.65897 0.0
C101 C 0.94594 0.9689 0.67426 0.0
C102 C 0.91417 0.94392 0.68326 0.0
C103 C 0.87917 0.94803 0.67699 0.0
C104 C 0.87585 0.97658 0.66073 0.0
C105 C 0.9076 1.00153 0.65156 0.0
C106 C 0.95669 0.0605 0.54199 0.0
C107 C 0.9933 0.99212 0.52418 0.0
O108 O 0.03748 0.10342 0.47937 0.0
O109 O 0.07104 0.06822 0.47597 0.0
O110 O 0.05281 0.03845 0.56311 0.0
O111 O 0.0972 0.0804 0.55108 0.0
O112 O 0.05589 0.12265 0.5553 0.0
O113 O 0.0408 0.09827 0.60794 0.0
O114 O 1.00156 1.01281 0.63336 0.0
O115 O 0.97221 0.05121 0.63627 0.0
O116 O 0.98904 0.0784 0.54944 0.0
O117 O 0.94788 0.03374 0.56013 0.0
O118 O 0.99448 0.99486 0.55835 0.0
O119 O 1.00404 1.0193 0.50547 0.0
H120 H 0.0615 0.14948 0.42953 0.0
H121 H 0.11374 0.19706 0.41417 0.0
H122 H 0.18963 0.14875 0.45852 0.0
H123 H 0.13744 0.10211 0.47539 0.0
H124 H 0.97289 0.96562 0.67968 0.0
H125 H 0.91685 0.92203 0.69632 0.0
H126 H 0.84882 0.98011 0.65639 0.0
H127 H 0.9044 1.02361 0.63926 0.0
Sm128 Sm 0.55966 0.06715 0.09357 0.0
Sm129 Sm 0.49431 0.05585 0.06249 0.0
C130 C 0.62198 0.09168 0.12848 0.0
C131 C 0.62885 0.10247 0.16481 0.0
C132 C 0.65054 0.13541 0.17273 0.0
C133 C 0.65492 0.1474 0.20691 0.0
C134 C 0.63785 0.12648 0.23362 0.0
C135 C 0.61605 0.09348 0.22581 0.0
C136 C 0.61126 0.08158 0.1915 0.0
C137 C 0.51185 1.00722 0.11645 0.0
C138 C 0.49894 0.10048 0.12902 0.0
C139 C 0.43123 0.03556 0.02792 0.0
C140 C 0.42038 1.01901 0.99433 0.0
C141 C 0.43092 0.99032 0.98393 0.0
C142 C 0.42181 0.97604 0.95093 0.0
C143 C 0.40269 0.99069 0.92811 0.0
C144 C 0.39281 1.01968 0.93836 0.0
C145 C 0.40156 0.03373 0.9714 0.0
C146 C 0.54227 0.11696 0.0423 0.0
C147 C 0.55252 1.01958 0.02882 0.0
O148 O 0.60697 0.11036 0.11044 0.0
O149 O 0.6074 0.0595 0.12198 0.0
O150 O 0.50317 0.03436 0.11362 0.0
O151 O 0.5458 1.01133 0.10713 0.0
O152 O 0.53449 0.10461 0.12402 0.0
O153 O 0.47461 0.07729 0.11103 0.0
O154 O 0.44051 1.01773 0.05152 0.0
O155 O 0.45352 0.06599 0.02672 0.0
O156 O 0.55063 0.0894 0.0428 0.0
O157 O 0.50931 0.11282 0.0544 0.0
O158 O 0.51728 1.01527 0.03559 0.0
O159 O 0.57734 0.04489 0.0439 0.0
H160 H 0.66375 0.15197 0.15239 0.0
H161 H 0.67232 0.17282 0.21253 0.0
H162 H 0.6027 0.07706 0.2462 0.0
H163 H 0.59362 0.05625 0.18592 0.0
H164 H 0.44623 0.97904 1.00112 0.0
H165 H 0.42967 0.95368 0.9432 0.0
H166 H 0.37762 0.03101 0.92107 0.0
H167 H 0.39385 0.0562 0.97901 0.0
Sm168 Sm 0.52483 0.53916 0.56263 0.0
Sm169 Sm 0.53675 0.60045 0.60759 0.0
C170 C 0.53633 0.48755 0.52794 0.0
C171 C 0.56082 0.46788 0.53799 0.0
C172 C 0.59016 0.48221 0.56128 0.0
C173 C 0.61123 0.46275 0.57416 0.0
C174 C 0.60391 0.42886 0.56322 0.0
C175 C 0.57471 0.41466 0.53964 0.0
C176 C 0.55313 0.43405 0.52726 0.0
C177 C 0.462 0.53975 0.59954 0.0
C178 C 0.56425 0.5407 0.64101 0.0
C179 C 0.52616 0.64798 0.64968 0.0
C180 C 0.50327 0.66991 0.64319 0.0
C181 C 0.47399 0.6588 0.61933 0.0
C182 C 0.45236 0.67941 0.61153 0.0
C183 C 0.45928 0.71113 0.62804 0.0
C184 C 0.48963 0.72312 0.65075 0.0
C185 C 0.51185 0.70248 0.65818 0.0
C186 C 0.60054 0.61133 0.56859 0.0
C187 C 0.49939 0.59977 0.52897 0.0
O188 O 0.5531 0.51876 0.52053 0.0
O189 O 0.50769 0.48462 0.54804 0.0
O190 O 0.49498 0.54835 0.61135 0.0
O191 O 0.46184 0.5313 0.56677 0.0
O192 O 0.55208 0.52367 0.61161 0.0
O193 O 0.56224 0.57177 0.64598 0.0
O194 O 0.50806 0.61613 0.65249 0.0
O195 O 0.5548 0.65276 0.62943 0.0
O196 O 0.57311 0.58521 0.56647 0.0
O197 O 0.59508 0.63206 0.59221 0.0
O198 O 0.50197 0.61221 0.56133 0.0
O199 O 0.51051 0.5729 0.52158 0.0
H200 H 0.59679 0.50848 0.5696 0.0
H201 H 0.63361 0.47432 0.5922 0.0
H202 H 0.56919 0.38882 0.53005 0.0
H203 H 0.53052 0.42271 0.50939 0.0
H204 H 0.46709 0.63377 0.60739 0.0
H205 H 0.42891 0.66989 0.59406 0.0
H206 H 0.49488 0.74754 0.66396 0.0
H207 H 0.53499 0.71153 0.67604 0.0
Sm208 Sm 0.03875 0.54094 0.07796 0.0
Sm209 Sm 0.03245 0.60959 0.04009 0.0
C210 C 0.06723 0.49121 0.08904 0.0
C211 C 0.09835 0.48567 0.10879 0.0
C212 C 0.128 0.47931 0.09042 0.0
C213 C 0.15698 0.47217 0.10788 0.0
C214 C 0.15697 0.47123 0.14412 0.0
C215 C 0.12826 0.47901 0.1628 0.0
C216 C 0.09901 0.48611 0.14524 0.0
C217 C 1.00871 0.58098 0.12216 0.0
C218 C 0.10424 0.61495 0.09225 0.0
C219 C 1.00605 0.66053 0.02728 0.0
C220 C 0.97263 0.66543 1.01058 0.0
C221 C 0.94094 0.66432 0.03044 0.0
C222 C 0.90996 0.67052 1.01555 0.0
C223 C 0.90989 0.67826 0.98047 0.0
C224 C 0.94118 0.67863 0.96029 0.0
C225 C 0.9723 0.67239 0.97523 0.0
C226 C 0.06175 0.56918 0.99535 0.0
C227 C 0.96501 0.53536 0.03001 0.0
O228 O 0.0768 0.51131 0.06303 0.0
O229 O 0.03828 0.49492 0.10608 0.0
O230 O 0.01995 0.58597 0.09136 0.0
O231 O 1.01224 0.55191 0.1307 0.0
O232 O 0.09197 0.58189 0.09616 0.0
O233 O 0.08705 0.63158 0.07237 0.0
O234 O 1.00071 0.64468 0.05642 0.0
O235 O 0.03068 0.65234 1.00743 0.0
O236 O 0.0507 0.5642 0.02625 0.0
O237 O 0.05872 0.59849 0.98726 0.0
O238 O 0.9761 0.56876 0.02705 0.0
O239 O 0.98488 0.51877 0.04642 0.0
H240 H 0.12839 0.47915 0.06237 0.0
H241 H 0.17905 0.46652 0.09301 0.0
H242 H 0.12773 0.47828 0.1908 0.0
H243 H 0.07669 0.49123 0.16012 0.0
H244 H 0.94014 0.65908 0.05774 0.0
H245 H 0.88608 0.66955 0.03166 0.0
H246 H 0.94208 0.6848 0.93324 0.0
H247 H 0.9963 0.67359 0.95922 0.0
C248 C 0.32704 0.24648 0.32588 0.0
C249 C 0.33856 0.28085 0.31813 0.0
C250 C 0.30145 0.23451 0.35195 0.0
C251 C 0.28477 0.2569 0.36916 0.0
C252 C 0.29693 0.29168 0.36284 0.0
C253 C 0.32444 0.30342 0.33798 0.0
C254 C 0.28999 0.19725 0.35891 0.0
C255 C 0.27909 0.31602 0.38058 0.0
C256 C 0.18553 0.2107 0.38612 0.0
C257 C 0.1872 0.20221 0.42067 0.0
C258 C 0.21669 0.2309 0.36985 0.0
C259 C 0.25043 0.24263 0.3886 0.0
C260 C 0.25183 0.23598 0.42412 0.0
C261 C 0.22002 0.21565 0.43984 0.0
C262 C 0.21415 0.23726 0.33178 0.0
C263 C 0.28741 0.24801 0.44482 0.0
H264 H 0.33623 0.22812 0.31057 0.0
H265 H 0.33375 0.33013 0.33339 0.0
H266 H 0.28854 0.19319 0.38716 0.0
H267 H 0.26197 0.18517 0.3478 0.0
H268 H 0.30952 0.18436 0.34732 0.0
H269 H 0.29456 0.34269 0.37608 0.0
H270 H 0.25037 0.31125 0.37056 0.0
H271 H 0.27715 0.31214 0.40886 0.0
H272 H 0.16042 0.19984 0.37105 0.0
H273 H 0.22119 0.20928 0.4667 0.0
H274 H 0.22967 0.22265 0.31653 0.0
H275 H 0.22688 0.26431 0.32675 0.0
H276 H 0.18502 0.22972 0.32221 0.0
H277 H 0.30437 0.23049 0.43972 0.0
H278 H 0.28192 0.24864 0.47308 0.0
H279 H 0.30404 0.27346 0.43729 0.0
C280 C 0.28454 0.92238 0.76149 0.0
C281 C 0.30227 0.90631 0.73772 0.0
C282 C 0.30216 0.93562 0.79283 0.0
C283 C 0.33806 0.93274 0.79961 0.0
C284 C 0.35613 0.91691 0.77532 0.0
C285 C 0.33796 0.90399 0.74446 0.0
C286 C 0.28255 0.95257 0.81867 0.0
C287 C 0.39453 0.91367 0.78185 0.0
C288 C 0.39622 0.99425 0.865 0.0
C289 C 0.39056 0.9747 0.89435 0.0
C290 C 0.37968 0.98061 0.83356 0.0
C291 C 0.35721 0.94681 0.83195 0.0
C292 C 0.35298 0.92646 0.86112 0.0
C293 C 0.36986 0.94079 0.89223 0.0
C294 C 0.38528 1.00256 0.80245 0.0
C295 C 0.3295 0.89011 0.85982 0.0
H296 H 0.25708 0.92427 0.75565 0.0
H297 H 0.35175 0.89213 0.72532 0.0
H298 H 0.2794 0.93952 0.84357 0.0
H299 H 0.2994 0.97901 0.824 0.0
H300 H 0.25467 0.95258 0.80938 0.0
H301 H 0.40447 0.90051 0.75998 0.0
H302 H 0.41456 0.93899 0.78611 0.0
H303 H 0.3946 0.89952 0.80567 0.0
H304 H 0.41272 1.02044 0.86697 0.0
H305 H 0.36545 0.92597 0.91527 0.0
H306 H 0.35827 1.00548 0.79404 0.0
H307 H 0.39627 0.99049 0.78046 0.0
H308 H 0.40473 0.02801 0.80797 0.0
H309 H 0.30006 0.88891 0.85524 0.0
H310 H 0.33135 0.87725 0.8842 0.0
H311 H 0.33813 0.87603 0.838 0.0
C312 C 0.60397 0.44566 0.81057 0.0
C313 C 0.63891 0.43983 0.81074 0.0
C314 C 0.59284 0.46295 0.78356 0.0
C315 C 0.61717 0.47504 0.75564 0.0
C316 C 0.65295 0.46988 0.75622 0.0
C317 C 0.66323 0.45219 0.78348 0.0
C318 C 0.55441 0.46732 0.78441 0.0
C319 C 0.68023 0.48256 0.72762 0.0
C320 C 0.5753 0.48928 0.66821 0.0
C321 C 0.57908 0.52409 0.6697 0.0
C322 C 0.58754 0.47321 0.69567 0.0
C323 C 0.60477 0.49217 0.72559 0.0
C324 C 0.60924 0.52741 0.72696 0.0
C325 C 0.59617 0.54274 0.69941 0.0
C326 C 0.58136 0.43561 0.69287 0.0
C327 C 0.62767 0.54906 0.75777 0.0
H328 H 0.5847 0.43568 0.83116 0.0
H329 H 0.69003 0.44735 0.783 0.0
H330 H 0.55614 0.49444 0.78378 0.0
H331 H 0.53852 0.45473 0.76112 0.0
H332 H 0.53879 0.4567 0.80784 0.0
H333 H 0.7073 0.47768 0.73222 0.0
H334 H 0.66869 0.4702 0.70254 0.0
H335 H 0.68501 0.51006 0.72519 0.0
H336 H 0.56207 0.47432 0.64573 0.0
H337 H 0.59942 0.56957 0.70122 0.0
H338 H 0.56368 0.4234 0.71454 0.0
H339 H 0.60821 0.42979 0.6951 0.0
H340 H 0.56785 0.42433 0.66802 0.0
H341 H 0.61009 0.54213 0.781 0.0
H342 H 0.63235 0.57634 0.75366 0.0
H343 H 0.65473 0.54463 0.76338 0.0
C344 C 0.93047 0.69801 0.26072 0.0
C345 C 0.92642 0.68231 0.29266 0.0
C346 C 0.94514 0.68476 0.23146 0.0
C347 C 0.95589 0.65472 0.23383 0.0
C348 C 0.95254 0.63926 0.26644 0.0
C349 C 0.93782 0.65311 0.29525 0.0
C350 C 0.94778 0.70228 0.19762 0.0
C351 C 0.96331 0.60728 0.27063 0.0
C352 C 0.95687 0.59659 0.15375 0.0
C353 C 0.99483 0.60382 0.14626 0.0
C354 C 0.94379 0.61387 0.18101 0.0
C355 C 0.96923 0.63866 0.2022 0.0
C356 C 1.0076 0.64658 0.19409 0.0
C357 C 0.01985 0.62919 0.16637 0.0
C358 C 0.90268 0.60458 0.18799 0.0
C359 C 0.03598 0.6725 0.21569 0.0
H360 H 0.92089 0.7201 0.25822 0.0
H361 H 0.93397 0.64032 0.31958 0.0
H362 H 0.97613 0.7071 0.18689 0.0
H363 H 0.92829 0.68578 0.1785 0.0
H364 H 0.94101 0.7266 0.20048 0.0
H365 H 0.96058 0.59903 0.2978 0.0
H366 H 0.94544 0.5868 0.25381 0.0
H367 H 0.99239 0.61096 0.26227 0.0
H368 H 0.93736 0.57663 0.13884 0.0
H369 H 0.04929 0.63444 0.16136 0.0
H370 H 0.89318 0.62754 0.18976 0.0
H371 H 0.89683 0.59226 0.21325 0.0
H372 H 0.88623 0.58716 0.16756 0.0
H373 H 0.02837 0.69642 0.21783 0.0
H374 H 0.06432 0.67773 0.20473 0.0
H375 H 0.03645 0.66342 0.24231 0.0
C376 C 0.45783 0.2584 0.22644 0.0
C377 C 0.41969 0.25406 0.22801 0.0
C378 C 0.47146 0.2328 0.21198 0.0
C379 C 0.44622 0.20262 0.19856 0.0
C380 C 0.40757 0.19827 0.20028 0.0
C381 C 0.39478 0.22405 0.21522 0.0
C382 C 0.51281 0.23812 0.21073 0.0
C383 C 0.37978 0.16667 0.18593 0.0
C384 C 0.48015 0.15261 0.12869 0.0
C385 C 0.48656 0.12662 0.14752 0.0
C386 C 0.46716 0.17762 0.14508 0.0
C387 C 0.46024 0.1763 0.1811 0.0
C388 C 0.46641 0.14978 0.20015 0.0
C389 C 0.47966 0.12515 0.18303 0.0
C390 C 0.4607 0.20534 0.12385 0.0
C391 C 0.45883 0.14738 0.23849 0.0
H392 H 0.47683 0.2816 0.23679 0.0
H393 H 0.3652 0.22091 0.21677 0.0
H394 H 0.51994 0.21704 0.22311 0.0
H395 H 0.52192 0.23826 0.18338 0.0
H396 H 0.52859 0.26219 0.22395 0.0
H397 H 0.35067 0.16679 0.19059 0.0
H398 H 0.38377 0.16404 0.15762 0.0
H399 H 0.38417 0.14415 0.19782 0.0
H400 H 0.48522 0.1533 0.10105 0.0
H401 H 0.48432 0.10464 0.19723 0.0
H402 H 0.47762 0.23026 0.13436 0.0
H403 H 0.43118 0.20505 0.12551 0.0
H404 H 0.46781 0.20286 0.09615 0.0
H405 H 0.4762 0.17034 0.2524 0.0
H406 H 0.46462 0.12497 0.24939 0.0
H407 H 0.42942 0.14602 0.24355 0.0
C408 C 0.19195 0.9301 0.60844 0.0
C409 C 0.22566 0.94797 0.62376 0.0
C410 C 0.16141 0.94264 0.61152 0.0
C411 C 0.16595 0.97385 0.6295 0.0
C412 C 0.19781 0.98823 0.65019 0.0
C413 C 0.22797 0.97521 0.64668 0.0
C414 C 0.12639 0.92518 0.59161 0.0
C415 C 0.20199 1.02011 0.67181 0.0
C416 C 0.1421 0.03766 0.57467 0.0
C417 C 0.10896 0.03934 0.58948 0.0
C418 C 0.16068 1.01606 0.58764 0.0
C419 C 0.14595 0.99657 0.61666 0.0
C420 C 0.11319 0.99938 0.63265 0.0
C421 C 0.09492 1.02079 0.61858 0.0
C422 C 0.19513 1.01302 0.56913 0.0
C423 C 0.09606 0.9787 0.66308 0.0
H424 H 0.19009 0.90764 0.59243 0.0
H425 H 0.25385 0.98753 0.66009 0.0
H426 H 0.1016 0.92779 0.60572 0.0
H427 H 0.12714 0.93694 0.56616 0.0
H428 H 0.12361 0.89797 0.58689 0.0
H429 H 0.22388 1.02363 0.69196 0.0
H430 H 0.2098 0.04203 0.65478 0.0
H431 H 0.1754 1.0198 0.6845 0.0
H432 H 0.15217 0.05153 0.55161 0.0
H433 H 0.06911 1.02235 0.62975 0.0
H434 H 0.19052 0.98686 0.55867 0.0
H435 H 0.21893 1.01873 0.58742 0.0
H436 H 0.20283 0.03031 0.54726 0.0
H437 H 0.07571 0.95509 0.65329 0.0
H438 H 0.08075 0.99243 0.67982 0.0
H439 H 0.11697 0.9718 0.67909 0.0
C440 C 0.75769 0.42429 0.97547 0.0
C441 C 0.7527 0.41806 0.93953 0.0
C442 C 0.79197 0.44357 0.98984 0.0
C443 C 0.82267 0.45682 0.96796 0.0
C444 C 0.81787 0.45058 0.93163 0.0
C445 C 0.78298 0.43164 0.91787 0.0
C446 C 0.79536 0.44965 0.0286 0.0
C447 C 0.84987 0.46338 0.90729 0.0
C448 C 0.90275 0.53135 1.00247 0.0
C449 C 0.92868 0.51543 1.01383 0.0
C450 C 0.86842 0.5127 0.98751 0.0
C451 C 0.85964 0.47712 0.98316 0.0
C452 C 0.88592 0.46096 0.99414 0.0
C453 C 0.91978 0.48016 1.00946 0.0
C454 C 0.84127 0.53109 0.97671 0.0
C455 C 0.87829 0.42326 0.98982 0.0
H456 H 0.73455 0.41399 0.9925 0.0
H457 H 0.77972 0.42655 0.89018 0.0
H458 H 0.81692 0.43909 0.03892 0.0
H459 H 0.80427 0.47713 0.03493 0.0
H460 H 0.76885 0.43813 0.04209 0.0
H461 H 0.84197 0.45607 0.87982 0.0
H462 H 0.86036 0.49125 0.90983 0.0
H463 H 0.87307 0.45329 0.91425 0.0
H464 H 0.90903 0.55849 1.00566 0.0
H465 H 0.9395 0.46741 1.01777 0.0
H466 H 0.81493 0.52169 0.99109 0.0
H467 H 0.83459 0.52603 0.94875 0.0
H468 H 0.85214 0.55876 0.98156 0.0
H469 H 0.85398 0.41043 1.0056 0.0
H470 H 0.90232 0.41469 0.99779 0.0
H471 H 0.87135 0.4151 0.9624 0.0
C472 C 0.76543 0.66852 0.42941 0.0
C473 C 0.79828 0.68733 0.44633 0.0
C474 C 0.733 0.65326 0.44803 0.0
C475 C 0.73296 0.65695 0.48462 0.0
C476 C 0.76609 0.67544 0.50196 0.0
C477 C 0.79822 0.69019 0.48273 0.0
C478 C 0.69835 0.63407 0.42838 0.0
C479 C 0.76738 0.68026 0.5409 0.0
C480 C 0.64265 0.65312 0.53156 0.0
C481 C 0.63236 0.62061 0.54449 0.0
C482 C 0.67452 0.66473 0.51127 0.0
C483 C 0.69766 0.64372 0.50452 0.0
C484 C 0.68726 0.61061 0.51736 0.0
C485 C 0.65434 0.5992 0.53678 0.0
C486 C 0.68375 0.69986 0.49765 0.0
C487 C 0.71148 0.58764 0.51139 0.0
H488 H 0.76458 0.66655 0.40138 0.0
H489 H 0.82337 0.70415 0.49633 0.0
H490 H 0.68742 0.60837 0.43841 0.0
H491 H 0.67652 0.64697 0.43231 0.0
H492 H 0.70332 0.63189 0.40015 0.0
H493 H 0.79563 0.69387 0.55068 0.0
H494 H 0.7481 0.69479 0.54927 0.0
H495 H 0.75804 0.65546 0.55318 0.0
H496 H 0.62563 0.66968 0.53748 0.0
H497 H 0.64667 0.57419 0.54714 0.0
H498 H 0.68774 0.69907 0.4692 0.0
H499 H 0.71015 0.71568 0.50938 0.0
H500 H 0.66172 0.71219 0.50342 0.0
H501 H 0.71466 0.58329 0.4832 0.0
H502 H 0.7 0.56291 0.52348 0.0
H503 H 0.73963 0.59979 0.5222 0.0
C504 C 0.33246 0.41409 0.19004 0.0
C505 C 0.32758 0.39212 0.21735 0.0
C506 C 0.3055 0.43004 0.18226 0.0
C507 C 0.27288 0.42378 0.20243 0.0
C508 C 0.26874 0.4028 0.23128 0.0
C509 C 0.29622 0.38695 0.23834 0.0
C510 C 0.31099 0.45194 0.15115 0.0
C511 C 0.23446 0.39579 0.25346 0.0
C512 C 0.20941 0.47874 0.18647 0.0
C513 C 0.18506 0.45883 0.16157 0.0
C514 C 0.23785 0.46746 0.2008 0.0
C515 C 0.24132 0.4354 0.19028 0.0
C516 C 0.21584 0.4149 0.16598 0.0
C517 C 0.18821 0.42697 0.15181 0.0
C518 C 0.26482 0.49017 0.22626 0.0
C519 C 0.21836 0.38053 0.15412 0.0
H520 H 0.35687 0.41787 0.1739 0.0
H521 H 0.29264 0.36983 0.25951 0.0
H522 H 0.29081 0.43927 0.13055 0.0
H523 H 0.30575 0.47634 0.15805 0.0
H524 H 0.33941 0.457 0.14043 0.0
H525 H 0.2372 0.38207 0.27701 0.0
H526 H 0.22861 0.4197 0.26145 0.0
H527 H 0.21016 0.3804 0.23823 0.0
H528 H 0.20694 0.50347 0.19383 0.0
H529 H 0.16909 0.41156 0.13272 0.0
H530 H 0.29317 0.49697 0.21526 0.0
H531 H 0.2657 0.47675 0.25043 0.0
H532 H 0.25744 0.51372 0.23282 0.0
H533 H 0.24507 0.38308 0.14066 0.0
H534 H 0.19538 0.36723 0.13621 0.0
H535 H 0.21775 0.36468 0.17677 0.0
C536 C 0.65562 0.3036 0.98102 0.0
C537 C 0.65149 0.30735 0.94527 0.0
C538 C 0.64048 0.27235 0.99682 0.0
C539 C 0.62015 0.24369 0.97675 0.0
C540 C 0.61605 0.24715 0.9407 0.0
C541 C 0.63181 0.27859 0.92549 0.0
C542 C 0.64571 0.27018 0.03528 0.0
C543 C 0.59432 0.21767 0.91813 0.0
C544 C 0.59958 0.15434 1.01273 0.0
C545 C 0.56342 0.14894 0.0255 0.0
C546 C 0.61856 0.185 0.99709 0.0
C547 C 0.60097 0.21089 0.99378 0.0
C548 C 0.56449 0.20536 1.00671 0.0
C549 C 0.54648 0.17485 1.02244 0.0
C550 C 0.65751 0.18978 0.98416 0.0
C551 C 0.54418 0.23168 1.00375 0.0
H552 H 0.67008 0.32535 0.99705 0.0
H553 H 0.62878 0.28047 0.89784 0.0
H554 H 0.61839 0.2639 0.04832 0.0
H555 H 0.65827 0.24967 0.04041 0.0
H556 H 0.66367 0.29412 0.0471 0.0
H557 H 0.59475 0.2239 0.89038 0.0
H558 H 0.60574 0.19602 0.92069 0.0
H559 H 0.56505 0.20944 0.92679 0.0
H560 H 0.61311 0.13473 1.01509 0.0
H561 H 0.51863 0.17122 0.03223 0.0
H562 H 0.6767 0.21221 0.99743 0.0
H563 H 0.65878 0.19453 0.95605 0.0
H564 H 0.66748 0.16752 0.98857 0.0
H565 H 0.56004 0.25548 1.01729 0.0
H566 H 0.51588 0.22355 1.01492 0.0
H567 H 0.54179 0.2373 0.97614 0.0
C568 C 0.88009 0.81282 0.4415 0.0
C569 C 0.90147 0.79284 0.42721 0.0
C570 C 0.89652 0.8452 0.45624 0.0
C571 C 0.93557 0.85893 0.45609 0.0
C572 C 0.95739 0.83968 0.4404 0.0
C573 C 0.94015 0.8069 0.42627 0.0
C574 C 0.87196 0.86447 0.47273 0.0
C575 C 0.99907 0.85341 0.43929 0.0
C576 C 0.97162 0.95475 0.4708 0.0
C577 C 0.9798 0.95808 0.50645 0.0
C578 C 0.95821 0.92279 0.45394 0.0
C579 C 0.95312 0.89315 0.47293 0.0
C580 C 0.96222 0.8964 0.50874 0.0
C581 C 0.9752 0.92866 0.52502 0.0
C582 C 0.94859 0.92074 0.41589 0.0
C583 C 0.95737 0.86572 0.53016 0.0
H584 H 0.85012 0.80289 0.44165 0.0
H585 H 0.95706 0.79191 0.41546 0.0
H586 H 0.87941 0.87013 0.50049 0.0
H587 H 0.87632 0.88893 0.46015 0.0
H588 H 0.84206 0.8503 0.47083 0.0
H589 H 1.01205 0.83621 0.42476 0.0
H590 H 1.00711 0.87825 0.42703 0.0
H591 H 1.01047 0.85743 0.46605 0.0
H592 H 0.97506 0.9772 0.45608 0.0
H593 H 0.98172 0.9308 0.55245 0.0
H594 H 0.91833 0.90903 0.41224 0.0
H595 H 0.96291 0.90448 0.40161 0.0
H596 H 0.9563 0.94591 0.40424 0.0
H597 H 0.92747 0.85179 0.53167 0.0
H598 H 0.96842 0.87236 0.55691 0.0
H599 H 0.97163 0.8484 0.51774 0.0
C600 C 0.33094 0.81659 0.68201 0.0
C601 C 0.30355 0.81936 0.65869 0.0
C602 C 0.35391 0.79669 0.6737 0.0
C603 C 0.34979 0.77974 0.64101 0.0
C604 C 0.32111 0.78085 0.61805 0.0
C605 C 0.29772 0.8003 0.62752 0.0
C606 C 0.38392 0.79541 0.69915 0.0
C607 C 0.31665 0.76323 0.58281 0.0
C608 C 0.43849 0.76135 0.61632 0.0
C609 C 0.43058 0.72817 0.62679 0.0
C610 C 0.41101 0.77791 0.61804 0.0
C611 C 0.37579 0.76082 0.63141 0.0
C612 C 0.36753 0.72696 0.64087 0.0
C613 C 0.39513 0.71091 0.63819 0.0
C614 C 0.42022 0.8141 0.6075 0.0
C615 C 0.33072 0.70861 0.65657 0.0
H616 H 0.33642 0.83177 0.70584 0.0
H617 H 0.27637 0.80228 0.60966 0.0
H618 H 0.38332 0.76893 0.70333 0.0
H619 H 0.41156 0.80847 0.68857 0.0
H620 H 0.381 0.80761 0.72464 0.0
H621 H 0.29162 0.76516 0.56888 0.0
H622 H 0.34143 0.77463 0.56694 0.0
H623 H 0.31478 0.73623 0.58518 0.0
H624 H 0.46612 0.77432 0.60746 0.0
H625 H 0.38958 0.68528 0.64668 0.0
H626 H 0.42327 0.83092 0.63096 0.0
H627 H 0.39744 0.81802 0.59159 0.0
H628 H 0.44645 0.82179 0.59262 0.0
H629 H 0.32858 0.71967 0.6828 0.0
H630 H 0.32745 0.68129 0.65893 0.0
H631 H 0.30738 0.71159 0.64084 0.0
C632 C 0.70609 0.83658 0.78084 0.0
C633 C 0.72184 0.81614 0.80033 0.0
C634 C 0.72664 0.85677 0.75497 0.0
C635 C 0.7629 0.8552 0.74746 0.0
C636 C 0.77769 0.83259 0.76466 0.0
C637 C 0.75788 0.81471 0.79173 0.0
C638 C 0.71075 0.88154 0.7375 0.0
C639 C 0.81612 0.82959 0.75696 0.0
C640 C 0.82334 0.89836 0.67468 0.0
C641 C 0.84685 0.92573 0.69313 0.0
C642 C 0.79395 0.87582 0.69155 0.0
C643 C 0.78848 0.88141 0.72728 0.0
C644 C 0.8117 0.90993 0.74545 0.0
C645 C 0.84077 0.93175 0.72803 0.0
C646 C 0.7703 0.84513 0.67184 0.0
C647 C 0.80744 0.91631 0.7838 0.0
H648 H 0.67836 0.83789 0.78645 0.0
H649 H 0.77226 0.80113 0.80712 0.0
H650 H 0.72567 0.9075 0.74695 0.0
H651 H 0.71483 0.8804 0.70909 0.0
H652 H 0.68072 0.8769 0.74287 0.0
H653 H 0.82014 0.80618 0.76721 0.0
H654 H 0.82141 0.82969 0.72871 0.0
H655 H 0.83723 0.85141 0.76919 0.0
H656 H 0.82868 0.89411 0.64755 0.0
H657 H 0.85949 0.95313 0.74188 0.0
H658 H 0.74047 0.84279 0.67568 0.0
H659 H 0.77542 0.82213 0.68192 0.0
H660 H 0.77628 0.84596 0.64365 0.0
H661 H 0.77809 0.91416 0.79005 0.0
H662 H 0.82496 0.94161 0.79287 0.0
H663 H 0.81566 0.89711 0.79856 0.0
C664 C 0.70415 0.20023 0.42436 0.0
C665 C 0.7416 0.217 0.41923 0.0
C666 C 0.68154 0.1846 0.39632 0.0
C667 C 0.69732 0.1856 0.36298 0.0
C668 C 0.73514 0.20302 0.3578 0.0
C669 C 0.75687 0.21871 0.38617 0.0
C670 C 0.64129 0.16609 0.4024 0.0
C671 C 0.75298 0.20403 0.32258 0.0
C672 C 0.66012 0.12013 0.29234 0.0
C673 C 0.64556 0.13864 0.26962 0.0
C674 C 0.67501 0.13438 0.32427 0.0
C675 C 0.67491 0.16771 0.33335 0.0
C676 C 0.65758 0.18544 0.31162 0.0
C677 C 0.64307 0.17062 0.27979 0.0
C678 C 0.6936 0.11489 0.3468 0.0
C679 C 0.657 0.221 0.32073 0.0
H680 H 0.69298 0.19852 0.45037 0.0
H681 H 0.78621 0.23112 0.38286 0.0
H682 H 0.62324 0.17555 0.38524 0.0
H683 H 0.63614 0.13887 0.39577 0.0
H684 H 0.63299 0.1689 0.4297 0.0
H685 H 0.78264 0.21911 0.32309 0.0
H686 H 0.75119 0.17807 0.313 0.0
H687 H 0.73799 0.21496 0.30369 0.0
H688 H 0.66222 0.09547 0.28413 0.0
H689 H 0.63139 0.18462 0.26208 0.0
H690 H 0.68499 0.11626 0.37416 0.0
H691 H 0.72412 0.12621 0.34595 0.0
H692 H 0.6871 0.08798 0.33813 0.0
H693 H 0.64749 0.22287 0.34773 0.0
H694 H 0.6387 0.22968 0.30307 0.0
H695 H 0.68553 0.23834 0.31905 0.0
C696 C 0.39719 0.66147 0.36636 0.0
C697 C 0.41647 0.69443 0.35737 0.0
C698 C 0.40901 0.64575 0.39463 0.0
C699 C 0.4411 0.66308 0.41459 0.0
C700 C 0.46041 0.69643 0.40539 0.0
C701 C 0.4479 0.7115 0.3773 0.0
C702 C 0.38709 0.61043 0.40316 0.0
C703 C 0.49488 0.71622 0.42493 0.0
C704 C 0.45972 0.63586 0.5066 0.0
C705 C 0.484 0.61608 0.50012 0.0
C706 C 0.44495 0.65046 0.47929 0.0
C707 C 0.45524 0.64629 0.44424 0.0
C708 C 0.48028 0.62685 0.43777 0.0
C709 C 0.49367 0.61173 0.46536 0.0
C710 C 0.41806 0.67032 0.48798 0.0
C711 C 0.49356 0.62239 0.40152 0.0
H712 H 0.37297 0.64789 0.35125 0.0
H713 H 0.46316 0.73691 0.37063 0.0
H714 H 0.40492 0.59337 0.40046 0.0
H715 H 0.37786 0.6099 0.4305 0.0
H716 H 0.36237 0.60051 0.38611 0.0
H717 H 0.50698 0.74172 0.41465 0.0
H718 H 0.48838 0.71902 0.4527 0.0
H719 H 0.51611 0.70242 0.42345 0.0
H720 H 0.45168 0.6395 0.53308 0.0
H721 H 0.51256 0.5969 0.45966 0.0
H722 H 0.39184 0.65956 0.47321 0.0
H723 H 0.42971 0.69675 0.48016 0.0
H724 H 0.41161 0.67041 0.51606 0.0
H725 H 0.46966 0.60929 0.3846 0.0
H726 H 0.51398 0.60767 0.40068 0.0
H727 H 0.50663 0.64738 0.39054 0.0
C728 C 0.12483 0.48834 0.8212 0.0
C729 C 0.13725 0.45992 0.82572 0.0
C730 C 0.11352 0.50551 0.84968 0.0
C731 C 0.11425 0.49404 0.8839 0.0
C732 C 0.12731 0.46552 0.88847 0.0
C733 C 0.13844 0.44886 0.85951 0.0
C734 C 0.09991 0.53555 0.84298 0.0
C735 C 0.12877 0.45207 0.92402 0.0
C736 C 0.11326 0.55668 0.96023 0.0
C737 C 0.07608 0.54674 0.97097 0.0
C738 C 0.12615 0.53927 0.93293 0.0
C739 C 0.10117 0.51165 0.91467 0.0
C740 C 0.06351 0.50147 0.92554 0.0
C741 C 0.05157 0.51888 0.95352 0.0
C742 C 0.1665 0.5511 0.92297 0.0
C743 C 0.03539 0.4729 0.90671 0.0
H744 H 0.12295 0.49664 0.79515 0.0
H745 H 0.14714 0.42647 0.86324 0.0
H746 H 0.0708 0.53064 0.85178 0.0
H747 H 0.11679 0.55795 0.85805 0.0
H748 H 0.10121 0.54158 0.81513 0.0
H749 H 0.14058 0.43041 0.92361 0.0
H750 H 0.14578 0.47226 0.94169 0.0
H751 H 0.10041 0.44384 0.93495 0.0
H752 H 0.13227 0.57863 0.97287 0.0
H753 H 0.02256 0.5116 0.96076 0.0
H754 H 0.16902 0.56085 0.89643 0.0
H755 H 0.17866 0.5297 0.92265 0.0
H756 H 0.183 0.5713 0.94098 0.0
H757 H 0.03296 0.47943 0.87939 0.0
H758 H 1.00753 0.4672 0.91876 0.0
H759 H 0.04469 0.44982 0.90632 0.0
C760 C 0.59216 0.87216 0.90952 0.0
C761 C 0.62235 0.86265 0.92201 0.0
C762 C 0.58106 0.89835 0.92623 0.0
C763 C 0.60047 0.91503 0.95619 0.0
C764 C 0.63124 0.90548 0.96857 0.0
C765 C 0.64187 0.87945 0.95118 0.0
C766 C 0.54807 0.90771 0.91231 0.0
C767 C 0.65208 0.92188 1.0009 0.0
C768 C 0.59254 1.00154 0.98489 0.0
C769 C 0.56427 0.99315 1.00945 0.0
C770 C 0.60416 0.9763 0.96693 0.0
C771 C 0.58822 0.94205 0.9749 0.0
C772 C 0.56046 0.93364 1.00063 0.0
C773 C 0.54827 0.95926 1.01706 0.0
C774 C 0.63315 0.98619 0.93913 0.0
C775 C 0.54373 0.89767 1.01099 0.0
H776 H 0.57669 0.85858 0.88727 0.0
H777 H 0.66477 0.87145 0.9611 0.0
H778 H 0.52566 0.90281 0.93185 0.0
H779 H 0.55597 0.93504 0.90729 0.0
H780 H 0.53689 0.89331 0.88802 0.0
H781 H 0.67546 0.91164 1.00698 0.0
H782 H 0.66323 0.94946 0.99792 0.0
H783 H 0.6329 0.91793 1.02326 0.0
H784 H 0.60504 0.02781 0.97927 0.0
H785 H 0.52694 0.95289 0.03668 0.0
H786 H 0.62176 0.97357 0.91409 0.0
H787 H 0.65757 0.97761 0.94555 0.0
H788 H 0.64254 1.01385 0.93578 0.0
H789 H 0.52668 0.88285 0.98934 0.0
H790 H 0.52587 0.89591 0.03422 0.0
H791 H 0.56589 0.88577 1.0165 0.0
C792 C 0.86451 0.20036 0.51032 0.0
C793 C 0.82643 0.19004 0.5028 0.0
C794 C 0.88281 0.17706 0.5193 0.0
C795 C 0.86277 0.14256 0.51926 0.0
C796 C 0.82418 0.13194 0.51291 0.0
C797 C 0.80623 0.15602 0.50541 0.0
C798 C 0.92389 0.18928 0.52731 0.0
C799 C 0.80229 0.09513 0.51242 0.0
C800 C 0.92399 0.08665 0.50133 0.0
C801 C 0.92861 0.07683 0.53471 0.0
C802 C 0.90052 0.10661 0.49556 0.0
C803 C 0.88284 0.11759 0.52418 0.0
C804 C 0.8871 0.10709 0.55787 0.0
C805 C 0.90976 0.08636 0.56266 0.0
C806 C 0.8959 0.11716 0.45923 0.0
C807 C 0.86992 0.11959 0.58907 0.0
H808 H 0.8805 0.22645 0.50789 0.0
H809 H 0.77659 0.14802 0.50057 0.0
H810 H 0.93026 0.17797 0.55126 0.0
H811 H 0.93954 0.18135 0.50587 0.0
H812 H 0.93407 0.21716 0.53068 0.0
H813 H 0.77206 0.0913 0.50895 0.0
H814 H 0.81214 0.08154 0.49089 0.0
H815 H 0.80681 0.08349 0.53679 0.0
H816 H 0.93929 0.07936 0.48007 0.0
H817 H 0.91443 0.07908 0.58857 0.0
H818 H 0.90922 0.14462 0.45729 0.0
H819 H 0.86602 0.1123 0.45297 0.0
H820 H 0.90848 0.10368 0.43957 0.0
H821 H 0.8831 0.14704 0.59335 0.0
H822 H 0.87346 0.10668 0.61298 0.0
H823 H 0.83989 0.11585 0.58469 0.0
C824 C 0.30051 0.68514 0.19458 0.0
C825 C 0.30159 0.71243 0.21751 0.0
C826 C 0.26895 0.67002 0.17348 0.0
C827 C 0.2373 0.6822 0.17534 0.0
C828 C 0.23812 0.70942 0.19894 0.0
C829 C 0.2702 0.72433 0.21928 0.0
C830 C 0.26992 0.64161 0.14837 0.0
C831 C 0.20521 0.72316 0.20244 0.0
C832 C 0.1645 0.66222 0.10135 0.0
C833 C 0.13789 0.63359 0.11323 0.0
C834 C 0.19711 0.67806 0.12089 0.0
C835 C 0.20291 0.66572 0.15369 0.0
C836 C 0.17544 0.63747 0.1661 0.0
C837 C 0.14383 0.62163 0.14569 0.0
C838 C 0.2257 0.70765 0.10611 0.0
C839 C 0.17934 0.6239 0.20118 0.0
H840 H 0.32503 0.67656 0.19203 0.0
H841 H 0.27114 0.74605 0.2361 0.0
H842 H 0.24691 0.61879 0.15384 0.0
H843 H 0.26579 0.64869 0.12157 0.0
H844 H 0.29655 0.63518 0.14964 0.0
H845 H 0.20956 0.74354 0.22279 0.0
H846 H 0.19973 0.73328 0.17747 0.0
H847 H 0.18001 0.70265 0.20881 0.0
H848 H 0.16036 0.67165 0.07634 0.0
H849 H 0.12331 0.59984 0.15548 0.0
H850 H 0.25279 0.70212 0.10413 0.0
H851 H 0.22977 0.73019 0.12364 0.0
H852 H 0.21766 0.71379 0.08006 0.0
H853 H 0.20443 0.61501 0.20177 0.0
H854 H 0.15489 0.60269 0.20782 0.0
H855 H 0.18298 0.64424 0.22146 0.0
C856 C 0.26443 0.42847 0.66139 0.0
C857 C 0.25295 0.43402 0.69539 0.0
C858 C 0.29918 0.4469 0.64841 0.0
C859 C 0.32325 0.473 0.66902 0.0
C860 C 0.31144 0.47992 0.70273 0.0
C861 C 0.27693 0.46023 0.71561 0.0
C862 C 0.31026 0.43813 0.61246 0.0
C863 C 0.33538 0.50819 0.72533 0.0
C864 C 0.42629 0.49913 0.64325 0.0
C865 C 0.42839 0.52581 0.62118 0.0
C866 C 0.3927 0.48238 0.65977 0.0
C867 C 0.36041 0.49296 0.65486 0.0
C868 C 0.36312 0.52101 0.63388 0.0
C869 C 0.3967 0.53657 0.61686 0.0
C870 C 0.39129 0.45224 0.68108 0.0
C871 C 0.33011 0.53394 0.62825 0.0
H872 H 0.24619 0.40964 0.6444 0.0
H873 H 0.26912 0.4652 0.7418 0.0
H874 H 0.3147 0.46017 0.59582 0.0
H875 H 0.33688 0.43172 0.61365 0.0
H876 H 0.28904 0.41651 0.59997 0.0
H877 H 0.3216 0.51176 0.75005 0.0
H878 H 0.3619 0.5029 0.73132 0.0
H879 H 0.3423 0.53211 0.71135 0.0
H880 H 0.45049 0.49026 0.64628 0.0
H881 H 0.39806 0.55702 0.5997 0.0
H882 H 0.37292 0.42918 0.66808 0.0
H883 H 0.37932 0.45496 0.70691 0.0
H884 H 0.41915 0.44863 0.68465 0.0
H885 H 0.30999 0.51611 0.61061 0.0
H886 H 0.33818 0.55911 0.61659 0.0
H887 H 0.31572 0.53568 0.65306 0.0
C888 C 0.77391 0.7629 0.88897 0.0
C889 C 0.73592 0.74712 0.89373 0.0
C890 C 0.80091 0.74981 0.90264 0.0
C891 C 0.78974 0.7202 0.92179 0.0
C892 C 0.75143 0.70423 0.92696 0.0
C893 C 0.72484 0.71806 0.913 0.0
C894 C 0.84141 0.7679 0.89683 0.0
C895 C 0.73864 0.67257 0.9472 0.0
C896 C 0.86363 0.67529 0.93278 0.0
C897 C 0.87797 0.68759 0.96568 0.0
C898 C 0.83398 0.68476 0.91856 0.0
C899 C 0.81851 0.70715 0.93765 0.0
C900 C 0.83266 0.71939 0.97095 0.0
C901 C 0.86216 0.70946 0.98454 0.0
C902 C 0.81974 0.67143 0.88283 0.0
C903 C 0.81747 0.74392 0.99176 0.0
H904 H 0.78257 0.78583 0.87457 0.0
H905 H 0.69551 0.70595 0.91663 0.0
H906 H 0.85569 0.77609 0.92206 0.0
H907 H 0.85523 0.75058 0.88373 0.0
H908 H 0.84532 0.79039 0.88084 0.0
H909 H 0.70791 0.66279 0.94819 0.0
H910 H 0.74975 0.65274 0.93535 0.0
H911 H 0.74962 0.67758 0.97407 0.0
H912 H 0.87557 0.65821 0.9182 0.0
H913 H 0.87354 0.71956 1.0097 0.0
H914 H 0.82515 0.69253 0.86481 0.0
H915 H 0.78927 0.65975 0.88341 0.0
H916 H 0.83305 0.6525 0.87234 0.0
H917 H 0.82304 0.76795 0.97809 0.0
H918 H 0.82997 0.74945 1.01808 0.0
H919 H 0.78694 0.73377 0.9943 0.0
C920 C 0.40133 0.8498 0.23185 0.0
C921 C 0.40407 0.81963 0.2161 0.0
C922 C 0.41635 0.88105 0.21611 0.0
C923 C 0.43501 0.88236 0.18394 0.0
C924 C 0.43767 0.85177 0.16797 0.0
C925 C 0.42197 0.82087 0.18407 0.0
C926 C 0.41253 0.91275 0.23409 0.0
C927 C 0.45746 0.85168 0.13394 0.0
C928 C 0.45281 0.96125 0.12905 0.0
C929 C 0.49054 0.9772 0.13572 0.0
C930 C 0.43427 0.93044 0.14447 0.0
C931 C 0.45357 0.91574 0.16797 0.0
C932 C 0.4913 0.93261 0.1756 0.0
C933 C 0.50935 0.9626 0.159 0.0
C934 C 0.39437 0.91305 0.1348 0.0
C935 C 0.51295 0.9187 0.20101 0.0
H936 H 0.38714 0.84889 0.25642 0.0
H937 H 0.42397 0.79757 0.17175 0.0
H938 H 0.4404 0.93043 0.23962 0.0
H939 H 0.39784 0.92564 0.21692 0.0
H940 H 0.39706 0.90758 0.25879 0.0
H941 H 0.45614 0.8258 0.1243 0.0
H942 H 0.44509 0.86397 0.11411 0.0
H943 H 0.48704 0.86645 0.13693 0.0
H944 H 0.43822 0.97208 0.11069 0.0
H945 H 0.5385 0.97478 0.16429 0.0
H946 H 0.37694 0.90893 0.15835 0.0
H947 H 0.39209 0.88789 0.12262 0.0
H948 H 0.38305 0.92773 0.11651 0.0
H949 H 0.49822 0.91458 0.22613 0.0
H950 H 0.54138 0.93575 0.20566 0.0
H951 H 0.51513 0.89391 0.19113 0.0
C952 C 0.16585 0.29727 0.69503 0.0
C953 C 0.15083 0.3237 0.6882 0.0
C954 C 0.15075 0.26469 0.67974 0.0
C955 C 0.12035 0.25836 0.65629 0.0
C956 C 0.10557 0.28525 0.64887 0.0
C957 C 0.12065 0.31735 0.66517 0.0
C958 C 0.16722 0.23693 0.68886 0.0
C959 C 0.07381 0.28014 0.62359 0.0
C960 C 0.10173 0.18284 0.59151 0.0
C961 C 0.07257 0.15874 0.60713 0.0
C962 C 0.11788 0.2149 0.60742 0.0
C963 C 0.10407 0.22375 0.6395 0.0
C964 C 0.07445 0.19952 0.65531 0.0
C965 C 0.05944 0.16728 0.63923 0.0
C966 C 0.14972 0.2394 0.58971 0.0
C967 C 0.05832 0.20779 0.68913 0.0
H968 H 0.18915 0.30202 0.7128 0.0
H969 H 0.10913 0.33773 0.65957 0.0
H970 H 0.14556 0.21586 0.70013 0.0
H971 H 0.17744 0.22674 0.66514 0.0
H972 H 0.19054 0.24571 0.70768 0.0
H973 H 0.0661 0.30369 0.61982 0.0
H974 H 0.08135 0.27087 0.59811 0.0
H975 H 0.04916 0.26066 0.63295 0.0
H976 H 0.1123 0.17647 0.56686 0.0
H977 H 0.03675 0.14899 0.65142 0.0
H978 H 0.17416 0.24731 0.60729 0.0
H979 H 0.14193 0.2624 0.58356 0.0
H980 H 0.15793 0.22845 0.56537 0.0
H981 H 0.08026 0.21482 0.7094 0.0
H982 H 0.03535 0.18638 0.69813 0.0
H983 H 0.04762 0.22984 0.6862 0.0
C984 C 0.75611 0.33052 0.56564 0.0
C985 C 0.75791 0.32611 0.52979 0.0
C986 C 0.72744 0.34147 0.58042 0.0
C987 C 0.70081 0.34837 0.55845 0.0
C988 C 0.70097 0.34096 0.52234 0.0
C989 C 0.72979 0.32983 0.50838 0.0
C990 C 0.72729 0.34797 0.61906 0.0
C991 C 0.67256 0.34747 0.49812 0.0
C992 C 0.61617 0.37533 0.57949 0.0
C993 C 0.62958 0.40962 0.57243 0.0
C994 C 0.64013 0.35504 0.57918 0.0
C995 C 0.67791 0.36962 0.57122 0.0
C996 C 0.69221 0.40491 0.56824 0.0
C997 C 0.66776 0.42455 0.56896 0.0
C998 C 0.62425 0.31768 0.58384 0.0
C999 C 0.73248 0.42145 0.55985 0.0
H1000 H 0.77772 0.3265 0.58196 0.0
H1001 H 0.73113 0.32529 0.48064 0.0
H1002 H 0.73999 0.37523 0.62506 0.0
H1003 H 0.69856 0.341 0.62917 0.0
H1004 H 0.74348 0.33377 0.63286 0.0
H1005 H 0.67457 0.33731 0.47143 0.0
H1006 H 0.64411 0.33595 0.50778 0.0
H1007 H 0.67672 0.37502 0.49696 0.0
H1008 H 0.58667 0.364 0.58308 0.0
H1009 H 0.67824 0.45108 0.56354 0.0
H1010 H 0.64465 0.30696 0.59621 0.0
H1011 H 0.61682 0.30477 0.55812 0.0
H1012 H 0.59869 0.31213 0.59974 0.0
H1013 H 0.75097 0.41256 0.577 0.0
H1014 H 0.7399 0.44936 0.56253 0.0
H1015 H 0.73799 0.41451 0.53276 0.0
loop_
_geom_bond_atom_site_label_1
_geom_bond_atom_site_label_2
_geom_bond_distance
_geom_bond_site_symmetry_2
_ccdc_geom_bond_type
H0 C3 0.929 . S
H1 C6 0.929 . S
H2 C8 0.930 . S
C3 H0 0.929 . S
C3 C4 1.398 . S
C3 C5 1.396 . S
C4 C3 1.398 . S
C4 C8 1.407 . S
C5 C3 1.396 . S
C5 C6 1.394 . S
C6 H1 0.929 . S
C6 C5 1.394 . S
C6 C7 1.382 . S
C7 C6 1.382 . S
C7 C8 1.392 . S
C7 N9 1.420 . S
C8 H2 0.930 . S
C8 C4 1.407 . S
C8 C7 1.392 . S
N9 C7 1.420 . S
N9 C10 1.244 . S
C10 N9 1.244 . S
H11 C14 0.929 . S
H12 C17 0.929 . S
H13 C19 0.930 . S
C14 H11 0.929 . S
C14 C15 1.398 . S
C14 C16 1.396 . S
C15 C14 1.398 . S
C15 C19 1.407 . S
C16 C14 1.396 . S
C16 C17 1.394 . S
C17 H12 0.929 . S
C17 C16 1.394 . S
C17 C18 1.382 . S
C18 C17 1.382 . S
C18 C19 1.392 . S
C18 N20 1.420 . S
C19 H13 0.930 . S
C19 C15 1.407 . S
C19 C18 1.392 . S
N20 C18 1.420 . S
N20 C21 1.244 . S
C21 N20 1.244 . S
H22 C25 0.929 . S
H23 C28 0.929 . S
H24 C30 0.930 . S
C25 H22 0.929 . S
C25 C26 1.398 . S
C25 C27 1.396 . S
C26 C25 1.398 . S
C26 C30 1.407 . S
C27 C25 1.396 . S
C27 C28 1.394 . S
C28 H23 0.929 . S
C28 C27 1.394 . S
C28 C29 1.382 . S
C29 C28 1.382 . S
C29 C30 1.392 . S
C29 N31 1.420 . S
C30 H24 0.930 . S
C30 C26 1.407 . S
C30 C29 1.392 . S
N31 C29 1.420 . S
N31 C32 1.244 . S
C32 N31 1.244 . S
H33 C36 0.929 . S
H34 C39 0.929 . S
H35 C41 0.930 . S
C36 H33 0.929 . S
C36 C37 1.398 . S
C36 C38 1.396 . S
C37 C36 1.398 . S
C37 C41 1.407 . S
C38 C36 1.396 . S
C38 C39 1.394 . S
C39 H34 0.929 . S
C39 C38 1.394 . S
C39 C40 1.382 . S
C40 C39 1.382 . S
C40 C41 1.392 . S
C40 N42 1.420 . S
C41 H35 0.930 . S
C41 C37 1.407 . S
C41 C40 1.392 . S
N42 C40 1.420 . S
N42 C43 1.244 . S
C43 N42 1.244 . S
H44 C47 0.929 . S
H45 C50 0.929 . S
H46 C52 0.930 . S
C47 H44 0.929 . S
C47 C48 1.398 . S
C47 C49 1.396 . S
C48 C47 1.398 . S
C48 C52 1.407 . S
C49 C47 1.396 . S
C49 C50 1.394 . S
C50 H45 0.929 . S
C50 C49 1.394 . S
C50 C51 1.382 . S
C51 C50 1.382 . S
C51 C52 1.392 . S
C51 N53 1.420 . S
C52 H46 0.930 . S
C52 C48 1.407 . S
C52 C51 1.392 . S
N53 C51 1.420 . S
N53 C54 1.244 . S
C54 N53 1.244 . S
H55 C58 0.929 . S
H56 C61 0.929 . S
H57 C63 0.930 . S
C58 H55 0.929 . S
C58 C59 1.398 . S
C58 C60 1.396 . S
C59 C58 1.398 . S
C59 C63 1.407 . S
C60 C58 1.396 . S
C60 C61 1.394 . S
C61 H56 0.929 . S
C61 C60 1.394 . S
C61 C62 1.382 . S
C62 C61 1.382 . S
C62 C63 1.392 . S
C62 N64 1.420 . S
C63 H57 0.930 . S
C63 C59 1.407 . S
C63 C62 1.392 . S
N64 C62 1.420 . S
N64 C65 1.244 . S
C65 N64 1.244 . S
H66 C69 0.929 . S
H67 C72 0.929 . S
H68 C74 0.930 . S
C69 H66 0.929 . S
C69 C70 1.398 . S
C69 C71 1.396 . S
C70 C69 1.398 . S
C70 C74 1.407 . S
C71 C69 1.396 . S
C71 C72 1.394 . S
C72 H67 0.929 . S
C72 C71 1.394 . S
C72 C73 1.382 . S
C73 C72 1.382 . S
C73 C74 1.392 . S
C73 N75 1.420 . S
C74 H68 0.930 . S
C74 C70 1.407 . S
C74 C73 1.392 . S
N75 C73 1.420 . S
N75 C76 1.244 . S
C76 N75 1.244 . S
H77 C80 0.929 . S
H78 C83 0.929 . S
H79 C85 0.930 . S
C80 H77 0.929 . S
C80 C81 1.398 . S
C80 C82 1.396 . S
C81 C80 1.398 . S
C81 C85 1.407 . S
C82 C80 1.396 . S
C82 C83 1.394 . S
C83 H78 0.929 . S
C83 C82 1.394 . S
C83 C84 1.382 . S
C84 C83 1.382 . S
C84 C85 1.392 . S
C84 N86 1.420 . S
C85 H79 0.930 . S
C85 C81 1.407 . S
C85 C84 1.392 . S
N86 C84 1.420 . S
N86 C87 1.244 . S
C87 N86 1.244 . S
Sm88 C90 2.846 . S
Sm88 O108 2.543 . S
Sm88 O109 2.450 . S
Sm88 O110 2.681 . S
Sm88 O111 2.464 . S
Sm88 O112 2.396 . S
Sm88 O116 2.386 1_455 S
Sm88 O119 2.408 1_445 S
Sm89 C99 2.846 1_545 S
Sm89 O110 2.386 1_655 S
Sm89 O113 2.408 1_655 S
Sm89 O114 2.543 1_545 S
Sm89 O115 2.450 1_545 S
Sm89 O116 2.681 . S
Sm89 O117 2.464 . S
Sm89 O118 2.396 1_545 S
C90 Sm88 2.846 . S
C90 C91 1.506 . S
C90 O108 1.261 . S
C90 O109 1.242 . S
C91 C90 1.506 . S
C91 C92 1.358 . S
C91 C96 1.382 . S
C92 C91 1.358 . S
C92 C93 1.385 . S
C92 H120 0.930 . S
C93 C92 1.385 . S
C93 C94 1.395 . S
C93 H121 0.929 . S
C94 C93 1.395 . S
C94 C95 1.335 . S
C95 C94 1.335 . S
C95 C96 1.398 . S
C95 H122 0.930 . S
C96 C91 1.382 . S
C96 C95 1.398 . S
C96 H123 0.929 . S
C97 O110 1.271 1_565 S
C97 O111 1.251 1_565 S
C98 O112 1.252 . S
C98 O113 1.272 . S
C99 Sm89 2.846 1_565 S
C99 C100 1.506 . S
C99 O114 1.261 . S
C99 O115 1.242 . S
C100 C99 1.506 . S
C100 C101 1.358 . S
C100 C105 1.382 . S
C101 C100 1.358 . S
C101 C102 1.385 . S
C101 H124 0.930 . S
C102 C101 1.385 . S
C102 C103 1.395 . S
C102 H125 0.929 . S
C103 C102 1.395 . S
C103 C104 1.335 . S
C104 C103 1.335 . S
C104 C105 1.398 . S
C104 H126 0.930 . S
C105 C100 1.382 . S
C105 C104 1.398 . S
C105 H127 0.929 . S
C106 O116 1.271 . S
C106 O117 1.251 . S
C107 O118 1.252 . S
C107 O119 1.272 . S
O108 Sm88 2.543 . S
O108 C90 1.261 . S
O109 Sm88 2.450 . S
O109 C90 1.242 . S
O110 Sm88 2.681 . S
O110 Sm89 2.386 1_455 S
O110 C97 1.271 1_545 S
O111 Sm88 2.464 . S
O111 C97 1.251 1_545 S
O112 Sm88 2.396 . S
O112 C98 1.252 . S
O113 Sm89 2.408 1_455 S
O113 C98 1.272 . S
O114 Sm89 2.543 1_565 S
O114 C99 1.261 . S
O115 Sm89 2.450 1_565 S
O115 C99 1.242 . S
O116 Sm88 2.386 1_655 S
O116 Sm89 2.681 . S
O116 C106 1.271 . S
O117 Sm89 2.464 . S
O117 C106 1.251 . S
O118 Sm89 2.396 1_565 S
O118 C107 1.252 . S
O119 Sm88 2.408 1_665 S
O119 C107 1.272 . S
H120 C92 0.930 . S
H121 C93 0.929 . S
H122 C95 0.930 . S
H123 C96 0.929 . S
H124 C101 0.930 . S
H125 C102 0.929 . S
H126 C104 0.930 . S
H127 C105 0.929 . S
Sm128 C130 2.846 . S
Sm128 O148 2.543 . S
Sm128 O149 2.450 . S
Sm128 O150 2.681 1_545 S
Sm128 O151 2.464 1_545 S
Sm128 O152 2.396 . S
Sm128 O156 2.386 . S
Sm128 O159 2.408 1_545 S
Sm129 C139 2.846 1_544 S
Sm129 O150 2.386 1_545 S
Sm129 O153 2.408 . S
Sm129 O154 2.543 1_544 S
Sm129 O155 2.450 1_554 S
Sm129 O156 2.681 . S
Sm129 O157 2.464 . S
Sm129 O158 2.396 . S
C130 Sm128 2.846 . S
C130 C131 1.506 . S
C130 O148 1.261 . S
C130 O149 1.242 . S
C131 C130 1.506 . S
C131 C132 1.358 . S
C131 C136 1.382 . S
C132 C131 1.358 . S
C132 C133 1.385 . S
C132 H160 0.930 . S
C133 C132 1.385 . S
C133 C134 1.395 . S
C133 H161 0.929 . S
C134 C133 1.395 . S
C134 C135 1.335 . S
C135 C134 1.335 . S
C135 C136 1.398 . S
C135 H162 0.930 . S
C136 C131 1.382 . S
C136 C135 1.398 . S
C136 H163 0.929 . S
C137 O150 1.271 . S
C137 O151 1.251 . S
C138 O152 1.252 . S
C138 O153 1.272 . S
C139 Sm129 2.846 1_566 S
C139 C140 1.506 . S
C139 O154 1.261 . S
C139 O155 1.242 1_565 S
C140 C139 1.506 . S
C140 C141 1.358 . S
C140 C145 1.382 . S
C141 C140 1.358 . S
C141 C142 1.385 . S
C141 H164 0.930 . S
C142 C141 1.385 . S
C142 C143 1.395 . S
C142 H165 0.929 . S
C143 C142 1.395 . S
C143 C144 1.335 . S
C144 C143 1.335 . S
C144 C145 1.398 . S
C144 H166 0.930 . S
C145 C140 1.382 . S
C145 C144 1.398 . S
C145 H167 0.909 1_565 S
C146 O156 1.271 . S
C146 O157 1.251 . S
C147 O158 1.252 1_565 S
C147 O159 1.272 . S
O148 Sm128 2.543 . S
O148 C130 1.261 . S
O149 Sm128 2.450 . S
O149 C130 1.242 . S
O150 Sm128 2.681 1_565 S
O150 Sm129 2.386 1_565 S
O150 C137 1.271 . S
O151 Sm128 2.464 1_565 S
O151 C137 1.251 . S
O152 Sm128 2.396 . S
O152 C138 1.252 . S
O153 Sm129 2.408 . S
O153 C138 1.272 . S
O154 Sm129 2.543 1_566 S
O154 C139 1.261 . S
O155 Sm129 2.450 1_556 S
O155 C139 1.242 1_545 S
O156 Sm128 2.386 . S
O156 Sm129 2.681 . S
O156 C146 1.271 . S
O157 Sm129 2.464 . S
O157 C146 1.251 . S
O158 Sm129 2.396 . S
O158 C147 1.252 1_545 S
O159 Sm128 2.408 1_565 S
O159 C147 1.272 . S
H160 C132 0.930 . S
H161 C133 0.929 . S
H162 C135 0.930 . S
H163 C136 0.929 . S
H164 C141 0.930 . S
H165 C142 0.929 . S
H166 C144 0.930 . S
H167 C145 0.909 1_545 S
Sm168 C170 2.846 . S
Sm168 O188 2.543 . S
Sm168 O189 2.450 . S
Sm168 O190 2.681 . S
Sm168 O191 2.464 . S
Sm168 O192 2.396 . S
Sm168 O196 2.386 . S
Sm168 O199 2.408 . S
Sm169 C179 2.846 . S
Sm169 O190 2.386 . S
Sm169 O193 2.408 . S
Sm169 O194 2.543 . S
Sm169 O195 2.450 . S
Sm169 O196 2.681 . S
Sm169 O197 2.464 . S
Sm169 O198 2.396 . S
C170 Sm168 2.846 . S
C170 C171 1.506 . S
C170 O188 1.261 . S
C170 O189 1.242 . S
C171 C170 1.506 . S
C171 C172 1.358 . S
C171 C176 1.382 . S
C172 C171 1.358 . S
C172 C173 1.385 . S
C172 H200 0.930 . S
C173 C172 1.385 . S
C173 C174 1.395 . S
C173 H201 0.929 . S
C174 C173 1.395 . S
C174 C175 1.335 . S
C175 C174 1.335 . S
C175 C176 1.398 . S
C175 H202 0.930 . S
C176 C171 1.382 . S
C176 C175 1.398 . S
C176 H203 0.929 . S
C177 O190 1.271 . S
C177 O191 1.251 . S
C178 O192 1.252 . S
C178 O193 1.272 . S
C179 Sm169 2.846 . S
C179 C180 1.506 . S
C179 O194 1.261 . S
C179 O195 1.242 . S
C180 C179 1.506 . S
C180 C181 1.358 . S
C180 C185 1.382 . S
C181 C180 1.358 . S
C181 C182 1.385 . S
C181 H204 0.930 . S
C182 C181 1.385 . S
C182 C183 1.395 . S
C182 H205 0.929 . S
C183 C182 1.395 . S
C183 C184 1.335 . S
C184 C183 1.335 . S
C184 C185 1.398 . S
C184 H206 0.930 . S
C185 C180 1.382 . S
C185 C184 1.398 . S
C185 H207 0.929 . S
C186 O196 1.271 . S
C186 O197 1.251 . S
C187 O198 1.252 . S
C187 O199 1.272 . S
O188 Sm168 2.543 . S
O188 C170 1.261 . S
O189 Sm168 2.450 . S
O189 C170 1.242 . S
O190 Sm168 2.681 . S
O190 Sm169 2.386 . S
O190 C177 1.271 . S
O191 Sm168 2.464 . S
O191 C177 1.251 . S
O192 Sm168 2.396 . S
O192 C178 1.252 . S
O193 Sm169 2.408 . S
O193 C178 1.272 . S
O194 Sm169 2.543 . S
O194 C179 1.261 . S
O195 Sm169 2.450 . S
O195 C179 1.242 . S
O196 Sm168 2.386 . S
O196 Sm169 2.681 . S
O196 C186 1.271 . S
O197 Sm169 2.464 . S
O197 C186 1.251 . S
O198 Sm169 2.396 . S
O198 C187 1.252 . S
O199 Sm168 2.408 . S
O199 C187 1.272 . S
H200 C172 0.930 . S
H201 C173 0.929 . S
H202 C175 0.930 . S
H203 C176 0.929 . S
H204 C181 0.930 . S
H205 C182 0.929 . S
H206 C184 0.930 . S
H207 C185 0.929 . S
Sm208 C210 2.846 . S
Sm208 O228 2.543 . S
Sm208 O229 2.450 . S
Sm208 O230 2.681 . S
Sm208 O231 2.464 . S
Sm208 O232 2.396 . S
Sm208 O236 2.386 1_554 S
Sm208 O239 2.408 1_455 S
Sm209 C219 2.832 1_454 S
Sm209 O230 2.412 . S
Sm209 O233 2.424 . S
Sm209 O234 2.541 1_454 S
Sm209 O235 2.412 1_454 S
Sm209 O236 2.682 1_554 S
Sm209 O237 2.441 1_554 S
Sm209 O238 2.388 1_454 S
C210 Sm208 2.846 . S
C210 C211 1.506 . S
C210 O228 1.261 . S
C210 O229 1.242 . S
C211 C210 1.506 . S
C211 C212 1.358 . S
C211 C216 1.382 . S
C212 C211 1.358 . S
C212 C213 1.385 . S
C212 H240 0.930 . S
C213 C212 1.385 . S
C213 C214 1.395 . S
C213 H241 0.929 . S
C214 C213 1.395 . S
C214 C215 1.335 . S
C215 C214 1.335 . S
C215 C216 1.398 . S
C215 H242 0.930 . S
C216 C211 1.382 . S
C216 C215 1.398 . S
C216 H243 0.929 . S
C217 O230 1.271 1_655 S
C217 O231 1.251 1_655 S
C218 O232 1.252 . S
C218 O233 1.272 . S
C219 Sm209 2.832 1_656 S
C219 C220 1.506 . S
C219 O234 1.281 . S
C219 O235 1.265 . S
C220 C219 1.506 . S
C220 C221 1.358 . S
C220 C225 1.382 . S
C221 C220 1.358 . S
C221 C222 1.385 . S
C221 H244 0.930 . S
C222 C221 1.385 . S
C222 C223 1.395 . S
C222 H245 0.929 . S
C223 C222 1.395 . S
C223 C224 1.335 . S
C224 C223 1.335 . S
C224 C225 1.398 . S
C224 H246 0.930 . S
C225 C220 1.382 . S
C225 C224 1.398 . S
C225 H247 0.929 . S
C226 O236 1.271 . S
C226 O237 1.251 . S
C227 O238 1.252 . S
C227 O239 1.272 1_556 S
O228 Sm208 2.543 . S
O228 C210 1.261 . S
O229 Sm208 2.450 . S
O229 C210 1.242 . S
O230 Sm208 2.681 . S
O230 Sm209 2.412 . S
O230 C217 1.271 1_455 S
O231 Sm208 2.464 . S
O231 C217 1.251 1_455 S
O232 Sm208 2.396 . S
O232 C218 1.252 . S
O233 Sm209 2.424 . S
O233 C218 1.272 . S
O234 Sm209 2.541 1_656 S
O234 C219 1.281 . S
O235 Sm209 2.412 1_656 S
O235 C219 1.265 . S
O236 Sm208 2.386 1_556 S
O236 Sm209 2.682 1_556 S
O236 C226 1.271 . S
O237 Sm209 2.441 1_556 S
O237 C226 1.251 . S
O238 Sm209 2.388 1_656 S
O238 C227 1.252 . S
O239 Sm208 2.408 1_655 S
O239 C227 1.272 1_554 S
H240 C212 0.930 . S
H241 C213 0.929 . S
H242 C215 0.930 . S
H243 C216 0.929 . S
H244 C221 0.930 . S
H245 C222 0.929 . S
H246 C224 0.930 . S
H247 C225 0.929 . S
C248 C249 1.391 . S
C248 C250 1.394 . S
C248 H264 0.931 . S
C249 C248 1.391 . S
C249 C253 1.376 . S
C250 C248 1.394 . S
C250 C251 1.369 . S
C250 C254 1.531 . S
C251 C250 1.369 . S
C251 C252 1.410 . S
C251 C259 1.503 . S
C252 C251 1.410 . S
C252 C253 1.392 . S
C252 C255 1.511 . S
C253 C249 1.376 . S
C253 C252 1.392 . S
C253 H265 0.929 . S
C254 C250 1.531 . S
C254 H266 0.960 . S
C254 H267 0.962 . S
C254 H268 0.960 . S
C255 C252 1.511 . S
C255 H269 0.961 . S
C255 H270 0.961 . S
C255 H271 0.961 . S
C256 C257 1.370 . S
C256 C258 1.363 . S
C256 H272 0.931 . S
C257 C256 1.370 . S
C257 C261 1.408 . S
C258 C256 1.363 . S
C258 C259 1.370 . S
C258 C262 1.524 . S
C259 C251 1.503 . S
C259 C258 1.370 . S
C259 C260 1.403 . S
C260 C259 1.403 . S
C260 C261 1.404 . S
C260 C263 1.539 . S
C261 C257 1.408 . S
C261 C260 1.404 . S
C261 H273 0.930 . S
C262 C258 1.524 . S
C262 H274 0.956 . S
C262 H275 0.961 . S
C262 H276 0.961 . S
C263 C260 1.539 . S
C263 H277 0.958 . S
C263 H278 0.961 . S
C263 H279 0.960 . S
H264 C248 0.931 . S
H265 C253 0.929 . S
H266 C254 0.960 . S
H267 C254 0.962 . S
H268 C254 0.960 . S
H269 C255 0.961 . S
H270 C255 0.961 . S
H271 C255 0.961 . S
H272 C256 0.931 . S
H273 C261 0.930 . S
H274 C262 0.956 . S
H275 C262 0.961 . S
H276 C262 0.961 . S
H277 C263 0.958 . S
H278 C263 0.961 . S
H279 C263 0.960 . S
C280 C281 1.391 . S
C280 C282 1.394 . S
C280 H296 0.931 . S
C281 C280 1.391 . S
C281 C285 1.376 . S
C282 C280 1.394 . S
C282 C283 1.369 . S
C282 C286 1.531 . S
C283 C282 1.369 . S
C283 C284 1.410 . S
C283 C291 1.503 . S
C284 C283 1.410 . S
C284 C285 1.392 . S
C284 C287 1.511 . S
C285 C281 1.376 . S
C285 C284 1.392 . S
C285 H297 0.929 . S
C286 C282 1.531 . S
C286 H298 0.960 . S
C286 H299 0.962 . S
C286 H300 0.960 . S
C287 C284 1.511 . S
C287 H301 0.961 . S
C287 H302 0.961 . S
C287 H303 0.961 . S
C288 C289 1.370 . S
C288 C290 1.363 . S
C288 H304 0.931 . S
C289 C288 1.370 . S
C289 C293 1.408 . S
C290 C288 1.363 . S
C290 C291 1.370 . S
C290 C294 1.524 . S
C291 C283 1.503 . S
C291 C290 1.370 . S
C291 C292 1.403 . S
C292 C291 1.403 . S
C292 C293 1.404 . S
C292 C295 1.539 . S
C293 C289 1.408 . S
C293 C292 1.404 . S
C293 H305 0.930 . S
C294 C290 1.524 . S
C294 H306 0.956 . S
C294 H307 0.961 . S
C294 H308 0.961 . S
C295 C292 1.539 . S
C295 H309 0.958 . S
C295 H310 0.961 . S
C295 H311 0.960 . S
H296 C280 0.931 . S
H297 C285 0.929 . S
H298 C286 0.960 . S
H299 C286 0.962 . S
H300 C286 0.960 . S
H301 C287 0.961 . S
H302 C287 0.961 . S
H303 C287 0.961 . S
H304 C288 0.931 . S
H305 C293 0.930 . S
H306 C294 0.956 . S
H307 C294 0.961 . S
H308 C294 0.961 . S
H309 C295 0.958 . S
H310 C295 0.961 . S
H311 C295 0.960 . S
C312 C313 1.391 . S
C312 C314 1.394 . S
C312 H328 0.931 . S
C313 C312 1.391 . S
C313 C317 1.376 . S
C314 C312 1.394 . S
C314 C315 1.369 . S
C314 C318 1.531 . S
C315 C314 1.369 . S
C315 C316 1.410 . S
C315 C323 1.503 . S
C316 C315 1.410 . S
C316 C317 1.392 . S
C316 C319 1.511 . S
C317 C313 1.376 . S
C317 C316 1.392 . S
C317 H329 0.929 . S
C318 C314 1.531 . S
C318 H330 0.960 . S
C318 H331 0.962 . S
C318 H332 0.960 . S
C319 C316 1.511 . S
C319 H333 0.961 . S
C319 H334 0.961 . S
C319 H335 0.961 . S
C320 C321 1.370 . S
C320 C322 1.363 . S
C320 H336 0.931 . S
C321 C320 1.370 . S
C321 C325 1.408 . S
C322 C320 1.363 . S
C322 C323 1.370 . S
C322 C326 1.524 . S
C323 C315 1.503 . S
C323 C322 1.370 . S
C323 C324 1.403 . S
C324 C323 1.403 . S
C324 C325 1.404 . S
C324 C327 1.539 . S
C325 C321 1.408 . S
C325 C324 1.404 . S
C325 H337 0.930 . S
C326 C322 1.524 . S
C326 H338 0.956 . S
C326 H339 0.961 . S
C326 H340 0.961 . S
C327 C324 1.539 . S
C327 H341 0.958 . S
C327 H342 0.961 . S
C327 H343 0.960 . S
H328 C312 0.931 . S
H329 C317 0.929 . S
H330 C318 0.960 . S
H331 C318 0.962 . S
H332 C318 0.960 . S
H333 C319 0.961 . S
H334 C319 0.961 . S
H335 C319 0.961 . S
H336 C320 0.931 . S
H337 C325 0.930 . S
H338 C326 0.956 . S
H339 C326 0.961 . S
H340 C326 0.961 . S
H341 C327 0.958 . S
H342 C327 0.961 . S
H343 C327 0.960 . S
C344 C345 1.391 . S
C344 C346 1.394 . S
C344 H360 0.931 . S
C345 C344 1.391 . S
C345 C349 1.376 . S
C346 C344 1.394 . S
C346 C347 1.369 . S
C346 C350 1.531 . S
C347 C346 1.369 . S
C347 C348 1.410 . S
C347 C355 1.503 . S
C348 C347 1.410 . S
C348 C349 1.392 . S
C348 C351 1.511 . S
C349 C345 1.376 . S
C349 C348 1.392 . S
C349 H361 0.929 . S
C350 C346 1.531 . S
C350 H362 0.960 . S
C350 H363 0.962 . S
C350 H364 0.960 . S
C351 C348 1.511 . S
C351 H365 0.961 . S
C351 H366 0.961 . S
C351 H367 0.961 . S
C352 C353 1.370 . S
C352 C354 1.363 . S
C352 H368 0.931 . S
C353 C352 1.370 . S
C353 C357 1.408 . S
C354 C352 1.363 . S
C354 C355 1.370 . S
C354 C358 1.524 . S
C355 C347 1.503 . S
C355 C354 1.370 . S
C355 C356 1.403 . S
C356 C355 1.403 . S
C356 C357 1.404 . S
C356 C359 1.539 1_655 S
C357 C353 1.408 . S
C357 C356 1.404 . S
C357 H369 0.930 1_655 S
C358 C354 1.524 . S
C358 H370 0.956 . S
C358 H371 0.961 . S
C358 H372 0.961 . S
C359 C356 1.539 1_455 S
C359 H373 0.958 . S
C359 H374 0.961 . S
C359 H375 0.960 . S
H360 C344 0.931 . S
H361 C349 0.929 . S
H362 C350 0.960 . S
H363 C350 0.962 . S
H364 C350 0.960 . S
H365 C351 0.961 . S
H366 C351 0.961 . S
H367 C351 0.961 . S
H368 C352 0.931 . S
H369 C357 0.930 1_455 S
H370 C358 0.956 . S
H371 C358 0.961 . S
H372 C358 0.961 . S
H373 C359 0.958 . S
H374 C359 0.961 . S
H375 C359 0.960 . S
C376 C377 1.391 . S
C376 C378 1.394 . S
C376 H392 0.931 . S
C377 C376 1.391 . S
C377 C381 1.376 . S
C378 C376 1.394 . S
C378 C379 1.369 . S
C378 C382 1.531 . S
C379 C378 1.369 . S
C379 C380 1.410 . S
C379 C387 1.503 . S
C380 C379 1.410 . S
C380 C381 1.392 . S
C380 C383 1.511 . S
C381 C377 1.376 . S
C381 C380 1.392 . S
C381 H393 0.929 . S
C382 C378 1.531 . S
C382 H394 0.960 . S
C382 H395 0.962 . S
C382 H396 0.960 . S
C383 C380 1.511 . S
C383 H397 0.961 . S
C383 H398 0.961 . S
C383 H399 0.961 . S
C384 C385 1.370 . S
C384 C386 1.363 . S
C384 H400 0.931 . S
C385 C384 1.370 . S
C385 C389 1.408 . S
C386 C384 1.363 . S
C386 C387 1.370 . S
C386 C390 1.524 . S
C387 C379 1.503 . S
C387 C386 1.370 . S
C387 C388 1.403 . S
C388 C387 1.403 . S
C388 C389 1.404 . S
C388 C391 1.539 . S
C389 C385 1.408 . S
C389 C388 1.404 . S
C389 H401 0.930 . S
C390 C386 1.524 . S
C390 H402 0.956 . S
C390 H403 0.961 . S
C390 H404 0.961 . S
C391 C388 1.539 . S
C391 H405 0.958 . S
C391 H406 0.961 . S
C391 H407 0.960 . S
H392 C376 0.931 . S
H393 C381 0.929 . S
H394 C382 0.960 . S
H395 C382 0.962 . S
H396 C382 0.960 . S
H397 C383 0.961 . S
H398 C383 0.961 . S
H399 C383 0.961 . S
H400 C384 0.931 . S
H401 C389 0.930 . S
H402 C390 0.956 . S
H403 C390 0.961 . S
H404 C390 0.961 . S
H405 C391 0.958 . S
H406 C391 0.961 . S
H407 C391 0.960 . S
C408 C409 1.391 . S
C408 C410 1.394 . S
C408 H424 0.931 . S
C409 C408 1.391 . S
C409 C413 1.376 . S
C410 C408 1.394 . S
C410 C411 1.369 . S
C410 C414 1.531 . S
C411 C410 1.369 . S
C411 C412 1.410 . S
C411 C419 1.503 . S
C412 C411 1.410 . S
C412 C413 1.392 . S
C412 C415 1.511 . S
C413 C409 1.376 . S
C413 C412 1.392 . S
C413 H425 0.929 . S
C414 C410 1.531 . S
C414 H426 0.960 . S
C414 H427 0.962 . S
C414 H428 0.960 . S
C415 C412 1.511 . S
C415 H429 0.961 . S
C415 H430 0.986 . S
C415 H431 0.961 . S
C416 C417 1.370 . S
C416 C418 1.363 . S
C416 H432 0.931 . S
C417 C416 1.370 . S
C417 C421 1.408 . S
C418 C416 1.363 . S
C418 C419 1.370 . S
C418 C422 1.524 . S
C419 C411 1.503 . S
C419 C418 1.370 . S
C419 C420 1.403 . S
C420 C419 1.403 . S
C420 C421 1.404 . S
C420 C423 1.539 . S
C421 C417 1.408 . S
C421 C420 1.404 . S
C421 H433 0.930 . S
C422 C418 1.524 . S
C422 H434 0.956 . S
C422 H435 0.961 . S
C422 H436 0.961 . S
C423 C420 1.539 . S
C423 H437 0.958 . S
C423 H438 0.961 . S
C423 H439 0.960 . S
H424 C408 0.931 . S
H425 C413 0.929 . S
H426 C414 0.960 . S
H427 C414 0.962 . S
H428 C414 0.960 . S
H429 C415 0.961 . S
H430 C415 0.986 . S
H431 C415 0.961 . S
H432 C416 0.931 . S
H433 C421 0.930 . S
H434 C422 0.956 . S
H435 C422 0.961 . S
H436 C422 0.961 . S
H437 C423 0.958 . S
H438 C423 0.961 . S
H439 C423 0.960 . S
C440 C441 1.391 . S
C440 C442 1.394 . S
C440 H456 0.931 . S
C441 C440 1.391 . S
C441 C445 1.376 . S
C442 C440 1.394 . S
C442 C443 1.369 . S
C442 C446 1.531 . S
C443 C442 1.369 . S
C443 C444 1.410 . S
C443 C451 1.503 . S
C444 C443 1.410 . S
C444 C445 1.392 . S
C444 C447 1.511 . S
C445 C441 1.376 . S
C445 C444 1.392 . S
C445 H457 0.929 . S
C446 C442 1.531 . S
C446 H458 0.960 1_556 S
C446 H459 0.962 1_556 S
C446 H460 0.960 1_556 S
C447 C444 1.511 . S
C447 H461 0.961 . S
C447 H462 0.961 . S
C447 H463 0.961 . S
C448 C449 1.370 . S
C448 C450 1.363 . S
C448 H464 0.931 . S
C449 C448 1.370 . S
C449 C453 1.408 . S
C450 C448 1.363 . S
C450 C451 1.370 . S
C450 C454 1.524 . S
C451 C443 1.503 . S
C451 C450 1.370 . S
C451 C452 1.403 . S
C452 C451 1.403 . S
C452 C453 1.404 . S
C452 C455 1.539 . S
C453 C449 1.408 . S
C453 C452 1.404 . S
C453 H465 0.930 . S
C454 C450 1.524 . S
C454 H466 0.956 . S
C454 H467 0.961 . S
C454 H468 0.961 . S
C455 C452 1.539 . S
C455 H469 0.958 . S
C455 H470 0.961 . S
C455 H471 0.960 . S
H456 C440 0.931 . S
H457 C445 0.929 . S
H458 C446 0.960 1_554 S
H459 C446 0.962 1_554 S
H460 C446 0.960 1_554 S
H461 C447 0.961 . S
H462 C447 0.961 . S
H463 C447 0.961 . S
H464 C448 0.931 . S
H465 C453 0.930 . S
H466 C454 0.956 . S
H467 C454 0.961 . S
H468 C454 0.961 . S
H469 C455 0.958 . S
H470 C455 0.961 . S
H471 C455 0.960 . S
C472 C473 1.391 . S
C472 C474 1.394 . S
C472 H488 0.931 . S
C473 C472 1.391 . S
C473 C477 1.376 . S
C474 C472 1.394 . S
C474 C475 1.369 . S
C474 C478 1.531 . S
C475 C474 1.369 . S
C475 C476 1.410 . S
C475 C483 1.503 . S
C476 C475 1.410 . S
C476 C477 1.392 . S
C476 C479 1.511 . S
C477 C473 1.376 . S
C477 C476 1.392 . S
C477 H489 0.929 . S
C478 C474 1.531 . S
C478 H490 0.960 . S
C478 H491 0.962 . S
C478 H492 0.960 . S
C479 C476 1.511 . S
C479 H493 0.961 . S
C479 H494 0.961 . S
C479 H495 0.961 . S
C480 C481 1.370 . S
C480 C482 1.363 . S
C480 H496 0.931 . S
C481 C480 1.370 . S
C481 C485 1.408 . S
C482 C480 1.363 . S
C482 C483 1.370 . S
C482 C486 1.524 . S
C483 C475 1.503 . S
C483 C482 1.370 . S
C483 C484 1.403 . S
C484 C483 1.403 . S
C484 C485 1.404 . S
C484 C487 1.539 . S
C485 C481 1.408 . S
C485 C484 1.404 . S
C485 H497 0.930 . S
C486 C482 1.524 . S
C486 H498 0.956 . S
C486 H499 0.961 . S
C486 H500 0.961 . S
C487 C484 1.539 . S
C487 H501 0.958 . S
C487 H502 0.961 . S
C487 H503 0.960 . S
H488 C472 0.931 . S
H489 C477 0.929 . S
H490 C478 0.960 . S
H491 C478 0.962 . S
H492 C478 0.960 . S
H493 C479 0.961 . S
H494 C479 0.961 . S
H495 C479 0.961 . S
H496 C480 0.931 . S
H497 C485 0.930 . S
H498 C486 0.956 . S
H499 C486 0.961 . S
H500 C486 0.961 . S
H501 C487 0.958 . S
H502 C487 0.961 . S
H503 C487 0.960 . S
C504 C505 1.391 . S
C504 C506 1.394 . S
C504 H520 0.931 . S
C505 C504 1.391 . S
C505 C509 1.376 . S
C506 C504 1.394 . S
C506 C507 1.369 . S
C506 C510 1.531 . S
C507 C506 1.369 . S
C507 C508 1.410 . S
C507 C515 1.503 . S
C508 C507 1.410 . S
C508 C509 1.392 . S
C508 C511 1.511 . S
C509 C505 1.376 . S
C509 C508 1.392 . S
C509 H521 0.929 . S
C510 C506 1.531 . S
C510 H522 0.960 . S
C510 H523 0.962 . S
C510 H524 0.960 . S
C511 C508 1.511 . S
C511 H525 0.961 . S
C511 H526 0.961 . S
C511 H527 0.961 . S
C512 C513 1.370 . S
C512 C514 1.363 . S
C512 H528 0.931 . S
C513 C512 1.370 . S
C513 C517 1.408 . S
C514 C512 1.363 . S
C514 C515 1.370 . S
C514 C518 1.524 . S
C515 C507 1.503 . S
C515 C514 1.370 . S
C515 C516 1.403 . S
C516 C515 1.403 . S
C516 C517 1.404 . S
C516 C519 1.539 . S
C517 C513 1.408 . S
C517 C516 1.404 . S
C517 H529 0.930 . S
C518 C514 1.524 . S
C518 H530 0.956 . S
C518 H531 0.961 . S
C518 H532 0.961 . S
C519 C516 1.539 . S
C519 H533 0.958 . S
C519 H534 0.961 . S
C519 H535 0.960 . S
H520 C504 0.931 . S
H521 C509 0.929 . S
H522 C510 0.960 . S
H523 C510 0.962 . S
H524 C510 0.960 . S
H525 C511 0.961 . S
H526 C511 0.961 . S
H527 C511 0.961 . S
H528 C512 0.931 . S
H529 C517 0.930 . S
H530 C518 0.956 . S
H531 C518 0.961 . S
H532 C518 0.961 . S
H533 C519 0.958 . S
H534 C519 0.961 . S
H535 C519 0.960 . S
C536 C537 1.391 . S
C536 C538 1.394 . S
C536 H552 0.931 . S
C537 C536 1.391 . S
C537 C541 1.376 . S
C538 C536 1.394 . S
C538 C539 1.369 . S
C538 C542 1.531 1_556 S
C539 C538 1.369 . S
C539 C540 1.410 . S
C539 C547 1.503 . S
C540 C539 1.410 . S
C540 C541 1.392 . S
C540 C543 1.511 . S
C541 C537 1.376 . S
C541 C540 1.392 . S
C541 H553 0.929 . S
C542 C538 1.531 1_554 S
C542 H554 0.960 . S
C542 H555 0.962 . S
C542 H556 0.960 . S
C543 C540 1.511 . S
C543 H557 0.961 . S
C543 H558 0.961 . S
C543 H559 0.961 . S
C544 C545 1.370 1_556 S
C544 C546 1.363 . S
C544 H560 0.931 . S
C545 C544 1.370 1_554 S
C545 C549 1.408 1_554 S
C546 C544 1.363 . S
C546 C547 1.370 . S
C546 C550 1.524 . S
C547 C539 1.503 . S
C547 C546 1.370 . S
C547 C548 1.403 . S
C548 C547 1.403 . S
C548 C549 1.404 . S
C548 C551 1.539 . S
C549 C545 1.408 1_556 S
C549 C548 1.404 . S
C549 H561 0.930 1_556 S
C550 C546 1.524 . S
C550 H562 0.956 . S
C550 H563 0.961 . S
C550 H564 0.961 . S
C551 C548 1.539 . S
C551 H565 0.958 . S
C551 H566 0.961 . S
C551 H567 0.960 . S
H552 C536 0.931 . S
H553 C541 0.929 . S
H554 C542 0.960 . S
H555 C542 0.962 . S
H556 C542 0.960 . S
H557 C543 0.961 . S
H558 C543 0.961 . S
H559 C543 0.961 . S
H560 C544 0.931 . S
H561 C549 0.930 1_554 S
H562 C550 0.956 . S
H563 C550 0.961 . S
H564 C550 0.961 . S
H565 C551 0.958 . S
H566 C551 0.961 . S
H567 C551 0.960 . S
C568 C569 1.391 . S
C568 C570 1.394 . S
C568 H584 0.931 . S
C569 C568 1.391 . S
C569 C573 1.376 . S
C570 C568 1.394 . S
C570 C571 1.369 . S
C570 C574 1.531 . S
C571 C570 1.369 . S
C571 C572 1.410 . S
C571 C579 1.503 . S
C572 C571 1.410 . S
C572 C573 1.392 . S
C572 C575 1.511 . S
C573 C569 1.376 . S
C573 C572 1.392 . S
C573 H585 0.929 . S
C574 C570 1.531 . S
C574 H586 0.960 . S
C574 H587 0.962 . S
C574 H588 0.960 . S
C575 C572 1.511 . S
C575 H589 0.961 . S
C575 H590 0.961 . S
C575 H591 0.961 . S
C576 C577 1.370 . S
C576 C578 1.363 . S
C576 H592 0.931 . S
C577 C576 1.370 . S
C577 C581 1.408 . S
C578 C576 1.363 . S
C578 C579 1.370 . S
C578 C582 1.524 . S
C579 C571 1.503 . S
C579 C578 1.370 . S
C579 C580 1.403 . S
C580 C579 1.403 . S
C580 C581 1.404 . S
C580 C583 1.539 . S
C581 C577 1.408 . S
C581 C580 1.404 . S
C581 H593 0.930 . S
C582 C578 1.524 . S
C582 H594 0.956 . S
C582 H595 0.961 . S
C582 H596 0.961 . S
C583 C580 1.539 . S
C583 H597 0.958 . S
C583 H598 0.961 . S
C583 H599 0.960 . S
H584 C568 0.931 . S
H585 C573 0.929 . S
H586 C574 0.960 . S
H587 C574 0.962 . S
H588 C574 0.960 . S
H589 C575 0.961 . S
H590 C575 0.961 . S
H591 C575 0.961 . S
H592 C576 0.931 . S
H593 C581 0.930 . S
H594 C582 0.956 . S
H595 C582 0.961 . S
H596 C582 0.961 . S
H597 C583 0.958 . S
H598 C583 0.961 . S
H599 C583 0.960 . S
C600 C601 1.391 . S
C600 C602 1.394 . S
C600 H616 0.931 . S
C601 C600 1.391 . S
C601 C605 1.376 . S
C602 C600 1.394 . S
C602 C603 1.369 . S
C602 C606 1.531 . S
C603 C602 1.369 . S
C603 C604 1.410 . S
C603 C611 1.503 . S
C604 C603 1.410 . S
C604 C605 1.392 . S
C604 C607 1.511 . S
C605 C601 1.376 . S
C605 C604 1.392 . S
C605 H617 0.929 . S
C606 C602 1.531 . S
C606 H618 0.960 . S
C606 H619 0.962 . S
C606 H620 0.960 . S
C607 C604 1.511 . S
C607 H621 0.961 . S
C607 H622 0.961 . S
C607 H623 0.961 . S
C608 C609 1.370 . S
C608 C610 1.363 . S
C608 H624 0.931 . S
C609 C608 1.370 . S
C609 C613 1.408 . S
C610 C608 1.363 . S
C610 C611 1.370 . S
C610 C614 1.524 . S
C611 C603 1.503 . S
C611 C610 1.370 . S
C611 C612 1.403 . S
C612 C611 1.403 . S
C612 C613 1.404 . S
C612 C615 1.539 . S
C613 C609 1.408 . S
C613 C612 1.404 . S
C613 H625 0.930 . S
C614 C610 1.524 . S
C614 H626 0.956 . S
C614 H627 0.961 . S
C614 H628 0.961 . S
C615 C612 1.539 . S
C615 H629 0.958 . S
C615 H630 0.961 . S
C615 H631 0.960 . S
H616 C600 0.931 . S
H617 C605 0.929 . S
H618 C606 0.960 . S
H619 C606 0.962 . S
H620 C606 0.960 . S
H621 C607 0.961 . S
H622 C607 0.961 . S
H623 C607 0.961 . S
H624 C608 0.931 . S
H625 C613 0.930 . S
H626 C614 0.956 . S
H627 C614 0.961 . S
H628 C614 0.961 . S
H629 C615 0.958 . S
H630 C615 0.961 . S
H631 C615 0.960 . S
C632 C633 1.391 . S
C632 C634 1.394 . S
C632 H648 0.931 . S
C633 C632 1.391 . S
C633 C637 1.376 . S
C634 C632 1.394 . S
C634 C635 1.369 . S
C634 C638 1.531 . S
C635 C634 1.369 . S
C635 C636 1.410 . S
C635 C643 1.503 . S
C636 C635 1.410 . S
C636 C637 1.392 . S
C636 C639 1.511 . S
C637 C633 1.376 . S
C637 C636 1.392 . S
C637 H649 0.929 . S
C638 C634 1.531 . S
C638 H650 0.960 . S
C638 H651 0.962 . S
C638 H652 0.960 . S
C639 C636 1.511 . S
C639 H653 0.961 . S
C639 H654 0.961 . S
C639 H655 0.961 . S
C640 C641 1.370 . S
C640 C642 1.363 . S
C640 H656 0.931 . S
C641 C640 1.370 . S
C641 C645 1.408 . S
C642 C640 1.363 . S
C642 C643 1.370 . S
C642 C646 1.524 . S
C643 C635 1.503 . S
C643 C642 1.370 . S
C643 C644 1.403 . S
C644 C643 1.403 . S
C644 C645 1.404 . S
C644 C647 1.539 . S
C645 C641 1.408 . S
C645 C644 1.404 . S
C645 H657 0.930 . S
C646 C642 1.524 . S
C646 H658 0.956 . S
C646 H659 0.961 . S
C646 H660 0.961 . S
C647 C644 1.539 . S
C647 H661 0.958 . S
C647 H662 0.961 . S
C647 H663 0.960 . S
H648 C632 0.931 . S
H649 C637 0.929 . S
H650 C638 0.960 . S
H651 C638 0.962 . S
H652 C638 0.960 . S
H653 C639 0.961 . S
H654 C639 0.961 . S
H655 C639 0.961 . S
H656 C640 0.931 . S
H657 C645 0.930 . S
H658 C646 0.956 . S
H659 C646 0.961 . S
H660 C646 0.961 . S
H661 C647 0.958 . S
H662 C647 0.961 . S
H663 C647 0.960 . S
C664 C665 1.391 . S
C664 C666 1.394 . S
C664 H680 0.931 . S
C665 C664 1.391 . S
C665 C669 1.376 . S
C666 C664 1.394 . S
C666 C667 1.369 . S
C666 C670 1.531 . S
C667 C666 1.369 . S
C667 C668 1.410 . S
C667 C675 1.503 . S
C668 C667 1.410 . S
C668 C669 1.392 . S
C668 C671 1.511 . S
C669 C665 1.376 . S
C669 C668 1.392 . S
C669 H681 0.929 . S
C670 C666 1.531 . S
C670 H682 0.960 . S
C670 H683 0.962 . S
C670 H684 0.960 . S
C671 C668 1.511 . S
C671 H685 0.961 . S
C671 H686 0.961 . S
C671 H687 0.961 . S
C672 C673 1.370 . S
C672 C674 1.363 . S
C672 H688 0.931 . S
C673 C672 1.370 . S
C673 C677 1.408 . S
C674 C672 1.363 . S
C674 C675 1.370 . S
C674 C678 1.524 . S
C675 C667 1.503 . S
C675 C674 1.370 . S
C675 C676 1.403 . S
C676 C675 1.403 . S
C676 C677 1.404 . S
C676 C679 1.539 . S
C677 C673 1.408 . S
C677 C676 1.404 . S
C677 H689 0.930 . S
C678 C674 1.524 . S
C678 H690 0.956 . S
C678 H691 0.961 . S
C678 H692 0.961 . S
C679 C676 1.539 . S
C679 H693 0.958 . S
C679 H694 0.961 . S
C679 H695 0.960 . S
H680 C664 0.931 . S
H681 C669 0.929 . S
H682 C670 0.960 . S
H683 C670 0.962 . S
H684 C670 0.960 . S
H685 C671 0.961 . S
H686 C671 0.961 . S
H687 C671 0.961 . S
H688 C672 0.931 . S
H689 C677 0.930 . S
H690 C678 0.956 . S
H691 C678 0.961 . S
H692 C678 0.961 . S
H693 C679 0.958 . S
H694 C679 0.961 . S
H695 C679 0.960 . S
C696 C697 1.391 . S
C696 C698 1.394 . S
C696 H712 0.931 . S
C697 C696 1.391 . S
C697 C701 1.376 . S
C698 C696 1.394 . S
C698 C699 1.369 . S
C698 C702 1.531 . S
C699 C698 1.369 . S
C699 C700 1.410 . S
C699 C707 1.503 . S
C700 C699 1.410 . S
C700 C701 1.392 . S
C700 C703 1.511 . S
C701 C697 1.376 . S
C701 C700 1.392 . S
C701 H713 0.929 . S
C702 C698 1.531 . S
C702 H714 0.960 . S
C702 H715 0.962 . S
C702 H716 0.960 . S
C703 C700 1.511 . S
C703 H717 0.961 . S
C703 H718 0.961 . S
C703 H719 0.961 . S
C704 C705 1.370 . S
C704 C706 1.363 . S
C704 H720 0.931 . S
C705 C704 1.370 . S
C705 C709 1.408 . S
C706 C704 1.363 . S
C706 C707 1.370 . S
C706 C710 1.524 . S
C707 C699 1.503 . S
C707 C706 1.370 . S
C707 C708 1.403 . S
C708 C707 1.403 . S
C708 C709 1.404 . S
C708 C711 1.539 . S
C709 C705 1.408 . S
C709 C708 1.404 . S
C709 H721 0.930 . S
C710 C706 1.524 . S
C710 H722 0.956 . S
C710 H723 0.961 . S
C710 H724 0.961 . S
C711 C708 1.539 . S
C711 H725 0.958 . S
C711 H726 0.961 . S
C711 H727 0.960 . S
H712 C696 0.931 . S
H713 C701 0.929 . S
H714 C702 0.960 . S
H715 C702 0.962 . S
H716 C702 0.960 . S
H717 C703 0.961 . S
H718 C703 0.961 . S
H719 C703 0.961 . S
H720 C704 0.931 . S
H721 C709 0.930 . S
H722 C710 0.956 . S
H723 C710 0.961 . S
H724 C710 0.961 . S
H725 C711 0.958 . S
H726 C711 0.961 . S
H727 C711 0.960 . S
C728 C729 1.391 . S
C728 C730 1.394 . S
C728 H744 0.931 . S
C729 C728 1.391 . S
C729 C733 1.376 . S
C730 C728 1.394 . S
C730 C731 1.369 . S
C730 C734 1.531 . S
C731 C730 1.369 . S
C731 C732 1.410 . S
C731 C739 1.503 . S
C732 C731 1.410 . S
C732 C733 1.392 . S
C732 C735 1.511 . S
C733 C729 1.376 . S
C733 C732 1.392 . S
C733 H745 0.929 . S
C734 C730 1.531 . S
C734 H746 0.960 . S
C734 H747 0.962 . S
C734 H748 0.960 . S
C735 C732 1.511 . S
C735 H749 0.961 . S
C735 H750 0.961 . S
C735 H751 0.961 . S
C736 C737 1.370 . S
C736 C738 1.363 . S
C736 H752 0.931 . S
C737 C736 1.370 . S
C737 C741 1.408 . S
C738 C736 1.363 . S
C738 C739 1.370 . S
C738 C742 1.524 . S
C739 C731 1.503 . S
C739 C738 1.370 . S
C739 C740 1.403 . S
C740 C739 1.403 . S
C740 C741 1.404 . S
C740 C743 1.539 . S
C741 C737 1.408 . S
C741 C740 1.404 . S
C741 H753 0.930 . S
C742 C738 1.524 . S
C742 H754 0.956 . S
C742 H755 0.961 . S
C742 H756 0.961 . S
C743 C740 1.539 . S
C743 H757 0.958 . S
C743 H758 0.961 . S
C743 H759 0.960 . S
H744 C728 0.931 . S
H745 C733 0.929 . S
H746 C734 0.960 . S
H747 C734 0.962 . S
H748 C734 0.960 . S
H749 C735 0.961 . S
H750 C735 0.961 . S
H751 C735 0.961 . S
H752 C736 0.931 . S
H753 C741 0.930 . S
H754 C742 0.956 . S
H755 C742 0.961 . S
H756 C742 0.961 . S
H757 C743 0.958 . S
H758 C743 0.961 . S
H759 C743 0.960 . S
C760 C761 1.391 . S
C760 C762 1.394 . S
C760 H776 0.931 . S
C761 C760 1.391 . S
C761 C765 1.376 . S
C762 C760 1.394 . S
C762 C763 1.369 . S
C762 C766 1.531 . S
C763 C762 1.369 . S
C763 C764 1.410 . S
C763 C771 1.503 . S
C764 C763 1.410 . S
C764 C765 1.392 . S
C764 C767 1.511 . S
C765 C761 1.376 . S
C765 C764 1.392 . S
C765 H777 0.929 . S
C766 C762 1.531 . S
C766 H778 0.960 . S
C766 H779 0.962 . S
C766 H780 0.960 . S
C767 C764 1.511 . S
C767 H781 0.961 . S
C767 H782 0.961 . S
C767 H783 0.961 . S
C768 C769 1.370 . S
C768 C770 1.363 . S
C768 H784 0.931 . S
C769 C768 1.370 . S
C769 C773 1.408 . S
C770 C768 1.363 . S
C770 C771 1.370 . S
C770 C774 1.524 . S
C771 C763 1.503 . S
C771 C770 1.370 . S
C771 C772 1.403 . S
C772 C771 1.403 . S
C772 C773 1.404 . S
C772 C775 1.539 . S
C773 C769 1.408 . S
C773 C772 1.404 . S
C773 H785 0.930 1_556 S
C774 C770 1.524 . S
C774 H786 0.956 . S
C774 H787 0.961 . S
C774 H788 0.961 . S
C775 C772 1.539 . S
C775 H789 0.958 . S
C775 H790 0.961 1_556 S
C775 H791 0.960 . S
H776 C760 0.931 . S
H777 C765 0.929 . S
H778 C766 0.960 . S
H779 C766 0.962 . S
H780 C766 0.960 . S
H781 C767 0.961 . S
H782 C767 0.961 . S
H783 C767 0.961 . S
H784 C768 0.931 . S
H785 C773 0.930 1_554 S
H786 C774 0.956 . S
H787 C774 0.961 . S
H788 C774 0.961 . S
H789 C775 0.958 . S
H790 C775 0.961 1_554 S
H791 C775 0.960 . S
C792 C793 1.391 . S
C792 C794 1.394 . S
C792 H808 0.931 . S
C793 C792 1.391 . S
C793 C797 1.376 . S
C794 C792 1.394 . S
C794 C795 1.369 . S
C794 C798 1.531 . S
C795 C794 1.369 . S
C795 C796 1.410 . S
C795 C803 1.503 . S
C796 C795 1.410 . S
C796 C797 1.392 . S
C796 C799 1.511 . S
C797 C793 1.376 . S
C797 C796 1.392 . S
C797 H809 0.929 . S
C798 C794 1.531 . S
C798 H810 0.960 . S
C798 H811 0.962 . S
C798 H812 0.960 . S
C799 C796 1.511 . S
C799 H813 0.961 . S
C799 H814 0.961 . S
C799 H815 0.961 . S
C800 C801 1.370 . S
C800 C802 1.363 . S
C800 H816 0.931 . S
C801 C800 1.370 . S
C801 C805 1.408 . S
C802 C800 1.363 . S
C802 C803 1.370 . S
C802 C806 1.524 . S
C803 C795 1.503 . S
C803 C802 1.370 . S
C803 C804 1.403 . S
C804 C803 1.403 . S
C804 C805 1.404 . S
C804 C807 1.539 . S
C805 C801 1.408 . S
C805 C804 1.404 . S
C805 H817 0.930 . S
C806 C802 1.524 . S
C806 H818 0.956 . S
C806 H819 0.961 . S
C806 H820 0.961 . S
C807 C804 1.539 . S
C807 H821 0.958 . S
C807 H822 0.961 . S
C807 H823 0.960 . S
H808 C792 0.931 . S
H809 C797 0.929 . S
H810 C798 0.960 . S
H811 C798 0.962 . S
H812 C798 0.960 . S
H813 C799 0.961 . S
H814 C799 0.961 . S
H815 C799 0.961 . S
H816 C800 0.931 . S
H817 C805 0.930 . S
H818 C806 0.956 . S
H819 C806 0.961 . S
H820 C806 0.961 . S
H821 C807 0.958 . S
H822 C807 0.961 . S
H823 C807 0.960 . S
C824 C825 1.391 . S
C824 C826 1.394 . S
C824 H840 0.931 . S
C825 C824 1.391 . S
C825 C829 1.376 . S
C826 C824 1.394 . S
C826 C827 1.369 . S
C826 C830 1.531 . S
C827 C826 1.369 . S
C827 C828 1.410 . S
C827 C835 1.503 . S
C828 C827 1.410 . S
C828 C829 1.392 . S
C828 C831 1.511 . S
C829 C825 1.376 . S
C829 C828 1.392 . S
C829 H841 0.929 . S
C830 C826 1.531 . S
C830 H842 0.960 . S
C830 H843 0.962 . S
C830 H844 0.960 . S
C831 C828 1.511 . S
C831 H845 0.961 . S
C831 H846 0.961 . S
C831 H847 0.961 . S
C832 C833 1.370 . S
C832 C834 1.363 . S
C832 H848 0.931 . S
C833 C832 1.370 . S
C833 C837 1.408 . S
C834 C832 1.363 . S
C834 C835 1.370 . S
C834 C838 1.524 . S
C835 C827 1.503 . S
C835 C834 1.370 . S
C835 C836 1.403 . S
C836 C835 1.403 . S
C836 C837 1.404 . S
C836 C839 1.539 . S
C837 C833 1.408 . S
C837 C836 1.404 . S
C837 H849 0.930 . S
C838 C834 1.524 . S
C838 H850 0.956 . S
C838 H851 0.961 . S
C838 H852 0.961 . S
C839 C836 1.539 . S
C839 H853 0.958 . S
C839 H854 0.961 . S
C839 H855 0.960 . S
H840 C824 0.931 . S
H841 C829 0.929 . S
H842 C830 0.960 . S
H843 C830 0.962 . S
H844 C830 0.960 . S
H845 C831 0.961 . S
H846 C831 0.961 . S
H847 C831 0.961 . S
H848 C832 0.931 . S
H849 C837 0.930 . S
H850 C838 0.956 . S
H851 C838 0.961 . S
H852 C838 0.961 . S
H853 C839 0.958 . S
H854 C839 0.961 . S
H855 C839 0.960 . S
C856 C857 1.391 . S
C856 C858 1.394 . S
C856 H872 0.931 . S
C857 C856 1.391 . S
C857 C861 1.376 . S
C858 C856 1.394 . S
C858 C859 1.369 . S
C858 C862 1.531 . S
C859 C858 1.369 . S
C859 C860 1.410 . S
C859 C867 1.503 . S
C860 C859 1.410 . S
C860 C861 1.392 . S
C860 C863 1.511 . S
C861 C857 1.376 . S
C861 C860 1.392 . S
C861 H873 0.929 . S
C862 C858 1.531 . S
C862 H874 0.960 . S
C862 H875 0.962 . S
C862 H876 0.960 . S
C863 C860 1.511 . S
C863 H877 0.961 . S
C863 H878 0.961 . S
C863 H879 0.961 . S
C864 C865 1.370 . S
C864 C866 1.363 . S
C864 H880 0.931 . S
C865 C864 1.370 . S
C865 C869 1.408 . S
C866 C864 1.363 . S
C866 C867 1.370 . S
C866 C870 1.524 . S
C867 C859 1.503 . S
C867 C866 1.370 . S
C867 C868 1.403 . S
C868 C867 1.403 . S
C868 C869 1.404 . S
C868 C871 1.539 . S
C869 C865 1.408 . S
C869 C868 1.404 . S
C869 H881 0.930 . S
C870 C866 1.524 . S
C870 H882 0.956 . S
C870 H883 0.961 . S
C870 H884 0.961 . S
C871 C868 1.539 . S
C871 H885 0.958 . S
C871 H886 0.961 . S
C871 H887 0.960 . S
H872 C856 0.931 . S
H873 C861 0.929 . S
H874 C862 0.960 . S
H875 C862 0.962 . S
H876 C862 0.960 . S
H877 C863 0.961 . S
H878 C863 0.961 . S
H879 C863 0.961 . S
H880 C864 0.931 . S
H881 C869 0.930 . S
H882 C870 0.956 . S
H883 C870 0.961 . S
H884 C870 0.961 . S
H885 C871 0.958 . S
H886 C871 0.961 . S
H887 C871 0.960 . S
C888 C889 1.391 . S
C888 C890 1.394 . S
C888 H904 0.931 . S
C889 C888 1.391 . S
C889 C893 1.376 . S
C890 C888 1.394 . S
C890 C891 1.369 . S
C890 C894 1.531 . S
C891 C890 1.369 . S
C891 C892 1.410 . S
C891 C899 1.503 . S
C892 C891 1.410 . S
C892 C893 1.392 . S
C892 C895 1.511 . S
C893 C889 1.376 . S
C893 C892 1.392 . S
C893 H905 0.929 . S
C894 C890 1.531 . S
C894 H906 0.960 . S
C894 H907 0.962 . S
C894 H908 0.960 . S
C895 C892 1.511 . S
C895 H909 0.961 . S
C895 H910 0.961 . S
C895 H911 0.961 . S
C896 C897 1.370 . S
C896 C898 1.363 . S
C896 H912 0.931 . S
C897 C896 1.370 . S
C897 C901 1.408 . S
C898 C896 1.363 . S
C898 C899 1.370 . S
C898 C902 1.524 . S
C899 C891 1.503 . S
C899 C898 1.370 . S
C899 C900 1.403 . S
C900 C899 1.403 . S
C900 C901 1.404 . S
C900 C903 1.539 . S
C901 C897 1.408 . S
C901 C900 1.404 . S
C901 H913 0.930 . S
C902 C898 1.524 . S
C902 H914 0.956 . S
C902 H915 0.961 . S
C902 H916 0.961 . S
C903 C900 1.539 . S
C903 H917 0.958 . S
C903 H918 0.961 . S
C903 H919 0.960 . S
H904 C888 0.931 . S
H905 C893 0.929 . S
H906 C894 0.960 . S
H907 C894 0.962 . S
H908 C894 0.960 . S
H909 C895 0.961 . S
H910 C895 0.961 . S
H911 C895 0.961 . S
H912 C896 0.931 . S
H913 C901 0.930 . S
H914 C902 0.956 . S
H915 C902 0.961 . S
H916 C902 0.961 . S
H917 C903 0.958 . S
H918 C903 0.961 . S
H919 C903 0.960 . S
C920 C921 1.391 . S
C920 C922 1.394 . S
C920 H936 0.931 . S
C921 C920 1.391 . S
C921 C925 1.376 . S
C922 C920 1.394 . S
C922 C923 1.369 . S
C922 C926 1.531 . S
C923 C922 1.369 . S
C923 C924 1.410 . S
C923 C931 1.503 . S
C924 C923 1.410 . S
C924 C925 1.392 . S
C924 C927 1.511 . S
C925 C921 1.376 . S
C925 C924 1.392 . S
C925 H937 0.929 . S
C926 C922 1.531 . S
C926 H938 0.960 . S
C926 H939 0.962 . S
C926 H940 0.960 . S
C927 C924 1.511 . S
C927 H941 0.961 . S
C927 H942 0.961 . S
C927 H943 0.961 . S
C928 C929 1.370 . S
C928 C930 1.363 . S
C928 H944 0.931 . S
C929 C928 1.370 . S
C929 C933 1.408 . S
C930 C928 1.363 . S
C930 C931 1.370 . S
C930 C934 1.524 . S
C931 C923 1.503 . S
C931 C930 1.370 . S
C931 C932 1.403 . S
C932 C931 1.403 . S
C932 C933 1.404 . S
C932 C935 1.539 . S
C933 C929 1.408 . S
C933 C932 1.404 . S
C933 H945 0.930 . S
C934 C930 1.524 . S
C934 H946 0.956 . S
C934 H947 0.961 . S
C934 H948 0.961 . S
C935 C932 1.539 . S
C935 H949 0.958 . S
C935 H950 0.961 . S
C935 H951 0.960 . S
H936 C920 0.931 . S
H937 C925 0.929 . S
H938 C926 0.960 . S
H939 C926 0.962 . S
H940 C926 0.960 . S
H941 C927 0.961 . S
H942 C927 0.961 . S
H943 C927 0.961 . S
H944 C928 0.931 . S
H945 C933 0.930 . S
H946 C934 0.956 . S
H947 C934 0.961 . S
H948 C934 0.961 . S
H949 C935 0.958 . S
H950 C935 0.961 . S
H951 C935 0.960 . S
C952 C953 1.391 . S
C952 C954 1.394 . S
C952 H968 0.931 . S
C953 C952 1.391 . S
C953 C957 1.376 . S
C954 C952 1.394 . S
C954 C955 1.369 . S
C954 C958 1.531 . S
C955 C954 1.369 . S
C955 C956 1.410 . S
C955 C963 1.503 . S
C956 C955 1.410 . S
C956 C957 1.392 . S
C956 C959 1.511 . S
C957 C953 1.376 . S
C957 C956 1.392 . S
C957 H969 0.929 . S
C958 C954 1.531 . S
C958 H970 0.960 . S
C958 H971 0.962 . S
C958 H972 0.960 . S
C959 C956 1.511 . S
C959 H973 0.961 . S
C959 H974 0.961 . S
C959 H975 0.961 . S
C960 C961 1.370 . S
C960 C962 1.363 . S
C960 H976 0.931 . S
C961 C960 1.370 . S
C961 C965 1.408 . S
C962 C960 1.363 . S
C962 C963 1.370 . S
C962 C966 1.524 . S
C963 C955 1.503 . S
C963 C962 1.370 . S
C963 C964 1.403 . S
C964 C963 1.403 . S
C964 C965 1.404 . S
C964 C967 1.539 . S
C965 C961 1.408 . S
C965 C964 1.404 . S
C965 H977 0.930 . S
C966 C962 1.524 . S
C966 H978 0.956 . S
C966 H979 0.961 . S
C966 H980 0.961 . S
C967 C964 1.539 . S
C967 H981 0.958 . S
C967 H982 0.961 . S
C967 H983 0.960 . S
H968 C952 0.931 . S
H969 C957 0.929 . S
H970 C958 0.960 . S
H971 C958 0.962 . S
H972 C958 0.960 . S
H973 C959 0.961 . S
H974 C959 0.961 . S
H975 C959 0.961 . S
H976 C960 0.931 . S
H977 C965 0.930 . S
H978 C966 0.956 . S
H979 C966 0.961 . S
H980 C966 0.961 . S
H981 C967 0.958 . S
H982 C967 0.961 . S
H983 C967 0.960 . S
C984 C985 1.391 . S
C984 C986 1.394 . S
C984 H1000 0.931 . S
C985 C984 1.391 . S
C985 C989 1.376 . S
C986 C984 1.394 . S
C986 C987 1.369 . S
C986 C990 1.531 . S
C987 C986 1.369 . S
C987 C988 1.410 . S
C987 C995 1.503 . S
C988 C987 1.410 . S
C988 C989 1.392 . S
C988 C991 1.511 . S
C989 C985 1.376 . S
C989 C988 1.392 . S
C989 H1001 0.929 . S
C990 C986 1.531 . S
C990 H1002 0.960 . S
C990 H1003 0.962 . S
C990 H1004 0.960 . S
C991 C988 1.511 . S
C991 H1005 0.961 . S
C991 H1006 0.961 . S
C991 H1007 0.961 . S
C992 C993 1.370 . S
C992 C994 1.363 . S
C992 H1008 0.931 . S
C993 C992 1.370 . S
C993 C997 1.408 . S
C994 C992 1.363 . S
C994 C995 1.370 . S
C994 C998 1.524 . S
C995 C987 1.503 . S
C995 C994 1.370 . S
C995 C996 1.403 . S
C996 C995 1.403 . S
C996 C997 1.404 . S
C996 C999 1.539 . S
C997 C993 1.408 . S
C997 C996 1.404 . S
C997 H1009 0.930 . S
C998 C994 1.524 . S
C998 H1010 0.956 . S
C998 H1011 0.961 . S
C998 H1012 0.961 . S
C999 C996 1.539 . S
C999 H1013 0.958 . S
C999 H1014 0.961 . S
C999 H1015 0.960 . S
H1000 C984 0.931 . S
H1001 C989 0.929 . S
H1002 C990 0.960 . S
H1003 C990 0.962 . S
H1004 C990 0.960 . S
H1005 C991 0.961 . S
H1006 C991 0.961 . S
H1007 C991 0.961 . S
H1008 C992 0.931 . S
H1009 C997 0.930 . S
H1010 C998 0.956 . S
H1011 C998 0.961 . S
H1012 C998 0.961 . S
H1013 C999 0.958 . S
H1014 C999 0.961 . S
H1015 C999 0.960 . S
C249 C4 1.127 . S
C257 C94 1.117 . S
C281 C16 1.221 . S
C289 C143 1.261 . S
C321 C178 2.059 . S
C313 C32 2.065 . S
C345 C43 2.270 . S
C353 C217 2.225 . S
C385 C138 2.646 . S
C377 C5 2.521 . S
C417 C97 0.516 . S
C409 C21 0.425 . S
C449 C227 1.875 . S
C441 C27 1.922 . S
C481 C186 1.594 . S
C473 C37 1.594 . S
C505 C10 1.431 . S
C513 C214 1.476 . S
C545 C146 2.502 . S
C537 C26 2.593 . S
C569 C38 2.078 . S
C577 C107 2.087 . S
C601 C15 1.053 . S
C609 C183 1.021 . S
C641 C103 1.271 . S
C633 C48 1.228 . S
C665 C59 1.017 . S
C673 C134 1.065 . S
C697 C76 2.468 . S
C705 C187 2.424 . S
C729 C87 2.119 . S
C737 C226 2.092 . S
C761 C54 1.920 . S
C769 C147 1.997 1_556 S
C801 C106 1.380 . S
C793 C60 1.466 . S
C833 C218 1.754 . S
C825 C71 1.810 . S
C865 C177 1.553 . S
C857 C82 1.604 . S
C889 C49 1.701 . S
C897 C223 1.797 . S
C929 C137 1.961 . S
C921 C70 2.048 . S
C961 C98 2.532 . S
C953 C81 2.540 . S
C985 C65 0.890 . S
C993 C174 0.857 . S
