# Generated by pormake.
# Topology zzz, (3,6)-cn, num edge types: 1
# Building blocks:
#     Node 0, Type 0, BuildingBlock: KAKCAD_clean_linker_0, # of connection points: 3
#     Node 1, Type 0, BuildingBlock: KAKCAD_clean_linker_0, # of connection points: 3
#     Node 2, Type 0, BuildingBlock: KAKCAD_clean_linker_0, # of connection points: 3
#     Node 3, Type 0, BuildingBlock: KAKCAD_clean_linker_0, # of connection points: 3
#     Node 4, Type 0, BuildingBlock: KAKCAD_clean_linker_0, # of connection points: 3
#     Node 5, Type 0, BuildingBlock: KAKCAD_clean_linker_0, # of connection points: 3
#     Node 6, Type 0, BuildingBlock: KAKCAD_clean_linker_0, # of connection points: 3
#     Node 7, Type 0, BuildingBlock: KAKCAD_clean_linker_0, # of connection points: 3
#     Node 8, Type 1, BuildingBlock: VOLQOD_clean_sbu_1, # of connection points: 6
#     Node 9, Type 1, BuildingBlock: VOLQOD_clean_sbu_1, # of connection points: 6
#     Node 10, Type 1, BuildingBlock: VOLQOD_clean_sbu_1, # of connection points: 6
#     Node 11, Type 1, BuildingBlock: VOLQOD_clean_sbu_1, # of connection points: 6
#     Edge 12, Type (0, 1), BuildingBlock: MIFKUJ_clean_linker_0, # of connection points: 2
#     Edge 13, Type (0, 1), BuildingBlock: MIFKUJ_clean_linker_0, # of connection points: 2
#     Edge 14, Type (0, 1), BuildingBlock: MIFKUJ_clean_linker_0, # of connection points: 2
#     Edge 15, Type (0, 1), BuildingBlock: MIFKUJ_clean_linker_0, # of connection points: 2
#     Edge 16, Type (0, 1), BuildingBlock: MIFKUJ_clean_linker_0, # of connection points: 2
#     Edge 17, Type (0, 1), BuildingBlock: MIFKUJ_clean_linker_0, # of connection points: 2
#     Edge 18, Type (0, 1), BuildingBlock: MIFKUJ_clean_linker_0, # of connection points: 2
#     Edge 19, Type (0, 1), BuildingBlock: MIFKUJ_clean_linker_0, # of connection points: 2
#     Edge 20, Type (0, 1), BuildingBlock: MIFKUJ_clean_linker_0, # of connection points: 2
#     Edge 21, Type (0, 1), BuildingBlock: MIFKUJ_clean_linker_0, # of connection points: 2
#     Edge 22, Type (0, 1), BuildingBlock: MIFKUJ_clean_linker_0, # of connection points: 2
#     Edge 23, Type (0, 1), BuildingBlock: MIFKUJ_clean_linker_0, # of connection points: 2
#     Edge 24, Type (0, 1), BuildingBlock: MIFKUJ_clean_linker_0, # of connection points: 2
#     Edge 25, Type (0, 1), BuildingBlock: MIFKUJ_clean_linker_0, # of connection points: 2
#     Edge 26, Type (0, 1), BuildingBlock: MIFKUJ_clean_linker_0, # of connection points: 2
#     Edge 27, Type (0, 1), BuildingBlock: MIFKUJ_clean_linker_0, # of connection points: 2
#     Edge 28, Type (0, 1), BuildingBlock: MIFKUJ_clean_linker_0, # of connection points: 2
#     Edge 29, Type (0, 1), BuildingBlock: MIFKUJ_clean_linker_0, # of connection points: 2
#     Edge 30, Type (0, 1), BuildingBlock: MIFKUJ_clean_linker_0, # of connection points: 2
#     Edge 31, Type (0, 1), BuildingBlock: MIFKUJ_clean_linker_0, # of connection points: 2
#     Edge 32, Type (0, 1), BuildingBlock: MIFKUJ_clean_linker_0, # of connection points: 2
#     Edge 33, Type (0, 1), BuildingBlock: MIFKUJ_clean_linker_0, # of connection points: 2
#     Edge 34, Type (0, 1), BuildingBlock: MIFKUJ_clean_linker_0, # of connection points: 2
#     Edge 35, Type (0, 1), BuildingBlock: MIFKUJ_clean_linker_0, # of connection points: 2
# Relax obj value: 0.359
# Max RMSD: 0.257
# Mean RMSD: 0.208
data_MOF--net-zzz--node1-VOLQOD_clean_sbu_1--node2-KAKCAD_clean_linker_0--edge1-MIFKUJ_clean_linker_0
_symmetry_space_group_name_H-M    P1
_symmetry_Int_Tables_number       1
_symmetry_cell_setting            triclinic
loop_
_symmetry_equiv_pos_as_xyz
'x, y, z'
_cell_length_a     71.858449
_cell_length_b     70.71496
_cell_length_c     28.197549
_cell_angle_alpha  90.090966
_cell_angle_beta   90.276193
_cell_angle_gamma 92.236952
loop_
_atom_site_label
_atom_site_type_symbol
_atom_site_fract_x
_atom_site_fract_y
_atom_site_fract_z
_atom_type_partial_charge
C0 C 0.82795 0.46417 0.00086 0.0
C1 C 0.8407 0.45169 0.02025 0.0
C2 C 0.81322 0.4705 0.02804 0.0
C3 C 0.81094 0.46449 0.0752 0.0
C4 C 0.8233 0.45151 0.09405 0.0
C5 C 0.83803 0.44518 0.06688 0.0
C6 C 0.7963 0.47248 0.1054 0.0
C7 C 0.77835 0.47513 0.08744 0.0
C8 C 0.76467 0.48321 0.11568 0.0
C9 C 0.769 0.48857 0.16264 0.0
C10 C 0.78702 0.48626 0.18053 0.0
C11 C 0.8005 0.47817 0.15199 0.0
C12 C 0.7926 0.49297 0.22813 0.0
C13 C 0.80356 0.50971 0.2326 0.0
C14 C 0.7901 0.48109 0.26748 0.0
C15 C 0.79941 0.48534 0.31009 0.0
C16 C 0.81142 0.5015 0.31381 0.0
C17 C 0.74607 0.48633 0.09502 0.0
C18 C 0.74463 0.49531 0.05085 0.0
C19 C 0.72981 0.47939 0.1175 0.0
C20 C 0.71247 0.48067 0.09509 0.0
C21 C 0.71112 0.48921 0.05024 0.0
C22 C 0.72734 0.49682 0.0288 0.0
C23 C 0.81282 0.51401 0.27515 0.0
H24 H 0.82977 0.46966 0.96527 0.0
H25 H 0.80406 0.48067 0.01268 0.0
H26 H 0.82171 0.44637 0.13003 0.0
H27 H 0.84745 0.43534 0.08256 0.0
H28 H 0.77492 0.4707 0.05152 0.0
H29 H 0.81448 0.47677 0.16593 0.0
H30 H 0.75865 0.49504 0.18456 0.0
H31 H 0.80585 0.51888 0.20226 0.0
H32 H 0.78186 0.46797 0.26437 0.0
H33 H 0.79791 0.47553 0.33942 0.0
H34 H 0.75698 0.50089 0.03295 0.0
H35 H 0.73059 0.47235 0.15151 0.0
H36 H 0.82211 0.52643 0.27654 0.0
H37 H 0.72677 0.50331 0.99408 0.0
H38 H 0.70015 0.47478 0.11248 0.0
C39 C 0.01609 0.79265 0.06382 0.0
C40 C 0.02843 0.80576 0.08641 0.0
C41 C 0.00749 0.77785 0.08945 0.0
C42 C 0.01104 0.77589 0.13819 0.0
C43 C 0.02379 0.78867 0.16042 0.0
C44 C 0.03238 0.80342 0.13484 0.0
C45 C 0.00109 0.76099 0.16636 0.0
C46 C 0.99903 0.74234 0.14957 0.0
C47 C 0.99014 0.72815 0.17725 0.0
C48 C 0.98324 0.73275 0.2223 0.0
C49 C 0.98516 0.75143 0.23911 0.0
C50 C 0.9939 0.7654 0.21092 0.0
C51 C 0.97982 0.75675 0.28755 0.0
C52 C 0.96559 0.76955 0.29404 0.0
C53 C 0.99197 0.75316 0.32523 0.0
C54 C 0.99107 0.7636 0.36724 0.0
C55 C 0.97787 0.77761 0.37223 0.0
C56 C 0.98858 0.70855 0.15875 0.0
C57 C 0.97119 0.69887 0.15511 0.0
C58 C 0.00444 0.69999 0.14111 0.0
C59 C 0.00289 0.68238 0.11881 0.0
C60 C 0.98542 0.673 0.11322 0.0
C61 C 0.96959 0.68129 0.13212 0.0
C62 C 0.9645 0.77978 0.33633 0.0
H63 H 0.0126 0.79418 0.02665 0.0
H64 H 0.99763 0.7683 0.07145 0.0
H65 H 0.02709 0.78728 0.19775 0.0
H66 H 0.04209 0.81306 0.15307 0.0
H67 H 0.00456 0.73879 0.11512 0.0
H68 H 0.99537 0.77978 0.22429 0.0
H69 H 0.97677 0.72186 0.24441 0.0
H70 H 0.95631 0.77274 0.265 0.0
H71 H 0.00324 0.7436 0.32055 0.0
H72 H 0.00151 0.76168 0.39449 0.0
H73 H 0.95876 0.70525 0.16827 0.0
H74 H 0.01802 0.70716 0.14366 0.0
H75 H 0.95431 0.79062 0.33914 0.0
H76 H 0.95596 0.67433 0.12842 0.0
H77 H 0.01531 0.67647 0.10413 0.0
C78 C 0.72154 0.03837 0.00401 0.0
C79 C 0.70926 0.0526 0.01599 0.0
C80 C 0.7354 0.03315 0.0357 0.0
C81 C 0.73738 0.04211 0.08007 0.0
C82 C 0.72562 0.05692 0.0912 0.0
C83 C 0.7117 0.0621 0.05952 0.0
C84 C 0.75095 0.03531 0.11552 0.0
C85 C 0.76858 0.02969 0.10148 0.0
C86 C 0.78099 0.02227 0.13448 0.0
C87 C 0.77585 0.02063 0.18234 0.0
C88 C 0.75813 0.02606 0.19705 0.0
C89 C 0.74585 0.03337 0.16328 0.0
C90 C 0.75157 0.02302 0.24655 0.0
C91 C 0.7548 0.00606 0.27063 0.0
C92 C 0.74024 0.0363 0.26805 0.0
C93 C 0.73116 0.03213 0.31057 0.0
C94 C 0.73339 0.01466 0.33337 0.0
C95 C 0.799 0.01563 0.11749 0.0
C96 C 0.7992 0.00098 0.08398 0.0
C97 C 0.81577 0.02509 0.13046 0.0
C98 C 0.83241 0.02063 0.10815 0.0
C99 C 0.83254 0.0065 0.07285 0.0
C100 C 0.81581 0.99633 0.06223 0.0
C101 C 0.74586 0.00195 0.31367 0.0
H102 H 0.72017 0.03095 0.97046 0.0
H103 H 0.74411 0.0216 0.02608 0.0
H104 H 0.72696 0.06428 0.12483 0.0
H105 H 0.7024 0.07304 0.06996 0.0
H106 H 0.77275 0.03108 0.0647 0.0
H107 H 0.73187 0.03674 0.17375 0.0
H108 H 0.78546 0.01482 0.20768 0.0
H109 H 0.76343 0.9955 0.25507 0.0
H110 H 0.73774 0.04967 0.25092 0.0
H111 H 0.72158 0.04227 0.32398 0.0
H112 H 0.78638 0.99347 0.0737 0.0
H113 H 0.81582 0.03656 0.156 0.0
H114 H 0.74826 0.98853 0.33062 0.0
H115 H 0.81543 0.98505 0.03619 0.0
H116 H 0.84497 0.02887 0.11697 0.0
C117 C 0.54829 0.71427 0.33108 0.0
C118 C 0.56262 0.70254 0.34557 0.0
C119 C 0.55043 0.72559 0.29069 0.0
C120 C 0.56689 0.72526 0.26425 0.0
C121 C 0.58184 0.715 0.28126 0.0
C122 C 0.57978 0.70381 0.32182 0.0
C123 C 0.56646 0.7306 0.21381 0.0
C124 C 0.56708 0.74952 0.19868 0.0
C125 C 0.56582 0.75367 0.14995 0.0
C126 C 0.5633 0.73879 0.11706 0.0
C127 C 0.56202 0.71991 0.13219 0.0
C128 C 0.56397 0.71599 0.18056 0.0
C129 C 0.55692 0.70432 0.09871 0.0
C130 C 0.5427 0.70651 0.06498 0.0
C131 C 0.56492 0.68657 0.10328 0.0
C132 C 0.5582 0.67114 0.07646 0.0
C133 C 0.54344 0.67316 0.04427 0.0
C134 C 0.56603 0.77342 0.13251 0.0
C135 C 0.5535 0.78635 0.15052 0.0
C136 C 0.57732 0.77874 0.09389 0.0
C137 C 0.57549 0.79629 0.07213 0.0
C138 C 0.5622 0.80883 0.08828 0.0
C139 C 0.55152 0.80387 0.1284 0.0
C140 C 0.53606 0.6911 0.03796 0.0
H141 H 0.53498 0.71367 0.349 0.0
H142 H 0.53864 0.73317 0.27766 0.0
H143 H 0.59452 0.7143 0.2608 0.0
H144 H 0.59101 0.69483 0.33183 0.0
H145 H 0.56862 0.76085 0.22449 0.0
H146 H 0.56256 0.70149 0.19298 0.0
H147 H 0.5618 0.74197 0.07967 0.0
H148 H 0.53606 0.71991 0.06106 0.0
H149 H 0.57611 0.68451 0.1284 0.0
H150 H 0.56437 0.65754 0.08138 0.0
H151 H 0.54456 0.78252 0.18009 0.0
H152 H 0.58713 0.76902 0.07946 0.0
H153 H 0.52458 0.69304 0.01364 0.0
H154 H 0.54129 0.81334 0.14186 0.0
H155 H 0.58381 0.7996 0.04109 0.0
C156 C 0.20162 0.58984 0.29942 0.0
C157 C 0.18437 0.57979 0.30233 0.0
C158 C 0.21636 0.58241 0.27396 0.0
C159 C 0.21406 0.56488 0.25071 0.0
C160 C 0.19685 0.55489 0.25361 0.0
C161 C 0.18223 0.5622 0.27921 0.0
C162 C 0.22951 0.5567 0.22382 0.0
C163 C 0.24736 0.55582 0.24382 0.0
C164 C 0.2616 0.54653 0.22003 0.0
C165 C 0.25783 0.53849 0.17502 0.0
C166 C 0.23997 0.53923 0.15495 0.0
C167 C 0.22599 0.54844 0.17934 0.0
C168 C 0.23516 0.5296 0.10973 0.0
C169 C 0.2438 0.53518 0.06719 0.0
C170 C 0.2203 0.51615 0.1085 0.0
C171 C 0.21349 0.50911 0.06534 0.0
C172 C 0.2213 0.5155 0.02237 0.0
C173 C 0.27972 0.54386 0.24438 0.0
C174 C 0.28797 0.55838 0.27248 0.0
C175 C 0.28814 0.52624 0.2428 0.0
C176 C 0.30403 0.52302 0.26994 0.0
C177 C 0.31182 0.53732 0.29944 0.0
C178 C 0.30381 0.55512 0.2998 0.0
C179 C 0.23682 0.52828 0.02372 0.0
H180 H 0.20372 0.60347 0.3166 0.0
H181 H 0.22949 0.59044 0.27207 0.0
H182 H 0.19479 0.54115 0.23689 0.0
H183 H 0.16938 0.55375 0.28181 0.0
H184 H 0.24982 0.56143 0.27919 0.0
H185 H 0.21222 0.54903 0.16364 0.0
H186 H 0.26856 0.53121 0.15623 0.0
H187 H 0.25524 0.54562 0.06744 0.0
H188 H 0.21345 0.51166 0.14097 0.0
H189 H 0.20136 0.49952 0.06559 0.0
H190 H 0.28201 0.5722 0.27393 0.0
H191 H 0.282 0.51465 0.22217 0.0
H192 H 0.24313 0.5334 0.99115 0.0
H193 H 0.30969 0.56651 0.32157 0.0
H194 H 0.30976 0.50908 0.26929 0.0
C195 C 0.04864 0.19984 0.3223 0.0
C196 C 0.05889 0.1836 0.33009 0.0
C197 C 0.05535 0.21406 0.29188 0.0
C198 C 0.07245 0.21234 0.26857 0.0
C199 C 0.083 0.19641 0.27764 0.0
C200 C 0.0763 0.1822 0.30813 0.0
C201 C 0.0785 0.22641 0.23225 0.0
C202 C 0.07621 0.24576 0.23959 0.0
C203 C 0.07994 0.25896 0.20328 0.0
C204 C 0.08646 0.25261 0.1592 0.0
C205 C 0.08913 0.2332 0.15173 0.0
C206 C 0.08517 0.22031 0.1885 0.0
C207 C 0.09402 0.2255 0.10465 0.0
C208 C 0.0831 0.22936 0.06466 0.0
C209 C 0.10717 0.21136 0.1016 0.0
C210 C 0.10802 0.19996 0.06127 0.0
C211 C 0.09575 0.20249 0.023 0.0
C212 C 0.07633 0.2792 0.21215 0.0
C213 C 0.05996 0.28401 0.23556 0.0
C214 C 0.08968 0.29357 0.20141 0.0
C215 C 0.08715 0.31222 0.2164 0.0
C216 C 0.0712 0.31681 0.24222 0.0
C217 C 0.05747 0.30251 0.25059 0.0
C218 C 0.08397 0.21795 0.02415 0.0
H219 H 0.03529 0.20143 0.33923 0.0
H220 H 0.0468 0.22607 0.28528 0.0
H221 H 0.0963 0.19479 0.26049 0.0
H222 H 0.08448 0.1698 0.31318 0.0
H223 H 0.07139 0.25055 0.27378 0.0
H224 H 0.08622 0.20528 0.182 0.0
H225 H 0.08902 0.26259 0.13063 0.0
H226 H 0.07283 0.24015 0.06608 0.0
H227 H 0.11584 0.20819 0.13189 0.0
H228 H 0.11723 0.18821 0.06191 0.0
H229 H 0.04929 0.27328 0.24372 0.0
H230 H 0.10242 0.29026 0.18337 0.0
H231 H 0.07461 0.22054 0.99486 0.0
H232 H 0.04511 0.30533 0.2708 0.0
H233 H 0.09789 0.32293 0.20873 0.0
C234 C 0.32834 0.99673 0.306 0.0
C235 C 0.34665 0.00342 0.29692 0.0
C236 C 0.31362 0.00222 0.2773 0.0
C237 C 0.31689 0.01455 0.23893 0.0
C238 C 0.33513 0.0216 0.23055 0.0
C239 C 0.34985 0.01608 0.25917 0.0
C240 C 0.30148 0.01931 0.20641 0.0
C241 C 0.28383 0.0232 0.22402 0.0
C242 C 0.26897 0.02662 0.19308 0.0
C243 C 0.27187 0.02647 0.14374 0.0
C244 C 0.2896 0.02279 0.12579 0.0
C245 C 0.30421 0.01919 0.15728 0.0
C246 C 0.29356 0.0225 0.07443 0.0
C247 C 0.30113 0.00633 0.05454 0.0
C248 C 0.29342 0.03923 0.04778 0.0
C249 C 0.30214 0.04017 0.00342 0.0
C250 C 0.31105 0.02436 0.98509 0.0
C251 C 0.25036 0.02897 0.21373 0.0
C252 C 0.23636 0.01481 0.20745 0.0
C253 C 0.24771 0.04347 0.24672 0.0
C254 C 0.23181 0.04321 0.27505 0.0
C255 C 0.2184 0.02821 0.27166 0.0
C256 C 0.22054 0.01437 0.23629 0.0
C257 C 0.30975 0.00722 0.01037 0.0
H258 H 0.32539 0.98716 0.3352 0.0
H259 H 0.29975 0.9964 0.28443 0.0
H260 H 0.33806 0.03128 0.20156 0.0
H261 H 0.36381 0.02137 0.25096 0.0
H262 H 0.28152 0.02323 0.26199 0.0
H263 H 0.31776 0.01602 0.14323 0.0
H264 H 0.26043 0.02897 0.11964 0.0
H265 H 0.3015 0.99331 0.0747 0.0
H266 H 0.28781 0.05192 0.0627 0.0
H267 H 0.30273 0.05352 0.98461 0.0
H268 H 0.23828 0.00333 0.18267 0.0
H269 H 0.2584 0.05451 0.25216 0.0
H270 H 0.31664 0.99482 0.99789 0.0
H271 H 0.21064 0.00251 0.23281 0.0
H272 H 0.23042 0.05438 0.30096 0.0
C273 C 0.43235 0.27041 0.98725 0.0
C274 C 0.45026 0.27185 0.9674 0.0
C275 C 0.42914 0.25987 0.02848 0.0
C276 C 0.44375 0.25052 0.05051 0.0
C277 C 0.46103 0.25008 0.02763 0.0
C278 C 0.46427 0.2607 0.98642 0.0
C279 C 0.44261 0.2462 0.1018 0.0
C280 C 0.44756 0.22864 0.12071 0.0
C281 C 0.4491 0.22638 0.17021 0.0
C282 C 0.44577 0.24176 0.20024 0.0
C283 C 0.44137 0.25937 0.18169 0.0
C284 C 0.43928 0.26129 0.13262 0.0
C285 C 0.4419 0.27632 0.21273 0.0
C286 C 0.43365 0.27587 0.25781 0.0
C287 C 0.45241 0.29253 0.19896 0.0
C288 C 0.45529 0.30764 0.2302 0.0
C289 C 0.44765 0.30698 0.276 0.0
C290 C 0.45563 0.20871 0.19184 0.0
C291 C 0.44613 0.19122 0.18418 0.0
C292 C 0.47026 0.20983 0.22504 0.0
C293 C 0.47446 0.1942 0.25252 0.0
C294 C 0.46417 0.17703 0.24741 0.0
C295 C 0.4504 0.17544 0.21181 0.0
C296 C 0.43644 0.29109 0.28912 0.0
H297 H 0.42125 0.27886 0.97371 0.0
H298 H 0.41572 0.26049 0.04564 0.0
H299 H 0.47256 0.24311 0.04411 0.0
H300 H 0.47814 0.26128 0.97147 0.0
H301 H 0.45085 0.21714 0.09715 0.0
H302 H 0.43624 0.27504 0.1181 0.0
H303 H 0.44763 0.24025 0.23822 0.0
H304 H 0.42539 0.26357 0.26919 0.0
H305 H 0.45929 0.29316 0.16486 0.0
H306 H 0.46433 0.3194 0.21915 0.0
H307 H 0.43478 0.19003 0.15882 0.0
H308 H 0.47801 0.22307 0.23107 0.0
H309 H 0.43017 0.29025 0.32393 0.0
H310 H 0.44229 0.16233 0.20706 0.0
H311 H 0.48545 0.19571 0.27887 0.0
O312 O 0.07922 0.99361 0.6665 0.0
Zn313 Zn 0.06059 0.99362 0.72092 0.0
O314 O 0.03481 0.9898 0.69661 0.0
Zn315 Zn 0.02049 0.01201 0.71024 0.0
Zn316 Zn 0.03512 0.98536 0.62838 0.0
Zn317 Zn 0.02224 0.96803 0.72607 0.0
O318 O 0.99777 0.00576 0.74969 0.0
O319 O 0.00087 0.97548 0.76725 0.0
O320 O 0.064 0.01897 0.75476 0.0
O321 O 0.03604 0.03095 0.7475 0.0
O322 O 0.01339 0.0253 0.65031 0.0
O323 O 0.02362 0.00672 0.59337 0.0
O324 O 0.02271 0.96035 0.60965 0.0
O325 O 0.06664 0.97267 0.76749 0.0
O326 O 0.0125 0.94884 0.67829 0.0
O327 O 0.04031 0.95489 0.76671 0.0
C328 C 0.07721 0.98975 0.6225 0.0
C329 C 0.99236 0.99083 0.77166 0.0
C330 C 0.01585 0.0217 0.60658 0.0
C331 C 0.0528 0.03219 0.7623 0.0
C332 C 0.01417 0.94747 0.63352 0.0
C333 C 0.05699 0.9581 0.7806 0.0
O334 O 0.06123 0.98567 0.60483 0.0
O335 O 0.51279 0.04032 0.63423 0.0
Zn336 Zn 0.51613 0.02344 0.69165 0.0
O337 O 0.52431 0.99812 0.67259 0.0
Zn338 Zn 0.50542 0.97869 0.68912 0.0
Zn339 Zn 0.5286 0.99766 0.60451 0.0
Zn340 Zn 0.54743 0.99211 0.70417 0.0
O341 O 0.51526 0.95902 0.73373 0.0
O342 O 0.54502 0.96803 0.74183 0.0
O343 O 0.49074 0.02128 0.72298 0.0
O344 O 0.48367 0.99046 0.72014 0.0
O345 O 0.49492 0.96617 0.63048 0.0
O346 O 0.51263 0.97763 0.57227 0.0
O347 O 0.5556 0.99486 0.58868 0.0
O348 O 0.53463 0.03603 0.73802 0.0
O349 O 0.56904 0.9905 0.65858 0.0
O350 O 0.55403 0.01268 0.75002 0.0
C351 C 0.51473 0.0373 0.58998 0.0
C352 C 0.53138 0.95664 0.75124 0.0
C353 C 0.49916 0.96696 0.58673 0.0
C354 C 0.47952 0.00724 0.731 0.0
C355 C 0.57006 0.99216 0.61368 0.0
C356 C 0.54853 0.02916 0.75934 0.0
O357 O 0.52064 0.0217 0.57481 0.0
O358 O 0.46622 0.49069 0.64238 0.0
Zn359 Zn 0.48642 0.48612 0.69134 0.0
O360 O 0.51128 0.48725 0.6614 0.0
Zn361 Zn 0.52441 0.46445 0.67727 0.0
Zn362 Zn 0.50886 0.48969 0.59281 0.0
Zn363 Zn 0.52613 0.5089 0.68383 0.0
O364 O 0.54868 0.47 0.71197 0.0
O365 O 0.54888 0.50124 0.7193 0.0
O366 O 0.48098 0.46032 0.72181 0.0
O367 O 0.50887 0.44777 0.71979 0.0
O368 O 0.52791 0.44862 0.61888 0.0
O369 O 0.5172 0.46631 0.56048 0.0
O370 O 0.52228 0.51309 0.56677 0.0
O371 O 0.48483 0.50676 0.74155 0.0
O372 O 0.53426 0.5265 0.63173 0.0
O373 O 0.51103 0.52375 0.72799 0.0
C374 C 0.4668 0.49246 0.59741 0.0
C375 C 0.5562 0.48545 0.72728 0.0
C376 C 0.52409 0.45107 0.57521 0.0
C377 C 0.49189 0.44713 0.7323 0.0
C378 C 0.53162 0.52648 0.58713 0.0
C379 C 0.49554 0.52126 0.74912 0.0
O380 O 0.48209 0.49203 0.57498 0.0
O381 O 0.98398 0.52186 0.61405 0.0
Zn382 Zn 0.0087 0.52496 0.6491 0.0
O383 O 0.0202 0.50028 0.65814 0.0
Zn384 Zn 0.02422 0.4959 0.72554 0.0
Zn385 Zn 0.00384 0.48003 0.63235 0.0
Zn386 Zn 0.04425 0.49972 0.6264 0.0
O387 O 0.05103 0.49181 0.74123 0.0
O388 O 0.06549 0.49646 0.67272 0.0
O389 O 0.00391 0.53763 0.71227 0.0
O390 O 0.01669 0.51825 0.76383 0.0
O391 O 0.00825 0.47402 0.74872 0.0
O392 O 0.99324 0.46341 0.68448 0.0
O393 O 0.0169 0.46427 0.58381 0.0
O394 O 0.0258 0.54261 0.61088 0.0
O395 O 0.0449 0.47852 0.57863 0.0
O396 O 0.04922 0.5242 0.5925 0.0
C397 C 0.9753 0.50737 0.59662 0.0
C398 C 0.06593 0.49305 0.71704 0.0
C399 C 0.99635 0.46274 0.72894 0.0
C400 C 0.00839 0.53339 0.75462 0.0
C401 C 0.03312 0.46558 0.56571 0.0
C402 C 0.04117 0.53988 0.59012 0.0
O403 O 0.98174 0.49093 0.60046 0.0
H404 H 0.22057 0.03628 0.36665 0.0
H405 H 0.19687 0.03067 0.42685 0.0
H406 H 0.15882 0.00821 0.32024 0.0
H407 H 0.18217 0.01481 0.25899 0.0
H408 H 0.14083 0.02911 0.38173 0.0
H409 H 0.18386 0.97904 0.3936 0.0
H410 H 0.21472 0.96531 0.40201 0.0
H411 H 0.22226 0.99251 0.53737 0.0
H412 H 0.19154 0.00663 0.52946 0.0
H413 H 0.0783 0.97898 0.52971 0.0
H414 H 0.10288 0.98584 0.47247 0.0
H415 H 0.13694 0.01208 0.58239 0.0
H416 H 0.11231 0.00514 0.64049 0.0
H417 H 0.15711 0.99017 0.52112 0.0
H418 H 0.11295 0.0392 0.50949 0.0
H419 H 0.08164 0.05189 0.50061 0.0
H420 H 0.07579 0.02559 0.36375 0.0
H421 H 0.10696 0.01247 0.37212 0.0
C422 C 0.20703 0.03057 0.35557 0.0
C423 C 0.20335 0.026 0.30771 0.0
C424 C 0.19356 0.0271 0.39032 0.0
C425 C 0.17619 0.01864 0.3783 0.0
C426 C 0.17219 0.01462 0.33044 0.0
C427 C 0.18562 0.01825 0.29549 0.0
C428 C 0.16238 0.01363 0.41578 0.0
C429 C 0.14434 0.02041 0.41188 0.0
C430 C 0.16705 0.0026 0.45576 0.0
C431 C 0.18548 0.99404 0.46072 0.0
C432 C 0.19216 0.98221 0.425 0.0
C433 C 0.20962 0.97433 0.4297 0.0
C434 C 0.22047 0.97807 0.47014 0.0
C435 C 0.21386 0.98965 0.50603 0.0
C436 C 0.19641 0.99758 0.50148 0.0
C437 C 0.09107 0.98604 0.54203 0.0
C438 C 0.09324 0.99169 0.58971 0.0
C439 C 0.10509 0.99002 0.50911 0.0
C440 C 0.12155 0.99983 0.52296 0.0
C441 C 0.12425 0.00462 0.57094 0.0
C442 C 0.11018 0.00061 0.6041 0.0
C443 C 0.1356 0.00556 0.48684 0.0
C444 C 0.15366 0.99893 0.49102 0.0
C445 C 0.13092 0.01663 0.44699 0.0
C446 C 0.11225 0.02472 0.44162 0.0
C447 C 0.10495 0.03601 0.47764 0.0
C448 C 0.08722 0.04329 0.47268 0.0
C449 C 0.07672 0.03952 0.43169 0.0
C450 C 0.08394 0.02849 0.39551 0.0
C451 C 0.10164 0.02114 0.40032 0.0
H452 H 0.06301 0.04518 0.42789 0.0
H453 H 0.23398 0.97197 0.47371 0.0
H454 H 0.4663 0.17978 0.34329 0.0
H455 H 0.47334 0.15513 0.40025 0.0
H456 H 0.47584 0.11445 0.2865 0.0
H457 H 0.46846 0.13923 0.22897 0.0
H458 H 0.45892 0.09904 0.36455 0.0
H459 H 0.51558 0.13439 0.33243 0.0
H460 H 0.53585 0.16311 0.32377 0.0
H461 H 0.52773 0.17681 0.47044 0.0
H462 H 0.50718 0.1483 0.47982 0.0
H463 H 0.51121 0.03291 0.49411 0.0
H464 H 0.50105 0.05594 0.4362 0.0
H465 H 0.49498 0.09702 0.54768 0.0
H466 H 0.5052 0.07399 0.60627 0.0
H467 H 0.51369 0.11156 0.46953 0.0
H468 H 0.4574 0.07519 0.50136 0.0
H469 H 0.43779 0.04597 0.50907 0.0
H470 H 0.44601 0.03339 0.36185 0.0
H471 H 0.46595 0.0624 0.35338 0.0
C472 C 0.46835 0.16558 0.33034 0.0
C473 C 0.46717 0.16148 0.2816 0.0
C474 C 0.47235 0.1515 0.36296 0.0
C475 C 0.47552 0.13303 0.34757 0.0
C476 C 0.47355 0.12864 0.29911 0.0
C477 C 0.46936 0.14277 0.26632 0.0
C478 C 0.4816 0.11866 0.38217 0.0
C479 C 0.47104 0.10164 0.38705 0.0
C480 C 0.49724 0.1222 0.41213 0.0
C481 C 0.50971 0.13929 0.40671 0.0
C482 C 0.51801 0.1436 0.36276 0.0
C483 C 0.52956 0.15983 0.35773 0.0
C484 C 0.53304 0.1718 0.3965 0.0
C485 C 0.52501 0.16753 0.44042 0.0
C486 C 0.51342 0.15133 0.44563 0.0
C487 C 0.5078 0.04686 0.50648 0.0
C488 C 0.50909 0.05162 0.55493 0.0
C489 C 0.50186 0.05996 0.47326 0.0
C490 C 0.49707 0.07811 0.4877 0.0
C491 C 0.49855 0.08304 0.53588 0.0
C492 C 0.50439 0.06988 0.56929 0.0
C493 C 0.49094 0.09204 0.45222 0.0
C494 C 0.50155 0.10896 0.44707 0.0
C495 C 0.47544 0.08831 0.42192 0.0
C496 C 0.46333 0.07091 0.42684 0.0
C497 C 0.45517 0.06613 0.4707 0.0
C498 C 0.44397 0.04961 0.4752 0.0
C499 C 0.44069 0.03783 0.43599 0.0
C500 C 0.44859 0.04254 0.39219 0.0
C501 C 0.45983 0.05902 0.38751 0.0
H502 H 0.432 0.02508 0.4395 0.0
H503 H 0.54199 0.18436 0.39253 0.0
H504 H 0.3432 0.51826 0.2785 0.0
H505 H 0.36852 0.5104 0.33237 0.0
H506 H 0.34152 0.53923 0.44645 0.0
H507 H 0.31625 0.54728 0.39263 0.0
H508 H 0.37781 0.54731 0.44842 0.0
H509 H 0.33941 0.49074 0.43811 0.0
H510 H 0.32183 0.46459 0.39824 0.0
H511 H 0.37223 0.44598 0.33516 0.0
H512 H 0.39009 0.4722 0.37412 0.0
H513 H 0.43402 0.50635 0.6295 0.0
H514 H 0.40654 0.51377 0.58192 0.0
H515 H 0.43328 0.49314 0.45648 0.0
H516 H 0.46073 0.48588 0.5034 0.0
H517 H 0.39581 0.48059 0.46509 0.0
H518 H 0.43366 0.53854 0.4737 0.0
H519 H 0.45077 0.5648 0.51443 0.0
H520 H 0.40047 0.58048 0.58328 0.0
H521 H 0.3831 0.55412 0.54347 0.0
C522 C 0.34265 0.52289 0.31508 0.0
C523 C 0.3277 0.53333 0.33135 0.0
C524 C 0.35711 0.51837 0.34586 0.0
C525 C 0.35677 0.52396 0.39369 0.0
C526 C 0.34207 0.53475 0.40974 0.0
C527 C 0.32767 0.53939 0.3789 0.0
C528 C 0.3717 0.51845 0.42695 0.0
C529 C 0.38153 0.53268 0.45262 0.0
C530 C 0.37674 0.49939 0.43206 0.0
C531 C 0.36606 0.48355 0.40871 0.0
C532 C 0.34673 0.48116 0.41545 0.0
C533 C 0.33672 0.46631 0.39306 0.0
C534 C 0.3459 0.45366 0.36409 0.0
C535 C 0.36513 0.4558 0.35756 0.0
C536 C 0.37521 0.47065 0.37983 0.0
C537 C 0.43394 0.50324 0.59187 0.0
C538 C 0.44956 0.49563 0.57013 0.0
C539 C 0.4183 0.50756 0.56475 0.0
C540 C 0.41798 0.50412 0.51567 0.0
C541 C 0.43328 0.49593 0.49428 0.0
C542 C 0.44897 0.49186 0.52114 0.0
C543 C 0.40194 0.50945 0.48606 0.0
C544 C 0.39193 0.49519 0.46111 0.0
C545 C 0.39666 0.52844 0.48189 0.0
C546 C 0.40713 0.54421 0.50605 0.0
C547 C 0.42628 0.54746 0.49791 0.0
C548 C 0.43602 0.5624 0.52074 0.0
C549 C 0.42672 0.57427 0.55152 0.0
C550 C 0.40766 0.57125 0.55949 0.0
C551 C 0.39786 0.55632 0.5368 0.0
H552 H 0.43425 0.58586 0.56907 0.0
H553 H 0.33812 0.44216 0.34679 0.0
H554 H 0.03951 0.33689 0.25213 0.0
H555 H 0.03551 0.36495 0.30035 0.0
H556 H 0.09465 0.3688 0.32814 0.0
H557 H 0.09857 0.33984 0.28265 0.0
H558 H 0.07782 0.37207 0.40662 0.0
H559 H 0.07097 0.4022 0.25772 0.0
H560 H 0.05922 0.40699 0.17652 0.0
H561 H 0.00363 0.41104 0.22975 0.0
H562 H 0.015 0.406 0.31124 0.0
H563 H 0.06791 0.45946 0.53105 0.0
H564 H 0.07642 0.43697 0.46955 0.0
H565 H 0.01878 0.41865 0.45396 0.0
H566 H 0.01011 0.441 0.51563 0.0
H567 H 0.03776 0.42536 0.36635 0.0
H568 H 0.04593 0.39212 0.51513 0.0
H569 H 0.05897 0.38843 0.59551 0.0
H570 H 0.1144 0.39211 0.53916 0.0
H571 H 0.10168 0.39607 0.45847 0.0
C572 C 0.05171 0.3437 0.26832 0.0
C573 C 0.06933 0.33588 0.26389 0.0
C574 C 0.04944 0.35999 0.29541 0.0
C575 C 0.06479 0.36917 0.31777 0.0
C576 C 0.08257 0.36199 0.31133 0.0
C577 C 0.08482 0.34551 0.28477 0.0
C578 C 0.06199 0.38513 0.3512 0.0
C579 C 0.0694 0.38392 0.39728 0.0
C580 C 0.05076 0.40052 0.33959 0.0
C581 C 0.04383 0.40358 0.29061 0.0
C582 C 0.05622 0.40397 0.2521 0.0
C583 C 0.04963 0.40676 0.20601 0.0
C584 C 0.03068 0.40928 0.19797 0.0
C585 C 0.0183 0.40907 0.23602 0.0
C586 C 0.02481 0.40628 0.28219 0.0
C587 C 0.05702 0.45067 0.51453 0.0
C588 C 0.03833 0.45197 0.52844 0.0
C589 C 0.06192 0.43783 0.47941 0.0
C590 C 0.04823 0.42614 0.45734 0.0
C591 C 0.02954 0.4276 0.47054 0.0
C592 C 0.02464 0.44029 0.506 0.0
C593 C 0.05339 0.41202 0.42133 0.0
C594 C 0.0464 0.4136 0.37504 0.0
C595 C 0.06523 0.39713 0.43244 0.0
C596 C 0.07286 0.3946 0.48087 0.0
C597 C 0.0609 0.39229 0.51994 0.0
C598 C 0.06823 0.39012 0.56554 0.0
C599 C 0.0875 0.39009 0.57246 0.0
C600 C 0.09948 0.39217 0.53376 0.0
C601 C 0.09222 0.39436 0.48809 0.0
H602 H 0.09315 0.38841 0.60779 0.0
H603 H 0.02561 0.41144 0.16226 0.0
H604 H 0.86902 0.00696 0.10371 0.0
H605 H 0.89697 0.0032 0.0557 0.0
H606 H 0.86273 0.99476 0.93089 0.0
H607 H 0.83489 0.999 0.97793 0.0
H608 H 0.89038 0.96939 0.93525 0.0
H609 H 0.88347 0.03652 0.94972 0.0
H610 H 0.88022 0.0666 0.99269 0.0
H611 H 0.93305 0.05964 0.06098 0.0
H612 H 0.93648 0.02935 0.01888 0.0
H613 H 0.96681 0.01837 0.77782 0.0
H614 H 0.94041 0.01965 0.83174 0.0
H615 H 0.95548 0.96667 0.89421 0.0
H616 H 0.98156 0.96498 0.83928 0.0
H617 H 0.93784 0.02204 0.9237 0.0
H618 H 0.91684 0.94262 0.93278 0.0
H619 H 0.91853 0.91381 0.88374 0.0
H620 H 0.91861 0.94756 0.75727 0.0
H621 H 0.91671 0.97654 0.80554 0.0
C622 C 0.86743 0.00438 0.06602 0.0
C623 C 0.84964 0.00324 0.04482 0.0
C624 C 0.88342 0.00214 0.0387 0.0
C625 C 0.8819 0.99873 0.98973 0.0
C626 C 0.8642 0.99722 0.96868 0.0
C627 C 0.84827 0.99957 0.9958 0.0
C628 C 0.89869 0.99732 0.95978 0.0
C629 C 0.90084 0.98083 0.93295 0.0
C630 C 0.91216 0.01238 0.95625 0.0
C631 C 0.91012 0.03056 0.98162 0.0
C632 C 0.89431 0.04132 0.97424 0.0
C633 C 0.89245 0.05842 0.99837 0.0
C634 C 0.90639 0.06499 0.02967 0.0
C635 C 0.92224 0.0545 0.03681 0.0
C636 C 0.92415 0.03737 0.01282 0.0
C637 C 0.96447 0.00694 0.80288 0.0
C638 C 0.97622 0.99151 0.804 0.0
C639 C 0.94941 0.00773 0.83385 0.0
C640 C 0.94583 0.99319 0.86679 0.0
C641 C 0.95773 0.9779 0.86853 0.0
C642 C 0.97266 0.97697 0.83713 0.0
C643 C 0.92958 0.99407 0.89899 0.0
C644 C 0.92753 0.01047 0.92636 0.0
C645 C 0.91599 0.97908 0.90226 0.0
C646 C 0.91683 0.96174 0.87281 0.0
C647 C 0.91715 0.94387 0.8945 0.0
C648 C 0.91816 0.92752 0.86684 0.0
C649 C 0.91874 0.92886 0.81743 0.0
C650 C 0.91823 0.94655 0.79555 0.0
C651 C 0.91721 0.96294 0.82304 0.0
H652 H 0.91954 0.91618 0.79609 0.0
H653 H 0.90493 0.07825 0.04829 0.0
H654 H 0.58756 0.83441 0.05038 0.0
H655 H 0.58133 0.86056 0.99654 0.0
H656 H 0.52229 0.84833 0.00916 0.0
H657 H 0.52843 0.82198 0.06243 0.0
H658 H 0.53331 0.85136 0.91684 0.0
H659 H 0.54138 0.88733 0.06003 0.0
H660 H 0.55738 0.89819 0.13326 0.0
H661 H 0.60398 0.91933 0.05166 0.0
H662 H 0.58838 0.90834 0.97794 0.0
H663 H 0.50494 0.93233 0.78982 0.0
H664 H 0.50952 0.90795 0.84959 0.0
H665 H 0.56867 0.92103 0.84918 0.0
H666 H 0.56419 0.94569 0.79022 0.0
H667 H 0.55657 0.91785 0.93729 0.0
H668 H 0.54962 0.88088 0.79498 0.0
H669 H 0.5343 0.86965 0.72114 0.0
H670 H 0.48646 0.84997 0.80022 0.0
H671 H 0.5014 0.86132 0.8745 0.0
C672 C 0.57325 0.83742 0.04202 0.0
C673 C 0.55848 0.82615 0.06065 0.0
C674 C 0.5697 0.85242 0.01148 0.0
C675 C 0.55134 0.85642 0.99896 0.0
C676 C 0.53656 0.84549 0.01842 0.0
C677 C 0.54009 0.83056 0.04919 0.0
C678 C 0.54762 0.87128 0.96347 0.0
C679 C 0.53811 0.86598 0.92162 0.0
C680 C 0.55435 0.89021 0.96921 0.0
C681 C 0.56378 0.89684 0.01348 0.0
C682 C 0.55511 0.89414 0.05772 0.0
C683 C 0.5641 0.90035 0.09931 0.0
C684 C 0.58171 0.9094 0.09712 0.0
C685 C 0.59035 0.9123 0.05331 0.0
C686 C 0.58143 0.9061 0.0116 0.0
C687 C 0.51895 0.92994 0.80214 0.0
C688 C 0.53419 0.94097 0.78511 0.0
C689 C 0.52155 0.91595 0.83628 0.0
C690 C 0.53947 0.91255 0.85366 0.0
C691 C 0.55472 0.92343 0.83641 0.0
C692 C 0.55212 0.93747 0.8025 0.0
C693 C 0.54232 0.89792 0.89047 0.0
C694 C 0.55168 0.90326 0.93255 0.0
C695 C 0.53555 0.87898 0.88484 0.0
C696 C 0.52655 0.87213 0.84023 0.0
C697 C 0.53577 0.8743 0.79658 0.0
C698 C 0.52717 0.86788 0.75465 0.0
C699 C 0.5094 0.85915 0.75597 0.0
C700 C 0.50021 0.85677 0.79924 0.0
C701 C 0.50874 0.86317 0.84127 0.0
H702 H 0.50276 0.85419 0.72348 0.0
H703 H 0.58864 0.9142 0.12937 0.0
H704 H 0.69593 0.51853 0.00254 0.0
H705 H 0.66829 0.51726 0.95136 0.0
H706 H 0.65838 0.45842 0.98683 0.0
H707 H 0.68611 0.45958 0.03783 0.0
H708 H 0.65849 0.46486 0.8905 0.0
H709 H 0.63017 0.49042 0.02851 0.0
H710 H 0.62617 0.51254 0.09499 0.0
H711 H 0.6207 0.5584 0.99691 0.0
H712 H 0.62504 0.53662 0.92982 0.0
H713 H 0.57101 0.45482 0.7708 0.0
H714 H 0.59672 0.45494 0.82784 0.0
H715 H 0.60511 0.51526 0.80996 0.0
H716 H 0.57911 0.51534 0.75397 0.0
H717 H 0.60506 0.507 0.90019 0.0
H718 H 0.63539 0.48276 0.76288 0.0
H719 H 0.63957 0.46127 0.69511 0.0
H720 H 0.64179 0.41399 0.79005 0.0
H721 H 0.63738 0.43517 0.85837 0.0
C722 C 0.68773 0.50539 -0.00019 0.0
C723 C 0.69317 0.48914 0.0241 0.0
C724 C 0.6719 0.50471 0.97079 0.0
C725 C 0.66127 0.48776 0.96542 0.0
C726 C 0.66639 0.47165 0.99059 0.0
C727 C 0.68213 0.47236 0.01995 0.0
C728 C 0.64559 0.48656 0.93111 0.0
C729 C 0.64664 0.47385 0.89299 0.0
C730 C 0.63044 0.49869 0.93373 0.0
C731 C 0.62814 0.51189 0.97411 0.0
C732 C 0.62835 0.50525 0.0211 0.0
C733 C 0.62598 0.51774 0.05891 0.0
C734 C 0.62325 0.53688 0.05019 0.0
C735 C 0.62287 0.54358 0.00362 0.0
C736 C 0.62528 0.53117 0.96569 0.0
C737 C 0.57848 0.46808 0.77854 0.0
C738 C 0.57299 0.48508 0.75785 0.0
C739 C 0.5932 0.46812 0.81114 0.0
C740 C 0.60293 0.4851 0.82303 0.0
C741 C 0.59776 0.502 0.80152 0.0
C742 C 0.58294 0.50201 0.76934 0.0
C743 C 0.61804 0.48544 0.85921 0.0
C744 C 0.61689 0.49797 0.8977 0.0
C745 C 0.63319 0.47328 0.85671 0.0
C746 C 0.63586 0.46052 0.81569 0.0
C747 C 0.63662 0.46775 0.76927 0.0
C748 C 0.63906 0.45564 0.73077 0.0
C749 C 0.64089 0.43627 0.73826 0.0
C750 C 0.64034 0.42899 0.78429 0.0
C751 C 0.63789 0.44104 0.82292 0.0
H752 H 0.64278 0.42691 0.7084 0.0
H753 H 0.62137 0.5465 0.0795 0.0
H754 H 0.00702 0.64214 0.11876 0.0
H755 H 0.00787 0.61578 0.06265 0.0
H756 H 0.96148 0.63798 0.9859 0.0
H757 H 0.96044 0.6643 0.04233 0.0
H758 H 0.95998 0.59897 0.98653 0.0
H759 H 0.00474 0.64917 0.95091 0.0
H760 H 0.0306 0.67204 0.96894 0.0
H761 H 0.06622 0.62637 0.0012 0.0
H762 H 0.04046 0.60322 0.98408 0.0
H763 H 0.98265 0.56103 0.75638 0.0
H764 H 0.97579 0.58221 0.82256 0.0
H765 H 0.01751 0.55607 0.90799 0.0
H766 H 0.02423 0.53469 0.84265 0.0
H767 H 0.02055 0.59647 0.90329 0.0
H768 H 0.97583 0.54615 0.93602 0.0
H769 H 0.94982 0.52345 0.91811 0.0
H770 H 0.91411 0.5694 0.88944 0.0
H771 H 0.94 0.59239 0.90653 0.0
C772 C 0.99681 0.64122 0.09036 0.0
C773 C 0.98381 0.65539 0.08455 0.0
C774 C 0.99729 0.62617 0.05837 0.0
C775 C 0.98498 0.62514 0.01954 0.0
C776 C 0.97114 0.63853 0.01553 0.0
C777 C 0.97055 0.65354 0.04782 0.0
C778 C 0.98778 0.61129 0.98085 0.0
C779 C 0.97314 0.59853 0.96797 0.0
C780 C 0.00504 0.6106 0.95698 0.0
C781 C 0.02062 0.62447 0.96666 0.0
C782 C 0.01805 0.64401 0.96215 0.0
C783 C 0.03269 0.65702 0.97218 0.0
C784 C 0.05003 0.65066 0.98632 0.0
C785 C 0.05277 0.63127 0.99031 0.0
C786 C 0.03816 0.6182 0.98043 0.0
C787 C 0.99031 0.55977 0.78931 0.0
C788 C 0.00401 0.54622 0.79424 0.0
C789 C 0.9863 0.57178 0.82712 0.0
C790 C 0.99609 0.57059 0.87014 0.0
C791 C 0.00977 0.55713 0.8751 0.0
C792 C 0.01357 0.54493 0.83771 0.0
C793 C 0.99284 0.58406 0.9092 0.0
C794 C 0.00739 0.59685 0.92193 0.0
C795 C 0.97551 0.58479 0.9326 0.0
C796 C 0.95993 0.571 0.92198 0.0
C797 C 0.9625 0.55142 0.92538 0.0
C798 C 0.94776 0.5385 0.91552 0.0
C799 C 0.93034 0.54498 0.90249 0.0
C800 C 0.92762 0.5644 0.89944 0.0
C801 C 0.94232 0.57739 0.90925 0.0
H802 H 0.91895 0.53495 0.89485 0.0
H803 H 0.06135 0.66076 0.99407 0.0
H804 H 0.02321 0.1688 0.32948 0.0
H805 H 0.01048 0.14209 0.3756 0.0
H806 H 0.06426 0.13539 0.44077 0.0
H807 H 0.07695 0.16245 0.39583 0.0
H808 H 0.0198 0.10567 0.37513 0.0
H809 H 0.0584 0.12006 0.55342 0.0
H810 H 0.07035 0.14727 0.60092 0.0
H811 H 0.03009 0.18262 0.53658 0.0
H812 H 0.01772 0.15558 0.48922 0.0
H813 H 0.02984 0.02448 0.51699 0.0
H814 H 0.03111 0.0525 0.46715 0.0
H815 H 0.99629 0.08122 0.56617 0.0
H816 H 0.99551 0.05334 0.61734 0.0
H817 H 0.02587 0.10191 0.55013 0.0
H818 H 0.98146 0.06951 0.44936 0.0
H819 H 0.96818 0.04275 0.40243 0.0
H820 H 0.01644 0.04448 0.3131 0.0
H821 H 0.03012 0.0711 0.35984 0.0
C822 C 0.03225 0.16184 0.35423 0.0
C823 C 0.05107 0.16779 0.35924 0.0
C824 C 0.02499 0.14648 0.38019 0.0
C825 C 0.03638 0.13687 0.41182 0.0
C826 C 0.05517 0.14278 0.41696 0.0
C827 C 0.06244 0.15813 0.391 0.0
C828 C 0.02878 0.12037 0.43871 0.0
C829 C 0.02099 0.10486 0.41344 0.0
C830 C 0.03005 0.11949 0.48869 0.0
C831 C 0.03724 0.13581 0.51749 0.0
C832 C 0.05204 0.13362 0.54958 0.0
C833 C 0.0589 0.14902 0.57645 0.0
C834 C 0.05102 0.16668 0.57168 0.0
C835 C 0.03623 0.16896 0.54013 0.0
C836 C 0.0293 0.1536 0.51321 0.0
C837 C 0.02198 0.03653 0.5276 0.0
C838 C 0.01268 0.03672 0.57136 0.0
C839 C 0.02269 0.05259 0.49889 0.0
C840 C 0.01377 0.069 0.51281 0.0
C841 C 0.00335 0.06875 0.55483 0.0
C842 C 0.00285 0.05277 0.58393 0.0
C843 C 0.01718 0.08696 0.48656 0.0
C844 C 0.02434 0.10276 0.51191 0.0
C845 C 0.01509 0.08817 0.43673 0.0
C846 C 0.00684 0.07226 0.40824 0.0
C847 C 0.98928 0.06412 0.41985 0.0
C848 C 0.98168 0.04899 0.39326 0.0
C849 C 0.99147 0.04191 0.35483 0.0
C850 C 0.00887 0.04998 0.34285 0.0
C851 C 0.01653 0.06512 0.36932 0.0
H852 H 0.98556 0.03018 0.33432 0.0
H853 H 0.05636 0.17858 0.59248 0.0
H854 H 0.37683 0.02437 0.33004 0.0
H855 H 0.40342 0.01319 0.37487 0.0
H856 H 0.37848 0.95668 0.37551 0.0
H857 H 0.35222 0.96759 0.32904 0.0
H858 H 0.40588 0.99823 0.46016 0.0
H859 H 0.41298 0.92474 0.37177 0.0
H860 H 0.40696 0.90936 0.29429 0.0
H861 H 0.41285 0.96322 0.2247 0.0
H862 H 0.41916 0.97887 0.30163 0.0
H863 H 0.46494 0.95006 0.60338 0.0
H864 H 0.43877 0.94995 0.54816 0.0
H865 H 0.47575 0.96721 0.43499 0.0
H866 H 0.5021 0.96747 0.48988 0.0
H867 H 0.44302 0.94471 0.40497 0.0
H868 H 0.46145 0.00134 0.49229 0.0
H869 H 0.47028 0.01904 0.56497 0.0
H870 H 0.41741 0.0035 0.62703 0.0
H871 H 0.40835 0.98555 0.55475 0.0
C872 C 0.37709 0.00953 0.33933 0.0
C873 C 0.36244 0.99685 0.32583 0.0
C874 C 0.39222 0.00319 0.36526 0.0
C875 C 0.393 0.98407 0.37811 0.0
C876 C 0.37827 0.97144 0.36539 0.0
C877 C 0.36317 0.97775 0.33932 0.0
C878 C 0.40919 0.97742 0.40516 0.0
C879 C 0.41392 0.98649 0.44807 0.0
C880 C 0.41989 0.96228 0.38907 0.0
C881 C 0.41633 0.95299 0.34254 0.0
C882 C 0.41305 0.93329 0.3399 0.0
C883 C 0.40958 0.92452 0.29609 0.0
C884 C 0.40945 0.93531 0.25462 0.0
C885 C 0.41287 0.95488 0.25686 0.0
C886 C 0.41637 0.96371 0.30057 0.0
C887 C 0.46771 0.95305 0.56637 0.0
C888 C 0.48553 0.9594 0.55137 0.0
C889 C 0.45269 0.95299 0.53487 0.0
C890 C 0.45535 0.95906 0.48801 0.0
C891 C 0.47346 0.96264 0.47123 0.0
C892 C 0.48851 0.96281 0.50276 0.0
C893 C 0.43935 0.96533 0.45998 0.0
C894 C 0.43475 0.95628 0.41705 0.0
C895 C 0.42907 0.98087 0.47521 0.0
C896 C 0.43432 0.99192 0.51839 0.0
C897 C 0.45177 0.00157 0.5216 0.0
C898 C 0.4568 0.01168 0.56267 0.0
C899 C 0.44443 0.01234 0.60068 0.0
C900 C 0.42698 0.00296 0.59757 0.0
C901 C 0.42188 0.99285 0.55654 0.0
H902 H 0.44835 0.02013 0.63251 0.0
H903 H 0.40675 0.92851 0.22074 0.0
H904 H 0.45182 0.34516 0.26032 0.0
H905 H 0.46623 0.36884 0.31355 0.0
H906 H 0.46945 0.32698 0.42391 0.0
H907 H 0.45579 0.30294 0.37042 0.0
H908 H 0.45814 0.3659 0.45229 0.0
H909 H 0.50573 0.33254 0.36792 0.0
H910 H 0.51998 0.32024 0.29531 0.0
H911 H 0.52589 0.37665 0.23972 0.0
H912 H 0.51137 0.38925 0.31173 0.0
H913 H 0.52263 0.4137 0.59924 0.0
H914 H 0.51164 0.38763 0.54828 0.0
H915 H 0.51263 0.42501 0.42755 0.0
H916 H 0.52341 0.45129 0.47836 0.0
H917 H 0.52201 0.3876 0.40537 0.0
H918 H 0.47578 0.42184 0.48504 0.0
H919 H 0.46042 0.43607 0.55355 0.0
H920 H 0.44924 0.38091 0.61244 0.0
H921 H 0.46516 0.36631 0.54497 0.0
C922 C 0.45548 0.34097 0.29599 0.0
C923 C 0.45292 0.32206 0.31082 0.0
C924 C 0.46358 0.35455 0.32638 0.0
C925 C 0.46904 0.34951 0.37227 0.0
C926 C 0.46528 0.33105 0.38851 0.0
C927 C 0.45738 0.31738 0.35792 0.0
C928 C 0.48015 0.36308 0.40164 0.0
C929 C 0.47221 0.37044 0.44265 0.0
C930 C 0.49827 0.36932 0.3879 0.0
C931 C 0.50731 0.36181 0.34499 0.0
C932 C 0.50993 0.3423 0.34005 0.0
C933 C 0.51808 0.33528 0.29903 0.0
C934 C 0.52379 0.34765 0.26287 0.0
C935 C 0.52143 0.36708 0.26774 0.0
C936 C 0.51326 0.37417 0.30866 0.0
C937 C 0.52121 0.41626 0.56155 0.0
C938 C 0.52361 0.43462 0.54288 0.0
C939 C 0.51481 0.40135 0.53257 0.0
C940 C 0.51097 0.40457 0.48452 0.0
C941 C 0.51541 0.42234 0.4647 0.0
C942 C 0.52156 0.43732 0.49376 0.0
C943 C 0.50013 0.39029 0.45653 0.0
C944 C 0.50805 0.3829 0.41553 0.0
C945 C 0.48183 0.3843 0.46987 0.0
C946 C 0.4721 0.39299 0.51043 0.0
C947 C 0.47037 0.41273 0.51298 0.0
C948 C 0.46153 0.42087 0.55162 0.0
C949 C 0.45404 0.40939 0.58759 0.0
C950 C 0.45525 0.38976 0.58479 0.0
C951 C 0.46421 0.38155 0.54639 0.0
H952 H 0.44719 0.41571 0.61747 0.0
H953 H 0.53009 0.34219 0.23114 0.0
H954 H 0.18635 0.59826 0.38823 0.0
H955 H 0.16053 0.6047 0.44115 0.0
H956 H 0.12153 0.58269 0.33609 0.0
H957 H 0.14707 0.5775 0.28188 0.0
H958 H 0.10548 0.60871 0.38515 0.0
H959 H 0.14171 0.55394 0.42283 0.0
H960 H 0.17041 0.5378 0.44408 0.0
H961 H 0.17635 0.57186 0.56988 0.0
H962 H 0.14778 0.58836 0.54899 0.0
H963 H 0.04256 0.54384 0.49504 0.0
H964 H 0.0648 0.56405 0.45089 0.0
H965 H 0.08459 0.5893 0.58207 0.0
H966 H 0.06204 0.56919 0.62619 0.0
H967 H 0.11136 0.57098 0.53222 0.0
H968 H 0.06774 0.6179 0.50072 0.0
H969 H 0.03765 0.63063 0.47698 0.0
H970 H 0.04374 0.60785 0.33693 0.0
H971 H 0.07374 0.59472 0.35996 0.0
C972 C 0.17225 0.5954 0.37571 0.0
C973 C 0.16882 0.58687 0.33123 0.0
C974 C 0.15749 0.59895 0.40621 0.0
C975 C 0.13912 0.59365 0.39318 0.0
C976 C 0.13558 0.58673 0.34723 0.0
C977 C 0.15026 0.58349 0.31648 0.0
C978 C 0.12392 0.59275 0.42871 0.0
C979 C 0.10675 0.60054 0.41745 0.0
C980 C 0.12566 0.58245 0.47144 0.0
C981 C 0.1428 0.57255 0.48404 0.0
C982 C 0.14922 0.55806 0.45485 0.0
C983 C 0.16545 0.54885 0.46684 0.0
C984 C 0.17523 0.55385 0.50822 0.0
C985 C 0.16879 0.56805 0.53776 0.0
C986 C 0.15259 0.57734 0.52587 0.0
C987 C 0.05111 0.55431 0.51407 0.0
C988 C 0.05059 0.55523 0.56367 0.0
C989 C 0.06378 0.56588 0.48894 0.0
C990 C 0.07627 0.57827 0.51321 0.0
C991 C 0.07493 0.57998 0.5627 0.0
C992 C 0.06207 0.56858 0.58779 0.0
C993 C 0.09273 0.58635 0.48787 0.0
C994 C 0.11018 0.57978 0.50093 0.0
C995 C 0.09105 0.59736 0.44638 0.0
C996 C 0.07301 0.60526 0.43218 0.0
C997 C 0.06262 0.61548 0.46494 0.0
C998 C 0.04558 0.62279 0.45159 0.0
C999 C 0.03878 0.62003 0.40549 0.0
C1000 C 0.04903 0.60998 0.37262 0.0
C1001 C 0.06608 0.60263 0.38579 0.0
H1002 H 0.02558 0.6257 0.39522 0.0
H1003 H 0.18779 0.5467 0.51746 0.0
H1004 H 0.04251 0.80647 0.99623 0.0
H1005 H 0.05407 0.83408 0.95159 0.0
H1006 H 0.04465 0.86981 0.07261 0.0
H1007 H 0.03253 0.84238 0.11692 0.0
H1008 H 0.0304 0.88436 0.99443 0.0
H1009 H 0.08883 0.86017 0.03891 0.0
H1010 H 0.11249 0.83615 0.0488 0.0
H1011 H 0.1143 0.82822 0.89792 0.0
H1012 H 0.09043 0.852 0.88713 0.0
H1013 H 0.06605 0.96429 0.87296 0.0
H1014 H 0.06865 0.9396 0.93361 0.0
H1015 H 0.06626 0.8968 0.82434 0.0
H1016 H 0.0632 0.92138 0.76405 0.0
H1017 H 0.08985 0.88823 0.9054 0.0
H1018 H 0.0278 0.90811 0.86382 0.0
H1019 H 0.00385 0.93182 0.85312 0.0
H1020 H 0.00892 0.94741 -1e-05 0.0
H1021 H 0.03319 0.92404 0.01129 0.0
C1022 C 0.04292 0.8202 0.01333 0.0
C1023 C 0.03659 0.82223 0.0601 0.0
C1024 C 0.04973 0.83594 0.98798 0.0
C1025 C 0.05043 0.85398 0.00898 0.0
C1026 C 0.04435 0.85601 0.05584 0.0
C1027 C 0.03754 0.84029 0.0812 0.0
C1028 C 0.05625 0.87089 0.98088 0.0
C1029 C 0.0436 0.88539 0.97593 0.0
C1030 C 0.07333 0.87208 0.956 0.0
C1031 C 0.08773 0.85778 0.96225 0.0
C1032 C 0.09416 0.8532 0.00785 0.0
C1033 C 0.10763 0.83965 0.01361 0.0
C1034 C 0.11487 0.83064 0.97402 0.0
C1035 C 0.10867 0.8352 0.92856 0.0
C1036 C 0.09519 0.84874 0.9226 0.0
C1037 C 0.06692 0.94967 0.86197 0.0
C1038 C 0.06457 0.9446 0.81416 0.0
C1039 C 0.06831 0.93561 0.8965 0.0
C1040 C 0.06752 0.91642 0.88331 0.0
C1041 C 0.067 0.91153 0.83511 0.0
C1042 C 0.06527 0.92553 0.80077 0.0
C1043 C 0.06397 0.90148 0.91907 0.0
C1044 C 0.0769 0.88733 0.92502 0.0
C1045 C 0.04714 0.90054 0.94495 0.0
C1046 C 0.0325 0.91454 0.93823 0.0
C1047 C 0.02396 0.91675 0.8937 0.0
C1048 C 0.0103 0.93009 0.88754 0.0
C1049 C 0.00491 0.94116 0.92582 0.0
C1050 C 0.01315 0.93887 0.97034 0.0
C1051 C 0.02686 0.92559 0.97663 0.0
H1052 H 0.99431 0.95146 0.92103 0.0
H1053 H 0.1253 0.82015 0.97856 0.0
H1054 H 0.69502 0.08697 0.99261 0.0
H1055 H 0.66695 0.09255 0.9455 0.0
H1056 H 0.65889 0.03239 0.92325 0.0
H1057 H 0.68665 0.02677 0.96996 0.0
H1058 H 0.65231 0.05076 0.84359 0.0
H1059 H 0.63558 0.05622 0.01021 0.0
H1060 H 0.63802 0.07037 0.09014 0.0
H1061 H 0.62469 0.1245 0.03313 0.0
H1062 H 0.62239 0.11068 0.95273 0.0
H1063 H 0.56409 0.01644 0.83962 0.0
H1064 H 0.58955 0.03186 0.88413 0.0
H1065 H 0.58426 0.08248 0.80099 0.0
H1066 H 0.55844 0.067 0.75596 0.0
H1067 H 0.59829 0.079 0.92234 0.0
H1068 H 0.61204 0.06925 0.75169 0.0
H1069 H 0.60499 0.05018 0.68001 0.0
H1070 H 0.62236 0.00028 0.7516 0.0
H1071 H 0.62894 0.01898 0.82424 0.0
C1072 C 0.68727 0.07497 0.97748 0.0
C1073 C 0.69309 0.05643 0.98492 0.0
C1074 C 0.67128 0.07818 0.95053 0.0
C1075 C 0.6608 0.06288 0.93099 0.0
C1076 C 0.66685 0.04444 0.93757 0.0
C1077 C 0.68278 0.04124 0.96423 0.0
C1078 C 0.643 0.06558 0.90549 0.0
C1079 C 0.64066 0.05735 0.86043 0.0
C1080 C 0.62773 0.07424 0.92723 0.0
C1081 C 0.62907 0.0825 0.97547 0.0
C1082 C 0.63332 0.07117 0.01471 0.0
C1083 C 0.63465 0.07912 0.06008 0.0
C1084 C 0.63158 0.09834 0.06669 0.0
C1085 C 0.62711 0.10963 0.02794 0.0
C1086 C 0.62579 0.10175 0.98248 0.0
C1087 C 0.56786 0.0311 0.83199 0.0
C1088 C 0.55957 0.04047 0.79398 0.0
C1089 C 0.5823 0.03993 0.85767 0.0
C1090 C 0.58881 0.05819 0.84547 0.0
C1091 C 0.57928 0.0684 0.81096 0.0
C1092 C 0.56461 0.05955 0.78527 0.0
C1093 C 0.60778 0.06412 0.86102 0.0
C1094 C 0.61029 0.07355 0.90441 0.0
C1095 C 0.62323 0.05643 0.83809 0.0
C1096 C 0.62086 0.04549 0.79338 0.0
C1097 C 0.6143 0.05421 0.75214 0.0
C1098 C 0.61027 0.04345 0.71149 0.0
C1099 C 0.61308 0.02401 0.71141 0.0
C1100 C 0.62009 0.01532 0.75184 0.0
C1101 C 0.62397 0.02599 0.79276 0.0
H1102 H 0.61001 0.01575 0.67985 0.0
H1103 H 0.63261 0.10447 0.10184 0.0
H1104 H 0.53428 0.63841 0.08114 0.0
H1105 H 0.51982 0.61107 0.04007 0.0
H1106 H 0.51936 0.64293 0.90966 0.0
H1107 H 0.53362 0.67038 0.95074 0.0
H1108 H 0.48722 0.62392 0.92066 0.0
H1109 H 0.55214 0.60977 0.93275 0.0
H1110 H 0.58202 0.60432 0.97287 0.0
H1111 H 0.55631 0.55881 0.0527 0.0
H1112 H 0.52619 0.56417 0.01348 0.0
H1113 H 0.49648 0.55888 0.7355 0.0
H1114 H 0.49639 0.58331 0.79662 0.0
H1115 H 0.48506 0.54061 0.90293 0.0
H1116 H 0.48482 0.51598 0.84106 0.0
H1117 H 0.5179 0.56231 0.91775 0.0
H1118 H 0.45409 0.57359 0.88899 0.0
H1119 H 0.42604 0.57877 0.8408 0.0
H1120 H 0.4515 0.62979 0.78432 0.0
H1121 H 0.47982 0.6248 0.83163 0.0
C1122 C 0.53124 0.63951 0.04361 0.0
C1123 C 0.53517 0.65647 0.01901 0.0
C1124 C 0.52293 0.62391 0.02025 0.0
C1125 C 0.51863 0.62492 0.97174 0.0
C1126 C 0.52247 0.64188 0.94718 0.0
C1127 C 0.53064 0.65752 0.9706 0.0
C1128 C 0.51037 0.60828 0.94614 0.0
C1129 C 0.49394 0.61045 0.9199 0.0
C1130 C 0.51884 0.59054 0.94639 0.0
C1131 C 0.53685 0.58755 0.9707 0.0
C1132 C 0.5528 0.59875 0.95926 0.0
C1133 C 0.5698 0.59564 0.98174 0.0
C1134 C 0.57105 0.58127 0.01543 0.0
C1135 C 0.55531 0.56997 0.02669 0.0
C1136 C 0.53827 0.57304 0.00436 0.0
C1137 C 0.49328 0.55481 0.77168 0.0
C1138 C 0.49063 0.53567 0.78385 0.0
C1139 C 0.49317 0.56875 0.80654 0.0
C1140 C 0.49066 0.56376 0.85425 0.0
C1141 C 0.48688 0.54471 0.8662 0.0
C1142 C 0.48665 0.53071 0.83098 0.0
C1143 C 0.49506 0.57812 0.89121 0.0
C1144 C 0.51084 0.57559 0.9196 0.0
C1145 C 0.4862 0.59561 0.89219 0.0
C1146 C 0.46913 0.59877 0.86383 0.0
C1147 C 0.45376 0.58586 0.86608 0.0
C1148 C 0.4378 0.58877 0.83894 0.0
C1149 C 0.43699 0.60459 0.8095 0.0
C1150 C 0.45214 0.61755 0.80719 0.0
C1151 C 0.46814 0.61471 0.83424 0.0
H1152 H 0.42462 0.60681 0.7885 0.0
H1153 H 0.58423 0.57885 0.03269 0.0
H1154 H 0.87645 0.44996 0.05261 0.0
H1155 H 0.9044 0.44456 0.00643 0.0
H1156 H 0.8709 0.43712 0.87996 0.0
H1157 H 0.84273 0.44204 0.92625 0.0
H1158 H 0.89963 0.41223 0.88331 0.0
H1159 H 0.89106 0.47878 0.90163 0.0
H1160 H 0.88663 0.50881 0.94387 0.0
H1161 H 0.93841 0.50277 0.0179 0.0
H1162 H 0.943 0.47251 0.97664 0.0
H1163 H 0.96313 0.44504 0.70433 0.0
H1164 H 0.93847 0.43487 0.75875 0.0
H1165 H 0.97576 0.4446 0.8774 0.0
H1166 H 0.00043 0.4551 0.8233 0.0
H1167 H 0.94617 0.4659 0.88253 0.0
H1168 H 0.95611 0.40043 0.85439 0.0
H1169 H 0.9604 0.37178 0.80636 0.0
H1170 H 0.90606 0.37697 0.74492 0.0
H1171 H 0.90153 0.40582 0.79208 0.0
C1172 C 0.87496 0.44674 0.01519 0.0
C1173 C 0.85738 0.44654 0.993 0.0
C1174 C 0.89096 0.44379 0.9888 0.0
C1175 C 0.88972 0.44066 0.93973 0.0
C1176 C 0.87214 0.43955 0.91781 0.0
C1177 C 0.8561 0.44253 0.94419 0.0
C1178 C 0.90682 0.44001 0.91082 0.0
C1179 C 0.90981 0.42397 0.88285 0.0
C1180 C 0.92018 0.45524 0.91089 0.0
C1181 C 0.91723 0.47322 0.93658 0.0
C1182 C 0.90138 0.48371 0.92739 0.0
C1183 C 0.89886 0.5008 0.95107 0.0
C1184 C 0.91218 0.50764 0.98374 0.0
C1185 C 0.92806 0.49741 0.99276 0.0
C1186 C 0.93063 0.48029 0.96924 0.0
C1187 C 0.96632 0.44438 0.74185 0.0
C1188 C 0.98363 0.45126 0.75956 0.0
C1189 C 0.95218 0.43848 0.77298 0.0
C1190 C 0.95523 0.43914 0.82218 0.0
C1191 C 0.97309 0.44412 0.83956 0.0
C1192 C 0.98718 0.45011 0.80854 0.0
C1193 C 0.93922 0.43803 0.85513 0.0
C1194 C 0.93628 0.45392 0.88361 0.0
C1195 C 0.92589 0.42276 0.85495 0.0
C1196 C 0.92854 0.40539 0.82657 0.0
C1197 C 0.94513 0.39556 0.83036 0.0
C1198 C 0.94759 0.37926 0.80334 0.0
C1199 C 0.93353 0.37258 0.77254 0.0
C1200 C 0.91695 0.38217 0.76878 0.0
C1201 C 0.91442 0.39848 0.79571 0.0
H1202 H 0.93546 0.35996 0.75165 0.0
H1203 H 0.91025 0.52092 0.00187 0.0
H1204 H 0.12272 0.18182 0.97991 0.0
H1205 H 0.1178 0.15323 0.93167 0.0
H1206 H 0.0585 0.16045 0.93462 0.0
H1207 H 0.06319 0.18846 0.98411 0.0
H1208 H 0.06672 0.12575 0.96182 0.0
H1209 H 0.08417 0.16726 0.83288 0.0
H1210 H 0.10445 0.19032 0.79003 0.0
H1211 H 0.14809 0.15056 0.78719 0.0
H1212 H 0.12815 0.12734 0.83062 0.0
H1213 H 0.03158 0.06079 0.79342 0.0
H1214 H 0.04176 0.08966 0.83468 0.0
H1215 H 0.0986 0.07231 0.83103 0.0
H1216 H 0.08852 0.04315 0.78924 0.0
H1217 H 0.09472 0.11063 0.8065 0.0
H1218 H 0.07662 0.06858 0.93176 0.0
H1219 H 0.05618 0.04544 0.97385 0.0
H1220 H 0.01378 0.08638 0.98377 0.0
H1221 H 0.03387 0.10969 0.94109 0.0
C1222 C 0.10864 0.17744 0.96981 0.0
C1223 C 0.09336 0.18745 0.98614 0.0
C1224 C 0.10587 0.16115 0.94195 0.0
C1225 C 0.08777 0.15466 0.92961 0.0
C1226 C 0.07259 0.16516 0.94382 0.0
C1227 C 0.07533 0.18136 0.9717 0.0
C1228 C 0.08439 0.13617 0.90532 0.0
C1229 C 0.07268 0.12256 0.92758 0.0
C1230 C 0.09273 0.1317 0.86153 0.0
C1231 C 0.10474 0.14565 0.83548 0.0
C1232 C 0.09815 0.1635 0.82351 0.0
C1233 C 0.10957 0.17658 0.79903 0.0
C1234 C 0.12757 0.17193 0.78602 0.0
C1235 C 0.13416 0.15416 0.79736 0.0
C1236 C 0.1228 0.14102 0.82188 0.0
C1237 C 0.04627 0.06302 0.80132 0.0
C1238 C 0.05922 0.04957 0.78814 0.0
C1239 C 0.05205 0.07955 0.82503 0.0
C1240 C 0.07091 0.08305 0.83625 0.0
C1241 C 0.08398 0.06984 0.82272 0.0
C1242 C 0.07817 0.05316 0.79911 0.0
C1243 C 0.07668 0.10052 0.86252 0.0
C1244 C 0.08888 0.11384 0.84086 0.0
C1245 C 0.06881 0.10479 0.90696 0.0
C1246 C 0.0567 0.09084 0.93288 0.0
C1247 C 0.06288 0.0726 0.94259 0.0
C1248 C 0.05137 0.05947 0.96661 0.0
C1249 C 0.03368 0.06443 0.98139 0.0
C1250 C 0.02748 0.08256 0.97227 0.0
C1251 C 0.03894 0.09575 0.94821 0.0
H1252 H 0.02478 0.05423 -1e-05 0.0
H1253 H 0.13639 0.18208 0.76706 0.0
H1254 H 0.31606 0.99872 0.91348 0.0
H1255 H 0.3425 0.99812 0.85932 0.0
H1256 H 0.36167 0.0532 0.90901 0.0
H1257 H 0.33561 0.05374 0.9642 0.0
H1258 H 0.3682 0.04555 0.80717 0.0
H1259 H 0.37797 0.0194 0.96414 0.0
H1260 H 0.36932 0.99853 0.03112 0.0
H1261 H 0.3723 0.94985 0.94061 0.0
H1262 H 0.38063 0.9705 0.87283 0.0
H1263 H 0.46591 0.04038 0.76529 0.0
H1264 H 0.43511 0.0451 0.79912 0.0
H1265 H 0.42018 0.98612 0.7759 0.0
H1266 H 0.45089 0.98119 0.74303 0.0
H1267 H 0.41062 0.99617 0.86163 0.0
H1268 H 0.40296 0.021 0.70578 0.0
H1269 H 0.41076 0.04111 0.63677 0.0
H1270 H 0.40326 0.09095 0.72062 0.0
H1271 H 0.39569 0.07114 0.7904 0.0
C1272 C 0.32568 0.01088 0.91225 0.0
C1273 C 0.32388 0.02612 0.94386 0.0
C1274 C 0.34071 0.01057 0.88105 0.0
C1275 C 0.35414 0.02551 0.88069 0.0
C1276 C 0.35142 0.04155 0.90872 0.0
C1277 C 0.33645 0.04183 0.94021 0.0
C1278 C 0.37228 0.02309 0.85711 0.0
C1279 C 0.37759 0.03489 0.81916 0.0
C1280 C 0.38433 0.00895 0.8724 0.0
C1281 C 0.37972 0.9965 0.91334 0.0
C1282 C 0.37665 0.00426 0.95845 0.0
C1283 C 0.37181 0.99247 0.99656 0.0
C1284 C 0.37022 0.97288 0.9901 0.0
C1285 C 0.37351 0.96503 0.94554 0.0
C1286 C 0.37829 0.97677 0.90727 0.0
C1287 C 0.45607 0.02841 0.7674 0.0
C1288 C 0.46095 0.01038 0.7517 0.0
C1289 C 0.43842 0.03116 0.78645 0.0
C1290 C 0.42526 0.01599 0.78969 0.0
C1291 C 0.4301 0.99803 0.77386 0.0
C1292 C 0.44771 0.99525 0.75509 0.0
C1293 C 0.40668 0.01856 0.81117 0.0
C1294 C 0.40129 0.00681 0.84915 0.0
C1295 C 0.39456 0.03262 0.79548 0.0
C1296 C 0.39893 0.04458 0.75347 0.0
C1297 C 0.40311 0.03625 0.70963 0.0
C1298 C 0.40748 0.04759 0.67035 0.0
C1299 C 0.40755 0.06729 0.67435 0.0
C1300 C 0.40321 0.07569 0.7176 0.0
C1301 C 0.39887 0.06441 0.75702 0.0
H1302 H 0.41093 0.07605 0.6439 0.0
H1303 H 0.36647 0.96377 0.01964 0.0
H1304 H 0.48066 0.29604 0.96913 0.0
H1305 H 0.48577 0.32493 0.92326 0.0
H1306 H 0.43529 0.31252 0.8441 0.0
H1307 H 0.43008 0.28326 0.88986 0.0
H1308 H 0.46708 0.32871 0.78901 0.0
H1309 H 0.43098 0.34056 0.92871 0.0
H1310 H 0.42419 0.33869 0.01423 0.0
H1311 H 0.47559 0.36928 0.04556 0.0
H1312 H 0.48284 0.37104 0.9602 0.0
H1313 H 0.45957 0.42639 0.71604 0.0
H1314 H 0.45056 0.39549 0.75101 0.0
H1315 H 0.49963 0.3987 0.83978 0.0
H1316 H 0.50897 0.4291 0.80388 0.0
H1317 H 0.46533 0.38698 0.88713 0.0
H1318 H 0.5026 0.37449 0.75171 0.0
H1319 H 0.51201 0.37493 0.66786 0.0
H1320 H 0.46133 0.34449 0.62928 0.0
H1321 H 0.45124 0.34448 0.71281 0.0
C1322 C 0.47091 0.29906 0.94099 0.0
C1323 C 0.45494 0.2873 0.93319 0.0
C1324 C 0.47379 0.31571 0.91508 0.0
C1325 C 0.46079 0.32095 0.88075 0.0
C1326 C 0.44545 0.30871 0.87058 0.0
C1327 C 0.44247 0.29206 0.89684 0.0
C1328 C 0.46256 0.33997 0.85876 0.0
C1329 C 0.4663 0.3415 0.81011 0.0
C1330 C 0.46198 0.35657 0.88674 0.0
C1331 C 0.45752 0.35579 0.93806 0.0
C1332 C 0.4409 0.34676 0.95384 0.0
C1333 C 0.43696 0.34574 0.00229 0.0
C1334 C 0.44947 0.35383 0.03532 0.0
C1335 C 0.46592 0.363 0.01994 0.0
C1336 C 0.46994 0.36404 0.97152 0.0
C1337 C 0.46821 0.4206 0.74361 0.0
C1338 C 0.48488 0.43009 0.7576 0.0
C1339 C 0.46315 0.40294 0.76322 0.0
C1340 C 0.4745 0.39483 0.79778 0.0
C1341 C 0.49071 0.40474 0.81317 0.0
C1342 C 0.496 0.42207 0.79273 0.0
C1343 C 0.46991 0.37579 0.8173 0.0
C1344 C 0.46572 0.37425 0.86567 0.0
C1345 C 0.47028 0.35922 0.78907 0.0
C1346 C 0.47598 0.35982 0.73852 0.0
C1347 C 0.49325 0.36824 0.72529 0.0
C1348 C 0.49875 0.36836 0.67781 0.0
C1349 C 0.48726 0.35978 0.64326 0.0
C1350 C 0.4702 0.35115 0.6561 0.0
C1351 C 0.46454 0.35118 0.70348 0.0
H1352 H 0.49163 0.35976 0.60658 0.0
H1353 H 0.4464 0.35301 0.07282 0.0
H1354 H 0.21285 0.53937 0.95022 0.0
H1355 H 0.1904 0.53314 0.88619 0.0
H1356 H 0.18449 0.47477 0.92942 0.0
H1357 H 0.20722 0.48082 0.99318 0.0
H1358 H 0.18032 0.47994 0.82939 0.0
H1359 H 0.15717 0.50346 0.97836 0.0
H1360 H 0.15685 0.52597 0.04522 0.0
H1361 H 0.14548 0.57116 0.94904 0.0
H1362 H 0.14607 0.54894 0.88148 0.0
H1363 H 0.07199 0.485 0.81042 0.0
H1364 H 0.10157 0.48598 0.85313 0.0
H1365 H 0.13067 0.49953 0.7234 0.0
H1366 H 0.10105 0.49841 0.68001 0.0
H1367 H 0.12427 0.51633 0.86417 0.0
H1368 H 0.17565 0.48284 0.73441 0.0
H1369 H 0.1755 0.45859 0.67137 0.0
H1370 H 0.12824 0.42989 0.73535 0.0
H1371 H 0.12828 0.4538 0.79909 0.0
C1372 C 0.20735 0.52504 0.94498 0.0
C1373 C 0.2116 0.51063 0.97712 0.0
C1374 C 0.19446 0.52152 0.90848 0.0
C1375 C 0.1856 0.50357 0.9036 0.0
C1376 C 0.19116 0.48872 0.93267 0.0
C1377 C 0.20402 0.49224 0.96929 0.0
C1378 C 0.16859 0.50109 0.87402 0.0
C1379 C 0.16809 0.48798 0.8366 0.0
C1380 C 0.15253 0.51129 0.88425 0.0
C1381 C 0.15187 0.5246 0.92486 0.0
C1382 C 0.15474 0.51823 0.97145 0.0
C1383 C 0.15449 0.53092 0.00947 0.0
C1384 C 0.15119 0.54999 0.00137 0.0
C1385 C 0.14807 0.55639 0.95524 0.0
C1386 C 0.14836 0.54375 0.91708 0.0
C1387 C 0.08467 0.48798 0.79071 0.0
C1388 C 0.0841 0.49175 0.74177 0.0
C1389 C 0.10158 0.48856 0.81526 0.0
C1390 C 0.11832 0.49285 0.79151 0.0
C1391 C 0.11793 0.49602 0.74238 0.0
C1392 C 0.10097 0.49542 0.71767 0.0
C1393 C 0.13591 0.49523 0.81902 0.0
C1394 C 0.13652 0.50839 0.85633 0.0
C1395 C 0.15189 0.48484 0.80902 0.0
C1396 C 0.15185 0.47025 0.7712 0.0
C1397 C 0.16527 0.47132 0.73509 0.0
C1398 C 0.1652 0.45764 0.69923 0.0
C1399 C 0.15183 0.44275 0.69926 0.0
C1400 C 0.13854 0.44147 0.73525 0.0
C1401 C 0.13856 0.45511 0.77121 0.0
H1402 H 0.15179 0.43218 0.67145 0.0
H1403 H 0.151 0.5598 0.03085 0.0
H1404 H 0.00907 0.79855 0.39268 0.0
H1405 H 0.01248 0.82553 0.44588 0.0
H1406 H 0.95531 0.81684 0.49001 0.0
H1407 H 0.95162 0.79023 0.43408 0.0
H1408 H 0.96083 0.85176 0.47716 0.0
H1409 H 0.99484 0.80801 0.56537 0.0
H1410 H 0.01736 0.78335 0.58129 0.0
H1411 H 0.06237 0.82147 0.54019 0.0
H1412 H 0.0401 0.84629 0.52337 0.0
H1413 H 0.98753 0.92162 0.66426 0.0
H1414 H 0.9783 0.89121 0.62718 0.0
H1415 H 0.01671 0.90284 0.51305 0.0
H1416 H 0.02567 0.9334 0.54895 0.0
H1417 H 0.01756 0.86472 0.57473 0.0
H1418 H 0.97966 0.90657 0.47717 0.0
H1419 H 0.95571 0.9304 0.46868 0.0
H1420 H 0.9161 0.89362 0.54034 0.0
H1421 H 0.93994 0.86968 0.54985 0.0
C1422 C 0.99735 0.80212 0.41452 0.0
C1423 C 0.98016 0.79214 0.40987 0.0
C1424 C 0.99931 0.81755 0.44516 0.0
C1425 C 0.9843 0.82306 0.47306 0.0
C1426 C 0.96715 0.81284 0.46915 0.0
C1427 C 0.96506 0.7976 0.43748 0.0
C1428 C 0.98634 0.8403 0.5034 0.0
C1429 C 0.97308 0.85433 0.49924 0.0
C1430 C 0.00225 0.84385 0.53256 0.0
C1431 C 0.01576 0.82899 0.54287 0.0
C1432 C 0.00953 0.8111 0.55946 0.0
C1433 C 0.02225 0.7971 0.56868 0.0
C1434 C 0.04128 0.80083 0.5617 0.0
C1435 C 0.04762 0.8186 0.54559 0.0
C1436 C 0.03496 0.83266 0.53629 0.0
C1437 C 0.99384 0.91779 0.63096 0.0
C1438 C 0.00732 0.92991 0.60948 0.0
C1439 C 0.98855 0.90045 0.60991 0.0
C1440 C 0.99688 0.89487 0.56757 0.0
C1441 C 0.01015 0.90699 0.54576 0.0
C1442 C 0.01517 0.92446 0.56621 0.0
C1443 C 0.99245 0.87604 0.5468 0.0
C1444 C 0.00524 0.8618 0.55313 0.0
C1445 C 0.97593 0.87212 0.52079 0.0
C1446 C 0.96163 0.88647 0.51478 0.0
C1447 C 0.96591 0.90366 0.49157 0.0
C1448 C 0.95234 0.91716 0.48645 0.0
C1449 C 0.93441 0.91356 0.50411 0.0
C1450 C 0.93 0.89641 0.52677 0.0
C1451 C 0.94353 0.88287 0.53201 0.0
H1452 H 0.92392 0.92403 0.50011 0.0
H1453 H 0.05111 0.78996 0.56884 0.0
H1454 H 0.71829 0.97941 0.35548 0.0
H1455 H 0.69441 0.97171 0.414 0.0
H1456 H 0.69574 0.02994 0.46015 0.0
H1457 H 0.72084 0.03742 0.40484 0.0
H1458 H 0.68725 0.00962 0.53162 0.0
H1459 H 0.66489 0.01137 0.3702 0.0
H1460 H 0.66347 0.00197 0.28593 0.0
H1461 H 0.64895 0.94472 0.32589 0.0
H1462 H 0.65051 0.95377 0.41047 0.0
H1463 H 0.57876 0.00475 0.52499 0.0
H1464 H 0.60905 0.00584 0.48671 0.0
H1465 H 0.63334 0.97994 0.60967 0.0
H1466 H 0.60299 0.97937 0.64899 0.0
H1467 H 0.63022 0.98053 0.45784 0.0
H1468 H 0.6767 0.99178 0.62152 0.0
H1469 H 0.67714 0.00806 0.69917 0.0
H1470 H 0.6409 0.0497 0.6441 0.0
H1471 H 0.63983 0.03335 0.56672 0.0
C1472 C 0.71406 0.99049 0.37916 0.0
C1473 C 0.7213 0.00919 0.37444 0.0
C1474 C 0.70014 0.98608 0.41228 0.0
C1475 C 0.69276 0.00036 0.44042 0.0
C1476 C 0.70098 0.01868 0.43848 0.0
C1477 C 0.7152 0.02301 0.4062 0.0
C1478 C 0.67543 0.99682 0.46832 0.0
C1479 C 0.67484 0.00307 0.51558 0.0
C1480 C 0.65904 0.98865 0.44735 0.0
C1481 C 0.65804 0.98319 0.39659 0.0
C1482 C 0.66151 0.99676 0.36098 0.0
C1483 C 0.66067 0.9915 0.31319 0.0
C1484 C 0.65618 0.97275 0.30057 0.0
C1485 C 0.65247 0.95923 0.33573 0.0
C1486 C 0.65333 0.96441 0.38359 0.0
C1487 C 0.59051 0.99922 0.54396 0.0
C1488 C 0.58844 0.99197 0.59008 0.0
C1489 C 0.60787 0.99986 0.52197 0.0
C1490 C 0.62359 0.9931 0.5453 0.0
C1491 C 0.62154 0.98558 0.59119 0.0
C1492 C 0.60414 0.98512 0.6135 0.0
C1493 C 0.6419 0.99375 0.52076 0.0
C1494 C 0.6427 0.98678 0.47419 0.0
C1495 C 0.65823 0.00201 0.54164 0.0
C1496 C 0.65806 0.01127 0.58868 0.0
C1497 C 0.66871 0.00432 0.62623 0.0
C1498 C 0.66902 0.01352 0.6702 0.0
C1499 C 0.65898 0.02985 0.67665 0.0
C1500 C 0.64853 0.03695 0.63923 0.0
C1501 C 0.64793 0.02764 0.59547 0.0
H1502 H 0.6593 0.03701 0.71062 0.0
H1503 H 0.65553 0.9687 0.26354 0.0
H1504 H 0.58446 0.69075 0.41923 0.0
H1505 H 0.58012 0.66154 0.46529 0.0
H1506 H 0.52839 0.64894 0.39125 0.0
H1507 H 0.53242 0.6782 0.34635 0.0
H1508 H 0.52462 0.63831 0.47829 0.0
H1509 H 0.57069 0.6298 0.35807 0.0
H1510 H 0.59977 0.63704 0.3145 0.0
H1511 H 0.63164 0.62801 0.44111 0.0
H1512 H 0.60271 0.62098 0.48561 0.0
H1513 H 0.51786 0.53869 0.50252 0.0
H1514 H 0.52462 0.56924 0.46431 0.0
H1515 H 0.56587 0.58315 0.57162 0.0
H1516 H 0.55899 0.55277 0.61062 0.0
H1517 H 0.57578 0.59318 0.47198 0.0
H1518 H 0.52802 0.60065 0.59032 0.0
H1519 H 0.49831 0.59153 0.62903 0.0
H1520 H 0.46888 0.60073 0.49871 0.0
H1521 H 0.49849 0.60966 0.45902 0.0
C1522 C 0.57202 0.68188 0.41351 0.0
C1523 C 0.55879 0.68677 0.37924 0.0
C1524 C 0.5696 0.66515 0.43958 0.0
C1525 C 0.55412 0.65281 0.43102 0.0
C1526 C 0.54045 0.65818 0.39854 0.0
C1527 C 0.54274 0.67499 0.373 0.0
C1528 C 0.55251 0.63386 0.45378 0.0
C1529 C 0.53579 0.62845 0.47653 0.0
C1530 C 0.56711 0.62094 0.45199 0.0
C1531 C 0.58453 0.62508 0.42528 0.0
C1532 C 0.58389 0.6295 0.3767 0.0
C1533 C 0.60035 0.63355 0.35182 0.0
C1534 C 0.61754 0.63304 0.37506 0.0
C1535 C 0.61831 0.62844 0.42318 0.0
C1536 C 0.60189 0.62441 0.44825 0.0
C1537 C 0.52864 0.54807 0.51746 0.0
C1538 C 0.53782 0.54338 0.55973 0.0
C1539 C 0.53242 0.56553 0.49571 0.0
C1540 C 0.54562 0.57844 0.51548 0.0
C1541 C 0.55562 0.57335 0.55596 0.0
C1542 C 0.55164 0.55602 0.57819 0.0
C1543 C 0.54795 0.59778 0.49592 0.0
C1544 C 0.56474 0.60319 0.47385 0.0
C1545 C 0.53334 0.61058 0.49763 0.0
C1546 C 0.51548 0.60566 0.52162 0.0
C1547 C 0.51523 0.60061 0.56984 0.0
C1548 C 0.49841 0.5955 0.59196 0.0
C1549 C 0.48173 0.59551 0.56631 0.0
C1550 C 0.48182 0.60072 0.51852 0.0
C1551 C 0.49862 0.60583 0.4962 0.0
H1552 H 0.46874 0.59153 0.58352 0.0
H1553 H 0.63027 0.63617 0.35574 0.0
H1554 H 0.83116 0.47448 0.35802 0.0
H1555 H 0.85571 0.47904 0.41705 0.0
H1556 H 0.84616 0.53888 0.42086 0.0
H1557 H 0.82145 0.53439 0.36116 0.0
H1558 H 0.88188 0.5332 0.40982 0.0
H1559 H 0.83583 0.51004 0.51749 0.0
H1560 H 0.81055 0.48881 0.54754 0.0
H1561 H 0.84742 0.44248 0.54905 0.0
H1562 H 0.87287 0.46335 0.51837 0.0
H1563 H 0.95548 0.53958 0.58441 0.0
H1564 H 0.92492 0.54209 0.54639 0.0
H1565 H 0.92344 0.4822 0.51657 0.0
H1566 H 0.95365 0.4795 0.55468 0.0
H1567 H 0.89068 0.49292 0.55139 0.0
H1568 H 0.9346 0.51518 0.43118 0.0
H1569 H 0.9598 0.53625 0.39992 0.0
H1570 H 0.92638 0.58445 0.42266 0.0
H1571 H 0.90107 0.56366 0.45462 0.0
C1572 C 0.83385 0.48854 0.37237 0.0
C1573 C 0.82428 0.50407 0.35498 0.0
C1574 C 0.84796 0.49114 0.40618 0.0
C1575 C 0.85269 0.50929 0.42384 0.0
C1576 C 0.84274 0.52475 0.40778 0.0
C1577 C 0.82864 0.52217 0.37369 0.0
C1578 C 0.8691 0.51212 0.45571 0.0
C1579 C 0.8836 0.52472 0.44147 0.0
C1580 C 0.8715 0.5009 0.49665 0.0
C1581 C 0.85625 0.48827 0.51538 0.0
C1582 C 0.83853 0.4953 0.52394 0.0
C1583 C 0.82417 0.48333 0.54113 0.0
C1584 C 0.82737 0.4643 0.55014 0.0
C1585 C 0.84496 0.45722 0.54207 0.0
C1586 C 0.85937 0.46913 0.52485 0.0
C1587 C 0.94866 0.52696 0.56965 0.0
C1588 C 0.95707 0.50935 0.57256 0.0
C1589 C 0.9312 0.52842 0.54793 0.0
C1590 C 0.92192 0.51233 0.52855 0.0
C1591 C 0.93029 0.49478 0.53151 0.0
C1592 C 0.94765 0.4933 0.55315 0.0
C1593 C 0.90358 0.5135 0.50452 0.0
C1594 C 0.88874 0.50168 0.52033 0.0
C1595 C 0.90086 0.52544 0.46509 0.0
C1596 C 0.91605 0.5379 0.44582 0.0
C1597 C 0.93269 0.53029 0.42987 0.0
C1598 C 0.94698 0.54217 0.41196 0.0
C1599 C 0.94472 0.56169 0.40946 0.0
C1600 C 0.92813 0.56934 0.42473 0.0
C1601 C 0.91381 0.55752 0.44272 0.0
H1602 H 0.95579 0.57087 0.39558 0.0
H1603 H 0.81623 0.45506 0.56344 0.0
loop_
_geom_bond_atom_site_label_1
_geom_bond_atom_site_label_2
_geom_bond_distance
_geom_bond_site_symmetry_2
_ccdc_geom_bond_type
C0 C1 1.386 . S
C0 C2 1.397 . S
C0 H24 0.931 . S
C1 C0 1.386 . S
C1 C5 1.397 . S
C2 C0 1.397 . S
C2 C3 1.384 . S
C2 H25 0.930 . S
C3 C2 1.384 . S
C3 C4 1.377 . S
C3 C6 1.481 1_556 S
C4 C3 1.377 . S
C4 C5 1.389 . S
C4 H26 0.929 . S
C5 C1 1.397 . S
C5 C4 1.389 . S
C5 H27 0.931 . S
C6 C3 1.481 1_554 S
C6 C7 1.387 1_554 S
C6 C11 1.390 . S
C7 C6 1.387 1_556 S
C7 C8 1.401 1_556 S
C7 H28 0.930 . S
C8 C7 1.401 1_554 S
C8 C9 1.376 . S
C8 C17 1.511 . S
C9 C8 1.376 . S
C9 C10 1.392 . S
C9 H30 0.931 . S
C10 C9 1.392 . S
C10 C11 1.361 . S
C10 C12 1.500 . S
C11 C6 1.390 . S
C11 C10 1.361 . S
C11 H29 0.931 . S
C12 C10 1.500 . S
C12 C13 1.371 . S
C12 C14 1.365 . S
C13 C12 1.371 . S
C13 C23 1.386 . S
C13 H31 0.931 . S
C14 C12 1.365 . S
C14 C15 1.409 . S
C14 H32 0.929 . S
C15 C14 1.409 . S
C15 C16 1.380 . S
C15 H33 0.930 . S
C16 C15 1.380 . S
C16 C23 1.357 . S
C17 C8 1.511 . S
C17 C18 1.341 1_554 S
C17 C19 1.371 . S
C18 C17 1.341 1_556 S
C18 C22 1.394 . S
C18 H34 0.930 . S
C19 C17 1.371 . S
C19 C20 1.392 . S
C19 H35 0.931 . S
C20 C19 1.392 . S
C20 C21 1.331 1_554 S
C20 H38 0.932 . S
C21 C20 1.331 1_556 S
C21 C22 1.336 . S
C22 C18 1.394 . S
C22 C21 1.336 . S
C22 H37 0.929 . S
C23 C13 1.386 . S
C23 C16 1.357 . S
C23 H36 0.928 . S
H24 C0 0.931 . S
H25 C2 0.930 . S
H26 C4 0.929 . S
H27 C5 0.931 . S
H28 C7 0.930 . S
H29 C11 0.931 . S
H30 C9 0.931 . S
H31 C13 0.931 . S
H32 C14 0.929 . S
H33 C15 0.930 . S
H34 C18 0.930 . S
H35 C19 0.931 . S
H36 C23 0.928 . S
H37 C22 0.929 . S
H38 C20 0.932 . S
C39 C40 1.386 . S
C39 C41 1.397 . S
C39 H63 0.931 . S
C40 C39 1.386 . S
C40 C44 1.397 1_656 S
C41 C39 1.397 . S
C41 C42 1.384 1_556 S
C41 H64 0.930 . S
C42 C41 1.384 1_554 S
C42 C43 1.377 1_655 S
C42 C45 1.481 . S
C43 C42 1.377 1_455 S
C43 C44 1.389 . S
C43 H65 0.929 . S
C44 C40 1.397 1_454 S
C44 C43 1.389 . S
C44 H66 0.931 . S
C45 C42 1.481 . S
C45 C46 1.387 . S
C45 C50 1.390 . S
C46 C45 1.387 . S
C46 C47 1.401 . S
C46 H67 0.930 . S
C47 C46 1.401 . S
C47 C48 1.376 . S
C47 C56 1.511 . S
C48 C47 1.376 . S
C48 C49 1.392 . S
C48 H69 0.931 . S
C49 C48 1.392 . S
C49 C50 1.361 . S
C49 C51 1.500 . S
C50 C45 1.390 . S
C50 C49 1.361 . S
C50 H68 0.931 . S
C51 C49 1.500 . S
C51 C52 1.371 . S
C51 C53 1.365 1_655 S
C52 C51 1.371 . S
C52 C62 1.386 . S
C52 H70 0.931 . S
C53 C51 1.365 1_455 S
C53 C54 1.409 . S
C53 H71 0.929 . S
C54 C53 1.409 . S
C54 C55 1.380 1_455 S
C54 H72 0.930 . S
C55 C54 1.380 1_655 S
C55 C62 1.357 . S
C56 C47 1.511 . S
C56 C57 1.341 . S
C56 C58 1.371 . S
C57 C56 1.341 . S
C57 C61 1.394 . S
C57 H73 0.930 . S
C58 C56 1.371 . S
C58 C59 1.392 . S
C58 H74 0.931 . S
C59 C58 1.392 . S
C59 C60 1.331 . S
C59 H77 0.932 . S
C60 C59 1.331 . S
C60 C61 1.336 . S
C61 C57 1.394 . S
C61 C60 1.336 . S
C61 H76 0.929 1_554 S
C62 C52 1.386 . S
C62 C55 1.357 . S
C62 H75 0.928 . S
H63 C39 0.931 . S
H64 C41 0.930 . S
H65 C43 0.929 . S
H66 C44 0.931 . S
H67 C46 0.930 . S
H68 C50 0.931 . S
H69 C48 0.931 . S
H70 C52 0.931 . S
H71 C53 0.929 . S
H72 C54 0.930 . S
H73 C57 0.930 . S
H74 C58 0.931 . S
H75 C62 0.928 . S
H76 C61 0.929 1_556 S
H77 C59 0.932 . S
C78 C79 1.388 . S
C78 C80 1.397 . S
C78 H102 0.931 . S
C79 C78 1.388 . S
C79 C83 1.395 1_565 S
C80 C78 1.397 . S
C80 C81 1.386 . S
C80 H103 0.930 . S
C81 C80 1.386 . S
C81 C82 1.376 1_565 S
C81 C84 1.480 1_556 S
C82 C81 1.376 1_545 S
C82 C83 1.389 . S
C82 H104 0.929 1_556 S
C83 C79 1.395 1_545 S
C83 C82 1.389 . S
C83 H105 0.931 . S
C84 C81 1.480 1_554 S
C84 C85 1.390 . S
C84 C89 1.390 . S
C85 C84 1.390 . S
C85 C86 1.401 . S
C85 H106 0.930 1_554 S
C86 C85 1.401 . S
C86 C87 1.376 . S
C86 C95 1.514 . S
C87 C86 1.376 . S
C87 C88 1.390 . S
C87 H108 0.936 . S
C88 C87 1.390 . S
C88 C89 1.361 . S
C88 C90 1.499 1_565 S
C89 C84 1.390 . S
C89 C88 1.361 . S
C89 H107 0.931 . S
C90 C88 1.499 1_545 S
C90 C91 1.362 1_545 S
C90 C92 1.375 . S
C91 C90 1.362 1_565 S
C91 C101 1.386 . S
C91 H109 0.931 . S
C92 C90 1.375 . S
C92 C93 1.409 . S
C92 H110 0.929 . S
C93 C92 1.409 . S
C93 C94 1.380 . S
C93 H111 0.930 . S
C94 C93 1.380 . S
C94 C101 1.357 1_545 S
C95 C86 1.514 . S
C95 C96 1.341 . S
C95 C97 1.371 1_565 S
C96 C95 1.341 . S
C96 C100 1.394 1_554 S
C96 H112 0.930 1_554 S
C97 C95 1.371 1_545 S
C97 C98 1.392 . S
C97 H113 0.931 . S
C98 C97 1.392 . S
C98 C99 1.318 1_545 S
C98 H116 0.932 . S
C99 C98 1.318 1_565 S
C99 C100 1.349 1_554 S
C100 C96 1.394 1_556 S
C100 C99 1.349 1_556 S
C100 H115 0.929 . S
C101 C91 1.386 . S
C101 C94 1.357 1_565 S
C101 H114 0.928 . S
H102 C78 0.931 . S
H103 C80 0.930 . S
H104 C82 0.929 1_554 S
H105 C83 0.931 . S
H106 C85 0.930 1_556 S
H107 C89 0.931 . S
H108 C87 0.936 . S
H109 C91 0.931 . S
H110 C92 0.929 . S
H111 C93 0.930 . S
H112 C96 0.930 1_556 S
H113 C97 0.931 . S
H114 C101 0.928 . S
H115 C100 0.929 . S
H116 C98 0.932 . S
C117 C118 1.386 . S
C117 C119 1.397 . S
C117 H141 0.931 . S
C118 C117 1.386 . S
C118 C122 1.397 . S
C119 C117 1.397 . S
C119 C120 1.384 . S
C119 H142 0.930 . S
C120 C119 1.384 . S
C120 C121 1.377 . S
C120 C123 1.481 . S
C121 C120 1.377 . S
C121 C122 1.389 . S
C121 H143 0.929 . S
C122 C118 1.397 . S
C122 C121 1.389 . S
C122 H144 0.931 . S
C123 C120 1.481 . S
C123 C124 1.387 . S
C123 C128 1.390 . S
C124 C123 1.387 . S
C124 C125 1.401 . S
C124 H145 0.930 . S
C125 C124 1.401 . S
C125 C126 1.376 . S
C125 C134 1.511 . S
C126 C125 1.376 . S
C126 C127 1.392 . S
C126 H147 0.931 1_554 S
C127 C126 1.392 . S
C127 C128 1.361 . S
C127 C129 1.500 1_554 S
C128 C123 1.390 . S
C128 C127 1.361 . S
C128 H146 0.931 . S
C129 C127 1.500 1_556 S
C129 C130 1.371 . S
C129 C131 1.365 . S
C130 C129 1.371 . S
C130 C140 1.386 . S
C130 H148 0.931 . S
C131 C129 1.365 . S
C131 C132 1.409 . S
C131 H149 0.929 1_556 S
C132 C131 1.409 . S
C132 C133 1.380 . S
C132 H150 0.930 . S
C133 C132 1.380 . S
C133 C140 1.357 . S
C134 C125 1.511 . S
C134 C135 1.341 . S
C134 C136 1.371 1_554 S
C135 C134 1.341 . S
C135 C139 1.394 . S
C135 H151 0.930 . S
C136 C134 1.371 1_556 S
C136 C137 1.392 . S
C136 H152 0.931 . S
C137 C136 1.392 . S
C137 C138 1.331 1_556 S
C137 H155 0.932 . S
C138 C137 1.331 1_554 S
C138 C139 1.336 . S
C139 C135 1.394 . S
C139 C138 1.336 . S
C139 H154 0.929 . S
C140 C130 1.386 . S
C140 C133 1.357 . S
C140 H153 0.928 . S
H141 C117 0.931 . S
H142 C119 0.930 . S
H143 C121 0.929 . S
H144 C122 0.931 . S
H145 C124 0.930 . S
H146 C128 0.931 . S
H147 C126 0.931 1_556 S
H148 C130 0.931 . S
H149 C131 0.929 1_554 S
H150 C132 0.930 . S
H151 C135 0.930 . S
H152 C136 0.931 . S
H153 C140 0.928 . S
H154 C139 0.929 . S
H155 C137 0.932 . S
C156 C157 1.386 . S
C156 C158 1.397 . S
C156 H180 0.931 . S
C157 C156 1.386 . S
C157 C161 1.397 . S
C158 C156 1.397 . S
C158 C159 1.384 . S
C158 H181 0.930 . S
C159 C158 1.384 . S
C159 C160 1.377 . S
C159 C162 1.481 . S
C160 C159 1.377 . S
C160 C161 1.389 . S
C160 H182 0.929 . S
C161 C157 1.397 . S
C161 C160 1.389 . S
C161 H183 0.931 . S
C162 C159 1.481 . S
C162 C163 1.387 . S
C162 C167 1.390 . S
C163 C162 1.387 . S
C163 C164 1.401 . S
C163 H184 0.930 . S
C164 C163 1.401 . S
C164 C165 1.376 . S
C164 C173 1.511 . S
C165 C164 1.376 . S
C165 C166 1.392 . S
C165 H186 0.931 . S
C166 C165 1.392 . S
C166 C167 1.361 . S
C166 C168 1.500 . S
C167 C162 1.390 . S
C167 C166 1.361 . S
C167 H185 0.931 . S
C168 C166 1.500 . S
C168 C169 1.371 . S
C168 C170 1.365 . S
C169 C168 1.371 . S
C169 C179 1.386 . S
C169 H187 0.931 . S
C170 C168 1.365 . S
C170 C171 1.409 . S
C170 H188 0.929 . S
C171 C170 1.409 . S
C171 C172 1.380 . S
C171 H189 0.930 . S
C172 C171 1.380 . S
C172 C179 1.357 . S
C173 C164 1.511 . S
C173 C174 1.341 . S
C173 C175 1.371 . S
C174 C173 1.341 . S
C174 C178 1.394 . S
C174 H190 0.930 . S
C175 C173 1.371 . S
C175 C176 1.392 . S
C175 H191 0.931 . S
C176 C175 1.392 . S
C176 C177 1.331 . S
C176 H194 0.932 . S
C177 C176 1.331 . S
C177 C178 1.336 . S
C178 C174 1.394 . S
C178 C177 1.336 . S
C178 H193 0.929 . S
C179 C169 1.386 . S
C179 C172 1.357 . S
C179 H192 0.928 . S
H180 C156 0.931 . S
H181 C158 0.930 . S
H182 C160 0.929 . S
H183 C161 0.931 . S
H184 C163 0.930 . S
H185 C167 0.931 . S
H186 C165 0.931 . S
H187 C169 0.931 . S
H188 C170 0.929 . S
H189 C171 0.930 . S
H190 C174 0.930 . S
H191 C175 0.931 . S
H192 C179 0.928 . S
H193 C178 0.929 . S
H194 C176 0.932 . S
C195 C196 1.386 . S
C195 C197 1.397 . S
C195 H219 0.931 . S
C196 C195 1.386 . S
C196 C200 1.397 . S
C197 C195 1.397 . S
C197 C198 1.384 . S
C197 H220 0.930 . S
C198 C197 1.384 . S
C198 C199 1.377 . S
C198 C201 1.481 . S
C199 C198 1.377 . S
C199 C200 1.389 . S
C199 H221 0.929 . S
C200 C196 1.397 . S
C200 C199 1.389 . S
C200 H222 0.931 . S
C201 C198 1.481 . S
C201 C202 1.387 . S
C201 C206 1.390 . S
C202 C201 1.387 . S
C202 C203 1.401 . S
C202 H223 0.930 . S
C203 C202 1.401 . S
C203 C204 1.376 . S
C203 C212 1.511 . S
C204 C203 1.376 . S
C204 C205 1.392 . S
C204 H225 0.931 . S
C205 C204 1.392 . S
C205 C206 1.361 . S
C205 C207 1.500 . S
C206 C201 1.390 . S
C206 C205 1.361 . S
C206 H224 0.931 . S
C207 C205 1.500 . S
C207 C208 1.371 . S
C207 C209 1.365 . S
C208 C207 1.371 . S
C208 C218 1.386 . S
C208 H226 0.931 . S
C209 C207 1.365 . S
C209 C210 1.409 . S
C209 H227 0.929 . S
C210 C209 1.409 . S
C210 C211 1.380 . S
C210 H228 0.930 . S
C211 C210 1.380 . S
C211 C218 1.357 . S
C212 C203 1.511 . S
C212 C213 1.341 . S
C212 C214 1.371 . S
C213 C212 1.341 . S
C213 C217 1.394 . S
C213 H229 0.930 . S
C214 C212 1.371 . S
C214 C215 1.392 . S
C214 H230 0.931 . S
C215 C214 1.392 . S
C215 C216 1.331 . S
C215 H233 0.932 . S
C216 C215 1.331 . S
C216 C217 1.336 . S
C217 C213 1.394 . S
C217 C216 1.336 . S
C217 H232 0.929 . S
C218 C208 1.386 . S
C218 C211 1.357 . S
C218 H231 0.928 . S
H219 C195 0.931 . S
H220 C197 0.930 . S
H221 C199 0.929 . S
H222 C200 0.931 . S
H223 C202 0.930 . S
H224 C206 0.931 . S
H225 C204 0.931 . S
H226 C208 0.931 . S
H227 C209 0.929 . S
H228 C210 0.930 . S
H229 C213 0.930 . S
H230 C214 0.931 . S
H231 C218 0.928 . S
H232 C217 0.929 . S
H233 C215 0.932 . S
C234 C235 1.387 1_565 S
C234 C236 1.397 . S
C234 H258 0.931 . S
C235 C234 1.387 1_545 S
C235 C239 1.396 . S
C236 C234 1.397 . S
C236 C237 1.385 1_565 S
C236 H259 0.930 . S
C237 C236 1.385 1_545 S
C237 C238 1.376 . S
C237 C240 1.481 1_545 S
C238 C237 1.376 . S
C238 C239 1.389 . S
C238 H260 0.929 . S
C239 C235 1.396 . S
C239 C238 1.389 . S
C239 H261 0.931 . S
C240 C237 1.481 1_565 S
C240 C241 1.388 . S
C240 C245 1.390 . S
C241 C240 1.388 . S
C241 C242 1.399 . S
C241 H262 0.935 . S
C242 C241 1.399 . S
C242 C243 1.376 . S
C242 C251 1.511 . S
C243 C242 1.376 . S
C243 C244 1.393 1_565 S
C243 H264 0.932 . S
C244 C243 1.393 1_545 S
C244 C245 1.361 1_545 S
C244 C246 1.499 . S
C245 C240 1.390 . S
C245 C244 1.361 1_565 S
C245 H263 0.931 1_565 S
C246 C244 1.499 . S
C246 C247 1.357 1_545 S
C246 C248 1.380 . S
C247 C246 1.357 1_565 S
C247 C257 1.386 . S
C247 H265 0.931 . S
C248 C246 1.380 . S
C248 C249 1.409 . S
C248 H266 0.929 . S
C249 C248 1.409 . S
C249 C250 1.386 . S
C249 H267 0.930 . S
C250 C249 1.386 . S
C250 C257 1.352 1_545 S
C251 C242 1.511 . S
C251 C252 1.341 . S
C251 C253 1.371 1_565 S
C252 C251 1.341 . S
C252 C256 1.394 . S
C252 H268 0.930 . S
C253 C251 1.371 1_545 S
C253 C254 1.392 . S
C253 H269 0.931 . S
C254 C253 1.392 . S
C254 C255 1.322 1_545 S
C254 H272 0.932 . S
C255 C254 1.322 1_565 S
C255 C256 1.347 . S
C256 C252 1.394 . S
C256 C255 1.347 . S
C256 H271 0.929 . S
C257 C247 1.386 . S
C257 C250 1.352 1_565 S
C257 H270 0.928 . S
H258 C234 0.931 . S
H259 C236 0.930 . S
H260 C238 0.929 . S
H261 C239 0.931 . S
H262 C241 0.935 . S
H263 C245 0.931 1_545 S
H264 C243 0.932 . S
H265 C247 0.931 . S
H266 C248 0.929 . S
H267 C249 0.930 . S
H268 C252 0.930 . S
H269 C253 0.931 . S
H270 C257 0.928 . S
H271 C256 0.929 . S
H272 C254 0.932 . S
C273 C274 1.386 . S
C273 C275 1.397 . S
C273 H297 0.931 . S
C274 C273 1.386 . S
C274 C278 1.397 . S
C275 C273 1.397 . S
C275 C276 1.384 . S
C275 H298 0.930 . S
C276 C275 1.384 . S
C276 C277 1.377 . S
C276 C279 1.481 . S
C277 C276 1.377 . S
C277 C278 1.389 . S
C277 H299 0.929 . S
C278 C274 1.397 . S
C278 C277 1.389 . S
C278 H300 0.931 . S
C279 C276 1.481 . S
C279 C280 1.387 . S
C279 C284 1.390 . S
C280 C279 1.387 . S
C280 C281 1.401 . S
C280 H301 0.930 . S
C281 C280 1.401 . S
C281 C282 1.376 . S
C281 C290 1.511 . S
C282 C281 1.376 . S
C282 C283 1.392 . S
C282 H303 0.931 . S
C283 C282 1.392 . S
C283 C284 1.361 . S
C283 C285 1.500 . S
C284 C279 1.390 . S
C284 C283 1.361 . S
C284 H302 0.931 . S
C285 C283 1.500 . S
C285 C286 1.371 . S
C285 C287 1.365 . S
C286 C285 1.371 . S
C286 C296 1.386 . S
C286 H304 0.931 . S
C287 C285 1.365 . S
C287 C288 1.409 . S
C287 H305 0.929 . S
C288 C287 1.409 . S
C288 C289 1.380 . S
C288 H306 0.930 . S
C289 C288 1.380 . S
C289 C296 1.357 . S
C290 C281 1.511 . S
C290 C291 1.341 . S
C290 C292 1.371 . S
C291 C290 1.341 . S
C291 C295 1.394 . S
C291 H307 0.930 . S
C292 C290 1.371 . S
C292 C293 1.392 . S
C292 H308 0.931 . S
C293 C292 1.392 . S
C293 C294 1.331 . S
C293 H311 0.932 . S
C294 C293 1.331 . S
C294 C295 1.336 . S
C295 C291 1.394 . S
C295 C294 1.336 . S
C295 H310 0.929 . S
C296 C286 1.386 . S
C296 C289 1.357 . S
C296 H309 0.928 . S
H297 C273 0.931 . S
H298 C275 0.930 . S
H299 C277 0.929 . S
H300 C278 0.931 . S
H301 C280 0.930 . S
H302 C284 0.931 . S
H303 C282 0.931 . S
H304 C286 0.931 . S
H305 C287 0.929 . S
H306 C288 0.930 . S
H307 C291 0.930 . S
H308 C292 0.931 . S
H309 C296 0.928 . S
H310 C295 0.929 . S
H311 C293 0.932 . S
O312 Zn313 1.954 . S
O312 C328 1.232 . S
Zn313 O312 1.954 . S
Zn313 O314 1.948 . S
Zn313 O320 1.885 1_565 S
Zn313 O325 1.965 . S
O314 Zn313 1.948 . S
O314 Zn315 1.904 1_565 S
O314 Zn316 1.952 . S
O314 Zn317 1.960 . S
Zn315 O314 1.904 1_545 S
Zn315 O318 1.933 1_455 S
Zn315 O321 1.941 . S
Zn315 O322 1.965 . S
Zn316 O314 1.952 . S
Zn316 O323 1.938 1_565 S
Zn316 O324 1.906 . S
Zn316 O334 1.953 . S
Zn317 O314 1.960 . S
Zn317 O319 1.932 1_455 S
Zn317 O326 1.977 . S
Zn317 O327 1.910 . S
O318 Zn315 1.933 1_655 S
O318 C329 1.226 . S
O319 Zn317 1.932 1_655 S
O319 C329 1.307 1_565 S
O320 Zn313 1.885 1_545 S
O320 C331 1.253 . S
O321 Zn315 1.941 . S
O321 C331 1.283 . S
O322 Zn315 1.965 . S
O322 C330 1.303 . S
O323 Zn316 1.938 1_545 S
O323 C330 1.247 . S
O324 Zn316 1.906 . S
O324 C332 1.304 . S
O325 Zn313 1.965 . S
O325 C333 1.311 . S
O326 Zn317 1.977 . S
O326 C332 1.272 . S
O327 Zn317 1.910 . S
O327 C333 1.231 . S
C328 O312 1.232 . S
C328 O334 1.298 . S
C329 O318 1.226 . S
C329 O319 1.307 1_545 S
C330 O322 1.303 . S
C330 O323 1.247 . S
C331 O320 1.253 . S
C331 O321 1.283 . S
C332 O324 1.304 . S
C332 O326 1.272 . S
C333 O325 1.311 . S
C333 O327 1.231 . S
O334 Zn316 1.953 . S
O334 C328 1.298 . S
O335 Zn336 1.953 . S
O335 C351 1.225 . S
Zn336 O335 1.953 . S
Zn336 O337 1.949 . S
Zn336 O343 1.919 . S
Zn336 O348 1.924 . S
O337 Zn336 1.949 . S
O337 Zn338 1.923 1_545 S
O337 Zn339 1.950 . S
O337 Zn340 1.945 1_545 S
Zn338 O337 1.923 1_565 S
Zn338 O341 1.933 . S
Zn338 O344 1.941 . S
Zn338 O345 1.965 . S
Zn339 O337 1.950 . S
Zn339 O346 1.938 . S
Zn339 O347 1.896 1_545 S
Zn339 O357 1.953 . S
Zn340 O337 1.945 1_565 S
Zn340 O342 1.932 . S
Zn340 O349 1.977 . S
Zn340 O350 1.910 1_565 S
O341 Zn338 1.933 . S
O341 C352 1.226 . S
O342 Zn340 1.932 . S
O342 C352 1.307 . S
O343 Zn336 1.919 . S
O343 C354 1.253 . S
O344 Zn338 1.941 . S
O344 C354 1.283 1_565 S
O345 Zn338 1.965 . S
O345 C353 1.303 . S
O346 Zn339 1.938 . S
O346 C353 1.247 1_545 S
O347 Zn339 1.896 1_565 S
O347 C355 1.319 . S
O348 Zn336 1.924 . S
O348 C356 1.311 . S
O349 Zn340 1.977 . S
O349 C355 1.272 . S
O350 Zn340 1.910 1_545 S
O350 C356 1.231 . S
C351 O335 1.225 . S
C351 O357 1.298 . S
C352 O341 1.226 . S
C352 O342 1.307 . S
C353 O345 1.303 . S
C353 O346 1.247 1_565 S
C354 O343 1.253 . S
C354 O344 1.283 1_545 S
C355 O347 1.319 . S
C355 O349 1.272 . S
C356 O348 1.311 . S
C356 O350 1.231 . S
O357 Zn339 1.953 . S
O357 C351 1.298 . S
O358 Zn359 1.953 . S
O358 C374 1.225 . S
Zn359 O358 1.953 . S
Zn359 O360 1.949 . S
Zn359 O366 1.919 . S
Zn359 O371 1.924 . S
O360 Zn359 1.949 . S
O360 Zn361 1.923 . S
O360 Zn362 1.950 . S
O360 Zn363 1.945 . S
Zn361 O360 1.923 . S
Zn361 O364 1.933 . S
Zn361 O367 1.941 . S
Zn361 O368 1.965 . S
Zn362 O360 1.950 . S
Zn362 O369 1.938 . S
Zn362 O370 1.906 . S
Zn362 O380 1.953 . S
Zn363 O360 1.945 . S
Zn363 O365 1.932 . S
Zn363 O372 1.977 . S
Zn363 O373 1.910 . S
O364 Zn361 1.933 . S
O364 C375 1.226 . S
O365 Zn363 1.932 . S
O365 C375 1.307 . S
O366 Zn359 1.919 . S
O366 C377 1.253 . S
O367 Zn361 1.941 . S
O367 C377 1.283 . S
O368 Zn361 1.965 . S
O368 C376 1.303 . S
O369 Zn362 1.938 . S
O369 C376 1.247 . S
O370 Zn362 1.906 . S
O370 C378 1.304 . S
O371 Zn359 1.924 . S
O371 C379 1.311 . S
O372 Zn363 1.977 . S
O372 C378 1.272 . S
O373 Zn363 1.910 . S
O373 C379 1.231 . S
C374 O358 1.225 . S
C374 O380 1.298 . S
C375 O364 1.226 . S
C375 O365 1.307 . S
C376 O368 1.303 . S
C376 O369 1.247 . S
C377 O366 1.253 . S
C377 O367 1.283 . S
C378 O370 1.304 . S
C378 O372 1.272 . S
C379 O371 1.311 . S
C379 O373 1.231 . S
O380 Zn362 1.953 . S
O380 C374 1.298 . S
O381 Zn382 1.953 1_655 S
O381 C397 1.225 . S
Zn382 O381 1.953 1_455 S
Zn382 O383 1.949 . S
Zn382 O389 1.919 . S
Zn382 O394 1.924 . S
O383 Zn382 1.949 . S
O383 Zn384 1.923 . S
O383 Zn385 1.950 1_455 S
O383 Zn386 1.945 . S
Zn384 O383 1.923 . S
Zn384 O387 1.933 . S
Zn384 O390 1.941 . S
Zn384 O391 1.965 1_455 S
Zn385 O383 1.950 1_655 S
Zn385 O392 1.938 . S
Zn385 O393 1.906 1_655 S
Zn385 O403 1.953 . S
Zn386 O383 1.945 . S
Zn386 O388 1.932 . S
Zn386 O395 1.977 . S
Zn386 O396 1.910 . S
O387 Zn384 1.933 . S
O387 C398 1.226 . S
O388 Zn386 1.932 . S
O388 C398 1.307 . S
O389 Zn382 1.919 . S
O389 C400 1.253 . S
O390 Zn384 1.941 . S
O390 C400 1.283 . S
O391 Zn384 1.965 1_655 S
O391 C399 1.303 . S
O392 Zn385 1.938 . S
O392 C399 1.247 . S
O393 Zn385 1.906 1_455 S
O393 C401 1.304 . S
O394 Zn382 1.924 . S
O394 C402 1.311 . S
O395 Zn386 1.977 . S
O395 C401 1.272 . S
O396 Zn386 1.910 . S
O396 C402 1.231 . S
C397 O381 1.225 . S
C397 O403 1.298 . S
C398 O387 1.226 . S
C398 O388 1.307 . S
C399 O391 1.303 . S
C399 O392 1.247 . S
C400 O389 1.253 . S
C400 O390 1.283 . S
C401 O393 1.304 . S
C401 O395 1.272 . S
C402 O394 1.311 . S
C402 O396 1.231 . S
O403 Zn385 1.953 . S
O403 C397 1.298 . S
H404 C422 0.951 . S
H405 C424 0.951 . S
H406 C426 0.950 . S
H407 C427 0.950 . S
H408 C429 0.950 . S
H409 C432 0.950 . S
H410 C433 0.950 . S
H411 C435 0.950 . S
H412 C436 0.950 . S
H413 C437 0.951 . S
H414 C439 0.951 . S
H415 C441 0.950 . S
H416 C442 0.950 . S
H417 C444 0.950 . S
H418 C447 0.950 . S
H419 C448 0.950 . S
H420 C450 0.950 . S
H421 C451 0.950 . S
C422 H404 0.951 . S
C422 C423 1.344 1_545 S
C422 C424 1.388 . S
C423 C422 1.344 1_565 S
C423 C427 1.407 . S
C424 H405 0.951 . S
C424 C422 1.388 . S
C424 C425 1.366 1_545 S
C425 C424 1.366 1_565 S
C425 C426 1.414 . S
C425 C428 1.499 . S
C426 H406 0.950 . S
C426 C425 1.414 . S
C426 C427 1.374 . S
C427 H407 0.950 . S
C427 C423 1.407 . S
C427 C426 1.374 . S
C428 C425 1.499 . S
C428 C429 1.373 . S
C428 C430 1.389 1_565 S
C429 H408 0.950 . S
C429 C428 1.373 . S
C429 C445 1.377 . S
C430 C428 1.389 1_545 S
C430 C431 1.524 . S
C430 C444 1.377 . S
C431 C430 1.524 . S
C431 C432 1.397 . S
C431 C436 1.363 . S
C432 H409 0.950 . S
C432 C431 1.397 . S
C432 C433 1.334 . S
C433 H410 0.950 . S
C433 C432 1.334 . S
C433 C434 1.287 . S
C434 C433 1.287 . S
C434 C435 1.524 . S
C434 H453 0.913 . S
C435 H411 0.950 . S
C435 C434 1.524 . S
C435 C436 1.415 . S
C436 H412 0.950 . S
C436 C431 1.363 . S
C436 C435 1.415 . S
C437 H413 0.951 . S
C437 C438 1.366 . S
C437 C439 1.388 . S
C438 C437 1.366 . S
C438 C442 1.385 1_565 S
C439 H414 0.951 . S
C439 C437 1.388 . S
C439 C440 1.366 . S
C440 C439 1.366 . S
C440 C441 1.414 1_565 S
C440 C443 1.499 . S
C441 H415 0.950 . S
C441 C440 1.414 1_545 S
C441 C442 1.374 . S
C442 H416 0.950 . S
C442 C438 1.385 1_545 S
C442 C441 1.374 . S
C443 C440 1.499 . S
C443 C444 1.373 1_565 S
C443 C445 1.389 . S
C444 H417 0.950 . S
C444 C430 1.377 . S
C444 C443 1.373 1_545 S
C445 C429 1.377 . S
C445 C443 1.389 . S
C445 C446 1.524 . S
C446 C445 1.524 . S
C446 C447 1.397 . S
C446 C451 1.363 . S
C447 H418 0.950 . S
C447 C446 1.397 . S
C447 C448 1.334 . S
C448 H419 0.950 . S
C448 C447 1.334 . S
C448 C449 1.287 . S
C449 C448 1.287 . S
C449 C450 1.524 . S
C449 H452 0.999 . S
C450 H420 0.950 . S
C450 C449 1.524 . S
C450 C451 1.415 . S
C451 H421 0.950 . S
C451 C446 1.363 . S
C451 C450 1.415 . S
H452 C449 0.999 . S
H453 C434 0.913 . S
H454 C472 0.951 . S
H455 C474 0.951 . S
H456 C476 0.950 . S
H457 C477 0.950 . S
H458 C479 0.950 . S
H459 C482 0.950 . S
H460 C483 0.950 . S
H461 C485 0.950 . S
H462 C486 0.950 . S
H463 C487 0.951 . S
H464 C489 0.951 . S
H465 C491 0.950 . S
H466 C492 0.950 . S
H467 C494 0.950 . S
H468 C497 0.950 . S
H469 C498 0.950 . S
H470 C500 0.950 . S
H471 C501 0.950 . S
C472 H454 0.951 . S
C472 C473 1.366 . S
C472 C474 1.388 . S
C473 C472 1.366 . S
C473 C477 1.385 . S
C474 H455 0.951 . S
C474 C472 1.388 . S
C474 C475 1.366 . S
C475 C474 1.366 . S
C475 C476 1.414 . S
C475 C478 1.499 . S
C476 H456 0.950 . S
C476 C475 1.414 . S
C476 C477 1.374 . S
C477 H457 0.950 . S
C477 C473 1.385 . S
C477 C476 1.374 . S
C478 C475 1.499 . S
C478 C479 1.373 . S
C478 C480 1.389 . S
C479 H458 0.950 . S
C479 C478 1.373 . S
C479 C495 1.377 . S
C480 C478 1.389 . S
C480 C481 1.524 . S
C480 C494 1.377 . S
C481 C480 1.524 . S
C481 C482 1.397 . S
C481 C486 1.363 . S
C482 H459 0.950 . S
C482 C481 1.397 . S
C482 C483 1.334 . S
C483 H460 0.950 . S
C483 C482 1.334 . S
C483 C484 1.287 . S
C484 C483 1.287 . S
C484 C485 1.524 . S
C484 H503 0.913 . S
C485 H461 0.950 . S
C485 C484 1.524 . S
C485 C486 1.415 . S
C486 H462 0.950 . S
C486 C481 1.363 . S
C486 C485 1.415 . S
C487 H463 0.951 . S
C487 C488 1.366 . S
C487 C489 1.388 . S
C488 C487 1.366 . S
C488 C492 1.385 . S
C489 H464 0.951 . S
C489 C487 1.388 . S
C489 C490 1.366 . S
C490 C489 1.366 . S
C490 C491 1.414 . S
C490 C493 1.499 . S
C491 H465 0.950 . S
C491 C490 1.414 . S
C491 C492 1.374 . S
C492 H466 0.950 . S
C492 C488 1.385 . S
C492 C491 1.374 . S
C493 C490 1.499 . S
C493 C494 1.373 . S
C493 C495 1.389 . S
C494 H467 0.950 . S
C494 C480 1.377 . S
C494 C493 1.373 . S
C495 C479 1.377 . S
C495 C493 1.389 . S
C495 C496 1.524 . S
C496 C495 1.524 . S
C496 C497 1.397 . S
C496 C501 1.363 . S
C497 H468 0.950 . S
C497 C496 1.397 . S
C497 C498 1.334 . S
C498 H469 0.950 . S
C498 C497 1.334 . S
C498 C499 1.287 . S
C499 C498 1.287 . S
C499 C500 1.524 . S
C499 H502 0.999 . S
C500 H470 0.950 . S
C500 C499 1.524 . S
C500 C501 1.415 . S
C501 H471 0.950 . S
C501 C496 1.363 . S
C501 C500 1.415 . S
H502 C499 0.999 . S
H503 C484 0.913 . S
H504 C522 0.951 . S
H505 C524 0.951 . S
H506 C526 0.950 . S
H507 C527 0.950 . S
H508 C529 0.950 . S
H509 C532 0.950 . S
H510 C533 0.950 . S
H511 C535 0.950 . S
H512 C536 0.950 . S
H513 C537 0.951 . S
H514 C539 0.951 . S
H515 C541 0.950 . S
H516 C542 0.950 . S
H517 C544 0.950 . S
H518 C547 0.950 . S
H519 C548 0.950 . S
H520 C550 0.950 . S
H521 C551 0.950 . S
C522 H504 0.951 . S
C522 C523 1.366 . S
C522 C524 1.388 . S
C523 C522 1.366 . S
C523 C527 1.385 . S
C524 H505 0.951 . S
C524 C522 1.388 . S
C524 C525 1.366 . S
C525 C524 1.366 . S
C525 C526 1.414 . S
C525 C528 1.499 . S
C526 H506 0.950 . S
C526 C525 1.414 . S
C526 C527 1.374 . S
C527 H507 0.950 . S
C527 C523 1.385 . S
C527 C526 1.374 . S
C528 C525 1.499 . S
C528 C529 1.373 . S
C528 C530 1.389 . S
C529 H508 0.950 . S
C529 C528 1.373 . S
C529 C545 1.377 . S
C530 C528 1.389 . S
C530 C531 1.524 . S
C530 C544 1.377 . S
C531 C530 1.524 . S
C531 C532 1.397 . S
C531 C536 1.363 . S
C532 H509 0.950 . S
C532 C531 1.397 . S
C532 C533 1.334 . S
C533 H510 0.950 . S
C533 C532 1.334 . S
C533 C534 1.287 . S
C534 C533 1.287 . S
C534 C535 1.524 . S
C534 H553 0.913 . S
C535 H511 0.950 . S
C535 C534 1.524 . S
C535 C536 1.415 . S
C536 H512 0.950 . S
C536 C531 1.363 . S
C536 C535 1.415 . S
C537 H513 0.951 . S
C537 C538 1.366 . S
C537 C539 1.388 . S
C538 C537 1.366 . S
C538 C542 1.385 . S
C539 H514 0.951 . S
C539 C537 1.388 . S
C539 C540 1.366 . S
C540 C539 1.366 . S
C540 C541 1.414 . S
C540 C543 1.499 . S
C541 H515 0.950 . S
C541 C540 1.414 . S
C541 C542 1.374 . S
C542 H516 0.950 . S
C542 C538 1.385 . S
C542 C541 1.374 . S
C543 C540 1.499 . S
C543 C544 1.373 . S
C543 C545 1.389 . S
C544 H517 0.950 . S
C544 C530 1.377 . S
C544 C543 1.373 . S
C545 C529 1.377 . S
C545 C543 1.389 . S
C545 C546 1.524 . S
C546 C545 1.524 . S
C546 C547 1.397 . S
C546 C551 1.363 . S
C547 H518 0.950 . S
C547 C546 1.397 . S
C547 C548 1.334 . S
C548 H519 0.950 . S
C548 C547 1.334 . S
C548 C549 1.287 . S
C549 C548 1.287 . S
C549 C550 1.524 . S
C549 H552 0.999 . S
C550 H520 0.950 . S
C550 C549 1.524 . S
C550 C551 1.415 . S
C551 H521 0.950 . S
C551 C546 1.363 . S
C551 C550 1.415 . S
H552 C549 0.999 . S
H553 C534 0.913 . S
H554 C572 0.951 . S
H555 C574 0.951 . S
H556 C576 0.950 . S
H557 C577 0.950 . S
H558 C579 0.950 . S
H559 C582 0.950 . S
H560 C583 0.950 . S
H561 C585 0.992 . S
H562 C586 0.950 . S
H563 C587 0.951 . S
H564 C589 0.951 . S
H565 C591 0.950 . S
H566 C592 0.950 . S
H567 C594 0.950 . S
H568 C597 0.950 . S
H569 C598 0.950 . S
H570 C600 0.950 . S
H571 C601 0.950 . S
C572 H554 0.951 . S
C572 C573 1.366 . S
C572 C574 1.388 . S
C573 C572 1.366 . S
C573 C577 1.385 . S
C574 H555 0.951 . S
C574 C572 1.388 . S
C574 C575 1.366 . S
C575 C574 1.366 . S
C575 C576 1.414 . S
C575 C578 1.499 . S
C576 H556 0.950 . S
C576 C575 1.414 . S
C576 C577 1.374 . S
C577 H557 0.950 . S
C577 C573 1.385 . S
C577 C576 1.374 . S
C578 C575 1.499 . S
C578 C579 1.373 . S
C578 C580 1.389 . S
C579 H558 0.950 . S
C579 C578 1.373 . S
C579 C595 1.377 . S
C580 C578 1.389 . S
C580 C581 1.524 . S
C580 C594 1.377 . S
C581 C580 1.524 . S
C581 C582 1.397 . S
C581 C586 1.363 . S
C582 H559 0.950 . S
C582 C581 1.397 . S
C582 C583 1.334 . S
C583 H560 0.950 . S
C583 C582 1.334 . S
C583 C584 1.287 . S
C584 C583 1.287 . S
C584 C585 1.513 1_455 S
C584 H603 0.913 1_455 S
C585 H561 0.992 . S
C585 C584 1.513 1_655 S
C585 C586 1.379 1_655 S
C586 H562 0.950 . S
C586 C581 1.363 . S
C586 C585 1.379 1_455 S
C587 H563 0.951 . S
C587 C588 1.366 . S
C587 C589 1.388 . S
C588 C587 1.366 . S
C588 C592 1.385 . S
C589 H564 0.951 . S
C589 C587 1.388 . S
C589 C590 1.366 . S
C590 C589 1.366 . S
C590 C591 1.414 . S
C590 C593 1.499 . S
C591 H565 0.950 . S
C591 C590 1.414 . S
C591 C592 1.374 . S
C592 H566 0.950 . S
C592 C588 1.385 . S
C592 C591 1.374 . S
C593 C590 1.499 . S
C593 C594 1.373 . S
C593 C595 1.389 . S
C594 H567 0.950 . S
C594 C580 1.377 . S
C594 C593 1.373 . S
C595 C579 1.377 . S
C595 C593 1.389 . S
C595 C596 1.524 . S
C596 C595 1.524 . S
C596 C597 1.397 . S
C596 C601 1.363 . S
C597 H568 0.950 . S
C597 C596 1.397 . S
C597 C598 1.334 . S
C598 H569 0.950 . S
C598 C597 1.334 . S
C598 C599 1.287 . S
C599 C598 1.287 . S
C599 C600 1.524 . S
C599 H602 0.999 . S
C600 H570 0.950 . S
C600 C599 1.524 . S
C600 C601 1.415 . S
C601 H571 0.950 . S
C601 C596 1.363 . S
C601 C600 1.415 . S
H602 C599 0.999 . S
H603 C584 0.913 1_655 S
H604 C622 0.951 . S
H605 C624 0.951 1_554 S
H606 C626 0.949 1_565 S
H607 C627 0.952 . S
H608 C629 0.950 . S
H609 C632 0.950 . S
H610 C633 0.950 . S
H611 C635 0.950 . S
H612 C636 0.950 . S
H613 C637 0.951 . S
H614 C639 0.951 . S
H615 C641 0.950 . S
H616 C642 0.950 . S
H617 C644 0.950 . S
H618 C647 0.950 . S
H619 C648 0.950 . S
H620 C650 0.950 . S
H621 C651 0.950 . S
C622 H604 0.951 . S
C622 C623 1.366 . S
C622 C624 1.388 1_554 S
C623 C622 1.366 . S
C623 C627 1.384 1_544 S
C624 H605 0.951 1_556 S
C624 C622 1.388 1_556 S
C624 C625 1.366 . S
C625 C624 1.366 . S
C625 C626 1.415 . S
C625 C628 1.499 . S
C626 H606 0.949 1_545 S
C626 C625 1.415 . S
C626 C627 1.374 1_545 S
C627 H607 0.952 . S
C627 C623 1.384 1_566 S
C627 C626 1.374 1_565 S
C628 C625 1.499 . S
C628 C629 1.373 1_545 S
C628 C630 1.389 . S
C629 H608 0.950 . S
C629 C628 1.373 1_565 S
C629 C645 1.377 . S
C630 C628 1.389 . S
C630 C631 1.524 . S
C630 C644 1.377 . S
C631 C630 1.524 . S
C631 C632 1.397 . S
C631 C636 1.363 . S
C632 H609 0.950 . S
C632 C631 1.397 . S
C632 C633 1.334 . S
C633 H610 0.950 . S
C633 C632 1.334 . S
C633 C634 1.287 1_556 S
C634 C633 1.287 1_554 S
C634 C635 1.524 . S
C634 H653 0.913 . S
C635 H611 0.950 . S
C635 C634 1.524 . S
C635 C636 1.415 1_554 S
C636 H612 0.950 . S
C636 C631 1.363 . S
C636 C635 1.415 1_556 S
C637 H613 0.951 . S
C637 C638 1.366 . S
C637 C639 1.388 . S
C638 C637 1.366 . S
C638 C642 1.385 . S
C639 H614 0.951 . S
C639 C637 1.388 . S
C639 C640 1.366 . S
C640 C639 1.366 . S
C640 C641 1.414 . S
C640 C643 1.499 . S
C641 H615 0.950 . S
C641 C640 1.414 . S
C641 C642 1.374 . S
C642 H616 0.950 . S
C642 C638 1.385 . S
C642 C641 1.374 . S
C643 C640 1.499 . S
C643 C644 1.373 . S
C643 C645 1.389 1_545 S
C644 H617 0.950 . S
C644 C630 1.377 . S
C644 C643 1.373 . S
C645 C629 1.377 . S
C645 C643 1.389 1_565 S
C645 C646 1.524 . S
C646 C645 1.524 . S
C646 C647 1.397 . S
C646 C651 1.363 . S
C647 H618 0.950 . S
C647 C646 1.397 . S
C647 C648 1.334 . S
C648 H619 0.950 . S
C648 C647 1.334 . S
C648 C649 1.287 . S
C649 C648 1.287 . S
C649 C650 1.524 . S
C649 H652 0.999 . S
C650 H620 0.950 . S
C650 C649 1.524 . S
C650 C651 1.415 . S
C651 H621 0.950 . S
C651 C646 1.363 . S
C651 C650 1.415 . S
H652 C649 0.999 . S
H653 C634 0.913 . S
H654 C672 0.951 . S
H655 C674 0.951 . S
H656 C676 0.950 . S
H657 C677 0.950 . S
H658 C679 0.950 . S
H659 C682 0.950 . S
H660 C683 0.950 . S
H661 C685 0.950 . S
H662 C686 0.950 . S
H663 C687 0.951 . S
H664 C689 0.951 . S
H665 C691 0.950 . S
H666 C692 0.950 . S
H667 C694 0.950 . S
H668 C697 0.950 . S
H669 C698 0.950 . S
H670 C700 0.950 . S
H671 C701 0.950 . S
C672 H654 0.951 . S
C672 C673 1.366 . S
C672 C674 1.388 . S
C673 C672 1.366 . S
C673 C677 1.385 . S
C674 H655 0.951 . S
C674 C672 1.388 . S
C674 C675 1.366 . S
C675 C674 1.366 . S
C675 C676 1.414 . S
C675 C678 1.499 . S
C676 H656 0.950 . S
C676 C675 1.414 . S
C676 C677 1.374 . S
C677 H657 0.950 . S
C677 C673 1.385 . S
C677 C676 1.374 . S
C678 C675 1.499 . S
C678 C679 1.373 . S
C678 C680 1.389 . S
C679 H658 0.950 . S
C679 C678 1.373 . S
C679 C695 1.377 . S
C680 C678 1.389 . S
C680 C681 1.524 . S
C680 C694 1.377 . S
C681 C680 1.524 . S
C681 C682 1.397 . S
C681 C686 1.363 . S
C682 H659 0.950 . S
C682 C681 1.397 . S
C682 C683 1.334 1_556 S
C683 H660 0.950 . S
C683 C682 1.334 1_554 S
C683 C684 1.287 . S
C684 C683 1.287 . S
C684 C685 1.524 1_554 S
C684 H703 0.913 . S
C685 H661 0.950 . S
C685 C684 1.524 1_556 S
C685 C686 1.415 . S
C686 H662 0.950 . S
C686 C681 1.363 . S
C686 C685 1.415 . S
C687 H663 0.951 . S
C687 C688 1.366 . S
C687 C689 1.388 . S
C688 C687 1.366 . S
C688 C692 1.385 . S
C689 H664 0.951 . S
C689 C687 1.388 . S
C689 C690 1.366 . S
C690 C689 1.366 . S
C690 C691 1.414 . S
C690 C693 1.499 . S
C691 H665 0.950 . S
C691 C690 1.414 . S
C691 C692 1.374 . S
C692 H666 0.950 . S
C692 C688 1.385 . S
C692 C691 1.374 . S
C693 C690 1.499 . S
C693 C694 1.373 . S
C693 C695 1.389 . S
C694 H667 0.950 . S
C694 C680 1.377 . S
C694 C693 1.373 . S
C695 C679 1.377 . S
C695 C693 1.389 . S
C695 C696 1.524 . S
C696 C695 1.524 . S
C696 C697 1.397 . S
C696 C701 1.363 . S
C697 H668 0.950 . S
C697 C696 1.397 . S
C697 C698 1.334 . S
C698 H669 0.950 . S
C698 C697 1.334 . S
C698 C699 1.287 . S
C699 C698 1.287 . S
C699 C700 1.524 . S
C699 H702 0.999 . S
C700 H670 0.950 . S
C700 C699 1.524 . S
C700 C701 1.415 . S
C701 H671 0.950 . S
C701 C696 1.363 . S
C701 C700 1.415 . S
H702 C699 0.999 . S
H703 C684 0.913 . S
H704 C722 0.951 . S
H705 C724 0.951 . S
H706 C726 0.950 . S
H707 C727 0.950 . S
H708 C729 0.950 . S
H709 C732 0.950 . S
H710 C733 0.950 . S
H711 C735 0.950 . S
H712 C736 0.950 . S
H713 C737 0.951 . S
H714 C739 0.951 . S
H715 C741 0.950 . S
H716 C742 0.950 . S
H717 C744 0.950 . S
H718 C747 0.950 . S
H719 C748 0.950 . S
H720 C750 0.950 . S
H721 C751 0.950 . S
C722 H704 0.951 . S
C722 C723 1.366 . S
C722 C724 1.388 . S
C723 C722 1.366 . S
C723 C727 1.385 . S
C724 H705 0.951 . S
C724 C722 1.388 . S
C724 C725 1.366 . S
C725 C724 1.366 . S
C725 C726 1.414 . S
C725 C728 1.499 . S
C726 H706 0.950 . S
C726 C725 1.414 . S
C726 C727 1.374 . S
C727 H707 0.950 . S
C727 C723 1.385 . S
C727 C726 1.374 . S
C728 C725 1.499 . S
C728 C729 1.373 . S
C728 C730 1.389 . S
C729 H708 0.950 . S
C729 C728 1.373 . S
C729 C745 1.377 . S
C730 C728 1.389 . S
C730 C731 1.524 . S
C730 C744 1.377 . S
C731 C730 1.524 . S
C731 C732 1.397 . S
C731 C736 1.363 . S
C732 H709 0.950 . S
C732 C731 1.397 . S
C732 C733 1.334 1_556 S
C733 H710 0.950 . S
C733 C732 1.334 1_554 S
C733 C734 1.287 . S
C734 C733 1.287 . S
C734 C735 1.524 . S
C734 H753 0.913 . S
C735 H711 0.950 . S
C735 C734 1.524 . S
C735 C736 1.415 1_554 S
C736 H712 0.950 . S
C736 C731 1.363 . S
C736 C735 1.415 1_556 S
C737 H713 0.951 . S
C737 C738 1.366 . S
C737 C739 1.388 . S
C738 C737 1.366 . S
C738 C742 1.385 . S
C739 H714 0.951 . S
C739 C737 1.388 . S
C739 C740 1.366 . S
C740 C739 1.366 . S
C740 C741 1.414 . S
C740 C743 1.499 . S
C741 H715 0.950 . S
C741 C740 1.414 . S
C741 C742 1.374 . S
C742 H716 0.950 . S
C742 C738 1.385 . S
C742 C741 1.374 . S
C743 C740 1.499 . S
C743 C744 1.373 . S
C743 C745 1.389 . S
C744 H717 0.950 . S
C744 C730 1.377 . S
C744 C743 1.373 . S
C745 C729 1.377 . S
C745 C743 1.389 . S
C745 C746 1.524 . S
C746 C745 1.524 . S
C746 C747 1.397 . S
C746 C751 1.363 . S
C747 H718 0.950 . S
C747 C746 1.397 . S
C747 C748 1.334 . S
C748 H719 0.950 . S
C748 C747 1.334 . S
C748 C749 1.287 . S
C749 C748 1.287 . S
C749 C750 1.524 . S
C749 H752 0.999 . S
C750 H720 0.950 . S
C750 C749 1.524 . S
C750 C751 1.415 . S
C751 H721 0.950 . S
C751 C746 1.363 . S
C751 C750 1.415 . S
H752 C749 0.999 . S
H753 C734 0.913 . S
H754 C772 0.951 . S
H755 C774 0.952 . S
H756 C776 0.950 . S
H757 C777 0.950 . S
H758 C779 0.950 . S
H759 C782 0.950 . S
H760 C783 0.950 . S
H761 C785 0.950 . S
H762 C786 0.950 . S
H763 C787 0.951 . S
H764 C789 0.951 . S
H765 C791 0.950 . S
H766 C792 0.950 . S
H767 C794 0.950 . S
H768 C797 0.950 . S
H769 C798 0.950 . S
H770 C800 0.950 . S
H771 C801 0.950 . S
C772 H754 0.951 . S
C772 C773 1.366 1_455 S
C772 C774 1.388 1_554 S
C773 C772 1.366 1_655 S
C773 C777 1.385 1_554 S
C774 H755 0.952 . S
C774 C772 1.388 1_556 S
C774 C775 1.366 1_455 S
C775 C774 1.366 1_655 S
C775 C776 1.414 . S
C775 C778 1.499 . S
C776 H756 0.950 . S
C776 C775 1.414 . S
C776 C777 1.374 . S
C777 H757 0.950 . S
C777 C773 1.385 1_556 S
C777 C776 1.374 . S
C778 C775 1.499 . S
C778 C779 1.373 . S
C778 C780 1.389 1_655 S
C779 H758 0.950 . S
C779 C778 1.373 . S
C779 C795 1.377 . S
C780 C778 1.389 1_455 S
C780 C781 1.524 . S
C780 C794 1.377 . S
C781 C780 1.524 . S
C781 C782 1.397 . S
C781 C786 1.363 . S
C782 H759 0.950 . S
C782 C781 1.397 . S
C782 C783 1.334 . S
C783 H760 0.950 . S
C783 C782 1.334 . S
C783 C784 1.287 . S
C784 C783 1.287 . S
C784 C785 1.524 . S
C784 H803 0.913 . S
C785 H761 0.950 . S
C785 C784 1.524 . S
C785 C786 1.415 . S
C786 H762 0.950 . S
C786 C781 1.363 . S
C786 C785 1.415 . S
C787 H763 0.951 . S
C787 C788 1.366 1_655 S
C787 C789 1.388 . S
C788 C787 1.366 1_455 S
C788 C792 1.385 . S
C789 H764 0.951 . S
C789 C787 1.388 . S
C789 C790 1.366 1_655 S
C790 C789 1.366 1_455 S
C790 C791 1.414 . S
C790 C793 1.499 . S
C791 H765 0.950 . S
C791 C790 1.414 . S
C791 C792 1.374 . S
C792 H766 0.950 . S
C792 C788 1.385 . S
C792 C791 1.374 . S
C793 C790 1.499 . S
C793 C794 1.373 . S
C793 C795 1.389 1_455 S
C794 H767 0.950 . S
C794 C780 1.377 . S
C794 C793 1.373 . S
C795 C779 1.377 . S
C795 C793 1.389 1_655 S
C795 C796 1.524 . S
C796 C795 1.524 . S
C796 C797 1.397 . S
C796 C801 1.363 . S
C797 H768 0.950 . S
C797 C796 1.397 . S
C797 C798 1.334 . S
C798 H769 0.950 . S
C798 C797 1.334 . S
C798 C799 1.287 . S
C799 C798 1.287 . S
C799 C800 1.524 . S
C799 H802 0.999 . S
C800 H770 0.950 . S
C800 C799 1.524 . S
C800 C801 1.415 . S
C801 H771 0.950 . S
C801 C796 1.363 . S
C801 C800 1.415 . S
H802 C799 0.999 . S
H803 C784 0.913 . S
H804 C822 0.951 . S
H805 C824 0.951 . S
H806 C826 0.950 . S
H807 C827 0.950 . S
H808 C829 0.950 . S
H809 C832 0.950 . S
H810 C833 0.950 . S
H811 C835 0.950 . S
H812 C836 0.950 . S
H813 C837 0.951 . S
H814 C839 0.951 . S
H815 C841 0.950 . S
H816 C842 0.950 . S
H817 C844 0.950 . S
H818 C847 0.950 . S
H819 C848 0.950 . S
H820 C850 0.950 . S
H821 C851 0.950 . S
C822 H804 0.951 . S
C822 C823 1.366 . S
C822 C824 1.388 . S
C823 C822 1.366 . S
C823 C827 1.385 . S
C824 H805 0.951 . S
C824 C822 1.388 . S
C824 C825 1.366 . S
C825 C824 1.366 . S
C825 C826 1.414 . S
C825 C828 1.499 . S
C826 H806 0.950 . S
C826 C825 1.414 . S
C826 C827 1.374 . S
C827 H807 0.950 . S
C827 C823 1.385 . S
C827 C826 1.374 . S
C828 C825 1.499 . S
C828 C829 1.373 . S
C828 C830 1.389 . S
C829 H808 0.950 . S
C829 C828 1.373 . S
C829 C845 1.377 . S
C830 C828 1.389 . S
C830 C831 1.524 . S
C830 C844 1.377 . S
C831 C830 1.524 . S
C831 C832 1.397 . S
C831 C836 1.363 . S
C832 H809 0.950 . S
C832 C831 1.397 . S
C832 C833 1.334 . S
C833 H810 0.950 . S
C833 C832 1.334 . S
C833 C834 1.287 . S
C834 C833 1.287 . S
C834 C835 1.524 . S
C834 H853 0.913 . S
C835 H811 0.950 . S
C835 C834 1.524 . S
C835 C836 1.415 . S
C836 H812 0.950 . S
C836 C831 1.363 . S
C836 C835 1.415 . S
C837 H813 0.951 . S
C837 C838 1.366 . S
C837 C839 1.388 . S
C838 C837 1.366 . S
C838 C842 1.385 . S
C839 H814 0.951 . S
C839 C837 1.388 . S
C839 C840 1.366 . S
C840 C839 1.366 . S
C840 C841 1.414 . S
C840 C843 1.499 . S
C841 H815 0.950 . S
C841 C840 1.414 . S
C841 C842 1.374 . S
C842 H816 0.950 . S
C842 C838 1.385 . S
C842 C841 1.374 . S
C843 C840 1.499 . S
C843 C844 1.373 . S
C843 C845 1.389 . S
C844 H817 0.950 . S
C844 C830 1.377 . S
C844 C843 1.373 . S
C845 C829 1.377 . S
C845 C843 1.389 . S
C845 C846 1.524 . S
C846 C845 1.524 . S
C846 C847 1.397 . S
C846 C851 1.363 . S
C847 H818 0.950 . S
C847 C846 1.397 . S
C847 C848 1.334 . S
C848 H819 0.950 . S
C848 C847 1.334 . S
C848 C849 1.287 . S
C849 C848 1.287 . S
C849 C850 1.524 . S
C849 H852 0.999 . S
C850 H820 0.950 . S
C850 C849 1.524 . S
C850 C851 1.415 . S
C851 H821 0.950 . S
C851 C846 1.363 . S
C851 C850 1.415 . S
H852 C849 0.999 . S
H853 C834 0.913 . S
H854 C872 0.951 . S
H855 C874 0.951 . S
H856 C876 0.950 . S
H857 C877 0.950 . S
H858 C879 0.950 . S
H859 C882 0.950 . S
H860 C883 0.950 . S
H861 C885 0.950 . S
H862 C886 0.950 1_545 S
H863 C887 0.951 . S
H864 C889 0.951 . S
H865 C891 0.950 . S
H866 C892 0.950 . S
H867 C894 0.950 . S
H868 C897 0.950 . S
H869 C898 0.950 . S
H870 C900 0.950 . S
H871 C901 0.950 1_565 S
C872 H854 0.951 . S
C872 C873 1.380 . S
C872 C874 1.388 . S
C873 C872 1.380 . S
C873 C877 1.368 1_545 S
C874 H855 0.951 . S
C874 C872 1.388 . S
C874 C875 1.333 1_545 S
C875 C874 1.333 1_565 S
C875 C876 1.442 . S
C875 C878 1.504 . S
C876 H856 0.950 . S
C876 C875 1.442 . S
C876 C877 1.374 . S
C877 H857 0.950 . S
C877 C873 1.368 1_565 S
C877 C876 1.374 . S
C878 C875 1.504 . S
C878 C879 1.373 1_565 S
C878 C880 1.389 . S
C879 H858 0.950 . S
C879 C878 1.373 1_545 S
C879 C895 1.377 . S
C880 C878 1.389 . S
C880 C881 1.524 . S
C880 C894 1.377 . S
C881 C880 1.524 . S
C881 C882 1.397 . S
C881 C886 1.363 . S
C882 H859 0.950 . S
C882 C881 1.397 . S
C882 C883 1.334 . S
C883 H860 0.950 . S
C883 C882 1.334 . S
C883 C884 1.287 . S
C884 C883 1.287 . S
C884 C885 1.524 . S
C884 H903 0.913 . S
C885 H861 0.950 . S
C885 C884 1.524 . S
C885 C886 1.415 . S
C886 H862 0.950 1_565 S
C886 C881 1.363 . S
C886 C885 1.415 . S
C887 H863 0.951 . S
C887 C888 1.366 . S
C887 C889 1.388 . S
C888 C887 1.366 . S
C888 C892 1.385 1_565 S
C889 H864 0.951 . S
C889 C887 1.388 . S
C889 C890 1.385 . S
C890 C889 1.385 . S
C890 C891 1.399 1_565 S
C890 C893 1.496 1_565 S
C891 H865 0.950 . S
C891 C890 1.399 1_545 S
C891 C892 1.374 . S
C892 H866 0.950 . S
C892 C888 1.385 1_545 S
C892 C891 1.374 . S
C893 C890 1.496 1_545 S
C893 C894 1.372 1_545 S
C893 C895 1.390 . S
C894 H867 0.950 . S
C894 C880 1.377 . S
C894 C893 1.372 1_565 S
C895 C879 1.377 . S
C895 C893 1.390 . S
C895 C896 1.524 . S
C896 C895 1.524 . S
C896 C897 1.397 . S
C896 C901 1.363 . S
C897 H868 0.950 . S
C897 C896 1.397 . S
C897 C898 1.334 . S
C898 H869 0.950 . S
C898 C897 1.334 . S
C898 C899 1.287 . S
C899 C898 1.287 . S
C899 C900 1.524 . S
C899 H902 0.999 . S
C900 H870 0.950 . S
C900 C899 1.524 . S
C900 C901 1.415 . S
C901 H871 0.950 1_545 S
C901 C896 1.363 . S
C901 C900 1.415 . S
H902 C899 0.999 . S
H903 C884 0.913 . S
H904 C922 0.951 . S
H905 C924 0.951 . S
H906 C926 0.950 . S
H907 C927 0.950 . S
H908 C929 0.950 . S
H909 C932 0.950 . S
H910 C933 0.950 . S
H911 C935 0.950 . S
H912 C936 0.950 . S
H913 C937 0.951 . S
H914 C939 0.951 . S
H915 C941 0.950 . S
H916 C942 0.950 . S
H917 C944 0.950 . S
H918 C947 0.950 . S
H919 C948 0.950 . S
H920 C950 0.950 . S
H921 C951 0.950 . S
C922 H904 0.951 . S
C922 C923 1.366 . S
C922 C924 1.388 . S
C923 C922 1.366 . S
C923 C927 1.385 . S
C924 H905 0.951 . S
C924 C922 1.388 . S
C924 C925 1.366 . S
C925 C924 1.366 . S
C925 C926 1.414 . S
C925 C928 1.499 . S
C926 H906 0.950 . S
C926 C925 1.414 . S
C926 C927 1.374 . S
C927 H907 0.950 . S
C927 C923 1.385 . S
C927 C926 1.374 . S
C928 C925 1.499 . S
C928 C929 1.373 . S
C928 C930 1.389 . S
C929 H908 0.950 . S
C929 C928 1.373 . S
C929 C945 1.377 . S
C930 C928 1.389 . S
C930 C931 1.524 . S
C930 C944 1.377 . S
C931 C930 1.524 . S
C931 C932 1.397 . S
C931 C936 1.363 . S
C932 H909 0.950 . S
C932 C931 1.397 . S
C932 C933 1.334 . S
C933 H910 0.950 . S
C933 C932 1.334 . S
C933 C934 1.287 . S
C934 C933 1.287 . S
C934 C935 1.524 . S
C934 H953 0.913 . S
C935 H911 0.950 . S
C935 C934 1.524 . S
C935 C936 1.415 . S
C936 H912 0.950 . S
C936 C931 1.363 . S
C936 C935 1.415 . S
C937 H913 0.951 . S
C937 C938 1.366 . S
C937 C939 1.388 . S
C938 C937 1.366 . S
C938 C942 1.385 . S
C939 H914 0.951 . S
C939 C937 1.388 . S
C939 C940 1.366 . S
C940 C939 1.366 . S
C940 C941 1.414 . S
C940 C943 1.499 . S
C941 H915 0.950 . S
C941 C940 1.414 . S
C941 C942 1.374 . S
C942 H916 0.950 . S
C942 C938 1.385 . S
C942 C941 1.374 . S
C943 C940 1.499 . S
C943 C944 1.373 . S
C943 C945 1.389 . S
C944 H917 0.950 . S
C944 C930 1.377 . S
C944 C943 1.373 . S
C945 C929 1.377 . S
C945 C943 1.389 . S
C945 C946 1.524 . S
C946 C945 1.524 . S
C946 C947 1.397 . S
C946 C951 1.363 . S
C947 H918 0.950 . S
C947 C946 1.397 . S
C947 C948 1.334 . S
C948 H919 0.950 . S
C948 C947 1.334 . S
C948 C949 1.287 . S
C949 C948 1.287 . S
C949 C950 1.524 . S
C949 H952 0.999 . S
C950 H920 0.950 . S
C950 C949 1.524 . S
C950 C951 1.415 . S
C951 H921 0.950 . S
C951 C946 1.363 . S
C951 C950 1.415 . S
H952 C949 0.999 . S
H953 C934 0.913 . S
H954 C972 0.951 . S
H955 C974 0.951 . S
H956 C976 0.950 . S
H957 C977 0.950 . S
H958 C979 0.950 . S
H959 C982 0.950 . S
H960 C983 0.950 . S
H961 C985 0.950 . S
H962 C986 0.950 . S
H963 C987 0.951 . S
H964 C989 0.951 . S
H965 C991 0.950 . S
H966 C992 0.950 . S
H967 C994 0.950 . S
H968 C997 0.950 . S
H969 C998 0.950 . S
H970 C1000 0.950 . S
H971 C1001 0.950 . S
C972 H954 0.951 . S
C972 C973 1.366 . S
C972 C974 1.388 . S
C973 C972 1.366 . S
C973 C977 1.385 . S
C974 H955 0.951 . S
C974 C972 1.388 . S
C974 C975 1.366 . S
C975 C974 1.366 . S
C975 C976 1.414 . S
C975 C978 1.499 . S
C976 H956 0.950 . S
C976 C975 1.414 . S
C976 C977 1.374 . S
C977 H957 0.950 . S
C977 C973 1.385 . S
C977 C976 1.374 . S
C978 C975 1.499 . S
C978 C979 1.373 . S
C978 C980 1.389 . S
C979 H958 0.950 . S
C979 C978 1.373 . S
C979 C995 1.377 . S
C980 C978 1.389 . S
C980 C981 1.524 . S
C980 C994 1.377 . S
C981 C980 1.524 . S
C981 C982 1.397 . S
C981 C986 1.363 . S
C982 H959 0.950 . S
C982 C981 1.397 . S
C982 C983 1.334 . S
C983 H960 0.950 . S
C983 C982 1.334 . S
C983 C984 1.287 . S
C984 C983 1.287 . S
C984 C985 1.524 . S
C984 H1003 0.913 . S
C985 H961 0.950 . S
C985 C984 1.524 . S
C985 C986 1.415 . S
C986 H962 0.950 . S
C986 C981 1.363 . S
C986 C985 1.415 . S
C987 H963 0.951 . S
C987 C988 1.366 . S
C987 C989 1.388 . S
C988 C987 1.366 . S
C988 C992 1.385 . S
C989 H964 0.951 . S
C989 C987 1.388 . S
C989 C990 1.366 . S
C990 C989 1.366 . S
C990 C991 1.414 . S
C990 C993 1.499 . S
C991 H965 0.950 . S
C991 C990 1.414 . S
C991 C992 1.374 . S
C992 H966 0.950 . S
C992 C988 1.385 . S
C992 C991 1.374 . S
C993 C990 1.499 . S
C993 C994 1.373 . S
C993 C995 1.389 . S
C994 H967 0.950 . S
C994 C980 1.377 . S
C994 C993 1.373 . S
C995 C979 1.377 . S
C995 C993 1.389 . S
C995 C996 1.524 . S
C996 C995 1.524 . S
C996 C997 1.397 . S
C996 C1001 1.363 . S
C997 H968 0.950 . S
C997 C996 1.397 . S
C997 C998 1.334 . S
C998 H969 0.950 . S
C998 C997 1.334 . S
C998 C999 1.287 . S
C999 C998 1.287 . S
C999 C1000 1.524 . S
C999 H1002 0.999 . S
C1000 H970 0.950 . S
C1000 C999 1.524 . S
C1000 C1001 1.415 . S
C1001 H971 0.950 . S
C1001 C996 1.363 . S
C1001 C1000 1.415 . S
H1002 C999 0.999 . S
H1003 C984 0.913 . S
H1004 C1022 0.951 . S
H1005 C1024 0.951 . S
H1006 C1026 0.950 . S
H1007 C1027 0.950 1_554 S
H1008 C1029 0.950 1_655 S
H1009 C1032 0.950 . S
H1010 C1033 0.950 . S
H1011 C1035 0.950 . S
H1012 C1036 0.950 . S
H1013 C1037 0.951 . S
H1014 C1039 0.951 . S
H1015 C1041 0.950 . S
H1016 C1042 0.950 . S
H1017 C1044 0.950 . S
H1018 C1047 0.950 . S
H1019 C1048 0.950 . S
H1020 C1050 0.950 . S
H1021 C1051 0.950 . S
C1022 H1004 0.951 . S
C1022 C1023 1.366 . S
C1022 C1024 1.388 1_655 S
C1023 C1022 1.366 . S
C1023 C1027 1.385 . S
C1024 H1005 0.951 . S
C1024 C1022 1.388 1_455 S
C1024 C1025 1.366 . S
C1025 C1024 1.366 . S
C1025 C1026 1.414 . S
C1025 C1028 1.499 . S
C1026 H1006 0.950 . S
C1026 C1025 1.414 . S
C1026 C1027 1.374 1_455 S
C1027 H1007 0.950 1_556 S
C1027 C1023 1.385 . S
C1027 C1026 1.374 1_655 S
C1028 C1025 1.499 . S
C1028 C1029 1.373 . S
C1028 C1030 1.389 . S
C1029 H1008 0.950 1_455 S
C1029 C1028 1.373 . S
C1029 C1045 1.377 . S
C1030 C1028 1.389 . S
C1030 C1031 1.524 . S
C1030 C1044 1.377 . S
C1031 C1030 1.524 . S
C1031 C1032 1.397 . S
C1031 C1036 1.363 . S
C1032 H1009 0.950 . S
C1032 C1031 1.397 . S
C1032 C1033 1.334 . S
C1033 H1010 0.950 . S
C1033 C1032 1.334 . S
C1033 C1034 1.287 . S
C1034 C1033 1.287 . S
C1034 C1035 1.524 . S
C1034 H1053 0.913 . S
C1035 H1011 0.950 . S
C1035 C1034 1.524 . S
C1035 C1036 1.415 . S
C1036 H1012 0.950 . S
C1036 C1031 1.363 . S
C1036 C1035 1.415 . S
C1037 H1013 0.951 . S
C1037 C1038 1.366 . S
C1037 C1039 1.388 . S
C1038 C1037 1.366 . S
C1038 C1042 1.385 . S
C1039 H1014 0.951 . S
C1039 C1037 1.388 . S
C1039 C1040 1.366 . S
C1040 C1039 1.366 . S
C1040 C1041 1.414 . S
C1040 C1043 1.499 . S
C1041 H1015 0.950 . S
C1041 C1040 1.414 . S
C1041 C1042 1.374 . S
C1042 H1016 0.950 . S
C1042 C1038 1.385 . S
C1042 C1041 1.374 . S
C1043 C1040 1.499 . S
C1043 C1044 1.373 . S
C1043 C1045 1.389 . S
C1044 H1017 0.950 . S
C1044 C1030 1.377 . S
C1044 C1043 1.373 . S
C1045 C1029 1.377 . S
C1045 C1043 1.389 . S
C1045 C1046 1.524 1_455 S
C1046 C1045 1.524 1_655 S
C1046 C1047 1.397 . S
C1046 C1051 1.363 . S
C1047 H1018 0.950 . S
C1047 C1046 1.397 . S
C1047 C1048 1.334 . S
C1048 H1019 0.950 . S
C1048 C1047 1.334 . S
C1048 C1049 1.287 . S
C1049 C1048 1.287 . S
C1049 C1050 1.524 . S
C1049 H1052 0.999 . S
C1050 H1020 0.950 . S
C1050 C1049 1.524 . S
C1050 C1051 1.415 . S
C1051 H1021 0.950 . S
C1051 C1046 1.363 . S
C1051 C1050 1.415 . S
H1052 C1049 0.999 . S
H1053 C1034 0.913 . S
H1054 C1072 0.951 . S
H1055 C1074 0.951 . S
H1056 C1076 0.950 . S
H1057 C1077 0.950 . S
H1058 C1079 0.950 . S
H1059 C1082 0.950 . S
H1060 C1083 0.950 . S
H1061 C1085 0.950 . S
H1062 C1086 0.950 . S
H1063 C1087 0.951 . S
H1064 C1089 0.951 . S
H1065 C1091 0.950 . S
H1066 C1092 0.950 . S
H1067 C1094 0.950 . S
H1068 C1097 0.950 . S
H1069 C1098 0.950 . S
H1070 C1100 0.950 . S
H1071 C1101 0.950 . S
C1072 H1054 0.951 . S
C1072 C1073 1.366 1_545 S
C1072 C1074 1.388 . S
C1073 C1072 1.366 1_565 S
C1073 C1077 1.385 . S
C1074 H1055 0.951 . S
C1074 C1072 1.388 . S
C1074 C1075 1.366 . S
C1075 C1074 1.366 . S
C1075 C1076 1.414 1_545 S
C1075 C1078 1.499 . S
C1076 H1056 0.950 . S
C1076 C1075 1.414 1_565 S
C1076 C1077 1.374 . S
C1077 H1057 0.950 . S
C1077 C1073 1.385 . S
C1077 C1076 1.374 . S
C1078 C1075 1.499 . S
C1078 C1079 1.373 1_545 S
C1078 C1080 1.389 . S
C1079 H1058 0.950 . S
C1079 C1078 1.373 1_565 S
C1079 C1095 1.377 . S
C1080 C1078 1.389 . S
C1080 C1081 1.524 . S
C1080 C1094 1.377 . S
C1081 C1080 1.524 . S
C1081 C1082 1.397 . S
C1081 C1086 1.363 . S
C1082 H1059 0.950 . S
C1082 C1081 1.397 . S
C1082 C1083 1.334 . S
C1083 H1060 0.950 . S
C1083 C1082 1.334 . S
C1083 C1084 1.287 . S
C1084 C1083 1.287 . S
C1084 C1085 1.524 . S
C1084 H1103 0.913 . S
C1085 H1061 0.950 . S
C1085 C1084 1.524 . S
C1085 C1086 1.415 . S
C1086 H1062 0.950 . S
C1086 C1081 1.363 . S
C1086 C1085 1.415 . S
C1087 H1063 0.951 . S
C1087 C1088 1.366 . S
C1087 C1089 1.388 . S
C1088 C1087 1.366 . S
C1088 C1092 1.385 . S
C1089 H1064 0.951 . S
C1089 C1087 1.388 . S
C1089 C1090 1.366 . S
C1090 C1089 1.366 . S
C1090 C1091 1.414 . S
C1090 C1093 1.499 . S
C1091 H1065 0.950 . S
C1091 C1090 1.414 . S
C1091 C1092 1.374 . S
C1092 H1066 0.950 . S
C1092 C1088 1.385 . S
C1092 C1091 1.374 . S
C1093 C1090 1.499 . S
C1093 C1094 1.373 . S
C1093 C1095 1.389 1_545 S
C1094 H1067 0.950 . S
C1094 C1080 1.377 . S
C1094 C1093 1.373 . S
C1095 C1079 1.377 . S
C1095 C1093 1.389 1_565 S
C1095 C1096 1.524 . S
C1096 C1095 1.524 . S
C1096 C1097 1.397 . S
C1096 C1101 1.363 . S
C1097 H1068 0.950 . S
C1097 C1096 1.397 . S
C1097 C1098 1.334 . S
C1098 H1069 0.950 . S
C1098 C1097 1.334 . S
C1098 C1099 1.287 . S
C1099 C1098 1.287 . S
C1099 C1100 1.524 . S
C1099 H1102 0.999 . S
C1100 H1070 0.950 . S
C1100 C1099 1.524 . S
C1100 C1101 1.415 . S
C1101 H1071 0.950 . S
C1101 C1096 1.363 . S
C1101 C1100 1.415 . S
H1102 C1099 0.999 . S
H1103 C1084 0.913 . S
H1104 C1122 0.951 . S
H1105 C1124 0.951 . S
H1106 C1126 0.950 . S
H1107 C1127 0.950 . S
H1108 C1129 0.950 . S
H1109 C1132 0.950 . S
H1110 C1133 0.950 . S
H1111 C1135 0.950 . S
H1112 C1136 0.950 . S
H1113 C1137 0.951 . S
H1114 C1139 0.951 . S
H1115 C1141 0.950 . S
H1116 C1142 0.950 . S
H1117 C1144 0.950 . S
H1118 C1147 0.950 . S
H1119 C1148 0.950 . S
H1120 C1150 0.950 . S
H1121 C1151 0.950 . S
C1122 H1104 0.951 . S
C1122 C1123 1.366 . S
C1122 C1124 1.388 . S
C1123 C1122 1.366 . S
C1123 C1127 1.385 . S
C1124 H1105 0.951 . S
C1124 C1122 1.388 . S
C1124 C1125 1.366 . S
C1125 C1124 1.366 . S
C1125 C1126 1.414 . S
C1125 C1128 1.499 . S
C1126 H1106 0.950 . S
C1126 C1125 1.414 . S
C1126 C1127 1.374 . S
C1127 H1107 0.950 . S
C1127 C1123 1.385 . S
C1127 C1126 1.374 . S
C1128 C1125 1.499 . S
C1128 C1129 1.373 . S
C1128 C1130 1.389 . S
C1129 H1108 0.950 . S
C1129 C1128 1.373 . S
C1129 C1145 1.377 . S
C1130 C1128 1.389 . S
C1130 C1131 1.524 . S
C1130 C1144 1.377 . S
C1131 C1130 1.524 . S
C1131 C1132 1.397 . S
C1131 C1136 1.363 . S
C1132 H1109 0.950 . S
C1132 C1131 1.397 . S
C1132 C1133 1.334 . S
C1133 H1110 0.950 . S
C1133 C1132 1.334 . S
C1133 C1134 1.287 . S
C1134 C1133 1.287 . S
C1134 C1135 1.524 . S
C1134 H1153 0.913 . S
C1135 H1111 0.950 . S
C1135 C1134 1.524 . S
C1135 C1136 1.415 . S
C1136 H1112 0.950 . S
C1136 C1131 1.363 . S
C1136 C1135 1.415 . S
C1137 H1113 0.951 . S
C1137 C1138 1.366 . S
C1137 C1139 1.388 . S
C1138 C1137 1.366 . S
C1138 C1142 1.385 . S
C1139 H1114 0.951 . S
C1139 C1137 1.388 . S
C1139 C1140 1.366 . S
C1140 C1139 1.366 . S
C1140 C1141 1.414 . S
C1140 C1143 1.499 . S
C1141 H1115 0.950 . S
C1141 C1140 1.414 . S
C1141 C1142 1.374 . S
C1142 H1116 0.950 . S
C1142 C1138 1.385 . S
C1142 C1141 1.374 . S
C1143 C1140 1.499 . S
C1143 C1144 1.373 . S
C1143 C1145 1.389 . S
C1144 H1117 0.950 . S
C1144 C1130 1.377 . S
C1144 C1143 1.373 . S
C1145 C1129 1.377 . S
C1145 C1143 1.389 . S
C1145 C1146 1.524 . S
C1146 C1145 1.524 . S
C1146 C1147 1.397 . S
C1146 C1151 1.363 . S
C1147 H1118 0.950 . S
C1147 C1146 1.397 . S
C1147 C1148 1.334 . S
C1148 H1119 0.950 . S
C1148 C1147 1.334 . S
C1148 C1149 1.287 . S
C1149 C1148 1.287 . S
C1149 C1150 1.524 . S
C1149 H1152 0.999 . S
C1150 H1120 0.950 . S
C1150 C1149 1.524 . S
C1150 C1151 1.415 . S
C1151 H1121 0.950 . S
C1151 C1146 1.363 . S
C1151 C1150 1.415 . S
H1152 C1149 0.999 . S
H1153 C1134 0.913 . S
H1154 C1172 0.951 . S
H1155 C1174 0.951 . S
H1156 C1176 0.950 . S
H1157 C1177 0.950 . S
H1158 C1179 0.950 . S
H1159 C1182 0.950 . S
H1160 C1183 0.950 . S
H1161 C1185 0.950 . S
H1162 C1186 0.950 . S
H1163 C1187 0.951 . S
H1164 C1189 0.951 . S
H1165 C1191 0.950 . S
H1166 C1192 0.950 . S
H1167 C1194 0.950 . S
H1168 C1197 0.950 . S
H1169 C1198 0.950 . S
H1170 C1200 0.950 . S
H1171 C1201 0.950 . S
C1172 H1154 0.951 . S
C1172 C1173 1.366 . S
C1172 C1174 1.388 . S
C1173 C1172 1.366 . S
C1173 C1177 1.385 . S
C1174 H1155 0.951 . S
C1174 C1172 1.388 . S
C1174 C1175 1.366 . S
C1175 C1174 1.366 . S
C1175 C1176 1.414 . S
C1175 C1178 1.499 . S
C1176 H1156 0.950 . S
C1176 C1175 1.414 . S
C1176 C1177 1.374 . S
C1177 H1157 0.950 . S
C1177 C1173 1.385 . S
C1177 C1176 1.374 . S
C1178 C1175 1.499 . S
C1178 C1179 1.373 . S
C1178 C1180 1.389 . S
C1179 H1158 0.950 . S
C1179 C1178 1.373 . S
C1179 C1195 1.377 . S
C1180 C1178 1.389 . S
C1180 C1181 1.524 . S
C1180 C1194 1.377 . S
C1181 C1180 1.524 . S
C1181 C1182 1.397 . S
C1181 C1186 1.363 . S
C1182 H1159 0.950 . S
C1182 C1181 1.397 . S
C1182 C1183 1.334 . S
C1183 H1160 0.950 . S
C1183 C1182 1.334 . S
C1183 C1184 1.287 . S
C1184 C1183 1.287 . S
C1184 C1185 1.524 . S
C1184 H1203 0.913 . S
C1185 H1161 0.950 . S
C1185 C1184 1.524 . S
C1185 C1186 1.415 . S
C1186 H1162 0.950 . S
C1186 C1181 1.363 . S
C1186 C1185 1.415 . S
C1187 H1163 0.951 . S
C1187 C1188 1.366 . S
C1187 C1189 1.388 . S
C1188 C1187 1.366 . S
C1188 C1192 1.385 . S
C1189 H1164 0.951 . S
C1189 C1187 1.388 . S
C1189 C1190 1.366 . S
C1190 C1189 1.366 . S
C1190 C1191 1.414 . S
C1190 C1193 1.499 . S
C1191 H1165 0.950 . S
C1191 C1190 1.414 . S
C1191 C1192 1.374 . S
C1192 H1166 0.950 . S
C1192 C1188 1.385 . S
C1192 C1191 1.374 . S
C1193 C1190 1.499 . S
C1193 C1194 1.373 . S
C1193 C1195 1.389 . S
C1194 H1167 0.950 . S
C1194 C1180 1.377 . S
C1194 C1193 1.373 . S
C1195 C1179 1.377 . S
C1195 C1193 1.389 . S
C1195 C1196 1.524 . S
C1196 C1195 1.524 . S
C1196 C1197 1.397 . S
C1196 C1201 1.363 . S
C1197 H1168 0.950 . S
C1197 C1196 1.397 . S
C1197 C1198 1.334 . S
C1198 H1169 0.950 . S
C1198 C1197 1.334 . S
C1198 C1199 1.287 . S
C1199 C1198 1.287 . S
C1199 C1200 1.524 . S
C1199 H1202 0.999 . S
C1200 H1170 0.950 . S
C1200 C1199 1.524 . S
C1200 C1201 1.415 . S
C1201 H1171 0.950 . S
C1201 C1196 1.363 . S
C1201 C1200 1.415 . S
H1202 C1199 0.999 . S
H1203 C1184 0.913 . S
H1204 C1222 0.951 . S
H1205 C1224 0.951 . S
H1206 C1226 0.950 . S
H1207 C1227 0.950 . S
H1208 C1229 0.950 . S
H1209 C1232 0.950 . S
H1210 C1233 0.950 . S
H1211 C1235 0.950 . S
H1212 C1236 0.950 . S
H1213 C1237 0.951 . S
H1214 C1239 0.951 . S
H1215 C1241 0.950 . S
H1216 C1242 0.950 . S
H1217 C1244 0.950 . S
H1218 C1247 0.950 . S
H1219 C1248 0.950 . S
H1220 C1250 0.950 1_655 S
H1221 C1251 0.950 . S
C1222 H1204 0.951 . S
C1222 C1223 1.366 . S
C1222 C1224 1.388 . S
C1223 C1222 1.366 . S
C1223 C1227 1.385 . S
C1224 H1205 0.951 . S
C1224 C1222 1.388 . S
C1224 C1225 1.366 . S
C1225 C1224 1.366 . S
C1225 C1226 1.414 . S
C1225 C1228 1.499 1_554 S
C1226 H1206 0.950 . S
C1226 C1225 1.414 . S
C1226 C1227 1.374 . S
C1227 H1207 0.950 . S
C1227 C1223 1.385 . S
C1227 C1226 1.374 . S
C1228 C1225 1.499 1_556 S
C1228 C1229 1.373 1_556 S
C1228 C1230 1.389 . S
C1229 H1208 0.950 . S
C1229 C1228 1.373 1_554 S
C1229 C1245 1.377 1_554 S
C1230 C1228 1.389 . S
C1230 C1231 1.524 . S
C1230 C1244 1.377 . S
C1231 C1230 1.524 . S
C1231 C1232 1.397 . S
C1231 C1236 1.363 . S
C1232 H1209 0.950 . S
C1232 C1231 1.397 . S
C1232 C1233 1.334 . S
C1233 H1210 0.950 . S
C1233 C1232 1.334 . S
C1233 C1234 1.287 . S
C1234 C1233 1.287 . S
C1234 C1235 1.524 . S
C1234 H1253 0.913 . S
C1235 H1211 0.950 . S
C1235 C1234 1.524 . S
C1235 C1236 1.415 . S
C1236 H1212 0.950 . S
C1236 C1231 1.363 . S
C1236 C1235 1.415 . S
C1237 H1213 0.951 . S
C1237 C1238 1.366 . S
C1237 C1239 1.388 . S
C1238 C1237 1.366 . S
C1238 C1242 1.385 . S
C1239 H1214 0.951 . S
C1239 C1237 1.388 . S
C1239 C1240 1.366 . S
C1240 C1239 1.366 . S
C1240 C1241 1.414 . S
C1240 C1243 1.499 . S
C1241 H1215 0.950 . S
C1241 C1240 1.414 . S
C1241 C1242 1.374 . S
C1242 H1216 0.950 . S
C1242 C1238 1.385 . S
C1242 C1241 1.374 . S
C1243 C1240 1.499 . S
C1243 C1244 1.373 . S
C1243 C1245 1.389 . S
C1244 H1217 0.950 . S
C1244 C1230 1.377 . S
C1244 C1243 1.373 . S
C1245 C1229 1.377 1_556 S
C1245 C1243 1.389 . S
C1245 C1246 1.524 1_556 S
C1246 C1245 1.524 1_554 S
C1246 C1247 1.397 . S
C1246 C1251 1.363 . S
C1247 H1218 0.950 . S
C1247 C1246 1.397 . S
C1247 C1248 1.334 . S
C1248 H1219 0.950 . S
C1248 C1247 1.334 . S
C1248 C1249 1.287 . S
C1249 C1248 1.287 . S
C1249 C1250 1.524 . S
C1249 H1252 1.028 . S
C1250 H1220 0.950 1_455 S
C1250 C1249 1.524 . S
C1250 C1251 1.415 . S
C1251 H1221 0.950 . S
C1251 C1246 1.363 . S
C1251 C1250 1.415 . S
H1252 C1249 1.028 . S
H1253 C1234 0.913 . S
H1254 C1272 0.954 . S
H1255 C1274 0.951 . S
H1256 C1276 0.950 . S
H1257 C1277 0.950 . S
H1258 C1279 0.950 . S
H1259 C1282 0.950 1_554 S
H1260 C1283 0.950 1_554 S
H1261 C1285 0.950 . S
H1262 C1286 0.950 . S
H1263 C1287 0.951 . S
H1264 C1289 0.951 . S
H1265 C1291 0.950 . S
H1266 C1292 0.950 . S
H1267 C1294 0.950 . S
H1268 C1297 0.950 . S
H1269 C1298 0.950 . S
H1270 C1300 0.950 . S
H1271 C1301 0.950 . S
C1272 H1254 0.954 . S
C1272 C1273 1.355 1_566 S
C1272 C1274 1.393 . S
C1273 C1272 1.355 1_544 S
C1273 C1277 1.387 . S
C1274 H1255 0.951 . S
C1274 C1272 1.393 . S
C1274 C1275 1.382 . S
C1275 C1274 1.382 . S
C1275 C1276 1.396 1_566 S
C1275 C1278 1.499 . S
C1276 H1256 0.950 . S
C1276 C1275 1.396 1_544 S
C1276 C1277 1.374 . S
C1277 H1257 0.950 . S
C1277 C1273 1.387 . S
C1277 C1276 1.374 . S
C1278 C1275 1.499 . S
C1278 C1279 1.342 1_565 S
C1278 C1280 1.420 . S
C1279 H1258 0.950 . S
C1279 C1278 1.342 1_545 S
C1279 C1295 1.377 . S
C1280 C1278 1.420 . S
C1280 C1281 1.524 . S
C1280 C1294 1.377 . S
C1281 C1280 1.524 . S
C1281 C1282 1.397 . S
C1281 C1286 1.363 . S
C1282 H1259 0.950 1_556 S
C1282 C1281 1.397 . S
C1282 C1283 1.334 . S
C1283 H1260 0.950 1_556 S
C1283 C1282 1.334 . S
C1283 C1284 1.287 . S
C1284 C1283 1.287 . S
C1284 C1285 1.524 . S
C1284 H1303 0.913 . S
C1285 H1261 0.950 . S
C1285 C1284 1.524 . S
C1285 C1286 1.415 . S
C1286 H1262 0.950 . S
C1286 C1281 1.363 . S
C1286 C1285 1.415 . S
C1287 H1263 0.951 . S
C1287 C1288 1.367 1_545 S
C1287 C1289 1.388 . S
C1288 C1287 1.367 1_565 S
C1288 C1292 1.384 . S
C1289 H1264 0.951 . S
C1289 C1287 1.388 . S
C1289 C1290 1.385 . S
C1290 C1289 1.385 . S
C1290 C1291 1.393 1_545 S
C1290 C1293 1.499 . S
C1291 H1265 0.950 . S
C1291 C1290 1.393 1_565 S
C1291 C1292 1.374 . S
C1292 H1266 0.950 . S
C1292 C1288 1.384 . S
C1292 C1291 1.374 . S
C1293 C1290 1.499 . S
C1293 C1294 1.335 1_545 S
C1293 C1295 1.427 . S
C1294 H1267 0.950 . S
C1294 C1280 1.377 . S
C1294 C1293 1.335 1_565 S
C1295 C1279 1.377 . S
C1295 C1293 1.427 . S
C1295 C1296 1.524 . S
C1296 C1295 1.524 . S
C1296 C1297 1.397 . S
C1296 C1301 1.363 . S
C1297 H1268 0.950 . S
C1297 C1296 1.397 . S
C1297 C1298 1.334 . S
C1298 H1269 0.950 . S
C1298 C1297 1.334 . S
C1298 C1299 1.287 . S
C1299 C1298 1.287 . S
C1299 C1300 1.524 . S
C1299 H1302 0.999 . S
C1300 H1270 0.950 . S
C1300 C1299 1.524 . S
C1300 C1301 1.415 . S
C1301 H1271 0.950 . S
C1301 C1296 1.363 . S
C1301 C1300 1.415 . S
H1302 C1299 0.999 . S
H1303 C1284 0.913 . S
H1304 C1322 0.951 . S
H1305 C1324 0.951 . S
H1306 C1326 0.950 . S
H1307 C1327 0.950 . S
H1308 C1329 0.950 . S
H1309 C1332 0.950 . S
H1310 C1333 0.950 . S
H1311 C1335 0.950 . S
H1312 C1336 0.950 . S
H1313 C1337 0.951 . S
H1314 C1339 0.951 . S
H1315 C1341 0.950 . S
H1316 C1342 0.950 . S
H1317 C1344 0.950 . S
H1318 C1347 0.950 . S
H1319 C1348 0.950 . S
H1320 C1350 0.950 . S
H1321 C1351 0.950 . S
C1322 H1304 0.951 . S
C1322 C1323 1.366 . S
C1322 C1324 1.388 . S
C1323 C1322 1.366 . S
C1323 C1327 1.385 1_554 S
C1324 H1305 0.951 . S
C1324 C1322 1.388 . S
C1324 C1325 1.366 1_554 S
C1325 C1324 1.366 1_556 S
C1325 C1326 1.414 . S
C1325 C1328 1.499 . S
C1326 H1306 0.950 . S
C1326 C1325 1.414 . S
C1326 C1327 1.374 . S
C1327 H1307 0.950 . S
C1327 C1323 1.385 1_556 S
C1327 C1326 1.374 . S
C1328 C1325 1.499 . S
C1328 C1329 1.373 . S
C1328 C1330 1.389 . S
C1329 H1308 0.950 . S
C1329 C1328 1.373 . S
C1329 C1345 1.377 . S
C1330 C1328 1.389 . S
C1330 C1331 1.524 . S
C1330 C1344 1.377 . S
C1331 C1330 1.524 . S
C1331 C1332 1.397 . S
C1331 C1336 1.363 1_556 S
C1332 H1309 0.950 . S
C1332 C1331 1.397 . S
C1332 C1333 1.334 . S
C1333 H1310 0.950 . S
C1333 C1332 1.334 . S
C1333 C1334 1.287 1_556 S
C1334 C1333 1.287 1_554 S
C1334 C1335 1.524 . S
C1334 H1353 0.913 . S
C1335 H1311 0.950 . S
C1335 C1334 1.524 . S
C1335 C1336 1.415 . S
C1336 H1312 0.950 . S
C1336 C1331 1.363 1_554 S
C1336 C1335 1.415 . S
C1337 H1313 0.951 . S
C1337 C1338 1.366 . S
C1337 C1339 1.388 . S
C1338 C1337 1.366 . S
C1338 C1342 1.385 . S
C1339 H1314 0.951 . S
C1339 C1337 1.388 . S
C1339 C1340 1.366 . S
C1340 C1339 1.366 . S
C1340 C1341 1.414 . S
C1340 C1343 1.499 . S
C1341 H1315 0.950 . S
C1341 C1340 1.414 . S
C1341 C1342 1.374 . S
C1342 H1316 0.950 . S
C1342 C1338 1.385 . S
C1342 C1341 1.374 . S
C1343 C1340 1.499 . S
C1343 C1344 1.373 . S
C1343 C1345 1.389 . S
C1344 H1317 0.950 . S
C1344 C1330 1.377 . S
C1344 C1343 1.373 . S
C1345 C1329 1.377 . S
C1345 C1343 1.389 . S
C1345 C1346 1.524 . S
C1346 C1345 1.524 . S
C1346 C1347 1.397 . S
C1346 C1351 1.363 . S
C1347 H1318 0.950 . S
C1347 C1346 1.397 . S
C1347 C1348 1.334 . S
C1348 H1319 0.950 . S
C1348 C1347 1.334 . S
C1348 C1349 1.287 . S
C1349 C1348 1.287 . S
C1349 C1350 1.524 . S
C1349 H1352 0.999 . S
C1350 H1320 0.950 . S
C1350 C1349 1.524 . S
C1350 C1351 1.415 . S
C1351 H1321 0.950 . S
C1351 C1346 1.363 . S
C1351 C1350 1.415 . S
H1352 C1349 0.999 . S
H1353 C1334 0.913 . S
H1354 C1372 0.951 . S
H1355 C1374 0.951 . S
H1356 C1376 0.950 . S
H1357 C1377 0.950 . S
H1358 C1379 0.950 . S
H1359 C1382 0.950 . S
H1360 C1383 0.950 . S
H1361 C1385 0.950 . S
H1362 C1386 0.950 1_556 S
H1363 C1387 0.951 . S
H1364 C1389 0.951 . S
H1365 C1391 0.950 . S
H1366 C1392 0.950 . S
H1367 C1394 0.950 . S
H1368 C1397 0.950 . S
H1369 C1398 0.950 . S
H1370 C1400 0.950 . S
H1371 C1401 0.950 . S
C1372 H1354 0.951 . S
C1372 C1373 1.366 . S
C1372 C1374 1.388 1_554 S
C1373 C1372 1.366 . S
C1373 C1377 1.385 1_554 S
C1374 H1355 0.951 . S
C1374 C1372 1.388 1_556 S
C1374 C1375 1.366 . S
C1375 C1374 1.366 . S
C1375 C1376 1.414 . S
C1375 C1378 1.499 . S
C1376 H1356 0.950 . S
C1376 C1375 1.414 . S
C1376 C1377 1.374 . S
C1377 H1357 0.950 . S
C1377 C1373 1.385 1_556 S
C1377 C1376 1.374 . S
C1378 C1375 1.499 . S
C1378 C1379 1.373 . S
C1378 C1380 1.389 . S
C1379 H1358 0.950 . S
C1379 C1378 1.373 . S
C1379 C1395 1.377 . S
C1380 C1378 1.389 . S
C1380 C1381 1.524 1_556 S
C1380 C1394 1.377 . S
C1381 C1380 1.524 1_554 S
C1381 C1382 1.397 . S
C1381 C1386 1.363 . S
C1382 H1359 0.950 . S
C1382 C1381 1.397 . S
C1382 C1383 1.334 . S
C1383 H1360 0.950 . S
C1383 C1382 1.334 . S
C1383 C1384 1.287 . S
C1384 C1383 1.287 . S
C1384 C1385 1.524 . S
C1384 H1403 0.913 . S
C1385 H1361 0.950 . S
C1385 C1384 1.524 . S
C1385 C1386 1.415 . S
C1386 H1362 0.950 1_554 S
C1386 C1381 1.363 . S
C1386 C1385 1.415 . S
C1387 H1363 0.951 . S
C1387 C1388 1.366 . S
C1387 C1389 1.388 . S
C1388 C1387 1.366 . S
C1388 C1392 1.385 . S
C1389 H1364 0.951 . S
C1389 C1387 1.388 . S
C1389 C1390 1.366 . S
C1390 C1389 1.366 . S
C1390 C1391 1.414 . S
C1390 C1393 1.499 . S
C1391 H1365 0.950 . S
C1391 C1390 1.414 . S
C1391 C1392 1.374 . S
C1392 H1366 0.950 . S
C1392 C1388 1.385 . S
C1392 C1391 1.374 . S
C1393 C1390 1.499 . S
C1393 C1394 1.373 . S
C1393 C1395 1.389 . S
C1394 H1367 0.950 . S
C1394 C1380 1.377 . S
C1394 C1393 1.373 . S
C1395 C1379 1.377 . S
C1395 C1393 1.389 . S
C1395 C1396 1.524 . S
C1396 C1395 1.524 . S
C1396 C1397 1.397 . S
C1396 C1401 1.363 . S
C1397 H1368 0.950 . S
C1397 C1396 1.397 . S
C1397 C1398 1.334 . S
C1398 H1369 0.950 . S
C1398 C1397 1.334 . S
C1398 C1399 1.287 . S
C1399 C1398 1.287 . S
C1399 C1400 1.524 . S
C1399 H1402 0.999 . S
C1400 H1370 0.950 . S
C1400 C1399 1.524 . S
C1400 C1401 1.415 . S
C1401 H1371 0.950 . S
C1401 C1396 1.363 . S
C1401 C1400 1.415 . S
H1402 C1399 0.999 . S
H1403 C1384 0.913 . S
H1404 C1422 0.951 . S
H1405 C1424 0.951 . S
H1406 C1426 0.950 . S
H1407 C1427 0.950 . S
H1408 C1429 0.950 . S
H1409 C1432 0.950 . S
H1410 C1433 0.950 . S
H1411 C1435 0.950 . S
H1412 C1436 0.950 . S
H1413 C1437 0.951 . S
H1414 C1439 0.951 . S
H1415 C1441 0.954 . S
H1416 C1442 0.950 . S
H1417 C1444 0.950 . S
H1418 C1447 0.950 . S
H1419 C1448 0.950 . S
H1420 C1450 0.950 . S
H1421 C1451 0.950 . S
C1422 H1404 0.951 . S
C1422 C1423 1.366 . S
C1422 C1424 1.388 . S
C1423 C1422 1.366 . S
C1423 C1427 1.385 . S
C1424 H1405 0.951 . S
C1424 C1422 1.388 . S
C1424 C1425 1.366 . S
C1425 C1424 1.366 . S
C1425 C1426 1.414 . S
C1425 C1428 1.500 . S
C1426 H1406 0.950 . S
C1426 C1425 1.414 . S
C1426 C1427 1.374 . S
C1427 H1407 0.950 . S
C1427 C1423 1.385 . S
C1427 C1426 1.374 . S
C1428 C1425 1.500 . S
C1428 C1429 1.389 . S
C1428 C1430 1.374 1_655 S
C1429 H1408 0.950 . S
C1429 C1428 1.389 . S
C1429 C1445 1.377 . S
C1430 C1428 1.374 1_455 S
C1430 C1431 1.524 . S
C1430 C1444 1.377 . S
C1431 C1430 1.524 . S
C1431 C1432 1.397 . S
C1431 C1436 1.363 . S
C1432 H1409 0.950 . S
C1432 C1431 1.397 . S
C1432 C1433 1.334 . S
C1433 H1410 0.950 . S
C1433 C1432 1.334 . S
C1433 C1434 1.287 . S
C1434 C1433 1.287 . S
C1434 C1435 1.524 . S
C1434 H1453 0.913 . S
C1435 H1411 0.950 . S
C1435 C1434 1.524 . S
C1435 C1436 1.415 . S
C1436 H1412 0.950 . S
C1436 C1431 1.363 . S
C1436 C1435 1.415 . S
C1437 H1413 0.951 . S
C1437 C1438 1.366 . S
C1437 C1439 1.388 . S
C1438 C1437 1.366 . S
C1438 C1442 1.385 . S
C1439 H1414 0.951 . S
C1439 C1437 1.388 . S
C1439 C1440 1.366 . S
C1440 C1439 1.366 . S
C1440 C1441 1.414 . S
C1440 C1443 1.498 1_455 S
C1441 H1415 0.954 . S
C1441 C1440 1.414 . S
C1441 C1442 1.374 . S
C1442 H1416 0.950 . S
C1442 C1438 1.385 . S
C1442 C1441 1.374 . S
C1443 C1440 1.498 1_655 S
C1443 C1444 1.362 1_655 S
C1443 C1445 1.400 . S
C1444 H1417 0.950 . S
C1444 C1430 1.377 . S
C1444 C1443 1.362 1_455 S
C1445 C1429 1.377 . S
C1445 C1443 1.400 . S
C1445 C1446 1.524 . S
C1446 C1445 1.524 . S
C1446 C1447 1.397 . S
C1446 C1451 1.363 . S
C1447 H1418 0.950 . S
C1447 C1446 1.397 . S
C1447 C1448 1.334 . S
C1448 H1419 0.950 . S
C1448 C1447 1.334 . S
C1448 C1449 1.287 . S
C1449 C1448 1.287 . S
C1449 C1450 1.524 . S
C1449 H1452 0.999 . S
C1450 H1420 0.950 . S
C1450 C1449 1.524 . S
C1450 C1451 1.415 . S
C1451 H1421 0.950 . S
C1451 C1446 1.363 . S
C1451 C1450 1.415 . S
H1452 C1449 0.999 . S
H1453 C1434 0.913 . S
H1454 C1472 0.951 . S
H1455 C1474 0.951 . S
H1456 C1476 0.950 . S
H1457 C1477 0.950 . S
H1458 C1479 0.972 . S
H1459 C1482 0.950 1_545 S
H1460 C1483 0.950 . S
H1461 C1485 0.950 . S
H1462 C1486 0.950 . S
H1463 C1487 0.951 . S
H1464 C1489 0.951 . S
H1465 C1491 0.950 . S
H1466 C1492 0.950 . S
H1467 C1494 0.950 . S
H1468 C1497 0.950 . S
H1469 C1498 0.950 . S
H1470 C1500 0.950 . S
H1471 C1501 0.950 . S
C1472 H1454 0.951 . S
C1472 C1473 1.366 . S
C1472 C1474 1.388 . S
C1473 C1472 1.366 . S
C1473 C1477 1.385 1_565 S
C1474 H1455 0.951 . S
C1474 C1472 1.388 . S
C1474 C1475 1.366 . S
C1475 C1474 1.366 . S
C1475 C1476 1.414 1_565 S
C1475 C1478 1.499 . S
C1476 H1456 0.950 . S
C1476 C1475 1.414 1_545 S
C1476 C1477 1.374 . S
C1477 H1457 0.950 . S
C1477 C1473 1.385 1_545 S
C1477 C1476 1.374 . S
C1478 C1475 1.499 . S
C1478 C1479 1.358 1_565 S
C1478 C1480 1.389 . S
C1479 H1458 0.972 . S
C1479 C1478 1.358 1_545 S
C1479 C1495 1.372 1_545 S
C1480 C1478 1.389 . S
C1480 C1481 1.524 . S
C1480 C1494 1.377 . S
C1481 C1480 1.524 . S
C1481 C1482 1.397 . S
C1481 C1486 1.363 . S
C1482 H1459 0.950 1_565 S
C1482 C1481 1.397 . S
C1482 C1483 1.334 . S
C1483 H1460 0.950 . S
C1483 C1482 1.334 . S
C1483 C1484 1.287 . S
C1484 C1483 1.287 . S
C1484 C1485 1.524 . S
C1484 H1503 0.913 . S
C1485 H1461 0.950 . S
C1485 C1484 1.524 . S
C1485 C1486 1.415 . S
C1486 H1462 0.950 . S
C1486 C1481 1.363 . S
C1486 C1485 1.415 . S
C1487 H1463 0.951 . S
C1487 C1488 1.366 1_545 S
C1487 C1489 1.388 . S
C1488 C1487 1.366 1_565 S
C1488 C1492 1.385 . S
C1489 H1464 0.951 . S
C1489 C1487 1.388 . S
C1489 C1490 1.366 1_545 S
C1490 C1489 1.366 1_565 S
C1490 C1491 1.414 . S
C1490 C1493 1.499 . S
C1491 H1465 0.950 . S
C1491 C1490 1.414 . S
C1491 C1492 1.374 . S
C1492 H1466 0.950 . S
C1492 C1488 1.385 . S
C1492 C1491 1.374 . S
C1493 C1490 1.499 . S
C1493 C1494 1.373 . S
C1493 C1495 1.389 . S
C1494 H1467 0.950 . S
C1494 C1480 1.377 . S
C1494 C1493 1.373 . S
C1495 C1479 1.372 1_565 S
C1495 C1493 1.389 . S
C1495 C1496 1.524 1_565 S
C1496 C1495 1.524 1_545 S
C1496 C1497 1.397 1_545 S
C1496 C1501 1.363 . S
C1497 H1468 0.950 . S
C1497 C1496 1.397 1_565 S
C1497 C1498 1.334 . S
C1498 H1469 0.950 . S
C1498 C1497 1.334 . S
C1498 C1499 1.287 1_565 S
C1499 C1498 1.287 1_545 S
C1499 C1500 1.524 . S
C1499 H1502 0.999 . S
C1500 H1470 0.950 . S
C1500 C1499 1.524 . S
C1500 C1501 1.415 . S
C1501 H1471 0.950 . S
C1501 C1496 1.363 . S
C1501 C1500 1.415 . S
H1502 C1499 0.999 . S
H1503 C1484 0.913 . S
H1504 C1522 0.951 . S
H1505 C1524 0.951 . S
H1506 C1526 0.950 . S
H1507 C1527 0.950 . S
H1508 C1529 0.950 . S
H1509 C1532 0.950 . S
H1510 C1533 0.950 . S
H1511 C1535 0.950 . S
H1512 C1536 0.950 . S
H1513 C1537 0.951 . S
H1514 C1539 0.951 . S
H1515 C1541 0.950 . S
H1516 C1542 0.950 . S
H1517 C1544 0.950 . S
H1518 C1547 0.950 . S
H1519 C1548 0.950 . S
H1520 C1550 0.950 . S
H1521 C1551 0.950 . S
C1522 H1504 0.951 . S
C1522 C1523 1.366 . S
C1522 C1524 1.388 . S
C1523 C1522 1.366 . S
C1523 C1527 1.385 . S
C1524 H1505 0.951 . S
C1524 C1522 1.388 . S
C1524 C1525 1.366 . S
C1525 C1524 1.366 . S
C1525 C1526 1.414 . S
C1525 C1528 1.499 . S
C1526 H1506 0.950 . S
C1526 C1525 1.414 . S
C1526 C1527 1.374 . S
C1527 H1507 0.950 . S
C1527 C1523 1.385 . S
C1527 C1526 1.374 . S
C1528 C1525 1.499 . S
C1528 C1529 1.373 . S
C1528 C1530 1.389 . S
C1529 H1508 0.950 . S
C1529 C1528 1.373 . S
C1529 C1545 1.377 . S
C1530 C1528 1.389 . S
C1530 C1531 1.524 . S
C1530 C1544 1.377 . S
C1531 C1530 1.524 . S
C1531 C1532 1.397 . S
C1531 C1536 1.363 . S
C1532 H1509 0.950 . S
C1532 C1531 1.397 . S
C1532 C1533 1.334 . S
C1533 H1510 0.950 . S
C1533 C1532 1.334 . S
C1533 C1534 1.287 . S
C1534 C1533 1.287 . S
C1534 C1535 1.524 . S
C1534 H1553 0.913 . S
C1535 H1511 0.950 . S
C1535 C1534 1.524 . S
C1535 C1536 1.415 . S
C1536 H1512 0.950 . S
C1536 C1531 1.363 . S
C1536 C1535 1.415 . S
C1537 H1513 0.951 . S
C1537 C1538 1.366 . S
C1537 C1539 1.388 . S
C1538 C1537 1.366 . S
C1538 C1542 1.385 . S
C1539 H1514 0.951 . S
C1539 C1537 1.388 . S
C1539 C1540 1.366 . S
C1540 C1539 1.366 . S
C1540 C1541 1.414 . S
C1540 C1543 1.499 . S
C1541 H1515 0.950 . S
C1541 C1540 1.414 . S
C1541 C1542 1.374 . S
C1542 H1516 0.950 . S
C1542 C1538 1.385 . S
C1542 C1541 1.374 . S
C1543 C1540 1.499 . S
C1543 C1544 1.373 . S
C1543 C1545 1.389 . S
C1544 H1517 0.950 . S
C1544 C1530 1.377 . S
C1544 C1543 1.373 . S
C1545 C1529 1.377 . S
C1545 C1543 1.389 . S
C1545 C1546 1.524 . S
C1546 C1545 1.524 . S
C1546 C1547 1.397 . S
C1546 C1551 1.363 . S
C1547 H1518 0.950 . S
C1547 C1546 1.397 . S
C1547 C1548 1.334 . S
C1548 H1519 0.950 . S
C1548 C1547 1.334 . S
C1548 C1549 1.287 . S
C1549 C1548 1.287 . S
C1549 C1550 1.524 . S
C1549 H1552 0.999 . S
C1550 H1520 0.950 . S
C1550 C1549 1.524 . S
C1550 C1551 1.415 . S
C1551 H1521 0.950 . S
C1551 C1546 1.363 . S
C1551 C1550 1.415 . S
H1552 C1549 0.999 . S
H1553 C1534 0.913 . S
H1554 C1572 0.951 . S
H1555 C1574 0.951 . S
H1556 C1576 0.950 . S
H1557 C1577 0.950 . S
H1558 C1579 0.950 . S
H1559 C1582 0.950 . S
H1560 C1583 0.950 . S
H1561 C1585 0.950 . S
H1562 C1586 0.950 . S
H1563 C1587 0.951 . S
H1564 C1589 0.951 . S
H1565 C1591 0.950 . S
H1566 C1592 0.950 . S
H1567 C1594 0.950 . S
H1568 C1597 0.950 . S
H1569 C1598 0.950 . S
H1570 C1600 0.950 . S
H1571 C1601 0.950 . S
C1572 H1554 0.951 . S
C1572 C1573 1.366 . S
C1572 C1574 1.388 . S
C1573 C1572 1.366 . S
C1573 C1577 1.385 . S
C1574 H1555 0.951 . S
C1574 C1572 1.388 . S
C1574 C1575 1.366 . S
C1575 C1574 1.366 . S
C1575 C1576 1.414 . S
C1575 C1578 1.499 . S
C1576 H1556 0.950 . S
C1576 C1575 1.414 . S
C1576 C1577 1.374 . S
C1577 H1557 0.950 . S
C1577 C1573 1.385 . S
C1577 C1576 1.374 . S
C1578 C1575 1.499 . S
C1578 C1579 1.373 . S
C1578 C1580 1.389 . S
C1579 H1558 0.950 . S
C1579 C1578 1.373 . S
C1579 C1595 1.377 . S
C1580 C1578 1.389 . S
C1580 C1581 1.524 . S
C1580 C1594 1.377 . S
C1581 C1580 1.524 . S
C1581 C1582 1.397 . S
C1581 C1586 1.363 . S
C1582 H1559 0.950 . S
C1582 C1581 1.397 . S
C1582 C1583 1.334 . S
C1583 H1560 0.950 . S
C1583 C1582 1.334 . S
C1583 C1584 1.287 . S
C1584 C1583 1.287 . S
C1584 C1585 1.524 . S
C1584 H1603 0.913 . S
C1585 H1561 0.950 . S
C1585 C1584 1.524 . S
C1585 C1586 1.415 . S
C1586 H1562 0.950 . S
C1586 C1581 1.363 . S
C1586 C1585 1.415 . S
C1587 H1563 0.951 . S
C1587 C1588 1.366 . S
C1587 C1589 1.388 . S
C1588 C1587 1.366 . S
C1588 C1592 1.385 . S
C1589 H1564 0.951 . S
C1589 C1587 1.388 . S
C1589 C1590 1.366 . S
C1590 C1589 1.366 . S
C1590 C1591 1.414 . S
C1590 C1593 1.499 . S
C1591 H1565 0.950 . S
C1591 C1590 1.414 . S
C1591 C1592 1.374 . S
C1592 H1566 0.950 . S
C1592 C1588 1.385 . S
C1592 C1591 1.374 . S
C1593 C1590 1.499 . S
C1593 C1594 1.373 . S
C1593 C1595 1.389 . S
C1594 H1567 0.950 . S
C1594 C1580 1.377 . S
C1594 C1593 1.373 . S
C1595 C1579 1.377 . S
C1595 C1593 1.389 . S
C1595 C1596 1.524 . S
C1596 C1595 1.524 . S
C1596 C1597 1.397 . S
C1596 C1601 1.363 . S
C1597 H1568 0.950 . S
C1597 C1596 1.397 . S
C1597 C1598 1.334 . S
C1598 H1569 0.950 . S
C1598 C1597 1.334 . S
C1598 C1599 1.287 . S
C1599 C1598 1.287 . S
C1599 C1600 1.524 . S
C1599 H1602 0.999 . S
C1600 H1570 0.950 . S
C1600 C1599 1.524 . S
C1600 C1601 1.415 . S
C1601 H1571 0.950 . S
C1601 C1596 1.363 . S
C1601 C1600 1.415 . S
H1602 C1599 0.999 . S
H1603 C1584 0.913 . S
C423 C255 1.582 . S
C438 C328 1.584 . S
C488 C351 1.792 . S
C473 C294 1.775 . S
C538 C374 1.692 . S
C523 C177 1.684 . S
C588 C401 1.572 . S
C573 C216 1.638 . S
C638 C329 1.551 . S
C623 C99 1.543 1_545 S
C673 C138 1.535 1_556 S
C688 C352 1.569 . S
C723 C21 1.385 . S
C738 C375 1.396 . S
C773 C60 1.659 . S
C788 C400 1.662 . S
C838 C330 0.441 . S
C823 C196 0.725 . S
C888 C353 0.712 . S
C873 C235 0.753 . S
C938 C376 0.430 . S
C923 C289 0.582 . S
C973 C157 0.524 . S
C988 C402 0.750 . S
C1023 C40 0.393 . S
C1038 C333 0.702 . S
C1088 C356 0.803 . S
C1073 C79 0.466 . S
C1138 C379 0.736 . S
C1123 C133 0.470 . S
C1173 C1 0.593 . S
C1188 C399 0.561 . S
C1223 C211 1.909 . S
C1238 C331 1.914 . S
C1273 C250 1.789 . S
C1288 C354 1.817 1_565 S
C1338 C377 1.851 . S
C1323 C274 1.819 . S
C1388 C398 1.501 . S
C1373 C172 1.431 . S
C1423 C55 1.854 . S
C1438 C332 1.834 . S
C1488 C355 1.706 . S
C1473 C94 1.734 1_565 S
C1538 C378 1.702 . S
C1523 C118 1.725 . S
C1573 C16 1.922 . S
C1588 C397 1.999 . S
