# Generated by pormake.
# Topology ctn, (3,4)-cn, num edge types: 1
# Building blocks:
#     Node 0, Type 0, BuildingBlock: VETTIZ_charged_linker_0, # of connection points: 3
#     Node 1, Type 0, BuildingBlock: VETTIZ_charged_linker_0, # of connection points: 3
#     Node 2, Type 0, BuildingBlock: VETTIZ_charged_linker_0, # of connection points: 3
#     Node 3, Type 0, BuildingBlock: VETTIZ_charged_linker_0, # of connection points: 3
#     Node 4, Type 0, BuildingBlock: VETTIZ_charged_linker_0, # of connection points: 3
#     Node 5, Type 0, BuildingBlock: VETTIZ_charged_linker_0, # of connection points: 3
#     Node 6, Type 0, BuildingBlock: VETTIZ_charged_linker_0, # of connection points: 3
#     Node 7, Type 0, BuildingBlock: VETTIZ_charged_linker_0, # of connection points: 3
#     Node 8, Type 0, BuildingBlock: VETTIZ_charged_linker_0, # of connection points: 3
#     Node 9, Type 0, BuildingBlock: VETTIZ_charged_linker_0, # of connection points: 3
#     Node 10, Type 0, BuildingBlock: VETTIZ_charged_linker_0, # of connection points: 3
#     Node 11, Type 0, BuildingBlock: VETTIZ_charged_linker_0, # of connection points: 3
#     Node 12, Type 0, BuildingBlock: VETTIZ_charged_linker_0, # of connection points: 3
#     Node 13, Type 0, BuildingBlock: VETTIZ_charged_linker_0, # of connection points: 3
#     Node 14, Type 0, BuildingBlock: VETTIZ_charged_linker_0, # of connection points: 3
#     Node 15, Type 0, BuildingBlock: VETTIZ_charged_linker_0, # of connection points: 3
#     Node 16, Type 1, BuildingBlock: QUQFOY_clean_sbu_1, # of connection points: 4
#     Node 17, Type 1, BuildingBlock: QUQFOY_clean_sbu_1, # of connection points: 4
#     Node 18, Type 1, BuildingBlock: QUQFOY_clean_sbu_1, # of connection points: 4
#     Node 19, Type 1, BuildingBlock: QUQFOY_clean_sbu_1, # of connection points: 4
#     Node 20, Type 1, BuildingBlock: QUQFOY_clean_sbu_1, # of connection points: 4
#     Node 21, Type 1, BuildingBlock: QUQFOY_clean_sbu_1, # of connection points: 4
#     Node 22, Type 1, BuildingBlock: QUQFOY_clean_sbu_1, # of connection points: 4
#     Node 23, Type 1, BuildingBlock: QUQFOY_clean_sbu_1, # of connection points: 4
#     Node 24, Type 1, BuildingBlock: QUQFOY_clean_sbu_1, # of connection points: 4
#     Node 25, Type 1, BuildingBlock: QUQFOY_clean_sbu_1, # of connection points: 4
#     Node 26, Type 1, BuildingBlock: QUQFOY_clean_sbu_1, # of connection points: 4
#     Node 27, Type 1, BuildingBlock: QUQFOY_clean_sbu_1, # of connection points: 4
#     Edge 28, Type (0, 1), BuildingBlock: XUDNAN_clean_linker_2, # of connection points: 2
#     Edge 29, Type (0, 1), BuildingBlock: XUDNAN_clean_linker_2, # of connection points: 2
#     Edge 30, Type (0, 1), BuildingBlock: XUDNAN_clean_linker_2, # of connection points: 2
#     Edge 31, Type (0, 1), BuildingBlock: XUDNAN_clean_linker_2, # of connection points: 2
#     Edge 32, Type (0, 1), BuildingBlock: XUDNAN_clean_linker_2, # of connection points: 2
#     Edge 33, Type (0, 1), BuildingBlock: XUDNAN_clean_linker_2, # of connection points: 2
#     Edge 34, Type (0, 1), BuildingBlock: XUDNAN_clean_linker_2, # of connection points: 2
#     Edge 35, Type (0, 1), BuildingBlock: XUDNAN_clean_linker_2, # of connection points: 2
#     Edge 36, Type (0, 1), BuildingBlock: XUDNAN_clean_linker_2, # of connection points: 2
#     Edge 37, Type (0, 1), BuildingBlock: XUDNAN_clean_linker_2, # of connection points: 2
#     Edge 38, Type (0, 1), BuildingBlock: XUDNAN_clean_linker_2, # of connection points: 2
#     Edge 39, Type (0, 1), BuildingBlock: XUDNAN_clean_linker_2, # of connection points: 2
#     Edge 40, Type (0, 1), BuildingBlock: XUDNAN_clean_linker_2, # of connection points: 2
#     Edge 41, Type (0, 1), BuildingBlock: XUDNAN_clean_linker_2, # of connection points: 2
#     Edge 42, Type (0, 1), BuildingBlock: XUDNAN_clean_linker_2, # of connection points: 2
#     Edge 43, Type (0, 1), BuildingBlock: XUDNAN_clean_linker_2, # of connection points: 2
#     Edge 44, Type (0, 1), BuildingBlock: XUDNAN_clean_linker_2, # of connection points: 2
#     Edge 45, Type (0, 1), BuildingBlock: XUDNAN_clean_linker_2, # of connection points: 2
#     Edge 46, Type (0, 1), BuildingBlock: XUDNAN_clean_linker_2, # of connection points: 2
#     Edge 47, Type (0, 1), BuildingBlock: XUDNAN_clean_linker_2, # of connection points: 2
#     Edge 48, Type (0, 1), BuildingBlock: XUDNAN_clean_linker_2, # of connection points: 2
#     Edge 49, Type (0, 1), BuildingBlock: XUDNAN_clean_linker_2, # of connection points: 2
#     Edge 50, Type (0, 1), BuildingBlock: XUDNAN_clean_linker_2, # of connection points: 2
#     Edge 51, Type (0, 1), BuildingBlock: XUDNAN_clean_linker_2, # of connection points: 2
#     Edge 52, Type (0, 1), BuildingBlock: XUDNAN_clean_linker_2, # of connection points: 2
#     Edge 53, Type (0, 1), BuildingBlock: XUDNAN_clean_linker_2, # of connection points: 2
#     Edge 54, Type (0, 1), BuildingBlock: XUDNAN_clean_linker_2, # of connection points: 2
#     Edge 55, Type (0, 1), BuildingBlock: XUDNAN_clean_linker_2, # of connection points: 2
#     Edge 56, Type (0, 1), BuildingBlock: XUDNAN_clean_linker_2, # of connection points: 2
#     Edge 57, Type (0, 1), BuildingBlock: XUDNAN_clean_linker_2, # of connection points: 2
#     Edge 58, Type (0, 1), BuildingBlock: XUDNAN_clean_linker_2, # of connection points: 2
#     Edge 59, Type (0, 1), BuildingBlock: XUDNAN_clean_linker_2, # of connection points: 2
#     Edge 60, Type (0, 1), BuildingBlock: XUDNAN_clean_linker_2, # of connection points: 2
#     Edge 61, Type (0, 1), BuildingBlock: XUDNAN_clean_linker_2, # of connection points: 2
#     Edge 62, Type (0, 1), BuildingBlock: XUDNAN_clean_linker_2, # of connection points: 2
#     Edge 63, Type (0, 1), BuildingBlock: XUDNAN_clean_linker_2, # of connection points: 2
#     Edge 64, Type (0, 1), BuildingBlock: XUDNAN_clean_linker_2, # of connection points: 2
#     Edge 65, Type (0, 1), BuildingBlock: XUDNAN_clean_linker_2, # of connection points: 2
#     Edge 66, Type (0, 1), BuildingBlock: XUDNAN_clean_linker_2, # of connection points: 2
#     Edge 67, Type (0, 1), BuildingBlock: XUDNAN_clean_linker_2, # of connection points: 2
#     Edge 68, Type (0, 1), BuildingBlock: XUDNAN_clean_linker_2, # of connection points: 2
#     Edge 69, Type (0, 1), BuildingBlock: XUDNAN_clean_linker_2, # of connection points: 2
#     Edge 70, Type (0, 1), BuildingBlock: XUDNAN_clean_linker_2, # of connection points: 2
#     Edge 71, Type (0, 1), BuildingBlock: XUDNAN_clean_linker_2, # of connection points: 2
#     Edge 72, Type (0, 1), BuildingBlock: XUDNAN_clean_linker_2, # of connection points: 2
#     Edge 73, Type (0, 1), BuildingBlock: XUDNAN_clean_linker_2, # of connection points: 2
#     Edge 74, Type (0, 1), BuildingBlock: XUDNAN_clean_linker_2, # of connection points: 2
#     Edge 75, Type (0, 1), BuildingBlock: XUDNAN_clean_linker_2, # of connection points: 2
# Relax obj value: 0.036
# Max RMSD: 0.142
# Mean RMSD: 0.065
data_MOF--net-ctn--node1-QUQFOY_clean_sbu_1--node2-VETTIZ_charged_linker_0--edge1-XUDNAN_clean_linker_2
_symmetry_space_group_name_H-M    P1
_symmetry_Int_Tables_number       1
_symmetry_cell_setting            triclinic
loop_
_symmetry_equiv_pos_as_xyz
'x, y, z'
_cell_length_a     67.034492
_cell_length_b     66.955643
_cell_length_c     67.129645
_cell_angle_alpha  92.851437
_cell_angle_beta   90.073521
_cell_angle_gamma 94.573178
loop_
_atom_site_label
_atom_site_type_symbol
_atom_site_fract_x
_atom_site_fract_y
_atom_site_fract_z
_atom_type_partial_charge
C0 C 0.0729 0.1519 0.03223 0.0
C1 C 0.05693 0.16432 0.03345 0.0
C2 C 0.04361 0.16256 0.04967 0.0
C3 C 0.06108 0.13515 0.06176 0.0
C4 C 0.07471 0.13758 0.04649 0.0
C5 C 0.09028 0.12263 0.04665 0.0
H6 H 0.11892 0.03533 0.07791 0.0
C7 C 0.06628 0.11781 0.07301 0.0
C8 C 0.08359 0.11062 0.06439 0.0
H9 H 0.14627 0.07255 0.03302 0.0
H10 H 0.12449 0.09849 0.04185 0.0
H11 H 0.11649 0.07146 0.11159 0.0
H12 H 0.07437 0.0431 0.0687 0.0
H13 H 0.062 0.04546 0.09166 0.0
H14 H 0.08336 0.03095 0.08982 0.0
H15 H 0.10226 0.04839 0.11635 0.0
H16 H 0.09291 0.07246 0.12278 0.0
C17 C 0.11103 0.13421 0.0503 0.0
C18 C 0.08843 0.10983 0.02674 0.0
C19 C 0.01786 0.08839 0.12434 0.0
C20 C 0.01781 0.0709 0.13513 0.0
C21 C 0.03495 0.06 0.13481 0.0
C22 C 0.05139 0.06564 0.12299 0.0
C23 C 0.05064 0.0822 0.11108 0.0
C24 C 0.03443 0.09372 0.11237 0.0
C25 C 0.03653 0.11091 0.09866 0.0
C26 C 0.0564 0.10741 0.08863 0.0
C27 C 0.06439 0.09036 0.09581 0.0
C28 C 0.0377 0.1308 0.11156 0.0
C29 C 0.01879 0.10837 0.0837 0.0
C30 C 0.12047 0.04924 0.07028 0.0
C31 C 0.13401 0.0517 0.05444 0.0
C32 C 0.13561 0.07007 0.04493 0.0
C33 C 0.12293 0.08512 0.05006 0.0
C34 C 0.10833 0.08176 0.06475 0.0
C35 C 0.1078 0.06443 0.07515 0.0
C36 C 0.09138 0.0636 0.09042 0.0
C37 C 0.08178 0.08299 0.08698 0.0
C38 C 0.09157 0.09335 0.07168 0.0
C39 C 0.10112 0.06384 0.11141 0.0
C40 C 0.07699 0.04479 0.08509 0.0
H41 H 0.03486 0.14732 0.07562 0.0
H42 H 0.08336 0.15267 0.01997 0.0
H43 H 0.07242 0.10605 0.02267 0.0
H44 H 0.0949 0.09526 0.02735 0.0
H45 H 0.09561 0.1181 0.01435 0.0
H46 H 0.10969 0.14855 0.05913 0.0
H47 H 0.11842 0.13794 0.03601 0.0
H48 H 0.12113 0.12585 0.05925 0.0
H49 H 0.0049 0.09708 0.1244 0.0
H50 H 0.03539 0.04673 0.14334 0.0
H51 H 0.06375 0.05644 0.12305 0.0
H52 H 0.04522 0.1291 0.1261 0.0
H53 H 0.02254 0.13568 0.11479 0.0
H54 H 0.0468 0.14304 0.10458 0.0
H55 H 0.01598 0.09239 0.07835 0.0
H56 H 0.02148 0.11675 0.07012 0.0
H57 H 0.00485 0.1131 0.09079 0.0
H58 H 0.03145 0.17222 0.05129 0.0
C59 C 0.04565 0.14812 0.06383 0.0
C60 C 0.24463 0.6779 0.25572 0.0
C61 C 0.22667 0.67507 0.24482 0.0
C62 C 0.22406 0.68695 0.22838 0.0
C63 C 0.257 0.70423 0.23432 0.0
C64 C 0.25941 0.69241 0.2503 0.0
C65 C 0.27924 0.69687 0.26054 0.0
H66 H 0.37107 0.74559 0.26435 0.0
C67 C 0.27556 0.71765 0.23272 0.0
C68 C 0.28857 0.7133 0.24805 0.0
H69 H 0.34435 0.7027 0.30473 0.0
H70 H 0.31382 0.70032 0.28603 0.0
H71 H 0.33233 0.771 0.26339 0.0
H72 H 0.35234 0.7245 0.22342 0.0
H73 H 0.34409 0.74343 0.20892 0.0
H74 H 0.36483 0.74925 0.22587 0.0
H75 H 0.35254 0.77568 0.24632 0.0
H76 H 0.32681 0.77746 0.23909 0.0
C77 C 0.27543 0.70459 0.2823 0.0
C78 C 0.29071 0.67763 0.25866 0.0
C79 C 0.28328 0.76703 0.17744 0.0
C80 C 0.29931 0.78033 0.1717 0.0
C81 C 0.31706 0.78217 0.18315 0.0
C82 C 0.31901 0.77071 0.19982 0.0
C83 C 0.30308 0.75713 0.20512 0.0
C84 C 0.28553 0.75552 0.19409 0.0
C85 C 0.27043 0.73987 0.20167 0.0
C86 C 0.28173 0.73258 0.21918 0.0
C87 C 0.30088 0.74274 0.22109 0.0
C88 C 0.25166 0.75033 0.2085 0.0
C89 C 0.26634 0.7232 0.185 0.0
C90 C 0.35861 0.73576 0.26924 0.0
C91 C 0.36045 0.72396 0.28588 0.0
C92 C 0.34373 0.71146 0.29165 0.0
C93 C 0.32583 0.71025 0.28086 0.0
C94 C 0.32435 0.72177 0.26411 0.0
C95 C 0.34041 0.73453 0.2587 0.0
C96 C 0.33559 0.74624 0.24094 0.0
C97 C 0.31413 0.73806 0.23644 0.0
C98 C 0.30781 0.72361 0.24996 0.0
C99 C 0.33699 0.76881 0.24758 0.0
C100 C 0.34997 0.74078 0.22383 0.0
H101 H 0.23628 0.71026 0.21054 0.0
H102 H 0.24734 0.66875 0.26816 0.0
H103 H 0.28792 0.66969 0.24384 0.0
H104 H 0.30712 0.68069 0.25956 0.0
H105 H 0.28585 0.66703 0.27025 0.0
H106 H 0.26113 0.71195 0.28352 0.0
H107 H 0.27452 0.69212 0.29265 0.0
H108 H 0.28696 0.71633 0.2878 0.0
H109 H 0.26956 0.76512 0.16877 0.0
H110 H 0.32953 0.79245 0.1791 0.0
H111 H 0.33295 0.77271 0.2078 0.0
H112 H 0.25604 0.76495 0.21657 0.0
H113 H 0.24226 0.75335 0.19551 0.0
H114 H 0.24238 0.74162 0.21908 0.0
H115 H 0.2802 0.72071 0.17642 0.0
H116 H 0.26159 0.70845 0.19084 0.0
H117 H 0.25486 0.72729 0.17432 0.0
H118 H 0.21032 0.68506 0.21975 0.0
C119 C 0.23912 0.70159 0.22311 0.0
C120 C 0.94518 0.40594 0.01632 0.0
C121 C 0.93689 0.40716 0.99723 0.0
C122 C 0.92367 0.42204 0.994 0.0
C123 C 0.9286 0.43519 0.0281 0.0
C124 C 0.94091 0.42008 0.03144 0.0
C125 C 0.94997 0.42197 0.052 0.0
H126 H 0.97008 0.47858 0.13636 0.0
C127 C 0.92866 0.44844 0.04638 0.0
C128 C 0.94102 0.44068 0.06048 0.0
H129 H 0.99543 0.42373 0.11615 0.0
H130 H 0.97192 0.41958 0.08888 0.0
H131 H 0.92314 0.46373 0.126 0.0
H132 H 0.96953 0.49666 0.09385 0.0
H133 H 0.9475 0.50921 0.09284 0.0
H134 H 0.95883 0.5062 0.11657 0.0
H135 H 0.93009 0.48978 0.13196 0.0
H136 H 0.91164 0.48185 0.11292 0.0
C137 C 0.94247 0.4032 0.06324 0.0
C138 C 0.97309 0.42502 0.04986 0.0
C139 C 0.89629 0.51424 0.04532 0.0
C140 C 0.89497 0.5302 0.0595 0.0
C141 C 0.9014 0.52813 0.07919 0.0
C142 C 0.91029 0.51079 0.08435 0.0
C143 C 0.91279 0.4955 0.0696 0.0
C144 C 0.90506 0.49704 0.05071 0.0
C145 C 0.90831 0.47906 0.03715 0.0
C146 C 0.91993 0.46676 0.05081 0.0
C147 C 0.92287 0.47664 0.06967 0.0
C148 C 0.8876 0.46838 0.03138 0.0
C149 C 0.92103 0.48631 0.01923 0.0
C150 C 0.97053 0.46563 0.12608 0.0
C151 C 0.98492 0.45168 0.12826 0.0
C152 C 0.98455 0.43472 0.11491 0.0
C153 C 0.971 0.43245 0.0989 0.0
C154 C 0.9579 0.44743 0.09599 0.0
C155 C 0.95738 0.46337 0.10978 0.0
C156 C 0.94305 0.47826 0.10385 0.0
C157 C 0.93555 0.46891 0.08387 0.0
C158 C 0.94438 0.45091 0.07936 0.0
C159 C 0.92611 0.47864 0.11949 0.0
C160 C 0.95518 0.49874 0.10172 0.0
H161 H 0.9095 0.44715 0.00589 0.0
H162 H 0.95561 0.39486 0.0192 0.0
H163 H 0.97743 0.43196 0.03561 0.0
H164 H 0.9802 0.43552 0.06148 0.0
H165 H 0.98005 0.41052 0.05008 0.0
H166 H 0.92641 0.39888 0.05982 0.0
H167 H 0.95105 0.39018 0.05881 0.0
H168 H 0.94323 0.40574 0.07962 0.0
H169 H 0.89104 0.51536 0.03017 0.0
H170 H 0.9003 0.54025 0.09034 0.0
H171 H 0.91547 0.51022 0.09942 0.0
H172 H 0.87654 0.47034 0.04353 0.0
H173 H 0.88152 0.47451 0.01775 0.0
H174 H 0.88802 0.45195 0.02907 0.0
H175 H 0.93285 0.49812 0.02424 0.0
H176 H 0.92919 0.47441 0.01177 0.0
H177 H 0.9116 0.49279 0.00798 0.0
H178 H 0.91691 0.4231 0.97947 0.0
C179 C 0.91938 0.43596 0.00937 0.0
C180 C 0.67237 0.8041 0.27462 0.0
C181 C 0.66342 0.78455 0.27619 0.0
C182 C 0.66939 0.76907 0.26307 0.0
C183 C 0.69214 0.7929 0.24656 0.0
C184 C 0.68665 0.8079 0.25983 0.0
C185 C 0.69757 0.82786 0.25628 0.0
H186 H 0.76529 0.88383 0.2038 0.0
C187 C 0.70684 0.80209 0.23259 0.0
C188 C 0.71013 0.82253 0.2383 0.0
H189 H 0.73223 0.90154 0.2562 0.0
H190 H 0.7153 0.86861 0.25656 0.0
H191 H 0.72855 0.85966 0.18156 0.0
H192 H 0.77462 0.83914 0.21845 0.0
H193 H 0.77191 0.82357 0.19645 0.0
H194 H 0.77926 0.84983 0.1947 0.0
H195 H 0.75293 0.85569 0.1719 0.0
H196 H 0.73323 0.83563 0.17196 0.0
C197 C 0.68188 0.84267 0.2512 0.0
C198 C 0.71063 0.83436 0.27495 0.0
C199 C 0.73334 0.75976 0.1751 0.0
C200 C 0.74537 0.76456 0.15866 0.0
C201 C 0.75324 0.78448 0.15675 0.0
C202 C 0.74933 0.7995 0.17122 0.0
C203 C 0.73717 0.79455 0.18759 0.0
C204 C 0.72921 0.775 0.18919 0.0
C205 C 0.71546 0.77278 0.20676 0.0
C206 C 0.71668 0.79415 0.21559 0.0
C207 C 0.72963 0.8068 0.20446 0.0
C208 C 0.69419 0.76581 0.19879 0.0
C209 C 0.72429 0.75827 0.22106 0.0
C210 C 0.75444 0.88053 0.21537 0.0
C211 C 0.75007 0.89537 0.22996 0.0
C212 C 0.73567 0.89053 0.24461 0.0
C213 C 0.72596 0.87129 0.24491 0.0
C214 C 0.73063 0.85656 0.23044 0.0
C215 C 0.74453 0.86127 0.21588 0.0
C216 C 0.7473 0.84362 0.20161 0.0
C217 C 0.73331 0.82742 0.21051 0.0
C218 C 0.72359 0.83518 0.22734 0.0
C219 C 0.74031 0.84882 0.18059 0.0
C220 C 0.76944 0.83872 0.20267 0.0
H221 H 0.68744 0.76079 0.23855 0.0
H222 H 0.66837 0.81624 0.28473 0.0
H223 H 0.71517 0.82113 0.28273 0.0
H224 H 0.72493 0.84269 0.27123 0.0
H225 H 0.7024 0.84359 0.28586 0.0
H226 H 0.66969 0.83499 0.24169 0.0
H227 H 0.67492 0.84883 0.26495 0.0
H228 H 0.68812 0.85523 0.24249 0.0
H229 H 0.72682 0.74458 0.17663 0.0
H230 H 0.76247 0.78839 0.14407 0.0
H231 H 0.7558 0.8144 0.16903 0.0
H232 H 0.69125 0.77266 0.18442 0.0
H233 H 0.6924 0.74926 0.19613 0.0
H234 H 0.68219 0.7705 0.20879 0.0
H235 H 0.74091 0.76062 0.22157 0.0
H236 H 0.71949 0.76068 0.23666 0.0
H237 H 0.72029 0.74238 0.21608 0.0
H238 H 0.66264 0.7539 0.26397 0.0
C239 C 0.68368 0.77314 0.24824 0.0
C240 C 0.06147 0.93931 0.50091 0.0
C241 C 0.04263 0.93009 0.50573 0.0
C242 C 0.02589 0.93378 0.49404 0.0
C243 C 0.04681 0.95562 0.47356 0.0
C244 C 0.06314 0.95211 0.48505 0.0
C245 C 0.0818 0.96429 0.47919 0.0
H246 H 0.1256 0.03822 0.42575 0.0
C247 C 0.05362 0.97013 0.45861 0.0
C248 C 0.07405 0.97536 0.46195 0.0
H249 H 0.15022 0.00795 0.4744 0.0
H250 H 0.12044 0.98543 0.47529 0.0
H251 H 0.08154 0.04044 0.44383 0.0
H252 H 0.10503 0.99709 0.40233 0.0
H253 H 0.08026 0.99992 0.3951 0.0
H254 H 0.0987 0.02111 0.3947 0.0
H255 H 0.09004 0.0463 0.41926 0.0
H256 H 0.065 0.0358 0.42338 0.0
C257 C 0.08868 0.9787 0.49721 0.0
C258 C 0.0974 0.94964 0.47213 0.0
C259 C 0.00403 0.99278 0.4089 0.0
C260 C 0.00589 0.00583 0.39313 0.0
C261 C 0.02495 0.01481 0.38853 0.0
C262 C 0.04181 0.01134 0.39991 0.0
C263 C 0.03959 0.99871 0.41602 0.0
C264 C 0.021 0.98933 0.41997 0.0
C265 C 0.02153 0.97582 0.43716 0.0
C266 C 0.04346 0.97877 0.44301 0.0
C267 C 0.05395 0.99243 0.43078 0.0
C268 C 0.00777 0.98375 0.45383 0.0
C269 C 0.01554 0.95405 0.42922 0.0
C270 C 0.12456 0.02653 0.43637 0.0
C271 C 0.14007 0.02491 0.4502 0.0
C272 C 0.13829 0.0096 0.46384 0.0
C273 C 0.12096 0.99659 0.46437 0.0
C274 C 0.10506 0.99909 0.45133 0.0
C275 C 0.10711 0.01355 0.43731 0.0
C276 C 0.08836 0.01407 0.42496 0.0
C277 C 0.07453 0.99821 0.43456 0.0
C278 C 0.0845 0.98954 0.44996 0.0
C279 C 0.08076 0.03525 0.42782 0.0
C280 C 0.09322 0.00788 0.40307 0.0
H281 H 0.01458 0.94859 0.46975 0.0
H282 H 0.07474 0.93679 0.50933 0.0
H283 H 0.09011 0.93683 0.46289 0.0
H284 H 0.10906 0.95663 0.46251 0.0
H285 H 0.10472 0.9434 0.48504 0.0
H286 H 0.07619 0.98124 0.50771 0.0
H287 H 0.10075 0.97259 0.50586 0.0
H288 H 0.09386 0.9939 0.49269 0.0
H289 H 0.98962 0.9854 0.41255 0.0
H290 H 0.02672 0.02493 0.37644 0.0
H291 H 0.05587 0.01884 0.39591 0.0
H292 H 0.00773 0.00038 0.45393 0.0
H293 H 0.99207 0.97735 0.45167 0.0
H294 H 0.01286 0.98068 0.46895 0.0
H295 H 0.02211 0.95114 0.41424 0.0
H296 H 0.02117 0.94265 0.43863 0.0
H297 H 0.99903 0.9513 0.42776 0.0
H298 H 0.01107 0.92731 0.49754 0.0
C299 C 0.0279 0.94634 0.47795 0.0
C300 C 0.25566 0.69691 0.79877 0.0
C301 C 0.25974 0.68815 0.77969 0.0
C302 C 0.24952 0.69495 0.76312 0.0
C303 C 0.22995 0.71563 0.78476 0.0
C304 C 0.24118 0.71088 0.80082 0.0
C305 C 0.23635 0.72296 0.81952 0.0
H306 H 0.17297 0.7821 0.86758 0.0
C307 C 0.21518 0.72945 0.79194 0.0
C308 C 0.2191 0.73421 0.81224 0.0
H309 H 0.23097 0.76677 0.88816 0.0
H310 H 0.2351 0.7475 0.85751 0.0
H311 H 0.15888 0.73997 0.84157 0.0
H312 H 0.1896 0.79671 0.82881 0.0
H313 H 0.17623 0.78864 0.80704 0.0
H314 H 0.16282 0.79353 0.82988 0.0
H315 H 0.14745 0.76337 0.84278 0.0
H316 H 0.1484 0.74851 0.81978 0.0
C317 C 0.22961 0.7084 0.83582 0.0
C318 C 0.25493 0.73736 0.8255 0.0
C319 C 0.15626 0.74147 0.74743 0.0
C320 C 0.13918 0.75207 0.75063 0.0
C321 C 0.13714 0.76306 0.76884 0.0
C322 C 0.15154 0.7629 0.78396 0.0
C323 C 0.16825 0.75174 0.78081 0.0
C324 C 0.17064 0.74161 0.76263 0.0
C325 C 0.1897 0.73113 0.76175 0.0
C326 C 0.19799 0.7361 0.78269 0.0
C327 C 0.18525 0.748 0.79377 0.0
C328 C 0.18405 0.70839 0.75796 0.0
C329 C 0.20342 0.74056 0.74554 0.0
C330 C 0.1868 0.77498 0.86571 0.0
C331 C 0.20158 0.77631 0.88081 0.0
C332 C 0.21896 0.76596 0.87732 0.0
C333 C 0.22161 0.75498 0.85926 0.0
C334 C 0.20704 0.75468 0.84419 0.0
C335 C 0.19015 0.76484 0.84747 0.0
C336 C 0.17737 0.76496 0.82908 0.0
C337 C 0.18943 0.75321 0.81418 0.0
C338 C 0.20647 0.74669 0.82326 0.0
C339 C 0.15685 0.75374 0.83341 0.0
C340 C 0.17624 0.78704 0.82337 0.0
H341 H 0.22716 0.71242 0.75244 0.0
H342 H 0.26323 0.69307 0.81206 0.0
H343 H 0.26566 0.73921 0.81297 0.0
H344 H 0.25085 0.75276 0.82955 0.0
H345 H 0.26322 0.73174 0.83814 0.0
H346 H 0.21773 0.69708 0.82994 0.0
H347 H 0.24235 0.70027 0.84092 0.0
H348 H 0.22335 0.71612 0.84901 0.0
H349 H 0.15829 0.73314 0.73343 0.0
H350 H 0.12403 0.77124 0.77163 0.0
H351 H 0.14891 0.77121 0.79764 0.0
H352 H 0.17238 0.70306 0.76867 0.0
H353 H 0.178 0.70514 0.74263 0.0
H354 H 0.19674 0.69915 0.75981 0.0
H355 H 0.19917 0.75571 0.74193 0.0
H356 H 0.21923 0.74302 0.75053 0.0
H357 H 0.20264 0.73111 0.73144 0.0
H358 H 0.25288 0.69018 0.74799 0.0
C359 C 0.23458 0.70829 0.76559 0.0
C360 C 0.89573 0.52967 0.49806 0.0
C361 C 0.88905 0.51168 0.48766 0.0
C362 C 0.90045 0.50445 0.47164 0.0
C363 C 0.92338 0.53436 0.47511 0.0
C364 C 0.91278 0.54074 0.49155 0.0
C365 C 0.92092 0.56085 0.5002 0.0
H366 H 0.98263 0.64469 0.49236 0.0
C367 C 0.93904 0.55045 0.47103 0.0
C368 C 0.9377 0.56592 0.48576 0.0
H369 H 0.94028 0.63049 0.53912 0.0
H370 H 0.93208 0.59778 0.52336 0.0
H371 H 0.95543 0.62692 0.45665 0.0
H372 H 0.00093 0.60095 0.4898 0.0
H373 H 0.00429 0.59422 0.46445 0.0
H374 H 0.00641 0.62036 0.47265 0.0
H375 H 0.98158 0.63304 0.45248 0.0
H376 H 0.96801 0.61194 0.43944 0.0
C377 C 0.90416 0.57548 0.49924 0.0
C378 C 0.92889 0.55808 0.52151 0.0
C379 C 0.98136 0.54526 0.40851 0.0
C380 C 0.99496 0.55906 0.39959 0.0
C381 C -0.0001 0.57797 0.40914 0.0
C382 C 0.9913 0.58319 0.42745 0.0
C383 C 0.9774 0.56943 0.43612 0.0
C384 C 0.97259 0.55083 0.42666 0.0
C385 C 0.95655 0.53871 0.43747 0.0
C386 C 0.95284 0.55294 0.45516 0.0
C387 C 0.96514 0.57086 0.45428 0.0
C388 C 0.93804 0.53504 0.42349 0.0
C389 C 0.96529 0.51935 0.44404 0.0
C390 C 0.97152 0.63453 0.49912 0.0
C391 C 0.96205 0.64017 0.51696 0.0
C392 C 0.94792 0.62642 0.52548 0.0
C393 C 0.9431 0.60745 0.51625 0.0
C394 C 0.95244 0.60214 0.49826 0.0
C395 C 0.96659 0.61546 0.49012 0.0
C396 C 0.97523 0.60701 0.47113 0.0
C397 C 0.96392 0.58642 0.46928 0.0
C398 C 0.95047 0.5838 0.48507 0.0
C399 C 0.97 0.62039 0.45396 0.0
C400 C 0.99794 0.60562 0.47447 0.0
H401 H 0.92545 0.50975 0.4527 0.0
H402 H 0.88741 0.53537 0.51066 0.0
H403 H 0.9337 0.54269 0.52303 0.0
H404 H 0.94242 0.56813 0.52528 0.0
H405 H 0.91722 0.5605 0.53291 0.0
H406 H 0.89568 0.57295 0.48496 0.0
H407 H 0.89335 0.57327 0.51161 0.0
H408 H 0.90987 0.5914 0.49964 0.0
H409 H 0.97717 0.53073 0.40119 0.0
H410 H 0.01039 0.58873 0.40233 0.0
H411 H 0.99561 0.59784 0.43398 0.0
H412 H 0.93649 0.54812 0.41416 0.0
H413 H 0.93933 0.52167 0.41325 0.0
H414 H 0.92378 0.53327 0.43162 0.0
H415 H 0.98108 0.52254 0.44912 0.0
H416 H 0.95732 0.51282 0.45687 0.0
H417 H 0.9651 0.50786 0.43151 0.0
H418 H 0.89555 0.49056 0.46347 0.0
C419 C 0.91764 0.51571 0.46532 0.0
C420 C 0.79729 0.77599 0.85197 0.0
C421 C 0.78157 0.77104 0.86516 0.0
C422 C 0.76379 0.78091 0.86378 0.0
C423 C 0.77745 0.79952 0.83611 0.0
C424 C 0.79475 0.78978 0.83744 0.0
C425 C 0.80934 0.7949 0.82118 0.0
H426 H 0.83118 0.84148 0.73624 0.0
C427 C 0.7795 0.8124 0.81883 0.0
C428 C 0.79798 0.80943 0.80985 0.0
H429 H 0.8672 0.80291 0.76863 0.0
H430 H 0.84202 0.7997 0.79373 0.0
H431 H 0.82018 0.86728 0.77589 0.0
H432 H 0.78757 0.81814 0.74315 0.0
H433 H 0.77109 0.83682 0.74898 0.0
H434 H 0.79248 0.84258 0.73347 0.0
H435 H 0.8075 0.87073 0.75292 0.0
H436 H 0.79485 0.87203 0.77662 0.0
C437 C 0.82868 0.80527 0.831 0.0
C438 C 0.81237 0.77535 0.8085 0.0
C439 C 0.72793 0.86186 0.80636 0.0
C440 C 0.7266 0.87656 0.79228 0.0
C441 C 0.74017 0.87719 0.77626 0.0
C442 C 0.75552 0.86413 0.77492 0.0
C443 C 0.75734 0.85029 0.78977 0.0
C444 C 0.74336 0.84896 0.80487 0.0
C445 C 0.74748 0.8332 0.81921 0.0
C446 C 0.76693 0.82619 0.81095 0.0
C447 C 0.77262 0.8362 0.79366 0.0
C448 C 0.75029 0.84341 0.84034 0.0
C449 C 0.73019 0.81637 0.81753 0.0
C450 C 0.83368 0.83241 0.74877 0.0
C451 C 0.8511 0.82201 0.75005 0.0
C452 C 0.85371 0.81052 0.76678 0.0
C453 C 0.83909 0.80879 0.78152 0.0
C454 C 0.8216 0.81877 0.77976 0.0
C455 C 0.81924 0.83066 0.76384 0.0
C456 C 0.80012 0.84109 0.76529 0.0
C457 C 0.79108 0.8327 0.78421 0.0
C458 C 0.80375 0.81958 0.79248 0.0
C459 C 0.80577 0.86399 0.76767 0.0
C460 C 0.78707 0.8345 0.74673 0.0
H461 H 0.74781 0.80208 0.84903 0.0
H462 H 0.81133 0.76912 0.85266 0.0
H463 H 0.7984 0.76518 0.80781 0.0
H464 H 0.81593 0.77801 0.79276 0.0
H465 H 0.82429 0.767 0.81496 0.0
H466 H 0.82518 0.81428 0.84475 0.0
H467 H 0.83906 0.79407 0.83527 0.0
H468 H 0.83666 0.81617 0.82136 0.0
H469 H 0.71748 0.86078 0.81863 0.0
H470 H 0.73946 0.88841 0.76524 0.0
H471 H 0.76567 0.86562 0.76264 0.0
H472 H 0.76015 0.85756 0.83979 0.0
H473 H 0.73571 0.84723 0.84671 0.0
H474 H 0.75752 0.83411 0.85089 0.0
H475 H 0.72302 0.81547 0.80252 0.0
H476 H 0.73545 0.8013 0.81923 0.0
H477 H 0.71836 0.81901 0.8287 0.0
H478 H 0.75126 0.7773 0.87346 0.0
C479 C 0.7617 0.79517 0.84941 0.0
C480 C 0.2826 0.28636 0.36044 0.0
C481 C 0.26716 0.28931 0.37431 0.0
C482 C 0.25445 0.30475 0.37129 0.0
C483 C 0.27118 0.31246 0.34041 0.0
C484 C 0.28448 0.29827 0.34382 0.0
C485 C 0.30061 0.29798 0.32819 0.0
H486 H 0.33967 0.33496 0.24318 0.0
C487 C 0.2766 0.32171 0.3215 0.0
C488 C 0.29402 0.31356 0.31436 0.0
H489 H 0.36549 0.294 0.28186 0.0
H490 H 0.33626 0.29407 0.30294 0.0
H491 H 0.32498 0.36433 0.27793 0.0
H492 H 0.29486 0.31448 0.24412 0.0
H493 H 0.27732 0.33238 0.24801 0.0
H494 H 0.29969 0.33863 0.2339 0.0
H495 H 0.31897 0.36508 0.25192 0.0
H496 H 0.30132 0.37132 0.27096 0.0
C497 C 0.32098 0.30462 0.33844 0.0
C498 C 0.29961 0.27682 0.31772 0.0
C499 C 0.23111 0.37023 0.29275 0.0
C500 C 0.23148 0.38049 0.27497 0.0
C501 C 0.24705 0.37772 0.26126 0.0
C502 C 0.26216 0.36516 0.26533 0.0
C503 C 0.26171 0.35521 0.28331 0.0
C504 C 0.24625 0.35769 0.29655 0.0
C505 C 0.24793 0.34567 0.3147 0.0
C506 C 0.26699 0.33553 0.31018 0.0
C507 C 0.27506 0.34127 0.29187 0.0
C508 C 0.25027 0.3604 0.33332 0.0
C509 C 0.22936 0.33036 0.31511 0.0
C510 C 0.33917 0.32613 0.25628 0.0
C511 C 0.35508 0.31468 0.26097 0.0
C512 C 0.35346 0.30294 0.27787 0.0
C513 C 0.33657 0.30315 0.2902 0.0
C514 C 0.32115 0.31528 0.28566 0.0
C515 C 0.32256 0.32635 0.26882 0.0
C516 C 0.30497 0.33861 0.2664 0.0
C517 C 0.2931 0.33367 0.28495 0.0
C518 C 0.30254 0.31988 0.29612 0.0
C519 C 0.31281 0.36104 0.26667 0.0
C520 C 0.29359 0.33083 0.24707 0.0
H521 H 0.24591 0.32738 0.35295 0.0
H522 H 0.29285 0.27488 0.3622 0.0
H523 H 0.28383 0.27141 0.31412 0.0
H524 H 0.30767 0.27649 0.3034 0.0
H525 H 0.30582 0.26588 0.32748 0.0
H526 H 0.31905 0.31448 0.35203 0.0
H527 H 0.32866 0.29148 0.34307 0.0
H528 H 0.33111 0.31376 0.32886 0.0
H529 H 0.21921 0.37183 0.30347 0.0
H530 H 0.24776 0.38559 0.24753 0.0
H531 H 0.2737 0.36382 0.2544 0.0
H532 H 0.25676 0.3755 0.32936 0.0
H533 H 0.23561 0.36237 0.34054 0.0
H534 H 0.26082 0.35556 0.34448 0.0
H535 H 0.22608 0.32341 0.29993 0.0
H536 H 0.23137 0.31772 0.32463 0.0
H537 H 0.21591 0.3378 0.32023 0.0
H538 H 0.24301 0.30816 0.382 0.0
C539 C 0.25626 0.31614 0.35441 0.0
C540 C 0.45522 0.91782 0.51775 0.0
C541 C 0.45083 0.91884 0.49736 0.0
C542 C 0.43853 0.93356 0.49127 0.0
C543 C 0.43662 0.94689 0.52537 0.0
C544 C 0.44804 0.93199 0.53143 0.0
C545 C 0.45249 0.93391 0.55343 0.0
H546 H 0.45199 0.98943 0.64007 0.0
C547 C 0.43286 0.96014 0.543 0.0
C548 C 0.44199 0.95254 0.55953 0.0
H549 H 0.47871 0.93339 0.62815 0.0
H550 H 0.46464 0.93089 0.59492 0.0
H551 H 0.40911 0.9751 0.61794 0.0
H552 H 0.46299 0.00817 0.59907 0.0
H553 H 0.44243 0.02052 0.59117 0.0
H554 H 0.44642 0.01807 0.61739 0.0
H555 H 0.41534 0.00076 0.62615 0.0
H556 H 0.40186 0.99421 0.60312 0.0
C557 C 0.44279 0.91501 0.56312 0.0
C558 C 0.47552 0.93727 0.55617 0.0
C559 C 0.39893 0.0242 0.53405 0.0
C560 C 0.39458 0.04025 0.54719 0.0
C561 C 0.39839 0.03905 0.56773 0.0
C562 C 0.40722 0.02247 0.57492 0.0
C563 C 0.41229 0.00694 0.56143 0.0
C564 C 0.40768 0.00778 0.54144 0.0
C565 C 0.41389 0.9899 0.52925 0.0
C566 C 0.42331 0.9783 0.54515 0.0
C567 C 0.42253 0.98842 0.56393 0.0
C568 C 0.3948 0.9783 0.5202 0.0
C569 C 0.42939 0.99753 0.51366 0.0
C570 C 0.45448 0.9764 0.63046 0.0
C571 C 0.46661 0.96165 0.63672 0.0
C572 C 0.46968 0.9451 0.62359 0.0
C573 C 0.46148 0.94368 0.60431 0.0
C574 C 0.45025 0.95906 0.59796 0.0
C575 C 0.44651 0.97483 0.61112 0.0
C576 C 0.43438 0.98989 0.60175 0.0
C577 C 0.43182 0.98077 0.58066 0.0
C578 C 0.44128 0.9628 0.57851 0.0
C579 C 0.41413 0.99023 0.61281 0.0
C580 C 0.44703 0.01032 0.60241 0.0
H581 H 0.42228 0.95849 0.49954 0.0
H582 H 0.46476 0.90678 0.52287 0.0
H583 H 0.48228 0.9467 0.54436 0.0
H584 H 0.48008 0.94548 0.5703 0.0
H585 H 0.48256 0.92279 0.55526 0.0
H586 H 0.42847 0.90957 0.55552 0.0
H587 H 0.45281 0.90256 0.56214 0.0
H588 H 0.43867 0.91793 0.57887 0.0
H589 H 0.39578 0.02449 0.51824 0.0
H590 H 0.39511 0.05122 0.57815 0.0
H591 H 0.41015 0.02258 0.59064 0.0
H592 H 0.38188 0.9793 0.53049 0.0
H593 H 0.39059 0.98448 0.50587 0.0
H594 H 0.39637 0.96204 0.51783 0.0
H595 H 0.43924 0.01044 0.52006 0.0
H596 H 0.43975 0.98626 0.50885 0.0
H597 H 0.42184 0.00264 0.50031 0.0
H598 H 0.43466 0.93442 0.47568 0.0
C599 C 0.43132 0.9475 0.50516 0.0
C600 C 0.15643 0.30232 0.76812 0.0
C601 C 0.1464 0.28306 0.76675 0.0
C602 C 0.15283 0.26872 0.7526 0.0
C603 C 0.17929 0.29268 0.74196 0.0
C604 C 0.17286 0.30671 0.7558 0.0
C605 C 0.18599 0.326 0.75645 0.0
H606 H 0.27329 0.37599 0.73303 0.0
C607 C 0.19744 0.30174 0.73231 0.0
C608 C 0.20152 0.32119 0.74085 0.0
H609 H 0.22547 0.39639 0.77025 0.0
H610 H 0.20502 0.36633 0.76134 0.0
H611 H 0.2419 0.36068 0.69663 0.0
H612 H 0.26953 0.32909 0.74238 0.0
H613 H 0.27167 0.31589 0.71915 0.0
H614 H 0.28335 0.34094 0.72266 0.0
H615 H 0.26747 0.3547 0.69493 0.0
H616 H 0.24713 0.33717 0.68608 0.0
C617 C 0.17324 0.34304 0.7502 0.0
C618 C 0.1952 0.32919 0.77768 0.0
C619 C 0.23172 0.26213 0.67773 0.0
C620 C 0.24908 0.26617 0.66641 0.0
C621 C 0.26093 0.2843 0.67047 0.0
C622 C 0.25537 0.29831 0.68529 0.0
C623 C 0.23779 0.29417 0.69624 0.0
C624 C 0.22639 0.27624 0.69247 0.0
C625 C 0.20844 0.27412 0.70582 0.0
C626 C 0.2104 0.29413 0.71758 0.0
C627 C 0.22768 0.30581 0.71201 0.0
C628 C 0.18939 0.27184 0.69257 0.0
C629 C 0.21084 0.25627 0.71926 0.0
C630 C 0.25838 0.37404 0.73918 0.0
C631 C 0.25143 0.38833 0.75314 0.0
C632 C 0.23168 0.3853 0.76028 0.0
C633 C 0.21969 0.36783 0.75499 0.0
C634 C 0.22732 0.35312 0.74223 0.0
C635 C 0.24598 0.35666 0.73381 0.0
C636 C 0.25059 0.33989 0.71908 0.0
C637 C 0.23217 0.32529 0.72115 0.0
C638 C 0.21882 0.33307 0.73503 0.0
C639 C 0.25202 0.34843 0.69805 0.0
C640 C 0.26986 0.33095 0.726 0.0
H641 H 0.17331 0.26192 0.72965 0.0
H642 H 0.15201 0.31356 0.77905 0.0
H643 H 0.20016 0.31486 0.78291 0.0
H644 H 0.20864 0.33979 0.77852 0.0
H645 H 0.18407 0.33458 0.78852 0.0
H646 H 0.1603 0.33712 0.74067 0.0
H647 H 0.16719 0.35112 0.76343 0.0
H648 H 0.18177 0.35397 0.74096 0.0
H649 H 0.2225 0.24819 0.67526 0.0
H650 H 0.27431 0.28783 0.6619 0.0
H651 H 0.26494 0.31186 0.68762 0.0
H652 H 0.19066 0.28261 0.68044 0.0
H653 H 0.18713 0.25647 0.6855 0.0
H654 H 0.17572 0.27516 0.70082 0.0
H655 H 0.22688 0.25372 0.72152 0.0
H656 H 0.20506 0.25895 0.73451 0.0
H657 H 0.20332 0.24212 0.71257 0.0
H658 H 0.14522 0.25382 0.75121 0.0
C659 C 0.16913 0.27346 0.74012 0.0
C660 C 0.73956 0.16173 0.72681 0.0
C661 C 0.72513 0.15819 0.71145 0.0
C662 C 0.72602 0.1711 0.69538 0.0
C663 C 0.75392 0.19128 0.71089 0.0
C664 C 0.75393 0.17805 0.72602 0.0
C665 C 0.77098 0.18322 0.74044 0.0
H666 H 0.85511 0.24172 0.76497 0.0
C667 C 0.77028 0.20708 0.71485 0.0
C668 C 0.78061 0.20223 0.73191 0.0
H669 H 0.83004 0.18904 0.79392 0.0
H670 H 0.80199 0.18647 0.77142 0.0
H671 H 0.81457 0.26149 0.76532 0.0
H672 H 0.84364 0.22864 0.71864 0.0
H673 H 0.83579 0.25119 0.70964 0.0
H674 H 0.85321 0.25234 0.73006 0.0
H675 H 0.83225 0.27387 0.74914 0.0
H676 H 0.80593 0.27029 0.74293 0.0
C677 C 0.76218 0.18739 0.76142 0.0
C678 C 0.78495 0.16582 0.73915 0.0
C679 C 0.77551 0.26854 0.67329 0.0
C680 C 0.78743 0.28675 0.67501 0.0
C681 C 0.80252 0.28943 0.68972 0.0
C682 C 0.80573 0.27406 0.70256 0.0
C683 C 0.79345 0.25601 0.70089 0.0
C684 C 0.77855 0.25356 0.68652 0.0
C685 C 0.76613 0.23394 0.6877 0.0
C686 C 0.77581 0.22518 0.70539 0.0
C687 C 0.792 0.238 0.71283 0.0
C688 C 0.74425 0.23861 0.69204 0.0
C689 C 0.76886 0.22124 0.66807 0.0
C690 C 0.84359 0.22969 0.7667 0.0
C691 C 0.84532 0.21527 0.78111 0.0
C692 C 0.8297 0.19996 0.78259 0.0
C693 C 0.81324 0.19854 0.76957 0.0
C694 C 0.81212 0.21271 0.75497 0.0
C695 C 0.82685 0.22827 0.75406 0.0
C696 C 0.82231 0.24282 0.73858 0.0
C697 C 0.80324 0.23253 0.72936 0.0
C698 C 0.79741 0.21487 0.73899 0.0
C699 C 0.81868 0.26324 0.74941 0.0
C700 C 0.83965 0.24396 0.72339 0.0
H701 H 0.73984 0.19695 0.6826 0.0
H702 H 0.73962 0.15229 0.73942 0.0
H703 H 0.78494 0.15865 0.72383 0.0
H704 H 0.8008 0.17086 0.74216 0.0
H705 H 0.78008 0.15398 0.74952 0.0
H706 H 0.74853 0.19571 0.76039 0.0
H707 H 0.75792 0.17317 0.76876 0.0
H708 H 0.77251 0.19697 0.77133 0.0
H709 H 0.76363 0.26626 0.66224 0.0
H710 H 0.81187 0.30339 0.6912 0.0
H711 H 0.81754 0.27685 0.71337 0.0
H712 H 0.7438 0.2509 0.70377 0.0
H713 H 0.73693 0.24348 0.67844 0.0
H714 H 0.73497 0.22583 0.69773 0.0
H715 H 0.78352 0.22536 0.66101 0.0
H716 H 0.76905 0.20504 0.67057 0.0
H717 H 0.75697 0.22345 0.65704 0.0
H718 H 0.71578 0.16847 0.68288 0.0
C719 C 0.74018 0.18762 0.69511 0.0
C720 C 0.56667 0.64203 0.53664 0.0
C721 C 0.55016 0.6531 0.53277 0.0
C722 C 0.53331 0.65098 0.54536 0.0
C723 C 0.54946 0.62737 0.56489 0.0
C724 C 0.56587 0.62913 0.55249 0.0
C725 C 0.58132 0.615 0.55748 0.0
H726 H 0.60659 0.5375 0.61072 0.0
C727 C 0.55309 0.61235 0.5796 0.0
C728 C 0.57168 0.6049 0.57524 0.0
H729 H 0.63855 0.56428 0.56152 0.0
H730 H 0.61485 0.58954 0.56054 0.0
H731 H 0.59939 0.57927 0.63404 0.0
H732 H 0.563 0.53976 0.5939 0.0
H733 H 0.54802 0.54674 0.6142 0.0
H734 H 0.56982 0.5336 0.6186 0.0
H735 H 0.58518 0.55755 0.64257 0.0
H736 H 0.57461 0.58151 0.64174 0.0
C737 C 0.60097 0.62759 0.56345 0.0
C738 C 0.58327 0.60007 0.53929 0.0
C739 C 0.50132 0.59613 0.63309 0.0
C740 C 0.50077 0.58302 0.64889 0.0
C741 C 0.51739 0.57184 0.65196 0.0
C742 C 0.53395 0.57324 0.6393 0.0
C743 C 0.53404 0.586 0.62332 0.0
C744 C 0.51809 0.59745 0.62063 0.0
C745 C 0.52117 0.61059 0.60314 0.0
C746 C 0.54158 0.60508 0.59586 0.0
C747 C 0.54887 0.59048 0.6076 0.0
C748 C 0.52168 0.63273 0.61109 0.0
C749 C 0.50443 0.60434 0.58756 0.0
C750 C 0.60873 0.54899 0.59995 0.0
C751 C 0.62432 0.54866 0.58599 0.0
C752 C 0.62641 0.5639 0.57216 0.0
C753 C 0.61264 0.57856 0.57161 0.0
C754 C 0.5965 0.57798 0.58495 0.0
C755 C 0.59505 0.56369 0.59914 0.0
C756 C 0.57698 0.56538 0.61216 0.0
C757 C 0.56734 0.58245 0.60285 0.0
C758 C 0.57879 0.58976 0.58689 0.0
C759 C 0.58426 0.57108 0.6338 0.0
C760 C 0.56371 0.54535 0.60979 0.0
H761 H 0.51966 0.63744 0.57029 0.0
H762 H 0.57995 0.64318 0.52749 0.0
H763 H 0.56885 0.59726 0.53101 0.0
H764 H 0.58692 0.58506 0.54355 0.0
H765 H 0.5947 0.60597 0.52866 0.0
H766 H 0.59777 0.64108 0.57289 0.0
H767 H 0.60917 0.63281 0.55006 0.0
H768 H 0.61103 0.61936 0.57251 0.0
H769 H 0.48883 0.6049 0.63022 0.0
H770 H 0.51769 0.56203 0.66429 0.0
H771 H 0.54598 0.5642 0.64237 0.0
H772 H 0.53032 0.63497 0.6253 0.0
H773 H 0.50632 0.63722 0.61408 0.0
H774 H 0.52921 0.64331 0.60089 0.0
H775 H 0.49941 0.58814 0.58816 0.0
H776 H 0.50951 0.60609 0.57204 0.0
H777 H 0.49113 0.61298 0.59025 0.0
H778 H 0.52005 0.65865 0.5426 0.0
C779 C 0.53296 0.63838 0.56141 0.0
C780 C 0.5594 0.4255 0.00703 0.0
C781 C 0.54036 0.41763 0.01297 0.0
C782 C 0.52332 0.424 0.00343 0.0
C783 C 0.54439 0.44591 0.98307 0.0
C784 C 0.56103 0.43975 0.99244 0.0
C785 C 0.58008 0.45099 0.98615 0.0
H786 H 0.62503 0.52905 0.93933 0.0
C787 C 0.5513 0.46146 0.96917 0.0
C788 C 0.57218 0.46465 0.97113 0.0
H789 H 0.65133 0.48969 0.97928 0.0
H790 H 0.62023 0.46905 0.98018 0.0
H791 H 0.58191 0.53107 0.96079 0.0
H792 H 0.60277 0.49395 0.91237 0.0
H793 H 0.57698 0.49479 0.90813 0.0
H794 H 0.59328 0.51764 0.90809 0.0
H795 H 0.59053 0.53991 0.9372 0.0
H796 H 0.56505 0.53043 0.94044 0.0
C797 C 0.58954 0.46283 0.00479 0.0
C798 C 0.59358 0.43574 0.97607 0.0
C799 C 0.50146 0.49265 0.92524 0.0
C800 C 0.50385 0.50658 0.91026 0.0
C801 C 0.52321 0.51465 0.90556 0.0
C802 C 0.53996 0.50925 0.91592 0.0
C803 C 0.53735 0.49553 0.93105 0.0
C804 C 0.5184 0.48714 0.93522 0.0
C805 C 0.51871 0.47197 0.95103 0.0
C806 C 0.54098 0.47261 0.95555 0.0
C807 C 0.55172 0.48677 0.94409 0.0
C808 C 0.50668 0.47954 0.9692 0.0
C809 C 0.51053 0.45132 0.94171 0.0
C810 C 0.62399 0.51595 0.94822 0.0
C811 C 0.64047 0.51111 0.95948 0.0
C812 C 0.63882 0.49369 0.97048 0.0
C813 C 0.6207 0.48183 0.97113 0.0
C814 C 0.60403 0.48745 0.9607 0.0
C815 C 0.60599 0.50385 0.94894 0.0
C816 C 0.5868 0.50698 0.93826 0.0
C817 C 0.5727 0.49067 0.94679 0.0
C818 C 0.58289 0.47941 0.95999 0.0
C819 C 0.58067 0.52824 0.94434 0.0
C820 C 0.59003 0.5033 0.91553 0.0
H821 H 0.51172 0.44227 0.98194 0.0
H822 H 0.57291 0.42094 0.01371 0.0
H823 H 0.58451 0.42437 0.9665 0.0
H824 H 0.60478 0.44279 0.96598 0.0
H825 H 0.60143 0.42763 0.98738 0.0
H826 H 0.57804 0.46617 0.01615 0.0
H827 H 0.60077 0.45422 0.01207 0.0
H828 H 0.5966 0.47774 0.00136 0.0
H829 H 0.48674 0.48601 0.92892 0.0
H830 H 0.52534 0.52542 0.89407 0.0
H831 H 0.55428 0.51609 0.91187 0.0
H832 H 0.50817 0.49621 0.97088 0.0
H833 H 0.4905 0.47471 0.96754 0.0
H834 H 0.51218 0.47453 0.9835 0.0
H835 H 0.51647 0.44896 0.92637 0.0
H836 H 0.51508 0.4386 0.95 0.0
H837 H 0.49394 0.4503 0.94066 0.0
H838 H 0.50839 0.41865 0.00783 0.0
C839 C 0.52525 0.43794 0.98847 0.0
C840 C 0.76207 0.20652 0.31437 0.0
C841 C 0.76354 0.1912 0.29947 0.0
C842 C 0.75029 0.19014 0.28304 0.0
C843 C 0.73348 0.21821 0.29748 0.0
C844 C 0.74694 0.21964 0.31319 0.0
C845 C 0.74253 0.23565 0.32867 0.0
H846 H 0.67888 0.30078 0.36606 0.0
C847 C 0.71875 0.23324 0.30155 0.0
C848 C 0.72402 0.24347 0.31982 0.0
H849 H 0.73627 0.28785 0.38998 0.0
H850 H 0.74137 0.26582 0.3615 0.0
H851 H 0.66424 0.25599 0.34729 0.0
H852 H 0.69561 0.3081 0.32384 0.0
H853 H 0.68255 0.29579 0.3035 0.0
H854 H 0.66882 0.30535 0.32459 0.0
H855 H 0.65354 0.27944 0.34433 0.0
H856 H 0.65338 0.26072 0.3242 0.0
C857 C 0.738 0.22541 0.34856 0.0
C858 C 0.76047 0.25181 0.32968 0.0
C859 C 0.65991 0.23759 0.25432 0.0
C860 C 0.64371 0.24974 0.25465 0.0
C861 C 0.6424 0.26437 0.27032 0.0
C862 C 0.65669 0.26658 0.28566 0.0
C863 C 0.67255 0.25407 0.28536 0.0
C864 C 0.67419 0.2401 0.26971 0.0
C865 C 0.69231 0.22842 0.27177 0.0
C866 C 0.70129 0.23777 0.29118 0.0
C867 C 0.68944 0.25256 0.29919 0.0
C868 C 0.68503 0.20604 0.27359 0.0
C869 C 0.70623 0.23258 0.25381 0.0
C870 C 0.69263 0.29335 0.36523 0.0
C871 C 0.7069 0.29583 0.38078 0.0
C872 C 0.72459 0.28577 0.37875 0.0
C873 C 0.72768 0.27308 0.36202 0.0
C874 C 0.71307 0.27044 0.34693 0.0
C875 C 0.69616 0.28089 0.34843 0.0
C876 C 0.68303 0.27742 0.33018 0.0
C877 C 0.69452 0.26255 0.31788 0.0
C878 C 0.71191 0.25828 0.32793 0.0
C879 C 0.66237 0.26799 0.33671 0.0
C880 C 0.68227 0.29765 0.31997 0.0
H881 H 0.72545 0.20177 0.26927 0.0
H882 H 0.77221 0.20801 0.32703 0.0
H883 H 0.76831 0.25263 0.3151 0.0
H884 H 0.75578 0.26711 0.33285 0.0
H885 H 0.77163 0.24847 0.34104 0.0
H886 H 0.72857 0.21109 0.34585 0.0
H887 H 0.75203 0.22188 0.35596 0.0
H888 H 0.72947 0.23442 0.35919 0.0
H889 H 0.66141 0.22633 0.24238 0.0
H890 H 0.62995 0.27376 0.27102 0.0
H891 H 0.65465 0.27774 0.29732 0.0
H892 H 0.67099 0.20452 0.2824 0.0
H893 H 0.68191 0.19851 0.25867 0.0
H894 H 0.69571 0.1976 0.28163 0.0
H895 H 0.70623 0.2485 0.24979 0.0
H896 H 0.72204 0.23037 0.257 0.0
H897 H 0.70123 0.22299 0.24047 0.0
H898 H 0.75099 0.17843 0.27139 0.0
C899 C 0.73532 0.20359 0.28194 0.0
C900 C 0.39683 0.01294 0.98819 0.0
C901 C 0.3945 0.99624 0.97469 0.0
C902 C 0.40879 0.99379 0.95961 0.0
C903 C 0.42721 0.02479 0.97134 0.0
C904 C 0.4131 0.0271 0.98612 0.0
C905 C 0.41681 0.04658 0.99814 0.0
H906 H 0.47351 0.13377 0.01636 0.0
C907 C 0.4418 0.04255 0.97281 0.0
C908 C 0.43573 0.05539 0.98845 0.0
H909 H 0.41774 0.11413 0.04405 0.0
H910 H 0.41626 0.08296 0.024 0.0
H911 H 0.45924 0.12216 0.97385 0.0
H912 H 0.49328 0.09 0.014 0.0
H913 H 0.50442 0.08799 0.99033 0.0
H914 H 0.50296 0.11242 0.00257 0.0
H915 H 0.48567 0.12779 0.97722 0.0
H916 H 0.47565 0.1091 0.95877 0.0
C917 C 0.39882 0.05936 0.99502 0.0
C918 C 0.42047 0.04175 0.02009 0.0
C919 C 0.49917 0.04946 0.92351 0.0
C920 C 0.514 0.06505 0.92047 0.0
C921 C 0.51583 0.08181 0.93405 0.0
C922 C 0.50272 0.08333 0.95016 0.0
C923 C 0.48742 0.06806 0.95257 0.0
C924 C 0.48597 0.05135 0.93953 0.0
C925 C 0.46824 0.03705 0.94399 0.0
C926 C 0.45925 0.04803 0.96173 0.0
C927 C 0.47057 0.06615 0.96665 0.0
C928 C 0.45405 0.03524 0.9256 0.0
C929 C 0.47614 0.01701 0.94974 0.0
C930 C 0.46115 0.12258 0.01822 0.0
C931 C 0.44581 0.12613 0.03181 0.0
C932 C 0.42968 0.11156 0.0336 0.0
C933 C 0.42888 0.09354 0.02196 0.0
C934 C 0.44419 0.09027 0.00815 0.0
C935 C 0.45992 0.10473 0.0064 0.0
C936 C 0.4741 0.09934 0.99004 0.0
C937 C 0.46443 0.07915 0.98241 0.0
C938 C 0.44705 0.07384 0.99317 0.0
C939 C 0.47387 0.1154 0.97414 0.0
C940 C 0.49488 0.09743 0.99956 0.0
H941 H 0.43561 0.00526 0.94614 0.0
H942 H 0.38575 0.01536 0.99962 0.0
H943 H 0.43041 0.02926 0.02086 0.0
H944 H 0.4281 0.05444 0.02895 0.0
H945 H 0.40617 0.03707 0.0275 0.0
H946 H 0.39127 0.05538 0.98043 0.0
H947 H 0.38743 0.05707 0.00686 0.0
H948 H 0.40339 0.07556 0.99448 0.0
H949 H 0.49728 0.03656 0.9131 0.0
H950 H 0.52724 0.09392 0.93197 0.0
H951 H 0.50474 0.09658 0.95983 0.0
H952 H 0.45464 0.04955 0.91779 0.0
H953 H 0.45825 0.02331 0.91467 0.0
H954 H 0.43815 0.0323 0.92961 0.0
H955 H 0.48976 0.0198 0.95929 0.0
H956 H 0.46538 0.00787 0.95862 0.0
H957 H 0.48022 0.00796 0.93625 0.0
H958 H 0.40711 0.981 0.94903 0.0
C959 C 0.42525 0.00789 0.95797 0.0
O960 O 0.23931 0.85963 0.00882 0.0
Cd961 Cd 0.2571 0.87602 0.03014 0.0
Cd962 Cd 0.22945 0.90697 0.0177 0.0
O963 O 0.21653 0.88106 0.00395 0.0
O964 O 0.27544 0.85597 0.03847 0.0
O965 O 0.25455 0.86975 0.05938 0.0
C966 C 0.26839 0.85764 0.05623 0.0
C967 C 0.2078 0.93294 0.02211 0.0
C968 C 0.22319 0.86398 0.00063 0.0
C969 C 0.27446 0.91308 0.01051 0.0
O970 O 0.25682 0.91769 0.00718 0.0
O971 O 0.27769 0.89818 0.0207 0.0
O972 O 0.21304 0.92623 0.00482 0.0
O973 O 0.2145 0.92461 0.0374 0.0
O974 O 0.1379 0.54195 0.27668 0.0
Cd975 Cd 0.12132 0.51489 0.27888 0.0
Cd976 Cd 0.10239 0.52835 0.24858 0.0
O977 O 0.12696 0.54884 0.24698 0.0
O978 O 0.13834 0.49564 0.29128 0.0
O979 O 0.12729 0.49215 0.2601 0.0
C980 C 0.13765 0.48567 0.27428 0.0
C981 C 0.0887 0.50894 0.22154 0.0
C982 C 0.13867 0.553 0.26178 0.0
C983 C 0.08065 0.52616 0.28755 0.0
O984 O 0.08196 0.53383 0.27062 0.0
O985 O 0.09436 0.51577 0.29349 0.0
O986 O 0.08687 0.52799 0.22323 0.0
O987 O 0.09945 0.50117 0.23461 0.0
O988 O 0.76238 0.67942 0.98396 0.0
Cd989 Cd 0.75332 0.66135 0.00674 0.0
Cd990 Cd 0.78557 0.64146 0.99707 0.0
O991 O 0.78972 0.66412 0.97748 0.0
O992 O 0.73932 0.67794 0.02684 0.0
O993 O 0.76792 0.66467 0.03285 0.0
C994 C 0.75387 0.67562 0.03894 0.0
C995 C 0.81419 0.63025 0.01128 0.0
C996 C 0.77827 0.67776 0.97395 0.0
C997 C 0.74474 0.61894 0.99214 0.0
O998 O 0.76359 0.619 0.99014 0.0
O999 O 0.73696 0.63453 0.9991 0.0
O1000 O 0.81048 0.62777 0.99249 0.0
O1001 O 0.80176 0.6395 0.0223 0.0
O1002 O 0.90464 0.02467 0.28065 0.0
Cd1003 Cd 0.8893 0.0268 0.25431 0.0
Cd1004 Cd 0.8629 0.04845 0.28125 0.0
O1005 O 0.88497 0.04134 0.30068 0.0
O1006 O 0.90711 0.01547 0.23382 0.0
O1007 O 0.90012 0.04721 0.23497 0.0
C1008 C 0.90941 0.03292 0.22652 0.0
C1009 C 0.8483 0.07839 0.28957 0.0
C1010 C 0.90042 0.03173 0.29791 0.0
C1011 C 0.84553 0.01181 0.2564 0.0
O1012 O 0.84293 0.02619 0.26894 0.0
O1013 O 0.86272 0.00942 0.24913 0.0
O1014 O 0.84555 0.0629 0.30011 0.0
O1015 O 0.85963 0.07712 0.2741 0.0
O1016 O 0.25395 0.18806 0.49259 0.0
Cd1017 Cd 0.25496 0.16611 0.51295 0.0
Cd1018 Cd 0.28409 0.15618 0.48978 0.0
O1019 O 0.28356 0.18459 0.47934 0.0
O1020 O 0.24111 0.17653 0.53715 0.0
O1021 O 0.27338 0.17168 0.53654 0.0
C1022 C 0.25823 0.17801 0.54615 0.0
C1023 C 0.31297 0.14305 0.50086 0.0
C1024 C 0.2679 0.19405 0.481 0.0
C1025 C 0.24646 0.12916 0.48777 0.0
O1026 O 0.26224 0.13518 0.47865 0.0
O1027 O 0.24168 0.13815 0.504 0.0
O1028 O 0.31015 0.14577 0.4822 0.0
O1029 O 0.29974 0.14873 0.51344 0.0
O1030 O 0.40136 0.52861 0.80085 0.0
Cd1031 Cd 0.38404 0.52892 0.77531 0.0
Cd1032 Cd 0.36007 0.5483 0.80039 0.0
O1033 O 0.38376 0.54832 0.81998 0.0
O1034 O 0.4023 0.5247 0.75224 0.0
O1035 O 0.388 0.55295 0.75866 0.0
C1036 C 0.39993 0.54289 0.74778 0.0
C1037 C 0.3464 0.57755 0.7917 0.0
C1038 C 0.39887 0.53818 0.81739 0.0
C1039 C 0.34405 0.50792 0.78343 0.0
O1040 O 0.34213 0.52195 0.79661 0.0
O1041 O 0.35921 0.50842 0.77202 0.0
O1042 O 0.34317 0.57049 0.80905 0.0
O1043 O 0.35789 0.56834 0.77956 0.0
O1044 O 0.73596 0.37155 0.51378 0.0
Cd1045 Cd 0.75291 0.38695 0.53609 0.0
Cd1046 Cd 0.7255 0.41527 0.5315 0.0
O1047 O 0.71382 0.39388 0.5106 0.0
O1048 O 0.7668 0.36668 0.55031 0.0
O1049 O 0.74517 0.38606 0.5649 0.0
C1050 C 0.75736 0.37213 0.56615 0.0
C1051 C 0.7033 0.43565 0.54805 0.0
C1052 C 0.72057 0.37723 0.5053 0.0
C1053 C 0.76976 0.4266 0.52387 0.0
O1054 O 0.75179 0.43127 0.52469 0.0
O1055 O 0.77402 0.40908 0.52783 0.0
O1056 O 0.70664 0.43648 0.52925 0.0
O1057 O 0.71202 0.4225 0.55761 0.0
O1058 O 0.63784 0.03806 0.76137 0.0
Cd1059 Cd 0.62407 0.01639 0.77904 0.0
Cd1060 Cd 0.59128 0.0245 0.75559 0.0
O1061 O 0.61263 0.04169 0.74095 0.0
O1062 O 0.64623 0.00609 0.79421 0.0
O1063 O 0.62748 0.98705 0.77245 0.0
C1064 C 0.6419 0.98879 0.78535 0.0
C1065 C 0.56518 0.00724 0.73731 0.0
C1066 C 0.63069 0.04605 0.74638 0.0
C1067 C 0.58962 0.03416 0.79979 0.0
O1068 O 0.5824 0.03615 0.78262 0.0
O1069 O 0.6055 0.02534 0.80189 0.0
O1070 O 0.56624 0.02642 0.74023 0.0
O1071 O 0.57943 0.99759 0.74411 0.0
O1072 O 0.98077 0.28488 0.91414 0.0
Cd1073 Cd 0.98803 0.25712 0.90274 0.0
Cd1074 Cd 0.99973 0.27891 0.87195 0.0
O1075 O 0.995 0.30311 0.89083 0.0
O1076 O 0.98748 0.23997 0.92619 0.0
O1077 O 0.01509 0.24819 0.90948 0.0
C1078 C 0.00653 0.23921 0.92417 0.0
C1079 C 0.03019 0.2762 0.85585 0.0
C1080 C 0.98572 0.30191 0.90726 0.0
C1081 C 0.96487 0.24887 0.86484 0.0
O1082 O 0.97467 0.26433 0.85863 0.0
O1083 O 0.969 0.24215 0.88162 0.0
O1084 O 0.01772 0.28857 0.85027 0.0
O1085 O 0.0255 0.26559 0.87097 0.0
O1086 O 0.49758 0.79365 0.42107 0.0
Cd1087 Cd 0.50163 0.7651 0.4092 0.0
Cd1088 Cd 0.51509 0.78605 0.37824 0.0
O1089 O 0.51101 0.8108 0.39661 0.0
O1090 O 0.49942 0.74816 0.43277 0.0
O1091 O 0.52676 0.75152 0.41439 0.0
C1092 C 0.51755 0.74385 0.42943 0.0
C1093 C 0.54597 0.78224 0.36342 0.0
C1094 C 0.50275 0.81035 0.4136 0.0
C1095 C 0.47866 0.75814 0.37076 0.0
O1096 O 0.49012 0.77225 0.36405 0.0
O1097 O 0.48124 0.75222 0.38822 0.0
O1098 O 0.53409 0.79481 0.35711 0.0
O1099 O 0.54038 0.77192 0.37849 0.0
O1100 O 0.97051 0.78641 0.66244 0.0
Cd1101 Cd 0.9942 0.77397 0.64829 0.0
Cd1102 Cd 0.98845 0.80437 0.62097 0.0
O1103 O 0.96716 0.81084 0.642 0.0
O1104 O 0.00534 0.75565 0.66706 0.0
O1105 O 0.02259 0.78271 0.6566 0.0
C1106 C 0.02186 0.76689 0.66692 0.0
C1107 C 0.0038 0.83148 0.6048 0.0
C1108 C 0.96186 0.80166 0.65749 0.0
C1109 C 0.98497 0.76074 0.60571 0.0
O1110 O 0.98428 0.77911 0.60218 0.0
O1111 O 0.98858 0.75556 0.62318 0.0
O1112 O 0.98552 0.82498 0.60122 0.0
O1113 O 0.01346 0.823 0.61827 0.0
O1114 O 0.47414 0.27608 0.17235 0.0
Cd1115 Cd 0.49579 0.26354 0.15482 0.0
Cd1116 Cd 0.48438 0.29208 0.12874 0.0
O1117 O 0.46883 0.30127 0.15346 0.0
O1118 O 0.50901 0.24542 0.17238 0.0
O1119 O 0.52499 0.27215 0.15994 0.0
C1120 C 0.52536 0.25664 0.1706 0.0
C1121 C 0.50097 0.31671 0.11008 0.0
C1122 C 0.46571 0.29204 0.16938 0.0
C1123 C 0.47692 0.24854 0.11572 0.0
O1124 O 0.47339 0.26649 0.11275 0.0
O1125 O 0.48678 0.24444 0.13094 0.0
O1126 O 0.48183 0.31311 0.10918 0.0
O1127 O 0.51088 0.30649 0.12194 0.0
H1128 H 0.21933 0.7742 0.9183 0.0
H1129 H 0.17977 0.80966 0.88561 0.0
H1130 H 0.17658 0.8316 0.91522 0.0
H1131 H 0.1985 0.78189 0.96854 0.0
H1132 H 0.22285 0.7852 0.98022 0.0
H1133 H 0.21904 0.76927 0.95787 0.0
H1134 H 0.24778 0.78989 0.94051 0.0
H1135 H 0.25176 0.80572 0.96282 0.0
H1136 H 0.24694 0.81667 0.93947 0.0
H1137 H 0.17924 0.85155 0.94702 0.0
H1138 H 0.19158 0.8711 0.97706 0.0
H1139 H 0.23296 0.82605 0.9881 0.0
C1140 C 0.20989 0.78645 0.91717 0.0
C1141 C 0.19935 0.78944 0.89934 0.0
C1142 C 0.18729 0.80599 0.89902 0.0
C1143 C 0.18546 0.81884 0.91587 0.0
C1144 C 0.19612 0.81545 0.93296 0.0
C1145 C 0.20841 0.79993 0.93367 0.0
C1146 C 0.22046 0.80143 0.95293 0.0
C1147 C 0.21487 0.78337 0.96564 0.0
C1148 C 0.24307 0.80356 0.94867 0.0
C1149 C 0.21339 0.82057 0.96258 0.0
C1150 C 0.19888 0.828 0.95103 0.0
C1151 C 0.19052 0.84587 0.95627 0.0
C1152 C 0.19766 0.85686 0.97343 0.0
C1153 C 0.21334 0.8502 0.98497 0.0
C1154 C 0.2209 0.83151 0.9797 0.0
H1155 H 0.022 0.53171 0.39065 0.0
H1156 H 0.98754 0.57612 0.3649 0.0
H1157 H 0.00336 0.56969 0.33214 0.0
H1158 H 0.06667 0.54561 0.36614 0.0
H1159 H 0.07454 0.52057 0.36253 0.0
H1160 H 0.05858 0.5266 0.38313 0.0
H1161 H 0.03261 0.49773 0.37118 0.0
H1162 H 0.04852 0.49158 0.35051 0.0
H1163 H 0.02302 0.49693 0.34603 0.0
H1164 H 0.0243 0.56022 0.3032 0.0
H1165 H 0.05055 0.55002 0.28012 0.0
H1166 H 0.07271 0.51263 0.32499 0.0
C1167 C 0.01757 0.5397 0.37793 0.0
C1168 C 0.00348 0.55419 0.37997 0.0
C1169 C 0.99825 0.56486 0.36336 0.0
C1170 C 0.00708 0.56124 0.34477 0.0
C1171 C 0.02115 0.54702 0.34321 0.0
C1172 C 0.02646 0.53647 0.35934 0.0
C1173 C 0.04333 0.52342 0.35408 0.0
C1174 C 0.06187 0.52942 0.36725 0.0
C1175 C 0.03645 0.50109 0.35553 0.0
C1176 C 0.04698 0.52866 0.33264 0.0
C1177 C 0.03377 0.54201 0.32659 0.0
C1178 C 0.03464 0.54965 0.30768 0.0
C1179 C 0.04964 0.54376 0.29469 0.0
C1180 C 0.06373 0.53053 0.30074 0.0
C1181 C 0.06213 0.52267 0.31988 0.0
H1182 H 0.7656 0.76848 0.90313 0.0
H1183 H 0.80173 0.73702 0.85996 0.0
H1184 H 0.80667 0.71158 0.88413 0.0
H1185 H 0.792 0.7579 0.94753 0.0
H1186 H 0.76969 0.75357 0.96217 0.0
H1187 H 0.76994 0.77042 0.94205 0.0
H1188 H 0.73909 0.74993 0.92599 0.0
H1189 H 0.73864 0.73313 0.94615 0.0
H1190 H 0.73998 0.72335 0.92072 0.0
H1191 H 0.80829 0.68975 0.91274 0.0
H1192 H 0.80305 0.6704 0.9428 0.0
H1193 H 0.76323 0.71378 0.96646 0.0
C1194 C 0.77444 0.7562 0.89863 0.0
C1195 C 0.78367 0.75519 0.87968 0.0
C1196 C 0.7951 0.73873 0.87457 0.0
C1197 C 0.79789 0.72403 0.88816 0.0
C1198 C 0.78885 0.72568 0.90672 0.0
C1199 C 0.77706 0.74111 0.91189 0.0
C1200 C 0.76807 0.73858 0.93241 0.0
C1201 C 0.77537 0.75617 0.94689 0.0
C1202 C 0.74508 0.73609 0.93124 0.0
C1203 C 0.77665 0.71929 0.93788 0.0
C1204 C 0.78885 0.71234 0.92295 0.0
C1205 C 0.7987 0.69496 0.92453 0.0
C1206 C 0.79569 0.68413 0.94171 0.0
C1207 C 0.78269 0.69055 0.95694 0.0
C1208 C 0.7732 0.70847 0.95503 0.0
H1209 H 0.00071 0.00583 0.35251 0.0
H1210 H 0.97044 0.0163 0.4087 0.0
H1211 H 0.94022 0.02412 0.39046 0.0
H1212 H 0.97981 0.04489 0.32607 0.0
H1213 H 0.97734 0.03034 0.30275 0.0
H1214 H 0.99669 0.0258 0.32022 0.0
H1215 H 0.98353 0.98834 0.32027 0.0
H1216 H 0.96414 0.99277 0.30281 0.0
H1217 H 0.95767 0.98183 0.32617 0.0
H1218 H 0.91366 0.03156 0.36625 0.0
H1219 H 0.89184 0.03662 0.3376 0.0
H1220 H 0.93888 0.02016 0.297 0.0
C1221 C 0.98773 0.00988 0.36093 0.0
C1222 C 0.98787 0.0105 0.382 0.0
C1223 C 0.97056 0.01561 0.39254 0.0
C1224 C 0.95338 0.02015 0.38233 0.0
C1225 C 0.9537 0.01936 0.36156 0.0
C1226 C 0.97036 0.01424 0.35095 0.0
C1227 C 0.96658 0.0141 0.32868 0.0
C1228 C 0.98096 0.02971 0.31886 0.0
C1229 C 0.96807 0.993 0.31891 0.0
C1230 C 0.94525 0.02006 0.32844 0.0
C1231 C 0.93815 0.02313 0.34757 0.0
C1232 C 0.91901 0.02911 0.35119 0.0
C1233 C 0.90674 0.03198 0.33481 0.0
C1234 C 0.9136 0.02871 0.31505 0.0
C1235 C 0.93313 0.02263 0.31191 0.0
H1236 H 0.22415 0.24618 0.63842 0.0
H1237 H 0.28625 0.25369 0.65753 0.0
H1238 H 0.29514 0.23001 0.63009 0.0
H1239 H 0.22298 0.19301 0.62358 0.0
H1240 H 0.20693 0.19534 0.6024 0.0
H1241 H 0.20541 0.21206 0.62413 0.0
H1242 H 0.21172 0.24269 0.60219 0.0
H1243 H 0.21318 0.2261 0.58041 0.0
H1244 H 0.2336 0.24455 0.58659 0.0
H1245 H 0.29727 0.2062 0.59976 0.0
H1246 H 0.29279 0.18574 0.56814 0.0
H1247 H 0.22921 0.19399 0.56921 0.0
C1248 C 0.23957 0.24261 0.63704 0.0
C1249 C 0.2545 0.2517 0.65018 0.0
C1250 C 0.2746 0.247 0.64755 0.0
C1251 C 0.27975 0.23346 0.63211 0.0
C1252 C 0.26464 0.22477 0.61941 0.0
C1253 C 0.24497 0.22923 0.62169 0.0
C1254 C 0.2317 0.21867 0.60552 0.0
C1255 C 0.21582 0.20389 0.61444 0.0
C1256 C 0.22199 0.23391 0.59294 0.0
C1257 C 0.247 0.20772 0.59362 0.0
C1258 C 0.26589 0.21126 0.60195 0.0
C1259 C 0.28252 0.20323 0.59318 0.0
C1260 C 0.27982 0.19159 0.57524 0.0
C1261 C 0.26064 0.18818 0.56622 0.0
C1262 C 0.24404 0.19615 0.57578 0.0
H1263 H 0.484 0.54852 0.66449 0.0
H1264 H 0.47749 0.61247 0.6635 0.0
H1265 H 0.44894 0.6087 0.68662 0.0
H1266 H 0.4312 0.53205 0.66829 0.0
H1267 H 0.43575 0.51269 0.68507 0.0
H1268 H 0.45442 0.52019 0.66705 0.0
H1269 H 0.48066 0.52773 0.69538 0.0
H1270 H 0.46213 0.52021 0.71347 0.0
H1271 H 0.47534 0.54473 0.71602 0.0
H1272 H 0.42234 0.59813 0.71158 0.0
H1273 H 0.40067 0.58188 0.73686 0.0
H1274 H 0.42567 0.52519 0.72208 0.0
C1275 C 0.47663 0.56179 0.66911 0.0
C1276 C 0.48304 0.58081 0.66214 0.0
C1277 C 0.47271 0.59769 0.66838 0.0
C1278 C 0.45651 0.59571 0.68158 0.0
C1279 C 0.45081 0.57676 0.68836 0.0
C1280 C 0.46058 0.56011 0.68232 0.0
C1281 C 0.45231 0.54162 0.69256 0.0
C1282 C 0.44286 0.5257 0.67733 0.0
C1283 C 0.46858 0.53308 0.7051 0.0
C1284 C 0.43657 0.55051 0.70561 0.0
C1285 C 0.43575 0.57074 0.70284 0.0
C1286 C 0.42276 0.58226 0.71376 0.0
C1287 C 0.4105 0.57289 0.72808 0.0
C1288 C 0.41145 0.55225 0.73142 0.0
C1289 C 0.4245 0.54095 0.71981 0.0
H1290 H 0.78734 0.2851 0.63438 0.0
H1291 H 0.77863 0.32481 0.68604 0.0
H1292 H 0.76961 0.35128 0.66386 0.0
H1293 H 0.80986 0.32376 0.60333 0.0
H1294 H 0.79831 0.31248 0.58078 0.0
H1295 H 0.8041 0.29698 0.60085 0.0
H1296 H 0.76708 0.28252 0.60149 0.0
H1297 H 0.76114 0.29808 0.58154 0.0
H1298 H 0.74754 0.2994 0.60465 0.0
H1299 H 0.75926 0.37239 0.6358 0.0
H1300 H 0.75217 0.38793 0.60406 0.0
H1301 H 0.76998 0.33498 0.57101 0.0
C1302 C 0.78365 0.29944 0.64095 0.0
C1303 C 0.78359 0.30304 0.66182 0.0
C1304 C 0.77883 0.32193 0.67002 0.0
C1305 C 0.7736 0.33695 0.65757 0.0
C1306 C 0.77355 0.33286 0.63699 0.0
C1307 C 0.77878 0.31468 0.62875 0.0
C1308 C 0.77797 0.31415 0.60621 0.0
C1309 C 0.7988 0.31171 0.59727 0.0
C1310 C 0.76251 0.29755 0.598 0.0
C1311 C 0.77122 0.33478 0.60302 0.0
C1312 C 0.76853 0.34529 0.62093 0.0
C1313 C 0.76154 0.36439 0.62168 0.0
C1314 C 0.75746 0.37305 0.60363 0.0
C1315 C 0.76069 0.3627 0.58515 0.0
C1316 C 0.76761 0.34333 0.58493 0.0
H1317 H 0.50562 0.9552 0.64469 0.0
H1318 H 0.45181 0.97522 0.67252 0.0
H1319 H 0.47093 0.98494 0.70338 0.0
H1320 H 0.52784 0.93647 0.6914 0.0
H1321 H 0.55281 0.94498 0.68404 0.0
H1322 H 0.53427 0.9366 0.66533 0.0
H1323 H 0.54045 0.97046 0.64842 0.0
H1324 H 0.5588 0.97903 0.66711 0.0
H1325 H 0.53781 0.99353 0.66285 0.0
H1326 H 0.49649 0.99787 0.72843 0.0
H1327 H 0.52676 0.01139 0.74713 0.0
H1328 H 0.56398 0.98123 0.70444 0.0
C1329 C 0.49768 0.9609 0.65753 0.0
C1330 C 0.47721 0.96443 0.65621 0.0
C1331 C 0.46752 0.97253 0.67314 0.0
C1332 C 0.47821 0.97795 0.69078 0.0
C1333 C 0.49852 0.9749 0.69136 0.0
C1334 C 0.50813 0.96628 0.6753 0.0
C1335 C 0.53043 0.96633 0.67917 0.0
C1336 C 0.5367 0.94481 0.68004 0.0
C1337 C 0.54257 0.97804 0.66346 0.0
C1338 C 0.532 0.9772 0.69952 0.0
C1339 C 0.51335 0.98183 0.70632 0.0
C1340 C 0.51109 0.99383 0.72358 0.0
C1341 C 0.52832 0.0015 0.73404 0.0
C1342 C 0.54749 0.99693 0.72735 0.0
C1343 C 0.54937 0.98432 0.71012 0.0
H1344 H 0.86879 0.24875 0.79556 0.0
H1345 H 0.86313 0.18366 0.79677 0.0
H1346 H 0.89251 0.18511 0.81893 0.0
H1347 H 0.92257 0.25268 0.79204 0.0
H1348 H 0.92546 0.27588 0.80693 0.0
H1349 H 0.90312 0.26979 0.79221 0.0
H1350 H 0.88143 0.27411 0.82384 0.0
H1351 H 0.90369 0.28017 0.83867 0.0
H1352 H 0.88601 0.25989 0.84527 0.0
H1353 H 0.92217 0.19385 0.84204 0.0
H1354 H 0.9513 0.20914 0.86176 0.0
H1355 H 0.9396 0.26771 0.84179 0.0
C1356 C 0.87374 0.23469 0.80016 0.0
C1357 C 0.86327 0.2161 0.79443 0.0
C1358 C 0.87036 0.1982 0.80129 0.0
C1359 C 0.88722 0.19882 0.81377 0.0
C1360 C 0.89713 0.2174 0.81901 0.0
C1361 C 0.8908 0.23498 0.81219 0.0
C1362 C 0.90453 0.25295 0.81928 0.0
C1363 C 0.91451 0.26344 0.80156 0.0
C1364 C 0.89324 0.26764 0.83256 0.0
C1365 C 0.91954 0.24274 0.83124 0.0
C1366 C 0.91489 0.22226 0.83116 0.0
C1367 C 0.92611 0.20984 0.84201 0.0
C1368 C 0.94256 0.21861 0.85316 0.0
C1369 C 0.94779 0.2395 0.853 0.0
C1370 C 0.93615 0.25163 0.84183 0.0
H1371 H 0.4539 0.87823 0.49866 0.0
H1372 H 0.46852 0.92916 0.46234 0.0
H1373 H 0.48448 0.90714 0.43759 0.0
H1374 H 0.49931 0.85368 0.48928 0.0
H1375 H 0.48688 0.82876 0.48836 0.0
H1376 H 0.47679 0.84856 0.50341 0.0
H1377 H 0.44279 0.84192 0.48488 0.0
H1378 H 0.45273 0.82205 0.46985 0.0
H1379 H 0.44209 0.84237 0.45806 0.0
H1380 H 0.49892 0.87977 0.41692 0.0
H1381 H 0.50924 0.84845 0.40063 0.0
H1382 H 0.48507 0.81517 0.45029 0.0
C1383 C 0.46056 0.88474 0.48554 0.0
C1384 C 0.45994 0.90538 0.48237 0.0
C1385 C 0.4686 0.91333 0.46492 0.0
C1386 C 0.47784 0.90098 0.45087 0.0
C1387 C 0.47825 0.88072 0.45447 0.0
C1388 C 0.46975 0.8726 0.4713 0.0
C1389 C 0.47179 0.85023 0.4713 0.0
C1390 C 0.48445 0.84501 0.48915 0.0
C1391 C 0.45112 0.83845 0.471 0.0
C1392 C 0.48272 0.84706 0.4518 0.0
C1393 C 0.48642 0.86486 0.44241 0.0
C1394 C 0.49613 0.86572 0.42412 0.0
C1395 C 0.50197 0.84784 0.41501 0.0
C1396 C 0.49798 0.82932 0.42415 0.0
C1397 C 0.4884 0.82906 0.44291 0.0
H1398 H 0.11452 0.30479 0.77617 0.0
H1399 H 0.14106 0.24976 0.78877 0.0
H1400 H 0.11449 0.24211 0.81346 0.0
H1401 H 0.09998 0.3178 0.82602 0.0
H1402 H 0.07678 0.32732 0.81876 0.0
H1403 H 0.09773 0.32828 0.80197 0.0
H1404 H 0.07587 0.30865 0.77451 0.0
H1405 H 0.05482 0.30775 0.79116 0.0
H1406 H 0.06301 0.28484 0.77985 0.0
H1407 H 0.08572 0.24135 0.83787 0.0
H1408 H 0.05539 0.24606 0.85799 0.0
H1409 H 0.04733 0.3011 0.82847 0.0
C1410 C 0.1147 0.29112 0.78412 0.0
C1411 C 0.12981 0.27786 0.78061 0.0
C1412 C 0.12948 0.26001 0.79113 0.0
C1413 C 0.11455 0.25562 0.80526 0.0
C1414 C 0.09999 0.26915 0.80853 0.0
C1415 C 0.09982 0.28642 0.79809 0.0
C1416 C 0.08235 0.29833 0.80413 0.0
C1417 C 0.08966 0.31917 0.81326 0.0
C1418 C 0.06817 0.29998 0.78636 0.0
C1419 C 0.07274 0.28513 0.81969 0.0
C1420 C 0.08321 0.26845 0.82215 0.0
C1421 C 0.07734 0.25429 0.83598 0.0
C1422 C 0.06015 0.25713 0.84739 0.0
C1423 C 0.04897 0.27389 0.84474 0.0
C1424 C 0.05549 0.28807 0.83077 0.0
H1425 H 0.53109 0.68789 0.52943 0.0
H1426 H 0.56861 0.64807 0.49618 0.0
H1427 H 0.5671 0.669 0.4672 0.0
H1428 H 0.49794 0.69248 0.48945 0.0
H1429 H 0.49364 0.71821 0.49601 0.0
H1430 H 0.50009 0.70185 0.51507 0.0
H1431 H 0.53016 0.72685 0.52581 0.0
H1432 H 0.52382 0.74329 0.50674 0.0
H1433 H 0.54854 0.73456 0.50756 0.0
H1434 H 0.56033 0.69381 0.44106 0.0
H1435 H 0.54636 0.71835 0.41949 0.0
H1436 H 0.51033 0.73895 0.46882 0.0
C1437 C 0.53899 0.68338 0.51612 0.0
C1438 C 0.5501 0.66625 0.51539 0.0
C1439 C 0.5604 0.66134 0.49754 0.0
C1440 C 0.55953 0.67309 0.48085 0.0
C1441 C 0.54813 0.6896 0.48207 0.0
C1442 C 0.53789 0.6946 0.49921 0.0
C1443 C 0.52525 0.71196 0.49621 0.0
C1444 C 0.50291 0.70575 0.49937 0.0
C1445 C 0.53238 0.73025 0.5099 0.0
C1446 C 0.52968 0.71573 0.47458 0.0
C1447 C 0.54327 0.70301 0.46677 0.0
C1448 C 0.54966 0.70382 0.44703 0.0
C1449 C 0.54171 0.7178 0.43491 0.0
C1450 C 0.5272 0.73037 0.4425 0.0
C1451 C 0.5213 0.72938 0.46261 0.0
H1452 H 0.8734 0.79171 0.73608 0.0
H1453 H 0.86405 0.85428 0.72809 0.0
H1454 H 0.89071 0.85567 0.70269 0.0
H1455 H 0.92659 0.79777 0.73361 0.0
H1456 H 0.92881 0.77372 0.72085 0.0
H1457 H 0.908 0.77731 0.73723 0.0
H1458 H 0.88325 0.76554 0.70851 0.0
H1459 H 0.90398 0.76187 0.69205 0.0
H1460 H 0.88497 0.7779 0.68525 0.0
H1461 H 0.91895 0.85019 0.67849 0.0
H1462 H 0.94694 0.83861 0.65818 0.0
H1463 H 0.939 0.78045 0.68419 0.0
C1464 C 0.87698 0.80581 0.72916 0.0
C1465 C 0.86657 0.8229 0.73418 0.0
C1466 C 0.87156 0.84088 0.72434 0.0
C1467 C 0.88678 0.84185 0.70999 0.0
C1468 C 0.89693 0.82478 0.70571 0.0
C1469 C 0.89225 0.80712 0.71508 0.0
C1470 C 0.90582 0.79109 0.70843 0.0
C1471 C 0.91803 0.7846 0.72608 0.0
C1472 C 0.89378 0.77304 0.69794 0.0
C1473 C 0.919 0.8025 0.69391 0.0
C1474 C 0.91353 0.82184 0.69238 0.0
C1475 C 0.92339 0.83509 0.67962 0.0
C1476 C 0.93924 0.82837 0.66814 0.0
C1477 C 0.94521 0.80867 0.6697 0.0
C1478 C 0.93493 0.79565 0.68282 0.0
H1479 H 0.01672 0.89647 0.50943 0.0
H1480 H 0.06322 0.93407 0.54153 0.0
H1481 H 0.05958 0.91214 0.56992 0.0
H1482 H 0.9852 0.8893 0.55185 0.0
H1483 H 0.97667 0.86391 0.54401 0.0
H1484 H 0.98405 0.88177 0.52569 0.0
H1485 H 0.00956 0.85791 0.51107 0.0
H1486 H 0.0023 0.83999 0.52939 0.0
H1487 H 0.02818 0.84919 0.52723 0.0
H1488 H 0.05086 0.88556 0.59497 0.0
H1489 H 0.03587 0.85821 0.6152 0.0
H1490 H 0.99331 0.84062 0.56757 0.0
C1491 C 0.02605 0.90031 0.52244 0.0
C1492 C 0.04039 0.91699 0.52302 0.0
C1493 C 0.05245 0.92114 0.54039 0.0
C1494 C 0.05041 0.90884 0.5567 0.0
C1495 C 0.03608 0.89259 0.55558 0.0
C1496 C 0.02398 0.88846 0.53896 0.0
C1497 C 0.00909 0.87068 0.54175 0.0
C1498 C 0.98748 0.87679 0.54078 0.0
C1499 C 0.0125 0.85343 0.52645 0.0
C1500 C 0.01463 0.86549 0.56259 0.0
C1501 C 0.03041 0.87807 0.57027 0.0
C1502 C 0.03839 0.87571 0.58916 0.0
C1503 C 0.02985 0.86017 0.60051 0.0
C1504 C 0.01333 0.84754 0.59301 0.0
C1505 C 0.00575 0.85027 0.57381 0.0
H1506 H 0.12037 0.78276 0.73495 0.0
H1507 H 0.12091 0.71796 0.73311 0.0
H1508 H 0.09162 0.71487 0.71045 0.0
H1509 H 0.06798 0.78506 0.73524 0.0
H1510 H 0.06775 0.80583 0.71918 0.0
H1511 H 0.08938 0.8031 0.73443 0.0
H1512 H 0.11186 0.80353 0.70307 0.0
H1513 H 0.09031 0.80639 0.68771 0.0
H1514 H 0.10572 0.78594 0.68234 0.0
H1515 H 0.06053 0.71864 0.6911 0.0
H1516 H 0.03129 0.72908 0.67307 0.0
H1517 H 0.05199 0.79156 0.68518 0.0
C1518 C 0.1144 0.76796 0.72956 0.0
C1519 C 0.12283 0.75057 0.73569 0.0
C1520 C 0.11474 0.73144 0.72838 0.0
C1521 C 0.09809 0.72955 0.7156 0.0
C1522 C 0.08994 0.74696 0.71004 0.0
C1523 C 0.09799 0.76582 0.71649 0.0
C1524 C 0.08624 0.78207 0.70832 0.0
C1525 C 0.07731 0.79476 0.72531 0.0
C1526 C 0.09932 0.79526 0.69454 0.0
C1527 C 0.07006 0.76937 0.69666 0.0
C1528 C 0.07244 0.74915 0.698 0.0
C1529 C 0.05868 0.73442 0.68964 0.0
C1530 C 0.04209 0.74048 0.67954 0.0
C1531 C 0.03954 0.76108 0.67763 0.0
C1532 C 0.0538 0.77571 0.68617 0.0
H1533 H 0.9685 0.64979 0.55666 0.0
H1534 H 0.9656 0.67612 0.49906 0.0
H1535 H 0.97171 0.70998 0.51542 0.0
H1536 H 0.94303 0.68682 0.5841 0.0
H1537 H 0.95835 0.68642 0.60614 0.0
H1538 H 0.9545 0.6643 0.58978 0.0
H1539 H 0.99287 0.66312 0.58597 0.0
H1540 H 0.99685 0.68521 0.60237 0.0
H1541 H 0.00764 0.68486 0.57778 0.0
H1542 H 0.97666 0.7409 0.5383 0.0
H1543 H 0.98152 0.76672 0.56579 0.0
H1544 H 0.9813 0.71989 0.60833 0.0
C1545 C 0.96913 0.66269 0.5475 0.0
C1546 C 0.96657 0.66039 0.52661 0.0
C1547 C 0.96774 0.67758 0.51507 0.0
C1548 C 0.97109 0.69684 0.52423 0.0
C1549 C 0.97334 0.69858 0.5449 0.0
C1550 C 0.97253 0.68196 0.55637 0.0
C1551 C 0.97529 0.6879 0.57829 0.0
C1552 C 0.95668 0.68095 0.59028 0.0
C1553 C 0.9943 0.67979 0.58658 0.0
C1554 C 0.97758 0.71048 0.5774 0.0
C1555 C 0.97639 0.71635 0.55802 0.0
C1556 C 0.97772 0.73649 0.55352 0.0
C1557 C 0.98042 0.75102 0.56926 0.0
C1558 C 0.98183 0.74532 0.58924 0.0
C1559 C 0.98038 0.72474 0.59327 0.0
H1560 H 0.79029 0.90508 0.22493 0.0
H1561 H 0.73422 0.93146 0.23705 0.0
H1562 H 0.75252 0.96471 0.24266 0.0
H1563 H 0.81852 0.93254 0.26151 0.0
H1564 H 0.84118 0.93575 0.24719 0.0
H1565 H 0.82364 0.9144 0.24181 0.0
H1566 H 0.82128 0.924 0.20502 0.0
H1567 H 0.83899 0.94533 0.21023 0.0
H1568 H 0.81491 0.94881 0.19954 0.0
H1569 H 0.77694 0.99403 0.25089 0.0
H1570 H 0.80588 0.01812 0.25925 0.0
H1571 H 0.8462 0.97323 0.24054 0.0
C1572 C 0.78182 0.91795 0.22818 0.0
C1573 C 0.76082 0.91567 0.23061 0.0
C1574 C 0.75032 0.93282 0.23533 0.0
C1575 C 0.76057 0.95179 0.23843 0.0
C1576 C 0.78131 0.95342 0.23653 0.0
C1577 C 0.79182 0.93703 0.23126 0.0
C1578 C 0.81418 0.9427 0.23134 0.0
C1579 C 0.82501 0.93063 0.24636 0.0
C1580 C 0.82285 0.94006 0.21028 0.0
C1581 C 0.81459 0.96467 0.23808 0.0
C1582 C 0.79545 0.97055 0.24089 0.0
C1583 C 0.79199 0.98973 0.24841 0.0
C1584 C 0.80853 0.00326 0.25322 0.0
C1585 C 0.82828 0.9976 0.25042 0.0
C1586 C 0.83128 0.9781 0.24253 0.0
H1587 H 0.78683 0.17324 0.2708 0.0
H1588 H 0.77194 0.17325 0.33376 0.0
H1589 H 0.79441 0.14654 0.3383 0.0
H1590 H 0.78744 0.12054 0.26351 0.0
H1591 H 0.80815 0.12139 0.24639 0.0
H1592 H 0.79221 0.14179 0.24824 0.0
H1593 H 0.82312 0.16677 0.25588 0.0
H1594 H 0.83917 0.14641 0.25411 0.0
H1595 H 0.83946 0.16263 0.27637 0.0
H1596 H 0.81594 0.11828 0.33584 0.0
H1597 H 0.83571 0.08983 0.32644 0.0
H1598 H 0.83747 0.10767 0.26515 0.0
C1599 C 0.7884 0.1677 0.28556 0.0
C1600 C 0.77778 0.17557 0.30198 0.0
C1601 C 0.78024 0.16785 0.32104 0.0
C1602 C 0.79291 0.15259 0.32377 0.0
C1603 C 0.8031 0.14516 0.30732 0.0
C1604 C 0.80108 0.15243 0.28858 0.0
C1605 C 0.81311 0.14107 0.2733 0.0
C1606 C 0.79941 0.13057 0.2569 0.0
C1607 C 0.8297 0.15506 0.26439 0.0
C1608 C 0.82181 0.12601 0.28633 0.0
C1609 C 0.81587 0.12877 0.30592 0.0
C1610 C 0.82091 0.11609 0.32061 0.0
C1611 C 0.8321 0.09995 0.31512 0.0
C1612 C 0.83823 0.09667 0.29513 0.0
C1613 C 0.83329 0.11007 0.28061 0.0
H1614 H 0.3812 0.9747 0.00628 0.0
H1615 H 0.36704 0.98683 0.94525 0.0
H1616 H 0.33502 0.96595 0.94752 0.0
H1617 H 0.35982 0.92224 0.00346 0.0
H1618 H 0.3508 0.92353 0.02874 0.0
H1619 H 0.37286 0.93883 0.022 0.0
H1620 H 0.35658 0.97062 0.03542 0.0
H1621 H 0.33443 0.95545 0.04207 0.0
H1622 H 0.33251 0.9759 0.02587 0.0
H1623 H 0.30336 0.94697 0.95761 0.0
H1624 H 0.2754 0.92747 0.97349 0.0
H1625 H 0.31117 0.92508 0.02707 0.0
C1626 C 0.37141 0.97269 0.99336 0.0
C1627 C 0.37643 0.98224 0.97557 0.0
C1628 C 0.36341 0.97941 0.95891 0.0
C1629 C 0.34522 0.96769 0.96011 0.0
C1630 C 0.34054 0.95866 0.97796 0.0
C1631 C 0.35339 0.96069 0.99417 0.0
C1632 C 0.34474 0.94936 0.01157 0.0
C1633 C 0.35784 0.93249 0.01674 0.0
C1634 C 0.3419 0.96369 0.0298 0.0
C1635 C 0.32483 0.941 0.00274 0.0
C1636 C 0.32265 0.94673 0.9834 0.0
C1637 C 0.30501 0.94206 0.9726 0.0
C1638 C 0.28921 0.93111 0.98176 0.0
C1639 C 0.29131 0.92466 0.00135 0.0
C1640 C 0.30938 0.92956 0.01193 0.0
H1641 H 0.21645 0.40809 0.30109 0.0
H1642 H 0.21143 0.3842 0.23984 0.0
H1643 H 0.18569 0.40759 0.2333 0.0
H1644 H 0.16377 0.41531 0.30826 0.0
H1645 H 0.16878 0.43825 0.32327 0.0
H1646 H 0.18626 0.41916 0.32319 0.0
H1647 H 0.2147 0.44505 0.31285 0.0
H1648 H 0.19734 0.46422 0.31291 0.0
H1649 H 0.21166 0.4589 0.29084 0.0
H1650 H 0.16096 0.43408 0.23341 0.0
H1651 H 0.14006 0.46246 0.23974 0.0
H1652 H 0.16142 0.46878 0.301 0.0
C1653 C 0.20975 0.40758 0.28636 0.0
C1654 C 0.21587 0.39429 0.27098 0.0
C1655 C 0.20705 0.39438 0.2518 0.0
C1656 C 0.19234 0.4075 0.24799 0.0
C1657 C 0.18666 0.42041 0.26352 0.0
C1658 C 0.19512 0.42057 0.28231 0.0
C1659 C 0.18692 0.43636 0.29624 0.0
C1660 C 0.17577 0.42668 0.31377 0.0
C1661 C 0.20365 0.45206 0.30363 0.0
C1662 C 0.17263 0.44521 0.28231 0.0
C1663 C 0.17257 0.43572 0.26354 0.0
C1664 C 0.16083 0.44158 0.24806 0.0
C1665 C 0.149 0.4577 0.25181 0.0
C1666 C 0.1491 0.46783 0.27087 0.0
C1667 C 0.16095 0.46131 0.2863 0.0
H1668 H 0.15379 0.04663 0.48335 0.0
H1669 H 0.16518 0.03718 0.42017 0.0
H1670 H 0.19467 0.06204 0.42314 0.0
H1671 H 0.16622 0.09967 0.48559 0.0
H1672 H 0.17728 0.10018 0.51011 0.0
H1673 H 0.15772 0.08117 0.50296 0.0
H1674 H 0.18082 0.05353 0.51158 0.0
H1675 H 0.2005 0.07245 0.51869 0.0
H1676 H 0.20506 0.05307 0.50003 0.0
H1677 H 0.22322 0.08742 0.43346 0.0
H1678 H 0.2469 0.11356 0.44936 0.0
H1679 H 0.21561 0.10731 0.50558 0.0
C1680 C 0.16262 0.04971 0.47019 0.0
C1681 C 0.15747 0.03992 0.45157 0.0
C1682 C 0.169 0.04457 0.43455 0.0
C1683 C 0.18577 0.05856 0.43614 0.0
C1684 C 0.19054 0.06785 0.4548 0.0
C1685 C 0.17915 0.06376 0.47147 0.0
C1686 C 0.18689 0.07636 0.48961 0.0
C1687 C 0.17109 0.09017 0.49752 0.0
C1688 C 0.19372 0.06305 0.50594 0.0
C1689 C 0.20447 0.08821 0.4806 0.0
C1690 C 0.20647 0.08293 0.46056 0.0
C1691 C 0.22175 0.09172 0.44911 0.0
C1692 C 0.23517 0.1065 0.45832 0.0
C1693 C 0.23307 0.11252 0.47872 0.0
C1694 C 0.21756 0.1031 0.48996 0.0
H1695 H 0.72642 0.1215 0.72882 0.0
H1696 H 0.6866 0.15717 0.69687 0.0
H1697 H 0.6597 0.13034 0.69898 0.0
H1698 H 0.70641 0.07193 0.71002 0.0
H1699 H 0.70838 0.06098 0.73387 0.0
H1700 H 0.72564 0.08169 0.7275 0.0
H1701 H 0.71587 0.10183 0.75949 0.0
H1702 H 0.69869 0.08118 0.766 0.0
H1703 H 0.68992 0.10575 0.76392 0.0
H1704 H 0.63647 0.10069 0.70582 0.0
H1705 H 0.61751 0.07171 0.71981 0.0
H1706 H 0.67114 0.05668 0.75026 0.0
C1707 C 0.7121 0.12382 0.72224 0.0
C1708 C 0.70897 0.14154 0.71235 0.0
C1709 C 0.68985 0.1436 0.70392 0.0
C1710 C 0.67431 0.12845 0.70515 0.0
C1711 C 0.67793 0.11137 0.71511 0.0
C1712 C 0.69625 0.10906 0.72373 0.0
C1713 C 0.6956 0.0901 0.73524 0.0
C1714 C 0.70986 0.0753 0.7261 0.0
C1715 C 0.70029 0.09502 0.75748 0.0
C1716 C 0.67392 0.08234 0.73202 0.0
C1717 C 0.66415 0.09465 0.72001 0.0
C1718 C 0.64396 0.09089 0.71519 0.0
C1719 C 0.63333 0.07434 0.7232 0.0
C1720 C 0.64281 0.06191 0.73618 0.0
C1721 C 0.66347 0.06586 0.74037 0.0
H1722 H 0.36334 0.06108 0.56144 0.0
H1723 H 0.40809 0.0602 0.51483 0.0
H1724 H 0.39413 0.0891 0.50005 0.0
H1725 H 0.32358 0.07159 0.5309 0.0
H1726 H 0.31218 0.08787 0.54899 0.0
H1727 H 0.32697 0.06853 0.55719 0.0
H1728 H 0.34944 0.09514 0.578 0.0
H1729 H 0.33471 0.11461 0.56981 0.0
H1730 H 0.36139 0.11639 0.56598 0.0
H1731 H 0.37367 0.11564 0.48849 0.0
H1732 H 0.34751 0.13794 0.48054 0.0
H1733 H 0.31623 0.12251 0.5349 0.0
C1734 C 0.37043 0.06728 0.54837 0.0
C1735 C 0.38678 0.05841 0.53925 0.0
C1736 C 0.39543 0.06665 0.52193 0.0
C1737 C 0.38772 0.08316 0.51353 0.0
C1738 C 0.37142 0.09137 0.52268 0.0
C1739 C 0.36287 0.08377 0.53974 0.0
C1740 C 0.34454 0.0945 0.54572 0.0
C1741 C 0.32571 0.07974 0.54569 0.0
C1742 C 0.34772 0.10583 0.56609 0.0
C1743 C 0.34384 0.10891 0.52905 0.0
C1744 C 0.35962 0.10697 0.51605 0.0
C1745 C 0.36142 0.11756 0.49872 0.0
C1746 C 0.34648 0.13016 0.49431 0.0
C1747 C 0.32998 0.13211 0.5072 0.0
C1748 C 0.32892 0.12167 0.52501 0.0
H1749 H 0.63713 0.5289 0.55236 0.0
H1750 H 0.64049 0.52961 0.61697 0.0
H1751 H 0.66003 0.49975 0.61462 0.0
H1752 H 0.6316 0.47603 0.54367 0.0
H1753 H 0.64684 0.47606 0.52157 0.0
H1754 H 0.6333 0.49752 0.52843 0.0
H1755 H 0.66626 0.5206 0.52832 0.0
H1756 H 0.67985 0.49927 0.52119 0.0
H1757 H 0.6872 0.51465 0.54318 0.0
H1758 H 0.67914 0.46927 0.60481 0.0
H1759 H 0.69748 0.4423 0.58839 0.0
H1760 H 0.68144 0.46256 0.53052 0.0
C1761 C 0.64224 0.52305 0.56605 0.0
C1762 C 0.63732 0.53166 0.58485 0.0
C1763 C 0.64394 0.52317 0.60238 0.0
C1764 C 0.65508 0.50624 0.6012 0.0
C1765 C 0.65946 0.498 0.58239 0.0
C1766 C 0.65334 0.50625 0.56515 0.0
C1767 C 0.65996 0.49473 0.54673 0.0
C1768 C 0.64184 0.48554 0.53438 0.0
C1769 C 0.67416 0.50811 0.53412 0.0
C1770 C 0.67083 0.4787 0.55624 0.0
C1771 C 0.67035 0.4807 0.57682 0.0
C1772 C 0.6796 0.46758 0.5887 0.0
C1773 C 0.6899 0.45226 0.57927 0.0
C1774 C 0.69087 0.45031 0.55819 0.0
C1775 C 0.68097 0.4636 0.54666 0.0
H1776 H 0.71958 0.29155 0.41939 0.0
H1777 H 0.68726 0.33059 0.38331 0.0
H1778 H 0.68295 0.3529 0.41293 0.0
H1779 H 0.69301 0.29945 0.46648 0.0
H1780 H 0.71558 0.29995 0.48119 0.0
H1781 H 0.71335 0.28518 0.45798 0.0
H1782 H 0.74592 0.30376 0.44526 0.0
H1783 H 0.74831 0.31844 0.46843 0.0
H1784 H 0.74787 0.33077 0.44519 0.0
H1785 H 0.6843 0.37242 0.44575 0.0
H1786 H 0.69415 0.38934 0.47813 0.0
H1787 H 0.72808 0.33914 0.49196 0.0
C1788 C 0.71156 0.30475 0.41758 0.0
C1789 C 0.70361 0.30905 0.39885 0.0
C1790 C 0.69306 0.32649 0.39746 0.0
C1791 C 0.69058 0.33938 0.41424 0.0
C1792 C 0.69885 0.33477 0.43232 0.0
C1793 C 0.70929 0.31797 0.43404 0.0
C1794 C 0.71859 0.31754 0.45458 0.0
C1795 C 0.70959 0.29945 0.46571 0.0
C1796 C 0.74153 0.31765 0.45328 0.0
C1797 C 0.71222 0.33704 0.46395 0.0
C1798 C 0.70043 0.3465 0.45104 0.0
C1799 C 0.6934 0.3651 0.45605 0.0
C1800 C 0.69905 0.37457 0.47452 0.0
C1801 C 0.71192 0.36558 0.4876 0.0
C1802 C 0.71817 0.34635 0.48236 0.0
H1803 H 0.53657 0.03508 0.90615 0.0
H1804 H 0.51885 0.09414 0.89378 0.0
H1805 H 0.53775 0.09322 0.86224 0.0
H1806 H 0.58734 0.04268 0.88576 0.0
H1807 H 0.5873 0.01721 0.8757 0.0
H1808 H 0.57298 0.02277 0.8977 0.0
H1809 H 0.54096 0.00585 0.88039 0.0
H1810 H 0.55516 0.00026 0.85835 0.0
H1811 H 0.53339 0.01426 0.85664 0.0
H1812 H 0.5555 0.08465 0.83092 0.0
H1813 H 0.57375 0.07006 0.80251 0.0
H1814 H 0.58242 0.01761 0.83591 0.0
C1815 C 0.53687 0.04784 0.89682 0.0
C1816 C 0.52637 0.06471 0.9023 0.0
C1817 C 0.52702 0.08119 0.88986 0.0
C1818 C 0.53763 0.08078 0.87193 0.0
C1819 C 0.54774 0.06389 0.86685 0.0
C1820 C 0.54772 0.04783 0.87901 0.0
C1821 C 0.55975 0.03148 0.8699 0.0
C1822 C 0.57793 0.02836 0.88305 0.0
C1823 C 0.54652 0.0118 0.86609 0.0
C1824 C 0.56615 0.0407 0.85052 0.0
C1825 C 0.55892 0.05936 0.84907 0.0
C1826 C 0.56156 0.07024 0.832 0.0
C1827 C 0.57185 0.06183 0.81595 0.0
C1828 C 0.57963 0.0429 0.81723 0.0
C1829 C 0.57695 0.0323 0.8348 0.0
H1830 H 0.29524 0.27052 0.39569 0.0
H1831 H 0.23139 0.27765 0.39196 0.0
H1832 H 0.22569 0.25706 0.42086 0.0
H1833 H 0.2886 0.21843 0.40596 0.0
H1834 H 0.31002 0.21929 0.42234 0.0
H1835 H 0.3096 0.23648 0.40258 0.0
H1836 H 0.31614 0.26639 0.42837 0.0
H1837 H 0.31639 0.24929 0.44824 0.0
H1838 H 0.29949 0.26894 0.44925 0.0
H1839 H 0.22642 0.23559 0.44978 0.0
H1840 H 0.23295 0.21088 0.47441 0.0
H1841 H 0.29567 0.21448 0.45761 0.0
C1842 C 0.28001 0.26775 0.4008 0.0
C1843 C 0.26388 0.27631 0.39163 0.0
C1844 C 0.24422 0.2721 0.39903 0.0
C1845 C 0.24074 0.26023 0.41542 0.0
C1846 C 0.25696 0.25227 0.42413 0.0
C1847 C 0.27616 0.25552 0.41691 0.0
C1848 C 0.29064 0.24378 0.42807 0.0
C1849 C 0.30028 0.22859 0.41389 0.0
C1850 C 0.30661 0.25795 0.43914 0.0
C1851 C 0.27649 0.23333 0.44256 0.0
C1852 C 0.25722 0.23878 0.44023 0.0
C1853 C 0.24144 0.23115 0.45176 0.0
C1854 C 0.24534 0.21716 0.46577 0.0
C1855 C 0.26482 0.21069 0.46793 0.0
C1856 C 0.28063 0.21913 0.45632 0.0
H1857 H 0.49772 0.50627 0.86994 0.0
H1858 H 0.47035 0.52093 0.92673 0.0
H1859 H 0.44112 0.53219 0.90907 0.0
H1860 H 0.48072 0.5471 0.84287 0.0
H1861 H 0.47608 0.53209 0.82005 0.0
H1862 H 0.49516 0.52598 0.83714 0.0
H1863 H 0.47828 0.4899 0.83877 0.0
H1864 H 0.45921 0.49588 0.82163 0.0
H1865 H 0.45226 0.48637 0.84551 0.0
H1866 H 0.41524 0.54229 0.88519 0.0
H1867 H 0.39296 0.54757 0.85696 0.0
H1868 H 0.4365 0.52467 0.8157 0.0
C1869 C 0.48559 0.51197 0.8786 0.0
C1870 C 0.48624 0.51289 0.89965 0.0
C1871 C 0.47003 0.5201 0.91057 0.0
C1872 C 0.45346 0.52661 0.90068 0.0
C1873 C 0.4533 0.52558 0.87989 0.0
C1874 C 0.46882 0.51822 0.86897 0.0
C1875 C 0.46451 0.51779 0.84679 0.0
C1876 C 0.48004 0.53156 0.83609 0.0
C1877 C 0.4635 0.4962 0.83764 0.0
C1878 C 0.44412 0.52605 0.84693 0.0
C1879 C 0.43805 0.53069 0.86616 0.0
C1880 C 0.41981 0.53866 0.87007 0.0
C1881 C 0.40729 0.54167 0.85392 0.0
C1882 C 0.41295 0.53648 0.83412 0.0
C1883 C 0.43171 0.52872 0.83066 0.0
H1884 H 0.73323 0.76267 0.11989 0.0
H1885 H 0.76545 0.73119 0.16289 0.0
H1886 H 0.77152 0.70476 0.13685 0.0
H1887 H 0.70845 0.71834 0.09558 0.0
H1888 H 0.70958 0.72832 0.07112 0.0
H1889 H 0.70862 0.74501 0.09291 0.0
H1890 H 0.74119 0.76486 0.08189 0.0
H1891 H 0.74223 0.74825 0.06004 0.0
H1892 H 0.76326 0.75173 0.07696 0.0
H1893 H 0.77501 0.68255 0.10552 0.0
H1894 H 0.77342 0.66489 0.07215 0.0
H1895 H 0.73656 0.70975 0.05066 0.0
C1896 C 0.74167 0.75024 0.1237 0.0
C1897 C 0.74912 0.74892 0.14318 0.0
C1898 C 0.75977 0.73237 0.14792 0.0
C1899 C 0.76328 0.71737 0.13326 0.0
C1900 C 0.75571 0.71906 0.1141 0.0
C1901 C 0.74493 0.73497 0.10937 0.0
C1902 C 0.73773 0.7329 0.08794 0.0
C1903 C 0.71473 0.73103 0.08683 0.0
C1904 C 0.74664 0.75048 0.07601 0.0
C1905 C 0.74627 0.71343 0.08127 0.0
C1906 C 0.75678 0.70577 0.09648 0.0
C1907 C 0.76665 0.6883 0.09356 0.0
C1908 C 0.7657 0.6784 0.07459 0.0
C1909 C 0.75468 0.68584 0.05896 0.0
C1910 C 0.74482 0.70353 0.06244 0.0
H1911 H 0.99402 0.09046 0.16208 0.0
H1912 H 0.00059 0.03295 0.13108 0.0
H1913 H 0.9715 0.01806 0.14903 0.0
H1914 H 0.98184 0.07122 0.20878 0.0
H1915 H 0.96375 0.08889 0.21547 0.0
H1916 H 0.98382 0.09579 0.19876 0.0
H1917 H 0.95809 0.10432 0.17228 0.0
H1918 H 0.93791 0.09744 0.18895 0.0
H1919 H 0.93849 0.08566 0.16424 0.0
H1920 H 0.94421 0.00852 0.17193 0.0
H1921 H 0.91968 0.00464 0.19899 0.0
H1922 H 0.92961 0.06816 0.21553 0.0
C1923 C 0.98904 0.07484 0.15888 0.0
C1924 C 0.99955 0.06279 0.14528 0.0
C1925 C 0.99285 0.04235 0.14161 0.0
C1926 C 0.97627 0.0338 0.15161 0.0
C1927 C 0.96646 0.04591 0.1652 0.0
C1928 C 0.97248 0.06598 0.16887 0.0
C1929 C 0.95996 0.07516 0.18524 0.0
C1930 C 0.97313 0.08323 0.20312 0.0
C1931 C 0.94789 0.09162 0.17719 0.0
C1932 C 0.94636 0.05696 0.19047 0.0
C1933 C 0.95032 0.04033 0.17854 0.0
C1934 C 0.94073 0.02146 0.1812 0.0
C1935 C 0.92688 0.0194 0.19665 0.0
C1936 C 0.92267 0.03611 0.20924 0.0
C1937 C 0.9323 0.05522 0.20588 0.0
H1938 H 0.2688 0.80224 0.15948 0.0
H1939 H 0.32705 0.78338 0.14226 0.0
H1940 H 0.32548 0.80159 0.11132 0.0
H1941 H 0.24687 0.79851 0.11033 0.0
H1942 H 0.23325 0.82053 0.11407 0.0
H1943 H 0.23887 0.80608 0.135 0.0
H1944 H 0.25627 0.83792 0.15301 0.0
H1945 H 0.25073 0.85247 0.13212 0.0
H1946 H 0.27619 0.85211 0.14067 0.0
H1947 H 0.31736 0.82054 0.08201 0.0
H1948 H 0.30372 0.84048 0.05613 0.0
H1949 H 0.25106 0.84852 0.09235 0.0
C1950 C 0.28117 0.80195 0.14914 0.0
C1951 C 0.29809 0.79147 0.15326 0.0
C1952 C 0.31407 0.79151 0.13948 0.0
C1953 C 0.31328 0.80173 0.12185 0.0
C1954 C 0.29646 0.81196 0.11826 0.0
C1955 C 0.28072 0.81229 0.1315 0.0
C1956 C 0.26451 0.82466 0.12398 0.0
C1957 C 0.24471 0.81167 0.12065 0.0
C1958 C 0.26177 0.84287 0.1383 0.0
C1959 C 0.27357 0.83106 0.10437 0.0
C1960 C 0.29196 0.82345 0.10139 0.0
C1961 C 0.30304 0.8267 0.08419 0.0
C1962 C 0.29512 0.83801 0.06956 0.0
C1963 C 0.27637 0.84612 0.07225 0.0
C1964 C 0.26552 0.84268 0.08998 0.0
H1965 H 0.00481 0.48799 0.13838 0.0
H1966 H 0.00276 0.42492 0.15119 0.0
H1967 H 0.03151 0.43225 0.17427 0.0
H1968 H 0.05811 0.49831 0.14035 0.0
H1969 H 0.0569 0.52289 0.15231 0.0
H1970 H 0.03687 0.51247 0.13609 0.0
H1971 H 0.01118 0.51733 0.16444 0.0
H1972 H 0.03107 0.52804 0.18062 0.0
H1973 H 0.01512 0.50683 0.18821 0.0
H1974 H 0.0601 0.44689 0.1966 0.0
H1975 H 0.08406 0.46785 0.21834 0.0
H1976 H 0.06616 0.52122 0.19124 0.0
C1977 C 0.01016 0.47569 0.1462 0.0
C1978 C 0.00144 0.45587 0.143 0.0
C1979 C 0.0093 0.4402 0.15325 0.0
C1980 C 0.02561 0.44422 0.16638 0.0
C1981 C 0.03387 0.46395 0.16907 0.0
C1982 C 0.02626 0.47943 0.15937 0.0
C1983 C 0.03716 0.49945 0.16539 0.0
C1984 C 0.04789 0.50882 0.14747 0.0
C1985 C 0.02278 0.51375 0.17525 0.0
C1986 C 0.05195 0.49291 0.18026 0.0
C1987 C 0.05004 0.47236 0.18201 0.0
C1988 C 0.06178 0.46299 0.19529 0.0
C1989 C 0.0754 0.47501 0.20751 0.0
C1990 C 0.07698 0.49616 0.20645 0.0
C1991 C 0.06539 0.50509 0.19232 0.0
H1992 H 0.38734 0.75666 0.29467 0.0
H1993 H 0.37678 0.69283 0.30351 0.0
H1994 H 0.4062 0.69453 0.32564 0.0
H1995 H 0.44232 0.7568 0.29347 0.0
H1996 H 0.44585 0.78126 0.30601 0.0
H1997 H 0.42419 0.7749 0.29036 0.0
H1998 H 0.40118 0.78401 0.31988 0.0
H1999 H 0.42273 0.79022 0.33566 0.0
H2000 H 0.40336 0.77188 0.34308 0.0
H2001 H 0.43471 0.70374 0.34937 0.0
H2002 H 0.4628 0.71929 0.37024 0.0
H2003 H 0.45682 0.77618 0.34349 0.0
C2004 C 0.3914 0.74292 0.30087 0.0
C2005 C 0.37944 0.72468 0.29753 0.0
C2006 C 0.3853 0.70714 0.30622 0.0
C2007 C 0.40212 0.70788 0.3187 0.0
C2008 C 0.41323 0.72618 0.32206 0.0
C2009 C 0.40837 0.74331 0.31311 0.0
C2010 C 0.42281 0.76109 0.31928 0.0
C2011 C 0.43449 0.76897 0.3012 0.0
C2012 C 0.41186 0.77778 0.33012 0.0
C2013 C 0.43629 0.75135 0.3334 0.0
C2014 C 0.43041 0.73123 0.3349 0.0
C2015 C 0.4397 0.71939 0.34806 0.0
C2016 C 0.45554 0.72834 0.3599 0.0
C2017 C 0.46205 0.74881 0.35824 0.0
C2018 C 0.45235 0.76038 0.34474 0.0
H2019 H 0.94066 0.36664 0.99696 0.0
H2020 H 0.948 0.41799 0.95992 0.0
H2021 H 0.96133 0.39664 0.93282 0.0
H2022 H 0.9853 0.34482 0.9822 0.0
H2023 H 0.97451 0.31929 0.98237 0.0
H2024 H 0.96473 0.33837 0.99857 0.0
H2025 H 0.92926 0.3296 0.98363 0.0
H2026 H 0.93889 0.31037 0.9675 0.0
H2027 H 0.92562 0.32978 0.95703 0.0
H2028 H 0.9756 0.37021 0.91056 0.0
H2029 H 0.98738 0.33984 0.89355 0.0
H2030 H 0.97029 0.30562 0.94499 0.0
C2031 C 0.94497 0.37334 0.9831 0.0
C2032 C 0.94325 0.39393 0.98048 0.0
C2033 C 0.94893 0.40217 0.96211 0.0
C2034 C 0.95666 0.39021 0.9467 0.0
C2035 C 0.95847 0.37004 0.94988 0.0
C2036 C 0.95259 0.3616 0.96753 0.0
C2037 C 0.95614 0.33954 0.96716 0.0
C2038 C 0.97106 0.33527 0.98355 0.0
C2039 C 0.9363 0.32656 0.96893 0.0
C2040 C 0.96511 0.33694 0.9466 0.0
C2041 C 0.96641 0.35473 0.93693 0.0
C2042 C 0.97454 0.35615 0.91792 0.0
C2043 C 0.98128 0.33884 0.90843 0.0
C2044 C 0.97972 0.32033 0.91791 0.0
C2045 C 0.97161 0.3195 0.9373 0.0
H2046 H 0.63152 0.80647 0.28416 0.0
H2047 H 0.65927 0.75364 0.30166 0.0
H2048 H 0.63264 0.74753 0.32673 0.0
H2049 H 0.616 0.82312 0.3331 0.0
H2050 H 0.59276 0.83142 0.32434 0.0
H2051 H 0.61417 0.83163 0.30815 0.0
H2052 H 0.59336 0.8096 0.28152 0.0
H2053 H 0.57188 0.80936 0.2976 0.0
H2054 H 0.58092 0.78605 0.28828 0.0
H2055 H 0.6029 0.74768 0.35022 0.0
H2056 H 0.57165 0.75292 0.36871 0.0
H2057 H 0.5636 0.80535 0.33495 0.0
C2058 C 0.6321 0.79371 0.29339 0.0
C2059 C 0.64749 0.78058 0.29111 0.0
C2060 C 0.64753 0.76382 0.30316 0.0
C2061 C 0.63255 0.76031 0.31748 0.0
C2062 C 0.61763 0.77365 0.31942 0.0
C2063 C 0.61725 0.78993 0.30759 0.0
C2064 C 0.59936 0.80173 0.31215 0.0
C2065 C 0.60597 0.82325 0.3199 0.0
C2066 C 0.58557 0.80166 0.2938 0.0
C2067 C 0.58966 0.78956 0.32841 0.0
C2068 C 0.60045 0.7735 0.33253 0.0
C2069 C 0.59433 0.7602 0.34709 0.0
C2070 C 0.5766 0.76332 0.35753 0.0
C2071 C 0.56518 0.7795 0.35323 0.0
C2072 C 0.57195 0.7928 0.33855 0.0
H2073 H 0.021 0.17258 0.01734 0.0
H2074 H 0.08508 0.18691 0.01246 0.0
H2075 H 0.07933 0.20717 0.98354 0.0
H2076 H 0.00992 0.16802 0.96588 0.0
H2077 H 0.98658 0.17957 0.96802 0.0
H2078 H 0.99568 0.16657 0.9886 0.0
H2079 H 0.99392 0.19846 0.01186 0.0
H2080 H 0.98457 0.21149 0.99141 0.0
H2081 H 0.00663 0.22179 0.00485 0.0
H2082 H 0.06647 0.2248 0.95411 0.0
H2083 H 0.04738 0.24028 0.92818 0.0
H2084 H 0.99187 0.21529 0.9535 0.0
C2085 C 0.03385 0.18028 0.01051 0.0
C2086 C 0.05352 0.17805 0.01721 0.0
C2087 C 0.06988 0.18811 0.00746 0.0
C2088 C 0.06677 0.19974 0.99106 0.0
C2089 C 0.0472 0.2013 0.98467 0.0
C2090 C 0.03102 0.19203 0.99425 0.0
C2091 C 0.01148 0.19601 0.98446 0.0
C2092 C 0.00026 0.17637 0.97625 0.0
C2093 C 0.99838 0.20763 0.99901 0.0
C2094 C 0.01918 0.20887 0.96778 0.0
C2095 C 0.03982 0.21169 0.96805 0.0
C2096 C 0.05029 0.22279 0.95383 0.0
C2097 C 0.03933 0.23144 0.93911 0.0
C2098 C 0.01814 0.22903 0.93884 0.0
C2099 C 0.00805 0.21748 0.95333 0.0
H2100 H 0.37775 0.28361 0.24909 0.0
H2101 H 0.37391 0.34769 0.24463 0.0
H2102 H 0.40297 0.34906 0.2222 0.0
H2103 H 0.43287 0.28551 0.24873 0.0
H2104 H 0.4332 0.26218 0.23419 0.0
H2105 H 0.41263 0.26632 0.25076 0.0
H2106 H 0.38767 0.25876 0.22133 0.0
H2107 H 0.40813 0.25464 0.20468 0.0
H2108 H 0.39078 0.27289 0.19922 0.0
H2109 H 0.43045 0.3432 0.19827 0.0
H2110 H 0.45574 0.33056 0.17521 0.0
H2111 H 0.44328 0.27069 0.19645 0.0
C2112 C 0.38324 0.298 0.2437 0.0
C2113 C 0.37339 0.31551 0.24849 0.0
C2114 C 0.38092 0.33398 0.24086 0.0
C2115 C 0.39754 0.33497 0.22825 0.0
C2116 C 0.40667 0.3174 0.22357 0.0
C2117 C 0.39995 0.29929 0.23117 0.0
C2118 C 0.41216 0.28254 0.22325 0.0
C2119 C 0.42338 0.27362 0.24025 0.0
C2120 C 0.39889 0.26625 0.21142 0.0
C2121 C 0.42649 0.29403 0.2097 0.0
C2122 C 0.42306 0.31413 0.21015 0.0
C2123 C 0.43351 0.32756 0.19799 0.0
C2124 C 0.44778 0.32023 0.18491 0.0
C2125 C 0.45158 0.29971 0.1842 0.0
C2126 C 0.44095 0.28653 0.19696 0.0
H2127 H 0.51119 0.38661 0.01764 0.0
H2128 H 0.56458 0.4164 0.04612 0.0
H2129 H 0.56148 0.39265 0.07292 0.0
H2130 H 0.48428 0.38015 0.06325 0.0
H2131 H 0.47188 0.35631 0.05495 0.0
H2132 H 0.47927 0.37463 0.03708 0.0
H2133 H 0.49943 0.34855 0.01771 0.0
H2134 H 0.49218 0.33017 0.03559 0.0
H2135 H 0.51831 0.33635 0.03061 0.0
H2136 H 0.55265 0.36527 0.09679 0.0
H2137 H 0.53688 0.33851 0.11719 0.0
H2138 H 0.48768 0.32928 0.07485 0.0
C2139 C 0.5222 0.38836 0.02952 0.0
C2140 C 0.53832 0.40335 0.0294 0.0
C2141 C 0.55241 0.40476 0.04534 0.0
C2142 C 0.55071 0.3914 0.06081 0.0
C2143 C 0.53466 0.37687 0.06039 0.0
C2144 C 0.52051 0.37546 0.0453 0.0
C2145 C 0.50406 0.35923 0.04889 0.0
C2146 C 0.48367 0.36812 0.05118 0.0
C2147 C 0.50347 0.34259 0.03221 0.0
C2148 C 0.51114 0.35181 0.06841 0.0
C2149 C 0.52898 0.36193 0.07467 0.0
C2150 C 0.53861 0.35732 0.09211 0.0
C2151 C 0.5296 0.3421 0.10355 0.0
C2152 C 0.51102 0.33202 0.09766 0.0
C2153 C 0.50179 0.33693 0.07983 0.0
H2154 H 0.62584 0.27827 0.2344 0.0
H2155 H 0.62485 0.21406 0.24095 0.0
H2156 H 0.59586 0.20875 0.21803 0.0
H2157 H 0.57395 0.28143 0.23442 0.0
H2158 H 0.57381 0.3001 0.21598 0.0
H2159 H 0.5956 0.29878 0.23141 0.0
H2160 H 0.61753 0.29512 0.19988 0.0
H2161 H 0.59579 0.29651 0.18433 0.0
H2162 H 0.6108 0.2754 0.18125 0.0
H2163 H 0.56487 0.2107 0.19783 0.0
H2164 H 0.53511 0.21953 0.17955 0.0
H2165 H 0.55681 0.28237 0.1846 0.0
C2166 C 0.61965 0.26308 0.23079 0.0
C2167 C 0.6276 0.24655 0.23939 0.0
C2168 C 0.61915 0.2269 0.23432 0.0
C2169 C 0.60265 0.22375 0.22138 0.0
C2170 C 0.59495 0.24039 0.21345 0.0
C2171 C 0.60331 0.25966 0.21773 0.0
C2172 C 0.5917 0.27498 0.20776 0.0
C2173 C 0.58327 0.28968 0.22332 0.0
C2174 C 0.60473 0.28616 0.19239 0.0
C2175 C 0.57517 0.26134 0.19767 0.0
C2176 C 0.57735 0.24145 0.20117 0.0
C2177 C 0.56319 0.22617 0.19468 0.0
C2178 C 0.5463 0.23134 0.1844 0.0
C2179 C 0.54382 0.25159 0.18052 0.0
C2180 C 0.55857 0.26674 0.18703 0.0
H2181 H 0.47489 0.14149 0.05788 0.0
H2182 H 0.41818 0.15379 0.03198 0.0
H2183 H 0.42015 0.18699 0.05027 0.0
H2184 H 0.46576 0.16438 0.10673 0.0
H2185 H 0.49148 0.1739 0.11048 0.0
H2186 H 0.48559 0.15138 0.09511 0.0
H2187 H 0.50526 0.16729 0.06586 0.0
H2188 H 0.51111 0.1899 0.0811 0.0
H2189 H 0.49877 0.19108 0.05737 0.0
H2190 H 0.42946 0.21948 0.06989 0.0
H2191 H 0.44342 0.24752 0.09241 0.0
H2192 H 0.49281 0.21277 0.10731 0.0
C2193 C 0.4629 0.15121 0.05618 0.0
C2194 C 0.44641 0.14531 0.04359 0.0
C2195 C 0.43086 0.15818 0.0417 0.0
C2196 C 0.43191 0.17702 0.05192 0.0
C2197 C 0.44848 0.18251 0.06413 0.0
C2198 C 0.46353 0.16986 0.06655 0.0
C2199 C 0.4794 0.17908 0.08101 0.0
C2200 C 0.48062 0.16643 0.09942 0.0
C2201 C 0.49984 0.18201 0.07071 0.0
C2202 C 0.47101 0.19897 0.08626 0.0
C2203 C 0.45331 0.20078 0.07617 0.0
C2204 C 0.44319 0.21816 0.07803 0.0
C2205 C 0.45127 0.23401 0.09076 0.0
C2206 C 0.46907 0.23219 0.10167 0.0
C2207 C 0.47903 0.21444 0.09932 0.0
H2208 H 0.28063 0.4116 0.73336 0.0
H2209 H 0.25266 0.40471 0.79128 0.0
H2210 H 0.27267 0.43467 0.80459 0.0
H2211 H 0.33036 0.42716 0.75348 0.0
H2212 H 0.3363 0.44465 0.73439 0.0
H2213 H 0.3194 0.42276 0.72896 0.0
H2214 H 0.29241 0.44542 0.71758 0.0
H2215 H 0.30918 0.46739 0.72308 0.0
H2216 H 0.28478 0.46521 0.73438 0.0
H2217 H 0.29419 0.46594 0.81156 0.0
H2218 H 0.31874 0.49536 0.8127 0.0
H2219 H 0.33529 0.48116 0.75139 0.0
C2220 C 0.27883 0.41625 0.74889 0.0
C2221 C 0.26462 0.40594 0.76108 0.0
C2222 C 0.26285 0.41264 0.78135 0.0
C2223 C 0.2743 0.42959 0.78917 0.0
C2224 C 0.28781 0.43959 0.77669 0.0
C2225 C 0.29041 0.43308 0.75709 0.0
C2226 C 0.30642 0.44646 0.74716 0.0
C2227 C 0.32417 0.43454 0.74062 0.0
C2228 C 0.29767 0.45673 0.72951 0.0
C2229 C 0.31222 0.46152 0.76426 0.0
C2230 C 0.30111 0.4573 0.78106 0.0
C2231 C 0.30314 0.46933 0.79857 0.0
C2232 C 0.31707 0.48606 0.79903 0.0
C2233 C 0.32899 0.49051 0.78218 0.0
C2234 C 0.32651 0.47802 0.76456 0.0
H2235 H 0.28864 0.67643 0.80637 0.0
H2236 H 0.26325 0.66098 0.74715 0.0
H2237 H 0.28593 0.63467 0.74277 0.0
H2238 H 0.33919 0.66303 0.79754 0.0
H2239 H 0.34095 0.65146 0.82109 0.0
H2240 H 0.32525 0.67186 0.81871 0.0
H2241 H 0.29481 0.64974 0.83127 0.0
H2242 H 0.31041 0.62934 0.8338 0.0
H2243 H 0.28801 0.62571 0.81873 0.0
H2244 H 0.31084 0.60905 0.74453 0.0
H2245 H 0.33206 0.58274 0.75468 0.0
H2246 H 0.33671 0.61058 0.81441 0.0
C2247 C 0.28749 0.66777 0.79238 0.0
C2248 C 0.27405 0.6719 0.77697 0.0
C2249 C 0.27375 0.65949 0.75906 0.0
C2250 C 0.28657 0.64408 0.75638 0.0
C2251 C 0.29936 0.64056 0.77187 0.0
C2252 C 0.29959 0.65172 0.7897 0.0
C2253 C 0.3129 0.64318 0.8049 0.0
C2254 C 0.33062 0.65829 0.81091 0.0
C2255 C 0.30081 0.6366 0.82325 0.0
C2256 C 0.31984 0.6253 0.79284 0.0
C2257 C 0.31232 0.62447 0.77362 0.0
C2258 C 0.31677 0.60948 0.75955 0.0
C2259 C 0.32888 0.59468 0.76542 0.0
C2260 C 0.33588 0.59466 0.7853 0.0
C2261 C 0.33145 0.61026 0.79913 0.0
H2262 H 0.87943 0.47166 0.49381 0.0
H2263 H 0.85426 0.52931 0.49224 0.0
H2264 H 0.82118 0.51355 0.50099 0.0
H2265 H 0.83606 0.44161 0.47305 0.0
H2266 H 0.83869 0.42106 0.48895 0.0
H2267 H 0.86046 0.43668 0.48203 0.0
H2268 H 0.8694 0.44419 0.51935 0.0
H2269 H 0.84764 0.42865 0.5264 0.0
H2270 H 0.85115 0.45435 0.53587 0.0
H2271 H 0.7913 0.49222 0.50998 0.0
H2272 H 0.76559 0.46622 0.51931 0.0
H2273 H 0.8096 0.42187 0.51583 0.0
C2274 C 0.86688 0.48085 0.49519 0.0
C2275 C 0.86934 0.50169 0.49249 0.0
C2276 C 0.85268 0.51336 0.49452 0.0
C2277 C 0.83385 0.50455 0.49938 0.0
C2278 C 0.83193 0.48405 0.50219 0.0
C2279 C 0.84791 0.47229 0.50022 0.0
C2280 C 0.84166 0.45067 0.50453 0.0
C2281 C 0.84438 0.43668 0.48604 0.0
C2282 C 0.85315 0.44409 0.52262 0.0
C2283 C 0.8197 0.45221 0.50925 0.0
C2284 C 0.81448 0.47161 0.50769 0.0
C2285 C 0.79514 0.47694 0.51125 0.0
C2286 C 0.78065 0.46202 0.51654 0.0
C2287 C 0.78555 0.44197 0.51832 0.0
C2288 C 0.80539 0.43705 0.51464 0.0
H2289 H 0.70194 0.89145 0.7646 0.0
H2290 H 0.7198 0.89767 0.82691 0.0
H2291 H 0.69834 0.92566 0.83216 0.0
H2292 H 0.7015 0.9431 0.75666 0.0
H2293 H 0.67974 0.94072 0.74066 0.0
H2294 H 0.69537 0.92017 0.74194 0.0
H2295 H 0.66467 0.89668 0.75151 0.0
H2296 H 0.6489 0.91716 0.7502 0.0
H2297 H 0.64972 0.90359 0.77268 0.0
H2298 H 0.6781 0.95485 0.83006 0.0
H2299 H 0.65801 0.98245 0.82125 0.0
H2300 H 0.65137 0.95682 0.76074 0.0
C2301 C 0.70113 0.8986 0.77937 0.0
C2302 C 0.71242 0.89231 0.79539 0.0
C2303 C 0.71102 0.90202 0.81452 0.0
C2304 C 0.69895 0.91799 0.81763 0.0
C2305 C 0.68819 0.92395 0.80152 0.0
C2306 C 0.68892 0.91446 0.78281 0.0
C2307 C 0.67616 0.92426 0.768 0.0
C2308 C 0.68896 0.93256 0.75081 0.0
C2309 C 0.65883 0.90954 0.76014 0.0
C2310 C 0.66858 0.94103 0.78122 0.0
C2311 C 0.67578 0.94055 0.80048 0.0
C2312 C 0.67207 0.95522 0.81513 0.0
C2313 C 0.66074 0.97086 0.80997 0.0
C2314 C 0.65302 0.97159 0.79041 0.0
C2315 C 0.6568 0.95636 0.77591 0.0
H2316 H 0.64307 0.55157 0.9676 0.0
H2317 H 0.67921 0.50143 0.95575 0.0
H2318 H 0.70994 0.52396 0.96178 0.0
H2319 H 0.67706 0.59012 0.94551 0.0
H2320 H 0.67191 0.60902 0.96446 0.0
H2321 H 0.65298 0.58927 0.9575 0.0
H2322 H 0.6501 0.57984 0.99442 0.0
H2323 H 0.66916 0.59939 0.00147 0.0
H2324 H 0.67216 0.57388 0.00756 0.0
H2325 H 0.73639 0.55143 0.97062 0.0
H2326 H 0.75714 0.58202 0.98155 0.0
H2327 H 0.70366 0.61428 0.98854 0.0
C2328 C 0.65748 0.54546 0.96582 0.0
C2329 C 0.65887 0.52484 0.96104 0.0
C2330 C 0.67792 0.51722 0.95938 0.0
C2331 C 0.6954 0.52989 0.96273 0.0
C2332 C 0.6935 0.55008 0.96781 0.0
C2333 C 0.67505 0.55786 0.9693 0.0
C2334 C 0.67712 0.57986 0.97604 0.0
C2335 C 0.66931 0.59283 0.95991 0.0
C2336 C 0.66651 0.58344 0.99606 0.0
C2337 C 0.69962 0.5832 0.97831 0.0
C2338 C 0.70877 0.56587 0.97334 0.0
C2339 C 0.72942 0.56512 0.97446 0.0
C2340 C 0.74106 0.58261 0.98072 0.0
C2341 C 0.73204 0.60059 0.98593 0.0
C2342 C 0.71101 0.60079 0.98473 0.0
H2343 H 0.20412 0.64735 0.22062 0.0
H2344 H 0.21439 0.66741 0.28256 0.0
H2345 H 0.19278 0.6385 0.29328 0.0
H2346 H 0.15092 0.62865 0.22739 0.0
H2347 H 0.15276 0.60774 0.20969 0.0
H2348 H 0.16802 0.6308 0.20676 0.0
H2349 H 0.19975 0.61108 0.20632 0.0
H2350 H 0.18464 0.58803 0.20959 0.0
H2351 H 0.20463 0.59587 0.22693 0.0
H2352 H 0.17358 0.60597 0.29754 0.0
H2353 H 0.15352 0.57351 0.29519 0.0
H2354 H 0.15338 0.57501 0.23058 0.0
C2355 C 0.20139 0.64592 0.2364 0.0
C2356 C 0.21114 0.6595 0.25077 0.0
C2357 C 0.20737 0.65699 0.27131 0.0
C2358 C 0.19507 0.64066 0.27755 0.0
C2359 C 0.18635 0.62714 0.26308 0.0
C2360 C 0.18893 0.62975 0.24293 0.0
C2361 C 0.17798 0.61268 0.23058 0.0
C2362 C 0.16143 0.62043 0.21786 0.0
C2363 C 0.19263 0.60124 0.21759 0.0
C2364 C 0.16924 0.59993 0.24699 0.0
C2365 C 0.17442 0.60854 0.26559 0.0
C2366 C 0.16913 0.59919 0.28308 0.0
C2367 C 0.15788 0.58067 0.28157 0.0
C2368 C 0.15184 0.57178 0.26271 0.0
C2369 C 0.15765 0.58155 0.2452 0.0
H2370 H 0.86372 0.55057 0.0742 0.0
H2371 H 0.91078 0.55235 0.02996 0.0
H2372 H 0.89802 0.58251 0.01647 0.0
H2373 H 0.82623 0.5617 0.04259 0.0
H2374 H 0.81318 0.57701 0.06027 0.0
H2375 H 0.82805 0.55798 0.06893 0.0
H2376 H 0.84842 0.58464 0.09164 0.0
H2377 H 0.83357 0.60382 0.083 0.0
H2378 H 0.86045 0.60661 0.08091 0.0
H2379 H 0.87774 0.60839 0.00449 0.0
H2380 H 0.85055 0.62844 0.99423 0.0
H2381 H 0.81634 0.61111 0.04621 0.0
C2382 C 0.87161 0.55776 0.06207 0.0
C2383 C 0.88826 0.54936 0.05313 0.0
C2384 C 0.89799 0.55868 0.03695 0.0
C2385 C 0.89095 0.57586 0.02931 0.0
C2386 C 0.87419 0.58357 0.03807 0.0
C2387 C 0.86462 0.57491 0.05414 0.0
C2388 C 0.84555 0.58482 0.05917 0.0
C2389 C 0.82718 0.56946 0.05763 0.0
C2390 C 0.8471 0.59562 0.07992 0.0
C2391 C 0.84546 0.59971 0.04286 0.0
C2392 C 0.86234 0.59893 0.03111 0.0
C2393 C 0.86471 0.60955 0.01384 0.0
C2394 C 0.84919 0.62085 0.0081 0.0
C2395 C 0.83162 0.62154 0.01965 0.0
C2396 C 0.82996 0.61131 0.03754 0.0
H2397 H 0.15385 0.02436 0.07508 0.0
H2398 H 0.13792 0.03997 0.01541 0.0
H2399 H 0.15435 0.01098 0.00124 0.0
H2400 H 0.2025 0.00777 0.06226 0.0
H2401 H 0.2008 0.98742 0.07893 0.0
H2402 H 0.18777 0.00948 0.08464 0.0
H2403 H 0.15444 0.98735 0.08701 0.0
H2404 H 0.16736 0.96521 0.08119 0.0
H2405 H 0.14631 0.97061 0.0662 0.0
H2406 H 0.17166 0.98059 0.99331 0.0
H2407 H 0.19086 0.95085 0.99165 0.0
H2408 H 0.19633 0.95404 0.05627 0.0
C2409 C 0.15385 0.02164 0.05905 0.0
C2410 C 0.14477 0.03457 0.04633 0.0
C2411 C 0.14512 0.03055 0.02542 0.0
C2412 C 0.15426 0.014 0.01722 0.0
C2413 C 0.16301 0.00157 0.03011 0.0
C2414 C 0.16305 0.00516 0.05055 0.0
C2415 C 0.17388 0.98943 0.06086 0.0
C2416 C 0.19234 0.99911 0.07235 0.0
C2417 C 0.15964 0.97744 0.07463 0.0
C2418 C 0.17988 0.9765 0.04297 0.0
C2419 C 0.1733 0.98382 0.02545 0.0
C2420 C 0.17694 0.9747 0.0069 0.0
C2421 C 0.18788 0.95777 0.00615 0.0
C2422 C 0.19515 0.95008 0.02383 0.0
C2423 C 0.19092 0.95951 0.04252 0.0
loop_
_geom_bond_atom_site_label_1
_geom_bond_atom_site_label_2
_geom_bond_distance
_geom_bond_site_symmetry_2
_ccdc_geom_bond_type
C0 C1 1.391 . S
C0 C4 1.391 . S
C0 H42 0.948 . S
C1 C0 1.391 . S
C1 C2 1.391 . S
C2 C1 1.391 . S
C2 H58 0.947 . S
C2 C59 1.392 . S
C3 C4 1.391 . S
C3 C7 1.397 . S
C3 C59 1.419 . S
C4 C0 1.391 . S
C4 C3 1.391 . S
C4 C5 1.399 . S
C5 C4 1.399 . S
C5 C8 1.396 . S
C5 C17 1.453 . S
C5 C18 1.684 . S
H6 C30 0.948 . S
C7 C3 1.397 . S
C7 C8 1.394 . S
C7 C26 1.723 . S
C8 C5 1.396 . S
C8 C7 1.394 . S
C8 C38 1.723 . S
H9 C32 0.947 . S
H10 C33 0.948 . S
H11 C39 0.982 . S
H12 C40 0.979 . S
H13 C40 0.980 . S
H14 C40 0.983 . S
H15 C39 0.979 . S
H16 C39 0.977 . S
C17 C5 1.453 . S
C17 H46 0.982 . S
C17 H47 0.979 . S
C17 H48 0.977 . S
C18 C5 1.684 . S
C18 H43 0.979 . S
C18 H44 0.980 . S
C18 H45 0.983 . S
C19 C20 1.391 . S
C19 C24 1.391 . S
C19 H49 0.948 . S
C20 C19 1.391 . S
C20 C21 1.391 . S
C21 C20 1.391 . S
C21 C22 1.392 . S
C21 H50 0.947 . S
C22 C21 1.392 . S
C22 C23 1.419 . S
C22 H51 0.948 . S
C23 C22 1.419 . S
C23 C24 1.391 . S
C23 C27 1.397 . S
C24 C19 1.391 . S
C24 C23 1.391 . S
C24 C25 1.399 . S
C25 C24 1.399 . S
C25 C26 1.396 . S
C25 C28 1.453 . S
C25 C29 1.684 . S
C26 C7 1.723 . S
C26 C25 1.396 . S
C26 C27 1.394 . S
C27 C23 1.397 . S
C27 C26 1.394 . S
C27 C37 1.723 . S
C28 C25 1.453 . S
C28 H52 0.982 . S
C28 H53 0.979 . S
C28 H54 0.977 . S
C29 C25 1.684 . S
C29 H55 0.979 . S
C29 H56 0.980 . S
C29 H57 0.983 . S
C30 H6 0.948 . S
C30 C31 1.391 . S
C30 C35 1.391 . S
C31 C30 1.391 . S
C31 C32 1.391 . S
C32 H9 0.947 . S
C32 C31 1.391 . S
C32 C33 1.392 . S
C33 H10 0.948 . S
C33 C32 1.392 . S
C33 C34 1.419 . S
C34 C33 1.419 . S
C34 C35 1.391 . S
C34 C38 1.397 . S
C35 C30 1.391 . S
C35 C34 1.391 . S
C35 C36 1.399 . S
C36 C35 1.399 . S
C36 C37 1.396 . S
C36 C39 1.453 . S
C36 C40 1.684 . S
C37 C27 1.723 . S
C37 C36 1.396 . S
C37 C38 1.394 . S
C38 C8 1.723 . S
C38 C34 1.397 . S
C38 C37 1.394 . S
C39 H11 0.982 . S
C39 H15 0.979 . S
C39 H16 0.977 . S
C39 C36 1.453 . S
C40 H12 0.979 . S
C40 H13 0.980 . S
C40 H14 0.983 . S
C40 C36 1.684 . S
H41 C59 0.948 . S
H42 C0 0.948 . S
H43 C18 0.979 . S
H44 C18 0.980 . S
H45 C18 0.983 . S
H46 C17 0.982 . S
H47 C17 0.979 . S
H48 C17 0.977 . S
H49 C19 0.948 . S
H50 C21 0.947 . S
H51 C22 0.948 . S
H52 C28 0.982 . S
H53 C28 0.979 . S
H54 C28 0.977 . S
H55 C29 0.979 . S
H56 C29 0.980 . S
H57 C29 0.983 . S
H58 C2 0.947 . S
C59 C2 1.392 . S
C59 C3 1.419 . S
C59 H41 0.948 . S
C60 C61 1.391 . S
C60 C64 1.391 . S
C60 H102 0.948 . S
C61 C60 1.391 . S
C61 C62 1.391 . S
C62 C61 1.391 . S
C62 H118 0.947 . S
C62 C119 1.392 . S
C63 C64 1.391 . S
C63 C67 1.397 . S
C63 C119 1.419 . S
C64 C60 1.391 . S
C64 C63 1.391 . S
C64 C65 1.399 . S
C65 C64 1.399 . S
C65 C68 1.396 . S
C65 C77 1.453 . S
C65 C78 1.684 . S
H66 C90 0.948 . S
C67 C63 1.397 . S
C67 C68 1.394 . S
C67 C86 1.723 . S
C68 C65 1.396 . S
C68 C67 1.394 . S
C68 C98 1.723 . S
H69 C92 0.947 . S
H70 C93 0.948 . S
H71 C99 0.982 . S
H72 C100 0.979 . S
H73 C100 0.980 . S
H74 C100 0.983 . S
H75 C99 0.979 . S
H76 C99 0.977 . S
C77 C65 1.453 . S
C77 H106 0.982 . S
C77 H107 0.979 . S
C77 H108 0.977 . S
C78 C65 1.684 . S
C78 H103 0.979 . S
C78 H104 0.980 . S
C78 H105 0.983 . S
C79 C80 1.391 . S
C79 C84 1.391 . S
C79 H109 0.948 . S
C80 C79 1.391 . S
C80 C81 1.391 . S
C81 C80 1.391 . S
C81 C82 1.392 . S
C81 H110 0.947 . S
C82 C81 1.392 . S
C82 C83 1.419 . S
C82 H111 0.948 . S
C83 C82 1.419 . S
C83 C84 1.391 . S
C83 C87 1.397 . S
C84 C79 1.391 . S
C84 C83 1.391 . S
C84 C85 1.399 . S
C85 C84 1.399 . S
C85 C86 1.396 . S
C85 C88 1.453 . S
C85 C89 1.684 . S
C86 C67 1.723 . S
C86 C85 1.396 . S
C86 C87 1.394 . S
C87 C83 1.397 . S
C87 C86 1.394 . S
C87 C97 1.723 . S
C88 C85 1.453 . S
C88 H112 0.982 . S
C88 H113 0.979 . S
C88 H114 0.977 . S
C89 C85 1.684 . S
C89 H115 0.979 . S
C89 H116 0.980 . S
C89 H117 0.983 . S
C90 H66 0.948 . S
C90 C91 1.391 . S
C90 C95 1.391 . S
C91 C90 1.391 . S
C91 C92 1.391 . S
C92 H69 0.947 . S
C92 C91 1.391 . S
C92 C93 1.392 . S
C93 H70 0.948 . S
C93 C92 1.392 . S
C93 C94 1.419 . S
C94 C93 1.419 . S
C94 C95 1.391 . S
C94 C98 1.397 . S
C95 C90 1.391 . S
C95 C94 1.391 . S
C95 C96 1.399 . S
C96 C95 1.399 . S
C96 C97 1.396 . S
C96 C99 1.453 . S
C96 C100 1.684 . S
C97 C87 1.723 . S
C97 C96 1.396 . S
C97 C98 1.394 . S
C98 C68 1.723 . S
C98 C94 1.397 . S
C98 C97 1.394 . S
C99 H71 0.982 . S
C99 H75 0.979 . S
C99 H76 0.977 . S
C99 C96 1.453 . S
C100 H72 0.979 . S
C100 H73 0.980 . S
C100 H74 0.983 . S
C100 C96 1.684 . S
H101 C119 0.948 . S
H102 C60 0.948 . S
H103 C78 0.979 . S
H104 C78 0.980 . S
H105 C78 0.983 . S
H106 C77 0.982 . S
H107 C77 0.979 . S
H108 C77 0.977 . S
H109 C79 0.948 . S
H110 C81 0.947 . S
H111 C82 0.948 . S
H112 C88 0.982 . S
H113 C88 0.979 . S
H114 C88 0.977 . S
H115 C89 0.979 . S
H116 C89 0.980 . S
H117 C89 0.983 . S
H118 C62 0.947 . S
C119 C62 1.392 . S
C119 C63 1.419 . S
C119 H101 0.948 . S
C120 C121 1.391 . S
C120 C124 1.391 . S
C120 H162 0.948 . S
C121 C120 1.391 . S
C121 C122 1.391 . S
C122 C121 1.391 . S
C122 H178 0.947 . S
C122 C179 1.392 . S
C123 C124 1.391 . S
C123 C127 1.397 . S
C123 C179 1.419 . S
C124 C120 1.391 . S
C124 C123 1.391 . S
C124 C125 1.399 . S
C125 C124 1.399 . S
C125 C128 1.396 . S
C125 C137 1.453 . S
C125 C138 1.684 . S
H126 C150 0.948 . S
C127 C123 1.397 . S
C127 C128 1.394 . S
C127 C146 1.723 . S
C128 C125 1.396 . S
C128 C127 1.394 . S
C128 C158 1.723 . S
H129 C152 0.947 . S
H130 C153 0.948 . S
H131 C159 0.982 . S
H132 C160 0.979 . S
H133 C160 0.980 . S
H134 C160 0.983 . S
H135 C159 0.979 . S
H136 C159 0.977 . S
C137 C125 1.453 . S
C137 H166 0.982 . S
C137 H167 0.979 . S
C137 H168 0.977 . S
C138 C125 1.684 . S
C138 H163 0.979 . S
C138 H164 0.980 . S
C138 H165 0.983 . S
C139 C140 1.391 . S
C139 C144 1.391 . S
C139 H169 0.948 . S
C140 C139 1.391 . S
C140 C141 1.391 . S
C141 C140 1.391 . S
C141 C142 1.392 . S
C141 H170 0.947 . S
C142 C141 1.392 . S
C142 C143 1.419 . S
C142 H171 0.948 . S
C143 C142 1.419 . S
C143 C144 1.391 . S
C143 C147 1.397 . S
C144 C139 1.391 . S
C144 C143 1.391 . S
C144 C145 1.399 . S
C145 C144 1.399 . S
C145 C146 1.396 . S
C145 C148 1.453 . S
C145 C149 1.684 . S
C146 C127 1.723 . S
C146 C145 1.396 . S
C146 C147 1.394 . S
C147 C143 1.397 . S
C147 C146 1.394 . S
C147 C157 1.723 . S
C148 C145 1.453 . S
C148 H172 0.982 . S
C148 H173 0.979 . S
C148 H174 0.977 . S
C149 C145 1.684 . S
C149 H175 0.979 . S
C149 H176 0.980 . S
C149 H177 0.983 . S
C150 H126 0.948 . S
C150 C151 1.391 . S
C150 C155 1.391 . S
C151 C150 1.391 . S
C151 C152 1.391 . S
C152 H129 0.947 . S
C152 C151 1.391 . S
C152 C153 1.392 . S
C153 H130 0.948 . S
C153 C152 1.392 . S
C153 C154 1.419 . S
C154 C153 1.419 . S
C154 C155 1.391 . S
C154 C158 1.397 . S
C155 C150 1.391 . S
C155 C154 1.391 . S
C155 C156 1.399 . S
C156 C155 1.399 . S
C156 C157 1.396 . S
C156 C159 1.453 . S
C156 C160 1.684 . S
C157 C147 1.723 . S
C157 C156 1.396 . S
C157 C158 1.394 . S
C158 C128 1.723 . S
C158 C154 1.397 . S
C158 C157 1.394 . S
C159 H131 0.982 . S
C159 H135 0.979 . S
C159 H136 0.977 . S
C159 C156 1.453 . S
C160 H132 0.979 . S
C160 H133 0.980 . S
C160 H134 0.983 . S
C160 C156 1.684 . S
H161 C179 0.948 . S
H162 C120 0.948 . S
H163 C138 0.979 . S
H164 C138 0.980 . S
H165 C138 0.983 . S
H166 C137 0.982 . S
H167 C137 0.979 . S
H168 C137 0.977 . S
H169 C139 0.948 . S
H170 C141 0.947 . S
H171 C142 0.948 . S
H172 C148 0.982 . S
H173 C148 0.979 . S
H174 C148 0.977 . S
H175 C149 0.979 . S
H176 C149 0.980 . S
H177 C149 0.983 . S
H178 C122 0.947 . S
C179 C122 1.392 . S
C179 C123 1.419 . S
C179 H161 0.948 . S
C180 C181 1.391 . S
C180 C184 1.391 . S
C180 H222 0.948 . S
C181 C180 1.391 . S
C181 C182 1.391 . S
C182 C181 1.391 . S
C182 H238 0.947 . S
C182 C239 1.392 . S
C183 C184 1.391 . S
C183 C187 1.397 . S
C183 C239 1.419 . S
C184 C180 1.391 . S
C184 C183 1.391 . S
C184 C185 1.399 . S
C185 C184 1.399 . S
C185 C188 1.396 . S
C185 C197 1.453 . S
C185 C198 1.684 . S
H186 C210 0.948 . S
C187 C183 1.397 . S
C187 C188 1.394 . S
C187 C206 1.723 . S
C188 C185 1.396 . S
C188 C187 1.394 . S
C188 C218 1.723 . S
H189 C212 0.947 . S
H190 C213 0.948 . S
H191 C219 0.982 . S
H192 C220 0.979 . S
H193 C220 0.980 . S
H194 C220 0.983 . S
H195 C219 0.979 . S
H196 C219 0.977 . S
C197 C185 1.453 . S
C197 H226 0.982 . S
C197 H227 0.979 . S
C197 H228 0.977 . S
C198 C185 1.684 . S
C198 H223 0.979 . S
C198 H224 0.980 . S
C198 H225 0.983 . S
C199 C200 1.391 . S
C199 C204 1.391 . S
C199 H229 0.948 . S
C200 C199 1.391 . S
C200 C201 1.391 . S
C201 C200 1.391 . S
C201 C202 1.392 . S
C201 H230 0.947 . S
C202 C201 1.392 . S
C202 C203 1.419 . S
C202 H231 0.948 . S
C203 C202 1.419 . S
C203 C204 1.391 . S
C203 C207 1.397 . S
C204 C199 1.391 . S
C204 C203 1.391 . S
C204 C205 1.399 . S
C205 C204 1.399 . S
C205 C206 1.396 . S
C205 C208 1.453 . S
C205 C209 1.684 . S
C206 C187 1.723 . S
C206 C205 1.396 . S
C206 C207 1.394 . S
C207 C203 1.397 . S
C207 C206 1.394 . S
C207 C217 1.723 . S
C208 C205 1.453 . S
C208 H232 0.982 . S
C208 H233 0.979 . S
C208 H234 0.977 . S
C209 C205 1.684 . S
C209 H235 0.979 . S
C209 H236 0.980 . S
C209 H237 0.983 . S
C210 H186 0.948 . S
C210 C211 1.391 . S
C210 C215 1.391 . S
C211 C210 1.391 . S
C211 C212 1.391 . S
C212 H189 0.947 . S
C212 C211 1.391 . S
C212 C213 1.392 . S
C213 H190 0.948 . S
C213 C212 1.392 . S
C213 C214 1.419 . S
C214 C213 1.419 . S
C214 C215 1.391 . S
C214 C218 1.397 . S
C215 C210 1.391 . S
C215 C214 1.391 . S
C215 C216 1.399 . S
C216 C215 1.399 . S
C216 C217 1.396 . S
C216 C219 1.453 . S
C216 C220 1.684 . S
C217 C207 1.723 . S
C217 C216 1.396 . S
C217 C218 1.394 . S
C218 C188 1.723 . S
C218 C214 1.397 . S
C218 C217 1.394 . S
C219 H191 0.982 . S
C219 H195 0.979 . S
C219 H196 0.977 . S
C219 C216 1.453 . S
C220 H192 0.979 . S
C220 H193 0.980 . S
C220 H194 0.983 . S
C220 C216 1.684 . S
H221 C239 0.948 . S
H222 C180 0.948 . S
H223 C198 0.979 . S
H224 C198 0.980 . S
H225 C198 0.983 . S
H226 C197 0.982 . S
H227 C197 0.979 . S
H228 C197 0.977 . S
H229 C199 0.948 . S
H230 C201 0.947 . S
H231 C202 0.948 . S
H232 C208 0.982 . S
H233 C208 0.979 . S
H234 C208 0.977 . S
H235 C209 0.979 . S
H236 C209 0.980 . S
H237 C209 0.983 . S
H238 C182 0.947 . S
C239 C182 1.392 . S
C239 C183 1.419 . S
C239 H221 0.948 . S
C240 C241 1.391 . S
C240 C244 1.391 . S
C240 H282 0.948 . S
C241 C240 1.391 . S
C241 C242 1.391 . S
C242 C241 1.391 . S
C242 H298 0.947 . S
C242 C299 1.392 . S
C243 C244 1.391 . S
C243 C247 1.397 . S
C243 C299 1.419 . S
C244 C240 1.391 . S
C244 C243 1.391 . S
C244 C245 1.399 . S
C245 C244 1.399 . S
C245 C248 1.396 . S
C245 C257 1.453 . S
C245 C258 1.684 . S
H246 C270 0.948 . S
C247 C243 1.397 . S
C247 C248 1.394 . S
C247 C266 1.723 . S
C248 C245 1.396 . S
C248 C247 1.394 . S
C248 C278 1.723 . S
H249 C272 0.947 . S
H250 C273 0.948 . S
H251 C279 0.982 . S
H252 C280 0.979 . S
H253 C280 0.980 . S
H254 C280 0.983 1_545 S
H255 C279 0.979 . S
H256 C279 0.977 . S
C257 C245 1.453 . S
C257 H286 0.982 . S
C257 H287 0.979 . S
C257 H288 0.977 . S
C258 C245 1.684 . S
C258 H283 0.979 . S
C258 H284 0.980 . S
C258 H285 0.983 . S
C259 C260 1.391 . S
C259 C264 1.391 . S
C259 H289 0.948 . S
C260 C259 1.391 . S
C260 C261 1.391 . S
C261 C260 1.391 . S
C261 C262 1.392 . S
C261 H290 0.947 . S
C262 C261 1.392 . S
C262 C263 1.419 . S
C262 H291 0.948 . S
C263 C262 1.419 . S
C263 C264 1.391 . S
C263 C267 1.397 . S
C264 C259 1.391 . S
C264 C263 1.391 . S
C264 C265 1.399 . S
C265 C264 1.399 . S
C265 C266 1.396 . S
C265 C268 1.453 . S
C265 C269 1.684 . S
C266 C247 1.723 . S
C266 C265 1.396 . S
C266 C267 1.394 . S
C267 C263 1.397 . S
C267 C266 1.394 . S
C267 C277 1.723 . S
C268 C265 1.453 . S
C268 H292 0.982 . S
C268 H293 0.979 . S
C268 H294 0.977 . S
C269 C265 1.684 . S
C269 H295 0.979 . S
C269 H296 0.980 . S
C269 H297 0.983 . S
C270 H246 0.948 . S
C270 C271 1.385 1_545 S
C270 C275 1.391 1_545 S
C271 C270 1.385 1_565 S
C271 C272 1.418 . S
C272 H249 0.947 . S
C272 C271 1.418 . S
C272 C273 1.392 . S
C273 H250 0.948 . S
C273 C272 1.392 . S
C273 C274 1.419 . S
C274 C273 1.419 . S
C274 C275 1.391 . S
C274 C278 1.397 . S
C275 C270 1.391 1_565 S
C275 C274 1.391 . S
C275 C276 1.399 . S
C276 C275 1.399 . S
C276 C277 1.396 . S
C276 C279 1.453 1_565 S
C276 C280 1.684 . S
C277 C267 1.723 . S
C277 C276 1.396 . S
C277 C278 1.394 . S
C278 C248 1.723 . S
C278 C274 1.397 . S
C278 C277 1.394 . S
C279 H251 0.982 . S
C279 H255 0.979 . S
C279 H256 0.977 . S
C279 C276 1.453 1_545 S
C280 H252 0.979 . S
C280 H253 0.980 . S
C280 H254 0.983 1_565 S
C280 C276 1.684 . S
H281 C299 0.948 . S
H282 C240 0.948 . S
H283 C258 0.979 . S
H284 C258 0.980 . S
H285 C258 0.983 . S
H286 C257 0.982 . S
H287 C257 0.979 . S
H288 C257 0.977 . S
H289 C259 0.948 . S
H290 C261 0.947 . S
H291 C262 0.948 . S
H292 C268 0.982 . S
H293 C268 0.979 . S
H294 C268 0.977 . S
H295 C269 0.979 . S
H296 C269 0.980 . S
H297 C269 0.983 . S
H298 C242 0.947 . S
C299 C242 1.392 . S
C299 C243 1.419 . S
C299 H281 0.948 . S
C300 C301 1.391 . S
C300 C304 1.391 . S
C300 H342 0.948 . S
C301 C300 1.391 . S
C301 C302 1.391 . S
C302 C301 1.391 . S
C302 H358 0.947 . S
C302 C359 1.392 . S
C303 C304 1.391 . S
C303 C307 1.397 . S
C303 C359 1.419 . S
C304 C300 1.391 . S
C304 C303 1.391 . S
C304 C305 1.399 . S
C305 C304 1.399 . S
C305 C308 1.396 . S
C305 C317 1.453 . S
C305 C318 1.684 . S
H306 C330 0.948 . S
C307 C303 1.397 . S
C307 C308 1.394 . S
C307 C326 1.723 . S
C308 C305 1.396 . S
C308 C307 1.394 . S
C308 C338 1.723 . S
H309 C332 0.947 . S
H310 C333 0.948 . S
H311 C339 0.982 . S
H312 C340 0.979 . S
H313 C340 0.980 . S
H314 C340 0.983 . S
H315 C339 0.979 . S
H316 C339 0.977 . S
C317 C305 1.453 . S
C317 H346 0.982 . S
C317 H347 0.979 . S
C317 H348 0.977 . S
C318 C305 1.684 . S
C318 H343 0.979 . S
C318 H344 0.980 . S
C318 H345 0.983 . S
C319 C320 1.391 . S
C319 C324 1.391 . S
C319 H349 0.948 . S
C320 C319 1.391 . S
C320 C321 1.391 . S
C321 C320 1.391 . S
C321 C322 1.392 . S
C321 H350 0.947 . S
C322 C321 1.392 . S
C322 C323 1.419 . S
C322 H351 0.948 . S
C323 C322 1.419 . S
C323 C324 1.391 . S
C323 C327 1.397 . S
C324 C319 1.391 . S
C324 C323 1.391 . S
C324 C325 1.399 . S
C325 C324 1.399 . S
C325 C326 1.396 . S
C325 C328 1.453 . S
C325 C329 1.684 . S
C326 C307 1.723 . S
C326 C325 1.396 . S
C326 C327 1.394 . S
C327 C323 1.397 . S
C327 C326 1.394 . S
C327 C337 1.723 . S
C328 C325 1.453 . S
C328 H352 0.982 . S
C328 H353 0.979 . S
C328 H354 0.977 . S
C329 C325 1.684 . S
C329 H355 0.979 . S
C329 H356 0.980 . S
C329 H357 0.983 . S
C330 H306 0.948 . S
C330 C331 1.391 . S
C330 C335 1.391 . S
C331 C330 1.391 . S
C331 C332 1.391 . S
C332 H309 0.947 . S
C332 C331 1.391 . S
C332 C333 1.392 . S
C333 H310 0.948 . S
C333 C332 1.392 . S
C333 C334 1.419 . S
C334 C333 1.419 . S
C334 C335 1.391 . S
C334 C338 1.397 . S
C335 C330 1.391 . S
C335 C334 1.391 . S
C335 C336 1.399 . S
C336 C335 1.399 . S
C336 C337 1.396 . S
C336 C339 1.453 . S
C336 C340 1.684 . S
C337 C327 1.723 . S
C337 C336 1.396 . S
C337 C338 1.394 . S
C338 C308 1.723 . S
C338 C334 1.397 . S
C338 C337 1.394 . S
C339 H311 0.982 . S
C339 H315 0.979 . S
C339 H316 0.977 . S
C339 C336 1.453 . S
C340 H312 0.979 . S
C340 H313 0.980 . S
C340 H314 0.983 . S
C340 C336 1.684 . S
H341 C359 0.948 . S
H342 C300 0.948 . S
H343 C318 0.979 . S
H344 C318 0.980 . S
H345 C318 0.983 . S
H346 C317 0.982 . S
H347 C317 0.979 . S
H348 C317 0.977 . S
H349 C319 0.948 . S
H350 C321 0.947 . S
H351 C322 0.948 . S
H352 C328 0.982 . S
H353 C328 0.979 . S
H354 C328 0.977 . S
H355 C329 0.979 . S
H356 C329 0.980 . S
H357 C329 0.983 . S
H358 C302 0.947 . S
C359 C302 1.392 . S
C359 C303 1.419 . S
C359 H341 0.948 . S
C360 C361 1.391 . S
C360 C364 1.391 . S
C360 H402 0.948 . S
C361 C360 1.391 . S
C361 C362 1.391 . S
C362 C361 1.391 . S
C362 H418 0.947 . S
C362 C419 1.392 . S
C363 C364 1.391 . S
C363 C367 1.397 . S
C363 C419 1.419 . S
C364 C360 1.391 . S
C364 C363 1.391 . S
C364 C365 1.399 . S
C365 C364 1.399 . S
C365 C368 1.396 . S
C365 C377 1.453 . S
C365 C378 1.684 . S
H366 C390 0.948 . S
C367 C363 1.397 . S
C367 C368 1.394 . S
C367 C386 1.723 . S
C368 C365 1.396 . S
C368 C367 1.394 . S
C368 C398 1.723 . S
H369 C392 0.947 . S
H370 C393 0.948 . S
H371 C399 0.982 . S
H372 C400 0.979 . S
H373 C400 0.980 . S
H374 C400 0.983 . S
H375 C399 0.979 . S
H376 C399 0.977 . S
C377 C365 1.453 . S
C377 H406 0.982 . S
C377 H407 0.979 . S
C377 H408 0.977 . S
C378 C365 1.684 . S
C378 H403 0.979 . S
C378 H404 0.980 . S
C378 H405 0.983 . S
C379 C380 1.391 . S
C379 C384 1.391 . S
C379 H409 0.948 . S
C380 C379 1.391 . S
C380 C381 1.391 . S
C381 C380 1.391 . S
C381 C382 1.392 . S
C381 H410 0.947 . S
C382 C381 1.392 . S
C382 C383 1.419 . S
C382 H411 0.948 . S
C383 C382 1.419 . S
C383 C384 1.391 . S
C383 C387 1.397 . S
C384 C379 1.391 . S
C384 C383 1.391 . S
C384 C385 1.399 . S
C385 C384 1.399 . S
C385 C386 1.396 . S
C385 C388 1.453 . S
C385 C389 1.684 . S
C386 C367 1.723 . S
C386 C385 1.396 . S
C386 C387 1.394 . S
C387 C383 1.397 . S
C387 C386 1.394 . S
C387 C397 1.723 . S
C388 C385 1.453 . S
C388 H412 0.982 . S
C388 H413 0.979 . S
C388 H414 0.977 . S
C389 C385 1.684 . S
C389 H415 0.979 . S
C389 H416 0.980 . S
C389 H417 0.983 . S
C390 H366 0.948 . S
C390 C391 1.391 . S
C390 C395 1.391 . S
C391 C390 1.391 . S
C391 C392 1.391 . S
C392 H369 0.947 . S
C392 C391 1.391 . S
C392 C393 1.392 . S
C393 H370 0.948 . S
C393 C392 1.392 . S
C393 C394 1.419 . S
C394 C393 1.419 . S
C394 C395 1.391 . S
C394 C398 1.397 . S
C395 C390 1.391 . S
C395 C394 1.391 . S
C395 C396 1.399 . S
C396 C395 1.399 . S
C396 C397 1.396 . S
C396 C399 1.453 . S
C396 C400 1.684 . S
C397 C387 1.723 . S
C397 C396 1.396 . S
C397 C398 1.394 . S
C398 C368 1.723 . S
C398 C394 1.397 . S
C398 C397 1.394 . S
C399 H371 0.982 . S
C399 H375 0.979 . S
C399 H376 0.977 . S
C399 C396 1.453 . S
C400 H372 0.979 . S
C400 H373 0.980 . S
C400 H374 0.983 . S
C400 C396 1.684 . S
H401 C419 0.948 . S
H402 C360 0.948 . S
H403 C378 0.979 . S
H404 C378 0.980 . S
H405 C378 0.983 . S
H406 C377 0.982 . S
H407 C377 0.979 . S
H408 C377 0.977 . S
H409 C379 0.948 . S
H410 C381 0.947 . S
H411 C382 0.948 . S
H412 C388 0.982 . S
H413 C388 0.979 . S
H414 C388 0.977 . S
H415 C389 0.979 . S
H416 C389 0.980 . S
H417 C389 0.983 . S
H418 C362 0.947 . S
C419 C362 1.392 . S
C419 C363 1.419 . S
C419 H401 0.948 . S
C420 C421 1.391 . S
C420 C424 1.391 . S
C420 H462 0.948 . S
C421 C420 1.391 . S
C421 C422 1.391 . S
C422 C421 1.391 . S
C422 H478 0.947 . S
C422 C479 1.392 . S
C423 C424 1.391 . S
C423 C427 1.397 . S
C423 C479 1.419 . S
C424 C420 1.391 . S
C424 C423 1.391 . S
C424 C425 1.399 . S
C425 C424 1.399 . S
C425 C428 1.396 . S
C425 C437 1.453 . S
C425 C438 1.684 . S
H426 C450 0.948 . S
C427 C423 1.397 . S
C427 C428 1.394 . S
C427 C446 1.723 . S
C428 C425 1.396 . S
C428 C427 1.394 . S
C428 C458 1.723 . S
H429 C452 0.947 . S
H430 C453 0.948 . S
H431 C459 0.982 . S
H432 C460 0.979 . S
H433 C460 0.980 . S
H434 C460 0.983 . S
H435 C459 0.979 . S
H436 C459 0.977 . S
C437 C425 1.453 . S
C437 H466 0.982 . S
C437 H467 0.979 . S
C437 H468 0.977 . S
C438 C425 1.684 . S
C438 H463 0.979 . S
C438 H464 0.980 . S
C438 H465 0.983 . S
C439 C440 1.391 . S
C439 C444 1.391 . S
C439 H469 0.948 . S
C440 C439 1.391 . S
C440 C441 1.391 . S
C441 C440 1.391 . S
C441 C442 1.392 . S
C441 H470 0.947 . S
C442 C441 1.392 . S
C442 C443 1.419 . S
C442 H471 0.948 . S
C443 C442 1.419 . S
C443 C444 1.391 . S
C443 C447 1.397 . S
C444 C439 1.391 . S
C444 C443 1.391 . S
C444 C445 1.399 . S
C445 C444 1.399 . S
C445 C446 1.396 . S
C445 C448 1.453 . S
C445 C449 1.684 . S
C446 C427 1.723 . S
C446 C445 1.396 . S
C446 C447 1.394 . S
C447 C443 1.397 . S
C447 C446 1.394 . S
C447 C457 1.723 . S
C448 C445 1.453 . S
C448 H472 0.982 . S
C448 H473 0.979 . S
C448 H474 0.977 . S
C449 C445 1.684 . S
C449 H475 0.979 . S
C449 H476 0.980 . S
C449 H477 0.983 . S
C450 H426 0.948 . S
C450 C451 1.391 . S
C450 C455 1.391 . S
C451 C450 1.391 . S
C451 C452 1.391 . S
C452 H429 0.947 . S
C452 C451 1.391 . S
C452 C453 1.392 . S
C453 H430 0.948 . S
C453 C452 1.392 . S
C453 C454 1.419 . S
C454 C453 1.419 . S
C454 C455 1.391 . S
C454 C458 1.397 . S
C455 C450 1.391 . S
C455 C454 1.391 . S
C455 C456 1.399 . S
C456 C455 1.399 . S
C456 C457 1.396 . S
C456 C459 1.453 . S
C456 C460 1.684 . S
C457 C447 1.723 . S
C457 C456 1.396 . S
C457 C458 1.394 . S
C458 C428 1.723 . S
C458 C454 1.397 . S
C458 C457 1.394 . S
C459 H431 0.982 . S
C459 H435 0.979 . S
C459 H436 0.977 . S
C459 C456 1.453 . S
C460 H432 0.979 . S
C460 H433 0.980 . S
C460 H434 0.983 . S
C460 C456 1.684 . S
H461 C479 0.948 . S
H462 C420 0.948 . S
H463 C438 0.979 . S
H464 C438 0.980 . S
H465 C438 0.983 . S
H466 C437 0.982 . S
H467 C437 0.979 . S
H468 C437 0.977 . S
H469 C439 0.948 . S
H470 C441 0.947 . S
H471 C442 0.948 . S
H472 C448 0.982 . S
H473 C448 0.979 . S
H474 C448 0.977 . S
H475 C449 0.979 . S
H476 C449 0.980 . S
H477 C449 0.983 . S
H478 C422 0.947 . S
C479 C422 1.392 . S
C479 C423 1.419 . S
C479 H461 0.948 . S
C480 C481 1.391 . S
C480 C484 1.391 . S
C480 H522 0.948 . S
C481 C480 1.391 . S
C481 C482 1.391 . S
C482 C481 1.391 . S
C482 H538 0.947 . S
C482 C539 1.392 . S
C483 C484 1.391 . S
C483 C487 1.397 . S
C483 C539 1.419 . S
C484 C480 1.391 . S
C484 C483 1.391 . S
C484 C485 1.399 . S
C485 C484 1.399 . S
C485 C488 1.396 . S
C485 C497 1.453 . S
C485 C498 1.684 . S
H486 C510 0.948 . S
C487 C483 1.397 . S
C487 C488 1.394 . S
C487 C506 1.723 . S
C488 C485 1.396 . S
C488 C487 1.394 . S
C488 C518 1.723 . S
H489 C512 0.947 . S
H490 C513 0.948 . S
H491 C519 0.982 . S
H492 C520 0.979 . S
H493 C520 0.980 . S
H494 C520 0.983 . S
H495 C519 0.979 . S
H496 C519 0.977 . S
C497 C485 1.453 . S
C497 H526 0.982 . S
C497 H527 0.979 . S
C497 H528 0.977 . S
C498 C485 1.684 . S
C498 H523 0.979 . S
C498 H524 0.980 . S
C498 H525 0.983 . S
C499 C500 1.391 . S
C499 C504 1.391 . S
C499 H529 0.948 . S
C500 C499 1.391 . S
C500 C501 1.391 . S
C501 C500 1.391 . S
C501 C502 1.392 . S
C501 H530 0.947 . S
C502 C501 1.392 . S
C502 C503 1.419 . S
C502 H531 0.948 . S
C503 C502 1.419 . S
C503 C504 1.391 . S
C503 C507 1.397 . S
C504 C499 1.391 . S
C504 C503 1.391 . S
C504 C505 1.399 . S
C505 C504 1.399 . S
C505 C506 1.396 . S
C505 C508 1.453 . S
C505 C509 1.684 . S
C506 C487 1.723 . S
C506 C505 1.396 . S
C506 C507 1.394 . S
C507 C503 1.397 . S
C507 C506 1.394 . S
C507 C517 1.723 . S
C508 C505 1.453 . S
C508 H532 0.982 . S
C508 H533 0.979 . S
C508 H534 0.977 . S
C509 C505 1.684 . S
C509 H535 0.979 . S
C509 H536 0.980 . S
C509 H537 0.983 . S
C510 H486 0.948 . S
C510 C511 1.391 . S
C510 C515 1.391 . S
C511 C510 1.391 . S
C511 C512 1.391 . S
C512 H489 0.947 . S
C512 C511 1.391 . S
C512 C513 1.392 . S
C513 H490 0.948 . S
C513 C512 1.392 . S
C513 C514 1.419 . S
C514 C513 1.419 . S
C514 C515 1.391 . S
C514 C518 1.397 . S
C515 C510 1.391 . S
C515 C514 1.391 . S
C515 C516 1.399 . S
C516 C515 1.399 . S
C516 C517 1.396 . S
C516 C519 1.453 . S
C516 C520 1.684 . S
C517 C507 1.723 . S
C517 C516 1.396 . S
C517 C518 1.394 . S
C518 C488 1.723 . S
C518 C514 1.397 . S
C518 C517 1.394 . S
C519 H491 0.982 . S
C519 H495 0.979 . S
C519 H496 0.977 . S
C519 C516 1.453 . S
C520 H492 0.979 . S
C520 H493 0.980 . S
C520 H494 0.983 . S
C520 C516 1.684 . S
H521 C539 0.948 . S
H522 C480 0.948 . S
H523 C498 0.979 . S
H524 C498 0.980 . S
H525 C498 0.983 . S
H526 C497 0.982 . S
H527 C497 0.979 . S
H528 C497 0.977 . S
H529 C499 0.948 . S
H530 C501 0.947 . S
H531 C502 0.948 . S
H532 C508 0.982 . S
H533 C508 0.979 . S
H534 C508 0.977 . S
H535 C509 0.979 . S
H536 C509 0.980 . S
H537 C509 0.983 . S
H538 C482 0.947 . S
C539 C482 1.392 . S
C539 C483 1.419 . S
C539 H521 0.948 . S
C540 C541 1.391 . S
C540 C544 1.391 . S
C540 H582 0.948 . S
C541 C540 1.391 . S
C541 C542 1.391 . S
C542 C541 1.391 . S
C542 H598 0.947 . S
C542 C599 1.392 . S
C543 C544 1.391 . S
C543 C547 1.397 . S
C543 C599 1.419 . S
C544 C540 1.391 . S
C544 C543 1.391 . S
C544 C545 1.399 . S
C545 C544 1.399 . S
C545 C548 1.396 . S
C545 C557 1.453 . S
C545 C558 1.684 . S
H546 C570 0.948 . S
C547 C543 1.397 . S
C547 C548 1.394 . S
C547 C566 1.723 . S
C548 C545 1.396 . S
C548 C547 1.394 . S
C548 C578 1.723 . S
H549 C572 0.947 . S
H550 C573 0.948 . S
H551 C579 0.982 . S
H552 C580 0.979 . S
H553 C580 0.980 . S
H554 C580 0.983 . S
H555 C579 0.979 . S
H556 C579 0.977 . S
C557 C545 1.453 . S
C557 H586 0.982 . S
C557 H587 0.979 . S
C557 H588 0.977 . S
C558 C545 1.684 . S
C558 H583 0.979 . S
C558 H584 0.980 . S
C558 H585 0.983 . S
C559 C560 1.391 . S
C559 C564 1.391 . S
C559 H589 0.948 . S
C560 C559 1.391 . S
C560 C561 1.391 . S
C561 C560 1.391 . S
C561 C562 1.392 . S
C561 H590 0.947 . S
C562 C561 1.392 . S
C562 C563 1.419 . S
C562 H591 0.948 . S
C563 C562 1.419 . S
C563 C564 1.391 . S
C563 C567 1.397 . S
C564 C559 1.391 . S
C564 C563 1.391 . S
C564 C565 1.399 . S
C565 C564 1.399 . S
C565 C566 1.396 . S
C565 C568 1.453 . S
C565 C569 1.684 . S
C566 C547 1.723 . S
C566 C565 1.396 . S
C566 C567 1.394 . S
C567 C563 1.397 . S
C567 C566 1.394 . S
C567 C577 1.723 . S
C568 C565 1.453 . S
C568 H592 0.982 . S
C568 H593 0.979 . S
C568 H594 0.977 . S
C569 C565 1.684 . S
C569 H595 0.979 . S
C569 H596 0.980 . S
C569 H597 0.983 . S
C570 H546 0.948 . S
C570 C571 1.391 . S
C570 C575 1.391 . S
C571 C570 1.391 . S
C571 C572 1.391 . S
C572 H549 0.947 . S
C572 C571 1.391 . S
C572 C573 1.392 . S
C573 H550 0.948 . S
C573 C572 1.392 . S
C573 C574 1.419 . S
C574 C573 1.419 . S
C574 C575 1.391 . S
C574 C578 1.397 . S
C575 C570 1.391 . S
C575 C574 1.391 . S
C575 C576 1.399 . S
C576 C575 1.399 . S
C576 C577 1.396 . S
C576 C579 1.453 . S
C576 C580 1.684 . S
C577 C567 1.723 . S
C577 C576 1.396 . S
C577 C578 1.394 . S
C578 C548 1.723 . S
C578 C574 1.397 . S
C578 C577 1.394 . S
C579 H551 0.982 . S
C579 H555 0.979 . S
C579 H556 0.977 . S
C579 C576 1.453 . S
C580 H552 0.979 . S
C580 H553 0.980 . S
C580 H554 0.983 . S
C580 C576 1.684 . S
H581 C599 0.948 . S
H582 C540 0.948 . S
H583 C558 0.979 . S
H584 C558 0.980 . S
H585 C558 0.983 . S
H586 C557 0.982 . S
H587 C557 0.979 . S
H588 C557 0.977 . S
H589 C559 0.948 . S
H590 C561 0.947 . S
H591 C562 0.948 . S
H592 C568 0.982 . S
H593 C568 0.979 . S
H594 C568 0.977 . S
H595 C569 0.979 . S
H596 C569 0.980 . S
H597 C569 0.983 . S
H598 C542 0.947 . S
C599 C542 1.392 . S
C599 C543 1.419 . S
C599 H581 0.948 . S
C600 C601 1.391 . S
C600 C604 1.391 . S
C600 H642 0.948 . S
C601 C600 1.391 . S
C601 C602 1.391 . S
C602 C601 1.391 . S
C602 H658 0.947 . S
C602 C659 1.392 . S
C603 C604 1.391 . S
C603 C607 1.397 . S
C603 C659 1.419 . S
C604 C600 1.391 . S
C604 C603 1.391 . S
C604 C605 1.399 . S
C605 C604 1.399 . S
C605 C608 1.396 . S
C605 C617 1.453 . S
C605 C618 1.684 . S
H606 C630 0.948 . S
C607 C603 1.397 . S
C607 C608 1.394 . S
C607 C626 1.723 . S
C608 C605 1.396 . S
C608 C607 1.394 . S
C608 C638 1.723 . S
H609 C632 0.947 . S
H610 C633 0.948 . S
H611 C639 0.982 . S
H612 C640 0.979 . S
H613 C640 0.980 . S
H614 C640 0.983 . S
H615 C639 0.979 . S
H616 C639 0.977 . S
C617 C605 1.453 . S
C617 H646 0.982 . S
C617 H647 0.979 . S
C617 H648 0.977 . S
C618 C605 1.684 . S
C618 H643 0.979 . S
C618 H644 0.980 . S
C618 H645 0.983 . S
C619 C620 1.391 . S
C619 C624 1.391 . S
C619 H649 0.948 . S
C620 C619 1.391 . S
C620 C621 1.391 . S
C621 C620 1.391 . S
C621 C622 1.392 . S
C621 H650 0.947 . S
C622 C621 1.392 . S
C622 C623 1.419 . S
C622 H651 0.948 . S
C623 C622 1.419 . S
C623 C624 1.391 . S
C623 C627 1.397 . S
C624 C619 1.391 . S
C624 C623 1.391 . S
C624 C625 1.399 . S
C625 C624 1.399 . S
C625 C626 1.396 . S
C625 C628 1.453 . S
C625 C629 1.684 . S
C626 C607 1.723 . S
C626 C625 1.396 . S
C626 C627 1.394 . S
C627 C623 1.397 . S
C627 C626 1.394 . S
C627 C637 1.723 . S
C628 C625 1.453 . S
C628 H652 0.982 . S
C628 H653 0.979 . S
C628 H654 0.977 . S
C629 C625 1.684 . S
C629 H655 0.979 . S
C629 H656 0.980 . S
C629 H657 0.983 . S
C630 H606 0.948 . S
C630 C631 1.391 . S
C630 C635 1.391 . S
C631 C630 1.391 . S
C631 C632 1.391 . S
C632 H609 0.947 . S
C632 C631 1.391 . S
C632 C633 1.392 . S
C633 H610 0.948 . S
C633 C632 1.392 . S
C633 C634 1.419 . S
C634 C633 1.419 . S
C634 C635 1.391 . S
C634 C638 1.397 . S
C635 C630 1.391 . S
C635 C634 1.391 . S
C635 C636 1.399 . S
C636 C635 1.399 . S
C636 C637 1.396 . S
C636 C639 1.453 . S
C636 C640 1.684 . S
C637 C627 1.723 . S
C637 C636 1.396 . S
C637 C638 1.394 . S
C638 C608 1.723 . S
C638 C634 1.397 . S
C638 C637 1.394 . S
C639 H611 0.982 . S
C639 H615 0.979 . S
C639 H616 0.977 . S
C639 C636 1.453 . S
C640 H612 0.979 . S
C640 H613 0.980 . S
C640 H614 0.983 . S
C640 C636 1.684 . S
H641 C659 0.948 . S
H642 C600 0.948 . S
H643 C618 0.979 . S
H644 C618 0.980 . S
H645 C618 0.983 . S
H646 C617 0.982 . S
H647 C617 0.979 . S
H648 C617 0.977 . S
H649 C619 0.948 . S
H650 C621 0.947 . S
H651 C622 0.948 . S
H652 C628 0.982 . S
H653 C628 0.979 . S
H654 C628 0.977 . S
H655 C629 0.979 . S
H656 C629 0.980 . S
H657 C629 0.983 . S
H658 C602 0.947 . S
C659 C602 1.392 . S
C659 C603 1.419 . S
C659 H641 0.948 . S
C660 C661 1.391 . S
C660 C664 1.391 . S
C660 H702 0.948 . S
C661 C660 1.391 . S
C661 C662 1.391 . S
C662 C661 1.391 . S
C662 H718 0.947 . S
C662 C719 1.392 . S
C663 C664 1.391 . S
C663 C667 1.397 . S
C663 C719 1.419 . S
C664 C660 1.391 . S
C664 C663 1.391 . S
C664 C665 1.399 . S
C665 C664 1.399 . S
C665 C668 1.396 . S
C665 C677 1.453 . S
C665 C678 1.684 . S
H666 C690 0.948 . S
C667 C663 1.397 . S
C667 C668 1.394 . S
C667 C686 1.723 . S
C668 C665 1.396 . S
C668 C667 1.394 . S
C668 C698 1.723 . S
H669 C692 0.947 . S
H670 C693 0.948 . S
H671 C699 0.982 . S
H672 C700 0.979 . S
H673 C700 0.980 . S
H674 C700 0.983 . S
H675 C699 0.979 . S
H676 C699 0.977 . S
C677 C665 1.453 . S
C677 H706 0.982 . S
C677 H707 0.979 . S
C677 H708 0.977 . S
C678 C665 1.684 . S
C678 H703 0.979 . S
C678 H704 0.980 . S
C678 H705 0.983 . S
C679 C680 1.391 . S
C679 C684 1.391 . S
C679 H709 0.948 . S
C680 C679 1.391 . S
C680 C681 1.391 . S
C681 C680 1.391 . S
C681 C682 1.392 . S
C681 H710 0.947 . S
C682 C681 1.392 . S
C682 C683 1.419 . S
C682 H711 0.948 . S
C683 C682 1.419 . S
C683 C684 1.391 . S
C683 C687 1.397 . S
C684 C679 1.391 . S
C684 C683 1.391 . S
C684 C685 1.399 . S
C685 C684 1.399 . S
C685 C686 1.396 . S
C685 C688 1.453 . S
C685 C689 1.684 . S
C686 C667 1.723 . S
C686 C685 1.396 . S
C686 C687 1.394 . S
C687 C683 1.397 . S
C687 C686 1.394 . S
C687 C697 1.723 . S
C688 C685 1.453 . S
C688 H712 0.982 . S
C688 H713 0.979 . S
C688 H714 0.977 . S
C689 C685 1.684 . S
C689 H715 0.979 . S
C689 H716 0.980 . S
C689 H717 0.983 . S
C690 H666 0.948 . S
C690 C691 1.391 . S
C690 C695 1.391 . S
C691 C690 1.391 . S
C691 C692 1.391 . S
C692 H669 0.947 . S
C692 C691 1.391 . S
C692 C693 1.392 . S
C693 H670 0.948 . S
C693 C692 1.392 . S
C693 C694 1.419 . S
C694 C693 1.419 . S
C694 C695 1.391 . S
C694 C698 1.397 . S
C695 C690 1.391 . S
C695 C694 1.391 . S
C695 C696 1.399 . S
C696 C695 1.399 . S
C696 C697 1.396 . S
C696 C699 1.453 . S
C696 C700 1.684 . S
C697 C687 1.723 . S
C697 C696 1.396 . S
C697 C698 1.394 . S
C698 C668 1.723 . S
C698 C694 1.397 . S
C698 C697 1.394 . S
C699 H671 0.982 . S
C699 H675 0.979 . S
C699 H676 0.977 . S
C699 C696 1.453 . S
C700 H672 0.979 . S
C700 H673 0.980 . S
C700 H674 0.983 . S
C700 C696 1.684 . S
H701 C719 0.948 . S
H702 C660 0.948 . S
H703 C678 0.979 . S
H704 C678 0.980 . S
H705 C678 0.983 . S
H706 C677 0.982 . S
H707 C677 0.979 . S
H708 C677 0.977 . S
H709 C679 0.948 . S
H710 C681 0.947 . S
H711 C682 0.948 . S
H712 C688 0.982 . S
H713 C688 0.979 . S
H714 C688 0.977 . S
H715 C689 0.979 . S
H716 C689 0.980 . S
H717 C689 0.983 . S
H718 C662 0.947 . S
C719 C662 1.392 . S
C719 C663 1.419 . S
C719 H701 0.948 . S
C720 C721 1.391 . S
C720 C724 1.391 . S
C720 H762 0.948 . S
C721 C720 1.391 . S
C721 C722 1.391 . S
C722 C721 1.391 . S
C722 H778 0.947 . S
C722 C779 1.392 . S
C723 C724 1.391 . S
C723 C727 1.397 . S
C723 C779 1.419 . S
C724 C720 1.391 . S
C724 C723 1.391 . S
C724 C725 1.399 . S
C725 C724 1.399 . S
C725 C728 1.396 . S
C725 C737 1.453 . S
C725 C738 1.684 . S
H726 C750 0.948 . S
C727 C723 1.397 . S
C727 C728 1.394 . S
C727 C746 1.723 . S
C728 C725 1.396 . S
C728 C727 1.394 . S
C728 C758 1.723 . S
H729 C752 0.947 . S
H730 C753 0.948 . S
H731 C759 0.982 . S
H732 C760 0.979 . S
H733 C760 0.980 . S
H734 C760 0.983 . S
H735 C759 0.979 . S
H736 C759 0.977 . S
C737 C725 1.453 . S
C737 H766 0.982 . S
C737 H767 0.979 . S
C737 H768 0.977 . S
C738 C725 1.684 . S
C738 H763 0.979 . S
C738 H764 0.980 . S
C738 H765 0.983 . S
C739 C740 1.391 . S
C739 C744 1.391 . S
C739 H769 0.948 . S
C740 C739 1.391 . S
C740 C741 1.391 . S
C741 C740 1.391 . S
C741 C742 1.392 . S
C741 H770 0.947 . S
C742 C741 1.392 . S
C742 C743 1.419 . S
C742 H771 0.948 . S
C743 C742 1.419 . S
C743 C744 1.391 . S
C743 C747 1.397 . S
C744 C739 1.391 . S
C744 C743 1.391 . S
C744 C745 1.399 . S
C745 C744 1.399 . S
C745 C746 1.396 . S
C745 C748 1.453 . S
C745 C749 1.684 . S
C746 C727 1.723 . S
C746 C745 1.396 . S
C746 C747 1.394 . S
C747 C743 1.397 . S
C747 C746 1.394 . S
C747 C757 1.723 . S
C748 C745 1.453 . S
C748 H772 0.982 . S
C748 H773 0.979 . S
C748 H774 0.977 . S
C749 C745 1.684 . S
C749 H775 0.979 . S
C749 H776 0.980 . S
C749 H777 0.983 . S
C750 H726 0.948 . S
C750 C751 1.391 . S
C750 C755 1.391 . S
C751 C750 1.391 . S
C751 C752 1.391 . S
C752 H729 0.947 . S
C752 C751 1.391 . S
C752 C753 1.392 . S
C753 H730 0.948 . S
C753 C752 1.392 . S
C753 C754 1.419 . S
C754 C753 1.419 . S
C754 C755 1.391 . S
C754 C758 1.397 . S
C755 C750 1.391 . S
C755 C754 1.391 . S
C755 C756 1.399 . S
C756 C755 1.399 . S
C756 C757 1.396 . S
C756 C759 1.453 . S
C756 C760 1.684 . S
C757 C747 1.723 . S
C757 C756 1.396 . S
C757 C758 1.394 . S
C758 C728 1.723 . S
C758 C754 1.397 . S
C758 C757 1.394 . S
C759 H731 0.982 . S
C759 H735 0.979 . S
C759 H736 0.977 . S
C759 C756 1.453 . S
C760 H732 0.979 . S
C760 H733 0.980 . S
C760 H734 0.983 . S
C760 C756 1.684 . S
H761 C779 0.948 . S
H762 C720 0.948 . S
H763 C738 0.979 . S
H764 C738 0.980 . S
H765 C738 0.983 . S
H766 C737 0.982 . S
H767 C737 0.979 . S
H768 C737 0.977 . S
H769 C739 0.948 . S
H770 C741 0.947 . S
H771 C742 0.948 . S
H772 C748 0.982 . S
H773 C748 0.979 . S
H774 C748 0.977 . S
H775 C749 0.979 . S
H776 C749 0.980 . S
H777 C749 0.983 . S
H778 C722 0.947 . S
C779 C722 1.392 . S
C779 C723 1.419 . S
C779 H761 0.948 . S
C780 C781 1.391 . S
C780 C784 1.391 . S
C780 H822 0.948 . S
C781 C780 1.391 . S
C781 C782 1.391 . S
C782 C781 1.391 . S
C782 H838 0.947 . S
C782 C839 1.392 . S
C783 C784 1.391 . S
C783 C787 1.397 . S
C783 C839 1.419 . S
C784 C780 1.391 . S
C784 C783 1.391 . S
C784 C785 1.399 . S
C785 C784 1.399 . S
C785 C788 1.396 . S
C785 C797 1.453 . S
C785 C798 1.684 . S
H786 C810 0.948 . S
C787 C783 1.397 . S
C787 C788 1.394 . S
C787 C806 1.723 . S
C788 C785 1.396 . S
C788 C787 1.394 . S
C788 C818 1.723 . S
H789 C812 0.947 . S
H790 C813 0.948 . S
H791 C819 0.982 . S
H792 C820 0.979 . S
H793 C820 0.980 . S
H794 C820 0.983 . S
H795 C819 0.979 . S
H796 C819 0.977 . S
C797 C785 1.453 . S
C797 H826 0.982 . S
C797 H827 0.979 . S
C797 H828 0.977 . S
C798 C785 1.684 . S
C798 H823 0.979 . S
C798 H824 0.980 . S
C798 H825 0.983 . S
C799 C800 1.391 . S
C799 C804 1.391 . S
C799 H829 0.948 . S
C800 C799 1.391 . S
C800 C801 1.391 . S
C801 C800 1.391 . S
C801 C802 1.392 . S
C801 H830 0.947 . S
C802 C801 1.392 . S
C802 C803 1.419 . S
C802 H831 0.948 . S
C803 C802 1.419 . S
C803 C804 1.391 . S
C803 C807 1.397 . S
C804 C799 1.391 . S
C804 C803 1.391 . S
C804 C805 1.399 . S
C805 C804 1.399 . S
C805 C806 1.396 . S
C805 C808 1.453 . S
C805 C809 1.684 . S
C806 C787 1.723 . S
C806 C805 1.396 . S
C806 C807 1.394 . S
C807 C803 1.397 . S
C807 C806 1.394 . S
C807 C817 1.723 . S
C808 C805 1.453 . S
C808 H832 0.982 . S
C808 H833 0.979 . S
C808 H834 0.977 . S
C809 C805 1.684 . S
C809 H835 0.979 . S
C809 H836 0.980 . S
C809 H837 0.983 . S
C810 H786 0.948 . S
C810 C811 1.391 . S
C810 C815 1.391 . S
C811 C810 1.391 . S
C811 C812 1.391 . S
C812 H789 0.947 . S
C812 C811 1.391 . S
C812 C813 1.392 . S
C813 H790 0.948 . S
C813 C812 1.392 . S
C813 C814 1.419 . S
C814 C813 1.419 . S
C814 C815 1.391 . S
C814 C818 1.397 . S
C815 C810 1.391 . S
C815 C814 1.391 . S
C815 C816 1.399 . S
C816 C815 1.399 . S
C816 C817 1.396 . S
C816 C819 1.453 . S
C816 C820 1.684 . S
C817 C807 1.723 . S
C817 C816 1.396 . S
C817 C818 1.394 . S
C818 C788 1.723 . S
C818 C814 1.397 . S
C818 C817 1.394 . S
C819 H791 0.982 . S
C819 H795 0.979 . S
C819 H796 0.977 . S
C819 C816 1.453 . S
C820 H792 0.979 . S
C820 H793 0.980 . S
C820 H794 0.983 . S
C820 C816 1.684 . S
H821 C839 0.948 . S
H822 C780 0.948 . S
H823 C798 0.979 . S
H824 C798 0.980 . S
H825 C798 0.983 . S
H826 C797 0.982 . S
H827 C797 0.979 . S
H828 C797 0.977 . S
H829 C799 0.948 . S
H830 C801 0.947 . S
H831 C802 0.948 . S
H832 C808 0.982 . S
H833 C808 0.979 . S
H834 C808 0.977 . S
H835 C809 0.979 . S
H836 C809 0.980 . S
H837 C809 0.983 . S
H838 C782 0.947 . S
C839 C782 1.392 . S
C839 C783 1.419 . S
C839 H821 0.948 . S
C840 C841 1.391 . S
C840 C844 1.391 . S
C840 H882 0.948 . S
C841 C840 1.391 . S
C841 C842 1.391 . S
C842 C841 1.391 . S
C842 H898 0.947 . S
C842 C899 1.392 . S
C843 C844 1.391 . S
C843 C847 1.397 . S
C843 C899 1.419 . S
C844 C840 1.391 . S
C844 C843 1.391 . S
C844 C845 1.399 . S
C845 C844 1.399 . S
C845 C848 1.396 . S
C845 C857 1.453 . S
C845 C858 1.684 . S
H846 C870 0.948 . S
C847 C843 1.397 . S
C847 C848 1.394 . S
C847 C866 1.723 . S
C848 C845 1.396 . S
C848 C847 1.394 . S
C848 C878 1.723 . S
H849 C872 0.947 . S
H850 C873 0.948 . S
H851 C879 0.982 . S
H852 C880 0.979 . S
H853 C880 0.980 . S
H854 C880 0.983 . S
H855 C879 0.979 . S
H856 C879 0.977 . S
C857 C845 1.453 . S
C857 H886 0.982 . S
C857 H887 0.979 . S
C857 H888 0.977 . S
C858 C845 1.684 . S
C858 H883 0.979 . S
C858 H884 0.980 . S
C858 H885 0.983 . S
C859 C860 1.391 . S
C859 C864 1.391 . S
C859 H889 0.948 . S
C860 C859 1.391 . S
C860 C861 1.391 . S
C861 C860 1.391 . S
C861 C862 1.392 . S
C861 H890 0.947 . S
C862 C861 1.392 . S
C862 C863 1.419 . S
C862 H891 0.948 . S
C863 C862 1.419 . S
C863 C864 1.391 . S
C863 C867 1.397 . S
C864 C859 1.391 . S
C864 C863 1.391 . S
C864 C865 1.399 . S
C865 C864 1.399 . S
C865 C866 1.396 . S
C865 C868 1.453 . S
C865 C869 1.684 . S
C866 C847 1.723 . S
C866 C865 1.396 . S
C866 C867 1.394 . S
C867 C863 1.397 . S
C867 C866 1.394 . S
C867 C877 1.723 . S
C868 C865 1.453 . S
C868 H892 0.982 . S
C868 H893 0.979 . S
C868 H894 0.977 . S
C869 C865 1.684 . S
C869 H895 0.979 . S
C869 H896 0.980 . S
C869 H897 0.983 . S
C870 H846 0.948 . S
C870 C871 1.391 . S
C870 C875 1.391 . S
C871 C870 1.391 . S
C871 C872 1.391 . S
C872 H849 0.947 . S
C872 C871 1.391 . S
C872 C873 1.392 . S
C873 H850 0.948 . S
C873 C872 1.392 . S
C873 C874 1.419 . S
C874 C873 1.419 . S
C874 C875 1.391 . S
C874 C878 1.397 . S
C875 C870 1.391 . S
C875 C874 1.391 . S
C875 C876 1.399 . S
C876 C875 1.399 . S
C876 C877 1.396 . S
C876 C879 1.453 . S
C876 C880 1.684 . S
C877 C867 1.723 . S
C877 C876 1.396 . S
C877 C878 1.394 . S
C878 C848 1.723 . S
C878 C874 1.397 . S
C878 C877 1.394 . S
C879 H851 0.982 . S
C879 H855 0.979 . S
C879 H856 0.977 . S
C879 C876 1.453 . S
C880 H852 0.979 . S
C880 H853 0.980 . S
C880 H854 0.983 . S
C880 C876 1.684 . S
H881 C899 0.948 . S
H882 C840 0.948 . S
H883 C858 0.979 . S
H884 C858 0.980 . S
H885 C858 0.983 . S
H886 C857 0.982 . S
H887 C857 0.979 . S
H888 C857 0.977 . S
H889 C859 0.948 . S
H890 C861 0.947 . S
H891 C862 0.948 . S
H892 C868 0.982 . S
H893 C868 0.979 . S
H894 C868 0.977 . S
H895 C869 0.979 . S
H896 C869 0.980 . S
H897 C869 0.983 . S
H898 C842 0.947 . S
C899 C842 1.392 . S
C899 C843 1.419 . S
C899 H881 0.948 . S
C900 C901 1.391 . S
C900 C904 1.391 . S
C900 H942 0.948 . S
C901 C900 1.391 . S
C901 C902 1.391 . S
C902 C901 1.391 . S
C902 H958 0.947 . S
C902 C959 1.392 . S
C903 C904 1.391 . S
C903 C907 1.397 . S
C903 C959 1.419 . S
C904 C900 1.391 . S
C904 C903 1.391 . S
C904 C905 1.399 . S
C905 C904 1.399 . S
C905 C908 1.396 . S
C905 C917 1.453 . S
C905 C918 1.684 . S
H906 C930 0.948 . S
C907 C903 1.397 . S
C907 C908 1.394 . S
C907 C926 1.723 . S
C908 C905 1.396 . S
C908 C907 1.394 . S
C908 C938 1.723 . S
H909 C932 0.947 1_554 S
H910 C933 0.948 . S
H911 C939 0.982 . S
H912 C940 0.979 . S
H913 C940 0.980 . S
H914 C940 0.983 . S
H915 C939 0.979 . S
H916 C939 0.977 . S
C917 C905 1.453 . S
C917 H946 0.982 . S
C917 H947 0.979 . S
C917 H948 0.977 . S
C918 C905 1.684 . S
C918 H943 0.987 . S
C918 H944 0.980 . S
C918 H945 0.961 1_556 S
C919 C920 1.391 . S
C919 C924 1.391 . S
C919 H949 0.948 . S
C920 C919 1.391 . S
C920 C921 1.391 . S
C921 C920 1.391 . S
C921 C922 1.392 . S
C921 H950 0.947 . S
C922 C921 1.392 . S
C922 C923 1.419 . S
C922 H951 0.948 . S
C923 C922 1.419 . S
C923 C924 1.391 . S
C923 C927 1.397 . S
C924 C919 1.391 . S
C924 C923 1.391 . S
C924 C925 1.399 . S
C925 C924 1.399 . S
C925 C926 1.396 . S
C925 C928 1.453 . S
C925 C929 1.684 . S
C926 C907 1.723 . S
C926 C925 1.396 . S
C926 C927 1.394 . S
C927 C923 1.397 . S
C927 C926 1.394 . S
C927 C937 1.723 . S
C928 C925 1.453 . S
C928 H952 0.982 . S
C928 H953 0.979 . S
C928 H954 0.977 . S
C929 C925 1.684 . S
C929 H955 0.979 . S
C929 H956 0.980 . S
C929 H957 0.983 . S
C930 H906 0.948 . S
C930 C931 1.391 . S
C930 C935 1.391 . S
C931 C930 1.391 . S
C931 C932 1.391 . S
C932 H909 0.947 1_556 S
C932 C931 1.391 . S
C932 C933 1.392 . S
C933 H910 0.948 . S
C933 C932 1.392 . S
C933 C934 1.419 . S
C934 C933 1.419 . S
C934 C935 1.391 . S
C934 C938 1.397 . S
C935 C930 1.391 . S
C935 C934 1.391 . S
C935 C936 1.399 . S
C936 C935 1.399 . S
C936 C937 1.396 . S
C936 C939 1.453 . S
C936 C940 1.684 . S
C937 C927 1.723 . S
C937 C936 1.396 . S
C937 C938 1.394 . S
C938 C908 1.723 . S
C938 C934 1.397 . S
C938 C937 1.394 . S
C939 H911 0.982 . S
C939 H915 0.979 . S
C939 H916 0.977 . S
C939 C936 1.453 . S
C940 H912 0.979 . S
C940 H913 0.980 . S
C940 H914 0.983 . S
C940 C936 1.684 . S
H941 C959 0.948 . S
H942 C900 0.948 . S
H943 C918 0.987 . S
H944 C918 0.980 . S
H945 C918 0.961 1_554 S
H946 C917 0.982 . S
H947 C917 0.979 . S
H948 C917 0.977 . S
H949 C919 0.948 . S
H950 C921 0.947 . S
H951 C922 0.948 . S
H952 C928 0.982 . S
H953 C928 0.979 . S
H954 C928 0.977 . S
H955 C929 0.979 . S
H956 C929 0.980 . S
H957 C929 0.983 . S
H958 C902 0.947 . S
C959 C902 1.392 . S
C959 C903 1.419 . S
C959 H941 0.948 . S
O960 Cd961 2.223 . S
O960 C968 1.315 . S
Cd961 O960 2.223 . S
Cd961 O964 2.297 . S
Cd961 O965 2.439 . S
Cd961 O971 2.240 . S
Cd962 O963 2.240 . S
Cd962 O970 2.223 . S
Cd962 O972 2.297 . S
Cd962 O973 2.439 . S
O963 Cd962 2.240 . S
O963 C968 1.279 . S
O964 Cd961 2.297 . S
O964 C966 1.247 . S
O965 Cd961 2.439 . S
O965 C966 1.208 . S
C966 O964 1.247 . S
C966 O965 1.208 . S
C967 O972 1.247 . S
C967 O973 1.208 . S
C968 O960 1.315 . S
C968 O963 1.279 . S
C969 O970 1.315 . S
C969 O971 1.279 . S
O970 Cd962 2.223 . S
O970 C969 1.315 . S
O971 Cd961 2.240 . S
O971 C969 1.279 . S
O972 Cd962 2.297 . S
O972 C967 1.247 . S
O973 Cd962 2.439 . S
O973 C967 1.208 . S
O974 Cd975 2.223 . S
O974 C982 1.315 . S
Cd975 O974 2.223 . S
Cd975 O978 2.297 . S
Cd975 O979 2.439 . S
Cd975 O985 2.240 . S
Cd976 O977 2.240 . S
Cd976 O984 2.223 . S
Cd976 O986 2.297 . S
Cd976 O987 2.439 . S
O977 Cd976 2.240 . S
O977 C982 1.279 . S
O978 Cd975 2.297 . S
O978 C980 1.247 . S
O979 Cd975 2.439 . S
O979 C980 1.208 . S
C980 O978 1.247 . S
C980 O979 1.208 . S
C981 O986 1.247 . S
C981 O987 1.208 . S
C982 O974 1.315 . S
C982 O977 1.279 . S
C983 O984 1.315 . S
C983 O985 1.279 . S
O984 Cd976 2.223 . S
O984 C983 1.315 . S
O985 Cd975 2.240 . S
O985 C983 1.279 . S
O986 Cd976 2.297 . S
O986 C981 1.247 . S
O987 Cd976 2.439 . S
O987 C981 1.208 . S
O988 Cd989 2.223 1_556 S
O988 C996 1.315 . S
Cd989 O988 2.223 1_554 S
Cd989 O992 2.297 . S
Cd989 O993 2.439 . S
Cd989 O999 2.240 . S
Cd990 O991 2.240 . S
Cd990 O998 2.223 . S
Cd990 O1000 2.297 1_556 S
Cd990 O1001 2.439 1_556 S
O991 Cd990 2.240 . S
O991 C996 1.279 . S
O992 Cd989 2.297 . S
O992 C994 1.247 . S
O993 Cd989 2.439 . S
O993 C994 1.208 . S
C994 O992 1.247 . S
C994 O993 1.208 . S
C995 O1000 1.247 . S
C995 O1001 1.208 . S
C996 O988 1.315 . S
C996 O991 1.279 . S
C997 O998 1.315 . S
C997 O999 1.279 1_556 S
O998 Cd990 2.223 . S
O998 C997 1.315 . S
O999 Cd989 2.240 . S
O999 C997 1.279 1_554 S
O1000 Cd990 2.297 1_554 S
O1000 C995 1.247 . S
O1001 Cd990 2.439 1_554 S
O1001 C995 1.208 . S
O1002 Cd1003 2.223 . S
O1002 C1010 1.315 . S
Cd1003 O1002 2.223 . S
Cd1003 O1006 2.297 . S
Cd1003 O1007 2.439 . S
Cd1003 O1013 2.240 . S
Cd1004 O1005 2.240 . S
Cd1004 O1012 2.223 . S
Cd1004 O1014 2.297 . S
Cd1004 O1015 2.439 . S
O1005 Cd1004 2.240 . S
O1005 C1010 1.279 . S
O1006 Cd1003 2.297 . S
O1006 C1008 1.247 . S
O1007 Cd1003 2.439 . S
O1007 C1008 1.208 . S
C1008 O1006 1.247 . S
C1008 O1007 1.208 . S
C1009 O1014 1.247 . S
C1009 O1015 1.208 . S
C1010 O1002 1.315 . S
C1010 O1005 1.279 . S
C1011 O1012 1.315 . S
C1011 O1013 1.279 . S
O1012 Cd1004 2.223 . S
O1012 C1011 1.315 . S
O1013 Cd1003 2.240 . S
O1013 C1011 1.279 . S
O1014 Cd1004 2.297 . S
O1014 C1009 1.247 . S
O1015 Cd1004 2.439 . S
O1015 C1009 1.208 . S
O1016 Cd1017 2.223 . S
O1016 C1024 1.315 . S
Cd1017 O1016 2.223 . S
Cd1017 O1020 2.297 . S
Cd1017 O1021 2.439 . S
Cd1017 O1027 2.240 . S
Cd1018 O1019 2.240 . S
Cd1018 O1026 2.223 . S
Cd1018 O1028 2.297 . S
Cd1018 O1029 2.439 . S
O1019 Cd1018 2.240 . S
O1019 C1024 1.279 . S
O1020 Cd1017 2.297 . S
O1020 C1022 1.247 . S
O1021 Cd1017 2.439 . S
O1021 C1022 1.208 . S
C1022 O1020 1.247 . S
C1022 O1021 1.208 . S
C1023 O1028 1.247 . S
C1023 O1029 1.208 . S
C1024 O1016 1.315 . S
C1024 O1019 1.279 . S
C1025 O1026 1.315 . S
C1025 O1027 1.279 . S
O1026 Cd1018 2.223 . S
O1026 C1025 1.315 . S
O1027 Cd1017 2.240 . S
O1027 C1025 1.279 . S
O1028 Cd1018 2.297 . S
O1028 C1023 1.247 . S
O1029 Cd1018 2.439 . S
O1029 C1023 1.208 . S
O1030 Cd1031 2.223 . S
O1030 C1038 1.315 . S
Cd1031 O1030 2.223 . S
Cd1031 O1034 2.297 . S
Cd1031 O1035 2.439 . S
Cd1031 O1041 2.240 . S
Cd1032 O1033 2.240 . S
Cd1032 O1040 2.223 . S
Cd1032 O1042 2.297 . S
Cd1032 O1043 2.439 . S
O1033 Cd1032 2.240 . S
O1033 C1038 1.279 . S
O1034 Cd1031 2.297 . S
O1034 C1036 1.247 . S
O1035 Cd1031 2.439 . S
O1035 C1036 1.208 . S
C1036 O1034 1.247 . S
C1036 O1035 1.208 . S
C1037 O1042 1.247 . S
C1037 O1043 1.208 . S
C1038 O1030 1.315 . S
C1038 O1033 1.279 . S
C1039 O1040 1.315 . S
C1039 O1041 1.279 . S
O1040 Cd1032 2.223 . S
O1040 C1039 1.315 . S
O1041 Cd1031 2.240 . S
O1041 C1039 1.279 . S
O1042 Cd1032 2.297 . S
O1042 C1037 1.247 . S
O1043 Cd1032 2.439 . S
O1043 C1037 1.208 . S
O1044 Cd1045 2.223 . S
O1044 C1052 1.315 . S
Cd1045 O1044 2.223 . S
Cd1045 O1048 2.297 . S
Cd1045 O1049 2.439 . S
Cd1045 O1055 2.240 . S
Cd1046 O1047 2.240 . S
Cd1046 O1054 2.223 . S
Cd1046 O1056 2.297 . S
Cd1046 O1057 2.439 . S
O1047 Cd1046 2.240 . S
O1047 C1052 1.279 . S
O1048 Cd1045 2.297 . S
O1048 C1050 1.247 . S
O1049 Cd1045 2.439 . S
O1049 C1050 1.208 . S
C1050 O1048 1.247 . S
C1050 O1049 1.208 . S
C1051 O1056 1.247 . S
C1051 O1057 1.208 . S
C1052 O1044 1.315 . S
C1052 O1047 1.279 . S
C1053 O1054 1.315 . S
C1053 O1055 1.279 . S
O1054 Cd1046 2.223 . S
O1054 C1053 1.315 . S
O1055 Cd1045 2.240 . S
O1055 C1053 1.279 . S
O1056 Cd1046 2.297 . S
O1056 C1051 1.247 . S
O1057 Cd1046 2.439 . S
O1057 C1051 1.208 . S
O1058 Cd1059 2.223 1_545 S
O1058 C1066 1.315 . S
Cd1059 O1058 2.223 1_565 S
Cd1059 O1062 2.297 . S
Cd1059 O1063 2.439 . S
Cd1059 O1069 2.240 1_565 S
Cd1060 O1061 2.240 . S
Cd1060 O1068 2.223 . S
Cd1060 O1070 2.297 . S
Cd1060 O1071 2.439 1_545 S
O1061 Cd1060 2.240 . S
O1061 C1066 1.279 . S
O1062 Cd1059 2.297 . S
O1062 C1064 1.247 . S
O1063 Cd1059 2.439 . S
O1063 C1064 1.208 . S
C1064 O1062 1.247 . S
C1064 O1063 1.208 . S
C1065 O1070 1.247 1_565 S
C1065 O1071 1.208 . S
C1066 O1058 1.315 . S
C1066 O1061 1.279 . S
C1067 O1068 1.315 . S
C1067 O1069 1.279 . S
O1068 Cd1060 2.223 . S
O1068 C1067 1.315 . S
O1069 Cd1059 2.240 1_545 S
O1069 C1067 1.279 . S
O1070 Cd1060 2.297 . S
O1070 C1065 1.247 1_545 S
O1071 Cd1060 2.439 1_565 S
O1071 C1065 1.208 . S
O1072 Cd1073 2.223 . S
O1072 C1080 1.315 . S
Cd1073 O1072 2.223 . S
Cd1073 O1076 2.297 1_655 S
Cd1073 O1077 2.439 1_655 S
Cd1073 O1083 2.240 . S
Cd1074 O1075 2.240 . S
Cd1074 O1082 2.223 1_455 S
Cd1074 O1084 2.297 . S
Cd1074 O1085 2.439 . S
O1075 Cd1074 2.240 . S
O1075 C1080 1.279 1_455 S
O1076 Cd1073 2.297 1_455 S
O1076 C1078 1.247 . S
O1077 Cd1073 2.439 1_455 S
O1077 C1078 1.208 . S
C1078 O1076 1.247 . S
C1078 O1077 1.208 . S
C1079 O1084 1.247 . S
C1079 O1085 1.208 . S
C1080 O1072 1.315 . S
C1080 O1075 1.279 1_655 S
C1081 O1082 1.315 . S
C1081 O1083 1.279 . S
O1082 Cd1074 2.223 1_655 S
O1082 C1081 1.315 . S
O1083 Cd1073 2.240 . S
O1083 C1081 1.279 . S
O1084 Cd1074 2.297 . S
O1084 C1079 1.247 . S
O1085 Cd1074 2.439 . S
O1085 C1079 1.208 . S
O1086 Cd1087 2.223 . S
O1086 C1094 1.315 . S
Cd1087 O1086 2.223 . S
Cd1087 O1090 2.297 . S
Cd1087 O1091 2.439 . S
Cd1087 O1097 2.240 . S
Cd1088 O1089 2.240 . S
Cd1088 O1096 2.223 . S
Cd1088 O1098 2.297 . S
Cd1088 O1099 2.439 . S
O1089 Cd1088 2.240 . S
O1089 C1094 1.279 . S
O1090 Cd1087 2.297 . S
O1090 C1092 1.247 . S
O1091 Cd1087 2.439 . S
O1091 C1092 1.208 . S
C1092 O1090 1.247 . S
C1092 O1091 1.208 . S
C1093 O1098 1.247 . S
C1093 O1099 1.208 . S
C1094 O1086 1.315 . S
C1094 O1089 1.279 . S
C1095 O1096 1.315 . S
C1095 O1097 1.279 . S
O1096 Cd1088 2.223 . S
O1096 C1095 1.315 . S
O1097 Cd1087 2.240 . S
O1097 C1095 1.279 . S
O1098 Cd1088 2.297 . S
O1098 C1093 1.247 . S
O1099 Cd1088 2.439 . S
O1099 C1093 1.208 . S
O1100 Cd1101 2.223 1_655 S
O1100 C1108 1.315 . S
Cd1101 O1100 2.223 1_455 S
Cd1101 O1104 2.297 . S
Cd1101 O1105 2.439 . S
Cd1101 O1111 2.240 . S
Cd1102 O1103 2.240 . S
Cd1102 O1110 2.223 . S
Cd1102 O1112 2.297 1_655 S
Cd1102 O1113 2.439 1_655 S
O1103 Cd1102 2.240 . S
O1103 C1108 1.279 . S
O1104 Cd1101 2.297 . S
O1104 C1106 1.247 . S
O1105 Cd1101 2.439 . S
O1105 C1106 1.208 . S
C1106 O1104 1.247 . S
C1106 O1105 1.208 . S
C1107 O1112 1.247 . S
C1107 O1113 1.208 . S
C1108 O1100 1.315 . S
C1108 O1103 1.279 . S
C1109 O1110 1.315 . S
C1109 O1111 1.279 1_655 S
O1110 Cd1102 2.223 . S
O1110 C1109 1.315 . S
O1111 Cd1101 2.240 . S
O1111 C1109 1.279 1_455 S
O1112 Cd1102 2.297 1_455 S
O1112 C1107 1.247 . S
O1113 Cd1102 2.439 1_455 S
O1113 C1107 1.208 . S
O1114 Cd1115 2.223 . S
O1114 C1122 1.315 . S
Cd1115 O1114 2.223 . S
Cd1115 O1118 2.297 . S
Cd1115 O1119 2.439 . S
Cd1115 O1125 2.240 . S
Cd1116 O1117 2.240 . S
Cd1116 O1124 2.223 . S
Cd1116 O1126 2.297 . S
Cd1116 O1127 2.439 . S
O1117 Cd1116 2.240 . S
O1117 C1122 1.279 . S
O1118 Cd1115 2.297 . S
O1118 C1120 1.247 . S
O1119 Cd1115 2.439 . S
O1119 C1120 1.208 . S
C1120 O1118 1.247 . S
C1120 O1119 1.208 . S
C1121 O1126 1.247 . S
C1121 O1127 1.208 . S
C1122 O1114 1.315 . S
C1122 O1117 1.279 . S
C1123 O1124 1.315 . S
C1123 O1125 1.279 . S
O1124 Cd1116 2.223 . S
O1124 C1123 1.315 . S
O1125 Cd1115 2.240 . S
O1125 C1123 1.279 . S
O1126 Cd1116 2.297 . S
O1126 C1121 1.247 . S
O1127 Cd1116 2.439 . S
O1127 C1121 1.208 . S
H1128 C1140 0.930 . S
H1129 C1142 0.930 . S
H1130 C1143 0.930 . S
H1131 C1147 0.959 . S
H1132 C1147 0.959 . S
H1133 C1147 0.961 . S
H1134 C1148 0.960 . S
H1135 C1148 0.961 . S
H1136 C1148 0.959 . S
H1137 C1151 0.929 . S
H1138 C1152 0.931 . S
H1139 C1154 0.892 1_554 S
C1140 H1128 0.930 . S
C1140 C1141 1.399 . S
C1140 C1145 1.399 . S
C1141 C1140 1.399 . S
C1141 C1142 1.376 . S
C1142 H1129 0.930 . S
C1142 C1141 1.376 . S
C1142 C1143 1.388 . S
C1143 H1130 0.930 . S
C1143 C1142 1.388 . S
C1143 C1144 1.390 . S
C1144 C1143 1.390 . S
C1144 C1145 1.394 . S
C1144 C1150 1.465 . S
C1145 C1140 1.399 . S
C1145 C1144 1.394 . S
C1145 C1146 1.516 . S
C1146 C1145 1.516 . S
C1146 C1147 1.502 . S
C1146 C1148 1.561 . S
C1146 C1149 1.526 . S
C1147 H1131 0.959 . S
C1147 H1132 0.959 . S
C1147 H1133 0.961 . S
C1147 C1146 1.502 . S
C1148 H1134 0.960 . S
C1148 H1135 0.961 . S
C1148 H1136 0.959 . S
C1148 C1146 1.561 . S
C1149 C1146 1.526 . S
C1149 C1150 1.396 . S
C1149 C1154 1.390 . S
C1150 C1144 1.465 . S
C1150 C1149 1.396 . S
C1150 C1151 1.399 . S
C1151 H1137 0.929 . S
C1151 C1150 1.399 . S
C1151 C1152 1.385 . S
C1152 H1138 0.931 . S
C1152 C1151 1.385 . S
C1152 C1153 1.389 . S
C1153 C1152 1.389 . S
C1153 C1154 1.387 . S
C1154 H1139 0.892 1_556 S
C1154 C1149 1.390 . S
C1154 C1153 1.387 . S
H1155 C1167 0.930 . S
H1156 C1169 0.930 . S
H1157 C1170 0.930 . S
H1158 C1174 0.959 . S
H1159 C1174 0.959 . S
H1160 C1174 0.961 . S
H1161 C1175 0.960 1_655 S
H1162 C1175 0.961 . S
H1163 C1175 0.959 . S
H1164 C1178 0.929 . S
H1165 C1179 0.931 . S
H1166 C1181 0.930 . S
C1167 H1155 0.930 . S
C1167 C1168 1.399 . S
C1167 C1172 1.399 1_655 S
C1168 C1167 1.399 . S
C1168 C1169 1.376 . S
C1169 H1156 0.930 . S
C1169 C1168 1.376 . S
C1169 C1170 1.388 1_655 S
C1170 H1157 0.930 . S
C1170 C1169 1.388 1_455 S
C1170 C1171 1.390 . S
C1171 C1170 1.390 . S
C1171 C1172 1.394 . S
C1171 C1177 1.465 . S
C1172 C1167 1.399 1_455 S
C1172 C1171 1.394 . S
C1172 C1173 1.516 . S
C1173 C1172 1.516 . S
C1173 C1174 1.502 . S
C1173 C1175 1.561 . S
C1173 C1176 1.526 . S
C1174 H1158 0.959 . S
C1174 H1159 0.959 . S
C1174 H1160 0.961 . S
C1174 C1173 1.502 . S
C1175 H1161 0.960 1_455 S
C1175 H1162 0.961 . S
C1175 H1163 0.959 . S
C1175 C1173 1.561 . S
C1176 C1173 1.526 . S
C1176 C1177 1.396 . S
C1176 C1181 1.390 . S
C1177 C1171 1.465 . S
C1177 C1176 1.396 . S
C1177 C1178 1.399 . S
C1178 H1164 0.929 . S
C1178 C1177 1.399 . S
C1178 C1179 1.385 . S
C1179 H1165 0.931 . S
C1179 C1178 1.385 . S
C1179 C1180 1.389 . S
C1180 C1179 1.389 . S
C1180 C1181 1.387 . S
C1181 H1166 0.930 . S
C1181 C1176 1.390 . S
C1181 C1180 1.387 . S
H1182 C1194 0.930 . S
H1183 C1196 0.930 . S
H1184 C1197 0.930 . S
H1185 C1201 0.959 . S
H1186 C1201 0.959 . S
H1187 C1201 0.961 . S
H1188 C1202 0.960 . S
H1189 C1202 0.961 . S
H1190 C1202 0.959 . S
H1191 C1205 0.929 . S
H1192 C1206 0.931 . S
H1193 C1208 0.930 . S
C1194 H1182 0.930 . S
C1194 C1195 1.399 . S
C1194 C1199 1.399 . S
C1195 C1194 1.399 . S
C1195 C1196 1.376 . S
C1196 H1183 0.930 . S
C1196 C1195 1.376 . S
C1196 C1197 1.388 . S
C1197 H1184 0.930 . S
C1197 C1196 1.388 . S
C1197 C1198 1.390 . S
C1198 C1197 1.390 . S
C1198 C1199 1.394 . S
C1198 C1204 1.465 . S
C1199 C1194 1.399 . S
C1199 C1198 1.394 . S
C1199 C1200 1.516 . S
C1200 C1199 1.516 . S
C1200 C1201 1.502 . S
C1200 C1202 1.561 . S
C1200 C1203 1.526 . S
C1201 H1185 0.959 . S
C1201 H1186 0.959 . S
C1201 H1187 0.961 . S
C1201 C1200 1.502 . S
C1202 H1188 0.960 . S
C1202 H1189 0.961 . S
C1202 H1190 0.959 . S
C1202 C1200 1.561 . S
C1203 C1200 1.526 . S
C1203 C1204 1.396 . S
C1203 C1208 1.390 . S
C1204 C1198 1.465 . S
C1204 C1203 1.396 . S
C1204 C1205 1.399 . S
C1205 H1191 0.929 . S
C1205 C1204 1.399 . S
C1205 C1206 1.385 . S
C1206 H1192 0.931 . S
C1206 C1205 1.385 . S
C1206 C1207 1.389 . S
C1207 C1206 1.389 . S
C1207 C1208 1.387 . S
C1208 H1193 0.930 . S
C1208 C1203 1.390 . S
C1208 C1207 1.387 . S
H1209 C1221 0.930 . S
H1210 C1223 0.930 . S
H1211 C1224 0.930 . S
H1212 C1228 0.959 . S
H1213 C1228 0.959 . S
H1214 C1228 0.961 1_455 S
H1215 C1229 0.960 . S
H1216 C1229 0.961 . S
H1217 C1229 0.959 . S
H1218 C1232 0.929 . S
H1219 C1233 0.931 . S
H1220 C1235 0.930 . S
C1221 H1209 0.930 . S
C1221 C1222 1.399 . S
C1221 C1226 1.399 1_455 S
C1222 C1221 1.399 . S
C1222 C1223 1.376 1_455 S
C1223 H1210 0.930 . S
C1223 C1222 1.376 1_655 S
C1223 C1224 1.388 . S
C1224 H1211 0.930 . S
C1224 C1223 1.388 . S
C1224 C1225 1.390 . S
C1225 C1224 1.390 . S
C1225 C1226 1.394 . S
C1225 C1231 1.465 1_565 S
C1226 C1221 1.399 1_655 S
C1226 C1225 1.394 . S
C1226 C1227 1.516 . S
C1227 C1226 1.516 . S
C1227 C1228 1.502 1_565 S
C1227 C1229 1.561 . S
C1227 C1230 1.526 1_565 S
C1228 H1212 0.959 . S
C1228 H1213 0.959 . S
C1228 H1214 0.961 1_655 S
C1228 C1227 1.502 1_545 S
C1229 H1215 0.960 . S
C1229 H1216 0.961 . S
C1229 H1217 0.959 . S
C1229 C1227 1.561 . S
C1230 C1227 1.526 1_545 S
C1230 C1231 1.396 . S
C1230 C1235 1.390 . S
C1231 C1225 1.465 1_545 S
C1231 C1230 1.396 . S
C1231 C1232 1.399 . S
C1232 H1218 0.929 . S
C1232 C1231 1.399 . S
C1232 C1233 1.385 . S
C1233 H1219 0.931 . S
C1233 C1232 1.385 . S
C1233 C1234 1.389 . S
C1234 C1233 1.389 . S
C1234 C1235 1.387 . S
C1235 H1220 0.930 . S
C1235 C1230 1.390 . S
C1235 C1234 1.387 . S
H1236 C1248 0.930 . S
H1237 C1250 0.930 . S
H1238 C1251 0.930 . S
H1239 C1255 0.959 . S
H1240 C1255 0.959 . S
H1241 C1255 0.961 . S
H1242 C1256 0.960 . S
H1243 C1256 0.961 . S
H1244 C1256 0.959 . S
H1245 C1259 0.929 . S
H1246 C1260 0.931 . S
H1247 C1262 0.930 . S
C1248 H1236 0.930 . S
C1248 C1249 1.399 . S
C1248 C1253 1.399 . S
C1249 C1248 1.399 . S
C1249 C1250 1.376 . S
C1250 H1237 0.930 . S
C1250 C1249 1.376 . S
C1250 C1251 1.388 . S
C1251 H1238 0.930 . S
C1251 C1250 1.388 . S
C1251 C1252 1.390 . S
C1252 C1251 1.390 . S
C1252 C1253 1.394 . S
C1252 C1258 1.465 . S
C1253 C1248 1.399 . S
C1253 C1252 1.394 . S
C1253 C1254 1.516 . S
C1254 C1253 1.516 . S
C1254 C1255 1.502 . S
C1254 C1256 1.561 . S
C1254 C1257 1.526 . S
C1255 H1239 0.959 . S
C1255 H1240 0.959 . S
C1255 H1241 0.961 . S
C1255 C1254 1.502 . S
C1256 H1242 0.960 . S
C1256 H1243 0.961 . S
C1256 H1244 0.959 . S
C1256 C1254 1.561 . S
C1257 C1254 1.526 . S
C1257 C1258 1.396 . S
C1257 C1262 1.390 . S
C1258 C1252 1.465 . S
C1258 C1257 1.396 . S
C1258 C1259 1.399 . S
C1259 H1245 0.929 . S
C1259 C1258 1.399 . S
C1259 C1260 1.385 . S
C1260 H1246 0.931 . S
C1260 C1259 1.385 . S
C1260 C1261 1.389 . S
C1261 C1260 1.389 . S
C1261 C1262 1.387 . S
C1262 H1247 0.930 . S
C1262 C1257 1.390 . S
C1262 C1261 1.387 . S
H1263 C1275 0.930 . S
H1264 C1277 0.930 . S
H1265 C1278 0.930 . S
H1266 C1282 0.959 . S
H1267 C1282 0.959 . S
H1268 C1282 0.961 . S
H1269 C1283 0.960 . S
H1270 C1283 0.961 . S
H1271 C1283 0.959 . S
H1272 C1286 0.929 . S
H1273 C1287 0.931 . S
H1274 C1289 0.930 . S
C1275 H1263 0.930 . S
C1275 C1276 1.399 . S
C1275 C1280 1.399 . S
C1276 C1275 1.399 . S
C1276 C1277 1.376 . S
C1277 H1264 0.930 . S
C1277 C1276 1.376 . S
C1277 C1278 1.388 . S
C1278 H1265 0.930 . S
C1278 C1277 1.388 . S
C1278 C1279 1.390 . S
C1279 C1278 1.390 . S
C1279 C1280 1.394 . S
C1279 C1285 1.465 . S
C1280 C1275 1.399 . S
C1280 C1279 1.394 . S
C1280 C1281 1.516 . S
C1281 C1280 1.516 . S
C1281 C1282 1.502 . S
C1281 C1283 1.561 . S
C1281 C1284 1.526 . S
C1282 H1266 0.959 . S
C1282 H1267 0.959 . S
C1282 H1268 0.961 . S
C1282 C1281 1.502 . S
C1283 H1269 0.960 . S
C1283 H1270 0.961 . S
C1283 H1271 0.959 . S
C1283 C1281 1.561 . S
C1284 C1281 1.526 . S
C1284 C1285 1.396 . S
C1284 C1289 1.390 . S
C1285 C1279 1.465 . S
C1285 C1284 1.396 . S
C1285 C1286 1.399 . S
C1286 H1272 0.929 . S
C1286 C1285 1.399 . S
C1286 C1287 1.385 . S
C1287 H1273 0.931 . S
C1287 C1286 1.385 . S
C1287 C1288 1.389 . S
C1288 C1287 1.389 . S
C1288 C1289 1.387 . S
C1289 H1274 0.930 . S
C1289 C1284 1.390 . S
C1289 C1288 1.387 . S
H1290 C1302 0.930 . S
H1291 C1304 0.930 . S
H1292 C1305 0.930 . S
H1293 C1309 0.959 . S
H1294 C1309 0.959 . S
H1295 C1309 0.961 . S
H1296 C1310 0.960 . S
H1297 C1310 0.961 . S
H1298 C1310 0.959 . S
H1299 C1313 0.929 . S
H1300 C1314 0.931 . S
H1301 C1316 0.930 . S
C1302 H1290 0.930 . S
C1302 C1303 1.399 . S
C1302 C1307 1.399 . S
C1303 C1302 1.399 . S
C1303 C1304 1.376 . S
C1304 H1291 0.930 . S
C1304 C1303 1.376 . S
C1304 C1305 1.388 . S
C1305 H1292 0.930 . S
C1305 C1304 1.388 . S
C1305 C1306 1.390 . S
C1306 C1305 1.390 . S
C1306 C1307 1.394 . S
C1306 C1312 1.465 . S
C1307 C1302 1.399 . S
C1307 C1306 1.394 . S
C1307 C1308 1.516 . S
C1308 C1307 1.516 . S
C1308 C1309 1.502 . S
C1308 C1310 1.561 . S
C1308 C1311 1.526 . S
C1309 H1293 0.959 . S
C1309 H1294 0.959 . S
C1309 H1295 0.961 . S
C1309 C1308 1.502 . S
C1310 H1296 0.960 . S
C1310 H1297 0.961 . S
C1310 H1298 0.959 . S
C1310 C1308 1.561 . S
C1311 C1308 1.526 . S
C1311 C1312 1.396 . S
C1311 C1316 1.390 . S
C1312 C1306 1.465 . S
C1312 C1311 1.396 . S
C1312 C1313 1.399 . S
C1313 H1299 0.929 . S
C1313 C1312 1.399 . S
C1313 C1314 1.385 . S
C1314 H1300 0.931 . S
C1314 C1313 1.385 . S
C1314 C1315 1.389 . S
C1315 C1314 1.389 . S
C1315 C1316 1.387 . S
C1316 H1301 0.930 . S
C1316 C1311 1.390 . S
C1316 C1315 1.387 . S
H1317 C1329 0.930 . S
H1318 C1331 0.930 . S
H1319 C1332 0.930 . S
H1320 C1336 0.959 . S
H1321 C1336 0.959 . S
H1322 C1336 0.961 . S
H1323 C1337 0.960 . S
H1324 C1337 0.961 . S
H1325 C1337 0.959 . S
H1326 C1340 0.929 . S
H1327 C1341 0.931 . S
H1328 C1343 0.930 . S
C1329 H1317 0.930 . S
C1329 C1330 1.399 . S
C1329 C1334 1.399 . S
C1330 C1329 1.399 . S
C1330 C1331 1.376 . S
C1331 H1318 0.930 . S
C1331 C1330 1.376 . S
C1331 C1332 1.388 . S
C1332 H1319 0.930 . S
C1332 C1331 1.388 . S
C1332 C1333 1.390 . S
C1333 C1332 1.390 . S
C1333 C1334 1.394 . S
C1333 C1339 1.465 . S
C1334 C1329 1.399 . S
C1334 C1333 1.394 . S
C1334 C1335 1.516 . S
C1335 C1334 1.516 . S
C1335 C1336 1.502 . S
C1335 C1337 1.561 . S
C1335 C1338 1.526 . S
C1336 H1320 0.959 . S
C1336 H1321 0.959 . S
C1336 H1322 0.961 . S
C1336 C1335 1.502 . S
C1337 H1323 0.960 . S
C1337 H1324 0.961 . S
C1337 H1325 0.959 . S
C1337 C1335 1.561 . S
C1338 C1335 1.526 . S
C1338 C1339 1.396 . S
C1338 C1343 1.390 . S
C1339 C1333 1.465 . S
C1339 C1338 1.396 . S
C1339 C1340 1.399 . S
C1340 H1326 0.929 . S
C1340 C1339 1.399 . S
C1340 C1341 1.385 . S
C1341 H1327 0.931 . S
C1341 C1340 1.385 . S
C1341 C1342 1.389 . S
C1342 C1341 1.389 . S
C1342 C1343 1.387 . S
C1343 H1328 0.930 . S
C1343 C1338 1.390 . S
C1343 C1342 1.387 . S
H1344 C1356 0.930 . S
H1345 C1358 0.930 . S
H1346 C1359 0.930 . S
H1347 C1363 0.959 . S
H1348 C1363 0.959 . S
H1349 C1363 0.961 . S
H1350 C1364 0.960 . S
H1351 C1364 0.961 . S
H1352 C1364 0.959 . S
H1353 C1367 0.929 . S
H1354 C1368 0.931 . S
H1355 C1370 0.930 . S
C1356 H1344 0.930 . S
C1356 C1357 1.399 . S
C1356 C1361 1.399 . S
C1357 C1356 1.399 . S
C1357 C1358 1.376 . S
C1358 H1345 0.930 . S
C1358 C1357 1.376 . S
C1358 C1359 1.388 . S
C1359 H1346 0.930 . S
C1359 C1358 1.388 . S
C1359 C1360 1.390 . S
C1360 C1359 1.390 . S
C1360 C1361 1.394 . S
C1360 C1366 1.465 . S
C1361 C1356 1.399 . S
C1361 C1360 1.394 . S
C1361 C1362 1.516 . S
C1362 C1361 1.516 . S
C1362 C1363 1.502 . S
C1362 C1364 1.561 . S
C1362 C1365 1.526 . S
C1363 H1347 0.959 . S
C1363 H1348 0.959 . S
C1363 H1349 0.961 . S
C1363 C1362 1.502 . S
C1364 H1350 0.960 . S
C1364 H1351 0.961 . S
C1364 H1352 0.959 . S
C1364 C1362 1.561 . S
C1365 C1362 1.526 . S
C1365 C1366 1.396 . S
C1365 C1370 1.390 . S
C1366 C1360 1.465 . S
C1366 C1365 1.396 . S
C1366 C1367 1.399 . S
C1367 H1353 0.929 . S
C1367 C1366 1.399 . S
C1367 C1368 1.385 . S
C1368 H1354 0.931 . S
C1368 C1367 1.385 . S
C1368 C1369 1.389 . S
C1369 C1368 1.389 . S
C1369 C1370 1.387 . S
C1370 H1355 0.930 . S
C1370 C1365 1.390 . S
C1370 C1369 1.387 . S
H1371 C1383 0.930 . S
H1372 C1385 0.930 . S
H1373 C1386 0.930 . S
H1374 C1390 0.959 . S
H1375 C1390 0.959 . S
H1376 C1390 0.961 . S
H1377 C1391 0.960 . S
H1378 C1391 0.961 . S
H1379 C1391 0.959 . S
H1380 C1394 0.929 . S
H1381 C1395 0.931 . S
H1382 C1397 0.930 . S
C1383 H1371 0.930 . S
C1383 C1384 1.399 . S
C1383 C1388 1.399 . S
C1384 C1383 1.399 . S
C1384 C1385 1.376 . S
C1385 H1372 0.930 . S
C1385 C1384 1.376 . S
C1385 C1386 1.388 . S
C1386 H1373 0.930 . S
C1386 C1385 1.388 . S
C1386 C1387 1.390 . S
C1387 C1386 1.390 . S
C1387 C1388 1.394 . S
C1387 C1393 1.465 . S
C1388 C1383 1.399 . S
C1388 C1387 1.394 . S
C1388 C1389 1.516 . S
C1389 C1388 1.516 . S
C1389 C1390 1.502 . S
C1389 C1391 1.561 . S
C1389 C1392 1.526 . S
C1390 H1374 0.959 . S
C1390 H1375 0.959 . S
C1390 H1376 0.961 . S
C1390 C1389 1.502 . S
C1391 H1377 0.960 . S
C1391 H1378 0.961 . S
C1391 H1379 0.959 . S
C1391 C1389 1.561 . S
C1392 C1389 1.526 . S
C1392 C1393 1.396 . S
C1392 C1397 1.390 . S
C1393 C1387 1.465 . S
C1393 C1392 1.396 . S
C1393 C1394 1.399 . S
C1394 H1380 0.929 . S
C1394 C1393 1.399 . S
C1394 C1395 1.385 . S
C1395 H1381 0.931 . S
C1395 C1394 1.385 . S
C1395 C1396 1.389 . S
C1396 C1395 1.389 . S
C1396 C1397 1.387 . S
C1397 H1382 0.930 . S
C1397 C1392 1.390 . S
C1397 C1396 1.387 . S
H1398 C1410 0.930 . S
H1399 C1412 0.930 . S
H1400 C1413 0.930 . S
H1401 C1417 0.959 . S
H1402 C1417 0.959 . S
H1403 C1417 0.961 . S
H1404 C1418 0.960 . S
H1405 C1418 0.961 . S
H1406 C1418 0.959 . S
H1407 C1421 0.929 . S
H1408 C1422 0.931 . S
H1409 C1424 0.930 . S
C1410 H1398 0.930 . S
C1410 C1411 1.399 . S
C1410 C1415 1.399 . S
C1411 C1410 1.399 . S
C1411 C1412 1.376 . S
C1412 H1399 0.930 . S
C1412 C1411 1.376 . S
C1412 C1413 1.388 . S
C1413 H1400 0.930 . S
C1413 C1412 1.388 . S
C1413 C1414 1.390 . S
C1414 C1413 1.390 . S
C1414 C1415 1.394 . S
C1414 C1420 1.465 . S
C1415 C1410 1.399 . S
C1415 C1414 1.394 . S
C1415 C1416 1.516 . S
C1416 C1415 1.516 . S
C1416 C1417 1.502 . S
C1416 C1418 1.561 . S
C1416 C1419 1.526 . S
C1417 H1401 0.959 . S
C1417 H1402 0.959 . S
C1417 H1403 0.961 . S
C1417 C1416 1.502 . S
C1418 H1404 0.960 . S
C1418 H1405 0.961 . S
C1418 H1406 0.959 . S
C1418 C1416 1.561 . S
C1419 C1416 1.526 . S
C1419 C1420 1.396 . S
C1419 C1424 1.390 . S
C1420 C1414 1.465 . S
C1420 C1419 1.396 . S
C1420 C1421 1.399 . S
C1421 H1407 0.929 . S
C1421 C1420 1.399 . S
C1421 C1422 1.385 . S
C1422 H1408 0.931 . S
C1422 C1421 1.385 . S
C1422 C1423 1.389 . S
C1423 C1422 1.389 . S
C1423 C1424 1.387 . S
C1424 H1409 0.930 . S
C1424 C1419 1.390 . S
C1424 C1423 1.387 . S
H1425 C1437 0.930 . S
H1426 C1439 0.930 . S
H1427 C1440 0.930 . S
H1428 C1444 0.959 . S
H1429 C1444 0.959 . S
H1430 C1444 0.961 . S
H1431 C1445 0.960 . S
H1432 C1445 0.961 . S
H1433 C1445 0.959 . S
H1434 C1448 0.929 . S
H1435 C1449 0.931 . S
H1436 C1451 0.930 . S
C1437 H1425 0.930 . S
C1437 C1438 1.399 . S
C1437 C1442 1.399 . S
C1438 C1437 1.399 . S
C1438 C1439 1.376 . S
C1439 H1426 0.930 . S
C1439 C1438 1.376 . S
C1439 C1440 1.388 . S
C1440 H1427 0.930 . S
C1440 C1439 1.388 . S
C1440 C1441 1.390 . S
C1441 C1440 1.390 . S
C1441 C1442 1.394 . S
C1441 C1447 1.465 . S
C1442 C1437 1.399 . S
C1442 C1441 1.394 . S
C1442 C1443 1.516 . S
C1443 C1442 1.516 . S
C1443 C1444 1.502 . S
C1443 C1445 1.561 . S
C1443 C1446 1.526 . S
C1444 H1428 0.959 . S
C1444 H1429 0.959 . S
C1444 H1430 0.961 . S
C1444 C1443 1.502 . S
C1445 H1431 0.960 . S
C1445 H1432 0.961 . S
C1445 H1433 0.959 . S
C1445 C1443 1.561 . S
C1446 C1443 1.526 . S
C1446 C1447 1.396 . S
C1446 C1451 1.390 . S
C1447 C1441 1.465 . S
C1447 C1446 1.396 . S
C1447 C1448 1.399 . S
C1448 H1434 0.929 . S
C1448 C1447 1.399 . S
C1448 C1449 1.385 . S
C1449 H1435 0.931 . S
C1449 C1448 1.385 . S
C1449 C1450 1.389 . S
C1450 C1449 1.389 . S
C1450 C1451 1.387 . S
C1451 H1436 0.930 . S
C1451 C1446 1.390 . S
C1451 C1450 1.387 . S
H1452 C1464 0.930 . S
H1453 C1466 0.930 . S
H1454 C1467 0.930 . S
H1455 C1471 0.959 . S
H1456 C1471 0.959 . S
H1457 C1471 0.961 . S
H1458 C1472 0.960 . S
H1459 C1472 0.961 . S
H1460 C1472 0.959 . S
H1461 C1475 0.929 . S
H1462 C1476 0.931 . S
H1463 C1478 0.930 . S
C1464 H1452 0.930 . S
C1464 C1465 1.399 . S
C1464 C1469 1.399 . S
C1465 C1464 1.399 . S
C1465 C1466 1.376 . S
C1466 H1453 0.930 . S
C1466 C1465 1.376 . S
C1466 C1467 1.388 . S
C1467 H1454 0.930 . S
C1467 C1466 1.388 . S
C1467 C1468 1.390 . S
C1468 C1467 1.390 . S
C1468 C1469 1.394 . S
C1468 C1474 1.465 . S
C1469 C1464 1.399 . S
C1469 C1468 1.394 . S
C1469 C1470 1.516 . S
C1470 C1469 1.516 . S
C1470 C1471 1.502 . S
C1470 C1472 1.561 . S
C1470 C1473 1.526 . S
C1471 H1455 0.959 . S
C1471 H1456 0.959 . S
C1471 H1457 0.961 . S
C1471 C1470 1.502 . S
C1472 H1458 0.960 . S
C1472 H1459 0.961 . S
C1472 H1460 0.959 . S
C1472 C1470 1.561 . S
C1473 C1470 1.526 . S
C1473 C1474 1.396 . S
C1473 C1478 1.390 . S
C1474 C1468 1.465 . S
C1474 C1473 1.396 . S
C1474 C1475 1.399 . S
C1475 H1461 0.929 . S
C1475 C1474 1.399 . S
C1475 C1476 1.385 . S
C1476 H1462 0.931 . S
C1476 C1475 1.385 . S
C1476 C1477 1.389 . S
C1477 C1476 1.389 . S
C1477 C1478 1.387 . S
C1478 H1463 0.930 . S
C1478 C1473 1.390 . S
C1478 C1477 1.387 . S
H1479 C1491 0.930 . S
H1480 C1493 0.930 . S
H1481 C1494 0.930 . S
H1482 C1498 0.959 . S
H1483 C1498 0.959 . S
H1484 C1498 0.961 . S
H1485 C1499 0.960 . S
H1486 C1499 0.961 . S
H1487 C1499 0.959 . S
H1488 C1502 0.929 . S
H1489 C1503 0.931 . S
H1490 C1505 0.930 . S
C1491 H1479 0.930 . S
C1491 C1492 1.399 . S
C1491 C1496 1.399 . S
C1492 C1491 1.399 . S
C1492 C1493 1.376 . S
C1493 H1480 0.930 . S
C1493 C1492 1.376 . S
C1493 C1494 1.388 . S
C1494 H1481 0.930 . S
C1494 C1493 1.388 . S
C1494 C1495 1.390 . S
C1495 C1494 1.390 . S
C1495 C1496 1.394 . S
C1495 C1501 1.465 . S
C1496 C1491 1.399 . S
C1496 C1495 1.394 . S
C1496 C1497 1.516 . S
C1497 C1496 1.516 . S
C1497 C1498 1.502 . S
C1497 C1499 1.561 . S
C1497 C1500 1.526 . S
C1498 H1482 0.959 . S
C1498 H1483 0.959 . S
C1498 H1484 0.961 . S
C1498 C1497 1.502 . S
C1499 H1485 0.960 . S
C1499 H1486 0.961 . S
C1499 H1487 0.959 . S
C1499 C1497 1.561 . S
C1500 C1497 1.526 . S
C1500 C1501 1.396 . S
C1500 C1505 1.390 . S
C1501 C1495 1.465 . S
C1501 C1500 1.396 . S
C1501 C1502 1.399 . S
C1502 H1488 0.929 . S
C1502 C1501 1.399 . S
C1502 C1503 1.385 . S
C1503 H1489 0.931 . S
C1503 C1502 1.385 . S
C1503 C1504 1.389 . S
C1504 C1503 1.389 . S
C1504 C1505 1.387 . S
C1505 H1490 0.930 . S
C1505 C1500 1.390 . S
C1505 C1504 1.387 . S
H1506 C1518 0.930 . S
H1507 C1520 0.930 . S
H1508 C1521 0.930 . S
H1509 C1525 0.959 . S
H1510 C1525 0.959 . S
H1511 C1525 0.961 . S
H1512 C1526 0.960 . S
H1513 C1526 0.961 . S
H1514 C1526 0.959 . S
H1515 C1529 0.929 . S
H1516 C1530 0.931 . S
H1517 C1532 0.930 . S
C1518 H1506 0.930 . S
C1518 C1519 1.399 . S
C1518 C1523 1.399 . S
C1519 C1518 1.399 . S
C1519 C1520 1.376 . S
C1520 H1507 0.930 . S
C1520 C1519 1.376 . S
C1520 C1521 1.388 . S
C1521 H1508 0.930 . S
C1521 C1520 1.388 . S
C1521 C1522 1.390 . S
C1522 C1521 1.390 . S
C1522 C1523 1.394 . S
C1522 C1528 1.465 . S
C1523 C1518 1.399 . S
C1523 C1522 1.394 . S
C1523 C1524 1.516 . S
C1524 C1523 1.516 . S
C1524 C1525 1.502 . S
C1524 C1526 1.561 . S
C1524 C1527 1.526 . S
C1525 H1509 0.959 . S
C1525 H1510 0.959 . S
C1525 H1511 0.961 . S
C1525 C1524 1.502 . S
C1526 H1512 0.960 . S
C1526 H1513 0.961 . S
C1526 H1514 0.959 . S
C1526 C1524 1.561 . S
C1527 C1524 1.526 . S
C1527 C1528 1.396 . S
C1527 C1532 1.390 . S
C1528 C1522 1.465 . S
C1528 C1527 1.396 . S
C1528 C1529 1.399 . S
C1529 H1515 0.929 . S
C1529 C1528 1.399 . S
C1529 C1530 1.385 . S
C1530 H1516 0.931 . S
C1530 C1529 1.385 . S
C1530 C1531 1.389 . S
C1531 C1530 1.389 . S
C1531 C1532 1.387 . S
C1532 H1517 0.930 . S
C1532 C1527 1.390 . S
C1532 C1531 1.387 . S
H1533 C1545 0.930 . S
H1534 C1547 0.930 . S
H1535 C1548 0.930 . S
H1536 C1552 0.959 . S
H1537 C1552 0.959 1_455 S
H1538 C1552 0.961 1_455 S
H1539 C1553 0.955 1_455 S
H1540 C1553 0.944 1_455 S
H1541 C1553 0.970 . S
H1542 C1556 0.929 . S
H1543 C1557 0.931 . S
H1544 C1559 0.930 1_455 S
C1545 H1533 0.930 . S
C1545 C1546 1.399 . S
C1545 C1550 1.399 . S
C1546 C1545 1.399 . S
C1546 C1547 1.376 . S
C1547 H1534 0.930 . S
C1547 C1546 1.376 . S
C1547 C1548 1.388 . S
C1548 H1535 0.930 . S
C1548 C1547 1.388 . S
C1548 C1549 1.390 . S
C1549 C1548 1.390 . S
C1549 C1550 1.394 . S
C1549 C1555 1.465 . S
C1550 C1545 1.399 . S
C1550 C1549 1.394 . S
C1550 C1551 1.516 . S
C1551 C1550 1.516 . S
C1551 C1552 1.502 . S
C1551 C1553 1.572 . S
C1551 C1554 1.526 . S
C1552 H1536 0.959 . S
C1552 H1537 0.959 1_655 S
C1552 H1538 0.961 1_655 S
C1552 C1551 1.502 . S
C1553 H1539 0.955 1_655 S
C1553 H1540 0.944 1_655 S
C1553 H1541 0.970 . S
C1553 C1551 1.572 . S
C1554 C1551 1.526 . S
C1554 C1555 1.396 . S
C1554 C1559 1.390 . S
C1555 C1549 1.465 . S
C1555 C1554 1.396 . S
C1555 C1556 1.399 . S
C1556 H1542 0.929 . S
C1556 C1555 1.399 . S
C1556 C1557 1.385 . S
C1557 H1543 0.931 . S
C1557 C1556 1.385 . S
C1557 C1558 1.389 . S
C1558 C1557 1.389 . S
C1558 C1559 1.387 . S
C1559 H1544 0.930 1_655 S
C1559 C1554 1.390 . S
C1559 C1558 1.387 . S
H1560 C1572 0.930 . S
H1561 C1574 0.930 . S
H1562 C1575 0.930 . S
H1563 C1579 0.959 . S
H1564 C1579 0.959 . S
H1565 C1579 0.961 . S
H1566 C1580 0.960 . S
H1567 C1580 0.961 . S
H1568 C1580 0.959 . S
H1569 C1583 0.929 . S
H1570 C1584 0.931 . S
H1571 C1586 0.930 . S
C1572 H1560 0.930 . S
C1572 C1573 1.399 . S
C1572 C1577 1.399 . S
C1573 C1572 1.399 . S
C1573 C1574 1.376 . S
C1574 H1561 0.930 . S
C1574 C1573 1.376 . S
C1574 C1575 1.388 . S
C1575 H1562 0.930 . S
C1575 C1574 1.388 . S
C1575 C1576 1.390 . S
C1576 C1575 1.390 . S
C1576 C1577 1.394 . S
C1576 C1582 1.465 . S
C1577 C1572 1.399 . S
C1577 C1576 1.394 . S
C1577 C1578 1.516 . S
C1578 C1577 1.516 . S
C1578 C1579 1.502 . S
C1578 C1580 1.561 . S
C1578 C1581 1.526 . S
C1579 H1563 0.959 . S
C1579 H1564 0.959 . S
C1579 H1565 0.961 . S
C1579 C1578 1.502 . S
C1580 H1566 0.960 . S
C1580 H1567 0.961 . S
C1580 H1568 0.959 . S
C1580 C1578 1.561 . S
C1581 C1578 1.526 . S
C1581 C1582 1.396 . S
C1581 C1586 1.390 . S
C1582 C1576 1.465 . S
C1582 C1581 1.396 . S
C1582 C1583 1.399 . S
C1583 H1569 0.929 . S
C1583 C1582 1.399 . S
C1583 C1584 1.385 1_565 S
C1584 H1570 0.931 . S
C1584 C1583 1.385 1_545 S
C1584 C1585 1.389 . S
C1585 C1584 1.389 . S
C1585 C1586 1.387 1_545 S
C1586 H1571 0.930 . S
C1586 C1581 1.390 . S
C1586 C1585 1.387 1_565 S
H1587 C1599 0.930 . S
H1588 C1601 0.930 . S
H1589 C1602 0.930 . S
H1590 C1606 0.959 . S
H1591 C1606 0.959 . S
H1592 C1606 0.961 . S
H1593 C1607 0.960 . S
H1594 C1607 0.961 . S
H1595 C1607 0.959 . S
H1596 C1610 0.929 . S
H1597 C1611 0.931 . S
H1598 C1613 0.930 . S
C1599 H1587 0.930 . S
C1599 C1600 1.399 . S
C1599 C1604 1.399 . S
C1600 C1599 1.399 . S
C1600 C1601 1.376 . S
C1601 H1588 0.930 . S
C1601 C1600 1.376 . S
C1601 C1602 1.388 . S
C1602 H1589 0.930 . S
C1602 C1601 1.388 . S
C1602 C1603 1.390 . S
C1603 C1602 1.390 . S
C1603 C1604 1.394 . S
C1603 C1609 1.465 . S
C1604 C1599 1.399 . S
C1604 C1603 1.394 . S
C1604 C1605 1.516 . S
C1605 C1604 1.516 . S
C1605 C1606 1.502 . S
C1605 C1607 1.561 . S
C1605 C1608 1.526 . S
C1606 H1590 0.959 . S
C1606 H1591 0.959 . S
C1606 H1592 0.961 . S
C1606 C1605 1.502 . S
C1607 H1593 0.960 . S
C1607 H1594 0.961 . S
C1607 H1595 0.959 . S
C1607 C1605 1.561 . S
C1608 C1605 1.526 . S
C1608 C1609 1.396 . S
C1608 C1613 1.390 . S
C1609 C1603 1.465 . S
C1609 C1608 1.396 . S
C1609 C1610 1.399 . S
C1610 H1596 0.929 . S
C1610 C1609 1.399 . S
C1610 C1611 1.385 . S
C1611 H1597 0.931 . S
C1611 C1610 1.385 . S
C1611 C1612 1.389 . S
C1612 C1611 1.389 . S
C1612 C1613 1.387 . S
C1613 H1598 0.930 . S
C1613 C1608 1.390 . S
C1613 C1612 1.387 . S
H1614 C1626 0.930 . S
H1615 C1628 0.930 . S
H1616 C1629 0.930 . S
H1617 C1633 0.959 1_556 S
H1618 C1633 0.959 . S
H1619 C1633 0.961 . S
H1620 C1634 0.960 . S
H1621 C1634 0.961 1_565 S
H1622 C1634 0.959 . S
H1623 C1637 0.929 . S
H1624 C1638 0.936 . S
H1625 C1640 0.930 . S
C1626 H1614 0.930 . S
C1626 C1627 1.399 . S
C1626 C1631 1.399 . S
C1627 C1626 1.399 . S
C1627 C1628 1.376 . S
C1628 H1615 0.930 . S
C1628 C1627 1.376 . S
C1628 C1629 1.388 . S
C1629 H1616 0.930 . S
C1629 C1628 1.388 . S
C1629 C1630 1.390 . S
C1630 C1629 1.390 . S
C1630 C1631 1.394 . S
C1630 C1636 1.465 1_545 S
C1631 C1626 1.399 . S
C1631 C1630 1.394 . S
C1631 C1632 1.516 1_546 S
C1632 C1631 1.516 1_564 S
C1632 C1633 1.502 . S
C1632 C1634 1.561 1_565 S
C1632 C1635 1.526 . S
C1633 H1617 0.959 1_554 S
C1633 H1618 0.959 . S
C1633 H1619 0.961 . S
C1633 C1632 1.502 . S
C1634 H1620 0.960 . S
C1634 H1621 0.961 1_545 S
C1634 H1622 0.959 . S
C1634 C1632 1.561 1_545 S
C1635 C1632 1.526 . S
C1635 C1636 1.396 1_554 S
C1635 C1640 1.390 . S
C1636 C1630 1.465 1_565 S
C1636 C1635 1.396 1_556 S
C1636 C1637 1.399 . S
C1637 H1623 0.929 . S
C1637 C1636 1.399 . S
C1637 C1638 1.409 . S
C1638 H1624 0.936 . S
C1638 C1637 1.409 . S
C1638 C1639 1.362 1_556 S
C1639 C1638 1.362 1_554 S
C1639 C1640 1.387 . S
C1640 H1625 0.930 . S
C1640 C1635 1.390 . S
C1640 C1639 1.387 . S
H1641 C1653 0.930 . S
H1642 C1655 0.930 . S
H1643 C1656 0.930 . S
H1644 C1660 0.959 . S
H1645 C1660 0.959 . S
H1646 C1660 0.961 . S
H1647 C1661 0.960 . S
H1648 C1661 0.961 . S
H1649 C1661 0.959 . S
H1650 C1664 0.929 . S
H1651 C1665 0.931 . S
H1652 C1667 0.930 . S
C1653 H1641 0.930 . S
C1653 C1654 1.399 . S
C1653 C1658 1.399 . S
C1654 C1653 1.399 . S
C1654 C1655 1.376 . S
C1655 H1642 0.930 . S
C1655 C1654 1.376 . S
C1655 C1656 1.388 . S
C1656 H1643 0.930 . S
C1656 C1655 1.388 . S
C1656 C1657 1.390 . S
C1657 C1656 1.390 . S
C1657 C1658 1.394 . S
C1657 C1663 1.465 . S
C1658 C1653 1.399 . S
C1658 C1657 1.394 . S
C1658 C1659 1.516 . S
C1659 C1658 1.516 . S
C1659 C1660 1.502 . S
C1659 C1661 1.561 . S
C1659 C1662 1.526 . S
C1660 H1644 0.959 . S
C1660 H1645 0.959 . S
C1660 H1646 0.961 . S
C1660 C1659 1.502 . S
C1661 H1647 0.960 . S
C1661 H1648 0.961 . S
C1661 H1649 0.959 . S
C1661 C1659 1.561 . S
C1662 C1659 1.526 . S
C1662 C1663 1.396 . S
C1662 C1667 1.390 . S
C1663 C1657 1.465 . S
C1663 C1662 1.396 . S
C1663 C1664 1.399 . S
C1664 H1650 0.929 . S
C1664 C1663 1.399 . S
C1664 C1665 1.385 . S
C1665 H1651 0.931 . S
C1665 C1664 1.385 . S
C1665 C1666 1.389 . S
C1666 C1665 1.389 . S
C1666 C1667 1.387 . S
C1667 H1652 0.930 . S
C1667 C1662 1.390 . S
C1667 C1666 1.387 . S
H1668 C1680 0.930 . S
H1669 C1682 0.930 . S
H1670 C1683 0.930 . S
H1671 C1687 0.959 . S
H1672 C1687 0.959 . S
H1673 C1687 0.961 . S
H1674 C1688 0.960 . S
H1675 C1688 0.961 . S
H1676 C1688 0.959 . S
H1677 C1691 0.929 . S
H1678 C1692 0.931 . S
H1679 C1694 0.930 . S
C1680 H1668 0.930 . S
C1680 C1681 1.399 . S
C1680 C1685 1.399 . S
C1681 C1680 1.399 . S
C1681 C1682 1.376 . S
C1682 H1669 0.930 . S
C1682 C1681 1.376 . S
C1682 C1683 1.388 . S
C1683 H1670 0.930 . S
C1683 C1682 1.388 . S
C1683 C1684 1.390 . S
C1684 C1683 1.390 . S
C1684 C1685 1.394 . S
C1684 C1690 1.465 . S
C1685 C1680 1.399 . S
C1685 C1684 1.394 . S
C1685 C1686 1.516 . S
C1686 C1685 1.516 . S
C1686 C1687 1.502 . S
C1686 C1688 1.561 . S
C1686 C1689 1.526 . S
C1687 H1671 0.959 . S
C1687 H1672 0.959 . S
C1687 H1673 0.961 . S
C1687 C1686 1.502 . S
C1688 H1674 0.960 . S
C1688 H1675 0.961 . S
C1688 H1676 0.959 . S
C1688 C1686 1.561 . S
C1689 C1686 1.526 . S
C1689 C1690 1.396 . S
C1689 C1694 1.390 . S
C1690 C1684 1.465 . S
C1690 C1689 1.396 . S
C1690 C1691 1.399 . S
C1691 H1677 0.929 . S
C1691 C1690 1.399 . S
C1691 C1692 1.385 . S
C1692 H1678 0.931 . S
C1692 C1691 1.385 . S
C1692 C1693 1.389 . S
C1693 C1692 1.389 . S
C1693 C1694 1.387 . S
C1694 H1679 0.930 . S
C1694 C1689 1.390 . S
C1694 C1693 1.387 . S
H1695 C1707 0.930 . S
H1696 C1709 0.930 . S
H1697 C1710 0.930 . S
H1698 C1714 0.959 . S
H1699 C1714 0.959 . S
H1700 C1714 0.961 . S
H1701 C1715 0.960 . S
H1702 C1715 0.961 . S
H1703 C1715 0.959 . S
H1704 C1718 0.929 . S
H1705 C1719 0.931 . S
H1706 C1721 0.930 . S
C1707 H1695 0.930 . S
C1707 C1708 1.399 . S
C1707 C1712 1.399 . S
C1708 C1707 1.399 . S
C1708 C1709 1.376 . S
C1709 H1696 0.930 . S
C1709 C1708 1.376 . S
C1709 C1710 1.388 . S
C1710 H1697 0.930 . S
C1710 C1709 1.388 . S
C1710 C1711 1.390 . S
C1711 C1710 1.390 . S
C1711 C1712 1.394 . S
C1711 C1717 1.465 . S
C1712 C1707 1.399 . S
C1712 C1711 1.394 . S
C1712 C1713 1.516 . S
C1713 C1712 1.516 . S
C1713 C1714 1.502 . S
C1713 C1715 1.561 . S
C1713 C1716 1.526 . S
C1714 H1698 0.959 . S
C1714 H1699 0.959 . S
C1714 H1700 0.961 . S
C1714 C1713 1.502 . S
C1715 H1701 0.960 . S
C1715 H1702 0.961 . S
C1715 H1703 0.959 . S
C1715 C1713 1.561 . S
C1716 C1713 1.526 . S
C1716 C1717 1.396 . S
C1716 C1721 1.390 . S
C1717 C1711 1.465 . S
C1717 C1716 1.396 . S
C1717 C1718 1.399 . S
C1718 H1704 0.929 . S
C1718 C1717 1.399 . S
C1718 C1719 1.385 . S
C1719 H1705 0.931 . S
C1719 C1718 1.385 . S
C1719 C1720 1.389 . S
C1720 C1719 1.389 . S
C1720 C1721 1.387 . S
C1721 H1706 0.930 . S
C1721 C1716 1.390 . S
C1721 C1720 1.387 . S
H1722 C1734 0.930 1_565 S
H1723 C1736 0.902 1_565 S
H1724 C1737 0.930 . S
H1725 C1741 0.959 . S
H1726 C1741 0.959 . S
H1727 C1741 0.961 . S
H1728 C1742 0.960 . S
H1729 C1742 0.961 . S
H1730 C1742 0.959 . S
H1731 C1745 0.929 . S
H1732 C1746 0.931 . S
H1733 C1748 0.930 . S
C1734 H1722 0.930 1_545 S
C1734 C1735 1.399 1_545 S
C1734 C1739 1.399 . S
C1735 C1734 1.399 1_565 S
C1735 C1736 1.376 1_565 S
C1736 H1723 0.902 1_545 S
C1736 C1735 1.376 1_545 S
C1736 C1737 1.388 . S
C1737 H1724 0.930 . S
C1737 C1736 1.388 . S
C1737 C1738 1.390 . S
C1738 C1737 1.390 . S
C1738 C1739 1.394 . S
C1738 C1744 1.465 . S
C1739 C1734 1.399 . S
C1739 C1738 1.394 . S
C1739 C1740 1.516 . S
C1740 C1739 1.516 . S
C1740 C1741 1.502 . S
C1740 C1742 1.561 . S
C1740 C1743 1.526 . S
C1741 H1725 0.959 . S
C1741 H1726 0.959 . S
C1741 H1727 0.961 . S
C1741 C1740 1.502 . S
C1742 H1728 0.960 . S
C1742 H1729 0.961 . S
C1742 H1730 0.959 . S
C1742 C1740 1.561 . S
C1743 C1740 1.526 . S
C1743 C1744 1.396 . S
C1743 C1748 1.390 . S
C1744 C1738 1.465 . S
C1744 C1743 1.396 . S
C1744 C1745 1.399 . S
C1745 H1731 0.929 . S
C1745 C1744 1.399 . S
C1745 C1746 1.385 . S
C1746 H1732 0.931 . S
C1746 C1745 1.385 . S
C1746 C1747 1.389 . S
C1747 C1746 1.389 . S
C1747 C1748 1.387 . S
C1748 H1733 0.930 . S
C1748 C1743 1.390 . S
C1748 C1747 1.387 . S
H1749 C1761 0.930 . S
H1750 C1763 0.930 . S
H1751 C1764 0.930 . S
H1752 C1768 0.959 . S
H1753 C1768 0.959 . S
H1754 C1768 0.961 . S
H1755 C1769 0.960 . S
H1756 C1769 0.961 . S
H1757 C1769 0.959 . S
H1758 C1772 0.929 . S
H1759 C1773 0.931 . S
H1760 C1775 0.930 . S
C1761 H1749 0.930 . S
C1761 C1762 1.399 . S
C1761 C1766 1.399 . S
C1762 C1761 1.399 . S
C1762 C1763 1.376 . S
C1763 H1750 0.930 . S
C1763 C1762 1.376 . S
C1763 C1764 1.388 . S
C1764 H1751 0.930 . S
C1764 C1763 1.388 . S
C1764 C1765 1.390 . S
C1765 C1764 1.390 . S
C1765 C1766 1.394 . S
C1765 C1771 1.465 . S
C1766 C1761 1.399 . S
C1766 C1765 1.394 . S
C1766 C1767 1.516 . S
C1767 C1766 1.516 . S
C1767 C1768 1.502 . S
C1767 C1769 1.561 . S
C1767 C1770 1.526 . S
C1768 H1752 0.959 . S
C1768 H1753 0.959 . S
C1768 H1754 0.961 . S
C1768 C1767 1.502 . S
C1769 H1755 0.960 . S
C1769 H1756 0.961 . S
C1769 H1757 0.959 . S
C1769 C1767 1.561 . S
C1770 C1767 1.526 . S
C1770 C1771 1.396 . S
C1770 C1775 1.390 . S
C1771 C1765 1.465 . S
C1771 C1770 1.396 . S
C1771 C1772 1.399 . S
C1772 H1758 0.929 . S
C1772 C1771 1.399 . S
C1772 C1773 1.385 . S
C1773 H1759 0.931 . S
C1773 C1772 1.385 . S
C1773 C1774 1.389 . S
C1774 C1773 1.389 . S
C1774 C1775 1.387 . S
C1775 H1760 0.930 . S
C1775 C1770 1.390 . S
C1775 C1774 1.387 . S
H1776 C1788 0.930 . S
H1777 C1790 0.930 . S
H1778 C1791 0.930 . S
H1779 C1795 0.959 . S
H1780 C1795 0.959 . S
H1781 C1795 0.961 . S
H1782 C1796 0.960 . S
H1783 C1796 0.961 . S
H1784 C1796 0.959 . S
H1785 C1799 0.929 . S
H1786 C1800 0.931 . S
H1787 C1802 0.930 . S
C1788 H1776 0.930 . S
C1788 C1789 1.399 . S
C1788 C1793 1.399 . S
C1789 C1788 1.399 . S
C1789 C1790 1.376 . S
C1790 H1777 0.930 . S
C1790 C1789 1.376 . S
C1790 C1791 1.388 . S
C1791 H1778 0.930 . S
C1791 C1790 1.388 . S
C1791 C1792 1.390 . S
C1792 C1791 1.390 . S
C1792 C1793 1.394 . S
C1792 C1798 1.465 . S
C1793 C1788 1.399 . S
C1793 C1792 1.394 . S
C1793 C1794 1.516 . S
C1794 C1793 1.516 . S
C1794 C1795 1.502 . S
C1794 C1796 1.561 . S
C1794 C1797 1.526 . S
C1795 H1779 0.959 . S
C1795 H1780 0.959 . S
C1795 H1781 0.961 . S
C1795 C1794 1.502 . S
C1796 H1782 0.960 . S
C1796 H1783 0.961 . S
C1796 H1784 0.959 . S
C1796 C1794 1.561 . S
C1797 C1794 1.526 . S
C1797 C1798 1.396 . S
C1797 C1802 1.390 . S
C1798 C1792 1.465 . S
C1798 C1797 1.396 . S
C1798 C1799 1.399 . S
C1799 H1785 0.929 . S
C1799 C1798 1.399 . S
C1799 C1800 1.385 . S
C1800 H1786 0.931 . S
C1800 C1799 1.385 . S
C1800 C1801 1.389 . S
C1801 C1800 1.389 . S
C1801 C1802 1.387 . S
C1802 H1787 0.930 . S
C1802 C1797 1.390 . S
C1802 C1801 1.387 . S
H1803 C1815 0.930 . S
H1804 C1817 0.930 . S
H1805 C1818 0.930 . S
H1806 C1822 0.959 . S
H1807 C1822 0.959 . S
H1808 C1822 0.961 . S
H1809 C1823 0.960 . S
H1810 C1823 0.961 . S
H1811 C1823 0.959 . S
H1812 C1826 0.929 . S
H1813 C1827 0.931 . S
H1814 C1829 0.930 . S
C1815 H1803 0.930 . S
C1815 C1816 1.399 . S
C1815 C1820 1.399 . S
C1816 C1815 1.399 . S
C1816 C1817 1.376 . S
C1817 H1804 0.930 . S
C1817 C1816 1.376 . S
C1817 C1818 1.388 . S
C1818 H1805 0.930 . S
C1818 C1817 1.388 . S
C1818 C1819 1.390 . S
C1819 C1818 1.390 . S
C1819 C1820 1.394 . S
C1819 C1825 1.465 . S
C1820 C1815 1.399 . S
C1820 C1819 1.394 . S
C1820 C1821 1.516 . S
C1821 C1820 1.516 . S
C1821 C1822 1.502 . S
C1821 C1823 1.561 . S
C1821 C1824 1.526 . S
C1822 H1806 0.959 . S
C1822 H1807 0.959 . S
C1822 H1808 0.961 . S
C1822 C1821 1.502 . S
C1823 H1809 0.960 . S
C1823 H1810 0.961 . S
C1823 H1811 0.959 . S
C1823 C1821 1.561 . S
C1824 C1821 1.526 . S
C1824 C1825 1.396 . S
C1824 C1829 1.390 . S
C1825 C1819 1.465 . S
C1825 C1824 1.396 . S
C1825 C1826 1.399 . S
C1826 H1812 0.929 . S
C1826 C1825 1.399 . S
C1826 C1827 1.385 . S
C1827 H1813 0.931 . S
C1827 C1826 1.385 . S
C1827 C1828 1.389 . S
C1828 C1827 1.389 . S
C1828 C1829 1.387 . S
C1829 H1814 0.930 . S
C1829 C1824 1.390 . S
C1829 C1828 1.387 . S
H1830 C1842 0.930 . S
H1831 C1844 0.930 . S
H1832 C1845 0.930 . S
H1833 C1849 0.959 . S
H1834 C1849 0.959 . S
H1835 C1849 0.961 . S
H1836 C1850 0.960 . S
H1837 C1850 0.961 . S
H1838 C1850 0.959 . S
H1839 C1853 0.929 . S
H1840 C1854 0.931 . S
H1841 C1856 0.930 . S
C1842 H1830 0.930 . S
C1842 C1843 1.399 . S
C1842 C1847 1.399 . S
C1843 C1842 1.399 . S
C1843 C1844 1.376 . S
C1844 H1831 0.930 . S
C1844 C1843 1.376 . S
C1844 C1845 1.388 . S
C1845 H1832 0.930 . S
C1845 C1844 1.388 . S
C1845 C1846 1.390 . S
C1846 C1845 1.390 . S
C1846 C1847 1.394 . S
C1846 C1852 1.465 . S
C1847 C1842 1.399 . S
C1847 C1846 1.394 . S
C1847 C1848 1.516 . S
C1848 C1847 1.516 . S
C1848 C1849 1.502 . S
C1848 C1850 1.561 . S
C1848 C1851 1.526 . S
C1849 H1833 0.959 . S
C1849 H1834 0.959 . S
C1849 H1835 0.961 . S
C1849 C1848 1.502 . S
C1850 H1836 0.960 . S
C1850 H1837 0.961 . S
C1850 H1838 0.959 . S
C1850 C1848 1.561 . S
C1851 C1848 1.526 . S
C1851 C1852 1.396 . S
C1851 C1856 1.390 . S
C1852 C1846 1.465 . S
C1852 C1851 1.396 . S
C1852 C1853 1.399 . S
C1853 H1839 0.929 . S
C1853 C1852 1.399 . S
C1853 C1854 1.385 . S
C1854 H1840 0.931 . S
C1854 C1853 1.385 . S
C1854 C1855 1.389 . S
C1855 C1854 1.389 . S
C1855 C1856 1.387 . S
C1856 H1841 0.930 . S
C1856 C1851 1.390 . S
C1856 C1855 1.387 . S
H1857 C1869 0.930 . S
H1858 C1871 0.930 . S
H1859 C1872 0.930 . S
H1860 C1876 0.959 . S
H1861 C1876 0.959 . S
H1862 C1876 0.961 . S
H1863 C1877 0.960 . S
H1864 C1877 0.961 . S
H1865 C1877 0.959 . S
H1866 C1880 0.929 . S
H1867 C1881 0.931 . S
H1868 C1883 0.930 . S
C1869 H1857 0.930 . S
C1869 C1870 1.399 . S
C1869 C1874 1.399 . S
C1870 C1869 1.399 . S
C1870 C1871 1.376 . S
C1871 H1858 0.930 . S
C1871 C1870 1.376 . S
C1871 C1872 1.388 . S
C1872 H1859 0.930 . S
C1872 C1871 1.388 . S
C1872 C1873 1.390 . S
C1873 C1872 1.390 . S
C1873 C1874 1.394 . S
C1873 C1879 1.465 . S
C1874 C1869 1.399 . S
C1874 C1873 1.394 . S
C1874 C1875 1.516 . S
C1875 C1874 1.516 . S
C1875 C1876 1.502 . S
C1875 C1877 1.561 . S
C1875 C1878 1.526 . S
C1876 H1860 0.959 . S
C1876 H1861 0.959 . S
C1876 H1862 0.961 . S
C1876 C1875 1.502 . S
C1877 H1863 0.960 . S
C1877 H1864 0.961 . S
C1877 H1865 0.959 . S
C1877 C1875 1.561 . S
C1878 C1875 1.526 . S
C1878 C1879 1.396 . S
C1878 C1883 1.390 . S
C1879 C1873 1.465 . S
C1879 C1878 1.396 . S
C1879 C1880 1.399 . S
C1880 H1866 0.929 . S
C1880 C1879 1.399 . S
C1880 C1881 1.385 . S
C1881 H1867 0.931 . S
C1881 C1880 1.385 . S
C1881 C1882 1.389 . S
C1882 C1881 1.389 . S
C1882 C1883 1.387 . S
C1883 H1868 0.930 . S
C1883 C1878 1.390 . S
C1883 C1882 1.387 . S
H1884 C1896 0.930 . S
H1885 C1898 0.930 . S
H1886 C1899 0.930 . S
H1887 C1903 0.959 . S
H1888 C1903 0.959 . S
H1889 C1903 0.961 . S
H1890 C1904 0.960 . S
H1891 C1904 0.961 . S
H1892 C1904 0.959 . S
H1893 C1907 0.929 . S
H1894 C1908 0.931 . S
H1895 C1910 0.930 . S
C1896 H1884 0.930 . S
C1896 C1897 1.399 . S
C1896 C1901 1.399 . S
C1897 C1896 1.399 . S
C1897 C1898 1.376 . S
C1898 H1885 0.930 . S
C1898 C1897 1.376 . S
C1898 C1899 1.388 . S
C1899 H1886 0.930 . S
C1899 C1898 1.388 . S
C1899 C1900 1.390 . S
C1900 C1899 1.390 . S
C1900 C1901 1.394 . S
C1900 C1906 1.465 . S
C1901 C1896 1.399 . S
C1901 C1900 1.394 . S
C1901 C1902 1.516 . S
C1902 C1901 1.516 . S
C1902 C1903 1.502 . S
C1902 C1904 1.561 . S
C1902 C1905 1.526 . S
C1903 H1887 0.959 . S
C1903 H1888 0.959 . S
C1903 H1889 0.961 . S
C1903 C1902 1.502 . S
C1904 H1890 0.960 . S
C1904 H1891 0.961 . S
C1904 H1892 0.959 . S
C1904 C1902 1.561 . S
C1905 C1902 1.526 . S
C1905 C1906 1.396 . S
C1905 C1910 1.390 . S
C1906 C1900 1.465 . S
C1906 C1905 1.396 . S
C1906 C1907 1.399 . S
C1907 H1893 0.929 . S
C1907 C1906 1.399 . S
C1907 C1908 1.385 . S
C1908 H1894 0.931 . S
C1908 C1907 1.385 . S
C1908 C1909 1.389 . S
C1909 C1908 1.389 . S
C1909 C1910 1.387 . S
C1910 H1895 0.930 . S
C1910 C1905 1.390 . S
C1910 C1909 1.387 . S
H1911 C1923 0.930 . S
H1912 C1925 0.930 . S
H1913 C1926 0.930 1_655 S
H1914 C1930 0.959 . S
H1915 C1930 0.959 1_655 S
H1916 C1930 0.961 . S
H1917 C1931 0.960 . S
H1918 C1931 0.961 . S
H1919 C1931 0.959 . S
H1920 C1934 0.929 . S
H1921 C1935 0.931 . S
H1922 C1937 0.930 . S
C1923 H1911 0.930 . S
C1923 C1924 1.399 . S
C1923 C1928 1.399 . S
C1924 C1923 1.399 . S
C1924 C1925 1.376 . S
C1925 H1912 0.930 . S
C1925 C1924 1.376 . S
C1925 C1926 1.388 . S
C1926 H1913 0.930 1_455 S
C1926 C1925 1.388 . S
C1926 C1927 1.390 1_455 S
C1927 C1926 1.390 1_655 S
C1927 C1928 1.394 1_655 S
C1927 C1933 1.465 . S
C1928 C1923 1.399 . S
C1928 C1927 1.394 1_455 S
C1928 C1929 1.516 1_455 S
C1929 C1928 1.516 1_655 S
C1929 C1930 1.502 1_655 S
C1929 C1931 1.561 . S
C1929 C1932 1.526 . S
C1930 H1914 0.959 . S
C1930 H1915 0.959 1_455 S
C1930 H1916 0.961 . S
C1930 C1929 1.502 1_455 S
C1931 H1917 0.960 . S
C1931 H1918 0.961 . S
C1931 H1919 0.959 . S
C1931 C1929 1.561 . S
C1932 C1929 1.526 . S
C1932 C1933 1.396 . S
C1932 C1937 1.390 . S
C1933 C1927 1.465 . S
C1933 C1932 1.396 . S
C1933 C1934 1.399 . S
C1934 H1920 0.929 . S
C1934 C1933 1.399 . S
C1934 C1935 1.385 . S
C1935 H1921 0.931 . S
C1935 C1934 1.385 . S
C1935 C1936 1.389 . S
C1936 C1935 1.389 . S
C1936 C1937 1.387 . S
C1937 H1922 0.930 . S
C1937 C1932 1.390 . S
C1937 C1936 1.387 . S
H1938 C1950 0.930 . S
H1939 C1952 0.930 . S
H1940 C1953 0.930 . S
H1941 C1957 0.959 . S
H1942 C1957 0.959 . S
H1943 C1957 0.961 . S
H1944 C1958 0.960 . S
H1945 C1958 0.961 . S
H1946 C1958 0.959 . S
H1947 C1961 0.929 . S
H1948 C1962 0.931 . S
H1949 C1964 0.930 . S
C1950 H1938 0.930 . S
C1950 C1951 1.399 . S
C1950 C1955 1.399 . S
C1951 C1950 1.399 . S
C1951 C1952 1.376 . S
C1952 H1939 0.930 . S
C1952 C1951 1.376 . S
C1952 C1953 1.388 . S
C1953 H1940 0.930 . S
C1953 C1952 1.388 . S
C1953 C1954 1.390 . S
C1954 C1953 1.390 . S
C1954 C1955 1.394 . S
C1954 C1960 1.465 . S
C1955 C1950 1.399 . S
C1955 C1954 1.394 . S
C1955 C1956 1.516 . S
C1956 C1955 1.516 . S
C1956 C1957 1.502 . S
C1956 C1958 1.561 . S
C1956 C1959 1.526 . S
C1957 H1941 0.959 . S
C1957 H1942 0.959 . S
C1957 H1943 0.961 . S
C1957 C1956 1.502 . S
C1958 H1944 0.960 . S
C1958 H1945 0.961 . S
C1958 H1946 0.959 . S
C1958 C1956 1.561 . S
C1959 C1956 1.526 . S
C1959 C1960 1.396 . S
C1959 C1964 1.390 . S
C1960 C1954 1.465 . S
C1960 C1959 1.396 . S
C1960 C1961 1.399 . S
C1961 H1947 0.929 . S
C1961 C1960 1.399 . S
C1961 C1962 1.385 . S
C1962 H1948 0.931 . S
C1962 C1961 1.385 . S
C1962 C1963 1.389 . S
C1963 C1962 1.389 . S
C1963 C1964 1.387 . S
C1964 H1949 0.930 . S
C1964 C1959 1.390 . S
C1964 C1963 1.387 . S
H1965 C1977 0.930 . S
H1966 C1979 0.930 . S
H1967 C1980 0.930 . S
H1968 C1984 0.959 . S
H1969 C1984 0.959 . S
H1970 C1984 0.961 . S
H1971 C1985 0.964 . S
H1972 C1985 0.961 . S
H1973 C1985 0.959 . S
H1974 C1988 0.929 . S
H1975 C1989 0.931 . S
H1976 C1991 0.930 . S
C1977 H1965 0.930 . S
C1977 C1978 1.399 . S
C1977 C1982 1.399 . S
C1978 C1977 1.399 . S
C1978 C1979 1.376 . S
C1979 H1966 0.930 . S
C1979 C1978 1.376 . S
C1979 C1980 1.388 . S
C1980 H1967 0.930 . S
C1980 C1979 1.388 . S
C1980 C1981 1.390 . S
C1981 C1980 1.390 . S
C1981 C1982 1.394 . S
C1981 C1987 1.465 1_655 S
C1982 C1977 1.399 . S
C1982 C1981 1.394 . S
C1982 C1983 1.516 1_655 S
C1983 C1982 1.516 1_455 S
C1983 C1984 1.502 . S
C1983 C1985 1.561 . S
C1983 C1986 1.526 . S
C1984 H1968 0.959 . S
C1984 H1969 0.959 . S
C1984 H1970 0.961 . S
C1984 C1983 1.502 . S
C1985 H1971 0.964 . S
C1985 H1972 0.961 . S
C1985 H1973 0.959 . S
C1985 C1983 1.561 . S
C1986 C1983 1.526 . S
C1986 C1987 1.396 . S
C1986 C1991 1.390 . S
C1987 C1981 1.465 1_455 S
C1987 C1986 1.396 . S
C1987 C1988 1.399 . S
C1988 H1974 0.929 . S
C1988 C1987 1.399 . S
C1988 C1989 1.385 . S
C1989 H1975 0.931 . S
C1989 C1988 1.385 . S
C1989 C1990 1.389 . S
C1990 C1989 1.389 . S
C1990 C1991 1.387 . S
C1991 H1976 0.930 . S
C1991 C1986 1.390 . S
C1991 C1990 1.387 . S
H1992 C2004 0.930 . S
H1993 C2006 0.930 . S
H1994 C2007 0.930 . S
H1995 C2011 0.959 . S
H1996 C2011 0.959 . S
H1997 C2011 0.961 . S
H1998 C2012 0.960 . S
H1999 C2012 0.961 . S
H2000 C2012 0.959 . S
H2001 C2015 0.929 . S
H2002 C2016 0.931 . S
H2003 C2018 0.930 . S
C2004 H1992 0.930 . S
C2004 C2005 1.399 . S
C2004 C2009 1.399 . S
C2005 C2004 1.399 . S
C2005 C2006 1.376 . S
C2006 H1993 0.930 . S
C2006 C2005 1.376 . S
C2006 C2007 1.388 . S
C2007 H1994 0.930 . S
C2007 C2006 1.388 . S
C2007 C2008 1.390 . S
C2008 C2007 1.390 . S
C2008 C2009 1.394 . S
C2008 C2014 1.465 . S
C2009 C2004 1.399 . S
C2009 C2008 1.394 . S
C2009 C2010 1.516 . S
C2010 C2009 1.516 . S
C2010 C2011 1.502 . S
C2010 C2012 1.561 . S
C2010 C2013 1.526 . S
C2011 H1995 0.959 . S
C2011 H1996 0.959 . S
C2011 H1997 0.961 . S
C2011 C2010 1.502 . S
C2012 H1998 0.960 . S
C2012 H1999 0.961 . S
C2012 H2000 0.959 . S
C2012 C2010 1.561 . S
C2013 C2010 1.526 . S
C2013 C2014 1.396 . S
C2013 C2018 1.390 . S
C2014 C2008 1.465 . S
C2014 C2013 1.396 . S
C2014 C2015 1.399 . S
C2015 H2001 0.929 . S
C2015 C2014 1.399 . S
C2015 C2016 1.385 . S
C2016 H2002 0.931 . S
C2016 C2015 1.385 . S
C2016 C2017 1.389 . S
C2017 C2016 1.389 . S
C2017 C2018 1.387 . S
C2018 H2003 0.930 . S
C2018 C2013 1.390 . S
C2018 C2017 1.387 . S
H2019 C2031 0.930 . S
H2020 C2033 0.930 . S
H2021 C2034 0.930 . S
H2022 C2038 0.959 . S
H2023 C2038 0.959 1_556 S
H2024 C2038 0.961 . S
H2025 C2039 0.960 . S
H2026 C2039 0.961 . S
H2027 C2039 0.959 . S
H2028 C2042 0.929 . S
H2029 C2043 0.931 . S
H2030 C2045 0.930 . S
C2031 H2019 0.930 . S
C2031 C2032 1.399 . S
C2031 C2036 1.399 1_554 S
C2032 C2031 1.399 . S
C2032 C2033 1.376 1_554 S
C2033 H2020 0.930 . S
C2033 C2032 1.376 1_556 S
C2033 C2034 1.388 . S
C2034 H2021 0.930 . S
C2034 C2033 1.388 . S
C2034 C2035 1.390 . S
C2035 C2034 1.390 . S
C2035 C2036 1.394 . S
C2035 C2041 1.465 . S
C2036 C2031 1.399 1_556 S
C2036 C2035 1.394 . S
C2036 C2037 1.516 . S
C2037 C2036 1.516 . S
C2037 C2038 1.502 1_556 S
C2037 C2039 1.561 . S
C2037 C2040 1.526 . S
C2038 H2022 0.959 . S
C2038 H2023 0.959 1_554 S
C2038 H2024 0.961 . S
C2038 C2037 1.502 1_554 S
C2039 H2025 0.960 . S
C2039 H2026 0.961 . S
C2039 H2027 0.959 . S
C2039 C2037 1.561 . S
C2040 C2037 1.526 . S
C2040 C2041 1.396 . S
C2040 C2045 1.390 . S
C2041 C2035 1.465 . S
C2041 C2040 1.396 . S
C2041 C2042 1.399 . S
C2042 H2028 0.929 . S
C2042 C2041 1.399 . S
C2042 C2043 1.385 . S
C2043 H2029 0.931 . S
C2043 C2042 1.385 . S
C2043 C2044 1.389 . S
C2044 C2043 1.389 . S
C2044 C2045 1.387 . S
C2045 H2030 0.930 . S
C2045 C2040 1.390 . S
C2045 C2044 1.387 . S
H2046 C2058 0.930 . S
H2047 C2060 0.930 . S
H2048 C2061 0.930 . S
H2049 C2065 0.959 . S
H2050 C2065 0.959 . S
H2051 C2065 0.961 . S
H2052 C2066 0.960 . S
H2053 C2066 0.961 . S
H2054 C2066 0.959 . S
H2055 C2069 0.929 . S
H2056 C2070 0.931 . S
H2057 C2072 0.930 . S
C2058 H2046 0.930 . S
C2058 C2059 1.399 . S
C2058 C2063 1.399 . S
C2059 C2058 1.399 . S
C2059 C2060 1.376 . S
C2060 H2047 0.930 . S
C2060 C2059 1.376 . S
C2060 C2061 1.388 . S
C2061 H2048 0.930 . S
C2061 C2060 1.388 . S
C2061 C2062 1.390 . S
C2062 C2061 1.390 . S
C2062 C2063 1.394 . S
C2062 C2068 1.465 . S
C2063 C2058 1.399 . S
C2063 C2062 1.394 . S
C2063 C2064 1.516 . S
C2064 C2063 1.516 . S
C2064 C2065 1.502 . S
C2064 C2066 1.561 . S
C2064 C2067 1.526 . S
C2065 H2049 0.959 . S
C2065 H2050 0.959 . S
C2065 H2051 0.961 . S
C2065 C2064 1.502 . S
C2066 H2052 0.960 . S
C2066 H2053 0.961 . S
C2066 H2054 0.959 . S
C2066 C2064 1.561 . S
C2067 C2064 1.526 . S
C2067 C2068 1.396 . S
C2067 C2072 1.390 . S
C2068 C2062 1.465 . S
C2068 C2067 1.396 . S
C2068 C2069 1.399 . S
C2069 H2055 0.929 . S
C2069 C2068 1.399 . S
C2069 C2070 1.385 . S
C2070 H2056 0.931 . S
C2070 C2069 1.385 . S
C2070 C2071 1.389 . S
C2071 C2070 1.389 . S
C2071 C2072 1.387 . S
C2072 H2057 0.930 . S
C2072 C2067 1.390 . S
C2072 C2071 1.387 . S
H2073 C2085 0.930 . S
H2074 C2087 0.930 . S
H2075 C2088 0.930 . S
H2076 C2092 0.959 . S
H2077 C2092 0.959 . S
H2078 C2092 0.961 . S
H2079 C2093 0.960 . S
H2080 C2093 0.961 . S
H2081 C2093 0.959 . S
H2082 C2096 0.929 1_554 S
H2083 C2097 0.931 . S
H2084 C2099 0.930 . S
C2085 H2073 0.930 . S
C2085 C2086 1.399 . S
C2085 C2090 1.399 . S
C2086 C2085 1.399 . S
C2086 C2087 1.376 . S
C2087 H2074 0.930 . S
C2087 C2086 1.376 . S
C2087 C2088 1.388 . S
C2088 H2075 0.930 . S
C2088 C2087 1.388 . S
C2088 C2089 1.390 . S
C2089 C2088 1.390 . S
C2089 C2090 1.394 . S
C2089 C2095 1.465 1_554 S
C2090 C2085 1.399 . S
C2090 C2089 1.394 . S
C2090 C2091 1.516 1_554 S
C2091 C2090 1.516 1_556 S
C2091 C2092 1.502 . S
C2091 C2093 1.561 . S
C2091 C2094 1.526 . S
C2092 H2076 0.959 . S
C2092 H2077 0.959 . S
C2092 H2078 0.961 . S
C2092 C2091 1.502 . S
C2093 H2079 0.960 . S
C2093 H2080 0.961 . S
C2093 H2081 0.959 . S
C2093 C2091 1.561 . S
C2094 C2091 1.526 . S
C2094 C2095 1.396 . S
C2094 C2099 1.390 . S
C2095 C2089 1.465 1_556 S
C2095 C2094 1.396 . S
C2095 C2096 1.399 . S
C2096 H2082 0.929 1_556 S
C2096 C2095 1.399 . S
C2096 C2097 1.385 . S
C2097 H2083 0.931 . S
C2097 C2096 1.385 . S
C2097 C2098 1.389 . S
C2098 C2097 1.389 . S
C2098 C2099 1.387 . S
C2099 H2084 0.930 . S
C2099 C2094 1.390 . S
C2099 C2098 1.387 . S
H2100 C2112 0.930 . S
H2101 C2114 0.930 . S
H2102 C2115 0.930 . S
H2103 C2119 0.959 . S
H2104 C2119 0.959 . S
H2105 C2119 0.961 . S
H2106 C2120 0.960 . S
H2107 C2120 0.961 . S
H2108 C2120 0.959 . S
H2109 C2123 0.929 . S
H2110 C2124 0.931 . S
H2111 C2126 0.930 . S
C2112 H2100 0.930 . S
C2112 C2113 1.399 . S
C2112 C2117 1.399 . S
C2113 C2112 1.399 . S
C2113 C2114 1.376 . S
C2114 H2101 0.930 . S
C2114 C2113 1.376 . S
C2114 C2115 1.388 . S
C2115 H2102 0.930 . S
C2115 C2114 1.388 . S
C2115 C2116 1.390 . S
C2116 C2115 1.390 . S
C2116 C2117 1.394 . S
C2116 C2122 1.465 . S
C2117 C2112 1.399 . S
C2117 C2116 1.394 . S
C2117 C2118 1.516 . S
C2118 C2117 1.516 . S
C2118 C2119 1.502 . S
C2118 C2120 1.561 . S
C2118 C2121 1.526 . S
C2119 H2103 0.959 . S
C2119 H2104 0.959 . S
C2119 H2105 0.961 . S
C2119 C2118 1.502 . S
C2120 H2106 0.960 . S
C2120 H2107 0.961 . S
C2120 H2108 0.959 . S
C2120 C2118 1.561 . S
C2121 C2118 1.526 . S
C2121 C2122 1.396 . S
C2121 C2126 1.390 . S
C2122 C2116 1.465 . S
C2122 C2121 1.396 . S
C2122 C2123 1.399 . S
C2123 H2109 0.929 . S
C2123 C2122 1.399 . S
C2123 C2124 1.385 . S
C2124 H2110 0.931 . S
C2124 C2123 1.385 . S
C2124 C2125 1.389 . S
C2125 C2124 1.389 . S
C2125 C2126 1.387 . S
C2126 H2111 0.930 . S
C2126 C2121 1.390 . S
C2126 C2125 1.387 . S
H2127 C2139 0.930 . S
H2128 C2141 0.930 . S
H2129 C2142 0.930 . S
H2130 C2146 0.959 . S
H2131 C2146 0.959 . S
H2132 C2146 0.961 1_556 S
H2133 C2147 0.960 1_556 S
H2134 C2147 0.961 . S
H2135 C2147 0.959 . S
H2136 C2150 0.929 . S
H2137 C2151 0.931 . S
H2138 C2153 0.930 . S
C2139 H2127 0.930 . S
C2139 C2140 1.399 . S
C2139 C2144 1.399 1_556 S
C2140 C2139 1.399 . S
C2140 C2141 1.376 . S
C2141 H2128 0.930 . S
C2141 C2140 1.376 . S
C2141 C2142 1.388 1_556 S
C2142 H2129 0.930 . S
C2142 C2141 1.388 1_554 S
C2142 C2143 1.390 . S
C2143 C2142 1.390 . S
C2143 C2144 1.394 . S
C2143 C2149 1.465 . S
C2144 C2139 1.399 1_554 S
C2144 C2143 1.394 . S
C2144 C2145 1.516 . S
C2145 C2144 1.516 . S
C2145 C2146 1.502 . S
C2145 C2147 1.561 . S
C2145 C2148 1.526 . S
C2146 H2130 0.959 . S
C2146 H2131 0.959 . S
C2146 H2132 0.961 1_554 S
C2146 C2145 1.502 . S
C2147 H2133 0.960 1_554 S
C2147 H2134 0.961 . S
C2147 H2135 0.959 . S
C2147 C2145 1.561 . S
C2148 C2145 1.526 . S
C2148 C2149 1.396 . S
C2148 C2153 1.390 . S
C2149 C2143 1.465 . S
C2149 C2148 1.396 . S
C2149 C2150 1.399 . S
C2150 H2136 0.929 . S
C2150 C2149 1.399 . S
C2150 C2151 1.385 . S
C2151 H2137 0.931 . S
C2151 C2150 1.385 . S
C2151 C2152 1.389 . S
C2152 C2151 1.389 . S
C2152 C2153 1.387 . S
C2153 H2138 0.930 . S
C2153 C2148 1.390 . S
C2153 C2152 1.387 . S
H2154 C2166 0.930 . S
H2155 C2168 0.930 . S
H2156 C2169 0.930 . S
H2157 C2173 0.959 . S
H2158 C2173 0.959 . S
H2159 C2173 0.961 . S
H2160 C2174 0.960 . S
H2161 C2174 0.961 . S
H2162 C2174 0.959 . S
H2163 C2177 0.929 . S
H2164 C2178 0.931 . S
H2165 C2180 0.930 . S
C2166 H2154 0.930 . S
C2166 C2167 1.399 . S
C2166 C2171 1.399 . S
C2167 C2166 1.399 . S
C2167 C2168 1.376 . S
C2168 H2155 0.930 . S
C2168 C2167 1.376 . S
C2168 C2169 1.388 . S
C2169 H2156 0.930 . S
C2169 C2168 1.388 . S
C2169 C2170 1.390 . S
C2170 C2169 1.390 . S
C2170 C2171 1.394 . S
C2170 C2176 1.465 . S
C2171 C2166 1.399 . S
C2171 C2170 1.394 . S
C2171 C2172 1.516 . S
C2172 C2171 1.516 . S
C2172 C2173 1.502 . S
C2172 C2174 1.561 . S
C2172 C2175 1.526 . S
C2173 H2157 0.959 . S
C2173 H2158 0.959 . S
C2173 H2159 0.961 . S
C2173 C2172 1.502 . S
C2174 H2160 0.960 . S
C2174 H2161 0.961 . S
C2174 H2162 0.959 . S
C2174 C2172 1.561 . S
C2175 C2172 1.526 . S
C2175 C2176 1.396 . S
C2175 C2180 1.390 . S
C2176 C2170 1.465 . S
C2176 C2175 1.396 . S
C2176 C2177 1.399 . S
C2177 H2163 0.929 . S
C2177 C2176 1.399 . S
C2177 C2178 1.385 . S
C2178 H2164 0.931 . S
C2178 C2177 1.385 . S
C2178 C2179 1.389 . S
C2179 C2178 1.389 . S
C2179 C2180 1.387 . S
C2180 H2165 0.930 . S
C2180 C2175 1.390 . S
C2180 C2179 1.387 . S
H2181 C2193 0.902 1_556 S
H2182 C2195 0.930 . S
H2183 C2196 0.930 . S
H2184 C2200 0.959 . S
H2185 C2200 0.959 . S
H2186 C2200 0.961 . S
H2187 C2201 0.960 . S
H2188 C2201 0.961 . S
H2189 C2201 0.959 . S
H2190 C2204 0.929 . S
H2191 C2205 0.931 . S
H2192 C2207 0.930 . S
C2193 H2181 0.902 1_554 S
C2193 C2194 1.399 . S
C2193 C2198 1.399 . S
C2194 C2193 1.399 . S
C2194 C2195 1.376 . S
C2195 H2182 0.930 . S
C2195 C2194 1.376 . S
C2195 C2196 1.388 . S
C2196 H2183 0.930 . S
C2196 C2195 1.388 . S
C2196 C2197 1.390 . S
C2197 C2196 1.390 . S
C2197 C2198 1.394 . S
C2197 C2203 1.465 . S
C2198 C2193 1.399 . S
C2198 C2197 1.394 . S
C2198 C2199 1.516 . S
C2199 C2198 1.516 . S
C2199 C2200 1.502 . S
C2199 C2201 1.561 . S
C2199 C2202 1.526 . S
C2200 H2184 0.959 . S
C2200 H2185 0.959 . S
C2200 H2186 0.961 . S
C2200 C2199 1.502 . S
C2201 H2187 0.960 . S
C2201 H2188 0.961 . S
C2201 H2189 0.959 . S
C2201 C2199 1.561 . S
C2202 C2199 1.526 . S
C2202 C2203 1.396 . S
C2202 C2207 1.390 . S
C2203 C2197 1.465 . S
C2203 C2202 1.396 . S
C2203 C2204 1.399 . S
C2204 H2190 0.929 . S
C2204 C2203 1.399 . S
C2204 C2205 1.385 . S
C2205 H2191 0.931 . S
C2205 C2204 1.385 . S
C2205 C2206 1.389 . S
C2206 C2205 1.389 . S
C2206 C2207 1.387 . S
C2207 H2192 0.930 . S
C2207 C2202 1.390 . S
C2207 C2206 1.387 . S
H2208 C2220 0.930 . S
H2209 C2222 0.930 . S
H2210 C2223 0.930 . S
H2211 C2227 0.959 . S
H2212 C2227 0.959 . S
H2213 C2227 0.961 . S
H2214 C2228 0.960 . S
H2215 C2228 0.961 . S
H2216 C2228 0.959 . S
H2217 C2231 0.929 . S
H2218 C2232 0.931 . S
H2219 C2234 0.930 . S
C2220 H2208 0.930 . S
C2220 C2221 1.399 . S
C2220 C2225 1.399 . S
C2221 C2220 1.399 . S
C2221 C2222 1.376 . S
C2222 H2209 0.930 . S
C2222 C2221 1.376 . S
C2222 C2223 1.388 . S
C2223 H2210 0.930 . S
C2223 C2222 1.388 . S
C2223 C2224 1.390 . S
C2224 C2223 1.390 . S
C2224 C2225 1.394 . S
C2224 C2230 1.465 . S
C2225 C2220 1.399 . S
C2225 C2224 1.394 . S
C2225 C2226 1.516 . S
C2226 C2225 1.516 . S
C2226 C2227 1.502 . S
C2226 C2228 1.561 . S
C2226 C2229 1.526 . S
C2227 H2211 0.959 . S
C2227 H2212 0.959 . S
C2227 H2213 0.961 . S
C2227 C2226 1.502 . S
C2228 H2214 0.960 . S
C2228 H2215 0.961 . S
C2228 H2216 0.959 . S
C2228 C2226 1.561 . S
C2229 C2226 1.526 . S
C2229 C2230 1.396 . S
C2229 C2234 1.390 . S
C2230 C2224 1.465 . S
C2230 C2229 1.396 . S
C2230 C2231 1.399 . S
C2231 H2217 0.929 . S
C2231 C2230 1.399 . S
C2231 C2232 1.385 . S
C2232 H2218 0.931 . S
C2232 C2231 1.385 . S
C2232 C2233 1.389 . S
C2233 C2232 1.389 . S
C2233 C2234 1.387 . S
C2234 H2219 0.930 . S
C2234 C2229 1.390 . S
C2234 C2233 1.387 . S
H2235 C2247 0.930 . S
H2236 C2249 0.930 . S
H2237 C2250 0.930 . S
H2238 C2254 0.959 . S
H2239 C2254 0.959 . S
H2240 C2254 0.961 . S
H2241 C2255 0.960 . S
H2242 C2255 0.961 . S
H2243 C2255 0.959 . S
H2244 C2258 0.929 . S
H2245 C2259 0.931 . S
H2246 C2261 0.930 . S
C2247 H2235 0.930 . S
C2247 C2248 1.399 . S
C2247 C2252 1.399 . S
C2248 C2247 1.399 . S
C2248 C2249 1.376 . S
C2249 H2236 0.930 . S
C2249 C2248 1.376 . S
C2249 C2250 1.388 . S
C2250 H2237 0.930 . S
C2250 C2249 1.388 . S
C2250 C2251 1.390 . S
C2251 C2250 1.390 . S
C2251 C2252 1.394 . S
C2251 C2257 1.465 . S
C2252 C2247 1.399 . S
C2252 C2251 1.394 . S
C2252 C2253 1.516 . S
C2253 C2252 1.516 . S
C2253 C2254 1.502 . S
C2253 C2255 1.561 . S
C2253 C2256 1.526 . S
C2254 H2238 0.959 . S
C2254 H2239 0.959 . S
C2254 H2240 0.961 . S
C2254 C2253 1.502 . S
C2255 H2241 0.960 . S
C2255 H2242 0.961 . S
C2255 H2243 0.959 . S
C2255 C2253 1.561 . S
C2256 C2253 1.526 . S
C2256 C2257 1.396 . S
C2256 C2261 1.390 . S
C2257 C2251 1.465 . S
C2257 C2256 1.396 . S
C2257 C2258 1.399 . S
C2258 H2244 0.929 . S
C2258 C2257 1.399 . S
C2258 C2259 1.385 . S
C2259 H2245 0.931 . S
C2259 C2258 1.385 . S
C2259 C2260 1.389 . S
C2260 C2259 1.389 . S
C2260 C2261 1.387 . S
C2261 H2246 0.930 . S
C2261 C2256 1.390 . S
C2261 C2260 1.387 . S
H2262 C2274 0.930 . S
H2263 C2276 0.930 . S
H2264 C2277 0.930 . S
H2265 C2281 0.959 . S
H2266 C2281 0.959 . S
H2267 C2281 0.961 . S
H2268 C2282 0.960 . S
H2269 C2282 0.961 . S
H2270 C2282 0.959 . S
H2271 C2285 0.929 . S
H2272 C2286 0.931 . S
H2273 C2288 0.930 . S
C2274 H2262 0.930 . S
C2274 C2275 1.399 . S
C2274 C2279 1.399 . S
C2275 C2274 1.399 . S
C2275 C2276 1.376 . S
C2276 H2263 0.930 . S
C2276 C2275 1.376 . S
C2276 C2277 1.388 . S
C2277 H2264 0.930 . S
C2277 C2276 1.388 . S
C2277 C2278 1.390 . S
C2278 C2277 1.390 . S
C2278 C2279 1.394 . S
C2278 C2284 1.465 . S
C2279 C2274 1.399 . S
C2279 C2278 1.394 . S
C2279 C2280 1.516 . S
C2280 C2279 1.516 . S
C2280 C2281 1.502 . S
C2280 C2282 1.561 . S
C2280 C2283 1.526 . S
C2281 H2265 0.959 . S
C2281 H2266 0.959 . S
C2281 H2267 0.961 . S
C2281 C2280 1.502 . S
C2282 H2268 0.960 . S
C2282 H2269 0.961 . S
C2282 H2270 0.959 . S
C2282 C2280 1.561 . S
C2283 C2280 1.526 . S
C2283 C2284 1.396 . S
C2283 C2288 1.390 . S
C2284 C2278 1.465 . S
C2284 C2283 1.396 . S
C2284 C2285 1.399 . S
C2285 H2271 0.929 . S
C2285 C2284 1.399 . S
C2285 C2286 1.385 . S
C2286 H2272 0.931 . S
C2286 C2285 1.385 . S
C2286 C2287 1.389 . S
C2287 C2286 1.389 . S
C2287 C2288 1.387 . S
C2288 H2273 0.930 . S
C2288 C2283 1.390 . S
C2288 C2287 1.387 . S
H2289 C2301 0.930 . S
H2290 C2303 0.930 . S
H2291 C2304 0.930 . S
H2292 C2308 0.959 . S
H2293 C2308 0.959 . S
H2294 C2308 0.961 . S
H2295 C2309 0.960 . S
H2296 C2309 0.961 . S
H2297 C2309 0.959 . S
H2298 C2312 0.929 . S
H2299 C2313 0.931 . S
H2300 C2315 0.930 . S
C2301 H2289 0.930 . S
C2301 C2302 1.399 . S
C2301 C2306 1.399 . S
C2302 C2301 1.399 . S
C2302 C2303 1.376 . S
C2303 H2290 0.930 . S
C2303 C2302 1.376 . S
C2303 C2304 1.388 . S
C2304 H2291 0.930 . S
C2304 C2303 1.388 . S
C2304 C2305 1.390 . S
C2305 C2304 1.390 . S
C2305 C2306 1.394 . S
C2305 C2311 1.465 . S
C2306 C2301 1.399 . S
C2306 C2305 1.394 . S
C2306 C2307 1.516 . S
C2307 C2306 1.516 . S
C2307 C2308 1.502 . S
C2307 C2309 1.561 . S
C2307 C2310 1.526 . S
C2308 H2292 0.959 . S
C2308 H2293 0.959 . S
C2308 H2294 0.961 . S
C2308 C2307 1.502 . S
C2309 H2295 0.960 . S
C2309 H2296 0.961 . S
C2309 H2297 0.959 . S
C2309 C2307 1.561 . S
C2310 C2307 1.526 . S
C2310 C2311 1.396 . S
C2310 C2315 1.390 . S
C2311 C2305 1.465 . S
C2311 C2310 1.396 . S
C2311 C2312 1.399 . S
C2312 H2298 0.929 . S
C2312 C2311 1.399 . S
C2312 C2313 1.385 . S
C2313 H2299 0.931 . S
C2313 C2312 1.385 . S
C2313 C2314 1.389 . S
C2314 C2313 1.389 . S
C2314 C2315 1.387 . S
C2315 H2300 0.930 . S
C2315 C2310 1.390 . S
C2315 C2314 1.387 . S
H2316 C2328 0.930 . S
H2317 C2330 0.930 . S
H2318 C2331 0.930 . S
H2319 C2335 0.959 . S
H2320 C2335 0.959 . S
H2321 C2335 0.961 . S
H2322 C2336 0.960 . S
H2323 C2336 0.961 . S
H2324 C2336 0.959 . S
H2325 C2339 0.929 . S
H2326 C2340 0.931 . S
H2327 C2342 0.930 . S
C2328 H2316 0.930 . S
C2328 C2329 1.399 . S
C2328 C2333 1.399 . S
C2329 C2328 1.399 . S
C2329 C2330 1.376 . S
C2330 H2317 0.930 . S
C2330 C2329 1.376 . S
C2330 C2331 1.388 . S
C2331 H2318 0.930 . S
C2331 C2330 1.388 . S
C2331 C2332 1.390 . S
C2332 C2331 1.390 . S
C2332 C2333 1.394 . S
C2332 C2338 1.465 . S
C2333 C2328 1.399 . S
C2333 C2332 1.394 . S
C2333 C2334 1.516 . S
C2334 C2333 1.516 . S
C2334 C2335 1.502 . S
C2334 C2336 1.561 . S
C2334 C2337 1.526 . S
C2335 H2319 0.959 . S
C2335 H2320 0.959 . S
C2335 H2321 0.961 . S
C2335 C2334 1.502 . S
C2336 H2322 0.960 . S
C2336 H2323 0.961 . S
C2336 H2324 0.959 . S
C2336 C2334 1.561 . S
C2337 C2334 1.526 . S
C2337 C2338 1.396 . S
C2337 C2342 1.390 . S
C2338 C2332 1.465 . S
C2338 C2337 1.396 . S
C2338 C2339 1.399 . S
C2339 H2325 0.929 . S
C2339 C2338 1.399 . S
C2339 C2340 1.385 . S
C2340 H2326 0.931 . S
C2340 C2339 1.385 . S
C2340 C2341 1.389 . S
C2341 C2340 1.389 . S
C2341 C2342 1.387 . S
C2342 H2327 0.930 . S
C2342 C2337 1.390 . S
C2342 C2341 1.387 . S
H2343 C2355 0.930 . S
H2344 C2357 0.930 . S
H2345 C2358 0.930 . S
H2346 C2362 0.959 . S
H2347 C2362 0.959 . S
H2348 C2362 0.961 . S
H2349 C2363 0.960 . S
H2350 C2363 0.961 . S
H2351 C2363 0.959 . S
H2352 C2366 0.929 . S
H2353 C2367 0.931 . S
H2354 C2369 0.930 . S
C2355 H2343 0.930 . S
C2355 C2356 1.399 . S
C2355 C2360 1.399 . S
C2356 C2355 1.399 . S
C2356 C2357 1.376 . S
C2357 H2344 0.930 . S
C2357 C2356 1.376 . S
C2357 C2358 1.388 . S
C2358 H2345 0.930 . S
C2358 C2357 1.388 . S
C2358 C2359 1.390 . S
C2359 C2358 1.390 . S
C2359 C2360 1.394 . S
C2359 C2365 1.465 . S
C2360 C2355 1.399 . S
C2360 C2359 1.394 . S
C2360 C2361 1.516 . S
C2361 C2360 1.516 . S
C2361 C2362 1.502 . S
C2361 C2363 1.561 . S
C2361 C2364 1.526 . S
C2362 H2346 0.959 . S
C2362 H2347 0.959 . S
C2362 H2348 0.961 . S
C2362 C2361 1.502 . S
C2363 H2349 0.960 . S
C2363 H2350 0.961 . S
C2363 H2351 0.959 . S
C2363 C2361 1.561 . S
C2364 C2361 1.526 . S
C2364 C2365 1.396 . S
C2364 C2369 1.390 . S
C2365 C2359 1.465 . S
C2365 C2364 1.396 . S
C2365 C2366 1.399 . S
C2366 H2352 0.929 . S
C2366 C2365 1.399 . S
C2366 C2367 1.385 . S
C2367 H2353 0.931 . S
C2367 C2366 1.385 . S
C2367 C2368 1.389 . S
C2368 C2367 1.389 . S
C2368 C2369 1.387 . S
C2369 H2354 0.930 . S
C2369 C2364 1.390 . S
C2369 C2368 1.387 . S
H2370 C2382 0.930 . S
H2371 C2384 0.930 . S
H2372 C2385 0.930 . S
H2373 C2389 0.959 . S
H2374 C2389 0.959 . S
H2375 C2389 0.961 . S
H2376 C2390 0.960 . S
H2377 C2390 0.961 . S
H2378 C2390 0.959 . S
H2379 C2393 0.929 . S
H2380 C2394 0.931 . S
H2381 C2396 0.930 . S
C2382 H2370 0.930 . S
C2382 C2383 1.399 . S
C2382 C2387 1.399 . S
C2383 C2382 1.399 . S
C2383 C2384 1.376 . S
C2384 H2371 0.930 . S
C2384 C2383 1.376 . S
C2384 C2385 1.388 . S
C2385 H2372 0.930 . S
C2385 C2384 1.388 . S
C2385 C2386 1.390 . S
C2386 C2385 1.390 . S
C2386 C2387 1.394 . S
C2386 C2392 1.465 . S
C2387 C2382 1.399 . S
C2387 C2386 1.394 . S
C2387 C2388 1.516 . S
C2388 C2387 1.516 . S
C2388 C2389 1.502 . S
C2388 C2390 1.561 . S
C2388 C2391 1.526 . S
C2389 H2373 0.959 . S
C2389 H2374 0.959 . S
C2389 H2375 0.961 . S
C2389 C2388 1.502 . S
C2390 H2376 0.960 . S
C2390 H2377 0.961 . S
C2390 H2378 0.959 . S
C2390 C2388 1.561 . S
C2391 C2388 1.526 . S
C2391 C2392 1.396 . S
C2391 C2396 1.390 . S
C2392 C2386 1.465 . S
C2392 C2391 1.396 . S
C2392 C2393 1.399 . S
C2393 H2379 0.929 . S
C2393 C2392 1.399 . S
C2393 C2394 1.385 . S
C2394 H2380 0.931 . S
C2394 C2393 1.385 . S
C2394 C2395 1.389 . S
C2395 C2394 1.389 . S
C2395 C2396 1.387 . S
C2396 H2381 0.930 . S
C2396 C2391 1.390 . S
C2396 C2395 1.387 . S
H2397 C2409 0.930 . S
H2398 C2411 0.930 . S
H2399 C2412 0.930 . S
H2400 C2416 0.959 . S
H2401 C2416 0.974 . S
H2402 C2416 0.961 . S
H2403 C2417 0.960 . S
H2404 C2417 0.961 1_565 S
H2405 C2417 0.957 1_565 S
H2406 C2420 0.929 . S
H2407 C2421 0.931 . S
H2408 C2423 0.930 . S
C2409 H2397 0.930 . S
C2409 C2410 1.399 . S
C2409 C2414 1.399 . S
C2410 C2409 1.399 . S
C2410 C2411 1.376 . S
C2411 H2398 0.930 . S
C2411 C2410 1.376 . S
C2411 C2412 1.388 . S
C2412 H2399 0.930 . S
C2412 C2411 1.388 . S
C2412 C2413 1.390 . S
C2413 C2412 1.390 . S
C2413 C2414 1.394 . S
C2413 C2419 1.465 . S
C2414 C2409 1.399 . S
C2414 C2413 1.394 . S
C2414 C2415 1.516 . S
C2415 C2414 1.516 . S
C2415 C2416 1.502 . S
C2415 C2417 1.561 . S
C2415 C2418 1.526 . S
C2416 H2400 0.959 . S
C2416 H2401 0.974 . S
C2416 H2402 0.961 . S
C2416 C2415 1.502 . S
C2417 H2403 0.960 . S
C2417 H2404 0.961 1_545 S
C2417 H2405 0.957 1_545 S
C2417 C2415 1.561 . S
C2418 C2415 1.526 . S
C2418 C2419 1.396 . S
C2418 C2423 1.390 1_545 S
C2419 C2413 1.465 . S
C2419 C2418 1.396 . S
C2419 C2420 1.399 . S
C2420 H2406 0.929 . S
C2420 C2419 1.399 . S
C2420 C2421 1.385 1_545 S
C2421 H2407 0.931 . S
C2421 C2420 1.385 1_565 S
C2421 C2422 1.389 . S
C2422 C2421 1.389 . S
C2422 C2423 1.387 . S
C2423 H2408 0.930 . S
C2423 C2418 1.390 1_565 S
C2423 C2422 1.387 . S
C1153 C968 1.626 1_556 S
C1141 C331 1.578 . S
C1180 C983 1.717 . S
C1168 C380 1.717 . S
C1195 C421 1.672 . S
C1207 C996 1.695 . S
C1234 C1010 1.611 . S
C1222 C260 1.623 . S
C1261 C1022 1.644 . S
C1249 C620 1.648 . S
C1288 C1036 1.397 . S
C1276 C740 1.355 . S
C1303 C680 1.739 . S
C1315 C1050 1.720 . S
C1342 C1065 1.507 . S
C1330 C571 1.487 . S
C1357 C691 1.637 . S
C1369 C1081 1.679 . S
C1396 C1094 1.582 . S
C1384 C541 1.492 . S
C1411 C601 1.570 . S
C1423 C1079 1.520 . S
C1450 C1092 1.579 . S
C1438 C721 1.459 . S
C1465 C451 1.835 . S
C1477 C1108 1.841 . S
C1492 C241 1.632 . S
C1504 C1107 1.613 . S
C1519 C320 1.728 . S
C1531 C1106 1.647 . S
C1546 C391 1.599 . S
C1558 C1109 1.621 . S
C1573 C211 1.633 . S
C1585 C1011 1.673 . S
C1600 C841 1.503 . S
C1612 C1009 1.447 . S
C1639 C969 1.524 . S
C1627 C901 1.573 . S
C1666 C980 1.767 . S
C1654 C500 1.732 . S
C1681 C271 1.635 1_545 S
C1693 C1025 1.613 . S
C1720 C1066 1.888 . S
C1708 C661 1.863 . S
C1747 C1023 1.557 . S
C1735 C560 1.423 . S
C1774 C1051 1.579 . S
C1762 C751 1.532 . S
C1801 C1052 1.626 . S
C1789 C871 1.575 . S
C1816 C920 1.734 . S
C1828 C1067 1.701 . S
C1843 C481 1.658 . S
C1855 C1024 1.681 . S
C1882 C1038 1.558 . S
C1870 C800 1.589 . S
C1897 C200 1.659 . S
C1909 C994 1.630 . S
C1936 C1008 1.372 . S
C1924 C20 1.275 . S
C1963 C966 1.713 . S
C1951 C80 1.708 . S
C1990 C981 1.533 . S
C1978 C151 1.499 . S
C2005 C91 1.633 . S
C2017 C1095 1.679 . S
C2032 C121 1.480 . S
C2044 C1080 1.587 . S
C2059 C181 1.533 . S
C2071 C1093 1.577 . S
C2086 C1 1.459 . S
C2098 C1078 1.554 . S
C2125 C1122 1.836 . S
C2113 C511 1.834 . S
C2152 C1121 1.626 . S
C2140 C781 1.641 . S
C2179 C1120 1.701 . S
C2167 C860 1.693 . S
C2194 C931 1.582 1_554 S
C2206 C1123 1.634 . S
C2221 C631 1.623 . S
C2233 C1039 1.676 . S
C2260 C1037 1.494 . S
C2248 C301 1.463 . S
C2287 C1053 1.521 . S
C2275 C361 1.572 . S
C2314 C1064 1.723 . S
C2302 C440 1.771 . S
C2329 C811 1.636 . S
C2341 C997 1.594 . S
C2368 C982 1.871 . S
C2356 C61 1.872 . S
C2383 C140 1.435 . S
C2395 C995 1.544 . S
C2422 C967 1.522 . S
C2410 C31 1.450 . S
