# Generated by pormake.
# Topology pto, (3,4)-cn, num edge types: 1
# Building blocks:
#     Node 0, Type 0, BuildingBlock: ESEHIV_clean_linker_0, # of connection points: 3
#     Node 1, Type 0, BuildingBlock: ESEHIV_clean_linker_0, # of connection points: 3
#     Node 2, Type 0, BuildingBlock: ESEHIV_clean_linker_0, # of connection points: 3
#     Node 3, Type 0, BuildingBlock: ESEHIV_clean_linker_0, # of connection points: 3
#     Node 4, Type 0, BuildingBlock: ESEHIV_clean_linker_0, # of connection points: 3
#     Node 5, Type 0, BuildingBlock: ESEHIV_clean_linker_0, # of connection points: 3
#     Node 6, Type 0, BuildingBlock: ESEHIV_clean_linker_0, # of connection points: 3
#     Node 7, Type 0, BuildingBlock: ESEHIV_clean_linker_0, # of connection points: 3
#     Node 8, Type 1, BuildingBlock: NAWXER_clean_sbu_0, # of connection points: 4
#     Node 9, Type 1, BuildingBlock: NAWXER_clean_sbu_0, # of connection points: 4
#     Node 10, Type 1, BuildingBlock: NAWXER_clean_sbu_0, # of connection points: 4
#     Node 11, Type 1, BuildingBlock: NAWXER_clean_sbu_0, # of connection points: 4
#     Node 12, Type 1, BuildingBlock: NAWXER_clean_sbu_0, # of connection points: 4
#     Node 13, Type 1, BuildingBlock: NAWXER_clean_sbu_0, # of connection points: 4
#     Edge 14, Type (0, 1), BuildingBlock: EZIPEK_clean_linker_0, # of connection points: 2
#     Edge 15, Type (0, 1), BuildingBlock: EZIPEK_clean_linker_0, # of connection points: 2
#     Edge 16, Type (0, 1), BuildingBlock: EZIPEK_clean_linker_0, # of connection points: 2
#     Edge 17, Type (0, 1), BuildingBlock: EZIPEK_clean_linker_0, # of connection points: 2
#     Edge 18, Type (0, 1), BuildingBlock: EZIPEK_clean_linker_0, # of connection points: 2
#     Edge 19, Type (0, 1), BuildingBlock: EZIPEK_clean_linker_0, # of connection points: 2
#     Edge 20, Type (0, 1), BuildingBlock: EZIPEK_clean_linker_0, # of connection points: 2
#     Edge 21, Type (0, 1), BuildingBlock: EZIPEK_clean_linker_0, # of connection points: 2
#     Edge 22, Type (0, 1), BuildingBlock: EZIPEK_clean_linker_0, # of connection points: 2
#     Edge 23, Type (0, 1), BuildingBlock: EZIPEK_clean_linker_0, # of connection points: 2
#     Edge 24, Type (0, 1), BuildingBlock: EZIPEK_clean_linker_0, # of connection points: 2
#     Edge 25, Type (0, 1), BuildingBlock: EZIPEK_clean_linker_0, # of connection points: 2
#     Edge 26, Type (0, 1), BuildingBlock: EZIPEK_clean_linker_0, # of connection points: 2
#     Edge 27, Type (0, 1), BuildingBlock: EZIPEK_clean_linker_0, # of connection points: 2
#     Edge 28, Type (0, 1), BuildingBlock: EZIPEK_clean_linker_0, # of connection points: 2
#     Edge 29, Type (0, 1), BuildingBlock: EZIPEK_clean_linker_0, # of connection points: 2
#     Edge 30, Type (0, 1), BuildingBlock: EZIPEK_clean_linker_0, # of connection points: 2
#     Edge 31, Type (0, 1), BuildingBlock: EZIPEK_clean_linker_0, # of connection points: 2
#     Edge 32, Type (0, 1), BuildingBlock: EZIPEK_clean_linker_0, # of connection points: 2
#     Edge 33, Type (0, 1), BuildingBlock: EZIPEK_clean_linker_0, # of connection points: 2
#     Edge 34, Type (0, 1), BuildingBlock: EZIPEK_clean_linker_0, # of connection points: 2
#     Edge 35, Type (0, 1), BuildingBlock: EZIPEK_clean_linker_0, # of connection points: 2
#     Edge 36, Type (0, 1), BuildingBlock: EZIPEK_clean_linker_0, # of connection points: 2
#     Edge 37, Type (0, 1), BuildingBlock: EZIPEK_clean_linker_0, # of connection points: 2
# Relax obj value: 0.000
# Max RMSD: 0.005
# Mean RMSD: 0.003
data_MOF--net-pto--node1-NAWXER_clean_sbu_0--node2-ESEHIV_clean_linker_0--edge1-EZIPEK_clean_linker_0
_symmetry_space_group_name_H-M    P1
_symmetry_Int_Tables_number       1
_symmetry_cell_setting            triclinic
loop_
_symmetry_equiv_pos_as_xyz
'x, y, z'
_cell_length_a     28.713882
_cell_length_b     26.864695
_cell_length_c     25.319882
_cell_angle_alpha  90.169539
_cell_angle_beta   89.931173
_cell_angle_gamma 89.95032
loop_
_atom_site_label
_atom_site_type_symbol
_atom_site_fract_x
_atom_site_fract_y
_atom_site_fract_z
_atom_type_partial_charge
H0 H 0.27077 0.3245 0.16465 0.0
H1 H 0.35187 0.22732 0.26345 0.0
H2 H 0.20524 0.24732 0.29329 0.0
C3 C 0.27325 0.29903 0.1977 0.0
C4 C 0.23367 0.28988 0.22845 0.0
C5 C 0.31628 0.27759 0.2103 0.0
C6 C 0.3189 0.24458 0.25353 0.0
C7 C 0.27859 0.23165 0.28217 0.0
C8 C 0.23608 0.25536 0.27014 0.0
H9 H 0.26829 0.69014 0.85133 0.0
H10 H 0.34953 0.80437 0.77653 0.0
H11 H 0.2066 0.78012 0.73001 0.0
C12 C 0.27123 0.71983 0.82252 0.0
C13 C 0.23259 0.73238 0.79194 0.0
C14 C 0.31327 0.74547 0.81756 0.0
C15 C 0.31712 0.78405 0.78022 0.0
C16 C 0.27871 0.79675 0.74815 0.0
C17 C 0.23632 0.77075 0.75437 0.0
H18 H 0.7207 0.79757 0.27573 0.0
H19 H 0.86678 0.76321 0.28035 0.0
H20 H 0.77432 0.67619 0.18288 0.0
C21 C 0.74997 0.77553 0.26191 0.0
C22 C 0.74246 0.73692 0.22522 0.0
C23 C 0.79482 0.78629 0.28081 0.0
C24 C 0.83241 0.75652 0.26417 0.0
C25 C 0.82491 0.71547 0.23016 0.0
C26 C 0.78019 0.70717 0.20959 0.0
H27 H 0.71854 0.23213 0.72508 0.0
H28 H 0.86459 0.26684 0.728 0.0
H29 H 0.76874 0.35145 0.82359 0.0
C30 C 0.74708 0.25437 0.7402 0.0
C31 C 0.73831 0.29183 0.77821 0.0
C32 C 0.79272 0.24431 0.72298 0.0
C33 C 0.82952 0.27359 0.74222 0.0
C34 C 0.82079 0.31364 0.77704 0.0
C35 C 0.77542 0.32141 0.79589 0.0
H36 H 0.68947 0.83614 0.79428 0.0
H37 H 0.76438 0.71139 0.85883 0.0
H38 H 0.81582 0.78624 0.72031 0.0
C39 C 0.71929 0.81129 0.79358 0.0
C40 C 0.75231 0.8157 0.75345 0.0
C41 C 0.72397 0.77476 0.8324 0.0
C42 C 0.76145 0.74084 0.82988 0.0
C43 C 0.79463 0.74488 0.78898 0.0
C44 C 0.79042 0.78313 0.75189 0.0
H45 H 0.68986 0.19177 0.22521 0.0
H46 H 0.77364 0.30991 0.16084 0.0
H47 H 0.80793 0.24595 0.31187 0.0
C48 C 0.71963 0.21649 0.22799 0.0
C49 C 0.74815 0.21476 0.27252 0.0
C50 C 0.72881 0.25017 0.18736 0.0
C51 C 0.76699 0.28293 0.19166 0.0
C52 C 0.7955 0.28169 0.23698 0.0
C53 C 0.78606 0.24721 0.277 0.0
H54 H 0.17563 0.29565 0.68614 0.0
H55 H 0.29123 0.20928 0.7421 0.0
H56 H 0.26592 0.35565 0.80625 0.0
C57 C 0.20609 0.29231 0.71121 0.0
C58 C 0.21816 0.33124 0.74527 0.0
C59 C 0.23236 0.2486 0.71005 0.0
C60 C 0.27104 0.24342 0.74309 0.0
C61 C 0.28344 0.28176 0.77788 0.0
C62 C 0.25703 0.32609 0.77887 0.0
H63 H 0.17849 0.72977 0.34102 0.0
H64 H 0.26549 0.67011 0.21731 0.0
H65 H 0.29457 0.81464 0.28367 0.0
C66 C 0.20859 0.73288 0.31531 0.0
C67 C 0.23566 0.77603 0.3166 0.0
C68 C 0.21935 0.69435 0.28005 0.0
C69 C 0.25769 0.69928 0.24562 0.0
C70 C 0.28488 0.74293 0.24684 0.0
C71 C 0.27384 0.78091 0.28269 0.0
C72 C 0.95012 0.4172 0.26504 0.0
C73 C 0.07748 0.54099 0.27569 0.0
O74 O 0.96876 0.43194 0.30804 0.0
Zn75 Zn 0.01387 0.4778 0.27699 0.0
O76 O 0.96479 0.43372 0.22066 0.0
Zn77 Zn 0.01562 0.48363 0.19049 0.0
O78 O 0.05855 0.43851 0.15276 0.0
O79 O 0.06099 0.42931 0.23952 0.0
O80 O 0.06461 0.52805 0.22952 0.0
O81 O 0.05758 0.52179 0.31591 0.0
O82 O 0.96883 0.53137 0.24565 0.0
O83 O 0.97843 0.53885 0.16021 0.0
C84 C 0.07539 0.41722 0.19351 0.0
C85 C 0.95907 0.55383 0.2028 0.0
C86 C 0.95649 0.47112 0.81547 0.0
C87 C 0.07345 0.60693 0.82698 0.0
O88 O 0.97527 0.4851 0.85874 0.0
Zn89 Zn 0.01322 0.54081 0.8301 0.0
O90 O 0.96699 0.49429 0.77331 0.0
Zn91 Zn 0.012 0.54772 0.74295 0.0
O92 O 0.05635 0.50347 0.70442 0.0
O93 O 0.06216 0.49689 0.79086 0.0
O94 O 0.05881 0.59527 0.78105 0.0
O95 O 0.05666 0.58552 0.86776 0.0
O96 O 0.96295 0.59118 0.80058 0.0
O97 O 0.96667 0.59447 0.71323 0.0
C98 C 0.07573 0.48411 0.74489 0.0
C99 C 0.94818 0.60851 0.75667 0.0
C100 C 0.28104 0.9526 0.58842 0.0
C101 C 0.27995 0.07597 0.44253 0.0
O102 O 0.24012 0.96452 0.57265 0.0
Zn103 Zn 0.20859 1.01236 0.51435 0.0
O104 O 0.31641 0.97295 0.56711 0.0
Zn105 Zn 0.28316 0.01398 0.5152 0.0
O106 O 0.24934 0.06797 0.56328 0.0
O107 O 0.1729 0.05791 0.55707 0.0
O108 O 0.31569 0.05699 0.46444 0.0
O109 O 0.23925 0.062 0.45714 0.0
O110 O 0.17587 0.96523 0.4708 0.0
O111 O 0.2527 0.95834 0.46631 0.0
C112 C 0.20785 0.08089 0.57582 0.0
C113 C 0.21199 0.94368 0.45286 0.0
C114 C 0.56726 0.70966 0.11784 0.0
C115 C 0.4551 0.70218 0.96969 0.0
O116 O 0.55379 0.66913 0.09637 0.0
Zn117 Zn 0.51131 0.69903 0.04347 0.0
O118 O 0.55172 0.75044 0.0992 0.0
Zn119 Zn 0.50668 0.78099 0.04355 0.0
O120 O 0.45904 0.81148 0.08871 0.0
O121 O 0.45864 0.7292 0.09266 0.0
O122 O 0.46531 0.74543 0.98705 0.0
O123 O 0.47335 0.66356 0.99042 0.0
O124 O 0.55975 0.73556 0.99435 0.0
O125 O 0.55101 0.81738 0.9996 0.0
C126 C 0.44169 0.77125 0.10669 0.0
C127 C 0.57219 0.77941 0.98105 0.0
C128 C 0.73932 0.95589 0.58299 0.0
C129 C 0.7298 0.07558 0.44078 0.0
O130 O 0.70212 0.9735 0.56326 0.0
Zn131 Zn 0.73152 0.01572 0.5112 0.0
O132 O 0.77903 0.96865 0.56486 0.0
Zn133 Zn 0.80665 0.01433 0.5053 0.0
O134 O 0.84194 0.06294 0.54801 0.0
O135 O 0.76588 0.0695 0.55944 0.0
O136 O 0.77137 0.06179 0.45162 0.0
O137 O 0.69514 0.05837 0.46623 0.0
O138 O 0.75776 0.96341 0.45469 0.0
O139 O 0.8342 0.96379 0.45757 0.0
C140 C 0.8072 0.084 0.57022 0.0
C141 C 0.79666 0.94584 0.4385 0.0
C142 C 0.57992 0.24617 0.03332 0.0
C143 C 0.44416 0.25143 0.91181 0.0
O144 O 0.55912 0.20718 0.01649 0.0
Zn145 Zn 0.5118 0.24072 0.97176 0.0
O146 O 0.56586 0.28891 0.01857 0.0
Zn147 Zn 0.51396 0.32362 0.97449 0.0
O148 O 0.47815 0.35289 0.03513 0.0
O149 O 0.47036 0.27202 0.02982 0.0
O150 O 0.46044 0.29334 0.92709 0.0
O151 O 0.46309 0.21092 0.92716 0.0
O152 O 0.5538 0.27394 0.91507 0.0
O153 O 0.55389 0.35522 0.91926 0.0
C154 C 0.46031 0.31272 0.05299 0.0
C155 C 0.56756 0.31535 0.89628 0.0
C156 C 0.15192 0.3013 0.19262 0.0
C157 C 0.19159 0.32105 0.21885 0.0
C158 C 0.15914 0.40507 0.21135 0.0
C159 C 0.11717 0.38493 0.19124 0.0
N160 N 0.07124 0.31383 0.16645 0.0
N161 N 0.22904 0.39041 0.26217 0.0
C162 C 0.11292 0.33295 0.18259 0.0
C163 C 0.1941 0.37265 0.23067 0.0
N164 N 0.15198 0.2528 0.1763 0.0
N165 N 0.16561 0.45548 0.21153 0.0
H166 H 0.2546 0.36754 0.2785 0.0
H167 H 0.23002 0.42677 0.27652 0.0
H168 H 0.14102 0.48008 0.19616 0.0
H169 H 0.19702 0.47243 0.22151 0.0
H170 H 0.1262 0.23752 0.15236 0.0
H171 H 0.17957 0.22856 0.18387 0.0
H172 H 0.06399 0.27587 0.16538 0.0
H173 H 0.04297 0.33641 0.15658 0.0
C174 C 0.15093 0.72185 0.82813 0.0
C175 C 0.1895 0.70239 0.79938 0.0
C176 C 0.15659 0.61866 0.80597 0.0
C177 C 0.11553 0.63867 0.82873 0.0
N178 N 0.07101 0.70965 0.85735 0.0
N179 N 0.22478 0.63395 0.75223 0.0
C180 C 0.11197 0.69044 0.83889 0.0
C181 C 0.19099 0.65121 0.78573 0.0
N182 N 0.15214 0.76968 0.84652 0.0
N183 N 0.16287 0.56824 0.80447 0.0
H184 H 0.25004 0.65708 0.73568 0.0
H185 H 0.22495 0.59799 0.73673 0.0
H186 H 0.13892 0.54358 0.82097 0.0
H187 H 0.19375 0.5513 0.79235 0.0
H188 H 0.1274 0.78431 0.87237 0.0
H189 H 0.17967 0.79388 0.83868 0.0
H190 H 0.06418 0.74767 0.85965 0.0
H191 H 0.04289 0.68716 0.86786 0.0
C192 C 0.87383 0.66084 0.16944 0.0
C193 C 0.86203 0.67729 0.22117 0.0
C194 C 0.92274 0.6236 0.25625 0.0
C195 C 0.92791 0.59892 0.20634 0.0
N196 N 0.89782 0.59017 0.11696 0.0
N197 N 0.86629 0.65998 0.31484 0.0
C198 C 0.90078 0.61654 0.163 0.0
C199 C 0.88374 0.65448 0.26492 0.0
N200 N 0.85981 0.68751 0.12651 0.0
N201 N 0.95537 0.61978 0.29531 0.0
H202 H 0.83538 0.67884 0.32311 0.0
H203 H 0.87957 0.6403 0.34696 0.0
H204 H 0.98735 0.60218 0.29078 0.0
H205 H 0.95322 0.64043 0.3302 0.0
H206 H 0.87087 0.6792 0.08824 0.0
H207 H 0.84138 0.72086 0.12992 0.0
H208 H 0.87525 0.60014 0.08655 0.0
H209 H 0.91296 0.55541 0.11129 0.0
C210 C 0.86816 0.36529 0.84215 0.0
C211 C 0.8579 0.35089 0.78934 0.0
C212 C 0.92141 0.40325 0.75905 0.0
C213 C 0.92523 0.4264 0.80989 0.0
N214 N 0.89276 0.43304 0.89845 0.0
N215 N 0.86634 0.3708 0.69664 0.0
C216 C 0.89622 0.40832 0.85144 0.0
C217 C 0.88195 0.37417 0.74749 0.0
N218 N 0.85182 0.33774 0.8834 0.0
N219 N 0.9557 0.407 0.72177 0.0
H220 H 0.83518 0.35346 0.68635 0.0
H221 H 0.8815 0.39084 0.66585 0.0
H222 H 0.98784 0.42351 0.72846 0.0
H223 H 0.95443 0.38739 0.68616 0.0
H224 H 0.86166 0.34441 0.92241 0.0
H225 H 0.83264 0.30516 0.87795 0.0
H226 H 0.86879 0.42305 0.9275 0.0
H227 H 0.90942 0.46654 0.90644 0.0
C228 C 0.2917 0.2035 0.37646 0.0
C229 C 0.28073 0.1915 0.32322 0.0
C230 C 0.27163 0.10323 0.34773 0.0
C231 C 0.2842 0.1149 0.40062 0.0
N232 N 0.31176 0.17456 0.46457 0.0
N233 N 0.26635 0.12963 0.25614 0.0
C234 C 0.29611 0.16461 0.41465 0.0
C235 C 0.27244 0.1412 0.30833 0.0
N236 N 0.29641 0.25237 0.39076 0.0
N237 N 0.25821 0.05576 0.33539 0.0
H238 H 0.26508 0.15643 0.22645 0.0
H239 H 0.26549 0.09342 0.24149 0.0
H240 H 0.2604 0.02632 0.36205 0.0
H241 H 0.24286 0.04573 0.2997 0.0
H242 H 0.2992 0.26459 0.42965 0.0
H243 H 0.29447 0.2815 0.36368 0.0
H244 H 0.32557 0.20865 0.47624 0.0
H245 H 0.31365 0.14762 0.49405 0.0
C246 C 0.34279 0.73963 0.91009 0.0
C247 C 0.35126 0.73283 0.85529 0.0
C248 C 0.42723 0.69522 0.87579 0.0
C249 C 0.41714 0.6999 0.93039 0.0
N250 N 0.36053 0.71288 0.999 0.0
N251 N 0.39733 0.6952 0.78605 0.0
C252 C 0.37314 0.71746 0.9472 0.0
C253 C 0.39231 0.70791 0.83802 0.0
N254 N 0.30678 0.76914 0.92673 0.0
N255 N 0.47056 0.68021 0.86019 0.0
H256 H 0.37262 0.70407 0.75742 0.0
H257 H 0.42423 0.67274 0.77201 0.0
H258 H 0.49584 0.66861 0.88708 0.0
H259 H 0.48205 0.68156 0.8212 0.0
H260 H 0.30169 0.7791 0.96611 0.0
H261 H 0.28481 0.78791 0.9007 0.0
H262 H 0.32708 0.72058 0.01278 0.0
H263 H 0.38221 0.69625 0.02695 0.0
C264 C 0.82234 0.87196 0.31064 0.0
C265 C 0.80054 0.82581 0.32219 0.0
C266 C 0.77077 0.86054 0.40513 0.0
C267 C 0.79712 0.90508 0.39745 0.0
N268 N 0.84942 0.95241 0.34196 0.0
N269 N 0.76535 0.77233 0.38698 0.0
C270 C 0.82388 0.91023 0.35019 0.0
C271 C 0.77856 0.81897 0.37159 0.0
N272 N 0.83933 0.88022 0.26099 0.0
N273 N 0.73633 0.85784 0.44229 0.0
H274 H 0.77104 0.74073 0.36377 0.0
H275 H 0.75358 0.76443 0.42501 0.0
H276 H 0.72598 0.88721 0.46619 0.0
H277 H 0.71367 0.82767 0.44504 0.0
H278 H 0.85074 0.9148 0.24784 0.0
H279 H 0.83897 0.85314 0.2314 0.0
H280 H 0.87426 0.95563 0.31218 0.0
H281 H 0.84704 0.98388 0.36595 0.0
C282 C 0.66944 0.34762 0.80225 0.0
C283 C 0.69058 0.29951 0.80088 0.0
C284 C 0.61867 0.2652 0.83567 0.0
C285 C 0.60339 0.31316 0.85243 0.0
N286 N 0.61184 0.40227 0.84208 0.0
N287 N 0.68642 0.21341 0.82897 0.0
C288 C 0.62804 0.3553 0.83296 0.0
C289 C 0.66552 0.25845 0.82104 0.0
N290 N 0.68735 0.38511 0.77211 0.0
N291 N 0.58839 0.22626 0.83153 0.0
H292 H 0.72198 0.2074 0.82356 0.0
H293 H 0.66913 0.18389 0.84715 0.0
H294 H 0.55248 0.23084 0.83498 0.0
H295 H 0.59853 0.19156 0.81686 0.0
H296 H 0.67131 0.41965 0.76787 0.0
H297 H 0.71561 0.37987 0.74676 0.0
H298 H 0.63199 0.43399 0.83607 0.0
H299 H 0.57804 0.40958 0.85478 0.0
C300 C 0.27178 0.88736 0.72253 0.0
C301 C 0.28272 0.83755 0.70807 0.0
C302 C 0.30088 0.86522 0.61751 0.0
C303 C 0.28599 0.9142 0.63077 0.0
N304 N 0.25548 0.97223 0.69472 0.0
N305 N 0.3045 0.77764 0.64158 0.0
C306 C 0.27107 0.92533 0.68307 0.0
C307 C 0.29672 0.82618 0.65552 0.0
N308 N 0.26288 0.89842 0.77434 0.0
N309 N 0.319 0.85606 0.56845 0.0
H310 H 0.30326 0.74843 0.6686 0.0
H311 H 0.30939 0.76558 0.60289 0.0
H312 H 0.32072 0.88298 0.53894 0.0
H313 H 0.33501 0.8228 0.55764 0.0
H314 H 0.25947 0.93446 0.78898 0.0
H315 H 0.26183 0.87146 0.80388 0.0
H316 H 0.23862 0.98173 0.72972 0.0
H317 H 0.25766 1.00172 0.66812 0.0
C318 C 0.67362 0.6798 0.20546 0.0
C319 C 0.69484 0.72779 0.20334 0.0
C320 C 0.62142 0.76142 0.17242 0.0
C321 C 0.60515 0.71309 0.15892 0.0
N322 N 0.61375 0.62434 0.17214 0.0
N323 N 0.6896 0.81274 0.17183 0.0
C324 C 0.63069 0.67141 0.17808 0.0
C325 C 0.66898 0.76822 0.18303 0.0
N326 N 0.69272 0.64333 0.23608 0.0
N327 N 0.59146 0.80059 0.17765 0.0
H328 H 0.72543 0.81849 0.17467 0.0
H329 H 0.67148 0.84172 0.15371 0.0
H330 H 0.5554 0.79588 0.1778 0.0
H331 H 0.60255 0.83578 0.18984 0.0
H332 H 0.67672 0.60915 0.24278 0.0
H333 H 0.72207 0.64917 0.25949 0.0
H334 H 0.63405 0.59264 0.17787 0.0
H335 H 0.57922 0.61698 0.16242 0.0
C336 C 0.80015 0.21424 0.62862 0.0
C337 C 0.80175 0.2037 0.68359 0.0
C338 C 0.81355 0.11472 0.66387 0.0
C339 C 0.81274 0.12541 0.60898 0.0
N340 N 0.81259 0.18516 0.53849 0.0
N341 N 0.81737 0.14598 0.75401 0.0
C342 C 0.8085 0.17527 0.59125 0.0
C343 C 0.81088 0.1545 0.70131 0.0
N344 N 0.78898 0.26122 0.61224 0.0
N345 N 0.81494 0.06624 0.68012 0.0
H346 H 0.81433 0.17387 0.78256 0.0
H347 H 0.8289 0.11223 0.76928 0.0
H348 H 0.81901 0.03646 0.65395 0.0
H349 H 0.80963 0.05512 0.71901 0.0
H350 H 0.78206 0.27054 0.57318 0.0
H351 H 0.78372 0.2908 0.63834 0.0
H352 H 0.81403 0.22086 0.52277 0.0
H353 H 0.81824 0.15733 0.51035 0.0
C354 C 0.36933 0.33877 0.16301 0.0
C355 C 0.35766 0.28879 0.1762 0.0
C356 C 0.42519 0.2614 0.12593 0.0
C357 C 0.42936 0.30902 0.1011 0.0
N358 N 0.39828 0.39321 0.0948 0.0
N359 N 0.36947 0.20142 0.15652 0.0
C360 C 0.39979 0.34815 0.11949 0.0
C361 C 0.38417 0.2497 0.15394 0.0
N362 N 0.35212 0.37728 0.19244 0.0
N363 N 0.46044 0.22726 0.12424 0.0
H364 H 0.33749 0.19097 0.17245 0.0
H365 H 0.38671 0.17264 0.13677 0.0
H366 H 0.49314 0.23473 0.1085 0.0
H367 H 0.45896 0.1938 0.14501 0.0
H368 H 0.36262 0.41406 0.18703 0.0
H369 H 0.33171 0.37163 0.22601 0.0
H370 H 0.37355 0.42026 0.10423 0.0
H371 H 0.41824 0.40242 0.06207 0.0
C372 C 0.82588 0.66397 0.75296 0.0
C373 C 0.83333 0.70844 0.78231 0.0
C374 C 0.91736 0.69168 0.78361 0.0
C375 C 0.90944 0.64506 0.7587 0.0
N376 N 0.8559 0.58342 0.72555 0.0
N377 N 0.88474 0.76214 0.83128 0.0
C378 C 0.86362 0.63034 0.74466 0.0
C379 C 0.87875 0.72158 0.79925 0.0
N380 N 0.78294 0.6545 0.73192 0.0
N381 N 0.96205 0.70783 0.79099 0.0
H382 H 0.85719 0.78489 0.84327 0.0
H383 H 0.91614 0.77097 0.84953 0.0
H384 H 0.99101 0.68711 0.77911 0.0
H385 H 0.97054 0.74336 0.80434 0.0
H386 H 0.77658 0.62595 0.70499 0.0
H387 H 0.75408 0.67728 0.73863 0.0
H388 H 0.82283 0.56825 0.72065 0.0
H389 H 0.88272 0.55822 0.71776 0.0
C390 C 0.82739 0.36327 0.27009 0.0
C391 C 0.83497 0.31697 0.24417 0.0
C392 C 0.91918 0.3328 0.24304 0.0
C393 C 0.91117 0.38097 0.26436 0.0
N394 N 0.85776 0.44489 0.29286 0.0
N395 N 0.88681 0.25915 0.20108 0.0
C396 C 0.86531 0.3969 0.27683 0.0
C397 C 0.88059 0.30212 0.22932 0.0
N398 N 0.78407 0.37465 0.28911 0.0
N399 N 0.9639 0.31607 0.2372 0.0
H400 H 0.85942 0.23542 0.19113 0.0
H401 H 0.91837 0.2487 0.18408 0.0
H402 H 0.99282 0.3375 0.24752 0.0
H403 H 0.9725 0.27975 0.22659 0.0
H404 H 0.77732 0.40495 0.31368 0.0
H405 H 0.75511 0.35187 0.28322 0.0
H406 H 0.82481 0.46074 0.29638 0.0
H407 H 0.88471 0.47015 0.29954 0.0
C408 C 0.18917 0.41438 0.71265 0.0
C409 C 0.18578 0.37426 0.74882 0.0
C410 C 0.10811 0.40215 0.77505 0.0
C411 C 0.11248 0.44482 0.74187 0.0
N412 N 0.16192 0.49654 0.68772 0.0
N413 N 0.14661 0.33542 0.82196 0.0
C414 C 0.15429 0.45231 0.71278 0.0
C415 C 0.14675 0.3701 0.78249 0.0
N416 N 0.22537 0.41581 0.67764 0.0
N417 N 0.06631 0.3907 0.79791 0.0
H418 H 0.17383 0.31036 0.82802 0.0
H419 H 0.12161 0.33452 0.85179 0.0
H420 H 0.03668 0.41252 0.79422 0.0
H421 H 0.05964 0.35696 0.81659 0.0
H422 H 0.22696 0.4407 0.64622 0.0
H423 H 0.25255 0.39 0.67825 0.0
H424 H 0.19377 0.50612 0.67086 0.0
H425 H 0.13788 0.52561 0.68778 0.0
C426 C 0.1474 0.65702 0.24232 0.0
C427 C 0.1863 0.65202 0.27602 0.0
C428 C 0.15551 0.57247 0.30883 0.0
C429 C 0.11395 0.58037 0.27955 0.0
N430 N 0.06762 0.63519 0.2246 0.0
N431 N 0.22595 0.60849 0.34577 0.0
C432 C 0.10926 0.62396 0.24785 0.0
C433 C 0.18993 0.61074 0.31064 0.0
N434 N 0.14697 0.69332 0.20451 0.0
N435 N 0.16339 0.52756 0.3324 0.0
H436 H 0.25281 0.63464 0.34642 0.0
H437 H 0.22765 0.58256 0.3762 0.0
H438 H 0.13965 0.49825 0.33105 0.0
H439 H 0.19514 0.51775 0.34928 0.0
H440 H 0.12229 0.69499 0.17446 0.0
H441 H 0.17362 0.71933 0.20005 0.0
H442 H 0.06044 0.6694 0.20715 0.0
H443 H 0.03851 0.61242 0.22658 0.0
C444 C 0.74197 0.8346 0.65785 0.0
C445 C 0.74513 0.85211 0.7105 0.0
C446 C 0.73406 0.93754 0.6794 0.0
C447 C 0.7381 0.92012 0.62674 0.0
N448 N 0.76055 0.85349 0.56761 0.0
N449 N 0.75243 0.92144 0.77108 0.0
C450 C 0.74615 0.86903 0.61629 0.0
C451 C 0.74307 0.904 0.72146 0.0
N452 N 0.73431 0.78535 0.64739 0.0
N453 N 0.72271 0.98611 0.68918 0.0
H454 H 0.76116 0.89822 0.80248 0.0
H455 H 0.75597 0.95913 0.77993 0.0
H456 H 0.71753 1.01204 0.65915 0.0
H457 H 0.71502 0.99964 0.72679 0.0
H458 H 0.72807 0.77193 0.60937 0.0
H459 H 0.729 0.75902 0.677 0.0
H460 H 0.77028 0.81685 0.55952 0.0
H461 H 0.76877 0.87836 0.53767 0.0
C462 C 0.69625 0.21774 0.10147 0.0
C463 C 0.69472 0.25295 0.1434 0.0
C464 C 0.61612 0.27756 0.11727 0.0
C465 C 0.61853 0.24492 0.07272 0.0
N466 N 0.66509 0.19153 0.01679 0.0
N467 N 0.65737 0.3229 0.18544 0.0
C468 C 0.65972 0.21687 0.06328 0.0
C469 C 0.65604 0.28504 0.14921 0.0
N470 N 0.73232 0.18463 0.09867 0.0
N471 N 0.57495 0.29983 0.13086 0.0
H472 H 0.6854 0.32879 0.21083 0.0
H473 H 0.63265 0.35125 0.18711 0.0
H474 H 0.54447 0.29595 0.10927 0.0
H475 H 0.56969 0.31856 0.16644 0.0
H476 H 0.73273 0.15423 0.07305 0.0
H477 H 0.76078 0.18602 0.12424 0.0
H478 H 0.69626 0.17487 1.00528 0.0
H479 H 0.63966 0.19068 0.98745 0.0
C480 C 0.22797 0.21164 0.61954 0.0
C481 C 0.21887 0.20759 0.67439 0.0
C482 C 0.19273 0.12155 0.66295 0.0
C483 C 0.2021 0.12578 0.60828 0.0
N484 N 0.21549 0.17722 0.53215 0.0
N485 N 0.18263 0.16412 0.74683 0.0
C486 C 0.21531 0.17181 0.58582 0.0
C487 C 0.19793 0.16419 0.69567 0.0
N488 N 0.25091 0.25228 0.60011 0.0
N489 N 0.18099 0.07638 0.68375 0.0
H490 H 0.18597 0.19487 0.77181 0.0
H491 H 0.16327 0.13529 0.76323 0.0
H492 H 0.17507 0.045 0.66033 0.0
H493 H 0.17938 0.06934 0.72412 0.0
H494 H 0.26323 0.25455 0.56149 0.0
H495 H 0.26095 0.28236 0.62359 0.0
H496 H 0.22075 0.21115 0.51328 0.0
H497 H 0.20576 0.14853 0.50658 0.0
C498 C 0.31861 0.77862 0.16333 0.0
C499 C 0.32479 0.75039 0.21021 0.0
C500 C 0.40896 0.74716 0.19423 0.0
C501 C 0.40231 0.77088 0.14474 0.0
N502 N 0.3507 0.80542 0.07932 0.0
N503 N 0.3745 0.70366 0.26847 0.0
C504 C 0.35714 0.78611 0.12868 0.0
C505 C 0.36964 0.73349 0.22513 0.0
N506 N 0.27592 0.79862 0.15225 0.0
N507 N 0.4532 0.73917 0.21232 0.0
H508 H 0.3467 0.69403 0.29294 0.0
H509 H 0.40529 0.68539 0.27814 0.0
H510 H 0.48274 0.7496 0.19108 0.0
H511 H 0.46084 0.7266 0.25018 0.0
H512 H 0.27021 0.82445 0.12239 0.0
H513 H 0.24635 0.79167 0.17505 0.0
H514 H 0.3181 0.81183 0.06275 0.0
H515 H 0.378 0.81208 0.05311 0.0
C516 C 0.71926 0.19513 0.36345 0.0
C517 C 0.73805 0.17845 0.31463 0.0
C518 C 0.73563 0.0924 0.34532 0.0
C519 C 0.72367 0.10986 0.39635 0.0
N520 N 0.7074 0.1775 0.45635 0.0
N521 N 0.7689 0.11223 0.26011 0.0
C522 C 0.71579 0.16112 0.40606 0.0
C523 C 0.74714 0.12724 0.30555 0.0
N524 N 0.70414 0.24316 0.3687 0.0
N525 N 0.73589 0.04238 0.33514 0.0
H526 H 0.77842 0.13672 0.2301 0.0
H527 H 0.78105 0.07616 0.25391 0.0
H528 H 0.7271 0.01603 0.36367 0.0
H529 H 0.74031 0.02727 0.29754 0.0
H530 H 0.686 0.25614 0.40161 0.0
H531 H 0.70625 0.26911 0.33821 0.0
H532 H 0.70725 0.21497 0.46702 0.0
H533 H 0.70336 0.15338 0.48825 0.0
C534 C 0.31915 0.24701 0.86085 0.0
C535 C 0.32432 0.27419 0.8131 0.0
C536 C 0.40903 0.27583 0.82548 0.0
C537 C 0.4036 0.2525 0.87542 0.0
N538 N 0.35344 0.22125 0.94408 0.0
N539 N 0.37294 0.31883 0.75187 0.0
C540 C 0.35865 0.23909 0.89389 0.0
C541 C 0.36897 0.28981 0.79596 0.0
N542 N 0.27647 0.22832 0.87428 0.0
N543 N 0.4528 0.28352 0.80581 0.0
H544 H 0.34455 0.32864 0.72843 0.0
H545 H 0.40366 0.33627 0.74042 0.0
H546 H 0.4828 0.27382 0.82645 0.0
H547 H 0.4596 0.29552 0.76753 0.0
H548 H 0.2713 0.20325 0.905 0.0
H549 H 0.24634 0.23557 0.85263 0.0
H550 H 0.32127 0.21653 0.96238 0.0
H551 H 0.38153 0.21405 0.96899 0.0
C552 C 0.23464 0.81316 0.40718 0.0
C553 C 0.22335 0.81705 0.35289 0.0
C554 C 0.19732 0.90306 0.36551 0.0
C555 C 0.20831 0.89885 0.41981 0.0
N556 N 0.22542 0.84752 0.49514 0.0
N557 N 0.18473 0.8605 0.28211 0.0
C558 C 0.22308 0.85298 0.44154 0.0
C559 C 0.20164 0.86044 0.33258 0.0
N560 N 0.25835 0.7725 0.4254 0.0
N561 N 0.18488 0.94821 0.34512 0.0
H562 H 0.18749 0.82982 0.25691 0.0
H563 H 0.16464 0.88923 0.26663 0.0
H564 H 0.17982 0.97975 0.36858 0.0
H565 H 0.18207 0.95518 0.30483 0.0
H566 H 0.2723 0.77027 0.46325 0.0
H567 H 0.26724 0.74228 0.40146 0.0
H568 H 0.23181 0.81365 0.51368 0.0
H569 H 0.21645 0.87603 0.52133 0.0
C570 C 0.64224 0.75503 0.85794 0.0
C571 C 0.68701 0.77189 0.87329 0.0
C572 C 0.65617 0.79626 0.9601 0.0
C573 C 0.61073 0.78366 0.94266 0.0
N574 N 0.55892 0.75927 0.87253 0.0
N575 N 0.73617 0.81448 0.93593 0.0
C576 C 0.60335 0.7654 0.89078 0.0
C577 C 0.69395 0.7941 0.92363 0.0
N578 N 0.63721 0.72825 0.81229 0.0
N579 N 0.66348 0.8085 0.01188 0.0
H580 H 0.76496 0.81227 0.91086 0.0
H581 H 0.74188 0.83622 0.96941 0.0
H582 H 0.63648 0.81174 0.03929 0.0
H583 H 0.69647 0.8123 0.02845 0.0
H584 H 0.60633 0.71071 0.80142 0.0
H585 H 0.66521 0.71958 0.78758 0.0
H586 H 0.55104 0.75087 0.83338 0.0
H587 H 0.52961 0.76733 0.89544 0.0
loop_
_geom_bond_atom_site_label_1
_geom_bond_atom_site_label_2
_geom_bond_distance
_geom_bond_site_symmetry_2
_ccdc_geom_bond_type
H0 C3 0.931 . S
H1 C6 0.928 . S
H2 C8 0.930 . S
C3 H0 0.931 . S
C3 C4 1.413 . S
C3 C5 1.360 . S
C4 C3 1.413 . S
C4 C8 1.429 . S
C5 C3 1.360 . S
C5 C6 1.372 . S
C6 H1 0.928 . S
C6 C5 1.372 . S
C6 C7 1.404 . S
C7 C6 1.404 . S
C7 C8 1.391 . S
C8 H2 0.930 . S
C8 C4 1.429 . S
C8 C7 1.391 . S
H9 C12 0.931 . S
H10 C15 0.928 . S
H11 C17 0.930 . S
C12 H9 0.931 . S
C12 C13 1.413 . S
C12 C14 1.360 . S
C13 C12 1.413 . S
C13 C17 1.429 . S
C14 C12 1.360 . S
C14 C15 1.372 . S
C15 H10 0.928 . S
C15 C14 1.372 . S
C15 C16 1.404 . S
C16 C15 1.404 . S
C16 C17 1.391 . S
C17 H11 0.930 . S
C17 C13 1.429 . S
C17 C16 1.391 . S
H18 C21 0.931 . S
H19 C24 0.928 . S
H20 C26 0.930 . S
C21 H18 0.931 . S
C21 C22 1.413 . S
C21 C23 1.360 . S
C22 C21 1.413 . S
C22 C26 1.429 . S
C23 C21 1.360 . S
C23 C24 1.372 . S
C24 H19 0.928 . S
C24 C23 1.372 . S
C24 C25 1.404 . S
C25 C24 1.404 . S
C25 C26 1.391 . S
C26 H20 0.930 . S
C26 C22 1.429 . S
C26 C25 1.391 . S
H27 C30 0.931 . S
H28 C33 0.928 . S
H29 C35 0.930 . S
C30 H27 0.931 . S
C30 C31 1.413 . S
C30 C32 1.360 . S
C31 C30 1.413 . S
C31 C35 1.429 . S
C32 C30 1.360 . S
C32 C33 1.372 . S
C33 H28 0.928 . S
C33 C32 1.372 . S
C33 C34 1.404 . S
C34 C33 1.404 . S
C34 C35 1.391 . S
C35 H29 0.930 . S
C35 C31 1.429 . S
C35 C34 1.391 . S
H36 C39 0.931 . S
H37 C42 0.928 . S
H38 C44 0.930 . S
C39 H36 0.931 . S
C39 C40 1.413 . S
C39 C41 1.360 . S
C40 C39 1.413 . S
C40 C44 1.429 . S
C41 C39 1.360 . S
C41 C42 1.372 . S
C42 H37 0.928 . S
C42 C41 1.372 . S
C42 C43 1.404 . S
C43 C42 1.404 . S
C43 C44 1.391 . S
C44 H38 0.930 . S
C44 C40 1.429 . S
C44 C43 1.391 . S
H45 C48 0.931 . S
H46 C51 0.928 . S
H47 C53 0.930 . S
C48 H45 0.931 . S
C48 C49 1.413 . S
C48 C50 1.360 . S
C49 C48 1.413 . S
C49 C53 1.429 . S
C50 C48 1.360 . S
C50 C51 1.372 . S
C51 H46 0.928 . S
C51 C50 1.372 . S
C51 C52 1.404 . S
C52 C51 1.404 . S
C52 C53 1.391 . S
C53 H47 0.930 . S
C53 C49 1.429 . S
C53 C52 1.391 . S
H54 C57 0.931 . S
H55 C60 0.928 . S
H56 C62 0.930 . S
C57 H54 0.931 . S
C57 C58 1.413 . S
C57 C59 1.360 . S
C58 C57 1.413 . S
C58 C62 1.429 . S
C59 C57 1.360 . S
C59 C60 1.372 . S
C60 H55 0.928 . S
C60 C59 1.372 . S
C60 C61 1.404 . S
C61 C60 1.404 . S
C61 C62 1.391 . S
C62 H56 0.930 . S
C62 C58 1.429 . S
C62 C61 1.391 . S
H63 C66 0.931 . S
H64 C69 0.928 . S
H65 C71 0.930 . S
C66 H63 0.931 . S
C66 C67 1.413 . S
C66 C68 1.360 . S
C67 C66 1.413 . S
C67 C71 1.429 . S
C68 C66 1.360 . S
C68 C69 1.372 . S
C69 H64 0.928 . S
C69 C68 1.372 . S
C69 C70 1.404 . S
C70 C69 1.404 . S
C70 C71 1.391 . S
C71 H65 0.930 . S
C71 C67 1.429 . S
C71 C70 1.391 . S
C72 O74 1.247 . S
C72 O76 1.258 . S
C73 O80 1.247 . S
C73 O81 1.258 . S
O74 C72 1.247 . S
O74 Zn75 2.028 1_655 S
Zn75 O74 2.028 1_455 S
Zn75 O79 2.035 . S
Zn75 O81 2.035 . S
Zn75 O82 2.028 1_455 S
O76 C72 1.258 . S
O76 Zn77 2.035 1_655 S
Zn77 O76 2.035 1_455 S
Zn77 O78 2.028 . S
Zn77 O80 2.028 . S
Zn77 O83 2.035 1_455 S
O78 Zn77 2.028 . S
O78 C84 1.247 . S
O79 Zn75 2.035 . S
O79 C84 1.258 . S
O80 C73 1.247 . S
O80 Zn77 2.028 . S
O81 C73 1.258 . S
O81 Zn75 2.035 . S
O82 Zn75 2.028 1_655 S
O82 C85 1.247 . S
O83 Zn77 2.035 1_655 S
O83 C85 1.258 . S
C84 O78 1.247 . S
C84 O79 1.258 . S
C85 O82 1.247 . S
C85 O83 1.258 . S
C86 O88 1.247 . S
C86 O90 1.258 . S
C87 O94 1.247 . S
C87 O95 1.258 . S
O88 C86 1.247 . S
O88 Zn89 2.028 1_655 S
Zn89 O88 2.028 1_455 S
Zn89 O93 2.035 . S
Zn89 O95 2.035 . S
Zn89 O96 2.028 1_455 S
O90 C86 1.258 . S
O90 Zn91 2.035 1_655 S
Zn91 O90 2.035 1_455 S
Zn91 O92 2.028 . S
Zn91 O94 2.028 . S
Zn91 O97 2.035 1_455 S
O92 Zn91 2.028 . S
O92 C98 1.247 . S
O93 Zn89 2.035 . S
O93 C98 1.258 . S
O94 C87 1.247 . S
O94 Zn91 2.028 . S
O95 C87 1.258 . S
O95 Zn89 2.035 . S
O96 Zn89 2.028 1_655 S
O96 C99 1.247 . S
O97 Zn91 2.035 1_655 S
O97 C99 1.258 . S
C98 O92 1.247 . S
C98 O93 1.258 . S
C99 O96 1.247 . S
C99 O97 1.258 . S
C100 O102 1.247 . S
C100 O104 1.258 . S
C101 O108 1.247 . S
C101 O109 1.258 . S
O102 C100 1.247 . S
O102 Zn103 2.025 1_565 S
Zn103 O102 2.025 1_545 S
Zn103 O107 2.039 . S
Zn103 O109 2.039 . S
Zn103 O110 2.025 1_545 S
O104 C100 1.258 . S
O104 Zn105 2.035 1_565 S
Zn105 O104 2.035 1_545 S
Zn105 O106 2.028 . S
Zn105 O108 2.028 . S
Zn105 O111 2.035 1_545 S
O106 Zn105 2.028 . S
O106 C112 1.247 . S
O107 Zn103 2.039 . S
O107 C112 1.258 . S
O108 C101 1.247 . S
O108 Zn105 2.028 . S
O109 C101 1.258 . S
O109 Zn103 2.039 . S
O110 Zn103 2.025 1_565 S
O110 C113 1.247 . S
O111 Zn105 2.035 1_565 S
O111 C113 1.258 . S
C112 O106 1.247 . S
C112 O107 1.258 . S
C113 O110 1.247 . S
C113 O111 1.258 . S
C114 O116 1.247 . S
C114 O118 1.258 . S
C115 O122 1.247 . S
C115 O123 1.258 . S
O116 C114 1.247 . S
O116 Zn117 2.029 1_554 S
Zn117 O116 2.029 1_556 S
Zn117 O121 2.036 1_556 S
Zn117 O123 2.034 . S
Zn117 O124 2.027 . S
O118 C114 1.258 . S
O118 Zn119 2.047 . S
Zn119 O118 2.047 . S
Zn119 O120 2.040 . S
Zn119 O122 2.016 1_554 S
Zn119 O125 2.024 1_554 S
O120 Zn119 2.040 . S
O120 C126 1.247 . S
O121 Zn117 2.036 1_554 S
O121 C126 1.258 . S
O122 C115 1.247 . S
O122 Zn119 2.016 1_556 S
O123 C115 1.258 . S
O123 Zn117 2.034 . S
O124 Zn117 2.027 . S
O124 C127 1.247 . S
O125 Zn119 2.024 1_556 S
O125 C127 1.258 . S
C126 O120 1.247 . S
C126 O121 1.258 . S
C127 O124 1.247 . S
C127 O125 1.258 . S
C128 O130 1.247 . S
C128 O132 1.258 . S
C129 O136 1.247 . S
C129 O137 1.258 . S
O130 C128 1.247 . S
O130 Zn131 2.027 . S
Zn131 O130 2.027 . S
Zn131 O135 2.036 1_565 S
Zn131 O137 2.036 1_565 S
Zn131 O138 2.027 . S
O132 C128 1.258 . S
O132 Zn133 2.022 1_565 S
Zn133 O132 2.022 1_545 S
Zn133 O134 2.041 . S
Zn133 O136 2.041 . S
Zn133 O139 2.022 1_545 S
O134 Zn133 2.041 . S
O134 C140 1.247 . S
O135 Zn131 2.036 1_545 S
O135 C140 1.258 . S
O136 C129 1.247 . S
O136 Zn133 2.041 . S
O137 C129 1.258 . S
O137 Zn131 2.036 1_545 S
O138 Zn131 2.027 . S
O138 C141 1.247 . S
O139 Zn133 2.022 1_565 S
O139 C141 1.258 . S
C140 O134 1.247 . S
C140 O135 1.258 . S
C141 O138 1.247 . S
C141 O139 1.258 . S
C142 O144 1.247 . S
C142 O146 1.258 . S
C143 O150 1.247 . S
C143 O151 1.258 . S
O144 C142 1.247 . S
O144 Zn145 2.028 . S
Zn145 O144 2.028 . S
Zn145 O149 2.035 . S
Zn145 O151 2.035 1_554 S
Zn145 O152 2.028 1_554 S
O146 C142 1.258 . S
O146 Zn147 2.035 . S
Zn147 O146 2.035 . S
Zn147 O148 2.028 . S
Zn147 O150 2.028 1_554 S
Zn147 O153 2.035 1_554 S
O148 Zn147 2.028 . S
O148 C154 1.247 . S
O149 Zn145 2.035 . S
O149 C154 1.258 . S
O150 C143 1.247 . S
O150 Zn147 2.028 1_556 S
O151 C143 1.258 . S
O151 Zn145 2.035 1_556 S
O152 Zn145 2.028 1_556 S
O152 C155 1.247 . S
O153 Zn147 2.035 1_556 S
O153 C155 1.258 . S
C154 O148 1.247 . S
C154 O149 1.258 . S
C155 O152 1.247 . S
C155 O153 1.258 . S
C156 C157 1.363 . S
C156 C162 1.379 . S
C156 N164 1.356 . S
C157 C156 1.363 . S
C157 C163 1.363 . S
C158 C159 1.363 . S
C158 C163 1.379 . S
C158 N165 1.356 . S
C159 C158 1.363 . S
C159 C162 1.363 . S
N160 C162 1.356 . S
N160 H172 0.984 . S
N160 H173 0.985 . S
N161 C163 1.356 . S
N161 H166 0.984 . S
N161 H167 0.985 . S
C162 C156 1.379 . S
C162 C159 1.363 . S
C162 N160 1.356 . S
C163 C157 1.363 . S
C163 C158 1.379 . S
C163 N161 1.356 . S
N164 C156 1.356 . S
N164 H170 0.984 . S
N164 H171 0.984 . S
N165 C158 1.356 . S
N165 H168 0.984 . S
N165 H169 0.985 . S
H166 N161 0.984 . S
H167 N161 0.985 . S
H168 N165 0.984 . S
H169 N165 0.985 . S
H170 N164 0.984 . S
H171 N164 0.984 . S
H172 N160 0.984 . S
H173 N160 0.985 . S
C174 C175 1.363 . S
C174 C180 1.379 . S
C174 N182 1.356 . S
C175 C174 1.363 . S
C175 C181 1.363 . S
C176 C177 1.363 . S
C176 C181 1.379 . S
C176 N183 1.356 . S
C177 C176 1.363 . S
C177 C180 1.363 . S
N178 C180 1.356 . S
N178 H190 0.984 . S
N178 H191 0.985 . S
N179 C181 1.356 . S
N179 H184 0.984 . S
N179 H185 0.985 . S
C180 C174 1.379 . S
C180 C177 1.363 . S
C180 N178 1.356 . S
C181 C175 1.363 . S
C181 C176 1.379 . S
C181 N179 1.356 . S
N182 C174 1.356 . S
N182 H188 0.984 . S
N182 H189 0.984 . S
N183 C176 1.356 . S
N183 H186 0.984 . S
N183 H187 0.985 . S
H184 N179 0.984 . S
H185 N179 0.985 . S
H186 N183 0.984 . S
H187 N183 0.985 . S
H188 N182 0.984 . S
H189 N182 0.984 . S
H190 N178 0.984 . S
H191 N178 0.985 . S
C192 C193 1.363 . S
C192 C198 1.379 . S
C192 N200 1.356 . S
C193 C192 1.363 . S
C193 C199 1.363 . S
C194 C195 1.363 . S
C194 C199 1.379 . S
C194 N201 1.356 . S
C195 C194 1.363 . S
C195 C198 1.363 . S
N196 C198 1.356 . S
N196 H208 0.984 . S
N196 H209 0.985 . S
N197 C199 1.356 . S
N197 H202 0.984 . S
N197 H203 0.985 . S
C198 C192 1.379 . S
C198 C195 1.363 . S
C198 N196 1.356 . S
C199 C193 1.363 . S
C199 C194 1.379 . S
C199 N197 1.356 . S
N200 C192 1.356 . S
N200 H206 0.984 . S
N200 H207 0.984 . S
N201 C194 1.356 . S
N201 H204 0.984 . S
N201 H205 0.985 . S
H202 N197 0.984 . S
H203 N197 0.985 . S
H204 N201 0.984 . S
H205 N201 0.985 . S
H206 N200 0.984 . S
H207 N200 0.984 . S
H208 N196 0.984 . S
H209 N196 0.985 . S
C210 C211 1.363 . S
C210 C216 1.379 . S
C210 N218 1.356 . S
C211 C210 1.363 . S
C211 C217 1.363 . S
C212 C213 1.363 . S
C212 C217 1.379 . S
C212 N219 1.356 . S
C213 C212 1.363 . S
C213 C216 1.363 . S
N214 C216 1.356 . S
N214 H226 0.984 . S
N214 H227 0.985 . S
N215 C217 1.356 . S
N215 H220 0.984 . S
N215 H221 0.985 . S
C216 C210 1.379 . S
C216 C213 1.363 . S
C216 N214 1.356 . S
C217 C211 1.363 . S
C217 C212 1.379 . S
C217 N215 1.356 . S
N218 C210 1.356 . S
N218 H224 0.984 . S
N218 H225 0.984 . S
N219 C212 1.356 . S
N219 H222 0.984 . S
N219 H223 0.985 . S
H220 N215 0.984 . S
H221 N215 0.985 . S
H222 N219 0.984 . S
H223 N219 0.985 . S
H224 N218 0.984 . S
H225 N218 0.984 . S
H226 N214 0.984 . S
H227 N214 0.985 . S
C228 C229 1.363 . S
C228 C234 1.379 . S
C228 N236 1.356 . S
C229 C228 1.363 . S
C229 C235 1.363 . S
C230 C231 1.363 . S
C230 C235 1.379 . S
C230 N237 1.356 . S
C231 C230 1.363 . S
C231 C234 1.363 . S
N232 C234 1.356 . S
N232 H244 0.984 . S
N232 H245 0.985 . S
N233 C235 1.356 . S
N233 H238 0.984 . S
N233 H239 0.985 . S
C234 C228 1.379 . S
C234 C231 1.363 . S
C234 N232 1.356 . S
C235 C229 1.363 . S
C235 C230 1.379 . S
C235 N233 1.356 . S
N236 C228 1.356 . S
N236 H242 0.984 . S
N236 H243 0.984 . S
N237 C230 1.356 . S
N237 H240 0.984 . S
N237 H241 0.985 . S
H238 N233 0.984 . S
H239 N233 0.985 . S
H240 N237 0.984 . S
H241 N237 0.985 . S
H242 N236 0.984 . S
H243 N236 0.984 . S
H244 N232 0.984 . S
H245 N232 0.985 . S
C246 C247 1.363 . S
C246 C252 1.379 . S
C246 N254 1.356 . S
C247 C246 1.363 . S
C247 C253 1.363 . S
C248 C249 1.363 . S
C248 C253 1.379 . S
C248 N255 1.356 . S
C249 C248 1.363 . S
C249 C252 1.363 . S
N250 C252 1.356 . S
N250 H262 0.984 . S
N250 H263 0.985 . S
N251 C253 1.356 . S
N251 H256 0.984 . S
N251 H257 0.985 . S
C252 C246 1.379 . S
C252 C249 1.363 . S
C252 N250 1.356 . S
C253 C247 1.363 . S
C253 C248 1.379 . S
C253 N251 1.356 . S
N254 C246 1.356 . S
N254 H260 0.984 . S
N254 H261 0.984 . S
N255 C248 1.356 . S
N255 H258 0.984 . S
N255 H259 0.985 . S
H256 N251 0.984 . S
H257 N251 0.985 . S
H258 N255 0.984 . S
H259 N255 0.985 . S
H260 N254 0.984 . S
H261 N254 0.984 . S
H262 N250 0.984 . S
H263 N250 0.985 . S
C264 C265 1.363 . S
C264 C270 1.379 . S
C264 N272 1.356 . S
C265 C264 1.363 . S
C265 C271 1.363 . S
C266 C267 1.363 . S
C266 C271 1.379 . S
C266 N273 1.356 . S
C267 C266 1.363 . S
C267 C270 1.363 . S
N268 C270 1.356 . S
N268 H280 0.984 . S
N268 H281 0.985 . S
N269 C271 1.356 . S
N269 H274 0.984 . S
N269 H275 0.985 . S
C270 C264 1.379 . S
C270 C267 1.363 . S
C270 N268 1.356 . S
C271 C265 1.363 . S
C271 C266 1.379 . S
C271 N269 1.356 . S
N272 C264 1.356 . S
N272 H278 0.984 . S
N272 H279 0.984 . S
N273 C266 1.356 . S
N273 H276 0.984 . S
N273 H277 0.985 . S
H274 N269 0.984 . S
H275 N269 0.985 . S
H276 N273 0.984 . S
H277 N273 0.985 . S
H278 N272 0.984 . S
H279 N272 0.984 . S
H280 N268 0.984 . S
H281 N268 0.985 . S
C282 C283 1.363 . S
C282 C288 1.379 . S
C282 N290 1.356 . S
C283 C282 1.363 . S
C283 C289 1.363 . S
C284 C285 1.363 . S
C284 C289 1.379 . S
C284 N291 1.356 . S
C285 C284 1.363 . S
C285 C288 1.363 . S
N286 C288 1.356 . S
N286 H298 0.984 . S
N286 H299 0.985 . S
N287 C289 1.356 . S
N287 H292 0.984 . S
N287 H293 0.985 . S
C288 C282 1.379 . S
C288 C285 1.363 . S
C288 N286 1.356 . S
C289 C283 1.363 . S
C289 C284 1.379 . S
C289 N287 1.356 . S
N290 C282 1.356 . S
N290 H296 0.984 . S
N290 H297 0.984 . S
N291 C284 1.356 . S
N291 H294 0.984 . S
N291 H295 0.985 . S
H292 N287 0.984 . S
H293 N287 0.985 . S
H294 N291 0.984 . S
H295 N291 0.985 . S
H296 N290 0.984 . S
H297 N290 0.984 . S
H298 N286 0.984 . S
H299 N286 0.985 . S
C300 C301 1.363 . S
C300 C306 1.379 . S
C300 N308 1.356 . S
C301 C300 1.363 . S
C301 C307 1.363 . S
C302 C303 1.363 . S
C302 C307 1.379 . S
C302 N309 1.356 . S
C303 C302 1.363 . S
C303 C306 1.363 . S
N304 C306 1.356 . S
N304 H316 0.984 . S
N304 H317 0.985 . S
N305 C307 1.356 . S
N305 H310 0.984 . S
N305 H311 0.985 . S
C306 C300 1.379 . S
C306 C303 1.363 . S
C306 N304 1.356 . S
C307 C301 1.363 . S
C307 C302 1.379 . S
C307 N305 1.356 . S
N308 C300 1.356 . S
N308 H314 0.984 . S
N308 H315 0.984 . S
N309 C302 1.356 . S
N309 H312 0.984 . S
N309 H313 0.985 . S
H310 N305 0.984 . S
H311 N305 0.985 . S
H312 N309 0.984 . S
H313 N309 0.985 . S
H314 N308 0.984 . S
H315 N308 0.984 . S
H316 N304 0.984 . S
H317 N304 0.985 . S
C318 C319 1.363 . S
C318 C324 1.379 . S
C318 N326 1.356 . S
C319 C318 1.363 . S
C319 C325 1.363 . S
C320 C321 1.363 . S
C320 C325 1.379 . S
C320 N327 1.356 . S
C321 C320 1.363 . S
C321 C324 1.363 . S
N322 C324 1.356 . S
N322 H334 0.984 . S
N322 H335 0.985 . S
N323 C325 1.356 . S
N323 H328 0.984 . S
N323 H329 0.985 . S
C324 C318 1.379 . S
C324 C321 1.363 . S
C324 N322 1.356 . S
C325 C319 1.363 . S
C325 C320 1.379 . S
C325 N323 1.356 . S
N326 C318 1.356 . S
N326 H332 0.984 . S
N326 H333 0.984 . S
N327 C320 1.356 . S
N327 H330 0.984 . S
N327 H331 0.985 . S
H328 N323 0.984 . S
H329 N323 0.985 . S
H330 N327 0.984 . S
H331 N327 0.985 . S
H332 N326 0.984 . S
H333 N326 0.984 . S
H334 N322 0.984 . S
H335 N322 0.985 . S
C336 C337 1.363 . S
C336 C342 1.379 . S
C336 N344 1.356 . S
C337 C336 1.363 . S
C337 C343 1.363 . S
C338 C339 1.363 . S
C338 C343 1.379 . S
C338 N345 1.356 . S
C339 C338 1.363 . S
C339 C342 1.363 . S
N340 C342 1.356 . S
N340 H352 0.984 . S
N340 H353 0.985 . S
N341 C343 1.356 . S
N341 H346 0.984 . S
N341 H347 0.985 . S
C342 C336 1.379 . S
C342 C339 1.363 . S
C342 N340 1.356 . S
C343 C337 1.363 . S
C343 C338 1.379 . S
C343 N341 1.356 . S
N344 C336 1.356 . S
N344 H350 0.984 . S
N344 H351 0.984 . S
N345 C338 1.356 . S
N345 H348 0.984 . S
N345 H349 0.985 . S
H346 N341 0.984 . S
H347 N341 0.985 . S
H348 N345 0.984 . S
H349 N345 0.985 . S
H350 N344 0.984 . S
H351 N344 0.984 . S
H352 N340 0.984 . S
H353 N340 0.985 . S
C354 C355 1.363 . S
C354 C360 1.379 . S
C354 N362 1.356 . S
C355 C354 1.363 . S
C355 C361 1.363 . S
C356 C357 1.363 . S
C356 C361 1.379 . S
C356 N363 1.356 . S
C357 C356 1.363 . S
C357 C360 1.363 . S
N358 C360 1.356 . S
N358 H370 0.984 . S
N358 H371 0.985 . S
N359 C361 1.356 . S
N359 H364 0.984 . S
N359 H365 0.985 . S
C360 C354 1.379 . S
C360 C357 1.363 . S
C360 N358 1.356 . S
C361 C355 1.363 . S
C361 C356 1.379 . S
C361 N359 1.356 . S
N362 C354 1.356 . S
N362 H368 0.984 . S
N362 H369 0.984 . S
N363 C356 1.356 . S
N363 H366 0.984 . S
N363 H367 0.985 . S
H364 N359 0.984 . S
H365 N359 0.985 . S
H366 N363 0.984 . S
H367 N363 0.985 . S
H368 N362 0.984 . S
H369 N362 0.984 . S
H370 N358 0.984 . S
H371 N358 0.985 . S
C372 C373 1.363 . S
C372 C378 1.379 . S
C372 N380 1.356 . S
C373 C372 1.363 . S
C373 C379 1.363 . S
C374 C375 1.363 . S
C374 C379 1.379 . S
C374 N381 1.356 . S
C375 C374 1.363 . S
C375 C378 1.363 . S
N376 C378 1.356 . S
N376 H388 0.984 . S
N376 H389 0.985 . S
N377 C379 1.356 . S
N377 H382 0.984 . S
N377 H383 0.985 . S
C378 C372 1.379 . S
C378 C375 1.363 . S
C378 N376 1.356 . S
C379 C373 1.363 . S
C379 C374 1.379 . S
C379 N377 1.356 . S
N380 C372 1.356 . S
N380 H386 0.984 . S
N380 H387 0.984 . S
N381 C374 1.356 . S
N381 H384 0.984 . S
N381 H385 0.985 . S
H382 N377 0.984 . S
H383 N377 0.985 . S
H384 N381 0.984 . S
H385 N381 0.985 . S
H386 N380 0.984 . S
H387 N380 0.984 . S
H388 N376 0.984 . S
H389 N376 0.985 . S
C390 C391 1.363 . S
C390 C396 1.379 . S
C390 N398 1.356 . S
C391 C390 1.363 . S
C391 C397 1.363 . S
C392 C393 1.363 . S
C392 C397 1.379 . S
C392 N399 1.356 . S
C393 C392 1.363 . S
C393 C396 1.363 . S
N394 C396 1.356 . S
N394 H406 0.984 . S
N394 H407 0.985 . S
N395 C397 1.356 . S
N395 H400 0.984 . S
N395 H401 0.985 . S
C396 C390 1.379 . S
C396 C393 1.363 . S
C396 N394 1.356 . S
C397 C391 1.363 . S
C397 C392 1.379 . S
C397 N395 1.356 . S
N398 C390 1.356 . S
N398 H404 0.984 . S
N398 H405 0.984 . S
N399 C392 1.356 . S
N399 H402 0.984 . S
N399 H403 0.985 . S
H400 N395 0.984 . S
H401 N395 0.985 . S
H402 N399 0.984 . S
H403 N399 0.985 . S
H404 N398 0.984 . S
H405 N398 0.984 . S
H406 N394 0.984 . S
H407 N394 0.985 . S
C408 C409 1.363 . S
C408 C414 1.379 . S
C408 N416 1.356 . S
C409 C408 1.363 . S
C409 C415 1.363 . S
C410 C411 1.363 . S
C410 C415 1.379 . S
C410 N417 1.356 . S
C411 C410 1.363 . S
C411 C414 1.363 . S
N412 C414 1.356 . S
N412 H424 0.984 . S
N412 H425 0.985 . S
N413 C415 1.356 . S
N413 H418 0.984 . S
N413 H419 0.985 . S
C414 C408 1.379 . S
C414 C411 1.363 . S
C414 N412 1.356 . S
C415 C409 1.363 . S
C415 C410 1.379 . S
C415 N413 1.356 . S
N416 C408 1.356 . S
N416 H422 0.984 . S
N416 H423 0.984 . S
N417 C410 1.356 . S
N417 H420 0.984 . S
N417 H421 0.985 . S
H418 N413 0.984 . S
H419 N413 0.985 . S
H420 N417 0.984 . S
H421 N417 0.985 . S
H422 N416 0.984 . S
H423 N416 0.984 . S
H424 N412 0.984 . S
H425 N412 0.985 . S
C426 C427 1.363 . S
C426 C432 1.379 . S
C426 N434 1.356 . S
C427 C426 1.363 . S
C427 C433 1.363 . S
C428 C429 1.363 . S
C428 C433 1.379 . S
C428 N435 1.356 . S
C429 C428 1.363 . S
C429 C432 1.363 . S
N430 C432 1.356 . S
N430 H442 0.984 . S
N430 H443 0.985 . S
N431 C433 1.356 . S
N431 H436 0.984 . S
N431 H437 0.985 . S
C432 C426 1.379 . S
C432 C429 1.363 . S
C432 N430 1.356 . S
C433 C427 1.363 . S
C433 C428 1.379 . S
C433 N431 1.356 . S
N434 C426 1.356 . S
N434 H440 0.984 . S
N434 H441 0.984 . S
N435 C428 1.356 . S
N435 H438 0.984 . S
N435 H439 0.985 . S
H436 N431 0.984 . S
H437 N431 0.985 . S
H438 N435 0.984 . S
H439 N435 0.985 . S
H440 N434 0.984 . S
H441 N434 0.984 . S
H442 N430 0.984 . S
H443 N430 0.985 . S
C444 C445 1.363 . S
C444 C450 1.379 . S
C444 N452 1.356 . S
C445 C444 1.363 . S
C445 C451 1.363 . S
C446 C447 1.363 . S
C446 C451 1.379 . S
C446 N453 1.356 . S
C447 C446 1.363 . S
C447 C450 1.363 . S
N448 C450 1.356 . S
N448 H460 0.984 . S
N448 H461 0.985 . S
N449 C451 1.356 . S
N449 H454 0.984 . S
N449 H455 0.985 . S
C450 C444 1.379 . S
C450 C447 1.363 . S
C450 N448 1.356 . S
C451 C445 1.363 . S
C451 C446 1.379 . S
C451 N449 1.356 . S
N452 C444 1.356 . S
N452 H458 0.984 . S
N452 H459 0.984 . S
N453 C446 1.356 . S
N453 H456 0.984 . S
N453 H457 0.985 . S
H454 N449 0.984 . S
H455 N449 0.985 . S
H456 N453 0.984 . S
H457 N453 0.985 . S
H458 N452 0.984 . S
H459 N452 0.984 . S
H460 N448 0.984 . S
H461 N448 0.985 . S
C462 C463 1.363 . S
C462 C468 1.379 . S
C462 N470 1.356 . S
C463 C462 1.363 . S
C463 C469 1.363 . S
C464 C465 1.363 . S
C464 C469 1.379 . S
C464 N471 1.356 . S
C465 C464 1.363 . S
C465 C468 1.363 . S
N466 C468 1.356 . S
N466 H478 0.984 . S
N466 H479 0.985 . S
N467 C469 1.356 . S
N467 H472 0.984 . S
N467 H473 0.985 . S
C468 C462 1.379 . S
C468 C465 1.363 . S
C468 N466 1.356 . S
C469 C463 1.363 . S
C469 C464 1.379 . S
C469 N467 1.356 . S
N470 C462 1.356 . S
N470 H476 0.984 . S
N470 H477 0.984 . S
N471 C464 1.356 . S
N471 H474 0.984 . S
N471 H475 0.985 . S
H472 N467 0.984 . S
H473 N467 0.985 . S
H474 N471 0.984 . S
H475 N471 0.985 . S
H476 N470 0.984 . S
H477 N470 0.984 . S
H478 N466 0.984 . S
H479 N466 0.985 . S
C480 C481 1.363 . S
C480 C486 1.379 . S
C480 N488 1.356 . S
C481 C480 1.363 . S
C481 C487 1.363 . S
C482 C483 1.363 . S
C482 C487 1.379 . S
C482 N489 1.356 . S
C483 C482 1.363 . S
C483 C486 1.363 . S
N484 C486 1.356 . S
N484 H496 0.984 . S
N484 H497 0.985 . S
N485 C487 1.356 . S
N485 H490 0.984 . S
N485 H491 0.985 . S
C486 C480 1.379 . S
C486 C483 1.363 . S
C486 N484 1.356 . S
C487 C481 1.363 . S
C487 C482 1.379 . S
C487 N485 1.356 . S
N488 C480 1.356 . S
N488 H494 0.984 . S
N488 H495 0.984 . S
N489 C482 1.356 . S
N489 H492 0.984 . S
N489 H493 0.985 . S
H490 N485 0.984 . S
H491 N485 0.985 . S
H492 N489 0.984 . S
H493 N489 0.985 . S
H494 N488 0.984 . S
H495 N488 0.984 . S
H496 N484 0.984 . S
H497 N484 0.985 . S
C498 C499 1.363 . S
C498 C504 1.379 . S
C498 N506 1.356 . S
C499 C498 1.363 . S
C499 C505 1.363 . S
C500 C501 1.363 . S
C500 C505 1.379 . S
C500 N507 1.356 . S
C501 C500 1.363 . S
C501 C504 1.363 . S
N502 C504 1.356 . S
N502 H514 0.984 . S
N502 H515 0.985 . S
N503 C505 1.356 . S
N503 H508 0.984 . S
N503 H509 0.985 . S
C504 C498 1.379 . S
C504 C501 1.363 . S
C504 N502 1.356 . S
C505 C499 1.363 . S
C505 C500 1.379 . S
C505 N503 1.356 . S
N506 C498 1.356 . S
N506 H512 0.984 . S
N506 H513 0.984 . S
N507 C500 1.356 . S
N507 H510 0.984 . S
N507 H511 0.985 . S
H508 N503 0.984 . S
H509 N503 0.985 . S
H510 N507 0.984 . S
H511 N507 0.985 . S
H512 N506 0.984 . S
H513 N506 0.984 . S
H514 N502 0.984 . S
H515 N502 0.985 . S
C516 C517 1.363 . S
C516 C522 1.379 . S
C516 N524 1.356 . S
C517 C516 1.363 . S
C517 C523 1.363 . S
C518 C519 1.363 . S
C518 C523 1.379 . S
C518 N525 1.356 . S
C519 C518 1.363 . S
C519 C522 1.363 . S
N520 C522 1.356 . S
N520 H532 0.984 . S
N520 H533 0.985 . S
N521 C523 1.356 . S
N521 H526 0.984 . S
N521 H527 0.985 . S
C522 C516 1.379 . S
C522 C519 1.363 . S
C522 N520 1.356 . S
C523 C517 1.363 . S
C523 C518 1.379 . S
C523 N521 1.356 . S
N524 C516 1.356 . S
N524 H530 0.984 . S
N524 H531 0.984 . S
N525 C518 1.356 . S
N525 H528 0.984 . S
N525 H529 0.985 . S
H526 N521 0.984 . S
H527 N521 0.985 . S
H528 N525 0.984 . S
H529 N525 0.985 . S
H530 N524 0.984 . S
H531 N524 0.984 . S
H532 N520 0.984 . S
H533 N520 0.985 . S
C534 C535 1.363 . S
C534 C540 1.379 . S
C534 N542 1.356 . S
C535 C534 1.363 . S
C535 C541 1.363 . S
C536 C537 1.363 . S
C536 C541 1.379 . S
C536 N543 1.356 . S
C537 C536 1.363 . S
C537 C540 1.363 . S
N538 C540 1.356 . S
N538 H550 0.984 . S
N538 H551 0.985 . S
N539 C541 1.356 . S
N539 H544 0.984 . S
N539 H545 0.985 . S
C540 C534 1.379 . S
C540 C537 1.363 . S
C540 N538 1.356 . S
C541 C535 1.363 . S
C541 C536 1.379 . S
C541 N539 1.356 . S
N542 C534 1.356 . S
N542 H548 0.984 . S
N542 H549 0.984 . S
N543 C536 1.356 . S
N543 H546 0.984 . S
N543 H547 0.985 . S
H544 N539 0.984 . S
H545 N539 0.985 . S
H546 N543 0.984 . S
H547 N543 0.985 . S
H548 N542 0.984 . S
H549 N542 0.984 . S
H550 N538 0.984 . S
H551 N538 0.985 . S
C552 C553 1.363 . S
C552 C558 1.379 . S
C552 N560 1.356 . S
C553 C552 1.363 . S
C553 C559 1.363 . S
C554 C555 1.363 . S
C554 C559 1.379 . S
C554 N561 1.356 . S
C555 C554 1.363 . S
C555 C558 1.363 . S
N556 C558 1.356 . S
N556 H568 0.984 . S
N556 H569 0.985 . S
N557 C559 1.356 . S
N557 H562 0.984 . S
N557 H563 0.985 . S
C558 C552 1.379 . S
C558 C555 1.363 . S
C558 N556 1.356 . S
C559 C553 1.363 . S
C559 C554 1.379 . S
C559 N557 1.356 . S
N560 C552 1.356 . S
N560 H566 0.984 . S
N560 H567 0.984 . S
N561 C554 1.356 . S
N561 H564 0.984 . S
N561 H565 0.985 . S
H562 N557 0.984 . S
H563 N557 0.985 . S
H564 N561 0.984 . S
H565 N561 0.985 . S
H566 N560 0.984 . S
H567 N560 0.984 . S
H568 N556 0.984 . S
H569 N556 0.985 . S
C570 C571 1.363 . S
C570 C576 1.379 . S
C570 N578 1.356 . S
C571 C570 1.363 . S
C571 C577 1.363 . S
C572 C573 1.363 . S
C572 C577 1.379 . S
C572 N579 1.356 . S
C573 C572 1.363 . S
C573 C576 1.363 . S
N574 C576 1.356 . S
N574 H586 0.984 . S
N574 H587 0.985 . S
N575 C577 1.356 . S
N575 H580 0.984 . S
N575 H581 0.985 . S
C576 C570 1.379 . S
C576 C573 1.363 . S
C576 N574 1.356 . S
C577 C571 1.363 . S
C577 C572 1.379 . S
C577 N575 1.356 . S
N578 C570 1.356 . S
N578 H584 0.984 . S
N578 H585 0.984 . S
N579 C572 1.356 . S
N579 H582 0.984 . S
N579 H583 0.985 . S
H580 N575 0.984 . S
H581 N575 0.985 . S
H582 N579 0.984 . S
H583 N579 0.985 . S
H584 N578 0.984 . S
H585 N578 0.984 . S
H586 N574 0.984 . S
H587 N574 0.985 . S
C159 C84 1.503 . S
C157 C4 1.505 . S
C177 C87 1.502 . S
C175 C13 1.504 . S
C195 C85 1.503 . S
C193 C25 1.505 . S
C213 C86 1.503 . S
C211 C34 1.504 . S
C231 C101 1.497 . S
C229 C7 1.499 . S
C249 C115 1.504 . S
C247 C14 1.508 . S
C265 C23 1.502 . S
C267 C141 1.501 . S
C285 C155 1.506 . S
C283 C31 1.509 . S
C303 C100 1.497 . S
C301 C16 1.498 . S
C319 C22 1.510 . S
C321 C114 1.508 . S
C339 C140 1.501 . S
C337 C32 1.502 . S
C357 C154 1.505 . S
C355 C5 1.507 . S
C373 C43 1.507 . S
C375 C99 1.506 . S
C393 C72 1.506 . S
C391 C52 1.507 . S
C409 C58 1.503 . S
C411 C98 1.502 . S
C427 C68 1.506 . S
C429 C73 1.503 . S
C447 C128 1.507 . S
C445 C40 1.507 . S
C465 C142 1.503 . S
C463 C50 1.506 . S
C483 C112 1.501 . S
C481 C59 1.503 . S
C499 C70 1.501 . S
C501 C126 1.499 . S
C519 C129 1.507 . S
C517 C49 1.508 . S
C537 C143 1.498 . S
C535 C61 1.501 . S
C555 C113 1.502 . S
C553 C67 1.504 . S
C571 C41 1.506 . S
C573 C127 1.503 . S
