# Generated by pormake.
# Topology ssa, (4,4)-cn, num edge types: 1
# Building blocks:
#     Node 0, Type 0, BuildingBlock: NAWXER_clean_sbu_0, # of connection points: 4
#     Node 1, Type 0, BuildingBlock: NAWXER_clean_sbu_0, # of connection points: 4
#     Node 2, Type 0, BuildingBlock: NAWXER_clean_sbu_0, # of connection points: 4
#     Node 3, Type 0, BuildingBlock: NAWXER_clean_sbu_0, # of connection points: 4
#     Node 4, Type 0, BuildingBlock: NAWXER_clean_sbu_0, # of connection points: 4
#     Node 5, Type 0, BuildingBlock: NAWXER_clean_sbu_0, # of connection points: 4
#     Node 6, Type 1, BuildingBlock: AZAVOO_clean_linker_0, # of connection points: 4
#     Node 7, Type 1, BuildingBlock: AZAVOO_clean_linker_0, # of connection points: 4
#     Node 8, Type 1, BuildingBlock: AZAVOO_clean_linker_0, # of connection points: 4
#     Node 9, Type 1, BuildingBlock: AZAVOO_clean_linker_0, # of connection points: 4
#     Node 10, Type 1, BuildingBlock: AZAVOO_clean_linker_0, # of connection points: 4
#     Node 11, Type 1, BuildingBlock: AZAVOO_clean_linker_0, # of connection points: 4
#     Edge 12, Type (0, 1), BuildingBlock: MIFKUJ_clean_linker_0, # of connection points: 2
#     Edge 13, Type (0, 1), BuildingBlock: MIFKUJ_clean_linker_0, # of connection points: 2
#     Edge 14, Type (0, 1), BuildingBlock: MIFKUJ_clean_linker_0, # of connection points: 2
#     Edge 15, Type (0, 1), BuildingBlock: MIFKUJ_clean_linker_0, # of connection points: 2
#     Edge 16, Type (0, 1), BuildingBlock: MIFKUJ_clean_linker_0, # of connection points: 2
#     Edge 17, Type (0, 1), BuildingBlock: MIFKUJ_clean_linker_0, # of connection points: 2
#     Edge 18, Type (0, 1), BuildingBlock: MIFKUJ_clean_linker_0, # of connection points: 2
#     Edge 19, Type (0, 1), BuildingBlock: MIFKUJ_clean_linker_0, # of connection points: 2
#     Edge 20, Type (0, 1), BuildingBlock: MIFKUJ_clean_linker_0, # of connection points: 2
#     Edge 21, Type (0, 1), BuildingBlock: MIFKUJ_clean_linker_0, # of connection points: 2
#     Edge 22, Type (0, 1), BuildingBlock: MIFKUJ_clean_linker_0, # of connection points: 2
#     Edge 23, Type (0, 1), BuildingBlock: MIFKUJ_clean_linker_0, # of connection points: 2
#     Edge 24, Type (0, 1), BuildingBlock: MIFKUJ_clean_linker_0, # of connection points: 2
#     Edge 25, Type (0, 1), BuildingBlock: MIFKUJ_clean_linker_0, # of connection points: 2
#     Edge 26, Type (0, 1), BuildingBlock: MIFKUJ_clean_linker_0, # of connection points: 2
#     Edge 27, Type (0, 1), BuildingBlock: MIFKUJ_clean_linker_0, # of connection points: 2
#     Edge 28, Type (0, 1), BuildingBlock: MIFKUJ_clean_linker_0, # of connection points: 2
#     Edge 29, Type (0, 1), BuildingBlock: MIFKUJ_clean_linker_0, # of connection points: 2
#     Edge 30, Type (0, 1), BuildingBlock: MIFKUJ_clean_linker_0, # of connection points: 2
#     Edge 31, Type (0, 1), BuildingBlock: MIFKUJ_clean_linker_0, # of connection points: 2
#     Edge 32, Type (0, 1), BuildingBlock: MIFKUJ_clean_linker_0, # of connection points: 2
#     Edge 33, Type (0, 1), BuildingBlock: MIFKUJ_clean_linker_0, # of connection points: 2
#     Edge 34, Type (0, 1), BuildingBlock: MIFKUJ_clean_linker_0, # of connection points: 2
#     Edge 35, Type (0, 1), BuildingBlock: MIFKUJ_clean_linker_0, # of connection points: 2
# Relax obj value: 0.078
# Max RMSD: 0.233
# Mean RMSD: 0.129
data_MOF--net-ssa--node1-NAWXER_clean_sbu_0--node2-AZAVOO_clean_linker_0--edge1-MIFKUJ_clean_linker_0
_symmetry_space_group_name_H-M    P1
_symmetry_Int_Tables_number       1
_symmetry_cell_setting            triclinic
loop_
_symmetry_equiv_pos_as_xyz
'x, y, z'
_cell_length_a     60.996646
_cell_length_b     61.448937
_cell_length_c     57.681682
_cell_angle_alpha  89.943197
_cell_angle_beta   92.420278
_cell_angle_gamma 120.11573
loop_
_atom_site_label
_atom_site_type_symbol
_atom_site_fract_x
_atom_site_fract_y
_atom_site_fract_z
_atom_type_partial_charge
C0 C 0.16731 0.58639 0.02824 0.0
C1 C 0.12448 0.51384 0.97493 0.0
O2 O 0.1471 0.56815 0.03608 0.0
Zn3 Zn 0.11703 0.53191 0.02472 0.0
O4 O 0.17361 0.58501 0.0078 0.0
Zn5 Zn 0.14574 0.55114 0.00056 0.0
O6 O 0.11401 0.55706 0.99683 0.0
O7 O 0.08735 0.53534 0.0237 0.0
O8 O 0.14434 0.5347 0.97129 0.0
O9 O 0.11306 0.51099 0.9938 0.0
O10 O 0.11969 0.51112 0.04799 0.0
O11 O 0.15261 0.5287 0.02569 0.0
C12 C 0.09313 0.55008 0.00672 0.0
C13 C 0.14119 0.51451 0.04267 0.0
C14 C 0.54887 0.01535 0.59036 0.0
C15 C 0.58472 0.97324 0.54813 0.0
O16 O 0.54803 0.99473 0.59486 0.0
Zn17 Zn 0.5673 0.99457 0.56941 0.0
O18 O 0.56132 0.02828 0.57319 0.0
Zn19 Zn 0.58399 0.02529 0.54711 0.0
O20 O 0.56703 0.0262 0.51867 0.0
O21 O 0.54401 0.99247 0.53917 0.0
O22 O 0.59122 0.99502 0.54004 0.0
O23 O 0.57035 0.96521 0.56513 0.0
O24 O 0.60559 0.02315 0.57963 0.0
O25 O 0.61719 0.05356 0.55433 0.0
C26 C 0.54643 0.00572 0.52121 0.0
C27 C 0.62222 0.04471 0.57236 0.0
C28 C 0.58989 0.47135 0.0667 0.0
C29 C 0.6321 0.53809 0.12575 0.0
O30 O 0.58628 0.4899 0.06306 0.0
Zn31 Zn 0.59559 0.52476 0.07958 0.0
O32 O 0.60226 0.47131 0.08497 0.0
Zn33 Zn 0.61035 0.50412 0.0971 0.0
O34 O 0.57488 0.49782 0.10896 0.0
O35 O 0.56293 0.52003 0.08739 0.0
O36 O 0.63171 0.51722 0.12505 0.0
O37 O 0.61975 0.543 0.11006 0.0
O38 O 0.61356 0.54788 0.05565 0.0
O39 O 0.63386 0.52953 0.07098 0.0
C40 C 0.5588 0.50491 0.10385 0.0
C41 C 0.63273 0.54485 0.05647 0.0
C42 C 0.06819 0.51796 0.52672 0.0
C43 C 0.03524 0.44414 0.57488 0.0
O44 O 0.07909 0.51418 0.54421 0.0
Zn45 Zn 0.05169 0.48123 0.55136 0.0
O46 O 0.04543 0.50122 0.52041 0.0
Zn47 Zn 0.01699 0.46485 0.53099 0.0
O48 O 0.98983 0.47052 0.53984 0.0
O49 O 0.02349 0.4884 0.56402 0.0
O50 O 0.0191 0.4421 0.55874 0.0
O51 O 0.05679 0.46411 0.57691 0.0
O52 O 0.04938 0.45834 0.52229 0.0
O53 O 0.01229 0.44463 0.50343 0.0
C54 C 0.00089 0.48339 0.55827 0.0
C55 C 0.03364 0.44568 0.50545 0.0
C56 C 0.6102 0.03355 0.12209 0.0
C57 C 0.58068 0.07608 0.06892 0.0
O58 O 0.61498 0.05617 0.12356 0.0
Zn59 Zn 0.59521 0.05489 0.09601 0.0
O60 O 0.596 0.01922 0.10515 0.0
Zn61 Zn 0.57581 0.02182 0.07482 0.0
O62 O 0.59214 0.01567 0.04989 0.0
O63 O 0.6169 0.05133 0.06931 0.0
O64 O 0.57286 0.05325 0.06254 0.0
O65 O 0.59414 0.08483 0.08764 0.0
O66 O 0.55674 0.02902 0.10487 0.0
O67 O 0.54145 0.99677 0.08011 0.0
C68 C 0.61356 0.03557 0.05306 0.0
C69 C 0.53846 0.0076 0.09742 0.0
C70 C 0.59601 0.52774 0.59427 0.0
C71 C 0.52761 0.48026 0.53659 0.0
O72 O 0.57709 0.53113 0.59643 0.0
Zn73 Zn 0.54038 0.5185 0.57978 0.0
O74 O 0.59518 0.51302 0.57835 0.0
Zn75 Zn 0.56198 0.5038 0.56544 0.0
O76 O 0.56835 0.53868 0.55147 0.0
O77 O 0.54344 0.54957 0.5685 0.0
O78 O 0.54887 0.48119 0.53885 0.0
O79 O 0.52238 0.49303 0.55062 0.0
O80 O 0.51808 0.5015 0.6047 0.0
O81 O 0.53784 0.48214 0.59256 0.0
C82 C 0.56029 0.55416 0.55401 0.0
C83 C 0.52231 0.48328 0.60615 0.0
H84 H 0.25808 0.39646 0.45558 0.0
H85 H 0.12319 0.3836 0.22235 0.0
H86 H 0.31188 0.43762 0.34425 0.0
H87 H 0.34568 0.43931 0.3698 0.0
H88 H 0.33378 0.37024 0.33826 0.0
H89 H 0.29957 0.36855 0.3127 0.0
H90 H 0.26137 0.42823 0.35956 0.0
H91 H 0.26031 0.42154 0.40141 0.0
H92 H 0.25463 0.3494 0.38931 0.0
H93 H 0.25539 0.35619 0.34747 0.0
H94 H 0.22777 0.43453 0.31865 0.0
H95 H 0.19326 0.43296 0.34001 0.0
H96 H 0.16849 0.35599 0.35778 0.0
H97 H 0.20281 0.35747 0.33574 0.0
H98 H 0.24096 0.44284 0.27007 0.0
H99 H 0.20703 0.44421 0.24714 0.0
H100 H 0.15833 0.36424 0.25601 0.0
H101 H 0.1926 0.36307 0.2786 0.0
H102 H 0.29427 0.45073 0.25926 0.0
H103 H 0.29131 0.46562 0.22061 0.0
H104 H 0.22965 0.39129 0.20107 0.0
H105 H 0.23353 0.37633 0.23946 0.0
H106 H 0.33051 0.4445 0.29501 0.0
H107 H 0.36668 0.45443 0.27134 0.0
H108 H 0.32025 0.38655 0.23023 0.0
H109 H 0.28434 0.3763 0.25438 0.0
O110 O 0.25828 0.39864 0.43895 0.0
O111 O 0.25556 0.36178 0.43181 0.0
O112 O 0.16273 0.42467 0.22736 0.0
O113 O 0.13682 0.38364 0.2316 0.0
C114 C 0.28095 0.40086 0.31331 0.0
C115 C 0.25935 0.39688 0.32509 0.0
C116 C 0.23917 0.39761 0.31283 0.0
C117 C 0.24037 0.40177 0.28873 0.0
C118 C 0.26182 0.40543 0.27693 0.0
C119 C 0.2821 0.40489 0.28916 0.0
C120 C 0.3031 0.4028 0.32687 0.0
C121 C 0.31663 0.4229 0.34277 0.0
C122 C 0.33585 0.4238 0.35737 0.0
C123 C 0.34207 0.40472 0.35619 0.0
C124 C 0.32933 0.38518 0.33948 0.0
C125 C 0.30985 0.38418 0.32494 0.0
C126 C 0.25827 0.39262 0.35049 0.0
C127 C 0.25967 0.41091 0.36598 0.0
C128 C 0.25917 0.40708 0.38988 0.0
C129 C 0.25737 0.38492 0.39871 0.0
C130 C 0.256 0.36665 0.3831 0.0
C131 C 0.25644 0.37048 0.3592 0.0
C132 C 0.21771 0.39607 0.32548 0.0
C133 C 0.21465 0.41718 0.32681 0.0
C134 C 0.19493 0.41625 0.33899 0.0
C135 C 0.17813 0.3943 0.35042 0.0
C136 C 0.18122 0.37315 0.34914 0.0
C137 C 0.20076 0.37397 0.33661 0.0
C138 C 0.21928 0.40281 0.27583 0.0
C139 C 0.22296 0.42563 0.267 0.0
C140 C 0.20354 0.42637 0.25395 0.0
C141 C 0.17997 0.40431 0.24968 0.0
C142 C 0.17624 0.38156 0.25892 0.0
C143 C 0.19574 0.38084 0.27189 0.0
C144 C 0.26392 0.41253 0.25219 0.0
C145 C 0.28081 0.43745 0.24633 0.0
C146 C 0.27891 0.44597 0.22434 0.0
C147 C 0.25995 0.42975 0.20796 0.0
C148 C 0.24456 0.40422 0.21324 0.0
C149 C 0.24663 0.39566 0.23519 0.0
C150 C 0.30481 0.40956 0.27656 0.0
C151 C 0.32832 0.43142 0.28131 0.0
C152 C 0.34891 0.43713 0.26772 0.0
C153 C 0.34617 0.4213 0.24891 0.0
C154 C 0.32278 0.39916 0.24451 0.0
C155 C 0.30234 0.39325 0.25833 0.0
C156 C 0.25701 0.38099 0.42412 0.0
C157 C 0.15939 0.40493 0.23557 0.0
H158 H 0.90991 0.24021 0.97437 0.0
H159 H 0.73427 0.05205 0.79537 0.0
H160 H 0.9039 0.25997 0.85309 0.0
H161 H 0.94208 0.29875 0.8663 0.0
H162 H 0.98854 0.27316 0.83512 0.0
H163 H 0.95003 0.23381 0.8224 0.0
H164 H 0.86408 0.21914 0.88003 0.0
H165 H 0.87765 0.22944 0.921 0.0
H166 H 0.93819 0.21358 0.91107 0.0
H167 H 0.92422 0.20304 0.87017 0.0
H168 H 0.81594 0.17866 0.84878 0.0
H169 H 0.78549 0.15259 0.87725 0.0
H170 H 0.8368 0.1278 0.90253 0.0
H171 H 0.86692 0.15318 0.87316 0.0
H172 H 0.81197 0.1765 0.79748 0.0
H173 H 0.77004 0.13993 0.78835 0.0
H174 H 0.79722 0.09088 0.81326 0.0
H175 H 0.83911 0.12759 0.82212 0.0
H176 H 0.85932 0.2217 0.77057 0.0
H177 H 0.83931 0.21069 0.73165 0.0
H178 H 0.83655 0.13899 0.73546 0.0
H179 H 0.85889 0.15139 0.77332 0.0
H180 H 0.9053 0.2628 0.7993 0.0
H181 H 0.9307 0.29065 0.76883 0.0
H182 H 0.9413 0.23143 0.74124 0.0
H183 H 0.91645 0.20379 0.7723 0.0
O184 O 0.90478 0.23592 0.95814 0.0
O185 O 0.93567 0.22765 0.95209 0.0
O186 O 0.73686 0.09303 0.78907 0.0
O187 O 0.7508 0.0668 0.79836 0.0
C188 C 0.9007 0.22006 0.83001 0.0
C189 C 0.88494 0.20413 0.84723 0.0
C190 C 0.86131 0.18283 0.84071 0.0
C191 C 0.85372 0.17698 0.81697 0.0
C192 C 0.8696 0.19267 0.7997 0.0
C193 C 0.8931 0.21426 0.80624 0.0
C194 C 0.92419 0.24389 0.83711 0.0
C195 C 0.9223 0.26259 0.84927 0.0
C196 C 0.94408 0.28473 0.85673 0.0
C197 C 0.9682 0.28879 0.85185 0.0
C198 C 0.97013 0.27044 0.83903 0.0
C199 C 0.94824 0.24802 0.83184 0.0
C200 C 0.89305 0.21016 0.87219 0.0
C201 C 0.88014 0.21771 0.88679 0.0
C202 C 0.888 0.22367 0.91016 0.0
C203 C 0.909 0.22231 0.91932 0.0
C204 C 0.92193 0.2148 0.90458 0.0
C205 C 0.91401 0.20878 0.88123 0.0
C206 C 0.8435 0.16758 0.85872 0.0
C207 C 0.8205 0.16737 0.86024 0.0
C208 C 0.80317 0.15252 0.87647 0.0
C209 C 0.80881 0.13811 0.89184 0.0
C210 C 0.83209 0.13876 0.89076 0.0
C211 C 0.84925 0.15323 0.87411 0.0
C212 C 0.82859 0.15468 0.81039 0.0
C213 C 0.80889 0.15783 0.80072 0.0
C214 C 0.78493 0.13692 0.79564 0.0
C215 C 0.78025 0.11249 0.80019 0.0
C216 C 0.80017 0.10942 0.80957 0.0
C217 C 0.82411 0.13034 0.81465 0.0
C218 C 0.86049 0.18731 0.77488 0.0
C219 C 0.85518 0.20399 0.76264 0.0
C220 C 0.8433 0.19743 0.74049 0.0
C221 C 0.83575 0.17369 0.73039 0.0
C222 C 0.84225 0.15755 0.74235 0.0
C223 C 0.8548 0.16446 0.7642 0.0
C224 C 0.90923 0.23135 0.78816 0.0
C225 C 0.91351 0.25598 0.78698 0.0
C226 C 0.92798 0.27184 0.76959 0.0
C227 C 0.93802 0.26317 0.75282 0.0
C228 C 0.93372 0.2385 0.75398 0.0
C229 C 0.91958 0.22276 0.77164 0.0
C230 C 0.91736 0.22876 0.94414 0.0
C231 C 0.75465 0.09026 0.79548 0.0
H232 H 0.71899 0.77968 0.17365 0.0
H233 H 0.68622 0.95723 0.3508 0.0
H234 H 0.65579 0.74906 0.30487 0.0
H235 H 0.65817 0.71276 0.29099 0.0
H236 H 0.73919 0.75959 0.28627 0.0
H237 H 0.73695 0.79574 0.30146 0.0
H238 H 0.67155 0.77954 0.25968 0.0
H239 H 0.68459 0.77342 0.22187 0.0
H240 H 0.75842 0.83936 0.23539 0.0
H241 H 0.74524 0.84506 0.27334 0.0
H242 H 0.66631 0.82604 0.25844 0.0
H243 H 0.66321 0.85576 0.2324 0.0
H244 H 0.72774 0.91728 0.2694 0.0
H245 H 0.73176 0.88713 0.29423 0.0
H246 H 0.64774 0.843 0.30556 0.0
H247 H 0.63991 0.87778 0.31245 0.0
H248 H 0.71297 0.9192 0.34942 0.0
H249 H 0.7206 0.88435 0.3422 0.0
H250 H 0.63474 0.80115 0.34737 0.0
H251 H 0.61841 0.81027 0.38164 0.0
H252 H 0.69545 0.86097 0.4076 0.0
H253 H 0.71134 0.84984 0.37416 0.0
H254 H 0.63819 0.76269 0.33793 0.0
H255 H 0.62358 0.73319 0.3698 0.0
H256 H 0.70097 0.76511 0.39698 0.0
H257 H 0.71545 0.79462 0.36477 0.0
O258 O 0.71422 0.7825 0.18867 0.0
O259 O 0.75177 0.81672 0.19632 0.0
O260 O 0.65153 0.92124 0.32849 0.0
O261 O 0.68882 0.94322 0.34781 0.0
C262 C 0.69426 0.79761 0.30979 0.0
C263 C 0.69979 0.81593 0.29255 0.0
C264 C 0.69708 0.83703 0.29713 0.0
C265 C 0.68936 0.84009 0.31905 0.0
C266 C 0.68384 0.82189 0.33615 0.0
C267 C 0.68585 0.80047 0.33145 0.0
C268 C 0.69624 0.775 0.30457 0.0
C269 C 0.67421 0.75131 0.30187 0.0
C270 C 0.67556 0.73064 0.29378 0.0
C271 C 0.69887 0.73347 0.2877 0.0
C272 C 0.72104 0.757 0.29097 0.0
C273 C 0.71976 0.77756 0.29962 0.0
C274 C 0.70753 0.81262 0.26933 0.0
C275 C 0.69057 0.79257 0.25449 0.0
C276 C 0.69805 0.78916 0.23288 0.0
C277 C 0.72258 0.80587 0.22563 0.0
C278 C 0.73941 0.82612 0.24046 0.0
C279 C 0.73193 0.82946 0.26211 0.0
C280 C 0.69912 0.85444 0.27836 0.0
C281 C 0.68037 0.84585 0.26033 0.0
C282 C 0.67837 0.86294 0.24573 0.0
C283 C 0.69478 0.88901 0.24918 0.0
C284 C 0.71479 0.89739 0.26615 0.0
C285 C 0.71706 0.8802 0.28047 0.0
C286 C 0.68469 0.8612 0.32344 0.0
C287 C 0.662 0.85962 0.31514 0.0
C288 C 0.65759 0.87949 0.31911 0.0
C289 C 0.67581 0.90127 0.33152 0.0
C290 C 0.69853 0.90271 0.33983 0.0
C291 C 0.70293 0.88283 0.3358 0.0
C292 C 0.67418 0.82472 0.35842 0.0
C293 C 0.64801 0.81353 0.3609 0.0
C294 C 0.63876 0.81914 0.38035 0.0
C295 C 0.65555 0.83675 0.39732 0.0
C296 C 0.68185 0.8471 0.39516 0.0
C297 C 0.69105 0.84092 0.37596 0.0
C298 C 0.67785 0.78066 0.34904 0.0
C299 C 0.65201 0.76307 0.3506 0.0
C300 C 0.6437 0.74642 0.3689 0.0
C301 C 0.66111 0.74706 0.38602 0.0
C302 C 0.68715 0.76414 0.38398 0.0
C303 C 0.69545 0.78093 0.36563 0.0
C304 C 0.73049 0.80212 0.20269 0.0
C305 C 0.67123 0.92244 0.33579 0.0
H306 H 0.79987 0.60567 0.66881 0.0
H307 H 0.00471 0.59649 0.85873 0.0
H308 H 0.84485 0.651 0.79857 0.0
H309 H 0.80956 0.65304 0.77859 0.0
H310 H 0.76673 0.57183 0.77369 0.0
H311 H 0.80204 0.57001 0.79317 0.0
H312 H 0.86148 0.64095 0.75565 0.0
H313 H 0.83909 0.63383 0.71776 0.0
H314 H 0.81433 0.55453 0.72126 0.0
H315 H 0.83637 0.56185 0.75941 0.0
H316 H 0.90571 0.63071 0.74984 0.0
H317 H 0.92006 0.61633 0.71711 0.0
H318 H 0.90177 0.54812 0.7533 0.0
H319 H 0.88688 0.56224 0.78555 0.0
H320 H 0.94198 0.64503 0.80214 0.0
H321 H 0.98226 0.64761 0.81409 0.0
H322 H 0.9411 0.57497 0.8458 0.0
H323 H 0.90104 0.57242 0.83335 0.0
H324 H 0.92163 0.65347 0.85052 0.0
H325 H 0.94728 0.65445 0.88466 0.0
H326 H 0.89236 0.57668 0.89706 0.0
H327 H 0.86655 0.57624 0.86334 0.0
H328 H 0.86904 0.64824 0.85855 0.0
H329 H 0.84195 0.64635 0.88989 0.0
H330 H 0.78572 0.57089 0.86733 0.0
H331 H 0.8131 0.57245 0.83687 0.0
O332 O 0.80919 0.60817 0.68349 0.0
O333 O 0.80014 0.56833 0.68441 0.0
O334 O 0.00943 0.63162 0.83445 0.0
O335 O 0.9891 0.59548 0.8529 0.0
C336 C 0.84924 0.60937 0.80272 0.0
C337 C 0.86186 0.60591 0.78429 0.0
C338 C 0.88414 0.60475 0.78899 0.0
C339 C 0.89444 0.60845 0.81199 0.0
C340 C 0.88168 0.61185 0.83041 0.0
C341 C 0.85855 0.61137 0.82588 0.0
C342 C 0.82586 0.61036 0.79729 0.0
C343 C 0.82741 0.6337 0.794 0.0
C344 C 0.8074 0.63484 0.7825 0.0
C345 C 0.78553 0.61261 0.77465 0.0
C346 C 0.78322 0.58924 0.77989 0.0
C347 C 0.80332 0.58813 0.79102 0.0
C348 C 0.85054 0.60192 0.76024 0.0
C349 C 0.85134 0.62208 0.74813 0.0
C350 C 0.83849 0.61795 0.72651 0.0
C351 C 0.82486 0.59359 0.71651 0.0
C352 C 0.82466 0.57352 0.72847 0.0
C353 C 0.83734 0.57766 0.75019 0.0
C354 C 0.89535 0.59758 0.77014 0.0
C355 C 0.90495 0.61274 0.75072 0.0
C356 C 0.91303 0.60448 0.73205 0.0
C357 C 0.91201 0.58112 0.7327 0.0
C358 C 0.90303 0.56633 0.75245 0.0
C359 C 0.89462 0.57441 0.7709 0.0
C360 C 0.91864 0.60863 0.81702 0.0
C361 C 0.94173 0.62954 0.81136 0.0
C362 C 0.96469 0.63102 0.81832 0.0
C363 C 0.96489 0.61158 0.8311 0.0
C364 C 0.94164 0.59033 0.83613 0.0
C365 C 0.91873 0.58881 0.82902 0.0
C366 C 0.89244 0.61472 0.85442 0.0
C367 C 0.91467 0.63702 0.86123 0.0
C368 C 0.9294 0.63744 0.88057 0.0
C369 C 0.92217 0.61546 0.89323 0.0
C370 C 0.89846 0.59396 0.88776 0.0
C371 C 0.88364 0.59364 0.8685 0.0
C372 C 0.84287 0.61061 0.84522 0.0
C373 C 0.85096 0.63127 0.86052 0.0
C374 C 0.83552 0.63018 0.87833 0.0
C375 C 0.81167 0.60858 0.88074 0.0
C376 C 0.80384 0.58789 0.86556 0.0
C377 C 0.81941 0.5888 0.84816 0.0
C378 C 0.81068 0.58918 0.69383 0.0
C379 C 0.98919 0.61356 0.83948 0.0
H380 H 0.27504 0.8406 0.45787 0.0
H381 H 0.15322 0.63783 0.26298 0.0
H382 H 0.28208 0.8589 0.33553 0.0
H383 H 0.3165 0.89568 0.35652 0.0
H384 H 0.3692 0.87175 0.33798 0.0
H385 H 0.33477 0.8351 0.31725 0.0
H386 H 0.23899 0.81106 0.36112 0.0
H387 H 0.24742 0.82343 0.40232 0.0
H388 H 0.3171 0.82111 0.40162 0.0
H389 H 0.30819 0.8083 0.36059 0.0
H390 H 0.19852 0.76009 0.33302 0.0
H391 H 0.17317 0.72869 0.36148 0.0
H392 H 0.23875 0.72298 0.38331 0.0
H393 H 0.26385 0.75444 0.35511 0.0
H394 H 0.2027 0.76205 0.27469 0.0
H395 H 0.16898 0.72129 0.25912 0.0
H396 H 0.20632 0.68494 0.29295 0.0
H397 H 0.24003 0.72585 0.30822 0.0
H398 H 0.24776 0.80609 0.24651 0.0
H399 H 0.24406 0.79172 0.20606 0.0
H400 H 0.26681 0.7385 0.22855 0.0
H401 H 0.27111 0.75343 0.26855 0.0
H402 H 0.28819 0.85785 0.27792 0.0
H403 H 0.31955 0.88663 0.2512 0.0
H404 H 0.34665 0.83427 0.24318 0.0
H405 H 0.31607 0.80629 0.27056 0.0
O406 O 0.27189 0.83537 0.44168 0.0
O407 O 0.30776 0.83439 0.44023 0.0
O408 O 0.14698 0.67356 0.25319 0.0
O409 O 0.1661 0.65412 0.26922 0.0
C410 C 0.28452 0.81971 0.31643 0.0
C411 C 0.26839 0.80235 0.33263 0.0
C412 C 0.24852 0.77842 0.32494 0.0
C413 C 0.24473 0.77185 0.30105 0.0
C414 C 0.26149 0.78883 0.28499 0.0
C415 C 0.28134 0.81278 0.29267 0.0
C416 C 0.30595 0.84436 0.32491 0.0
C417 C 0.3012 0.86201 0.33554 0.0
C418 C 0.32081 0.88289 0.34757 0.0
C419 C 0.34549 0.88651 0.34896 0.0
C420 C 0.35047 0.86967 0.33695 0.0
C421 C 0.33082 0.84871 0.32509 0.0
C422 C 0.27303 0.80892 0.35786 0.0
C423 C 0.25595 0.81306 0.36996 0.0
C424 C 0.26087 0.82021 0.39346 0.0
C425 C 0.28299 0.82337 0.40524 0.0
C426 C 0.29992 0.81891 0.39307 0.0
C427 C 0.29491 0.81164 0.36963 0.0
C428 C 0.23301 0.75958 0.34213 0.0
C429 C 0.20733 0.75204 0.34402 0.0
C430 C 0.19291 0.73408 0.3602 0.0
C431 C 0.204 0.72344 0.37473 0.0
C432 C 0.22976 0.73113 0.3727 0.0
C433 C 0.2441 0.749 0.35654 0.0
C434 C 0.22368 0.74686 0.29273 0.0
C435 C 0.20347 0.74523 0.27882 0.0
C436 C 0.18426 0.72194 0.26994 0.0
C437 C 0.18496 0.69984 0.27479 0.0
C438 C 0.20518 0.70157 0.28889 0.0
C439 C 0.22439 0.72488 0.29775 0.0
C440 C 0.25948 0.78062 0.26042 0.0
C441 C 0.25209 0.79146 0.24257 0.0
C442 C 0.24994 0.7832 0.21955 0.0
C443 C 0.25527 0.76406 0.21408 0.0
C444 C 0.26302 0.75358 0.23207 0.0
C445 C 0.26517 0.76184 0.25498 0.0
C446 C 0.29981 0.82998 0.27605 0.0
C447 C 0.30096 0.8527 0.27036 0.0
C448 C 0.31874 0.86898 0.25499 0.0
C449 C 0.33562 0.86274 0.24507 0.0
C450 C 0.3342 0.83982 0.25075 0.0
C451 C 0.31657 0.82368 0.2662 0.0
C452 C 0.28838 0.83135 0.43009 0.0
C453 C 0.16482 0.67511 0.26506 0.0
H454 H 0.48144 0.24195 0.6591 0.0
H455 H 0.45522 0.06391 0.85262 0.0
H456 H 0.51546 0.27239 0.78127 0.0
H457 H 0.51569 0.30737 0.76088 0.0
H458 H 0.44189 0.28558 0.78602 0.0
H459 H 0.44182 0.25041 0.80648 0.0
H460 H 0.50759 0.22633 0.75398 0.0
H461 H 0.5035 0.23371 0.71275 0.0
H462 H 0.42902 0.22337 0.72282 0.0
H463 H 0.43323 0.2157 0.76397 0.0
H464 H 0.51166 0.18569 0.78597 0.0
H465 H 0.51123 0.1553 0.75842 0.0
H466 H 0.43425 0.13307 0.7359 0.0
H467 H 0.43458 0.16329 0.76407 0.0
H468 H 0.51619 0.18802 0.83756 0.0
H469 H 0.51653 0.15048 0.85119 0.0
H470 H 0.43727 0.10489 0.82938 0.0
H471 H 0.43708 0.14267 0.81618 0.0
H472 H 0.52241 0.23695 0.86166 0.0
H473 H 0.53299 0.226 0.8997 0.0
H474 H 0.4572 0.16203 0.90128 0.0
H475 H 0.44637 0.17359 0.8636 0.0
H476 H 0.52028 0.27887 0.83192 0.0
H477 H 0.5306 0.30962 0.86343 0.0
H478 H 0.45999 0.25881 0.89448 0.0
H479 H 0.44947 0.22831 0.86256 0.0
O480 O 0.48257 0.23878 0.67541 0.0
O481 O 0.44447 0.23351 0.68156 0.0
O482 O 0.49624 0.1034 0.85861 0.0
O483 O 0.45562 0.07905 0.84736 0.0
C484 C 0.47667 0.23509 0.80354 0.0
C485 C 0.47342 0.21649 0.78707 0.0
C486 C 0.47359 0.19468 0.79447 0.0
C487 C 0.4762 0.19103 0.81837 0.0
C488 C 0.47907 0.20941 0.83489 0.0
C489 C 0.47944 0.23155 0.82748 0.0
C490 C 0.47854 0.25878 0.79517 0.0
C491 C 0.49957 0.27546 0.78275 0.0
C492 C 0.49959 0.2953 0.77102 0.0
C493 C 0.47862 0.29892 0.77158 0.0
C494 C 0.45829 0.28322 0.78533 0.0
C495 C 0.45823 0.26319 0.79702 0.0
C496 C 0.47065 0.22036 0.76191 0.0
C497 C 0.49032 0.22546 0.74719 0.0
C498 C 0.48797 0.22976 0.72367 0.0
C499 C 0.46593 0.22914 0.71448 0.0
C500 C 0.44624 0.22398 0.72933 0.0
C501 C 0.44859 0.2196 0.75282 0.0
C502 C 0.47308 0.17652 0.77717 0.0
C503 C 0.4946 0.1741 0.77526 0.0
C504 C 0.49431 0.15672 0.75958 0.0
C505 C 0.4726 0.14169 0.74525 0.0
C506 C 0.45119 0.14446 0.7468 0.0
C507 C 0.45137 0.16165 0.7628 0.0
C508 C 0.47656 0.16808 0.82605 0.0
C509 C 0.49889 0.16992 0.83584 0.0
C510 C 0.49905 0.14844 0.84355 0.0
C511 C 0.4769 0.12468 0.84141 0.0
C512 C 0.45464 0.1229 0.83133 0.0
C513 C 0.45448 0.14442 0.82372 0.0
C514 C 0.48366 0.20598 0.8598 0.0
C515 C 0.50779 0.22116 0.87061 0.0
C516 C 0.51382 0.21486 0.89228 0.0
C517 C 0.49594 0.19308 0.90322 0.0
C518 C 0.47131 0.17885 0.89308 0.0
C519 C 0.46512 0.18544 0.87164 0.0
C520 C 0.48404 0.25141 0.84485 0.0
C521 C 0.5067 0.27466 0.84515 0.0
C522 C 0.51262 0.29214 0.8632 0.0
C523 C 0.49614 0.2865 0.88143 0.0
C524 C 0.47312 0.2635 0.88075 0.0
C525 C 0.46704 0.24617 0.86251 0.0
C526 C 0.46358 0.23392 0.68952 0.0
C527 C 0.47694 0.10181 0.84967 0.0
H528 H 0.12608 0.48936 0.08328 0.0
H529 H 0.1487 0.47378 0.10772 0.0
H530 H 0.20655 0.4977 0.0576 0.0
H531 H 0.18438 0.51386 0.0333 0.0
H532 H 0.16277 0.4397 0.10322 0.0
H533 H 0.26407 0.52078 0.08663 0.0
H534 H 0.28539 0.56522 0.07513 0.0
H535 H 0.22568 0.57345 0.10295 0.0
H536 H 0.20425 0.52921 0.11493 0.0
H537 H 0.24708 0.40957 0.16363 0.0
H538 H 0.23016 0.42359 0.13128 0.0
H539 H 0.24097 0.48657 0.17332 0.0
H540 H 0.25769 0.47275 0.20551 0.0
H541 H 0.25169 0.5003 0.12956 0.0
H542 H 0.18477 0.43292 0.17027 0.0
H543 H 0.16168 0.39033 0.18616 0.0
H544 H 0.1489 0.3579 0.11756 0.0
H545 H 0.17236 0.40034 0.10128 0.0
C546 C 0.14351 0.49114 0.07736 0.0
C547 C 0.15359 0.50309 0.05649 0.0
C548 C 0.15636 0.48213 0.09131 0.0
C549 C 0.17946 0.48487 0.08461 0.0
C550 C 0.18897 0.49578 0.06327 0.0
C551 C 0.17624 0.50497 0.0494 0.0
C552 C 0.19415 0.47749 0.10054 0.0
C553 C 0.18228 0.45288 0.10882 0.0
C554 C 0.21946 0.49484 0.10817 0.0
C555 C 0.23242 0.5216 0.1014 0.0
C556 C 0.25556 0.53211 0.09036 0.0
C557 C 0.26766 0.55726 0.08376 0.0
C558 C 0.25685 0.57212 0.08823 0.0
C559 C 0.23399 0.5619 0.09942 0.0
C560 C 0.22185 0.53679 0.1061 0.0
C561 C 0.24618 0.42661 0.1658 0.0
C562 C 0.25369 0.44003 0.18711 0.0
C563 C 0.23655 0.43459 0.14734 0.0
C564 C 0.23407 0.45596 0.15004 0.0
C565 C 0.24285 0.47012 0.17084 0.0
C566 C 0.25251 0.46222 0.18921 0.0
C567 C 0.22035 0.4625 0.13216 0.0
C568 C 0.23236 0.48697 0.12357 0.0
C569 C 0.19489 0.44529 0.12486 0.0
C570 C 0.18057 0.41978 0.13458 0.0
C571 C 0.1772 0.41671 0.15859 0.0
C572 C 0.16403 0.3926 0.16767 0.0
C573 C 0.15387 0.37143 0.15289 0.0
C574 C 0.15682 0.37432 0.12899 0.0
C575 C 0.17006 0.39839 0.11982 0.0
H576 H 0.14367 0.35278 0.15996 0.0
H577 H 0.26622 0.59156 0.08307 0.0
H578 H 0.65172 0.09562 0.57771 0.0
H579 H 0.69176 0.11903 0.60054 0.0
H580 H 0.68945 0.04929 0.61688 0.0
H581 H 0.64852 0.02586 0.59544 0.0
H582 H 0.7025 0.07444 0.65318 0.0
H583 H 0.73258 0.09575 0.57717 0.0
H584 H 0.73491 0.1106 0.53714 0.0
H585 H 0.75275 0.18342 0.56305 0.0
H586 H 0.75019 0.16892 0.60326 0.0
H587 H 0.83391 0.14173 0.69575 0.0
H588 H 0.8014 0.12165 0.66435 0.0
H589 H 0.76818 0.1661 0.68351 0.0
H590 H 0.79914 0.18493 0.71591 0.0
H591 H 0.77668 0.15319 0.62761 0.0
H592 H 0.73612 0.12303 0.70443 0.0
H593 H 0.73793 0.10663 0.74307 0.0
H594 H 0.74464 0.04708 0.71151 0.0
H595 H 0.74337 0.06352 0.67267 0.0
C596 C 0.6599 0.08538 0.58611 0.0
C597 C 0.64709 0.05899 0.58493 0.0
C598 C 0.68292 0.09877 0.59899 0.0
C599 C 0.69402 0.08604 0.61019 0.0
C600 C 0.68135 0.05963 0.60852 0.0
C601 C 0.65799 0.04623 0.59624 0.0
C602 C 0.71793 0.10006 0.62482 0.0
C603 C 0.71873 0.09142 0.64725 0.0
C604 C 0.7394 0.12232 0.61739 0.0
C605 C 0.74098 0.13116 0.59324 0.0
C606 C 0.73682 0.11487 0.57434 0.0
C607 C 0.73821 0.12324 0.55161 0.0
C608 C 0.74391 0.14792 0.54755 0.0
C609 C 0.74831 0.16431 0.56622 0.0
C610 C 0.74692 0.15603 0.58899 0.0
C611 C 0.81975 0.14732 0.69336 0.0
C612 C 0.8191 0.16479 0.70874 0.0
C613 C 0.80143 0.13606 0.67518 0.0
C614 C 0.78255 0.14251 0.67173 0.0
C615 C 0.78283 0.16113 0.68587 0.0
C616 C 0.80073 0.17197 0.70436 0.0
C617 C 0.76059 0.12754 0.65553 0.0
C618 C 0.7603 0.13604 0.63306 0.0
C619 C 0.73983 0.1048 0.66254 0.0
C620 C 0.73989 0.0946 0.68577 0.0
C621 C 0.73816 0.10655 0.70578 0.0
C622 C 0.73908 0.09724 0.7277 0.0
C623 C 0.74144 0.07583 0.72976 0.0
C624 C 0.74284 0.06367 0.70989 0.0
C625 C 0.74204 0.07298 0.68793 0.0
H626 H 0.74212 0.06861 0.74672 0.0
H627 H 0.74498 0.15436 0.52994 0.0
H628 H 0.654 0.58884 0.12399 0.0
H629 H 0.67263 0.61931 0.1564 0.0
H630 H 0.65857 0.55945 0.20328 0.0
H631 H 0.64051 0.52879 0.17066 0.0
H632 H 0.63709 0.59338 0.21314 0.0
H633 H 0.71476 0.5951 0.19876 0.0
H634 H 0.74837 0.59811 0.17437 0.0
H635 H 0.76586 0.67216 0.15406 0.0
H636 H 0.73208 0.66944 0.17805 0.0
H637 H 0.6813 0.68559 0.30256 0.0
H638 H 0.67704 0.64973 0.28002 0.0
H639 H 0.71153 0.69841 0.22246 0.0
H640 H 0.71696 0.73434 0.24542 0.0
H641 H 0.7252 0.6652 0.2228 0.0
H642 H 0.64504 0.66202 0.22835 0.0
H643 H 0.60954 0.66069 0.24853 0.0
H644 H 0.59438 0.59164 0.28045 0.0
H645 H 0.63005 0.59276 0.26068 0.0
C646 C 0.65528 0.58223 0.14114 0.0
C647 C 0.6458 0.5565 0.14489 0.0
C648 C 0.66599 0.59964 0.15957 0.0
C649 C 0.667 0.59157 0.18213 0.0
C650 C 0.65806 0.56597 0.18591 0.0
C651 C 0.64785 0.54855 0.16732 0.0
C652 C 0.6752 0.6098 0.20178 0.0
C653 C 0.65649 0.60875 0.21575 0.0
C654 C 0.70031 0.63021 0.20445 0.0
C655 C 0.72076 0.63199 0.1901 0.0
C656 C 0.72563 0.61195 0.18894 0.0
C657 C 0.74474 0.61362 0.17522 0.0
C658 C 0.75921 0.6353 0.16264 0.0
C659 C 0.75463 0.65537 0.16381 0.0
C660 C 0.73553 0.65379 0.1775 0.0
C661 C 0.68842 0.68859 0.28527 0.0
C662 C 0.69939 0.71258 0.27563 0.0
C663 C 0.68587 0.66814 0.27235 0.0
C664 C 0.69343 0.67122 0.24931 0.0
C665 C 0.70555 0.69549 0.24016 0.0
C666 C 0.70863 0.71602 0.25326 0.0
C667 C 0.68696 0.64913 0.23403 0.0
C668 C 0.70593 0.64952 0.22071 0.0
C669 C 0.66187 0.6284 0.23146 0.0
C670 C 0.64039 0.62765 0.24329 0.0
C671 C 0.63424 0.64665 0.23981 0.0
C672 C 0.61409 0.64593 0.25115 0.0
C673 C 0.59977 0.62614 0.26582 0.0
C674 C 0.60554 0.60699 0.26912 0.0
C675 C 0.62571 0.60766 0.25786 0.0
H676 H 0.58417 0.6256 0.27458 0.0
H677 H 0.774 0.63655 0.15202 0.0
H678 H 0.01319 0.49747 0.60362 0.0
H679 H 0.99267 0.5121 0.62972 0.0
H680 H 0.93912 0.50414 0.57447 0.0
H681 H 0.95947 0.48892 0.54802 0.0
H682 H 0.96477 0.55271 0.60236 0.0
H683 H 0.91544 0.4635 0.61111 0.0
H684 H 0.90891 0.42091 0.61677 0.0
H685 H 0.94958 0.44434 0.68297 0.0
H686 H 0.9567 0.4872 0.67755 0.0
H687 H 0.89818 0.58001 0.68683 0.0
H688 H 0.90878 0.5621 0.65415 0.0
H689 H 0.95371 0.54336 0.70087 0.0
H690 H 0.94265 0.56068 0.73355 0.0
H691 H 0.92571 0.50523 0.67302 0.0
H692 H 0.98014 0.5944 0.66312 0.0
H693 H 0.99003 0.63821 0.65798 0.0
H694 H 0.94324 0.61639 0.59498 0.0
H695 H 0.93282 0.57236 0.59991 0.0
C696 C 0.99706 0.4988 0.59692 0.0
C697 C 0.98795 0.49207 0.57373 0.0
C698 C 0.98532 0.5071 0.61191 0.0
C699 C 0.96437 0.50909 0.60401 0.0
C700 C 0.95528 0.50267 0.58082 0.0
C701 C 0.96683 0.49392 0.56581 0.0
C702 C 0.95242 0.51806 0.62035 0.0
C703 C 0.95565 0.54215 0.61756 0.0
C704 C 0.94118 0.50446 0.6404 0.0
C705 C 0.93675 0.47863 0.64384 0.0
C706 C 0.92316 0.45963 0.6268 0.0
C707 C 0.91932 0.43542 0.62998 0.0
C708 C 0.92886 0.42993 0.6502 0.0
C709 C 0.94221 0.44862 0.66731 0.0
C710 C 0.94612 0.47287 0.66421 0.0
C711 C 0.91054 0.5723 0.69003 0.0
C712 C 0.91964 0.57174 0.71269 0.0
C713 C 0.91658 0.56206 0.67136 0.0
C714 C 0.93219 0.5515 0.675 0.0
C715 C 0.94151 0.55125 0.69763 0.0
C716 C 0.93524 0.56118 0.71629 0.0
C717 C 0.93861 0.54028 0.65545 0.0
C718 C 0.93436 0.51571 0.65765 0.0
C719 C 0.94922 0.55361 0.63501 0.0
C720 C 0.95545 0.58005 0.63204 0.0
C721 C 0.97179 0.59891 0.64827 0.0
C722 C 0.97753 0.62378 0.64538 0.0
C723 C 0.9672 0.63006 0.62621 0.0
C724 C 0.95118 0.61149 0.60985 0.0
C725 C 0.94536 0.58658 0.61268 0.0
H726 H 0.97167 0.64933 0.62399 0.0
H727 H 0.92588 0.41118 0.65263 0.0
H728 H 0.50209 0.95785 0.09559 0.0
H729 H 0.46482 0.93675 0.11891 0.0
H730 H 0.48323 0.00818 0.14999 0.0
H731 H 0.52114 0.02923 0.12739 0.0
H732 H 0.47308 0.9768 0.18209 0.0
H733 H 0.43081 0.97425 0.11019 0.0
H734 H 0.41969 0.96637 0.06826 0.0
H735 H 0.39158 0.88747 0.07711 0.0
H736 H 0.40284 0.8949 0.11906 0.0
H737 H 0.32998 0.89059 0.21059 0.0
H738 H 0.36212 0.91926 0.18445 0.0
H739 H 0.41648 0.90188 0.21666 0.0
H740 H 0.38497 0.87423 0.24343 0.0
H741 H 0.38729 0.9115 0.15237 0.0
H742 H 0.47478 0.95176 0.21788 0.0
H743 H 0.48441 0.96243 0.25967 0.0
H744 H 0.41957 0.97203 0.26302 0.0
H745 H 0.40976 0.9618 0.22119 0.0
C746 C 0.49802 0.96909 0.10718 0.0
C747 C 0.51457 0.99517 0.10974 0.0
C748 C 0.4766 0.95702 0.12042 0.0
C749 C 0.471 0.97089 0.13606 0.0
C750 C 0.48715 0.99706 0.13809 0.0
C751 C 0.50879 0.00908 0.12514 0.0
C752 C 0.44944 0.95785 0.15151 0.0
C753 C 0.45429 0.96267 0.17553 0.0
C754 C 0.42472 0.93977 0.143 0.0
C755 C 0.41784 0.93517 0.11777 0.0
C756 C 0.42241 0.95524 0.10318 0.0
C757 C 0.41606 0.95085 0.0794 0.0
C758 C 0.40497 0.92644 0.07002 0.0
C759 C 0.40017 0.90637 0.0844 0.0
C760 C 0.4065 0.91065 0.10819 0.0
C761 C 0.34889 0.89318 0.21231 0.0
C762 C 0.35493 0.88016 0.22912 0.0
C763 C 0.36715 0.90937 0.19723 0.0
C764 C 0.39176 0.91291 0.19877 0.0
C765 C 0.39773 0.89976 0.21539 0.0
C766 C 0.37959 0.88371 0.23052 0.0
C767 C 0.41124 0.93001 0.18285 0.0
C768 C 0.40601 0.9259 0.15882 0.0
C769 C 0.43544 0.94924 0.19128 0.0
C770 C 0.44144 0.95582 0.21641 0.0
C771 C 0.46266 0.95629 0.2275 0.0
C772 C 0.46813 0.96223 0.25121 0.0
C773 C 0.45257 0.96784 0.26401 0.0
C774 C 0.43156 0.96761 0.25311 0.0
C775 C 0.42602 0.96171 0.2294 0.0
H776 H 0.45682 0.97241 0.28236 0.0
H777 H 0.40007 0.92309 0.05161 0.0
H778 H 0.51926 0.43766 0.60718 0.0
H779 H 0.503 0.40668 0.63755 0.0
H780 H 0.4825 0.45357 0.67585 0.0
H781 H 0.49887 0.48496 0.64524 0.0
H782 H 0.50976 0.43683 0.70286 0.0
H783 H 0.436 0.40043 0.65272 0.0
H784 H 0.41107 0.38578 0.61555 0.0
H785 H 0.43501 0.33153 0.60704 0.0
H786 H 0.46041 0.3461 0.64399 0.0
H787 H 0.46498 0.3339 0.78258 0.0
H788 H 0.46403 0.36542 0.75686 0.0
H789 H 0.48818 0.33737 0.70065 0.0
H790 H 0.48886 0.30591 0.726 0.0
H791 H 0.44991 0.34603 0.6866 0.0
H792 H 0.53026 0.38904 0.73179 0.0
H793 H 0.55665 0.40431 0.76819 0.0
H794 H 0.52047 0.44634 0.78547 0.0
H795 H 0.49362 0.43102 0.74927 0.0
C796 C 0.51107 0.44135 0.62192 0.0
C797 C 0.51038 0.46379 0.62382 0.0
C798 C 0.50165 0.42353 0.63923 0.0
C799 C 0.49132 0.42771 0.65886 0.0
C800 C 0.49028 0.44995 0.66076 0.0
C801 C 0.49954 0.46778 0.64325 0.0
C802 C 0.48318 0.40928 0.67777 0.0
C803 C 0.49613 0.41705 0.69955 0.0
C804 C 0.46562 0.38347 0.67333 0.0
C805 C 0.45021 0.37445 0.65113 0.0
C806 C 0.43609 0.38548 0.64287 0.0
C807 C 0.42185 0.37717 0.62183 0.0
C808 C 0.42147 0.35775 0.60893 0.0
C809 C 0.4353 0.34656 0.61706 0.0
C810 C 0.4496 0.35481 0.63808 0.0
C811 C 0.4699 0.33444 0.76468 0.0
C812 C 0.47732 0.31772 0.75634 0.0
C813 C 0.46943 0.35244 0.75006 0.0
C814 C 0.47617 0.3538 0.72688 0.0
C815 C 0.4829 0.33665 0.71846 0.0
C816 C 0.48354 0.31886 0.73303 0.0
C817 C 0.47722 0.37347 0.7113 0.0
C818 C 0.46294 0.36589 0.69015 0.0
C819 C 0.49359 0.39943 0.7163 0.0
C820 C 0.50971 0.40862 0.73801 0.0
C821 C 0.52778 0.40136 0.74346 0.0
C822 C 0.54285 0.41005 0.76403 0.0
C823 C 0.54017 0.42621 0.77918 0.0
C824 C 0.52248 0.43377 0.77375 0.0
C825 C 0.50733 0.42509 0.75322 0.0
H826 H 0.55187 0.43294 0.79509 0.0
H827 H 0.41044 0.35135 0.59265 0.0
H828 H 0.62634 0.98879 0.5227 0.0
H829 H 0.63829 0.96262 0.50087 0.0
H830 H 0.57377 0.89577 0.52556 0.0
H831 H 0.56235 0.92197 0.5483 0.0
H832 H 0.61195 0.88765 0.52224 0.0
H833 H 0.571 0.9199 0.47226 0.0
H834 H 0.56375 0.95255 0.45483 0.0
H835 H 0.63807 0.98824 0.42761 0.0
H836 H 0.64591 0.95599 0.44519 0.0
H837 H 0.61443 0.84354 0.39437 0.0
H838 H 0.60027 0.86168 0.42335 0.0
H839 H 0.66177 0.87205 0.47053 0.0
H840 H 0.67481 0.85176 0.44229 0.0
H841 H 0.62228 0.90619 0.43839 0.0
H842 H 0.64903 0.87704 0.52631 0.0
H843 H 0.65065 0.8408 0.54285 0.0
H844 H 0.594 0.79141 0.49186 0.0
H845 H 0.59179 0.82728 0.47522 0.0
C846 C 0.61488 0.96851 0.52369 0.0
C847 C 0.59323 0.95737 0.53692 0.0
C848 C 0.62169 0.95358 0.51118 0.0
C849 C 0.60656 0.92724 0.51112 0.0
C850 C 0.58565 0.91605 0.52527 0.0
C851 C 0.5791 0.93102 0.53818 0.0
C852 C 0.61159 0.91157 0.49507 0.0
C853 C 0.61422 0.89165 0.50389 0.0
C854 C 0.61385 0.91636 0.47103 0.0
C855 C 0.60912 0.93565 0.46022 0.0
C856 C 0.58585 0.9348 0.46268 0.0
C857 C 0.58163 0.95322 0.45276 0.0
C858 C 0.60046 0.97249 0.44016 0.0
C859 C 0.62351 0.97332 0.4374 0.0
C860 C 0.62785 0.95496 0.44732 0.0
C861 C 0.6245 0.84878 0.41117 0.0
C862 C 0.6458 0.84602 0.4159 0.0
C863 C 0.61655 0.85955 0.42766 0.0
C864 C 0.62989 0.86826 0.44918 0.0
C865 C 0.65088 0.86516 0.45421 0.0
C866 C 0.65857 0.85387 0.43785 0.0
C867 C 0.62286 0.88223 0.46547 0.0
C868 C 0.61996 0.902 0.4567 0.0
C869 C 0.61947 0.87666 0.48934 0.0
C870 C 0.62045 0.85491 0.49938 0.0
C871 C 0.63685 0.85843 0.51869 0.0
C872 C 0.63788 0.83795 0.52807 0.0
C873 C 0.6225 0.81383 0.51836 0.0
C874 C 0.60598 0.81012 0.4993 0.0
C875 C 0.60485 0.83052 0.48987 0.0
H876 H 0.62334 0.79801 0.52564 0.0
H877 H 0.59716 0.98674 0.4325 0.0
H878 H 0.62924 0.56257 0.01386 0.0
H879 H 0.66126 0.57845 0.98443 0.0
H880 H 0.71376 0.57166 0.0321 0.0
H881 H 0.68168 0.55518 0.06143 0.0
H882 H 0.73427 0.61867 0.00294 0.0
H883 H 0.6865 0.52711 0.99912 0.0
H884 H 0.6465 0.48637 0.99659 0.0
H885 H 0.62567 0.50692 0.93166 0.0
H886 H 0.66536 0.54803 0.93405 0.0
H887 H 0.82272 0.61714 0.92733 0.0
H888 H 0.79332 0.61085 0.9577 0.0
H889 H 0.73326 0.59133 0.90531 0.0
H890 H 0.76239 0.59658 0.87511 0.0
H891 H 0.71581 0.55917 0.93703 0.0
H892 H 0.76324 0.64896 0.93817 0.0
H893 H 0.80139 0.69119 0.94031 0.0
H894 H 0.8213 0.67645 0.00846 0.0
H895 H 0.78344 0.63399 0.0066 0.0
C896 C 0.64775 0.56487 0.0182 0.0
C897 C 0.65295 0.5575 0.03986 0.0
C898 C 0.66597 0.57392 0.0014 0.0
C899 C 0.68977 0.57614 0.00616 0.0
C900 C 0.6955 0.57013 0.02819 0.0
C901 C 0.67713 0.56061 0.04483 0.0
C902 C 0.70778 0.58248 0.98753 0.0
C903 C 0.73046 0.60567 0.98858 0.0
C904 C 0.70233 0.56568 0.96861 0.0
C905 C 0.67875 0.54075 0.9669 0.0
C906 C 0.67329 0.52303 0.9844 0.0
C907 C 0.65069 0.49986 0.98298 0.0
C908 C 0.63351 0.49409 0.96401 0.0
C909 C 0.63896 0.51144 0.94637 0.0
C910 C 0.66151 0.53467 0.94775 0.0
C911 C 0.80331 0.61183 0.92238 0.0
C912 C 0.79475 0.6073 0.89897 0.0
C913 C 0.78652 0.60832 0.9397 0.0
C914 C 0.76104 0.60084 0.93384 0.0
C915 C 0.75274 0.597 0.91033 0.0
C916 C 0.76938 0.60006 0.89309 0.0
C917 C 0.74266 0.59562 0.95217 0.0
C918 C 0.71979 0.57245 0.95118 0.0
C919 C 0.74784 0.61266 0.97095 0.0
C920 C 0.77062 0.6382 0.97215 0.0
C921 C 0.77586 0.65465 0.95354 0.0
C922 C 0.79741 0.67864 0.95472 0.0
C923 C 0.81379 0.68647 0.97449 0.0
C924 C 0.80861 0.67035 0.99315 0.0
C925 C 0.78709 0.64633 0.99205 0.0
H926 H 0.83047 0.70506 0.97536 0.0
H927 H 0.61601 0.47615 0.96296 0.0
H928 H 0.0509 0.52936 0.48686 0.0
H929 H 0.07381 0.56576 0.46259 0.0
H930 H 0.13894 0.59492 0.51059 0.0
H931 H 0.11607 0.55838 0.53519 0.0
H932 H 0.12738 0.63172 0.49462 0.0
H933 H 0.14052 0.56684 0.46311 0.0
H934 H 0.12708 0.52418 0.4481 0.0
H935 H 0.08207 0.53237 0.39332 0.0
H936 H 0.09512 0.57506 0.40808 0.0
H937 H 0.21814 0.71909 0.41935 0.0
H938 H 0.19425 0.68548 0.44625 0.0
H939 H 0.13138 0.65066 0.39571 0.0
H940 H 0.15556 0.68375 0.36835 0.0
H941 H 0.1418 0.61682 0.41357 0.0
H942 H 0.12894 0.68171 0.44402 0.0
H943 H 0.14137 0.72413 0.45896 0.0
H944 H 0.1844 0.71589 0.51564 0.0
H945 H 0.17251 0.67353 0.50085 0.0
C946 C 0.07004 0.54354 0.49241 0.0
C947 C 0.08173 0.54089 0.51291 0.0
C948 C 0.08311 0.56431 0.47846 0.0
C949 C 0.10812 0.58283 0.48469 0.0
C950 C 0.11964 0.58074 0.5055 0.0
C951 C 0.10658 0.55985 0.51947 0.0
C952 C 0.12237 0.60393 0.46902 0.0
C953 C 0.1309 0.62857 0.477 0.0
C954 C 0.12629 0.59963 0.44588 0.0
C955 C 0.11862 0.57406 0.43683 0.0
C956 C 0.12762 0.55948 0.44796 0.0
C957 C 0.12009 0.5353 0.43949 0.0
C958 C 0.10364 0.52552 0.41985 0.0
C959 C 0.09478 0.53995 0.40856 0.0
C960 C 0.10228 0.56417 0.41694 0.0
C961 C 0.19924 0.70425 0.41393 0.0
C962 C 0.18877 0.70404 0.39168 0.0
C963 C 0.18551 0.68519 0.42943 0.0
C964 C 0.16094 0.66567 0.42307 0.0
C965 C 0.15029 0.66558 0.40099 0.0
C966 C 0.16404 0.68462 0.38545 0.0
C967 C 0.14682 0.64477 0.43907 0.0
C968 C 0.13833 0.62009 0.43117 0.0
C969 C 0.14285 0.64907 0.46224 0.0
C970 C 0.15003 0.67454 0.47119 0.0
C971 C 0.14123 0.68902 0.45956 0.0
C972 C 0.14814 0.71304 0.46803 0.0
C973 C 0.16372 0.72273 0.48821 0.0
C974 C 0.17236 0.70838 0.5 0.0
C975 C 0.16552 0.68435 0.49159 0.0
H976 H 0.16905 0.74133 0.49473 0.0
H977 H 0.09781 0.50678 0.41335 0.0
H978 H 0.56129 0.06606 0.0244 0.0
H979 H 0.55031 0.09161 0.99961 0.0
H980 H 0.57413 0.14743 0.05468 0.0
H981 H 0.5854 0.12184 0.07983 0.0
H982 H 0.52682 0.13484 0.03269 0.0
H983 H 0.61104 0.16322 0.01147 0.0
H984 H 0.64812 0.16041 0.00029 0.0
H985 H 0.60697 0.11836 0.93849 0.0
H986 H 0.56958 0.12086 0.94934 0.0
H987 H 0.51974 0.21776 0.94422 0.0
H988 H 0.53603 0.20216 0.97603 0.0
H989 H 0.50773 0.13179 0.93839 0.0
H990 H 0.49103 0.147 0.90698 0.0
H991 H 0.56239 0.15919 0.95488 0.0
H992 H 0.47665 0.12796 0.97958 0.0
H993 H 0.44077 0.13279 0.99089 0.0
H994 H 0.48691 0.18289 0.04703 0.0
H995 H 0.52322 0.17863 0.03581 0.0
C996 C 0.56425 0.08377 0.03133 0.0
C997 C 0.57423 0.09193 0.0541 0.0
C998 C 0.55807 0.09841 0.01707 0.0
C999 C 0.56163 0.12149 0.02525 0.0
C1000 C 0.57134 0.12968 0.04805 0.0
C1001 C 0.57782 0.1151 0.06233 0.0
C1002 C 0.55464 0.13653 0.0098 0.0
C1003 C 0.53499 0.14071 0.01589 0.0
C1004 C 0.56517 0.14398 0.98783 0.0
C1005 C 0.58745 0.14208 0.98131 0.0
C1006 C 0.60982 0.1532 0.99558 0.0
C1007 C 0.63092 0.15173 0.98927 0.0
C1008 C 0.62988 0.13915 0.96872 0.0
C1009 C 0.60775 0.12809 0.95441 0.0
C1010 C 0.58662 0.12959 0.96059 0.0
C1011 C 0.51675 0.19886 0.943 0.0
C1012 C 0.50396 0.18344 0.92336 0.0
C1013 C 0.52602 0.19001 0.96107 0.0
C1014 C 0.52303 0.16587 0.95944 0.0
C1015 C 0.51013 0.15045 0.93992 0.0
C1016 C 0.50047 0.15907 0.92212 0.0
C1017 C 0.53416 0.15681 0.97754 0.0
C1018 C 0.55459 0.15377 0.97188 0.0
C1019 C 0.52451 0.15068 -7e-05 0.0
C1020 C 0.50274 0.15327 0.00665 0.0
C1021 C 0.47923 0.14024 0.99417 0.0
C1022 C 0.4588 0.14281 0.0006 0.0
C1023 C 0.46158 0.15822 0.01961 0.0
C1024 C 0.4848 0.17102 0.03227 0.0
C1025 C 0.50531 0.16852 0.02589 0.0
H1026 H 0.44574 0.16018 0.02458 0.0
H1027 H 0.64624 0.13802 0.96388 0.0
H1028 H 0.53532 0.45926 0.49802 0.0
H1029 H 0.50508 0.43753 0.46513 0.0
H1030 H 0.44813 0.44595 0.49933 0.0
H1031 H 0.47801 0.46752 0.53206 0.0
H1032 H 0.42862 0.39905 0.47848 0.0
H1033 H 0.48297 0.48728 0.45987 0.0
H1034 H 0.52428 0.52509 0.45349 0.0
H1035 H 0.53812 0.48563 0.39987 0.0
H1036 H 0.49698 0.44747 0.40617 0.0
H1037 H 0.34457 0.41192 0.4028 0.0
H1038 H 0.3773 0.41555 0.43086 0.0
H1039 H 0.41512 0.40136 0.37631 0.0
H1040 H 0.38229 0.39804 0.34786 0.0
H1041 H 0.44759 0.44269 0.4033 0.0
H1042 H 0.38732 0.35747 0.41641 0.0
H1043 H 0.34518 0.32086 0.42275 0.0
H1044 H 0.34167 0.3546 0.48659 0.0
H1045 H 0.38362 0.39161 0.48049 0.0
C1046 C 0.51626 0.45619 0.49862 0.0
C1047 C 0.5091 0.46529 0.51754 0.0
C1048 C 0.49905 0.44383 0.47983 0.0
C1049 C 0.47444 0.44028 0.47978 0.0
C1050 C 0.46701 0.44844 0.49906 0.0
C1051 C 0.48418 0.46092 0.51769 0.0
C1052 C 0.4567 0.42965 0.4592 0.0
C1053 C 0.43273 0.40847 0.46199 0.0
C1054 C 0.46244 0.44153 0.4375 0.0
C1055 C 0.4871 0.46445 0.4337 0.0
C1056 C 0.49493 0.48661 0.44686 0.0
C1057 C 0.51829 0.50811 0.44324 0.0
C1058 C 0.53386 0.50773 0.42634 0.0
C1059 C 0.52606 0.48588 0.41299 0.0
C1060 C 0.50274 0.46431 0.41658 0.0
C1061 C 0.3598 0.40948 0.39678 0.0
C1062 C 0.36105 0.40491 0.37316 0.0
C1063 C 0.37835 0.41128 0.41286 0.0
C1064 C 0.39848 0.40843 0.40571 0.0
C1065 C 0.39962 0.40344 0.38217 0.0
C1066 C 0.38088 0.40147 0.366 0.0
C1067 C 0.4191 0.41262 0.42284 0.0
C1068 C 0.44364 0.43264 0.41947 0.0
C1069 C 0.41384 0.39971 0.44404 0.0
C1070 C 0.38864 0.37739 0.44793 0.0
C1071 C 0.37751 0.35717 0.43174 0.0
C1072 C 0.35366 0.33633 0.4353 0.0
C1073 C 0.34075 0.33541 0.45505 0.0
C1074 C 0.3517 0.35533 0.47131 0.0
C1075 C 0.37555 0.37622 0.46783 0.0
H1076 H 0.32228 0.31926 0.45777 0.0
H1077 H 0.55193 0.5244 0.42355 0.0
H1078 H 0.13888 0.51298 0.93034 0.0
H1079 H 0.12157 0.47635 0.90349 0.0
H1080 H 0.07088 0.42979 0.95542 0.0
H1081 H 0.08777 0.46575 0.982 0.0
H1082 H 0.09446 0.40729 0.93482 0.0
H1083 H 0.04972 0.45212 0.91233 0.0
H1084 H 0.04771 0.48891 0.89803 0.0
H1085 H 0.08378 0.48769 0.83609 0.0
H1086 H 0.08619 0.45094 0.85017 0.0
H1087 H 0.97846 0.30736 0.896 0.0
H1088 H 0.01457 0.34683 0.91089 0.0
H1089 H 0.0457 0.36214 0.84308 0.0
H1090 H 0.00927 0.3223 0.828 0.0
H1091 H 0.04369 0.4028 0.86359 0.0
H1092 H 0.0765 0.34942 0.88325 0.0
H1093 H 0.07572 0.31147 0.89826 0.0
H1094 H 0.06095 0.32807 0.96619 0.0
H1095 H 0.06124 0.36591 0.95154 0.0
C1096 C 0.12408 0.49489 0.93597 0.0
C1097 C 0.11464 0.49231 0.95827 0.0
C1098 C 0.11425 0.47404 0.92065 0.0
C1099 C 0.09501 0.45037 0.92753 0.0
C1100 C 0.08585 0.44783 0.94982 0.0
C1101 C 0.09544 0.46852 0.96496 0.0
C1102 C 0.08341 0.42801 0.9117 0.0
C1103 C 0.0835 0.4063 0.91913 0.0
C1104 C 0.06984 0.42699 0.89085 0.0
C1105 C 0.06846 0.44906 0.88243 0.0
C1106 C 0.05743 0.45985 0.89576 0.0
C1107 C 0.05617 0.48066 0.88767 0.0
C1108 C 0.06572 0.49072 0.8662 0.0
C1109 C 0.07646 0.47992 0.85274 0.0
C1110 C 0.07777 0.4591 0.86076 0.0
C1111 C 0.99308 0.31907 0.8843 0.0
C1112 C 0.9911 0.3119 0.86086 0.0
C1113 C 0.01377 0.3415 0.89283 0.0
C1114 C 0.03291 0.35728 0.87812 0.0
C1115 C 0.03118 0.35011 0.85471 0.0
C1116 C 0.0105 0.32739 0.84617 0.0
C1117 C 0.05374 0.3818 0.88738 0.0
C1118 C 0.05541 0.40391 0.87874 0.0
C1119 C 0.06883 0.38317 0.90723 0.0
C1120 C 0.06885 0.36052 0.91625 0.0
C1121 C 0.07294 0.34492 0.90137 0.0
C1122 C 0.0726 0.32342 0.90981 0.0
C1123 C 0.06828 0.31736 0.93316 0.0
C1124 C 0.06433 0.3328 0.94811 0.0
C1125 C 0.06463 0.35431 0.93975 0.0
H1126 H 0.06801 0.30071 0.93966 0.0
H1127 H 0.06471 0.50683 0.85996 0.0
H1128 H 0.04533 0.53579 0.02044 0.0
H1129 H 0.01623 0.54905 0.00416 0.0
H1130 H 0.07313 0.59804 0.9576 0.0
H1131 H 0.10207 0.58467 0.9734 0.0
H1132 H 0.01853 0.59475 0.00045 0.0
H1133 H 0.04475 0.59561 0.90512 0.0
H1134 H 0.06101 0.57489 0.88008 0.0
H1135 H 0.02992 0.51052 0.92374 0.0
H1136 H 0.01313 0.53067 0.94883 0.0
H1137 H 0.97251 0.63441 0.88726 0.0
H1138 H 0.00209 0.62677 0.91044 0.0
H1139 H 0.94339 0.58288 0.95763 0.0
H1140 H 0.91379 0.59144 0.93496 0.0
H1141 H 0.99761 0.58245 0.91569 0.0
H1142 H 0.97122 0.5824 0.01092 0.0
H1143 H 0.95567 0.6039 0.03583 0.0
H1144 H 0.98785 0.668 0.99188 0.0
H1145 H 0.00387 0.64704 0.9669 0.0
C1146 C 0.05166 0.54946 0.00679 0.0
C1147 C 0.07589 0.55895 0.99802 0.0
C1148 C 0.03506 0.55707 0.99759 0.0
C1149 C 0.04241 0.57423 0.97946 0.0
C1150 C 0.06693 0.58443 0.97131 0.0
C1151 C 0.08345 0.57677 0.98039 0.0
C1152 C 0.02424 0.58081 0.96836 0.0
C1153 C 0.01366 0.59179 0.98197 0.0
C1154 C 0.0183 0.57733 0.94418 0.0
C1155 C 0.02793 0.56479 0.929 0.0
C1156 C 0.0413 0.57699 0.90932 0.0
C1157 C 0.05061 0.56535 0.89512 0.0
C1158 C 0.04659 0.54145 0.90036 0.0
C1159 C 0.03312 0.52908 0.91975 0.0
C1160 C 0.02372 0.54061 0.93398 0.0
C1161 C 0.96606 0.6239 0.90302 0.0
C1162 C 0.94079 0.61369 0.90936 0.0
C1163 C 0.98295 0.61929 0.91611 0.0
C1164 C 0.97499 0.60429 0.93577 0.0
C1165 C 0.95004 0.59477 0.94267 0.0
C1166 C 0.9331 0.5995 0.92961 0.0
C1167 C 0.99219 0.59688 0.94766 0.0
C1168 C 0.00247 0.58551 0.93418 0.0
C1169 C 0.99786 0.60012 0.97189 0.0
C1170 C 0.98848 0.613 0.98689 0.0
C1171 C 0.97503 0.60111 0.00661 0.0
C1172 C 0.96613 0.6132 0.02074 0.0
C1173 C 0.97069 0.63726 0.0154 0.0
C1174 C 0.98423 0.64932 0.99595 0.0
C1175 C 0.99319 0.63732 0.98177 0.0
H1176 H 0.96377 0.64659 0.02635 0.0
H1177 H 0.05387 0.53252 0.88935 0.0
H1178 H 0.54937 0.0158 0.47502 0.0
H1179 H 0.51453 0.99944 0.44555 0.0
H1180 H 0.46104 0.96043 0.49839 0.0
H1181 H 0.49603 0.9756 0.52762 0.0
H1182 H 0.44863 0.93076 0.46419 0.0
H1183 H 0.46913 0.01642 0.47074 0.0
H1184 H 0.49644 0.06261 0.47151 0.0
H1185 H 0.51554 0.06002 0.40115 0.0
H1186 H 0.4886 0.01377 0.40006 0.0
H1187 H 0.33993 0.89716 0.39338 0.0
H1188 H 0.37355 0.92306 0.42231 0.0
H1189 H 0.4294 0.94412 0.37062 0.0
H1190 H 0.39572 0.91849 0.34136 0.0
H1191 H 0.43912 0.98391 0.40433 0.0
H1192 H 0.41838 0.89628 0.40054 0.0
H1193 H 0.38737 0.85079 0.40049 0.0
H1194 H 0.36535 0.85867 0.4683 0.0
H1195 H 0.39596 0.90431 0.46858 0.0
C1196 C 0.53014 0.00385 0.48032 0.0
C1197 C 0.52535 0.99696 0.50357 0.0
C1198 C 0.51019 0.99463 0.46349 0.0
C1199 C 0.485 0.97901 0.46973 0.0
C1200 C 0.48026 0.97241 0.49307 0.0
C1201 C 0.50025 0.98112 0.50979 0.0
C1202 C 0.46372 0.96859 0.45185 0.0
C1203 C 0.44644 0.94257 0.45141 0.0
C1204 C 0.46084 0.98378 0.43483 0.0
C1205 C 0.47702 0.0116 0.4354 0.0
C1206 C 0.4793 0.02569 0.45549 0.0
C1207 C 0.49469 0.05188 0.45597 0.0
C1208 C 0.50776 0.06423 0.43641 0.0
C1209 C 0.50542 0.05042 0.4163 0.0
C1210 C 0.49007 0.02422 0.41573 0.0
C1211 C 0.35926 0.90796 0.38795 0.0
C1212 C 0.36525 0.90571 0.36513 0.0
C1213 C 0.37844 0.92263 0.40454 0.0
C1214 C 0.4039 0.93522 0.3986 0.0
C1215 C 0.40982 0.9345 0.37549 0.0
C1216 C 0.39063 0.91973 0.35887 0.0
C1217 C 0.42439 0.94642 0.41697 0.0
C1218 C 0.44145 0.97239 0.41736 0.0
C1219 C 0.42684 0.93133 0.43423 0.0
C1220 C 0.40932 0.90372 0.43451 0.0
C1221 C 0.40687 0.88831 0.41541 0.0
C1222 C 0.38936 0.86251 0.41533 0.0
C1223 C 0.37436 0.85185 0.43436 0.0
C1224 C 0.37697 0.86695 0.45357 0.0
C1225 C 0.39441 0.89278 0.45371 0.0
H1226 H 0.36075 0.83189 0.43423 0.0
H1227 H 0.51967 0.08451 0.43682 0.0
H1228 H 0.58042 0.47422 0.02085 0.0
H1229 H 0.56339 0.44063 0.99145 0.0
H1230 H 0.55985 0.38822 0.04309 0.0
H1231 H 0.57806 0.42232 0.07263 0.0
H1232 H 0.57523 0.37933 0.00435 0.0
H1233 H 0.50579 0.38963 0.02314 0.0
H1234 H 0.48298 0.41245 0.03029 0.0
H1235 H 0.49236 0.43711 0.95988 0.0
H1236 H 0.51555 0.41473 0.95238 0.0
H1237 H 0.49437 0.27529 0.92731 0.0
H1238 H 0.50875 0.30462 0.96073 0.0
H1239 H 0.5294 0.3665 0.91453 0.0
H1240 H 0.51504 0.33726 0.88104 0.0
H1241 H 0.50218 0.36694 0.95317 0.0
H1242 H 0.57425 0.35743 0.93638 0.0
H1243 H 0.59528 0.33268 0.93024 0.0
H1244 H 0.57784 0.3036 0.99889 0.0
H1245 H 0.55638 0.32793 0.00531 0.0
C1246 C 0.57599 0.45553 0.026 0.0
C1247 C 0.58023 0.45078 0.0491 0.0
C1248 C 0.56614 0.4363 0.00917 0.0
C1249 C 0.55964 0.41171 0.01515 0.0
C1250 C 0.56451 0.40701 0.03811 0.0
C1251 C 0.57486 0.42645 0.05496 0.0
C1252 C 0.54781 0.39113 0.99727 0.0
C1253 C 0.55897 0.37634 0.99346 0.0
C1254 C 0.52667 0.38726 0.98288 0.0
C1255 C 0.51257 0.40063 0.98726 0.0
C1256 C 0.50313 0.40005 0.00922 0.0
C1257 C 0.49012 0.41289 0.01333 0.0
C1258 C 0.48626 0.42626 0.99556 0.0
C1259 C 0.49537 0.42676 0.97363 0.0
C1260 C 0.50842 0.41397 0.96943 0.0
C1261 C 0.50172 0.29512 0.92433 0.0
C1262 C 0.5036 0.30405 0.90162 0.0
C1263 C 0.51006 0.31183 0.94339 0.0
C1264 C 0.52027 0.3377 0.94004 0.0
C1265 C 0.52161 0.34659 0.91743 0.0
C1266 C 0.51353 0.32993 0.89835 0.0
C1267 C 0.52993 0.35565 0.96006 0.0
C1268 C 0.51828 0.36985 0.96426 0.0
C1269 C 0.55032 0.35867 0.97499 0.0
C1270 C 0.56348 0.34429 0.97123 0.0
C1271 C 0.57473 0.34561 0.9501 0.0
C1272 C 0.58675 0.33168 0.94658 0.0
C1273 C 0.58783 0.31652 0.96414 0.0
C1274 C 0.57695 0.31532 0.98529 0.0
C1275 C 0.56488 0.32919 0.98888 0.0
H1276 H 0.59714 0.30574 0.96138 0.0
H1277 H 0.47619 0.43619 0.99878 0.0
H1278 H 0.06034 0.42211 0.51397 0.0
H1279 H 0.07939 0.40789 0.48569 0.0
H1280 H 0.04504 0.42912 0.42985 0.0
H1281 H 0.02479 0.44222 0.45832 0.0
H1282 H 0.04722 0.38859 0.41713 0.0
H1283 H 0.10586 0.46923 0.45073 0.0
H1284 H 0.12861 0.50029 0.48262 0.0
H1285 H 0.16245 0.45741 0.50725 0.0
H1286 H 0.13942 0.42573 0.47588 0.0
H1287 H 0.14491 0.41033 0.33803 0.0
H1288 H 0.11513 0.41396 0.36279 0.0
H1289 H 0.13728 0.38206 0.4194 0.0
H1290 H 0.16704 0.37836 0.39473 0.0
H1291 H 0.1406 0.42855 0.43002 0.0
H1292 H 0.08082 0.34798 0.39425 0.0
H1293 H 0.05822 0.31879 0.36108 0.0
H1294 H 0.0281 0.36539 0.33786 0.0
H1295 H 0.05082 0.39507 0.37072 0.0
C1296 C 0.05643 0.42323 0.49564 0.0
C1297 C 0.04134 0.43344 0.48825 0.0
C1298 C 0.06741 0.41523 0.4795 0.0
C1299 C 0.06428 0.41815 0.45566 0.0
C1300 C 0.04786 0.42686 0.44816 0.0
C1301 C 0.03631 0.43432 0.46439 0.0
C1302 C 0.07976 0.41399 0.43895 0.0
C1303 C 0.06766 0.39754 0.41979 0.0
C1304 C 0.10648 0.42568 0.4424 0.0
C1305 C 0.12074 0.44498 0.46105 0.0
C1306 C 0.11804 0.46633 0.46302 0.0
C1307 C 0.13098 0.48406 0.481 0.0
C1308 C 0.14696 0.48083 0.49693 0.0
C1309 C 0.15005 0.45988 0.4949 0.0
C1310 C 0.13705 0.44202 0.47704 0.0
C1311 C 0.14319 0.40385 0.35569 0.0
C1312 C 0.15828 0.3941 0.36451 0.0
C1313 C 0.12611 0.4058 0.36974 0.0
C1314 C 0.12399 0.39821 0.39288 0.0
C1315 C 0.13861 0.38794 0.40155 0.0
C1316 C 0.15547 0.38571 0.38744 0.0
C1317 C 0.10802 0.40273 0.40857 0.0
C1318 C 0.12014 0.41953 0.42742 0.0
C1319 C 0.0815 0.39178 0.40451 0.0
C1320 C 0.06773 0.37388 0.38482 0.0
C1321 C 0.06956 0.35213 0.38196 0.0
C1322 C 0.05669 0.33547 0.36324 0.0
C1323 C 0.04179 0.34027 0.34734 0.0
C1324 C 0.03967 0.36171 0.35017 0.0
C1325 C 0.05252 0.37844 0.36885 0.0
H1326 H 0.03184 0.32735 0.33286 0.0
H1327 H 0.15697 0.49457 0.51082 0.0
H1328 H 0.66392 0.06683 0.06278 0.0
H1329 H 0.69852 0.07953 0.03664 0.0
H1330 H 0.64535 0.03048 0.98275 0.0
H1331 H 0.61063 0.01696 0.00923 0.0
H1332 H 0.68915 0.03078 0.98084 0.0
H1333 H 0.66356 0.09198 0.98588 0.0
H1334 H 0.65308 0.12066 0.00598 0.0
H1335 H 0.73015 0.16453 0.03278 0.0
H1336 H 0.74087 0.13541 0.01364 0.0
H1337 H 0.75914 0.10281 0.88396 0.0
H1338 H 0.72747 0.08074 0.91301 0.0
H1339 H 0.78522 0.11795 0.96776 0.0
H1340 H 0.81709 0.13974 0.9387 0.0
H1341 H 0.73997 0.1229 0.96943 0.0
H1342 H 0.7644 0.05996 0.96159 0.0
H1343 H 0.77244 0.03039 0.93976 0.0
H1344 H 0.69478 0.99069 0.91387 0.0
H1345 H 0.68635 0.02026 0.93528 0.0
C1346 C 0.65962 0.05854 0.04544 0.0
C1347 C 0.63455 0.0412 0.03789 0.0
C1348 C 0.67941 0.0658 0.03053 0.0
C1349 C 0.67442 0.05638 0.00759 0.0
C1350 C 0.64959 0.03806 0.00036 0.0
C1351 C 0.62978 0.03043 0.01545 0.0
C1352 C 0.69479 0.06711 0.99078 0.0
C1353 C 0.70012 0.0509 0.97821 0.0
C1354 C 0.70917 0.0934 0.9874 0.0
C1355 C 0.70296 0.11132 0.99852 0.0
C1356 C 0.67824 0.10762 0.99621 0.0
C1357 C 0.67226 0.12397 0.00743 0.0
C1358 C 0.69095 0.14448 0.02058 0.0
C1359 C 0.71568 0.14863 0.02259 0.0
C1360 C 0.72171 0.13214 0.01163 0.0
C1361 C 0.76507 0.10594 0.9022 0.0
C1362 C 0.79043 0.12291 0.90921 0.0
C1363 C 0.74706 0.0933 0.91871 0.0
C1364 C 0.75411 0.09773 0.94244 0.0
C1365 C 0.77953 0.11427 0.94948 0.0
C1366 C 0.79766 0.12658 0.93295 0.0
C1367 C 0.73452 0.08663 0.95982 0.0
C1368 C 0.72916 0.10281 0.9723 0.0
C1369 C 0.71982 0.06035 0.96268 0.0
C1370 C 0.72481 0.04248 0.94987 0.0
C1371 C 0.74909 0.04507 0.95107 0.0
C1372 C 0.75371 0.02827 0.93881 0.0
C1373 C 0.73415 0.00871 0.92538 0.0
C1374 C 0.70991 0.00587 0.92425 0.0
C1375 C 0.7052 0.02262 0.93647 0.0
H1376 H 0.73776 0.99573 0.9159 0.0
H1377 H 0.68628 0.15716 0.02921 0.0
H1378 H 0.60284 0.57368 0.52934 0.0
H1379 H 0.62014 0.61055 0.50506 0.0
H1380 H 0.5597 0.62381 0.52255 0.0
H1381 H 0.54213 0.58667 0.54715 0.0
H1382 H 0.56654 0.62468 0.47518 0.0
H1383 H 0.61748 0.66267 0.54425 0.0
H1384 H 0.64575 0.66773 0.57819 0.0
H1385 H 0.70229 0.67273 0.53315 0.0
H1386 H 0.67421 0.66727 0.49893 0.0
H1387 H 0.62123 0.73761 0.41225 0.0
H1388 H 0.60449 0.70848 0.44425 0.0
H1389 H 0.66327 0.68969 0.43745 0.0
H1390 H 0.68024 0.71899 0.40545 0.0
H1391 H 0.65583 0.6946 0.48246 0.0
H1392 H 0.60341 0.65149 0.41415 0.0
H1393 H 0.57559 0.64614 0.37975 0.0
H1394 H 0.52211 0.64998 0.42318 0.0
H1395 H 0.5498 0.6557 0.45783 0.0
C1396 C 0.59323 0.58446 0.52817 0.0
C1397 C 0.57103 0.5772 0.54011 0.0
C1398 C 0.60328 0.60565 0.5144 0.0
C1399 C 0.59134 0.62003 0.5122 0.0
C1400 C 0.56924 0.61299 0.52415 0.0
C1401 C 0.55927 0.59183 0.53819 0.0
C1402 C 0.60134 0.64149 0.49626 0.0
C1403 C 0.58589 0.64028 0.47704 0.0
C1404 C 0.62679 0.66145 0.49843 0.0
C1405 C 0.64363 0.66439 0.519 0.0
C1406 C 0.63583 0.66459 0.54157 0.0
C1407 C 0.65185 0.66758 0.56087 0.0
C1408 C 0.67579 0.67055 0.55782 0.0
C1409 C 0.68374 0.67044 0.53548 0.0
C1410 C 0.66779 0.66742 0.51613 0.0
C1411 C 0.63055 0.72721 0.41754 0.0
C1412 C 0.65186 0.73032 0.40618 0.0
C1413 C 0.621 0.71063 0.43585 0.0
C1414 C 0.6324 0.69663 0.443 0.0
C1415 C 0.65417 0.7003 0.43219 0.0
C1416 C 0.66384 0.71702 0.41393 0.0
C1417 C 0.62114 0.67756 0.46121 0.0
C1418 C 0.63638 0.67919 0.4808 0.0
C1419 C 0.59553 0.65787 0.45934 0.0
C1420 C 0.5788 0.65431 0.43854 0.0
C1421 C 0.58581 0.65139 0.41634 0.0
C1422 C 0.57005 0.64826 0.3968 0.0
C1423 C 0.54713 0.6478 0.39927 0.0
C1424 C 0.53989 0.65039 0.42129 0.0
C1425 C 0.5556 0.65356 0.44089 0.0
H1426 H 0.53496 0.64537 0.38412 0.0
H1427 H 0.68824 0.67306 0.57275 0.0
H1428 H 0.5376 0.00569 0.63584 0.0
H1429 H 0.51821 0.02332 0.66017 0.0
H1430 H 0.50987 0.06247 0.60126 0.0
H1431 H 0.5306 0.046 0.57729 0.0
H1432 H 0.52702 0.09289 0.63507 0.0
H1433 H 0.45785 0.00877 0.62679 0.0
H1434 H 0.43596 0.96243 0.62746 0.0
H1435 H 0.45389 0.96566 0.70061 0.0
H1436 H 0.4762 0.01203 0.70034 0.0
H1437 H 0.45852 0.13561 0.69907 0.0
H1438 H 0.46417 0.10943 0.67053 0.0
H1439 H 0.49317 0.08131 0.7251 0.0
H1440 H 0.4875 0.10733 0.75364 0.0
H1441 H 0.46084 0.04408 0.69097 0.0
H1442 H 0.53382 0.12913 0.6965 0.0
H1443 H 0.55406 0.17533 0.69488 0.0
H1444 H 0.52571 0.16911 0.62433 0.0
H1445 H 0.50497 0.12282 0.62567 0.0
C1446 C 0.53144 0.01791 0.62809 0.0
C1447 C 0.53567 0.02458 0.60474 0.0
C1448 C 0.52015 0.02783 0.64195 0.0
C1449 C 0.51215 0.04396 0.63251 0.0
C1450 C 0.51588 0.05012 0.609 0.0
C1451 C 0.52772 0.04071 0.5953 0.0
C1452 C 0.50153 0.05578 0.64748 0.0
C1453 C 0.51213 0.08202 0.64688 0.0
C1454 C 0.48235 0.04182 0.66323 0.0
C1455 C 0.46887 0.01391 0.6635 0.0
C1456 C 0.45728 0.99961 0.64299 0.0
C1457 C 0.44477 0.97333 0.64331 0.0
C1458 C 0.44358 0.96111 0.66406 0.0
C1459 C 0.45484 0.97515 0.68455 0.0
C1460 C 0.46739 0.00143 0.68433 0.0
C1461 C 0.46559 0.12342 0.70499 0.0
C1462 C 0.47283 0.12362 0.72847 0.0
C1463 C 0.46887 0.10857 0.68871 0.0
C1464 C 0.47928 0.09364 0.69574 0.0
C1465 C 0.4851 0.09271 0.71936 0.0
C1466 C 0.48205 0.1077 0.73558 0.0
C1467 C 0.48645 0.08089 0.67842 0.0
C1468 C 0.47535 0.05464 0.67874 0.0
C1469 C 0.50488 0.09472 0.66214 0.0
C1470 C 0.51762 0.12254 0.66127 0.0
C1471 C 0.53175 0.13762 0.6807 0.0
C1472 C 0.54333 0.16381 0.67983 0.0
C1473 C 0.54111 0.17515 0.65954 0.0
C1474 C 0.52737 0.1603 0.64005 0.0
C1475 C 0.51571 0.13409 0.64085 0.0
H1476 H 0.55009 0.19543 0.65889 0.0
H1477 H 0.43389 0.94077 0.66426 0.0
H1478 H 0.55371 0.48978 0.14847 0.0
H1479 H 0.51663 0.47492 0.17174 0.0
H1480 H 0.47504 0.48371 0.11355 0.0
H1481 H 0.51284 0.50004 0.09054 0.0
H1482 H 0.46376 0.49842 0.14995 0.0
H1483 H 0.46596 0.42406 0.13171 0.0
H1484 H 0.48446 0.39664 0.12821 0.0
H1485 H 0.49861 0.40085 0.20208 0.0
H1486 H 0.48051 0.42859 0.20601 0.0
H1487 H 0.34425 0.42238 0.20167 0.0
H1488 H 0.37944 0.43566 0.17578 0.0
H1489 H 0.43081 0.44967 0.23493 0.0
H1490 H 0.39569 0.43661 0.26096 0.0
H1491 H 0.4347 0.42142 0.19629 0.0
H1492 H 0.43221 0.49765 0.21237 0.0
H1493 H 0.41099 0.52277 0.2138 0.0
H1494 H 0.39363 0.51126 0.14037 0.0
H1495 H 0.41444 0.48574 0.13856 0.0
C1496 C 0.53664 0.4885 0.14061 0.0
C1497 C 0.53608 0.49588 0.11764 0.0
C1498 C 0.51535 0.47982 0.15389 0.0
C1499 C 0.49271 0.47751 0.14427 0.0
C1500 C 0.49221 0.48517 0.12136 0.0
C1501 C 0.51377 0.49446 0.10821 0.0
C1502 C 0.46984 0.46757 0.15836 0.0
C1503 C 0.45721 0.48134 0.15974 0.0
C1504 C 0.46126 0.44537 0.17139 0.0
C1505 C 0.47206 0.42858 0.16913 0.0
C1506 C 0.47317 0.41928 0.1472 0.0
C1507 C 0.48356 0.40366 0.14514 0.0
C1508 C 0.49275 0.39705 0.16491 0.0
C1509 C 0.4915 0.406 0.18678 0.0
C1510 C 0.48115 0.42165 0.18894 0.0
C1511 C 0.36302 0.42811 0.20911 0.0
C1512 C 0.3673 0.42847 0.23329 0.0
C1513 C 0.38307 0.43579 0.19434 0.0
C1514 C 0.40768 0.44371 0.20349 0.0
C1515 C 0.41192 0.44362 0.22759 0.0
C1516 C 0.39194 0.43628 0.2424 0.0
C1517 C 0.42908 0.45244 0.18795 0.0
C1518 C 0.44131 0.4384 0.18632 0.0
C1519 C 0.43692 0.47402 0.17432 0.0
C1520 C 0.42465 0.48958 0.17537 0.0
C1521 C 0.42368 0.5003 0.19656 0.0
C1522 C 0.41176 0.51464 0.19743 0.0
C1523 C 0.4009 0.51855 0.1772 0.0
C1524 C 0.40202 0.50819 0.15603 0.0
C1525 C 0.41389 0.4938 0.15507 0.0
H1526 H 0.39168 0.52966 0.17791 0.0
H1527 H 0.5008 0.38496 0.16327 0.0
H1528 H 0.05722 0.44661 0.61778 0.0
H1529 H 0.04333 0.41336 0.64626 0.0
H1530 H 0.98412 0.36187 0.59756 0.0
H1531 H 0.9973 0.39535 0.56939 0.0
H1532 H 0.96507 0.35826 0.63688 0.0
H1533 H 0.03861 0.35765 0.61302 0.0
H1534 H 0.08355 0.37531 0.60425 0.0
H1535 H 0.10605 0.40032 0.67524 0.0
H1536 H 0.06125 0.38311 0.68438 0.0
H1537 H 0.92991 0.25159 0.70656 0.0
H1538 H 0.94964 0.28019 0.67451 0.0
H1539 H 0.99674 0.34023 0.72368 0.0
H1540 H 0.97695 0.31174 0.75581 0.0
H1541 H 0.02207 0.33692 0.68284 0.0
H1542 H 0.9472 0.33925 0.70463 0.0
H1543 H 0.9018 0.31972 0.71244 0.0
H1544 H 0.88167 0.28894 0.64291 0.0
H1545 H 0.927 0.30799 0.6348 0.0
C1546 C 0.04142 0.42812 0.61307 0.0
C1547 C 0.02829 0.42358 0.5914 0.0
C1548 C 0.03357 0.40906 0.62932 0.0
C1549 C 0.01284 0.38497 0.62399 0.0
C1550 C 0.00013 0.38029 0.6021 0.0
C1551 C 0.0077 0.39943 0.58601 0.0
C1552 C 0.00333 0.36516 0.64173 0.0
C1553 C 0.97752 0.35331 0.64656 0.0
C1554 C 0.01958 0.35892 0.65474 0.0
C1555 C 0.04656 0.36928 0.64933 0.0
C1556 C 0.05314 0.36709 0.62672 0.0
C1557 C 0.0786 0.37699 0.62169 0.0
C1558 C 0.09764 0.38898 0.63917 0.0
C1559 C 0.09127 0.39104 0.66172 0.0
C1560 C 0.06585 0.38119 0.66684 0.0
C1561 C 0.94481 0.27076 0.71048 0.0
C1562 C 0.95187 0.27957 0.73358 0.0
C1563 C 0.95598 0.28704 0.69222 0.0
C1564 C 0.97451 0.31227 0.69682 0.0
C1565 C 0.98249 0.32079 0.71985 0.0
C1566 C 0.97109 0.3046 0.73812 0.0
C1567 C 0.98404 0.33029 0.67775 0.0
C1568 C 0.00975 0.3418 0.67283 0.0
C1569 C 0.9677 0.33601 0.66441 0.0
C1570 C 0.94047 0.3248 0.6692 0.0
C1571 C 0.93309 0.32814 0.69107 0.0
C1572 C 0.90737 0.31719 0.69554 0.0
C1573 C 0.88886 0.30303 0.6782 0.0
C1574 C 0.89603 0.29987 0.65633 0.0
C1575 C 0.92173 0.31075 0.65179 0.0
H1576 H 0.86896 0.29457 0.6817 0.0
H1577 H 0.11734 0.39663 0.63524 0.0
H1578 H 0.58979 0.98531 0.13573 0.0
H1579 H 0.60938 0.96756 0.16149 0.0
H1580 H 0.67575 0.04102 0.17192 0.0
H1581 H 0.65585 0.05917 0.14656 0.0
H1582 H 0.68049 0.99476 0.15538 0.0
H1583 H 0.65032 0.02599 0.2153 0.0
H1584 H 0.61848 0.03266 0.23398 0.0
H1585 H 0.56956 0.95278 0.23863 0.0
H1586 H 0.60095 0.94562 0.21963 0.0
H1587 H 0.72888 0.93575 0.23296 0.0
H1588 H 0.7194 0.96642 0.21509 0.0
H1589 H 0.63925 0.91391 0.21894 0.0
H1590 H 0.6485 0.88403 0.23807 0.0
H1591 H 0.64813 0.95785 0.23164 0.0
H1592 H 0.67233 0.92528 0.16752 0.0
H1593 H 0.70062 0.91559 0.14603 0.0
H1594 H 0.75694 0.9941 0.14637 0.0
H1595 H 0.72907 0.00422 0.16813 0.0
C1596 C 0.60843 0.99775 0.14373 0.0
C1597 C 0.62134 0.02359 0.13921 0.0
C1598 C 0.61955 0.9876 0.15843 0.0
C1599 C 0.64394 0.00303 0.16851 0.0
C1600 C 0.65687 0.02891 0.16427 0.0
C1601 C 0.64546 0.03922 0.14994 0.0
C1602 C 0.65598 0.99144 0.18258 0.0
C1603 C 0.67399 0.98721 0.17235 0.0
C1604 C 0.64681 0.98106 0.20431 0.0
C1605 C 0.62793 0.98528 0.21587 0.0
C1606 C 0.63268 0.00984 0.22011 0.0
C1607 C 0.61473 0.01371 0.2308 0.0
C1608 C 0.59199 0.99316 0.23744 0.0
C1609 C 0.58718 0.96869 0.23346 0.0
C1610 C 0.60506 0.96471 0.22276 0.0
C1611 C 0.70924 0.9308 0.23013 0.0
C1612 C 0.68947 0.90725 0.23678 0.0
C1613 C 0.70385 0.94829 0.21972 0.0
C1614 C 0.67859 0.94241 0.21547 0.0
C1615 C 0.65889 0.91892 0.22203 0.0
C1616 C 0.66424 0.90163 0.23265 0.0
C1617 C 0.6723 0.9605 0.20424 0.0
C1618 C 0.65523 0.96587 0.21495 0.0
C1619 C 0.68198 0.97152 0.18271 0.0
C1620 C 0.69877 0.96546 0.16971 0.0
C1621 C 0.69084 0.94045 0.16319 0.0
C1622 C 0.70678 0.93488 0.15093 0.0
C1623 C 0.7306 0.95421 0.14491 0.0
C1624 C 0.73851 0.97915 0.15109 0.0
C1625 C 0.72265 0.98481 0.16338 0.0
H1626 H 0.74291 0.94987 0.13541 0.0
H1627 H 0.57811 0.99619 0.24572 0.0
H1628 H 0.60221 0.55862 0.63084 0.0
H1629 H 0.63815 0.57903 0.65875 0.0
H1630 H 0.67664 0.54746 0.62258 0.0
H1631 H 0.64033 0.52643 0.59464 0.0
H1632 H 0.67887 0.54087 0.66738 0.0
H1633 H 0.69686 0.61007 0.62009 0.0
H1634 H 0.68814 0.6393 0.59777 0.0
H1635 H 0.67173 0.66491 0.66043 0.0
H1636 H 0.67989 0.63543 0.68312 0.0
H1637 H 0.79567 0.63943 0.73517 0.0
H1638 H 0.76573 0.63179 0.70236 0.0
H1639 H 0.70405 0.57902 0.74285 0.0
H1640 H 0.73394 0.58648 0.77567 0.0
H1641 H 0.71959 0.63094 0.69152 0.0
H1642 H 0.67358 0.5247 0.71077 0.0
H1643 H 0.68523 0.49659 0.73161 0.0
H1644 H 0.76389 0.54729 0.72013 0.0
H1645 H 0.75267 0.57534 0.69865 0.0
C1646 C 0.61836 0.55609 0.62867 0.0
C1647 C 0.61839 0.54083 0.61053 0.0
C1648 C 0.63899 0.56795 0.64458 0.0
C1649 C 0.66021 0.56504 0.64257 0.0
C1650 C 0.66045 0.55001 0.62437 0.0
C1651 C 0.63972 0.53802 0.60844 0.0
C1652 C 0.68132 0.57648 0.66039 0.0
C1653 C 0.68787 0.56059 0.6725 0.0
C1654 C 0.69347 0.60236 0.66678 0.0
C1655 C 0.68883 0.62038 0.65329 0.0
C1656 C 0.69122 0.6218 0.62911 0.0
C1657 C 0.6864 0.63844 0.61638 0.0
C1658 C 0.67935 0.65395 0.62766 0.0
C1659 C 0.67718 0.65288 0.65171 0.0
C1660 C 0.68193 0.63621 0.66452 0.0
C1661 C 0.77559 0.62701 0.73738 0.0
C1662 C 0.76703 0.61338 0.75783 0.0
C1663 C 0.75855 0.62263 0.71862 0.0
C1664 C 0.73284 0.60456 0.72014 0.0
C1665 C 0.72393 0.59284 0.74134 0.0
C1666 C 0.74094 0.59709 0.76003 0.0
C1667 C 0.71613 0.59505 0.6989 0.0
C1668 C 0.71061 0.61128 0.68618 0.0
C1669 C 0.70543 0.56964 0.69146 0.0
C1670 C 0.71227 0.55223 0.70329 0.0
C1671 C 0.69333 0.52972 0.71249 0.0
C1672 C 0.69987 0.5138 0.72441 0.0
C1673 C 0.72529 0.52018 0.72721 0.0
C1674 C 0.74422 0.54239 0.71793 0.0
C1675 C 0.73777 0.55828 0.70586 0.0
H1676 H 0.73032 0.5079 0.73656 0.0
H1677 H 0.67561 0.66681 0.61778 0.0
H1678 H 0.18949 0.63637 0.0179 0.0
H1679 H 0.209 0.672 0.04592 0.0
H1680 H 0.20014 0.62093 0.101 0.0
H1681 H 0.17964 0.58555 0.07338 0.0
H1682 H 0.18222 0.64799 0.11368 0.0
H1683 H 0.25954 0.66538 0.079 0.0
H1684 H 0.28824 0.67401 0.04704 0.0
H1685 H 0.28498 0.74058 0.03081 0.0
H1686 H 0.256 0.73216 0.0625 0.0
H1687 H 0.28543 0.75098 0.19102 0.0
H1688 H 0.27462 0.72653 0.15471 0.0
H1689 H 0.20582 0.72993 0.14613 0.0
H1690 H 0.21601 0.75355 0.18285 0.0
H1691 H 0.26295 0.72896 0.10882 0.0
H1692 H 0.1579 0.67099 0.13203 0.0
H1693 H 0.1322 0.66042 0.1666 0.0
H1694 H 0.19595 0.67069 0.20975 0.0
H1695 H 0.22187 0.68086 0.17541 0.0
C1696 C 0.19221 0.63299 0.03594 0.0
C1697 C 0.18299 0.60836 0.04363 0.0
C1698 C 0.20336 0.65329 0.05193 0.0
C1699 C 0.20596 0.64917 0.07565 0.0
C1700 C 0.19807 0.62461 0.0829 0.0
C1701 C 0.18646 0.60441 0.06712 0.0
C1702 C 0.21493 0.66978 0.09338 0.0
C1703 C 0.19986 0.66569 0.11248 0.0
C1704 C 0.23798 0.69291 0.09201 0.0
C1705 C 0.25539 0.69798 0.07296 0.0
C1706 C 0.26478 0.68174 0.06849 0.0
C1707 C 0.28113 0.68662 0.05045 0.0
C1708 C 0.28837 0.70779 0.03686 0.0
C1709 C 0.27933 0.72417 0.04132 0.0
C1710 C 0.26295 0.71936 0.05933 0.0
C1711 C 0.26813 0.74675 0.18126 0.0
C1712 C 0.25131 0.75374 0.19004 0.0
C1713 C 0.26214 0.73305 0.16037 0.0
C1714 C 0.23924 0.7261 0.14794 0.0
C1715 C 0.22348 0.7349 0.15562 0.0
C1716 C 0.22939 0.74851 0.17657 0.0
C1717 C 0.23028 0.7069 0.12895 0.0
C1718 C 0.24522 0.7113 0.10972 0.0
C1719 C 0.20748 0.68364 0.13047 0.0
C1720 C 0.19188 0.67699 0.15118 0.0
C1721 C 0.16638 0.67089 0.14889 0.0
C1722 C 0.15179 0.66496 0.16844 0.0
C1723 C 0.16246 0.66498 0.19036 0.0
C1724 C 0.18773 0.67077 0.19277 0.0
C1725 C 0.20237 0.67662 0.17327 0.0
H1726 H 0.15114 0.66042 0.20547 0.0
H1727 H 0.30103 0.71154 0.0229 0.0
loop_
_geom_bond_atom_site_label_1
_geom_bond_atom_site_label_2
_geom_bond_distance
_geom_bond_site_symmetry_2
_ccdc_geom_bond_type
C0 O2 1.247 . S
C0 O4 1.258 . S
C1 O8 1.247 . S
C1 O9 1.258 . S
O2 C0 1.247 . S
O2 Zn3 2.028 . S
Zn3 O2 2.028 . S
Zn3 O7 2.035 1_554 S
Zn3 O9 2.035 1_554 S
Zn3 O10 2.028 . S
O4 C0 1.258 . S
O4 Zn5 2.035 1_554 S
Zn5 O4 2.035 1_556 S
Zn5 O6 2.028 . S
Zn5 O8 2.028 . S
Zn5 O11 2.035 1_556 S
O6 Zn5 2.028 . S
O6 C12 1.247 . S
O7 Zn3 2.035 1_556 S
O7 C12 1.258 . S
O8 C1 1.247 . S
O8 Zn5 2.028 . S
O9 C1 1.258 . S
O9 Zn3 2.035 1_556 S
O10 Zn3 2.028 . S
O10 C13 1.247 . S
O11 Zn5 2.035 1_554 S
O11 C13 1.258 . S
C12 O6 1.247 . S
C12 O7 1.258 . S
C13 O10 1.247 . S
C13 O11 1.258 . S
C14 O16 1.247 1_545 S
C14 O18 1.258 . S
C15 O22 1.247 1_565 S
C15 O23 1.258 . S
O16 C14 1.247 1_565 S
O16 Zn17 2.028 . S
Zn17 O16 2.028 . S
Zn17 O21 2.035 . S
Zn17 O23 2.035 . S
Zn17 O24 2.028 . S
O18 C14 1.258 . S
O18 Zn19 2.035 . S
Zn19 O18 2.035 . S
Zn19 O20 2.028 . S
Zn19 O22 2.028 . S
Zn19 O25 2.035 . S
O20 Zn19 2.028 . S
O20 C26 1.247 1_545 S
O21 Zn17 2.035 . S
O21 C26 1.258 . S
O22 C15 1.247 1_545 S
O22 Zn19 2.028 . S
O23 C15 1.258 . S
O23 Zn17 2.035 . S
O24 Zn17 2.028 . S
O24 C27 1.247 1_565 S
O25 Zn19 2.035 . S
O25 C27 1.258 . S
C26 O20 1.247 1_565 S
C26 O21 1.258 . S
C27 O24 1.247 1_545 S
C27 O25 1.258 . S
C28 O30 1.247 . S
C28 O32 1.258 . S
C29 O36 1.247 . S
C29 O37 1.258 . S
O30 C28 1.247 . S
O30 Zn31 2.028 . S
Zn31 O30 2.028 . S
Zn31 O35 2.035 . S
Zn31 O37 2.035 . S
Zn31 O38 2.028 . S
O32 C28 1.258 . S
O32 Zn33 2.035 . S
Zn33 O32 2.035 . S
Zn33 O34 2.028 . S
Zn33 O36 2.028 . S
Zn33 O39 2.035 . S
O34 Zn33 2.028 . S
O34 C40 1.247 . S
O35 Zn31 2.035 . S
O35 C40 1.258 . S
O36 C29 1.247 . S
O36 Zn33 2.028 . S
O37 C29 1.258 . S
O37 Zn31 2.035 . S
O38 Zn31 2.028 . S
O38 C41 1.247 . S
O39 Zn33 2.035 . S
O39 C41 1.258 . S
C40 O34 1.247 . S
C40 O35 1.258 . S
C41 O38 1.247 . S
C41 O39 1.258 . S
C42 O44 1.247 . S
C42 O46 1.258 1_455 S
C43 O50 1.247 . S
C43 O51 1.258 1_655 S
O44 C42 1.247 . S
O44 Zn45 2.028 . S
Zn45 O44 2.028 . S
Zn45 O49 2.035 . S
Zn45 O51 2.035 . S
Zn45 O52 2.028 . S
O46 C42 1.258 1_655 S
O46 Zn47 2.035 . S
Zn47 O46 2.035 . S
Zn47 O48 2.028 . S
Zn47 O50 2.028 . S
Zn47 O53 2.035 . S
O48 Zn47 2.028 . S
O48 C54 1.247 . S
O49 Zn45 2.035 . S
O49 C54 1.258 1_455 S
O50 C43 1.247 . S
O50 Zn47 2.028 . S
O51 C43 1.258 1_455 S
O51 Zn45 2.035 . S
O52 Zn45 2.028 . S
O52 C55 1.247 . S
O53 Zn47 2.035 . S
O53 C55 1.258 1_655 S
C54 O48 1.247 . S
C54 O49 1.258 1_655 S
C55 O52 1.247 . S
C55 O53 1.258 1_455 S
C56 O58 1.247 . S
C56 O60 1.258 . S
C57 O64 1.247 . S
C57 O65 1.258 . S
O58 C56 1.247 . S
O58 Zn59 2.028 . S
Zn59 O58 2.028 . S
Zn59 O63 2.035 . S
Zn59 O65 2.035 . S
Zn59 O66 2.028 . S
O60 C56 1.258 . S
O60 Zn61 2.035 . S
Zn61 O60 2.035 . S
Zn61 O62 2.028 . S
Zn61 O64 2.028 . S
Zn61 O67 2.035 . S
O62 Zn61 2.028 . S
O62 C68 1.247 . S
O63 Zn59 2.035 . S
O63 C68 1.258 . S
O64 C57 1.247 . S
O64 Zn61 2.028 . S
O65 C57 1.258 . S
O65 Zn59 2.035 . S
O66 Zn59 2.028 . S
O66 C69 1.247 . S
O67 Zn61 2.035 . S
O67 C69 1.258 . S
C68 O62 1.247 . S
C68 O63 1.258 . S
C69 O66 1.247 . S
C69 O67 1.258 . S
C70 O72 1.247 . S
C70 O74 1.258 . S
C71 O78 1.247 . S
C71 O79 1.258 . S
O72 C70 1.247 . S
O72 Zn73 2.028 . S
Zn73 O72 2.028 . S
Zn73 O77 2.035 . S
Zn73 O79 2.035 . S
Zn73 O80 2.028 . S
O74 C70 1.258 . S
O74 Zn75 2.035 . S
Zn75 O74 2.035 . S
Zn75 O76 2.028 . S
Zn75 O78 2.028 . S
Zn75 O81 2.035 . S
O76 Zn75 2.028 . S
O76 C82 1.247 . S
O77 Zn73 2.035 . S
O77 C82 1.258 . S
O78 C71 1.247 . S
O78 Zn75 2.028 . S
O79 C71 1.258 . S
O79 Zn73 2.035 . S
O80 Zn73 2.028 . S
O80 C83 1.247 . S
O81 Zn75 2.035 . S
O81 C83 1.258 . S
C82 O76 1.247 . S
C82 O77 1.258 . S
C83 O80 1.247 . S
C83 O81 1.258 . S
H84 O110 0.856 . S
H85 O113 0.854 . S
H86 C121 0.930 . S
H87 C122 0.930 . S
H88 C124 0.930 . S
H89 C125 0.930 . S
H90 C127 0.931 . S
H91 C128 0.930 . S
H92 C130 0.930 . S
H93 C131 0.929 . S
H94 C133 0.930 . S
H95 C134 0.931 . S
H96 C136 0.930 . S
H97 C137 0.929 . S
H98 C139 0.931 . S
H99 C140 0.930 . S
H100 C142 0.930 . S
H101 C143 0.932 . S
H102 C145 0.930 . S
H103 C146 0.929 . S
H104 C148 0.931 . S
H105 C149 0.930 . S
H106 C151 0.929 . S
H107 C152 0.931 . S
H108 C154 0.930 . S
H109 C155 0.929 . S
O110 H84 0.856 . S
O110 C156 1.300 . S
O111 C156 1.209 . S
O112 C157 1.199 . S
O113 H85 0.854 . S
O113 C157 1.297 . S
C114 C115 1.404 . S
C114 C119 1.397 . S
C114 C120 1.492 . S
C115 C114 1.404 . S
C115 C116 1.396 . S
C115 C126 1.492 . S
C116 C115 1.396 . S
C116 C117 1.397 . S
C116 C132 1.509 . S
C117 C116 1.397 . S
C117 C118 1.412 . S
C117 C138 1.485 . S
C118 C117 1.412 . S
C118 C119 1.388 . S
C118 C144 1.490 . S
C119 C114 1.397 . S
C119 C118 1.388 . S
C119 C150 1.519 . S
C120 C114 1.492 . S
C120 C121 1.363 . S
C120 C125 1.390 . S
C121 H86 0.930 . S
C121 C120 1.363 . S
C121 C122 1.372 . S
C122 H87 0.930 . S
C122 C121 1.372 . S
C122 C123 1.383 . S
C123 C122 1.383 . S
C123 C124 1.395 . S
C124 H88 0.930 . S
C124 C123 1.395 . S
C124 C125 1.362 . S
C125 H89 0.930 . S
C125 C120 1.390 . S
C125 C124 1.362 . S
C126 C115 1.492 . S
C126 C127 1.377 . S
C126 C131 1.397 . S
C127 H90 0.931 . S
C127 C126 1.377 . S
C127 C128 1.376 . S
C128 H91 0.930 . S
C128 C127 1.376 . S
C128 C129 1.376 . S
C129 C128 1.376 . S
C129 C130 1.378 . S
C129 C156 1.486 . S
C130 H92 0.930 . S
C130 C129 1.378 . S
C130 C131 1.376 . S
C131 H93 0.929 . S
C131 C126 1.397 . S
C131 C130 1.376 . S
C132 C116 1.509 . S
C132 C133 1.391 . S
C132 C137 1.386 . S
C133 H94 0.930 . S
C133 C132 1.391 . S
C133 C134 1.375 . S
C134 H95 0.931 . S
C134 C133 1.375 . S
C134 C135 1.375 . S
C135 C134 1.375 . S
C135 C136 1.361 . S
C136 H96 0.930 . S
C136 C135 1.361 . S
C136 C137 1.399 . S
C137 H97 0.929 . S
C137 C132 1.386 . S
C137 C136 1.399 . S
C138 C117 1.485 . S
C138 C139 1.394 . S
C138 C143 1.360 . S
C139 H98 0.931 . S
C139 C138 1.394 . S
C139 C140 1.372 . S
C140 H99 0.930 . S
C140 C139 1.372 . S
C140 C141 1.397 . S
C141 C140 1.397 . S
C141 C142 1.390 . S
C141 C157 1.476 . S
C142 H100 0.930 . S
C142 C141 1.390 . S
C142 C143 1.366 . S
C143 H101 0.932 . S
C143 C138 1.360 . S
C143 C142 1.366 . S
C144 C118 1.490 . S
C144 C145 1.380 . S
C144 C149 1.386 . S
C145 H102 0.930 . S
C145 C144 1.380 . S
C145 C146 1.381 . S
C146 H103 0.929 . S
C146 C145 1.381 . S
C146 C147 1.371 . S
C147 C146 1.371 . S
C147 C148 1.380 . S
C148 H104 0.931 . S
C148 C147 1.380 . S
C148 C149 1.387 . S
C149 H105 0.930 . S
C149 C144 1.386 . S
C149 C148 1.387 . S
C150 C119 1.519 . S
C150 C151 1.377 . S
C150 C155 1.361 . S
C151 H106 0.929 . S
C151 C150 1.377 . S
C151 C152 1.386 . S
C152 H107 0.931 . S
C152 C151 1.386 . S
C152 C153 1.363 . S
C153 C152 1.363 . S
C153 C154 1.385 . S
C154 H108 0.930 . S
C154 C153 1.385 . S
C154 C155 1.396 . S
C155 H109 0.929 . S
C155 C150 1.361 . S
C155 C154 1.396 . S
C156 O110 1.300 . S
C156 O111 1.209 . S
C156 C129 1.486 . S
C157 O112 1.199 . S
C157 O113 1.297 . S
C157 C141 1.476 . S
H158 O184 0.856 . S
H159 O187 0.854 . S
H160 C195 0.930 . S
H161 C196 0.930 . S
H162 C198 0.930 . S
H163 C199 0.930 . S
H164 C201 0.931 . S
H165 C202 0.930 . S
H166 C204 0.930 . S
H167 C205 0.929 . S
H168 C207 0.930 . S
H169 C208 0.931 . S
H170 C210 0.930 . S
H171 C211 0.929 . S
H172 C213 0.931 . S
H173 C214 0.930 . S
H174 C216 0.930 . S
H175 C217 0.932 . S
H176 C219 0.930 . S
H177 C220 0.929 . S
H178 C222 0.931 . S
H179 C223 0.930 . S
H180 C225 0.929 . S
H181 C226 0.931 . S
H182 C228 0.930 . S
H183 C229 0.929 . S
O184 H158 0.856 . S
O184 C230 1.300 . S
O185 C230 1.209 . S
O186 C231 1.199 . S
O187 H159 0.854 . S
O187 C231 1.297 . S
C188 C189 1.404 . S
C188 C193 1.397 . S
C188 C194 1.492 . S
C189 C188 1.404 . S
C189 C190 1.396 . S
C189 C200 1.492 . S
C190 C189 1.396 . S
C190 C191 1.397 . S
C190 C206 1.509 . S
C191 C190 1.397 . S
C191 C192 1.412 . S
C191 C212 1.485 . S
C192 C191 1.412 . S
C192 C193 1.388 . S
C192 C218 1.490 . S
C193 C188 1.397 . S
C193 C192 1.388 . S
C193 C224 1.519 . S
C194 C188 1.492 . S
C194 C195 1.363 . S
C194 C199 1.390 . S
C195 H160 0.930 . S
C195 C194 1.363 . S
C195 C196 1.372 . S
C196 H161 0.930 . S
C196 C195 1.372 . S
C196 C197 1.383 . S
C197 C196 1.383 . S
C197 C198 1.395 . S
C198 H162 0.930 . S
C198 C197 1.395 . S
C198 C199 1.362 . S
C199 H163 0.930 . S
C199 C194 1.390 . S
C199 C198 1.362 . S
C200 C189 1.492 . S
C200 C201 1.377 . S
C200 C205 1.397 . S
C201 H164 0.931 . S
C201 C200 1.377 . S
C201 C202 1.376 . S
C202 H165 0.930 . S
C202 C201 1.376 . S
C202 C203 1.376 . S
C203 C202 1.376 . S
C203 C204 1.378 . S
C203 C230 1.486 . S
C204 H166 0.930 . S
C204 C203 1.378 . S
C204 C205 1.376 . S
C205 H167 0.929 . S
C205 C200 1.397 . S
C205 C204 1.376 . S
C206 C190 1.509 . S
C206 C207 1.391 . S
C206 C211 1.386 . S
C207 H168 0.930 . S
C207 C206 1.391 . S
C207 C208 1.375 . S
C208 H169 0.931 . S
C208 C207 1.375 . S
C208 C209 1.375 . S
C209 C208 1.375 . S
C209 C210 1.361 . S
C210 H170 0.930 . S
C210 C209 1.361 . S
C210 C211 1.399 . S
C211 H171 0.929 . S
C211 C206 1.386 . S
C211 C210 1.399 . S
C212 C191 1.485 . S
C212 C213 1.394 . S
C212 C217 1.360 . S
C213 H172 0.931 . S
C213 C212 1.394 . S
C213 C214 1.372 . S
C214 H173 0.930 . S
C214 C213 1.372 . S
C214 C215 1.397 . S
C215 C214 1.397 . S
C215 C216 1.390 . S
C215 C231 1.476 . S
C216 H174 0.930 . S
C216 C215 1.390 . S
C216 C217 1.366 . S
C217 H175 0.932 . S
C217 C212 1.360 . S
C217 C216 1.366 . S
C218 C192 1.490 . S
C218 C219 1.380 . S
C218 C223 1.386 . S
C219 H176 0.930 . S
C219 C218 1.380 . S
C219 C220 1.381 . S
C220 H177 0.929 . S
C220 C219 1.381 . S
C220 C221 1.371 . S
C221 C220 1.371 . S
C221 C222 1.380 . S
C222 H178 0.931 . S
C222 C221 1.380 . S
C222 C223 1.387 . S
C223 H179 0.930 . S
C223 C218 1.386 . S
C223 C222 1.387 . S
C224 C193 1.519 . S
C224 C225 1.377 . S
C224 C229 1.361 . S
C225 H180 0.929 . S
C225 C224 1.377 . S
C225 C226 1.386 . S
C226 H181 0.931 . S
C226 C225 1.386 . S
C226 C227 1.363 . S
C227 C226 1.363 . S
C227 C228 1.385 . S
C228 H182 0.930 . S
C228 C227 1.385 . S
C228 C229 1.396 . S
C229 H183 0.929 . S
C229 C224 1.361 . S
C229 C228 1.396 . S
C230 O184 1.300 . S
C230 O185 1.209 . S
C230 C203 1.486 . S
C231 O186 1.199 . S
C231 O187 1.297 . S
C231 C215 1.476 . S
H232 O258 0.856 . S
H233 O261 0.854 . S
H234 C269 0.930 . S
H235 C270 0.930 . S
H236 C272 0.930 . S
H237 C273 0.930 . S
H238 C275 0.931 . S
H239 C276 0.930 . S
H240 C278 0.930 . S
H241 C279 0.929 . S
H242 C281 0.930 . S
H243 C282 0.931 . S
H244 C284 0.930 . S
H245 C285 0.929 . S
H246 C287 0.931 . S
H247 C288 0.930 . S
H248 C290 0.930 . S
H249 C291 0.932 . S
H250 C293 0.930 . S
H251 C294 0.929 . S
H252 C296 0.931 . S
H253 C297 0.930 . S
H254 C299 0.929 . S
H255 C300 0.931 . S
H256 C302 0.930 . S
H257 C303 0.929 . S
O258 H232 0.856 . S
O258 C304 1.300 . S
O259 C304 1.209 . S
O260 C305 1.199 . S
O261 H233 0.854 . S
O261 C305 1.297 . S
C262 C263 1.404 . S
C262 C267 1.397 . S
C262 C268 1.492 . S
C263 C262 1.404 . S
C263 C264 1.396 . S
C263 C274 1.492 . S
C264 C263 1.396 . S
C264 C265 1.397 . S
C264 C280 1.509 . S
C265 C264 1.397 . S
C265 C266 1.412 . S
C265 C286 1.485 . S
C266 C265 1.412 . S
C266 C267 1.388 . S
C266 C292 1.490 . S
C267 C262 1.397 . S
C267 C266 1.388 . S
C267 C298 1.519 . S
C268 C262 1.492 . S
C268 C269 1.363 . S
C268 C273 1.390 . S
C269 H234 0.930 . S
C269 C268 1.363 . S
C269 C270 1.372 . S
C270 H235 0.930 . S
C270 C269 1.372 . S
C270 C271 1.383 . S
C271 C270 1.383 . S
C271 C272 1.395 . S
C272 H236 0.930 . S
C272 C271 1.395 . S
C272 C273 1.362 . S
C273 H237 0.930 . S
C273 C268 1.390 . S
C273 C272 1.362 . S
C274 C263 1.492 . S
C274 C275 1.377 . S
C274 C279 1.397 . S
C275 H238 0.931 . S
C275 C274 1.377 . S
C275 C276 1.376 . S
C276 H239 0.930 . S
C276 C275 1.376 . S
C276 C277 1.376 . S
C277 C276 1.376 . S
C277 C278 1.378 . S
C277 C304 1.486 . S
C278 H240 0.930 . S
C278 C277 1.378 . S
C278 C279 1.376 . S
C279 H241 0.929 . S
C279 C274 1.397 . S
C279 C278 1.376 . S
C280 C264 1.509 . S
C280 C281 1.391 . S
C280 C285 1.386 . S
C281 H242 0.930 . S
C281 C280 1.391 . S
C281 C282 1.375 . S
C282 H243 0.931 . S
C282 C281 1.375 . S
C282 C283 1.375 . S
C283 C282 1.375 . S
C283 C284 1.361 . S
C284 H244 0.930 . S
C284 C283 1.361 . S
C284 C285 1.399 . S
C285 H245 0.929 . S
C285 C280 1.386 . S
C285 C284 1.399 . S
C286 C265 1.485 . S
C286 C287 1.394 . S
C286 C291 1.360 . S
C287 H246 0.931 . S
C287 C286 1.394 . S
C287 C288 1.372 . S
C288 H247 0.930 . S
C288 C287 1.372 . S
C288 C289 1.397 . S
C289 C288 1.397 . S
C289 C290 1.390 . S
C289 C305 1.476 . S
C290 H248 0.930 . S
C290 C289 1.390 . S
C290 C291 1.366 . S
C291 H249 0.932 . S
C291 C286 1.360 . S
C291 C290 1.366 . S
C292 C266 1.490 . S
C292 C293 1.380 . S
C292 C297 1.386 . S
C293 H250 0.930 . S
C293 C292 1.380 . S
C293 C294 1.381 . S
C294 H251 0.929 . S
C294 C293 1.381 . S
C294 C295 1.371 . S
C295 C294 1.371 . S
C295 C296 1.380 . S
C296 H252 0.931 . S
C296 C295 1.380 . S
C296 C297 1.387 . S
C297 H253 0.930 . S
C297 C292 1.386 . S
C297 C296 1.387 . S
C298 C267 1.519 . S
C298 C299 1.377 . S
C298 C303 1.361 . S
C299 H254 0.929 . S
C299 C298 1.377 . S
C299 C300 1.386 . S
C300 H255 0.931 . S
C300 C299 1.386 . S
C300 C301 1.363 . S
C301 C300 1.363 . S
C301 C302 1.385 . S
C302 H256 0.930 . S
C302 C301 1.385 . S
C302 C303 1.396 . S
C303 H257 0.929 . S
C303 C298 1.361 . S
C303 C302 1.396 . S
C304 O258 1.300 . S
C304 O259 1.209 . S
C304 C277 1.486 . S
C305 O260 1.199 . S
C305 O261 1.297 . S
C305 C289 1.476 . S
H306 O332 0.856 . S
H307 O335 0.854 . S
H308 C343 0.930 . S
H309 C344 0.930 . S
H310 C346 0.930 . S
H311 C347 0.930 . S
H312 C349 0.931 . S
H313 C350 0.930 . S
H314 C352 0.930 . S
H315 C353 0.929 . S
H316 C355 0.930 . S
H317 C356 0.931 . S
H318 C358 0.930 . S
H319 C359 0.929 . S
H320 C361 0.931 . S
H321 C362 0.930 1_455 S
H322 C364 0.930 . S
H323 C365 0.932 . S
H324 C367 0.930 . S
H325 C368 0.929 . S
H326 C370 0.931 . S
H327 C371 0.930 . S
H328 C373 0.929 . S
H329 C374 0.931 . S
H330 C376 0.930 . S
H331 C377 0.929 . S
O332 H306 0.856 . S
O332 C378 1.300 . S
O333 C378 1.209 . S
O334 C379 1.199 . S
O335 H307 0.854 . S
O335 C379 1.297 . S
C336 C337 1.404 . S
C336 C341 1.397 . S
C336 C342 1.492 . S
C337 C336 1.404 . S
C337 C338 1.396 . S
C337 C348 1.492 . S
C338 C337 1.396 . S
C338 C339 1.397 . S
C338 C354 1.509 . S
C339 C338 1.397 . S
C339 C340 1.412 . S
C339 C360 1.485 . S
C340 C339 1.412 . S
C340 C341 1.388 . S
C340 C366 1.490 . S
C341 C336 1.397 . S
C341 C340 1.388 . S
C341 C372 1.519 . S
C342 C336 1.492 . S
C342 C343 1.363 . S
C342 C347 1.390 . S
C343 H308 0.930 . S
C343 C342 1.363 . S
C343 C344 1.372 . S
C344 H309 0.930 . S
C344 C343 1.372 . S
C344 C345 1.383 . S
C345 C344 1.383 . S
C345 C346 1.395 . S
C346 H310 0.930 . S
C346 C345 1.395 . S
C346 C347 1.362 . S
C347 H311 0.930 . S
C347 C342 1.390 . S
C347 C346 1.362 . S
C348 C337 1.492 . S
C348 C349 1.377 . S
C348 C353 1.397 . S
C349 H312 0.931 . S
C349 C348 1.377 . S
C349 C350 1.376 . S
C350 H313 0.930 . S
C350 C349 1.376 . S
C350 C351 1.376 . S
C351 C350 1.376 . S
C351 C352 1.378 . S
C351 C378 1.486 . S
C352 H314 0.930 . S
C352 C351 1.378 . S
C352 C353 1.376 . S
C353 H315 0.929 . S
C353 C348 1.397 . S
C353 C352 1.376 . S
C354 C338 1.509 . S
C354 C355 1.391 . S
C354 C359 1.386 . S
C355 H316 0.930 . S
C355 C354 1.391 . S
C355 C356 1.375 . S
C356 H317 0.931 . S
C356 C355 1.375 . S
C356 C357 1.375 . S
C357 C356 1.375 . S
C357 C358 1.361 . S
C358 H318 0.930 . S
C358 C357 1.361 . S
C358 C359 1.399 . S
C359 H319 0.929 . S
C359 C354 1.386 . S
C359 C358 1.399 . S
C360 C339 1.485 . S
C360 C361 1.394 . S
C360 C365 1.360 . S
C361 H320 0.931 . S
C361 C360 1.394 . S
C361 C362 1.372 . S
C362 H321 0.930 1_655 S
C362 C361 1.372 . S
C362 C363 1.397 . S
C363 C362 1.397 . S
C363 C364 1.390 . S
C363 C379 1.476 1_655 S
C364 H322 0.930 . S
C364 C363 1.390 . S
C364 C365 1.366 . S
C365 H323 0.932 . S
C365 C360 1.360 . S
C365 C364 1.366 . S
C366 C340 1.490 . S
C366 C367 1.380 . S
C366 C371 1.386 . S
C367 H324 0.930 . S
C367 C366 1.380 . S
C367 C368 1.381 . S
C368 H325 0.929 . S
C368 C367 1.381 . S
C368 C369 1.371 . S
C369 C368 1.371 . S
C369 C370 1.380 . S
C370 H326 0.931 . S
C370 C369 1.380 . S
C370 C371 1.387 . S
C371 H327 0.930 . S
C371 C366 1.386 . S
C371 C370 1.387 . S
C372 C341 1.519 . S
C372 C373 1.377 . S
C372 C377 1.361 . S
C373 H328 0.929 . S
C373 C372 1.377 . S
C373 C374 1.386 . S
C374 H329 0.931 . S
C374 C373 1.386 . S
C374 C375 1.363 . S
C375 C374 1.363 . S
C375 C376 1.385 . S
C376 H330 0.930 . S
C376 C375 1.385 . S
C376 C377 1.396 . S
C377 H331 0.929 . S
C377 C372 1.361 . S
C377 C376 1.396 . S
C378 O332 1.300 . S
C378 O333 1.209 . S
C378 C351 1.486 . S
C379 O334 1.199 . S
C379 O335 1.297 . S
C379 C363 1.476 1_455 S
H380 O406 0.856 . S
H381 O409 0.854 . S
H382 C417 0.930 . S
H383 C418 0.930 . S
H384 C420 0.930 . S
H385 C421 0.930 . S
H386 C423 0.931 . S
H387 C424 0.930 . S
H388 C426 0.930 . S
H389 C427 0.929 . S
H390 C429 0.930 . S
H391 C430 0.931 . S
H392 C432 0.930 . S
H393 C433 0.929 . S
H394 C435 0.931 . S
H395 C436 0.930 . S
H396 C438 0.930 . S
H397 C439 0.932 . S
H398 C441 0.930 . S
H399 C442 0.929 . S
H400 C444 0.931 . S
H401 C445 0.930 . S
H402 C447 0.929 . S
H403 C448 0.931 . S
H404 C450 0.930 . S
H405 C451 0.929 . S
O406 H380 0.856 . S
O406 C452 1.300 . S
O407 C452 1.209 . S
O408 C453 1.199 . S
O409 H381 0.854 . S
O409 C453 1.297 . S
C410 C411 1.404 . S
C410 C415 1.397 . S
C410 C416 1.492 . S
C411 C410 1.404 . S
C411 C412 1.396 . S
C411 C422 1.492 . S
C412 C411 1.396 . S
C412 C413 1.397 . S
C412 C428 1.509 . S
C413 C412 1.397 . S
C413 C414 1.412 . S
C413 C434 1.485 . S
C414 C413 1.412 . S
C414 C415 1.388 . S
C414 C440 1.490 . S
C415 C410 1.397 . S
C415 C414 1.388 . S
C415 C446 1.519 . S
C416 C410 1.492 . S
C416 C417 1.363 . S
C416 C421 1.390 . S
C417 H382 0.930 . S
C417 C416 1.363 . S
C417 C418 1.372 . S
C418 H383 0.930 . S
C418 C417 1.372 . S
C418 C419 1.383 . S
C419 C418 1.383 . S
C419 C420 1.395 . S
C420 H384 0.930 . S
C420 C419 1.395 . S
C420 C421 1.362 . S
C421 H385 0.930 . S
C421 C416 1.390 . S
C421 C420 1.362 . S
C422 C411 1.492 . S
C422 C423 1.377 . S
C422 C427 1.397 . S
C423 H386 0.931 . S
C423 C422 1.377 . S
C423 C424 1.376 . S
C424 H387 0.930 . S
C424 C423 1.376 . S
C424 C425 1.376 . S
C425 C424 1.376 . S
C425 C426 1.378 . S
C425 C452 1.486 . S
C426 H388 0.930 . S
C426 C425 1.378 . S
C426 C427 1.376 . S
C427 H389 0.929 . S
C427 C422 1.397 . S
C427 C426 1.376 . S
C428 C412 1.509 . S
C428 C429 1.391 . S
C428 C433 1.386 . S
C429 H390 0.930 . S
C429 C428 1.391 . S
C429 C430 1.375 . S
C430 H391 0.931 . S
C430 C429 1.375 . S
C430 C431 1.375 . S
C431 C430 1.375 . S
C431 C432 1.361 . S
C432 H392 0.930 . S
C432 C431 1.361 . S
C432 C433 1.399 . S
C433 H393 0.929 . S
C433 C428 1.386 . S
C433 C432 1.399 . S
C434 C413 1.485 . S
C434 C435 1.394 . S
C434 C439 1.360 . S
C435 H394 0.931 . S
C435 C434 1.394 . S
C435 C436 1.372 . S
C436 H395 0.930 . S
C436 C435 1.372 . S
C436 C437 1.397 . S
C437 C436 1.397 . S
C437 C438 1.390 . S
C437 C453 1.476 . S
C438 H396 0.930 . S
C438 C437 1.390 . S
C438 C439 1.366 . S
C439 H397 0.932 . S
C439 C434 1.360 . S
C439 C438 1.366 . S
C440 C414 1.490 . S
C440 C441 1.380 . S
C440 C445 1.386 . S
C441 H398 0.930 . S
C441 C440 1.380 . S
C441 C442 1.381 . S
C442 H399 0.929 . S
C442 C441 1.381 . S
C442 C443 1.371 . S
C443 C442 1.371 . S
C443 C444 1.380 . S
C444 H400 0.931 . S
C444 C443 1.380 . S
C444 C445 1.387 . S
C445 H401 0.930 . S
C445 C440 1.386 . S
C445 C444 1.387 . S
C446 C415 1.519 . S
C446 C447 1.377 . S
C446 C451 1.361 . S
C447 H402 0.929 . S
C447 C446 1.377 . S
C447 C448 1.386 . S
C448 H403 0.931 . S
C448 C447 1.386 . S
C448 C449 1.363 . S
C449 C448 1.363 . S
C449 C450 1.385 . S
C450 H404 0.930 . S
C450 C449 1.385 . S
C450 C451 1.396 . S
C451 H405 0.929 . S
C451 C446 1.361 . S
C451 C450 1.396 . S
C452 O406 1.300 . S
C452 O407 1.209 . S
C452 C425 1.486 . S
C453 O408 1.199 . S
C453 O409 1.297 . S
C453 C437 1.476 . S
H454 O480 0.856 . S
H455 O483 0.854 . S
H456 C491 0.930 . S
H457 C492 0.930 . S
H458 C494 0.930 . S
H459 C495 0.930 . S
H460 C497 0.931 . S
H461 C498 0.930 . S
H462 C500 0.930 . S
H463 C501 0.929 . S
H464 C503 0.930 . S
H465 C504 0.931 . S
H466 C506 0.930 . S
H467 C507 0.929 . S
H468 C509 0.931 . S
H469 C510 0.930 . S
H470 C512 0.930 . S
H471 C513 0.932 . S
H472 C515 0.930 . S
H473 C516 0.929 . S
H474 C518 0.931 . S
H475 C519 0.930 . S
H476 C521 0.929 . S
H477 C522 0.931 . S
H478 C524 0.930 . S
H479 C525 0.929 . S
O480 H454 0.856 . S
O480 C526 1.300 . S
O481 C526 1.209 . S
O482 C527 1.199 . S
O483 H455 0.854 . S
O483 C527 1.297 . S
C484 C485 1.404 . S
C484 C489 1.397 . S
C484 C490 1.492 . S
C485 C484 1.404 . S
C485 C486 1.396 . S
C485 C496 1.492 . S
C486 C485 1.396 . S
C486 C487 1.397 . S
C486 C502 1.509 . S
C487 C486 1.397 . S
C487 C488 1.412 . S
C487 C508 1.485 . S
C488 C487 1.412 . S
C488 C489 1.388 . S
C488 C514 1.490 . S
C489 C484 1.397 . S
C489 C488 1.388 . S
C489 C520 1.519 . S
C490 C484 1.492 . S
C490 C491 1.363 . S
C490 C495 1.390 . S
C491 H456 0.930 . S
C491 C490 1.363 . S
C491 C492 1.372 . S
C492 H457 0.930 . S
C492 C491 1.372 . S
C492 C493 1.383 . S
C493 C492 1.383 . S
C493 C494 1.395 . S
C494 H458 0.930 . S
C494 C493 1.395 . S
C494 C495 1.362 . S
C495 H459 0.930 . S
C495 C490 1.390 . S
C495 C494 1.362 . S
C496 C485 1.492 . S
C496 C497 1.377 . S
C496 C501 1.397 . S
C497 H460 0.931 . S
C497 C496 1.377 . S
C497 C498 1.376 . S
C498 H461 0.930 . S
C498 C497 1.376 . S
C498 C499 1.376 . S
C499 C498 1.376 . S
C499 C500 1.378 . S
C499 C526 1.486 . S
C500 H462 0.930 . S
C500 C499 1.378 . S
C500 C501 1.376 . S
C501 H463 0.929 . S
C501 C496 1.397 . S
C501 C500 1.376 . S
C502 C486 1.509 . S
C502 C503 1.391 . S
C502 C507 1.386 . S
C503 H464 0.930 . S
C503 C502 1.391 . S
C503 C504 1.375 . S
C504 H465 0.931 . S
C504 C503 1.375 . S
C504 C505 1.375 . S
C505 C504 1.375 . S
C505 C506 1.361 . S
C506 H466 0.930 . S
C506 C505 1.361 . S
C506 C507 1.399 . S
C507 H467 0.929 . S
C507 C502 1.386 . S
C507 C506 1.399 . S
C508 C487 1.485 . S
C508 C509 1.394 . S
C508 C513 1.360 . S
C509 H468 0.931 . S
C509 C508 1.394 . S
C509 C510 1.372 . S
C510 H469 0.930 . S
C510 C509 1.372 . S
C510 C511 1.397 . S
C511 C510 1.397 . S
C511 C512 1.390 . S
C511 C527 1.476 . S
C512 H470 0.930 . S
C512 C511 1.390 . S
C512 C513 1.366 . S
C513 H471 0.932 . S
C513 C508 1.360 . S
C513 C512 1.366 . S
C514 C488 1.490 . S
C514 C515 1.380 . S
C514 C519 1.386 . S
C515 H472 0.930 . S
C515 C514 1.380 . S
C515 C516 1.381 . S
C516 H473 0.929 . S
C516 C515 1.381 . S
C516 C517 1.371 . S
C517 C516 1.371 . S
C517 C518 1.380 . S
C518 H474 0.931 . S
C518 C517 1.380 . S
C518 C519 1.387 . S
C519 H475 0.930 . S
C519 C514 1.386 . S
C519 C518 1.387 . S
C520 C489 1.519 . S
C520 C521 1.377 . S
C520 C525 1.361 . S
C521 H476 0.929 . S
C521 C520 1.377 . S
C521 C522 1.386 . S
C522 H477 0.931 . S
C522 C521 1.386 . S
C522 C523 1.363 . S
C523 C522 1.363 . S
C523 C524 1.385 . S
C524 H478 0.930 . S
C524 C523 1.385 . S
C524 C525 1.396 . S
C525 H479 0.929 . S
C525 C520 1.361 . S
C525 C524 1.396 . S
C526 O480 1.300 . S
C526 O481 1.209 . S
C526 C499 1.486 . S
C527 O482 1.199 . S
C527 O483 1.297 . S
C527 C511 1.476 . S
H528 C546 0.951 . S
H529 C548 0.951 . S
H530 C550 0.950 . S
H531 C551 0.950 . S
H532 C553 0.950 . S
H533 C556 0.950 . S
H534 C557 0.950 . S
H535 C559 0.950 . S
H536 C560 0.950 . S
H537 C561 0.951 . S
H538 C563 0.951 . S
H539 C565 0.950 . S
H540 C566 0.950 . S
H541 C568 0.950 . S
H542 C571 0.950 . S
H543 C572 0.950 . S
H544 C574 0.950 . S
H545 C575 0.950 . S
C546 H528 0.951 . S
C546 C547 1.366 . S
C546 C548 1.388 . S
C547 C546 1.366 . S
C547 C551 1.385 . S
C548 H529 0.951 . S
C548 C546 1.388 . S
C548 C549 1.366 . S
C549 C548 1.366 . S
C549 C550 1.414 . S
C549 C552 1.499 . S
C550 H530 0.950 . S
C550 C549 1.414 . S
C550 C551 1.374 . S
C551 H531 0.950 . S
C551 C547 1.385 . S
C551 C550 1.374 . S
C552 C549 1.499 . S
C552 C553 1.373 . S
C552 C554 1.389 . S
C553 H532 0.950 . S
C553 C552 1.373 . S
C553 C569 1.377 . S
C554 C552 1.389 . S
C554 C555 1.524 . S
C554 C568 1.377 . S
C555 C554 1.524 . S
C555 C556 1.397 . S
C555 C560 1.363 . S
C556 H533 0.950 . S
C556 C555 1.397 . S
C556 C557 1.334 . S
C557 H534 0.950 . S
C557 C556 1.334 . S
C557 C558 1.287 . S
C558 C557 1.287 . S
C558 C559 1.524 . S
C558 H577 0.913 . S
C559 H535 0.950 . S
C559 C558 1.524 . S
C559 C560 1.415 . S
C560 H536 0.950 . S
C560 C555 1.363 . S
C560 C559 1.415 . S
C561 H537 0.951 . S
C561 C562 1.366 . S
C561 C563 1.388 . S
C562 C561 1.366 . S
C562 C566 1.385 . S
C563 H538 0.951 . S
C563 C561 1.388 . S
C563 C564 1.366 . S
C564 C563 1.366 . S
C564 C565 1.414 . S
C564 C567 1.499 . S
C565 H539 0.950 . S
C565 C564 1.414 . S
C565 C566 1.374 . S
C566 H540 0.950 . S
C566 C562 1.385 . S
C566 C565 1.374 . S
C567 C564 1.499 . S
C567 C568 1.373 . S
C567 C569 1.389 . S
C568 H541 0.950 . S
C568 C554 1.377 . S
C568 C567 1.373 . S
C569 C553 1.377 . S
C569 C567 1.389 . S
C569 C570 1.524 . S
C570 C569 1.524 . S
C570 C571 1.397 . S
C570 C575 1.363 . S
C571 H542 0.950 . S
C571 C570 1.397 . S
C571 C572 1.334 . S
C572 H543 0.950 . S
C572 C571 1.334 . S
C572 C573 1.287 . S
C573 C572 1.287 . S
C573 C574 1.524 . S
C573 H576 0.999 . S
C574 H544 0.950 . S
C574 C573 1.524 . S
C574 C575 1.415 . S
C575 H545 0.950 . S
C575 C570 1.363 . S
C575 C574 1.415 . S
H576 C573 0.999 . S
H577 C558 0.913 . S
H578 C596 0.951 . S
H579 C598 0.951 . S
H580 C600 0.950 . S
H581 C601 0.950 . S
H582 C603 0.950 . S
H583 C606 0.950 . S
H584 C607 0.950 . S
H585 C609 0.950 . S
H586 C610 0.950 . S
H587 C611 0.951 . S
H588 C613 0.951 . S
H589 C615 0.950 . S
H590 C616 0.950 . S
H591 C618 0.950 . S
H592 C621 0.950 . S
H593 C622 0.950 . S
H594 C624 0.950 . S
H595 C625 0.950 . S
C596 H578 0.951 . S
C596 C597 1.366 . S
C596 C598 1.388 . S
C597 C596 1.366 . S
C597 C601 1.385 . S
C598 H579 0.951 . S
C598 C596 1.388 . S
C598 C599 1.366 . S
C599 C598 1.366 . S
C599 C600 1.414 . S
C599 C602 1.499 . S
C600 H580 0.950 . S
C600 C599 1.414 . S
C600 C601 1.374 . S
C601 H581 0.950 . S
C601 C597 1.385 . S
C601 C600 1.374 . S
C602 C599 1.499 . S
C602 C603 1.373 . S
C602 C604 1.389 . S
C603 H582 0.950 . S
C603 C602 1.373 . S
C603 C619 1.377 . S
C604 C602 1.389 . S
C604 C605 1.524 . S
C604 C618 1.377 . S
C605 C604 1.524 . S
C605 C606 1.397 . S
C605 C610 1.363 . S
C606 H583 0.950 . S
C606 C605 1.397 . S
C606 C607 1.334 . S
C607 H584 0.950 . S
C607 C606 1.334 . S
C607 C608 1.287 . S
C608 C607 1.287 . S
C608 C609 1.524 . S
C608 H627 0.913 . S
C609 H585 0.950 . S
C609 C608 1.524 . S
C609 C610 1.415 . S
C610 H586 0.950 . S
C610 C605 1.363 . S
C610 C609 1.415 . S
C611 H587 0.951 . S
C611 C612 1.366 . S
C611 C613 1.388 . S
C612 C611 1.366 . S
C612 C616 1.385 . S
C613 H588 0.951 . S
C613 C611 1.388 . S
C613 C614 1.366 . S
C614 C613 1.366 . S
C614 C615 1.414 . S
C614 C617 1.499 . S
C615 H589 0.950 . S
C615 C614 1.414 . S
C615 C616 1.374 . S
C616 H590 0.950 . S
C616 C612 1.385 . S
C616 C615 1.374 . S
C617 C614 1.499 . S
C617 C618 1.373 . S
C617 C619 1.389 . S
C618 H591 0.950 . S
C618 C604 1.377 . S
C618 C617 1.373 . S
C619 C603 1.377 . S
C619 C617 1.389 . S
C619 C620 1.524 . S
C620 C619 1.524 . S
C620 C621 1.397 . S
C620 C625 1.363 . S
C621 H592 0.950 . S
C621 C620 1.397 . S
C621 C622 1.334 . S
C622 H593 0.950 . S
C622 C621 1.334 . S
C622 C623 1.287 . S
C623 C622 1.287 . S
C623 C624 1.524 . S
C623 H626 0.999 . S
C624 H594 0.950 . S
C624 C623 1.524 . S
C624 C625 1.415 . S
C625 H595 0.950 . S
C625 C620 1.363 . S
C625 C624 1.415 . S
H626 C623 0.999 . S
H627 C608 0.913 . S
H628 C646 0.951 . S
H629 C648 0.951 . S
H630 C650 0.950 . S
H631 C651 0.950 . S
H632 C653 0.950 . S
H633 C656 0.950 . S
H634 C657 0.950 . S
H635 C659 0.950 . S
H636 C660 0.950 . S
H637 C661 0.951 . S
H638 C663 0.951 . S
H639 C665 0.950 . S
H640 C666 0.950 . S
H641 C668 0.950 . S
H642 C671 0.950 . S
H643 C672 0.950 . S
H644 C674 0.950 . S
H645 C675 0.950 . S
C646 H628 0.951 . S
C646 C647 1.366 . S
C646 C648 1.388 . S
C647 C646 1.366 . S
C647 C651 1.385 . S
C648 H629 0.951 . S
C648 C646 1.388 . S
C648 C649 1.366 . S
C649 C648 1.366 . S
C649 C650 1.414 . S
C649 C652 1.499 . S
C650 H630 0.950 . S
C650 C649 1.414 . S
C650 C651 1.374 . S
C651 H631 0.950 . S
C651 C647 1.385 . S
C651 C650 1.374 . S
C652 C649 1.499 . S
C652 C653 1.373 . S
C652 C654 1.389 . S
C653 H632 0.950 . S
C653 C652 1.373 . S
C653 C669 1.377 . S
C654 C652 1.389 . S
C654 C655 1.524 . S
C654 C668 1.377 . S
C655 C654 1.524 . S
C655 C656 1.397 . S
C655 C660 1.363 . S
C656 H633 0.950 . S
C656 C655 1.397 . S
C656 C657 1.334 . S
C657 H634 0.950 . S
C657 C656 1.334 . S
C657 C658 1.287 . S
C658 C657 1.287 . S
C658 C659 1.524 . S
C658 H677 0.913 . S
C659 H635 0.950 . S
C659 C658 1.524 . S
C659 C660 1.415 . S
C660 H636 0.950 . S
C660 C655 1.363 . S
C660 C659 1.415 . S
C661 H637 0.951 . S
C661 C662 1.366 . S
C661 C663 1.388 . S
C662 C661 1.366 . S
C662 C666 1.385 . S
C663 H638 0.951 . S
C663 C661 1.388 . S
C663 C664 1.366 . S
C664 C663 1.366 . S
C664 C665 1.414 . S
C664 C667 1.499 . S
C665 H639 0.950 . S
C665 C664 1.414 . S
C665 C666 1.374 . S
C666 H640 0.950 . S
C666 C662 1.385 . S
C666 C665 1.374 . S
C667 C664 1.499 . S
C667 C668 1.373 . S
C667 C669 1.389 . S
C668 H641 0.950 . S
C668 C654 1.377 . S
C668 C667 1.373 . S
C669 C653 1.377 . S
C669 C667 1.389 . S
C669 C670 1.524 . S
C670 C669 1.524 . S
C670 C671 1.397 . S
C670 C675 1.363 . S
C671 H642 0.950 . S
C671 C670 1.397 . S
C671 C672 1.334 . S
C672 H643 0.950 . S
C672 C671 1.334 . S
C672 C673 1.287 . S
C673 C672 1.287 . S
C673 C674 1.524 . S
C673 H676 0.999 . S
C674 H644 0.950 . S
C674 C673 1.524 . S
C674 C675 1.415 . S
C675 H645 0.950 . S
C675 C670 1.363 . S
C675 C674 1.415 . S
H676 C673 0.999 . S
H677 C658 0.913 . S
H678 C696 0.951 . S
H679 C698 0.951 . S
H680 C700 0.950 . S
H681 C701 0.950 . S
H682 C703 0.950 . S
H683 C706 0.950 . S
H684 C707 0.950 . S
H685 C709 0.950 . S
H686 C710 0.950 . S
H687 C711 0.951 . S
H688 C713 0.951 . S
H689 C715 0.950 . S
H690 C716 0.950 . S
H691 C718 0.950 . S
H692 C721 0.950 . S
H693 C722 0.950 . S
H694 C724 0.950 . S
H695 C725 0.950 . S
C696 H678 0.951 . S
C696 C697 1.366 . S
C696 C698 1.388 . S
C697 C696 1.366 . S
C697 C701 1.385 . S
C698 H679 0.951 . S
C698 C696 1.388 . S
C698 C699 1.366 . S
C699 C698 1.366 . S
C699 C700 1.414 . S
C699 C702 1.499 . S
C700 H680 0.950 . S
C700 C699 1.414 . S
C700 C701 1.374 . S
C701 H681 0.950 . S
C701 C697 1.385 . S
C701 C700 1.374 . S
C702 C699 1.499 . S
C702 C703 1.373 . S
C702 C704 1.389 . S
C703 H682 0.950 . S
C703 C702 1.373 . S
C703 C719 1.377 . S
C704 C702 1.389 . S
C704 C705 1.524 . S
C704 C718 1.377 . S
C705 C704 1.524 . S
C705 C706 1.397 . S
C705 C710 1.363 . S
C706 H683 0.950 . S
C706 C705 1.397 . S
C706 C707 1.334 . S
C707 H684 0.950 . S
C707 C706 1.334 . S
C707 C708 1.287 . S
C708 C707 1.287 . S
C708 C709 1.524 . S
C708 H727 0.913 . S
C709 H685 0.950 . S
C709 C708 1.524 . S
C709 C710 1.415 . S
C710 H686 0.950 . S
C710 C705 1.363 . S
C710 C709 1.415 . S
C711 H687 0.951 . S
C711 C712 1.366 . S
C711 C713 1.388 . S
C712 C711 1.366 . S
C712 C716 1.385 . S
C713 H688 0.951 . S
C713 C711 1.388 . S
C713 C714 1.366 . S
C714 C713 1.366 . S
C714 C715 1.414 . S
C714 C717 1.499 . S
C715 H689 0.950 . S
C715 C714 1.414 . S
C715 C716 1.374 . S
C716 H690 0.950 . S
C716 C712 1.385 . S
C716 C715 1.374 . S
C717 C714 1.499 . S
C717 C718 1.373 . S
C717 C719 1.389 . S
C718 H691 0.950 . S
C718 C704 1.377 . S
C718 C717 1.373 . S
C719 C703 1.377 . S
C719 C717 1.389 . S
C719 C720 1.524 . S
C720 C719 1.524 . S
C720 C721 1.397 1_655 S
C720 C725 1.363 . S
C721 H692 0.950 . S
C721 C720 1.397 1_455 S
C721 C722 1.334 . S
C722 H693 0.950 . S
C722 C721 1.334 . S
C722 C723 1.287 . S
C723 C722 1.287 . S
C723 C724 1.524 . S
C723 H726 0.999 . S
C724 H694 0.950 . S
C724 C723 1.524 . S
C724 C725 1.415 1_455 S
C725 H695 0.950 . S
C725 C720 1.363 . S
C725 C724 1.415 1_655 S
H726 C723 0.999 . S
H727 C708 0.913 . S
H728 C746 0.951 . S
H729 C748 0.951 . S
H730 C750 0.950 . S
H731 C751 0.950 . S
H732 C753 0.950 . S
H733 C756 0.950 . S
H734 C757 0.950 . S
H735 C759 0.950 . S
H736 C760 0.950 . S
H737 C761 0.951 . S
H738 C763 0.951 . S
H739 C765 0.950 . S
H740 C766 0.950 . S
H741 C768 0.950 . S
H742 C771 0.950 . S
H743 C772 0.950 . S
H744 C774 0.950 . S
H745 C775 0.950 1_545 S
C746 H728 0.951 . S
C746 C747 1.366 1_565 S
C746 C748 1.388 . S
C747 C746 1.366 1_545 S
C747 C751 1.385 . S
C748 H729 0.951 . S
C748 C746 1.388 . S
C748 C749 1.366 . S
C749 C748 1.366 . S
C749 C750 1.414 1_565 S
C749 C752 1.499 . S
C750 H730 0.950 . S
C750 C749 1.414 1_545 S
C750 C751 1.374 . S
C751 H731 0.950 . S
C751 C747 1.385 . S
C751 C750 1.374 . S
C752 C749 1.499 . S
C752 C753 1.373 . S
C752 C754 1.389 . S
C753 H732 0.950 . S
C753 C752 1.373 . S
C753 C769 1.377 . S
C754 C752 1.389 . S
C754 C755 1.524 . S
C754 C768 1.377 . S
C755 C754 1.524 . S
C755 C756 1.397 . S
C755 C760 1.363 . S
C756 H733 0.950 . S
C756 C755 1.397 . S
C756 C757 1.334 . S
C757 H734 0.950 . S
C757 C756 1.334 . S
C757 C758 1.287 . S
C758 C757 1.287 . S
C758 C759 1.524 . S
C758 H777 0.913 . S
C759 H735 0.950 . S
C759 C758 1.524 . S
C759 C760 1.415 . S
C760 H736 0.950 . S
C760 C755 1.363 . S
C760 C759 1.415 . S
C761 H737 0.951 . S
C761 C762 1.366 . S
C761 C763 1.388 . S
C762 C761 1.366 . S
C762 C766 1.385 . S
C763 H738 0.951 . S
C763 C761 1.388 . S
C763 C764 1.366 . S
C764 C763 1.366 . S
C764 C765 1.414 . S
C764 C767 1.499 . S
C765 H739 0.950 . S
C765 C764 1.414 . S
C765 C766 1.374 . S
C766 H740 0.950 . S
C766 C762 1.385 . S
C766 C765 1.374 . S
C767 C764 1.499 . S
C767 C768 1.373 . S
C767 C769 1.389 . S
C768 H741 0.950 . S
C768 C754 1.377 . S
C768 C767 1.373 . S
C769 C753 1.377 . S
C769 C767 1.389 . S
C769 C770 1.524 . S
C770 C769 1.524 . S
C770 C771 1.397 . S
C770 C775 1.363 . S
C771 H742 0.950 . S
C771 C770 1.397 . S
C771 C772 1.334 . S
C772 H743 0.950 . S
C772 C771 1.334 . S
C772 C773 1.287 . S
C773 C772 1.287 . S
C773 C774 1.524 1_565 S
C773 H776 0.999 1_565 S
C774 H744 0.950 . S
C774 C773 1.524 1_545 S
C774 C775 1.415 1_545 S
C775 H745 0.950 1_565 S
C775 C770 1.363 . S
C775 C774 1.415 1_565 S
H776 C773 0.999 1_545 S
H777 C758 0.913 . S
H778 C796 0.951 . S
H779 C798 0.951 . S
H780 C800 0.950 . S
H781 C801 0.950 . S
H782 C803 0.950 . S
H783 C806 0.950 . S
H784 C807 0.950 . S
H785 C809 0.950 . S
H786 C810 0.950 . S
H787 C811 0.951 . S
H788 C813 0.951 . S
H789 C815 0.950 . S
H790 C816 0.950 . S
H791 C818 0.950 . S
H792 C821 0.950 . S
H793 C822 0.950 . S
H794 C824 0.950 . S
H795 C825 0.950 . S
C796 H778 0.951 . S
C796 C797 1.366 . S
C796 C798 1.388 . S
C797 C796 1.366 . S
C797 C801 1.385 . S
C798 H779 0.951 . S
C798 C796 1.388 . S
C798 C799 1.366 . S
C799 C798 1.366 . S
C799 C800 1.414 . S
C799 C802 1.499 . S
C800 H780 0.950 . S
C800 C799 1.414 . S
C800 C801 1.374 . S
C801 H781 0.950 . S
C801 C797 1.385 . S
C801 C800 1.374 . S
C802 C799 1.499 . S
C802 C803 1.373 . S
C802 C804 1.389 . S
C803 H782 0.950 . S
C803 C802 1.373 . S
C803 C819 1.377 . S
C804 C802 1.389 . S
C804 C805 1.524 . S
C804 C818 1.377 . S
C805 C804 1.524 . S
C805 C806 1.397 . S
C805 C810 1.363 . S
C806 H783 0.950 . S
C806 C805 1.397 . S
C806 C807 1.334 . S
C807 H784 0.950 . S
C807 C806 1.334 . S
C807 C808 1.287 . S
C808 C807 1.287 . S
C808 C809 1.524 . S
C808 H827 0.913 . S
C809 H785 0.950 . S
C809 C808 1.524 . S
C809 C810 1.415 . S
C810 H786 0.950 . S
C810 C805 1.363 . S
C810 C809 1.415 . S
C811 H787 0.951 . S
C811 C812 1.366 . S
C811 C813 1.388 . S
C812 C811 1.366 . S
C812 C816 1.385 . S
C813 H788 0.951 . S
C813 C811 1.388 . S
C813 C814 1.366 . S
C814 C813 1.366 . S
C814 C815 1.414 . S
C814 C817 1.499 . S
C815 H789 0.950 . S
C815 C814 1.414 . S
C815 C816 1.374 . S
C816 H790 0.950 . S
C816 C812 1.385 . S
C816 C815 1.374 . S
C817 C814 1.499 . S
C817 C818 1.373 . S
C817 C819 1.389 . S
C818 H791 0.950 . S
C818 C804 1.377 . S
C818 C817 1.373 . S
C819 C803 1.377 . S
C819 C817 1.389 . S
C819 C820 1.524 . S
C820 C819 1.524 . S
C820 C821 1.397 . S
C820 C825 1.363 . S
C821 H792 0.950 . S
C821 C820 1.397 . S
C821 C822 1.334 . S
C822 H793 0.950 . S
C822 C821 1.334 . S
C822 C823 1.287 . S
C823 C822 1.287 . S
C823 C824 1.524 . S
C823 H826 0.999 . S
C824 H794 0.950 . S
C824 C823 1.524 . S
C824 C825 1.415 . S
C825 H795 0.950 . S
C825 C820 1.363 . S
C825 C824 1.415 . S
H826 C823 0.999 . S
H827 C808 0.913 . S
H828 C846 0.951 . S
H829 C848 0.951 . S
H830 C850 0.950 . S
H831 C851 0.950 . S
H832 C853 0.950 . S
H833 C856 0.950 . S
H834 C857 0.950 . S
H835 C859 0.950 . S
H836 C860 0.950 . S
H837 C861 0.951 . S
H838 C863 0.951 . S
H839 C865 0.950 . S
H840 C866 0.950 . S
H841 C868 0.950 . S
H842 C871 0.950 . S
H843 C872 0.950 . S
H844 C874 0.950 . S
H845 C875 0.950 . S
C846 H828 0.951 . S
C846 C847 1.366 . S
C846 C848 1.388 . S
C847 C846 1.366 . S
C847 C851 1.385 . S
C848 H829 0.951 . S
C848 C846 1.388 . S
C848 C849 1.366 . S
C849 C848 1.366 . S
C849 C850 1.414 . S
C849 C852 1.499 . S
C850 H830 0.950 . S
C850 C849 1.414 . S
C850 C851 1.374 . S
C851 H831 0.950 . S
C851 C847 1.385 . S
C851 C850 1.374 . S
C852 C849 1.499 . S
C852 C853 1.373 . S
C852 C854 1.389 . S
C853 H832 0.950 . S
C853 C852 1.373 . S
C853 C869 1.377 . S
C854 C852 1.389 . S
C854 C855 1.524 . S
C854 C868 1.377 . S
C855 C854 1.524 . S
C855 C856 1.397 . S
C855 C860 1.363 . S
C856 H833 0.950 . S
C856 C855 1.397 . S
C856 C857 1.334 1_565 S
C857 H834 0.950 . S
C857 C856 1.334 1_545 S
C857 C858 1.287 . S
C858 C857 1.287 . S
C858 C859 1.524 . S
C858 H877 0.913 . S
C859 H835 0.950 . S
C859 C858 1.524 . S
C859 C860 1.415 1_545 S
C860 H836 0.950 . S
C860 C855 1.363 . S
C860 C859 1.415 1_565 S
C861 H837 0.951 . S
C861 C862 1.366 . S
C861 C863 1.388 . S
C862 C861 1.366 . S
C862 C866 1.385 . S
C863 H838 0.951 . S
C863 C861 1.388 . S
C863 C864 1.366 . S
C864 C863 1.366 . S
C864 C865 1.414 . S
C864 C867 1.499 . S
C865 H839 0.950 . S
C865 C864 1.414 . S
C865 C866 1.374 . S
C866 H840 0.950 . S
C866 C862 1.385 . S
C866 C865 1.374 . S
C867 C864 1.499 . S
C867 C868 1.373 . S
C867 C869 1.389 . S
C868 H841 0.950 . S
C868 C854 1.377 . S
C868 C867 1.373 . S
C869 C853 1.377 . S
C869 C867 1.389 . S
C869 C870 1.524 . S
C870 C869 1.524 . S
C870 C871 1.397 . S
C870 C875 1.363 . S
C871 H842 0.950 . S
C871 C870 1.397 . S
C871 C872 1.334 . S
C872 H843 0.950 . S
C872 C871 1.334 . S
C872 C873 1.287 . S
C873 C872 1.287 . S
C873 C874 1.524 . S
C873 H876 0.999 . S
C874 H844 0.950 . S
C874 C873 1.524 . S
C874 C875 1.415 . S
C875 H845 0.950 . S
C875 C870 1.363 . S
C875 C874 1.415 . S
H876 C873 0.999 . S
H877 C858 0.913 . S
H878 C896 0.951 . S
H879 C898 0.973 . S
H880 C900 0.950 . S
H881 C901 0.950 . S
H882 C903 0.950 1_554 S
H883 C906 0.946 . S
H884 C907 0.967 . S
H885 C909 0.950 . S
H886 C910 0.950 . S
H887 C911 0.951 . S
H888 C913 0.951 . S
H889 C915 0.950 . S
H890 C916 0.950 . S
H891 C918 0.950 . S
H892 C921 0.950 . S
H893 C922 0.950 . S
H894 C924 0.950 1_554 S
H895 C925 0.950 1_554 S
C896 H878 0.951 . S
C896 C897 1.366 . S
C896 C898 1.371 1_554 S
C897 C896 1.366 . S
C897 C901 1.385 . S
C898 H879 0.973 . S
C898 C896 1.371 1_556 S
C898 C899 1.361 1_556 S
C899 C898 1.361 1_554 S
C899 C900 1.414 . S
C899 C902 1.499 1_554 S
C900 H880 0.950 . S
C900 C899 1.414 . S
C900 C901 1.374 . S
C901 H881 0.950 . S
C901 C897 1.385 . S
C901 C900 1.374 . S
C902 C899 1.499 1_556 S
C902 C903 1.373 . S
C902 C904 1.389 . S
C903 H882 0.950 1_556 S
C903 C902 1.373 . S
C903 C919 1.377 . S
C904 C902 1.389 . S
C904 C905 1.524 . S
C904 C918 1.377 . S
C905 C904 1.524 . S
C905 C906 1.397 . S
C905 C910 1.363 . S
C906 H883 0.946 . S
C906 C905 1.397 . S
C906 C907 1.334 . S
C907 H884 0.967 . S
C907 C906 1.334 . S
C907 C908 1.287 . S
C908 C907 1.287 . S
C908 C909 1.524 . S
C908 H927 0.913 . S
C909 H885 0.950 . S
C909 C908 1.524 . S
C909 C910 1.415 . S
C910 H886 0.950 . S
C910 C905 1.363 . S
C910 C909 1.415 . S
C911 H887 0.951 . S
C911 C912 1.366 . S
C911 C913 1.388 . S
C912 C911 1.366 . S
C912 C916 1.385 . S
C913 H888 0.951 . S
C913 C911 1.388 . S
C913 C914 1.366 . S
C914 C913 1.366 . S
C914 C915 1.414 . S
C914 C917 1.499 . S
C915 H889 0.950 . S
C915 C914 1.414 . S
C915 C916 1.374 . S
C916 H890 0.950 . S
C916 C912 1.385 . S
C916 C915 1.374 . S
C917 C914 1.499 . S
C917 C918 1.373 . S
C917 C919 1.389 . S
C918 H891 0.950 . S
C918 C904 1.377 . S
C918 C917 1.373 . S
C919 C903 1.377 . S
C919 C917 1.389 . S
C919 C920 1.524 . S
C920 C919 1.524 . S
C920 C921 1.397 . S
C920 C925 1.363 . S
C921 H892 0.950 . S
C921 C920 1.397 . S
C921 C922 1.334 . S
C922 H893 0.950 . S
C922 C921 1.334 . S
C922 C923 1.287 . S
C923 C922 1.287 . S
C923 C924 1.524 . S
C923 H926 0.999 . S
C924 H894 0.950 1_556 S
C924 C923 1.524 . S
C924 C925 1.415 . S
C925 H895 0.950 1_556 S
C925 C920 1.363 . S
C925 C924 1.415 . S
H926 C923 0.999 . S
H927 C908 0.913 . S
H928 C946 0.951 . S
H929 C948 0.951 . S
H930 C950 0.950 . S
H931 C951 0.950 . S
H932 C953 0.950 . S
H933 C956 0.950 . S
H934 C957 0.950 . S
H935 C959 0.950 . S
H936 C960 0.950 . S
H937 C961 0.951 . S
H938 C963 0.951 . S
H939 C965 0.950 . S
H940 C966 0.950 . S
H941 C968 0.950 . S
H942 C971 0.950 . S
H943 C972 0.950 . S
H944 C974 0.950 . S
H945 C975 0.950 . S
C946 H928 0.951 . S
C946 C947 1.366 . S
C946 C948 1.388 . S
C947 C946 1.366 . S
C947 C951 1.385 . S
C948 H929 0.951 . S
C948 C946 1.388 . S
C948 C949 1.366 . S
C949 C948 1.366 . S
C949 C950 1.414 . S
C949 C952 1.499 . S
C950 H930 0.950 . S
C950 C949 1.414 . S
C950 C951 1.374 . S
C951 H931 0.950 . S
C951 C947 1.385 . S
C951 C950 1.374 . S
C952 C949 1.499 . S
C952 C953 1.373 . S
C952 C954 1.389 . S
C953 H932 0.950 . S
C953 C952 1.373 . S
C953 C969 1.377 . S
C954 C952 1.389 . S
C954 C955 1.524 . S
C954 C968 1.377 . S
C955 C954 1.524 . S
C955 C956 1.397 . S
C955 C960 1.363 . S
C956 H933 0.950 . S
C956 C955 1.397 . S
C956 C957 1.334 . S
C957 H934 0.950 . S
C957 C956 1.334 . S
C957 C958 1.287 . S
C958 C957 1.287 . S
C958 C959 1.524 . S
C958 H977 0.913 . S
C959 H935 0.950 . S
C959 C958 1.524 . S
C959 C960 1.415 . S
C960 H936 0.950 . S
C960 C955 1.363 . S
C960 C959 1.415 . S
C961 H937 0.951 . S
C961 C962 1.366 . S
C961 C963 1.388 . S
C962 C961 1.366 . S
C962 C966 1.385 . S
C963 H938 0.951 . S
C963 C961 1.388 . S
C963 C964 1.366 . S
C964 C963 1.366 . S
C964 C965 1.414 . S
C964 C967 1.499 . S
C965 H939 0.950 . S
C965 C964 1.414 . S
C965 C966 1.374 . S
C966 H940 0.950 . S
C966 C962 1.385 . S
C966 C965 1.374 . S
C967 C964 1.499 . S
C967 C968 1.373 . S
C967 C969 1.389 . S
C968 H941 0.950 . S
C968 C954 1.377 . S
C968 C967 1.373 . S
C969 C953 1.377 . S
C969 C967 1.389 . S
C969 C970 1.524 . S
C970 C969 1.524 . S
C970 C971 1.397 . S
C970 C975 1.363 . S
C971 H942 0.950 . S
C971 C970 1.397 . S
C971 C972 1.334 . S
C972 H943 0.950 . S
C972 C971 1.334 . S
C972 C973 1.287 . S
C973 C972 1.287 . S
C973 C974 1.524 . S
C973 H976 0.999 . S
C974 H944 0.950 . S
C974 C973 1.524 . S
C974 C975 1.415 . S
C975 H945 0.950 . S
C975 C970 1.363 . S
C975 C974 1.415 . S
H976 C973 0.999 . S
H977 C958 0.913 . S
H978 C996 0.951 . S
H979 C998 0.951 1_556 S
H980 C1000 0.950 . S
H981 C1001 0.950 . S
H982 C1003 0.963 . S
H983 C1006 0.950 1_554 S
H984 C1007 0.950 1_554 S
H985 C1009 0.950 . S
H986 C1010 0.950 . S
H987 C1011 0.951 . S
H988 C1013 0.951 . S
H989 C1015 0.950 . S
H990 C1016 0.950 . S
H991 C1018 0.950 . S
H992 C1021 0.950 . S
H993 C1022 0.950 . S
H994 C1024 0.950 . S
H995 C1025 0.950 . S
C996 H978 0.951 . S
C996 C997 1.366 . S
C996 C998 1.388 . S
C997 C996 1.366 . S
C997 C1001 1.385 . S
C998 H979 0.951 1_554 S
C998 C996 1.388 . S
C998 C999 1.366 . S
C999 C998 1.366 . S
C999 C1000 1.414 . S
C999 C1002 1.499 1_554 S
C1000 H980 0.950 . S
C1000 C999 1.414 . S
C1000 C1001 1.374 . S
C1001 H981 0.950 . S
C1001 C997 1.385 . S
C1001 C1000 1.374 . S
C1002 C999 1.499 1_556 S
C1002 C1003 1.371 1_556 S
C1002 C1004 1.389 . S
C1003 H982 0.963 . S
C1003 C1002 1.371 1_554 S
C1003 C1019 1.366 1_554 S
C1004 C1002 1.389 . S
C1004 C1005 1.524 . S
C1004 C1018 1.377 . S
C1005 C1004 1.524 . S
C1005 C1006 1.397 . S
C1005 C1010 1.363 . S
C1006 H983 0.950 1_556 S
C1006 C1005 1.397 . S
C1006 C1007 1.334 . S
C1007 H984 0.950 1_556 S
C1007 C1006 1.334 . S
C1007 C1008 1.287 . S
C1008 C1007 1.287 . S
C1008 C1009 1.524 . S
C1008 H1027 0.913 . S
C1009 H985 0.950 . S
C1009 C1008 1.524 . S
C1009 C1010 1.415 . S
C1010 H986 0.950 . S
C1010 C1005 1.363 . S
C1010 C1009 1.415 . S
C1011 H987 0.951 . S
C1011 C1012 1.366 . S
C1011 C1013 1.388 . S
C1012 C1011 1.366 . S
C1012 C1016 1.385 . S
C1013 H988 0.951 . S
C1013 C1011 1.388 . S
C1013 C1014 1.366 . S
C1014 C1013 1.366 . S
C1014 C1015 1.414 . S
C1014 C1017 1.499 . S
C1015 H989 0.950 . S
C1015 C1014 1.414 . S
C1015 C1016 1.374 . S
C1016 H990 0.950 . S
C1016 C1012 1.385 . S
C1016 C1015 1.374 . S
C1017 C1014 1.499 . S
C1017 C1018 1.373 . S
C1017 C1019 1.389 . S
C1018 H991 0.950 . S
C1018 C1004 1.377 . S
C1018 C1017 1.373 . S
C1019 C1003 1.366 1_556 S
C1019 C1017 1.389 . S
C1019 C1020 1.524 . S
C1020 C1019 1.524 . S
C1020 C1021 1.397 . S
C1020 C1025 1.363 1_556 S
C1021 H992 0.950 . S
C1021 C1020 1.397 . S
C1021 C1022 1.334 . S
C1022 H993 0.950 . S
C1022 C1021 1.334 . S
C1022 C1023 1.287 . S
C1023 C1022 1.287 . S
C1023 C1024 1.524 1_556 S
C1023 H1026 0.999 . S
C1024 H994 0.950 . S
C1024 C1023 1.524 1_554 S
C1024 C1025 1.415 . S
C1025 H995 0.950 . S
C1025 C1020 1.363 1_554 S
C1025 C1024 1.415 . S
H1026 C1023 0.999 . S
H1027 C1008 0.913 . S
H1028 C1046 0.951 . S
H1029 C1048 0.951 . S
H1030 C1050 0.950 . S
H1031 C1051 0.950 . S
H1032 C1053 0.950 . S
H1033 C1056 0.950 . S
H1034 C1057 0.950 . S
H1035 C1059 0.950 . S
H1036 C1060 0.950 . S
H1037 C1061 0.951 . S
H1038 C1063 0.951 . S
H1039 C1065 0.950 . S
H1040 C1066 0.950 . S
H1041 C1068 0.950 . S
H1042 C1071 0.950 . S
H1043 C1072 0.950 . S
H1044 C1074 0.950 . S
H1045 C1075 0.950 . S
C1046 H1028 0.951 . S
C1046 C1047 1.366 . S
C1046 C1048 1.388 . S
C1047 C1046 1.366 . S
C1047 C1051 1.385 . S
C1048 H1029 0.951 . S
C1048 C1046 1.388 . S
C1048 C1049 1.366 . S
C1049 C1048 1.366 . S
C1049 C1050 1.414 . S
C1049 C1052 1.499 . S
C1050 H1030 0.950 . S
C1050 C1049 1.414 . S
C1050 C1051 1.374 . S
C1051 H1031 0.950 . S
C1051 C1047 1.385 . S
C1051 C1050 1.374 . S
C1052 C1049 1.499 . S
C1052 C1053 1.373 . S
C1052 C1054 1.389 . S
C1053 H1032 0.950 . S
C1053 C1052 1.373 . S
C1053 C1069 1.377 . S
C1054 C1052 1.389 . S
C1054 C1055 1.524 . S
C1054 C1068 1.377 . S
C1055 C1054 1.524 . S
C1055 C1056 1.397 . S
C1055 C1060 1.363 . S
C1056 H1033 0.950 . S
C1056 C1055 1.397 . S
C1056 C1057 1.334 . S
C1057 H1034 0.950 . S
C1057 C1056 1.334 . S
C1057 C1058 1.287 . S
C1058 C1057 1.287 . S
C1058 C1059 1.524 . S
C1058 H1077 0.913 . S
C1059 H1035 0.950 . S
C1059 C1058 1.524 . S
C1059 C1060 1.415 . S
C1060 H1036 0.950 . S
C1060 C1055 1.363 . S
C1060 C1059 1.415 . S
C1061 H1037 0.951 . S
C1061 C1062 1.366 . S
C1061 C1063 1.388 . S
C1062 C1061 1.366 . S
C1062 C1066 1.385 . S
C1063 H1038 0.951 . S
C1063 C1061 1.388 . S
C1063 C1064 1.366 . S
C1064 C1063 1.366 . S
C1064 C1065 1.414 . S
C1064 C1067 1.499 . S
C1065 H1039 0.950 . S
C1065 C1064 1.414 . S
C1065 C1066 1.374 . S
C1066 H1040 0.950 . S
C1066 C1062 1.385 . S
C1066 C1065 1.374 . S
C1067 C1064 1.499 . S
C1067 C1068 1.373 . S
C1067 C1069 1.389 . S
C1068 H1041 0.950 . S
C1068 C1054 1.377 . S
C1068 C1067 1.373 . S
C1069 C1053 1.377 . S
C1069 C1067 1.389 . S
C1069 C1070 1.524 . S
C1070 C1069 1.524 . S
C1070 C1071 1.397 . S
C1070 C1075 1.363 . S
C1071 H1042 0.950 . S
C1071 C1070 1.397 . S
C1071 C1072 1.334 . S
C1072 H1043 0.950 . S
C1072 C1071 1.334 . S
C1072 C1073 1.287 . S
C1073 C1072 1.287 . S
C1073 C1074 1.524 . S
C1073 H1076 0.999 . S
C1074 H1044 0.950 . S
C1074 C1073 1.524 . S
C1074 C1075 1.415 . S
C1075 H1045 0.950 . S
C1075 C1070 1.363 . S
C1075 C1074 1.415 . S
H1076 C1073 0.999 . S
H1077 C1058 0.913 . S
H1078 C1096 0.951 . S
H1079 C1098 0.951 . S
H1080 C1100 0.950 . S
H1081 C1101 0.950 . S
H1082 C1103 0.950 . S
H1083 C1106 0.950 . S
H1084 C1107 0.950 . S
H1085 C1109 0.950 . S
H1086 C1110 0.950 . S
H1087 C1111 0.951 . S
H1088 C1113 0.951 . S
H1089 C1115 0.950 . S
H1090 C1116 0.950 . S
H1091 C1118 0.950 . S
H1092 C1121 0.950 . S
H1093 C1122 0.950 . S
H1094 C1124 0.950 . S
H1095 C1125 0.950 . S
C1096 H1078 0.951 . S
C1096 C1097 1.366 . S
C1096 C1098 1.388 . S
C1097 C1096 1.366 . S
C1097 C1101 1.385 . S
C1098 H1079 0.951 . S
C1098 C1096 1.388 . S
C1098 C1099 1.366 . S
C1099 C1098 1.366 . S
C1099 C1100 1.414 . S
C1099 C1102 1.499 . S
C1100 H1080 0.950 . S
C1100 C1099 1.414 . S
C1100 C1101 1.374 . S
C1101 H1081 0.950 . S
C1101 C1097 1.385 . S
C1101 C1100 1.374 . S
C1102 C1099 1.499 . S
C1102 C1103 1.373 . S
C1102 C1104 1.389 . S
C1103 H1082 0.950 . S
C1103 C1102 1.373 . S
C1103 C1119 1.377 . S
C1104 C1102 1.389 . S
C1104 C1105 1.524 . S
C1104 C1118 1.377 . S
C1105 C1104 1.524 . S
C1105 C1106 1.397 . S
C1105 C1110 1.363 . S
C1106 H1083 0.950 . S
C1106 C1105 1.397 . S
C1106 C1107 1.334 . S
C1107 H1084 0.950 . S
C1107 C1106 1.334 . S
C1107 C1108 1.287 . S
C1108 C1107 1.287 . S
C1108 C1109 1.524 . S
C1108 H1127 0.913 . S
C1109 H1085 0.950 . S
C1109 C1108 1.524 . S
C1109 C1110 1.415 . S
C1110 H1086 0.950 . S
C1110 C1105 1.363 . S
C1110 C1109 1.415 . S
C1111 H1087 0.951 . S
C1111 C1112 1.366 . S
C1111 C1113 1.388 1_655 S
C1112 C1111 1.366 . S
C1112 C1116 1.385 1_655 S
C1113 H1088 0.951 . S
C1113 C1111 1.388 1_455 S
C1113 C1114 1.366 . S
C1114 C1113 1.366 . S
C1114 C1115 1.414 . S
C1114 C1117 1.499 . S
C1115 H1089 0.950 . S
C1115 C1114 1.414 . S
C1115 C1116 1.374 . S
C1116 H1090 0.950 . S
C1116 C1112 1.385 1_455 S
C1116 C1115 1.374 . S
C1117 C1114 1.499 . S
C1117 C1118 1.373 . S
C1117 C1119 1.389 . S
C1118 H1091 0.950 . S
C1118 C1104 1.377 . S
C1118 C1117 1.373 . S
C1119 C1103 1.377 . S
C1119 C1117 1.389 . S
C1119 C1120 1.524 . S
C1120 C1119 1.524 . S
C1120 C1121 1.397 . S
C1120 C1125 1.363 . S
C1121 H1092 0.950 . S
C1121 C1120 1.397 . S
C1121 C1122 1.334 . S
C1122 H1093 0.950 . S
C1122 C1121 1.334 . S
C1122 C1123 1.287 . S
C1123 C1122 1.287 . S
C1123 C1124 1.524 . S
C1123 H1126 0.999 . S
C1124 H1094 0.950 . S
C1124 C1123 1.524 . S
C1124 C1125 1.415 . S
C1125 H1095 0.950 . S
C1125 C1120 1.363 . S
C1125 C1124 1.415 . S
H1126 C1123 0.999 . S
H1127 C1108 0.913 . S
H1128 C1146 0.951 . S
H1129 C1148 0.951 . S
H1130 C1150 0.950 . S
H1131 C1151 0.950 . S
H1132 C1153 0.950 . S
H1133 C1156 0.950 . S
H1134 C1157 0.950 . S
H1135 C1159 0.950 . S
H1136 C1160 0.950 . S
H1137 C1161 0.951 . S
H1138 C1163 0.951 . S
H1139 C1165 0.950 . S
H1140 C1166 0.950 . S
H1141 C1168 0.950 . S
H1142 C1171 0.950 . S
H1143 C1172 0.950 1_655 S
H1144 C1174 0.934 1_554 S
H1145 C1175 0.950 . S
C1146 H1128 0.951 . S
C1146 C1147 1.366 . S
C1146 C1148 1.388 . S
C1147 C1146 1.366 . S
C1147 C1151 1.385 . S
C1148 H1129 0.951 . S
C1148 C1146 1.388 . S
C1148 C1149 1.366 . S
C1149 C1148 1.366 . S
C1149 C1150 1.414 . S
C1149 C1152 1.499 . S
C1150 H1130 0.950 . S
C1150 C1149 1.414 . S
C1150 C1151 1.374 . S
C1151 H1131 0.950 . S
C1151 C1147 1.385 . S
C1151 C1150 1.374 . S
C1152 C1149 1.499 . S
C1152 C1153 1.373 . S
C1152 C1154 1.389 . S
C1153 H1132 0.950 . S
C1153 C1152 1.373 . S
C1153 C1169 1.377 . S
C1154 C1152 1.389 . S
C1154 C1155 1.524 . S
C1154 C1168 1.377 . S
C1155 C1154 1.524 . S
C1155 C1156 1.397 . S
C1155 C1160 1.363 . S
C1156 H1133 0.950 . S
C1156 C1155 1.397 . S
C1156 C1157 1.334 . S
C1157 H1134 0.950 . S
C1157 C1156 1.334 . S
C1157 C1158 1.287 . S
C1158 C1157 1.287 . S
C1158 C1159 1.524 . S
C1158 H1177 0.913 . S
C1159 H1135 0.950 . S
C1159 C1158 1.524 . S
C1159 C1160 1.415 . S
C1160 H1136 0.950 . S
C1160 C1155 1.363 . S
C1160 C1159 1.415 . S
C1161 H1137 0.951 . S
C1161 C1162 1.366 1_455 S
C1161 C1163 1.388 . S
C1162 C1161 1.366 1_655 S
C1162 C1166 1.385 . S
C1163 H1138 0.951 . S
C1163 C1161 1.388 . S
C1163 C1164 1.366 . S
C1164 C1163 1.366 . S
C1164 C1165 1.414 1_455 S
C1164 C1167 1.499 . S
C1165 H1139 0.950 . S
C1165 C1164 1.414 1_655 S
C1165 C1166 1.374 . S
C1166 H1140 0.950 . S
C1166 C1162 1.385 . S
C1166 C1165 1.374 . S
C1167 C1164 1.499 . S
C1167 C1168 1.373 . S
C1167 C1169 1.389 . S
C1168 H1141 0.950 . S
C1168 C1154 1.377 . S
C1168 C1167 1.373 . S
C1169 C1153 1.377 . S
C1169 C1167 1.389 . S
C1169 C1170 1.524 . S
C1170 C1169 1.524 . S
C1170 C1171 1.397 . S
C1170 C1175 1.363 . S
C1171 H1142 0.950 . S
C1171 C1170 1.397 . S
C1171 C1172 1.334 . S
C1172 H1143 0.950 1_455 S
C1172 C1171 1.334 . S
C1172 C1173 1.287 . S
C1173 C1172 1.287 . S
C1173 C1174 1.524 . S
C1173 H1176 0.999 1_556 S
C1174 H1144 0.934 1_556 S
C1174 C1173 1.524 . S
C1174 C1175 1.415 . S
C1175 H1145 0.950 . S
C1175 C1170 1.363 . S
C1175 C1174 1.415 . S
H1176 C1173 0.999 1_554 S
H1177 C1158 0.913 . S
H1178 C1196 0.951 . S
H1179 C1198 0.951 . S
H1180 C1200 0.950 . S
H1181 C1201 0.950 . S
H1182 C1203 0.950 . S
H1183 C1206 0.947 . S
H1184 C1207 0.950 . S
H1185 C1209 0.950 . S
H1186 C1210 0.950 . S
H1187 C1211 0.951 . S
H1188 C1213 0.951 . S
H1189 C1215 0.950 . S
H1190 C1216 0.950 . S
H1191 C1218 0.950 . S
H1192 C1221 0.950 . S
H1193 C1222 0.950 . S
H1194 C1224 0.950 . S
H1195 C1225 0.950 . S
C1196 H1178 0.951 . S
C1196 C1197 1.366 . S
C1196 C1198 1.388 . S
C1197 C1196 1.366 . S
C1197 C1201 1.385 . S
C1198 H1179 0.951 . S
C1198 C1196 1.388 . S
C1198 C1199 1.366 . S
C1199 C1198 1.366 . S
C1199 C1200 1.414 . S
C1199 C1202 1.499 . S
C1200 H1180 0.950 . S
C1200 C1199 1.414 . S
C1200 C1201 1.374 . S
C1201 H1181 0.950 . S
C1201 C1197 1.385 . S
C1201 C1200 1.374 . S
C1202 C1199 1.499 . S
C1202 C1203 1.373 . S
C1202 C1204 1.389 . S
C1203 H1182 0.950 . S
C1203 C1202 1.373 . S
C1203 C1219 1.377 . S
C1204 C1202 1.389 . S
C1204 C1205 1.524 . S
C1204 C1218 1.377 . S
C1205 C1204 1.524 . S
C1205 C1206 1.396 1_565 S
C1205 C1210 1.363 . S
C1206 H1183 0.947 . S
C1206 C1205 1.396 1_545 S
C1206 C1207 1.335 . S
C1207 H1184 0.950 . S
C1207 C1206 1.335 . S
C1207 C1208 1.287 . S
C1208 C1207 1.287 . S
C1208 C1209 1.524 1_545 S
C1208 H1227 0.913 . S
C1209 H1185 0.950 . S
C1209 C1208 1.524 1_565 S
C1209 C1210 1.415 . S
C1210 H1186 0.950 . S
C1210 C1205 1.363 . S
C1210 C1209 1.415 . S
C1211 H1187 0.951 . S
C1211 C1212 1.366 . S
C1211 C1213 1.388 . S
C1212 C1211 1.366 . S
C1212 C1216 1.385 . S
C1213 H1188 0.951 . S
C1213 C1211 1.388 . S
C1213 C1214 1.366 . S
C1214 C1213 1.366 . S
C1214 C1215 1.414 . S
C1214 C1217 1.499 . S
C1215 H1189 0.950 . S
C1215 C1214 1.414 . S
C1215 C1216 1.374 . S
C1216 H1190 0.950 . S
C1216 C1212 1.385 . S
C1216 C1215 1.374 . S
C1217 C1214 1.499 . S
C1217 C1218 1.373 . S
C1217 C1219 1.389 . S
C1218 H1191 0.950 . S
C1218 C1204 1.377 . S
C1218 C1217 1.373 . S
C1219 C1203 1.377 . S
C1219 C1217 1.389 . S
C1219 C1220 1.524 . S
C1220 C1219 1.524 . S
C1220 C1221 1.397 . S
C1220 C1225 1.363 . S
C1221 H1192 0.950 . S
C1221 C1220 1.397 . S
C1221 C1222 1.334 . S
C1222 H1193 0.950 . S
C1222 C1221 1.334 . S
C1222 C1223 1.287 . S
C1223 C1222 1.287 . S
C1223 C1224 1.524 . S
C1223 H1226 0.999 . S
C1224 H1194 0.950 . S
C1224 C1223 1.524 . S
C1224 C1225 1.415 . S
C1225 H1195 0.950 . S
C1225 C1220 1.363 . S
C1225 C1224 1.415 . S
H1226 C1223 0.999 . S
H1227 C1208 0.913 . S
H1228 C1246 0.951 . S
H1229 C1248 0.951 . S
H1230 C1250 0.950 . S
H1231 C1251 0.950 . S
H1232 C1253 0.950 . S
H1233 C1256 0.950 1_554 S
H1234 C1257 0.950 1_554 S
H1235 C1259 0.950 . S
H1236 C1260 0.950 . S
H1237 C1261 0.951 . S
H1238 C1263 0.951 . S
H1239 C1265 0.950 . S
H1240 C1266 0.950 . S
H1241 C1268 0.950 . S
H1242 C1271 0.950 . S
H1243 C1272 0.950 . S
H1244 C1274 0.982 . S
H1245 C1275 0.945 1_554 S
C1246 H1228 0.951 . S
C1246 C1247 1.366 . S
C1246 C1248 1.388 1_554 S
C1247 C1246 1.366 . S
C1247 C1251 1.385 . S
C1248 H1229 0.951 . S
C1248 C1246 1.388 1_556 S
C1248 C1249 1.366 1_556 S
C1249 C1248 1.366 1_554 S
C1249 C1250 1.414 . S
C1249 C1252 1.499 1_554 S
C1250 H1230 0.950 . S
C1250 C1249 1.414 . S
C1250 C1251 1.374 . S
C1251 H1231 0.950 . S
C1251 C1247 1.385 . S
C1251 C1250 1.374 . S
C1252 C1249 1.499 1_556 S
C1252 C1253 1.373 . S
C1252 C1254 1.389 . S
C1253 H1232 0.950 . S
C1253 C1252 1.373 . S
C1253 C1269 1.377 . S
C1254 C1252 1.389 . S
C1254 C1255 1.524 . S
C1254 C1268 1.377 . S
C1255 C1254 1.524 . S
C1255 C1256 1.397 . S
C1255 C1260 1.363 . S
C1256 H1233 0.950 1_556 S
C1256 C1255 1.397 . S
C1256 C1257 1.334 . S
C1257 H1234 0.950 1_556 S
C1257 C1256 1.334 . S
C1257 C1258 1.287 . S
C1258 C1257 1.287 . S
C1258 C1259 1.524 . S
C1258 H1277 0.913 . S
C1259 H1235 0.950 . S
C1259 C1258 1.524 . S
C1259 C1260 1.415 . S
C1260 H1236 0.950 . S
C1260 C1255 1.363 . S
C1260 C1259 1.415 . S
C1261 H1237 0.951 . S
C1261 C1262 1.366 . S
C1261 C1263 1.388 . S
C1262 C1261 1.366 . S
C1262 C1266 1.385 . S
C1263 H1238 0.951 . S
C1263 C1261 1.388 . S
C1263 C1264 1.366 . S
C1264 C1263 1.366 . S
C1264 C1265 1.414 . S
C1264 C1267 1.499 . S
C1265 H1239 0.950 . S
C1265 C1264 1.414 . S
C1265 C1266 1.374 . S
C1266 H1240 0.950 . S
C1266 C1262 1.385 . S
C1266 C1265 1.374 . S
C1267 C1264 1.499 . S
C1267 C1268 1.373 . S
C1267 C1269 1.389 . S
C1268 H1241 0.950 . S
C1268 C1254 1.377 . S
C1268 C1267 1.373 . S
C1269 C1253 1.377 . S
C1269 C1267 1.389 . S
C1269 C1270 1.524 . S
C1270 C1269 1.524 . S
C1270 C1271 1.397 . S
C1270 C1275 1.363 . S
C1271 H1242 0.950 . S
C1271 C1270 1.397 . S
C1271 C1272 1.334 . S
C1272 H1243 0.950 . S
C1272 C1271 1.334 . S
C1272 C1273 1.287 . S
C1273 C1272 1.287 . S
C1273 C1274 1.524 . S
C1273 H1276 0.999 . S
C1274 H1244 0.982 . S
C1274 C1273 1.524 . S
C1274 C1275 1.415 . S
C1275 H1245 0.945 1_556 S
C1275 C1270 1.363 . S
C1275 C1274 1.415 . S
H1276 C1273 0.999 . S
H1277 C1258 0.913 . S
H1278 C1296 0.951 . S
H1279 C1298 0.951 . S
H1280 C1300 0.950 . S
H1281 C1301 0.950 . S
H1282 C1303 0.950 . S
H1283 C1306 0.950 . S
H1284 C1307 0.950 . S
H1285 C1309 0.950 . S
H1286 C1310 0.950 . S
H1287 C1311 0.951 . S
H1288 C1313 0.951 . S
H1289 C1315 0.950 . S
H1290 C1316 0.950 . S
H1291 C1318 0.950 . S
H1292 C1321 0.950 . S
H1293 C1322 0.950 . S
H1294 C1324 0.950 . S
H1295 C1325 0.950 . S
C1296 H1278 0.951 . S
C1296 C1297 1.366 . S
C1296 C1298 1.388 . S
C1297 C1296 1.366 . S
C1297 C1301 1.385 . S
C1298 H1279 0.951 . S
C1298 C1296 1.388 . S
C1298 C1299 1.366 . S
C1299 C1298 1.366 . S
C1299 C1300 1.414 . S
C1299 C1302 1.499 . S
C1300 H1280 0.950 . S
C1300 C1299 1.414 . S
C1300 C1301 1.374 . S
C1301 H1281 0.950 . S
C1301 C1297 1.385 . S
C1301 C1300 1.374 . S
C1302 C1299 1.499 . S
C1302 C1303 1.373 . S
C1302 C1304 1.389 . S
C1303 H1282 0.950 . S
C1303 C1302 1.373 . S
C1303 C1319 1.377 . S
C1304 C1302 1.389 . S
C1304 C1305 1.524 . S
C1304 C1318 1.377 . S
C1305 C1304 1.524 . S
C1305 C1306 1.397 . S
C1305 C1310 1.363 . S
C1306 H1283 0.950 . S
C1306 C1305 1.397 . S
C1306 C1307 1.334 . S
C1307 H1284 0.950 . S
C1307 C1306 1.334 . S
C1307 C1308 1.287 . S
C1308 C1307 1.287 . S
C1308 C1309 1.524 . S
C1308 H1327 0.913 . S
C1309 H1285 0.950 . S
C1309 C1308 1.524 . S
C1309 C1310 1.415 . S
C1310 H1286 0.950 . S
C1310 C1305 1.363 . S
C1310 C1309 1.415 . S
C1311 H1287 0.951 . S
C1311 C1312 1.366 . S
C1311 C1313 1.388 . S
C1312 C1311 1.366 . S
C1312 C1316 1.385 . S
C1313 H1288 0.951 . S
C1313 C1311 1.388 . S
C1313 C1314 1.366 . S
C1314 C1313 1.366 . S
C1314 C1315 1.414 . S
C1314 C1317 1.499 . S
C1315 H1289 0.950 . S
C1315 C1314 1.414 . S
C1315 C1316 1.374 . S
C1316 H1290 0.950 . S
C1316 C1312 1.385 . S
C1316 C1315 1.374 . S
C1317 C1314 1.499 . S
C1317 C1318 1.373 . S
C1317 C1319 1.389 . S
C1318 H1291 0.950 . S
C1318 C1304 1.377 . S
C1318 C1317 1.373 . S
C1319 C1303 1.377 . S
C1319 C1317 1.389 . S
C1319 C1320 1.524 . S
C1320 C1319 1.524 . S
C1320 C1321 1.397 . S
C1320 C1325 1.363 . S
C1321 H1292 0.950 . S
C1321 C1320 1.397 . S
C1321 C1322 1.334 . S
C1322 H1293 0.950 . S
C1322 C1321 1.334 . S
C1322 C1323 1.287 . S
C1323 C1322 1.287 . S
C1323 C1324 1.524 . S
C1323 H1326 0.999 . S
C1324 H1294 0.950 . S
C1324 C1323 1.524 . S
C1324 C1325 1.415 . S
C1325 H1295 0.950 . S
C1325 C1320 1.363 . S
C1325 C1324 1.415 . S
H1326 C1323 0.999 . S
H1327 C1308 0.913 . S
H1328 C1346 0.951 . S
H1329 C1348 0.951 . S
H1330 C1350 0.950 1_556 S
H1331 C1351 0.950 . S
H1332 C1353 0.950 . S
H1333 C1356 0.950 . S
H1334 C1357 0.950 . S
H1335 C1359 0.950 . S
H1336 C1360 0.950 . S
H1337 C1361 0.951 . S
H1338 C1363 0.951 . S
H1339 C1365 0.950 . S
H1340 C1366 0.950 . S
H1341 C1368 0.950 . S
H1342 C1371 0.950 . S
H1343 C1372 0.950 . S
H1344 C1374 0.950 . S
H1345 C1375 0.950 . S
C1346 H1328 0.951 . S
C1346 C1347 1.366 . S
C1346 C1348 1.388 . S
C1347 C1346 1.366 . S
C1347 C1351 1.385 . S
C1348 H1329 0.951 . S
C1348 C1346 1.388 . S
C1348 C1349 1.366 . S
C1349 C1348 1.366 . S
C1349 C1350 1.414 . S
C1349 C1352 1.499 . S
C1350 H1330 0.950 1_554 S
C1350 C1349 1.414 . S
C1350 C1351 1.374 . S
C1351 H1331 0.950 . S
C1351 C1347 1.385 . S
C1351 C1350 1.374 . S
C1352 C1349 1.499 . S
C1352 C1353 1.373 1_554 S
C1352 C1354 1.389 . S
C1353 H1332 0.950 . S
C1353 C1352 1.373 1_556 S
C1353 C1369 1.377 . S
C1354 C1352 1.389 . S
C1354 C1355 1.524 . S
C1354 C1368 1.377 1_554 S
C1355 C1354 1.524 . S
C1355 C1356 1.397 . S
C1355 C1360 1.363 . S
C1356 H1333 0.950 . S
C1356 C1355 1.397 . S
C1356 C1357 1.334 . S
C1357 H1334 0.950 . S
C1357 C1356 1.334 . S
C1357 C1358 1.287 . S
C1358 C1357 1.287 . S
C1358 C1359 1.524 . S
C1358 H1377 0.913 . S
C1359 H1335 0.950 . S
C1359 C1358 1.524 . S
C1359 C1360 1.415 . S
C1360 H1336 0.950 . S
C1360 C1355 1.363 . S
C1360 C1359 1.415 . S
C1361 H1337 0.951 . S
C1361 C1362 1.366 . S
C1361 C1363 1.388 . S
C1362 C1361 1.366 . S
C1362 C1366 1.385 . S
C1363 H1338 0.951 . S
C1363 C1361 1.388 . S
C1363 C1364 1.366 . S
C1364 C1363 1.366 . S
C1364 C1365 1.414 . S
C1364 C1367 1.499 . S
C1365 H1339 0.950 . S
C1365 C1364 1.414 . S
C1365 C1366 1.374 . S
C1366 H1340 0.950 . S
C1366 C1362 1.385 . S
C1366 C1365 1.374 . S
C1367 C1364 1.499 . S
C1367 C1368 1.373 . S
C1367 C1369 1.389 . S
C1368 H1341 0.950 . S
C1368 C1354 1.377 1_556 S
C1368 C1367 1.373 . S
C1369 C1353 1.377 . S
C1369 C1367 1.389 . S
C1369 C1370 1.524 . S
C1370 C1369 1.524 . S
C1370 C1371 1.397 . S
C1370 C1375 1.363 . S
C1371 H1342 0.950 . S
C1371 C1370 1.397 . S
C1371 C1372 1.334 . S
C1372 H1343 0.950 . S
C1372 C1371 1.334 . S
C1372 C1373 1.287 . S
C1373 C1372 1.287 . S
C1373 C1374 1.524 . S
C1373 H1376 0.999 1_545 S
C1374 H1344 0.950 . S
C1374 C1373 1.524 . S
C1374 C1375 1.415 . S
C1375 H1345 0.950 . S
C1375 C1370 1.363 . S
C1375 C1374 1.415 . S
H1376 C1373 0.999 1_565 S
H1377 C1358 0.913 . S
H1378 C1396 0.951 . S
H1379 C1398 0.951 . S
H1380 C1400 0.950 . S
H1381 C1401 0.950 . S
H1382 C1403 0.950 . S
H1383 C1406 0.950 . S
H1384 C1407 0.950 . S
H1385 C1409 0.950 . S
H1386 C1410 0.950 . S
H1387 C1411 0.951 . S
H1388 C1413 0.951 . S
H1389 C1415 0.950 . S
H1390 C1416 0.950 . S
H1391 C1418 0.950 . S
H1392 C1421 0.950 . S
H1393 C1422 0.950 . S
H1394 C1424 0.950 . S
H1395 C1425 0.950 . S
C1396 H1378 0.951 . S
C1396 C1397 1.366 . S
C1396 C1398 1.388 . S
C1397 C1396 1.366 . S
C1397 C1401 1.385 . S
C1398 H1379 0.951 . S
C1398 C1396 1.388 . S
C1398 C1399 1.366 . S
C1399 C1398 1.366 . S
C1399 C1400 1.414 . S
C1399 C1402 1.499 . S
C1400 H1380 0.950 . S
C1400 C1399 1.414 . S
C1400 C1401 1.374 . S
C1401 H1381 0.950 . S
C1401 C1397 1.385 . S
C1401 C1400 1.374 . S
C1402 C1399 1.499 . S
C1402 C1403 1.373 . S
C1402 C1404 1.389 . S
C1403 H1382 0.950 . S
C1403 C1402 1.373 . S
C1403 C1419 1.377 . S
C1404 C1402 1.389 . S
C1404 C1405 1.524 . S
C1404 C1418 1.377 . S
C1405 C1404 1.524 . S
C1405 C1406 1.397 . S
C1405 C1410 1.363 . S
C1406 H1383 0.950 . S
C1406 C1405 1.397 . S
C1406 C1407 1.334 . S
C1407 H1384 0.950 . S
C1407 C1406 1.334 . S
C1407 C1408 1.287 . S
C1408 C1407 1.287 . S
C1408 C1409 1.524 . S
C1408 H1427 0.913 . S
C1409 H1385 0.950 . S
C1409 C1408 1.524 . S
C1409 C1410 1.415 . S
C1410 H1386 0.950 . S
C1410 C1405 1.363 . S
C1410 C1409 1.415 . S
C1411 H1387 0.951 . S
C1411 C1412 1.366 . S
C1411 C1413 1.388 . S
C1412 C1411 1.366 . S
C1412 C1416 1.385 . S
C1413 H1388 0.951 . S
C1413 C1411 1.388 . S
C1413 C1414 1.366 . S
C1414 C1413 1.366 . S
C1414 C1415 1.414 . S
C1414 C1417 1.499 . S
C1415 H1389 0.950 . S
C1415 C1414 1.414 . S
C1415 C1416 1.374 . S
C1416 H1390 0.950 . S
C1416 C1412 1.385 . S
C1416 C1415 1.374 . S
C1417 C1414 1.499 . S
C1417 C1418 1.373 . S
C1417 C1419 1.389 . S
C1418 H1391 0.950 . S
C1418 C1404 1.377 . S
C1418 C1417 1.373 . S
C1419 C1403 1.377 . S
C1419 C1417 1.389 . S
C1419 C1420 1.524 . S
C1420 C1419 1.524 . S
C1420 C1421 1.397 . S
C1420 C1425 1.363 . S
C1421 H1392 0.950 . S
C1421 C1420 1.397 . S
C1421 C1422 1.334 . S
C1422 H1393 0.950 . S
C1422 C1421 1.334 . S
C1422 C1423 1.287 . S
C1423 C1422 1.287 . S
C1423 C1424 1.524 . S
C1423 H1426 0.999 . S
C1424 H1394 0.950 . S
C1424 C1423 1.524 . S
C1424 C1425 1.415 . S
C1425 H1395 0.950 . S
C1425 C1420 1.363 . S
C1425 C1424 1.415 . S
H1426 C1423 0.999 . S
H1427 C1408 0.913 . S
H1428 C1446 0.951 . S
H1429 C1448 0.951 . S
H1430 C1450 0.950 . S
H1431 C1451 0.950 . S
H1432 C1453 0.950 . S
H1433 C1456 0.950 . S
H1434 C1457 0.950 . S
H1435 C1459 0.950 . S
H1436 C1460 0.950 . S
H1437 C1461 0.951 . S
H1438 C1463 0.951 . S
H1439 C1465 0.950 . S
H1440 C1466 0.950 . S
H1441 C1468 0.950 . S
H1442 C1471 0.950 . S
H1443 C1472 0.950 . S
H1444 C1474 0.950 . S
H1445 C1475 0.950 . S
C1446 H1428 0.951 . S
C1446 C1447 1.366 . S
C1446 C1448 1.388 . S
C1447 C1446 1.366 . S
C1447 C1451 1.385 . S
C1448 H1429 0.951 . S
C1448 C1446 1.388 . S
C1448 C1449 1.366 . S
C1449 C1448 1.366 . S
C1449 C1450 1.414 . S
C1449 C1452 1.499 . S
C1450 H1430 0.950 . S
C1450 C1449 1.414 . S
C1450 C1451 1.374 . S
C1451 H1431 0.950 . S
C1451 C1447 1.385 . S
C1451 C1450 1.374 . S
C1452 C1449 1.499 . S
C1452 C1453 1.373 . S
C1452 C1454 1.389 . S
C1453 H1432 0.950 . S
C1453 C1452 1.373 . S
C1453 C1469 1.377 . S
C1454 C1452 1.389 . S
C1454 C1455 1.524 . S
C1454 C1468 1.377 . S
C1455 C1454 1.524 . S
C1455 C1456 1.397 . S
C1455 C1460 1.363 . S
C1456 H1433 0.950 . S
C1456 C1455 1.397 . S
C1456 C1457 1.334 1_545 S
C1457 H1434 0.950 . S
C1457 C1456 1.334 1_565 S
C1457 C1458 1.287 1_565 S
C1458 C1457 1.287 1_545 S
C1458 C1459 1.524 . S
C1458 H1477 0.913 1_545 S
C1459 H1435 0.950 . S
C1459 C1458 1.524 . S
C1459 C1460 1.415 . S
C1460 H1436 0.950 . S
C1460 C1455 1.363 . S
C1460 C1459 1.415 . S
C1461 H1437 0.951 . S
C1461 C1462 1.366 . S
C1461 C1463 1.388 . S
C1462 C1461 1.366 . S
C1462 C1466 1.385 . S
C1463 H1438 0.951 . S
C1463 C1461 1.388 . S
C1463 C1464 1.366 . S
C1464 C1463 1.366 . S
C1464 C1465 1.414 . S
C1464 C1467 1.499 . S
C1465 H1439 0.950 . S
C1465 C1464 1.414 . S
C1465 C1466 1.374 . S
C1466 H1440 0.950 . S
C1466 C1462 1.385 . S
C1466 C1465 1.374 . S
C1467 C1464 1.499 . S
C1467 C1468 1.373 . S
C1467 C1469 1.389 . S
C1468 H1441 0.950 . S
C1468 C1454 1.377 . S
C1468 C1467 1.373 . S
C1469 C1453 1.377 . S
C1469 C1467 1.389 . S
C1469 C1470 1.524 . S
C1470 C1469 1.524 . S
C1470 C1471 1.397 . S
C1470 C1475 1.363 . S
C1471 H1442 0.950 . S
C1471 C1470 1.397 . S
C1471 C1472 1.334 . S
C1472 H1443 0.950 . S
C1472 C1471 1.334 . S
C1472 C1473 1.287 . S
C1473 C1472 1.287 . S
C1473 C1474 1.524 . S
C1473 H1476 0.999 . S
C1474 H1444 0.950 . S
C1474 C1473 1.524 . S
C1474 C1475 1.415 . S
C1475 H1445 0.950 . S
C1475 C1470 1.363 . S
C1475 C1474 1.415 . S
H1476 C1473 0.999 . S
H1477 C1458 0.913 1_565 S
H1478 C1496 0.951 . S
H1479 C1498 0.951 . S
H1480 C1500 0.950 . S
H1481 C1501 0.950 . S
H1482 C1503 0.950 . S
H1483 C1506 0.950 . S
H1484 C1507 0.950 . S
H1485 C1509 0.950 . S
H1486 C1510 0.950 . S
H1487 C1511 0.951 . S
H1488 C1513 0.951 . S
H1489 C1515 0.950 . S
H1490 C1516 0.950 . S
H1491 C1518 0.950 . S
H1492 C1521 0.950 . S
H1493 C1522 0.950 . S
H1494 C1524 0.950 . S
H1495 C1525 0.950 . S
C1496 H1478 0.951 . S
C1496 C1497 1.366 . S
C1496 C1498 1.388 . S
C1497 C1496 1.366 . S
C1497 C1501 1.385 . S
C1498 H1479 0.951 . S
C1498 C1496 1.388 . S
C1498 C1499 1.366 . S
C1499 C1498 1.366 . S
C1499 C1500 1.414 . S
C1499 C1502 1.499 . S
C1500 H1480 0.950 . S
C1500 C1499 1.414 . S
C1500 C1501 1.374 . S
C1501 H1481 0.950 . S
C1501 C1497 1.385 . S
C1501 C1500 1.374 . S
C1502 C1499 1.499 . S
C1502 C1503 1.373 . S
C1502 C1504 1.389 . S
C1503 H1482 0.950 . S
C1503 C1502 1.373 . S
C1503 C1519 1.377 . S
C1504 C1502 1.389 . S
C1504 C1505 1.524 . S
C1504 C1518 1.377 . S
C1505 C1504 1.524 . S
C1505 C1506 1.397 . S
C1505 C1510 1.363 . S
C1506 H1483 0.950 . S
C1506 C1505 1.397 . S
C1506 C1507 1.334 . S
C1507 H1484 0.950 . S
C1507 C1506 1.334 . S
C1507 C1508 1.287 . S
C1508 C1507 1.287 . S
C1508 C1509 1.524 . S
C1508 H1527 0.913 . S
C1509 H1485 0.950 . S
C1509 C1508 1.524 . S
C1509 C1510 1.415 . S
C1510 H1486 0.950 . S
C1510 C1505 1.363 . S
C1510 C1509 1.415 . S
C1511 H1487 0.951 . S
C1511 C1512 1.366 . S
C1511 C1513 1.388 . S
C1512 C1511 1.366 . S
C1512 C1516 1.385 . S
C1513 H1488 0.951 . S
C1513 C1511 1.388 . S
C1513 C1514 1.366 . S
C1514 C1513 1.366 . S
C1514 C1515 1.414 . S
C1514 C1517 1.499 . S
C1515 H1489 0.950 . S
C1515 C1514 1.414 . S
C1515 C1516 1.374 . S
C1516 H1490 0.950 . S
C1516 C1512 1.385 . S
C1516 C1515 1.374 . S
C1517 C1514 1.499 . S
C1517 C1518 1.373 . S
C1517 C1519 1.389 . S
C1518 H1491 0.950 . S
C1518 C1504 1.377 . S
C1518 C1517 1.373 . S
C1519 C1503 1.377 . S
C1519 C1517 1.389 . S
C1519 C1520 1.524 . S
C1520 C1519 1.524 . S
C1520 C1521 1.397 . S
C1520 C1525 1.363 . S
C1521 H1492 0.950 . S
C1521 C1520 1.397 . S
C1521 C1522 1.334 . S
C1522 H1493 0.950 . S
C1522 C1521 1.334 . S
C1522 C1523 1.287 . S
C1523 C1522 1.287 . S
C1523 C1524 1.524 . S
C1523 H1526 0.999 . S
C1524 H1494 0.950 . S
C1524 C1523 1.524 . S
C1524 C1525 1.415 . S
C1525 H1495 0.950 . S
C1525 C1520 1.363 . S
C1525 C1524 1.415 . S
H1526 C1523 0.999 . S
H1527 C1508 0.913 . S
H1528 C1546 0.951 . S
H1529 C1548 0.951 . S
H1530 C1550 0.950 . S
H1531 C1551 0.950 . S
H1532 C1553 0.950 . S
H1533 C1556 0.950 . S
H1534 C1557 0.950 . S
H1535 C1559 0.950 . S
H1536 C1560 0.950 . S
H1537 C1561 0.951 . S
H1538 C1563 0.951 . S
H1539 C1565 0.950 . S
H1540 C1566 0.950 . S
H1541 C1568 0.950 . S
H1542 C1571 0.950 . S
H1543 C1572 0.950 . S
H1544 C1574 0.950 . S
H1545 C1575 0.950 . S
C1546 H1528 0.951 . S
C1546 C1547 1.366 . S
C1546 C1548 1.388 . S
C1547 C1546 1.366 . S
C1547 C1551 1.385 . S
C1548 H1529 0.951 . S
C1548 C1546 1.388 . S
C1548 C1549 1.366 . S
C1549 C1548 1.366 . S
C1549 C1550 1.414 . S
C1549 C1552 1.499 . S
C1550 H1530 0.950 . S
C1550 C1549 1.414 . S
C1550 C1551 1.374 . S
C1551 H1531 0.950 . S
C1551 C1547 1.385 . S
C1551 C1550 1.374 . S
C1552 C1549 1.499 . S
C1552 C1553 1.373 . S
C1552 C1554 1.389 . S
C1553 H1532 0.950 . S
C1553 C1552 1.373 . S
C1553 C1569 1.377 . S
C1554 C1552 1.389 . S
C1554 C1555 1.524 1_655 S
C1554 C1568 1.377 . S
C1555 C1554 1.524 1_455 S
C1555 C1556 1.397 . S
C1555 C1560 1.363 . S
C1556 H1533 0.950 . S
C1556 C1555 1.397 . S
C1556 C1557 1.334 . S
C1557 H1534 0.950 . S
C1557 C1556 1.334 . S
C1557 C1558 1.287 . S
C1558 C1557 1.287 . S
C1558 C1559 1.524 . S
C1558 H1577 0.913 . S
C1559 H1535 0.950 . S
C1559 C1558 1.524 . S
C1559 C1560 1.415 . S
C1560 H1536 0.950 . S
C1560 C1555 1.363 . S
C1560 C1559 1.415 . S
C1561 H1537 0.951 . S
C1561 C1562 1.366 . S
C1561 C1563 1.388 . S
C1562 C1561 1.366 . S
C1562 C1566 1.385 . S
C1563 H1538 0.951 . S
C1563 C1561 1.388 . S
C1563 C1564 1.366 . S
C1564 C1563 1.366 . S
C1564 C1565 1.414 . S
C1564 C1567 1.499 . S
C1565 H1539 0.950 . S
C1565 C1564 1.414 . S
C1565 C1566 1.374 . S
C1566 H1540 0.950 . S
C1566 C1562 1.385 . S
C1566 C1565 1.374 . S
C1567 C1564 1.499 . S
C1567 C1568 1.373 . S
C1567 C1569 1.389 . S
C1568 H1541 0.950 . S
C1568 C1554 1.377 . S
C1568 C1567 1.373 . S
C1569 C1553 1.377 . S
C1569 C1567 1.389 . S
C1569 C1570 1.524 . S
C1570 C1569 1.524 . S
C1570 C1571 1.397 . S
C1570 C1575 1.363 . S
C1571 H1542 0.950 . S
C1571 C1570 1.397 . S
C1571 C1572 1.334 . S
C1572 H1543 0.950 . S
C1572 C1571 1.334 . S
C1572 C1573 1.287 . S
C1573 C1572 1.287 . S
C1573 C1574 1.524 . S
C1573 H1576 0.999 . S
C1574 H1544 0.950 . S
C1574 C1573 1.524 . S
C1574 C1575 1.415 . S
C1575 H1545 0.950 . S
C1575 C1570 1.363 . S
C1575 C1574 1.415 . S
H1576 C1573 0.999 . S
H1577 C1558 0.913 . S
H1578 C1596 0.945 . S
H1579 C1598 0.951 . S
H1580 C1600 0.950 . S
H1581 C1601 0.950 . S
H1582 C1603 0.950 . S
H1583 C1606 0.950 . S
H1584 C1607 0.950 . S
H1585 C1609 0.950 . S
H1586 C1610 0.950 . S
H1587 C1611 0.951 . S
H1588 C1613 0.951 . S
H1589 C1615 0.950 . S
H1590 C1616 0.950 . S
H1591 C1618 0.950 . S
H1592 C1621 0.950 . S
H1593 C1622 0.950 . S
H1594 C1624 0.950 . S
H1595 C1625 0.950 . S
C1596 H1578 0.945 . S
C1596 C1597 1.339 1_565 S
C1596 C1598 1.423 . S
C1597 C1596 1.339 1_545 S
C1597 C1601 1.385 . S
C1598 H1579 0.951 . S
C1598 C1596 1.423 . S
C1598 C1599 1.366 . S
C1599 C1598 1.366 . S
C1599 C1600 1.414 1_565 S
C1599 C1602 1.499 . S
C1600 H1580 0.950 . S
C1600 C1599 1.414 1_545 S
C1600 C1601 1.374 . S
C1601 H1581 0.950 . S
C1601 C1597 1.385 . S
C1601 C1600 1.374 . S
C1602 C1599 1.499 . S
C1602 C1603 1.373 . S
C1602 C1604 1.389 . S
C1603 H1582 0.950 . S
C1603 C1602 1.373 . S
C1603 C1619 1.377 . S
C1604 C1602 1.389 . S
C1604 C1605 1.524 . S
C1604 C1618 1.377 . S
C1605 C1604 1.524 . S
C1605 C1606 1.397 1_565 S
C1605 C1610 1.363 . S
C1606 H1583 0.950 . S
C1606 C1605 1.397 1_545 S
C1606 C1607 1.334 . S
C1607 H1584 0.950 . S
C1607 C1606 1.334 . S
C1607 C1608 1.287 . S
C1608 C1607 1.287 . S
C1608 C1609 1.524 1_545 S
C1608 H1627 0.913 . S
C1609 H1585 0.950 . S
C1609 C1608 1.524 1_565 S
C1609 C1610 1.415 . S
C1610 H1586 0.950 . S
C1610 C1605 1.363 . S
C1610 C1609 1.415 . S
C1611 H1587 0.951 . S
C1611 C1612 1.366 . S
C1611 C1613 1.388 . S
C1612 C1611 1.366 . S
C1612 C1616 1.385 . S
C1613 H1588 0.951 . S
C1613 C1611 1.388 . S
C1613 C1614 1.366 . S
C1614 C1613 1.366 . S
C1614 C1615 1.414 . S
C1614 C1617 1.499 . S
C1615 H1589 0.950 . S
C1615 C1614 1.414 . S
C1615 C1616 1.374 . S
C1616 H1590 0.950 . S
C1616 C1612 1.385 . S
C1616 C1615 1.374 . S
C1617 C1614 1.499 . S
C1617 C1618 1.373 . S
C1617 C1619 1.389 . S
C1618 H1591 0.950 . S
C1618 C1604 1.377 . S
C1618 C1617 1.373 . S
C1619 C1603 1.377 . S
C1619 C1617 1.389 . S
C1619 C1620 1.524 . S
C1620 C1619 1.524 . S
C1620 C1621 1.397 . S
C1620 C1625 1.363 . S
C1621 H1592 0.950 . S
C1621 C1620 1.397 . S
C1621 C1622 1.334 . S
C1622 H1593 0.950 . S
C1622 C1621 1.334 . S
C1622 C1623 1.287 . S
C1623 C1622 1.287 . S
C1623 C1624 1.524 . S
C1623 H1626 0.999 . S
C1624 H1594 0.950 . S
C1624 C1623 1.524 . S
C1624 C1625 1.415 . S
C1625 H1595 0.950 . S
C1625 C1620 1.363 . S
C1625 C1624 1.415 . S
H1626 C1623 0.999 . S
H1627 C1608 0.913 . S
H1628 C1646 0.951 . S
H1629 C1648 0.951 . S
H1630 C1650 0.950 . S
H1631 C1651 0.950 . S
H1632 C1653 0.950 . S
H1633 C1656 0.950 . S
H1634 C1657 0.950 . S
H1635 C1659 0.950 . S
H1636 C1660 0.950 . S
H1637 C1661 0.951 . S
H1638 C1663 0.951 . S
H1639 C1665 0.950 . S
H1640 C1666 0.950 . S
H1641 C1668 0.950 . S
H1642 C1671 0.950 . S
H1643 C1672 0.950 . S
H1644 C1674 0.950 . S
H1645 C1675 0.950 . S
C1646 H1628 0.951 . S
C1646 C1647 1.366 . S
C1646 C1648 1.388 . S
C1647 C1646 1.366 . S
C1647 C1651 1.385 . S
C1648 H1629 0.951 . S
C1648 C1646 1.388 . S
C1648 C1649 1.366 . S
C1649 C1648 1.366 . S
C1649 C1650 1.414 . S
C1649 C1652 1.499 . S
C1650 H1630 0.950 . S
C1650 C1649 1.414 . S
C1650 C1651 1.374 . S
C1651 H1631 0.950 . S
C1651 C1647 1.385 . S
C1651 C1650 1.374 . S
C1652 C1649 1.499 . S
C1652 C1653 1.373 . S
C1652 C1654 1.389 . S
C1653 H1632 0.950 . S
C1653 C1652 1.373 . S
C1653 C1669 1.377 . S
C1654 C1652 1.389 . S
C1654 C1655 1.524 . S
C1654 C1668 1.377 . S
C1655 C1654 1.524 . S
C1655 C1656 1.397 . S
C1655 C1660 1.363 . S
C1656 H1633 0.950 . S
C1656 C1655 1.397 . S
C1656 C1657 1.334 . S
C1657 H1634 0.950 . S
C1657 C1656 1.334 . S
C1657 C1658 1.287 . S
C1658 C1657 1.287 . S
C1658 C1659 1.524 . S
C1658 H1677 0.913 . S
C1659 H1635 0.950 . S
C1659 C1658 1.524 . S
C1659 C1660 1.415 . S
C1660 H1636 0.950 . S
C1660 C1655 1.363 . S
C1660 C1659 1.415 . S
C1661 H1637 0.951 . S
C1661 C1662 1.366 . S
C1661 C1663 1.388 . S
C1662 C1661 1.366 . S
C1662 C1666 1.385 . S
C1663 H1638 0.951 . S
C1663 C1661 1.388 . S
C1663 C1664 1.366 . S
C1664 C1663 1.366 . S
C1664 C1665 1.414 . S
C1664 C1667 1.499 . S
C1665 H1639 0.950 . S
C1665 C1664 1.414 . S
C1665 C1666 1.374 . S
C1666 H1640 0.950 . S
C1666 C1662 1.385 . S
C1666 C1665 1.374 . S
C1667 C1664 1.499 . S
C1667 C1668 1.373 . S
C1667 C1669 1.389 . S
C1668 H1641 0.950 . S
C1668 C1654 1.377 . S
C1668 C1667 1.373 . S
C1669 C1653 1.377 . S
C1669 C1667 1.389 . S
C1669 C1670 1.524 . S
C1670 C1669 1.524 . S
C1670 C1671 1.397 . S
C1670 C1675 1.363 . S
C1671 H1642 0.950 . S
C1671 C1670 1.397 . S
C1671 C1672 1.334 . S
C1672 H1643 0.950 . S
C1672 C1671 1.334 . S
C1672 C1673 1.287 . S
C1673 C1672 1.287 . S
C1673 C1674 1.524 . S
C1673 H1676 0.999 . S
C1674 H1644 0.950 . S
C1674 C1673 1.524 . S
C1674 C1675 1.415 . S
C1675 H1645 0.950 . S
C1675 C1670 1.363 . S
C1675 C1674 1.415 . S
H1676 C1673 0.999 . S
H1677 C1658 0.913 . S
H1678 C1696 0.951 . S
H1679 C1698 0.951 . S
H1680 C1700 0.950 . S
H1681 C1701 0.950 . S
H1682 C1703 0.950 . S
H1683 C1706 0.950 . S
H1684 C1707 0.950 . S
H1685 C1709 0.950 . S
H1686 C1710 0.950 . S
H1687 C1711 0.951 . S
H1688 C1713 0.951 . S
H1689 C1715 0.950 . S
H1690 C1716 0.950 . S
H1691 C1718 0.950 . S
H1692 C1721 0.950 . S
H1693 C1722 0.950 . S
H1694 C1724 0.950 . S
H1695 C1725 0.950 . S
C1696 H1678 0.951 . S
C1696 C1697 1.366 . S
C1696 C1698 1.388 . S
C1697 C1696 1.366 . S
C1697 C1701 1.385 . S
C1698 H1679 0.951 . S
C1698 C1696 1.388 . S
C1698 C1699 1.366 . S
C1699 C1698 1.366 . S
C1699 C1700 1.414 . S
C1699 C1702 1.499 . S
C1700 H1680 0.950 . S
C1700 C1699 1.414 . S
C1700 C1701 1.374 . S
C1701 H1681 0.950 . S
C1701 C1697 1.385 . S
C1701 C1700 1.374 . S
C1702 C1699 1.499 . S
C1702 C1703 1.373 . S
C1702 C1704 1.389 . S
C1703 H1682 0.950 . S
C1703 C1702 1.373 . S
C1703 C1719 1.377 . S
C1704 C1702 1.389 . S
C1704 C1705 1.524 . S
C1704 C1718 1.377 . S
C1705 C1704 1.524 . S
C1705 C1706 1.397 . S
C1705 C1710 1.363 . S
C1706 H1683 0.950 . S
C1706 C1705 1.397 . S
C1706 C1707 1.334 . S
C1707 H1684 0.950 . S
C1707 C1706 1.334 . S
C1707 C1708 1.287 . S
C1708 C1707 1.287 . S
C1708 C1709 1.524 . S
C1708 H1727 0.913 . S
C1709 H1685 0.950 . S
C1709 C1708 1.524 . S
C1709 C1710 1.415 . S
C1710 H1686 0.950 . S
C1710 C1705 1.363 . S
C1710 C1709 1.415 . S
C1711 H1687 0.951 . S
C1711 C1712 1.366 . S
C1711 C1713 1.388 . S
C1712 C1711 1.366 . S
C1712 C1716 1.385 . S
C1713 H1688 0.951 . S
C1713 C1711 1.388 . S
C1713 C1714 1.366 . S
C1714 C1713 1.366 . S
C1714 C1715 1.414 . S
C1714 C1717 1.499 . S
C1715 H1689 0.950 . S
C1715 C1714 1.414 . S
C1715 C1716 1.374 . S
C1716 H1690 0.950 . S
C1716 C1712 1.385 . S
C1716 C1715 1.374 . S
C1717 C1714 1.499 . S
C1717 C1718 1.373 . S
C1717 C1719 1.389 . S
C1718 H1691 0.950 . S
C1718 C1704 1.377 . S
C1718 C1717 1.373 . S
C1719 C1703 1.377 . S
C1719 C1717 1.389 . S
C1719 C1720 1.524 . S
C1720 C1719 1.524 . S
C1720 C1721 1.397 . S
C1720 C1725 1.363 . S
C1721 H1692 0.950 . S
C1721 C1720 1.397 . S
C1721 C1722 1.334 . S
C1722 H1693 0.950 . S
C1722 C1721 1.334 . S
C1722 C1723 1.287 . S
C1723 C1722 1.287 . S
C1723 C1724 1.524 . S
C1723 H1726 0.999 . S
C1724 H1694 0.950 . S
C1724 C1723 1.524 . S
C1724 C1725 1.415 . S
C1725 H1695 0.950 . S
C1725 C1720 1.363 . S
C1725 C1724 1.415 . S
H1726 C1723 0.999 . S
H1727 C1708 0.913 . S
C547 C13 2.197 . S
C562 C147 2.144 . S
C597 C27 1.350 . S
C612 C221 1.318 . S
C662 C271 1.806 . S
C647 C29 1.857 . S
C712 C357 1.219 . S
C697 C54 1.229 . S
C762 C449 1.942 . S
C747 C69 1.939 . S
C812 C493 1.890 . S
C797 C83 1.937 . S
C847 C15 1.170 . S
C862 C295 1.122 . S
C897 C41 2.601 . S
C912 C375 2.569 . S
C962 C431 1.392 . S
C947 C42 1.395 . S
C1012 C517 1.460 . S
C997 C57 1.492 . S
C1047 C71 2.153 . S
C1062 C123 2.071 . S
C1112 C197 1.916 . S
C1097 C1 1.941 . S
C1162 C369 1.862 . S
C1147 C12 2.018 . S
C1197 C26 2.168 . S
C1212 C419 2.019 . S
C1262 C523 2.351 . S
C1247 C28 2.448 . S
C1297 C55 1.426 . S
C1312 C135 1.386 . S
C1347 C68 1.934 . S
C1362 C209 1.848 . S
C1397 C82 2.477 . S
C1412 C301 2.384 . S
C1447 C14 1.936 . S
C1462 C505 1.849 . S
C1512 C153 2.248 . S
C1497 C40 2.283 . S
C1547 C43 2.422 . S
C1562 C227 2.314 . S
C1597 C56 1.660 . S
C1612 C283 1.566 . S
C1647 C70 1.623 . S
C1662 C345 1.494 . S
C1697 C0 2.108 . S
C1712 C443 1.973 . S
