# Generated by pormake.
# Topology tbo, (3,4)-cn, num edge types: 1
# Building blocks:
#     Node 0, Type 0, BuildingBlock: WUSLED_clean_sbu_0, # of connection points: 3
#     Node 1, Type 0, BuildingBlock: WUSLED_clean_sbu_0, # of connection points: 3
#     Node 2, Type 0, BuildingBlock: WUSLED_clean_sbu_0, # of connection points: 3
#     Node 3, Type 0, BuildingBlock: WUSLED_clean_sbu_0, # of connection points: 3
#     Node 4, Type 0, BuildingBlock: WUSLED_clean_sbu_0, # of connection points: 3
#     Node 5, Type 0, BuildingBlock: WUSLED_clean_sbu_0, # of connection points: 3
#     Node 6, Type 0, BuildingBlock: WUSLED_clean_sbu_0, # of connection points: 3
#     Node 7, Type 0, BuildingBlock: WUSLED_clean_sbu_0, # of connection points: 3
#     Node 8, Type 0, BuildingBlock: WUSLED_clean_sbu_0, # of connection points: 3
#     Node 9, Type 0, BuildingBlock: WUSLED_clean_sbu_0, # of connection points: 3
#     Node 10, Type 0, BuildingBlock: WUSLED_clean_sbu_0, # of connection points: 3
#     Node 11, Type 0, BuildingBlock: WUSLED_clean_sbu_0, # of connection points: 3
#     Node 12, Type 0, BuildingBlock: WUSLED_clean_sbu_0, # of connection points: 3
#     Node 13, Type 0, BuildingBlock: WUSLED_clean_sbu_0, # of connection points: 3
#     Node 14, Type 0, BuildingBlock: WUSLED_clean_sbu_0, # of connection points: 3
#     Node 15, Type 0, BuildingBlock: WUSLED_clean_sbu_0, # of connection points: 3
#     Node 16, Type 0, BuildingBlock: WUSLED_clean_sbu_0, # of connection points: 3
#     Node 17, Type 0, BuildingBlock: WUSLED_clean_sbu_0, # of connection points: 3
#     Node 18, Type 0, BuildingBlock: WUSLED_clean_sbu_0, # of connection points: 3
#     Node 19, Type 0, BuildingBlock: WUSLED_clean_sbu_0, # of connection points: 3
#     Node 20, Type 0, BuildingBlock: WUSLED_clean_sbu_0, # of connection points: 3
#     Node 21, Type 0, BuildingBlock: WUSLED_clean_sbu_0, # of connection points: 3
#     Node 22, Type 0, BuildingBlock: WUSLED_clean_sbu_0, # of connection points: 3
#     Node 23, Type 0, BuildingBlock: WUSLED_clean_sbu_0, # of connection points: 3
#     Node 24, Type 0, BuildingBlock: WUSLED_clean_sbu_0, # of connection points: 3
#     Node 25, Type 0, BuildingBlock: WUSLED_clean_sbu_0, # of connection points: 3
#     Node 26, Type 0, BuildingBlock: WUSLED_clean_sbu_0, # of connection points: 3
#     Node 27, Type 0, BuildingBlock: WUSLED_clean_sbu_0, # of connection points: 3
#     Node 28, Type 0, BuildingBlock: WUSLED_clean_sbu_0, # of connection points: 3
#     Node 29, Type 0, BuildingBlock: WUSLED_clean_sbu_0, # of connection points: 3
#     Node 30, Type 0, BuildingBlock: WUSLED_clean_sbu_0, # of connection points: 3
#     Node 31, Type 0, BuildingBlock: WUSLED_clean_sbu_0, # of connection points: 3
#     Node 32, Type 1, BuildingBlock: NAWXER_clean_linker_0, # of connection points: 4
#     Node 33, Type 1, BuildingBlock: NAWXER_clean_linker_0, # of connection points: 4
#     Node 34, Type 1, BuildingBlock: NAWXER_clean_linker_0, # of connection points: 4
#     Node 35, Type 1, BuildingBlock: NAWXER_clean_linker_0, # of connection points: 4
#     Node 36, Type 1, BuildingBlock: NAWXER_clean_linker_0, # of connection points: 4
#     Node 37, Type 1, BuildingBlock: NAWXER_clean_linker_0, # of connection points: 4
#     Node 38, Type 1, BuildingBlock: NAWXER_clean_linker_0, # of connection points: 4
#     Node 39, Type 1, BuildingBlock: NAWXER_clean_linker_0, # of connection points: 4
#     Node 40, Type 1, BuildingBlock: NAWXER_clean_linker_0, # of connection points: 4
#     Node 41, Type 1, BuildingBlock: NAWXER_clean_linker_0, # of connection points: 4
#     Node 42, Type 1, BuildingBlock: NAWXER_clean_linker_0, # of connection points: 4
#     Node 43, Type 1, BuildingBlock: NAWXER_clean_linker_0, # of connection points: 4
#     Node 44, Type 1, BuildingBlock: NAWXER_clean_linker_0, # of connection points: 4
#     Node 45, Type 1, BuildingBlock: NAWXER_clean_linker_0, # of connection points: 4
#     Node 46, Type 1, BuildingBlock: NAWXER_clean_linker_0, # of connection points: 4
#     Node 47, Type 1, BuildingBlock: NAWXER_clean_linker_0, # of connection points: 4
#     Node 48, Type 1, BuildingBlock: NAWXER_clean_linker_0, # of connection points: 4
#     Node 49, Type 1, BuildingBlock: NAWXER_clean_linker_0, # of connection points: 4
#     Node 50, Type 1, BuildingBlock: NAWXER_clean_linker_0, # of connection points: 4
#     Node 51, Type 1, BuildingBlock: NAWXER_clean_linker_0, # of connection points: 4
#     Node 52, Type 1, BuildingBlock: NAWXER_clean_linker_0, # of connection points: 4
#     Node 53, Type 1, BuildingBlock: NAWXER_clean_linker_0, # of connection points: 4
#     Node 54, Type 1, BuildingBlock: NAWXER_clean_linker_0, # of connection points: 4
#     Node 55, Type 1, BuildingBlock: NAWXER_clean_linker_0, # of connection points: 4
#     Edge 56, Type (0, 1), BuildingBlock: MIFKUJ_clean_linker_0, # of connection points: 2
#     Edge 57, Type (0, 1), BuildingBlock: MIFKUJ_clean_linker_0, # of connection points: 2
#     Edge 58, Type (0, 1), BuildingBlock: MIFKUJ_clean_linker_0, # of connection points: 2
#     Edge 59, Type (0, 1), BuildingBlock: MIFKUJ_clean_linker_0, # of connection points: 2
#     Edge 60, Type (0, 1), BuildingBlock: MIFKUJ_clean_linker_0, # of connection points: 2
#     Edge 61, Type (0, 1), BuildingBlock: MIFKUJ_clean_linker_0, # of connection points: 2
#     Edge 62, Type (0, 1), BuildingBlock: MIFKUJ_clean_linker_0, # of connection points: 2
#     Edge 63, Type (0, 1), BuildingBlock: MIFKUJ_clean_linker_0, # of connection points: 2
#     Edge 64, Type (0, 1), BuildingBlock: MIFKUJ_clean_linker_0, # of connection points: 2
#     Edge 65, Type (0, 1), BuildingBlock: MIFKUJ_clean_linker_0, # of connection points: 2
#     Edge 66, Type (0, 1), BuildingBlock: MIFKUJ_clean_linker_0, # of connection points: 2
#     Edge 67, Type (0, 1), BuildingBlock: MIFKUJ_clean_linker_0, # of connection points: 2
#     Edge 68, Type (0, 1), BuildingBlock: MIFKUJ_clean_linker_0, # of connection points: 2
#     Edge 69, Type (0, 1), BuildingBlock: MIFKUJ_clean_linker_0, # of connection points: 2
#     Edge 70, Type (0, 1), BuildingBlock: MIFKUJ_clean_linker_0, # of connection points: 2
#     Edge 71, Type (0, 1), BuildingBlock: MIFKUJ_clean_linker_0, # of connection points: 2
#     Edge 72, Type (0, 1), BuildingBlock: MIFKUJ_clean_linker_0, # of connection points: 2
#     Edge 73, Type (0, 1), BuildingBlock: MIFKUJ_clean_linker_0, # of connection points: 2
#     Edge 74, Type (0, 1), BuildingBlock: MIFKUJ_clean_linker_0, # of connection points: 2
#     Edge 75, Type (0, 1), BuildingBlock: MIFKUJ_clean_linker_0, # of connection points: 2
#     Edge 76, Type (0, 1), BuildingBlock: MIFKUJ_clean_linker_0, # of connection points: 2
#     Edge 77, Type (0, 1), BuildingBlock: MIFKUJ_clean_linker_0, # of connection points: 2
#     Edge 78, Type (0, 1), BuildingBlock: MIFKUJ_clean_linker_0, # of connection points: 2
#     Edge 79, Type (0, 1), BuildingBlock: MIFKUJ_clean_linker_0, # of connection points: 2
#     Edge 80, Type (0, 1), BuildingBlock: MIFKUJ_clean_linker_0, # of connection points: 2
#     Edge 81, Type (0, 1), BuildingBlock: MIFKUJ_clean_linker_0, # of connection points: 2
#     Edge 82, Type (0, 1), BuildingBlock: MIFKUJ_clean_linker_0, # of connection points: 2
#     Edge 83, Type (0, 1), BuildingBlock: MIFKUJ_clean_linker_0, # of connection points: 2
#     Edge 84, Type (0, 1), BuildingBlock: MIFKUJ_clean_linker_0, # of connection points: 2
#     Edge 85, Type (0, 1), BuildingBlock: MIFKUJ_clean_linker_0, # of connection points: 2
#     Edge 86, Type (0, 1), BuildingBlock: MIFKUJ_clean_linker_0, # of connection points: 2
#     Edge 87, Type (0, 1), BuildingBlock: MIFKUJ_clean_linker_0, # of connection points: 2
#     Edge 88, Type (0, 1), BuildingBlock: MIFKUJ_clean_linker_0, # of connection points: 2
#     Edge 89, Type (0, 1), BuildingBlock: MIFKUJ_clean_linker_0, # of connection points: 2
#     Edge 90, Type (0, 1), BuildingBlock: MIFKUJ_clean_linker_0, # of connection points: 2
#     Edge 91, Type (0, 1), BuildingBlock: MIFKUJ_clean_linker_0, # of connection points: 2
#     Edge 92, Type (0, 1), BuildingBlock: MIFKUJ_clean_linker_0, # of connection points: 2
#     Edge 93, Type (0, 1), BuildingBlock: MIFKUJ_clean_linker_0, # of connection points: 2
#     Edge 94, Type (0, 1), BuildingBlock: MIFKUJ_clean_linker_0, # of connection points: 2
#     Edge 95, Type (0, 1), BuildingBlock: MIFKUJ_clean_linker_0, # of connection points: 2
#     Edge 96, Type (0, 1), BuildingBlock: MIFKUJ_clean_linker_0, # of connection points: 2
#     Edge 97, Type (0, 1), BuildingBlock: MIFKUJ_clean_linker_0, # of connection points: 2
#     Edge 98, Type (0, 1), BuildingBlock: MIFKUJ_clean_linker_0, # of connection points: 2
#     Edge 99, Type (0, 1), BuildingBlock: MIFKUJ_clean_linker_0, # of connection points: 2
#     Edge 100, Type (0, 1), BuildingBlock: MIFKUJ_clean_linker_0, # of connection points: 2
#     Edge 101, Type (0, 1), BuildingBlock: MIFKUJ_clean_linker_0, # of connection points: 2
#     Edge 102, Type (0, 1), BuildingBlock: MIFKUJ_clean_linker_0, # of connection points: 2
#     Edge 103, Type (0, 1), BuildingBlock: MIFKUJ_clean_linker_0, # of connection points: 2
#     Edge 104, Type (0, 1), BuildingBlock: MIFKUJ_clean_linker_0, # of connection points: 2
#     Edge 105, Type (0, 1), BuildingBlock: MIFKUJ_clean_linker_0, # of connection points: 2
#     Edge 106, Type (0, 1), BuildingBlock: MIFKUJ_clean_linker_0, # of connection points: 2
#     Edge 107, Type (0, 1), BuildingBlock: MIFKUJ_clean_linker_0, # of connection points: 2
#     Edge 108, Type (0, 1), BuildingBlock: MIFKUJ_clean_linker_0, # of connection points: 2
#     Edge 109, Type (0, 1), BuildingBlock: MIFKUJ_clean_linker_0, # of connection points: 2
#     Edge 110, Type (0, 1), BuildingBlock: MIFKUJ_clean_linker_0, # of connection points: 2
#     Edge 111, Type (0, 1), BuildingBlock: MIFKUJ_clean_linker_0, # of connection points: 2
#     Edge 112, Type (0, 1), BuildingBlock: MIFKUJ_clean_linker_0, # of connection points: 2
#     Edge 113, Type (0, 1), BuildingBlock: MIFKUJ_clean_linker_0, # of connection points: 2
#     Edge 114, Type (0, 1), BuildingBlock: MIFKUJ_clean_linker_0, # of connection points: 2
#     Edge 115, Type (0, 1), BuildingBlock: MIFKUJ_clean_linker_0, # of connection points: 2
#     Edge 116, Type (0, 1), BuildingBlock: MIFKUJ_clean_linker_0, # of connection points: 2
#     Edge 117, Type (0, 1), BuildingBlock: MIFKUJ_clean_linker_0, # of connection points: 2
#     Edge 118, Type (0, 1), BuildingBlock: MIFKUJ_clean_linker_0, # of connection points: 2
#     Edge 119, Type (0, 1), BuildingBlock: MIFKUJ_clean_linker_0, # of connection points: 2
#     Edge 120, Type (0, 1), BuildingBlock: MIFKUJ_clean_linker_0, # of connection points: 2
#     Edge 121, Type (0, 1), BuildingBlock: MIFKUJ_clean_linker_0, # of connection points: 2
#     Edge 122, Type (0, 1), BuildingBlock: MIFKUJ_clean_linker_0, # of connection points: 2
#     Edge 123, Type (0, 1), BuildingBlock: MIFKUJ_clean_linker_0, # of connection points: 2
#     Edge 124, Type (0, 1), BuildingBlock: MIFKUJ_clean_linker_0, # of connection points: 2
#     Edge 125, Type (0, 1), BuildingBlock: MIFKUJ_clean_linker_0, # of connection points: 2
#     Edge 126, Type (0, 1), BuildingBlock: MIFKUJ_clean_linker_0, # of connection points: 2
#     Edge 127, Type (0, 1), BuildingBlock: MIFKUJ_clean_linker_0, # of connection points: 2
#     Edge 128, Type (0, 1), BuildingBlock: MIFKUJ_clean_linker_0, # of connection points: 2
#     Edge 129, Type (0, 1), BuildingBlock: MIFKUJ_clean_linker_0, # of connection points: 2
#     Edge 130, Type (0, 1), BuildingBlock: MIFKUJ_clean_linker_0, # of connection points: 2
#     Edge 131, Type (0, 1), BuildingBlock: MIFKUJ_clean_linker_0, # of connection points: 2
#     Edge 132, Type (0, 1), BuildingBlock: MIFKUJ_clean_linker_0, # of connection points: 2
#     Edge 133, Type (0, 1), BuildingBlock: MIFKUJ_clean_linker_0, # of connection points: 2
#     Edge 134, Type (0, 1), BuildingBlock: MIFKUJ_clean_linker_0, # of connection points: 2
#     Edge 135, Type (0, 1), BuildingBlock: MIFKUJ_clean_linker_0, # of connection points: 2
#     Edge 136, Type (0, 1), BuildingBlock: MIFKUJ_clean_linker_0, # of connection points: 2
#     Edge 137, Type (0, 1), BuildingBlock: MIFKUJ_clean_linker_0, # of connection points: 2
#     Edge 138, Type (0, 1), BuildingBlock: MIFKUJ_clean_linker_0, # of connection points: 2
#     Edge 139, Type (0, 1), BuildingBlock: MIFKUJ_clean_linker_0, # of connection points: 2
#     Edge 140, Type (0, 1), BuildingBlock: MIFKUJ_clean_linker_0, # of connection points: 2
#     Edge 141, Type (0, 1), BuildingBlock: MIFKUJ_clean_linker_0, # of connection points: 2
#     Edge 142, Type (0, 1), BuildingBlock: MIFKUJ_clean_linker_0, # of connection points: 2
#     Edge 143, Type (0, 1), BuildingBlock: MIFKUJ_clean_linker_0, # of connection points: 2
#     Edge 144, Type (0, 1), BuildingBlock: MIFKUJ_clean_linker_0, # of connection points: 2
#     Edge 145, Type (0, 1), BuildingBlock: MIFKUJ_clean_linker_0, # of connection points: 2
#     Edge 146, Type (0, 1), BuildingBlock: MIFKUJ_clean_linker_0, # of connection points: 2
#     Edge 147, Type (0, 1), BuildingBlock: MIFKUJ_clean_linker_0, # of connection points: 2
#     Edge 148, Type (0, 1), BuildingBlock: MIFKUJ_clean_linker_0, # of connection points: 2
#     Edge 149, Type (0, 1), BuildingBlock: MIFKUJ_clean_linker_0, # of connection points: 2
#     Edge 150, Type (0, 1), BuildingBlock: MIFKUJ_clean_linker_0, # of connection points: 2
#     Edge 151, Type (0, 1), BuildingBlock: MIFKUJ_clean_linker_0, # of connection points: 2
# Relax obj value: 0.000
# Max RMSD: 0.012
# Mean RMSD: 0.006
data_MOF--net-tbo--node1-WUSLED_clean_sbu_0--node2-NAWXER_clean_linker_0--edge1-MIFKUJ_clean_linker_0
_symmetry_space_group_name_H-M    P1
_symmetry_Int_Tables_number       1
_symmetry_cell_setting            triclinic
loop_
_symmetry_equiv_pos_as_xyz
'x, y, z'
_cell_length_a     130.27987
_cell_length_b     130.54808
_cell_length_c     130.43429
_cell_angle_alpha  89.71564
_cell_angle_beta   90.316885
_cell_angle_gamma 90.706828
loop_
_atom_site_label
_atom_site_type_symbol
_atom_site_fract_x
_atom_site_fract_y
_atom_site_fract_z
_atom_type_partial_charge
C0 C 0.18165 0.15351 0.19517 0.0
C1 C 0.18611 0.1467 0.18822 0.0
C2 C 0.19229 0.13607 0.20239 0.0
C3 C 0.19137 0.13807 0.1918 0.0
C4 C 0.18799 0.14306 0.20929 0.0
C5 C 0.18272 0.15165 0.20572 0.0
U6 U 0.17573 0.17636 0.17716 0.0
O7 O 0.16074 0.18153 0.17126 0.0
O8 O 0.17008 0.19165 0.18106 0.0
C9 C 0.16123 0.19019 0.17636 0.0
C10 C 0.1755 0.16234 0.19172 0.0
C11 C 0.15194 0.19297 0.18212 0.0
C12 C 0.14263 0.1951 0.1981 0.0
C13 C 0.15136 0.19188 0.19283 0.0
C14 C 0.13485 0.20029 0.18203 0.0
C15 C 0.13427 0.19939 0.19277 0.0
C16 C 0.14358 0.19712 0.17678 0.0
C17 C 0.19373 0.18271 0.1545 0.0
C18 C 0.18992 0.19327 0.13954 0.0
C19 C 0.2075 0.18877 0.14341 0.0
C20 C 0.20418 0.18329 0.15204 0.0
C21 C 0.20041 0.1938 0.13701 0.0
C22 C 0.18661 0.18781 0.14823 0.0
C23 C 0.19051 0.1766 0.16351 0.0
O24 O 0.17979 0.17144 0.19285 0.0
O25 O 0.17053 0.16133 0.18297 0.0
O26 O 0.18203 0.17112 0.1625 0.0
O27 O 0.19127 0.1812 0.17242 0.0
H28 H 0.18541 0.14797 0.18004 0.0
H29 H 0.19449 0.13283 0.18625 0.0
H30 H 0.18871 0.14192 0.21749 0.0
H31 H 0.17938 0.15682 0.21122 0.0
H32 H 0.14239 0.19419 0.20636 0.0
H33 H 0.15769 0.18863 0.19712 0.0
H34 H 0.12863 0.20367 0.17768 0.0
H35 H 0.14388 0.19807 0.16853 0.0
H36 H 0.18427 0.19715 0.13485 0.0
H37 H 0.21561 0.18889 0.14163 0.0
H38 H 0.2098 0.17939 0.15676 0.0
H39 H 0.1785 0.18752 0.15001 0.0
C40 C 0.82334 0.18152 0.154 0.0
C41 C 0.8238 0.19228 0.15381 0.0
C42 C 0.81681 0.19245 0.13644 0.0
C43 C 0.82051 0.1977 0.14513 0.0
C44 C 0.81653 0.18168 0.13661 0.0
C45 C 0.81973 0.17628 0.14532 0.0
U46 U 0.84086 0.1769 0.17723 0.0
O47 O 0.83696 0.17209 0.19295 0.0
O48 O 0.84688 0.1625 0.18353 0.0
C49 C 0.84174 0.16333 0.19213 0.0
C50 C 0.8264 0.17563 0.16318 0.0
C51 C 0.83585 0.1542 0.19542 0.0
C52 C 0.82456 0.13967 0.1918 0.0
C53 C 0.83002 0.14836 0.18845 0.0
C54 C 0.83058 0.14268 0.20915 0.0
C55 C 0.82477 0.13674 0.2022 0.0
C56 C 0.83607 0.15131 0.20578 0.0
C57 C 0.86346 0.19531 0.18257 0.0
C58 C 0.87951 0.1919 0.19152 0.0
C59 C 0.87339 0.20929 0.19009 0.0
C60 C 0.86478 0.20578 0.18464 0.0
C61 C 0.8809 0.20241 0.19352 0.0
C62 C 0.87085 0.18837 0.18614 0.0
C63 C 0.85446 0.19189 0.1765 0.0
O64 O 0.83515 0.17077 0.16252 0.0
O65 O 0.82515 0.18015 0.17206 0.0
O66 O 0.8455 0.19275 0.18097 0.0
O67 O 0.85542 0.18327 0.17144 0.0
H68 H 0.82665 0.19651 0.16038 0.0
H69 H 0.82093 0.20599 0.14518 0.0
H70 H 0.81363 0.17742 0.13008 0.0
H71 H 0.81931 0.16798 0.14531 0.0
H72 H 0.82008 0.13532 0.18629 0.0
H73 H 0.8297 0.15052 0.18042 0.0
H74 H 0.83101 0.14057 0.21718 0.0
H75 H 0.84052 0.15573 0.21128 0.0
H76 H 0.88511 0.1864 0.19416 0.0
H77 H 0.87429 0.21744 0.19142 0.0
H78 H 0.85919 0.21126 0.18195 0.0
H79 H 0.86998 0.18024 0.18472 0.0
C80 C 0.82316 0.8351 0.15417 0.0
C81 C 0.83035 0.8299 0.1482 0.0
C82 C 0.8167 0.82392 0.1367 0.0
C83 C 0.82715 0.82439 0.13951 0.0
C84 C 0.80954 0.82906 0.1428 0.0
C85 C 0.81275 0.83459 0.15142 0.0
U86 U 0.84062 0.84119 0.17744 0.0
O87 O 0.84603 0.85612 0.18322 0.0
O88 O 0.83623 0.84631 0.19287 0.0
C89 C 0.8408 0.85527 0.19179 0.0
C90 C 0.82627 0.84125 0.16317 0.0
C91 C 0.83481 0.86427 0.19492 0.0
C92 C 0.82532 0.8798 0.19104 0.0
C93 C 0.83051 0.87107 0.18774 0.0
C94 C 0.82846 0.87492 0.2087 0.0
C95 C 0.82431 0.8819 0.20158 0.0
C96 C 0.83366 0.86624 0.2054 0.0
C97 C 0.86357 0.82374 0.18386 0.0
C98 C 0.87952 0.8276 0.19298 0.0
C99 C 0.87361 0.81002 0.19145 0.0
C100 C 0.86501 0.8133 0.18594 0.0
C101 C 0.88102 0.81711 0.19499 0.0
C102 C 0.87086 0.83089 0.1875 0.0
C103 C 0.85461 0.82684 0.1776 0.0
O104 O 0.82508 0.83679 0.17215 0.0
O105 O 0.83493 0.84646 0.16242 0.0
O106 O 0.85552 0.83542 0.17232 0.0
O107 O 0.84558 0.82571 0.18194 0.0
H108 H 0.83843 0.83013 0.15021 0.0
H109 H 0.83285 0.82044 0.13506 0.0
H110 H 0.80147 0.82898 0.14079 0.0
H111 H 0.80708 0.83856 0.15591 0.0
H112 H 0.82229 0.88502 0.18533 0.0
H113 H 0.83127 0.8697 0.1796 0.0
H114 H 0.82767 0.87615 0.21686 0.0
H115 H 0.83687 0.86108 0.21107 0.0
H116 H 0.88502 0.83327 0.19568 0.0
H117 H 0.87458 0.80188 0.19274 0.0
H118 H 0.85951 0.80764 0.18317 0.0
H119 H 0.86992 0.839 0.18606 0.0
C120 C 0.15343 0.82338 0.18217 0.0
C121 C 0.15226 0.82586 0.19256 0.0
C122 C 0.13563 0.81705 0.19291 0.0
C123 C 0.14346 0.82269 0.1979 0.0
C124 C 0.1368 0.81472 0.18246 0.0
C125 C 0.14562 0.81784 0.17717 0.0
U126 U 0.17689 0.84083 0.1772 0.0
O127 O 0.19265 0.83669 0.1729 0.0
O128 O 0.18339 0.84623 0.16259 0.0
C129 C 0.19197 0.84117 0.16388 0.0
C130 C 0.16276 0.82631 0.17644 0.0
C131 C 0.19542 0.83512 0.15506 0.0
C132 C 0.19201 0.82379 0.14064 0.0
C133 C 0.18856 0.82907 0.14927 0.0
C134 C 0.20922 0.83035 0.14364 0.0
C135 C 0.20238 0.82444 0.13765 0.0
C136 C 0.20577 0.83563 0.15223 0.0
C137 C 0.18181 0.86433 0.19432 0.0
C138 C 0.19778 0.87416 0.19535 0.0
C139 C 0.18226 0.8809 0.20274 0.0
C140 C 0.17684 0.87215 0.19959 0.0
C141 C 0.19281 0.88201 0.20069 0.0
C142 C 0.19232 0.86541 0.19215 0.0
C143 C 0.17589 0.85513 0.19126 0.0
O144 O 0.16222 0.83482 0.17106 0.0
O145 O 0.17152 0.82534 0.18139 0.0
O146 O 0.18037 0.84628 0.19278 0.0
O147 O 0.17111 0.85571 0.18238 0.0
H148 H 0.15817 0.8302 0.19656 0.0
H149 H 0.14274 0.82471 0.2059 0.0
H150 H 0.13099 0.81029 0.17842 0.0
H151 H 0.14638 0.81584 0.16916 0.0
H152 H 0.1865 0.81939 0.13617 0.0
H153 H 0.18053 0.82856 0.15135 0.0
H154 H 0.21729 0.83088 0.1417 0.0
H155 H 0.21119 0.84021 0.15663 0.0
H156 H 0.20587 0.87482 0.19355 0.0
H157 H 0.17822 0.88672 0.20695 0.0
H158 H 0.16874 0.87145 0.20135 0.0
H159 H 0.1963 0.85948 0.18802 0.0
C160 C 0.15435 0.82245 0.83765 0.0
C161 C 0.14818 0.82951 0.8324 0.0
C162 C 0.13668 0.81568 0.82685 0.0
C163 C 0.1394 0.82616 0.82707 0.0
C164 C 0.14302 0.80865 0.83202 0.0
C165 C 0.15174 0.81201 0.83737 0.0
U166 U 0.17694 0.84091 0.84256 0.0
O167 O 0.18338 0.84663 0.85708 0.0
O168 O 0.19291 0.83746 0.84687 0.0
C169 C 0.1921 0.84182 0.85589 0.0
C170 C 0.16354 0.82575 0.84344 0.0
C171 C 0.19556 0.83566 0.86471 0.0
C172 C 0.19213 0.82365 0.87862 0.0
C173 C 0.18873 0.82923 0.87008 0.0
C174 C 0.20926 0.83069 0.87635 0.0
C175 C 0.20243 0.82434 0.88187 0.0
C176 C 0.20584 0.83631 0.86787 0.0
C177 C 0.18092 0.8644 0.8252 0.0
C178 C 0.19683 0.87419 0.82344 0.0
C179 C 0.18084 0.88125 0.81721 0.0
C180 C 0.1756 0.87241 0.82046 0.0
C181 C 0.19152 0.88222 0.81859 0.0
C182 C 0.19156 0.86538 0.82676 0.0
C183 C 0.17524 0.85507 0.8283 0.0
O184 O 0.17227 0.82516 0.8385 0.0
O185 O 0.16269 0.83422 0.84876 0.0
O186 O 0.17051 0.85552 0.83716 0.0
O187 O 0.17997 0.84635 0.82688 0.0
H188 H 0.1501 0.8376 0.83248 0.0
H189 H 0.13467 0.8318 0.82327 0.0
H190 H 0.1413 0.80052 0.83185 0.0
H191 H 0.15646 0.80644 0.84131 0.0
H192 H 0.18671 0.81873 0.88263 0.0
H193 H 0.18077 0.82857 0.86771 0.0
H194 H 0.21721 0.83149 0.87872 0.0
H195 H 0.21122 0.84124 0.86382 0.0
H196 H 0.20503 0.87476 0.82472 0.0
H197 H 0.17655 0.88724 0.81341 0.0
H198 H 0.16739 0.8718 0.81919 0.0
H199 H 0.19581 0.85931 0.83049 0.0
C200 C 0.15218 0.18164 0.82471 0.0
C201 C 0.15279 0.19227 0.82292 0.0
C202 C 0.13458 0.19262 0.81839 0.0
C203 C 0.14409 0.19768 0.81976 0.0
C204 C 0.13397 0.18203 0.82039 0.0
C205 C 0.14267 0.17661 0.82348 0.0
U206 U 0.17629 0.17537 0.84094 0.0
O207 O 0.1822 0.16038 0.84577 0.0
O208 O 0.19152 0.17036 0.83582 0.0
C209 C 0.19054 0.16131 0.84019 0.0
C210 C 0.16137 0.17553 0.82727 0.0
C211 C 0.19337 0.15241 0.83384 0.0
C212 C 0.18925 0.13627 0.82537 0.0
C213 C 0.18615 0.14489 0.83087 0.0
C214 C 0.20677 0.14266 0.82554 0.0
C215 C 0.19961 0.13502 0.82269 0.0
C216 C 0.20368 0.15123 0.83107 0.0
C217 C 0.18355 0.19237 0.86419 0.0
C218 C 0.19198 0.18849 0.88046 0.0
C219 C 0.1921 0.20589 0.87395 0.0
C220 C 0.18651 0.20268 0.86533 0.0
C221 C 0.19482 0.19886 0.88168 0.0
C222 C 0.18643 0.18527 0.87179 0.0
C223 C 0.17703 0.18942 0.85532 0.0
O224 O 0.17038 0.17994 0.82579 0.0
O225 O 0.16095 0.17011 0.83579 0.0
O226 O 0.17171 0.18083 0.85615 0.0
O227 O 0.18108 0.19075 0.84619 0.0
H228 H 0.16 0.19638 0.82383 0.0
H229 H 0.14481 0.20585 0.8184 0.0
H230 H 0.12681 0.17786 0.81929 0.0
H231 H 0.142 0.16842 0.82473 0.0
H232 H 0.18352 0.13058 0.8232 0.0
H233 H 0.17813 0.14562 0.83286 0.0
H234 H 0.21482 0.14189 0.82373 0.0
H235 H 0.2094 0.15689 0.83333 0.0
H236 H 0.19405 0.18286 0.88621 0.0
H237 H 0.19405 0.21394 0.87469 0.0
H238 H 0.18433 0.20831 0.85961 0.0
H239 H 0.1843 0.17726 0.87111 0.0
C240 C 0.82168 0.15453 0.8379 0.0
C241 C 0.82875 0.14821 0.83297 0.0
C242 C 0.81477 0.13725 0.82671 0.0
C243 C 0.82532 0.13962 0.82746 0.0
C244 C 0.80774 0.1437 0.83156 0.0
C245 C 0.81117 0.15223 0.83711 0.0
U246 U 0.84024 0.1769 0.84372 0.0
O247 O 0.83696 0.19257 0.84876 0.0
O248 O 0.84615 0.18246 0.85857 0.0
C249 C 0.84152 0.19131 0.85769 0.0
C250 C 0.82507 0.16345 0.84403 0.0
C251 C 0.83578 0.19468 0.86676 0.0
C252 C 0.82003 0.19591 0.87662 0.0
C253 C 0.82532 0.19231 0.86805 0.0
C254 C 0.83564 0.20411 0.88278 0.0
C255 C 0.82512 0.20193 0.88406 0.0
C256 C 0.8409 0.20054 0.87422 0.0
C257 C 0.86363 0.1815 0.82623 0.0
C258 C 0.87365 0.19727 0.82442 0.0
C259 C 0.88017 0.18137 0.81771 0.0
C260 C 0.87138 0.1762 0.82118 0.0
C261 C 0.88139 0.192 0.81917 0.0
C262 C 0.86486 0.19206 0.82793 0.0
C263 C 0.85424 0.17588 0.82934 0.0
O264 O 0.83361 0.16236 0.84933 0.0
O265 O 0.82441 0.17241 0.83946 0.0
O266 O 0.84554 0.18077 0.82819 0.0
O267 O 0.85481 0.17074 0.83801 0.0
H268 H 0.8369 0.14988 0.8334 0.0
H269 H 0.83093 0.13488 0.82371 0.0
H270 H 0.79958 0.14204 0.83124 0.0
H271 H 0.8056 0.15701 0.84087 0.0
H272 H 0.81192 0.19414 0.8773 0.0
H273 H 0.82124 0.18776 0.86238 0.0
H274 H 0.83987 0.20854 0.88843 0.0
H275 H 0.84898 0.2024 0.8734 0.0
H276 H 0.87427 0.20545 0.82561 0.0
H277 H 0.88604 0.17701 0.8139 0.0
H278 H 0.8706 0.16804 0.81985 0.0
H279 H 0.85898 0.19631 0.83184 0.0
C280 C 0.83742 0.86595 0.82424 0.0
C281 C 0.82683 0.86672 0.82599 0.0
C282 C 0.82655 0.88333 0.81726 0.0
C283 C 0.82144 0.87533 0.82253 0.0
C284 C 0.83721 0.88256 0.81574 0.0
C285 C 0.84256 0.87397 0.81917 0.0
U286 U 0.84291 0.84265 0.84177 0.0
O287 O 0.84806 0.82724 0.8376 0.0
O288 O 0.85784 0.83701 0.84731 0.0
C289 C 0.85703 0.82843 0.84214 0.0
C290 C 0.84328 0.85682 0.82737 0.0
C291 C 0.86614 0.82552 0.83617 0.0
C292 C 0.87531 0.82385 0.82005 0.0
C293 C 0.86669 0.82704 0.82552 0.0
C294 C 0.88303 0.81778 0.83583 0.0
C295 C 0.88359 0.81916 0.82514 0.0
C296 C 0.8744 0.82091 0.84127 0.0
C297 C 0.82547 0.83701 0.86511 0.0
C298 C 0.8229 0.82094 0.87439 0.0
C299 C 0.8176 0.8369 0.88198 0.0
C300 C 0.82111 0.84224 0.87334 0.0
C301 C 0.81833 0.82616 0.88259 0.0
C302 C 0.82645 0.82632 0.86574 0.0
C303 C 0.8286 0.8429 0.85591 0.0
O304 O 0.84849 0.8576 0.83599 0.0
O305 O 0.83863 0.84789 0.82629 0.0
O306 O 0.82742 0.83832 0.84702 0.0
O307 O 0.83727 0.84811 0.85666 0.0
H308 H 0.8227 0.86062 0.82993 0.0
H309 H 0.81324 0.8756 0.82378 0.0
H310 H 0.84146 0.88864 0.81191 0.0
H311 H 0.85074 0.87356 0.81779 0.0
H312 H 0.87553 0.82514 0.81184 0.0
H313 H 0.86043 0.83064 0.82142 0.0
H314 H 0.88919 0.81408 0.83999 0.0
H315 H 0.87414 0.81964 0.84948 0.0
H316 H 0.82353 0.81268 0.87455 0.0
H317 H 0.81433 0.84121 0.88821 0.0
H318 H 0.82032 0.85049 0.87304 0.0
H319 H 0.82982 0.8221 0.85949 0.0
C320 C 0.1801 0.65235 0.69354 0.0
C321 C 0.19071 0.65162 0.69185 0.0
C322 C 0.19086 0.63474 0.70003 0.0
C323 C 0.19604 0.64291 0.6951 0.0
C324 C 0.1802 0.63548 0.70153 0.0
C325 C 0.1749 0.64419 0.69833 0.0
U326 U 0.17498 0.6761 0.6766 0.0
O327 O 0.16028 0.68241 0.67131 0.0
O328 O 0.17041 0.6916 0.68125 0.0
C329 C 0.16137 0.6908 0.67678 0.0
C330 C 0.17432 0.66162 0.69068 0.0
C331 C 0.15245 0.69392 0.68298 0.0
C332 C 0.13607 0.69026 0.69125 0.0
C333 C 0.14468 0.68693 0.68585 0.0
C334 C 0.14299 0.70755 0.69122 0.0
C335 C 0.1351 0.70063 0.69396 0.0
C336 C 0.15154 0.70423 0.68577 0.0
C337 C 0.19273 0.68177 0.6535 0.0
C338 C 0.18954 0.69381 0.63955 0.0
C339 C 0.2061 0.68572 0.64113 0.0
C340 C 0.20272 0.68047 0.64987 0.0
C341 C 0.19954 0.69239 0.63578 0.0
C342 C 0.18616 0.68854 0.64834 0.0
C343 C 0.18934 0.67576 0.6625 0.0
O344 O 0.17912 0.67044 0.69196 0.0
O345 O 0.16906 0.66115 0.68207 0.0
O346 O 0.18048 0.67091 0.6616 0.0
O347 O 0.19062 0.68014 0.67148 0.0
H348 H 0.19488 0.6578 0.68811 0.0
H349 H 0.20422 0.64254 0.69372 0.0
H350 H 0.17598 0.62941 0.7054 0.0
H351 H 0.16673 0.64462 0.69973 0.0
H352 H 0.13019 0.68471 0.69334 0.0
H353 H 0.14519 0.67891 0.68385 0.0
H354 H 0.14244 0.71561 0.69307 0.0
H355 H 0.15741 0.70978 0.6836 0.0
H356 H 0.18425 0.69883 0.63561 0.0
H357 H 0.21391 0.68458 0.63859 0.0
H358 H 0.20792 0.67532 0.65377 0.0
H359 H 0.17841 0.68966 0.65104 0.0
C360 C 0.82278 0.68107 0.65403 0.0
C361 C 0.82492 0.6916 0.65308 0.0
C362 C 0.81623 0.692 0.63649 0.0
C363 C 0.82163 0.69703 0.64441 0.0
C364 C 0.8142 0.68143 0.63745 0.0
C365 C 0.81743 0.67603 0.64615 0.0
U366 U 0.84082 0.67678 0.67686 0.0
O367 O 0.83749 0.6717 0.69259 0.0
O368 O 0.84737 0.66243 0.68281 0.0
C369 C 0.84243 0.66305 0.69154 0.0
C370 C 0.82609 0.6752 0.66311 0.0
C371 C 0.83687 0.65371 0.69482 0.0
C372 C 0.82117 0.64355 0.69633 0.0
C373 C 0.82635 0.65233 0.69279 0.0
C374 C 0.83702 0.63734 0.70374 0.0
C375 C 0.82642 0.63597 0.70193 0.0
C376 C 0.84216 0.64613 0.70024 0.0
C377 C 0.86306 0.69565 0.68175 0.0
C378 C 0.87798 0.6923 0.6925 0.0
C379 C 0.87432 0.70964 0.68704 0.0
C380 C 0.86563 0.7061 0.68175 0.0
C381 C 0.88068 0.70278 0.6924 0.0
C382 C 0.86923 0.68877 0.68724 0.0
C383 C 0.85402 0.69211 0.67587 0.0
O384 O 0.83494 0.67057 0.66226 0.0
O385 O 0.82493 0.67972 0.67201 0.0
O386 O 0.84517 0.6927 0.68062 0.0
O387 O 0.85509 0.68352 0.67078 0.0
H388 H 0.82913 0.69563 0.65905 0.0
H389 H 0.82341 0.70514 0.64384 0.0
H390 H 0.80996 0.67735 0.63155 0.0
H391 H 0.81572 0.66791 0.64674 0.0
H392 H 0.813 0.64281 0.69487 0.0
H393 H 0.82212 0.65808 0.68857 0.0
H394 H 0.84136 0.63159 0.70784 0.0
H395 H 0.8503 0.64703 0.70182 0.0
H396 H 0.88272 0.68678 0.69646 0.0
H397 H 0.87603 0.71778 0.68695 0.0
H398 H 0.86092 0.71154 0.67762 0.0
H399 H 0.86735 0.68066 0.68738 0.0
C400 C 0.82398 0.33737 0.65281 0.0
C401 C 0.82532 0.32673 0.65218 0.0
C402 C 0.81695 0.32645 0.63537 0.0
C403 C 0.82183 0.32132 0.64355 0.0
C404 C 0.81585 0.33715 0.63598 0.0
C405 C 0.81931 0.34252 0.64461 0.0
U406 U 0.84118 0.34265 0.67649 0.0
O407 O 0.84695 0.35748 0.68234 0.0
O408 O 0.83683 0.34786 0.69185 0.0
C409 C 0.84152 0.35677 0.69079 0.0
C410 C 0.82709 0.34325 0.66198 0.0
C411 C 0.83565 0.36597 0.69363 0.0
C412 C 0.8196 0.37447 0.69757 0.0
C413 C 0.82487 0.36581 0.69424 0.0
C414 C 0.83573 0.38366 0.69947 0.0
C415 C 0.82497 0.38348 0.70028 0.0
C416 C 0.841 0.37499 0.69622 0.0
C417 C 0.86372 0.32464 0.68277 0.0
C418 C 0.87865 0.32821 0.69357 0.0
C419 C 0.87477 0.3108 0.68839 0.0
C420 C 0.86615 0.31421 0.68301 0.0
C421 C 0.88122 0.31775 0.69366 0.0
C422 C 0.86997 0.33162 0.68818 0.0
C423 C 0.85484 0.32798 0.67658 0.0
O424 O 0.82567 0.33873 0.6709 0.0
O425 O 0.8359 0.34823 0.66139 0.0
O426 O 0.85599 0.33661 0.67144 0.0
O427 O 0.8458 0.32704 0.68093 0.0
H428 H 0.82894 0.32258 0.65842 0.0
H429 H 0.82274 0.31309 0.64339 0.0
H430 H 0.81233 0.3414 0.62977 0.0
H431 H 0.81825 0.35073 0.64491 0.0
H432 H 0.8113 0.37411 0.69799 0.0
H433 H 0.82052 0.35897 0.69224 0.0
H434 H 0.84012 0.39042 0.70161 0.0
H435 H 0.84931 0.37529 0.69587 0.0
H436 H 0.88346 0.3338 0.69746 0.0
H437 H 0.87637 0.30268 0.68845 0.0
H438 H 0.8614 0.30869 0.67893 0.0
H439 H 0.86823 0.33972 0.68813 0.0
C440 C 0.1529 0.32428 0.68234 0.0
C441 C 0.15259 0.32507 0.69308 0.0
C442 C 0.13546 0.31724 0.69329 0.0
C443 C 0.14396 0.32157 0.6985 0.0
C444 C 0.13576 0.3167 0.68252 0.0
C445 C 0.14439 0.32015 0.67713 0.0
U446 U 0.17645 0.34168 0.67699 0.0
O447 O 0.19184 0.33759 0.67167 0.0
O448 O 0.18216 0.34751 0.66215 0.0
C449 C 0.19067 0.34224 0.66278 0.0
C450 C 0.16203 0.32744 0.6764 0.0
C451 C 0.19349 0.33639 0.65355 0.0
C452 C 0.19714 0.32034 0.64492 0.0
C453 C 0.19383 0.32562 0.6536 0.0
C454 C 0.19952 0.33644 0.63592 0.0
C455 C 0.20008 0.32569 0.63599 0.0
C456 C 0.19629 0.34172 0.64461 0.0
C457 C 0.18297 0.36429 0.6949 0.0
C458 C 0.1921 0.38025 0.69114 0.0
C459 C 0.19076 0.37424 0.70868 0.0
C460 C 0.18517 0.36566 0.70534 0.0
C461 C 0.19423 0.38169 0.70163 0.0
C462 C 0.18656 0.37161 0.6878 0.0
C463 C 0.17665 0.35536 0.69171 0.0
O464 O 0.16136 0.33619 0.67144 0.0
O465 O 0.17101 0.32613 0.68085 0.0
O466 O 0.181 0.34637 0.69261 0.0
O467 O 0.1713 0.35637 0.68319 0.0
H468 H 0.15906 0.32827 0.69728 0.0
H469 H 0.14404 0.32205 0.70678 0.0
H470 H 0.1293 0.31362 0.67821 0.0
H471 H 0.14445 0.31953 0.66884 0.0
H472 H 0.19736 0.31205 0.64519 0.0
H473 H 0.19165 0.3213 0.66037 0.0
H474 H 0.20183 0.34081 0.62922 0.0
H475 H 0.19612 0.35002 0.6444 0.0
H476 H 0.19476 0.38579 0.68551 0.0
H477 H 0.19216 0.37516 0.71682 0.0
H478 H 0.18245 0.36013 0.71095 0.0
H479 H 0.18503 0.37072 0.67968 0.0
C480 C 0.1542 0.32351 0.33781 0.0
C481 C 0.15317 0.32553 0.32727 0.0
C482 C 0.13631 0.31721 0.32712 0.0
C483 C 0.14433 0.32236 0.32196 0.0
C484 C 0.13733 0.31537 0.33772 0.0
C485 C 0.1462 0.31847 0.34299 0.0
U486 U 0.17751 0.3411 0.34238 0.0
O487 O 0.18432 0.34665 0.3568 0.0
O488 O 0.19343 0.3372 0.34647 0.0
C489 C 0.1929 0.34164 0.35547 0.0
C490 C 0.16358 0.32645 0.34351 0.0
C491 C 0.1964 0.33546 0.36426 0.0
C492 C 0.19307 0.32345 0.37819 0.0
C493 C 0.18961 0.32902 0.36967 0.0
C494 C 0.21018 0.33053 0.37583 0.0
C495 C 0.20339 0.32416 0.38139 0.0
C496 C 0.2067 0.33613 0.36736 0.0
C497 C 0.18189 0.36454 0.32504 0.0
C498 C 0.198 0.3739 0.32291 0.0
C499 C 0.182 0.38168 0.31769 0.0
C500 C 0.17664 0.37289 0.32084 0.0
C501 C 0.19276 0.38227 0.31864 0.0
C502 C 0.19261 0.36513 0.32613 0.0
C503 C 0.17602 0.35533 0.32817 0.0
O504 O 0.17227 0.32552 0.33854 0.0
O505 O 0.16307 0.33496 0.3488 0.0
O506 O 0.17141 0.35589 0.33709 0.0
O507 O 0.18047 0.34649 0.32666 0.0
H508 H 0.15923 0.32949 0.32312 0.0
H509 H 0.14372 0.32399 0.31383 0.0
H510 H 0.13135 0.31133 0.34189 0.0
H511 H 0.14685 0.31685 0.35112 0.0
H512 H 0.18768 0.31854 0.38224 0.0
H513 H 0.18163 0.32836 0.36735 0.0
H514 H 0.21814 0.33135 0.37815 0.0
H515 H 0.21205 0.34106 0.36327 0.0
H516 H 0.20627 0.37417 0.32384 0.0
H517 H 0.17775 0.38795 0.31433 0.0
H518 H 0.16836 0.37258 0.31994 0.0
H519 H 0.19681 0.3588 0.32945 0.0
C520 C 0.15265 0.68048 0.32364 0.0
C521 C 0.14661 0.68564 0.3308 0.0
C522 C 0.13538 0.69177 0.31709 0.0
C523 C 0.13803 0.6912 0.32756 0.0
C524 C 0.14155 0.68669 0.30995 0.0
C525 C 0.15008 0.6811 0.3132 0.0
U526 U 0.17527 0.67427 0.34167 0.0
O527 O 0.18065 0.65929 0.34725 0.0
O528 O 0.1908 0.66908 0.33794 0.0
C529 C 0.18946 0.66013 0.34244 0.0
C530 C 0.16153 0.67426 0.32683 0.0
C531 C 0.19263 0.65109 0.33655 0.0
C532 C 0.19324 0.64121 0.32078 0.0
C533 C 0.18977 0.64972 0.32625 0.0
C534 C 0.20229 0.63529 0.33591 0.0
C535 C 0.19963 0.63393 0.32552 0.0
C536 C 0.19884 0.64378 0.34134 0.0
C537 C 0.18055 0.69164 0.36507 0.0
C538 C 0.19625 0.69238 0.37527 0.0
C539 C 0.18112 0.70123 0.38099 0.0
C540 C 0.17573 0.69775 0.37236 0.0
C541 C 0.19149 0.6987 0.38252 0.0
C542 C 0.19083 0.68887 0.36662 0.0
C543 C 0.17476 0.68856 0.3558 0.0
O544 O 0.17058 0.67873 0.32602 0.0
O545 O 0.16046 0.66894 0.33535 0.0
O546 O 0.1695 0.67993 0.35644 0.0
O547 O 0.17958 0.68969 0.34703 0.0
H548 H 0.14849 0.68533 0.3389 0.0
H549 H 0.13352 0.69512 0.33324 0.0
H550 H 0.13968 0.68686 0.30185 0.0
H551 H 0.15462 0.67716 0.30755 0.0
H552 H 0.19109 0.64047 0.31278 0.0
H553 H 0.18496 0.65528 0.32241 0.0
H554 H 0.20702 0.62976 0.33988 0.0
H555 H 0.20108 0.64467 0.3493 0.0
H556 H 0.20424 0.69033 0.37614 0.0
H557 H 0.17713 0.70591 0.38649 0.0
H558 H 0.16779 0.69993 0.37133 0.0
H559 H 0.19469 0.68414 0.36108 0.0
C560 C 0.82289 0.65356 0.33861 0.0
C561 C 0.82396 0.65283 0.32793 0.0
C562 C 0.81599 0.63579 0.32815 0.0
C563 C 0.82053 0.64404 0.32275 0.0
C564 C 0.81516 0.63651 0.33888 0.0
C565 C 0.81854 0.64531 0.34404 0.0
U566 U 0.8402 0.6773 0.34308 0.0
O567 O 0.83591 0.69292 0.34757 0.0
O568 O 0.84594 0.68382 0.35756 0.0
C569 C 0.84065 0.69228 0.35647 0.0
C570 C 0.82595 0.66291 0.34425 0.0
C571 C 0.83472 0.69556 0.36545 0.0
C572 C 0.82418 0.69185 0.38042 0.0
C573 C 0.82953 0.68849 0.37179 0.0
C574 C 0.82897 0.70939 0.37636 0.0
C575 C 0.82385 0.70235 0.38281 0.0
C576 C 0.83435 0.70602 0.36779 0.0
C577 C 0.8629 0.68277 0.32494 0.0
C578 C 0.87727 0.69441 0.32822 0.0
C579 C 0.87472 0.68732 0.31126 0.0
C580 C 0.86601 0.68201 0.31471 0.0
C581 C 0.88054 0.69351 0.31798 0.0
C582 C 0.86852 0.68909 0.33166 0.0
C583 C 0.85394 0.6767 0.32841 0.0
O584 O 0.83469 0.66249 0.3493 0.0
O585 O 0.82463 0.67167 0.33943 0.0
O586 O 0.84495 0.68104 0.32729 0.0
O587 O 0.85496 0.6719 0.33724 0.0
H588 H 0.82733 0.6591 0.32357 0.0
H589 H 0.82122 0.64381 0.31449 0.0
H590 H 0.81191 0.63026 0.34334 0.0
H591 H 0.8177 0.6457 0.35228 0.0
H592 H 0.82023 0.68625 0.38516 0.0
H593 H 0.82965 0.68038 0.37008 0.0
H594 H 0.829 0.7175 0.37805 0.0
H595 H 0.83832 0.71159 0.36302 0.0
H596 H 0.8816 0.69903 0.33363 0.0
H597 H 0.87687 0.6866 0.30329 0.0
H598 H 0.86174 0.67721 0.30939 0.0
H599 H 0.86623 0.6898 0.33959 0.0
C600 C 0.83736 0.3657 0.32428 0.0
C601 C 0.82685 0.3665 0.32642 0.0
C602 C 0.82637 0.38322 0.31793 0.0
C603 C 0.82139 0.37517 0.32324 0.0
C604 C 0.83693 0.38239 0.31592 0.0
C605 C 0.84235 0.37372 0.31905 0.0
U606 U 0.84258 0.34195 0.34118 0.0
O607 O 0.84793 0.32671 0.33669 0.0
O608 O 0.85738 0.3362 0.34698 0.0
C609 C 0.85674 0.32776 0.34156 0.0
C610 C 0.84328 0.35657 0.32724 0.0
C611 C 0.86601 0.32501 0.33578 0.0
C612 C 0.87603 0.32471 0.32008 0.0
C613 C 0.8673 0.3278 0.32545 0.0
C614 C 0.88235 0.3162 0.33535 0.0
C615 C 0.88366 0.31884 0.32496 0.0
C616 C 0.87362 0.31924 0.34069 0.0
C617 C 0.8244 0.33528 0.36366 0.0
C618 C 0.82793 0.3255 0.37922 0.0
C619 C 0.81037 0.32864 0.37408 0.0
C620 C 0.81386 0.33402 0.36546 0.0
C621 C 0.81734 0.32442 0.38117 0.0
C622 C 0.83143 0.33087 0.37054 0.0
C623 C 0.82778 0.34157 0.35481 0.0
O624 O 0.84821 0.35711 0.33604 0.0
O625 O 0.83876 0.34763 0.32574 0.0
O626 O 0.82692 0.33728 0.34575 0.0
O627 O 0.83636 0.34686 0.35598 0.0
H628 H 0.82285 0.36042 0.33051 0.0
H629 H 0.8133 0.37561 0.32502 0.0
H630 H 0.84099 0.38835 0.31173 0.0
H631 H 0.85045 0.37324 0.3173 0.0
H632 H 0.87685 0.32698 0.31213 0.0
H633 H 0.86154 0.33229 0.32153 0.0
H634 H 0.88797 0.31158 0.33933 0.0
H635 H 0.87276 0.31699 0.34864 0.0
H636 H 0.83354 0.32243 0.38452 0.0
H637 H 0.80217 0.3278 0.37519 0.0
H638 H 0.8083 0.33732 0.36023 0.0
H639 H 0.83961 0.33171 0.36931 0.0
C640 C 0.68167 0.15386 0.69521 0.0
C641 C 0.68593 0.14698 0.68821 0.0
C642 C 0.69224 0.13634 0.70231 0.0
C643 C 0.69115 0.1383 0.69173 0.0
C644 C 0.68813 0.14339 0.70926 0.0
C645 C 0.68289 0.15202 0.70574 0.0
U646 U 0.67552 0.17637 0.67686 0.0
O647 O 0.66051 0.18199 0.67167 0.0
O648 O 0.67068 0.19201 0.68073 0.0
C649 C 0.66155 0.19074 0.67656 0.0
C650 C 0.67565 0.1628 0.69184 0.0
C651 C 0.65273 0.194 0.68279 0.0
C652 C 0.63732 0.19026 0.69271 0.0
C653 C 0.64589 0.18689 0.68727 0.0
C654 C 0.64243 0.20787 0.68948 0.0
C655 C 0.63546 0.2008 0.69384 0.0
C656 C 0.65095 0.2045 0.68401 0.0
C657 C 0.69228 0.18127 0.65295 0.0
C658 C 0.69319 0.19693 0.64275 0.0
C659 C 0.7009 0.18142 0.63645 0.0
C660 C 0.69772 0.17619 0.64529 0.0
C661 C 0.69874 0.19187 0.63507 0.0
C662 C 0.68996 0.19167 0.65159 0.0
C663 C 0.68941 0.1756 0.66234 0.0
O664 O 0.68034 0.17176 0.69243 0.0
O665 O 0.67015 0.16171 0.68342 0.0
O666 O 0.68069 0.17044 0.66198 0.0
O667 O 0.69086 0.18043 0.67106 0.0
H668 H 0.6851 0.14825 0.68003 0.0
H669 H 0.69414 0.13301 0.68615 0.0
H670 H 0.68897 0.14227 0.71745 0.0
H671 H 0.67971 0.15725 0.71128 0.0
H672 H 0.63217 0.18461 0.69607 0.0
H673 H 0.64712 0.17874 0.68651 0.0
H674 H 0.64119 0.21603 0.69009 0.0
H675 H 0.6561 0.21012 0.68059 0.0
H676 H 0.69129 0.20495 0.64189 0.0
H677 H 0.70527 0.1773 0.63079 0.0
H678 H 0.69962 0.16818 0.6462 0.0
H679 H 0.68573 0.19573 0.65739 0.0
C680 C 0.32304 0.1812 0.65432 0.0
C681 C 0.32337 0.19197 0.65419 0.0
C682 C 0.31632 0.19215 0.63684 0.0
C683 C 0.31999 0.19739 0.64555 0.0
C684 C 0.31615 0.18137 0.63696 0.0
C685 C 0.31945 0.17596 0.64563 0.0
U686 U 0.34093 0.17678 0.67729 0.0
O687 O 0.33749 0.17161 0.69296 0.0
O688 O 0.34745 0.1624 0.6832 0.0
C689 C 0.34244 0.16296 0.6919 0.0
C690 C 0.32634 0.17528 0.6634 0.0
C691 C 0.33686 0.1536 0.69508 0.0
C692 C 0.32114 0.14347 0.6965 0.0
C693 C 0.32634 0.15225 0.69302 0.0
C694 C 0.33696 0.13717 0.7039 0.0
C695 C 0.32636 0.13584 0.70207 0.0
C696 C 0.34213 0.14597 0.70047 0.0
C697 C 0.36305 0.19569 0.68251 0.0
C698 C 0.37752 0.19236 0.69385 0.0
C699 C 0.37444 0.20961 0.68773 0.0
C700 C 0.36586 0.20608 0.68225 0.0
C701 C 0.3804 0.20278 0.69356 0.0
C702 C 0.36888 0.18885 0.68841 0.0
C703 C 0.35409 0.19216 0.67651 0.0
O704 O 0.33521 0.17067 0.66258 0.0
O705 O 0.32506 0.17966 0.67235 0.0
O706 O 0.34519 0.19269 0.68116 0.0
O707 O 0.35525 0.1836 0.6714 0.0
H708 H 0.32621 0.19619 0.66077 0.0
H709 H 0.32033 0.20568 0.64564 0.0
H710 H 0.31327 0.17712 0.63042 0.0
H711 H 0.31913 0.16767 0.64557 0.0
H712 H 0.31297 0.14276 0.69502 0.0
H713 H 0.32213 0.15805 0.68883 0.0
H714 H 0.34128 0.13139 0.70797 0.0
H715 H 0.35026 0.14685 0.70207 0.0
H716 H 0.38189 0.18693 0.69836 0.0
H717 H 0.37652 0.21765 0.68725 0.0
H718 H 0.36145 0.21147 0.67774 0.0
H719 H 0.36679 0.1808 0.68877 0.0
C720 C 0.32343 0.83563 0.65355 0.0
C721 C 0.33058 0.83078 0.64723 0.0
C722 C 0.31673 0.82436 0.63621 0.0
C723 C 0.32726 0.82523 0.63862 0.0
C724 C 0.30962 0.82911 0.64267 0.0
C725 C 0.31294 0.83469 0.65122 0.0
U726 U 0.34111 0.84192 0.67658 0.0
O727 O 0.34702 0.85692 0.68183 0.0
O728 O 0.3371 0.84762 0.69185 0.0
C729 C 0.34189 0.85644 0.69047 0.0
C730 C 0.32667 0.84194 0.6624 0.0
C731 C 0.33623 0.86574 0.69335 0.0
C732 C 0.32033 0.87503 0.6958 0.0
C733 C 0.32551 0.86635 0.69235 0.0
C734 C 0.33654 0.88269 0.70102 0.0
C735 C 0.32578 0.88327 0.7003 0.0
C736 C 0.34169 0.87401 0.69761 0.0
C737 C 0.36371 0.82413 0.68314 0.0
C738 C 0.37872 0.82813 0.69366 0.0
C739 C 0.3746 0.81048 0.68953 0.0
C740 C 0.36602 0.8137 0.68395 0.0
C741 C 0.38111 0.81765 0.69442 0.0
C742 C 0.37008 0.83134 0.6881 0.0
C743 C 0.35474 0.82723 0.67693 0.0
O744 O 0.32543 0.83775 0.6715 0.0
O745 O 0.33543 0.84698 0.6615 0.0
O746 O 0.35581 0.83566 0.67145 0.0
O747 O 0.34578 0.82646 0.68144 0.0
H748 H 0.33872 0.83133 0.6489 0.0
H749 H 0.33293 0.82157 0.63389 0.0
H750 H 0.30147 0.82871 0.64098 0.0
H751 H 0.3073 0.8384 0.65597 0.0
H752 H 0.31205 0.87516 0.69519 0.0
H753 H 0.32112 0.86006 0.68907 0.0
H754 H 0.34102 0.88894 0.70425 0.0
H755 H 0.34996 0.87372 0.69841 0.0
H756 H 0.38349 0.83384 0.69742 0.0
H757 H 0.37627 0.80238 0.68983 0.0
H758 H 0.36122 0.80801 0.68016 0.0
H759 H 0.36841 0.83944 0.68764 0.0
C760 C 0.65372 0.82293 0.68273 0.0
C761 C 0.64761 0.82997 0.68796 0.0
C762 C 0.63645 0.81609 0.69401 0.0
C763 C 0.63903 0.82658 0.69352 0.0
C764 C 0.64269 0.80907 0.68888 0.0
C765 C 0.65122 0.81247 0.68329 0.0
U766 U 0.67649 0.84102 0.67675 0.0
O767 O 0.69191 0.83741 0.67116 0.0
O768 O 0.68178 0.84708 0.66185 0.0
C769 C 0.69051 0.84217 0.66236 0.0
C770 C 0.66257 0.82628 0.67647 0.0
C771 C 0.6935 0.83655 0.65307 0.0
C772 C 0.69537 0.82075 0.64344 0.0
C773 C 0.69192 0.82593 0.65214 0.0
C774 C 0.70176 0.83679 0.6364 0.0
C775 C 0.70044 0.82611 0.6355 0.0
C776 C 0.69835 0.84193 0.6451 0.0
C777 C 0.68267 0.86371 0.69468 0.0
C778 C 0.69075 0.88026 0.69107 0.0
C779 C 0.69111 0.87335 0.70832 0.0
C780 C 0.68564 0.86468 0.70498 0.0
C781 C 0.69367 0.88128 0.70143 0.0
C782 C 0.68534 0.87154 0.68771 0.0
C783 C 0.67654 0.85463 0.69153 0.0
O784 O 0.66156 0.83498 0.67146 0.0
O785 O 0.67166 0.82526 0.68075 0.0
O786 O 0.68115 0.84576 0.69231 0.0
O787 O 0.67099 0.85551 0.68312 0.0
H788 H 0.64943 0.83809 0.6877 0.0
H789 H 0.63445 0.83217 0.69747 0.0
H790 H 0.64087 0.80096 0.689 0.0
H791 H 0.65582 0.80691 0.67929 0.0
H792 H 0.69428 0.81253 0.64306 0.0
H793 H 0.68816 0.82162 0.6582 0.0
H794 H 0.70544 0.8412 0.63038 0.0
H795 H 0.69959 0.85013 0.64564 0.0
H796 H 0.6927 0.88618 0.68554 0.0
H797 H 0.69312 0.87393 0.71637 0.0
H798 H 0.68363 0.85877 0.7105 0.0
H799 H 0.6832 0.87098 0.6797 0.0
C800 C 0.65423 0.82277 0.33741 0.0
C801 C 0.64715 0.82987 0.33353 0.0
C802 C 0.63672 0.81599 0.32637 0.0
C803 C 0.63845 0.8265 0.32812 0.0
C804 C 0.6439 0.80893 0.33015 0.0
C805 C 0.65254 0.8123 0.33564 0.0
U806 U 0.67687 0.84113 0.3422 0.0
O807 O 0.68319 0.8473 0.35659 0.0
O808 O 0.6928 0.8378 0.34676 0.0
C809 C 0.69193 0.84248 0.3556 0.0
C810 C 0.66337 0.82608 0.34331 0.0
C811 C 0.69549 0.8367 0.36465 0.0
C812 C 0.69218 0.82605 0.37966 0.0
C813 C 0.68861 0.83123 0.37094 0.0
C814 C 0.70955 0.83156 0.37577 0.0
C815 C 0.7027 0.8262 0.38223 0.0
C816 C 0.70597 0.83676 0.3671 0.0
C817 C 0.68099 0.86396 0.32399 0.0
C818 C 0.69324 0.87783 0.32705 0.0
C819 C 0.68454 0.87651 0.31064 0.0
C820 C 0.67933 0.86774 0.31407 0.0
C821 C 0.69153 0.88171 0.3171 0.0
C822 C 0.68803 0.86902 0.33047 0.0
C823 C 0.67532 0.85476 0.3274 0.0
O824 O 0.67219 0.82528 0.33855 0.0
O825 O 0.66257 0.83465 0.34849 0.0
O826 O 0.67052 0.85551 0.3362 0.0
O827 O 0.68017 0.84606 0.32638 0.0
H828 H 0.64833 0.83801 0.3347 0.0
H829 H 0.63312 0.83213 0.3252 0.0
H830 H 0.64273 0.80079 0.32902 0.0
H831 H 0.65791 0.8067 0.33856 0.0
H832 H 0.68667 0.82209 0.3845 0.0
H833 H 0.68048 0.83104 0.36916 0.0
H834 H 0.71772 0.83168 0.37737 0.0
H835 H 0.7114 0.84088 0.3623 0.0
H836 H 0.69849 0.88169 0.33226 0.0
H837 H 0.68317 0.87915 0.30287 0.0
H838 H 0.67397 0.86389 0.30895 0.0
H839 H 0.68943 0.86618 0.33816 0.0
C840 C 0.65281 0.18169 0.32343 0.0
C841 C 0.6459 0.18547 0.33069 0.0
C842 C 0.63541 0.19287 0.31703 0.0
C843 C 0.63726 0.19097 0.32751 0.0
C844 C 0.64245 0.1892 0.30982 0.0
C845 C 0.65103 0.18366 0.31299 0.0
U846 U 0.67569 0.1749 0.34108 0.0
O847 O 0.68128 0.15979 0.34592 0.0
O848 O 0.69121 0.16996 0.33679 0.0
C849 C 0.68994 0.16081 0.34086 0.0
C850 C 0.66175 0.17545 0.32643 0.0
C851 C 0.69307 0.15203 0.33449 0.0
C852 C 0.68938 0.13588 0.32583 0.0
C853 C 0.68602 0.14445 0.33125 0.0
C854 C 0.70682 0.14245 0.32656 0.0
C855 C 0.69984 0.13474 0.32348 0.0
C856 C 0.70347 0.15097 0.33203 0.0
C857 C 0.68145 0.19115 0.36519 0.0
C858 C 0.69764 0.19467 0.374 0.0
C859 C 0.68158 0.19695 0.3829 0.0
C860 C 0.67619 0.19384 0.37412 0.0
C861 C 0.69237 0.19751 0.38293 0.0
C862 C 0.69224 0.19148 0.36523 0.0
C863 C 0.67547 0.18851 0.35586 0.0
O864 O 0.67078 0.17999 0.32569 0.0
O865 O 0.6608 0.16981 0.33476 0.0
O866 O 0.67017 0.17988 0.3562 0.0
O867 O 0.68002 0.19009 0.34701 0.0
H868 H 0.64714 0.18411 0.3388 0.0
H869 H 0.63206 0.19379 0.33327 0.0
H870 H 0.6412 0.1904 0.30169 0.0
H871 H 0.65624 0.18079 0.30726 0.0
H872 H 0.68378 0.13015 0.32347 0.0
H873 H 0.67793 0.14508 0.333 0.0
H874 H 0.71494 0.14177 0.325 0.0
H875 H 0.70906 0.15667 0.33449 0.0
H876 H 0.70595 0.19489 0.37381 0.0
H877 H 0.67727 0.1992 0.38958 0.0
H878 H 0.66788 0.19369 0.37425 0.0
H879 H 0.6965 0.1894 0.35846 0.0
C880 C 0.32121 0.1551 0.33702 0.0
C881 C 0.32836 0.14889 0.33206 0.0
C882 C 0.31455 0.13758 0.32604 0.0
C883 C 0.32506 0.14018 0.32666 0.0
C884 C 0.30744 0.14391 0.33094 0.0
C885 C 0.31074 0.15256 0.33638 0.0
U886 U 0.33945 0.1778 0.34274 0.0
O887 O 0.33571 0.19357 0.34727 0.0
O888 O 0.34484 0.18387 0.35754 0.0
C889 C 0.34003 0.1926 0.35634 0.0
C890 C 0.32443 0.16418 0.34298 0.0
C891 C 0.33396 0.19611 0.36514 0.0
C892 C 0.32314 0.19278 0.37998 0.0
C893 C 0.32838 0.18924 0.37136 0.0
C894 C 0.32876 0.21011 0.37611 0.0
C895 C 0.32335 0.20326 0.38253 0.0
C896 C 0.33402 0.20657 0.36753 0.0
C897 C 0.36323 0.18248 0.32593 0.0
C898 C 0.37349 0.19819 0.32553 0.0
C899 C 0.37964 0.18295 0.31714 0.0
C900 C 0.3708 0.1776 0.32021 0.0
C901 C 0.38109 0.19333 0.31972 0.0
C902 C 0.36466 0.1928 0.32864 0.0
C903 C 0.35388 0.1767 0.3288 0.0
O904 O 0.33286 0.16329 0.34848 0.0
O905 O 0.32381 0.17302 0.33817 0.0
O906 O 0.34514 0.18142 0.32729 0.0
O907 O 0.35427 0.17176 0.33759 0.0
H908 H 0.33648 0.15075 0.3324 0.0
H909 H 0.33073 0.13554 0.32288 0.0
H910 H 0.29931 0.14207 0.33074 0.0
H911 H 0.3051 0.15724 0.34016 0.0
H912 H 0.31913 0.18727 0.38478 0.0
H913 H 0.32821 0.18113 0.36964 0.0
H914 H 0.32894 0.21825 0.37769 0.0
H915 H 0.33823 0.212 0.3628 0.0
H916 H 0.37441 0.20613 0.32774 0.0
H917 H 0.38525 0.17901 0.31257 0.0
H918 H 0.36983 0.16965 0.31802 0.0
H919 H 0.35892 0.1967 0.33311 0.0
C920 C 0.33638 0.86458 0.32343 0.0
C921 C 0.33048 0.87017 0.33038 0.0
C922 C 0.32562 0.88213 0.31676 0.0
C923 C 0.32515 0.87887 0.32707 0.0
C924 C 0.33139 0.87634 0.30983 0.0
C925 C 0.33671 0.86768 0.31314 0.0
U926 U 0.34254 0.84178 0.34139 0.0
O927 O 0.34797 0.82642 0.3374 0.0
O928 O 0.35761 0.83652 0.34691 0.0
C929 C 0.35692 0.82782 0.34193 0.0
C930 C 0.34249 0.85568 0.32672 0.0
C931 C 0.36605 0.82491 0.33602 0.0
C932 C 0.37573 0.82416 0.32012 0.0
C933 C 0.36707 0.82731 0.32556 0.0
C934 C 0.38251 0.81634 0.33557 0.0
C935 C 0.38356 0.81862 0.32506 0.0
C936 C 0.37386 0.81945 0.34096 0.0
C937 C 0.3255 0.83577 0.36486 0.0
C938 C 0.32189 0.81955 0.37353 0.0
C939 C 0.31942 0.83552 0.38248 0.0
C940 C 0.32265 0.84096 0.37378 0.0
C941 C 0.3189 0.82475 0.38244 0.0
C942 C 0.32519 0.825 0.36484 0.0
C943 C 0.32833 0.8418 0.35563 0.0
O944 O 0.34771 0.85671 0.33531 0.0
O945 O 0.33801 0.84666 0.32581 0.0
O946 O 0.32715 0.83723 0.34672 0.0
O947 O 0.33685 0.84726 0.35627 0.0
H948 H 0.3301 0.86789 0.33836 0.0
H949 H 0.32086 0.88318 0.33264 0.0
H950 H 0.33179 0.87847 0.30181 0.0
H951 H 0.34118 0.86344 0.30765 0.0
H952 H 0.37634 0.82614 0.31207 0.0
H953 H 0.36115 0.83157 0.3216 0.0
H954 H 0.3883 0.81197 0.33959 0.0
H955 H 0.37321 0.81749 0.34902 0.0
H956 H 0.3217 0.81126 0.37328 0.0
H957 H 0.31707 0.83977 0.38916 0.0
H958 H 0.32278 0.84925 0.37397 0.0
H959 H 0.3274 0.82079 0.35808 0.0
C960 C 0.68172 0.65309 0.19443 0.0
C961 C 0.68532 0.64592 0.18732 0.0
C962 C 0.6928 0.63575 0.20117 0.0
C963 C 0.69076 0.63732 0.19067 0.0
C964 C 0.68933 0.64305 0.20822 0.0
C965 C 0.68384 0.65159 0.20488 0.0
U966 U 0.67553 0.67615 0.17688 0.0
O967 O 0.66054 0.68141 0.17111 0.0
O968 O 0.66992 0.6914 0.18099 0.0
C969 C 0.66106 0.69001 0.1763 0.0
C970 C 0.67545 0.66195 0.19125 0.0
C971 C 0.65178 0.69276 0.18209 0.0
C972 C 0.64252 0.6949 0.19811 0.0
C973 C 0.65125 0.69171 0.19281 0.0
C974 C 0.63465 0.69999 0.18205 0.0
C975 C 0.63412 0.69913 0.19279 0.0
C976 C 0.64338 0.69686 0.17678 0.0
C977 C 0.69352 0.6826 0.1542 0.0
C978 C 0.6899 0.69404 0.13985 0.0
C979 C 0.70718 0.68792 0.14263 0.0
C980 C 0.70383 0.68239 0.15121 0.0
C981 C 0.70026 0.6938 0.13681 0.0
C982 C 0.68657 0.68851 0.1485 0.0
C983 C 0.69027 0.67646 0.16317 0.0
O984 O 0.6797 0.67105 0.19249 0.0
O985 O 0.67034 0.66108 0.18256 0.0
O986 O 0.68174 0.67106 0.16212 0.0
O987 O 0.69106 0.681 0.17211 0.0
H988 H 0.68385 0.64691 0.1792 0.0
H989 H 0.69342 0.63192 0.18503 0.0
H990 H 0.69065 0.64202 0.21637 0.0
H991 H 0.68111 0.65698 0.21051 0.0
H992 H 0.64233 0.69402 0.20637 0.0
H993 H 0.65761 0.68852 0.19709 0.0
H994 H 0.6284 0.70333 0.17771 0.0
H995 H 0.64363 0.69777 0.16852 0.0
H996 H 0.68439 0.69856 0.13561 0.0
H997 H 0.71516 0.68743 0.14044 0.0
H998 H 0.70931 0.67785 0.15549 0.0
H999 H 0.67857 0.68881 0.1507 0.0
C1000 C 0.32168 0.6824 0.15522 0.0
C1001 C 0.32834 0.68922 0.15013 0.0
C1002 C 0.31483 0.69334 0.13779 0.0
C1003 C 0.32495 0.69463 0.14147 0.0
C1004 C 0.30817 0.6866 0.14307 0.0
C1005 C 0.31157 0.68118 0.15168 0.0
U1006 U 0.3405 0.67734 0.17725 0.0
O1007 O 0.33754 0.6723 0.19308 0.0
O1008 O 0.34669 0.66272 0.1829 0.0
C1009 C 0.34209 0.66346 0.1918 0.0
C1010 C 0.32514 0.67641 0.16415 0.0
C1011 C 0.33629 0.6543 0.19514 0.0
C1012 C 0.32035 0.6445 0.19664 0.0
C1013 C 0.32571 0.65323 0.19322 0.0
C1014 C 0.33612 0.63775 0.20373 0.0
C1015 C 0.32549 0.63666 0.20198 0.0
C1016 C 0.34144 0.64648 0.20036 0.0
C1017 C 0.36368 0.69518 0.18139 0.0
C1018 C 0.3739 0.69593 0.19703 0.0
C1019 C 0.38013 0.70415 0.18154 0.0
C1020 C 0.37128 0.70091 0.17631 0.0
C1021 C 0.38152 0.70175 0.19198 0.0
C1022 C 0.36508 0.69263 0.19177 0.0
C1023 C 0.35433 0.69206 0.17576 0.0
O1024 O 0.33374 0.6714 0.16296 0.0
O1025 O 0.32457 0.68105 0.17305 0.0
O1026 O 0.34564 0.69303 0.18074 0.0
O1027 O 0.35489 0.68342 0.17069 0.0
H1028 H 0.33617 0.69028 0.15277 0.0
H1029 H 0.33032 0.69967 0.13756 0.0
H1030 H 0.30028 0.68554 0.14058 0.0
H1031 H 0.30631 0.67599 0.15557 0.0
H1032 H 0.31217 0.64398 0.19523 0.0
H1033 H 0.32159 0.65917 0.18915 0.0
H1034 H 0.34037 0.6318 0.20763 0.0
H1035 H 0.34962 0.64714 0.20184 0.0
H1036 H 0.37481 0.69385 0.20503 0.0
H1037 H 0.38579 0.70872 0.17745 0.0
H1038 H 0.37033 0.70296 0.1683 0.0
H1039 H 0.35933 0.68813 0.19581 0.0
C1040 C 0.32336 0.33675 0.15409 0.0
C1041 C 0.33046 0.33139 0.14817 0.0
C1042 C 0.31673 0.32553 0.13671 0.0
C1043 C 0.32718 0.32586 0.13953 0.0
C1044 C 0.30965 0.33083 0.14276 0.0
C1045 C 0.31294 0.33638 0.15135 0.0
U1046 U 0.34141 0.34292 0.17682 0.0
O1047 O 0.34688 0.35786 0.18251 0.0
O1048 O 0.33752 0.3479 0.19244 0.0
C1049 C 0.34203 0.35689 0.19128 0.0
C1050 C 0.32658 0.34289 0.16306 0.0
C1051 C 0.33611 0.36584 0.19462 0.0
C1052 C 0.32407 0.37961 0.19134 0.0
C1053 C 0.32928 0.3709 0.18801 0.0
C1054 C 0.33234 0.37816 0.20794 0.0
C1055 C 0.3256 0.38341 0.20134 0.0
C1056 C 0.33753 0.3695 0.20461 0.0
C1057 C 0.36492 0.32589 0.18205 0.0
C1058 C 0.37442 0.32396 0.19807 0.0
C1059 C 0.38162 0.31775 0.18223 0.0
C1060 C 0.37296 0.32114 0.17688 0.0
C1061 C 0.38242 0.31899 0.19293 0.0
C1062 C 0.36575 0.32738 0.19268 0.0
C1063 C 0.35565 0.32884 0.17622 0.0
O1064 O 0.32577 0.33832 0.17202 0.0
O1065 O 0.33512 0.34828 0.16209 0.0
O1066 O 0.35627 0.3375 0.17106 0.0
O1067 O 0.34682 0.32753 0.18089 0.0
H1068 H 0.33854 0.33151 0.15019 0.0
H1069 H 0.33282 0.32178 0.13511 0.0
H1070 H 0.30158 0.33085 0.14076 0.0
H1071 H 0.30734 0.34048 0.1558 0.0
H1072 H 0.319 0.38348 0.18601 0.0
H1073 H 0.32807 0.36818 0.18025 0.0
H1074 H 0.33356 0.38072 0.21575 0.0
H1075 H 0.34273 0.36567 0.20984 0.0
H1076 H 0.37471 0.32498 0.2063 0.0
H1077 H 0.38769 0.31416 0.17797 0.0
H1078 H 0.3725 0.31995 0.16867 0.0
H1079 H 0.35965 0.33105 0.19684 0.0
C1080 C 0.65317 0.32292 0.18218 0.0
C1081 C 0.64823 0.32952 0.18899 0.0
C1082 C 0.63554 0.31617 0.19296 0.0
C1083 C 0.63949 0.32617 0.19433 0.0
C1084 C 0.64066 0.30957 0.18625 0.0
C1085 C 0.64936 0.31292 0.18092 0.0
U1086 U 0.67575 0.34135 0.17648 0.0
O1087 O 0.69137 0.33792 0.17131 0.0
O1088 O 0.68124 0.34714 0.16155 0.0
C1089 C 0.69 0.34231 0.16231 0.0
C1090 C 0.66214 0.32631 0.17616 0.0
C1091 C 0.69308 0.33639 0.15321 0.0
C1092 C 0.6972 0.32033 0.14482 0.0
C1093 C 0.69383 0.32566 0.15345 0.0
C1094 C 0.69889 0.33635 0.1355 0.0
C1095 C 0.69981 0.32562 0.13575 0.0
C1096 C 0.69559 0.34166 0.14414 0.0
C1097 C 0.68068 0.36472 0.19392 0.0
C1098 C 0.69656 0.37458 0.19583 0.0
C1099 C 0.68063 0.38129 0.20234 0.0
C1100 C 0.6754 0.37255 0.19887 0.0
C1101 C 0.6913 0.38238 0.20099 0.0
C1102 C 0.69129 0.36583 0.19232 0.0
C1103 C 0.67498 0.35538 0.19083 0.0
O1104 O 0.66107 0.33489 0.17097 0.0
O1105 O 0.6711 0.32562 0.18078 0.0
O1106 O 0.67981 0.34666 0.19196 0.0
O1107 O 0.66977 0.35597 0.18219 0.0
H1108 H 0.65107 0.33727 0.19007 0.0
H1109 H 0.63571 0.33149 0.19936 0.0
H1110 H 0.63797 0.30177 0.18514 0.0
H1111 H 0.6531 0.3077 0.17573 0.0
H1112 H 0.69772 0.31207 0.14522 0.0
H1113 H 0.69188 0.32138 0.16032 0.0
H1114 H 0.70094 0.34067 0.12869 0.0
H1115 H 0.69511 0.34994 0.14379 0.0
H1116 H 0.70477 0.37511 0.19472 0.0
H1117 H 0.67629 0.3872 0.20608 0.0
H1118 H 0.6672 0.37186 0.20013 0.0
H1119 H 0.69552 0.35989 0.18849 0.0
C1120 C 0.65392 0.32287 0.83809 0.0
C1121 C 0.64789 0.32992 0.83265 0.0
C1122 C 0.63648 0.31611 0.82697 0.0
C1123 C 0.63921 0.32658 0.82718 0.0
C1124 C 0.64262 0.30909 0.83235 0.0
C1125 C 0.65124 0.31245 0.83787 0.0
U1126 U 0.67651 0.34129 0.84282 0.0
O1127 O 0.68279 0.34745 0.85722 0.0
O1128 O 0.69243 0.33798 0.84741 0.0
C1129 C 0.69155 0.34267 0.85625 0.0
C1130 C 0.66304 0.3262 0.84398 0.0
C1131 C 0.695 0.33686 0.8653 0.0
C1132 C 0.69183 0.32468 0.87913 0.0
C1133 C 0.68844 0.32993 0.87038 0.0
C1134 C 0.70843 0.33313 0.8777 0.0
C1135 C 0.70187 0.32626 0.88294 0.0
C1136 C 0.70502 0.33838 0.86899 0.0
C1137 C 0.68063 0.36421 0.82469 0.0
C1138 C 0.69654 0.37392 0.82255 0.0
C1139 C 0.68056 0.38071 0.81601 0.0
C1140 C 0.67532 0.37203 0.81963 0.0
C1141 C 0.69126 0.38173 0.81732 0.0
C1142 C 0.69126 0.36525 0.82623 0.0
C1143 C 0.67494 0.35498 0.82809 0.0
O1144 O 0.67185 0.32543 0.83919 0.0
O1145 O 0.66219 0.33481 0.84908 0.0
O1146 O 0.67015 0.35574 0.83689 0.0
O1147 O 0.67969 0.34623 0.82701 0.0
H1148 H 0.64989 0.338 0.83264 0.0
H1149 H 0.63471 0.33216 0.82302 0.0
H1150 H 0.64067 0.301 0.83242 0.0
H1151 H 0.65581 0.30689 0.842 0.0
H1152 H 0.68654 0.31954 0.88301 0.0
H1153 H 0.68067 0.32865 0.86762 0.0
H1154 H 0.71626 0.33439 0.88029 0.0
H1155 H 0.71021 0.34365 0.86513 0.0
H1156 H 0.70477 0.37439 0.82363 0.0
H1157 H 0.6762 0.38665 0.8122 0.0
H1158 H 0.6671 0.37139 0.81843 0.0
H1159 H 0.69551 0.35931 0.83016 0.0
C1160 C 0.65276 0.68091 0.82317 0.0
C1161 C 0.6462 0.68553 0.83025 0.0
C1162 C 0.63521 0.69161 0.81629 0.0
C1163 C 0.6375 0.69082 0.82684 0.0
C1164 C 0.64195 0.68712 0.80926 0.0
C1165 C 0.6506 0.68183 0.81267 0.0
U1166 U 0.67543 0.67489 0.84136 0.0
O1167 O 0.68113 0.65995 0.84659 0.0
O1168 O 0.6911 0.67009 0.83746 0.0
C1169 C 0.68991 0.66103 0.84176 0.0
C1170 C 0.66175 0.67491 0.82646 0.0
C1171 C 0.69326 0.65218 0.83566 0.0
C1172 C 0.68972 0.63765 0.82449 0.0
C1173 C 0.68633 0.64629 0.82979 0.0
C1174 C 0.70702 0.64085 0.83068 0.0
C1175 C 0.70011 0.63476 0.82494 0.0
C1176 C 0.70362 0.64944 0.83598 0.0
C1177 C 0.68062 0.69162 0.86517 0.0
C1178 C 0.6967 0.69372 0.8746 0.0
C1179 C 0.68074 0.69896 0.88228 0.0
C1180 C 0.67539 0.6958 0.8735 0.0
C1181 C 0.69147 0.69804 0.88293 0.0
C1182 C 0.69132 0.69051 0.86582 0.0
C1183 C 0.67477 0.68879 0.85584 0.0
O1184 O 0.67071 0.67959 0.82579 0.0
O1185 O 0.66072 0.66945 0.83491 0.0
O1186 O 0.66958 0.6801 0.85626 0.0
O1187 O 0.67946 0.69025 0.84705 0.0
H1188 H 0.64773 0.68495 0.8384 0.0
H1189 H 0.63245 0.69409 0.83249 0.0
H1190 H 0.64059 0.68773 0.80108 0.0
H1191 H 0.6556 0.67837 0.80707 0.0
H1192 H 0.68417 0.63312 0.82022 0.0
H1193 H 0.67829 0.64829 0.82942 0.0
H1194 H 0.71509 0.639 0.83105 0.0
H1195 H 0.7091 0.65391 0.84042 0.0
H1196 H 0.70495 0.69279 0.87489 0.0
H1197 H 0.67647 0.70235 0.88848 0.0
H1198 H 0.66714 0.69675 0.87315 0.0
H1199 H 0.69553 0.68724 0.85951 0.0
C1200 C 0.32189 0.65473 0.83832 0.0
C1201 C 0.32868 0.64951 0.83193 0.0
C1202 C 0.3152 0.63708 0.82757 0.0
C1203 C 0.32537 0.64076 0.82661 0.0
C1204 C 0.30842 0.64247 0.83388 0.0
C1205 C 0.31174 0.65118 0.8392 0.0
U1206 U 0.34023 0.67741 0.84369 0.0
O1207 O 0.33673 0.69309 0.84854 0.0
O1208 O 0.34606 0.68323 0.85847 0.0
C1209 C 0.3413 0.692 0.85749 0.0
C1210 C 0.32521 0.66378 0.84424 0.0
C1211 C 0.33553 0.6954 0.86652 0.0
C1212 C 0.31969 0.69687 0.8762 0.0
C1213 C 0.32501 0.69322 0.86767 0.0
C1214 C 0.33537 0.70472 0.8826 0.0
C1215 C 0.32479 0.70274 0.88374 0.0
C1216 C 0.34066 0.7011 0.87408 0.0
C1217 C 0.36358 0.68228 0.82634 0.0
C1218 C 0.37328 0.69826 0.82468 0.0
C1219 C 0.38037 0.68249 0.81827 0.0
C1220 C 0.3716 0.67713 0.82152 0.0
C1221 C 0.3813 0.69313 0.81974 0.0
C1222 C 0.36452 0.69288 0.82798 0.0
C1223 C 0.35429 0.67646 0.82936 0.0
O1224 O 0.33381 0.66285 0.84947 0.0
O1225 O 0.32447 0.67265 0.8395 0.0
O1226 O 0.3455 0.68116 0.82812 0.0
O1227 O 0.35489 0.67139 0.83807 0.0
H1228 H 0.33655 0.65215 0.83113 0.0
H1229 H 0.33084 0.63677 0.8219 0.0
H1230 H 0.30049 0.64 0.83466 0.0
H1231 H 0.30637 0.65515 0.84405 0.0
H1232 H 0.31154 0.69525 0.87677 0.0
H1233 H 0.3209 0.68879 0.86192 0.0
H1234 H 0.33962 0.70902 0.88834 0.0
H1235 H 0.34879 0.70281 0.87337 0.0
H1236 H 0.3738 0.70643 0.82604 0.0
H1237 H 0.38633 0.67832 0.8144 0.0
H1238 H 0.37102 0.66896 0.82016 0.0
H1239 H 0.35845 0.697 0.83176 0.0
C1240 C 0.33711 0.36653 0.82505 0.0
C1241 C 0.32646 0.36699 0.82657 0.0
C1242 C 0.32604 0.38403 0.81875 0.0
C1243 C 0.32097 0.37564 0.82342 0.0
C1244 C 0.33673 0.38355 0.81738 0.0
C1245 C 0.34219 0.3749 0.82048 0.0
U1246 U 0.34312 0.34293 0.84198 0.0
O1247 O 0.34831 0.32764 0.83743 0.0
O1248 O 0.35821 0.33732 0.84713 0.0
C1249 C 0.35738 0.32884 0.84178 0.0
C1250 C 0.34311 0.35739 0.82787 0.0
C1251 C 0.36645 0.32605 0.83564 0.0
C1252 C 0.37459 0.32202 0.81939 0.0
C1253 C 0.36602 0.32528 0.82489 0.0
C1254 C 0.38422 0.3205 0.83524 0.0
C1255 C 0.38379 0.31953 0.82451 0.0
C1256 C 0.37564 0.3237 0.84073 0.0
C1257 C 0.32626 0.33659 0.86558 0.0
C1258 C 0.32259 0.32029 0.87407 0.0
C1259 C 0.3202 0.33617 0.8832 0.0
C1260 C 0.32344 0.34169 0.87456 0.0
C1261 C 0.31964 0.3254 0.88305 0.0
C1262 C 0.3259 0.32583 0.86543 0.0
C1263 C 0.32912 0.34274 0.85644 0.0
O1264 O 0.34848 0.35803 0.8364 0.0
O1265 O 0.33851 0.34844 0.82669 0.0
O1266 O 0.32777 0.33839 0.84744 0.0
O1267 O 0.33774 0.34804 0.8571 0.0
H1268 H 0.32238 0.36064 0.83013 0.0
H1269 H 0.31277 0.37579 0.82469 0.0
H1270 H 0.34088 0.38979 0.8137 0.0
H1271 H 0.3504 0.3747 0.8192 0.0
H1272 H 0.37403 0.32147 0.81113 0.0
H1273 H 0.35904 0.32709 0.82075 0.0
H1274 H 0.39112 0.31854 0.83944 0.0
H1275 H 0.37615 0.32418 0.84901 0.0
H1276 H 0.32237 0.312 0.87372 0.0
H1277 H 0.31787 0.34036 0.88993 0.0
H1278 H 0.32361 0.34998 0.87485 0.0
H1279 H 0.32808 0.32169 0.85861 0.0
C1280 C 0.25265 0.24226 0.04455 0.0
C1281 C 0.24192 0.24194 0.04584 0.0
C1282 C 0.25701 0.24655 0.03571 0.0
C1283 C 0.25076 0.25071 0.02796 0.0
C1284 C 0.23569 0.24602 0.038 0.0
C1285 C 0.24006 0.25029 0.02914 0.0
C1286 C 0.25527 0.2551 0.01843 0.0
C1287 C 0.26569 0.27569 0.0442 0.0
C1288 C 0.2764 0.27599 0.04578 0.0
C1289 C 0.26146 0.27125 0.03536 0.0
C1290 C 0.26783 0.26691 0.02792 0.0
C1291 C 0.28274 0.27173 0.03824 0.0
C1292 C 0.2785 0.26731 0.02939 0.0
C1293 C 0.26346 0.26232 0.01841 0.0
C1294 C 0.26593 0.27476 0.9737 0.0
C1295 C 0.27664 0.27587 0.97275 0.0
C1296 C 0.26163 0.27039 0.98254 0.0
C1297 C 0.26795 0.26679 0.99053 0.0
C1298 C 0.28293 0.2725 0.98085 0.0
C1299 C 0.27863 0.26803 0.98964 0.0
C1300 C 0.26353 0.2622 1.00004 0.0
C1301 C 0.25316 0.24187 0.97403 0.0
C1302 C 0.24246 0.24083 0.97288 0.0
C1303 C 0.25741 0.24636 0.98284 0.0
C1304 C 0.25105 0.25014 0.9906 0.0
C1305 C 0.23611 0.2444 0.98076 0.0
C1306 C 0.24036 0.24897 0.98951 0.0
C1307 C 0.2554 0.25487 1.00006 0.0
H1308 H 0.25769 0.239 0.0503 0.0
H1309 H 0.26528 0.24648 0.03487 0.0
H1310 H 0.22742 0.24603 0.03874 0.0
H1311 H 0.23507 0.25338 0.02325 0.0
H1312 H 0.26056 0.27908 0.0497 0.0
H1313 H 0.25322 0.27132 0.03428 0.0
H1314 H 0.291 0.2717 0.03922 0.0
H1315 H 0.28358 0.26409 0.02374 0.0
H1316 H 0.26086 0.27746 0.96769 0.0
H1317 H 0.25335 0.26993 0.98316 0.0
H1318 H 0.29121 0.2732 0.98035 0.0
H1319 H 0.28369 0.26544 0.99572 0.0
H1320 H 0.25827 0.23903 0.96819 0.0
H1321 H 0.26569 0.24679 0.98361 0.0
H1322 H 0.22784 0.24378 0.98009 0.0
H1323 H 0.23528 0.25171 0.99542 0.0
N1324 N 0.25156 0.25171 0.00926 0.0
N1325 N 0.26727 0.26553 0.00923 0.0
C1326 C 0.76539 0.24301 0.97511 0.0
C1327 C 0.7761 0.24327 0.97373 0.0
C1328 C 0.76101 0.24716 0.98391 0.0
C1329 C 0.76723 0.25169 0.99152 0.0
C1330 C 0.78231 0.24773 0.9814 0.0
C1331 C 0.77792 0.25181 0.99024 0.0
C1332 C 0.76271 0.25596 1.00099 0.0
C1333 C 0.75258 0.27672 0.97529 0.0
C1334 C 0.74195 0.27628 0.97335 0.0
C1335 C 0.75669 0.2723 0.98417 0.0
C1336 C 0.75025 0.26736 0.9913 0.0
C1337 C 0.73553 0.27132 0.9805 0.0
C1338 C 0.73963 0.267 0.98944 0.0
C1339 C 0.75451 0.26294 1.00088 0.0
C1340 C 0.75242 0.27612 0.04515 0.0
C1341 C 0.74172 0.27683 0.04629 0.0
C1342 C 0.75661 0.27172 0.03637 0.0
C1343 C 0.75018 0.26771 0.02863 0.0
C1344 C 0.73532 0.27304 0.03842 0.0
C1345 C 0.7395 0.26856 0.02969 0.0
C1346 C 0.75449 0.26307 0.01921 0.0
C1347 C 0.76484 0.24335 0.0456 0.0
C1348 C 0.77553 0.24245 0.04668 0.0
C1349 C 0.7606 0.24768 0.03673 0.0
C1350 C 0.76697 0.25144 0.02887 0.0
C1351 C 0.78189 0.24599 0.03871 0.0
C1352 C 0.77765 0.25043 0.0299 0.0
C1353 C 0.76262 0.25595 0.01933 0.0
H1354 H 0.76039 0.23966 0.96933 0.0
H1355 H 0.75275 0.24675 0.98482 0.0
H1356 H 0.79058 0.24793 0.98064 0.0
H1357 H 0.78289 0.25515 0.99605 0.0
H1358 H 0.75772 0.28045 0.96991 0.0
H1359 H 0.76489 0.27285 0.98553 0.0
H1360 H 0.7273 0.27097 0.97927 0.0
H1361 H 0.73452 0.26331 0.99489 0.0
H1362 H 0.75757 0.27915 0.05096 0.0
H1363 H 0.76487 0.27152 0.03561 0.0
H1364 H 0.72705 0.27341 0.03908 0.0
H1365 H 0.73438 0.26564 0.02379 0.0
H1366 H 0.75974 0.2405 0.05153 0.0
H1367 H 0.75232 0.24797 0.03599 0.0
H1368 H 0.79016 0.24542 0.03933 0.0
H1369 H 0.78274 0.25316 0.02391 0.0
N1370 N 0.76646 0.25277 0.0102 0.0
N1371 N 0.75071 0.26619 0.00998 0.0
C1372 C 0.76581 0.77502 0.04378 0.0
C1373 C 0.77652 0.77522 0.04529 0.0
C1374 C 0.76149 0.77068 0.03493 0.0
C1375 C 0.76777 0.76634 0.02742 0.0
C1376 C 0.78278 0.77099 0.03767 0.0
C1377 C 0.77846 0.76667 0.02882 0.0
C1378 C 0.76329 0.76184 0.01792 0.0
C1379 C 0.75238 0.74167 0.04394 0.0
C1380 C 0.74168 0.7418 0.04549 0.0
C1381 C 0.75671 0.74593 0.03506 0.0
C1382 C 0.75046 0.75045 0.02753 0.0
C1383 C 0.73546 0.74629 0.03787 0.0
C1384 C 0.7398 0.75048 0.02896 0.0
C1385 C 0.75494 0.75481 0.01797 0.0
C1386 C 0.75209 0.74155 0.97371 0.0
C1387 C 0.74135 0.74101 0.97253 0.0
C1388 C 0.75652 0.74598 0.98246 0.0
C1389 C 0.75033 0.75013 0.99016 0.0
C1390 C 0.73517 0.74504 0.98032 0.0
C1391 C 0.73961 0.7495 0.98905 0.0
C1392 C 0.75488 0.75467 0.99961 0.0
C1393 C 0.76548 0.77471 0.97341 0.0
C1394 C 0.7762 0.77542 0.97217 0.0
C1395 C 0.76123 0.77028 0.98225 0.0
C1396 C 0.76759 0.76629 0.99 0.0
C1397 C 0.78254 0.77155 0.98003 0.0
C1398 C 0.77828 0.76708 0.98885 0.0
C1399 C 0.76321 0.76177 0.99955 0.0
H1400 H 0.76074 0.77839 0.04934 0.0
H1401 H 0.75324 0.77085 0.03391 0.0
H1402 H 0.79105 0.77091 0.0386 0.0
H1403 H 0.78347 0.76345 0.02311 0.0
H1404 H 0.75741 0.7381 0.04949 0.0
H1405 H 0.76494 0.74555 0.03402 0.0
H1406 H 0.72722 0.74667 0.03881 0.0
H1407 H 0.73481 0.75388 0.02324 0.0
H1408 H 0.75707 0.73835 0.96797 0.0
H1409 H 0.7648 0.74605 0.98326 0.0
H1410 H 0.72689 0.74486 0.97964 0.0
H1411 H 0.73466 0.75255 0.9949 0.0
H1412 H 0.76033 0.77753 0.96753 0.0
H1413 H 0.75297 0.77008 0.98305 0.0
H1414 H 0.79081 0.77213 0.97946 0.0
H1415 H 0.78337 0.76422 0.99477 0.0
N1416 N 0.76711 0.76499 0.00871 0.0
N1417 N 0.75105 0.75156 0.00882 0.0
C1418 C 0.26562 0.74345 0.9753 0.0
C1419 C 0.27631 0.74377 0.97381 0.0
C1420 C 0.26131 0.74752 0.98417 0.0
C1421 C 0.26757 0.75207 0.99173 0.0
C1422 C 0.28257 0.7482 0.98146 0.0
C1423 C 0.27825 0.75223 0.99036 0.0
C1424 C 0.26309 0.75636 1.0012 0.0
C1425 C 0.25261 0.77649 0.97526 0.0
C1426 C 0.24196 0.77604 0.9734 0.0
C1427 C 0.25678 0.77231 0.98423 0.0
C1428 C 0.2504 0.76754 0.99152 0.0
C1429 C 0.23559 0.77134 0.9808 0.0
C1430 C 0.23977 0.76721 0.98979 0.0
C1431 C 0.25474 0.76319 1.0011 0.0
C1432 C 0.25261 0.77668 0.04506 0.0
C1433 C 0.24195 0.77643 0.04673 0.0
C1434 C 0.25676 0.77235 0.03624 0.0
C1435 C 0.25035 0.76766 0.02889 0.0
C1436 C 0.23554 0.77178 0.03933 0.0
C1437 C 0.2397 0.76752 0.03046 0.0
C1438 C 0.2547 0.76324 0.01941 0.0
C1439 C 0.26496 0.7428 0.04519 0.0
C1440 C 0.27559 0.74325 0.04712 0.0
C1441 C 0.26086 0.74714 0.03627 0.0
C1442 C 0.2673 0.75202 0.0291 0.0
C1443 C 0.28202 0.74813 0.03993 0.0
C1444 C 0.27792 0.75238 0.03095 0.0
C1445 C 0.26302 0.7564 0.01952 0.0
H1446 H 0.26057 0.74013 0.96955 0.0
H1447 H 0.25306 0.74706 0.98514 0.0
H1448 H 0.29084 0.74843 0.98064 0.0
H1449 H 0.28325 0.75558 0.99613 0.0
H1450 H 0.25773 0.78024 0.96988 0.0
H1451 H 0.26498 0.77291 0.98552 0.0
H1452 H 0.22737 0.77075 0.97959 0.0
H1453 H 0.2347 0.76362 0.99534 0.0
H1454 H 0.25775 0.78016 0.05063 0.0
H1455 H 0.26498 0.77278 0.03511 0.0
H1456 H 0.22729 0.77158 0.04032 0.0
H1457 H 0.2346 0.76404 0.02485 0.0
H1458 H 0.25981 0.73913 0.05061 0.0
H1459 H 0.25266 0.74658 0.03492 0.0
H1460 H 0.29025 0.74849 0.04116 0.0
H1461 H 0.28303 0.75603 0.02548 0.0
N1462 N 0.26694 0.75328 0.01042 0.0
N1463 N 0.25083 0.76632 0.0102 0.0
C1464 C 0.97345 0.24441 0.25207 0.0
C1465 C 0.97234 0.24386 0.24136 0.0
C1466 C 0.98243 0.24848 0.25645 0.0
C1467 C 0.99038 0.25231 0.25022 0.0
C1468 C 0.9804 0.24748 0.23513 0.0
C1469 C 0.98933 0.25164 0.23953 0.0
C1470 C 1.00003 0.25652 0.25475 0.0
C1471 C 0.97486 0.27732 0.2654 0.0
C1472 C 0.97319 0.27702 0.27606 0.0
C1473 C 0.9836 0.2729 0.26116 0.0
C1474 C 0.99086 0.26803 0.26746 0.0
C1475 C 0.98054 0.27221 0.28234 0.0
C1476 C 0.98931 0.26785 0.27809 0.0
C1477 C 1.00023 0.26343 0.26308 0.0
C1478 C 0.04479 0.27581 0.26622 0.0
C1479 C 0.04605 0.27578 0.27695 0.0
C1480 C 0.03593 0.27161 0.26172 0.0
C1481 C 0.02819 0.2672 0.26783 0.0
C1482 C 0.03825 0.27141 0.28304 0.0
C1483 C 0.0294 0.26723 0.27852 0.0
C1484 C 0.01859 0.26303 0.26322 0.0
C1485 C 0.04414 0.24294 0.25214 0.0
C1486 C 0.04531 0.2427 0.24142 0.0
C1487 C 0.03545 0.24731 0.25654 0.0
C1488 C 0.02779 0.25169 0.25034 0.0
C1489 C 0.03755 0.24697 0.23523 0.0
C1490 C 0.02889 0.25136 0.23964 0.0
C1491 C 0.0184 0.25617 0.25485 0.0
H1492 H 0.96747 0.24149 0.25706 0.0
H1493 H 0.98318 0.2485 0.26472 0.0
H1494 H 0.97975 0.2472 0.22686 0.0
H1495 H 0.99539 0.25442 0.23455 0.0
H1496 H 0.96951 0.28113 0.26032 0.0
H1497 H 0.98474 0.27338 0.25295 0.0
H1498 H 0.97949 0.27168 0.29055 0.0
H1499 H 0.99482 0.26419 0.28312 0.0
H1500 H 0.05055 0.27928 0.26131 0.0
H1501 H 0.03506 0.27197 0.25346 0.0
H1502 H 0.039 0.27114 0.2913 0.0
H1503 H 0.0235 0.26393 0.2834 0.0
H1504 H 0.04984 0.23955 0.25714 0.0
H1505 H 0.03466 0.24713 0.2648 0.0
H1506 H 0.03823 0.24702 0.22696 0.0
H1507 H 0.02307 0.2546 0.23467 0.0
N1508 N 0.00912 0.25324 0.25093 0.0
N1509 N 0.0095 0.26633 0.26702 0.0
C1510 C 0.74151 0.97373 0.26543 0.0
C1511 C 0.74199 0.97185 0.27604 0.0
C1512 C 0.74601 0.98257 0.26124 0.0
C1513 C 0.75105 0.98972 0.26759 0.0
C1514 C 0.74705 0.97901 0.28238 0.0
C1515 C 0.75144 0.98791 0.2782 0.0
C1516 C 0.75555 0.99926 0.26327 0.0
C1517 C 0.77533 0.97339 0.25271 0.0
C1518 C 0.77587 0.97218 0.242 0.0
C1519 C 0.771 0.98215 0.25695 0.0
C1520 C 0.76697 0.98988 0.25061 0.0
C1521 C 0.77195 0.97999 0.23567 0.0
C1522 C 0.7676 0.98875 0.23993 0.0
C1523 C 0.76257 0.99935 0.25503 0.0
C1524 C 0.77607 0.04357 0.25297 0.0
C1525 C 0.77603 0.04524 0.24229 0.0
C1526 C 0.77174 0.03464 0.25715 0.0
C1527 C 0.76718 0.02722 0.25077 0.0
C1528 C 0.77159 0.0377 0.23592 0.0
C1529 C 0.76728 0.02876 0.24011 0.0
C1530 C 0.76264 0.01768 0.25509 0.0
C1531 C 0.74307 0.04368 0.26587 0.0
C1532 C 0.74224 0.0446 0.27657 0.0
C1533 C 0.74736 0.03494 0.26152 0.0
C1534 C 0.75115 0.02701 0.26779 0.0
C1535 C 0.74582 0.03657 0.28282 0.0
C1536 C 0.7502 0.02788 0.27847 0.0
C1537 C 0.75558 0.01758 0.26331 0.0
H1538 H 0.73769 0.96833 0.26036 0.0
H1539 H 0.74546 0.98389 0.25305 0.0
H1540 H 0.74744 0.9778 0.2906 0.0
H1541 H 0.7552 0.99337 0.28324 0.0
H1542 H 0.7782 0.96753 0.25783 0.0
H1543 H 0.77093 0.98293 0.26521 0.0
H1544 H 0.77239 0.97942 0.22741 0.0
H1545 H 0.76469 0.99465 0.23486 0.0
H1546 H 0.77961 0.04909 0.25809 0.0
H1547 H 0.77202 0.0335 0.26538 0.0
H1548 H 0.77133 0.03876 0.22768 0.0
H1549 H 0.76388 0.02311 0.23503 0.0
H1550 H 0.7402 0.04963 0.26084 0.0
H1551 H 0.74758 0.03434 0.25325 0.0
H1552 H 0.74534 0.03706 0.29109 0.0
H1553 H 0.75294 0.02185 0.28348 0.0
N1554 N 0.75239 0.00835 0.2671 0.0
N1555 N 0.76579 0.00857 0.25124 0.0
C1556 C 0.04389 0.77568 0.25335 0.0
C1557 C 0.04524 0.77564 0.24264 0.0
C1558 C 0.03503 0.77143 0.25776 0.0
C1559 C 0.02733 0.76699 0.25158 0.0
C1560 C 0.03745 0.77125 0.23648 0.0
C1561 C 0.02858 0.76705 0.2409 0.0
C1562 C 0.01779 0.76263 0.25612 0.0
C1563 C 0.04354 0.74232 0.26663 0.0
C1564 C 0.04508 0.742 0.27732 0.0
C1565 C 0.03474 0.74676 0.26242 0.0
C1566 C 0.0273 0.7511 0.26878 0.0
C1567 C 0.03755 0.74624 0.28367 0.0
C1568 C 0.02874 0.75068 0.27945 0.0
C1569 C 0.01778 0.75561 0.26442 0.0
C1570 C 0.97365 0.74185 0.26672 0.0
C1571 C 0.97195 0.74213 0.27735 0.0
C1572 C 0.98253 0.74624 0.2625 0.0
C1573 C 0.9899 0.75104 0.26883 0.0
C1574 C 0.97938 0.74686 0.28368 0.0
C1575 C 0.9883 0.75118 0.27946 0.0
C1576 C 0.99941 0.7556 0.26446 0.0
C1577 C 0.97304 0.77479 0.25346 0.0
C1578 C 0.97209 0.77575 0.24275 0.0
C1579 C 0.9819 0.77062 0.25786 0.0
C1580 C 0.98989 0.76705 0.25165 0.0
C1581 C 0.98018 0.77243 0.23656 0.0
C1582 C 0.98897 0.76813 0.24096 0.0
C1583 C 0.99941 0.76266 0.25617 0.0
H1584 H 0.0496 0.77917 0.25833 0.0
H1585 H 0.03413 0.77174 0.266 0.0
H1586 H 0.03825 0.77094 0.22823 0.0
H1587 H 0.02272 0.76372 0.23597 0.0
H1588 H 0.04904 0.73894 0.2615 0.0
H1589 H 0.03368 0.74666 0.25418 0.0
H1590 H 0.03849 0.74623 0.29193 0.0
H1591 H 0.02308 0.75388 0.28453 0.0
H1592 H 0.96806 0.7383 0.26164 0.0
H1593 H 0.98368 0.74586 0.25429 0.0
H1594 H 0.97837 0.74707 0.29191 0.0
H1595 H 0.99393 0.75473 0.2845 0.0
H1596 H 0.96703 0.77746 0.25844 0.0
H1597 H 0.98253 0.77033 0.26613 0.0
H1598 H 0.97966 0.77304 0.22829 0.0
H1599 H 0.99505 0.76557 0.23598 0.0
N1600 N 0.00861 0.76582 0.25231 0.0
N1601 N 0.00859 0.75243 0.26829 0.0
C1602 C 0.25257 0.9742 0.24281 0.0
C1603 C 0.24188 0.97245 0.24265 0.0
C1604 C 0.25674 0.98307 0.24726 0.0
C1605 C 0.25032 0.99036 0.25173 0.0
C1606 C 0.23549 0.97985 0.24703 0.0
C1607 C 0.23966 0.98872 0.25146 0.0
C1608 C 0.25459 0.99988 0.25636 0.0
C1609 C 0.26571 0.97353 0.2757 0.0
C1610 C 0.27645 0.97281 0.27669 0.0
C1611 C 0.26123 0.98232 0.27153 0.0
C1612 C 0.26736 0.99053 0.268 0.0
C1613 C 0.28255 0.98117 0.27341 0.0
C1614 C 0.27806 0.98991 0.26914 0.0
C1615 C 0.26275 0.99998 0.26359 0.0
C1616 C 0.2642 0.04416 0.27705 0.0
C1617 C 0.27488 0.0459 0.27745 0.0
C1618 C 0.26014 0.03523 0.27264 0.0
C1619 C 0.26665 0.02788 0.2684 0.0
C1620 C 0.28139 0.03843 0.27335 0.0
C1621 C 0.27731 0.02951 0.26893 0.0
C1622 C 0.26245 0.01833 0.26376 0.0
C1623 C 0.25156 0.04441 0.2439 0.0
C1624 C 0.24082 0.04542 0.2434 0.0
C1625 C 0.25597 0.03561 0.24814 0.0
C1626 C 0.24975 0.02766 0.25209 0.0
C1627 C 0.23462 0.03735 0.24718 0.0
C1628 C 0.23904 0.02856 0.25142 0.0
C1629 C 0.2543 0.01821 0.25653 0.0
H1630 H 0.25772 0.96879 0.23933 0.0
H1631 H 0.26498 0.98428 0.24712 0.0
H1632 H 0.22724 0.97873 0.24717 0.0
H1633 H 0.23455 0.99426 0.25479 0.0
H1634 H 0.26073 0.96726 0.27806 0.0
H1635 H 0.25294 0.98269 0.27113 0.0
H1636 H 0.29082 0.98106 0.27426 0.0
H1637 H 0.28298 0.99619 0.26667 0.0
H1638 H 0.25897 0.04961 0.28032 0.0
H1639 H 0.2519 0.03402 0.27263 0.0
H1640 H 0.28964 0.03955 0.27343 0.0
H1641 H 0.2825 0.02392 0.2658 0.0
H1642 H 0.25658 0.05047 0.24112 0.0
H1643 H 0.26425 0.035 0.24827 0.0
H1644 H 0.22634 0.03777 0.24675 0.0
H1645 H 0.23407 0.02249 0.25426 0.0
N1646 N 0.25067 0.00898 0.25319 0.0
N1647 N 0.26638 0.00922 0.26693 0.0
C1648 C 0.9731 0.74399 0.75219 0.0
C1649 C 0.97198 0.74333 0.74147 0.0
C1650 C 0.98204 0.74817 0.75655 0.0
C1651 C 0.98999 0.75196 0.75029 0.0
C1652 C 0.98007 0.74691 0.73525 0.0
C1653 C 0.98897 0.75115 0.73961 0.0
C1654 C 0.99959 0.75632 0.75476 0.0
C1655 C 0.97405 0.7768 0.76514 0.0
C1656 C 0.97275 0.77715 0.77584 0.0
C1657 C 0.9828 0.7724 0.76089 0.0
C1658 C 0.99039 0.76811 0.76723 0.0
C1659 C 0.98046 0.773 0.78216 0.0
C1660 C 0.98919 0.76858 0.77791 0.0
C1661 C 0.99978 0.76348 0.76287 0.0
C1662 C 0.04463 0.77555 0.76563 0.0
C1663 C 0.04579 0.77601 0.77636 0.0
C1664 C 0.03567 0.77145 0.76123 0.0
C1665 C 0.02775 0.76756 0.76745 0.0
C1666 C 0.03771 0.77235 0.78255 0.0
C1667 C 0.02879 0.7682 0.77814 0.0
C1668 C 0.01815 0.76322 0.76295 0.0
C1669 C 0.0439 0.74308 0.7524 0.0
C1670 C 0.04492 0.74238 0.7417 0.0
C1671 C 0.03517 0.74745 0.75672 0.0
C1672 C 0.02736 0.75144 0.75042 0.0
C1673 C 0.03699 0.74615 0.73542 0.0
C1674 C 0.02831 0.7506 0.73974 0.0
C1675 C 0.01798 0.75605 0.75483 0.0
H1676 H 0.96704 0.74136 0.75724 0.0
H1677 H 0.98275 0.74837 0.76482 0.0
H1678 H 0.9796 0.74632 0.72698 0.0
H1679 H 0.99505 0.75385 0.73462 0.0
H1680 H 0.96839 0.78011 0.76003 0.0
H1681 H 0.98366 0.77243 0.75263 0.0
H1682 H 0.97969 0.77302 0.79043 0.0
H1683 H 0.99496 0.76541 0.78298 0.0
H1684 H 0.05069 0.77825 0.76062 0.0
H1685 H 0.03494 0.77136 0.75296 0.0
H1686 H 0.03822 0.77279 0.79082 0.0
H1687 H 0.02272 0.76542 0.78311 0.0
H1688 H 0.04976 0.74006 0.75746 0.0
H1689 H 0.03449 0.74762 0.76499 0.0
H1690 H 0.03756 0.7458 0.72715 0.0
H1691 H 0.02237 0.75351 0.7347 0.0
N1692 N 0.0087 0.75297 0.75104 0.0
N1693 N 0.00905 0.76657 0.76667 0.0
C1694 C 0.24263 0.97261 0.76514 0.0
C1695 C 0.24123 0.9718 0.77579 0.0
C1696 C 0.247 0.98147 0.76084 0.0
C1697 C 0.25034 0.98958 0.76714 0.0
C1698 C 0.24435 0.98 0.78206 0.0
C1699 C 0.24886 0.98879 0.77778 0.0
C1700 C 0.25487 0.99914 0.76277 0.0
C1701 C 0.27562 0.97356 0.75308 0.0
C1702 C 0.27639 0.97231 0.74239 0.0
C1703 C 0.27113 0.98231 0.75719 0.0
C1704 C 0.26715 0.98996 0.75072 0.0
C1705 C 0.27259 0.98009 0.73595 0.0
C1706 C 0.26807 0.98882 0.74007 0.0
C1707 C 0.26237 0.99932 0.75494 0.0
C1708 C 0.27504 0.04393 0.75333 0.0
C1709 C 0.27617 0.04523 0.74267 0.0
C1710 C 0.27056 0.035 0.75735 0.0
C1711 C 0.26689 0.02724 0.7508 0.0
C1712 C 0.27269 0.03734 0.73615 0.0
C1713 C 0.26813 0.02844 0.74018 0.0
C1714 C 0.2622 0.01767 0.75493 0.0
C1715 C 0.24188 0.0435 0.76481 0.0
C1716 C 0.24075 0.04445 0.77548 0.0
C1717 C 0.24632 0.03475 0.76061 0.0
C1718 C 0.24994 0.02686 0.76701 0.0
C1719 C 0.24415 0.03643 0.78185 0.0
C1720 C 0.24866 0.02774 0.77765 0.0
C1721 C 0.25467 0.01749 0.76273 0.0
H1722 H 0.24012 0.96648 0.76011 0.0
H1723 H 0.24764 0.98202 0.75258 0.0
H1724 H 0.24339 0.97957 0.79029 0.0
H1725 H 0.25125 0.99496 0.7828 0.0
H1726 H 0.27841 0.96773 0.75829 0.0
H1727 H 0.27079 0.98311 0.76545 0.0
H1728 H 0.27322 0.97951 0.7277 0.0
H1729 H 0.26521 0.99467 0.73491 0.0
H1730 H 0.27757 0.04984 0.75859 0.0
H1731 H 0.27001 0.03414 0.76559 0.0
H1732 H 0.27361 0.03795 0.72793 0.0
H1733 H 0.26552 0.0225 0.73497 0.0
H1734 H 0.23917 0.04944 0.75968 0.0
H1735 H 0.24685 0.03414 0.75236 0.0
H1736 H 0.24345 0.03694 0.7901 0.0
H1737 H 0.25128 0.02173 0.78276 0.0
N1738 N 0.25139 0.00823 0.76636 0.0
N1739 N 0.26566 0.00858 0.75132 0.0
C1740 C 0.04387 0.27575 0.75392 0.0
C1741 C 0.04501 0.27625 0.7432 0.0
C1742 C 0.03492 0.27164 0.75828 0.0
C1743 C 0.02694 0.26782 0.75201 0.0
C1744 C 0.03691 0.27262 0.73697 0.0
C1745 C 0.02797 0.2685 0.74133 0.0
C1746 C 0.01736 0.26344 0.75648 0.0
C1747 C 0.04302 0.24275 0.76644 0.0
C1748 C 0.04445 0.24205 0.77712 0.0
C1749 C 0.03422 0.24728 0.76231 0.0
C1750 C 0.02671 0.25136 0.76877 0.0
C1751 C 0.03682 0.24597 0.78356 0.0
C1752 C 0.02804 0.25053 0.77943 0.0
C1753 C 0.01726 0.25611 0.76451 0.0
C1754 C 0.97258 0.24342 0.76659 0.0
C1755 C 0.97145 0.24242 0.77728 0.0
C1756 C 0.98145 0.24789 0.76242 0.0
C1757 C 0.98932 0.25167 0.76883 0.0
C1758 C 0.97944 0.24603 0.78367 0.0
C1759 C 0.98827 0.25057 0.77948 0.0
C1760 C 0.99888 0.25628 0.76454 0.0
C1761 C 0.97286 0.27627 0.75392 0.0
C1762 C 0.97176 0.27708 0.7432 0.0
C1763 C 0.98168 0.27199 0.75829 0.0
C1764 C 0.98955 0.26825 0.75205 0.0
C1765 C 0.9798 0.27359 0.73699 0.0
C1766 C 0.98858 0.26926 0.74137 0.0
C1767 C 0.99898 0.26364 0.75651 0.0
H1768 H 0.04995 0.27843 0.75896 0.0
H1769 H 0.03422 0.27148 0.76654 0.0
H1770 H 0.03741 0.27307 0.72869 0.0
H1771 H 0.02188 0.26575 0.73632 0.0
H1772 H 0.04862 0.23962 0.76125 0.0
H1773 H 0.03324 0.24748 0.75406 0.0
H1774 H 0.03769 0.24564 0.79182 0.0
H1775 H 0.02232 0.25353 0.78457 0.0
H1776 H 0.96659 0.2408 0.76141 0.0
H1777 H 0.98217 0.24832 0.75416 0.0
H1778 H 0.97898 0.2452 0.79192 0.0
H1779 H 0.9943 0.25326 0.7846 0.0
H1780 H 0.96684 0.27882 0.75896 0.0
H1781 H 0.98234 0.27162 0.76656 0.0
H1782 H 0.97937 0.2743 0.72873 0.0
H1783 H 0.99459 0.2666 0.73637 0.0
N1784 N 0.00822 0.26684 0.75277 0.0
N1785 N 0.00803 0.25289 0.76825 0.0
C1786 C 0.75211 0.97398 0.74361 0.0
C1787 C 0.74139 0.97263 0.74299 0.0
C1788 C 0.7564 0.98287 0.7479 0.0
C1789 C 0.75006 0.99054 0.75185 0.0
C1790 C 0.73508 0.9804 0.74677 0.0
C1791 C 0.73937 0.98926 0.75112 0.0
C1792 C 0.75446 1.00011 0.7563 0.0
C1793 C 0.76552 0.97428 0.77648 0.0
C1794 C 0.77624 0.97304 0.77642 0.0
C1795 C 0.76109 0.98309 0.77228 0.0
C1796 C 0.76727 0.99083 0.76788 0.0
C1797 C 0.7824 0.98088 0.77216 0.0
C1798 C 0.77797 0.9897 0.76801 0.0
C1799 C 0.7627 1.00025 0.76343 0.0
C1800 C 0.76433 0.04452 0.77657 0.0
C1801 C 0.77502 0.04617 0.77707 0.0
C1802 C 0.76023 0.03559 0.77218 0.0
C1803 C 0.76672 0.02816 0.76805 0.0
C1804 C 0.78149 0.03862 0.7731 0.0
C1805 C 0.77739 0.02971 0.76868 0.0
C1806 C 0.76248 0.01859 0.76347 0.0
C1807 C 0.75158 0.04457 0.74351 0.0
C1808 C 0.74084 0.04565 0.74311 0.0
C1809 C 0.75597 0.03576 0.74775 0.0
C1810 C 0.74974 0.02788 0.7518 0.0
C1811 C 0.73463 0.03764 0.74698 0.0
C1812 C 0.73903 0.02884 0.75122 0.0
C1813 C 0.75428 0.01845 0.75629 0.0
H1814 H 0.75719 0.96824 0.74059 0.0
H1815 H 0.76467 0.9838 0.748 0.0
H1816 H 0.7268 0.97959 0.74648 0.0
H1817 H 0.73431 0.99509 0.75401 0.0
H1818 H 0.76054 0.96839 0.77966 0.0
H1819 H 0.75283 0.98387 0.7725 0.0
H1820 H 0.79069 0.98026 0.77215 0.0
H1821 H 0.78291 0.99561 0.76479 0.0
H1822 H 0.75912 0.05006 0.77975 0.0
H1823 H 0.75198 0.03446 0.77212 0.0
H1824 H 0.78975 0.03966 0.77328 0.0
H1825 H 0.78256 0.02405 0.76564 0.0
H1826 H 0.75661 0.05059 0.74065 0.0
H1827 H 0.76425 0.03512 0.74782 0.0
H1828 H 0.72635 0.0381 0.74663 0.0
H1829 H 0.73405 0.02281 0.75415 0.0
N1830 N 0.75056 0.00921 0.75308 0.0
N1831 N 0.7664 0.00949 0.76667 0.0
C1832 C 0.25168 0.74144 0.54355 0.0
C1833 C 0.24105 0.74186 0.54531 0.0
C1834 C 0.25595 0.74584 0.53472 0.0
C1835 C 0.24968 0.75073 0.52744 0.0
C1836 C 0.23479 0.74675 0.53801 0.0
C1837 C 0.23905 0.75105 0.52911 0.0
C1838 C 0.2541 0.75515 0.5179 0.0
C1839 C 0.26514 0.77506 0.54389 0.0
C1840 C 0.27587 0.77548 0.54522 0.0
C1841 C 0.26077 0.77073 0.53506 0.0
C1842 C 0.26701 0.76659 0.5274 0.0
C1843 C 0.2821 0.77146 0.53747 0.0
C1844 C 0.27772 0.76712 0.52865 0.0
C1845 C 0.26249 0.76215 0.51789 0.0
C1846 C 0.26532 0.77421 0.47305 0.0
C1847 C 0.27604 0.77516 0.47216 0.0
C1848 C 0.26089 0.76998 0.48189 0.0
C1849 C 0.2671 0.76637 0.48997 0.0
C1850 C 0.28223 0.77176 0.48034 0.0
C1851 C 0.27781 0.76742 0.48913 0.0
C1852 C 0.26253 0.76201 0.49952 0.0
C1853 C 0.25177 0.74112 0.47406 0.0
C1854 C 0.24112 0.74142 0.47224 0.0
C1855 C 0.25604 0.74554 0.48289 0.0
C1856 C 0.24976 0.75035 0.4901 0.0
C1857 C 0.23485 0.74616 0.47952 0.0
C1858 C 0.23911 0.75049 0.4884 0.0
C1859 C 0.25417 0.75496 0.49956 0.0
H1860 H 0.2567 0.73775 0.54905 0.0
H1861 H 0.26415 0.74533 0.53353 0.0
H1862 H 0.22656 0.7471 0.53909 0.0
H1863 H 0.23405 0.75469 0.52356 0.0
H1864 H 0.2601 0.77827 0.54958 0.0
H1865 H 0.2525 0.77078 0.53417 0.0
H1866 H 0.29038 0.77157 0.53825 0.0
H1867 H 0.28271 0.76407 0.52282 0.0
H1868 H 0.26033 0.77695 0.46698 0.0
H1869 H 0.25261 0.7697 0.48245 0.0
H1870 H 0.29052 0.77236 0.47989 0.0
H1871 H 0.28278 0.76482 0.49527 0.0
H1872 H 0.25682 0.73756 0.46859 0.0
H1873 H 0.26426 0.74515 0.48412 0.0
H1874 H 0.22661 0.74639 0.47843 0.0
H1875 H 0.2341 0.75405 0.4939 0.0
N1876 N 0.25025 0.75189 0.50875 0.0
N1877 N 0.26638 0.76525 0.50869 0.0
C1878 C 0.77527 0.75267 0.54517 0.0
C1879 C 0.77526 0.74197 0.54656 0.0
C1880 C 0.77103 0.75702 0.53631 0.0
C1881 C 0.76659 0.75079 0.5287 0.0
C1882 C 0.77091 0.73575 0.53885 0.0
C1883 C 0.76668 0.74011 0.53 0.0
C1884 C 0.76228 0.75527 0.51915 0.0
C1885 C 0.74228 0.76609 0.54495 0.0
C1886 C 0.74237 0.77678 0.54628 0.0
C1887 C 0.7465 0.76174 0.53615 0.0
C1888 C 0.75097 0.76798 0.52853 0.0
C1889 C 0.74671 0.78301 0.53857 0.0
C1890 C 0.7509 0.77866 0.52977 0.0
C1891 C 0.75534 0.76352 0.51908 0.0
C1892 C 0.74328 0.76643 0.47433 0.0
C1893 C 0.74279 0.77714 0.47325 0.0
C1894 C 0.74735 0.762 0.48323 0.0
C1895 C 0.75121 0.76819 0.49119 0.0
C1896 C 0.74642 0.7833 0.48136 0.0
C1897 C 0.75056 0.77887 0.49022 0.0
C1898 C 0.7555 0.76364 0.50073 0.0
C1899 C 0.776 0.75348 0.47513 0.0
C1900 C 0.77609 0.74282 0.47359 0.0
C1901 C 0.77161 0.7576 0.48395 0.0
C1902 C 0.76711 0.75117 0.49138 0.0
C1903 C 0.77173 0.73639 0.48114 0.0
C1904 C 0.76735 0.74052 0.48995 0.0
C1905 C 0.7625 0.75543 0.50081 0.0
H1906 H 0.77873 0.75768 0.55084 0.0
H1907 H 0.77135 0.76527 0.53536 0.0
H1908 H 0.77067 0.7275 0.53971 0.0
H1909 H 0.76338 0.73514 0.5242 0.0
H1910 H 0.73903 0.76107 0.55074 0.0
H1911 H 0.74621 0.7535 0.53528 0.0
H1912 H 0.74675 0.79127 0.53925 0.0
H1913 H 0.75417 0.78364 0.52395 0.0
H1914 H 0.74062 0.76143 0.46825 0.0
H1915 H 0.74742 0.75373 0.4839 0.0
H1916 H 0.74597 0.79157 0.48092 0.0
H1917 H 0.75332 0.78382 0.49631 0.0
H1918 H 0.77947 0.75866 0.4696 0.0
H1919 H 0.77183 0.76583 0.485 0.0
H1920 H 0.77158 0.72816 0.48018 0.0
H1921 H 0.764 0.73539 0.49561 0.0
N1922 N 0.76553 0.75152 0.51002 0.0
N1923 N 0.75228 0.7674 0.50987 0.0
C1924 C 0.77594 0.26493 0.47363 0.0
C1925 C 0.7763 0.27564 0.47229 0.0
C1926 C 0.77164 0.26056 0.48248 0.0
C1927 C 0.76747 0.26679 0.49013 0.0
C1928 C 0.77232 0.28184 0.48007 0.0
C1929 C 0.76801 0.27747 0.4889 0.0
C1930 C 0.76292 0.26231 0.49961 0.0
C1931 C 0.74311 0.25128 0.47335 0.0
C1932 C 0.74221 0.24058 0.47242 0.0
C1933 C 0.7475 0.25568 0.48213 0.0
C1934 C 0.75132 0.24947 0.4901 0.0
C1935 C 0.74584 0.23438 0.48048 0.0
C1936 C 0.75033 0.23879 0.48922 0.0
C1937 C 0.75581 0.254 0.4996 0.0
C1938 C 0.74221 0.25149 0.54366 0.0
C1939 C 0.74219 0.24081 0.54524 0.0
C1940 C 0.74663 0.25583 0.53487 0.0
C1941 C 0.75121 0.24961 0.52746 0.0
C1942 C 0.74674 0.23461 0.53775 0.0
C1943 C 0.75111 0.23895 0.52894 0.0
C1944 C 0.75571 0.25407 0.51797 0.0
C1945 C 0.77546 0.26528 0.54417 0.0
C1946 C 0.77559 0.27599 0.54542 0.0
C1947 C 0.77129 0.26084 0.53531 0.0
C1948 C 0.76707 0.26699 0.52751 0.0
C1949 C 0.7715 0.28213 0.53753 0.0
C1950 C 0.76736 0.27768 0.52866 0.0
C1951 C 0.76276 0.26241 0.51798 0.0
H1952 H 0.77889 0.2599 0.4678 0.0
H1953 H 0.77161 0.25231 0.48334 0.0
H1954 H 0.77264 0.29011 0.47942 0.0
H1955 H 0.765 0.28246 0.49475 0.0
H1956 H 0.7402 0.25627 0.46737 0.0
H1957 H 0.74776 0.26395 0.48274 0.0
H1958 H 0.74531 0.22611 0.48 0.0
H1959 H 0.75309 0.23381 0.49528 0.0
H1960 H 0.73861 0.25651 0.54913 0.0
H1961 H 0.74634 0.26406 0.53378 0.0
H1962 H 0.74702 0.22638 0.53873 0.0
H1963 H 0.75454 0.23398 0.52332 0.0
H1964 H 0.77849 0.26032 0.5501 0.0
H1965 H 0.77144 0.25259 0.53452 0.0
H1966 H 0.77163 0.2904 0.53814 0.0
H1967 H 0.76429 0.2826 0.5227 0.0
N1968 N 0.76602 0.26621 0.5088 0.0
N1969 N 0.75258 0.25018 0.50878 0.0
C1970 C 0.25355 0.277 0.47542 0.0
C1971 C 0.24291 0.27682 0.47347 0.0
C1972 C 0.25753 0.27267 0.48441 0.0
C1973 C 0.25097 0.26803 0.49162 0.0
C1974 C 0.23636 0.27229 0.4808 0.0
C1975 C 0.24035 0.26802 0.48981 0.0
C1976 C 0.25509 0.2634 0.50115 0.0
C1977 C 0.26533 0.24405 0.47479 0.0
C1978 C 0.27605 0.24324 0.47377 0.0
C1979 C 0.26106 0.2481 0.4837 0.0
C1980 C 0.26739 0.25166 0.49172 0.0
C1981 C 0.28235 0.24655 0.48195 0.0
C1982 C 0.27807 0.25068 0.49081 0.0
C1983 C 0.263 0.25607 0.50121 0.0
C1984 C 0.26477 0.24319 0.54577 0.0
C1985 C 0.27544 0.24214 0.54691 0.0
C1986 C 0.26063 0.2476 0.53689 0.0
C1987 C 0.2671 0.2513 0.52908 0.0
C1988 C 0.28188 0.2456 0.53897 0.0
C1989 C 0.27775 0.25012 0.53015 0.0
C1990 C 0.26288 0.25596 0.51956 0.0
C1991 C 0.25297 0.27609 0.54558 0.0
C1992 C 0.24229 0.2771 0.54658 0.0
C1993 C 0.25715 0.27169 0.5368 0.0
C1994 C 0.25071 0.26797 0.52892 0.0
C1995 C 0.23588 0.2736 0.53859 0.0
C1996 C 0.24005 0.26911 0.52985 0.0
C1997 C 0.25499 0.26334 0.51948 0.0
H1998 H 0.25881 0.28061 0.47008 0.0
H1999 H 0.26574 0.27299 0.48575 0.0
H2000 H 0.22815 0.27189 0.47952 0.0
H2001 H 0.23514 0.26453 0.4953 0.0
H2002 H 0.26022 0.24164 0.46867 0.0
H2003 H 0.25278 0.24842 0.4843 0.0
H2004 H 0.29061 0.24585 0.48157 0.0
H2005 H 0.28312 0.2532 0.49695 0.0
H2006 H 0.2596 0.24041 0.55167 0.0
H2007 H 0.25237 0.24804 0.53612 0.0
H2008 H 0.29014 0.24493 0.53964 0.0
H2009 H 0.28291 0.25279 0.52419 0.0
H2010 H 0.25813 0.2789 0.55151 0.0
H2011 H 0.26541 0.27127 0.53613 0.0
H2012 H 0.22762 0.27421 0.53914 0.0
H2013 H 0.23493 0.26642 0.52385 0.0
N2014 N 0.25137 0.26669 0.51027 0.0
N2015 N 0.2666 0.2527 0.51042 0.0
C2016 C 0.74209 0.47312 0.76466 0.0
C2017 C 0.74118 0.47181 0.77534 0.0
C2018 C 0.74642 0.4821 0.76057 0.0
C2019 C 0.75012 0.48989 0.76706 0.0
C2020 C 0.74468 0.47973 0.7818 0.0
C2021 C 0.74907 0.48867 0.7777 0.0
C2022 C 0.75471 0.49948 0.76287 0.0
C2023 C 0.77519 0.47378 0.7531 0.0
C2024 C 0.77629 0.47277 0.74243 0.0
C2025 C 0.7707 0.48251 0.75725 0.0
C2026 C 0.767 0.49034 0.75082 0.0
C2027 C 0.77281 0.48072 0.73602 0.0
C2028 C 0.76824 0.48941 0.74018 0.0
C2029 C 0.76224 0.4997 0.75508 0.0
C2030 C 0.77501 0.54428 0.75362 0.0
C2031 C 0.77613 0.54558 0.74296 0.0
C2032 C 0.7705 0.53536 0.75764 0.0
C2033 C 0.7668 0.52762 0.75109 0.0
C2034 C 0.77263 0.5377 0.73645 0.0
C2035 C 0.76804 0.52883 0.74047 0.0
C2036 C 0.76211 0.51804 0.75521 0.0
C2037 C 0.74202 0.54393 0.76538 0.0
C2038 C 0.74092 0.5448 0.77608 0.0
C2039 C 0.74634 0.53518 0.76108 0.0
C2040 C 0.74988 0.52717 0.76737 0.0
C2041 C 0.74419 0.53662 0.78232 0.0
C2042 C 0.74859 0.52792 0.77802 0.0
C2043 C 0.75457 0.51782 0.76299 0.0
H2044 H 0.73953 0.46718 0.75944 0.0
H2045 H 0.74685 0.48295 0.75232 0.0
H2046 H 0.74391 0.4791 0.79004 0.0
H2047 H 0.75171 0.49463 0.78287 0.0
H2048 H 0.77797 0.4679 0.75825 0.0
H2049 H 0.77021 0.48317 0.76551 0.0
H2050 H 0.77349 0.48017 0.72777 0.0
H2051 H 0.76557 0.49537 0.73505 0.0
H2052 H 0.77755 0.55019 0.75889 0.0
H2053 H 0.76995 0.53451 0.76588 0.0
H2054 H 0.77356 0.53831 0.72822 0.0
H2055 H 0.76542 0.5229 0.73526 0.0
H2056 H 0.73965 0.55006 0.76031 0.0
H2057 H 0.74691 0.53468 0.75282 0.0
H2058 H 0.74326 0.53687 0.79056 0.0
H2059 H 0.75107 0.5218 0.78305 0.0
N2060 N 0.75125 0.50854 0.76654 0.0
N2061 N 0.76556 0.50897 0.75153 0.0
C2062 C 0.25281 0.47435 0.7436 0.0
C2063 C 0.24211 0.47311 0.74274 0.0
C2064 C 0.25708 0.48326 0.74787 0.0
C2065 C 0.25073 0.49102 0.75162 0.0
C2066 C 0.23577 0.48098 0.74626 0.0
C2067 C 0.24004 0.48983 0.75063 0.0
C2068 C 0.25511 0.50059 0.7561 0.0
C2069 C 0.26587 0.47485 0.77647 0.0
C2070 C 0.2766 0.47362 0.77676 0.0
C2071 C 0.26155 0.48363 0.77211 0.0
C2072 C 0.26783 0.49134 0.76782 0.0
C2073 C 0.28286 0.48145 0.77262 0.0
C2074 C 0.27853 0.49023 0.76825 0.0
C2075 C 0.26336 0.50075 0.76323 0.0
C2076 C 0.26509 0.54462 0.77695 0.0
C2077 C 0.27573 0.54658 0.7768 0.0
C2078 C 0.26098 0.53576 0.77245 0.0
C2079 C 0.26741 0.52867 0.76769 0.0
C2080 C 0.28216 0.53945 0.77206 0.0
C2081 C 0.27804 0.53054 0.76764 0.0
C2082 C 0.26316 0.51909 0.76318 0.0
C2083 C 0.25175 0.54497 0.74329 0.0
C2084 C 0.241 0.54593 0.74301 0.0
C2085 C 0.25629 0.53626 0.74759 0.0
C2086 C 0.25019 0.52835 0.7518 0.0
C2087 C 0.23493 0.53795 0.74716 0.0
C2088 C 0.23947 0.52925 0.75144 0.0
C2089 C 0.25487 0.51893 0.75614 0.0
H2090 H 0.2579 0.46851 0.74078 0.0
H2091 H 0.26536 0.48411 0.74814 0.0
H2092 H 0.22749 0.48023 0.74575 0.0
H2093 H 0.23496 0.49573 0.75334 0.0
H2094 H 0.26081 0.46909 0.77977 0.0
H2095 H 0.25329 0.48443 0.77218 0.0
H2096 H 0.29114 0.48075 0.77261 0.0
H2097 H 0.28355 0.4961 0.76508 0.0
H2098 H 0.25994 0.54997 0.7805 0.0
H2099 H 0.25277 0.53439 0.77279 0.0
H2100 H 0.2904 0.54067 0.77194 0.0
H2101 H 0.28317 0.52513 0.76412 0.0
H2102 H 0.25668 0.55084 0.73999 0.0
H2103 H 0.26457 0.53564 0.74746 0.0
H2104 H 0.22664 0.53846 0.7472 0.0
H2105 H 0.23459 0.52324 0.75457 0.0
N2106 N 0.25116 0.50969 0.75293 0.0
N2107 N 0.2671 0.51 0.7664 0.0
C2108 C 0.2435 0.47292 0.26587 0.0
C2109 C 0.24258 0.47212 0.27658 0.0
C2110 C 0.24756 0.48182 0.26137 0.0
C2111 C 0.25106 0.49 0.2675 0.0
C2112 C 0.2459 0.48036 0.28269 0.0
C2113 C 0.25009 0.48921 0.27819 0.0
C2114 C 0.25513 0.49965 0.26287 0.0
C2115 C 0.27663 0.47494 0.25251 0.0
C2116 C 0.2761 0.47304 0.24191 0.0
C2117 C 0.27206 0.48363 0.25667 0.0
C2118 C 0.26689 0.49061 0.25031 0.0
C2119 C 0.27097 0.48008 0.23556 0.0
C2120 C 0.26651 0.48883 0.23971 0.0
C2121 C 0.26213 0.49992 0.25461 0.0
C2122 C 0.27413 0.54462 0.25244 0.0
C2123 C 0.27496 0.54589 0.24175 0.0
C2124 C 0.26979 0.53569 0.2566 0.0
C2125 C 0.26595 0.5279 0.25018 0.0
C2126 C 0.27124 0.53801 0.23535 0.0
C2127 C 0.26683 0.52911 0.23952 0.0
C2128 C 0.26162 0.51824 0.25451 0.0
C2129 C 0.24079 0.54335 0.26519 0.0
C2130 C 0.24116 0.54496 0.27585 0.0
C2131 C 0.24515 0.53461 0.26089 0.0
C2132 C 0.24995 0.52729 0.26717 0.0
C2133 C 0.24587 0.53755 0.28211 0.0
C2134 C 0.25013 0.52877 0.27782 0.0
C2135 C 0.25458 0.51797 0.26274 0.0
H2136 H 0.24081 0.46677 0.26096 0.0
H2137 H 0.24777 0.48236 0.25309 0.0
H2138 H 0.24532 0.47995 0.29096 0.0
H2139 H 0.25261 0.49543 0.2831 0.0
H2140 H 0.2805 0.46966 0.25761 0.0
H2141 H 0.27262 0.48493 0.26485 0.0
H2142 H 0.27054 0.47889 0.22736 0.0
H2143 H 0.26264 0.49415 0.23464 0.0
H2144 H 0.27682 0.55053 0.25763 0.0
H2145 H 0.26956 0.53484 0.26486 0.0
H2146 H 0.27193 0.53862 0.2271 0.0
H2147 H 0.26409 0.52315 0.23441 0.0
H2148 H 0.23725 0.54892 0.26015 0.0
H2149 H 0.24473 0.53356 0.25267 0.0
H2150 H 0.24615 0.53849 0.29035 0.0
H2151 H 0.25369 0.52318 0.28282 0.0
N2152 N 0.25168 0.50869 0.26662 0.0
N2153 N 0.26504 0.5092 0.25073 0.0
C2154 C 0.7521 0.47387 0.24312 0.0
C2155 C 0.74138 0.47234 0.2431 0.0
C2156 C 0.75648 0.48276 0.24733 0.0
C2157 C 0.75025 0.49029 0.25168 0.0
C2158 C 0.73517 0.47997 0.24733 0.0
C2159 C 0.73956 0.48886 0.25151 0.0
C2160 C 0.75474 0.49985 0.25603 0.0
C2161 C 0.76579 0.47404 0.27623 0.0
C2162 C 0.77651 0.47278 0.27624 0.0
C2163 C 0.76137 0.48282 0.27195 0.0
C2164 C 0.76756 0.49052 0.2675 0.0
C2165 C 0.78268 0.48057 0.27187 0.0
C2166 C 0.77826 0.48936 0.26762 0.0
C2167 C 0.76301 0.49997 0.26311 0.0
C2168 C 0.76455 0.5441 0.27666 0.0
C2169 C 0.77524 0.54566 0.27739 0.0
C2170 C 0.76047 0.53525 0.27208 0.0
C2171 C 0.76698 0.52783 0.26797 0.0
C2172 C 0.78173 0.53812 0.27342 0.0
C2173 C 0.77764 0.5293 0.26881 0.0
C2174 C 0.76278 0.51831 0.26324 0.0
C2175 C 0.75181 0.54453 0.24363 0.0
C2176 C 0.74109 0.54526 0.2426 0.0
C2177 C 0.75624 0.53577 0.24792 0.0
C2178 C 0.75004 0.52763 0.25152 0.0
C2179 C 0.73491 0.53701 0.24596 0.0
C2180 C 0.73934 0.5283 0.25036 0.0
C2181 C 0.75459 0.5182 0.25604 0.0
H2182 H 0.75711 0.46815 0.23995 0.0
H2183 H 0.76474 0.48378 0.24712 0.0
H2184 H 0.72689 0.47913 0.24729 0.0
H2185 H 0.73458 0.49461 0.25469 0.0
H2186 H 0.76079 0.46834 0.27971 0.0
H2187 H 0.75312 0.48365 0.27224 0.0
H2188 H 0.79094 0.47984 0.27161 0.0
H2189 H 0.7832 0.49521 0.26431 0.0
H2190 H 0.7593 0.54974 0.27956 0.0
H2191 H 0.75222 0.53419 0.27182 0.0
H2192 H 0.78999 0.53895 0.27402 0.0
H2193 H 0.78284 0.52362 0.26585 0.0
H2194 H 0.75679 0.55067 0.24094 0.0
H2195 H 0.76452 0.53533 0.24832 0.0
H2196 H 0.72663 0.53735 0.24532 0.0
H2197 H 0.73437 0.52211 0.25295 0.0
N2198 N 0.75085 0.50896 0.25282 0.0
N2199 N 0.76671 0.50919 0.26639 0.0
C2200 C 0.54432 0.25297 0.74253 0.0
C2201 C 0.54536 0.24227 0.74195 0.0
C2202 C 0.53557 0.25728 0.74685 0.0
C2203 C 0.5277 0.25099 0.75086 0.0
C2204 C 0.5374 0.236 0.74581 0.0
C2205 C 0.52866 0.24031 0.75017 0.0
C2206 C 0.51827 0.25544 0.75532 0.0
C2207 C 0.54432 0.26556 0.77586 0.0
C2208 C 0.54592 0.27624 0.77618 0.0
C2209 C 0.53543 0.26141 0.77137 0.0
C2210 C 0.528 0.26784 0.76701 0.0
C2211 C 0.53841 0.28265 0.7719 0.0
C2212 C 0.52952 0.27849 0.76742 0.0
C2213 C 0.51842 0.26357 0.76245 0.0
C2214 C 0.47379 0.26633 0.77478 0.0
C2215 C 0.47293 0.27702 0.77559 0.0
C2216 C 0.48257 0.26198 0.77055 0.0
C2217 C 0.49061 0.26823 0.76681 0.0
C2218 C 0.48107 0.28326 0.77206 0.0
C2219 C 0.48981 0.2789 0.76775 0.0
C2220 C 0.50005 0.26374 0.76238 0.0
C2221 C 0.47402 0.25367 0.74183 0.0
C2222 C 0.47221 0.24302 0.74183 0.0
C2223 C 0.48299 0.25779 0.74617 0.0
C2224 C 0.49032 0.25135 0.75068 0.0
C2225 C 0.47966 0.23659 0.74621 0.0
C2226 C 0.48864 0.24072 0.75053 0.0
C2227 C 0.4999 0.2556 0.75524 0.0
H2228 H 0.55019 0.25804 0.73944 0.0
H2229 H 0.5349 0.26553 0.74694 0.0
H2230 H 0.53796 0.22773 0.74558 0.0
H2231 H 0.52267 0.23528 0.75311 0.0
H2232 H 0.54983 0.2604 0.77926 0.0
H2233 H 0.5343 0.25318 0.77144 0.0
H2234 H 0.53943 0.29089 0.77192 0.0
H2235 H 0.52386 0.28361 0.76418 0.0
H2236 H 0.46776 0.2613 0.77762 0.0
H2237 H 0.48312 0.25371 0.77033 0.0
H2238 H 0.48064 0.29152 0.77252 0.0
H2239 H 0.49593 0.28391 0.76504 0.0
H2240 H 0.46857 0.25884 0.73833 0.0
H2241 H 0.48424 0.26601 0.74593 0.0
H2242 H 0.4785 0.22837 0.74644 0.0
H2243 H 0.49423 0.2356 0.75389 0.0
N2244 N 0.509 0.25174 0.75206 0.0
N2245 N 0.50932 0.26743 0.76563 0.0
C2246 C 0.47305 0.76617 0.74358 0.0
C2247 C 0.47183 0.77687 0.74331 0.0
C2248 C 0.48185 0.76184 0.74791 0.0
C2249 C 0.4896 0.76808 0.75219 0.0
C2250 C 0.47969 0.78311 0.74748 0.0
C2251 C 0.48849 0.77876 0.75181 0.0
C2252 C 0.49908 0.76359 0.75665 0.0
C2253 C 0.47302 0.75289 0.77679 0.0
C2254 C 0.47151 0.74219 0.77705 0.0
C2255 C 0.48189 0.75719 0.77244 0.0
C2256 C 0.4894 0.7509 0.76815 0.0
C2257 C 0.47911 0.73593 0.77285 0.0
C2258 C 0.48798 0.74023 0.76851 0.0
C2259 C 0.49897 0.75532 0.76371 0.0
C2260 C 0.54366 0.75211 0.77606 0.0
C2261 C 0.5446 0.74138 0.77648 0.0
C2262 C 0.53484 0.75661 0.77194 0.0
C2263 C 0.52681 0.75049 0.76798 0.0
C2264 C 0.53644 0.73529 0.77271 0.0
C2265 C 0.52764 0.73979 0.76856 0.0
C2266 C 0.51734 0.75512 0.76363 0.0
C2267 C 0.54327 0.7653 0.74317 0.0
C2268 C 0.54503 0.77596 0.74294 0.0
C2269 C 0.53434 0.76119 0.74757 0.0
C2270 C 0.52702 0.76763 0.75195 0.0
C2271 C 0.53759 0.78239 0.74718 0.0
C2272 C 0.52866 0.77828 0.75158 0.0
C2273 C 0.51745 0.76338 0.75655 0.0
H2274 H 0.46728 0.76113 0.74025 0.0
H2275 H 0.48264 0.75359 0.74779 0.0
H2276 H 0.479 0.79137 0.74751 0.0
H2277 H 0.49439 0.78375 0.75498 0.0
H2278 H 0.46743 0.75794 0.78013 0.0
H2279 H 0.48293 0.76543 0.77256 0.0
H2280 H 0.47818 0.72767 0.7728 0.0
H2281 H 0.49369 0.73521 0.76532 0.0
H2282 H 0.54979 0.75706 0.77884 0.0
H2283 H 0.5343 0.76488 0.77189 0.0
H2284 H 0.53678 0.72701 0.77308 0.0
H2285 H 0.5215 0.73489 0.76572 0.0
H2286 H 0.54871 0.76012 0.73979 0.0
H2287 H 0.53312 0.75297 0.74745 0.0
H2288 H 0.53872 0.79063 0.74722 0.0
H2289 H 0.52309 0.78341 0.75482 0.0
N2290 N 0.50832 0.76732 0.75341 0.0
N2291 N 0.5081 0.75139 0.76685 0.0
C2292 C 0.47433 0.77654 0.26534 0.0
C2293 C 0.47282 0.7764 0.27603 0.0
C2294 C 0.48308 0.77221 0.26104 0.0
C2295 C 0.49052 0.76757 0.26731 0.0
C2296 C 0.48035 0.77181 0.28228 0.0
C2297 C 0.48912 0.76752 0.27797 0.0
C2298 C 0.49995 0.76313 0.26286 0.0
C2299 C 0.4737 0.74329 0.25177 0.0
C2300 C 0.47218 0.74354 0.24107 0.0
C2301 C 0.48261 0.74748 0.25616 0.0
C2302 C 0.49018 0.75207 0.24997 0.0
C2303 C 0.47983 0.74809 0.2349 0.0
C2304 C 0.48876 0.75223 0.2393 0.0
C2305 C 0.4998 0.75628 0.2545 0.0
C2306 C 0.54384 0.74258 0.25209 0.0
C2307 C 0.54506 0.74233 0.24137 0.0
C2308 C 0.53514 0.747 0.25643 0.0
C2309 C 0.52754 0.7514 0.25018 0.0
C2310 C 0.53736 0.74661 0.23514 0.0
C2311 C 0.52869 0.75104 0.23949 0.0
C2312 C 0.51816 0.75596 0.25463 0.0
C2313 C 0.5448 0.77517 0.26592 0.0
C2314 C 0.54577 0.77575 0.27664 0.0
C2315 C 0.53591 0.77102 0.26143 0.0
C2316 C 0.52791 0.76713 0.26758 0.0
C2317 C 0.53768 0.77206 0.28277 0.0
C2318 C 0.52885 0.7678 0.27828 0.0
C2319 C 0.51832 0.76287 0.26298 0.0
H2320 H 0.46883 0.78019 0.26029 0.0
H2321 H 0.4841 0.77263 0.25281 0.0
H2322 H 0.47943 0.77142 0.29051 0.0
H2323 H 0.49477 0.76405 0.28297 0.0
H2324 H 0.46809 0.73967 0.25675 0.0
H2325 H 0.48366 0.74699 0.26439 0.0
H2326 H 0.47888 0.74854 0.22666 0.0
H2327 H 0.49453 0.75567 0.23437 0.0
H2328 H 0.54951 0.73919 0.25712 0.0
H2329 H 0.53431 0.74685 0.26469 0.0
H2330 H 0.53808 0.74664 0.22687 0.0
H2331 H 0.52291 0.7543 0.23449 0.0
H2332 H 0.55082 0.77813 0.261 0.0
H2333 H 0.53525 0.77098 0.25315 0.0
H2334 H 0.53823 0.77235 0.29106 0.0
H2335 H 0.52276 0.76497 0.2832 0.0
N2336 N 0.50921 0.7661 0.26679 0.0
N2337 N 0.50889 0.75302 0.25069 0.0
C2338 C 0.47267 0.26645 0.24463 0.0
C2339 C 0.47164 0.27715 0.24383 0.0
C2340 C 0.48149 0.26216 0.24899 0.0
C2341 C 0.48943 0.26847 0.25284 0.0
C2342 C 0.47968 0.28343 0.24755 0.0
C2343 C 0.48848 0.27914 0.25196 0.0
C2344 C 0.49897 0.26402 0.25724 0.0
C2345 C 0.47332 0.25339 0.27797 0.0
C2346 C 0.4716 0.24271 0.2779 0.0
C2347 C 0.48217 0.25767 0.27356 0.0
C2348 C 0.48947 0.25139 0.26893 0.0
C2349 C 0.47899 0.23646 0.27331 0.0
C2350 C 0.48786 0.24075 0.26896 0.0
C2351 C 0.49897 0.25579 0.26435 0.0
C2352 C 0.54405 0.25253 0.27571 0.0
C2353 C 0.54464 0.24184 0.2768 0.0
C2354 C 0.53522 0.25705 0.27162 0.0
C2355 C 0.52688 0.25096 0.26827 0.0
C2356 C 0.53621 0.23576 0.27368 0.0
C2357 C 0.52744 0.24027 0.26947 0.0
C2358 C 0.51735 0.2556 0.26403 0.0
C2359 C 0.54256 0.26574 0.24254 0.0
C2360 C 0.54468 0.27633 0.24291 0.0
C2361 C 0.53373 0.26165 0.24713 0.0
C2362 C 0.52681 0.26806 0.25217 0.0
C2363 C 0.53771 0.28273 0.24791 0.0
C2364 C 0.52882 0.27865 0.2524 0.0
C2365 C 0.51734 0.26384 0.25692 0.0
H2366 H 0.46664 0.26134 0.24193 0.0
H2367 H 0.48213 0.2539 0.24922 0.0
H2368 H 0.47928 0.29169 0.24691 0.0
H2369 H 0.49455 0.28418 0.25471 0.0
H2370 H 0.46793 0.25844 0.28161 0.0
H2371 H 0.48336 0.26589 0.27387 0.0
H2372 H 0.4779 0.22823 0.27296 0.0
H2373 H 0.49341 0.23574 0.26547 0.0
H2374 H 0.55033 0.25743 0.27823 0.0
H2375 H 0.53488 0.26532 0.27125 0.0
H2376 H 0.53644 0.2275 0.27439 0.0
H2377 H 0.5211 0.23538 0.26707 0.0
H2378 H 0.5478 0.26061 0.23878 0.0
H2379 H 0.53225 0.25348 0.24669 0.0
H2380 H 0.53907 0.29093 0.24821 0.0
H2381 H 0.52354 0.28375 0.25616 0.0
N2382 N 0.50817 0.26775 0.25388 0.0
N2383 N 0.50814 0.25189 0.26739 0.0
H2384 H 0.21739 0.20627 0.13501 0.0
H2385 H 0.22376 0.21476 0.11952 0.0
H2386 H 0.19796 0.20271 0.10237 0.0
H2387 H 0.19166 0.19398 0.11781 0.0
H2388 H 0.2157 0.20024 0.09209 0.0
H2389 H 0.1991 0.22788 0.1091 0.0
H2390 H 0.1953 0.23937 0.1235 0.0
H2391 H 0.22672 0.24969 0.12415 0.0
H2392 H 0.23074 0.23815 0.10983 0.0
H2393 H 0.22437 0.23011 0.0473 0.0
H2394 H 0.21677 0.22253 0.06267 0.0
H2395 H 0.24141 0.23521 0.08103 0.0
H2396 H 0.24882 0.24321 0.06575 0.0
H2397 H 0.22372 0.23746 0.09058 0.0
H2398 H 0.24052 0.20953 0.07407 0.0
H2399 H 0.24453 0.19795 0.0598 0.0
H2400 H 0.21299 0.18807 0.05838 0.0
H2401 H 0.20877 0.1997 0.07256 0.0
C2402 C 0.21307 0.2054 0.12794 0.0
C2403 C 0.20401 0.19942 0.12767 0.0
C2404 C 0.21668 0.21034 0.1191 0.0
C2405 C 0.2113 0.20946 0.10978 0.0
C2406 C 0.20223 0.20353 0.10948 0.0
C2407 C 0.19859 0.19861 0.11833 0.0
C2408 C 0.2153 0.2145 0.1003 0.0
C2409 C 0.2173 0.20841 0.09171 0.0
C2410 C 0.21764 0.22512 0.09986 0.0
C2411 C 0.21524 0.23208 0.10845 0.0
C2412 C 0.20522 0.23254 0.11236 0.0
C2413 C 0.20302 0.23907 0.1205 0.0
C2414 C 0.21077 0.24524 0.12475 0.0
C2415 C 0.22073 0.2449 0.12086 0.0
C2416 C 0.22297 0.23837 0.11272 0.0
C2417 C 0.22813 0.23141 0.05461 0.0
C2418 C 0.23725 0.23728 0.05524 0.0
C2419 C 0.22382 0.22695 0.0634 0.0
C2420 C 0.22858 0.22815 0.07303 0.0
C2421 C 0.2376 0.23412 0.0737 0.0
C2422 C 0.2419 0.23861 0.06492 0.0
C2423 C 0.22416 0.2232 0.08238 0.0
C2424 C 0.22209 0.2293 0.09095 0.0
C2425 C 0.22179 0.21258 0.08282 0.0
C2426 C 0.22431 0.20556 0.07431 0.0
C2427 C 0.23443 0.20495 0.07066 0.0
C2428 C 0.23674 0.19836 0.0626 0.0
C2429 C 0.22901 0.1923 0.05817 0.0
C2430 C 0.21897 0.19278 0.06181 0.0
C2431 C 0.21661 0.19936 0.06986 0.0
H2432 H 0.23082 0.18721 0.05192 0.0
H2433 H 0.20905 0.25029 0.13105 0.0
H2434 H 0.8207 0.1886 0.11622 0.0
H2435 H 0.81401 0.19768 0.10118 0.0
H2436 H 0.79777 0.21828 0.12091 0.0
H2437 H 0.80435 0.20916 0.13599 0.0
H2438 H 0.78564 0.21072 0.10513 0.0
H2439 H 0.81892 0.22651 0.10915 0.0
H2440 H 0.83776 0.2268 0.11105 0.0
H2441 H 0.84078 0.21198 0.08193 0.0
H2442 H 0.82193 0.21147 0.07991 0.0
H2443 H 0.77072 0.24617 0.06668 0.0
H2444 H 0.77806 0.23824 0.08205 0.0
H2445 H 0.79768 0.21992 0.06313 0.0
H2446 H 0.79054 0.22803 0.04776 0.0
H2447 H 0.80819 0.22659 0.0788 0.0
H2448 H 0.77534 0.21009 0.07476 0.0
H2449 H 0.75653 0.20918 0.07263 0.0
H2450 H 0.75269 0.22442 0.10143 0.0
H2451 H 0.77149 0.22554 0.10367 0.0
C2452 C 0.81569 0.19506 0.11735 0.0
C2453 C 0.81305 0.19817 0.1273 0.0
C2454 C 0.81193 0.20028 0.10876 0.0
C2455 C 0.80544 0.2087 0.10993 0.0
C2456 C 0.80279 0.21182 0.11984 0.0
C2457 C 0.80661 0.20665 0.12844 0.0
C2458 C 0.80124 0.21409 0.1008 0.0
C2459 C 0.79056 0.21433 0.09944 0.0
C2460 C 0.80767 0.21854 0.09325 0.0
C2461 C 0.81901 0.21886 0.09443 0.0
C2462 C 0.82359 0.22323 0.10319 0.0
C2463 C 0.83427 0.22345 0.10428 0.0
C2464 C 0.84046 0.21939 0.09663 0.0
C2465 C 0.83597 0.21512 0.08785 0.0
C2466 C 0.82529 0.21487 0.08673 0.0
C2467 C 0.77657 0.24042 0.06581 0.0
C2468 C 0.78003 0.23769 0.05602 0.0
C2469 C 0.78075 0.23587 0.0746 0.0
C2470 C 0.78832 0.22834 0.07377 0.0
C2471 C 0.79186 0.2257 0.06399 0.0
C2472 C 0.78778 0.23034 0.05521 0.0
C2473 C 0.79255 0.22321 0.08308 0.0
C2474 C 0.80325 0.22301 0.08448 0.0
C2475 C 0.78613 0.2187 0.09063 0.0
C2476 C 0.77482 0.21799 0.08933 0.0
C2477 C 0.77049 0.21331 0.0806 0.0
C2478 C 0.75983 0.21275 0.07939 0.0
C2479 C 0.75342 0.21677 0.08688 0.0
C2480 C 0.75766 0.22133 0.09563 0.0
C2481 C 0.76831 0.22192 0.09688 0.0
H2482 H 0.74517 0.21632 0.08592 0.0
H2483 H 0.84873 0.21956 0.09748 0.0
H2484 H 0.82578 0.82351 0.11776 0.0
H2485 H 0.81963 0.81477 0.10229 0.0
H2486 H 0.7935 0.80297 0.11894 0.0
H2487 H 0.79972 0.81148 0.13448 0.0
H2488 H 0.80156 0.78842 0.10674 0.0
H2489 H 0.79116 0.82347 0.10303 0.0
H2490 H 0.79375 0.84221 0.10241 0.0
H2491 H 0.81435 0.83905 0.07706 0.0
H2492 H 0.81198 0.82027 0.07763 0.0
H2493 H 0.76939 0.77408 0.06506 0.0
H2494 H 0.77672 0.78201 0.08039 0.0
H2495 H 0.80158 0.79459 0.0624 0.0
H2496 H 0.79405 0.78704 0.04694 0.0
H2497 H 0.79476 0.8086 0.07515 0.0
H2498 H 0.80488 0.77362 0.07846 0.0
H2499 H 0.80236 0.75487 0.07902 0.0
H2500 H 0.78252 0.75779 0.105 0.0
H2501 H 0.78482 0.77658 0.10451 0.0
C2502 C 0.81879 0.81895 0.11817 0.0
C2503 C 0.81322 0.81825 0.12737 0.0
C2504 C 0.81523 0.81403 0.10929 0.0
C2505 C 0.80602 0.80831 0.1094 0.0
C2506 C 0.8006 0.80737 0.11864 0.0
C2507 C 0.80413 0.81231 0.1275 0.0
C2508 C 0.80193 0.80345 0.09988 0.0
C2509 C 0.79997 0.79285 0.09987 0.0
C2510 C 0.80007 0.80917 0.09082 0.0
C2511 C 0.80148 0.82046 0.09045 0.0
C2512 C 0.79631 0.82677 0.09738 0.0
C2513 C 0.79772 0.83739 0.09703 0.0
C2514 C 0.80423 0.84181 0.08972 0.0
C2515 C 0.80932 0.83561 0.08273 0.0
C2516 C 0.80794 0.82498 0.08306 0.0
C2517 C 0.77637 0.7786 0.06432 0.0
C2518 C 0.78112 0.77989 0.05472 0.0
C2519 C 0.78063 0.78305 0.07314 0.0
C2520 C 0.7898 0.7888 0.07261 0.0
C2521 C 0.79453 0.79015 0.06304 0.0
C2522 C 0.79026 0.78574 0.05421 0.0
C2523 C 0.79436 0.79355 0.082 0.0
C2524 C 0.7964 0.80415 0.082 0.0
C2525 C 0.79631 0.78781 0.09104 0.0
C2526 C 0.79495 0.77651 0.09139 0.0
C2527 C 0.79992 0.77027 0.08424 0.0
C2528 C 0.79854 0.75964 0.08456 0.0
C2529 C 0.79226 0.75515 0.09202 0.0
C2530 C 0.78738 0.76128 0.09921 0.0
C2531 C 0.78872 0.77192 0.09893 0.0
H2532 H 0.7912 0.74691 0.09225 0.0
H2533 H 0.80532 0.85004 0.08946 0.0
H2534 H 0.21611 0.83167 0.12342 0.0
H2535 H 0.22231 0.82308 0.10814 0.0
H2536 H 0.20294 0.7969 0.1149 0.0
H2537 H 0.19698 0.80531 0.13048 0.0
H2538 H 0.22156 0.79087 0.10898 0.0
H2539 H 0.19648 0.81408 0.09601 0.0
H2540 H 0.18803 0.83074 0.09365 0.0
H2541 H 0.21549 0.84325 0.08021 0.0
H2542 H 0.22415 0.82671 0.08261 0.0
H2543 H 0.22691 0.76863 0.05926 0.0
H2544 H 0.21972 0.77644 0.07465 0.0
H2545 H 0.23985 0.80262 0.07074 0.0
H2546 H 0.24698 0.79492 0.0553 0.0
H2547 H 0.22009 0.80819 0.07507 0.0
H2548 H 0.24519 0.78493 0.08836 0.0
H2549 H 0.25348 0.76818 0.09055 0.0
H2550 H 0.22572 0.75563 0.10333 0.0
H2551 H 0.21719 0.77226 0.10101 0.0
C2552 C 0.21323 0.82404 0.12175 0.0
C2553 C 0.20603 0.81919 0.12823 0.0
C2554 C 0.21671 0.81917 0.11292 0.0
C2555 C 0.213 0.80939 0.11027 0.0
C2556 C 0.20589 0.80447 0.11675 0.0
C2557 C 0.20241 0.80933 0.12562 0.0
C2558 C 0.21662 0.8043 0.10077 0.0
C2559 C 0.22108 0.79459 0.10154 0.0
C2560 C 0.21619 0.80922 0.09107 0.0
C2561 C 0.21099 0.81918 0.08958 0.0
C2562 C 0.20074 0.82041 0.09262 0.0
C2563 C 0.19591 0.82982 0.09126 0.0
C2564 C 0.20123 0.83805 0.0868 0.0
C2565 C 0.21138 0.83687 0.08367 0.0
C2566 C 0.21625 0.82747 0.08502 0.0
C2567 C 0.22976 0.77608 0.06165 0.0
C2568 C 0.23754 0.78114 0.05607 0.0
C2569 C 0.2257 0.7805 0.07048 0.0
C2570 C 0.22931 0.79008 0.07389 0.0
C2571 C 0.23697 0.79521 0.06826 0.0
C2572 C 0.24109 0.79076 0.05949 0.0
C2573 C 0.22509 0.79481 0.08331 0.0
C2574 C 0.22051 0.80445 0.08251 0.0
C2575 C 0.22539 0.78981 0.09296 0.0
C2576 C 0.23052 0.77981 0.0944 0.0
C2577 C 0.24082 0.77857 0.09155 0.0
C2578 C 0.24557 0.7691 0.09283 0.0
C2579 C 0.24013 0.76084 0.09707 0.0
C2580 C 0.22993 0.76203 0.10004 0.0
C2581 C 0.22513 0.77148 0.09874 0.0
H2582 H 0.24382 0.75352 0.09807 0.0
H2583 H 0.19748 0.84534 0.08576 0.0
H2584 H 0.19275 0.82207 0.90034 0.0
H2585 H 0.19902 0.81324 0.9157 0.0
H2586 H 0.22659 0.80504 0.8997 0.0
H2587 H 0.22028 0.81369 0.88425 0.0
H2588 H 0.2189 0.78903 0.91118 0.0
H2589 H 0.22712 0.82468 0.916 0.0
H2590 H 0.22345 0.84314 0.9169 0.0
H2591 H 0.20221 0.83751 0.94142 0.0
H2592 H 0.20565 0.81899 0.94056 0.0
H2593 H 0.24989 0.77575 0.95395 0.0
H2594 H 0.24285 0.78355 0.93844 0.0
H2595 H 0.21671 0.79391 0.95552 0.0
H2596 H 0.22398 0.78661 0.97118 0.0
H2597 H 0.22333 0.80863 0.94343 0.0
H2598 H 0.21529 0.77297 0.9389 0.0
H2599 H 0.21908 0.75453 0.93815 0.0
H2600 H 0.23988 0.76002 0.91324 0.0
H2601 H 0.2363 0.77853 0.91392 0.0
C2602 C 0.20009 0.81828 0.90005 0.0
C2603 C 0.20604 0.81862 0.89108 0.0
C2604 C 0.2037 0.8133 0.90885 0.0
C2605 C 0.21333 0.80857 0.90888 0.0
C2606 C 0.21916 0.80866 0.89986 0.0
C2607 C 0.21558 0.81368 0.89107 0.0
C2608 C 0.21742 0.80374 0.91837 0.0
C2609 C 0.21998 0.79333 0.91821 0.0
C2610 C 0.21862 0.8093 0.92759 0.0
C2611 C 0.21656 0.82044 0.92814 0.0
C2612 C 0.2216 0.82737 0.92153 0.0
C2613 C 0.21957 0.83785 0.92204 0.0
C2614 C 0.21258 0.84149 0.92919 0.0
C2615 C 0.20762 0.83467 0.93587 0.0
C2616 C 0.2096 0.82419 0.93538 0.0
C2617 C 0.24269 0.77977 0.95445 0.0
C2618 C 0.23751 0.78053 0.96385 0.0
C2619 C 0.2386 0.78412 0.94552 0.0
C2620 C 0.22916 0.78919 0.94575 0.0
C2621 C 0.22398 0.78999 0.95512 0.0
C2622 C 0.22811 0.78571 0.96407 0.0
C2623 C 0.2248 0.79388 0.93628 0.0
C2624 C 0.22221 0.80429 0.93643 0.0
C2625 C 0.22355 0.78829 0.92706 0.0
C2626 C 0.22559 0.77715 0.92652 0.0
C2627 C 0.22072 0.77026 0.9333 0.0
C2628 C 0.22282 0.75979 0.93288 0.0
C2629 C 0.22974 0.75611 0.92567 0.0
C2630 C 0.23453 0.76289 0.91883 0.0
C2631 C 0.23245 0.77336 0.91922 0.0
H2632 H 0.23137 0.74801 0.92536 0.0
H2633 H 0.21102 0.84961 0.92958 0.0
H2634 H 0.21087 0.2126 0.8831 0.0
H2635 H 0.21925 0.21909 0.89864 0.0
H2636 H 0.19967 0.19969 0.91714 0.0
H2637 H 0.19111 0.19331 0.90164 0.0
H2638 H 0.2007 0.21911 0.92453 0.0
H2639 H 0.22465 0.19378 0.91371 0.0
H2640 H 0.23613 0.18519 0.90159 0.0
H2641 H 0.25416 0.21279 0.89859 0.0
H2642 H 0.2427 0.22159 0.9106 0.0
H2643 H 0.22675 0.22673 0.97176 0.0
H2644 H 0.21908 0.21909 0.95641 0.0
H2645 H 0.24007 0.23649 0.93747 0.0
H2646 H 0.2479 0.24402 0.95283 0.0
H2647 H 0.23832 0.21779 0.93032 0.0
H2648 H 0.21436 0.24333 0.9406 0.0
H2649 H 0.20288 0.25224 0.95248 0.0
H2650 H 0.18481 0.22475 0.95615 0.0
H2651 H 0.19628 0.21563 0.94439 0.0
C2652 C 0.20833 0.20972 0.89047 0.0
C2653 C 0.20031 0.20242 0.89111 0.0
C2654 C 0.21319 0.21338 0.89935 0.0
C2655 C 0.21015 0.20983 0.90907 0.0
C2656 C 0.20217 0.20252 0.90973 0.0
C2657 C 0.19734 0.19882 0.90085 0.0
C2658 C 0.21509 0.21394 0.91855 0.0
C2659 C 0.20891 0.21868 0.92587 0.0
C2660 C 0.22584 0.21365 0.92018 0.0
C2661 C 0.23276 0.20837 0.91298 0.0
C2662 C 0.23102 0.19804 0.9104 0.0
C2663 C 0.23753 0.19313 0.90356 0.0
C2664 C 0.24586 0.19845 0.8993 0.0
C2665 C 0.2477 0.20868 0.90189 0.0
C2666 C 0.24121 0.21363 0.90872 0.0
C2667 C 0.2297 0.22897 0.96433 0.0
C2668 C 0.2379 0.23604 0.96353 0.0
C2669 C 0.2253 0.2246 0.95554 0.0
C2670 C 0.22886 0.22732 0.94573 0.0
C2671 C 0.23717 0.23425 0.94493 0.0
C2672 C 0.24164 0.23855 0.95372 0.0
C2673 C 0.22393 0.22298 0.93633 0.0
C2674 C 0.23011 0.21821 0.92901 0.0
C2675 C 0.21317 0.2233 0.93466 0.0
C2676 C 0.20624 0.22877 0.9417 0.0
C2677 C 0.20799 0.23916 0.944 0.0
C2678 C 0.20147 0.24426 0.9507 0.0
C2679 C 0.19314 0.23906 0.95509 0.0
C2680 C 0.19128 0.22876 0.95276 0.0
C2681 C 0.19778 0.22363 0.94607 0.0
H2682 H 0.1881 0.24301 0.96028 0.0
H2683 H 0.25089 0.19463 0.89401 0.0
H2684 H 0.82722 0.22086 0.89289 0.0
H2685 H 0.8186 0.22736 0.90805 0.0
H2686 H 0.80151 0.199 0.91081 0.0
H2687 H 0.81024 0.19234 0.8957 0.0
H2688 H 0.78933 0.21577 0.91377 0.0
H2689 H 0.8216 0.20355 0.92645 0.0
H2690 H 0.84044 0.20206 0.92694 0.0
H2691 H 0.84347 0.23434 0.93253 0.0
H2692 H 0.82464 0.23606 0.93193 0.0
H2693 H 0.7714 0.22504 0.96438 0.0
H2694 H 0.7793 0.21773 0.94914 0.0
H2695 H 0.79922 0.24426 0.94661 0.0
H2696 H 0.79145 0.25152 0.96194 0.0
H2697 H 0.80987 0.22774 0.94363 0.0
H2698 H 0.77782 0.24022 0.93055 0.0
H2699 H 0.759 0.24199 0.92983 0.0
H2700 H 0.75554 0.20965 0.92479 0.0
H2701 H 0.77434 0.20767 0.92561 0.0
C2702 C 0.82171 0.21594 0.89676 0.0
C2703 C 0.81952 0.20602 0.8931 0.0
C2704 C 0.81675 0.2197 0.90542 0.0
C2705 C 0.8095 0.21363 0.91066 0.0
C2706 C 0.80709 0.20382 0.9069 0.0
C2707 C 0.81207 0.20004 0.89823 0.0
C2708 C 0.80454 0.21752 0.9201 0.0
C2709 C 0.7938 0.21825 0.92036 0.0
C2710 C 0.81038 0.22097 0.92863 0.0
C2711 C 0.82171 0.21995 0.92905 0.0
C2712 C 0.82628 0.21035 0.92771 0.0
C2713 C 0.83696 0.20946 0.92802 0.0
C2714 C 0.84315 0.2181 0.92974 0.0
C2715 C 0.83867 0.22765 0.93118 0.0
C2716 C 0.82799 0.22859 0.93087 0.0
C2717 C 0.77741 0.22935 0.96052 0.0
C2718 C 0.78078 0.23887 0.96436 0.0
C2719 C 0.78192 0.22517 0.95179 0.0
C2720 C 0.78979 0.23049 0.94661 0.0
C2721 C 0.79318 0.23999 0.95046 0.0
C2722 C 0.78874 0.24413 0.95924 0.0
C2723 C 0.79463 0.22611 0.9373 0.0
C2724 C 0.80537 0.22526 0.93706 0.0
C2725 C 0.78878 0.2226 0.92878 0.0
C2726 C 0.77748 0.22378 0.92824 0.0
C2727 C 0.77304 0.23348 0.92936 0.0
C2728 C 0.76238 0.23452 0.92893 0.0
C2729 C 0.75608 0.22594 0.9273 0.0
C2730 C 0.76043 0.21629 0.92607 0.0
C2731 C 0.77109 0.2152 0.92651 0.0
H2732 H 0.74783 0.22676 0.92696 0.0
H2733 H 0.85142 0.2174 0.92998 0.0
H2734 H 0.8265 0.80948 0.8926 0.0
H2735 H 0.81968 0.80044 0.90763 0.0
H2736 H 0.79404 0.82099 0.9083 0.0
H2737 H 0.80069 0.82995 0.89324 0.0
H2738 H 0.8022 0.81849 0.92718 0.0
H2739 H 0.79129 0.79652 0.89952 0.0
H2740 H 0.79371 0.78581 0.88422 0.0
H2741 H 0.81371 0.7661 0.90133 0.0
H2742 H 0.81152 0.77678 0.9167 0.0
H2743 H 0.76942 0.79236 0.96167 0.0
H2744 H 0.77686 0.80039 0.94645 0.0
H2745 H 0.80093 0.77801 0.94644 0.0
H2746 H 0.79327 0.76963 0.96142 0.0
H2747 H 0.79436 0.78121 0.92745 0.0
H2748 H 0.80516 0.8027 0.95514 0.0
H2749 H 0.80308 0.81335 0.97053 0.0
H2750 H 0.78387 0.83393 0.95355 0.0
H2751 H 0.78572 0.82332 0.93808 0.0
C2752 C 0.81935 0.81201 0.89586 0.0
C2753 C 0.81418 0.82049 0.89168 0.0
C2754 C 0.81547 0.80684 0.90449 0.0
C2755 C 0.80631 0.80999 0.90909 0.0
C2756 C 0.80114 0.81843 0.90493 0.0
C2757 C 0.80499 0.82359 0.89632 0.0
C2758 C 0.80214 0.80462 0.91831 0.0
C2759 C 0.80037 0.81036 0.9272 0.0
C2760 C 0.80003 0.79395 0.91846 0.0
C2761 C 0.80133 0.78751 0.90923 0.0
C2762 C 0.79627 0.78995 0.9 0.0
C2763 C 0.79759 0.78388 0.89132 0.0
C2764 C 0.80388 0.7753 0.8918 0.0
C2765 C 0.80885 0.77276 0.90097 0.0
C2766 C 0.80757 0.77882 0.90967 0.0
C2767 C 0.77623 0.78904 0.95838 0.0
C2768 C 0.78074 0.78033 0.96284 0.0
C2769 C 0.78055 0.79373 0.94973 0.0
C2770 C 0.78956 0.78992 0.94536 0.0
C2771 C 0.79401 0.78114 0.94968 0.0
C2772 C 0.78966 0.77641 0.95832 0.0
C2773 C 0.79432 0.7951 0.9363 0.0
C2774 C 0.79622 0.78933 0.92746 0.0
C2775 C 0.79661 0.80574 0.9362 0.0
C2776 C 0.79551 0.81216 0.94548 0.0
C2777 C 0.80043 0.80945 0.95471 0.0
C2778 C 0.7993 0.81549 0.96344 0.0
C2779 C 0.79333 0.8243 0.96302 0.0
C2780 C 0.78849 0.8271 0.95386 0.0
C2781 C 0.78958 0.82108 0.94511 0.0
H2782 H 0.79246 0.82896 0.96979 0.0
H2783 H 0.80489 0.77061 0.88507 0.0
H2784 H 0.11399 0.19707 0.18743 0.0
H2785 H 0.09902 0.20404 0.19604 0.0
H2786 H 0.11871 0.21726 0.21928 0.0
H2787 H 0.13373 0.21025 0.21072 0.0
H2788 H 0.10187 0.20916 0.22782 0.0
H2789 H 0.10874 0.23189 0.19959 0.0
H2790 H 0.11182 0.2365 0.1815 0.0
H2791 H 0.08213 0.22442 0.1732 0.0
H2792 H 0.07893 0.21961 0.19123 0.0
H2793 H 0.06542 0.24408 0.24777 0.0
H2794 H 0.08045 0.23634 0.23994 0.0
H2795 H 0.06113 0.22286 0.21655 0.0
H2796 H 0.04607 0.23055 0.22434 0.0
H2797 H 0.07789 0.23115 0.20821 0.0
H2798 H 0.07101 0.20849 0.23651 0.0
H2799 H 0.06796 0.20393 0.25462 0.0
H2800 H 0.09768 0.216 0.26283 0.0
H2801 H 0.10085 0.22076 0.24478 0.0
C2802 C 0.11515 0.20149 0.19436 0.0
C2803 C 0.12509 0.20316 0.19833 0.0
C2804 C 0.10657 0.20547 0.19928 0.0
C2805 C 0.10772 0.21134 0.20823 0.0
C2806 C 0.1176 0.21278 0.21238 0.0
C2807 C 0.12619 0.20874 0.20749 0.0
C2808 C 0.09864 0.21609 0.21315 0.0
C2809 C 0.09671 0.21408 0.22356 0.0
C2810 C 0.09175 0.22236 0.20758 0.0
C2811 C 0.09363 0.2253 0.19674 0.0
C2812 C 0.10289 0.23015 0.19389 0.0
C2813 C 0.10466 0.23281 0.18365 0.0
C2814 C 0.09719 0.23073 0.1762 0.0
C2815 C 0.08792 0.22601 0.17898 0.0
C2816 C 0.08612 0.22333 0.18921 0.0
C2817 C 0.06434 0.23938 0.24102 0.0
C2818 C 0.0545 0.23794 0.2367 0.0
C2819 C 0.07296 0.23496 0.23654 0.0
C2820 C 0.07194 0.22891 0.2277 0.0
C2821 C 0.06214 0.2275 0.22335 0.0
C2822 C 0.05353 0.23194 0.2278 0.0
C2823 C 0.08108 0.22419 0.22287 0.0
C2824 C 0.08304 0.22623 0.21247 0.0
C2825 C 0.08799 0.21797 0.22846 0.0
C2826 C 0.08612 0.21507 0.23931 0.0
C2827 C 0.07686 0.21024 0.24219 0.0
C2828 C 0.07512 0.20761 0.25244 0.0
C2829 C 0.08261 0.2097 0.25987 0.0
C2830 C 0.09187 0.2144 0.25707 0.0
C2831 C 0.09365 0.21706 0.24683 0.0
H2832 H 0.08124 0.20765 0.26781 0.0
H2833 H 0.09857 0.2328 0.16828 0.0
H2834 H 0.82351 0.11787 0.19315 0.0
H2835 H 0.81471 0.10248 0.19957 0.0
H2836 H 0.80433 0.11929 0.22587 0.0
H2837 H 0.81318 0.13466 0.21954 0.0
H2838 H 0.81155 0.10149 0.23176 0.0
H2839 H 0.78796 0.11261 0.2058 0.0
H2840 H 0.78252 0.11801 0.18848 0.0
H2841 H 0.79186 0.0891 0.17632 0.0
H2842 H 0.79749 0.08357 0.19355 0.0
H2843 H 0.77503 0.06484 0.24966 0.0
H2844 H 0.78298 0.08036 0.24255 0.0
H2845 H 0.79528 0.06281 0.21764 0.0
H2846 H 0.78751 0.04722 0.22479 0.0
H2847 H 0.78697 0.08088 0.21097 0.0
H2848 H 0.81061 0.06994 0.2371 0.0
H2849 H 0.81579 0.06461 0.25452 0.0
H2850 H 0.80598 0.09346 0.26644 0.0
H2851 H 0.8006 0.09891 0.24911 0.0
C2852 C 0.81924 0.11831 0.20024 0.0
C2853 C 0.81905 0.12749 0.20584 0.0
C2854 C 0.81421 0.10951 0.2039 0.0
C2855 C 0.80877 0.10973 0.21317 0.0
C2856 C 0.8085 0.11891 0.21872 0.0
C2857 C 0.81358 0.12769 0.2151 0.0
C2858 C 0.80362 0.10033 0.21726 0.0
C2859 C 0.80606 0.09708 0.22725 0.0
C2860 C 0.79663 0.09441 0.21132 0.0
C2861 C 0.79324 0.09771 0.20095 0.0
C2862 C 0.78893 0.10743 0.19942 0.0
C2863 C 0.7858 0.11051 0.18962 0.0
C2864 C 0.78687 0.10392 0.1813 0.0
C2865 C 0.79105 0.09421 0.18277 0.0
C2866 C 0.79421 0.09109 0.19255 0.0
C2867 C 0.77951 0.06425 0.24273 0.0
C2868 C 0.78067 0.05475 0.23784 0.0
C2869 C 0.78401 0.07314 0.23865 0.0
C2870 C 0.7898 0.07273 0.22961 0.0
C2871 C 0.79083 0.06331 0.22461 0.0
C2872 C 0.78635 0.05441 0.2287 0.0
C2873 C 0.79488 0.08211 0.22545 0.0
C2874 C 0.79244 0.08533 0.21546 0.0
C2875 C 0.80184 0.08803 0.2314 0.0
C2876 C 0.80511 0.08479 0.24182 0.0
C2877 C 0.80948 0.07512 0.24345 0.0
C2878 C 0.81247 0.07208 0.2533 0.0
C2879 C 0.81119 0.07868 0.26159 0.0
C2880 C 0.80695 0.08835 0.26002 0.0
C2881 C 0.80394 0.09142 0.25018 0.0
H2882 H 0.8135 0.07631 0.26921 0.0
H2883 H 0.78444 0.10632 0.17373 0.0
H2884 H 0.90094 0.82372 0.19258 0.0
H2885 H 0.91635 0.81721 0.20108 0.0
H2886 H 0.89777 0.79569 0.21824 0.0
H2887 H 0.8823 0.8023 0.20991 0.0
H2888 H 0.91258 0.80466 0.23028 0.0
H2889 H 0.91082 0.78789 0.19752 0.0
H2890 H 0.90959 0.78715 0.17867 0.0
H2891 H 0.93764 0.80456 0.17608 0.0
H2892 H 0.93896 0.80553 0.19493 0.0
H2893 H 0.952 0.77151 0.24737 0.0
H2894 H 0.93662 0.77885 0.23958 0.0
H2895 H 0.9556 0.79774 0.21992 0.0
H2896 H 0.97099 0.79018 0.22751 0.0
H2897 H 0.94054 0.79043 0.2092 0.0
H2898 H 0.94258 0.80728 0.24176 0.0
H2899 H 0.94395 0.80829 0.26059 0.0
H2900 H 0.91569 0.79129 0.26363 0.0
H2901 H 0.91421 0.79007 0.2448 0.0
C2902 C 0.90011 0.81769 0.19825 0.0
C2903 C 0.89037 0.8135 0.20052 0.0
C2904 C 0.90894 0.81392 0.20305 0.0
C2905 C 0.90824 0.80587 0.21022 0.0
C2906 C 0.89851 0.80187 0.21271 0.0
C2907 C 0.88968 0.80561 0.20788 0.0
C2908 C 0.91765 0.80147 0.21496 0.0
C2909 C 0.91865 0.80144 0.22568 0.0
C2910 C 0.92569 0.79749 0.20896 0.0
C2911 C 0.92493 0.79687 0.19763 0.0
C2912 C 0.91668 0.79163 0.19293 0.0
C2913 C 0.91598 0.79115 0.18225 0.0
C2914 C 0.92352 0.79582 0.17618 0.0
C2915 C 0.9318 0.80095 0.18079 0.0
C2916 C 0.93253 0.80146 0.19147 0.0
C2917 C 0.95289 0.77727 0.24143 0.0
C2918 C 0.96272 0.78028 0.23808 0.0
C2919 C 0.94408 0.7815 0.23699 0.0
C2920 C 0.9449 0.78901 0.22925 0.0
C2921 C 0.95473 0.79198 0.22587 0.0
C2922 C 0.96353 0.78765 0.23021 0.0
C2923 C 0.93554 0.79363 0.22456 0.0
C2924 C 0.93452 0.79368 0.21383 0.0
C2925 C 0.92752 0.7977 0.23055 0.0
C2926 C 0.92834 0.79851 0.24187 0.0
C2927 C 0.93669 0.8037 0.24644 0.0
C2928 C 0.93748 0.80432 0.25712 0.0
C2929 C 0.92992 0.79984 0.2633 0.0
C2930 C 0.92154 0.79475 0.25882 0.0
C2931 C 0.92072 0.79411 0.24815 0.0
H2932 H 0.93055 0.80032 0.27156 0.0
H2933 H 0.92296 0.79545 0.16791 0.0
H2934 H 0.21195 0.883 0.20954 0.0
H2935 H 0.22105 0.89817 0.21604 0.0
H2936 H 0.19576 0.91711 0.20664 0.0
H2937 H 0.18672 0.90201 0.19993 0.0
H2938 H 0.21415 0.92604 0.20198 0.0
H2939 H 0.19855 0.90998 0.23145 0.0
H2940 H 0.19489 0.89571 0.24339 0.0
H2941 H 0.22697 0.8936 0.2507 0.0
H2942 H 0.23084 0.90777 0.23868 0.0
H2943 H 0.22431 0.97065 0.23105 0.0
H2944 H 0.21677 0.95517 0.2236 0.0
H2945 H 0.24188 0.93742 0.23557 0.0
H2946 H 0.24924 0.95282 0.24346 0.0
H2947 H 0.2244 0.92754 0.23864 0.0
H2948 H 0.24009 0.94397 0.20978 0.0
H2949 H 0.24392 0.95814 0.19778 0.0
H2950 H 0.2121 0.95947 0.18917 0.0
H2951 H 0.20805 0.94539 0.20122 0.0
C2952 C 0.20838 0.89041 0.20875 0.0
C2953 C 0.19858 0.89127 0.20426 0.0
C2954 C 0.21356 0.89907 0.21254 0.0
C2955 C 0.20904 0.90877 0.21194 0.0
C2956 C 0.19938 0.9097 0.20723 0.0
C2957 C 0.19419 0.90105 0.20346 0.0
C2958 C 0.21427 0.91795 0.21639 0.0
C2959 C 0.2163 0.92641 0.21002 0.0
C2960 C 0.21731 0.91834 0.22682 0.0
C2961 C 0.215 0.90986 0.23408 0.0
C2962 C 0.20483 0.90641 0.23554 0.0
C2963 C 0.20272 0.89836 0.24233 0.0
C2964 C 0.2107 0.89373 0.24778 0.0
C2965 C 0.2208 0.89718 0.24647 0.0
C2966 C 0.22296 0.90522 0.23967 0.0
C2967 C 0.2282 0.96345 0.23219 0.0
C2968 C 0.2374 0.96302 0.23788 0.0
C2969 C 0.22393 0.95461 0.22781 0.0
C2970 C 0.22882 0.94512 0.22888 0.0
C2971 C 0.23798 0.94465 0.23458 0.0
C2972 C 0.24224 0.95349 0.23902 0.0
C2973 C 0.22425 0.93569 0.22424 0.0
C2974 C 0.22232 0.92716 0.23058 0.0
C2975 C 0.22134 0.93523 0.21376 0.0
C2976 C 0.22375 0.94368 0.20648 0.0
C2977 C 0.23389 0.94733 0.20538 0.0
C2978 C 0.23611 0.95534 0.19856 0.0
C2979 C 0.22826 0.95972 0.19274 0.0
C2980 C 0.21818 0.95608 0.1937 0.0
C2981 C 0.21592 0.94807 0.20051 0.0
H2982 H 0.22999 0.96592 0.18746 0.0
H2983 H 0.20904 0.8875 0.25304 0.0
H2984 H 0.12304 0.80066 0.83276 0.0
H2985 H 0.10798 0.7943 0.82346 0.0
H2986 H 0.11368 0.81622 0.79926 0.0
H2987 H 0.12894 0.82251 0.80841 0.0
H2988 H 0.09316 0.81516 0.80485 0.0
H2989 H 0.11972 0.79196 0.79552 0.0
H2990 H 0.1339 0.78 0.7987 0.0
H2991 H 0.1136 0.76008 0.81558 0.0
H2992 H 0.09932 0.77201 0.81263 0.0
H2993 H 0.05739 0.79257 0.76997 0.0
H2994 H 0.07303 0.79952 0.77782 0.0
H2995 H 0.07128 0.77646 0.80156 0.0
H2996 H 0.05594 0.76915 0.79349 0.0
H2997 H 0.0903 0.77847 0.79536 0.0
H2998 H 0.06397 0.80178 0.8055 0.0
H2999 H 0.04971 0.81376 0.80279 0.0
H3000 H 0.06936 0.83344 0.78491 0.0
H3001 H 0.08371 0.8215 0.7874 0.0
C3002 C 0.12118 0.80407 0.82541 0.0
C3003 C 0.12729 0.81205 0.82131 0.0
C3004 C 0.11253 0.80045 0.82012 0.0
C3005 C 0.10977 0.8047 0.81062 0.0
C3006 C 0.11568 0.81282 0.80659 0.0
C3007 C 0.12438 0.81643 0.81186 0.0
C3008 C 0.10074 0.80061 0.80489 0.0
C3009 C 0.09259 0.80718 0.80262 0.0
C3010 C 0.09991 0.79014 0.80219 0.0
C3011 C 0.10847 0.78292 0.80393 0.0
C3012 C 0.11829 0.78507 0.79998 0.0
C3013 C 0.12635 0.77829 0.80173 0.0
C3014 C 0.12465 0.7693 0.80736 0.0
C3015 C 0.1149 0.76706 0.81123 0.0
C3016 C 0.10682 0.77382 0.80951 0.0
C3017 C 0.06039 0.78889 0.77679 0.0
C3018 C 0.05534 0.78031 0.7811 0.0
C3019 C 0.06928 0.79296 0.78135 0.0
C3020 C 0.07327 0.78862 0.79038 0.0
C3021 C 0.06833 0.77998 0.79463 0.0
C3022 C 0.05949 0.77587 0.79005 0.0
C3023 C 0.08261 0.79299 0.79541 0.0
C3024 C 0.09086 0.78647 0.79754 0.0
C3025 C 0.08349 0.80349 0.79803 0.0
C3026 C 0.07488 0.81069 0.79654 0.0
C3027 C 0.06523 0.80862 0.80092 0.0
C3028 C 0.05713 0.81541 0.79944 0.0
C3029 C 0.05862 0.82434 0.79366 0.0
C3030 C 0.06821 0.82651 0.78937 0.0
C3031 C 0.07633 0.81974 0.79082 0.0
H3032 H 0.05234 0.82959 0.79252 0.0
H3033 H 0.1309 0.76406 0.8087 0.0
H3034 H 0.19372 0.11503 0.82604 0.0
H3035 H 0.20005 0.09967 0.81759 0.0
H3036 H 0.2198 0.11842 0.79861 0.0
H3037 H 0.21335 0.13383 0.80688 0.0
H3038 H 0.21052 0.10317 0.78757 0.0
H3039 H 0.22943 0.10604 0.81923 0.0
H3040 H 0.23145 0.10769 0.83796 0.0
H3041 H 0.21501 0.07932 0.8424 0.0
H3042 H 0.21276 0.07757 0.82369 0.0
H3043 H 0.24421 0.06455 0.77024 0.0
H3044 H 0.23669 0.0798 0.77783 0.0
H3045 H 0.21904 0.06066 0.79845 0.0
H3046 H 0.22666 0.0454 0.79097 0.0
H3047 H 0.22689 0.07608 0.80861 0.0
H3048 H 0.20811 0.07292 0.77708 0.0
H3049 H 0.20591 0.07117 0.75837 0.0
H3050 H 0.22173 0.09984 0.75367 0.0
H3051 H 0.22415 0.1017 0.77234 0.0
C3052 C 0.19931 0.11591 0.81998 0.0
C3053 C 0.20306 0.12568 0.81718 0.0
C3054 C 0.20299 0.1071 0.81521 0.0
C3055 C 0.2105 0.10787 0.80755 0.0
C3056 C 0.21404 0.11762 0.80453 0.0
C3057 C 0.2104 0.12643 0.80932 0.0
C3058 C 0.21485 0.09851 0.80283 0.0
C3059 C 0.2142 0.09729 0.79216 0.0
C3060 C 0.21945 0.09072 0.80882 0.0
C3061 C 0.22083 0.09173 0.82007 0.0
C3062 C 0.22617 0.1002 0.82421 0.0
C3063 C 0.22737 0.10114 0.83482 0.0
C3064 C 0.22334 0.09363 0.84137 0.0
C3065 C 0.21812 0.08514 0.83732 0.0
C3066 C 0.21688 0.08416 0.82671 0.0
C3067 C 0.23866 0.06359 0.77632 0.0
C3068 C 0.23603 0.05375 0.77998 0.0
C3069 C 0.23434 0.07232 0.78066 0.0
C3070 C 0.22717 0.07141 0.78865 0.0
C3071 C 0.22456 0.06159 0.79231 0.0
C3072 C 0.22893 0.05286 0.78804 0.0
C3073 C 0.22256 0.08069 0.79332 0.0
C3074 C 0.22318 0.08191 0.80401 0.0
C3075 C 0.21789 0.08846 0.78734 0.0
C3076 C 0.21639 0.0874 0.77611 0.0
C3077 C 0.21118 0.07882 0.77205 0.0
C3078 C 0.20989 0.07781 0.76145 0.0
C3079 C 0.2137 0.08538 0.75484 0.0
C3080 C 0.21879 0.09398 0.7588 0.0
C3081 C 0.22012 0.09502 0.76939 0.0
H3082 H 0.21269 0.08459 0.74663 0.0
H3083 H 0.22427 0.09437 0.84958 0.0
H3084 H 0.89253 0.20768 0.82808 0.0
H3085 H 0.90768 0.21659 0.82126 0.0
H3086 H 0.90636 0.19772 0.79424 0.0
H3087 H 0.89115 0.18889 0.8009 0.0
H3088 H 0.92574 0.19911 0.80192 0.0
H3089 H 0.89849 0.22239 0.79346 0.0
H3090 H 0.88369 0.23333 0.79718 0.0
H3091 H 0.90229 0.25139 0.8177 0.0
H3092 H 0.91717 0.24045 0.8142 0.0
H3093 H 0.96035 0.22596 0.7699 0.0
H3094 H 0.94506 0.21792 0.77722 0.0
H3095 H 0.94617 0.23922 0.80239 0.0
H3096 H 0.96117 0.24768 0.79482 0.0
H3097 H 0.92709 0.23672 0.79637 0.0
H3098 H 0.95434 0.21396 0.80491 0.0
H3099 H 0.96928 0.20304 0.80168 0.0
H3100 H 0.95096 0.184 0.78181 0.0
H3101 H 0.93595 0.1949 0.78481 0.0
C3102 C 0.89538 0.20549 0.82064 0.0
C3103 C 0.8906 0.19753 0.81506 0.0
C3104 C 0.90407 0.21058 0.81676 0.0
C3105 C 0.90814 0.20786 0.80721 0.0
C3106 C 0.9034 0.19992 0.80165 0.0
C3107 C 0.89472 0.19485 0.8055 0.0
C3108 C 0.91739 0.21318 0.80302 0.0
C3109 C 0.92599 0.20732 0.80059 0.0
C3110 C 0.91785 0.22394 0.80157 0.0
C3111 C 0.90892 0.23054 0.80365 0.0
C3112 C 0.8994 0.22864 0.79883 0.0
C3113 C 0.891 0.23485 0.80088 0.0
C3114 C 0.89204 0.24303 0.80769 0.0
C3115 C 0.90149 0.24504 0.81244 0.0
C3116 C 0.90991 0.23884 0.81042 0.0
C3117 C 0.95729 0.22905 0.77692 0.0
C3118 C 0.96207 0.23748 0.78176 0.0
C3119 C 0.94859 0.22434 0.78118 0.0
C3120 C 0.94454 0.22783 0.79047 0.0
C3121 C 0.94918 0.23633 0.79525 0.0
C3122 C 0.95784 0.2411 0.79095 0.0
C3123 C 0.93544 0.22263 0.79517 0.0
C3124 C 0.92687 0.22851 0.79772 0.0
C3125 C 0.93504 0.21189 0.79681 0.0
C3126 C 0.94404 0.2053 0.79502 0.0
C3127 C 0.95352 0.20749 0.7998 0.0
C3128 C 0.962 0.2013 0.79802 0.0
C3129 C 0.96108 0.19285 0.79153 0.0
C3130 C 0.95167 0.19056 0.78683 0.0
C3131 C 0.94317 0.19673 0.78857 0.0
H3132 H 0.96765 0.18806 0.79016 0.0
H3133 H 0.88553 0.24783 0.80927 0.0
H3134 H 0.81078 0.89375 0.82635 0.0
H3135 H 0.80175 0.90877 0.81976 0.0
H3136 H 0.82044 0.90854 0.79258 0.0
H3137 H 0.82938 0.89348 0.79902 0.0
H3138 H 0.8192 0.92759 0.80034 0.0
H3139 H 0.7955 0.90021 0.79204 0.0
H3140 H 0.78444 0.8852 0.79577 0.0
H3141 H 0.76681 0.9031 0.81669 0.0
H3142 H 0.77787 0.91818 0.81318 0.0
H3143 H 0.79199 0.96188 0.76853 0.0
H3144 H 0.80004 0.94669 0.77586 0.0
H3145 H 0.77939 0.94766 0.80156 0.0
H3146 H 0.77124 0.96284 0.79421 0.0
H3147 H 0.78144 0.92848 0.7954 0.0
H3148 H 0.80465 0.95589 0.80363 0.0
H3149 H 0.81567 0.97101 0.80024 0.0
H3150 H 0.83424 0.95326 0.78004 0.0
H3151 H 0.82324 0.93806 0.7832 0.0
C3152 C 0.81289 0.89681 0.81891 0.0
C3153 C 0.82085 0.89239 0.81324 0.0
C3154 C 0.80773 0.90543 0.81516 0.0
C3155 C 0.81037 0.90978 0.80564 0.0
C3156 C 0.81829 0.90537 0.79997 0.0
C3157 C 0.82343 0.89676 0.80369 0.0
C3158 C 0.80504 0.91902 0.80162 0.0
C3159 C 0.81096 0.92774 0.79914 0.0
C3160 C 0.79425 0.91934 0.80034 0.0
C3161 C 0.78758 0.91029 0.80243 0.0
C3162 C 0.78932 0.90092 0.7975 0.0
C3163 C 0.78304 0.89241 0.79956 0.0
C3164 C 0.77494 0.89319 0.80648 0.0
C3165 C 0.77309 0.9025 0.81134 0.0
C3166 C 0.77936 0.91103 0.80931 0.0
C3167 C 0.7892 0.95891 0.77578 0.0
C3168 C 0.781 0.96364 0.78081 0.0
C3169 C 0.79381 0.95021 0.77997 0.0
C3170 C 0.79045 0.94609 0.78937 0.0
C3171 C 0.78214 0.95068 0.79432 0.0
C3172 C 0.77747 0.95936 0.79009 0.0
C3173 C 0.79562 0.93703 0.794 0.0
C3174 C 0.78968 0.92835 0.79662 0.0
C3175 C 0.8064 0.93675 0.79547 0.0
C3176 C 0.81306 0.94586 0.79358 0.0
C3177 C 0.81104 0.95523 0.79841 0.0
C3178 C 0.81729 0.96381 0.79653 0.0
C3179 C 0.82564 0.9631 0.78991 0.0
C3180 C 0.82777 0.9538 0.78516 0.0
C3181 C 0.82153 0.9452 0.787 0.0
H3182 H 0.83047 0.96975 0.78847 0.0
H3183 H 0.77009 0.88659 0.80807 0.0
H3184 H 0.20971 0.12698 0.19501 0.0
H3185 H 0.21822 0.11165 0.20155 0.0
H3186 H 0.19535 0.10859 0.22517 0.0
H3187 H 0.18672 0.12378 0.21861 0.0
H3188 H 0.21441 0.10615 0.23293 0.0
H3189 H 0.19496 0.09304 0.2043 0.0
H3190 H 0.1893 0.09224 0.18625 0.0
H3191 H 0.22022 0.08651 0.17682 0.0
H3192 H 0.22609 0.08742 0.19482 0.0
H3193 H 0.22394 0.0557 0.25021 0.0
H3194 H 0.21614 0.07101 0.24287 0.0
H3195 H 0.23929 0.07202 0.21937 0.0
H3196 H 0.24693 0.05647 0.22646 0.0
H3197 H 0.2208 0.07577 0.21128 0.0
H3198 H 0.24028 0.08843 0.23979 0.0
H3199 H 0.24611 0.08923 0.25779 0.0
H3200 H 0.21546 0.09599 0.26739 0.0
H3201 H 0.20942 0.09508 0.24945 0.0
C3202 C 0.20641 0.12299 0.20152 0.0
C3203 C 0.19752 0.12668 0.20628 0.0
C3204 C 0.21131 0.11423 0.20527 0.0
C3205 C 0.2074 0.10891 0.21383 0.0
C3206 C 0.19855 0.11258 0.2186 0.0
C3207 C 0.19364 0.12131 0.21485 0.0
C3208 C 0.21255 0.0996 0.21791 0.0
C3209 C 0.2157 0.09946 0.22823 0.0
C3210 C 0.2145 0.09096 0.21171 0.0
C3211 C 0.21098 0.09041 0.20089 0.0
C3212 C 0.20057 0.09169 0.19837 0.0
C3213 C 0.19732 0.0912 0.18815 0.0
C3214 C 0.2044 0.08935 0.18039 0.0
C3215 C 0.21474 0.08796 0.18284 0.0
C3216 C 0.21804 0.08845 0.19305 0.0
C3217 C 0.22733 0.05911 0.24342 0.0
C3218 C 0.2361 0.05483 0.23895 0.0
C3219 C 0.22291 0.06794 0.23929 0.0
C3220 C 0.22719 0.07278 0.23063 0.0
C3221 C 0.23586 0.06847 0.22607 0.0
C3222 C 0.24029 0.05962 0.2302 0.0
C3223 C 0.22258 0.08229 0.22634 0.0
C3224 C 0.21955 0.08247 0.21598 0.0
C3225 C 0.22076 0.09099 0.23249 0.0
C3226 C 0.22438 0.09159 0.24328 0.0
C3227 C 0.23477 0.09001 0.24575 0.0
C3228 C 0.23811 0.09049 0.25594 0.0
C3229 C 0.23115 0.09264 0.26373 0.0
C3230 C 0.22084 0.09432 0.26134 0.0
C3231 C 0.21745 0.09383 0.25116 0.0
H3232 H 0.23376 0.09301 0.27161 0.0
H3233 H 0.20187 0.08898 0.17248 0.0
H3234 H 0.20965 0.88312 0.80811 0.0
H3235 H 0.21843 0.89832 0.80126 0.0
H3236 H 0.19481 0.91746 0.81366 0.0
H3237 H 0.18593 0.90226 0.82041 0.0
H3238 H 0.19879 0.92323 0.79493 0.0
H3239 H 0.21925 0.91608 0.82454 0.0
H3240 H 0.22975 0.90566 0.8363 0.0
H3241 H 0.25169 0.90085 0.81241 0.0
H3242 H 0.24124 0.91113 0.80045 0.0
H3243 H 0.22571 0.97087 0.78975 0.0
H3244 H 0.21761 0.95554 0.7972 0.0
H3245 H 0.23772 0.93643 0.77967 0.0
H3246 H 0.24582 0.95177 0.77213 0.0
H3247 H 0.23575 0.93077 0.80099 0.0
H3248 H 0.21469 0.93829 0.7715 0.0
H3249 H 0.20412 0.94931 0.76038 0.0
H3250 H 0.18315 0.9541 0.78513 0.0
H3251 H 0.19369 0.94322 0.79646 0.0
C3252 C 0.2064 0.89058 0.80948 0.0
C3253 C 0.1971 0.89149 0.81481 0.0
C3254 C 0.21143 0.89927 0.80557 0.0
C3255 C 0.20735 0.90907 0.80703 0.0
C3256 C 0.1981 0.90999 0.81241 0.0
C3257 C 0.19302 0.9013 0.81625 0.0
C3258 C 0.21255 0.91833 0.80268 0.0
C3259 C 0.20684 0.92493 0.79639 0.0
C3260 C 0.22311 0.92049 0.8044 0.0
C3261 C 0.22941 0.91429 0.81157 0.0
C3262 C 0.22627 0.91273 0.82176 0.0
C3263 C 0.23222 0.90686 0.82847 0.0
C3264 C 0.24137 0.90257 0.82509 0.0
C3265 C 0.24459 0.90416 0.81501 0.0
C3266 C 0.23867 0.91002 0.80826 0.0
C3267 C 0.22843 0.9634 0.78753 0.0
C3268 C 0.23638 0.9625 0.78035 0.0
C3269 C 0.22378 0.95466 0.79175 0.0
C3270 C 0.22705 0.94486 0.78895 0.0
C3271 C 0.23509 0.94393 0.78192 0.0
C3272 C 0.23966 0.95268 0.77758 0.0
C3273 C 0.22197 0.9356 0.7933 0.0
C3274 C 0.2277 0.92902 0.79957 0.0
C3275 C 0.21141 0.93352 0.79166 0.0
C3276 C 0.20504 0.94003 0.78486 0.0
C3277 C 0.20788 0.94177 0.7746 0.0
C3278 C 0.20188 0.94797 0.76825 0.0
C3279 C 0.19299 0.95242 0.77205 0.0
C3280 C 0.19005 0.95066 0.7822 0.0
C3281 C 0.19603 0.94446 0.78859 0.0
H3282 H 0.18835 0.95722 0.76712 0.0
H3283 H 0.24597 0.89803 0.8303 0.0
H3284 H 0.11472 0.19096 0.82511 0.0
H3285 H 0.09957 0.19965 0.81836 0.0
H3286 H 0.11847 0.21561 0.79625 0.0
H3287 H 0.13366 0.20702 0.80305 0.0
H3288 H 0.10491 0.2283 0.80379 0.0
H3289 H 0.10329 0.19452 0.78966 0.0
H3290 H 0.10316 0.17564 0.79003 0.0
H3291 H 0.076 0.17558 0.80853 0.0
H3292 H 0.07605 0.19448 0.80839 0.0
H3293 H 0.06437 0.24396 0.77056 0.0
H3294 H 0.07964 0.23581 0.77772 0.0
H3295 H 0.06107 0.22112 0.80092 0.0
H3296 H 0.04572 0.22901 0.79363 0.0
H3297 H 0.07447 0.20788 0.79277 0.0
H3298 H 0.07624 0.24197 0.80659 0.0
H3299 H 0.07641 0.26084 0.80562 0.0
H3300 H 0.10341 0.26023 0.78691 0.0
H3301 H 0.10333 0.24134 0.78767 0.0
C3302 C 0.11565 0.1963 0.81879 0.0
C3303 C 0.12541 0.19825 0.81459 0.0
C3304 C 0.10697 0.20126 0.81493 0.0
C3305 C 0.10782 0.20817 0.80667 0.0
C3306 C 0.11759 0.21031 0.80262 0.0
C3307 C 0.12628 0.20541 0.80653 0.0
C3308 C 0.09852 0.21309 0.80219 0.0
C3309 C 0.09831 0.22381 0.80126 0.0
C3310 C 0.0898 0.20729 0.79903 0.0
C3311 C 0.08973 0.19592 0.7991 0.0
C3312 C 0.09733 0.19049 0.79387 0.0
C3313 C 0.09727 0.17978 0.79403 0.0
C3314 C 0.08959 0.17441 0.79932 0.0
C3315 C 0.08195 0.17975 0.80445 0.0
C3316 C 0.08199 0.19046 0.80433 0.0
C3317 C 0.06351 0.23893 0.77714 0.0
C3318 C 0.0538 0.23717 0.78153 0.0
C3319 C 0.07228 0.23435 0.78129 0.0
C3320 C 0.07155 0.22794 0.78994 0.0
C3321 C 0.06185 0.22607 0.79427 0.0
C3322 C 0.05309 0.23066 0.79014 0.0
C3323 C 0.08085 0.22307 0.79442 0.0
C3324 C 0.08107 0.21236 0.79532 0.0
C3325 C 0.08959 0.22888 0.79748 0.0
C3326 C 0.08973 0.24024 0.79711 0.0
C3327 C 0.08218 0.24586 0.80222 0.0
C3328 C 0.08227 0.25656 0.80171 0.0
C3329 C 0.0899 0.26173 0.79618 0.0
C3330 C 0.09749 0.25621 0.79118 0.0
C3331 C 0.09744 0.24551 0.79166 0.0
H3332 H 0.08995 0.27002 0.79579 0.0
H3333 H 0.08956 0.16612 0.79943 0.0
H3334 H 0.82277 0.11792 0.82707 0.0
H3335 H 0.81633 0.10266 0.81821 0.0
H3336 H 0.792 0.12039 0.80464 0.0
H3337 H 0.79835 0.13565 0.81357 0.0
H3338 H 0.78451 0.10294 0.81153 0.0
H3339 H 0.8133 0.11253 0.7907 0.0
H3340 H 0.83135 0.11711 0.78713 0.0
H3341 H 0.84095 0.08789 0.79872 0.0
H3342 H 0.82296 0.08319 0.8025 0.0
H3343 H 0.76816 0.06586 0.77506 0.0
H3344 H 0.77513 0.08135 0.7831 0.0
H3345 H 0.79872 0.06352 0.79779 0.0
H3346 H 0.79178 0.04799 0.78979 0.0
H3347 H 0.8066 0.08105 0.79013 0.0
H3348 H 0.77771 0.07165 0.81112 0.0
H3349 H 0.7596 0.06712 0.81448 0.0
H3350 H 0.75017 0.09615 0.80227 0.0
H3351 H 0.76822 0.1008 0.79872 0.0
C3352 C 0.81612 0.1186 0.8221 0.0
C3353 C 0.81109 0.12802 0.82102 0.0
C3354 C 0.81244 0.10986 0.81703 0.0
C3355 C 0.80373 0.11036 0.81065 0.0
C3356 C 0.79871 0.11977 0.80953 0.0
C3357 C 0.80235 0.1285 0.81466 0.0
C3358 C 0.79967 0.10105 0.80535 0.0
C3359 C 0.78932 0.09825 0.80673 0.0
C3360 C 0.80597 0.09475 0.79926 0.0
C3361 C 0.81679 0.09755 0.79697 0.0
C3362 C 0.81927 0.10711 0.79256 0.0
C3363 C 0.82949 0.10972 0.79049 0.0
C3364 C 0.8373 0.1028 0.79272 0.0
C3365 C 0.8349 0.09325 0.79701 0.0
C3366 C 0.82469 0.0906 0.79911 0.0
C3367 C 0.77478 0.06521 0.78007 0.0
C3368 C 0.77937 0.05565 0.78181 0.0
C3369 C 0.77878 0.07409 0.78465 0.0
C3370 C 0.78739 0.0736 0.79116 0.0
C3371 C 0.79208 0.0641 0.79279 0.0
C3372 C 0.78811 0.05522 0.78819 0.0
C3373 C 0.79146 0.08298 0.79632 0.0
C3374 C 0.8018 0.08577 0.79492 0.0
C3375 C 0.78516 0.08929 0.80237 0.0
C3376 C 0.77431 0.08654 0.80457 0.0
C3377 C 0.77177 0.07704 0.80909 0.0
C3378 C 0.76151 0.07446 0.81104 0.0
C3379 C 0.75374 0.08133 0.80856 0.0
C3380 C 0.7562 0.09083 0.80417 0.0
C3381 C 0.76644 0.09345 0.8022 0.0
H3382 H 0.7458 0.07932 0.81007 0.0
H3383 H 0.84521 0.10484 0.79111 0.0
H3384 H 0.88394 0.80917 0.80667 0.0
H3385 H 0.89887 0.80259 0.79762 0.0
H3386 H 0.91877 0.8141 0.82156 0.0
H3387 H 0.90391 0.8209 0.83054 0.0
H3388 H 0.92683 0.81784 0.80274 0.0
H3389 H 0.91218 0.78893 0.82067 0.0
H3390 H 0.89838 0.77681 0.8256 0.0
H3391 H 0.89484 0.7676 0.7942 0.0
H3392 H 0.90853 0.77978 0.78907 0.0
H3393 H 0.97161 0.78928 0.79293 0.0
H3394 H 0.95635 0.7967 0.80057 0.0
H3395 H 0.93755 0.78345 0.77663 0.0
H3396 H 0.95276 0.77568 0.76914 0.0
H3397 H 0.92862 0.78079 0.79476 0.0
H3398 H 0.94365 0.8092 0.77682 0.0
H3399 H 0.9574 0.82133 0.7718 0.0
H3400 H 0.96017 0.83156 0.80294 0.0
H3401 H 0.94653 0.81938 0.80818 0.0
C3402 C 0.8915 0.81041 0.80996 0.0
C3403 C 0.89271 0.81552 0.81937 0.0
C3404 C 0.90003 0.80656 0.80481 0.0
C3405 C 0.90995 0.80773 0.80897 0.0
C3406 C 0.9112 0.81307 0.81822 0.0
C3407 C 0.90268 0.81688 0.82338 0.0
C3408 C 0.91902 0.80325 0.80379 0.0
C3409 C 0.92727 0.80972 0.8011 0.0
C3410 C 0.91951 0.79269 0.8014 0.0
C3411 C 0.9113 0.78535 0.80447 0.0
C3412 C 0.9084 0.78438 0.81481 0.0
C3413 C 0.90061 0.77749 0.81764 0.0
C3414 C 0.89572 0.77146 0.81021 0.0
C3415 C 0.89863 0.77229 0.79994 0.0
C3416 C 0.9064 0.77918 0.79707 0.0
C3417 C 0.96423 0.78786 0.78932 0.0
C3418 C 0.96344 0.78187 0.7804 0.0
C3419 C 0.9555 0.79222 0.79364 0.0
C3420 C 0.94578 0.79076 0.78912 0.0
C3421 C 0.94496 0.78473 0.78025 0.0
C3422 C 0.95368 0.78036 0.77592 0.0
C3423 C 0.93648 0.79537 0.79374 0.0
C3424 C 0.92817 0.78892 0.79635 0.0
C3425 C 0.93594 0.80595 0.79603 0.0
C3426 C 0.94413 0.8133 0.79291 0.0
C3427 C 0.94724 0.81398 0.78261 0.0
C3428 C 0.95501 0.82087 0.77973 0.0
C3429 C 0.95967 0.82719 0.78705 0.0
C3430 C 0.95656 0.82665 0.79728 0.0
C3431 C 0.94881 0.81976 0.80021 0.0
H3432 H 0.96568 0.83253 0.7848 0.0
H3433 H 0.88969 0.76612 0.81242 0.0
H3434 H 0.82989 0.89431 0.21762 0.0
H3435 H 0.82115 0.90941 0.22396 0.0
H3436 H 0.79837 0.90633 0.20004 0.0
H3437 H 0.80701 0.89106 0.1937 0.0
H3438 H 0.80458 0.92628 0.20243 0.0
H3439 H 0.79264 0.89906 0.22413 0.0
H3440 H 0.79426 0.88418 0.23571 0.0
H3441 H 0.81115 0.90263 0.25729 0.0
H3442 H 0.80976 0.9176 0.24576 0.0
H3443 H 0.76956 0.96123 0.2251 0.0
H3444 H 0.77743 0.94604 0.21775 0.0
H3445 H 0.80076 0.94679 0.24132 0.0
H3446 H 0.79301 0.96202 0.24865 0.0
H3447 H 0.79348 0.92768 0.23872 0.0
H3448 H 0.80586 0.95476 0.21679 0.0
H3449 H 0.80431 0.96962 0.20517 0.0
H3450 H 0.78655 0.95144 0.18405 0.0
H3451 H 0.78788 0.93649 0.19561 0.0
C3452 C 0.82296 0.89675 0.21374 0.0
C3453 C 0.81911 0.89136 0.20519 0.0
C3454 C 0.81799 0.90543 0.21737 0.0
C3455 C 0.80901 0.90894 0.21257 0.0
C3456 C 0.80527 0.90376 0.20388 0.0
C3457 C 0.81025 0.89504 0.20025 0.0
C3458 C 0.80355 0.91798 0.21671 0.0
C3459 C 0.80201 0.92653 0.21032 0.0
C3460 C 0.80035 0.9184 0.22706 0.0
C3461 C 0.80117 0.90943 0.23403 0.0
C3462 C 0.79677 0.89993 0.2313 0.0
C3463 C 0.79763 0.89148 0.23787 0.0
C3464 C 0.80283 0.89246 0.24722 0.0
C3465 C 0.80714 0.90189 0.25004 0.0
C3466 C 0.80631 0.91036 0.2435 0.0
C3467 C 0.77643 0.95824 0.22867 0.0
C3468 C 0.78064 0.96289 0.23748 0.0
C3469 C 0.78091 0.94952 0.22446 0.0
C3470 C 0.78975 0.9453 0.22892 0.0
C3471 C 0.79393 0.94988 0.23775 0.0
C3472 C 0.78946 0.95858 0.24196 0.0
C3473 C 0.7946 0.93604 0.22449 0.0
C3474 C 0.79601 0.92743 0.23082 0.0
C3475 C 0.79767 0.93557 0.21409 0.0
C3476 C 0.79688 0.94454 0.20712 0.0
C3477 C 0.80155 0.95395 0.20971 0.0
C3478 C 0.80073 0.96239 0.20312 0.0
C3479 C 0.79531 0.96148 0.19389 0.0
C3480 C 0.79073 0.95213 0.19121 0.0
C3481 C 0.79152 0.94367 0.19777 0.0
H3482 H 0.79468 0.96802 0.1888 0.0
H3483 H 0.80349 0.88591 0.25229 0.0
H3484 H 0.13464 0.80868 0.21222 0.0
H3485 H 0.11944 0.80218 0.22121 0.0
H3486 H 0.10045 0.81055 0.19539 0.0
H3487 H 0.11559 0.81725 0.18643 0.0
H3488 H 0.09161 0.81567 0.2136 0.0
H3489 H 0.1074 0.78599 0.19893 0.0
H3490 H 0.1216 0.77414 0.19572 0.0
H3491 H 0.12393 0.76771 0.22797 0.0
H3492 H 0.10983 0.77965 0.23138 0.0
H3493 H 0.04677 0.78674 0.22475 0.0
H3494 H 0.06219 0.79397 0.21688 0.0
H3495 H 0.08047 0.78266 0.24208 0.0
H3496 H 0.06513 0.77493 0.24975 0.0
H3497 H 0.08998 0.77931 0.22479 0.0
H3498 H 0.07404 0.80845 0.23965 0.0
H3499 H 0.06001 0.82042 0.24315 0.0
H3500 H 0.05817 0.82809 0.21114 0.0
H3501 H 0.0721 0.81605 0.20743 0.0
C3502 C 0.12721 0.80925 0.2085 0.0
C3503 C 0.12634 0.81345 0.19858 0.0
C3504 C 0.11854 0.80545 0.21362 0.0
C3505 C 0.10881 0.80576 0.20893 0.0
C3506 C 0.10788 0.81019 0.19914 0.0
C3507 C 0.11655 0.81394 0.194 0.0
C3508 C 0.09962 0.80135 0.21414 0.0
C3509 C 0.0912 0.80769 0.21595 0.0
C3510 C 0.09918 0.79101 0.21746 0.0
C3511 C 0.10763 0.7838 0.21541 0.0
C3512 C 0.111 0.78212 0.20534 0.0
C3513 C 0.11902 0.77537 0.20349 0.0
C3514 C 0.12369 0.7702 0.21164 0.0
C3515 C 0.12032 0.77174 0.22166 0.0
C3516 C 0.11231 0.77849 0.22356 0.0
C3517 C 0.05407 0.78567 0.22858 0.0
C3518 C 0.05466 0.78023 0.23791 0.0
C3519 C 0.06289 0.78995 0.22413 0.0
C3520 C 0.0725 0.78902 0.22895 0.0
C3521 C 0.07314 0.78354 0.23822 0.0
C3522 C 0.06433 0.7792 0.24266 0.0
C3523 C 0.08191 0.79361 0.22423 0.0
C3524 C 0.09038 0.7873 0.2225 0.0
C3525 C 0.08241 0.804 0.22105 0.0
C3526 C 0.07405 0.81127 0.22325 0.0
C3527 C 0.07059 0.81263 0.23335 0.0
C3528 C 0.06266 0.81944 0.23537 0.0
C3529 C 0.05818 0.825 0.22737 0.0
C3530 C 0.06164 0.82377 0.21733 0.0
C3531 C 0.06956 0.81697 0.21526 0.0
H3532 H 0.05205 0.83027 0.22895 0.0
H3533 H 0.1299 0.76497 0.21019 0.0
H3534 H 0.88204 0.21652 0.20894 0.0
H3535 H 0.89745 0.22326 0.21746 0.0
H3536 H 0.91626 0.20381 0.19885 0.0
H3537 H 0.90084 0.19692 0.19043 0.0
H3538 H 0.92323 0.2038 0.21778 0.0
H3539 H 0.91353 0.22982 0.1937 0.0
H3540 H 0.90189 0.24208 0.18531 0.0
H3541 H 0.89824 0.25791 0.21382 0.0
H3542 H 0.90975 0.24565 0.22241 0.0
H3543 H 0.97079 0.23029 0.22548 0.0
H3544 H 0.95514 0.22304 0.21781 0.0
H3545 H 0.93679 0.24008 0.23905 0.0
H3546 H 0.95242 0.24745 0.24669 0.0
H3547 H 0.92959 0.24133 0.21906 0.0
H3548 H 0.93992 0.21516 0.24287 0.0
H3549 H 0.95193 0.20295 0.25077 0.0
H3550 H 0.95491 0.18748 0.22198 0.0
H3551 H 0.94302 0.1997 0.21387 0.0
C3552 C 0.88946 0.2137 0.20665 0.0
C3553 C 0.89023 0.20623 0.19898 0.0
C3554 C 0.89827 0.21757 0.21152 0.0
C3555 C 0.90805 0.21418 0.20868 0.0
C3556 C 0.90881 0.20656 0.20117 0.0
C3557 C 0.89999 0.20261 0.19637 0.0
C3558 C 0.91748 0.21863 0.21348 0.0
C3559 C 0.92467 0.212 0.21793 0.0
C3560 C 0.91931 0.22935 0.21387 0.0
C3561 C 0.91242 0.23676 0.20872 0.0
C3562 C 0.91018 0.23587 0.1982 0.0
C3563 C 0.90362 0.24283 0.1934 0.0
C3564 C 0.89931 0.25075 0.19903 0.0
C3565 C 0.90157 0.25176 0.20947 0.0
C3566 C 0.90812 0.24481 0.2143 0.0
C3567 C 0.96342 0.23254 0.22848 0.0
C3568 C 0.96284 0.23944 0.2367 0.0
C3569 C 0.95449 0.22833 0.22414 0.0
C3570 C 0.9448 0.23095 0.22792 0.0
C3571 C 0.94419 0.23793 0.23604 0.0
C3572 C 0.95312 0.24208 0.24044 0.0
C3573 C 0.93531 0.2265 0.22332 0.0
C3574 C 0.92812 0.23313 0.2189 0.0
C3575 C 0.93354 0.21579 0.22287 0.0
C3576 C 0.94066 0.20841 0.22774 0.0
C3577 C 0.9432 0.20921 0.2382 0.0
C3578 C 0.94998 0.20228 0.24272 0.0
C3579 C 0.9542 0.19446 0.23687 0.0
C3580 C 0.95164 0.19355 0.2265 0.0
C3581 C 0.94487 0.20047 0.22194 0.0
H3582 H 0.95944 0.1891 0.24038 0.0
H3583 H 0.89423 0.25613 0.19531 0.0
H3584 H 0.21132 0.68463 0.62037 0.0
H3585 H 0.21793 0.69349 0.60522 0.0
H3586 H 0.20247 0.72101 0.61423 0.0
H3587 H 0.1959 0.71221 0.62954 0.0
H3588 H 0.20042 0.71731 0.59357 0.0
H3589 H 0.22795 0.71886 0.6182 0.0
H3590 H 0.24021 0.71175 0.63074 0.0
H3591 H 0.25321 0.69299 0.60731 0.0
H3592 H 0.24092 0.69988 0.59466 0.0
H3593 H 0.22696 0.74998 0.5584 0.0
H3594 H 0.21958 0.74208 0.57378 0.0
H3595 H 0.23725 0.71488 0.56853 0.0
H3596 H 0.24486 0.72289 0.55333 0.0
H3597 H 0.238 0.71903 0.58777 0.0
H3598 H 0.21043 0.71673 0.56324 0.0
H3599 H 0.19802 0.72326 0.55052 0.0
H3600 H 0.18496 0.74272 0.57333 0.0
H3601 H 0.19739 0.7364 0.58615 0.0
C3602 C 0.20938 0.69259 0.61921 0.0
C3603 C 0.20316 0.69773 0.62627 0.0
C3604 C 0.21314 0.69764 0.6105 0.0
C3605 C 0.21083 0.70797 0.60865 0.0
C3606 C 0.20438 0.71305 0.61551 0.0
C3607 C 0.2006 0.70799 0.62424 0.0
C3608 C 0.21528 0.71344 0.59963 0.0
C3609 C 0.20864 0.71783 0.59236 0.0
C3610 C 0.226 0.71392 0.59792 0.0
C3611 C 0.23346 0.70983 0.6055 0.0
C3612 C 0.23337 0.71317 0.61573 0.0
C3613 C 0.24033 0.70918 0.62286 0.0
C3614 C 0.24747 0.70191 0.61983 0.0
C3615 C 0.24767 0.69862 0.60965 0.0
C3616 C 0.24072 0.70257 0.6025 0.0
C3617 C 0.22923 0.7423 0.56051 0.0
C3618 C 0.23649 0.73705 0.55464 0.0
C3619 C 0.22497 0.73776 0.56929 0.0
C3620 C 0.22771 0.72779 0.57228 0.0
C3621 C 0.235 0.72257 0.56643 0.0
C3622 C 0.23936 0.72716 0.55774 0.0
C3623 C 0.22315 0.72283 0.58158 0.0
C3624 C 0.22977 0.71855 0.58894 0.0
C3625 C 0.21241 0.72239 0.58331 0.0
C3626 C 0.20491 0.72617 0.57563 0.0
C3627 C 0.20496 0.72245 0.56552 0.0
C3628 C 0.19791 0.72611 0.5583 0.0
C3629 C 0.19072 0.73342 0.56111 0.0
C3630 C 0.19054 0.73707 0.57116 0.0
C3631 C 0.19758 0.73345 0.57841 0.0
H3632 H 0.18528 0.73625 0.55551 0.0
H3633 H 0.25285 0.69883 0.62536 0.0
H3634 H 0.80707 0.71077 0.63578 0.0
H3635 H 0.80063 0.7199 0.62065 0.0
H3636 H 0.81064 0.69528 0.60132 0.0
H3637 H 0.81723 0.68619 0.61639 0.0
H3638 H 0.81535 0.71424 0.59317 0.0
H3639 H 0.78588 0.69693 0.60755 0.0
H3640 H 0.77369 0.6923 0.62125 0.0
H3641 H 0.76549 0.72388 0.62438 0.0
H3642 H 0.77775 0.72872 0.61079 0.0
H3643 H 0.78694 0.72468 0.548 0.0
H3644 H 0.79421 0.71689 0.56342 0.0
H3645 H 0.78161 0.74104 0.58178 0.0
H3646 H 0.77396 0.74867 0.56642 0.0
H3647 H 0.77846 0.723 0.59077 0.0
H3648 H 0.80735 0.74041 0.57609 0.0
H3649 H 0.81963 0.74527 0.56254 0.0
H3650 H 0.82909 0.71399 0.56013 0.0
H3651 H 0.81676 0.70891 0.57357 0.0
C3652 C 0.80799 0.70735 0.62829 0.0
C3653 C 0.81262 0.69773 0.62729 0.0
C3654 C 0.80425 0.71254 0.61967 0.0
C3655 C 0.80506 0.70822 0.60987 0.0
C3656 C 0.8099 0.69874 0.60881 0.0
C3657 C 0.81359 0.69352 0.61743 0.0
C3658 C 0.80072 0.71349 0.60073 0.0
C3659 C 0.80727 0.71606 0.59259 0.0
C3660 C 0.79022 0.7161 0.60009 0.0
C3661 C 0.78281 0.7132 0.60823 0.0
C3662 C 0.78154 0.7029 0.61122 0.0
C3663 C 0.7746 0.70023 0.61895 0.0
C3664 C 0.76884 0.70779 0.6237 0.0
C3665 C 0.76997 0.71803 0.6207 0.0
C3666 C 0.77691 0.72074 0.61298 0.0
C3667 C 0.78563 0.7283 0.55532 0.0
C3668 C 0.77985 0.73731 0.55595 0.0
C3669 C 0.7899 0.72389 0.56413 0.0
C3670 C 0.78858 0.72845 0.57376 0.0
C3671 C 0.78278 0.73741 0.57443 0.0
C3672 C 0.77848 0.74181 0.56563 0.0
C3673 C 0.79309 0.72373 0.58315 0.0
C3674 C 0.78656 0.72124 0.59135 0.0
C3675 C 0.80362 0.72125 0.58385 0.0
C3676 C 0.81106 0.72427 0.57577 0.0
C3677 C 0.81199 0.73455 0.57261 0.0
C3678 C 0.81897 0.73735 0.56496 0.0
C3679 C 0.82511 0.72994 0.56046 0.0
C3680 C 0.82431 0.71972 0.56362 0.0
C3681 C 0.81734 0.71688 0.57126 0.0
H3682 H 0.83051 0.73212 0.55453 0.0
H3683 H 0.76347 0.70571 0.62969 0.0
H3684 H 0.82552 0.31013 0.62537 0.0
H3685 H 0.81872 0.30089 0.61049 0.0
H3686 H 0.79248 0.32071 0.60974 0.0
H3687 H 0.79899 0.32969 0.62483 0.0
H3688 H 0.78649 0.30159 0.6067 0.0
H3689 H 0.81292 0.32362 0.59284 0.0
H3690 H 0.83042 0.33087 0.59137 0.0
H3691 H 0.84208 0.30107 0.58451 0.0
H3692 H 0.82466 0.29362 0.58607 0.0
H3693 H 0.76813 0.29214 0.55635 0.0
H3694 H 0.77545 0.30005 0.57173 0.0
H3695 H 0.80022 0.27845 0.57147 0.0
H3696 H 0.79309 0.27067 0.5559 0.0
H3697 H 0.80728 0.29762 0.57525 0.0
H3698 H 0.78065 0.27574 0.58841 0.0
H3699 H 0.76309 0.26862 0.58967 0.0
H3700 H 0.75176 0.29824 0.59773 0.0
H3701 H 0.76925 0.30559 0.59637 0.0
C3702 C 0.81825 0.31247 0.62211 0.0
C3703 C 0.81286 0.32072 0.6263 0.0
C3704 C 0.81442 0.30723 0.61352 0.0
C3705 C 0.80514 0.31018 0.60887 0.0
C3706 C 0.79967 0.31831 0.61313 0.0
C3707 C 0.80347 0.32351 0.62173 0.0
C3708 C 0.80108 0.30482 0.5996 0.0
C3709 C 0.79101 0.30083 0.59979 0.0
C3710 C 0.80703 0.30357 0.59063 0.0
C3711 C 0.8175 0.30805 0.58968 0.0
C3712 C 0.81923 0.3186 0.5911 0.0
C3713 C 0.82913 0.32275 0.59023 0.0
C3714 C 0.83736 0.31643 0.58788 0.0
C3715 C 0.8357 0.30595 0.58635 0.0
C3716 C 0.82581 0.30176 0.58722 0.0
C3717 C 0.77518 0.28911 0.55951 0.0
C3718 C 0.78 0.28075 0.55488 0.0
C3719 C 0.77931 0.29358 0.56837 0.0
C3720 C 0.78833 0.28978 0.57284 0.0
C3721 C 0.79323 0.2815 0.56819 0.0
C3722 C 0.78909 0.277 0.55933 0.0
C3723 C 0.79268 0.29449 0.58233 0.0
C3724 C 0.80279 0.29835 0.58218 0.0
C3725 C 0.78677 0.29563 0.59132 0.0
C3726 C 0.77625 0.29123 0.5922 0.0
C3727 C 0.77441 0.28076 0.59038 0.0
C3728 C 0.76446 0.27668 0.59112 0.0
C3729 C 0.75631 0.28298 0.59376 0.0
C3730 C 0.75809 0.29337 0.59568 0.0
C3731 C 0.76801 0.2975 0.59493 0.0
H3732 H 0.74862 0.27981 0.59433 0.0
H3733 H 0.84502 0.31966 0.58721 0.0
H3734 H 0.19549 0.32909 0.61573 0.0
H3735 H 0.20246 0.32039 0.60076 0.0
H3736 H 0.22043 0.30103 0.62062 0.0
H3737 H 0.21361 0.3098 0.63563 0.0
H3738 H 0.23177 0.30889 0.6047 0.0
H3739 H 0.19936 0.29154 0.60898 0.0
H3740 H 0.18057 0.29028 0.61096 0.0
H3741 H 0.17637 0.3049 0.58169 0.0
H3742 H 0.19514 0.30637 0.57961 0.0
H3743 H 0.24754 0.27375 0.56667 0.0
H3744 H 0.24021 0.28159 0.58193 0.0
H3745 H 0.21973 0.29914 0.56279 0.0
H3746 H 0.22693 0.29119 0.54753 0.0
H3747 H 0.20962 0.29197 0.57859 0.0
H3748 H 0.24168 0.30985 0.5743 0.0
H3749 H 0.26042 0.31158 0.57215 0.0
H3750 H 0.26526 0.29666 0.60116 0.0
H3751 H 0.24654 0.29472 0.60341 0.0
C3752 C 0.20094 0.32299 0.61691 0.0
C3753 C 0.20398 0.32013 0.62688 0.0
C3754 C 0.20486 0.31798 0.60835 0.0
C3755 C 0.21192 0.31001 0.60956 0.0
C3756 C 0.21498 0.30714 0.6195 0.0
C3757 C 0.21101 0.31211 0.62807 0.0
C3758 C 0.21626 0.30481 0.60046 0.0
C3759 C 0.22694 0.30505 0.59907 0.0
C3760 C 0.20995 0.30005 0.59296 0.0
C3761 C 0.19866 0.29915 0.59419 0.0
C3762 C 0.19443 0.29456 0.60301 0.0
C3763 C 0.18378 0.2938 0.60414 0.0
C3764 C 0.17728 0.29753 0.59647 0.0
C3765 C 0.18142 0.30202 0.58764 0.0
C3766 C 0.19206 0.30281 0.58647 0.0
C3767 C 0.24152 0.27933 0.56572 0.0
C3768 C 0.23784 0.28187 0.55588 0.0
C3769 C 0.23734 0.28382 0.57445 0.0
C3770 C 0.2295 0.29108 0.57354 0.0
C3771 C 0.22575 0.29356 0.56372 0.0
C3772 C 0.22987 0.289 0.55499 0.0
C3773 C 0.22515 0.29606 0.5828 0.0
C3774 C 0.21447 0.29578 0.58423 0.0
C3775 C 0.23146 0.30087 0.59029 0.0
C3776 C 0.24271 0.30205 0.58897 0.0
C3777 C 0.24674 0.30687 0.58018 0.0
C3778 C 0.25736 0.3079 0.57895 0.0
C3779 C 0.26403 0.30421 0.5865 0.0
C3780 C 0.26009 0.2995 0.59531 0.0
C3781 C 0.24947 0.29844 0.59657 0.0
H3782 H 0.27224 0.30502 0.58554 0.0
H3783 H 0.16904 0.29693 0.59736 0.0
H3784 H 0.19378 0.32189 0.39989 0.0
H3785 H 0.2002 0.31326 0.41529 0.0
H3786 H 0.22779 0.3052 0.39926 0.0
H3787 H 0.22133 0.31365 0.38376 0.0
H3788 H 0.22034 0.28923 0.41101 0.0
H3789 H 0.22814 0.32507 0.41533 0.0
H3790 H 0.22419 0.34348 0.41598 0.0
H3791 H 0.20309 0.33787 0.44061 0.0
H3792 H 0.20681 0.3194 0.44001 0.0
H3793 H 0.25106 0.27638 0.45409 0.0
H3794 H 0.24421 0.28409 0.43846 0.0
H3795 H 0.21804 0.29486 0.45522 0.0
H3796 H 0.22513 0.28768 0.47102 0.0
H3797 H 0.22463 0.30932 0.44298 0.0
H3798 H 0.2166 0.27362 0.43883 0.0
H3799 H 0.22032 0.25515 0.43833 0.0
H3800 H 0.24144 0.26029 0.41363 0.0
H3801 H 0.23791 0.27882 0.41405 0.0
C3802 C 0.20115 0.31817 0.3996 0.0
C3803 C 0.20706 0.3185 0.39061 0.0
C3804 C 0.20484 0.3133 0.40843 0.0
C3805 C 0.21453 0.30869 0.40846 0.0
C3806 C 0.22032 0.30875 0.39942 0.0
C3807 C 0.21665 0.31365 0.3906 0.0
C3808 C 0.21873 0.30403 0.418 0.0
C3809 C 0.22139 0.29364 0.41797 0.0
C3810 C 0.21989 0.30973 0.42714 0.0
C3811 C 0.21768 0.32084 0.42755 0.0
C3812 C 0.2226 0.32776 0.42083 0.0
C3813 C 0.22041 0.3382 0.4212 0.0
C3814 C 0.21337 0.34184 0.42832 0.0
C3815 C 0.20853 0.33504 0.43509 0.0
C3816 C 0.21068 0.32458 0.43475 0.0
C3817 C 0.2439 0.28048 0.4545 0.0
C3818 C 0.23865 0.28137 0.46386 0.0
C3819 C 0.23992 0.28478 0.4455 0.0
C3820 C 0.23051 0.28993 0.4456 0.0
C3821 C 0.22529 0.29089 0.45493 0.0
C3822 C 0.22931 0.28667 0.46395 0.0
C3823 C 0.22621 0.29448 0.43604 0.0
C3824 C 0.22355 0.30487 0.43604 0.0
C3825 C 0.225 0.28876 0.42689 0.0
C3826 C 0.22705 0.27761 0.42653 0.0
C3827 C 0.22208 0.27082 0.43333 0.0
C3828 C 0.22414 0.26034 0.43305 0.0
C3829 C 0.23112 0.25655 0.42596 0.0
C3830 C 0.23604 0.26324 0.41911 0.0
C3831 C 0.23399 0.27372 0.41936 0.0
H3832 H 0.23271 0.24844 0.42576 0.0
H3833 H 0.21169 0.34993 0.42859 0.0
H3834 H 0.19047 0.71789 0.39084 0.0
H3835 H 0.19959 0.72458 0.40579 0.0
H3836 H 0.21513 0.6958 0.40946 0.0
H3837 H 0.20569 0.68889 0.39468 0.0
H3838 H 0.20887 0.70251 0.42757 0.0
H3839 H 0.22759 0.71706 0.39969 0.0
H3840 H 0.23014 0.72638 0.3834 0.0
H3841 H 0.21764 0.75352 0.39666 0.0
H3842 H 0.21487 0.74432 0.41299 0.0
H3843 H 0.24538 0.72286 0.4636 0.0
H3844 H 0.23769 0.71525 0.44818 0.0
H3845 H 0.21884 0.7419 0.44415 0.0
H3846 H 0.22655 0.74958 0.45951 0.0
H3847 H 0.22781 0.73569 0.42603 0.0
H3848 H 0.20856 0.7205 0.45378 0.0
H3849 H 0.20642 0.71097 0.47001 0.0
H3850 H 0.22067 0.68471 0.45676 0.0
H3851 H 0.22303 0.69414 0.44048 0.0
C3852 C 0.19575 0.71293 0.39486 0.0
C3853 C 0.19731 0.70282 0.39153 0.0
C3854 C 0.20107 0.71681 0.40336 0.0
C3855 C 0.20817 0.71075 0.4087 0.0
C3856 C 0.20972 0.70065 0.40545 0.0
C3857 C 0.20439 0.69673 0.39693 0.0
C3858 C 0.2138 0.71495 0.41778 0.0
C3859 C 0.21315 0.70968 0.42717 0.0
C3860 C 0.21927 0.72439 0.41735 0.0
C3861 C 0.22093 0.72997 0.40754 0.0
C3862 C 0.2253 0.72499 0.39911 0.0
C3863 C 0.22681 0.73026 0.38987 0.0
C3864 C 0.22403 0.74053 0.38899 0.0
C3865 C 0.21977 0.74556 0.39735 0.0
C3866 C 0.21824 0.74033 0.4066 0.0
C3867 C 0.23965 0.72712 0.45939 0.0
C3868 C 0.23656 0.73681 0.4628 0.0
C3869 C 0.23521 0.72274 0.45062 0.0
C3870 C 0.22763 0.72797 0.44504 0.0
C3871 C 0.22466 0.73771 0.44834 0.0
C3872 C 0.22902 0.74206 0.45716 0.0
C3873 C 0.22277 0.72331 0.4358 0.0
C3874 C 0.22357 0.72849 0.42638 0.0
C3875 C 0.21751 0.71376 0.43619 0.0
C3876 C 0.21608 0.70807 0.44596 0.0
C3877 C 0.21132 0.71272 0.45436 0.0
C3878 C 0.21005 0.70733 0.46356 0.0
C3879 C 0.21343 0.69725 0.46443 0.0
C3880 C 0.21807 0.69253 0.45608 0.0
C3881 C 0.21937 0.69789 0.44687 0.0
H3882 H 0.21243 0.69308 0.47156 0.0
H3883 H 0.22521 0.74459 0.38183 0.0
H3884 H 0.81144 0.71905 0.38443 0.0
H3885 H 0.80308 0.72554 0.39977 0.0
H3886 H 0.81538 0.70051 0.41749 0.0
H3887 H 0.82373 0.69393 0.40214 0.0
H3888 H 0.79596 0.70384 0.42275 0.0
H3889 H 0.82616 0.72473 0.41851 0.0
H3890 H 0.83824 0.73607 0.40923 0.0
H3891 H 0.81453 0.75829 0.40504 0.0
H3892 H 0.80226 0.74701 0.41418 0.0
H3893 H 0.78791 0.72563 0.47202 0.0
H3894 H 0.79554 0.71846 0.4566 0.0
H3895 H 0.78267 0.74288 0.43845 0.0
H3896 H 0.77493 0.75006 0.45382 0.0
H3897 H 0.80241 0.73976 0.43349 0.0
H3898 H 0.77224 0.71874 0.43795 0.0
H3899 H 0.76034 0.70734 0.44739 0.0
H3900 H 0.78425 0.68532 0.45143 0.0
H3901 H 0.79635 0.69665 0.44213 0.0
C3902 C 0.8124 0.71494 0.3916 0.0
C3903 C 0.81833 0.70601 0.39206 0.0
C3904 C 0.80761 0.71866 0.40037 0.0
C3905 C 0.80873 0.71362 0.40985 0.0
C3906 C 0.81441 0.70455 0.41028 0.0
C3907 C 0.81916 0.70078 0.40149 0.0
C3908 C 0.80408 0.71789 0.41931 0.0
C3909 C 0.79748 0.71165 0.42517 0.0
C3910 C 0.80589 0.72816 0.42239 0.0
C3911 C 0.81327 0.73498 0.41694 0.0
C3912 C 0.8235 0.732 0.41554 0.0
C3913 C 0.83038 0.73843 0.41032 0.0
C3914 C 0.82715 0.74788 0.40652 0.0
C3915 C 0.81702 0.75095 0.40797 0.0
C3916 C 0.8101 0.74455 0.41318 0.0
C3917 C 0.7866 0.72942 0.46473 0.0
C3918 C 0.78076 0.73842 0.46418 0.0
C3919 C 0.79099 0.72531 0.45591 0.0
C3920 C 0.7896 0.73006 0.44633 0.0
C3921 C 0.78386 0.73908 0.44576 0.0
C3922 C 0.77947 0.7432 0.45457 0.0
C3923 C 0.79426 0.72572 0.43692 0.0
C3924 C 0.80088 0.73195 0.43107 0.0
C3925 C 0.7925 0.71544 0.43388 0.0
C3926 C 0.78523 0.70859 0.43943 0.0
C3927 C 0.77499 0.7115 0.44092 0.0
C3928 C 0.7682 0.70505 0.44624 0.0
C3929 C 0.77154 0.69563 0.45003 0.0
C3930 C 0.78168 0.69263 0.4485 0.0
C3931 C 0.7885 0.69906 0.4432 0.0
H3932 H 0.76628 0.69064 0.45414 0.0
H3933 H 0.83249 0.75285 0.40248 0.0
H3934 H 0.82494 0.30714 0.3906 0.0
H3935 H 0.81866 0.29866 0.40616 0.0
H3936 H 0.79471 0.32101 0.40858 0.0
H3937 H 0.80118 0.32977 0.39333 0.0
H3938 H 0.80289 0.31768 0.42677 0.0
H3939 H 0.79015 0.29628 0.39946 0.0
H3940 H 0.79149 0.28553 0.38404 0.0
H3941 H 0.81129 0.26491 0.40028 0.0
H3942 H 0.81017 0.27562 0.41577 0.0
H3943 H 0.76942 0.29223 0.46136 0.0
H3944 H 0.77702 0.30015 0.44614 0.0
H3945 H 0.80094 0.27762 0.44641 0.0
H3946 H 0.79344 0.26969 0.46173 0.0
H3947 H 0.79363 0.2807 0.42717 0.0
H3948 H 0.80581 0.3018 0.45469 0.0
H3949 H 0.8043 0.3125 0.47012 0.0
H3950 H 0.78547 0.33369 0.45346 0.0
H3951 H 0.78674 0.32303 0.43796 0.0
C3952 C 0.81839 0.31031 0.39449 0.0
C3953 C 0.81355 0.31912 0.39063 0.0
C3954 C 0.81474 0.30538 0.40334 0.0
C3955 C 0.80611 0.30909 0.4085 0.0
C3956 C 0.80134 0.31795 0.40474 0.0
C3957 C 0.80501 0.3229 0.39593 0.0
C3958 C 0.80204 0.30385 0.41785 0.0
C3959 C 0.80076 0.30962 0.42681 0.0
C3960 C 0.7995 0.29326 0.41803 0.0
C3961 C 0.80016 0.28681 0.40874 0.0
C3962 C 0.79485 0.2895 0.39972 0.0
C3963 C 0.79556 0.2834 0.39097 0.0
C3964 C 0.80149 0.27456 0.39118 0.0
C3965 C 0.80671 0.27177 0.40013 0.0
C3966 C 0.80603 0.27785 0.4089 0.0
C3967 C 0.77636 0.289 0.45826 0.0
C3968 C 0.78084 0.28034 0.46285 0.0
C3969 C 0.78068 0.29354 0.44953 0.0
C3970 C 0.78963 0.28957 0.44518 0.0
C3971 C 0.79403 0.28082 0.44961 0.0
C3972 C 0.78971 0.27628 0.45836 0.0
C3973 C 0.79437 0.29457 0.43603 0.0
C3974 C 0.7958 0.28875 0.42713 0.0
C3975 C 0.79704 0.30512 0.43589 0.0
C3976 C 0.79629 0.31157 0.44519 0.0
C3977 C 0.80128 0.3087 0.45434 0.0
C3978 C 0.80048 0.31477 0.46309 0.0
C3979 C 0.79477 0.32376 0.46278 0.0
C3980 C 0.78988 0.32672 0.4537 0.0
C3981 C 0.79064 0.32067 0.44492 0.0
H3982 H 0.79416 0.32844 0.46957 0.0
H3983 H 0.80203 0.26986 0.3844 0.0
H3984 H 0.11495 0.69543 0.6903 0.0
H3985 H 0.09968 0.70202 0.69876 0.0
H3986 H 0.11886 0.72086 0.71824 0.0
H3987 H 0.13418 0.71418 0.70993 0.0
H3988 H 0.10324 0.7115 0.72899 0.0
H3989 H 0.10685 0.73131 0.69799 0.0
H3990 H 0.1087 0.73387 0.67934 0.0
H3991 H 0.07991 0.71832 0.67416 0.0
H3992 H 0.07796 0.71555 0.69278 0.0
H3993 H 0.06508 0.74524 0.74725 0.0
H3994 H 0.08028 0.73773 0.7395 0.0
H3995 H 0.06096 0.72134 0.71801 0.0
H3996 H 0.04576 0.72895 0.72564 0.0
H3997 H 0.07667 0.72917 0.7083 0.0
H3998 H 0.07277 0.70938 0.73907 0.0
H3999 H 0.07079 0.70647 0.75765 0.0
H4000 H 0.09983 0.72137 0.76327 0.0
H4001 H 0.10192 0.7245 0.74472 0.0
C4002 C 0.11594 0.70089 0.69646 0.0
C4003 C 0.1258 0.7043 0.6994 0.0
C4004 C 0.10719 0.70471 0.70124 0.0
C4005 C 0.10811 0.71203 0.70907 0.0
C4006 C 0.11795 0.71525 0.7122 0.0
C4007 C 0.1267 0.71148 0.70739 0.0
C4008 C 0.09881 0.71646 0.71385 0.0
C4009 C 0.09748 0.71547 0.72449 0.0
C4010 C 0.09117 0.72143 0.70796 0.0
C4011 C 0.09231 0.72313 0.69677 0.0
C4012 C 0.10095 0.72837 0.69287 0.0
C4013 C 0.10201 0.72987 0.68231 0.0
C4014 C 0.09444 0.72624 0.67557 0.0
C4015 C 0.08578 0.72112 0.67939 0.0
C4016 C 0.08469 0.71959 0.68994 0.0
C4017 C 0.06406 0.73996 0.74093 0.0
C4018 C 0.05419 0.73768 0.73708 0.0
C4019 C 0.07277 0.73566 0.7365 0.0
C4020 C 0.0718 0.72884 0.72823 0.0
C4021 C 0.06194 0.72658 0.72436 0.0
C4022 C 0.05324 0.73095 0.72873 0.0
C4023 C 0.08105 0.72421 0.72347 0.0
C4024 C 0.08239 0.72518 0.71283 0.0
C4025 C 0.08866 0.71917 0.72936 0.0
C4026 C 0.08745 0.71727 0.74051 0.0
C4027 C 0.07869 0.71211 0.74427 0.0
C4028 C 0.07756 0.7104 0.7548 0.0
C4029 C 0.08516 0.71375 0.76164 0.0
C4030 C 0.09394 0.71879 0.75796 0.0
C4031 C 0.0951 0.72053 0.74744 0.0
H4032 H 0.08427 0.71243 0.76978 0.0
H4033 H 0.09528 0.72741 0.6674 0.0
H4034 H 0.82917 0.6264 0.72048 0.0
H4035 H 0.82044 0.61107 0.72699 0.0
H4036 H 0.80223 0.60939 0.69934 0.0
H4037 H 0.81109 0.62464 0.69264 0.0
H4038 H 0.79065 0.60633 0.71686 0.0
H4039 H 0.82173 0.59344 0.70244 0.0
H4040 H 0.84044 0.59263 0.69989 0.0
H4041 H 0.84477 0.58574 0.73183 0.0
H4042 H 0.82608 0.58665 0.7346 0.0
H4043 H 0.77095 0.55607 0.7254 0.0
H4044 H 0.7793 0.57127 0.71816 0.0
H4045 H 0.80048 0.57207 0.7437 0.0
H4046 H 0.79254 0.55653 0.75069 0.0
H4047 H 0.81046 0.57557 0.72673 0.0
H4048 H 0.7797 0.58878 0.74147 0.0
H4049 H 0.76106 0.58986 0.74439 0.0
H4050 H 0.75616 0.59646 0.71247 0.0
H4051 H 0.77477 0.59528 0.70932 0.0
C4052 C 0.8234 0.62272 0.71571 0.0
C4053 C 0.82091 0.62674 0.70598 0.0
C4054 C 0.81838 0.61398 0.71948 0.0
C4055 C 0.81076 0.60903 0.71361 0.0
C4056 C 0.80809 0.6131 0.70399 0.0
C4057 C 0.81314 0.62184 0.70019 0.0
C4058 C 0.80563 0.59958 0.71753 0.0
C4059 C 0.79495 0.59955 0.71888 0.0
C4060 C 0.81128 0.59082 0.7204 0.0
C4061 C 0.82251 0.59021 0.71874 0.0
C4062 C 0.82668 0.59183 0.70893 0.0
C4063 C 0.83728 0.59134 0.70745 0.0
C4064 C 0.84379 0.58916 0.7157 0.0
C4065 C 0.83971 0.58744 0.72545 0.0
C4066 C 0.82912 0.58793 0.72698 0.0
C4067 C 0.77745 0.5594 0.72944 0.0
C4068 C 0.78105 0.55504 0.73866 0.0
C4069 C 0.78215 0.56819 0.72534 0.0
C4070 C 0.79044 0.57294 0.73045 0.0
C4071 C 0.79407 0.56859 0.73963 0.0
C4072 C 0.78944 0.55975 0.74368 0.0
C4073 C 0.79545 0.58231 0.72616 0.0
C4074 C 0.80613 0.58234 0.72471 0.0
C4075 C 0.7898 0.59109 0.72327 0.0
C4076 C 0.77862 0.59184 0.72514 0.0
C4077 C 0.77464 0.59038 0.73506 0.0
C4078 C 0.76408 0.59103 0.73676 0.0
C4079 C 0.75743 0.5932 0.72861 0.0
C4080 C 0.76132 0.59476 0.71876 0.0
C4081 C 0.77187 0.59412 0.71702 0.0
H4082 H 0.74926 0.5937 0.72995 0.0
H4083 H 0.852 0.58879 0.71453 0.0
H4084 H 0.89467 0.30312 0.68732 0.0
H4085 H 0.90973 0.29664 0.69634 0.0
H4086 H 0.90445 0.31762 0.72113 0.0
H4087 H 0.88923 0.32408 0.7122 0.0
H4088 H 0.92481 0.31699 0.71587 0.0
H4089 H 0.89813 0.2927 0.72391 0.0
H4090 H 0.88394 0.28061 0.72008 0.0
H4091 H 0.90432 0.26214 0.70244 0.0
H4092 H 0.9186 0.2742 0.70605 0.0
H4093 H 0.96031 0.29327 0.75001 0.0
H4094 H 0.94482 0.30039 0.74227 0.0
H4095 H 0.94651 0.27845 0.71773 0.0
H4096 H 0.96167 0.27096 0.72569 0.0
H4097 H 0.9275 0.27988 0.72367 0.0
H4098 H 0.95399 0.30429 0.71489 0.0
H4099 H 0.96825 0.31643 0.71828 0.0
H4100 H 0.94847 0.33466 0.73683 0.0
H4101 H 0.93412 0.32256 0.73366 0.0
C4102 C 0.89662 0.30631 0.69474 0.0
C4103 C 0.89063 0.31407 0.69907 0.0
C4104 C 0.90527 0.30261 0.69988 0.0
C4105 C 0.90816 0.30654 0.70948 0.0
C4106 C 0.90237 0.31446 0.71373 0.0
C4107 C 0.89368 0.31816 0.7086 0.0
C4108 C 0.91717 0.3023 0.71508 0.0
C4109 C 0.92534 0.3089 0.71772 0.0
C4110 C 0.91797 0.29171 0.71731 0.0
C4111 C 0.90941 0.28441 0.71518 0.0
C4112 C 0.89957 0.2861 0.71916 0.0
C4113 C 0.89151 0.27925 0.71703 0.0
C4114 C 0.89323 0.27063 0.711 0.0
C4115 C 0.903 0.26883 0.7071 0.0
C4116 C 0.91108 0.27566 0.70919 0.0
C4117 C 0.95734 0.28987 0.74303 0.0
C4118 C 0.96232 0.28154 0.73847 0.0
C4119 C 0.94853 0.29404 0.73853 0.0
C4120 C 0.94455 0.29008 0.72931 0.0
C4121 C 0.94943 0.2817 0.72481 0.0
C4122 C 0.95819 0.27748 0.72933 0.0
C4123 C 0.93524 0.29454 0.72437 0.0
C4124 C 0.92699 0.28798 0.72186 0.0
C4125 C 0.9344 0.30516 0.72223 0.0
C4126 C 0.94301 0.31246 0.72412 0.0
C4127 C 0.9527 0.31085 0.71976 0.0
C4128 C 0.9608 0.31773 0.72163 0.0
C4129 C 0.95927 0.32629 0.72779 0.0
C4130 C 0.94964 0.32801 0.73207 0.0
C4131 C 0.94152 0.32115 0.73023 0.0
H4132 H 0.96555 0.33161 0.72923 0.0
H4133 H 0.88698 0.26533 0.70937 0.0
H4134 H 0.19153 0.40158 0.69552 0.0
H4135 H 0.20018 0.41695 0.70206 0.0
H4136 H 0.21824 0.3983 0.72256 0.0
H4137 H 0.2095 0.38292 0.71612 0.0
H4138 H 0.21141 0.4141 0.73251 0.0
H4139 H 0.22848 0.40972 0.7005 0.0
H4140 H 0.2299 0.40734 0.68182 0.0
H4141 H 0.21491 0.43602 0.67658 0.0
H4142 H 0.21328 0.43851 0.69524 0.0
H4143 H 0.24746 0.4532 0.7464 0.0
H4144 H 0.23978 0.43766 0.73903 0.0
H4145 H 0.21877 0.45607 0.7214 0.0
H4146 H 0.22647 0.47165 0.72869 0.0
H4147 H 0.22746 0.44041 0.70996 0.0
H4148 H 0.21035 0.44441 0.74227 0.0
H4149 H 0.20944 0.44666 0.761 0.0
H4150 H 0.22527 0.41834 0.76562 0.0
H4151 H 0.2264 0.41599 0.7469 0.0
C4152 C 0.19743 0.40074 0.70132 0.0
C4153 C 0.19983 0.39102 0.70528 0.0
C4154 C 0.20239 0.40955 0.70506 0.0
C4155 C 0.20997 0.40881 0.71274 0.0
C4156 C 0.21241 0.39909 0.71665 0.0
C4157 C 0.2074 0.3903 0.71297 0.0
C4158 C 0.21511 0.41819 0.71691 0.0
C4159 C 0.21506 0.41976 0.72756 0.0
C4160 C 0.2197 0.42572 0.71049 0.0
C4161 C 0.22067 0.42425 0.69927 0.0
C4162 C 0.22541 0.41548 0.69536 0.0
C4163 C 0.22627 0.41412 0.68478 0.0
C4164 C 0.22247 0.42151 0.67802 0.0
C4165 C 0.21783 0.4303 0.68183 0.0
C4166 C 0.21695 0.43169 0.69241 0.0
C4167 C 0.24126 0.45394 0.7409 0.0
C4168 C 0.23755 0.46366 0.73816 0.0
C4169 C 0.23683 0.44505 0.73674 0.0
C4170 C 0.22865 0.4457 0.72972 0.0
C4171 C 0.22506 0.45539 0.72682 0.0
C4172 C 0.22942 0.46428 0.73105 0.0
C4173 C 0.22375 0.43626 0.7255 0.0
C4174 C 0.22384 0.4347 0.71486 0.0
C4175 C 0.21926 0.4287 0.73193 0.0
C4176 C 0.21855 0.43008 0.74318 0.0
C4177 C 0.21371 0.4387 0.74728 0.0
C4178 C 0.21314 0.43999 0.75789 0.0
C4179 C 0.21732 0.43267 0.76449 0.0
C4180 C 0.22205 0.42402 0.7605 0.0
C4181 C 0.22265 0.4227 0.74988 0.0
H4182 H 0.21687 0.43368 0.77271 0.0
H4183 H 0.22314 0.42045 0.66983 0.0
H4184 H 0.11625 0.31868 0.33297 0.0
H4185 H 0.10101 0.31206 0.32407 0.0
H4186 H 0.12006 0.30086 0.29971 0.0
H4187 H 0.13533 0.30759 0.30853 0.0
H4188 H 0.10324 0.30915 0.29194 0.0
H4189 H 0.1104 0.28474 0.31854 0.0
H4190 H 0.11382 0.27894 0.33624 0.0
H4191 H 0.08445 0.28999 0.34566 0.0
H4192 H 0.08091 0.29598 0.32803 0.0
H4193 H 0.06605 0.2746 0.27055 0.0
H4194 H 0.08134 0.28212 0.27863 0.0
H4195 H 0.06257 0.29481 0.30244 0.0
H4196 H 0.04724 0.28743 0.29435 0.0
H4197 H 0.07935 0.28565 0.31032 0.0
H4198 H 0.07225 0.30994 0.28346 0.0
H4199 H 0.06895 0.31548 0.26566 0.0
H4200 H 0.09836 0.30424 0.25659 0.0
H4201 H 0.10178 0.2985 0.27432 0.0
C4202 C 0.11719 0.31478 0.32573 0.0
C4203 C 0.127 0.3136 0.32149 0.0
C4204 C 0.10847 0.311 0.32065 0.0
C4205 C 0.10939 0.3058 0.3113 0.0
C4206 C 0.11915 0.30483 0.30692 0.0
C4207 C 0.12787 0.30869 0.31196 0.0
C4208 C 0.10019 0.30125 0.30616 0.0
C4209 C 0.09809 0.3039 0.29592 0.0
C4210 C 0.09335 0.29454 0.31139 0.0
C4211 C 0.09543 0.29089 0.32199 0.0
C4212 C 0.1047 0.286 0.3244 0.0
C4213 C 0.10665 0.28267 0.33442 0.0
C4214 C 0.09937 0.28412 0.34207 0.0
C4215 C 0.09009 0.28888 0.33972 0.0
C4216 C 0.0881 0.29224 0.32972 0.0
C4217 C 0.06515 0.27909 0.27744 0.0
C4218 C 0.0554 0.2804 0.28179 0.0
C4219 C 0.07391 0.28337 0.28206 0.0
C4220 C 0.0731 0.2891 0.2911 0.0
C4221 C 0.06339 0.29039 0.29548 0.0
C4222 C 0.05463 0.28613 0.29087 0.0
C4223 C 0.08238 0.29358 0.29612 0.0
C4224 C 0.0845 0.2909 0.30634 0.0
C4225 C 0.08925 0.30021 0.29085 0.0
C4226 C 0.08723 0.3037 0.2802 0.0
C4227 C 0.07798 0.30858 0.27766 0.0
C4228 C 0.0761 0.31177 0.26758 0.0
C4229 C 0.08343 0.31019 0.25999 0.0
C4230 C 0.09268 0.30544 0.26247 0.0
C4231 C 0.0946 0.30223 0.27253 0.0
H4232 H 0.08196 0.31267 0.2522 0.0
H4233 H 0.10089 0.28154 0.34983 0.0
H4234 H 0.21884 0.62564 0.32661 0.0
H4235 H 0.22533 0.61081 0.31751 0.0
H4236 H 0.19628 0.60732 0.30182 0.0
H4237 H 0.18957 0.62196 0.31123 0.0
H4238 H 0.20296 0.58915 0.30808 0.0
H4239 H 0.21754 0.61725 0.28953 0.0
H4240 H 0.22698 0.63355 0.28709 0.0
H4241 H 0.25421 0.62012 0.29973 0.0
H4242 H 0.24488 0.60376 0.30239 0.0
H4243 H 0.22259 0.5537 0.27151 0.0
H4244 H 0.2152 0.569 0.27924 0.0
H4245 H 0.24214 0.57264 0.29828 0.0
H4246 H 0.2496 0.5574 0.29055 0.0
H4247 H 0.23597 0.59093 0.28934 0.0
H4248 H 0.22081 0.56295 0.30839 0.0
H4249 H 0.21117 0.54671 0.31046 0.0
H4250 H 0.18475 0.56013 0.29617 0.0
H4251 H 0.19429 0.57642 0.29389 0.0
C4252 C 0.21377 0.62168 0.3213 0.0
C4253 C 0.20365 0.62502 0.31969 0.0
C4254 C 0.21755 0.61326 0.316 0.0
C4255 C 0.21136 0.608 0.30886 0.0
C4256 C 0.20124 0.61127 0.30725 0.0
C4257 C 0.19743 0.61971 0.31257 0.0
C4258 C 0.21543 0.599 0.30325 0.0
C4259 C 0.21009 0.5896 0.30384 0.0
C4260 C 0.22483 0.59949 0.29783 0.0
C4261 C 0.23048 0.60931 0.29624 0.0
C4262 C 0.22552 0.61779 0.29186 0.0
C4263 C 0.23085 0.62704 0.29043 0.0
C4264 C 0.24118 0.62788 0.29327 0.0
C4265 C 0.2462 0.61946 0.29754 0.0
C4266 C 0.2409 0.6102 0.299 0.0
C4267 C 0.22697 0.5578 0.2773 0.0
C4268 C 0.23667 0.55431 0.28044 0.0
C4269 C 0.2227 0.5665 0.28176 0.0
C4270 C 0.22808 0.57193 0.2894 0.0
C4271 C 0.23784 0.56857 0.29242 0.0
C4272 C 0.24206 0.55981 0.28804 0.0
C4273 C 0.22355 0.58111 0.29428 0.0
C4274 C 0.22881 0.59052 0.29354 0.0
C4275 C 0.21405 0.58065 0.29948 0.0
C4276 C 0.2083 0.57087 0.30087 0.0
C4277 C 0.21297 0.56241 0.30561 0.0
C4278 C 0.20752 0.5532 0.30684 0.0
C4279 C 0.19736 0.55238 0.30342 0.0
C4280 C 0.19262 0.56077 0.29879 0.0
C4281 C 0.19805 0.57 0.29754 0.0
H4282 H 0.19315 0.54524 0.30438 0.0
H4283 H 0.2453 0.63504 0.29215 0.0
H4284 H 0.89512 0.68618 0.30494 0.0
H4285 H 0.91051 0.69491 0.29866 0.0
H4286 H 0.90331 0.72144 0.3167 0.0
H4287 H 0.88761 0.71289 0.32271 0.0
H4288 H 0.90951 0.7272 0.29813 0.0
H4289 H 0.92234 0.70489 0.32411 0.0
H4290 H 0.92475 0.68858 0.33337 0.0
H4291 H 0.93853 0.67556 0.30667 0.0
H4292 H 0.93607 0.69175 0.29721 0.0
H4293 H 0.95944 0.75001 0.29211 0.0
H4294 H 0.944 0.74214 0.29954 0.0
H4295 H 0.94768 0.71576 0.2802 0.0
H4296 H 0.96318 0.72353 0.27281 0.0
H4297 H 0.94346 0.71049 0.30032 0.0
H4298 H 0.92999 0.73307 0.27433 0.0
H4299 H 0.92782 0.74967 0.26554 0.0
H4300 H 0.91552 0.76254 0.29303 0.0
H4301 H 0.91776 0.74604 0.30204 0.0
C4302 C 0.89673 0.69392 0.30751 0.0
C4303 C 0.89007 0.69883 0.31433 0.0
C4304 C 0.90562 0.69886 0.304 0.0
C4305 C 0.90818 0.7088 0.3073 0.0
C4306 C 0.90154 0.71376 0.31407 0.0
C4307 C 0.8926 0.70882 0.31757 0.0
C4308 C 0.91771 0.71399 0.30358 0.0
C4309 C 0.91695 0.72361 0.29876 0.0
C4310 C 0.92743 0.70927 0.30425 0.0
C4311 C 0.92894 0.69951 0.30992 0.0
C4312 C 0.92581 0.69852 0.32019 0.0
C4313 C 0.9272 0.6893 0.32548 0.0
C4314 C 0.93177 0.68103 0.3206 0.0
C4315 C 0.93498 0.68197 0.31044 0.0
C4316 C 0.9336 0.69117 0.30511 0.0
C4317 C 0.95699 0.74251 0.28948 0.0
C4318 C 0.96253 0.7374 0.28185 0.0
C4319 C 0.94812 0.73805 0.29368 0.0
C4320 C 0.94464 0.72838 0.29038 0.0
C4321 C 0.95021 0.72323 0.28285 0.0
C4322 C 0.95903 0.72771 0.27858 0.0
C4323 C 0.93522 0.7236 0.29478 0.0
C4324 C 0.93601 0.71408 0.29974 0.0
C4325 C 0.92556 0.72844 0.29431 0.0
C4326 C 0.92415 0.73835 0.28889 0.0
C4327 C 0.9269 0.73946 0.27853 0.0
C4328 C 0.92564 0.74885 0.2735 0.0
C4329 C 0.92156 0.75716 0.27873 0.0
C4330 C 0.9187 0.7561 0.289 0.0
C4331 C 0.91995 0.74673 0.29406 0.0
H4332 H 0.92059 0.76443 0.27483 0.0
H4333 H 0.93284 0.67389 0.32471 0.0
H4334 H 0.80717 0.38389 0.30917 0.0
H4335 H 0.7981 0.39891 0.30266 0.0
H4336 H 0.82353 0.41831 0.31181 0.0
H4337 H 0.83253 0.40337 0.31856 0.0
H4338 H 0.80534 0.42693 0.3165 0.0
H4339 H 0.82038 0.4112 0.28693 0.0
H4340 H 0.82377 0.39703 0.27503 0.0
H4341 H 0.79157 0.39434 0.26824 0.0
H4342 H 0.78797 0.40841 0.28021 0.0
H4343 H 0.79439 0.47146 0.28745 0.0
H4344 H 0.80223 0.45618 0.29475 0.0
H4345 H 0.77709 0.43766 0.28325 0.0
H4346 H 0.76943 0.45286 0.27549 0.0
H4347 H 0.79449 0.42828 0.28001 0.0
H4348 H 0.77934 0.44426 0.30907 0.0
H4349 H 0.77576 0.45832 0.32104 0.0
H4350 H 0.80775 0.46042 0.32896 0.0
H4351 H 0.81155 0.44646 0.31693 0.0
C4352 C 0.81079 0.39136 0.30992 0.0
C4353 C 0.82062 0.3924 0.31435 0.0
C4354 C 0.80562 0.39994 0.3061 0.0
C4355 C 0.81018 0.40974 0.30661 0.0
C4356 C 0.81987 0.41083 0.31128 0.0
C4357 C 0.82505 0.40226 0.31506 0.0
C4358 C 0.80495 0.41884 0.30216 0.0
C4359 C 0.80307 0.42727 0.30849 0.0
C4360 C 0.80174 0.41921 0.29177 0.0
C4361 C 0.8039 0.41078 0.28454 0.0
C4362 C 0.81401 0.40753 0.28296 0.0
C4363 C 0.81598 0.39953 0.27619 0.0
C4364 C 0.80789 0.39477 0.2709 0.0
C4365 C 0.79782 0.39802 0.27235 0.0
C4366 C 0.79582 0.40601 0.27912 0.0
C4367 C 0.79056 0.46413 0.28637 0.0
C4368 C 0.78124 0.46344 0.28086 0.0
C4369 C 0.795 0.45539 0.29067 0.0
C4370 C 0.79019 0.44575 0.28971 0.0
C4371 C 0.78094 0.44501 0.28416 0.0
C4372 C 0.77651 0.45374 0.2798 0.0
C4373 C 0.7949 0.43642 0.29433 0.0
C4374 C 0.7967 0.42794 0.28803 0.0
C4375 C 0.798 0.436 0.30476 0.0
C4376 C 0.79574 0.44437 0.31203 0.0
C4377 C 0.78563 0.44777 0.31331 0.0
C4378 C 0.78356 0.45571 0.32011 0.0
C4379 C 0.79153 0.46028 0.32574 0.0
C4380 C 0.80158 0.45688 0.32459 0.0
C4381 C 0.8037 0.44895 0.31779 0.0
H4382 H 0.78991 0.46642 0.331 0.0
H4383 H 0.80942 0.38857 0.26567 0.0
H4384 H 0.20952 0.63416 0.70986 0.0
H4385 H 0.21837 0.61918 0.71672 0.0
H4386 H 0.19386 0.59959 0.70564 0.0
H4387 H 0.18495 0.61454 0.69882 0.0
H4388 H 0.19869 0.59441 0.72456 0.0
H4389 H 0.21777 0.6009 0.69384 0.0
H4390 H 0.22792 0.6112 0.68156 0.0
H4391 H 0.25106 0.61643 0.70458 0.0
H4392 H 0.24097 0.60627 0.71705 0.0
H4393 H 0.2236 0.54675 0.73107 0.0
H4394 H 0.21546 0.56185 0.72365 0.0
H4395 H 0.23925 0.58113 0.73663 0.0
H4396 H 0.24737 0.56606 0.74422 0.0
H4397 H 0.23499 0.58652 0.71686 0.0
H4398 H 0.21577 0.5799 0.74752 0.0
H4399 H 0.20559 0.56942 0.75963 0.0
H4400 H 0.18264 0.56428 0.73641 0.0
H4401 H 0.19276 0.57461 0.72411 0.0
C4402 C 0.20608 0.62665 0.70876 0.0
C4403 C 0.19652 0.62557 0.70378 0.0
C4404 C 0.21115 0.61807 0.71269 0.0
C4405 C 0.20685 0.6082 0.71163 0.0
C4406 C 0.19734 0.60711 0.7066 0.0
C4407 C 0.19224 0.61568 0.70271 0.0
C4408 C 0.21208 0.59906 0.71602 0.0
C4409 C 0.20658 0.59262 0.72275 0.0
C4410 C 0.22247 0.59681 0.71389 0.0
C4411 C 0.22856 0.60291 0.70641 0.0
C4412 C 0.22498 0.60432 0.69631 0.0
C4413 C 0.23073 0.61011 0.68931 0.0
C4414 C 0.24012 0.61449 0.6923 0.0
C4415 C 0.24378 0.61305 0.70228 0.0
C4416 C 0.23805 0.60726 0.70932 0.0
C4417 C 0.22706 0.5542 0.73246 0.0
C4418 C 0.23612 0.55516 0.73832 0.0
C4419 C 0.22241 0.56284 0.72817 0.0
C4420 C 0.22668 0.57266 0.72967 0.0
C4421 C 0.23581 0.57364 0.73536 0.0
C4422 C 0.24047 0.565 0.73967 0.0
C4423 C 0.22157 0.58188 0.72534 0.0
C4424 C 0.22709 0.58833 0.71865 0.0
C4425 C 0.21119 0.58413 0.72747 0.0
C4426 C 0.20507 0.57795 0.73487 0.0
C4427 C 0.20859 0.57647 0.74498 0.0
C4428 C 0.20283 0.57056 0.75188 0.0
C4429 C 0.19349 0.56616 0.74879 0.0
C4430 C 0.18988 0.56768 0.73879 0.0
C4431 C 0.19562 0.57357 0.73185 0.0
H4432 H 0.18904 0.5616 0.75414 0.0
H4433 H 0.24456 0.61897 0.68687 0.0
H4434 H 0.21041 0.38315 0.30737 0.0
H4435 H 0.21933 0.3984 0.30082 0.0
H4436 H 0.19691 0.4176 0.3152 0.0
H4437 H 0.18789 0.40236 0.32165 0.0
H4438 H 0.20015 0.42409 0.29658 0.0
H4439 H 0.22181 0.41507 0.32479 0.0
H4440 H 0.23256 0.40384 0.33552 0.0
H4441 H 0.25312 0.39953 0.31034 0.0
H4442 H 0.24242 0.41063 0.2994 0.0
H4443 H 0.22787 0.47116 0.29139 0.0
H4444 H 0.21988 0.45582 0.29894 0.0
H4445 H 0.23877 0.43674 0.28008 0.0
H4446 H 0.24679 0.45208 0.27248 0.0
H4447 H 0.23755 0.43036 0.30108 0.0
H4448 H 0.21528 0.43963 0.273 0.0
H4449 H 0.20452 0.45138 0.26287 0.0
H4450 H 0.185 0.45578 0.28887 0.0
H4451 H 0.19575 0.44417 0.2992 0.0
C4452 C 0.20746 0.39063 0.30924 0.0
C4453 C 0.19845 0.39155 0.31503 0.0
C4454 C 0.21257 0.39935 0.3055 0.0
C4455 C 0.20886 0.40918 0.3076 0.0
C4456 C 0.19991 0.41011 0.31345 0.0
C4457 C 0.19475 0.40139 0.31712 0.0
C4458 C 0.21411 0.41849 0.30342 0.0
C4459 C 0.2083 0.42551 0.29771 0.0
C4460 C 0.2248 0.42029 0.30469 0.0
C4461 C 0.23125 0.4136 0.31124 0.0
C4462 C 0.22858 0.41166 0.32151 0.0
C4463 C 0.23467 0.40533 0.32764 0.0
C4464 C 0.2435 0.40095 0.32361 0.0
C4465 C 0.24627 0.40292 0.31345 0.0
C4466 C 0.2402 0.40924 0.30728 0.0
C4467 C 0.23037 0.4637 0.28892 0.0
C4468 C 0.23794 0.46281 0.28134 0.0
C4469 C 0.22577 0.45495 0.29319 0.0
C4470 C 0.2287 0.44516 0.29003 0.0
C4471 C 0.2364 0.44423 0.28262 0.0
C4472 C 0.24092 0.45299 0.27824 0.0
C4473 C 0.22356 0.43589 0.2943 0.0
C4474 C 0.2294 0.42889 0.3 0.0
C4475 C 0.21288 0.43416 0.29312 0.0
C4476 C 0.20639 0.44111 0.28691 0.0
C4477 C 0.20875 0.44317 0.27659 0.0
C4478 C 0.20264 0.4498 0.2708 0.0
C4479 C 0.1941 0.45435 0.27523 0.0
C4480 C 0.19163 0.45226 0.28545 0.0
C4481 C 0.19773 0.44565 0.29127 0.0
H4482 H 0.18938 0.45947 0.27074 0.0
H4483 H 0.24821 0.39606 0.32837 0.0
H4484 H 0.13354 0.70443 0.30035 0.0
H4485 H 0.11821 0.71324 0.29422 0.0
H4486 H 0.10101 0.70104 0.31976 0.0
H4487 H 0.11627 0.69202 0.32583 0.0
H4488 H 0.09041 0.69905 0.30191 0.0
H4489 H 0.10853 0.72598 0.31937 0.0
H4490 H 0.12336 0.73713 0.32353 0.0
H4491 H 0.12399 0.74825 0.2925 0.0
H4492 H 0.10924 0.73705 0.28811 0.0
H4493 H 0.04648 0.72993 0.29458 0.0
H4494 H 0.06174 0.72192 0.30184 0.0
H4495 H 0.08007 0.73468 0.27736 0.0
H4496 H 0.0649 0.74305 0.27027 0.0
H4497 H 0.09001 0.73647 0.29515 0.0
H4498 H 0.07231 0.70929 0.27751 0.0
H4499 H 0.05758 0.69805 0.27317 0.0
H4500 H 0.05631 0.68732 0.30431 0.0
H4501 H 0.07095 0.69861 0.30887 0.0
C4502 C 0.12649 0.70359 0.30466 0.0
C4503 C 0.12615 0.6975 0.31359 0.0
C4504 C 0.11775 0.70871 0.30118 0.0
C4505 C 0.10846 0.70789 0.30657 0.0
C4506 C 0.10809 0.70182 0.31549 0.0
C4507 C 0.11685 0.69673 0.31899 0.0
C4508 C 0.09909 0.71316 0.30275 0.0
C4509 C 0.09027 0.70726 0.30058 0.0
C4510 C 0.09897 0.72384 0.30077 0.0
C4511 C 0.10784 0.7306 0.30339 0.0
C4512 C 0.11188 0.73074 0.31341 0.0
C4513 C 0.12026 0.73708 0.31581 0.0
C4514 C 0.12463 0.74338 0.30828 0.0
C4515 C 0.1206 0.74336 0.29833 0.0
C4516 C 0.11223 0.73702 0.29588 0.0
C4517 C 0.05377 0.73115 0.29079 0.0
C4518 C 0.05442 0.73714 0.28181 0.0
C4519 C 0.06249 0.72646 0.2949 0.0
C4520 C 0.07206 0.72756 0.29008 0.0
C4521 C 0.07277 0.73366 0.2812 0.0
C4522 C 0.06406 0.73837 0.2771 0.0
C4523 C 0.08132 0.72236 0.29427 0.0
C4524 C 0.09013 0.72827 0.2965 0.0
C4525 C 0.08144 0.71168 0.29628 0.0
C4526 C 0.07265 0.70487 0.29355 0.0
C4527 C 0.06884 0.70459 0.28345 0.0
C4528 C 0.06051 0.6982 0.28094 0.0
C4529 C 0.05599 0.69199 0.28846 0.0
C4530 C 0.05981 0.69214 0.2985 0.0
C4531 C 0.06812 0.69853 0.30105 0.0
H4532 H 0.04955 0.68705 0.28651 0.0
H4533 H 0.13112 0.74829 0.31016 0.0
H4534 H 0.82438 0.62595 0.31162 0.0
H4535 H 0.81771 0.6108 0.3027 0.0
H4536 H 0.792 0.60939 0.32336 0.0
H4537 H 0.79849 0.62461 0.3322 0.0
H4538 H 0.80046 0.59066 0.32077 0.0
H4539 H 0.78906 0.61831 0.29914 0.0
H4540 H 0.7912 0.63387 0.28853 0.0
H4541 H 0.81135 0.6178 0.26842 0.0
H4542 H 0.80943 0.60217 0.27899 0.0
H4543 H 0.76825 0.55552 0.29451 0.0
H4544 H 0.7754 0.57081 0.30268 0.0
H4545 H 0.79949 0.57216 0.28015 0.0
H4546 H 0.79211 0.55711 0.27164 0.0
H4547 H 0.7925 0.59078 0.28353 0.0
H4548 H 0.80385 0.56313 0.30473 0.0
H4549 H 0.80207 0.54749 0.31529 0.0
H4550 H 0.78259 0.5634 0.33618 0.0
H4551 H 0.78415 0.5791 0.32566 0.0
C4552 C 0.81724 0.6225 0.31421 0.0
C4553 C 0.81199 0.62654 0.32266 0.0
C4554 C 0.81345 0.61381 0.30911 0.0
C4555 C 0.80431 0.60898 0.31232 0.0
C4556 C 0.79909 0.61295 0.32077 0.0
C4557 C 0.80285 0.62165 0.32585 0.0
C4558 C 0.80021 0.59975 0.30696 0.0
C4559 C 0.7986 0.59072 0.31265 0.0
C4560 C 0.79805 0.59973 0.2963 0.0
C4561 C 0.79919 0.6091 0.28992 0.0
C4562 C 0.79401 0.61812 0.2925 0.0
C4563 C 0.79517 0.62694 0.28649 0.0
C4564 C 0.80143 0.62683 0.27782 0.0
C4565 C 0.80652 0.61788 0.27514 0.0
C4566 C 0.80539 0.60904 0.28114 0.0
C4567 C 0.775 0.55912 0.29119 0.0
C4568 C 0.7796 0.55503 0.2824 0.0
C4569 C 0.77916 0.56781 0.29597 0.0
C4570 C 0.78809 0.57257 0.29214 0.0
C4571 C 0.79263 0.56861 0.28329 0.0
C4572 C 0.78845 0.55993 0.27848 0.0
C4573 C 0.79266 0.5817 0.29736 0.0
C4574 C 0.79438 0.5907 0.29165 0.0
C4575 C 0.79497 0.58168 0.30799 0.0
C4576 C 0.79404 0.57226 0.31435 0.0
C4577 C 0.79913 0.56327 0.31153 0.0
C4578 C 0.79817 0.5544 0.31752 0.0
C4579 C 0.7922 0.55445 0.32638 0.0
C4580 C 0.7872 0.56337 0.3293 0.0
C4581 C 0.78813 0.57226 0.32334 0.0
H4582 H 0.79147 0.54757 0.33101 0.0
H4583 H 0.80232 0.63367 0.27318 0.0
H4584 H 0.90364 0.31832 0.33167 0.0
H4585 H 0.91856 0.31174 0.32267 0.0
H4586 H 0.89958 0.30493 0.29632 0.0
H4587 H 0.88453 0.31127 0.30539 0.0
H4588 H 0.91197 0.2891 0.30097 0.0
H4589 H 0.9162 0.3253 0.2961 0.0
H4590 H 0.91749 0.34337 0.3014 0.0
H4591 H 0.94388 0.33654 0.31995 0.0
H4592 H 0.94266 0.31838 0.31487 0.0
H4593 H 0.95353 0.27743 0.26819 0.0
H4594 H 0.93837 0.28519 0.27566 0.0
H4595 H 0.95629 0.29463 0.30194 0.0
H4596 H 0.97162 0.28742 0.29426 0.0
H4597 H 0.94407 0.30944 0.29661 0.0
H4598 H 0.93949 0.27325 0.30227 0.0
H4599 H 0.93824 0.25508 0.29728 0.0
H4600 H 0.91259 0.26177 0.27766 0.0
H4601 H 0.91377 0.28001 0.28244 0.0
C4602 C 0.90262 0.31539 0.32397 0.0
C4603 C 0.89286 0.31532 0.31926 0.0
C4604 C 0.91119 0.31172 0.31879 0.0
C4605 C 0.91023 0.30791 0.30877 0.0
C4606 C 0.90052 0.30785 0.30403 0.0
C4607 C 0.89194 0.31156 0.3092 0.0
C4608 C 0.91932 0.30376 0.30336 0.0
C4609 C 0.91894 0.2936 0.29987 0.0
C4610 C 0.92851 0.30954 0.30213 0.0
C4611 C 0.92928 0.32046 0.30517 0.0
C4612 C 0.92223 0.32763 0.30137 0.0
C4613 C 0.92295 0.3379 0.30432 0.0
C4614 C 0.93074 0.3411 0.31102 0.0
C4615 C 0.93784 0.33405 0.31477 0.0
C4616 C 0.93714 0.32377 0.31184 0.0
C4617 C 0.95431 0.28127 0.2755 0.0
C4618 C 0.96385 0.28173 0.28062 0.0
C4619 C 0.94557 0.2856 0.27983 0.0
C4620 C 0.9461 0.29036 0.28947 0.0
C4621 C 0.95564 0.29096 0.29453 0.0
C4622 C 0.9644 0.28671 0.29017 0.0
C4623 C 0.93677 0.29474 0.29429 0.0
C4624 C 0.9371 0.30494 0.29767 0.0
C4625 C 0.92754 0.28898 0.29547 0.0
C4626 C 0.92679 0.27801 0.29263 0.0
C4627 C 0.93363 0.27086 0.29684 0.0
C4628 C 0.93293 0.26054 0.29406 0.0
C4629 C 0.92536 0.25727 0.28714 0.0
C4630 C 0.91846 0.26431 0.28301 0.0
C4631 C 0.91913 0.27464 0.28576 0.0
H4632 H 0.92483 0.24929 0.28499 0.0
H4633 H 0.93129 0.34905 0.3133 0.0
H4634 H 0.82827 0.40369 0.69535 0.0
H4635 H 0.81972 0.41867 0.70231 0.0
H4636 H 0.80068 0.39896 0.72108 0.0
H4637 H 0.80914 0.38393 0.71403 0.0
H4638 H 0.78949 0.41382 0.71341 0.0
H4639 H 0.82171 0.41226 0.73105 0.0
H4640 H 0.84053 0.41124 0.73274 0.0
H4641 H 0.84397 0.43973 0.71645 0.0
H4642 H 0.82516 0.44085 0.71454 0.0
H4643 H 0.77316 0.45266 0.74787 0.0
H4644 H 0.78115 0.43748 0.74058 0.0
H4645 H 0.79825 0.45669 0.71961 0.0
H4646 H 0.79041 0.47191 0.72697 0.0
H4647 H 0.81031 0.44204 0.7286 0.0
H4648 H 0.77764 0.44331 0.71121 0.0
H4649 H 0.75876 0.44417 0.71024 0.0
H4650 H 0.75617 0.41592 0.72707 0.0
H4651 H 0.77505 0.41495 0.72826 0.0
C4652 C 0.82228 0.40254 0.70098 0.0
C4653 C 0.81944 0.3926 0.70418 0.0
C4654 C 0.8174 0.41112 0.70497 0.0
C4655 C 0.80966 0.40999 0.71237 0.0
C4656 C 0.80663 0.40006 0.71539 0.0
C4657 C 0.81146 0.39146 0.71134 0.0
C4658 C 0.8048 0.41915 0.71703 0.0
C4659 C 0.79405 0.41992 0.71685 0.0
C4660 C 0.81072 0.42722 0.7214 0.0
C4661 C 0.82203 0.42659 0.72256 0.0
C4662 C 0.82648 0.41827 0.72776 0.0
C4663 C 0.83714 0.41768 0.72877 0.0
C4664 C 0.84344 0.4254 0.72469 0.0
C4665 C 0.83908 0.43375 0.7196 0.0
C4666 C 0.82842 0.43437 0.71856 0.0
C4667 C 0.77867 0.45366 0.74175 0.0
C4668 C 0.78113 0.46351 0.73799 0.0
C4669 C 0.78317 0.44497 0.73753 0.0
C4670 C 0.79024 0.44593 0.72947 0.0
C4671 C 0.7928 0.45575 0.72579 0.0
C4672 C 0.78825 0.46444 0.72996 0.0
C4673 C 0.79503 0.43671 0.72493 0.0
C4674 C 0.80577 0.43593 0.72515 0.0
C4675 C 0.7891 0.4286 0.7207 0.0
C4676 C 0.77776 0.42911 0.71991 0.0
C4677 C 0.77305 0.43732 0.71477 0.0
C4678 C 0.76235 0.43782 0.71417 0.0
C4679 C 0.75627 0.43012 0.71861 0.0
C4680 C 0.76089 0.42188 0.72364 0.0
C4681 C 0.77159 0.42135 0.72427 0.0
H4682 H 0.74799 0.43052 0.71814 0.0
H4683 H 0.85169 0.42493 0.72548 0.0
H4684 H 0.12409 0.29991 0.68924 0.0
H4685 H 0.10889 0.29351 0.69816 0.0
H4686 H 0.11106 0.31867 0.71938 0.0
H4687 H 0.12623 0.32526 0.71037 0.0
H4688 H 0.10688 0.30032 0.72915 0.0
H4689 H 0.09348 0.31929 0.70068 0.0
H4690 H 0.09171 0.32433 0.68252 0.0
H4691 H 0.08183 0.29379 0.67489 0.0
H4692 H 0.08368 0.28853 0.69299 0.0
H4693 H 0.05636 0.29303 0.74935 0.0
H4694 H 0.07189 0.30017 0.74147 0.0
H4695 H 0.07077 0.27651 0.71852 0.0
H4696 H 0.05531 0.26927 0.72639 0.0
H4697 H 0.07431 0.2949 0.70993 0.0
H4698 H 0.0881 0.27577 0.73824 0.0
H4699 H 0.08991 0.27061 0.75636 0.0
H4700 H 0.09906 0.30129 0.76429 0.0
H4701 H 0.09717 0.30667 0.74622 0.0
C4702 C 0.1213 0.30417 0.69573 0.0
C4703 C 0.12636 0.31318 0.699 0.0
C4704 C 0.11261 0.30046 0.70086 0.0
C4705 C 0.10875 0.30567 0.70937 0.0
C4706 C 0.1139 0.31452 0.71283 0.0
C4707 C 0.1226 0.31826 0.70768 0.0
C4708 C 0.09927 0.30189 0.71454 0.0
C4709 C 0.09971 0.29928 0.72499 0.0
C4710 C 0.08996 0.30034 0.70907 0.0
C4711 C 0.08881 0.30349 0.69818 0.0
C4712 C 0.09101 0.31362 0.69512 0.0
C4713 C 0.08998 0.31653 0.68484 0.0
C4714 C 0.08668 0.30938 0.67755 0.0
C4715 C 0.08439 0.29932 0.68054 0.0
C4716 C 0.08542 0.29637 0.69081 0.0
C4717 C 0.05948 0.28927 0.7427 0.0
C4718 C 0.05456 0.28056 0.73852 0.0
C4719 C 0.06836 0.29337 0.73819 0.0
C4720 C 0.07255 0.28884 0.72943 0.0
C4721 C 0.06766 0.28017 0.72524 0.0
C4722 C 0.05879 0.27606 0.72974 0.0
C4723 C 0.08193 0.29321 0.72452 0.0
C4724 C 0.08146 0.29596 0.71411 0.0
C4725 C 0.09121 0.29486 0.73003 0.0
C4726 C 0.09239 0.29165 0.74089 0.0
C4727 C 0.09042 0.28144 0.74386 0.0
C4728 C 0.09148 0.27847 0.75412 0.0
C4729 C 0.09457 0.28563 0.76148 0.0
C4730 C 0.09665 0.29576 0.75858 0.0
C4731 C 0.09559 0.29877 0.74833 0.0
H4732 H 0.09539 0.28331 0.76942 0.0
H4733 H 0.08589 0.31164 0.6696 0.0
H4734 H 0.8886 0.69649 0.71095 0.0
H4735 H 0.90418 0.7027 0.71955 0.0
H4736 H 0.90955 0.72407 0.69477 0.0
H4737 H 0.89429 0.71758 0.68591 0.0
H4738 H 0.92686 0.71539 0.70004 0.0
H4739 H 0.89951 0.73152 0.71828 0.0
H4740 H 0.88346 0.73213 0.72817 0.0
H4741 H 0.89697 0.71365 0.75186 0.0
H4742 H 0.91308 0.71282 0.74204 0.0
H4743 H 0.96188 0.74968 0.72411 0.0
H4744 H 0.94659 0.74209 0.71617 0.0
H4745 H 0.94499 0.71948 0.74033 0.0
H4746 H 0.96046 0.72685 0.74821 0.0
H4747 H 0.92605 0.72799 0.73585 0.0
H4748 H 0.95371 0.71258 0.71769 0.0
H4749 H 0.96977 0.71241 0.70778 0.0
H4750 H 0.95556 0.73003 0.68385 0.0
H4751 H 0.93945 0.73044 0.69368 0.0
C4752 C 0.89315 0.70244 0.70727 0.0
C4753 C 0.89013 0.70656 0.69774 0.0
C4754 C 0.902 0.70606 0.71226 0.0
C4755 C 0.90798 0.71397 0.70789 0.0
C4756 C 0.90505 0.71801 0.69833 0.0
C4757 C 0.89625 0.71435 0.69332 0.0
C4758 C 0.91732 0.71801 0.71319 0.0
C4759 C 0.92664 0.71825 0.70783 0.0
C4760 C 0.91713 0.72152 0.72345 0.0
C4761 C 0.90746 0.72202 0.72937 0.0
C4762 C 0.89903 0.72752 0.72556 0.0
C4763 C 0.88993 0.72792 0.73116 0.0
C4764 C 0.88918 0.72291 0.74062 0.0
C4765 C 0.89755 0.71751 0.74452 0.0
C4766 C 0.90667 0.71708 0.73894 0.0
C4767 C 0.95837 0.74302 0.72769 0.0
C4768 C 0.96248 0.73886 0.73678 0.0
C4769 C 0.94959 0.73872 0.72316 0.0
C4770 C 0.94471 0.73016 0.72761 0.0
C4771 C 0.94864 0.72609 0.73677 0.0
C4772 C 0.95746 0.73035 0.74129 0.0
C4773 C 0.93552 0.72547 0.72264 0.0
C4774 C 0.92625 0.72509 0.72807 0.0
C4775 C 0.93574 0.72189 0.71243 0.0
C4776 C 0.9454 0.72162 0.70647 0.0
C4777 C 0.95404 0.71649 0.71035 0.0
C4778 C 0.96314 0.71634 0.70474 0.0
C4779 C 0.96369 0.72123 0.6952 0.0
C4780 C 0.95512 0.72626 0.69124 0.0
C4781 C 0.946 0.72644 0.69683 0.0
H4782 H 0.97075 0.7211 0.69087 0.0
H4783 H 0.88213 0.72323 0.74494 0.0
H4784 H 0.70722 0.2112 0.63383 0.0
H4785 H 0.71409 0.21993 0.61867 0.0
H4786 H 0.70563 0.1939 0.60007 0.0
H4787 H 0.69877 0.18514 0.61519 0.0
H4788 H 0.7245 0.19994 0.5957 0.0
H4789 H 0.69218 0.21666 0.59914 0.0
H4790 H 0.67867 0.22622 0.608 0.0
H4791 H 0.69969 0.25133 0.61293 0.0
H4792 H 0.71337 0.24186 0.60422 0.0
H4793 H 0.73101 0.22288 0.5467 0.0
H4794 H 0.72352 0.21505 0.562 0.0
H4795 H 0.73466 0.24033 0.58024 0.0
H4796 H 0.7424 0.24814 0.565 0.0
H4797 H 0.71462 0.23497 0.58491 0.0
H4798 H 0.74687 0.21807 0.58125 0.0
H4799 H 0.76017 0.20846 0.57212 0.0
H4800 H 0.73888 0.18354 0.56735 0.0
H4801 H 0.72541 0.19307 0.57633 0.0
C4802 C 0.70668 0.20739 0.62649 0.0
C4803 C 0.70244 0.19745 0.62575 0.0
C4804 C 0.71063 0.21239 0.61781 0.0
C4805 C 0.71033 0.20762 0.60817 0.0
C4806 C 0.706 0.19774 0.60741 0.0
C4807 C 0.7021 0.19273 0.61608 0.0
C4808 C 0.71479 0.21276 0.59894 0.0
C4809 C 0.72221 0.20754 0.59327 0.0
C4810 C 0.71204 0.22279 0.59588 0.0
C4811 C 0.70383 0.2285 0.60112 0.0
C4812 C 0.69395 0.22419 0.60219 0.0
C4813 C 0.68625 0.22959 0.60717 0.0
C4814 C 0.68833 0.23936 0.61105 0.0
C4815 C 0.6981 0.24376 0.60993 0.0
C4816 C 0.70582 0.23837 0.60497 0.0
C4817 C 0.73199 0.22675 0.55397 0.0
C4818 C 0.7374 0.23613 0.55457 0.0
C4819 C 0.72765 0.22227 0.56272 0.0
C4820 C 0.7286 0.22705 0.5723 0.0
C4821 C 0.73381 0.23651 0.57293 0.0
C4822 C 0.7382 0.24098 0.56418 0.0
C4823 C 0.72424 0.22211 0.58166 0.0
C4824 C 0.71688 0.22737 0.58736 0.0
C4825 C 0.72701 0.21209 0.58473 0.0
C4826 C 0.7351 0.20633 0.57937 0.0
C4827 C 0.745 0.21058 0.57818 0.0
C4828 C 0.75258 0.20514 0.57305 0.0
C4829 C 0.75036 0.19541 0.56914 0.0
C4830 C 0.74058 0.19109 0.57038 0.0
C4831 C 0.73298 0.1965 0.57549 0.0
H4832 H 0.75624 0.19121 0.56517 0.0
H4833 H 0.68236 0.24354 0.6149 0.0
H4834 H 0.32032 0.1884 0.61664 0.0
H4835 H 0.31365 0.19748 0.6016 0.0
H4836 H 0.29718 0.2179 0.62132 0.0
H4837 H 0.30374 0.20877 0.6364 0.0
H4838 H 0.28518 0.21038 0.60544 0.0
H4839 H 0.31834 0.22631 0.60971 0.0
H4840 H 0.33716 0.22672 0.61175 0.0
H4841 H 0.34049 0.21199 0.58261 0.0
H4842 H 0.32166 0.21137 0.58046 0.0
H4843 H 0.27047 0.24586 0.56688 0.0
H4844 H 0.27768 0.23791 0.5823 0.0
H4845 H 0.29741 0.21956 0.56353 0.0
H4846 H 0.29038 0.22765 0.54811 0.0
H4847 H 0.30783 0.22637 0.57926 0.0
H4848 H 0.27508 0.20972 0.57501 0.0
H4849 H 0.25629 0.20873 0.57276 0.0
H4850 H 0.25219 0.22395 0.60153 0.0
H4851 H 0.27097 0.22515 0.60388 0.0
C4852 C 0.31526 0.19481 0.61777 0.0
C4853 C 0.31256 0.19787 0.62771 0.0
C4854 C 0.31152 0.20004 0.60917 0.0
C4855 C 0.30497 0.20842 0.61034 0.0
C4856 C 0.30224 0.21148 0.62025 0.0
C4857 C 0.30605 0.2063 0.62886 0.0
C4858 C 0.3008 0.21382 0.60121 0.0
C4859 C 0.29012 0.21401 0.59978 0.0
C4860 C 0.30726 0.21831 0.59371 0.0
C4861 C 0.31858 0.2187 0.59497 0.0
C4862 C 0.32308 0.22308 0.60377 0.0
C4863 C 0.33375 0.22337 0.60494 0.0
C4864 C 0.34002 0.21936 0.59732 0.0
C4865 C 0.33562 0.21508 0.58851 0.0
C4866 C 0.32495 0.21477 0.58731 0.0
C4867 C 0.27631 0.24009 0.56605 0.0
C4868 C 0.27983 0.23734 0.55628 0.0
C4869 C 0.28042 0.23554 0.57487 0.0
C4870 C 0.28799 0.22801 0.5741 0.0
C4871 C 0.29159 0.22534 0.56435 0.0
C4872 C 0.28757 0.22998 0.55553 0.0
C4873 C 0.29218 0.22291 0.58344 0.0
C4874 C 0.30287 0.22276 0.58491 0.0
C4875 C 0.28573 0.21837 0.59095 0.0
C4876 C 0.27443 0.21762 0.58957 0.0
C4877 C 0.27017 0.21292 0.58082 0.0
C4878 C 0.25952 0.21231 0.57953 0.0
C4879 C 0.25305 0.2163 0.58698 0.0
C4880 C 0.25721 0.22088 0.59575 0.0
C4881 C 0.26786 0.22152 0.59707 0.0
H4882 H 0.24481 0.21582 0.58597 0.0
H4883 H 0.34828 0.21959 0.59824 0.0
H4884 H 0.32507 0.82474 0.61694 0.0
H4885 H 0.31874 0.81602 0.60154 0.0
H4886 H 0.29383 0.8027 0.61891 0.0
H4887 H 0.30024 0.81122 0.63439 0.0
H4888 H 0.30222 0.78876 0.60609 0.0
H4889 H 0.28982 0.82322 0.60356 0.0
H4890 H 0.29136 0.84206 0.60327 0.0
H4891 H 0.31114 0.84059 0.57711 0.0
H4892 H 0.30984 0.82171 0.57733 0.0
H4893 H 0.2693 0.77376 0.56513 0.0
H4894 H 0.27675 0.78173 0.58041 0.0
H4895 H 0.30056 0.79561 0.56197 0.0
H4896 H 0.29296 0.78794 0.54659 0.0
H4897 H 0.29325 0.80916 0.5752 0.0
H4898 H 0.30537 0.77478 0.57736 0.0
H4899 H 0.30394 0.75593 0.57759 0.0
H4900 H 0.2849 0.75717 0.60431 0.0
H4901 H 0.2861 0.77605 0.60416 0.0
C4902 C 0.31832 0.81985 0.61752 0.0
C4903 C 0.31314 0.81872 0.62691 0.0
C4904 C 0.31465 0.81494 0.60868 0.0
C4905 C 0.30573 0.8088 0.60902 0.0
C4906 C 0.3007 0.80744 0.61844 0.0
C4907 C 0.30434 0.81238 0.62727 0.0
C4908 C 0.30153 0.80391 0.59956 0.0
C4909 C 0.30015 0.79323 0.59938 0.0
C4910 C 0.29904 0.80971 0.59069 0.0
C4911 C 0.29982 0.82105 0.59053 0.0
C4912 C 0.29457 0.82691 0.5978 0.0
C4913 C 0.29538 0.8376 0.59764 0.0
C4914 C 0.30136 0.84252 0.59019 0.0
C4915 C 0.30652 0.83676 0.58288 0.0
C4916 C 0.30574 0.82607 0.58302 0.0
C4917 C 0.27608 0.77857 0.5643 0.0
C4918 C 0.28052 0.78018 0.5546 0.0
C4919 C 0.2804 0.78304 0.57307 0.0
C4920 C 0.28931 0.78919 0.57239 0.0
C4921 C 0.29372 0.79087 0.56272 0.0
C4922 C 0.28941 0.7864 0.55393 0.0
C4923 C 0.2939 0.79399 0.58172 0.0
C4924 C 0.29535 0.80467 0.58189 0.0
C4925 C 0.29647 0.78819 0.59056 0.0
C4926 C 0.29575 0.77683 0.59069 0.0
C4927 C 0.30081 0.77104 0.58324 0.0
C4928 C 0.30005 0.76035 0.58336 0.0
C4929 C 0.29431 0.75536 0.59095 0.0
C4930 C 0.28934 0.76105 0.59844 0.0
C4931 C 0.29006 0.77174 0.59834 0.0
H4932 H 0.29373 0.74708 0.59103 0.0
H4933 H 0.30198 0.85079 0.59008 0.0
H4934 H 0.69159 0.8101 0.62485 0.0
H4935 H 0.69836 0.80129 0.60985 0.0
H4936 H 0.72523 0.8209 0.61048 0.0
H4937 H 0.71861 0.82964 0.62551 0.0
H4938 H 0.71757 0.81923 0.5913 0.0
H4939 H 0.72623 0.79618 0.61886 0.0
H4940 H 0.72268 0.78516 0.63387 0.0
H4941 H 0.70211 0.76662 0.61578 0.0
H4942 H 0.70543 0.77761 0.60069 0.0
H4943 H 0.7501 0.79271 0.55767 0.0
H4944 H 0.74256 0.80066 0.57273 0.0
H4945 H 0.71696 0.77944 0.57119 0.0
H4946 H 0.72449 0.77142 0.55611 0.0
H4947 H 0.72317 0.78172 0.59057 0.0
H4948 H 0.71468 0.80435 0.56295 0.0
H4949 H 0.71799 0.81532 0.54785 0.0
H4950 H 0.73782 0.83468 0.5659 0.0
H4951 H 0.73474 0.82374 0.58108 0.0
C4952 C 0.69899 0.81247 0.62187 0.0
C4953 C 0.70453 0.82061 0.6264 0.0
C4954 C 0.70284 0.80743 0.61327 0.0
C4955 C 0.71234 0.81039 0.60905 0.0
C4956 C 0.71787 0.81851 0.61355 0.0
C4957 C 0.71404 0.82353 0.62214 0.0
C4958 C 0.7165 0.80514 0.59989 0.0
C4959 C 0.71891 0.81105 0.59119 0.0
C4960 C 0.71798 0.79441 0.59961 0.0
C4961 C 0.716 0.78778 0.60867 0.0
C4962 C 0.72088 0.7898 0.6181 0.0
C4963 C 0.71893 0.78355 0.62662 0.0
C4964 C 0.71215 0.77521 0.62579 0.0
C4965 C 0.70734 0.77309 0.61642 0.0
C4966 C 0.70927 0.77932 0.60788 0.0
C4967 C 0.74283 0.78977 0.56048 0.0
C4968 C 0.73787 0.78146 0.55562 0.0
C4969 C 0.73852 0.79433 0.56911 0.0
C4970 C 0.7291 0.79076 0.57303 0.0
C4971 C 0.72423 0.78234 0.56832 0.0
C4972 C 0.72856 0.77775 0.55971 0.0
C4973 C 0.72435 0.79584 0.58201 0.0
C4974 C 0.72181 0.7899 0.59066 0.0
C4975 C 0.7227 0.80654 0.58223 0.0
C4976 C 0.72455 0.81317 0.57313 0.0
C4977 C 0.7198 0.8109 0.56368 0.0
C4978 C 0.72163 0.81712 0.55511 0.0
C4979 C 0.72813 0.82568 0.55591 0.0
C4980 C 0.7328 0.82804 0.56529 0.0
C4981 C 0.731 0.82184 0.57388 0.0
H4982 H 0.72954 0.83048 0.54927 0.0
H4983 H 0.71065 0.77038 0.63239 0.0
H4984 H 0.69642 0.80763 0.39023 0.0
H4985 H 0.70285 0.799 0.40562 0.0
H4986 H 0.72421 0.82395 0.41081 0.0
H4987 H 0.7177 0.83274 0.39559 0.0
H4988 H 0.73334 0.80522 0.41272 0.0
H4989 H 0.70294 0.82173 0.42508 0.0
H4990 H 0.6845 0.8258 0.42513 0.0
H4991 H 0.67694 0.79399 0.42958 0.0
H4992 H 0.69534 0.78971 0.42942 0.0
H4993 H 0.74946 0.79454 0.4633 0.0
H4994 H 0.74229 0.80244 0.44792 0.0
H4995 H 0.71955 0.77823 0.44592 0.0
H4996 H 0.72633 0.77057 0.46165 0.0
H4997 H 0.7109 0.79587 0.442 0.0
H4998 H 0.74093 0.77913 0.43005 0.0
H4999 H 0.75925 0.77462 0.42979 0.0
H5000 H 0.76744 0.8061 0.42411 0.0
H5001 H 0.74917 0.81082 0.42449 0.0
C5002 C 0.7024 0.81136 0.3947 0.0
C5003 C 0.70654 0.82089 0.39163 0.0
C5004 C 0.70609 0.80639 0.40349 0.0
C5005 C 0.71398 0.81086 0.40939 0.0
C5006 C 0.71815 0.82034 0.40634 0.0
C5007 C 0.71444 0.82533 0.3976 0.0
C5008 C 0.71799 0.80563 0.41871 0.0
C5009 C 0.72847 0.80328 0.41918 0.0
C5010 C 0.71156 0.80282 0.427 0.0
C5011 C 0.70051 0.80539 0.42713 0.0
C5012 C 0.69734 0.81559 0.42599 0.0
C5013 C 0.6869 0.81794 0.42605 0.0
C5014 C 0.67955 0.81016 0.42733 0.0
C5015 C 0.68264 0.80001 0.42858 0.0
C5016 C 0.69307 0.79762 0.4285 0.0
C5017 C 0.74285 0.79094 0.45968 0.0
C5018 C 0.7385 0.78189 0.46375 0.0
C5019 C 0.73884 0.79541 0.45078 0.0
C5020 C 0.73047 0.79085 0.44563 0.0
C5021 C 0.72604 0.78186 0.44971 0.0
C5022 C 0.73 0.77743 0.45866 0.0
C5023 C 0.7263 0.79552 0.43607 0.0
C5024 C 0.71579 0.79776 0.43554 0.0
C5025 C 0.73268 0.79815 0.42767 0.0
C5026 C 0.74368 0.79534 0.42739 0.0
C5027 C 0.74664 0.7851 0.42882 0.0
C5028 C 0.75702 0.78251 0.42864 0.0
C5029 C 0.76451 0.79007 0.42696 0.0
C5030 C 0.76163 0.80025 0.42543 0.0
C5031 C 0.75126 0.80288 0.42561 0.0
H5032 H 0.77254 0.78805 0.42682 0.0
H5033 H 0.67148 0.81199 0.42738 0.0
H5034 H 0.70875 0.21088 0.38361 0.0
H5035 H 0.71754 0.21771 0.39875 0.0
H5036 H 0.69765 0.19965 0.41826 0.0
H5037 H 0.68876 0.19288 0.40313 0.0
H5038 H 0.69926 0.21822 0.42554 0.0
H5039 H 0.7233 0.19341 0.41416 0.0
H5040 H 0.73457 0.18475 0.40189 0.0
H5041 H 0.75209 0.21253 0.39785 0.0
H5042 H 0.74084 0.22141 0.40999 0.0
H5043 H 0.72813 0.22485 0.47163 0.0
H5044 H 0.72005 0.21726 0.45642 0.0
H5045 H 0.73716 0.23812 0.43707 0.0
H5046 H 0.74534 0.2457 0.45227 0.0
H5047 H 0.73712 0.21802 0.42985 0.0
H5048 H 0.71267 0.24265 0.44144 0.0
H5049 H 0.70144 0.25087 0.45405 0.0
H5050 H 0.68472 0.2226 0.4581 0.0
H5051 H 0.69596 0.21417 0.44561 0.0
C5052 C 0.70633 0.20826 0.39112 0.0
C5053 C 0.69805 0.20131 0.39214 0.0
C5054 C 0.71137 0.21217 0.39979 0.0
C5055 C 0.70835 0.20913 0.40969 0.0
C5056 C 0.70012 0.20215 0.41072 0.0
C5057 C 0.69503 0.19828 0.40206 0.0
C5058 C 0.71356 0.21345 0.41896 0.0
C5059 C 0.70753 0.21802 0.42653 0.0
C5060 C 0.72437 0.21342 0.42021 0.0
C5061 C 0.73116 0.2081 0.41291 0.0
C5062 C 0.72951 0.1977 0.41059 0.0
C5063 C 0.7359 0.19275 0.40367 0.0
C5064 C 0.74402 0.19809 0.39907 0.0
C5065 C 0.74579 0.2084 0.4014 0.0
C5066 C 0.73941 0.2134 0.40831 0.0
C5067 C 0.73023 0.22777 0.46413 0.0
C5068 C 0.73737 0.23589 0.46316 0.0
C5069 C 0.72556 0.22347 0.45545 0.0
C5070 C 0.72794 0.22717 0.4456 0.0
C5071 C 0.73518 0.23516 0.44459 0.0
C5072 C 0.73979 0.23953 0.45328 0.0
C5073 C 0.72281 0.22274 0.43638 0.0
C5074 C 0.72885 0.21817 0.42883 0.0
C5075 C 0.71201 0.2227 0.43518 0.0
C5076 C 0.70522 0.22776 0.44267 0.0
C5077 C 0.70666 0.23817 0.44508 0.0
C5078 C 0.70028 0.24286 0.4522 0.0
C5079 C 0.69239 0.23725 0.45689 0.0
C5080 C 0.69085 0.22693 0.45446 0.0
C5081 C 0.69721 0.22219 0.44736 0.0
H5082 H 0.68746 0.2409 0.4624 0.0
H5083 H 0.74897 0.19424 0.39372 0.0
H5084 H 0.33024 0.21795 0.39594 0.0
H5085 H 0.32177 0.22433 0.41121 0.0
H5086 H 0.29645 0.20334 0.4061 0.0
H5087 H 0.30471 0.19719 0.39051 0.0
H5088 H 0.28951 0.22169 0.4115 0.0
H5089 H 0.31466 0.1987 0.42469 0.0
H5090 H 0.33189 0.19135 0.42684 0.0
H5091 H 0.34323 0.21998 0.43869 0.0
H5092 H 0.3261 0.22755 0.43648 0.0
H5093 H 0.26883 0.2273 0.46191 0.0
H5094 H 0.27639 0.22038 0.44633 0.0
H5095 H 0.30133 0.24227 0.44859 0.0
H5096 H 0.29371 0.24944 0.46401 0.0
H5097 H 0.30806 0.22277 0.44481 0.0
H5098 H 0.28278 0.24576 0.43122 0.0
H5099 H 0.26545 0.2529 0.42913 0.0
H5100 H 0.2542 0.22387 0.41822 0.0
H5101 H 0.27143 0.2165 0.42039 0.0
C5102 C 0.32282 0.21475 0.39797 0.0
C5103 C 0.31817 0.20705 0.39195 0.0
C5104 C 0.31803 0.21833 0.40679 0.0
C5105 C 0.30852 0.21422 0.40991 0.0
C5106 C 0.3038 0.2066 0.40389 0.0
C5107 C 0.30858 0.20302 0.39502 0.0
C5108 C 0.30354 0.21795 0.41943 0.0
C5109 C 0.29351 0.22177 0.41881 0.0
C5110 C 0.3088 0.21825 0.42896 0.0
C5111 C 0.31911 0.21372 0.43033 0.0
C5112 C 0.32085 0.20345 0.42768 0.0
C5113 C 0.3306 0.19924 0.42892 0.0
C5114 C 0.33866 0.2052 0.43288 0.0
C5115 C 0.33698 0.21538 0.43562 0.0
C5116 C 0.32725 0.21963 0.43438 0.0
C5117 C 0.27585 0.23076 0.45904 0.0
C5118 C 0.28064 0.23896 0.46426 0.0
C5119 C 0.28018 0.22675 0.45014 0.0
C5120 C 0.2894 0.23084 0.44626 0.0
C5121 C 0.29423 0.23897 0.45146 0.0
C5122 C 0.28988 0.24302 0.46032 0.0
C5123 C 0.29409 0.22658 0.43685 0.0
C5124 C 0.30405 0.22265 0.43749 0.0
C5125 C 0.28875 0.22614 0.42737 0.0
C5126 C 0.27838 0.23055 0.42607 0.0
C5127 C 0.27659 0.24087 0.42847 0.0
C5128 C 0.26679 0.24496 0.42725 0.0
C5129 C 0.25873 0.23884 0.42357 0.0
C5130 C 0.26045 0.2286 0.42109 0.0
C5131 C 0.27023 0.22447 0.4223 0.0
H5132 H 0.25115 0.24202 0.42261 0.0
H5133 H 0.3462 0.20193 0.43384 0.0
H5134 H 0.32332 0.82824 0.40272 0.0
H5135 H 0.31635 0.81928 0.41772 0.0
H5136 H 0.29876 0.79929 0.39791 0.0
H5137 H 0.30557 0.80833 0.38287 0.0
H5138 H 0.28719 0.80663 0.41359 0.0
H5139 H 0.31994 0.79061 0.40998 0.0
H5140 H 0.33877 0.79014 0.40827 0.0
H5141 H 0.34232 0.80501 0.43739 0.0
H5142 H 0.3235 0.80571 0.4392 0.0
H5143 H 0.27113 0.77143 0.45207 0.0
H5144 H 0.2787 0.77926 0.43676 0.0
H5145 H 0.29899 0.79743 0.45581 0.0
H5146 H 0.29159 0.78943 0.47113 0.0
H5147 H 0.30926 0.79073 0.44023 0.0
H5148 H 0.27687 0.8074 0.44382 0.0
H5149 H 0.25809 0.80838 0.4457 0.0
H5150 H 0.25386 0.79304 0.41691 0.0
H5151 H 0.27263 0.79184 0.41493 0.0
C5152 C 0.31796 0.82195 0.40155 0.0
C5153 C 0.31502 0.81901 0.39158 0.0
C5154 C 0.31404 0.81678 0.41014 0.0
C5155 C 0.30708 0.80855 0.40895 0.0
C5156 C 0.30413 0.8056 0.39902 0.0
C5157 C 0.3081 0.81072 0.39042 0.0
C5158 C 0.3027 0.80321 0.41808 0.0
C5159 C 0.29201 0.80302 0.41934 0.0
C5160 C 0.30899 0.79873 0.42574 0.0
C5161 C 0.32031 0.7983 0.42468 0.0
C5162 C 0.32473 0.79386 0.41598 0.0
C5163 C 0.33541 0.79354 0.415 0.0
C5164 C 0.34174 0.79757 0.4227 0.0
C5165 C 0.3374 0.80191 0.43142 0.0
C5166 C 0.32674 0.80226 0.43243 0.0
C5167 C 0.27718 0.77713 0.45299 0.0
C5168 C 0.28073 0.77984 0.46283 0.0
C5169 C 0.28149 0.78162 0.44423 0.0
C5170 C 0.28932 0.78909 0.44509 0.0
C5171 C 0.29297 0.7917 0.45491 0.0
C5172 C 0.28874 0.78712 0.46367 0.0
C5173 C 0.29372 0.79417 0.43578 0.0
C5174 C 0.30442 0.79432 0.43448 0.0
C5175 C 0.28744 0.79869 0.42813 0.0
C5176 C 0.27616 0.79944 0.42928 0.0
C5177 C 0.27194 0.80417 0.43793 0.0
C5178 C 0.26129 0.80477 0.43901 0.0
C5179 C 0.25478 0.80075 0.43144 0.0
C5180 C 0.25891 0.79614 0.42277 0.0
C5181 C 0.26955 0.7955 0.42166 0.0
H5182 H 0.24654 0.80123 0.43229 0.0
H5183 H 0.35 0.79731 0.42193 0.0
H5184 H 0.63416 0.21669 0.70743 0.0
H5185 H 0.61883 0.22316 0.71585 0.0
H5186 H 0.60045 0.19965 0.70127 0.0
H5187 H 0.61574 0.19326 0.69265 0.0
H5188 H 0.59138 0.21815 0.69984 0.0
H5189 H 0.60642 0.19793 0.72654 0.0
H5190 H 0.62017 0.19211 0.73817 0.0
H5191 H 0.62253 0.22221 0.75116 0.0
H5192 H 0.60889 0.22825 0.7395 0.0
H5193 H 0.54632 0.22565 0.72918 0.0
H5194 H 0.56153 0.21818 0.72145 0.0
H5195 H 0.58064 0.24111 0.73604 0.0
H5196 H 0.56548 0.24844 0.74405 0.0
H5197 H 0.58922 0.22251 0.73753 0.0
H5198 H 0.57448 0.24283 0.7106 0.0
H5199 H 0.56079 0.24871 0.69894 0.0
H5200 H 0.55792 0.21847 0.68635 0.0
H5201 H 0.57151 0.21238 0.69804 0.0
C5202 C 0.62686 0.21291 0.70599 0.0
C5203 C 0.62619 0.20445 0.69935 0.0
C5204 C 0.6181 0.21656 0.71088 0.0
C5205 C 0.60848 0.21185 0.70927 0.0
C5206 C 0.60779 0.2034 0.70266 0.0
C5207 C 0.61655 0.1997 0.6978 0.0
C5208 C 0.59912 0.21589 0.71429 0.0
C5209 C 0.59085 0.21895 0.70809 0.0
C5210 C 0.5985 0.21718 0.72504 0.0
C5211 C 0.6067 0.21357 0.73207 0.0
C5212 C 0.60993 0.20333 0.73181 0.0
C5213 C 0.6177 0.19999 0.73842 0.0
C5214 C 0.62224 0.20679 0.74538 0.0
C5215 C 0.61901 0.21695 0.74576 0.0
C5216 C 0.61126 0.22034 0.73916 0.0
C5217 C 0.55376 0.22906 0.73084 0.0
C5218 C 0.55465 0.23768 0.73724 0.0
C5219 C 0.56245 0.22483 0.72632 0.0
C5220 C 0.57224 0.22915 0.72805 0.0
C5221 C 0.57318 0.23766 0.73455 0.0
C5222 C 0.56448 0.2419 0.73906 0.0
C5223 C 0.58149 0.2248 0.72308 0.0
C5224 C 0.58974 0.22168 0.72928 0.0
C5225 C 0.5821 0.22347 0.71232 0.0
C5226 C 0.57394 0.22712 0.70527 0.0
C5227 C 0.57087 0.23741 0.7054 0.0
C5228 C 0.56314 0.24079 0.69877 0.0
C5229 C 0.55846 0.23396 0.69192 0.0
C5230 C 0.56153 0.22375 0.69167 0.0
C5231 C 0.56926 0.22033 0.69829 0.0
H5232 H 0.55248 0.23659 0.6868 0.0
H5233 H 0.62825 0.20419 0.75049 0.0
H5234 H 0.32906 0.12618 0.72057 0.0
H5235 H 0.32031 0.11083 0.72699 0.0
H5236 H 0.30212 0.10933 0.69931 0.0
H5237 H 0.311 0.1246 0.6927 0.0
H5238 H 0.29053 0.10614 0.71686 0.0
H5239 H 0.32159 0.09338 0.70225 0.0
H5240 H 0.34029 0.09262 0.69965 0.0
H5241 H 0.3447 0.08551 0.73154 0.0
H5242 H 0.32601 0.08636 0.73436 0.0
H5243 H 0.27093 0.05575 0.72515 0.0
H5244 H 0.27922 0.07102 0.71796 0.0
H5245 H 0.30047 0.07174 0.74343 0.0
H5246 H 0.29258 0.05616 0.75038 0.0
H5247 H 0.31039 0.07531 0.72643 0.0
H5248 H 0.27969 0.08839 0.74139 0.0
H5249 H 0.26106 0.08944 0.7444 0.0
H5250 H 0.25601 0.09627 0.71255 0.0
H5251 H 0.2746 0.09513 0.70931 0.0
C5252 C 0.32329 0.12254 0.71577 0.0
C5253 C 0.32082 0.12661 0.70606 0.0
C5254 C 0.31825 0.11378 0.71948 0.0
C5255 C 0.31063 0.10887 0.71358 0.0
C5256 C 0.30797 0.113 0.70399 0.0
C5257 C 0.31304 0.12176 0.70024 0.0
C5258 C 0.30551 0.09939 0.71743 0.0
C5259 C 0.29484 0.09934 0.71882 0.0
C5260 C 0.31117 0.09061 0.72022 0.0
C5261 C 0.32241 0.09003 0.71853 0.0
C5262 C 0.32655 0.09173 0.70872 0.0
C5263 C 0.33715 0.09127 0.70721 0.0
C5264 C 0.34368 0.08904 0.71543 0.0
C5265 C 0.33963 0.08724 0.72518 0.0
C5266 C 0.32903 0.0877 0.72674 0.0
C5267 C 0.27743 0.05908 0.72918 0.0
C5268 C 0.28106 0.0547 0.73837 0.0
C5269 C 0.28209 0.06791 0.72512 0.0
C5270 C 0.29039 0.07265 0.73022 0.0
C5271 C 0.29405 0.06827 0.73937 0.0
C5272 C 0.28945 0.0594 0.7434 0.0
C5273 C 0.29538 0.08205 0.72596 0.0
C5274 C 0.30605 0.08209 0.72447 0.0
C5275 C 0.28971 0.09084 0.72316 0.0
C5276 C 0.27853 0.09157 0.72509 0.0
C5277 C 0.2746 0.09004 0.73501 0.0
C5278 C 0.26405 0.09066 0.73676 0.0
C5279 C 0.25735 0.09289 0.72867 0.0
C5280 C 0.2612 0.09453 0.71881 0.0
C5281 C 0.27175 0.0939 0.71701 0.0
H5282 H 0.24919 0.09337 0.73004 0.0
H5283 H 0.35189 0.08869 0.71424 0.0
H5284 H 0.38286 0.8011 0.7073 0.0
H5285 H 0.39829 0.79488 0.71595 0.0
H5286 H 0.41582 0.8201 0.70325 0.0
H5287 H 0.40045 0.82624 0.69438 0.0
H5288 H 0.42582 0.80223 0.70118 0.0
H5289 H 0.40917 0.81982 0.72845 0.0
H5290 H 0.39487 0.82414 0.73989 0.0
H5291 H 0.39373 0.79314 0.75101 0.0
H5292 H 0.40794 0.78859 0.73952 0.0
H5293 H 0.47058 0.79419 0.73133 0.0
H5294 H 0.45527 0.80169 0.7236 0.0
H5295 H 0.43661 0.77742 0.73654 0.0
H5296 H 0.45184 0.77009 0.74464 0.0
H5297 H 0.42732 0.79535 0.7386 0.0
H5298 H 0.4435 0.77758 0.71102 0.0
H5299 H 0.45769 0.7731 0.69952 0.0
H5300 H 0.45959 0.80424 0.68889 0.0
H5301 H 0.44549 0.80895 0.70045 0.0
C5302 C 0.39 0.80532 0.70632 0.0
C5303 C 0.3904 0.81417 0.70013 0.0
C5304 C 0.39881 0.8018 0.71135 0.0
C5305 C 0.40822 0.80706 0.71033 0.0
C5306 C 0.40865 0.81592 0.70418 0.0
C5307 C 0.39983 0.81947 0.69918 0.0
C5308 C 0.41766 0.80314 0.71545 0.0
C5309 C 0.4262 0.80088 0.70939 0.0
C5310 C 0.4181 0.80113 0.72613 0.0
C5311 C 0.40956 0.80384 0.73305 0.0
C5312 C 0.40582 0.8139 0.73327 0.0
C5313 C 0.39774 0.8164 0.73977 0.0
C5314 C 0.39338 0.80891 0.74615 0.0
C5315 C 0.39711 0.79892 0.74605 0.0
C5316 C 0.40518 0.79639 0.73956 0.0
C5317 C 0.46321 0.7905 0.73264 0.0
C5318 C 0.46248 0.7815 0.7386 0.0
C5319 C 0.45446 0.79474 0.72811 0.0
C5320 C 0.44478 0.79006 0.72936 0.0
C5321 C 0.44399 0.78117 0.73542 0.0
C5322 C 0.45273 0.77692 0.73997 0.0
C5323 C 0.43548 0.7944 0.72432 0.0
C5324 C 0.42696 0.79673 0.7304 0.0
C5325 C 0.43505 0.79645 0.71365 0.0
C5326 C 0.44351 0.79364 0.70668 0.0
C5327 C 0.44699 0.78349 0.70629 0.0
C5328 C 0.45501 0.78091 0.69975 0.0
C5329 C 0.45955 0.78839 0.6935 0.0
C5330 C 0.45607 0.79846 0.69375 0.0
C5331 C 0.44806 0.80109 0.70029 0.0
H5332 H 0.46576 0.78637 0.68844 0.0
H5333 H 0.38713 0.81086 0.75118 0.0
H5334 H 0.68968 0.9013 0.69661 0.0
H5335 H 0.69825 0.91669 0.70323 0.0
H5336 H 0.71865 0.89789 0.72119 0.0
H5337 H 0.71002 0.88247 0.71469 0.0
H5338 H 0.71205 0.9129 0.73247 0.0
H5339 H 0.72656 0.91073 0.69894 0.0
H5340 H 0.72644 0.9093 0.68009 0.0
H5341 H 0.71002 0.93752 0.67763 0.0
H5342 H 0.70992 0.93906 0.69648 0.0
H5343 H 0.74738 0.95275 0.74578 0.0
H5344 H 0.73972 0.93726 0.73831 0.0
H5345 H 0.71732 0.95561 0.72244 0.0
H5346 H 0.72506 0.97115 0.72972 0.0
H5347 H 0.72527 0.94081 0.71003 0.0
H5348 H 0.71071 0.94267 0.74377 0.0
H5349 H 0.71119 0.94402 0.76262 0.0
H5350 H 0.72828 0.91616 0.7646 0.0
H5351 H 0.72802 0.91471 0.74574 0.0
C5352 C 0.69607 0.90044 0.70187 0.0
C5353 C 0.69917 0.89065 0.70511 0.0
C5354 C 0.70098 0.90925 0.70565 0.0
C5355 C 0.70919 0.90848 0.71264 0.0
C5356 C 0.71233 0.89871 0.71583 0.0
C5357 C 0.70738 0.88989 0.71211 0.0
C5358 C 0.71431 0.91785 0.71685 0.0
C5359 C 0.71508 0.91892 0.72754 0.0
C5360 C 0.71809 0.92584 0.71046 0.0
C5361 C 0.71815 0.92495 0.69913 0.0
C5362 C 0.72285 0.91659 0.69438 0.0
C5363 C 0.72284 0.91577 0.6837 0.0
C5364 C 0.7182 0.9233 0.67767 0.0
C5365 C 0.71359 0.93169 0.68231 0.0
C5366 C 0.71358 0.93254 0.69299 0.0
C5367 C 0.74087 0.9535 0.74063 0.0
C5368 C 0.73681 0.96319 0.73838 0.0
C5369 C 0.73646 0.94463 0.73643 0.0
C5370 C 0.72788 0.94525 0.72989 0.0
C5371 C 0.72391 0.95493 0.72749 0.0
C5372 C 0.72829 0.9638 0.73173 0.0
C5373 C 0.72299 0.93582 0.72562 0.0
C5374 C 0.72226 0.93476 0.71493 0.0
C5375 C 0.71931 0.92781 0.732 0.0
C5376 C 0.71943 0.92864 0.74334 0.0
C5377 C 0.71464 0.93687 0.74822 0.0
C5378 C 0.71486 0.93765 0.75891 0.0
C5379 C 0.71979 0.93019 0.7648 0.0
C5380 C 0.72448 0.92193 0.76002 0.0
C5381 C 0.72429 0.92113 0.74934 0.0
H5382 H 0.71995 0.93081 0.77307 0.0
H5383 H 0.7182 0.92265 0.6694 0.0
H5384 H 0.61692 0.82225 0.32879 0.0
H5385 H 0.60152 0.81584 0.31995 0.0
H5386 H 0.62003 0.7951 0.30252 0.0
H5387 H 0.63548 0.80153 0.31128 0.0
H5388 H 0.60533 0.80515 0.29057 0.0
H5389 H 0.607 0.78605 0.32223 0.0
H5390 H 0.60824 0.78404 0.341 0.0
H5391 H 0.5803 0.80073 0.34461 0.0
H5392 H 0.57898 0.80296 0.32585 0.0
H5393 H 0.56581 0.77223 0.27175 0.0
H5394 H 0.58123 0.77949 0.27984 0.0
H5395 H 0.56233 0.79688 0.30033 0.0
H5396 H 0.54691 0.78947 0.29239 0.0
H5397 H 0.5773 0.78885 0.3107 0.0
H5398 H 0.57521 0.80802 0.27943 0.0
H5399 H 0.5738 0.81064 0.26074 0.0
H5400 H 0.60211 0.79479 0.25638 0.0
H5401 H 0.60362 0.79195 0.27504 0.0
C5402 C 0.61772 0.81639 0.323 0.0
C5403 C 0.62741 0.81237 0.32076 0.0
C5404 C 0.60891 0.8127 0.318 0.0
C5405 C 0.60962 0.80493 0.31064 0.0
C5406 C 0.61931 0.80107 0.3082 0.0
C5407 C 0.62811 0.8047 0.31325 0.0
C5408 C 0.60024 0.80069 0.30563 0.0
C5409 C 0.59924 0.80148 0.29494 0.0
C5410 C 0.59219 0.79614 0.31137 0.0
C5411 C 0.59295 0.79476 0.32265 0.0
C5412 C 0.60117 0.78936 0.32703 0.0
C5413 C 0.60187 0.78817 0.33767 0.0
C5414 C 0.59437 0.79228 0.344 0.0
C5415 C 0.58612 0.79756 0.3397 0.0
C5416 C 0.58538 0.79878 0.32907 0.0
C5417 C 0.56496 0.77766 0.27793 0.0
C5418 C 0.55515 0.78029 0.28143 0.0
C5419 C 0.57377 0.78183 0.28254 0.0
C5420 C 0.57297 0.78886 0.29062 0.0
C5421 C 0.56317 0.79147 0.29412 0.0
C5422 C 0.55436 0.78722 0.28959 0.0
C5423 C 0.58232 0.79331 0.29558 0.0
C5424 C 0.58334 0.79255 0.30629 0.0
C5425 C 0.59034 0.79797 0.28985 0.0
C5426 C 0.58947 0.79969 0.27863 0.0
C5427 C 0.58109 0.80503 0.27448 0.0
C5428 C 0.58028 0.80656 0.26389 0.0
C5429 C 0.58784 0.80286 0.25737 0.0
C5430 C 0.59625 0.79764 0.26143 0.0
C5431 C 0.59709 0.79607 0.27202 0.0
H5432 H 0.5872 0.80405 0.24918 0.0
H5433 H 0.59493 0.79134 0.35223 0.0
H5434 H 0.69409 0.11471 0.32675 0.0
H5435 H 0.70076 0.09941 0.31845 0.0
H5436 H 0.72077 0.11833 0.29992 0.0
H5437 H 0.714 0.13369 0.30805 0.0
H5438 H 0.71159 0.10299 0.28869 0.0
H5439 H 0.73011 0.10603 0.32062 0.0
H5440 H 0.7318 0.10766 0.33938 0.0
H5441 H 0.71556 0.07913 0.3435 0.0
H5442 H 0.71364 0.0774 0.32476 0.0
H5443 H 0.74558 0.06473 0.27142 0.0
H5444 H 0.73797 0.0799 0.27908 0.0
H5445 H 0.7206 0.06057 0.29976 0.0
H5446 H 0.72835 0.04539 0.29224 0.0
H5447 H 0.72804 0.07608 0.30989 0.0
H5448 H 0.70954 0.07267 0.27828 0.0
H5449 H 0.70738 0.07087 0.25958 0.0
H5450 H 0.72285 0.09973 0.25484 0.0
H5451 H 0.72523 0.10163 0.27352 0.0
C5452 C 0.69982 0.11564 0.32081 0.0
C5453 C 0.70354 0.12544 0.3181 0.0
C5454 C 0.70369 0.10687 0.31614 0.0
C5455 C 0.71136 0.10771 0.30864 0.0
C5456 C 0.71489 0.11749 0.30571 0.0
C5457 C 0.71106 0.12626 0.31042 0.0
C5458 C 0.71584 0.09839 0.30398 0.0
C5459 C 0.7153 0.09716 0.2933 0.0
C5460 C 0.72045 0.09064 0.31002 0.0
C5461 C 0.72164 0.09164 0.32129 0.0
C5462 C 0.72683 0.10014 0.32553 0.0
C5463 C 0.72784 0.10108 0.33616 0.0
C5464 C 0.72377 0.09352 0.34263 0.0
C5465 C 0.71869 0.08499 0.33848 0.0
C5466 C 0.71765 0.08402 0.32785 0.0
C5467 C 0.74008 0.06371 0.27755 0.0
C5468 C 0.73756 0.05385 0.2812 0.0
C5469 C 0.73571 0.0724 0.28192 0.0
C5470 C 0.72856 0.07141 0.28992 0.0
C5471 C 0.72608 0.06156 0.29361 0.0
C5472 C 0.73053 0.05288 0.28931 0.0
C5473 C 0.72381 0.08064 0.29456 0.0
C5474 C 0.72431 0.08187 0.30525 0.0
C5475 C 0.7191 0.08835 0.28853 0.0
C5476 C 0.71764 0.08725 0.27729 0.0
C5477 C 0.71254 0.0786 0.27325 0.0
C5478 C 0.71127 0.07756 0.26265 0.0
C5479 C 0.71499 0.08517 0.25603 0.0
C5480 C 0.71998 0.09384 0.25998 0.0
C5481 C 0.72128 0.0949 0.27057 0.0
H5482 H 0.714 0.08435 0.24783 0.0
H5483 H 0.72456 0.09425 0.35086 0.0
H5484 H 0.38232 0.21286 0.31192 0.0
H5485 H 0.39755 0.22192 0.30546 0.0
H5486 H 0.41611 0.19575 0.31283 0.0
H5487 H 0.40098 0.18674 0.31951 0.0
H5488 H 0.42567 0.21361 0.31825 0.0
H5489 H 0.40826 0.20012 0.28842 0.0
H5490 H 0.39351 0.19755 0.27675 0.0
H5491 H 0.39207 0.22998 0.27141 0.0
H5492 H 0.40674 0.23276 0.28317 0.0
H5493 H 0.46981 0.22469 0.28877 0.0
H5494 H 0.45438 0.21699 0.29615 0.0
H5495 H 0.43664 0.24272 0.28566 0.0
H5496 H 0.45196 0.25022 0.27774 0.0
H5497 H 0.42634 0.22583 0.28218 0.0
H5498 H 0.44395 0.2395 0.3114 0.0
H5499 H 0.45856 0.24237 0.32318 0.0
H5500 H 0.45945 0.21016 0.32992 0.0
H5501 H 0.44492 0.20708 0.31807 0.0
C5502 C 0.38966 0.20908 0.31228 0.0
C5503 C 0.39041 0.19904 0.31619 0.0
C5504 C 0.39835 0.21424 0.30851 0.0
C5505 C 0.40796 0.20947 0.30854 0.0
C5506 C 0.40878 0.19957 0.31268 0.0
C5507 C 0.4001 0.19439 0.31642 0.0
C5508 C 0.41715 0.21471 0.30411 0.0
C5509 C 0.42586 0.21619 0.31033 0.0
C5510 C 0.41731 0.21833 0.29386 0.0
C5511 C 0.40853 0.21666 0.28675 0.0
C5512 C 0.40475 0.20671 0.28482 0.0
C5513 C 0.39641 0.20521 0.27818 0.0
C5514 C 0.39183 0.2136 0.27337 0.0
C5515 C 0.39561 0.2235 0.27516 0.0
C5516 C 0.40394 0.22504 0.2818 0.0
C5517 C 0.46262 0.22869 0.28792 0.0
C5518 C 0.46218 0.23811 0.28264 0.0
C5519 C 0.4538 0.22433 0.29228 0.0
C5520 C 0.44434 0.22934 0.29163 0.0
C5521 C 0.44385 0.23872 0.28633 0.0
C5522 C 0.45265 0.24305 0.28189 0.0
C5523 C 0.43493 0.2247 0.29629 0.0
C5524 C 0.42616 0.22332 0.29011 0.0
C5525 C 0.43469 0.22123 0.30661 0.0
C5526 C 0.44341 0.22306 0.31378 0.0
C5527 C 0.44731 0.23302 0.31534 0.0
C5528 C 0.45557 0.23469 0.32204 0.0
C5529 C 0.45995 0.22645 0.32728 0.0
C5530 C 0.45605 0.21653 0.32585 0.0
C5531 C 0.4478 0.21483 0.31915 0.0
H5532 H 0.46634 0.22775 0.33246 0.0
H5533 H 0.38538 0.21242 0.26823 0.0
H5534 H 0.33263 0.8967 0.3032 0.0
H5535 H 0.32388 0.91197 0.29707 0.0
H5536 H 0.298 0.90468 0.31637 0.0
H5537 H 0.30657 0.8891 0.32226 0.0
H5538 H 0.2915 0.91069 0.29796 0.0
H5539 H 0.31518 0.92391 0.32268 0.0
H5540 H 0.33195 0.92654 0.33117 0.0
H5541 H 0.34401 0.94019 0.30367 0.0
H5542 H 0.32734 0.93751 0.29497 0.0
H5543 H 0.26935 0.96047 0.2924 0.0
H5544 H 0.27724 0.9451 0.29954 0.0
H5545 H 0.30254 0.94862 0.27863 0.0
H5546 H 0.29457 0.96378 0.27117 0.0
H5547 H 0.30883 0.94474 0.29875 0.0
H5548 H 0.28488 0.93086 0.27405 0.0
H5549 H 0.26786 0.92843 0.26602 0.0
H5550 H 0.25601 0.91627 0.29428 0.0
H5551 H 0.27294 0.91878 0.30253 0.0
C5552 C 0.32503 0.89826 0.30609 0.0
C5553 C 0.32031 0.89161 0.31323 0.0
C5554 C 0.32008 0.90709 0.30265 0.0
C5555 C 0.31031 0.90958 0.30634 0.0
C5556 C 0.30554 0.90295 0.31343 0.0
C5557 C 0.3105 0.89409 0.31687 0.0
C5558 C 0.30509 0.91903 0.30267 0.0
C5559 C 0.29523 0.91815 0.29829 0.0
C5560 C 0.30999 0.92878 0.30293 0.0
C5561 C 0.32003 0.93042 0.30814 0.0
C5562 C 0.32143 0.9274 0.31842 0.0
C5563 C 0.33091 0.92891 0.32327 0.0
C5564 C 0.33904 0.93351 0.31796 0.0
C5565 C 0.3377 0.93662 0.30778 0.0
C5566 C 0.32823 0.93511 0.30288 0.0
C5567 C 0.27651 0.95792 0.28919 0.0
C5568 C 0.28128 0.96343 0.28116 0.0
C5569 C 0.28105 0.94914 0.29334 0.0
C5570 C 0.29047 0.94568 0.2896 0.0
C5571 C 0.2953 0.95118 0.28167 0.0
C5572 C 0.29073 0.95989 0.27745 0.0
C5573 C 0.29533 0.93635 0.29396 0.0
C5574 C 0.3051 0.93727 0.29847 0.0
C5575 C 0.29032 0.92666 0.2939 0.0
C5576 C 0.28015 0.92512 0.28894 0.0
C5577 C 0.27862 0.92776 0.27858 0.0
C5578 C 0.269 0.92635 0.27398 0.0
C5579 C 0.26085 0.92223 0.27964 0.0
C5580 C 0.26232 0.91948 0.28991 0.0
C5581 C 0.27193 0.92089 0.29455 0.0
H5582 H 0.2534 0.92113 0.27607 0.0
H5583 H 0.34638 0.93468 0.32173 0.0
H5584 H 0.70949 0.12713 0.69469 0.0
H5585 H 0.71805 0.1118 0.70119 0.0
H5586 H 0.69553 0.10896 0.72517 0.0
H5587 H 0.68686 0.12414 0.71866 0.0
H5588 H 0.71469 0.1065 0.73268 0.0
H5589 H 0.69479 0.09329 0.70437 0.0
H5590 H 0.68889 0.09242 0.6864 0.0
H5591 H 0.71966 0.08655 0.67659 0.0
H5592 H 0.72578 0.08752 0.69451 0.0
H5593 H 0.72412 0.05607 0.75007 0.0
H5594 H 0.71634 0.07141 0.74276 0.0
H5595 H 0.73921 0.07216 0.71898 0.0
H5596 H 0.74684 0.05659 0.72605 0.0
H5597 H 0.72064 0.07597 0.7111 0.0
H5598 H 0.74057 0.08866 0.73928 0.0
H5599 H 0.74664 0.08952 0.75719 0.0
H5600 H 0.71618 0.09653 0.76717 0.0
H5601 H 0.70989 0.09556 0.74932 0.0
C5602 C 0.70628 0.12318 0.70128 0.0
C5603 C 0.69747 0.12692 0.70615 0.0
C5604 C 0.71121 0.11443 0.70501 0.0
C5605 C 0.70741 0.10918 0.71365 0.0
C5606 C 0.69864 0.11289 0.71853 0.0
C5607 C 0.69371 0.12162 0.7148 0.0
C5608 C 0.71259 0.09987 0.71771 0.0
C5609 C 0.71588 0.09978 0.72799 0.0
C5610 C 0.71442 0.09119 0.71154 0.0
C5611 C 0.71076 0.09059 0.70077 0.0
C5612 C 0.70031 0.0919 0.69838 0.0
C5613 C 0.69693 0.09137 0.6882 0.0
C5614 C 0.7039 0.08946 0.68036 0.0
C5615 C 0.71427 0.08805 0.68268 0.0
C5616 C 0.7177 0.08858 0.69284 0.0
C5617 C 0.72746 0.05943 0.74323 0.0
C5618 C 0.73614 0.05507 0.73867 0.0
C5619 C 0.72305 0.06828 0.73911 0.0
C5620 C 0.72726 0.07304 0.73039 0.0
C5621 C 0.73585 0.06866 0.72574 0.0
C5622 C 0.74026 0.0598 0.72985 0.0
C5623 C 0.72265 0.08256 0.7261 0.0
C5624 C 0.71949 0.0827 0.71578 0.0
C5625 C 0.72097 0.0913 0.73223 0.0
C5626 C 0.72474 0.09194 0.74297 0.0
C5627 C 0.73514 0.09031 0.7453 0.0
C5628 C 0.73863 0.09083 0.75544 0.0
C5629 C 0.7318 0.09306 0.76332 0.0
C5630 C 0.72146 0.09479 0.76106 0.0
C5631 C 0.71793 0.09427 0.75093 0.0
H5632 H 0.73451 0.09346 0.77117 0.0
H5633 H 0.70126 0.08906 0.67249 0.0
H5634 H 0.71162 0.88754 0.32048 0.0
H5635 H 0.72054 0.90284 0.31401 0.0
H5636 H 0.69278 0.91243 0.29878 0.0
H5637 H 0.68377 0.89728 0.30535 0.0
H5638 H 0.70941 0.91365 0.28618 0.0
H5639 H 0.70085 0.92404 0.32053 0.0
H5640 H 0.70063 0.9224 0.33937 0.0
H5641 H 0.73358 0.92323 0.34015 0.0
H5642 H 0.734 0.92473 0.32129 0.0
H5643 H 0.72271 0.96433 0.27233 0.0
H5644 H 0.71458 0.94902 0.27968 0.0
H5645 H 0.74214 0.9429 0.29705 0.0
H5646 H 0.75019 0.95842 0.28992 0.0
H5647 H 0.72634 0.93942 0.30864 0.0
H5648 H 0.73535 0.92926 0.27475 0.0
H5649 H 0.73612 0.93051 0.2559 0.0
H5650 H 0.70324 0.92858 0.25411 0.0
H5651 H 0.70226 0.92745 0.27297 0.0
C5652 C 0.70737 0.89297 0.31587 0.0
C5653 C 0.69697 0.89114 0.31342 0.0
C5654 C 0.71249 0.9017 0.31215 0.0
C5655 C 0.70731 0.9088 0.30594 0.0
C5656 C 0.69694 0.90703 0.30352 0.0
C5657 C 0.69181 0.89833 0.30725 0.0
C5658 C 0.71272 0.91799 0.30176 0.0
C5659 C 0.71301 0.91935 0.29109 0.0
C5660 C 0.71771 0.92525 0.30816 0.0
C5661 C 0.71746 0.92439 0.31949 0.0
C5662 C 0.70805 0.92379 0.32471 0.0
C5663 C 0.70789 0.9229 0.3354 0.0
C5664 C 0.71708 0.92268 0.34095 0.0
C5665 C 0.72646 0.92338 0.33584 0.0
C5666 C 0.72667 0.92426 0.32515 0.0
C5667 C 0.72705 0.95968 0.27767 0.0
C5668 C 0.7371 0.96252 0.2805 0.0
C5669 C 0.72241 0.95091 0.28186 0.0
C5670 C 0.7278 0.94467 0.28879 0.0
C5671 C 0.73782 0.94757 0.29171 0.0
C5672 C 0.74241 0.95643 0.28763 0.0
C5673 C 0.72296 0.93516 0.29302 0.0
C5674 C 0.72278 0.93372 0.3037 0.0
C5675 C 0.71817 0.92775 0.28663 0.0
C5676 C 0.71873 0.92836 0.27528 0.0
C5677 C 0.72828 0.92917 0.27034 0.0
C5678 C 0.72876 0.92985 0.25965 0.0
C5679 C 0.71973 0.92965 0.25381 0.0
C5680 C 0.71022 0.92874 0.25865 0.0
C5681 C 0.7097 0.92807 0.26933 0.0
H5682 H 0.72012 0.93017 0.24554 0.0
H5683 H 0.71694 0.922 0.34923 0.0
H5684 H 0.63399 0.20762 0.30206 0.0
H5685 H 0.61856 0.21617 0.29579 0.0
H5686 H 0.60029 0.19945 0.31786 0.0
H5687 H 0.61568 0.19071 0.32403 0.0
H5688 H 0.59152 0.19917 0.29883 0.0
H5689 H 0.60587 0.2246 0.32142 0.0
H5690 H 0.61942 0.23607 0.32822 0.0
H5691 H 0.62148 0.25136 0.29907 0.0
H5692 H 0.60804 0.23988 0.29204 0.0
H5693 H 0.54559 0.22688 0.29153 0.0
H5694 H 0.5609 0.21894 0.29885 0.0
H5695 H 0.58006 0.23783 0.27938 0.0
H5696 H 0.56476 0.246 0.27226 0.0
H5697 H 0.58838 0.23698 0.29742 0.0
H5698 H 0.5747 0.21159 0.2745 0.0
H5699 H 0.56148 0.20004 0.26718 0.0
H5700 H 0.55857 0.18457 0.29617 0.0
H5701 H 0.57169 0.19611 0.3037 0.0
C5702 C 0.62669 0.20574 0.30557 0.0
C5703 C 0.62608 0.19847 0.31356 0.0
C5704 C 0.61787 0.2107 0.30203 0.0
C5705 C 0.60826 0.20852 0.3064 0.0
C5706 C 0.60762 0.20128 0.31438 0.0
C5707 C 0.61645 0.19635 0.31796 0.0
C5708 C 0.59883 0.21359 0.30245 0.0
C5709 C 0.59077 0.20743 0.29866 0.0
C5710 C 0.59795 0.22438 0.30196 0.0
C5711 C 0.60601 0.23131 0.30618 0.0
C5712 C 0.60927 0.23035 0.31643 0.0
C5713 C 0.61692 0.23687 0.32034 0.0
C5714 C 0.62133 0.24443 0.31408 0.0
C5715 C 0.61807 0.2455 0.30391 0.0
C5716 C 0.61043 0.23899 0.29996 0.0
C5717 C 0.55307 0.2293 0.28878 0.0
C5718 C 0.55396 0.23703 0.28128 0.0
C5719 C 0.56183 0.22474 0.29295 0.0
C5720 C 0.57168 0.22763 0.28956 0.0
C5721 C 0.57258 0.23544 0.28214 0.0
C5722 C 0.56382 0.24011 0.27807 0.0
C5723 C 0.58104 0.22256 0.29375 0.0
C5724 C 0.5891 0.22871 0.29759 0.0
C5725 C 0.58196 0.21176 0.29421 0.0
C5726 C 0.57411 0.20478 0.28969 0.0
C5727 C 0.57119 0.20577 0.27933 0.0
C5728 C 0.56373 0.19922 0.27514 0.0
C5729 C 0.55917 0.19159 0.28121 0.0
C5730 C 0.5621 0.19048 0.29148 0.0
C5731 C 0.56955 0.19702 0.29571 0.0
H5732 H 0.55339 0.18653 0.27796 0.0
H5733 H 0.62725 0.24946 0.31711 0.0
H5734 H 0.29799 0.13562 0.31314 0.0
H5735 H 0.29163 0.12015 0.30461 0.0
H5736 H 0.31656 0.10295 0.31774 0.0
H5737 H 0.32301 0.11844 0.32625 0.0
H5738 H 0.31354 0.09757 0.29828 0.0
H5739 H 0.2921 0.10152 0.32771 0.0
H5740 H 0.28052 0.11061 0.33935 0.0
H5741 H 0.25866 0.11429 0.31489 0.0
H5742 H 0.27018 0.10534 0.30306 0.0
H5743 H 0.29195 0.04789 0.28977 0.0
H5744 H 0.29899 0.06348 0.29751 0.0
H5745 H 0.27467 0.08105 0.28375 0.0
H5746 H 0.26762 0.0655 0.2759 0.0
H5747 H 0.27748 0.08617 0.30354 0.0
H5748 H 0.29903 0.08198 0.27415 0.0
H5749 H 0.31066 0.07273 0.26268 0.0
H5750 H 0.33235 0.06925 0.28732 0.0
H5751 H 0.32078 0.07837 0.29898 0.0
C5752 C 0.3021 0.12854 0.31425 0.0
C5753 C 0.31097 0.12826 0.32045 0.0
C5754 C 0.29846 0.11969 0.30936 0.0
C5755 C 0.30351 0.11032 0.31066 0.0
C5756 C 0.31252 0.11007 0.31662 0.0
C5757 C 0.31621 0.11894 0.32147 0.0
C5758 C 0.29932 0.10078 0.3059 0.0
C5759 C 0.30569 0.09501 0.29954 0.0
C5760 C 0.28902 0.09751 0.30736 0.0
C5761 C 0.28205 0.10284 0.31448 0.0
C5762 C 0.28486 0.10433 0.32479 0.0
C5763 C 0.2783 0.10945 0.33143 0.0
C5764 C 0.26887 0.11305 0.32786 0.0
C5765 C 0.26597 0.11151 0.31765 0.0
C5766 C 0.27251 0.10641 0.31097 0.0
C5767 C 0.28815 0.05508 0.28828 0.0
C5768 C 0.27922 0.05542 0.28217 0.0
C5769 C 0.29219 0.064 0.29274 0.0
C5770 C 0.28743 0.07348 0.29114 0.0
C5771 C 0.27848 0.07383 0.28511 0.0
C5772 C 0.27443 0.06492 0.28065 0.0
C5773 C 0.29168 0.08299 0.29589 0.0
C5774 C 0.28532 0.08874 0.30226 0.0
C5775 C 0.302 0.08622 0.29447 0.0
C5776 C 0.30899 0.08077 0.28746 0.0
C5777 C 0.30624 0.07917 0.27714 0.0
C5778 C 0.31283 0.07397 0.27061 0.0
C5779 C 0.32223 0.07038 0.27428 0.0
C5780 C 0.32507 0.07202 0.28449 0.0
C5781 C 0.3185 0.07722 0.29106 0.0
H5782 H 0.32732 0.06635 0.26921 0.0
H5783 H 0.2638 0.11701 0.33301 0.0
H5784 H 0.38426 0.81039 0.30574 0.0
H5785 H 0.39923 0.80385 0.29672 0.0
H5786 H 0.41855 0.81198 0.32245 0.0
H5787 H 0.40367 0.81877 0.33139 0.0
H5788 H 0.42771 0.81692 0.30449 0.0
H5789 H 0.41047 0.78733 0.31883 0.0
H5790 H 0.39572 0.77568 0.32179 0.0
H5791 H 0.39348 0.76981 0.28949 0.0
H5792 H 0.40814 0.78154 0.28631 0.0
H5793 H 0.47146 0.78727 0.29396 0.0
H5794 H 0.45622 0.79469 0.3016 0.0
H5795 H 0.43788 0.78406 0.27607 0.0
H5796 H 0.453 0.77615 0.26862 0.0
H5797 H 0.4279 0.7807 0.29318 0.0
H5798 H 0.44542 0.80971 0.27872 0.0
H5799 H 0.46004 0.82144 0.27554 0.0
H5800 H 0.46165 0.82861 0.3076 0.0
H5801 H 0.44711 0.81681 0.311 0.0
C5802 C 0.39171 0.81091 0.30943 0.0
C5803 C 0.39273 0.81506 0.31933 0.0
C5804 C 0.40026 0.80708 0.3043 0.0
C5805 C 0.41001 0.80729 0.30895 0.0
C5806 C 0.4111 0.81169 0.31871 0.0
C5807 C 0.40257 0.81549 0.32385 0.0
C5808 C 0.41906 0.80278 0.30378 0.0
C5809 C 0.42779 0.80897 0.30212 0.0
C5810 C 0.4191 0.79248 0.30042 0.0
C5811 C 0.41033 0.78539 0.30232 0.0
C5812 C 0.40678 0.78361 0.31235 0.0
C5813 C 0.39845 0.77699 0.31407 0.0
C5814 C 0.39365 0.77203 0.30583 0.0
C5815 C 0.3972 0.77367 0.29586 0.0
C5816 C 0.40552 0.7803 0.2941 0.0
C5817 C 0.46417 0.78639 0.29 0.0
C5818 C 0.46351 0.78109 0.28064 0.0
C5819 C 0.45547 0.79078 0.29433 0.0
C5820 C 0.44589 0.7901 0.28935 0.0
C5821 C 0.44518 0.78475 0.28005 0.0
C5822 C 0.45387 0.7803 0.27574 0.0
C5823 C 0.43661 0.79482 0.29393 0.0
C5824 C 0.42782 0.78867 0.29549 0.0
C5825 C 0.43651 0.80517 0.29715 0.0
C5826 C 0.44523 0.8123 0.29513 0.0
C5827 C 0.44893 0.81373 0.28511 0.0
C5828 C 0.4572 0.8204 0.28326 0.0
C5829 C 0.46179 0.82575 0.29137 0.0
C5830 C 0.4581 0.82446 0.30133 0.0
C5831 C 0.44983 0.81779 0.30322 0.0
H5832 H 0.46819 0.83091 0.28992 0.0
H5833 H 0.3872 0.76691 0.30718 0.0
H5834 H 0.33009 0.89395 0.7179 0.0
H5835 H 0.32133 0.90884 0.72465 0.0
H5836 H 0.30001 0.90788 0.69925 0.0
H5837 H 0.30902 0.89317 0.69219 0.0
H5838 H 0.30594 0.92714 0.70289 0.0
H5839 H 0.29309 0.8994 0.72335 0.0
H5840 H 0.29413 0.88416 0.73453 0.0
H5841 H 0.31051 0.90172 0.75721 0.0
H5842 H 0.30969 0.91704 0.7461 0.0
H5843 H 0.27035 0.96145 0.72536 0.0
H5844 H 0.27834 0.94633 0.71802 0.0
H5845 H 0.30115 0.94675 0.7421 0.0
H5846 H 0.29329 0.96195 0.74941 0.0
H5847 H 0.2938 0.92755 0.73887 0.0
H5848 H 0.30691 0.9552 0.71803 0.0
H5849 H 0.30566 0.97038 0.70679 0.0
H5850 H 0.28841 0.95282 0.68475 0.0
H5851 H 0.28944 0.93756 0.69593 0.0
C5852 C 0.32361 0.89695 0.71366 0.0
C5853 C 0.32029 0.89233 0.70447 0.0
C5854 C 0.31852 0.90542 0.71761 0.0
C5855 C 0.3099 0.90943 0.71256 0.0
C5856 C 0.3066 0.90491 0.70333 0.0
C5857 C 0.31172 0.89643 0.69935 0.0
C5858 C 0.30442 0.9184 0.71686 0.0
C5859 C 0.30315 0.92715 0.71071 0.0
C5860 C 0.30093 0.91854 0.72713 0.0
C5861 C 0.30141 0.90935 0.73385 0.0
C5862 C 0.29698 0.89999 0.73069 0.0
C5863 C 0.29752 0.89134 0.73702 0.0
C5864 C 0.3024 0.89196 0.74656 0.0
C5865 C 0.30674 0.90125 0.74981 0.0
C5866 C 0.30623 0.90992 0.74351 0.0
C5867 C 0.27713 0.9584 0.72905 0.0
C5868 C 0.28118 0.96298 0.73797 0.0
C5869 C 0.28168 0.94973 0.72485 0.0
C5870 C 0.29042 0.94544 0.72944 0.0
C5871 C 0.29441 0.9499 0.73842 0.0
C5872 C 0.28987 0.95858 0.74262 0.0
C5873 C 0.29539 0.93629 0.72493 0.0
C5874 C 0.29657 0.9275 0.73104 0.0
C5875 C 0.29875 0.93611 0.71462 0.0
C5876 C 0.29816 0.94526 0.70787 0.0
C5877 C 0.30278 0.95459 0.71083 0.0
C5878 C 0.30213 0.96321 0.70446 0.0
C5879 C 0.29694 0.96257 0.69508 0.0
C5880 C 0.29241 0.95331 0.69203 0.0
C5881 C 0.29304 0.94467 0.69837 0.0
H5882 H 0.29644 0.96925 0.69016 0.0
H5883 H 0.30281 0.88525 0.75145 0.0
H5884 H 0.63466 0.79938 0.7067 0.0
H5885 H 0.61927 0.79292 0.71535 0.0
H5886 H 0.60186 0.81797 0.70279 0.0
H5887 H 0.61727 0.82452 0.69418 0.0
H5888 H 0.59671 0.81472 0.72223 0.0
H5889 H 0.60034 0.79364 0.6925 0.0
H5890 H 0.60933 0.78221 0.68064 0.0
H5891 H 0.61327 0.76014 0.70482 0.0
H5892 H 0.60443 0.77151 0.71687 0.0
H5893 H 0.54696 0.79314 0.73084 0.0
H5894 H 0.56255 0.80024 0.72308 0.0
H5895 H 0.58021 0.77578 0.73641 0.0
H5896 H 0.56467 0.76867 0.74428 0.0
H5897 H 0.5852 0.7788 0.71664 0.0
H5898 H 0.58125 0.8 0.74631 0.0
H5899 H 0.57207 0.81149 0.75797 0.0
H5900 H 0.56843 0.8334 0.73359 0.0
H5901 H 0.57747 0.82197 0.72175 0.0
C5902 C 0.62755 0.8035 0.70575 0.0
C5903 C 0.62719 0.81243 0.69968 0.0
C5904 C 0.61874 0.79979 0.7107 0.0
C5905 C 0.60934 0.80485 0.70959 0.0
C5906 C 0.60901 0.81392 0.70376 0.0
C5907 C 0.61784 0.81767 0.69885 0.0
C5908 C 0.59984 0.80061 0.71441 0.0
C5909 C 0.59412 0.80691 0.7209 0.0
C5910 C 0.59654 0.79035 0.71285 0.0
C5911 C 0.60181 0.78347 0.70561 0.0
C5912 C 0.60319 0.78638 0.69531 0.0
C5913 C 0.60825 0.77991 0.68855 0.0
C5914 C 0.6119 0.77046 0.69198 0.0
C5915 C 0.61046 0.76746 0.70217 0.0
C5916 C 0.60542 0.77392 0.70897 0.0
C5917 C 0.55418 0.78933 0.73223 0.0
C5918 C 0.55454 0.78034 0.73822 0.0
C5919 C 0.56309 0.7934 0.72777 0.0
C5920 C 0.57259 0.78861 0.72924 0.0
C5921 C 0.57298 0.77961 0.73515 0.0
C5922 C 0.56407 0.77553 0.73962 0.0
C5923 C 0.58209 0.7929 0.72447 0.0
C5924 C 0.58779 0.78661 0.71798 0.0
C5925 C 0.58535 0.80317 0.72599 0.0
C5926 C 0.57995 0.81008 0.73312 0.0
C5927 C 0.57842 0.80723 0.74341 0.0
C5928 C 0.57326 0.81374 0.75006 0.0
C5929 C 0.56965 0.82316 0.74652 0.0
C5930 C 0.57122 0.8261 0.73632 0.0
C5931 C 0.57638 0.81961 0.72964 0.0
H5932 H 0.56565 0.82819 0.75167 0.0
H5933 H 0.61581 0.76546 0.68673 0.0
H5934 H 0.39932 0.19392 0.69471 0.0
H5935 H 0.41472 0.20046 0.7034 0.0
H5936 H 0.39787 0.22666 0.71378 0.0
H5937 H 0.38247 0.2202 0.70502 0.0
H5938 H 0.41578 0.23263 0.70658 0.0
H5939 H 0.40444 0.20665 0.73014 0.0
H5940 H 0.39891 0.18933 0.73557 0.0
H5941 H 0.42785 0.17725 0.72614 0.0
H5942 H 0.43351 0.19448 0.72052 0.0
H5943 H 0.45265 0.25047 0.7429 0.0
H5944 H 0.43705 0.24343 0.73501 0.0
H5945 H 0.4544 0.21852 0.72257 0.0
H5946 H 0.47008 0.22559 0.73028 0.0
H5947 H 0.43626 0.21187 0.73101 0.0
H5948 H 0.44742 0.238 0.70734 0.0
H5949 H 0.45287 0.25542 0.70216 0.0
H5950 H 0.42404 0.2673 0.71216 0.0
H5951 H 0.41846 0.24997 0.71754 0.0
C5952 C 0.39887 0.20101 0.69895 0.0
C5953 C 0.38967 0.20654 0.69918 0.0
C5954 C 0.40768 0.20475 0.70392 0.0
C5955 C 0.40745 0.21401 0.70935 0.0
C5956 C 0.39825 0.21951 0.70963 0.0
C5957 C 0.38946 0.21582 0.70461 0.0
C5958 C 0.41685 0.21814 0.71448 0.0
C5959 C 0.42016 0.22813 0.71204 0.0
C5960 C 0.42273 0.21221 0.72143 0.0
C5961 C 0.41935 0.20184 0.72482 0.0
C5962 C 0.40959 0.20029 0.72915 0.0
C5963 C 0.40644 0.19049 0.73227 0.0
C5964 C 0.41301 0.18219 0.73117 0.0
C5965 C 0.42276 0.18368 0.72697 0.0
C5966 C 0.42595 0.19346 0.72382 0.0
C5967 C 0.45318 0.24355 0.7384 0.0
C5968 C 0.46265 0.23863 0.73719 0.0
C5969 C 0.44424 0.23951 0.73393 0.0
C5970 C 0.44457 0.23049 0.72813 0.0
C5971 C 0.45396 0.22547 0.72704 0.0
C5972 C 0.46292 0.22951 0.73148 0.0
C5973 C 0.43514 0.22634 0.72312 0.0
C5974 C 0.43184 0.21636 0.72557 0.0
C5975 C 0.42925 0.23228 0.71621 0.0
C5976 C 0.43256 0.2427 0.71294 0.0
C5977 C 0.44227 0.24434 0.70851 0.0
C5978 C 0.44538 0.25419 0.70553 0.0
C5979 C 0.43882 0.26246 0.70686 0.0
C5980 C 0.42912 0.26089 0.71115 0.0
C5981 C 0.42598 0.25105 0.71416 0.0
H5982 H 0.44124 0.27008 0.70454 0.0
H5983 H 0.41056 0.17461 0.7336 0.0
H5984 H 0.69062 0.69569 0.11812 0.0
H5985 H 0.69701 0.70439 0.10271 0.0
H5986 H 0.72458 0.7133 0.11897 0.0
H5987 H 0.71813 0.70486 0.13447 0.0
H5988 H 0.71758 0.72888 0.10727 0.0
H5989 H 0.72441 0.69304 0.10256 0.0
H5990 H 0.71991 0.67466 0.10158 0.0
H5991 H 0.69896 0.68075 0.07683 0.0
H5992 H 0.70323 0.69919 0.07775 0.0
H5993 H 0.74935 0.74203 0.06519 0.0
H5994 H 0.74191 0.73422 0.08051 0.0
H5995 H 0.71583 0.72375 0.06277 0.0
H5996 H 0.72349 0.73103 0.04729 0.0
H5997 H 0.72149 0.70916 0.07515 0.0
H5998 H 0.71481 0.74488 0.07942 0.0
H5999 H 0.71912 0.7633 0.08033 0.0
H6000 H 0.73937 0.75766 0.10576 0.0
H6001 H 0.73529 0.73917 0.10492 0.0
C6002 C 0.69798 0.69961 0.11846 0.0
C6003 C 0.70388 0.69951 0.12753 0.0
C6004 C 0.70167 0.70451 0.10961 0.0
C6005 C 0.71135 0.70939 0.10962 0.0
C6006 C 0.71712 0.70955 0.11874 0.0
C6007 C 0.71345 0.70465 0.12758 0.0
C6008 C 0.71557 0.71417 0.10011 0.0
C6009 C 0.71853 0.72455 0.10028 0.0
C6010 C 0.7166 0.70859 0.09089 0.0
C6011 C 0.71406 0.6975 0.0903 0.0
C6012 C 0.71878 0.69047 0.09696 0.0
C6013 C 0.71629 0.68004 0.09641 0.0
C6014 C 0.70913 0.67654 0.08917 0.0
C6015 C 0.70448 0.68347 0.08244 0.0
C6016 C 0.70695 0.69391 0.08297 0.0
C6017 C 0.74208 0.73797 0.06449 0.0
C6018 C 0.73704 0.73721 0.05494 0.0
C6019 C 0.73776 0.73361 0.07332 0.0
C6020 C 0.7282 0.72852 0.07288 0.0
C6021 C 0.72317 0.72768 0.06336 0.0
C6022 C 0.72753 0.73196 0.05451 0.0
C6023 C 0.72353 0.7239 0.08228 0.0
C6024 C 0.72049 0.71354 0.08211 0.0
C6025 C 0.72239 0.72951 0.09148 0.0
C6026 C 0.72481 0.74063 0.09205 0.0
C6027 C 0.72023 0.74756 0.08516 0.0
C6028 C 0.72263 0.75801 0.08567 0.0
C6029 C 0.72953 0.76164 0.09308 0.0
C6030 C 0.73404 0.75483 0.10002 0.0
C6031 C 0.73167 0.74437 0.09954 0.0
H6032 H 0.73138 0.76974 0.09346 0.0
H6033 H 0.70721 0.66847 0.08875 0.0
H6034 H 0.30247 0.68596 0.12238 0.0
H6035 H 0.29639 0.69499 0.10716 0.0
H6036 H 0.31326 0.72207 0.11641 0.0
H6037 H 0.31905 0.7132 0.13194 0.0
H6038 H 0.29469 0.72709 0.10967 0.0
H6039 H 0.32197 0.70672 0.0971 0.0
H6040 H 0.33189 0.69101 0.0944 0.0
H6041 H 0.30619 0.67723 0.07873 0.0
H6042 H 0.29606 0.69281 0.08146 0.0
H6043 H 0.28985 0.75136 0.06038 0.0
H6044 H 0.29702 0.74335 0.07585 0.0
H6045 H 0.27835 0.71637 0.0705 0.0
H6046 H 0.2712 0.72431 0.05503 0.0
H6047 H 0.29876 0.71196 0.07513 0.0
H6048 H 0.27146 0.73262 0.0883 0.0
H6049 H 0.26197 0.74861 0.09092 0.0
H6050 H 0.28848 0.76226 0.1053 0.0
H6051 H 0.2982 0.7464 0.10261 0.0
C6052 C 0.30482 0.69388 0.12126 0.0
C6053 C 0.31126 0.69885 0.12842 0.0
C6054 C 0.30142 0.699 0.11247 0.0
C6055 C 0.30448 0.70918 0.11055 0.0
C6056 C 0.31084 0.7142 0.1177 0.0
C6057 C 0.31422 0.70909 0.12653 0.0
C6058 C 0.30093 0.71456 0.10112 0.0
C6059 C 0.29573 0.72386 0.1021 0.0
C6060 C 0.30215 0.71029 0.09124 0.0
C6061 C 0.30822 0.7009 0.08957 0.0
C6062 C 0.3184 0.70031 0.09315 0.0
C6063 C 0.32407 0.69143 0.0916 0.0
C6064 C 0.31967 0.68312 0.08642 0.0
C6065 C 0.30959 0.68367 0.08275 0.0
C6066 C 0.30388 0.69253 0.08429 0.0
C6067 C 0.28731 0.74371 0.06249 0.0
C6068 C 0.27994 0.73847 0.05652 0.0
C6069 C 0.29137 0.73917 0.07135 0.0
C6070 C 0.28817 0.72929 0.07435 0.0
C6071 C 0.28091 0.72401 0.06833 0.0
C6072 C 0.27678 0.72857 0.05954 0.0
C6073 C 0.29244 0.7244 0.08371 0.0
C6074 C 0.29778 0.7152 0.0827 0.0
C6075 C 0.29143 0.72882 0.09354 0.0
C6076 C 0.28559 0.73836 0.09515 0.0
C6077 C 0.2753 0.73907 0.09193 0.0
C6078 C 0.26987 0.7481 0.09345 0.0
C6079 C 0.27462 0.75645 0.09826 0.0
C6080 C 0.28481 0.75579 0.10157 0.0
C6081 C 0.29028 0.74678 0.10005 0.0
H6082 H 0.27041 0.76343 0.09945 0.0
H6083 H 0.32407 0.67625 0.08523 0.0
H6084 H 0.29955 0.31334 0.13458 0.0
H6085 H 0.29333 0.30463 0.11916 0.0
H6086 H 0.31962 0.31591 0.10243 0.0
H6087 H 0.32579 0.32485 0.11778 0.0
H6088 H 0.30206 0.31842 0.09155 0.0
H6089 H 0.31804 0.29097 0.10991 0.0
H6090 H 0.32143 0.27976 0.12479 0.0
H6091 H 0.28989 0.26979 0.1248 0.0
H6092 H 0.28628 0.28106 0.11 0.0
H6093 H 0.29399 0.28774 0.04743 0.0
H6094 H 0.30135 0.29557 0.0628 0.0
H6095 H 0.27628 0.28341 0.08077 0.0
H6096 H 0.26911 0.27514 0.06551 0.0
H6097 H 0.2937 0.28125 0.09095 0.0
H6098 H 0.2775 0.30896 0.07306 0.0
H6099 H 0.27387 0.32027 0.05832 0.0
H6100 H 0.3055 0.32988 0.05758 0.0
H6101 H 0.30935 0.31852 0.07224 0.0
C6102 C 0.30401 0.314 0.12761 0.0
C6103 C 0.31318 0.31981 0.12743 0.0
C6104 C 0.30048 0.30893 0.11882 0.0
C6105 C 0.30604 0.30953 0.10964 0.0
C6106 C 0.31521 0.31531 0.10942 0.0
C6107 C 0.31877 0.32035 0.11823 0.0
C6108 C 0.30216 0.30433 0.1002 0.0
C6109 C 0.30038 0.31026 0.09137 0.0
C6110 C 0.29971 0.29373 0.10002 0.0
C6111 C 0.30187 0.28693 0.10891 0.0
C6112 C 0.31181 0.28645 0.11314 0.0
C6113 C 0.31377 0.28007 0.12155 0.0
C6114 C 0.30588 0.27409 0.12575 0.0
C6115 C 0.296 0.27444 0.12154 0.0
C6116 C 0.29399 0.28082 0.11314 0.0
C6117 C 0.29008 0.28661 0.05466 0.0
C6118 C 0.28091 0.28081 0.05518 0.0
C6119 C 0.29425 0.29121 0.06345 0.0
C6120 C 0.2893 0.29023 0.07295 0.0
C6121 C 0.28023 0.28433 0.07353 0.0
C6122 C 0.27608 0.27969 0.06476 0.0
C6123 C 0.29356 0.29534 0.08229 0.0
C6124 C 0.2954 0.2894 0.09111 0.0
C6125 C 0.29603 0.30595 0.08247 0.0
C6126 C 0.29373 0.31281 0.07368 0.0
C6127 C 0.2837 0.31343 0.06971 0.0
C6128 C 0.2816 0.31986 0.06138 0.0
C6129 C 0.28945 0.32577 0.057 0.0
C6130 C 0.29942 0.32529 0.06096 0.0
C6131 C 0.30157 0.31886 0.06929 0.0
H6132 H 0.28781 0.33075 0.05055 0.0
H6133 H 0.30741 0.26915 0.13226 0.0
H6134 H 0.71378 0.31011 0.1353 0.0
H6135 H 0.7206 0.30141 0.12026 0.0
H6136 H 0.70158 0.31989 0.10054 0.0
H6137 H 0.69461 0.32852 0.11556 0.0
H6138 H 0.70146 0.29959 0.09479 0.0
H6139 H 0.7265 0.32568 0.10315 0.0
H6140 H 0.73856 0.33503 0.11446 0.0
H6141 H 0.75576 0.30756 0.11925 0.0
H6142 H 0.74371 0.298 0.10807 0.0
H6143 H 0.72589 0.29039 0.04732 0.0
H6144 H 0.7186 0.29819 0.0626 0.0
H6145 H 0.74011 0.28178 0.08162 0.0
H6146 H 0.74752 0.27406 0.06633 0.0
H6147 H 0.73889 0.30072 0.08799 0.0
H6148 H 0.71426 0.27455 0.07961 0.0
H6149 H 0.70221 0.2649 0.06855 0.0
H6150 H 0.68422 0.29192 0.06413 0.0
H6151 H 0.69625 0.30177 0.07506 0.0
C6152 C 0.71097 0.31225 0.12777 0.0
C6153 C 0.70368 0.32004 0.12663 0.0
C6154 C 0.71493 0.30732 0.11917 0.0
C6155 C 0.71168 0.31007 0.10926 0.0
C6156 C 0.70422 0.31767 0.10811 0.0
C6157 C 0.7003 0.32264 0.1167 0.0
C6158 C 0.71617 0.30514 0.10007 0.0
C6159 C 0.70963 0.29993 0.09323 0.0
C6160 C 0.72686 0.30537 0.09817 0.0
C6161 C 0.73414 0.31111 0.10486 0.0
C6162 C 0.7328 0.32161 0.10668 0.0
C6163 C 0.73965 0.32695 0.11306 0.0
C6164 C 0.7479 0.32188 0.11759 0.0
C6165 C 0.74935 0.31147 0.11574 0.0
C6166 C 0.74252 0.30609 0.10938 0.0
C6167 C 0.72901 0.28837 0.05476 0.0
C6168 C 0.73726 0.28157 0.05561 0.0
C6169 C 0.72483 0.29284 0.06351 0.0
C6170 C 0.72869 0.29047 0.07331 0.0
C6171 C 0.73698 0.28374 0.07416 0.0
C6172 C 0.74123 0.27934 0.06541 0.0
C6173 C 0.72418 0.29514 0.08266 0.0
C6174 C 0.73072 0.30032 0.08954 0.0
C6175 C 0.71349 0.29483 0.08463 0.0
C6176 C 0.70621 0.28892 0.07808 0.0
C6177 C 0.70778 0.27845 0.07622 0.0
C6178 C 0.70094 0.27295 0.06998 0.0
C6179 C 0.69247 0.2778 0.06562 0.0
C6180 C 0.69079 0.28818 0.06751 0.0
C6181 C 0.69761 0.29372 0.07373 0.0
H6182 H 0.68718 0.27353 0.06079 0.0
H6183 H 0.75319 0.32603 0.12253 0.0
H6184 H 0.71387 0.33396 0.89848 0.0
H6185 H 0.72035 0.32497 0.91359 0.0
H6186 H 0.70443 0.29743 0.9041 0.0
H6187 H 0.69803 0.30633 0.88882 0.0
H6188 H 0.70224 0.30124 0.92482 0.0
H6189 H 0.72969 0.29949 0.90047 0.0
H6190 H 0.74216 0.30652 0.88806 0.0
H6191 H 0.75582 0.32512 0.91165 0.0
H6192 H 0.74333 0.31831 0.92417 0.0
H6193 H 0.72782 0.26819 0.95997 0.0
H6194 H 0.72071 0.2762 0.94452 0.0
H6195 H 0.73894 0.30341 0.95034 0.0
H6196 H 0.74624 0.29531 0.96561 0.0
H6197 H 0.73977 0.29918 0.93101 0.0
H6198 H 0.7123 0.30166 0.95526 0.0
H6199 H 0.6997 0.2952 0.96784 0.0
H6200 H 0.68596 0.27591 0.94485 0.0
H6201 H 0.69857 0.28216 0.93216 0.0
C6202 C 0.71181 0.32596 0.89953 0.0
C6203 C 0.7055 0.32085 0.89235 0.0
C6204 C 0.71549 0.32084 0.90821 0.0
C6205 C 0.71297 0.31049 0.90992 0.0
C6206 C 0.70647 0.30542 0.90293 0.0
C6207 C 0.7028 0.31053 0.89421 0.0
C6208 C 0.71724 0.30497 0.91894 0.0
C6209 C 0.71045 0.30065 0.92612 0.0
C6210 C 0.72794 0.30441 0.92074 0.0
C6211 C 0.73552 0.30846 0.91324 0.0
C6212 C 0.73531 0.30513 0.903 0.0
C6213 C 0.74239 0.30907 0.89595 0.0
C6214 C 0.74977 0.31628 0.89906 0.0
C6215 C 0.7501 0.31955 0.90924 0.0
C6216 C 0.74302 0.31564 0.91632 0.0
C6217 C 0.73026 0.2759 0.95796 0.0
C6218 C 0.73758 0.28113 0.964 0.0
C6219 C 0.72618 0.28049 0.94915 0.0
C6220 C 0.72916 0.29049 0.94631 0.0
C6221 C 0.73651 0.29569 0.95233 0.0
C6222 C 0.74069 0.29106 0.96106 0.0
C6223 C 0.72478 0.29551 0.93701 0.0
C6224 C 0.73156 0.29973 0.92974 0.0
C6225 C 0.71406 0.29604 0.93519 0.0
C6226 C 0.70645 0.2923 0.94279 0.0
C6227 C 0.70664 0.29599 0.95291 0.0
C6228 C 0.69949 0.29237 0.96005 0.0
C6229 C 0.69205 0.28513 0.95715 0.0
C6230 C 0.69173 0.28151 0.94709 0.0
C6231 C 0.69888 0.28509 0.93992 0.0
H6232 H 0.68652 0.28234 0.9627 0.0
H6233 H 0.75524 0.31932 0.89359 0.0
H6234 H 0.7096 0.70893 0.88368 0.0
H6235 H 0.71847 0.71572 0.89881 0.0
H6236 H 0.69508 0.70245 0.91823 0.0
H6237 H 0.68615 0.6957 0.90312 0.0
H6238 H 0.699 0.72142 0.92389 0.0
H6239 H 0.71961 0.69221 0.91641 0.0
H6240 H 0.73018 0.68103 0.90567 0.0
H6241 H 0.75185 0.70565 0.90102 0.0
H6242 H 0.74133 0.71702 0.91162 0.0
H6243 H 0.72444 0.72831 0.97157 0.0
H6244 H 0.71641 0.72076 0.95637 0.0
H6245 H 0.73941 0.73514 0.93728 0.0
H6246 H 0.74749 0.74276 0.95247 0.0
H6247 H 0.73586 0.71568 0.93139 0.0
H6248 H 0.71516 0.74485 0.93888 0.0
H6249 H 0.70459 0.75595 0.9497 0.0
H6250 H 0.68306 0.73124 0.9544 0.0
H6251 H 0.69357 0.71994 0.94372 0.0
C6252 C 0.70642 0.70733 0.89118 0.0
C6253 C 0.69716 0.70176 0.89217 0.0
C6254 C 0.7115 0.71123 0.89984 0.0
C6255 C 0.70751 0.70954 0.90971 0.0
C6256 C 0.69831 0.7039 0.91072 0.0
C6257 C 0.6932 0.70006 0.90206 0.0
C6258 C 0.71272 0.71389 0.91895 0.0
C6259 C 0.70702 0.72003 0.9256 0.0
C6260 C 0.72327 0.71233 0.92108 0.0
C6261 C 0.72962 0.7055 0.91472 0.0
C6262 C 0.72659 0.69527 0.91303 0.0
C6263 C 0.73258 0.68889 0.90698 0.0
C6264 C 0.74167 0.69264 0.90264 0.0
C6265 C 0.7448 0.70276 0.90437 0.0
C6266 C 0.73883 0.70917 0.9104 0.0
C6267 C 0.72775 0.72995 0.96414 0.0
C6268 C 0.73658 0.73622 0.96326 0.0
C6269 C 0.72316 0.7256 0.95544 0.0
C6270 C 0.72722 0.72748 0.94564 0.0
C6271 C 0.73613 0.73357 0.94475 0.0
C6272 C 0.74076 0.73791 0.95345 0.0
C6273 C 0.72211 0.72315 0.93634 0.0
C6274 C 0.72783 0.71705 0.92968 0.0
C6275 C 0.71157 0.72473 0.93419 0.0
C6276 C 0.70521 0.73152 0.94057 0.0
C6277 C 0.70821 0.74176 0.94228 0.0
C6278 C 0.70222 0.74809 0.94838 0.0
C6279 C 0.69317 0.7443 0.95276 0.0
C6280 C 0.69008 0.73416 0.95102 0.0
C6281 C 0.69604 0.7278 0.94493 0.0
H6282 H 0.68855 0.74921 0.95748 0.0
H6283 H 0.7463 0.68769 0.89796 0.0
H6284 H 0.3272 0.72156 0.89273 0.0
H6285 H 0.31857 0.72813 0.90785 0.0
H6286 H 0.30081 0.70014 0.91019 0.0
H6287 H 0.30955 0.6934 0.89511 0.0
H6288 H 0.28902 0.71736 0.91323 0.0
H6289 H 0.32081 0.70387 0.92594 0.0
H6290 H 0.33959 0.7018 0.92649 0.0
H6291 H 0.34356 0.7339 0.93259 0.0
H6292 H 0.3248 0.73619 0.93193 0.0
H6293 H 0.27131 0.7258 0.96408 0.0
H6294 H 0.27901 0.71873 0.94864 0.0
H6295 H 0.29941 0.74494 0.94666 0.0
H6296 H 0.29178 0.75201 0.96214 0.0
H6297 H 0.30971 0.72808 0.94346 0.0
H6298 H 0.27828 0.74191 0.93048 0.0
H6299 H 0.25956 0.74441 0.92964 0.0
H6300 H 0.25492 0.71234 0.92382 0.0
H6301 H 0.27361 0.70962 0.92475 0.0
C6302 C 0.32153 0.71674 0.89649 0.0
C6303 C 0.31917 0.70689 0.89273 0.0
C6304 C 0.31657 0.72054 0.90512 0.0
C6305 C 0.30913 0.71459 0.91024 0.0
C6306 C 0.30653 0.70487 0.90637 0.0
C6307 C 0.31152 0.70104 0.89773 0.0
C6308 C 0.30422 0.71848 0.91971 0.0
C6309 C 0.29352 0.71957 0.9199 0.0
C6310 C 0.31012 0.72159 0.92833 0.0
C6311 C 0.3214 0.72022 0.92879 0.0
C6312 C 0.32569 0.7105 0.92732 0.0
C6313 C 0.33633 0.70929 0.92766 0.0
C6314 C 0.34277 0.71772 0.92955 0.0
C6315 C 0.33857 0.72738 0.93112 0.0
C6316 C 0.32793 0.72864 0.93077 0.0
C6317 C 0.27737 0.73011 0.9603 0.0
C6318 C 0.28092 0.73949 0.96434 0.0
C6319 C 0.28177 0.72605 0.95146 0.0
C6320 C 0.28973 0.73134 0.94638 0.0
C6321 C 0.2933 0.74069 0.95043 0.0
C6322 C 0.28894 0.74472 0.9593 0.0
C6323 C 0.29449 0.72706 0.93699 0.0
C6324 C 0.30518 0.72587 0.93681 0.0
C6325 C 0.28858 0.72393 0.92837 0.0
C6326 C 0.27734 0.72554 0.92778 0.0
C6327 C 0.27326 0.73537 0.9291 0.0
C6328 C 0.26266 0.73684 0.92859 0.0
C6329 C 0.25605 0.72854 0.9267 0.0
C6330 C 0.26004 0.71876 0.92529 0.0
C6331 C 0.27064 0.71726 0.9258 0.0
H6332 H 0.24784 0.72969 0.92631 0.0
H6333 H 0.351 0.71676 0.92981 0.0
H6334 H 0.30639 0.30891 0.88341 0.0
H6335 H 0.29945 0.29992 0.89841 0.0
H6336 H 0.31698 0.31987 0.91831 0.0
H6337 H 0.32411 0.32876 0.90334 0.0
H6338 H 0.31769 0.2999 0.92474 0.0
H6339 H 0.29171 0.32385 0.91438 0.0
H6340 H 0.27968 0.33191 0.9022 0.0
H6341 H 0.26419 0.30303 0.89784 0.0
H6342 H 0.27623 0.29476 0.90989 0.0
H6343 H 0.29207 0.29026 0.97165 0.0
H6344 H 0.29956 0.29808 0.95631 0.0
H6345 H 0.27919 0.27996 0.9373 0.0
H6346 H 0.27152 0.27227 0.95266 0.0
H6347 H 0.28002 0.29851 0.93006 0.0
H6348 H 0.30546 0.27444 0.9405 0.0
H6349 H 0.31751 0.26602 0.95239 0.0
H6350 H 0.33406 0.29439 0.95626 0.0
H6351 H 0.32202 0.30302 0.94449 0.0
C6352 C 0.30887 0.3113 0.89097 0.0
C6353 C 0.31578 0.31959 0.89216 0.0
C6354 C 0.30483 0.30621 0.89955 0.0
C6355 C 0.30759 0.30929 0.9095 0.0
C6356 C 0.3147 0.31738 0.91071 0.0
C6357 C 0.31871 0.3225 0.90214 0.0
C6358 C 0.30296 0.30422 0.91867 0.0
C6359 C 0.30946 0.29969 0.92597 0.0
C6360 C 0.29221 0.3037 0.92015 0.0
C6361 C 0.28493 0.30867 0.91295 0.0
C6362 C 0.28579 0.31921 0.91076 0.0
C6363 C 0.27896 0.32381 0.90389 0.0
C6364 C 0.27119 0.31798 0.89923 0.0
C6365 C 0.27022 0.30753 0.90145 0.0
C6366 C 0.27704 0.30288 0.9083 0.0
C6367 C 0.28924 0.28789 0.9642 0.0
C6368 C 0.28123 0.28061 0.96339 0.0
C6369 C 0.29354 0.29235 0.95542 0.0
C6370 C 0.29008 0.28951 0.94559 0.0
C6371 C 0.28202 0.28229 0.94477 0.0
C6372 C 0.27763 0.27791 0.95356 0.0
C6373 C 0.29474 0.29417 0.9362 0.0
C6374 C 0.28825 0.29865 0.92885 0.0
C6375 C 0.3055 0.29457 0.93463 0.0
C6376 C 0.31278 0.2894 0.94168 0.0
C6377 C 0.31163 0.2789 0.94394 0.0
C6378 C 0.31846 0.27409 0.95065 0.0
C6379 C 0.32654 0.27967 0.9551 0.0
C6380 C 0.3278 0.29008 0.95282 0.0
C6381 C 0.32098 0.29493 0.94612 0.0
H6382 H 0.33182 0.27593 0.9603 0.0
H6383 H 0.26591 0.32156 0.89392 0.0
H6384 H 0.61383 0.6967 0.18753 0.0
H6385 H 0.59886 0.70365 0.19616 0.0
H6386 H 0.61856 0.71701 0.2193 0.0
H6387 H 0.63359 0.71004 0.21072 0.0
H6388 H 0.60175 0.70888 0.2279 0.0
H6389 H 0.60851 0.73155 0.1996 0.0
H6390 H 0.61156 0.73612 0.1815 0.0
H6391 H 0.5819 0.72393 0.17326 0.0
H6392 H 0.57873 0.71916 0.19131 0.0
H6393 H 0.56515 0.74372 0.24778 0.0
H6394 H 0.58022 0.73599 0.24 0.0
H6395 H 0.56096 0.72243 0.2166 0.0
H6396 H 0.54587 0.73012 0.22434 0.0
H6397 H 0.57767 0.73075 0.20826 0.0
H6398 H 0.5709 0.70812 0.23662 0.0
H6399 H 0.56788 0.70359 0.25474 0.0
H6400 H 0.59755 0.7158 0.2629 0.0
H6401 H 0.6007 0.72052 0.24484 0.0
C6402 C 0.61499 0.70115 0.19444 0.0
C6403 C 0.62494 0.70287 0.19838 0.0
C6404 C 0.60641 0.70512 0.19937 0.0
C6405 C 0.60756 0.71102 0.2083 0.0
C6406 C 0.61745 0.71251 0.21242 0.0
C6407 C 0.62605 0.70849 0.20752 0.0
C6408 C 0.59848 0.71576 0.21322 0.0
C6409 C 0.59656 0.71377 0.22364 0.0
C6410 C 0.59157 0.72199 0.20764 0.0
C6411 C 0.59343 0.72491 0.19679 0.0
C6412 C 0.60267 0.72978 0.19392 0.0
C6413 C 0.60442 0.73242 0.18367 0.0
C6414 C 0.59694 0.7303 0.17623 0.0
C6415 C 0.58769 0.72556 0.17903 0.0
C6416 C 0.58591 0.72289 0.18927 0.0
C6417 C 0.5641 0.739 0.24104 0.0
C6418 C 0.55427 0.73754 0.23671 0.0
C6419 C 0.57274 0.73459 0.23659 0.0
C6420 C 0.57174 0.72852 0.22775 0.0
C6421 C 0.56195 0.72709 0.22339 0.0
C6422 C 0.55332 0.73152 0.22782 0.0
C6423 C 0.58091 0.72383 0.22293 0.0
C6424 C 0.58285 0.72585 0.21253 0.0
C6425 C 0.58784 0.71764 0.22854 0.0
C6426 C 0.58599 0.71477 0.23939 0.0
C6427 C 0.57675 0.70991 0.24229 0.0
C6428 C 0.57502 0.70729 0.25255 0.0
C6429 C 0.58251 0.70943 0.25997 0.0
C6430 C 0.59175 0.71416 0.25715 0.0
C6431 C 0.59352 0.7168 0.2469 0.0
H6432 H 0.58115 0.7074 0.26791 0.0
H6433 H 0.59831 0.73234 0.1683 0.0
H6434 H 0.32819 0.62646 0.2202 0.0
H6435 H 0.31933 0.61101 0.22622 0.0
H6436 H 0.30086 0.61056 0.19869 0.0
H6437 H 0.30986 0.62593 0.19246 0.0
H6438 H 0.28942 0.6069 0.21626 0.0
H6439 H 0.32011 0.5943 0.20087 0.0
H6440 H 0.33875 0.59343 0.19793 0.0
H6441 H 0.3436 0.58534 0.22952 0.0
H6442 H 0.32499 0.5863 0.23268 0.0
H6443 H 0.26944 0.55651 0.22435 0.0
H6444 H 0.27773 0.57173 0.21703 0.0
H6445 H 0.29958 0.5721 0.242 0.0
H6446 H 0.2917 0.55659 0.24906 0.0
H6447 H 0.30913 0.57569 0.22481 0.0
H6448 H 0.2788 0.58887 0.24057 0.0
H6449 H 0.26024 0.59004 0.24389 0.0
H6450 H 0.25475 0.5973 0.2122 0.0
H6451 H 0.27328 0.59604 0.20866 0.0
C6452 C 0.32233 0.62303 0.21535 0.0
C6453 C 0.31982 0.62742 0.20579 0.0
C6454 C 0.31723 0.61421 0.21884 0.0
C6455 C 0.30951 0.60957 0.21286 0.0
C6456 C 0.3068 0.61402 0.20343 0.0
C6457 C 0.31193 0.62283 0.1999 0.0
C6458 C 0.30434 0.60001 0.21646 0.0
C6459 C 0.29369 0.60002 0.21799 0.0
C6460 C 0.30996 0.59111 0.21892 0.0
C6461 C 0.32116 0.59047 0.21703 0.0
C6462 C 0.32515 0.59241 0.20721 0.0
C6463 C 0.33572 0.59189 0.2055 0.0
C6464 C 0.34236 0.58935 0.21354 0.0
C6465 C 0.33845 0.58731 0.2233 0.0
C6466 C 0.32789 0.58784 0.22505 0.0
C6467 C 0.27608 0.55976 0.22824 0.0
C6468 C 0.27986 0.5553 0.23734 0.0
C6469 C 0.28074 0.56855 0.2241 0.0
C6470 C 0.2892 0.57318 0.22904 0.0
C6471 C 0.29303 0.56871 0.23807 0.0
C6472 C 0.28844 0.55989 0.24217 0.0
C6473 C 0.29418 0.58258 0.22475 0.0
C6474 C 0.30482 0.58255 0.22307 0.0
C6475 C 0.28855 0.59147 0.22221 0.0
C6476 C 0.27741 0.59226 0.22433 0.0
C6477 C 0.27363 0.59064 0.23429 0.0
C6478 C 0.26311 0.59133 0.23622 0.0
C6479 C 0.25632 0.59371 0.22826 0.0
C6480 C 0.26003 0.59544 0.21836 0.0
C6481 C 0.27053 0.59475 0.21639 0.0
H6482 H 0.24818 0.59424 0.22976 0.0
H6483 H 0.35054 0.58895 0.2122 0.0
H6484 H 0.39283 0.32766 0.20922 0.0
H6485 H 0.40762 0.32085 0.21853 0.0
H6486 H 0.40755 0.29446 0.19876 0.0
H6487 H 0.39253 0.30098 0.18973 0.0
H6488 H 0.41055 0.28863 0.21788 0.0
H6489 H 0.42503 0.31469 0.19592 0.0
H6490 H 0.42694 0.33207 0.18864 0.0
H6491 H 0.43426 0.34392 0.21849 0.0
H6492 H 0.43226 0.32662 0.22597 0.0
H6493 H 0.46075 0.27021 0.2271 0.0
H6494 H 0.44542 0.27756 0.21932 0.0
H6495 H 0.44612 0.30192 0.24151 0.0
H6496 H 0.46137 0.2945 0.24951 0.0
H6497 H 0.4426 0.30914 0.22208 0.0
H6498 H 0.42884 0.2828 0.24384 0.0
H6499 H 0.42717 0.26531 0.25093 0.0
H6500 H 0.41866 0.25392 0.22121 0.0
H6501 H 0.42043 0.27132 0.21391 0.0
C6502 C 0.39589 0.32036 0.20691 0.0
C6503 C 0.39148 0.31492 0.19866 0.0
C6504 C 0.40443 0.31652 0.21218 0.0
C6505 C 0.40882 0.30719 0.20927 0.0
C6506 C 0.40435 0.30169 0.20114 0.0
C6507 C 0.39581 0.3055 0.1959 0.0
C6508 C 0.41803 0.3031 0.2147 0.0
C6509 C 0.41759 0.29309 0.21869 0.0
C6510 C 0.42716 0.30898 0.21601 0.0
C6511 C 0.42838 0.31938 0.21152 0.0
C6512 C 0.42696 0.32102 0.20095 0.0
C6513 C 0.42808 0.33085 0.19678 0.0
C6514 C 0.43069 0.3391 0.2031 0.0
C6515 C 0.43222 0.33753 0.2136 0.0
C6516 C 0.4311 0.32771 0.21781 0.0
C6517 C 0.45759 0.27705 0.23044 0.0
C6518 C 0.46231 0.28171 0.239 0.0
C6519 C 0.44883 0.28128 0.22594 0.0
C6520 C 0.44454 0.29024 0.22988 0.0
C6521 C 0.44929 0.295 0.23833 0.0
C6522 C 0.45804 0.29076 0.24287 0.0
C6523 C 0.43514 0.29465 0.22514 0.0
C6524 C 0.43554 0.30472 0.2213 0.0
C6525 C 0.42598 0.28882 0.22394 0.0
C6526 C 0.42486 0.27835 0.22831 0.0
C6527 C 0.42669 0.27655 0.2388 0.0
C6528 C 0.42571 0.26666 0.24286 0.0
C6529 C 0.42283 0.25851 0.23652 0.0
C6530 C 0.4209 0.26024 0.22611 0.0
C6531 C 0.42188 0.27012 0.22201 0.0
H6532 H 0.42208 0.25085 0.23968 0.0
H6533 H 0.43156 0.34671 0.19986 0.0
H6534 H 0.70719 0.39333 0.19218 0.0
H6535 H 0.71616 0.40843 0.199 0.0
H6536 H 0.69702 0.40737 0.22586 0.0
H6537 H 0.68813 0.39223 0.2192 0.0
H6538 H 0.69853 0.42661 0.2182 0.0
H6539 H 0.72178 0.39945 0.22684 0.0
H6540 H 0.73276 0.38465 0.22328 0.0
H6541 H 0.75101 0.40307 0.20281 0.0
H6542 H 0.74004 0.41796 0.20614 0.0
H6543 H 0.72554 0.46069 0.25076 0.0
H6544 H 0.7175 0.44549 0.24321 0.0
H6545 H 0.73845 0.44734 0.21776 0.0
H6546 H 0.74658 0.46257 0.22531 0.0
H6547 H 0.73621 0.42796 0.22389 0.0
H6548 H 0.71343 0.45518 0.21536 0.0
H6549 H 0.7025 0.47008 0.21863 0.0
H6550 H 0.68337 0.45174 0.23837 0.0
H6551 H 0.69427 0.43675 0.23532 0.0
C6552 C 0.70496 0.39623 0.19959 0.0
C6553 C 0.6969 0.39154 0.20511 0.0
C6554 C 0.71009 0.40489 0.20347 0.0
C6555 C 0.70731 0.40902 0.21298 0.0
C6556 C 0.69927 0.40437 0.21849 0.0
C6557 C 0.69417 0.39572 0.21463 0.0
C6558 C 0.71264 0.41826 0.21716 0.0
C6559 C 0.70676 0.42686 0.21956 0.0
C6560 C 0.72341 0.41872 0.21865 0.0
C6561 C 0.73002 0.40979 0.21666 0.0
C6562 C 0.72808 0.40032 0.22152 0.0
C6563 C 0.73431 0.39192 0.21955 0.0
C6564 C 0.74256 0.39291 0.2128 0.0
C6565 C 0.74461 0.40231 0.20802 0.0
C6566 C 0.73839 0.41074 0.20995 0.0
C6567 C 0.7284 0.45791 0.24352 0.0
C6568 C 0.73667 0.4629 0.23861 0.0
C6569 C 0.72379 0.4492 0.2392 0.0
C6570 C 0.72725 0.44534 0.22982 0.0
C6571 C 0.73563 0.45018 0.22499 0.0
C6572 C 0.74029 0.45887 0.22934 0.0
C6573 C 0.72209 0.43628 0.22504 0.0
C6574 C 0.72799 0.42773 0.22251 0.0
C6575 C 0.71133 0.43588 0.22337 0.0
C6576 C 0.70473 0.44487 0.22518 0.0
C6577 C 0.70694 0.45434 0.22045 0.0
C6578 C 0.70074 0.4628 0.22226 0.0
C6579 C 0.69226 0.46186 0.22872 0.0
C6580 C 0.68995 0.45246 0.23337 0.0
C6581 C 0.69613 0.44397 0.2316 0.0
H6582 H 0.68747 0.46842 0.23011 0.0
H6583 H 0.74737 0.3864 0.21129 0.0
H6584 H 0.63462 0.2994 0.81448 0.0
H6585 H 0.61924 0.29318 0.8055 0.0
H6586 H 0.60206 0.31847 0.81742 0.0
H6587 H 0.61739 0.32466 0.82656 0.0
H6588 H 0.59173 0.30019 0.8195 0.0
H6589 H 0.60922 0.31862 0.79283 0.0
H6590 H 0.62385 0.3233 0.78177 0.0
H6591 H 0.62465 0.29257 0.77023 0.0
H6592 H 0.61011 0.28767 0.78133 0.0
H6593 H 0.54746 0.29322 0.78842 0.0
H6594 H 0.56284 0.30042 0.79654 0.0
H6595 H 0.58099 0.27635 0.78356 0.0
H6596 H 0.56569 0.26932 0.77508 0.0
H6597 H 0.59079 0.29437 0.78195 0.0
H6598 H 0.57373 0.27574 0.8088 0.0
H6599 H 0.55923 0.27083 0.81994 0.0
H6600 H 0.55781 0.30161 0.83127 0.0
H6601 H 0.57222 0.30674 0.82008 0.0
C6602 C 0.62756 0.30362 0.81521 0.0
C6603 C 0.62722 0.31252 0.82123 0.0
C6604 C 0.6188 0.3001 0.81001 0.0
C6605 C 0.60952 0.30541 0.81073 0.0
C6606 C 0.60915 0.31428 0.81674 0.0
C6607 C 0.61793 0.31784 0.82189 0.0
C6608 C 0.60015 0.30154 0.80539 0.0
C6609 C 0.59147 0.29906 0.81127 0.0
C6610 C 0.5999 0.29983 0.79469 0.0
C6611 C 0.60864 0.30275 0.78799 0.0
C6612 C 0.61257 0.31284 0.788 0.0
C6613 C 0.62084 0.31553 0.78171 0.0
C6614 C 0.62519 0.30823 0.77532 0.0
C6615 C 0.62128 0.29822 0.77519 0.0
C6616 C 0.61302 0.29548 0.78148 0.0
C6617 C 0.55474 0.28951 0.78718 0.0
C6618 C 0.55532 0.28067 0.7811 0.0
C6619 C 0.56352 0.29358 0.79193 0.0
C6620 C 0.57306 0.28885 0.79078 0.0
C6621 C 0.57371 0.28011 0.7846 0.0
C6622 C 0.56493 0.27605 0.77983 0.0
C6623 C 0.58237 0.29299 0.79606 0.0
C6624 C 0.59104 0.29552 0.79018 0.0
C6625 C 0.58263 0.29471 0.80677 0.0
C6626 C 0.57398 0.29165 0.81352 0.0
C6627 C 0.57027 0.28148 0.8136 0.0
C6628 C 0.56208 0.27866 0.81994 0.0
C6629 C 0.55758 0.28591 0.82629 0.0
C6630 C 0.56129 0.296 0.82633 0.0
C6631 C 0.56947 0.29887 0.82 0.0
H6632 H 0.55124 0.28371 0.83119 0.0
H6633 H 0.63159 0.31033 0.77045 0.0
H6634 H 0.71404 0.62073 0.83188 0.0
H6635 H 0.72052 0.60576 0.82299 0.0
H6636 H 0.70085 0.61229 0.79715 0.0
H6637 H 0.69439 0.62743 0.80595 0.0
H6638 H 0.70074 0.59176 0.8021 0.0
H6639 H 0.72601 0.61806 0.79587 0.0
H6640 H 0.73824 0.63181 0.80065 0.0
H6641 H 0.75543 0.61052 0.81891 0.0
H6642 H 0.74321 0.59667 0.81435 0.0
H6643 H 0.72512 0.55666 0.76872 0.0
H6644 H 0.71798 0.57205 0.77633 0.0
H6645 H 0.73901 0.56938 0.80183 0.0
H6646 H 0.74658 0.55435 0.794 0.0
H6647 H 0.73814 0.58845 0.79624 0.0
H6648 H 0.71277 0.56234 0.80325 0.0
H6649 H 0.70047 0.54847 0.79899 0.0
H6650 H 0.68345 0.56912 0.77985 0.0
H6651 H 0.69573 0.58308 0.7839 0.0
C6652 C 0.71114 0.61907 0.82426 0.0
C6653 C 0.70376 0.62539 0.81961 0.0
C6654 C 0.71484 0.61047 0.8192 0.0
C6655 C 0.71128 0.60796 0.80933 0.0
C6656 C 0.70372 0.61407 0.80475 0.0
C6657 C 0.70002 0.62272 0.80981 0.0
C6658 C 0.71556 0.59902 0.80382 0.0
C6659 C 0.7089 0.5911 0.80067 0.0
C6660 C 0.72624 0.59804 0.80214 0.0
C6661 C 0.73364 0.60634 0.80483 0.0
C6662 C 0.73236 0.61632 0.80096 0.0
C6663 C 0.73929 0.62413 0.80362 0.0
C6664 C 0.7476 0.62204 0.8101 0.0
C6665 C 0.74899 0.61213 0.8139 0.0
C6666 C 0.74207 0.60429 0.81127 0.0
C6667 C 0.72833 0.5594 0.77589 0.0
C6668 C 0.73643 0.55418 0.78074 0.0
C6669 C 0.72413 0.56815 0.78031 0.0
C6670 C 0.72782 0.57183 0.78976 0.0
C6671 C 0.73597 0.5667 0.79457 0.0
C6672 C 0.74022 0.55801 0.79012 0.0
C6673 C 0.72334 0.58107 0.79462 0.0
C6674 C 0.72997 0.58909 0.79762 0.0
C6675 C 0.71264 0.5821 0.79622 0.0
C6676 C 0.70523 0.57372 0.79379 0.0
C6677 C 0.70645 0.5639 0.79807 0.0
C6678 C 0.69947 0.55603 0.79571 0.0
C6679 C 0.6912 0.55791 0.78913 0.0
C6680 C 0.68987 0.56768 0.78493 0.0
C6681 C 0.69683 0.57557 0.78726 0.0
H6682 H 0.6858 0.55181 0.7873 0.0
H6683 H 0.75296 0.6281 0.81215 0.0
H6684 H 0.40145 0.68749 0.82114 0.0
H6685 H 0.41651 0.6965 0.8143 0.0
H6686 H 0.39717 0.72071 0.80306 0.0
H6687 H 0.38203 0.71163 0.80972 0.0
H6688 H 0.41083 0.71476 0.78865 0.0
H6689 H 0.41209 0.72445 0.82399 0.0
H6690 H 0.41219 0.72164 0.84269 0.0
H6691 H 0.43976 0.70415 0.84027 0.0
H6692 H 0.43975 0.70674 0.82152 0.0
H6693 H 0.45167 0.74899 0.77575 0.0
H6694 H 0.4363 0.74137 0.78346 0.0
H6695 H 0.45455 0.71716 0.79645 0.0
H6696 H 0.47001 0.72495 0.7891 0.0
H6697 H 0.44113 0.72373 0.81015 0.0
H6698 H 0.43957 0.7134 0.77488 0.0
H6699 H 0.43952 0.716 0.75614 0.0
H6700 H 0.41255 0.73441 0.75841 0.0
H6701 H 0.41253 0.73204 0.77719 0.0
C6702 C 0.40039 0.69472 0.81719 0.0
C6703 C 0.39052 0.69884 0.81598 0.0
C6704 C 0.40903 0.69991 0.81336 0.0
C6705 C 0.40799 0.70933 0.80824 0.0
C6706 C 0.39816 0.71347 0.80701 0.0
C6707 C 0.38952 0.70831 0.81089 0.0
C6708 C 0.41715 0.71473 0.80394 0.0
C6709 C 0.41739 0.71687 0.79338 0.0
C6710 C 0.42582 0.71727 0.81006 0.0
C6711 C 0.42586 0.71571 0.82133 0.0
C6712 C 0.41812 0.71993 0.82743 0.0
C6713 C 0.41818 0.7184 0.83805 0.0
C6714 C 0.42596 0.7127 0.84267 0.0
C6715 C 0.43373 0.70855 0.83668 0.0
C6716 C 0.43371 0.71006 0.82606 0.0
C6717 C 0.45244 0.74211 0.78033 0.0
C6718 C 0.4621 0.73757 0.78175 0.0
C6719 C 0.44362 0.73769 0.78466 0.0
C6720 C 0.44423 0.7286 0.79044 0.0
C6721 C 0.45387 0.72415 0.792 0.0
C6722 C 0.4627 0.72857 0.78769 0.0
C6723 C 0.43483 0.72371 0.79485 0.0
C6724 C 0.43455 0.72166 0.80542 0.0
C6725 C 0.42613 0.72122 0.78874 0.0
C6726 C 0.42611 0.72263 0.77745 0.0
C6727 C 0.43368 0.71807 0.77139 0.0
C6728 C 0.43365 0.71949 0.76076 0.0
C6729 C 0.42605 0.72539 0.75609 0.0
C6730 C 0.41844 0.72986 0.76204 0.0
C6731 C 0.41844 0.72848 0.77268 0.0
H6732 H 0.42604 0.72648 0.74786 0.0
H6733 H 0.42599 0.71152 0.85089 0.0
H6734 H 0.30744 0.3845 0.80877 0.0
H6735 H 0.29838 0.39949 0.80217 0.0
H6736 H 0.32256 0.41921 0.8137 0.0
H6737 H 0.33154 0.40429 0.82052 0.0
H6738 H 0.30386 0.42719 0.8174 0.0
H6739 H 0.32134 0.41297 0.78846 0.0
H6740 H 0.326 0.39938 0.77634 0.0
H6741 H 0.29443 0.39601 0.76722 0.0
H6742 H 0.28955 0.4095 0.77939 0.0
H6743 H 0.2939 0.47232 0.7888 0.0
H6744 H 0.3016 0.45698 0.79619 0.0
H6745 H 0.27738 0.43838 0.78301 0.0
H6746 H 0.26983 0.45366 0.77527 0.0
H6747 H 0.29542 0.42952 0.78033 0.0
H6748 H 0.27793 0.44411 0.80879 0.0
H6749 H 0.27317 0.45766 0.82091 0.0
H6750 H 0.30451 0.46027 0.83103 0.0
H6751 H 0.30948 0.44683 0.81886 0.0
C6752 C 0.31077 0.39203 0.81002 0.0
C6753 C 0.32026 0.39317 0.81513 0.0
C6754 C 0.30562 0.4006 0.80616 0.0
C6755 C 0.30985 0.41049 0.80731 0.0
C6756 C 0.31916 0.41167 0.81266 0.0
C6757 C 0.32433 0.40311 0.81649 0.0
C6758 C 0.30466 0.4196 0.80282 0.0
C6759 C 0.30211 0.42775 0.80928 0.0
C6760 C 0.30215 0.42025 0.79226 0.0
C6761 C 0.30507 0.41216 0.78491 0.0
C6762 C 0.31538 0.40927 0.78393 0.0
C6763 C 0.31806 0.4016 0.77704 0.0
C6764 C 0.31051 0.39681 0.77103 0.0
C6765 C 0.30026 0.39971 0.77189 0.0
C6766 C 0.29754 0.40737 0.77877 0.0
C6767 C 0.29024 0.46496 0.78739 0.0
C6768 C 0.28122 0.46426 0.78143 0.0
C6769 C 0.2946 0.45619 0.79172 0.0
C6770 C 0.29001 0.4465 0.79029 0.0
C6771 C 0.28105 0.44576 0.78428 0.0
C6772 C 0.27669 0.45453 0.77993 0.0
C6773 C 0.29465 0.43715 0.79491 0.0
C6774 C 0.29711 0.42896 0.78847 0.0
C6775 C 0.29706 0.43645 0.8055 0.0
C6776 C 0.29409 0.44452 0.81284 0.0
C6777 C 0.28382 0.44763 0.81354 0.0
C6778 C 0.28108 0.45528 0.82043 0.0
C6779 C 0.28853 0.45984 0.82672 0.0
C6780 C 0.29874 0.45674 0.82615 0.0
C6781 C 0.30152 0.4491 0.81926 0.0
H6782 H 0.2864 0.46576 0.83205 0.0
H6783 H 0.31261 0.39087 0.7657 0.0
H6784 H 0.69015 0.61591 0.19477 0.0
H6785 H 0.69869 0.60057 0.20129 0.0
H6786 H 0.71624 0.61912 0.22247 0.0
H6787 H 0.70787 0.63451 0.21588 0.0
H6788 H 0.72811 0.60461 0.21317 0.0
H6789 H 0.6957 0.60571 0.23072 0.0
H6790 H 0.67685 0.60663 0.23185 0.0
H6791 H 0.67383 0.57876 0.21468 0.0
H6792 H 0.69268 0.57776 0.21333 0.0
H6793 H 0.74582 0.56537 0.24648 0.0
H6794 H 0.73792 0.58062 0.23904 0.0
H6795 H 0.7179 0.56144 0.22072 0.0
H6796 H 0.72563 0.54617 0.22832 0.0
H6797 H 0.70729 0.57626 0.22816 0.0
H6798 H 0.73937 0.57476 0.21057 0.0
H6799 H 0.75817 0.57368 0.20893 0.0
H6800 H 0.76186 0.60194 0.22532 0.0
H6801 H 0.74308 0.60312 0.22718 0.0
C6802 C 0.69592 0.61674 0.20074 0.0
C6803 C 0.69829 0.62645 0.20483 0.0
C6804 C 0.70073 0.60795 0.20451 0.0
C6805 C 0.70803 0.60867 0.21246 0.0
C6806 C 0.71061 0.61837 0.21637 0.0
C6807 C 0.70576 0.62715 0.21264 0.0
C6808 C 0.71285 0.5993 0.2168 0.0
C6809 C 0.72358 0.59845 0.21656 0.0
C6810 C 0.70692 0.59115 0.22098 0.0
C6811 C 0.6956 0.59172 0.22184 0.0
C6812 C 0.69102 0.59982 0.22712 0.0
C6813 C 0.68033 0.60035 0.22781 0.0
C6814 C 0.67415 0.59277 0.22331 0.0
C6815 C 0.67863 0.58463 0.21814 0.0
C6816 C 0.68932 0.58408 0.21742 0.0
C6817 C 0.73978 0.56441 0.24081 0.0
C6818 C 0.73637 0.55456 0.23797 0.0
C6819 C 0.73528 0.57314 0.23653 0.0
C6820 C 0.7274 0.57223 0.22917 0.0
C6821 C 0.72396 0.56238 0.22637 0.0
C6822 C 0.72838 0.55365 0.23073 0.0
C6823 C 0.7226 0.58152 0.22454 0.0
C6824 C 0.71186 0.58237 0.22474 0.0
C6825 C 0.72852 0.58964 0.22024 0.0
C6826 C 0.73982 0.58897 0.2191 0.0
C6827 C 0.74419 0.5807 0.21389 0.0
C6828 C 0.75484 0.58008 0.21291 0.0
C6829 C 0.76121 0.58772 0.21704 0.0
C6830 C 0.75692 0.59602 0.22213 0.0
C6831 C 0.74627 0.59667 0.22315 0.0
H6832 H 0.76945 0.58722 0.21627 0.0
H6833 H 0.66587 0.5932 0.22386 0.0
H6834 H 0.70741 0.39243 0.82597 0.0
H6835 H 0.71656 0.40731 0.81894 0.0
H6836 H 0.69675 0.40682 0.79233 0.0
H6837 H 0.6879 0.39166 0.79906 0.0
H6838 H 0.71584 0.41022 0.78666 0.0
H6839 H 0.69361 0.42416 0.81224 0.0
H6840 H 0.68623 0.42587 0.82951 0.0
H6841 H 0.71597 0.43369 0.8417 0.0
H6842 H 0.72356 0.43189 0.82452 0.0
H6843 H 0.72462 0.46079 0.76807 0.0
H6844 H 0.71697 0.4452 0.77529 0.0
H6845 H 0.73921 0.44575 0.79989 0.0
H6846 H 0.74707 0.46124 0.7926 0.0
H6847 H 0.71966 0.44217 0.80685 0.0
H6848 H 0.74168 0.4289 0.78093 0.0
H6849 H 0.74883 0.42749 0.76354 0.0
H6850 H 0.71917 0.41865 0.75184 0.0
H6851 H 0.71181 0.42015 0.76914 0.0
C6852 C 0.70506 0.39541 0.81857 0.0
C6853 C 0.69686 0.39085 0.81312 0.0
C6854 C 0.71024 0.404 0.81461 0.0
C6855 C 0.70726 0.40829 0.80517 0.0
C6856 C 0.69917 0.40368 0.79965 0.0
C6857 C 0.69404 0.39506 0.80357 0.0
C6858 C 0.71254 0.41758 0.801 0.0
C6859 C 0.71656 0.41724 0.79104 0.0
C6860 C 0.71372 0.42668 0.80678 0.0
C6861 C 0.70917 0.42779 0.81711 0.0
C6862 C 0.69859 0.42617 0.81862 0.0
C6863 C 0.69436 0.42717 0.82839 0.0
C6864 C 0.70063 0.42986 0.8367 0.0
C6865 C 0.71113 0.43159 0.83525 0.0
C6866 C 0.7154 0.43059 0.8255 0.0
C6867 C 0.72799 0.45754 0.77493 0.0
C6868 C 0.7365 0.46229 0.77972 0.0
C6869 C 0.72357 0.44864 0.77908 0.0
C6870 C 0.72757 0.44427 0.78809 0.0
C6871 C 0.73599 0.44901 0.79294 0.0
C6872 C 0.74045 0.45789 0.78878 0.0
C6873 C 0.72286 0.43482 0.7925 0.0
C6874 C 0.71896 0.43513 0.8025 0.0
C6875 C 0.72175 0.42571 0.78673 0.0
C6876 C 0.72617 0.42473 0.77632 0.0
C6877 C 0.73666 0.42674 0.77464 0.0
C6878 C 0.74076 0.42591 0.7648 0.0
C6879 C 0.73445 0.42301 0.75658 0.0
C6880 C 0.72404 0.4209 0.7582 0.0
C6881 C 0.71991 0.42174 0.76803 0.0
H6882 H 0.73764 0.42237 0.74897 0.0
H6883 H 0.69734 0.43063 0.84426 0.0
H6884 H 0.62666 0.70928 0.82367 0.0
H6885 H 0.61134 0.71802 0.81736 0.0
H6886 H 0.6072 0.69492 0.79414 0.0
H6887 H 0.62236 0.68605 0.80048 0.0
H6888 H 0.60511 0.71395 0.78617 0.0
H6889 H 0.59209 0.69521 0.81531 0.0
H6890 H 0.59155 0.68985 0.83346 0.0
H6891 H 0.58673 0.72099 0.84254 0.0
H6892 H 0.58738 0.72656 0.82444 0.0
H6893 H 0.55459 0.72438 0.76956 0.0
H6894 H 0.56989 0.71639 0.77673 0.0
H6895 H 0.57158 0.73957 0.80014 0.0
H6896 H 0.55601 0.74738 0.79326 0.0
H6897 H 0.57524 0.72126 0.80828 0.0
H6898 H 0.58779 0.74009 0.77935 0.0
H6899 H 0.58841 0.7457 0.76128 0.0
H6900 H 0.59439 0.71487 0.75189 0.0
H6901 H 0.59366 0.70905 0.7699 0.0
C6902 C 0.62243 0.70598 0.8173 0.0
C6903 C 0.6258 0.69695 0.81259 0.0
C6904 C 0.61367 0.71102 0.81368 0.0
C6905 C 0.60807 0.70711 0.80529 0.0
C6906 C 0.61141 0.69812 0.80058 0.0
C6907 C 0.62013 0.69307 0.8042 0.0
C6908 C 0.59879 0.71242 0.80133 0.0
C6909 C 0.59853 0.71544 0.79098 0.0
C6910 C 0.59031 0.71465 0.80766 0.0
C6911 C 0.5899 0.71131 0.81853 0.0
C6912 C 0.591 0.70093 0.82119 0.0
C6913 C 0.59066 0.69785 0.83146 0.0
C6914 C 0.58914 0.70508 0.83915 0.0
C6915 C 0.58793 0.7154 0.83658 0.0
C6916 C 0.58827 0.71852 0.82631 0.0
C6917 C 0.55814 0.72774 0.7763 0.0
C6918 C 0.55404 0.73656 0.78081 0.0
C6919 C 0.56697 0.72321 0.78033 0.0
C6920 C 0.572 0.72744 0.7889 0.0
C6921 C 0.56788 0.73618 0.7935 0.0
C6922 C 0.55902 0.7407 0.78948 0.0
C6923 C 0.58152 0.72271 0.79309 0.0
C6924 C 0.58183 0.71981 0.80348 0.0
C6925 C 0.59008 0.72064 0.78681 0.0
C6926 C 0.59057 0.72412 0.77597 0.0
C6927 C 0.58916 0.73449 0.77343 0.0
C6928 C 0.58954 0.73771 0.7632 0.0
C6929 C 0.59141 0.73064 0.75544 0.0
C6930 C 0.59293 0.72034 0.75791 0.0
C6931 C 0.59254 0.71708 0.76813 0.0
H6932 H 0.59171 0.73315 0.74753 0.0
H6933 H 0.58887 0.70269 0.8471 0.0
H6934 H 0.31997 0.63083 0.80807 0.0
H6935 H 0.31399 0.61539 0.7992 0.0
H6936 H 0.29618 0.60665 0.82568 0.0
H6937 H 0.30246 0.62181 0.83474 0.0
H6938 H 0.30542 0.59048 0.8183 0.0
H6939 H 0.2851 0.61752 0.80399 0.0
H6940 H 0.28203 0.6341 0.79544 0.0
H6941 H 0.2984 0.62399 0.76894 0.0
H6942 H 0.3017 0.60739 0.77739 0.0
H6943 H 0.27098 0.55455 0.79552 0.0
H6944 H 0.27831 0.56982 0.80371 0.0
H6945 H 0.2978 0.57499 0.77753 0.0
H6946 H 0.29043 0.55974 0.76924 0.0
H6947 H 0.28841 0.59279 0.78425 0.0
H6948 H 0.30801 0.56535 0.79858 0.0
H6949 H 0.31062 0.54874 0.80723 0.0
H6950 H 0.29502 0.55966 0.83387 0.0
H6951 H 0.29219 0.5763 0.82532 0.0
C6952 C 0.31487 0.62557 0.81205 0.0
C6953 C 0.31166 0.62763 0.82212 0.0
C6954 C 0.31137 0.61679 0.80693 0.0
C6955 C 0.3045 0.6099 0.8117 0.0
C6956 C 0.30143 0.61185 0.8218 0.0
C6957 C 0.30495 0.6206 0.82694 0.0
C6958 C 0.30051 0.60067 0.80623 0.0
C6959 C 0.3016 0.59102 0.81091 0.0
C6960 C 0.29572 0.60129 0.79647 0.0
C6961 C 0.29374 0.61126 0.79137 0.0
C6962 C 0.28812 0.61887 0.79637 0.0
C6963 C 0.28632 0.62826 0.79154 0.0
C6964 C 0.29004 0.63011 0.78167 0.0
C6965 C 0.29554 0.62256 0.77659 0.0
C6966 C 0.29737 0.61315 0.7814 0.0
C6967 C 0.27678 0.55898 0.79147 0.0
C6968 C 0.28013 0.55593 0.78173 0.0
C6969 C 0.28101 0.56766 0.7962 0.0
C6970 C 0.28867 0.57351 0.79127 0.0
C6971 C 0.29193 0.57058 0.78148 0.0
C6972 C 0.28776 0.56183 0.77679 0.0
C6973 C 0.29325 0.58266 0.79637 0.0
C6974 C 0.29227 0.59228 0.79162 0.0
C6975 C 0.29808 0.58202 0.80609 0.0
C6976 C 0.2998 0.57204 0.81127 0.0
C6977 C 0.30506 0.56418 0.80625 0.0
C6978 C 0.30659 0.55477 0.81114 0.0
C6979 C 0.30297 0.55314 0.82108 0.0
C6980 C 0.29782 0.56093 0.82616 0.0
C6981 C 0.29625 0.57036 0.8213 0.0
H6982 H 0.30416 0.54584 0.82486 0.0
H6983 H 0.28864 0.63739 0.77793 0.0
H6984 H 0.40411 0.32462 0.82726 0.0
H6985 H 0.41896 0.31768 0.81838 0.0
H6986 H 0.39884 0.29888 0.79981 0.0
H6987 H 0.38395 0.30564 0.8088 0.0
H6988 H 0.4149 0.28801 0.80735 0.0
H6989 H 0.41041 0.31999 0.78972 0.0
H6990 H 0.40841 0.3387 0.78826 0.0
H6991 H 0.43788 0.34339 0.80248 0.0
H6992 H 0.44 0.3247 0.80416 0.0
H6993 H 0.45277 0.27176 0.77224 0.0
H6994 H 0.43753 0.27923 0.77995 0.0
H6995 H 0.45679 0.30014 0.79716 0.0
H6996 H 0.47204 0.29279 0.78934 0.0
H6997 H 0.44088 0.30999 0.78998 0.0
H6998 H 0.44532 0.27833 0.8082 0.0
H6999 H 0.44748 0.25967 0.81008 0.0
H7000 H 0.41835 0.25441 0.79533 0.0
H7001 H 0.41608 0.27304 0.79324 0.0
C7002 C 0.40284 0.31899 0.8213 0.0
C7003 C 0.39282 0.31569 0.81875 0.0
C7004 C 0.41134 0.31509 0.81617 0.0
C7005 C 0.41003 0.30781 0.80836 0.0
C7006 C 0.40005 0.30451 0.80578 0.0
C7007 C 0.39153 0.30845 0.81088 0.0
C7008 C 0.41909 0.30344 0.80308 0.0
C7009 C 0.4205 0.2928 0.80341 0.0
C7010 C 0.42656 0.30971 0.79818 0.0
C7011 C 0.42532 0.32095 0.79716 0.0
C7012 C 0.41643 0.32501 0.79262 0.0
C7013 C 0.41528 0.33562 0.79173 0.0
C7014 C 0.423 0.34223 0.7953 0.0
C7015 C 0.4319 0.33826 0.79973 0.0
C7016 C 0.43308 0.32766 0.80064 0.0
C7017 C 0.45376 0.27791 0.77771 0.0
C7018 C 0.46363 0.28164 0.7802 0.0
C7019 C 0.44503 0.28218 0.78213 0.0
C7020 C 0.44598 0.29017 0.78928 0.0
C7021 C 0.45583 0.29399 0.79167 0.0
C7022 C 0.46455 0.28979 0.78718 0.0
C7023 C 0.43672 0.29453 0.79426 0.0
C7024 C 0.43528 0.30518 0.79389 0.0
C7025 C 0.42925 0.28828 0.79919 0.0
C7026 C 0.43058 0.27708 0.80048 0.0
C7027 C 0.43941 0.27319 0.80529 0.0
C7028 C 0.44065 0.26262 0.80641 0.0
C7029 C 0.43307 0.25586 0.8028 0.0
C7030 C 0.42422 0.25965 0.79811 0.0
C7031 C 0.42295 0.27022 0.79696 0.0
H7032 H 0.43404 0.24768 0.80367 0.0
H7033 H 0.4221 0.35044 0.7946 0.0
H7034 H 0.33349 0.39891 0.21321 0.0
H7035 H 0.32469 0.41392 0.21971 0.0
H7036 H 0.29699 0.4045 0.20397 0.0
H7037 H 0.30572 0.38934 0.19751 0.0
H7038 H 0.30072 0.42516 0.2019 0.0
H7039 H 0.2993 0.40066 0.22946 0.0
H7040 H 0.30647 0.38829 0.24184 0.0
H7041 H 0.32539 0.41204 0.25497 0.0
H7042 H 0.31844 0.42453 0.24257 0.0
H7043 H 0.26797 0.45963 0.22788 0.0
H7044 H 0.27595 0.44441 0.22069 0.0
H7045 H 0.3033 0.45047 0.23858 0.0
H7046 H 0.29522 0.46552 0.24599 0.0
H7047 H 0.29923 0.4311 0.2394 0.0
H7048 H 0.30131 0.45553 0.21182 0.0
H7049 H 0.29466 0.46806 0.1993 0.0
H7050 H 0.27516 0.44484 0.18607 0.0
H7051 H 0.2816 0.4322 0.1986 0.0
C7052 C 0.32549 0.39996 0.21119 0.0
C7053 C 0.3203 0.39282 0.20491 0.0
C7054 C 0.32048 0.40858 0.21489 0.0
C7055 C 0.31013 0.41028 0.21246 0.0
C7056 C 0.30498 0.40335 0.20597 0.0
C7057 C 0.30999 0.39469 0.20225 0.0
C7058 C 0.30469 0.41924 0.21681 0.0
C7059 C 0.30026 0.4264 0.2101 0.0
C7060 C 0.30429 0.42098 0.22751 0.0
C7061 C 0.30841 0.41351 0.23503 0.0
C7062 C 0.30504 0.40323 0.23494 0.0
C7063 C 0.30906 0.3962 0.24197 0.0
C7064 C 0.3164 0.39937 0.24917 0.0
C7065 C 0.31971 0.40959 0.24938 0.0
C7066 C 0.31573 0.41665 0.24236 0.0
C7067 C 0.2757 0.45774 0.23023 0.0
C7068 C 0.28097 0.4638 0.23749 0.0
C7069 C 0.28028 0.44905 0.22609 0.0
C7070 C 0.29032 0.44633 0.22895 0.0
C7071 C 0.29556 0.45236 0.23624 0.0
C7072 C 0.29093 0.46097 0.24048 0.0
C7073 C 0.29532 0.43714 0.22449 0.0
C7074 C 0.29966 0.4299 0.23119 0.0
C7075 C 0.29571 0.43537 0.21378 0.0
C7076 C 0.29186 0.44295 0.20621 0.0
C7077 C 0.29555 0.45312 0.20629 0.0
C7078 C 0.29183 0.46024 0.19918 0.0
C7079 C 0.28447 0.45726 0.19192 0.0
C7080 C 0.28085 0.44714 0.19172 0.0
C7081 C 0.28453 0.43999 0.19881 0.0
H7082 H 0.2816 0.46278 0.18642 0.0
H7083 H 0.3195 0.39392 0.25461 0.0
H7084 H 0.6198 0.30427 0.18537 0.0
H7085 H 0.60451 0.29808 0.19426 0.0
H7086 H 0.61416 0.31409 0.22158 0.0
H7087 H 0.62975 0.32 0.21282 0.0
H7088 H 0.60727 0.29545 0.2264 0.0
H7089 H 0.59469 0.3232 0.20628 0.0
H7090 H 0.59188 0.33356 0.19068 0.0
H7091 H 0.57585 0.30831 0.17661 0.0
H7092 H 0.57869 0.29775 0.19208 0.0
H7093 H 0.5583 0.29037 0.25085 0.0
H7094 H 0.5737 0.29759 0.2427 0.0
H7095 H 0.56764 0.27942 0.21577 0.0
H7096 H 0.55222 0.27219 0.22387 0.0
H7097 H 0.57257 0.29992 0.21129 0.0
H7098 H 0.58578 0.27215 0.23169 0.0
H7099 H 0.5884 0.26227 0.24763 0.0
H7100 H 0.60303 0.28838 0.2616 0.0
H7101 H 0.60036 0.29847 0.24578 0.0
C7102 C 0.61875 0.30641 0.1933 0.0
C7103 C 0.62605 0.31263 0.19837 0.0
C7104 C 0.60991 0.30296 0.19835 0.0
C7105 C 0.60808 0.30572 0.20856 0.0
C7106 C 0.61537 0.31189 0.21368 0.0
C7107 C 0.62424 0.31534 0.20863 0.0
C7108 C 0.59865 0.30202 0.21391 0.0
C7109 C 0.59967 0.29658 0.22317 0.0
C7110 C 0.58872 0.30333 0.20964 0.0
C7111 C 0.58699 0.30965 0.20031 0.0
C7112 C 0.59064 0.31983 0.19983 0.0
C7113 C 0.58903 0.32574 0.19101 0.0
C7114 C 0.58371 0.32159 0.18265 0.0
C7115 C 0.57998 0.31152 0.18309 0.0
C7116 C 0.58158 0.30556 0.19189 0.0
C7117 C 0.56023 0.28795 0.24318 0.0
C7118 C 0.55406 0.28069 0.23801 0.0
C7119 C 0.56906 0.29203 0.23855 0.0
C7120 C 0.57185 0.289 0.22864 0.0
C7121 C 0.56564 0.28186 0.22342 0.0
C7122 C 0.55688 0.27768 0.22808 0.0
C7123 C 0.58123 0.2933 0.2237 0.0
C7124 C 0.58017 0.29885 0.21452 0.0
C7125 C 0.59111 0.29217 0.22809 0.0
C7126 C 0.59276 0.2861 0.23759 0.0
C7127 C 0.58947 0.27581 0.23819 0.0
C7128 C 0.59098 0.27017 0.2472 0.0
C7129 C 0.59585 0.2747 0.25563 0.0
C7130 C 0.59925 0.28488 0.25506 0.0
C7131 C 0.59774 0.29057 0.24608 0.0
H7132 H 0.59702 0.27032 0.2626 0.0
H7133 H 0.58247 0.32618 0.17583 0.0
H7134 H 0.40145 0.70177 0.18545 0.0
H7135 H 0.41664 0.70845 0.19441 0.0
H7136 H 0.39786 0.71673 0.22013 0.0
H7137 H 0.38259 0.71022 0.21113 0.0
H7138 H 0.41107 0.73221 0.21455 0.0
H7139 H 0.41309 0.69627 0.22183 0.0
H7140 H 0.41339 0.67787 0.2177 0.0
H7141 H 0.44045 0.68266 0.19955 0.0
H7142 H 0.44022 0.70113 0.20346 0.0
H7143 H 0.45242 0.74407 0.24827 0.0
H7144 H 0.437 0.73647 0.24059 0.0
H7145 H 0.45496 0.72545 0.21534 0.0
H7146 H 0.4705 0.73258 0.22323 0.0
H7147 H 0.44185 0.71114 0.22122 0.0
H7148 H 0.4396 0.747 0.21324 0.0
H7149 H 0.43935 0.76548 0.21703 0.0
H7150 H 0.41284 0.76098 0.23602 0.0
H7151 H 0.41301 0.74244 0.23245 0.0
C7152 C 0.40055 0.70503 0.193 0.0
C7153 C 0.39082 0.70546 0.19758 0.0
C7154 C 0.40925 0.70878 0.19815 0.0
C7155 C 0.4084 0.71302 0.20797 0.0
C7156 C 0.3987 0.71347 0.21256 0.0
C7157 C 0.39 0.70967 0.20744 0.0
C7158 C 0.41761 0.71721 0.21335 0.0
C7159 C 0.41775 0.72757 0.21616 0.0
C7160 C 0.42641 0.71121 0.21521 0.0
C7161 C 0.42658 0.7001 0.21286 0.0
C7162 C 0.41906 0.69342 0.21689 0.0
C7163 C 0.41922 0.68297 0.2146 0.0
C7164 C 0.42692 0.6791 0.20834 0.0
C7165 C 0.43448 0.68567 0.20438 0.0
C7166 C 0.43434 0.69613 0.20664 0.0
C7167 C 0.45312 0.73993 0.24115 0.0
C7168 C 0.46273 0.73899 0.23636 0.0
C7169 C 0.44427 0.73569 0.23669 0.0
C7170 C 0.44478 0.73051 0.22729 0.0
C7171 C 0.45436 0.72945 0.22257 0.0
C7172 C 0.46323 0.73363 0.22704 0.0
C7173 C 0.43535 0.72618 0.22238 0.0
C7174 C 0.43517 0.71579 0.21965 0.0
C7175 C 0.42652 0.73217 0.22054 0.0
C7176 C 0.42638 0.74332 0.22266 0.0
C7177 C 0.43376 0.74994 0.21828 0.0
C7178 C 0.43363 0.76043 0.22038 0.0
C7179 C 0.4261 0.7644 0.22678 0.0
C7180 C 0.41868 0.75789 0.23107 0.0
C7181 C 0.41878 0.74739 0.22901 0.0
H7182 H 0.42601 0.77252 0.2284 0.0
H7183 H 0.42704 0.67101 0.20658 0.0
loop_
_geom_bond_atom_site_label_1
_geom_bond_atom_site_label_2
_geom_bond_distance
_geom_bond_site_symmetry_2
_ccdc_geom_bond_type
C0 C1 1.264 . S
C0 C5 1.479 . S
C0 C10 1.465 . S
C1 C0 1.264 . S
C1 C3 1.339 . S
C1 H28 0.931 . S
C2 C3 1.395 . S
C2 C4 1.320 . S
C3 C1 1.339 . S
C3 C2 1.395 . S
C3 H29 0.929 . S
C4 C2 1.320 . S
C4 C5 1.405 . S
C4 H30 0.930 . S
C5 C0 1.479 . S
C5 C4 1.405 . S
C5 H31 0.931 . S
U6 O7 2.454 . S
U6 O8 2.458 . S
U6 C9 2.984 . S
U6 C10 2.847 . S
U6 C23 2.882 . S
U6 O24 2.441 . S
U6 O25 2.420 . S
U6 O26 2.455 . S
U6 O27 2.449 . S
O7 U6 2.454 . S
O7 C9 1.353 . S
O8 U6 2.458 . S
O8 C9 1.286 . S
C9 U6 2.984 . S
C9 O7 1.353 . S
C9 O8 1.286 . S
C9 C11 1.363 . S
C10 C0 1.465 . S
C10 U6 2.847 . S
C10 O24 1.249 . S
C10 O25 1.202 . S
C11 C9 1.363 . S
C11 C13 1.408 . S
C11 C16 1.342 . S
C12 C13 1.310 . S
C12 C15 1.461 . S
C12 H32 0.932 . S
C13 C11 1.408 . S
C13 C12 1.310 . S
C13 H33 0.930 . S
C14 C15 1.474 . S
C14 C16 1.285 . S
C14 H34 0.929 . S
C15 C12 1.461 . S
C15 C14 1.474 . S
C16 C11 1.342 . S
C16 C14 1.285 . S
C16 H35 0.930 . S
C17 C20 1.424 . S
C17 C22 1.245 . S
C17 C23 1.428 . S
C18 C21 1.260 . S
C18 C22 1.477 . S
C18 H36 0.932 . S
C19 C20 1.384 . S
C19 C21 1.479 . S
C19 H37 0.929 . S
C20 C17 1.424 . S
C20 C19 1.384 . S
C20 H38 0.928 . S
C21 C18 1.260 . S
C21 C19 1.479 . S
C22 C17 1.245 . S
C22 C18 1.477 . S
C22 H39 0.932 . S
C23 U6 2.882 . S
C23 C17 1.428 . S
C23 O26 1.301 . S
C23 O27 1.282 . S
O24 U6 2.441 . S
O24 C10 1.249 . S
O25 U6 2.420 . S
O25 C10 1.202 . S
O26 U6 2.455 . S
O26 C23 1.301 . S
O27 U6 2.449 . S
O27 C23 1.282 . S
H28 C1 0.931 . S
H29 C3 0.929 . S
H30 C4 0.930 . S
H31 C5 0.931 . S
H32 C12 0.932 . S
H33 C13 0.930 . S
H34 C14 0.929 . S
H35 C16 0.930 . S
H36 C18 0.932 . S
H37 C19 0.929 . S
H38 C20 0.928 . S
H39 C22 0.932 . S
C40 C41 1.264 . S
C40 C45 1.479 . S
C40 C50 1.465 . S
C41 C40 1.264 . S
C41 C43 1.339 . S
C41 H68 0.931 . S
C42 C43 1.395 . S
C42 C44 1.320 . S
C43 C41 1.339 . S
C43 C42 1.395 . S
C43 H69 0.929 . S
C44 C42 1.320 . S
C44 C45 1.405 . S
C44 H70 0.930 . S
C45 C40 1.479 . S
C45 C44 1.405 . S
C45 H71 0.931 . S
U46 O47 2.454 . S
U46 O48 2.458 . S
U46 C49 2.984 . S
U46 C50 2.847 . S
U46 C63 2.882 . S
U46 O64 2.441 . S
U46 O65 2.420 . S
U46 O66 2.455 . S
U46 O67 2.449 . S
O47 U46 2.454 . S
O47 C49 1.353 . S
O48 U46 2.458 . S
O48 C49 1.286 . S
C49 U46 2.984 . S
C49 O47 1.353 . S
C49 O48 1.286 . S
C49 C51 1.363 . S
C50 C40 1.465 . S
C50 U46 2.847 . S
C50 O64 1.249 . S
C50 O65 1.202 . S
C51 C49 1.363 . S
C51 C53 1.408 . S
C51 C56 1.342 . S
C52 C53 1.310 . S
C52 C55 1.461 . S
C52 H72 0.932 . S
C53 C51 1.408 . S
C53 C52 1.310 . S
C53 H73 0.930 . S
C54 C55 1.474 . S
C54 C56 1.285 . S
C54 H74 0.929 . S
C55 C52 1.461 . S
C55 C54 1.474 . S
C56 C51 1.342 . S
C56 C54 1.285 . S
C56 H75 0.930 . S
C57 C60 1.424 . S
C57 C62 1.245 . S
C57 C63 1.428 . S
C58 C61 1.260 . S
C58 C62 1.477 . S
C58 H76 0.932 . S
C59 C60 1.384 . S
C59 C61 1.479 . S
C59 H77 0.929 . S
C60 C57 1.424 . S
C60 C59 1.384 . S
C60 H78 0.928 . S
C61 C58 1.260 . S
C61 C59 1.479 . S
C62 C57 1.245 . S
C62 C58 1.477 . S
C62 H79 0.932 . S
C63 U46 2.882 . S
C63 C57 1.428 . S
C63 O66 1.301 . S
C63 O67 1.282 . S
O64 U46 2.441 . S
O64 C50 1.249 . S
O65 U46 2.420 . S
O65 C50 1.202 . S
O66 U46 2.455 . S
O66 C63 1.301 . S
O67 U46 2.449 . S
O67 C63 1.282 . S
H68 C41 0.931 . S
H69 C43 0.929 . S
H70 C44 0.930 . S
H71 C45 0.931 . S
H72 C52 0.932 . S
H73 C53 0.930 . S
H74 C54 0.929 . S
H75 C56 0.930 . S
H76 C58 0.932 . S
H77 C59 0.929 . S
H78 C60 0.928 . S
H79 C62 0.932 . S
C80 C81 1.264 . S
C80 C85 1.479 . S
C80 C90 1.465 . S
C81 C80 1.264 . S
C81 C83 1.339 . S
C81 H108 0.931 . S
C82 C83 1.395 . S
C82 C84 1.320 . S
C83 C81 1.339 . S
C83 C82 1.395 . S
C83 H109 0.929 . S
C84 C82 1.320 . S
C84 C85 1.405 . S
C84 H110 0.930 . S
C85 C80 1.479 . S
C85 C84 1.405 . S
C85 H111 0.931 . S
U86 O87 2.454 . S
U86 O88 2.458 . S
U86 C89 2.984 . S
U86 C90 2.847 . S
U86 C103 2.882 . S
U86 O104 2.441 . S
U86 O105 2.420 . S
U86 O106 2.455 . S
U86 O107 2.449 . S
O87 U86 2.454 . S
O87 C89 1.353 . S
O88 U86 2.458 . S
O88 C89 1.286 . S
C89 U86 2.984 . S
C89 O87 1.353 . S
C89 O88 1.286 . S
C89 C91 1.363 . S
C90 C80 1.465 . S
C90 U86 2.847 . S
C90 O104 1.249 . S
C90 O105 1.202 . S
C91 C89 1.363 . S
C91 C93 1.408 . S
C91 C96 1.342 . S
C92 C93 1.310 . S
C92 C95 1.461 . S
C92 H112 0.932 . S
C93 C91 1.408 . S
C93 C92 1.310 . S
C93 H113 0.930 . S
C94 C95 1.474 . S
C94 C96 1.285 . S
C94 H114 0.929 . S
C95 C92 1.461 . S
C95 C94 1.474 . S
C96 C91 1.342 . S
C96 C94 1.285 . S
C96 H115 0.930 . S
C97 C100 1.424 . S
C97 C102 1.245 . S
C97 C103 1.428 . S
C98 C101 1.260 . S
C98 C102 1.477 . S
C98 H116 0.932 . S
C99 C100 1.384 . S
C99 C101 1.479 . S
C99 H117 0.929 . S
C100 C97 1.424 . S
C100 C99 1.384 . S
C100 H118 0.928 . S
C101 C98 1.260 . S
C101 C99 1.479 . S
C102 C97 1.245 . S
C102 C98 1.477 . S
C102 H119 0.932 . S
C103 U86 2.882 . S
C103 C97 1.428 . S
C103 O106 1.301 . S
C103 O107 1.282 . S
O104 U86 2.441 . S
O104 C90 1.249 . S
O105 U86 2.420 . S
O105 C90 1.202 . S
O106 U86 2.455 . S
O106 C103 1.301 . S
O107 U86 2.449 . S
O107 C103 1.282 . S
H108 C81 0.931 . S
H109 C83 0.929 . S
H110 C84 0.930 . S
H111 C85 0.931 . S
H112 C92 0.932 . S
H113 C93 0.930 . S
H114 C94 0.929 . S
H115 C96 0.930 . S
H116 C98 0.932 . S
H117 C99 0.929 . S
H118 C100 0.928 . S
H119 C102 0.932 . S
C120 C121 1.264 . S
C120 C125 1.479 . S
C120 C130 1.465 . S
C121 C120 1.264 . S
C121 C123 1.339 . S
C121 H148 0.931 . S
C122 C123 1.395 . S
C122 C124 1.320 . S
C123 C121 1.339 . S
C123 C122 1.395 . S
C123 H149 0.929 . S
C124 C122 1.320 . S
C124 C125 1.405 . S
C124 H150 0.930 . S
C125 C120 1.479 . S
C125 C124 1.405 . S
C125 H151 0.931 . S
U126 O127 2.454 . S
U126 O128 2.458 . S
U126 C129 2.984 . S
U126 C130 2.847 . S
U126 C143 2.882 . S
U126 O144 2.441 . S
U126 O145 2.420 . S
U126 O146 2.455 . S
U126 O147 2.449 . S
O127 U126 2.454 . S
O127 C129 1.353 . S
O128 U126 2.458 . S
O128 C129 1.286 . S
C129 U126 2.984 . S
C129 O127 1.353 . S
C129 O128 1.286 . S
C129 C131 1.363 . S
C130 C120 1.465 . S
C130 U126 2.847 . S
C130 O144 1.249 . S
C130 O145 1.202 . S
C131 C129 1.363 . S
C131 C133 1.408 . S
C131 C136 1.342 . S
C132 C133 1.310 . S
C132 C135 1.461 . S
C132 H152 0.932 . S
C133 C131 1.408 . S
C133 C132 1.310 . S
C133 H153 0.930 . S
C134 C135 1.474 . S
C134 C136 1.285 . S
C134 H154 0.929 . S
C135 C132 1.461 . S
C135 C134 1.474 . S
C136 C131 1.342 . S
C136 C134 1.285 . S
C136 H155 0.930 . S
C137 C140 1.424 . S
C137 C142 1.245 . S
C137 C143 1.428 . S
C138 C141 1.260 . S
C138 C142 1.477 . S
C138 H156 0.932 . S
C139 C140 1.384 . S
C139 C141 1.479 . S
C139 H157 0.929 . S
C140 C137 1.424 . S
C140 C139 1.384 . S
C140 H158 0.928 . S
C141 C138 1.260 . S
C141 C139 1.479 . S
C142 C137 1.245 . S
C142 C138 1.477 . S
C142 H159 0.932 . S
C143 U126 2.882 . S
C143 C137 1.428 . S
C143 O146 1.301 . S
C143 O147 1.282 . S
O144 U126 2.441 . S
O144 C130 1.249 . S
O145 U126 2.420 . S
O145 C130 1.202 . S
O146 U126 2.455 . S
O146 C143 1.301 . S
O147 U126 2.449 . S
O147 C143 1.282 . S
H148 C121 0.931 . S
H149 C123 0.929 . S
H150 C124 0.930 . S
H151 C125 0.931 . S
H152 C132 0.932 . S
H153 C133 0.930 . S
H154 C134 0.929 . S
H155 C136 0.930 . S
H156 C138 0.932 . S
H157 C139 0.929 . S
H158 C140 0.928 . S
H159 C142 0.932 . S
C160 C161 1.264 . S
C160 C165 1.479 . S
C160 C170 1.465 . S
C161 C160 1.264 . S
C161 C163 1.339 . S
C161 H188 0.931 . S
C162 C163 1.395 . S
C162 C164 1.320 . S
C163 C161 1.339 . S
C163 C162 1.395 . S
C163 H189 0.929 . S
C164 C162 1.320 . S
C164 C165 1.405 . S
C164 H190 0.930 . S
C165 C160 1.479 . S
C165 C164 1.405 . S
C165 H191 0.931 . S
U166 O167 2.454 . S
U166 O168 2.458 . S
U166 C169 2.984 . S
U166 C170 2.847 . S
U166 C183 2.882 . S
U166 O184 2.441 . S
U166 O185 2.420 . S
U166 O186 2.455 . S
U166 O187 2.449 . S
O167 U166 2.454 . S
O167 C169 1.353 . S
O168 U166 2.458 . S
O168 C169 1.286 . S
C169 U166 2.984 . S
C169 O167 1.353 . S
C169 O168 1.286 . S
C169 C171 1.363 . S
C170 C160 1.465 . S
C170 U166 2.847 . S
C170 O184 1.249 . S
C170 O185 1.202 . S
C171 C169 1.363 . S
C171 C173 1.408 . S
C171 C176 1.342 . S
C172 C173 1.310 . S
C172 C175 1.461 . S
C172 H192 0.932 . S
C173 C171 1.408 . S
C173 C172 1.310 . S
C173 H193 0.930 . S
C174 C175 1.474 . S
C174 C176 1.285 . S
C174 H194 0.929 . S
C175 C172 1.461 . S
C175 C174 1.474 . S
C176 C171 1.342 . S
C176 C174 1.285 . S
C176 H195 0.930 . S
C177 C180 1.424 . S
C177 C182 1.245 . S
C177 C183 1.428 . S
C178 C181 1.260 . S
C178 C182 1.477 . S
C178 H196 0.932 . S
C179 C180 1.384 . S
C179 C181 1.479 . S
C179 H197 0.929 . S
C180 C177 1.424 . S
C180 C179 1.384 . S
C180 H198 0.928 . S
C181 C178 1.260 . S
C181 C179 1.479 . S
C182 C177 1.245 . S
C182 C178 1.477 . S
C182 H199 0.932 . S
C183 U166 2.882 . S
C183 C177 1.428 . S
C183 O186 1.301 . S
C183 O187 1.282 . S
O184 U166 2.441 . S
O184 C170 1.249 . S
O185 U166 2.420 . S
O185 C170 1.202 . S
O186 U166 2.455 . S
O186 C183 1.301 . S
O187 U166 2.449 . S
O187 C183 1.282 . S
H188 C161 0.931 . S
H189 C163 0.929 . S
H190 C164 0.930 . S
H191 C165 0.931 . S
H192 C172 0.932 . S
H193 C173 0.930 . S
H194 C174 0.929 . S
H195 C176 0.930 . S
H196 C178 0.932 . S
H197 C179 0.929 . S
H198 C180 0.928 . S
H199 C182 0.932 . S
C200 C201 1.264 . S
C200 C205 1.479 . S
C200 C210 1.465 . S
C201 C200 1.264 . S
C201 C203 1.339 . S
C201 H228 0.931 . S
C202 C203 1.395 . S
C202 C204 1.320 . S
C203 C201 1.339 . S
C203 C202 1.395 . S
C203 H229 0.929 . S
C204 C202 1.320 . S
C204 C205 1.405 . S
C204 H230 0.930 . S
C205 C200 1.479 . S
C205 C204 1.405 . S
C205 H231 0.931 . S
U206 O207 2.454 . S
U206 O208 2.458 . S
U206 C209 2.984 . S
U206 C210 2.847 . S
U206 C223 2.882 . S
U206 O224 2.441 . S
U206 O225 2.420 . S
U206 O226 2.455 . S
U206 O227 2.449 . S
O207 U206 2.454 . S
O207 C209 1.353 . S
O208 U206 2.458 . S
O208 C209 1.286 . S
C209 U206 2.984 . S
C209 O207 1.353 . S
C209 O208 1.286 . S
C209 C211 1.363 . S
C210 C200 1.465 . S
C210 U206 2.847 . S
C210 O224 1.249 . S
C210 O225 1.202 . S
C211 C209 1.363 . S
C211 C213 1.408 . S
C211 C216 1.342 . S
C212 C213 1.310 . S
C212 C215 1.461 . S
C212 H232 0.932 . S
C213 C211 1.408 . S
C213 C212 1.310 . S
C213 H233 0.930 . S
C214 C215 1.474 . S
C214 C216 1.285 . S
C214 H234 0.929 . S
C215 C212 1.461 . S
C215 C214 1.474 . S
C216 C211 1.342 . S
C216 C214 1.285 . S
C216 H235 0.930 . S
C217 C220 1.424 . S
C217 C222 1.245 . S
C217 C223 1.428 . S
C218 C221 1.260 . S
C218 C222 1.477 . S
C218 H236 0.932 . S
C219 C220 1.384 . S
C219 C221 1.479 . S
C219 H237 0.929 . S
C220 C217 1.424 . S
C220 C219 1.384 . S
C220 H238 0.928 . S
C221 C218 1.260 . S
C221 C219 1.479 . S
C222 C217 1.245 . S
C222 C218 1.477 . S
C222 H239 0.932 . S
C223 U206 2.882 . S
C223 C217 1.428 . S
C223 O226 1.301 . S
C223 O227 1.282 . S
O224 U206 2.441 . S
O224 C210 1.249 . S
O225 U206 2.420 . S
O225 C210 1.202 . S
O226 U206 2.455 . S
O226 C223 1.301 . S
O227 U206 2.449 . S
O227 C223 1.282 . S
H228 C201 0.931 . S
H229 C203 0.929 . S
H230 C204 0.930 . S
H231 C205 0.931 . S
H232 C212 0.932 . S
H233 C213 0.930 . S
H234 C214 0.929 . S
H235 C216 0.930 . S
H236 C218 0.932 . S
H237 C219 0.929 . S
H238 C220 0.928 . S
H239 C222 0.932 . S
C240 C241 1.264 . S
C240 C245 1.479 . S
C240 C250 1.465 . S
C241 C240 1.264 . S
C241 C243 1.339 . S
C241 H268 0.931 . S
C242 C243 1.395 . S
C242 C244 1.320 . S
C243 C241 1.339 . S
C243 C242 1.395 . S
C243 H269 0.929 . S
C244 C242 1.320 . S
C244 C245 1.405 . S
C244 H270 0.930 . S
C245 C240 1.479 . S
C245 C244 1.405 . S
C245 H271 0.931 . S
U246 O247 2.454 . S
U246 O248 2.458 . S
U246 C249 2.984 . S
U246 C250 2.847 . S
U246 C263 2.882 . S
U246 O264 2.441 . S
U246 O265 2.420 . S
U246 O266 2.455 . S
U246 O267 2.449 . S
O247 U246 2.454 . S
O247 C249 1.353 . S
O248 U246 2.458 . S
O248 C249 1.286 . S
C249 U246 2.984 . S
C249 O247 1.353 . S
C249 O248 1.286 . S
C249 C251 1.363 . S
C250 C240 1.465 . S
C250 U246 2.847 . S
C250 O264 1.249 . S
C250 O265 1.202 . S
C251 C249 1.363 . S
C251 C253 1.408 . S
C251 C256 1.342 . S
C252 C253 1.310 . S
C252 C255 1.461 . S
C252 H272 0.932 . S
C253 C251 1.408 . S
C253 C252 1.310 . S
C253 H273 0.930 . S
C254 C255 1.474 . S
C254 C256 1.285 . S
C254 H274 0.929 . S
C255 C252 1.461 . S
C255 C254 1.474 . S
C256 C251 1.342 . S
C256 C254 1.285 . S
C256 H275 0.930 . S
C257 C260 1.424 . S
C257 C262 1.245 . S
C257 C263 1.428 . S
C258 C261 1.260 . S
C258 C262 1.477 . S
C258 H276 0.932 . S
C259 C260 1.384 . S
C259 C261 1.479 . S
C259 H277 0.929 . S
C260 C257 1.424 . S
C260 C259 1.384 . S
C260 H278 0.928 . S
C261 C258 1.260 . S
C261 C259 1.479 . S
C262 C257 1.245 . S
C262 C258 1.477 . S
C262 H279 0.932 . S
C263 U246 2.882 . S
C263 C257 1.428 . S
C263 O266 1.301 . S
C263 O267 1.282 . S
O264 U246 2.441 . S
O264 C250 1.249 . S
O265 U246 2.420 . S
O265 C250 1.202 . S
O266 U246 2.455 . S
O266 C263 1.301 . S
O267 U246 2.449 . S
O267 C263 1.282 . S
H268 C241 0.931 . S
H269 C243 0.929 . S
H270 C244 0.930 . S
H271 C245 0.931 . S
H272 C252 0.932 . S
H273 C253 0.930 . S
H274 C254 0.929 . S
H275 C256 0.930 . S
H276 C258 0.932 . S
H277 C259 0.929 . S
H278 C260 0.928 . S
H279 C262 0.932 . S
C280 C281 1.264 . S
C280 C285 1.479 . S
C280 C290 1.465 . S
C281 C280 1.264 . S
C281 C283 1.339 . S
C281 H308 0.931 . S
C282 C283 1.395 . S
C282 C284 1.320 . S
C283 C281 1.339 . S
C283 C282 1.395 . S
C283 H309 0.929 . S
C284 C282 1.320 . S
C284 C285 1.405 . S
C284 H310 0.930 . S
C285 C280 1.479 . S
C285 C284 1.405 . S
C285 H311 0.931 . S
U286 O287 2.454 . S
U286 O288 2.458 . S
U286 C289 2.984 . S
U286 C290 2.847 . S
U286 C303 2.882 . S
U286 O304 2.441 . S
U286 O305 2.420 . S
U286 O306 2.455 . S
U286 O307 2.449 . S
O287 U286 2.454 . S
O287 C289 1.353 . S
O288 U286 2.458 . S
O288 C289 1.286 . S
C289 U286 2.984 . S
C289 O287 1.353 . S
C289 O288 1.286 . S
C289 C291 1.363 . S
C290 C280 1.465 . S
C290 U286 2.847 . S
C290 O304 1.249 . S
C290 O305 1.202 . S
C291 C289 1.363 . S
C291 C293 1.408 . S
C291 C296 1.342 . S
C292 C293 1.310 . S
C292 C295 1.461 . S
C292 H312 0.932 . S
C293 C291 1.408 . S
C293 C292 1.310 . S
C293 H313 0.930 . S
C294 C295 1.474 . S
C294 C296 1.285 . S
C294 H314 0.929 . S
C295 C292 1.461 . S
C295 C294 1.474 . S
C296 C291 1.342 . S
C296 C294 1.285 . S
C296 H315 0.930 . S
C297 C300 1.424 . S
C297 C302 1.245 . S
C297 C303 1.428 . S
C298 C301 1.260 . S
C298 C302 1.477 . S
C298 H316 0.932 . S
C299 C300 1.384 . S
C299 C301 1.479 . S
C299 H317 0.929 . S
C300 C297 1.424 . S
C300 C299 1.384 . S
C300 H318 0.928 . S
C301 C298 1.260 . S
C301 C299 1.479 . S
C302 C297 1.245 . S
C302 C298 1.477 . S
C302 H319 0.932 . S
C303 U286 2.882 . S
C303 C297 1.428 . S
C303 O306 1.301 . S
C303 O307 1.282 . S
O304 U286 2.441 . S
O304 C290 1.249 . S
O305 U286 2.420 . S
O305 C290 1.202 . S
O306 U286 2.455 . S
O306 C303 1.301 . S
O307 U286 2.449 . S
O307 C303 1.282 . S
H308 C281 0.931 . S
H309 C283 0.929 . S
H310 C284 0.930 . S
H311 C285 0.931 . S
H312 C292 0.932 . S
H313 C293 0.930 . S
H314 C294 0.929 . S
H315 C296 0.930 . S
H316 C298 0.932 . S
H317 C299 0.929 . S
H318 C300 0.928 . S
H319 C302 0.932 . S
C320 C321 1.264 . S
C320 C325 1.479 . S
C320 C330 1.465 . S
C321 C320 1.264 . S
C321 C323 1.339 . S
C321 H348 0.931 . S
C322 C323 1.395 . S
C322 C324 1.320 . S
C323 C321 1.339 . S
C323 C322 1.395 . S
C323 H349 0.929 . S
C324 C322 1.320 . S
C324 C325 1.405 . S
C324 H350 0.930 . S
C325 C320 1.479 . S
C325 C324 1.405 . S
C325 H351 0.931 . S
U326 O327 2.454 . S
U326 O328 2.458 . S
U326 C329 2.984 . S
U326 C330 2.847 . S
U326 C343 2.882 . S
U326 O344 2.441 . S
U326 O345 2.420 . S
U326 O346 2.455 . S
U326 O347 2.449 . S
O327 U326 2.454 . S
O327 C329 1.353 . S
O328 U326 2.458 . S
O328 C329 1.286 . S
C329 U326 2.984 . S
C329 O327 1.353 . S
C329 O328 1.286 . S
C329 C331 1.363 . S
C330 C320 1.465 . S
C330 U326 2.847 . S
C330 O344 1.249 . S
C330 O345 1.202 . S
C331 C329 1.363 . S
C331 C333 1.408 . S
C331 C336 1.342 . S
C332 C333 1.310 . S
C332 C335 1.461 . S
C332 H352 0.932 . S
C333 C331 1.408 . S
C333 C332 1.310 . S
C333 H353 0.930 . S
C334 C335 1.474 . S
C334 C336 1.285 . S
C334 H354 0.929 . S
C335 C332 1.461 . S
C335 C334 1.474 . S
C336 C331 1.342 . S
C336 C334 1.285 . S
C336 H355 0.930 . S
C337 C340 1.424 . S
C337 C342 1.245 . S
C337 C343 1.428 . S
C338 C341 1.260 . S
C338 C342 1.477 . S
C338 H356 0.932 . S
C339 C340 1.384 . S
C339 C341 1.479 . S
C339 H357 0.929 . S
C340 C337 1.424 . S
C340 C339 1.384 . S
C340 H358 0.928 . S
C341 C338 1.260 . S
C341 C339 1.479 . S
C342 C337 1.245 . S
C342 C338 1.477 . S
C342 H359 0.932 . S
C343 U326 2.882 . S
C343 C337 1.428 . S
C343 O346 1.301 . S
C343 O347 1.282 . S
O344 U326 2.441 . S
O344 C330 1.249 . S
O345 U326 2.420 . S
O345 C330 1.202 . S
O346 U326 2.455 . S
O346 C343 1.301 . S
O347 U326 2.449 . S
O347 C343 1.282 . S
H348 C321 0.931 . S
H349 C323 0.929 . S
H350 C324 0.930 . S
H351 C325 0.931 . S
H352 C332 0.932 . S
H353 C333 0.930 . S
H354 C334 0.929 . S
H355 C336 0.930 . S
H356 C338 0.932 . S
H357 C339 0.929 . S
H358 C340 0.928 . S
H359 C342 0.932 . S
C360 C361 1.264 . S
C360 C365 1.479 . S
C360 C370 1.465 . S
C361 C360 1.264 . S
C361 C363 1.339 . S
C361 H388 0.931 . S
C362 C363 1.395 . S
C362 C364 1.320 . S
C363 C361 1.339 . S
C363 C362 1.395 . S
C363 H389 0.929 . S
C364 C362 1.320 . S
C364 C365 1.405 . S
C364 H390 0.930 . S
C365 C360 1.479 . S
C365 C364 1.405 . S
C365 H391 0.931 . S
U366 O367 2.454 . S
U366 O368 2.458 . S
U366 C369 2.984 . S
U366 C370 2.847 . S
U366 C383 2.882 . S
U366 O384 2.441 . S
U366 O385 2.420 . S
U366 O386 2.455 . S
U366 O387 2.449 . S
O367 U366 2.454 . S
O367 C369 1.353 . S
O368 U366 2.458 . S
O368 C369 1.286 . S
C369 U366 2.984 . S
C369 O367 1.353 . S
C369 O368 1.286 . S
C369 C371 1.363 . S
C370 C360 1.465 . S
C370 U366 2.847 . S
C370 O384 1.249 . S
C370 O385 1.202 . S
C371 C369 1.363 . S
C371 C373 1.408 . S
C371 C376 1.342 . S
C372 C373 1.310 . S
C372 C375 1.461 . S
C372 H392 0.932 . S
C373 C371 1.408 . S
C373 C372 1.310 . S
C373 H393 0.930 . S
C374 C375 1.474 . S
C374 C376 1.285 . S
C374 H394 0.929 . S
C375 C372 1.461 . S
C375 C374 1.474 . S
C376 C371 1.342 . S
C376 C374 1.285 . S
C376 H395 0.930 . S
C377 C380 1.424 . S
C377 C382 1.245 . S
C377 C383 1.428 . S
C378 C381 1.260 . S
C378 C382 1.477 . S
C378 H396 0.932 . S
C379 C380 1.384 . S
C379 C381 1.479 . S
C379 H397 0.929 . S
C380 C377 1.424 . S
C380 C379 1.384 . S
C380 H398 0.928 . S
C381 C378 1.260 . S
C381 C379 1.479 . S
C382 C377 1.245 . S
C382 C378 1.477 . S
C382 H399 0.932 . S
C383 U366 2.882 . S
C383 C377 1.428 . S
C383 O386 1.301 . S
C383 O387 1.282 . S
O384 U366 2.441 . S
O384 C370 1.249 . S
O385 U366 2.420 . S
O385 C370 1.202 . S
O386 U366 2.455 . S
O386 C383 1.301 . S
O387 U366 2.449 . S
O387 C383 1.282 . S
H388 C361 0.931 . S
H389 C363 0.929 . S
H390 C364 0.930 . S
H391 C365 0.931 . S
H392 C372 0.932 . S
H393 C373 0.930 . S
H394 C374 0.929 . S
H395 C376 0.930 . S
H396 C378 0.932 . S
H397 C379 0.929 . S
H398 C380 0.928 . S
H399 C382 0.932 . S
C400 C401 1.264 . S
C400 C405 1.479 . S
C400 C410 1.465 . S
C401 C400 1.264 . S
C401 C403 1.339 . S
C401 H428 0.931 . S
C402 C403 1.395 . S
C402 C404 1.320 . S
C403 C401 1.339 . S
C403 C402 1.395 . S
C403 H429 0.929 . S
C404 C402 1.320 . S
C404 C405 1.405 . S
C404 H430 0.930 . S
C405 C400 1.479 . S
C405 C404 1.405 . S
C405 H431 0.931 . S
U406 O407 2.454 . S
U406 O408 2.458 . S
U406 C409 2.984 . S
U406 C410 2.847 . S
U406 C423 2.882 . S
U406 O424 2.441 . S
U406 O425 2.420 . S
U406 O426 2.455 . S
U406 O427 2.449 . S
O407 U406 2.454 . S
O407 C409 1.353 . S
O408 U406 2.458 . S
O408 C409 1.286 . S
C409 U406 2.984 . S
C409 O407 1.353 . S
C409 O408 1.286 . S
C409 C411 1.363 . S
C410 C400 1.465 . S
C410 U406 2.847 . S
C410 O424 1.249 . S
C410 O425 1.202 . S
C411 C409 1.363 . S
C411 C413 1.408 . S
C411 C416 1.342 . S
C412 C413 1.310 . S
C412 C415 1.461 . S
C412 H432 0.932 . S
C413 C411 1.408 . S
C413 C412 1.310 . S
C413 H433 0.930 . S
C414 C415 1.474 . S
C414 C416 1.285 . S
C414 H434 0.929 . S
C415 C412 1.461 . S
C415 C414 1.474 . S
C416 C411 1.342 . S
C416 C414 1.285 . S
C416 H435 0.930 . S
C417 C420 1.424 . S
C417 C422 1.245 . S
C417 C423 1.428 . S
C418 C421 1.260 . S
C418 C422 1.477 . S
C418 H436 0.932 . S
C419 C420 1.384 . S
C419 C421 1.479 . S
C419 H437 0.929 . S
C420 C417 1.424 . S
C420 C419 1.384 . S
C420 H438 0.928 . S
C421 C418 1.260 . S
C421 C419 1.479 . S
C422 C417 1.245 . S
C422 C418 1.477 . S
C422 H439 0.932 . S
C423 U406 2.882 . S
C423 C417 1.428 . S
C423 O426 1.301 . S
C423 O427 1.282 . S
O424 U406 2.441 . S
O424 C410 1.249 . S
O425 U406 2.420 . S
O425 C410 1.202 . S
O426 U406 2.455 . S
O426 C423 1.301 . S
O427 U406 2.449 . S
O427 C423 1.282 . S
H428 C401 0.931 . S
H429 C403 0.929 . S
H430 C404 0.930 . S
H431 C405 0.931 . S
H432 C412 0.932 . S
H433 C413 0.930 . S
H434 C414 0.929 . S
H435 C416 0.930 . S
H436 C418 0.932 . S
H437 C419 0.929 . S
H438 C420 0.928 . S
H439 C422 0.932 . S
C440 C441 1.264 . S
C440 C445 1.479 . S
C440 C450 1.465 . S
C441 C440 1.264 . S
C441 C443 1.339 . S
C441 H468 0.931 . S
C442 C443 1.395 . S
C442 C444 1.320 . S
C443 C441 1.339 . S
C443 C442 1.395 . S
C443 H469 0.929 . S
C444 C442 1.320 . S
C444 C445 1.405 . S
C444 H470 0.930 . S
C445 C440 1.479 . S
C445 C444 1.405 . S
C445 H471 0.931 . S
U446 O447 2.454 . S
U446 O448 2.458 . S
U446 C449 2.984 . S
U446 C450 2.847 . S
U446 C463 2.882 . S
U446 O464 2.441 . S
U446 O465 2.420 . S
U446 O466 2.455 . S
U446 O467 2.449 . S
O447 U446 2.454 . S
O447 C449 1.353 . S
O448 U446 2.458 . S
O448 C449 1.286 . S
C449 U446 2.984 . S
C449 O447 1.353 . S
C449 O448 1.286 . S
C449 C451 1.363 . S
C450 C440 1.465 . S
C450 U446 2.847 . S
C450 O464 1.249 . S
C450 O465 1.202 . S
C451 C449 1.363 . S
C451 C453 1.408 . S
C451 C456 1.342 . S
C452 C453 1.310 . S
C452 C455 1.461 . S
C452 H472 0.932 . S
C453 C451 1.408 . S
C453 C452 1.310 . S
C453 H473 0.930 . S
C454 C455 1.474 . S
C454 C456 1.285 . S
C454 H474 0.929 . S
C455 C452 1.461 . S
C455 C454 1.474 . S
C456 C451 1.342 . S
C456 C454 1.285 . S
C456 H475 0.930 . S
C457 C460 1.424 . S
C457 C462 1.245 . S
C457 C463 1.428 . S
C458 C461 1.260 . S
C458 C462 1.477 . S
C458 H476 0.932 . S
C459 C460 1.384 . S
C459 C461 1.479 . S
C459 H477 0.929 . S
C460 C457 1.424 . S
C460 C459 1.384 . S
C460 H478 0.928 . S
C461 C458 1.260 . S
C461 C459 1.479 . S
C462 C457 1.245 . S
C462 C458 1.477 . S
C462 H479 0.932 . S
C463 U446 2.882 . S
C463 C457 1.428 . S
C463 O466 1.301 . S
C463 O467 1.282 . S
O464 U446 2.441 . S
O464 C450 1.249 . S
O465 U446 2.420 . S
O465 C450 1.202 . S
O466 U446 2.455 . S
O466 C463 1.301 . S
O467 U446 2.449 . S
O467 C463 1.282 . S
H468 C441 0.931 . S
H469 C443 0.929 . S
H470 C444 0.930 . S
H471 C445 0.931 . S
H472 C452 0.932 . S
H473 C453 0.930 . S
H474 C454 0.929 . S
H475 C456 0.930 . S
H476 C458 0.932 . S
H477 C459 0.929 . S
H478 C460 0.928 . S
H479 C462 0.932 . S
C480 C481 1.264 . S
C480 C485 1.479 . S
C480 C490 1.465 . S
C481 C480 1.264 . S
C481 C483 1.339 . S
C481 H508 0.931 . S
C482 C483 1.395 . S
C482 C484 1.320 . S
C483 C481 1.339 . S
C483 C482 1.395 . S
C483 H509 0.929 . S
C484 C482 1.320 . S
C484 C485 1.405 . S
C484 H510 0.930 . S
C485 C480 1.479 . S
C485 C484 1.405 . S
C485 H511 0.931 . S
U486 O487 2.454 . S
U486 O488 2.458 . S
U486 C489 2.984 . S
U486 C490 2.847 . S
U486 C503 2.882 . S
U486 O504 2.441 . S
U486 O505 2.420 . S
U486 O506 2.455 . S
U486 O507 2.449 . S
O487 U486 2.454 . S
O487 C489 1.353 . S
O488 U486 2.458 . S
O488 C489 1.286 . S
C489 U486 2.984 . S
C489 O487 1.353 . S
C489 O488 1.286 . S
C489 C491 1.363 . S
C490 C480 1.465 . S
C490 U486 2.847 . S
C490 O504 1.249 . S
C490 O505 1.202 . S
C491 C489 1.363 . S
C491 C493 1.408 . S
C491 C496 1.342 . S
C492 C493 1.310 . S
C492 C495 1.461 . S
C492 H512 0.932 . S
C493 C491 1.408 . S
C493 C492 1.310 . S
C493 H513 0.930 . S
C494 C495 1.474 . S
C494 C496 1.285 . S
C494 H514 0.929 . S
C495 C492 1.461 . S
C495 C494 1.474 . S
C496 C491 1.342 . S
C496 C494 1.285 . S
C496 H515 0.930 . S
C497 C500 1.424 . S
C497 C502 1.245 . S
C497 C503 1.428 . S
C498 C501 1.260 . S
C498 C502 1.477 . S
C498 H516 0.932 . S
C499 C500 1.384 . S
C499 C501 1.479 . S
C499 H517 0.929 . S
C500 C497 1.424 . S
C500 C499 1.384 . S
C500 H518 0.928 . S
C501 C498 1.260 . S
C501 C499 1.479 . S
C502 C497 1.245 . S
C502 C498 1.477 . S
C502 H519 0.932 . S
C503 U486 2.882 . S
C503 C497 1.428 . S
C503 O506 1.301 . S
C503 O507 1.282 . S
O504 U486 2.441 . S
O504 C490 1.249 . S
O505 U486 2.420 . S
O505 C490 1.202 . S
O506 U486 2.455 . S
O506 C503 1.301 . S
O507 U486 2.449 . S
O507 C503 1.282 . S
H508 C481 0.931 . S
H509 C483 0.929 . S
H510 C484 0.930 . S
H511 C485 0.931 . S
H512 C492 0.932 . S
H513 C493 0.930 . S
H514 C494 0.929 . S
H515 C496 0.930 . S
H516 C498 0.932 . S
H517 C499 0.929 . S
H518 C500 0.928 . S
H519 C502 0.932 . S
C520 C521 1.264 . S
C520 C525 1.479 . S
C520 C530 1.465 . S
C521 C520 1.264 . S
C521 C523 1.339 . S
C521 H548 0.931 . S
C522 C523 1.395 . S
C522 C524 1.320 . S
C523 C521 1.339 . S
C523 C522 1.395 . S
C523 H549 0.929 . S
C524 C522 1.320 . S
C524 C525 1.405 . S
C524 H550 0.930 . S
C525 C520 1.479 . S
C525 C524 1.405 . S
C525 H551 0.931 . S
U526 O527 2.454 . S
U526 O528 2.458 . S
U526 C529 2.984 . S
U526 C530 2.847 . S
U526 C543 2.882 . S
U526 O544 2.441 . S
U526 O545 2.420 . S
U526 O546 2.455 . S
U526 O547 2.449 . S
O527 U526 2.454 . S
O527 C529 1.353 . S
O528 U526 2.458 . S
O528 C529 1.286 . S
C529 U526 2.984 . S
C529 O527 1.353 . S
C529 O528 1.286 . S
C529 C531 1.363 . S
C530 C520 1.465 . S
C530 U526 2.847 . S
C530 O544 1.249 . S
C530 O545 1.202 . S
C531 C529 1.363 . S
C531 C533 1.408 . S
C531 C536 1.342 . S
C532 C533 1.310 . S
C532 C535 1.461 . S
C532 H552 0.932 . S
C533 C531 1.408 . S
C533 C532 1.310 . S
C533 H553 0.930 . S
C534 C535 1.474 . S
C534 C536 1.285 . S
C534 H554 0.929 . S
C535 C532 1.461 . S
C535 C534 1.474 . S
C536 C531 1.342 . S
C536 C534 1.285 . S
C536 H555 0.930 . S
C537 C540 1.424 . S
C537 C542 1.245 . S
C537 C543 1.428 . S
C538 C541 1.260 . S
C538 C542 1.477 . S
C538 H556 0.932 . S
C539 C540 1.384 . S
C539 C541 1.479 . S
C539 H557 0.929 . S
C540 C537 1.424 . S
C540 C539 1.384 . S
C540 H558 0.928 . S
C541 C538 1.260 . S
C541 C539 1.479 . S
C542 C537 1.245 . S
C542 C538 1.477 . S
C542 H559 0.932 . S
C543 U526 2.882 . S
C543 C537 1.428 . S
C543 O546 1.301 . S
C543 O547 1.282 . S
O544 U526 2.441 . S
O544 C530 1.249 . S
O545 U526 2.420 . S
O545 C530 1.202 . S
O546 U526 2.455 . S
O546 C543 1.301 . S
O547 U526 2.449 . S
O547 C543 1.282 . S
H548 C521 0.931 . S
H549 C523 0.929 . S
H550 C524 0.930 . S
H551 C525 0.931 . S
H552 C532 0.932 . S
H553 C533 0.930 . S
H554 C534 0.929 . S
H555 C536 0.930 . S
H556 C538 0.932 . S
H557 C539 0.929 . S
H558 C540 0.928 . S
H559 C542 0.932 . S
C560 C561 1.264 . S
C560 C565 1.479 . S
C560 C570 1.465 . S
C561 C560 1.264 . S
C561 C563 1.339 . S
C561 H588 0.931 . S
C562 C563 1.395 . S
C562 C564 1.320 . S
C563 C561 1.339 . S
C563 C562 1.395 . S
C563 H589 0.929 . S
C564 C562 1.320 . S
C564 C565 1.405 . S
C564 H590 0.930 . S
C565 C560 1.479 . S
C565 C564 1.405 . S
C565 H591 0.931 . S
U566 O567 2.454 . S
U566 O568 2.458 . S
U566 C569 2.984 . S
U566 C570 2.847 . S
U566 C583 2.882 . S
U566 O584 2.441 . S
U566 O585 2.420 . S
U566 O586 2.455 . S
U566 O587 2.449 . S
O567 U566 2.454 . S
O567 C569 1.353 . S
O568 U566 2.458 . S
O568 C569 1.286 . S
C569 U566 2.984 . S
C569 O567 1.353 . S
C569 O568 1.286 . S
C569 C571 1.363 . S
C570 C560 1.465 . S
C570 U566 2.847 . S
C570 O584 1.249 . S
C570 O585 1.202 . S
C571 C569 1.363 . S
C571 C573 1.408 . S
C571 C576 1.342 . S
C572 C573 1.310 . S
C572 C575 1.461 . S
C572 H592 0.932 . S
C573 C571 1.408 . S
C573 C572 1.310 . S
C573 H593 0.930 . S
C574 C575 1.474 . S
C574 C576 1.285 . S
C574 H594 0.929 . S
C575 C572 1.461 . S
C575 C574 1.474 . S
C576 C571 1.342 . S
C576 C574 1.285 . S
C576 H595 0.930 . S
C577 C580 1.424 . S
C577 C582 1.245 . S
C577 C583 1.428 . S
C578 C581 1.260 . S
C578 C582 1.477 . S
C578 H596 0.932 . S
C579 C580 1.384 . S
C579 C581 1.479 . S
C579 H597 0.929 . S
C580 C577 1.424 . S
C580 C579 1.384 . S
C580 H598 0.928 . S
C581 C578 1.260 . S
C581 C579 1.479 . S
C582 C577 1.245 . S
C582 C578 1.477 . S
C582 H599 0.932 . S
C583 U566 2.882 . S
C583 C577 1.428 . S
C583 O586 1.301 . S
C583 O587 1.282 . S
O584 U566 2.441 . S
O584 C570 1.249 . S
O585 U566 2.420 . S
O585 C570 1.202 . S
O586 U566 2.455 . S
O586 C583 1.301 . S
O587 U566 2.449 . S
O587 C583 1.282 . S
H588 C561 0.931 . S
H589 C563 0.929 . S
H590 C564 0.930 . S
H591 C565 0.931 . S
H592 C572 0.932 . S
H593 C573 0.930 . S
H594 C574 0.929 . S
H595 C576 0.930 . S
H596 C578 0.932 . S
H597 C579 0.929 . S
H598 C580 0.928 . S
H599 C582 0.932 . S
C600 C601 1.264 . S
C600 C605 1.479 . S
C600 C610 1.465 . S
C601 C600 1.264 . S
C601 C603 1.339 . S
C601 H628 0.931 . S
C602 C603 1.395 . S
C602 C604 1.320 . S
C603 C601 1.339 . S
C603 C602 1.395 . S
C603 H629 0.929 . S
C604 C602 1.320 . S
C604 C605 1.405 . S
C604 H630 0.930 . S
C605 C600 1.479 . S
C605 C604 1.405 . S
C605 H631 0.931 . S
U606 O607 2.454 . S
U606 O608 2.458 . S
U606 C609 2.984 . S
U606 C610 2.847 . S
U606 C623 2.882 . S
U606 O624 2.441 . S
U606 O625 2.420 . S
U606 O626 2.455 . S
U606 O627 2.449 . S
O607 U606 2.454 . S
O607 C609 1.353 . S
O608 U606 2.458 . S
O608 C609 1.286 . S
C609 U606 2.984 . S
C609 O607 1.353 . S
C609 O608 1.286 . S
C609 C611 1.363 . S
C610 C600 1.465 . S
C610 U606 2.847 . S
C610 O624 1.249 . S
C610 O625 1.202 . S
C611 C609 1.363 . S
C611 C613 1.408 . S
C611 C616 1.342 . S
C612 C613 1.310 . S
C612 C615 1.461 . S
C612 H632 0.932 . S
C613 C611 1.408 . S
C613 C612 1.310 . S
C613 H633 0.930 . S
C614 C615 1.474 . S
C614 C616 1.285 . S
C614 H634 0.929 . S
C615 C612 1.461 . S
C615 C614 1.474 . S
C616 C611 1.342 . S
C616 C614 1.285 . S
C616 H635 0.930 . S
C617 C620 1.424 . S
C617 C622 1.245 . S
C617 C623 1.428 . S
C618 C621 1.260 . S
C618 C622 1.477 . S
C618 H636 0.932 . S
C619 C620 1.384 . S
C619 C621 1.479 . S
C619 H637 0.929 . S
C620 C617 1.424 . S
C620 C619 1.384 . S
C620 H638 0.928 . S
C621 C618 1.260 . S
C621 C619 1.479 . S
C622 C617 1.245 . S
C622 C618 1.477 . S
C622 H639 0.932 . S
C623 U606 2.882 . S
C623 C617 1.428 . S
C623 O626 1.301 . S
C623 O627 1.282 . S
O624 U606 2.441 . S
O624 C610 1.249 . S
O625 U606 2.420 . S
O625 C610 1.202 . S
O626 U606 2.455 . S
O626 C623 1.301 . S
O627 U606 2.449 . S
O627 C623 1.282 . S
H628 C601 0.931 . S
H629 C603 0.929 . S
H630 C604 0.930 . S
H631 C605 0.931 . S
H632 C612 0.932 . S
H633 C613 0.930 . S
H634 C614 0.929 . S
H635 C616 0.930 . S
H636 C618 0.932 . S
H637 C619 0.929 . S
H638 C620 0.928 . S
H639 C622 0.932 . S
C640 C641 1.264 . S
C640 C645 1.479 . S
C640 C650 1.465 . S
C641 C640 1.264 . S
C641 C643 1.339 . S
C641 H668 0.931 . S
C642 C643 1.395 . S
C642 C644 1.320 . S
C643 C641 1.339 . S
C643 C642 1.395 . S
C643 H669 0.929 . S
C644 C642 1.320 . S
C644 C645 1.405 . S
C644 H670 0.930 . S
C645 C640 1.479 . S
C645 C644 1.405 . S
C645 H671 0.931 . S
U646 O647 2.454 . S
U646 O648 2.458 . S
U646 C649 2.984 . S
U646 C650 2.847 . S
U646 C663 2.882 . S
U646 O664 2.441 . S
U646 O665 2.420 . S
U646 O666 2.455 . S
U646 O667 2.449 . S
O647 U646 2.454 . S
O647 C649 1.353 . S
O648 U646 2.458 . S
O648 C649 1.286 . S
C649 U646 2.984 . S
C649 O647 1.353 . S
C649 O648 1.286 . S
C649 C651 1.363 . S
C650 C640 1.465 . S
C650 U646 2.847 . S
C650 O664 1.249 . S
C650 O665 1.202 . S
C651 C649 1.363 . S
C651 C653 1.408 . S
C651 C656 1.342 . S
C652 C653 1.310 . S
C652 C655 1.461 . S
C652 H672 0.932 . S
C653 C651 1.408 . S
C653 C652 1.310 . S
C653 H673 0.930 . S
C654 C655 1.474 . S
C654 C656 1.285 . S
C654 H674 0.929 . S
C655 C652 1.461 . S
C655 C654 1.474 . S
C656 C651 1.342 . S
C656 C654 1.285 . S
C656 H675 0.930 . S
C657 C660 1.424 . S
C657 C662 1.245 . S
C657 C663 1.428 . S
C658 C661 1.260 . S
C658 C662 1.477 . S
C658 H676 0.932 . S
C659 C660 1.384 . S
C659 C661 1.479 . S
C659 H677 0.929 . S
C660 C657 1.424 . S
C660 C659 1.384 . S
C660 H678 0.928 . S
C661 C658 1.260 . S
C661 C659 1.479 . S
C662 C657 1.245 . S
C662 C658 1.477 . S
C662 H679 0.932 . S
C663 U646 2.882 . S
C663 C657 1.428 . S
C663 O666 1.301 . S
C663 O667 1.282 . S
O664 U646 2.441 . S
O664 C650 1.249 . S
O665 U646 2.420 . S
O665 C650 1.202 . S
O666 U646 2.455 . S
O666 C663 1.301 . S
O667 U646 2.449 . S
O667 C663 1.282 . S
H668 C641 0.931 . S
H669 C643 0.929 . S
H670 C644 0.930 . S
H671 C645 0.931 . S
H672 C652 0.932 . S
H673 C653 0.930 . S
H674 C654 0.929 . S
H675 C656 0.930 . S
H676 C658 0.932 . S
H677 C659 0.929 . S
H678 C660 0.928 . S
H679 C662 0.932 . S
C680 C681 1.264 . S
C680 C685 1.479 . S
C680 C690 1.465 . S
C681 C680 1.264 . S
C681 C683 1.339 . S
C681 H708 0.931 . S
C682 C683 1.395 . S
C682 C684 1.320 . S
C683 C681 1.339 . S
C683 C682 1.395 . S
C683 H709 0.929 . S
C684 C682 1.320 . S
C684 C685 1.405 . S
C684 H710 0.930 . S
C685 C680 1.479 . S
C685 C684 1.405 . S
C685 H711 0.931 . S
U686 O687 2.454 . S
U686 O688 2.458 . S
U686 C689 2.984 . S
U686 C690 2.847 . S
U686 C703 2.882 . S
U686 O704 2.441 . S
U686 O705 2.420 . S
U686 O706 2.455 . S
U686 O707 2.449 . S
O687 U686 2.454 . S
O687 C689 1.353 . S
O688 U686 2.458 . S
O688 C689 1.286 . S
C689 U686 2.984 . S
C689 O687 1.353 . S
C689 O688 1.286 . S
C689 C691 1.363 . S
C690 C680 1.465 . S
C690 U686 2.847 . S
C690 O704 1.249 . S
C690 O705 1.202 . S
C691 C689 1.363 . S
C691 C693 1.408 . S
C691 C696 1.342 . S
C692 C693 1.310 . S
C692 C695 1.461 . S
C692 H712 0.932 . S
C693 C691 1.408 . S
C693 C692 1.310 . S
C693 H713 0.930 . S
C694 C695 1.474 . S
C694 C696 1.285 . S
C694 H714 0.929 . S
C695 C692 1.461 . S
C695 C694 1.474 . S
C696 C691 1.342 . S
C696 C694 1.285 . S
C696 H715 0.930 . S
C697 C700 1.424 . S
C697 C702 1.245 . S
C697 C703 1.428 . S
C698 C701 1.260 . S
C698 C702 1.477 . S
C698 H716 0.932 . S
C699 C700 1.384 . S
C699 C701 1.479 . S
C699 H717 0.929 . S
C700 C697 1.424 . S
C700 C699 1.384 . S
C700 H718 0.928 . S
C701 C698 1.260 . S
C701 C699 1.479 . S
C702 C697 1.245 . S
C702 C698 1.477 . S
C702 H719 0.932 . S
C703 U686 2.882 . S
C703 C697 1.428 . S
C703 O706 1.301 . S
C703 O707 1.282 . S
O704 U686 2.441 . S
O704 C690 1.249 . S
O705 U686 2.420 . S
O705 C690 1.202 . S
O706 U686 2.455 . S
O706 C703 1.301 . S
O707 U686 2.449 . S
O707 C703 1.282 . S
H708 C681 0.931 . S
H709 C683 0.929 . S
H710 C684 0.930 . S
H711 C685 0.931 . S
H712 C692 0.932 . S
H713 C693 0.930 . S
H714 C694 0.929 . S
H715 C696 0.930 . S
H716 C698 0.932 . S
H717 C699 0.929 . S
H718 C700 0.928 . S
H719 C702 0.932 . S
C720 C721 1.264 . S
C720 C725 1.479 . S
C720 C730 1.465 . S
C721 C720 1.264 . S
C721 C723 1.339 . S
C721 H748 0.931 . S
C722 C723 1.395 . S
C722 C724 1.320 . S
C723 C721 1.339 . S
C723 C722 1.395 . S
C723 H749 0.929 . S
C724 C722 1.320 . S
C724 C725 1.405 . S
C724 H750 0.930 . S
C725 C720 1.479 . S
C725 C724 1.405 . S
C725 H751 0.931 . S
U726 O727 2.454 . S
U726 O728 2.458 . S
U726 C729 2.984 . S
U726 C730 2.847 . S
U726 C743 2.882 . S
U726 O744 2.441 . S
U726 O745 2.420 . S
U726 O746 2.455 . S
U726 O747 2.449 . S
O727 U726 2.454 . S
O727 C729 1.353 . S
O728 U726 2.458 . S
O728 C729 1.286 . S
C729 U726 2.984 . S
C729 O727 1.353 . S
C729 O728 1.286 . S
C729 C731 1.363 . S
C730 C720 1.465 . S
C730 U726 2.847 . S
C730 O744 1.249 . S
C730 O745 1.202 . S
C731 C729 1.363 . S
C731 C733 1.408 . S
C731 C736 1.342 . S
C732 C733 1.310 . S
C732 C735 1.461 . S
C732 H752 0.932 . S
C733 C731 1.408 . S
C733 C732 1.310 . S
C733 H753 0.930 . S
C734 C735 1.474 . S
C734 C736 1.285 . S
C734 H754 0.929 . S
C735 C732 1.461 . S
C735 C734 1.474 . S
C736 C731 1.342 . S
C736 C734 1.285 . S
C736 H755 0.930 . S
C737 C740 1.424 . S
C737 C742 1.245 . S
C737 C743 1.428 . S
C738 C741 1.260 . S
C738 C742 1.477 . S
C738 H756 0.932 . S
C739 C740 1.384 . S
C739 C741 1.479 . S
C739 H757 0.929 . S
C740 C737 1.424 . S
C740 C739 1.384 . S
C740 H758 0.928 . S
C741 C738 1.260 . S
C741 C739 1.479 . S
C742 C737 1.245 . S
C742 C738 1.477 . S
C742 H759 0.932 . S
C743 U726 2.882 . S
C743 C737 1.428 . S
C743 O746 1.301 . S
C743 O747 1.282 . S
O744 U726 2.441 . S
O744 C730 1.249 . S
O745 U726 2.420 . S
O745 C730 1.202 . S
O746 U726 2.455 . S
O746 C743 1.301 . S
O747 U726 2.449 . S
O747 C743 1.282 . S
H748 C721 0.931 . S
H749 C723 0.929 . S
H750 C724 0.930 . S
H751 C725 0.931 . S
H752 C732 0.932 . S
H753 C733 0.930 . S
H754 C734 0.929 . S
H755 C736 0.930 . S
H756 C738 0.932 . S
H757 C739 0.929 . S
H758 C740 0.928 . S
H759 C742 0.932 . S
C760 C761 1.264 . S
C760 C765 1.479 . S
C760 C770 1.465 . S
C761 C760 1.264 . S
C761 C763 1.339 . S
C761 H788 0.931 . S
C762 C763 1.395 . S
C762 C764 1.320 . S
C763 C761 1.339 . S
C763 C762 1.395 . S
C763 H789 0.929 . S
C764 C762 1.320 . S
C764 C765 1.405 . S
C764 H790 0.930 . S
C765 C760 1.479 . S
C765 C764 1.405 . S
C765 H791 0.931 . S
U766 O767 2.454 . S
U766 O768 2.458 . S
U766 C769 2.984 . S
U766 C770 2.847 . S
U766 C783 2.882 . S
U766 O784 2.441 . S
U766 O785 2.420 . S
U766 O786 2.455 . S
U766 O787 2.449 . S
O767 U766 2.454 . S
O767 C769 1.353 . S
O768 U766 2.458 . S
O768 C769 1.286 . S
C769 U766 2.984 . S
C769 O767 1.353 . S
C769 O768 1.286 . S
C769 C771 1.363 . S
C770 C760 1.465 . S
C770 U766 2.847 . S
C770 O784 1.249 . S
C770 O785 1.202 . S
C771 C769 1.363 . S
C771 C773 1.408 . S
C771 C776 1.342 . S
C772 C773 1.310 . S
C772 C775 1.461 . S
C772 H792 0.932 . S
C773 C771 1.408 . S
C773 C772 1.310 . S
C773 H793 0.930 . S
C774 C775 1.474 . S
C774 C776 1.285 . S
C774 H794 0.929 . S
C775 C772 1.461 . S
C775 C774 1.474 . S
C776 C771 1.342 . S
C776 C774 1.285 . S
C776 H795 0.930 . S
C777 C780 1.424 . S
C777 C782 1.245 . S
C777 C783 1.428 . S
C778 C781 1.260 . S
C778 C782 1.477 . S
C778 H796 0.932 . S
C779 C780 1.384 . S
C779 C781 1.479 . S
C779 H797 0.929 . S
C780 C777 1.424 . S
C780 C779 1.384 . S
C780 H798 0.928 . S
C781 C778 1.260 . S
C781 C779 1.479 . S
C782 C777 1.245 . S
C782 C778 1.477 . S
C782 H799 0.932 . S
C783 U766 2.882 . S
C783 C777 1.428 . S
C783 O786 1.301 . S
C783 O787 1.282 . S
O784 U766 2.441 . S
O784 C770 1.249 . S
O785 U766 2.420 . S
O785 C770 1.202 . S
O786 U766 2.455 . S
O786 C783 1.301 . S
O787 U766 2.449 . S
O787 C783 1.282 . S
H788 C761 0.931 . S
H789 C763 0.929 . S
H790 C764 0.930 . S
H791 C765 0.931 . S
H792 C772 0.932 . S
H793 C773 0.930 . S
H794 C774 0.929 . S
H795 C776 0.930 . S
H796 C778 0.932 . S
H797 C779 0.929 . S
H798 C780 0.928 . S
H799 C782 0.932 . S
C800 C801 1.264 . S
C800 C805 1.479 . S
C800 C810 1.465 . S
C801 C800 1.264 . S
C801 C803 1.339 . S
C801 H828 0.931 . S
C802 C803 1.395 . S
C802 C804 1.320 . S
C803 C801 1.339 . S
C803 C802 1.395 . S
C803 H829 0.929 . S
C804 C802 1.320 . S
C804 C805 1.405 . S
C804 H830 0.930 . S
C805 C800 1.479 . S
C805 C804 1.405 . S
C805 H831 0.931 . S
U806 O807 2.454 . S
U806 O808 2.458 . S
U806 C809 2.984 . S
U806 C810 2.847 . S
U806 C823 2.882 . S
U806 O824 2.441 . S
U806 O825 2.420 . S
U806 O826 2.455 . S
U806 O827 2.449 . S
O807 U806 2.454 . S
O807 C809 1.353 . S
O808 U806 2.458 . S
O808 C809 1.286 . S
C809 U806 2.984 . S
C809 O807 1.353 . S
C809 O808 1.286 . S
C809 C811 1.363 . S
C810 C800 1.465 . S
C810 U806 2.847 . S
C810 O824 1.249 . S
C810 O825 1.202 . S
C811 C809 1.363 . S
C811 C813 1.408 . S
C811 C816 1.342 . S
C812 C813 1.310 . S
C812 C815 1.461 . S
C812 H832 0.932 . S
C813 C811 1.408 . S
C813 C812 1.310 . S
C813 H833 0.930 . S
C814 C815 1.474 . S
C814 C816 1.285 . S
C814 H834 0.929 . S
C815 C812 1.461 . S
C815 C814 1.474 . S
C816 C811 1.342 . S
C816 C814 1.285 . S
C816 H835 0.930 . S
C817 C820 1.424 . S
C817 C822 1.245 . S
C817 C823 1.428 . S
C818 C821 1.260 . S
C818 C822 1.477 . S
C818 H836 0.932 . S
C819 C820 1.384 . S
C819 C821 1.479 . S
C819 H837 0.929 . S
C820 C817 1.424 . S
C820 C819 1.384 . S
C820 H838 0.928 . S
C821 C818 1.260 . S
C821 C819 1.479 . S
C822 C817 1.245 . S
C822 C818 1.477 . S
C822 H839 0.932 . S
C823 U806 2.882 . S
C823 C817 1.428 . S
C823 O826 1.301 . S
C823 O827 1.282 . S
O824 U806 2.441 . S
O824 C810 1.249 . S
O825 U806 2.420 . S
O825 C810 1.202 . S
O826 U806 2.455 . S
O826 C823 1.301 . S
O827 U806 2.449 . S
O827 C823 1.282 . S
H828 C801 0.931 . S
H829 C803 0.929 . S
H830 C804 0.930 . S
H831 C805 0.931 . S
H832 C812 0.932 . S
H833 C813 0.930 . S
H834 C814 0.929 . S
H835 C816 0.930 . S
H836 C818 0.932 . S
H837 C819 0.929 . S
H838 C820 0.928 . S
H839 C822 0.932 . S
C840 C841 1.264 . S
C840 C845 1.479 . S
C840 C850 1.465 . S
C841 C840 1.264 . S
C841 C843 1.339 . S
C841 H868 0.931 . S
C842 C843 1.395 . S
C842 C844 1.320 . S
C843 C841 1.339 . S
C843 C842 1.395 . S
C843 H869 0.929 . S
C844 C842 1.320 . S
C844 C845 1.405 . S
C844 H870 0.930 . S
C845 C840 1.479 . S
C845 C844 1.405 . S
C845 H871 0.931 . S
U846 O847 2.454 . S
U846 O848 2.458 . S
U846 C849 2.984 . S
U846 C850 2.847 . S
U846 C863 2.882 . S
U846 O864 2.441 . S
U846 O865 2.420 . S
U846 O866 2.455 . S
U846 O867 2.449 . S
O847 U846 2.454 . S
O847 C849 1.353 . S
O848 U846 2.458 . S
O848 C849 1.286 . S
C849 U846 2.984 . S
C849 O847 1.353 . S
C849 O848 1.286 . S
C849 C851 1.363 . S
C850 C840 1.465 . S
C850 U846 2.847 . S
C850 O864 1.249 . S
C850 O865 1.202 . S
C851 C849 1.363 . S
C851 C853 1.408 . S
C851 C856 1.342 . S
C852 C853 1.310 . S
C852 C855 1.461 . S
C852 H872 0.932 . S
C853 C851 1.408 . S
C853 C852 1.310 . S
C853 H873 0.930 . S
C854 C855 1.474 . S
C854 C856 1.285 . S
C854 H874 0.929 . S
C855 C852 1.461 . S
C855 C854 1.474 . S
C856 C851 1.342 . S
C856 C854 1.285 . S
C856 H875 0.930 . S
C857 C860 1.424 . S
C857 C862 1.245 . S
C857 C863 1.428 . S
C858 C861 1.260 . S
C858 C862 1.477 . S
C858 H876 0.932 . S
C859 C860 1.384 . S
C859 C861 1.479 . S
C859 H877 0.929 . S
C860 C857 1.424 . S
C860 C859 1.384 . S
C860 H878 0.928 . S
C861 C858 1.260 . S
C861 C859 1.479 . S
C862 C857 1.245 . S
C862 C858 1.477 . S
C862 H879 0.932 . S
C863 U846 2.882 . S
C863 C857 1.428 . S
C863 O866 1.301 . S
C863 O867 1.282 . S
O864 U846 2.441 . S
O864 C850 1.249 . S
O865 U846 2.420 . S
O865 C850 1.202 . S
O866 U846 2.455 . S
O866 C863 1.301 . S
O867 U846 2.449 . S
O867 C863 1.282 . S
H868 C841 0.931 . S
H869 C843 0.929 . S
H870 C844 0.930 . S
H871 C845 0.931 . S
H872 C852 0.932 . S
H873 C853 0.930 . S
H874 C854 0.929 . S
H875 C856 0.930 . S
H876 C858 0.932 . S
H877 C859 0.929 . S
H878 C860 0.928 . S
H879 C862 0.932 . S
C880 C881 1.264 . S
C880 C885 1.479 . S
C880 C890 1.465 . S
C881 C880 1.264 . S
C881 C883 1.339 . S
C881 H908 0.931 . S
C882 C883 1.395 . S
C882 C884 1.320 . S
C883 C881 1.339 . S
C883 C882 1.395 . S
C883 H909 0.929 . S
C884 C882 1.320 . S
C884 C885 1.405 . S
C884 H910 0.930 . S
C885 C880 1.479 . S
C885 C884 1.405 . S
C885 H911 0.931 . S
U886 O887 2.454 . S
U886 O888 2.458 . S
U886 C889 2.984 . S
U886 C890 2.847 . S
U886 C903 2.882 . S
U886 O904 2.441 . S
U886 O905 2.420 . S
U886 O906 2.455 . S
U886 O907 2.449 . S
O887 U886 2.454 . S
O887 C889 1.353 . S
O888 U886 2.458 . S
O888 C889 1.286 . S
C889 U886 2.984 . S
C889 O887 1.353 . S
C889 O888 1.286 . S
C889 C891 1.363 . S
C890 C880 1.465 . S
C890 U886 2.847 . S
C890 O904 1.249 . S
C890 O905 1.202 . S
C891 C889 1.363 . S
C891 C893 1.408 . S
C891 C896 1.342 . S
C892 C893 1.310 . S
C892 C895 1.461 . S
C892 H912 0.932 . S
C893 C891 1.408 . S
C893 C892 1.310 . S
C893 H913 0.930 . S
C894 C895 1.474 . S
C894 C896 1.285 . S
C894 H914 0.929 . S
C895 C892 1.461 . S
C895 C894 1.474 . S
C896 C891 1.342 . S
C896 C894 1.285 . S
C896 H915 0.930 . S
C897 C900 1.424 . S
C897 C902 1.245 . S
C897 C903 1.428 . S
C898 C901 1.260 . S
C898 C902 1.477 . S
C898 H916 0.932 . S
C899 C900 1.384 . S
C899 C901 1.479 . S
C899 H917 0.929 . S
C900 C897 1.424 . S
C900 C899 1.384 . S
C900 H918 0.928 . S
C901 C898 1.260 . S
C901 C899 1.479 . S
C902 C897 1.245 . S
C902 C898 1.477 . S
C902 H919 0.932 . S
C903 U886 2.882 . S
C903 C897 1.428 . S
C903 O906 1.301 . S
C903 O907 1.282 . S
O904 U886 2.441 . S
O904 C890 1.249 . S
O905 U886 2.420 . S
O905 C890 1.202 . S
O906 U886 2.455 . S
O906 C903 1.301 . S
O907 U886 2.449 . S
O907 C903 1.282 . S
H908 C881 0.931 . S
H909 C883 0.929 . S
H910 C884 0.930 . S
H911 C885 0.931 . S
H912 C892 0.932 . S
H913 C893 0.930 . S
H914 C894 0.929 . S
H915 C896 0.930 . S
H916 C898 0.932 . S
H917 C899 0.929 . S
H918 C900 0.928 . S
H919 C902 0.932 . S
C920 C921 1.264 . S
C920 C925 1.479 . S
C920 C930 1.465 . S
C921 C920 1.264 . S
C921 C923 1.339 . S
C921 H948 0.931 . S
C922 C923 1.395 . S
C922 C924 1.320 . S
C923 C921 1.339 . S
C923 C922 1.395 . S
C923 H949 0.929 . S
C924 C922 1.320 . S
C924 C925 1.405 . S
C924 H950 0.930 . S
C925 C920 1.479 . S
C925 C924 1.405 . S
C925 H951 0.931 . S
U926 O927 2.454 . S
U926 O928 2.458 . S
U926 C929 2.984 . S
U926 C930 2.847 . S
U926 C943 2.882 . S
U926 O944 2.441 . S
U926 O945 2.420 . S
U926 O946 2.455 . S
U926 O947 2.449 . S
O927 U926 2.454 . S
O927 C929 1.353 . S
O928 U926 2.458 . S
O928 C929 1.286 . S
C929 U926 2.984 . S
C929 O927 1.353 . S
C929 O928 1.286 . S
C929 C931 1.363 . S
C930 C920 1.465 . S
C930 U926 2.847 . S
C930 O944 1.249 . S
C930 O945 1.202 . S
C931 C929 1.363 . S
C931 C933 1.408 . S
C931 C936 1.342 . S
C932 C933 1.310 . S
C932 C935 1.461 . S
C932 H952 0.932 . S
C933 C931 1.408 . S
C933 C932 1.310 . S
C933 H953 0.930 . S
C934 C935 1.474 . S
C934 C936 1.285 . S
C934 H954 0.929 . S
C935 C932 1.461 . S
C935 C934 1.474 . S
C936 C931 1.342 . S
C936 C934 1.285 . S
C936 H955 0.930 . S
C937 C940 1.424 . S
C937 C942 1.245 . S
C937 C943 1.428 . S
C938 C941 1.260 . S
C938 C942 1.477 . S
C938 H956 0.932 . S
C939 C940 1.384 . S
C939 C941 1.479 . S
C939 H957 0.929 . S
C940 C937 1.424 . S
C940 C939 1.384 . S
C940 H958 0.928 . S
C941 C938 1.260 . S
C941 C939 1.479 . S
C942 C937 1.245 . S
C942 C938 1.477 . S
C942 H959 0.932 . S
C943 U926 2.882 . S
C943 C937 1.428 . S
C943 O946 1.301 . S
C943 O947 1.282 . S
O944 U926 2.441 . S
O944 C930 1.249 . S
O945 U926 2.420 . S
O945 C930 1.202 . S
O946 U926 2.455 . S
O946 C943 1.301 . S
O947 U926 2.449 . S
O947 C943 1.282 . S
H948 C921 0.931 . S
H949 C923 0.929 . S
H950 C924 0.930 . S
H951 C925 0.931 . S
H952 C932 0.932 . S
H953 C933 0.930 . S
H954 C934 0.929 . S
H955 C936 0.930 . S
H956 C938 0.932 . S
H957 C939 0.929 . S
H958 C940 0.928 . S
H959 C942 0.932 . S
C960 C961 1.264 . S
C960 C965 1.479 . S
C960 C970 1.465 . S
C961 C960 1.264 . S
C961 C963 1.339 . S
C961 H988 0.931 . S
C962 C963 1.395 . S
C962 C964 1.320 . S
C963 C961 1.339 . S
C963 C962 1.395 . S
C963 H989 0.929 . S
C964 C962 1.320 . S
C964 C965 1.405 . S
C964 H990 0.930 . S
C965 C960 1.479 . S
C965 C964 1.405 . S
C965 H991 0.931 . S
U966 O967 2.454 . S
U966 O968 2.458 . S
U966 C969 2.984 . S
U966 C970 2.847 . S
U966 C983 2.882 . S
U966 O984 2.441 . S
U966 O985 2.420 . S
U966 O986 2.455 . S
U966 O987 2.449 . S
O967 U966 2.454 . S
O967 C969 1.353 . S
O968 U966 2.458 . S
O968 C969 1.286 . S
C969 U966 2.984 . S
C969 O967 1.353 . S
C969 O968 1.286 . S
C969 C971 1.363 . S
C970 C960 1.465 . S
C970 U966 2.847 . S
C970 O984 1.249 . S
C970 O985 1.202 . S
C971 C969 1.363 . S
C971 C973 1.408 . S
C971 C976 1.342 . S
C972 C973 1.310 . S
C972 C975 1.461 . S
C972 H992 0.932 . S
C973 C971 1.408 . S
C973 C972 1.310 . S
C973 H993 0.930 . S
C974 C975 1.474 . S
C974 C976 1.285 . S
C974 H994 0.929 . S
C975 C972 1.461 . S
C975 C974 1.474 . S
C976 C971 1.342 . S
C976 C974 1.285 . S
C976 H995 0.930 . S
C977 C980 1.424 . S
C977 C982 1.245 . S
C977 C983 1.428 . S
C978 C981 1.260 . S
C978 C982 1.477 . S
C978 H996 0.932 . S
C979 C980 1.384 . S
C979 C981 1.479 . S
C979 H997 0.929 . S
C980 C977 1.424 . S
C980 C979 1.384 . S
C980 H998 0.928 . S
C981 C978 1.260 . S
C981 C979 1.479 . S
C982 C977 1.245 . S
C982 C978 1.477 . S
C982 H999 0.932 . S
C983 U966 2.882 . S
C983 C977 1.428 . S
C983 O986 1.301 . S
C983 O987 1.282 . S
O984 U966 2.441 . S
O984 C970 1.249 . S
O985 U966 2.420 . S
O985 C970 1.202 . S
O986 U966 2.455 . S
O986 C983 1.301 . S
O987 U966 2.449 . S
O987 C983 1.282 . S
H988 C961 0.931 . S
H989 C963 0.929 . S
H990 C964 0.930 . S
H991 C965 0.931 . S
H992 C972 0.932 . S
H993 C973 0.930 . S
H994 C974 0.929 . S
H995 C976 0.930 . S
H996 C978 0.932 . S
H997 C979 0.929 . S
H998 C980 0.928 . S
H999 C982 0.932 . S
C1000 C1001 1.264 . S
C1000 C1005 1.479 . S
C1000 C1010 1.465 . S
C1001 C1000 1.264 . S
C1001 C1003 1.339 . S
C1001 H1028 0.931 . S
C1002 C1003 1.395 . S
C1002 C1004 1.320 . S
C1003 C1001 1.339 . S
C1003 C1002 1.395 . S
C1003 H1029 0.929 . S
C1004 C1002 1.320 . S
C1004 C1005 1.405 . S
C1004 H1030 0.930 . S
C1005 C1000 1.479 . S
C1005 C1004 1.405 . S
C1005 H1031 0.931 . S
U1006 O1007 2.454 . S
U1006 O1008 2.458 . S
U1006 C1009 2.984 . S
U1006 C1010 2.847 . S
U1006 C1023 2.882 . S
U1006 O1024 2.441 . S
U1006 O1025 2.420 . S
U1006 O1026 2.455 . S
U1006 O1027 2.449 . S
O1007 U1006 2.454 . S
O1007 C1009 1.353 . S
O1008 U1006 2.458 . S
O1008 C1009 1.286 . S
C1009 U1006 2.984 . S
C1009 O1007 1.353 . S
C1009 O1008 1.286 . S
C1009 C1011 1.363 . S
C1010 C1000 1.465 . S
C1010 U1006 2.847 . S
C1010 O1024 1.249 . S
C1010 O1025 1.202 . S
C1011 C1009 1.363 . S
C1011 C1013 1.408 . S
C1011 C1016 1.342 . S
C1012 C1013 1.310 . S
C1012 C1015 1.461 . S
C1012 H1032 0.932 . S
C1013 C1011 1.408 . S
C1013 C1012 1.310 . S
C1013 H1033 0.930 . S
C1014 C1015 1.474 . S
C1014 C1016 1.285 . S
C1014 H1034 0.929 . S
C1015 C1012 1.461 . S
C1015 C1014 1.474 . S
C1016 C1011 1.342 . S
C1016 C1014 1.285 . S
C1016 H1035 0.930 . S
C1017 C1020 1.424 . S
C1017 C1022 1.245 . S
C1017 C1023 1.428 . S
C1018 C1021 1.260 . S
C1018 C1022 1.477 . S
C1018 H1036 0.932 . S
C1019 C1020 1.384 . S
C1019 C1021 1.479 . S
C1019 H1037 0.929 . S
C1020 C1017 1.424 . S
C1020 C1019 1.384 . S
C1020 H1038 0.928 . S
C1021 C1018 1.260 . S
C1021 C1019 1.479 . S
C1022 C1017 1.245 . S
C1022 C1018 1.477 . S
C1022 H1039 0.932 . S
C1023 U1006 2.882 . S
C1023 C1017 1.428 . S
C1023 O1026 1.301 . S
C1023 O1027 1.282 . S
O1024 U1006 2.441 . S
O1024 C1010 1.249 . S
O1025 U1006 2.420 . S
O1025 C1010 1.202 . S
O1026 U1006 2.455 . S
O1026 C1023 1.301 . S
O1027 U1006 2.449 . S
O1027 C1023 1.282 . S
H1028 C1001 0.931 . S
H1029 C1003 0.929 . S
H1030 C1004 0.930 . S
H1031 C1005 0.931 . S
H1032 C1012 0.932 . S
H1033 C1013 0.930 . S
H1034 C1014 0.929 . S
H1035 C1016 0.930 . S
H1036 C1018 0.932 . S
H1037 C1019 0.929 . S
H1038 C1020 0.928 . S
H1039 C1022 0.932 . S
C1040 C1041 1.264 . S
C1040 C1045 1.479 . S
C1040 C1050 1.465 . S
C1041 C1040 1.264 . S
C1041 C1043 1.339 . S
C1041 H1068 0.931 . S
C1042 C1043 1.395 . S
C1042 C1044 1.320 . S
C1043 C1041 1.339 . S
C1043 C1042 1.395 . S
C1043 H1069 0.929 . S
C1044 C1042 1.320 . S
C1044 C1045 1.405 . S
C1044 H1070 0.930 . S
C1045 C1040 1.479 . S
C1045 C1044 1.405 . S
C1045 H1071 0.931 . S
U1046 O1047 2.454 . S
U1046 O1048 2.458 . S
U1046 C1049 2.984 . S
U1046 C1050 2.847 . S
U1046 C1063 2.882 . S
U1046 O1064 2.441 . S
U1046 O1065 2.420 . S
U1046 O1066 2.455 . S
U1046 O1067 2.449 . S
O1047 U1046 2.454 . S
O1047 C1049 1.353 . S
O1048 U1046 2.458 . S
O1048 C1049 1.286 . S
C1049 U1046 2.984 . S
C1049 O1047 1.353 . S
C1049 O1048 1.286 . S
C1049 C1051 1.363 . S
C1050 C1040 1.465 . S
C1050 U1046 2.847 . S
C1050 O1064 1.249 . S
C1050 O1065 1.202 . S
C1051 C1049 1.363 . S
C1051 C1053 1.408 . S
C1051 C1056 1.342 . S
C1052 C1053 1.310 . S
C1052 C1055 1.461 . S
C1052 H1072 0.932 . S
C1053 C1051 1.408 . S
C1053 C1052 1.310 . S
C1053 H1073 0.930 . S
C1054 C1055 1.474 . S
C1054 C1056 1.285 . S
C1054 H1074 0.929 . S
C1055 C1052 1.461 . S
C1055 C1054 1.474 . S
C1056 C1051 1.342 . S
C1056 C1054 1.285 . S
C1056 H1075 0.930 . S
C1057 C1060 1.424 . S
C1057 C1062 1.245 . S
C1057 C1063 1.428 . S
C1058 C1061 1.260 . S
C1058 C1062 1.477 . S
C1058 H1076 0.932 . S
C1059 C1060 1.384 . S
C1059 C1061 1.479 . S
C1059 H1077 0.929 . S
C1060 C1057 1.424 . S
C1060 C1059 1.384 . S
C1060 H1078 0.928 . S
C1061 C1058 1.260 . S
C1061 C1059 1.479 . S
C1062 C1057 1.245 . S
C1062 C1058 1.477 . S
C1062 H1079 0.932 . S
C1063 U1046 2.882 . S
C1063 C1057 1.428 . S
C1063 O1066 1.301 . S
C1063 O1067 1.282 . S
O1064 U1046 2.441 . S
O1064 C1050 1.249 . S
O1065 U1046 2.420 . S
O1065 C1050 1.202 . S
O1066 U1046 2.455 . S
O1066 C1063 1.301 . S
O1067 U1046 2.449 . S
O1067 C1063 1.282 . S
H1068 C1041 0.931 . S
H1069 C1043 0.929 . S
H1070 C1044 0.930 . S
H1071 C1045 0.931 . S
H1072 C1052 0.932 . S
H1073 C1053 0.930 . S
H1074 C1054 0.929 . S
H1075 C1056 0.930 . S
H1076 C1058 0.932 . S
H1077 C1059 0.929 . S
H1078 C1060 0.928 . S
H1079 C1062 0.932 . S
C1080 C1081 1.264 . S
C1080 C1085 1.479 . S
C1080 C1090 1.465 . S
C1081 C1080 1.264 . S
C1081 C1083 1.339 . S
C1081 H1108 0.931 . S
C1082 C1083 1.395 . S
C1082 C1084 1.320 . S
C1083 C1081 1.339 . S
C1083 C1082 1.395 . S
C1083 H1109 0.929 . S
C1084 C1082 1.320 . S
C1084 C1085 1.405 . S
C1084 H1110 0.930 . S
C1085 C1080 1.479 . S
C1085 C1084 1.405 . S
C1085 H1111 0.931 . S
U1086 O1087 2.454 . S
U1086 O1088 2.458 . S
U1086 C1089 2.984 . S
U1086 C1090 2.847 . S
U1086 C1103 2.882 . S
U1086 O1104 2.441 . S
U1086 O1105 2.420 . S
U1086 O1106 2.455 . S
U1086 O1107 2.449 . S
O1087 U1086 2.454 . S
O1087 C1089 1.353 . S
O1088 U1086 2.458 . S
O1088 C1089 1.286 . S
C1089 U1086 2.984 . S
C1089 O1087 1.353 . S
C1089 O1088 1.286 . S
C1089 C1091 1.363 . S
C1090 C1080 1.465 . S
C1090 U1086 2.847 . S
C1090 O1104 1.249 . S
C1090 O1105 1.202 . S
C1091 C1089 1.363 . S
C1091 C1093 1.408 . S
C1091 C1096 1.342 . S
C1092 C1093 1.310 . S
C1092 C1095 1.461 . S
C1092 H1112 0.932 . S
C1093 C1091 1.408 . S
C1093 C1092 1.310 . S
C1093 H1113 0.930 . S
C1094 C1095 1.474 . S
C1094 C1096 1.285 . S
C1094 H1114 0.929 . S
C1095 C1092 1.461 . S
C1095 C1094 1.474 . S
C1096 C1091 1.342 . S
C1096 C1094 1.285 . S
C1096 H1115 0.930 . S
C1097 C1100 1.424 . S
C1097 C1102 1.245 . S
C1097 C1103 1.428 . S
C1098 C1101 1.260 . S
C1098 C1102 1.477 . S
C1098 H1116 0.932 . S
C1099 C1100 1.384 . S
C1099 C1101 1.479 . S
C1099 H1117 0.929 . S
C1100 C1097 1.424 . S
C1100 C1099 1.384 . S
C1100 H1118 0.928 . S
C1101 C1098 1.260 . S
C1101 C1099 1.479 . S
C1102 C1097 1.245 . S
C1102 C1098 1.477 . S
C1102 H1119 0.932 . S
C1103 U1086 2.882 . S
C1103 C1097 1.428 . S
C1103 O1106 1.301 . S
C1103 O1107 1.282 . S
O1104 U1086 2.441 . S
O1104 C1090 1.249 . S
O1105 U1086 2.420 . S
O1105 C1090 1.202 . S
O1106 U1086 2.455 . S
O1106 C1103 1.301 . S
O1107 U1086 2.449 . S
O1107 C1103 1.282 . S
H1108 C1081 0.931 . S
H1109 C1083 0.929 . S
H1110 C1084 0.930 . S
H1111 C1085 0.931 . S
H1112 C1092 0.932 . S
H1113 C1093 0.930 . S
H1114 C1094 0.929 . S
H1115 C1096 0.930 . S
H1116 C1098 0.932 . S
H1117 C1099 0.929 . S
H1118 C1100 0.928 . S
H1119 C1102 0.932 . S
C1120 C1121 1.264 . S
C1120 C1125 1.479 . S
C1120 C1130 1.465 . S
C1121 C1120 1.264 . S
C1121 C1123 1.339 . S
C1121 H1148 0.931 . S
C1122 C1123 1.395 . S
C1122 C1124 1.320 . S
C1123 C1121 1.339 . S
C1123 C1122 1.395 . S
C1123 H1149 0.929 . S
C1124 C1122 1.320 . S
C1124 C1125 1.405 . S
C1124 H1150 0.930 . S
C1125 C1120 1.479 . S
C1125 C1124 1.405 . S
C1125 H1151 0.931 . S
U1126 O1127 2.454 . S
U1126 O1128 2.458 . S
U1126 C1129 2.984 . S
U1126 C1130 2.847 . S
U1126 C1143 2.882 . S
U1126 O1144 2.441 . S
U1126 O1145 2.420 . S
U1126 O1146 2.455 . S
U1126 O1147 2.449 . S
O1127 U1126 2.454 . S
O1127 C1129 1.353 . S
O1128 U1126 2.458 . S
O1128 C1129 1.286 . S
C1129 U1126 2.984 . S
C1129 O1127 1.353 . S
C1129 O1128 1.286 . S
C1129 C1131 1.363 . S
C1130 C1120 1.465 . S
C1130 U1126 2.847 . S
C1130 O1144 1.249 . S
C1130 O1145 1.202 . S
C1131 C1129 1.363 . S
C1131 C1133 1.408 . S
C1131 C1136 1.342 . S
C1132 C1133 1.310 . S
C1132 C1135 1.461 . S
C1132 H1152 0.932 . S
C1133 C1131 1.408 . S
C1133 C1132 1.310 . S
C1133 H1153 0.930 . S
C1134 C1135 1.474 . S
C1134 C1136 1.285 . S
C1134 H1154 0.929 . S
C1135 C1132 1.461 . S
C1135 C1134 1.474 . S
C1136 C1131 1.342 . S
C1136 C1134 1.285 . S
C1136 H1155 0.930 . S
C1137 C1140 1.424 . S
C1137 C1142 1.245 . S
C1137 C1143 1.428 . S
C1138 C1141 1.260 . S
C1138 C1142 1.477 . S
C1138 H1156 0.932 . S
C1139 C1140 1.384 . S
C1139 C1141 1.479 . S
C1139 H1157 0.929 . S
C1140 C1137 1.424 . S
C1140 C1139 1.384 . S
C1140 H1158 0.928 . S
C1141 C1138 1.260 . S
C1141 C1139 1.479 . S
C1142 C1137 1.245 . S
C1142 C1138 1.477 . S
C1142 H1159 0.932 . S
C1143 U1126 2.882 . S
C1143 C1137 1.428 . S
C1143 O1146 1.301 . S
C1143 O1147 1.282 . S
O1144 U1126 2.441 . S
O1144 C1130 1.249 . S
O1145 U1126 2.420 . S
O1145 C1130 1.202 . S
O1146 U1126 2.455 . S
O1146 C1143 1.301 . S
O1147 U1126 2.449 . S
O1147 C1143 1.282 . S
H1148 C1121 0.931 . S
H1149 C1123 0.929 . S
H1150 C1124 0.930 . S
H1151 C1125 0.931 . S
H1152 C1132 0.932 . S
H1153 C1133 0.930 . S
H1154 C1134 0.929 . S
H1155 C1136 0.930 . S
H1156 C1138 0.932 . S
H1157 C1139 0.929 . S
H1158 C1140 0.928 . S
H1159 C1142 0.932 . S
C1160 C1161 1.264 . S
C1160 C1165 1.479 . S
C1160 C1170 1.465 . S
C1161 C1160 1.264 . S
C1161 C1163 1.339 . S
C1161 H1188 0.931 . S
C1162 C1163 1.395 . S
C1162 C1164 1.320 . S
C1163 C1161 1.339 . S
C1163 C1162 1.395 . S
C1163 H1189 0.929 . S
C1164 C1162 1.320 . S
C1164 C1165 1.405 . S
C1164 H1190 0.930 . S
C1165 C1160 1.479 . S
C1165 C1164 1.405 . S
C1165 H1191 0.931 . S
U1166 O1167 2.454 . S
U1166 O1168 2.458 . S
U1166 C1169 2.984 . S
U1166 C1170 2.847 . S
U1166 C1183 2.882 . S
U1166 O1184 2.441 . S
U1166 O1185 2.420 . S
U1166 O1186 2.455 . S
U1166 O1187 2.449 . S
O1167 U1166 2.454 . S
O1167 C1169 1.353 . S
O1168 U1166 2.458 . S
O1168 C1169 1.286 . S
C1169 U1166 2.984 . S
C1169 O1167 1.353 . S
C1169 O1168 1.286 . S
C1169 C1171 1.363 . S
C1170 C1160 1.465 . S
C1170 U1166 2.847 . S
C1170 O1184 1.249 . S
C1170 O1185 1.202 . S
C1171 C1169 1.363 . S
C1171 C1173 1.408 . S
C1171 C1176 1.342 . S
C1172 C1173 1.310 . S
C1172 C1175 1.461 . S
C1172 H1192 0.932 . S
C1173 C1171 1.408 . S
C1173 C1172 1.310 . S
C1173 H1193 0.930 . S
C1174 C1175 1.474 . S
C1174 C1176 1.285 . S
C1174 H1194 0.929 . S
C1175 C1172 1.461 . S
C1175 C1174 1.474 . S
C1176 C1171 1.342 . S
C1176 C1174 1.285 . S
C1176 H1195 0.930 . S
C1177 C1180 1.424 . S
C1177 C1182 1.245 . S
C1177 C1183 1.428 . S
C1178 C1181 1.260 . S
C1178 C1182 1.477 . S
C1178 H1196 0.932 . S
C1179 C1180 1.384 . S
C1179 C1181 1.479 . S
C1179 H1197 0.929 . S
C1180 C1177 1.424 . S
C1180 C1179 1.384 . S
C1180 H1198 0.928 . S
C1181 C1178 1.260 . S
C1181 C1179 1.479 . S
C1182 C1177 1.245 . S
C1182 C1178 1.477 . S
C1182 H1199 0.932 . S
C1183 U1166 2.882 . S
C1183 C1177 1.428 . S
C1183 O1186 1.301 . S
C1183 O1187 1.282 . S
O1184 U1166 2.441 . S
O1184 C1170 1.249 . S
O1185 U1166 2.420 . S
O1185 C1170 1.202 . S
O1186 U1166 2.455 . S
O1186 C1183 1.301 . S
O1187 U1166 2.449 . S
O1187 C1183 1.282 . S
H1188 C1161 0.931 . S
H1189 C1163 0.929 . S
H1190 C1164 0.930 . S
H1191 C1165 0.931 . S
H1192 C1172 0.932 . S
H1193 C1173 0.930 . S
H1194 C1174 0.929 . S
H1195 C1176 0.930 . S
H1196 C1178 0.932 . S
H1197 C1179 0.929 . S
H1198 C1180 0.928 . S
H1199 C1182 0.932 . S
C1200 C1201 1.264 . S
C1200 C1205 1.479 . S
C1200 C1210 1.465 . S
C1201 C1200 1.264 . S
C1201 C1203 1.339 . S
C1201 H1228 0.931 . S
C1202 C1203 1.395 . S
C1202 C1204 1.320 . S
C1203 C1201 1.339 . S
C1203 C1202 1.395 . S
C1203 H1229 0.929 . S
C1204 C1202 1.320 . S
C1204 C1205 1.405 . S
C1204 H1230 0.930 . S
C1205 C1200 1.479 . S
C1205 C1204 1.405 . S
C1205 H1231 0.931 . S
U1206 O1207 2.454 . S
U1206 O1208 2.458 . S
U1206 C1209 2.984 . S
U1206 C1210 2.847 . S
U1206 C1223 2.882 . S
U1206 O1224 2.441 . S
U1206 O1225 2.420 . S
U1206 O1226 2.455 . S
U1206 O1227 2.449 . S
O1207 U1206 2.454 . S
O1207 C1209 1.353 . S
O1208 U1206 2.458 . S
O1208 C1209 1.286 . S
C1209 U1206 2.984 . S
C1209 O1207 1.353 . S
C1209 O1208 1.286 . S
C1209 C1211 1.363 . S
C1210 C1200 1.465 . S
C1210 U1206 2.847 . S
C1210 O1224 1.249 . S
C1210 O1225 1.202 . S
C1211 C1209 1.363 . S
C1211 C1213 1.408 . S
C1211 C1216 1.342 . S
C1212 C1213 1.310 . S
C1212 C1215 1.461 . S
C1212 H1232 0.932 . S
C1213 C1211 1.408 . S
C1213 C1212 1.310 . S
C1213 H1233 0.930 . S
C1214 C1215 1.474 . S
C1214 C1216 1.285 . S
C1214 H1234 0.929 . S
C1215 C1212 1.461 . S
C1215 C1214 1.474 . S
C1216 C1211 1.342 . S
C1216 C1214 1.285 . S
C1216 H1235 0.930 . S
C1217 C1220 1.424 . S
C1217 C1222 1.245 . S
C1217 C1223 1.428 . S
C1218 C1221 1.260 . S
C1218 C1222 1.477 . S
C1218 H1236 0.932 . S
C1219 C1220 1.384 . S
C1219 C1221 1.479 . S
C1219 H1237 0.929 . S
C1220 C1217 1.424 . S
C1220 C1219 1.384 . S
C1220 H1238 0.928 . S
C1221 C1218 1.260 . S
C1221 C1219 1.479 . S
C1222 C1217 1.245 . S
C1222 C1218 1.477 . S
C1222 H1239 0.932 . S
C1223 U1206 2.882 . S
C1223 C1217 1.428 . S
C1223 O1226 1.301 . S
C1223 O1227 1.282 . S
O1224 U1206 2.441 . S
O1224 C1210 1.249 . S
O1225 U1206 2.420 . S
O1225 C1210 1.202 . S
O1226 U1206 2.455 . S
O1226 C1223 1.301 . S
O1227 U1206 2.449 . S
O1227 C1223 1.282 . S
H1228 C1201 0.931 . S
H1229 C1203 0.929 . S
H1230 C1204 0.930 . S
H1231 C1205 0.931 . S
H1232 C1212 0.932 . S
H1233 C1213 0.930 . S
H1234 C1214 0.929 . S
H1235 C1216 0.930 . S
H1236 C1218 0.932 . S
H1237 C1219 0.929 . S
H1238 C1220 0.928 . S
H1239 C1222 0.932 . S
C1240 C1241 1.264 . S
C1240 C1245 1.479 . S
C1240 C1250 1.465 . S
C1241 C1240 1.264 . S
C1241 C1243 1.339 . S
C1241 H1268 0.931 . S
C1242 C1243 1.395 . S
C1242 C1244 1.320 . S
C1243 C1241 1.339 . S
C1243 C1242 1.395 . S
C1243 H1269 0.929 . S
C1244 C1242 1.320 . S
C1244 C1245 1.405 . S
C1244 H1270 0.930 . S
C1245 C1240 1.479 . S
C1245 C1244 1.405 . S
C1245 H1271 0.931 . S
U1246 O1247 2.454 . S
U1246 O1248 2.458 . S
U1246 C1249 2.984 . S
U1246 C1250 2.847 . S
U1246 C1263 2.882 . S
U1246 O1264 2.441 . S
U1246 O1265 2.420 . S
U1246 O1266 2.455 . S
U1246 O1267 2.449 . S
O1247 U1246 2.454 . S
O1247 C1249 1.353 . S
O1248 U1246 2.458 . S
O1248 C1249 1.286 . S
C1249 U1246 2.984 . S
C1249 O1247 1.353 . S
C1249 O1248 1.286 . S
C1249 C1251 1.363 . S
C1250 C1240 1.465 . S
C1250 U1246 2.847 . S
C1250 O1264 1.249 . S
C1250 O1265 1.202 . S
C1251 C1249 1.363 . S
C1251 C1253 1.408 . S
C1251 C1256 1.342 . S
C1252 C1253 1.310 . S
C1252 C1255 1.461 . S
C1252 H1272 0.932 . S
C1253 C1251 1.408 . S
C1253 C1252 1.310 . S
C1253 H1273 0.930 . S
C1254 C1255 1.474 . S
C1254 C1256 1.285 . S
C1254 H1274 0.929 . S
C1255 C1252 1.461 . S
C1255 C1254 1.474 . S
C1256 C1251 1.342 . S
C1256 C1254 1.285 . S
C1256 H1275 0.930 . S
C1257 C1260 1.424 . S
C1257 C1262 1.245 . S
C1257 C1263 1.428 . S
C1258 C1261 1.260 . S
C1258 C1262 1.477 . S
C1258 H1276 0.932 . S
C1259 C1260 1.384 . S
C1259 C1261 1.479 . S
C1259 H1277 0.929 . S
C1260 C1257 1.424 . S
C1260 C1259 1.384 . S
C1260 H1278 0.928 . S
C1261 C1258 1.260 . S
C1261 C1259 1.479 . S
C1262 C1257 1.245 . S
C1262 C1258 1.477 . S
C1262 H1279 0.932 . S
C1263 U1246 2.882 . S
C1263 C1257 1.428 . S
C1263 O1266 1.301 . S
C1263 O1267 1.282 . S
O1264 U1246 2.441 . S
O1264 C1250 1.249 . S
O1265 U1246 2.420 . S
O1265 C1250 1.202 . S
O1266 U1246 2.455 . S
O1266 C1263 1.301 . S
O1267 U1246 2.449 . S
O1267 C1263 1.282 . S
H1268 C1241 0.931 . S
H1269 C1243 0.929 . S
H1270 C1244 0.930 . S
H1271 C1245 0.931 . S
H1272 C1252 0.932 . S
H1273 C1253 0.930 . S
H1274 C1254 0.929 . S
H1275 C1256 0.930 . S
H1276 C1258 0.932 . S
H1277 C1259 0.929 . S
H1278 C1260 0.928 . S
H1279 C1262 0.932 . S
C1280 C1281 1.384 . S
C1280 C1282 1.384 . S
C1280 H1308 0.931 . S
C1281 C1280 1.384 . S
C1281 C1284 1.382 . S
C1282 C1280 1.384 . S
C1282 C1283 1.381 . S
C1282 H1309 0.930 . S
C1283 C1282 1.381 . S
C1283 C1285 1.381 . S
C1283 C1286 1.487 . S
C1284 C1281 1.382 . S
C1284 C1285 1.387 . S
C1284 H1310 0.930 . S
C1285 C1283 1.381 . S
C1285 C1284 1.387 . S
C1285 H1311 0.931 . S
C1286 C1283 1.487 . S
C1286 C1293 1.399 . S
C1286 N1324 1.343 . S
C1287 C1288 1.384 . S
C1287 C1289 1.384 . S
C1287 H1312 0.931 . S
C1288 C1287 1.384 . S
C1288 C1291 1.382 . S
C1289 C1287 1.384 . S
C1289 C1290 1.381 . S
C1289 H1313 0.930 . S
C1290 C1289 1.381 . S
C1290 C1292 1.381 . S
C1290 C1293 1.487 . S
C1291 C1288 1.382 . S
C1291 C1292 1.387 . S
C1291 H1314 0.930 . S
C1292 C1290 1.381 . S
C1292 C1291 1.387 . S
C1292 H1315 0.931 . S
C1293 C1286 1.399 . S
C1293 C1290 1.487 . S
C1293 N1325 1.343 . S
C1294 C1295 1.384 . S
C1294 C1296 1.384 . S
C1294 H1316 0.931 . S
C1295 C1294 1.384 . S
C1295 C1298 1.382 . S
C1296 C1294 1.384 . S
C1296 C1297 1.381 . S
C1296 H1317 0.930 . S
C1297 C1296 1.381 . S
C1297 C1299 1.381 . S
C1297 C1300 1.487 . S
C1298 C1295 1.382 . S
C1298 C1299 1.387 . S
C1298 H1318 0.930 . S
C1299 C1297 1.381 . S
C1299 C1298 1.387 . S
C1299 H1319 0.931 . S
C1300 C1297 1.487 . S
C1300 C1307 1.399 . S
C1300 N1325 1.343 1_556 S
C1301 C1302 1.384 . S
C1301 C1303 1.384 . S
C1301 H1320 0.931 . S
C1302 C1301 1.384 . S
C1302 C1305 1.382 . S
C1303 C1301 1.384 . S
C1303 C1304 1.381 . S
C1303 H1321 0.930 . S
C1304 C1303 1.381 . S
C1304 C1306 1.381 . S
C1304 C1307 1.487 . S
C1305 C1302 1.382 . S
C1305 C1306 1.387 . S
C1305 H1322 0.930 . S
C1306 C1304 1.381 . S
C1306 C1305 1.387 . S
C1306 H1323 0.931 . S
C1307 C1300 1.399 . S
C1307 C1304 1.487 . S
C1307 N1324 1.343 1_556 S
H1308 C1280 0.931 . S
H1309 C1282 0.930 . S
H1310 C1284 0.930 . S
H1311 C1285 0.931 . S
H1312 C1287 0.931 . S
H1313 C1289 0.930 . S
H1314 C1291 0.930 . S
H1315 C1292 0.931 . S
H1316 C1294 0.931 . S
H1317 C1296 0.930 . S
H1318 C1298 0.930 . S
H1319 C1299 0.931 . S
H1320 C1301 0.931 . S
H1321 C1303 0.930 . S
H1322 C1305 0.930 . S
H1323 C1306 0.931 . S
N1324 C1286 1.343 . S
N1324 C1307 1.343 1_554 S
N1325 C1293 1.343 . S
N1325 C1300 1.343 1_554 S
C1326 C1327 1.384 . S
C1326 C1328 1.384 . S
C1326 H1354 0.931 . S
C1327 C1326 1.384 . S
C1327 C1330 1.382 . S
C1328 C1326 1.384 . S
C1328 C1329 1.381 . S
C1328 H1355 0.930 . S
C1329 C1328 1.381 . S
C1329 C1331 1.381 . S
C1329 C1332 1.487 . S
C1330 C1327 1.382 . S
C1330 C1331 1.387 . S
C1330 H1356 0.930 . S
C1331 C1329 1.381 . S
C1331 C1330 1.387 . S
C1331 H1357 0.931 . S
C1332 C1329 1.487 . S
C1332 C1339 1.399 . S
C1332 N1370 1.343 1_556 S
C1333 C1334 1.384 . S
C1333 C1335 1.384 . S
C1333 H1358 0.931 . S
C1334 C1333 1.384 . S
C1334 C1337 1.382 . S
C1335 C1333 1.384 . S
C1335 C1336 1.381 . S
C1335 H1359 0.930 . S
C1336 C1335 1.381 . S
C1336 C1338 1.381 . S
C1336 C1339 1.487 . S
C1337 C1334 1.382 . S
C1337 C1338 1.387 . S
C1337 H1360 0.930 . S
C1338 C1336 1.381 . S
C1338 C1337 1.387 . S
C1338 H1361 0.931 . S
C1339 C1332 1.399 . S
C1339 C1336 1.487 . S
C1339 N1371 1.343 1_556 S
C1340 C1341 1.384 . S
C1340 C1342 1.384 . S
C1340 H1362 0.931 . S
C1341 C1340 1.384 . S
C1341 C1344 1.382 . S
C1342 C1340 1.384 . S
C1342 C1343 1.381 . S
C1342 H1363 0.930 . S
C1343 C1342 1.381 . S
C1343 C1345 1.381 . S
C1343 C1346 1.487 . S
C1344 C1341 1.382 . S
C1344 C1345 1.387 . S
C1344 H1364 0.930 . S
C1345 C1343 1.381 . S
C1345 C1344 1.387 . S
C1345 H1365 0.931 . S
C1346 C1343 1.487 . S
C1346 C1353 1.399 . S
C1346 N1371 1.343 . S
C1347 C1348 1.384 . S
C1347 C1349 1.384 . S
C1347 H1366 0.931 . S
C1348 C1347 1.384 . S
C1348 C1351 1.382 . S
C1349 C1347 1.384 . S
C1349 C1350 1.381 . S
C1349 H1367 0.930 . S
C1350 C1349 1.381 . S
C1350 C1352 1.381 . S
C1350 C1353 1.487 . S
C1351 C1348 1.382 . S
C1351 C1352 1.387 . S
C1351 H1368 0.930 . S
C1352 C1350 1.381 . S
C1352 C1351 1.387 . S
C1352 H1369 0.931 . S
C1353 C1346 1.399 . S
C1353 C1350 1.487 . S
C1353 N1370 1.343 . S
H1354 C1326 0.931 . S
H1355 C1328 0.930 . S
H1356 C1330 0.930 . S
H1357 C1331 0.931 . S
H1358 C1333 0.931 . S
H1359 C1335 0.930 . S
H1360 C1337 0.930 . S
H1361 C1338 0.931 . S
H1362 C1340 0.931 . S
H1363 C1342 0.930 . S
H1364 C1344 0.930 . S
H1365 C1345 0.931 . S
H1366 C1347 0.931 . S
H1367 C1349 0.930 . S
H1368 C1351 0.930 . S
H1369 C1352 0.931 . S
N1370 C1332 1.343 1_554 S
N1370 C1353 1.343 . S
N1371 C1339 1.343 1_554 S
N1371 C1346 1.343 . S
C1372 C1373 1.384 . S
C1372 C1374 1.384 . S
C1372 H1400 0.931 . S
C1373 C1372 1.384 . S
C1373 C1376 1.382 . S
C1374 C1372 1.384 . S
C1374 C1375 1.381 . S
C1374 H1401 0.930 . S
C1375 C1374 1.381 . S
C1375 C1377 1.381 . S
C1375 C1378 1.487 . S
C1376 C1373 1.382 . S
C1376 C1377 1.387 . S
C1376 H1402 0.930 . S
C1377 C1375 1.381 . S
C1377 C1376 1.387 . S
C1377 H1403 0.931 . S
C1378 C1375 1.487 . S
C1378 C1385 1.399 . S
C1378 N1416 1.343 . S
C1379 C1380 1.384 . S
C1379 C1381 1.384 . S
C1379 H1404 0.931 . S
C1380 C1379 1.384 . S
C1380 C1383 1.382 . S
C1381 C1379 1.384 . S
C1381 C1382 1.381 . S
C1381 H1405 0.930 . S
C1382 C1381 1.381 . S
C1382 C1384 1.381 . S
C1382 C1385 1.487 . S
C1383 C1380 1.382 . S
C1383 C1384 1.387 . S
C1383 H1406 0.930 . S
C1384 C1382 1.381 . S
C1384 C1383 1.387 . S
C1384 H1407 0.931 . S
C1385 C1378 1.399 . S
C1385 C1382 1.487 . S
C1385 N1417 1.343 . S
C1386 C1387 1.384 . S
C1386 C1388 1.384 . S
C1386 H1408 0.931 . S
C1387 C1386 1.384 . S
C1387 C1390 1.382 . S
C1388 C1386 1.384 . S
C1388 C1389 1.381 . S
C1388 H1409 0.930 . S
C1389 C1388 1.381 . S
C1389 C1391 1.381 . S
C1389 C1392 1.487 . S
C1390 C1387 1.382 . S
C1390 C1391 1.387 . S
C1390 H1410 0.930 . S
C1391 C1389 1.381 . S
C1391 C1390 1.387 . S
C1391 H1411 0.931 . S
C1392 C1389 1.487 . S
C1392 C1399 1.399 . S
C1392 N1417 1.343 1_556 S
C1393 C1394 1.384 . S
C1393 C1395 1.384 . S
C1393 H1412 0.931 . S
C1394 C1393 1.384 . S
C1394 C1397 1.382 . S
C1395 C1393 1.384 . S
C1395 C1396 1.381 . S
C1395 H1413 0.930 . S
C1396 C1395 1.381 . S
C1396 C1398 1.381 . S
C1396 C1399 1.487 . S
C1397 C1394 1.382 . S
C1397 C1398 1.387 . S
C1397 H1414 0.930 . S
C1398 C1396 1.381 . S
C1398 C1397 1.387 . S
C1398 H1415 0.931 . S
C1399 C1392 1.399 . S
C1399 C1396 1.487 . S
C1399 N1416 1.343 1_556 S
H1400 C1372 0.931 . S
H1401 C1374 0.930 . S
H1402 C1376 0.930 . S
H1403 C1377 0.931 . S
H1404 C1379 0.931 . S
H1405 C1381 0.930 . S
H1406 C1383 0.930 . S
H1407 C1384 0.931 . S
H1408 C1386 0.931 . S
H1409 C1388 0.930 . S
H1410 C1390 0.930 . S
H1411 C1391 0.931 . S
H1412 C1393 0.931 . S
H1413 C1395 0.930 . S
H1414 C1397 0.930 . S
H1415 C1398 0.931 . S
N1416 C1378 1.343 . S
N1416 C1399 1.343 1_554 S
N1417 C1385 1.343 . S
N1417 C1392 1.343 1_554 S
C1418 C1419 1.384 . S
C1418 C1420 1.384 . S
C1418 H1446 0.931 . S
C1419 C1418 1.384 . S
C1419 C1422 1.382 . S
C1420 C1418 1.384 . S
C1420 C1421 1.381 . S
C1420 H1447 0.930 . S
C1421 C1420 1.381 . S
C1421 C1423 1.381 . S
C1421 C1424 1.487 . S
C1422 C1419 1.382 . S
C1422 C1423 1.387 . S
C1422 H1448 0.930 . S
C1423 C1421 1.381 . S
C1423 C1422 1.387 . S
C1423 H1449 0.931 . S
C1424 C1421 1.487 . S
C1424 C1431 1.399 . S
C1424 N1462 1.343 1_556 S
C1425 C1426 1.384 . S
C1425 C1427 1.384 . S
C1425 H1450 0.931 . S
C1426 C1425 1.384 . S
C1426 C1429 1.382 . S
C1427 C1425 1.384 . S
C1427 C1428 1.381 . S
C1427 H1451 0.930 . S
C1428 C1427 1.381 . S
C1428 C1430 1.381 . S
C1428 C1431 1.487 . S
C1429 C1426 1.382 . S
C1429 C1430 1.387 . S
C1429 H1452 0.930 . S
C1430 C1428 1.381 . S
C1430 C1429 1.387 . S
C1430 H1453 0.931 . S
C1431 C1424 1.399 . S
C1431 C1428 1.487 . S
C1431 N1463 1.343 1_556 S
C1432 C1433 1.384 . S
C1432 C1434 1.384 . S
C1432 H1454 0.931 . S
C1433 C1432 1.384 . S
C1433 C1436 1.382 . S
C1434 C1432 1.384 . S
C1434 C1435 1.381 . S
C1434 H1455 0.930 . S
C1435 C1434 1.381 . S
C1435 C1437 1.381 . S
C1435 C1438 1.487 . S
C1436 C1433 1.382 . S
C1436 C1437 1.387 . S
C1436 H1456 0.930 . S
C1437 C1435 1.381 . S
C1437 C1436 1.387 . S
C1437 H1457 0.931 . S
C1438 C1435 1.487 . S
C1438 C1445 1.399 . S
C1438 N1463 1.343 . S
C1439 C1440 1.384 . S
C1439 C1441 1.384 . S
C1439 H1458 0.931 . S
C1440 C1439 1.384 . S
C1440 C1443 1.382 . S
C1441 C1439 1.384 . S
C1441 C1442 1.381 . S
C1441 H1459 0.930 . S
C1442 C1441 1.381 . S
C1442 C1444 1.381 . S
C1442 C1445 1.487 . S
C1443 C1440 1.382 . S
C1443 C1444 1.387 . S
C1443 H1460 0.930 . S
C1444 C1442 1.381 . S
C1444 C1443 1.387 . S
C1444 H1461 0.931 . S
C1445 C1438 1.399 . S
C1445 C1442 1.487 . S
C1445 N1462 1.343 . S
H1446 C1418 0.931 . S
H1447 C1420 0.930 . S
H1448 C1422 0.930 . S
H1449 C1423 0.931 . S
H1450 C1425 0.931 . S
H1451 C1427 0.930 . S
H1452 C1429 0.930 . S
H1453 C1430 0.931 . S
H1454 C1432 0.931 . S
H1455 C1434 0.930 . S
H1456 C1436 0.930 . S
H1457 C1437 0.931 . S
H1458 C1439 0.931 . S
H1459 C1441 0.930 . S
H1460 C1443 0.930 . S
H1461 C1444 0.931 . S
N1462 C1424 1.343 1_554 S
N1462 C1445 1.343 . S
N1463 C1431 1.343 1_554 S
N1463 C1438 1.343 . S
C1464 C1465 1.384 . S
C1464 C1466 1.384 . S
C1464 H1492 0.931 . S
C1465 C1464 1.384 . S
C1465 C1468 1.382 . S
C1466 C1464 1.384 . S
C1466 C1467 1.381 . S
C1466 H1493 0.930 . S
C1467 C1466 1.381 . S
C1467 C1469 1.381 . S
C1467 C1470 1.487 . S
C1468 C1465 1.382 . S
C1468 C1469 1.387 . S
C1468 H1494 0.930 . S
C1469 C1467 1.381 . S
C1469 C1468 1.387 . S
C1469 H1495 0.931 . S
C1470 C1467 1.487 . S
C1470 C1477 1.399 . S
C1470 N1508 1.343 1_655 S
C1471 C1472 1.384 . S
C1471 C1473 1.384 . S
C1471 H1496 0.931 . S
C1472 C1471 1.384 . S
C1472 C1475 1.382 . S
C1473 C1471 1.384 . S
C1473 C1474 1.381 . S
C1473 H1497 0.930 . S
C1474 C1473 1.381 . S
C1474 C1476 1.381 . S
C1474 C1477 1.487 . S
C1475 C1472 1.382 . S
C1475 C1476 1.387 . S
C1475 H1498 0.930 . S
C1476 C1474 1.381 . S
C1476 C1475 1.387 . S
C1476 H1499 0.931 . S
C1477 C1470 1.399 . S
C1477 C1474 1.487 . S
C1477 N1509 1.343 1_655 S
C1478 C1479 1.384 . S
C1478 C1480 1.384 . S
C1478 H1500 0.931 . S
C1479 C1478 1.384 . S
C1479 C1482 1.382 . S
C1480 C1478 1.384 . S
C1480 C1481 1.381 . S
C1480 H1501 0.930 . S
C1481 C1480 1.381 . S
C1481 C1483 1.381 . S
C1481 C1484 1.487 . S
C1482 C1479 1.382 . S
C1482 C1483 1.387 . S
C1482 H1502 0.930 . S
C1483 C1481 1.381 . S
C1483 C1482 1.387 . S
C1483 H1503 0.931 . S
C1484 C1481 1.487 . S
C1484 C1491 1.399 . S
C1484 N1509 1.343 . S
C1485 C1486 1.384 . S
C1485 C1487 1.384 . S
C1485 H1504 0.931 . S
C1486 C1485 1.384 . S
C1486 C1489 1.382 . S
C1487 C1485 1.384 . S
C1487 C1488 1.381 . S
C1487 H1505 0.930 . S
C1488 C1487 1.381 . S
C1488 C1490 1.381 . S
C1488 C1491 1.487 . S
C1489 C1486 1.382 . S
C1489 C1490 1.387 . S
C1489 H1506 0.930 . S
C1490 C1488 1.381 . S
C1490 C1489 1.387 . S
C1490 H1507 0.931 . S
C1491 C1484 1.399 . S
C1491 C1488 1.487 . S
C1491 N1508 1.343 . S
H1492 C1464 0.931 . S
H1493 C1466 0.930 . S
H1494 C1468 0.930 . S
H1495 C1469 0.931 . S
H1496 C1471 0.931 . S
H1497 C1473 0.930 . S
H1498 C1475 0.930 . S
H1499 C1476 0.931 . S
H1500 C1478 0.931 . S
H1501 C1480 0.930 . S
H1502 C1482 0.930 . S
H1503 C1483 0.931 . S
H1504 C1485 0.931 . S
H1505 C1487 0.930 . S
H1506 C1489 0.930 . S
H1507 C1490 0.931 . S
N1508 C1470 1.343 1_455 S
N1508 C1491 1.343 . S
N1509 C1477 1.343 1_455 S
N1509 C1484 1.343 . S
C1510 C1511 1.384 . S
C1510 C1512 1.384 . S
C1510 H1538 0.931 . S
C1511 C1510 1.384 . S
C1511 C1514 1.382 . S
C1512 C1510 1.384 . S
C1512 C1513 1.381 . S
C1512 H1539 0.930 . S
C1513 C1512 1.381 . S
C1513 C1515 1.381 . S
C1513 C1516 1.487 . S
C1514 C1511 1.382 . S
C1514 C1515 1.387 . S
C1514 H1540 0.930 . S
C1515 C1513 1.381 . S
C1515 C1514 1.387 . S
C1515 H1541 0.931 . S
C1516 C1513 1.487 . S
C1516 C1523 1.399 . S
C1516 N1554 1.267 1_565 S
C1517 C1518 1.384 . S
C1517 C1519 1.384 . S
C1517 H1542 0.931 . S
C1518 C1517 1.384 . S
C1518 C1521 1.382 . S
C1519 C1517 1.384 . S
C1519 C1520 1.381 . S
C1519 H1543 0.930 . S
C1520 C1519 1.381 . S
C1520 C1522 1.381 . S
C1520 C1523 1.487 . S
C1521 C1518 1.382 . S
C1521 C1522 1.387 . S
C1521 H1544 0.930 . S
C1522 C1520 1.381 . S
C1522 C1521 1.387 . S
C1522 H1545 0.931 . S
C1523 C1516 1.399 . S
C1523 C1520 1.487 . S
C1523 N1555 1.343 1_565 S
C1524 C1525 1.384 . S
C1524 C1526 1.384 . S
C1524 H1546 0.931 . S
C1525 C1524 1.384 . S
C1525 C1528 1.382 . S
C1526 C1524 1.384 . S
C1526 C1527 1.381 . S
C1526 H1547 0.930 . S
C1527 C1526 1.381 . S
C1527 C1529 1.381 . S
C1527 C1530 1.487 . S
C1528 C1525 1.382 . S
C1528 C1529 1.387 . S
C1528 H1548 0.930 . S
C1529 C1527 1.381 . S
C1529 C1528 1.387 . S
C1529 H1549 0.931 . S
C1530 C1527 1.487 . S
C1530 C1537 1.399 . S
C1530 N1555 1.343 . S
C1531 C1532 1.384 . S
C1531 C1533 1.384 . S
C1531 H1550 0.931 . S
C1532 C1531 1.384 . S
C1532 C1535 1.382 . S
C1533 C1531 1.384 . S
C1533 C1534 1.381 . S
C1533 H1551 0.930 . S
C1534 C1533 1.381 . S
C1534 C1536 1.381 . S
C1534 C1537 1.487 . S
C1535 C1532 1.382 . S
C1535 C1536 1.387 . S
C1535 H1552 0.930 . S
C1536 C1534 1.381 . S
C1536 C1535 1.387 . S
C1536 H1553 0.931 . S
C1537 C1530 1.399 . S
C1537 C1534 1.487 . S
C1537 N1554 1.421 . S
H1538 C1510 0.931 . S
H1539 C1512 0.930 . S
H1540 C1514 0.930 . S
H1541 C1515 0.931 . S
H1542 C1517 0.931 . S
H1543 C1519 0.930 . S
H1544 C1521 0.930 . S
H1545 C1522 0.931 . S
H1546 C1524 0.931 . S
H1547 C1526 0.930 . S
H1548 C1528 0.930 . S
H1549 C1529 0.931 . S
H1550 C1531 0.931 . S
H1551 C1533 0.930 . S
H1552 C1535 0.930 . S
H1553 C1536 0.931 . S
N1554 C1516 1.267 1_545 S
N1554 C1537 1.421 . S
N1555 C1523 1.343 1_545 S
N1555 C1530 1.343 . S
C1556 C1557 1.384 . S
C1556 C1558 1.384 . S
C1556 H1584 0.931 . S
C1557 C1556 1.384 . S
C1557 C1560 1.382 . S
C1558 C1556 1.384 . S
C1558 C1559 1.381 . S
C1558 H1585 0.930 . S
C1559 C1558 1.381 . S
C1559 C1561 1.381 . S
C1559 C1562 1.487 . S
C1560 C1557 1.382 . S
C1560 C1561 1.387 . S
C1560 H1586 0.930 . S
C1561 C1559 1.381 . S
C1561 C1560 1.387 . S
C1561 H1587 0.931 . S
C1562 C1559 1.487 . S
C1562 C1569 1.399 . S
C1562 N1600 1.343 . S
C1563 C1564 1.384 . S
C1563 C1565 1.384 . S
C1563 H1588 0.931 . S
C1564 C1563 1.384 . S
C1564 C1567 1.382 . S
C1565 C1563 1.384 . S
C1565 C1566 1.381 . S
C1565 H1589 0.930 . S
C1566 C1565 1.381 . S
C1566 C1568 1.381 . S
C1566 C1569 1.487 . S
C1567 C1564 1.382 . S
C1567 C1568 1.387 . S
C1567 H1590 0.930 . S
C1568 C1566 1.381 . S
C1568 C1567 1.387 . S
C1568 H1591 0.931 . S
C1569 C1562 1.399 . S
C1569 C1566 1.487 . S
C1569 N1601 1.442 . S
C1570 C1571 1.384 . S
C1570 C1572 1.384 . S
C1570 H1592 0.931 . S
C1571 C1570 1.384 . S
C1571 C1574 1.382 . S
C1572 C1570 1.384 . S
C1572 C1573 1.381 . S
C1572 H1593 0.930 . S
C1573 C1572 1.381 . S
C1573 C1575 1.381 . S
C1573 C1576 1.487 . S
C1574 C1571 1.382 . S
C1574 C1575 1.387 . S
C1574 H1594 0.930 . S
C1575 C1573 1.381 . S
C1575 C1574 1.387 . S
C1575 H1595 0.931 . S
C1576 C1573 1.487 . S
C1576 C1583 1.399 . S
C1576 N1601 1.247 1_655 S
C1577 C1578 1.384 . S
C1577 C1579 1.384 . S
C1577 H1596 0.931 . S
C1578 C1577 1.384 . S
C1578 C1581 1.382 . S
C1579 C1577 1.384 . S
C1579 C1580 1.381 . S
C1579 H1597 0.930 . S
C1580 C1579 1.381 . S
C1580 C1582 1.381 . S
C1580 C1583 1.487 . S
C1581 C1578 1.382 . S
C1581 C1582 1.387 . S
C1581 H1598 0.930 . S
C1582 C1580 1.381 . S
C1582 C1581 1.387 . S
C1582 H1599 0.931 . S
C1583 C1576 1.399 . S
C1583 C1580 1.487 . S
C1583 N1600 1.343 1_655 S
H1584 C1556 0.931 . S
H1585 C1558 0.930 . S
H1586 C1560 0.930 . S
H1587 C1561 0.931 . S
H1588 C1563 0.931 . S
H1589 C1565 0.930 . S
H1590 C1567 0.930 . S
H1591 C1568 0.931 . S
H1592 C1570 0.931 . S
H1593 C1572 0.930 . S
H1594 C1574 0.930 . S
H1595 C1575 0.931 . S
H1596 C1577 0.931 . S
H1597 C1579 0.930 . S
H1598 C1581 0.930 . S
H1599 C1582 0.931 . S
N1600 C1562 1.343 . S
N1600 C1583 1.343 1_455 S
N1601 C1569 1.442 . S
N1601 C1576 1.247 1_455 S
C1602 C1603 1.384 . S
C1602 C1604 1.384 . S
C1602 H1630 0.931 . S
C1603 C1602 1.384 . S
C1603 C1606 1.382 . S
C1604 C1602 1.384 . S
C1604 C1605 1.381 . S
C1604 H1631 0.930 . S
C1605 C1604 1.381 . S
C1605 C1607 1.381 . S
C1605 C1608 1.487 . S
C1606 C1603 1.382 . S
C1606 C1607 1.387 . S
C1606 H1632 0.930 . S
C1607 C1605 1.381 . S
C1607 C1606 1.387 . S
C1607 H1633 0.931 . S
C1608 C1605 1.487 . S
C1608 C1615 1.399 . S
C1608 N1646 1.343 1_565 S
C1609 C1610 1.384 . S
C1609 C1611 1.384 . S
C1609 H1634 0.931 . S
C1610 C1609 1.384 . S
C1610 C1613 1.382 . S
C1611 C1609 1.384 . S
C1611 C1612 1.381 . S
C1611 H1635 0.930 . S
C1612 C1611 1.381 . S
C1612 C1614 1.381 . S
C1612 C1615 1.487 . S
C1613 C1610 1.382 . S
C1613 C1614 1.387 . S
C1613 H1636 0.930 . S
C1614 C1612 1.381 . S
C1614 C1613 1.387 . S
C1614 H1637 0.931 . S
C1615 C1608 1.399 . S
C1615 C1612 1.487 . S
C1615 N1647 1.343 1_565 S
C1616 C1617 1.384 . S
C1616 C1618 1.384 . S
C1616 H1638 0.931 . S
C1617 C1616 1.384 . S
C1617 C1620 1.382 . S
C1618 C1616 1.384 . S
C1618 C1619 1.381 . S
C1618 H1639 0.930 . S
C1619 C1618 1.381 . S
C1619 C1621 1.381 . S
C1619 C1622 1.487 . S
C1620 C1617 1.382 . S
C1620 C1621 1.387 . S
C1620 H1640 0.930 . S
C1621 C1619 1.381 . S
C1621 C1620 1.387 . S
C1621 H1641 0.931 . S
C1622 C1619 1.487 . S
C1622 C1629 1.399 . S
C1622 N1647 1.343 . S
C1623 C1624 1.384 . S
C1623 C1625 1.384 . S
C1623 H1642 0.931 . S
C1624 C1623 1.384 . S
C1624 C1627 1.382 . S
C1625 C1623 1.384 . S
C1625 C1626 1.381 . S
C1625 H1643 0.930 . S
C1626 C1625 1.381 . S
C1626 C1628 1.381 . S
C1626 C1629 1.487 . S
C1627 C1624 1.382 . S
C1627 C1628 1.387 . S
C1627 H1644 0.930 . S
C1628 C1626 1.381 . S
C1628 C1627 1.387 . S
C1628 H1645 0.931 . S
C1629 C1622 1.399 . S
C1629 C1626 1.487 . S
C1629 N1646 1.343 . S
H1630 C1602 0.931 . S
H1631 C1604 0.930 . S
H1632 C1606 0.930 . S
H1633 C1607 0.931 . S
H1634 C1609 0.931 . S
H1635 C1611 0.930 . S
H1636 C1613 0.930 . S
H1637 C1614 0.931 . S
H1638 C1616 0.931 . S
H1639 C1618 0.930 . S
H1640 C1620 0.930 . S
H1641 C1621 0.931 . S
H1642 C1623 0.931 . S
H1643 C1625 0.930 . S
H1644 C1627 0.930 . S
H1645 C1628 0.931 . S
N1646 C1608 1.343 1_545 S
N1646 C1629 1.343 . S
N1647 C1615 1.343 1_545 S
N1647 C1622 1.343 . S
C1648 C1649 1.384 . S
C1648 C1650 1.384 . S
C1648 H1676 0.931 . S
C1649 C1648 1.384 . S
C1649 C1652 1.382 . S
C1650 C1648 1.384 . S
C1650 C1651 1.381 . S
C1650 H1677 0.930 . S
C1651 C1650 1.381 . S
C1651 C1653 1.381 . S
C1651 C1654 1.487 . S
C1652 C1649 1.382 . S
C1652 C1653 1.387 . S
C1652 H1678 0.930 . S
C1653 C1651 1.381 . S
C1653 C1652 1.387 . S
C1653 H1679 0.931 . S
C1654 C1651 1.487 . S
C1654 C1661 1.399 . S
C1654 N1692 1.343 1_655 S
C1655 C1656 1.384 . S
C1655 C1657 1.384 . S
C1655 H1680 0.931 . S
C1656 C1655 1.384 . S
C1656 C1659 1.382 . S
C1657 C1655 1.384 . S
C1657 C1658 1.381 . S
C1657 H1681 0.930 . S
C1658 C1657 1.381 . S
C1658 C1660 1.381 . S
C1658 C1661 1.487 . S
C1659 C1656 1.382 . S
C1659 C1660 1.387 . S
C1659 H1682 0.930 . S
C1660 C1658 1.381 . S
C1660 C1659 1.387 . S
C1660 H1683 0.931 . S
C1661 C1654 1.399 . S
C1661 C1658 1.487 . S
C1661 N1693 1.343 1_655 S
C1662 C1663 1.384 . S
C1662 C1664 1.384 . S
C1662 H1684 0.931 . S
C1663 C1662 1.384 . S
C1663 C1666 1.382 . S
C1664 C1662 1.384 . S
C1664 C1665 1.381 . S
C1664 H1685 0.930 . S
C1665 C1664 1.381 . S
C1665 C1667 1.381 . S
C1665 C1668 1.487 . S
C1666 C1663 1.382 . S
C1666 C1667 1.387 . S
C1666 H1686 0.930 . S
C1667 C1665 1.381 . S
C1667 C1666 1.387 . S
C1667 H1687 0.931 . S
C1668 C1665 1.487 . S
C1668 C1675 1.399 . S
C1668 N1693 1.343 . S
C1669 C1670 1.384 . S
C1669 C1671 1.384 . S
C1669 H1688 0.931 . S
C1670 C1669 1.384 . S
C1670 C1673 1.382 . S
C1671 C1669 1.384 . S
C1671 C1672 1.381 . S
C1671 H1689 0.930 . S
C1672 C1671 1.381 . S
C1672 C1674 1.381 . S
C1672 C1675 1.487 . S
C1673 C1670 1.382 . S
C1673 C1674 1.387 . S
C1673 H1690 0.930 . S
C1674 C1672 1.381 . S
C1674 C1673 1.387 . S
C1674 H1691 0.931 . S
C1675 C1668 1.399 . S
C1675 C1672 1.487 . S
C1675 N1692 1.343 . S
H1676 C1648 0.931 . S
H1677 C1650 0.930 . S
H1678 C1652 0.930 . S
H1679 C1653 0.931 . S
H1680 C1655 0.931 . S
H1681 C1657 0.930 . S
H1682 C1659 0.930 . S
H1683 C1660 0.931 . S
H1684 C1662 0.931 . S
H1685 C1664 0.930 . S
H1686 C1666 0.930 . S
H1687 C1667 0.931 . S
H1688 C1669 0.931 . S
H1689 C1671 0.930 . S
H1690 C1673 0.930 . S
H1691 C1674 0.931 . S
N1692 C1654 1.343 1_455 S
N1692 C1675 1.343 . S
N1693 C1661 1.343 1_455 S
N1693 C1668 1.343 . S
C1694 C1695 1.384 . S
C1694 C1696 1.384 . S
C1694 H1722 0.931 . S
C1695 C1694 1.384 . S
C1695 C1698 1.382 . S
C1696 C1694 1.384 . S
C1696 C1697 1.381 . S
C1696 H1723 0.930 . S
C1697 C1696 1.381 . S
C1697 C1699 1.381 . S
C1697 C1700 1.487 . S
C1698 C1695 1.382 . S
C1698 C1699 1.387 . S
C1698 H1724 0.930 . S
C1699 C1697 1.381 . S
C1699 C1698 1.387 . S
C1699 H1725 0.931 . S
C1700 C1697 1.487 . S
C1700 C1707 1.399 . S
C1700 N1738 1.265 1_565 S
C1701 C1702 1.384 . S
C1701 C1703 1.384 . S
C1701 H1726 0.931 . S
C1702 C1701 1.384 . S
C1702 C1705 1.382 . S
C1703 C1701 1.384 . S
C1703 C1704 1.381 . S
C1703 H1727 0.930 . S
C1704 C1703 1.381 . S
C1704 C1706 1.381 . S
C1704 C1707 1.487 . S
C1705 C1702 1.382 . S
C1705 C1706 1.387 . S
C1705 H1728 0.930 . S
C1706 C1704 1.381 . S
C1706 C1705 1.387 . S
C1706 H1729 0.931 . S
C1707 C1700 1.399 . S
C1707 C1704 1.487 . S
C1707 N1739 1.343 1_565 S
C1708 C1709 1.384 . S
C1708 C1710 1.384 . S
C1708 H1730 0.931 . S
C1709 C1708 1.384 . S
C1709 C1712 1.382 . S
C1710 C1708 1.384 . S
C1710 C1711 1.381 . S
C1710 H1731 0.930 . S
C1711 C1710 1.381 . S
C1711 C1713 1.381 . S
C1711 C1714 1.487 . S
C1712 C1709 1.382 . S
C1712 C1713 1.387 . S
C1712 H1732 0.930 . S
C1713 C1711 1.381 . S
C1713 C1712 1.387 . S
C1713 H1733 0.931 . S
C1714 C1711 1.487 . S
C1714 C1721 1.399 . S
C1714 N1739 1.343 . S
C1715 C1716 1.384 . S
C1715 C1717 1.384 . S
C1715 H1734 0.931 . S
C1716 C1715 1.384 . S
C1716 C1719 1.382 . S
C1717 C1715 1.384 . S
C1717 C1718 1.381 . S
C1717 H1735 0.930 . S
C1718 C1717 1.381 . S
C1718 C1720 1.381 . S
C1718 C1721 1.487 . S
C1719 C1716 1.382 . S
C1719 C1720 1.387 . S
C1719 H1736 0.930 . S
C1720 C1718 1.381 . S
C1720 C1719 1.387 . S
C1720 H1737 0.931 . S
C1721 C1714 1.399 . S
C1721 C1718 1.487 . S
C1721 N1738 1.423 . S
H1722 C1694 0.931 . S
H1723 C1696 0.930 . S
H1724 C1698 0.930 . S
H1725 C1699 0.931 . S
H1726 C1701 0.931 . S
H1727 C1703 0.930 . S
H1728 C1705 0.930 . S
H1729 C1706 0.931 . S
H1730 C1708 0.931 . S
H1731 C1710 0.930 . S
H1732 C1712 0.930 . S
H1733 C1713 0.931 . S
H1734 C1715 0.931 . S
H1735 C1717 0.930 . S
H1736 C1719 0.930 . S
H1737 C1720 0.931 . S
N1738 C1700 1.265 1_545 S
N1738 C1721 1.423 . S
N1739 C1707 1.343 1_545 S
N1739 C1714 1.343 . S
C1740 C1741 1.384 . S
C1740 C1742 1.384 . S
C1740 H1768 0.931 . S
C1741 C1740 1.384 . S
C1741 C1744 1.382 . S
C1742 C1740 1.384 . S
C1742 C1743 1.381 . S
C1742 H1769 0.930 . S
C1743 C1742 1.381 . S
C1743 C1745 1.381 . S
C1743 C1746 1.487 . S
C1744 C1741 1.382 . S
C1744 C1745 1.387 . S
C1744 H1770 0.930 . S
C1745 C1743 1.381 . S
C1745 C1744 1.387 . S
C1745 H1771 0.931 . S
C1746 C1743 1.487 . S
C1746 C1753 1.399 . S
C1746 N1784 1.343 . S
C1747 C1748 1.384 . S
C1747 C1749 1.384 . S
C1747 H1772 0.931 . S
C1748 C1747 1.384 . S
C1748 C1751 1.382 . S
C1749 C1747 1.384 . S
C1749 C1750 1.381 . S
C1749 H1773 0.930 . S
C1750 C1749 1.381 . S
C1750 C1752 1.381 . S
C1750 C1753 1.487 . S
C1751 C1748 1.382 . S
C1751 C1752 1.387 . S
C1751 H1774 0.930 . S
C1752 C1750 1.381 . S
C1752 C1751 1.387 . S
C1752 H1775 0.931 . S
C1753 C1746 1.399 . S
C1753 C1750 1.487 . S
C1753 N1785 1.444 . S
C1754 C1755 1.384 . S
C1754 C1756 1.384 . S
C1754 H1776 0.931 . S
C1755 C1754 1.384 . S
C1755 C1758 1.382 . S
C1756 C1754 1.384 . S
C1756 C1757 1.381 . S
C1756 H1777 0.930 . S
C1757 C1756 1.381 . S
C1757 C1759 1.381 . S
C1757 C1760 1.487 . S
C1758 C1755 1.382 . S
C1758 C1759 1.387 . S
C1758 H1778 0.930 . S
C1759 C1757 1.381 . S
C1759 C1758 1.387 . S
C1759 H1779 0.931 . S
C1760 C1757 1.487 . S
C1760 C1767 1.399 . S
C1760 N1785 1.245 1_655 S
C1761 C1762 1.384 . S
C1761 C1763 1.384 . S
C1761 H1780 0.931 . S
C1762 C1761 1.384 . S
C1762 C1765 1.382 . S
C1763 C1761 1.384 . S
C1763 C1764 1.381 . S
C1763 H1781 0.930 . S
C1764 C1763 1.381 . S
C1764 C1766 1.381 . S
C1764 C1767 1.487 . S
C1765 C1762 1.382 . S
C1765 C1766 1.387 . S
C1765 H1782 0.930 . S
C1766 C1764 1.381 . S
C1766 C1765 1.387 . S
C1766 H1783 0.931 . S
C1767 C1760 1.399 . S
C1767 C1764 1.487 . S
C1767 N1784 1.343 1_655 S
H1768 C1740 0.931 . S
H1769 C1742 0.930 . S
H1770 C1744 0.930 . S
H1771 C1745 0.931 . S
H1772 C1747 0.931 . S
H1773 C1749 0.930 . S
H1774 C1751 0.930 . S
H1775 C1752 0.931 . S
H1776 C1754 0.931 . S
H1777 C1756 0.930 . S
H1778 C1758 0.930 . S
H1779 C1759 0.931 . S
H1780 C1761 0.931 . S
H1781 C1763 0.930 . S
H1782 C1765 0.930 . S
H1783 C1766 0.931 . S
N1784 C1746 1.343 . S
N1784 C1767 1.343 1_455 S
N1785 C1753 1.444 . S
N1785 C1760 1.245 1_455 S
C1786 C1787 1.384 . S
C1786 C1788 1.384 . S
C1786 H1814 0.931 . S
C1787 C1786 1.384 . S
C1787 C1790 1.382 . S
C1788 C1786 1.384 . S
C1788 C1789 1.381 . S
C1788 H1815 0.930 . S
C1789 C1788 1.381 . S
C1789 C1791 1.381 . S
C1789 C1792 1.487 . S
C1790 C1787 1.382 . S
C1790 C1791 1.387 . S
C1790 H1816 0.930 . S
C1791 C1789 1.381 . S
C1791 C1790 1.387 . S
C1791 H1817 0.931 . S
C1792 C1789 1.487 . S
C1792 C1799 1.399 . S
C1792 N1830 1.343 1_565 S
C1793 C1794 1.384 . S
C1793 C1795 1.384 . S
C1793 H1818 0.931 . S
C1794 C1793 1.384 . S
C1794 C1797 1.382 . S
C1795 C1793 1.384 . S
C1795 C1796 1.381 . S
C1795 H1819 0.930 . S
C1796 C1795 1.381 . S
C1796 C1798 1.381 . S
C1796 C1799 1.487 . S
C1797 C1794 1.382 . S
C1797 C1798 1.387 . S
C1797 H1820 0.930 . S
C1798 C1796 1.381 . S
C1798 C1797 1.387 . S
C1798 H1821 0.931 . S
C1799 C1792 1.399 . S
C1799 C1796 1.487 . S
C1799 N1831 1.343 1_565 S
C1800 C1801 1.384 . S
C1800 C1802 1.384 . S
C1800 H1822 0.931 . S
C1801 C1800 1.384 . S
C1801 C1804 1.382 . S
C1802 C1800 1.384 . S
C1802 C1803 1.381 . S
C1802 H1823 0.930 . S
C1803 C1802 1.381 . S
C1803 C1805 1.381 . S
C1803 C1806 1.487 . S
C1804 C1801 1.382 . S
C1804 C1805 1.387 . S
C1804 H1824 0.930 . S
C1805 C1803 1.381 . S
C1805 C1804 1.387 . S
C1805 H1825 0.931 . S
C1806 C1803 1.487 . S
C1806 C1813 1.399 . S
C1806 N1831 1.343 . S
C1807 C1808 1.384 . S
C1807 C1809 1.384 . S
C1807 H1826 0.931 . S
C1808 C1807 1.384 . S
C1808 C1811 1.382 . S
C1809 C1807 1.384 . S
C1809 C1810 1.381 . S
C1809 H1827 0.930 . S
C1810 C1809 1.381 . S
C1810 C1812 1.381 . S
C1810 C1813 1.487 . S
C1811 C1808 1.382 . S
C1811 C1812 1.387 . S
C1811 H1828 0.930 . S
C1812 C1810 1.381 . S
C1812 C1811 1.387 . S
C1812 H1829 0.931 . S
C1813 C1806 1.399 . S
C1813 C1810 1.487 . S
C1813 N1830 1.343 . S
H1814 C1786 0.931 . S
H1815 C1788 0.930 . S
H1816 C1790 0.930 . S
H1817 C1791 0.931 . S
H1818 C1793 0.931 . S
H1819 C1795 0.930 . S
H1820 C1797 0.930 . S
H1821 C1798 0.931 . S
H1822 C1800 0.931 . S
H1823 C1802 0.930 . S
H1824 C1804 0.930 . S
H1825 C1805 0.931 . S
H1826 C1807 0.931 . S
H1827 C1809 0.930 . S
H1828 C1811 0.930 . S
H1829 C1812 0.931 . S
N1830 C1792 1.343 1_545 S
N1830 C1813 1.343 . S
N1831 C1799 1.343 1_545 S
N1831 C1806 1.343 . S
C1832 C1833 1.384 . S
C1832 C1834 1.384 . S
C1832 H1860 0.931 . S
C1833 C1832 1.384 . S
C1833 C1836 1.382 . S
C1834 C1832 1.384 . S
C1834 C1835 1.381 . S
C1834 H1861 0.930 . S
C1835 C1834 1.381 . S
C1835 C1837 1.381 . S
C1835 C1838 1.487 . S
C1836 C1833 1.382 . S
C1836 C1837 1.387 . S
C1836 H1862 0.930 . S
C1837 C1835 1.381 . S
C1837 C1836 1.387 . S
C1837 H1863 0.931 . S
C1838 C1835 1.487 . S
C1838 C1845 1.399 . S
C1838 N1876 1.343 . S
C1839 C1840 1.384 . S
C1839 C1841 1.384 . S
C1839 H1864 0.931 . S
C1840 C1839 1.384 . S
C1840 C1843 1.382 . S
C1841 C1839 1.384 . S
C1841 C1842 1.381 . S
C1841 H1865 0.930 . S
C1842 C1841 1.381 . S
C1842 C1844 1.381 . S
C1842 C1845 1.487 . S
C1843 C1840 1.382 . S
C1843 C1844 1.387 . S
C1843 H1866 0.930 . S
C1844 C1842 1.381 . S
C1844 C1843 1.387 . S
C1844 H1867 0.931 . S
C1845 C1838 1.399 . S
C1845 C1842 1.487 . S
C1845 N1877 1.343 . S
C1846 C1847 1.384 . S
C1846 C1848 1.384 . S
C1846 H1868 0.931 . S
C1847 C1846 1.384 . S
C1847 C1850 1.382 . S
C1848 C1846 1.384 . S
C1848 C1849 1.381 . S
C1848 H1869 0.930 . S
C1849 C1848 1.381 . S
C1849 C1851 1.381 . S
C1849 C1852 1.487 . S
C1850 C1847 1.382 . S
C1850 C1851 1.387 . S
C1850 H1870 0.930 . S
C1851 C1849 1.381 . S
C1851 C1850 1.387 . S
C1851 H1871 0.931 . S
C1852 C1849 1.487 . S
C1852 C1859 1.399 . S
C1852 N1877 1.343 . S
C1853 C1854 1.384 . S
C1853 C1855 1.384 . S
C1853 H1872 0.931 . S
C1854 C1853 1.384 . S
C1854 C1857 1.382 . S
C1855 C1853 1.384 . S
C1855 C1856 1.381 . S
C1855 H1873 0.930 . S
C1856 C1855 1.381 . S
C1856 C1858 1.381 . S
C1856 C1859 1.487 . S
C1857 C1854 1.382 . S
C1857 C1858 1.387 . S
C1857 H1874 0.930 . S
C1858 C1856 1.381 . S
C1858 C1857 1.387 . S
C1858 H1875 0.931 . S
C1859 C1852 1.399 . S
C1859 C1856 1.487 . S
C1859 N1876 1.343 . S
H1860 C1832 0.931 . S
H1861 C1834 0.930 . S
H1862 C1836 0.930 . S
H1863 C1837 0.931 . S
H1864 C1839 0.931 . S
H1865 C1841 0.930 . S
H1866 C1843 0.930 . S
H1867 C1844 0.931 . S
H1868 C1846 0.931 . S
H1869 C1848 0.930 . S
H1870 C1850 0.930 . S
H1871 C1851 0.931 . S
H1872 C1853 0.931 . S
H1873 C1855 0.930 . S
H1874 C1857 0.930 . S
H1875 C1858 0.931 . S
N1876 C1838 1.343 . S
N1876 C1859 1.343 . S
N1877 C1845 1.343 . S
N1877 C1852 1.343 . S
C1878 C1879 1.384 . S
C1878 C1880 1.384 . S
C1878 H1906 0.931 . S
C1879 C1878 1.384 . S
C1879 C1882 1.382 . S
C1880 C1878 1.384 . S
C1880 C1881 1.381 . S
C1880 H1907 0.930 . S
C1881 C1880 1.381 . S
C1881 C1883 1.381 . S
C1881 C1884 1.487 . S
C1882 C1879 1.382 . S
C1882 C1883 1.387 . S
C1882 H1908 0.930 . S
C1883 C1881 1.381 . S
C1883 C1882 1.387 . S
C1883 H1909 0.931 . S
C1884 C1881 1.487 . S
C1884 C1891 1.399 . S
C1884 N1922 1.343 . S
C1885 C1886 1.384 . S
C1885 C1887 1.384 . S
C1885 H1910 0.931 . S
C1886 C1885 1.384 . S
C1886 C1889 1.382 . S
C1887 C1885 1.384 . S
C1887 C1888 1.381 . S
C1887 H1911 0.930 . S
C1888 C1887 1.381 . S
C1888 C1890 1.381 . S
C1888 C1891 1.487 . S
C1889 C1886 1.382 . S
C1889 C1890 1.387 . S
C1889 H1912 0.930 . S
C1890 C1888 1.381 . S
C1890 C1889 1.387 . S
C1890 H1913 0.931 . S
C1891 C1884 1.399 . S
C1891 C1888 1.487 . S
C1891 N1923 1.343 . S
C1892 C1893 1.384 . S
C1892 C1894 1.384 . S
C1892 H1914 0.931 . S
C1893 C1892 1.384 . S
C1893 C1896 1.382 . S
C1894 C1892 1.384 . S
C1894 C1895 1.381 . S
C1894 H1915 0.930 . S
C1895 C1894 1.381 . S
C1895 C1897 1.381 . S
C1895 C1898 1.487 . S
C1896 C1893 1.382 . S
C1896 C1897 1.387 . S
C1896 H1916 0.930 . S
C1897 C1895 1.381 . S
C1897 C1896 1.387 . S
C1897 H1917 0.931 . S
C1898 C1895 1.487 . S
C1898 C1905 1.399 . S
C1898 N1923 1.343 . S
C1899 C1900 1.384 . S
C1899 C1901 1.384 . S
C1899 H1918 0.931 . S
C1900 C1899 1.384 . S
C1900 C1903 1.382 . S
C1901 C1899 1.384 . S
C1901 C1902 1.381 . S
C1901 H1919 0.930 . S
C1902 C1901 1.381 . S
C1902 C1904 1.381 . S
C1902 C1905 1.487 . S
C1903 C1900 1.382 . S
C1903 C1904 1.387 . S
C1903 H1920 0.930 . S
C1904 C1902 1.381 . S
C1904 C1903 1.387 . S
C1904 H1921 0.931 . S
C1905 C1898 1.399 . S
C1905 C1902 1.487 . S
C1905 N1922 1.343 . S
H1906 C1878 0.931 . S
H1907 C1880 0.930 . S
H1908 C1882 0.930 . S
H1909 C1883 0.931 . S
H1910 C1885 0.931 . S
H1911 C1887 0.930 . S
H1912 C1889 0.930 . S
H1913 C1890 0.931 . S
H1914 C1892 0.931 . S
H1915 C1894 0.930 . S
H1916 C1896 0.930 . S
H1917 C1897 0.931 . S
H1918 C1899 0.931 . S
H1919 C1901 0.930 . S
H1920 C1903 0.930 . S
H1921 C1904 0.931 . S
N1922 C1884 1.343 . S
N1922 C1905 1.343 . S
N1923 C1891 1.343 . S
N1923 C1898 1.343 . S
C1924 C1925 1.384 . S
C1924 C1926 1.384 . S
C1924 H1952 0.931 . S
C1925 C1924 1.384 . S
C1925 C1928 1.382 . S
C1926 C1924 1.384 . S
C1926 C1927 1.381 . S
C1926 H1953 0.930 . S
C1927 C1926 1.381 . S
C1927 C1929 1.381 . S
C1927 C1930 1.487 . S
C1928 C1925 1.382 . S
C1928 C1929 1.387 . S
C1928 H1954 0.930 . S
C1929 C1927 1.381 . S
C1929 C1928 1.387 . S
C1929 H1955 0.931 . S
C1930 C1927 1.487 . S
C1930 C1937 1.399 . S
C1930 N1968 1.343 . S
C1931 C1932 1.384 . S
C1931 C1933 1.384 . S
C1931 H1956 0.931 . S
C1932 C1931 1.384 . S
C1932 C1935 1.382 . S
C1933 C1931 1.384 . S
C1933 C1934 1.381 . S
C1933 H1957 0.930 . S
C1934 C1933 1.381 . S
C1934 C1936 1.381 . S
C1934 C1937 1.487 . S
C1935 C1932 1.382 . S
C1935 C1936 1.387 . S
C1935 H1958 0.930 . S
C1936 C1934 1.381 . S
C1936 C1935 1.387 . S
C1936 H1959 0.931 . S
C1937 C1930 1.399 . S
C1937 C1934 1.487 . S
C1937 N1969 1.343 . S
C1938 C1939 1.384 . S
C1938 C1940 1.384 . S
C1938 H1960 0.931 . S
C1939 C1938 1.384 . S
C1939 C1942 1.382 . S
C1940 C1938 1.384 . S
C1940 C1941 1.381 . S
C1940 H1961 0.930 . S
C1941 C1940 1.381 . S
C1941 C1943 1.381 . S
C1941 C1944 1.487 . S
C1942 C1939 1.382 . S
C1942 C1943 1.387 . S
C1942 H1962 0.930 . S
C1943 C1941 1.381 . S
C1943 C1942 1.387 . S
C1943 H1963 0.931 . S
C1944 C1941 1.487 . S
C1944 C1951 1.399 . S
C1944 N1969 1.343 . S
C1945 C1946 1.384 . S
C1945 C1947 1.384 . S
C1945 H1964 0.931 . S
C1946 C1945 1.384 . S
C1946 C1949 1.382 . S
C1947 C1945 1.384 . S
C1947 C1948 1.381 . S
C1947 H1965 0.930 . S
C1948 C1947 1.381 . S
C1948 C1950 1.381 . S
C1948 C1951 1.487 . S
C1949 C1946 1.382 . S
C1949 C1950 1.387 . S
C1949 H1966 0.930 . S
C1950 C1948 1.381 . S
C1950 C1949 1.387 . S
C1950 H1967 0.931 . S
C1951 C1944 1.399 . S
C1951 C1948 1.487 . S
C1951 N1968 1.343 . S
H1952 C1924 0.931 . S
H1953 C1926 0.930 . S
H1954 C1928 0.930 . S
H1955 C1929 0.931 . S
H1956 C1931 0.931 . S
H1957 C1933 0.930 . S
H1958 C1935 0.930 . S
H1959 C1936 0.931 . S
H1960 C1938 0.931 . S
H1961 C1940 0.930 . S
H1962 C1942 0.930 . S
H1963 C1943 0.931 . S
H1964 C1945 0.931 . S
H1965 C1947 0.930 . S
H1966 C1949 0.930 . S
H1967 C1950 0.931 . S
N1968 C1930 1.343 . S
N1968 C1951 1.343 . S
N1969 C1937 1.343 . S
N1969 C1944 1.343 . S
C1970 C1971 1.384 . S
C1970 C1972 1.384 . S
C1970 H1998 0.931 . S
C1971 C1970 1.384 . S
C1971 C1974 1.382 . S
C1972 C1970 1.384 . S
C1972 C1973 1.381 . S
C1972 H1999 0.930 . S
C1973 C1972 1.381 . S
C1973 C1975 1.381 . S
C1973 C1976 1.487 . S
C1974 C1971 1.382 . S
C1974 C1975 1.387 . S
C1974 H2000 0.930 . S
C1975 C1973 1.381 . S
C1975 C1974 1.387 . S
C1975 H2001 0.931 . S
C1976 C1973 1.487 . S
C1976 C1983 1.399 . S
C1976 N2014 1.343 . S
C1977 C1978 1.384 . S
C1977 C1979 1.384 . S
C1977 H2002 0.931 . S
C1978 C1977 1.384 . S
C1978 C1981 1.382 . S
C1979 C1977 1.384 . S
C1979 C1980 1.381 . S
C1979 H2003 0.930 . S
C1980 C1979 1.381 . S
C1980 C1982 1.381 . S
C1980 C1983 1.487 . S
C1981 C1978 1.382 . S
C1981 C1982 1.387 . S
C1981 H2004 0.930 . S
C1982 C1980 1.381 . S
C1982 C1981 1.387 . S
C1982 H2005 0.931 . S
C1983 C1976 1.399 . S
C1983 C1980 1.487 . S
C1983 N2015 1.343 . S
C1984 C1985 1.384 . S
C1984 C1986 1.384 . S
C1984 H2006 0.931 . S
C1985 C1984 1.384 . S
C1985 C1988 1.382 . S
C1986 C1984 1.384 . S
C1986 C1987 1.381 . S
C1986 H2007 0.930 . S
C1987 C1986 1.381 . S
C1987 C1989 1.381 . S
C1987 C1990 1.487 . S
C1988 C1985 1.382 . S
C1988 C1989 1.387 . S
C1988 H2008 0.930 . S
C1989 C1987 1.381 . S
C1989 C1988 1.387 . S
C1989 H2009 0.931 . S
C1990 C1987 1.487 . S
C1990 C1997 1.399 . S
C1990 N2015 1.343 . S
C1991 C1992 1.384 . S
C1991 C1993 1.384 . S
C1991 H2010 0.931 . S
C1992 C1991 1.384 . S
C1992 C1995 1.382 . S
C1993 C1991 1.384 . S
C1993 C1994 1.381 . S
C1993 H2011 0.930 . S
C1994 C1993 1.381 . S
C1994 C1996 1.381 . S
C1994 C1997 1.487 . S
C1995 C1992 1.382 . S
C1995 C1996 1.387 . S
C1995 H2012 0.930 . S
C1996 C1994 1.381 . S
C1996 C1995 1.387 . S
C1996 H2013 0.931 . S
C1997 C1990 1.399 . S
C1997 C1994 1.487 . S
C1997 N2014 1.343 . S
H1998 C1970 0.931 . S
H1999 C1972 0.930 . S
H2000 C1974 0.930 . S
H2001 C1975 0.931 . S
H2002 C1977 0.931 . S
H2003 C1979 0.930 . S
H2004 C1981 0.930 . S
H2005 C1982 0.931 . S
H2006 C1984 0.931 . S
H2007 C1986 0.930 . S
H2008 C1988 0.930 . S
H2009 C1989 0.931 . S
H2010 C1991 0.931 . S
H2011 C1993 0.930 . S
H2012 C1995 0.930 . S
H2013 C1996 0.931 . S
N2014 C1976 1.343 . S
N2014 C1997 1.343 . S
N2015 C1983 1.343 . S
N2015 C1990 1.343 . S
C2016 C2017 1.384 . S
C2016 C2018 1.384 . S
C2016 H2044 0.931 . S
C2017 C2016 1.384 . S
C2017 C2020 1.382 . S
C2018 C2016 1.384 . S
C2018 C2019 1.381 . S
C2018 H2045 0.930 . S
C2019 C2018 1.381 . S
C2019 C2021 1.381 . S
C2019 C2022 1.487 . S
C2020 C2017 1.382 . S
C2020 C2021 1.387 . S
C2020 H2046 0.930 . S
C2021 C2019 1.381 . S
C2021 C2020 1.387 . S
C2021 H2047 0.931 . S
C2022 C2019 1.487 . S
C2022 C2029 1.399 . S
C2022 N2060 1.343 . S
C2023 C2024 1.384 . S
C2023 C2025 1.384 . S
C2023 H2048 0.931 . S
C2024 C2023 1.384 . S
C2024 C2027 1.382 . S
C2025 C2023 1.384 . S
C2025 C2026 1.381 . S
C2025 H2049 0.930 . S
C2026 C2025 1.381 . S
C2026 C2028 1.381 . S
C2026 C2029 1.487 . S
C2027 C2024 1.382 . S
C2027 C2028 1.387 . S
C2027 H2050 0.930 . S
C2028 C2026 1.381 . S
C2028 C2027 1.387 . S
C2028 H2051 0.931 . S
C2029 C2022 1.399 . S
C2029 C2026 1.487 . S
C2029 N2061 1.343 . S
C2030 C2031 1.384 . S
C2030 C2032 1.384 . S
C2030 H2052 0.931 . S
C2031 C2030 1.384 . S
C2031 C2034 1.382 . S
C2032 C2030 1.384 . S
C2032 C2033 1.381 . S
C2032 H2053 0.930 . S
C2033 C2032 1.381 . S
C2033 C2035 1.381 . S
C2033 C2036 1.487 . S
C2034 C2031 1.382 . S
C2034 C2035 1.387 . S
C2034 H2054 0.930 . S
C2035 C2033 1.381 . S
C2035 C2034 1.387 . S
C2035 H2055 0.931 . S
C2036 C2033 1.487 . S
C2036 C2043 1.399 . S
C2036 N2061 1.343 . S
C2037 C2038 1.384 . S
C2037 C2039 1.384 . S
C2037 H2056 0.931 . S
C2038 C2037 1.384 . S
C2038 C2041 1.382 . S
C2039 C2037 1.384 . S
C2039 C2040 1.381 . S
C2039 H2057 0.930 . S
C2040 C2039 1.381 . S
C2040 C2042 1.381 . S
C2040 C2043 1.487 . S
C2041 C2038 1.382 . S
C2041 C2042 1.387 . S
C2041 H2058 0.930 . S
C2042 C2040 1.381 . S
C2042 C2041 1.387 . S
C2042 H2059 0.931 . S
C2043 C2036 1.399 . S
C2043 C2040 1.487 . S
C2043 N2060 1.343 . S
H2044 C2016 0.931 . S
H2045 C2018 0.930 . S
H2046 C2020 0.930 . S
H2047 C2021 0.931 . S
H2048 C2023 0.931 . S
H2049 C2025 0.930 . S
H2050 C2027 0.930 . S
H2051 C2028 0.931 . S
H2052 C2030 0.931 . S
H2053 C2032 0.930 . S
H2054 C2034 0.930 . S
H2055 C2035 0.931 . S
H2056 C2037 0.931 . S
H2057 C2039 0.930 . S
H2058 C2041 0.930 . S
H2059 C2042 0.931 . S
N2060 C2022 1.343 . S
N2060 C2043 1.343 . S
N2061 C2029 1.343 . S
N2061 C2036 1.343 . S
C2062 C2063 1.384 . S
C2062 C2064 1.384 . S
C2062 H2090 0.931 . S
C2063 C2062 1.384 . S
C2063 C2066 1.382 . S
C2064 C2062 1.384 . S
C2064 C2065 1.381 . S
C2064 H2091 0.930 . S
C2065 C2064 1.381 . S
C2065 C2067 1.381 . S
C2065 C2068 1.487 . S
C2066 C2063 1.382 . S
C2066 C2067 1.387 . S
C2066 H2092 0.930 . S
C2067 C2065 1.381 . S
C2067 C2066 1.387 . S
C2067 H2093 0.931 . S
C2068 C2065 1.487 . S
C2068 C2075 1.399 . S
C2068 N2106 1.343 . S
C2069 C2070 1.384 . S
C2069 C2071 1.384 . S
C2069 H2094 0.931 . S
C2070 C2069 1.384 . S
C2070 C2073 1.382 . S
C2071 C2069 1.384 . S
C2071 C2072 1.381 . S
C2071 H2095 0.930 . S
C2072 C2071 1.381 . S
C2072 C2074 1.381 . S
C2072 C2075 1.487 . S
C2073 C2070 1.382 . S
C2073 C2074 1.387 . S
C2073 H2096 0.930 . S
C2074 C2072 1.381 . S
C2074 C2073 1.387 . S
C2074 H2097 0.931 . S
C2075 C2068 1.399 . S
C2075 C2072 1.487 . S
C2075 N2107 1.343 . S
C2076 C2077 1.384 . S
C2076 C2078 1.384 . S
C2076 H2098 0.931 . S
C2077 C2076 1.384 . S
C2077 C2080 1.382 . S
C2078 C2076 1.384 . S
C2078 C2079 1.381 . S
C2078 H2099 0.930 . S
C2079 C2078 1.381 . S
C2079 C2081 1.381 . S
C2079 C2082 1.487 . S
C2080 C2077 1.382 . S
C2080 C2081 1.387 . S
C2080 H2100 0.930 . S
C2081 C2079 1.381 . S
C2081 C2080 1.387 . S
C2081 H2101 0.931 . S
C2082 C2079 1.487 . S
C2082 C2089 1.399 . S
C2082 N2107 1.343 . S
C2083 C2084 1.384 . S
C2083 C2085 1.384 . S
C2083 H2102 0.931 . S
C2084 C2083 1.384 . S
C2084 C2087 1.382 . S
C2085 C2083 1.384 . S
C2085 C2086 1.381 . S
C2085 H2103 0.930 . S
C2086 C2085 1.381 . S
C2086 C2088 1.381 . S
C2086 C2089 1.487 . S
C2087 C2084 1.382 . S
C2087 C2088 1.387 . S
C2087 H2104 0.930 . S
C2088 C2086 1.381 . S
C2088 C2087 1.387 . S
C2088 H2105 0.931 . S
C2089 C2082 1.399 . S
C2089 C2086 1.487 . S
C2089 N2106 1.343 . S
H2090 C2062 0.931 . S
H2091 C2064 0.930 . S
H2092 C2066 0.930 . S
H2093 C2067 0.931 . S
H2094 C2069 0.931 . S
H2095 C2071 0.930 . S
H2096 C2073 0.930 . S
H2097 C2074 0.931 . S
H2098 C2076 0.931 . S
H2099 C2078 0.930 . S
H2100 C2080 0.930 . S
H2101 C2081 0.931 . S
H2102 C2083 0.931 . S
H2103 C2085 0.930 . S
H2104 C2087 0.930 . S
H2105 C2088 0.931 . S
N2106 C2068 1.343 . S
N2106 C2089 1.343 . S
N2107 C2075 1.343 . S
N2107 C2082 1.343 . S
C2108 C2109 1.384 . S
C2108 C2110 1.384 . S
C2108 H2136 0.931 . S
C2109 C2108 1.384 . S
C2109 C2112 1.382 . S
C2110 C2108 1.384 . S
C2110 C2111 1.381 . S
C2110 H2137 0.930 . S
C2111 C2110 1.381 . S
C2111 C2113 1.381 . S
C2111 C2114 1.487 . S
C2112 C2109 1.382 . S
C2112 C2113 1.387 . S
C2112 H2138 0.930 . S
C2113 C2111 1.381 . S
C2113 C2112 1.387 . S
C2113 H2139 0.931 . S
C2114 C2111 1.487 . S
C2114 C2121 1.399 . S
C2114 N2152 1.343 . S
C2115 C2116 1.384 . S
C2115 C2117 1.384 . S
C2115 H2140 0.931 . S
C2116 C2115 1.384 . S
C2116 C2119 1.382 . S
C2117 C2115 1.384 . S
C2117 C2118 1.381 . S
C2117 H2141 0.930 . S
C2118 C2117 1.381 . S
C2118 C2120 1.381 . S
C2118 C2121 1.487 . S
C2119 C2116 1.382 . S
C2119 C2120 1.387 . S
C2119 H2142 0.930 . S
C2120 C2118 1.381 . S
C2120 C2119 1.387 . S
C2120 H2143 0.931 . S
C2121 C2114 1.399 . S
C2121 C2118 1.487 . S
C2121 N2153 1.343 . S
C2122 C2123 1.384 . S
C2122 C2124 1.384 . S
C2122 H2144 0.931 . S
C2123 C2122 1.384 . S
C2123 C2126 1.382 . S
C2124 C2122 1.384 . S
C2124 C2125 1.381 . S
C2124 H2145 0.930 . S
C2125 C2124 1.381 . S
C2125 C2127 1.381 . S
C2125 C2128 1.487 . S
C2126 C2123 1.382 . S
C2126 C2127 1.387 . S
C2126 H2146 0.930 . S
C2127 C2125 1.381 . S
C2127 C2126 1.387 . S
C2127 H2147 0.931 . S
C2128 C2125 1.487 . S
C2128 C2135 1.399 . S
C2128 N2153 1.343 . S
C2129 C2130 1.384 . S
C2129 C2131 1.384 . S
C2129 H2148 0.931 . S
C2130 C2129 1.384 . S
C2130 C2133 1.382 . S
C2131 C2129 1.384 . S
C2131 C2132 1.381 . S
C2131 H2149 0.930 . S
C2132 C2131 1.381 . S
C2132 C2134 1.381 . S
C2132 C2135 1.487 . S
C2133 C2130 1.382 . S
C2133 C2134 1.387 . S
C2133 H2150 0.930 . S
C2134 C2132 1.381 . S
C2134 C2133 1.387 . S
C2134 H2151 0.931 . S
C2135 C2128 1.399 . S
C2135 C2132 1.487 . S
C2135 N2152 1.343 . S
H2136 C2108 0.931 . S
H2137 C2110 0.930 . S
H2138 C2112 0.930 . S
H2139 C2113 0.931 . S
H2140 C2115 0.931 . S
H2141 C2117 0.930 . S
H2142 C2119 0.930 . S
H2143 C2120 0.931 . S
H2144 C2122 0.931 . S
H2145 C2124 0.930 . S
H2146 C2126 0.930 . S
H2147 C2127 0.931 . S
H2148 C2129 0.931 . S
H2149 C2131 0.930 . S
H2150 C2133 0.930 . S
H2151 C2134 0.931 . S
N2152 C2114 1.343 . S
N2152 C2135 1.343 . S
N2153 C2121 1.343 . S
N2153 C2128 1.343 . S
C2154 C2155 1.384 . S
C2154 C2156 1.384 . S
C2154 H2182 0.931 . S
C2155 C2154 1.384 . S
C2155 C2158 1.382 . S
C2156 C2154 1.384 . S
C2156 C2157 1.381 . S
C2156 H2183 0.930 . S
C2157 C2156 1.381 . S
C2157 C2159 1.381 . S
C2157 C2160 1.487 . S
C2158 C2155 1.382 . S
C2158 C2159 1.387 . S
C2158 H2184 0.930 . S
C2159 C2157 1.381 . S
C2159 C2158 1.387 . S
C2159 H2185 0.931 . S
C2160 C2157 1.487 . S
C2160 C2167 1.399 . S
C2160 N2198 1.343 . S
C2161 C2162 1.384 . S
C2161 C2163 1.384 . S
C2161 H2186 0.931 . S
C2162 C2161 1.384 . S
C2162 C2165 1.382 . S
C2163 C2161 1.384 . S
C2163 C2164 1.381 . S
C2163 H2187 0.930 . S
C2164 C2163 1.381 . S
C2164 C2166 1.381 . S
C2164 C2167 1.487 . S
C2165 C2162 1.382 . S
C2165 C2166 1.387 . S
C2165 H2188 0.930 . S
C2166 C2164 1.381 . S
C2166 C2165 1.387 . S
C2166 H2189 0.931 . S
C2167 C2160 1.399 . S
C2167 C2164 1.487 . S
C2167 N2199 1.343 . S
C2168 C2169 1.384 . S
C2168 C2170 1.384 . S
C2168 H2190 0.931 . S
C2169 C2168 1.384 . S
C2169 C2172 1.382 . S
C2170 C2168 1.384 . S
C2170 C2171 1.381 . S
C2170 H2191 0.930 . S
C2171 C2170 1.381 . S
C2171 C2173 1.381 . S
C2171 C2174 1.487 . S
C2172 C2169 1.382 . S
C2172 C2173 1.387 . S
C2172 H2192 0.930 . S
C2173 C2171 1.381 . S
C2173 C2172 1.387 . S
C2173 H2193 0.931 . S
C2174 C2171 1.487 . S
C2174 C2181 1.399 . S
C2174 N2199 1.343 . S
C2175 C2176 1.384 . S
C2175 C2177 1.384 . S
C2175 H2194 0.931 . S
C2176 C2175 1.384 . S
C2176 C2179 1.382 . S
C2177 C2175 1.384 . S
C2177 C2178 1.381 . S
C2177 H2195 0.930 . S
C2178 C2177 1.381 . S
C2178 C2180 1.381 . S
C2178 C2181 1.487 . S
C2179 C2176 1.382 . S
C2179 C2180 1.387 . S
C2179 H2196 0.930 . S
C2180 C2178 1.381 . S
C2180 C2179 1.387 . S
C2180 H2197 0.931 . S
C2181 C2174 1.399 . S
C2181 C2178 1.487 . S
C2181 N2198 1.343 . S
H2182 C2154 0.931 . S
H2183 C2156 0.930 . S
H2184 C2158 0.930 . S
H2185 C2159 0.931 . S
H2186 C2161 0.931 . S
H2187 C2163 0.930 . S
H2188 C2165 0.930 . S
H2189 C2166 0.931 . S
H2190 C2168 0.931 . S
H2191 C2170 0.930 . S
H2192 C2172 0.930 . S
H2193 C2173 0.931 . S
H2194 C2175 0.931 . S
H2195 C2177 0.930 . S
H2196 C2179 0.930 . S
H2197 C2180 0.931 . S
N2198 C2160 1.343 . S
N2198 C2181 1.343 . S
N2199 C2167 1.343 . S
N2199 C2174 1.343 . S
C2200 C2201 1.384 . S
C2200 C2202 1.384 . S
C2200 H2228 0.931 . S
C2201 C2200 1.384 . S
C2201 C2204 1.382 . S
C2202 C2200 1.384 . S
C2202 C2203 1.381 . S
C2202 H2229 0.930 . S
C2203 C2202 1.381 . S
C2203 C2205 1.381 . S
C2203 C2206 1.487 . S
C2204 C2201 1.382 . S
C2204 C2205 1.387 . S
C2204 H2230 0.930 . S
C2205 C2203 1.381 . S
C2205 C2204 1.387 . S
C2205 H2231 0.931 . S
C2206 C2203 1.487 . S
C2206 C2213 1.399 . S
C2206 N2244 1.343 . S
C2207 C2208 1.384 . S
C2207 C2209 1.384 . S
C2207 H2232 0.931 . S
C2208 C2207 1.384 . S
C2208 C2211 1.382 . S
C2209 C2207 1.384 . S
C2209 C2210 1.381 . S
C2209 H2233 0.930 . S
C2210 C2209 1.381 . S
C2210 C2212 1.381 . S
C2210 C2213 1.487 . S
C2211 C2208 1.382 . S
C2211 C2212 1.387 . S
C2211 H2234 0.930 . S
C2212 C2210 1.381 . S
C2212 C2211 1.387 . S
C2212 H2235 0.931 . S
C2213 C2206 1.399 . S
C2213 C2210 1.487 . S
C2213 N2245 1.343 . S
C2214 C2215 1.384 . S
C2214 C2216 1.384 . S
C2214 H2236 0.931 . S
C2215 C2214 1.384 . S
C2215 C2218 1.382 . S
C2216 C2214 1.384 . S
C2216 C2217 1.381 . S
C2216 H2237 0.930 . S
C2217 C2216 1.381 . S
C2217 C2219 1.381 . S
C2217 C2220 1.487 . S
C2218 C2215 1.382 . S
C2218 C2219 1.387 . S
C2218 H2238 0.930 . S
C2219 C2217 1.381 . S
C2219 C2218 1.387 . S
C2219 H2239 0.931 . S
C2220 C2217 1.487 . S
C2220 C2227 1.399 . S
C2220 N2245 1.343 . S
C2221 C2222 1.384 . S
C2221 C2223 1.384 . S
C2221 H2240 0.931 . S
C2222 C2221 1.384 . S
C2222 C2225 1.382 . S
C2223 C2221 1.384 . S
C2223 C2224 1.381 . S
C2223 H2241 0.930 . S
C2224 C2223 1.381 . S
C2224 C2226 1.381 . S
C2224 C2227 1.487 . S
C2225 C2222 1.382 . S
C2225 C2226 1.387 . S
C2225 H2242 0.930 . S
C2226 C2224 1.381 . S
C2226 C2225 1.387 . S
C2226 H2243 0.931 . S
C2227 C2220 1.399 . S
C2227 C2224 1.487 . S
C2227 N2244 1.343 . S
H2228 C2200 0.931 . S
H2229 C2202 0.930 . S
H2230 C2204 0.930 . S
H2231 C2205 0.931 . S
H2232 C2207 0.931 . S
H2233 C2209 0.930 . S
H2234 C2211 0.930 . S
H2235 C2212 0.931 . S
H2236 C2214 0.931 . S
H2237 C2216 0.930 . S
H2238 C2218 0.930 . S
H2239 C2219 0.931 . S
H2240 C2221 0.931 . S
H2241 C2223 0.930 . S
H2242 C2225 0.930 . S
H2243 C2226 0.931 . S
N2244 C2206 1.343 . S
N2244 C2227 1.343 . S
N2245 C2213 1.343 . S
N2245 C2220 1.343 . S
C2246 C2247 1.384 . S
C2246 C2248 1.384 . S
C2246 H2274 0.931 . S
C2247 C2246 1.384 . S
C2247 C2250 1.382 . S
C2248 C2246 1.384 . S
C2248 C2249 1.381 . S
C2248 H2275 0.930 . S
C2249 C2248 1.381 . S
C2249 C2251 1.381 . S
C2249 C2252 1.487 . S
C2250 C2247 1.382 . S
C2250 C2251 1.387 . S
C2250 H2276 0.930 . S
C2251 C2249 1.381 . S
C2251 C2250 1.387 . S
C2251 H2277 0.931 . S
C2252 C2249 1.487 . S
C2252 C2259 1.399 . S
C2252 N2290 1.343 . S
C2253 C2254 1.384 . S
C2253 C2255 1.384 . S
C2253 H2278 0.931 . S
C2254 C2253 1.384 . S
C2254 C2257 1.382 . S
C2255 C2253 1.384 . S
C2255 C2256 1.381 . S
C2255 H2279 0.930 . S
C2256 C2255 1.381 . S
C2256 C2258 1.381 . S
C2256 C2259 1.487 . S
C2257 C2254 1.382 . S
C2257 C2258 1.387 . S
C2257 H2280 0.930 . S
C2258 C2256 1.381 . S
C2258 C2257 1.387 . S
C2258 H2281 0.931 . S
C2259 C2252 1.399 . S
C2259 C2256 1.487 . S
C2259 N2291 1.343 . S
C2260 C2261 1.384 . S
C2260 C2262 1.384 . S
C2260 H2282 0.931 . S
C2261 C2260 1.384 . S
C2261 C2264 1.382 . S
C2262 C2260 1.384 . S
C2262 C2263 1.381 . S
C2262 H2283 0.930 . S
C2263 C2262 1.381 . S
C2263 C2265 1.381 . S
C2263 C2266 1.487 . S
C2264 C2261 1.382 . S
C2264 C2265 1.387 . S
C2264 H2284 0.930 . S
C2265 C2263 1.381 . S
C2265 C2264 1.387 . S
C2265 H2285 0.931 . S
C2266 C2263 1.487 . S
C2266 C2273 1.399 . S
C2266 N2291 1.343 . S
C2267 C2268 1.384 . S
C2267 C2269 1.384 . S
C2267 H2286 0.931 . S
C2268 C2267 1.384 . S
C2268 C2271 1.382 . S
C2269 C2267 1.384 . S
C2269 C2270 1.381 . S
C2269 H2287 0.930 . S
C2270 C2269 1.381 . S
C2270 C2272 1.381 . S
C2270 C2273 1.487 . S
C2271 C2268 1.382 . S
C2271 C2272 1.387 . S
C2271 H2288 0.930 . S
C2272 C2270 1.381 . S
C2272 C2271 1.387 . S
C2272 H2289 0.931 . S
C2273 C2266 1.399 . S
C2273 C2270 1.487 . S
C2273 N2290 1.343 . S
H2274 C2246 0.931 . S
H2275 C2248 0.930 . S
H2276 C2250 0.930 . S
H2277 C2251 0.931 . S
H2278 C2253 0.931 . S
H2279 C2255 0.930 . S
H2280 C2257 0.930 . S
H2281 C2258 0.931 . S
H2282 C2260 0.931 . S
H2283 C2262 0.930 . S
H2284 C2264 0.930 . S
H2285 C2265 0.931 . S
H2286 C2267 0.931 . S
H2287 C2269 0.930 . S
H2288 C2271 0.930 . S
H2289 C2272 0.931 . S
N2290 C2252 1.343 . S
N2290 C2273 1.343 . S
N2291 C2259 1.343 . S
N2291 C2266 1.343 . S
C2292 C2293 1.384 . S
C2292 C2294 1.384 . S
C2292 H2320 0.931 . S
C2293 C2292 1.384 . S
C2293 C2296 1.382 . S
C2294 C2292 1.384 . S
C2294 C2295 1.381 . S
C2294 H2321 0.930 . S
C2295 C2294 1.381 . S
C2295 C2297 1.381 . S
C2295 C2298 1.487 . S
C2296 C2293 1.382 . S
C2296 C2297 1.387 . S
C2296 H2322 0.930 . S
C2297 C2295 1.381 . S
C2297 C2296 1.387 . S
C2297 H2323 0.931 . S
C2298 C2295 1.487 . S
C2298 C2305 1.399 . S
C2298 N2336 1.343 . S
C2299 C2300 1.384 . S
C2299 C2301 1.384 . S
C2299 H2324 0.931 . S
C2300 C2299 1.384 . S
C2300 C2303 1.382 . S
C2301 C2299 1.384 . S
C2301 C2302 1.381 . S
C2301 H2325 0.930 . S
C2302 C2301 1.381 . S
C2302 C2304 1.381 . S
C2302 C2305 1.487 . S
C2303 C2300 1.382 . S
C2303 C2304 1.387 . S
C2303 H2326 0.930 . S
C2304 C2302 1.381 . S
C2304 C2303 1.387 . S
C2304 H2327 0.931 . S
C2305 C2298 1.399 . S
C2305 C2302 1.487 . S
C2305 N2337 1.343 . S
C2306 C2307 1.384 . S
C2306 C2308 1.384 . S
C2306 H2328 0.931 . S
C2307 C2306 1.384 . S
C2307 C2310 1.382 . S
C2308 C2306 1.384 . S
C2308 C2309 1.381 . S
C2308 H2329 0.930 . S
C2309 C2308 1.381 . S
C2309 C2311 1.381 . S
C2309 C2312 1.487 . S
C2310 C2307 1.382 . S
C2310 C2311 1.387 . S
C2310 H2330 0.930 . S
C2311 C2309 1.381 . S
C2311 C2310 1.387 . S
C2311 H2331 0.931 . S
C2312 C2309 1.487 . S
C2312 C2319 1.399 . S
C2312 N2337 1.343 . S
C2313 C2314 1.384 . S
C2313 C2315 1.384 . S
C2313 H2332 0.931 . S
C2314 C2313 1.384 . S
C2314 C2317 1.382 . S
C2315 C2313 1.384 . S
C2315 C2316 1.381 . S
C2315 H2333 0.930 . S
C2316 C2315 1.381 . S
C2316 C2318 1.381 . S
C2316 C2319 1.487 . S
C2317 C2314 1.382 . S
C2317 C2318 1.387 . S
C2317 H2334 0.930 . S
C2318 C2316 1.381 . S
C2318 C2317 1.387 . S
C2318 H2335 0.931 . S
C2319 C2312 1.399 . S
C2319 C2316 1.487 . S
C2319 N2336 1.343 . S
H2320 C2292 0.931 . S
H2321 C2294 0.930 . S
H2322 C2296 0.930 . S
H2323 C2297 0.931 . S
H2324 C2299 0.931 . S
H2325 C2301 0.930 . S
H2326 C2303 0.930 . S
H2327 C2304 0.931 . S
H2328 C2306 0.931 . S
H2329 C2308 0.930 . S
H2330 C2310 0.930 . S
H2331 C2311 0.931 . S
H2332 C2313 0.931 . S
H2333 C2315 0.930 . S
H2334 C2317 0.930 . S
H2335 C2318 0.931 . S
N2336 C2298 1.343 . S
N2336 C2319 1.343 . S
N2337 C2305 1.343 . S
N2337 C2312 1.343 . S
C2338 C2339 1.384 . S
C2338 C2340 1.384 . S
C2338 H2366 0.931 . S
C2339 C2338 1.384 . S
C2339 C2342 1.382 . S
C2340 C2338 1.384 . S
C2340 C2341 1.381 . S
C2340 H2367 0.930 . S
C2341 C2340 1.381 . S
C2341 C2343 1.381 . S
C2341 C2344 1.487 . S
C2342 C2339 1.382 . S
C2342 C2343 1.387 . S
C2342 H2368 0.930 . S
C2343 C2341 1.381 . S
C2343 C2342 1.387 . S
C2343 H2369 0.931 . S
C2344 C2341 1.487 . S
C2344 C2351 1.399 . S
C2344 N2382 1.343 . S
C2345 C2346 1.384 . S
C2345 C2347 1.384 . S
C2345 H2370 0.931 . S
C2346 C2345 1.384 . S
C2346 C2349 1.382 . S
C2347 C2345 1.384 . S
C2347 C2348 1.381 . S
C2347 H2371 0.930 . S
C2348 C2347 1.381 . S
C2348 C2350 1.381 . S
C2348 C2351 1.487 . S
C2349 C2346 1.382 . S
C2349 C2350 1.387 . S
C2349 H2372 0.930 . S
C2350 C2348 1.381 . S
C2350 C2349 1.387 . S
C2350 H2373 0.931 . S
C2351 C2344 1.399 . S
C2351 C2348 1.487 . S
C2351 N2383 1.343 . S
C2352 C2353 1.384 . S
C2352 C2354 1.384 . S
C2352 H2374 0.931 . S
C2353 C2352 1.384 . S
C2353 C2356 1.382 . S
C2354 C2352 1.384 . S
C2354 C2355 1.381 . S
C2354 H2375 0.930 . S
C2355 C2354 1.381 . S
C2355 C2357 1.381 . S
C2355 C2358 1.487 . S
C2356 C2353 1.382 . S
C2356 C2357 1.387 . S
C2356 H2376 0.930 . S
C2357 C2355 1.381 . S
C2357 C2356 1.387 . S
C2357 H2377 0.931 . S
C2358 C2355 1.487 . S
C2358 C2365 1.399 . S
C2358 N2383 1.343 . S
C2359 C2360 1.384 . S
C2359 C2361 1.384 . S
C2359 H2378 0.931 . S
C2360 C2359 1.384 . S
C2360 C2363 1.382 . S
C2361 C2359 1.384 . S
C2361 C2362 1.381 . S
C2361 H2379 0.930 . S
C2362 C2361 1.381 . S
C2362 C2364 1.381 . S
C2362 C2365 1.487 . S
C2363 C2360 1.382 . S
C2363 C2364 1.387 . S
C2363 H2380 0.930 . S
C2364 C2362 1.381 . S
C2364 C2363 1.387 . S
C2364 H2381 0.931 . S
C2365 C2358 1.399 . S
C2365 C2362 1.487 . S
C2365 N2382 1.343 . S
H2366 C2338 0.931 . S
H2367 C2340 0.930 . S
H2368 C2342 0.930 . S
H2369 C2343 0.931 . S
H2370 C2345 0.931 . S
H2371 C2347 0.930 . S
H2372 C2349 0.930 . S
H2373 C2350 0.931 . S
H2374 C2352 0.931 . S
H2375 C2354 0.930 . S
H2376 C2356 0.930 . S
H2377 C2357 0.931 . S
H2378 C2359 0.931 . S
H2379 C2361 0.930 . S
H2380 C2363 0.930 . S
H2381 C2364 0.931 . S
N2382 C2344 1.343 . S
N2382 C2365 1.343 . S
N2383 C2351 1.343 . S
N2383 C2358 1.343 . S
H2384 C2402 0.951 . S
H2385 C2404 0.951 . S
H2386 C2406 0.950 . S
H2387 C2407 0.950 . S
H2388 C2409 0.950 . S
H2389 C2412 0.950 . S
H2390 C2413 0.950 . S
H2391 C2415 0.950 . S
H2392 C2416 0.950 . S
H2393 C2417 0.951 . S
H2394 C2419 0.951 . S
H2395 C2421 0.950 . S
H2396 C2422 0.950 . S
H2397 C2424 0.950 . S
H2398 C2427 0.950 . S
H2399 C2428 0.950 . S
H2400 C2430 0.950 . S
H2401 C2431 0.950 . S
C2402 H2384 0.951 . S
C2402 C2403 1.366 . S
C2402 C2404 1.388 . S
C2403 C2402 1.366 . S
C2403 C2407 1.385 . S
C2404 H2385 0.951 . S
C2404 C2402 1.388 . S
C2404 C2405 1.366 . S
C2405 C2404 1.366 . S
C2405 C2406 1.414 . S
C2405 C2408 1.499 . S
C2406 H2386 0.950 . S
C2406 C2405 1.414 . S
C2406 C2407 1.374 . S
C2407 H2387 0.950 . S
C2407 C2403 1.385 . S
C2407 C2406 1.374 . S
C2408 C2405 1.499 . S
C2408 C2409 1.373 . S
C2408 C2410 1.389 . S
C2409 H2388 0.950 . S
C2409 C2408 1.373 . S
C2409 C2425 1.377 . S
C2410 C2408 1.389 . S
C2410 C2411 1.524 . S
C2410 C2424 1.377 . S
C2411 C2410 1.524 . S
C2411 C2412 1.397 . S
C2411 C2416 1.363 . S
C2412 H2389 0.950 . S
C2412 C2411 1.397 . S
C2412 C2413 1.334 . S
C2413 H2390 0.950 . S
C2413 C2412 1.334 . S
C2413 C2414 1.287 . S
C2414 C2413 1.287 . S
C2414 C2415 1.524 . S
C2414 H2433 0.913 . S
C2415 H2391 0.950 . S
C2415 C2414 1.524 . S
C2415 C2416 1.415 . S
C2416 H2392 0.950 . S
C2416 C2411 1.363 . S
C2416 C2415 1.415 . S
C2417 H2393 0.951 . S
C2417 C2418 1.366 . S
C2417 C2419 1.388 . S
C2418 C2417 1.366 . S
C2418 C2422 1.385 . S
C2419 H2394 0.951 . S
C2419 C2417 1.388 . S
C2419 C2420 1.366 . S
C2420 C2419 1.366 . S
C2420 C2421 1.414 . S
C2420 C2423 1.499 . S
C2421 H2395 0.950 . S
C2421 C2420 1.414 . S
C2421 C2422 1.374 . S
C2422 H2396 0.950 . S
C2422 C2418 1.385 . S
C2422 C2421 1.374 . S
C2423 C2420 1.499 . S
C2423 C2424 1.373 . S
C2423 C2425 1.389 . S
C2424 H2397 0.950 . S
C2424 C2410 1.377 . S
C2424 C2423 1.373 . S
C2425 C2409 1.377 . S
C2425 C2423 1.389 . S
C2425 C2426 1.524 . S
C2426 C2425 1.524 . S
C2426 C2427 1.397 . S
C2426 C2431 1.363 . S
C2427 H2398 0.950 . S
C2427 C2426 1.397 . S
C2427 C2428 1.334 . S
C2428 H2399 0.950 . S
C2428 C2427 1.334 . S
C2428 C2429 1.287 . S
C2429 C2428 1.287 . S
C2429 C2430 1.524 . S
C2429 H2432 0.999 . S
C2430 H2400 0.950 . S
C2430 C2429 1.524 . S
C2430 C2431 1.415 . S
C2431 H2401 0.950 . S
C2431 C2426 1.363 . S
C2431 C2430 1.415 . S
H2432 C2429 0.999 . S
H2433 C2414 0.913 . S
H2434 C2452 0.951 . S
H2435 C2454 0.951 . S
H2436 C2456 0.950 . S
H2437 C2457 0.950 . S
H2438 C2459 0.950 . S
H2439 C2462 0.950 . S
H2440 C2463 0.950 . S
H2441 C2465 0.950 . S
H2442 C2466 0.950 . S
H2443 C2467 0.951 . S
H2444 C2469 0.951 . S
H2445 C2471 0.950 . S
H2446 C2472 0.950 . S
H2447 C2474 0.950 . S
H2448 C2477 0.950 . S
H2449 C2478 0.950 . S
H2450 C2480 0.950 . S
H2451 C2481 0.950 . S
C2452 H2434 0.951 . S
C2452 C2453 1.366 . S
C2452 C2454 1.388 . S
C2453 C2452 1.366 . S
C2453 C2457 1.385 . S
C2454 H2435 0.951 . S
C2454 C2452 1.388 . S
C2454 C2455 1.366 . S
C2455 C2454 1.366 . S
C2455 C2456 1.414 . S
C2455 C2458 1.499 . S
C2456 H2436 0.950 . S
C2456 C2455 1.414 . S
C2456 C2457 1.374 . S
C2457 H2437 0.950 . S
C2457 C2453 1.385 . S
C2457 C2456 1.374 . S
C2458 C2455 1.499 . S
C2458 C2459 1.373 . S
C2458 C2460 1.389 . S
C2459 H2438 0.950 . S
C2459 C2458 1.373 . S
C2459 C2475 1.377 . S
C2460 C2458 1.389 . S
C2460 C2461 1.524 . S
C2460 C2474 1.377 . S
C2461 C2460 1.524 . S
C2461 C2462 1.397 . S
C2461 C2466 1.363 . S
C2462 H2439 0.950 . S
C2462 C2461 1.397 . S
C2462 C2463 1.334 . S
C2463 H2440 0.950 . S
C2463 C2462 1.334 . S
C2463 C2464 1.287 . S
C2464 C2463 1.287 . S
C2464 C2465 1.524 . S
C2464 H2483 0.913 . S
C2465 H2441 0.950 . S
C2465 C2464 1.524 . S
C2465 C2466 1.415 . S
C2466 H2442 0.950 . S
C2466 C2461 1.363 . S
C2466 C2465 1.415 . S
C2467 H2443 0.951 . S
C2467 C2468 1.366 . S
C2467 C2469 1.388 . S
C2468 C2467 1.366 . S
C2468 C2472 1.385 . S
C2469 H2444 0.951 . S
C2469 C2467 1.388 . S
C2469 C2470 1.366 . S
C2470 C2469 1.366 . S
C2470 C2471 1.414 . S
C2470 C2473 1.499 . S
C2471 H2445 0.950 . S
C2471 C2470 1.414 . S
C2471 C2472 1.374 . S
C2472 H2446 0.950 . S
C2472 C2468 1.385 . S
C2472 C2471 1.374 . S
C2473 C2470 1.499 . S
C2473 C2474 1.373 . S
C2473 C2475 1.389 . S
C2474 H2447 0.950 . S
C2474 C2460 1.377 . S
C2474 C2473 1.373 . S
C2475 C2459 1.377 . S
C2475 C2473 1.389 . S
C2475 C2476 1.524 . S
C2476 C2475 1.524 . S
C2476 C2477 1.397 . S
C2476 C2481 1.363 . S
C2477 H2448 0.950 . S
C2477 C2476 1.397 . S
C2477 C2478 1.334 . S
C2478 H2449 0.950 . S
C2478 C2477 1.334 . S
C2478 C2479 1.287 . S
C2479 C2478 1.287 . S
C2479 C2480 1.524 . S
C2479 H2482 0.999 . S
C2480 H2450 0.950 . S
C2480 C2479 1.524 . S
C2480 C2481 1.415 . S
C2481 H2451 0.950 . S
C2481 C2476 1.363 . S
C2481 C2480 1.415 . S
H2482 C2479 0.999 . S
H2483 C2464 0.913 . S
H2484 C2502 0.951 . S
H2485 C2504 0.951 . S
H2486 C2506 0.950 . S
H2487 C2507 0.950 . S
H2488 C2509 0.950 . S
H2489 C2512 0.950 . S
H2490 C2513 0.950 . S
H2491 C2515 0.950 . S
H2492 C2516 0.950 . S
H2493 C2517 0.951 . S
H2494 C2519 0.951 . S
H2495 C2521 0.950 . S
H2496 C2522 0.950 . S
H2497 C2524 0.950 . S
H2498 C2527 0.950 . S
H2499 C2528 0.950 . S
H2500 C2530 0.950 . S
H2501 C2531 0.950 . S
C2502 H2484 0.951 . S
C2502 C2503 1.366 . S
C2502 C2504 1.388 . S
C2503 C2502 1.366 . S
C2503 C2507 1.385 . S
C2504 H2485 0.951 . S
C2504 C2502 1.388 . S
C2504 C2505 1.366 . S
C2505 C2504 1.366 . S
C2505 C2506 1.414 . S
C2505 C2508 1.499 . S
C2506 H2486 0.950 . S
C2506 C2505 1.414 . S
C2506 C2507 1.374 . S
C2507 H2487 0.950 . S
C2507 C2503 1.385 . S
C2507 C2506 1.374 . S
C2508 C2505 1.499 . S
C2508 C2509 1.373 . S
C2508 C2510 1.389 . S
C2509 H2488 0.950 . S
C2509 C2508 1.373 . S
C2509 C2525 1.377 . S
C2510 C2508 1.389 . S
C2510 C2511 1.524 . S
C2510 C2524 1.377 . S
C2511 C2510 1.524 . S
C2511 C2512 1.397 . S
C2511 C2516 1.363 . S
C2512 H2489 0.950 . S
C2512 C2511 1.397 . S
C2512 C2513 1.334 . S
C2513 H2490 0.950 . S
C2513 C2512 1.334 . S
C2513 C2514 1.287 . S
C2514 C2513 1.287 . S
C2514 C2515 1.524 . S
C2514 H2533 0.913 . S
C2515 H2491 0.950 . S
C2515 C2514 1.524 . S
C2515 C2516 1.415 . S
C2516 H2492 0.950 . S
C2516 C2511 1.363 . S
C2516 C2515 1.415 . S
C2517 H2493 0.951 . S
C2517 C2518 1.366 . S
C2517 C2519 1.388 . S
C2518 C2517 1.366 . S
C2518 C2522 1.385 . S
C2519 H2494 0.951 . S
C2519 C2517 1.388 . S
C2519 C2520 1.366 . S
C2520 C2519 1.366 . S
C2520 C2521 1.414 . S
C2520 C2523 1.499 . S
C2521 H2495 0.950 . S
C2521 C2520 1.414 . S
C2521 C2522 1.374 . S
C2522 H2496 0.950 . S
C2522 C2518 1.385 . S
C2522 C2521 1.374 . S
C2523 C2520 1.499 . S
C2523 C2524 1.373 . S
C2523 C2525 1.389 . S
C2524 H2497 0.950 . S
C2524 C2510 1.377 . S
C2524 C2523 1.373 . S
C2525 C2509 1.377 . S
C2525 C2523 1.389 . S
C2525 C2526 1.524 . S
C2526 C2525 1.524 . S
C2526 C2527 1.397 . S
C2526 C2531 1.363 . S
C2527 H2498 0.950 . S
C2527 C2526 1.397 . S
C2527 C2528 1.334 . S
C2528 H2499 0.950 . S
C2528 C2527 1.334 . S
C2528 C2529 1.287 . S
C2529 C2528 1.287 . S
C2529 C2530 1.524 . S
C2529 H2532 0.999 . S
C2530 H2500 0.950 . S
C2530 C2529 1.524 . S
C2530 C2531 1.415 . S
C2531 H2501 0.950 . S
C2531 C2526 1.363 . S
C2531 C2530 1.415 . S
H2532 C2529 0.999 . S
H2533 C2514 0.913 . S
H2534 C2552 0.951 . S
H2535 C2554 0.951 . S
H2536 C2556 0.950 . S
H2537 C2557 0.950 . S
H2538 C2559 0.950 . S
H2539 C2562 0.950 . S
H2540 C2563 0.950 . S
H2541 C2565 0.950 . S
H2542 C2566 0.950 . S
H2543 C2567 0.951 . S
H2544 C2569 0.951 . S
H2545 C2571 0.950 . S
H2546 C2572 0.950 . S
H2547 C2574 0.950 . S
H2548 C2577 0.950 . S
H2549 C2578 0.950 . S
H2550 C2580 0.950 . S
H2551 C2581 0.950 . S
C2552 H2534 0.951 . S
C2552 C2553 1.366 . S
C2552 C2554 1.388 . S
C2553 C2552 1.366 . S
C2553 C2557 1.385 . S
C2554 H2535 0.951 . S
C2554 C2552 1.388 . S
C2554 C2555 1.366 . S
C2555 C2554 1.366 . S
C2555 C2556 1.414 . S
C2555 C2558 1.499 . S
C2556 H2536 0.950 . S
C2556 C2555 1.414 . S
C2556 C2557 1.374 . S
C2557 H2537 0.950 . S
C2557 C2553 1.385 . S
C2557 C2556 1.374 . S
C2558 C2555 1.499 . S
C2558 C2559 1.373 . S
C2558 C2560 1.389 . S
C2559 H2538 0.950 . S
C2559 C2558 1.373 . S
C2559 C2575 1.377 . S
C2560 C2558 1.389 . S
C2560 C2561 1.524 . S
C2560 C2574 1.377 . S
C2561 C2560 1.524 . S
C2561 C2562 1.397 . S
C2561 C2566 1.363 . S
C2562 H2539 0.950 . S
C2562 C2561 1.397 . S
C2562 C2563 1.334 . S
C2563 H2540 0.950 . S
C2563 C2562 1.334 . S
C2563 C2564 1.287 . S
C2564 C2563 1.287 . S
C2564 C2565 1.524 . S
C2564 H2583 0.913 . S
C2565 H2541 0.950 . S
C2565 C2564 1.524 . S
C2565 C2566 1.415 . S
C2566 H2542 0.950 . S
C2566 C2561 1.363 . S
C2566 C2565 1.415 . S
C2567 H2543 0.951 . S
C2567 C2568 1.366 . S
C2567 C2569 1.388 . S
C2568 C2567 1.366 . S
C2568 C2572 1.385 . S
C2569 H2544 0.951 . S
C2569 C2567 1.388 . S
C2569 C2570 1.366 . S
C2570 C2569 1.366 . S
C2570 C2571 1.414 . S
C2570 C2573 1.499 . S
C2571 H2545 0.950 . S
C2571 C2570 1.414 . S
C2571 C2572 1.374 . S
C2572 H2546 0.950 . S
C2572 C2568 1.385 . S
C2572 C2571 1.374 . S
C2573 C2570 1.499 . S
C2573 C2574 1.373 . S
C2573 C2575 1.389 . S
C2574 H2547 0.950 . S
C2574 C2560 1.377 . S
C2574 C2573 1.373 . S
C2575 C2559 1.377 . S
C2575 C2573 1.389 . S
C2575 C2576 1.524 . S
C2576 C2575 1.524 . S
C2576 C2577 1.397 . S
C2576 C2581 1.363 . S
C2577 H2548 0.950 . S
C2577 C2576 1.397 . S
C2577 C2578 1.334 . S
C2578 H2549 0.950 . S
C2578 C2577 1.334 . S
C2578 C2579 1.287 . S
C2579 C2578 1.287 . S
C2579 C2580 1.524 . S
C2579 H2582 0.999 . S
C2580 H2550 0.950 . S
C2580 C2579 1.524 . S
C2580 C2581 1.415 . S
C2581 H2551 0.950 . S
C2581 C2576 1.363 . S
C2581 C2580 1.415 . S
H2582 C2579 0.999 . S
H2583 C2564 0.913 . S
H2584 C2602 0.951 . S
H2585 C2604 0.951 . S
H2586 C2606 0.950 . S
H2587 C2607 0.950 . S
H2588 C2609 0.950 . S
H2589 C2612 0.950 . S
H2590 C2613 0.950 . S
H2591 C2615 0.950 . S
H2592 C2616 0.950 . S
H2593 C2617 0.951 . S
H2594 C2619 0.951 . S
H2595 C2621 0.950 . S
H2596 C2622 0.950 . S
H2597 C2624 0.950 . S
H2598 C2627 0.950 . S
H2599 C2628 0.950 . S
H2600 C2630 0.950 . S
H2601 C2631 0.950 . S
C2602 H2584 0.951 . S
C2602 C2603 1.366 . S
C2602 C2604 1.388 . S
C2603 C2602 1.366 . S
C2603 C2607 1.385 . S
C2604 H2585 0.951 . S
C2604 C2602 1.388 . S
C2604 C2605 1.366 . S
C2605 C2604 1.366 . S
C2605 C2606 1.414 . S
C2605 C2608 1.499 . S
C2606 H2586 0.950 . S
C2606 C2605 1.414 . S
C2606 C2607 1.374 . S
C2607 H2587 0.950 . S
C2607 C2603 1.385 . S
C2607 C2606 1.374 . S
C2608 C2605 1.499 . S
C2608 C2609 1.373 . S
C2608 C2610 1.389 . S
C2609 H2588 0.950 . S
C2609 C2608 1.373 . S
C2609 C2625 1.377 . S
C2610 C2608 1.389 . S
C2610 C2611 1.524 . S
C2610 C2624 1.377 . S
C2611 C2610 1.524 . S
C2611 C2612 1.397 . S
C2611 C2616 1.363 . S
C2612 H2589 0.950 . S
C2612 C2611 1.397 . S
C2612 C2613 1.334 . S
C2613 H2590 0.950 . S
C2613 C2612 1.334 . S
C2613 C2614 1.287 . S
C2614 C2613 1.287 . S
C2614 C2615 1.524 . S
C2614 H2633 0.913 . S
C2615 H2591 0.950 . S
C2615 C2614 1.524 . S
C2615 C2616 1.415 . S
C2616 H2592 0.950 . S
C2616 C2611 1.363 . S
C2616 C2615 1.415 . S
C2617 H2593 0.951 . S
C2617 C2618 1.366 . S
C2617 C2619 1.388 . S
C2618 C2617 1.366 . S
C2618 C2622 1.385 . S
C2619 H2594 0.951 . S
C2619 C2617 1.388 . S
C2619 C2620 1.366 . S
C2620 C2619 1.366 . S
C2620 C2621 1.414 . S
C2620 C2623 1.499 . S
C2621 H2595 0.950 . S
C2621 C2620 1.414 . S
C2621 C2622 1.374 . S
C2622 H2596 0.950 . S
C2622 C2618 1.385 . S
C2622 C2621 1.374 . S
C2623 C2620 1.499 . S
C2623 C2624 1.373 . S
C2623 C2625 1.389 . S
C2624 H2597 0.950 . S
C2624 C2610 1.377 . S
C2624 C2623 1.373 . S
C2625 C2609 1.377 . S
C2625 C2623 1.389 . S
C2625 C2626 1.524 . S
C2626 C2625 1.524 . S
C2626 C2627 1.397 . S
C2626 C2631 1.363 . S
C2627 H2598 0.950 . S
C2627 C2626 1.397 . S
C2627 C2628 1.334 . S
C2628 H2599 0.950 . S
C2628 C2627 1.334 . S
C2628 C2629 1.287 . S
C2629 C2628 1.287 . S
C2629 C2630 1.524 . S
C2629 H2632 0.999 . S
C2630 H2600 0.950 . S
C2630 C2629 1.524 . S
C2630 C2631 1.415 . S
C2631 H2601 0.950 . S
C2631 C2626 1.363 . S
C2631 C2630 1.415 . S
H2632 C2629 0.999 . S
H2633 C2614 0.913 . S
H2634 C2652 0.951 . S
H2635 C2654 0.951 . S
H2636 C2656 0.950 . S
H2637 C2657 0.950 . S
H2638 C2659 0.950 . S
H2639 C2662 0.950 . S
H2640 C2663 0.950 . S
H2641 C2665 0.950 . S
H2642 C2666 0.950 . S
H2643 C2667 0.951 . S
H2644 C2669 0.951 . S
H2645 C2671 0.950 . S
H2646 C2672 0.950 . S
H2647 C2674 0.950 . S
H2648 C2677 0.950 . S
H2649 C2678 0.950 . S
H2650 C2680 0.950 . S
H2651 C2681 0.950 . S
C2652 H2634 0.951 . S
C2652 C2653 1.366 . S
C2652 C2654 1.388 . S
C2653 C2652 1.366 . S
C2653 C2657 1.385 . S
C2654 H2635 0.951 . S
C2654 C2652 1.388 . S
C2654 C2655 1.366 . S
C2655 C2654 1.366 . S
C2655 C2656 1.414 . S
C2655 C2658 1.499 . S
C2656 H2636 0.950 . S
C2656 C2655 1.414 . S
C2656 C2657 1.374 . S
C2657 H2637 0.950 . S
C2657 C2653 1.385 . S
C2657 C2656 1.374 . S
C2658 C2655 1.499 . S
C2658 C2659 1.373 . S
C2658 C2660 1.389 . S
C2659 H2638 0.950 . S
C2659 C2658 1.373 . S
C2659 C2675 1.377 . S
C2660 C2658 1.389 . S
C2660 C2661 1.524 . S
C2660 C2674 1.377 . S
C2661 C2660 1.524 . S
C2661 C2662 1.397 . S
C2661 C2666 1.363 . S
C2662 H2639 0.950 . S
C2662 C2661 1.397 . S
C2662 C2663 1.334 . S
C2663 H2640 0.950 . S
C2663 C2662 1.334 . S
C2663 C2664 1.287 . S
C2664 C2663 1.287 . S
C2664 C2665 1.524 . S
C2664 H2683 0.913 . S
C2665 H2641 0.950 . S
C2665 C2664 1.524 . S
C2665 C2666 1.415 . S
C2666 H2642 0.950 . S
C2666 C2661 1.363 . S
C2666 C2665 1.415 . S
C2667 H2643 0.951 . S
C2667 C2668 1.366 . S
C2667 C2669 1.388 . S
C2668 C2667 1.366 . S
C2668 C2672 1.385 . S
C2669 H2644 0.951 . S
C2669 C2667 1.388 . S
C2669 C2670 1.366 . S
C2670 C2669 1.366 . S
C2670 C2671 1.414 . S
C2670 C2673 1.499 . S
C2671 H2645 0.950 . S
C2671 C2670 1.414 . S
C2671 C2672 1.374 . S
C2672 H2646 0.950 . S
C2672 C2668 1.385 . S
C2672 C2671 1.374 . S
C2673 C2670 1.499 . S
C2673 C2674 1.373 . S
C2673 C2675 1.389 . S
C2674 H2647 0.950 . S
C2674 C2660 1.377 . S
C2674 C2673 1.373 . S
C2675 C2659 1.377 . S
C2675 C2673 1.389 . S
C2675 C2676 1.524 . S
C2676 C2675 1.524 . S
C2676 C2677 1.397 . S
C2676 C2681 1.363 . S
C2677 H2648 0.950 . S
C2677 C2676 1.397 . S
C2677 C2678 1.334 . S
C2678 H2649 0.950 . S
C2678 C2677 1.334 . S
C2678 C2679 1.287 . S
C2679 C2678 1.287 . S
C2679 C2680 1.524 . S
C2679 H2682 0.999 . S
C2680 H2650 0.950 . S
C2680 C2679 1.524 . S
C2680 C2681 1.415 . S
C2681 H2651 0.950 . S
C2681 C2676 1.363 . S
C2681 C2680 1.415 . S
H2682 C2679 0.999 . S
H2683 C2664 0.913 . S
H2684 C2702 0.951 . S
H2685 C2704 0.951 . S
H2686 C2706 0.950 . S
H2687 C2707 0.950 . S
H2688 C2709 0.950 . S
H2689 C2712 0.950 . S
H2690 C2713 0.950 . S
H2691 C2715 0.950 . S
H2692 C2716 0.950 . S
H2693 C2717 0.951 . S
H2694 C2719 0.951 . S
H2695 C2721 0.950 . S
H2696 C2722 0.950 . S
H2697 C2724 0.950 . S
H2698 C2727 0.950 . S
H2699 C2728 0.950 . S
H2700 C2730 0.950 . S
H2701 C2731 0.950 . S
C2702 H2684 0.951 . S
C2702 C2703 1.366 . S
C2702 C2704 1.388 . S
C2703 C2702 1.366 . S
C2703 C2707 1.385 . S
C2704 H2685 0.951 . S
C2704 C2702 1.388 . S
C2704 C2705 1.366 . S
C2705 C2704 1.366 . S
C2705 C2706 1.414 . S
C2705 C2708 1.499 . S
C2706 H2686 0.950 . S
C2706 C2705 1.414 . S
C2706 C2707 1.374 . S
C2707 H2687 0.950 . S
C2707 C2703 1.385 . S
C2707 C2706 1.374 . S
C2708 C2705 1.499 . S
C2708 C2709 1.373 . S
C2708 C2710 1.389 . S
C2709 H2688 0.950 . S
C2709 C2708 1.373 . S
C2709 C2725 1.377 . S
C2710 C2708 1.389 . S
C2710 C2711 1.524 . S
C2710 C2724 1.377 . S
C2711 C2710 1.524 . S
C2711 C2712 1.397 . S
C2711 C2716 1.363 . S
C2712 H2689 0.950 . S
C2712 C2711 1.397 . S
C2712 C2713 1.334 . S
C2713 H2690 0.950 . S
C2713 C2712 1.334 . S
C2713 C2714 1.287 . S
C2714 C2713 1.287 . S
C2714 C2715 1.524 . S
C2714 H2733 0.913 . S
C2715 H2691 0.950 . S
C2715 C2714 1.524 . S
C2715 C2716 1.415 . S
C2716 H2692 0.950 . S
C2716 C2711 1.363 . S
C2716 C2715 1.415 . S
C2717 H2693 0.951 . S
C2717 C2718 1.366 . S
C2717 C2719 1.388 . S
C2718 C2717 1.366 . S
C2718 C2722 1.385 . S
C2719 H2694 0.951 . S
C2719 C2717 1.388 . S
C2719 C2720 1.366 . S
C2720 C2719 1.366 . S
C2720 C2721 1.414 . S
C2720 C2723 1.499 . S
C2721 H2695 0.950 . S
C2721 C2720 1.414 . S
C2721 C2722 1.374 . S
C2722 H2696 0.950 . S
C2722 C2718 1.385 . S
C2722 C2721 1.374 . S
C2723 C2720 1.499 . S
C2723 C2724 1.373 . S
C2723 C2725 1.389 . S
C2724 H2697 0.950 . S
C2724 C2710 1.377 . S
C2724 C2723 1.373 . S
C2725 C2709 1.377 . S
C2725 C2723 1.389 . S
C2725 C2726 1.524 . S
C2726 C2725 1.524 . S
C2726 C2727 1.397 . S
C2726 C2731 1.363 . S
C2727 H2698 0.950 . S
C2727 C2726 1.397 . S
C2727 C2728 1.334 . S
C2728 H2699 0.950 . S
C2728 C2727 1.334 . S
C2728 C2729 1.287 . S
C2729 C2728 1.287 . S
C2729 C2730 1.524 . S
C2729 H2732 0.999 . S
C2730 H2700 0.950 . S
C2730 C2729 1.524 . S
C2730 C2731 1.415 . S
C2731 H2701 0.950 . S
C2731 C2726 1.363 . S
C2731 C2730 1.415 . S
H2732 C2729 0.999 . S
H2733 C2714 0.913 . S
H2734 C2752 0.951 . S
H2735 C2754 0.951 . S
H2736 C2756 0.950 . S
H2737 C2757 0.950 . S
H2738 C2759 0.950 . S
H2739 C2762 0.950 . S
H2740 C2763 0.950 . S
H2741 C2765 0.950 . S
H2742 C2766 0.950 . S
H2743 C2767 0.951 . S
H2744 C2769 0.951 . S
H2745 C2771 0.950 . S
H2746 C2772 0.950 . S
H2747 C2774 0.950 . S
H2748 C2777 0.950 . S
H2749 C2778 0.950 . S
H2750 C2780 0.950 . S
H2751 C2781 0.950 . S
C2752 H2734 0.951 . S
C2752 C2753 1.366 . S
C2752 C2754 1.388 . S
C2753 C2752 1.366 . S
C2753 C2757 1.385 . S
C2754 H2735 0.951 . S
C2754 C2752 1.388 . S
C2754 C2755 1.366 . S
C2755 C2754 1.366 . S
C2755 C2756 1.414 . S
C2755 C2758 1.499 . S
C2756 H2736 0.950 . S
C2756 C2755 1.414 . S
C2756 C2757 1.374 . S
C2757 H2737 0.950 . S
C2757 C2753 1.385 . S
C2757 C2756 1.374 . S
C2758 C2755 1.499 . S
C2758 C2759 1.373 . S
C2758 C2760 1.389 . S
C2759 H2738 0.950 . S
C2759 C2758 1.373 . S
C2759 C2775 1.377 . S
C2760 C2758 1.389 . S
C2760 C2761 1.524 . S
C2760 C2774 1.377 . S
C2761 C2760 1.524 . S
C2761 C2762 1.397 . S
C2761 C2766 1.363 . S
C2762 H2739 0.950 . S
C2762 C2761 1.397 . S
C2762 C2763 1.334 . S
C2763 H2740 0.950 . S
C2763 C2762 1.334 . S
C2763 C2764 1.287 . S
C2764 C2763 1.287 . S
C2764 C2765 1.524 . S
C2764 H2783 0.913 . S
C2765 H2741 0.950 . S
C2765 C2764 1.524 . S
C2765 C2766 1.415 . S
C2766 H2742 0.950 . S
C2766 C2761 1.363 . S
C2766 C2765 1.415 . S
C2767 H2743 0.951 . S
C2767 C2768 1.366 . S
C2767 C2769 1.388 . S
C2768 C2767 1.366 . S
C2768 C2772 1.385 . S
C2769 H2744 0.951 . S
C2769 C2767 1.388 . S
C2769 C2770 1.366 . S
C2770 C2769 1.366 . S
C2770 C2771 1.414 . S
C2770 C2773 1.499 . S
C2771 H2745 0.950 . S
C2771 C2770 1.414 . S
C2771 C2772 1.374 . S
C2772 H2746 0.950 . S
C2772 C2768 1.385 . S
C2772 C2771 1.374 . S
C2773 C2770 1.499 . S
C2773 C2774 1.373 . S
C2773 C2775 1.389 . S
C2774 H2747 0.950 . S
C2774 C2760 1.377 . S
C2774 C2773 1.373 . S
C2775 C2759 1.377 . S
C2775 C2773 1.389 . S
C2775 C2776 1.524 . S
C2776 C2775 1.524 . S
C2776 C2777 1.397 . S
C2776 C2781 1.363 . S
C2777 H2748 0.950 . S
C2777 C2776 1.397 . S
C2777 C2778 1.334 . S
C2778 H2749 0.950 . S
C2778 C2777 1.334 . S
C2778 C2779 1.287 . S
C2779 C2778 1.287 . S
C2779 C2780 1.524 . S
C2779 H2782 0.999 . S
C2780 H2750 0.950 . S
C2780 C2779 1.524 . S
C2780 C2781 1.415 . S
C2781 H2751 0.950 . S
C2781 C2776 1.363 . S
C2781 C2780 1.415 . S
H2782 C2779 0.999 . S
H2783 C2764 0.913 . S
H2784 C2802 0.951 . S
H2785 C2804 0.951 . S
H2786 C2806 0.950 . S
H2787 C2807 0.950 . S
H2788 C2809 0.950 . S
H2789 C2812 0.950 . S
H2790 C2813 0.950 . S
H2791 C2815 0.950 . S
H2792 C2816 0.950 . S
H2793 C2817 0.951 . S
H2794 C2819 0.951 . S
H2795 C2821 0.950 . S
H2796 C2822 0.950 . S
H2797 C2824 0.950 . S
H2798 C2827 0.950 . S
H2799 C2828 0.950 . S
H2800 C2830 0.950 . S
H2801 C2831 0.950 . S
C2802 H2784 0.951 . S
C2802 C2803 1.366 . S
C2802 C2804 1.388 . S
C2803 C2802 1.366 . S
C2803 C2807 1.385 . S
C2804 H2785 0.951 . S
C2804 C2802 1.388 . S
C2804 C2805 1.366 . S
C2805 C2804 1.366 . S
C2805 C2806 1.414 . S
C2805 C2808 1.499 . S
C2806 H2786 0.950 . S
C2806 C2805 1.414 . S
C2806 C2807 1.374 . S
C2807 H2787 0.950 . S
C2807 C2803 1.385 . S
C2807 C2806 1.374 . S
C2808 C2805 1.499 . S
C2808 C2809 1.373 . S
C2808 C2810 1.389 . S
C2809 H2788 0.950 . S
C2809 C2808 1.373 . S
C2809 C2825 1.377 . S
C2810 C2808 1.389 . S
C2810 C2811 1.524 . S
C2810 C2824 1.377 . S
C2811 C2810 1.524 . S
C2811 C2812 1.397 . S
C2811 C2816 1.363 . S
C2812 H2789 0.950 . S
C2812 C2811 1.397 . S
C2812 C2813 1.334 . S
C2813 H2790 0.950 . S
C2813 C2812 1.334 . S
C2813 C2814 1.287 . S
C2814 C2813 1.287 . S
C2814 C2815 1.524 . S
C2814 H2833 0.913 . S
C2815 H2791 0.950 . S
C2815 C2814 1.524 . S
C2815 C2816 1.415 . S
C2816 H2792 0.950 . S
C2816 C2811 1.363 . S
C2816 C2815 1.415 . S
C2817 H2793 0.951 . S
C2817 C2818 1.366 . S
C2817 C2819 1.388 . S
C2818 C2817 1.366 . S
C2818 C2822 1.385 . S
C2819 H2794 0.951 . S
C2819 C2817 1.388 . S
C2819 C2820 1.366 . S
C2820 C2819 1.366 . S
C2820 C2821 1.414 . S
C2820 C2823 1.499 . S
C2821 H2795 0.950 . S
C2821 C2820 1.414 . S
C2821 C2822 1.374 . S
C2822 H2796 0.950 . S
C2822 C2818 1.385 . S
C2822 C2821 1.374 . S
C2823 C2820 1.499 . S
C2823 C2824 1.373 . S
C2823 C2825 1.389 . S
C2824 H2797 0.950 . S
C2824 C2810 1.377 . S
C2824 C2823 1.373 . S
C2825 C2809 1.377 . S
C2825 C2823 1.389 . S
C2825 C2826 1.524 . S
C2826 C2825 1.524 . S
C2826 C2827 1.397 . S
C2826 C2831 1.363 . S
C2827 H2798 0.950 . S
C2827 C2826 1.397 . S
C2827 C2828 1.334 . S
C2828 H2799 0.950 . S
C2828 C2827 1.334 . S
C2828 C2829 1.287 . S
C2829 C2828 1.287 . S
C2829 C2830 1.524 . S
C2829 H2832 0.999 . S
C2830 H2800 0.950 . S
C2830 C2829 1.524 . S
C2830 C2831 1.415 . S
C2831 H2801 0.950 . S
C2831 C2826 1.363 . S
C2831 C2830 1.415 . S
H2832 C2829 0.999 . S
H2833 C2814 0.913 . S
H2834 C2852 0.951 . S
H2835 C2854 0.951 . S
H2836 C2856 0.950 . S
H2837 C2857 0.950 . S
H2838 C2859 0.950 . S
H2839 C2862 0.950 . S
H2840 C2863 0.950 . S
H2841 C2865 0.950 . S
H2842 C2866 0.950 . S
H2843 C2867 0.951 . S
H2844 C2869 0.951 . S
H2845 C2871 0.950 . S
H2846 C2872 0.950 . S
H2847 C2874 0.950 . S
H2848 C2877 0.950 . S
H2849 C2878 0.950 . S
H2850 C2880 0.950 . S
H2851 C2881 0.950 . S
C2852 H2834 0.951 . S
C2852 C2853 1.366 . S
C2852 C2854 1.388 . S
C2853 C2852 1.366 . S
C2853 C2857 1.385 . S
C2854 H2835 0.951 . S
C2854 C2852 1.388 . S
C2854 C2855 1.366 . S
C2855 C2854 1.366 . S
C2855 C2856 1.414 . S
C2855 C2858 1.499 . S
C2856 H2836 0.950 . S
C2856 C2855 1.414 . S
C2856 C2857 1.374 . S
C2857 H2837 0.950 . S
C2857 C2853 1.385 . S
C2857 C2856 1.374 . S
C2858 C2855 1.499 . S
C2858 C2859 1.373 . S
C2858 C2860 1.389 . S
C2859 H2838 0.950 . S
C2859 C2858 1.373 . S
C2859 C2875 1.377 . S
C2860 C2858 1.389 . S
C2860 C2861 1.524 . S
C2860 C2874 1.377 . S
C2861 C2860 1.524 . S
C2861 C2862 1.397 . S
C2861 C2866 1.363 . S
C2862 H2839 0.950 . S
C2862 C2861 1.397 . S
C2862 C2863 1.334 . S
C2863 H2840 0.950 . S
C2863 C2862 1.334 . S
C2863 C2864 1.287 . S
C2864 C2863 1.287 . S
C2864 C2865 1.524 . S
C2864 H2883 0.913 . S
C2865 H2841 0.950 . S
C2865 C2864 1.524 . S
C2865 C2866 1.415 . S
C2866 H2842 0.950 . S
C2866 C2861 1.363 . S
C2866 C2865 1.415 . S
C2867 H2843 0.951 . S
C2867 C2868 1.366 . S
C2867 C2869 1.388 . S
C2868 C2867 1.366 . S
C2868 C2872 1.385 . S
C2869 H2844 0.951 . S
C2869 C2867 1.388 . S
C2869 C2870 1.366 . S
C2870 C2869 1.366 . S
C2870 C2871 1.414 . S
C2870 C2873 1.499 . S
C2871 H2845 0.950 . S
C2871 C2870 1.414 . S
C2871 C2872 1.374 . S
C2872 H2846 0.950 . S
C2872 C2868 1.385 . S
C2872 C2871 1.374 . S
C2873 C2870 1.499 . S
C2873 C2874 1.373 . S
C2873 C2875 1.389 . S
C2874 H2847 0.950 . S
C2874 C2860 1.377 . S
C2874 C2873 1.373 . S
C2875 C2859 1.377 . S
C2875 C2873 1.389 . S
C2875 C2876 1.524 . S
C2876 C2875 1.524 . S
C2876 C2877 1.397 . S
C2876 C2881 1.363 . S
C2877 H2848 0.950 . S
C2877 C2876 1.397 . S
C2877 C2878 1.334 . S
C2878 H2849 0.950 . S
C2878 C2877 1.334 . S
C2878 C2879 1.287 . S
C2879 C2878 1.287 . S
C2879 C2880 1.524 . S
C2879 H2882 0.999 . S
C2880 H2850 0.950 . S
C2880 C2879 1.524 . S
C2880 C2881 1.415 . S
C2881 H2851 0.950 . S
C2881 C2876 1.363 . S
C2881 C2880 1.415 . S
H2882 C2879 0.999 . S
H2883 C2864 0.913 . S
H2884 C2902 0.951 . S
H2885 C2904 0.951 . S
H2886 C2906 0.950 . S
H2887 C2907 0.950 . S
H2888 C2909 0.950 . S
H2889 C2912 0.950 . S
H2890 C2913 0.950 . S
H2891 C2915 0.950 . S
H2892 C2916 0.950 . S
H2893 C2917 0.951 . S
H2894 C2919 0.951 . S
H2895 C2921 0.950 . S
H2896 C2922 0.950 . S
H2897 C2924 0.950 . S
H2898 C2927 0.950 . S
H2899 C2928 0.950 . S
H2900 C2930 0.950 . S
H2901 C2931 0.950 . S
C2902 H2884 0.951 . S
C2902 C2903 1.366 . S
C2902 C2904 1.388 . S
C2903 C2902 1.366 . S
C2903 C2907 1.385 . S
C2904 H2885 0.951 . S
C2904 C2902 1.388 . S
C2904 C2905 1.366 . S
C2905 C2904 1.366 . S
C2905 C2906 1.414 . S
C2905 C2908 1.499 . S
C2906 H2886 0.950 . S
C2906 C2905 1.414 . S
C2906 C2907 1.374 . S
C2907 H2887 0.950 . S
C2907 C2903 1.385 . S
C2907 C2906 1.374 . S
C2908 C2905 1.499 . S
C2908 C2909 1.373 . S
C2908 C2910 1.389 . S
C2909 H2888 0.950 . S
C2909 C2908 1.373 . S
C2909 C2925 1.377 . S
C2910 C2908 1.389 . S
C2910 C2911 1.524 . S
C2910 C2924 1.377 . S
C2911 C2910 1.524 . S
C2911 C2912 1.397 . S
C2911 C2916 1.363 . S
C2912 H2889 0.950 . S
C2912 C2911 1.397 . S
C2912 C2913 1.334 . S
C2913 H2890 0.950 . S
C2913 C2912 1.334 . S
C2913 C2914 1.287 . S
C2914 C2913 1.287 . S
C2914 C2915 1.524 . S
C2914 H2933 0.913 . S
C2915 H2891 0.950 . S
C2915 C2914 1.524 . S
C2915 C2916 1.415 . S
C2916 H2892 0.950 . S
C2916 C2911 1.363 . S
C2916 C2915 1.415 . S
C2917 H2893 0.951 . S
C2917 C2918 1.366 . S
C2917 C2919 1.388 . S
C2918 C2917 1.366 . S
C2918 C2922 1.385 . S
C2919 H2894 0.951 . S
C2919 C2917 1.388 . S
C2919 C2920 1.366 . S
C2920 C2919 1.366 . S
C2920 C2921 1.414 . S
C2920 C2923 1.499 . S
C2921 H2895 0.950 . S
C2921 C2920 1.414 . S
C2921 C2922 1.374 . S
C2922 H2896 0.950 . S
C2922 C2918 1.385 . S
C2922 C2921 1.374 . S
C2923 C2920 1.499 . S
C2923 C2924 1.373 . S
C2923 C2925 1.389 . S
C2924 H2897 0.950 . S
C2924 C2910 1.377 . S
C2924 C2923 1.373 . S
C2925 C2909 1.377 . S
C2925 C2923 1.389 . S
C2925 C2926 1.524 . S
C2926 C2925 1.524 . S
C2926 C2927 1.397 . S
C2926 C2931 1.363 . S
C2927 H2898 0.950 . S
C2927 C2926 1.397 . S
C2927 C2928 1.334 . S
C2928 H2899 0.950 . S
C2928 C2927 1.334 . S
C2928 C2929 1.287 . S
C2929 C2928 1.287 . S
C2929 C2930 1.524 . S
C2929 H2932 0.999 . S
C2930 H2900 0.950 . S
C2930 C2929 1.524 . S
C2930 C2931 1.415 . S
C2931 H2901 0.950 . S
C2931 C2926 1.363 . S
C2931 C2930 1.415 . S
H2932 C2929 0.999 . S
H2933 C2914 0.913 . S
H2934 C2952 0.951 . S
H2935 C2954 0.951 . S
H2936 C2956 0.950 . S
H2937 C2957 0.950 . S
H2938 C2959 0.950 . S
H2939 C2962 0.950 . S
H2940 C2963 0.950 . S
H2941 C2965 0.950 . S
H2942 C2966 0.950 . S
H2943 C2967 0.951 . S
H2944 C2969 0.951 . S
H2945 C2971 0.950 . S
H2946 C2972 0.950 . S
H2947 C2974 0.950 . S
H2948 C2977 0.950 . S
H2949 C2978 0.950 . S
H2950 C2980 0.950 . S
H2951 C2981 0.950 . S
C2952 H2934 0.951 . S
C2952 C2953 1.366 . S
C2952 C2954 1.388 . S
C2953 C2952 1.366 . S
C2953 C2957 1.385 . S
C2954 H2935 0.951 . S
C2954 C2952 1.388 . S
C2954 C2955 1.366 . S
C2955 C2954 1.366 . S
C2955 C2956 1.414 . S
C2955 C2958 1.499 . S
C2956 H2936 0.950 . S
C2956 C2955 1.414 . S
C2956 C2957 1.374 . S
C2957 H2937 0.950 . S
C2957 C2953 1.385 . S
C2957 C2956 1.374 . S
C2958 C2955 1.499 . S
C2958 C2959 1.373 . S
C2958 C2960 1.389 . S
C2959 H2938 0.950 . S
C2959 C2958 1.373 . S
C2959 C2975 1.377 . S
C2960 C2958 1.389 . S
C2960 C2961 1.524 . S
C2960 C2974 1.377 . S
C2961 C2960 1.524 . S
C2961 C2962 1.397 . S
C2961 C2966 1.363 . S
C2962 H2939 0.950 . S
C2962 C2961 1.397 . S
C2962 C2963 1.334 . S
C2963 H2940 0.950 . S
C2963 C2962 1.334 . S
C2963 C2964 1.287 . S
C2964 C2963 1.287 . S
C2964 C2965 1.524 . S
C2964 H2983 0.913 . S
C2965 H2941 0.950 . S
C2965 C2964 1.524 . S
C2965 C2966 1.415 . S
C2966 H2942 0.950 . S
C2966 C2961 1.363 . S
C2966 C2965 1.415 . S
C2967 H2943 0.951 . S
C2967 C2968 1.366 . S
C2967 C2969 1.388 . S
C2968 C2967 1.366 . S
C2968 C2972 1.385 . S
C2969 H2944 0.951 . S
C2969 C2967 1.388 . S
C2969 C2970 1.366 . S
C2970 C2969 1.366 . S
C2970 C2971 1.414 . S
C2970 C2973 1.499 . S
C2971 H2945 0.950 . S
C2971 C2970 1.414 . S
C2971 C2972 1.374 . S
C2972 H2946 0.950 . S
C2972 C2968 1.385 . S
C2972 C2971 1.374 . S
C2973 C2970 1.499 . S
C2973 C2974 1.373 . S
C2973 C2975 1.389 . S
C2974 H2947 0.950 . S
C2974 C2960 1.377 . S
C2974 C2973 1.373 . S
C2975 C2959 1.377 . S
C2975 C2973 1.389 . S
C2975 C2976 1.524 . S
C2976 C2975 1.524 . S
C2976 C2977 1.397 . S
C2976 C2981 1.363 . S
C2977 H2948 0.950 . S
C2977 C2976 1.397 . S
C2977 C2978 1.334 . S
C2978 H2949 0.950 . S
C2978 C2977 1.334 . S
C2978 C2979 1.287 . S
C2979 C2978 1.287 . S
C2979 C2980 1.524 . S
C2979 H2982 0.999 . S
C2980 H2950 0.950 . S
C2980 C2979 1.524 . S
C2980 C2981 1.415 . S
C2981 H2951 0.950 . S
C2981 C2976 1.363 . S
C2981 C2980 1.415 . S
H2982 C2979 0.999 . S
H2983 C2964 0.913 . S
H2984 C3002 0.951 . S
H2985 C3004 0.951 . S
H2986 C3006 0.950 . S
H2987 C3007 0.950 . S
H2988 C3009 0.950 . S
H2989 C3012 0.950 . S
H2990 C3013 0.950 . S
H2991 C3015 0.950 . S
H2992 C3016 0.950 . S
H2993 C3017 0.951 . S
H2994 C3019 0.951 . S
H2995 C3021 0.950 . S
H2996 C3022 0.950 . S
H2997 C3024 0.950 . S
H2998 C3027 0.950 . S
H2999 C3028 0.950 . S
H3000 C3030 0.950 . S
H3001 C3031 0.950 . S
C3002 H2984 0.951 . S
C3002 C3003 1.366 . S
C3002 C3004 1.388 . S
C3003 C3002 1.366 . S
C3003 C3007 1.385 . S
C3004 H2985 0.951 . S
C3004 C3002 1.388 . S
C3004 C3005 1.366 . S
C3005 C3004 1.366 . S
C3005 C3006 1.414 . S
C3005 C3008 1.499 . S
C3006 H2986 0.950 . S
C3006 C3005 1.414 . S
C3006 C3007 1.374 . S
C3007 H2987 0.950 . S
C3007 C3003 1.385 . S
C3007 C3006 1.374 . S
C3008 C3005 1.499 . S
C3008 C3009 1.373 . S
C3008 C3010 1.389 . S
C3009 H2988 0.950 . S
C3009 C3008 1.373 . S
C3009 C3025 1.377 . S
C3010 C3008 1.389 . S
C3010 C3011 1.524 . S
C3010 C3024 1.377 . S
C3011 C3010 1.524 . S
C3011 C3012 1.397 . S
C3011 C3016 1.363 . S
C3012 H2989 0.950 . S
C3012 C3011 1.397 . S
C3012 C3013 1.334 . S
C3013 H2990 0.950 . S
C3013 C3012 1.334 . S
C3013 C3014 1.287 . S
C3014 C3013 1.287 . S
C3014 C3015 1.524 . S
C3014 H3033 0.913 . S
C3015 H2991 0.950 . S
C3015 C3014 1.524 . S
C3015 C3016 1.415 . S
C3016 H2992 0.950 . S
C3016 C3011 1.363 . S
C3016 C3015 1.415 . S
C3017 H2993 0.951 . S
C3017 C3018 1.366 . S
C3017 C3019 1.388 . S
C3018 C3017 1.366 . S
C3018 C3022 1.385 . S
C3019 H2994 0.951 . S
C3019 C3017 1.388 . S
C3019 C3020 1.366 . S
C3020 C3019 1.366 . S
C3020 C3021 1.414 . S
C3020 C3023 1.499 . S
C3021 H2995 0.950 . S
C3021 C3020 1.414 . S
C3021 C3022 1.374 . S
C3022 H2996 0.950 . S
C3022 C3018 1.385 . S
C3022 C3021 1.374 . S
C3023 C3020 1.499 . S
C3023 C3024 1.373 . S
C3023 C3025 1.389 . S
C3024 H2997 0.950 . S
C3024 C3010 1.377 . S
C3024 C3023 1.373 . S
C3025 C3009 1.377 . S
C3025 C3023 1.389 . S
C3025 C3026 1.524 . S
C3026 C3025 1.524 . S
C3026 C3027 1.397 . S
C3026 C3031 1.363 . S
C3027 H2998 0.950 . S
C3027 C3026 1.397 . S
C3027 C3028 1.334 . S
C3028 H2999 0.950 . S
C3028 C3027 1.334 . S
C3028 C3029 1.287 . S
C3029 C3028 1.287 . S
C3029 C3030 1.524 . S
C3029 H3032 0.999 . S
C3030 H3000 0.950 . S
C3030 C3029 1.524 . S
C3030 C3031 1.415 . S
C3031 H3001 0.950 . S
C3031 C3026 1.363 . S
C3031 C3030 1.415 . S
H3032 C3029 0.999 . S
H3033 C3014 0.913 . S
H3034 C3052 0.951 . S
H3035 C3054 0.951 . S
H3036 C3056 0.950 . S
H3037 C3057 0.950 . S
H3038 C3059 0.950 . S
H3039 C3062 0.950 . S
H3040 C3063 0.950 . S
H3041 C3065 0.950 . S
H3042 C3066 0.950 . S
H3043 C3067 0.951 . S
H3044 C3069 0.951 . S
H3045 C3071 0.950 . S
H3046 C3072 0.950 . S
H3047 C3074 0.950 . S
H3048 C3077 0.950 . S
H3049 C3078 0.950 . S
H3050 C3080 0.950 . S
H3051 C3081 0.950 . S
C3052 H3034 0.951 . S
C3052 C3053 1.366 . S
C3052 C3054 1.388 . S
C3053 C3052 1.366 . S
C3053 C3057 1.385 . S
C3054 H3035 0.951 . S
C3054 C3052 1.388 . S
C3054 C3055 1.366 . S
C3055 C3054 1.366 . S
C3055 C3056 1.414 . S
C3055 C3058 1.499 . S
C3056 H3036 0.950 . S
C3056 C3055 1.414 . S
C3056 C3057 1.374 . S
C3057 H3037 0.950 . S
C3057 C3053 1.385 . S
C3057 C3056 1.374 . S
C3058 C3055 1.499 . S
C3058 C3059 1.373 . S
C3058 C3060 1.389 . S
C3059 H3038 0.950 . S
C3059 C3058 1.373 . S
C3059 C3075 1.377 . S
C3060 C3058 1.389 . S
C3060 C3061 1.524 . S
C3060 C3074 1.377 . S
C3061 C3060 1.524 . S
C3061 C3062 1.397 . S
C3061 C3066 1.363 . S
C3062 H3039 0.950 . S
C3062 C3061 1.397 . S
C3062 C3063 1.334 . S
C3063 H3040 0.950 . S
C3063 C3062 1.334 . S
C3063 C3064 1.287 . S
C3064 C3063 1.287 . S
C3064 C3065 1.524 . S
C3064 H3083 0.913 . S
C3065 H3041 0.950 . S
C3065 C3064 1.524 . S
C3065 C3066 1.415 . S
C3066 H3042 0.950 . S
C3066 C3061 1.363 . S
C3066 C3065 1.415 . S
C3067 H3043 0.951 . S
C3067 C3068 1.366 . S
C3067 C3069 1.388 . S
C3068 C3067 1.366 . S
C3068 C3072 1.385 . S
C3069 H3044 0.951 . S
C3069 C3067 1.388 . S
C3069 C3070 1.366 . S
C3070 C3069 1.366 . S
C3070 C3071 1.414 . S
C3070 C3073 1.499 . S
C3071 H3045 0.950 . S
C3071 C3070 1.414 . S
C3071 C3072 1.374 . S
C3072 H3046 0.950 . S
C3072 C3068 1.385 . S
C3072 C3071 1.374 . S
C3073 C3070 1.499 . S
C3073 C3074 1.373 . S
C3073 C3075 1.389 . S
C3074 H3047 0.950 . S
C3074 C3060 1.377 . S
C3074 C3073 1.373 . S
C3075 C3059 1.377 . S
C3075 C3073 1.389 . S
C3075 C3076 1.524 . S
C3076 C3075 1.524 . S
C3076 C3077 1.397 . S
C3076 C3081 1.363 . S
C3077 H3048 0.950 . S
C3077 C3076 1.397 . S
C3077 C3078 1.334 . S
C3078 H3049 0.950 . S
C3078 C3077 1.334 . S
C3078 C3079 1.287 . S
C3079 C3078 1.287 . S
C3079 C3080 1.524 . S
C3079 H3082 0.999 . S
C3080 H3050 0.950 . S
C3080 C3079 1.524 . S
C3080 C3081 1.415 . S
C3081 H3051 0.950 . S
C3081 C3076 1.363 . S
C3081 C3080 1.415 . S
H3082 C3079 0.999 . S
H3083 C3064 0.913 . S
H3084 C3102 0.951 . S
H3085 C3104 0.951 . S
H3086 C3106 0.950 . S
H3087 C3107 0.950 . S
H3088 C3109 0.950 . S
H3089 C3112 0.950 . S
H3090 C3113 0.950 . S
H3091 C3115 0.950 . S
H3092 C3116 0.950 . S
H3093 C3117 0.951 . S
H3094 C3119 0.951 . S
H3095 C3121 0.950 . S
H3096 C3122 0.950 . S
H3097 C3124 0.950 . S
H3098 C3127 0.950 . S
H3099 C3128 0.950 . S
H3100 C3130 0.950 . S
H3101 C3131 0.950 . S
C3102 H3084 0.951 . S
C3102 C3103 1.366 . S
C3102 C3104 1.388 . S
C3103 C3102 1.366 . S
C3103 C3107 1.385 . S
C3104 H3085 0.951 . S
C3104 C3102 1.388 . S
C3104 C3105 1.366 . S
C3105 C3104 1.366 . S
C3105 C3106 1.414 . S
C3105 C3108 1.499 . S
C3106 H3086 0.950 . S
C3106 C3105 1.414 . S
C3106 C3107 1.374 . S
C3107 H3087 0.950 . S
C3107 C3103 1.385 . S
C3107 C3106 1.374 . S
C3108 C3105 1.499 . S
C3108 C3109 1.373 . S
C3108 C3110 1.389 . S
C3109 H3088 0.950 . S
C3109 C3108 1.373 . S
C3109 C3125 1.377 . S
C3110 C3108 1.389 . S
C3110 C3111 1.524 . S
C3110 C3124 1.377 . S
C3111 C3110 1.524 . S
C3111 C3112 1.397 . S
C3111 C3116 1.363 . S
C3112 H3089 0.950 . S
C3112 C3111 1.397 . S
C3112 C3113 1.334 . S
C3113 H3090 0.950 . S
C3113 C3112 1.334 . S
C3113 C3114 1.287 . S
C3114 C3113 1.287 . S
C3114 C3115 1.524 . S
C3114 H3133 0.913 . S
C3115 H3091 0.950 . S
C3115 C3114 1.524 . S
C3115 C3116 1.415 . S
C3116 H3092 0.950 . S
C3116 C3111 1.363 . S
C3116 C3115 1.415 . S
C3117 H3093 0.951 . S
C3117 C3118 1.366 . S
C3117 C3119 1.388 . S
C3118 C3117 1.366 . S
C3118 C3122 1.385 . S
C3119 H3094 0.951 . S
C3119 C3117 1.388 . S
C3119 C3120 1.366 . S
C3120 C3119 1.366 . S
C3120 C3121 1.414 . S
C3120 C3123 1.499 . S
C3121 H3095 0.950 . S
C3121 C3120 1.414 . S
C3121 C3122 1.374 . S
C3122 H3096 0.950 . S
C3122 C3118 1.385 . S
C3122 C3121 1.374 . S
C3123 C3120 1.499 . S
C3123 C3124 1.373 . S
C3123 C3125 1.389 . S
C3124 H3097 0.950 . S
C3124 C3110 1.377 . S
C3124 C3123 1.373 . S
C3125 C3109 1.377 . S
C3125 C3123 1.389 . S
C3125 C3126 1.524 . S
C3126 C3125 1.524 . S
C3126 C3127 1.397 . S
C3126 C3131 1.363 . S
C3127 H3098 0.950 . S
C3127 C3126 1.397 . S
C3127 C3128 1.334 . S
C3128 H3099 0.950 . S
C3128 C3127 1.334 . S
C3128 C3129 1.287 . S
C3129 C3128 1.287 . S
C3129 C3130 1.524 . S
C3129 H3132 0.999 . S
C3130 H3100 0.950 . S
C3130 C3129 1.524 . S
C3130 C3131 1.415 . S
C3131 H3101 0.950 . S
C3131 C3126 1.363 . S
C3131 C3130 1.415 . S
H3132 C3129 0.999 . S
H3133 C3114 0.913 . S
H3134 C3152 0.951 . S
H3135 C3154 0.951 . S
H3136 C3156 0.950 . S
H3137 C3157 0.950 . S
H3138 C3159 0.950 . S
H3139 C3162 0.950 . S
H3140 C3163 0.950 . S
H3141 C3165 0.950 . S
H3142 C3166 0.950 . S
H3143 C3167 0.951 . S
H3144 C3169 0.951 . S
H3145 C3171 0.950 . S
H3146 C3172 0.950 . S
H3147 C3174 0.950 . S
H3148 C3177 0.950 . S
H3149 C3178 0.950 . S
H3150 C3180 0.950 . S
H3151 C3181 0.950 . S
C3152 H3134 0.951 . S
C3152 C3153 1.366 . S
C3152 C3154 1.388 . S
C3153 C3152 1.366 . S
C3153 C3157 1.385 . S
C3154 H3135 0.951 . S
C3154 C3152 1.388 . S
C3154 C3155 1.366 . S
C3155 C3154 1.366 . S
C3155 C3156 1.414 . S
C3155 C3158 1.499 . S
C3156 H3136 0.950 . S
C3156 C3155 1.414 . S
C3156 C3157 1.374 . S
C3157 H3137 0.950 . S
C3157 C3153 1.385 . S
C3157 C3156 1.374 . S
C3158 C3155 1.499 . S
C3158 C3159 1.373 . S
C3158 C3160 1.389 . S
C3159 H3138 0.950 . S
C3159 C3158 1.373 . S
C3159 C3175 1.377 . S
C3160 C3158 1.389 . S
C3160 C3161 1.524 . S
C3160 C3174 1.377 . S
C3161 C3160 1.524 . S
C3161 C3162 1.397 . S
C3161 C3166 1.363 . S
C3162 H3139 0.950 . S
C3162 C3161 1.397 . S
C3162 C3163 1.334 . S
C3163 H3140 0.950 . S
C3163 C3162 1.334 . S
C3163 C3164 1.287 . S
C3164 C3163 1.287 . S
C3164 C3165 1.524 . S
C3164 H3183 0.913 . S
C3165 H3141 0.950 . S
C3165 C3164 1.524 . S
C3165 C3166 1.415 . S
C3166 H3142 0.950 . S
C3166 C3161 1.363 . S
C3166 C3165 1.415 . S
C3167 H3143 0.951 . S
C3167 C3168 1.366 . S
C3167 C3169 1.388 . S
C3168 C3167 1.366 . S
C3168 C3172 1.385 . S
C3169 H3144 0.951 . S
C3169 C3167 1.388 . S
C3169 C3170 1.366 . S
C3170 C3169 1.366 . S
C3170 C3171 1.414 . S
C3170 C3173 1.499 . S
C3171 H3145 0.950 . S
C3171 C3170 1.414 . S
C3171 C3172 1.374 . S
C3172 H3146 0.950 . S
C3172 C3168 1.385 . S
C3172 C3171 1.374 . S
C3173 C3170 1.499 . S
C3173 C3174 1.373 . S
C3173 C3175 1.389 . S
C3174 H3147 0.950 . S
C3174 C3160 1.377 . S
C3174 C3173 1.373 . S
C3175 C3159 1.377 . S
C3175 C3173 1.389 . S
C3175 C3176 1.524 . S
C3176 C3175 1.524 . S
C3176 C3177 1.397 . S
C3176 C3181 1.363 . S
C3177 H3148 0.950 . S
C3177 C3176 1.397 . S
C3177 C3178 1.334 . S
C3178 H3149 0.950 . S
C3178 C3177 1.334 . S
C3178 C3179 1.287 . S
C3179 C3178 1.287 . S
C3179 C3180 1.524 . S
C3179 H3182 0.999 . S
C3180 H3150 0.950 . S
C3180 C3179 1.524 . S
C3180 C3181 1.415 . S
C3181 H3151 0.950 . S
C3181 C3176 1.363 . S
C3181 C3180 1.415 . S
H3182 C3179 0.999 . S
H3183 C3164 0.913 . S
H3184 C3202 0.951 . S
H3185 C3204 0.951 . S
H3186 C3206 0.950 . S
H3187 C3207 0.950 . S
H3188 C3209 0.950 . S
H3189 C3212 0.950 . S
H3190 C3213 0.950 . S
H3191 C3215 0.950 . S
H3192 C3216 0.950 . S
H3193 C3217 0.951 . S
H3194 C3219 0.951 . S
H3195 C3221 0.950 . S
H3196 C3222 0.950 . S
H3197 C3224 0.950 . S
H3198 C3227 0.950 . S
H3199 C3228 0.950 . S
H3200 C3230 0.950 . S
H3201 C3231 0.950 . S
C3202 H3184 0.951 . S
C3202 C3203 1.366 . S
C3202 C3204 1.388 . S
C3203 C3202 1.366 . S
C3203 C3207 1.385 . S
C3204 H3185 0.951 . S
C3204 C3202 1.388 . S
C3204 C3205 1.366 . S
C3205 C3204 1.366 . S
C3205 C3206 1.414 . S
C3205 C3208 1.499 . S
C3206 H3186 0.950 . S
C3206 C3205 1.414 . S
C3206 C3207 1.374 . S
C3207 H3187 0.950 . S
C3207 C3203 1.385 . S
C3207 C3206 1.374 . S
C3208 C3205 1.499 . S
C3208 C3209 1.373 . S
C3208 C3210 1.389 . S
C3209 H3188 0.950 . S
C3209 C3208 1.373 . S
C3209 C3225 1.377 . S
C3210 C3208 1.389 . S
C3210 C3211 1.524 . S
C3210 C3224 1.377 . S
C3211 C3210 1.524 . S
C3211 C3212 1.397 . S
C3211 C3216 1.363 . S
C3212 H3189 0.950 . S
C3212 C3211 1.397 . S
C3212 C3213 1.334 . S
C3213 H3190 0.950 . S
C3213 C3212 1.334 . S
C3213 C3214 1.287 . S
C3214 C3213 1.287 . S
C3214 C3215 1.524 . S
C3214 H3233 0.913 . S
C3215 H3191 0.950 . S
C3215 C3214 1.524 . S
C3215 C3216 1.415 . S
C3216 H3192 0.950 . S
C3216 C3211 1.363 . S
C3216 C3215 1.415 . S
C3217 H3193 0.951 . S
C3217 C3218 1.366 . S
C3217 C3219 1.388 . S
C3218 C3217 1.366 . S
C3218 C3222 1.385 . S
C3219 H3194 0.951 . S
C3219 C3217 1.388 . S
C3219 C3220 1.366 . S
C3220 C3219 1.366 . S
C3220 C3221 1.414 . S
C3220 C3223 1.499 . S
C3221 H3195 0.950 . S
C3221 C3220 1.414 . S
C3221 C3222 1.374 . S
C3222 H3196 0.950 . S
C3222 C3218 1.385 . S
C3222 C3221 1.374 . S
C3223 C3220 1.499 . S
C3223 C3224 1.373 . S
C3223 C3225 1.389 . S
C3224 H3197 0.950 . S
C3224 C3210 1.377 . S
C3224 C3223 1.373 . S
C3225 C3209 1.377 . S
C3225 C3223 1.389 . S
C3225 C3226 1.524 . S
C3226 C3225 1.524 . S
C3226 C3227 1.397 . S
C3226 C3231 1.363 . S
C3227 H3198 0.950 . S
C3227 C3226 1.397 . S
C3227 C3228 1.334 . S
C3228 H3199 0.950 . S
C3228 C3227 1.334 . S
C3228 C3229 1.287 . S
C3229 C3228 1.287 . S
C3229 C3230 1.524 . S
C3229 H3232 0.999 . S
C3230 H3200 0.950 . S
C3230 C3229 1.524 . S
C3230 C3231 1.415 . S
C3231 H3201 0.950 . S
C3231 C3226 1.363 . S
C3231 C3230 1.415 . S
H3232 C3229 0.999 . S
H3233 C3214 0.913 . S
H3234 C3252 0.951 . S
H3235 C3254 0.951 . S
H3236 C3256 0.950 . S
H3237 C3257 0.950 . S
H3238 C3259 0.950 . S
H3239 C3262 0.950 . S
H3240 C3263 0.950 . S
H3241 C3265 0.950 . S
H3242 C3266 0.950 . S
H3243 C3267 0.951 . S
H3244 C3269 0.951 . S
H3245 C3271 0.950 . S
H3246 C3272 0.950 . S
H3247 C3274 0.950 . S
H3248 C3277 0.950 . S
H3249 C3278 0.950 . S
H3250 C3280 0.950 . S
H3251 C3281 0.950 . S
C3252 H3234 0.951 . S
C3252 C3253 1.366 . S
C3252 C3254 1.388 . S
C3253 C3252 1.366 . S
C3253 C3257 1.385 . S
C3254 H3235 0.951 . S
C3254 C3252 1.388 . S
C3254 C3255 1.366 . S
C3255 C3254 1.366 . S
C3255 C3256 1.414 . S
C3255 C3258 1.499 . S
C3256 H3236 0.950 . S
C3256 C3255 1.414 . S
C3256 C3257 1.374 . S
C3257 H3237 0.950 . S
C3257 C3253 1.385 . S
C3257 C3256 1.374 . S
C3258 C3255 1.499 . S
C3258 C3259 1.373 . S
C3258 C3260 1.389 . S
C3259 H3238 0.950 . S
C3259 C3258 1.373 . S
C3259 C3275 1.377 . S
C3260 C3258 1.389 . S
C3260 C3261 1.524 . S
C3260 C3274 1.377 . S
C3261 C3260 1.524 . S
C3261 C3262 1.397 . S
C3261 C3266 1.363 . S
C3262 H3239 0.950 . S
C3262 C3261 1.397 . S
C3262 C3263 1.334 . S
C3263 H3240 0.950 . S
C3263 C3262 1.334 . S
C3263 C3264 1.287 . S
C3264 C3263 1.287 . S
C3264 C3265 1.524 . S
C3264 H3283 0.913 . S
C3265 H3241 0.950 . S
C3265 C3264 1.524 . S
C3265 C3266 1.415 . S
C3266 H3242 0.950 . S
C3266 C3261 1.363 . S
C3266 C3265 1.415 . S
C3267 H3243 0.951 . S
C3267 C3268 1.366 . S
C3267 C3269 1.388 . S
C3268 C3267 1.366 . S
C3268 C3272 1.385 . S
C3269 H3244 0.951 . S
C3269 C3267 1.388 . S
C3269 C3270 1.366 . S
C3270 C3269 1.366 . S
C3270 C3271 1.414 . S
C3270 C3273 1.499 . S
C3271 H3245 0.950 . S
C3271 C3270 1.414 . S
C3271 C3272 1.374 . S
C3272 H3246 0.950 . S
C3272 C3268 1.385 . S
C3272 C3271 1.374 . S
C3273 C3270 1.499 . S
C3273 C3274 1.373 . S
C3273 C3275 1.389 . S
C3274 H3247 0.950 . S
C3274 C3260 1.377 . S
C3274 C3273 1.373 . S
C3275 C3259 1.377 . S
C3275 C3273 1.389 . S
C3275 C3276 1.524 . S
C3276 C3275 1.524 . S
C3276 C3277 1.397 . S
C3276 C3281 1.363 . S
C3277 H3248 0.950 . S
C3277 C3276 1.397 . S
C3277 C3278 1.334 . S
C3278 H3249 0.950 . S
C3278 C3277 1.334 . S
C3278 C3279 1.287 . S
C3279 C3278 1.287 . S
C3279 C3280 1.524 . S
C3279 H3282 0.999 . S
C3280 H3250 0.950 . S
C3280 C3279 1.524 . S
C3280 C3281 1.415 . S
C3281 H3251 0.950 . S
C3281 C3276 1.363 . S
C3281 C3280 1.415 . S
H3282 C3279 0.999 . S
H3283 C3264 0.913 . S
H3284 C3302 0.951 . S
H3285 C3304 0.951 . S
H3286 C3306 0.950 . S
H3287 C3307 0.950 . S
H3288 C3309 0.950 . S
H3289 C3312 0.950 . S
H3290 C3313 0.950 . S
H3291 C3315 0.950 . S
H3292 C3316 0.950 . S
H3293 C3317 0.951 . S
H3294 C3319 0.951 . S
H3295 C3321 0.950 . S
H3296 C3322 0.950 . S
H3297 C3324 0.950 . S
H3298 C3327 0.950 . S
H3299 C3328 0.950 . S
H3300 C3330 0.950 . S
H3301 C3331 0.950 . S
C3302 H3284 0.951 . S
C3302 C3303 1.366 . S
C3302 C3304 1.388 . S
C3303 C3302 1.366 . S
C3303 C3307 1.385 . S
C3304 H3285 0.951 . S
C3304 C3302 1.388 . S
C3304 C3305 1.366 . S
C3305 C3304 1.366 . S
C3305 C3306 1.414 . S
C3305 C3308 1.499 . S
C3306 H3286 0.950 . S
C3306 C3305 1.414 . S
C3306 C3307 1.374 . S
C3307 H3287 0.950 . S
C3307 C3303 1.385 . S
C3307 C3306 1.374 . S
C3308 C3305 1.499 . S
C3308 C3309 1.373 . S
C3308 C3310 1.389 . S
C3309 H3288 0.950 . S
C3309 C3308 1.373 . S
C3309 C3325 1.377 . S
C3310 C3308 1.389 . S
C3310 C3311 1.524 . S
C3310 C3324 1.377 . S
C3311 C3310 1.524 . S
C3311 C3312 1.397 . S
C3311 C3316 1.363 . S
C3312 H3289 0.950 . S
C3312 C3311 1.397 . S
C3312 C3313 1.334 . S
C3313 H3290 0.950 . S
C3313 C3312 1.334 . S
C3313 C3314 1.287 . S
C3314 C3313 1.287 . S
C3314 C3315 1.524 . S
C3314 H3333 0.913 . S
C3315 H3291 0.950 . S
C3315 C3314 1.524 . S
C3315 C3316 1.415 . S
C3316 H3292 0.950 . S
C3316 C3311 1.363 . S
C3316 C3315 1.415 . S
C3317 H3293 0.951 . S
C3317 C3318 1.366 . S
C3317 C3319 1.388 . S
C3318 C3317 1.366 . S
C3318 C3322 1.385 . S
C3319 H3294 0.951 . S
C3319 C3317 1.388 . S
C3319 C3320 1.366 . S
C3320 C3319 1.366 . S
C3320 C3321 1.414 . S
C3320 C3323 1.499 . S
C3321 H3295 0.950 . S
C3321 C3320 1.414 . S
C3321 C3322 1.374 . S
C3322 H3296 0.950 . S
C3322 C3318 1.385 . S
C3322 C3321 1.374 . S
C3323 C3320 1.499 . S
C3323 C3324 1.373 . S
C3323 C3325 1.389 . S
C3324 H3297 0.950 . S
C3324 C3310 1.377 . S
C3324 C3323 1.373 . S
C3325 C3309 1.377 . S
C3325 C3323 1.389 . S
C3325 C3326 1.524 . S
C3326 C3325 1.524 . S
C3326 C3327 1.397 . S
C3326 C3331 1.363 . S
C3327 H3298 0.950 . S
C3327 C3326 1.397 . S
C3327 C3328 1.334 . S
C3328 H3299 0.950 . S
C3328 C3327 1.334 . S
C3328 C3329 1.287 . S
C3329 C3328 1.287 . S
C3329 C3330 1.524 . S
C3329 H3332 0.999 . S
C3330 H3300 0.950 . S
C3330 C3329 1.524 . S
C3330 C3331 1.415 . S
C3331 H3301 0.950 . S
C3331 C3326 1.363 . S
C3331 C3330 1.415 . S
H3332 C3329 0.999 . S
H3333 C3314 0.913 . S
H3334 C3352 0.951 . S
H3335 C3354 0.951 . S
H3336 C3356 0.950 . S
H3337 C3357 0.950 . S
H3338 C3359 0.950 . S
H3339 C3362 0.950 . S
H3340 C3363 0.950 . S
H3341 C3365 0.950 . S
H3342 C3366 0.950 . S
H3343 C3367 0.951 . S
H3344 C3369 0.951 . S
H3345 C3371 0.950 . S
H3346 C3372 0.950 . S
H3347 C3374 0.950 . S
H3348 C3377 0.950 . S
H3349 C3378 0.950 . S
H3350 C3380 0.950 . S
H3351 C3381 0.950 . S
C3352 H3334 0.951 . S
C3352 C3353 1.366 . S
C3352 C3354 1.388 . S
C3353 C3352 1.366 . S
C3353 C3357 1.385 . S
C3354 H3335 0.951 . S
C3354 C3352 1.388 . S
C3354 C3355 1.366 . S
C3355 C3354 1.366 . S
C3355 C3356 1.414 . S
C3355 C3358 1.499 . S
C3356 H3336 0.950 . S
C3356 C3355 1.414 . S
C3356 C3357 1.374 . S
C3357 H3337 0.950 . S
C3357 C3353 1.385 . S
C3357 C3356 1.374 . S
C3358 C3355 1.499 . S
C3358 C3359 1.373 . S
C3358 C3360 1.389 . S
C3359 H3338 0.950 . S
C3359 C3358 1.373 . S
C3359 C3375 1.377 . S
C3360 C3358 1.389 . S
C3360 C3361 1.524 . S
C3360 C3374 1.377 . S
C3361 C3360 1.524 . S
C3361 C3362 1.397 . S
C3361 C3366 1.363 . S
C3362 H3339 0.950 . S
C3362 C3361 1.397 . S
C3362 C3363 1.334 . S
C3363 H3340 0.950 . S
C3363 C3362 1.334 . S
C3363 C3364 1.287 . S
C3364 C3363 1.287 . S
C3364 C3365 1.524 . S
C3364 H3383 0.913 . S
C3365 H3341 0.950 . S
C3365 C3364 1.524 . S
C3365 C3366 1.415 . S
C3366 H3342 0.950 . S
C3366 C3361 1.363 . S
C3366 C3365 1.415 . S
C3367 H3343 0.951 . S
C3367 C3368 1.366 . S
C3367 C3369 1.388 . S
C3368 C3367 1.366 . S
C3368 C3372 1.385 . S
C3369 H3344 0.951 . S
C3369 C3367 1.388 . S
C3369 C3370 1.366 . S
C3370 C3369 1.366 . S
C3370 C3371 1.414 . S
C3370 C3373 1.499 . S
C3371 H3345 0.950 . S
C3371 C3370 1.414 . S
C3371 C3372 1.374 . S
C3372 H3346 0.950 . S
C3372 C3368 1.385 . S
C3372 C3371 1.374 . S
C3373 C3370 1.499 . S
C3373 C3374 1.373 . S
C3373 C3375 1.389 . S
C3374 H3347 0.950 . S
C3374 C3360 1.377 . S
C3374 C3373 1.373 . S
C3375 C3359 1.377 . S
C3375 C3373 1.389 . S
C3375 C3376 1.524 . S
C3376 C3375 1.524 . S
C3376 C3377 1.397 . S
C3376 C3381 1.363 . S
C3377 H3348 0.950 . S
C3377 C3376 1.397 . S
C3377 C3378 1.334 . S
C3378 H3349 0.950 . S
C3378 C3377 1.334 . S
C3378 C3379 1.287 . S
C3379 C3378 1.287 . S
C3379 C3380 1.524 . S
C3379 H3382 0.999 . S
C3380 H3350 0.950 . S
C3380 C3379 1.524 . S
C3380 C3381 1.415 . S
C3381 H3351 0.950 . S
C3381 C3376 1.363 . S
C3381 C3380 1.415 . S
H3382 C3379 0.999 . S
H3383 C3364 0.913 . S
H3384 C3402 0.951 . S
H3385 C3404 0.951 . S
H3386 C3406 0.950 . S
H3387 C3407 0.950 . S
H3388 C3409 0.950 . S
H3389 C3412 0.950 . S
H3390 C3413 0.950 . S
H3391 C3415 0.950 . S
H3392 C3416 0.950 . S
H3393 C3417 0.951 . S
H3394 C3419 0.951 . S
H3395 C3421 0.950 . S
H3396 C3422 0.950 . S
H3397 C3424 0.950 . S
H3398 C3427 0.950 . S
H3399 C3428 0.950 . S
H3400 C3430 0.950 . S
H3401 C3431 0.950 . S
C3402 H3384 0.951 . S
C3402 C3403 1.366 . S
C3402 C3404 1.388 . S
C3403 C3402 1.366 . S
C3403 C3407 1.385 . S
C3404 H3385 0.951 . S
C3404 C3402 1.388 . S
C3404 C3405 1.366 . S
C3405 C3404 1.366 . S
C3405 C3406 1.414 . S
C3405 C3408 1.499 . S
C3406 H3386 0.950 . S
C3406 C3405 1.414 . S
C3406 C3407 1.374 . S
C3407 H3387 0.950 . S
C3407 C3403 1.385 . S
C3407 C3406 1.374 . S
C3408 C3405 1.499 . S
C3408 C3409 1.373 . S
C3408 C3410 1.389 . S
C3409 H3388 0.950 . S
C3409 C3408 1.373 . S
C3409 C3425 1.377 . S
C3410 C3408 1.389 . S
C3410 C3411 1.524 . S
C3410 C3424 1.377 . S
C3411 C3410 1.524 . S
C3411 C3412 1.397 . S
C3411 C3416 1.363 . S
C3412 H3389 0.950 . S
C3412 C3411 1.397 . S
C3412 C3413 1.334 . S
C3413 H3390 0.950 . S
C3413 C3412 1.334 . S
C3413 C3414 1.287 . S
C3414 C3413 1.287 . S
C3414 C3415 1.524 . S
C3414 H3433 0.913 . S
C3415 H3391 0.950 . S
C3415 C3414 1.524 . S
C3415 C3416 1.415 . S
C3416 H3392 0.950 . S
C3416 C3411 1.363 . S
C3416 C3415 1.415 . S
C3417 H3393 0.951 . S
C3417 C3418 1.366 . S
C3417 C3419 1.388 . S
C3418 C3417 1.366 . S
C3418 C3422 1.385 . S
C3419 H3394 0.951 . S
C3419 C3417 1.388 . S
C3419 C3420 1.366 . S
C3420 C3419 1.366 . S
C3420 C3421 1.414 . S
C3420 C3423 1.499 . S
C3421 H3395 0.950 . S
C3421 C3420 1.414 . S
C3421 C3422 1.374 . S
C3422 H3396 0.950 . S
C3422 C3418 1.385 . S
C3422 C3421 1.374 . S
C3423 C3420 1.499 . S
C3423 C3424 1.373 . S
C3423 C3425 1.389 . S
C3424 H3397 0.950 . S
C3424 C3410 1.377 . S
C3424 C3423 1.373 . S
C3425 C3409 1.377 . S
C3425 C3423 1.389 . S
C3425 C3426 1.524 . S
C3426 C3425 1.524 . S
C3426 C3427 1.397 . S
C3426 C3431 1.363 . S
C3427 H3398 0.950 . S
C3427 C3426 1.397 . S
C3427 C3428 1.334 . S
C3428 H3399 0.950 . S
C3428 C3427 1.334 . S
C3428 C3429 1.287 . S
C3429 C3428 1.287 . S
C3429 C3430 1.524 . S
C3429 H3432 0.999 . S
C3430 H3400 0.950 . S
C3430 C3429 1.524 . S
C3430 C3431 1.415 . S
C3431 H3401 0.950 . S
C3431 C3426 1.363 . S
C3431 C3430 1.415 . S
H3432 C3429 0.999 . S
H3433 C3414 0.913 . S
H3434 C3452 0.951 . S
H3435 C3454 0.951 . S
H3436 C3456 0.950 . S
H3437 C3457 0.950 . S
H3438 C3459 0.950 . S
H3439 C3462 0.950 . S
H3440 C3463 0.950 . S
H3441 C3465 0.950 . S
H3442 C3466 0.950 . S
H3443 C3467 0.951 . S
H3444 C3469 0.951 . S
H3445 C3471 0.950 . S
H3446 C3472 0.950 . S
H3447 C3474 0.950 . S
H3448 C3477 0.950 . S
H3449 C3478 0.950 . S
H3450 C3480 0.950 . S
H3451 C3481 0.950 . S
C3452 H3434 0.951 . S
C3452 C3453 1.366 . S
C3452 C3454 1.388 . S
C3453 C3452 1.366 . S
C3453 C3457 1.385 . S
C3454 H3435 0.951 . S
C3454 C3452 1.388 . S
C3454 C3455 1.366 . S
C3455 C3454 1.366 . S
C3455 C3456 1.414 . S
C3455 C3458 1.499 . S
C3456 H3436 0.950 . S
C3456 C3455 1.414 . S
C3456 C3457 1.374 . S
C3457 H3437 0.950 . S
C3457 C3453 1.385 . S
C3457 C3456 1.374 . S
C3458 C3455 1.499 . S
C3458 C3459 1.373 . S
C3458 C3460 1.389 . S
C3459 H3438 0.950 . S
C3459 C3458 1.373 . S
C3459 C3475 1.377 . S
C3460 C3458 1.389 . S
C3460 C3461 1.524 . S
C3460 C3474 1.377 . S
C3461 C3460 1.524 . S
C3461 C3462 1.397 . S
C3461 C3466 1.363 . S
C3462 H3439 0.950 . S
C3462 C3461 1.397 . S
C3462 C3463 1.334 . S
C3463 H3440 0.950 . S
C3463 C3462 1.334 . S
C3463 C3464 1.287 . S
C3464 C3463 1.287 . S
C3464 C3465 1.524 . S
C3464 H3483 0.913 . S
C3465 H3441 0.950 . S
C3465 C3464 1.524 . S
C3465 C3466 1.415 . S
C3466 H3442 0.950 . S
C3466 C3461 1.363 . S
C3466 C3465 1.415 . S
C3467 H3443 0.951 . S
C3467 C3468 1.366 . S
C3467 C3469 1.388 . S
C3468 C3467 1.366 . S
C3468 C3472 1.385 . S
C3469 H3444 0.951 . S
C3469 C3467 1.388 . S
C3469 C3470 1.366 . S
C3470 C3469 1.366 . S
C3470 C3471 1.414 . S
C3470 C3473 1.499 . S
C3471 H3445 0.950 . S
C3471 C3470 1.414 . S
C3471 C3472 1.374 . S
C3472 H3446 0.950 . S
C3472 C3468 1.385 . S
C3472 C3471 1.374 . S
C3473 C3470 1.499 . S
C3473 C3474 1.373 . S
C3473 C3475 1.389 . S
C3474 H3447 0.950 . S
C3474 C3460 1.377 . S
C3474 C3473 1.373 . S
C3475 C3459 1.377 . S
C3475 C3473 1.389 . S
C3475 C3476 1.524 . S
C3476 C3475 1.524 . S
C3476 C3477 1.397 . S
C3476 C3481 1.363 . S
C3477 H3448 0.950 . S
C3477 C3476 1.397 . S
C3477 C3478 1.334 . S
C3478 H3449 0.950 . S
C3478 C3477 1.334 . S
C3478 C3479 1.287 . S
C3479 C3478 1.287 . S
C3479 C3480 1.524 . S
C3479 H3482 0.999 . S
C3480 H3450 0.950 . S
C3480 C3479 1.524 . S
C3480 C3481 1.415 . S
C3481 H3451 0.950 . S
C3481 C3476 1.363 . S
C3481 C3480 1.415 . S
H3482 C3479 0.999 . S
H3483 C3464 0.913 . S
H3484 C3502 0.951 . S
H3485 C3504 0.951 . S
H3486 C3506 0.950 . S
H3487 C3507 0.950 . S
H3488 C3509 0.950 . S
H3489 C3512 0.950 . S
H3490 C3513 0.950 . S
H3491 C3515 0.950 . S
H3492 C3516 0.950 . S
H3493 C3517 0.951 . S
H3494 C3519 0.951 . S
H3495 C3521 0.950 . S
H3496 C3522 0.950 . S
H3497 C3524 0.950 . S
H3498 C3527 0.950 . S
H3499 C3528 0.950 . S
H3500 C3530 0.950 . S
H3501 C3531 0.950 . S
C3502 H3484 0.951 . S
C3502 C3503 1.366 . S
C3502 C3504 1.388 . S
C3503 C3502 1.366 . S
C3503 C3507 1.385 . S
C3504 H3485 0.951 . S
C3504 C3502 1.388 . S
C3504 C3505 1.366 . S
C3505 C3504 1.366 . S
C3505 C3506 1.414 . S
C3505 C3508 1.499 . S
C3506 H3486 0.950 . S
C3506 C3505 1.414 . S
C3506 C3507 1.374 . S
C3507 H3487 0.950 . S
C3507 C3503 1.385 . S
C3507 C3506 1.374 . S
C3508 C3505 1.499 . S
C3508 C3509 1.373 . S
C3508 C3510 1.389 . S
C3509 H3488 0.950 . S
C3509 C3508 1.373 . S
C3509 C3525 1.377 . S
C3510 C3508 1.389 . S
C3510 C3511 1.524 . S
C3510 C3524 1.377 . S
C3511 C3510 1.524 . S
C3511 C3512 1.397 . S
C3511 C3516 1.363 . S
C3512 H3489 0.950 . S
C3512 C3511 1.397 . S
C3512 C3513 1.334 . S
C3513 H3490 0.950 . S
C3513 C3512 1.334 . S
C3513 C3514 1.287 . S
C3514 C3513 1.287 . S
C3514 C3515 1.524 . S
C3514 H3533 0.913 . S
C3515 H3491 0.950 . S
C3515 C3514 1.524 . S
C3515 C3516 1.415 . S
C3516 H3492 0.950 . S
C3516 C3511 1.363 . S
C3516 C3515 1.415 . S
C3517 H3493 0.951 . S
C3517 C3518 1.366 . S
C3517 C3519 1.388 . S
C3518 C3517 1.366 . S
C3518 C3522 1.385 . S
C3519 H3494 0.951 . S
C3519 C3517 1.388 . S
C3519 C3520 1.366 . S
C3520 C3519 1.366 . S
C3520 C3521 1.414 . S
C3520 C3523 1.499 . S
C3521 H3495 0.950 . S
C3521 C3520 1.414 . S
C3521 C3522 1.374 . S
C3522 H3496 0.950 . S
C3522 C3518 1.385 . S
C3522 C3521 1.374 . S
C3523 C3520 1.499 . S
C3523 C3524 1.373 . S
C3523 C3525 1.389 . S
C3524 H3497 0.950 . S
C3524 C3510 1.377 . S
C3524 C3523 1.373 . S
C3525 C3509 1.377 . S
C3525 C3523 1.389 . S
C3525 C3526 1.524 . S
C3526 C3525 1.524 . S
C3526 C3527 1.397 . S
C3526 C3531 1.363 . S
C3527 H3498 0.950 . S
C3527 C3526 1.397 . S
C3527 C3528 1.334 . S
C3528 H3499 0.950 . S
C3528 C3527 1.334 . S
C3528 C3529 1.287 . S
C3529 C3528 1.287 . S
C3529 C3530 1.524 . S
C3529 H3532 0.999 . S
C3530 H3500 0.950 . S
C3530 C3529 1.524 . S
C3530 C3531 1.415 . S
C3531 H3501 0.950 . S
C3531 C3526 1.363 . S
C3531 C3530 1.415 . S
H3532 C3529 0.999 . S
H3533 C3514 0.913 . S
H3534 C3552 0.951 . S
H3535 C3554 0.951 . S
H3536 C3556 0.950 . S
H3537 C3557 0.950 . S
H3538 C3559 0.950 . S
H3539 C3562 0.950 . S
H3540 C3563 0.950 . S
H3541 C3565 0.950 . S
H3542 C3566 0.950 . S
H3543 C3567 0.951 . S
H3544 C3569 0.951 . S
H3545 C3571 0.950 . S
H3546 C3572 0.950 . S
H3547 C3574 0.950 . S
H3548 C3577 0.950 . S
H3549 C3578 0.950 . S
H3550 C3580 0.950 . S
H3551 C3581 0.950 . S
C3552 H3534 0.951 . S
C3552 C3553 1.366 . S
C3552 C3554 1.388 . S
C3553 C3552 1.366 . S
C3553 C3557 1.385 . S
C3554 H3535 0.951 . S
C3554 C3552 1.388 . S
C3554 C3555 1.366 . S
C3555 C3554 1.366 . S
C3555 C3556 1.414 . S
C3555 C3558 1.499 . S
C3556 H3536 0.950 . S
C3556 C3555 1.414 . S
C3556 C3557 1.374 . S
C3557 H3537 0.950 . S
C3557 C3553 1.385 . S
C3557 C3556 1.374 . S
C3558 C3555 1.499 . S
C3558 C3559 1.373 . S
C3558 C3560 1.389 . S
C3559 H3538 0.950 . S
C3559 C3558 1.373 . S
C3559 C3575 1.377 . S
C3560 C3558 1.389 . S
C3560 C3561 1.524 . S
C3560 C3574 1.377 . S
C3561 C3560 1.524 . S
C3561 C3562 1.397 . S
C3561 C3566 1.363 . S
C3562 H3539 0.950 . S
C3562 C3561 1.397 . S
C3562 C3563 1.334 . S
C3563 H3540 0.950 . S
C3563 C3562 1.334 . S
C3563 C3564 1.287 . S
C3564 C3563 1.287 . S
C3564 C3565 1.524 . S
C3564 H3583 0.913 . S
C3565 H3541 0.950 . S
C3565 C3564 1.524 . S
C3565 C3566 1.415 . S
C3566 H3542 0.950 . S
C3566 C3561 1.363 . S
C3566 C3565 1.415 . S
C3567 H3543 0.951 . S
C3567 C3568 1.366 . S
C3567 C3569 1.388 . S
C3568 C3567 1.366 . S
C3568 C3572 1.385 . S
C3569 H3544 0.951 . S
C3569 C3567 1.388 . S
C3569 C3570 1.366 . S
C3570 C3569 1.366 . S
C3570 C3571 1.414 . S
C3570 C3573 1.499 . S
C3571 H3545 0.950 . S
C3571 C3570 1.414 . S
C3571 C3572 1.374 . S
C3572 H3546 0.950 . S
C3572 C3568 1.385 . S
C3572 C3571 1.374 . S
C3573 C3570 1.499 . S
C3573 C3574 1.373 . S
C3573 C3575 1.389 . S
C3574 H3547 0.950 . S
C3574 C3560 1.377 . S
C3574 C3573 1.373 . S
C3575 C3559 1.377 . S
C3575 C3573 1.389 . S
C3575 C3576 1.524 . S
C3576 C3575 1.524 . S
C3576 C3577 1.397 . S
C3576 C3581 1.363 . S
C3577 H3548 0.950 . S
C3577 C3576 1.397 . S
C3577 C3578 1.334 . S
C3578 H3549 0.950 . S
C3578 C3577 1.334 . S
C3578 C3579 1.287 . S
C3579 C3578 1.287 . S
C3579 C3580 1.524 . S
C3579 H3582 0.999 . S
C3580 H3550 0.950 . S
C3580 C3579 1.524 . S
C3580 C3581 1.415 . S
C3581 H3551 0.950 . S
C3581 C3576 1.363 . S
C3581 C3580 1.415 . S
H3582 C3579 0.999 . S
H3583 C3564 0.913 . S
H3584 C3602 0.951 . S
H3585 C3604 0.951 . S
H3586 C3606 0.950 . S
H3587 C3607 0.950 . S
H3588 C3609 0.950 . S
H3589 C3612 0.950 . S
H3590 C3613 0.950 . S
H3591 C3615 0.950 . S
H3592 C3616 0.950 . S
H3593 C3617 0.951 . S
H3594 C3619 0.951 . S
H3595 C3621 0.950 . S
H3596 C3622 0.950 . S
H3597 C3624 0.950 . S
H3598 C3627 0.950 . S
H3599 C3628 0.950 . S
H3600 C3630 0.950 . S
H3601 C3631 0.950 . S
C3602 H3584 0.951 . S
C3602 C3603 1.366 . S
C3602 C3604 1.388 . S
C3603 C3602 1.366 . S
C3603 C3607 1.385 . S
C3604 H3585 0.951 . S
C3604 C3602 1.388 . S
C3604 C3605 1.366 . S
C3605 C3604 1.366 . S
C3605 C3606 1.414 . S
C3605 C3608 1.499 . S
C3606 H3586 0.950 . S
C3606 C3605 1.414 . S
C3606 C3607 1.374 . S
C3607 H3587 0.950 . S
C3607 C3603 1.385 . S
C3607 C3606 1.374 . S
C3608 C3605 1.499 . S
C3608 C3609 1.373 . S
C3608 C3610 1.389 . S
C3609 H3588 0.950 . S
C3609 C3608 1.373 . S
C3609 C3625 1.377 . S
C3610 C3608 1.389 . S
C3610 C3611 1.524 . S
C3610 C3624 1.377 . S
C3611 C3610 1.524 . S
C3611 C3612 1.397 . S
C3611 C3616 1.363 . S
C3612 H3589 0.950 . S
C3612 C3611 1.397 . S
C3612 C3613 1.334 . S
C3613 H3590 0.950 . S
C3613 C3612 1.334 . S
C3613 C3614 1.287 . S
C3614 C3613 1.287 . S
C3614 C3615 1.524 . S
C3614 H3633 0.913 . S
C3615 H3591 0.950 . S
C3615 C3614 1.524 . S
C3615 C3616 1.415 . S
C3616 H3592 0.950 . S
C3616 C3611 1.363 . S
C3616 C3615 1.415 . S
C3617 H3593 0.951 . S
C3617 C3618 1.366 . S
C3617 C3619 1.388 . S
C3618 C3617 1.366 . S
C3618 C3622 1.385 . S
C3619 H3594 0.951 . S
C3619 C3617 1.388 . S
C3619 C3620 1.366 . S
C3620 C3619 1.366 . S
C3620 C3621 1.414 . S
C3620 C3623 1.499 . S
C3621 H3595 0.950 . S
C3621 C3620 1.414 . S
C3621 C3622 1.374 . S
C3622 H3596 0.950 . S
C3622 C3618 1.385 . S
C3622 C3621 1.374 . S
C3623 C3620 1.499 . S
C3623 C3624 1.373 . S
C3623 C3625 1.389 . S
C3624 H3597 0.950 . S
C3624 C3610 1.377 . S
C3624 C3623 1.373 . S
C3625 C3609 1.377 . S
C3625 C3623 1.389 . S
C3625 C3626 1.524 . S
C3626 C3625 1.524 . S
C3626 C3627 1.397 . S
C3626 C3631 1.363 . S
C3627 H3598 0.950 . S
C3627 C3626 1.397 . S
C3627 C3628 1.334 . S
C3628 H3599 0.950 . S
C3628 C3627 1.334 . S
C3628 C3629 1.287 . S
C3629 C3628 1.287 . S
C3629 C3630 1.524 . S
C3629 H3632 0.999 . S
C3630 H3600 0.950 . S
C3630 C3629 1.524 . S
C3630 C3631 1.415 . S
C3631 H3601 0.950 . S
C3631 C3626 1.363 . S
C3631 C3630 1.415 . S
H3632 C3629 0.999 . S
H3633 C3614 0.913 . S
H3634 C3652 0.951 . S
H3635 C3654 0.951 . S
H3636 C3656 0.950 . S
H3637 C3657 0.950 . S
H3638 C3659 0.950 . S
H3639 C3662 0.950 . S
H3640 C3663 0.950 . S
H3641 C3665 0.950 . S
H3642 C3666 0.950 . S
H3643 C3667 0.951 . S
H3644 C3669 0.951 . S
H3645 C3671 0.950 . S
H3646 C3672 0.950 . S
H3647 C3674 0.950 . S
H3648 C3677 0.950 . S
H3649 C3678 0.950 . S
H3650 C3680 0.950 . S
H3651 C3681 0.950 . S
C3652 H3634 0.951 . S
C3652 C3653 1.366 . S
C3652 C3654 1.388 . S
C3653 C3652 1.366 . S
C3653 C3657 1.385 . S
C3654 H3635 0.951 . S
C3654 C3652 1.388 . S
C3654 C3655 1.366 . S
C3655 C3654 1.366 . S
C3655 C3656 1.414 . S
C3655 C3658 1.499 . S
C3656 H3636 0.950 . S
C3656 C3655 1.414 . S
C3656 C3657 1.374 . S
C3657 H3637 0.950 . S
C3657 C3653 1.385 . S
C3657 C3656 1.374 . S
C3658 C3655 1.499 . S
C3658 C3659 1.373 . S
C3658 C3660 1.389 . S
C3659 H3638 0.950 . S
C3659 C3658 1.373 . S
C3659 C3675 1.377 . S
C3660 C3658 1.389 . S
C3660 C3661 1.524 . S
C3660 C3674 1.377 . S
C3661 C3660 1.524 . S
C3661 C3662 1.397 . S
C3661 C3666 1.363 . S
C3662 H3639 0.950 . S
C3662 C3661 1.397 . S
C3662 C3663 1.334 . S
C3663 H3640 0.950 . S
C3663 C3662 1.334 . S
C3663 C3664 1.287 . S
C3664 C3663 1.287 . S
C3664 C3665 1.524 . S
C3664 H3683 0.913 . S
C3665 H3641 0.950 . S
C3665 C3664 1.524 . S
C3665 C3666 1.415 . S
C3666 H3642 0.950 . S
C3666 C3661 1.363 . S
C3666 C3665 1.415 . S
C3667 H3643 0.951 . S
C3667 C3668 1.366 . S
C3667 C3669 1.388 . S
C3668 C3667 1.366 . S
C3668 C3672 1.385 . S
C3669 H3644 0.951 . S
C3669 C3667 1.388 . S
C3669 C3670 1.366 . S
C3670 C3669 1.366 . S
C3670 C3671 1.414 . S
C3670 C3673 1.499 . S
C3671 H3645 0.950 . S
C3671 C3670 1.414 . S
C3671 C3672 1.374 . S
C3672 H3646 0.950 . S
C3672 C3668 1.385 . S
C3672 C3671 1.374 . S
C3673 C3670 1.499 . S
C3673 C3674 1.373 . S
C3673 C3675 1.389 . S
C3674 H3647 0.950 . S
C3674 C3660 1.377 . S
C3674 C3673 1.373 . S
C3675 C3659 1.377 . S
C3675 C3673 1.389 . S
C3675 C3676 1.524 . S
C3676 C3675 1.524 . S
C3676 C3677 1.397 . S
C3676 C3681 1.363 . S
C3677 H3648 0.950 . S
C3677 C3676 1.397 . S
C3677 C3678 1.334 . S
C3678 H3649 0.950 . S
C3678 C3677 1.334 . S
C3678 C3679 1.287 . S
C3679 C3678 1.287 . S
C3679 C3680 1.524 . S
C3679 H3682 0.999 . S
C3680 H3650 0.950 . S
C3680 C3679 1.524 . S
C3680 C3681 1.415 . S
C3681 H3651 0.950 . S
C3681 C3676 1.363 . S
C3681 C3680 1.415 . S
H3682 C3679 0.999 . S
H3683 C3664 0.913 . S
H3684 C3702 0.951 . S
H3685 C3704 0.951 . S
H3686 C3706 0.950 . S
H3687 C3707 0.950 . S
H3688 C3709 0.950 . S
H3689 C3712 0.950 . S
H3690 C3713 0.950 . S
H3691 C3715 0.950 . S
H3692 C3716 0.950 . S
H3693 C3717 0.951 . S
H3694 C3719 0.951 . S
H3695 C3721 0.950 . S
H3696 C3722 0.950 . S
H3697 C3724 0.950 . S
H3698 C3727 0.950 . S
H3699 C3728 0.950 . S
H3700 C3730 0.950 . S
H3701 C3731 0.950 . S
C3702 H3684 0.951 . S
C3702 C3703 1.366 . S
C3702 C3704 1.388 . S
C3703 C3702 1.366 . S
C3703 C3707 1.385 . S
C3704 H3685 0.951 . S
C3704 C3702 1.388 . S
C3704 C3705 1.366 . S
C3705 C3704 1.366 . S
C3705 C3706 1.414 . S
C3705 C3708 1.499 . S
C3706 H3686 0.950 . S
C3706 C3705 1.414 . S
C3706 C3707 1.374 . S
C3707 H3687 0.950 . S
C3707 C3703 1.385 . S
C3707 C3706 1.374 . S
C3708 C3705 1.499 . S
C3708 C3709 1.373 . S
C3708 C3710 1.389 . S
C3709 H3688 0.950 . S
C3709 C3708 1.373 . S
C3709 C3725 1.377 . S
C3710 C3708 1.389 . S
C3710 C3711 1.524 . S
C3710 C3724 1.377 . S
C3711 C3710 1.524 . S
C3711 C3712 1.397 . S
C3711 C3716 1.363 . S
C3712 H3689 0.950 . S
C3712 C3711 1.397 . S
C3712 C3713 1.334 . S
C3713 H3690 0.950 . S
C3713 C3712 1.334 . S
C3713 C3714 1.287 . S
C3714 C3713 1.287 . S
C3714 C3715 1.524 . S
C3714 H3733 0.913 . S
C3715 H3691 0.950 . S
C3715 C3714 1.524 . S
C3715 C3716 1.415 . S
C3716 H3692 0.950 . S
C3716 C3711 1.363 . S
C3716 C3715 1.415 . S
C3717 H3693 0.951 . S
C3717 C3718 1.366 . S
C3717 C3719 1.388 . S
C3718 C3717 1.366 . S
C3718 C3722 1.385 . S
C3719 H3694 0.951 . S
C3719 C3717 1.388 . S
C3719 C3720 1.366 . S
C3720 C3719 1.366 . S
C3720 C3721 1.414 . S
C3720 C3723 1.499 . S
C3721 H3695 0.950 . S
C3721 C3720 1.414 . S
C3721 C3722 1.374 . S
C3722 H3696 0.950 . S
C3722 C3718 1.385 . S
C3722 C3721 1.374 . S
C3723 C3720 1.499 . S
C3723 C3724 1.373 . S
C3723 C3725 1.389 . S
C3724 H3697 0.950 . S
C3724 C3710 1.377 . S
C3724 C3723 1.373 . S
C3725 C3709 1.377 . S
C3725 C3723 1.389 . S
C3725 C3726 1.524 . S
C3726 C3725 1.524 . S
C3726 C3727 1.397 . S
C3726 C3731 1.363 . S
C3727 H3698 0.950 . S
C3727 C3726 1.397 . S
C3727 C3728 1.334 . S
C3728 H3699 0.950 . S
C3728 C3727 1.334 . S
C3728 C3729 1.287 . S
C3729 C3728 1.287 . S
C3729 C3730 1.524 . S
C3729 H3732 0.999 . S
C3730 H3700 0.950 . S
C3730 C3729 1.524 . S
C3730 C3731 1.415 . S
C3731 H3701 0.950 . S
C3731 C3726 1.363 . S
C3731 C3730 1.415 . S
H3732 C3729 0.999 . S
H3733 C3714 0.913 . S
H3734 C3752 0.951 . S
H3735 C3754 0.951 . S
H3736 C3756 0.950 . S
H3737 C3757 0.950 . S
H3738 C3759 0.950 . S
H3739 C3762 0.950 . S
H3740 C3763 0.950 . S
H3741 C3765 0.950 . S
H3742 C3766 0.950 . S
H3743 C3767 0.951 . S
H3744 C3769 0.951 . S
H3745 C3771 0.950 . S
H3746 C3772 0.950 . S
H3747 C3774 0.950 . S
H3748 C3777 0.950 . S
H3749 C3778 0.950 . S
H3750 C3780 0.950 . S
H3751 C3781 0.950 . S
C3752 H3734 0.951 . S
C3752 C3753 1.366 . S
C3752 C3754 1.388 . S
C3753 C3752 1.366 . S
C3753 C3757 1.385 . S
C3754 H3735 0.951 . S
C3754 C3752 1.388 . S
C3754 C3755 1.366 . S
C3755 C3754 1.366 . S
C3755 C3756 1.414 . S
C3755 C3758 1.499 . S
C3756 H3736 0.950 . S
C3756 C3755 1.414 . S
C3756 C3757 1.374 . S
C3757 H3737 0.950 . S
C3757 C3753 1.385 . S
C3757 C3756 1.374 . S
C3758 C3755 1.499 . S
C3758 C3759 1.373 . S
C3758 C3760 1.389 . S
C3759 H3738 0.950 . S
C3759 C3758 1.373 . S
C3759 C3775 1.377 . S
C3760 C3758 1.389 . S
C3760 C3761 1.524 . S
C3760 C3774 1.377 . S
C3761 C3760 1.524 . S
C3761 C3762 1.397 . S
C3761 C3766 1.363 . S
C3762 H3739 0.950 . S
C3762 C3761 1.397 . S
C3762 C3763 1.334 . S
C3763 H3740 0.950 . S
C3763 C3762 1.334 . S
C3763 C3764 1.287 . S
C3764 C3763 1.287 . S
C3764 C3765 1.524 . S
C3764 H3783 0.913 . S
C3765 H3741 0.950 . S
C3765 C3764 1.524 . S
C3765 C3766 1.415 . S
C3766 H3742 0.950 . S
C3766 C3761 1.363 . S
C3766 C3765 1.415 . S
C3767 H3743 0.951 . S
C3767 C3768 1.366 . S
C3767 C3769 1.388 . S
C3768 C3767 1.366 . S
C3768 C3772 1.385 . S
C3769 H3744 0.951 . S
C3769 C3767 1.388 . S
C3769 C3770 1.366 . S
C3770 C3769 1.366 . S
C3770 C3771 1.414 . S
C3770 C3773 1.499 . S
C3771 H3745 0.950 . S
C3771 C3770 1.414 . S
C3771 C3772 1.374 . S
C3772 H3746 0.950 . S
C3772 C3768 1.385 . S
C3772 C3771 1.374 . S
C3773 C3770 1.499 . S
C3773 C3774 1.373 . S
C3773 C3775 1.389 . S
C3774 H3747 0.950 . S
C3774 C3760 1.377 . S
C3774 C3773 1.373 . S
C3775 C3759 1.377 . S
C3775 C3773 1.389 . S
C3775 C3776 1.524 . S
C3776 C3775 1.524 . S
C3776 C3777 1.397 . S
C3776 C3781 1.363 . S
C3777 H3748 0.950 . S
C3777 C3776 1.397 . S
C3777 C3778 1.334 . S
C3778 H3749 0.950 . S
C3778 C3777 1.334 . S
C3778 C3779 1.287 . S
C3779 C3778 1.287 . S
C3779 C3780 1.524 . S
C3779 H3782 0.999 . S
C3780 H3750 0.950 . S
C3780 C3779 1.524 . S
C3780 C3781 1.415 . S
C3781 H3751 0.950 . S
C3781 C3776 1.363 . S
C3781 C3780 1.415 . S
H3782 C3779 0.999 . S
H3783 C3764 0.913 . S
H3784 C3802 0.951 . S
H3785 C3804 0.951 . S
H3786 C3806 0.950 . S
H3787 C3807 0.950 . S
H3788 C3809 0.950 . S
H3789 C3812 0.950 . S
H3790 C3813 0.950 . S
H3791 C3815 0.950 . S
H3792 C3816 0.950 . S
H3793 C3817 0.951 . S
H3794 C3819 0.951 . S
H3795 C3821 0.950 . S
H3796 C3822 0.950 . S
H3797 C3824 0.950 . S
H3798 C3827 0.950 . S
H3799 C3828 0.950 . S
H3800 C3830 0.950 . S
H3801 C3831 0.950 . S
C3802 H3784 0.951 . S
C3802 C3803 1.366 . S
C3802 C3804 1.388 . S
C3803 C3802 1.366 . S
C3803 C3807 1.385 . S
C3804 H3785 0.951 . S
C3804 C3802 1.388 . S
C3804 C3805 1.366 . S
C3805 C3804 1.366 . S
C3805 C3806 1.414 . S
C3805 C3808 1.499 . S
C3806 H3786 0.950 . S
C3806 C3805 1.414 . S
C3806 C3807 1.374 . S
C3807 H3787 0.950 . S
C3807 C3803 1.385 . S
C3807 C3806 1.374 . S
C3808 C3805 1.499 . S
C3808 C3809 1.373 . S
C3808 C3810 1.389 . S
C3809 H3788 0.950 . S
C3809 C3808 1.373 . S
C3809 C3825 1.377 . S
C3810 C3808 1.389 . S
C3810 C3811 1.524 . S
C3810 C3824 1.377 . S
C3811 C3810 1.524 . S
C3811 C3812 1.397 . S
C3811 C3816 1.363 . S
C3812 H3789 0.950 . S
C3812 C3811 1.397 . S
C3812 C3813 1.334 . S
C3813 H3790 0.950 . S
C3813 C3812 1.334 . S
C3813 C3814 1.287 . S
C3814 C3813 1.287 . S
C3814 C3815 1.524 . S
C3814 H3833 0.913 . S
C3815 H3791 0.950 . S
C3815 C3814 1.524 . S
C3815 C3816 1.415 . S
C3816 H3792 0.950 . S
C3816 C3811 1.363 . S
C3816 C3815 1.415 . S
C3817 H3793 0.951 . S
C3817 C3818 1.366 . S
C3817 C3819 1.388 . S
C3818 C3817 1.366 . S
C3818 C3822 1.385 . S
C3819 H3794 0.951 . S
C3819 C3817 1.388 . S
C3819 C3820 1.366 . S
C3820 C3819 1.366 . S
C3820 C3821 1.414 . S
C3820 C3823 1.499 . S
C3821 H3795 0.950 . S
C3821 C3820 1.414 . S
C3821 C3822 1.374 . S
C3822 H3796 0.950 . S
C3822 C3818 1.385 . S
C3822 C3821 1.374 . S
C3823 C3820 1.499 . S
C3823 C3824 1.373 . S
C3823 C3825 1.389 . S
C3824 H3797 0.950 . S
C3824 C3810 1.377 . S
C3824 C3823 1.373 . S
C3825 C3809 1.377 . S
C3825 C3823 1.389 . S
C3825 C3826 1.524 . S
C3826 C3825 1.524 . S
C3826 C3827 1.397 . S
C3826 C3831 1.363 . S
C3827 H3798 0.950 . S
C3827 C3826 1.397 . S
C3827 C3828 1.334 . S
C3828 H3799 0.950 . S
C3828 C3827 1.334 . S
C3828 C3829 1.287 . S
C3829 C3828 1.287 . S
C3829 C3830 1.524 . S
C3829 H3832 0.999 . S
C3830 H3800 0.950 . S
C3830 C3829 1.524 . S
C3830 C3831 1.415 . S
C3831 H3801 0.950 . S
C3831 C3826 1.363 . S
C3831 C3830 1.415 . S
H3832 C3829 0.999 . S
H3833 C3814 0.913 . S
H3834 C3852 0.951 . S
H3835 C3854 0.951 . S
H3836 C3856 0.950 . S
H3837 C3857 0.950 . S
H3838 C3859 0.950 . S
H3839 C3862 0.950 . S
H3840 C3863 0.950 . S
H3841 C3865 0.950 . S
H3842 C3866 0.950 . S
H3843 C3867 0.951 . S
H3844 C3869 0.951 . S
H3845 C3871 0.950 . S
H3846 C3872 0.950 . S
H3847 C3874 0.950 . S
H3848 C3877 0.950 . S
H3849 C3878 0.950 . S
H3850 C3880 0.950 . S
H3851 C3881 0.950 . S
C3852 H3834 0.951 . S
C3852 C3853 1.366 . S
C3852 C3854 1.388 . S
C3853 C3852 1.366 . S
C3853 C3857 1.385 . S
C3854 H3835 0.951 . S
C3854 C3852 1.388 . S
C3854 C3855 1.366 . S
C3855 C3854 1.366 . S
C3855 C3856 1.414 . S
C3855 C3858 1.499 . S
C3856 H3836 0.950 . S
C3856 C3855 1.414 . S
C3856 C3857 1.374 . S
C3857 H3837 0.950 . S
C3857 C3853 1.385 . S
C3857 C3856 1.374 . S
C3858 C3855 1.499 . S
C3858 C3859 1.373 . S
C3858 C3860 1.389 . S
C3859 H3838 0.950 . S
C3859 C3858 1.373 . S
C3859 C3875 1.377 . S
C3860 C3858 1.389 . S
C3860 C3861 1.524 . S
C3860 C3874 1.377 . S
C3861 C3860 1.524 . S
C3861 C3862 1.397 . S
C3861 C3866 1.363 . S
C3862 H3839 0.950 . S
C3862 C3861 1.397 . S
C3862 C3863 1.334 . S
C3863 H3840 0.950 . S
C3863 C3862 1.334 . S
C3863 C3864 1.287 . S
C3864 C3863 1.287 . S
C3864 C3865 1.524 . S
C3864 H3883 0.913 . S
C3865 H3841 0.950 . S
C3865 C3864 1.524 . S
C3865 C3866 1.415 . S
C3866 H3842 0.950 . S
C3866 C3861 1.363 . S
C3866 C3865 1.415 . S
C3867 H3843 0.951 . S
C3867 C3868 1.366 . S
C3867 C3869 1.388 . S
C3868 C3867 1.366 . S
C3868 C3872 1.385 . S
C3869 H3844 0.951 . S
C3869 C3867 1.388 . S
C3869 C3870 1.366 . S
C3870 C3869 1.366 . S
C3870 C3871 1.414 . S
C3870 C3873 1.499 . S
C3871 H3845 0.950 . S
C3871 C3870 1.414 . S
C3871 C3872 1.374 . S
C3872 H3846 0.950 . S
C3872 C3868 1.385 . S
C3872 C3871 1.374 . S
C3873 C3870 1.499 . S
C3873 C3874 1.373 . S
C3873 C3875 1.389 . S
C3874 H3847 0.950 . S
C3874 C3860 1.377 . S
C3874 C3873 1.373 . S
C3875 C3859 1.377 . S
C3875 C3873 1.389 . S
C3875 C3876 1.524 . S
C3876 C3875 1.524 . S
C3876 C3877 1.397 . S
C3876 C3881 1.363 . S
C3877 H3848 0.950 . S
C3877 C3876 1.397 . S
C3877 C3878 1.334 . S
C3878 H3849 0.950 . S
C3878 C3877 1.334 . S
C3878 C3879 1.287 . S
C3879 C3878 1.287 . S
C3879 C3880 1.524 . S
C3879 H3882 0.999 . S
C3880 H3850 0.950 . S
C3880 C3879 1.524 . S
C3880 C3881 1.415 . S
C3881 H3851 0.950 . S
C3881 C3876 1.363 . S
C3881 C3880 1.415 . S
H3882 C3879 0.999 . S
H3883 C3864 0.913 . S
H3884 C3902 0.951 . S
H3885 C3904 0.951 . S
H3886 C3906 0.950 . S
H3887 C3907 0.950 . S
H3888 C3909 0.950 . S
H3889 C3912 0.950 . S
H3890 C3913 0.950 . S
H3891 C3915 0.950 . S
H3892 C3916 0.950 . S
H3893 C3917 0.951 . S
H3894 C3919 0.951 . S
H3895 C3921 0.950 . S
H3896 C3922 0.950 . S
H3897 C3924 0.950 . S
H3898 C3927 0.950 . S
H3899 C3928 0.950 . S
H3900 C3930 0.950 . S
H3901 C3931 0.950 . S
C3902 H3884 0.951 . S
C3902 C3903 1.366 . S
C3902 C3904 1.388 . S
C3903 C3902 1.366 . S
C3903 C3907 1.385 . S
C3904 H3885 0.951 . S
C3904 C3902 1.388 . S
C3904 C3905 1.366 . S
C3905 C3904 1.366 . S
C3905 C3906 1.414 . S
C3905 C3908 1.499 . S
C3906 H3886 0.950 . S
C3906 C3905 1.414 . S
C3906 C3907 1.374 . S
C3907 H3887 0.950 . S
C3907 C3903 1.385 . S
C3907 C3906 1.374 . S
C3908 C3905 1.499 . S
C3908 C3909 1.373 . S
C3908 C3910 1.389 . S
C3909 H3888 0.950 . S
C3909 C3908 1.373 . S
C3909 C3925 1.377 . S
C3910 C3908 1.389 . S
C3910 C3911 1.524 . S
C3910 C3924 1.377 . S
C3911 C3910 1.524 . S
C3911 C3912 1.397 . S
C3911 C3916 1.363 . S
C3912 H3889 0.950 . S
C3912 C3911 1.397 . S
C3912 C3913 1.334 . S
C3913 H3890 0.950 . S
C3913 C3912 1.334 . S
C3913 C3914 1.287 . S
C3914 C3913 1.287 . S
C3914 C3915 1.524 . S
C3914 H3933 0.913 . S
C3915 H3891 0.950 . S
C3915 C3914 1.524 . S
C3915 C3916 1.415 . S
C3916 H3892 0.950 . S
C3916 C3911 1.363 . S
C3916 C3915 1.415 . S
C3917 H3893 0.951 . S
C3917 C3918 1.366 . S
C3917 C3919 1.388 . S
C3918 C3917 1.366 . S
C3918 C3922 1.385 . S
C3919 H3894 0.951 . S
C3919 C3917 1.388 . S
C3919 C3920 1.366 . S
C3920 C3919 1.366 . S
C3920 C3921 1.414 . S
C3920 C3923 1.499 . S
C3921 H3895 0.950 . S
C3921 C3920 1.414 . S
C3921 C3922 1.374 . S
C3922 H3896 0.950 . S
C3922 C3918 1.385 . S
C3922 C3921 1.374 . S
C3923 C3920 1.499 . S
C3923 C3924 1.373 . S
C3923 C3925 1.389 . S
C3924 H3897 0.950 . S
C3924 C3910 1.377 . S
C3924 C3923 1.373 . S
C3925 C3909 1.377 . S
C3925 C3923 1.389 . S
C3925 C3926 1.524 . S
C3926 C3925 1.524 . S
C3926 C3927 1.397 . S
C3926 C3931 1.363 . S
C3927 H3898 0.950 . S
C3927 C3926 1.397 . S
C3927 C3928 1.334 . S
C3928 H3899 0.950 . S
C3928 C3927 1.334 . S
C3928 C3929 1.287 . S
C3929 C3928 1.287 . S
C3929 C3930 1.524 . S
C3929 H3932 0.999 . S
C3930 H3900 0.950 . S
C3930 C3929 1.524 . S
C3930 C3931 1.415 . S
C3931 H3901 0.950 . S
C3931 C3926 1.363 . S
C3931 C3930 1.415 . S
H3932 C3929 0.999 . S
H3933 C3914 0.913 . S
H3934 C3952 0.951 . S
H3935 C3954 0.951 . S
H3936 C3956 0.950 . S
H3937 C3957 0.950 . S
H3938 C3959 0.950 . S
H3939 C3962 0.950 . S
H3940 C3963 0.950 . S
H3941 C3965 0.950 . S
H3942 C3966 0.950 . S
H3943 C3967 0.951 . S
H3944 C3969 0.951 . S
H3945 C3971 0.950 . S
H3946 C3972 0.950 . S
H3947 C3974 0.950 . S
H3948 C3977 0.950 . S
H3949 C3978 0.950 . S
H3950 C3980 0.950 . S
H3951 C3981 0.950 . S
C3952 H3934 0.951 . S
C3952 C3953 1.366 . S
C3952 C3954 1.388 . S
C3953 C3952 1.366 . S
C3953 C3957 1.385 . S
C3954 H3935 0.951 . S
C3954 C3952 1.388 . S
C3954 C3955 1.366 . S
C3955 C3954 1.366 . S
C3955 C3956 1.414 . S
C3955 C3958 1.499 . S
C3956 H3936 0.950 . S
C3956 C3955 1.414 . S
C3956 C3957 1.374 . S
C3957 H3937 0.950 . S
C3957 C3953 1.385 . S
C3957 C3956 1.374 . S
C3958 C3955 1.499 . S
C3958 C3959 1.373 . S
C3958 C3960 1.389 . S
C3959 H3938 0.950 . S
C3959 C3958 1.373 . S
C3959 C3975 1.377 . S
C3960 C3958 1.389 . S
C3960 C3961 1.524 . S
C3960 C3974 1.377 . S
C3961 C3960 1.524 . S
C3961 C3962 1.397 . S
C3961 C3966 1.363 . S
C3962 H3939 0.950 . S
C3962 C3961 1.397 . S
C3962 C3963 1.334 . S
C3963 H3940 0.950 . S
C3963 C3962 1.334 . S
C3963 C3964 1.287 . S
C3964 C3963 1.287 . S
C3964 C3965 1.524 . S
C3964 H3983 0.913 . S
C3965 H3941 0.950 . S
C3965 C3964 1.524 . S
C3965 C3966 1.415 . S
C3966 H3942 0.950 . S
C3966 C3961 1.363 . S
C3966 C3965 1.415 . S
C3967 H3943 0.951 . S
C3967 C3968 1.366 . S
C3967 C3969 1.388 . S
C3968 C3967 1.366 . S
C3968 C3972 1.385 . S
C3969 H3944 0.951 . S
C3969 C3967 1.388 . S
C3969 C3970 1.366 . S
C3970 C3969 1.366 . S
C3970 C3971 1.414 . S
C3970 C3973 1.499 . S
C3971 H3945 0.950 . S
C3971 C3970 1.414 . S
C3971 C3972 1.374 . S
C3972 H3946 0.950 . S
C3972 C3968 1.385 . S
C3972 C3971 1.374 . S
C3973 C3970 1.499 . S
C3973 C3974 1.373 . S
C3973 C3975 1.389 . S
C3974 H3947 0.950 . S
C3974 C3960 1.377 . S
C3974 C3973 1.373 . S
C3975 C3959 1.377 . S
C3975 C3973 1.389 . S
C3975 C3976 1.524 . S
C3976 C3975 1.524 . S
C3976 C3977 1.397 . S
C3976 C3981 1.363 . S
C3977 H3948 0.950 . S
C3977 C3976 1.397 . S
C3977 C3978 1.334 . S
C3978 H3949 0.950 . S
C3978 C3977 1.334 . S
C3978 C3979 1.287 . S
C3979 C3978 1.287 . S
C3979 C3980 1.524 . S
C3979 H3982 0.999 . S
C3980 H3950 0.950 . S
C3980 C3979 1.524 . S
C3980 C3981 1.415 . S
C3981 H3951 0.950 . S
C3981 C3976 1.363 . S
C3981 C3980 1.415 . S
H3982 C3979 0.999 . S
H3983 C3964 0.913 . S
H3984 C4002 0.951 . S
H3985 C4004 0.951 . S
H3986 C4006 0.950 . S
H3987 C4007 0.950 . S
H3988 C4009 0.950 . S
H3989 C4012 0.950 . S
H3990 C4013 0.950 . S
H3991 C4015 0.950 . S
H3992 C4016 0.950 . S
H3993 C4017 0.951 . S
H3994 C4019 0.951 . S
H3995 C4021 0.950 . S
H3996 C4022 0.950 . S
H3997 C4024 0.950 . S
H3998 C4027 0.950 . S
H3999 C4028 0.950 . S
H4000 C4030 0.950 . S
H4001 C4031 0.950 . S
C4002 H3984 0.951 . S
C4002 C4003 1.366 . S
C4002 C4004 1.388 . S
C4003 C4002 1.366 . S
C4003 C4007 1.385 . S
C4004 H3985 0.951 . S
C4004 C4002 1.388 . S
C4004 C4005 1.366 . S
C4005 C4004 1.366 . S
C4005 C4006 1.414 . S
C4005 C4008 1.499 . S
C4006 H3986 0.950 . S
C4006 C4005 1.414 . S
C4006 C4007 1.374 . S
C4007 H3987 0.950 . S
C4007 C4003 1.385 . S
C4007 C4006 1.374 . S
C4008 C4005 1.499 . S
C4008 C4009 1.373 . S
C4008 C4010 1.389 . S
C4009 H3988 0.950 . S
C4009 C4008 1.373 . S
C4009 C4025 1.377 . S
C4010 C4008 1.389 . S
C4010 C4011 1.524 . S
C4010 C4024 1.377 . S
C4011 C4010 1.524 . S
C4011 C4012 1.397 . S
C4011 C4016 1.363 . S
C4012 H3989 0.950 . S
C4012 C4011 1.397 . S
C4012 C4013 1.334 . S
C4013 H3990 0.950 . S
C4013 C4012 1.334 . S
C4013 C4014 1.287 . S
C4014 C4013 1.287 . S
C4014 C4015 1.524 . S
C4014 H4033 0.913 . S
C4015 H3991 0.950 . S
C4015 C4014 1.524 . S
C4015 C4016 1.415 . S
C4016 H3992 0.950 . S
C4016 C4011 1.363 . S
C4016 C4015 1.415 . S
C4017 H3993 0.951 . S
C4017 C4018 1.366 . S
C4017 C4019 1.388 . S
C4018 C4017 1.366 . S
C4018 C4022 1.385 . S
C4019 H3994 0.951 . S
C4019 C4017 1.388 . S
C4019 C4020 1.366 . S
C4020 C4019 1.366 . S
C4020 C4021 1.414 . S
C4020 C4023 1.499 . S
C4021 H3995 0.950 . S
C4021 C4020 1.414 . S
C4021 C4022 1.374 . S
C4022 H3996 0.950 . S
C4022 C4018 1.385 . S
C4022 C4021 1.374 . S
C4023 C4020 1.499 . S
C4023 C4024 1.373 . S
C4023 C4025 1.389 . S
C4024 H3997 0.950 . S
C4024 C4010 1.377 . S
C4024 C4023 1.373 . S
C4025 C4009 1.377 . S
C4025 C4023 1.389 . S
C4025 C4026 1.524 . S
C4026 C4025 1.524 . S
C4026 C4027 1.397 . S
C4026 C4031 1.363 . S
C4027 H3998 0.950 . S
C4027 C4026 1.397 . S
C4027 C4028 1.334 . S
C4028 H3999 0.950 . S
C4028 C4027 1.334 . S
C4028 C4029 1.287 . S
C4029 C4028 1.287 . S
C4029 C4030 1.524 . S
C4029 H4032 0.999 . S
C4030 H4000 0.950 . S
C4030 C4029 1.524 . S
C4030 C4031 1.415 . S
C4031 H4001 0.950 . S
C4031 C4026 1.363 . S
C4031 C4030 1.415 . S
H4032 C4029 0.999 . S
H4033 C4014 0.913 . S
H4034 C4052 0.951 . S
H4035 C4054 0.951 . S
H4036 C4056 0.950 . S
H4037 C4057 0.950 . S
H4038 C4059 0.950 . S
H4039 C4062 0.950 . S
H4040 C4063 0.950 . S
H4041 C4065 0.950 . S
H4042 C4066 0.950 . S
H4043 C4067 0.951 . S
H4044 C4069 0.951 . S
H4045 C4071 0.950 . S
H4046 C4072 0.950 . S
H4047 C4074 0.950 . S
H4048 C4077 0.950 . S
H4049 C4078 0.950 . S
H4050 C4080 0.950 . S
H4051 C4081 0.950 . S
C4052 H4034 0.951 . S
C4052 C4053 1.366 . S
C4052 C4054 1.388 . S
C4053 C4052 1.366 . S
C4053 C4057 1.385 . S
C4054 H4035 0.951 . S
C4054 C4052 1.388 . S
C4054 C4055 1.366 . S
C4055 C4054 1.366 . S
C4055 C4056 1.414 . S
C4055 C4058 1.499 . S
C4056 H4036 0.950 . S
C4056 C4055 1.414 . S
C4056 C4057 1.374 . S
C4057 H4037 0.950 . S
C4057 C4053 1.385 . S
C4057 C4056 1.374 . S
C4058 C4055 1.499 . S
C4058 C4059 1.373 . S
C4058 C4060 1.389 . S
C4059 H4038 0.950 . S
C4059 C4058 1.373 . S
C4059 C4075 1.377 . S
C4060 C4058 1.389 . S
C4060 C4061 1.524 . S
C4060 C4074 1.377 . S
C4061 C4060 1.524 . S
C4061 C4062 1.397 . S
C4061 C4066 1.363 . S
C4062 H4039 0.950 . S
C4062 C4061 1.397 . S
C4062 C4063 1.334 . S
C4063 H4040 0.950 . S
C4063 C4062 1.334 . S
C4063 C4064 1.287 . S
C4064 C4063 1.287 . S
C4064 C4065 1.524 . S
C4064 H4083 0.913 . S
C4065 H4041 0.950 . S
C4065 C4064 1.524 . S
C4065 C4066 1.415 . S
C4066 H4042 0.950 . S
C4066 C4061 1.363 . S
C4066 C4065 1.415 . S
C4067 H4043 0.951 . S
C4067 C4068 1.366 . S
C4067 C4069 1.388 . S
C4068 C4067 1.366 . S
C4068 C4072 1.385 . S
C4069 H4044 0.951 . S
C4069 C4067 1.388 . S
C4069 C4070 1.366 . S
C4070 C4069 1.366 . S
C4070 C4071 1.414 . S
C4070 C4073 1.499 . S
C4071 H4045 0.950 . S
C4071 C4070 1.414 . S
C4071 C4072 1.374 . S
C4072 H4046 0.950 . S
C4072 C4068 1.385 . S
C4072 C4071 1.374 . S
C4073 C4070 1.499 . S
C4073 C4074 1.373 . S
C4073 C4075 1.389 . S
C4074 H4047 0.950 . S
C4074 C4060 1.377 . S
C4074 C4073 1.373 . S
C4075 C4059 1.377 . S
C4075 C4073 1.389 . S
C4075 C4076 1.524 . S
C4076 C4075 1.524 . S
C4076 C4077 1.397 . S
C4076 C4081 1.363 . S
C4077 H4048 0.950 . S
C4077 C4076 1.397 . S
C4077 C4078 1.334 . S
C4078 H4049 0.950 . S
C4078 C4077 1.334 . S
C4078 C4079 1.287 . S
C4079 C4078 1.287 . S
C4079 C4080 1.524 . S
C4079 H4082 0.999 . S
C4080 H4050 0.950 . S
C4080 C4079 1.524 . S
C4080 C4081 1.415 . S
C4081 H4051 0.950 . S
C4081 C4076 1.363 . S
C4081 C4080 1.415 . S
H4082 C4079 0.999 . S
H4083 C4064 0.913 . S
H4084 C4102 0.951 . S
H4085 C4104 0.951 . S
H4086 C4106 0.950 . S
H4087 C4107 0.950 . S
H4088 C4109 0.950 . S
H4089 C4112 0.950 . S
H4090 C4113 0.950 . S
H4091 C4115 0.950 . S
H4092 C4116 0.950 . S
H4093 C4117 0.951 . S
H4094 C4119 0.951 . S
H4095 C4121 0.950 . S
H4096 C4122 0.950 . S
H4097 C4124 0.950 . S
H4098 C4127 0.950 . S
H4099 C4128 0.950 . S
H4100 C4130 0.950 . S
H4101 C4131 0.950 . S
C4102 H4084 0.951 . S
C4102 C4103 1.366 . S
C4102 C4104 1.388 . S
C4103 C4102 1.366 . S
C4103 C4107 1.385 . S
C4104 H4085 0.951 . S
C4104 C4102 1.388 . S
C4104 C4105 1.366 . S
C4105 C4104 1.366 . S
C4105 C4106 1.414 . S
C4105 C4108 1.499 . S
C4106 H4086 0.950 . S
C4106 C4105 1.414 . S
C4106 C4107 1.374 . S
C4107 H4087 0.950 . S
C4107 C4103 1.385 . S
C4107 C4106 1.374 . S
C4108 C4105 1.499 . S
C4108 C4109 1.373 . S
C4108 C4110 1.389 . S
C4109 H4088 0.950 . S
C4109 C4108 1.373 . S
C4109 C4125 1.377 . S
C4110 C4108 1.389 . S
C4110 C4111 1.524 . S
C4110 C4124 1.377 . S
C4111 C4110 1.524 . S
C4111 C4112 1.397 . S
C4111 C4116 1.363 . S
C4112 H4089 0.950 . S
C4112 C4111 1.397 . S
C4112 C4113 1.334 . S
C4113 H4090 0.950 . S
C4113 C4112 1.334 . S
C4113 C4114 1.287 . S
C4114 C4113 1.287 . S
C4114 C4115 1.524 . S
C4114 H4133 0.913 . S
C4115 H4091 0.950 . S
C4115 C4114 1.524 . S
C4115 C4116 1.415 . S
C4116 H4092 0.950 . S
C4116 C4111 1.363 . S
C4116 C4115 1.415 . S
C4117 H4093 0.951 . S
C4117 C4118 1.366 . S
C4117 C4119 1.388 . S
C4118 C4117 1.366 . S
C4118 C4122 1.385 . S
C4119 H4094 0.951 . S
C4119 C4117 1.388 . S
C4119 C4120 1.366 . S
C4120 C4119 1.366 . S
C4120 C4121 1.414 . S
C4120 C4123 1.499 . S
C4121 H4095 0.950 . S
C4121 C4120 1.414 . S
C4121 C4122 1.374 . S
C4122 H4096 0.950 . S
C4122 C4118 1.385 . S
C4122 C4121 1.374 . S
C4123 C4120 1.499 . S
C4123 C4124 1.373 . S
C4123 C4125 1.389 . S
C4124 H4097 0.950 . S
C4124 C4110 1.377 . S
C4124 C4123 1.373 . S
C4125 C4109 1.377 . S
C4125 C4123 1.389 . S
C4125 C4126 1.524 . S
C4126 C4125 1.524 . S
C4126 C4127 1.397 . S
C4126 C4131 1.363 . S
C4127 H4098 0.950 . S
C4127 C4126 1.397 . S
C4127 C4128 1.334 . S
C4128 H4099 0.950 . S
C4128 C4127 1.334 . S
C4128 C4129 1.287 . S
C4129 C4128 1.287 . S
C4129 C4130 1.524 . S
C4129 H4132 0.999 . S
C4130 H4100 0.950 . S
C4130 C4129 1.524 . S
C4130 C4131 1.415 . S
C4131 H4101 0.950 . S
C4131 C4126 1.363 . S
C4131 C4130 1.415 . S
H4132 C4129 0.999 . S
H4133 C4114 0.913 . S
H4134 C4152 0.951 . S
H4135 C4154 0.951 . S
H4136 C4156 0.950 . S
H4137 C4157 0.950 . S
H4138 C4159 0.950 . S
H4139 C4162 0.950 . S
H4140 C4163 0.950 . S
H4141 C4165 0.950 . S
H4142 C4166 0.950 . S
H4143 C4167 0.951 . S
H4144 C4169 0.951 . S
H4145 C4171 0.950 . S
H4146 C4172 0.950 . S
H4147 C4174 0.950 . S
H4148 C4177 0.950 . S
H4149 C4178 0.950 . S
H4150 C4180 0.950 . S
H4151 C4181 0.950 . S
C4152 H4134 0.951 . S
C4152 C4153 1.366 . S
C4152 C4154 1.388 . S
C4153 C4152 1.366 . S
C4153 C4157 1.385 . S
C4154 H4135 0.951 . S
C4154 C4152 1.388 . S
C4154 C4155 1.366 . S
C4155 C4154 1.366 . S
C4155 C4156 1.414 . S
C4155 C4158 1.499 . S
C4156 H4136 0.950 . S
C4156 C4155 1.414 . S
C4156 C4157 1.374 . S
C4157 H4137 0.950 . S
C4157 C4153 1.385 . S
C4157 C4156 1.374 . S
C4158 C4155 1.499 . S
C4158 C4159 1.373 . S
C4158 C4160 1.389 . S
C4159 H4138 0.950 . S
C4159 C4158 1.373 . S
C4159 C4175 1.377 . S
C4160 C4158 1.389 . S
C4160 C4161 1.524 . S
C4160 C4174 1.377 . S
C4161 C4160 1.524 . S
C4161 C4162 1.397 . S
C4161 C4166 1.363 . S
C4162 H4139 0.950 . S
C4162 C4161 1.397 . S
C4162 C4163 1.334 . S
C4163 H4140 0.950 . S
C4163 C4162 1.334 . S
C4163 C4164 1.287 . S
C4164 C4163 1.287 . S
C4164 C4165 1.524 . S
C4164 H4183 0.913 . S
C4165 H4141 0.950 . S
C4165 C4164 1.524 . S
C4165 C4166 1.415 . S
C4166 H4142 0.950 . S
C4166 C4161 1.363 . S
C4166 C4165 1.415 . S
C4167 H4143 0.951 . S
C4167 C4168 1.366 . S
C4167 C4169 1.388 . S
C4168 C4167 1.366 . S
C4168 C4172 1.385 . S
C4169 H4144 0.951 . S
C4169 C4167 1.388 . S
C4169 C4170 1.366 . S
C4170 C4169 1.366 . S
C4170 C4171 1.414 . S
C4170 C4173 1.499 . S
C4171 H4145 0.950 . S
C4171 C4170 1.414 . S
C4171 C4172 1.374 . S
C4172 H4146 0.950 . S
C4172 C4168 1.385 . S
C4172 C4171 1.374 . S
C4173 C4170 1.499 . S
C4173 C4174 1.373 . S
C4173 C4175 1.389 . S
C4174 H4147 0.950 . S
C4174 C4160 1.377 . S
C4174 C4173 1.373 . S
C4175 C4159 1.377 . S
C4175 C4173 1.389 . S
C4175 C4176 1.524 . S
C4176 C4175 1.524 . S
C4176 C4177 1.397 . S
C4176 C4181 1.363 . S
C4177 H4148 0.950 . S
C4177 C4176 1.397 . S
C4177 C4178 1.334 . S
C4178 H4149 0.950 . S
C4178 C4177 1.334 . S
C4178 C4179 1.287 . S
C4179 C4178 1.287 . S
C4179 C4180 1.524 . S
C4179 H4182 0.999 . S
C4180 H4150 0.950 . S
C4180 C4179 1.524 . S
C4180 C4181 1.415 . S
C4181 H4151 0.950 . S
C4181 C4176 1.363 . S
C4181 C4180 1.415 . S
H4182 C4179 0.999 . S
H4183 C4164 0.913 . S
H4184 C4202 0.951 . S
H4185 C4204 0.951 . S
H4186 C4206 0.950 . S
H4187 C4207 0.950 . S
H4188 C4209 0.950 . S
H4189 C4212 0.950 . S
H4190 C4213 0.950 . S
H4191 C4215 0.950 . S
H4192 C4216 0.950 . S
H4193 C4217 0.951 . S
H4194 C4219 0.951 . S
H4195 C4221 0.950 . S
H4196 C4222 0.950 . S
H4197 C4224 0.950 . S
H4198 C4227 0.950 . S
H4199 C4228 0.950 . S
H4200 C4230 0.950 . S
H4201 C4231 0.950 . S
C4202 H4184 0.951 . S
C4202 C4203 1.366 . S
C4202 C4204 1.388 . S
C4203 C4202 1.366 . S
C4203 C4207 1.385 . S
C4204 H4185 0.951 . S
C4204 C4202 1.388 . S
C4204 C4205 1.366 . S
C4205 C4204 1.366 . S
C4205 C4206 1.414 . S
C4205 C4208 1.499 . S
C4206 H4186 0.950 . S
C4206 C4205 1.414 . S
C4206 C4207 1.374 . S
C4207 H4187 0.950 . S
C4207 C4203 1.385 . S
C4207 C4206 1.374 . S
C4208 C4205 1.499 . S
C4208 C4209 1.373 . S
C4208 C4210 1.389 . S
C4209 H4188 0.950 . S
C4209 C4208 1.373 . S
C4209 C4225 1.377 . S
C4210 C4208 1.389 . S
C4210 C4211 1.524 . S
C4210 C4224 1.377 . S
C4211 C4210 1.524 . S
C4211 C4212 1.397 . S
C4211 C4216 1.363 . S
C4212 H4189 0.950 . S
C4212 C4211 1.397 . S
C4212 C4213 1.334 . S
C4213 H4190 0.950 . S
C4213 C4212 1.334 . S
C4213 C4214 1.287 . S
C4214 C4213 1.287 . S
C4214 C4215 1.524 . S
C4214 H4233 0.913 . S
C4215 H4191 0.950 . S
C4215 C4214 1.524 . S
C4215 C4216 1.415 . S
C4216 H4192 0.950 . S
C4216 C4211 1.363 . S
C4216 C4215 1.415 . S
C4217 H4193 0.951 . S
C4217 C4218 1.366 . S
C4217 C4219 1.388 . S
C4218 C4217 1.366 . S
C4218 C4222 1.385 . S
C4219 H4194 0.951 . S
C4219 C4217 1.388 . S
C4219 C4220 1.366 . S
C4220 C4219 1.366 . S
C4220 C4221 1.414 . S
C4220 C4223 1.499 . S
C4221 H4195 0.950 . S
C4221 C4220 1.414 . S
C4221 C4222 1.374 . S
C4222 H4196 0.950 . S
C4222 C4218 1.385 . S
C4222 C4221 1.374 . S
C4223 C4220 1.499 . S
C4223 C4224 1.373 . S
C4223 C4225 1.389 . S
C4224 H4197 0.950 . S
C4224 C4210 1.377 . S
C4224 C4223 1.373 . S
C4225 C4209 1.377 . S
C4225 C4223 1.389 . S
C4225 C4226 1.524 . S
C4226 C4225 1.524 . S
C4226 C4227 1.397 . S
C4226 C4231 1.363 . S
C4227 H4198 0.950 . S
C4227 C4226 1.397 . S
C4227 C4228 1.334 . S
C4228 H4199 0.950 . S
C4228 C4227 1.334 . S
C4228 C4229 1.287 . S
C4229 C4228 1.287 . S
C4229 C4230 1.524 . S
C4229 H4232 0.999 . S
C4230 H4200 0.950 . S
C4230 C4229 1.524 . S
C4230 C4231 1.415 . S
C4231 H4201 0.950 . S
C4231 C4226 1.363 . S
C4231 C4230 1.415 . S
H4232 C4229 0.999 . S
H4233 C4214 0.913 . S
H4234 C4252 0.951 . S
H4235 C4254 0.951 . S
H4236 C4256 0.950 . S
H4237 C4257 0.950 . S
H4238 C4259 0.950 . S
H4239 C4262 0.950 . S
H4240 C4263 0.950 . S
H4241 C4265 0.950 . S
H4242 C4266 0.950 . S
H4243 C4267 0.951 . S
H4244 C4269 0.951 . S
H4245 C4271 0.950 . S
H4246 C4272 0.950 . S
H4247 C4274 0.950 . S
H4248 C4277 0.950 . S
H4249 C4278 0.950 . S
H4250 C4280 0.950 . S
H4251 C4281 0.950 . S
C4252 H4234 0.951 . S
C4252 C4253 1.366 . S
C4252 C4254 1.388 . S
C4253 C4252 1.366 . S
C4253 C4257 1.385 . S
C4254 H4235 0.951 . S
C4254 C4252 1.388 . S
C4254 C4255 1.366 . S
C4255 C4254 1.366 . S
C4255 C4256 1.414 . S
C4255 C4258 1.499 . S
C4256 H4236 0.950 . S
C4256 C4255 1.414 . S
C4256 C4257 1.374 . S
C4257 H4237 0.950 . S
C4257 C4253 1.385 . S
C4257 C4256 1.374 . S
C4258 C4255 1.499 . S
C4258 C4259 1.373 . S
C4258 C4260 1.389 . S
C4259 H4238 0.950 . S
C4259 C4258 1.373 . S
C4259 C4275 1.377 . S
C4260 C4258 1.389 . S
C4260 C4261 1.524 . S
C4260 C4274 1.377 . S
C4261 C4260 1.524 . S
C4261 C4262 1.397 . S
C4261 C4266 1.363 . S
C4262 H4239 0.950 . S
C4262 C4261 1.397 . S
C4262 C4263 1.334 . S
C4263 H4240 0.950 . S
C4263 C4262 1.334 . S
C4263 C4264 1.287 . S
C4264 C4263 1.287 . S
C4264 C4265 1.524 . S
C4264 H4283 0.913 . S
C4265 H4241 0.950 . S
C4265 C4264 1.524 . S
C4265 C4266 1.415 . S
C4266 H4242 0.950 . S
C4266 C4261 1.363 . S
C4266 C4265 1.415 . S
C4267 H4243 0.951 . S
C4267 C4268 1.366 . S
C4267 C4269 1.388 . S
C4268 C4267 1.366 . S
C4268 C4272 1.385 . S
C4269 H4244 0.951 . S
C4269 C4267 1.388 . S
C4269 C4270 1.366 . S
C4270 C4269 1.366 . S
C4270 C4271 1.414 . S
C4270 C4273 1.499 . S
C4271 H4245 0.950 . S
C4271 C4270 1.414 . S
C4271 C4272 1.374 . S
C4272 H4246 0.950 . S
C4272 C4268 1.385 . S
C4272 C4271 1.374 . S
C4273 C4270 1.499 . S
C4273 C4274 1.373 . S
C4273 C4275 1.389 . S
C4274 H4247 0.950 . S
C4274 C4260 1.377 . S
C4274 C4273 1.373 . S
C4275 C4259 1.377 . S
C4275 C4273 1.389 . S
C4275 C4276 1.524 . S
C4276 C4275 1.524 . S
C4276 C4277 1.397 . S
C4276 C4281 1.363 . S
C4277 H4248 0.950 . S
C4277 C4276 1.397 . S
C4277 C4278 1.334 . S
C4278 H4249 0.950 . S
C4278 C4277 1.334 . S
C4278 C4279 1.287 . S
C4279 C4278 1.287 . S
C4279 C4280 1.524 . S
C4279 H4282 0.999 . S
C4280 H4250 0.950 . S
C4280 C4279 1.524 . S
C4280 C4281 1.415 . S
C4281 H4251 0.950 . S
C4281 C4276 1.363 . S
C4281 C4280 1.415 . S
H4282 C4279 0.999 . S
H4283 C4264 0.913 . S
H4284 C4302 0.951 . S
H4285 C4304 0.951 . S
H4286 C4306 0.950 . S
H4287 C4307 0.950 . S
H4288 C4309 0.950 . S
H4289 C4312 0.950 . S
H4290 C4313 0.950 . S
H4291 C4315 0.950 . S
H4292 C4316 0.950 . S
H4293 C4317 0.951 . S
H4294 C4319 0.951 . S
H4295 C4321 0.950 . S
H4296 C4322 0.950 . S
H4297 C4324 0.950 . S
H4298 C4327 0.950 . S
H4299 C4328 0.950 . S
H4300 C4330 0.950 . S
H4301 C4331 0.950 . S
C4302 H4284 0.951 . S
C4302 C4303 1.366 . S
C4302 C4304 1.388 . S
C4303 C4302 1.366 . S
C4303 C4307 1.385 . S
C4304 H4285 0.951 . S
C4304 C4302 1.388 . S
C4304 C4305 1.366 . S
C4305 C4304 1.366 . S
C4305 C4306 1.414 . S
C4305 C4308 1.499 . S
C4306 H4286 0.950 . S
C4306 C4305 1.414 . S
C4306 C4307 1.374 . S
C4307 H4287 0.950 . S
C4307 C4303 1.385 . S
C4307 C4306 1.374 . S
C4308 C4305 1.499 . S
C4308 C4309 1.373 . S
C4308 C4310 1.389 . S
C4309 H4288 0.950 . S
C4309 C4308 1.373 . S
C4309 C4325 1.377 . S
C4310 C4308 1.389 . S
C4310 C4311 1.524 . S
C4310 C4324 1.377 . S
C4311 C4310 1.524 . S
C4311 C4312 1.397 . S
C4311 C4316 1.363 . S
C4312 H4289 0.950 . S
C4312 C4311 1.397 . S
C4312 C4313 1.334 . S
C4313 H4290 0.950 . S
C4313 C4312 1.334 . S
C4313 C4314 1.287 . S
C4314 C4313 1.287 . S
C4314 C4315 1.524 . S
C4314 H4333 0.913 . S
C4315 H4291 0.950 . S
C4315 C4314 1.524 . S
C4315 C4316 1.415 . S
C4316 H4292 0.950 . S
C4316 C4311 1.363 . S
C4316 C4315 1.415 . S
C4317 H4293 0.951 . S
C4317 C4318 1.366 . S
C4317 C4319 1.388 . S
C4318 C4317 1.366 . S
C4318 C4322 1.385 . S
C4319 H4294 0.951 . S
C4319 C4317 1.388 . S
C4319 C4320 1.366 . S
C4320 C4319 1.366 . S
C4320 C4321 1.414 . S
C4320 C4323 1.499 . S
C4321 H4295 0.950 . S
C4321 C4320 1.414 . S
C4321 C4322 1.374 . S
C4322 H4296 0.950 . S
C4322 C4318 1.385 . S
C4322 C4321 1.374 . S
C4323 C4320 1.499 . S
C4323 C4324 1.373 . S
C4323 C4325 1.389 . S
C4324 H4297 0.950 . S
C4324 C4310 1.377 . S
C4324 C4323 1.373 . S
C4325 C4309 1.377 . S
C4325 C4323 1.389 . S
C4325 C4326 1.524 . S
C4326 C4325 1.524 . S
C4326 C4327 1.397 . S
C4326 C4331 1.363 . S
C4327 H4298 0.950 . S
C4327 C4326 1.397 . S
C4327 C4328 1.334 . S
C4328 H4299 0.950 . S
C4328 C4327 1.334 . S
C4328 C4329 1.287 . S
C4329 C4328 1.287 . S
C4329 C4330 1.524 . S
C4329 H4332 0.999 . S
C4330 H4300 0.950 . S
C4330 C4329 1.524 . S
C4330 C4331 1.415 . S
C4331 H4301 0.950 . S
C4331 C4326 1.363 . S
C4331 C4330 1.415 . S
H4332 C4329 0.999 . S
H4333 C4314 0.913 . S
H4334 C4352 0.951 . S
H4335 C4354 0.951 . S
H4336 C4356 0.950 . S
H4337 C4357 0.950 . S
H4338 C4359 0.950 . S
H4339 C4362 0.950 . S
H4340 C4363 0.950 . S
H4341 C4365 0.950 . S
H4342 C4366 0.950 . S
H4343 C4367 0.951 . S
H4344 C4369 0.951 . S
H4345 C4371 0.950 . S
H4346 C4372 0.950 . S
H4347 C4374 0.950 . S
H4348 C4377 0.950 . S
H4349 C4378 0.950 . S
H4350 C4380 0.950 . S
H4351 C4381 0.950 . S
C4352 H4334 0.951 . S
C4352 C4353 1.366 . S
C4352 C4354 1.388 . S
C4353 C4352 1.366 . S
C4353 C4357 1.385 . S
C4354 H4335 0.951 . S
C4354 C4352 1.388 . S
C4354 C4355 1.366 . S
C4355 C4354 1.366 . S
C4355 C4356 1.414 . S
C4355 C4358 1.499 . S
C4356 H4336 0.950 . S
C4356 C4355 1.414 . S
C4356 C4357 1.374 . S
C4357 H4337 0.950 . S
C4357 C4353 1.385 . S
C4357 C4356 1.374 . S
C4358 C4355 1.499 . S
C4358 C4359 1.373 . S
C4358 C4360 1.389 . S
C4359 H4338 0.950 . S
C4359 C4358 1.373 . S
C4359 C4375 1.377 . S
C4360 C4358 1.389 . S
C4360 C4361 1.524 . S
C4360 C4374 1.377 . S
C4361 C4360 1.524 . S
C4361 C4362 1.397 . S
C4361 C4366 1.363 . S
C4362 H4339 0.950 . S
C4362 C4361 1.397 . S
C4362 C4363 1.334 . S
C4363 H4340 0.950 . S
C4363 C4362 1.334 . S
C4363 C4364 1.287 . S
C4364 C4363 1.287 . S
C4364 C4365 1.524 . S
C4364 H4383 0.913 . S
C4365 H4341 0.950 . S
C4365 C4364 1.524 . S
C4365 C4366 1.415 . S
C4366 H4342 0.950 . S
C4366 C4361 1.363 . S
C4366 C4365 1.415 . S
C4367 H4343 0.951 . S
C4367 C4368 1.366 . S
C4367 C4369 1.388 . S
C4368 C4367 1.366 . S
C4368 C4372 1.385 . S
C4369 H4344 0.951 . S
C4369 C4367 1.388 . S
C4369 C4370 1.366 . S
C4370 C4369 1.366 . S
C4370 C4371 1.414 . S
C4370 C4373 1.499 . S
C4371 H4345 0.950 . S
C4371 C4370 1.414 . S
C4371 C4372 1.374 . S
C4372 H4346 0.950 . S
C4372 C4368 1.385 . S
C4372 C4371 1.374 . S
C4373 C4370 1.499 . S
C4373 C4374 1.373 . S
C4373 C4375 1.389 . S
C4374 H4347 0.950 . S
C4374 C4360 1.377 . S
C4374 C4373 1.373 . S
C4375 C4359 1.377 . S
C4375 C4373 1.389 . S
C4375 C4376 1.524 . S
C4376 C4375 1.524 . S
C4376 C4377 1.397 . S
C4376 C4381 1.363 . S
C4377 H4348 0.950 . S
C4377 C4376 1.397 . S
C4377 C4378 1.334 . S
C4378 H4349 0.950 . S
C4378 C4377 1.334 . S
C4378 C4379 1.287 . S
C4379 C4378 1.287 . S
C4379 C4380 1.524 . S
C4379 H4382 0.999 . S
C4380 H4350 0.950 . S
C4380 C4379 1.524 . S
C4380 C4381 1.415 . S
C4381 H4351 0.950 . S
C4381 C4376 1.363 . S
C4381 C4380 1.415 . S
H4382 C4379 0.999 . S
H4383 C4364 0.913 . S
H4384 C4402 0.951 . S
H4385 C4404 0.951 . S
H4386 C4406 0.950 . S
H4387 C4407 0.950 . S
H4388 C4409 0.950 . S
H4389 C4412 0.950 . S
H4390 C4413 0.950 . S
H4391 C4415 0.950 . S
H4392 C4416 0.950 . S
H4393 C4417 0.951 . S
H4394 C4419 0.951 . S
H4395 C4421 0.950 . S
H4396 C4422 0.950 . S
H4397 C4424 0.950 . S
H4398 C4427 0.950 . S
H4399 C4428 0.950 . S
H4400 C4430 0.950 . S
H4401 C4431 0.950 . S
C4402 H4384 0.951 . S
C4402 C4403 1.366 . S
C4402 C4404 1.388 . S
C4403 C4402 1.366 . S
C4403 C4407 1.385 . S
C4404 H4385 0.951 . S
C4404 C4402 1.388 . S
C4404 C4405 1.366 . S
C4405 C4404 1.366 . S
C4405 C4406 1.414 . S
C4405 C4408 1.499 . S
C4406 H4386 0.950 . S
C4406 C4405 1.414 . S
C4406 C4407 1.374 . S
C4407 H4387 0.950 . S
C4407 C4403 1.385 . S
C4407 C4406 1.374 . S
C4408 C4405 1.499 . S
C4408 C4409 1.373 . S
C4408 C4410 1.389 . S
C4409 H4388 0.950 . S
C4409 C4408 1.373 . S
C4409 C4425 1.377 . S
C4410 C4408 1.389 . S
C4410 C4411 1.524 . S
C4410 C4424 1.377 . S
C4411 C4410 1.524 . S
C4411 C4412 1.397 . S
C4411 C4416 1.363 . S
C4412 H4389 0.950 . S
C4412 C4411 1.397 . S
C4412 C4413 1.334 . S
C4413 H4390 0.950 . S
C4413 C4412 1.334 . S
C4413 C4414 1.287 . S
C4414 C4413 1.287 . S
C4414 C4415 1.524 . S
C4414 H4433 0.913 . S
C4415 H4391 0.950 . S
C4415 C4414 1.524 . S
C4415 C4416 1.415 . S
C4416 H4392 0.950 . S
C4416 C4411 1.363 . S
C4416 C4415 1.415 . S
C4417 H4393 0.951 . S
C4417 C4418 1.366 . S
C4417 C4419 1.388 . S
C4418 C4417 1.366 . S
C4418 C4422 1.385 . S
C4419 H4394 0.951 . S
C4419 C4417 1.388 . S
C4419 C4420 1.366 . S
C4420 C4419 1.366 . S
C4420 C4421 1.414 . S
C4420 C4423 1.499 . S
C4421 H4395 0.950 . S
C4421 C4420 1.414 . S
C4421 C4422 1.374 . S
C4422 H4396 0.950 . S
C4422 C4418 1.385 . S
C4422 C4421 1.374 . S
C4423 C4420 1.499 . S
C4423 C4424 1.373 . S
C4423 C4425 1.389 . S
C4424 H4397 0.950 . S
C4424 C4410 1.377 . S
C4424 C4423 1.373 . S
C4425 C4409 1.377 . S
C4425 C4423 1.389 . S
C4425 C4426 1.524 . S
C4426 C4425 1.524 . S
C4426 C4427 1.397 . S
C4426 C4431 1.363 . S
C4427 H4398 0.950 . S
C4427 C4426 1.397 . S
C4427 C4428 1.334 . S
C4428 H4399 0.950 . S
C4428 C4427 1.334 . S
C4428 C4429 1.287 . S
C4429 C4428 1.287 . S
C4429 C4430 1.524 . S
C4429 H4432 0.999 . S
C4430 H4400 0.950 . S
C4430 C4429 1.524 . S
C4430 C4431 1.415 . S
C4431 H4401 0.950 . S
C4431 C4426 1.363 . S
C4431 C4430 1.415 . S
H4432 C4429 0.999 . S
H4433 C4414 0.913 . S
H4434 C4452 0.951 . S
H4435 C4454 0.951 . S
H4436 C4456 0.950 . S
H4437 C4457 0.950 . S
H4438 C4459 0.950 . S
H4439 C4462 0.950 . S
H4440 C4463 0.950 . S
H4441 C4465 0.950 . S
H4442 C4466 0.950 . S
H4443 C4467 0.951 . S
H4444 C4469 0.951 . S
H4445 C4471 0.950 . S
H4446 C4472 0.950 . S
H4447 C4474 0.950 . S
H4448 C4477 0.950 . S
H4449 C4478 0.950 . S
H4450 C4480 0.950 . S
H4451 C4481 0.950 . S
C4452 H4434 0.951 . S
C4452 C4453 1.366 . S
C4452 C4454 1.388 . S
C4453 C4452 1.366 . S
C4453 C4457 1.385 . S
C4454 H4435 0.951 . S
C4454 C4452 1.388 . S
C4454 C4455 1.366 . S
C4455 C4454 1.366 . S
C4455 C4456 1.414 . S
C4455 C4458 1.499 . S
C4456 H4436 0.950 . S
C4456 C4455 1.414 . S
C4456 C4457 1.374 . S
C4457 H4437 0.950 . S
C4457 C4453 1.385 . S
C4457 C4456 1.374 . S
C4458 C4455 1.499 . S
C4458 C4459 1.373 . S
C4458 C4460 1.389 . S
C4459 H4438 0.950 . S
C4459 C4458 1.373 . S
C4459 C4475 1.377 . S
C4460 C4458 1.389 . S
C4460 C4461 1.524 . S
C4460 C4474 1.377 . S
C4461 C4460 1.524 . S
C4461 C4462 1.397 . S
C4461 C4466 1.363 . S
C4462 H4439 0.950 . S
C4462 C4461 1.397 . S
C4462 C4463 1.334 . S
C4463 H4440 0.950 . S
C4463 C4462 1.334 . S
C4463 C4464 1.287 . S
C4464 C4463 1.287 . S
C4464 C4465 1.524 . S
C4464 H4483 0.913 . S
C4465 H4441 0.950 . S
C4465 C4464 1.524 . S
C4465 C4466 1.415 . S
C4466 H4442 0.950 . S
C4466 C4461 1.363 . S
C4466 C4465 1.415 . S
C4467 H4443 0.951 . S
C4467 C4468 1.366 . S
C4467 C4469 1.388 . S
C4468 C4467 1.366 . S
C4468 C4472 1.385 . S
C4469 H4444 0.951 . S
C4469 C4467 1.388 . S
C4469 C4470 1.366 . S
C4470 C4469 1.366 . S
C4470 C4471 1.414 . S
C4470 C4473 1.499 . S
C4471 H4445 0.950 . S
C4471 C4470 1.414 . S
C4471 C4472 1.374 . S
C4472 H4446 0.950 . S
C4472 C4468 1.385 . S
C4472 C4471 1.374 . S
C4473 C4470 1.499 . S
C4473 C4474 1.373 . S
C4473 C4475 1.389 . S
C4474 H4447 0.950 . S
C4474 C4460 1.377 . S
C4474 C4473 1.373 . S
C4475 C4459 1.377 . S
C4475 C4473 1.389 . S
C4475 C4476 1.524 . S
C4476 C4475 1.524 . S
C4476 C4477 1.397 . S
C4476 C4481 1.363 . S
C4477 H4448 0.950 . S
C4477 C4476 1.397 . S
C4477 C4478 1.334 . S
C4478 H4449 0.950 . S
C4478 C4477 1.334 . S
C4478 C4479 1.287 . S
C4479 C4478 1.287 . S
C4479 C4480 1.524 . S
C4479 H4482 0.999 . S
C4480 H4450 0.950 . S
C4480 C4479 1.524 . S
C4480 C4481 1.415 . S
C4481 H4451 0.950 . S
C4481 C4476 1.363 . S
C4481 C4480 1.415 . S
H4482 C4479 0.999 . S
H4483 C4464 0.913 . S
H4484 C4502 0.951 . S
H4485 C4504 0.951 . S
H4486 C4506 0.950 . S
H4487 C4507 0.950 . S
H4488 C4509 0.950 . S
H4489 C4512 0.950 . S
H4490 C4513 0.950 . S
H4491 C4515 0.950 . S
H4492 C4516 0.950 . S
H4493 C4517 0.951 . S
H4494 C4519 0.951 . S
H4495 C4521 0.950 . S
H4496 C4522 0.950 . S
H4497 C4524 0.950 . S
H4498 C4527 0.950 . S
H4499 C4528 0.950 . S
H4500 C4530 0.950 . S
H4501 C4531 0.950 . S
C4502 H4484 0.951 . S
C4502 C4503 1.366 . S
C4502 C4504 1.388 . S
C4503 C4502 1.366 . S
C4503 C4507 1.385 . S
C4504 H4485 0.951 . S
C4504 C4502 1.388 . S
C4504 C4505 1.366 . S
C4505 C4504 1.366 . S
C4505 C4506 1.414 . S
C4505 C4508 1.499 . S
C4506 H4486 0.950 . S
C4506 C4505 1.414 . S
C4506 C4507 1.374 . S
C4507 H4487 0.950 . S
C4507 C4503 1.385 . S
C4507 C4506 1.374 . S
C4508 C4505 1.499 . S
C4508 C4509 1.373 . S
C4508 C4510 1.389 . S
C4509 H4488 0.950 . S
C4509 C4508 1.373 . S
C4509 C4525 1.377 . S
C4510 C4508 1.389 . S
C4510 C4511 1.524 . S
C4510 C4524 1.377 . S
C4511 C4510 1.524 . S
C4511 C4512 1.397 . S
C4511 C4516 1.363 . S
C4512 H4489 0.950 . S
C4512 C4511 1.397 . S
C4512 C4513 1.334 . S
C4513 H4490 0.950 . S
C4513 C4512 1.334 . S
C4513 C4514 1.287 . S
C4514 C4513 1.287 . S
C4514 C4515 1.524 . S
C4514 H4533 0.913 . S
C4515 H4491 0.950 . S
C4515 C4514 1.524 . S
C4515 C4516 1.415 . S
C4516 H4492 0.950 . S
C4516 C4511 1.363 . S
C4516 C4515 1.415 . S
C4517 H4493 0.951 . S
C4517 C4518 1.366 . S
C4517 C4519 1.388 . S
C4518 C4517 1.366 . S
C4518 C4522 1.385 . S
C4519 H4494 0.951 . S
C4519 C4517 1.388 . S
C4519 C4520 1.366 . S
C4520 C4519 1.366 . S
C4520 C4521 1.414 . S
C4520 C4523 1.499 . S
C4521 H4495 0.950 . S
C4521 C4520 1.414 . S
C4521 C4522 1.374 . S
C4522 H4496 0.950 . S
C4522 C4518 1.385 . S
C4522 C4521 1.374 . S
C4523 C4520 1.499 . S
C4523 C4524 1.373 . S
C4523 C4525 1.389 . S
C4524 H4497 0.950 . S
C4524 C4510 1.377 . S
C4524 C4523 1.373 . S
C4525 C4509 1.377 . S
C4525 C4523 1.389 . S
C4525 C4526 1.524 . S
C4526 C4525 1.524 . S
C4526 C4527 1.397 . S
C4526 C4531 1.363 . S
C4527 H4498 0.950 . S
C4527 C4526 1.397 . S
C4527 C4528 1.334 . S
C4528 H4499 0.950 . S
C4528 C4527 1.334 . S
C4528 C4529 1.287 . S
C4529 C4528 1.287 . S
C4529 C4530 1.524 . S
C4529 H4532 0.999 . S
C4530 H4500 0.950 . S
C4530 C4529 1.524 . S
C4530 C4531 1.415 . S
C4531 H4501 0.950 . S
C4531 C4526 1.363 . S
C4531 C4530 1.415 . S
H4532 C4529 0.999 . S
H4533 C4514 0.913 . S
H4534 C4552 0.951 . S
H4535 C4554 0.951 . S
H4536 C4556 0.950 . S
H4537 C4557 0.950 . S
H4538 C4559 0.950 . S
H4539 C4562 0.950 . S
H4540 C4563 0.950 . S
H4541 C4565 0.950 . S
H4542 C4566 0.950 . S
H4543 C4567 0.951 . S
H4544 C4569 0.951 . S
H4545 C4571 0.950 . S
H4546 C4572 0.950 . S
H4547 C4574 0.950 . S
H4548 C4577 0.950 . S
H4549 C4578 0.950 . S
H4550 C4580 0.950 . S
H4551 C4581 0.950 . S
C4552 H4534 0.951 . S
C4552 C4553 1.366 . S
C4552 C4554 1.388 . S
C4553 C4552 1.366 . S
C4553 C4557 1.385 . S
C4554 H4535 0.951 . S
C4554 C4552 1.388 . S
C4554 C4555 1.366 . S
C4555 C4554 1.366 . S
C4555 C4556 1.414 . S
C4555 C4558 1.499 . S
C4556 H4536 0.950 . S
C4556 C4555 1.414 . S
C4556 C4557 1.374 . S
C4557 H4537 0.950 . S
C4557 C4553 1.385 . S
C4557 C4556 1.374 . S
C4558 C4555 1.499 . S
C4558 C4559 1.373 . S
C4558 C4560 1.389 . S
C4559 H4538 0.950 . S
C4559 C4558 1.373 . S
C4559 C4575 1.377 . S
C4560 C4558 1.389 . S
C4560 C4561 1.524 . S
C4560 C4574 1.377 . S
C4561 C4560 1.524 . S
C4561 C4562 1.397 . S
C4561 C4566 1.363 . S
C4562 H4539 0.950 . S
C4562 C4561 1.397 . S
C4562 C4563 1.334 . S
C4563 H4540 0.950 . S
C4563 C4562 1.334 . S
C4563 C4564 1.287 . S
C4564 C4563 1.287 . S
C4564 C4565 1.524 . S
C4564 H4583 0.913 . S
C4565 H4541 0.950 . S
C4565 C4564 1.524 . S
C4565 C4566 1.415 . S
C4566 H4542 0.950 . S
C4566 C4561 1.363 . S
C4566 C4565 1.415 . S
C4567 H4543 0.951 . S
C4567 C4568 1.366 . S
C4567 C4569 1.388 . S
C4568 C4567 1.366 . S
C4568 C4572 1.385 . S
C4569 H4544 0.951 . S
C4569 C4567 1.388 . S
C4569 C4570 1.366 . S
C4570 C4569 1.366 . S
C4570 C4571 1.414 . S
C4570 C4573 1.499 . S
C4571 H4545 0.950 . S
C4571 C4570 1.414 . S
C4571 C4572 1.374 . S
C4572 H4546 0.950 . S
C4572 C4568 1.385 . S
C4572 C4571 1.374 . S
C4573 C4570 1.499 . S
C4573 C4574 1.373 . S
C4573 C4575 1.389 . S
C4574 H4547 0.950 . S
C4574 C4560 1.377 . S
C4574 C4573 1.373 . S
C4575 C4559 1.377 . S
C4575 C4573 1.389 . S
C4575 C4576 1.524 . S
C4576 C4575 1.524 . S
C4576 C4577 1.397 . S
C4576 C4581 1.363 . S
C4577 H4548 0.950 . S
C4577 C4576 1.397 . S
C4577 C4578 1.334 . S
C4578 H4549 0.950 . S
C4578 C4577 1.334 . S
C4578 C4579 1.287 . S
C4579 C4578 1.287 . S
C4579 C4580 1.524 . S
C4579 H4582 0.999 . S
C4580 H4550 0.950 . S
C4580 C4579 1.524 . S
C4580 C4581 1.415 . S
C4581 H4551 0.950 . S
C4581 C4576 1.363 . S
C4581 C4580 1.415 . S
H4582 C4579 0.999 . S
H4583 C4564 0.913 . S
H4584 C4602 0.951 . S
H4585 C4604 0.951 . S
H4586 C4606 0.950 . S
H4587 C4607 0.950 . S
H4588 C4609 0.950 . S
H4589 C4612 0.950 . S
H4590 C4613 0.950 . S
H4591 C4615 0.950 . S
H4592 C4616 0.950 . S
H4593 C4617 0.951 . S
H4594 C4619 0.951 . S
H4595 C4621 0.950 . S
H4596 C4622 0.950 . S
H4597 C4624 0.950 . S
H4598 C4627 0.950 . S
H4599 C4628 0.950 . S
H4600 C4630 0.950 . S
H4601 C4631 0.950 . S
C4602 H4584 0.951 . S
C4602 C4603 1.366 . S
C4602 C4604 1.388 . S
C4603 C4602 1.366 . S
C4603 C4607 1.385 . S
C4604 H4585 0.951 . S
C4604 C4602 1.388 . S
C4604 C4605 1.366 . S
C4605 C4604 1.366 . S
C4605 C4606 1.414 . S
C4605 C4608 1.499 . S
C4606 H4586 0.950 . S
C4606 C4605 1.414 . S
C4606 C4607 1.374 . S
C4607 H4587 0.950 . S
C4607 C4603 1.385 . S
C4607 C4606 1.374 . S
C4608 C4605 1.499 . S
C4608 C4609 1.373 . S
C4608 C4610 1.389 . S
C4609 H4588 0.950 . S
C4609 C4608 1.373 . S
C4609 C4625 1.377 . S
C4610 C4608 1.389 . S
C4610 C4611 1.524 . S
C4610 C4624 1.377 . S
C4611 C4610 1.524 . S
C4611 C4612 1.397 . S
C4611 C4616 1.363 . S
C4612 H4589 0.950 . S
C4612 C4611 1.397 . S
C4612 C4613 1.334 . S
C4613 H4590 0.950 . S
C4613 C4612 1.334 . S
C4613 C4614 1.287 . S
C4614 C4613 1.287 . S
C4614 C4615 1.524 . S
C4614 H4633 0.913 . S
C4615 H4591 0.950 . S
C4615 C4614 1.524 . S
C4615 C4616 1.415 . S
C4616 H4592 0.950 . S
C4616 C4611 1.363 . S
C4616 C4615 1.415 . S
C4617 H4593 0.951 . S
C4617 C4618 1.366 . S
C4617 C4619 1.388 . S
C4618 C4617 1.366 . S
C4618 C4622 1.385 . S
C4619 H4594 0.951 . S
C4619 C4617 1.388 . S
C4619 C4620 1.366 . S
C4620 C4619 1.366 . S
C4620 C4621 1.414 . S
C4620 C4623 1.499 . S
C4621 H4595 0.950 . S
C4621 C4620 1.414 . S
C4621 C4622 1.374 . S
C4622 H4596 0.950 . S
C4622 C4618 1.385 . S
C4622 C4621 1.374 . S
C4623 C4620 1.499 . S
C4623 C4624 1.373 . S
C4623 C4625 1.389 . S
C4624 H4597 0.950 . S
C4624 C4610 1.377 . S
C4624 C4623 1.373 . S
C4625 C4609 1.377 . S
C4625 C4623 1.389 . S
C4625 C4626 1.524 . S
C4626 C4625 1.524 . S
C4626 C4627 1.397 . S
C4626 C4631 1.363 . S
C4627 H4598 0.950 . S
C4627 C4626 1.397 . S
C4627 C4628 1.334 . S
C4628 H4599 0.950 . S
C4628 C4627 1.334 . S
C4628 C4629 1.287 . S
C4629 C4628 1.287 . S
C4629 C4630 1.524 . S
C4629 H4632 0.999 . S
C4630 H4600 0.950 . S
C4630 C4629 1.524 . S
C4630 C4631 1.415 . S
C4631 H4601 0.950 . S
C4631 C4626 1.363 . S
C4631 C4630 1.415 . S
H4632 C4629 0.999 . S
H4633 C4614 0.913 . S
H4634 C4652 0.951 . S
H4635 C4654 0.951 . S
H4636 C4656 0.950 . S
H4637 C4657 0.950 . S
H4638 C4659 0.950 . S
H4639 C4662 0.950 . S
H4640 C4663 0.950 . S
H4641 C4665 0.950 . S
H4642 C4666 0.950 . S
H4643 C4667 0.951 . S
H4644 C4669 0.951 . S
H4645 C4671 0.950 . S
H4646 C4672 0.950 . S
H4647 C4674 0.950 . S
H4648 C4677 0.950 . S
H4649 C4678 0.950 . S
H4650 C4680 0.950 . S
H4651 C4681 0.950 . S
C4652 H4634 0.951 . S
C4652 C4653 1.366 . S
C4652 C4654 1.388 . S
C4653 C4652 1.366 . S
C4653 C4657 1.385 . S
C4654 H4635 0.951 . S
C4654 C4652 1.388 . S
C4654 C4655 1.366 . S
C4655 C4654 1.366 . S
C4655 C4656 1.414 . S
C4655 C4658 1.499 . S
C4656 H4636 0.950 . S
C4656 C4655 1.414 . S
C4656 C4657 1.374 . S
C4657 H4637 0.950 . S
C4657 C4653 1.385 . S
C4657 C4656 1.374 . S
C4658 C4655 1.499 . S
C4658 C4659 1.373 . S
C4658 C4660 1.389 . S
C4659 H4638 0.950 . S
C4659 C4658 1.373 . S
C4659 C4675 1.377 . S
C4660 C4658 1.389 . S
C4660 C4661 1.524 . S
C4660 C4674 1.377 . S
C4661 C4660 1.524 . S
C4661 C4662 1.397 . S
C4661 C4666 1.363 . S
C4662 H4639 0.950 . S
C4662 C4661 1.397 . S
C4662 C4663 1.334 . S
C4663 H4640 0.950 . S
C4663 C4662 1.334 . S
C4663 C4664 1.287 . S
C4664 C4663 1.287 . S
C4664 C4665 1.524 . S
C4664 H4683 0.913 . S
C4665 H4641 0.950 . S
C4665 C4664 1.524 . S
C4665 C4666 1.415 . S
C4666 H4642 0.950 . S
C4666 C4661 1.363 . S
C4666 C4665 1.415 . S
C4667 H4643 0.951 . S
C4667 C4668 1.366 . S
C4667 C4669 1.388 . S
C4668 C4667 1.366 . S
C4668 C4672 1.385 . S
C4669 H4644 0.951 . S
C4669 C4667 1.388 . S
C4669 C4670 1.366 . S
C4670 C4669 1.366 . S
C4670 C4671 1.414 . S
C4670 C4673 1.499 . S
C4671 H4645 0.950 . S
C4671 C4670 1.414 . S
C4671 C4672 1.374 . S
C4672 H4646 0.950 . S
C4672 C4668 1.385 . S
C4672 C4671 1.374 . S
C4673 C4670 1.499 . S
C4673 C4674 1.373 . S
C4673 C4675 1.389 . S
C4674 H4647 0.950 . S
C4674 C4660 1.377 . S
C4674 C4673 1.373 . S
C4675 C4659 1.377 . S
C4675 C4673 1.389 . S
C4675 C4676 1.524 . S
C4676 C4675 1.524 . S
C4676 C4677 1.397 . S
C4676 C4681 1.363 . S
C4677 H4648 0.950 . S
C4677 C4676 1.397 . S
C4677 C4678 1.334 . S
C4678 H4649 0.950 . S
C4678 C4677 1.334 . S
C4678 C4679 1.287 . S
C4679 C4678 1.287 . S
C4679 C4680 1.524 . S
C4679 H4682 0.999 . S
C4680 H4650 0.950 . S
C4680 C4679 1.524 . S
C4680 C4681 1.415 . S
C4681 H4651 0.950 . S
C4681 C4676 1.363 . S
C4681 C4680 1.415 . S
H4682 C4679 0.999 . S
H4683 C4664 0.913 . S
H4684 C4702 0.951 . S
H4685 C4704 0.951 . S
H4686 C4706 0.950 . S
H4687 C4707 0.950 . S
H4688 C4709 0.950 . S
H4689 C4712 0.950 . S
H4690 C4713 0.950 . S
H4691 C4715 0.950 . S
H4692 C4716 0.950 . S
H4693 C4717 0.951 . S
H4694 C4719 0.951 . S
H4695 C4721 0.950 . S
H4696 C4722 0.950 . S
H4697 C4724 0.950 . S
H4698 C4727 0.950 . S
H4699 C4728 0.950 . S
H4700 C4730 0.950 . S
H4701 C4731 0.950 . S
C4702 H4684 0.951 . S
C4702 C4703 1.366 . S
C4702 C4704 1.388 . S
C4703 C4702 1.366 . S
C4703 C4707 1.385 . S
C4704 H4685 0.951 . S
C4704 C4702 1.388 . S
C4704 C4705 1.366 . S
C4705 C4704 1.366 . S
C4705 C4706 1.414 . S
C4705 C4708 1.499 . S
C4706 H4686 0.950 . S
C4706 C4705 1.414 . S
C4706 C4707 1.374 . S
C4707 H4687 0.950 . S
C4707 C4703 1.385 . S
C4707 C4706 1.374 . S
C4708 C4705 1.499 . S
C4708 C4709 1.373 . S
C4708 C4710 1.389 . S
C4709 H4688 0.950 . S
C4709 C4708 1.373 . S
C4709 C4725 1.377 . S
C4710 C4708 1.389 . S
C4710 C4711 1.524 . S
C4710 C4724 1.377 . S
C4711 C4710 1.524 . S
C4711 C4712 1.397 . S
C4711 C4716 1.363 . S
C4712 H4689 0.950 . S
C4712 C4711 1.397 . S
C4712 C4713 1.334 . S
C4713 H4690 0.950 . S
C4713 C4712 1.334 . S
C4713 C4714 1.287 . S
C4714 C4713 1.287 . S
C4714 C4715 1.524 . S
C4714 H4733 0.913 . S
C4715 H4691 0.950 . S
C4715 C4714 1.524 . S
C4715 C4716 1.415 . S
C4716 H4692 0.950 . S
C4716 C4711 1.363 . S
C4716 C4715 1.415 . S
C4717 H4693 0.951 . S
C4717 C4718 1.366 . S
C4717 C4719 1.388 . S
C4718 C4717 1.366 . S
C4718 C4722 1.385 . S
C4719 H4694 0.951 . S
C4719 C4717 1.388 . S
C4719 C4720 1.366 . S
C4720 C4719 1.366 . S
C4720 C4721 1.414 . S
C4720 C4723 1.499 . S
C4721 H4695 0.950 . S
C4721 C4720 1.414 . S
C4721 C4722 1.374 . S
C4722 H4696 0.950 . S
C4722 C4718 1.385 . S
C4722 C4721 1.374 . S
C4723 C4720 1.499 . S
C4723 C4724 1.373 . S
C4723 C4725 1.389 . S
C4724 H4697 0.950 . S
C4724 C4710 1.377 . S
C4724 C4723 1.373 . S
C4725 C4709 1.377 . S
C4725 C4723 1.389 . S
C4725 C4726 1.524 . S
C4726 C4725 1.524 . S
C4726 C4727 1.397 . S
C4726 C4731 1.363 . S
C4727 H4698 0.950 . S
C4727 C4726 1.397 . S
C4727 C4728 1.334 . S
C4728 H4699 0.950 . S
C4728 C4727 1.334 . S
C4728 C4729 1.287 . S
C4729 C4728 1.287 . S
C4729 C4730 1.524 . S
C4729 H4732 0.999 . S
C4730 H4700 0.950 . S
C4730 C4729 1.524 . S
C4730 C4731 1.415 . S
C4731 H4701 0.950 . S
C4731 C4726 1.363 . S
C4731 C4730 1.415 . S
H4732 C4729 0.999 . S
H4733 C4714 0.913 . S
H4734 C4752 0.951 . S
H4735 C4754 0.951 . S
H4736 C4756 0.950 . S
H4737 C4757 0.950 . S
H4738 C4759 0.950 . S
H4739 C4762 0.950 . S
H4740 C4763 0.950 . S
H4741 C4765 0.950 . S
H4742 C4766 0.950 . S
H4743 C4767 0.951 . S
H4744 C4769 0.951 . S
H4745 C4771 0.950 . S
H4746 C4772 0.950 . S
H4747 C4774 0.950 . S
H4748 C4777 0.950 . S
H4749 C4778 0.950 . S
H4750 C4780 0.950 . S
H4751 C4781 0.950 . S
C4752 H4734 0.951 . S
C4752 C4753 1.366 . S
C4752 C4754 1.388 . S
C4753 C4752 1.366 . S
C4753 C4757 1.385 . S
C4754 H4735 0.951 . S
C4754 C4752 1.388 . S
C4754 C4755 1.366 . S
C4755 C4754 1.366 . S
C4755 C4756 1.414 . S
C4755 C4758 1.499 . S
C4756 H4736 0.950 . S
C4756 C4755 1.414 . S
C4756 C4757 1.374 . S
C4757 H4737 0.950 . S
C4757 C4753 1.385 . S
C4757 C4756 1.374 . S
C4758 C4755 1.499 . S
C4758 C4759 1.373 . S
C4758 C4760 1.389 . S
C4759 H4738 0.950 . S
C4759 C4758 1.373 . S
C4759 C4775 1.377 . S
C4760 C4758 1.389 . S
C4760 C4761 1.524 . S
C4760 C4774 1.377 . S
C4761 C4760 1.524 . S
C4761 C4762 1.397 . S
C4761 C4766 1.363 . S
C4762 H4739 0.950 . S
C4762 C4761 1.397 . S
C4762 C4763 1.334 . S
C4763 H4740 0.950 . S
C4763 C4762 1.334 . S
C4763 C4764 1.287 . S
C4764 C4763 1.287 . S
C4764 C4765 1.524 . S
C4764 H4783 0.913 . S
C4765 H4741 0.950 . S
C4765 C4764 1.524 . S
C4765 C4766 1.415 . S
C4766 H4742 0.950 . S
C4766 C4761 1.363 . S
C4766 C4765 1.415 . S
C4767 H4743 0.951 . S
C4767 C4768 1.366 . S
C4767 C4769 1.388 . S
C4768 C4767 1.366 . S
C4768 C4772 1.385 . S
C4769 H4744 0.951 . S
C4769 C4767 1.388 . S
C4769 C4770 1.366 . S
C4770 C4769 1.366 . S
C4770 C4771 1.414 . S
C4770 C4773 1.499 . S
C4771 H4745 0.950 . S
C4771 C4770 1.414 . S
C4771 C4772 1.374 . S
C4772 H4746 0.950 . S
C4772 C4768 1.385 . S
C4772 C4771 1.374 . S
C4773 C4770 1.499 . S
C4773 C4774 1.373 . S
C4773 C4775 1.389 . S
C4774 H4747 0.950 . S
C4774 C4760 1.377 . S
C4774 C4773 1.373 . S
C4775 C4759 1.377 . S
C4775 C4773 1.389 . S
C4775 C4776 1.524 . S
C4776 C4775 1.524 . S
C4776 C4777 1.397 . S
C4776 C4781 1.363 . S
C4777 H4748 0.950 . S
C4777 C4776 1.397 . S
C4777 C4778 1.334 . S
C4778 H4749 0.950 . S
C4778 C4777 1.334 . S
C4778 C4779 1.287 . S
C4779 C4778 1.287 . S
C4779 C4780 1.524 . S
C4779 H4782 0.999 . S
C4780 H4750 0.950 . S
C4780 C4779 1.524 . S
C4780 C4781 1.415 . S
C4781 H4751 0.950 . S
C4781 C4776 1.363 . S
C4781 C4780 1.415 . S
H4782 C4779 0.999 . S
H4783 C4764 0.913 . S
H4784 C4802 0.951 . S
H4785 C4804 0.951 . S
H4786 C4806 0.950 . S
H4787 C4807 0.950 . S
H4788 C4809 0.950 . S
H4789 C4812 0.950 . S
H4790 C4813 0.950 . S
H4791 C4815 0.950 . S
H4792 C4816 0.950 . S
H4793 C4817 0.951 . S
H4794 C4819 0.951 . S
H4795 C4821 0.950 . S
H4796 C4822 0.950 . S
H4797 C4824 0.950 . S
H4798 C4827 0.950 . S
H4799 C4828 0.950 . S
H4800 C4830 0.950 . S
H4801 C4831 0.950 . S
C4802 H4784 0.951 . S
C4802 C4803 1.366 . S
C4802 C4804 1.388 . S
C4803 C4802 1.366 . S
C4803 C4807 1.385 . S
C4804 H4785 0.951 . S
C4804 C4802 1.388 . S
C4804 C4805 1.366 . S
C4805 C4804 1.366 . S
C4805 C4806 1.414 . S
C4805 C4808 1.499 . S
C4806 H4786 0.950 . S
C4806 C4805 1.414 . S
C4806 C4807 1.374 . S
C4807 H4787 0.950 . S
C4807 C4803 1.385 . S
C4807 C4806 1.374 . S
C4808 C4805 1.499 . S
C4808 C4809 1.373 . S
C4808 C4810 1.389 . S
C4809 H4788 0.950 . S
C4809 C4808 1.373 . S
C4809 C4825 1.377 . S
C4810 C4808 1.389 . S
C4810 C4811 1.524 . S
C4810 C4824 1.377 . S
C4811 C4810 1.524 . S
C4811 C4812 1.397 . S
C4811 C4816 1.363 . S
C4812 H4789 0.950 . S
C4812 C4811 1.397 . S
C4812 C4813 1.334 . S
C4813 H4790 0.950 . S
C4813 C4812 1.334 . S
C4813 C4814 1.287 . S
C4814 C4813 1.287 . S
C4814 C4815 1.524 . S
C4814 H4833 0.913 . S
C4815 H4791 0.950 . S
C4815 C4814 1.524 . S
C4815 C4816 1.415 . S
C4816 H4792 0.950 . S
C4816 C4811 1.363 . S
C4816 C4815 1.415 . S
C4817 H4793 0.951 . S
C4817 C4818 1.366 . S
C4817 C4819 1.388 . S
C4818 C4817 1.366 . S
C4818 C4822 1.385 . S
C4819 H4794 0.951 . S
C4819 C4817 1.388 . S
C4819 C4820 1.366 . S
C4820 C4819 1.366 . S
C4820 C4821 1.414 . S
C4820 C4823 1.499 . S
C4821 H4795 0.950 . S
C4821 C4820 1.414 . S
C4821 C4822 1.374 . S
C4822 H4796 0.950 . S
C4822 C4818 1.385 . S
C4822 C4821 1.374 . S
C4823 C4820 1.499 . S
C4823 C4824 1.373 . S
C4823 C4825 1.389 . S
C4824 H4797 0.950 . S
C4824 C4810 1.377 . S
C4824 C4823 1.373 . S
C4825 C4809 1.377 . S
C4825 C4823 1.389 . S
C4825 C4826 1.524 . S
C4826 C4825 1.524 . S
C4826 C4827 1.397 . S
C4826 C4831 1.363 . S
C4827 H4798 0.950 . S
C4827 C4826 1.397 . S
C4827 C4828 1.334 . S
C4828 H4799 0.950 . S
C4828 C4827 1.334 . S
C4828 C4829 1.287 . S
C4829 C4828 1.287 . S
C4829 C4830 1.524 . S
C4829 H4832 0.999 . S
C4830 H4800 0.950 . S
C4830 C4829 1.524 . S
C4830 C4831 1.415 . S
C4831 H4801 0.950 . S
C4831 C4826 1.363 . S
C4831 C4830 1.415 . S
H4832 C4829 0.999 . S
H4833 C4814 0.913 . S
H4834 C4852 0.951 . S
H4835 C4854 0.951 . S
H4836 C4856 0.950 . S
H4837 C4857 0.950 . S
H4838 C4859 0.950 . S
H4839 C4862 0.950 . S
H4840 C4863 0.950 . S
H4841 C4865 0.950 . S
H4842 C4866 0.950 . S
H4843 C4867 0.951 . S
H4844 C4869 0.951 . S
H4845 C4871 0.950 . S
H4846 C4872 0.950 . S
H4847 C4874 0.950 . S
H4848 C4877 0.950 . S
H4849 C4878 0.950 . S
H4850 C4880 0.950 . S
H4851 C4881 0.950 . S
C4852 H4834 0.951 . S
C4852 C4853 1.366 . S
C4852 C4854 1.388 . S
C4853 C4852 1.366 . S
C4853 C4857 1.385 . S
C4854 H4835 0.951 . S
C4854 C4852 1.388 . S
C4854 C4855 1.366 . S
C4855 C4854 1.366 . S
C4855 C4856 1.414 . S
C4855 C4858 1.499 . S
C4856 H4836 0.950 . S
C4856 C4855 1.414 . S
C4856 C4857 1.374 . S
C4857 H4837 0.950 . S
C4857 C4853 1.385 . S
C4857 C4856 1.374 . S
C4858 C4855 1.499 . S
C4858 C4859 1.373 . S
C4858 C4860 1.389 . S
C4859 H4838 0.950 . S
C4859 C4858 1.373 . S
C4859 C4875 1.377 . S
C4860 C4858 1.389 . S
C4860 C4861 1.524 . S
C4860 C4874 1.377 . S
C4861 C4860 1.524 . S
C4861 C4862 1.397 . S
C4861 C4866 1.363 . S
C4862 H4839 0.950 . S
C4862 C4861 1.397 . S
C4862 C4863 1.334 . S
C4863 H4840 0.950 . S
C4863 C4862 1.334 . S
C4863 C4864 1.287 . S
C4864 C4863 1.287 . S
C4864 C4865 1.524 . S
C4864 H4883 0.913 . S
C4865 H4841 0.950 . S
C4865 C4864 1.524 . S
C4865 C4866 1.415 . S
C4866 H4842 0.950 . S
C4866 C4861 1.363 . S
C4866 C4865 1.415 . S
C4867 H4843 0.951 . S
C4867 C4868 1.366 . S
C4867 C4869 1.388 . S
C4868 C4867 1.366 . S
C4868 C4872 1.385 . S
C4869 H4844 0.951 . S
C4869 C4867 1.388 . S
C4869 C4870 1.366 . S
C4870 C4869 1.366 . S
C4870 C4871 1.414 . S
C4870 C4873 1.499 . S
C4871 H4845 0.950 . S
C4871 C4870 1.414 . S
C4871 C4872 1.374 . S
C4872 H4846 0.950 . S
C4872 C4868 1.385 . S
C4872 C4871 1.374 . S
C4873 C4870 1.499 . S
C4873 C4874 1.373 . S
C4873 C4875 1.389 . S
C4874 H4847 0.950 . S
C4874 C4860 1.377 . S
C4874 C4873 1.373 . S
C4875 C4859 1.377 . S
C4875 C4873 1.389 . S
C4875 C4876 1.524 . S
C4876 C4875 1.524 . S
C4876 C4877 1.397 . S
C4876 C4881 1.363 . S
C4877 H4848 0.950 . S
C4877 C4876 1.397 . S
C4877 C4878 1.334 . S
C4878 H4849 0.950 . S
C4878 C4877 1.334 . S
C4878 C4879 1.287 . S
C4879 C4878 1.287 . S
C4879 C4880 1.524 . S
C4879 H4882 0.999 . S
C4880 H4850 0.950 . S
C4880 C4879 1.524 . S
C4880 C4881 1.415 . S
C4881 H4851 0.950 . S
C4881 C4876 1.363 . S
C4881 C4880 1.415 . S
H4882 C4879 0.999 . S
H4883 C4864 0.913 . S
H4884 C4902 0.951 . S
H4885 C4904 0.951 . S
H4886 C4906 0.950 . S
H4887 C4907 0.950 . S
H4888 C4909 0.950 . S
H4889 C4912 0.950 . S
H4890 C4913 0.950 . S
H4891 C4915 0.950 . S
H4892 C4916 0.950 . S
H4893 C4917 0.951 . S
H4894 C4919 0.951 . S
H4895 C4921 0.950 . S
H4896 C4922 0.950 . S
H4897 C4924 0.950 . S
H4898 C4927 0.950 . S
H4899 C4928 0.950 . S
H4900 C4930 0.950 . S
H4901 C4931 0.950 . S
C4902 H4884 0.951 . S
C4902 C4903 1.366 . S
C4902 C4904 1.388 . S
C4903 C4902 1.366 . S
C4903 C4907 1.385 . S
C4904 H4885 0.951 . S
C4904 C4902 1.388 . S
C4904 C4905 1.366 . S
C4905 C4904 1.366 . S
C4905 C4906 1.414 . S
C4905 C4908 1.499 . S
C4906 H4886 0.950 . S
C4906 C4905 1.414 . S
C4906 C4907 1.374 . S
C4907 H4887 0.950 . S
C4907 C4903 1.385 . S
C4907 C4906 1.374 . S
C4908 C4905 1.499 . S
C4908 C4909 1.373 . S
C4908 C4910 1.389 . S
C4909 H4888 0.950 . S
C4909 C4908 1.373 . S
C4909 C4925 1.377 . S
C4910 C4908 1.389 . S
C4910 C4911 1.524 . S
C4910 C4924 1.377 . S
C4911 C4910 1.524 . S
C4911 C4912 1.397 . S
C4911 C4916 1.363 . S
C4912 H4889 0.950 . S
C4912 C4911 1.397 . S
C4912 C4913 1.334 . S
C4913 H4890 0.950 . S
C4913 C4912 1.334 . S
C4913 C4914 1.287 . S
C4914 C4913 1.287 . S
C4914 C4915 1.524 . S
C4914 H4933 0.913 . S
C4915 H4891 0.950 . S
C4915 C4914 1.524 . S
C4915 C4916 1.415 . S
C4916 H4892 0.950 . S
C4916 C4911 1.363 . S
C4916 C4915 1.415 . S
C4917 H4893 0.951 . S
C4917 C4918 1.366 . S
C4917 C4919 1.388 . S
C4918 C4917 1.366 . S
C4918 C4922 1.385 . S
C4919 H4894 0.951 . S
C4919 C4917 1.388 . S
C4919 C4920 1.366 . S
C4920 C4919 1.366 . S
C4920 C4921 1.414 . S
C4920 C4923 1.499 . S
C4921 H4895 0.950 . S
C4921 C4920 1.414 . S
C4921 C4922 1.374 . S
C4922 H4896 0.950 . S
C4922 C4918 1.385 . S
C4922 C4921 1.374 . S
C4923 C4920 1.499 . S
C4923 C4924 1.373 . S
C4923 C4925 1.389 . S
C4924 H4897 0.950 . S
C4924 C4910 1.377 . S
C4924 C4923 1.373 . S
C4925 C4909 1.377 . S
C4925 C4923 1.389 . S
C4925 C4926 1.524 . S
C4926 C4925 1.524 . S
C4926 C4927 1.397 . S
C4926 C4931 1.363 . S
C4927 H4898 0.950 . S
C4927 C4926 1.397 . S
C4927 C4928 1.334 . S
C4928 H4899 0.950 . S
C4928 C4927 1.334 . S
C4928 C4929 1.287 . S
C4929 C4928 1.287 . S
C4929 C4930 1.524 . S
C4929 H4932 0.999 . S
C4930 H4900 0.950 . S
C4930 C4929 1.524 . S
C4930 C4931 1.415 . S
C4931 H4901 0.950 . S
C4931 C4926 1.363 . S
C4931 C4930 1.415 . S
H4932 C4929 0.999 . S
H4933 C4914 0.913 . S
H4934 C4952 0.951 . S
H4935 C4954 0.951 . S
H4936 C4956 0.950 . S
H4937 C4957 0.950 . S
H4938 C4959 0.950 . S
H4939 C4962 0.950 . S
H4940 C4963 0.950 . S
H4941 C4965 0.950 . S
H4942 C4966 0.950 . S
H4943 C4967 0.951 . S
H4944 C4969 0.951 . S
H4945 C4971 0.950 . S
H4946 C4972 0.950 . S
H4947 C4974 0.950 . S
H4948 C4977 0.950 . S
H4949 C4978 0.950 . S
H4950 C4980 0.950 . S
H4951 C4981 0.950 . S
C4952 H4934 0.951 . S
C4952 C4953 1.366 . S
C4952 C4954 1.388 . S
C4953 C4952 1.366 . S
C4953 C4957 1.385 . S
C4954 H4935 0.951 . S
C4954 C4952 1.388 . S
C4954 C4955 1.366 . S
C4955 C4954 1.366 . S
C4955 C4956 1.414 . S
C4955 C4958 1.499 . S
C4956 H4936 0.950 . S
C4956 C4955 1.414 . S
C4956 C4957 1.374 . S
C4957 H4937 0.950 . S
C4957 C4953 1.385 . S
C4957 C4956 1.374 . S
C4958 C4955 1.499 . S
C4958 C4959 1.373 . S
C4958 C4960 1.389 . S
C4959 H4938 0.950 . S
C4959 C4958 1.373 . S
C4959 C4975 1.377 . S
C4960 C4958 1.389 . S
C4960 C4961 1.524 . S
C4960 C4974 1.377 . S
C4961 C4960 1.524 . S
C4961 C4962 1.397 . S
C4961 C4966 1.363 . S
C4962 H4939 0.950 . S
C4962 C4961 1.397 . S
C4962 C4963 1.334 . S
C4963 H4940 0.950 . S
C4963 C4962 1.334 . S
C4963 C4964 1.287 . S
C4964 C4963 1.287 . S
C4964 C4965 1.524 . S
C4964 H4983 0.913 . S
C4965 H4941 0.950 . S
C4965 C4964 1.524 . S
C4965 C4966 1.415 . S
C4966 H4942 0.950 . S
C4966 C4961 1.363 . S
C4966 C4965 1.415 . S
C4967 H4943 0.951 . S
C4967 C4968 1.366 . S
C4967 C4969 1.388 . S
C4968 C4967 1.366 . S
C4968 C4972 1.385 . S
C4969 H4944 0.951 . S
C4969 C4967 1.388 . S
C4969 C4970 1.366 . S
C4970 C4969 1.366 . S
C4970 C4971 1.414 . S
C4970 C4973 1.499 . S
C4971 H4945 0.950 . S
C4971 C4970 1.414 . S
C4971 C4972 1.374 . S
C4972 H4946 0.950 . S
C4972 C4968 1.385 . S
C4972 C4971 1.374 . S
C4973 C4970 1.499 . S
C4973 C4974 1.373 . S
C4973 C4975 1.389 . S
C4974 H4947 0.950 . S
C4974 C4960 1.377 . S
C4974 C4973 1.373 . S
C4975 C4959 1.377 . S
C4975 C4973 1.389 . S
C4975 C4976 1.524 . S
C4976 C4975 1.524 . S
C4976 C4977 1.397 . S
C4976 C4981 1.363 . S
C4977 H4948 0.950 . S
C4977 C4976 1.397 . S
C4977 C4978 1.334 . S
C4978 H4949 0.950 . S
C4978 C4977 1.334 . S
C4978 C4979 1.287 . S
C4979 C4978 1.287 . S
C4979 C4980 1.524 . S
C4979 H4982 0.999 . S
C4980 H4950 0.950 . S
C4980 C4979 1.524 . S
C4980 C4981 1.415 . S
C4981 H4951 0.950 . S
C4981 C4976 1.363 . S
C4981 C4980 1.415 . S
H4982 C4979 0.999 . S
H4983 C4964 0.913 . S
H4984 C5002 0.951 . S
H4985 C5004 0.951 . S
H4986 C5006 0.950 . S
H4987 C5007 0.950 . S
H4988 C5009 0.950 . S
H4989 C5012 0.950 . S
H4990 C5013 0.950 . S
H4991 C5015 0.950 . S
H4992 C5016 0.950 . S
H4993 C5017 0.951 . S
H4994 C5019 0.951 . S
H4995 C5021 0.950 . S
H4996 C5022 0.950 . S
H4997 C5024 0.950 . S
H4998 C5027 0.950 . S
H4999 C5028 0.950 . S
H5000 C5030 0.950 . S
H5001 C5031 0.950 . S
C5002 H4984 0.951 . S
C5002 C5003 1.366 . S
C5002 C5004 1.388 . S
C5003 C5002 1.366 . S
C5003 C5007 1.385 . S
C5004 H4985 0.951 . S
C5004 C5002 1.388 . S
C5004 C5005 1.366 . S
C5005 C5004 1.366 . S
C5005 C5006 1.414 . S
C5005 C5008 1.499 . S
C5006 H4986 0.950 . S
C5006 C5005 1.414 . S
C5006 C5007 1.374 . S
C5007 H4987 0.950 . S
C5007 C5003 1.385 . S
C5007 C5006 1.374 . S
C5008 C5005 1.499 . S
C5008 C5009 1.373 . S
C5008 C5010 1.389 . S
C5009 H4988 0.950 . S
C5009 C5008 1.373 . S
C5009 C5025 1.377 . S
C5010 C5008 1.389 . S
C5010 C5011 1.524 . S
C5010 C5024 1.377 . S
C5011 C5010 1.524 . S
C5011 C5012 1.397 . S
C5011 C5016 1.363 . S
C5012 H4989 0.950 . S
C5012 C5011 1.397 . S
C5012 C5013 1.334 . S
C5013 H4990 0.950 . S
C5013 C5012 1.334 . S
C5013 C5014 1.287 . S
C5014 C5013 1.287 . S
C5014 C5015 1.524 . S
C5014 H5033 0.913 . S
C5015 H4991 0.950 . S
C5015 C5014 1.524 . S
C5015 C5016 1.415 . S
C5016 H4992 0.950 . S
C5016 C5011 1.363 . S
C5016 C5015 1.415 . S
C5017 H4993 0.951 . S
C5017 C5018 1.366 . S
C5017 C5019 1.388 . S
C5018 C5017 1.366 . S
C5018 C5022 1.385 . S
C5019 H4994 0.951 . S
C5019 C5017 1.388 . S
C5019 C5020 1.366 . S
C5020 C5019 1.366 . S
C5020 C5021 1.414 . S
C5020 C5023 1.499 . S
C5021 H4995 0.950 . S
C5021 C5020 1.414 . S
C5021 C5022 1.374 . S
C5022 H4996 0.950 . S
C5022 C5018 1.385 . S
C5022 C5021 1.374 . S
C5023 C5020 1.499 . S
C5023 C5024 1.373 . S
C5023 C5025 1.389 . S
C5024 H4997 0.950 . S
C5024 C5010 1.377 . S
C5024 C5023 1.373 . S
C5025 C5009 1.377 . S
C5025 C5023 1.389 . S
C5025 C5026 1.524 . S
C5026 C5025 1.524 . S
C5026 C5027 1.397 . S
C5026 C5031 1.363 . S
C5027 H4998 0.950 . S
C5027 C5026 1.397 . S
C5027 C5028 1.334 . S
C5028 H4999 0.950 . S
C5028 C5027 1.334 . S
C5028 C5029 1.287 . S
C5029 C5028 1.287 . S
C5029 C5030 1.524 . S
C5029 H5032 0.999 . S
C5030 H5000 0.950 . S
C5030 C5029 1.524 . S
C5030 C5031 1.415 . S
C5031 H5001 0.950 . S
C5031 C5026 1.363 . S
C5031 C5030 1.415 . S
H5032 C5029 0.999 . S
H5033 C5014 0.913 . S
H5034 C5052 0.951 . S
H5035 C5054 0.951 . S
H5036 C5056 0.950 . S
H5037 C5057 0.950 . S
H5038 C5059 0.950 . S
H5039 C5062 0.950 . S
H5040 C5063 0.950 . S
H5041 C5065 0.950 . S
H5042 C5066 0.950 . S
H5043 C5067 0.951 . S
H5044 C5069 0.951 . S
H5045 C5071 0.950 . S
H5046 C5072 0.950 . S
H5047 C5074 0.950 . S
H5048 C5077 0.950 . S
H5049 C5078 0.950 . S
H5050 C5080 0.950 . S
H5051 C5081 0.950 . S
C5052 H5034 0.951 . S
C5052 C5053 1.366 . S
C5052 C5054 1.388 . S
C5053 C5052 1.366 . S
C5053 C5057 1.385 . S
C5054 H5035 0.951 . S
C5054 C5052 1.388 . S
C5054 C5055 1.366 . S
C5055 C5054 1.366 . S
C5055 C5056 1.414 . S
C5055 C5058 1.499 . S
C5056 H5036 0.950 . S
C5056 C5055 1.414 . S
C5056 C5057 1.374 . S
C5057 H5037 0.950 . S
C5057 C5053 1.385 . S
C5057 C5056 1.374 . S
C5058 C5055 1.499 . S
C5058 C5059 1.373 . S
C5058 C5060 1.389 . S
C5059 H5038 0.950 . S
C5059 C5058 1.373 . S
C5059 C5075 1.377 . S
C5060 C5058 1.389 . S
C5060 C5061 1.524 . S
C5060 C5074 1.377 . S
C5061 C5060 1.524 . S
C5061 C5062 1.397 . S
C5061 C5066 1.363 . S
C5062 H5039 0.950 . S
C5062 C5061 1.397 . S
C5062 C5063 1.334 . S
C5063 H5040 0.950 . S
C5063 C5062 1.334 . S
C5063 C5064 1.287 . S
C5064 C5063 1.287 . S
C5064 C5065 1.524 . S
C5064 H5083 0.913 . S
C5065 H5041 0.950 . S
C5065 C5064 1.524 . S
C5065 C5066 1.415 . S
C5066 H5042 0.950 . S
C5066 C5061 1.363 . S
C5066 C5065 1.415 . S
C5067 H5043 0.951 . S
C5067 C5068 1.366 . S
C5067 C5069 1.388 . S
C5068 C5067 1.366 . S
C5068 C5072 1.385 . S
C5069 H5044 0.951 . S
C5069 C5067 1.388 . S
C5069 C5070 1.366 . S
C5070 C5069 1.366 . S
C5070 C5071 1.414 . S
C5070 C5073 1.499 . S
C5071 H5045 0.950 . S
C5071 C5070 1.414 . S
C5071 C5072 1.374 . S
C5072 H5046 0.950 . S
C5072 C5068 1.385 . S
C5072 C5071 1.374 . S
C5073 C5070 1.499 . S
C5073 C5074 1.373 . S
C5073 C5075 1.389 . S
C5074 H5047 0.950 . S
C5074 C5060 1.377 . S
C5074 C5073 1.373 . S
C5075 C5059 1.377 . S
C5075 C5073 1.389 . S
C5075 C5076 1.524 . S
C5076 C5075 1.524 . S
C5076 C5077 1.397 . S
C5076 C5081 1.363 . S
C5077 H5048 0.950 . S
C5077 C5076 1.397 . S
C5077 C5078 1.334 . S
C5078 H5049 0.950 . S
C5078 C5077 1.334 . S
C5078 C5079 1.287 . S
C5079 C5078 1.287 . S
C5079 C5080 1.524 . S
C5079 H5082 0.999 . S
C5080 H5050 0.950 . S
C5080 C5079 1.524 . S
C5080 C5081 1.415 . S
C5081 H5051 0.950 . S
C5081 C5076 1.363 . S
C5081 C5080 1.415 . S
H5082 C5079 0.999 . S
H5083 C5064 0.913 . S
H5084 C5102 0.951 . S
H5085 C5104 0.951 . S
H5086 C5106 0.950 . S
H5087 C5107 0.950 . S
H5088 C5109 0.950 . S
H5089 C5112 0.950 . S
H5090 C5113 0.950 . S
H5091 C5115 0.950 . S
H5092 C5116 0.950 . S
H5093 C5117 0.951 . S
H5094 C5119 0.951 . S
H5095 C5121 0.950 . S
H5096 C5122 0.950 . S
H5097 C5124 0.950 . S
H5098 C5127 0.950 . S
H5099 C5128 0.950 . S
H5100 C5130 0.950 . S
H5101 C5131 0.950 . S
C5102 H5084 0.951 . S
C5102 C5103 1.366 . S
C5102 C5104 1.388 . S
C5103 C5102 1.366 . S
C5103 C5107 1.385 . S
C5104 H5085 0.951 . S
C5104 C5102 1.388 . S
C5104 C5105 1.366 . S
C5105 C5104 1.366 . S
C5105 C5106 1.414 . S
C5105 C5108 1.499 . S
C5106 H5086 0.950 . S
C5106 C5105 1.414 . S
C5106 C5107 1.374 . S
C5107 H5087 0.950 . S
C5107 C5103 1.385 . S
C5107 C5106 1.374 . S
C5108 C5105 1.499 . S
C5108 C5109 1.373 . S
C5108 C5110 1.389 . S
C5109 H5088 0.950 . S
C5109 C5108 1.373 . S
C5109 C5125 1.377 . S
C5110 C5108 1.389 . S
C5110 C5111 1.524 . S
C5110 C5124 1.377 . S
C5111 C5110 1.524 . S
C5111 C5112 1.397 . S
C5111 C5116 1.363 . S
C5112 H5089 0.950 . S
C5112 C5111 1.397 . S
C5112 C5113 1.334 . S
C5113 H5090 0.950 . S
C5113 C5112 1.334 . S
C5113 C5114 1.287 . S
C5114 C5113 1.287 . S
C5114 C5115 1.524 . S
C5114 H5133 0.913 . S
C5115 H5091 0.950 . S
C5115 C5114 1.524 . S
C5115 C5116 1.415 . S
C5116 H5092 0.950 . S
C5116 C5111 1.363 . S
C5116 C5115 1.415 . S
C5117 H5093 0.951 . S
C5117 C5118 1.366 . S
C5117 C5119 1.388 . S
C5118 C5117 1.366 . S
C5118 C5122 1.385 . S
C5119 H5094 0.951 . S
C5119 C5117 1.388 . S
C5119 C5120 1.366 . S
C5120 C5119 1.366 . S
C5120 C5121 1.414 . S
C5120 C5123 1.499 . S
C5121 H5095 0.950 . S
C5121 C5120 1.414 . S
C5121 C5122 1.374 . S
C5122 H5096 0.950 . S
C5122 C5118 1.385 . S
C5122 C5121 1.374 . S
C5123 C5120 1.499 . S
C5123 C5124 1.373 . S
C5123 C5125 1.389 . S
C5124 H5097 0.950 . S
C5124 C5110 1.377 . S
C5124 C5123 1.373 . S
C5125 C5109 1.377 . S
C5125 C5123 1.389 . S
C5125 C5126 1.524 . S
C5126 C5125 1.524 . S
C5126 C5127 1.397 . S
C5126 C5131 1.363 . S
C5127 H5098 0.950 . S
C5127 C5126 1.397 . S
C5127 C5128 1.334 . S
C5128 H5099 0.950 . S
C5128 C5127 1.334 . S
C5128 C5129 1.287 . S
C5129 C5128 1.287 . S
C5129 C5130 1.524 . S
C5129 H5132 0.999 . S
C5130 H5100 0.950 . S
C5130 C5129 1.524 . S
C5130 C5131 1.415 . S
C5131 H5101 0.950 . S
C5131 C5126 1.363 . S
C5131 C5130 1.415 . S
H5132 C5129 0.999 . S
H5133 C5114 0.913 . S
H5134 C5152 0.951 . S
H5135 C5154 0.951 . S
H5136 C5156 0.950 . S
H5137 C5157 0.950 . S
H5138 C5159 0.950 . S
H5139 C5162 0.950 . S
H5140 C5163 0.950 . S
H5141 C5165 0.950 . S
H5142 C5166 0.950 . S
H5143 C5167 0.951 . S
H5144 C5169 0.951 . S
H5145 C5171 0.950 . S
H5146 C5172 0.950 . S
H5147 C5174 0.950 . S
H5148 C5177 0.950 . S
H5149 C5178 0.950 . S
H5150 C5180 0.950 . S
H5151 C5181 0.950 . S
C5152 H5134 0.951 . S
C5152 C5153 1.366 . S
C5152 C5154 1.388 . S
C5153 C5152 1.366 . S
C5153 C5157 1.385 . S
C5154 H5135 0.951 . S
C5154 C5152 1.388 . S
C5154 C5155 1.366 . S
C5155 C5154 1.366 . S
C5155 C5156 1.414 . S
C5155 C5158 1.499 . S
C5156 H5136 0.950 . S
C5156 C5155 1.414 . S
C5156 C5157 1.374 . S
C5157 H5137 0.950 . S
C5157 C5153 1.385 . S
C5157 C5156 1.374 . S
C5158 C5155 1.499 . S
C5158 C5159 1.373 . S
C5158 C5160 1.389 . S
C5159 H5138 0.950 . S
C5159 C5158 1.373 . S
C5159 C5175 1.377 . S
C5160 C5158 1.389 . S
C5160 C5161 1.524 . S
C5160 C5174 1.377 . S
C5161 C5160 1.524 . S
C5161 C5162 1.397 . S
C5161 C5166 1.363 . S
C5162 H5139 0.950 . S
C5162 C5161 1.397 . S
C5162 C5163 1.334 . S
C5163 H5140 0.950 . S
C5163 C5162 1.334 . S
C5163 C5164 1.287 . S
C5164 C5163 1.287 . S
C5164 C5165 1.524 . S
C5164 H5183 0.913 . S
C5165 H5141 0.950 . S
C5165 C5164 1.524 . S
C5165 C5166 1.415 . S
C5166 H5142 0.950 . S
C5166 C5161 1.363 . S
C5166 C5165 1.415 . S
C5167 H5143 0.951 . S
C5167 C5168 1.366 . S
C5167 C5169 1.388 . S
C5168 C5167 1.366 . S
C5168 C5172 1.385 . S
C5169 H5144 0.951 . S
C5169 C5167 1.388 . S
C5169 C5170 1.366 . S
C5170 C5169 1.366 . S
C5170 C5171 1.414 . S
C5170 C5173 1.499 . S
C5171 H5145 0.950 . S
C5171 C5170 1.414 . S
C5171 C5172 1.374 . S
C5172 H5146 0.950 . S
C5172 C5168 1.385 . S
C5172 C5171 1.374 . S
C5173 C5170 1.499 . S
C5173 C5174 1.373 . S
C5173 C5175 1.389 . S
C5174 H5147 0.950 . S
C5174 C5160 1.377 . S
C5174 C5173 1.373 . S
C5175 C5159 1.377 . S
C5175 C5173 1.389 . S
C5175 C5176 1.524 . S
C5176 C5175 1.524 . S
C5176 C5177 1.397 . S
C5176 C5181 1.363 . S
C5177 H5148 0.950 . S
C5177 C5176 1.397 . S
C5177 C5178 1.334 . S
C5178 H5149 0.950 . S
C5178 C5177 1.334 . S
C5178 C5179 1.287 . S
C5179 C5178 1.287 . S
C5179 C5180 1.524 . S
C5179 H5182 0.999 . S
C5180 H5150 0.950 . S
C5180 C5179 1.524 . S
C5180 C5181 1.415 . S
C5181 H5151 0.950 . S
C5181 C5176 1.363 . S
C5181 C5180 1.415 . S
H5182 C5179 0.999 . S
H5183 C5164 0.913 . S
H5184 C5202 0.951 . S
H5185 C5204 0.951 . S
H5186 C5206 0.950 . S
H5187 C5207 0.950 . S
H5188 C5209 0.950 . S
H5189 C5212 0.950 . S
H5190 C5213 0.950 . S
H5191 C5215 0.950 . S
H5192 C5216 0.950 . S
H5193 C5217 0.951 . S
H5194 C5219 0.951 . S
H5195 C5221 0.950 . S
H5196 C5222 0.950 . S
H5197 C5224 0.950 . S
H5198 C5227 0.950 . S
H5199 C5228 0.950 . S
H5200 C5230 0.950 . S
H5201 C5231 0.950 . S
C5202 H5184 0.951 . S
C5202 C5203 1.366 . S
C5202 C5204 1.388 . S
C5203 C5202 1.366 . S
C5203 C5207 1.385 . S
C5204 H5185 0.951 . S
C5204 C5202 1.388 . S
C5204 C5205 1.366 . S
C5205 C5204 1.366 . S
C5205 C5206 1.414 . S
C5205 C5208 1.499 . S
C5206 H5186 0.950 . S
C5206 C5205 1.414 . S
C5206 C5207 1.374 . S
C5207 H5187 0.950 . S
C5207 C5203 1.385 . S
C5207 C5206 1.374 . S
C5208 C5205 1.499 . S
C5208 C5209 1.373 . S
C5208 C5210 1.389 . S
C5209 H5188 0.950 . S
C5209 C5208 1.373 . S
C5209 C5225 1.377 . S
C5210 C5208 1.389 . S
C5210 C5211 1.524 . S
C5210 C5224 1.377 . S
C5211 C5210 1.524 . S
C5211 C5212 1.397 . S
C5211 C5216 1.363 . S
C5212 H5189 0.950 . S
C5212 C5211 1.397 . S
C5212 C5213 1.334 . S
C5213 H5190 0.950 . S
C5213 C5212 1.334 . S
C5213 C5214 1.287 . S
C5214 C5213 1.287 . S
C5214 C5215 1.524 . S
C5214 H5233 0.913 . S
C5215 H5191 0.950 . S
C5215 C5214 1.524 . S
C5215 C5216 1.415 . S
C5216 H5192 0.950 . S
C5216 C5211 1.363 . S
C5216 C5215 1.415 . S
C5217 H5193 0.951 . S
C5217 C5218 1.366 . S
C5217 C5219 1.388 . S
C5218 C5217 1.366 . S
C5218 C5222 1.385 . S
C5219 H5194 0.951 . S
C5219 C5217 1.388 . S
C5219 C5220 1.366 . S
C5220 C5219 1.366 . S
C5220 C5221 1.414 . S
C5220 C5223 1.499 . S
C5221 H5195 0.950 . S
C5221 C5220 1.414 . S
C5221 C5222 1.374 . S
C5222 H5196 0.950 . S
C5222 C5218 1.385 . S
C5222 C5221 1.374 . S
C5223 C5220 1.499 . S
C5223 C5224 1.373 . S
C5223 C5225 1.389 . S
C5224 H5197 0.950 . S
C5224 C5210 1.377 . S
C5224 C5223 1.373 . S
C5225 C5209 1.377 . S
C5225 C5223 1.389 . S
C5225 C5226 1.524 . S
C5226 C5225 1.524 . S
C5226 C5227 1.397 . S
C5226 C5231 1.363 . S
C5227 H5198 0.950 . S
C5227 C5226 1.397 . S
C5227 C5228 1.334 . S
C5228 H5199 0.950 . S
C5228 C5227 1.334 . S
C5228 C5229 1.287 . S
C5229 C5228 1.287 . S
C5229 C5230 1.524 . S
C5229 H5232 0.999 . S
C5230 H5200 0.950 . S
C5230 C5229 1.524 . S
C5230 C5231 1.415 . S
C5231 H5201 0.950 . S
C5231 C5226 1.363 . S
C5231 C5230 1.415 . S
H5232 C5229 0.999 . S
H5233 C5214 0.913 . S
H5234 C5252 0.951 . S
H5235 C5254 0.951 . S
H5236 C5256 0.950 . S
H5237 C5257 0.950 . S
H5238 C5259 0.950 . S
H5239 C5262 0.950 . S
H5240 C5263 0.950 . S
H5241 C5265 0.950 . S
H5242 C5266 0.950 . S
H5243 C5267 0.951 . S
H5244 C5269 0.951 . S
H5245 C5271 0.950 . S
H5246 C5272 0.950 . S
H5247 C5274 0.950 . S
H5248 C5277 0.950 . S
H5249 C5278 0.950 . S
H5250 C5280 0.950 . S
H5251 C5281 0.950 . S
C5252 H5234 0.951 . S
C5252 C5253 1.366 . S
C5252 C5254 1.388 . S
C5253 C5252 1.366 . S
C5253 C5257 1.385 . S
C5254 H5235 0.951 . S
C5254 C5252 1.388 . S
C5254 C5255 1.366 . S
C5255 C5254 1.366 . S
C5255 C5256 1.414 . S
C5255 C5258 1.499 . S
C5256 H5236 0.950 . S
C5256 C5255 1.414 . S
C5256 C5257 1.374 . S
C5257 H5237 0.950 . S
C5257 C5253 1.385 . S
C5257 C5256 1.374 . S
C5258 C5255 1.499 . S
C5258 C5259 1.373 . S
C5258 C5260 1.389 . S
C5259 H5238 0.950 . S
C5259 C5258 1.373 . S
C5259 C5275 1.377 . S
C5260 C5258 1.389 . S
C5260 C5261 1.524 . S
C5260 C5274 1.377 . S
C5261 C5260 1.524 . S
C5261 C5262 1.397 . S
C5261 C5266 1.363 . S
C5262 H5239 0.950 . S
C5262 C5261 1.397 . S
C5262 C5263 1.334 . S
C5263 H5240 0.950 . S
C5263 C5262 1.334 . S
C5263 C5264 1.287 . S
C5264 C5263 1.287 . S
C5264 C5265 1.524 . S
C5264 H5283 0.913 . S
C5265 H5241 0.950 . S
C5265 C5264 1.524 . S
C5265 C5266 1.415 . S
C5266 H5242 0.950 . S
C5266 C5261 1.363 . S
C5266 C5265 1.415 . S
C5267 H5243 0.951 . S
C5267 C5268 1.366 . S
C5267 C5269 1.388 . S
C5268 C5267 1.366 . S
C5268 C5272 1.385 . S
C5269 H5244 0.951 . S
C5269 C5267 1.388 . S
C5269 C5270 1.366 . S
C5270 C5269 1.366 . S
C5270 C5271 1.414 . S
C5270 C5273 1.499 . S
C5271 H5245 0.950 . S
C5271 C5270 1.414 . S
C5271 C5272 1.374 . S
C5272 H5246 0.950 . S
C5272 C5268 1.385 . S
C5272 C5271 1.374 . S
C5273 C5270 1.499 . S
C5273 C5274 1.373 . S
C5273 C5275 1.389 . S
C5274 H5247 0.950 . S
C5274 C5260 1.377 . S
C5274 C5273 1.373 . S
C5275 C5259 1.377 . S
C5275 C5273 1.389 . S
C5275 C5276 1.524 . S
C5276 C5275 1.524 . S
C5276 C5277 1.397 . S
C5276 C5281 1.363 . S
C5277 H5248 0.950 . S
C5277 C5276 1.397 . S
C5277 C5278 1.334 . S
C5278 H5249 0.950 . S
C5278 C5277 1.334 . S
C5278 C5279 1.287 . S
C5279 C5278 1.287 . S
C5279 C5280 1.524 . S
C5279 H5282 0.999 . S
C5280 H5250 0.950 . S
C5280 C5279 1.524 . S
C5280 C5281 1.415 . S
C5281 H5251 0.950 . S
C5281 C5276 1.363 . S
C5281 C5280 1.415 . S
H5282 C5279 0.999 . S
H5283 C5264 0.913 . S
H5284 C5302 0.951 . S
H5285 C5304 0.951 . S
H5286 C5306 0.950 . S
H5287 C5307 0.950 . S
H5288 C5309 0.950 . S
H5289 C5312 0.950 . S
H5290 C5313 0.950 . S
H5291 C5315 0.950 . S
H5292 C5316 0.950 . S
H5293 C5317 0.951 . S
H5294 C5319 0.951 . S
H5295 C5321 0.950 . S
H5296 C5322 0.950 . S
H5297 C5324 0.950 . S
H5298 C5327 0.950 . S
H5299 C5328 0.950 . S
H5300 C5330 0.950 . S
H5301 C5331 0.950 . S
C5302 H5284 0.951 . S
C5302 C5303 1.366 . S
C5302 C5304 1.388 . S
C5303 C5302 1.366 . S
C5303 C5307 1.385 . S
C5304 H5285 0.951 . S
C5304 C5302 1.388 . S
C5304 C5305 1.366 . S
C5305 C5304 1.366 . S
C5305 C5306 1.414 . S
C5305 C5308 1.499 . S
C5306 H5286 0.950 . S
C5306 C5305 1.414 . S
C5306 C5307 1.374 . S
C5307 H5287 0.950 . S
C5307 C5303 1.385 . S
C5307 C5306 1.374 . S
C5308 C5305 1.499 . S
C5308 C5309 1.373 . S
C5308 C5310 1.389 . S
C5309 H5288 0.950 . S
C5309 C5308 1.373 . S
C5309 C5325 1.377 . S
C5310 C5308 1.389 . S
C5310 C5311 1.524 . S
C5310 C5324 1.377 . S
C5311 C5310 1.524 . S
C5311 C5312 1.397 . S
C5311 C5316 1.363 . S
C5312 H5289 0.950 . S
C5312 C5311 1.397 . S
C5312 C5313 1.334 . S
C5313 H5290 0.950 . S
C5313 C5312 1.334 . S
C5313 C5314 1.287 . S
C5314 C5313 1.287 . S
C5314 C5315 1.524 . S
C5314 H5333 0.913 . S
C5315 H5291 0.950 . S
C5315 C5314 1.524 . S
C5315 C5316 1.415 . S
C5316 H5292 0.950 . S
C5316 C5311 1.363 . S
C5316 C5315 1.415 . S
C5317 H5293 0.951 . S
C5317 C5318 1.366 . S
C5317 C5319 1.388 . S
C5318 C5317 1.366 . S
C5318 C5322 1.385 . S
C5319 H5294 0.951 . S
C5319 C5317 1.388 . S
C5319 C5320 1.366 . S
C5320 C5319 1.366 . S
C5320 C5321 1.414 . S
C5320 C5323 1.499 . S
C5321 H5295 0.950 . S
C5321 C5320 1.414 . S
C5321 C5322 1.374 . S
C5322 H5296 0.950 . S
C5322 C5318 1.385 . S
C5322 C5321 1.374 . S
C5323 C5320 1.499 . S
C5323 C5324 1.373 . S
C5323 C5325 1.389 . S
C5324 H5297 0.950 . S
C5324 C5310 1.377 . S
C5324 C5323 1.373 . S
C5325 C5309 1.377 . S
C5325 C5323 1.389 . S
C5325 C5326 1.524 . S
C5326 C5325 1.524 . S
C5326 C5327 1.397 . S
C5326 C5331 1.363 . S
C5327 H5298 0.950 . S
C5327 C5326 1.397 . S
C5327 C5328 1.334 . S
C5328 H5299 0.950 . S
C5328 C5327 1.334 . S
C5328 C5329 1.287 . S
C5329 C5328 1.287 . S
C5329 C5330 1.524 . S
C5329 H5332 0.999 . S
C5330 H5300 0.950 . S
C5330 C5329 1.524 . S
C5330 C5331 1.415 . S
C5331 H5301 0.950 . S
C5331 C5326 1.363 . S
C5331 C5330 1.415 . S
H5332 C5329 0.999 . S
H5333 C5314 0.913 . S
H5334 C5352 0.951 . S
H5335 C5354 0.951 . S
H5336 C5356 0.950 . S
H5337 C5357 0.950 . S
H5338 C5359 0.950 . S
H5339 C5362 0.950 . S
H5340 C5363 0.950 . S
H5341 C5365 0.950 . S
H5342 C5366 0.950 . S
H5343 C5367 0.951 . S
H5344 C5369 0.951 . S
H5345 C5371 0.950 . S
H5346 C5372 0.950 . S
H5347 C5374 0.950 . S
H5348 C5377 0.950 . S
H5349 C5378 0.950 . S
H5350 C5380 0.950 . S
H5351 C5381 0.950 . S
C5352 H5334 0.951 . S
C5352 C5353 1.366 . S
C5352 C5354 1.388 . S
C5353 C5352 1.366 . S
C5353 C5357 1.385 . S
C5354 H5335 0.951 . S
C5354 C5352 1.388 . S
C5354 C5355 1.366 . S
C5355 C5354 1.366 . S
C5355 C5356 1.414 . S
C5355 C5358 1.499 . S
C5356 H5336 0.950 . S
C5356 C5355 1.414 . S
C5356 C5357 1.374 . S
C5357 H5337 0.950 . S
C5357 C5353 1.385 . S
C5357 C5356 1.374 . S
C5358 C5355 1.499 . S
C5358 C5359 1.373 . S
C5358 C5360 1.389 . S
C5359 H5338 0.950 . S
C5359 C5358 1.373 . S
C5359 C5375 1.377 . S
C5360 C5358 1.389 . S
C5360 C5361 1.524 . S
C5360 C5374 1.377 . S
C5361 C5360 1.524 . S
C5361 C5362 1.397 . S
C5361 C5366 1.363 . S
C5362 H5339 0.950 . S
C5362 C5361 1.397 . S
C5362 C5363 1.334 . S
C5363 H5340 0.950 . S
C5363 C5362 1.334 . S
C5363 C5364 1.287 . S
C5364 C5363 1.287 . S
C5364 C5365 1.524 . S
C5364 H5383 0.913 . S
C5365 H5341 0.950 . S
C5365 C5364 1.524 . S
C5365 C5366 1.415 . S
C5366 H5342 0.950 . S
C5366 C5361 1.363 . S
C5366 C5365 1.415 . S
C5367 H5343 0.951 . S
C5367 C5368 1.366 . S
C5367 C5369 1.388 . S
C5368 C5367 1.366 . S
C5368 C5372 1.385 . S
C5369 H5344 0.951 . S
C5369 C5367 1.388 . S
C5369 C5370 1.366 . S
C5370 C5369 1.366 . S
C5370 C5371 1.414 . S
C5370 C5373 1.499 . S
C5371 H5345 0.950 . S
C5371 C5370 1.414 . S
C5371 C5372 1.374 . S
C5372 H5346 0.950 . S
C5372 C5368 1.385 . S
C5372 C5371 1.374 . S
C5373 C5370 1.499 . S
C5373 C5374 1.373 . S
C5373 C5375 1.389 . S
C5374 H5347 0.950 . S
C5374 C5360 1.377 . S
C5374 C5373 1.373 . S
C5375 C5359 1.377 . S
C5375 C5373 1.389 . S
C5375 C5376 1.524 . S
C5376 C5375 1.524 . S
C5376 C5377 1.397 . S
C5376 C5381 1.363 . S
C5377 H5348 0.950 . S
C5377 C5376 1.397 . S
C5377 C5378 1.334 . S
C5378 H5349 0.950 . S
C5378 C5377 1.334 . S
C5378 C5379 1.287 . S
C5379 C5378 1.287 . S
C5379 C5380 1.524 . S
C5379 H5382 0.999 . S
C5380 H5350 0.950 . S
C5380 C5379 1.524 . S
C5380 C5381 1.415 . S
C5381 H5351 0.950 . S
C5381 C5376 1.363 . S
C5381 C5380 1.415 . S
H5382 C5379 0.999 . S
H5383 C5364 0.913 . S
H5384 C5402 0.951 . S
H5385 C5404 0.951 . S
H5386 C5406 0.950 . S
H5387 C5407 0.950 . S
H5388 C5409 0.950 . S
H5389 C5412 0.950 . S
H5390 C5413 0.950 . S
H5391 C5415 0.950 . S
H5392 C5416 0.950 . S
H5393 C5417 0.951 . S
H5394 C5419 0.951 . S
H5395 C5421 0.950 . S
H5396 C5422 0.950 . S
H5397 C5424 0.950 . S
H5398 C5427 0.950 . S
H5399 C5428 0.950 . S
H5400 C5430 0.950 . S
H5401 C5431 0.950 . S
C5402 H5384 0.951 . S
C5402 C5403 1.366 . S
C5402 C5404 1.388 . S
C5403 C5402 1.366 . S
C5403 C5407 1.385 . S
C5404 H5385 0.951 . S
C5404 C5402 1.388 . S
C5404 C5405 1.366 . S
C5405 C5404 1.366 . S
C5405 C5406 1.414 . S
C5405 C5408 1.499 . S
C5406 H5386 0.950 . S
C5406 C5405 1.414 . S
C5406 C5407 1.374 . S
C5407 H5387 0.950 . S
C5407 C5403 1.385 . S
C5407 C5406 1.374 . S
C5408 C5405 1.499 . S
C5408 C5409 1.373 . S
C5408 C5410 1.389 . S
C5409 H5388 0.950 . S
C5409 C5408 1.373 . S
C5409 C5425 1.377 . S
C5410 C5408 1.389 . S
C5410 C5411 1.524 . S
C5410 C5424 1.377 . S
C5411 C5410 1.524 . S
C5411 C5412 1.397 . S
C5411 C5416 1.363 . S
C5412 H5389 0.950 . S
C5412 C5411 1.397 . S
C5412 C5413 1.334 . S
C5413 H5390 0.950 . S
C5413 C5412 1.334 . S
C5413 C5414 1.287 . S
C5414 C5413 1.287 . S
C5414 C5415 1.524 . S
C5414 H5433 0.913 . S
C5415 H5391 0.950 . S
C5415 C5414 1.524 . S
C5415 C5416 1.415 . S
C5416 H5392 0.950 . S
C5416 C5411 1.363 . S
C5416 C5415 1.415 . S
C5417 H5393 0.951 . S
C5417 C5418 1.366 . S
C5417 C5419 1.388 . S
C5418 C5417 1.366 . S
C5418 C5422 1.385 . S
C5419 H5394 0.951 . S
C5419 C5417 1.388 . S
C5419 C5420 1.366 . S
C5420 C5419 1.366 . S
C5420 C5421 1.414 . S
C5420 C5423 1.499 . S
C5421 H5395 0.950 . S
C5421 C5420 1.414 . S
C5421 C5422 1.374 . S
C5422 H5396 0.950 . S
C5422 C5418 1.385 . S
C5422 C5421 1.374 . S
C5423 C5420 1.499 . S
C5423 C5424 1.373 . S
C5423 C5425 1.389 . S
C5424 H5397 0.950 . S
C5424 C5410 1.377 . S
C5424 C5423 1.373 . S
C5425 C5409 1.377 . S
C5425 C5423 1.389 . S
C5425 C5426 1.524 . S
C5426 C5425 1.524 . S
C5426 C5427 1.397 . S
C5426 C5431 1.363 . S
C5427 H5398 0.950 . S
C5427 C5426 1.397 . S
C5427 C5428 1.334 . S
C5428 H5399 0.950 . S
C5428 C5427 1.334 . S
C5428 C5429 1.287 . S
C5429 C5428 1.287 . S
C5429 C5430 1.524 . S
C5429 H5432 0.999 . S
C5430 H5400 0.950 . S
C5430 C5429 1.524 . S
C5430 C5431 1.415 . S
C5431 H5401 0.950 . S
C5431 C5426 1.363 . S
C5431 C5430 1.415 . S
H5432 C5429 0.999 . S
H5433 C5414 0.913 . S
H5434 C5452 0.951 . S
H5435 C5454 0.951 . S
H5436 C5456 0.950 . S
H5437 C5457 0.950 . S
H5438 C5459 0.950 . S
H5439 C5462 0.950 . S
H5440 C5463 0.950 . S
H5441 C5465 0.950 . S
H5442 C5466 0.950 . S
H5443 C5467 0.951 . S
H5444 C5469 0.951 . S
H5445 C5471 0.950 . S
H5446 C5472 0.950 . S
H5447 C5474 0.950 . S
H5448 C5477 0.950 . S
H5449 C5478 0.950 . S
H5450 C5480 0.950 . S
H5451 C5481 0.950 . S
C5452 H5434 0.951 . S
C5452 C5453 1.366 . S
C5452 C5454 1.388 . S
C5453 C5452 1.366 . S
C5453 C5457 1.385 . S
C5454 H5435 0.951 . S
C5454 C5452 1.388 . S
C5454 C5455 1.366 . S
C5455 C5454 1.366 . S
C5455 C5456 1.414 . S
C5455 C5458 1.499 . S
C5456 H5436 0.950 . S
C5456 C5455 1.414 . S
C5456 C5457 1.374 . S
C5457 H5437 0.950 . S
C5457 C5453 1.385 . S
C5457 C5456 1.374 . S
C5458 C5455 1.499 . S
C5458 C5459 1.373 . S
C5458 C5460 1.389 . S
C5459 H5438 0.950 . S
C5459 C5458 1.373 . S
C5459 C5475 1.377 . S
C5460 C5458 1.389 . S
C5460 C5461 1.524 . S
C5460 C5474 1.377 . S
C5461 C5460 1.524 . S
C5461 C5462 1.397 . S
C5461 C5466 1.363 . S
C5462 H5439 0.950 . S
C5462 C5461 1.397 . S
C5462 C5463 1.334 . S
C5463 H5440 0.950 . S
C5463 C5462 1.334 . S
C5463 C5464 1.287 . S
C5464 C5463 1.287 . S
C5464 C5465 1.524 . S
C5464 H5483 0.913 . S
C5465 H5441 0.950 . S
C5465 C5464 1.524 . S
C5465 C5466 1.415 . S
C5466 H5442 0.950 . S
C5466 C5461 1.363 . S
C5466 C5465 1.415 . S
C5467 H5443 0.951 . S
C5467 C5468 1.366 . S
C5467 C5469 1.388 . S
C5468 C5467 1.366 . S
C5468 C5472 1.385 . S
C5469 H5444 0.951 . S
C5469 C5467 1.388 . S
C5469 C5470 1.366 . S
C5470 C5469 1.366 . S
C5470 C5471 1.414 . S
C5470 C5473 1.499 . S
C5471 H5445 0.950 . S
C5471 C5470 1.414 . S
C5471 C5472 1.374 . S
C5472 H5446 0.950 . S
C5472 C5468 1.385 . S
C5472 C5471 1.374 . S
C5473 C5470 1.499 . S
C5473 C5474 1.373 . S
C5473 C5475 1.389 . S
C5474 H5447 0.950 . S
C5474 C5460 1.377 . S
C5474 C5473 1.373 . S
C5475 C5459 1.377 . S
C5475 C5473 1.389 . S
C5475 C5476 1.524 . S
C5476 C5475 1.524 . S
C5476 C5477 1.397 . S
C5476 C5481 1.363 . S
C5477 H5448 0.950 . S
C5477 C5476 1.397 . S
C5477 C5478 1.334 . S
C5478 H5449 0.950 . S
C5478 C5477 1.334 . S
C5478 C5479 1.287 . S
C5479 C5478 1.287 . S
C5479 C5480 1.524 . S
C5479 H5482 0.999 . S
C5480 H5450 0.950 . S
C5480 C5479 1.524 . S
C5480 C5481 1.415 . S
C5481 H5451 0.950 . S
C5481 C5476 1.363 . S
C5481 C5480 1.415 . S
H5482 C5479 0.999 . S
H5483 C5464 0.913 . S
H5484 C5502 0.951 . S
H5485 C5504 0.951 . S
H5486 C5506 0.950 . S
H5487 C5507 0.950 . S
H5488 C5509 0.950 . S
H5489 C5512 0.950 . S
H5490 C5513 0.950 . S
H5491 C5515 0.950 . S
H5492 C5516 0.950 . S
H5493 C5517 0.951 . S
H5494 C5519 0.951 . S
H5495 C5521 0.950 . S
H5496 C5522 0.950 . S
H5497 C5524 0.950 . S
H5498 C5527 0.950 . S
H5499 C5528 0.950 . S
H5500 C5530 0.950 . S
H5501 C5531 0.950 . S
C5502 H5484 0.951 . S
C5502 C5503 1.366 . S
C5502 C5504 1.388 . S
C5503 C5502 1.366 . S
C5503 C5507 1.385 . S
C5504 H5485 0.951 . S
C5504 C5502 1.388 . S
C5504 C5505 1.366 . S
C5505 C5504 1.366 . S
C5505 C5506 1.414 . S
C5505 C5508 1.499 . S
C5506 H5486 0.950 . S
C5506 C5505 1.414 . S
C5506 C5507 1.374 . S
C5507 H5487 0.950 . S
C5507 C5503 1.385 . S
C5507 C5506 1.374 . S
C5508 C5505 1.499 . S
C5508 C5509 1.373 . S
C5508 C5510 1.389 . S
C5509 H5488 0.950 . S
C5509 C5508 1.373 . S
C5509 C5525 1.377 . S
C5510 C5508 1.389 . S
C5510 C5511 1.524 . S
C5510 C5524 1.377 . S
C5511 C5510 1.524 . S
C5511 C5512 1.397 . S
C5511 C5516 1.363 . S
C5512 H5489 0.950 . S
C5512 C5511 1.397 . S
C5512 C5513 1.334 . S
C5513 H5490 0.950 . S
C5513 C5512 1.334 . S
C5513 C5514 1.287 . S
C5514 C5513 1.287 . S
C5514 C5515 1.524 . S
C5514 H5533 0.913 . S
C5515 H5491 0.950 . S
C5515 C5514 1.524 . S
C5515 C5516 1.415 . S
C5516 H5492 0.950 . S
C5516 C5511 1.363 . S
C5516 C5515 1.415 . S
C5517 H5493 0.951 . S
C5517 C5518 1.366 . S
C5517 C5519 1.388 . S
C5518 C5517 1.366 . S
C5518 C5522 1.385 . S
C5519 H5494 0.951 . S
C5519 C5517 1.388 . S
C5519 C5520 1.366 . S
C5520 C5519 1.366 . S
C5520 C5521 1.414 . S
C5520 C5523 1.499 . S
C5521 H5495 0.950 . S
C5521 C5520 1.414 . S
C5521 C5522 1.374 . S
C5522 H5496 0.950 . S
C5522 C5518 1.385 . S
C5522 C5521 1.374 . S
C5523 C5520 1.499 . S
C5523 C5524 1.373 . S
C5523 C5525 1.389 . S
C5524 H5497 0.950 . S
C5524 C5510 1.377 . S
C5524 C5523 1.373 . S
C5525 C5509 1.377 . S
C5525 C5523 1.389 . S
C5525 C5526 1.524 . S
C5526 C5525 1.524 . S
C5526 C5527 1.397 . S
C5526 C5531 1.363 . S
C5527 H5498 0.950 . S
C5527 C5526 1.397 . S
C5527 C5528 1.334 . S
C5528 H5499 0.950 . S
C5528 C5527 1.334 . S
C5528 C5529 1.287 . S
C5529 C5528 1.287 . S
C5529 C5530 1.524 . S
C5529 H5532 0.999 . S
C5530 H5500 0.950 . S
C5530 C5529 1.524 . S
C5530 C5531 1.415 . S
C5531 H5501 0.950 . S
C5531 C5526 1.363 . S
C5531 C5530 1.415 . S
H5532 C5529 0.999 . S
H5533 C5514 0.913 . S
H5534 C5552 0.951 . S
H5535 C5554 0.951 . S
H5536 C5556 0.950 . S
H5537 C5557 0.950 . S
H5538 C5559 0.950 . S
H5539 C5562 0.950 . S
H5540 C5563 0.950 . S
H5541 C5565 0.950 . S
H5542 C5566 0.950 . S
H5543 C5567 0.951 . S
H5544 C5569 0.951 . S
H5545 C5571 0.950 . S
H5546 C5572 0.950 . S
H5547 C5574 0.950 . S
H5548 C5577 0.950 . S
H5549 C5578 0.950 . S
H5550 C5580 0.950 . S
H5551 C5581 0.950 . S
C5552 H5534 0.951 . S
C5552 C5553 1.366 . S
C5552 C5554 1.388 . S
C5553 C5552 1.366 . S
C5553 C5557 1.385 . S
C5554 H5535 0.951 . S
C5554 C5552 1.388 . S
C5554 C5555 1.366 . S
C5555 C5554 1.366 . S
C5555 C5556 1.414 . S
C5555 C5558 1.499 . S
C5556 H5536 0.950 . S
C5556 C5555 1.414 . S
C5556 C5557 1.374 . S
C5557 H5537 0.950 . S
C5557 C5553 1.385 . S
C5557 C5556 1.374 . S
C5558 C5555 1.499 . S
C5558 C5559 1.373 . S
C5558 C5560 1.389 . S
C5559 H5538 0.950 . S
C5559 C5558 1.373 . S
C5559 C5575 1.377 . S
C5560 C5558 1.389 . S
C5560 C5561 1.524 . S
C5560 C5574 1.377 . S
C5561 C5560 1.524 . S
C5561 C5562 1.397 . S
C5561 C5566 1.363 . S
C5562 H5539 0.950 . S
C5562 C5561 1.397 . S
C5562 C5563 1.334 . S
C5563 H5540 0.950 . S
C5563 C5562 1.334 . S
C5563 C5564 1.287 . S
C5564 C5563 1.287 . S
C5564 C5565 1.524 . S
C5564 H5583 0.913 . S
C5565 H5541 0.950 . S
C5565 C5564 1.524 . S
C5565 C5566 1.415 . S
C5566 H5542 0.950 . S
C5566 C5561 1.363 . S
C5566 C5565 1.415 . S
C5567 H5543 0.951 . S
C5567 C5568 1.366 . S
C5567 C5569 1.388 . S
C5568 C5567 1.366 . S
C5568 C5572 1.385 . S
C5569 H5544 0.951 . S
C5569 C5567 1.388 . S
C5569 C5570 1.366 . S
C5570 C5569 1.366 . S
C5570 C5571 1.414 . S
C5570 C5573 1.499 . S
C5571 H5545 0.950 . S
C5571 C5570 1.414 . S
C5571 C5572 1.374 . S
C5572 H5546 0.950 . S
C5572 C5568 1.385 . S
C5572 C5571 1.374 . S
C5573 C5570 1.499 . S
C5573 C5574 1.373 . S
C5573 C5575 1.389 . S
C5574 H5547 0.950 . S
C5574 C5560 1.377 . S
C5574 C5573 1.373 . S
C5575 C5559 1.377 . S
C5575 C5573 1.389 . S
C5575 C5576 1.524 . S
C5576 C5575 1.524 . S
C5576 C5577 1.397 . S
C5576 C5581 1.363 . S
C5577 H5548 0.950 . S
C5577 C5576 1.397 . S
C5577 C5578 1.334 . S
C5578 H5549 0.950 . S
C5578 C5577 1.334 . S
C5578 C5579 1.287 . S
C5579 C5578 1.287 . S
C5579 C5580 1.524 . S
C5579 H5582 0.999 . S
C5580 H5550 0.950 . S
C5580 C5579 1.524 . S
C5580 C5581 1.415 . S
C5581 H5551 0.950 . S
C5581 C5576 1.363 . S
C5581 C5580 1.415 . S
H5582 C5579 0.999 . S
H5583 C5564 0.913 . S
H5584 C5602 0.951 . S
H5585 C5604 0.951 . S
H5586 C5606 0.950 . S
H5587 C5607 0.950 . S
H5588 C5609 0.950 . S
H5589 C5612 0.950 . S
H5590 C5613 0.950 . S
H5591 C5615 0.950 . S
H5592 C5616 0.950 . S
H5593 C5617 0.951 . S
H5594 C5619 0.951 . S
H5595 C5621 0.950 . S
H5596 C5622 0.950 . S
H5597 C5624 0.950 . S
H5598 C5627 0.950 . S
H5599 C5628 0.950 . S
H5600 C5630 0.950 . S
H5601 C5631 0.950 . S
C5602 H5584 0.951 . S
C5602 C5603 1.366 . S
C5602 C5604 1.388 . S
C5603 C5602 1.366 . S
C5603 C5607 1.385 . S
C5604 H5585 0.951 . S
C5604 C5602 1.388 . S
C5604 C5605 1.366 . S
C5605 C5604 1.366 . S
C5605 C5606 1.414 . S
C5605 C5608 1.499 . S
C5606 H5586 0.950 . S
C5606 C5605 1.414 . S
C5606 C5607 1.374 . S
C5607 H5587 0.950 . S
C5607 C5603 1.385 . S
C5607 C5606 1.374 . S
C5608 C5605 1.499 . S
C5608 C5609 1.373 . S
C5608 C5610 1.389 . S
C5609 H5588 0.950 . S
C5609 C5608 1.373 . S
C5609 C5625 1.377 . S
C5610 C5608 1.389 . S
C5610 C5611 1.524 . S
C5610 C5624 1.377 . S
C5611 C5610 1.524 . S
C5611 C5612 1.397 . S
C5611 C5616 1.363 . S
C5612 H5589 0.950 . S
C5612 C5611 1.397 . S
C5612 C5613 1.334 . S
C5613 H5590 0.950 . S
C5613 C5612 1.334 . S
C5613 C5614 1.287 . S
C5614 C5613 1.287 . S
C5614 C5615 1.524 . S
C5614 H5633 0.913 . S
C5615 H5591 0.950 . S
C5615 C5614 1.524 . S
C5615 C5616 1.415 . S
C5616 H5592 0.950 . S
C5616 C5611 1.363 . S
C5616 C5615 1.415 . S
C5617 H5593 0.951 . S
C5617 C5618 1.366 . S
C5617 C5619 1.388 . S
C5618 C5617 1.366 . S
C5618 C5622 1.385 . S
C5619 H5594 0.951 . S
C5619 C5617 1.388 . S
C5619 C5620 1.366 . S
C5620 C5619 1.366 . S
C5620 C5621 1.414 . S
C5620 C5623 1.499 . S
C5621 H5595 0.950 . S
C5621 C5620 1.414 . S
C5621 C5622 1.374 . S
C5622 H5596 0.950 . S
C5622 C5618 1.385 . S
C5622 C5621 1.374 . S
C5623 C5620 1.499 . S
C5623 C5624 1.373 . S
C5623 C5625 1.389 . S
C5624 H5597 0.950 . S
C5624 C5610 1.377 . S
C5624 C5623 1.373 . S
C5625 C5609 1.377 . S
C5625 C5623 1.389 . S
C5625 C5626 1.524 . S
C5626 C5625 1.524 . S
C5626 C5627 1.397 . S
C5626 C5631 1.363 . S
C5627 H5598 0.950 . S
C5627 C5626 1.397 . S
C5627 C5628 1.334 . S
C5628 H5599 0.950 . S
C5628 C5627 1.334 . S
C5628 C5629 1.287 . S
C5629 C5628 1.287 . S
C5629 C5630 1.524 . S
C5629 H5632 0.999 . S
C5630 H5600 0.950 . S
C5630 C5629 1.524 . S
C5630 C5631 1.415 . S
C5631 H5601 0.950 . S
C5631 C5626 1.363 . S
C5631 C5630 1.415 . S
H5632 C5629 0.999 . S
H5633 C5614 0.913 . S
H5634 C5652 0.951 . S
H5635 C5654 0.951 . S
H5636 C5656 0.950 . S
H5637 C5657 0.950 . S
H5638 C5659 0.950 . S
H5639 C5662 0.950 . S
H5640 C5663 0.950 . S
H5641 C5665 0.950 . S
H5642 C5666 0.950 . S
H5643 C5667 0.951 . S
H5644 C5669 0.951 . S
H5645 C5671 0.950 . S
H5646 C5672 0.950 . S
H5647 C5674 0.950 . S
H5648 C5677 0.950 . S
H5649 C5678 0.950 . S
H5650 C5680 0.950 . S
H5651 C5681 0.950 . S
C5652 H5634 0.951 . S
C5652 C5653 1.366 . S
C5652 C5654 1.388 . S
C5653 C5652 1.366 . S
C5653 C5657 1.385 . S
C5654 H5635 0.951 . S
C5654 C5652 1.388 . S
C5654 C5655 1.366 . S
C5655 C5654 1.366 . S
C5655 C5656 1.414 . S
C5655 C5658 1.499 . S
C5656 H5636 0.950 . S
C5656 C5655 1.414 . S
C5656 C5657 1.374 . S
C5657 H5637 0.950 . S
C5657 C5653 1.385 . S
C5657 C5656 1.374 . S
C5658 C5655 1.499 . S
C5658 C5659 1.373 . S
C5658 C5660 1.389 . S
C5659 H5638 0.950 . S
C5659 C5658 1.373 . S
C5659 C5675 1.377 . S
C5660 C5658 1.389 . S
C5660 C5661 1.524 . S
C5660 C5674 1.377 . S
C5661 C5660 1.524 . S
C5661 C5662 1.397 . S
C5661 C5666 1.363 . S
C5662 H5639 0.950 . S
C5662 C5661 1.397 . S
C5662 C5663 1.334 . S
C5663 H5640 0.950 . S
C5663 C5662 1.334 . S
C5663 C5664 1.287 . S
C5664 C5663 1.287 . S
C5664 C5665 1.524 . S
C5664 H5683 0.913 . S
C5665 H5641 0.950 . S
C5665 C5664 1.524 . S
C5665 C5666 1.415 . S
C5666 H5642 0.950 . S
C5666 C5661 1.363 . S
C5666 C5665 1.415 . S
C5667 H5643 0.951 . S
C5667 C5668 1.366 . S
C5667 C5669 1.388 . S
C5668 C5667 1.366 . S
C5668 C5672 1.385 . S
C5669 H5644 0.951 . S
C5669 C5667 1.388 . S
C5669 C5670 1.366 . S
C5670 C5669 1.366 . S
C5670 C5671 1.414 . S
C5670 C5673 1.499 . S
C5671 H5645 0.950 . S
C5671 C5670 1.414 . S
C5671 C5672 1.374 . S
C5672 H5646 0.950 . S
C5672 C5668 1.385 . S
C5672 C5671 1.374 . S
C5673 C5670 1.499 . S
C5673 C5674 1.373 . S
C5673 C5675 1.389 . S
C5674 H5647 0.950 . S
C5674 C5660 1.377 . S
C5674 C5673 1.373 . S
C5675 C5659 1.377 . S
C5675 C5673 1.389 . S
C5675 C5676 1.524 . S
C5676 C5675 1.524 . S
C5676 C5677 1.397 . S
C5676 C5681 1.363 . S
C5677 H5648 0.950 . S
C5677 C5676 1.397 . S
C5677 C5678 1.334 . S
C5678 H5649 0.950 . S
C5678 C5677 1.334 . S
C5678 C5679 1.287 . S
C5679 C5678 1.287 . S
C5679 C5680 1.524 . S
C5679 H5682 0.999 . S
C5680 H5650 0.950 . S
C5680 C5679 1.524 . S
C5680 C5681 1.415 . S
C5681 H5651 0.950 . S
C5681 C5676 1.363 . S
C5681 C5680 1.415 . S
H5682 C5679 0.999 . S
H5683 C5664 0.913 . S
H5684 C5702 0.951 . S
H5685 C5704 0.951 . S
H5686 C5706 0.950 . S
H5687 C5707 0.950 . S
H5688 C5709 0.950 . S
H5689 C5712 0.950 . S
H5690 C5713 0.950 . S
H5691 C5715 0.950 . S
H5692 C5716 0.950 . S
H5693 C5717 0.951 . S
H5694 C5719 0.951 . S
H5695 C5721 0.950 . S
H5696 C5722 0.950 . S
H5697 C5724 0.950 . S
H5698 C5727 0.950 . S
H5699 C5728 0.950 . S
H5700 C5730 0.950 . S
H5701 C5731 0.950 . S
C5702 H5684 0.951 . S
C5702 C5703 1.366 . S
C5702 C5704 1.388 . S
C5703 C5702 1.366 . S
C5703 C5707 1.385 . S
C5704 H5685 0.951 . S
C5704 C5702 1.388 . S
C5704 C5705 1.366 . S
C5705 C5704 1.366 . S
C5705 C5706 1.414 . S
C5705 C5708 1.499 . S
C5706 H5686 0.950 . S
C5706 C5705 1.414 . S
C5706 C5707 1.374 . S
C5707 H5687 0.950 . S
C5707 C5703 1.385 . S
C5707 C5706 1.374 . S
C5708 C5705 1.499 . S
C5708 C5709 1.373 . S
C5708 C5710 1.389 . S
C5709 H5688 0.950 . S
C5709 C5708 1.373 . S
C5709 C5725 1.377 . S
C5710 C5708 1.389 . S
C5710 C5711 1.524 . S
C5710 C5724 1.377 . S
C5711 C5710 1.524 . S
C5711 C5712 1.397 . S
C5711 C5716 1.363 . S
C5712 H5689 0.950 . S
C5712 C5711 1.397 . S
C5712 C5713 1.334 . S
C5713 H5690 0.950 . S
C5713 C5712 1.334 . S
C5713 C5714 1.287 . S
C5714 C5713 1.287 . S
C5714 C5715 1.524 . S
C5714 H5733 0.913 . S
C5715 H5691 0.950 . S
C5715 C5714 1.524 . S
C5715 C5716 1.415 . S
C5716 H5692 0.950 . S
C5716 C5711 1.363 . S
C5716 C5715 1.415 . S
C5717 H5693 0.951 . S
C5717 C5718 1.366 . S
C5717 C5719 1.388 . S
C5718 C5717 1.366 . S
C5718 C5722 1.385 . S
C5719 H5694 0.951 . S
C5719 C5717 1.388 . S
C5719 C5720 1.366 . S
C5720 C5719 1.366 . S
C5720 C5721 1.414 . S
C5720 C5723 1.499 . S
C5721 H5695 0.950 . S
C5721 C5720 1.414 . S
C5721 C5722 1.374 . S
C5722 H5696 0.950 . S
C5722 C5718 1.385 . S
C5722 C5721 1.374 . S
C5723 C5720 1.499 . S
C5723 C5724 1.373 . S
C5723 C5725 1.389 . S
C5724 H5697 0.950 . S
C5724 C5710 1.377 . S
C5724 C5723 1.373 . S
C5725 C5709 1.377 . S
C5725 C5723 1.389 . S
C5725 C5726 1.524 . S
C5726 C5725 1.524 . S
C5726 C5727 1.397 . S
C5726 C5731 1.363 . S
C5727 H5698 0.950 . S
C5727 C5726 1.397 . S
C5727 C5728 1.334 . S
C5728 H5699 0.950 . S
C5728 C5727 1.334 . S
C5728 C5729 1.287 . S
C5729 C5728 1.287 . S
C5729 C5730 1.524 . S
C5729 H5732 0.999 . S
C5730 H5700 0.950 . S
C5730 C5729 1.524 . S
C5730 C5731 1.415 . S
C5731 H5701 0.950 . S
C5731 C5726 1.363 . S
C5731 C5730 1.415 . S
H5732 C5729 0.999 . S
H5733 C5714 0.913 . S
H5734 C5752 0.951 . S
H5735 C5754 0.951 . S
H5736 C5756 0.950 . S
H5737 C5757 0.950 . S
H5738 C5759 0.950 . S
H5739 C5762 0.950 . S
H5740 C5763 0.950 . S
H5741 C5765 0.950 . S
H5742 C5766 0.950 . S
H5743 C5767 0.951 . S
H5744 C5769 0.951 . S
H5745 C5771 0.950 . S
H5746 C5772 0.950 . S
H5747 C5774 0.950 . S
H5748 C5777 0.950 . S
H5749 C5778 0.950 . S
H5750 C5780 0.950 . S
H5751 C5781 0.950 . S
C5752 H5734 0.951 . S
C5752 C5753 1.366 . S
C5752 C5754 1.388 . S
C5753 C5752 1.366 . S
C5753 C5757 1.385 . S
C5754 H5735 0.951 . S
C5754 C5752 1.388 . S
C5754 C5755 1.366 . S
C5755 C5754 1.366 . S
C5755 C5756 1.414 . S
C5755 C5758 1.499 . S
C5756 H5736 0.950 . S
C5756 C5755 1.414 . S
C5756 C5757 1.374 . S
C5757 H5737 0.950 . S
C5757 C5753 1.385 . S
C5757 C5756 1.374 . S
C5758 C5755 1.499 . S
C5758 C5759 1.373 . S
C5758 C5760 1.389 . S
C5759 H5738 0.950 . S
C5759 C5758 1.373 . S
C5759 C5775 1.377 . S
C5760 C5758 1.389 . S
C5760 C5761 1.524 . S
C5760 C5774 1.377 . S
C5761 C5760 1.524 . S
C5761 C5762 1.397 . S
C5761 C5766 1.363 . S
C5762 H5739 0.950 . S
C5762 C5761 1.397 . S
C5762 C5763 1.334 . S
C5763 H5740 0.950 . S
C5763 C5762 1.334 . S
C5763 C5764 1.287 . S
C5764 C5763 1.287 . S
C5764 C5765 1.524 . S
C5764 H5783 0.913 . S
C5765 H5741 0.950 . S
C5765 C5764 1.524 . S
C5765 C5766 1.415 . S
C5766 H5742 0.950 . S
C5766 C5761 1.363 . S
C5766 C5765 1.415 . S
C5767 H5743 0.951 . S
C5767 C5768 1.366 . S
C5767 C5769 1.388 . S
C5768 C5767 1.366 . S
C5768 C5772 1.385 . S
C5769 H5744 0.951 . S
C5769 C5767 1.388 . S
C5769 C5770 1.366 . S
C5770 C5769 1.366 . S
C5770 C5771 1.414 . S
C5770 C5773 1.499 . S
C5771 H5745 0.950 . S
C5771 C5770 1.414 . S
C5771 C5772 1.374 . S
C5772 H5746 0.950 . S
C5772 C5768 1.385 . S
C5772 C5771 1.374 . S
C5773 C5770 1.499 . S
C5773 C5774 1.373 . S
C5773 C5775 1.389 . S
C5774 H5747 0.950 . S
C5774 C5760 1.377 . S
C5774 C5773 1.373 . S
C5775 C5759 1.377 . S
C5775 C5773 1.389 . S
C5775 C5776 1.524 . S
C5776 C5775 1.524 . S
C5776 C5777 1.397 . S
C5776 C5781 1.363 . S
C5777 H5748 0.950 . S
C5777 C5776 1.397 . S
C5777 C5778 1.334 . S
C5778 H5749 0.950 . S
C5778 C5777 1.334 . S
C5778 C5779 1.287 . S
C5779 C5778 1.287 . S
C5779 C5780 1.524 . S
C5779 H5782 0.999 . S
C5780 H5750 0.950 . S
C5780 C5779 1.524 . S
C5780 C5781 1.415 . S
C5781 H5751 0.950 . S
C5781 C5776 1.363 . S
C5781 C5780 1.415 . S
H5782 C5779 0.999 . S
H5783 C5764 0.913 . S
H5784 C5802 0.951 . S
H5785 C5804 0.951 . S
H5786 C5806 0.950 . S
H5787 C5807 0.950 . S
H5788 C5809 0.950 . S
H5789 C5812 0.950 . S
H5790 C5813 0.950 . S
H5791 C5815 0.950 . S
H5792 C5816 0.950 . S
H5793 C5817 0.951 . S
H5794 C5819 0.951 . S
H5795 C5821 0.950 . S
H5796 C5822 0.950 . S
H5797 C5824 0.950 . S
H5798 C5827 0.950 . S
H5799 C5828 0.950 . S
H5800 C5830 0.950 . S
H5801 C5831 0.950 . S
C5802 H5784 0.951 . S
C5802 C5803 1.366 . S
C5802 C5804 1.388 . S
C5803 C5802 1.366 . S
C5803 C5807 1.385 . S
C5804 H5785 0.951 . S
C5804 C5802 1.388 . S
C5804 C5805 1.366 . S
C5805 C5804 1.366 . S
C5805 C5806 1.414 . S
C5805 C5808 1.499 . S
C5806 H5786 0.950 . S
C5806 C5805 1.414 . S
C5806 C5807 1.374 . S
C5807 H5787 0.950 . S
C5807 C5803 1.385 . S
C5807 C5806 1.374 . S
C5808 C5805 1.499 . S
C5808 C5809 1.373 . S
C5808 C5810 1.389 . S
C5809 H5788 0.950 . S
C5809 C5808 1.373 . S
C5809 C5825 1.377 . S
C5810 C5808 1.389 . S
C5810 C5811 1.524 . S
C5810 C5824 1.377 . S
C5811 C5810 1.524 . S
C5811 C5812 1.397 . S
C5811 C5816 1.363 . S
C5812 H5789 0.950 . S
C5812 C5811 1.397 . S
C5812 C5813 1.334 . S
C5813 H5790 0.950 . S
C5813 C5812 1.334 . S
C5813 C5814 1.287 . S
C5814 C5813 1.287 . S
C5814 C5815 1.524 . S
C5814 H5833 0.913 . S
C5815 H5791 0.950 . S
C5815 C5814 1.524 . S
C5815 C5816 1.415 . S
C5816 H5792 0.950 . S
C5816 C5811 1.363 . S
C5816 C5815 1.415 . S
C5817 H5793 0.951 . S
C5817 C5818 1.366 . S
C5817 C5819 1.388 . S
C5818 C5817 1.366 . S
C5818 C5822 1.385 . S
C5819 H5794 0.951 . S
C5819 C5817 1.388 . S
C5819 C5820 1.366 . S
C5820 C5819 1.366 . S
C5820 C5821 1.414 . S
C5820 C5823 1.499 . S
C5821 H5795 0.950 . S
C5821 C5820 1.414 . S
C5821 C5822 1.374 . S
C5822 H5796 0.950 . S
C5822 C5818 1.385 . S
C5822 C5821 1.374 . S
C5823 C5820 1.499 . S
C5823 C5824 1.373 . S
C5823 C5825 1.389 . S
C5824 H5797 0.950 . S
C5824 C5810 1.377 . S
C5824 C5823 1.373 . S
C5825 C5809 1.377 . S
C5825 C5823 1.389 . S
C5825 C5826 1.524 . S
C5826 C5825 1.524 . S
C5826 C5827 1.397 . S
C5826 C5831 1.363 . S
C5827 H5798 0.950 . S
C5827 C5826 1.397 . S
C5827 C5828 1.334 . S
C5828 H5799 0.950 . S
C5828 C5827 1.334 . S
C5828 C5829 1.287 . S
C5829 C5828 1.287 . S
C5829 C5830 1.524 . S
C5829 H5832 0.999 . S
C5830 H5800 0.950 . S
C5830 C5829 1.524 . S
C5830 C5831 1.415 . S
C5831 H5801 0.950 . S
C5831 C5826 1.363 . S
C5831 C5830 1.415 . S
H5832 C5829 0.999 . S
H5833 C5814 0.913 . S
H5834 C5852 0.951 . S
H5835 C5854 0.951 . S
H5836 C5856 0.950 . S
H5837 C5857 0.950 . S
H5838 C5859 0.950 . S
H5839 C5862 0.950 . S
H5840 C5863 0.950 . S
H5841 C5865 0.950 . S
H5842 C5866 0.950 . S
H5843 C5867 0.951 . S
H5844 C5869 0.951 . S
H5845 C5871 0.950 . S
H5846 C5872 0.950 . S
H5847 C5874 0.950 . S
H5848 C5877 0.950 . S
H5849 C5878 0.950 . S
H5850 C5880 0.950 . S
H5851 C5881 0.950 . S
C5852 H5834 0.951 . S
C5852 C5853 1.366 . S
C5852 C5854 1.388 . S
C5853 C5852 1.366 . S
C5853 C5857 1.385 . S
C5854 H5835 0.951 . S
C5854 C5852 1.388 . S
C5854 C5855 1.366 . S
C5855 C5854 1.366 . S
C5855 C5856 1.414 . S
C5855 C5858 1.499 . S
C5856 H5836 0.950 . S
C5856 C5855 1.414 . S
C5856 C5857 1.374 . S
C5857 H5837 0.950 . S
C5857 C5853 1.385 . S
C5857 C5856 1.374 . S
C5858 C5855 1.499 . S
C5858 C5859 1.373 . S
C5858 C5860 1.389 . S
C5859 H5838 0.950 . S
C5859 C5858 1.373 . S
C5859 C5875 1.377 . S
C5860 C5858 1.389 . S
C5860 C5861 1.524 . S
C5860 C5874 1.377 . S
C5861 C5860 1.524 . S
C5861 C5862 1.397 . S
C5861 C5866 1.363 . S
C5862 H5839 0.950 . S
C5862 C5861 1.397 . S
C5862 C5863 1.334 . S
C5863 H5840 0.950 . S
C5863 C5862 1.334 . S
C5863 C5864 1.287 . S
C5864 C5863 1.287 . S
C5864 C5865 1.524 . S
C5864 H5883 0.913 . S
C5865 H5841 0.950 . S
C5865 C5864 1.524 . S
C5865 C5866 1.415 . S
C5866 H5842 0.950 . S
C5866 C5861 1.363 . S
C5866 C5865 1.415 . S
C5867 H5843 0.951 . S
C5867 C5868 1.366 . S
C5867 C5869 1.388 . S
C5868 C5867 1.366 . S
C5868 C5872 1.385 . S
C5869 H5844 0.951 . S
C5869 C5867 1.388 . S
C5869 C5870 1.366 . S
C5870 C5869 1.366 . S
C5870 C5871 1.414 . S
C5870 C5873 1.499 . S
C5871 H5845 0.950 . S
C5871 C5870 1.414 . S
C5871 C5872 1.374 . S
C5872 H5846 0.950 . S
C5872 C5868 1.385 . S
C5872 C5871 1.374 . S
C5873 C5870 1.499 . S
C5873 C5874 1.373 . S
C5873 C5875 1.389 . S
C5874 H5847 0.950 . S
C5874 C5860 1.377 . S
C5874 C5873 1.373 . S
C5875 C5859 1.377 . S
C5875 C5873 1.389 . S
C5875 C5876 1.524 . S
C5876 C5875 1.524 . S
C5876 C5877 1.397 . S
C5876 C5881 1.363 . S
C5877 H5848 0.950 . S
C5877 C5876 1.397 . S
C5877 C5878 1.334 . S
C5878 H5849 0.950 . S
C5878 C5877 1.334 . S
C5878 C5879 1.287 . S
C5879 C5878 1.287 . S
C5879 C5880 1.524 . S
C5879 H5882 0.999 . S
C5880 H5850 0.950 . S
C5880 C5879 1.524 . S
C5880 C5881 1.415 . S
C5881 H5851 0.950 . S
C5881 C5876 1.363 . S
C5881 C5880 1.415 . S
H5882 C5879 0.999 . S
H5883 C5864 0.913 . S
H5884 C5902 0.951 . S
H5885 C5904 0.951 . S
H5886 C5906 0.950 . S
H5887 C5907 0.950 . S
H5888 C5909 0.950 . S
H5889 C5912 0.950 . S
H5890 C5913 0.950 . S
H5891 C5915 0.950 . S
H5892 C5916 0.950 . S
H5893 C5917 0.951 . S
H5894 C5919 0.951 . S
H5895 C5921 0.950 . S
H5896 C5922 0.950 . S
H5897 C5924 0.950 . S
H5898 C5927 0.950 . S
H5899 C5928 0.950 . S
H5900 C5930 0.950 . S
H5901 C5931 0.950 . S
C5902 H5884 0.951 . S
C5902 C5903 1.366 . S
C5902 C5904 1.388 . S
C5903 C5902 1.366 . S
C5903 C5907 1.385 . S
C5904 H5885 0.951 . S
C5904 C5902 1.388 . S
C5904 C5905 1.366 . S
C5905 C5904 1.366 . S
C5905 C5906 1.414 . S
C5905 C5908 1.499 . S
C5906 H5886 0.950 . S
C5906 C5905 1.414 . S
C5906 C5907 1.374 . S
C5907 H5887 0.950 . S
C5907 C5903 1.385 . S
C5907 C5906 1.374 . S
C5908 C5905 1.499 . S
C5908 C5909 1.373 . S
C5908 C5910 1.389 . S
C5909 H5888 0.950 . S
C5909 C5908 1.373 . S
C5909 C5925 1.377 . S
C5910 C5908 1.389 . S
C5910 C5911 1.524 . S
C5910 C5924 1.377 . S
C5911 C5910 1.524 . S
C5911 C5912 1.397 . S
C5911 C5916 1.363 . S
C5912 H5889 0.950 . S
C5912 C5911 1.397 . S
C5912 C5913 1.334 . S
C5913 H5890 0.950 . S
C5913 C5912 1.334 . S
C5913 C5914 1.287 . S
C5914 C5913 1.287 . S
C5914 C5915 1.524 . S
C5914 H5933 0.913 . S
C5915 H5891 0.950 . S
C5915 C5914 1.524 . S
C5915 C5916 1.415 . S
C5916 H5892 0.950 . S
C5916 C5911 1.363 . S
C5916 C5915 1.415 . S
C5917 H5893 0.951 . S
C5917 C5918 1.366 . S
C5917 C5919 1.388 . S
C5918 C5917 1.366 . S
C5918 C5922 1.385 . S
C5919 H5894 0.951 . S
C5919 C5917 1.388 . S
C5919 C5920 1.366 . S
C5920 C5919 1.366 . S
C5920 C5921 1.414 . S
C5920 C5923 1.499 . S
C5921 H5895 0.950 . S
C5921 C5920 1.414 . S
C5921 C5922 1.374 . S
C5922 H5896 0.950 . S
C5922 C5918 1.385 . S
C5922 C5921 1.374 . S
C5923 C5920 1.499 . S
C5923 C5924 1.373 . S
C5923 C5925 1.389 . S
C5924 H5897 0.950 . S
C5924 C5910 1.377 . S
C5924 C5923 1.373 . S
C5925 C5909 1.377 . S
C5925 C5923 1.389 . S
C5925 C5926 1.524 . S
C5926 C5925 1.524 . S
C5926 C5927 1.397 . S
C5926 C5931 1.363 . S
C5927 H5898 0.950 . S
C5927 C5926 1.397 . S
C5927 C5928 1.334 . S
C5928 H5899 0.950 . S
C5928 C5927 1.334 . S
C5928 C5929 1.287 . S
C5929 C5928 1.287 . S
C5929 C5930 1.524 . S
C5929 H5932 0.999 . S
C5930 H5900 0.950 . S
C5930 C5929 1.524 . S
C5930 C5931 1.415 . S
C5931 H5901 0.950 . S
C5931 C5926 1.363 . S
C5931 C5930 1.415 . S
H5932 C5929 0.999 . S
H5933 C5914 0.913 . S
H5934 C5952 0.951 . S
H5935 C5954 0.951 . S
H5936 C5956 0.950 . S
H5937 C5957 0.950 . S
H5938 C5959 0.950 . S
H5939 C5962 0.950 . S
H5940 C5963 0.950 . S
H5941 C5965 0.950 . S
H5942 C5966 0.950 . S
H5943 C5967 0.951 . S
H5944 C5969 0.951 . S
H5945 C5971 0.950 . S
H5946 C5972 0.950 . S
H5947 C5974 0.950 . S
H5948 C5977 0.950 . S
H5949 C5978 0.950 . S
H5950 C5980 0.950 . S
H5951 C5981 0.950 . S
C5952 H5934 0.951 . S
C5952 C5953 1.366 . S
C5952 C5954 1.388 . S
C5953 C5952 1.366 . S
C5953 C5957 1.385 . S
C5954 H5935 0.951 . S
C5954 C5952 1.388 . S
C5954 C5955 1.366 . S
C5955 C5954 1.366 . S
C5955 C5956 1.414 . S
C5955 C5958 1.499 . S
C5956 H5936 0.950 . S
C5956 C5955 1.414 . S
C5956 C5957 1.374 . S
C5957 H5937 0.950 . S
C5957 C5953 1.385 . S
C5957 C5956 1.374 . S
C5958 C5955 1.499 . S
C5958 C5959 1.373 . S
C5958 C5960 1.389 . S
C5959 H5938 0.950 . S
C5959 C5958 1.373 . S
C5959 C5975 1.377 . S
C5960 C5958 1.389 . S
C5960 C5961 1.524 . S
C5960 C5974 1.377 . S
C5961 C5960 1.524 . S
C5961 C5962 1.397 . S
C5961 C5966 1.363 . S
C5962 H5939 0.950 . S
C5962 C5961 1.397 . S
C5962 C5963 1.334 . S
C5963 H5940 0.950 . S
C5963 C5962 1.334 . S
C5963 C5964 1.287 . S
C5964 C5963 1.287 . S
C5964 C5965 1.524 . S
C5964 H5983 0.913 . S
C5965 H5941 0.950 . S
C5965 C5964 1.524 . S
C5965 C5966 1.415 . S
C5966 H5942 0.950 . S
C5966 C5961 1.363 . S
C5966 C5965 1.415 . S
C5967 H5943 0.951 . S
C5967 C5968 1.366 . S
C5967 C5969 1.388 . S
C5968 C5967 1.366 . S
C5968 C5972 1.385 . S
C5969 H5944 0.951 . S
C5969 C5967 1.388 . S
C5969 C5970 1.366 . S
C5970 C5969 1.366 . S
C5970 C5971 1.414 . S
C5970 C5973 1.499 . S
C5971 H5945 0.950 . S
C5971 C5970 1.414 . S
C5971 C5972 1.374 . S
C5972 H5946 0.950 . S
C5972 C5968 1.385 . S
C5972 C5971 1.374 . S
C5973 C5970 1.499 . S
C5973 C5974 1.373 . S
C5973 C5975 1.389 . S
C5974 H5947 0.950 . S
C5974 C5960 1.377 . S
C5974 C5973 1.373 . S
C5975 C5959 1.377 . S
C5975 C5973 1.389 . S
C5975 C5976 1.524 . S
C5976 C5975 1.524 . S
C5976 C5977 1.397 . S
C5976 C5981 1.363 . S
C5977 H5948 0.950 . S
C5977 C5976 1.397 . S
C5977 C5978 1.334 . S
C5978 H5949 0.950 . S
C5978 C5977 1.334 . S
C5978 C5979 1.287 . S
C5979 C5978 1.287 . S
C5979 C5980 1.524 . S
C5979 H5982 0.999 . S
C5980 H5950 0.950 . S
C5980 C5979 1.524 . S
C5980 C5981 1.415 . S
C5981 H5951 0.950 . S
C5981 C5976 1.363 . S
C5981 C5980 1.415 . S
H5982 C5979 0.999 . S
H5983 C5964 0.913 . S
H5984 C6002 0.951 . S
H5985 C6004 0.951 . S
H5986 C6006 0.950 . S
H5987 C6007 0.950 . S
H5988 C6009 0.950 . S
H5989 C6012 0.950 . S
H5990 C6013 0.950 . S
H5991 C6015 0.950 . S
H5992 C6016 0.950 . S
H5993 C6017 0.951 . S
H5994 C6019 0.951 . S
H5995 C6021 0.950 . S
H5996 C6022 0.950 . S
H5997 C6024 0.950 . S
H5998 C6027 0.950 . S
H5999 C6028 0.950 . S
H6000 C6030 0.950 . S
H6001 C6031 0.950 . S
C6002 H5984 0.951 . S
C6002 C6003 1.366 . S
C6002 C6004 1.388 . S
C6003 C6002 1.366 . S
C6003 C6007 1.385 . S
C6004 H5985 0.951 . S
C6004 C6002 1.388 . S
C6004 C6005 1.366 . S
C6005 C6004 1.366 . S
C6005 C6006 1.414 . S
C6005 C6008 1.499 . S
C6006 H5986 0.950 . S
C6006 C6005 1.414 . S
C6006 C6007 1.374 . S
C6007 H5987 0.950 . S
C6007 C6003 1.385 . S
C6007 C6006 1.374 . S
C6008 C6005 1.499 . S
C6008 C6009 1.373 . S
C6008 C6010 1.389 . S
C6009 H5988 0.950 . S
C6009 C6008 1.373 . S
C6009 C6025 1.377 . S
C6010 C6008 1.389 . S
C6010 C6011 1.524 . S
C6010 C6024 1.377 . S
C6011 C6010 1.524 . S
C6011 C6012 1.397 . S
C6011 C6016 1.363 . S
C6012 H5989 0.950 . S
C6012 C6011 1.397 . S
C6012 C6013 1.334 . S
C6013 H5990 0.950 . S
C6013 C6012 1.334 . S
C6013 C6014 1.287 . S
C6014 C6013 1.287 . S
C6014 C6015 1.524 . S
C6014 H6033 0.913 . S
C6015 H5991 0.950 . S
C6015 C6014 1.524 . S
C6015 C6016 1.415 . S
C6016 H5992 0.950 . S
C6016 C6011 1.363 . S
C6016 C6015 1.415 . S
C6017 H5993 0.951 . S
C6017 C6018 1.366 . S
C6017 C6019 1.388 . S
C6018 C6017 1.366 . S
C6018 C6022 1.385 . S
C6019 H5994 0.951 . S
C6019 C6017 1.388 . S
C6019 C6020 1.366 . S
C6020 C6019 1.366 . S
C6020 C6021 1.414 . S
C6020 C6023 1.499 . S
C6021 H5995 0.950 . S
C6021 C6020 1.414 . S
C6021 C6022 1.374 . S
C6022 H5996 0.950 . S
C6022 C6018 1.385 . S
C6022 C6021 1.374 . S
C6023 C6020 1.499 . S
C6023 C6024 1.373 . S
C6023 C6025 1.389 . S
C6024 H5997 0.950 . S
C6024 C6010 1.377 . S
C6024 C6023 1.373 . S
C6025 C6009 1.377 . S
C6025 C6023 1.389 . S
C6025 C6026 1.524 . S
C6026 C6025 1.524 . S
C6026 C6027 1.397 . S
C6026 C6031 1.363 . S
C6027 H5998 0.950 . S
C6027 C6026 1.397 . S
C6027 C6028 1.334 . S
C6028 H5999 0.950 . S
C6028 C6027 1.334 . S
C6028 C6029 1.287 . S
C6029 C6028 1.287 . S
C6029 C6030 1.524 . S
C6029 H6032 0.999 . S
C6030 H6000 0.950 . S
C6030 C6029 1.524 . S
C6030 C6031 1.415 . S
C6031 H6001 0.950 . S
C6031 C6026 1.363 . S
C6031 C6030 1.415 . S
H6032 C6029 0.999 . S
H6033 C6014 0.913 . S
H6034 C6052 0.951 . S
H6035 C6054 0.951 . S
H6036 C6056 0.950 . S
H6037 C6057 0.950 . S
H6038 C6059 0.950 . S
H6039 C6062 0.950 . S
H6040 C6063 0.950 . S
H6041 C6065 0.950 . S
H6042 C6066 0.950 . S
H6043 C6067 0.951 . S
H6044 C6069 0.951 . S
H6045 C6071 0.950 . S
H6046 C6072 0.950 . S
H6047 C6074 0.950 . S
H6048 C6077 0.950 . S
H6049 C6078 0.950 . S
H6050 C6080 0.950 . S
H6051 C6081 0.950 . S
C6052 H6034 0.951 . S
C6052 C6053 1.366 . S
C6052 C6054 1.388 . S
C6053 C6052 1.366 . S
C6053 C6057 1.385 . S
C6054 H6035 0.951 . S
C6054 C6052 1.388 . S
C6054 C6055 1.366 . S
C6055 C6054 1.366 . S
C6055 C6056 1.414 . S
C6055 C6058 1.499 . S
C6056 H6036 0.950 . S
C6056 C6055 1.414 . S
C6056 C6057 1.374 . S
C6057 H6037 0.950 . S
C6057 C6053 1.385 . S
C6057 C6056 1.374 . S
C6058 C6055 1.499 . S
C6058 C6059 1.373 . S
C6058 C6060 1.389 . S
C6059 H6038 0.950 . S
C6059 C6058 1.373 . S
C6059 C6075 1.377 . S
C6060 C6058 1.389 . S
C6060 C6061 1.524 . S
C6060 C6074 1.377 . S
C6061 C6060 1.524 . S
C6061 C6062 1.397 . S
C6061 C6066 1.363 . S
C6062 H6039 0.950 . S
C6062 C6061 1.397 . S
C6062 C6063 1.334 . S
C6063 H6040 0.950 . S
C6063 C6062 1.334 . S
C6063 C6064 1.287 . S
C6064 C6063 1.287 . S
C6064 C6065 1.524 . S
C6064 H6083 0.913 . S
C6065 H6041 0.950 . S
C6065 C6064 1.524 . S
C6065 C6066 1.415 . S
C6066 H6042 0.950 . S
C6066 C6061 1.363 . S
C6066 C6065 1.415 . S
C6067 H6043 0.951 . S
C6067 C6068 1.366 . S
C6067 C6069 1.388 . S
C6068 C6067 1.366 . S
C6068 C6072 1.385 . S
C6069 H6044 0.951 . S
C6069 C6067 1.388 . S
C6069 C6070 1.366 . S
C6070 C6069 1.366 . S
C6070 C6071 1.414 . S
C6070 C6073 1.499 . S
C6071 H6045 0.950 . S
C6071 C6070 1.414 . S
C6071 C6072 1.374 . S
C6072 H6046 0.950 . S
C6072 C6068 1.385 . S
C6072 C6071 1.374 . S
C6073 C6070 1.499 . S
C6073 C6074 1.373 . S
C6073 C6075 1.389 . S
C6074 H6047 0.950 . S
C6074 C6060 1.377 . S
C6074 C6073 1.373 . S
C6075 C6059 1.377 . S
C6075 C6073 1.389 . S
C6075 C6076 1.524 . S
C6076 C6075 1.524 . S
C6076 C6077 1.397 . S
C6076 C6081 1.363 . S
C6077 H6048 0.950 . S
C6077 C6076 1.397 . S
C6077 C6078 1.334 . S
C6078 H6049 0.950 . S
C6078 C6077 1.334 . S
C6078 C6079 1.287 . S
C6079 C6078 1.287 . S
C6079 C6080 1.524 . S
C6079 H6082 0.999 . S
C6080 H6050 0.950 . S
C6080 C6079 1.524 . S
C6080 C6081 1.415 . S
C6081 H6051 0.950 . S
C6081 C6076 1.363 . S
C6081 C6080 1.415 . S
H6082 C6079 0.999 . S
H6083 C6064 0.913 . S
H6084 C6102 0.951 . S
H6085 C6104 0.951 . S
H6086 C6106 0.950 . S
H6087 C6107 0.950 . S
H6088 C6109 0.950 . S
H6089 C6112 0.950 . S
H6090 C6113 0.950 . S
H6091 C6115 0.950 . S
H6092 C6116 0.950 . S
H6093 C6117 0.951 . S
H6094 C6119 0.951 . S
H6095 C6121 0.950 . S
H6096 C6122 0.950 . S
H6097 C6124 0.950 . S
H6098 C6127 0.950 . S
H6099 C6128 0.950 . S
H6100 C6130 0.950 . S
H6101 C6131 0.950 . S
C6102 H6084 0.951 . S
C6102 C6103 1.366 . S
C6102 C6104 1.388 . S
C6103 C6102 1.366 . S
C6103 C6107 1.385 . S
C6104 H6085 0.951 . S
C6104 C6102 1.388 . S
C6104 C6105 1.366 . S
C6105 C6104 1.366 . S
C6105 C6106 1.414 . S
C6105 C6108 1.499 . S
C6106 H6086 0.950 . S
C6106 C6105 1.414 . S
C6106 C6107 1.374 . S
C6107 H6087 0.950 . S
C6107 C6103 1.385 . S
C6107 C6106 1.374 . S
C6108 C6105 1.499 . S
C6108 C6109 1.373 . S
C6108 C6110 1.389 . S
C6109 H6088 0.950 . S
C6109 C6108 1.373 . S
C6109 C6125 1.377 . S
C6110 C6108 1.389 . S
C6110 C6111 1.524 . S
C6110 C6124 1.377 . S
C6111 C6110 1.524 . S
C6111 C6112 1.397 . S
C6111 C6116 1.363 . S
C6112 H6089 0.950 . S
C6112 C6111 1.397 . S
C6112 C6113 1.334 . S
C6113 H6090 0.950 . S
C6113 C6112 1.334 . S
C6113 C6114 1.287 . S
C6114 C6113 1.287 . S
C6114 C6115 1.524 . S
C6114 H6133 0.913 . S
C6115 H6091 0.950 . S
C6115 C6114 1.524 . S
C6115 C6116 1.415 . S
C6116 H6092 0.950 . S
C6116 C6111 1.363 . S
C6116 C6115 1.415 . S
C6117 H6093 0.951 . S
C6117 C6118 1.366 . S
C6117 C6119 1.388 . S
C6118 C6117 1.366 . S
C6118 C6122 1.385 . S
C6119 H6094 0.951 . S
C6119 C6117 1.388 . S
C6119 C6120 1.366 . S
C6120 C6119 1.366 . S
C6120 C6121 1.414 . S
C6120 C6123 1.499 . S
C6121 H6095 0.950 . S
C6121 C6120 1.414 . S
C6121 C6122 1.374 . S
C6122 H6096 0.950 . S
C6122 C6118 1.385 . S
C6122 C6121 1.374 . S
C6123 C6120 1.499 . S
C6123 C6124 1.373 . S
C6123 C6125 1.389 . S
C6124 H6097 0.950 . S
C6124 C6110 1.377 . S
C6124 C6123 1.373 . S
C6125 C6109 1.377 . S
C6125 C6123 1.389 . S
C6125 C6126 1.524 . S
C6126 C6125 1.524 . S
C6126 C6127 1.397 . S
C6126 C6131 1.363 . S
C6127 H6098 0.950 . S
C6127 C6126 1.397 . S
C6127 C6128 1.334 . S
C6128 H6099 0.950 . S
C6128 C6127 1.334 . S
C6128 C6129 1.287 . S
C6129 C6128 1.287 . S
C6129 C6130 1.524 . S
C6129 H6132 0.999 . S
C6130 H6100 0.950 . S
C6130 C6129 1.524 . S
C6130 C6131 1.415 . S
C6131 H6101 0.950 . S
C6131 C6126 1.363 . S
C6131 C6130 1.415 . S
H6132 C6129 0.999 . S
H6133 C6114 0.913 . S
H6134 C6152 0.951 . S
H6135 C6154 0.951 . S
H6136 C6156 0.950 . S
H6137 C6157 0.950 . S
H6138 C6159 0.950 . S
H6139 C6162 0.950 . S
H6140 C6163 0.950 . S
H6141 C6165 0.950 . S
H6142 C6166 0.950 . S
H6143 C6167 0.951 . S
H6144 C6169 0.951 . S
H6145 C6171 0.950 . S
H6146 C6172 0.950 . S
H6147 C6174 0.950 . S
H6148 C6177 0.950 . S
H6149 C6178 0.950 . S
H6150 C6180 0.950 . S
H6151 C6181 0.950 . S
C6152 H6134 0.951 . S
C6152 C6153 1.366 . S
C6152 C6154 1.388 . S
C6153 C6152 1.366 . S
C6153 C6157 1.385 . S
C6154 H6135 0.951 . S
C6154 C6152 1.388 . S
C6154 C6155 1.366 . S
C6155 C6154 1.366 . S
C6155 C6156 1.414 . S
C6155 C6158 1.499 . S
C6156 H6136 0.950 . S
C6156 C6155 1.414 . S
C6156 C6157 1.374 . S
C6157 H6137 0.950 . S
C6157 C6153 1.385 . S
C6157 C6156 1.374 . S
C6158 C6155 1.499 . S
C6158 C6159 1.373 . S
C6158 C6160 1.389 . S
C6159 H6138 0.950 . S
C6159 C6158 1.373 . S
C6159 C6175 1.377 . S
C6160 C6158 1.389 . S
C6160 C6161 1.524 . S
C6160 C6174 1.377 . S
C6161 C6160 1.524 . S
C6161 C6162 1.397 . S
C6161 C6166 1.363 . S
C6162 H6139 0.950 . S
C6162 C6161 1.397 . S
C6162 C6163 1.334 . S
C6163 H6140 0.950 . S
C6163 C6162 1.334 . S
C6163 C6164 1.287 . S
C6164 C6163 1.287 . S
C6164 C6165 1.524 . S
C6164 H6183 0.913 . S
C6165 H6141 0.950 . S
C6165 C6164 1.524 . S
C6165 C6166 1.415 . S
C6166 H6142 0.950 . S
C6166 C6161 1.363 . S
C6166 C6165 1.415 . S
C6167 H6143 0.951 . S
C6167 C6168 1.366 . S
C6167 C6169 1.388 . S
C6168 C6167 1.366 . S
C6168 C6172 1.385 . S
C6169 H6144 0.951 . S
C6169 C6167 1.388 . S
C6169 C6170 1.366 . S
C6170 C6169 1.366 . S
C6170 C6171 1.414 . S
C6170 C6173 1.499 . S
C6171 H6145 0.950 . S
C6171 C6170 1.414 . S
C6171 C6172 1.374 . S
C6172 H6146 0.950 . S
C6172 C6168 1.385 . S
C6172 C6171 1.374 . S
C6173 C6170 1.499 . S
C6173 C6174 1.373 . S
C6173 C6175 1.389 . S
C6174 H6147 0.950 . S
C6174 C6160 1.377 . S
C6174 C6173 1.373 . S
C6175 C6159 1.377 . S
C6175 C6173 1.389 . S
C6175 C6176 1.524 . S
C6176 C6175 1.524 . S
C6176 C6177 1.397 . S
C6176 C6181 1.363 . S
C6177 H6148 0.950 . S
C6177 C6176 1.397 . S
C6177 C6178 1.334 . S
C6178 H6149 0.950 . S
C6178 C6177 1.334 . S
C6178 C6179 1.287 . S
C6179 C6178 1.287 . S
C6179 C6180 1.524 . S
C6179 H6182 0.999 . S
C6180 H6150 0.950 . S
C6180 C6179 1.524 . S
C6180 C6181 1.415 . S
C6181 H6151 0.950 . S
C6181 C6176 1.363 . S
C6181 C6180 1.415 . S
H6182 C6179 0.999 . S
H6183 C6164 0.913 . S
H6184 C6202 0.951 . S
H6185 C6204 0.951 . S
H6186 C6206 0.950 . S
H6187 C6207 0.950 . S
H6188 C6209 0.950 . S
H6189 C6212 0.950 . S
H6190 C6213 0.950 . S
H6191 C6215 0.950 . S
H6192 C6216 0.950 . S
H6193 C6217 0.951 . S
H6194 C6219 0.951 . S
H6195 C6221 0.950 . S
H6196 C6222 0.950 . S
H6197 C6224 0.950 . S
H6198 C6227 0.950 . S
H6199 C6228 0.950 . S
H6200 C6230 0.950 . S
H6201 C6231 0.950 . S
C6202 H6184 0.951 . S
C6202 C6203 1.366 . S
C6202 C6204 1.388 . S
C6203 C6202 1.366 . S
C6203 C6207 1.385 . S
C6204 H6185 0.951 . S
C6204 C6202 1.388 . S
C6204 C6205 1.366 . S
C6205 C6204 1.366 . S
C6205 C6206 1.414 . S
C6205 C6208 1.499 . S
C6206 H6186 0.950 . S
C6206 C6205 1.414 . S
C6206 C6207 1.374 . S
C6207 H6187 0.950 . S
C6207 C6203 1.385 . S
C6207 C6206 1.374 . S
C6208 C6205 1.499 . S
C6208 C6209 1.373 . S
C6208 C6210 1.389 . S
C6209 H6188 0.950 . S
C6209 C6208 1.373 . S
C6209 C6225 1.377 . S
C6210 C6208 1.389 . S
C6210 C6211 1.524 . S
C6210 C6224 1.377 . S
C6211 C6210 1.524 . S
C6211 C6212 1.397 . S
C6211 C6216 1.363 . S
C6212 H6189 0.950 . S
C6212 C6211 1.397 . S
C6212 C6213 1.334 . S
C6213 H6190 0.950 . S
C6213 C6212 1.334 . S
C6213 C6214 1.287 . S
C6214 C6213 1.287 . S
C6214 C6215 1.524 . S
C6214 H6233 0.913 . S
C6215 H6191 0.950 . S
C6215 C6214 1.524 . S
C6215 C6216 1.415 . S
C6216 H6192 0.950 . S
C6216 C6211 1.363 . S
C6216 C6215 1.415 . S
C6217 H6193 0.951 . S
C6217 C6218 1.366 . S
C6217 C6219 1.388 . S
C6218 C6217 1.366 . S
C6218 C6222 1.385 . S
C6219 H6194 0.951 . S
C6219 C6217 1.388 . S
C6219 C6220 1.366 . S
C6220 C6219 1.366 . S
C6220 C6221 1.414 . S
C6220 C6223 1.499 . S
C6221 H6195 0.950 . S
C6221 C6220 1.414 . S
C6221 C6222 1.374 . S
C6222 H6196 0.950 . S
C6222 C6218 1.385 . S
C6222 C6221 1.374 . S
C6223 C6220 1.499 . S
C6223 C6224 1.373 . S
C6223 C6225 1.389 . S
C6224 H6197 0.950 . S
C6224 C6210 1.377 . S
C6224 C6223 1.373 . S
C6225 C6209 1.377 . S
C6225 C6223 1.389 . S
C6225 C6226 1.524 . S
C6226 C6225 1.524 . S
C6226 C6227 1.397 . S
C6226 C6231 1.363 . S
C6227 H6198 0.950 . S
C6227 C6226 1.397 . S
C6227 C6228 1.334 . S
C6228 H6199 0.950 . S
C6228 C6227 1.334 . S
C6228 C6229 1.287 . S
C6229 C6228 1.287 . S
C6229 C6230 1.524 . S
C6229 H6232 0.999 . S
C6230 H6200 0.950 . S
C6230 C6229 1.524 . S
C6230 C6231 1.415 . S
C6231 H6201 0.950 . S
C6231 C6226 1.363 . S
C6231 C6230 1.415 . S
H6232 C6229 0.999 . S
H6233 C6214 0.913 . S
H6234 C6252 0.951 . S
H6235 C6254 0.951 . S
H6236 C6256 0.950 . S
H6237 C6257 0.950 . S
H6238 C6259 0.950 . S
H6239 C6262 0.950 . S
H6240 C6263 0.950 . S
H6241 C6265 0.950 . S
H6242 C6266 0.950 . S
H6243 C6267 0.951 . S
H6244 C6269 0.951 . S
H6245 C6271 0.950 . S
H6246 C6272 0.950 . S
H6247 C6274 0.950 . S
H6248 C6277 0.950 . S
H6249 C6278 0.950 . S
H6250 C6280 0.950 . S
H6251 C6281 0.950 . S
C6252 H6234 0.951 . S
C6252 C6253 1.366 . S
C6252 C6254 1.388 . S
C6253 C6252 1.366 . S
C6253 C6257 1.385 . S
C6254 H6235 0.951 . S
C6254 C6252 1.388 . S
C6254 C6255 1.366 . S
C6255 C6254 1.366 . S
C6255 C6256 1.414 . S
C6255 C6258 1.499 . S
C6256 H6236 0.950 . S
C6256 C6255 1.414 . S
C6256 C6257 1.374 . S
C6257 H6237 0.950 . S
C6257 C6253 1.385 . S
C6257 C6256 1.374 . S
C6258 C6255 1.499 . S
C6258 C6259 1.373 . S
C6258 C6260 1.389 . S
C6259 H6238 0.950 . S
C6259 C6258 1.373 . S
C6259 C6275 1.377 . S
C6260 C6258 1.389 . S
C6260 C6261 1.524 . S
C6260 C6274 1.377 . S
C6261 C6260 1.524 . S
C6261 C6262 1.397 . S
C6261 C6266 1.363 . S
C6262 H6239 0.950 . S
C6262 C6261 1.397 . S
C6262 C6263 1.334 . S
C6263 H6240 0.950 . S
C6263 C6262 1.334 . S
C6263 C6264 1.287 . S
C6264 C6263 1.287 . S
C6264 C6265 1.524 . S
C6264 H6283 0.913 . S
C6265 H6241 0.950 . S
C6265 C6264 1.524 . S
C6265 C6266 1.415 . S
C6266 H6242 0.950 . S
C6266 C6261 1.363 . S
C6266 C6265 1.415 . S
C6267 H6243 0.951 . S
C6267 C6268 1.366 . S
C6267 C6269 1.388 . S
C6268 C6267 1.366 . S
C6268 C6272 1.385 . S
C6269 H6244 0.951 . S
C6269 C6267 1.388 . S
C6269 C6270 1.366 . S
C6270 C6269 1.366 . S
C6270 C6271 1.414 . S
C6270 C6273 1.499 . S
C6271 H6245 0.950 . S
C6271 C6270 1.414 . S
C6271 C6272 1.374 . S
C6272 H6246 0.950 . S
C6272 C6268 1.385 . S
C6272 C6271 1.374 . S
C6273 C6270 1.499 . S
C6273 C6274 1.373 . S
C6273 C6275 1.389 . S
C6274 H6247 0.950 . S
C6274 C6260 1.377 . S
C6274 C6273 1.373 . S
C6275 C6259 1.377 . S
C6275 C6273 1.389 . S
C6275 C6276 1.524 . S
C6276 C6275 1.524 . S
C6276 C6277 1.397 . S
C6276 C6281 1.363 . S
C6277 H6248 0.950 . S
C6277 C6276 1.397 . S
C6277 C6278 1.334 . S
C6278 H6249 0.950 . S
C6278 C6277 1.334 . S
C6278 C6279 1.287 . S
C6279 C6278 1.287 . S
C6279 C6280 1.524 . S
C6279 H6282 0.999 . S
C6280 H6250 0.950 . S
C6280 C6279 1.524 . S
C6280 C6281 1.415 . S
C6281 H6251 0.950 . S
C6281 C6276 1.363 . S
C6281 C6280 1.415 . S
H6282 C6279 0.999 . S
H6283 C6264 0.913 . S
H6284 C6302 0.951 . S
H6285 C6304 0.951 . S
H6286 C6306 0.950 . S
H6287 C6307 0.950 . S
H6288 C6309 0.950 . S
H6289 C6312 0.950 . S
H6290 C6313 0.950 . S
H6291 C6315 0.950 . S
H6292 C6316 0.950 . S
H6293 C6317 0.951 . S
H6294 C6319 0.951 . S
H6295 C6321 0.950 . S
H6296 C6322 0.950 . S
H6297 C6324 0.950 . S
H6298 C6327 0.950 . S
H6299 C6328 0.950 . S
H6300 C6330 0.950 . S
H6301 C6331 0.950 . S
C6302 H6284 0.951 . S
C6302 C6303 1.366 . S
C6302 C6304 1.388 . S
C6303 C6302 1.366 . S
C6303 C6307 1.385 . S
C6304 H6285 0.951 . S
C6304 C6302 1.388 . S
C6304 C6305 1.366 . S
C6305 C6304 1.366 . S
C6305 C6306 1.414 . S
C6305 C6308 1.499 . S
C6306 H6286 0.950 . S
C6306 C6305 1.414 . S
C6306 C6307 1.374 . S
C6307 H6287 0.950 . S
C6307 C6303 1.385 . S
C6307 C6306 1.374 . S
C6308 C6305 1.499 . S
C6308 C6309 1.373 . S
C6308 C6310 1.389 . S
C6309 H6288 0.950 . S
C6309 C6308 1.373 . S
C6309 C6325 1.377 . S
C6310 C6308 1.389 . S
C6310 C6311 1.524 . S
C6310 C6324 1.377 . S
C6311 C6310 1.524 . S
C6311 C6312 1.397 . S
C6311 C6316 1.363 . S
C6312 H6289 0.950 . S
C6312 C6311 1.397 . S
C6312 C6313 1.334 . S
C6313 H6290 0.950 . S
C6313 C6312 1.334 . S
C6313 C6314 1.287 . S
C6314 C6313 1.287 . S
C6314 C6315 1.524 . S
C6314 H6333 0.913 . S
C6315 H6291 0.950 . S
C6315 C6314 1.524 . S
C6315 C6316 1.415 . S
C6316 H6292 0.950 . S
C6316 C6311 1.363 . S
C6316 C6315 1.415 . S
C6317 H6293 0.951 . S
C6317 C6318 1.366 . S
C6317 C6319 1.388 . S
C6318 C6317 1.366 . S
C6318 C6322 1.385 . S
C6319 H6294 0.951 . S
C6319 C6317 1.388 . S
C6319 C6320 1.366 . S
C6320 C6319 1.366 . S
C6320 C6321 1.414 . S
C6320 C6323 1.499 . S
C6321 H6295 0.950 . S
C6321 C6320 1.414 . S
C6321 C6322 1.374 . S
C6322 H6296 0.950 . S
C6322 C6318 1.385 . S
C6322 C6321 1.374 . S
C6323 C6320 1.499 . S
C6323 C6324 1.373 . S
C6323 C6325 1.389 . S
C6324 H6297 0.950 . S
C6324 C6310 1.377 . S
C6324 C6323 1.373 . S
C6325 C6309 1.377 . S
C6325 C6323 1.389 . S
C6325 C6326 1.524 . S
C6326 C6325 1.524 . S
C6326 C6327 1.397 . S
C6326 C6331 1.363 . S
C6327 H6298 0.950 . S
C6327 C6326 1.397 . S
C6327 C6328 1.334 . S
C6328 H6299 0.950 . S
C6328 C6327 1.334 . S
C6328 C6329 1.287 . S
C6329 C6328 1.287 . S
C6329 C6330 1.524 . S
C6329 H6332 0.999 . S
C6330 H6300 0.950 . S
C6330 C6329 1.524 . S
C6330 C6331 1.415 . S
C6331 H6301 0.950 . S
C6331 C6326 1.363 . S
C6331 C6330 1.415 . S
H6332 C6329 0.999 . S
H6333 C6314 0.913 . S
H6334 C6352 0.951 . S
H6335 C6354 0.951 . S
H6336 C6356 0.950 . S
H6337 C6357 0.950 . S
H6338 C6359 0.950 . S
H6339 C6362 0.950 . S
H6340 C6363 0.950 . S
H6341 C6365 0.950 . S
H6342 C6366 0.950 . S
H6343 C6367 0.951 . S
H6344 C6369 0.951 . S
H6345 C6371 0.950 . S
H6346 C6372 0.950 . S
H6347 C6374 0.950 . S
H6348 C6377 0.950 . S
H6349 C6378 0.950 . S
H6350 C6380 0.950 . S
H6351 C6381 0.950 . S
C6352 H6334 0.951 . S
C6352 C6353 1.366 . S
C6352 C6354 1.388 . S
C6353 C6352 1.366 . S
C6353 C6357 1.385 . S
C6354 H6335 0.951 . S
C6354 C6352 1.388 . S
C6354 C6355 1.366 . S
C6355 C6354 1.366 . S
C6355 C6356 1.414 . S
C6355 C6358 1.499 . S
C6356 H6336 0.950 . S
C6356 C6355 1.414 . S
C6356 C6357 1.374 . S
C6357 H6337 0.950 . S
C6357 C6353 1.385 . S
C6357 C6356 1.374 . S
C6358 C6355 1.499 . S
C6358 C6359 1.373 . S
C6358 C6360 1.389 . S
C6359 H6338 0.950 . S
C6359 C6358 1.373 . S
C6359 C6375 1.377 . S
C6360 C6358 1.389 . S
C6360 C6361 1.524 . S
C6360 C6374 1.377 . S
C6361 C6360 1.524 . S
C6361 C6362 1.397 . S
C6361 C6366 1.363 . S
C6362 H6339 0.950 . S
C6362 C6361 1.397 . S
C6362 C6363 1.334 . S
C6363 H6340 0.950 . S
C6363 C6362 1.334 . S
C6363 C6364 1.287 . S
C6364 C6363 1.287 . S
C6364 C6365 1.524 . S
C6364 H6383 0.913 . S
C6365 H6341 0.950 . S
C6365 C6364 1.524 . S
C6365 C6366 1.415 . S
C6366 H6342 0.950 . S
C6366 C6361 1.363 . S
C6366 C6365 1.415 . S
C6367 H6343 0.951 . S
C6367 C6368 1.366 . S
C6367 C6369 1.388 . S
C6368 C6367 1.366 . S
C6368 C6372 1.385 . S
C6369 H6344 0.951 . S
C6369 C6367 1.388 . S
C6369 C6370 1.366 . S
C6370 C6369 1.366 . S
C6370 C6371 1.414 . S
C6370 C6373 1.499 . S
C6371 H6345 0.950 . S
C6371 C6370 1.414 . S
C6371 C6372 1.374 . S
C6372 H6346 0.950 . S
C6372 C6368 1.385 . S
C6372 C6371 1.374 . S
C6373 C6370 1.499 . S
C6373 C6374 1.373 . S
C6373 C6375 1.389 . S
C6374 H6347 0.950 . S
C6374 C6360 1.377 . S
C6374 C6373 1.373 . S
C6375 C6359 1.377 . S
C6375 C6373 1.389 . S
C6375 C6376 1.524 . S
C6376 C6375 1.524 . S
C6376 C6377 1.397 . S
C6376 C6381 1.363 . S
C6377 H6348 0.950 . S
C6377 C6376 1.397 . S
C6377 C6378 1.334 . S
C6378 H6349 0.950 . S
C6378 C6377 1.334 . S
C6378 C6379 1.287 . S
C6379 C6378 1.287 . S
C6379 C6380 1.524 . S
C6379 H6382 0.999 . S
C6380 H6350 0.950 . S
C6380 C6379 1.524 . S
C6380 C6381 1.415 . S
C6381 H6351 0.950 . S
C6381 C6376 1.363 . S
C6381 C6380 1.415 . S
H6382 C6379 0.999 . S
H6383 C6364 0.913 . S
H6384 C6402 0.951 . S
H6385 C6404 0.951 . S
H6386 C6406 0.950 . S
H6387 C6407 0.950 . S
H6388 C6409 0.950 . S
H6389 C6412 0.950 . S
H6390 C6413 0.950 . S
H6391 C6415 0.950 . S
H6392 C6416 0.950 . S
H6393 C6417 0.951 . S
H6394 C6419 0.951 . S
H6395 C6421 0.950 . S
H6396 C6422 0.950 . S
H6397 C6424 0.950 . S
H6398 C6427 0.950 . S
H6399 C6428 0.950 . S
H6400 C6430 0.950 . S
H6401 C6431 0.950 . S
C6402 H6384 0.951 . S
C6402 C6403 1.366 . S
C6402 C6404 1.388 . S
C6403 C6402 1.366 . S
C6403 C6407 1.385 . S
C6404 H6385 0.951 . S
C6404 C6402 1.388 . S
C6404 C6405 1.366 . S
C6405 C6404 1.366 . S
C6405 C6406 1.414 . S
C6405 C6408 1.499 . S
C6406 H6386 0.950 . S
C6406 C6405 1.414 . S
C6406 C6407 1.374 . S
C6407 H6387 0.950 . S
C6407 C6403 1.385 . S
C6407 C6406 1.374 . S
C6408 C6405 1.499 . S
C6408 C6409 1.373 . S
C6408 C6410 1.389 . S
C6409 H6388 0.950 . S
C6409 C6408 1.373 . S
C6409 C6425 1.377 . S
C6410 C6408 1.389 . S
C6410 C6411 1.524 . S
C6410 C6424 1.377 . S
C6411 C6410 1.524 . S
C6411 C6412 1.397 . S
C6411 C6416 1.363 . S
C6412 H6389 0.950 . S
C6412 C6411 1.397 . S
C6412 C6413 1.334 . S
C6413 H6390 0.950 . S
C6413 C6412 1.334 . S
C6413 C6414 1.287 . S
C6414 C6413 1.287 . S
C6414 C6415 1.524 . S
C6414 H6433 0.913 . S
C6415 H6391 0.950 . S
C6415 C6414 1.524 . S
C6415 C6416 1.415 . S
C6416 H6392 0.950 . S
C6416 C6411 1.363 . S
C6416 C6415 1.415 . S
C6417 H6393 0.951 . S
C6417 C6418 1.366 . S
C6417 C6419 1.388 . S
C6418 C6417 1.366 . S
C6418 C6422 1.385 . S
C6419 H6394 0.951 . S
C6419 C6417 1.388 . S
C6419 C6420 1.366 . S
C6420 C6419 1.366 . S
C6420 C6421 1.414 . S
C6420 C6423 1.499 . S
C6421 H6395 0.950 . S
C6421 C6420 1.414 . S
C6421 C6422 1.374 . S
C6422 H6396 0.950 . S
C6422 C6418 1.385 . S
C6422 C6421 1.374 . S
C6423 C6420 1.499 . S
C6423 C6424 1.373 . S
C6423 C6425 1.389 . S
C6424 H6397 0.950 . S
C6424 C6410 1.377 . S
C6424 C6423 1.373 . S
C6425 C6409 1.377 . S
C6425 C6423 1.389 . S
C6425 C6426 1.524 . S
C6426 C6425 1.524 . S
C6426 C6427 1.397 . S
C6426 C6431 1.363 . S
C6427 H6398 0.950 . S
C6427 C6426 1.397 . S
C6427 C6428 1.334 . S
C6428 H6399 0.950 . S
C6428 C6427 1.334 . S
C6428 C6429 1.287 . S
C6429 C6428 1.287 . S
C6429 C6430 1.524 . S
C6429 H6432 0.999 . S
C6430 H6400 0.950 . S
C6430 C6429 1.524 . S
C6430 C6431 1.415 . S
C6431 H6401 0.950 . S
C6431 C6426 1.363 . S
C6431 C6430 1.415 . S
H6432 C6429 0.999 . S
H6433 C6414 0.913 . S
H6434 C6452 0.951 . S
H6435 C6454 0.951 . S
H6436 C6456 0.950 . S
H6437 C6457 0.950 . S
H6438 C6459 0.950 . S
H6439 C6462 0.950 . S
H6440 C6463 0.950 . S
H6441 C6465 0.950 . S
H6442 C6466 0.950 . S
H6443 C6467 0.951 . S
H6444 C6469 0.951 . S
H6445 C6471 0.950 . S
H6446 C6472 0.950 . S
H6447 C6474 0.950 . S
H6448 C6477 0.950 . S
H6449 C6478 0.950 . S
H6450 C6480 0.950 . S
H6451 C6481 0.950 . S
C6452 H6434 0.951 . S
C6452 C6453 1.366 . S
C6452 C6454 1.388 . S
C6453 C6452 1.366 . S
C6453 C6457 1.385 . S
C6454 H6435 0.951 . S
C6454 C6452 1.388 . S
C6454 C6455 1.366 . S
C6455 C6454 1.366 . S
C6455 C6456 1.414 . S
C6455 C6458 1.499 . S
C6456 H6436 0.950 . S
C6456 C6455 1.414 . S
C6456 C6457 1.374 . S
C6457 H6437 0.950 . S
C6457 C6453 1.385 . S
C6457 C6456 1.374 . S
C6458 C6455 1.499 . S
C6458 C6459 1.373 . S
C6458 C6460 1.389 . S
C6459 H6438 0.950 . S
C6459 C6458 1.373 . S
C6459 C6475 1.377 . S
C6460 C6458 1.389 . S
C6460 C6461 1.524 . S
C6460 C6474 1.377 . S
C6461 C6460 1.524 . S
C6461 C6462 1.397 . S
C6461 C6466 1.363 . S
C6462 H6439 0.950 . S
C6462 C6461 1.397 . S
C6462 C6463 1.334 . S
C6463 H6440 0.950 . S
C6463 C6462 1.334 . S
C6463 C6464 1.287 . S
C6464 C6463 1.287 . S
C6464 C6465 1.524 . S
C6464 H6483 0.913 . S
C6465 H6441 0.950 . S
C6465 C6464 1.524 . S
C6465 C6466 1.415 . S
C6466 H6442 0.950 . S
C6466 C6461 1.363 . S
C6466 C6465 1.415 . S
C6467 H6443 0.951 . S
C6467 C6468 1.366 . S
C6467 C6469 1.388 . S
C6468 C6467 1.366 . S
C6468 C6472 1.385 . S
C6469 H6444 0.951 . S
C6469 C6467 1.388 . S
C6469 C6470 1.366 . S
C6470 C6469 1.366 . S
C6470 C6471 1.414 . S
C6470 C6473 1.499 . S
C6471 H6445 0.950 . S
C6471 C6470 1.414 . S
C6471 C6472 1.374 . S
C6472 H6446 0.950 . S
C6472 C6468 1.385 . S
C6472 C6471 1.374 . S
C6473 C6470 1.499 . S
C6473 C6474 1.373 . S
C6473 C6475 1.389 . S
C6474 H6447 0.950 . S
C6474 C6460 1.377 . S
C6474 C6473 1.373 . S
C6475 C6459 1.377 . S
C6475 C6473 1.389 . S
C6475 C6476 1.524 . S
C6476 C6475 1.524 . S
C6476 C6477 1.397 . S
C6476 C6481 1.363 . S
C6477 H6448 0.950 . S
C6477 C6476 1.397 . S
C6477 C6478 1.334 . S
C6478 H6449 0.950 . S
C6478 C6477 1.334 . S
C6478 C6479 1.287 . S
C6479 C6478 1.287 . S
C6479 C6480 1.524 . S
C6479 H6482 0.999 . S
C6480 H6450 0.950 . S
C6480 C6479 1.524 . S
C6480 C6481 1.415 . S
C6481 H6451 0.950 . S
C6481 C6476 1.363 . S
C6481 C6480 1.415 . S
H6482 C6479 0.999 . S
H6483 C6464 0.913 . S
H6484 C6502 0.951 . S
H6485 C6504 0.951 . S
H6486 C6506 0.950 . S
H6487 C6507 0.950 . S
H6488 C6509 0.950 . S
H6489 C6512 0.950 . S
H6490 C6513 0.950 . S
H6491 C6515 0.950 . S
H6492 C6516 0.950 . S
H6493 C6517 0.951 . S
H6494 C6519 0.951 . S
H6495 C6521 0.950 . S
H6496 C6522 0.950 . S
H6497 C6524 0.950 . S
H6498 C6527 0.950 . S
H6499 C6528 0.950 . S
H6500 C6530 0.950 . S
H6501 C6531 0.950 . S
C6502 H6484 0.951 . S
C6502 C6503 1.366 . S
C6502 C6504 1.388 . S
C6503 C6502 1.366 . S
C6503 C6507 1.385 . S
C6504 H6485 0.951 . S
C6504 C6502 1.388 . S
C6504 C6505 1.366 . S
C6505 C6504 1.366 . S
C6505 C6506 1.414 . S
C6505 C6508 1.499 . S
C6506 H6486 0.950 . S
C6506 C6505 1.414 . S
C6506 C6507 1.374 . S
C6507 H6487 0.950 . S
C6507 C6503 1.385 . S
C6507 C6506 1.374 . S
C6508 C6505 1.499 . S
C6508 C6509 1.373 . S
C6508 C6510 1.389 . S
C6509 H6488 0.950 . S
C6509 C6508 1.373 . S
C6509 C6525 1.377 . S
C6510 C6508 1.389 . S
C6510 C6511 1.524 . S
C6510 C6524 1.377 . S
C6511 C6510 1.524 . S
C6511 C6512 1.397 . S
C6511 C6516 1.363 . S
C6512 H6489 0.950 . S
C6512 C6511 1.397 . S
C6512 C6513 1.334 . S
C6513 H6490 0.950 . S
C6513 C6512 1.334 . S
C6513 C6514 1.287 . S
C6514 C6513 1.287 . S
C6514 C6515 1.524 . S
C6514 H6533 0.913 . S
C6515 H6491 0.950 . S
C6515 C6514 1.524 . S
C6515 C6516 1.415 . S
C6516 H6492 0.950 . S
C6516 C6511 1.363 . S
C6516 C6515 1.415 . S
C6517 H6493 0.951 . S
C6517 C6518 1.366 . S
C6517 C6519 1.388 . S
C6518 C6517 1.366 . S
C6518 C6522 1.385 . S
C6519 H6494 0.951 . S
C6519 C6517 1.388 . S
C6519 C6520 1.366 . S
C6520 C6519 1.366 . S
C6520 C6521 1.414 . S
C6520 C6523 1.499 . S
C6521 H6495 0.950 . S
C6521 C6520 1.414 . S
C6521 C6522 1.374 . S
C6522 H6496 0.950 . S
C6522 C6518 1.385 . S
C6522 C6521 1.374 . S
C6523 C6520 1.499 . S
C6523 C6524 1.373 . S
C6523 C6525 1.389 . S
C6524 H6497 0.950 . S
C6524 C6510 1.377 . S
C6524 C6523 1.373 . S
C6525 C6509 1.377 . S
C6525 C6523 1.389 . S
C6525 C6526 1.524 . S
C6526 C6525 1.524 . S
C6526 C6527 1.397 . S
C6526 C6531 1.363 . S
C6527 H6498 0.950 . S
C6527 C6526 1.397 . S
C6527 C6528 1.334 . S
C6528 H6499 0.950 . S
C6528 C6527 1.334 . S
C6528 C6529 1.287 . S
C6529 C6528 1.287 . S
C6529 C6530 1.524 . S
C6529 H6532 0.999 . S
C6530 H6500 0.950 . S
C6530 C6529 1.524 . S
C6530 C6531 1.415 . S
C6531 H6501 0.950 . S
C6531 C6526 1.363 . S
C6531 C6530 1.415 . S
H6532 C6529 0.999 . S
H6533 C6514 0.913 . S
H6534 C6552 0.951 . S
H6535 C6554 0.951 . S
H6536 C6556 0.950 . S
H6537 C6557 0.950 . S
H6538 C6559 0.950 . S
H6539 C6562 0.950 . S
H6540 C6563 0.950 . S
H6541 C6565 0.950 . S
H6542 C6566 0.950 . S
H6543 C6567 0.951 . S
H6544 C6569 0.951 . S
H6545 C6571 0.950 . S
H6546 C6572 0.950 . S
H6547 C6574 0.950 . S
H6548 C6577 0.950 . S
H6549 C6578 0.950 . S
H6550 C6580 0.950 . S
H6551 C6581 0.950 . S
C6552 H6534 0.951 . S
C6552 C6553 1.366 . S
C6552 C6554 1.388 . S
C6553 C6552 1.366 . S
C6553 C6557 1.385 . S
C6554 H6535 0.951 . S
C6554 C6552 1.388 . S
C6554 C6555 1.366 . S
C6555 C6554 1.366 . S
C6555 C6556 1.414 . S
C6555 C6558 1.499 . S
C6556 H6536 0.950 . S
C6556 C6555 1.414 . S
C6556 C6557 1.374 . S
C6557 H6537 0.950 . S
C6557 C6553 1.385 . S
C6557 C6556 1.374 . S
C6558 C6555 1.499 . S
C6558 C6559 1.373 . S
C6558 C6560 1.389 . S
C6559 H6538 0.950 . S
C6559 C6558 1.373 . S
C6559 C6575 1.377 . S
C6560 C6558 1.389 . S
C6560 C6561 1.524 . S
C6560 C6574 1.377 . S
C6561 C6560 1.524 . S
C6561 C6562 1.397 . S
C6561 C6566 1.363 . S
C6562 H6539 0.950 . S
C6562 C6561 1.397 . S
C6562 C6563 1.334 . S
C6563 H6540 0.950 . S
C6563 C6562 1.334 . S
C6563 C6564 1.287 . S
C6564 C6563 1.287 . S
C6564 C6565 1.524 . S
C6564 H6583 0.913 . S
C6565 H6541 0.950 . S
C6565 C6564 1.524 . S
C6565 C6566 1.415 . S
C6566 H6542 0.950 . S
C6566 C6561 1.363 . S
C6566 C6565 1.415 . S
C6567 H6543 0.951 . S
C6567 C6568 1.366 . S
C6567 C6569 1.388 . S
C6568 C6567 1.366 . S
C6568 C6572 1.385 . S
C6569 H6544 0.951 . S
C6569 C6567 1.388 . S
C6569 C6570 1.366 . S
C6570 C6569 1.366 . S
C6570 C6571 1.414 . S
C6570 C6573 1.499 . S
C6571 H6545 0.950 . S
C6571 C6570 1.414 . S
C6571 C6572 1.374 . S
C6572 H6546 0.950 . S
C6572 C6568 1.385 . S
C6572 C6571 1.374 . S
C6573 C6570 1.499 . S
C6573 C6574 1.373 . S
C6573 C6575 1.389 . S
C6574 H6547 0.950 . S
C6574 C6560 1.377 . S
C6574 C6573 1.373 . S
C6575 C6559 1.377 . S
C6575 C6573 1.389 . S
C6575 C6576 1.524 . S
C6576 C6575 1.524 . S
C6576 C6577 1.397 . S
C6576 C6581 1.363 . S
C6577 H6548 0.950 . S
C6577 C6576 1.397 . S
C6577 C6578 1.334 . S
C6578 H6549 0.950 . S
C6578 C6577 1.334 . S
C6578 C6579 1.287 . S
C6579 C6578 1.287 . S
C6579 C6580 1.524 . S
C6579 H6582 0.999 . S
C6580 H6550 0.950 . S
C6580 C6579 1.524 . S
C6580 C6581 1.415 . S
C6581 H6551 0.950 . S
C6581 C6576 1.363 . S
C6581 C6580 1.415 . S
H6582 C6579 0.999 . S
H6583 C6564 0.913 . S
H6584 C6602 0.951 . S
H6585 C6604 0.951 . S
H6586 C6606 0.950 . S
H6587 C6607 0.950 . S
H6588 C6609 0.950 . S
H6589 C6612 0.950 . S
H6590 C6613 0.950 . S
H6591 C6615 0.950 . S
H6592 C6616 0.950 . S
H6593 C6617 0.951 . S
H6594 C6619 0.951 . S
H6595 C6621 0.950 . S
H6596 C6622 0.950 . S
H6597 C6624 0.950 . S
H6598 C6627 0.950 . S
H6599 C6628 0.950 . S
H6600 C6630 0.950 . S
H6601 C6631 0.950 . S
C6602 H6584 0.951 . S
C6602 C6603 1.366 . S
C6602 C6604 1.388 . S
C6603 C6602 1.366 . S
C6603 C6607 1.385 . S
C6604 H6585 0.951 . S
C6604 C6602 1.388 . S
C6604 C6605 1.366 . S
C6605 C6604 1.366 . S
C6605 C6606 1.414 . S
C6605 C6608 1.499 . S
C6606 H6586 0.950 . S
C6606 C6605 1.414 . S
C6606 C6607 1.374 . S
C6607 H6587 0.950 . S
C6607 C6603 1.385 . S
C6607 C6606 1.374 . S
C6608 C6605 1.499 . S
C6608 C6609 1.373 . S
C6608 C6610 1.389 . S
C6609 H6588 0.950 . S
C6609 C6608 1.373 . S
C6609 C6625 1.377 . S
C6610 C6608 1.389 . S
C6610 C6611 1.524 . S
C6610 C6624 1.377 . S
C6611 C6610 1.524 . S
C6611 C6612 1.397 . S
C6611 C6616 1.363 . S
C6612 H6589 0.950 . S
C6612 C6611 1.397 . S
C6612 C6613 1.334 . S
C6613 H6590 0.950 . S
C6613 C6612 1.334 . S
C6613 C6614 1.287 . S
C6614 C6613 1.287 . S
C6614 C6615 1.524 . S
C6614 H6633 0.913 . S
C6615 H6591 0.950 . S
C6615 C6614 1.524 . S
C6615 C6616 1.415 . S
C6616 H6592 0.950 . S
C6616 C6611 1.363 . S
C6616 C6615 1.415 . S
C6617 H6593 0.951 . S
C6617 C6618 1.366 . S
C6617 C6619 1.388 . S
C6618 C6617 1.366 . S
C6618 C6622 1.385 . S
C6619 H6594 0.951 . S
C6619 C6617 1.388 . S
C6619 C6620 1.366 . S
C6620 C6619 1.366 . S
C6620 C6621 1.414 . S
C6620 C6623 1.499 . S
C6621 H6595 0.950 . S
C6621 C6620 1.414 . S
C6621 C6622 1.374 . S
C6622 H6596 0.950 . S
C6622 C6618 1.385 . S
C6622 C6621 1.374 . S
C6623 C6620 1.499 . S
C6623 C6624 1.373 . S
C6623 C6625 1.389 . S
C6624 H6597 0.950 . S
C6624 C6610 1.377 . S
C6624 C6623 1.373 . S
C6625 C6609 1.377 . S
C6625 C6623 1.389 . S
C6625 C6626 1.524 . S
C6626 C6625 1.524 . S
C6626 C6627 1.397 . S
C6626 C6631 1.363 . S
C6627 H6598 0.950 . S
C6627 C6626 1.397 . S
C6627 C6628 1.334 . S
C6628 H6599 0.950 . S
C6628 C6627 1.334 . S
C6628 C6629 1.287 . S
C6629 C6628 1.287 . S
C6629 C6630 1.524 . S
C6629 H6632 0.999 . S
C6630 H6600 0.950 . S
C6630 C6629 1.524 . S
C6630 C6631 1.415 . S
C6631 H6601 0.950 . S
C6631 C6626 1.363 . S
C6631 C6630 1.415 . S
H6632 C6629 0.999 . S
H6633 C6614 0.913 . S
H6634 C6652 0.951 . S
H6635 C6654 0.951 . S
H6636 C6656 0.950 . S
H6637 C6657 0.950 . S
H6638 C6659 0.950 . S
H6639 C6662 0.950 . S
H6640 C6663 0.950 . S
H6641 C6665 0.950 . S
H6642 C6666 0.950 . S
H6643 C6667 0.951 . S
H6644 C6669 0.951 . S
H6645 C6671 0.950 . S
H6646 C6672 0.950 . S
H6647 C6674 0.950 . S
H6648 C6677 0.950 . S
H6649 C6678 0.950 . S
H6650 C6680 0.950 . S
H6651 C6681 0.950 . S
C6652 H6634 0.951 . S
C6652 C6653 1.366 . S
C6652 C6654 1.388 . S
C6653 C6652 1.366 . S
C6653 C6657 1.385 . S
C6654 H6635 0.951 . S
C6654 C6652 1.388 . S
C6654 C6655 1.366 . S
C6655 C6654 1.366 . S
C6655 C6656 1.414 . S
C6655 C6658 1.499 . S
C6656 H6636 0.950 . S
C6656 C6655 1.414 . S
C6656 C6657 1.374 . S
C6657 H6637 0.950 . S
C6657 C6653 1.385 . S
C6657 C6656 1.374 . S
C6658 C6655 1.499 . S
C6658 C6659 1.373 . S
C6658 C6660 1.389 . S
C6659 H6638 0.950 . S
C6659 C6658 1.373 . S
C6659 C6675 1.377 . S
C6660 C6658 1.389 . S
C6660 C6661 1.524 . S
C6660 C6674 1.377 . S
C6661 C6660 1.524 . S
C6661 C6662 1.397 . S
C6661 C6666 1.363 . S
C6662 H6639 0.950 . S
C6662 C6661 1.397 . S
C6662 C6663 1.334 . S
C6663 H6640 0.950 . S
C6663 C6662 1.334 . S
C6663 C6664 1.287 . S
C6664 C6663 1.287 . S
C6664 C6665 1.524 . S
C6664 H6683 0.913 . S
C6665 H6641 0.950 . S
C6665 C6664 1.524 . S
C6665 C6666 1.415 . S
C6666 H6642 0.950 . S
C6666 C6661 1.363 . S
C6666 C6665 1.415 . S
C6667 H6643 0.951 . S
C6667 C6668 1.366 . S
C6667 C6669 1.388 . S
C6668 C6667 1.366 . S
C6668 C6672 1.385 . S
C6669 H6644 0.951 . S
C6669 C6667 1.388 . S
C6669 C6670 1.366 . S
C6670 C6669 1.366 . S
C6670 C6671 1.414 . S
C6670 C6673 1.499 . S
C6671 H6645 0.950 . S
C6671 C6670 1.414 . S
C6671 C6672 1.374 . S
C6672 H6646 0.950 . S
C6672 C6668 1.385 . S
C6672 C6671 1.374 . S
C6673 C6670 1.499 . S
C6673 C6674 1.373 . S
C6673 C6675 1.389 . S
C6674 H6647 0.950 . S
C6674 C6660 1.377 . S
C6674 C6673 1.373 . S
C6675 C6659 1.377 . S
C6675 C6673 1.389 . S
C6675 C6676 1.524 . S
C6676 C6675 1.524 . S
C6676 C6677 1.397 . S
C6676 C6681 1.363 . S
C6677 H6648 0.950 . S
C6677 C6676 1.397 . S
C6677 C6678 1.334 . S
C6678 H6649 0.950 . S
C6678 C6677 1.334 . S
C6678 C6679 1.287 . S
C6679 C6678 1.287 . S
C6679 C6680 1.524 . S
C6679 H6682 0.999 . S
C6680 H6650 0.950 . S
C6680 C6679 1.524 . S
C6680 C6681 1.415 . S
C6681 H6651 0.950 . S
C6681 C6676 1.363 . S
C6681 C6680 1.415 . S
H6682 C6679 0.999 . S
H6683 C6664 0.913 . S
H6684 C6702 0.951 . S
H6685 C6704 0.951 . S
H6686 C6706 0.950 . S
H6687 C6707 0.950 . S
H6688 C6709 0.950 . S
H6689 C6712 0.950 . S
H6690 C6713 0.950 . S
H6691 C6715 0.950 . S
H6692 C6716 0.950 . S
H6693 C6717 0.951 . S
H6694 C6719 0.951 . S
H6695 C6721 0.950 . S
H6696 C6722 0.950 . S
H6697 C6724 0.950 . S
H6698 C6727 0.950 . S
H6699 C6728 0.950 . S
H6700 C6730 0.950 . S
H6701 C6731 0.950 . S
C6702 H6684 0.951 . S
C6702 C6703 1.366 . S
C6702 C6704 1.388 . S
C6703 C6702 1.366 . S
C6703 C6707 1.385 . S
C6704 H6685 0.951 . S
C6704 C6702 1.388 . S
C6704 C6705 1.366 . S
C6705 C6704 1.366 . S
C6705 C6706 1.414 . S
C6705 C6708 1.499 . S
C6706 H6686 0.950 . S
C6706 C6705 1.414 . S
C6706 C6707 1.374 . S
C6707 H6687 0.950 . S
C6707 C6703 1.385 . S
C6707 C6706 1.374 . S
C6708 C6705 1.499 . S
C6708 C6709 1.373 . S
C6708 C6710 1.389 . S
C6709 H6688 0.950 . S
C6709 C6708 1.373 . S
C6709 C6725 1.377 . S
C6710 C6708 1.389 . S
C6710 C6711 1.524 . S
C6710 C6724 1.377 . S
C6711 C6710 1.524 . S
C6711 C6712 1.397 . S
C6711 C6716 1.363 . S
C6712 H6689 0.950 . S
C6712 C6711 1.397 . S
C6712 C6713 1.334 . S
C6713 H6690 0.950 . S
C6713 C6712 1.334 . S
C6713 C6714 1.287 . S
C6714 C6713 1.287 . S
C6714 C6715 1.524 . S
C6714 H6733 0.913 . S
C6715 H6691 0.950 . S
C6715 C6714 1.524 . S
C6715 C6716 1.415 . S
C6716 H6692 0.950 . S
C6716 C6711 1.363 . S
C6716 C6715 1.415 . S
C6717 H6693 0.951 . S
C6717 C6718 1.366 . S
C6717 C6719 1.388 . S
C6718 C6717 1.366 . S
C6718 C6722 1.385 . S
C6719 H6694 0.951 . S
C6719 C6717 1.388 . S
C6719 C6720 1.366 . S
C6720 C6719 1.366 . S
C6720 C6721 1.414 . S
C6720 C6723 1.499 . S
C6721 H6695 0.950 . S
C6721 C6720 1.414 . S
C6721 C6722 1.374 . S
C6722 H6696 0.950 . S
C6722 C6718 1.385 . S
C6722 C6721 1.374 . S
C6723 C6720 1.499 . S
C6723 C6724 1.373 . S
C6723 C6725 1.389 . S
C6724 H6697 0.950 . S
C6724 C6710 1.377 . S
C6724 C6723 1.373 . S
C6725 C6709 1.377 . S
C6725 C6723 1.389 . S
C6725 C6726 1.524 . S
C6726 C6725 1.524 . S
C6726 C6727 1.397 . S
C6726 C6731 1.363 . S
C6727 H6698 0.950 . S
C6727 C6726 1.397 . S
C6727 C6728 1.334 . S
C6728 H6699 0.950 . S
C6728 C6727 1.334 . S
C6728 C6729 1.287 . S
C6729 C6728 1.287 . S
C6729 C6730 1.524 . S
C6729 H6732 0.999 . S
C6730 H6700 0.950 . S
C6730 C6729 1.524 . S
C6730 C6731 1.415 . S
C6731 H6701 0.950 . S
C6731 C6726 1.363 . S
C6731 C6730 1.415 . S
H6732 C6729 0.999 . S
H6733 C6714 0.913 . S
H6734 C6752 0.951 . S
H6735 C6754 0.951 . S
H6736 C6756 0.950 . S
H6737 C6757 0.950 . S
H6738 C6759 0.950 . S
H6739 C6762 0.950 . S
H6740 C6763 0.950 . S
H6741 C6765 0.950 . S
H6742 C6766 0.950 . S
H6743 C6767 0.951 . S
H6744 C6769 0.951 . S
H6745 C6771 0.950 . S
H6746 C6772 0.950 . S
H6747 C6774 0.950 . S
H6748 C6777 0.950 . S
H6749 C6778 0.950 . S
H6750 C6780 0.950 . S
H6751 C6781 0.950 . S
C6752 H6734 0.951 . S
C6752 C6753 1.366 . S
C6752 C6754 1.388 . S
C6753 C6752 1.366 . S
C6753 C6757 1.385 . S
C6754 H6735 0.951 . S
C6754 C6752 1.388 . S
C6754 C6755 1.366 . S
C6755 C6754 1.366 . S
C6755 C6756 1.414 . S
C6755 C6758 1.499 . S
C6756 H6736 0.950 . S
C6756 C6755 1.414 . S
C6756 C6757 1.374 . S
C6757 H6737 0.950 . S
C6757 C6753 1.385 . S
C6757 C6756 1.374 . S
C6758 C6755 1.499 . S
C6758 C6759 1.373 . S
C6758 C6760 1.389 . S
C6759 H6738 0.950 . S
C6759 C6758 1.373 . S
C6759 C6775 1.377 . S
C6760 C6758 1.389 . S
C6760 C6761 1.524 . S
C6760 C6774 1.377 . S
C6761 C6760 1.524 . S
C6761 C6762 1.397 . S
C6761 C6766 1.363 . S
C6762 H6739 0.950 . S
C6762 C6761 1.397 . S
C6762 C6763 1.334 . S
C6763 H6740 0.950 . S
C6763 C6762 1.334 . S
C6763 C6764 1.287 . S
C6764 C6763 1.287 . S
C6764 C6765 1.524 . S
C6764 H6783 0.913 . S
C6765 H6741 0.950 . S
C6765 C6764 1.524 . S
C6765 C6766 1.415 . S
C6766 H6742 0.950 . S
C6766 C6761 1.363 . S
C6766 C6765 1.415 . S
C6767 H6743 0.951 . S
C6767 C6768 1.366 . S
C6767 C6769 1.388 . S
C6768 C6767 1.366 . S
C6768 C6772 1.385 . S
C6769 H6744 0.951 . S
C6769 C6767 1.388 . S
C6769 C6770 1.366 . S
C6770 C6769 1.366 . S
C6770 C6771 1.414 . S
C6770 C6773 1.499 . S
C6771 H6745 0.950 . S
C6771 C6770 1.414 . S
C6771 C6772 1.374 . S
C6772 H6746 0.950 . S
C6772 C6768 1.385 . S
C6772 C6771 1.374 . S
C6773 C6770 1.499 . S
C6773 C6774 1.373 . S
C6773 C6775 1.389 . S
C6774 H6747 0.950 . S
C6774 C6760 1.377 . S
C6774 C6773 1.373 . S
C6775 C6759 1.377 . S
C6775 C6773 1.389 . S
C6775 C6776 1.524 . S
C6776 C6775 1.524 . S
C6776 C6777 1.397 . S
C6776 C6781 1.363 . S
C6777 H6748 0.950 . S
C6777 C6776 1.397 . S
C6777 C6778 1.334 . S
C6778 H6749 0.950 . S
C6778 C6777 1.334 . S
C6778 C6779 1.287 . S
C6779 C6778 1.287 . S
C6779 C6780 1.524 . S
C6779 H6782 0.999 . S
C6780 H6750 0.950 . S
C6780 C6779 1.524 . S
C6780 C6781 1.415 . S
C6781 H6751 0.950 . S
C6781 C6776 1.363 . S
C6781 C6780 1.415 . S
H6782 C6779 0.999 . S
H6783 C6764 0.913 . S
H6784 C6802 0.951 . S
H6785 C6804 0.951 . S
H6786 C6806 0.950 . S
H6787 C6807 0.950 . S
H6788 C6809 0.950 . S
H6789 C6812 0.950 . S
H6790 C6813 0.950 . S
H6791 C6815 0.950 . S
H6792 C6816 0.950 . S
H6793 C6817 0.951 . S
H6794 C6819 0.951 . S
H6795 C6821 0.950 . S
H6796 C6822 0.950 . S
H6797 C6824 0.950 . S
H6798 C6827 0.950 . S
H6799 C6828 0.950 . S
H6800 C6830 0.950 . S
H6801 C6831 0.950 . S
C6802 H6784 0.951 . S
C6802 C6803 1.366 . S
C6802 C6804 1.388 . S
C6803 C6802 1.366 . S
C6803 C6807 1.385 . S
C6804 H6785 0.951 . S
C6804 C6802 1.388 . S
C6804 C6805 1.366 . S
C6805 C6804 1.366 . S
C6805 C6806 1.414 . S
C6805 C6808 1.499 . S
C6806 H6786 0.950 . S
C6806 C6805 1.414 . S
C6806 C6807 1.374 . S
C6807 H6787 0.950 . S
C6807 C6803 1.385 . S
C6807 C6806 1.374 . S
C6808 C6805 1.499 . S
C6808 C6809 1.373 . S
C6808 C6810 1.389 . S
C6809 H6788 0.950 . S
C6809 C6808 1.373 . S
C6809 C6825 1.377 . S
C6810 C6808 1.389 . S
C6810 C6811 1.524 . S
C6810 C6824 1.377 . S
C6811 C6810 1.524 . S
C6811 C6812 1.397 . S
C6811 C6816 1.363 . S
C6812 H6789 0.950 . S
C6812 C6811 1.397 . S
C6812 C6813 1.334 . S
C6813 H6790 0.950 . S
C6813 C6812 1.334 . S
C6813 C6814 1.287 . S
C6814 C6813 1.287 . S
C6814 C6815 1.524 . S
C6814 H6833 0.913 . S
C6815 H6791 0.950 . S
C6815 C6814 1.524 . S
C6815 C6816 1.415 . S
C6816 H6792 0.950 . S
C6816 C6811 1.363 . S
C6816 C6815 1.415 . S
C6817 H6793 0.951 . S
C6817 C6818 1.366 . S
C6817 C6819 1.388 . S
C6818 C6817 1.366 . S
C6818 C6822 1.385 . S
C6819 H6794 0.951 . S
C6819 C6817 1.388 . S
C6819 C6820 1.366 . S
C6820 C6819 1.366 . S
C6820 C6821 1.414 . S
C6820 C6823 1.499 . S
C6821 H6795 0.950 . S
C6821 C6820 1.414 . S
C6821 C6822 1.374 . S
C6822 H6796 0.950 . S
C6822 C6818 1.385 . S
C6822 C6821 1.374 . S
C6823 C6820 1.499 . S
C6823 C6824 1.373 . S
C6823 C6825 1.389 . S
C6824 H6797 0.950 . S
C6824 C6810 1.377 . S
C6824 C6823 1.373 . S
C6825 C6809 1.377 . S
C6825 C6823 1.389 . S
C6825 C6826 1.524 . S
C6826 C6825 1.524 . S
C6826 C6827 1.397 . S
C6826 C6831 1.363 . S
C6827 H6798 0.950 . S
C6827 C6826 1.397 . S
C6827 C6828 1.334 . S
C6828 H6799 0.950 . S
C6828 C6827 1.334 . S
C6828 C6829 1.287 . S
C6829 C6828 1.287 . S
C6829 C6830 1.524 . S
C6829 H6832 0.999 . S
C6830 H6800 0.950 . S
C6830 C6829 1.524 . S
C6830 C6831 1.415 . S
C6831 H6801 0.950 . S
C6831 C6826 1.363 . S
C6831 C6830 1.415 . S
H6832 C6829 0.999 . S
H6833 C6814 0.913 . S
H6834 C6852 0.951 . S
H6835 C6854 0.951 . S
H6836 C6856 0.950 . S
H6837 C6857 0.950 . S
H6838 C6859 0.950 . S
H6839 C6862 0.950 . S
H6840 C6863 0.950 . S
H6841 C6865 0.950 . S
H6842 C6866 0.950 . S
H6843 C6867 0.951 . S
H6844 C6869 0.951 . S
H6845 C6871 0.950 . S
H6846 C6872 0.950 . S
H6847 C6874 0.950 . S
H6848 C6877 0.950 . S
H6849 C6878 0.950 . S
H6850 C6880 0.950 . S
H6851 C6881 0.950 . S
C6852 H6834 0.951 . S
C6852 C6853 1.366 . S
C6852 C6854 1.388 . S
C6853 C6852 1.366 . S
C6853 C6857 1.385 . S
C6854 H6835 0.951 . S
C6854 C6852 1.388 . S
C6854 C6855 1.366 . S
C6855 C6854 1.366 . S
C6855 C6856 1.414 . S
C6855 C6858 1.499 . S
C6856 H6836 0.950 . S
C6856 C6855 1.414 . S
C6856 C6857 1.374 . S
C6857 H6837 0.950 . S
C6857 C6853 1.385 . S
C6857 C6856 1.374 . S
C6858 C6855 1.499 . S
C6858 C6859 1.373 . S
C6858 C6860 1.389 . S
C6859 H6838 0.950 . S
C6859 C6858 1.373 . S
C6859 C6875 1.377 . S
C6860 C6858 1.389 . S
C6860 C6861 1.524 . S
C6860 C6874 1.377 . S
C6861 C6860 1.524 . S
C6861 C6862 1.397 . S
C6861 C6866 1.363 . S
C6862 H6839 0.950 . S
C6862 C6861 1.397 . S
C6862 C6863 1.334 . S
C6863 H6840 0.950 . S
C6863 C6862 1.334 . S
C6863 C6864 1.287 . S
C6864 C6863 1.287 . S
C6864 C6865 1.524 . S
C6864 H6883 0.913 . S
C6865 H6841 0.950 . S
C6865 C6864 1.524 . S
C6865 C6866 1.415 . S
C6866 H6842 0.950 . S
C6866 C6861 1.363 . S
C6866 C6865 1.415 . S
C6867 H6843 0.951 . S
C6867 C6868 1.366 . S
C6867 C6869 1.388 . S
C6868 C6867 1.366 . S
C6868 C6872 1.385 . S
C6869 H6844 0.951 . S
C6869 C6867 1.388 . S
C6869 C6870 1.366 . S
C6870 C6869 1.366 . S
C6870 C6871 1.414 . S
C6870 C6873 1.499 . S
C6871 H6845 0.950 . S
C6871 C6870 1.414 . S
C6871 C6872 1.374 . S
C6872 H6846 0.950 . S
C6872 C6868 1.385 . S
C6872 C6871 1.374 . S
C6873 C6870 1.499 . S
C6873 C6874 1.373 . S
C6873 C6875 1.389 . S
C6874 H6847 0.950 . S
C6874 C6860 1.377 . S
C6874 C6873 1.373 . S
C6875 C6859 1.377 . S
C6875 C6873 1.389 . S
C6875 C6876 1.524 . S
C6876 C6875 1.524 . S
C6876 C6877 1.397 . S
C6876 C6881 1.363 . S
C6877 H6848 0.950 . S
C6877 C6876 1.397 . S
C6877 C6878 1.334 . S
C6878 H6849 0.950 . S
C6878 C6877 1.334 . S
C6878 C6879 1.287 . S
C6879 C6878 1.287 . S
C6879 C6880 1.524 . S
C6879 H6882 0.999 . S
C6880 H6850 0.950 . S
C6880 C6879 1.524 . S
C6880 C6881 1.415 . S
C6881 H6851 0.950 . S
C6881 C6876 1.363 . S
C6881 C6880 1.415 . S
H6882 C6879 0.999 . S
H6883 C6864 0.913 . S
H6884 C6902 0.951 . S
H6885 C6904 0.951 . S
H6886 C6906 0.950 . S
H6887 C6907 0.950 . S
H6888 C6909 0.950 . S
H6889 C6912 0.950 . S
H6890 C6913 0.950 . S
H6891 C6915 0.950 . S
H6892 C6916 0.950 . S
H6893 C6917 0.951 . S
H6894 C6919 0.951 . S
H6895 C6921 0.950 . S
H6896 C6922 0.950 . S
H6897 C6924 0.950 . S
H6898 C6927 0.950 . S
H6899 C6928 0.950 . S
H6900 C6930 0.950 . S
H6901 C6931 0.950 . S
C6902 H6884 0.951 . S
C6902 C6903 1.366 . S
C6902 C6904 1.388 . S
C6903 C6902 1.366 . S
C6903 C6907 1.385 . S
C6904 H6885 0.951 . S
C6904 C6902 1.388 . S
C6904 C6905 1.366 . S
C6905 C6904 1.366 . S
C6905 C6906 1.414 . S
C6905 C6908 1.499 . S
C6906 H6886 0.950 . S
C6906 C6905 1.414 . S
C6906 C6907 1.374 . S
C6907 H6887 0.950 . S
C6907 C6903 1.385 . S
C6907 C6906 1.374 . S
C6908 C6905 1.499 . S
C6908 C6909 1.373 . S
C6908 C6910 1.389 . S
C6909 H6888 0.950 . S
C6909 C6908 1.373 . S
C6909 C6925 1.377 . S
C6910 C6908 1.389 . S
C6910 C6911 1.524 . S
C6910 C6924 1.377 . S
C6911 C6910 1.524 . S
C6911 C6912 1.397 . S
C6911 C6916 1.363 . S
C6912 H6889 0.950 . S
C6912 C6911 1.397 . S
C6912 C6913 1.334 . S
C6913 H6890 0.950 . S
C6913 C6912 1.334 . S
C6913 C6914 1.287 . S
C6914 C6913 1.287 . S
C6914 C6915 1.524 . S
C6914 H6933 0.913 . S
C6915 H6891 0.950 . S
C6915 C6914 1.524 . S
C6915 C6916 1.415 . S
C6916 H6892 0.950 . S
C6916 C6911 1.363 . S
C6916 C6915 1.415 . S
C6917 H6893 0.951 . S
C6917 C6918 1.366 . S
C6917 C6919 1.388 . S
C6918 C6917 1.366 . S
C6918 C6922 1.385 . S
C6919 H6894 0.951 . S
C6919 C6917 1.388 . S
C6919 C6920 1.366 . S
C6920 C6919 1.366 . S
C6920 C6921 1.414 . S
C6920 C6923 1.499 . S
C6921 H6895 0.950 . S
C6921 C6920 1.414 . S
C6921 C6922 1.374 . S
C6922 H6896 0.950 . S
C6922 C6918 1.385 . S
C6922 C6921 1.374 . S
C6923 C6920 1.499 . S
C6923 C6924 1.373 . S
C6923 C6925 1.389 . S
C6924 H6897 0.950 . S
C6924 C6910 1.377 . S
C6924 C6923 1.373 . S
C6925 C6909 1.377 . S
C6925 C6923 1.389 . S
C6925 C6926 1.524 . S
C6926 C6925 1.524 . S
C6926 C6927 1.397 . S
C6926 C6931 1.363 . S
C6927 H6898 0.950 . S
C6927 C6926 1.397 . S
C6927 C6928 1.334 . S
C6928 H6899 0.950 . S
C6928 C6927 1.334 . S
C6928 C6929 1.287 . S
C6929 C6928 1.287 . S
C6929 C6930 1.524 . S
C6929 H6932 0.999 . S
C6930 H6900 0.950 . S
C6930 C6929 1.524 . S
C6930 C6931 1.415 . S
C6931 H6901 0.950 . S
C6931 C6926 1.363 . S
C6931 C6930 1.415 . S
H6932 C6929 0.999 . S
H6933 C6914 0.913 . S
H6934 C6952 0.951 . S
H6935 C6954 0.951 . S
H6936 C6956 0.950 . S
H6937 C6957 0.950 . S
H6938 C6959 0.950 . S
H6939 C6962 0.950 . S
H6940 C6963 0.950 . S
H6941 C6965 0.950 . S
H6942 C6966 0.950 . S
H6943 C6967 0.951 . S
H6944 C6969 0.951 . S
H6945 C6971 0.950 . S
H6946 C6972 0.950 . S
H6947 C6974 0.950 . S
H6948 C6977 0.950 . S
H6949 C6978 0.950 . S
H6950 C6980 0.950 . S
H6951 C6981 0.950 . S
C6952 H6934 0.951 . S
C6952 C6953 1.366 . S
C6952 C6954 1.388 . S
C6953 C6952 1.366 . S
C6953 C6957 1.385 . S
C6954 H6935 0.951 . S
C6954 C6952 1.388 . S
C6954 C6955 1.366 . S
C6955 C6954 1.366 . S
C6955 C6956 1.414 . S
C6955 C6958 1.499 . S
C6956 H6936 0.950 . S
C6956 C6955 1.414 . S
C6956 C6957 1.374 . S
C6957 H6937 0.950 . S
C6957 C6953 1.385 . S
C6957 C6956 1.374 . S
C6958 C6955 1.499 . S
C6958 C6959 1.373 . S
C6958 C6960 1.389 . S
C6959 H6938 0.950 . S
C6959 C6958 1.373 . S
C6959 C6975 1.377 . S
C6960 C6958 1.389 . S
C6960 C6961 1.524 . S
C6960 C6974 1.377 . S
C6961 C6960 1.524 . S
C6961 C6962 1.397 . S
C6961 C6966 1.363 . S
C6962 H6939 0.950 . S
C6962 C6961 1.397 . S
C6962 C6963 1.334 . S
C6963 H6940 0.950 . S
C6963 C6962 1.334 . S
C6963 C6964 1.287 . S
C6964 C6963 1.287 . S
C6964 C6965 1.524 . S
C6964 H6983 0.913 . S
C6965 H6941 0.950 . S
C6965 C6964 1.524 . S
C6965 C6966 1.415 . S
C6966 H6942 0.950 . S
C6966 C6961 1.363 . S
C6966 C6965 1.415 . S
C6967 H6943 0.951 . S
C6967 C6968 1.366 . S
C6967 C6969 1.388 . S
C6968 C6967 1.366 . S
C6968 C6972 1.385 . S
C6969 H6944 0.951 . S
C6969 C6967 1.388 . S
C6969 C6970 1.366 . S
C6970 C6969 1.366 . S
C6970 C6971 1.414 . S
C6970 C6973 1.499 . S
C6971 H6945 0.950 . S
C6971 C6970 1.414 . S
C6971 C6972 1.374 . S
C6972 H6946 0.950 . S
C6972 C6968 1.385 . S
C6972 C6971 1.374 . S
C6973 C6970 1.499 . S
C6973 C6974 1.373 . S
C6973 C6975 1.389 . S
C6974 H6947 0.950 . S
C6974 C6960 1.377 . S
C6974 C6973 1.373 . S
C6975 C6959 1.377 . S
C6975 C6973 1.389 . S
C6975 C6976 1.524 . S
C6976 C6975 1.524 . S
C6976 C6977 1.397 . S
C6976 C6981 1.363 . S
C6977 H6948 0.950 . S
C6977 C6976 1.397 . S
C6977 C6978 1.334 . S
C6978 H6949 0.950 . S
C6978 C6977 1.334 . S
C6978 C6979 1.287 . S
C6979 C6978 1.287 . S
C6979 C6980 1.524 . S
C6979 H6982 0.999 . S
C6980 H6950 0.950 . S
C6980 C6979 1.524 . S
C6980 C6981 1.415 . S
C6981 H6951 0.950 . S
C6981 C6976 1.363 . S
C6981 C6980 1.415 . S
H6982 C6979 0.999 . S
H6983 C6964 0.913 . S
H6984 C7002 0.951 . S
H6985 C7004 0.951 . S
H6986 C7006 0.950 . S
H6987 C7007 0.950 . S
H6988 C7009 0.950 . S
H6989 C7012 0.950 . S
H6990 C7013 0.950 . S
H6991 C7015 0.950 . S
H6992 C7016 0.950 . S
H6993 C7017 0.951 . S
H6994 C7019 0.951 . S
H6995 C7021 0.950 . S
H6996 C7022 0.950 . S
H6997 C7024 0.950 . S
H6998 C7027 0.950 . S
H6999 C7028 0.950 . S
H7000 C7030 0.950 . S
H7001 C7031 0.950 . S
C7002 H6984 0.951 . S
C7002 C7003 1.366 . S
C7002 C7004 1.388 . S
C7003 C7002 1.366 . S
C7003 C7007 1.385 . S
C7004 H6985 0.951 . S
C7004 C7002 1.388 . S
C7004 C7005 1.366 . S
C7005 C7004 1.366 . S
C7005 C7006 1.414 . S
C7005 C7008 1.499 . S
C7006 H6986 0.950 . S
C7006 C7005 1.414 . S
C7006 C7007 1.374 . S
C7007 H6987 0.950 . S
C7007 C7003 1.385 . S
C7007 C7006 1.374 . S
C7008 C7005 1.499 . S
C7008 C7009 1.373 . S
C7008 C7010 1.389 . S
C7009 H6988 0.950 . S
C7009 C7008 1.373 . S
C7009 C7025 1.377 . S
C7010 C7008 1.389 . S
C7010 C7011 1.524 . S
C7010 C7024 1.377 . S
C7011 C7010 1.524 . S
C7011 C7012 1.397 . S
C7011 C7016 1.363 . S
C7012 H6989 0.950 . S
C7012 C7011 1.397 . S
C7012 C7013 1.334 . S
C7013 H6990 0.950 . S
C7013 C7012 1.334 . S
C7013 C7014 1.287 . S
C7014 C7013 1.287 . S
C7014 C7015 1.524 . S
C7014 H7033 0.913 . S
C7015 H6991 0.950 . S
C7015 C7014 1.524 . S
C7015 C7016 1.415 . S
C7016 H6992 0.950 . S
C7016 C7011 1.363 . S
C7016 C7015 1.415 . S
C7017 H6993 0.951 . S
C7017 C7018 1.366 . S
C7017 C7019 1.388 . S
C7018 C7017 1.366 . S
C7018 C7022 1.385 . S
C7019 H6994 0.951 . S
C7019 C7017 1.388 . S
C7019 C7020 1.366 . S
C7020 C7019 1.366 . S
C7020 C7021 1.414 . S
C7020 C7023 1.499 . S
C7021 H6995 0.950 . S
C7021 C7020 1.414 . S
C7021 C7022 1.374 . S
C7022 H6996 0.950 . S
C7022 C7018 1.385 . S
C7022 C7021 1.374 . S
C7023 C7020 1.499 . S
C7023 C7024 1.373 . S
C7023 C7025 1.389 . S
C7024 H6997 0.950 . S
C7024 C7010 1.377 . S
C7024 C7023 1.373 . S
C7025 C7009 1.377 . S
C7025 C7023 1.389 . S
C7025 C7026 1.524 . S
C7026 C7025 1.524 . S
C7026 C7027 1.397 . S
C7026 C7031 1.363 . S
C7027 H6998 0.950 . S
C7027 C7026 1.397 . S
C7027 C7028 1.334 . S
C7028 H6999 0.950 . S
C7028 C7027 1.334 . S
C7028 C7029 1.287 . S
C7029 C7028 1.287 . S
C7029 C7030 1.524 . S
C7029 H7032 0.999 . S
C7030 H7000 0.950 . S
C7030 C7029 1.524 . S
C7030 C7031 1.415 . S
C7031 H7001 0.950 . S
C7031 C7026 1.363 . S
C7031 C7030 1.415 . S
H7032 C7029 0.999 . S
H7033 C7014 0.913 . S
H7034 C7052 0.951 . S
H7035 C7054 0.951 . S
H7036 C7056 0.950 . S
H7037 C7057 0.950 . S
H7038 C7059 0.950 . S
H7039 C7062 0.950 . S
H7040 C7063 0.950 . S
H7041 C7065 0.950 . S
H7042 C7066 0.950 . S
H7043 C7067 0.951 . S
H7044 C7069 0.951 . S
H7045 C7071 0.950 . S
H7046 C7072 0.950 . S
H7047 C7074 0.950 . S
H7048 C7077 0.950 . S
H7049 C7078 0.950 . S
H7050 C7080 0.950 . S
H7051 C7081 0.950 . S
C7052 H7034 0.951 . S
C7052 C7053 1.366 . S
C7052 C7054 1.388 . S
C7053 C7052 1.366 . S
C7053 C7057 1.385 . S
C7054 H7035 0.951 . S
C7054 C7052 1.388 . S
C7054 C7055 1.366 . S
C7055 C7054 1.366 . S
C7055 C7056 1.414 . S
C7055 C7058 1.499 . S
C7056 H7036 0.950 . S
C7056 C7055 1.414 . S
C7056 C7057 1.374 . S
C7057 H7037 0.950 . S
C7057 C7053 1.385 . S
C7057 C7056 1.374 . S
C7058 C7055 1.499 . S
C7058 C7059 1.373 . S
C7058 C7060 1.389 . S
C7059 H7038 0.950 . S
C7059 C7058 1.373 . S
C7059 C7075 1.377 . S
C7060 C7058 1.389 . S
C7060 C7061 1.524 . S
C7060 C7074 1.377 . S
C7061 C7060 1.524 . S
C7061 C7062 1.397 . S
C7061 C7066 1.363 . S
C7062 H7039 0.950 . S
C7062 C7061 1.397 . S
C7062 C7063 1.334 . S
C7063 H7040 0.950 . S
C7063 C7062 1.334 . S
C7063 C7064 1.287 . S
C7064 C7063 1.287 . S
C7064 C7065 1.524 . S
C7064 H7083 0.913 . S
C7065 H7041 0.950 . S
C7065 C7064 1.524 . S
C7065 C7066 1.415 . S
C7066 H7042 0.950 . S
C7066 C7061 1.363 . S
C7066 C7065 1.415 . S
C7067 H7043 0.951 . S
C7067 C7068 1.366 . S
C7067 C7069 1.388 . S
C7068 C7067 1.366 . S
C7068 C7072 1.385 . S
C7069 H7044 0.951 . S
C7069 C7067 1.388 . S
C7069 C7070 1.366 . S
C7070 C7069 1.366 . S
C7070 C7071 1.414 . S
C7070 C7073 1.499 . S
C7071 H7045 0.950 . S
C7071 C7070 1.414 . S
C7071 C7072 1.374 . S
C7072 H7046 0.950 . S
C7072 C7068 1.385 . S
C7072 C7071 1.374 . S
C7073 C7070 1.499 . S
C7073 C7074 1.373 . S
C7073 C7075 1.389 . S
C7074 H7047 0.950 . S
C7074 C7060 1.377 . S
C7074 C7073 1.373 . S
C7075 C7059 1.377 . S
C7075 C7073 1.389 . S
C7075 C7076 1.524 . S
C7076 C7075 1.524 . S
C7076 C7077 1.397 . S
C7076 C7081 1.363 . S
C7077 H7048 0.950 . S
C7077 C7076 1.397 . S
C7077 C7078 1.334 . S
C7078 H7049 0.950 . S
C7078 C7077 1.334 . S
C7078 C7079 1.287 . S
C7079 C7078 1.287 . S
C7079 C7080 1.524 . S
C7079 H7082 0.999 . S
C7080 H7050 0.950 . S
C7080 C7079 1.524 . S
C7080 C7081 1.415 . S
C7081 H7051 0.950 . S
C7081 C7076 1.363 . S
C7081 C7080 1.415 . S
H7082 C7079 0.999 . S
H7083 C7064 0.913 . S
H7084 C7102 0.951 . S
H7085 C7104 0.951 . S
H7086 C7106 0.950 . S
H7087 C7107 0.950 . S
H7088 C7109 0.950 . S
H7089 C7112 0.950 . S
H7090 C7113 0.950 . S
H7091 C7115 0.950 . S
H7092 C7116 0.950 . S
H7093 C7117 0.951 . S
H7094 C7119 0.951 . S
H7095 C7121 0.950 . S
H7096 C7122 0.950 . S
H7097 C7124 0.950 . S
H7098 C7127 0.950 . S
H7099 C7128 0.950 . S
H7100 C7130 0.950 . S
H7101 C7131 0.950 . S
C7102 H7084 0.951 . S
C7102 C7103 1.366 . S
C7102 C7104 1.388 . S
C7103 C7102 1.366 . S
C7103 C7107 1.385 . S
C7104 H7085 0.951 . S
C7104 C7102 1.388 . S
C7104 C7105 1.366 . S
C7105 C7104 1.366 . S
C7105 C7106 1.414 . S
C7105 C7108 1.499 . S
C7106 H7086 0.950 . S
C7106 C7105 1.414 . S
C7106 C7107 1.374 . S
C7107 H7087 0.950 . S
C7107 C7103 1.385 . S
C7107 C7106 1.374 . S
C7108 C7105 1.499 . S
C7108 C7109 1.373 . S
C7108 C7110 1.389 . S
C7109 H7088 0.950 . S
C7109 C7108 1.373 . S
C7109 C7125 1.377 . S
C7110 C7108 1.389 . S
C7110 C7111 1.524 . S
C7110 C7124 1.377 . S
C7111 C7110 1.524 . S
C7111 C7112 1.397 . S
C7111 C7116 1.363 . S
C7112 H7089 0.950 . S
C7112 C7111 1.397 . S
C7112 C7113 1.334 . S
C7113 H7090 0.950 . S
C7113 C7112 1.334 . S
C7113 C7114 1.287 . S
C7114 C7113 1.287 . S
C7114 C7115 1.524 . S
C7114 H7133 0.913 . S
C7115 H7091 0.950 . S
C7115 C7114 1.524 . S
C7115 C7116 1.415 . S
C7116 H7092 0.950 . S
C7116 C7111 1.363 . S
C7116 C7115 1.415 . S
C7117 H7093 0.951 . S
C7117 C7118 1.366 . S
C7117 C7119 1.388 . S
C7118 C7117 1.366 . S
C7118 C7122 1.385 . S
C7119 H7094 0.951 . S
C7119 C7117 1.388 . S
C7119 C7120 1.366 . S
C7120 C7119 1.366 . S
C7120 C7121 1.414 . S
C7120 C7123 1.499 . S
C7121 H7095 0.950 . S
C7121 C7120 1.414 . S
C7121 C7122 1.374 . S
C7122 H7096 0.950 . S
C7122 C7118 1.385 . S
C7122 C7121 1.374 . S
C7123 C7120 1.499 . S
C7123 C7124 1.373 . S
C7123 C7125 1.389 . S
C7124 H7097 0.950 . S
C7124 C7110 1.377 . S
C7124 C7123 1.373 . S
C7125 C7109 1.377 . S
C7125 C7123 1.389 . S
C7125 C7126 1.524 . S
C7126 C7125 1.524 . S
C7126 C7127 1.397 . S
C7126 C7131 1.363 . S
C7127 H7098 0.950 . S
C7127 C7126 1.397 . S
C7127 C7128 1.334 . S
C7128 H7099 0.950 . S
C7128 C7127 1.334 . S
C7128 C7129 1.287 . S
C7129 C7128 1.287 . S
C7129 C7130 1.524 . S
C7129 H7132 0.999 . S
C7130 H7100 0.950 . S
C7130 C7129 1.524 . S
C7130 C7131 1.415 . S
C7131 H7101 0.950 . S
C7131 C7126 1.363 . S
C7131 C7130 1.415 . S
H7132 C7129 0.999 . S
H7133 C7114 0.913 . S
H7134 C7152 0.951 . S
H7135 C7154 0.951 . S
H7136 C7156 0.950 . S
H7137 C7157 0.950 . S
H7138 C7159 0.950 . S
H7139 C7162 0.950 . S
H7140 C7163 0.950 . S
H7141 C7165 0.950 . S
H7142 C7166 0.950 . S
H7143 C7167 0.951 . S
H7144 C7169 0.951 . S
H7145 C7171 0.950 . S
H7146 C7172 0.950 . S
H7147 C7174 0.950 . S
H7148 C7177 0.950 . S
H7149 C7178 0.950 . S
H7150 C7180 0.950 . S
H7151 C7181 0.950 . S
C7152 H7134 0.951 . S
C7152 C7153 1.366 . S
C7152 C7154 1.388 . S
C7153 C7152 1.366 . S
C7153 C7157 1.385 . S
C7154 H7135 0.951 . S
C7154 C7152 1.388 . S
C7154 C7155 1.366 . S
C7155 C7154 1.366 . S
C7155 C7156 1.414 . S
C7155 C7158 1.499 . S
C7156 H7136 0.950 . S
C7156 C7155 1.414 . S
C7156 C7157 1.374 . S
C7157 H7137 0.950 . S
C7157 C7153 1.385 . S
C7157 C7156 1.374 . S
C7158 C7155 1.499 . S
C7158 C7159 1.373 . S
C7158 C7160 1.389 . S
C7159 H7138 0.950 . S
C7159 C7158 1.373 . S
C7159 C7175 1.377 . S
C7160 C7158 1.389 . S
C7160 C7161 1.524 . S
C7160 C7174 1.377 . S
C7161 C7160 1.524 . S
C7161 C7162 1.397 . S
C7161 C7166 1.363 . S
C7162 H7139 0.950 . S
C7162 C7161 1.397 . S
C7162 C7163 1.334 . S
C7163 H7140 0.950 . S
C7163 C7162 1.334 . S
C7163 C7164 1.287 . S
C7164 C7163 1.287 . S
C7164 C7165 1.524 . S
C7164 H7183 0.913 . S
C7165 H7141 0.950 . S
C7165 C7164 1.524 . S
C7165 C7166 1.415 . S
C7166 H7142 0.950 . S
C7166 C7161 1.363 . S
C7166 C7165 1.415 . S
C7167 H7143 0.951 . S
C7167 C7168 1.366 . S
C7167 C7169 1.388 . S
C7168 C7167 1.366 . S
C7168 C7172 1.385 . S
C7169 H7144 0.951 . S
C7169 C7167 1.388 . S
C7169 C7170 1.366 . S
C7170 C7169 1.366 . S
C7170 C7171 1.414 . S
C7170 C7173 1.499 . S
C7171 H7145 0.950 . S
C7171 C7170 1.414 . S
C7171 C7172 1.374 . S
C7172 H7146 0.950 . S
C7172 C7168 1.385 . S
C7172 C7171 1.374 . S
C7173 C7170 1.499 . S
C7173 C7174 1.373 . S
C7173 C7175 1.389 . S
C7174 H7147 0.950 . S
C7174 C7160 1.377 . S
C7174 C7173 1.373 . S
C7175 C7159 1.377 . S
C7175 C7173 1.389 . S
C7175 C7176 1.524 . S
C7176 C7175 1.524 . S
C7176 C7177 1.397 . S
C7176 C7181 1.363 . S
C7177 H7148 0.950 . S
C7177 C7176 1.397 . S
C7177 C7178 1.334 . S
C7178 H7149 0.950 . S
C7178 C7177 1.334 . S
C7178 C7179 1.287 . S
C7179 C7178 1.287 . S
C7179 C7180 1.524 . S
C7179 H7182 0.999 . S
C7180 H7150 0.950 . S
C7180 C7179 1.524 . S
C7180 C7181 1.415 . S
C7181 H7151 0.950 . S
C7181 C7176 1.363 . S
C7181 C7180 1.415 . S
H7182 C7179 0.999 . S
H7183 C7164 0.913 . S
C2418 C1281 1.557 . S
C2403 C21 1.549 . S
C2468 C1348 1.423 . S
C2453 C42 1.411 . S
C2503 C82 1.525 . S
C2518 C1373 1.535 . S
C2568 C1433 1.492 . S
C2553 C135 1.493 . S
C2603 C175 1.410 . S
C2618 C1426 1.408 . S
C2653 C221 1.543 . S
C2668 C1302 1.550 . S
C2703 C255 1.480 . S
C2718 C1327 1.479 . S
C2768 C1394 1.572 . S
C2753 C301 1.558 . S
C2818 C1486 1.521 . S
C2803 C15 1.522 . S
C2853 C55 1.423 . S
C2868 C1525 1.421 . S
C2903 C101 1.554 . S
C2918 C1578 1.561 . S
C2968 C1603 1.503 . S
C2953 C141 1.491 . S
C3003 C162 1.437 . S
C3018 C1663 1.448 . S
C3068 C1716 1.519 . S
C3053 C215 1.520 . S
C3103 C261 1.494 . S
C3118 C1755 1.506 . S
C3168 C1794 1.529 . S
C3153 C282 1.513 . S
C3203 C2 1.525 . S
C3218 C1624 1.536 . S
C3253 C181 1.418 . S
C3268 C1695 1.427 . S
C3318 C1748 1.553 . S
C3303 C202 1.543 . S
C3353 C242 1.495 . S
C3368 C1801 1.510 . S
C3418 C1656 1.514 . S
C3403 C295 1.515 . S
C3468 C1518 1.525 . S
C3453 C95 1.526 . S
C3503 C122 1.485 . S
C3518 C1557 1.499 . S
C3568 C1465 1.440 . S
C3553 C61 1.428 . S
C3618 C1833 1.557 . S
C3603 C341 1.549 . S
C3653 C362 1.411 . S
C3668 C1879 1.422 . S
C3703 C402 1.525 . S
C3718 C1946 1.535 . S
C3768 C1992 1.492 . S
C3753 C455 1.493 . S
C3803 C495 1.410 . S
C3818 C1971 1.408 . S
C3853 C541 1.543 . S
C3868 C1854 1.550 . S
C3903 C575 1.480 . S
C3918 C1900 1.479 . S
C3953 C621 1.557 . S
C3968 C1925 1.571 . S
C4018 C1670 1.521 . S
C4003 C335 1.522 . S
C4053 C375 1.422 . S
C4068 C2031 1.422 . S
C4118 C1762 1.561 . S
C4103 C421 1.554 . S
C4153 C461 1.490 . S
C4168 C2063 1.503 . S
C4203 C482 1.437 . S
C4218 C1479 1.447 . S
C4268 C2130 1.519 . S
C4253 C535 1.520 . S
C4303 C581 1.493 . S
C4318 C1571 1.506 . S
C4368 C2162 1.528 . S
C4353 C602 1.513 . S
C4403 C322 1.525 . S
C4418 C2084 1.536 . S
C4468 C2109 1.427 . S
C4453 C501 1.418 . S
C4503 C522 1.543 . S
C4518 C1564 1.553 . S
C4568 C2169 1.510 . S
C4553 C562 1.495 . S
C4603 C615 1.515 . S
C4618 C1472 1.514 . S
C4653 C415 1.526 . S
C4668 C2024 1.525 . S
C4703 C442 1.484 . S
C4718 C1741 1.499 . S
C4753 C381 1.429 . S
C4768 C1649 1.439 . S
C4803 C661 1.549 . S
C4818 C1939 1.557 . S
C4868 C1985 1.423 . S
C4853 C682 1.410 . S
C4903 C722 1.525 . S
C4918 C1840 1.535 . S
C4953 C775 1.493 . S
C4968 C1886 1.493 . S
C5003 C815 1.410 . S
C5018 C1893 1.409 . S
C5053 C861 1.543 . S
C5068 C1932 1.551 . S
C5118 C1978 1.479 . S
C5103 C895 1.480 . S
C5153 C941 1.557 . S
C5168 C1847 1.572 . S
C5218 C2201 1.521 . S
C5203 C655 1.522 . S
C5253 C695 1.422 . S
C5268 C1709 1.421 . S
C5318 C2247 1.562 . S
C5303 C741 1.554 . S
C5353 C781 1.490 . S
C5368 C1787 1.503 . S
C5403 C802 1.438 . S
C5418 C2314 1.447 . S
C5453 C855 1.520 . S
C5468 C1532 1.519 . S
C5518 C2346 1.506 . S
C5503 C901 1.493 . S
C5553 C922 1.512 . S
C5568 C1610 1.529 . S
C5618 C1808 1.536 . S
C5603 C642 1.525 . S
C5668 C1511 1.427 . S
C5653 C821 1.418 . S
C5703 C842 1.542 . S
C5718 C2353 1.553 . S
C5753 C882 1.495 . S
C5768 C1617 1.510 . S
C5818 C2293 1.514 . S
C5803 C935 1.515 . S
C5868 C1702 1.525 . S
C5853 C735 1.526 . S
C5918 C2268 1.499 . S
C5903 C762 1.484 . S
C5968 C2222 1.439 . S
C5953 C701 1.428 . S
C6003 C981 1.549 . S
C6018 C1380 1.557 . S
C6053 C1002 1.411 . S
C6068 C1440 1.423 . S
C6118 C1288 1.535 . S
C6103 C1042 1.524 . S
C6168 C1341 1.492 . S
C6153 C1095 1.493 . S
C6218 C1334 1.408 . S
C6203 C1135 1.410 . S
C6268 C1387 1.550 . S
C6253 C1181 1.543 . S
C6318 C1419 1.479 . S
C6303 C1215 1.480 . S
C6353 C1261 1.557 . S
C6368 C1295 1.572 . S
C6403 C975 1.522 . S
C6418 C2307 1.521 . S
C6468 C2123 1.421 . S
C6453 C1015 1.422 . S
C6518 C2339 1.562 . S
C6503 C1061 1.554 . S
C6568 C2155 1.503 . S
C6553 C1101 1.490 . S
C6603 C1122 1.437 . S
C6618 C2208 1.448 . S
C6668 C2038 1.519 . S
C6653 C1175 1.520 . S
C6718 C2254 1.506 . S
C6703 C1221 1.493 . S
C6753 C1242 1.513 . S
C6768 C2070 1.529 . S
C6818 C2176 1.536 . S
C6803 C962 1.525 . S
C6868 C2017 1.427 . S
C6853 C1141 1.418 . S
C6918 C2261 1.553 . S
C6903 C1162 1.543 . S
C6953 C1202 1.495 . S
C6968 C2077 1.510 . S
C7003 C1255 1.515 . S
C7018 C2215 1.515 . S
C7053 C1055 1.526 . S
C7068 C2116 1.525 . S
C7103 C1082 1.484 . S
C7118 C2360 1.499 . S
C7168 C2300 1.439 . S
C7153 C1021 1.428 . S
