# Generated by pormake.
# Topology nom, (4,4)-cn, num edge types: 1
# Building blocks:
#     Node 0, Type 0, BuildingBlock: MUDLON_clean_linker_0, # of connection points: 4
#     Node 1, Type 0, BuildingBlock: MUDLON_clean_linker_0, # of connection points: 4
#     Node 2, Type 0, BuildingBlock: MUDLON_clean_linker_0, # of connection points: 4
#     Node 3, Type 0, BuildingBlock: MUDLON_clean_linker_0, # of connection points: 4
#     Node 4, Type 0, BuildingBlock: MUDLON_clean_linker_0, # of connection points: 4
#     Node 5, Type 0, BuildingBlock: MUDLON_clean_linker_0, # of connection points: 4
#     Node 6, Type 1, BuildingBlock: AZAVOO_clean_sbu_0, # of connection points: 4
#     Node 7, Type 1, BuildingBlock: AZAVOO_clean_sbu_0, # of connection points: 4
#     Node 8, Type 1, BuildingBlock: AZAVOO_clean_sbu_0, # of connection points: 4
#     Node 9, Type 1, BuildingBlock: AZAVOO_clean_sbu_0, # of connection points: 4
#     Node 10, Type 1, BuildingBlock: AZAVOO_clean_sbu_0, # of connection points: 4
#     Node 11, Type 1, BuildingBlock: AZAVOO_clean_sbu_0, # of connection points: 4
#     Edge 12, Type (0, 1), BuildingBlock: CIFDUS_clean_linker_0, # of connection points: 2
#     Edge 13, Type (0, 1), BuildingBlock: CIFDUS_clean_linker_0, # of connection points: 2
#     Edge 14, Type (0, 1), BuildingBlock: CIFDUS_clean_linker_0, # of connection points: 2
#     Edge 15, Type (0, 1), BuildingBlock: CIFDUS_clean_linker_0, # of connection points: 2
#     Edge 16, Type (0, 1), BuildingBlock: CIFDUS_clean_linker_0, # of connection points: 2
#     Edge 17, Type (0, 1), BuildingBlock: CIFDUS_clean_linker_0, # of connection points: 2
#     Edge 18, Type (0, 1), BuildingBlock: CIFDUS_clean_linker_0, # of connection points: 2
#     Edge 19, Type (0, 1), BuildingBlock: CIFDUS_clean_linker_0, # of connection points: 2
#     Edge 20, Type (0, 1), BuildingBlock: CIFDUS_clean_linker_0, # of connection points: 2
#     Edge 21, Type (0, 1), BuildingBlock: CIFDUS_clean_linker_0, # of connection points: 2
#     Edge 22, Type (0, 1), BuildingBlock: CIFDUS_clean_linker_0, # of connection points: 2
#     Edge 23, Type (0, 1), BuildingBlock: CIFDUS_clean_linker_0, # of connection points: 2
#     Edge 24, Type (0, 1), BuildingBlock: CIFDUS_clean_linker_0, # of connection points: 2
#     Edge 25, Type (0, 1), BuildingBlock: CIFDUS_clean_linker_0, # of connection points: 2
#     Edge 26, Type (0, 1), BuildingBlock: CIFDUS_clean_linker_0, # of connection points: 2
#     Edge 27, Type (0, 1), BuildingBlock: CIFDUS_clean_linker_0, # of connection points: 2
#     Edge 28, Type (0, 1), BuildingBlock: CIFDUS_clean_linker_0, # of connection points: 2
#     Edge 29, Type (0, 1), BuildingBlock: CIFDUS_clean_linker_0, # of connection points: 2
#     Edge 30, Type (0, 1), BuildingBlock: CIFDUS_clean_linker_0, # of connection points: 2
#     Edge 31, Type (0, 1), BuildingBlock: CIFDUS_clean_linker_0, # of connection points: 2
#     Edge 32, Type (0, 1), BuildingBlock: CIFDUS_clean_linker_0, # of connection points: 2
#     Edge 33, Type (0, 1), BuildingBlock: CIFDUS_clean_linker_0, # of connection points: 2
#     Edge 34, Type (0, 1), BuildingBlock: CIFDUS_clean_linker_0, # of connection points: 2
#     Edge 35, Type (0, 1), BuildingBlock: CIFDUS_clean_linker_0, # of connection points: 2
# Relax obj value: 0.036
# Max RMSD: 0.157
# Mean RMSD: 0.120
data_MOF--net-nom--node1-AZAVOO_clean_sbu_0--node2-MUDLON_clean_linker_0--edge1-CIFDUS_clean_linker_0
_symmetry_space_group_name_H-M    P1
_symmetry_Int_Tables_number       1
_symmetry_cell_setting            triclinic
loop_
_symmetry_equiv_pos_as_xyz
'x, y, z'
_cell_length_a     54.890429
_cell_length_b     55.902647
_cell_length_c     53.299381
_cell_angle_alpha  91.489371
_cell_angle_beta   90.806065
_cell_angle_gamma 120.3255
loop_
_atom_site_label
_atom_site_type_symbol
_atom_site_fract_x
_atom_site_fract_y
_atom_site_fract_z
_atom_type_partial_charge
H0 H 0.15211 0.53776 0.32828 0.0
N1 N 0.1077 0.5381 0.34662 0.0
H2 H 0.1895 0.57323 0.30355 0.0
H3 H 0.1089 0.58415 0.32886 0.0
H4 H 0.1462 0.61982 0.30397 0.0
H5 H 0.11747 0.58447 0.37407 0.0
H6 H 0.13659 0.59702 0.4171 0.0
H7 H 0.1151 0.50645 0.37852 0.0
H8 H 0.13433 0.51889 0.42172 0.0
H9 H 0.08175 0.49808 0.31161 0.0
H10 H 0.0677 0.55036 0.36316 0.0
H11 H 0.0323 0.47545 0.29686 0.0
H12 H 0.01813 0.52728 0.34895 0.0
H13 H 0.88841 0.3902 0.26094 0.0
H14 H 0.87023 0.38236 0.21746 0.0
H15 H 0.88299 0.46522 0.21807 0.0
H16 H 0.90146 0.47295 0.26153 0.0
H17 H 0.90508 0.48178 0.3082 0.0
H18 H 0.86744 0.48411 0.32984 0.0
H19 H 0.81742 0.39445 0.3264 0.0
H20 H 0.85607 0.39251 0.30642 0.0
H21 H 0.95003 0.4621 0.26041 0.0
H22 H 0.99929 0.48926 0.27396 0.0
H23 H 0.97574 0.47574 0.35134 0.0
N24 N 0.90393 0.43461 0.29085 0.0
H25 H 0.9262 0.44782 0.33808 0.0
C26 C 0.12785 0.55831 0.33032 0.0
C27 C 0.15059 0.55548 0.32274 0.0
C28 C 0.17183 0.57571 0.30859 0.0
C29 C 0.17077 0.59932 0.30182 0.0
C30 C 0.1477 0.60198 0.30913 0.0
C31 C 0.12632 0.58158 0.3232 0.0
C32 C 0.11492 0.54443 0.37303 0.0
C33 C 0.12068 0.56984 0.38439 0.0
C34 C 0.1318 0.5771 0.40897 0.0
C35 C 0.13723 0.55907 0.42271 0.0
C36 C 0.13021 0.53315 0.4117 0.0
C37 C 0.11923 0.52599 0.38707 0.0
C38 C 0.07843 0.52558 0.33868 0.0
C39 C 0.06797 0.50461 0.31976 0.0
C40 C 0.03985 0.49185 0.31127 0.0
C41 C 0.02145 0.49963 0.32181 0.0
C42 C 0.03188 0.5208 0.34066 0.0
C43 C 0.06024 0.53396 0.34883 0.0
C44 C 0.89619 0.432 0.26446 0.0
C45 C 0.88766 0.40677 0.25152 0.0
C46 C 0.87729 0.40237 0.22673 0.0
C47 C 0.87505 0.42314 0.21439 0.0
C48 C 0.88414 0.44872 0.22721 0.0
C49 C 0.89479 0.4532 0.25198 0.0
C50 C 0.8834 0.43685 0.30587 0.0
C51 C 0.88627 0.46265 0.31269 0.0
C52 C 0.86454 0.46392 0.32486 0.0
C53 C 0.83914 0.43948 0.32979 0.0
C54 C 0.83676 0.41375 0.32348 0.0
C55 C 0.85873 0.41252 0.31183 0.0
C56 C 0.93347 0.45349 0.29817 0.0
C57 C 0.9549 0.46524 0.28036 0.0
C58 C 0.98336 0.48074 0.28807 0.0
C59 C 0.99125 0.48488 0.31368 0.0
C60 C 0.97018 0.47336 0.33148 0.0
C61 C 0.94177 0.45746 0.32383 0.0
H62 H 0.49994 0.88303 0.46056 0.0
N63 N 0.49303 0.92409 0.44569 0.0
H64 H 0.46683 0.84245 0.48342 0.0
H65 H 0.44445 0.91628 0.46683 0.0
H66 H 0.41144 0.87611 0.49019 0.0
H67 H 0.44406 0.91188 0.42037 0.0
H68 H 0.43075 0.89342 0.37722 0.0
H69 H 0.52572 0.91973 0.41194 0.0
H70 H 0.51241 0.9007 0.36883 0.0
H71 H 0.54096 0.95504 0.47152 0.0
H72 H 0.46944 0.95692 0.43958 0.0
H73 H 0.56137 0.0032 0.48672 0.0
H74 H 0.48995 0.00531 0.45415 0.0
H75 H 0.6211 0.13491 0.54021 0.0
H76 H 0.62442 0.15238 0.58341 0.0
H77 H 0.54092 0.14135 0.57434 0.0
H78 H 0.53821 0.12461 0.53104 0.0
H79 H 0.53673 0.12667 0.48589 0.0
H80 H 0.54108 0.16554 0.46229 0.0
H81 H 0.63191 0.20299 0.46525 0.0
H82 H 0.62727 0.16437 0.48944 0.0
H83 H 0.605 0.09699 0.48526 0.0
H84 H 0.58298 0.04871 0.46992 0.0
H85 H 0.50161 0.03512 0.49205 0.0
N86 N 0.58037 0.12239 0.50619 0.0
H87 H 0.52385 0.08366 0.50678 0.0
C88 C 0.47478 0.90266 0.4621 0.0
C89 C 0.48086 0.88179 0.46739 0.0
C90 C 0.46193 0.85868 0.48048 0.0
C91 C 0.43642 0.85598 0.48857 0.0
C92 C 0.43072 0.87738 0.48391 0.0
C93 C 0.44972 0.90052 0.47076 0.0
C94 C 0.48606 0.91733 0.41933 0.0
C95 C 0.45937 0.91017 0.4091 0.0
C96 C 0.45164 0.89929 0.38447 0.0
C97 C 0.47041 0.89534 0.36964 0.0
C98 C 0.49753 0.90371 0.37962 0.0
C99 C 0.50521 0.91458 0.40422 0.0
C100 C 0.5039 0.95243 0.45429 0.0
C101 C 0.52976 0.96595 0.46771 0.0
C102 C 0.54143 0.9935 0.47623 0.0
C103 C 0.52743 0.00825 0.47146 0.0
C104 C 0.50119 0.99452 0.4583 0.0
C105 C 0.4895 0.96684 0.44979 0.0
C106 C 0.57948 0.12834 0.53247 0.0
C107 C 0.60334 0.13575 0.54779 0.0
C108 C 0.60513 0.14568 0.57247 0.0
C109 C 0.58296 0.1484 0.58234 0.0
C110 C 0.55852 0.13988 0.56722 0.0
C111 C 0.55679 0.12997 0.54249 0.0
C112 C 0.58179 0.14278 0.48946 0.0
C113 C 0.55752 0.14309 0.48123 0.0
C114 C 0.56006 0.1653 0.46766 0.0
C115 C 0.58687 0.18753 0.46213 0.0
C116 C 0.61098 0.18649 0.46961 0.0
C117 C 0.60841 0.16436 0.48317 0.0
C118 C 0.56621 0.09388 0.49727 0.0
C119 C 0.58241 0.08354 0.48673 0.0
C120 C 0.56979 0.05592 0.47814 0.0
C121 C 0.54053 0.03792 0.47995 0.0
C122 C 0.52416 0.04845 0.49021 0.0
C123 C 0.53689 0.07621 0.4988 0.0
H124 H 0.49079 0.62864 0.63712 0.0
N125 N 0.48031 0.57826 0.64724 0.0
H126 H 0.46007 0.64085 0.61432 0.0
H127 H 0.43503 0.54248 0.6157 0.0
H128 H 0.4052 0.55458 0.59188 0.0
H129 H 0.42828 0.54321 0.66587 0.0
H130 H 0.41157 0.54728 0.70664 0.0
H131 H 0.50995 0.61429 0.6845 0.0
H132 H 0.49252 0.62061 0.72453 0.0
H133 H 0.53147 0.58823 0.63599 0.0
H134 H 0.44644 0.52119 0.64548 0.0
H135 H 0.54659 0.55457 0.62738 0.0
H136 H 0.46061 0.48786 0.6352 0.0
H137 H 0.58423 0.46098 0.58587 0.0
H138 H 0.59955 0.45447 0.54462 0.0
H139 H 0.51258 0.39828 0.52147 0.0
H140 H 0.49751 0.40476 0.56293 0.0
H141 H 0.51372 0.3806 0.60921 0.0
H142 H 0.53656 0.36186 0.63491 0.0
H143 H 0.5974 0.4449 0.66274 0.0
H144 H 0.57536 0.46348 0.6352 0.0
H145 H 0.55716 0.48734 0.58676 0.0
H146 H 0.54533 0.52241 0.59807 0.0
H147 H 0.48433 0.46667 0.64988 0.0
N148 N 0.53034 0.43327 0.60248 0.0
H149 H 0.49481 0.4308 0.63691 0.0
C150 C 0.46541 0.58472 0.6285 0.0
C151 C 0.47251 0.61247 0.62673 0.0
C152 C 0.45488 0.61941 0.61357 0.0
C153 C 0.42977 0.59865 0.60153 0.0
C154 C 0.42394 0.57106 0.60149 0.0
C155 C 0.44133 0.56409 0.61505 0.0
C156 C 0.47076 0.57807 0.67233 0.0
C157 C 0.44295 0.55929 0.67899 0.0
C158 C 0.43314 0.56214 0.70225 0.0
C159 C 0.45044 0.58457 0.71899 0.0
C160 C 0.47858 0.60279 0.71252 0.0
C161 C 0.48862 0.59937 0.68954 0.0
C162 C 0.48782 0.55755 0.64104 0.0
C163 C 0.51598 0.5663 0.63581 0.0
C164 C 0.52452 0.54697 0.63077 0.0
C165 C 0.50488 0.51831 0.63055 0.0
C166 C 0.47658 0.50964 0.63569 0.0
C167 C 0.46824 0.52894 0.64122 0.0
C168 C 0.53966 0.43329 0.57734 0.0
C169 C 0.56847 0.44767 0.57173 0.0
C170 C 0.57718 0.44397 0.54817 0.0
C171 C 0.55726 0.42567 0.52993 0.0
C172 C 0.52841 0.41222 0.53529 0.0
C173 C 0.51974 0.41607 0.55879 0.0
C174 C 0.54254 0.42325 0.62053 0.0
C175 C 0.53178 0.39466 0.62112 0.0
C176 C 0.54486 0.38402 0.63602 0.0
C177 C 0.56882 0.40177 0.65125 0.0
C178 C 0.57925 0.43056 0.65108 0.0
C179 C 0.56644 0.44125 0.63563 0.0
C180 C 0.52644 0.45594 0.61067 0.0
C181 C 0.54118 0.48243 0.6005 0.0
C182 C 0.53455 0.50279 0.60723 0.0
C183 C 0.51351 0.49742 0.62468 0.0
C184 C 0.49999 0.47142 0.63579 0.0
C185 C 0.50618 0.45092 0.62865 0.0
H186 H 0.1424 0.64967 0.81679 0.0
N187 N 0.10415 0.60407 0.79118 0.0
H188 H 0.18115 0.655 0.84407 0.0
H189 H 0.11149 0.56201 0.80795 0.0
H190 H 0.15096 0.56729 0.83293 0.0
H191 H 0.12783 0.57692 0.7669 0.0
H192 H 0.14646 0.58486 0.72539 0.0
H193 H 0.10363 0.63873 0.75791 0.0
H194 H 0.12218 0.64652 0.71528 0.0
H195 H 0.06701 0.6051 0.8219 0.0
H196 H 0.07685 0.55144 0.7684 0.0
H197 H 0.0203 0.56651 0.8318 0.0
H198 H 0.03081 0.51344 0.77816 0.0
H199 H 0.90755 0.47706 0.85387 0.0
H200 H 0.88913 0.47838 0.89493 0.0
H201 H 0.88896 0.40319 0.91306 0.0
H202 H 0.90986 0.40386 0.873 0.0
H203 H 0.9002 0.38612 0.82363 0.0
H204 H 0.8578 0.35642 0.79827 0.0
H205 H 0.84931 0.42758 0.78262 0.0
H206 H 0.89065 0.45654 0.80998 0.0
H207 H 0.96321 0.48035 0.8662 0.0
H208 H 0.00495 0.52172 0.8532 0.0
H209 H 0.97948 0.49692 0.77552 0.0
N210 N 0.9216 0.43915 0.83656 0.0
H211 H 0.93761 0.45534 0.7882 0.0
C212 C 0.12431 0.60567 0.8099 0.0
C213 C 0.1439 0.63157 0.82087 0.0
C214 C 0.16624 0.63457 0.83623 0.0
C215 C 0.16983 0.61173 0.84043 0.0
C216 C 0.14906 0.58545 0.83059 0.0
C217 C 0.1264 0.58239 0.81585 0.0
C218 C 0.11429 0.6074 0.76586 0.0
C219 C 0.1263 0.59217 0.75606 0.0
C220 C 0.13672 0.59648 0.73196 0.0
C221 C 0.13554 0.61611 0.71689 0.0
C222 C 0.12339 0.63125 0.72648 0.0
C223 C 0.11276 0.62679 0.75074 0.0
C224 C 0.07563 0.58156 0.79437 0.0
C225 C 0.05899 0.58524 0.81202 0.0
C226 C 0.03245 0.56319 0.81773 0.0
C227 C 0.02196 0.537 0.80572 0.0
C228 C 0.03817 0.53349 0.78745 0.0
C229 C 0.06476 0.55543 0.7819 0.0
C230 C 0.91055 0.44057 0.86064 0.0
C231 C 0.90391 0.46117 0.86694 0.0
C232 C 0.89308 0.46168 0.89042 0.0
C233 C 0.88757 0.44098 0.90771 0.0
C234 C 0.8937 0.42009 0.90088 0.0
C235 C 0.90534 0.42014 0.87778 0.0
C236 C 0.89866 0.42342 0.81855 0.0
C237 C 0.88929 0.39526 0.81444 0.0
C238 C 0.86509 0.37838 0.79964 0.0
C239 C 0.84983 0.3894 0.78808 0.0
C240 C 0.85999 0.41806 0.79149 0.0
C241 C 0.88385 0.4348 0.80694 0.0
C242 C 0.94544 0.46504 0.82845 0.0
C243 C 0.96569 0.48403 0.84631 0.0
C244 C 0.98983 0.50782 0.83889 0.0
C245 C 0.99513 0.51288 0.81337 0.0
C246 C 0.97569 0.49372 0.79537 0.0
C247 C 0.95137 0.46997 0.80277 0.0
H248 H 0.5103 0.17127 0.0041 0.0
N249 N 0.50591 0.12461 0.98625 0.0
H250 H 0.54994 0.20888 0.02788 0.0
H251 H 0.54977 0.12154 0.0089 0.0
H252 H 0.58881 0.15844 0.03379 0.0
H253 H 0.55669 0.14657 0.96292 0.0
H254 H 0.5659 0.1616 0.92015 0.0
H255 H 0.46865 0.12028 0.95129 0.0
H256 H 0.47729 0.13357 0.90749 0.0
H257 H 0.46045 0.09107 0.01136 0.0
H258 H 0.52688 0.09238 0.96815 0.0
H259 H 0.43758 0.04064 0.01336 0.0
H260 H 0.50357 0.04204 0.9689 0.0
H261 H 0.35689 0.88032 0.00749 0.0
H262 H 0.34505 0.86111 0.04927 0.0
H263 H 0.43106 0.91726 0.07527 0.0
H264 H 0.44291 0.93526 0.03353 0.0
H265 H 0.44624 0.90233 0.00115 0.0
H266 H 0.45392 0.8703 0.975 0.0
H267 H 0.39226 0.8649 0.9204 0.0
H268 H 0.38463 0.89692 0.94674 0.0
H269 H 0.38592 0.95106 0.98602 0.0
H270 H 0.41143 0.00165 0.98553 0.0
H271 H 0.49053 0.00276 0.9935 0.0
N272 N 0.40715 0.91827 0.99189 0.0
H273 H 0.46482 0.9522 0.9928 0.0
C274 C 0.52691 0.14362 0.00456 0.0
C275 C 0.52709 0.16814 0.01105 0.0
C276 C 0.54978 0.18959 0.0248 0.0
C277 C 0.57284 0.18689 0.03265 0.0
C278 C 0.57172 0.16148 0.02765 0.0
C279 C 0.54912 0.14014 0.01358 0.0
C280 C 0.51196 0.13289 0.96057 0.0
C281 C 0.53924 0.1439 0.95113 0.0
C282 C 0.5444 0.15208 0.92636 0.0
C283 C 0.52235 0.14882 0.91018 0.0
C284 C 0.49491 0.13691 0.91947 0.0
C285 C 0.48986 0.12919 0.94443 0.0
C286 C 0.49508 0.09545 0.98946 0.0
C287 C 0.47014 0.08044 0.00245 0.0
C288 C 0.45697 0.05162 0.00327 0.0
C289 C 0.46843 0.03718 0.99085 0.0
C290 C 0.49417 0.05243 0.97874 0.0
C291 C 0.50747 0.08129 0.97816 0.0
C292 C 0.40064 0.90917 0.01725 0.0
C293 C 0.37304 0.88857 0.02233 0.0
C294 C 0.3663 0.87784 0.04625 0.0
C295 C 0.38714 0.88765 0.06561 0.0
C296 C 0.4146 0.909 0.0607 0.0
C297 C 0.42137 0.9195 0.03676 0.0
C298 C 0.41456 0.90184 0.97592 0.0
C299 C 0.43454 0.89449 0.98348 0.0
C300 C 0.43886 0.87609 0.96856 0.0
C301 C 0.4236 0.86498 0.94571 0.0
C302 C 0.40454 0.87329 0.93778 0.0
C303 C 0.40007 0.89148 0.95279 0.0
C304 C 0.42333 0.94787 0.98944 0.0
C305 C 0.40878 0.9623 0.98731 0.0
C306 C 0.42341 0.9912 0.98739 0.0
C307 C 0.45306 0.00635 0.98988 0.0
C308 C 0.46773 0.99179 0.99139 0.0
C309 C 0.45302 0.96281 0.99104 0.0
H310 H 0.52486 0.4064 0.13776 0.0
N311 N 0.52053 0.4502 0.14966 0.0
H312 H 0.56537 0.40582 0.12092 0.0
H313 H 0.56609 0.49468 0.1293 0.0
H314 H 0.60612 0.49422 0.1104 0.0
H315 H 0.56424 0.49082 0.17854 0.0
H316 H 0.5775 0.48662 0.22088 0.0
H317 H 0.49109 0.4089 0.17988 0.0
H318 H 0.5063 0.40279 0.2212 0.0
H319 H 0.47756 0.4328 0.11696 0.0
H320 H 0.53568 0.50423 0.16323 0.0
H321 H 0.45382 0.45754 0.1033 0.0
H322 H 0.51138 0.52812 0.15111 0.0
H323 H 0.37083 0.54022 0.08381 0.0
H324 H 0.36484 0.55598 0.04286 0.0
H325 H 0.45426 0.59288 0.03146 0.0
H326 H 0.46011 0.57724 0.07202 0.0
H327 H 0.45791 0.6063 0.10709 0.0
H328 H 0.46127 0.64143 0.13669 0.0
H329 H 0.39534 0.57779 0.17992 0.0
H330 H 0.39097 0.5426 0.14893 0.0
H331 H 0.39771 0.49651 0.10974 0.0
H332 H 0.4233 0.47223 0.11853 0.0
H333 H 0.50213 0.55044 0.11931 0.0
N334 N 0.41872 0.55064 0.10657 0.0
H335 H 0.47623 0.57445 0.11218 0.0
C336 C 0.54223 0.45039 0.13461 0.0
C337 C 0.54232 0.42552 0.13129 0.0
C338 C 0.56561 0.4253 0.12152 0.0
C339 C 0.58935 0.45001 0.11417 0.0
C340 C 0.58859 0.47483 0.11627 0.0
C341 C 0.56543 0.4751 0.12669 0.0
C342 C 0.52605 0.4504 0.17621 0.0
C343 C 0.55038 0.47224 0.18827 0.0
C344 C 0.55847 0.46941 0.21239 0.0
C345 C 0.54352 0.44405 0.22444 0.0
C346 C 0.51831 0.42278 0.21286 0.0
C347 C 0.50958 0.42612 0.18911 0.0
C348 C 0.50815 0.46622 0.14139 0.0
C349 C 0.48514 0.45373 0.12424 0.0
C350 C 0.47148 0.46785 0.11664 0.0
C351 C 0.48047 0.49482 0.12625 0.0
C352 C 0.50401 0.50755 0.143 0.0
C353 C 0.51786 0.49357 0.15029 0.0
C354 C 0.41577 0.5574 0.08114 0.0
C355 C 0.38901 0.55131 0.07224 0.0
C356 C 0.38565 0.56031 0.0489 0.0
C357 C 0.40915 0.57586 0.03409 0.0
C358 C 0.43584 0.58126 0.04264 0.0
C359 C 0.43914 0.57206 0.06586 0.0
C360 C 0.42357 0.57172 0.12542 0.0
C361 C 0.44416 0.59974 0.12288 0.0
C362 C 0.44636 0.61994 0.14019 0.0
C363 C 0.42843 0.61261 0.16074 0.0
C364 C 0.40908 0.58433 0.16407 0.0
C365 C 0.40663 0.56416 0.14649 0.0
C366 C 0.43492 0.53715 0.11017 0.0
C367 C 0.42053 0.50828 0.11172 0.0
C368 C 0.43526 0.49446 0.11654 0.0
C369 C 0.46488 0.50932 0.11964 0.0
C370 C 0.47933 0.5383 0.11747 0.0
C371 C 0.46451 0.55211 0.11306 0.0
Mg372 Mg 0.61777 0.36512 0.36061 0.0
O373 O 0.61457 0.38966 0.39414 0.0
O374 O 0.63382 0.43401 0.38396 0.0
Mg375 Mg 0.64806 0.43753 0.34341 0.0
C376 C 0.62157 0.41477 0.39954 0.0
C377 C 0.58836 0.30454 0.37791 0.0
O378 O 0.5739 0.30152 0.35703 0.0
O379 O 0.66518 0.3841 0.36817 0.0
O380 O 0.68194 0.42698 0.35463 0.0
O381 O 0.57601 0.35747 0.3452 0.0
O382 O 0.61744 0.39324 0.33647 0.0
C383 C 0.6858 0.40803 0.36335 0.0
C384 C 0.5904 0.38059 0.33394 0.0
O385 O 0.60783 0.3287 0.3851 0.0
Mg386 Mg 0.2868 0.67389 0.58415 0.0
O387 O 0.2554 0.64989 0.55116 0.0
O388 O 0.22415 0.60822 0.565 0.0
Mg389 Mg 0.2344 0.60586 0.60622 0.0
C390 C 0.23362 0.62574 0.54764 0.0
C391 C 0.3438 0.71916 0.56511 0.0
O392 O 0.35156 0.71108 0.5851 0.0
O393 O 0.30763 0.64758 0.57907 0.0
O394 O 0.27575 0.60776 0.59544 0.0
O395 O 0.26 0.69094 0.59776 0.0
O396 O 0.25551 0.65126 0.60924 0.0
C397 C 0.29974 0.623 0.58576 0.0
C398 C 0.24656 0.66856 0.61022 0.0
O399 O 0.31778 0.70682 0.55858 0.0
Mg400 Mg 0.62015 0.26443 0.75737 0.0
O401 O 0.61559 0.23373 0.72538 0.0
O402 O 0.63505 0.20968 0.73941 0.0
Mg403 Mg 0.65099 0.22387 0.77989 0.0
C404 C 0.62246 0.21517 0.72216 0.0
C405 C 0.62101 0.31365 0.72769 0.0
O406 O 0.64585 0.32902 0.73895 0.0
O407 O 0.66714 0.2919 0.7508 0.0
O408 O 0.68464 0.26684 0.7668 0.0
O409 O 0.57925 0.23347 0.773 0.0
O410 O 0.62037 0.238 0.78406 0.0
C411 C 0.68794 0.28874 0.7567 0.0
C412 C 0.59337 0.22518 0.78621 0.0
O413 O 0.60733 0.28766 0.73078 0.0
Mg414 Mg 0.39345 0.6701 0.86559 0.0
O415 O 0.38756 0.64067 0.89735 0.0
O416 O 0.36048 0.59723 0.8819 0.0
Mg417 Mg 0.34974 0.59878 0.84067 0.0
C418 C 0.37465 0.61444 0.89994 0.0
C419 C 0.41411 0.72941 0.88327 0.0
O420 O 0.41172 0.72951 0.8587 0.0
O421 O 0.34838 0.66115 0.86886 0.0
O422 O 0.32279 0.6178 0.85266 0.0
O423 O 0.43152 0.66878 0.85286 0.0
O424 O 0.38785 0.64007 0.83894 0.0
C425 C 0.32472 0.63982 0.86248 0.0
C426 C 0.41419 0.64761 0.8386 0.0
O427 O 0.40895 0.70698 0.89327 0.0
Mg428 Mg 0.74022 0.39022 0.04292 0.0
O429 O 0.76933 0.39983 0.07814 0.0
O430 O 0.79701 0.3824 0.06851 0.0
Mg431 Mg 0.7887 0.36532 0.02788 0.0
C432 C 0.78889 0.39465 0.08395 0.0
C433 C 0.71062 0.42027 0.06942 0.0
O434 O 0.73478 0.44301 0.06597 0.0
O435 O 0.71624 0.34439 0.05146 0.0
O436 O 0.74474 0.32949 0.03774 0.0
O437 O 0.76986 0.43078 0.02567 0.0
O438 O 0.77155 0.39236 0.02064 0.0
C439 C 0.72126 0.32484 0.04657 0.0
C440 C 0.78197 0.41809 0.01602 0.0
O441 O 0.70794 0.39685 0.06355 0.0
Mg442 Mg 0.35221 0.75128 0.20667 0.0
O443 O 0.37721 0.77979 0.24079 0.0
O444 O 0.4222 0.80446 0.22964 0.0
Mg445 Mg 0.42595 0.79263 0.18917 0.0
C446 C 0.40301 0.79817 0.24568 0.0
C447 C 0.30277 0.73185 0.24609 0.0
O448 O 0.31288 0.75846 0.25072 0.0
O449 O 0.37054 0.72354 0.2134 0.0
O450 O 0.41443 0.74848 0.19975 0.0
O451 O 0.3442 0.78361 0.19139 0.0
O452 O 0.38114 0.77946 0.18266 0.0
C453 C 0.39441 0.72617 0.20839 0.0
C454 C 0.36778 0.79268 0.17994 0.0
O455 O 0.31463 0.72403 0.23023 0.0
H456 H 0.1972 0.65528 0.31059 0.0
H457 H 0.19691 0.59248 0.26152 0.0
H458 H 0.23759 0.628 0.24006 0.0
H459 H 0.27383 0.67644 0.23592 0.0
H460 H 0.27448 0.73983 0.28444 0.0
H461 H 0.23285 0.70447 0.30532 0.0
C462 C 0.20583 0.64944 0.29497 0.0
C463 C 0.19414 0.62127 0.28773 0.0
C464 C 0.22931 0.67001 0.28273 0.0
C465 C 0.20575 0.61398 0.26766 0.0
C466 C 0.22895 0.63427 0.25534 0.0
C467 C 0.26493 0.68262 0.25107 0.0
C468 C 0.27738 0.71075 0.25869 0.0
C469 C 0.24107 0.66228 0.2629 0.0
C470 C 0.26536 0.71832 0.27823 0.0
C471 C 0.24156 0.69811 0.29017 0.0
H472 H 0.55566 0.18875 0.42237 0.0
H473 H 0.62485 0.24194 0.47369 0.0
H474 H 0.63095 0.28273 0.45263 0.0
H475 H 0.61728 0.30335 0.41926 0.0
H476 H 0.54797 0.25039 0.36793 0.0
H477 H 0.541 0.20958 0.38966 0.0
C478 C 0.57189 0.20928 0.42909 0.0
C479 C 0.58991 0.21222 0.44945 0.0
C480 C 0.57524 0.23273 0.41694 0.0
C481 C 0.61102 0.23901 0.45776 0.0
C482 C 0.61442 0.26239 0.44584 0.0
C483 C 0.60054 0.2829 0.41288 0.0
C484 C 0.58324 0.27998 0.39195 0.0
C485 C 0.59677 0.25949 0.42533 0.0
C486 C 0.56166 0.25329 0.38396 0.0
C487 C 0.55766 0.2299 0.39636 0.0
H488 H 0.37266 0.5673 0.60428 0.0
H489 H 0.43838 0.64535 0.5776 0.0
H490 H 0.40349 0.65907 0.56841 0.0
H491 H 0.35494 0.65054 0.57173 0.0
H492 H 0.28971 0.57173 0.59774 0.0
H493 H 0.32381 0.55648 0.60258 0.0
C494 C 0.37942 0.587 0.59574 0.0
C495 C 0.40829 0.60532 0.59191 0.0
C496 C 0.3593 0.59475 0.59047 0.0
C497 C 0.41643 0.63099 0.58126 0.0
C498 C 0.39646 0.63884 0.5759 0.0
C499 C 0.34807 0.62986 0.57807 0.0
C500 C 0.31979 0.61253 0.58472 0.0
C501 C 0.36791 0.62117 0.58106 0.0
C502 C 0.31133 0.58572 0.59274 0.0
C503 C 0.33085 0.57693 0.59558 0.0
H504 H 0.8029 0.39484 0.7844 0.0
H505 H 0.8343 0.3411 0.76056 0.0
H506 H 0.78691 0.30574 0.74648 0.0
H507 H 0.73564 0.28783 0.74607 0.0
H508 H 0.70509 0.34302 0.76625 0.0
H509 H 0.75341 0.38053 0.77556 0.0
C510 C 0.79983 0.37587 0.77542 0.0
C511 C 0.8223 0.3705 0.77453 0.0
C512 C 0.77258 0.35578 0.76666 0.0
C513 C 0.81737 0.34552 0.76268 0.0
C514 C 0.79024 0.32528 0.75435 0.0
C515 C 0.7397 0.3083 0.7519 0.0
C516 C 0.71693 0.31261 0.75581 0.0
C517 C 0.76752 0.32979 0.75713 0.0
C518 C 0.72234 0.33923 0.76307 0.0
C519 C 0.74994 0.36062 0.76863 0.0
H520 H 0.42417 0.81983 0.96281 0.0
H521 H 0.4285 0.86213 0.89499 0.0
H522 H 0.42792 0.82467 0.86984 0.0
H523 H 0.42304 0.77868 0.86697 0.0
H524 H 0.41756 0.73561 0.93461 0.0
H525 H 0.42224 0.77485 0.96002 0.0
C526 C 0.4255 0.82107 0.94256 0.0
C527 C 0.42624 0.84366 0.93076 0.0
C528 C 0.42483 0.79929 0.92819 0.0
C529 C 0.42758 0.8448 0.90448 0.0
C530 C 0.42731 0.82343 0.8901 0.0
C531 C 0.42312 0.77792 0.88728 0.0
C532 C 0.41974 0.75412 0.89884 0.0
C533 C 0.4254 0.80035 0.90173 0.0
C534 C 0.42002 0.75361 0.9252 0.0
C535 C 0.42263 0.77602 0.93975 0.0
H536 H 0.59225 0.40865 0.08823 0.0
H537 H 0.64514 0.49095 0.12148 0.0
H538 H 0.68713 0.48942 0.10998 0.0
H539 H 0.70908 0.46393 0.09193 0.0
H540 H 0.65555 0.37986 0.06305 0.0
H541 H 0.61371 0.38255 0.07246 0.0
C542 C 0.61285 0.42618 0.09342 0.0
C543 C 0.61518 0.44984 0.10582 0.0
C544 C 0.63698 0.42471 0.08786 0.0
C545 C 0.64237 0.47258 0.11152 0.0
C546 C 0.66654 0.47162 0.10524 0.0
C547 C 0.68825 0.44619 0.08781 0.0
C548 C 0.68551 0.42175 0.07682 0.0
C549 C 0.6641 0.44768 0.09363 0.0
C550 C 0.65834 0.39888 0.07167 0.0
C551 C 0.63435 0.40043 0.07691 0.0
H552 H 0.44649 0.82727 0.52376 0.0
H553 H 0.37909 0.82698 0.48079 0.0
H554 H 0.34462 0.78427 0.50008 0.0
H555 H 0.33358 0.74695 0.52911 0.0
H556 H 0.40109 0.74716 0.57186 0.0
H557 H 0.43557 0.78959 0.55222 0.0
C558 C 0.42428 0.81776 0.51846 0.0
C559 C 0.41543 0.8304 0.5009 0.0
C560 C 0.40459 0.79305 0.52943 0.0
C561 C 0.38649 0.81798 0.49455 0.0
C562 C 0.36676 0.79341 0.50541 0.0
C563 C 0.35585 0.75615 0.534 0.0
C564 C 0.36472 0.74386 0.55192 0.0
C565 C 0.37557 0.78074 0.52285 0.0
C566 C 0.39366 0.75618 0.55814 0.0
C567 C 0.41341 0.78049 0.54696 0.0
H568 H 0.54443 0.35231 0.67443 0.0
H569 H 0.62566 0.42474 0.66244 0.0
H570 H 0.64889 0.40441 0.68571 0.0
H571 H 0.64631 0.36511 0.70816 0.0
H572 H 0.56514 0.29123 0.71605 0.0
H573 H 0.54195 0.31273 0.69479 0.0
C574 C 0.56726 0.36361 0.67645 0.0
C575 C 0.58312 0.39008 0.66648 0.0
C576 C 0.58061 0.35135 0.68889 0.0
C577 C 0.61269 0.40456 0.67017 0.0
C578 C 0.6261 0.3928 0.68326 0.0
C579 C 0.62356 0.35374 0.70515 0.0
C580 C 0.60751 0.32661 0.71367 0.0
C581 C 0.61028 0.36608 0.69251 0.0
C582 C 0.57806 0.31206 0.70954 0.0
C583 C 0.56472 0.32439 0.69749 0.0
H584 H 0.22317 0.65705 0.83937 0.0
H585 H 0.1769 0.57496 0.86888 0.0
H586 H 0.22114 0.57702 0.87978 0.0
H587 H 0.27284 0.59994 0.87617 0.0
H588 H 0.31885 0.68353 0.8506 0.0
H589 H 0.27463 0.6834 0.84381 0.0
C590 C 0.22245 0.63987 0.84895 0.0
C591 C 0.1964 0.61548 0.85242 0.0
C592 C 0.248 0.64141 0.85582 0.0
C593 C 0.19646 0.59357 0.86488 0.0
C594 C 0.22181 0.59478 0.87135 0.0
C595 C 0.27312 0.61829 0.86961 0.0
C596 C 0.29886 0.64155 0.86354 0.0
C597 C 0.24767 0.61818 0.86604 0.0
C598 C 0.29919 0.66539 0.85538 0.0
C599 C 0.27392 0.66525 0.85134 0.0
H600 H 0.62732 0.20137 0.0239 0.0
H601 H 0.57764 0.22835 0.06498 0.0
H602 H 0.62007 0.27288 0.07519 0.0
H603 H 0.67014 0.30594 0.06807 0.0
H604 H 0.7196 0.27808 0.02779 0.0
H605 H 0.67844 0.23176 0.02252 0.0
C606 C 0.62573 0.21654 0.03576 0.0
C607 C 0.59909 0.21155 0.04321 0.0
C608 C 0.6502 0.24209 0.04162 0.0
C609 C 0.5977 0.23181 0.05837 0.0
C610 C 0.62199 0.25728 0.06432 0.0
C611 C 0.67207 0.28963 0.05851 0.0
C612 C 0.69787 0.29573 0.04795 0.0
C613 C 0.64819 0.26298 0.0553 0.0
C614 C 0.70002 0.27417 0.03596 0.0
C615 C 0.67641 0.24763 0.0328 0.0
H616 H 0.38276 0.61187 0.18118 0.0
H617 H 0.4733 0.66326 0.17657 0.0
H618 H 0.47118 0.70275 0.19442 0.0
H619 H 0.4428 0.72404 0.20528 0.0
H620 H 0.35248 0.67206 0.21087 0.0
H621 H 0.35566 0.63122 0.19975 0.0
C622 C 0.40223 0.63138 0.18479 0.0
C623 C 0.42806 0.63465 0.17681 0.0
C624 C 0.40092 0.65401 0.19518 0.0
C625 C 0.45296 0.6603 0.18169 0.0
C626 C 0.45182 0.68291 0.19204 0.0
C627 C 0.42388 0.70371 0.20461 0.0
C628 C 0.39739 0.70126 0.20832 0.0
C629 C 0.42576 0.68027 0.19785 0.0
C630 C 0.37315 0.67468 0.20787 0.0
C631 C 0.3749 0.65126 0.20132 0.0
H632 H 0.79826 0.40394 0.3611 0.0
H633 H 0.82349 0.47759 0.31907 0.0
H634 H 0.78013 0.47657 0.32954 0.0
H635 H 0.73275 0.4518 0.34564 0.0
H636 H 0.70462 0.37533 0.38371 0.0
H637 H 0.75129 0.38036 0.37952 0.0
C638 C 0.79433 0.41978 0.35417 0.0
C639 C 0.81427 0.44068 0.33911 0.0
C640 C 0.76862 0.41842 0.35931 0.0
C641 C 0.80896 0.46142 0.33097 0.0
C642 C 0.78391 0.46071 0.33671 0.0
C643 C 0.73682 0.43638 0.35342 0.0
C644 C 0.71503 0.41305 0.36474 0.0
C645 C 0.76328 0.43888 0.35019 0.0
C646 C 0.7209 0.39339 0.37473 0.0
C647 C 0.74757 0.39621 0.37227 0.0
H648 H 0.18268 0.60892 0.43708 0.0
H649 H 0.12395 0.52855 0.46481 0.0
H650 H 0.14865 0.54211 0.50578 0.0
H651 H 0.18706 0.57649 0.53346 0.0
H652 H 0.24605 0.65696 0.5058 0.0
H653 H 0.22092 0.64366 0.46508 0.0
C654 C 0.17508 0.5945 0.4522 0.0
C655 C 0.15146 0.56778 0.44793 0.0
C656 C 0.18946 0.6024 0.47566 0.0
C657 C 0.14219 0.54915 0.46756 0.0
C658 C 0.15626 0.55692 0.49099 0.0
C659 C 0.1945 0.5912 0.51858 0.0
C660 C 0.21851 0.61772 0.52279 0.0
C661 C 0.18 0.58343 0.4952 0.0
C662 C 0.22771 0.63641 0.50317 0.0
C663 C 0.21332 0.62883 0.47985 0.0
H664 H 0.60611 0.14091 0.62485 0.0
H665 H 0.5673 0.18593 0.59681 0.0
H666 H 0.57523 0.20989 0.63765 0.0
H667 H 0.59503 0.21959 0.68086 0.0
H668 H 0.6349 0.17522 0.70834 0.0
H669 H 0.62507 0.14992 0.66814 0.0
C670 C 0.59947 0.15603 0.62763 0.0
C671 C 0.58616 0.16158 0.60773 0.0
C672 C 0.60448 0.17007 0.65105 0.0
C673 C 0.57725 0.18092 0.61185 0.0
C674 C 0.582 0.19484 0.63516 0.0
C675 C 0.60154 0.20436 0.67811 0.0
C676 C 0.61582 0.1995 0.69768 0.0
C677 C 0.59586 0.1898 0.65484 0.0
C678 C 0.62396 0.17955 0.69369 0.0
C679 C 0.61833 0.16499 0.67066 0.0
H680 H 0.47692 0.60844 0.76465 0.0
H681 H 0.39665 0.57489 0.72438 0.0
H682 H 0.37768 0.58794 0.75943 0.0
H683 H 0.38483 0.613 0.79935 0.0
H684 H 0.46616 0.65171 0.838 0.0
H685 H 0.4838 0.63292 0.80557 0.0
C686 C 0.45531 0.60404 0.76341 0.0
C687 C 0.4384 0.59053 0.74166 0.0
C688 C 0.44472 0.6128 0.7833 0.0
C689 C 0.41021 0.5846 0.74088 0.0
C690 C 0.39931 0.5924 0.76088 0.0
C691 C 0.40631 0.61701 0.80094 0.0
C692 C 0.42417 0.63374 0.82103 0.0
C693 C 0.41652 0.607 0.78189 0.0
C694 C 0.45201 0.63893 0.82266 0.0
C695 C 0.46211 0.62825 0.8041 0.0
H696 H 0.85041 0.45881 0.91872 0.0
H697 H 0.89497 0.42178 0.95259 0.0
H698 H 0.86763 0.41333 0.99016 0.0
H699 H 0.82767 0.41211 0.01166 0.0
H700 H 0.78637 0.45291 0.97967 0.0
H701 H 0.81697 0.4655 0.94355 0.0
C702 C 0.85492 0.44963 0.93446 0.0
C703 C 0.87425 0.44015 0.93219 0.0
C704 C 0.83977 0.44561 0.95648 0.0
C705 C 0.87941 0.42822 0.9531 0.0
C706 C 0.86399 0.42363 0.97483 0.0
C707 C 0.82582 0.42424 0.99699 0.0
C708 C 0.80468 0.43129 0.99801 0.0
C709 C 0.84352 0.43147 0.9764 0.0
C710 C 0.80264 0.44737 0.97922 0.0
C711 C 0.81992 0.45431 0.95847 0.0
H712 H 0.4206 0.87454 0.09263 0.0
H713 H 0.3395 0.86946 0.09328 0.0
H714 H 0.32748 0.84198 0.13089 0.0
H715 H 0.3385 0.81587 0.16108 0.0
H716 H 0.41948 0.82072 0.1591 0.0
H717 H 0.4334 0.85266 0.12505 0.0
C718 C 0.40057 0.86809 0.10132 0.0
C719 C 0.38094 0.87394 0.09007 0.0
C720 C 0.39377 0.85224 0.12273 0.0
C721 C 0.35484 0.86487 0.10136 0.0
C722 C 0.348 0.84927 0.12291 0.0
C723 C 0.3594 0.82436 0.15353 0.0
C724 C 0.37782 0.8157 0.16254 0.0
C725 C 0.36706 0.84227 0.13341 0.0
C726 C 0.40478 0.82682 0.15249 0.0
C727 C 0.41277 0.84506 0.1329 0.0
H728 H 0.51659 0.41005 0.26363 0.0
H729 H 0.59965 0.46486 0.23553 0.0
H730 H 0.62094 0.45252 0.26888 0.0
H731 H 0.61635 0.42273 0.30276 0.0
H732 H 0.53399 0.36384 0.32893 0.0
H733 H 0.51211 0.38071 0.29914 0.0
C734 C 0.53933 0.4193 0.26471 0.0
C735 C 0.55626 0.43855 0.24688 0.0
C736 C 0.55165 0.41105 0.28338 0.0
C737 C 0.58582 0.4506 0.24912 0.0
C738 C 0.59817 0.44324 0.26807 0.0
C739 C 0.59362 0.4138 0.30231 0.0
C740 C 0.57682 0.39206 0.31801 0.0
C741 C 0.58128 0.42305 0.28486 0.0
C742 C 0.54738 0.38057 0.31694 0.0
C743 C 0.53489 0.39019 0.29992 0.0
H744 H 0.41978 0.84997 0.35583 0.0
H745 H 0.50081 0.90852 0.32685 0.0
H746 H 0.48718 0.88334 0.28624 0.0
H747 H 0.4527 0.8445 0.25923 0.0
H748 H 0.37113 0.78639 0.28765 0.0
H749 H 0.3845 0.81186 0.32819 0.0
C750 C 0.43431 0.85749 0.34052 0.0
C751 C 0.46132 0.88111 0.34443 0.0
C752 C 0.42631 0.84294 0.31718 0.0
C753 C 0.48003 0.89024 0.32448 0.0
C754 C 0.47223 0.8759 0.30122 0.0
C755 C 0.43781 0.83728 0.27427 0.0
C756 C 0.411 0.81341 0.27038 0.0
C757 C 0.44553 0.85211 0.29744 0.0
C758 C 0.39193 0.80464 0.29008 0.0
C759 C 0.39955 0.8192 0.31329 0.0
H760 H 0.59688 0.46207 0.49885 0.0
H761 H 0.53874 0.37486 0.50755 0.0
H762 H 0.55425 0.36377 0.46852 0.0
H763 H 0.58392 0.37875 0.43183 0.0
H764 H 0.64149 0.466 0.42233 0.0
H765 H 0.62689 0.47712 0.46194 0.0
C766 C 0.58774 0.44065 0.49221 0.0
C767 C 0.5666 0.41934 0.50597 0.0
C768 C 0.59673 0.43441 0.46971 0.0
C769 C 0.55473 0.39167 0.49708 0.0
C770 C 0.56372 0.38529 0.47487 0.0
C771 C 0.59347 0.4002 0.43848 0.0
C772 C 0.61383 0.42148 0.42414 0.0
C773 C 0.58466 0.40649 0.46102 0.0
C774 C 0.62574 0.44919 0.43296 0.0
C775 C 0.61739 0.45559 0.45561 0.0
H776 H 0.16937 0.66624 0.69658 0.0
H777 H 0.13145 0.57816 0.68136 0.0
H778 H 0.16072 0.5868 0.6449 0.0
H779 H 0.20114 0.61916 0.62083 0.0
H780 H 0.23909 0.70719 0.63544 0.0
H781 H 0.20514 0.69886 0.66818 0.0
C782 C 0.16695 0.64896 0.68489 0.0
C783 C 0.14873 0.6216 0.692 0.0
C784 C 0.184 0.65407 0.66398 0.0
C785 C 0.14585 0.59942 0.67663 0.0
C786 C 0.16253 0.60433 0.65576 0.0
C787 C 0.20182 0.63649 0.63104 0.0
C788 C 0.22293 0.66367 0.62622 0.0
C789 C 0.18243 0.63153 0.64987 0.0
C790 C 0.22305 0.68604 0.63897 0.0
C791 C 0.20377 0.68128 0.65779 0.0
H792 H 0.5603 0.14796 0.87803 0.0
H793 H 0.49818 0.17347 0.88387 0.0
H794 H 0.51176 0.19525 0.84357 0.0
H795 H 0.54519 0.21227 0.80949 0.0
H796 H 0.61102 0.19174 0.80625 0.0
H797 H 0.59231 0.16309 0.8428 0.0
C798 C 0.54976 0.15836 0.8706 0.0
C799 C 0.52843 0.15924 0.88426 0.0
C800 C 0.55852 0.17198 0.84791 0.0
C801 C 0.51447 0.17212 0.87381 0.0
C802 C 0.5224 0.18487 0.8508 0.0
C803 C 0.55509 0.20105 0.81647 0.0
C804 C 0.57951 0.20419 0.80529 0.0
C805 C 0.54492 0.18559 0.83807 0.0
C806 C 0.59232 0.18981 0.81467 0.0
C807 C 0.58165 0.17348 0.83559 0.0
H808 H 0.36949 0.54912 0.99662 0.0
H809 H 0.44196 0.62842 0.01822 0.0
H810 H 0.43721 0.64766 0.97904 0.0
H811 H 0.41281 0.64182 0.93844 0.0
H812 H 0.341 0.5621 0.91634 0.0
H813 H 0.34499 0.54329 0.95597 0.0
C814 C 0.38411 0.57065 0.99277 0.0
C815 C 0.40607 0.5873 0.01023 0.0
C816 C 0.38136 0.58153 0.97014 0.0
C817 C 0.42508 0.61509 0.00492 0.0
C818 C 0.42229 0.62615 0.98259 0.0
C819 C 0.39791 0.62038 0.94234 0.0
C820 C 0.37663 0.60345 0.92441 0.0
C821 C 0.40056 0.60954 0.96503 0.0
C822 C 0.35767 0.57562 0.92973 0.0
C823 C 0.35991 0.56481 0.95241 0.0
H824 H 0.83563 0.43465 0.19581 0.0
H825 H 0.8867 0.39922 0.17474 0.0
H826 H 0.86478 0.38769 0.13267 0.0
H827 H 0.83058 0.38662 0.10229 0.0
H828 H 0.77881 0.4215 0.12287 0.0
H829 H 0.8017 0.43443 0.16467 0.0
C830 C 0.84217 0.4247 0.18189 0.0
C831 C 0.86273 0.41774 0.18842 0.0
C832 C 0.82929 0.41792 0.15772 0.0
C833 C 0.87072 0.40453 0.17028 0.0
C834 C 0.85825 0.39799 0.1462 0.0
C835 C 0.82423 0.3971 0.11582 0.0
C836 C 0.80286 0.40297 0.10933 0.0
C837 C 0.83736 0.40436 0.13979 0.0
C838 C 0.7951 0.41662 0.12727 0.0
C839 C 0.80821 0.42405 0.15121 0.0
loop_
_geom_bond_atom_site_label_1
_geom_bond_atom_site_label_2
_geom_bond_distance
_geom_bond_site_symmetry_2
_ccdc_geom_bond_type
H0 C27 0.929 . S
N1 C26 1.433 . S
N1 C32 1.435 . S
N1 C38 1.423 . S
H2 C28 0.930 . S
H3 C31 0.931 . S
H4 C30 0.929 . S
H5 C33 0.930 . S
H6 C34 0.932 . S
H7 C37 0.929 . S
H8 C36 0.931 . S
H9 C39 0.929 . S
H10 C43 0.932 . S
H11 C40 0.931 . S
H12 C42 0.929 . S
H13 C45 0.929 . S
H14 C46 0.930 . S
H15 C48 0.929 . S
H16 C49 0.931 . S
H17 C51 0.930 . S
H18 C52 0.932 . S
H19 C54 0.931 . S
H20 C55 0.929 . S
H21 C57 0.929 . S
H22 C58 0.931 . S
H23 C60 0.929 . S
N24 C44 1.433 . S
N24 C50 1.435 . S
N24 C56 1.423 . S
H25 C61 0.932 . S
C26 N1 1.433 . S
C26 C27 1.363 . S
C26 C31 1.370 . S
C27 H0 0.929 . S
C27 C26 1.363 . S
C27 C28 1.385 . S
C28 H2 0.930 . S
C28 C27 1.385 . S
C28 C29 1.357 . S
C29 C28 1.357 . S
C29 C30 1.406 . S
C30 H4 0.929 . S
C30 C29 1.406 . S
C30 C31 1.391 . S
C31 H3 0.931 . S
C31 C26 1.370 . S
C31 C30 1.391 . S
C32 N1 1.435 . S
C32 C33 1.358 . S
C32 C37 1.371 . S
C33 H5 0.930 . S
C33 C32 1.358 . S
C33 C34 1.405 . S
C34 H6 0.932 . S
C34 C33 1.405 . S
C34 C35 1.383 . S
C35 C34 1.383 . S
C35 C36 1.393 . S
C36 H8 0.931 . S
C36 C35 1.393 . S
C36 C37 1.382 . S
C37 H7 0.929 . S
C37 C32 1.371 . S
C37 C36 1.382 . S
C38 N1 1.423 . S
C38 C39 1.362 . S
C38 C43 1.388 . S
C39 H9 0.929 . S
C39 C38 1.362 . S
C39 C40 1.376 . S
C40 H11 0.931 . S
C40 C39 1.376 . S
C40 C41 1.396 . S
C41 C40 1.396 . S
C41 C42 1.348 . S
C41 C59 1.472 1_455 S
C42 H12 0.929 . S
C42 C41 1.348 . S
C42 C43 1.443 . S
C43 H10 0.932 . S
C43 C38 1.388 . S
C43 C42 1.443 . S
C44 N24 1.433 . S
C44 C45 1.363 . S
C44 C49 1.370 . S
C45 H13 0.929 . S
C45 C44 1.363 . S
C45 C46 1.385 . S
C46 H14 0.930 . S
C46 C45 1.385 . S
C46 C47 1.357 . S
C47 C46 1.357 . S
C47 C48 1.406 . S
C48 H15 0.929 . S
C48 C47 1.406 . S
C48 C49 1.391 . S
C49 H16 0.931 . S
C49 C44 1.370 . S
C49 C48 1.391 . S
C50 N24 1.435 . S
C50 C51 1.358 . S
C50 C55 1.371 . S
C51 H17 0.930 . S
C51 C50 1.358 . S
C51 C52 1.405 . S
C52 H18 0.932 . S
C52 C51 1.405 . S
C52 C53 1.383 . S
C53 C52 1.383 . S
C53 C54 1.393 . S
C54 H19 0.931 . S
C54 C53 1.393 . S
C54 C55 1.382 . S
C55 H20 0.929 . S
C55 C50 1.371 . S
C55 C54 1.382 . S
C56 N24 1.423 . S
C56 C57 1.362 . S
C56 C61 1.388 . S
C57 H21 0.929 . S
C57 C56 1.362 . S
C57 C58 1.376 . S
C58 H22 0.931 . S
C58 C57 1.376 . S
C58 C59 1.396 . S
C59 C41 1.472 1_655 S
C59 C58 1.396 . S
C59 C60 1.348 . S
C60 H23 0.929 . S
C60 C59 1.348 . S
C60 C61 1.443 . S
C61 H25 0.932 . S
C61 C56 1.388 . S
C61 C60 1.443 . S
H62 C89 0.929 . S
N63 C88 1.433 . S
N63 C94 1.435 . S
N63 C100 1.423 . S
H64 C90 0.930 . S
H65 C93 0.931 . S
H66 C92 0.929 . S
H67 C95 0.930 . S
H68 C96 0.932 . S
H69 C99 0.929 . S
H70 C98 0.931 . S
H71 C101 0.929 . S
H72 C105 0.932 . S
H73 C102 0.931 . S
H74 C104 0.929 1_545 S
H75 C107 0.929 . S
H76 C108 0.930 . S
H77 C110 0.929 . S
H78 C111 0.931 . S
H79 C113 0.930 . S
H80 C114 0.932 . S
H81 C116 0.931 . S
H82 C117 0.929 . S
H83 C119 0.929 . S
H84 C120 0.931 . S
H85 C122 0.929 . S
N86 C106 1.433 . S
N86 C112 1.435 . S
N86 C118 1.423 . S
H87 C123 0.932 . S
C88 N63 1.433 . S
C88 C89 1.363 . S
C88 C93 1.370 . S
C89 H62 0.929 . S
C89 C88 1.363 . S
C89 C90 1.385 . S
C90 H64 0.930 . S
C90 C89 1.385 . S
C90 C91 1.357 . S
C91 C90 1.357 . S
C91 C92 1.406 . S
C92 H66 0.929 . S
C92 C91 1.406 . S
C92 C93 1.391 . S
C93 H65 0.931 . S
C93 C88 1.370 . S
C93 C92 1.391 . S
C94 N63 1.435 . S
C94 C95 1.358 . S
C94 C99 1.371 . S
C95 H67 0.930 . S
C95 C94 1.358 . S
C95 C96 1.405 . S
C96 H68 0.932 . S
C96 C95 1.405 . S
C96 C97 1.383 . S
C97 C96 1.383 . S
C97 C98 1.393 . S
C98 H70 0.931 . S
C98 C97 1.393 . S
C98 C99 1.382 . S
C99 H69 0.929 . S
C99 C94 1.371 . S
C99 C98 1.382 . S
C100 N63 1.423 . S
C100 C101 1.362 . S
C100 C105 1.388 . S
C101 H71 0.929 . S
C101 C100 1.362 . S
C101 C102 1.376 . S
C102 H73 0.931 . S
C102 C101 1.376 . S
C102 C103 1.396 1_565 S
C103 C102 1.396 1_545 S
C103 C104 1.348 1_545 S
C103 C121 1.472 . S
C104 H74 0.929 1_565 S
C104 C103 1.348 1_565 S
C104 C105 1.443 . S
C105 H72 0.932 . S
C105 C100 1.388 . S
C105 C104 1.443 . S
C106 N86 1.433 . S
C106 C107 1.363 . S
C106 C111 1.370 . S
C107 H75 0.929 . S
C107 C106 1.363 . S
C107 C108 1.385 . S
C108 H76 0.930 . S
C108 C107 1.385 . S
C108 C109 1.357 . S
C109 C108 1.357 . S
C109 C110 1.406 . S
C110 H77 0.929 . S
C110 C109 1.406 . S
C110 C111 1.391 . S
C111 H78 0.931 . S
C111 C106 1.370 . S
C111 C110 1.391 . S
C112 N86 1.435 . S
C112 C113 1.358 . S
C112 C117 1.371 . S
C113 H79 0.930 . S
C113 C112 1.358 . S
C113 C114 1.405 . S
C114 H80 0.932 . S
C114 C113 1.405 . S
C114 C115 1.383 . S
C115 C114 1.383 . S
C115 C116 1.393 . S
C116 H81 0.931 . S
C116 C115 1.393 . S
C116 C117 1.382 . S
C117 H82 0.929 . S
C117 C112 1.371 . S
C117 C116 1.382 . S
C118 N86 1.423 . S
C118 C119 1.362 . S
C118 C123 1.388 . S
C119 H83 0.929 . S
C119 C118 1.362 . S
C119 C120 1.376 . S
C120 H84 0.931 . S
C120 C119 1.376 . S
C120 C121 1.396 . S
C121 C103 1.472 . S
C121 C120 1.396 . S
C121 C122 1.348 . S
C122 H85 0.929 . S
C122 C121 1.348 . S
C122 C123 1.443 . S
C123 H87 0.932 . S
C123 C118 1.388 . S
C123 C122 1.443 . S
H124 C151 0.929 . S
N125 C150 1.433 . S
N125 C156 1.435 . S
N125 C162 1.423 . S
H126 C152 0.930 . S
H127 C155 0.931 . S
H128 C154 0.929 . S
H129 C157 0.930 . S
H130 C158 0.932 . S
H131 C161 0.929 . S
H132 C160 0.931 . S
H133 C163 0.929 . S
H134 C167 0.932 . S
H135 C164 0.931 . S
H136 C166 0.929 . S
H137 C169 0.929 . S
H138 C170 0.930 . S
H139 C172 0.929 . S
H140 C173 0.931 . S
H141 C175 0.930 . S
H142 C176 0.932 . S
H143 C178 0.931 . S
H144 C179 0.929 . S
H145 C181 0.929 . S
H146 C182 0.931 . S
H147 C184 0.929 . S
N148 C168 1.433 . S
N148 C174 1.435 . S
N148 C180 1.423 . S
H149 C185 0.932 . S
C150 N125 1.433 . S
C150 C151 1.363 . S
C150 C155 1.370 . S
C151 H124 0.929 . S
C151 C150 1.363 . S
C151 C152 1.385 . S
C152 H126 0.930 . S
C152 C151 1.385 . S
C152 C153 1.357 . S
C153 C152 1.357 . S
C153 C154 1.406 . S
C154 H128 0.929 . S
C154 C153 1.406 . S
C154 C155 1.391 . S
C155 H127 0.931 . S
C155 C150 1.370 . S
C155 C154 1.391 . S
C156 N125 1.435 . S
C156 C157 1.358 . S
C156 C161 1.371 . S
C157 H129 0.930 . S
C157 C156 1.358 . S
C157 C158 1.405 . S
C158 H130 0.932 . S
C158 C157 1.405 . S
C158 C159 1.383 . S
C159 C158 1.383 . S
C159 C160 1.393 . S
C160 H132 0.931 . S
C160 C159 1.393 . S
C160 C161 1.382 . S
C161 H131 0.929 . S
C161 C156 1.371 . S
C161 C160 1.382 . S
C162 N125 1.423 . S
C162 C163 1.362 . S
C162 C167 1.388 . S
C163 H133 0.929 . S
C163 C162 1.362 . S
C163 C164 1.376 . S
C164 H135 0.931 . S
C164 C163 1.376 . S
C164 C165 1.396 . S
C165 C164 1.396 . S
C165 C166 1.348 . S
C165 C183 1.472 . S
C166 H136 0.929 . S
C166 C165 1.348 . S
C166 C167 1.443 . S
C167 H134 0.932 . S
C167 C162 1.388 . S
C167 C166 1.443 . S
C168 N148 1.433 . S
C168 C169 1.363 . S
C168 C173 1.370 . S
C169 H137 0.929 . S
C169 C168 1.363 . S
C169 C170 1.385 . S
C170 H138 0.930 . S
C170 C169 1.385 . S
C170 C171 1.357 . S
C171 C170 1.357 . S
C171 C172 1.406 . S
C172 H139 0.929 . S
C172 C171 1.406 . S
C172 C173 1.391 . S
C173 H140 0.931 . S
C173 C168 1.370 . S
C173 C172 1.391 . S
C174 N148 1.435 . S
C174 C175 1.358 . S
C174 C179 1.371 . S
C175 H141 0.930 . S
C175 C174 1.358 . S
C175 C176 1.405 . S
C176 H142 0.932 . S
C176 C175 1.405 . S
C176 C177 1.383 . S
C177 C176 1.383 . S
C177 C178 1.393 . S
C178 H143 0.931 . S
C178 C177 1.393 . S
C178 C179 1.382 . S
C179 H144 0.929 . S
C179 C174 1.371 . S
C179 C178 1.382 . S
C180 N148 1.423 . S
C180 C181 1.362 . S
C180 C185 1.388 . S
C181 H145 0.929 . S
C181 C180 1.362 . S
C181 C182 1.376 . S
C182 H146 0.931 . S
C182 C181 1.376 . S
C182 C183 1.396 . S
C183 C165 1.472 . S
C183 C182 1.396 . S
C183 C184 1.348 . S
C184 H147 0.929 . S
C184 C183 1.348 . S
C184 C185 1.443 . S
C185 H149 0.932 . S
C185 C180 1.388 . S
C185 C184 1.443 . S
H186 C213 0.929 . S
N187 C212 1.433 . S
N187 C218 1.435 . S
N187 C224 1.423 . S
H188 C214 0.930 . S
H189 C217 0.931 . S
H190 C216 0.929 . S
H191 C219 0.930 . S
H192 C220 0.932 . S
H193 C223 0.929 . S
H194 C222 0.931 . S
H195 C225 0.929 . S
H196 C229 0.932 . S
H197 C226 0.931 . S
H198 C228 0.929 . S
H199 C231 0.929 . S
H200 C232 0.930 . S
H201 C234 0.929 . S
H202 C235 0.931 . S
H203 C237 0.930 . S
H204 C238 0.932 . S
H205 C240 0.931 . S
H206 C241 0.929 . S
H207 C243 0.929 . S
H208 C244 0.931 . S
H209 C246 0.929 . S
N210 C230 1.433 . S
N210 C236 1.435 . S
N210 C242 1.423 . S
H211 C247 0.932 . S
C212 N187 1.433 . S
C212 C213 1.363 . S
C212 C217 1.370 . S
C213 H186 0.929 . S
C213 C212 1.363 . S
C213 C214 1.385 . S
C214 H188 0.930 . S
C214 C213 1.385 . S
C214 C215 1.357 . S
C215 C214 1.357 . S
C215 C216 1.406 . S
C216 H190 0.929 . S
C216 C215 1.406 . S
C216 C217 1.391 . S
C217 H189 0.931 . S
C217 C212 1.370 . S
C217 C216 1.391 . S
C218 N187 1.435 . S
C218 C219 1.358 . S
C218 C223 1.371 . S
C219 H191 0.930 . S
C219 C218 1.358 . S
C219 C220 1.405 . S
C220 H192 0.932 . S
C220 C219 1.405 . S
C220 C221 1.383 . S
C221 C220 1.383 . S
C221 C222 1.393 . S
C222 H194 0.931 . S
C222 C221 1.393 . S
C222 C223 1.382 . S
C223 H193 0.929 . S
C223 C218 1.371 . S
C223 C222 1.382 . S
C224 N187 1.423 . S
C224 C225 1.362 . S
C224 C229 1.388 . S
C225 H195 0.929 . S
C225 C224 1.362 . S
C225 C226 1.376 . S
C226 H197 0.931 . S
C226 C225 1.376 . S
C226 C227 1.396 . S
C227 C226 1.396 . S
C227 C228 1.348 . S
C227 C245 1.472 1_455 S
C228 H198 0.929 . S
C228 C227 1.348 . S
C228 C229 1.443 . S
C229 H196 0.932 . S
C229 C224 1.388 . S
C229 C228 1.443 . S
C230 N210 1.433 . S
C230 C231 1.363 . S
C230 C235 1.370 . S
C231 H199 0.929 . S
C231 C230 1.363 . S
C231 C232 1.385 . S
C232 H200 0.930 . S
C232 C231 1.385 . S
C232 C233 1.357 . S
C233 C232 1.357 . S
C233 C234 1.406 . S
C234 H201 0.929 . S
C234 C233 1.406 . S
C234 C235 1.391 . S
C235 H202 0.931 . S
C235 C230 1.370 . S
C235 C234 1.391 . S
C236 N210 1.435 . S
C236 C237 1.358 . S
C236 C241 1.371 . S
C237 H203 0.930 . S
C237 C236 1.358 . S
C237 C238 1.405 . S
C238 H204 0.932 . S
C238 C237 1.405 . S
C238 C239 1.383 . S
C239 C238 1.383 . S
C239 C240 1.393 . S
C240 H205 0.931 . S
C240 C239 1.393 . S
C240 C241 1.382 . S
C241 H206 0.929 . S
C241 C236 1.371 . S
C241 C240 1.382 . S
C242 N210 1.423 . S
C242 C243 1.362 . S
C242 C247 1.388 . S
C243 H207 0.929 . S
C243 C242 1.362 . S
C243 C244 1.376 . S
C244 H208 0.931 . S
C244 C243 1.376 . S
C244 C245 1.396 . S
C245 C227 1.472 1_655 S
C245 C244 1.396 . S
C245 C246 1.348 . S
C246 H209 0.929 . S
C246 C245 1.348 . S
C246 C247 1.443 . S
C247 H211 0.932 . S
C247 C242 1.388 . S
C247 C246 1.443 . S
H248 C275 0.929 . S
N249 C274 1.433 . S
N249 C280 1.435 . S
N249 C286 1.423 . S
H250 C276 0.930 . S
H251 C279 0.931 . S
H252 C278 0.929 . S
H253 C281 0.930 . S
H254 C282 0.932 . S
H255 C285 0.929 . S
H256 C284 0.931 . S
H257 C287 0.929 . S
H258 C291 0.932 . S
H259 C288 0.931 . S
H260 C290 0.929 . S
H261 C293 0.929 . S
H262 C294 0.930 . S
H263 C296 0.929 . S
H264 C297 0.931 . S
H265 C299 0.930 1_554 S
H266 C300 0.932 . S
H267 C302 0.931 . S
H268 C303 0.929 . S
H269 C305 0.929 . S
H270 C306 0.931 1_544 S
H271 C308 0.929 . S
N272 C292 1.433 . S
N272 C298 1.435 1_554 S
N272 C304 1.423 1_554 S
H273 C309 0.932 . S
C274 N249 1.433 . S
C274 C275 1.363 . S
C274 C279 1.370 . S
C275 H248 0.929 . S
C275 C274 1.363 . S
C275 C276 1.385 . S
C276 H250 0.930 . S
C276 C275 1.385 . S
C276 C277 1.357 1_556 S
C277 C276 1.357 1_554 S
C277 C278 1.406 . S
C278 H252 0.929 . S
C278 C277 1.406 . S
C278 C279 1.391 1_554 S
C279 H251 0.931 . S
C279 C274 1.370 . S
C279 C278 1.391 1_556 S
C280 N249 1.435 . S
C280 C281 1.358 . S
C280 C285 1.371 . S
C281 H253 0.930 . S
C281 C280 1.358 . S
C281 C282 1.405 . S
C282 H254 0.932 . S
C282 C281 1.405 . S
C282 C283 1.383 . S
C283 C282 1.383 . S
C283 C284 1.393 . S
C284 H256 0.931 . S
C284 C283 1.393 . S
C284 C285 1.382 . S
C285 H255 0.929 . S
C285 C280 1.371 . S
C285 C284 1.382 . S
C286 N249 1.423 . S
C286 C287 1.362 . S
C286 C291 1.388 . S
C287 H257 0.929 . S
C287 C286 1.362 . S
C287 C288 1.376 . S
C288 H259 0.931 . S
C288 C287 1.376 . S
C288 C289 1.396 . S
C289 C288 1.396 . S
C289 C290 1.348 . S
C289 C307 1.472 1_545 S
C290 H260 0.929 . S
C290 C289 1.348 . S
C290 C291 1.443 . S
C291 H258 0.932 . S
C291 C286 1.388 . S
C291 C290 1.443 . S
C292 N272 1.433 . S
C292 C293 1.363 . S
C292 C297 1.370 . S
C293 H261 0.929 . S
C293 C292 1.363 . S
C293 C294 1.385 . S
C294 H262 0.930 . S
C294 C293 1.385 . S
C294 C295 1.357 . S
C295 C294 1.357 . S
C295 C296 1.406 . S
C296 H263 0.929 . S
C296 C295 1.406 . S
C296 C297 1.391 . S
C297 H264 0.931 . S
C297 C292 1.370 . S
C297 C296 1.391 . S
C298 N272 1.435 1_556 S
C298 C299 1.358 . S
C298 C303 1.371 . S
C299 H265 0.930 1_556 S
C299 C298 1.358 . S
C299 C300 1.405 . S
C300 H266 0.932 . S
C300 C299 1.405 . S
C300 C301 1.383 . S
C301 C300 1.383 . S
C301 C302 1.393 . S
C302 H267 0.931 . S
C302 C301 1.393 . S
C302 C303 1.382 . S
C303 H268 0.929 . S
C303 C298 1.371 . S
C303 C302 1.382 . S
C304 N272 1.423 1_556 S
C304 C305 1.362 1_556 S
C304 C309 1.388 . S
C305 H269 0.929 . S
C305 C304 1.362 1_554 S
C305 C306 1.376 1_554 S
C306 H270 0.931 1_566 S
C306 C305 1.376 1_556 S
C306 C307 1.396 . S
C307 C289 1.472 1_565 S
C307 C306 1.396 . S
C307 C308 1.348 . S
C308 H271 0.929 . S
C308 C307 1.348 . S
C308 C309 1.443 . S
C309 H273 0.932 . S
C309 C304 1.388 . S
C309 C308 1.443 . S
H310 C337 0.929 . S
N311 C336 1.433 . S
N311 C342 1.435 . S
N311 C348 1.423 . S
H312 C338 0.930 . S
H313 C341 0.931 . S
H314 C340 0.929 . S
H315 C343 0.930 . S
H316 C344 0.932 . S
H317 C347 0.929 . S
H318 C346 0.931 . S
H319 C349 0.929 . S
H320 C353 0.932 . S
H321 C350 0.931 . S
H322 C352 0.929 . S
H323 C355 0.929 . S
H324 C356 0.930 . S
H325 C358 0.929 . S
H326 C359 0.931 . S
H327 C361 0.930 . S
H328 C362 0.932 . S
H329 C364 0.931 . S
H330 C365 0.929 . S
H331 C367 0.929 . S
H332 C368 0.931 . S
H333 C370 0.929 . S
N334 C354 1.433 . S
N334 C360 1.435 . S
N334 C366 1.423 . S
H335 C371 0.932 . S
C336 N311 1.433 . S
C336 C337 1.363 . S
C336 C341 1.370 . S
C337 H310 0.929 . S
C337 C336 1.363 . S
C337 C338 1.385 . S
C338 H312 0.930 . S
C338 C337 1.385 . S
C338 C339 1.357 . S
C339 C338 1.357 . S
C339 C340 1.406 . S
C340 H314 0.929 . S
C340 C339 1.406 . S
C340 C341 1.391 . S
C341 H313 0.931 . S
C341 C336 1.370 . S
C341 C340 1.391 . S
C342 N311 1.435 . S
C342 C343 1.358 . S
C342 C347 1.371 . S
C343 H315 0.930 . S
C343 C342 1.358 . S
C343 C344 1.405 . S
C344 H316 0.932 . S
C344 C343 1.405 . S
C344 C345 1.383 . S
C345 C344 1.383 . S
C345 C346 1.393 . S
C346 H318 0.931 . S
C346 C345 1.393 . S
C346 C347 1.382 . S
C347 H317 0.929 . S
C347 C342 1.371 . S
C347 C346 1.382 . S
C348 N311 1.423 . S
C348 C349 1.362 . S
C348 C353 1.388 . S
C349 H319 0.929 . S
C349 C348 1.362 . S
C349 C350 1.376 . S
C350 H321 0.931 . S
C350 C349 1.376 . S
C350 C351 1.396 . S
C351 C350 1.396 . S
C351 C352 1.348 . S
C351 C369 1.472 . S
C352 H322 0.929 . S
C352 C351 1.348 . S
C352 C353 1.443 . S
C353 H320 0.932 . S
C353 C348 1.388 . S
C353 C352 1.443 . S
C354 N334 1.433 . S
C354 C355 1.363 . S
C354 C359 1.370 . S
C355 H323 0.929 . S
C355 C354 1.363 . S
C355 C356 1.385 . S
C356 H324 0.930 . S
C356 C355 1.385 . S
C356 C357 1.357 . S
C357 C356 1.357 . S
C357 C358 1.406 . S
C358 H325 0.929 . S
C358 C357 1.406 . S
C358 C359 1.391 . S
C359 H326 0.931 . S
C359 C354 1.370 . S
C359 C358 1.391 . S
C360 N334 1.435 . S
C360 C361 1.358 . S
C360 C365 1.371 . S
C361 H327 0.930 . S
C361 C360 1.358 . S
C361 C362 1.405 . S
C362 H328 0.932 . S
C362 C361 1.405 . S
C362 C363 1.383 . S
C363 C362 1.383 . S
C363 C364 1.393 . S
C364 H329 0.931 . S
C364 C363 1.393 . S
C364 C365 1.382 . S
C365 H330 0.929 . S
C365 C360 1.371 . S
C365 C364 1.382 . S
C366 N334 1.423 . S
C366 C367 1.362 . S
C366 C371 1.388 . S
C367 H331 0.929 . S
C367 C366 1.362 . S
C367 C368 1.376 . S
C368 H332 0.931 . S
C368 C367 1.376 . S
C368 C369 1.396 . S
C369 C351 1.472 . S
C369 C368 1.396 . S
C369 C370 1.348 . S
C370 H333 0.929 . S
C370 C369 1.348 . S
C370 C371 1.443 . S
C371 H335 0.932 . S
C371 C366 1.388 . S
C371 C370 1.443 . S
Mg372 O373 2.028 . S
Mg372 O379 1.986 . S
Mg372 O381 2.114 . S
Mg372 O382 2.251 . S
Mg372 O385 2.010 . S
O373 Mg372 2.028 . S
O373 C376 1.250 . S
O374 Mg375 2.028 . S
O374 C376 1.248 . S
Mg375 O374 2.028 . S
Mg375 O380 2.032 . S
Mg375 O382 2.079 . S
C376 O373 1.250 . S
C376 O374 1.248 . S
C377 O378 1.264 . S
C377 O385 1.249 . S
O378 C377 1.264 . S
O379 Mg372 1.986 . S
O379 C383 1.246 . S
O380 Mg375 2.032 . S
O380 C383 1.259 . S
O381 Mg372 2.114 . S
O381 C384 1.252 . S
O382 Mg372 2.251 . S
O382 Mg375 2.079 . S
O382 C384 1.273 . S
C383 O379 1.246 . S
C383 O380 1.259 . S
C384 O381 1.252 . S
C384 O382 1.273 . S
O385 Mg372 2.010 . S
O385 C377 1.249 . S
Mg386 O387 2.028 . S
Mg386 O393 1.986 . S
Mg386 O395 2.114 . S
Mg386 O396 2.251 . S
Mg386 O399 2.010 . S
O387 Mg386 2.028 . S
O387 C390 1.250 . S
O388 Mg389 2.028 . S
O388 C390 1.248 . S
Mg389 O388 2.028 . S
Mg389 O394 2.032 . S
Mg389 O396 2.079 . S
C390 O387 1.250 . S
C390 O388 1.248 . S
C391 O392 1.264 . S
C391 O399 1.249 . S
O392 C391 1.264 . S
O393 Mg386 1.986 . S
O393 C397 1.246 . S
O394 Mg389 2.032 . S
O394 C397 1.259 . S
O395 Mg386 2.114 . S
O395 C398 1.252 . S
O396 Mg386 2.251 . S
O396 Mg389 2.079 . S
O396 C398 1.273 . S
C397 O393 1.246 . S
C397 O394 1.259 . S
C398 O395 1.252 . S
C398 O396 1.273 . S
O399 Mg386 2.010 . S
O399 C391 1.249 . S
Mg400 O401 2.028 . S
Mg400 O407 1.986 . S
Mg400 O409 2.114 . S
Mg400 O410 2.251 . S
Mg400 O413 2.010 . S
O401 Mg400 2.028 . S
O401 C404 1.250 . S
O402 Mg403 2.028 . S
O402 C404 1.248 . S
Mg403 O402 2.028 . S
Mg403 O408 2.032 . S
Mg403 O410 2.079 . S
C404 O401 1.250 . S
C404 O402 1.248 . S
C405 O406 1.264 . S
C405 O413 1.249 . S
O406 C405 1.264 . S
O407 Mg400 1.986 . S
O407 C411 1.246 . S
O408 Mg403 2.032 . S
O408 C411 1.259 . S
O409 Mg400 2.114 . S
O409 C412 1.252 . S
O410 Mg400 2.251 . S
O410 Mg403 2.079 . S
O410 C412 1.273 . S
C411 O407 1.246 . S
C411 O408 1.259 . S
C412 O409 1.252 . S
C412 O410 1.273 . S
O413 Mg400 2.010 . S
O413 C405 1.249 . S
Mg414 O415 2.028 . S
Mg414 O421 1.986 . S
Mg414 O423 2.114 . S
Mg414 O424 2.251 . S
Mg414 O427 2.010 . S
O415 Mg414 2.028 . S
O415 C418 1.250 . S
O416 Mg417 2.028 . S
O416 C418 1.248 . S
Mg417 O416 2.028 . S
Mg417 O422 2.032 . S
Mg417 O424 2.079 . S
C418 O415 1.250 . S
C418 O416 1.248 . S
C419 O420 1.264 . S
C419 O427 1.249 . S
O420 C419 1.264 . S
O421 Mg414 1.986 . S
O421 C425 1.246 . S
O422 Mg417 2.032 . S
O422 C425 1.259 . S
O423 Mg414 2.114 . S
O423 C426 1.252 . S
O424 Mg414 2.251 . S
O424 Mg417 2.079 . S
O424 C426 1.273 . S
C425 O421 1.246 . S
C425 O422 1.259 . S
C426 O423 1.252 . S
C426 O424 1.273 . S
O427 Mg414 2.010 . S
O427 C419 1.249 . S
Mg428 O429 2.028 . S
Mg428 O435 1.986 . S
Mg428 O437 2.114 . S
Mg428 O438 2.251 . S
Mg428 O441 2.010 . S
O429 Mg428 2.028 . S
O429 C432 1.250 . S
O430 Mg431 2.028 . S
O430 C432 1.248 . S
Mg431 O430 2.028 . S
Mg431 O436 2.032 . S
Mg431 O438 2.079 . S
C432 O429 1.250 . S
C432 O430 1.248 . S
C433 O434 1.264 . S
C433 O441 1.249 . S
O434 C433 1.264 . S
O435 Mg428 1.986 . S
O435 C439 1.246 . S
O436 Mg431 2.032 . S
O436 C439 1.259 . S
O437 Mg428 2.114 . S
O437 C440 1.252 . S
O438 Mg428 2.251 . S
O438 Mg431 2.079 . S
O438 C440 1.273 . S
C439 O435 1.246 . S
C439 O436 1.259 . S
C440 O437 1.252 . S
C440 O438 1.273 . S
O441 Mg428 2.010 . S
O441 C433 1.249 . S
Mg442 O443 2.028 . S
Mg442 O449 1.986 . S
Mg442 O451 2.114 . S
Mg442 O452 2.251 . S
Mg442 O455 2.010 . S
O443 Mg442 2.028 . S
O443 C446 1.250 . S
O444 Mg445 2.028 . S
O444 C446 1.248 . S
Mg445 O444 2.028 . S
Mg445 O450 2.032 . S
Mg445 O452 2.079 . S
C446 O443 1.250 . S
C446 O444 1.248 . S
C447 O448 1.264 . S
C447 O455 1.249 . S
O448 C447 1.264 . S
O449 Mg442 1.986 . S
O449 C453 1.246 . S
O450 Mg445 2.032 . S
O450 C453 1.259 . S
O451 Mg442 2.114 . S
O451 C454 1.252 . S
O452 Mg442 2.251 . S
O452 Mg445 2.079 . S
O452 C454 1.273 . S
C453 O449 1.246 . S
C453 O450 1.259 . S
C454 O451 1.252 . S
C454 O452 1.273 . S
O455 Mg442 2.010 . S
O455 C447 1.249 . S
H456 C462 0.930 . S
H457 C465 0.930 . S
H458 C466 0.930 . S
H459 C467 0.930 . S
H460 C470 0.930 . S
H461 C471 0.930 . S
C462 H456 0.930 . S
C462 C463 1.355 . S
C462 C464 1.415 . S
C463 C462 1.355 . S
C463 C465 1.419 . S
C464 C462 1.415 . S
C464 C469 1.425 . S
C464 C471 1.409 . S
C465 H457 0.930 . S
C465 C463 1.419 . S
C465 C466 1.362 . S
C466 H458 0.930 . S
C466 C465 1.362 . S
C466 C469 1.409 . S
C467 H459 0.930 . S
C467 C468 1.355 . S
C467 C469 1.415 . S
C468 C467 1.355 . S
C468 C470 1.419 . S
C469 C464 1.425 . S
C469 C466 1.409 . S
C469 C467 1.415 . S
C470 H460 0.930 . S
C470 C468 1.419 . S
C470 C471 1.362 . S
C471 H461 0.930 . S
C471 C464 1.409 . S
C471 C470 1.362 . S
H472 C478 0.930 . S
H473 C481 0.930 . S
H474 C482 0.930 . S
H475 C483 0.930 . S
H476 C486 0.930 . S
H477 C487 0.930 . S
C478 H472 0.930 . S
C478 C479 1.355 . S
C478 C480 1.415 . S
C479 C478 1.355 . S
C479 C481 1.419 . S
C480 C478 1.415 . S
C480 C485 1.425 . S
C480 C487 1.409 . S
C481 H473 0.930 . S
C481 C479 1.419 . S
C481 C482 1.362 . S
C482 H474 0.930 . S
C482 C481 1.362 . S
C482 C485 1.409 . S
C483 H475 0.930 . S
C483 C484 1.355 . S
C483 C485 1.415 . S
C484 C483 1.355 . S
C484 C486 1.419 . S
C485 C480 1.425 . S
C485 C482 1.409 . S
C485 C483 1.415 . S
C486 H476 0.930 . S
C486 C484 1.419 . S
C486 C487 1.362 . S
C487 H477 0.930 . S
C487 C480 1.409 . S
C487 C486 1.362 . S
H488 C494 0.930 . S
H489 C497 0.930 . S
H490 C498 0.930 . S
H491 C499 0.930 . S
H492 C502 0.930 . S
H493 C503 0.930 . S
C494 H488 0.930 . S
C494 C495 1.355 . S
C494 C496 1.415 . S
C495 C494 1.355 . S
C495 C497 1.419 . S
C496 C494 1.415 . S
C496 C501 1.425 . S
C496 C503 1.409 . S
C497 H489 0.930 . S
C497 C495 1.419 . S
C497 C498 1.362 . S
C498 H490 0.930 . S
C498 C497 1.362 . S
C498 C501 1.409 . S
C499 H491 0.930 . S
C499 C500 1.355 . S
C499 C501 1.415 . S
C500 C499 1.355 . S
C500 C502 1.419 . S
C501 C496 1.425 . S
C501 C498 1.409 . S
C501 C499 1.415 . S
C502 H492 0.930 . S
C502 C500 1.419 . S
C502 C503 1.362 . S
C503 H493 0.930 . S
C503 C496 1.409 . S
C503 C502 1.362 . S
H504 C510 0.930 . S
H505 C513 0.930 . S
H506 C514 0.930 . S
H507 C515 0.930 . S
H508 C518 0.930 . S
H509 C519 0.930 . S
C510 H504 0.930 . S
C510 C511 1.355 . S
C510 C512 1.415 . S
C511 C510 1.355 . S
C511 C513 1.419 . S
C512 C510 1.415 . S
C512 C517 1.425 . S
C512 C519 1.409 . S
C513 H505 0.930 . S
C513 C511 1.419 . S
C513 C514 1.362 . S
C514 H506 0.930 . S
C514 C513 1.362 . S
C514 C517 1.409 . S
C515 H507 0.930 . S
C515 C516 1.355 . S
C515 C517 1.415 . S
C516 C515 1.355 . S
C516 C518 1.419 . S
C517 C512 1.425 . S
C517 C514 1.409 . S
C517 C515 1.415 . S
C518 H508 0.930 . S
C518 C516 1.419 . S
C518 C519 1.362 . S
C519 H509 0.930 . S
C519 C512 1.409 . S
C519 C518 1.362 . S
H520 C526 0.930 . S
H521 C529 0.930 . S
H522 C530 0.930 . S
H523 C531 0.930 . S
H524 C534 0.930 . S
H525 C535 0.930 . S
C526 H520 0.930 . S
C526 C527 1.355 . S
C526 C528 1.415 . S
C527 C526 1.355 . S
C527 C529 1.419 . S
C528 C526 1.415 . S
C528 C533 1.425 . S
C528 C535 1.409 . S
C529 H521 0.930 . S
C529 C527 1.419 . S
C529 C530 1.362 . S
C530 H522 0.930 . S
C530 C529 1.362 . S
C530 C533 1.409 . S
C531 H523 0.930 . S
C531 C532 1.355 . S
C531 C533 1.415 . S
C532 C531 1.355 . S
C532 C534 1.419 . S
C533 C528 1.425 . S
C533 C530 1.409 . S
C533 C531 1.415 . S
C534 H524 0.930 . S
C534 C532 1.419 . S
C534 C535 1.362 . S
C535 H525 0.930 . S
C535 C528 1.409 . S
C535 C534 1.362 . S
H536 C542 0.930 . S
H537 C545 0.930 . S
H538 C546 0.930 . S
H539 C547 0.930 . S
H540 C550 0.930 . S
H541 C551 0.930 . S
C542 H536 0.930 . S
C542 C543 1.355 . S
C542 C544 1.415 . S
C543 C542 1.355 . S
C543 C545 1.419 . S
C544 C542 1.415 . S
C544 C549 1.425 . S
C544 C551 1.409 . S
C545 H537 0.930 . S
C545 C543 1.419 . S
C545 C546 1.362 . S
C546 H538 0.930 . S
C546 C545 1.362 . S
C546 C549 1.409 . S
C547 H539 0.930 . S
C547 C548 1.355 . S
C547 C549 1.415 . S
C548 C547 1.355 . S
C548 C550 1.419 . S
C549 C544 1.425 . S
C549 C546 1.409 . S
C549 C547 1.415 . S
C550 H540 0.930 . S
C550 C548 1.419 . S
C550 C551 1.362 . S
C551 H541 0.930 . S
C551 C544 1.409 . S
C551 C550 1.362 . S
H552 C558 0.930 . S
H553 C561 0.930 . S
H554 C562 0.930 . S
H555 C563 0.930 . S
H556 C566 0.930 . S
H557 C567 0.930 . S
C558 H552 0.930 . S
C558 C559 1.355 . S
C558 C560 1.415 . S
C559 C558 1.355 . S
C559 C561 1.419 . S
C560 C558 1.415 . S
C560 C565 1.425 . S
C560 C567 1.409 . S
C561 H553 0.930 . S
C561 C559 1.419 . S
C561 C562 1.362 . S
C562 H554 0.930 . S
C562 C561 1.362 . S
C562 C565 1.409 . S
C563 H555 0.930 . S
C563 C564 1.355 . S
C563 C565 1.415 . S
C564 C563 1.355 . S
C564 C566 1.419 . S
C565 C560 1.425 . S
C565 C562 1.409 . S
C565 C563 1.415 . S
C566 H556 0.930 . S
C566 C564 1.419 . S
C566 C567 1.362 . S
C567 H557 0.930 . S
C567 C560 1.409 . S
C567 C566 1.362 . S
H568 C574 0.930 . S
H569 C577 0.930 . S
H570 C578 0.930 . S
H571 C579 0.930 . S
H572 C582 0.930 . S
H573 C583 0.930 . S
C574 H568 0.930 . S
C574 C575 1.355 . S
C574 C576 1.415 . S
C575 C574 1.355 . S
C575 C577 1.419 . S
C576 C574 1.415 . S
C576 C581 1.425 . S
C576 C583 1.409 . S
C577 H569 0.930 . S
C577 C575 1.419 . S
C577 C578 1.362 . S
C578 H570 0.930 . S
C578 C577 1.362 . S
C578 C581 1.409 . S
C579 H571 0.930 . S
C579 C580 1.355 . S
C579 C581 1.415 . S
C580 C579 1.355 . S
C580 C582 1.419 . S
C581 C576 1.425 . S
C581 C578 1.409 . S
C581 C579 1.415 . S
C582 H572 0.930 . S
C582 C580 1.419 . S
C582 C583 1.362 . S
C583 H573 0.930 . S
C583 C576 1.409 . S
C583 C582 1.362 . S
H584 C590 0.930 . S
H585 C593 0.930 . S
H586 C594 0.930 . S
H587 C595 0.930 . S
H588 C598 0.930 . S
H589 C599 0.930 . S
C590 H584 0.930 . S
C590 C591 1.355 . S
C590 C592 1.415 . S
C591 C590 1.355 . S
C591 C593 1.419 . S
C592 C590 1.415 . S
C592 C597 1.425 . S
C592 C599 1.409 . S
C593 H585 0.930 . S
C593 C591 1.419 . S
C593 C594 1.362 . S
C594 H586 0.930 . S
C594 C593 1.362 . S
C594 C597 1.409 . S
C595 H587 0.930 . S
C595 C596 1.355 . S
C595 C597 1.415 . S
C596 C595 1.355 . S
C596 C598 1.419 . S
C597 C592 1.425 . S
C597 C594 1.409 . S
C597 C595 1.415 . S
C598 H588 0.930 . S
C598 C596 1.419 . S
C598 C599 1.362 . S
C599 H589 0.930 . S
C599 C592 1.409 . S
C599 C598 1.362 . S
H600 C606 0.930 . S
H601 C609 0.930 . S
H602 C610 0.930 . S
H603 C611 0.930 . S
H604 C614 0.930 . S
H605 C615 0.930 . S
C606 H600 0.930 . S
C606 C607 1.355 . S
C606 C608 1.415 . S
C607 C606 1.355 . S
C607 C609 1.419 . S
C608 C606 1.415 . S
C608 C613 1.425 . S
C608 C615 1.409 . S
C609 H601 0.930 . S
C609 C607 1.419 . S
C609 C610 1.362 . S
C610 H602 0.930 . S
C610 C609 1.362 . S
C610 C613 1.409 . S
C611 H603 0.930 . S
C611 C612 1.355 . S
C611 C613 1.415 . S
C612 C611 1.355 . S
C612 C614 1.419 . S
C613 C608 1.425 . S
C613 C610 1.409 . S
C613 C611 1.415 . S
C614 H604 0.930 . S
C614 C612 1.419 . S
C614 C615 1.362 . S
C615 H605 0.930 . S
C615 C608 1.409 . S
C615 C614 1.362 . S
H616 C622 0.930 . S
H617 C625 0.930 . S
H618 C626 0.930 . S
H619 C627 0.930 . S
H620 C630 0.930 . S
H621 C631 0.930 . S
C622 H616 0.930 . S
C622 C623 1.355 . S
C622 C624 1.415 . S
C623 C622 1.355 . S
C623 C625 1.419 . S
C624 C622 1.415 . S
C624 C629 1.425 . S
C624 C631 1.409 . S
C625 H617 0.930 . S
C625 C623 1.419 . S
C625 C626 1.362 . S
C626 H618 0.930 . S
C626 C625 1.362 . S
C626 C629 1.409 . S
C627 H619 0.930 . S
C627 C628 1.355 . S
C627 C629 1.415 . S
C628 C627 1.355 . S
C628 C630 1.419 . S
C629 C624 1.425 . S
C629 C626 1.409 . S
C629 C627 1.415 . S
C630 H620 0.930 . S
C630 C628 1.419 . S
C630 C631 1.362 . S
C631 H621 0.930 . S
C631 C624 1.409 . S
C631 C630 1.362 . S
H632 C638 0.930 . S
H633 C641 0.930 . S
H634 C642 0.930 . S
H635 C643 0.930 . S
H636 C646 0.930 . S
H637 C647 0.930 . S
C638 H632 0.930 . S
C638 C639 1.355 . S
C638 C640 1.415 . S
C639 C638 1.355 . S
C639 C641 1.419 . S
C640 C638 1.415 . S
C640 C645 1.425 . S
C640 C647 1.409 . S
C641 H633 0.930 . S
C641 C639 1.419 . S
C641 C642 1.362 . S
C642 H634 0.930 . S
C642 C641 1.362 . S
C642 C645 1.409 . S
C643 H635 0.930 . S
C643 C644 1.355 . S
C643 C645 1.415 . S
C644 C643 1.355 . S
C644 C646 1.419 . S
C645 C640 1.425 . S
C645 C642 1.409 . S
C645 C643 1.415 . S
C646 H636 0.930 . S
C646 C644 1.419 . S
C646 C647 1.362 . S
C647 H637 0.930 . S
C647 C640 1.409 . S
C647 C646 1.362 . S
H648 C654 0.930 . S
H649 C657 0.930 . S
H650 C658 0.930 . S
H651 C659 0.930 . S
H652 C662 0.930 . S
H653 C663 0.930 . S
C654 H648 0.930 . S
C654 C655 1.355 . S
C654 C656 1.415 . S
C655 C654 1.355 . S
C655 C657 1.419 . S
C656 C654 1.415 . S
C656 C661 1.425 . S
C656 C663 1.409 . S
C657 H649 0.930 . S
C657 C655 1.419 . S
C657 C658 1.362 . S
C658 H650 0.930 . S
C658 C657 1.362 . S
C658 C661 1.409 . S
C659 H651 0.930 . S
C659 C660 1.355 . S
C659 C661 1.415 . S
C660 C659 1.355 . S
C660 C662 1.419 . S
C661 C656 1.425 . S
C661 C658 1.409 . S
C661 C659 1.415 . S
C662 H652 0.930 . S
C662 C660 1.419 . S
C662 C663 1.362 . S
C663 H653 0.930 . S
C663 C656 1.409 . S
C663 C662 1.362 . S
H664 C670 0.930 . S
H665 C673 0.930 . S
H666 C674 0.930 . S
H667 C675 0.930 . S
H668 C678 0.930 . S
H669 C679 0.930 . S
C670 H664 0.930 . S
C670 C671 1.355 . S
C670 C672 1.415 . S
C671 C670 1.355 . S
C671 C673 1.419 . S
C672 C670 1.415 . S
C672 C677 1.425 . S
C672 C679 1.409 . S
C673 H665 0.930 . S
C673 C671 1.419 . S
C673 C674 1.362 . S
C674 H666 0.930 . S
C674 C673 1.362 . S
C674 C677 1.409 . S
C675 H667 0.930 . S
C675 C676 1.355 . S
C675 C677 1.415 . S
C676 C675 1.355 . S
C676 C678 1.419 . S
C677 C672 1.425 . S
C677 C674 1.409 . S
C677 C675 1.415 . S
C678 H668 0.930 . S
C678 C676 1.419 . S
C678 C679 1.362 . S
C679 H669 0.930 . S
C679 C672 1.409 . S
C679 C678 1.362 . S
H680 C686 0.930 . S
H681 C689 0.930 . S
H682 C690 0.930 . S
H683 C691 0.930 . S
H684 C694 0.930 . S
H685 C695 0.930 . S
C686 H680 0.930 . S
C686 C687 1.355 . S
C686 C688 1.415 . S
C687 C686 1.355 . S
C687 C689 1.419 . S
C688 C686 1.415 . S
C688 C693 1.425 . S
C688 C695 1.409 . S
C689 H681 0.930 . S
C689 C687 1.419 . S
C689 C690 1.362 . S
C690 H682 0.930 . S
C690 C689 1.362 . S
C690 C693 1.409 . S
C691 H683 0.930 . S
C691 C692 1.355 . S
C691 C693 1.415 . S
C692 C691 1.355 . S
C692 C694 1.419 . S
C693 C688 1.425 . S
C693 C690 1.409 . S
C693 C691 1.415 . S
C694 H684 0.930 . S
C694 C692 1.419 . S
C694 C695 1.362 . S
C695 H685 0.930 . S
C695 C688 1.409 . S
C695 C694 1.362 . S
H696 C702 0.930 . S
H697 C705 0.930 . S
H698 C706 0.930 . S
H699 C707 0.945 . S
H700 C710 0.930 . S
H701 C711 0.930 . S
C702 H696 0.930 . S
C702 C703 1.355 . S
C702 C704 1.415 . S
C703 C702 1.355 . S
C703 C705 1.419 . S
C704 C702 1.415 . S
C704 C709 1.425 . S
C704 C711 1.409 . S
C705 H697 0.930 . S
C705 C703 1.419 . S
C705 C706 1.362 . S
C706 H698 0.930 . S
C706 C705 1.362 . S
C706 C709 1.409 . S
C707 H699 0.945 . S
C707 C708 1.353 1_554 S
C707 C709 1.401 1_554 S
C708 C707 1.353 1_556 S
C708 C710 1.419 . S
C709 C704 1.425 . S
C709 C706 1.409 . S
C709 C707 1.401 1_556 S
C710 H700 0.930 . S
C710 C708 1.419 . S
C710 C711 1.362 . S
C711 H701 0.930 . S
C711 C704 1.409 . S
C711 C710 1.362 . S
H712 C718 0.930 . S
H713 C721 0.930 . S
H714 C722 0.930 . S
H715 C723 0.930 . S
H716 C726 0.930 . S
H717 C727 0.930 . S
C718 H712 0.930 . S
C718 C719 1.355 . S
C718 C720 1.415 . S
C719 C718 1.355 . S
C719 C721 1.419 . S
C720 C718 1.415 . S
C720 C725 1.425 . S
C720 C727 1.409 . S
C721 H713 0.930 . S
C721 C719 1.419 . S
C721 C722 1.362 . S
C722 H714 0.930 . S
C722 C721 1.362 . S
C722 C725 1.409 . S
C723 H715 0.930 . S
C723 C724 1.355 . S
C723 C725 1.415 . S
C724 C723 1.355 . S
C724 C726 1.419 . S
C725 C720 1.425 . S
C725 C722 1.409 . S
C725 C723 1.415 . S
C726 H716 0.930 . S
C726 C724 1.419 . S
C726 C727 1.362 . S
C727 H717 0.930 . S
C727 C720 1.409 . S
C727 C726 1.362 . S
H728 C734 0.930 . S
H729 C737 0.930 . S
H730 C738 0.930 . S
H731 C739 0.930 . S
H732 C742 0.930 . S
H733 C743 0.930 . S
C734 H728 0.930 . S
C734 C735 1.355 . S
C734 C736 1.415 . S
C735 C734 1.355 . S
C735 C737 1.419 . S
C736 C734 1.415 . S
C736 C741 1.425 . S
C736 C743 1.409 . S
C737 H729 0.930 . S
C737 C735 1.419 . S
C737 C738 1.362 . S
C738 H730 0.930 . S
C738 C737 1.362 . S
C738 C741 1.409 . S
C739 H731 0.930 . S
C739 C740 1.355 . S
C739 C741 1.415 . S
C740 C739 1.355 . S
C740 C742 1.419 . S
C741 C736 1.425 . S
C741 C738 1.409 . S
C741 C739 1.415 . S
C742 H732 0.930 . S
C742 C740 1.419 . S
C742 C743 1.362 . S
C743 H733 0.930 . S
C743 C736 1.409 . S
C743 C742 1.362 . S
H744 C750 0.930 . S
H745 C753 0.930 . S
H746 C754 0.930 . S
H747 C755 0.930 . S
H748 C758 0.930 . S
H749 C759 0.930 . S
C750 H744 0.930 . S
C750 C751 1.355 . S
C750 C752 1.415 . S
C751 C750 1.355 . S
C751 C753 1.419 . S
C752 C750 1.415 . S
C752 C757 1.425 . S
C752 C759 1.409 . S
C753 H745 0.930 . S
C753 C751 1.419 . S
C753 C754 1.362 . S
C754 H746 0.930 . S
C754 C753 1.362 . S
C754 C757 1.409 . S
C755 H747 0.930 . S
C755 C756 1.355 . S
C755 C757 1.415 . S
C756 C755 1.355 . S
C756 C758 1.419 . S
C757 C752 1.425 . S
C757 C754 1.409 . S
C757 C755 1.415 . S
C758 H748 0.930 . S
C758 C756 1.419 . S
C758 C759 1.362 . S
C759 H749 0.930 . S
C759 C752 1.409 . S
C759 C758 1.362 . S
H760 C766 0.930 . S
H761 C769 0.930 . S
H762 C770 0.930 . S
H763 C771 0.930 . S
H764 C774 0.930 . S
H765 C775 0.930 . S
C766 H760 0.930 . S
C766 C767 1.355 . S
C766 C768 1.415 . S
C767 C766 1.355 . S
C767 C769 1.419 . S
C768 C766 1.415 . S
C768 C773 1.425 . S
C768 C775 1.409 . S
C769 H761 0.930 . S
C769 C767 1.419 . S
C769 C770 1.362 . S
C770 H762 0.930 . S
C770 C769 1.362 . S
C770 C773 1.409 . S
C771 H763 0.930 . S
C771 C772 1.355 . S
C771 C773 1.415 . S
C772 C771 1.355 . S
C772 C774 1.419 . S
C773 C768 1.425 . S
C773 C770 1.409 . S
C773 C771 1.415 . S
C774 H764 0.930 . S
C774 C772 1.419 . S
C774 C775 1.362 . S
C775 H765 0.930 . S
C775 C768 1.409 . S
C775 C774 1.362 . S
H776 C782 0.930 . S
H777 C785 0.930 . S
H778 C786 0.930 . S
H779 C787 0.930 . S
H780 C790 0.930 . S
H781 C791 0.930 . S
C782 H776 0.930 . S
C782 C783 1.355 . S
C782 C784 1.415 . S
C783 C782 1.355 . S
C783 C785 1.419 . S
C784 C782 1.415 . S
C784 C789 1.425 . S
C784 C791 1.409 . S
C785 H777 0.930 . S
C785 C783 1.419 . S
C785 C786 1.362 . S
C786 H778 0.930 . S
C786 C785 1.362 . S
C786 C789 1.409 . S
C787 H779 0.930 . S
C787 C788 1.355 . S
C787 C789 1.415 . S
C788 C787 1.355 . S
C788 C790 1.419 . S
C789 C784 1.425 . S
C789 C786 1.409 . S
C789 C787 1.415 . S
C790 H780 0.930 . S
C790 C788 1.419 . S
C790 C791 1.362 . S
C791 H781 0.930 . S
C791 C784 1.409 . S
C791 C790 1.362 . S
H792 C798 0.930 . S
H793 C801 0.930 . S
H794 C802 0.930 . S
H795 C803 0.930 . S
H796 C806 0.930 . S
H797 C807 0.930 . S
C798 H792 0.930 . S
C798 C799 1.355 . S
C798 C800 1.415 . S
C799 C798 1.355 . S
C799 C801 1.419 . S
C800 C798 1.415 . S
C800 C805 1.425 . S
C800 C807 1.409 . S
C801 H793 0.930 . S
C801 C799 1.419 . S
C801 C802 1.362 . S
C802 H794 0.930 . S
C802 C801 1.362 . S
C802 C805 1.409 . S
C803 H795 0.930 . S
C803 C804 1.355 . S
C803 C805 1.415 . S
C804 C803 1.355 . S
C804 C806 1.419 . S
C805 C800 1.425 . S
C805 C802 1.409 . S
C805 C803 1.415 . S
C806 H796 0.930 . S
C806 C804 1.419 . S
C806 C807 1.362 . S
C807 H797 0.930 . S
C807 C800 1.409 . S
C807 C806 1.362 . S
H808 C814 0.930 . S
H809 C817 0.930 . S
H810 C818 0.930 . S
H811 C819 0.930 . S
H812 C822 0.930 . S
H813 C823 0.930 . S
C814 H808 0.930 . S
C814 C815 1.355 1_556 S
C814 C816 1.415 . S
C815 C814 1.355 1_554 S
C815 C817 1.419 . S
C816 C814 1.415 . S
C816 C821 1.425 . S
C816 C823 1.409 . S
C817 H809 0.930 . S
C817 C815 1.419 . S
C817 C818 1.362 . S
C818 H810 0.930 . S
C818 C817 1.362 . S
C818 C821 1.409 1_554 S
C819 H811 0.930 . S
C819 C820 1.355 . S
C819 C821 1.415 . S
C820 C819 1.355 . S
C820 C822 1.419 . S
C821 C816 1.425 . S
C821 C818 1.409 1_556 S
C821 C819 1.415 . S
C822 H812 0.930 . S
C822 C820 1.419 . S
C822 C823 1.362 . S
C823 H813 0.930 . S
C823 C816 1.409 . S
C823 C822 1.362 . S
H824 C830 0.930 . S
H825 C833 0.930 . S
H826 C834 0.930 . S
H827 C835 0.930 . S
H828 C838 0.930 . S
H829 C839 0.930 . S
C830 H824 0.930 . S
C830 C831 1.355 . S
C830 C832 1.415 . S
C831 C830 1.355 . S
C831 C833 1.419 . S
C832 C830 1.415 . S
C832 C837 1.425 . S
C832 C839 1.409 . S
C833 H825 0.930 . S
C833 C831 1.419 . S
C833 C834 1.362 . S
C834 H826 0.930 . S
C834 C833 1.362 . S
C834 C837 1.409 . S
C835 H827 0.930 . S
C835 C836 1.355 . S
C835 C837 1.415 . S
C836 C835 1.355 . S
C836 C838 1.419 . S
C837 C832 1.425 . S
C837 C834 1.409 . S
C837 C835 1.415 . S
C838 H828 0.930 . S
C838 C836 1.419 . S
C838 C839 1.362 . S
C839 H829 0.930 . S
C839 C832 1.409 . S
C839 C838 1.362 . S
C468 C447 1.413 . S
C463 C29 1.560 . S
C479 C115 1.571 . S
C484 C377 1.360 . S
C495 C153 1.502 . S
C500 C397 1.585 . S
C511 C239 1.430 . S
C516 C411 1.438 . S
C532 C419 1.351 . S
C527 C301 1.544 . S
C543 C339 1.722 . S
C548 C433 1.483 . S
C559 C91 1.492 . S
C564 C391 1.307 . S
C575 C177 1.513 . S
C580 C405 1.340 . S
C591 C215 1.466 . S
C596 C425 1.520 . S
C612 C439 1.844 . S
C607 C277 1.742 . S
C628 C453 1.546 . S
C623 C363 1.480 . S
C644 C383 1.518 . S
C639 C53 1.467 . S
C655 C35 1.532 . S
C660 C390 1.538 . S
C671 C109 1.364 . S
C676 C404 1.423 . S
C692 C426 1.427 . S
C687 C159 1.392 . S
C703 C233 1.609 . S
C708 C440 1.720 1_556 S
C724 C454 1.512 . S
C719 C295 1.374 . S
C740 C384 1.309 . S
C735 C345 1.261 . S
C756 C446 1.418 . S
C751 C97 1.404 . S
C767 C171 1.394 . S
C772 C376 1.457 . S
C788 C398 1.544 . S
C783 C221 1.511 . S
C799 C283 1.311 . S
C804 C412 1.349 . S
C815 C357 1.358 . S
C820 C418 1.492 . S
C831 C47 1.608 . S
C836 C432 1.715 . S
