# Generated by pormake.
# Topology cml, (3,6)-cn, num edge types: 1
# Building blocks:
#     Node 0, Type 0, BuildingBlock: KAKCAD_clean_linker_0, # of connection points: 3
#     Node 1, Type 0, BuildingBlock: KAKCAD_clean_linker_0, # of connection points: 3
#     Node 2, Type 0, BuildingBlock: KAKCAD_clean_linker_0, # of connection points: 3
#     Node 3, Type 0, BuildingBlock: KAKCAD_clean_linker_0, # of connection points: 3
#     Node 4, Type 0, BuildingBlock: KAKCAD_clean_linker_0, # of connection points: 3
#     Node 5, Type 0, BuildingBlock: KAKCAD_clean_linker_0, # of connection points: 3
#     Node 6, Type 0, BuildingBlock: KAKCAD_clean_linker_0, # of connection points: 3
#     Node 7, Type 0, BuildingBlock: KAKCAD_clean_linker_0, # of connection points: 3
#     Node 8, Type 1, BuildingBlock: IZENUY_clean_sbu_0, # of connection points: 6
#     Node 9, Type 1, BuildingBlock: IZENUY_clean_sbu_0, # of connection points: 6
#     Node 10, Type 1, BuildingBlock: IZENUY_clean_sbu_0, # of connection points: 6
#     Node 11, Type 1, BuildingBlock: IZENUY_clean_sbu_0, # of connection points: 6
#     Edge 12, Type (0, 1), BuildingBlock: XUDNAN_clean_linker_2, # of connection points: 2
#     Edge 13, Type (0, 1), BuildingBlock: XUDNAN_clean_linker_2, # of connection points: 2
#     Edge 14, Type (0, 1), BuildingBlock: XUDNAN_clean_linker_2, # of connection points: 2
#     Edge 15, Type (0, 1), BuildingBlock: XUDNAN_clean_linker_2, # of connection points: 2
#     Edge 16, Type (0, 1), BuildingBlock: XUDNAN_clean_linker_2, # of connection points: 2
#     Edge 17, Type (0, 1), BuildingBlock: XUDNAN_clean_linker_2, # of connection points: 2
#     Edge 18, Type (0, 1), BuildingBlock: XUDNAN_clean_linker_2, # of connection points: 2
#     Edge 19, Type (0, 1), BuildingBlock: XUDNAN_clean_linker_2, # of connection points: 2
#     Edge 20, Type (0, 1), BuildingBlock: XUDNAN_clean_linker_2, # of connection points: 2
#     Edge 21, Type (0, 1), BuildingBlock: XUDNAN_clean_linker_2, # of connection points: 2
#     Edge 22, Type (0, 1), BuildingBlock: XUDNAN_clean_linker_2, # of connection points: 2
#     Edge 23, Type (0, 1), BuildingBlock: XUDNAN_clean_linker_2, # of connection points: 2
#     Edge 24, Type (0, 1), BuildingBlock: XUDNAN_clean_linker_2, # of connection points: 2
#     Edge 25, Type (0, 1), BuildingBlock: XUDNAN_clean_linker_2, # of connection points: 2
#     Edge 26, Type (0, 1), BuildingBlock: XUDNAN_clean_linker_2, # of connection points: 2
#     Edge 27, Type (0, 1), BuildingBlock: XUDNAN_clean_linker_2, # of connection points: 2
#     Edge 28, Type (0, 1), BuildingBlock: XUDNAN_clean_linker_2, # of connection points: 2
#     Edge 29, Type (0, 1), BuildingBlock: XUDNAN_clean_linker_2, # of connection points: 2
#     Edge 30, Type (0, 1), BuildingBlock: XUDNAN_clean_linker_2, # of connection points: 2
#     Edge 31, Type (0, 1), BuildingBlock: XUDNAN_clean_linker_2, # of connection points: 2
#     Edge 32, Type (0, 1), BuildingBlock: XUDNAN_clean_linker_2, # of connection points: 2
#     Edge 33, Type (0, 1), BuildingBlock: XUDNAN_clean_linker_2, # of connection points: 2
#     Edge 34, Type (0, 1), BuildingBlock: XUDNAN_clean_linker_2, # of connection points: 2
#     Edge 35, Type (0, 1), BuildingBlock: XUDNAN_clean_linker_2, # of connection points: 2
# Relax obj value: 0.055
# Max RMSD: 0.070
# Mean RMSD: 0.067
data_MOF--net-cml--node1-IZENUY_clean_sbu_0--node2-KAKCAD_clean_linker_0--edge1-XUDNAN_clean_linker_2
_symmetry_space_group_name_H-M    P1
_symmetry_Int_Tables_number       1
_symmetry_cell_setting            triclinic
loop_
_symmetry_equiv_pos_as_xyz
'x, y, z'
_cell_length_a     43.363627
_cell_length_b     50.374023
_cell_length_c     46.775446
_cell_angle_alpha  89.937511
_cell_angle_beta   90.135984
_cell_angle_gamma 90.248987
loop_
_atom_site_label
_atom_site_type_symbol
_atom_site_fract_x
_atom_site_fract_y
_atom_site_fract_z
_atom_type_partial_charge
C0 C 0.30583 0.47159 0.94163 0.0
C1 C 0.33657 0.47964 0.94597 0.0
C2 C 0.2929 0.45125 0.9582 0.0
C3 C 0.31053 0.4384 0.97932 0.0
C4 C 0.34136 0.44642 0.98344 0.0
C5 C 0.35415 0.46685 0.96708 0.0
C6 C 0.29708 0.41667 0.99705 0.0
C7 C 0.27748 0.39739 0.98489 0.0
C8 C 0.26582 0.3762 1.0014 0.0
C9 C 0.27445 0.37448 0.03043 0.0
C10 C 0.29459 0.39319 0.04279 0.0
C11 C 0.30501 0.41456 0.02609 0.0
C12 C 0.30656 0.38943 0.07243 0.0
C13 C 0.2877 0.37902 0.09422 0.0
C14 C 0.33768 0.395 0.07875 0.0
C15 C 0.34976 0.38987 0.10588 0.0
C16 C 0.33114 0.37874 0.12732 0.0
C17 C 0.24586 0.35522 0.98814 0.0
C18 C 0.22479 0.36139 0.96617 0.0
C19 C 0.24787 0.32866 0.99727 0.0
C20 C 0.2292 0.309 0.98517 0.0
C21 C 0.20847 0.31501 0.9629 0.0
C22 C 0.20654 0.34154 0.95358 0.0
C23 C 0.29991 0.3736 0.12132 0.0
H24 H 0.29167 0.48122 0.92561 0.0
H25 H 0.26901 0.4458 0.95467 0.0
H26 H 0.35588 0.43659 0.99902 0.0
H27 H 0.37808 0.47224 0.97053 0.0
H28 H 0.27234 0.39834 0.96225 0.0
H29 H 0.31955 0.42962 0.03577 0.0
H30 H 0.26605 0.35818 0.04335 0.0
H31 H 0.26353 0.37488 0.09031 0.0
H32 H 0.35313 0.40248 0.06244 0.0
H33 H 0.37403 0.39364 0.10973 0.0
H34 H 0.22218 0.38161 0.95872 0.0
H35 H 0.26415 0.32278 0.01364 0.0
H36 H 0.28498 0.36522 0.13756 0.0
H37 H 0.19121 0.34706 0.9363 0.0
H38 H 0.23105 0.28904 0.99356 0.0
C39 C 0.69866 0.5351 0.45232 0.0
C40 C 0.66725 0.53098 0.44626 0.0
C41 C 0.70894 0.55949 0.46307 0.0
C42 C 0.6879 0.58001 0.46844 0.0
C43 C 0.65653 0.57595 0.46221 0.0
C44 C 0.64634 0.55173 0.45099 0.0
C45 C 0.69849 0.60539 0.4812 0.0
C46 C 0.72362 0.61924 0.46949 0.0
C47 C 0.73354 0.64335 0.48149 0.0
C48 C 0.71852 0.6533 0.50578 0.0
C49 C 0.69392 0.63928 0.51833 0.0
C50 C 0.68378 0.61551 0.50557 0.0
C51 C 0.67982 0.64866 0.54549 0.0
C52 C 0.69842 0.65892 0.5676 0.0
C53 C 0.64787 0.64642 0.55003 0.0
C54 C 0.63496 0.65363 0.57625 0.0
C55 C 0.65366 0.66335 0.59853 0.0
C56 C 0.76028 0.6578 0.4693 0.0
C57 C 0.78833 0.64462 0.46488 0.0
C58 C 0.75827 0.68503 0.46304 0.0
C59 C 0.78402 0.69892 0.45291 0.0
C60 C 0.81234 0.68591 0.44941 0.0
C61 C 0.81421 0.65861 0.45527 0.0
C62 C 0.68548 0.66624 0.59378 0.0
H63 H 0.71524 0.51942 0.44877 0.0
H64 H 0.73322 0.56211 0.46784 0.0
H65 H 0.6399 0.59152 0.46604 0.0
H66 H 0.62197 0.54899 0.44669 0.0
H67 H 0.73511 0.61152 0.45071 0.0
H68 H 0.66519 0.60421 0.51523 0.0
H69 H 0.72642 0.67178 0.51519 0.0
H70 H 0.72317 0.66053 0.56505 0.0
H71 H 0.6328 0.63901 0.53333 0.0
H72 H 0.61028 0.65156 0.57909 0.0
H73 H 0.79048 0.62367 0.46969 0.0
H74 H 0.73682 0.69557 0.46616 0.0
H75 H 0.70057 0.67334 0.61063 0.0
H76 H 0.8358 0.64815 0.45264 0.0
H77 H 0.78208 0.72 0.44872 0.0
C78 C 0.6716 0.44369 0.92303 0.0
C79 C 0.66641 0.46883 0.93511 0.0
C80 C 0.6838 0.42308 0.93953 0.0
C81 C 0.69097 0.42706 0.96853 0.0
C82 C 0.68545 0.45206 0.98074 0.0
C83 C 0.67341 0.47272 0.96421 0.0
C84 C 0.70499 0.40544 0.98578 0.0
C85 C 0.72882 0.39011 0.97429 0.0
C86 C 0.74254 0.36976 0.99029 0.0
C87 C 0.73282 0.36529 0.0185 0.0
C88 C 0.7081 0.37977 0.03032 0.0
C89 C 0.69444 0.39989 0.01354 0.0
C90 C 0.69552 0.37298 0.05932 0.0
C91 C 0.69799 0.34704 0.07034 0.0
C92 C 0.67987 0.39198 0.0759 0.0
C93 C 0.66587 0.38494 0.10177 0.0
C94 C 0.66801 0.35888 0.11254 0.0
C95 C 0.76588 0.35238 0.97674 0.0
C96 C 0.76046 0.34231 0.9492 0.0
C97 C 0.79349 0.34579 0.99083 0.0
C98 C 0.81568 0.33015 0.97716 0.0
C99 C 0.81056 0.32076 0.94922 0.0
C100 C 0.78244 0.32665 0.93566 0.0
C101 C 0.68514 0.34032 0.09671 0.0
H102 H 0.6659 0.43979 0.90087 0.0
H103 H 0.68738 0.40392 0.92961 0.0
H104 H 0.6911 0.45581 0.00295 0.0
H105 H 0.67011 0.49191 0.97414 0.0
H106 H 0.73701 0.39421 0.95285 0.0
H107 H 0.67479 0.41078 0.02147 0.0
H108 H 0.74418 0.34999 0.03081 0.0
H109 H 0.70921 0.33144 0.05846 0.0
H110 H 0.67803 0.41239 0.06893 0.0
H111 H 0.65279 0.39998 0.11283 0.0
H112 H 0.73908 0.34651 0.93807 0.0
H113 H 0.79827 0.3533 0.01207 0.0
H114 H 0.68854 0.32028 0.10438 0.0
H115 H 0.77738 0.31919 0.91445 0.0
H116 H 0.83717 0.32607 0.98812 0.0
C117 C 0.3106 0.64868 0.60167 0.0
C118 C 0.34181 0.64426 0.60809 0.0
C119 C 0.2989 0.64283 0.57451 0.0
C120 C 0.31824 0.63271 0.55302 0.0
C121 C 0.34956 0.62848 0.5595 0.0
C122 C 0.36115 0.63405 0.58676 0.0
C123 C 0.30576 0.62641 0.52407 0.0
C124 C 0.28333 0.64265 0.51133 0.0
C125 C 0.27073 0.63653 0.48432 0.0
C126 C 0.28155 0.61399 0.46971 0.0
C127 C 0.30463 0.59795 0.48179 0.0
C128 C 0.31623 0.60412 0.50905 0.0
C129 C 0.317 0.57466 0.46624 0.0
C130 C 0.29714 0.55578 0.45386 0.0
C131 C 0.349 0.57057 0.46499 0.0
C132 C 0.36091 0.54772 0.45236 0.0
C133 C 0.34109 0.52834 0.44084 0.0
C134 C 0.24692 0.65423 0.47145 0.0
C135 C 0.22488 0.66657 0.48899 0.0
C136 C 0.24695 0.66017 0.442 0.0
C137 C 0.22638 0.67885 0.43069 0.0
C138 C 0.20574 0.69214 0.44869 0.0
C139 C 0.20478 0.6855 0.47779 0.0
C140 C 0.30908 0.53274 0.44142 0.0
H141 H 0.29512 0.6563 0.61781 0.0
H142 H 0.27457 0.64591 0.5705 0.0
H143 H 0.36529 0.6212 0.5434 0.0
H144 H 0.38542 0.63082 0.59099 0.0
H145 H 0.27623 0.66056 0.52223 0.0
H146 H 0.33309 0.5911 0.5188 0.0
H147 H 0.27224 0.60898 0.44888 0.0
H148 H 0.27238 0.55841 0.45463 0.0
H149 H 0.36486 0.58492 0.47414 0.0
H150 H 0.38565 0.54482 0.4525 0.0
H151 H 0.2235 0.662 0.51158 0.0
H152 H 0.26369 0.65126 0.42785 0.0
H153 H 0.29325 0.51825 0.4325 0.0
H154 H 0.18881 0.69536 0.492 0.0
H155 H 0.22758 0.68384 0.40819 0.0
C156 C 0.81578 0.9598 0.94801 0.0
C157 C 0.8469 0.96754 0.94999 0.0
C158 C 0.80547 0.93636 0.96092 0.0
C159 C 0.82603 0.91998 0.97605 0.0
C160 C 0.85716 0.92776 0.97808 0.0
C161 C 0.86746 0.95128 0.96525 0.0
C162 C 0.81478 0.89525 0.99022 0.0
C163 C 0.79258 0.87901 0.97686 0.0
C164 C 0.78001 0.85673 0.99093 0.0
C165 C 0.79081 0.85036 0.0185 0.0
C166 C 0.81357 0.86596 0.03193 0.0
C167 C 0.8253 0.88838 0.01765 0.0
C168 C 0.8242 0.85974 0.06142 0.0
C169 C 0.8029 0.85307 0.0829 0.0
C170 C 0.85564 0.86157 0.0686 0.0
C171 C 0.86547 0.85752 0.09674 0.0
C172 C 0.84407 0.85164 0.1184 0.0
C173 C 0.75452 0.84104 0.97745 0.0
C174 C 0.73186 0.85387 0.96099 0.0
C175 C 0.75194 0.8134 0.98155 0.0
C176 C 0.72692 0.79918 0.97015 0.0
C177 C 0.70398 0.81221 0.9542 0.0
C178 C 0.70718 0.83965 0.94933 0.0
C179 C 0.81272 0.84911 0.11107 0.0
H180 H 0.79927 0.97206 0.93675 0.0
H181 H 0.78122 0.9313 0.95941 0.0
H182 H 0.87371 0.91548 0.98928 0.0
H183 H 0.89167 0.95646 0.9668 0.0
H184 H 0.78513 0.88377 0.95535 0.0
H185 H 0.84175 0.90115 0.02848 0.0
H186 H 0.78118 0.83349 0.0298 0.0
H187 H 0.77849 0.8517 0.07812 0.0
H188 H 0.87265 0.86643 0.05247 0.0
H189 H 0.88974 0.85987 0.10169 0.0
H190 H 0.73265 0.87512 0.95759 0.0
H191 H 0.76917 0.8027 0.9937 0.0
H192 H 0.7957 0.84434 0.12721 0.0
H193 H 0.69043 0.85035 0.93662 0.0
H194 H 0.72522 0.7781 0.97446 0.0
C195 C 0.198 0.04381 0.4507 0.0
C196 C 0.16595 0.03969 0.45141 0.0
C197 C 0.21163 0.06387 0.46706 0.0
C198 C 0.1935 0.08035 0.48444 0.0
C199 C 0.16146 0.07606 0.48534 0.0
C200 C 0.14784 0.05593 0.46904 0.0
C201 C 0.20796 0.10221 0.50116 0.0
C202 C 0.23132 0.11786 0.48898 0.0
C203 C 0.24538 0.13858 0.50445 0.0
C204 C 0.23528 0.14387 0.53242 0.0
C205 C 0.2115 0.12866 0.54481 0.0
C206 C 0.19824 0.10774 0.52909 0.0
C207 C 0.20001 0.13466 0.57398 0.0
C208 C 0.22056 0.14031 0.59649 0.0
C209 C 0.16819 0.1343 0.57957 0.0
C210 C 0.15714 0.13898 0.60708 0.0
C211 C 0.17764 0.14415 0.62974 0.0
C212 C 0.26984 0.15497 0.49067 0.0
C213 C 0.29139 0.14302 0.47235 0.0
C214 C 0.2708 0.18272 0.49421 0.0
C215 C 0.29188 0.19819 0.47876 0.0
C216 C 0.3121 0.18621 0.4593 0.0
C217 C 0.31208 0.15847 0.45668 0.0
C218 C 0.20948 0.145 0.6241 0.0
H219 H 0.21262 0.03135 0.43767 0.0
H220 H 0.23644 0.06635 0.46625 0.0
H221 H 0.14678 0.08864 0.49818 0.0
H222 H 0.12303 0.05345 0.46976 0.0
H223 H 0.23796 0.11436 0.467 0.0
H224 H 0.1806 0.09542 0.53884 0.0
H225 H 0.2457 0.15993 0.54447 0.0
H226 H 0.24522 0.1405 0.59291 0.0
H227 H 0.15172 0.13054 0.56258 0.0
H228 H 0.13245 0.13877 0.61055 0.0
H229 H 0.29189 0.12167 0.46966 0.0
H230 H 0.25442 0.19262 0.50796 0.0
H231 H 0.22587 0.14873 0.64115 0.0
H232 H 0.3278 0.14876 0.44212 0.0
H233 H 0.29145 0.21959 0.48104 0.0
C234 C 0.14011 0.93963 0.95269 0.0
C235 C 0.16092 0.96088 0.9497 0.0
C236 C 0.15012 0.91525 0.96344 0.0
C237 C 0.18122 0.91157 0.97077 0.0
C238 C 0.20229 0.93247 0.96668 0.0
C239 C 0.19215 0.95704 0.95649 0.0
C240 C 0.19121 0.88679 0.98487 0.0
C241 C 0.21601 0.87213 0.97405 0.0
C242 C 0.22677 0.84945 0.98853 0.0
C243 C 0.21265 0.84207 0.01448 0.0
C244 C 0.18833 0.85701 0.02585 0.0
C245 C 0.17728 0.87897 0.01055 0.0
C246 C 0.17648 0.85153 0.055 0.0
C247 C 0.14464 0.85164 0.06059 0.0
C248 C 0.1972 0.84868 0.07792 0.0
C249 C 0.18639 0.84731 0.106 0.0
C250 C 0.15463 0.84842 0.11167 0.0
C251 C 0.25361 0.83429 0.97731 0.0
C252 C 0.25796 0.8309 0.94771 0.0
C253 C 0.27551 0.82347 0.99617 0.0
C254 C 0.30104 0.80978 0.9858 0.0
C255 C 0.30582 0.80692 0.95622 0.0
C256 C 0.28381 0.81751 0.93729 0.0
C257 C 0.1338 0.8499 0.08867 0.0
H258 H 0.11587 0.94222 0.9478 0.0
H259 H 0.13351 0.89938 0.96651 0.0
H260 H 0.22633 0.93012 0.97244 0.0
H261 H 0.20859 0.97317 0.95432 0.0
H262 H 0.22723 0.8788 0.95464 0.0
H263 H 0.15902 0.89101 0.0195 0.0
H264 H 0.22059 0.82476 0.02606 0.0
H265 H 0.12819 0.85375 0.04327 0.0
H266 H 0.22186 0.84879 0.07427 0.0
H267 H 0.2029 0.84602 0.12335 0.0
H268 H 0.24138 0.8386 0.93251 0.0
H269 H 0.27334 0.82594 0.01906 0.0
H270 H 0.1092 0.85094 0.09249 0.0
H271 H 0.28678 0.81591 0.91439 0.0
H272 H 0.31707 0.80145 1.00112 0.0
C273 C 0.82263 0.16255 0.6141 0.0
C274 C 0.85404 0.15903 0.62059 0.0
C275 C 0.81161 0.15834 0.58634 0.0
C276 C 0.83175 0.15039 0.56451 0.0
C277 C 0.86338 0.14809 0.57071 0.0
C278 C 0.87441 0.15238 0.59841 0.0
C279 C 0.81957 0.14248 0.53603 0.0
C280 C 0.79679 0.15757 0.52209 0.0
C281 C 0.78457 0.14933 0.49562 0.0
C282 C 0.79505 0.12546 0.48347 0.0
C283 C 0.81782 0.11027 0.49707 0.0
C284 C 0.83003 0.11898 0.52321 0.0
C285 C 0.82865 0.08506 0.48424 0.0
C286 C 0.80744 0.06598 0.47434 0.0
C287 C 0.86035 0.07973 0.48232 0.0
C288 C 0.87065 0.0558 0.47077 0.0
C289 C 0.84946 0.03656 0.4612 0.0
C290 C 0.76084 0.16539 0.4805 0.0
C291 C 0.73627 0.17706 0.49548 0.0
C292 C 0.7621 0.16843 0.45064 0.0
C293 C 0.73883 0.18186 0.43599 0.0
C294 C 0.71373 0.19273 0.45081 0.0
C295 C 0.71298 0.19065 0.48077 0.0
C296 C 0.81775 0.04187 0.46311 0.0
H297 H 0.80642 0.16798 0.63066 0.0
H298 H 0.78711 0.16018 0.58227 0.0
H299 H 0.87953 0.1423 0.55424 0.0
H300 H 0.89869 0.14932 0.6027 0.0
H301 H 0.78906 0.17598 0.5316 0.0
H302 H 0.84698 0.10686 0.53413 0.0
H303 H 0.78546 0.11862 0.46336 0.0
H304 H 0.78287 0.0695 0.47577 0.0
H305 H 0.8772 0.09415 0.48964 0.0
H306 H 0.89523 0.05215 0.46977 0.0
H307 H 0.73449 0.17495 0.51846 0.0
H308 H 0.78106 0.16026 0.4385 0.0
H309 H 0.80092 0.02746 0.45572 0.0
H310 H 0.69382 0.19868 0.49275 0.0
H311 H 0.74039 0.1836 0.41296 0.0
Fe312 Fe 0.00638 0.81936 0.32865 0.0
Fe313 Fe 0.00774 0.85295 0.38338 0.0
O314 O 0.00463 0.85074 0.34577 0.0
Fe315 Fe 0.99972 0.88001 0.32545 0.0
O316 O 0.96326 0.86817 0.31146 0.0
O317 O 0.97962 0.82841 0.29951 0.0
O318 O 0.97307 0.8073 0.34837 0.0
C319 C 0.97179 0.8065 0.37527 0.0
C320 C 0.04064 0.84954 0.29198 0.0
O321 O 0.98976 0.82054 0.39038 0.0
C322 C 0.042 0.89748 0.36419 0.0
O323 O 0.03387 0.80494 0.35472 0.0
O324 O 0.04577 0.83866 0.38256 0.0
O325 O 0.02105 0.86794 0.29426 0.0
O326 O 0.03958 0.82922 0.30767 0.0
C327 C 0.96243 0.88907 0.37431 0.0
O328 O 0.02667 0.88573 0.38349 0.0
O329 O 0.03594 0.8936 0.33818 0.0
C330 C 0.05214 0.81624 0.37224 0.0
O331 O 0.96968 0.86755 0.38634 0.0
O332 O 0.97764 0.89759 0.35306 0.0
C333 C 0.9599 0.84687 0.29767 0.0
Fe334 Fe 0.00532 0.15721 0.8903 0.0
Fe335 Fe 0.0091 0.12673 0.83356 0.0
O336 O 0.00933 0.1571 0.85257 0.0
Fe337 Fe 0.01371 0.18738 0.83356 0.0
O338 O 0.03491 0.20476 0.86226 0.0
O339 O 0.0421 0.17376 0.89461 0.0
O340 O 0.02649 0.12603 0.89555 0.0
C341 C 0.04498 0.11366 0.8794 0.0
C342 C 0.96942 0.20142 0.87202 0.0
O343 O 0.04279 0.11497 0.85252 0.0
C344 C 0.97341 0.15715 0.79865 0.0
O345 O 0.96836 0.14004 0.88882 0.0
O346 O 0.9831 0.10954 0.85819 0.0
O347 O 0.97715 0.19921 0.8462 0.0
O348 O 0.98354 0.18873 0.89152 0.0
C349 C 0.0547 0.15701 0.80456 0.0
O350 O 0.97516 0.13657 0.81385 0.0
O351 O 0.99304 0.17574 0.80126 0.0
C352 C 0.96399 0.11823 0.8762 0.0
O353 O 0.03514 0.13825 0.80504 0.0
O354 O 0.0508 0.17741 0.81963 0.0
C355 C 0.04999 0.1953 0.88308 0.0
Fe356 Fe 0.50546 0.31227 0.3214 0.0
Fe357 Fe 0.5075 0.34 0.3796 0.0
O358 O 0.50789 0.34184 0.34169 0.0
Fe359 Fe 0.51032 0.37316 0.32418 0.0
O360 O 0.474 0.36785 0.30565 0.0
O361 O 0.48352 0.32696 0.29192 0.0
O362 O 0.46879 0.30356 0.33701 0.0
C363 C 0.46392 0.30069 0.36333 0.0
C364 C 0.54782 0.33954 0.28979 0.0
O365 O 0.48237 0.31046 0.38157 0.0
C366 C 0.55084 0.38109 0.36812 0.0
O367 O 0.52693 0.292 0.34723 0.0
O368 O 0.54226 0.32004 0.38032 0.0
O369 O 0.53272 0.36078 0.2935 0.0
O370 O 0.54183 0.31899 0.30413 0.0
C371 C 0.46967 0.38256 0.37046 0.0
O372 O 0.53247 0.36913 0.38479 0.0
O373 O 0.54664 0.38104 0.34144 0.0
C374 C 0.54539 0.29841 0.3671 0.0
O375 O 0.47275 0.35977 0.38126 0.0
O376 O 0.48829 0.39103 0.35165 0.0
C377 C 0.46746 0.34782 0.29065 0.0
Fe378 Fe 0.50895 0.65509 0.87167 0.0
Fe379 Fe 0.50549 0.63125 0.81126 0.0
O380 O 0.50547 0.65934 0.83409 0.0
Fe381 Fe 0.502 0.69175 0.81961 0.0
O382 O 0.52618 0.70746 0.84708 0.0
O383 O 0.54459 0.67445 0.87271 0.0
O384 O 0.53238 0.62504 0.86978 0.0
C385 C 0.54881 0.61543 0.85011 0.0
C386 C 0.46609 0.69724 0.86686 0.0
O387 O 0.54299 0.62054 0.82428 0.0
C388 C 0.46135 0.66133 0.78485 0.0
O389 O 0.47359 0.63561 0.87305 0.0
O390 O 0.48482 0.6098 0.8365 0.0
O391 O 0.46698 0.69802 0.83992 0.0
O392 O 0.48599 0.6843 0.88085 0.0
C393 C 0.5411 0.66929 0.78059 0.0
O394 O 0.46819 0.63946 0.79622 0.0
O395 O 0.47718 0.682 0.78962 0.0
C396 C 0.46827 0.61529 0.85797 0.0
O397 O 0.52568 0.64794 0.78197 0.0
O398 O 0.53668 0.68787 0.79821 0.0
C399 C 0.54597 0.69832 0.86443 0.0
H400 H 0.14933 0.31849 0.94019 0.0
H401 H 0.22398 0.26261 0.95465 0.0
H402 H 0.19145 0.22655 0.93604 0.0
H403 H 0.08699 0.27606 0.95743 0.0
H404 H 0.06202 0.28759 0.92922 0.0
H405 H 0.09094 0.30944 0.94393 0.0
H406 H 0.11366 0.31701 0.89339 0.0
H407 H 0.08466 0.29531 0.87847 0.0
H408 H 0.12492 0.28881 0.87219 0.0
H409 H 0.14991 0.19585 0.91941 0.0
H410 H 0.10355 0.17315 0.90052 0.0
H411 H 0.05772 0.24905 0.89128 0.0
C412 C 0.15917 0.29882 0.93906 0.0
C413 C 0.18925 0.29356 0.94959 0.0
C414 C 0.20078 0.26728 0.94777 0.0
C415 C 0.18256 0.24658 0.93692 0.0
C416 C 0.153 0.25242 0.92727 0.0
C417 C 0.14153 0.27794 0.92768 0.0
C418 C 0.1091 0.27879 0.91539 0.0
C419 C 0.0859 0.28854 0.93784 0.0
C420 C 0.10804 0.296 0.88825 0.0
C421 C 0.10405 0.24968 0.90846 0.0
C422 C 0.12961 0.23483 0.9158 0.0
C423 C 0.12994 0.20729 0.91314 0.0
C424 C 0.1035 0.19458 0.90254 0.0
C425 C 0.07733 0.20942 0.89424 0.0
C426 C 0.07768 0.23734 0.89706 0.0
H427 H 0.81998 0.71967 0.40375 0.0
H428 H 0.86746 0.68652 0.47718 0.0
H429 H 0.91371 0.71323 0.46555 0.0
H430 H 0.88713 0.72074 0.35685 0.0
H431 H 0.87634 0.75143 0.33977 0.0
H432 H 0.84701 0.72954 0.35368 0.0
H433 H 0.82541 0.76795 0.3844 0.0
H434 H 0.8547 0.78992 0.37064 0.0
H435 H 0.85074 0.78533 0.40868 0.0
H436 H 0.9531 0.74557 0.44816 0.0
H437 H 0.98537 0.77896 0.42356 0.0
H438 H 0.91412 0.78919 0.35926 0.0
C439 C 0.84021 0.71803 0.41725 0.0
C440 C 0.8403 0.7011 0.44136 0.0
C441 C 0.86713 0.69925 0.4585 0.0
C442 C 0.8934 0.71439 0.45213 0.0
C443 C 0.89257 0.731 0.42832 0.0
C444 C 0.86686 0.73268 0.4109 0.0
C445 C 0.87227 0.75191 0.38641 0.0
C446 C 0.87059 0.73754 0.35746 0.0
C447 C 0.84942 0.77515 0.38762 0.0
C448 C 0.90486 0.76102 0.39306 0.0
C449 C 0.91597 0.74886 0.41748 0.0
C450 C 0.94484 0.755 0.42882 0.0
C451 C 0.96292 0.77405 0.41479 0.0
C452 C 0.95226 0.78643 0.38946 0.0
C453 C 0.92294 0.77969 0.37837 0.0
H454 H 0.84888 0.28112 0.96958 0.0
H455 H 0.82703 0.32674 0.89336 0.0
H456 H 0.86495 0.30102 0.86607 0.0
H457 H 0.93147 0.27637 0.95564 0.0
H458 H 0.93446 0.243 0.96929 0.0
H459 H 0.90563 0.26508 0.98329 0.0
H460 H 0.86307 0.23069 0.97095 0.0
H461 H 0.89174 0.20856 0.95679 0.0
H462 H 0.85964 0.21861 0.9348 0.0
H463 H 0.9033 0.27016 0.8465 0.0
H464 H 0.94241 0.23668 0.83567 0.0
H465 H 0.9419 0.21107 0.92448 0.0
C466 C 0.85233 0.28586 0.94723 0.0
C467 C 0.83465 0.30577 0.93354 0.0
C468 C 0.83975 0.31123 0.9042 0.0
C469 C 0.86139 0.29685 0.88852 0.0
C470 C 0.87803 0.27716 0.90249 0.0
C471 C 0.87403 0.27169 0.93118 0.0
C472 C 0.89509 0.24932 0.94073 0.0
C473 C 0.91802 0.25903 0.96359 0.0
C474 C 0.87625 0.22538 0.95145 0.0
C475 C 0.91133 0.24307 0.91283 0.0
C476 C 0.90095 0.2594 0.89114 0.0
C477 C 0.91179 0.25733 0.86331 0.0
C478 C 0.93402 0.23813 0.8574 0.0
C479 C 0.94543 0.2212 0.87923 0.0
C480 C 0.93382 0.22376 0.90736 0.0
H481 H 0.16111 0.69168 0.40666 0.0
H482 H 0.20823 0.74287 0.46724 0.0
H483 H 0.1764 0.78074 0.45151 0.0
H484 H 0.15006 0.74145 0.34996 0.0
H485 H 0.112 0.72967 0.34078 0.0
H486 H 0.14021 0.70694 0.35489 0.0
H487 H 0.10244 0.6935 0.39528 0.0
H488 H 0.07415 0.71616 0.3813 0.0
H489 H 0.0865 0.71885 0.418 0.0
H490 H 0.13893 0.81231 0.43101 0.0
H491 H 0.09569 0.83594 0.40871 0.0
H492 H 0.07041 0.76444 0.3621 0.0
C493 C 0.16488 0.711 0.41622 0.0
C494 C 0.18714 0.71458 0.438 0.0
C495 C 0.19123 0.7399 0.45051 0.0
C496 C 0.17339 0.76147 0.44164 0.0
C497 C 0.15139 0.75734 0.42036 0.0
C498 C 0.14686 0.73277 0.40786 0.0
C499 C 0.12018 0.73355 0.38678 0.0
C500 C 0.13128 0.72755 0.35629 0.0
C501 C 0.09429 0.71438 0.3959 0.0
C502 C 0.11028 0.76229 0.3897 0.0
C503 C 0.12893 0.77563 0.40895 0.0
C504 C 0.12419 0.80214 0.41584 0.0
C505 C 0.09945 0.81537 0.40304 0.0
C506 C 0.07946 0.80208 0.38368 0.0
C507 C 0.08528 0.77522 0.3767 0.0
H508 H 0.69991 0.76093 0.9326 0.0
H509 H 0.64468 0.83045 0.95183 0.0
H510 H 0.59901 0.80824 0.9318 0.0
H511 H 0.66372 0.74382 0.86701 0.0
H512 H 0.66448 0.70845 0.87289 0.0
H513 H 0.69332 0.7294 0.88918 0.0
H514 H 0.67892 0.71089 0.9391 0.0
H515 H 0.65011 0.68978 0.92293 0.0
H516 H 0.63945 0.71245 0.95098 0.0
H517 H 0.56027 0.78052 0.90725 0.0
H518 H 0.52898 0.747 0.88212 0.0
H519 H 0.60691 0.69322 0.88154 0.0
C520 C 0.67815 0.77137 0.93298 0.0
C521 C 0.6762 0.79774 0.94341 0.0
C522 C 0.64717 0.81062 0.94326 0.0
C523 C 0.62094 0.79807 0.93217 0.0
C524 C 0.62379 0.77238 0.92167 0.0
C525 C 0.65147 0.75895 0.92226 0.0
C526 C 0.64788 0.73137 0.90947 0.0
C527 C 0.66858 0.72808 0.88307 0.0
C528 C 0.65448 0.70985 0.93197 0.0
C529 C 0.61398 0.73168 0.90121 0.0
C530 C 0.60073 0.75567 0.90841 0.0
C531 C 0.57024 0.76154 0.90179 0.0
C532 C 0.55272 0.74242 0.88737 0.0
C533 C 0.56554 0.71755 0.87998 0.0
C534 C 0.59651 0.71198 0.88726 0.0
H535 H 0.35309 0.22568 0.47426 0.0
H536 H 0.31539 0.18311 0.4015 0.0
H537 H 0.34854 0.20925 0.36903 0.0
H538 H 0.36149 0.29012 0.43928 0.0
H539 H 0.39757 0.29772 0.45672 0.0
H540 H 0.36961 0.27678 0.47427 0.0
H541 H 0.41067 0.23989 0.47981 0.0
H542 H 0.43872 0.26071 0.4623 0.0
H543 H 0.43059 0.22799 0.44858 0.0
H544 H 0.38568 0.23924 0.34462 0.0
H545 H 0.42698 0.26977 0.32952 0.0
H546 H 0.44262 0.29215 0.4181 0.0
C547 C 0.35169 0.22214 0.45146 0.0
C548 C 0.33175 0.20247 0.44026 0.0
C549 C 0.33071 0.19801 0.41041 0.0
C550 C 0.3493 0.21283 0.39183 0.0
C551 C 0.36892 0.23192 0.40349 0.0
C552 C 0.37044 0.23655 0.43259 0.0
C553 C 0.39468 0.25738 0.43952 0.0
C554 C 0.37995 0.28196 0.45326 0.0
C555 C 0.42018 0.24579 0.45868 0.0
C556 C 0.40662 0.26354 0.40979 0.0
C557 C 0.39115 0.24881 0.38936 0.0
C558 C 0.398 0.25089 0.3604 0.0
C559 C 0.42153 0.26833 0.35205 0.0
C560 C 0.43821 0.2833 0.37262 0.0
C561 C 0.43042 0.28093 0.40187 0.0
H562 H 0.31174 0.77448 0.90873 0.0
H563 H 0.36415 0.80904 0.97887 0.0
H564 H 0.41025 0.78509 0.963 0.0
H565 H 0.3468 0.71109 0.90895 0.0
H566 H 0.34775 0.70762 0.87062 0.0
H567 H 0.31845 0.72763 0.88711 0.0
H568 H 0.33494 0.76789 0.85613 0.0
H569 H 0.36421 0.74796 0.83943 0.0
H570 H 0.37461 0.77875 0.85659 0.0
H571 H 0.4496 0.75568 0.94195 0.0
H572 H 0.48165 0.72469 0.91439 0.0
H573 H 0.406 0.71158 0.85506 0.0
C574 C 0.33298 0.77736 0.92054 0.0
C575 C 0.334 0.79341 0.94541 0.0
C576 C 0.36235 0.79634 0.96028 0.0
C577 C 0.38883 0.783 0.95128 0.0
C578 C 0.38686 0.76711 0.92705 0.0
C579 C 0.35986 0.76447 0.9116 0.0
C580 C 0.36428 0.74613 0.88619 0.0
C581 C 0.34306 0.72167 0.88836 0.0
C582 C 0.35921 0.76108 0.85791 0.0
C583 C 0.39786 0.73862 0.89011 0.0
C584 C 0.41027 0.75089 0.91396 0.0
C585 C 0.4403 0.74618 0.92305 0.0
C586 C 0.45824 0.72844 0.90735 0.0
C587 C 0.44627 0.71586 0.88261 0.0
C588 C 0.41576 0.7212 0.87372 0.0
H589 H 0.68315 0.23944 0.46251 0.0
H590 H 0.68564 0.17348 0.40291 0.0
H591 H 0.64304 0.19342 0.37544 0.0
H592 H 0.60016 0.24743 0.46253 0.0
H593 H 0.60178 0.28315 0.46426 0.0
H594 H 0.63244 0.26369 0.47956 0.0
H595 H 0.67224 0.2891 0.44852 0.0
H596 H 0.64169 0.30859 0.43309 0.0
H597 H 0.66723 0.29013 0.41026 0.0
H598 H 0.60048 0.21996 0.35448 0.0
H599 H 0.56051 0.25203 0.34063 0.0
H600 H 0.58515 0.30148 0.41334 0.0
C601 C 0.67456 0.22915 0.44377 0.0
C602 C 0.68783 0.20496 0.43474 0.0
C603 C 0.67615 0.19221 0.40998 0.0
C604 C 0.65184 0.20329 0.39432 0.0
C605 C 0.63944 0.22719 0.40365 0.0
C606 C 0.65034 0.24005 0.42773 0.0
C607 C 0.633 0.26573 0.43277 0.0
C608 C 0.61582 0.26494 0.46148 0.0
C609 C 0.65485 0.28981 0.43105 0.0
C610 C 0.61068 0.26521 0.40775 0.0
C611 C 0.6148 0.24273 0.39133 0.0
C612 C 0.59699 0.23765 0.36716 0.0
C613 C 0.57429 0.25602 0.3595 0.0
C614 C 0.56956 0.2793 0.3759 0.0
C615 C 0.58814 0.2839 0.40034 0.0
H616 H 0.37321 0.52125 0.96335 0.0
H617 H 0.33254 0.48511 0.88792 0.0
H618 H 0.35918 0.51806 0.85748 0.0
H619 H 0.37012 0.59016 0.93758 0.0
H620 H 0.40653 0.59889 0.95378 0.0
H621 H 0.38256 0.57364 0.96979 0.0
H622 H 0.42794 0.54039 0.96756 0.0
H623 H 0.452 0.56549 0.95153 0.0
H624 H 0.44642 0.5341 0.93377 0.0
H625 H 0.3941 0.55171 0.83511 0.0
H626 H 0.43284 0.58572 0.82223 0.0
H627 H 0.44944 0.60151 0.91212 0.0
C628 C 0.36973 0.52043 0.94044 0.0
C629 C 0.35076 0.50065 0.92797 0.0
C630 C 0.34665 0.50028 0.89793 0.0
C631 C 0.36177 0.51884 0.88048 0.0
C632 C 0.38064 0.53782 0.89342 0.0
C633 C 0.38442 0.53896 0.92273 0.0
C634 C 0.40673 0.56088 0.93114 0.0
C635 C 0.39051 0.58215 0.94913 0.0
C636 C 0.43494 0.54953 0.94693 0.0
C637 C 0.41544 0.57151 0.90194 0.0
C638 C 0.40012 0.55788 0.88049 0.0
C639 C 0.40586 0.5628 0.8517 0.0
C640 C 0.42796 0.58206 0.84461 0.0
C641 C 0.44383 0.59634 0.86619 0.0
C642 C 0.43716 0.59123 0.89522 0.0
H643 H 0.6294 0.52068 0.40054 0.0
H644 H 0.6794 0.48243 0.46948 0.0
H645 H 0.65782 0.43895 0.45484 0.0
H646 H 0.56132 0.48263 0.40549 0.0
H647 H 0.55456 0.48091 0.3675 0.0
H648 H 0.57537 0.50864 0.38237 0.0
H649 H 0.62126 0.49913 0.34853 0.0
H650 H 0.60055 0.47132 0.33354 0.0
H651 H 0.63851 0.46663 0.34845 0.0
H652 H 0.62616 0.40075 0.43613 0.0
H653 H 0.58974 0.36989 0.41216 0.0
H654 H 0.56351 0.43228 0.35319 0.0
C655 C 0.63599 0.50308 0.41234 0.0
C656 C 0.65603 0.5048 0.43612 0.0
C657 C 0.66428 0.48141 0.45104 0.0
C658 C 0.65209 0.4567 0.44293 0.0
C659 C 0.6321 0.45569 0.41957 0.0
C660 C 0.62444 0.4782 0.40423 0.0
C661 C 0.60201 0.47178 0.38032 0.0
C662 C 0.57151 0.48688 0.38417 0.0
C663 C 0.61646 0.47755 0.35097 0.0
C664 C 0.59769 0.44226 0.38501 0.0
C665 C 0.61513 0.43337 0.40785 0.0
C666 C 0.61292 0.40733 0.41782 0.0
C667 C 0.59222 0.38998 0.40417 0.0
C668 C 0.57448 0.39866 0.38056 0.0
C669 C 0.57757 0.42501 0.37067 0.0
H670 H 0.62381 0.50618 0.95106 0.0
H671 H 0.67978 0.48127 0.87916 0.0
H672 H 0.65733 0.51707 0.8497 0.0
H673 H 0.55681 0.52253 0.91165 0.0
H674 H 0.54739 0.55096 0.93324 0.0
H675 H 0.56844 0.52375 0.94865 0.0
H676 H 0.61204 0.55613 0.96408 0.0
H677 H 0.5911 0.58346 0.94868 0.0
H678 H 0.63015 0.57705 0.93764 0.0
H679 H 0.62694 0.55495 0.82753 0.0
H680 H 0.59143 0.59156 0.81494 0.0
H681 H 0.55762 0.59217 0.90225 0.0
C682 C 0.63177 0.50844 0.92927 0.0
C683 C 0.65358 0.49082 0.91748 0.0
C684 C 0.66279 0.49425 0.88862 0.0
C685 C 0.65035 0.51467 0.87175 0.0
C686 C 0.62885 0.53162 0.88408 0.0
C687 C 0.61975 0.52875 0.91222 0.0
C688 C 0.59589 0.5492 0.92029 0.0
C689 C 0.56533 0.5358 0.92895 0.0
C690 C 0.60803 0.56755 0.94408 0.0
C691 C 0.59276 0.5639 0.89223 0.0
C692 C 0.61192 0.55354 0.87155 0.0
C693 C 0.61202 0.56336 0.84364 0.0
C694 C 0.59179 0.58414 0.83668 0.0
C695 C 0.57183 0.59488 0.8576 0.0
C696 C 0.57276 0.58469 0.88577 0.0
H697 H 0.39156 0.5217 0.40624 0.0
H698 H 0.32004 0.47794 0.45102 0.0
H699 H 0.3439 0.43571 0.43613 0.0
H700 H 0.39919 0.47556 0.34622 0.0
H701 H 0.44038 0.48001 0.34407 0.0
H702 H 0.41647 0.50669 0.3567 0.0
H703 H 0.44881 0.5091 0.40332 0.0
H704 H 0.47268 0.48237 0.3909 0.0
H705 H 0.45335 0.47967 0.42485 0.0
H706 H 0.378 0.3984 0.41981 0.0
H707 H 0.41807 0.36864 0.40064 0.0
H708 H 0.46674 0.43679 0.3657 0.0
C709 C 0.38079 0.50322 0.41272 0.0
C710 C 0.35389 0.50309 0.42974 0.0
C711 C 0.34039 0.4785 0.43766 0.0
C712 C 0.35388 0.45443 0.42945 0.0
C713 C 0.38069 0.45528 0.41311 0.0
C714 C 0.39383 0.47904 0.40456 0.0
C715 C 0.42305 0.47449 0.38761 0.0
C716 C 0.41955 0.4848 0.35682 0.0
C717 C 0.45112 0.48716 0.40257 0.0
C718 C 0.42461 0.44449 0.3884 0.0
C719 C 0.39999 0.43378 0.40323 0.0
C720 C 0.39719 0.40654 0.40788 0.0
C721 C 0.42014 0.38981 0.39702 0.0
C722 C 0.44545 0.40037 0.38157 0.0
C723 C 0.4475 0.42808 0.37713 0.0
H724 H 0.88734 0.00525 0.97076 0.0
H725 H 0.83197 0.98514 0.89639 0.0
H726 H 0.85169 0.0249 0.87146 0.0
H727 H 0.87958 0.07779 0.96463 0.0
H728 H 0.91877 0.08395 0.9758 0.0
H729 H 0.89839 0.05513 0.98883 0.0
H730 H 0.94193 0.02474 0.97001 0.0
H731 H 0.96249 0.05344 0.95714 0.0
H732 H 0.95301 0.02678 0.93295 0.0
H733 H 0.88151 0.0636 0.85268 0.0
H734 H 0.91909 0.09925 0.84167 0.0
H735 H 0.95369 0.09585 0.92851 0.0
C736 C 0.87922 0.00931 0.94929 0.0
C737 C 0.85797 0.99212 0.93557 0.0
C738 C 0.84785 0.99821 0.9075 0.0
C739 C 0.85897 0.02072 0.89314 0.0
C740 C 0.88 0.03715 0.90721 0.0
C741 C 0.88993 0.03184 0.9347 0.0
C742 C 0.91381 0.05201 0.94442 0.0
C743 C 0.90191 0.06818 0.96993 0.0
C744 C 0.94463 0.03843 0.95153 0.0
C745 C 0.91635 0.06907 0.9178 0.0
C746 C 0.89652 0.06018 0.89663 0.0
C747 C 0.8966 0.07116 0.86927 0.0
C748 C 0.91789 0.09139 0.86321 0.0
C749 C 0.93842 0.10067 0.88452 0.0
C750 C 0.93732 0.08971 0.91226 0.0
H751 H 0.12044 0.00454 0.46692 0.0
H752 H 0.17856 0.02758 0.39559 0.0
H753 H 0.15409 0.99294 0.36572 0.0
H754 H 0.12097 0.93425 0.45326 0.0
H755 H 0.08128 0.92947 0.46348 0.0
H756 H 0.10363 0.95586 0.47932 0.0
H757 H 0.0627 0.99009 0.46296 0.0
H758 H 0.0402 0.96378 0.44715 0.0
H759 H 0.052 0.99178 0.42573 0.0
H760 H 0.12207 0.95673 0.34321 0.0
H761 H 0.08556 0.92094 0.33005 0.0
H762 H 0.049 0.92139 0.41639 0.0
C763 C 0.12792 1.00238 0.44497 0.0
C764 C 0.15143 0.01873 0.43357 0.0
C765 C 0.16084 0.01506 0.40486 0.0
C766 C 0.14699 0.99554 0.38769 0.0
C767 C 0.12385 0.9798 0.3996 0.0
C768 C 0.11444 0.98296 0.4276 0.0
C769 C 0.08903 0.96351 0.4352 0.0
C770 C 0.09936 0.94466 0.45924 0.0
C771 C 0.05922 0.97817 0.44323 0.0
C772 C 0.08556 0.94899 0.40708 0.0
C773 C 0.10577 0.95872 0.38678 0.0
C774 C 0.10624 0.94886 0.35896 0.0
C775 C 0.0854 0.92857 0.35168 0.0
C776 C 0.06452 0.9183 0.37221 0.0
C777 C 0.06485 0.92862 0.40028 0.0
H778 H 0.12645 0.97403 0.9027 0.0
H779 H 0.16927 0.00723 0.97856 0.0
H780 H 0.14648 0.051 0.96742 0.0
H781 H 0.13673 0.03363 0.85767 0.0
H782 H 0.10036 0.02883 0.83963 0.0
H783 H 0.12147 1.00059 0.85281 0.0
H784 H 0.07363 0.98563 0.88191 0.0
H785 H 0.05246 0.01383 0.86892 0.0
H786 H 0.05637 0.0084 0.90684 0.0
H787 H 0.11424 0.08944 0.951 0.0
H788 H 0.07872 0.12129 0.9278 0.0
H789 H 0.06014 0.06412 0.86065 0.0
C790 C 0.13128 0.99066 0.91669 0.0
C791 C 0.14958 0.98743 0.94144 0.0
C792 C 0.15552 0.0095 0.95935 0.0
C793 C 0.14261 0.03434 0.95325 0.0
C794 C 0.1243 0.03682 0.92888 0.0
C795 C 0.11907 0.0157 0.91061 0.0
C796 C 0.0982 0.02358 0.88605 0.0
C797 C 0.11522 0.02154 0.85734 0.0
C798 C 0.0684 0.00687 0.88595 0.0
C799 C 0.09184 0.05221 0.89378 0.0
C800 C 0.10699 0.05943 0.91864 0.0
C801 C 0.10276 0.08422 0.93122 0.0
C802 C 0.0825 0.10209 0.91802 0.0
C803 C 0.06718 0.09518 0.89234 0.0
C804 C 0.07218 0.07005 0.87994 0.0
H805 H 0.89531 0.02885 0.42201 0.0
H806 H 0.82879 0.98654 0.47427 0.0
H807 H 0.84888 0.94377 0.45631 0.0
H808 H 0.89193 0.98434 0.36114 0.0
H809 H 0.93256 0.9874 0.35368 0.0
H810 H 0.91227 0.0145 0.37011 0.0
H811 H 0.95134 0.01441 0.41218 0.0
H812 H 0.97174 0.98735 0.39587 0.0
H813 H 0.95768 0.98416 0.43194 0.0
H814 H 0.87903 0.90555 0.43499 0.0
H815 H 0.91487 0.87522 0.41005 0.0
H816 H 0.95974 0.94303 0.37047 0.0
C817 C 0.88496 0.01057 0.42964 0.0
C818 C 0.86055 0.01095 0.44955 0.0
C819 C 0.84735 0.98665 0.45882 0.0
C820 C 0.85868 0.9623 0.44883 0.0
C821 C 0.88297 0.96263 0.42936 0.0
C822 C 0.89575 0.98617 0.41968 0.0
C823 C 0.92177 0.98119 0.39892 0.0
C824 C 0.91416 0.99253 0.3692 0.0
C825 C 0.95244 0.99244 0.41042 0.0
C826 C 0.9219 0.95117 0.39863 0.0
C827 C 0.89949 0.94077 0.41641 0.0
C828 C 0.8964 0.91347 0.42072 0.0
C829 C 0.91684 0.89641 0.40654 0.0
C830 C 0.93979 0.90675 0.38808 0.0
C831 C 0.94204 0.93448 0.38399 0.0
H832 H 0.37033 0.40794 0.16131 0.0
H833 H 0.32392 0.33166 0.15548 0.0
H834 H 0.35104 0.31666 0.19905 0.0
H835 H 0.44237 0.38396 0.18265 0.0
H836 H 0.45096 0.41062 0.2071 0.0
H837 H 0.42579 0.41632 0.1771 0.0
H838 H 0.38303 0.4328 0.21129 0.0
H839 H 0.40815 0.42725 0.24145 0.0
H840 H 0.37057 0.41184 0.24036 0.0
H841 H 0.3877 0.30809 0.23927 0.0
H842 H 0.42869 0.30766 0.27608 0.0
H843 H 0.44961 0.39018 0.25767 0.0
C844 C 0.36558 0.38822 0.16948 0.0
C845 C 0.34495 0.37097 0.15512 0.0
C846 C 0.3393 0.34531 0.1664 0.0
C847 C 0.35469 0.33659 0.19104 0.0
C848 C 0.37533 0.3539 0.20437 0.0
C849 C 0.38048 0.37932 0.19426 0.0
C850 C 0.40467 0.39361 0.21202 0.0
C851 C 0.43259 0.40158 0.19361 0.0
C852 C 0.39076 0.41781 0.22718 0.0
C853 C 0.41294 0.37199 0.23319 0.0
C854 C 0.39575 0.34924 0.22835 0.0
C855 C 0.40088 0.32592 0.24364 0.0
C856 C 0.42427 0.32582 0.26436 0.0
C857 C 0.44195 0.34895 0.26982 0.0
C858 C 0.43593 0.37241 0.25429 0.0
H859 H 0.61118 0.63408 0.62826 0.0
H860 H 0.66597 0.7062 0.63319 0.0
H861 H 0.64403 0.7156 0.68092 0.0
H862 H 0.54322 0.65994 0.66202 0.0
H863 H 0.5347 0.62938 0.6805 0.0
H864 H 0.55483 0.62865 0.64689 0.0
H865 H 0.59934 0.6023 0.67061 0.0
H866 H 0.57941 0.60307 0.70432 0.0
H867 H 0.61827 0.61569 0.70181 0.0
H868 H 0.61492 0.71722 0.72824 0.0
H869 H 0.58182 0.71057 0.77079 0.0
H870 H 0.54726 0.63707 0.73406 0.0
C871 C 0.61834 0.65201 0.63921 0.0
C872 C 0.64018 0.66947 0.62694 0.0
C873 C 0.6494 0.69245 0.64228 0.0
C874 C 0.63699 0.698 0.66933 0.0
C875 C 0.61551 0.6803 0.68081 0.0
C876 C 0.60633 0.65776 0.66619 0.0
C877 C 0.58315 0.64176 0.68316 0.0
C878 C 0.55215 0.63983 0.66719 0.0
C879 C 0.59581 0.61407 0.6904 0.0
C880 C 0.58058 0.65883 0.70959 0.0
C881 C 0.59932 0.68102 0.70793 0.0
C882 C 0.60024 0.69985 0.72979 0.0
C883 C 0.58137 0.69592 0.75387 0.0
C884 C 0.562 0.67327 0.75589 0.0
C885 C 0.56191 0.65452 0.73341 0.0
H886 H 0.65159 0.39004 0.15941 0.0
H887 H 0.64556 0.30918 0.12689 0.0
H888 H 0.61941 0.29545 0.17072 0.0
H889 H 0.65939 0.37518 0.2346 0.0
H890 H 0.63401 0.40142 0.24578 0.0
H891 H 0.65594 0.40487 0.2133 0.0
H892 H 0.60563 0.41331 0.18476 0.0
H893 H 0.5836 0.41007 0.21716 0.0
H894 H 0.57458 0.38947 0.18676 0.0
H895 H 0.59349 0.28994 0.21757 0.0
H896 H 0.56318 0.29421 0.26171 0.0
H897 H 0.57926 0.37937 0.26148 0.0
C898 C 0.64477 0.36944 0.16116 0.0
C899 C 0.65174 0.35073 0.13945 0.0
C900 C 0.64209 0.32395 0.14331 0.0
C901 C 0.6268 0.31586 0.16817 0.0
C902 C 0.62048 0.33479 0.18891 0.0
C903 C 0.62857 0.36111 0.1855 0.0
C904 C 0.61641 0.37782 0.20997 0.0
C905 C 0.64303 0.39057 0.22691 0.0
C906 C 0.5937 0.39891 0.199 0.0
C907 C 0.60007 0.3567 0.22751 0.0
C908 C 0.60335 0.33196 0.2152 0.0
C909 C 0.59065 0.30922 0.22739 0.0
C910 C 0.57357 0.31186 0.25256 0.0
C911 C 0.56878 0.33714 0.26502 0.0
C912 C 0.58247 0.35982 0.2524 0.0
H913 H 0.37923 0.61343 0.64166 0.0
H914 H 0.33291 0.68955 0.63912 0.0
H915 H 0.35559 0.70105 0.68609 0.0
H916 H 0.37079 0.60234 0.71852 0.0
H917 H 0.40818 0.58716 0.722 0.0
H918 H 0.38711 0.58443 0.68887 0.0
H919 H 0.43357 0.60458 0.66147 0.0
H920 H 0.45478 0.60726 0.69446 0.0
H921 H 0.44906 0.63624 0.67249 0.0
H922 H 0.38715 0.70583 0.731 0.0
H923 H 0.42343 0.70263 0.77178 0.0
H924 H 0.44686 0.62248 0.74633 0.0
C925 C 0.37377 0.63246 0.65109 0.0
C926 C 0.35433 0.65063 0.63682 0.0
C927 C 0.34752 0.67527 0.64987 0.0
C928 C 0.36034 0.68198 0.67647 0.0
C929 C 0.3796 0.66369 0.68988 0.0
C930 C 0.38607 0.63934 0.67776 0.0
C931 C 0.408 0.62349 0.69629 0.0
C932 C 0.39259 0.59784 0.70706 0.0
C933 C 0.43813 0.61756 0.68022 0.0
C934 C 0.41332 0.64293 0.72048 0.0
C935 C 0.3968 0.66604 0.71635 0.0
C936 C 0.39977 0.68766 0.73474 0.0
C937 C 0.42041 0.6857 0.75777 0.0
C938 C 0.43747 0.66219 0.76238 0.0
C939 C 0.43347 0.64043 0.74371 0.0
H940 H 0.89568 0.82683 0.13986 0.0
H941 H 0.81592 0.8728 0.16535 0.0
H942 H 0.8345 0.87267 0.21523 0.0
H943 H 0.90141 0.78663 0.2056 0.0
H944 H 0.94298 0.78728 0.20546 0.0
H945 H 0.92196 0.78877 0.17221 0.0
H946 H 0.95059 0.83233 0.15899 0.0
H947 H 0.97161 0.831 0.19216 0.0
H948 H 0.94944 0.86006 0.18331 0.0
H949 H 0.86445 0.87206 0.26094 0.0
H950 H 0.90305 0.86954 0.29983 0.0
H951 H 0.96261 0.82277 0.24536 0.0
C952 C 0.88197 0.83664 0.15599 0.0
C953 C 0.85422 0.84969 0.1487 0.0
C954 C 0.83695 0.86227 0.17047 0.0
C955 C 0.84738 0.8624 0.19886 0.0
C956 C 0.875 0.84966 0.20523 0.0
C957 C 0.89197 0.83682 0.18448 0.0
C958 C 0.92164 0.82576 0.19677 0.0
C959 C 0.922 0.7953 0.1949 0.0
C960 C 0.94998 0.83803 0.18193 0.0
C961 C 0.91906 0.83499 0.22748 0.0
C962 C 0.89193 0.84868 0.23192 0.0
C963 C 0.88549 0.86095 0.25791 0.0
C964 C 0.90753 0.85946 0.27983 0.0
C965 C 0.93549 0.84562 0.27569 0.0
C966 C 0.94103 0.83286 0.24933 0.0
H967 H 0.13133 0.11679 0.6567 0.0
H968 H 0.19652 0.18142 0.66897 0.0
H969 H 0.17466 0.18973 0.71691 0.0
H970 H 0.06761 0.14854 0.68858 0.0
H971 H 0.05235 0.11873 0.70463 0.0
H972 H 0.07476 0.1167 0.67239 0.0
H973 H 0.11214 0.08384 0.69722 0.0
H974 H 0.08985 0.08584 0.7296 0.0
H975 H 0.13055 0.09324 0.73032 0.0
H976 H 0.14297 0.193 0.76203 0.0
H977 H 0.1044 0.19071 0.80079 0.0
H978 H 0.06032 0.1238 0.75858 0.0
C979 C 0.14108 0.13268 0.66946 0.0
C980 C 0.16564 0.14847 0.65908 0.0
C981 C 0.17795 0.16886 0.67662 0.0
C982 C 0.16562 0.17379 0.70382 0.0
C983 C 0.14114 0.15803 0.71321 0.0
C984 C 0.1291 0.13782 0.69658 0.0
C985 C 0.10204 0.12441 0.71107 0.0
C986 C 0.07245 0.12728 0.6931 0.0
C987 C 0.10908 0.0951 0.71743 0.0
C988 C 0.10035 0.14051 0.73828 0.0
C989 C 0.12316 0.15974 0.73921 0.0
C990 C 0.12522 0.17784 0.76166 0.0
C991 C 0.10318 0.1764 0.78355 0.0
C992 C 0.07942 0.157 0.7828 0.0
C993 C 0.0784 0.13864 0.76001 0.0
H994 H 0.10791 0.81984 0.13703 0.0
H995 H 0.17573 0.88158 0.15329 0.0
H996 H 0.15546 0.88705 0.20222 0.0
H997 H 0.04588 0.84909 0.17483 0.0
H998 H 0.0313 0.81825 0.18908 0.0
H999 H 0.05192 0.81848 0.15573 0.0
H1000 H 0.09029 0.78386 0.17605 0.0
H1001 H 0.06973 0.78364 0.20949 0.0
H1002 H 0.11048 0.79084 0.20895 0.0
H1003 H 0.12499 0.8887 0.24749 0.0
H1004 H 0.08837 0.88397 0.28782 0.0
H1005 H 0.0424 0.81936 0.24372 0.0
C1006 C 0.11857 0.83435 0.15103 0.0
C1007 C 0.14344 0.85024 0.14151 0.0
C1008 C 0.15691 0.86899 0.16035 0.0
C1009 C 0.14548 0.87231 0.1881 0.0
C1010 C 0.12082 0.85648 0.19679 0.0
C1011 C 0.10772 0.83764 0.17898 0.0
C1012 C 0.08128 0.82335 0.19362 0.0
C1013 C 0.0508 0.82756 0.17734 0.0
C1014 C 0.08838 0.79366 0.19724 0.0
C1015 C 0.08116 0.8375 0.22218 0.0
C1016 C 0.10409 0.85662 0.2235 0.0
C1017 C 0.10732 0.87347 0.24696 0.0
C1018 C 0.08652 0.87071 0.26967 0.0
C1019 C 0.06326 0.85102 0.26883 0.0
C1020 C 0.06061 0.83411 0.24495 0.0
H1021 H 0.90777 0.18146 0.6413 0.0
H1022 H 0.82596 0.13799 0.6677 0.0
H1023 H 0.84615 0.1358 0.71693 0.0
H1024 H 0.96077 0.14488 0.6824 0.0
H1025 H 0.98497 0.17279 0.69157 0.0
H1026 H 0.96297 0.17321 0.65889 0.0
H1027 H 0.93745 0.21741 0.67409 0.0
H1028 H 0.95948 0.21717 0.70681 0.0
H1029 H 0.91802 0.21937 0.70805 0.0
H1030 H 0.87727 0.13396 0.76168 0.0
H1031 H 0.91631 0.13496 0.80017 0.0
H1032 H 0.97755 0.18077 0.74576 0.0
C1033 C 0.89396 0.17175 0.65753 0.0
C1034 C 0.86515 0.16006 0.65066 0.0
C1035 C 0.84779 0.14753 0.67251 0.0
C1036 C 0.85915 0.14604 0.70053 0.0
C1037 C 0.8878 0.15737 0.70645 0.0
C1038 C 0.90488 0.17022 0.68569 0.0
C1039 C 0.93555 0.1798 0.69756 0.0
C1040 C 0.96266 0.16689 0.68166 0.0
C1041 C 0.93774 0.21025 0.69657 0.0
C1042 C 0.93329 0.16979 0.72805 0.0
C1043 C 0.90554 0.15689 0.73267 0.0
C1044 C 0.89887 0.14437 0.75849 0.0
C1045 C 0.92121 0.14494 0.78016 0.0
C1046 C 0.94974 0.15814 0.77597 0.0
C1047 C 0.95567 0.17099 0.74969 0.0
loop_
_geom_bond_atom_site_label_1
_geom_bond_atom_site_label_2
_geom_bond_distance
_geom_bond_site_symmetry_2
_ccdc_geom_bond_type
C0 C1 1.386 . S
C0 C2 1.397 . S
C0 H24 0.931 . S
C1 C0 1.386 . S
C1 C5 1.397 . S
C2 C0 1.397 . S
C2 C3 1.384 . S
C2 H25 0.930 . S
C3 C2 1.384 . S
C3 C4 1.377 . S
C3 C6 1.481 . S
C4 C3 1.377 . S
C4 C5 1.389 . S
C4 H26 0.929 . S
C5 C1 1.397 . S
C5 C4 1.389 . S
C5 H27 0.931 . S
C6 C3 1.481 . S
C6 C7 1.387 . S
C6 C11 1.390 1_556 S
C7 C6 1.387 . S
C7 C8 1.421 . S
C7 H28 0.930 . S
C8 C7 1.421 . S
C8 C9 1.340 1_556 S
C8 C17 1.526 . S
C9 C8 1.340 1_554 S
C9 C10 1.392 . S
C9 H30 0.931 . S
C10 C9 1.392 . S
C10 C11 1.361 . S
C10 C12 1.500 . S
C11 C6 1.390 1_554 S
C11 C10 1.361 . S
C11 H29 0.931 . S
C12 C10 1.500 . S
C12 C13 1.371 . S
C12 C14 1.365 . S
C13 C12 1.371 . S
C13 C23 1.386 . S
C13 H31 0.931 . S
C14 C12 1.365 . S
C14 C15 1.409 . S
C14 H32 0.929 . S
C15 C14 1.409 . S
C15 C16 1.380 . S
C15 H33 0.930 . S
C16 C15 1.380 . S
C16 C23 1.357 . S
C17 C8 1.526 . S
C17 C18 1.341 . S
C17 C19 1.371 . S
C18 C17 1.341 . S
C18 C22 1.394 . S
C18 H34 0.930 . S
C19 C17 1.371 . S
C19 C20 1.392 . S
C19 H35 0.931 1_556 S
C20 C19 1.392 . S
C20 C21 1.331 . S
C20 H38 0.932 . S
C21 C20 1.331 . S
C21 C22 1.336 . S
C22 C18 1.394 . S
C22 C21 1.336 . S
C22 H37 0.929 . S
C23 C13 1.386 . S
C23 C16 1.357 . S
C23 H36 0.928 . S
H24 C0 0.931 . S
H25 C2 0.930 . S
H26 C4 0.929 . S
H27 C5 0.931 . S
H28 C7 0.930 . S
H29 C11 0.931 . S
H30 C9 0.931 . S
H31 C13 0.931 . S
H32 C14 0.929 . S
H33 C15 0.930 . S
H34 C18 0.930 . S
H35 C19 0.931 1_554 S
H36 C23 0.928 . S
H37 C22 0.929 . S
H38 C20 0.932 . S
C39 C40 1.386 . S
C39 C41 1.397 . S
C39 H63 0.931 . S
C40 C39 1.386 . S
C40 C44 1.397 . S
C41 C39 1.397 . S
C41 C42 1.384 . S
C41 H64 0.930 . S
C42 C41 1.384 . S
C42 C43 1.377 . S
C42 C45 1.481 . S
C43 C42 1.377 . S
C43 C44 1.389 . S
C43 H65 0.929 . S
C44 C40 1.397 . S
C44 C43 1.389 . S
C44 H66 0.931 . S
C45 C42 1.481 . S
C45 C46 1.387 . S
C45 C50 1.390 . S
C46 C45 1.387 . S
C46 C47 1.401 . S
C46 H67 0.930 . S
C47 C46 1.401 . S
C47 C48 1.376 . S
C47 C56 1.511 . S
C48 C47 1.376 . S
C48 C49 1.392 . S
C48 H69 0.931 . S
C49 C48 1.392 . S
C49 C50 1.361 . S
C49 C51 1.500 . S
C50 C45 1.390 . S
C50 C49 1.361 . S
C50 H68 0.931 . S
C51 C49 1.500 . S
C51 C52 1.371 . S
C51 C53 1.365 . S
C52 C51 1.371 . S
C52 C62 1.386 . S
C52 H70 0.931 . S
C53 C51 1.365 . S
C53 C54 1.409 . S
C53 H71 0.929 . S
C54 C53 1.409 . S
C54 C55 1.380 . S
C54 H72 0.930 . S
C55 C54 1.380 . S
C55 C62 1.357 . S
C56 C47 1.511 . S
C56 C57 1.341 . S
C56 C58 1.371 . S
C57 C56 1.341 . S
C57 C61 1.394 . S
C57 H73 0.930 . S
C58 C56 1.371 . S
C58 C59 1.392 . S
C58 H74 0.931 . S
C59 C58 1.392 . S
C59 C60 1.331 . S
C59 H77 0.932 . S
C60 C59 1.331 . S
C60 C61 1.336 . S
C61 C57 1.394 . S
C61 C60 1.336 . S
C61 H76 0.929 . S
C62 C52 1.386 . S
C62 C55 1.357 . S
C62 H75 0.928 . S
H63 C39 0.931 . S
H64 C41 0.930 . S
H65 C43 0.929 . S
H66 C44 0.931 . S
H67 C46 0.930 . S
H68 C50 0.931 . S
H69 C48 0.931 . S
H70 C52 0.931 . S
H71 C53 0.929 . S
H72 C54 0.930 . S
H73 C57 0.930 . S
H74 C58 0.931 . S
H75 C62 0.928 . S
H76 C61 0.929 . S
H77 C59 0.932 . S
C78 C79 1.386 . S
C78 C80 1.397 . S
C78 H102 0.931 . S
C79 C78 1.386 . S
C79 C83 1.397 . S
C80 C78 1.397 . S
C80 C81 1.384 . S
C80 H103 0.930 . S
C81 C80 1.384 . S
C81 C82 1.377 . S
C81 C84 1.481 . S
C82 C81 1.377 . S
C82 C83 1.389 . S
C82 H104 0.929 1_556 S
C83 C79 1.397 . S
C83 C82 1.389 . S
C83 H105 0.931 . S
C84 C81 1.481 . S
C84 C85 1.387 . S
C84 C89 1.390 1_556 S
C85 C84 1.387 . S
C85 C86 1.401 . S
C85 H106 0.930 . S
C86 C85 1.401 . S
C86 C87 1.376 1_556 S
C86 C95 1.511 . S
C87 C86 1.376 1_554 S
C87 C88 1.392 . S
C87 H108 0.931 . S
C88 C87 1.392 . S
C88 C89 1.361 . S
C88 C90 1.500 . S
C89 C84 1.390 1_554 S
C89 C88 1.361 . S
C89 H107 0.931 . S
C90 C88 1.500 . S
C90 C91 1.371 . S
C90 C92 1.365 . S
C91 C90 1.371 . S
C91 C101 1.386 . S
C91 H109 0.931 . S
C92 C90 1.365 . S
C92 C93 1.409 . S
C92 H110 0.929 . S
C93 C92 1.409 . S
C93 C94 1.380 . S
C93 H111 0.930 . S
C94 C93 1.380 . S
C94 C101 1.357 . S
C95 C86 1.511 . S
C95 C96 1.341 . S
C95 C97 1.363 1_556 S
C96 C95 1.341 . S
C96 C100 1.394 . S
C96 H112 0.930 . S
C97 C95 1.363 1_554 S
C97 C98 1.387 1_554 S
C97 H113 0.945 . S
C98 C97 1.387 1_556 S
C98 C99 1.331 . S
C98 H116 0.922 1_556 S
C99 C98 1.331 . S
C99 C100 1.336 . S
C100 C96 1.394 . S
C100 C99 1.336 . S
C100 H115 0.929 . S
C101 C91 1.386 . S
C101 C94 1.357 . S
C101 H114 0.928 . S
H102 C78 0.931 . S
H103 C80 0.930 . S
H104 C82 0.929 1_554 S
H105 C83 0.931 . S
H106 C85 0.930 . S
H107 C89 0.931 . S
H108 C87 0.931 . S
H109 C91 0.931 . S
H110 C92 0.929 . S
H111 C93 0.930 . S
H112 C96 0.930 . S
H113 C97 0.945 . S
H114 C101 0.928 . S
H115 C100 0.929 . S
H116 C98 0.922 1_554 S
C117 C118 1.386 . S
C117 C119 1.397 . S
C117 H141 0.931 . S
C118 C117 1.386 . S
C118 C122 1.397 . S
C119 C117 1.397 . S
C119 C120 1.384 . S
C119 H142 0.930 . S
C120 C119 1.384 . S
C120 C121 1.377 . S
C120 C123 1.481 . S
C121 C120 1.377 . S
C121 C122 1.389 . S
C121 H143 0.929 . S
C122 C118 1.397 . S
C122 C121 1.389 . S
C122 H144 0.931 . S
C123 C120 1.481 . S
C123 C124 1.387 . S
C123 C128 1.390 . S
C124 C123 1.387 . S
C124 C125 1.401 . S
C124 H145 0.930 . S
C125 C124 1.401 . S
C125 C126 1.376 . S
C125 C134 1.511 . S
C126 C125 1.376 . S
C126 C127 1.392 . S
C126 H147 0.931 . S
C127 C126 1.392 . S
C127 C128 1.361 . S
C127 C129 1.500 . S
C128 C123 1.390 . S
C128 C127 1.361 . S
C128 H146 0.931 . S
C129 C127 1.500 . S
C129 C130 1.371 . S
C129 C131 1.365 . S
C130 C129 1.371 . S
C130 C140 1.386 . S
C130 H148 0.931 . S
C131 C129 1.365 . S
C131 C132 1.409 . S
C131 H149 0.929 . S
C132 C131 1.409 . S
C132 C133 1.380 . S
C132 H150 0.930 . S
C133 C132 1.380 . S
C133 C140 1.357 . S
C134 C125 1.511 . S
C134 C135 1.341 . S
C134 C136 1.371 . S
C135 C134 1.341 . S
C135 C139 1.394 . S
C135 H151 0.930 . S
C136 C134 1.371 . S
C136 C137 1.392 . S
C136 H152 0.931 . S
C137 C136 1.392 . S
C137 C138 1.331 . S
C137 H155 0.932 . S
C138 C137 1.331 . S
C138 C139 1.336 . S
C139 C135 1.394 . S
C139 C138 1.336 . S
C139 H154 0.929 . S
C140 C130 1.386 . S
C140 C133 1.357 . S
C140 H153 0.928 . S
H141 C117 0.931 . S
H142 C119 0.930 . S
H143 C121 0.929 . S
H144 C122 0.931 . S
H145 C124 0.930 . S
H146 C128 0.931 . S
H147 C126 0.931 . S
H148 C130 0.931 . S
H149 C131 0.929 . S
H150 C132 0.930 . S
H151 C135 0.930 . S
H152 C136 0.931 . S
H153 C140 0.928 . S
H154 C139 0.929 . S
H155 C137 0.932 . S
C156 C157 1.386 . S
C156 C158 1.397 . S
C156 H180 0.931 . S
C157 C156 1.386 . S
C157 C161 1.397 . S
C158 C156 1.397 . S
C158 C159 1.384 . S
C158 H181 0.930 . S
C159 C158 1.384 . S
C159 C160 1.377 . S
C159 C162 1.481 . S
C160 C159 1.377 . S
C160 C161 1.389 . S
C160 H182 0.929 . S
C161 C157 1.397 . S
C161 C160 1.389 . S
C161 H183 0.931 . S
C162 C159 1.481 . S
C162 C163 1.387 . S
C162 C167 1.390 1_556 S
C163 C162 1.387 . S
C163 C164 1.421 . S
C163 H184 0.930 . S
C164 C163 1.421 . S
C164 C165 1.340 1_556 S
C164 C173 1.526 . S
C165 C164 1.340 1_554 S
C165 C166 1.392 . S
C165 H186 0.931 . S
C166 C165 1.392 . S
C166 C167 1.361 . S
C166 C168 1.500 . S
C167 C162 1.390 1_554 S
C167 C166 1.361 . S
C167 H185 0.931 . S
C168 C166 1.500 . S
C168 C169 1.371 . S
C168 C170 1.365 . S
C169 C168 1.371 . S
C169 C179 1.386 . S
C169 H187 0.931 . S
C170 C168 1.365 . S
C170 C171 1.409 . S
C170 H188 0.929 . S
C171 C170 1.409 . S
C171 C172 1.380 . S
C171 H189 0.930 . S
C172 C171 1.380 . S
C172 C179 1.357 . S
C173 C164 1.526 . S
C173 C174 1.341 . S
C173 C175 1.371 . S
C174 C173 1.341 . S
C174 C178 1.394 . S
C174 H190 0.930 . S
C175 C173 1.371 . S
C175 C176 1.392 . S
C175 H191 0.931 1_556 S
C176 C175 1.392 . S
C176 C177 1.331 . S
C176 H194 0.932 . S
C177 C176 1.331 . S
C177 C178 1.336 . S
C178 C174 1.394 . S
C178 C177 1.336 . S
C178 H193 0.929 . S
C179 C169 1.386 . S
C179 C172 1.357 . S
C179 H192 0.928 . S
H180 C156 0.931 . S
H181 C158 0.930 . S
H182 C160 0.929 . S
H183 C161 0.931 . S
H184 C163 0.930 . S
H185 C167 0.931 . S
H186 C165 0.931 . S
H187 C169 0.931 . S
H188 C170 0.929 . S
H189 C171 0.930 . S
H190 C174 0.930 . S
H191 C175 0.931 1_554 S
H192 C179 0.928 . S
H193 C178 0.929 . S
H194 C176 0.932 . S
C195 C196 1.386 . S
C195 C197 1.397 . S
C195 H219 0.931 . S
C196 C195 1.386 . S
C196 C200 1.397 . S
C197 C195 1.397 . S
C197 C198 1.384 . S
C197 H220 0.930 . S
C198 C197 1.384 . S
C198 C199 1.377 . S
C198 C201 1.481 . S
C199 C198 1.377 . S
C199 C200 1.389 . S
C199 H221 0.929 . S
C200 C196 1.397 . S
C200 C199 1.389 . S
C200 H222 0.931 . S
C201 C198 1.481 . S
C201 C202 1.387 . S
C201 C206 1.390 . S
C202 C201 1.387 . S
C202 C203 1.401 . S
C202 H223 0.930 . S
C203 C202 1.401 . S
C203 C204 1.376 . S
C203 C212 1.511 . S
C204 C203 1.376 . S
C204 C205 1.392 . S
C204 H225 0.931 . S
C205 C204 1.392 . S
C205 C206 1.361 . S
C205 C207 1.500 . S
C206 C201 1.390 . S
C206 C205 1.361 . S
C206 H224 0.931 . S
C207 C205 1.500 . S
C207 C208 1.371 . S
C207 C209 1.365 . S
C208 C207 1.371 . S
C208 C218 1.386 . S
C208 H226 0.931 . S
C209 C207 1.365 . S
C209 C210 1.409 . S
C209 H227 0.929 . S
C210 C209 1.409 . S
C210 C211 1.380 . S
C210 H228 0.930 . S
C211 C210 1.380 . S
C211 C218 1.357 . S
C212 C203 1.511 . S
C212 C213 1.341 . S
C212 C214 1.371 . S
C213 C212 1.341 . S
C213 C217 1.394 . S
C213 H229 0.930 . S
C214 C212 1.371 . S
C214 C215 1.392 . S
C214 H230 0.931 . S
C215 C214 1.392 . S
C215 C216 1.331 . S
C215 H233 0.932 . S
C216 C215 1.331 . S
C216 C217 1.336 . S
C217 C213 1.394 . S
C217 C216 1.336 . S
C217 H232 0.929 . S
C218 C208 1.386 . S
C218 C211 1.357 . S
C218 H231 0.928 . S
H219 C195 0.931 . S
H220 C197 0.930 . S
H221 C199 0.929 . S
H222 C200 0.931 . S
H223 C202 0.930 . S
H224 C206 0.931 . S
H225 C204 0.931 . S
H226 C208 0.931 . S
H227 C209 0.929 . S
H228 C210 0.930 . S
H229 C213 0.930 . S
H230 C214 0.931 . S
H231 C218 0.928 . S
H232 C217 0.929 . S
H233 C215 0.932 . S
C234 C235 1.386 . S
C234 C236 1.397 . S
C234 H258 0.931 . S
C235 C234 1.386 . S
C235 C239 1.397 . S
C236 C234 1.397 . S
C236 C237 1.384 . S
C236 H259 0.930 . S
C237 C236 1.384 . S
C237 C238 1.377 . S
C237 C240 1.481 . S
C238 C237 1.377 . S
C238 C239 1.389 . S
C238 H260 0.929 1_556 S
C239 C235 1.397 . S
C239 C238 1.389 . S
C239 H261 0.931 1_565 S
C240 C237 1.481 . S
C240 C241 1.387 . S
C240 C245 1.390 1_556 S
C241 C240 1.387 . S
C241 C242 1.401 . S
C241 H262 0.930 . S
C242 C241 1.401 . S
C242 C243 1.376 1_556 S
C242 C251 1.511 . S
C243 C242 1.376 1_554 S
C243 C244 1.392 . S
C243 H264 0.931 . S
C244 C243 1.392 . S
C244 C245 1.361 . S
C244 C246 1.500 . S
C245 C240 1.390 1_554 S
C245 C244 1.361 . S
C245 H263 0.931 . S
C246 C244 1.500 . S
C246 C247 1.371 . S
C246 C248 1.365 . S
C247 C246 1.371 . S
C247 C257 1.386 . S
C247 H265 0.931 . S
C248 C246 1.365 . S
C248 C249 1.409 . S
C248 H266 0.929 . S
C249 C248 1.409 . S
C249 C250 1.380 . S
C249 H267 0.930 . S
C250 C249 1.380 . S
C250 C257 1.357 . S
C251 C242 1.511 . S
C251 C252 1.341 . S
C251 C253 1.363 1_556 S
C252 C251 1.341 . S
C252 C256 1.394 . S
C252 H268 0.930 . S
C253 C251 1.363 1_554 S
C253 C254 1.387 1_554 S
C253 H269 0.945 . S
C254 C253 1.387 1_556 S
C254 C255 1.331 . S
C254 H272 0.922 1_556 S
C255 C254 1.331 . S
C255 C256 1.336 . S
C256 C252 1.394 . S
C256 C255 1.336 . S
C256 H271 0.929 . S
C257 C247 1.386 . S
C257 C250 1.357 . S
C257 H270 0.928 . S
H258 C234 0.931 . S
H259 C236 0.930 . S
H260 C238 0.929 1_554 S
H261 C239 0.931 1_545 S
H262 C241 0.930 . S
H263 C245 0.931 . S
H264 C243 0.931 . S
H265 C247 0.931 . S
H266 C248 0.929 . S
H267 C249 0.930 . S
H268 C252 0.930 . S
H269 C253 0.945 . S
H270 C257 0.928 . S
H271 C256 0.929 . S
H272 C254 0.922 1_554 S
C273 C274 1.386 . S
C273 C275 1.397 . S
C273 H297 0.931 . S
C274 C273 1.386 . S
C274 C278 1.397 . S
C275 C273 1.397 . S
C275 C276 1.384 . S
C275 H298 0.930 . S
C276 C275 1.384 . S
C276 C277 1.377 . S
C276 C279 1.481 . S
C277 C276 1.377 . S
C277 C278 1.389 . S
C277 H299 0.929 . S
C278 C274 1.397 . S
C278 C277 1.389 . S
C278 H300 0.931 . S
C279 C276 1.481 . S
C279 C280 1.387 . S
C279 C284 1.390 . S
C280 C279 1.387 . S
C280 C281 1.401 . S
C280 H301 0.930 . S
C281 C280 1.401 . S
C281 C282 1.376 . S
C281 C290 1.511 . S
C282 C281 1.376 . S
C282 C283 1.392 . S
C282 H303 0.931 . S
C283 C282 1.392 . S
C283 C284 1.361 . S
C283 C285 1.500 . S
C284 C279 1.390 . S
C284 C283 1.361 . S
C284 H302 0.931 . S
C285 C283 1.500 . S
C285 C286 1.371 . S
C285 C287 1.365 . S
C286 C285 1.371 . S
C286 C296 1.386 . S
C286 H304 0.931 . S
C287 C285 1.365 . S
C287 C288 1.409 . S
C287 H305 0.929 . S
C288 C287 1.409 . S
C288 C289 1.380 . S
C288 H306 0.930 . S
C289 C288 1.380 . S
C289 C296 1.357 . S
C290 C281 1.511 . S
C290 C291 1.341 . S
C290 C292 1.371 . S
C291 C290 1.341 . S
C291 C295 1.394 . S
C291 H307 0.930 . S
C292 C290 1.371 . S
C292 C293 1.392 . S
C292 H308 0.931 . S
C293 C292 1.392 . S
C293 C294 1.331 . S
C293 H311 0.932 . S
C294 C293 1.331 . S
C294 C295 1.336 . S
C295 C291 1.394 . S
C295 C294 1.336 . S
C295 H310 0.929 . S
C296 C286 1.386 . S
C296 C289 1.357 . S
C296 H309 0.928 . S
H297 C273 0.931 . S
H298 C275 0.930 . S
H299 C277 0.929 . S
H300 C278 0.931 . S
H301 C280 0.930 . S
H302 C284 0.931 . S
H303 C282 0.931 . S
H304 C286 0.931 . S
H305 C287 0.929 . S
H306 C288 0.930 . S
H307 C291 0.930 . S
H308 C292 0.931 . S
H309 C296 0.928 . S
H310 C295 0.929 . S
H311 C293 0.932 . S
Fe312 O314 1.918 . S
Fe312 O317 1.997 1_455 S
Fe312 O318 2.002 1_455 S
Fe312 O323 1.976 . S
Fe312 O326 1.996 . S
Fe313 O314 1.918 . S
Fe313 O321 1.997 1_455 S
Fe313 O324 1.996 . S
Fe313 O328 1.976 . S
Fe313 O331 2.002 1_455 S
O314 Fe312 1.918 . S
O314 Fe313 1.918 . S
O314 Fe315 1.918 . S
Fe315 O314 1.918 . S
Fe315 O316 2.002 1_455 S
Fe315 O325 1.976 . S
Fe315 O329 1.996 . S
Fe315 O332 1.997 1_455 S
O316 Fe315 2.002 1_655 S
O316 C333 1.295 . S
O317 Fe312 1.997 1_655 S
O317 C333 1.235 . S
O318 Fe312 2.002 1_655 S
O318 C319 1.295 . S
C319 O318 1.295 . S
C319 O321 1.235 . S
C320 O325 1.287 . S
C320 O326 1.255 . S
O321 Fe313 1.997 1_655 S
O321 C319 1.235 . S
C322 O328 1.287 . S
C322 O329 1.255 . S
O323 Fe312 1.976 . S
O323 C330 1.287 . S
O324 Fe313 1.996 . S
O324 C330 1.255 . S
O325 Fe315 1.976 . S
O325 C320 1.287 . S
O326 Fe312 1.996 . S
O326 C320 1.255 . S
C327 O331 1.295 . S
C327 O332 1.235 . S
O328 Fe313 1.976 . S
O328 C322 1.287 . S
O329 Fe315 1.996 . S
O329 C322 1.255 . S
C330 O323 1.287 . S
C330 O324 1.255 . S
O331 Fe313 2.002 1_655 S
O331 C327 1.295 . S
O332 Fe315 1.997 1_655 S
O332 C327 1.235 . S
C333 O316 1.295 . S
C333 O317 1.235 . S
Fe334 O336 1.918 . S
Fe334 O339 1.995 1_655 S
Fe334 O340 2.001 1_655 S
Fe334 O345 1.977 . S
Fe334 O348 1.997 . S
Fe335 O336 1.918 . S
Fe335 O343 1.995 1_655 S
Fe335 O346 1.997 . S
Fe335 O350 1.977 . S
Fe335 O353 2.001 1_655 S
O336 Fe334 1.918 . S
O336 Fe335 1.918 . S
O336 Fe337 1.918 . S
Fe337 O336 1.918 . S
Fe337 O338 2.002 1_655 S
Fe337 O347 1.976 . S
Fe337 O351 1.996 . S
Fe337 O354 1.996 1_655 S
O338 Fe337 2.002 1_455 S
O338 C355 1.295 . S
O339 Fe334 1.995 1_455 S
O339 C355 1.235 . S
O340 Fe334 2.001 1_455 S
O340 C341 1.295 . S
C341 O340 1.295 . S
C341 O343 1.235 . S
C342 O347 1.287 . S
C342 O348 1.255 . S
O343 Fe335 1.995 1_455 S
O343 C341 1.235 . S
C344 O350 1.287 . S
C344 O351 1.255 . S
O345 Fe334 1.977 . S
O345 C352 1.287 . S
O346 Fe335 1.997 . S
O346 C352 1.255 . S
O347 Fe337 1.976 . S
O347 C342 1.287 . S
O348 Fe334 1.997 . S
O348 C342 1.255 . S
C349 O353 1.295 . S
C349 O354 1.235 . S
O350 Fe335 1.977 . S
O350 C344 1.287 . S
O351 Fe337 1.996 . S
O351 C344 1.255 . S
C352 O345 1.287 . S
C352 O346 1.255 . S
O353 Fe335 2.001 1_455 S
O353 C349 1.295 . S
O354 Fe337 1.996 1_455 S
O354 C349 1.235 . S
C355 O338 1.295 . S
C355 O339 1.235 . S
Fe356 O358 1.918 . S
Fe356 O361 1.997 . S
Fe356 O362 2.002 . S
Fe356 O367 1.976 . S
Fe356 O370 1.996 . S
Fe357 O358 1.918 . S
Fe357 O365 1.997 . S
Fe357 O368 1.996 . S
Fe357 O372 1.976 . S
Fe357 O375 2.002 . S
O358 Fe356 1.918 . S
O358 Fe357 1.918 . S
O358 Fe359 1.918 . S
Fe359 O358 1.918 . S
Fe359 O360 2.002 . S
Fe359 O369 1.976 . S
Fe359 O373 1.996 . S
Fe359 O376 1.997 . S
O360 Fe359 2.002 . S
O360 C377 1.295 . S
O361 Fe356 1.997 . S
O361 C377 1.235 . S
O362 Fe356 2.002 . S
O362 C363 1.295 . S
C363 O362 1.295 . S
C363 O365 1.235 . S
C364 O369 1.287 . S
C364 O370 1.255 . S
O365 Fe357 1.997 . S
O365 C363 1.235 . S
C366 O372 1.287 . S
C366 O373 1.255 . S
O367 Fe356 1.976 . S
O367 C374 1.287 . S
O368 Fe357 1.996 . S
O368 C374 1.255 . S
O369 Fe359 1.976 . S
O369 C364 1.287 . S
O370 Fe356 1.996 . S
O370 C364 1.255 . S
C371 O375 1.295 . S
C371 O376 1.235 . S
O372 Fe357 1.976 . S
O372 C366 1.287 . S
O373 Fe359 1.996 . S
O373 C366 1.255 . S
C374 O367 1.287 . S
C374 O368 1.255 . S
O375 Fe357 2.002 . S
O375 C371 1.295 . S
O376 Fe359 1.997 . S
O376 C371 1.235 . S
C377 O360 1.295 . S
C377 O361 1.235 . S
Fe378 O380 1.918 . S
Fe378 O383 1.997 . S
Fe378 O384 2.002 . S
Fe378 O389 1.976 . S
Fe378 O392 1.996 . S
Fe379 O380 1.918 . S
Fe379 O387 1.997 . S
Fe379 O390 1.996 . S
Fe379 O394 1.976 . S
Fe379 O397 2.002 . S
O380 Fe378 1.918 . S
O380 Fe379 1.918 . S
O380 Fe381 1.918 . S
Fe381 O380 1.918 . S
Fe381 O382 2.002 . S
Fe381 O391 1.976 . S
Fe381 O395 1.996 . S
Fe381 O398 1.997 . S
O382 Fe381 2.002 . S
O382 C399 1.295 . S
O383 Fe378 1.997 . S
O383 C399 1.235 . S
O384 Fe378 2.002 . S
O384 C385 1.295 . S
C385 O384 1.295 . S
C385 O387 1.235 . S
C386 O391 1.287 . S
C386 O392 1.255 . S
O387 Fe379 1.997 . S
O387 C385 1.235 . S
C388 O394 1.287 . S
C388 O395 1.255 . S
O389 Fe378 1.976 . S
O389 C396 1.287 . S
O390 Fe379 1.996 . S
O390 C396 1.255 . S
O391 Fe381 1.976 . S
O391 C386 1.287 . S
O392 Fe378 1.996 . S
O392 C386 1.255 . S
C393 O397 1.295 . S
C393 O398 1.235 . S
O394 Fe379 1.976 . S
O394 C388 1.287 . S
O395 Fe381 1.996 . S
O395 C388 1.255 . S
C396 O389 1.287 . S
C396 O390 1.255 . S
O397 Fe379 2.002 . S
O397 C393 1.295 . S
O398 Fe381 1.997 . S
O398 C393 1.235 . S
C399 O382 1.295 . S
C399 O383 1.235 . S
H400 C412 0.930 . S
H401 C414 0.930 . S
H402 C415 0.930 . S
H403 C419 0.959 . S
H404 C419 0.959 . S
H405 C419 0.961 . S
H406 C420 0.960 . S
H407 C420 0.961 . S
H408 C420 0.959 . S
H409 C423 0.929 . S
H410 C424 0.931 . S
H411 C426 0.930 . S
C412 H400 0.930 . S
C412 C413 1.399 . S
C412 C417 1.399 . S
C413 C412 1.399 . S
C413 C414 1.376 . S
C414 H401 0.930 . S
C414 C413 1.376 . S
C414 C415 1.388 . S
C415 H402 0.930 . S
C415 C414 1.388 . S
C415 C416 1.390 . S
C416 C415 1.390 . S
C416 C417 1.394 . S
C416 C422 1.465 . S
C417 C412 1.399 . S
C417 C416 1.394 . S
C417 C418 1.516 . S
C418 C417 1.516 . S
C418 C419 1.502 . S
C418 C420 1.561 . S
C418 C421 1.526 . S
C419 H403 0.959 . S
C419 H404 0.959 . S
C419 H405 0.961 . S
C419 C418 1.502 . S
C420 H406 0.960 . S
C420 H407 0.961 . S
C420 H408 0.959 . S
C420 C418 1.561 . S
C421 C418 1.526 . S
C421 C422 1.396 . S
C421 C426 1.390 . S
C422 C416 1.465 . S
C422 C421 1.396 . S
C422 C423 1.399 . S
C423 H409 0.929 . S
C423 C422 1.399 . S
C423 C424 1.385 . S
C424 H410 0.931 . S
C424 C423 1.385 . S
C424 C425 1.389 . S
C425 C424 1.389 . S
C425 C426 1.387 . S
C426 H411 0.930 . S
C426 C421 1.390 . S
C426 C425 1.387 . S
H427 C439 0.930 . S
H428 C441 0.930 . S
H429 C442 0.930 . S
H430 C446 0.959 . S
H431 C446 0.959 . S
H432 C446 0.961 . S
H433 C447 0.960 . S
H434 C447 0.961 . S
H435 C447 0.959 . S
H436 C450 0.929 . S
H437 C451 0.931 . S
H438 C453 0.930 . S
C439 H427 0.930 . S
C439 C440 1.399 . S
C439 C444 1.399 . S
C440 C439 1.399 . S
C440 C441 1.376 . S
C441 H428 0.930 . S
C441 C440 1.376 . S
C441 C442 1.388 . S
C442 H429 0.930 . S
C442 C441 1.388 . S
C442 C443 1.390 . S
C443 C442 1.390 . S
C443 C444 1.394 . S
C443 C449 1.465 . S
C444 C439 1.399 . S
C444 C443 1.394 . S
C444 C445 1.516 . S
C445 C444 1.516 . S
C445 C446 1.502 . S
C445 C447 1.561 . S
C445 C448 1.526 . S
C446 H430 0.959 . S
C446 H431 0.959 . S
C446 H432 0.961 . S
C446 C445 1.502 . S
C447 H433 0.960 . S
C447 H434 0.961 . S
C447 H435 0.959 . S
C447 C445 1.561 . S
C448 C445 1.526 . S
C448 C449 1.396 . S
C448 C453 1.390 . S
C449 C443 1.465 . S
C449 C448 1.396 . S
C449 C450 1.399 . S
C450 H436 0.929 . S
C450 C449 1.399 . S
C450 C451 1.385 . S
C451 H437 0.931 . S
C451 C450 1.385 . S
C451 C452 1.389 . S
C452 C451 1.389 . S
C452 C453 1.387 . S
C453 H438 0.930 . S
C453 C448 1.390 . S
C453 C452 1.387 . S
H454 C466 0.930 . S
H455 C468 0.930 . S
H456 C469 0.930 . S
H457 C473 0.959 . S
H458 C473 0.959 . S
H459 C473 0.961 . S
H460 C474 0.960 . S
H461 C474 0.961 . S
H462 C474 0.959 . S
H463 C477 0.929 . S
H464 C478 0.931 . S
H465 C480 0.930 . S
C466 H454 0.930 . S
C466 C467 1.399 . S
C466 C471 1.399 . S
C467 C466 1.399 . S
C467 C468 1.376 . S
C468 H455 0.930 . S
C468 C467 1.376 . S
C468 C469 1.388 . S
C469 H456 0.930 . S
C469 C468 1.388 . S
C469 C470 1.390 . S
C470 C469 1.390 . S
C470 C471 1.394 . S
C470 C476 1.465 . S
C471 C466 1.399 . S
C471 C470 1.394 . S
C471 C472 1.516 . S
C472 C471 1.516 . S
C472 C473 1.502 . S
C472 C474 1.561 . S
C472 C475 1.526 . S
C473 H457 0.959 . S
C473 H458 0.959 . S
C473 H459 0.961 . S
C473 C472 1.502 . S
C474 H460 0.960 . S
C474 H461 0.961 . S
C474 H462 0.959 . S
C474 C472 1.561 . S
C475 C472 1.526 . S
C475 C476 1.396 . S
C475 C480 1.390 . S
C476 C470 1.465 . S
C476 C475 1.396 . S
C476 C477 1.399 . S
C477 H463 0.929 . S
C477 C476 1.399 . S
C477 C478 1.385 . S
C478 H464 0.931 . S
C478 C477 1.385 . S
C478 C479 1.389 . S
C479 C478 1.389 . S
C479 C480 1.387 . S
C480 H465 0.930 . S
C480 C475 1.390 . S
C480 C479 1.387 . S
H481 C493 0.930 . S
H482 C495 0.930 . S
H483 C496 0.930 . S
H484 C500 0.959 . S
H485 C500 0.959 . S
H486 C500 0.961 . S
H487 C501 0.960 . S
H488 C501 0.961 . S
H489 C501 0.959 . S
H490 C504 0.929 . S
H491 C505 0.931 . S
H492 C507 0.930 . S
C493 H481 0.930 . S
C493 C494 1.399 . S
C493 C498 1.399 . S
C494 C493 1.399 . S
C494 C495 1.376 . S
C495 H482 0.930 . S
C495 C494 1.376 . S
C495 C496 1.388 . S
C496 H483 0.930 . S
C496 C495 1.388 . S
C496 C497 1.390 . S
C497 C496 1.390 . S
C497 C498 1.394 . S
C497 C503 1.465 . S
C498 C493 1.399 . S
C498 C497 1.394 . S
C498 C499 1.516 . S
C499 C498 1.516 . S
C499 C500 1.502 . S
C499 C501 1.561 . S
C499 C502 1.526 . S
C500 H484 0.959 . S
C500 H485 0.959 . S
C500 H486 0.961 . S
C500 C499 1.502 . S
C501 H487 0.960 . S
C501 H488 0.961 . S
C501 H489 0.959 . S
C501 C499 1.561 . S
C502 C499 1.526 . S
C502 C503 1.396 . S
C502 C507 1.390 . S
C503 C497 1.465 . S
C503 C502 1.396 . S
C503 C504 1.399 . S
C504 H490 0.929 . S
C504 C503 1.399 . S
C504 C505 1.385 . S
C505 H491 0.931 . S
C505 C504 1.385 . S
C505 C506 1.389 . S
C506 C505 1.389 . S
C506 C507 1.387 . S
C507 H492 0.930 . S
C507 C502 1.390 . S
C507 C506 1.387 . S
H508 C520 0.930 . S
H509 C522 0.930 . S
H510 C523 0.930 . S
H511 C527 0.959 . S
H512 C527 0.959 . S
H513 C527 0.961 . S
H514 C528 0.960 . S
H515 C528 0.961 . S
H516 C528 0.959 . S
H517 C531 0.929 . S
H518 C532 0.931 . S
H519 C534 0.930 . S
C520 H508 0.930 . S
C520 C521 1.399 . S
C520 C525 1.399 . S
C521 C520 1.399 . S
C521 C522 1.376 . S
C522 H509 0.930 . S
C522 C521 1.376 . S
C522 C523 1.388 . S
C523 H510 0.930 . S
C523 C522 1.388 . S
C523 C524 1.390 . S
C524 C523 1.390 . S
C524 C525 1.394 . S
C524 C530 1.465 . S
C525 C520 1.399 . S
C525 C524 1.394 . S
C525 C526 1.516 . S
C526 C525 1.516 . S
C526 C527 1.502 . S
C526 C528 1.561 . S
C526 C529 1.526 . S
C527 H511 0.959 . S
C527 H512 0.959 . S
C527 H513 0.961 . S
C527 C526 1.502 . S
C528 H514 0.960 . S
C528 H515 0.961 . S
C528 H516 0.959 . S
C528 C526 1.561 . S
C529 C526 1.526 . S
C529 C530 1.396 . S
C529 C534 1.390 . S
C530 C524 1.465 . S
C530 C529 1.396 . S
C530 C531 1.399 . S
C531 H517 0.929 . S
C531 C530 1.399 . S
C531 C532 1.385 . S
C532 H518 0.931 . S
C532 C531 1.385 . S
C532 C533 1.389 . S
C533 C532 1.389 . S
C533 C534 1.387 . S
C534 H519 0.930 . S
C534 C529 1.390 . S
C534 C533 1.387 . S
H535 C547 0.930 . S
H536 C549 0.930 . S
H537 C550 0.930 . S
H538 C554 0.959 . S
H539 C554 0.959 . S
H540 C554 0.961 . S
H541 C555 0.960 . S
H542 C555 0.961 . S
H543 C555 0.959 . S
H544 C558 0.929 . S
H545 C559 0.931 . S
H546 C561 0.930 . S
C547 H535 0.930 . S
C547 C548 1.399 . S
C547 C552 1.399 . S
C548 C547 1.399 . S
C548 C549 1.376 . S
C549 H536 0.930 . S
C549 C548 1.376 . S
C549 C550 1.388 . S
C550 H537 0.930 . S
C550 C549 1.388 . S
C550 C551 1.390 . S
C551 C550 1.390 . S
C551 C552 1.394 . S
C551 C557 1.465 . S
C552 C547 1.399 . S
C552 C551 1.394 . S
C552 C553 1.516 . S
C553 C552 1.516 . S
C553 C554 1.502 . S
C553 C555 1.561 . S
C553 C556 1.526 . S
C554 H538 0.959 . S
C554 H539 0.959 . S
C554 H540 0.961 . S
C554 C553 1.502 . S
C555 H541 0.960 . S
C555 H542 0.961 . S
C555 H543 0.959 . S
C555 C553 1.561 . S
C556 C553 1.526 . S
C556 C557 1.396 . S
C556 C561 1.390 . S
C557 C551 1.465 . S
C557 C556 1.396 . S
C557 C558 1.399 . S
C558 H544 0.929 . S
C558 C557 1.399 . S
C558 C559 1.385 . S
C559 H545 0.931 . S
C559 C558 1.385 . S
C559 C560 1.389 . S
C560 C559 1.389 . S
C560 C561 1.387 . S
C561 H546 0.930 . S
C561 C556 1.390 . S
C561 C560 1.387 . S
H562 C574 0.930 . S
H563 C576 0.930 . S
H564 C577 0.930 . S
H565 C581 0.959 . S
H566 C581 0.959 . S
H567 C581 0.961 . S
H568 C582 0.960 . S
H569 C582 0.961 . S
H570 C582 0.959 . S
H571 C585 0.929 . S
H572 C586 0.931 . S
H573 C588 0.930 . S
C574 H562 0.930 . S
C574 C575 1.399 . S
C574 C579 1.399 . S
C575 C574 1.399 . S
C575 C576 1.376 . S
C576 H563 0.930 . S
C576 C575 1.376 . S
C576 C577 1.388 . S
C577 H564 0.930 . S
C577 C576 1.388 . S
C577 C578 1.390 . S
C578 C577 1.390 . S
C578 C579 1.394 . S
C578 C584 1.465 . S
C579 C574 1.399 . S
C579 C578 1.394 . S
C579 C580 1.516 . S
C580 C579 1.516 . S
C580 C581 1.502 . S
C580 C582 1.561 . S
C580 C583 1.526 . S
C581 H565 0.959 . S
C581 H566 0.959 . S
C581 H567 0.961 . S
C581 C580 1.502 . S
C582 H568 0.960 . S
C582 H569 0.961 . S
C582 H570 0.959 . S
C582 C580 1.561 . S
C583 C580 1.526 . S
C583 C584 1.396 . S
C583 C588 1.390 . S
C584 C578 1.465 . S
C584 C583 1.396 . S
C584 C585 1.399 . S
C585 H571 0.929 . S
C585 C584 1.399 . S
C585 C586 1.385 . S
C586 H572 0.931 . S
C586 C585 1.385 . S
C586 C587 1.389 . S
C587 C586 1.389 . S
C587 C588 1.387 . S
C588 H573 0.930 . S
C588 C583 1.390 . S
C588 C587 1.387 . S
H589 C601 0.930 . S
H590 C603 0.930 . S
H591 C604 0.930 . S
H592 C608 0.959 . S
H593 C608 0.959 . S
H594 C608 0.961 . S
H595 C609 0.960 . S
H596 C609 0.961 . S
H597 C609 0.959 . S
H598 C612 0.929 . S
H599 C613 0.931 . S
H600 C615 0.930 . S
C601 H589 0.930 . S
C601 C602 1.399 . S
C601 C606 1.399 . S
C602 C601 1.399 . S
C602 C603 1.376 . S
C603 H590 0.930 . S
C603 C602 1.376 . S
C603 C604 1.388 . S
C604 H591 0.930 . S
C604 C603 1.388 . S
C604 C605 1.390 . S
C605 C604 1.390 . S
C605 C606 1.394 . S
C605 C611 1.465 . S
C606 C601 1.399 . S
C606 C605 1.394 . S
C606 C607 1.516 . S
C607 C606 1.516 . S
C607 C608 1.502 . S
C607 C609 1.561 . S
C607 C610 1.526 . S
C608 H592 0.959 . S
C608 H593 0.959 . S
C608 H594 0.961 . S
C608 C607 1.502 . S
C609 H595 0.960 . S
C609 H596 0.961 . S
C609 H597 0.959 . S
C609 C607 1.561 . S
C610 C607 1.526 . S
C610 C611 1.396 . S
C610 C615 1.390 . S
C611 C605 1.465 . S
C611 C610 1.396 . S
C611 C612 1.399 . S
C612 H598 0.929 . S
C612 C611 1.399 . S
C612 C613 1.385 . S
C613 H599 0.931 . S
C613 C612 1.385 . S
C613 C614 1.389 . S
C614 C613 1.389 . S
C614 C615 1.387 . S
C615 H600 0.930 . S
C615 C610 1.390 . S
C615 C614 1.387 . S
H616 C628 0.930 . S
H617 C630 0.930 . S
H618 C631 0.930 . S
H619 C635 0.959 . S
H620 C635 0.959 . S
H621 C635 0.961 . S
H622 C636 0.960 . S
H623 C636 0.961 . S
H624 C636 0.959 . S
H625 C639 0.929 . S
H626 C640 0.931 . S
H627 C642 0.930 . S
C628 H616 0.930 . S
C628 C629 1.399 . S
C628 C633 1.399 . S
C629 C628 1.399 . S
C629 C630 1.376 . S
C630 H617 0.930 . S
C630 C629 1.376 . S
C630 C631 1.388 . S
C631 H618 0.930 . S
C631 C630 1.388 . S
C631 C632 1.390 . S
C632 C631 1.390 . S
C632 C633 1.394 . S
C632 C638 1.465 . S
C633 C628 1.399 . S
C633 C632 1.394 . S
C633 C634 1.516 . S
C634 C633 1.516 . S
C634 C635 1.502 . S
C634 C636 1.561 . S
C634 C637 1.526 . S
C635 H619 0.959 . S
C635 H620 0.959 . S
C635 H621 0.961 . S
C635 C634 1.502 . S
C636 H622 0.960 . S
C636 H623 0.961 . S
C636 H624 0.959 . S
C636 C634 1.561 . S
C637 C634 1.526 . S
C637 C638 1.396 . S
C637 C642 1.390 . S
C638 C632 1.465 . S
C638 C637 1.396 . S
C638 C639 1.399 . S
C639 H625 0.929 . S
C639 C638 1.399 . S
C639 C640 1.385 . S
C640 H626 0.931 . S
C640 C639 1.385 . S
C640 C641 1.389 . S
C641 C640 1.389 . S
C641 C642 1.387 . S
C642 H627 0.930 . S
C642 C637 1.390 . S
C642 C641 1.387 . S
H643 C655 0.930 . S
H644 C657 0.930 . S
H645 C658 0.930 . S
H646 C662 0.959 . S
H647 C662 0.959 . S
H648 C662 0.961 . S
H649 C663 0.960 . S
H650 C663 0.961 . S
H651 C663 0.959 . S
H652 C666 0.929 . S
H653 C667 0.931 . S
H654 C669 0.930 . S
C655 H643 0.930 . S
C655 C656 1.399 . S
C655 C660 1.399 . S
C656 C655 1.399 . S
C656 C657 1.376 . S
C657 H644 0.930 . S
C657 C656 1.376 . S
C657 C658 1.388 . S
C658 H645 0.930 . S
C658 C657 1.388 . S
C658 C659 1.390 . S
C659 C658 1.390 . S
C659 C660 1.394 . S
C659 C665 1.465 . S
C660 C655 1.399 . S
C660 C659 1.394 . S
C660 C661 1.516 . S
C661 C660 1.516 . S
C661 C662 1.502 . S
C661 C663 1.561 . S
C661 C664 1.526 . S
C662 H646 0.959 . S
C662 H647 0.959 . S
C662 H648 0.961 . S
C662 C661 1.502 . S
C663 H649 0.960 . S
C663 H650 0.961 . S
C663 H651 0.959 . S
C663 C661 1.561 . S
C664 C661 1.526 . S
C664 C665 1.396 . S
C664 C669 1.390 . S
C665 C659 1.465 . S
C665 C664 1.396 . S
C665 C666 1.399 . S
C666 H652 0.929 . S
C666 C665 1.399 . S
C666 C667 1.385 . S
C667 H653 0.931 . S
C667 C666 1.385 . S
C667 C668 1.389 . S
C668 C667 1.389 . S
C668 C669 1.387 . S
C669 H654 0.930 . S
C669 C664 1.390 . S
C669 C668 1.387 . S
H670 C682 0.930 . S
H671 C684 0.930 . S
H672 C685 0.930 . S
H673 C689 0.959 . S
H674 C689 0.959 . S
H675 C689 0.961 . S
H676 C690 0.960 . S
H677 C690 0.961 . S
H678 C690 0.959 . S
H679 C693 0.929 . S
H680 C694 0.931 . S
H681 C696 0.930 . S
C682 H670 0.930 . S
C682 C683 1.399 . S
C682 C687 1.399 . S
C683 C682 1.399 . S
C683 C684 1.376 . S
C684 H671 0.930 . S
C684 C683 1.376 . S
C684 C685 1.388 . S
C685 H672 0.930 . S
C685 C684 1.388 . S
C685 C686 1.390 . S
C686 C685 1.390 . S
C686 C687 1.394 . S
C686 C692 1.465 . S
C687 C682 1.399 . S
C687 C686 1.394 . S
C687 C688 1.516 . S
C688 C687 1.516 . S
C688 C689 1.502 . S
C688 C690 1.561 . S
C688 C691 1.526 . S
C689 H673 0.959 . S
C689 H674 0.959 . S
C689 H675 0.961 . S
C689 C688 1.502 . S
C690 H676 0.960 . S
C690 H677 0.961 . S
C690 H678 0.959 . S
C690 C688 1.561 . S
C691 C688 1.526 . S
C691 C692 1.396 . S
C691 C696 1.390 . S
C692 C686 1.465 . S
C692 C691 1.396 . S
C692 C693 1.399 . S
C693 H679 0.929 . S
C693 C692 1.399 . S
C693 C694 1.385 . S
C694 H680 0.931 . S
C694 C693 1.385 . S
C694 C695 1.389 . S
C695 C694 1.389 . S
C695 C696 1.387 . S
C696 H681 0.930 . S
C696 C691 1.390 . S
C696 C695 1.387 . S
H697 C709 0.930 . S
H698 C711 0.930 . S
H699 C712 0.930 . S
H700 C716 0.959 . S
H701 C716 0.959 . S
H702 C716 0.961 . S
H703 C717 0.960 . S
H704 C717 0.961 . S
H705 C717 0.959 . S
H706 C720 0.929 . S
H707 C721 0.931 . S
H708 C723 0.930 . S
C709 H697 0.930 . S
C709 C710 1.399 . S
C709 C714 1.399 . S
C710 C709 1.399 . S
C710 C711 1.376 . S
C711 H698 0.930 . S
C711 C710 1.376 . S
C711 C712 1.388 . S
C712 H699 0.930 . S
C712 C711 1.388 . S
C712 C713 1.390 . S
C713 C712 1.390 . S
C713 C714 1.394 . S
C713 C719 1.465 . S
C714 C709 1.399 . S
C714 C713 1.394 . S
C714 C715 1.516 . S
C715 C714 1.516 . S
C715 C716 1.502 . S
C715 C717 1.561 . S
C715 C718 1.526 . S
C716 H700 0.959 . S
C716 H701 0.959 . S
C716 H702 0.961 . S
C716 C715 1.502 . S
C717 H703 0.960 . S
C717 H704 0.961 . S
C717 H705 0.959 . S
C717 C715 1.561 . S
C718 C715 1.526 . S
C718 C719 1.396 . S
C718 C723 1.390 . S
C719 C713 1.465 . S
C719 C718 1.396 . S
C719 C720 1.399 . S
C720 H706 0.929 . S
C720 C719 1.399 . S
C720 C721 1.385 . S
C721 H707 0.931 . S
C721 C720 1.385 . S
C721 C722 1.389 . S
C722 C721 1.389 . S
C722 C723 1.387 . S
C723 H708 0.930 . S
C723 C718 1.390 . S
C723 C722 1.387 . S
H724 C736 0.930 . S
H725 C738 0.930 . S
H726 C739 0.930 1_565 S
H727 C743 0.959 . S
H728 C743 0.959 . S
H729 C743 0.961 . S
H730 C744 0.960 . S
H731 C744 0.961 . S
H732 C744 0.959 . S
H733 C747 0.929 . S
H734 C748 0.931 . S
H735 C750 0.930 . S
C736 H724 0.930 . S
C736 C737 1.399 . S
C736 C741 1.399 . S
C737 C736 1.399 . S
C737 C738 1.376 1_545 S
C738 H725 0.930 . S
C738 C737 1.376 1_565 S
C738 C739 1.388 1_565 S
C739 H726 0.930 1_545 S
C739 C738 1.388 1_545 S
C739 C740 1.390 . S
C740 C739 1.390 . S
C740 C741 1.394 . S
C740 C746 1.465 . S
C741 C736 1.399 . S
C741 C740 1.394 . S
C741 C742 1.516 . S
C742 C741 1.516 . S
C742 C743 1.502 . S
C742 C744 1.561 . S
C742 C745 1.526 . S
C743 H727 0.959 . S
C743 H728 0.959 . S
C743 H729 0.961 . S
C743 C742 1.502 . S
C744 H730 0.960 . S
C744 H731 0.961 . S
C744 H732 0.959 . S
C744 C742 1.561 . S
C745 C742 1.526 . S
C745 C746 1.396 . S
C745 C750 1.390 . S
C746 C740 1.465 . S
C746 C745 1.396 . S
C746 C747 1.399 . S
C747 H733 0.929 . S
C747 C746 1.399 . S
C747 C748 1.385 . S
C748 H734 0.931 . S
C748 C747 1.385 . S
C748 C749 1.389 . S
C749 C748 1.389 . S
C749 C750 1.387 . S
C750 H735 0.930 . S
C750 C745 1.390 . S
C750 C749 1.387 . S
H751 C763 0.930 . S
H752 C765 0.930 . S
H753 C766 0.930 1_545 S
H754 C770 0.959 . S
H755 C770 0.959 . S
H756 C770 0.961 . S
H757 C771 0.960 . S
H758 C771 0.961 . S
H759 C771 0.959 . S
H760 C774 0.929 . S
H761 C775 0.931 . S
H762 C777 0.930 . S
C763 H751 0.930 . S
C763 C764 1.399 . S
C763 C768 1.399 . S
C764 C763 1.399 . S
C764 C765 1.376 1_565 S
C765 H752 0.930 . S
C765 C764 1.376 1_545 S
C765 C766 1.388 1_545 S
C766 H753 0.930 1_565 S
C766 C765 1.388 1_565 S
C766 C767 1.390 . S
C767 C766 1.390 . S
C767 C768 1.394 . S
C767 C773 1.465 . S
C768 C763 1.399 . S
C768 C767 1.394 . S
C768 C769 1.516 . S
C769 C768 1.516 . S
C769 C770 1.502 . S
C769 C771 1.561 . S
C769 C772 1.526 . S
C770 H754 0.959 . S
C770 H755 0.959 . S
C770 H756 0.961 . S
C770 C769 1.502 . S
C771 H757 0.960 . S
C771 H758 0.961 . S
C771 H759 0.959 . S
C771 C769 1.561 . S
C772 C769 1.526 . S
C772 C773 1.396 . S
C772 C777 1.390 . S
C773 C767 1.465 . S
C773 C772 1.396 . S
C773 C774 1.399 . S
C774 H760 0.929 . S
C774 C773 1.399 . S
C774 C775 1.385 . S
C775 H761 0.931 . S
C775 C774 1.385 . S
C775 C776 1.389 . S
C776 C775 1.389 . S
C776 C777 1.387 . S
C777 H762 0.930 . S
C777 C772 1.390 . S
C777 C776 1.387 . S
H778 C790 0.930 . S
H779 C792 0.930 . S
H780 C793 0.930 . S
H781 C797 0.959 . S
H782 C797 0.959 . S
H783 C797 0.961 . S
H784 C798 0.960 . S
H785 C798 0.961 . S
H786 C798 0.959 . S
H787 C801 0.929 . S
H788 C802 0.931 . S
H789 C804 0.930 . S
C790 H778 0.930 . S
C790 C791 1.399 . S
C790 C795 1.399 . S
C791 C790 1.399 . S
C791 C792 1.376 . S
C792 H779 0.930 . S
C792 C791 1.376 . S
C792 C793 1.388 . S
C793 H780 0.930 . S
C793 C792 1.388 . S
C793 C794 1.390 . S
C794 C793 1.390 . S
C794 C795 1.394 . S
C794 C800 1.465 . S
C795 C790 1.399 . S
C795 C794 1.394 . S
C795 C796 1.516 . S
C796 C795 1.516 . S
C796 C797 1.502 . S
C796 C798 1.561 . S
C796 C799 1.526 . S
C797 H781 0.959 . S
C797 H782 0.959 . S
C797 H783 0.961 . S
C797 C796 1.502 . S
C798 H784 0.960 . S
C798 H785 0.961 . S
C798 H786 0.959 . S
C798 C796 1.561 . S
C799 C796 1.526 . S
C799 C800 1.396 . S
C799 C804 1.390 . S
C800 C794 1.465 . S
C800 C799 1.396 . S
C800 C801 1.399 . S
C801 H787 0.929 . S
C801 C800 1.399 . S
C801 C802 1.385 . S
C802 H788 0.931 . S
C802 C801 1.385 . S
C802 C803 1.389 . S
C803 C802 1.389 . S
C803 C804 1.387 . S
C804 H789 0.930 . S
C804 C799 1.390 . S
C804 C803 1.387 . S
H805 C817 0.930 1_545 S
H806 C819 0.930 . S
H807 C820 0.930 . S
H808 C824 0.959 . S
H809 C824 0.959 . S
H810 C824 0.961 . S
H811 C825 0.960 1_545 S
H812 C825 0.961 . S
H813 C825 0.959 . S
H814 C828 0.929 . S
H815 C829 0.931 . S
H816 C831 0.930 . S
C817 H805 0.930 1_565 S
C817 C818 1.399 . S
C817 C822 1.399 . S
C818 C817 1.399 . S
C818 C819 1.376 . S
C819 H806 0.930 . S
C819 C818 1.376 . S
C819 C820 1.388 . S
C820 H807 0.930 . S
C820 C819 1.388 . S
C820 C821 1.390 . S
C821 C820 1.390 . S
C821 C822 1.394 . S
C821 C827 1.465 . S
C822 C817 1.399 . S
C822 C821 1.394 . S
C822 C823 1.516 . S
C823 C822 1.516 . S
C823 C824 1.502 . S
C823 C825 1.561 . S
C823 C826 1.526 . S
C824 H808 0.959 . S
C824 H809 0.959 . S
C824 H810 0.961 . S
C824 C823 1.502 . S
C825 H811 0.960 1_565 S
C825 H812 0.961 . S
C825 H813 0.959 . S
C825 C823 1.561 . S
C826 C823 1.526 . S
C826 C827 1.396 . S
C826 C831 1.390 . S
C827 C821 1.465 . S
C827 C826 1.396 . S
C827 C828 1.399 . S
C828 H814 0.929 . S
C828 C827 1.399 . S
C828 C829 1.385 . S
C829 H815 0.931 . S
C829 C828 1.385 . S
C829 C830 1.389 . S
C830 C829 1.389 . S
C830 C831 1.387 . S
C831 H816 0.930 . S
C831 C826 1.390 . S
C831 C830 1.387 . S
H832 C844 0.930 . S
H833 C846 0.930 . S
H834 C847 0.930 . S
H835 C851 0.959 . S
H836 C851 0.959 . S
H837 C851 0.961 . S
H838 C852 0.960 . S
H839 C852 0.961 . S
H840 C852 0.959 . S
H841 C855 0.929 . S
H842 C856 0.931 . S
H843 C858 0.930 . S
C844 H832 0.930 . S
C844 C845 1.399 . S
C844 C849 1.399 . S
C845 C844 1.399 . S
C845 C846 1.376 . S
C846 H833 0.930 . S
C846 C845 1.376 . S
C846 C847 1.388 . S
C847 H834 0.930 . S
C847 C846 1.388 . S
C847 C848 1.390 . S
C848 C847 1.390 . S
C848 C849 1.394 . S
C848 C854 1.465 . S
C849 C844 1.399 . S
C849 C848 1.394 . S
C849 C850 1.516 . S
C850 C849 1.516 . S
C850 C851 1.502 . S
C850 C852 1.561 . S
C850 C853 1.526 . S
C851 H835 0.959 . S
C851 H836 0.959 . S
C851 H837 0.961 . S
C851 C850 1.502 . S
C852 H838 0.960 . S
C852 H839 0.961 . S
C852 H840 0.959 . S
C852 C850 1.561 . S
C853 C850 1.526 . S
C853 C854 1.396 . S
C853 C858 1.390 . S
C854 C848 1.465 . S
C854 C853 1.396 . S
C854 C855 1.399 . S
C855 H841 0.929 . S
C855 C854 1.399 . S
C855 C856 1.385 . S
C856 H842 0.931 . S
C856 C855 1.385 . S
C856 C857 1.389 . S
C857 C856 1.389 . S
C857 C858 1.387 . S
C858 H843 0.930 . S
C858 C853 1.390 . S
C858 C857 1.387 . S
H859 C871 0.930 . S
H860 C873 0.930 . S
H861 C874 0.930 . S
H862 C878 0.959 . S
H863 C878 0.959 . S
H864 C878 0.961 . S
H865 C879 0.960 . S
H866 C879 0.961 . S
H867 C879 0.959 . S
H868 C882 0.929 . S
H869 C883 0.931 . S
H870 C885 0.930 . S
C871 H859 0.930 . S
C871 C872 1.399 . S
C871 C876 1.399 . S
C872 C871 1.399 . S
C872 C873 1.376 . S
C873 H860 0.930 . S
C873 C872 1.376 . S
C873 C874 1.388 . S
C874 H861 0.930 . S
C874 C873 1.388 . S
C874 C875 1.390 . S
C875 C874 1.390 . S
C875 C876 1.394 . S
C875 C881 1.465 . S
C876 C871 1.399 . S
C876 C875 1.394 . S
C876 C877 1.516 . S
C877 C876 1.516 . S
C877 C878 1.502 . S
C877 C879 1.561 . S
C877 C880 1.526 . S
C878 H862 0.959 . S
C878 H863 0.959 . S
C878 H864 0.961 . S
C878 C877 1.502 . S
C879 H865 0.960 . S
C879 H866 0.961 . S
C879 H867 0.959 . S
C879 C877 1.561 . S
C880 C877 1.526 . S
C880 C881 1.396 . S
C880 C885 1.390 . S
C881 C875 1.465 . S
C881 C880 1.396 . S
C881 C882 1.399 . S
C882 H868 0.929 . S
C882 C881 1.399 . S
C882 C883 1.385 . S
C883 H869 0.931 . S
C883 C882 1.385 . S
C883 C884 1.389 . S
C884 C883 1.389 . S
C884 C885 1.387 . S
C885 H870 0.930 . S
C885 C880 1.390 . S
C885 C884 1.387 . S
H886 C898 0.930 . S
H887 C900 0.930 . S
H888 C901 0.930 . S
H889 C905 0.959 . S
H890 C905 0.959 . S
H891 C905 0.961 . S
H892 C906 0.960 . S
H893 C906 0.961 . S
H894 C906 0.959 . S
H895 C909 0.929 . S
H896 C910 0.931 . S
H897 C912 0.930 . S
C898 H886 0.930 . S
C898 C899 1.399 . S
C898 C903 1.399 . S
C899 C898 1.399 . S
C899 C900 1.376 . S
C900 H887 0.930 . S
C900 C899 1.376 . S
C900 C901 1.388 . S
C901 H888 0.930 . S
C901 C900 1.388 . S
C901 C902 1.390 . S
C902 C901 1.390 . S
C902 C903 1.394 . S
C902 C908 1.465 . S
C903 C898 1.399 . S
C903 C902 1.394 . S
C903 C904 1.516 . S
C904 C903 1.516 . S
C904 C905 1.502 . S
C904 C906 1.561 . S
C904 C907 1.526 . S
C905 H889 0.959 . S
C905 H890 0.959 . S
C905 H891 0.961 . S
C905 C904 1.502 . S
C906 H892 0.960 . S
C906 H893 0.961 . S
C906 H894 0.959 . S
C906 C904 1.561 . S
C907 C904 1.526 . S
C907 C908 1.396 . S
C907 C912 1.390 . S
C908 C902 1.465 . S
C908 C907 1.396 . S
C908 C909 1.399 . S
C909 H895 0.929 . S
C909 C908 1.399 . S
C909 C910 1.385 . S
C910 H896 0.931 . S
C910 C909 1.385 . S
C910 C911 1.389 . S
C911 C910 1.389 . S
C911 C912 1.387 . S
C912 H897 0.930 . S
C912 C907 1.390 . S
C912 C911 1.387 . S
H913 C925 0.930 . S
H914 C927 0.930 . S
H915 C928 0.930 . S
H916 C932 0.959 . S
H917 C932 0.959 . S
H918 C932 0.961 . S
H919 C933 0.960 . S
H920 C933 0.961 . S
H921 C933 0.959 . S
H922 C936 0.929 . S
H923 C937 0.931 . S
H924 C939 0.930 . S
C925 H913 0.930 . S
C925 C926 1.399 . S
C925 C930 1.399 . S
C926 C925 1.399 . S
C926 C927 1.376 . S
C927 H914 0.930 . S
C927 C926 1.376 . S
C927 C928 1.388 . S
C928 H915 0.930 . S
C928 C927 1.388 . S
C928 C929 1.390 . S
C929 C928 1.390 . S
C929 C930 1.394 . S
C929 C935 1.465 . S
C930 C925 1.399 . S
C930 C929 1.394 . S
C930 C931 1.516 . S
C931 C930 1.516 . S
C931 C932 1.502 . S
C931 C933 1.561 . S
C931 C934 1.526 . S
C932 H916 0.959 . S
C932 H917 0.959 . S
C932 H918 0.961 . S
C932 C931 1.502 . S
C933 H919 0.960 . S
C933 H920 0.961 . S
C933 H921 0.959 . S
C933 C931 1.561 . S
C934 C931 1.526 . S
C934 C935 1.396 . S
C934 C939 1.390 . S
C935 C929 1.465 . S
C935 C934 1.396 . S
C935 C936 1.399 . S
C936 H922 0.929 . S
C936 C935 1.399 . S
C936 C937 1.385 . S
C937 H923 0.931 . S
C937 C936 1.385 . S
C937 C938 1.389 . S
C938 C937 1.389 . S
C938 C939 1.387 . S
C939 H924 0.930 . S
C939 C934 1.390 . S
C939 C938 1.387 . S
H940 C952 0.930 . S
H941 C954 0.930 . S
H942 C955 0.930 . S
H943 C959 0.959 . S
H944 C959 0.959 . S
H945 C959 0.961 . S
H946 C960 0.960 . S
H947 C960 0.961 . S
H948 C960 0.959 . S
H949 C963 0.929 . S
H950 C964 0.931 . S
H951 C966 0.930 . S
C952 H940 0.930 . S
C952 C953 1.399 . S
C952 C957 1.399 . S
C953 C952 1.399 . S
C953 C954 1.376 . S
C954 H941 0.930 . S
C954 C953 1.376 . S
C954 C955 1.388 . S
C955 H942 0.930 . S
C955 C954 1.388 . S
C955 C956 1.390 . S
C956 C955 1.390 . S
C956 C957 1.394 . S
C956 C962 1.465 . S
C957 C952 1.399 . S
C957 C956 1.394 . S
C957 C958 1.516 . S
C958 C957 1.516 . S
C958 C959 1.502 . S
C958 C960 1.561 . S
C958 C961 1.526 . S
C959 H943 0.959 . S
C959 H944 0.959 . S
C959 H945 0.961 . S
C959 C958 1.502 . S
C960 H946 0.960 . S
C960 H947 0.961 . S
C960 H948 0.959 . S
C960 C958 1.561 . S
C961 C958 1.526 . S
C961 C962 1.396 . S
C961 C966 1.390 . S
C962 C956 1.465 . S
C962 C961 1.396 . S
C962 C963 1.399 . S
C963 H949 0.929 . S
C963 C962 1.399 . S
C963 C964 1.385 . S
C964 H950 0.931 . S
C964 C963 1.385 . S
C964 C965 1.389 . S
C965 C964 1.389 . S
C965 C966 1.387 . S
C966 H951 0.930 . S
C966 C961 1.390 . S
C966 C965 1.387 . S
H967 C979 0.930 . S
H968 C981 0.930 . S
H969 C982 0.930 . S
H970 C986 0.959 . S
H971 C986 0.959 . S
H972 C986 0.961 . S
H973 C987 0.960 . S
H974 C987 0.961 . S
H975 C987 0.959 . S
H976 C990 0.929 . S
H977 C991 0.931 . S
H978 C993 0.930 . S
C979 H967 0.930 . S
C979 C980 1.399 . S
C979 C984 1.399 . S
C980 C979 1.399 . S
C980 C981 1.376 . S
C981 H968 0.930 . S
C981 C980 1.376 . S
C981 C982 1.388 . S
C982 H969 0.930 . S
C982 C981 1.388 . S
C982 C983 1.390 . S
C983 C982 1.390 . S
C983 C984 1.394 . S
C983 C989 1.465 . S
C984 C979 1.399 . S
C984 C983 1.394 . S
C984 C985 1.516 . S
C985 C984 1.516 . S
C985 C986 1.502 . S
C985 C987 1.561 . S
C985 C988 1.526 . S
C986 H970 0.959 . S
C986 H971 0.959 . S
C986 H972 0.961 . S
C986 C985 1.502 . S
C987 H973 0.960 . S
C987 H974 0.961 . S
C987 H975 0.959 . S
C987 C985 1.561 . S
C988 C985 1.526 . S
C988 C989 1.396 . S
C988 C993 1.390 . S
C989 C983 1.465 . S
C989 C988 1.396 . S
C989 C990 1.399 . S
C990 H976 0.929 . S
C990 C989 1.399 . S
C990 C991 1.385 . S
C991 H977 0.931 . S
C991 C990 1.385 . S
C991 C992 1.389 . S
C992 C991 1.389 . S
C992 C993 1.387 . S
C993 H978 0.930 . S
C993 C988 1.390 . S
C993 C992 1.387 . S
H994 C1006 0.930 . S
H995 C1008 0.930 . S
H996 C1009 0.930 . S
H997 C1013 0.959 . S
H998 C1013 0.959 . S
H999 C1013 0.961 . S
H1000 C1014 0.960 . S
H1001 C1014 0.961 . S
H1002 C1014 0.959 . S
H1003 C1017 0.929 . S
H1004 C1018 0.931 . S
H1005 C1020 0.930 . S
C1006 H994 0.930 . S
C1006 C1007 1.399 . S
C1006 C1011 1.399 . S
C1007 C1006 1.399 . S
C1007 C1008 1.376 . S
C1008 H995 0.930 . S
C1008 C1007 1.376 . S
C1008 C1009 1.388 . S
C1009 H996 0.930 . S
C1009 C1008 1.388 . S
C1009 C1010 1.390 . S
C1010 C1009 1.390 . S
C1010 C1011 1.394 . S
C1010 C1016 1.465 . S
C1011 C1006 1.399 . S
C1011 C1010 1.394 . S
C1011 C1012 1.516 . S
C1012 C1011 1.516 . S
C1012 C1013 1.502 . S
C1012 C1014 1.561 . S
C1012 C1015 1.526 . S
C1013 H997 0.959 . S
C1013 H998 0.959 . S
C1013 H999 0.961 . S
C1013 C1012 1.502 . S
C1014 H1000 0.960 . S
C1014 H1001 0.961 . S
C1014 H1002 0.959 . S
C1014 C1012 1.561 . S
C1015 C1012 1.526 . S
C1015 C1016 1.396 . S
C1015 C1020 1.390 . S
C1016 C1010 1.465 . S
C1016 C1015 1.396 . S
C1016 C1017 1.399 . S
C1017 H1003 0.929 . S
C1017 C1016 1.399 . S
C1017 C1018 1.385 . S
C1018 H1004 0.931 . S
C1018 C1017 1.385 . S
C1018 C1019 1.389 . S
C1019 C1018 1.389 . S
C1019 C1020 1.387 . S
C1020 H1005 0.930 . S
C1020 C1015 1.390 . S
C1020 C1019 1.387 . S
H1021 C1033 0.930 . S
H1022 C1035 0.930 . S
H1023 C1036 0.930 . S
H1024 C1040 0.959 . S
H1025 C1040 0.959 . S
H1026 C1040 0.961 . S
H1027 C1041 0.960 . S
H1028 C1041 0.961 . S
H1029 C1041 0.959 . S
H1030 C1044 0.929 . S
H1031 C1045 0.931 . S
H1032 C1047 0.930 . S
C1033 H1021 0.930 . S
C1033 C1034 1.399 . S
C1033 C1038 1.399 . S
C1034 C1033 1.399 . S
C1034 C1035 1.376 . S
C1035 H1022 0.930 . S
C1035 C1034 1.376 . S
C1035 C1036 1.388 . S
C1036 H1023 0.930 . S
C1036 C1035 1.388 . S
C1036 C1037 1.390 . S
C1037 C1036 1.390 . S
C1037 C1038 1.394 . S
C1037 C1043 1.465 . S
C1038 C1033 1.399 . S
C1038 C1037 1.394 . S
C1038 C1039 1.516 . S
C1039 C1038 1.516 . S
C1039 C1040 1.502 . S
C1039 C1041 1.561 . S
C1039 C1042 1.526 . S
C1040 H1024 0.959 . S
C1040 H1025 0.959 . S
C1040 H1026 0.961 . S
C1040 C1039 1.502 . S
C1041 H1027 0.960 . S
C1041 H1028 0.961 . S
C1041 H1029 0.959 . S
C1041 C1039 1.561 . S
C1042 C1039 1.526 . S
C1042 C1043 1.396 . S
C1042 C1047 1.390 . S
C1043 C1037 1.465 . S
C1043 C1042 1.396 . S
C1043 C1044 1.399 . S
C1044 H1030 0.929 . S
C1044 C1043 1.399 . S
C1044 C1045 1.385 . S
C1045 H1031 0.931 . S
C1045 C1044 1.385 . S
C1045 C1046 1.389 . S
C1046 C1045 1.389 . S
C1046 C1047 1.387 . S
C1047 H1032 0.930 . S
C1047 C1042 1.390 . S
C1047 C1046 1.387 . S
C413 C21 1.538 . S
C425 C355 1.546 . S
C452 C319 1.520 . S
C440 C60 1.564 . S
C479 C342 1.533 . S
C467 C99 1.530 . S
C506 C330 1.509 . S
C494 C138 1.537 . S
C533 C399 1.508 . S
C521 C177 1.566 . S
C560 C363 1.546 . S
C548 C216 1.550 . S
C575 C255 1.548 . S
C587 C386 1.511 . S
C614 C374 1.529 . S
C602 C294 1.521 . S
C629 C1 1.487 . S
C641 C396 1.521 . S
C668 C366 1.527 . S
C656 C40 1.501 . S
C683 C79 1.559 . S
C695 C385 1.565 . S
C710 C133 1.529 . S
C722 C371 1.551 . S
C749 C352 1.521 . S
C737 C157 1.496 1_545 S
C764 C196 1.491 1_565 S
C776 C322 1.520 . S
C803 C341 1.552 . S
C791 C235 1.523 1_545 S
C830 C327 1.546 . S
C818 C289 1.521 1_565 S
C857 C377 1.544 . S
C845 C16 1.536 . S
C884 C393 1.543 . S
C872 C55 1.535 . S
C899 C94 1.465 . S
C911 C364 1.507 . S
C938 C388 1.509 . S
C926 C118 1.470 . S
C965 C333 1.513 . S
C953 C172 1.500 . S
C980 C211 1.528 . S
C992 C349 1.540 . S
C1007 C250 1.490 . S
C1019 C320 1.494 . S
C1034 C274 1.508 . S
C1046 C344 1.500 . S
