# Generated by pormake.
# Topology pto, (3,4)-cn, num edge types: 1
# Building blocks:
#     Node 0, Type 0, BuildingBlock: VETTIZ_charged_linker_0, # of connection points: 3
#     Node 1, Type 0, BuildingBlock: VETTIZ_charged_linker_0, # of connection points: 3
#     Node 2, Type 0, BuildingBlock: VETTIZ_charged_linker_0, # of connection points: 3
#     Node 3, Type 0, BuildingBlock: VETTIZ_charged_linker_0, # of connection points: 3
#     Node 4, Type 0, BuildingBlock: VETTIZ_charged_linker_0, # of connection points: 3
#     Node 5, Type 0, BuildingBlock: VETTIZ_charged_linker_0, # of connection points: 3
#     Node 6, Type 0, BuildingBlock: VETTIZ_charged_linker_0, # of connection points: 3
#     Node 7, Type 0, BuildingBlock: VETTIZ_charged_linker_0, # of connection points: 3
#     Node 8, Type 1, BuildingBlock: NAWXER_clean_sbu_0, # of connection points: 4
#     Node 9, Type 1, BuildingBlock: NAWXER_clean_sbu_0, # of connection points: 4
#     Node 10, Type 1, BuildingBlock: NAWXER_clean_sbu_0, # of connection points: 4
#     Node 11, Type 1, BuildingBlock: NAWXER_clean_sbu_0, # of connection points: 4
#     Node 12, Type 1, BuildingBlock: NAWXER_clean_sbu_0, # of connection points: 4
#     Node 13, Type 1, BuildingBlock: NAWXER_clean_sbu_0, # of connection points: 4
#     Edge 14, Type (0, 1), BuildingBlock: CIFDUS_clean_linker_0, # of connection points: 2
#     Edge 15, Type (0, 1), BuildingBlock: CIFDUS_clean_linker_0, # of connection points: 2
#     Edge 16, Type (0, 1), BuildingBlock: CIFDUS_clean_linker_0, # of connection points: 2
#     Edge 17, Type (0, 1), BuildingBlock: CIFDUS_clean_linker_0, # of connection points: 2
#     Edge 18, Type (0, 1), BuildingBlock: CIFDUS_clean_linker_0, # of connection points: 2
#     Edge 19, Type (0, 1), BuildingBlock: CIFDUS_clean_linker_0, # of connection points: 2
#     Edge 20, Type (0, 1), BuildingBlock: CIFDUS_clean_linker_0, # of connection points: 2
#     Edge 21, Type (0, 1), BuildingBlock: CIFDUS_clean_linker_0, # of connection points: 2
#     Edge 22, Type (0, 1), BuildingBlock: CIFDUS_clean_linker_0, # of connection points: 2
#     Edge 23, Type (0, 1), BuildingBlock: CIFDUS_clean_linker_0, # of connection points: 2
#     Edge 24, Type (0, 1), BuildingBlock: CIFDUS_clean_linker_0, # of connection points: 2
#     Edge 25, Type (0, 1), BuildingBlock: CIFDUS_clean_linker_0, # of connection points: 2
#     Edge 26, Type (0, 1), BuildingBlock: CIFDUS_clean_linker_0, # of connection points: 2
#     Edge 27, Type (0, 1), BuildingBlock: CIFDUS_clean_linker_0, # of connection points: 2
#     Edge 28, Type (0, 1), BuildingBlock: CIFDUS_clean_linker_0, # of connection points: 2
#     Edge 29, Type (0, 1), BuildingBlock: CIFDUS_clean_linker_0, # of connection points: 2
#     Edge 30, Type (0, 1), BuildingBlock: CIFDUS_clean_linker_0, # of connection points: 2
#     Edge 31, Type (0, 1), BuildingBlock: CIFDUS_clean_linker_0, # of connection points: 2
#     Edge 32, Type (0, 1), BuildingBlock: CIFDUS_clean_linker_0, # of connection points: 2
#     Edge 33, Type (0, 1), BuildingBlock: CIFDUS_clean_linker_0, # of connection points: 2
#     Edge 34, Type (0, 1), BuildingBlock: CIFDUS_clean_linker_0, # of connection points: 2
#     Edge 35, Type (0, 1), BuildingBlock: CIFDUS_clean_linker_0, # of connection points: 2
#     Edge 36, Type (0, 1), BuildingBlock: CIFDUS_clean_linker_0, # of connection points: 2
#     Edge 37, Type (0, 1), BuildingBlock: CIFDUS_clean_linker_0, # of connection points: 2
# Relax obj value: 0.000
# Max RMSD: 0.000
# Mean RMSD: 0.000
data_MOF--net-pto--node1-NAWXER_clean_sbu_0--node2-VETTIZ_charged_linker_0--edge1-CIFDUS_clean_linker_0
_symmetry_space_group_name_H-M    P1
_symmetry_Int_Tables_number       1
_symmetry_cell_setting            triclinic
loop_
_symmetry_equiv_pos_as_xyz
'x, y, z'
_cell_length_a     47.738421
_cell_length_b     44.93255
_cell_length_c     42.099924
_cell_angle_alpha  90.068243
_cell_angle_beta   89.964371
_cell_angle_gamma 89.936666
loop_
_atom_site_label
_atom_site_type_symbol
_atom_site_fract_x
_atom_site_fract_y
_atom_site_fract_z
_atom_type_partial_charge
C0 C 0.21381 0.19129 0.32193 0.0
C1 C 0.23303 0.16821 0.32798 0.0
C2 C 0.25764 0.16666 0.30933 0.0
C3 C 0.24402 0.21118 0.28067 0.0
C4 C 0.2199 0.2126 0.29874 0.0
C5 C 0.2028 0.23987 0.29167 0.0
H6 H 0.18667 0.36972 0.21277 0.0
C7 C 0.24469 0.2377 0.25987 0.0
C8 C 0.22074 0.25474 0.26654 0.0
H9 H 0.13269 0.33067 0.28386 0.0
H10 H 0.16322 0.28826 0.28782 0.0
H11 H 0.20087 0.3053 0.17441 0.0
H12 H 0.24255 0.35627 0.24705 0.0
H13 H 0.26888 0.34004 0.22363 0.0
H14 H 0.24488 0.36633 0.20591 0.0
H15 H 0.21516 0.34178 0.16804 0.0
H16 H 0.23658 0.30901 0.16443 0.0
C17 C 0.17421 0.22962 0.27812 0.0
C18 C 0.20084 0.25877 0.3225 0.0
C19 C 0.32392 0.25134 0.18026 0.0
C20 C 0.33134 0.27472 0.15955 0.0
C21 C 0.31447 0.30064 0.15947 0.0
C22 C 0.29044 0.30279 0.17845 0.0
C23 C 0.28318 0.27907 0.19844 0.0
C24 C 0.30016 0.25418 0.19968 0.0
C25 C 0.29046 0.23229 0.22441 0.0
C26 C 0.2642 0.24761 0.2367 0.0
C27 C 0.25989 0.2749 0.22115 0.0
C28 C 0.28358 0.20251 0.20768 0.0
C29 C 0.31344 0.22986 0.25034 0.0
C30 C 0.18141 0.35182 0.22891 0.0
C31 C 0.15734 0.35354 0.24816 0.0
C32 C 0.15129 0.32999 0.26911 0.0
C33 C 0.16904 0.30532 0.27131 0.0
C34 C 0.19333 0.30412 0.25254 0.0
C35 C 0.19917 0.327 0.23164 0.0
C36 C 0.22634 0.32193 0.21415 0.0
C37 C 0.23567 0.29225 0.22801 0.0
C38 C 0.21618 0.28204 0.25043 0.0
C39 C 0.21964 0.3195 0.17829 0.0
C40 C 0.24681 0.34747 0.2228 0.0
H41 H 0.28221 0.18549 0.27245 0.0
H42 H 0.19449 0.19317 0.33527 0.0
H43 H 0.21981 0.25584 0.33753 0.0
H44 H 0.19998 0.28295 0.31785 0.0
H45 H 0.18241 0.25227 0.33701 0.0
H46 H 0.1768 0.20964 0.26275 0.0
H47 H 0.15945 0.22368 0.2975 0.0
H48 H 0.16428 0.24642 0.26264 0.0
H49 H 0.33609 0.23105 0.18134 0.0
H50 H 0.3199 0.31963 0.14495 0.0
H51 H 0.27854 0.323 0.17701 0.0
H52 H 0.27117 0.20656 0.18574 0.0
H53 H 0.30306 0.19061 0.20075 0.0
H54 H 0.27078 0.18751 0.22246 0.0
H55 H 0.32644 0.25037 0.25153 0.0
H56 H 0.30458 0.22757 0.2745 0.0
H57 H 0.32779 0.21089 0.24558 0.0
H58 H 0.27321 0.1496 0.31359 0.0
C59 C 0.2631 0.18783 0.28563 0.0
C60 C 0.18658 0.64304 0.74185 0.0
C61 C 0.16356 0.64143 0.72081 0.0
C62 C 0.15996 0.66468 0.69859 0.0
C63 C 0.20009 0.69085 0.71993 0.0
C64 C 0.20474 0.66754 0.74057 0.0
C65 C 0.23122 0.67173 0.75958 0.0
H66 H 0.33921 0.76071 0.80229 0.0
C67 C 0.22218 0.71331 0.72509 0.0
C68 C 0.2408 0.7021 0.74793 0.0
H69 H 0.32533 0.66854 0.8283 0.0
H70 H 0.28319 0.66796 0.79714 0.0
H71 H 0.27335 0.78312 0.80238 0.0
H72 H 0.32912 0.74933 0.73036 0.0
H73 H 0.30779 0.77602 0.71194 0.0
H74 H 0.3309 0.7872 0.74373 0.0
H75 H 0.30386 0.80272 0.7888 0.0
H76 H 0.27087 0.80594 0.76844 0.0
C77 C 0.22345 0.67235 0.79524 0.0
C78 C 0.25216 0.64671 0.75038 0.0
C79 C 0.21618 0.81236 0.66757 0.0
C80 C 0.23371 0.83753 0.66643 0.0
C81 C 0.25779 0.83798 0.68597 0.0
C82 C 0.26431 0.81392 0.70588 0.0
C83 C 0.24686 0.78876 0.70609 0.0
C84 C 0.22331 0.7883 0.68706 0.0
C85 C 0.20791 0.7592 0.68899 0.0
C86 C 0.22595 0.74236 0.71262 0.0
C87 C 0.24862 0.75982 0.72276 0.0
C88 C 0.17824 0.76555 0.70225 0.0
C89 C 0.20826 0.74444 0.65561 0.0
C90 C 0.32753 0.74013 0.80118 0.0
C91 C 0.33604 0.71472 0.8184 0.0
C92 C 0.31935 0.6888 0.8162 0.0
C93 C 0.29492 0.68829 0.79765 0.0
C94 C 0.28713 0.71372 0.78041 0.0
C95 C 0.30354 0.73894 0.78205 0.0
C96 C 0.29324 0.76315 0.76026 0.0
C97 C 0.26781 0.74835 0.74549 0.0
C98 C 0.26407 0.71955 0.75777 0.0
C99 C 0.28499 0.79036 0.78082 0.0
C100 C 0.31639 0.76958 0.73532 0.0
H101 H 0.17354 0.70634 0.6811 0.0
H102 H 0.19044 0.62587 0.75929 0.0
H103 H 0.2475 0.63732 0.7265 0.0
H104 H 0.27395 0.65493 0.74851 0.0
H105 H 0.25144 0.62805 0.76764 0.0
H106 H 0.20524 0.68732 0.79939 0.0
H107 H 0.21767 0.64977 0.80372 0.0
H108 H 0.24053 0.68084 0.81038 0.0
H109 H 0.19735 0.8111 0.65333 0.0
H110 H 0.27215 0.8566 0.68533 0.0
H111 H 0.28296 0.81564 0.71996 0.0
H112 H 0.17935 0.78111 0.72279 0.0
H113 H 0.16475 0.77596 0.68385 0.0
H114 H 0.16759 0.74549 0.71124 0.0
H115 H 0.226 0.75265 0.64088 0.0
H116 H 0.21148 0.72006 0.65679 0.0
H117 H 0.18863 0.74917 0.64238 0.0
H118 H 0.14343 0.66391 0.68105 0.0
C119 C 0.1778 0.68937 0.6983 0.0
C120 C 0.83795 0.69237 0.23574 0.0
C121 C 0.84377 0.67258 0.21053 0.0
C122 C 0.82323 0.66903 0.1866 0.0
C123 C 0.79222 0.70372 0.21359 0.0
C124 C 0.81255 0.70794 0.23646 0.0
C125 C 0.80446 0.73137 0.26031 0.0
H126 H 0.70808 0.82822 0.31691 0.0
C127 C 0.76805 0.72302 0.22171 0.0
C128 C 0.77529 0.73945 0.24893 0.0
H129 H 0.79462 0.81775 0.34597 0.0
H130 H 0.80046 0.77815 0.30834 0.0
H131 H 0.69375 0.75861 0.30627 0.0
H132 H 0.72246 0.82834 0.24462 0.0
H133 H 0.69878 0.80716 0.22229 0.0
H134 H 0.68677 0.82589 0.2577 0.0
H135 H 0.67134 0.78809 0.29279 0.0
H136 H 0.67583 0.75427 0.27013 0.0
C137 C 0.80383 0.71691 0.29366 0.0
C138 C 0.82523 0.7578 0.2572 0.0
C139 C 0.67904 0.72124 0.15459 0.0
C140 C 0.65375 0.73726 0.15678 0.0
C141 C 0.64922 0.75599 0.18315 0.0
C142 C 0.66984 0.7597 0.20635 0.0
C143 C 0.69551 0.74474 0.20317 0.0
C144 C 0.69966 0.72542 0.178 0.0
C145 C 0.7285 0.71168 0.17868 0.0
C146 C 0.74096 0.72634 0.20806 0.0
C147 C 0.72149 0.74578 0.22213 0.0
C148 C 0.72506 0.67769 0.18295 0.0
C149 C 0.74423 0.72078 0.148 0.0
C150 C 0.72844 0.81772 0.31517 0.0
C151 C 0.75075 0.82638 0.33506 0.0
C152 C 0.77668 0.8114 0.33182 0.0
C153 C 0.78027 0.78857 0.30947 0.0
C154 C 0.75797 0.78079 0.28942 0.0
C155 C 0.73264 0.7954 0.29236 0.0
C156 C 0.71188 0.78558 0.26762 0.0
C157 C 0.72903 0.7628 0.24926 0.0
C158 C 0.75586 0.75982 0.26241 0.0
C159 C 0.68669 0.77103 0.28486 0.0
C160 C 0.70427 0.81302 0.24698 0.0
H161 H 0.78285 0.68044 0.16929 0.0
H162 H 0.85268 0.69577 0.2549 0.0
H163 H 0.83561 0.75817 0.23352 0.0
H164 H 0.81463 0.77968 0.25896 0.0
H165 H 0.84201 0.75657 0.2754 0.0
H166 H 0.79288 0.69508 0.29279 0.0
H167 H 0.8254 0.71297 0.30261 0.0
H168 H 0.7924 0.73042 0.31133 0.0
H169 H 0.68311 0.70682 0.13447 0.0
H170 H 0.62975 0.76822 0.18552 0.0
H171 H 0.66517 0.77462 0.22554 0.0
H172 H 0.70872 0.67278 0.20104 0.0
H173 H 0.71858 0.667 0.16031 0.0
H174 H 0.74424 0.66669 0.1916 0.0
H175 H 0.73801 0.74353 0.1403 0.0
H176 H 0.76715 0.72201 0.1513 0.0
H177 H 0.73951 0.70524 0.12818 0.0
H178 H 0.82702 0.65479 0.16632 0.0
C179 C 0.79752 0.68422 0.18816 0.0
C180 C 0.69491 0.2571 0.85692 0.0
C181 C 0.67511 0.23413 0.86126 0.0
C182 C 0.67408 0.21106 0.8384 0.0
C183 C 0.71104 0.23452 0.80779 0.0
C184 C 0.71283 0.25654 0.83057 0.0
C185 C 0.73622 0.2781 0.82395 0.0
H186 H 0.83714 0.32773 0.72455 0.0
C187 C 0.73243 0.24065 0.78322 0.0
C188 C 0.74752 0.26594 0.7928 0.0
H189 H 0.8178 0.35873 0.81965 0.0
H190 H 0.78144 0.3222 0.82388 0.0
H191 H 0.77271 0.31291 0.70109 0.0
H192 H 0.83905 0.26215 0.74379 0.0
H193 H 0.82043 0.23684 0.72015 0.0
H194 H 0.83773 0.26815 0.70174 0.0
H195 H 0.80531 0.30429 0.68181 0.0
H196 H 0.77617 0.279 0.68032 0.0
C197 C 0.72337 0.30949 0.81985 0.0
C198 C 0.75802 0.27575 0.85118 0.0
C199 C 0.73692 0.17703 0.68312 0.0
C200 C 0.75503 0.17697 0.65662 0.0
C201 C 0.77645 0.19862 0.65522 0.0
C202 C 0.77953 0.21997 0.67918 0.0
C203 C 0.76136 0.21963 0.70536 0.0
C204 C 0.74068 0.19824 0.70723 0.0
C205 C 0.72442 0.20031 0.73784 0.0
C206 C 0.73855 0.22676 0.75367 0.0
C207 C 0.75998 0.23812 0.73434 0.0
C208 C 0.69346 0.20694 0.72957 0.0
C209 C 0.72892 0.1711 0.75678 0.0
C210 C 0.82543 0.32668 0.74652 0.0
C211 C 0.8305 0.3469 0.77153 0.0
C212 C 0.81414 0.34436 0.79944 0.0
C213 C 0.79314 0.32274 0.80215 0.0
C214 C 0.78856 0.30278 0.77702 0.0
C215 C 0.80486 0.30467 0.75001 0.0
C216 C 0.79849 0.28017 0.72672 0.0
C217 C 0.77539 0.26357 0.74408 0.0
C218 C 0.76937 0.2772 0.77331 0.0
C219 C 0.78773 0.29463 0.69567 0.0
C220 C 0.82523 0.26083 0.72257 0.0
H221 H 0.68964 0.19324 0.79517 0.0
H222 H 0.69651 0.27545 0.87346 0.0
H223 H 0.75689 0.25385 0.86342 0.0
H224 H 0.77986 0.27711 0.84243 0.0
H225 H 0.75459 0.29327 0.86942 0.0
H226 H 0.70459 0.30853 0.80425 0.0
H227 H 0.71675 0.31882 0.84313 0.0
H228 H 0.73782 0.3254 0.80851 0.0
H229 H 0.72016 0.16096 0.68524 0.0
H230 H 0.79138 0.19883 0.63586 0.0
H231 H 0.7962 0.23574 0.67651 0.0
H232 H 0.6921 0.22472 0.71126 0.0
H233 H 0.68299 0.1868 0.71994 0.0
H234 H 0.68124 0.21512 0.75003 0.0
H235 H 0.74927 0.16044 0.75067 0.0
H236 H 0.73008 0.17493 0.78271 0.0
H237 H 0.71212 0.15469 0.7517 0.0
H238 H 0.6599 0.19248 0.84117 0.0
C239 C 0.69168 0.2113 0.81169 0.0
C240 C 0.80352 0.83258 0.70177 0.0
C241 C 0.7823 0.85293 0.69324 0.0
C242 C 0.75497 0.84838 0.70515 0.0
C243 C 0.77043 0.80515 0.73448 0.0
C244 C 0.79706 0.80882 0.72221 0.0
C245 C 0.8167 0.78462 0.73319 0.0
H246 H 0.83567 0.65507 0.81353 0.0
C247 C 0.77049 0.77863 0.75512 0.0
C248 C 0.79748 0.76622 0.75432 0.0
H249 H 0.8969 0.70438 0.75948 0.0
H250 H 0.86265 0.74283 0.74876 0.0
H251 H 0.81296 0.71132 0.85026 0.0
H252 H 0.78171 0.66626 0.7673 0.0
H253 H 0.7535 0.67301 0.79343 0.0
H254 H 0.78224 0.65008 0.8063 0.0
H255 H 0.79253 0.67798 0.85332 0.0
H256 H 0.77636 0.71433 0.85183 0.0
C257 C 0.84073 0.79922 0.75233 0.0
C258 C 0.8265 0.76699 0.70357 0.0
C259 C 0.68244 0.75186 0.81664 0.0
C260 C 0.67617 0.72937 0.83876 0.0
C261 C 0.69687 0.70785 0.84566 0.0
C262 C 0.72329 0.70889 0.8311 0.0
C263 C 0.72932 0.73178 0.80945 0.0
C264 C 0.70901 0.75272 0.80253 0.0
C265 C 0.71921 0.77572 0.77936 0.0
C266 C 0.7492 0.76551 0.77406 0.0
C267 C 0.75495 0.73966 0.79154 0.0
C268 C 0.71787 0.8065 0.79596 0.0
C269 C 0.70134 0.77326 0.74868 0.0
C270 C 0.84156 0.67413 0.79927 0.0
C271 C 0.86883 0.67667 0.78702 0.0
C272 C 0.87599 0.70204 0.76915 0.0
C273 C 0.85602 0.72421 0.7628 0.0
C274 C 0.82864 0.72111 0.77467 0.0
C275 C 0.82197 0.69666 0.79312 0.0
C276 C 0.79237 0.69794 0.80533 0.0
C277 C 0.782 0.72648 0.79005 0.0
C278 C 0.80325 0.73987 0.77188 0.0
C279 C 0.79337 0.70031 0.84208 0.0
C280 C 0.77647 0.67035 0.7927 0.0
H281 H 0.72783 0.82291 0.73391 0.0
H282 H 0.82471 0.83517 0.69305 0.0
H283 H 0.80885 0.76378 0.68666 0.0
H284 H 0.83388 0.74435 0.7092 0.0
H285 H 0.84339 0.77907 0.69082 0.0
H286 H 0.8329 0.81859 0.76624 0.0
H287 H 0.85757 0.80735 0.73633 0.0
H288 H 0.84994 0.7841 0.77017 0.0
H289 H 0.667 0.76851 0.81035 0.0
H290 H 0.69288 0.69048 0.86288 0.0
H291 H 0.7381 0.69194 0.83747 0.0
H292 H 0.72473 0.80473 0.82114 0.0
H293 H 0.69616 0.81544 0.7959 0.0
H294 H 0.73194 0.82315 0.78524 0.0
H295 H 0.69304 0.75033 0.74537 0.0
H296 H 0.71366 0.77758 0.7269 0.0
H297 H 0.68312 0.78864 0.74942 0.0
H298 H 0.73789 0.86288 0.69828 0.0
C299 C 0.74901 0.82485 0.72571 0.0
C300 C 0.78809 0.19859 0.34594 0.0
C301 C 0.76822 0.17548 0.3478 0.0
C302 C 0.74535 0.17559 0.32662 0.0
C303 C 0.76131 0.22182 0.30351 0.0
C304 C 0.78415 0.22157 0.3237 0.0
C305 C 0.80261 0.24842 0.31878 0.0
H306 H 0.82957 0.37528 0.23659 0.0
C307 C 0.76276 0.24894 0.28381 0.0
C308 C 0.78691 0.26474 0.29254 0.0
H309 H 0.87899 0.33631 0.31183 0.0
H310 H 0.84468 0.29711 0.31805 0.0
H311 H 0.76933 0.36548 0.27083 0.0
H312 H 0.81526 0.31463 0.20127 0.0
H313 H 0.77995 0.31516 0.18956 0.0
H314 H 0.79906 0.34965 0.19209 0.0
H315 H 0.77321 0.3776 0.23046 0.0
H316 H 0.74527 0.35295 0.24224 0.0
C317 C 0.8032 0.26656 0.35006 0.0
C318 C 0.83169 0.23736 0.30755 0.0
C319 C 0.68701 0.26776 0.20174 0.0
C320 C 0.68283 0.28993 0.17865 0.0
C321 C 0.70172 0.31403 0.17737 0.0
C322 C 0.72474 0.3155 0.19813 0.0
C323 C 0.72901 0.29261 0.22043 0.0
C324 C 0.71012 0.26942 0.22204 0.0
C325 C 0.71795 0.24678 0.24673 0.0
C326 C 0.74479 0.2601 0.25973 0.0
C327 C 0.75119 0.28692 0.24433 0.0
C328 C 0.69437 0.24614 0.27207 0.0
C329 C 0.72323 0.21663 0.22967 0.0
C330 C 0.83306 0.35825 0.25435 0.0
C331 C 0.85715 0.35875 0.27356 0.0
C332 C 0.86057 0.3365 0.29683 0.0
C333 C 0.84073 0.31363 0.30022 0.0
C334 C 0.81714 0.31302 0.28019 0.0
C335 C 0.81348 0.33537 0.25803 0.0
C336 C 0.78718 0.33143 0.23887 0.0
C337 C 0.77578 0.30282 0.25283 0.0
C338 C 0.79345 0.29197 0.27695 0.0
C339 C 0.76764 0.35827 0.24561 0.0
C340 C 0.79554 0.3277 0.20352 0.0
H341 H 0.72379 0.19727 0.28949 0.0
H342 H 0.80582 0.1992 0.36196 0.0
H343 H 0.82945 0.21856 0.29051 0.0
H344 H 0.84366 0.25446 0.29459 0.0
H345 H 0.8444 0.22935 0.32791 0.0
H346 H 0.78239 0.26608 0.36195 0.0
H347 H 0.81883 0.25732 0.36693 0.0
H348 H 0.80766 0.29039 0.34623 0.0
H349 H 0.6727 0.24917 0.20385 0.0
H350 H 0.69915 0.33133 0.15971 0.0
H351 H 0.73857 0.33417 0.19567 0.0
H352 H 0.6856 0.2688 0.276 0.0
H353 H 0.67687 0.23148 0.2645 0.0
H354 H 0.70179 0.23899 0.2957 0.0
H355 H 0.73146 0.2201 0.20522 0.0
H356 H 0.73939 0.20294 0.24148 0.0
H357 H 0.70361 0.20352 0.22763 0.0
H358 H 0.73004 0.15781 0.32711 0.0
C359 C 0.74179 0.19854 0.30464 0.0
C360 C 0.29668 0.20265 0.68877 0.0
C361 C 0.27507 0.19141 0.66944 0.0
C362 C 0.24827 0.2047 0.67154 0.0
C363 C 0.26499 0.23939 0.71143 0.0
C364 C 0.29113 0.22627 0.70962 0.0
C365 C 0.31145 0.23959 0.73287 0.0
H366 H 0.33616 0.33061 0.85757 0.0
C367 C 0.26614 0.26301 0.73598 0.0
C368 C 0.29329 0.26306 0.74874 0.0
H369 H 0.39287 0.26888 0.81174 0.0
H370 H 0.35806 0.25765 0.77236 0.0
H371 H 0.28038 0.29119 0.85247 0.0
H372 H 0.31376 0.3591 0.79115 0.0
H373 H 0.27717 0.36259 0.7899 0.0
H374 H 0.29538 0.36819 0.82704 0.0
H375 H 0.28268 0.32973 0.86356 0.0
H376 H 0.25306 0.31566 0.84186 0.0
C377 C 0.32039 0.21474 0.75635 0.0
C378 C 0.3359 0.25369 0.71388 0.0
C379 C 0.18111 0.32855 0.75672 0.0
C380 C 0.17633 0.35308 0.77689 0.0
C381 C 0.19763 0.36157 0.79829 0.0
C382 C 0.22335 0.34642 0.79903 0.0
C383 C 0.22801 0.32251 0.77811 0.0
C384 C 0.20699 0.31383 0.75756 0.0
C385 C 0.21579 0.28824 0.73667 0.0
C386 C 0.24582 0.28358 0.74742 0.0
C387 C 0.2528 0.30357 0.77189 0.0
C388 C 0.19701 0.26113 0.74459 0.0
C389 C 0.21418 0.29856 0.70163 0.0
C390 C 0.34112 0.31497 0.83879 0.0
C391 C 0.3671 0.30011 0.8382 0.0
C392 C 0.37279 0.28006 0.81321 0.0
C393 C 0.35252 0.27354 0.79032 0.0
C394 C 0.32611 0.28716 0.79225 0.0
C395 C 0.32096 0.30814 0.8156 0.0
C396 C 0.29185 0.32093 0.81306 0.0
C397 C 0.28011 0.30311 0.78535 0.0
C398 C 0.30028 0.28326 0.77346 0.0
C399 C 0.27603 0.3143 0.84437 0.0
C400 C 0.29444 0.35449 0.80509 0.0
H401 H 0.22235 0.23759 0.69271 0.0
H402 H 0.31759 0.19332 0.68779 0.0
H403 H 0.32842 0.26275 0.69079 0.0
H404 H 0.34537 0.27297 0.72615 0.0
H405 H 0.35247 0.23703 0.70864 0.0
H406 H 0.30264 0.1994 0.76133 0.0
H407 H 0.33782 0.20121 0.74646 0.0
H408 H 0.32658 0.2233 0.77989 0.0
H409 H 0.16513 0.32107 0.74031 0.0
H410 H 0.19476 0.38053 0.81386 0.0
H411 H 0.23877 0.35417 0.81561 0.0
H412 H 0.19073 0.26123 0.77005 0.0
H413 H 0.17754 0.26129 0.73015 0.0
H414 H 0.2079 0.23964 0.74122 0.0
H415 H 0.2222 0.32169 0.69917 0.0
H416 H 0.2272 0.28502 0.68548 0.0
H417 H 0.19223 0.29829 0.6929 0.0
H418 H 0.23095 0.19627 0.65761 0.0
C419 C 0.24318 0.2286 0.69224 0.0
C420 C 0.18879 0.68307 0.26755 0.0
C421 C 0.1826 0.66451 0.2414 0.0
C422 C 0.19901 0.66746 0.2136 0.0
C423 C 0.22745 0.70546 0.23856 0.0
C424 C 0.21091 0.70355 0.2654 0.0
C425 C 0.21908 0.72626 0.29006 0.0
H426 H 0.29718 0.84624 0.33066 0.0
C427 C 0.24864 0.7289 0.24385 0.0
C428 C 0.24362 0.74155 0.27379 0.0
H429 H 0.22986 0.80494 0.38339 0.0
H430 H 0.22632 0.76634 0.344 0.0
H431 H 0.27175 0.83878 0.26116 0.0
H432 H 0.32797 0.7824 0.31402 0.0
H433 H 0.33859 0.78114 0.27413 0.0
H434 H 0.3397 0.81605 0.2954 0.0
H435 H 0.30699 0.84935 0.27097 0.0
H436 H 0.29944 0.82766 0.23606 0.0
C437 C 0.19387 0.7476 0.29494 0.0
C438 C 0.2284 0.70951 0.3204 0.0
C439 C 0.32606 0.74385 0.16288 0.0
C440 C 0.3497 0.76246 0.16177 0.0
C441 C 0.35317 0.78417 0.18566 0.0
C442 C 0.33396 0.78649 0.21085 0.0
C443 C 0.31098 0.76692 0.21219 0.0
C444 C 0.3072 0.74632 0.18819 0.0
C445 C 0.28175 0.72726 0.19332 0.0
C446 C 0.27146 0.73896 0.22507 0.0
C447 C 0.28852 0.7623 0.23597 0.0
C448 C 0.2606 0.7336 0.16617 0.0
C449 C 0.29141 0.6944 0.19552 0.0
C450 C 0.28196 0.82865 0.3339 0.0
C451 C 0.26335 0.82909 0.35986 0.0
C452 C 0.24394 0.80563 0.36321 0.0
C453 C 0.24188 0.78318 0.34029 0.0
C454 C 0.25944 0.78399 0.31357 0.0
C455 C 0.27962 0.80593 0.3111 0.0
C456 C 0.297 0.80246 0.28143 0.0
C457 C 0.28284 0.77592 0.26579 0.0
C458 C 0.26078 0.76529 0.28474 0.0
C459 C 0.29391 0.83105 0.26125 0.0
C460 C 0.32749 0.79534 0.2915 0.0
H461 H 0.23302 0.68839 0.19041 0.0
H462 H 0.17687 0.68175 0.28936 0.0
H463 H 0.24027 0.68899 0.31415 0.0
H464 H 0.24285 0.72263 0.33534 0.0
H465 H 0.21004 0.70274 0.33491 0.0
H466 H 0.18202 0.75069 0.27243 0.0
H467 H 0.17905 0.73871 0.31292 0.0
H468 H 0.20021 0.7703 0.3019 0.0
H469 H 0.32246 0.72733 0.14457 0.0
H470 H 0.37123 0.79874 0.1854 0.0
H471 H 0.33791 0.80318 0.22855 0.0
H472 H 0.26389 0.75603 0.15561 0.0
H473 H 0.26265 0.71704 0.1467 0.0
H474 H 0.23863 0.73395 0.17462 0.0
H475 H 0.31047 0.69249 0.21058 0.0
H476 H 0.27574 0.67968 0.20658 0.0
H477 H 0.29661 0.68541 0.17163 0.0
H478 H 0.19442 0.65452 0.19254 0.0
C479 C 0.22138 0.68753 0.21216 0.0
C480 C 0.97337 0.48703 0.26883 0.0
C481 C 0.04459 0.56451 0.25827 0.0
O482 O 0.984 0.50279 0.29083 0.0
Zn483 Zn 1.00812 0.52687 0.26396 0.0
O484 O 0.98091 0.49152 0.24 0.0
Zn485 Zn 0.00863 0.52013 0.21406 0.0
O486 O 0.03357 0.49171 0.19445 0.0
O487 O 0.03792 0.49433 0.24659 0.0
O488 O 0.03794 0.55281 0.2315 0.0
O489 O 0.03188 0.55659 0.28339 0.0
O490 O 0.97867 0.55354 0.2381 0.0
O491 O 0.98274 0.54194 0.18734 0.0
C492 C 0.04545 0.48307 0.21985 0.0
C493 C 0.97095 0.55691 0.20918 0.0
C494 C 0.96396 0.45195 0.7457 0.0
C495 C 0.03542 0.52793 0.7303 0.0
O496 O 0.97228 0.46333 0.77203 0.0
Zn497 Zn 1.00324 0.49525 0.78743 0.0
O498 O 0.97508 0.4601 0.7197 0.0
Zn499 Zn 0.99986 0.48965 0.7374 0.0
O500 O 0.03126 0.46272 0.75978 0.0
O501 O 0.02982 0.47129 0.81131 0.0
O502 O 0.02166 0.51436 0.70892 0.0
O503 O 0.03064 0.52264 0.75968 0.0
O504 O 0.98077 0.52512 0.8091 0.0
O505 O 0.97133 0.52138 0.75784 0.0
C506 C 0.04064 0.45769 0.7878 0.0
C507 C 0.96648 0.53307 0.78508 0.0
C508 C 0.2317 0.98069 0.55605 0.0
C509 C 0.23403 0.04253 0.46101 0.0
O510 O 0.21083 0.9898 0.54006 0.0
Zn511 Zn 0.23175 0.01251 0.50887 0.0
O512 O 0.25659 0.98796 0.54782 0.0
Zn513 Zn 0.27672 0.01302 0.51133 0.0
O514 O 0.29507 0.0446 0.53555 0.0
O515 O 0.24896 0.04886 0.53474 0.0
O516 O 0.25847 0.03645 0.47184 0.0
O517 O 0.21225 0.03344 0.47544 0.0
O518 O 0.25255 0.97813 0.48307 0.0
O519 O 0.29828 0.98223 0.48912 0.0
C520 C 0.27296 0.05872 0.54324 0.0
C521 C 0.27735 0.96869 0.47718 0.0
C522 C 0.53521 0.71257 0.0253 0.0
C523 C 0.46099 0.70764 0.94512 0.0
O524 O 0.52309 0.68921 0.01514 0.0
Zn525 Zn 0.49826 0.7092 0.98531 0.0
O526 O 0.52795 0.73803 0.01425 0.0
Zn527 Zn 0.49915 0.75636 0.9803 0.0
O528 O 0.47542 0.78122 0.00692 0.0
O529 O 0.47105 0.73327 0.01671 0.0
O530 O 0.4696 0.73425 0.95011 0.0
O531 O 0.47176 0.68616 0.96049 0.0
O532 O 0.52788 0.72587 0.95102 0.0
O533 O 0.52454 0.77485 0.95059 0.0
C534 C 0.46418 0.76029 0.02272 0.0
C535 C 0.53606 0.75117 0.94037 0.0
C536 C 0.80325 0.96409 0.54908 0.0
C537 C 0.79578 0.03772 0.46395 0.0
O538 O 0.77799 0.96914 0.5403 0.0
Zn539 Zn 0.7561 0.99492 0.50538 0.0
O540 O 0.82353 0.97671 0.53486 0.0
Zn541 Zn 0.80064 0.99926 0.50512 0.0
O542 O 0.77806 0.02934 0.53614 0.0
O543 O 0.73277 0.0189 0.53277 0.0
O544 O 0.81819 0.0267 0.47527 0.0
O545 O 0.77206 0.02756 0.47321 0.0
O546 O 0.73872 0.96545 0.47794 0.0
O547 O 0.7849 0.96411 0.47594 0.0
C548 C 0.7526 0.03429 0.54445 0.0
C549 C 0.76109 0.95363 0.46754 0.0
C550 C 0.55161 0.29408 0.06042 0.0
C551 C 0.48008 0.28474 0.97747 0.0
O552 O 0.54361 0.26727 0.05542 0.0
Zn553 Zn 0.51388 0.24381 0.02727 0.0
O554 O 0.53973 0.31529 0.04564 0.0
Zn555 Zn 0.51472 0.29093 0.01972 0.0
O556 O 0.48339 0.27592 0.05247 0.0
O557 O 0.48815 0.22735 0.05834 0.0
O558 O 0.49133 0.30889 0.98683 0.0
O559 O 0.48684 0.26014 0.99082 0.0
O560 O 0.53748 0.21747 1.00258 0.0
O561 O 0.54382 0.26518 0.99161 0.0
C562 C 0.47551 0.25141 0.06519 0.0
C563 C 0.55014 0.23774 0.98717 0.0
H564 H 0.13439 0.38059 0.1963 0.0
H565 H 0.13836 0.38537 0.29852 0.0
H566 H 0.10485 0.42641 0.29859 0.0
H567 H 0.07307 0.45942 0.27007 0.0
H568 H 0.06765 0.45454 0.16786 0.0
H569 H 0.10313 0.41518 0.1673 0.0
C570 C 0.1281 0.39091 0.21849 0.0
C571 C 0.13867 0.37991 0.24737 0.0
C572 C 0.10847 0.41432 0.21839 0.0
C573 C 0.13024 0.39327 0.27603 0.0
C574 C 0.11113 0.41675 0.27609 0.0
C575 C 0.07966 0.44988 0.2476 0.0
C576 C 0.06758 0.45988 0.21907 0.0
C577 C 0.09983 0.42717 0.24747 0.0
C578 C 0.0765 0.44722 0.19021 0.0
C579 C 0.09681 0.4247 0.18986 0.0
H580 H 0.10767 0.64148 0.70486 0.0
H581 H 0.17317 0.58333 0.73957 0.0
H582 H 0.13937 0.54333 0.74533 0.0
H583 H 0.09072 0.52502 0.74212 0.0
H584 H 0.02693 0.58092 0.70126 0.0
H585 H 0.06099 0.62135 0.69493 0.0
C586 C 0.11504 0.61997 0.71286 0.0
C587 C 0.14324 0.61603 0.72216 0.0
C588 C 0.09577 0.59646 0.71475 0.0
C589 C 0.15163 0.58778 0.73318 0.0
C590 C 0.13233 0.56458 0.73613 0.0
C591 C 0.08455 0.54594 0.73132 0.0
C592 C 0.05661 0.55024 0.72204 0.0
C593 C 0.10431 0.56876 0.72729 0.0
C594 C 0.04852 0.57725 0.70819 0.0
C595 C 0.0679 0.60033 0.70483 0.0
H596 H 0.85462 0.6176 0.18389 0.0
H597 H 0.89524 0.68963 0.23426 0.0
H598 H 0.93773 0.66031 0.23825 0.0
H599 H 0.96308 0.6132 0.22982 0.0
H600 H 0.92516 0.54409 0.17347 0.0
H601 H 0.88228 0.57382 0.16841 0.0
C602 C 0.87281 0.62742 0.19511 0.0
C603 C 0.87094 0.65574 0.20957 0.0
C604 C 0.89789 0.61096 0.19612 0.0
C605 C 0.89516 0.6675 0.2241 0.0
C606 C 0.91981 0.65087 0.22608 0.0
C607 C 0.94552 0.60494 0.21605 0.0
C608 C 0.94705 0.57658 0.20215 0.0
C609 C 0.92127 0.6224 0.21268 0.0
C610 C 0.92439 0.56602 0.18417 0.0
C611 C 0.89986 0.58291 0.18148 0.0
H612 H 0.87991 0.34439 0.73772 0.0
H613 H 0.8319 0.40256 0.79908 0.0
H614 H 0.86935 0.43902 0.79766 0.0
H615 H 0.91593 0.45476 0.77923 0.0
H616 H 0.96101 0.40011 0.71233 0.0
H617 H 0.92403 0.36233 0.71488 0.0
C618 C 0.87712 0.36521 0.75031 0.0
C619 C 0.85293 0.3701 0.76894 0.0
C620 C 0.89827 0.38689 0.7483 0.0
C621 C 0.85045 0.39734 0.78538 0.0
C622 C 0.8718 0.41853 0.78433 0.0
C623 C 0.91754 0.43455 0.76521 0.0
C624 C 0.94114 0.42991 0.7459 0.0
C625 C 0.89586 0.41346 0.76606 0.0
C626 C 0.94294 0.40402 0.72736 0.0
C627 C 0.92187 0.38244 0.7289 0.0
H628 H 0.24763 0.10927 0.33109 0.0
H629 H 0.20761 0.17907 0.38544 0.0
H630 H 0.20089 0.14501 0.42957 0.0
H631 H 0.20963 0.09641 0.45477 0.0
H632 H 0.25505 0.02902 0.40325 0.0
H633 H 0.25674 0.06109 0.35625 0.0
C634 C 0.23766 0.11723 0.35262 0.0
C635 C 0.22811 0.14686 0.35457 0.0
C636 C 0.23486 0.09786 0.37859 0.0
C637 C 0.2147 0.15632 0.38267 0.0
C638 C 0.21105 0.1369 0.4082 0.0
C639 C 0.2194 0.0887 0.43297 0.0
C640 C 0.23183 0.06044 0.43201 0.0
C641 C 0.22135 0.10775 0.40661 0.0
C642 C 0.24513 0.05071 0.40415 0.0
C643 C 0.2462 0.06906 0.37742 0.0
H644 H 0.34817 0.68264 0.87258 0.0
H645 H 0.3841 0.74747 0.8085 0.0
H646 H 0.42526 0.75102 0.84198 0.0
H647 H 0.45102 0.7368 0.89016 0.0
H648 H 0.41821 0.66779 0.95062 0.0
H649 H 0.37643 0.66398 0.91705 0.0
C650 C 0.36511 0.69713 0.86532 0.0
C651 C 0.36226 0.71523 0.83807 0.0
C652 C 0.38955 0.69818 0.88398 0.0
C653 C 0.38474 0.73405 0.8298 0.0
C654 C 0.40867 0.73586 0.84877 0.0
C655 C 0.43481 0.72073 0.89576 0.0
C656 C 0.43753 0.70273 0.92286 0.0
C657 C 0.41118 0.71828 0.87606 0.0
C658 C 0.4166 0.68177 0.92975 0.0
C659 C 0.39265 0.67974 0.91069 0.0
H660 H 0.77667 0.83366 0.39266 0.0
H661 H 0.71746 0.87642 0.3298 0.0
H662 H 0.71319 0.91786 0.3667 0.0
H663 H 0.72841 0.94384 0.41558 0.0
H664 H 0.7924 0.90404 0.47393 0.0
H665 H 0.79318 0.86007 0.43969 0.0
C666 C 0.76312 0.85214 0.38656 0.0
C667 C 0.74746 0.85151 0.35819 0.0
C668 C 0.76173 0.87672 0.40713 0.0
C669 C 0.72943 0.87561 0.3516 0.0
C670 C 0.72715 0.89965 0.3726 0.0
C671 C 0.74231 0.92537 0.42079 0.0
C672 C 0.76022 0.92695 0.44719 0.0
C673 C 0.74342 0.90062 0.40028 0.0
C674 C 0.77849 0.90321 0.45361 0.0
C675 C 0.77892 0.8781 0.43409 0.0
H676 H 0.6218 0.21096 0.86565 0.0
H677 H 0.68432 0.25754 0.92101 0.0
H678 H 0.65131 0.26255 0.96451 0.0
H679 H 0.60387 0.25575 0.98637 0.0
H680 H 0.54353 0.20393 0.93428 0.0
H681 H 0.57696 0.19791 0.89042 0.0
C682 C 0.6287 0.22159 0.88737 0.0
C683 C 0.65563 0.23447 0.88923 0.0
C684 C 0.60998 0.2233 0.91311 0.0
C685 C 0.66355 0.24841 0.91789 0.0
C686 C 0.64474 0.251 0.94316 0.0
C687 C 0.59833 0.24274 0.96557 0.0
C688 C 0.57147 0.23028 0.96329 0.0
C689 C 0.61779 0.23894 0.94086 0.0
C690 C 0.56429 0.21343 0.93646 0.0
C691 C 0.5833 0.21021 0.91137 0.0
H692 H 0.24409 0.89714 0.67438 0.0
H693 H 0.20997 0.83416 0.60706 0.0
H694 H 0.20197 0.87406 0.56927 0.0
H695 H 0.20878 0.92609 0.55289 0.0
H696 H 0.2489 0.98746 0.61689 0.0
H697 H 0.25065 0.94911 0.65821 0.0
C698 C 0.2351 0.89197 0.6514 0.0
C699 C 0.22768 0.86243 0.6439 0.0
C700 C 0.23161 0.91489 0.62904 0.0
C701 C 0.21545 0.85659 0.61407 0.0
C702 C 0.21106 0.87943 0.59216 0.0
C703 C 0.21724 0.93112 0.57621 0.0
C704 C 0.2282 0.9595 0.58229 0.0
C705 C 0.21946 0.90856 0.59916 0.0
C706 C 0.23998 0.96576 0.61207 0.0
C707 C 0.24116 0.9438 0.63553 0.0
H708 H 0.6296 0.68866 0.12846 0.0
H709 H 0.63099 0.78465 0.12704 0.0
H710 H 0.59482 0.78523 0.08625 0.0
H711 H 0.56221 0.75901 0.05209 0.0
H712 H 0.55904 0.66303 0.05298 0.0
H713 H 0.59643 0.66187 0.0929 0.0
C714 C 0.62204 0.70961 0.11896 0.0
C715 C 0.63277 0.73659 0.13085 0.0
C716 C 0.60086 0.7098 0.09562 0.0
C717 C 0.62278 0.76363 0.11852 0.0
C718 C 0.60215 0.76399 0.09517 0.0
C719 C 0.56962 0.73773 0.06089 0.0
C720 C 0.55774 0.71114 0.04953 0.0
C721 C 0.59089 0.73727 0.08378 0.0
C722 C 0.56773 0.68386 0.06135 0.0
C723 C 0.58915 0.68319 0.08415 0.0
H724 H 0.73772 0.11881 0.6619 0.0
H725 H 0.76604 0.1834 0.59294 0.0
H726 H 0.76725 0.14505 0.55224 0.0
H727 H 0.76296 0.09247 0.5367 0.0
H728 H 0.73029 0.02889 0.60353 0.0
H729 H 0.72723 0.06779 0.64443 0.0
C730 C 0.74354 0.12484 0.63788 0.0
C731 C 0.75246 0.15407 0.63099 0.0
C732 C 0.74334 0.10282 0.61412 0.0
C733 C 0.76008 0.16101 0.59952 0.0
C734 C 0.76052 0.13911 0.576 0.0
C735 C 0.75477 0.08739 0.56013 0.0
C736 C 0.7469 0.05813 0.56739 0.0
C737 C 0.75271 0.10986 0.58318 0.0
C738 C 0.73625 0.05147 0.59759 0.0
C739 C 0.73468 0.07362 0.62093 0.0
H740 H 0.38063 0.24372 0.16922 0.0
H741 H 0.33864 0.29979 0.10058 0.0
H742 H 0.37978 0.2986 0.06684 0.0
H743 H 0.42773 0.28185 0.05627 0.0
H744 H 0.46777 0.22064 0.12055 0.0
H745 H 0.42696 0.2229 0.15606 0.0
C746 C 0.38007 0.25529 0.14668 0.0
C747 C 0.35636 0.27237 0.13814 0.0
C748 C 0.4035 0.25349 0.12643 0.0
C749 C 0.35667 0.28736 0.10874 0.0
C750 C 0.38017 0.28643 0.08905 0.0
C751 C 0.42746 0.26901 0.07809 0.0
C752 C 0.45071 0.2514 0.08611 0.0
C753 C 0.40372 0.26975 0.09773 0.0
C754 C 0.45003 0.23438 0.11403 0.0
C755 C 0.42677 0.23575 0.1343 0.0
H756 H 0.86245 0.61838 0.77293 0.0
H757 H 0.92158 0.6811 0.81149 0.0
H758 H 0.9564 0.64134 0.81756 0.0
H759 H 0.97079 0.58895 0.80915 0.0
H760 H 0.91293 0.5278 0.76556 0.0
H761 H 0.87669 0.56638 0.76455 0.0
C762 C 0.88288 0.62318 0.78296 0.0
C763 C 0.8895 0.65247 0.7919 0.0
C764 C 0.90296 0.60043 0.7855 0.0
C765 C 0.91614 0.65866 0.80439 0.0
C766 C 0.93598 0.63594 0.80791 0.0
C767 C 0.95006 0.5841 0.79996 0.0
C768 C 0.94424 0.55565 0.78781 0.0
C769 C 0.92974 0.60678 0.79824 0.0
C770 C 0.91765 0.5496 0.77519 0.0
C771 C 0.89701 0.57164 0.77453 0.0
H772 H 0.8855 0.39175 0.31786 0.0
H773 H 0.87813 0.37706 0.21687 0.0
H774 H 0.91321 0.41524 0.20681 0.0
H775 H 0.94564 0.45284 0.22626 0.0
H776 H 0.95367 0.46853 0.327 0.0
H777 H 0.91881 0.4298 0.33757 0.0
C778 C 0.89175 0.39681 0.2937 0.0
C779 C 0.87905 0.38169 0.26815 0.0
C780 C 0.91201 0.41895 0.28801 0.0
C781 C 0.88722 0.38866 0.23694 0.0
C782 C 0.90739 0.4104 0.23115 0.0
C783 C 0.93987 0.44785 0.2506 0.0
C784 C 0.95232 0.46363 0.27579 0.0
C785 C 0.91982 0.42574 0.25646 0.0
C786 C 0.94443 0.45679 0.30713 0.0
C787 C 0.9245 0.43462 0.31319 0.0
H788 H 0.14531 0.37819 0.82489 0.0
H789 H 0.14813 0.36815 0.72289 0.0
H790 H 0.10587 0.39806 0.71773 0.0
H791 H 0.06921 0.42858 0.74157 0.0
H792 H 0.06659 0.44077 0.84324 0.0
H793 H 0.10782 0.40875 0.84904 0.0
C794 C 0.13676 0.38266 0.80152 0.0
C795 C 0.14995 0.37071 0.77434 0.0
C796 C 0.11254 0.40037 0.79861 0.0
C797 C 0.13827 0.37649 0.74429 0.0
C798 C 0.11417 0.39384 0.74126 0.0
C799 C 0.07749 0.42419 0.76509 0.0
C800 C 0.06476 0.43715 0.79193 0.0
C801 C 0.10126 0.40604 0.7682 0.0
C802 C 0.07593 0.43113 0.82215 0.0
C803 C 0.09954 0.41284 0.82548 0.0
H804 H 0.13274 0.668 0.27443 0.0
H805 H 0.17966 0.61013 0.2117 0.0
H806 H 0.14076 0.57549 0.21023 0.0
H807 H 0.09326 0.5613 0.22625 0.0
H808 H 0.04837 0.61518 0.29401 0.0
H809 H 0.08693 0.65129 0.29465 0.0
C810 C 0.13483 0.64763 0.26084 0.0
C811 C 0.15921 0.64234 0.24263 0.0
C812 C 0.11268 0.62696 0.26102 0.0
C813 C 0.161 0.61568 0.22506 0.0
C814 C 0.1388 0.59553 0.22443 0.0
C815 C 0.09196 0.58101 0.24111 0.0
C816 C 0.06798 0.5859 0.25973 0.0
C817 C 0.11447 0.60105 0.24206 0.0
C818 C 0.06667 0.61109 0.27942 0.0
C819 C 0.08868 0.63171 0.27973 0.0
H820 H 0.81736 0.85538 0.64133 0.0
H821 H 0.76021 0.90892 0.69698 0.0
H822 H 0.76313 0.94866 0.65805 0.0
H823 H 0.77828 0.96649 0.6059 0.0
H824 H 0.83783 0.91561 0.55142 0.0
H825 H 0.83823 0.87685 0.59259 0.0
C826 C 0.80601 0.87596 0.64536 0.0
C827 C 0.78788 0.87861 0.67169 0.0
C828 C 0.8082 0.89921 0.62306 0.0
C829 C 0.77348 0.90564 0.6764 0.0
C830 C 0.77529 0.92857 0.65426 0.0
C831 C 0.79174 0.94714 0.60342 0.0
C832 C 0.80788 0.94364 0.57583 0.0
C833 C 0.79194 0.92527 0.62712 0.0
C834 C 0.82538 0.91871 0.5727 0.0
C835 C 0.82542 0.89651 0.59608 0.0
H836 H 0.64783 0.33341 0.15542 0.0
H837 H 0.66595 0.2394 0.14871 0.0
H838 H 0.62694 0.23276 0.11234 0.0
H839 H 0.58763 0.253 0.0829 0.0
H840 H 0.56938 0.34699 0.08685 0.0
H841 H 0.60874 0.35434 0.12353 0.0
C842 C 0.64337 0.31155 0.14576 0.0
C843 C 0.65961 0.28687 0.15527 0.0
C844 C 0.62091 0.30785 0.1244 0.0
C845 C 0.65345 0.25867 0.14253 0.0
C846 C 0.63123 0.25485 0.12151 0.0
C847 C 0.5921 0.27515 0.09181 0.0
C848 C 0.57538 0.29937 0.08236 0.0
C849 C 0.61472 0.27918 0.11252 0.0
C850 C 0.58185 0.32794 0.09383 0.0
C851 C 0.60435 0.33213 0.1148 0.0
H852 H 0.25279 0.18169 0.61061 0.0
H853 H 0.30895 0.14269 0.67937 0.0
H854 H 0.31606 0.09983 0.64469 0.0
H855 H 0.30366 0.07143 0.59621 0.0
H856 H 0.24375 0.10861 0.53075 0.0
H857 H 0.24059 0.15386 0.56275 0.0
C858 C 0.26639 0.16375 0.61828 0.0
C859 C 0.28018 0.16561 0.64776 0.0
C860 C 0.26972 0.13867 0.59869 0.0
C861 C 0.29829 0.14228 0.65668 0.0
C862 C 0.30224 0.11754 0.63694 0.0
C863 C 0.29031 0.08971 0.58883 0.0
C864 C 0.27408 0.0869 0.56117 0.0
C865 C 0.2878 0.1153 0.60803 0.0
C866 C 0.25643 0.1104 0.55202 0.0
C867 C 0.25456 0.13621 0.57032 0.0
H868 H 0.37718 0.80462 0.12649 0.0
H869 H 0.37088 0.70978 0.14109 0.0
H870 H 0.40538 0.70105 0.0995 0.0
H871 H 0.43707 0.71989 0.05903 0.0
H872 H 0.4444 0.8145 0.04355 0.0
H873 H 0.40992 0.82376 0.08558 0.0
C874 C 0.38353 0.78209 0.12066 0.0
C875 C 0.37125 0.75788 0.13672 0.0
C876 C 0.40353 0.77715 0.09659 0.0
C877 C 0.37958 0.72879 0.12875 0.0
C878 C 0.39944 0.72375 0.10508 0.0
C879 C 0.43121 0.74261 0.06475 0.0
C880 C 0.44334 0.76646 0.04808 0.0
C881 C 0.41145 0.74772 0.08878 0.0
C882 C 0.4354 0.7957 0.05596 0.0
C883 C 0.41568 0.801 0.08001 0.0
H884 H 0.81432 0.14278 0.36544 0.0
H885 H 0.72629 0.15488 0.3852 0.0
H886 H 0.72726 0.11339 0.42225 0.0
H887 H 0.75231 0.07302 0.44796 0.0
H888 H 0.84054 0.06027 0.43029 0.0
H889 H 0.84033 0.10271 0.39363 0.0
C890 C 0.79548 0.13648 0.37815 0.0
C891 C 0.77018 0.15168 0.37222 0.0
C892 C 0.79615 0.11239 0.39961 0.0
C893 C 0.7459 0.14322 0.38883 0.0
C894 C 0.74644 0.11954 0.41012 0.0
C895 C 0.77155 0.07934 0.43604 0.0
C896 C 0.79634 0.06324 0.44162 0.0
C897 C 0.7713 0.10375 0.41536 0.0
C898 C 0.82112 0.07218 0.4263 0.0
C899 C 0.821 0.09647 0.40536 0.0
H900 H 0.39479 0.25603 0.8679 0.0
H901 H 0.38476 0.35137 0.86814 0.0
H902 H 0.41916 0.35555 0.91129 0.0
H903 H 0.45262 0.33153 0.94873 0.0
H904 H 0.46123 0.23576 0.94686 0.0
H905 H 0.42725 0.23249 0.9043 0.0
C906 C 0.40035 0.27781 0.87708 0.0
C907 C 0.38755 0.30336 0.86456 0.0
C908 C 0.41999 0.27997 0.90162 0.0
C909 C 0.39436 0.33133 0.87741 0.0
C910 C 0.4141 0.33372 0.90197 0.0
C911 C 0.44708 0.31002 0.93889 0.0
C912 C 0.45953 0.28397 0.9511 0.0
C913 C 0.42716 0.30813 0.91423 0.0
C914 C 0.45199 0.25622 0.93816 0.0
C915 C 0.43252 0.25425 0.91372 0.0
H916 H 0.30722 0.85976 0.38693 0.0
H917 H 0.21688 0.85688 0.3821 0.0
H918 H 0.2137 0.89887 0.41828 0.0
H919 H 0.2359 0.93653 0.45062 0.0
H920 H 0.32603 0.94168 0.45608 0.0
H921 H 0.32994 0.89874 0.42017 0.0
C922 C 0.28689 0.86843 0.39375 0.0
C923 C 0.26232 0.85486 0.38206 0.0
C924 C 0.28513 0.89297 0.41461 0.0
C925 C 0.23612 0.86636 0.39122 0.0
C926 C 0.23425 0.89055 0.41177 0.0
C927 C 0.25652 0.92839 0.44411 0.0
C928 C 0.28065 0.94241 0.45608 0.0
C929 C 0.25855 0.90397 0.42358 0.0
C930 C 0.3071 0.93133 0.44726 0.0
C931 C 0.30932 0.9068 0.42669 0.0
H932 H 0.64545 0.7765 0.86063 0.0
H933 H 0.64443 0.68061 0.85374 0.0
H934 H 0.60046 0.67911 0.88323 0.0
H935 H 0.56329 0.70474 0.91268 0.0
H936 H 0.56368 0.80065 0.9189 0.0
H937 H 0.60652 0.80238 0.88714 0.0
C938 C 0.63542 0.75527 0.86508 0.0
C939 C 0.64848 0.72869 0.85513 0.0
C940 C 0.60996 0.75455 0.88186 0.0
C941 C 0.63524 0.7014 0.8616 0.0
C942 C 0.60996 0.70051 0.87829 0.0
C943 C 0.57257 0.72608 0.90689 0.0
C944 C 0.5603 0.75252 0.91835 0.0
C945 C 0.5973 0.72692 0.88884 0.0
C946 C 0.57262 0.77994 0.91043 0.0
C947 C 0.59721 0.78095 0.89237 0.0
loop_
_geom_bond_atom_site_label_1
_geom_bond_atom_site_label_2
_geom_bond_distance
_geom_bond_site_symmetry_2
_ccdc_geom_bond_type
C0 C1 1.391 . S
C0 C4 1.391 . S
C0 H42 0.948 . S
C1 C0 1.391 . S
C1 C2 1.391 . S
C2 C1 1.391 . S
C2 H58 0.947 . S
C2 C59 1.392 . S
C3 C4 1.391 . S
C3 C7 1.397 . S
C3 C59 1.419 . S
C4 C0 1.391 . S
C4 C3 1.391 . S
C4 C5 1.399 . S
C5 C4 1.399 . S
C5 C8 1.396 . S
C5 C17 1.453 . S
C5 C18 1.684 . S
H6 C30 0.948 . S
C7 C3 1.397 . S
C7 C8 1.394 . S
C7 C26 1.723 . S
C8 C5 1.396 . S
C8 C7 1.394 . S
C8 C38 1.723 . S
H9 C32 0.947 . S
H10 C33 0.948 . S
H11 C39 0.982 . S
H12 C40 0.979 . S
H13 C40 0.980 . S
H14 C40 0.983 . S
H15 C39 0.979 . S
H16 C39 0.977 . S
C17 C5 1.453 . S
C17 H46 0.982 . S
C17 H47 0.979 . S
C17 H48 0.977 . S
C18 C5 1.684 . S
C18 H43 0.979 . S
C18 H44 0.980 . S
C18 H45 0.983 . S
C19 C20 1.391 . S
C19 C24 1.391 . S
C19 H49 0.948 . S
C20 C19 1.391 . S
C20 C21 1.391 . S
C21 C20 1.391 . S
C21 C22 1.392 . S
C21 H50 0.947 . S
C22 C21 1.392 . S
C22 C23 1.419 . S
C22 H51 0.948 . S
C23 C22 1.419 . S
C23 C24 1.391 . S
C23 C27 1.397 . S
C24 C19 1.391 . S
C24 C23 1.391 . S
C24 C25 1.399 . S
C25 C24 1.399 . S
C25 C26 1.396 . S
C25 C28 1.453 . S
C25 C29 1.684 . S
C26 C7 1.723 . S
C26 C25 1.396 . S
C26 C27 1.394 . S
C27 C23 1.397 . S
C27 C26 1.394 . S
C27 C37 1.723 . S
C28 C25 1.453 . S
C28 H52 0.982 . S
C28 H53 0.979 . S
C28 H54 0.977 . S
C29 C25 1.684 . S
C29 H55 0.979 . S
C29 H56 0.980 . S
C29 H57 0.983 . S
C30 H6 0.948 . S
C30 C31 1.391 . S
C30 C35 1.391 . S
C31 C30 1.391 . S
C31 C32 1.391 . S
C32 H9 0.947 . S
C32 C31 1.391 . S
C32 C33 1.392 . S
C33 H10 0.948 . S
C33 C32 1.392 . S
C33 C34 1.419 . S
C34 C33 1.419 . S
C34 C35 1.391 . S
C34 C38 1.397 . S
C35 C30 1.391 . S
C35 C34 1.391 . S
C35 C36 1.399 . S
C36 C35 1.399 . S
C36 C37 1.396 . S
C36 C39 1.453 . S
C36 C40 1.684 . S
C37 C27 1.723 . S
C37 C36 1.396 . S
C37 C38 1.394 . S
C38 C8 1.723 . S
C38 C34 1.397 . S
C38 C37 1.394 . S
C39 H11 0.982 . S
C39 H15 0.979 . S
C39 H16 0.977 . S
C39 C36 1.453 . S
C40 H12 0.979 . S
C40 H13 0.980 . S
C40 H14 0.983 . S
C40 C36 1.684 . S
H41 C59 0.948 . S
H42 C0 0.948 . S
H43 C18 0.979 . S
H44 C18 0.980 . S
H45 C18 0.983 . S
H46 C17 0.982 . S
H47 C17 0.979 . S
H48 C17 0.977 . S
H49 C19 0.948 . S
H50 C21 0.947 . S
H51 C22 0.948 . S
H52 C28 0.982 . S
H53 C28 0.979 . S
H54 C28 0.977 . S
H55 C29 0.979 . S
H56 C29 0.980 . S
H57 C29 0.983 . S
H58 C2 0.947 . S
C59 C2 1.392 . S
C59 C3 1.419 . S
C59 H41 0.948 . S
C60 C61 1.391 . S
C60 C64 1.391 . S
C60 H102 0.948 . S
C61 C60 1.391 . S
C61 C62 1.391 . S
C62 C61 1.391 . S
C62 H118 0.947 . S
C62 C119 1.392 . S
C63 C64 1.391 . S
C63 C67 1.397 . S
C63 C119 1.419 . S
C64 C60 1.391 . S
C64 C63 1.391 . S
C64 C65 1.399 . S
C65 C64 1.399 . S
C65 C68 1.396 . S
C65 C77 1.453 . S
C65 C78 1.684 . S
H66 C90 0.948 . S
C67 C63 1.397 . S
C67 C68 1.394 . S
C67 C86 1.723 . S
C68 C65 1.396 . S
C68 C67 1.394 . S
C68 C98 1.723 . S
H69 C92 0.947 . S
H70 C93 0.948 . S
H71 C99 0.982 . S
H72 C100 0.979 . S
H73 C100 0.980 . S
H74 C100 0.983 . S
H75 C99 0.979 . S
H76 C99 0.977 . S
C77 C65 1.453 . S
C77 H106 0.982 . S
C77 H107 0.979 . S
C77 H108 0.977 . S
C78 C65 1.684 . S
C78 H103 0.979 . S
C78 H104 0.980 . S
C78 H105 0.983 . S
C79 C80 1.391 . S
C79 C84 1.391 . S
C79 H109 0.948 . S
C80 C79 1.391 . S
C80 C81 1.391 . S
C81 C80 1.391 . S
C81 C82 1.392 . S
C81 H110 0.947 . S
C82 C81 1.392 . S
C82 C83 1.419 . S
C82 H111 0.948 . S
C83 C82 1.419 . S
C83 C84 1.391 . S
C83 C87 1.397 . S
C84 C79 1.391 . S
C84 C83 1.391 . S
C84 C85 1.399 . S
C85 C84 1.399 . S
C85 C86 1.396 . S
C85 C88 1.453 . S
C85 C89 1.684 . S
C86 C67 1.723 . S
C86 C85 1.396 . S
C86 C87 1.394 . S
C87 C83 1.397 . S
C87 C86 1.394 . S
C87 C97 1.723 . S
C88 C85 1.453 . S
C88 H112 0.982 . S
C88 H113 0.979 . S
C88 H114 0.977 . S
C89 C85 1.684 . S
C89 H115 0.979 . S
C89 H116 0.980 . S
C89 H117 0.983 . S
C90 H66 0.948 . S
C90 C91 1.391 . S
C90 C95 1.391 . S
C91 C90 1.391 . S
C91 C92 1.391 . S
C92 H69 0.947 . S
C92 C91 1.391 . S
C92 C93 1.392 . S
C93 H70 0.948 . S
C93 C92 1.392 . S
C93 C94 1.419 . S
C94 C93 1.419 . S
C94 C95 1.391 . S
C94 C98 1.397 . S
C95 C90 1.391 . S
C95 C94 1.391 . S
C95 C96 1.399 . S
C96 C95 1.399 . S
C96 C97 1.396 . S
C96 C99 1.453 . S
C96 C100 1.684 . S
C97 C87 1.723 . S
C97 C96 1.396 . S
C97 C98 1.394 . S
C98 C68 1.723 . S
C98 C94 1.397 . S
C98 C97 1.394 . S
C99 H71 0.982 . S
C99 H75 0.979 . S
C99 H76 0.977 . S
C99 C96 1.453 . S
C100 H72 0.979 . S
C100 H73 0.980 . S
C100 H74 0.983 . S
C100 C96 1.684 . S
H101 C119 0.948 . S
H102 C60 0.948 . S
H103 C78 0.979 . S
H104 C78 0.980 . S
H105 C78 0.983 . S
H106 C77 0.982 . S
H107 C77 0.979 . S
H108 C77 0.977 . S
H109 C79 0.948 . S
H110 C81 0.947 . S
H111 C82 0.948 . S
H112 C88 0.982 . S
H113 C88 0.979 . S
H114 C88 0.977 . S
H115 C89 0.979 . S
H116 C89 0.980 . S
H117 C89 0.983 . S
H118 C62 0.947 . S
C119 C62 1.392 . S
C119 C63 1.419 . S
C119 H101 0.948 . S
C120 C121 1.391 . S
C120 C124 1.391 . S
C120 H162 0.948 . S
C121 C120 1.391 . S
C121 C122 1.391 . S
C122 C121 1.391 . S
C122 H178 0.947 . S
C122 C179 1.392 . S
C123 C124 1.391 . S
C123 C127 1.397 . S
C123 C179 1.419 . S
C124 C120 1.391 . S
C124 C123 1.391 . S
C124 C125 1.399 . S
C125 C124 1.399 . S
C125 C128 1.396 . S
C125 C137 1.453 . S
C125 C138 1.684 . S
H126 C150 0.948 . S
C127 C123 1.397 . S
C127 C128 1.394 . S
C127 C146 1.723 . S
C128 C125 1.396 . S
C128 C127 1.394 . S
C128 C158 1.723 . S
H129 C152 0.947 . S
H130 C153 0.948 . S
H131 C159 0.982 . S
H132 C160 0.979 . S
H133 C160 0.980 . S
H134 C160 0.983 . S
H135 C159 0.979 . S
H136 C159 0.977 . S
C137 C125 1.453 . S
C137 H166 0.982 . S
C137 H167 0.979 . S
C137 H168 0.977 . S
C138 C125 1.684 . S
C138 H163 0.979 . S
C138 H164 0.980 . S
C138 H165 0.983 . S
C139 C140 1.391 . S
C139 C144 1.391 . S
C139 H169 0.948 . S
C140 C139 1.391 . S
C140 C141 1.391 . S
C141 C140 1.391 . S
C141 C142 1.392 . S
C141 H170 0.947 . S
C142 C141 1.392 . S
C142 C143 1.419 . S
C142 H171 0.948 . S
C143 C142 1.419 . S
C143 C144 1.391 . S
C143 C147 1.397 . S
C144 C139 1.391 . S
C144 C143 1.391 . S
C144 C145 1.399 . S
C145 C144 1.399 . S
C145 C146 1.396 . S
C145 C148 1.453 . S
C145 C149 1.684 . S
C146 C127 1.723 . S
C146 C145 1.396 . S
C146 C147 1.394 . S
C147 C143 1.397 . S
C147 C146 1.394 . S
C147 C157 1.723 . S
C148 C145 1.453 . S
C148 H172 0.982 . S
C148 H173 0.979 . S
C148 H174 0.977 . S
C149 C145 1.684 . S
C149 H175 0.979 . S
C149 H176 0.980 . S
C149 H177 0.983 . S
C150 H126 0.948 . S
C150 C151 1.391 . S
C150 C155 1.391 . S
C151 C150 1.391 . S
C151 C152 1.391 . S
C152 H129 0.947 . S
C152 C151 1.391 . S
C152 C153 1.392 . S
C153 H130 0.948 . S
C153 C152 1.392 . S
C153 C154 1.419 . S
C154 C153 1.419 . S
C154 C155 1.391 . S
C154 C158 1.397 . S
C155 C150 1.391 . S
C155 C154 1.391 . S
C155 C156 1.399 . S
C156 C155 1.399 . S
C156 C157 1.396 . S
C156 C159 1.453 . S
C156 C160 1.684 . S
C157 C147 1.723 . S
C157 C156 1.396 . S
C157 C158 1.394 . S
C158 C128 1.723 . S
C158 C154 1.397 . S
C158 C157 1.394 . S
C159 H131 0.982 . S
C159 H135 0.979 . S
C159 H136 0.977 . S
C159 C156 1.453 . S
C160 H132 0.979 . S
C160 H133 0.980 . S
C160 H134 0.983 . S
C160 C156 1.684 . S
H161 C179 0.948 . S
H162 C120 0.948 . S
H163 C138 0.979 . S
H164 C138 0.980 . S
H165 C138 0.983 . S
H166 C137 0.982 . S
H167 C137 0.979 . S
H168 C137 0.977 . S
H169 C139 0.948 . S
H170 C141 0.947 . S
H171 C142 0.948 . S
H172 C148 0.982 . S
H173 C148 0.979 . S
H174 C148 0.977 . S
H175 C149 0.979 . S
H176 C149 0.980 . S
H177 C149 0.983 . S
H178 C122 0.947 . S
C179 C122 1.392 . S
C179 C123 1.419 . S
C179 H161 0.948 . S
C180 C181 1.391 . S
C180 C184 1.391 . S
C180 H222 0.948 . S
C181 C180 1.391 . S
C181 C182 1.391 . S
C182 C181 1.391 . S
C182 H238 0.947 . S
C182 C239 1.392 . S
C183 C184 1.391 . S
C183 C187 1.397 . S
C183 C239 1.419 . S
C184 C180 1.391 . S
C184 C183 1.391 . S
C184 C185 1.399 . S
C185 C184 1.399 . S
C185 C188 1.396 . S
C185 C197 1.453 . S
C185 C198 1.684 . S
H186 C210 0.948 . S
C187 C183 1.397 . S
C187 C188 1.394 . S
C187 C206 1.723 . S
C188 C185 1.396 . S
C188 C187 1.394 . S
C188 C218 1.723 . S
H189 C212 0.947 . S
H190 C213 0.948 . S
H191 C219 0.982 . S
H192 C220 0.979 . S
H193 C220 0.980 . S
H194 C220 0.983 . S
H195 C219 0.979 . S
H196 C219 0.977 . S
C197 C185 1.453 . S
C197 H226 0.982 . S
C197 H227 0.979 . S
C197 H228 0.977 . S
C198 C185 1.684 . S
C198 H223 0.979 . S
C198 H224 0.980 . S
C198 H225 0.983 . S
C199 C200 1.391 . S
C199 C204 1.391 . S
C199 H229 0.948 . S
C200 C199 1.391 . S
C200 C201 1.391 . S
C201 C200 1.391 . S
C201 C202 1.392 . S
C201 H230 0.947 . S
C202 C201 1.392 . S
C202 C203 1.419 . S
C202 H231 0.948 . S
C203 C202 1.419 . S
C203 C204 1.391 . S
C203 C207 1.397 . S
C204 C199 1.391 . S
C204 C203 1.391 . S
C204 C205 1.399 . S
C205 C204 1.399 . S
C205 C206 1.396 . S
C205 C208 1.453 . S
C205 C209 1.684 . S
C206 C187 1.723 . S
C206 C205 1.396 . S
C206 C207 1.394 . S
C207 C203 1.397 . S
C207 C206 1.394 . S
C207 C217 1.723 . S
C208 C205 1.453 . S
C208 H232 0.982 . S
C208 H233 0.979 . S
C208 H234 0.977 . S
C209 C205 1.684 . S
C209 H235 0.979 . S
C209 H236 0.980 . S
C209 H237 0.983 . S
C210 H186 0.948 . S
C210 C211 1.391 . S
C210 C215 1.391 . S
C211 C210 1.391 . S
C211 C212 1.391 . S
C212 H189 0.947 . S
C212 C211 1.391 . S
C212 C213 1.392 . S
C213 H190 0.948 . S
C213 C212 1.392 . S
C213 C214 1.419 . S
C214 C213 1.419 . S
C214 C215 1.391 . S
C214 C218 1.397 . S
C215 C210 1.391 . S
C215 C214 1.391 . S
C215 C216 1.399 . S
C216 C215 1.399 . S
C216 C217 1.396 . S
C216 C219 1.453 . S
C216 C220 1.684 . S
C217 C207 1.723 . S
C217 C216 1.396 . S
C217 C218 1.394 . S
C218 C188 1.723 . S
C218 C214 1.397 . S
C218 C217 1.394 . S
C219 H191 0.982 . S
C219 H195 0.979 . S
C219 H196 0.977 . S
C219 C216 1.453 . S
C220 H192 0.979 . S
C220 H193 0.980 . S
C220 H194 0.983 . S
C220 C216 1.684 . S
H221 C239 0.948 . S
H222 C180 0.948 . S
H223 C198 0.979 . S
H224 C198 0.980 . S
H225 C198 0.983 . S
H226 C197 0.982 . S
H227 C197 0.979 . S
H228 C197 0.977 . S
H229 C199 0.948 . S
H230 C201 0.947 . S
H231 C202 0.948 . S
H232 C208 0.982 . S
H233 C208 0.979 . S
H234 C208 0.977 . S
H235 C209 0.979 . S
H236 C209 0.980 . S
H237 C209 0.983 . S
H238 C182 0.947 . S
C239 C182 1.392 . S
C239 C183 1.419 . S
C239 H221 0.948 . S
C240 C241 1.391 . S
C240 C244 1.391 . S
C240 H282 0.948 . S
C241 C240 1.391 . S
C241 C242 1.391 . S
C242 C241 1.391 . S
C242 H298 0.947 . S
C242 C299 1.392 . S
C243 C244 1.391 . S
C243 C247 1.397 . S
C243 C299 1.419 . S
C244 C240 1.391 . S
C244 C243 1.391 . S
C244 C245 1.399 . S
C245 C244 1.399 . S
C245 C248 1.396 . S
C245 C257 1.453 . S
C245 C258 1.684 . S
H246 C270 0.948 . S
C247 C243 1.397 . S
C247 C248 1.394 . S
C247 C266 1.723 . S
C248 C245 1.396 . S
C248 C247 1.394 . S
C248 C278 1.723 . S
H249 C272 0.947 . S
H250 C273 0.948 . S
H251 C279 0.982 . S
H252 C280 0.979 . S
H253 C280 0.980 . S
H254 C280 0.983 . S
H255 C279 0.979 . S
H256 C279 0.977 . S
C257 C245 1.453 . S
C257 H286 0.982 . S
C257 H287 0.979 . S
C257 H288 0.977 . S
C258 C245 1.684 . S
C258 H283 0.979 . S
C258 H284 0.980 . S
C258 H285 0.983 . S
C259 C260 1.391 . S
C259 C264 1.391 . S
C259 H289 0.948 . S
C260 C259 1.391 . S
C260 C261 1.391 . S
C261 C260 1.391 . S
C261 C262 1.392 . S
C261 H290 0.947 . S
C262 C261 1.392 . S
C262 C263 1.419 . S
C262 H291 0.948 . S
C263 C262 1.419 . S
C263 C264 1.391 . S
C263 C267 1.397 . S
C264 C259 1.391 . S
C264 C263 1.391 . S
C264 C265 1.399 . S
C265 C264 1.399 . S
C265 C266 1.396 . S
C265 C268 1.453 . S
C265 C269 1.684 . S
C266 C247 1.723 . S
C266 C265 1.396 . S
C266 C267 1.394 . S
C267 C263 1.397 . S
C267 C266 1.394 . S
C267 C277 1.723 . S
C268 C265 1.453 . S
C268 H292 0.982 . S
C268 H293 0.979 . S
C268 H294 0.977 . S
C269 C265 1.684 . S
C269 H295 0.979 . S
C269 H296 0.980 . S
C269 H297 0.983 . S
C270 H246 0.948 . S
C270 C271 1.391 . S
C270 C275 1.391 . S
C271 C270 1.391 . S
C271 C272 1.391 . S
C272 H249 0.947 . S
C272 C271 1.391 . S
C272 C273 1.392 . S
C273 H250 0.948 . S
C273 C272 1.392 . S
C273 C274 1.419 . S
C274 C273 1.419 . S
C274 C275 1.391 . S
C274 C278 1.397 . S
C275 C270 1.391 . S
C275 C274 1.391 . S
C275 C276 1.399 . S
C276 C275 1.399 . S
C276 C277 1.396 . S
C276 C279 1.453 . S
C276 C280 1.684 . S
C277 C267 1.723 . S
C277 C276 1.396 . S
C277 C278 1.394 . S
C278 C248 1.723 . S
C278 C274 1.397 . S
C278 C277 1.394 . S
C279 H251 0.982 . S
C279 H255 0.979 . S
C279 H256 0.977 . S
C279 C276 1.453 . S
C280 H252 0.979 . S
C280 H253 0.980 . S
C280 H254 0.983 . S
C280 C276 1.684 . S
H281 C299 0.948 . S
H282 C240 0.948 . S
H283 C258 0.979 . S
H284 C258 0.980 . S
H285 C258 0.983 . S
H286 C257 0.982 . S
H287 C257 0.979 . S
H288 C257 0.977 . S
H289 C259 0.948 . S
H290 C261 0.947 . S
H291 C262 0.948 . S
H292 C268 0.982 . S
H293 C268 0.979 . S
H294 C268 0.977 . S
H295 C269 0.979 . S
H296 C269 0.980 . S
H297 C269 0.983 . S
H298 C242 0.947 . S
C299 C242 1.392 . S
C299 C243 1.419 . S
C299 H281 0.948 . S
C300 C301 1.391 . S
C300 C304 1.391 . S
C300 H342 0.948 . S
C301 C300 1.391 . S
C301 C302 1.391 . S
C302 C301 1.391 . S
C302 H358 0.947 . S
C302 C359 1.392 . S
C303 C304 1.391 . S
C303 C307 1.397 . S
C303 C359 1.419 . S
C304 C300 1.391 . S
C304 C303 1.391 . S
C304 C305 1.399 . S
C305 C304 1.399 . S
C305 C308 1.396 . S
C305 C317 1.453 . S
C305 C318 1.684 . S
H306 C330 0.948 . S
C307 C303 1.397 . S
C307 C308 1.394 . S
C307 C326 1.723 . S
C308 C305 1.396 . S
C308 C307 1.394 . S
C308 C338 1.723 . S
H309 C332 0.947 . S
H310 C333 0.948 . S
H311 C339 0.982 . S
H312 C340 0.979 . S
H313 C340 0.980 . S
H314 C340 0.983 . S
H315 C339 0.979 . S
H316 C339 0.977 . S
C317 C305 1.453 . S
C317 H346 0.982 . S
C317 H347 0.979 . S
C317 H348 0.977 . S
C318 C305 1.684 . S
C318 H343 0.979 . S
C318 H344 0.980 . S
C318 H345 0.983 . S
C319 C320 1.391 . S
C319 C324 1.391 . S
C319 H349 0.948 . S
C320 C319 1.391 . S
C320 C321 1.391 . S
C321 C320 1.391 . S
C321 C322 1.392 . S
C321 H350 0.947 . S
C322 C321 1.392 . S
C322 C323 1.419 . S
C322 H351 0.948 . S
C323 C322 1.419 . S
C323 C324 1.391 . S
C323 C327 1.397 . S
C324 C319 1.391 . S
C324 C323 1.391 . S
C324 C325 1.399 . S
C325 C324 1.399 . S
C325 C326 1.396 . S
C325 C328 1.453 . S
C325 C329 1.684 . S
C326 C307 1.723 . S
C326 C325 1.396 . S
C326 C327 1.394 . S
C327 C323 1.397 . S
C327 C326 1.394 . S
C327 C337 1.723 . S
C328 C325 1.453 . S
C328 H352 0.982 . S
C328 H353 0.979 . S
C328 H354 0.977 . S
C329 C325 1.684 . S
C329 H355 0.979 . S
C329 H356 0.980 . S
C329 H357 0.983 . S
C330 H306 0.948 . S
C330 C331 1.391 . S
C330 C335 1.391 . S
C331 C330 1.391 . S
C331 C332 1.391 . S
C332 H309 0.947 . S
C332 C331 1.391 . S
C332 C333 1.392 . S
C333 H310 0.948 . S
C333 C332 1.392 . S
C333 C334 1.419 . S
C334 C333 1.419 . S
C334 C335 1.391 . S
C334 C338 1.397 . S
C335 C330 1.391 . S
C335 C334 1.391 . S
C335 C336 1.399 . S
C336 C335 1.399 . S
C336 C337 1.396 . S
C336 C339 1.453 . S
C336 C340 1.684 . S
C337 C327 1.723 . S
C337 C336 1.396 . S
C337 C338 1.394 . S
C338 C308 1.723 . S
C338 C334 1.397 . S
C338 C337 1.394 . S
C339 H311 0.982 . S
C339 H315 0.979 . S
C339 H316 0.977 . S
C339 C336 1.453 . S
C340 H312 0.979 . S
C340 H313 0.980 . S
C340 H314 0.983 . S
C340 C336 1.684 . S
H341 C359 0.948 . S
H342 C300 0.948 . S
H343 C318 0.979 . S
H344 C318 0.980 . S
H345 C318 0.983 . S
H346 C317 0.982 . S
H347 C317 0.979 . S
H348 C317 0.977 . S
H349 C319 0.948 . S
H350 C321 0.947 . S
H351 C322 0.948 . S
H352 C328 0.982 . S
H353 C328 0.979 . S
H354 C328 0.977 . S
H355 C329 0.979 . S
H356 C329 0.980 . S
H357 C329 0.983 . S
H358 C302 0.947 . S
C359 C302 1.392 . S
C359 C303 1.419 . S
C359 H341 0.948 . S
C360 C361 1.391 . S
C360 C364 1.391 . S
C360 H402 0.948 . S
C361 C360 1.391 . S
C361 C362 1.391 . S
C362 C361 1.391 . S
C362 H418 0.947 . S
C362 C419 1.392 . S
C363 C364 1.391 . S
C363 C367 1.397 . S
C363 C419 1.419 . S
C364 C360 1.391 . S
C364 C363 1.391 . S
C364 C365 1.399 . S
C365 C364 1.399 . S
C365 C368 1.396 . S
C365 C377 1.453 . S
C365 C378 1.684 . S
H366 C390 0.948 . S
C367 C363 1.397 . S
C367 C368 1.394 . S
C367 C386 1.723 . S
C368 C365 1.396 . S
C368 C367 1.394 . S
C368 C398 1.723 . S
H369 C392 0.947 . S
H370 C393 0.948 . S
H371 C399 0.982 . S
H372 C400 0.979 . S
H373 C400 0.980 . S
H374 C400 0.983 . S
H375 C399 0.979 . S
H376 C399 0.977 . S
C377 C365 1.453 . S
C377 H406 0.982 . S
C377 H407 0.979 . S
C377 H408 0.977 . S
C378 C365 1.684 . S
C378 H403 0.979 . S
C378 H404 0.980 . S
C378 H405 0.983 . S
C379 C380 1.391 . S
C379 C384 1.391 . S
C379 H409 0.948 . S
C380 C379 1.391 . S
C380 C381 1.391 . S
C381 C380 1.391 . S
C381 C382 1.392 . S
C381 H410 0.947 . S
C382 C381 1.392 . S
C382 C383 1.419 . S
C382 H411 0.948 . S
C383 C382 1.419 . S
C383 C384 1.391 . S
C383 C387 1.397 . S
C384 C379 1.391 . S
C384 C383 1.391 . S
C384 C385 1.399 . S
C385 C384 1.399 . S
C385 C386 1.396 . S
C385 C388 1.453 . S
C385 C389 1.684 . S
C386 C367 1.723 . S
C386 C385 1.396 . S
C386 C387 1.394 . S
C387 C383 1.397 . S
C387 C386 1.394 . S
C387 C397 1.723 . S
C388 C385 1.453 . S
C388 H412 0.982 . S
C388 H413 0.979 . S
C388 H414 0.977 . S
C389 C385 1.684 . S
C389 H415 0.979 . S
C389 H416 0.980 . S
C389 H417 0.983 . S
C390 H366 0.948 . S
C390 C391 1.391 . S
C390 C395 1.391 . S
C391 C390 1.391 . S
C391 C392 1.391 . S
C392 H369 0.947 . S
C392 C391 1.391 . S
C392 C393 1.392 . S
C393 H370 0.948 . S
C393 C392 1.392 . S
C393 C394 1.419 . S
C394 C393 1.419 . S
C394 C395 1.391 . S
C394 C398 1.397 . S
C395 C390 1.391 . S
C395 C394 1.391 . S
C395 C396 1.399 . S
C396 C395 1.399 . S
C396 C397 1.396 . S
C396 C399 1.453 . S
C396 C400 1.684 . S
C397 C387 1.723 . S
C397 C396 1.396 . S
C397 C398 1.394 . S
C398 C368 1.723 . S
C398 C394 1.397 . S
C398 C397 1.394 . S
C399 H371 0.982 . S
C399 H375 0.979 . S
C399 H376 0.977 . S
C399 C396 1.453 . S
C400 H372 0.979 . S
C400 H373 0.980 . S
C400 H374 0.983 . S
C400 C396 1.684 . S
H401 C419 0.948 . S
H402 C360 0.948 . S
H403 C378 0.979 . S
H404 C378 0.980 . S
H405 C378 0.983 . S
H406 C377 0.982 . S
H407 C377 0.979 . S
H408 C377 0.977 . S
H409 C379 0.948 . S
H410 C381 0.947 . S
H411 C382 0.948 . S
H412 C388 0.982 . S
H413 C388 0.979 . S
H414 C388 0.977 . S
H415 C389 0.979 . S
H416 C389 0.980 . S
H417 C389 0.983 . S
H418 C362 0.947 . S
C419 C362 1.392 . S
C419 C363 1.419 . S
C419 H401 0.948 . S
C420 C421 1.391 . S
C420 C424 1.391 . S
C420 H462 0.948 . S
C421 C420 1.391 . S
C421 C422 1.391 . S
C422 C421 1.391 . S
C422 H478 0.947 . S
C422 C479 1.392 . S
C423 C424 1.391 . S
C423 C427 1.397 . S
C423 C479 1.419 . S
C424 C420 1.391 . S
C424 C423 1.391 . S
C424 C425 1.399 . S
C425 C424 1.399 . S
C425 C428 1.396 . S
C425 C437 1.453 . S
C425 C438 1.684 . S
H426 C450 0.948 . S
C427 C423 1.397 . S
C427 C428 1.394 . S
C427 C446 1.723 . S
C428 C425 1.396 . S
C428 C427 1.394 . S
C428 C458 1.723 . S
H429 C452 0.947 . S
H430 C453 0.948 . S
H431 C459 0.982 . S
H432 C460 0.979 . S
H433 C460 0.980 . S
H434 C460 0.983 . S
H435 C459 0.979 . S
H436 C459 0.977 . S
C437 C425 1.453 . S
C437 H466 0.982 . S
C437 H467 0.979 . S
C437 H468 0.977 . S
C438 C425 1.684 . S
C438 H463 0.979 . S
C438 H464 0.980 . S
C438 H465 0.983 . S
C439 C440 1.391 . S
C439 C444 1.391 . S
C439 H469 0.948 . S
C440 C439 1.391 . S
C440 C441 1.391 . S
C441 C440 1.391 . S
C441 C442 1.392 . S
C441 H470 0.947 . S
C442 C441 1.392 . S
C442 C443 1.419 . S
C442 H471 0.948 . S
C443 C442 1.419 . S
C443 C444 1.391 . S
C443 C447 1.397 . S
C444 C439 1.391 . S
C444 C443 1.391 . S
C444 C445 1.399 . S
C445 C444 1.399 . S
C445 C446 1.396 . S
C445 C448 1.453 . S
C445 C449 1.684 . S
C446 C427 1.723 . S
C446 C445 1.396 . S
C446 C447 1.394 . S
C447 C443 1.397 . S
C447 C446 1.394 . S
C447 C457 1.723 . S
C448 C445 1.453 . S
C448 H472 0.982 . S
C448 H473 0.979 . S
C448 H474 0.977 . S
C449 C445 1.684 . S
C449 H475 0.979 . S
C449 H476 0.980 . S
C449 H477 0.983 . S
C450 H426 0.948 . S
C450 C451 1.391 . S
C450 C455 1.391 . S
C451 C450 1.391 . S
C451 C452 1.391 . S
C452 H429 0.947 . S
C452 C451 1.391 . S
C452 C453 1.392 . S
C453 H430 0.948 . S
C453 C452 1.392 . S
C453 C454 1.419 . S
C454 C453 1.419 . S
C454 C455 1.391 . S
C454 C458 1.397 . S
C455 C450 1.391 . S
C455 C454 1.391 . S
C455 C456 1.399 . S
C456 C455 1.399 . S
C456 C457 1.396 . S
C456 C459 1.453 . S
C456 C460 1.684 . S
C457 C447 1.723 . S
C457 C456 1.396 . S
C457 C458 1.394 . S
C458 C428 1.723 . S
C458 C454 1.397 . S
C458 C457 1.394 . S
C459 H431 0.982 . S
C459 H435 0.979 . S
C459 H436 0.977 . S
C459 C456 1.453 . S
C460 H432 0.979 . S
C460 H433 0.980 . S
C460 H434 0.983 . S
C460 C456 1.684 . S
H461 C479 0.948 . S
H462 C420 0.948 . S
H463 C438 0.979 . S
H464 C438 0.980 . S
H465 C438 0.983 . S
H466 C437 0.982 . S
H467 C437 0.979 . S
H468 C437 0.977 . S
H469 C439 0.948 . S
H470 C441 0.947 . S
H471 C442 0.948 . S
H472 C448 0.982 . S
H473 C448 0.979 . S
H474 C448 0.977 . S
H475 C449 0.979 . S
H476 C449 0.980 . S
H477 C449 0.983 . S
H478 C422 0.947 . S
C479 C422 1.392 . S
C479 C423 1.419 . S
C479 H461 0.948 . S
C480 O482 1.247 . S
C480 O484 1.258 . S
C481 O488 1.247 . S
C481 O489 1.258 . S
O482 C480 1.247 . S
O482 Zn483 2.026 1_655 S
Zn483 O482 2.026 1_455 S
Zn483 O487 2.037 . S
Zn483 O489 2.037 . S
Zn483 O490 2.026 1_455 S
O484 C480 1.258 . S
O484 Zn485 2.018 1_655 S
Zn485 O484 2.018 1_455 S
Zn485 O486 2.045 . S
Zn485 O488 2.045 . S
Zn485 O491 2.018 1_455 S
O486 Zn485 2.045 . S
O486 C492 1.247 . S
O487 Zn483 2.037 . S
O487 C492 1.258 . S
O488 C481 1.247 . S
O488 Zn485 2.045 . S
O489 C481 1.258 . S
O489 Zn483 2.037 . S
O490 Zn483 2.026 1_655 S
O490 C493 1.247 . S
O491 Zn485 2.018 1_655 S
O491 C493 1.258 . S
C492 O486 1.247 . S
C492 O487 1.258 . S
C493 O490 1.247 . S
C493 O491 1.258 . S
C494 O496 1.247 . S
C494 O498 1.258 . S
C495 O502 1.247 . S
C495 O503 1.258 . S
O496 C494 1.247 . S
O496 Zn497 2.026 1_655 S
Zn497 O496 2.026 1_455 S
Zn497 O501 2.037 . S
Zn497 O503 2.037 . S
Zn497 O504 2.026 1_455 S
O498 C494 1.258 . S
O498 Zn499 2.018 1_655 S
Zn499 O498 2.018 1_455 S
Zn499 O500 2.045 . S
Zn499 O502 2.045 . S
Zn499 O505 2.018 1_455 S
O500 Zn499 2.045 . S
O500 C506 1.247 . S
O501 Zn497 2.037 . S
O501 C506 1.258 . S
O502 C495 1.247 . S
O502 Zn499 2.045 . S
O503 C495 1.258 . S
O503 Zn497 2.037 . S
O504 Zn497 2.026 1_655 S
O504 C507 1.247 . S
O505 Zn499 2.018 1_655 S
O505 C507 1.258 . S
C506 O500 1.247 . S
C506 O501 1.258 . S
C507 O504 1.247 . S
C507 O505 1.258 . S
C508 O510 1.247 . S
C508 O512 1.258 . S
C509 O516 1.247 . S
C509 O517 1.258 . S
O510 C508 1.247 . S
O510 Zn511 2.029 . S
Zn511 O510 2.029 . S
Zn511 O515 2.034 1_565 S
Zn511 O517 2.034 1_565 S
Zn511 O518 2.029 . S
O512 C508 1.258 . S
O512 Zn513 2.028 1_565 S
Zn513 O512 2.028 1_545 S
Zn513 O514 2.035 . S
Zn513 O516 2.035 . S
Zn513 O519 2.028 1_545 S
O514 Zn513 2.035 . S
O514 C520 1.247 . S
O515 Zn511 2.034 1_545 S
O515 C520 1.258 . S
O516 C509 1.247 . S
O516 Zn513 2.035 . S
O517 C509 1.258 . S
O517 Zn511 2.034 1_545 S
O518 Zn511 2.029 . S
O518 C521 1.247 . S
O519 Zn513 2.028 1_565 S
O519 C521 1.258 . S
C520 O514 1.247 . S
C520 O515 1.258 . S
C521 O518 1.247 . S
C521 O519 1.258 . S
C522 O524 1.247 . S
C522 O526 1.258 . S
C523 O530 1.247 . S
C523 O531 1.258 . S
O524 C522 1.247 . S
O524 Zn525 2.028 . S
Zn525 O524 2.028 . S
Zn525 O529 2.035 . S
Zn525 O531 2.035 1_554 S
Zn525 O532 2.028 1_554 S
O526 C522 1.258 . S
O526 Zn527 2.035 . S
Zn527 O526 2.035 . S
Zn527 O528 2.028 . S
Zn527 O530 2.028 1_554 S
Zn527 O533 2.035 1_554 S
O528 Zn527 2.028 . S
O528 C534 1.247 . S
O529 Zn525 2.035 . S
O529 C534 1.258 . S
O530 C523 1.247 . S
O530 Zn527 2.028 1_556 S
O531 C523 1.258 . S
O531 Zn525 2.035 1_556 S
O532 Zn525 2.028 1_556 S
O532 C535 1.247 . S
O533 Zn527 2.035 1_556 S
O533 C535 1.258 . S
C534 O528 1.247 . S
C534 O529 1.258 . S
C535 O532 1.247 . S
C535 O533 1.258 . S
C536 O538 1.247 . S
C536 O540 1.258 . S
C537 O544 1.247 . S
C537 O545 1.258 . S
O538 C536 1.247 . S
O538 Zn539 2.029 . S
Zn539 O538 2.029 . S
Zn539 O543 2.034 1_565 S
Zn539 O545 2.034 1_565 S
Zn539 O546 2.029 . S
O540 C536 1.258 . S
O540 Zn541 2.028 1_565 S
Zn541 O540 2.028 1_545 S
Zn541 O542 2.035 . S
Zn541 O544 2.035 . S
Zn541 O547 2.028 1_545 S
O542 Zn541 2.035 . S
O542 C548 1.247 . S
O543 Zn539 2.034 1_545 S
O543 C548 1.258 . S
O544 C537 1.247 . S
O544 Zn541 2.035 . S
O545 C537 1.258 . S
O545 Zn539 2.034 1_545 S
O546 Zn539 2.029 . S
O546 C549 1.247 . S
O547 Zn541 2.028 1_565 S
O547 C549 1.258 . S
C548 O542 1.247 . S
C548 O543 1.258 . S
C549 O546 1.247 . S
C549 O547 1.258 . S
C550 O552 1.247 . S
C550 O554 1.258 . S
C551 O558 1.247 . S
C551 O559 1.258 . S
O552 C550 1.247 . S
O552 Zn553 2.028 . S
Zn553 O552 2.028 . S
Zn553 O557 2.035 . S
Zn553 O559 2.035 1_554 S
Zn553 O560 2.028 1_554 S
O554 C550 1.258 . S
O554 Zn555 2.035 . S
Zn555 O554 2.035 . S
Zn555 O556 2.028 . S
Zn555 O558 2.028 1_554 S
Zn555 O561 2.035 1_554 S
O556 Zn555 2.028 . S
O556 C562 1.247 . S
O557 Zn553 2.035 . S
O557 C562 1.258 . S
O558 C551 1.247 . S
O558 Zn555 2.028 1_556 S
O559 C551 1.258 . S
O559 Zn553 2.035 1_556 S
O560 Zn553 2.028 1_556 S
O560 C563 1.247 . S
O561 Zn555 2.035 1_556 S
O561 C563 1.258 . S
C562 O556 1.247 . S
C562 O557 1.258 . S
C563 O560 1.247 . S
C563 O561 1.258 . S
H564 C570 0.930 . S
H565 C573 0.930 . S
H566 C574 0.930 . S
H567 C575 0.930 . S
H568 C578 0.930 . S
H569 C579 0.930 . S
C570 H564 0.930 . S
C570 C571 1.355 . S
C570 C572 1.415 . S
C571 C570 1.355 . S
C571 C573 1.419 . S
C572 C570 1.415 . S
C572 C577 1.425 . S
C572 C579 1.409 . S
C573 H565 0.930 . S
C573 C571 1.419 . S
C573 C574 1.362 . S
C574 H566 0.930 . S
C574 C573 1.362 . S
C574 C577 1.409 . S
C575 H567 0.930 . S
C575 C576 1.355 . S
C575 C577 1.415 . S
C576 C575 1.355 . S
C576 C578 1.419 . S
C577 C572 1.425 . S
C577 C574 1.409 . S
C577 C575 1.415 . S
C578 H568 0.930 . S
C578 C576 1.419 . S
C578 C579 1.362 . S
C579 H569 0.930 . S
C579 C572 1.409 . S
C579 C578 1.362 . S
H580 C586 0.930 . S
H581 C589 0.930 . S
H582 C590 0.930 . S
H583 C591 0.930 . S
H584 C594 0.930 . S
H585 C595 0.930 . S
C586 H580 0.930 . S
C586 C587 1.355 . S
C586 C588 1.415 . S
C587 C586 1.355 . S
C587 C589 1.419 . S
C588 C586 1.415 . S
C588 C593 1.425 . S
C588 C595 1.409 . S
C589 H581 0.930 . S
C589 C587 1.419 . S
C589 C590 1.362 . S
C590 H582 0.930 . S
C590 C589 1.362 . S
C590 C593 1.409 . S
C591 H583 0.930 . S
C591 C592 1.355 . S
C591 C593 1.415 . S
C592 C591 1.355 . S
C592 C594 1.419 . S
C593 C588 1.425 . S
C593 C590 1.409 . S
C593 C591 1.415 . S
C594 H584 0.930 . S
C594 C592 1.419 . S
C594 C595 1.362 . S
C595 H585 0.930 . S
C595 C588 1.409 . S
C595 C594 1.362 . S
H596 C602 0.930 . S
H597 C605 0.930 . S
H598 C606 0.930 . S
H599 C607 0.930 . S
H600 C610 0.930 . S
H601 C611 0.930 . S
C602 H596 0.930 . S
C602 C603 1.355 . S
C602 C604 1.415 . S
C603 C602 1.355 . S
C603 C605 1.419 . S
C604 C602 1.415 . S
C604 C609 1.425 . S
C604 C611 1.409 . S
C605 H597 0.930 . S
C605 C603 1.419 . S
C605 C606 1.362 . S
C606 H598 0.930 . S
C606 C605 1.362 . S
C606 C609 1.409 . S
C607 H599 0.930 . S
C607 C608 1.355 . S
C607 C609 1.415 . S
C608 C607 1.355 . S
C608 C610 1.419 . S
C609 C604 1.425 . S
C609 C606 1.409 . S
C609 C607 1.415 . S
C610 H600 0.930 . S
C610 C608 1.419 . S
C610 C611 1.362 . S
C611 H601 0.930 . S
C611 C604 1.409 . S
C611 C610 1.362 . S
H612 C618 0.930 . S
H613 C621 0.930 . S
H614 C622 0.930 . S
H615 C623 0.930 . S
H616 C626 0.930 . S
H617 C627 0.930 . S
C618 H612 0.930 . S
C618 C619 1.355 . S
C618 C620 1.415 . S
C619 C618 1.355 . S
C619 C621 1.419 . S
C620 C618 1.415 . S
C620 C625 1.425 . S
C620 C627 1.409 . S
C621 H613 0.930 . S
C621 C619 1.419 . S
C621 C622 1.362 . S
C622 H614 0.930 . S
C622 C621 1.362 . S
C622 C625 1.409 . S
C623 H615 0.930 . S
C623 C624 1.355 . S
C623 C625 1.415 . S
C624 C623 1.355 . S
C624 C626 1.419 . S
C625 C620 1.425 . S
C625 C622 1.409 . S
C625 C623 1.415 . S
C626 H616 0.930 . S
C626 C624 1.419 . S
C626 C627 1.362 . S
C627 H617 0.930 . S
C627 C620 1.409 . S
C627 C626 1.362 . S
H628 C634 0.930 . S
H629 C637 0.930 . S
H630 C638 0.930 . S
H631 C639 0.930 . S
H632 C642 0.930 . S
H633 C643 0.930 . S
C634 H628 0.930 . S
C634 C635 1.355 . S
C634 C636 1.415 . S
C635 C634 1.355 . S
C635 C637 1.419 . S
C636 C634 1.415 . S
C636 C641 1.425 . S
C636 C643 1.409 . S
C637 H629 0.930 . S
C637 C635 1.419 . S
C637 C638 1.362 . S
C638 H630 0.930 . S
C638 C637 1.362 . S
C638 C641 1.409 . S
C639 H631 0.930 . S
C639 C640 1.355 . S
C639 C641 1.415 . S
C640 C639 1.355 . S
C640 C642 1.419 . S
C641 C636 1.425 . S
C641 C638 1.409 . S
C641 C639 1.415 . S
C642 H632 0.930 . S
C642 C640 1.419 . S
C642 C643 1.362 . S
C643 H633 0.930 . S
C643 C636 1.409 . S
C643 C642 1.362 . S
H644 C650 0.930 . S
H645 C653 0.930 . S
H646 C654 0.930 . S
H647 C655 0.930 . S
H648 C658 0.930 . S
H649 C659 0.930 . S
C650 H644 0.930 . S
C650 C651 1.355 . S
C650 C652 1.415 . S
C651 C650 1.355 . S
C651 C653 1.419 . S
C652 C650 1.415 . S
C652 C657 1.425 . S
C652 C659 1.409 . S
C653 H645 0.930 . S
C653 C651 1.419 . S
C653 C654 1.362 . S
C654 H646 0.930 . S
C654 C653 1.362 . S
C654 C657 1.409 . S
C655 H647 0.930 . S
C655 C656 1.355 . S
C655 C657 1.415 . S
C656 C655 1.355 . S
C656 C658 1.419 . S
C657 C652 1.425 . S
C657 C654 1.409 . S
C657 C655 1.415 . S
C658 H648 0.930 . S
C658 C656 1.419 . S
C658 C659 1.362 . S
C659 H649 0.930 . S
C659 C652 1.409 . S
C659 C658 1.362 . S
H660 C666 0.930 . S
H661 C669 0.930 . S
H662 C670 0.930 . S
H663 C671 0.930 . S
H664 C674 0.930 . S
H665 C675 0.930 . S
C666 H660 0.930 . S
C666 C667 1.355 . S
C666 C668 1.415 . S
C667 C666 1.355 . S
C667 C669 1.419 . S
C668 C666 1.415 . S
C668 C673 1.425 . S
C668 C675 1.409 . S
C669 H661 0.930 . S
C669 C667 1.419 . S
C669 C670 1.362 . S
C670 H662 0.930 . S
C670 C669 1.362 . S
C670 C673 1.409 . S
C671 H663 0.930 . S
C671 C672 1.355 . S
C671 C673 1.415 . S
C672 C671 1.355 . S
C672 C674 1.419 . S
C673 C668 1.425 . S
C673 C670 1.409 . S
C673 C671 1.415 . S
C674 H664 0.930 . S
C674 C672 1.419 . S
C674 C675 1.362 . S
C675 H665 0.930 . S
C675 C668 1.409 . S
C675 C674 1.362 . S
H676 C682 0.930 . S
H677 C685 0.930 . S
H678 C686 0.930 . S
H679 C687 0.930 . S
H680 C690 0.930 . S
H681 C691 0.930 . S
C682 H676 0.930 . S
C682 C683 1.355 . S
C682 C684 1.415 . S
C683 C682 1.355 . S
C683 C685 1.419 . S
C684 C682 1.415 . S
C684 C689 1.425 . S
C684 C691 1.409 . S
C685 H677 0.930 . S
C685 C683 1.419 . S
C685 C686 1.362 . S
C686 H678 0.930 . S
C686 C685 1.362 . S
C686 C689 1.409 . S
C687 H679 0.930 . S
C687 C688 1.355 . S
C687 C689 1.415 . S
C688 C687 1.355 . S
C688 C690 1.419 . S
C689 C684 1.425 . S
C689 C686 1.409 . S
C689 C687 1.415 . S
C690 H680 0.930 . S
C690 C688 1.419 . S
C690 C691 1.362 . S
C691 H681 0.930 . S
C691 C684 1.409 . S
C691 C690 1.362 . S
H692 C698 0.930 . S
H693 C701 0.930 . S
H694 C702 0.930 . S
H695 C703 0.930 . S
H696 C706 0.930 . S
H697 C707 0.930 . S
C698 H692 0.930 . S
C698 C699 1.355 . S
C698 C700 1.415 . S
C699 C698 1.355 . S
C699 C701 1.419 . S
C700 C698 1.415 . S
C700 C705 1.425 . S
C700 C707 1.409 . S
C701 H693 0.930 . S
C701 C699 1.419 . S
C701 C702 1.362 . S
C702 H694 0.930 . S
C702 C701 1.362 . S
C702 C705 1.409 . S
C703 H695 0.930 . S
C703 C704 1.355 . S
C703 C705 1.415 . S
C704 C703 1.355 . S
C704 C706 1.419 . S
C705 C700 1.425 . S
C705 C702 1.409 . S
C705 C703 1.415 . S
C706 H696 0.930 . S
C706 C704 1.419 . S
C706 C707 1.362 . S
C707 H697 0.930 . S
C707 C700 1.409 . S
C707 C706 1.362 . S
H708 C714 0.930 . S
H709 C717 0.930 . S
H710 C718 0.930 . S
H711 C719 0.930 . S
H712 C722 0.930 . S
H713 C723 0.930 . S
C714 H708 0.930 . S
C714 C715 1.355 . S
C714 C716 1.415 . S
C715 C714 1.355 . S
C715 C717 1.419 . S
C716 C714 1.415 . S
C716 C721 1.425 . S
C716 C723 1.409 . S
C717 H709 0.930 . S
C717 C715 1.419 . S
C717 C718 1.362 . S
C718 H710 0.930 . S
C718 C717 1.362 . S
C718 C721 1.409 . S
C719 H711 0.930 . S
C719 C720 1.355 . S
C719 C721 1.415 . S
C720 C719 1.355 . S
C720 C722 1.419 . S
C721 C716 1.425 . S
C721 C718 1.409 . S
C721 C719 1.415 . S
C722 H712 0.930 . S
C722 C720 1.419 . S
C722 C723 1.362 . S
C723 H713 0.930 . S
C723 C716 1.409 . S
C723 C722 1.362 . S
H724 C730 0.930 . S
H725 C733 0.930 . S
H726 C734 0.930 . S
H727 C735 0.930 . S
H728 C738 0.930 . S
H729 C739 0.930 . S
C730 H724 0.930 . S
C730 C731 1.355 . S
C730 C732 1.415 . S
C731 C730 1.355 . S
C731 C733 1.419 . S
C732 C730 1.415 . S
C732 C737 1.425 . S
C732 C739 1.409 . S
C733 H725 0.930 . S
C733 C731 1.419 . S
C733 C734 1.362 . S
C734 H726 0.930 . S
C734 C733 1.362 . S
C734 C737 1.409 . S
C735 H727 0.930 . S
C735 C736 1.355 . S
C735 C737 1.415 . S
C736 C735 1.355 . S
C736 C738 1.419 . S
C737 C732 1.425 . S
C737 C734 1.409 . S
C737 C735 1.415 . S
C738 H728 0.930 . S
C738 C736 1.419 . S
C738 C739 1.362 . S
C739 H729 0.930 . S
C739 C732 1.409 . S
C739 C738 1.362 . S
H740 C746 0.930 . S
H741 C749 0.930 . S
H742 C750 0.930 . S
H743 C751 0.930 . S
H744 C754 0.930 . S
H745 C755 0.930 . S
C746 H740 0.930 . S
C746 C747 1.355 . S
C746 C748 1.415 . S
C747 C746 1.355 . S
C747 C749 1.419 . S
C748 C746 1.415 . S
C748 C753 1.425 . S
C748 C755 1.409 . S
C749 H741 0.930 . S
C749 C747 1.419 . S
C749 C750 1.362 . S
C750 H742 0.930 . S
C750 C749 1.362 . S
C750 C753 1.409 . S
C751 H743 0.930 . S
C751 C752 1.355 . S
C751 C753 1.415 . S
C752 C751 1.355 . S
C752 C754 1.419 . S
C753 C748 1.425 . S
C753 C750 1.409 . S
C753 C751 1.415 . S
C754 H744 0.930 . S
C754 C752 1.419 . S
C754 C755 1.362 . S
C755 H745 0.930 . S
C755 C748 1.409 . S
C755 C754 1.362 . S
H756 C762 0.930 . S
H757 C765 0.930 . S
H758 C766 0.930 . S
H759 C767 0.930 . S
H760 C770 0.930 . S
H761 C771 0.930 . S
C762 H756 0.930 . S
C762 C763 1.355 . S
C762 C764 1.415 . S
C763 C762 1.355 . S
C763 C765 1.419 . S
C764 C762 1.415 . S
C764 C769 1.425 . S
C764 C771 1.409 . S
C765 H757 0.930 . S
C765 C763 1.419 . S
C765 C766 1.362 . S
C766 H758 0.930 . S
C766 C765 1.362 . S
C766 C769 1.409 . S
C767 H759 0.930 . S
C767 C768 1.355 . S
C767 C769 1.415 . S
C768 C767 1.355 . S
C768 C770 1.419 . S
C769 C764 1.425 . S
C769 C766 1.409 . S
C769 C767 1.415 . S
C770 H760 0.930 . S
C770 C768 1.419 . S
C770 C771 1.362 . S
C771 H761 0.930 . S
C771 C764 1.409 . S
C771 C770 1.362 . S
H772 C778 0.930 . S
H773 C781 0.930 . S
H774 C782 0.930 . S
H775 C783 0.930 . S
H776 C786 0.930 . S
H777 C787 0.930 . S
C778 H772 0.930 . S
C778 C779 1.355 . S
C778 C780 1.415 . S
C779 C778 1.355 . S
C779 C781 1.419 . S
C780 C778 1.415 . S
C780 C785 1.425 . S
C780 C787 1.409 . S
C781 H773 0.930 . S
C781 C779 1.419 . S
C781 C782 1.362 . S
C782 H774 0.930 . S
C782 C781 1.362 . S
C782 C785 1.409 . S
C783 H775 0.930 . S
C783 C784 1.355 . S
C783 C785 1.415 . S
C784 C783 1.355 . S
C784 C786 1.419 . S
C785 C780 1.425 . S
C785 C782 1.409 . S
C785 C783 1.415 . S
C786 H776 0.930 . S
C786 C784 1.419 . S
C786 C787 1.362 . S
C787 H777 0.930 . S
C787 C780 1.409 . S
C787 C786 1.362 . S
H788 C794 0.930 . S
H789 C797 0.930 . S
H790 C798 0.930 . S
H791 C799 0.930 . S
H792 C802 0.930 . S
H793 C803 0.930 . S
C794 H788 0.930 . S
C794 C795 1.355 . S
C794 C796 1.415 . S
C795 C794 1.355 . S
C795 C797 1.419 . S
C796 C794 1.415 . S
C796 C801 1.425 . S
C796 C803 1.409 . S
C797 H789 0.930 . S
C797 C795 1.419 . S
C797 C798 1.362 . S
C798 H790 0.930 . S
C798 C797 1.362 . S
C798 C801 1.409 . S
C799 H791 0.930 . S
C799 C800 1.355 . S
C799 C801 1.415 . S
C800 C799 1.355 . S
C800 C802 1.419 . S
C801 C796 1.425 . S
C801 C798 1.409 . S
C801 C799 1.415 . S
C802 H792 0.930 . S
C802 C800 1.419 . S
C802 C803 1.362 . S
C803 H793 0.930 . S
C803 C796 1.409 . S
C803 C802 1.362 . S
H804 C810 0.930 . S
H805 C813 0.930 . S
H806 C814 0.930 . S
H807 C815 0.930 . S
H808 C818 0.930 . S
H809 C819 0.930 . S
C810 H804 0.930 . S
C810 C811 1.355 . S
C810 C812 1.415 . S
C811 C810 1.355 . S
C811 C813 1.419 . S
C812 C810 1.415 . S
C812 C817 1.425 . S
C812 C819 1.409 . S
C813 H805 0.930 . S
C813 C811 1.419 . S
C813 C814 1.362 . S
C814 H806 0.930 . S
C814 C813 1.362 . S
C814 C817 1.409 . S
C815 H807 0.930 . S
C815 C816 1.355 . S
C815 C817 1.415 . S
C816 C815 1.355 . S
C816 C818 1.419 . S
C817 C812 1.425 . S
C817 C814 1.409 . S
C817 C815 1.415 . S
C818 H808 0.930 . S
C818 C816 1.419 . S
C818 C819 1.362 . S
C819 H809 0.930 . S
C819 C812 1.409 . S
C819 C818 1.362 . S
H820 C826 0.930 . S
H821 C829 0.930 . S
H822 C830 0.930 . S
H823 C831 0.930 . S
H824 C834 0.930 . S
H825 C835 0.930 . S
C826 H820 0.930 . S
C826 C827 1.355 . S
C826 C828 1.415 . S
C827 C826 1.355 . S
C827 C829 1.419 . S
C828 C826 1.415 . S
C828 C833 1.425 . S
C828 C835 1.409 . S
C829 H821 0.930 . S
C829 C827 1.419 . S
C829 C830 1.362 . S
C830 H822 0.930 . S
C830 C829 1.362 . S
C830 C833 1.409 . S
C831 H823 0.930 . S
C831 C832 1.355 . S
C831 C833 1.415 . S
C832 C831 1.355 . S
C832 C834 1.419 . S
C833 C828 1.425 . S
C833 C830 1.409 . S
C833 C831 1.415 . S
C834 H824 0.930 . S
C834 C832 1.419 . S
C834 C835 1.362 . S
C835 H825 0.930 . S
C835 C828 1.409 . S
C835 C834 1.362 . S
H836 C842 0.930 . S
H837 C845 0.930 . S
H838 C846 0.930 . S
H839 C847 0.930 . S
H840 C850 0.930 . S
H841 C851 0.930 . S
C842 H836 0.930 . S
C842 C843 1.355 . S
C842 C844 1.415 . S
C843 C842 1.355 . S
C843 C845 1.419 . S
C844 C842 1.415 . S
C844 C849 1.425 . S
C844 C851 1.409 . S
C845 H837 0.930 . S
C845 C843 1.419 . S
C845 C846 1.362 . S
C846 H838 0.930 . S
C846 C845 1.362 . S
C846 C849 1.409 . S
C847 H839 0.930 . S
C847 C848 1.355 . S
C847 C849 1.415 . S
C848 C847 1.355 . S
C848 C850 1.419 . S
C849 C844 1.425 . S
C849 C846 1.409 . S
C849 C847 1.415 . S
C850 H840 0.930 . S
C850 C848 1.419 . S
C850 C851 1.362 . S
C851 H841 0.930 . S
C851 C844 1.409 . S
C851 C850 1.362 . S
H852 C858 0.930 . S
H853 C861 0.930 . S
H854 C862 0.930 . S
H855 C863 0.930 . S
H856 C866 0.930 . S
H857 C867 0.930 . S
C858 H852 0.930 . S
C858 C859 1.355 . S
C858 C860 1.415 . S
C859 C858 1.355 . S
C859 C861 1.419 . S
C860 C858 1.415 . S
C860 C865 1.425 . S
C860 C867 1.409 . S
C861 H853 0.930 . S
C861 C859 1.419 . S
C861 C862 1.362 . S
C862 H854 0.930 . S
C862 C861 1.362 . S
C862 C865 1.409 . S
C863 H855 0.930 . S
C863 C864 1.355 . S
C863 C865 1.415 . S
C864 C863 1.355 . S
C864 C866 1.419 . S
C865 C860 1.425 . S
C865 C862 1.409 . S
C865 C863 1.415 . S
C866 H856 0.930 . S
C866 C864 1.419 . S
C866 C867 1.362 . S
C867 H857 0.930 . S
C867 C860 1.409 . S
C867 C866 1.362 . S
H868 C874 0.930 . S
H869 C877 0.930 . S
H870 C878 0.930 . S
H871 C879 0.930 . S
H872 C882 0.930 . S
H873 C883 0.930 . S
C874 H868 0.930 . S
C874 C875 1.355 . S
C874 C876 1.415 . S
C875 C874 1.355 . S
C875 C877 1.419 . S
C876 C874 1.415 . S
C876 C881 1.425 . S
C876 C883 1.409 . S
C877 H869 0.930 . S
C877 C875 1.419 . S
C877 C878 1.362 . S
C878 H870 0.930 . S
C878 C877 1.362 . S
C878 C881 1.409 . S
C879 H871 0.930 . S
C879 C880 1.355 . S
C879 C881 1.415 . S
C880 C879 1.355 . S
C880 C882 1.419 . S
C881 C876 1.425 . S
C881 C878 1.409 . S
C881 C879 1.415 . S
C882 H872 0.930 . S
C882 C880 1.419 . S
C882 C883 1.362 . S
C883 H873 0.930 . S
C883 C876 1.409 . S
C883 C882 1.362 . S
H884 C890 0.930 . S
H885 C893 0.930 . S
H886 C894 0.930 . S
H887 C895 0.930 . S
H888 C898 0.930 . S
H889 C899 0.930 . S
C890 H884 0.930 . S
C890 C891 1.355 . S
C890 C892 1.415 . S
C891 C890 1.355 . S
C891 C893 1.419 . S
C892 C890 1.415 . S
C892 C897 1.425 . S
C892 C899 1.409 . S
C893 H885 0.930 . S
C893 C891 1.419 . S
C893 C894 1.362 . S
C894 H886 0.930 . S
C894 C893 1.362 . S
C894 C897 1.409 . S
C895 H887 0.930 . S
C895 C896 1.355 . S
C895 C897 1.415 . S
C896 C895 1.355 . S
C896 C898 1.419 . S
C897 C892 1.425 . S
C897 C894 1.409 . S
C897 C895 1.415 . S
C898 H888 0.930 . S
C898 C896 1.419 . S
C898 C899 1.362 . S
C899 H889 0.930 . S
C899 C892 1.409 . S
C899 C898 1.362 . S
H900 C906 0.930 . S
H901 C909 0.930 . S
H902 C910 0.930 . S
H903 C911 0.930 . S
H904 C914 0.930 . S
H905 C915 0.930 . S
C906 H900 0.930 . S
C906 C907 1.355 . S
C906 C908 1.415 . S
C907 C906 1.355 . S
C907 C909 1.419 . S
C908 C906 1.415 . S
C908 C913 1.425 . S
C908 C915 1.409 . S
C909 H901 0.930 . S
C909 C907 1.419 . S
C909 C910 1.362 . S
C910 H902 0.930 . S
C910 C909 1.362 . S
C910 C913 1.409 . S
C911 H903 0.930 . S
C911 C912 1.355 . S
C911 C913 1.415 . S
C912 C911 1.355 . S
C912 C914 1.419 . S
C913 C908 1.425 . S
C913 C910 1.409 . S
C913 C911 1.415 . S
C914 H904 0.930 . S
C914 C912 1.419 . S
C914 C915 1.362 . S
C915 H905 0.930 . S
C915 C908 1.409 . S
C915 C914 1.362 . S
H916 C922 0.930 . S
H917 C925 0.930 . S
H918 C926 0.930 . S
H919 C927 0.930 . S
H920 C930 0.930 . S
H921 C931 0.930 . S
C922 H916 0.930 . S
C922 C923 1.355 . S
C922 C924 1.415 . S
C923 C922 1.355 . S
C923 C925 1.419 . S
C924 C922 1.415 . S
C924 C929 1.425 . S
C924 C931 1.409 . S
C925 H917 0.930 . S
C925 C923 1.419 . S
C925 C926 1.362 . S
C926 H918 0.930 . S
C926 C925 1.362 . S
C926 C929 1.409 . S
C927 H919 0.930 . S
C927 C928 1.355 . S
C927 C929 1.415 . S
C928 C927 1.355 . S
C928 C930 1.419 . S
C929 C924 1.425 . S
C929 C926 1.409 . S
C929 C927 1.415 . S
C930 H920 0.930 . S
C930 C928 1.419 . S
C930 C931 1.362 . S
C931 H921 0.930 . S
C931 C924 1.409 . S
C931 C930 1.362 . S
H932 C938 0.930 . S
H933 C941 0.930 . S
H934 C942 0.930 . S
H935 C943 0.930 . S
H936 C946 0.930 . S
H937 C947 0.930 . S
C938 H932 0.930 . S
C938 C939 1.355 . S
C938 C940 1.415 . S
C939 C938 1.355 . S
C939 C941 1.419 . S
C940 C938 1.415 . S
C940 C945 1.425 . S
C940 C947 1.409 . S
C941 H933 0.930 . S
C941 C939 1.419 . S
C941 C942 1.362 . S
C942 H934 0.930 . S
C942 C941 1.362 . S
C942 C945 1.409 . S
C943 H935 0.930 . S
C943 C944 1.355 . S
C943 C945 1.415 . S
C944 C943 1.355 . S
C944 C946 1.419 . S
C945 C940 1.425 . S
C945 C942 1.409 . S
C945 C943 1.415 . S
C946 H936 0.930 . S
C946 C944 1.419 . S
C946 C947 1.362 . S
C947 H937 0.930 . S
C947 C940 1.409 . S
C947 C946 1.362 . S
C576 C492 1.494 . S
C571 C31 1.503 . S
C592 C495 1.495 . S
C587 C61 1.492 . S
C608 C493 1.505 . S
C603 C121 1.474 . S
C624 C494 1.494 . S
C619 C211 1.454 . S
C640 C509 1.493 . S
C635 C1 1.502 . S
C656 C523 1.508 . S
C651 C91 1.500 . S
C667 C151 1.485 . S
C672 C549 1.507 . S
C688 C563 1.492 . S
C683 C181 1.482 . S
C704 C508 1.493 . S
C699 C80 1.501 . S
C715 C140 1.494 . S
C720 C522 1.491 . S
C736 C548 1.493 . S
C731 C200 1.450 . S
C752 C562 1.492 . S
C747 C20 1.463 . S
C763 C271 1.482 . S
C768 C507 1.505 . S
C784 C480 1.497 . S
C779 C331 1.467 . S
C795 C380 1.465 . S
C800 C506 1.498 . S
C811 C421 1.465 . S
C816 C481 1.498 . S
C832 C536 1.504 . S
C827 C241 1.478 . S
C848 C550 1.499 . S
C843 C320 1.466 . S
C864 C520 1.505 . S
C859 C361 1.498 . S
C875 C440 1.467 . S
C880 C534 1.505 . S
C896 C537 1.503 . S
C891 C301 1.464 . S
C912 C551 1.493 . S
C907 C391 1.501 . S
C928 C521 1.494 . S
C923 C451 1.461 . S
C939 C260 1.468 . S
C944 C535 1.504 . S
