# Generated by pormake.
# Topology nom, (4,4)-cn, num edge types: 1
# Building blocks:
#     Node 0, Type 0, BuildingBlock: GIZVER_clean_linker_0, # of connection points: 4
#     Node 1, Type 0, BuildingBlock: GIZVER_clean_linker_0, # of connection points: 4
#     Node 2, Type 0, BuildingBlock: GIZVER_clean_linker_0, # of connection points: 4
#     Node 3, Type 0, BuildingBlock: GIZVER_clean_linker_0, # of connection points: 4
#     Node 4, Type 0, BuildingBlock: GIZVER_clean_linker_0, # of connection points: 4
#     Node 5, Type 0, BuildingBlock: GIZVER_clean_linker_0, # of connection points: 4
#     Node 6, Type 1, BuildingBlock: KUFVIS_clean_sbu_0, # of connection points: 4
#     Node 7, Type 1, BuildingBlock: KUFVIS_clean_sbu_0, # of connection points: 4
#     Node 8, Type 1, BuildingBlock: KUFVIS_clean_sbu_0, # of connection points: 4
#     Node 9, Type 1, BuildingBlock: KUFVIS_clean_sbu_0, # of connection points: 4
#     Node 10, Type 1, BuildingBlock: KUFVIS_clean_sbu_0, # of connection points: 4
#     Node 11, Type 1, BuildingBlock: KUFVIS_clean_sbu_0, # of connection points: 4
#     Edge 12, Type (0, 1), BuildingBlock: MIFKUJ_clean_linker_0, # of connection points: 2
#     Edge 13, Type (0, 1), BuildingBlock: MIFKUJ_clean_linker_0, # of connection points: 2
#     Edge 14, Type (0, 1), BuildingBlock: MIFKUJ_clean_linker_0, # of connection points: 2
#     Edge 15, Type (0, 1), BuildingBlock: MIFKUJ_clean_linker_0, # of connection points: 2
#     Edge 16, Type (0, 1), BuildingBlock: MIFKUJ_clean_linker_0, # of connection points: 2
#     Edge 17, Type (0, 1), BuildingBlock: MIFKUJ_clean_linker_0, # of connection points: 2
#     Edge 18, Type (0, 1), BuildingBlock: MIFKUJ_clean_linker_0, # of connection points: 2
#     Edge 19, Type (0, 1), BuildingBlock: MIFKUJ_clean_linker_0, # of connection points: 2
#     Edge 20, Type (0, 1), BuildingBlock: MIFKUJ_clean_linker_0, # of connection points: 2
#     Edge 21, Type (0, 1), BuildingBlock: MIFKUJ_clean_linker_0, # of connection points: 2
#     Edge 22, Type (0, 1), BuildingBlock: MIFKUJ_clean_linker_0, # of connection points: 2
#     Edge 23, Type (0, 1), BuildingBlock: MIFKUJ_clean_linker_0, # of connection points: 2
#     Edge 24, Type (0, 1), BuildingBlock: MIFKUJ_clean_linker_0, # of connection points: 2
#     Edge 25, Type (0, 1), BuildingBlock: MIFKUJ_clean_linker_0, # of connection points: 2
#     Edge 26, Type (0, 1), BuildingBlock: MIFKUJ_clean_linker_0, # of connection points: 2
#     Edge 27, Type (0, 1), BuildingBlock: MIFKUJ_clean_linker_0, # of connection points: 2
#     Edge 28, Type (0, 1), BuildingBlock: MIFKUJ_clean_linker_0, # of connection points: 2
#     Edge 29, Type (0, 1), BuildingBlock: MIFKUJ_clean_linker_0, # of connection points: 2
#     Edge 30, Type (0, 1), BuildingBlock: MIFKUJ_clean_linker_0, # of connection points: 2
#     Edge 31, Type (0, 1), BuildingBlock: MIFKUJ_clean_linker_0, # of connection points: 2
#     Edge 32, Type (0, 1), BuildingBlock: MIFKUJ_clean_linker_0, # of connection points: 2
#     Edge 33, Type (0, 1), BuildingBlock: MIFKUJ_clean_linker_0, # of connection points: 2
#     Edge 34, Type (0, 1), BuildingBlock: MIFKUJ_clean_linker_0, # of connection points: 2
#     Edge 35, Type (0, 1), BuildingBlock: MIFKUJ_clean_linker_0, # of connection points: 2
# Relax obj value: 0.005
# Max RMSD: 0.071
# Mean RMSD: 0.051
data_MOF--net-nom--node1-KUFVIS_clean_sbu_0--node2-GIZVER_clean_linker_0--edge1-MIFKUJ_clean_linker_0
_symmetry_space_group_name_H-M    P1
_symmetry_Int_Tables_number       1
_symmetry_cell_setting            triclinic
loop_
_symmetry_equiv_pos_as_xyz
'x, y, z'
_cell_length_a     59.681826
_cell_length_b     60.307403
_cell_length_c     59.435544
_cell_angle_alpha  90.671622
_cell_angle_beta   90.655018
_cell_angle_gamma 120.02865
loop_
_atom_site_label
_atom_site_type_symbol
_atom_site_fract_x
_atom_site_fract_y
_atom_site_fract_z
_atom_type_partial_charge
H0 H 0.97741 0.54109 0.34332 0.0
H1 H 1.00331 0.55242 0.27485 0.0
H2 H 0.93066 0.48694 0.29125 0.0
H3 H 0.01064 0.58353 0.33042 0.0
H4 H 0.021 0.58809 0.30207 0.0
H5 H 0.03111 0.57029 0.35888 0.0
H6 H 0.10618 0.58191 0.34359 0.0
H7 H 0.05636 0.58083 0.29017 0.0
C8 C 0.97497 0.5342 0.32604 0.0
C9 C 0.95219 0.51156 0.31938 0.0
C10 C 0.99391 0.54877 0.31013 0.0
C11 C 0.98965 0.54059 0.28742 0.0
C12 C 0.96696 0.51813 0.28063 0.0
C13 C 0.94882 0.50345 0.29677 0.0
C14 C 0.01634 0.57498 0.31649 0.0
C15 C 0.04045 0.57435 0.32357 0.0
C16 C 0.04525 0.57246 0.34651 0.0
C17 C 0.06884 0.57484 0.35367 0.0
C18 C 0.08747 0.57863 0.33774 0.0
C19 C 0.08341 0.58101 0.31479 0.0
C20 C 0.05961 0.57853 0.30775 0.0
H21 H 0.44613 0.98681 0.51683 0.0
H22 H 0.4587 0.99777 0.44561 0.0
H23 H 0.45367 0.93145 0.47669 0.0
H24 H 0.43556 0.01576 0.49494 0.0
H25 H 0.44456 0.02261 0.4664 0.0
H26 H 0.46739 0.03754 0.52602 0.0
H27 H 0.53099 0.11123 0.50994 0.0
H28 H 0.48755 0.05732 0.45664 0.0
C29 C 0.4505 0.98111 0.50086 0.0
C30 C 0.45027 0.95774 0.499 0.0
C31 C 0.45479 0.99636 0.48175 0.0
C32 C 0.45761 0.98724 0.4606 0.0
C33 C 0.45638 0.96339 0.45852 0.0
C34 C 0.45443 0.94977 0.47805 0.0
C35 C 0.45127 0.01955 0.48302 0.0
C36 C 0.47553 0.04395 0.4905 0.0
C37 C 0.48024 0.05059 0.51361 0.0
C38 C 0.50009 0.075 0.52051 0.0
C39 C 0.51612 0.09218 0.50443 0.0
C40 C 0.51201 0.0861 0.4814 0.0
C41 C 0.49158 0.06186 0.47444 0.0
H42 H 0.44292 0.49008 0.62638 0.0
H43 H 0.47447 0.48458 0.68993 0.0
H44 H 0.47503 0.55377 0.67357 0.0
H45 H 0.43936 0.45049 0.63656 0.0
H46 H 0.44432 0.44621 0.66539 0.0
H47 H 0.47763 0.46814 0.61012 0.0
H48 H 0.53107 0.44221 0.62509 0.0
H49 H 0.47973 0.44018 0.67625 0.0
C50 C 0.4533 0.49931 0.64187 0.0
C51 C 0.45723 0.52367 0.64824 0.0
C52 C 0.4609 0.4857 0.65636 0.0
C53 C 0.47111 0.49602 0.67788 0.0
C54 C 0.47523 0.52023 0.68442 0.0
C55 C 0.47061 0.53467 0.66868 0.0
C56 C 0.45384 0.45839 0.65066 0.0
C57 C 0.47707 0.45596 0.64436 0.0
C58 C 0.48635 0.46127 0.62223 0.0
C59 C 0.50585 0.45632 0.61543 0.0
C60 C 0.5163 0.44637 0.63073 0.0
C61 C 0.50676 0.43995 0.65254 0.0
C62 C 0.48758 0.44548 0.65955 0.0
H63 H 0.97681 0.4666 0.78411 0.0
H64 H 1.00068 0.48302 0.85391 0.0
H65 H 0.92595 0.46999 0.83262 0.0
H66 H 0.01194 0.46126 0.79833 0.0
H67 H 0.01945 0.46437 0.82761 0.0
H68 H 0.03327 0.4985 0.77356 0.0
H69 H 0.10725 0.55865 0.79786 0.0
H70 H 0.05367 0.50444 0.84407 0.0
C71 C 0.97348 0.47083 0.80111 0.0
C72 C 0.94967 0.46899 0.80624 0.0
C73 C 0.99229 0.47646 0.81819 0.0
C74 C 0.98688 0.48003 0.84054 0.0
C75 C 0.96301 0.47801 0.84586 0.0
C76 C 0.94498 0.47317 0.82848 0.0
C77 C 0.01581 0.47399 0.81333 0.0
C78 C 0.04002 0.49945 0.80947 0.0
C79 C 0.0465 0.5088 0.78747 0.0
C80 C 0.07071 0.53039 0.7832 0.0
C81 C 0.08799 0.543 0.80125 0.0
C82 C 0.08214 0.53384 0.8232 0.0
C83 C 0.05796 0.51217 0.82729 0.0
H84 H 0.57221 0.05371 0.01626 0.0
H85 H 0.5478 0.02314 0.94887 0.0
H86 H 0.56025 0.09775 0.96622 0.0
H87 H 0.57628 0.01776 0.00343 0.0
H88 H 0.57068 0.00815 0.97455 0.0
H89 H 0.53668 1.00299 0.02894 0.0
H90 H 0.47977 0.92426 0.01545 0.0
H91 H 0.53483 0.96753 0.96501 0.0
C92 C 0.56563 0.05512 -0.00045 0.0
C93 C 0.5661 0.07783 0.99339 0.0
C94 C 0.55828 0.03488 0.98373 0.0
C95 C 0.55169 0.03776 0.96155 0.0
C96 C 0.55198 0.0603 0.95534 0.0
C97 C 0.55844 0.07976 0.97148 0.0
C98 C 0.56205 0.01249 0.98926 0.0
C99 C 0.53723 0.98864 0.99555 0.0
C100 C 0.52732 0.98678 0.0173 0.0
C101 C 0.50649 0.96355 0.02453 0.0
C102 C 0.49537 0.94237 0.00968 0.0
C103 C 0.50581 0.94327 0.98848 0.0
C104 C 0.52624 0.96675 0.98116 0.0
H105 H 0.58841 0.5438 0.13152 0.0
H106 H 0.55502 0.54295 0.19565 0.0
H107 H 0.57051 0.48293 0.17741 0.0
H108 H 0.58852 0.58134 0.1449 0.0
H109 H 0.58254 0.58363 0.17379 0.0
H110 H 0.55501 0.57103 0.11607 0.0
H111 H 0.49273 0.583 0.13514 0.0
H112 H 0.5403 0.57641 0.18633 0.0
C113 C 0.5796 0.53405 0.14693 0.0
C114 C 0.58031 0.5118 0.15254 0.0
C115 C 0.56989 0.54516 0.16223 0.0
C116 C 0.56079 0.53362 0.18317 0.0
C117 C 0.56084 0.51104 0.18866 0.0
C118 C 0.56967 0.49988 0.1729 0.0
C119 C 0.57401 0.5717 0.15824 0.0
C120 C 0.54938 0.57178 0.15197 0.0
C121 C 0.54302 0.57216 0.12909 0.0
C122 C 0.52281 0.57659 0.12312 0.0
C123 C 0.50788 0.57889 0.13993 0.0
C124 C 0.51391 0.57886 0.16272 0.0
C125 C 0.53474 0.57528 0.16875 0.0
Mn126 Mn 0.64132 0.38683 0.407 0.0
Mn127 Mn 0.67695 0.45031 0.41947 0.0
C128 C 0.62709 0.4053 0.43368 0.0
C129 C 0.63057 0.34408 0.41185 0.0
C130 C 0.64113 0.42931 0.37874 0.0
O131 O 0.67645 0.39637 0.39342 0.0
O132 O 0.69731 0.43822 0.40271 0.0
C133 C 0.71376 0.4468 0.45101 0.0
N134 N 0.69598 0.45417 0.4467 0.0
C135 C 0.70367 0.47481 0.48306 0.0
C136 C 0.72205 0.46745 0.48792 0.0
C137 C 0.72696 0.4532 0.47188 0.0
C138 C 0.69048 0.46713 0.46227 0.0
H139 H 0.71797 0.43627 0.43858 0.0
C140 C 0.69661 0.41862 0.39356 0.0
O141 O 0.62489 0.35162 0.3934 0.0
O142 O 0.64331 0.36153 0.42728 0.0
N143 N 0.66073 0.46578 0.43579 0.0
C144 C 0.64475 0.47397 0.42752 0.0
C145 C 0.63822 0.48888 0.44129 0.0
C146 C 0.64923 0.49635 0.46299 0.0
C147 C 0.66688 0.48907 0.47061 0.0
C148 C 0.67205 0.47355 0.45641 0.0
H149 H 0.63689 0.46903 0.41058 0.0
O150 O 0.61116 0.38349 0.42406 0.0
O151 O 0.65128 0.4154 0.42822 0.0
O152 O 0.63393 0.40577 0.38197 0.0
O153 O 0.65727 0.44757 0.39167 0.0
C154 C 0.68052 0.49768 0.49126 0.0
C155 C 0.69856 0.49021 0.49768 0.0
H156 H 0.73267 0.47284 0.50382 0.0
H157 H 0.74116 0.44749 0.47547 0.0
H158 H 0.62508 0.49495 0.43505 0.0
H159 H 0.64453 0.50825 0.47343 0.0
H160 H 0.67764 0.51054 0.50212 0.0
H161 H 0.7089 0.49695 0.51365 0.0
Mn162 Mn 0.2746 0.65638 0.56483 0.0
Mn163 Mn 0.24116 0.59502 0.54545 0.0
C164 C 0.23872 0.64324 0.54126 0.0
C165 C 0.30833 0.6988 0.5616 0.0
C166 C 0.23559 0.61137 0.59264 0.0
O167 O 0.29934 0.64283 0.57148 0.0
O168 O 0.27659 0.60359 0.5552 0.0
C169 C 0.27191 0.60112 0.50486 0.0
N170 N 0.24866 0.5937 0.51445 0.0
C171 C 0.22639 0.57973 0.47859 0.0
C172 C 0.25008 0.587 0.46835 0.0
C173 C 0.27295 0.59784 0.48154 0.0
C174 C 0.22659 0.58357 0.50189 0.0
H175 H 0.28953 0.60954 0.51493 0.0
C176 C 0.29684 0.6213 0.56532 0.0
O177 O 0.29799 0.68964 0.58086 0.0
O178 O 0.29987 0.68301 0.54446 0.0
N179 N 0.20649 0.58362 0.53519 0.0
C180 C 0.18531 0.57809 0.5476 0.0
C181 C 0.16082 0.56686 0.53699 0.0
C182 C 0.15831 0.56118 0.51381 0.0
C183 C 0.18035 0.56702 0.50138 0.0
C184 C 0.2042 0.57785 0.51293 0.0
H185 H 0.18702 0.58206 0.56548 0.0
O186 O 0.24723 0.66376 0.55376 0.0
O187 O 0.25181 0.63135 0.54244 0.0
O188 O 0.25118 0.63532 0.59044 0.0
O189 O 0.23149 0.59467 0.57726 0.0
C190 C 0.1796 0.56256 0.47799 0.0
C191 C 0.20264 0.56908 0.46658 0.0
H192 H 0.25096 0.5845 0.45037 0.0
H193 H 0.29132 0.60364 0.47374 0.0
H194 H 0.14389 0.56241 0.54669 0.0
H195 H 0.13935 0.55222 0.50576 0.0
H196 H 0.16146 0.55439 0.46858 0.0
H197 H 0.20187 0.56587 0.44855 0.0
Mn198 Mn 0.63319 0.26707 0.74181 0.0
Mn199 Mn 0.66517 0.23567 0.72876 0.0
C200 C 0.6139 0.23132 0.71775 0.0
C201 C 0.62303 0.29933 0.73547 0.0
C202 C 0.63788 0.22928 0.77289 0.0
O203 O 0.67063 0.29297 0.75132 0.0
O204 O 0.68965 0.27071 0.74016 0.0
C205 C 0.69555 0.26723 0.69075 0.0
N206 N 0.67793 0.24402 0.69892 0.0
C207 C 0.67668 0.22271 0.6641 0.0
C208 C 0.69487 0.24638 0.65532 0.0
C209 C 0.70416 0.26876 0.66864 0.0
C210 C 0.66826 0.22247 0.68603 0.0
H211 H 0.70318 0.28442 0.7011 0.0
C212 C 0.69067 0.29082 0.74857 0.0
O213 O 0.62042 0.28918 0.75508 0.0
O214 O 0.63248 0.29144 0.71977 0.0
N215 N 0.6444 0.20136 0.71737 0.0
C216 C 0.62949 0.17974 0.72921 0.0
C217 C 0.61875 0.15567 0.71836 0.0
C218 C 0.62433 0.15397 0.69574 0.0
C219 C 0.64092 0.17635 0.68428 0.0
C220 C 0.65061 0.19986 0.69582 0.0
H221 H 0.62562 0.18081 0.74677 0.0
O222 O 0.60008 0.23914 0.72819 0.0
O223 O 0.63879 0.24501 0.72126 0.0
O224 O 0.62923 0.24436 0.76865 0.0
O225 O 0.65216 0.22539 0.75947 0.0
C226 C 0.64909 0.17614 0.66219 0.0
C227 C 0.66707 0.19927 0.65216 0.0
H228 H 0.70198 0.24757 0.63844 0.0
H229 H 0.71826 0.28709 0.66202 0.0
H230 H 0.60646 0.13845 0.7275 0.0
H231 H 0.61631 0.13535 0.68751 0.0
H232 H 0.64201 0.15825 0.65288 0.0
H233 H 0.67351 0.19878 0.6353 0.0
Mn234 Mn 0.39348 0.64227 0.9044 0.0
Mn235 Mn 0.36092 0.57922 0.9167 0.0
C236 C 0.41168 0.62603 0.92938 0.0
C237 C 0.40279 0.68449 0.91036 0.0
C238 C 0.39114 0.5997 0.87398 0.0
O239 O 0.35667 0.63087 0.89315 0.0
O240 O 0.3371 0.58986 0.90379 0.0
C241 C 0.32851 0.58139 0.953 0.0
N242 N 0.34633 0.57522 0.94582 0.0
C243 C 0.34508 0.55512 0.98085 0.0
C244 C 0.32671 0.56125 0.98863 0.0
C245 C 0.31855 0.57465 0.97471 0.0
C246 C 0.35496 0.56311 0.95935 0.0
H247 H 0.32175 0.59118 0.94217 0.0
C248 C 0.33652 0.60888 0.89511 0.0
O249 O 0.40669 0.67673 0.89112 0.0
O250 O 0.39271 0.66752 0.92594 0.0
N251 N 0.38074 0.56531 0.92937 0.0
C252 C 0.39584 0.55779 0.91835 0.0
C253 C 0.40547 0.54399 0.92982 0.0
C254 C 0.39844 0.53692 0.95217 0.0
C255 C 0.3815 0.54335 0.96269 0.0
C256 C 0.37305 0.5577 0.9506 0.0
H257 H 0.40076 0.56249 0.90096 0.0
O258 O 0.42591 0.64758 0.91949 0.0
O259 O 0.38692 0.61483 0.925 0.0
O260 O 0.39909 0.62331 0.87819 0.0
O261 O 0.37604 0.5817 0.88684 0.0
C262 C 0.3717 0.53499 0.98429 0.0
C263 C 0.35346 0.54081 0.99333 0.0
H264 H 0.31859 0.55561 0.00519 0.0
H265 H 0.30432 0.57938 0.98056 0.0
H266 H 0.41798 0.53852 0.92135 0.0
H267 H 0.40556 0.52591 0.96086 0.0
H268 H 0.37779 0.52375 0.99399 0.0
H269 H 0.34584 0.53397 0.00985 0.0
Mn270 Mn 0.76184 0.39309 0.06768 0.0
Mn271 Mn 0.79629 0.36507 0.08368 0.0
C272 C 0.79751 0.4147 0.09166 0.0
C273 C 0.72802 0.40164 0.07276 0.0
C274 C 0.80216 0.38976 0.03836 0.0
O275 O 0.73721 0.35531 0.05948 0.0
O276 O 0.76163 0.33894 0.07176 0.0
C277 C 0.76391 0.33629 0.122 0.0
N278 N 0.78746 0.35338 0.11377 0.0
C279 C 0.808 0.35894 0.15011 0.0
C280 C 0.78399 0.34128 0.15895 0.0
C281 C 0.76184 0.32998 0.14484 0.0
C282 C 0.80884 0.36455 0.12724 0.0
H283 H 0.74684 0.32757 0.11122 0.0
C284 C 0.7408 0.33641 0.06289 0.0
O285 O 0.73829 0.40363 0.05322 0.0
O286 O 0.73656 0.39352 0.08903 0.0
N287 N 0.83029 0.38762 0.09574 0.0
C288 C 0.85193 0.40452 0.08465 0.0
C289 C 0.87582 0.41723 0.09629 0.0
C290 C 0.87729 0.41225 0.11911 0.0
C291 C 0.85482 0.39473 0.13015 0.0
C292 C 0.8316 0.38237 0.1176 0.0
H293 H 0.851 0.40821 0.06703 0.0
O294 O 0.78897 0.42716 0.08013 0.0
O295 O 0.78471 0.3899 0.08919 0.0
O296 O 0.78533 0.39663 0.04133 0.0
O297 O 0.80721 0.37733 0.05288 0.0
C298 C 0.85451 0.38911 0.15312 0.0
C299 C 0.83108 0.37135 0.16313 0.0
H300 H 0.78231 0.33635 0.17656 0.0
H301 H 0.74322 0.31641 0.15156 0.0
H302 H 0.8931 0.43073 0.08766 0.0
H303 H 0.8958 0.42189 0.12796 0.0
H304 H 0.87214 0.39854 0.16329 0.0
H305 H 0.83103 0.36739 0.18087 0.0
Mn306 Mn 0.38593 0.76333 0.24121 0.0
Mn307 Mn 0.44849 0.79491 0.25941 0.0
C308 C 0.39969 0.79606 0.26793 0.0
C309 C 0.34329 0.72941 0.24348 0.0
C310 C 0.43057 0.8071 0.21579 0.0
O311 O 0.39909 0.73966 0.23023 0.0
O312 O 0.44007 0.76265 0.24325 0.0
C313 C 0.44372 0.75662 0.29263 0.0
N314 N 0.45036 0.78115 0.28772 0.0
C315 C 0.46512 0.79534 0.32581 0.0
C316 C 0.45851 0.77024 0.33125 0.0
C317 C 0.44768 0.75079 0.3146 0.0
C318 C 0.46046 0.79994 0.30368 0.0
H319 H 0.43552 0.74161 0.27987 0.0
C320 C 0.42184 0.74302 0.23299 0.0
O321 O 0.3519 0.74225 0.22515 0.0
O322 O 0.35966 0.73567 0.2602 0.0
N323 N 0.46024 0.82652 0.27568 0.0
C324 C 0.46646 0.84989 0.2675 0.0
C325 C 0.47777 0.87149 0.28198 0.0
C326 C 0.4832 0.86897 0.30455 0.0
C327 C 0.47745 0.84489 0.31241 0.0
C328 C 0.46608 0.82404 0.29723 0.0
H329 H 0.46271 0.85204 0.25008 0.0
O330 O 0.37864 0.78875 0.25618 0.0
O331 O 0.41178 0.7834 0.26443 0.0
O332 O 0.40677 0.78972 0.21712 0.0
O333 O 0.44781 0.81054 0.23058 0.0
C334 C 0.48272 0.84078 0.33467 0.0
C335 C 0.47632 0.81599 0.34142 0.0
H336 H 0.46169 0.76571 0.34815 0.0
H337 H 0.44254 0.73137 0.31865 0.0
H338 H 0.48238 0.89006 0.27573 0.0
H339 H 0.49191 0.88567 0.31567 0.0
H340 H 0.49169 0.85656 0.34675 0.0
H341 H 0.48029 0.81306 0.35862 0.0
H342 H 0.10021 0.61848 0.28301 0.0
H343 H 0.14251 0.6393 0.26499 0.0
H344 H 0.16022 0.58501 0.29498 0.0
H345 H 0.11778 0.56361 0.31239 0.0
H346 H 0.19524 0.63846 0.30642 0.0
H347 H 0.15451 0.58283 0.24151 0.0
H348 H 0.12208 0.56384 0.21062 0.0
H349 H 0.14856 0.63852 0.18375 0.0
H350 H 0.18093 0.65801 0.21468 0.0
H351 H 0.32262 0.68833 0.27111 0.0
H352 H 0.27683 0.65872 0.27788 0.0
H353 H 0.25575 0.69841 0.22959 0.0
H354 H 0.30155 0.7269 0.2217 0.0
H355 H 0.22129 0.65186 0.22657 0.0
H356 H 0.25857 0.70892 0.28981 0.0
H357 H 0.28937 0.73157 0.32124 0.0
H358 H 0.26759 0.65975 0.35218 0.0
H359 H 0.2369 0.63664 0.32077 0.0
C360 C 0.11267 0.61034 0.28505 0.0
C361 C 0.1057 0.58954 0.29938 0.0
C362 C 0.13693 0.62238 0.27485 0.0
C363 C 0.1546 0.61385 0.27886 0.0
C364 C 0.14695 0.592 0.2918 0.0
C365 C 0.12268 0.57982 0.30175 0.0
C366 C 0.18199 0.62932 0.27196 0.0
C367 C 0.20103 0.64108 0.28896 0.0
C368 C 0.18933 0.63363 0.2492 0.0
C369 C 0.16998 0.6219 0.23054 0.0
C370 C 0.15327 0.59523 0.22913 0.0
C371 C 0.13493 0.58437 0.21159 0.0
C372 C 0.13321 0.59997 0.19527 0.0
C373 C 0.14989 0.62646 0.19642 0.0
C374 C 0.16826 0.63742 0.21394 0.0
C375 C 0.30817 0.69048 0.26173 0.0
C376 C 0.31564 0.71 0.24599 0.0
C377 C 0.28196 0.67368 0.26574 0.0
C378 C 0.26263 0.67671 0.2548 0.0
C379 C 0.27012 0.69563 0.23839 0.0
C380 C 0.29635 0.71196 0.23389 0.0
C381 C 0.23485 0.66089 0.2611 0.0
C382 C 0.21566 0.64921 0.24405 0.0
C383 C 0.22717 0.65721 0.2839 0.0
C384 C 0.24564 0.67104 0.30282 0.0
C385 C 0.26049 0.69795 0.30324 0.0
C386 C 0.27791 0.71087 0.32106 0.0
C387 C 0.28049 0.69711 0.33866 0.0
C388 C 0.2656 0.67039 0.33851 0.0
C389 C 0.24818 0.65737 0.32071 0.0
H390 H 0.29398 0.70715 0.35245 0.0
H391 H 0.119 0.59152 0.1817 0.0
H392 H 0.56433 0.11758 0.48083 0.0
H393 H 0.58731 0.15992 0.46406 0.0
H394 H 0.51697 0.14534 0.42998 0.0
H395 H 0.49366 0.10301 0.44713 0.0
H396 H 0.56664 0.17635 0.40514 0.0
H397 H 0.5263 0.17172 0.47693 0.0
H398 H 0.51814 0.15952 0.51671 0.0
H399 H 0.59921 0.20645 0.53252 0.0
H400 H 0.60794 0.21851 0.49267 0.0
H401 H 0.59154 0.3028 0.38952 0.0
H402 H 0.57396 0.25755 0.39742 0.0
H403 H 0.63164 0.2776 0.45017 0.0
H404 H 0.64831 0.32311 0.4431 0.0
H405 H 0.5898 0.2428 0.46499 0.0
H406 H 0.63194 0.24931 0.39577 0.0
H407 H 0.64334 0.26036 0.35612 0.0
H408 H 0.56417 0.21019 0.33561 0.0
H409 H 0.55222 0.1991 0.37518 0.0
C410 C 0.55394 0.12304 0.46915 0.0
C411 C 0.52712 0.10707 0.46547 0.0
C412 C 0.56709 0.14727 0.45964 0.0
C413 C 0.55374 0.15593 0.44611 0.0
C414 C 0.5276 0.13902 0.44043 0.0
C415 C 0.51433 0.11475 0.45011 0.0
C416 C 0.56609 0.18351 0.44057 0.0
C417 C 0.5715 0.19094 0.41812 0.0
C418 C 0.57315 0.20253 0.45767 0.0
C419 C 0.56781 0.19579 0.48174 0.0
C420 C 0.54243 0.17927 0.48883 0.0
C421 C 0.53769 0.17237 0.5114 0.0
C422 C 0.55815 0.18211 0.52712 0.0
C423 C 0.58339 0.19886 0.52031 0.0
C424 C 0.58824 0.20573 0.49773 0.0
C425 C 0.60064 0.29757 0.40267 0.0
C426 C 0.6214 0.31656 0.41562 0.0
C427 C 0.59066 0.27158 0.4071 0.0
C428 C 0.60168 0.26385 0.42415 0.0
C429 C 0.6227 0.28288 0.43691 0.0
C430 C 0.63232 0.30894 0.4328 0.0
C431 C 0.59054 0.23607 0.42933 0.0
C432 C 0.58521 0.22846 0.45184 0.0
C433 C 0.58405 0.21696 0.4123 0.0
C434 C 0.59115 0.22355 0.38847 0.0
C435 C 0.61693 0.24078 0.38282 0.0
C436 C 0.62349 0.24702 0.36035 0.0
C437 C 0.60448 0.23603 0.34336 0.0
C438 C 0.57887 0.21871 0.34879 0.0
C439 C 0.5722 0.21242 0.37123 0.0
H440 H 0.6096 0.24089 0.32598 0.0
H441 H 0.55445 0.17674 0.54458 0.0
H442 H 0.44146 0.5561 0.66571 0.0
H443 H 0.41912 0.57476 0.64767 0.0
H444 H 0.41587 0.53588 0.58543 0.0
H445 H 0.44171 0.51912 0.60287 0.0
H446 H 0.42085 0.58125 0.57668 0.0
H447 H 0.36305 0.5122 0.62247 0.0
H448 H 0.34897 0.48655 0.65683 0.0
H449 H 0.35334 0.55042 0.69349 0.0
H450 H 0.36777 0.57657 0.65943 0.0
H451 H 0.30854 0.58936 0.54201 0.0
H452 H 0.33924 0.57552 0.55268 0.0
H453 H 0.36244 0.62516 0.61146 0.0
H454 H 0.33198 0.63958 0.60062 0.0
H455 H 0.34582 0.57201 0.61952 0.0
H456 H 0.40398 0.64067 0.57232 0.0
H457 H 0.4173 0.66498 0.53722 0.0
H458 H 0.40962 0.59898 0.50181 0.0
H459 H 0.39588 0.57414 0.53666 0.0
C460 C 0.43729 0.55204 0.64798 0.0
C461 C 0.44413 0.53601 0.63598 0.0
C462 C 0.42368 0.56242 0.63774 0.0
C463 C 0.41491 0.55611 0.61541 0.0
C464 C 0.42209 0.54079 0.60287 0.0
C465 C 0.43667 0.53094 0.61301 0.0
C466 C 0.39761 0.56511 0.60595 0.0
C467 C 0.40417 0.5788 0.58584 0.0
C468 C 0.37592 0.56226 0.61798 0.0
C469 C 0.36657 0.54637 0.63839 0.0
C470 C 0.36106 0.52079 0.63787 0.0
C471 C 0.35303 0.50617 0.6573 0.0
C472 C 0.35027 0.51685 0.67733 0.0
C473 C 0.35543 0.54215 0.67795 0.0
C474 C 0.3635 0.55687 0.65858 0.0
C475 C 0.32047 0.59769 0.55703 0.0
C476 C 0.31777 0.61555 0.57052 0.0
C477 C 0.33807 0.58979 0.56305 0.0
C478 C 0.35312 0.59931 0.58284 0.0
C479 C 0.35102 0.61764 0.59607 0.0
C480 C 0.33371 0.62594 0.58983 0.0
C481 C 0.36941 0.58853 0.59059 0.0
C482 C 0.36245 0.57433 0.61033 0.0
C483 C 0.39033 0.59055 0.578 0.0
C484 C 0.39863 0.60546 0.55705 0.0
C485 C 0.40488 0.63126 0.557 0.0
C486 C 0.41257 0.64516 0.53716 0.0
C487 C 0.41423 0.63351 0.51728 0.0
C488 C 0.40829 0.60796 0.51722 0.0
C489 C 0.40057 0.59397 0.53701 0.0
H490 H 0.42019 0.64431 0.50194 0.0
H491 H 0.34412 0.50552 0.69237 0.0
H492 H 0.91763 0.48766 0.79584 0.0
H493 H 0.87356 0.46262 0.78029 0.0
H494 H 0.88646 0.39964 0.76608 0.0
H495 H 0.93058 0.42468 0.78151 0.0
H496 H 0.85258 0.40176 0.73508 0.0
H497 H 0.86432 0.40346 0.81555 0.0
H498 H 0.88022 0.42532 0.85246 0.0
H499 H 0.83209 0.45915 0.84577 0.0
H500 H 0.81631 0.43791 0.80856 0.0
H501 H 0.73579 0.28993 0.75075 0.0
H502 H 0.77944 0.32557 0.75651 0.0
H503 H 0.74975 0.37715 0.7652 0.0
H504 H 0.70532 0.34114 0.75942 0.0
H505 H 0.79066 0.38565 0.7964 0.0
H506 H 0.77433 0.37679 0.71671 0.0
H507 H 0.75885 0.35222 0.68095 0.0
H508 H 0.81585 0.32899 0.68738 0.0
H509 H 0.83137 0.35303 0.72341 0.0
C510 C 0.91138 0.46886 0.78855 0.0
C511 C 0.92743 0.45802 0.79004 0.0
C512 C 0.88616 0.45452 0.7798 0.0
C513 C 0.87653 0.42905 0.77256 0.0
C514 C 0.89346 0.41922 0.77169 0.0
C515 C 0.91875 0.43361 0.78039 0.0
C516 C 0.84825 0.41159 0.76905 0.0
C517 C 0.83904 0.39827 0.74845 0.0
C518 C 0.83052 0.40718 0.78648 0.0
C519 C 0.83935 0.41933 0.80916 0.0
C520 C 0.85723 0.41567 0.82189 0.0
C521 C 0.86623 0.42795 0.84286 0.0
C522 C 0.85722 0.44366 0.85143 0.0
C523 C 0.83909 0.44702 0.83909 0.0
C524 C 0.83012 0.43487 0.81805 0.0
C525 C 0.7383 0.30876 0.75397 0.0
C526 C 0.7169 0.31263 0.75435 0.0
C527 C 0.7634 0.32917 0.75724 0.0
C528 C 0.7679 0.35408 0.76085 0.0
C529 C 0.74667 0.35805 0.76227 0.0
C530 C 0.72131 0.33747 0.75898 0.0
C531 C 0.795 0.37571 0.76246 0.0
C532 C 0.80406 0.38965 0.78281 0.0
C533 C 0.81264 0.38044 0.7449 0.0
C534 C 0.80393 0.36664 0.72284 0.0
C535 C 0.7835 0.36637 0.71055 0.0
C536 C 0.77471 0.35251 0.69024 0.0
C537 C 0.78634 0.33903 0.68191 0.0
C538 C 0.80686 0.33945 0.69385 0.0
C539 C 0.81569 0.35322 0.71421 0.0
H540 H 0.77946 0.32826 0.66621 0.0
H541 H 0.86424 0.45318 0.86765 0.0
H542 H 0.49512 0.9321 0.94291 0.0
H543 H 0.47946 0.89026 0.92385 0.0
H544 H 0.48188 0.85741 0.98734 0.0
H545 H 0.49858 0.89881 0.0059 0.0
H546 H 0.49901 0.83962 0.95739 0.0
H547 H 0.42434 0.85117 0.9619 0.0
H548 H 0.39953 0.87303 0.95429 0.0
H549 H 0.40524 0.864 0.88318 0.0
H550 H 0.43036 0.84234 0.89039 0.0
H551 H 0.40776 0.70814 0.95103 0.0
H552 H 0.42634 0.75402 0.9588 0.0
H553 H 0.4358 0.76877 0.88776 0.0
H554 H 0.41757 0.72281 0.87981 0.0
H555 H 0.41566 0.79745 0.91447 0.0
H556 H 0.48626 0.78025 0.91221 0.0
H557 H 0.50858 0.75651 0.9221 0.0
H558 H 0.50816 0.77497 0.99203 0.0
H559 H 0.48546 0.79849 0.98259 0.0
C560 C 0.49252 0.91595 0.95265 0.0
C561 C 0.49755 0.91869 0.97601 0.0
C562 C 0.48337 0.892 0.94182 0.0
C563 C 0.47903 0.87046 0.9542 0.0
C564 C 0.4849 0.87356 0.97734 0.0
C565 C 0.49419 0.89729 0.98802 0.0
C566 C 0.46812 0.84441 0.94368 0.0
C567 C 0.48075 0.83048 0.94805 0.0
C568 C 0.44457 0.83246 0.931 0.0
C569 C 0.42949 0.84545 0.92667 0.0
C570 C 0.42047 0.85403 0.94464 0.0
C571 C 0.40633 0.86635 0.94041 0.0
C572 C 0.40089 0.86998 0.91827 0.0
C573 C 0.40952 0.86123 0.90032 0.0
C574 C 0.4237 0.84893 0.90447 0.0
C575 C 0.41346 0.72107 0.93702 0.0
C576 C 0.41131 0.71185 0.91481 0.0
C577 C 0.42412 0.74728 0.9415 0.0
C578 C 0.43257 0.76477 0.92386 0.0
C579 C 0.42937 0.75556 0.90159 0.0
C580 C 0.41904 0.72933 0.8971 0.0
C581 C 0.44616 0.7927 0.92899 0.0
C582 C 0.43411 0.80687 0.92351 0.0
C583 C 0.47005 0.80483 0.94099 0.0
C584 C 0.48398 0.79097 0.9467 0.0
C585 C 0.49075 0.77908 0.92971 0.0
C586 C 0.5035 0.76569 0.93523 0.0
C587 C 0.50974 0.76419 0.95768 0.0
C588 C 0.5033 0.77613 0.97465 0.0
C589 C 0.49052 0.78952 0.96922 0.0
H590 H 0.5196 0.75381 0.96192 0.0
H591 H 0.38994 0.87951 0.91502 0.0
H592 H 0.61559 0.5002 0.16919 0.0
H593 H 0.63926 0.48328 0.1494 0.0
H594 H 0.60522 0.4875 0.08633 0.0
H595 H 0.58028 0.5038 0.10651 0.0
H596 H 0.60535 0.44244 0.08928 0.0
H597 H 0.66854 0.52994 0.09816 0.0
H598 H 0.69402 0.57191 0.11747 0.0
H599 H 0.72501 0.53961 0.16386 0.0
H600 H 0.69942 0.49734 0.14505 0.0
H601 H 0.70288 0.41552 0.04185 0.0
H602 H 0.67623 0.43521 0.04958 0.0
H603 H 0.68571 0.42912 0.12083 0.0
H604 H 0.71183 0.40914 0.11333 0.0
H605 H 0.69925 0.47961 0.10559 0.0
H606 H 0.63028 0.39071 0.09833 0.0
H607 H 0.60492 0.34942 0.07791 0.0
H608 H 0.58613 0.38652 0.02583 0.0
H609 H 0.61171 0.42813 0.04582 0.0
C610 C 0.61287 0.49738 0.15111 0.0
C611 C 0.59571 0.503 0.13947 0.0
C612 C 0.62673 0.48797 0.13975 0.0
C613 C 0.62435 0.48438 0.11631 0.0
C614 C 0.60744 0.49019 0.10443 0.0
C615 C 0.59334 0.49963 0.11592 0.0
C616 C 0.63934 0.47401 0.10484 0.0
C617 C 0.62601 0.45092 0.09237 0.0
C618 C 0.66631 0.48495 0.10889 0.0
C619 C 0.68195 0.51041 0.12022 0.0
C620 C 0.68067 0.53174 0.11256 0.0
C621 C 0.69515 0.5556 0.12341 0.0
C622 C 0.7111 0.55842 0.14189 0.0
C623 C 0.71265 0.5374 0.14953 0.0
C624 C 0.6982 0.51349 0.13875 0.0
C625 C 0.69893 0.41802 0.05915 0.0
C626 C 0.7095 0.41078 0.07698 0.0
C627 C 0.68373 0.42927 0.06352 0.0
C628 C 0.67911 0.43372 0.08578 0.0
C629 C 0.68911 0.42593 0.10354 0.0
C630 C 0.70394 0.41439 0.0992 0.0
C631 C 0.66507 0.44765 0.09088 0.0
C632 C 0.6787 0.47147 0.10211 0.0
C633 C 0.63855 0.43756 0.08538 0.0
C634 C 0.62319 0.41257 0.07341 0.0
C635 C 0.62097 0.39011 0.08241 0.0
C636 C 0.6065 0.36664 0.07094 0.0
C637 C 0.594 0.36536 0.05054 0.0
C638 C 0.59587 0.38755 0.0416 0.0
C639 C 0.61034 0.41107 0.053 0.0
H640 H 0.58279 0.34717 0.04169 0.0
H641 H 0.72229 0.57691 0.15028 0.0
H642 H 0.47572 0.93725 0.52122 0.0
H643 H 0.45514 0.89559 0.5395 0.0
H644 H 0.38085 0.8909 0.53218 0.0
H645 H 0.40166 0.93306 0.51501 0.0
H646 H 0.37929 0.86526 0.56715 0.0
H647 H 0.40577 0.86716 0.4906 0.0
H648 H 0.43699 0.88146 0.4597 0.0
H649 H 0.48141 0.854 0.49459 0.0
H650 H 0.45053 0.83963 0.52576 0.0
H651 H 0.32406 0.72492 0.52243 0.0
H652 H 0.35112 0.77101 0.5178 0.0
H653 H 0.36289 0.78156 0.58979 0.0
H654 H 0.33476 0.73539 0.59455 0.0
H655 H 0.39775 0.80495 0.52487 0.0
H656 H 0.37124 0.83935 0.60638 0.0
H657 H 0.33498 0.82449 0.63266 0.0
H658 H 0.28163 0.77773 0.58007 0.0
H659 H 0.31751 0.79254 0.55344 0.0
C660 C 0.45521 0.92785 0.52461 0.0
C661 C 0.44028 0.93841 0.5169 0.0
C662 C 0.44336 0.90385 0.53471 0.0
C663 C 0.41627 0.88962 0.53656 0.0
C664 C 0.40173 0.90132 0.53086 0.0
C665 C 0.41366 0.92555 0.52119 0.0
C666 C 0.40279 0.86173 0.54172 0.0
C667 C 0.38351 0.85212 0.55806 0.0
C668 C 0.40766 0.8443 0.52947 0.0
C669 C 0.42602 0.85258 0.5106 0.0
C670 C 0.42226 0.86427 0.49171 0.0
C671 C 0.43988 0.87239 0.47416 0.0
C672 C 0.46123 0.86878 0.47525 0.0
C673 C 0.4649 0.85685 0.49381 0.0
C674 C 0.44734 0.84868 0.5114 0.0
C675 C 0.33254 0.737 0.53729 0.0
C676 C 0.32712 0.72647 0.55887 0.0
C677 C 0.34809 0.76344 0.53462 0.0
C678 C 0.35884 0.78003 0.55344 0.0
C679 C 0.35438 0.76938 0.57499 0.0
C680 C 0.33844 0.74292 0.5777 0.0
C681 C 0.37413 0.80836 0.5503 0.0
C682 C 0.39376 0.81808 0.53427 0.0
C683 C 0.36883 0.82571 0.5622 0.0
C684 C 0.3471 0.81681 0.57803 0.0
C685 C 0.35176 0.82594 0.60044 0.0
C686 C 0.33128 0.81752 0.61538 0.0
C687 C 0.30604 0.8001 0.60806 0.0
C688 C 0.3012 0.79113 0.58575 0.0
C689 C 0.3216 0.79951 0.57073 0.0
H690 H 0.29021 0.7936 0.61966 0.0
H691 H 0.47491 0.87519 0.46172 0.0
H692 H 0.5229 0.44718 0.69723 0.0
H693 H 0.54106 0.42427 0.71771 0.0
H694 H 0.52844 0.37659 0.65879 0.0
H695 H 0.50947 0.39835 0.63897 0.0
H696 H 0.51754 0.34842 0.69292 0.0
H697 H 0.58905 0.43162 0.67408 0.0
H698 H 0.61414 0.47886 0.67479 0.0
H699 H 0.62108 0.47932 0.74681 0.0
H700 H 0.59574 0.43205 0.74653 0.0
H701 H 0.61368 0.31309 0.6944 0.0
H702 H 0.59302 0.33848 0.68639 0.0
H703 H 0.58994 0.35161 0.75742 0.0
H704 H 0.61014 0.32565 0.76567 0.0
H705 H 0.60696 0.39728 0.72464 0.0
H706 H 0.53853 0.31133 0.74061 0.0
H707 H 0.51625 0.26427 0.7365 0.0
H708 H 0.50615 0.26975 0.66553 0.0
H709 H 0.52876 0.31689 0.66918 0.0
C710 C 0.52365 0.43151 0.68889 0.0
C711 C 0.51518 0.42488 0.66637 0.0
C712 C 0.53426 0.41859 0.7005 0.0
C713 C 0.53662 0.39893 0.68969 0.0
C714 C 0.52701 0.39166 0.66757 0.0
C715 C 0.51633 0.40432 0.65615 0.0
C716 C 0.54968 0.38613 0.70066 0.0
C717 C 0.53709 0.35922 0.69985 0.0
C718 C 0.57508 0.4 0.71011 0.0
C719 C 0.59022 0.42836 0.71031 0.0
C720 C 0.59575 0.44182 0.69007 0.0
C721 C 0.61004 0.46858 0.6904 0.0
C722 C 0.61911 0.48209 0.71084 0.0
C723 C 0.61397 0.46884 0.731 0.0
C724 C 0.59966 0.44207 0.73077 0.0
C725 C 0.60897 0.32166 0.70834 0.0
C726 C 0.61347 0.31728 0.73068 0.0
C727 C 0.59713 0.33614 0.70372 0.0
C728 C 0.5899 0.34684 0.72132 0.0
C729 C 0.59543 0.34355 0.74363 0.0
C730 C 0.6069 0.32866 0.74829 0.0
C731 C 0.57498 0.35987 0.7162 0.0
C732 C 0.58722 0.38665 0.71812 0.0
C733 C 0.54944 0.34598 0.70733 0.0
C734 C 0.53552 0.31763 0.70515 0.0
C735 C 0.53174 0.3025 0.7241 0.0
C736 C 0.51902 0.27582 0.72186 0.0
C737 C 0.50984 0.26403 0.70076 0.0
C738 C 0.51329 0.2789 0.68186 0.0
C739 C 0.52603 0.30561 0.68401 0.0
H740 H 0.5 0.24336 0.69906 0.0
H741 H 0.63019 0.50281 0.71106 0.0
H742 H 0.11444 0.58411 0.83487 0.0
H743 H 0.15733 0.60193 0.85274 0.0
H744 H 0.14196 0.52556 0.86651 0.0
H745 H 0.09903 0.50769 0.84877 0.0
H746 H 0.17377 0.56068 0.89927 0.0
H747 H 0.16814 0.55183 0.81829 0.0
H748 H 0.15543 0.55894 0.78062 0.0
H749 H 0.20437 0.64019 0.79021 0.0
H750 H 0.21694 0.63357 0.82818 0.0
H751 H 0.29124 0.5634 0.89175 0.0
H752 H 0.24811 0.55606 0.88346 0.0
H753 H 0.27911 0.63697 0.87421 0.0
H754 H 0.32297 0.64468 0.88245 0.0
H755 H 0.24067 0.60567 0.84175 0.0
H756 H 0.25074 0.6124 0.92197 0.0
H757 H 0.26309 0.60284 0.95878 0.0
H758 H 0.20578 0.52341 0.94976 0.0
H759 H 0.19339 0.53239 0.91269 0.0
C760 C 0.11987 0.57119 0.84249 0.0
C761 C 0.10352 0.54451 0.84026 0.0
C762 C 0.14441 0.58138 0.85258 0.0
C763 C 0.15307 0.56504 0.86044 0.0
C764 C 0.13572 0.53852 0.86045 0.0
C765 C 0.1111 0.52831 0.85042 0.0
C766 C 0.18097 0.57512 0.86561 0.0
C767 C 0.1884 0.57052 0.88672 0.0
C768 C 0.20012 0.58824 0.84928 0.0
C769 C 0.19326 0.59222 0.82618 0.0
C770 C 0.17608 0.57122 0.81242 0.0
C771 C 0.16889 0.57516 0.79102 0.0
C772 C 0.17904 0.6 0.78305 0.0
C773 C 0.19649 0.62095 0.79643 0.0
C774 C 0.20364 0.61712 0.8179 0.0
C775 C 0.28912 0.57977 0.88788 0.0
C776 C 0.3107 0.60473 0.88802 0.0
C777 C 0.26432 0.57547 0.88318 0.0
C778 C 0.26031 0.59599 0.87866 0.0
C779 C 0.28179 0.62087 0.87783 0.0
C780 C 0.30682 0.62524 0.88253 0.0
C781 C 0.23345 0.59105 0.87536 0.0
C782 C 0.22617 0.59642 0.85451 0.0
C783 C 0.2144 0.57842 0.89186 0.0
C784 C 0.22122 0.57306 0.91448 0.0
C785 C 0.24083 0.59287 0.92779 0.0
C786 C 0.24785 0.58756 0.9487 0.0
C787 C 0.23525 0.56253 0.95659 0.0
C788 C 0.21552 0.54279 0.94362 0.0
C789 C 0.20847 0.54798 0.92267 0.0
H790 H 0.24075 0.55845 0.97276 0.0
H791 H 0.17342 0.60301 0.76648 0.0
H792 H 0.61253 0.0983 0.01596 0.0
H793 H 0.63789 0.14172 0.03174 0.0
H794 H 0.57445 0.15496 0.018 0.0
H795 H 0.54903 0.1115 0.00212 0.0
H796 H 0.61802 0.19204 0.00108 0.0
H797 H 0.59333 0.15179 0.07244 0.0
H798 H 0.58736 0.12047 0.10144 0.0
H799 H 0.66924 0.14885 0.10372 0.0
H800 H 0.67568 0.18011 0.07451 0.0
H801 H 0.69011 0.31937 0.04957 0.0
H802 H 0.65615 0.27503 0.04119 0.0
H803 H 0.71074 0.24933 0.05385 0.0
H804 H 0.74432 0.29303 0.06259 0.0
H805 H 0.66714 0.21882 0.07359 0.0
H806 H 0.69128 0.25523 -0.00028 0.0
H807 H 0.6979 0.28589 0.96988 0.0
H808 H 0.61759 0.26421 0.9718 0.0
H809 H 0.61057 0.23364 0.00187 0.0
C810 C 0.60363 0.11011 0.01706 0.0
C811 C 0.57873 0.10141 0.00787 0.0
C812 C 0.61821 0.13504 0.02597 0.0
C813 C 0.60811 0.15169 0.02608 0.0
C814 C 0.58272 0.14255 0.01803 0.0
C815 C 0.56815 0.11766 0.00909 0.0
C816 C 0.62479 0.17916 0.03277 0.0
C817 C 0.62834 0.19792 0.01715 0.0
C818 C 0.63874 0.18688 0.05349 0.0
C819 C 0.63495 0.16818 0.07116 0.0
C820 C 0.61005 0.15123 0.07901 0.0
C821 C 0.60658 0.13351 0.09551 0.0
C822 C 0.6279 0.13264 0.10439 0.0
C823 C 0.65274 0.14954 0.09682 0.0
C824 C 0.65631 0.16729 0.08032 0.0
C825 C 0.69488 0.30428 0.05047 0.0
C826 C 0.72002 0.30989 0.05679 0.0
C827 C 0.67545 0.27892 0.04564 0.0
C828 C 0.68087 0.25877 0.04681 0.0
C829 C 0.70596 0.26443 0.05297 0.0
C830 C 0.72524 0.28958 0.05789 0.0
C831 C 0.66069 0.23166 0.04175 0.0
C832 C 0.65651 0.21296 0.05766 0.0
C833 C 0.64626 0.22399 0.02125 0.0
C834 C 0.65048 0.2424 0.00323 0.0
C835 C 0.67509 0.25717 0.99391 0.0
C836 C 0.6789 0.27449 0.97693 0.0
C837 C 0.6582 0.27706 0.969 0.0
C838 C 0.63362 0.26225 0.97799 0.0
C839 C 0.62971 0.24492 0.995 0.0
H840 H 0.66118 0.29048 0.95584 0.0
H841 H 0.62518 0.1189 0.11715 0.0
H842 H 0.46214 0.55841 0.16905 0.0
H843 H 0.44136 0.58091 0.18529 0.0
H844 H 0.516 0.64253 0.20768 0.0
H845 H 0.53676 0.61987 0.19168 0.0
H846 H 0.47876 0.63653 0.23663 0.0
H847 H 0.49113 0.64324 0.15661 0.0
H848 H 0.48646 0.62734 0.11745 0.0
H849 H 0.40388 0.59285 0.12086 0.0
H850 H 0.40802 0.60812 0.16024 0.0
H851 H 0.46927 0.74685 0.23154 0.0
H852 H 0.47951 0.71354 0.22279 0.0
H853 H 0.39891 0.66015 0.20836 0.0
H854 H 0.38824 0.69375 0.21715 0.0
H855 H 0.43331 0.6573 0.17727 0.0
H856 H 0.423 0.65644 0.25708 0.0
H857 H 0.43032 0.67659 0.29481 0.0
H858 H 0.51169 0.70345 0.29057 0.0
H859 H 0.50494 0.68389 0.25262 0.0
C860 C 0.47396 0.57625 0.17828 0.0
C861 C 0.50106 0.58744 0.17908 0.0
C862 C 0.46211 0.58923 0.18733 0.0
C863 C 0.47719 0.61375 0.19715 0.0
C864 C 0.50398 0.62371 0.20005 0.0
C865 C 0.51584 0.61065 0.19108 0.0
C866 C 0.46565 0.63016 0.20203 0.0
C867 C 0.46885 0.64107 0.22365 0.0
C868 C 0.45238 0.63588 0.18514 0.0
C869 C 0.44986 0.62653 0.1615 0.0
C870 C 0.47195 0.63203 0.14911 0.0
C871 C 0.46941 0.62315 0.12686 0.0
C872 C 0.44488 0.60902 0.1167 0.0
C873 C 0.42286 0.60374 0.12878 0.0
C874 C 0.42529 0.61247 0.15107 0.0
C875 C 0.45357 0.72811 0.22641 0.0
C876 C 0.42781 0.723 0.22529 0.0
C877 C 0.45953 0.70903 0.22146 0.0
C878 C 0.43994 0.68422 0.21536 0.0
C879 C 0.41431 0.67916 0.21321 0.0
C880 C 0.40826 0.69838 0.21821 0.0
C881 C 0.44661 0.66377 0.21179 0.0
C882 C 0.44266 0.65225 0.19038 0.0
C883 C 0.45945 0.65772 0.22877 0.0
C884 C 0.46347 0.66879 0.25193 0.0
C885 C 0.44247 0.66673 0.26414 0.0
C886 C 0.44652 0.67807 0.28557 0.0
C887 C 0.47145 0.69132 0.29507 0.0
C888 C 0.49238 0.69318 0.28319 0.0
C889 C 0.48845 0.68195 0.26172 0.0
H890 H 0.47455 0.70013 0.31164 0.0
H891 H 0.44294 0.60222 0.09947 0.0
H892 H 0.92194 0.46013 0.32616 0.0
H893 H 0.87862 0.43838 0.34211 0.0
H894 H 0.88728 0.51154 0.36119 0.0
H895 H 0.93066 0.53331 0.34544 0.0
H896 H 0.85924 0.47634 0.39161 0.0
H897 H 0.85935 0.48282 0.3112 0.0
H898 H 0.86997 0.47685 0.27243 0.0
H899 H 0.82797 0.39525 0.28005 0.0
H900 H 0.81748 0.40076 0.31904 0.0
H901 H 0.73783 0.46405 0.38209 0.0
H902 H 0.78075 0.47297 0.37187 0.0
H903 H 0.75535 0.39235 0.37273 0.0
H904 H 0.71168 0.38301 0.38339 0.0
H905 H 0.7906 0.42434 0.33461 0.0
H906 H 0.78564 0.42108 0.41547 0.0
H907 H 0.77343 0.43135 0.45198 0.0
H908 H 0.82394 0.51161 0.44129 0.0
H909 H 0.83604 0.50186 0.40449 0.0
C910 C 0.91488 0.47152 0.33436 0.0
C911 C 0.92964 0.49844 0.33442 0.0
C912 C 0.89005 0.45908 0.34334 0.0
C913 C 0.87941 0.47333 0.35235 0.0
C914 C 0.89501 0.50011 0.35423 0.0
C915 C 0.9199 0.51257 0.34534 0.0
C916 C 0.85142 0.46072 0.3578 0.0
C917 C 0.84428 0.4649 0.37916 0.0
C918 C 0.83175 0.4456 0.34161 0.0
C919 C 0.83791 0.44221 0.31813 0.0
C920 C 0.85256 0.46361 0.30467 0.0
C921 C 0.85854 0.46031 0.28265 0.0
C922 C 0.84971 0.43569 0.2738 0.0
C923 C 0.83485 0.41431 0.28695 0.0
C924 C 0.82888 0.41751 0.30901 0.0
C925 C 0.74109 0.44803 0.37996 0.0
C926 C 0.72127 0.42277 0.38391 0.0
C927 C 0.76573 0.45324 0.37405 0.0
C928 C 0.77134 0.4334 0.37188 0.0
C929 C 0.75137 0.40794 0.37443 0.0
C930 C 0.72646 0.40264 0.38048 0.0
C931 C 0.79858 0.44006 0.36833 0.0
C932 C 0.80558 0.43505 0.34726 0.0
C933 C 0.81815 0.45484 0.38461 0.0
C934 C 0.81167 0.46072 0.40715 0.0
C935 C 0.79406 0.44093 0.42085 0.0
C936 C 0.78714 0.44665 0.4416 0.0
C937 C 0.79788 0.47211 0.44894 0.0
C938 C 0.81564 0.49189 0.43558 0.0
C939 C 0.82256 0.48627 0.41478 0.0
H940 H 0.79247 0.47652 0.46499 0.0
H941 H 0.85433 0.43317 0.25674 0.0
H942 H 0.0861 0.54747 0.37696 0.0
H943 H 0.10861 0.55911 0.41369 0.0
H944 H 0.09315 0.62146 0.42056 0.0
H945 H 0.07025 0.60959 0.38399 0.0
H946 H 0.14638 0.63596 0.42308 0.0
H947 H 0.06596 0.57624 0.45618 0.0
H948 H 0.02622 0.5345 0.46048 0.0
H949 H 0.07188 0.49894 0.47323 0.0
H950 H 0.11189 0.54038 0.46863 0.0
H951 H 0.1905 0.63581 0.54813 0.0
H952 H 0.15628 0.62533 0.51958 0.0
H953 H 0.20734 0.62731 0.4678 0.0
H954 H 0.24146 0.63802 0.49627 0.0
H955 H 0.13177 0.5843 0.49132 0.0
H956 H 0.19539 0.64894 0.41986 0.0
H957 H 0.23533 0.69055 0.41561 0.0
H958 H 0.22322 0.71629 0.47959 0.0
H959 H 0.18302 0.67498 0.48408 0.0
C960 C 0.08674 0.56308 0.38672 0.0
C961 C 0.07634 0.57755 0.37779 0.0
C962 C 0.09962 0.56975 0.40763 0.0
C963 C 0.10259 0.59119 0.41976 0.0
C964 C 0.091 0.60482 0.41144 0.0
C965 C 0.07775 0.5979 0.39068 0.0
C966 C 0.12029 0.60101 0.43966 0.0
C967 C 0.14319 0.62469 0.43804 0.0
C968 C 0.11598 0.58637 0.45919 0.0
C969 C 0.09193 0.56141 0.46193 0.0
C970 C 0.06753 0.55948 0.45971 0.0
C971 C 0.04495 0.53588 0.46224 0.0
C972 C 0.04652 0.51408 0.46709 0.0
C973 C 0.07069 0.51584 0.46947 0.0
C974 C 0.09332 0.5394 0.46694 0.0
C975 C 0.19427 0.634 0.53061 0.0
C976 C 0.21815 0.63689 0.52432 0.0
C977 C 0.17479 0.628 0.51437 0.0
C978 C 0.17926 0.62558 0.49155 0.0
C979 C 0.20351 0.6293 0.48526 0.0
C980 C 0.22287 0.63513 0.5015 0.0
C981 C 0.15849 0.61861 0.47429 0.0
C982 C 0.13504 0.59553 0.47638 0.0
C983 C 0.16238 0.63367 0.45507 0.0
C984 C 0.18627 0.65879 0.45235 0.0
C985 C 0.20117 0.66354 0.43296 0.0
C986 C 0.22387 0.68706 0.43052 0.0
C987 C 0.23184 0.70603 0.44735 0.0
C988 C 0.21707 0.70155 0.4666 0.0
C989 C 0.19433 0.67807 0.46911 0.0
H990 H 0.24944 0.72421 0.44544 0.0
H991 H 0.02902 0.49582 0.46904 0.0
H992 H 0.51309 0.05828 0.55861 0.0
H993 H 0.52781 0.0819 0.5949 0.0
H994 H 0.50923 0.13795 0.57039 0.0
H995 H 0.49431 0.11437 0.53459 0.0
H996 H 0.56159 0.1572 0.58308 0.0
H997 H 0.47591 0.10368 0.61107 0.0
H998 H 0.43755 0.06246 0.62021 0.0
H999 H 0.48383 0.04557 0.66492 0.0
H1000 H 0.52257 0.08654 0.65579 0.0
H1001 H 0.61154 0.24501 0.67533 0.0
H1002 H 0.58698 0.2174 0.64367 0.0
H1003 H 0.5679 0.15097 0.6838 0.0
H1004 H 0.58634 0.1791 0.7167 0.0
H1005 H 0.53256 0.13536 0.66146 0.0
H1006 H 0.62041 0.18645 0.62891 0.0
H1007 H 0.65912 0.22571 0.61582 0.0
H1008 H 0.61053 0.24531 0.5774 0.0
H1009 H 0.57178 0.20634 0.59009 0.0
C1010 C 0.51131 0.0751 0.5614 0.0
C1011 C 0.50276 0.08467 0.54391 0.0
C1012 C 0.51977 0.08861 0.58201 0.0
C1013 C 0.51973 0.11174 0.5852 0.0
C1014 C 0.50944 0.12018 0.56824 0.0
C1015 C 0.50091 0.10671 0.54786 0.0
C1016 C 0.53345 0.12902 0.60468 0.0
C1017 C 0.5554 0.15257 0.60034 0.0
C1018 C 0.52551 0.12264 0.62703 0.0
C1019 C 0.5022 0.09805 0.63255 0.0
C1020 C 0.47797 0.09106 0.62268 0.0
C1021 C 0.45614 0.06777 0.6279 0.0
C1022 C 0.45826 0.05137 0.64308 0.0
C1023 C 0.48221 0.05827 0.65313 0.0
C1024 C 0.50411 0.08153 0.64795 0.0
C1025 C 0.60221 0.22443 0.67714 0.0
C1026 C 0.60243 0.21405 0.69803 0.0
C1027 C 0.58856 0.20844 0.65875 0.0
C1028 C 0.57655 0.18155 0.66024 0.0
C1029 C 0.57691 0.17141 0.68148 0.0
C1030 C 0.5884 0.18748 0.70033 0.0
C1031 C 0.56229 0.16391 0.64048 0.0
C1032 C 0.53976 0.14018 0.64453 0.0
C1033 C 0.57003 0.16997 0.61771 0.0
C1034 C 0.59333 0.19379 0.61081 0.0
C1035 C 0.61813 0.19937 0.61792 0.0
C1036 C 0.64 0.22148 0.61054 0.0
C1037 C 0.63726 0.23808 0.59605 0.0
C1038 C 0.61264 0.23254 0.58875 0.0
C1039 C 0.59075 0.21044 0.59598 0.0
H1040 H 0.65423 0.25514 0.59037 0.0
H1041 H 0.44134 0.03335 0.6471 0.0
H1042 H 0.4478 0.49091 0.71949 0.0
H1043 H 0.44037 0.50666 0.75502 0.0
H1044 H 0.49908 0.58353 0.73913 0.0
H1045 H 0.50696 0.56783 0.70363 0.0
H1046 H 0.46714 0.53561 0.79342 0.0
H1047 H 0.47585 0.62059 0.74593 0.0
H1048 H 0.46913 0.63335 0.70822 0.0
H1049 H 0.41024 0.55572 0.69301 0.0
H1050 H 0.41719 0.54246 0.73035 0.0
H1051 H 0.42909 0.63209 0.84554 0.0
H1052 H 0.45009 0.62056 0.81628 0.0
H1053 H 0.39885 0.54046 0.82888 0.0
H1054 H 0.37795 0.5517 0.8583 0.0
H1055 H 0.43231 0.59349 0.77789 0.0
H1056 H 0.43078 0.50738 0.82194 0.0
H1057 H 0.43121 0.49316 0.86061 0.0
H1058 H 0.47066 0.57131 0.88451 0.0
H1059 H 0.47095 0.58603 0.84594 0.0
C1060 C 0.46003 0.51098 0.72399 0.0
C1061 C 0.47777 0.52817 0.70856 0.0
C1062 C 0.45556 0.52 0.74426 0.0
C1063 C 0.46869 0.54633 0.74943 0.0
C1064 C 0.48838 0.56317 0.73525 0.0
C1065 C 0.49297 0.55416 0.71503 0.0
C1066 C 0.45963 0.55636 0.76802 0.0
C1067 C 0.4595 0.54825 0.79008 0.0
C1068 C 0.44997 0.5731 0.76375 0.0
C1069 C 0.44724 0.58055 0.74073 0.0
C1070 C 0.46172 0.60624 0.73438 0.0
C1071 C 0.4579 0.61354 0.71309 0.0
C1072 C 0.43936 0.59534 0.69819 0.0
C1073 C 0.42476 0.56976 0.70447 0.0
C1074 C 0.42879 0.5623 0.7256 0.0
C1075 C 0.42209 0.612 0.84198 0.0
C1076 C 0.40186 0.59285 0.85441 0.0
C1077 C 0.43422 0.60546 0.8253 0.0
C1078 C 0.42644 0.57968 0.82075 0.0
C1079 C 0.40562 0.56051 0.83249 0.0
C1080 C 0.39353 0.567 0.84919 0.0
C1081 C 0.43968 0.57274 0.80338 0.0
C1082 C 0.44048 0.58134 0.78146 0.0
C1083 C 0.44982 0.55639 0.80789 0.0
C1084 C 0.45068 0.54778 0.83104 0.0
C1085 C 0.43975 0.52154 0.83541 0.0
C1086 C 0.43983 0.51339 0.85732 0.0
C1087 C 0.45088 0.53131 0.87501 0.0
C1088 C 0.46204 0.55744 0.87081 0.0
C1089 C 0.46209 0.5657 0.84892 0.0
H1090 H 0.45083 0.52496 0.89198 0.0
H1091 H 0.43623 0.60112 0.68184 0.0
H1092 H 0.93638 0.4995 0.86444 0.0
H1093 H 0.91198 0.48692 0.89913 0.0
H1094 H 0.94511 0.43971 0.91551 0.0
H1095 H 0.96869 0.45135 0.88025 0.0
H1096 H 0.89438 0.41282 0.9173 0.0
H1097 H 0.95889 0.49466 0.94701 0.0
H1098 H 0.98692 0.54164 0.94766 0.0
H1099 H 0.9199 0.55055 0.94675 0.0
H1100 H 0.89146 0.50361 0.94578 0.0
H1101 H 0.8386 0.37764 0.02509 0.0
H1102 H 0.86807 0.39496 0.99375 0.0
H1103 H 0.83247 0.43897 0.97404 0.0
H1104 H 0.80293 0.42193 0.0056 0.0
H1105 H 0.88515 0.46793 0.9747 0.0
H1106 H 0.82092 0.38649 0.94374 0.0
H1107 H 0.79266 0.33954 0.94287 0.0
H1108 H 0.85934 0.33013 0.94592 0.0
H1109 H 0.88801 0.37706 0.94712 0.0
C1110 C 0.93895 0.48691 0.87569 0.0
C1111 C 0.95438 0.47632 0.86949 0.0
C1112 C 0.92506 0.47981 0.89561 0.0
C1113 C 0.92666 0.46233 0.90999 0.0
C1114 C 0.9435 0.45317 0.90465 0.0
C1115 C 0.95727 0.46012 0.88461 0.0
C1116 C 0.90881 0.45161 0.92922 0.0
C1117 C 0.89277 0.4249 0.9301 0.0
C1118 C 0.90598 0.46734 0.9455 0.0
C1119 C 0.92304 0.49559 0.94613 0.0
C1120 C 0.95013 0.50663 0.94677 0.0
C1121 C 0.96609 0.53326 0.94723 0.0
C1122 C 0.9552 0.54907 0.9472 0.0
C1123 C 0.92831 0.53828 0.94676 0.0
C1124 C 0.91226 0.51166 0.94628 0.0
C1125 C 0.83676 0.39078 0.014 0.0
C1126 C 0.81825 0.39829 0.01791 0.0
C1127 C 0.85367 0.40067 0.99603 0.0
C1128 C 0.85242 0.41819 0.98147 0.0
C1129 C 0.8338 0.4255 0.9851 0.0
C1130 C 0.81679 0.41558 0.00306 0.0
C1131 C 0.87096 0.42922 0.96278 0.0
C1132 C 0.88697 0.45593 0.96196 0.0
C1133 C 0.8738 0.41352 0.94653 0.0
C1134 C 0.8566 0.38529 0.94574 0.0
C1135 C 0.82955 0.37441 0.94441 0.0
C1136 C 0.81346 0.3478 0.94382 0.0
C1137 C 0.82419 0.33186 0.9444 0.0
C1138 C 0.85105 0.3425 0.9455 0.0
C1139 C 0.86723 0.36911 0.94612 0.0
H1140 H 0.8117 0.31126 0.94394 0.0
H1141 H 0.96759 0.56968 0.94755 0.0
H1142 H 0.45792 0.94027 0.04193 0.0
H1143 H 0.44582 0.91965 0.07839 0.0
H1144 H 0.52651 0.95461 0.09773 0.0
H1145 H 0.53868 0.97477 0.06101 0.0
H1146 H 0.50328 0.90405 0.09997 0.0
H1147 H 0.4842 0.96766 0.12663 0.0
H1148 H 0.46463 0.99523 0.12566 0.0
H1149 H 0.38865 0.92873 0.12392 0.0
H1150 H 0.40776 0.90072 0.12456 0.0
H1151 H 0.47945 0.84545 0.20618 0.0
H1152 H 0.49243 0.87677 0.17645 0.0
H1153 H 0.4132 0.84192 0.15276 0.0
H1154 H 0.39985 0.81048 0.18269 0.0
H1155 H 0.43677 0.89441 0.15442 0.0
H1156 H 0.4553 0.83121 0.12469 0.0
H1157 H 0.4741 0.80295 0.12476 0.0
H1158 H 0.55049 0.86848 0.13121 0.0
H1159 H 0.53209 0.89713 0.13149 0.0
C1160 C 0.47303 0.94432 0.0543 0.0
C1161 C 0.49924 0.95899 0.04857 0.0
C1162 C 0.4661 0.93253 0.07517 0.0
C1163 C 0.48525 0.93539 0.09079 0.0
C1164 C 0.5114 0.95203 0.08591 0.0
C1165 C 0.51834 0.96382 0.06501 0.0
C1166 C 0.47818 0.91821 0.11042 0.0
C1167 C 0.48917 0.90242 0.11217 0.0
C1168 C 0.45902 0.91529 0.12585 0.0
C1169 C 0.44744 0.93208 0.12546 0.0
C1170 C 0.46332 0.95889 0.12585 0.0
C1171 C 0.45231 0.97461 0.1254 0.0
C1172 C 0.42542 0.96374 0.12468 0.0
C1173 C 0.40948 0.93712 0.12446 0.0
C1174 C 0.4204 0.92132 0.1249 0.0
C1175 C 0.46471 0.84425 0.19462 0.0
C1176 C 0.43857 0.82523 0.19682 0.0
C1177 C 0.47221 0.86224 0.1776 0.0
C1178 C 0.45383 0.86162 0.16228 0.0
C1179 C 0.42772 0.84278 0.16442 0.0
C1180 C 0.42016 0.82469 0.18145 0.0
C1181 C 0.46201 0.8805 0.14392 0.0
C1182 C 0.45111 0.89639 0.14234 0.0
C1183 C 0.48117 0.88348 0.12852 0.0
C1184 C 0.49229 0.8663 0.12836 0.0
C1185 C 0.47609 0.83959 0.12632 0.0
C1186 C 0.48668 0.8235 0.12626 0.0
C1187 C 0.51347 0.83391 0.12806 0.0
C1188 C 0.52973 0.86044 0.12986 0.0
C1189 C 0.51924 0.87661 0.12996 0.0
H1190 H 0.52163 0.82142 0.128 0.0
H1191 H 0.41693 0.97594 0.12433 0.0
H1192 H 0.53087 0.46189 0.20271 0.0
H1193 H 0.53586 0.44487 0.23843 0.0
H1194 H 0.58931 0.52171 0.26238 0.0
H1195 H 0.58403 0.5387 0.2269 0.0
H1196 H 0.58007 0.44874 0.2501 0.0
H1197 H 0.59559 0.52477 0.31897 0.0
H1198 H 0.5774 0.55214 0.32953 0.0
H1199 H 0.50563 0.49964 0.29595 0.0
H1200 H 0.52324 0.47177 0.28546 0.0
H1201 H 0.6528 0.47707 0.36507 0.0
H1202 H 0.6321 0.488 0.33503 0.0
H1203 H 0.58112 0.40775 0.31975 0.0
H1204 H 0.60203 0.39655 0.34958 0.0
H1205 H 0.58349 0.47821 0.32895 0.0
H1206 H 0.56678 0.40016 0.26328 0.0
H1207 H 0.58558 0.37347 0.25207 0.0
H1208 H 0.65986 0.43092 0.27835 0.0
H1209 H 0.64158 0.45807 0.28945 0.0
C1210 C 0.54286 0.47516 0.21598 0.0
C1211 C 0.55708 0.50161 0.21204 0.0
C1212 C 0.54585 0.46543 0.23632 0.0
C1213 C 0.56309 0.48195 0.25309 0.0
C1214 C 0.57561 0.50854 0.24988 0.0
C1215 C 0.5725 0.51829 0.22958 0.0
C1216 C 0.57082 0.47144 0.2723 0.0
C1217 C 0.5802 0.45473 0.26741 0.0
C1218 C 0.57173 0.47976 0.29483 0.0
C1219 C 0.56084 0.49628 0.30127 0.0
C1220 C 0.57588 0.51899 0.31393 0.0
C1221 C 0.56568 0.53461 0.31988 0.0
C1222 C 0.5404 0.52767 0.31336 0.0
C1223 C 0.52525 0.50505 0.30092 0.0
C1224 C 0.53535 0.48935 0.29493 0.0
C1225 C 0.6373 0.46167 0.35527 0.0
C1226 C 0.62925 0.43588 0.35972 0.0
C1227 C 0.62536 0.46799 0.33817 0.0
C1228 C 0.60512 0.44874 0.32505 0.0
C1229 C 0.59692 0.42297 0.32946 0.0
C1230 C 0.60893 0.4166 0.34654 0.0
C1231 C 0.59294 0.45581 0.30663 0.0
C1232 C 0.58288 0.47193 0.31166 0.0
C1233 C 0.59143 0.44701 0.28419 0.0
C1234 C 0.60272 0.43096 0.27745 0.0
C1235 C 0.58714 0.4071 0.26662 0.0
C1236 C 0.5977 0.3919 0.26029 0.0
C1237 C 0.62388 0.40045 0.26458 0.0
C1238 C 0.63957 0.42427 0.27513 0.0
C1239 C 0.62911 0.43955 0.28147 0.0
H1240 H 0.63201 0.38865 0.25968 0.0
H1241 H 0.53254 0.5398 0.31798 0.0
H1242 H 0.42296 0.91335 0.44755 0.0
H1243 H 0.41819 0.89084 0.41211 0.0
H1244 H 0.47476 0.96132 0.38225 0.0
H1245 H 0.48101 0.98414 0.41854 0.0
H1246 H 0.41401 0.9176 0.36059 0.0
H1247 H 0.50109 0.93683 0.38336 0.0
H1248 H 0.53322 0.93913 0.41115 0.0
H1249 H 0.48593 0.85861 0.42287 0.0
H1250 H 0.45321 0.85599 0.39557 0.0
H1251 H 0.40847 0.84437 0.26313 0.0
H1252 H 0.4211 0.87754 0.29254 0.0
H1253 H 0.41705 0.824 0.34228 0.0
H1254 H 0.4061 0.79153 0.31253 0.0
H1255 H 0.45656 0.8656 0.35144 0.0
H1256 H 0.36945 0.84417 0.33395 0.0
H1257 H 0.3326 0.83759 0.30988 0.0
H1258 H 0.37415 0.91665 0.29141 0.0
H1259 H 0.41139 0.92362 0.31518 0.0
C1260 C 0.43496 0.92413 0.43371 0.0
C1261 C 0.45304 0.95049 0.43617 0.0
C1262 C 0.43189 0.91122 0.41335 0.0
C1263 C 0.4463 0.92438 0.39474 0.0
C1264 C 0.46361 0.95086 0.3966 0.0
C1265 C 0.4671 0.96385 0.41727 0.0
C1266 C 0.44298 0.90971 0.37366 0.0
C1267 C 0.42384 0.90677 0.35806 0.0
C1268 C 0.45493 0.89472 0.37116 0.0
C1269 C 0.47454 0.89632 0.38766 0.0
C1270 C 0.49736 0.91971 0.39211 0.0
C1271 C 0.51572 0.92105 0.40773 0.0
C1272 C 0.51157 0.89905 0.41884 0.0
C1273 C 0.4891 0.87565 0.4143 0.0
C1274 C 0.47063 0.87424 0.39878 0.0
C1275 C 0.41044 0.83989 0.28039 0.0
C1276 C 0.40716 0.81584 0.28564 0.0
C1277 C 0.41737 0.85871 0.29723 0.0
C1278 C 0.41985 0.85335 0.31979 0.0
C1279 C 0.41553 0.82882 0.32504 0.0
C1280 C 0.4093 0.81026 0.3081 0.0
C1281 C 0.42757 0.87331 0.33791 0.0
C1282 C 0.44726 0.87696 0.35324 0.0
C1283 C 0.41566 0.88847 0.34041 0.0
C1284 C 0.39331 0.88434 0.32612 0.0
C1285 C 0.3708 0.8601 0.32462 0.0
C1286 C 0.34984 0.85631 0.31106 0.0
C1287 C 0.35107 0.87667 0.29907 0.0
C1288 C 0.37324 0.90089 0.30067 0.0
C1289 C 0.39428 0.90477 0.3142 0.0
H1290 H 0.33481 0.8737 0.28858 0.0
H1291 H 0.52581 0.90012 0.43092 0.0
H1292 H 0.54757 0.49481 0.59517 0.0
H1293 H 0.56728 0.49044 0.56064 0.0
H1294 H 0.5024 0.41404 0.54995 0.0
H1295 H 0.48238 0.419 0.58381 0.0
H1296 H 0.58362 0.45852 0.55749 0.0
H1297 H 0.499 0.39216 0.49716 0.0
H1298 H 0.4565 0.38558 0.48467 0.0
H1299 H 0.48148 0.46437 0.5003 0.0
H1300 H 0.52423 0.47151 0.5126 0.0
H1301 H 0.63468 0.40495 0.47866 0.0
H1302 H 0.61266 0.41414 0.50817 0.0
H1303 H 0.57853 0.44066 0.45828 0.0
H1304 H 0.59621 0.42594 0.42883 0.0
H1305 H 0.54567 0.42139 0.48251 0.0
H1306 H 0.63592 0.48932 0.52258 0.0
H1307 H 0.67718 0.50024 0.54209 0.0
H1308 H 0.64206 0.4249 0.56944 0.0
H1309 H 0.60037 0.41415 0.55114 0.0
C1310 C 0.537 0.4777 0.58471 0.0
C1311 C 0.51329 0.45745 0.59174 0.0
C1312 C 0.54836 0.47502 0.56518 0.0
C1313 C 0.53638 0.45188 0.5526 0.0
C1314 C 0.51185 0.43227 0.55895 0.0
C1315 C 0.50034 0.43512 0.57828 0.0
C1316 C 0.55102 0.44695 0.53499 0.0
C1317 C 0.57563 0.45105 0.54079 0.0
C1318 C 0.54035 0.43634 0.51355 0.0
C1319 C 0.51475 0.43229 0.50598 0.0
C1320 C 0.49546 0.40811 0.49784 0.0
C1321 C 0.47132 0.40427 0.49081 0.0
C1322 C 0.46627 0.42452 0.49175 0.0
C1323 C 0.48538 0.44867 0.49966 0.0
C1324 C 0.50956 0.45261 0.5067 0.0
C1325 C 0.62261 0.41301 0.47421 0.0
C1326 C 0.61778 0.4156 0.45156 0.0
C1327 C 0.61035 0.41897 0.49129 0.0
C1328 C 0.59425 0.42926 0.48622 0.0
C1329 C 0.59029 0.43247 0.46328 0.0
C1330 C 0.60086 0.42456 0.44625 0.0
C1331 C 0.57978 0.43485 0.50403 0.0
C1332 C 0.55455 0.43005 0.49865 0.0
C1333 C 0.59007 0.44521 0.52585 0.0
C1334 C 0.61559 0.45051 0.53447 0.0
C1335 C 0.63729 0.47494 0.53229 0.0
C1336 C 0.66058 0.48121 0.5434 0.0
C1337 C 0.66243 0.46306 0.55645 0.0
C1338 C 0.64077 0.43881 0.55899 0.0
C1339 C 0.61726 0.43272 0.54845 0.0
H1340 H 0.68054 0.46792 0.56488 0.0
H1341 H 0.44756 0.42151 0.48631 0.0
H1342 H 0.09699 0.57853 0.76607 0.0
H1343 H 0.12224 0.5912 0.73178 0.0
H1344 H 0.09243 0.51169 0.71371 0.0
H1345 H 0.06768 0.49892 0.7484 0.0
H1346 H 0.14411 0.53789 0.71284 0.0
H1347 H 0.07617 0.54973 0.68295 0.0
H1348 H 0.04551 0.56585 0.68229 0.0
H1349 H 0.10889 0.64331 0.68408 0.0
H1350 H 0.13996 0.62765 0.68507 0.0
H1351 H 0.20218 0.56202 0.60505 0.0
H1352 H 0.17232 0.54785 0.63634 0.0
H1353 H 0.20209 0.62638 0.65776 0.0
H1354 H 0.23201 0.64084 0.62641 0.0
H1355 H 0.14931 0.59979 0.65601 0.0
H1356 H 0.21698 0.58823 0.68738 0.0
H1357 H 0.24799 0.57252 0.68856 0.0
H1358 H 0.18519 0.49483 0.68441 0.0
H1359 H 0.15379 0.51009 0.68289 0.0
C1360 C 0.09532 0.56374 0.75451 0.0
C1361 C 0.08035 0.53772 0.75996 0.0
C1362 C 0.10972 0.571 0.73486 0.0
C1363 C 0.10926 0.5524 0.72013 0.0
C1364 C 0.09311 0.52637 0.72485 0.0
C1365 C 0.0787 0.51908 0.74454 0.0
C1366 C 0.1274 0.56019 0.70103 0.0
C1367 C 0.14489 0.55103 0.70015 0.0
C1368 C 0.12903 0.57801 0.6849 0.0
C1369 C 0.1104 0.5875 0.68428 0.0
C1370 C 0.08358 0.5702 0.68339 0.0
C1371 C 0.06612 0.57926 0.68292 0.0
C1372 C 0.07524 0.60559 0.68319 0.0
C1373 C 0.10185 0.62292 0.68388 0.0
C1374 C 0.1194 0.61396 0.68437 0.0
C1375 C 0.20268 0.57633 0.61655 0.0
C1376 C 0.21962 0.60262 0.61315 0.0
C1377 C 0.18555 0.56816 0.63447 0.0
C1378 C 0.18498 0.58604 0.64943 0.0
C1379 C 0.20216 0.61224 0.64639 0.0
C1380 C 0.21939 0.62046 0.62852 0.0
C1381 C 0.16591 0.57742 0.66783 0.0
C1382 C 0.14836 0.58649 0.66861 0.0
C1383 C 0.16422 0.55955 0.6839 0.0
C1384 C 0.18305 0.55031 0.68477 0.0
C1385 C 0.20979 0.5678 0.68651 0.0
C1386 C 0.22744 0.55898 0.68729 0.0
C1387 C 0.21857 0.5327 0.68649 0.0
C1388 C 0.19203 0.51518 0.68499 0.0
C1389 C 0.1743 0.52391 0.68418 0.0
H1390 H 0.23226 0.5259 0.68711 0.0
H1391 H 0.0617 0.61257 0.68283 0.0
H1392 H 0.58412 0.06221 0.92276 0.0
H1393 H 0.59453 0.08799 0.88891 0.0
H1394 H 0.53072 0.10072 0.9009 0.0
H1395 H 0.52055 0.07533 0.93514 0.0
H1396 H 0.54441 0.09665 0.85148 0.0
H1397 H 0.57731 0.14211 0.92245 0.0
H1398 H 0.5981 0.14864 0.95993 0.0
H1399 H 0.66702 0.15778 0.9294 0.0
H1400 H 0.64639 0.15077 0.89174 0.0
H1401 H 0.59458 0.21664 0.79724 0.0
H1402 H 0.57672 0.1854 0.82734 0.0
H1403 H 0.64281 0.17463 0.82461 0.0
H1404 H 0.66067 0.20554 0.79431 0.0
H1405 H 0.62611 0.17761 0.86956 0.0
H1406 H 0.59275 0.13385 0.798 0.0
H1407 H 0.57112 0.12735 0.76095 0.0
H1408 H 0.502 0.11559 0.79305 0.0
H1409 H 0.52344 0.12256 0.83031 0.0
C1410 C 0.57152 0.06941 0.91756 0.0
C1411 C 0.55152 0.06679 0.93148 0.0
C1412 C 0.5776 0.08429 0.89832 0.0
C1413 C 0.56354 0.09643 0.89262 0.0
C1414 C 0.54171 0.09142 0.90504 0.0
C1415 C 0.53588 0.07687 0.92451 0.0
C1416 C 0.57436 0.11761 0.87645 0.0
C1417 C 0.56207 0.11446 0.85547 0.0
C1418 C 0.59747 0.14077 0.88174 0.0
C1419 C 0.6102 0.14561 0.9043 0.0
C1420 C 0.59681 0.14528 0.92374 0.0
C1421 C 0.60856 0.14909 0.94502 0.0
C1422 C 0.63383 0.15354 0.94705 0.0
C1423 C 0.64742 0.15428 0.9278 0.0
C1424 C 0.63571 0.15039 0.90648 0.0
C1425 C 0.60558 0.20801 0.80333 0.0
C1426 C 0.62902 0.21352 0.79332 0.0
C1427 C 0.59527 0.19007 0.82044 0.0
C1428 C 0.60836 0.17758 0.82802 0.0
C1429 C 0.63242 0.18406 0.81895 0.0
C1430 C 0.64255 0.20168 0.80162 0.0
C1431 C 0.59629 0.15665 0.84442 0.0
C1432 C 0.60838 0.15986 0.86553 0.0
C1433 C 0.57287 0.13368 0.83929 0.0
C1434 C 0.55979 0.129 0.81693 0.0
C1435 C 0.57301 0.13009 0.79716 0.0
C1436 C 0.56078 0.1263 0.77612 0.0
C1437 C 0.53522 0.12112 0.77464 0.0
C1438 C 0.52182 0.11965 0.79422 0.0
C1439 C 0.534 0.12352 0.8153 0.0
H1440 H 0.52578 0.11819 0.75834 0.0
H1441 H 0.64289 0.15648 0.96353 0.0
H1442 H 0.50755 0.54625 0.08474 0.0
H1443 H 0.49265 0.55566 0.04907 0.0
H1444 H 0.5142 0.631 0.07491 0.0
H1445 H 0.52932 0.62188 0.11004 0.0
H1446 H 0.46077 0.59859 0.06238 0.0
H1447 H 0.54668 0.62963 0.03463 0.0
H1448 H 0.58472 0.6259 0.02488 0.0
H1449 H 0.53816 0.56437 0.97823 0.0
H1450 H 0.49973 0.56749 0.98796 0.0
H1451 H 0.41374 0.64131 0.97244 0.0
H1452 H 0.43769 0.63689 0.00367 0.0
H1453 H 0.45615 0.58948 0.96135 0.0
H1454 H 0.43872 0.60074 0.9291 0.0
H1455 H 0.49105 0.60767 0.98411 0.0
H1456 H 0.4026 0.57389 0.01522 0.0
H1457 H 0.36479 0.57667 0.02858 0.0
H1458 H 0.41475 0.64072 0.0714 0.0
H1459 H 0.45261 0.63849 0.05825 0.0
C1460 C 0.50987 0.56505 0.08236 0.0
C1461 C 0.51939 0.58332 0.10001 0.0
C1462 C 0.50131 0.57039 0.06212 0.0
C1463 C 0.50222 0.59397 0.05951 0.0
C1464 C 0.51332 0.61271 0.07663 0.0
C1465 C 0.52197 0.6075 0.09663 0.0
C1466 C 0.48882 0.59825 0.04041 0.0
C1467 C 0.46714 0.60048 0.04512 0.0
C1468 C 0.49716 0.60041 0.01809 0.0
C1469 C 0.52027 0.59859 0.01222 0.0
C1470 C 0.54449 0.61512 0.02247 0.0
C1471 C 0.56614 0.61316 0.0169 0.0
C1472 C 0.56384 0.59485 0.001 0.0
C1473 C 0.5399 0.57851 0.99058 0.0
C1474 C 0.51819 0.58038 0.9961 0.0
C1475 C 0.42281 0.62976 0.97007 0.0
C1476 C 0.42264 0.6195 0.94877 0.0
C1477 C 0.4361 0.62664 0.98818 0.0
C1478 C 0.44765 0.61126 0.98594 0.0
C1479 C 0.44745 0.60124 0.96427 0.0
C1480 C 0.43648 0.60668 0.94576 0.0
C1481 C 0.46126 0.60674 0.00538 0.0
C1482 C 0.48353 0.60487 0.00097 0.0
C1483 C 0.45316 0.60456 0.02814 0.0
C1484 C 0.43035 0.60618 0.03545 0.0
C1485 C 0.40539 0.58864 0.02728 0.0
C1486 C 0.38403 0.59012 0.03482 0.0
C1487 C 0.38741 0.6089 0.05064 0.0
C1488 C 0.41215 0.62625 0.05905 0.0
C1489 C 0.43354 0.62489 0.05156 0.0
H1490 H 0.37084 0.60994 0.05646 0.0
H1491 H 0.58063 0.59337 0.99671 0.0
H1492 H 0.95079 0.47284 0.25795 0.0
H1493 H 0.92741 0.46 0.22159 0.0
H1494 H 0.9401 0.53641 0.21385 0.0
H1495 H 0.96385 0.54945 0.24994 0.0
H1496 H 0.88629 0.49466 0.21363 0.0
H1497 H 0.96786 0.52018 0.17857 0.0
H1498 H 0.00878 0.52021 0.17319 0.0
H1499 H 0.96643 0.43929 0.15884 0.0
H1500 H 0.92526 0.4387 0.1645 0.0
H1501 H 0.84511 0.45658 0.08701 0.0
H1502 H 0.87838 0.47907 0.11661 0.0
H1503 H 0.82731 0.42595 0.16547 0.0
H1504 H 0.79408 0.40382 0.13596 0.0
H1505 H 0.90355 0.46198 0.14286 0.0
H1506 H 0.8382 0.45644 0.21627 0.0
H1507 H 0.79689 0.45546 0.22221 0.0
H1508 H 0.80626 0.49541 0.16058 0.0
H1509 H 0.84782 0.49696 0.15443 0.0
C1510 C 0.94938 0.48709 0.24804 0.0
C1511 C 0.95924 0.51216 0.2566 0.0
C1512 C 0.93599 0.47973 0.22738 0.0
C1513 C 0.932 0.49727 0.21516 0.0
C1514 C 0.94308 0.52267 0.22306 0.0
C1515 C 0.95683 0.53014 0.24353 0.0
C1516 C 0.91376 0.48831 0.19567 0.0
C1517 C 0.89001 0.48749 0.19813 0.0
C1518 C 0.91875 0.47904 0.17553 0.0
C1519 C 0.94349 0.47938 0.17213 0.0
C1520 C 0.96728 0.50235 0.17447 0.0
C1521 C 0.99052 0.50248 0.17133 0.0
C1522 C 0.99021 0.47976 0.16572 0.0
C1523 C 0.96665 0.45687 0.1632 0.0
C1524 C 0.94335 0.45664 0.16634 0.0
C1525 C 0.84114 0.44984 0.10411 0.0
C1526 C 0.81754 0.4281 0.10924 0.0
C1527 C 0.86007 0.4626 0.12095 0.0
C1528 C 0.85533 0.45422 0.14325 0.0
C1529 C 0.83134 0.43291 0.14844 0.0
C1530 C 0.81251 0.42011 0.13158 0.0
C1531 C 0.87558 0.46738 0.16106 0.0
C1532 C 0.89969 0.46898 0.15835 0.0
C1533 C 0.8708 0.47706 0.18113 0.0
C1534 C 0.84602 0.47661 0.1848 0.0
C1535 C 0.83151 0.46512 0.20404 0.0
C1536 C 0.80804 0.46445 0.20743 0.0
C1537 C 0.79892 0.4753 0.19175 0.0
C1538 C 0.8133 0.48693 0.17267 0.0
C1539 C 0.83681 0.48769 0.16921 0.0
H1540 H 0.78073 0.47473 0.19439 0.0
H1541 H 0.00822 0.47989 0.16329 0.0
loop_
_geom_bond_atom_site_label_1
_geom_bond_atom_site_label_2
_geom_bond_distance
_geom_bond_site_symmetry_2
_ccdc_geom_bond_type
H0 C8 0.930 . S
H1 C11 0.930 . S
H2 C13 0.930 . S
H3 C14 0.970 . S
H4 C14 0.970 . S
H5 C16 0.930 . S
H6 C18 0.930 . S
H7 C20 0.930 . S
C8 H0 0.930 . S
C8 C9 1.382 . S
C8 C10 1.426 . S
C9 C8 1.382 . S
C9 C13 1.389 . S
C10 C8 1.426 . S
C10 C11 1.375 . S
C10 C14 1.532 1_655 S
C11 H1 0.930 . S
C11 C10 1.375 . S
C11 C12 1.416 . S
C12 C11 1.416 . S
C12 C13 1.371 . S
C13 H2 0.930 . S
C13 C9 1.389 . S
C13 C12 1.371 . S
C14 H3 0.970 . S
C14 H4 0.970 . S
C14 C10 1.532 1_455 S
C14 C15 1.499 . S
C15 C14 1.499 . S
C15 C16 1.370 . S
C15 C20 1.415 . S
C16 H5 0.930 . S
C16 C15 1.370 . S
C16 C17 1.407 . S
C17 C16 1.407 . S
C17 C18 1.365 . S
C18 H6 0.930 . S
C18 C17 1.365 . S
C18 C19 1.393 . S
C19 C18 1.393 . S
C19 C20 1.387 . S
C20 H7 0.930 . S
C20 C15 1.415 . S
C20 C19 1.387 . S
H21 C29 0.930 . S
H22 C32 0.930 . S
H23 C34 0.930 . S
H24 C35 0.970 . S
H25 C35 0.970 . S
H26 C37 0.930 . S
H27 C39 0.930 . S
H28 C41 0.930 . S
C29 H21 0.930 . S
C29 C30 1.382 . S
C29 C31 1.426 . S
C30 C29 1.382 . S
C30 C34 1.389 . S
C31 C29 1.426 . S
C31 C32 1.375 . S
C31 C35 1.532 1_565 S
C32 H22 0.930 . S
C32 C31 1.375 . S
C32 C33 1.416 . S
C33 C32 1.416 . S
C33 C34 1.371 . S
C34 H23 0.930 . S
C34 C30 1.389 . S
C34 C33 1.371 . S
C35 H24 0.970 . S
C35 H25 0.970 . S
C35 C31 1.532 1_545 S
C35 C36 1.499 . S
C36 C35 1.499 . S
C36 C37 1.370 . S
C36 C41 1.415 . S
C37 H26 0.930 . S
C37 C36 1.370 . S
C37 C38 1.407 . S
C38 C37 1.407 . S
C38 C39 1.365 . S
C39 H27 0.930 . S
C39 C38 1.365 . S
C39 C40 1.393 . S
C40 C39 1.393 . S
C40 C41 1.387 . S
C41 H28 0.930 . S
C41 C36 1.415 . S
C41 C40 1.387 . S
H42 C50 0.930 . S
H43 C53 0.930 . S
H44 C55 0.930 . S
H45 C56 0.970 . S
H46 C56 0.970 . S
H47 C58 0.930 . S
H48 C60 0.930 . S
H49 C62 0.930 . S
C50 H42 0.930 . S
C50 C51 1.382 . S
C50 C52 1.426 . S
C51 C50 1.382 . S
C51 C55 1.389 . S
C52 C50 1.426 . S
C52 C53 1.375 . S
C52 C56 1.532 . S
C53 H43 0.930 . S
C53 C52 1.375 . S
C53 C54 1.416 . S
C54 C53 1.416 . S
C54 C55 1.371 . S
C55 H44 0.930 . S
C55 C51 1.389 . S
C55 C54 1.371 . S
C56 H45 0.970 . S
C56 H46 0.970 . S
C56 C52 1.532 . S
C56 C57 1.499 . S
C57 C56 1.499 . S
C57 C58 1.370 . S
C57 C62 1.415 . S
C58 H47 0.930 . S
C58 C57 1.370 . S
C58 C59 1.407 . S
C59 C58 1.407 . S
C59 C60 1.365 . S
C60 H48 0.930 . S
C60 C59 1.365 . S
C60 C61 1.393 . S
C61 C60 1.393 . S
C61 C62 1.387 . S
C62 H49 0.930 . S
C62 C57 1.415 . S
C62 C61 1.387 . S
H63 C71 0.930 . S
H64 C74 0.930 . S
H65 C76 0.930 . S
H66 C77 0.970 . S
H67 C77 0.970 . S
H68 C79 0.930 . S
H69 C81 0.930 . S
H70 C83 0.930 . S
C71 H63 0.930 . S
C71 C72 1.382 . S
C71 C73 1.426 . S
C72 C71 1.382 . S
C72 C76 1.389 . S
C73 C71 1.426 . S
C73 C74 1.375 . S
C73 C77 1.532 1_655 S
C74 H64 0.930 . S
C74 C73 1.375 . S
C74 C75 1.416 . S
C75 C74 1.416 . S
C75 C76 1.371 . S
C76 H65 0.930 . S
C76 C72 1.389 . S
C76 C75 1.371 . S
C77 H66 0.970 . S
C77 H67 0.970 . S
C77 C73 1.532 1_455 S
C77 C78 1.499 . S
C78 C77 1.499 . S
C78 C79 1.370 . S
C78 C83 1.415 . S
C79 H68 0.930 . S
C79 C78 1.370 . S
C79 C80 1.407 . S
C80 C79 1.407 . S
C80 C81 1.365 . S
C81 H69 0.930 . S
C81 C80 1.365 . S
C81 C82 1.393 . S
C82 C81 1.393 . S
C82 C83 1.387 . S
C83 H70 0.930 . S
C83 C78 1.415 . S
C83 C82 1.387 . S
H84 C92 0.930 . S
H85 C95 0.930 . S
H86 C97 0.930 . S
H87 C98 0.970 1_554 S
H88 C98 0.970 . S
H89 C100 0.930 1_545 S
H90 C102 0.930 . S
H91 C104 0.930 . S
C92 H84 0.930 . S
C92 C93 1.382 1_554 S
C92 C94 1.426 1_554 S
C93 C92 1.382 1_556 S
C93 C97 1.389 . S
C94 C92 1.426 1_556 S
C94 C95 1.375 . S
C94 C98 1.532 . S
C95 H85 0.930 . S
C95 C94 1.375 . S
C95 C96 1.416 . S
C96 C95 1.416 . S
C96 C97 1.371 . S
C97 H86 0.930 . S
C97 C93 1.389 . S
C97 C96 1.371 . S
C98 H87 0.970 1_556 S
C98 H88 0.970 . S
C98 C94 1.532 . S
C98 C99 1.499 1_545 S
C99 C98 1.499 1_565 S
C99 C100 1.370 1_556 S
C99 C104 1.415 . S
C100 H89 0.930 1_565 S
C100 C99 1.370 1_554 S
C100 C101 1.407 . S
C101 C100 1.407 . S
C101 C102 1.365 . S
C102 H90 0.930 . S
C102 C101 1.365 . S
C102 C103 1.393 1_554 S
C103 C102 1.393 1_556 S
C103 C104 1.387 . S
C104 H91 0.930 . S
C104 C99 1.415 . S
C104 C103 1.387 . S
H105 C113 0.930 . S
H106 C116 0.930 . S
H107 C118 0.930 . S
H108 C119 0.970 . S
H109 C119 0.970 . S
H110 C121 0.930 . S
H111 C123 0.930 . S
H112 C125 0.930 . S
C113 H105 0.930 . S
C113 C114 1.382 . S
C113 C115 1.426 . S
C114 C113 1.382 . S
C114 C118 1.389 . S
C115 C113 1.426 . S
C115 C116 1.375 . S
C115 C119 1.532 . S
C116 H106 0.930 . S
C116 C115 1.375 . S
C116 C117 1.416 . S
C117 C116 1.416 . S
C117 C118 1.371 . S
C118 H107 0.930 . S
C118 C114 1.389 . S
C118 C117 1.371 . S
C119 H108 0.970 . S
C119 H109 0.970 . S
C119 C115 1.532 . S
C119 C120 1.499 . S
C120 C119 1.499 . S
C120 C121 1.370 . S
C120 C125 1.415 . S
C121 H110 0.930 . S
C121 C120 1.370 . S
C121 C122 1.407 . S
C122 C121 1.407 . S
C122 C123 1.365 . S
C123 H111 0.930 . S
C123 C122 1.365 . S
C123 C124 1.393 . S
C124 C123 1.393 . S
C124 C125 1.387 . S
C125 H112 0.930 . S
C125 C120 1.415 . S
C125 C124 1.387 . S
Mn126 O131 2.095 . S
Mn126 O141 2.162 . S
Mn126 O142 2.297 . S
Mn126 O150 2.385 . S
Mn126 O151 2.209 . S
Mn126 O152 2.094 . S
Mn127 O132 2.121 . S
Mn127 N134 2.257 . S
Mn127 N143 2.282 . S
Mn127 O151 2.215 . S
Mn127 O153 2.117 . S
C128 O150 1.234 . S
C128 O151 1.283 . S
C129 O141 1.281 . S
C129 O142 1.236 . S
C130 O152 1.240 . S
C130 O153 1.264 . S
O131 Mn126 2.095 . S
O131 C140 1.250 . S
O132 Mn127 2.121 . S
O132 C140 1.258 . S
C133 N134 1.326 . S
C133 C137 1.460 . S
C133 H139 0.929 . S
N134 Mn127 2.257 . S
N134 C133 1.326 . S
N134 C138 1.362 . S
C135 C136 1.258 . S
C135 C138 1.431 . S
C135 C155 1.449 . S
C136 C135 1.258 . S
C136 C137 1.477 . S
C136 H156 0.931 . S
C137 C133 1.460 . S
C137 C136 1.477 . S
C137 H157 0.930 . S
C138 N134 1.362 . S
C138 C135 1.431 . S
C138 C148 1.476 . S
H139 C133 0.929 . S
C140 O131 1.250 . S
C140 O132 1.258 . S
O141 Mn126 2.162 . S
O141 C129 1.281 . S
O142 Mn126 2.297 . S
O142 C129 1.236 . S
N143 Mn127 2.282 . S
N143 C144 1.328 . S
N143 C148 1.318 . S
C144 N143 1.328 . S
C144 C145 1.457 . S
C144 H149 0.929 . S
C145 C144 1.457 . S
C145 C146 1.291 . S
C145 H158 0.931 . S
C146 C145 1.291 . S
C146 C147 1.373 . S
C146 H159 0.929 . S
C147 C146 1.373 . S
C147 C148 1.396 . S
C147 C154 1.403 . S
C148 C138 1.476 . S
C148 N143 1.318 . S
C148 C147 1.396 . S
H149 C144 0.929 . S
O150 Mn126 2.385 . S
O150 C128 1.234 . S
O151 Mn126 2.209 . S
O151 Mn127 2.215 . S
O151 C128 1.283 . S
O152 Mn126 2.094 . S
O152 C130 1.240 . S
O153 Mn127 2.117 . S
O153 C130 1.264 . S
C154 C147 1.403 . S
C154 C155 1.399 . S
C154 H160 0.929 . S
C155 C135 1.449 . S
C155 C154 1.399 . S
C155 H161 0.930 . S
H156 C136 0.931 . S
H157 C137 0.930 . S
H158 C145 0.931 . S
H159 C146 0.929 . S
H160 C154 0.929 . S
H161 C155 0.930 . S
Mn162 O167 2.095 . S
Mn162 O177 2.162 . S
Mn162 O178 2.297 . S
Mn162 O186 2.385 . S
Mn162 O187 2.209 . S
Mn162 O188 2.094 . S
Mn163 O168 2.121 . S
Mn163 N170 2.257 . S
Mn163 N179 2.282 . S
Mn163 O187 2.215 . S
Mn163 O189 2.117 . S
C164 O186 1.234 . S
C164 O187 1.283 . S
C165 O177 1.281 . S
C165 O178 1.236 . S
C166 O188 1.240 . S
C166 O189 1.264 . S
O167 Mn162 2.095 . S
O167 C176 1.250 . S
O168 Mn163 2.121 . S
O168 C176 1.258 . S
C169 N170 1.326 . S
C169 C173 1.460 . S
C169 H175 0.929 . S
N170 Mn163 2.257 . S
N170 C169 1.326 . S
N170 C174 1.362 . S
C171 C172 1.258 . S
C171 C174 1.431 . S
C171 C191 1.449 . S
C172 C171 1.258 . S
C172 C173 1.477 . S
C172 H192 0.931 . S
C173 C169 1.460 . S
C173 C172 1.477 . S
C173 H193 0.930 . S
C174 N170 1.362 . S
C174 C171 1.431 . S
C174 C184 1.476 . S
H175 C169 0.929 . S
C176 O167 1.250 . S
C176 O168 1.258 . S
O177 Mn162 2.162 . S
O177 C165 1.281 . S
O178 Mn162 2.297 . S
O178 C165 1.236 . S
N179 Mn163 2.282 . S
N179 C180 1.328 . S
N179 C184 1.318 . S
C180 N179 1.328 . S
C180 C181 1.457 . S
C180 H185 0.929 . S
C181 C180 1.457 . S
C181 C182 1.291 . S
C181 H194 0.931 . S
C182 C181 1.291 . S
C182 C183 1.373 . S
C182 H195 0.929 . S
C183 C182 1.373 . S
C183 C184 1.396 . S
C183 C190 1.403 . S
C184 C174 1.476 . S
C184 N179 1.318 . S
C184 C183 1.396 . S
H185 C180 0.929 . S
O186 Mn162 2.385 . S
O186 C164 1.234 . S
O187 Mn162 2.209 . S
O187 Mn163 2.215 . S
O187 C164 1.283 . S
O188 Mn162 2.094 . S
O188 C166 1.240 . S
O189 Mn163 2.117 . S
O189 C166 1.264 . S
C190 C183 1.403 . S
C190 C191 1.399 . S
C190 H196 0.929 . S
C191 C171 1.449 . S
C191 C190 1.399 . S
C191 H197 0.930 . S
H192 C172 0.931 . S
H193 C173 0.930 . S
H194 C181 0.931 . S
H195 C182 0.929 . S
H196 C190 0.929 . S
H197 C191 0.930 . S
Mn198 O203 2.095 . S
Mn198 O213 2.162 . S
Mn198 O214 2.297 . S
Mn198 O222 2.385 . S
Mn198 O223 2.209 . S
Mn198 O224 2.094 . S
Mn199 O204 2.121 . S
Mn199 N206 2.257 . S
Mn199 N215 2.282 . S
Mn199 O223 2.215 . S
Mn199 O225 2.117 . S
C200 O222 1.234 . S
C200 O223 1.283 . S
C201 O213 1.281 . S
C201 O214 1.236 . S
C202 O224 1.240 . S
C202 O225 1.264 . S
O203 Mn198 2.095 . S
O203 C212 1.250 . S
O204 Mn199 2.121 . S
O204 C212 1.258 . S
C205 N206 1.326 . S
C205 C209 1.460 . S
C205 H211 0.929 . S
N206 Mn199 2.257 . S
N206 C205 1.326 . S
N206 C210 1.362 . S
C207 C208 1.258 . S
C207 C210 1.431 . S
C207 C227 1.449 . S
C208 C207 1.258 . S
C208 C209 1.477 . S
C208 H228 0.931 . S
C209 C205 1.460 . S
C209 C208 1.477 . S
C209 H229 0.930 . S
C210 N206 1.362 . S
C210 C207 1.431 . S
C210 C220 1.476 . S
H211 C205 0.929 . S
C212 O203 1.250 . S
C212 O204 1.258 . S
O213 Mn198 2.162 . S
O213 C201 1.281 . S
O214 Mn198 2.297 . S
O214 C201 1.236 . S
N215 Mn199 2.282 . S
N215 C216 1.328 . S
N215 C220 1.318 . S
C216 N215 1.328 . S
C216 C217 1.457 . S
C216 H221 0.929 . S
C217 C216 1.457 . S
C217 C218 1.291 . S
C217 H230 0.931 . S
C218 C217 1.291 . S
C218 C219 1.373 . S
C218 H231 0.929 . S
C219 C218 1.373 . S
C219 C220 1.396 . S
C219 C226 1.403 . S
C220 C210 1.476 . S
C220 N215 1.318 . S
C220 C219 1.396 . S
H221 C216 0.929 . S
O222 Mn198 2.385 . S
O222 C200 1.234 . S
O223 Mn198 2.209 . S
O223 Mn199 2.215 . S
O223 C200 1.283 . S
O224 Mn198 2.094 . S
O224 C202 1.240 . S
O225 Mn199 2.117 . S
O225 C202 1.264 . S
C226 C219 1.403 . S
C226 C227 1.399 . S
C226 H232 0.929 . S
C227 C207 1.449 . S
C227 C226 1.399 . S
C227 H233 0.930 . S
H228 C208 0.931 . S
H229 C209 0.930 . S
H230 C217 0.931 . S
H231 C218 0.929 . S
H232 C226 0.929 . S
H233 C227 0.930 . S
Mn234 O239 2.095 . S
Mn234 O249 2.162 . S
Mn234 O250 2.297 . S
Mn234 O258 2.385 . S
Mn234 O259 2.209 . S
Mn234 O260 2.094 . S
Mn235 O240 2.121 . S
Mn235 N242 2.257 . S
Mn235 N251 2.282 . S
Mn235 O259 2.215 . S
Mn235 O261 2.117 . S
C236 O258 1.234 . S
C236 O259 1.283 . S
C237 O249 1.281 . S
C237 O250 1.236 . S
C238 O260 1.240 . S
C238 O261 1.264 . S
O239 Mn234 2.095 . S
O239 C248 1.250 . S
O240 Mn235 2.121 . S
O240 C248 1.258 . S
C241 N242 1.326 . S
C241 C245 1.460 . S
C241 H247 0.929 . S
N242 Mn235 2.257 . S
N242 C241 1.326 . S
N242 C246 1.362 . S
C243 C244 1.258 . S
C243 C246 1.431 . S
C243 C263 1.449 . S
C244 C243 1.258 . S
C244 C245 1.477 . S
C244 H264 0.931 . S
C245 C241 1.460 . S
C245 C244 1.477 . S
C245 H265 0.930 . S
C246 N242 1.362 . S
C246 C243 1.431 . S
C246 C256 1.476 . S
H247 C241 0.929 . S
C248 O239 1.250 . S
C248 O240 1.258 . S
O249 Mn234 2.162 . S
O249 C237 1.281 . S
O250 Mn234 2.297 . S
O250 C237 1.236 . S
N251 Mn235 2.282 . S
N251 C252 1.328 . S
N251 C256 1.318 . S
C252 N251 1.328 . S
C252 C253 1.457 . S
C252 H257 0.929 . S
C253 C252 1.457 . S
C253 C254 1.291 . S
C253 H266 0.931 . S
C254 C253 1.291 . S
C254 C255 1.373 . S
C254 H267 0.929 . S
C255 C254 1.373 . S
C255 C256 1.396 . S
C255 C262 1.403 . S
C256 C246 1.476 . S
C256 N251 1.318 . S
C256 C255 1.396 . S
H257 C252 0.929 . S
O258 Mn234 2.385 . S
O258 C236 1.234 . S
O259 Mn234 2.209 . S
O259 Mn235 2.215 . S
O259 C236 1.283 . S
O260 Mn234 2.094 . S
O260 C238 1.240 . S
O261 Mn235 2.117 . S
O261 C238 1.264 . S
C262 C255 1.403 . S
C262 C263 1.399 . S
C262 H268 0.929 . S
C263 C243 1.449 . S
C263 C262 1.399 . S
C263 H269 0.930 . S
H264 C244 0.931 . S
H265 C245 0.930 . S
H266 C253 0.931 . S
H267 C254 0.929 . S
H268 C262 0.929 . S
H269 C263 0.930 . S
Mn270 O275 2.095 . S
Mn270 O285 2.162 . S
Mn270 O286 2.297 . S
Mn270 O294 2.385 . S
Mn270 O295 2.209 . S
Mn270 O296 2.094 . S
Mn271 O276 2.121 . S
Mn271 N278 2.257 . S
Mn271 N287 2.282 . S
Mn271 O295 2.215 . S
Mn271 O297 2.117 . S
C272 O294 1.234 . S
C272 O295 1.283 . S
C273 O285 1.281 . S
C273 O286 1.236 . S
C274 O296 1.240 . S
C274 O297 1.264 . S
O275 Mn270 2.095 . S
O275 C284 1.250 . S
O276 Mn271 2.121 . S
O276 C284 1.258 . S
C277 N278 1.326 . S
C277 C281 1.460 . S
C277 H283 0.929 . S
N278 Mn271 2.257 . S
N278 C277 1.326 . S
N278 C282 1.362 . S
C279 C280 1.258 . S
C279 C282 1.431 . S
C279 C299 1.449 . S
C280 C279 1.258 . S
C280 C281 1.477 . S
C280 H300 0.931 . S
C281 C277 1.460 . S
C281 C280 1.477 . S
C281 H301 0.930 . S
C282 N278 1.362 . S
C282 C279 1.431 . S
C282 C292 1.476 . S
H283 C277 0.929 . S
C284 O275 1.250 . S
C284 O276 1.258 . S
O285 Mn270 2.162 . S
O285 C273 1.281 . S
O286 Mn270 2.297 . S
O286 C273 1.236 . S
N287 Mn271 2.282 . S
N287 C288 1.328 . S
N287 C292 1.318 . S
C288 N287 1.328 . S
C288 C289 1.457 . S
C288 H293 0.929 . S
C289 C288 1.457 . S
C289 C290 1.291 . S
C289 H302 0.931 . S
C290 C289 1.291 . S
C290 C291 1.373 . S
C290 H303 0.929 . S
C291 C290 1.373 . S
C291 C292 1.396 . S
C291 C298 1.403 . S
C292 C282 1.476 . S
C292 N287 1.318 . S
C292 C291 1.396 . S
H293 C288 0.929 . S
O294 Mn270 2.385 . S
O294 C272 1.234 . S
O295 Mn270 2.209 . S
O295 Mn271 2.215 . S
O295 C272 1.283 . S
O296 Mn270 2.094 . S
O296 C274 1.240 . S
O297 Mn271 2.117 . S
O297 C274 1.264 . S
C298 C291 1.403 . S
C298 C299 1.399 . S
C298 H304 0.929 . S
C299 C279 1.449 . S
C299 C298 1.399 . S
C299 H305 0.930 . S
H300 C280 0.931 . S
H301 C281 0.930 . S
H302 C289 0.931 . S
H303 C290 0.929 . S
H304 C298 0.929 . S
H305 C299 0.930 . S
Mn306 O311 2.095 . S
Mn306 O321 2.162 . S
Mn306 O322 2.297 . S
Mn306 O330 2.385 . S
Mn306 O331 2.209 . S
Mn306 O332 2.094 . S
Mn307 O312 2.121 . S
Mn307 N314 2.257 . S
Mn307 N323 2.282 . S
Mn307 O331 2.215 . S
Mn307 O333 2.117 . S
C308 O330 1.234 . S
C308 O331 1.283 . S
C309 O321 1.281 . S
C309 O322 1.236 . S
C310 O332 1.240 . S
C310 O333 1.264 . S
O311 Mn306 2.095 . S
O311 C320 1.250 . S
O312 Mn307 2.121 . S
O312 C320 1.258 . S
C313 N314 1.326 . S
C313 C317 1.460 . S
C313 H319 0.929 . S
N314 Mn307 2.257 . S
N314 C313 1.326 . S
N314 C318 1.362 . S
C315 C316 1.258 . S
C315 C318 1.431 . S
C315 C335 1.449 . S
C316 C315 1.258 . S
C316 C317 1.477 . S
C316 H336 0.931 . S
C317 C313 1.460 . S
C317 C316 1.477 . S
C317 H337 0.930 . S
C318 N314 1.362 . S
C318 C315 1.431 . S
C318 C328 1.476 . S
H319 C313 0.929 . S
C320 O311 1.250 . S
C320 O312 1.258 . S
O321 Mn306 2.162 . S
O321 C309 1.281 . S
O322 Mn306 2.297 . S
O322 C309 1.236 . S
N323 Mn307 2.282 . S
N323 C324 1.328 . S
N323 C328 1.318 . S
C324 N323 1.328 . S
C324 C325 1.457 . S
C324 H329 0.929 . S
C325 C324 1.457 . S
C325 C326 1.291 . S
C325 H338 0.931 . S
C326 C325 1.291 . S
C326 C327 1.373 . S
C326 H339 0.929 . S
C327 C326 1.373 . S
C327 C328 1.396 . S
C327 C334 1.403 . S
C328 C318 1.476 . S
C328 N323 1.318 . S
C328 C327 1.396 . S
H329 C324 0.929 . S
O330 Mn306 2.385 . S
O330 C308 1.234 . S
O331 Mn306 2.209 . S
O331 Mn307 2.215 . S
O331 C308 1.283 . S
O332 Mn306 2.094 . S
O332 C310 1.240 . S
O333 Mn307 2.117 . S
O333 C310 1.264 . S
C334 C327 1.403 . S
C334 C335 1.399 . S
C334 H340 0.929 . S
C335 C315 1.449 . S
C335 C334 1.399 . S
C335 H341 0.930 . S
H336 C316 0.931 . S
H337 C317 0.930 . S
H338 C325 0.931 . S
H339 C326 0.929 . S
H340 C334 0.929 . S
H341 C335 0.930 . S
H342 C360 0.951 . S
H343 C362 0.951 . S
H344 C364 0.950 . S
H345 C365 0.950 . S
H346 C367 0.950 . S
H347 C370 0.950 . S
H348 C371 0.950 . S
H349 C373 0.950 . S
H350 C374 0.950 . S
H351 C375 0.951 . S
H352 C377 0.951 . S
H353 C379 0.950 . S
H354 C380 0.950 . S
H355 C382 0.950 . S
H356 C385 0.950 . S
H357 C386 0.950 . S
H358 C388 0.950 . S
H359 C389 0.950 . S
C360 H342 0.951 . S
C360 C361 1.366 . S
C360 C362 1.388 . S
C361 C360 1.366 . S
C361 C365 1.385 . S
C362 H343 0.951 . S
C362 C360 1.388 . S
C362 C363 1.366 . S
C363 C362 1.366 . S
C363 C364 1.414 . S
C363 C366 1.499 . S
C364 H344 0.950 . S
C364 C363 1.414 . S
C364 C365 1.374 . S
C365 H345 0.950 . S
C365 C361 1.385 . S
C365 C364 1.374 . S
C366 C363 1.499 . S
C366 C367 1.373 . S
C366 C368 1.389 . S
C367 H346 0.950 . S
C367 C366 1.373 . S
C367 C383 1.377 . S
C368 C366 1.389 . S
C368 C369 1.524 . S
C368 C382 1.377 . S
C369 C368 1.524 . S
C369 C370 1.397 . S
C369 C374 1.363 . S
C370 H347 0.950 . S
C370 C369 1.397 . S
C370 C371 1.334 . S
C371 H348 0.950 . S
C371 C370 1.334 . S
C371 C372 1.287 . S
C372 C371 1.287 . S
C372 C373 1.524 . S
C372 H391 0.913 . S
C373 H349 0.950 . S
C373 C372 1.524 . S
C373 C374 1.415 . S
C374 H350 0.950 . S
C374 C369 1.363 . S
C374 C373 1.415 . S
C375 H351 0.951 . S
C375 C376 1.366 . S
C375 C377 1.388 . S
C376 C375 1.366 . S
C376 C380 1.385 . S
C377 H352 0.951 . S
C377 C375 1.388 . S
C377 C378 1.366 . S
C378 C377 1.366 . S
C378 C379 1.414 . S
C378 C381 1.499 . S
C379 H353 0.950 . S
C379 C378 1.414 . S
C379 C380 1.374 . S
C380 H354 0.950 . S
C380 C376 1.385 . S
C380 C379 1.374 . S
C381 C378 1.499 . S
C381 C382 1.373 . S
C381 C383 1.389 . S
C382 H355 0.950 . S
C382 C368 1.377 . S
C382 C381 1.373 . S
C383 C367 1.377 . S
C383 C381 1.389 . S
C383 C384 1.524 . S
C384 C383 1.524 . S
C384 C385 1.397 . S
C384 C389 1.363 . S
C385 H356 0.950 . S
C385 C384 1.397 . S
C385 C386 1.334 . S
C386 H357 0.950 . S
C386 C385 1.334 . S
C386 C387 1.287 . S
C387 C386 1.287 . S
C387 C388 1.524 . S
C387 H390 0.999 . S
C388 H358 0.950 . S
C388 C387 1.524 . S
C388 C389 1.415 . S
C389 H359 0.950 . S
C389 C384 1.363 . S
C389 C388 1.415 . S
H390 C387 0.999 . S
H391 C372 0.913 . S
H392 C410 0.951 . S
H393 C412 0.951 . S
H394 C414 0.950 . S
H395 C415 0.950 . S
H396 C417 0.950 . S
H397 C420 0.950 . S
H398 C421 0.950 . S
H399 C423 0.950 . S
H400 C424 0.950 . S
H401 C425 0.951 . S
H402 C427 0.951 . S
H403 C429 0.950 . S
H404 C430 0.950 . S
H405 C432 0.950 . S
H406 C435 0.950 . S
H407 C436 0.950 . S
H408 C438 0.950 . S
H409 C439 0.950 . S
C410 H392 0.951 . S
C410 C411 1.366 . S
C410 C412 1.388 . S
C411 C410 1.366 . S
C411 C415 1.385 . S
C412 H393 0.951 . S
C412 C410 1.388 . S
C412 C413 1.366 . S
C413 C412 1.366 . S
C413 C414 1.414 . S
C413 C416 1.499 . S
C414 H394 0.950 . S
C414 C413 1.414 . S
C414 C415 1.374 . S
C415 H395 0.950 . S
C415 C411 1.385 . S
C415 C414 1.374 . S
C416 C413 1.499 . S
C416 C417 1.373 . S
C416 C418 1.389 . S
C417 H396 0.950 . S
C417 C416 1.373 . S
C417 C433 1.377 . S
C418 C416 1.389 . S
C418 C419 1.524 . S
C418 C432 1.377 . S
C419 C418 1.524 . S
C419 C420 1.397 . S
C419 C424 1.363 . S
C420 H397 0.950 . S
C420 C419 1.397 . S
C420 C421 1.334 . S
C421 H398 0.950 . S
C421 C420 1.334 . S
C421 C422 1.287 . S
C422 C421 1.287 . S
C422 C423 1.524 . S
C422 H441 0.913 . S
C423 H399 0.950 . S
C423 C422 1.524 . S
C423 C424 1.415 . S
C424 H400 0.950 . S
C424 C419 1.363 . S
C424 C423 1.415 . S
C425 H401 0.951 . S
C425 C426 1.366 . S
C425 C427 1.388 . S
C426 C425 1.366 . S
C426 C430 1.385 . S
C427 H402 0.951 . S
C427 C425 1.388 . S
C427 C428 1.366 . S
C428 C427 1.366 . S
C428 C429 1.414 . S
C428 C431 1.499 . S
C429 H403 0.950 . S
C429 C428 1.414 . S
C429 C430 1.374 . S
C430 H404 0.950 . S
C430 C426 1.385 . S
C430 C429 1.374 . S
C431 C428 1.499 . S
C431 C432 1.373 . S
C431 C433 1.389 . S
C432 H405 0.950 . S
C432 C418 1.377 . S
C432 C431 1.373 . S
C433 C417 1.377 . S
C433 C431 1.389 . S
C433 C434 1.524 . S
C434 C433 1.524 . S
C434 C435 1.397 . S
C434 C439 1.363 . S
C435 H406 0.950 . S
C435 C434 1.397 . S
C435 C436 1.334 . S
C436 H407 0.950 . S
C436 C435 1.334 . S
C436 C437 1.287 . S
C437 C436 1.287 . S
C437 C438 1.524 . S
C437 H440 0.999 . S
C438 H408 0.950 . S
C438 C437 1.524 . S
C438 C439 1.415 . S
C439 H409 0.950 . S
C439 C434 1.363 . S
C439 C438 1.415 . S
H440 C437 0.999 . S
H441 C422 0.913 . S
H442 C460 0.951 . S
H443 C462 0.951 . S
H444 C464 0.950 . S
H445 C465 0.950 . S
H446 C467 0.950 . S
H447 C470 0.950 . S
H448 C471 0.950 . S
H449 C473 0.950 . S
H450 C474 0.950 . S
H451 C475 0.951 . S
H452 C477 0.951 . S
H453 C479 0.950 . S
H454 C480 0.950 . S
H455 C482 0.950 . S
H456 C485 0.950 . S
H457 C486 0.950 . S
H458 C488 0.950 . S
H459 C489 0.950 . S
C460 H442 0.951 . S
C460 C461 1.366 . S
C460 C462 1.388 . S
C461 C460 1.366 . S
C461 C465 1.385 . S
C462 H443 0.951 . S
C462 C460 1.388 . S
C462 C463 1.366 . S
C463 C462 1.366 . S
C463 C464 1.414 . S
C463 C466 1.499 . S
C464 H444 0.950 . S
C464 C463 1.414 . S
C464 C465 1.374 . S
C465 H445 0.950 . S
C465 C461 1.385 . S
C465 C464 1.374 . S
C466 C463 1.499 . S
C466 C467 1.373 . S
C466 C468 1.389 . S
C467 H446 0.950 . S
C467 C466 1.373 . S
C467 C483 1.377 . S
C468 C466 1.389 . S
C468 C469 1.524 . S
C468 C482 1.377 . S
C469 C468 1.524 . S
C469 C470 1.397 . S
C469 C474 1.363 . S
C470 H447 0.950 . S
C470 C469 1.397 . S
C470 C471 1.334 . S
C471 H448 0.950 . S
C471 C470 1.334 . S
C471 C472 1.287 . S
C472 C471 1.287 . S
C472 C473 1.524 . S
C472 H491 0.913 . S
C473 H449 0.950 . S
C473 C472 1.524 . S
C473 C474 1.415 . S
C474 H450 0.950 . S
C474 C469 1.363 . S
C474 C473 1.415 . S
C475 H451 0.951 . S
C475 C476 1.366 . S
C475 C477 1.388 . S
C476 C475 1.366 . S
C476 C480 1.385 . S
C477 H452 0.951 . S
C477 C475 1.388 . S
C477 C478 1.366 . S
C478 C477 1.366 . S
C478 C479 1.414 . S
C478 C481 1.499 . S
C479 H453 0.950 . S
C479 C478 1.414 . S
C479 C480 1.374 . S
C480 H454 0.950 . S
C480 C476 1.385 . S
C480 C479 1.374 . S
C481 C478 1.499 . S
C481 C482 1.373 . S
C481 C483 1.389 . S
C482 H455 0.950 . S
C482 C468 1.377 . S
C482 C481 1.373 . S
C483 C467 1.377 . S
C483 C481 1.389 . S
C483 C484 1.524 . S
C484 C483 1.524 . S
C484 C485 1.397 . S
C484 C489 1.363 . S
C485 H456 0.950 . S
C485 C484 1.397 . S
C485 C486 1.334 . S
C486 H457 0.950 . S
C486 C485 1.334 . S
C486 C487 1.287 . S
C487 C486 1.287 . S
C487 C488 1.524 . S
C487 H490 0.999 . S
C488 H458 0.950 . S
C488 C487 1.524 . S
C488 C489 1.415 . S
C489 H459 0.950 . S
C489 C484 1.363 . S
C489 C488 1.415 . S
H490 C487 0.999 . S
H491 C472 0.913 . S
H492 C510 0.951 . S
H493 C512 0.951 . S
H494 C514 0.950 . S
H495 C515 0.950 . S
H496 C517 0.950 . S
H497 C520 0.950 . S
H498 C521 0.950 . S
H499 C523 0.950 . S
H500 C524 0.950 . S
H501 C525 0.951 . S
H502 C527 0.951 . S
H503 C529 0.950 . S
H504 C530 0.950 . S
H505 C532 0.950 . S
H506 C535 0.950 . S
H507 C536 0.950 . S
H508 C538 0.950 . S
H509 C539 0.950 . S
C510 H492 0.951 . S
C510 C511 1.366 . S
C510 C512 1.388 . S
C511 C510 1.366 . S
C511 C515 1.385 . S
C512 H493 0.951 . S
C512 C510 1.388 . S
C512 C513 1.366 . S
C513 C512 1.366 . S
C513 C514 1.414 . S
C513 C516 1.499 . S
C514 H494 0.950 . S
C514 C513 1.414 . S
C514 C515 1.374 . S
C515 H495 0.950 . S
C515 C511 1.385 . S
C515 C514 1.374 . S
C516 C513 1.499 . S
C516 C517 1.373 . S
C516 C518 1.389 . S
C517 H496 0.950 . S
C517 C516 1.373 . S
C517 C533 1.377 . S
C518 C516 1.389 . S
C518 C519 1.524 . S
C518 C532 1.377 . S
C519 C518 1.524 . S
C519 C520 1.397 . S
C519 C524 1.363 . S
C520 H497 0.950 . S
C520 C519 1.397 . S
C520 C521 1.334 . S
C521 H498 0.950 . S
C521 C520 1.334 . S
C521 C522 1.287 . S
C522 C521 1.287 . S
C522 C523 1.524 . S
C522 H541 0.913 . S
C523 H499 0.950 . S
C523 C522 1.524 . S
C523 C524 1.415 . S
C524 H500 0.950 . S
C524 C519 1.363 . S
C524 C523 1.415 . S
C525 H501 0.951 . S
C525 C526 1.366 . S
C525 C527 1.388 . S
C526 C525 1.366 . S
C526 C530 1.385 . S
C527 H502 0.951 . S
C527 C525 1.388 . S
C527 C528 1.366 . S
C528 C527 1.366 . S
C528 C529 1.414 . S
C528 C531 1.499 . S
C529 H503 0.950 . S
C529 C528 1.414 . S
C529 C530 1.374 . S
C530 H504 0.950 . S
C530 C526 1.385 . S
C530 C529 1.374 . S
C531 C528 1.499 . S
C531 C532 1.373 . S
C531 C533 1.389 . S
C532 H505 0.950 . S
C532 C518 1.377 . S
C532 C531 1.373 . S
C533 C517 1.377 . S
C533 C531 1.389 . S
C533 C534 1.524 . S
C534 C533 1.524 . S
C534 C535 1.397 . S
C534 C539 1.363 . S
C535 H506 0.950 . S
C535 C534 1.397 . S
C535 C536 1.334 . S
C536 H507 0.950 . S
C536 C535 1.334 . S
C536 C537 1.287 . S
C537 C536 1.287 . S
C537 C538 1.524 . S
C537 H540 0.999 . S
C538 H508 0.950 . S
C538 C537 1.524 . S
C538 C539 1.415 . S
C539 H509 0.950 . S
C539 C534 1.363 . S
C539 C538 1.415 . S
H540 C537 0.999 . S
H541 C522 0.913 . S
H542 C560 0.951 . S
H543 C562 0.951 . S
H544 C564 0.950 . S
H545 C565 0.950 1_554 S
H546 C567 0.950 . S
H547 C570 0.950 . S
H548 C571 0.950 . S
H549 C573 0.950 . S
H550 C574 0.950 . S
H551 C575 0.951 . S
H552 C577 0.951 . S
H553 C579 0.950 . S
H554 C580 0.950 . S
H555 C582 0.950 . S
H556 C585 0.950 . S
H557 C586 0.950 . S
H558 C588 0.950 . S
H559 C589 0.927 1_554 S
C560 H542 0.951 . S
C560 C561 1.366 . S
C560 C562 1.388 . S
C561 C560 1.366 . S
C561 C565 1.385 . S
C562 H543 0.951 . S
C562 C560 1.388 . S
C562 C563 1.366 . S
C563 C562 1.366 . S
C563 C564 1.414 . S
C563 C566 1.499 . S
C564 H544 0.950 . S
C564 C563 1.414 . S
C564 C565 1.374 . S
C565 H545 0.950 1_556 S
C565 C561 1.385 . S
C565 C564 1.374 . S
C566 C563 1.499 . S
C566 C567 1.373 . S
C566 C568 1.389 . S
C567 H546 0.950 . S
C567 C566 1.373 . S
C567 C583 1.377 . S
C568 C566 1.389 . S
C568 C569 1.524 . S
C568 C582 1.377 . S
C569 C568 1.524 . S
C569 C570 1.397 . S
C569 C574 1.363 . S
C570 H547 0.950 . S
C570 C569 1.397 . S
C570 C571 1.334 . S
C571 H548 0.950 . S
C571 C570 1.334 . S
C571 C572 1.287 . S
C572 C571 1.287 . S
C572 C573 1.524 . S
C572 H591 0.913 . S
C573 H549 0.950 . S
C573 C572 1.524 . S
C573 C574 1.415 . S
C574 H550 0.950 . S
C574 C569 1.363 . S
C574 C573 1.415 . S
C575 H551 0.951 . S
C575 C576 1.366 . S
C575 C577 1.388 . S
C576 C575 1.366 . S
C576 C580 1.385 . S
C577 H552 0.951 . S
C577 C575 1.388 . S
C577 C578 1.366 . S
C578 C577 1.366 . S
C578 C579 1.414 . S
C578 C581 1.499 . S
C579 H553 0.950 . S
C579 C578 1.414 . S
C579 C580 1.374 . S
C580 H554 0.950 . S
C580 C576 1.385 . S
C580 C579 1.374 . S
C581 C578 1.499 . S
C581 C582 1.373 . S
C581 C583 1.389 . S
C582 H555 0.950 . S
C582 C568 1.377 . S
C582 C581 1.373 . S
C583 C567 1.377 . S
C583 C581 1.389 . S
C583 C584 1.524 . S
C584 C583 1.524 . S
C584 C585 1.397 . S
C584 C589 1.363 . S
C585 H556 0.950 . S
C585 C584 1.397 . S
C585 C586 1.334 . S
C586 H557 0.950 . S
C586 C585 1.334 . S
C586 C587 1.287 . S
C587 C586 1.287 . S
C587 C588 1.524 1_556 S
C587 H590 0.999 . S
C588 H558 0.950 . S
C588 C587 1.524 1_554 S
C588 C589 1.415 1_554 S
C589 H559 0.927 1_556 S
C589 C584 1.363 . S
C589 C588 1.415 1_556 S
H590 C587 0.999 . S
H591 C572 0.913 . S
H592 C610 0.951 . S
H593 C612 0.951 . S
H594 C614 0.950 . S
H595 C615 0.950 . S
H596 C617 0.950 . S
H597 C620 0.950 . S
H598 C621 0.950 . S
H599 C623 0.950 . S
H600 C624 0.950 . S
H601 C625 0.951 . S
H602 C627 0.951 . S
H603 C629 0.950 . S
H604 C630 0.950 . S
H605 C632 0.950 . S
H606 C635 0.950 . S
H607 C636 0.950 . S
H608 C638 0.950 . S
H609 C639 0.950 . S
C610 H592 0.951 . S
C610 C611 1.366 . S
C610 C612 1.388 . S
C611 C610 1.366 . S
C611 C615 1.385 . S
C612 H593 0.951 . S
C612 C610 1.388 . S
C612 C613 1.366 . S
C613 C612 1.366 . S
C613 C614 1.414 . S
C613 C616 1.499 . S
C614 H594 0.950 . S
C614 C613 1.414 . S
C614 C615 1.374 . S
C615 H595 0.950 . S
C615 C611 1.385 . S
C615 C614 1.374 . S
C616 C613 1.499 . S
C616 C617 1.373 . S
C616 C618 1.389 . S
C617 H596 0.950 . S
C617 C616 1.373 . S
C617 C633 1.377 . S
C618 C616 1.389 . S
C618 C619 1.524 . S
C618 C632 1.377 . S
C619 C618 1.524 . S
C619 C620 1.397 . S
C619 C624 1.363 . S
C620 H597 0.950 . S
C620 C619 1.397 . S
C620 C621 1.334 . S
C621 H598 0.950 . S
C621 C620 1.334 . S
C621 C622 1.287 . S
C622 C621 1.287 . S
C622 C623 1.524 . S
C622 H641 0.913 . S
C623 H599 0.950 . S
C623 C622 1.524 . S
C623 C624 1.415 . S
C624 H600 0.950 . S
C624 C619 1.363 . S
C624 C623 1.415 . S
C625 H601 0.951 . S
C625 C626 1.366 . S
C625 C627 1.388 . S
C626 C625 1.366 . S
C626 C630 1.385 . S
C627 H602 0.951 . S
C627 C625 1.388 . S
C627 C628 1.366 . S
C628 C627 1.366 . S
C628 C629 1.414 . S
C628 C631 1.499 . S
C629 H603 0.950 . S
C629 C628 1.414 . S
C629 C630 1.374 . S
C630 H604 0.950 . S
C630 C626 1.385 . S
C630 C629 1.374 . S
C631 C628 1.499 . S
C631 C632 1.373 . S
C631 C633 1.389 . S
C632 H605 0.950 . S
C632 C618 1.377 . S
C632 C631 1.373 . S
C633 C617 1.377 . S
C633 C631 1.389 . S
C633 C634 1.524 . S
C634 C633 1.524 . S
C634 C635 1.397 . S
C634 C639 1.363 . S
C635 H606 0.950 . S
C635 C634 1.397 . S
C635 C636 1.334 . S
C636 H607 0.950 . S
C636 C635 1.334 . S
C636 C637 1.287 . S
C637 C636 1.287 . S
C637 C638 1.524 . S
C637 H640 0.999 . S
C638 H608 0.950 . S
C638 C637 1.524 . S
C638 C639 1.415 . S
C639 H609 0.950 . S
C639 C634 1.363 . S
C639 C638 1.415 . S
H640 C637 0.999 . S
H641 C622 0.913 . S
H642 C660 0.951 . S
H643 C662 0.951 . S
H644 C664 0.950 . S
H645 C665 0.950 . S
H646 C667 0.950 . S
H647 C670 0.950 . S
H648 C671 0.950 . S
H649 C673 0.950 . S
H650 C674 0.950 . S
H651 C675 0.951 . S
H652 C677 0.951 . S
H653 C679 0.950 . S
H654 C680 0.950 . S
H655 C682 0.950 . S
H656 C685 0.950 . S
H657 C686 0.950 . S
H658 C688 0.950 . S
H659 C689 0.950 . S
C660 H642 0.951 . S
C660 C661 1.366 . S
C660 C662 1.388 . S
C661 C660 1.366 . S
C661 C665 1.385 . S
C662 H643 0.951 . S
C662 C660 1.388 . S
C662 C663 1.366 . S
C663 C662 1.366 . S
C663 C664 1.414 . S
C663 C666 1.499 . S
C664 H644 0.950 . S
C664 C663 1.414 . S
C664 C665 1.374 . S
C665 H645 0.950 . S
C665 C661 1.385 . S
C665 C664 1.374 . S
C666 C663 1.499 . S
C666 C667 1.373 . S
C666 C668 1.389 . S
C667 H646 0.950 . S
C667 C666 1.373 . S
C667 C683 1.377 . S
C668 C666 1.389 . S
C668 C669 1.524 . S
C668 C682 1.377 . S
C669 C668 1.524 . S
C669 C670 1.397 . S
C669 C674 1.363 . S
C670 H647 0.950 . S
C670 C669 1.397 . S
C670 C671 1.334 . S
C671 H648 0.950 . S
C671 C670 1.334 . S
C671 C672 1.287 . S
C672 C671 1.287 . S
C672 C673 1.524 . S
C672 H691 0.913 . S
C673 H649 0.950 . S
C673 C672 1.524 . S
C673 C674 1.415 . S
C674 H650 0.950 . S
C674 C669 1.363 . S
C674 C673 1.415 . S
C675 H651 0.951 . S
C675 C676 1.366 . S
C675 C677 1.388 . S
C676 C675 1.366 . S
C676 C680 1.385 . S
C677 H652 0.951 . S
C677 C675 1.388 . S
C677 C678 1.366 . S
C678 C677 1.366 . S
C678 C679 1.414 . S
C678 C681 1.499 . S
C679 H653 0.950 . S
C679 C678 1.414 . S
C679 C680 1.374 . S
C680 H654 0.950 . S
C680 C676 1.385 . S
C680 C679 1.374 . S
C681 C678 1.499 . S
C681 C682 1.373 . S
C681 C683 1.389 . S
C682 H655 0.950 . S
C682 C668 1.377 . S
C682 C681 1.373 . S
C683 C667 1.377 . S
C683 C681 1.389 . S
C683 C684 1.524 . S
C684 C683 1.524 . S
C684 C685 1.397 . S
C684 C689 1.363 . S
C685 H656 0.950 . S
C685 C684 1.397 . S
C685 C686 1.334 . S
C686 H657 0.950 . S
C686 C685 1.334 . S
C686 C687 1.287 . S
C687 C686 1.287 . S
C687 C688 1.524 . S
C687 H690 0.999 . S
C688 H658 0.950 . S
C688 C687 1.524 . S
C688 C689 1.415 . S
C689 H659 0.950 . S
C689 C684 1.363 . S
C689 C688 1.415 . S
H690 C687 0.999 . S
H691 C672 0.913 . S
H692 C710 0.951 . S
H693 C712 0.951 . S
H694 C714 0.950 . S
H695 C715 0.950 . S
H696 C717 0.950 . S
H697 C720 0.950 . S
H698 C721 0.950 . S
H699 C723 0.950 . S
H700 C724 0.950 . S
H701 C725 0.951 . S
H702 C727 0.951 . S
H703 C729 0.950 . S
H704 C730 0.950 . S
H705 C732 0.950 . S
H706 C735 0.950 . S
H707 C736 0.950 . S
H708 C738 0.950 . S
H709 C739 0.950 . S
C710 H692 0.951 . S
C710 C711 1.366 . S
C710 C712 1.388 . S
C711 C710 1.366 . S
C711 C715 1.385 . S
C712 H693 0.951 . S
C712 C710 1.388 . S
C712 C713 1.366 . S
C713 C712 1.366 . S
C713 C714 1.414 . S
C713 C716 1.499 . S
C714 H694 0.950 . S
C714 C713 1.414 . S
C714 C715 1.374 . S
C715 H695 0.950 . S
C715 C711 1.385 . S
C715 C714 1.374 . S
C716 C713 1.499 . S
C716 C717 1.373 . S
C716 C718 1.389 . S
C717 H696 0.950 . S
C717 C716 1.373 . S
C717 C733 1.377 . S
C718 C716 1.389 . S
C718 C719 1.524 . S
C718 C732 1.377 . S
C719 C718 1.524 . S
C719 C720 1.397 . S
C719 C724 1.363 . S
C720 H697 0.950 . S
C720 C719 1.397 . S
C720 C721 1.334 . S
C721 H698 0.950 . S
C721 C720 1.334 . S
C721 C722 1.287 . S
C722 C721 1.287 . S
C722 C723 1.524 . S
C722 H741 0.913 . S
C723 H699 0.950 . S
C723 C722 1.524 . S
C723 C724 1.415 . S
C724 H700 0.950 . S
C724 C719 1.363 . S
C724 C723 1.415 . S
C725 H701 0.951 . S
C725 C726 1.366 . S
C725 C727 1.388 . S
C726 C725 1.366 . S
C726 C730 1.385 . S
C727 H702 0.951 . S
C727 C725 1.388 . S
C727 C728 1.366 . S
C728 C727 1.366 . S
C728 C729 1.414 . S
C728 C731 1.499 . S
C729 H703 0.950 . S
C729 C728 1.414 . S
C729 C730 1.374 . S
C730 H704 0.950 . S
C730 C726 1.385 . S
C730 C729 1.374 . S
C731 C728 1.499 . S
C731 C732 1.373 . S
C731 C733 1.389 . S
C732 H705 0.950 . S
C732 C718 1.377 . S
C732 C731 1.373 . S
C733 C717 1.377 . S
C733 C731 1.389 . S
C733 C734 1.524 . S
C734 C733 1.524 . S
C734 C735 1.397 . S
C734 C739 1.363 . S
C735 H706 0.950 . S
C735 C734 1.397 . S
C735 C736 1.334 . S
C736 H707 0.950 . S
C736 C735 1.334 . S
C736 C737 1.287 . S
C737 C736 1.287 . S
C737 C738 1.524 . S
C737 H740 0.999 . S
C738 H708 0.950 . S
C738 C737 1.524 . S
C738 C739 1.415 . S
C739 H709 0.950 . S
C739 C734 1.363 . S
C739 C738 1.415 . S
H740 C737 0.999 . S
H741 C722 0.913 . S
H742 C760 0.951 . S
H743 C762 0.951 . S
H744 C764 0.950 . S
H745 C765 0.950 . S
H746 C767 0.950 . S
H747 C770 0.950 . S
H748 C771 0.950 . S
H749 C773 0.950 . S
H750 C774 0.950 . S
H751 C775 0.951 . S
H752 C777 0.951 . S
H753 C779 0.950 . S
H754 C780 0.950 . S
H755 C782 0.950 . S
H756 C785 0.950 . S
H757 C786 0.950 . S
H758 C788 0.950 . S
H759 C789 0.950 . S
C760 H742 0.951 . S
C760 C761 1.366 . S
C760 C762 1.388 . S
C761 C760 1.366 . S
C761 C765 1.385 . S
C762 H743 0.951 . S
C762 C760 1.388 . S
C762 C763 1.366 . S
C763 C762 1.366 . S
C763 C764 1.414 . S
C763 C766 1.499 . S
C764 H744 0.950 . S
C764 C763 1.414 . S
C764 C765 1.374 . S
C765 H745 0.950 . S
C765 C761 1.385 . S
C765 C764 1.374 . S
C766 C763 1.499 . S
C766 C767 1.373 . S
C766 C768 1.389 . S
C767 H746 0.950 . S
C767 C766 1.373 . S
C767 C783 1.377 . S
C768 C766 1.389 . S
C768 C769 1.524 . S
C768 C782 1.377 . S
C769 C768 1.524 . S
C769 C770 1.397 . S
C769 C774 1.363 . S
C770 H747 0.950 . S
C770 C769 1.397 . S
C770 C771 1.334 . S
C771 H748 0.950 . S
C771 C770 1.334 . S
C771 C772 1.287 . S
C772 C771 1.287 . S
C772 C773 1.524 . S
C772 H791 0.913 . S
C773 H749 0.950 . S
C773 C772 1.524 . S
C773 C774 1.415 . S
C774 H750 0.950 . S
C774 C769 1.363 . S
C774 C773 1.415 . S
C775 H751 0.951 . S
C775 C776 1.366 . S
C775 C777 1.388 . S
C776 C775 1.366 . S
C776 C780 1.385 . S
C777 H752 0.951 . S
C777 C775 1.388 . S
C777 C778 1.366 . S
C778 C777 1.366 . S
C778 C779 1.414 . S
C778 C781 1.499 . S
C779 H753 0.950 . S
C779 C778 1.414 . S
C779 C780 1.374 . S
C780 H754 0.950 . S
C780 C776 1.385 . S
C780 C779 1.374 . S
C781 C778 1.499 . S
C781 C782 1.373 . S
C781 C783 1.389 . S
C782 H755 0.950 . S
C782 C768 1.377 . S
C782 C781 1.373 . S
C783 C767 1.377 . S
C783 C781 1.389 . S
C783 C784 1.524 . S
C784 C783 1.524 . S
C784 C785 1.397 . S
C784 C789 1.363 . S
C785 H756 0.950 . S
C785 C784 1.397 . S
C785 C786 1.334 . S
C786 H757 0.950 . S
C786 C785 1.334 . S
C786 C787 1.287 . S
C787 C786 1.287 . S
C787 C788 1.524 . S
C787 H790 0.999 . S
C788 H758 0.950 . S
C788 C787 1.524 . S
C788 C789 1.415 . S
C789 H759 0.950 . S
C789 C784 1.363 . S
C789 C788 1.415 . S
H790 C787 0.999 . S
H791 C772 0.913 . S
H792 C810 0.951 1_556 S
H793 C812 0.951 . S
H794 C814 0.950 . S
H795 C815 0.950 . S
H796 C817 0.950 . S
H797 C820 0.950 . S
H798 C821 0.950 . S
H799 C823 0.950 . S
H800 C824 0.950 . S
H801 C825 0.951 . S
H802 C827 0.951 . S
H803 C829 0.950 . S
H804 C830 0.950 . S
H805 C832 0.950 . S
H806 C835 0.964 . S
H807 C836 0.950 . S
H808 C838 0.950 . S
H809 C839 0.950 . S
C810 H792 0.951 1_554 S
C810 C811 1.366 . S
C810 C812 1.388 . S
C811 C810 1.366 . S
C811 C815 1.385 . S
C812 H793 0.951 . S
C812 C810 1.388 . S
C812 C813 1.366 . S
C813 C812 1.366 . S
C813 C814 1.414 . S
C813 C816 1.499 . S
C814 H794 0.950 . S
C814 C813 1.414 . S
C814 C815 1.374 . S
C815 H795 0.950 . S
C815 C811 1.385 . S
C815 C814 1.374 . S
C816 C813 1.499 . S
C816 C817 1.373 . S
C816 C818 1.389 . S
C817 H796 0.950 . S
C817 C816 1.373 . S
C817 C833 1.377 . S
C818 C816 1.389 . S
C818 C819 1.524 . S
C818 C832 1.377 . S
C819 C818 1.524 . S
C819 C820 1.397 . S
C819 C824 1.363 . S
C820 H797 0.950 . S
C820 C819 1.397 . S
C820 C821 1.334 . S
C821 H798 0.950 . S
C821 C820 1.334 . S
C821 C822 1.287 . S
C822 C821 1.287 . S
C822 C823 1.524 . S
C822 H841 0.913 . S
C823 H799 0.950 . S
C823 C822 1.524 . S
C823 C824 1.415 . S
C824 H800 0.950 . S
C824 C819 1.363 . S
C824 C823 1.415 . S
C825 H801 0.951 . S
C825 C826 1.366 . S
C825 C827 1.388 . S
C826 C825 1.366 . S
C826 C830 1.385 . S
C827 H802 0.951 . S
C827 C825 1.388 . S
C827 C828 1.366 . S
C828 C827 1.366 . S
C828 C829 1.414 . S
C828 C831 1.499 . S
C829 H803 0.950 . S
C829 C828 1.414 . S
C829 C830 1.374 . S
C830 H804 0.950 . S
C830 C826 1.385 . S
C830 C829 1.374 . S
C831 C828 1.499 . S
C831 C832 1.373 . S
C831 C833 1.389 . S
C832 H805 0.950 . S
C832 C818 1.377 . S
C832 C831 1.373 . S
C833 C817 1.377 . S
C833 C831 1.389 . S
C833 C834 1.524 . S
C834 C833 1.524 . S
C834 C835 1.397 . S
C834 C839 1.363 . S
C835 H806 0.964 . S
C835 C834 1.397 . S
C835 C836 1.334 1_554 S
C836 H807 0.950 . S
C836 C835 1.334 1_556 S
C836 C837 1.287 1_556 S
C837 C836 1.287 1_554 S
C837 C838 1.524 . S
C837 H840 0.999 1_554 S
C838 H808 0.950 . S
C838 C837 1.524 . S
C838 C839 1.415 . S
C839 H809 0.950 . S
C839 C834 1.363 . S
C839 C838 1.415 . S
H840 C837 0.999 1_556 S
H841 C822 0.913 . S
H842 C860 0.951 . S
H843 C862 0.951 . S
H844 C864 0.950 . S
H845 C865 0.950 . S
H846 C867 0.950 . S
H847 C870 0.950 . S
H848 C871 0.950 . S
H849 C873 0.950 . S
H850 C874 0.950 . S
H851 C875 0.951 . S
H852 C877 0.951 . S
H853 C879 0.950 . S
H854 C880 0.950 . S
H855 C882 0.950 . S
H856 C885 0.950 . S
H857 C886 0.950 . S
H858 C888 0.950 . S
H859 C889 0.950 . S
C860 H842 0.951 . S
C860 C861 1.366 . S
C860 C862 1.388 . S
C861 C860 1.366 . S
C861 C865 1.385 . S
C862 H843 0.951 . S
C862 C860 1.388 . S
C862 C863 1.366 . S
C863 C862 1.366 . S
C863 C864 1.414 . S
C863 C866 1.499 . S
C864 H844 0.950 . S
C864 C863 1.414 . S
C864 C865 1.374 . S
C865 H845 0.950 . S
C865 C861 1.385 . S
C865 C864 1.374 . S
C866 C863 1.499 . S
C866 C867 1.373 . S
C866 C868 1.389 . S
C867 H846 0.950 . S
C867 C866 1.373 . S
C867 C883 1.377 . S
C868 C866 1.389 . S
C868 C869 1.524 . S
C868 C882 1.377 . S
C869 C868 1.524 . S
C869 C870 1.397 . S
C869 C874 1.363 . S
C870 H847 0.950 . S
C870 C869 1.397 . S
C870 C871 1.334 . S
C871 H848 0.950 . S
C871 C870 1.334 . S
C871 C872 1.287 . S
C872 C871 1.287 . S
C872 C873 1.524 . S
C872 H891 0.913 . S
C873 H849 0.950 . S
C873 C872 1.524 . S
C873 C874 1.415 . S
C874 H850 0.950 . S
C874 C869 1.363 . S
C874 C873 1.415 . S
C875 H851 0.951 . S
C875 C876 1.366 . S
C875 C877 1.388 . S
C876 C875 1.366 . S
C876 C880 1.385 . S
C877 H852 0.951 . S
C877 C875 1.388 . S
C877 C878 1.366 . S
C878 C877 1.366 . S
C878 C879 1.414 . S
C878 C881 1.499 . S
C879 H853 0.950 . S
C879 C878 1.414 . S
C879 C880 1.374 . S
C880 H854 0.950 . S
C880 C876 1.385 . S
C880 C879 1.374 . S
C881 C878 1.499 . S
C881 C882 1.373 . S
C881 C883 1.389 . S
C882 H855 0.950 . S
C882 C868 1.377 . S
C882 C881 1.373 . S
C883 C867 1.377 . S
C883 C881 1.389 . S
C883 C884 1.524 . S
C884 C883 1.524 . S
C884 C885 1.397 . S
C884 C889 1.363 . S
C885 H856 0.950 . S
C885 C884 1.397 . S
C885 C886 1.334 . S
C886 H857 0.950 . S
C886 C885 1.334 . S
C886 C887 1.287 . S
C887 C886 1.287 . S
C887 C888 1.524 . S
C887 H890 0.999 . S
C888 H858 0.950 . S
C888 C887 1.524 . S
C888 C889 1.415 . S
C889 H859 0.950 . S
C889 C884 1.363 . S
C889 C888 1.415 . S
H890 C887 0.999 . S
H891 C872 0.913 . S
H892 C910 0.951 . S
H893 C912 0.951 . S
H894 C914 0.950 . S
H895 C915 0.950 . S
H896 C917 0.950 . S
H897 C920 0.950 . S
H898 C921 0.950 . S
H899 C923 0.950 . S
H900 C924 0.950 . S
H901 C925 0.951 . S
H902 C927 0.951 . S
H903 C929 0.950 . S
H904 C930 0.950 . S
H905 C932 0.950 . S
H906 C935 0.950 . S
H907 C936 0.950 . S
H908 C938 0.950 . S
H909 C939 0.950 . S
C910 H892 0.951 . S
C910 C911 1.366 . S
C910 C912 1.388 . S
C911 C910 1.366 . S
C911 C915 1.385 . S
C912 H893 0.951 . S
C912 C910 1.388 . S
C912 C913 1.366 . S
C913 C912 1.366 . S
C913 C914 1.414 . S
C913 C916 1.499 . S
C914 H894 0.950 . S
C914 C913 1.414 . S
C914 C915 1.374 . S
C915 H895 0.950 . S
C915 C911 1.385 . S
C915 C914 1.374 . S
C916 C913 1.499 . S
C916 C917 1.373 . S
C916 C918 1.389 . S
C917 H896 0.950 . S
C917 C916 1.373 . S
C917 C933 1.377 . S
C918 C916 1.389 . S
C918 C919 1.524 . S
C918 C932 1.377 . S
C919 C918 1.524 . S
C919 C920 1.397 . S
C919 C924 1.363 . S
C920 H897 0.950 . S
C920 C919 1.397 . S
C920 C921 1.334 . S
C921 H898 0.950 . S
C921 C920 1.334 . S
C921 C922 1.287 . S
C922 C921 1.287 . S
C922 C923 1.524 . S
C922 H941 0.913 . S
C923 H899 0.950 . S
C923 C922 1.524 . S
C923 C924 1.415 . S
C924 H900 0.950 . S
C924 C919 1.363 . S
C924 C923 1.415 . S
C925 H901 0.951 . S
C925 C926 1.366 . S
C925 C927 1.388 . S
C926 C925 1.366 . S
C926 C930 1.385 . S
C927 H902 0.951 . S
C927 C925 1.388 . S
C927 C928 1.366 . S
C928 C927 1.366 . S
C928 C929 1.414 . S
C928 C931 1.499 . S
C929 H903 0.950 . S
C929 C928 1.414 . S
C929 C930 1.374 . S
C930 H904 0.950 . S
C930 C926 1.385 . S
C930 C929 1.374 . S
C931 C928 1.499 . S
C931 C932 1.373 . S
C931 C933 1.389 . S
C932 H905 0.950 . S
C932 C918 1.377 . S
C932 C931 1.373 . S
C933 C917 1.377 . S
C933 C931 1.389 . S
C933 C934 1.524 . S
C934 C933 1.524 . S
C934 C935 1.397 . S
C934 C939 1.363 . S
C935 H906 0.950 . S
C935 C934 1.397 . S
C935 C936 1.334 . S
C936 H907 0.950 . S
C936 C935 1.334 . S
C936 C937 1.287 . S
C937 C936 1.287 . S
C937 C938 1.524 . S
C937 H940 0.999 . S
C938 H908 0.950 . S
C938 C937 1.524 . S
C938 C939 1.415 . S
C939 H909 0.950 . S
C939 C934 1.363 . S
C939 C938 1.415 . S
H940 C937 0.999 . S
H941 C922 0.913 . S
H942 C960 0.951 . S
H943 C962 0.951 . S
H944 C964 0.950 . S
H945 C965 0.950 . S
H946 C967 0.950 . S
H947 C970 0.950 . S
H948 C971 0.950 . S
H949 C973 0.950 . S
H950 C974 0.950 . S
H951 C975 0.951 . S
H952 C977 0.951 . S
H953 C979 0.950 . S
H954 C980 0.950 . S
H955 C982 0.950 . S
H956 C985 0.950 . S
H957 C986 0.950 . S
H958 C988 0.950 . S
H959 C989 0.950 . S
C960 H942 0.951 . S
C960 C961 1.366 . S
C960 C962 1.388 . S
C961 C960 1.366 . S
C961 C965 1.385 . S
C962 H943 0.951 . S
C962 C960 1.388 . S
C962 C963 1.366 . S
C963 C962 1.366 . S
C963 C964 1.414 . S
C963 C966 1.499 . S
C964 H944 0.950 . S
C964 C963 1.414 . S
C964 C965 1.374 . S
C965 H945 0.950 . S
C965 C961 1.385 . S
C965 C964 1.374 . S
C966 C963 1.499 . S
C966 C967 1.373 . S
C966 C968 1.389 . S
C967 H946 0.950 . S
C967 C966 1.373 . S
C967 C983 1.377 . S
C968 C966 1.389 . S
C968 C969 1.524 . S
C968 C982 1.377 . S
C969 C968 1.524 . S
C969 C970 1.397 . S
C969 C974 1.363 . S
C970 H947 0.950 . S
C970 C969 1.397 . S
C970 C971 1.334 . S
C971 H948 0.950 . S
C971 C970 1.334 . S
C971 C972 1.287 . S
C972 C971 1.287 . S
C972 C973 1.524 . S
C972 H991 0.913 . S
C973 H949 0.950 . S
C973 C972 1.524 . S
C973 C974 1.415 . S
C974 H950 0.950 . S
C974 C969 1.363 . S
C974 C973 1.415 . S
C975 H951 0.951 . S
C975 C976 1.366 . S
C975 C977 1.388 . S
C976 C975 1.366 . S
C976 C980 1.385 . S
C977 H952 0.951 . S
C977 C975 1.388 . S
C977 C978 1.366 . S
C978 C977 1.366 . S
C978 C979 1.414 . S
C978 C981 1.499 . S
C979 H953 0.950 . S
C979 C978 1.414 . S
C979 C980 1.374 . S
C980 H954 0.950 . S
C980 C976 1.385 . S
C980 C979 1.374 . S
C981 C978 1.499 . S
C981 C982 1.373 . S
C981 C983 1.389 . S
C982 H955 0.950 . S
C982 C968 1.377 . S
C982 C981 1.373 . S
C983 C967 1.377 . S
C983 C981 1.389 . S
C983 C984 1.524 . S
C984 C983 1.524 . S
C984 C985 1.397 . S
C984 C989 1.363 . S
C985 H956 0.950 . S
C985 C984 1.397 . S
C985 C986 1.334 . S
C986 H957 0.950 . S
C986 C985 1.334 . S
C986 C987 1.287 . S
C987 C986 1.287 . S
C987 C988 1.524 . S
C987 H990 0.999 . S
C988 H958 0.950 . S
C988 C987 1.524 . S
C988 C989 1.415 . S
C989 H959 0.950 . S
C989 C984 1.363 . S
C989 C988 1.415 . S
H990 C987 0.999 . S
H991 C972 0.913 . S
H992 C1010 0.951 . S
H993 C1012 0.951 . S
H994 C1014 0.950 . S
H995 C1015 0.950 . S
H996 C1017 0.950 . S
H997 C1020 0.950 . S
H998 C1021 0.950 . S
H999 C1023 0.950 . S
H1000 C1024 0.950 . S
H1001 C1025 0.951 . S
H1002 C1027 0.951 . S
H1003 C1029 0.950 . S
H1004 C1030 0.950 . S
H1005 C1032 0.950 . S
H1006 C1035 0.950 . S
H1007 C1036 0.950 . S
H1008 C1038 0.950 . S
H1009 C1039 0.950 . S
C1010 H992 0.951 . S
C1010 C1011 1.366 . S
C1010 C1012 1.388 . S
C1011 C1010 1.366 . S
C1011 C1015 1.385 . S
C1012 H993 0.951 . S
C1012 C1010 1.388 . S
C1012 C1013 1.366 . S
C1013 C1012 1.366 . S
C1013 C1014 1.414 . S
C1013 C1016 1.499 . S
C1014 H994 0.950 . S
C1014 C1013 1.414 . S
C1014 C1015 1.374 . S
C1015 H995 0.950 . S
C1015 C1011 1.385 . S
C1015 C1014 1.374 . S
C1016 C1013 1.499 . S
C1016 C1017 1.373 . S
C1016 C1018 1.389 . S
C1017 H996 0.950 . S
C1017 C1016 1.373 . S
C1017 C1033 1.377 . S
C1018 C1016 1.389 . S
C1018 C1019 1.524 . S
C1018 C1032 1.377 . S
C1019 C1018 1.524 . S
C1019 C1020 1.397 . S
C1019 C1024 1.363 . S
C1020 H997 0.950 . S
C1020 C1019 1.397 . S
C1020 C1021 1.334 . S
C1021 H998 0.950 . S
C1021 C1020 1.334 . S
C1021 C1022 1.287 . S
C1022 C1021 1.287 . S
C1022 C1023 1.524 . S
C1022 H1041 0.913 . S
C1023 H999 0.950 . S
C1023 C1022 1.524 . S
C1023 C1024 1.415 . S
C1024 H1000 0.950 . S
C1024 C1019 1.363 . S
C1024 C1023 1.415 . S
C1025 H1001 0.951 . S
C1025 C1026 1.366 . S
C1025 C1027 1.388 . S
C1026 C1025 1.366 . S
C1026 C1030 1.385 . S
C1027 H1002 0.951 . S
C1027 C1025 1.388 . S
C1027 C1028 1.366 . S
C1028 C1027 1.366 . S
C1028 C1029 1.414 . S
C1028 C1031 1.499 . S
C1029 H1003 0.950 . S
C1029 C1028 1.414 . S
C1029 C1030 1.374 . S
C1030 H1004 0.950 . S
C1030 C1026 1.385 . S
C1030 C1029 1.374 . S
C1031 C1028 1.499 . S
C1031 C1032 1.373 . S
C1031 C1033 1.389 . S
C1032 H1005 0.950 . S
C1032 C1018 1.377 . S
C1032 C1031 1.373 . S
C1033 C1017 1.377 . S
C1033 C1031 1.389 . S
C1033 C1034 1.524 . S
C1034 C1033 1.524 . S
C1034 C1035 1.397 . S
C1034 C1039 1.363 . S
C1035 H1006 0.950 . S
C1035 C1034 1.397 . S
C1035 C1036 1.334 . S
C1036 H1007 0.950 . S
C1036 C1035 1.334 . S
C1036 C1037 1.287 . S
C1037 C1036 1.287 . S
C1037 C1038 1.524 . S
C1037 H1040 0.999 . S
C1038 H1008 0.950 . S
C1038 C1037 1.524 . S
C1038 C1039 1.415 . S
C1039 H1009 0.950 . S
C1039 C1034 1.363 . S
C1039 C1038 1.415 . S
H1040 C1037 0.999 . S
H1041 C1022 0.913 . S
H1042 C1060 0.951 . S
H1043 C1062 0.951 . S
H1044 C1064 0.950 . S
H1045 C1065 0.950 . S
H1046 C1067 0.950 . S
H1047 C1070 0.950 . S
H1048 C1071 0.950 . S
H1049 C1073 0.950 . S
H1050 C1074 0.950 . S
H1051 C1075 0.951 . S
H1052 C1077 0.951 . S
H1053 C1079 0.950 . S
H1054 C1080 0.950 . S
H1055 C1082 0.950 . S
H1056 C1085 0.950 . S
H1057 C1086 0.950 . S
H1058 C1088 0.950 . S
H1059 C1089 0.950 . S
C1060 H1042 0.951 . S
C1060 C1061 1.366 . S
C1060 C1062 1.388 . S
C1061 C1060 1.366 . S
C1061 C1065 1.385 . S
C1062 H1043 0.951 . S
C1062 C1060 1.388 . S
C1062 C1063 1.366 . S
C1063 C1062 1.366 . S
C1063 C1064 1.414 . S
C1063 C1066 1.499 . S
C1064 H1044 0.950 . S
C1064 C1063 1.414 . S
C1064 C1065 1.374 . S
C1065 H1045 0.950 . S
C1065 C1061 1.385 . S
C1065 C1064 1.374 . S
C1066 C1063 1.499 . S
C1066 C1067 1.373 . S
C1066 C1068 1.389 . S
C1067 H1046 0.950 . S
C1067 C1066 1.373 . S
C1067 C1083 1.377 . S
C1068 C1066 1.389 . S
C1068 C1069 1.524 . S
C1068 C1082 1.377 . S
C1069 C1068 1.524 . S
C1069 C1070 1.397 . S
C1069 C1074 1.363 . S
C1070 H1047 0.950 . S
C1070 C1069 1.397 . S
C1070 C1071 1.334 . S
C1071 H1048 0.950 . S
C1071 C1070 1.334 . S
C1071 C1072 1.287 . S
C1072 C1071 1.287 . S
C1072 C1073 1.524 . S
C1072 H1091 0.913 . S
C1073 H1049 0.950 . S
C1073 C1072 1.524 . S
C1073 C1074 1.415 . S
C1074 H1050 0.950 . S
C1074 C1069 1.363 . S
C1074 C1073 1.415 . S
C1075 H1051 0.951 . S
C1075 C1076 1.366 . S
C1075 C1077 1.388 . S
C1076 C1075 1.366 . S
C1076 C1080 1.385 . S
C1077 H1052 0.951 . S
C1077 C1075 1.388 . S
C1077 C1078 1.366 . S
C1078 C1077 1.366 . S
C1078 C1079 1.414 . S
C1078 C1081 1.499 . S
C1079 H1053 0.950 . S
C1079 C1078 1.414 . S
C1079 C1080 1.374 . S
C1080 H1054 0.950 . S
C1080 C1076 1.385 . S
C1080 C1079 1.374 . S
C1081 C1078 1.499 . S
C1081 C1082 1.373 . S
C1081 C1083 1.389 . S
C1082 H1055 0.950 . S
C1082 C1068 1.377 . S
C1082 C1081 1.373 . S
C1083 C1067 1.377 . S
C1083 C1081 1.389 . S
C1083 C1084 1.524 . S
C1084 C1083 1.524 . S
C1084 C1085 1.397 . S
C1084 C1089 1.363 . S
C1085 H1056 0.950 . S
C1085 C1084 1.397 . S
C1085 C1086 1.334 . S
C1086 H1057 0.950 . S
C1086 C1085 1.334 . S
C1086 C1087 1.287 . S
C1087 C1086 1.287 . S
C1087 C1088 1.524 . S
C1087 H1090 0.999 . S
C1088 H1058 0.950 . S
C1088 C1087 1.524 . S
C1088 C1089 1.415 . S
C1089 H1059 0.950 . S
C1089 C1084 1.363 . S
C1089 C1088 1.415 . S
H1090 C1087 0.999 . S
H1091 C1072 0.913 . S
H1092 C1110 0.951 . S
H1093 C1112 0.951 . S
H1094 C1114 0.950 . S
H1095 C1115 0.950 . S
H1096 C1117 0.950 . S
H1097 C1120 0.950 . S
H1098 C1121 0.950 . S
H1099 C1123 0.950 . S
H1100 C1124 0.950 . S
H1101 C1125 0.951 . S
H1102 C1127 0.951 . S
H1103 C1129 0.950 . S
H1104 C1130 0.950 . S
H1105 C1132 0.950 . S
H1106 C1135 0.950 . S
H1107 C1136 0.950 . S
H1108 C1138 0.950 . S
H1109 C1139 0.950 . S
C1110 H1092 0.951 . S
C1110 C1111 1.366 . S
C1110 C1112 1.388 . S
C1111 C1110 1.366 . S
C1111 C1115 1.385 . S
C1112 H1093 0.951 . S
C1112 C1110 1.388 . S
C1112 C1113 1.366 . S
C1113 C1112 1.366 . S
C1113 C1114 1.414 . S
C1113 C1116 1.499 . S
C1114 H1094 0.950 . S
C1114 C1113 1.414 . S
C1114 C1115 1.374 . S
C1115 H1095 0.950 . S
C1115 C1111 1.385 . S
C1115 C1114 1.374 . S
C1116 C1113 1.499 . S
C1116 C1117 1.373 . S
C1116 C1118 1.389 . S
C1117 H1096 0.950 . S
C1117 C1116 1.373 . S
C1117 C1133 1.377 . S
C1118 C1116 1.389 . S
C1118 C1119 1.524 . S
C1118 C1132 1.377 . S
C1119 C1118 1.524 . S
C1119 C1120 1.397 . S
C1119 C1124 1.363 . S
C1120 H1097 0.950 . S
C1120 C1119 1.397 . S
C1120 C1121 1.334 . S
C1121 H1098 0.950 . S
C1121 C1120 1.334 . S
C1121 C1122 1.287 . S
C1122 C1121 1.287 . S
C1122 C1123 1.524 . S
C1122 H1141 0.913 . S
C1123 H1099 0.950 . S
C1123 C1122 1.524 . S
C1123 C1124 1.415 . S
C1124 H1100 0.950 . S
C1124 C1119 1.363 . S
C1124 C1123 1.415 . S
C1125 H1101 0.951 . S
C1125 C1126 1.366 . S
C1125 C1127 1.388 . S
C1126 C1125 1.366 . S
C1126 C1130 1.385 1_554 S
C1127 H1102 0.951 . S
C1127 C1125 1.388 . S
C1127 C1128 1.366 1_554 S
C1128 C1127 1.366 1_556 S
C1128 C1129 1.414 . S
C1128 C1131 1.499 . S
C1129 H1103 0.950 . S
C1129 C1128 1.414 . S
C1129 C1130 1.374 . S
C1130 H1104 0.950 . S
C1130 C1126 1.385 1_556 S
C1130 C1129 1.374 . S
C1131 C1128 1.499 . S
C1131 C1132 1.373 . S
C1131 C1133 1.389 . S
C1132 H1105 0.950 . S
C1132 C1118 1.377 . S
C1132 C1131 1.373 . S
C1133 C1117 1.377 . S
C1133 C1131 1.389 . S
C1133 C1134 1.524 . S
C1134 C1133 1.524 . S
C1134 C1135 1.397 . S
C1134 C1139 1.363 . S
C1135 H1106 0.950 . S
C1135 C1134 1.397 . S
C1135 C1136 1.334 . S
C1136 H1107 0.950 . S
C1136 C1135 1.334 . S
C1136 C1137 1.287 . S
C1137 C1136 1.287 . S
C1137 C1138 1.524 . S
C1137 H1140 0.999 . S
C1138 H1108 0.950 . S
C1138 C1137 1.524 . S
C1138 C1139 1.415 . S
C1139 H1109 0.950 . S
C1139 C1134 1.363 . S
C1139 C1138 1.415 . S
H1140 C1137 0.999 . S
H1141 C1122 0.913 . S
H1142 C1160 0.951 . S
H1143 C1162 0.951 . S
H1144 C1164 0.950 . S
H1145 C1165 0.950 . S
H1146 C1167 0.950 . S
H1147 C1170 0.950 . S
H1148 C1171 0.950 . S
H1149 C1173 0.950 . S
H1150 C1174 0.950 . S
H1151 C1175 0.951 . S
H1152 C1177 0.951 . S
H1153 C1179 0.950 . S
H1154 C1180 0.950 . S
H1155 C1182 0.950 . S
H1156 C1185 0.950 . S
H1157 C1186 0.950 . S
H1158 C1188 0.950 . S
H1159 C1189 0.950 . S
C1160 H1142 0.951 . S
C1160 C1161 1.366 . S
C1160 C1162 1.388 . S
C1161 C1160 1.366 . S
C1161 C1165 1.385 . S
C1162 H1143 0.951 . S
C1162 C1160 1.388 . S
C1162 C1163 1.366 . S
C1163 C1162 1.366 . S
C1163 C1164 1.414 . S
C1163 C1166 1.499 . S
C1164 H1144 0.950 . S
C1164 C1163 1.414 . S
C1164 C1165 1.374 . S
C1165 H1145 0.950 . S
C1165 C1161 1.385 . S
C1165 C1164 1.374 . S
C1166 C1163 1.499 . S
C1166 C1167 1.373 . S
C1166 C1168 1.389 . S
C1167 H1146 0.950 . S
C1167 C1166 1.373 . S
C1167 C1183 1.377 . S
C1168 C1166 1.389 . S
C1168 C1169 1.524 . S
C1168 C1182 1.377 . S
C1169 C1168 1.524 . S
C1169 C1170 1.397 . S
C1169 C1174 1.363 . S
C1170 H1147 0.950 . S
C1170 C1169 1.397 . S
C1170 C1171 1.334 . S
C1171 H1148 0.950 . S
C1171 C1170 1.334 . S
C1171 C1172 1.287 . S
C1172 C1171 1.287 . S
C1172 C1173 1.524 . S
C1172 H1191 0.913 . S
C1173 H1149 0.950 . S
C1173 C1172 1.524 . S
C1173 C1174 1.415 . S
C1174 H1150 0.950 . S
C1174 C1169 1.363 . S
C1174 C1173 1.415 . S
C1175 H1151 0.951 . S
C1175 C1176 1.366 . S
C1175 C1177 1.388 . S
C1176 C1175 1.366 . S
C1176 C1180 1.385 . S
C1177 H1152 0.951 . S
C1177 C1175 1.388 . S
C1177 C1178 1.366 . S
C1178 C1177 1.366 . S
C1178 C1179 1.414 . S
C1178 C1181 1.499 . S
C1179 H1153 0.950 . S
C1179 C1178 1.414 . S
C1179 C1180 1.374 . S
C1180 H1154 0.950 . S
C1180 C1176 1.385 . S
C1180 C1179 1.374 . S
C1181 C1178 1.499 . S
C1181 C1182 1.373 . S
C1181 C1183 1.389 . S
C1182 H1155 0.950 . S
C1182 C1168 1.377 . S
C1182 C1181 1.373 . S
C1183 C1167 1.377 . S
C1183 C1181 1.389 . S
C1183 C1184 1.524 . S
C1184 C1183 1.524 . S
C1184 C1185 1.397 . S
C1184 C1189 1.363 . S
C1185 H1156 0.950 . S
C1185 C1184 1.397 . S
C1185 C1186 1.334 . S
C1186 H1157 0.950 . S
C1186 C1185 1.334 . S
C1186 C1187 1.287 . S
C1187 C1186 1.287 . S
C1187 C1188 1.524 . S
C1187 H1190 0.999 . S
C1188 H1158 0.950 . S
C1188 C1187 1.524 . S
C1188 C1189 1.415 . S
C1189 H1159 0.950 . S
C1189 C1184 1.363 . S
C1189 C1188 1.415 . S
H1190 C1187 0.999 . S
H1191 C1172 0.913 . S
H1192 C1210 0.951 . S
H1193 C1212 0.951 . S
H1194 C1214 0.950 . S
H1195 C1215 0.950 . S
H1196 C1217 0.950 . S
H1197 C1220 0.950 . S
H1198 C1221 0.950 . S
H1199 C1223 0.950 . S
H1200 C1224 0.950 . S
H1201 C1225 0.951 . S
H1202 C1227 0.951 . S
H1203 C1229 0.950 . S
H1204 C1230 0.950 . S
H1205 C1232 0.950 . S
H1206 C1235 0.950 . S
H1207 C1236 0.950 . S
H1208 C1238 0.950 . S
H1209 C1239 0.950 . S
C1210 H1192 0.951 . S
C1210 C1211 1.366 . S
C1210 C1212 1.388 . S
C1211 C1210 1.366 . S
C1211 C1215 1.385 . S
C1212 H1193 0.951 . S
C1212 C1210 1.388 . S
C1212 C1213 1.366 . S
C1213 C1212 1.366 . S
C1213 C1214 1.414 . S
C1213 C1216 1.499 . S
C1214 H1194 0.950 . S
C1214 C1213 1.414 . S
C1214 C1215 1.374 . S
C1215 H1195 0.950 . S
C1215 C1211 1.385 . S
C1215 C1214 1.374 . S
C1216 C1213 1.499 . S
C1216 C1217 1.373 . S
C1216 C1218 1.389 . S
C1217 H1196 0.950 . S
C1217 C1216 1.373 . S
C1217 C1233 1.377 . S
C1218 C1216 1.389 . S
C1218 C1219 1.524 . S
C1218 C1232 1.377 . S
C1219 C1218 1.524 . S
C1219 C1220 1.397 . S
C1219 C1224 1.363 . S
C1220 H1197 0.950 . S
C1220 C1219 1.397 . S
C1220 C1221 1.334 . S
C1221 H1198 0.950 . S
C1221 C1220 1.334 . S
C1221 C1222 1.287 . S
C1222 C1221 1.287 . S
C1222 C1223 1.524 . S
C1222 H1241 0.913 . S
C1223 H1199 0.950 . S
C1223 C1222 1.524 . S
C1223 C1224 1.415 . S
C1224 H1200 0.950 . S
C1224 C1219 1.363 . S
C1224 C1223 1.415 . S
C1225 H1201 0.951 . S
C1225 C1226 1.366 . S
C1225 C1227 1.388 . S
C1226 C1225 1.366 . S
C1226 C1230 1.385 . S
C1227 H1202 0.951 . S
C1227 C1225 1.388 . S
C1227 C1228 1.366 . S
C1228 C1227 1.366 . S
C1228 C1229 1.414 . S
C1228 C1231 1.499 . S
C1229 H1203 0.950 . S
C1229 C1228 1.414 . S
C1229 C1230 1.374 . S
C1230 H1204 0.950 . S
C1230 C1226 1.385 . S
C1230 C1229 1.374 . S
C1231 C1228 1.499 . S
C1231 C1232 1.373 . S
C1231 C1233 1.389 . S
C1232 H1205 0.950 . S
C1232 C1218 1.377 . S
C1232 C1231 1.373 . S
C1233 C1217 1.377 . S
C1233 C1231 1.389 . S
C1233 C1234 1.524 . S
C1234 C1233 1.524 . S
C1234 C1235 1.397 . S
C1234 C1239 1.363 . S
C1235 H1206 0.950 . S
C1235 C1234 1.397 . S
C1235 C1236 1.334 . S
C1236 H1207 0.950 . S
C1236 C1235 1.334 . S
C1236 C1237 1.287 . S
C1237 C1236 1.287 . S
C1237 C1238 1.524 . S
C1237 H1240 0.999 . S
C1238 H1208 0.950 . S
C1238 C1237 1.524 . S
C1238 C1239 1.415 . S
C1239 H1209 0.950 . S
C1239 C1234 1.363 . S
C1239 C1238 1.415 . S
H1240 C1237 0.999 . S
H1241 C1222 0.913 . S
H1242 C1260 0.951 . S
H1243 C1262 0.951 . S
H1244 C1264 0.950 . S
H1245 C1265 0.950 . S
H1246 C1267 0.950 . S
H1247 C1270 0.950 . S
H1248 C1271 0.950 . S
H1249 C1273 0.950 . S
H1250 C1274 0.950 . S
H1251 C1275 0.951 . S
H1252 C1277 0.951 . S
H1253 C1279 0.950 . S
H1254 C1280 0.950 . S
H1255 C1282 0.950 . S
H1256 C1285 0.950 . S
H1257 C1286 0.950 . S
H1258 C1288 0.950 . S
H1259 C1289 0.950 . S
C1260 H1242 0.951 . S
C1260 C1261 1.366 . S
C1260 C1262 1.388 . S
C1261 C1260 1.366 . S
C1261 C1265 1.385 . S
C1262 H1243 0.951 . S
C1262 C1260 1.388 . S
C1262 C1263 1.366 . S
C1263 C1262 1.366 . S
C1263 C1264 1.414 . S
C1263 C1266 1.499 . S
C1264 H1244 0.950 . S
C1264 C1263 1.414 . S
C1264 C1265 1.374 . S
C1265 H1245 0.950 . S
C1265 C1261 1.385 . S
C1265 C1264 1.374 . S
C1266 C1263 1.499 . S
C1266 C1267 1.373 . S
C1266 C1268 1.389 . S
C1267 H1246 0.950 . S
C1267 C1266 1.373 . S
C1267 C1283 1.377 . S
C1268 C1266 1.389 . S
C1268 C1269 1.524 . S
C1268 C1282 1.377 . S
C1269 C1268 1.524 . S
C1269 C1270 1.397 . S
C1269 C1274 1.363 . S
C1270 H1247 0.950 . S
C1270 C1269 1.397 . S
C1270 C1271 1.334 . S
C1271 H1248 0.950 . S
C1271 C1270 1.334 . S
C1271 C1272 1.287 . S
C1272 C1271 1.287 . S
C1272 C1273 1.524 . S
C1272 H1291 0.913 . S
C1273 H1249 0.950 . S
C1273 C1272 1.524 . S
C1273 C1274 1.415 . S
C1274 H1250 0.950 . S
C1274 C1269 1.363 . S
C1274 C1273 1.415 . S
C1275 H1251 0.951 . S
C1275 C1276 1.366 . S
C1275 C1277 1.388 . S
C1276 C1275 1.366 . S
C1276 C1280 1.385 . S
C1277 H1252 0.951 . S
C1277 C1275 1.388 . S
C1277 C1278 1.366 . S
C1278 C1277 1.366 . S
C1278 C1279 1.414 . S
C1278 C1281 1.499 . S
C1279 H1253 0.950 . S
C1279 C1278 1.414 . S
C1279 C1280 1.374 . S
C1280 H1254 0.950 . S
C1280 C1276 1.385 . S
C1280 C1279 1.374 . S
C1281 C1278 1.499 . S
C1281 C1282 1.373 . S
C1281 C1283 1.389 . S
C1282 H1255 0.950 . S
C1282 C1268 1.377 . S
C1282 C1281 1.373 . S
C1283 C1267 1.377 . S
C1283 C1281 1.389 . S
C1283 C1284 1.524 . S
C1284 C1283 1.524 . S
C1284 C1285 1.397 . S
C1284 C1289 1.363 . S
C1285 H1256 0.950 . S
C1285 C1284 1.397 . S
C1285 C1286 1.334 . S
C1286 H1257 0.950 . S
C1286 C1285 1.334 . S
C1286 C1287 1.287 . S
C1287 C1286 1.287 . S
C1287 C1288 1.524 . S
C1287 H1290 0.999 . S
C1288 H1258 0.950 . S
C1288 C1287 1.524 . S
C1288 C1289 1.415 . S
C1289 H1259 0.950 . S
C1289 C1284 1.363 . S
C1289 C1288 1.415 . S
H1290 C1287 0.999 . S
H1291 C1272 0.913 . S
H1292 C1310 0.951 . S
H1293 C1312 0.951 . S
H1294 C1314 0.950 . S
H1295 C1315 0.950 . S
H1296 C1317 0.950 . S
H1297 C1320 0.950 . S
H1298 C1321 0.950 . S
H1299 C1323 0.950 . S
H1300 C1324 0.950 . S
H1301 C1325 0.951 . S
H1302 C1327 0.951 . S
H1303 C1329 0.950 . S
H1304 C1330 0.950 . S
H1305 C1332 0.950 . S
H1306 C1335 0.950 . S
H1307 C1336 0.950 . S
H1308 C1338 0.950 . S
H1309 C1339 0.950 . S
C1310 H1292 0.951 . S
C1310 C1311 1.366 . S
C1310 C1312 1.388 . S
C1311 C1310 1.366 . S
C1311 C1315 1.385 . S
C1312 H1293 0.951 . S
C1312 C1310 1.388 . S
C1312 C1313 1.366 . S
C1313 C1312 1.366 . S
C1313 C1314 1.414 . S
C1313 C1316 1.499 . S
C1314 H1294 0.950 . S
C1314 C1313 1.414 . S
C1314 C1315 1.374 . S
C1315 H1295 0.950 . S
C1315 C1311 1.385 . S
C1315 C1314 1.374 . S
C1316 C1313 1.499 . S
C1316 C1317 1.373 . S
C1316 C1318 1.389 . S
C1317 H1296 0.950 . S
C1317 C1316 1.373 . S
C1317 C1333 1.377 . S
C1318 C1316 1.389 . S
C1318 C1319 1.524 . S
C1318 C1332 1.377 . S
C1319 C1318 1.524 . S
C1319 C1320 1.397 . S
C1319 C1324 1.363 . S
C1320 H1297 0.950 . S
C1320 C1319 1.397 . S
C1320 C1321 1.334 . S
C1321 H1298 0.950 . S
C1321 C1320 1.334 . S
C1321 C1322 1.287 . S
C1322 C1321 1.287 . S
C1322 C1323 1.524 . S
C1322 H1341 0.913 . S
C1323 H1299 0.950 . S
C1323 C1322 1.524 . S
C1323 C1324 1.415 . S
C1324 H1300 0.950 . S
C1324 C1319 1.363 . S
C1324 C1323 1.415 . S
C1325 H1301 0.951 . S
C1325 C1326 1.366 . S
C1325 C1327 1.388 . S
C1326 C1325 1.366 . S
C1326 C1330 1.385 . S
C1327 H1302 0.951 . S
C1327 C1325 1.388 . S
C1327 C1328 1.366 . S
C1328 C1327 1.366 . S
C1328 C1329 1.414 . S
C1328 C1331 1.499 . S
C1329 H1303 0.950 . S
C1329 C1328 1.414 . S
C1329 C1330 1.374 . S
C1330 H1304 0.950 . S
C1330 C1326 1.385 . S
C1330 C1329 1.374 . S
C1331 C1328 1.499 . S
C1331 C1332 1.373 . S
C1331 C1333 1.389 . S
C1332 H1305 0.950 . S
C1332 C1318 1.377 . S
C1332 C1331 1.373 . S
C1333 C1317 1.377 . S
C1333 C1331 1.389 . S
C1333 C1334 1.524 . S
C1334 C1333 1.524 . S
C1334 C1335 1.397 . S
C1334 C1339 1.363 . S
C1335 H1306 0.950 . S
C1335 C1334 1.397 . S
C1335 C1336 1.334 . S
C1336 H1307 0.950 . S
C1336 C1335 1.334 . S
C1336 C1337 1.287 . S
C1337 C1336 1.287 . S
C1337 C1338 1.524 . S
C1337 H1340 0.999 . S
C1338 H1308 0.950 . S
C1338 C1337 1.524 . S
C1338 C1339 1.415 . S
C1339 H1309 0.950 . S
C1339 C1334 1.363 . S
C1339 C1338 1.415 . S
H1340 C1337 0.999 . S
H1341 C1322 0.913 . S
H1342 C1360 0.951 . S
H1343 C1362 0.951 . S
H1344 C1364 0.950 . S
H1345 C1365 0.950 . S
H1346 C1367 0.950 . S
H1347 C1370 0.950 . S
H1348 C1371 0.950 . S
H1349 C1373 0.950 . S
H1350 C1374 0.950 . S
H1351 C1375 0.951 . S
H1352 C1377 0.951 . S
H1353 C1379 0.950 . S
H1354 C1380 0.950 . S
H1355 C1382 0.950 . S
H1356 C1385 0.950 . S
H1357 C1386 0.950 . S
H1358 C1388 0.950 . S
H1359 C1389 0.950 . S
C1360 H1342 0.951 . S
C1360 C1361 1.366 . S
C1360 C1362 1.388 . S
C1361 C1360 1.366 . S
C1361 C1365 1.385 . S
C1362 H1343 0.951 . S
C1362 C1360 1.388 . S
C1362 C1363 1.366 . S
C1363 C1362 1.366 . S
C1363 C1364 1.414 . S
C1363 C1366 1.499 . S
C1364 H1344 0.950 . S
C1364 C1363 1.414 . S
C1364 C1365 1.374 . S
C1365 H1345 0.950 . S
C1365 C1361 1.385 . S
C1365 C1364 1.374 . S
C1366 C1363 1.499 . S
C1366 C1367 1.373 . S
C1366 C1368 1.389 . S
C1367 H1346 0.950 . S
C1367 C1366 1.373 . S
C1367 C1383 1.377 . S
C1368 C1366 1.389 . S
C1368 C1369 1.524 . S
C1368 C1382 1.377 . S
C1369 C1368 1.524 . S
C1369 C1370 1.397 . S
C1369 C1374 1.363 . S
C1370 H1347 0.950 . S
C1370 C1369 1.397 . S
C1370 C1371 1.334 . S
C1371 H1348 0.950 . S
C1371 C1370 1.334 . S
C1371 C1372 1.287 . S
C1372 C1371 1.287 . S
C1372 C1373 1.524 . S
C1372 H1391 0.913 . S
C1373 H1349 0.950 . S
C1373 C1372 1.524 . S
C1373 C1374 1.415 . S
C1374 H1350 0.950 . S
C1374 C1369 1.363 . S
C1374 C1373 1.415 . S
C1375 H1351 0.951 . S
C1375 C1376 1.366 . S
C1375 C1377 1.388 . S
C1376 C1375 1.366 . S
C1376 C1380 1.385 . S
C1377 H1352 0.951 . S
C1377 C1375 1.388 . S
C1377 C1378 1.366 . S
C1378 C1377 1.366 . S
C1378 C1379 1.414 . S
C1378 C1381 1.499 . S
C1379 H1353 0.950 . S
C1379 C1378 1.414 . S
C1379 C1380 1.374 . S
C1380 H1354 0.950 . S
C1380 C1376 1.385 . S
C1380 C1379 1.374 . S
C1381 C1378 1.499 . S
C1381 C1382 1.373 . S
C1381 C1383 1.389 . S
C1382 H1355 0.950 . S
C1382 C1368 1.377 . S
C1382 C1381 1.373 . S
C1383 C1367 1.377 . S
C1383 C1381 1.389 . S
C1383 C1384 1.524 . S
C1384 C1383 1.524 . S
C1384 C1385 1.397 . S
C1384 C1389 1.363 . S
C1385 H1356 0.950 . S
C1385 C1384 1.397 . S
C1385 C1386 1.334 . S
C1386 H1357 0.950 . S
C1386 C1385 1.334 . S
C1386 C1387 1.287 . S
C1387 C1386 1.287 . S
C1387 C1388 1.524 . S
C1387 H1390 0.999 . S
C1388 H1358 0.950 . S
C1388 C1387 1.524 . S
C1388 C1389 1.415 . S
C1389 H1359 0.950 . S
C1389 C1384 1.363 . S
C1389 C1388 1.415 . S
H1390 C1387 0.999 . S
H1391 C1372 0.913 . S
H1392 C1410 0.951 . S
H1393 C1412 0.951 . S
H1394 C1414 0.950 . S
H1395 C1415 0.950 . S
H1396 C1417 0.950 . S
H1397 C1420 0.950 . S
H1398 C1421 0.950 . S
H1399 C1423 0.950 . S
H1400 C1424 0.950 . S
H1401 C1425 0.951 . S
H1402 C1427 0.951 . S
H1403 C1429 0.950 . S
H1404 C1430 0.950 . S
H1405 C1432 0.950 . S
H1406 C1435 0.950 . S
H1407 C1436 0.950 . S
H1408 C1438 0.950 . S
H1409 C1439 0.950 . S
C1410 H1392 0.951 . S
C1410 C1411 1.366 . S
C1410 C1412 1.388 . S
C1411 C1410 1.366 . S
C1411 C1415 1.385 . S
C1412 H1393 0.951 . S
C1412 C1410 1.388 . S
C1412 C1413 1.366 . S
C1413 C1412 1.366 . S
C1413 C1414 1.414 . S
C1413 C1416 1.499 . S
C1414 H1394 0.950 . S
C1414 C1413 1.414 . S
C1414 C1415 1.374 . S
C1415 H1395 0.950 . S
C1415 C1411 1.385 . S
C1415 C1414 1.374 . S
C1416 C1413 1.499 . S
C1416 C1417 1.373 . S
C1416 C1418 1.389 . S
C1417 H1396 0.950 . S
C1417 C1416 1.373 . S
C1417 C1433 1.377 . S
C1418 C1416 1.389 . S
C1418 C1419 1.524 . S
C1418 C1432 1.377 . S
C1419 C1418 1.524 . S
C1419 C1420 1.397 . S
C1419 C1424 1.363 . S
C1420 H1397 0.950 . S
C1420 C1419 1.397 . S
C1420 C1421 1.334 . S
C1421 H1398 0.950 . S
C1421 C1420 1.334 . S
C1421 C1422 1.287 . S
C1422 C1421 1.287 . S
C1422 C1423 1.524 . S
C1422 H1441 0.913 . S
C1423 H1399 0.950 . S
C1423 C1422 1.524 . S
C1423 C1424 1.415 . S
C1424 H1400 0.950 . S
C1424 C1419 1.363 . S
C1424 C1423 1.415 . S
C1425 H1401 0.951 . S
C1425 C1426 1.366 . S
C1425 C1427 1.388 . S
C1426 C1425 1.366 . S
C1426 C1430 1.385 . S
C1427 H1402 0.951 . S
C1427 C1425 1.388 . S
C1427 C1428 1.366 . S
C1428 C1427 1.366 . S
C1428 C1429 1.414 . S
C1428 C1431 1.499 . S
C1429 H1403 0.950 . S
C1429 C1428 1.414 . S
C1429 C1430 1.374 . S
C1430 H1404 0.950 . S
C1430 C1426 1.385 . S
C1430 C1429 1.374 . S
C1431 C1428 1.499 . S
C1431 C1432 1.373 . S
C1431 C1433 1.389 . S
C1432 H1405 0.950 . S
C1432 C1418 1.377 . S
C1432 C1431 1.373 . S
C1433 C1417 1.377 . S
C1433 C1431 1.389 . S
C1433 C1434 1.524 . S
C1434 C1433 1.524 . S
C1434 C1435 1.397 . S
C1434 C1439 1.363 . S
C1435 H1406 0.950 . S
C1435 C1434 1.397 . S
C1435 C1436 1.334 . S
C1436 H1407 0.950 . S
C1436 C1435 1.334 . S
C1436 C1437 1.287 . S
C1437 C1436 1.287 . S
C1437 C1438 1.524 . S
C1437 H1440 0.999 . S
C1438 H1408 0.950 . S
C1438 C1437 1.524 . S
C1438 C1439 1.415 . S
C1439 H1409 0.950 . S
C1439 C1434 1.363 . S
C1439 C1438 1.415 . S
H1440 C1437 0.999 . S
H1441 C1422 0.913 . S
H1442 C1460 0.951 . S
H1443 C1462 0.951 . S
H1444 C1464 0.950 . S
H1445 C1465 0.950 . S
H1446 C1467 0.950 . S
H1447 C1470 0.950 . S
H1448 C1471 0.950 . S
H1449 C1473 0.950 . S
H1450 C1474 0.950 1_556 S
H1451 C1475 0.951 . S
H1452 C1477 0.951 1_554 S
H1453 C1479 0.950 . S
H1454 C1480 0.950 . S
H1455 C1482 0.919 1_556 S
H1456 C1485 0.950 1_556 S
H1457 C1486 0.950 1_556 S
H1458 C1488 0.950 . S
H1459 C1489 0.950 . S
C1460 H1442 0.951 . S
C1460 C1461 1.366 . S
C1460 C1462 1.388 . S
C1461 C1460 1.366 . S
C1461 C1465 1.385 . S
C1462 H1443 0.951 . S
C1462 C1460 1.388 . S
C1462 C1463 1.366 . S
C1463 C1462 1.366 . S
C1463 C1464 1.414 . S
C1463 C1466 1.499 . S
C1464 H1444 0.950 . S
C1464 C1463 1.414 . S
C1464 C1465 1.374 . S
C1465 H1445 0.950 . S
C1465 C1461 1.385 . S
C1465 C1464 1.374 . S
C1466 C1463 1.499 . S
C1466 C1467 1.373 . S
C1466 C1468 1.389 . S
C1467 H1446 0.950 . S
C1467 C1466 1.373 . S
C1467 C1483 1.377 . S
C1468 C1466 1.389 . S
C1468 C1469 1.524 . S
C1468 C1482 1.377 . S
C1469 C1468 1.524 . S
C1469 C1470 1.397 . S
C1469 C1474 1.363 . S
C1470 H1447 0.950 . S
C1470 C1469 1.397 . S
C1470 C1471 1.334 . S
C1471 H1448 0.950 . S
C1471 C1470 1.334 . S
C1471 C1472 1.287 . S
C1472 C1471 1.287 . S
C1472 C1473 1.524 . S
C1472 H1491 0.913 . S
C1473 H1449 0.950 . S
C1473 C1472 1.524 . S
C1473 C1474 1.415 . S
C1474 H1450 0.950 1_554 S
C1474 C1469 1.363 . S
C1474 C1473 1.415 . S
C1475 H1451 0.951 . S
C1475 C1476 1.366 . S
C1475 C1477 1.388 . S
C1476 C1475 1.366 . S
C1476 C1480 1.385 . S
C1477 H1452 0.951 1_556 S
C1477 C1475 1.388 . S
C1477 C1478 1.366 . S
C1478 C1477 1.366 . S
C1478 C1479 1.414 . S
C1478 C1481 1.499 1_556 S
C1479 H1453 0.950 . S
C1479 C1478 1.414 . S
C1479 C1480 1.374 . S
C1480 H1454 0.950 . S
C1480 C1476 1.385 . S
C1480 C1479 1.374 . S
C1481 C1478 1.499 1_554 S
C1481 C1482 1.373 . S
C1481 C1483 1.389 . S
C1482 H1455 0.919 1_554 S
C1482 C1468 1.377 . S
C1482 C1481 1.373 . S
C1483 C1467 1.377 . S
C1483 C1481 1.389 . S
C1483 C1484 1.524 . S
C1484 C1483 1.524 . S
C1484 C1485 1.397 . S
C1484 C1489 1.363 . S
C1485 H1456 0.950 1_554 S
C1485 C1484 1.397 . S
C1485 C1486 1.334 . S
C1486 H1457 0.950 1_554 S
C1486 C1485 1.334 . S
C1486 C1487 1.287 . S
C1487 C1486 1.287 . S
C1487 C1488 1.524 . S
C1487 H1490 0.999 . S
C1488 H1458 0.950 . S
C1488 C1487 1.524 . S
C1488 C1489 1.415 . S
C1489 H1459 0.950 . S
C1489 C1484 1.363 . S
C1489 C1488 1.415 . S
H1490 C1487 0.999 . S
H1491 C1472 0.913 . S
H1492 C1510 0.951 . S
H1493 C1512 0.951 . S
H1494 C1514 0.950 . S
H1495 C1515 0.950 . S
H1496 C1517 0.950 . S
H1497 C1520 0.950 . S
H1498 C1521 0.950 . S
H1499 C1523 0.950 . S
H1500 C1524 0.950 . S
H1501 C1525 0.951 . S
H1502 C1527 0.951 . S
H1503 C1529 0.950 . S
H1504 C1530 0.950 . S
H1505 C1532 0.950 . S
H1506 C1535 0.950 . S
H1507 C1536 0.950 . S
H1508 C1538 0.950 . S
H1509 C1539 0.950 . S
C1510 H1492 0.951 . S
C1510 C1511 1.366 . S
C1510 C1512 1.388 . S
C1511 C1510 1.366 . S
C1511 C1515 1.385 . S
C1512 H1493 0.951 . S
C1512 C1510 1.388 . S
C1512 C1513 1.366 . S
C1513 C1512 1.366 . S
C1513 C1514 1.414 . S
C1513 C1516 1.499 . S
C1514 H1494 0.950 . S
C1514 C1513 1.414 . S
C1514 C1515 1.374 . S
C1515 H1495 0.950 . S
C1515 C1511 1.385 . S
C1515 C1514 1.374 . S
C1516 C1513 1.499 . S
C1516 C1517 1.373 . S
C1516 C1518 1.389 . S
C1517 H1496 0.950 . S
C1517 C1516 1.373 . S
C1517 C1533 1.377 . S
C1518 C1516 1.389 . S
C1518 C1519 1.524 . S
C1518 C1532 1.377 . S
C1519 C1518 1.524 . S
C1519 C1520 1.397 . S
C1519 C1524 1.363 . S
C1520 H1497 0.950 . S
C1520 C1519 1.397 . S
C1520 C1521 1.334 . S
C1521 H1498 0.950 . S
C1521 C1520 1.334 . S
C1521 C1522 1.287 . S
C1522 C1521 1.287 . S
C1522 C1523 1.524 . S
C1522 H1541 0.913 . S
C1523 H1499 0.950 . S
C1523 C1522 1.524 . S
C1523 C1524 1.415 . S
C1524 H1500 0.950 . S
C1524 C1519 1.363 . S
C1524 C1523 1.415 . S
C1525 H1501 0.951 . S
C1525 C1526 1.366 . S
C1525 C1527 1.388 . S
C1526 C1525 1.366 . S
C1526 C1530 1.385 . S
C1527 H1502 0.951 . S
C1527 C1525 1.388 . S
C1527 C1528 1.366 . S
C1528 C1527 1.366 . S
C1528 C1529 1.414 . S
C1528 C1531 1.499 . S
C1529 H1503 0.950 . S
C1529 C1528 1.414 . S
C1529 C1530 1.374 . S
C1530 H1504 0.950 . S
C1530 C1526 1.385 . S
C1530 C1529 1.374 . S
C1531 C1528 1.499 . S
C1531 C1532 1.373 . S
C1531 C1533 1.389 . S
C1532 H1505 0.950 . S
C1532 C1518 1.377 . S
C1532 C1531 1.373 . S
C1533 C1517 1.377 . S
C1533 C1531 1.389 . S
C1533 C1534 1.524 . S
C1534 C1533 1.524 . S
C1534 C1535 1.397 . S
C1534 C1539 1.363 . S
C1535 H1506 0.950 . S
C1535 C1534 1.397 . S
C1535 C1536 1.334 . S
C1536 H1507 0.950 . S
C1536 C1535 1.334 . S
C1536 C1537 1.287 . S
C1537 C1536 1.287 . S
C1537 C1538 1.524 . S
C1537 H1540 0.999 . S
C1538 H1508 0.950 . S
C1538 C1537 1.524 . S
C1538 C1539 1.415 . S
C1539 H1509 0.950 . S
C1539 C1534 1.363 . S
C1539 C1538 1.415 . S
H1540 C1537 0.999 . S
H1541 C1522 0.913 . S
C376 C309 1.607 . S
C361 C19 1.519 . S
C411 C40 1.550 . S
C426 C129 1.643 . S
C461 C51 1.514 . S
C476 C176 1.578 . S
C511 C72 1.465 . S
C526 C212 1.520 . S
C576 C237 1.588 . S
C561 C103 1.499 . S
C611 C114 1.501 . S
C626 C273 1.608 . S
C661 C30 1.534 . S
C676 C165 1.646 . S
C711 C61 1.500 . S
C726 C201 1.587 . S
C761 C82 1.464 . S
C776 C248 1.504 . S
C826 C284 1.544 . S
C811 C93 1.482 1_554 S
C876 C320 1.546 . S
C861 C124 1.502 . S
C926 C140 1.566 . S
C911 C9 1.504 . S
C961 C17 1.434 . S
C976 C164 1.510 . S
C1011 C38 1.447 . S
C1026 C200 1.524 . S
C1076 C238 1.517 . S
C1061 C54 1.430 . S
C1111 C75 1.438 . S
C1126 C274 1.526 . S
C1176 C310 1.494 . S
C1161 C101 1.410 . S
C1226 C130 1.476 . S
C1211 C117 1.389 . S
C1276 C308 1.498 . S
C1261 C33 1.417 . S
C1311 C59 1.428 . S
C1326 C128 1.502 . S
C1376 C166 1.506 . S
C1361 C80 1.427 . S
C1411 C96 1.430 . S
C1426 C202 1.515 . S
C1461 C122 1.474 . S
C1476 C236 1.547 . S
C1511 C12 1.452 . S
C1526 C272 1.531 . S
