# Generated by pormake.
# Topology pyr, (3,6)-cn, num edge types: 1
# Building blocks:
#     Node 0, Type 0, BuildingBlock: BETDAH_clean_linker_0, # of connection points: 3
#     Node 1, Type 0, BuildingBlock: BETDAH_clean_linker_0, # of connection points: 3
#     Node 2, Type 0, BuildingBlock: BETDAH_clean_linker_0, # of connection points: 3
#     Node 3, Type 0, BuildingBlock: BETDAH_clean_linker_0, # of connection points: 3
#     Node 4, Type 0, BuildingBlock: BETDAH_clean_linker_0, # of connection points: 3
#     Node 5, Type 0, BuildingBlock: BETDAH_clean_linker_0, # of connection points: 3
#     Node 6, Type 0, BuildingBlock: BETDAH_clean_linker_0, # of connection points: 3
#     Node 7, Type 0, BuildingBlock: BETDAH_clean_linker_0, # of connection points: 3
#     Node 8, Type 1, BuildingBlock: BETGAK_clean_sbu_0, # of connection points: 6
#     Node 9, Type 1, BuildingBlock: BETGAK_clean_sbu_0, # of connection points: 6
#     Node 10, Type 1, BuildingBlock: BETGAK_clean_sbu_0, # of connection points: 6
#     Node 11, Type 1, BuildingBlock: BETGAK_clean_sbu_0, # of connection points: 6
#     Edge 12, Type (0, 1), BuildingBlock: ZUJKAS_clean_linker_0, # of connection points: 2
#     Edge 13, Type (0, 1), BuildingBlock: ZUJKAS_clean_linker_0, # of connection points: 2
#     Edge 14, Type (0, 1), BuildingBlock: ZUJKAS_clean_linker_0, # of connection points: 2
#     Edge 15, Type (0, 1), BuildingBlock: ZUJKAS_clean_linker_0, # of connection points: 2
#     Edge 16, Type (0, 1), BuildingBlock: ZUJKAS_clean_linker_0, # of connection points: 2
#     Edge 17, Type (0, 1), BuildingBlock: ZUJKAS_clean_linker_0, # of connection points: 2
#     Edge 18, Type (0, 1), BuildingBlock: ZUJKAS_clean_linker_0, # of connection points: 2
#     Edge 19, Type (0, 1), BuildingBlock: ZUJKAS_clean_linker_0, # of connection points: 2
#     Edge 20, Type (0, 1), BuildingBlock: ZUJKAS_clean_linker_0, # of connection points: 2
#     Edge 21, Type (0, 1), BuildingBlock: ZUJKAS_clean_linker_0, # of connection points: 2
#     Edge 22, Type (0, 1), BuildingBlock: ZUJKAS_clean_linker_0, # of connection points: 2
#     Edge 23, Type (0, 1), BuildingBlock: ZUJKAS_clean_linker_0, # of connection points: 2
#     Edge 24, Type (0, 1), BuildingBlock: ZUJKAS_clean_linker_0, # of connection points: 2
#     Edge 25, Type (0, 1), BuildingBlock: ZUJKAS_clean_linker_0, # of connection points: 2
#     Edge 26, Type (0, 1), BuildingBlock: ZUJKAS_clean_linker_0, # of connection points: 2
#     Edge 27, Type (0, 1), BuildingBlock: ZUJKAS_clean_linker_0, # of connection points: 2
#     Edge 28, Type (0, 1), BuildingBlock: ZUJKAS_clean_linker_0, # of connection points: 2
#     Edge 29, Type (0, 1), BuildingBlock: ZUJKAS_clean_linker_0, # of connection points: 2
#     Edge 30, Type (0, 1), BuildingBlock: ZUJKAS_clean_linker_0, # of connection points: 2
#     Edge 31, Type (0, 1), BuildingBlock: ZUJKAS_clean_linker_0, # of connection points: 2
#     Edge 32, Type (0, 1), BuildingBlock: ZUJKAS_clean_linker_0, # of connection points: 2
#     Edge 33, Type (0, 1), BuildingBlock: ZUJKAS_clean_linker_0, # of connection points: 2
#     Edge 34, Type (0, 1), BuildingBlock: ZUJKAS_clean_linker_0, # of connection points: 2
#     Edge 35, Type (0, 1), BuildingBlock: ZUJKAS_clean_linker_0, # of connection points: 2
# Relax obj value: 0.113
# Max RMSD: 0.191
# Mean RMSD: 0.140
data_MOF--net-pyr--node1-BETGAK_clean_sbu_0--node2-BETDAH_clean_linker_0--edge1-ZUJKAS_clean_linker_0
_symmetry_space_group_name_H-M    P1
_symmetry_Int_Tables_number       1
_symmetry_cell_setting            triclinic
loop_
_symmetry_equiv_pos_as_xyz
'x, y, z'
_cell_length_a     47.956108
_cell_length_b     52.44465
_cell_length_c     48.724671
_cell_angle_alpha  91.748797
_cell_angle_beta   89.733278
_cell_angle_gamma 105.63304
loop_
_atom_site_label
_atom_site_type_symbol
_atom_site_fract_x
_atom_site_fract_y
_atom_site_fract_z
_atom_type_partial_charge
H0 H 0.33873 0.24268 0.24247 0.0
H1 H 0.38439 0.30249 0.18779 0.0
H2 H 0.31316 0.31482 0.23531 0.0
C3 C 0.34174 0.26195 0.23364 0.0
C4 C 0.32341 0.27777 0.24149 0.0
C5 C 0.36354 0.27049 0.21406 0.0
C6 C 0.36751 0.29554 0.20281 0.0
C7 C 0.34947 0.31157 0.21029 0.0
C8 C 0.32738 0.30262 0.22964 0.0
N9 N 0.35387 0.3364 0.19771 0.0
C10 C 0.33265 0.34986 0.19628 0.0
H11 H 0.38977 0.9093 0.65296 0.0
H12 H 0.34867 0.97109 0.63818 0.0
H13 H 0.36281 0.92086 0.57128 0.0
C14 C 0.3804 0.92033 0.63888 0.0
C15 C 0.37783 0.91269 0.61094 0.0
C16 C 0.3701 0.94147 0.64896 0.0
C17 C 0.35647 0.9546 0.63074 0.0
C18 C 0.35377 0.94705 0.60272 0.0
C19 C 0.36481 0.92643 0.59293 0.0
N20 N 0.33993 0.95977 0.58392 0.0
C21 C 0.31882 0.97201 0.59197 0.0
H22 H 0.70835 0.36627 0.9301 0.0
H23 H 0.70338 0.42259 0.86844 0.0
H24 H 0.6384 0.34803 0.87182 0.0
C25 C 0.69748 0.37181 0.91273 0.0
C26 C 0.67181 0.35398 0.90273 0.0
C27 C 0.70923 0.39678 0.90087 0.0
C28 C 0.69489 0.40361 0.8778 0.0
C29 C 0.66908 0.38596 0.86742 0.0
C30 C 0.658 0.36151 0.8801 0.0
N31 N 0.65279 0.39126 0.84467 0.0
C32 C 0.65777 0.41291 0.8273 0.0
H33 H 0.84072 0.74675 0.42791 0.0
H34 H 0.92014 0.75521 0.38329 0.0
H35 H 0.85242 0.68261 0.37553 0.0
C36 C 0.8536 0.73913 0.41308 0.0
C37 C 0.84268 0.71311 0.40208 0.0
C38 C 0.88153 0.75474 0.40662 0.0
C39 C 0.89847 0.74379 0.38845 0.0
C40 C 0.88806 0.71815 0.37668 0.0
C41 C 0.86011 0.70275 0.38364 0.0
N42 N 0.90811 0.70749 0.36152 0.0
C43 C 0.90353 0.69268 0.33675 0.0
H44 H 0.78211 0.80086 0.85815 0.0
H45 H 0.71997 0.78144 0.92332 0.0
H46 H 0.71235 0.83795 0.86364 0.0
C47 C 0.7627 0.80319 0.86823 0.0
C48 C 0.74817 0.82073 0.8577 0.0
C49 C 0.75296 0.78908 0.89199 0.0
C50 C 0.72774 0.79206 0.90485 0.0
C51 C 0.7133 0.8099 0.89505 0.0
C52 C 0.72364 0.82437 0.87151 0.0
N53 N 0.68857 0.81288 0.90951 0.0
C54 C 0.67878 0.83551 0.90909 0.0
H55 H 0.75947 0.18276 0.42925 0.0
H56 H 0.75474 0.18931 0.51718 0.0
H57 H 0.69119 0.2101 0.4672 0.0
C58 C 0.74925 0.1884 0.44747 0.0
C59 C 0.72423 0.19729 0.44497 0.0
C60 C 0.76042 0.18543 0.47336 0.0
C61 C 0.74628 0.19131 0.497 0.0
C62 C 0.7215 0.20029 0.49502 0.0
C63 C 0.71049 0.20332 0.46893 0.0
N64 N 0.70813 0.20585 0.5197 0.0
C65 C 0.68725 0.21972 0.52064 0.0
H66 H 0.35585 0.76491 0.19197 0.0
H67 H 0.36313 0.70772 0.25169 0.0
H68 H 0.43126 0.77952 0.2436 0.0
C69 C 0.36782 0.75888 0.20818 0.0
C70 C 0.39491 0.77579 0.21626 0.0
C71 C 0.35592 0.73419 0.22055 0.0
C72 C 0.3718 0.72644 0.24187 0.0
C73 C 0.39894 0.74311 0.25043 0.0
C74 C 0.4101 0.76734 0.23733 0.0
N75 N 0.41666 0.73667 0.27136 0.0
C76 C 0.41072 0.71615 0.29019 0.0
H77 H 0.21626 0.38773 0.68297 0.0
H78 H 0.21435 0.44164 0.7514 0.0
H79 H 0.15115 0.36598 0.74518 0.0
C80 C 0.20642 0.39239 0.70185 0.0
C81 C 0.18199 0.37375 0.712 0.0
C82 C 0.2185 0.41697 0.71571 0.0
C83 C 0.20545 0.42294 0.74046 0.0
C84 C 0.18073 0.4045 0.75082 0.0
C85 C 0.1696 0.38018 0.73657 0.0
N86 N 0.16629 0.4085 0.77568 0.0
C87 C 0.1696 0.43114 0.79265 0.0
La88 La 0.04029 0.07627 0.52853 0.0
La89 La 0.01781 0.05757 0.58435 0.0
C90 C 0.04712 0.09134 0.47988 0.0
C91 C 0.0685 0.1114 0.46482 0.0
C92 C 0.097 0.12124 0.47452 0.0
C93 C 0.11745 0.13931 0.45918 0.0
C94 C 0.10964 0.14799 0.43403 0.0
C95 C 0.08082 0.13862 0.42484 0.0
C96 C 0.06045 0.12042 0.4401 0.0
C97 C 0.07918 0.06608 0.56107 0.0
C98 C 0.05588 0.11585 0.57978 0.0
C99 C 1.00357 0.03481 0.62917 0.0
C100 C 0.98529 1.00967 0.63918 0.0
C101 C 0.96097 0.9951 0.62416 0.0
C102 C 0.94021 0.9747 0.63649 0.0
C103 C 0.94355 0.96851 0.66396 0.0
C104 C 0.96898 0.98195 0.6782 0.0
C105 C 0.98962 1.00241 0.6659 0.0
C106 C 0.98848 0.08499 0.55796 0.0
C107 C 1.00181 1.01649 0.53361 0.0
O108 O 0.05622 0.07176 0.48916 0.0
O109 O 0.0315 0.1004 0.49793 0.0
O110 O 0.08495 0.08408 0.5427 0.0
O111 O 0.05293 0.05333 0.55926 0.0
O112 O 0.04973 0.11356 0.5531 0.0
O113 O 0.04964 0.09485 0.59548 0.0
O114 O 0.98959 0.04982 0.61758 0.0
O115 O 0.02735 0.0345 0.61601 0.0
O116 O 0.99284 0.08696 0.58419 0.0
O117 O 0.99942 0.06769 0.54784 0.0
O118 O 0.99788 0.02125 0.56006 0.0
O119 O 0.01758 0.03501 0.51773 0.0
H120 H 0.10353 0.11467 0.49373 0.0
H121 H 0.13941 0.14642 0.46691 0.0
H122 H 0.07423 0.14474 0.40543 0.0
H123 H 0.0385 0.11306 0.43238 0.0
H124 H 0.95721 1.00045 0.60347 0.0
H125 H 0.92104 0.96446 0.6249 0.0
H126 H 0.97209 0.97784 0.69945 0.0
H127 H 1.00814 1.01357 0.67785 0.0
La128 La 0.5619 0.07418 0.07016 0.0
La129 La 0.5032 0.05276 0.04028 0.0
C130 C 0.60837 0.10533 0.08718 0.0
C131 C 0.61933 0.1158 0.11463 0.0
C132 C 0.61859 0.09878 0.1365 0.0
C133 C 0.62735 0.10911 0.16276 0.0
C134 C 0.63673 0.13663 0.16775 0.0
C135 C 0.63763 0.15364 0.14584 0.0
C136 C 0.62913 0.14329 0.11947 0.0
C137 C 0.5298 0.03064 0.09473 0.0
C138 C 0.50545 0.08685 0.09358 0.0
C139 C 0.45736 0.02502 1.01777 0.0
C140 C 0.44751 1.019 0.98926 0.0
C141 C 0.45956 0.03638 0.96836 0.0
C142 C 0.4499 0.03062 0.94131 0.0
C143 C 0.42827 1.00724 0.93469 0.0
C144 C 0.41649 0.98975 0.95566 0.0
C145 C 0.426 0.99565 0.98278 0.0
C146 C 0.53453 0.10054 0.02544 0.0
C147 C 0.55874 0.03557 1.01855 0.0
O148 O 0.60513 0.07996 0.0821 0.0
O149 O 0.58642 0.11328 0.07829 0.0
O150 O 0.55544 0.04418 0.10264 0.0
O151 O 0.52384 0.04263 0.07456 0.0
O152 O 0.53378 0.09548 0.09023 0.0
O153 O 0.48964 0.06599 0.07957 0.0
O154 O 0.46116 0.04963 0.02627 0.0
O155 O 0.47858 1.01549 0.02534 0.0
O156 O 0.50658 0.0923 0.02463 0.0
O157 O 0.54395 0.08118 0.03171 0.0
O158 O 0.53051 0.03286 1.0166 0.0
O159 O 0.57558 0.05218 0.03649 0.0
H160 H 0.61079 0.07749 0.13349 0.0
H161 H 0.62606 0.09555 0.17934 0.0
H162 H 0.64495 0.17493 0.1491 0.0
H163 H 0.62974 0.15676 0.10291 0.0
H164 H 0.47644 0.05439 0.97296 0.0
H165 H 0.45967 0.04424 0.9255 0.0
H166 H 0.39972 0.97166 0.95112 0.0
H167 H 0.41656 0.98201 0.99869 0.0
La168 La 0.52973 0.5413 0.54147 0.0
La169 La 0.53238 0.58633 0.57805 0.0
C170 C 0.5403 0.50498 0.51149 0.0
C171 C 0.54449 0.47858 0.51465 0.0
C172 C 0.54274 0.46187 0.49143 0.0
C173 C 0.54759 0.43696 0.49371 0.0
C174 C 0.55447 0.42844 0.5193 0.0
C175 C 0.5555 0.44509 0.54269 0.0
C176 C 0.55043 0.46995 0.54038 0.0
C177 C 0.48141 0.53739 0.56996 0.0
C178 C 0.55582 0.54175 0.60271 0.0
C179 C 0.52071 0.62263 0.60719 0.0
C180 C 0.50652 0.6437 0.60278 0.0
C181 C 0.51553 0.66747 0.61817 0.0
C182 C 0.50243 0.68784 0.61421 0.0
C183 C 0.48017 0.68474 0.59468 0.0
C184 C 0.47131 0.66091 0.57915 0.0
C185 C 0.48431 0.6405 0.58326 0.0
C186 C 0.58085 0.58968 0.55012 0.0
C187 C 0.50736 0.58627 0.51691 0.0
O188 O 0.51425 0.50714 0.51645 0.0
O189 O 0.56033 0.52486 0.52218 0.0
O190 O 0.48237 0.52929 0.54473 0.0
O191 O 0.50702 0.54615 0.57867 0.0
O192 O 0.55301 0.53116 0.57737 0.0
O193 O 0.54648 0.5628 0.6086 0.0
O194 O 0.54543 0.62518 0.59471 0.0
O195 O 0.50412 0.59835 0.60529 0.0
O196 O 0.57973 0.59708 0.57563 0.0
O197 O 0.5553 0.58145 0.54097 0.0
O198 O 0.50723 0.59498 0.54278 0.0
O199 O 0.51948 0.567 0.51084 0.0
H200 H 0.53786 0.46818 0.47146 0.0
H201 H 0.54609 0.42443 0.4754 0.0
H202 H 0.56099 0.43924 0.56264 0.0
H203 H 0.55153 0.48253 0.55856 0.0
H204 H 0.53273 0.6703 0.63324 0.0
H205 H 0.50994 0.70612 0.62622 0.0
H206 H 0.45401 0.65789 0.56417 0.0
H207 H 0.47687 0.62219 0.57131 0.0
La208 La 0.03288 0.53831 0.07238 0.0
La209 La 0.033 0.58911 0.04962 0.0
C210 C 0.0442 0.49583 0.08529 0.0
C211 C 0.06617 0.48692 0.10024 0.0
C212 C 0.06475 0.4599 0.0995 0.0
C213 C 0.08576 0.45081 0.11282 0.0
C214 C 0.1087 0.46864 0.12706 0.0
C215 C 0.10995 0.49578 0.1279 0.0
C216 C 0.08873 0.50484 0.11468 0.0
C217 C 1.00372 0.56557 0.1024 0.0
C218 C 0.08616 0.58949 0.08642 0.0
C219 C 0.0206 0.63059 0.03539 0.0
C220 C 0.99599 0.63777 0.0227 0.0
C221 C 1.00076 0.65298 0.99911 0.0
C222 C 0.97835 0.66153 0.98763 0.0
C223 C 0.9507 0.65526 0.99967 0.0
C224 C 0.94574 0.63934 0.02288 0.0
C225 C 0.96814 0.63062 0.03426 0.0
C226 C 0.06252 0.56197 1.02001 0.0
C227 C 0.97966 0.53838 0.03587 0.0
O228 O 0.02788 0.50733 0.09989 0.0
O229 O 0.05267 0.50807 0.0625 0.0
O230 O 0.99612 0.54007 0.09858 0.0
O231 O 0.02755 0.57476 0.09035 0.0
O232 O 0.07639 0.56323 0.08521 0.0
O233 O 0.07087 0.60436 0.07586 0.0
O234 O 0.03451 0.61754 1.01971 0.0
O235 O 0.01688 0.62145 0.06021 0.0
O236 O 0.0703 0.58742 0.02425 0.0
O237 O 0.03841 0.5527 0.03162 0.0
O238 O 0.98907 0.56457 0.03813 0.0
O239 O 0.99541 0.52343 0.04541 0.0
H240 H 0.04751 0.44582 0.08836 0.0
H241 H 0.08441 0.42986 0.11141 0.0
H242 H 0.12723 0.50996 0.13888 0.0
H243 H 0.08997 0.52574 0.11564 0.0
H244 H 0.02201 0.6586 0.98977 0.0
H245 H 0.9828 0.67329 0.96943 0.0
H246 H 0.92482 0.63432 0.03283 0.0
H247 H 0.96377 0.61878 0.0524 0.0
H248 H 0.306 0.30552 0.28392 0.0
H249 H 0.26817 0.28852 0.31782 0.0
H250 H 0.25054 0.2108 0.27895 0.0
H251 H 0.28724 0.22781 0.2444 0.0
H252 H 0.20112 0.22465 0.29216 0.0
H253 H 0.27642 0.2424 0.38141 0.0
H254 H 0.27713 0.27119 0.36209 0.0
H255 H 0.28899 0.24449 0.34638 0.0
C256 C 0.29383 0.28488 0.28243 0.0
C257 C 0.29988 0.26795 0.26163 0.0
C258 C 0.27246 0.27514 0.302 0.0
C259 C 0.25695 0.24828 0.30121 0.0
C260 C 0.26242 0.23154 0.28007 0.0
H261 H 0.16409 0.1443 0.42222 0.0
H262 H 0.19919 0.17133 0.39103 0.0
C263 C 0.28361 0.24126 0.26048 0.0
C264 C 0.23505 0.23727 0.32235 0.0
H265 H 0.22679 0.22443 0.39063 0.0
C266 C 0.20664 0.22475 0.31373 0.0
C267 C 0.24246 0.23721 0.35042 0.0
C268 C 0.27294 0.24932 0.3607 0.0
C269 C 0.18554 0.21169 0.33231 0.0
C270 C 0.19291 0.2117 0.36041 0.0
C271 C 0.22118 0.22465 0.36912 0.0
C272 C 0.1722 0.19675 0.38069 0.0
C273 C 0.15595 0.19703 0.32145 0.0
C274 C 0.14564 0.20247 0.38571 0.0
C275 C 0.12546 0.18695 0.40344 0.0
C276 C 0.13169 0.16569 0.41674 0.0
C277 C 0.15876 0.16068 0.41246 0.0
C278 C 0.1788 0.17606 0.39459 0.0
H279 H 0.15599 0.19375 0.29882 0.0
H280 H 0.148 0.17752 0.33114 0.0
H281 H 0.14045 0.20885 0.32633 0.0
H282 H 0.14039 0.21874 0.37569 0.0
H283 H 0.10495 0.19152 0.40669 0.0
H284 H 0.41742 0.94523 0.68136 0.0
H285 H 0.42322 0.95711 0.73016 0.0
H286 H 0.33803 0.96982 0.73201 0.0
H287 H 0.33145 0.9567 0.68329 0.0
H288 H 0.42284 1.00317 0.75674 0.0
H289 H 0.33446 0.92035 0.79537 0.0
H290 H 0.34763 0.92079 0.76059 0.0
H291 H 0.32327 0.94015 0.77044 0.0
C292 C 0.39971 0.95017 0.69219 0.0
C293 C 0.37384 0.94973 0.67847 0.0
C294 C 0.40317 0.95717 0.72005 0.0
C295 C 0.3809 0.96395 0.73481 0.0
C296 C 0.35526 0.96412 0.72113 0.0
H297 H 0.41415 0.04024 0.89815 0.0
H298 H 0.40039 0.03051 0.84984 0.0
C299 C 0.35169 0.95696 0.69321 0.0
C300 C 0.38502 0.97119 0.76442 0.0
H301 H 0.35908 0.9526 0.82822 0.0
C302 C 0.40884 0.99219 0.77239 0.0
C303 C 0.36689 0.95661 0.78475 0.0
C304 C 0.34177 0.93306 0.77747 0.0
C305 C 0.41529 0.99885 0.80016 0.0
C306 C 0.39694 0.98452 0.82051 0.0
C307 C 0.37294 0.96367 0.81255 0.0
C308 C 0.4032 0.99001 0.85016 0.0
C309 C 0.44228 0.02052 0.80743 0.0
C310 C 0.40819 0.97016 0.8666 0.0
C311 C 0.41575 0.97559 0.89423 0.0
C312 C 0.41851 1.001 0.90586 0.0
C313 C 0.41267 0.02063 0.88956 0.0
C314 C 0.40486 1.01511 0.86199 0.0
H315 H 0.45763 0.02476 0.78994 0.0
H316 H 0.43621 0.03899 0.81295 0.0
H317 H 0.45362 1.01515 0.82527 0.0
H318 H 0.40694 0.95063 0.85787 0.0
H319 H 0.42027 0.96013 0.90628 0.0
H320 H 0.63613 0.456 0.8304 0.0
H321 H 0.62155 0.47888 0.79181 0.0
H322 H 0.65452 0.42982 0.73473 0.0
H323 H 0.66887 0.4069 0.77326 0.0
H324 H 0.65085 0.5076 0.74754 0.0
H325 H 0.57113 0.41654 0.70841 0.0
H326 H 0.58779 0.41873 0.74185 0.0
H327 H 0.60731 0.41335 0.71159 0.0
C328 C 0.64085 0.45054 0.80963 0.0
C329 C 0.65408 0.4299 0.80493 0.0
C330 C 0.63231 0.46351 0.78749 0.0
C331 C 0.63631 0.45589 0.76006 0.0
C332 C 0.65054 0.43587 0.75549 0.0
H333 H 0.58192 0.50054 0.59933 0.0
H334 H 0.60216 0.4806 0.63666 0.0
C335 C 0.65915 0.42298 0.7776 0.0
C336 C 0.62509 0.46836 0.7364 0.0
H337 H 0.57881 0.45428 0.68106 0.0
C338 C 0.63503 0.49589 0.73308 0.0
C339 C 0.60447 0.45332 0.71722 0.0
C340 C 0.5918 0.42389 0.71998 0.0
C341 C 0.62545 0.50857 0.71115 0.0
C342 C 0.60458 0.49356 0.6921 0.0
C343 C 0.59476 0.466 0.69538 0.0
C344 C 0.59234 0.50603 0.66901 0.0
C345 C 0.63853 0.53793 0.70827 0.0
C346 C 0.57948 0.52685 0.67429 0.0
C347 C 0.56794 0.53837 0.65288 0.0
C348 C 0.56847 0.52929 0.62537 0.0
C349 C 0.58097 0.50818 0.6201 0.0
C350 C 0.59264 0.4967 0.64157 0.0
H351 H 0.66012 0.54465 0.71834 0.0
H352 H 0.64091 0.54333 0.68636 0.0
H353 H 0.62423 0.54882 0.71841 0.0
H354 H 0.57798 0.53409 0.69514 0.0
H355 H 0.55831 0.55434 0.65804 0.0
H356 H 0.93569 0.71617 0.29456 0.0
H357 H 0.9501 0.69486 0.25335 0.0
H358 H 0.89807 0.619 0.27933 0.0
H359 H 0.88367 0.64044 0.32072 0.0
H360 H 0.98009 0.65543 0.25265 0.0
H361 H 0.87503 0.61909 0.19778 0.0
H362 H 0.88091 0.64429 0.22486 0.0
H363 H 0.87479 0.61008 0.23309 0.0
C364 C 0.9268 0.69502 0.29114 0.0
C365 C 0.90814 0.68003 0.31058 0.0
C366 C 0.93521 0.68281 0.26764 0.0
C367 C 0.92504 0.65527 0.26287 0.0
C368 C 0.90587 0.6403 0.28211 0.0
H369 H 0.95869 0.54475 0.13682 0.0
H370 H 0.94028 0.56677 0.17507 0.0
C371 C 0.89758 0.65256 0.30579 0.0
C372 C 0.93592 0.64228 0.23867 0.0
H373 H 0.9146 0.60535 0.17943 0.0
C374 C 0.96575 0.64458 0.23659 0.0
C375 C 0.91734 0.62791 0.21767 0.0
C376 C 0.88525 0.62529 0.21819 0.0
C377 C 0.97739 0.63262 0.21459 0.0
C378 C 0.95888 0.61848 0.19333 0.0
C379 C 0.92899 0.61619 0.19546 0.0
C380 C 0.96992 0.60539 0.1692 0.0
C381 C 1.00936 0.63454 0.21496 0.0
C382 C 0.99247 0.61962 0.1524 0.0
C383 C 1.00329 0.60691 0.13055 0.0
C384 C 0.99153 0.5797 0.1246 0.0
C385 C 0.96837 0.5657 0.14081 0.0
C386 C 0.95775 0.57834 0.16276 0.0
H387 H 0.01853 0.6387 0.23604 0.0
H388 H 1.0137 0.61599 0.20683 0.0
H389 H 0.02093 0.65108 0.20198 0.0
H390 H 1.00181 0.64064 0.15618 0.0
H391 H 0.02101 0.61836 0.11844 0.0
H392 H 0.376 0.25936 0.16113 0.0
H393 H 0.40138 0.22724 0.14465 0.0
H394 H 0.41577 0.20893 0.22825 0.0
H395 H 0.38998 0.24083 0.24487 0.0
H396 H 0.45607 0.22414 0.15255 0.0
H397 H 0.37792 0.13613 0.195 0.0
H398 H 0.37046 0.168 0.19364 0.0
H399 H 0.39336 0.16162 0.22024 0.0
C400 C 0.38483 0.24868 0.176 0.0
C401 C 0.38091 0.25251 0.20428 0.0
C402 C 0.3992 0.23025 0.16657 0.0
C403 C 0.40997 0.2153 0.1852 0.0
C404 C 0.40695 0.21971 0.21349 0.0
H405 H 0.53055 0.12523 0.13185 0.0
H406 H 0.50779 0.15537 0.15683 0.0
C407 C 0.39236 0.23802 0.22295 0.0
C408 C 0.42438 0.1952 0.17482 0.0
H409 H 0.42018 0.12911 0.17437 0.0
C410 C 0.44828 0.20337 0.15737 0.0
C411 C 0.4139 0.16805 0.18085 0.0
C412 C 0.38734 0.15781 0.19824 0.0
C413 C 0.46195 0.18516 0.14567 0.0
C414 C 0.45191 0.15809 0.1522 0.0
C415 C 0.42804 0.14991 0.16969 0.0
C416 C 0.46503 0.13786 0.13989 0.0
C417 C 0.48638 0.19499 0.1257 0.0
C418 C 0.4482 0.11703 0.12335 0.0
C419 C 0.46105 0.09948 0.10936 0.0
C420 C 0.491 0.10255 0.11161 0.0
C421 C 0.50748 0.12253 0.1294 0.0
C422 C 0.49456 0.13989 0.14357 0.0
H423 H 0.48636 0.21456 0.11758 0.0
H424 H 0.50736 0.19728 0.13634 0.0
H425 H 0.48499 0.18073 0.1081 0.0
H426 H 0.42531 0.11499 0.12039 0.0
H427 H 0.44774 0.0843 0.09584 0.0
H428 H 0.27435 0.94967 0.62474 0.0
H429 H 0.2309 0.96514 0.63329 0.0
H430 H 0.2669 0.03335 0.58434 0.0
H431 H 0.3103 1.01792 0.57588 0.0
H432 H 0.23635 0.04233 0.6363 0.0
H433 H 0.17405 0.9605 0.56672 0.0
H434 H 0.19378 0.95201 0.59478 0.0
H435 H 0.21313 0.97064 0.56708 0.0
C436 C 0.27302 0.96818 0.61626 0.0
C437 C 0.29522 0.9827 0.59963 0.0
C438 C 0.24834 0.97695 0.62112 0.0
C439 C 0.24574 1.00025 0.60927 0.0
C440 C 0.26864 1.01537 0.5937 0.0
H441 H 0.13633 0.09124 0.56429 0.0
H442 H 0.17462 0.07468 0.58362 0.0
C443 C 0.29328 1.00657 0.58882 0.0
C444 C 0.2182 1.00771 0.61065 0.0
H445 H 0.15105 0.99237 0.58155 0.0
C446 C 0.21747 0.03124 0.62473 0.0
C447 C 0.19361 0.99299 0.59576 0.0
C448 C 0.19349 0.96768 0.58007 0.0
C449 C 0.19304 0.04104 0.62335 0.0
C450 C 0.16918 0.02726 0.60688 0.0
C451 C 0.16935 1.00293 0.59416 0.0
C452 C 0.14558 0.03911 0.59949 0.0
C453 C 0.19326 0.06629 0.63914 0.0
C454 C 0.11646 0.02456 0.60177 0.0
C455 C 0.09453 0.03382 0.59024 0.0
C456 C 0.10147 0.0577 0.57623 0.0
C457 C 0.13043 0.07277 0.57502 0.0
C458 C 0.15231 0.06347 0.58638 0.0
H459 H 0.2066 0.06842 0.65809 0.0
H460 H 0.20306 0.08347 0.62624 0.0
H461 H 0.17105 0.06698 0.64491 0.0
H462 H 0.11082 1.00557 0.61153 0.0
H463 H 0.07237 0.02173 0.59124 0.0
H464 H 0.72329 0.40694 0.9555 0.0
H465 H 0.76862 0.43312 0.97598 0.0
H466 H 0.80234 0.45564 0.89554 0.0
H467 H 0.75703 0.42847 0.87467 0.0
H468 H 0.84229 0.44147 0.92624 0.0
H469 H 0.79895 0.51161 0.98871 0.0
H470 H 0.78091 0.47788 0.99599 0.0
H471 H 0.77778 0.49016 0.96233 0.0
C472 C 0.74027 0.4174 0.942 0.0
C473 C 0.73628 0.41528 0.91325 0.0
C474 C 0.76623 0.43275 0.95388 0.0
C475 C 0.78909 0.44687 0.93752 0.0
C476 C 0.78513 0.44514 0.90879 0.0
H477 H 0.94243 0.56228 1.0103 0.0
H478 H 0.89742 0.54106 0.98542 0.0
C479 C 0.75903 0.42972 0.89682 0.0
C480 C 0.81735 0.46231 0.95045 0.0
H481 H 0.84655 0.50909 1.00063 0.0
C482 C 0.84317 0.4564 0.94235 0.0
C483 C 0.81898 0.4822 0.97129 0.0
C484 C 0.79272 0.49106 0.9799 0.0
C485 C 0.87006 0.46902 0.95493 0.0
C486 C 0.87141 0.48787 0.97679 0.0
C487 C 0.84576 0.49443 0.98426 0.0
C488 C 0.89907 0.50089 0.99217 0.0
C489 C 0.89686 0.46223 0.9443 0.0
C490 C 0.91512 0.48564 1.0049 0.0
C491 C 0.941 0.49776 1.0191 0.0
C492 C 0.95156 0.52557 1.02132 0.0
C493 C 0.93518 0.54085 1.00906 0.0
C494 C 0.9093 0.52868 0.99477 0.0
H495 H 0.89392 0.45441 0.92275 0.0
H496 H 0.91598 0.47978 0.94525 0.0
H497 H 0.90139 0.44664 0.95706 0.0
H498 H 0.90753 0.46423 1.00405 0.0
H499 H 0.95272 0.48523 0.02838 0.0
H500 H 0.82842 0.66238 0.42126 0.0
H501 H 0.78322 0.63865 0.44342 0.0
H502 H 0.74652 0.70331 0.42737 0.0
H503 H 0.79183 0.72726 0.40592 0.0
H504 H 0.73748 0.69053 0.47844 0.0
H505 H 0.7053 0.59732 0.41603 0.0
H506 H 0.74108 0.60335 0.43005 0.0
H507 H 0.73354 0.6256 0.40548 0.0
C508 C 0.81047 0.67125 0.42189 0.0
C509 C 0.81381 0.69674 0.41173 0.0
C510 C 0.78451 0.65761 0.43457 0.0
C511 C 0.76104 0.66892 0.43697 0.0
C512 C 0.76412 0.69402 0.42595 0.0
H513 H 0.58501 0.59039 0.49373 0.0
H514 H 0.62839 0.60892 0.46612 0.0
C515 C 0.79009 0.70772 0.41358 0.0
C516 C 0.73414 0.65577 0.45261 0.0
H517 H 0.68014 0.59808 0.45837 0.0
C518 C 0.72494 0.67034 0.47387 0.0
C519 C 0.71728 0.62948 0.44668 0.0
C520 C 0.7246 0.61311 0.42314 0.0
C521 C 0.69992 0.65947 0.48939 0.0
C522 C 0.68374 0.63283 0.48425 0.0
C523 C 0.69259 0.61834 0.4627 0.0
C524 C 0.65756 0.61992 0.5009 0.0
C525 C 0.69073 0.677 0.51076 0.0
C526 C 0.65937 0.61907 0.52965 0.0
C527 C 0.63458 0.6087 0.54544 0.0
C528 C 0.60732 0.5985 0.5329 0.0
C529 C 0.60565 0.59818 0.50405 0.0
C530 C 0.63048 0.60878 0.48824 0.0
H531 H 0.69974 0.69832 0.50643 0.0
H532 H 0.66678 0.67265 0.51185 0.0
H533 H 0.69898 0.67352 0.53116 0.0
H534 H 0.68 0.62672 0.54001 0.0
H535 H 0.63672 0.60898 0.56758 0.0
H536 H 0.29732 0.36165 0.2352 0.0
H537 H 0.25811 0.38297 0.22797 0.0
H538 H 0.27926 0.38925 0.14182 0.0
H539 H 0.31818 0.36786 0.14903 0.0
H540 H 0.26032 0.43361 0.20521 0.0
H541 H 0.19217 0.34934 0.14335 0.0
H542 H 0.22188 0.34627 0.16446 0.0
H543 H 0.22876 0.36087 0.13135 0.0
C544 C 0.29351 0.36773 0.21481 0.0
C545 C 0.31041 0.36321 0.19259 0.0
C546 C 0.27125 0.37987 0.2107 0.0
C547 C 0.26561 0.38736 0.18431 0.0
C548 C 0.283 0.38324 0.16226 0.0
H549 H 0.16737 0.49019 0.12547 0.0
H550 H 0.20504 0.47135 0.14288 0.0
C551 C 0.30522 0.37117 0.16637 0.0
C552 C 0.24136 0.3992 0.17955 0.0
H553 H 0.17861 0.38973 0.14316 0.0
C554 C 0.2423 0.42398 0.19183 0.0
C555 C 0.21771 0.38638 0.16241 0.0
C556 C 0.21482 0.35913 0.14982 0.0
C557 C 0.22063 0.4367 0.18665 0.0
C558 C 0.19769 0.4244 0.16847 0.0
C559 C 0.19633 0.39924 0.15693 0.0
C560 C 0.17509 0.43734 0.16054 0.0
C561 C 0.22241 0.4631 0.20076 0.0
C562 C 0.14575 0.42446 0.16459 0.0
C563 C 0.1242 0.4351 0.15453 0.0
C564 C 0.13158 0.4588 0.14012 0.0
C565 C 0.161 0.4721 0.13681 0.0
C566 C 0.18256 0.46138 0.1468 0.0
H567 H 0.23599 0.46605 0.21961 0.0
H568 H 0.2324 0.47918 0.18661 0.0
H569 H 0.20055 0.46493 0.20638 0.0
H570 H 0.1395 0.40587 0.1751 0.0
H571 H 0.10173 0.42456 0.1577 0.0
H572 H 0.70045 0.31927 0.92337 0.0
H573 H 0.67972 0.27635 0.94419 0.0
H574 H 0.59399 0.28583 0.93344 0.0
H575 H 0.61447 0.32861 0.91262 0.0
H576 H 0.64717 0.26117 0.98964 0.0
H577 H 0.58339 0.21334 0.89874 0.0
H578 H 0.6105 0.24468 0.89709 0.0
H579 H 0.57475 0.24326 0.90966 0.0
C580 C 0.67716 0.31235 0.9255 0.0
C581 C 0.65925 0.32761 0.91592 0.0
C582 C 0.66528 0.28762 0.9374 0.0
C583 C 0.63511 0.27727 0.94001 0.0
C584 C 0.61724 0.29273 0.93102 0.0
H585 H 0.51335 0.14014 1.00737 0.0
H586 H 0.53937 0.18207 0.98756 0.0
C587 C 0.62907 0.31737 0.91907 0.0
C588 C 0.62233 0.25059 0.95234 0.0
H589 H 0.57249 0.19067 0.94076 0.0
C590 C 0.63104 0.2457 0.9788 0.0
C591 C 0.60131 0.23007 0.93836 0.0
C592 C 0.59214 0.23295 0.9093 0.0
C593 C 0.61865 0.22153 0.9919 0.0
C594 C 0.59712 0.20131 0.97815 0.0
C595 C 0.58884 0.20604 0.95151 0.0
C596 C 0.58186 0.17565 0.99129 0.0
C597 C 0.628 0.21824 1.02078 0.0
C598 C 0.59683 0.1576 1.00019 0.0
C599 C 0.58181 0.1333 1.01161 0.0
C600 C 0.55147 0.12647 1.01435 0.0
C601 C 0.53669 0.14464 1.00561 0.0
C602 C 0.55159 0.16873 0.99418 0.0
H603 H 0.63959 0.2375 0.03074 0.0
H604 H 0.60906 0.20873 0.0336 0.0
H605 H 0.64288 0.20529 1.02025 0.0
H606 H 0.62009 0.16205 0.99784 0.0
H607 H 0.59389 0.11976 1.01797 0.0
H608 H 0.85262 0.79256 0.41931 0.0
H609 H 0.87163 0.83615 0.44158 0.0
H610 H 0.95647 0.82307 0.44518 0.0
H611 H 0.93736 0.77891 0.42424 0.0
H612 H 0.94477 0.84483 0.49248 0.0
H613 H 0.91871 0.90274 0.40785 0.0
H614 H 0.88748 0.87876 0.42032 0.0
H615 H 0.91616 0.86788 0.40393 0.0
C616 C 0.8753 0.79877 0.42497 0.0
C617 C 0.89336 0.78196 0.41965 0.0
C618 C 0.88628 0.82401 0.43743 0.0
C619 C 0.91572 0.83338 0.44467 0.0
C620 C 0.93374 0.81657 0.43965 0.0
H621 H 1.00917 0.9979 0.48155 0.0
H622 H 0.9883 0.95375 0.4613 0.0
C623 C 0.92277 0.79129 0.42733 0.0
C624 C 0.92769 0.86038 0.45789 0.0
H625 H 0.93443 0.92642 0.4498 0.0
C626 C 0.94252 0.86265 0.48308 0.0
C627 C 0.92524 0.88386 0.44561 0.0
C628 C 0.9113 0.8833 0.41782 0.0
C629 C 0.95465 0.88747 0.49633 0.0
C630 C 0.95138 0.91088 0.48448 0.0
C631 C 0.93675 0.90861 0.45918 0.0
C632 C 0.96391 0.93797 0.49732 0.0
C633 C 0.9716 0.88833 0.52251 0.0
C634 C 0.95706 0.9443 0.52438 0.0
C635 C 0.96923 0.96967 0.5362 0.0
C636 C 0.98828 0.98953 0.52114 0.0
C637 C 0.99464 0.98327 0.49389 0.0
C638 C 0.98264 0.9579 0.48219 0.0
H639 H 0.97912 0.8702 0.52452 0.0
H640 H 0.99076 0.90585 0.52348 0.0
H641 H 0.95751 0.88961 0.54033 0.0
H642 H 0.94211 0.92967 0.53638 0.0
H643 H 0.96359 0.9737 0.55712 0.0
H644 H 0.42862 0.90151 0.62319 0.0
H645 H 0.44294 0.86139 0.61065 0.0
H646 H 0.36422 0.83192 0.56363 0.0
H647 H 0.34939 0.87183 0.57666 0.0
H648 H 0.37354 0.79636 0.60085 0.0
H649 H 0.47198 0.83538 0.53897 0.0
H650 H 0.47297 0.85342 0.571 0.0
H651 H 0.44583 0.85395 0.54579 0.0
C652 C 0.41449 0.88658 0.60998 0.0
C653 C 0.38787 0.88973 0.60096 0.0
C654 C 0.42284 0.86384 0.60257 0.0
C655 C 0.40483 0.84391 0.58588 0.0
C656 C 0.37854 0.84724 0.57629 0.0
H657 H 0.46657 0.70372 0.54626 0.0
H658 H 0.44454 0.74033 0.54018 0.0
C659 C 0.37018 0.87006 0.58365 0.0
C660 C 0.41229 0.81862 0.58089 0.0
H661 H 0.46741 0.79317 0.55967 0.0
C662 C 0.3938 0.79552 0.59136 0.0
C663 C 0.4385 0.81752 0.56816 0.0
C664 C 0.45832 0.84136 0.55508 0.0
C665 C 0.40175 0.7717 0.59105 0.0
C666 C 0.42903 0.77117 0.58033 0.0
C667 C 0.44665 0.79377 0.56819 0.0
C668 C 0.44073 0.74813 0.58369 0.0
C669 C 0.38125 0.74748 0.60284 0.0
C670 C 0.44598 0.74064 0.61014 0.0
C671 C 0.45851 0.71987 0.61367 0.0
C672 C 0.46612 0.70628 0.59077 0.0
C673 C 0.46065 0.7137 0.56425 0.0
C674 C 0.4482 0.73461 0.56074 0.0
H675 H 0.35851 0.74877 0.60232 0.0
H676 H 0.38254 0.72916 0.59146 0.0
H677 H 0.38715 0.74589 0.62459 0.0
H678 H 0.44083 0.75118 0.62809 0.0
H679 H 0.46224 0.71444 0.63433 0.0
H680 H 0.75579 0.8736 0.84936 0.0
H681 H 0.78174 0.89935 0.81146 0.0
H682 H 0.79419 0.82792 0.77332 0.0
H683 H 0.76745 0.80207 0.81045 0.0
H684 H 0.83771 0.90369 0.80087 0.0
H685 H 0.77371 0.86402 0.70752 0.0
H686 H 0.75905 0.85798 0.74165 0.0
H687 H 0.78104 0.8381 0.72705 0.0
C688 C 0.76327 0.86331 0.83244 0.0
C689 C 0.75978 0.83585 0.83297 0.0
C690 C 0.77822 0.87805 0.81089 0.0
C691 C 0.78972 0.86555 0.78943 0.0
C692 C 0.78505 0.83797 0.78931 0.0
H693 H 0.94669 0.93028 0.70001 0.0
H694 H 0.90787 0.90502 0.72914 0.0
C695 C 0.77008 0.82325 0.81076 0.0
C696 C 0.80957 0.88145 0.76907 0.0
H697 H 0.82401 0.88682 0.70044 0.0
C698 C 0.83448 0.90024 0.7789 0.0
C699 C 0.80529 0.87712 0.7404 0.0
C700 C 0.77816 0.8584 0.72853 0.0
C701 C 0.85572 0.9141 0.76093 0.0
C702 C 0.85229 0.90858 0.73236 0.0
C703 C 0.82685 0.89061 0.72239 0.0
C704 C 0.87492 0.92153 0.71264 0.0
C705 C 0.88164 0.93458 0.77275 0.0
C706 C 0.86888 0.93813 0.6928 0.0
C707 C 0.89096 0.95244 0.67603 0.0
C708 C 0.91946 0.95033 0.67878 0.0
C709 C 0.92506 0.93261 0.6977 0.0
C710 C 0.90295 0.91823 0.71438 0.0
H711 H 0.87721 0.94153 0.79367 0.0
H712 H 0.9001 0.9257 0.77426 0.0
H713 H 0.88822 0.95198 0.75942 0.0
H714 H 0.84736 0.94084 0.69107 0.0
H715 H 0.88599 0.96612 0.66186 0.0
H716 H 0.75347 0.21449 0.39769 0.0
H717 H 0.73395 0.21007 0.3512 0.0
H718 H 0.64752 0.18017 0.38292 0.0
H719 H 0.66708 0.18298 0.42944 0.0
H720 H 0.65751 0.14826 0.34434 0.0
H721 H 0.69199 0.24961 0.30542 0.0
H722 H 0.7224 0.2402 0.31876 0.0
H723 H 0.69348 0.24296 0.34144 0.0
C724 C 0.73027 0.20712 0.39483 0.0
C725 C 0.71189 0.19878 0.41731 0.0
C726 C 0.71908 0.20505 0.36822 0.0
C727 C 0.6892 0.19512 0.36354 0.0
C728 C 0.67063 0.18804 0.38606 0.0
H729 H 0.62043 0.17668 0.19495 0.0
H730 H 0.63109 0.19208 0.24278 0.0
C731 C 0.68185 0.18984 0.41269 0.0
C732 C 0.67796 0.18897 0.33509 0.0
H733 H 0.68191 0.21395 0.27084 0.0
C734 C 0.66243 0.16278 0.3284 0.0
C735 C 0.68399 0.20793 0.31428 0.0
C736 C 0.6986 0.2368 0.32043 0.0
C737 C 0.65402 0.15474 0.30131 0.0
C738 C 0.6621 0.17319 0.28019 0.0
C739 C 0.67626 0.19971 0.287 0.0
C740 C 0.65683 0.16499 0.2509 0.0
C741 C 0.63671 0.12647 0.2956 0.0
C742 C 0.66848 0.14524 0.23946 0.0
C743 C 0.66235 0.13637 0.21231 0.0
C744 C 0.6448 0.14737 0.19595 0.0
C745 C 0.63412 0.16793 0.20708 0.0
C746 C 0.6401 0.17667 0.23437 0.0
H747 H 0.62467 0.11768 0.31409 0.0
H748 H 0.62099 0.12513 0.2786 0.0
H749 H 0.65166 0.11438 0.28966 0.0
H750 H 0.68213 0.1365 0.25164 0.0
H751 H 0.67129 0.12084 0.2041 0.0
H752 H 0.42938 0.6715 0.28787 0.0
H753 H 0.44255 0.64816 0.32672 0.0
H754 H 0.41509 0.70143 0.38317 0.0
H755 H 0.40148 0.72435 0.34433 0.0
H756 H 0.4831 0.66673 0.36532 0.0
H757 H 0.37827 0.63268 0.41893 0.0
H758 H 0.38089 0.64497 0.38456 0.0
H759 H 0.38856 0.66769 0.41373 0.0
C760 C 0.42532 0.67767 0.30859 0.0
C761 C 0.41366 0.69935 0.31299 0.0
C762 C 0.43314 0.66447 0.33089 0.0
C763 C 0.42954 0.67256 0.35825 0.0
C764 C 0.41745 0.69408 0.36254 0.0
H765 H 0.48222 0.62816 0.5199 0.0
H766 H 0.46367 0.649 0.48212 0.0
C767 C 0.40962 0.70725 0.34023 0.0
C768 C 0.44018 0.65973 0.38203 0.0
H769 H 0.42009 0.62975 0.44348 0.0
C770 C 0.46915 0.65849 0.38226 0.0
C771 C 0.42234 0.64903 0.40455 0.0
C772 C 0.39072 0.64839 0.40539 0.0
C773 C 0.48076 0.64743 0.40416 0.0
C774 C 0.46291 0.63663 0.42661 0.0
C775 C 0.43397 0.63796 0.4265 0.0
C776 C 0.47378 0.62353 0.45 0.0
C777 C 0.51239 0.64807 0.40331 0.0
C778 C 0.4853 0.60182 0.44503 0.0
C779 C 0.49592 0.58984 0.46664 0.0
C780 C 0.49526 0.599 0.49411 0.0
C781 C 0.48323 0.62046 0.49917 0.0
C782 C 0.47254 0.63245 0.47746 0.0
H783 H 0.52482 0.66359 0.38956 0.0
H784 H 0.52228 0.65177 0.42412 0.0
H785 H 0.51454 0.62867 0.39528 0.0
H786 H 0.48599 0.59396 0.42431 0.0
H787 H 0.50475 0.5733 0.46171 0.0
H788 H 0.17989 0.42704 0.84644 0.0
H789 H 0.16325 0.44999 0.8852 0.0
H790 H 0.13075 0.4969 0.82862 0.0
H791 H 0.14678 0.47331 0.7898 0.0
H792 H 0.17382 0.49952 0.90497 0.0
H793 H 0.05892 0.46674 0.87233 0.0
H794 H 0.08653 0.45401 0.85619 0.0
H795 H 0.08208 0.48565 0.84693 0.0
C796 C 0.16973 0.44265 0.84232 0.0
C797 C 0.16498 0.44864 0.81512 0.0
C798 C 0.16002 0.45569 0.86452 0.0
C799 C 0.14504 0.4749 0.8601 0.0
C800 C 0.1415 0.48173 0.8328 0.0
H801 H 0.1095 0.58302 0.98813 0.0
H802 H 0.12934 0.56183 0.9503 0.0
C803 C 0.15111 0.46856 0.81056 0.0
C804 C 0.13276 0.48719 0.88401 0.0
H805 H 0.07001 0.49774 0.90989 0.0
C806 C 0.1511 0.49908 0.90597 0.0
C807 C 0.10293 0.48625 0.88593 0.0
C808 C 0.08139 0.47225 0.86424 0.0
C809 C 0.14073 0.51034 0.92927 0.0
C810 C 0.11116 0.51038 0.93066 0.0
C811 C 0.0927 0.49807 0.90893 0.0
C812 C 0.09903 0.52323 0.95424 0.0
C813 C 0.16157 0.52152 0.95249 0.0
C814 C 0.07469 0.50902 0.96898 0.0
C815 C 0.063 0.5213 0.99062 0.0
C816 C 0.07529 0.54814 0.99798 0.0
C817 C 0.09958 0.56228 0.98323 0.0
C818 C 0.11114 0.55007 0.9616 0.0
H819 H 0.1801 0.51257 0.95238 0.0
H820 H 0.17044 0.54317 0.95009 0.0
H821 H 0.15067 0.51816 0.97273 0.0
H822 H 0.0647 0.48836 0.96377 0.0
H823 H 0.0442 0.50985 1.00141 0.0
H824 H 0.62602 0.83942 0.89444 0.0
H825 H 0.6055 0.87671 0.90529 0.0
H826 H 0.68641 0.91982 0.943 0.0
H827 H 0.70695 0.88271 0.93174 0.0
H828 H 0.59892 0.89435 0.95753 0.0
H829 H 0.66666 0.97685 0.89839 0.0
H830 H 0.66567 0.94265 0.89107 0.0
H831 H 0.68756 0.96082 0.91886 0.0
C832 C 0.63952 0.85718 0.90443 0.0
C833 C 0.668 0.85855 0.91211 0.0
C834 C 0.62783 0.87839 0.91067 0.0
C835 C 0.64454 0.90122 0.92462 0.0
C836 C 0.67334 0.90273 0.93163 0.0
H837 H 0.61505 0.03291 1.01785 0.0
H838 H 0.63492 1.00111 0.99216 0.0
C839 C 0.68502 0.88154 0.92535 0.0
C840 C 0.63101 0.92215 0.93444 0.0
H841 H 0.63841 0.98882 0.93485 0.0
C842 C 0.60728 0.91495 0.95225 0.0
C843 C 0.64208 0.94904 0.92767 0.0
C844 C 0.66673 0.95781 0.90774 0.0
C845 C 0.59493 0.93399 0.96423 0.0
C846 C 0.60631 0.96094 0.95785 0.0
C847 C 0.62973 0.96814 0.93967 0.0
C848 C 0.59491 0.98195 0.97093 0.0
C849 C 0.57054 0.9252 0.98447 0.0
C850 C 0.56606 0.98225 0.96682 0.0
C851 C 0.55457 1.00035 0.98153 0.0
C852 C 0.57179 1.0186 1.00053 0.0
C853 C 0.60111 1.0191 1.0035 0.0
C854 C 0.61255 1.00095 0.98881 0.0
H855 H 0.56865 0.9049 0.99164 0.0
H856 H 0.57367 0.93901 1.00263 0.0
H857 H 0.54978 0.92516 0.97448 0.0
H858 H 0.55223 0.96804 0.95273 0.0
H859 H 0.53197 0.99951 0.97852 0.0
H860 H 0.8105 0.20003 0.44361 0.0
H861 H 0.85379 0.18405 0.44811 0.0
H862 H 0.81289 0.1338 0.51349 0.0
H863 H 0.76938 0.14892 0.50854 0.0
H864 H 0.88897 0.18829 0.4935 0.0
H865 H 0.842 0.08305 0.46343 0.0
H866 H 0.82418 0.10841 0.45632 0.0
H867 H 0.82083 0.09376 0.48955 0.0
C868 C 0.81062 0.18527 0.45864 0.0
C869 C 0.78656 0.17569 0.47572 0.0
C870 C 0.83536 0.17628 0.46125 0.0
C871 C 0.83629 0.15744 0.48079 0.0
C872 C 0.81235 0.14792 0.49786 0.0
H873 H 0.96375 0.1225 0.578 0.0
H874 H 0.93077 0.14255 0.55399 0.0
C875 C 0.78766 0.15685 0.49527 0.0
C876 C 0.86271 0.14859 0.48463 0.0
H877 H 0.88509 0.09277 0.49173 0.0
C878 C 0.88836 0.16746 0.49261 0.0
C879 C 0.86207 0.12149 0.48278 0.0
C880 C 0.83586 0.10056 0.47225 0.0
C881 C 0.91277 0.1597 0.5008 0.0
C882 C 0.91112 0.13239 0.50155 0.0
C883 C 0.8862 0.1137 0.49157 0.0
C884 C 0.93365 0.12255 0.51492 0.0
C885 C 0.93984 0.18078 0.50912 0.0
C886 C 0.94585 0.10433 0.50107 0.0
C887 C 0.9643 0.09251 0.51493 0.0
C888 C 0.97078 0.09877 0.54281 0.0
C889 C 0.95915 0.11745 0.55646 0.0
C890 C 0.94058 0.12913 0.54267 0.0
H891 H 0.94143 0.19942 0.4982 0.0
H892 H 0.93907 0.18531 0.53146 0.0
H893 H 0.95961 0.1742 0.5048 0.0
H894 H 0.94052 0.09877 0.47975 0.0
H895 H 0.97285 0.07797 0.50402 0.0
H896 H 0.3073 0.74912 0.20611 0.0
H897 H 0.26271 0.72221 0.18471 0.0
H898 H 0.29381 0.65274 0.19019 0.0
H899 H 0.33894 0.67975 0.21138 0.0
H900 H 0.25745 0.69335 0.13526 0.0
H901 H 0.21121 0.62654 0.21993 0.0
H902 H 0.23992 0.6566 0.22546 0.0
H903 H 0.24779 0.62754 0.21064 0.0
C904 C 0.30481 0.72811 0.20284 0.0
C905 C 0.32714 0.71681 0.21038 0.0
C906 C 0.27909 0.71266 0.19063 0.0
C907 C 0.27454 0.68529 0.18581 0.0
C908 C 0.29638 0.6737 0.194 0.0
H909 H 0.12759 0.56685 0.10644 0.0
H910 H 0.17335 0.58903 0.12976 0.0
C911 C 0.32228 0.68922 0.2062 0.0
C912 C 0.24763 0.66949 0.171 0.0
H913 H 0.18624 0.61824 0.17745 0.0
C914 C 0.24191 0.67694 0.14456 0.0
C915 C 0.22728 0.64784 0.18282 0.0
C916 C 0.2316 0.63919 0.21135 0.0
C917 C 0.21674 0.66351 0.12974 0.0
C918 C 0.19595 0.64229 0.14181 0.0
C919 C 0.20191 0.6345 0.16807 0.0
C920 C 0.16771 0.62851 0.12779 0.0
C921 C 0.21305 0.67197 0.10096 0.0
C922 C 0.14871 0.64299 0.11914 0.0
C923 C 0.12256 0.63035 0.10569 0.0
C924 C 0.11427 0.6027 0.10074 0.0
C925 C 0.13305 0.58811 0.10985 0.0
C926 C 0.15934 0.60083 0.12324 0.0
H927 H 0.23422 0.68198 0.09167 0.0
H928 H 0.20207 0.6548 0.08745 0.0
H929 H 0.1997 0.68628 0.1016 0.0
H930 H 0.154 0.6642 0.12295 0.0
H931 H 0.1087 0.64235 0.09936 0.0
H932 H 0.26873 0.44497 0.74225 0.0
H933 H 0.31399 0.47071 0.72132 0.0
H934 H 0.27388 0.45545 0.64133 0.0
H935 H 0.22874 0.43059 0.66206 0.0
H936 H 0.34834 0.45347 0.6843 0.0
H937 H 0.31166 0.53354 0.63763 0.0
H938 H 0.29047 0.51225 0.66291 0.0
H939 H 0.28923 0.50148 0.62736 0.0
C940 C 0.26937 0.44768 0.72029 0.0
C941 C 0.24499 0.43562 0.7039 0.0
C942 C 0.29537 0.46223 0.70828 0.0
C943 C 0.29749 0.46539 0.67965 0.0
C944 C 0.27289 0.45391 0.66345 0.0
H945 H 0.42574 0.51495 0.55334 0.0
H946 H 0.3826 0.49931 0.58177 0.0
C947 C 0.24705 0.4394 0.67537 0.0
C948 C 0.32565 0.47914 0.66635 0.0
H949 H 0.35577 0.52629 0.61974 0.0
C950 C 0.35006 0.46967 0.67052 0.0
C951 C 0.32814 0.50033 0.64827 0.0
C952 C 0.30355 0.51268 0.64398 0.0
C953 C 0.37623 0.4799 0.6563 0.0
C954 C 0.37839 0.5005 0.63755 0.0
C955 C 0.35424 0.51044 0.63394 0.0
C956 C 0.40491 0.51106 0.62051 0.0
C957 C 0.40099 0.46777 0.66058 0.0
C958 C 0.43198 0.52347 0.63261 0.0
C959 C 0.45678 0.53255 0.61629 0.0
C960 C 0.45507 0.52942 0.5875 0.0
C961 C 0.42787 0.51758 0.57544 0.0
C962 C 0.40313 0.50863 0.59171 0.0
H963 H 0.39389 0.4485 0.67092 0.0
H964 H 0.41116 0.46463 0.64069 0.0
H965 H 0.41773 0.48143 0.67367 0.0
H966 H 0.43395 0.5261 0.65471 0.0
H967 H 0.47735 0.54167 0.62624 0.0
H968 H 0.81149 0.80159 0.89862 0.0
H969 H 0.84033 0.77474 0.91825 0.0
H970 H 0.76259 0.7128 0.93347 0.0
H971 H 0.73343 0.73943 0.91314 0.0
H972 H 0.83499 0.75472 0.97267 0.0
H973 H 0.81667 0.67463 0.89164 0.0
H974 H 0.80976 0.70623 0.88584 0.0
H975 H 0.78518 0.68223 0.90615 0.0
C976 C 0.8005 0.78209 0.90576 0.0
C977 C 0.77019 0.77251 0.90407 0.0
C978 C 0.81701 0.76687 0.91715 0.0
C979 C 0.80361 0.74171 0.92701 0.0
C980 C 0.77334 0.73204 0.92559 0.0
H981 H 0.89238 0.631 0.99447 0.0
H982 H 0.8545 0.65059 0.97871 0.0
C983 C 0.75673 0.74735 0.91422 0.0
C984 C 0.82163 0.72616 0.93936 0.0
H985 H 0.84751 0.67211 0.92833 0.0
C986 C 0.83757 0.73654 0.96312 0.0
C987 C 0.82473 0.70237 0.92693 0.0
C988 C 0.80837 0.69066 0.90113 0.0
C989 C 0.85706 0.72407 0.9745 0.0
C990 C 0.86117 0.70092 0.96139 0.0
C991 C 0.84441 0.68994 0.93822 0.0
C992 C 0.88394 0.68877 0.97056 0.0
C993 C 0.87316 0.73591 1.00041 0.0
C994 C 0.91304 0.70358 0.97067 0.0
C995 C 0.93462 0.6926 0.97989 0.0
C996 C 0.92763 0.6664 0.98887 0.0
C997 C 0.89847 0.65136 0.98809 0.0
C998 C 0.87683 0.66244 0.97894 0.0
H999 H 0.86133 0.7481 1.01227 0.0
H1000 H 0.87665 0.72027 1.01379 0.0
H1001 H 0.89462 0.74902 0.99489 0.0
H1002 H 0.91908 0.72376 0.96374 0.0
H1003 H 0.95674 0.70489 0.98047 0.0
H1004 H 0.42922 0.82285 0.23917 0.0
H1005 H 0.45014 0.8649 0.21701 0.0
H1006 H 0.40938 0.83181 0.14066 0.0
H1007 H 0.38937 0.78922 0.16215 0.0
H1008 H 0.487 0.87181 0.1636 0.0
H1009 H 0.38633 0.90493 0.15794 0.0
H1010 H 0.39119 0.88207 0.18335 0.0
H1011 H 0.38453 0.87109 0.14821 0.0
C1012 C 0.42487 0.82417 0.21756 0.0
C1013 C 0.40738 0.80211 0.2027 0.0
C1014 C 0.43675 0.84849 0.20494 0.0
C1015 C 0.43122 0.85177 0.17715 0.0
C1016 C 0.41373 0.83 0.1622 0.0
H1017 H 0.48053 0.99383 0.07449 0.0
H1018 H 0.45652 0.95023 0.09314 0.0
C1019 C 0.4021 0.80555 0.17471 0.0
C1020 C 0.44437 0.8777 0.16372 0.0
H1021 H 0.42862 0.93293 0.13937 0.0
C1022 C 0.47422 0.88516 0.15832 0.0
C1023 C 0.42776 0.89508 0.15637 0.0
C1024 C 0.39566 0.88814 0.16178 0.0
C1025 C 0.48784 0.90931 0.14583 0.0
C1026 C 0.47146 0.92728 0.13933 0.0
C1027 C 0.44143 0.91952 0.14435 0.0
C1028 C 0.48528 0.95431 0.12812 0.0
C1029 C 0.51962 0.91489 0.13911 0.0
C1030 C 0.50899 0.9718 0.14172 0.0
C1031 C 0.52284 0.99649 0.1309 0.0
C1032 C 0.51315 1.00489 0.10641 0.0
C1033 C 0.48868 0.988 0.09329 0.0
C1034 C 0.47493 0.963 0.10401 0.0
H1035 H 0.52626 0.89625 0.1363 0.0
H1036 H 0.52504 0.9264 0.12014 0.0
H1037 H 0.53254 0.92645 0.15638 0.0
H1038 H 0.51696 0.96634 0.1608 0.0
H1039 H 0.5414 1.00905 0.14177 0.0
H1040 H 0.21079 0.34197 0.68386 0.0
H1041 H 0.19029 0.29964 0.65958 0.0
H1042 H 0.10451 0.30242 0.68356 0.0
H1043 H 0.12461 0.34545 0.70646 0.0
H1044 H 0.16116 0.25297 0.67679 0.0
H1045 H 0.0908 0.28535 0.60361 0.0
H1046 H 0.11757 0.30856 0.62442 0.0
H1047 H 0.08271 0.29241 0.63852 0.0
C1048 C 0.18749 0.33394 0.68355 0.0
C1049 C 0.16948 0.34754 0.69713 0.0
C1050 C 0.17577 0.30947 0.66981 0.0
C1051 C 0.1457 0.29781 0.66917 0.0
C1052 C 0.12769 0.31112 0.68301 0.0
H1053 H 0.06366 0.12971 0.63454 0.0
H1054 H 0.08562 0.17337 0.6555 0.0
C1055 C 0.13935 0.33568 0.69657 0.0
C1056 C 0.13333 0.27143 0.65483 0.0
H1057 H 0.08239 0.23862 0.60775 0.0
C1058 C 0.14404 0.24994 0.66158 0.0
C1059 C 0.1113 0.26729 0.63454 0.0
C1060 C 0.10014 0.28969 0.62462 0.0
C1061 C 0.13305 0.22456 0.6492 0.0
C1062 C 0.10999 0.2201 0.62995 0.0
C1063 C 0.09973 0.24173 0.62273 0.0
C1064 C 0.09629 0.19329 0.61704 0.0
C1065 C 0.1468 0.20293 0.65651 0.0
C1066 C 0.09382 0.18975 0.58831 0.0
C1067 C 0.08075 0.16473 0.5762 0.0
C1068 C 0.06983 0.14254 0.5925 0.0
C1069 C 0.07211 0.14618 0.62125 0.0
C1070 C 0.08491 0.17122 0.63333 0.0
H1071 H 0.16935 0.21125 0.66405 0.0
H1072 H 0.1342 0.1912 0.67321 0.0
H1073 H 0.14714 0.1894 0.63862 0.0
H1074 H 0.1022 0.20636 0.57518 0.0
H1075 H 0.07938 0.16278 0.55402 0.0
H1076 H 0.65181 0.22405 0.5625 0.0
H1077 H 0.61983 0.25369 0.56536 0.0
H1078 H 0.64652 0.28094 0.48419 0.0
H1079 H 0.6782 0.25133 0.48134 0.0
H1080 H 0.63835 0.30834 0.56229 0.0
H1081 H 0.55852 0.26629 0.48009 0.0
H1082 H 0.58149 0.24794 0.49468 0.0
H1083 H 0.59516 0.27158 0.46853 0.0
C1084 C 0.65033 0.23612 0.54519 0.0
C1085 C 0.66699 0.23547 0.52162 0.0
C1086 C 0.63217 0.25295 0.54681 0.0
C1087 C 0.63043 0.2691 0.52477 0.0
C1088 C 0.64696 0.26812 0.5011 0.0
H1089 H 0.58671 0.40727 0.48352 0.0
H1090 H 0.60055 0.36607 0.48737 0.0
C1091 C 0.66512 0.25136 0.49952 0.0
C1092 C 0.6135 0.28879 0.52726 0.0
H1093 H 0.5635 0.31195 0.49366 0.0
C1094 C 0.62152 0.30887 0.54769 0.0
C1095 C 0.59154 0.28931 0.5082 0.0
C1096 C 0.58095 0.26746 0.48681 0.0
C1097 C 0.60945 0.33043 0.54846 0.0
C1098 C 0.58864 0.33165 0.52846 0.0
C1099 C 0.57957 0.31092 0.50889 0.0
C1100 C 0.57832 0.35554 0.52581 0.0
C1101 C 0.62021 0.35251 0.5696 0.0
C1102 C 0.56088 0.36297 0.54602 0.0
C1103 C 0.5527 0.38648 0.54379 0.0
C1104 C 0.56184 0.40284 0.52128 0.0
C1105 C 0.5789 0.39496 0.50088 0.0
C1106 C 0.58695 0.37149 0.50309 0.0
H1107 H 0.63917 0.35015 0.58126 0.0
H1108 H 0.62637 0.37197 0.55959 0.0
H1109 H 0.60262 0.35275 0.5844 0.0
H1110 H 0.55379 0.35069 0.56355 0.0
H1111 H 0.53922 0.39182 0.55964 0.0
loop_
_geom_bond_atom_site_label_1
_geom_bond_atom_site_label_2
_geom_bond_distance
_geom_bond_site_symmetry_2
_ccdc_geom_bond_type
H0 C3 0.929 . S
H1 C6 0.929 . S
H2 C8 0.930 . S
C3 H0 0.929 . S
C3 C4 1.398 . S
C3 C5 1.396 . S
C4 C3 1.398 . S
C4 C8 1.407 . S
C5 C3 1.396 . S
C5 C6 1.394 . S
C6 H1 0.929 . S
C6 C5 1.394 . S
C6 C7 1.382 . S
C7 C6 1.382 . S
C7 C8 1.392 . S
C7 N9 1.420 . S
C8 H2 0.930 . S
C8 C4 1.407 . S
C8 C7 1.392 . S
N9 C7 1.420 . S
N9 C10 1.244 . S
C10 N9 1.244 . S
H11 C14 0.929 . S
H12 C17 0.929 . S
H13 C19 0.930 . S
C14 H11 0.929 . S
C14 C15 1.398 . S
C14 C16 1.396 . S
C15 C14 1.398 . S
C15 C19 1.407 . S
C16 C14 1.396 . S
C16 C17 1.394 . S
C17 H12 0.929 . S
C17 C16 1.394 . S
C17 C18 1.382 . S
C18 C17 1.382 . S
C18 C19 1.392 . S
C18 N20 1.420 . S
C19 H13 0.930 . S
C19 C15 1.407 . S
C19 C18 1.392 . S
N20 C18 1.420 . S
N20 C21 1.244 . S
C21 N20 1.244 . S
H22 C25 0.929 . S
H23 C28 0.929 . S
H24 C30 0.930 . S
C25 H22 0.929 . S
C25 C26 1.398 . S
C25 C27 1.396 . S
C26 C25 1.398 . S
C26 C30 1.407 . S
C27 C25 1.396 . S
C27 C28 1.394 . S
C28 H23 0.929 . S
C28 C27 1.394 . S
C28 C29 1.382 . S
C29 C28 1.382 . S
C29 C30 1.392 . S
C29 N31 1.420 . S
C30 H24 0.930 . S
C30 C26 1.407 . S
C30 C29 1.392 . S
N31 C29 1.420 . S
N31 C32 1.244 . S
C32 N31 1.244 . S
H33 C36 0.929 . S
H34 C39 0.929 . S
H35 C41 0.930 . S
C36 H33 0.929 . S
C36 C37 1.398 . S
C36 C38 1.396 . S
C37 C36 1.398 . S
C37 C41 1.407 . S
C38 C36 1.396 . S
C38 C39 1.394 . S
C39 H34 0.929 . S
C39 C38 1.394 . S
C39 C40 1.382 . S
C40 C39 1.382 . S
C40 C41 1.392 . S
C40 N42 1.420 . S
C41 H35 0.930 . S
C41 C37 1.407 . S
C41 C40 1.392 . S
N42 C40 1.420 . S
N42 C43 1.244 . S
C43 N42 1.244 . S
H44 C47 0.929 . S
H45 C50 0.929 . S
H46 C52 0.930 . S
C47 H44 0.929 . S
C47 C48 1.398 . S
C47 C49 1.396 . S
C48 C47 1.398 . S
C48 C52 1.407 . S
C49 C47 1.396 . S
C49 C50 1.394 . S
C50 H45 0.929 . S
C50 C49 1.394 . S
C50 C51 1.382 . S
C51 C50 1.382 . S
C51 C52 1.392 . S
C51 N53 1.420 . S
C52 H46 0.930 . S
C52 C48 1.407 . S
C52 C51 1.392 . S
N53 C51 1.420 . S
N53 C54 1.244 . S
C54 N53 1.244 . S
H55 C58 0.929 . S
H56 C61 0.929 . S
H57 C63 0.930 . S
C58 H55 0.929 . S
C58 C59 1.398 . S
C58 C60 1.396 . S
C59 C58 1.398 . S
C59 C63 1.407 . S
C60 C58 1.396 . S
C60 C61 1.394 . S
C61 H56 0.929 . S
C61 C60 1.394 . S
C61 C62 1.382 . S
C62 C61 1.382 . S
C62 C63 1.392 . S
C62 N64 1.420 . S
C63 H57 0.930 . S
C63 C59 1.407 . S
C63 C62 1.392 . S
N64 C62 1.420 . S
N64 C65 1.244 . S
C65 N64 1.244 . S
H66 C69 0.929 . S
H67 C72 0.929 . S
H68 C74 0.930 . S
C69 H66 0.929 . S
C69 C70 1.398 . S
C69 C71 1.396 . S
C70 C69 1.398 . S
C70 C74 1.407 . S
C71 C69 1.396 . S
C71 C72 1.394 . S
C72 H67 0.929 . S
C72 C71 1.394 . S
C72 C73 1.382 . S
C73 C72 1.382 . S
C73 C74 1.392 . S
C73 N75 1.420 . S
C74 H68 0.930 . S
C74 C70 1.407 . S
C74 C73 1.392 . S
N75 C73 1.420 . S
N75 C76 1.244 . S
C76 N75 1.244 . S
H77 C80 0.929 . S
H78 C83 0.929 . S
H79 C85 0.930 . S
C80 H77 0.929 . S
C80 C81 1.398 . S
C80 C82 1.396 . S
C81 C80 1.398 . S
C81 C85 1.407 . S
C82 C80 1.396 . S
C82 C83 1.394 . S
C83 H78 0.929 . S
C83 C82 1.394 . S
C83 C84 1.382 . S
C84 C83 1.382 . S
C84 C85 1.392 . S
C84 N86 1.420 . S
C85 H79 0.930 . S
C85 C81 1.407 . S
C85 C84 1.392 . S
N86 C84 1.420 . S
N86 C87 1.244 . S
C87 N86 1.244 . S
La88 C90 2.928 . S
La88 O108 2.521 . S
La88 O109 2.628 . S
La88 O110 2.554 . S
La88 O111 2.757 . S
La88 O112 2.470 . S
La88 O117 2.482 1_455 S
La88 O119 2.503 1_545 S
La89 C99 2.928 1_545 S
La89 O111 2.482 1_655 S
La89 O113 2.503 1_655 S
La89 O114 2.521 1_545 S
La89 O115 2.628 1_545 S
La89 O116 2.554 . S
La89 O117 2.757 . S
La89 O118 2.470 1_545 S
C90 La88 2.928 . S
C90 C91 1.503 . S
C90 O108 1.261 . S
C90 O109 1.243 . S
C91 C90 1.503 . S
C91 C92 1.394 . S
C91 C96 1.373 . S
C92 C91 1.394 . S
C92 C93 1.380 . S
C92 H120 0.930 . S
C93 C92 1.380 . S
C93 C94 1.376 . S
C93 H121 0.930 . S
C94 C93 1.376 . S
C94 C95 1.370 . S
C95 C94 1.370 . S
C95 C96 1.396 . S
C95 H122 0.929 . S
C96 C91 1.373 . S
C96 C95 1.396 . S
C96 H123 0.929 . S
C97 O110 1.240 . S
C97 O111 1.289 . S
C98 O112 1.258 . S
C98 O113 1.256 . S
C99 La89 2.928 1_565 S
C99 C100 1.503 . S
C99 O114 1.261 . S
C99 O115 1.243 . S
C100 C99 1.503 . S
C100 C101 1.394 . S
C100 C105 1.373 . S
C101 C100 1.394 . S
C101 C102 1.380 . S
C101 H124 0.930 . S
C102 C101 1.380 . S
C102 C103 1.376 . S
C102 H125 0.930 . S
C103 C102 1.376 . S
C103 C104 1.370 . S
C104 C103 1.370 . S
C104 C105 1.396 . S
C104 H126 0.929 . S
C105 C100 1.373 . S
C105 C104 1.396 . S
C105 H127 0.929 . S
C106 O116 1.240 . S
C106 O117 1.289 . S
C107 O118 1.258 . S
C107 O119 1.256 1_655 S
O108 La88 2.521 . S
O108 C90 1.261 . S
O109 La88 2.628 . S
O109 C90 1.243 . S
O110 La88 2.554 . S
O110 C97 1.240 . S
O111 La88 2.757 . S
O111 La89 2.482 1_455 S
O111 C97 1.289 . S
O112 La88 2.470 . S
O112 C98 1.258 . S
O113 La89 2.503 1_455 S
O113 C98 1.256 . S
O114 La89 2.521 1_565 S
O114 C99 1.261 . S
O115 La89 2.628 1_565 S
O115 C99 1.243 . S
O116 La89 2.554 . S
O116 C106 1.240 . S
O117 La88 2.482 1_655 S
O117 La89 2.757 . S
O117 C106 1.289 . S
O118 La89 2.470 1_565 S
O118 C107 1.258 . S
O119 La88 2.503 1_565 S
O119 C107 1.256 1_455 S
H120 C92 0.930 . S
H121 C93 0.930 . S
H122 C95 0.929 . S
H123 C96 0.929 . S
H124 C101 0.930 . S
H125 C102 0.930 . S
H126 C104 0.929 . S
H127 C105 0.929 . S
La128 C130 2.928 . S
La128 O148 2.521 . S
La128 O149 2.628 . S
La128 O150 2.554 1_545 S
La128 O151 2.757 . S
La128 O152 2.470 . S
La128 O157 2.482 . S
La128 O159 2.503 . S
La129 C139 2.928 1_544 S
La129 O151 2.482 . S
La129 O153 2.503 . S
La129 O154 2.521 1_554 S
La129 O155 2.628 1_544 S
La129 O156 2.549 1_554 S
La129 O157 2.757 . S
La129 O158 2.470 . S
C130 La128 2.928 . S
C130 C131 1.503 . S
C130 O148 1.261 . S
C130 O149 1.243 . S
C131 C130 1.503 . S
C131 C132 1.394 . S
C131 C136 1.373 . S
C132 C131 1.394 . S
C132 C133 1.380 . S
C132 H160 0.930 . S
C133 C132 1.380 . S
C133 C134 1.376 . S
C133 H161 0.930 . S
C134 C133 1.376 . S
C134 C135 1.370 . S
C135 C134 1.370 . S
C135 C136 1.396 . S
C135 H162 0.929 . S
C136 C131 1.373 . S
C136 C135 1.396 . S
C136 H163 0.929 . S
C137 O150 1.240 . S
C137 O151 1.289 1_565 S
C138 O152 1.258 . S
C138 O153 1.256 . S
C139 La129 2.928 1_566 S
C139 C140 1.503 . S
C139 O154 1.261 1_565 S
C139 O155 1.243 . S
C140 C139 1.503 . S
C140 C141 1.394 . S
C140 C145 1.373 . S
C141 C140 1.394 . S
C141 C142 1.380 . S
C141 H164 0.930 1_565 S
C142 C141 1.380 . S
C142 C143 1.376 . S
C142 H165 0.930 . S
C143 C142 1.376 . S
C143 C144 1.370 . S
C144 C143 1.370 . S
C144 C145 1.396 . S
C144 H166 0.929 . S
C145 C140 1.373 . S
C145 C144 1.396 . S
C145 H167 0.929 . S
C146 O156 1.232 1_554 S
C146 O157 1.289 . S
C147 O158 1.258 1_565 S
C147 O159 1.256 1_565 S
O148 La128 2.521 . S
O148 C130 1.261 . S
O149 La128 2.628 . S
O149 C130 1.243 . S
O150 La128 2.554 1_565 S
O150 C137 1.240 . S
O151 La128 2.757 . S
O151 La129 2.482 . S
O151 C137 1.289 1_545 S
O152 La128 2.470 . S
O152 C138 1.258 . S
O153 La129 2.503 . S
O153 C138 1.256 . S
O154 La129 2.521 1_556 S
O154 C139 1.261 1_545 S
O155 La129 2.628 1_566 S
O155 C139 1.243 . S
O156 La129 2.549 1_556 S
O156 C146 1.232 1_556 S
O157 La128 2.482 . S
O157 La129 2.757 . S
O157 C146 1.289 . S
O158 La129 2.470 . S
O158 C147 1.258 1_545 S
O159 La128 2.503 . S
O159 C147 1.256 1_545 S
H160 C132 0.930 . S
H161 C133 0.930 . S
H162 C135 0.929 . S
H163 C136 0.929 . S
H164 C141 0.930 1_545 S
H165 C142 0.930 . S
H166 C144 0.929 . S
H167 C145 0.929 . S
La168 C170 2.928 . S
La168 O188 2.521 . S
La168 O189 2.628 . S
La168 O190 2.554 . S
La168 O191 2.757 . S
La168 O192 2.470 . S
La168 O197 2.482 . S
La168 O199 2.503 . S
La169 C179 2.928 . S
La169 O191 2.482 . S
La169 O193 2.503 . S
La169 O194 2.521 . S
La169 O195 2.628 . S
La169 O196 2.554 . S
La169 O197 2.757 . S
La169 O198 2.470 . S
C170 La168 2.928 . S
C170 C171 1.503 . S
C170 O188 1.261 . S
C170 O189 1.243 . S
C171 C170 1.503 . S
C171 C172 1.394 . S
C171 C176 1.373 . S
C172 C171 1.394 . S
C172 C173 1.380 . S
C172 H200 0.930 . S
C173 C172 1.380 . S
C173 C174 1.376 . S
C173 H201 0.930 . S
C174 C173 1.376 . S
C174 C175 1.370 . S
C175 C174 1.370 . S
C175 C176 1.396 . S
C175 H202 0.929 . S
C176 C171 1.373 . S
C176 C175 1.396 . S
C176 H203 0.929 . S
C177 O190 1.240 . S
C177 O191 1.289 . S
C178 O192 1.258 . S
C178 O193 1.256 . S
C179 La169 2.928 . S
C179 C180 1.503 . S
C179 O194 1.261 . S
C179 O195 1.243 . S
C180 C179 1.503 . S
C180 C181 1.394 . S
C180 C185 1.373 . S
C181 C180 1.394 . S
C181 C182 1.380 . S
C181 H204 0.930 . S
C182 C181 1.380 . S
C182 C183 1.376 . S
C182 H205 0.930 . S
C183 C182 1.376 . S
C183 C184 1.370 . S
C184 C183 1.370 . S
C184 C185 1.396 . S
C184 H206 0.929 . S
C185 C180 1.373 . S
C185 C184 1.396 . S
C185 H207 0.929 . S
C186 O196 1.240 . S
C186 O197 1.289 . S
C187 O198 1.258 . S
C187 O199 1.256 . S
O188 La168 2.521 . S
O188 C170 1.261 . S
O189 La168 2.628 . S
O189 C170 1.243 . S
O190 La168 2.554 . S
O190 C177 1.240 . S
O191 La168 2.757 . S
O191 La169 2.482 . S
O191 C177 1.289 . S
O192 La168 2.470 . S
O192 C178 1.258 . S
O193 La169 2.503 . S
O193 C178 1.256 . S
O194 La169 2.521 . S
O194 C179 1.261 . S
O195 La169 2.628 . S
O195 C179 1.243 . S
O196 La169 2.554 . S
O196 C186 1.240 . S
O197 La168 2.482 . S
O197 La169 2.757 . S
O197 C186 1.289 . S
O198 La169 2.470 . S
O198 C187 1.258 . S
O199 La168 2.503 . S
O199 C187 1.256 . S
H200 C172 0.930 . S
H201 C173 0.930 . S
H202 C175 0.929 . S
H203 C176 0.929 . S
H204 C181 0.930 . S
H205 C182 0.930 . S
H206 C184 0.929 . S
H207 C185 0.929 . S
La208 C210 2.928 . S
La208 O228 2.521 . S
La208 O229 2.628 . S
La208 O230 2.554 . S
La208 O231 2.757 . S
La208 O232 2.470 . S
La208 O237 2.482 1_554 S
La208 O239 2.503 1_455 S
La209 C219 2.928 1_455 S
La209 O231 2.482 1_556 S
La209 O233 2.503 1_556 S
La209 O234 2.521 . S
La209 O235 2.628 1_455 S
La209 O236 2.554 . S
La209 O237 2.757 . S
La209 O238 2.470 1_455 S
C210 La208 2.928 . S
C210 C211 1.503 . S
C210 O228 1.261 . S
C210 O229 1.243 . S
C211 C210 1.503 . S
C211 C212 1.394 . S
C211 C216 1.373 . S
C212 C211 1.394 . S
C212 C213 1.380 . S
C212 H240 0.930 . S
C213 C212 1.380 . S
C213 C214 1.376 . S
C213 H241 0.930 . S
C214 C213 1.376 . S
C214 C215 1.370 . S
C215 C214 1.370 . S
C215 C216 1.396 . S
C215 H242 0.929 . S
C216 C211 1.373 . S
C216 C215 1.396 . S
C216 H243 0.929 . S
C217 O230 1.240 . S
C217 O231 1.289 . S
C218 O232 1.258 . S
C218 O233 1.256 . S
C219 La209 2.928 1_655 S
C219 C220 1.503 . S
C219 O234 1.261 1_655 S
C219 O235 1.243 . S
C220 C219 1.503 . S
C220 C221 1.394 . S
C220 C225 1.373 . S
C221 C220 1.394 . S
C221 C222 1.380 . S
C221 H244 0.930 . S
C222 C221 1.380 . S
C222 C223 1.376 . S
C222 H245 0.930 . S
C223 C222 1.376 . S
C223 C224 1.370 . S
C224 C223 1.370 . S
C224 C225 1.396 . S
C224 H246 0.929 . S
C225 C220 1.373 . S
C225 C224 1.396 . S
C225 H247 0.929 . S
C226 O236 1.240 . S
C226 O237 1.289 . S
C227 O238 1.258 . S
C227 O239 1.256 1_556 S
O228 La208 2.521 . S
O228 C210 1.261 . S
O229 La208 2.628 . S
O229 C210 1.243 . S
O230 La208 2.554 . S
O230 C217 1.240 . S
O231 La208 2.757 . S
O231 La209 2.482 1_554 S
O231 C217 1.289 . S
O232 La208 2.470 . S
O232 C218 1.258 . S
O233 La209 2.503 1_554 S
O233 C218 1.256 . S
O234 La209 2.521 . S
O234 C219 1.261 1_455 S
O235 La209 2.628 1_655 S
O235 C219 1.243 . S
O236 La209 2.554 . S
O236 C226 1.240 . S
O237 La208 2.482 1_556 S
O237 La209 2.757 . S
O237 C226 1.289 . S
O238 La209 2.470 1_655 S
O238 C227 1.258 . S
O239 La208 2.503 1_655 S
O239 C227 1.256 1_554 S
H240 C212 0.930 . S
H241 C213 0.930 . S
H242 C215 0.929 . S
H243 C216 0.929 . S
H244 C221 0.930 . S
H245 C222 0.930 . S
H246 C224 0.929 . S
H247 C225 0.929 . S
H248 C256 0.929 . S
H249 C258 0.930 . S
H250 C260 0.930 . S
H251 C263 0.929 . S
H252 C266 0.930 . S
H253 C268 0.960 . S
H254 C268 0.960 . S
H255 C268 0.960 . S
C256 H248 0.929 . S
C256 C257 1.377 . S
C256 C258 1.384 . S
C257 C256 1.377 . S
C257 C263 1.390 . S
C258 H249 0.930 . S
C258 C256 1.384 . S
C258 C259 1.372 . S
C259 C258 1.372 . S
C259 C260 1.400 . S
C259 C264 1.490 . S
C260 H250 0.930 . S
C260 C259 1.400 . S
C260 C263 1.386 . S
H261 C277 0.930 . S
H262 C278 0.931 . S
C263 H251 0.929 . S
C263 C257 1.390 . S
C263 C260 1.386 . S
C264 C259 1.490 . S
C264 C266 1.395 . S
C264 C267 1.403 . S
H265 C271 0.930 . S
C266 H252 0.930 . S
C266 C264 1.395 . S
C266 C269 1.403 . S
C267 C264 1.403 . S
C267 C268 1.524 . S
C267 C271 1.400 . S
C268 H253 0.960 . S
C268 H254 0.960 . S
C268 H255 0.960 . S
C268 C267 1.524 . S
C269 C266 1.403 . S
C269 C270 1.392 . S
C269 C273 1.495 . S
C270 C269 1.392 . S
C270 C271 1.385 . S
C270 C272 1.478 . S
C271 H265 0.930 . S
C271 C267 1.400 . S
C271 C270 1.385 . S
C272 C270 1.478 . S
C272 C274 1.381 . S
C272 C278 1.383 . S
C273 C269 1.495 . S
C273 H279 0.959 . S
C273 H280 0.961 . S
C273 H281 0.960 . S
C274 C272 1.381 . S
C274 C275 1.394 . S
C274 H282 0.930 . S
C275 C274 1.394 . S
C275 C276 1.383 . S
C275 H283 0.929 . S
C276 C275 1.383 . S
C276 C277 1.377 . S
C277 H261 0.930 . S
C277 C276 1.377 . S
C277 C278 1.379 . S
C278 H262 0.931 . S
C278 C272 1.383 . S
C278 C277 1.379 . S
H279 C273 0.959 . S
H280 C273 0.961 . S
H281 C273 0.960 . S
H282 C274 0.930 . S
H283 C275 0.929 . S
H284 C292 0.929 . S
H285 C294 0.930 . S
H286 C296 0.930 . S
H287 C299 0.929 . S
H288 C302 0.930 . S
H289 C304 0.960 . S
H290 C304 0.960 . S
H291 C304 0.960 . S
C292 H284 0.929 . S
C292 C293 1.377 . S
C292 C294 1.384 . S
C293 C292 1.377 . S
C293 C299 1.390 . S
C294 H285 0.930 . S
C294 C292 1.384 . S
C294 C295 1.372 . S
C295 C294 1.372 . S
C295 C296 1.400 . S
C295 C300 1.490 . S
C296 H286 0.930 . S
C296 C295 1.400 . S
C296 C299 1.386 . S
H297 C313 0.930 . S
H298 C314 0.931 . S
C299 H287 0.929 . S
C299 C293 1.390 . S
C299 C296 1.386 . S
C300 C295 1.490 . S
C300 C302 1.395 . S
C300 C303 1.403 . S
H301 C307 0.930 . S
C302 H288 0.930 . S
C302 C300 1.395 . S
C302 C305 1.403 . S
C303 C300 1.403 . S
C303 C304 1.524 . S
C303 C307 1.400 . S
C304 H289 0.960 . S
C304 H290 0.960 . S
C304 H291 0.960 . S
C304 C303 1.524 . S
C305 C302 1.403 . S
C305 C306 1.392 . S
C305 C309 1.495 . S
C306 C305 1.392 . S
C306 C307 1.385 . S
C306 C308 1.478 . S
C307 H301 0.930 . S
C307 C303 1.400 . S
C307 C306 1.385 . S
C308 C306 1.478 . S
C308 C310 1.381 . S
C308 C314 1.383 . S
C309 C305 1.495 . S
C309 H315 0.959 . S
C309 H316 0.961 . S
C309 H317 0.960 . S
C310 C308 1.381 . S
C310 C311 1.394 . S
C310 H318 0.930 . S
C311 C310 1.394 . S
C311 C312 1.383 . S
C311 H319 0.929 . S
C312 C311 1.383 . S
C312 C313 1.377 . S
C313 H297 0.930 . S
C313 C312 1.377 . S
C313 C314 1.379 . S
C314 H298 0.931 . S
C314 C308 1.383 . S
C314 C313 1.379 . S
H315 C309 0.959 . S
H316 C309 0.961 . S
H317 C309 0.960 . S
H318 C310 0.930 . S
H319 C311 0.929 . S
H320 C328 0.929 . S
H321 C330 0.930 . S
H322 C332 0.930 . S
H323 C335 0.929 . S
H324 C338 0.930 . S
H325 C340 0.960 . S
H326 C340 0.960 . S
H327 C340 0.960 . S
C328 H320 0.929 . S
C328 C329 1.377 . S
C328 C330 1.384 . S
C329 C328 1.377 . S
C329 C335 1.390 . S
C330 H321 0.930 . S
C330 C328 1.384 . S
C330 C331 1.372 . S
C331 C330 1.372 . S
C331 C332 1.400 . S
C331 C336 1.490 . S
C332 H322 0.930 . S
C332 C331 1.400 . S
C332 C335 1.386 . S
H333 C349 0.930 . S
H334 C350 0.931 . S
C335 H323 0.929 . S
C335 C329 1.390 . S
C335 C332 1.386 . S
C336 C331 1.490 . S
C336 C338 1.395 . S
C336 C339 1.403 . S
H337 C343 0.930 . S
C338 H324 0.930 . S
C338 C336 1.395 . S
C338 C341 1.403 . S
C339 C336 1.403 . S
C339 C340 1.524 . S
C339 C343 1.400 . S
C340 H325 0.960 . S
C340 H326 0.960 . S
C340 H327 0.960 . S
C340 C339 1.524 . S
C341 C338 1.403 . S
C341 C342 1.392 . S
C341 C345 1.495 . S
C342 C341 1.392 . S
C342 C343 1.385 . S
C342 C344 1.478 . S
C343 H337 0.930 . S
C343 C339 1.400 . S
C343 C342 1.385 . S
C344 C342 1.478 . S
C344 C346 1.381 . S
C344 C350 1.383 . S
C345 C341 1.495 . S
C345 H351 0.959 . S
C345 H352 0.961 . S
C345 H353 0.960 . S
C346 C344 1.381 . S
C346 C347 1.394 . S
C346 H354 0.930 . S
C347 C346 1.394 . S
C347 C348 1.383 . S
C347 H355 0.929 . S
C348 C347 1.383 . S
C348 C349 1.377 . S
C349 H333 0.930 . S
C349 C348 1.377 . S
C349 C350 1.379 . S
C350 H334 0.931 . S
C350 C344 1.383 . S
C350 C349 1.379 . S
H351 C345 0.959 . S
H352 C345 0.961 . S
H353 C345 0.960 . S
H354 C346 0.930 . S
H355 C347 0.929 . S
H356 C364 0.929 . S
H357 C366 0.930 . S
H358 C368 0.930 . S
H359 C371 0.929 . S
H360 C374 0.930 . S
H361 C376 0.960 . S
H362 C376 0.960 . S
H363 C376 0.960 . S
C364 H356 0.929 . S
C364 C365 1.377 . S
C364 C366 1.384 . S
C365 C364 1.377 . S
C365 C371 1.390 . S
C366 H357 0.930 . S
C366 C364 1.384 . S
C366 C367 1.372 . S
C367 C366 1.372 . S
C367 C368 1.400 . S
C367 C372 1.490 . S
C368 H358 0.930 . S
C368 C367 1.400 . S
C368 C371 1.386 . S
H369 C385 0.930 1_455 S
H370 C386 0.931 . S
C371 H359 0.929 . S
C371 C365 1.390 . S
C371 C368 1.386 . S
C372 C367 1.490 . S
C372 C374 1.395 . S
C372 C375 1.403 . S
H373 C379 0.930 . S
C374 H360 0.930 . S
C374 C372 1.395 . S
C374 C377 1.403 . S
C375 C372 1.403 . S
C375 C376 1.524 . S
C375 C379 1.400 . S
C376 H361 0.960 . S
C376 H362 0.960 . S
C376 H363 0.960 . S
C376 C375 1.524 . S
C377 C374 1.403 . S
C377 C378 1.392 . S
C377 C381 1.495 . S
C378 C377 1.392 . S
C378 C379 1.385 . S
C378 C380 1.478 . S
C379 H373 0.930 . S
C379 C375 1.400 . S
C379 C378 1.385 . S
C380 C378 1.478 . S
C380 C382 1.381 . S
C380 C386 1.383 . S
C381 C377 1.495 . S
C381 H387 0.959 . S
C381 H388 0.961 . S
C381 H389 0.960 . S
C382 C380 1.381 . S
C382 C383 1.394 . S
C382 H390 0.930 . S
C383 C382 1.394 . S
C383 C384 1.383 . S
C383 H391 0.929 . S
C384 C383 1.383 . S
C384 C385 1.377 . S
C385 H369 0.930 1_655 S
C385 C384 1.377 . S
C385 C386 1.379 . S
C386 H370 0.931 . S
C386 C380 1.383 . S
C386 C385 1.379 . S
H387 C381 0.959 . S
H388 C381 0.961 . S
H389 C381 0.960 . S
H390 C382 0.930 . S
H391 C383 0.929 . S
H392 C400 0.929 . S
H393 C402 0.930 . S
H394 C404 0.930 . S
H395 C407 0.929 . S
H396 C410 0.930 . S
H397 C412 0.960 . S
H398 C412 0.960 . S
H399 C412 0.960 . S
C400 H392 0.929 . S
C400 C401 1.377 . S
C400 C402 1.384 . S
C401 C400 1.377 . S
C401 C407 1.390 . S
C402 H393 0.930 . S
C402 C400 1.384 . S
C402 C403 1.372 . S
C403 C402 1.372 . S
C403 C404 1.400 . S
C403 C408 1.490 . S
C404 H394 0.930 . S
C404 C403 1.400 . S
C404 C407 1.386 . S
H405 C421 0.930 . S
H406 C422 0.931 . S
C407 H395 0.929 . S
C407 C401 1.390 . S
C407 C404 1.386 . S
C408 C403 1.490 . S
C408 C410 1.395 . S
C408 C411 1.403 . S
H409 C415 0.930 . S
C410 H396 0.930 . S
C410 C408 1.395 . S
C410 C413 1.403 . S
C411 C408 1.403 . S
C411 C412 1.524 . S
C411 C415 1.400 . S
C412 H397 0.960 . S
C412 H398 0.960 . S
C412 H399 0.960 . S
C412 C411 1.524 . S
C413 C410 1.403 . S
C413 C414 1.392 . S
C413 C417 1.495 . S
C414 C413 1.392 . S
C414 C415 1.385 . S
C414 C416 1.478 . S
C415 H409 0.930 . S
C415 C411 1.400 . S
C415 C414 1.385 . S
C416 C414 1.478 . S
C416 C418 1.381 . S
C416 C422 1.383 . S
C417 C413 1.495 . S
C417 H423 0.959 . S
C417 H424 0.961 . S
C417 H425 0.960 . S
C418 C416 1.381 . S
C418 C419 1.394 . S
C418 H426 0.930 . S
C419 C418 1.394 . S
C419 C420 1.383 . S
C419 H427 0.929 . S
C420 C419 1.383 . S
C420 C421 1.377 . S
C421 H405 0.930 . S
C421 C420 1.377 . S
C421 C422 1.379 . S
C422 H406 0.931 . S
C422 C416 1.383 . S
C422 C421 1.379 . S
H423 C417 0.959 . S
H424 C417 0.961 . S
H425 C417 0.960 . S
H426 C418 0.930 . S
H427 C419 0.929 . S
H428 C436 0.929 . S
H429 C438 0.930 . S
H430 C440 0.930 . S
H431 C443 0.929 . S
H432 C446 0.930 . S
H433 C448 0.960 . S
H434 C448 0.960 . S
H435 C448 0.960 . S
C436 H428 0.929 . S
C436 C437 1.377 . S
C436 C438 1.384 . S
C437 C436 1.377 . S
C437 C443 1.390 . S
C438 H429 0.930 . S
C438 C436 1.384 . S
C438 C439 1.372 . S
C439 C438 1.372 . S
C439 C440 1.400 . S
C439 C444 1.490 . S
C440 H430 0.930 . S
C440 C439 1.400 . S
C440 C443 1.386 . S
H441 C457 0.930 . S
H442 C458 0.931 . S
C443 H431 0.929 . S
C443 C437 1.390 . S
C443 C440 1.386 . S
C444 C439 1.490 . S
C444 C446 1.395 . S
C444 C447 1.403 . S
H445 C451 0.930 . S
C446 H432 0.930 . S
C446 C444 1.395 . S
C446 C449 1.403 . S
C447 C444 1.403 . S
C447 C448 1.524 . S
C447 C451 1.400 . S
C448 H433 0.960 . S
C448 H434 0.960 . S
C448 H435 0.960 . S
C448 C447 1.524 . S
C449 C446 1.403 . S
C449 C450 1.392 . S
C449 C453 1.495 1_565 S
C450 C449 1.392 . S
C450 C451 1.385 . S
C450 C452 1.478 . S
C451 H445 0.930 . S
C451 C447 1.400 . S
C451 C450 1.385 . S
C452 C450 1.478 . S
C452 C454 1.381 . S
C452 C458 1.383 . S
C453 C449 1.495 1_545 S
C453 H459 0.959 . S
C453 H460 0.961 . S
C453 H461 0.960 . S
C454 C452 1.381 . S
C454 C455 1.394 . S
C454 H462 0.930 . S
C455 C454 1.394 . S
C455 C456 1.383 1_565 S
C455 H463 0.929 1_565 S
C456 C455 1.383 1_545 S
C456 C457 1.378 . S
C457 H441 0.930 . S
C457 C456 1.378 . S
C457 C458 1.377 1_545 S
C458 H442 0.931 . S
C458 C452 1.383 . S
C458 C457 1.377 1_565 S
H459 C453 0.959 . S
H460 C453 0.961 . S
H461 C453 0.960 . S
H462 C454 0.930 . S
H463 C455 0.929 1_545 S
H464 C472 0.929 . S
H465 C474 0.930 . S
H466 C476 0.930 . S
H467 C479 0.929 . S
H468 C482 0.930 . S
H469 C484 0.960 . S
H470 C484 0.960 . S
H471 C484 0.960 . S
C472 H464 0.929 . S
C472 C473 1.377 . S
C472 C474 1.384 . S
C473 C472 1.377 . S
C473 C479 1.390 . S
C474 H465 0.930 . S
C474 C472 1.384 . S
C474 C475 1.372 . S
C475 C474 1.372 . S
C475 C476 1.400 . S
C475 C480 1.490 . S
C476 H466 0.930 . S
C476 C475 1.400 . S
C476 C479 1.386 . S
H477 C493 0.930 . S
H478 C494 0.931 . S
C479 H467 0.929 . S
C479 C473 1.390 . S
C479 C476 1.386 . S
C480 C475 1.490 . S
C480 C482 1.395 . S
C480 C483 1.403 . S
H481 C487 0.930 . S
C482 H468 0.930 . S
C482 C480 1.395 . S
C482 C485 1.403 . S
C483 C480 1.403 . S
C483 C484 1.524 . S
C483 C487 1.400 . S
C484 H469 0.960 . S
C484 H470 0.960 . S
C484 H471 0.960 . S
C484 C483 1.524 . S
C485 C482 1.403 . S
C485 C486 1.392 . S
C485 C489 1.495 . S
C486 C485 1.392 . S
C486 C487 1.385 . S
C486 C488 1.478 . S
C487 H481 0.930 . S
C487 C483 1.400 . S
C487 C486 1.385 . S
C488 C486 1.478 . S
C488 C490 1.381 . S
C488 C494 1.383 . S
C489 C485 1.495 . S
C489 H495 0.959 . S
C489 H496 0.961 . S
C489 H497 0.960 . S
C490 C488 1.381 . S
C490 C491 1.394 . S
C490 H498 0.930 . S
C491 C490 1.394 . S
C491 C492 1.383 . S
C491 H499 0.929 1_556 S
C492 C491 1.383 . S
C492 C493 1.377 . S
C493 H477 0.930 . S
C493 C492 1.377 . S
C493 C494 1.379 . S
C494 H478 0.931 . S
C494 C488 1.383 . S
C494 C493 1.379 . S
H495 C489 0.959 . S
H496 C489 0.961 . S
H497 C489 0.960 . S
H498 C490 0.930 . S
H499 C491 0.929 1_554 S
H500 C508 0.929 . S
H501 C510 0.930 . S
H502 C512 0.930 . S
H503 C515 0.929 . S
H504 C518 0.930 . S
H505 C520 0.960 . S
H506 C520 0.960 . S
H507 C520 0.960 . S
C508 H500 0.929 . S
C508 C509 1.377 . S
C508 C510 1.384 . S
C509 C508 1.377 . S
C509 C515 1.390 . S
C510 H501 0.930 . S
C510 C508 1.384 . S
C510 C511 1.372 . S
C511 C510 1.372 . S
C511 C512 1.400 . S
C511 C516 1.490 . S
C512 H502 0.930 . S
C512 C511 1.400 . S
C512 C515 1.386 . S
H513 C529 0.930 . S
H514 C530 0.931 . S
C515 H503 0.929 . S
C515 C509 1.390 . S
C515 C512 1.386 . S
C516 C511 1.490 . S
C516 C518 1.395 . S
C516 C519 1.403 . S
H517 C523 0.930 . S
C518 H504 0.930 . S
C518 C516 1.395 . S
C518 C521 1.403 . S
C519 C516 1.403 . S
C519 C520 1.524 . S
C519 C523 1.400 . S
C520 H505 0.960 . S
C520 H506 0.960 . S
C520 H507 0.960 . S
C520 C519 1.524 . S
C521 C518 1.403 . S
C521 C522 1.392 . S
C521 C525 1.495 . S
C522 C521 1.392 . S
C522 C523 1.385 . S
C522 C524 1.478 . S
C523 H517 0.930 . S
C523 C519 1.400 . S
C523 C522 1.385 . S
C524 C522 1.478 . S
C524 C526 1.381 . S
C524 C530 1.383 . S
C525 C521 1.495 . S
C525 H531 0.959 . S
C525 H532 0.961 . S
C525 H533 0.960 . S
C526 C524 1.381 . S
C526 C527 1.394 . S
C526 H534 0.930 . S
C527 C526 1.394 . S
C527 C528 1.383 . S
C527 H535 0.929 . S
C528 C527 1.383 . S
C528 C529 1.377 . S
C529 H513 0.930 . S
C529 C528 1.377 . S
C529 C530 1.379 . S
C530 H514 0.931 . S
C530 C524 1.383 . S
C530 C529 1.379 . S
H531 C525 0.959 . S
H532 C525 0.961 . S
H533 C525 0.960 . S
H534 C526 0.930 . S
H535 C527 0.929 . S
H536 C544 0.929 . S
H537 C546 0.930 . S
H538 C548 0.930 . S
H539 C551 0.929 . S
H540 C554 0.930 . S
H541 C556 0.960 . S
H542 C556 0.960 . S
H543 C556 0.960 . S
C544 H536 0.929 . S
C544 C545 1.377 . S
C544 C546 1.384 . S
C545 C544 1.377 . S
C545 C551 1.390 . S
C546 H537 0.930 . S
C546 C544 1.384 . S
C546 C547 1.372 . S
C547 C546 1.372 . S
C547 C548 1.400 . S
C547 C552 1.490 . S
C548 H538 0.930 . S
C548 C547 1.400 . S
C548 C551 1.386 . S
H549 C565 0.930 . S
H550 C566 0.931 . S
C551 H539 0.929 . S
C551 C545 1.390 . S
C551 C548 1.386 . S
C552 C547 1.490 . S
C552 C554 1.395 . S
C552 C555 1.403 . S
H553 C559 0.930 . S
C554 H540 0.930 . S
C554 C552 1.395 . S
C554 C557 1.403 . S
C555 C552 1.403 . S
C555 C556 1.524 . S
C555 C559 1.400 . S
C556 H541 0.960 . S
C556 H542 0.960 . S
C556 H543 0.960 . S
C556 C555 1.524 . S
C557 C554 1.403 . S
C557 C558 1.392 . S
C557 C561 1.495 . S
C558 C557 1.392 . S
C558 C559 1.385 . S
C558 C560 1.478 . S
C559 H553 0.930 . S
C559 C555 1.400 . S
C559 C558 1.385 . S
C560 C558 1.478 . S
C560 C562 1.381 . S
C560 C566 1.383 . S
C561 C557 1.495 . S
C561 H567 0.959 . S
C561 H568 0.961 . S
C561 H569 0.960 . S
C562 C560 1.381 . S
C562 C563 1.394 . S
C562 H570 0.930 . S
C563 C562 1.394 . S
C563 C564 1.383 . S
C563 H571 0.929 . S
C564 C563 1.383 . S
C564 C565 1.377 . S
C565 H549 0.930 . S
C565 C564 1.377 . S
C565 C566 1.379 . S
C566 H550 0.931 . S
C566 C560 1.383 . S
C566 C565 1.379 . S
H567 C561 0.959 . S
H568 C561 0.961 . S
H569 C561 0.960 . S
H570 C562 0.930 . S
H571 C563 0.929 . S
H572 C580 0.929 . S
H573 C582 0.930 . S
H574 C584 0.930 . S
H575 C587 0.929 . S
H576 C590 0.930 . S
H577 C592 0.960 . S
H578 C592 0.960 . S
H579 C592 0.960 . S
C580 H572 0.929 . S
C580 C581 1.377 . S
C580 C582 1.384 . S
C581 C580 1.377 . S
C581 C587 1.390 . S
C582 H573 0.930 . S
C582 C580 1.384 . S
C582 C583 1.372 . S
C583 C582 1.372 . S
C583 C584 1.400 . S
C583 C588 1.490 . S
C584 H574 0.930 . S
C584 C583 1.400 . S
C584 C587 1.386 . S
H585 C601 0.930 . S
H586 C602 0.931 . S
C587 H575 0.929 . S
C587 C581 1.390 . S
C587 C584 1.386 . S
C588 C583 1.490 . S
C588 C590 1.395 . S
C588 C591 1.403 . S
H589 C595 0.930 . S
C590 H576 0.930 . S
C590 C588 1.395 . S
C590 C593 1.403 . S
C591 C588 1.403 . S
C591 C592 1.524 . S
C591 C595 1.400 . S
C592 H577 0.960 . S
C592 H578 0.960 . S
C592 H579 0.960 . S
C592 C591 1.524 . S
C593 C590 1.403 . S
C593 C594 1.392 . S
C593 C597 1.495 1_556 S
C594 C593 1.392 . S
C594 C595 1.385 . S
C594 C596 1.478 . S
C595 H589 0.930 . S
C595 C591 1.400 . S
C595 C594 1.385 . S
C596 C594 1.478 . S
C596 C598 1.381 . S
C596 C602 1.383 . S
C597 C593 1.495 1_554 S
C597 H603 0.959 . S
C597 H604 0.961 . S
C597 H605 0.960 . S
C598 C596 1.381 . S
C598 C599 1.394 . S
C598 H606 0.930 . S
C599 C598 1.394 . S
C599 C600 1.383 1_556 S
C599 H607 0.929 1_556 S
C600 C599 1.383 1_554 S
C600 C601 1.377 1_554 S
C601 H585 0.930 . S
C601 C600 1.377 1_556 S
C601 C602 1.379 . S
C602 H586 0.931 . S
C602 C596 1.383 . S
C602 C601 1.379 . S
H603 C597 0.959 . S
H604 C597 0.961 . S
H605 C597 0.960 . S
H606 C598 0.930 . S
H607 C599 0.929 1_554 S
H608 C616 0.929 . S
H609 C618 0.930 . S
H610 C620 0.930 . S
H611 C623 0.929 . S
H612 C626 0.930 . S
H613 C628 0.960 . S
H614 C628 0.960 . S
H615 C628 0.960 . S
C616 H608 0.929 . S
C616 C617 1.377 . S
C616 C618 1.384 . S
C617 C616 1.377 . S
C617 C623 1.390 . S
C618 H609 0.930 . S
C618 C616 1.384 . S
C618 C619 1.372 . S
C619 C618 1.372 . S
C619 C620 1.400 . S
C619 C624 1.490 . S
C620 H610 0.930 . S
C620 C619 1.400 . S
C620 C623 1.386 . S
H621 C637 0.930 1_455 S
H622 C638 0.931 . S
C623 H611 0.929 . S
C623 C617 1.390 . S
C623 C620 1.386 . S
C624 C619 1.490 . S
C624 C626 1.395 . S
C624 C627 1.403 . S
H625 C631 0.930 . S
C626 H612 0.930 . S
C626 C624 1.395 . S
C626 C629 1.403 . S
C627 C624 1.403 . S
C627 C628 1.524 . S
C627 C631 1.400 . S
C628 H613 0.960 . S
C628 H614 0.960 . S
C628 H615 0.960 . S
C628 C627 1.524 . S
C629 C626 1.403 . S
C629 C630 1.392 . S
C629 C633 1.495 . S
C630 C629 1.392 . S
C630 C631 1.385 . S
C630 C632 1.478 . S
C631 H625 0.930 . S
C631 C627 1.400 . S
C631 C630 1.385 . S
C632 C630 1.478 . S
C632 C634 1.381 . S
C632 C638 1.383 . S
C633 C629 1.495 . S
C633 H639 0.959 . S
C633 H640 0.961 . S
C633 H641 0.960 . S
C634 C632 1.381 . S
C634 C635 1.394 . S
C634 H642 0.930 . S
C635 C634 1.394 . S
C635 C636 1.383 . S
C635 H643 0.929 . S
C636 C635 1.383 . S
C636 C637 1.377 . S
C637 H621 0.930 1_655 S
C637 C636 1.377 . S
C637 C638 1.379 . S
C638 H622 0.931 . S
C638 C632 1.383 . S
C638 C637 1.379 . S
H639 C633 0.959 . S
H640 C633 0.961 . S
H641 C633 0.960 . S
H642 C634 0.930 . S
H643 C635 0.929 . S
H644 C652 0.929 . S
H645 C654 0.930 . S
H646 C656 0.930 . S
H647 C659 0.929 . S
H648 C662 0.930 . S
H649 C664 0.960 . S
H650 C664 0.960 . S
H651 C664 0.960 . S
C652 H644 0.929 . S
C652 C653 1.377 . S
C652 C654 1.384 . S
C653 C652 1.377 . S
C653 C659 1.390 . S
C654 H645 0.930 . S
C654 C652 1.384 . S
C654 C655 1.372 . S
C655 C654 1.372 . S
C655 C656 1.400 . S
C655 C660 1.490 . S
C656 H646 0.930 . S
C656 C655 1.400 . S
C656 C659 1.386 . S
H657 C673 0.930 . S
H658 C674 0.931 . S
C659 H647 0.929 . S
C659 C653 1.390 . S
C659 C656 1.386 . S
C660 C655 1.490 . S
C660 C662 1.395 . S
C660 C663 1.403 . S
H661 C667 0.930 . S
C662 H648 0.930 . S
C662 C660 1.395 . S
C662 C665 1.403 . S
C663 C660 1.403 . S
C663 C664 1.524 . S
C663 C667 1.400 . S
C664 H649 0.960 . S
C664 H650 0.960 . S
C664 H651 0.960 . S
C664 C663 1.524 . S
C665 C662 1.403 . S
C665 C666 1.392 . S
C665 C669 1.495 . S
C666 C665 1.392 . S
C666 C667 1.385 . S
C666 C668 1.478 . S
C667 H661 0.930 . S
C667 C663 1.400 . S
C667 C666 1.385 . S
C668 C666 1.478 . S
C668 C670 1.381 . S
C668 C674 1.383 . S
C669 C665 1.495 . S
C669 H675 0.959 . S
C669 H676 0.961 . S
C669 H677 0.960 . S
C670 C668 1.381 . S
C670 C671 1.394 . S
C670 H678 0.930 . S
C671 C670 1.394 . S
C671 C672 1.383 . S
C671 H679 0.929 . S
C672 C671 1.383 . S
C672 C673 1.377 . S
C673 H657 0.930 . S
C673 C672 1.377 . S
C673 C674 1.379 . S
C674 H658 0.931 . S
C674 C668 1.383 . S
C674 C673 1.379 . S
H675 C669 0.959 . S
H676 C669 0.961 . S
H677 C669 0.960 . S
H678 C670 0.930 . S
H679 C671 0.929 . S
H680 C688 0.929 . S
H681 C690 0.930 . S
H682 C692 0.930 . S
H683 C695 0.929 . S
H684 C698 0.930 . S
H685 C700 0.960 . S
H686 C700 0.960 . S
H687 C700 0.960 . S
C688 H680 0.929 . S
C688 C689 1.377 . S
C688 C690 1.384 . S
C689 C688 1.377 . S
C689 C695 1.390 . S
C690 H681 0.930 . S
C690 C688 1.384 . S
C690 C691 1.372 . S
C691 C690 1.372 . S
C691 C692 1.400 . S
C691 C696 1.490 . S
C692 H682 0.930 . S
C692 C691 1.400 . S
C692 C695 1.386 . S
H693 C709 0.930 . S
H694 C710 0.931 . S
C695 H683 0.929 . S
C695 C689 1.390 . S
C695 C692 1.386 . S
C696 C691 1.490 . S
C696 C698 1.395 . S
C696 C699 1.403 . S
H697 C703 0.930 . S
C698 H684 0.930 . S
C698 C696 1.395 . S
C698 C701 1.403 . S
C699 C696 1.403 . S
C699 C700 1.524 . S
C699 C703 1.400 . S
C700 H685 0.960 . S
C700 H686 0.960 . S
C700 H687 0.960 . S
C700 C699 1.524 . S
C701 C698 1.403 . S
C701 C702 1.392 . S
C701 C705 1.495 . S
C702 C701 1.392 . S
C702 C703 1.385 . S
C702 C704 1.478 . S
C703 H697 0.930 . S
C703 C699 1.400 . S
C703 C702 1.385 . S
C704 C702 1.478 . S
C704 C706 1.381 . S
C704 C710 1.383 . S
C705 C701 1.495 . S
C705 H711 0.959 . S
C705 H712 0.961 . S
C705 H713 0.960 . S
C706 C704 1.381 . S
C706 C707 1.394 . S
C706 H714 0.930 . S
C707 C706 1.394 . S
C707 C708 1.383 . S
C707 H715 0.929 . S
C708 C707 1.383 . S
C708 C709 1.377 . S
C709 H693 0.930 . S
C709 C708 1.377 . S
C709 C710 1.379 . S
C710 H694 0.931 . S
C710 C704 1.383 . S
C710 C709 1.379 . S
H711 C705 0.959 . S
H712 C705 0.961 . S
H713 C705 0.960 . S
H714 C706 0.930 . S
H715 C707 0.929 . S
H716 C724 0.929 . S
H717 C726 0.930 . S
H718 C728 0.930 . S
H719 C731 0.929 . S
H720 C734 0.930 . S
H721 C736 0.960 . S
H722 C736 0.960 . S
H723 C736 0.960 . S
C724 H716 0.929 . S
C724 C725 1.377 . S
C724 C726 1.384 . S
C725 C724 1.377 . S
C725 C731 1.390 . S
C726 H717 0.930 . S
C726 C724 1.384 . S
C726 C727 1.372 . S
C727 C726 1.372 . S
C727 C728 1.400 . S
C727 C732 1.490 . S
C728 H718 0.930 . S
C728 C727 1.400 . S
C728 C731 1.386 . S
H729 C745 0.930 . S
H730 C746 0.931 . S
C731 H719 0.929 . S
C731 C725 1.390 . S
C731 C728 1.386 . S
C732 C727 1.490 . S
C732 C734 1.395 . S
C732 C735 1.403 . S
H733 C739 0.930 . S
C734 H720 0.930 . S
C734 C732 1.395 . S
C734 C737 1.403 . S
C735 C732 1.403 . S
C735 C736 1.524 . S
C735 C739 1.400 . S
C736 H721 0.960 . S
C736 H722 0.960 . S
C736 H723 0.960 . S
C736 C735 1.524 . S
C737 C734 1.403 . S
C737 C738 1.392 . S
C737 C741 1.495 . S
C738 C737 1.392 . S
C738 C739 1.385 . S
C738 C740 1.478 . S
C739 H733 0.930 . S
C739 C735 1.400 . S
C739 C738 1.385 . S
C740 C738 1.478 . S
C740 C742 1.381 . S
C740 C746 1.383 . S
C741 C737 1.495 . S
C741 H747 0.959 . S
C741 H748 0.961 . S
C741 H749 0.960 . S
C742 C740 1.381 . S
C742 C743 1.394 . S
C742 H750 0.930 . S
C743 C742 1.394 . S
C743 C744 1.383 . S
C743 H751 0.929 . S
C744 C743 1.383 . S
C744 C745 1.377 . S
C745 H729 0.930 . S
C745 C744 1.377 . S
C745 C746 1.379 . S
C746 H730 0.931 . S
C746 C740 1.383 . S
C746 C745 1.379 . S
H747 C741 0.959 . S
H748 C741 0.961 . S
H749 C741 0.960 . S
H750 C742 0.930 . S
H751 C743 0.929 . S
H752 C760 0.929 . S
H753 C762 0.930 . S
H754 C764 0.930 . S
H755 C767 0.929 . S
H756 C770 0.930 . S
H757 C772 0.960 . S
H758 C772 0.960 . S
H759 C772 0.960 . S
C760 H752 0.929 . S
C760 C761 1.377 . S
C760 C762 1.384 . S
C761 C760 1.377 . S
C761 C767 1.390 . S
C762 H753 0.930 . S
C762 C760 1.384 . S
C762 C763 1.372 . S
C763 C762 1.372 . S
C763 C764 1.400 . S
C763 C768 1.490 . S
C764 H754 0.930 . S
C764 C763 1.400 . S
C764 C767 1.386 . S
H765 C781 0.930 . S
H766 C782 0.931 . S
C767 H755 0.929 . S
C767 C761 1.390 . S
C767 C764 1.386 . S
C768 C763 1.490 . S
C768 C770 1.395 . S
C768 C771 1.403 . S
H769 C775 0.930 . S
C770 H756 0.930 . S
C770 C768 1.395 . S
C770 C773 1.403 . S
C771 C768 1.403 . S
C771 C772 1.524 . S
C771 C775 1.400 . S
C772 H757 0.960 . S
C772 H758 0.960 . S
C772 H759 0.960 . S
C772 C771 1.524 . S
C773 C770 1.403 . S
C773 C774 1.392 . S
C773 C777 1.495 . S
C774 C773 1.392 . S
C774 C775 1.385 . S
C774 C776 1.478 . S
C775 H769 0.930 . S
C775 C771 1.400 . S
C775 C774 1.385 . S
C776 C774 1.478 . S
C776 C778 1.381 . S
C776 C782 1.383 . S
C777 C773 1.495 . S
C777 H783 0.959 . S
C777 H784 0.961 . S
C777 H785 0.960 . S
C778 C776 1.381 . S
C778 C779 1.394 . S
C778 H786 0.930 . S
C779 C778 1.394 . S
C779 C780 1.383 . S
C779 H787 0.929 . S
C780 C779 1.383 . S
C780 C781 1.377 . S
C781 H765 0.930 . S
C781 C780 1.377 . S
C781 C782 1.379 . S
C782 H766 0.931 . S
C782 C776 1.383 . S
C782 C781 1.379 . S
H783 C777 0.959 . S
H784 C777 0.961 . S
H785 C777 0.960 . S
H786 C778 0.930 . S
H787 C779 0.929 . S
H788 C796 0.929 . S
H789 C798 0.930 . S
H790 C800 0.930 . S
H791 C803 0.929 . S
H792 C806 0.930 . S
H793 C808 0.960 . S
H794 C808 0.960 . S
H795 C808 0.960 . S
C796 H788 0.929 . S
C796 C797 1.377 . S
C796 C798 1.384 . S
C797 C796 1.377 . S
C797 C803 1.390 . S
C798 H789 0.930 . S
C798 C796 1.384 . S
C798 C799 1.372 . S
C799 C798 1.372 . S
C799 C800 1.400 . S
C799 C804 1.490 . S
C800 H790 0.930 . S
C800 C799 1.400 . S
C800 C803 1.386 . S
H801 C817 0.930 . S
H802 C818 0.931 . S
C803 H791 0.929 . S
C803 C797 1.390 . S
C803 C800 1.386 . S
C804 C799 1.490 . S
C804 C806 1.395 . S
C804 C807 1.403 . S
H805 C811 0.930 . S
C806 H792 0.930 . S
C806 C804 1.395 . S
C806 C809 1.403 . S
C807 C804 1.403 . S
C807 C808 1.524 . S
C807 C811 1.400 . S
C808 H793 0.960 . S
C808 H794 0.960 . S
C808 H795 0.960 . S
C808 C807 1.524 . S
C809 C806 1.403 . S
C809 C810 1.392 . S
C809 C813 1.495 . S
C810 C809 1.392 . S
C810 C811 1.385 . S
C810 C812 1.478 . S
C811 H805 0.930 . S
C811 C807 1.400 . S
C811 C810 1.385 . S
C812 C810 1.478 . S
C812 C814 1.381 . S
C812 C818 1.383 . S
C813 C809 1.495 . S
C813 H819 0.959 . S
C813 H820 0.961 . S
C813 H821 0.960 . S
C814 C812 1.381 . S
C814 C815 1.394 . S
C814 H822 0.930 . S
C815 C814 1.394 . S
C815 C816 1.383 . S
C815 H823 0.929 . S
C816 C815 1.383 . S
C816 C817 1.377 . S
C817 H801 0.930 . S
C817 C816 1.377 . S
C817 C818 1.379 . S
C818 H802 0.931 . S
C818 C812 1.383 . S
C818 C817 1.379 . S
H819 C813 0.959 . S
H820 C813 0.961 . S
H821 C813 0.960 . S
H822 C814 0.930 . S
H823 C815 0.929 . S
H824 C832 0.929 . S
H825 C834 0.930 . S
H826 C836 0.930 . S
H827 C839 0.929 . S
H828 C842 0.930 . S
H829 C844 0.960 . S
H830 C844 0.960 . S
H831 C844 0.960 . S
C832 H824 0.929 . S
C832 C833 1.377 . S
C832 C834 1.384 . S
C833 C832 1.377 . S
C833 C839 1.390 . S
C834 H825 0.930 . S
C834 C832 1.384 . S
C834 C835 1.372 . S
C835 C834 1.372 . S
C835 C836 1.400 . S
C835 C840 1.490 . S
C836 H826 0.930 . S
C836 C835 1.400 . S
C836 C839 1.386 . S
H837 C853 0.887 1_554 S
H838 C854 0.931 . S
C839 H827 0.929 . S
C839 C833 1.390 . S
C839 C836 1.386 . S
C840 C835 1.490 . S
C840 C842 1.395 . S
C840 C843 1.403 . S
H841 C847 0.930 . S
C842 H828 0.930 . S
C842 C840 1.395 . S
C842 C845 1.403 . S
C843 C840 1.403 . S
C843 C844 1.524 . S
C843 C847 1.400 . S
C844 H829 0.960 . S
C844 H830 0.960 . S
C844 H831 0.960 . S
C844 C843 1.524 . S
C845 C842 1.403 . S
C845 C846 1.392 . S
C845 C849 1.495 . S
C846 C845 1.392 . S
C846 C847 1.385 . S
C846 C848 1.478 . S
C847 H841 0.930 . S
C847 C843 1.400 . S
C847 C846 1.385 . S
C848 C846 1.478 . S
C848 C850 1.381 . S
C848 C854 1.383 . S
C849 C845 1.495 . S
C849 H855 0.959 . S
C849 H856 0.961 . S
C849 H857 0.960 . S
C850 C848 1.381 . S
C850 C851 1.394 . S
C850 H858 0.930 . S
C851 C850 1.394 . S
C851 C852 1.383 . S
C851 H859 0.929 . S
C852 C851 1.383 . S
C852 C853 1.396 . S
C853 H837 0.887 1_556 S
C853 C852 1.396 . S
C853 C854 1.403 . S
C854 H838 0.931 . S
C854 C848 1.383 . S
C854 C853 1.403 . S
H855 C849 0.959 . S
H856 C849 0.961 . S
H857 C849 0.960 . S
H858 C850 0.930 . S
H859 C851 0.929 . S
H860 C868 0.929 . S
H861 C870 0.930 . S
H862 C872 0.930 . S
H863 C875 0.929 . S
H864 C878 0.930 . S
H865 C880 0.960 . S
H866 C880 0.960 . S
H867 C880 0.960 . S
C868 H860 0.929 . S
C868 C869 1.377 . S
C868 C870 1.384 . S
C869 C868 1.377 . S
C869 C875 1.390 . S
C870 H861 0.930 . S
C870 C868 1.384 . S
C870 C871 1.372 . S
C871 C870 1.372 . S
C871 C872 1.400 . S
C871 C876 1.490 . S
C872 H862 0.930 . S
C872 C871 1.400 . S
C872 C875 1.386 . S
H873 C889 0.930 . S
H874 C890 0.931 . S
C875 H863 0.929 . S
C875 C869 1.390 . S
C875 C872 1.386 . S
C876 C871 1.490 . S
C876 C878 1.395 . S
C876 C879 1.403 . S
H877 C883 0.930 . S
C878 H864 0.930 . S
C878 C876 1.395 . S
C878 C881 1.403 . S
C879 C876 1.403 . S
C879 C880 1.524 . S
C879 C883 1.400 . S
C880 H865 0.960 . S
C880 H866 0.960 . S
C880 H867 0.960 . S
C880 C879 1.524 . S
C881 C878 1.403 . S
C881 C882 1.392 . S
C881 C885 1.495 . S
C882 C881 1.392 . S
C882 C883 1.385 . S
C882 C884 1.478 . S
C883 H877 0.930 . S
C883 C879 1.400 . S
C883 C882 1.385 . S
C884 C882 1.478 . S
C884 C886 1.381 . S
C884 C890 1.383 . S
C885 C881 1.495 . S
C885 H891 0.959 . S
C885 H892 0.961 . S
C885 H893 0.960 . S
C886 C884 1.381 . S
C886 C887 1.394 . S
C886 H894 0.930 . S
C887 C886 1.394 . S
C887 C888 1.383 . S
C887 H895 0.929 . S
C888 C887 1.383 . S
C888 C889 1.377 . S
C889 H873 0.930 . S
C889 C888 1.377 . S
C889 C890 1.379 . S
C890 H874 0.931 . S
C890 C884 1.383 . S
C890 C889 1.379 . S
H891 C885 0.959 . S
H892 C885 0.961 . S
H893 C885 0.960 . S
H894 C886 0.930 . S
H895 C887 0.929 . S
H896 C904 0.929 . S
H897 C906 0.930 . S
H898 C908 0.930 . S
H899 C911 0.929 . S
H900 C914 0.930 . S
H901 C916 0.960 . S
H902 C916 0.960 . S
H903 C916 0.960 . S
C904 H896 0.929 . S
C904 C905 1.377 . S
C904 C906 1.384 . S
C905 C904 1.377 . S
C905 C911 1.390 . S
C906 H897 0.930 . S
C906 C904 1.384 . S
C906 C907 1.372 . S
C907 C906 1.372 . S
C907 C908 1.400 . S
C907 C912 1.490 . S
C908 H898 0.930 . S
C908 C907 1.400 . S
C908 C911 1.386 . S
H909 C925 0.930 . S
H910 C926 0.931 . S
C911 H899 0.929 . S
C911 C905 1.390 . S
C911 C908 1.386 . S
C912 C907 1.490 . S
C912 C914 1.395 . S
C912 C915 1.403 . S
H913 C919 0.930 . S
C914 H900 0.930 . S
C914 C912 1.395 . S
C914 C917 1.403 . S
C915 C912 1.403 . S
C915 C916 1.524 . S
C915 C919 1.400 . S
C916 H901 0.960 . S
C916 H902 0.960 . S
C916 H903 0.960 . S
C916 C915 1.524 . S
C917 C914 1.403 . S
C917 C918 1.392 . S
C917 C921 1.495 . S
C918 C917 1.392 . S
C918 C919 1.385 . S
C918 C920 1.478 . S
C919 H913 0.930 . S
C919 C915 1.400 . S
C919 C918 1.385 . S
C920 C918 1.478 . S
C920 C922 1.381 . S
C920 C926 1.383 . S
C921 C917 1.495 . S
C921 H927 0.959 . S
C921 H928 0.961 . S
C921 H929 0.960 . S
C922 C920 1.381 . S
C922 C923 1.394 . S
C922 H930 0.930 . S
C923 C922 1.394 . S
C923 C924 1.383 . S
C923 H931 0.929 . S
C924 C923 1.383 . S
C924 C925 1.377 . S
C925 H909 0.930 . S
C925 C924 1.377 . S
C925 C926 1.379 . S
C926 H910 0.931 . S
C926 C920 1.383 . S
C926 C925 1.379 . S
H927 C921 0.959 . S
H928 C921 0.961 . S
H929 C921 0.960 . S
H930 C922 0.930 . S
H931 C923 0.929 . S
H932 C940 0.929 . S
H933 C942 0.930 . S
H934 C944 0.930 . S
H935 C947 0.929 . S
H936 C950 0.930 . S
H937 C952 0.960 . S
H938 C952 0.960 . S
H939 C952 0.960 . S
C940 H932 0.929 . S
C940 C941 1.377 . S
C940 C942 1.384 . S
C941 C940 1.377 . S
C941 C947 1.390 . S
C942 H933 0.930 . S
C942 C940 1.384 . S
C942 C943 1.372 . S
C943 C942 1.372 . S
C943 C944 1.400 . S
C943 C948 1.490 . S
C944 H934 0.930 . S
C944 C943 1.400 . S
C944 C947 1.386 . S
H945 C961 0.930 . S
H946 C962 0.931 . S
C947 H935 0.929 . S
C947 C941 1.390 . S
C947 C944 1.386 . S
C948 C943 1.490 . S
C948 C950 1.395 . S
C948 C951 1.403 . S
H949 C955 0.930 . S
C950 H936 0.930 . S
C950 C948 1.395 . S
C950 C953 1.403 . S
C951 C948 1.403 . S
C951 C952 1.524 . S
C951 C955 1.400 . S
C952 H937 0.960 . S
C952 H938 0.960 . S
C952 H939 0.960 . S
C952 C951 1.524 . S
C953 C950 1.403 . S
C953 C954 1.392 . S
C953 C957 1.495 . S
C954 C953 1.392 . S
C954 C955 1.385 . S
C954 C956 1.478 . S
C955 H949 0.930 . S
C955 C951 1.400 . S
C955 C954 1.385 . S
C956 C954 1.478 . S
C956 C958 1.381 . S
C956 C962 1.383 . S
C957 C953 1.495 . S
C957 H963 0.959 . S
C957 H964 0.961 . S
C957 H965 0.960 . S
C958 C956 1.381 . S
C958 C959 1.394 . S
C958 H966 0.930 . S
C959 C958 1.394 . S
C959 C960 1.383 . S
C959 H967 0.929 . S
C960 C959 1.383 . S
C960 C961 1.377 . S
C961 H945 0.930 . S
C961 C960 1.377 . S
C961 C962 1.379 . S
C962 H946 0.931 . S
C962 C956 1.383 . S
C962 C961 1.379 . S
H963 C957 0.959 . S
H964 C957 0.961 . S
H965 C957 0.960 . S
H966 C958 0.930 . S
H967 C959 0.929 . S
H968 C976 0.929 . S
H969 C978 0.930 . S
H970 C980 0.930 . S
H971 C983 0.929 . S
H972 C986 0.930 . S
H973 C988 0.960 . S
H974 C988 0.960 . S
H975 C988 0.960 . S
C976 H968 0.929 . S
C976 C977 1.377 . S
C976 C978 1.384 . S
C977 C976 1.377 . S
C977 C983 1.390 . S
C978 H969 0.930 . S
C978 C976 1.384 . S
C978 C979 1.372 . S
C979 C978 1.372 . S
C979 C980 1.400 . S
C979 C984 1.490 . S
C980 H970 0.930 . S
C980 C979 1.400 . S
C980 C983 1.386 . S
H981 C997 0.930 . S
H982 C998 0.931 . S
C983 H971 0.929 . S
C983 C977 1.390 . S
C983 C980 1.386 . S
C984 C979 1.490 . S
C984 C986 1.395 . S
C984 C987 1.403 . S
H985 C991 0.930 . S
C986 H972 0.930 . S
C986 C984 1.395 . S
C986 C989 1.403 . S
C987 C984 1.403 . S
C987 C988 1.524 . S
C987 C991 1.400 . S
C988 H973 0.960 . S
C988 H974 0.960 . S
C988 H975 0.960 . S
C988 C987 1.524 . S
C989 C986 1.403 . S
C989 C990 1.392 . S
C989 C993 1.495 . S
C990 C989 1.392 . S
C990 C991 1.385 . S
C990 C992 1.478 . S
C991 H985 0.930 . S
C991 C987 1.400 . S
C991 C990 1.385 . S
C992 C990 1.478 . S
C992 C994 1.381 . S
C992 C998 1.383 . S
C993 C989 1.495 . S
C993 H999 0.959 . S
C993 H1000 0.961 . S
C993 H1001 0.960 . S
C994 C992 1.381 . S
C994 C995 1.394 . S
C994 H1002 0.930 . S
C995 C994 1.394 . S
C995 C996 1.383 . S
C995 H1003 0.929 . S
C996 C995 1.383 . S
C996 C997 1.377 . S
C997 H981 0.930 . S
C997 C996 1.377 . S
C997 C998 1.379 . S
C998 H982 0.931 . S
C998 C992 1.383 . S
C998 C997 1.379 . S
H999 C993 0.959 . S
H1000 C993 0.961 . S
H1001 C993 0.960 . S
H1002 C994 0.930 . S
H1003 C995 0.929 . S
H1004 C1012 0.929 . S
H1005 C1014 0.930 . S
H1006 C1016 0.930 . S
H1007 C1019 0.929 . S
H1008 C1022 0.930 . S
H1009 C1024 0.960 . S
H1010 C1024 0.960 . S
H1011 C1024 0.960 . S
C1012 H1004 0.929 . S
C1012 C1013 1.377 . S
C1012 C1014 1.384 . S
C1013 C1012 1.377 . S
C1013 C1019 1.390 . S
C1014 H1005 0.930 . S
C1014 C1012 1.384 . S
C1014 C1015 1.372 . S
C1015 C1014 1.372 . S
C1015 C1016 1.400 . S
C1015 C1020 1.490 . S
C1016 H1006 0.930 . S
C1016 C1015 1.400 . S
C1016 C1019 1.386 . S
H1017 C1033 0.930 . S
H1018 C1034 0.931 . S
C1019 H1007 0.929 . S
C1019 C1013 1.390 . S
C1019 C1016 1.386 . S
C1020 C1015 1.490 . S
C1020 C1022 1.395 . S
C1020 C1023 1.403 . S
H1021 C1027 0.930 . S
C1022 H1008 0.930 . S
C1022 C1020 1.395 . S
C1022 C1025 1.403 . S
C1023 C1020 1.403 . S
C1023 C1024 1.524 . S
C1023 C1027 1.400 . S
C1024 H1009 0.960 . S
C1024 H1010 0.960 . S
C1024 H1011 0.960 . S
C1024 C1023 1.524 . S
C1025 C1022 1.403 . S
C1025 C1026 1.392 . S
C1025 C1029 1.495 . S
C1026 C1025 1.392 . S
C1026 C1027 1.385 . S
C1026 C1028 1.478 . S
C1027 H1021 0.930 . S
C1027 C1023 1.400 . S
C1027 C1026 1.385 . S
C1028 C1026 1.478 . S
C1028 C1030 1.381 . S
C1028 C1034 1.383 . S
C1029 C1025 1.495 . S
C1029 H1035 0.959 . S
C1029 H1036 0.961 . S
C1029 H1037 0.960 . S
C1030 C1028 1.381 . S
C1030 C1031 1.394 . S
C1030 H1038 0.930 . S
C1031 C1030 1.394 . S
C1031 C1032 1.383 . S
C1031 H1039 0.929 . S
C1032 C1031 1.383 . S
C1032 C1033 1.377 . S
C1033 H1017 0.930 . S
C1033 C1032 1.377 . S
C1033 C1034 1.379 . S
C1034 H1018 0.931 . S
C1034 C1028 1.383 . S
C1034 C1033 1.379 . S
H1035 C1029 0.959 . S
H1036 C1029 0.961 . S
H1037 C1029 0.960 . S
H1038 C1030 0.930 . S
H1039 C1031 0.929 . S
H1040 C1048 0.929 . S
H1041 C1050 0.930 . S
H1042 C1052 0.930 . S
H1043 C1055 0.929 . S
H1044 C1058 0.930 . S
H1045 C1060 0.960 . S
H1046 C1060 0.960 . S
H1047 C1060 0.960 . S
C1048 H1040 0.929 . S
C1048 C1049 1.377 . S
C1048 C1050 1.384 . S
C1049 C1048 1.377 . S
C1049 C1055 1.390 . S
C1050 H1041 0.930 . S
C1050 C1048 1.384 . S
C1050 C1051 1.372 . S
C1051 C1050 1.372 . S
C1051 C1052 1.400 . S
C1051 C1056 1.490 . S
C1052 H1042 0.930 . S
C1052 C1051 1.400 . S
C1052 C1055 1.386 . S
H1053 C1069 0.930 . S
H1054 C1070 0.931 . S
C1055 H1043 0.929 . S
C1055 C1049 1.390 . S
C1055 C1052 1.386 . S
C1056 C1051 1.490 . S
C1056 C1058 1.395 . S
C1056 C1059 1.403 . S
H1057 C1063 0.930 . S
C1058 H1044 0.930 . S
C1058 C1056 1.395 . S
C1058 C1061 1.403 . S
C1059 C1056 1.403 . S
C1059 C1060 1.524 . S
C1059 C1063 1.400 . S
C1060 H1045 0.960 . S
C1060 H1046 0.960 . S
C1060 H1047 0.960 . S
C1060 C1059 1.524 . S
C1061 C1058 1.403 . S
C1061 C1062 1.392 . S
C1061 C1065 1.495 . S
C1062 C1061 1.392 . S
C1062 C1063 1.385 . S
C1062 C1064 1.478 . S
C1063 H1057 0.930 . S
C1063 C1059 1.400 . S
C1063 C1062 1.385 . S
C1064 C1062 1.478 . S
C1064 C1066 1.381 . S
C1064 C1070 1.383 . S
C1065 C1061 1.495 . S
C1065 H1071 0.959 . S
C1065 H1072 0.961 . S
C1065 H1073 0.960 . S
C1066 C1064 1.381 . S
C1066 C1067 1.394 . S
C1066 H1074 0.930 . S
C1067 C1066 1.394 . S
C1067 C1068 1.383 . S
C1067 H1075 0.929 . S
C1068 C1067 1.383 . S
C1068 C1069 1.377 . S
C1069 H1053 0.930 . S
C1069 C1068 1.377 . S
C1069 C1070 1.379 . S
C1070 H1054 0.931 . S
C1070 C1064 1.383 . S
C1070 C1069 1.379 . S
H1071 C1065 0.959 . S
H1072 C1065 0.961 . S
H1073 C1065 0.960 . S
H1074 C1066 0.930 . S
H1075 C1067 0.929 . S
H1076 C1084 0.929 . S
H1077 C1086 0.930 . S
H1078 C1088 0.930 . S
H1079 C1091 0.929 . S
H1080 C1094 0.930 . S
H1081 C1096 0.960 . S
H1082 C1096 0.960 . S
H1083 C1096 0.960 . S
C1084 H1076 0.929 . S
C1084 C1085 1.377 . S
C1084 C1086 1.384 . S
C1085 C1084 1.377 . S
C1085 C1091 1.390 . S
C1086 H1077 0.930 . S
C1086 C1084 1.384 . S
C1086 C1087 1.372 . S
C1087 C1086 1.372 . S
C1087 C1088 1.400 . S
C1087 C1092 1.490 . S
C1088 H1078 0.930 . S
C1088 C1087 1.400 . S
C1088 C1091 1.386 . S
H1089 C1105 0.930 . S
H1090 C1106 0.931 . S
C1091 H1079 0.929 . S
C1091 C1085 1.390 . S
C1091 C1088 1.386 . S
C1092 C1087 1.490 . S
C1092 C1094 1.395 . S
C1092 C1095 1.403 . S
H1093 C1099 0.930 . S
C1094 H1080 0.930 . S
C1094 C1092 1.395 . S
C1094 C1097 1.403 . S
C1095 C1092 1.403 . S
C1095 C1096 1.524 . S
C1095 C1099 1.400 . S
C1096 H1081 0.960 . S
C1096 H1082 0.960 . S
C1096 H1083 0.960 . S
C1096 C1095 1.524 . S
C1097 C1094 1.403 . S
C1097 C1098 1.392 . S
C1097 C1101 1.495 . S
C1098 C1097 1.392 . S
C1098 C1099 1.385 . S
C1098 C1100 1.478 . S
C1099 H1093 0.930 . S
C1099 C1095 1.400 . S
C1099 C1098 1.385 . S
C1100 C1098 1.478 . S
C1100 C1102 1.381 . S
C1100 C1106 1.383 . S
C1101 C1097 1.495 . S
C1101 H1107 0.959 . S
C1101 H1108 0.961 . S
C1101 H1109 0.960 . S
C1102 C1100 1.381 . S
C1102 C1103 1.394 . S
C1102 H1110 0.930 . S
C1103 C1102 1.394 . S
C1103 C1104 1.383 . S
C1103 H1111 0.929 . S
C1104 C1103 1.383 . S
C1104 C1105 1.377 . S
C1105 H1089 0.930 . S
C1105 C1104 1.377 . S
C1105 C1106 1.379 . S
C1106 H1090 0.931 . S
C1106 C1100 1.383 . S
C1106 C1105 1.379 . S
H1107 C1101 0.959 . S
H1108 C1101 0.961 . S
H1109 C1101 0.960 . S
H1110 C1102 0.930 . S
H1111 C1103 0.929 . S
C257 C4 1.096 . S
C276 C94 1.115 . S
C293 C16 1.249 . S
C312 C143 1.251 . S
C348 C178 1.960 . S
C329 C32 1.990 . S
C365 C43 2.201 . S
C384 C217 2.150 1_655 S
C420 C138 2.787 . S
C401 C5 2.713 . S
C456 C97 0.526 . S
C437 C21 0.464 . S
C492 C227 1.788 . S
C473 C27 1.844 . S
C528 C186 1.444 . S
C509 C37 1.466 . S
C545 C10 1.493 . S
C564 C214 1.508 . S
C600 C146 2.531 . S
C581 C26 2.616 . S
C617 C38 2.045 . S
C636 C107 2.038 . S
C653 C15 0.894 . S
C672 C183 0.879 . S
C708 C103 1.326 . S
C689 C48 1.313 . S
C725 C59 0.986 . S
C744 C134 0.967 . S
C761 C76 2.448 . S
C780 C187 2.382 . S
C797 C87 2.001 . S
C816 C226 1.964 . S
C833 C54 1.943 . S
C852 C147 1.998 1_556 S
C888 C106 1.551 . S
C869 C60 1.583 . S
C924 C218 1.685 . S
C905 C71 1.706 . S
C960 C177 1.410 . S
C941 C82 1.456 . S
C977 C49 1.789 . S
C996 C223 1.857 . S
C1032 C137 1.887 . S
C1013 C70 1.994 . S
C1068 C98 2.542 . S
C1049 C81 2.575 . S
C1085 C65 0.748 . S
C1104 C174 0.740 . S
