# Generated by pormake.
# Topology anh, (6,3)-cn, num edge types: 1
# Building blocks:
#     Node 0, Type 0, BuildingBlock: NUHQIS_clean_sbu_0, # of connection points: 6
#     Node 1, Type 0, BuildingBlock: NUHQIS_clean_sbu_0, # of connection points: 6
#     Node 2, Type 0, BuildingBlock: NUHQIS_clean_sbu_0, # of connection points: 6
#     Node 3, Type 1, BuildingBlock: VETTIZ_charged_linker_0, # of connection points: 3
#     Node 4, Type 1, BuildingBlock: VETTIZ_charged_linker_0, # of connection points: 3
#     Node 5, Type 1, BuildingBlock: VETTIZ_charged_linker_0, # of connection points: 3
#     Node 6, Type 1, BuildingBlock: VETTIZ_charged_linker_0, # of connection points: 3
#     Node 7, Type 1, BuildingBlock: VETTIZ_charged_linker_0, # of connection points: 3
#     Node 8, Type 1, BuildingBlock: VETTIZ_charged_linker_0, # of connection points: 3
#     Edge 9, Type (0, 1), BuildingBlock: OJICUG_clean_linker_0, # of connection points: 2
#     Edge 10, Type (0, 1), BuildingBlock: OJICUG_clean_linker_0, # of connection points: 2
#     Edge 11, Type (0, 1), BuildingBlock: OJICUG_clean_linker_0, # of connection points: 2
#     Edge 12, Type (0, 1), BuildingBlock: OJICUG_clean_linker_0, # of connection points: 2
#     Edge 13, Type (0, 1), BuildingBlock: OJICUG_clean_linker_0, # of connection points: 2
#     Edge 14, Type (0, 1), BuildingBlock: OJICUG_clean_linker_0, # of connection points: 2
#     Edge 15, Type (0, 1), BuildingBlock: OJICUG_clean_linker_0, # of connection points: 2
#     Edge 16, Type (0, 1), BuildingBlock: OJICUG_clean_linker_0, # of connection points: 2
#     Edge 17, Type (0, 1), BuildingBlock: OJICUG_clean_linker_0, # of connection points: 2
#     Edge 18, Type (0, 1), BuildingBlock: OJICUG_clean_linker_0, # of connection points: 2
#     Edge 19, Type (0, 1), BuildingBlock: OJICUG_clean_linker_0, # of connection points: 2
#     Edge 20, Type (0, 1), BuildingBlock: OJICUG_clean_linker_0, # of connection points: 2
#     Edge 21, Type (0, 1), BuildingBlock: OJICUG_clean_linker_0, # of connection points: 2
#     Edge 22, Type (0, 1), BuildingBlock: OJICUG_clean_linker_0, # of connection points: 2
#     Edge 23, Type (0, 1), BuildingBlock: OJICUG_clean_linker_0, # of connection points: 2
#     Edge 24, Type (0, 1), BuildingBlock: OJICUG_clean_linker_0, # of connection points: 2
#     Edge 25, Type (0, 1), BuildingBlock: OJICUG_clean_linker_0, # of connection points: 2
#     Edge 26, Type (0, 1), BuildingBlock: OJICUG_clean_linker_0, # of connection points: 2
# Relax obj value: 0.305
# Max RMSD: 0.200
# Mean RMSD: 0.166
data_MOF--net-anh--node1-NUHQIS_clean_sbu_0--node2-VETTIZ_charged_linker_0--edge1-OJICUG_clean_linker_0
_symmetry_space_group_name_H-M    P1
_symmetry_Int_Tables_number       1
_symmetry_cell_setting            triclinic
loop_
_symmetry_equiv_pos_as_xyz
'x, y, z'
_cell_length_a     27.473316
_cell_length_b     27.47507
_cell_length_c     52.897814
_cell_angle_alpha  90.304457
_cell_angle_beta   91.887042
_cell_angle_gamma 119.96202
loop_
_atom_site_label
_atom_site_type_symbol
_atom_site_fract_x
_atom_site_fract_y
_atom_site_fract_z
_atom_type_partial_charge
Tb0 Tb 0.26706 0.69162 0.17311 0.0
Eu1 Eu 0.20286 0.75552 0.15325 0.0
C2 C 0.2308 0.75711 0.21024 0.0
C3 C 1.13536 0.6213 0.1646 0.0
C4 C 0.31551 0.58903 0.18082 0.0
C5 C 0.3265 0.50827 0.18922 0.0
C6 C 0.32234 0.55409 0.19799 0.0
C7 C 0.31061 0.5765 0.15481 0.0
C8 C 0.31531 0.53114 0.14601 0.0
C9 C 0.32428 0.49697 0.16308 0.0
C10 C 0.31342 0.63833 0.19012 0.0
O11 O 0.27765 0.69247 0.13213 0.0
O12 O 0.20746 0.70985 0.11922 0.0
O13 O 0.29543 0.82341 0.15037 0.0
O14 O 0.33199 0.78208 0.17669 0.0
C15 C 0.24597 0.69689 0.11415 0.0
O16 O 0.17192 0.7906 0.124 0.0
O17 O 1.14519 0.78522 0.16242 0.0
O18 O 0.23674 0.79053 0.1918 0.0
O19 O 0.2312 0.71022 0.2058 0.0
O20 O 0.18296 0.62217 0.16067 0.0
O21 O 1.13613 0.6694 0.16719 0.0
C22 C 0.33835 0.82605 0.16375 0.0
O23 O 0.33881 0.68333 0.17674 0.0
O24 O 0.2643 0.62891 0.19665 0.0
C25 C 1.07396 0.74578 0.13076 0.0
C26 C 0.97245 0.64199 0.12662 0.0
C27 C 1.01294 0.65723 0.10819 0.0
C28 C 1.06308 0.70853 0.1102 0.0
C29 C 1.03108 0.73293 0.14776 0.0
C30 C 0.9809 0.68139 0.14579 0.0
C31 C 1.13277 0.7872 0.13856 0.0
H32 H 0.33247 0.48233 0.20289 0.0
H33 H 0.32529 0.56272 0.21817 0.0
H34 H 0.30455 0.60261 0.14125 0.0
H35 H 0.31423 0.52441 0.12576 0.0
H36 H 1.00679 0.62859 0.09267 0.0
H37 H 1.09491 0.71687 0.09666 0.0
H38 H 1.03832 0.76056 0.16388 0.0
H39 H 0.95032 0.6711 0.16018 0.0
Tb40 Tb 0.77821 0.1588 0.50268 0.0
Eu41 Eu 0.65288 1.09408 0.47831 0.0
C42 C 0.67496 0.10951 0.53679 0.0
C43 C 0.71971 1.02576 0.49341 0.0
C44 C 0.90878 0.28236 0.51928 0.0
C45 C 0.97603 0.36423 0.49694 0.0
C46 C 0.95665 0.30924 0.5048 0.0
C47 C 0.88467 0.31357 0.52816 0.0
C48 C 0.90321 0.36792 0.51993 0.0
C49 C 0.94707 0.39279 0.50302 0.0
C50 C 0.8769 0.2204 0.5201 0.0
O51 O 0.78033 0.18317 0.46289 0.0
O52 O 0.70997 1.09907 0.44814 0.0
O53 O 0.67732 0.1874 0.47732 0.0
O54 O 0.75065 0.22123 0.50666 0.0
C55 C 0.75515 0.14672 0.44406 0.0
O56 O 0.56749 1.02379 0.47955 0.0
O57 O 0.58963 1.08426 0.44955 0.0
O58 O 0.64772 0.11733 0.5181 0.0
O59 O 0.72255 0.11078 0.53292 0.0
O60 O 0.76712 1.0746 0.49515 0.0
O61 O 0.67092 1.02399 0.49003 0.0
C62 C 0.71412 0.22839 0.49267 0.0
O63 O 0.83309 0.1989 0.53411 0.0
O64 O 0.86521 0.19456 0.49807 0.0
C65 C 0.49863 1.0452 0.46601 0.0
C66 C 0.40099 1.04756 0.47842 0.0
C67 C 0.39919 0.99621 0.47374 0.0
C68 C 0.44748 0.99511 0.46757 0.0
C69 C 0.5011 1.0968 0.47088 0.0
C70 C 0.45235 1.09798 0.4768 0.0
C71 C 0.54912 1.04194 0.4609 0.0
H72 H 1.01152 0.38289 0.48479 0.0
H73 H 0.97641 0.28633 0.49794 0.0
H74 H 0.84823 0.29448 0.53973 0.0
H75 H 0.87984 0.38821 0.52525 0.0
H76 H 0.35997 0.95669 0.47417 0.0
H77 H 0.4449 0.95496 0.46405 0.0
H78 H 0.54054 0.13601 0.47016 0.0
H79 H 0.45474 0.13806 0.48015 0.0
Tb80 Tb 0.77718 0.69506 0.83314 0.0
Eu81 Eu 0.71241 0.55961 0.82936 0.0
C82 C 0.74649 0.62079 0.88072 0.0
C83 C 0.84949 0.63094 0.83227 0.0
C84 C 0.79164 0.82806 0.82498 0.0
C85 C 0.73726 0.8257 0.7874 0.0
C86 C 0.78494 0.82764 0.79847 0.0
C87 C 0.75549 0.83735 0.8399 0.0
C88 C 0.70778 0.83552 0.82882 0.0
C89 C 0.69626 0.82538 0.80263 0.0
C90 C 0.82039 0.79958 0.83629 0.0
O91 O 0.76628 0.67853 0.79218 0.0
O92 O 0.70848 0.58235 0.78923 0.0
O93 O 0.64575 0.58477 0.83666 0.0
O94 O 0.69006 0.67632 0.82477 0.0
C95 C 0.73587 0.63158 0.77891 0.0
O96 O 0.69165 0.47591 0.81533 0.0
O97 O 0.64342 0.4855 0.84494 0.0
O98 O 0.75588 0.58676 0.86736 0.0
O99 O 0.74032 0.65951 0.86924 0.0
O100 O 0.84546 0.67497 0.83971 0.0
O101 O 0.80416 0.58361 0.82465 0.0
C102 C 0.64396 0.63074 0.83133 0.0
O103 O 0.79443 0.76668 0.85482 0.0
O104 O 0.83665 0.7747 0.82036 0.0
C105 C 0.63334 0.39458 0.84005 0.0
C106 C 0.57261 0.27743 0.84475 0.0
C107 C 0.62175 0.30274 0.83088 0.0
C108 C 0.65173 0.36098 0.82839 0.0
C109 C 0.58853 0.3697 0.85652 0.0
C110 C 0.55824 0.31149 0.85879 0.0
C111 C 0.64996 0.45079 0.8305 0.0
H112 H 0.73054 0.82035 0.76704 0.0
H113 H 0.8128 0.82206 0.78628 0.0
H114 H 0.76001 0.83873 0.86036 0.0
H115 H 0.67735 0.83636 0.84105 0.0
H116 H 0.63353 0.27733 0.81973 0.0
H117 H 0.68597 0.37894 0.81552 0.0
H118 H 0.57329 0.39453 0.86574 0.0
H119 H 0.52067 0.29285 0.86968 0.0
C120 C 0.88084 0.3679 0.17771 0.0
C121 C 0.93124 0.41124 0.19025 0.0
C122 C 0.93804 0.40695 0.21643 0.0
C123 C 0.84828 0.3195 0.21767 0.0
C124 C 0.83974 0.32197 0.19189 0.0
C125 C 0.78348 0.2705 0.18283 0.0
H126 H 0.55107 1.01872 0.21955 0.0
C127 C 0.79998 0.26783 0.22759 0.0
C128 C 0.76076 0.23761 0.20735 0.0
H129 H 0.57481 1.0779 0.14323 0.0
H130 H 0.6633 0.16326 0.15738 0.0
H131 H 0.67119 1.0451 0.23127 0.0
H132 H 0.58114 0.13182 0.2446 0.0
H133 H 0.62511 0.14729 0.2717 0.0
H134 H 0.57376 1.07505 0.26372 0.0
H135 H 0.62258 1.02685 0.25609 0.0
H136 H 0.69649 1.07689 0.2612 0.0
C137 C 0.79481 0.23604 0.16332 0.0
C138 C 0.74412 0.29053 0.17183 0.0
C139 C 0.80294 0.22848 0.32242 0.0
C140 C 0.76538 0.18327 0.33714 0.0
C141 C 0.71548 0.14028 0.32532 0.0
C142 C 0.70358 0.14099 0.29954 0.0
C143 C 0.74169 0.1853 0.28484 0.0
C144 C 0.79024 0.22831 0.29627 0.0
C145 C 0.82544 0.27151 0.27728 0.0
C146 C 0.78987 0.24707 0.2527 0.0
C147 C 0.74111 0.19664 0.25743 0.0
C148 C 0.88256 0.27294 0.27638 0.0
C149 C 0.82988 0.32804 0.28526 0.0
C150 C 0.57498 1.04914 0.20547 0.0
C151 C 0.55539 1.03982 0.18013 0.0
C152 C 0.5883 1.0829 0.16299 0.0
C153 C 0.63985 0.13236 0.17117 0.0
C154 C 0.65899 0.13972 0.19686 0.0
C155 C 0.62527 1.09784 0.2132 0.0
C156 C 0.64803 0.10998 0.2398 0.0
C157 C 0.70167 0.16552 0.23744 0.0
C158 C 0.70991 0.1847 0.21228 0.0
C159 C 0.65995 1.06233 0.24776 0.0
C160 C 0.60494 0.11601 0.25598 0.0
H161 H 0.90661 0.36274 0.24985 0.0
H162 H 0.87395 0.36957 0.15755 0.0
H163 H 0.7391 0.31782 0.18585 0.0
H164 H 0.70183 0.25473 0.16686 0.0
H165 H 0.76146 0.31509 0.15451 0.0
H166 H 0.82568 0.22472 0.17132 0.0
H167 H 0.8122 0.26056 0.146 0.0
H168 H 0.75598 0.19655 0.15775 0.0
H169 H 0.84161 0.26237 0.33088 0.0
H170 H 0.68503 0.1057 0.33616 0.0
H171 H 0.66492 0.10636 0.29218 0.0
H172 H 0.8777 0.23113 0.28059 0.0
H173 H 0.91377 0.30372 0.29048 0.0
H174 H 0.90048 0.28246 0.25743 0.0
H175 H 0.79037 0.32092 0.29374 0.0
H176 H 0.83544 0.35548 0.26913 0.0
H177 H 0.86471 0.3513 0.29957 0.0
H178 H 0.9755 0.43888 0.22661 0.0
C179 C 0.89753 0.36222 0.22999 0.0
C180 C 0.7186 0.77073 0.50623 0.0
C181 C 0.72384 0.81945 0.51895 0.0
C182 C 0.72998 0.8224 0.54544 0.0
C183 C 0.72424 0.73109 0.54678 0.0
C184 C 0.71941 0.72691 0.52066 0.0
C185 C 0.71635 0.67197 0.51163 0.0
H186 H 0.70592 0.42328 0.55008 0.0
C187 C 0.7218 0.67959 0.55698 0.0
C188 C 0.71703 0.64348 0.53664 0.0
H189 H 0.71291 0.47245 0.47249 0.0
H190 H 0.71264 0.55838 0.48638 0.0
H191 H 0.79656 0.53955 0.57239 0.0
H192 H 0.61666 0.45363 0.56531 0.0
H193 H 0.63293 0.4922 0.59387 0.0
H194 H 0.6528 0.43901 0.59028 0.0
H195 H 0.75165 0.47982 0.59064 0.0
H196 H 0.77394 0.55037 0.60139 0.0
C197 C 0.76859 0.68671 0.49646 0.0
C198 C 0.6614 0.63611 0.49592 0.0
C199 C 0.73017 0.66317 0.65315 0.0
C200 C 0.72312 0.61905 0.669 0.0
C201 C 0.70979 0.56712 0.65742 0.0
C202 C 0.70659 0.56014 0.63109 0.0
C203 C 0.71556 0.605 0.6156 0.0
C204 C 0.72543 0.65483 0.62667 0.0
C205 C 0.72909 0.69606 0.60713 0.0
C206 C 0.72171 0.6633 0.58251 0.0
C207 C 0.71501 0.61056 0.58767 0.0
C208 C 0.78851 0.74879 0.61002 0.0
C209 C 0.67964 0.7073 0.61092 0.0
C210 C 0.70806 0.45233 0.5358 0.0
C211 C 0.71059 0.44057 0.51018 0.0
C212 C 0.71129 0.47982 0.49249 0.0
C213 C 0.71158 0.52997 0.50055 0.0
C214 C 0.71078 0.54138 0.52663 0.0
C215 C 0.70843 0.50165 0.54342 0.0
C216 C 0.70729 0.51747 0.57031 0.0
C217 C 0.71156 0.57426 0.56763 0.0
C218 C 0.71301 0.5896 0.54199 0.0
C219 C 0.75966 0.5218 0.58465 0.0
C220 C 0.6498 0.47334 0.5807 0.0
H221 H 0.73499 0.78543 0.57931 0.0
H222 H 0.71456 0.7672 0.48579 0.0
H223 H 0.62463 0.62881 0.50691 0.0
H224 H 0.65595 0.5946 0.49071 0.0
H225 H 0.66099 0.6576 0.47824 0.0
H226 H 0.80758 0.71567 0.50771 0.0
H227 H 0.76796 0.70776 0.47866 0.0
H228 H 0.77113 0.64898 0.4915 0.0
H229 H 0.73984 0.70362 0.661 0.0
H230 H 0.70139 0.53116 0.66866 0.0
H231 H 0.69762 0.51987 0.6239 0.0
H232 H 0.82074 0.73671 0.61485 0.0
H233 H 0.79042 0.77759 0.62533 0.0
H234 H 0.80257 0.77233 0.59236 0.0
H235 H 0.64434 0.67205 0.62057 0.0
H236 H 0.66029 0.71057 0.5928 0.0
H237 H 0.69327 0.74598 0.62263 0.0
H238 H 0.73438 0.8587 0.55574 0.0
C239 C 0.73014 0.77922 0.55921 0.0
C240 C 0.39442 0.63884 0.84539 0.0
C241 C 0.44159 0.63969 0.85829 0.0
C242 C 0.44432 0.64332 0.88486 0.0
C243 C 0.35598 0.64404 0.88581 0.0
C244 C 0.35175 0.6409 0.85964 0.0
C245 C 0.29704 0.63886 0.85029 0.0
H246 H 1.05508 0.641 0.88691 0.0
C247 C 0.30571 0.64383 0.89575 0.0
C248 C 0.26973 0.64056 0.8751 0.0
H249 H 1.09431 0.63199 0.80954 0.0
H250 H 0.18161 0.6333 0.82401 0.0
H251 H 1.08156 0.5503 0.90492 0.0
H252 H 0.17185 0.72988 0.90661 0.0
H253 H 0.18969 0.71206 0.93578 0.0
H254 H 1.117 0.68922 0.92777 0.0
H255 H 1.0702 0.59061 0.92829 0.0
H256 H 1.12097 0.56775 0.93356 0.0
C257 C 0.26001 0.58365 0.8352 0.0
C258 C 0.31174 0.69075 0.83434 0.0
C259 C 0.29261 0.6597 0.99198 0.0
C260 C 0.25086 0.66021 0.0067 0.0
C261 C 0.20031 0.65032 -0.00549 0.0
C262 C 0.19234 0.64346 0.96831 0.0
C263 C 0.23509 0.64593 0.95359 0.0
C264 C 0.28363 0.65242 0.96539 0.0
C265 C 0.3231 0.65187 0.94628 0.0
C266 C 0.2907 0.64569 0.92119 0.0
C267 C 0.23968 0.64302 0.92581 0.0
C268 C 0.33005 0.6 0.95132 0.0
C269 C 0.3785 0.70915 0.94861 0.0
C270 C 1.08218 0.63964 0.87282 0.0
C271 C 1.06741 0.63723 0.8471 0.0
C272 C 1.1042 0.6341 0.82963 0.0
C273 C 0.15493 0.63498 0.83802 0.0
C274 C 0.16891 0.63792 0.86421 0.0
C275 C 1.13142 0.63944 0.88075 0.0
C276 C 1.14862 0.64015 0.90774 0.0
C277 C 0.20362 0.64073 0.90546 0.0
C278 C 0.21721 0.63941 0.87996 0.0
C279 C 1.10308 0.58475 0.91945 0.0
C280 C 0.15696 0.69526 0.92036 0.0
H281 H 0.40837 0.6482 0.91863 0.0
H282 H 0.3905 0.63575 0.82494 0.0
H283 H 0.34092 0.72991 0.84528 0.0
H284 H 0.27383 0.6931 0.82881 0.0
H285 H 0.33252 0.68968 0.81684 0.0
H286 H 0.25321 0.54708 0.84664 0.0
H287 H 0.28033 0.58268 0.81753 0.0
H288 H 0.21825 0.5782 0.83003 0.0
H289 H 0.33179 0.66667 0.00079 0.0
H290 H 0.16689 0.64908 0.00533 0.0
H291 H 0.15332 0.63787 0.96065 0.0
H292 H 0.29321 0.56637 0.96088 0.0
H293 H 0.36796 0.6114 0.96362 0.0
H294 H 0.33223 0.57952 0.93365 0.0
H295 H 0.36951 0.74397 0.9516 0.0
H296 H 0.40296 0.71997 0.93134 0.0
H297 H 0.40549 0.71006 0.96492 0.0
H298 H 0.4793 0.64407 0.89533 0.0
C299 C 0.40259 0.64559 0.89847 0.0
C300 C 0.98878 0.6349 0.45629 0.0
C301 C 0.96744 0.58083 0.44531 0.0
C302 C 0.95484 0.57343 0.41898 0.0
C303 C 0.99848 0.67378 0.41459 0.0
C304 C 1.00319 0.68064 0.44055 0.0
C305 C 1.02828 0.74138 0.44866 0.0
H306 H 0.2116 1.00427 0.42314 0.0
C307 C 1.02686 0.72965 0.40339 0.0
C308 C 1.04209 0.76971 0.42312 0.0
H309 H 1.1301 0.9386 0.49356 0.0
H310 H 1.06054 0.85346 0.47136 0.0
H311 H 0.22041 0.91216 0.40784 0.0
H312 H 1.08819 0.94543 0.38602 0.0
H313 H 1.10207 0.91777 0.35892 0.0
H314 H 0.15708 0.98252 0.37354 0.0
H315 H 0.22875 0.96152 0.38393 0.0
H316 H 0.2023 0.88839 0.37647 0.0
C317 C 1.08179 0.75803 0.46547 0.0
C318 C 0.983 0.74888 0.46209 0.0
C319 C 1.10629 0.74625 0.31644 0.0
C320 C 1.14593 0.79256 0.30311 0.0
C321 C 0.16351 0.84723 0.31256 0.0
C322 C 1.14352 0.85548 0.33524 0.0
C323 C 1.10675 0.80878 0.34912 0.0
C324 C 1.08767 0.75525 0.33942 0.0
C325 C 1.04922 0.71063 0.35699 0.0
C326 C 1.04945 0.74658 0.37912 0.0
C327 C 1.08399 0.80392 0.37447 0.0
C328 C 1.07696 0.6752 0.36425 0.0
C329 C 0.99016 0.67604 0.34374 0.0
C330 C 0.17761 0.97305 0.43389 0.0
C331 C 0.17834 0.97737 0.46047 0.0
C332 C 1.13218 0.9355 0.47324 0.0
C333 C 1.09229 0.88583 0.46044 0.0
C334 C 1.09915 0.87815 0.43482 0.0
C335 C 1.13836 0.92285 0.42153 0.0
C336 C 1.14047 0.90686 0.39454 0.0
C337 C 1.09725 0.84464 0.39408 0.0
C338 C 1.07444 0.82778 0.41797 0.0
C339 C 0.20091 0.91794 0.39018 0.0
C340 C 1.12143 0.93998 0.37717 0.0
H341 H 0.96127 0.612 0.38362 0.0
H342 H 0.99719 0.64216 0.47648 0.0
H343 H 0.93992 0.71262 0.45828 0.0
H344 H 0.98104 0.78598 0.45524 0.0
H345 H 0.99079 0.75308 0.48294 0.0
H346 H 1.11006 0.74645 0.4558 0.0
H347 H 1.07078 0.73616 0.48377 0.0
H348 H 1.10668 0.80335 0.46995 0.0
H349 H 1.09055 0.7037 0.30931 0.0
H350 H 0.19415 0.88381 0.30288 0.0
H351 H 0.15948 0.8981 0.34165 0.0
H352 H 1.12029 0.70274 0.37238 0.0
H353 H 1.07979 0.65263 0.34738 0.0
H354 H 1.05411 0.64313 0.37826 0.0
H355 H 0.98436 0.69859 0.32755 0.0
H356 H 0.95615 0.66845 0.35661 0.0
H357 H 0.98307 0.63504 0.33626 0.0
H358 H 0.93505 0.532 0.41007 0.0
C359 C 0.96999 0.61969 0.4036 0.0
C360 C 0.4495 0.79111 0.7644 0.0
C361 C 0.48608 0.77578 0.7536 0.0
C362 C 0.48978 0.77699 0.72707 0.0
C363 C 0.44596 0.83424 0.72516 0.0
C364 C 0.4332 0.82402 0.75034 0.0
C365 C 0.41754 0.86455 0.76156 0.0
H366 H 0.47269 0.1273 0.76471 0.0
C367 C 0.4438 0.88508 0.71821 0.0
C368 C 0.42612 0.90256 0.73932 0.0
H369 H 0.39451 1.00093 0.82096 0.0
H370 H 0.37562 0.92792 0.78969 0.0
H371 H 0.54841 1.08397 0.74332 0.0
H372 H 0.38592 1.05447 0.71724 0.0
H373 H 0.41774 1.04753 0.69017 0.0
H374 H 0.44919 0.11418 0.70729 0.0
H375 H 0.53434 0.13697 0.73126 0.0
H376 H 0.54894 1.09484 0.71047 0.0
C377 C 0.45974 0.8963 0.7842 0.0
C378 C 0.35516 0.83129 0.76875 0.0
C379 C 0.54348 0.98766 0.63968 0.0
C380 C 0.55861 1.04102 0.63041 0.0
C381 C 0.54166 1.07479 0.64332 0.0
C382 C 0.51133 1.05624 0.66539 0.0
C383 C 0.49843 1.00371 0.67494 0.0
C384 C 0.51331 0.96986 0.66182 0.0
C385 C 0.49526 0.91497 0.67456 0.0
C386 C 0.4668 0.92151 0.69754 0.0
C387 C 0.46981 0.97403 0.69783 0.0
C388 C 0.54881 0.9113 0.68172 0.0
C389 C 0.45237 0.86693 0.65659 0.0
C390 C 0.45037 1.08361 0.76998 0.0
C391 C 0.43566 1.06922 0.79511 0.0
C392 C 0.4064 1.01246 0.80164 0.0
C393 C 0.39612 0.97053 0.7836 0.0
C394 C 0.41874 0.98629 0.75956 0.0
C395 C 0.44197 1.04152 0.7525 0.0
C396 C 0.4632 1.05028 0.7261 0.0
C397 C 0.45198 0.9917 0.71915 0.0
C398 C 0.42772 0.95501 0.73922 0.0
C399 C 0.52701 1.09391 0.72765 0.0
C400 C 0.42761 1.06786 0.70925 0.0
H401 H 0.47572 0.80849 0.69283 0.0
H402 H 0.44357 0.78764 0.78459 0.0
H403 H 0.33109 0.79189 0.75713 0.0
H404 H 0.33302 0.85511 0.76507 0.0
H405 H 0.3513 0.81936 0.78893 0.0
H406 H 0.50331 0.90856 0.77912 0.0
H407 H 0.44929 0.86956 0.80109 0.0
H408 H 0.46241 0.93583 0.79011 0.0
H409 H 0.55481 0.96021 0.6299 0.0
H410 H 0.55267 0.11604 0.63656 0.0
H411 H 0.5002 1.08403 0.67452 0.0
H412 H 0.58846 0.95055 0.67777 0.0
H413 H 0.54975 0.87701 0.67094 0.0
H414 H 0.55238 0.90502 0.70224 0.0
H415 H 0.42194 0.87801 0.64779 0.0
H416 H 0.42667 0.82736 0.66656 0.0
H417 H 0.47397 0.85884 0.6411 0.0
H418 H 0.51552 0.76319 0.71781 0.0
C419 C 0.46841 0.8052 0.71266 0.0
C420 C 0.7219 0.40914 0.1186 0.0
C421 C 0.77436 0.42785 0.1078 0.0
C422 C 0.77544 0.4087 0.08312 0.0
C423 C 0.67655 0.37578 0.07735 0.0
C424 C 0.67298 0.3829 0.10287 0.0
C425 C 0.61443 0.36881 0.10942 0.0
H426 H 0.40562 0.41107 0.08065 0.0
C427 C 0.62604 0.37014 0.06424 0.0
C428 C 0.58746 0.36211 0.08284 0.0
H429 H 0.42053 0.32242 0.14518 0.0
H430 H 0.49016 0.30879 0.12328 0.0
H431 H 0.52351 0.48646 0.07301 0.0
H432 H 0.41929 0.32467 0.03691 0.0
H433 H 0.46054 0.37188 0.01373 0.0
H434 H 0.41251 0.3853 0.03082 0.0
H435 H 0.48 0.47787 0.04543 0.0
H436 H 0.55109 0.49146 0.04321 0.0
C437 C 0.61714 0.41849 0.12461 0.0
C438 C 0.58736 0.31347 0.1243 0.0
C439 C 0.66209 0.47024 0.98077 0.0
C440 C 0.63796 0.49915 0.96873 0.0
C441 C 0.58692 0.49206 0.97759 0.0
C442 C 0.5618 0.45849 -0.00156 0.0
C443 C 0.58881 0.43322 0.01123 0.0
C444 C 0.63819 0.43946 0.00236 0.0
C445 C 0.66383 0.4138 0.01934 0.0
C446 C 0.62148 0.39126 0.04025 0.0
C447 C 0.57739 0.40226 0.03507 0.0
C448 C 0.72361 0.46086 0.02871 0.0
C449 C 0.66418 0.36547 0.00445 0.0
C450 C 0.42304 0.38796 0.0901 0.0
C451 C 0.40882 0.36918 0.11493 0.0
C452 C 0.43229 0.33891 0.12643 0.0
C453 C 0.4733 0.33231 0.11429 0.0
C454 C 0.4923 0.35829 0.09118 0.0
C455 C 0.4647 0.38174 0.07855 0.0
C456 C 0.48904 0.40361 0.05327 0.0
C457 C 0.53588 0.38934 0.05314 0.0
C458 C 0.53895 0.36539 0.07603 0.0
C459 C 0.51186 0.46802 0.05347 0.0
C460 C 0.44308 0.37008 0.03244 0.0
H461 H 0.72831 0.3696 0.04886 0.0
H462 H 0.71996 0.4205 0.138 0.0
H463 H 0.61887 0.30185 0.13112 0.0
H464 H 0.55525 0.27754 0.11241 0.0
H465 H 0.56745 0.3172 0.14157 0.0
H466 H 0.63952 0.45812 0.11403 0.0
H467 H 0.63935 0.42452 0.14328 0.0
H468 H 0.5749 0.41143 0.12854 0.0
H469 H 0.7001 0.47276 0.97411 0.0
H470 H 0.56703 0.51368 0.96896 0.0
H471 H 0.52342 0.45535 0.0044 0.0
H472 H 0.74014 0.49941 0.01736 0.0
H473 H 0.75535 0.44744 0.02726 0.0
H474 H 0.72381 0.47484 0.04847 0.0
H475 H 0.62339 0.33936 -0.00618 0.0
H476 H 0.66986 0.33655 0.01703 0.0
H477 H 0.6981 0.38231 0.99062 0.0
H478 H 0.81487 0.42023 0.07451 0.0
C479 C 0.72601 0.38152 0.06793 0.0
C480 C 0.38024 0.44774 0.16522 0.0
C481 C 0.33703 0.45381 0.15342 0.0
H482 H 0.43627 0.41545 0.16231 0.0
C483 C 0.31112 0.42332 0.13077 0.0
H484 H 0.40164 0.47094 0.1825 0.0
C485 C 0.33148 0.39175 0.11903 0.0
C486 C 0.37766 0.38955 0.12988 0.0
H487 H 0.27678 0.42593 0.1215 0.0
H488 H 0.31295 0.37136 0.10087 0.0
C489 C 0.40017 0.41577 0.15362 0.0
C490 C 0.97096 0.44942 0.46369 0.0
C491 C 0.95694 0.44393 0.48924 0.0
H492 H 0.98665 0.49686 0.43026 0.0
C493 C 0.94701 0.48465 0.50044 0.0
H494 H 0.97774 0.41858 0.45406 0.0
C495 C 0.94936 0.52852 0.48624 0.0
C496 C 0.96278 0.53344 0.4606 0.0
H497 H 0.93676 0.48243 0.52014 0.0
H498 H 0.93989 0.55803 0.49534 0.0
C499 C 0.97449 0.49379 0.44971 0.0
C500 C 0.61306 0.76411 0.77377 0.0
C501 C 0.63975 0.80888 0.79163 0.0
H502 H 0.54182 0.71628 0.74844 0.0
C503 C 0.61133 0.83633 0.79947 0.0
H504 H 0.63318 0.74071 0.76807 0.0
C505 C 0.55892 0.82181 0.78858 0.0
C506 C 0.53342 0.77937 0.76951 0.0
H507 H 0.63062 0.87072 0.81326 0.0
H508 H 0.54044 0.84682 0.79405 0.0
C509 C 0.56039 0.74947 0.76282 0.0
C510 C 0.92703 0.53757 0.1194 0.0
C511 C 0.92231 0.58475 0.12595 0.0
H512 H 0.88375 0.44966 0.10958 0.0
C513 C 0.86907 0.57705 0.13081 0.0
H514 H 0.96776 0.54186 0.11632 0.0
C515 C 0.82117 0.52426 0.12723 0.0
C516 C 0.82541 0.47791 0.11869 0.0
H517 H 0.86394 0.61243 0.13587 0.0
H518 H 0.78053 0.52098 0.12923 0.0
C519 C 0.87905 0.48465 0.11583 0.0
C520 C 0.30712 1.00567 0.49743 0.0
C521 C 0.34763 1.04705 0.48238 0.0
H522 H 0.22015 0.95157 0.50283 0.0
C523 C 0.33204 1.07879 0.46692 0.0
H524 H 0.31846 0.98185 0.51017 0.0
C525 C 0.2752 1.06242 0.46313 0.0
C526 C 0.23355 1.01319 0.47417 0.0
H527 H 0.36264 0.11183 0.45549 0.0
H528 H 0.26374 1.08379 0.44904 0.0
C529 C 0.25045 0.98881 0.49338 0.0
C530 C 0.54672 0.17682 0.839 0.0
C531 C 0.53057 0.21784 0.83939 0.0
H532 H 0.52699 1.09545 0.82494 0.0
C533 C 0.47701 0.20435 0.82944 0.0
H534 H 0.58786 0.18642 0.84643 0.0
C535 C 0.44278 0.15293 0.81685 0.0
C536 C 0.46113 0.11396 0.81466 0.0
H537 H 0.46391 0.23558 0.82916 0.0
H538 H 0.40413 0.14536 0.8072 0.0
C539 C 0.51192 0.12493 0.82684 0.0
C540 C 0.67193 0.91793 0.49463 0.0
C541 C 0.72133 0.97134 0.49636 0.0
H542 H 0.63392 0.82832 0.49951 0.0
C543 C 0.77227 0.9721 0.5022 0.0
H544 H 0.63169 0.91484 0.49026 0.0
C545 C 0.77343 0.92215 0.50727 0.0
C546 C 0.72393 0.86905 0.50635 0.0
H547 H 0.8114 1.01173 0.50385 0.0
H548 H 0.81309 0.92535 0.51317 0.0
C549 C 0.67321 0.86783 0.49959 0.0
C550 C 0.95283 0.67901 0.84723 0.0
C551 C 0.90655 0.63414 0.83402 0.0
H552 H 1.03854 0.71527 0.86138 0.0
C553 C 0.91566 0.59229 0.82312 0.0
H554 H 0.9484 0.71226 0.85595 0.0
C555 C 0.9685 0.59471 0.82585 0.0
C556 C 1.01398 0.63866 0.83988 0.0
H557 H 0.88162 0.55703 0.8127 0.0
H558 H 0.97299 0.56084 0.81788 0.0
C559 C 1.00506 0.68092 0.85028 0.0
C560 C 0.40472 0.93094 0.15415 0.0
C561 C 0.39489 0.8807 0.16586 0.0
H562 H 0.46199 1.01965 0.1489 0.0
C563 C 0.4402 0.88336 0.18039 0.0
H564 H 0.37147 0.93127 0.1427 0.0
C565 C 0.49202 0.93387 0.18379 0.0
C566 C 0.50157 0.98467 0.1729 0.0
H567 H 0.43555 0.84628 0.18961 0.0
H568 H 0.52479 0.93319 0.19547 0.0
C569 C 0.4571 0.98192 0.15754 0.0
C570 C 0.68069 0.29823 0.47982 0.0
C571 C 0.71411 0.2837 0.49547 0.0
H572 H 0.65362 0.35849 0.47158 0.0
C573 C 0.74817 0.32316 0.51461 0.0
H574 H 0.65381 0.2695 0.46479 0.0
C575 C 0.74833 0.37404 0.51836 0.0
C576 C 0.71414 0.38833 0.50328 0.0
H577 H 0.7743 0.31435 0.5273 0.0
H578 H 0.77513 0.40221 0.53357 0.0
C579 C 0.68091 0.34976 0.48358 0.0
C580 C 0.54071 0.58376 0.84305 0.0
C581 C 0.58926 0.63155 0.83462 0.0
H582 H 0.45671 0.54858 0.85641 0.0
C583 C 0.58532 0.68048 0.83104 0.0
H584 H 0.54122 0.54513 0.84629 0.0
C585 C 0.53582 0.68214 0.83653 0.0
C586 C 0.48813 0.63475 0.84578 0.0
H587 H 0.62141 0.71831 0.8249 0.0
H588 H 0.53599 0.72149 0.83478 0.0
C589 C 0.49155 0.58548 0.84865 0.0
C590 C 1.0289 0.56396 0.17103 0.0
C591 C 1.08065 0.56574 0.16755 0.0
H592 H 0.94137 0.51443 0.18 0.0
C593 C 1.07967 0.51384 0.1683 0.0
H594 H 1.0271 0.60244 0.17065 0.0
C595 C 1.02995 0.46304 0.17348 0.0
C596 C 0.97873 0.46157 0.17772 0.0
H597 H 1.11804 0.51264 0.16588 0.0
H598 H 1.03225 0.425 0.17538 0.0
C599 C 0.97911 0.51303 0.1761 0.0
C600 C 0.27363 0.65487 0.07817 0.0
C601 C 0.25461 0.69069 0.087 0.0
H602 H 0.28739 0.61659 0.04545 0.0
C603 C 0.24139 0.72066 0.06929 0.0
H604 H 0.28455 0.63156 0.09141 0.0
C605 C 0.24402 0.71303 0.04346 0.0
C606 C 0.25905 0.67444 0.03434 0.0
H607 H 0.22798 0.7497 0.07538 0.0
H608 H 0.23229 0.73616 0.03047 0.0
C609 C 0.27558 0.64656 0.05193 0.0
C610 C 0.76064 0.11743 0.40022 0.0
C611 C 0.77108 0.16089 0.41745 0.0
H612 H 0.75318 1.09125 0.36152 0.0
C613 C 0.78872 0.21492 0.40821 0.0
H614 H 0.74761 1.07554 0.40679 0.0
C615 C 0.79099 0.22384 0.38196 0.0
C616 C 0.77605 0.17893 0.36468 0.0
H617 H 0.79679 0.24916 0.42109 0.0
H618 H 0.80071 0.26475 0.3752 0.0
C619 C 0.76364 0.12645 0.37425 0.0
C620 C 0.75001 0.59707 0.73801 0.0
C621 C 0.73603 0.63263 0.75101 0.0
H622 H 0.7607 0.56767 0.70253 0.0
C623 C 0.72054 0.66653 0.73713 0.0
H624 H 0.76295 0.57117 0.74833 0.0
C625 C 0.71665 0.66279 0.71053 0.0
C626 C 0.7296 0.6261 0.69733 0.0
H627 H 0.70945 0.69424 0.74684 0.0
H628 H 0.70202 0.68754 0.70046 0.0
C629 C 0.74792 0.59463 0.71162 0.0
C630 C 0.66579 1.07055 0.58042 0.0
C631 C 0.64872 1.09547 0.56164 0.0
H632 H 0.65044 1.03357 0.61702 0.0
C633 C 0.60336 0.10409 0.56609 0.0
H634 H 0.70048 1.06325 0.57749 0.0
C635 C 0.57486 1.08718 0.58853 0.0
C636 C 0.5908 1.06095 0.60707 0.0
H637 H 0.58916 0.12331 0.55204 0.0
H638 H 0.53931 1.09332 0.59106 0.0
C639 C 0.63685 1.05316 0.6029 0.0
C640 C 0.75262 0.59563 0.92516 0.0
C641 C 0.72106 0.60038 0.90507 0.0
H642 H 0.75173 0.563 0.9617 0.0
C643 C 0.66263 0.57576 0.90664 0.0
H644 H 0.79774 0.61399 0.9241 0.0
C645 C 0.63559 0.54391 0.9275 0.0
C646 C 0.66672 0.53706 0.94744 0.0
H647 H 0.63747 0.57803 0.89097 0.0
H648 H 0.59014 0.52257 0.92732 0.0
C649 C 0.72588 0.56532 0.9464 0.0
C650 C 0.20308 0.81299 0.23742 0.0
C651 C 0.21368 0.76818 0.23486 0.0
H652 H 0.17175 0.85457 0.26031 0.0
C653 C 0.20315 0.73201 0.25519 0.0
H654 H 0.21024 0.84155 0.22206 0.0
C655 C 0.18156 0.7401 0.27743 0.0
C656 C 0.16966 0.78419 0.2797 0.0
H657 H 0.21081 0.69714 0.2538 0.0
H658 H 0.17432 0.71182 0.29286 0.0
C659 C 0.18106 0.82068 0.25944 0.0
loop_
_geom_bond_atom_site_label_1
_geom_bond_atom_site_label_2
_geom_bond_distance
_geom_bond_site_symmetry_2
_ccdc_geom_bond_type
Tb0 C10 2.825 . S
Tb0 O11 2.347 . S
Tb0 O14 2.366 . S
Tb0 O19 2.418 . S
Tb0 O20 2.384 1_455 S
Tb0 O23 2.479 . S
Tb0 O24 2.471 . S
Eu1 O12 2.418 . S
Eu1 O13 2.384 1_655 S
Eu1 O16 2.479 . S
Eu1 O17 2.471 . S
Eu1 O18 2.347 1_655 S
Eu1 O21 2.366 . S
Eu1 C31 2.825 . S
C2 O18 1.259 . S
C2 O19 1.265 . S
C3 O20 1.255 . S
C3 O21 1.265 . S
C4 C6 1.380 . S
C4 C7 1.374 . S
C4 C10 1.507 . S
C5 C6 1.384 . S
C5 C9 1.387 . S
C5 H32 0.930 . S
C6 C4 1.380 . S
C6 C5 1.384 . S
C6 H33 0.931 . S
C7 C4 1.374 . S
C7 C8 1.390 . S
C7 H34 0.930 . S
C8 C7 1.390 . S
C8 C9 1.391 . S
C8 H35 0.930 . S
C9 C5 1.387 . S
C9 C8 1.391 . S
C10 Tb0 2.825 . S
C10 C4 1.507 . S
C10 O23 1.238 . S
C10 O24 1.247 . S
O11 Tb0 2.347 . S
O11 C15 1.259 . S
O12 Eu1 2.418 . S
O12 C15 1.265 1_655 S
O13 Eu1 2.384 1_455 S
O13 C22 1.255 . S
O14 Tb0 2.366 . S
O14 C22 1.265 . S
C15 O11 1.259 . S
C15 O12 1.265 1_455 S
O16 Eu1 2.479 . S
O16 C31 1.238 . S
O17 Eu1 2.471 . S
O17 C31 1.247 . S
O18 Eu1 2.347 1_455 S
O18 C2 1.259 . S
O19 Tb0 2.418 . S
O19 C2 1.265 . S
O20 Tb0 2.384 1_655 S
O20 C3 1.255 . S
O21 Eu1 2.366 . S
O21 C3 1.265 . S
C22 O13 1.255 . S
C22 O14 1.265 . S
O23 Tb0 2.479 . S
O23 C10 1.238 . S
O24 Tb0 2.471 . S
O24 C10 1.247 . S
C25 C28 1.380 . S
C25 C29 1.374 . S
C25 C31 1.507 . S
C26 C27 1.387 . S
C26 C30 1.391 . S
C27 C26 1.387 . S
C27 C28 1.384 . S
C27 H36 0.930 . S
C28 C25 1.380 . S
C28 C27 1.384 . S
C28 H37 0.931 . S
C29 C25 1.374 . S
C29 C30 1.390 . S
C29 H38 0.930 . S
C30 C26 1.391 . S
C30 C29 1.390 . S
C30 H39 0.930 . S
C31 Eu1 2.825 . S
C31 O16 1.238 . S
C31 O17 1.247 . S
C31 C25 1.507 . S
H32 C5 0.930 . S
H33 C6 0.931 . S
H34 C7 0.930 . S
H35 C8 0.930 . S
H36 C27 0.930 . S
H37 C28 0.931 . S
H38 C29 0.930 . S
H39 C30 0.930 . S
Tb40 C50 2.825 . S
Tb40 O51 2.347 . S
Tb40 O54 2.366 . S
Tb40 O59 2.418 . S
Tb40 O60 2.384 1_545 S
Tb40 O63 2.479 . S
Tb40 O64 2.471 . S
Eu41 O52 2.418 . S
Eu41 O53 2.384 . S
Eu41 O56 2.479 1_545 S
Eu41 O57 2.471 1_545 S
Eu41 O58 2.347 . S
Eu41 O61 2.366 1_545 S
Eu41 C71 2.825 1_545 S
C42 O58 1.259 . S
C42 O59 1.265 . S
C43 O60 1.255 . S
C43 O61 1.265 . S
C44 C46 1.380 . S
C44 C47 1.374 . S
C44 C50 1.507 . S
C45 C46 1.384 . S
C45 C49 1.387 . S
C45 H72 0.930 . S
C46 C44 1.380 . S
C46 C45 1.384 . S
C46 H73 0.931 . S
C47 C44 1.374 . S
C47 C48 1.390 . S
C47 H74 0.930 . S
C48 C47 1.390 . S
C48 C49 1.391 . S
C48 H75 0.930 . S
C49 C45 1.387 . S
C49 C48 1.391 . S
C50 Tb40 2.825 . S
C50 C44 1.507 . S
C50 O63 1.238 . S
C50 O64 1.247 . S
O51 Tb40 2.347 . S
O51 C55 1.259 . S
O52 Eu41 2.418 . S
O52 C55 1.265 . S
O53 Eu41 2.384 . S
O53 C62 1.255 . S
O54 Tb40 2.366 . S
O54 C62 1.265 . S
C55 O51 1.259 . S
C55 O52 1.265 . S
O56 Eu41 2.479 1_565 S
O56 C71 1.238 . S
O57 Eu41 2.471 1_565 S
O57 C71 1.247 . S
O58 Eu41 2.347 . S
O58 C42 1.259 . S
O59 Tb40 2.418 . S
O59 C42 1.265 . S
O60 Tb40 2.384 1_565 S
O60 C43 1.255 . S
O61 Eu41 2.366 1_565 S
O61 C43 1.265 . S
C62 O53 1.255 . S
C62 O54 1.265 . S
O63 Tb40 2.479 . S
O63 C50 1.238 . S
O64 Tb40 2.471 . S
O64 C50 1.247 . S
C65 C68 1.380 . S
C65 C69 1.374 . S
C65 C71 1.507 . S
C66 C67 1.387 . S
C66 C70 1.391 . S
C67 C66 1.387 . S
C67 C68 1.384 . S
C67 H76 0.930 . S
C68 C65 1.380 . S
C68 C67 1.384 . S
C68 H77 0.931 . S
C69 C65 1.374 . S
C69 C70 1.390 . S
C69 H78 0.930 . S
C70 C66 1.391 . S
C70 C69 1.390 . S
C70 H79 0.930 . S
C71 Eu41 2.825 1_565 S
C71 O56 1.238 . S
C71 O57 1.247 . S
C71 C65 1.507 . S
H72 C45 0.930 . S
H73 C46 0.931 . S
H74 C47 0.930 . S
H75 C48 0.930 . S
H76 C67 0.930 . S
H77 C68 0.931 . S
H78 C69 0.930 . S
H79 C70 0.930 . S
Tb80 C90 2.825 . S
Tb80 O91 2.347 . S
Tb80 O94 2.366 . S
Tb80 O99 2.418 . S
Tb80 O100 2.384 . S
Tb80 O103 2.479 . S
Tb80 O104 2.471 . S
Eu81 O92 2.418 . S
Eu81 O93 2.384 . S
Eu81 O96 2.479 . S
Eu81 O97 2.471 . S
Eu81 O98 2.347 . S
Eu81 O101 2.366 . S
Eu81 C111 2.825 . S
C82 O98 1.259 . S
C82 O99 1.265 . S
C83 O100 1.255 . S
C83 O101 1.265 . S
C84 C86 1.380 . S
C84 C87 1.374 . S
C84 C90 1.507 . S
C85 C86 1.384 . S
C85 C89 1.387 . S
C85 H112 0.930 . S
C86 C84 1.380 . S
C86 C85 1.384 . S
C86 H113 0.931 . S
C87 C84 1.374 . S
C87 C88 1.390 . S
C87 H114 0.930 . S
C88 C87 1.390 . S
C88 C89 1.391 . S
C88 H115 0.930 . S
C89 C85 1.387 . S
C89 C88 1.391 . S
C90 Tb80 2.825 . S
C90 C84 1.507 . S
C90 O103 1.238 . S
C90 O104 1.247 . S
O91 Tb80 2.347 . S
O91 C95 1.259 . S
O92 Eu81 2.418 . S
O92 C95 1.265 . S
O93 Eu81 2.384 . S
O93 C102 1.255 . S
O94 Tb80 2.366 . S
O94 C102 1.265 . S
C95 O91 1.259 . S
C95 O92 1.265 . S
O96 Eu81 2.479 . S
O96 C111 1.238 . S
O97 Eu81 2.471 . S
O97 C111 1.247 . S
O98 Eu81 2.347 . S
O98 C82 1.259 . S
O99 Tb80 2.418 . S
O99 C82 1.265 . S
O100 Tb80 2.384 . S
O100 C83 1.255 . S
O101 Eu81 2.366 . S
O101 C83 1.265 . S
C102 O93 1.255 . S
C102 O94 1.265 . S
O103 Tb80 2.479 . S
O103 C90 1.238 . S
O104 Tb80 2.471 . S
O104 C90 1.247 . S
C105 C108 1.380 . S
C105 C109 1.374 . S
C105 C111 1.507 . S
C106 C107 1.387 . S
C106 C110 1.391 . S
C107 C106 1.387 . S
C107 C108 1.384 . S
C107 H116 0.930 . S
C108 C105 1.380 . S
C108 C107 1.384 . S
C108 H117 0.931 . S
C109 C105 1.374 . S
C109 C110 1.390 . S
C109 H118 0.930 . S
C110 C106 1.391 . S
C110 C109 1.390 . S
C110 H119 0.930 . S
C111 Eu81 2.825 . S
C111 O96 1.238 . S
C111 O97 1.247 . S
C111 C105 1.507 . S
H112 C85 0.930 . S
H113 C86 0.931 . S
H114 C87 0.930 . S
H115 C88 0.930 . S
H116 C107 0.930 . S
H117 C108 0.931 . S
H118 C109 0.930 . S
H119 C110 0.930 . S
C120 C121 1.391 . S
C120 C124 1.391 . S
C120 H162 0.948 . S
C121 C120 1.391 . S
C121 C122 1.391 . S
C122 C121 1.391 . S
C122 H178 0.947 . S
C122 C179 1.392 . S
C123 C124 1.391 . S
C123 C127 1.397 . S
C123 C179 1.419 . S
C124 C120 1.391 . S
C124 C123 1.391 . S
C124 C125 1.399 . S
C125 C124 1.399 . S
C125 C128 1.396 . S
C125 C137 1.453 . S
C125 C138 1.684 . S
H126 C150 0.948 . S
C127 C123 1.397 . S
C127 C128 1.394 . S
C127 C146 1.723 . S
C128 C125 1.396 . S
C128 C127 1.394 . S
C128 C158 1.723 1_545 S
H129 C152 0.947 . S
H130 C153 0.948 . S
H131 C159 0.982 . S
H132 C160 0.979 . S
H133 C160 0.980 . S
H134 C160 0.983 . S
H135 C159 0.979 . S
H136 C159 0.977 . S
C137 C125 1.453 . S
C137 H166 0.982 . S
C137 H167 0.979 . S
C137 H168 0.977 1_545 S
C138 C125 1.684 . S
C138 H163 0.979 . S
C138 H164 0.980 . S
C138 H165 0.983 . S
C139 C140 1.391 . S
C139 C144 1.391 . S
C139 H169 0.948 . S
C140 C139 1.391 . S
C140 C141 1.391 1_545 S
C141 C140 1.391 1_565 S
C141 C142 1.392 . S
C141 H170 0.947 . S
C142 C141 1.392 . S
C142 C143 1.419 1_565 S
C142 H171 0.948 . S
C143 C142 1.419 1_545 S
C143 C144 1.391 . S
C143 C147 1.397 . S
C144 C139 1.391 . S
C144 C143 1.391 . S
C144 C145 1.399 . S
C145 C144 1.399 . S
C145 C146 1.396 . S
C145 C148 1.453 . S
C145 C149 1.684 . S
C146 C127 1.723 . S
C146 C145 1.396 . S
C146 C147 1.394 . S
C147 C143 1.397 . S
C147 C146 1.394 . S
C147 C157 1.723 1_545 S
C148 C145 1.453 . S
C148 H172 0.982 . S
C148 H173 0.979 . S
C148 H174 0.977 . S
C149 C145 1.684 . S
C149 H175 0.979 . S
C149 H176 0.980 . S
C149 H177 0.983 . S
C150 H126 0.948 . S
C150 C151 1.391 . S
C150 C155 1.391 . S
C151 C150 1.391 . S
C151 C152 1.391 . S
C152 H129 0.947 . S
C152 C151 1.391 . S
C152 C153 1.392 . S
C153 H130 0.948 . S
C153 C152 1.392 . S
C153 C154 1.419 . S
C154 C153 1.419 . S
C154 C155 1.391 . S
C154 C158 1.397 . S
C155 C150 1.391 . S
C155 C154 1.391 . S
C155 C156 1.399 . S
C156 C155 1.399 . S
C156 C157 1.396 . S
C156 C159 1.453 . S
C156 C160 1.684 . S
C157 C147 1.723 1_565 S
C157 C156 1.396 . S
C157 C158 1.394 . S
C158 C128 1.723 1_565 S
C158 C154 1.397 . S
C158 C157 1.394 . S
C159 H131 0.982 . S
C159 H135 0.979 . S
C159 H136 0.977 . S
C159 C156 1.453 . S
C160 H132 0.979 . S
C160 H133 0.980 . S
C160 H134 0.983 . S
C160 C156 1.684 . S
H161 C179 0.948 . S
H162 C120 0.948 . S
H163 C138 0.979 . S
H164 C138 0.980 . S
H165 C138 0.983 . S
H166 C137 0.982 . S
H167 C137 0.979 . S
H168 C137 0.977 1_565 S
H169 C139 0.948 . S
H170 C141 0.947 . S
H171 C142 0.948 . S
H172 C148 0.982 . S
H173 C148 0.979 . S
H174 C148 0.977 . S
H175 C149 0.979 . S
H176 C149 0.980 . S
H177 C149 0.983 . S
H178 C122 0.947 . S
C179 C122 1.392 . S
C179 C123 1.419 . S
C179 H161 0.948 . S
C180 C181 1.391 . S
C180 C184 1.391 . S
C180 H222 0.948 . S
C181 C180 1.391 . S
C181 C182 1.391 . S
C182 C181 1.391 . S
C182 H238 0.947 . S
C182 C239 1.392 . S
C183 C184 1.391 . S
C183 C187 1.397 . S
C183 C239 1.419 . S
C184 C180 1.391 . S
C184 C183 1.391 . S
C184 C185 1.399 . S
C185 C184 1.399 . S
C185 C188 1.396 . S
C185 C197 1.453 . S
C185 C198 1.684 . S
H186 C210 0.948 . S
C187 C183 1.397 . S
C187 C188 1.394 . S
C187 C206 1.723 . S
C188 C185 1.396 . S
C188 C187 1.394 . S
C188 C218 1.723 . S
H189 C212 0.947 . S
H190 C213 0.948 . S
H191 C219 0.982 . S
H192 C220 0.979 . S
H193 C220 0.980 . S
H194 C220 0.983 . S
H195 C219 0.979 . S
H196 C219 0.977 . S
C197 C185 1.453 . S
C197 H226 0.982 . S
C197 H227 0.979 . S
C197 H228 0.977 . S
C198 C185 1.684 . S
C198 H223 0.979 . S
C198 H224 0.980 . S
C198 H225 0.983 . S
C199 C200 1.391 . S
C199 C204 1.391 . S
C199 H229 0.948 . S
C200 C199 1.391 . S
C200 C201 1.391 . S
C201 C200 1.391 . S
C201 C202 1.392 . S
C201 H230 0.947 . S
C202 C201 1.392 . S
C202 C203 1.419 . S
C202 H231 0.948 . S
C203 C202 1.419 . S
C203 C204 1.391 . S
C203 C207 1.397 . S
C204 C199 1.391 . S
C204 C203 1.391 . S
C204 C205 1.399 . S
C205 C204 1.399 . S
C205 C206 1.396 . S
C205 C208 1.453 . S
C205 C209 1.684 . S
C206 C187 1.723 . S
C206 C205 1.396 . S
C206 C207 1.394 . S
C207 C203 1.397 . S
C207 C206 1.394 . S
C207 C217 1.723 . S
C208 C205 1.453 . S
C208 H232 0.982 . S
C208 H233 0.979 . S
C208 H234 0.977 . S
C209 C205 1.684 . S
C209 H235 0.979 . S
C209 H236 0.980 . S
C209 H237 0.983 . S
C210 H186 0.948 . S
C210 C211 1.391 . S
C210 C215 1.391 . S
C211 C210 1.391 . S
C211 C212 1.391 . S
C212 H189 0.947 . S
C212 C211 1.391 . S
C212 C213 1.392 . S
C213 H190 0.948 . S
C213 C212 1.392 . S
C213 C214 1.419 . S
C214 C213 1.419 . S
C214 C215 1.391 . S
C214 C218 1.397 . S
C215 C210 1.391 . S
C215 C214 1.391 . S
C215 C216 1.399 . S
C216 C215 1.399 . S
C216 C217 1.396 . S
C216 C219 1.453 . S
C216 C220 1.684 . S
C217 C207 1.723 . S
C217 C216 1.396 . S
C217 C218 1.394 . S
C218 C188 1.723 . S
C218 C214 1.397 . S
C218 C217 1.394 . S
C219 H191 0.982 . S
C219 H195 0.979 . S
C219 H196 0.977 . S
C219 C216 1.453 . S
C220 H192 0.979 . S
C220 H193 0.980 . S
C220 H194 0.983 . S
C220 C216 1.684 . S
H221 C239 0.948 . S
H222 C180 0.948 . S
H223 C198 0.979 . S
H224 C198 0.980 . S
H225 C198 0.983 . S
H226 C197 0.982 . S
H227 C197 0.979 . S
H228 C197 0.977 . S
H229 C199 0.948 . S
H230 C201 0.947 . S
H231 C202 0.948 . S
H232 C208 0.982 . S
H233 C208 0.979 . S
H234 C208 0.977 . S
H235 C209 0.979 . S
H236 C209 0.980 . S
H237 C209 0.983 . S
H238 C182 0.947 . S
C239 C182 1.392 . S
C239 C183 1.419 . S
C239 H221 0.948 . S
C240 C241 1.391 . S
C240 C244 1.391 . S
C240 H282 0.948 . S
C241 C240 1.391 . S
C241 C242 1.391 . S
C242 C241 1.391 . S
C242 H298 0.947 . S
C242 C299 1.392 . S
C243 C244 1.391 . S
C243 C247 1.397 . S
C243 C299 1.419 . S
C244 C240 1.391 . S
C244 C243 1.391 . S
C244 C245 1.399 . S
C245 C244 1.399 . S
C245 C248 1.396 . S
C245 C257 1.453 . S
C245 C258 1.684 . S
H246 C270 0.948 . S
C247 C243 1.397 . S
C247 C248 1.394 . S
C247 C266 1.723 . S
C248 C245 1.396 . S
C248 C247 1.394 . S
C248 C278 1.723 1_455 S
H249 C272 0.947 . S
H250 C273 0.948 . S
H251 C279 0.982 . S
H252 C280 0.979 . S
H253 C280 0.980 . S
H254 C280 0.983 . S
H255 C279 0.979 . S
H256 C279 0.977 . S
C257 C245 1.453 . S
C257 H286 0.982 . S
C257 H287 0.979 . S
C257 H288 0.977 1_455 S
C258 C245 1.684 . S
C258 H283 0.979 . S
C258 H284 0.980 . S
C258 H285 0.983 . S
C259 C260 1.379 1_556 S
C259 C264 1.391 . S
C259 H289 0.948 . S
C260 C259 1.379 1_554 S
C260 C261 1.384 1_454 S
C261 C260 1.384 1_656 S
C261 C262 1.392 . S
C261 H290 0.976 . S
C262 C261 1.392 . S
C262 C263 1.419 1_655 S
C262 H291 0.948 . S
C263 C262 1.419 1_455 S
C263 C264 1.391 . S
C263 C267 1.397 . S
C264 C259 1.391 . S
C264 C263 1.391 . S
C264 C265 1.399 . S
C265 C264 1.399 . S
C265 C266 1.396 . S
C265 C268 1.453 . S
C265 C269 1.684 . S
C266 C247 1.723 . S
C266 C265 1.396 . S
C266 C267 1.394 . S
C267 C263 1.397 . S
C267 C266 1.394 . S
C267 C277 1.723 1_455 S
C268 C265 1.453 . S
C268 H292 0.982 . S
C268 H293 0.979 . S
C268 H294 0.977 . S
C269 C265 1.684 . S
C269 H295 0.979 . S
C269 H296 0.980 . S
C269 H297 0.983 . S
C270 H246 0.948 . S
C270 C271 1.391 . S
C270 C275 1.391 . S
C271 C270 1.391 . S
C271 C272 1.391 . S
C272 H249 0.947 . S
C272 C271 1.391 . S
C272 C273 1.392 . S
C273 H250 0.948 . S
C273 C272 1.392 . S
C273 C274 1.419 . S
C274 C273 1.419 . S
C274 C275 1.391 . S
C274 C278 1.397 . S
C275 C270 1.391 . S
C275 C274 1.391 . S
C275 C276 1.399 . S
C276 C275 1.399 . S
C276 C277 1.396 . S
C276 C279 1.453 . S
C276 C280 1.684 . S
C277 C267 1.723 1_655 S
C277 C276 1.396 . S
C277 C278 1.394 . S
C278 C248 1.723 1_655 S
C278 C274 1.397 . S
C278 C277 1.394 . S
C279 H251 0.982 . S
C279 H255 0.979 . S
C279 H256 0.977 . S
C279 C276 1.453 . S
C280 H252 0.979 . S
C280 H253 0.980 . S
C280 H254 0.983 . S
C280 C276 1.684 . S
H281 C299 0.948 . S
H282 C240 0.948 . S
H283 C258 0.979 . S
H284 C258 0.980 . S
H285 C258 0.983 . S
H286 C257 0.982 . S
H287 C257 0.979 . S
H288 C257 0.977 1_655 S
H289 C259 0.948 . S
H290 C261 0.976 . S
H291 C262 0.948 . S
H292 C268 0.982 . S
H293 C268 0.979 . S
H294 C268 0.977 . S
H295 C269 0.979 . S
H296 C269 0.980 . S
H297 C269 0.983 . S
H298 C242 0.947 . S
C299 C242 1.392 . S
C299 C243 1.419 . S
C299 H281 0.948 . S
C300 C301 1.391 . S
C300 C304 1.391 . S
C300 H342 0.948 . S
C301 C300 1.391 . S
C301 C302 1.391 . S
C302 C301 1.391 . S
C302 H358 0.947 . S
C302 C359 1.392 . S
C303 C304 1.391 . S
C303 C307 1.397 . S
C303 C359 1.419 . S
C304 C300 1.391 . S
C304 C303 1.391 . S
C304 C305 1.399 . S
C305 C304 1.399 . S
C305 C308 1.396 . S
C305 C317 1.464 . S
C305 C318 1.684 . S
H306 C330 0.948 . S
C307 C303 1.397 . S
C307 C308 1.394 . S
C307 C326 1.723 . S
C308 C305 1.396 . S
C308 C307 1.394 . S
C308 C338 1.723 1_655 S
H309 C332 0.947 . S
H310 C333 0.948 . S
H311 C339 0.982 . S
H312 C340 0.979 . S
H313 C340 0.980 . S
H314 C340 0.983 . S
H315 C339 0.979 . S
H316 C339 0.977 . S
C317 C305 1.464 . S
C317 H346 0.972 1_655 S
C317 H347 0.984 . S
C317 H348 0.971 1_655 S
C318 C305 1.684 . S
C318 H343 0.979 . S
C318 H344 0.980 . S
C318 H345 0.983 . S
C319 C320 1.391 1_655 S
C319 C324 1.391 . S
C319 H349 0.948 . S
C320 C319 1.391 1_455 S
C320 C321 1.391 . S
C321 C320 1.391 . S
C321 C322 1.392 . S
C321 H350 0.947 . S
C322 C321 1.392 . S
C322 C323 1.419 . S
C322 H351 0.948 . S
C323 C322 1.419 . S
C323 C324 1.391 1_455 S
C323 C327 1.397 . S
C324 C319 1.391 . S
C324 C323 1.391 1_655 S
C324 C325 1.399 . S
C325 C324 1.399 . S
C325 C326 1.396 . S
C325 C328 1.453 . S
C325 C329 1.684 . S
C326 C307 1.723 . S
C326 C325 1.396 . S
C326 C327 1.394 1_655 S
C327 C323 1.397 . S
C327 C326 1.394 1_455 S
C327 C337 1.723 . S
C328 C325 1.453 . S
C328 H352 0.982 . S
C328 H353 0.979 . S
C328 H354 0.977 . S
C329 C325 1.684 . S
C329 H355 0.979 . S
C329 H356 0.980 . S
C329 H357 0.983 . S
C330 H306 0.948 . S
C330 C331 1.391 . S
C330 C335 1.391 . S
C331 C330 1.391 . S
C331 C332 1.391 . S
C332 H309 0.947 . S
C332 C331 1.391 . S
C332 C333 1.392 . S
C333 H310 0.948 . S
C333 C332 1.392 . S
C333 C334 1.419 . S
C334 C333 1.419 . S
C334 C335 1.391 . S
C334 C338 1.397 . S
C335 C330 1.391 . S
C335 C334 1.391 . S
C335 C336 1.399 . S
C336 C335 1.399 . S
C336 C337 1.396 . S
C336 C339 1.453 . S
C336 C340 1.684 . S
C337 C327 1.723 . S
C337 C336 1.396 . S
C337 C338 1.394 . S
C338 C308 1.723 1_455 S
C338 C334 1.397 . S
C338 C337 1.394 . S
C339 H311 0.982 . S
C339 H315 0.979 . S
C339 H316 0.977 . S
C339 C336 1.453 . S
C340 H312 0.979 . S
C340 H313 0.980 . S
C340 H314 0.983 . S
C340 C336 1.684 . S
H341 C359 0.948 . S
H342 C300 0.948 . S
H343 C318 0.979 . S
H344 C318 0.980 . S
H345 C318 0.983 . S
H346 C317 0.972 1_455 S
H347 C317 0.984 . S
H348 C317 0.971 1_455 S
H349 C319 0.948 . S
H350 C321 0.947 . S
H351 C322 0.948 . S
H352 C328 0.982 . S
H353 C328 0.979 . S
H354 C328 0.977 . S
H355 C329 0.979 . S
H356 C329 0.980 . S
H357 C329 0.983 . S
H358 C302 0.947 . S
C359 C302 1.392 . S
C359 C303 1.419 . S
C359 H341 0.948 . S
C360 C361 1.391 . S
C360 C364 1.391 . S
C360 H402 0.948 . S
C361 C360 1.391 . S
C361 C362 1.391 . S
C362 C361 1.391 . S
C362 H418 0.947 . S
C362 C419 1.392 . S
C363 C364 1.391 . S
C363 C367 1.397 . S
C363 C419 1.419 . S
C364 C360 1.391 . S
C364 C363 1.391 . S
C364 C365 1.399 . S
C365 C364 1.399 . S
C365 C368 1.396 . S
C365 C377 1.453 . S
C365 C378 1.684 . S
H366 C390 0.948 . S
C367 C363 1.397 . S
C367 C368 1.394 . S
C367 C386 1.723 . S
C368 C365 1.396 . S
C368 C367 1.394 . S
C368 C398 1.723 1_565 S
H369 C392 0.947 . S
H370 C393 0.948 . S
H371 C399 0.982 . S
H372 C400 0.979 . S
H373 C400 0.980 . S
H374 C400 0.983 . S
H375 C399 0.979 . S
H376 C399 0.977 . S
C377 C365 1.453 . S
C377 H406 0.982 1_565 S
C377 H407 0.979 . S
C377 H408 0.977 1_565 S
C378 C365 1.684 . S
C378 H403 0.979 . S
C378 H404 0.980 . S
C378 H405 0.983 . S
C379 C380 1.391 1_565 S
C379 C384 1.391 . S
C379 H409 0.948 . S
C380 C379 1.391 1_545 S
C380 C381 1.391 . S
C381 C380 1.391 . S
C381 C382 1.392 . S
C381 H410 0.947 . S
C382 C381 1.392 . S
C382 C383 1.419 . S
C382 H411 0.948 . S
C383 C382 1.419 . S
C383 C384 1.391 1_545 S
C383 C387 1.397 . S
C384 C379 1.391 . S
C384 C383 1.391 1_565 S
C384 C385 1.399 . S
C385 C384 1.399 . S
C385 C386 1.396 . S
C385 C388 1.453 . S
C385 C389 1.684 . S
C386 C367 1.723 . S
C386 C385 1.396 . S
C386 C387 1.394 1_565 S
C387 C383 1.397 . S
C387 C386 1.394 1_545 S
C387 C397 1.723 . S
C388 C385 1.453 . S
C388 H412 0.982 . S
C388 H413 0.979 . S
C388 H414 0.977 . S
C389 C385 1.684 . S
C389 H415 0.979 . S
C389 H416 0.980 . S
C389 H417 0.983 . S
C390 H366 0.948 . S
C390 C391 1.391 . S
C390 C395 1.391 . S
C391 C390 1.391 . S
C391 C392 1.391 . S
C392 H369 0.947 . S
C392 C391 1.391 . S
C392 C393 1.392 . S
C393 H370 0.948 . S
C393 C392 1.392 . S
C393 C394 1.419 . S
C394 C393 1.419 . S
C394 C395 1.391 . S
C394 C398 1.397 . S
C395 C390 1.391 . S
C395 C394 1.391 . S
C395 C396 1.399 . S
C396 C395 1.399 . S
C396 C397 1.396 . S
C396 C399 1.453 . S
C396 C400 1.684 . S
C397 C387 1.723 . S
C397 C396 1.396 . S
C397 C398 1.394 . S
C398 C368 1.723 1_545 S
C398 C394 1.397 . S
C398 C397 1.394 . S
C399 H371 0.982 . S
C399 H375 0.979 . S
C399 H376 0.977 . S
C399 C396 1.453 . S
C400 H372 0.979 . S
C400 H373 0.980 . S
C400 H374 0.983 . S
C400 C396 1.684 . S
H401 C419 0.948 . S
H402 C360 0.948 . S
H403 C378 0.979 . S
H404 C378 0.980 . S
H405 C378 0.983 . S
H406 C377 0.982 1_545 S
H407 C377 0.979 . S
H408 C377 0.977 1_545 S
H409 C379 0.948 . S
H410 C381 0.947 . S
H411 C382 0.948 . S
H412 C388 0.982 . S
H413 C388 0.979 . S
H414 C388 0.977 . S
H415 C389 0.979 . S
H416 C389 0.980 . S
H417 C389 0.983 . S
H418 C362 0.947 . S
C419 C362 1.392 . S
C419 C363 1.419 . S
C419 H401 0.948 . S
C420 C421 1.391 . S
C420 C424 1.391 . S
C420 H462 0.948 . S
C421 C420 1.391 . S
C421 C422 1.391 . S
C422 C421 1.391 . S
C422 H478 0.947 . S
C422 C479 1.392 . S
C423 C424 1.391 . S
C423 C427 1.397 . S
C423 C479 1.419 . S
C424 C420 1.391 . S
C424 C423 1.391 . S
C424 C425 1.399 . S
C425 C424 1.399 . S
C425 C428 1.396 . S
C425 C437 1.453 . S
C425 C438 1.684 . S
H426 C450 0.948 . S
C427 C423 1.397 . S
C427 C428 1.394 . S
C427 C446 1.723 . S
C428 C425 1.396 . S
C428 C427 1.394 . S
C428 C458 1.723 . S
H429 C452 0.947 . S
H430 C453 0.948 . S
H431 C459 0.982 . S
H432 C460 0.979 . S
H433 C460 0.980 . S
H434 C460 0.983 . S
H435 C459 0.979 . S
H436 C459 0.977 . S
C437 C425 1.453 . S
C437 H466 0.982 . S
C437 H467 0.979 . S
C437 H468 0.977 . S
C438 C425 1.684 . S
C438 H463 0.979 . S
C438 H464 0.980 . S
C438 H465 0.983 . S
C439 C440 1.391 . S
C439 C444 1.391 1_556 S
C439 H469 0.948 . S
C440 C439 1.391 . S
C440 C441 1.391 . S
C441 C440 1.391 . S
C441 C442 1.392 1_556 S
C441 H470 0.947 . S
C442 C441 1.392 1_554 S
C442 C443 1.419 . S
C442 H471 0.948 . S
C443 C442 1.419 . S
C443 C444 1.391 . S
C443 C447 1.397 . S
C444 C439 1.391 1_554 S
C444 C443 1.391 . S
C444 C445 1.399 . S
C445 C444 1.399 . S
C445 C446 1.396 . S
C445 C448 1.453 . S
C445 C449 1.684 . S
C446 C427 1.723 . S
C446 C445 1.396 . S
C446 C447 1.394 . S
C447 C443 1.397 . S
C447 C446 1.394 . S
C447 C457 1.723 . S
C448 C445 1.453 . S
C448 H472 0.982 . S
C448 H473 0.979 . S
C448 H474 0.977 . S
C449 C445 1.684 . S
C449 H475 0.979 . S
C449 H476 0.980 . S
C449 H477 0.983 . S
C450 H426 0.948 . S
C450 C451 1.391 . S
C450 C455 1.391 . S
C451 C450 1.391 . S
C451 C452 1.391 . S
C452 H429 0.947 . S
C452 C451 1.391 . S
C452 C453 1.392 . S
C453 H430 0.948 . S
C453 C452 1.392 . S
C453 C454 1.419 . S
C454 C453 1.419 . S
C454 C455 1.391 . S
C454 C458 1.397 . S
C455 C450 1.391 . S
C455 C454 1.391 . S
C455 C456 1.399 . S
C456 C455 1.399 . S
C456 C457 1.396 . S
C456 C459 1.453 . S
C456 C460 1.684 . S
C457 C447 1.723 . S
C457 C456 1.396 . S
C457 C458 1.394 . S
C458 C428 1.723 . S
C458 C454 1.397 . S
C458 C457 1.394 . S
C459 H431 0.982 . S
C459 H435 0.979 . S
C459 H436 0.977 . S
C459 C456 1.453 . S
C460 H432 0.979 . S
C460 H433 0.980 . S
C460 H434 0.983 . S
C460 C456 1.684 . S
H461 C479 0.948 . S
H462 C420 0.948 . S
H463 C438 0.979 . S
H464 C438 0.980 . S
H465 C438 0.983 . S
H466 C437 0.982 . S
H467 C437 0.979 . S
H468 C437 0.977 . S
H469 C439 0.948 . S
H470 C441 0.947 . S
H471 C442 0.948 . S
H472 C448 0.982 . S
H473 C448 0.979 . S
H474 C448 0.977 . S
H475 C449 0.979 . S
H476 C449 0.980 . S
H477 C449 0.983 . S
H478 C422 0.947 . S
C479 C422 1.392 . S
C479 C423 1.419 . S
C479 H461 0.948 . S
C480 C481 1.387 . S
C480 H484 0.950 . S
C480 C489 1.390 . S
C481 C480 1.387 . S
C481 C483 1.387 . S
H482 C489 0.950 . S
C483 C481 1.387 . S
C483 C485 1.390 . S
C483 H487 0.950 . S
H484 C480 0.950 . S
C485 C483 1.390 . S
C485 C486 1.387 . S
C485 H488 0.950 . S
C486 C485 1.387 . S
C486 C489 1.387 . S
H487 C483 0.950 . S
H488 C485 0.950 . S
C489 C480 1.390 . S
C489 H482 0.950 . S
C489 C486 1.387 . S
C490 C491 1.387 . S
C490 H494 0.950 . S
C490 C499 1.390 . S
C491 C490 1.387 . S
C491 C493 1.387 . S
H492 C499 0.950 . S
C493 C491 1.387 . S
C493 C495 1.390 . S
C493 H497 0.950 . S
H494 C490 0.950 . S
C495 C493 1.390 . S
C495 C496 1.387 . S
C495 H498 0.950 . S
C496 C495 1.387 . S
C496 C499 1.387 . S
H497 C493 0.950 . S
H498 C495 0.950 . S
C499 C490 1.390 . S
C499 H492 0.950 . S
C499 C496 1.387 . S
C500 C501 1.387 . S
C500 H504 0.950 . S
C500 C509 1.390 . S
C501 C500 1.387 . S
C501 C503 1.387 . S
H502 C509 0.950 . S
C503 C501 1.387 . S
C503 C505 1.390 . S
C503 H507 0.950 . S
H504 C500 0.950 . S
C505 C503 1.390 . S
C505 C506 1.387 . S
C505 H508 0.950 . S
C506 C505 1.387 . S
C506 C509 1.387 . S
H507 C503 0.950 . S
H508 C505 0.950 . S
C509 C500 1.390 . S
C509 H502 0.950 . S
C509 C506 1.387 . S
C510 C511 1.387 . S
C510 H514 0.950 . S
C510 C519 1.390 . S
C511 C510 1.387 . S
C511 C513 1.387 . S
H512 C519 0.950 . S
C513 C511 1.387 . S
C513 C515 1.390 . S
C513 H517 0.950 . S
H514 C510 0.950 . S
C515 C513 1.390 . S
C515 C516 1.387 . S
C515 H518 0.950 . S
C516 C515 1.387 . S
C516 C519 1.387 . S
H517 C513 0.950 . S
H518 C515 0.950 . S
C519 C510 1.390 . S
C519 H512 0.950 . S
C519 C516 1.387 . S
C520 C521 1.387 . S
C520 H524 0.950 . S
C520 C529 1.390 . S
C521 C520 1.387 . S
C521 C523 1.387 . S
H522 C529 0.950 . S
C523 C521 1.387 . S
C523 C525 1.390 . S
C523 H527 0.950 . S
H524 C520 0.950 . S
C525 C523 1.390 . S
C525 C526 1.387 . S
C525 H528 0.950 . S
C526 C525 1.387 . S
C526 C529 1.387 . S
H527 C523 0.950 . S
H528 C525 0.950 . S
C529 C520 1.390 . S
C529 H522 0.950 . S
C529 C526 1.387 . S
C530 C531 1.387 . S
C530 H534 0.950 . S
C530 C539 1.390 . S
C531 C530 1.387 . S
C531 C533 1.387 . S
H532 C539 0.950 . S
C533 C531 1.387 . S
C533 C535 1.390 . S
C533 H537 0.950 . S
H534 C530 0.950 . S
C535 C533 1.390 . S
C535 C536 1.387 . S
C535 H538 0.950 . S
C536 C535 1.387 . S
C536 C539 1.387 . S
H537 C533 0.950 . S
H538 C535 0.950 . S
C539 C530 1.390 . S
C539 H532 0.950 . S
C539 C536 1.387 . S
C540 C541 1.387 . S
C540 H544 0.950 . S
C540 C549 1.390 . S
C541 C540 1.387 . S
C541 C543 1.387 . S
H542 C549 0.950 . S
C543 C541 1.387 . S
C543 C545 1.390 . S
C543 H547 0.950 . S
H544 C540 0.950 . S
C545 C543 1.390 . S
C545 C546 1.387 . S
C545 H548 0.950 . S
C546 C545 1.387 . S
C546 C549 1.387 . S
H547 C543 0.950 . S
H548 C545 0.950 . S
C549 C540 1.390 . S
C549 H542 0.950 . S
C549 C546 1.387 . S
C550 C551 1.387 . S
C550 H554 0.950 . S
C550 C559 1.390 . S
C551 C550 1.387 . S
C551 C553 1.387 . S
H552 C559 0.950 . S
C553 C551 1.387 . S
C553 C555 1.390 . S
C553 H557 0.950 . S
H554 C550 0.950 . S
C555 C553 1.390 . S
C555 C556 1.387 . S
C555 H558 0.950 . S
C556 C555 1.387 . S
C556 C559 1.387 . S
H557 C553 0.950 . S
H558 C555 0.950 . S
C559 C550 1.390 . S
C559 H552 0.950 . S
C559 C556 1.387 . S
C560 C561 1.387 . S
C560 H564 0.950 . S
C560 C569 1.390 . S
C561 C560 1.387 . S
C561 C563 1.387 . S
H562 C569 0.950 . S
C563 C561 1.387 . S
C563 C565 1.390 . S
C563 H567 0.950 . S
H564 C560 0.950 . S
C565 C563 1.390 . S
C565 C566 1.387 . S
C565 H568 0.950 . S
C566 C565 1.387 . S
C566 C569 1.387 . S
H567 C563 0.950 . S
H568 C565 0.950 . S
C569 C560 1.390 . S
C569 H562 0.950 . S
C569 C566 1.387 . S
C570 C571 1.387 . S
C570 H574 0.950 . S
C570 C579 1.390 . S
C571 C570 1.387 . S
C571 C573 1.387 . S
H572 C579 0.950 . S
C573 C571 1.387 . S
C573 C575 1.390 . S
C573 H577 0.950 . S
H574 C570 0.950 . S
C575 C573 1.390 . S
C575 C576 1.387 . S
C575 H578 0.950 . S
C576 C575 1.387 . S
C576 C579 1.387 . S
H577 C573 0.950 . S
H578 C575 0.950 . S
C579 C570 1.390 . S
C579 H572 0.950 . S
C579 C576 1.387 . S
C580 C581 1.387 . S
C580 H584 0.950 . S
C580 C589 1.390 . S
C581 C580 1.387 . S
C581 C583 1.387 . S
H582 C589 0.950 . S
C583 C581 1.387 . S
C583 C585 1.390 . S
C583 H587 0.950 . S
H584 C580 0.950 . S
C585 C583 1.390 . S
C585 C586 1.387 . S
C585 H588 0.950 . S
C586 C585 1.387 . S
C586 C589 1.387 . S
H587 C583 0.950 . S
H588 C585 0.950 . S
C589 C580 1.390 . S
C589 H582 0.950 . S
C589 C586 1.387 . S
C590 C591 1.387 . S
C590 H594 0.950 . S
C590 C599 1.390 . S
C591 C590 1.387 . S
C591 C593 1.387 . S
H592 C599 0.950 . S
C593 C591 1.387 . S
C593 C595 1.390 . S
C593 H597 0.950 . S
H594 C590 0.950 . S
C595 C593 1.390 . S
C595 C596 1.387 . S
C595 H598 0.950 . S
C596 C595 1.387 . S
C596 C599 1.387 . S
H597 C593 0.950 . S
H598 C595 0.950 . S
C599 C590 1.390 . S
C599 H592 0.950 . S
C599 C596 1.387 . S
C600 C601 1.387 . S
C600 H604 0.950 . S
C600 C609 1.390 . S
C601 C600 1.387 . S
C601 C603 1.387 1_455 S
H602 C609 0.950 . S
C603 C601 1.387 1_655 S
C603 C605 1.390 . S
C603 H607 0.950 . S
H604 C600 0.950 . S
C605 C603 1.390 . S
C605 C606 1.387 1_655 S
C605 H608 0.950 . S
C606 C605 1.387 1_455 S
C606 C609 1.387 . S
H607 C603 0.950 . S
H608 C605 0.950 . S
C609 C600 1.390 . S
C609 H602 0.950 . S
C609 C606 1.387 . S
C610 C611 1.387 1_565 S
C610 H614 0.950 . S
C610 C619 1.390 . S
C611 C610 1.387 1_545 S
C611 C613 1.387 . S
H612 C619 0.950 . S
C613 C611 1.387 . S
C613 C615 1.390 . S
C613 H617 0.950 . S
H614 C610 0.950 . S
C615 C613 1.390 . S
C615 C616 1.387 . S
C615 H618 0.950 . S
C616 C615 1.387 . S
C616 C619 1.387 1_545 S
H617 C613 0.950 . S
H618 C615 0.950 . S
C619 C610 1.390 . S
C619 H612 0.950 . S
C619 C616 1.387 1_565 S
C620 C621 1.387 . S
C620 H624 0.950 . S
C620 C629 1.390 . S
C621 C620 1.387 . S
C621 C623 1.387 . S
H622 C629 0.950 . S
C623 C621 1.387 . S
C623 C625 1.390 . S
C623 H627 0.950 . S
H624 C620 0.950 . S
C625 C623 1.390 . S
C625 C626 1.387 . S
C625 H628 0.950 . S
C626 C625 1.387 . S
C626 C629 1.387 . S
H627 C623 0.950 . S
H628 C625 0.950 . S
C629 C620 1.390 . S
C629 H622 0.950 . S
C629 C626 1.387 . S
C630 C631 1.387 . S
C630 H634 0.950 . S
C630 C639 1.390 . S
C631 C630 1.387 . S
C631 C633 1.387 . S
H632 C639 0.950 . S
C633 C631 1.387 . S
C633 C635 1.390 1_545 S
C633 H637 0.950 1_545 S
H634 C630 0.950 . S
C635 C633 1.390 1_565 S
C635 C636 1.387 1_565 S
C635 H638 0.950 . S
C636 C635 1.387 1_545 S
C636 C639 1.387 . S
H637 C633 0.950 1_565 S
H638 C635 0.950 . S
C639 C630 1.390 . S
C639 H632 0.950 . S
C639 C636 1.387 . S
C640 C641 1.387 . S
C640 H644 0.950 . S
C640 C649 1.390 . S
C641 C640 1.387 . S
C641 C643 1.387 . S
H642 C649 0.950 . S
C643 C641 1.387 . S
C643 C645 1.390 . S
C643 H647 0.950 . S
H644 C640 0.950 . S
C645 C643 1.390 . S
C645 C646 1.387 . S
C645 H648 0.950 . S
C646 C645 1.387 . S
C646 C649 1.387 . S
H647 C643 0.950 . S
H648 C645 0.950 . S
C649 C640 1.390 . S
C649 H642 0.950 . S
C649 C646 1.387 . S
C650 C651 1.387 . S
C650 H654 0.950 . S
C650 C659 1.390 . S
C651 C650 1.387 . S
C651 C653 1.387 1_455 S
H652 C659 0.950 . S
C653 C651 1.387 1_655 S
C653 C655 1.390 . S
C653 H657 0.950 . S
H654 C650 0.950 . S
C655 C653 1.390 . S
C655 C656 1.387 1_655 S
C655 H658 0.950 . S
C656 C655 1.387 1_455 S
C656 C659 1.387 . S
H657 C653 0.950 . S
H658 C655 0.950 . S
C659 C650 1.390 . S
C659 H652 0.950 . S
C659 C656 1.387 . S
C481 C9 0.749 . S
C486 C451 0.745 . S
C491 C49 0.537 . S
C496 C301 0.457 . S
C501 C89 0.543 . S
C506 C361 0.491 . S
C511 C26 0.666 . S
C516 C421 0.605 . S
C526 C331 0.725 . S
C521 C66 0.737 . S
C536 C391 0.798 . S
C531 C106 0.775 . S
C541 C43 3.056 . S
C546 C181 2.857 . S
C551 C83 3.181 . S
C556 C271 3.156 . S
C561 C22 3.231 . S
C566 C151 3.205 . S
C576 C211 3.205 . S
C571 C62 3.231 . S
C586 C241 2.899 . S
C581 C102 3.103 . S
C591 C3 3.055 . S
C596 C121 2.866 . S
C606 C260 1.807 . S
C601 C15 1.748 . S
C611 C55 1.765 . S
C616 C140 1.778 . S
C621 C95 1.760 . S
C626 C200 1.775 . S
C636 C380 1.041 . S
C631 C42 1.059 . S
C646 C440 1.055 . S
C641 C82 1.061 . S
C651 C2 1.043 . S
C656 C320 1.029 . S
