# Generated by pormake.
# Topology anh, (6,3)-cn, num edge types: 1
# Building blocks:
#     Node 0, Type 0, BuildingBlock: VOLQOD_clean_sbu_1, # of connection points: 6
#     Node 1, Type 0, BuildingBlock: VOLQOD_clean_sbu_1, # of connection points: 6
#     Node 2, Type 0, BuildingBlock: VOLQOD_clean_sbu_1, # of connection points: 6
#     Node 3, Type 1, BuildingBlock: ESEHIV_clean_linker_0, # of connection points: 3
#     Node 4, Type 1, BuildingBlock: ESEHIV_clean_linker_0, # of connection points: 3
#     Node 5, Type 1, BuildingBlock: ESEHIV_clean_linker_0, # of connection points: 3
#     Node 6, Type 1, BuildingBlock: ESEHIV_clean_linker_0, # of connection points: 3
#     Node 7, Type 1, BuildingBlock: ESEHIV_clean_linker_0, # of connection points: 3
#     Node 8, Type 1, BuildingBlock: ESEHIV_clean_linker_0, # of connection points: 3
#     Edge 9, Type (0, 1), BuildingBlock: OJICUG_clean_linker_0, # of connection points: 2
#     Edge 10, Type (0, 1), BuildingBlock: OJICUG_clean_linker_0, # of connection points: 2
#     Edge 11, Type (0, 1), BuildingBlock: OJICUG_clean_linker_0, # of connection points: 2
#     Edge 12, Type (0, 1), BuildingBlock: OJICUG_clean_linker_0, # of connection points: 2
#     Edge 13, Type (0, 1), BuildingBlock: OJICUG_clean_linker_0, # of connection points: 2
#     Edge 14, Type (0, 1), BuildingBlock: OJICUG_clean_linker_0, # of connection points: 2
#     Edge 15, Type (0, 1), BuildingBlock: OJICUG_clean_linker_0, # of connection points: 2
#     Edge 16, Type (0, 1), BuildingBlock: OJICUG_clean_linker_0, # of connection points: 2
#     Edge 17, Type (0, 1), BuildingBlock: OJICUG_clean_linker_0, # of connection points: 2
#     Edge 18, Type (0, 1), BuildingBlock: OJICUG_clean_linker_0, # of connection points: 2
#     Edge 19, Type (0, 1), BuildingBlock: OJICUG_clean_linker_0, # of connection points: 2
#     Edge 20, Type (0, 1), BuildingBlock: OJICUG_clean_linker_0, # of connection points: 2
#     Edge 21, Type (0, 1), BuildingBlock: OJICUG_clean_linker_0, # of connection points: 2
#     Edge 22, Type (0, 1), BuildingBlock: OJICUG_clean_linker_0, # of connection points: 2
#     Edge 23, Type (0, 1), BuildingBlock: OJICUG_clean_linker_0, # of connection points: 2
#     Edge 24, Type (0, 1), BuildingBlock: OJICUG_clean_linker_0, # of connection points: 2
#     Edge 25, Type (0, 1), BuildingBlock: OJICUG_clean_linker_0, # of connection points: 2
#     Edge 26, Type (0, 1), BuildingBlock: OJICUG_clean_linker_0, # of connection points: 2
# Relax obj value: 0.166
# Max RMSD: 0.230
# Mean RMSD: 0.114
data_MOF--net-anh--node1-VOLQOD_clean_sbu_1--node2-ESEHIV_clean_linker_0--edge1-OJICUG_clean_linker_0
_symmetry_space_group_name_H-M    P1
_symmetry_Int_Tables_number       1
_symmetry_cell_setting            triclinic
loop_
_symmetry_equiv_pos_as_xyz
'x, y, z'
_cell_length_a     20.197107
_cell_length_b     19.703478
_cell_length_c     41.966859
_cell_angle_alpha  89.822213
_cell_angle_beta   89.842049
_cell_angle_gamma 120.84552
loop_
_atom_site_label
_atom_site_type_symbol
_atom_site_fract_x
_atom_site_fract_y
_atom_site_fract_z
_atom_type_partial_charge
O0 O 0.94933 0.5501 0.23316 0.0
Zn1 Zn 0.95973 0.5896 0.18822 0.0
O2 O -0.02539 0.52175 0.15893 0.0
Zn3 Zn 0.88776 0.46931 0.13074 0.0
Zn4 Zn -0.01717 0.4409 0.18276 0.0
Zn5 Zn 0.06633 0.58622 0.13312 0.0
O6 O 0.92016 0.48057 0.08501 0.0
O7 O 0.0422 0.5791 0.08593 0.0
O8 O 0.86634 0.5984 0.17654 0.0
O9 O 0.82455 0.51923 0.13434 0.0
O10 O 0.81677 0.35569 0.1434 0.0
O11 O 0.88483 0.33425 0.17908 0.0
O12 O 0.07735 0.43668 0.16919 0.0
O13 O 0.05733 0.69605 0.18971 0.0
O14 O 0.13719 0.54489 0.13881 0.0
O15 O 0.12801 0.69891 0.1485 0.0
C16 C 0.97015 0.50559 0.24623 0.0
C17 C -0.01803 0.53028 0.07059 0.0
C18 C 0.82305 0.31031 0.16323 0.0
C19 C 0.81999 0.56673 0.15332 0.0
C20 C 0.13524 0.48635 0.15262 0.0
C21 C 0.11842 0.73153 0.17279 0.0
O22 O -0.00937 0.46522 0.22968 0.0
O23 O 0.46552 0.03123 0.42939 0.0
Zn24 Zn 0.43447 0.00994 0.47578 0.0
O25 O 0.50623 0.98836 0.49836 0.0
Zn26 Zn 0.56733 0.06772 0.52904 0.0
Zn27 Zn 0.57468 0.97868 0.46856 0.0
Zn28 Zn 0.44891 0.89549 0.52371 0.0
O29 O 0.56245 0.02625 0.57359 0.0
O30 O 0.44673 0.91851 0.57025 0.0
O31 O 0.43273 0.10345 0.49593 0.0
O32 O 0.52305 0.13578 0.53273 0.0
O33 O 0.67517 0.13846 0.51365 0.0
O34 O 0.6803 0.07665 0.47048 0.0
O35 O 0.58148 0.88128 0.4788 0.0
O36 O 0.32752 0.91096 0.47516 0.0
O37 O 0.49778 0.83104 0.51931 0.0
O38 O 0.34261 0.83063 0.50747 0.0
C39 C 0.50248 0.00916 0.41168 0.0
C40 C 0.50251 0.9699 0.58685 0.0
C41 C 0.71132 0.13531 0.48938 0.0
C42 C 0.47266 0.14619 0.51927 0.0
C43 C 0.547 0.82985 0.50075 0.0
C44 C 0.30146 0.84353 0.48841 0.0
O45 O 0.54007 0.97913 0.42345 0.0
O46 O 0.40214 0.45761 0.76176 0.0
Zn47 Zn 0.3747 0.41375 0.80609 0.0
O48 O 0.45695 0.48167 0.8354 0.0
Zn49 Zn 0.42157 0.53288 0.86401 0.0
Zn50 Zn 0.54635 0.56341 0.8116 0.0
Zn51 Zn 0.48365 0.4164 0.86083 0.0
O52 O 0.4402 0.51866 0.90963 0.0
O53 O 0.466 0.42185 0.90812 0.0
O54 O 0.27155 0.40182 0.81856 0.0
O55 O 0.30865 0.48399 0.85979 0.0
O56 O 0.46652 0.6476 0.85294 0.0
O57 O 0.55835 0.67094 0.81795 0.0
O58 O 0.64429 0.56429 0.82373 0.0
O59 O 0.36849 0.30835 0.80304 0.0
O60 O 0.5957 0.45744 0.85493 0.0
O61 O 0.43276 0.3041 0.84512 0.0
C62 C 0.46618 0.50488 0.7482 0.0
C63 C 0.45291 0.46919 0.92375 0.0
C64 C 0.52051 0.69446 0.83418 0.0
C65 C 0.25666 0.43484 0.84127 0.0
C66 C 0.65223 0.51487 0.84053 0.0
C67 C 0.39295 0.27241 0.82025 0.0
O68 O 0.52799 0.54445 0.7642 0.0
H69 H 0.36499 0.95621 0.2758 0.0
H70 H 0.60875 0.10622 0.2661 0.0
H71 H 0.4705 0.00765 0.1823 0.0
C72 C 0.41504 0.98428 0.26036 0.0
C73 C 0.40706 0.97361 0.22706 0.0
C74 C 0.48766 0.02881 0.2745 0.0
C75 C 0.55313 0.06892 0.25506 0.0
C76 C 0.54697 0.06384 0.22169 0.0
C77 C 0.47404 0.01473 0.2079 0.0
H78 H 0.52691 0.62634 0.60092 0.0
H79 H 0.44301 0.37951 0.61385 0.0
H80 H 0.51352 0.48434 0.52053 0.0
C81 C 0.51359 0.56998 0.59103 0.0
C82 C 0.52233 0.56291 0.55812 0.0
C83 C 0.48451 0.50385 0.61111 0.0
C84 C 0.46491 0.43052 0.59821 0.0
C85 C 0.47666 0.42297 0.56573 0.0
C86 C 0.50399 0.48923 0.54563 0.0
H87 H 0.8952 0.55401 0.92678 0.0
H88 H 0.06471 0.48483 0.93137 0.0
H89 H 0.95695 0.47748 0.84184 0.0
C90 C 0.93034 0.53452 0.91495 0.0
C91 C 0.922 0.51955 0.88212 0.0
C92 C -0.01923 0.52082 0.93291 0.0
C93 C 0.02503 0.4944 0.91749 0.0
C94 C 0.01711 0.47853 0.88458 0.0
C95 C 0.96505 0.49106 0.86704 0.0
H96 H 0.90205 0.37541 0.38757 0.0
H97 H 0.0749 0.6218 0.38684 0.0
H98 H 0.00119 0.49412 0.47579 0.0
C99 C 0.9425 0.42819 0.40042 0.0
C100 C 0.94721 0.42577 0.43375 0.0
C101 C -0.01248 0.4989 0.38351 0.0
C102 C 0.038 0.56802 0.40014 0.0
C103 C 0.04384 0.56705 0.4335 0.0
C104 C -0.00245 0.49562 0.45009 0.0
H105 H 0.42141 0.04328 0.7199 0.0
H106 H 0.52359 0.90248 0.73362 0.0
H107 H 0.47448 0.001 0.81517 0.0
C108 C 0.44473 0.01842 0.73627 0.0
C109 C 0.44568 0.03116 0.76941 0.0
C110 C 0.47579 0.97515 0.7235 0.0
C111 C 0.50288 0.9387 0.74385 0.0
C112 C 0.49958 0.94518 0.77704 0.0
C113 C 0.47268 -0.00704 0.78965 0.0
H114 H 0.33878 0.44192 0.06747 0.0
H115 H 0.57772 0.51166 0.0631 0.0
H116 H 0.47614 0.52057 0.15235 0.0
C117 C 0.39326 0.46158 0.07934 0.0
C118 C 0.39952 0.47735 0.11209 0.0
C119 C 0.45767 0.47521 0.06146 0.0
C120 C 0.52819 0.50201 0.07692 0.0
C121 C 0.53575 0.51855 0.10978 0.0
C122 C 0.47091 0.50623 0.12722 0.0
C123 C 0.27676 0.54509 0.15158 0.0
C124 C 0.20287 0.47783 0.1488 0.0
H125 H 0.39767 0.59651 0.14289 0.0
C126 C 0.19499 0.40669 0.13815 0.0
H127 H 0.28391 0.60058 0.15976 0.0
C128 C 0.26004 0.4048 0.12789 0.0
C129 C 0.33354 0.47348 0.12902 0.0
H130 H 0.13837 0.3544 0.13561 0.0
H131 H 0.25266 0.3509 0.1177 0.0
C132 C 0.34171 0.5427 0.14211 0.0
C133 C 0.80506 0.28017 0.49398 0.0
C134 C 0.78363 0.20743 0.47955 0.0
H135 H 0.87174 0.40601 0.49041 0.0
C136 C 0.82421 0.20691 0.4524 0.0
H137 H 0.77503 0.28287 0.51492 0.0
C138 C 0.88062 0.27789 0.43853 0.0
C139 C 0.89707 0.3508 0.45134 0.0
H140 H 0.80966 0.15188 0.44088 0.0
H141 H 0.90924 0.27562 0.41704 0.0
C142 C 0.86077 0.35108 0.47991 0.0
C143 C 0.58466 0.82288 0.80409 0.0
C144 C 0.52911 0.77218 0.82645 0.0
H145 H 0.62043 0.91951 0.77155 0.0
C146 C 0.47339 0.78987 0.83698 0.0
H147 H 0.62909 0.81184 0.79578 0.0
C148 C 0.46794 0.85116 0.82279 0.0
C149 C 0.51835 0.89623 0.79795 0.0
H150 H 0.42996 0.7525 0.85434 0.0
H151 H 0.4203 0.85875 0.82948 0.0
C152 C 0.57945 0.88439 0.79006 0.0
C153 C 0.68701 0.53159 0.16666 0.0
C154 C 0.75444 0.57793 0.14879 0.0
H155 H 0.56394 0.47539 0.16805 0.0
C156 C 0.75105 0.61486 0.1208 0.0
H157 H 0.68836 0.50096 0.18792 0.0
C158 C 0.68024 0.60072 0.10945 0.0
C159 C 0.6114 0.54773 0.12552 0.0
H160 H 0.8024 0.64976 0.10643 0.0
H161 H 0.67903 0.62748 0.08704 0.0
C162 C 0.61581 0.51651 0.15511 0.0
C163 C 0.20458 0.69921 0.48981 0.0
C164 C 0.22698 0.7751 0.4782 0.0
H165 H 0.13174 0.5749 0.48432 0.0
C166 C 0.18302 0.78256 0.45406 0.0
H167 H 0.23687 0.69096 0.50843 0.0
C168 C 0.12095 0.71515 0.44052 0.0
C169 C 0.10216 0.63904 0.45065 0.0
H170 H 0.19843 0.84015 0.4447 0.0
H171 H 0.08912 0.7227 0.4215 0.0
C172 C 0.14354 0.63217 0.47605 0.0
C173 C 0.41183 0.20439 0.77485 0.0
C174 C 0.39227 0.20276 0.807 0.0
H175 H 0.44926 0.15733 0.73858 0.0
C176 C 0.38509 0.14149 0.82659 0.0
H177 H 0.41991 0.25224 0.75937 0.0
C178 C 0.39828 0.08332 0.81419 0.0
C179 C 0.42251 0.0873 0.78225 0.0
H180 H 0.37058 0.13936 0.85158 0.0
H181 H 0.39079 0.03642 0.82999 0.0
C182 C 0.42832 0.1488 0.76284 0.0
C183 C 0.51005 0.69082 0.49452 0.0
C184 C 0.56277 0.76628 0.50607 0.0
H185 H 0.45621 0.56609 0.50212 0.0
C186 C 0.61253 0.77448 0.5309 0.0
H187 H 0.4699 0.6835 0.47588 0.0
C188 C 0.60429 0.70755 0.54618 0.0
C189 C 0.54579 0.63174 0.53689 0.0
H190 H 0.65244 0.83233 0.54053 0.0
H191 H 0.63965 0.71519 0.56678 0.0
C192 C 0.50189 0.62378 0.50972 0.0
C193 C 0.79106 0.59307 0.85558 0.0
C194 C 0.72808 0.52275 0.84422 0.0
H195 H 0.90319 0.64699 0.87697 0.0
C196 C 0.73415 0.45521 0.84117 0.0
H197 H 0.78705 0.64549 0.8584 0.0
C198 C 0.80056 0.45644 0.85108 0.0
C199 C 0.86114 0.52473 0.8649 0.0
H200 H 0.68591 0.40029 0.83253 0.0
H201 H 0.8022 0.40237 0.85009 0.0
C202 C 0.85701 0.59378 0.86626 0.0
C203 C 0.24139 0.86353 0.16771 0.0
C204 C 0.18673 0.80059 0.18657 0.0
H205 H 0.35136 0.97033 0.16584 0.0
C206 C 0.2031 0.79681 0.2187 0.0
H207 H 0.23028 0.86708 0.1427 0.0
C208 C 0.2739 0.8524 0.23149 0.0
C209 C 0.32975 0.91626 0.21301 0.0
H210 H 0.16302 0.7475 0.23356 0.0
H211 H 0.28516 0.84226 0.25567 0.0
C212 C 0.31146 0.92185 0.18097 0.0
C213 C 0.4342 0.24871 0.51268 0.0
C214 C 0.46392 0.21133 0.53143 0.0
H215 H 0.41462 0.34588 0.50889 0.0
C216 C 0.49269 0.24114 0.56186 0.0
H217 H 0.41189 0.22703 0.4891 0.0
C218 C 0.4952 0.30864 0.57285 0.0
C219 C 0.468 0.348 0.55396 0.0
H220 H 0.51562 0.21356 0.57707 0.0
H221 H 0.52121 0.33149 0.59585 0.0
C222 C 0.43651 0.31696 0.52386 0.0
C223 C 0.13847 0.38475 0.87351 0.0
C224 C 0.17951 0.42275 0.84572 0.0
H225 H 0.05226 0.37013 0.90704 0.0
C226 C 0.15832 0.46901 0.82798 0.0
H227 H 0.15502 0.34993 0.88778 0.0
C228 C 0.10121 0.48284 0.83946 0.0
C229 C 0.0647 0.45049 0.86884 0.0
H230 H 0.19082 0.50043 0.80689 0.0
H231 H 0.09033 0.5239 0.82663 0.0
C232 C 0.08083 0.39768 0.88478 0.0
C233 C 0.68002 0.21641 0.1612 0.0
C234 C 0.75295 0.23453 0.17239 0.0
H235 H 0.5577 0.14851 0.16814 0.0
C236 C 0.75658 0.18643 0.19631 0.0
H237 H 0.67486 0.25189 0.14271 0.0
C238 C 0.68914 0.12665 0.21074 0.0
C239 C 0.61656 0.1138 0.20168 0.0
H240 H 0.81162 0.19794 0.20527 0.0
H241 H 0.6941 0.09311 0.23012 0.0
C242 C 0.61258 0.15682 0.17574 0.0
C243 C 0.05256 0.56878 0.0181 0.0
C244 C -0.01722 0.53106 0.03533 0.0
H245 H 0.10671 0.59501 0.97199 0.0
C246 C 0.91287 0.49261 0.01853 0.0
H247 H 0.10734 0.59884 0.03037 0.0
C248 C 0.91261 0.49114 0.98532 0.0
C249 C -0.01779 0.52742 0.96809 0.0
H250 H 0.85807 0.46328 0.03103 0.0
H251 H 0.85779 0.4598 0.9731 0.0
C252 C 0.05226 0.56642 0.98475 0.0
C253 C 0.55161 0.00777 0.35685 0.0
C254 C 0.50113 0.01803 0.37664 0.0
H255 H 0.58724 0.00393 0.3091 0.0
C256 C 0.44874 0.03599 0.36256 0.0
H257 H 0.59298 -0.00564 0.36689 0.0
C258 C 0.44548 0.04136 0.32944 0.0
C259 C 0.49506 0.02973 0.3097 0.0
H260 H 0.40917 0.04449 0.37708 0.0
H261 H 0.40382 0.05414 0.31923 0.0
C262 C 0.54883 0.01393 0.32376 0.0
C263 C 0.5362 0.5669 0.69692 0.0
C264 C 0.46896 0.5103 0.71297 0.0
H265 H 0.59338 0.60977 0.65184 0.0
C266 C 0.40487 0.45613 0.69498 0.0
H267 H 0.58639 0.60975 0.71007 0.0
C268 C 0.40909 0.45612 0.66181 0.0
C269 C 0.47714 0.51073 0.64587 0.0
H270 H 0.35201 0.41193 0.7065 0.0
H271 H 0.35958 0.41227 0.64859 0.0
C272 C 0.54009 0.56735 0.66363 0.0
C273 C 0.5618 0.00241 0.6411 0.0
C274 C 0.4956 0.96702 0.62194 0.0
H275 H 0.6068 0.03106 0.68857 0.0
C276 C 0.42251 0.93194 0.63656 0.0
H277 H 0.61878 0.02974 0.63047 0.0
C278 C 0.41588 0.93428 0.66965 0.0
C279 C 0.4821 0.96998 0.68866 0.0
H280 H 0.37051 0.90472 0.62237 0.0
H281 H 0.35914 0.90842 0.68042 0.0
C282 C 0.55503 0.00304 0.67423 0.0
C283 C 0.48399 0.42953 0.97608 0.0
C284 C 0.45178 0.46711 0.95901 0.0
H285 H 0.51124 0.40265 0.02211 0.0
C286 C 0.4192 0.50441 0.97596 0.0
H287 H 0.50956 0.40032 0.9637 0.0
C288 C 0.4196 0.50507 0.00916 0.0
C289 C 0.45313 0.46903 0.02626 0.0
H290 H 0.39357 0.5336 0.96358 0.0
H291 H 0.3954 0.53573 0.02147 0.0
C292 C 0.48519 0.43103 0.00945 0.0
C293 C -0.01951 0.44363 0.29673 0.0
C294 C -0.02713 0.50275 0.28138 0.0
H295 H -0.00894 0.39618 0.34114 0.0
C296 C 0.96966 0.56035 0.29993 0.0
H297 H -0.01689 0.39841 0.28314 0.0
C298 C -0.0252 0.55932 0.33308 0.0
C299 C -0.01768 0.50018 0.34837 0.0
H300 H 0.96413 0.60691 0.28884 0.0
H301 H -0.02782 0.60437 0.34681 0.0
C302 C -0.01526 0.44212 0.32991 0.0
loop_
_geom_bond_atom_site_label_1
_geom_bond_atom_site_label_2
_geom_bond_distance
_geom_bond_site_symmetry_2
_ccdc_geom_bond_type
O0 Zn1 1.953 . S
O0 C16 1.225 1_655 S
Zn1 O0 1.953 . S
Zn1 O2 1.949 1_655 S
Zn1 O8 1.919 . S
Zn1 O13 1.924 1_655 S
O2 Zn1 1.949 1_455 S
O2 Zn3 1.923 1_455 S
O2 Zn4 1.950 . S
O2 Zn5 1.945 . S
Zn3 O2 1.923 1_655 S
Zn3 O6 1.933 . S
Zn3 O9 1.941 . S
Zn3 O10 1.965 . S
Zn4 O2 1.950 . S
Zn4 O11 1.938 1_455 S
Zn4 O12 1.906 . S
Zn4 O22 1.953 . S
Zn5 O2 1.945 . S
Zn5 O7 1.932 . S
Zn5 O14 1.977 . S
Zn5 O15 1.910 . S
O6 Zn3 1.933 . S
O6 C17 1.226 1_655 S
O7 Zn5 1.932 . S
O7 C17 1.307 . S
O8 Zn1 1.919 . S
O8 C19 1.253 . S
O9 Zn3 1.941 . S
O9 C19 1.283 . S
O10 Zn3 1.965 . S
O10 C18 1.303 . S
O11 Zn4 1.938 1_655 S
O11 C18 1.247 . S
O12 Zn4 1.906 . S
O12 C20 1.304 . S
O13 Zn1 1.924 1_455 S
O13 C21 1.311 . S
O14 Zn5 1.977 . S
O14 C20 1.272 . S
O15 Zn5 1.910 . S
O15 C21 1.231 . S
C16 O0 1.225 1_455 S
C16 O22 1.298 . S
C17 O6 1.226 1_455 S
C17 O7 1.307 . S
C18 O10 1.303 . S
C18 O11 1.247 . S
C19 O8 1.253 . S
C19 O9 1.283 . S
C20 O12 1.304 . S
C20 O14 1.272 . S
C21 O13 1.311 . S
C21 O15 1.231 . S
O22 Zn4 1.953 . S
O22 C16 1.298 . S
O23 Zn24 1.953 . S
O23 C39 1.225 . S
Zn24 O23 1.953 . S
Zn24 O25 1.949 . S
Zn24 O31 1.919 . S
Zn24 O36 1.924 1_545 S
O25 Zn24 1.949 . S
O25 Zn26 1.923 . S
O25 Zn27 1.950 1_545 S
O25 Zn28 1.945 1_545 S
Zn26 O25 1.923 . S
Zn26 O29 1.933 . S
Zn26 O32 1.941 . S
Zn26 O33 1.965 . S
Zn27 O25 1.950 1_565 S
Zn27 O34 1.938 1_565 S
Zn27 O35 1.906 . S
Zn27 O45 1.953 . S
Zn28 O25 1.945 1_565 S
Zn28 O30 1.932 . S
Zn28 O37 1.977 . S
Zn28 O38 1.910 . S
O29 Zn26 1.933 . S
O29 C40 1.226 . S
O30 Zn28 1.932 . S
O30 C40 1.307 1_565 S
O31 Zn24 1.919 . S
O31 C42 1.253 . S
O32 Zn26 1.941 . S
O32 C42 1.283 . S
O33 Zn26 1.965 . S
O33 C41 1.303 . S
O34 Zn27 1.938 1_545 S
O34 C41 1.247 . S
O35 Zn27 1.906 . S
O35 C43 1.304 . S
O36 Zn24 1.924 1_565 S
O36 C44 1.311 . S
O37 Zn28 1.977 . S
O37 C43 1.272 . S
O38 Zn28 1.910 . S
O38 C44 1.231 . S
C39 O23 1.225 . S
C39 O45 1.298 1_545 S
C40 O29 1.226 . S
C40 O30 1.307 1_545 S
C41 O33 1.303 . S
C41 O34 1.247 . S
C42 O31 1.253 . S
C42 O32 1.283 . S
C43 O35 1.304 . S
C43 O37 1.272 . S
C44 O36 1.311 . S
C44 O38 1.231 . S
O45 Zn27 1.953 . S
O45 C39 1.298 1_565 S
O46 Zn47 1.953 . S
O46 C62 1.225 . S
Zn47 O46 1.953 . S
Zn47 O48 1.949 . S
Zn47 O54 1.919 . S
Zn47 O59 1.924 . S
O48 Zn47 1.949 . S
O48 Zn49 1.923 . S
O48 Zn50 1.950 . S
O48 Zn51 1.945 . S
Zn49 O48 1.923 . S
Zn49 O52 1.933 . S
Zn49 O55 1.941 . S
Zn49 O56 1.965 . S
Zn50 O48 1.950 . S
Zn50 O57 1.938 . S
Zn50 O58 1.906 . S
Zn50 O68 1.953 . S
Zn51 O48 1.945 . S
Zn51 O53 1.932 . S
Zn51 O60 1.977 . S
Zn51 O61 1.910 . S
O52 Zn49 1.933 . S
O52 C63 1.226 . S
O53 Zn51 1.932 . S
O53 C63 1.307 . S
O54 Zn47 1.919 . S
O54 C65 1.253 . S
O55 Zn49 1.941 . S
O55 C65 1.283 . S
O56 Zn49 1.965 . S
O56 C64 1.303 . S
O57 Zn50 1.938 . S
O57 C64 1.247 . S
O58 Zn50 1.906 . S
O58 C66 1.304 . S
O59 Zn47 1.924 . S
O59 C67 1.311 . S
O60 Zn51 1.977 . S
O60 C66 1.272 . S
O61 Zn51 1.910 . S
O61 C67 1.231 . S
C62 O46 1.225 . S
C62 O68 1.298 . S
C63 O52 1.226 . S
C63 O53 1.307 . S
C64 O56 1.303 . S
C64 O57 1.247 . S
C65 O54 1.253 . S
C65 O55 1.283 . S
C66 O58 1.304 . S
C66 O60 1.272 . S
C67 O59 1.311 . S
C67 O61 1.231 . S
O68 Zn50 1.953 . S
O68 C62 1.298 . S
H69 C72 0.931 . S
H70 C75 0.928 . S
H71 C77 0.930 . S
C72 H69 0.931 . S
C72 C73 1.413 . S
C72 C74 1.360 1_565 S
C73 C72 1.413 . S
C73 C77 1.429 1_565 S
C74 C72 1.360 1_545 S
C74 C75 1.372 . S
C75 H70 0.928 . S
C75 C74 1.372 . S
C75 C76 1.404 . S
C76 C75 1.404 . S
C76 C77 1.391 . S
C77 H71 0.930 . S
C77 C73 1.429 1_545 S
C77 C76 1.391 . S
H78 C81 0.931 . S
H79 C84 0.928 . S
H80 C86 0.930 . S
C81 H78 0.931 . S
C81 C82 1.413 . S
C81 C83 1.360 . S
C82 C81 1.413 . S
C82 C86 1.429 . S
C83 C81 1.360 . S
C83 C84 1.372 . S
C84 H79 0.928 . S
C84 C83 1.372 . S
C84 C85 1.404 . S
C85 C84 1.404 . S
C85 C86 1.391 . S
C86 H80 0.930 . S
C86 C82 1.429 . S
C86 C85 1.391 . S
H87 C90 0.931 . S
H88 C93 0.928 . S
H89 C95 0.930 . S
C90 H87 0.931 . S
C90 C91 1.413 . S
C90 C92 1.360 1_655 S
C91 C90 1.413 . S
C91 C95 1.429 1_655 S
C92 C90 1.360 1_455 S
C92 C93 1.372 . S
C93 H88 0.928 . S
C93 C92 1.372 . S
C93 C94 1.404 . S
C94 C93 1.404 . S
C94 C95 1.391 . S
C95 H89 0.930 . S
C95 C91 1.429 1_455 S
C95 C94 1.391 . S
H96 C99 0.931 . S
H97 C102 0.928 . S
H98 C104 0.930 . S
C99 H96 0.931 . S
C99 C100 1.413 . S
C99 C101 1.360 1_655 S
C100 C99 1.413 . S
C100 C104 1.429 1_655 S
C101 C99 1.360 1_455 S
C101 C102 1.372 . S
C102 H97 0.928 . S
C102 C101 1.372 . S
C102 C103 1.404 . S
C103 C102 1.404 . S
C103 C104 1.391 . S
C104 H98 0.930 . S
C104 C100 1.429 1_455 S
C104 C103 1.391 . S
H105 C108 0.931 . S
H106 C111 0.928 . S
H107 C113 0.930 . S
C108 H105 0.931 . S
C108 C109 1.413 . S
C108 C110 1.352 1_545 S
C109 C108 1.413 . S
C109 C113 1.429 1_545 S
C110 C108 1.352 1_565 S
C110 C111 1.379 . S
C111 H106 0.928 . S
C111 C110 1.379 . S
C111 C112 1.404 . S
C112 C111 1.404 . S
C112 C113 1.391 . S
C113 H107 0.930 . S
C113 C109 1.429 1_565 S
C113 C112 1.391 . S
H114 C117 0.931 . S
H115 C120 0.928 . S
H116 C122 0.930 . S
C117 H114 0.931 . S
C117 C118 1.413 . S
C117 C119 1.360 . S
C118 C117 1.413 . S
C118 C122 1.429 . S
C119 C117 1.360 . S
C119 C120 1.372 . S
C120 H115 0.928 . S
C120 C119 1.372 . S
C120 C121 1.404 . S
C121 C120 1.404 . S
C121 C122 1.391 . S
C122 H116 0.930 . S
C122 C118 1.429 . S
C122 C121 1.391 . S
C123 C124 1.387 . S
C123 H127 0.950 . S
C123 C132 1.390 . S
C124 C123 1.387 . S
C124 C126 1.387 . S
H125 C132 0.950 . S
C126 C124 1.387 . S
C126 C128 1.390 . S
C126 H130 0.950 . S
H127 C123 0.950 . S
C128 C126 1.390 . S
C128 C129 1.387 . S
C128 H131 0.950 . S
C129 C128 1.387 . S
C129 C132 1.387 . S
H130 C126 0.950 . S
H131 C128 0.950 . S
C132 C123 1.390 . S
C132 H125 0.950 . S
C132 C129 1.387 . S
C133 C134 1.387 . S
C133 H137 0.950 . S
C133 C142 1.390 . S
C134 C133 1.387 . S
C134 C136 1.387 . S
H135 C142 0.950 . S
C136 C134 1.387 . S
C136 C138 1.390 . S
C136 H140 0.950 . S
H137 C133 0.950 . S
C138 C136 1.390 . S
C138 C139 1.387 . S
C138 H141 0.950 . S
C139 C138 1.387 . S
C139 C142 1.387 . S
H140 C136 0.950 . S
H141 C138 0.950 . S
C142 C133 1.390 . S
C142 H135 0.950 . S
C142 C139 1.387 . S
C143 C144 1.387 . S
C143 H147 0.950 . S
C143 C152 1.390 . S
C144 C143 1.387 . S
C144 C146 1.387 . S
H145 C152 0.950 . S
C146 C144 1.387 . S
C146 C148 1.390 . S
C146 H150 0.950 . S
H147 C143 0.950 . S
C148 C146 1.390 . S
C148 C149 1.387 . S
C148 H151 0.950 . S
C149 C148 1.387 . S
C149 C152 1.387 . S
H150 C146 0.950 . S
H151 C148 0.950 . S
C152 C143 1.390 . S
C152 H145 0.950 . S
C152 C149 1.387 . S
C153 C154 1.387 . S
C153 H157 0.950 . S
C153 C162 1.390 . S
C154 C153 1.387 . S
C154 C156 1.387 . S
H155 C162 0.950 . S
C156 C154 1.387 . S
C156 C158 1.390 . S
C156 H160 0.950 . S
H157 C153 0.950 . S
C158 C156 1.390 . S
C158 C159 1.387 . S
C158 H161 0.950 . S
C159 C158 1.387 . S
C159 C162 1.387 . S
H160 C156 0.950 . S
H161 C158 0.950 . S
C162 C153 1.390 . S
C162 H155 0.950 . S
C162 C159 1.387 . S
C163 C164 1.387 . S
C163 H167 0.950 . S
C163 C172 1.390 . S
C164 C163 1.387 . S
C164 C166 1.387 . S
H165 C172 0.950 . S
C166 C164 1.387 . S
C166 C168 1.390 . S
C166 H170 0.950 . S
H167 C163 0.950 . S
C168 C166 1.390 . S
C168 C169 1.387 . S
C168 H171 0.950 . S
C169 C168 1.387 . S
C169 C172 1.387 . S
H170 C166 0.950 . S
H171 C168 0.950 . S
C172 C163 1.390 . S
C172 H165 0.950 . S
C172 C169 1.387 . S
C173 C174 1.387 . S
C173 H177 0.950 . S
C173 C182 1.390 . S
C174 C173 1.387 . S
C174 C176 1.387 . S
H175 C182 0.950 . S
C176 C174 1.387 . S
C176 C178 1.390 . S
C176 H180 0.950 . S
H177 C173 0.950 . S
C178 C176 1.390 . S
C178 C179 1.387 . S
C178 H181 0.950 . S
C179 C178 1.387 . S
C179 C182 1.387 . S
H180 C176 0.950 . S
H181 C178 0.950 . S
C182 C173 1.390 . S
C182 H175 0.950 . S
C182 C179 1.387 . S
C183 C184 1.387 . S
C183 H187 0.950 . S
C183 C192 1.390 . S
C184 C183 1.387 . S
C184 C186 1.387 . S
H185 C192 0.950 . S
C186 C184 1.387 . S
C186 C188 1.390 . S
C186 H190 0.950 . S
H187 C183 0.950 . S
C188 C186 1.390 . S
C188 C189 1.387 . S
C188 H191 0.950 . S
C189 C188 1.387 . S
C189 C192 1.387 . S
H190 C186 0.950 . S
H191 C188 0.950 . S
C192 C183 1.390 . S
C192 H185 0.950 . S
C192 C189 1.387 . S
C193 C194 1.387 . S
C193 H197 0.950 . S
C193 C202 1.390 . S
C194 C193 1.387 . S
C194 C196 1.387 . S
H195 C202 0.950 . S
C196 C194 1.387 . S
C196 C198 1.390 . S
C196 H200 0.950 . S
H197 C193 0.950 . S
C198 C196 1.390 . S
C198 C199 1.387 . S
C198 H201 0.950 . S
C199 C198 1.387 . S
C199 C202 1.387 . S
H200 C196 0.950 . S
H201 C198 0.950 . S
C202 C193 1.390 . S
C202 H195 0.950 . S
C202 C199 1.387 . S
C203 C204 1.387 . S
C203 H207 0.950 . S
C203 C212 1.390 . S
C204 C203 1.387 . S
C204 C206 1.387 . S
H205 C212 0.950 . S
C206 C204 1.387 . S
C206 C208 1.390 . S
C206 H210 0.950 . S
H207 C203 0.950 . S
C208 C206 1.390 . S
C208 C209 1.387 . S
C208 H211 0.950 . S
C209 C208 1.387 . S
C209 C212 1.387 . S
H210 C206 0.950 . S
H211 C208 0.950 . S
C212 C203 1.390 . S
C212 H205 0.950 . S
C212 C209 1.387 . S
C213 C214 1.387 . S
C213 H217 0.950 . S
C213 C222 1.390 . S
C214 C213 1.387 . S
C214 C216 1.387 . S
H215 C222 0.950 . S
C216 C214 1.387 . S
C216 C218 1.390 . S
C216 H220 0.950 . S
H217 C213 0.950 . S
C218 C216 1.390 . S
C218 C219 1.387 . S
C218 H221 0.950 . S
C219 C218 1.387 . S
C219 C222 1.387 . S
H220 C216 0.950 . S
H221 C218 0.950 . S
C222 C213 1.390 . S
C222 H215 0.950 . S
C222 C219 1.387 . S
C223 C224 1.387 . S
C223 H227 0.950 . S
C223 C232 1.390 . S
C224 C223 1.387 . S
C224 C226 1.387 . S
H225 C232 0.950 . S
C226 C224 1.387 . S
C226 C228 1.390 . S
C226 H230 0.950 . S
H227 C223 0.950 . S
C228 C226 1.390 . S
C228 C229 1.387 . S
C228 H231 0.950 . S
C229 C228 1.387 . S
C229 C232 1.387 . S
H230 C226 0.950 . S
H231 C228 0.950 . S
C232 C223 1.390 . S
C232 H225 0.950 . S
C232 C229 1.387 . S
C233 C234 1.387 . S
C233 H237 0.950 . S
C233 C242 1.390 . S
C234 C233 1.387 . S
C234 C236 1.387 . S
H235 C242 0.950 . S
C236 C234 1.387 . S
C236 C238 1.390 . S
C236 H240 0.950 . S
H237 C233 0.950 . S
C238 C236 1.390 . S
C238 C239 1.387 . S
C238 H241 0.950 . S
C239 C238 1.387 . S
C239 C242 1.387 . S
H240 C236 0.950 . S
H241 C238 0.950 . S
C242 C233 1.390 . S
C242 H235 0.950 . S
C242 C239 1.387 . S
C243 C244 1.387 . S
C243 H247 0.950 . S
C243 C252 1.390 1_554 S
C244 C243 1.387 . S
C244 C246 1.387 1_455 S
H245 C252 0.950 . S
C246 C244 1.387 1_655 S
C246 C248 1.390 1_554 S
C246 H250 0.950 . S
H247 C243 0.950 . S
C248 C246 1.390 1_556 S
C248 C249 1.387 1_655 S
C248 H251 0.950 . S
C249 C248 1.387 1_455 S
C249 C252 1.387 . S
H250 C246 0.950 . S
H251 C248 0.950 . S
C252 C243 1.390 1_556 S
C252 H245 0.950 . S
C252 C249 1.387 . S
C253 C254 1.387 . S
C253 H257 0.950 . S
C253 C262 1.390 . S
C254 C253 1.387 . S
C254 C256 1.387 . S
H255 C262 0.950 . S
C256 C254 1.387 . S
C256 C258 1.390 . S
C256 H260 0.950 . S
H257 C253 0.950 . S
C258 C256 1.390 . S
C258 C259 1.387 . S
C258 H261 0.950 . S
C259 C258 1.387 . S
C259 C262 1.387 . S
H260 C256 0.950 . S
H261 C258 0.950 . S
C262 C253 1.390 . S
C262 H255 0.950 . S
C262 C259 1.387 . S
C263 C264 1.387 . S
C263 H267 0.950 . S
C263 C272 1.390 . S
C264 C263 1.387 . S
C264 C266 1.387 . S
H265 C272 0.950 . S
C266 C264 1.387 . S
C266 C268 1.390 . S
C266 H270 0.950 . S
H267 C263 0.950 . S
C268 C266 1.390 . S
C268 C269 1.387 . S
C268 H271 0.950 . S
C269 C268 1.387 . S
C269 C272 1.387 . S
H270 C266 0.950 . S
H271 C268 0.950 . S
C272 C263 1.390 . S
C272 H265 0.950 . S
C272 C269 1.387 . S
C273 C274 1.387 . S
C273 H277 0.950 . S
C273 C282 1.390 . S
C274 C273 1.387 . S
C274 C276 1.381 . S
H275 C282 0.950 . S
C276 C274 1.381 . S
C276 C278 1.390 . S
C276 H280 0.959 1_545 S
H277 C273 0.950 . S
C278 C276 1.390 . S
C278 C279 1.386 . S
C278 H281 0.951 1_545 S
C279 C278 1.386 . S
C279 C282 1.387 . S
H280 C276 0.959 1_565 S
H281 C278 0.951 1_565 S
C282 C273 1.390 . S
C282 H275 0.950 . S
C282 C279 1.387 . S
C283 C284 1.387 . S
C283 H287 0.950 . S
C283 C292 1.390 1_556 S
C284 C283 1.387 . S
C284 C286 1.387 . S
H285 C292 0.950 . S
C286 C284 1.387 . S
C286 C288 1.390 1_556 S
C286 H290 0.950 . S
H287 C283 0.950 . S
C288 C286 1.390 1_554 S
C288 C289 1.387 . S
C288 H291 0.950 . S
C289 C288 1.387 . S
C289 C292 1.387 . S
H290 C286 0.950 . S
H291 C288 0.950 . S
C292 C283 1.390 1_554 S
C292 H285 0.950 . S
C292 C289 1.387 . S
C293 C294 1.387 1_655 S
C293 H297 0.950 . S
C293 C302 1.390 . S
C294 C293 1.387 1_455 S
C294 C296 1.387 . S
H295 C302 0.950 . S
C296 C294 1.387 . S
C296 C298 1.390 . S
C296 H300 0.950 . S
H297 C293 0.950 . S
C298 C296 1.390 . S
C298 C299 1.387 . S
C298 H301 0.950 . S
C299 C298 1.387 . S
C299 C302 1.387 1_455 S
H300 C296 0.950 . S
H301 C298 0.950 . S
C302 C293 1.390 . S
C302 H295 0.950 . S
C302 C299 1.387 1_655 S
C124 C20 1.328 . S
C129 C118 1.385 . S
C134 C41 1.416 . S
C139 C100 1.406 . S
C144 C64 1.430 . S
C149 C112 1.422 . S
C154 C19 1.357 . S
C159 C121 1.422 . S
C169 C103 1.400 . S
C164 C44 1.392 . S
C179 C109 1.395 . S
C174 C67 1.388 . S
C184 C43 1.331 . S
C189 C82 1.392 . S
C194 C66 1.330 . S
C199 C91 1.386 . S
C204 C21 1.402 . S
C209 C73 1.409 . S
C219 C85 1.407 . S
C214 C42 1.347 . S
C229 C94 1.424 . S
C224 C65 1.361 . S
C234 C18 1.408 . S
C239 C76 1.399 . S
C249 C92 1.479 . S
C244 C17 1.479 . S
C254 C39 1.476 . S
C259 C74 1.477 . S
C264 C62 1.489 . S
C269 C83 1.489 . S
C279 C110 1.466 1_545 S
C274 C40 1.465 . S
C289 C119 1.478 . S
C284 C63 1.478 . S
C294 C16 1.476 . S
C299 C101 1.476 . S
