# Generated by pormake.
# Topology anh, (6,3)-cn, num edge types: 1
# Building blocks:
#     Node 0, Type 0, BuildingBlock: BETDEL_clean_sbu_0, # of connection points: 6
#     Node 1, Type 0, BuildingBlock: BETDEL_clean_sbu_0, # of connection points: 6
#     Node 2, Type 0, BuildingBlock: BETDEL_clean_sbu_0, # of connection points: 6
#     Node 3, Type 1, BuildingBlock: BETDAH_clean_linker_0, # of connection points: 3
#     Node 4, Type 1, BuildingBlock: BETDAH_clean_linker_0, # of connection points: 3
#     Node 5, Type 1, BuildingBlock: BETDAH_clean_linker_0, # of connection points: 3
#     Node 6, Type 1, BuildingBlock: BETDAH_clean_linker_0, # of connection points: 3
#     Node 7, Type 1, BuildingBlock: BETDAH_clean_linker_0, # of connection points: 3
#     Node 8, Type 1, BuildingBlock: BETDAH_clean_linker_0, # of connection points: 3
#     Edge 9, Type (0, 1), BuildingBlock: KIFKEQ_clean_linker_1, # of connection points: 2
#     Edge 10, Type (0, 1), BuildingBlock: KIFKEQ_clean_linker_1, # of connection points: 2
#     Edge 11, Type (0, 1), BuildingBlock: KIFKEQ_clean_linker_1, # of connection points: 2
#     Edge 12, Type (0, 1), BuildingBlock: KIFKEQ_clean_linker_1, # of connection points: 2
#     Edge 13, Type (0, 1), BuildingBlock: KIFKEQ_clean_linker_1, # of connection points: 2
#     Edge 14, Type (0, 1), BuildingBlock: KIFKEQ_clean_linker_1, # of connection points: 2
#     Edge 15, Type (0, 1), BuildingBlock: KIFKEQ_clean_linker_1, # of connection points: 2
#     Edge 16, Type (0, 1), BuildingBlock: KIFKEQ_clean_linker_1, # of connection points: 2
#     Edge 17, Type (0, 1), BuildingBlock: KIFKEQ_clean_linker_1, # of connection points: 2
#     Edge 18, Type (0, 1), BuildingBlock: KIFKEQ_clean_linker_1, # of connection points: 2
#     Edge 19, Type (0, 1), BuildingBlock: KIFKEQ_clean_linker_1, # of connection points: 2
#     Edge 20, Type (0, 1), BuildingBlock: KIFKEQ_clean_linker_1, # of connection points: 2
#     Edge 21, Type (0, 1), BuildingBlock: KIFKEQ_clean_linker_1, # of connection points: 2
#     Edge 22, Type (0, 1), BuildingBlock: KIFKEQ_clean_linker_1, # of connection points: 2
#     Edge 23, Type (0, 1), BuildingBlock: KIFKEQ_clean_linker_1, # of connection points: 2
#     Edge 24, Type (0, 1), BuildingBlock: KIFKEQ_clean_linker_1, # of connection points: 2
#     Edge 25, Type (0, 1), BuildingBlock: KIFKEQ_clean_linker_1, # of connection points: 2
#     Edge 26, Type (0, 1), BuildingBlock: KIFKEQ_clean_linker_1, # of connection points: 2
# Relax obj value: 0.094
# Max RMSD: 0.133
# Mean RMSD: 0.100
data_MOF--net-anh--node1-BETDEL_clean_sbu_0--node2-BETDAH_clean_linker_0--edge1-KIFKEQ_clean_linker_1
_symmetry_space_group_name_H-M    P1
_symmetry_Int_Tables_number       1
_symmetry_cell_setting            triclinic
loop_
_symmetry_equiv_pos_as_xyz
'x, y, z'
_cell_length_a     30.700334
_cell_length_b     30.655708
_cell_length_c     48.315655
_cell_angle_alpha  92.041656
_cell_angle_beta   92.367679
_cell_angle_gamma 120.0252
loop_
_atom_site_label
_atom_site_type_symbol
_atom_site_fract_x
_atom_site_fract_y
_atom_site_fract_z
_atom_type_partial_charge
Dy0 Dy 0.04993 0.4651 0.16479 0.0
C1 C 0.93501 0.5622 0.1944 0.0
C2 C 0.10866 0.42819 0.14664 0.0
Dy3 Dy 0.99153 0.52544 0.17276 0.0
O4 O 0.10236 0.43528 0.17246 0.0
O5 O 0.08258 0.44105 0.13054 0.0
O6 O 0.03173 0.43766 0.20764 0.0
O7 O 0.03966 0.5077 0.19843 0.0
C8 C 0.02723 0.47568 0.21656 0.0
C9 C 0.99464 0.50449 0.11828 0.0
O10 O 0.07172 0.58977 0.17933 0.0
O11 O 0.11319 0.54671 0.16572 0.0
O12 O 0.97189 0.58662 0.17852 0.0
O13 O 0.93033 0.51858 0.19892 0.0
O14 O 0.97254 0.52842 0.12722 0.0
O15 O 1.01199 0.49329 0.13907 0.0
O16 O 0.96963 0.40106 0.15811 0.0
O17 O 0.93243 0.44419 0.17743 0.0
C18 C 0.11342 0.58918 0.17324 0.0
C19 C 0.93011 0.4017 0.16805 0.0
Dy20 Dy 0.51669 0.02648 0.49598 0.0
C21 C 0.73393 0.15438 0.52471 0.0
C22 C 0.41771 0.97706 0.47781 0.0
Dy23 Dy 0.63658 0.08903 0.50534 0.0
O24 O 0.43595 1.00289 0.5015 0.0
O25 O 0.45388 0.97921 0.46369 0.0
O26 O 0.51122 0.99504 0.53755 0.0
O27 O 0.57224 0.06654 0.53094 0.0
C28 C 0.55409 0.03231 0.54789 0.0
C29 C 0.60575 0.06973 0.45059 0.0
O30 O 0.61898 1.00995 0.5136 0.0
O31 O 0.53874 0.96676 0.49059 0.0
O32 O 0.72001 0.11843 0.50542 0.0
O33 O 0.69422 0.15238 0.53442 0.0
O34 O 0.6528 0.09312 0.45963 0.0
O35 O 0.58024 0.05938 0.47141 0.0
O36 O 0.53104 0.10636 0.49461 0.0
O37 O 0.6184 0.15156 0.50466 0.0
C38 C 0.57891 0.96743 0.50275 0.0
C39 C 0.57448 0.14964 0.49978 0.0
Dy40 Dy 0.59551 0.59447 0.83534 0.0
C41 C 0.50991 0.38422 0.84109 0.0
C42 C 0.63131 0.69328 0.82497 0.0
Dy43 Dy 0.53982 0.48327 0.83418 0.0
O44 O 0.64206 0.67747 0.84733 0.0
O45 O 0.60085 0.65505 0.80808 0.0
O46 O 0.63081 0.59954 0.87746 0.0
O47 O 0.5565 0.54107 0.867 0.0
C48 C 0.59269 0.55882 0.88533 0.0
C49 C 0.54495 0.52047 0.78409 0.0
O50 O 0.47563 0.49354 0.84626 0.0
O51 O 0.51391 0.5769 0.83504 0.0
O52 O 0.49733 0.40103 0.81975 0.0
O53 O 0.53742 0.42152 0.85915 0.0
O54 O 0.50559 0.48082 0.79191 0.0
O55 O 0.58039 0.53689 0.80279 0.0
O56 O 0.6612 0.5837 0.82716 0.0
O57 O 0.62071 0.50037 0.83817 0.0
C58 C 0.47337 0.53486 0.84183 0.0
C59 C 0.66239 0.54232 0.83291 0.0
H60 H 0.43885 0.90813 0.25306 0.0
H61 H 0.56785 0.04752 0.23366 0.0
H62 H 0.46594 0.94324 0.16775 0.0
C63 C 0.46163 0.9331 0.23766 0.0
C64 C 0.44666 0.9196 0.20932 0.0
C65 C 0.50473 0.97927 0.24652 0.0
C66 C 0.53429 1.01224 0.22675 0.0
C67 C 0.52089 0.99915 0.19819 0.0
C68 C 0.47653 0.95321 0.18971 0.0
N69 N 0.55091 0.03073 0.17745 0.0
C70 C 0.59741 0.07561 0.18201 0.0
H71 H 0.57769 0.46568 0.58399 0.0
H72 H 0.5718 0.59935 0.56665 0.0
H73 H 0.57038 0.50229 0.49942 0.0
C74 C 0.57666 0.49078 0.56906 0.0
C75 C 0.57472 0.47847 0.54056 0.0
C76 C 0.57549 0.53403 0.57866 0.0
C77 C 0.57242 0.56587 0.55933 0.0
C78 C 0.57084 0.55472 0.53065 0.0
C79 C 0.57147 0.51074 0.52149 0.0
N80 N 0.56892 0.58664 0.51037 0.0
C81 C 0.56969 0.63233 0.51544 0.0
H82 H 0.95786 0.51865 0.91593 0.0
H83 H 0.09516 0.51628 0.90488 0.0
H84 H 1.01987 0.54392 0.83611 0.0
C85 C 0.98683 0.52188 0.90265 0.0
C86 C 0.98391 0.53224 0.87482 0.0
C87 C 0.02625 0.51538 0.91361 0.0
C88 C 0.06453 0.52083 0.89648 0.0
C89 C 0.06238 0.53104 0.86836 0.0
C90 C 0.02161 0.53606 0.85769 0.0
N91 N 0.10005 0.53649 0.85011 0.0
C92 C 0.14337 0.53356 0.85672 0.0
H93 H 0.10184 0.65518 0.40542 0.0
H94 H 0.98181 0.51933 0.4355 0.0
H95 H 0.06884 0.65061 0.49107 0.0
C96 C 0.07856 0.6352 0.42201 0.0
C97 C 0.08954 0.65956 0.44858 0.0
C98 C 0.0388 0.58519 0.41663 0.0
C99 C 1.01232 0.55797 0.43905 0.0
C100 C 0.02411 0.58167 0.46603 0.0
C101 C 0.06141 0.63251 0.47038 0.0
N102 N 0.99863 0.55625 0.48931 0.0
C103 C 0.97556 0.50446 0.49149 0.0
H104 H 0.57869 0.12715 0.75343 0.0
H105 H 0.67747 0.06604 0.76205 0.0
H106 H 0.65507 0.13994 0.83264 0.0
C107 C 0.60325 0.11916 0.76635 0.0
C108 C 0.61319 0.13579 0.79458 0.0
C109 C 0.62684 0.09464 0.75433 0.0
C110 C 0.65946 0.08534 0.77106 0.0
C111 C 0.6694 0.10159 0.79934 0.0
C112 C 0.64707 0.12754 0.8108 0.0
N113 N 0.70186 0.09242 0.8167 0.0
C114 C 0.70211 0.04731 0.81442 0.0
H115 H 0.65238 0.55202 0.0968 0.0
H116 H 0.49126 0.48245 0.0919 0.0
H117 H 0.57225 0.51951 0.17154 0.0
C118 C 0.61788 0.53861 0.1073 0.0
C119 C 0.61905 0.53899 0.1365 0.0
C120 C 0.57215 0.51922 0.09113 0.0
C121 C 0.52666 0.49799 0.10427 0.0
C122 C 0.52715 0.49748 0.13336 0.0
C123 C 0.57306 0.5189 0.14917 0.0
N124 N 0.48235 0.47524 0.14765 0.0
C125 C 0.43439 0.45704 0.13522 0.0
H126 H 0.15458 0.38894 0.17741 0.0
H127 H 0.14805 0.43979 0.09597 0.0
H128 H 0.22813 0.38324 0.16636 0.0
H129 H 0.22225 0.43403 0.08471 0.0
H130 H 0.39932 0.51004 0.10887 0.0
H131 H 0.31116 0.48886 0.10406 0.0
H132 H 0.26589 0.34453 0.13768 0.0
H133 H 0.35441 0.3665 0.1428 0.0
C134 C 0.16821 0.39763 0.15685 0.0
C135 C 0.14619 0.4153 0.13764 0.0
C136 C 0.21013 0.394 0.15041 0.0
C137 C 0.23111 0.40841 0.12468 0.0
C138 C 0.207 0.42298 0.10474 0.0
C139 C 0.16455 0.4261 0.11113 0.0
C140 C 0.37017 0.4732 0.11432 0.0
C141 C 0.3829 0.43983 0.12627 0.0
C142 C 0.31976 0.46089 0.11146 0.0
C143 C 0.28167 0.41518 0.12074 0.0
C144 C 0.29452 0.38019 0.13062 0.0
C145 C 0.34494 0.39257 0.13345 0.0
H146 H 0.76566 0.23672 0.56034 0.0
H147 H 0.81311 0.17761 0.49289 0.0
H148 H 0.83471 0.32138 0.55408 0.0
H149 H 0.88272 0.2625 0.48671 0.0
H150 H 0.92566 0.42239 0.45553 0.0
H151 H 0.87829 0.33422 0.46759 0.0
H152 H 0.92517 0.38203 0.55422 0.0
H153 H 0.9718 0.47004 0.54195 0.0
C154 C 0.79204 0.24159 0.54487 0.0
C155 C 0.78375 0.20077 0.52691 0.0
C156 C 0.83165 0.29015 0.54123 0.0
C157 C 0.8636 0.29876 0.51952 0.0
C158 C 0.8581 0.25712 0.50327 0.0
C159 C 0.81861 0.20845 0.50703 0.0
C160 C 0.92624 0.41365 0.47703 0.0
C161 C 0.95176 0.45232 0.4979 0.0
C162 C 0.89958 0.36333 0.48397 0.0
C163 C 0.898 0.35115 0.51191 0.0
C164 C 0.92535 0.3902 0.53258 0.0
C165 C 0.95203 0.44041 0.5256 0.0
H166 H 0.60006 0.73133 0.78333 0.0
H167 H 0.70067 0.77518 0.85707 0.0
H168 H 0.6222 0.81928 0.77933 0.0
H169 H 0.72407 0.86305 0.85269 0.0
H170 H 0.69546 0.99596 0.85903 0.0
H171 H 0.68276 0.91085 0.85982 0.0
H172 H 0.68754 0.90423 0.77048 0.0
H173 H 0.69899 0.98944 0.76994 0.0
C174 C 0.62752 0.75996 0.79839 0.0
C175 C 0.6483 0.74659 0.82066 0.0
C176 C 0.64044 0.81033 0.79604 0.0
C177 C 0.67454 0.84816 0.81586 0.0
C178 C 0.6969 0.83475 0.83741 0.0
C179 C 0.68374 0.78448 0.83984 0.0
C180 C 0.69427 0.97629 0.83966 0.0
C181 C 0.69839 0.99869 0.81448 0.0
C182 C 0.68729 0.92775 0.84006 0.0
C183 C 0.68441 0.90076 0.81521 0.0
C184 C 0.6892 0.92382 0.78994 0.0
C185 C 0.69609 0.97253 0.7896 0.0
H186 H 0.84462 0.50108 0.21425 0.0
H187 H 0.93442 0.64915 0.18405 0.0
H188 H 0.76998 0.50729 0.20755 0.0
H189 H 0.85975 0.65791 0.17941 0.0
H190 H 0.71505 0.61221 0.12489 0.0
H191 H 0.79382 0.62885 0.14736 0.0
H192 H 0.71333 0.53189 0.21227 0.0
H193 H 0.63459 0.50894 0.18751 0.0
C194 C 0.84865 0.53605 0.20728 0.0
C195 C 0.89493 0.57408 0.19897 0.0
C196 C 0.80556 0.53996 0.20357 0.0
C197 C 0.80796 0.58269 0.1921 0.0
C198 C 0.85579 0.62353 0.18719 0.0
C199 C 0.89884 0.61895 0.19023 0.0
C200 C 0.71384 0.59351 0.14365 0.0
C201 C 0.66765 0.55745 0.15347 0.0
C202 C 0.75957 0.60428 0.15714 0.0
C203 C 0.76055 0.58072 0.18147 0.0
C204 C 0.71449 0.54925 0.193 0.0
C205 C 0.66878 0.53683 0.17891 0.0
H206 H 0.37341 0.92 0.4295 0.0
H207 H 0.34094 0.95257 0.51132 0.0
H208 H 0.28733 0.84845 0.42221 0.0
H209 H 0.25518 0.88071 0.50413 0.0
H210 H 0.1575 0.70181 0.49375 0.0
H211 H 0.23071 0.78641 0.49983 0.0
H212 H 0.19194 0.82172 0.42014 0.0
H213 H 0.11712 0.73767 0.4144 0.0
C214 C 0.34747 0.9126 0.4456 0.0
C215 C 0.36377 0.94136 0.47104 0.0
C216 C 0.29827 0.87181 0.44142 0.0
C217 C 0.26499 0.85892 0.46276 0.0
C218 C 0.28037 0.88971 0.48749 0.0
C219 C 0.32929 0.93088 0.49152 0.0
C220 C 0.16359 0.7279 0.47783 0.0
C221 C 0.13154 0.71263 0.45347 0.0
C222 C 0.20563 0.77636 0.48131 0.0
C223 C 0.21688 0.81039 0.4604 0.0
C224 C 0.18418 0.79594 0.43645 0.0
C225 C 0.14164 0.74771 0.43313 0.0
H226 H 0.5483 0.34923 0.88072 0.0
H227 H 0.46807 0.30938 0.79998 0.0
H228 H 0.56429 0.2792 0.87438 0.0
H229 H 0.48522 0.2406 0.79318 0.0
H230 H 0.51473 0.1123 0.78768 0.0
H231 H 0.47774 0.1618 0.80454 0.0
H232 H 0.62194 0.27144 0.84529 0.0
H233 H 0.65837 0.22167 0.82883 0.0
C234 C 0.53294 0.32465 0.86194 0.0
C235 C 0.50754 0.33501 0.84068 0.0
C236 C 0.54252 0.28487 0.85817 0.0
C237 C 0.52705 0.25496 0.83302 0.0
C238 C 0.49759 0.26265 0.81286 0.0
C239 C 0.48783 0.30223 0.8167 0.0
C240 C 0.5383 0.14682 0.80043 0.0
C241 C 0.58954 0.16336 0.80675 0.0
C242 C 0.51713 0.1751 0.81013 0.0
C243 C 0.54683 0.22068 0.82623 0.0
C244 C 0.59761 0.23609 0.8334 0.0
C245 C 0.61867 0.20769 0.82383 0.0
H246 H 0.50233 0.87209 0.48554 0.0
H247 H 0.65266 0.95044 0.52556 0.0
H248 H 0.49919 0.79186 0.4901 0.0
H249 H 0.65 0.86992 0.52952 0.0
H250 H 0.61166 0.71124 0.55476 0.0
H251 H 0.61374 0.79224 0.55247 0.0
H252 H 0.53139 0.74176 0.47218 0.0
H253 H 0.52859 0.66105 0.47504 0.0
C254 C 0.535 0.87241 0.49516 0.0
C255 C 0.57787 0.91824 0.50505 0.0
C256 C 0.53327 0.82609 0.49767 0.0
C257 C 0.5744 0.82385 0.51011 0.0
C258 C 0.61726 0.8697 0.52012 0.0
C259 C 0.61896 0.91614 0.51763 0.0
C260 C 0.59373 0.7176 0.5368 0.0
C261 C 0.56963 0.67988 0.51517 0.0
C262 C 0.59523 0.76416 0.53531 0.0
C263 C 0.57267 0.77404 0.51212 0.0
C264 C 0.54845 0.7357 0.4906 0.0
C265 C 0.54698 0.68936 0.49214 0.0
H266 H 0.75863 0.62441 0.83823 0.0
H267 H 0.67775 0.46143 0.83214 0.0
H268 H 0.83831 0.62481 0.8452 0.0
H269 H 0.75735 0.46194 0.8388 0.0
H270 H 0.91582 0.48248 0.83002 0.0
H271 H 0.83966 0.48634 0.81684 0.0
H272 H 0.87859 0.60003 0.88336 0.0
H273 H 0.95398 0.59566 0.8966 0.0
C274 C 0.75779 0.58865 0.83799 0.0
C275 C 0.71151 0.5429 0.83464 0.0
C276 C 0.80354 0.58889 0.84215 0.0
C277 C 0.80444 0.5434 0.84261 0.0
C278 C 0.75829 0.4977 0.83834 0.0
C279 C 0.71251 0.49744 0.83465 0.0
C280 C 0.90844 0.50883 0.8415 0.0
C281 C 0.94102 0.53877 0.86434 0.0
C282 C 0.86459 0.51077 0.83412 0.0
C283 C 0.85277 0.54345 0.84906 0.0
C284 C 0.88653 0.57474 0.87122 0.0
C285 C 0.92971 0.57211 0.87888 0.0
H286 H 0.1305 0.68627 0.17984 0.0
H287 H 0.20902 0.60274 0.17329 0.0
H288 H 0.21134 0.76518 0.18606 0.0
H289 H 0.28966 0.6816 0.17956 0.0
H290 H 0.41821 0.82627 0.22778 0.0
H291 H 0.33881 0.74732 0.21738 0.0
H292 H 0.2884 0.82223 0.16145 0.0
H293 H 0.36825 0.90161 0.17198 0.0
C294 C 0.1649 0.6846 0.17963 0.0
C295 C 0.16287 0.63777 0.17613 0.0
C296 C 0.21138 0.73003 0.18301 0.0
C297 C 0.25725 0.72998 0.18338 0.0
C298 C 0.25521 0.6832 0.17966 0.0
C299 C 0.20879 0.63786 0.17592 0.0
C300 C 0.39034 0.8259 0.21313 0.0
C301 C 0.3997 0.87045 0.20078 0.0
C302 C 0.34483 0.78046 0.20702 0.0
C303 C 0.30689 0.77819 0.18862 0.0
C304 C 0.3165 0.82259 0.17591 0.0
C305 C 0.36248 0.86801 0.18173 0.0
H306 H 0.49325 0.16547 0.49575 0.0
H307 H 0.65565 0.24552 0.50866 0.0
H308 H 0.49388 0.24523 0.50313 0.0
H309 H 0.65622 0.32466 0.51555 0.0
H310 H 0.63524 0.44449 0.56231 0.0
H311 H 0.6342 0.36624 0.55042 0.0
H312 H 0.5174 0.32804 0.48561 0.0
H313 H 0.51763 0.40646 0.49813 0.0
C314 C 0.52914 0.19998 0.49982 0.0
C315 C 0.57434 0.19855 0.50176 0.0
C316 C 0.52952 0.24591 0.50396 0.0
C317 C 0.57508 0.29171 0.51026 0.0
C318 C 0.62026 0.2903 0.51132 0.0
C319 C 0.61991 0.24461 0.50716 0.0
C320 C 0.60922 0.41949 0.54551 0.0
C321 C 0.57633 0.43196 0.53132 0.0
C322 C 0.60895 0.37461 0.53847 0.0
C323 C 0.57575 0.3404 0.51697 0.0
C324 C 0.54321 0.35307 0.50245 0.0
C325 C 0.54372 0.39838 0.50942 0.0
H326 H 0.38365 0.45754 0.85778 0.0
H327 H 0.45271 0.61151 0.83423 0.0
H328 H 0.30487 0.45687 0.86377 0.0
H329 H 0.37355 0.61051 0.83962 0.0
H330 H 0.23694 0.60985 0.87409 0.0
H331 H 0.31679 0.61024 0.87202 0.0
H332 H 0.23534 0.455 0.83891 0.0
H333 H 0.15582 0.45483 0.84169 0.0
C334 C 0.38211 0.4913 0.85376 0.0
C335 C 0.42493 0.53458 0.84547 0.0
C336 C 0.33659 0.49082 0.85708 0.0
C337 C 0.33226 0.53361 0.8522 0.0
C338 C 0.37524 0.57699 0.84402 0.0
C339 C 0.42078 0.57746 0.84071 0.0
C340 C 0.23626 0.57565 0.86682 0.0
C341 C 0.19024 0.53214 0.85837 0.0
C342 C 0.28209 0.57595 0.8653 0.0
C343 C 0.28308 0.53272 0.85514 0.0
C344 C 0.2365 0.48888 0.8472 0.0
C345 C 0.19076 0.48868 0.84874 0.0
H346 H 0.90632 0.3041 0.15223 0.0
H347 H 0.84282 0.38871 0.18869 0.0
H348 H 0.82668 0.22568 0.15637 0.0
H349 H 0.76428 0.31085 0.19341 0.0
H350 H 0.61182 0.1678 0.17189 0.0
H351 H 0.69193 0.24568 0.16802 0.0
H352 H 0.77224 0.16743 0.18828 0.0
H353 H 0.69148 0.08924 0.19146 0.0
C354 C 0.87555 0.30613 0.16115 0.0
C355 C 0.88138 0.35317 0.16996 0.0
C356 C 0.82981 0.26096 0.16375 0.0
C357 C 0.78848 0.26143 0.17522 0.0
C358 C 0.79456 0.30856 0.18404 0.0
C359 C 0.84007 0.35352 0.18143 0.0
C360 C 0.64669 0.16753 0.1758 0.0
C361 C 0.64553 0.12274 0.18226 0.0
C362 C 0.69279 0.21224 0.17365 0.0
C363 C 0.73915 0.2134 0.17785 0.0
C364 C 0.73764 0.16823 0.18454 0.0
C365 C 0.69138 0.12346 0.18668 0.0
H366 H 0.93179 0.49612 0.07543 0.0
H367 H 0.07038 0.49629 0.0943 0.0
H368 H 0.94238 0.49105 0.02605 0.0
H369 H 0.08124 0.49094 0.04431 0.0
H370 H 0.10404 0.56009 0.9542 0.0
H371 H 0.09812 0.5493 0.00428 0.0
H372 H 0.94225 0.43223 0.98945 0.0
H373 H 0.94814 0.44309 0.93978 0.0
C374 C 0.96418 0.49417 0.06893 0.0
C375 C 0.99987 0.49582 0.08865 0.0
C376 C 0.97017 0.49105 0.04061 0.0
C377 C 1.01247 0.49018 0.0312 0.0
C378 C 0.0482 0.49141 0.05094 0.0
C379 C 0.04172 0.49382 0.07949 0.0
C380 C 0.06897 0.53124 0.96166 0.0
C381 C 0.02629 0.50308 0.94315 0.0
C382 C 0.06556 0.52502 0.99031 0.0
C383 C 1.01945 0.49049 0.00086 0.0
C384 C 0.97801 0.45985 0.98205 0.0
C385 C 0.98139 0.46606 0.95359 0.0
H386 H 0.65674 0.05787 0.40968 0.0
H387 H 0.51439 0.0472 0.42523 0.0
H388 H 0.62971 0.03452 0.36049 0.0
H389 H 0.48779 0.02514 0.37541 0.0
H390 H 0.51504 0.06118 0.27686 0.0
H391 H 0.53506 0.08083 0.32722 0.0
H392 H 0.54614 0.94674 0.33394 0.0
H393 H 0.52466 0.92631 0.28389 0.0
C394 C 0.61961 0.05048 0.40253 0.0
C395 C 0.58747 0.05401 0.4212 0.0
C396 C 0.60421 0.0371 0.37444 0.0
C397 C 0.55683 0.02818 0.36429 0.0
C398 C 0.52459 0.03199 0.38285 0.0
C399 C 0.53959 0.04423 0.41125 0.0
C400 C 0.52174 0.03602 0.2892 0.0
C401 C 0.5186 0.99241 0.27663 0.0
C402 C 0.5327 0.04698 0.3179 0.0
C403 C 0.54176 0.01506 0.33431 0.0
C404 C 0.53907 0.97174 0.32168 0.0
C405 C 0.52697 0.96018 0.29314 0.0
H406 H 0.47197 0.48745 0.74206 0.0
H407 H 0.63253 0.58251 0.75994 0.0
H408 H 0.4827 0.50061 0.69274 0.0
H409 H 0.64341 0.59583 0.7104 0.0
H410 H 0.63946 0.53358 0.61939 0.0
H411 H 0.63434 0.53949 0.66952 0.0
H412 H 0.50817 0.56376 0.6569 0.0
H413 H 0.51308 0.55731 0.60654 0.0
C414 C 0.50951 0.51175 0.73545 0.0
C415 C 0.55146 0.53357 0.75479 0.0
C416 C 0.51564 0.51957 0.7072 0.0
C417 C 0.56394 0.5491 0.6976 0.0
C418 C 0.60576 0.57248 0.71712 0.0
C419 C 0.59954 0.56504 0.74547 0.0
C420 C 0.611 0.54076 0.62734 0.0
C421 C 0.5764 0.54457 0.60905 0.0
C422 C 0.60832 0.54457 0.65607 0.0
C423 C 0.57069 0.55186 0.66722 0.0
C424 C 0.53731 0.55769 0.64894 0.0
C425 C 0.54035 0.5544 0.62014 0.0
H426 H 0.51297 0.96292 0.58617 0.0
H427 H 0.63238 0.11533 0.57651 0.0
H428 H 0.53343 0.97461 0.63615 0.0
H429 H 0.65312 0.12704 0.62674 0.0
H430 H 0.69789 0.11315 0.71714 0.0
H431 H 0.6844 0.09547 0.66668 0.0
H432 H 0.5238 0.02807 0.67309 0.0
H433 H 0.53726 0.04541 0.72336 0.0
C434 C 0.54399 0.99878 0.59472 0.0
C435 C 0.5709 0.03838 0.57752 0.0
C436 C 0.55556 1.00548 0.62334 0.0
C437 C 0.59454 0.05185 0.63535 0.0
C438 C 0.62306 0.09078 0.618 0.0
C439 C 0.6112 0.08415 0.5893 0.0
C440 C 0.65971 0.09393 0.70773 0.0
C441 C 0.61858 0.08062 0.7241 0.0
C442 C 0.65206 0.08424 0.67889 0.0
C443 C 0.60309 0.06043 0.66599 0.0
C444 C 0.56194 0.04605 0.68248 0.0
C445 C 0.56962 0.05625 0.71121 0.0
H446 H 0.66861 0.58864 0.92488 0.0
H447 H 0.50664 0.49911 0.9114 0.0
H448 H 0.66229 0.57482 0.97417 0.0
H449 H 0.49989 0.48659 0.96116 0.0
H450 H 0.51263 0.44457 0.05099 0.0
H451 H 0.51654 0.44902 0.00058 0.0
H452 H 0.63578 0.60492 0.01225 0.0
H453 H 0.63246 0.59997 0.06227 0.0
C454 C 0.63161 0.56586 0.93253 0.0
C455 C 0.5881 0.54542 0.91446 0.0
C456 C 0.6279 0.55823 0.96081 0.0
C457 C 0.58051 0.53045 0.97177 0.0
C458 C 0.53698 0.50806 0.95343 0.0
C459 C 0.54078 0.51533 0.92496 0.0
C460 C 0.53944 0.47976 0.04266 0.0
C461 C 0.57257 0.5218 0.06052 0.0
C462 C 0.54168 0.48236 0.01382 0.0
C463 C 0.57691 0.52713 0.00233 0.0
C464 C 0.60913 0.56939 0.02032 0.0
C465 C 0.60712 0.56668 0.04902 0.0
H466 H 0.03515 0.42972 0.26223 0.0
H467 H 1.00163 0.54331 0.23611 0.0
H468 H 0.03026 0.45148 0.31045 0.0
H469 H 0.98993 0.56081 0.28359 0.0
H470 H 0.0417 0.63323 0.36968 0.0
H471 H 0.03421 0.6032 0.32232 0.0
H472 H 0.99105 0.45413 0.34873 0.0
H473 H 1.00515 0.48669 0.39697 0.0
C474 C 0.02524 0.45839 0.26682 0.0
C475 C 1.01877 0.4849 0.24547 0.0
C476 C 0.02182 0.47061 0.29454 0.0
C477 C 1.01025 0.50858 0.30146 0.0
C478 C 1.00076 0.53271 0.27962 0.0
C479 C 1.00636 0.52199 0.25212 0.0
C480 C 0.03148 0.59418 0.36557 0.0
C481 C 0.02576 0.56298 0.3874 0.0
C482 C 0.02583 0.57633 0.33802 0.0
C483 C 1.01207 0.52587 0.33112 0.0
C484 C 1.00298 0.49356 0.35295 0.0
C485 C 1.01021 0.51201 0.38076 0.0
loop_
_geom_bond_atom_site_label_1
_geom_bond_atom_site_label_2
_geom_bond_distance
_geom_bond_site_symmetry_2
_ccdc_geom_bond_type
Dy0 O4 2.398 . S
Dy0 O5 2.491 . S
Dy0 O6 2.403 . S
Dy0 O7 2.664 . S
Dy0 O11 2.326 . S
Dy0 O15 2.310 . S
Dy0 O16 2.351 1_455 S
C1 O12 1.185 . S
C1 O13 1.355 . S
C2 O4 1.185 . S
C2 O5 1.355 . S
Dy3 O7 2.310 1_655 S
Dy3 O10 2.351 1_655 S
Dy3 O12 2.398 . S
Dy3 O13 2.491 . S
Dy3 O14 2.403 1_655 S
Dy3 O15 2.664 1_655 S
Dy3 O17 2.326 . S
O4 Dy0 2.398 . S
O4 C2 1.185 . S
O5 Dy0 2.491 . S
O5 C2 1.355 . S
O6 Dy0 2.403 . S
O6 C8 1.254 . S
O7 Dy0 2.664 . S
O7 Dy3 2.310 1_455 S
O7 C8 1.268 . S
C8 O6 1.254 . S
C8 O7 1.268 . S
C9 O14 1.254 . S
C9 O15 1.268 . S
O10 Dy3 2.351 1_455 S
O10 C18 1.249 . S
O11 Dy0 2.326 . S
O11 C18 1.267 . S
O12 C1 1.185 . S
O12 Dy3 2.398 . S
O13 C1 1.355 . S
O13 Dy3 2.491 . S
O14 Dy3 2.403 1_455 S
O14 C9 1.254 . S
O15 Dy0 2.310 . S
O15 Dy3 2.664 1_455 S
O15 C9 1.268 . S
O16 Dy0 2.351 1_655 S
O16 C19 1.249 . S
O17 Dy3 2.326 . S
O17 C19 1.267 . S
C18 O10 1.249 . S
C18 O11 1.267 . S
C19 O16 1.249 . S
C19 O17 1.267 . S
Dy20 O24 2.398 . S
Dy20 O25 2.491 . S
Dy20 O26 2.403 . S
Dy20 O27 2.664 1_565 S
Dy20 O31 2.326 . S
Dy20 O35 2.310 1_565 S
Dy20 O36 2.351 1_565 S
C21 O32 1.185 . S
C21 O33 1.355 . S
C22 O24 1.185 . S
C22 O25 1.355 . S
Dy23 O27 2.310 . S
Dy23 O30 2.351 1_545 S
Dy23 O32 2.398 . S
Dy23 O33 2.491 . S
Dy23 O34 2.403 . S
Dy23 O35 2.664 . S
Dy23 O37 2.326 . S
O24 Dy20 2.398 . S
O24 C22 1.185 . S
O25 Dy20 2.491 . S
O25 C22 1.355 . S
O26 Dy20 2.403 . S
O26 C28 1.254 1_565 S
O27 Dy20 2.664 1_545 S
O27 Dy23 2.310 . S
O27 C28 1.268 . S
C28 O26 1.254 1_545 S
C28 O27 1.268 . S
C29 O34 1.254 . S
C29 O35 1.268 . S
O30 Dy23 2.351 1_565 S
O30 C38 1.249 . S
O31 Dy20 2.326 . S
O31 C38 1.267 . S
O32 C21 1.185 . S
O32 Dy23 2.398 . S
O33 C21 1.355 . S
O33 Dy23 2.491 . S
O34 Dy23 2.403 . S
O34 C29 1.254 . S
O35 Dy20 2.310 1_545 S
O35 Dy23 2.664 . S
O35 C29 1.268 . S
O36 Dy20 2.351 1_545 S
O36 C39 1.249 . S
O37 Dy23 2.326 . S
O37 C39 1.267 . S
C38 O30 1.249 . S
C38 O31 1.267 . S
C39 O36 1.249 . S
C39 O37 1.267 . S
Dy40 O44 2.398 . S
Dy40 O45 2.491 . S
Dy40 O46 2.403 . S
Dy40 O47 2.664 . S
Dy40 O51 2.326 . S
Dy40 O55 2.310 . S
Dy40 O56 2.351 . S
C41 O52 1.185 . S
C41 O53 1.355 . S
C42 O44 1.185 . S
C42 O45 1.355 . S
Dy43 O47 2.310 . S
Dy43 O50 2.351 . S
Dy43 O52 2.398 . S
Dy43 O53 2.491 . S
Dy43 O54 2.403 . S
Dy43 O55 2.664 . S
Dy43 O57 2.326 . S
O44 Dy40 2.398 . S
O44 C42 1.185 . S
O45 Dy40 2.491 . S
O45 C42 1.355 . S
O46 Dy40 2.403 . S
O46 C48 1.254 . S
O47 Dy40 2.664 . S
O47 Dy43 2.310 . S
O47 C48 1.268 . S
C48 O46 1.254 . S
C48 O47 1.268 . S
C49 O54 1.254 . S
C49 O55 1.268 . S
O50 Dy43 2.351 . S
O50 C58 1.249 . S
O51 Dy40 2.326 . S
O51 C58 1.267 . S
O52 C41 1.185 . S
O52 Dy43 2.398 . S
O53 C41 1.355 . S
O53 Dy43 2.491 . S
O54 Dy43 2.403 . S
O54 C49 1.254 . S
O55 Dy40 2.310 . S
O55 Dy43 2.664 . S
O55 C49 1.268 . S
O56 Dy40 2.351 . S
O56 C59 1.249 . S
O57 Dy43 2.326 . S
O57 C59 1.267 . S
C58 O50 1.249 . S
C58 O51 1.267 . S
C59 O56 1.249 . S
C59 O57 1.267 . S
H60 C63 0.929 . S
H61 C66 0.929 . S
H62 C68 0.930 . S
C63 H60 0.929 . S
C63 C64 1.398 . S
C63 C65 1.396 1_565 S
C64 C63 1.398 . S
C64 C68 1.407 . S
C65 C63 1.396 1_545 S
C65 C66 1.394 . S
C66 H61 0.929 . S
C66 C65 1.394 . S
C66 C67 1.382 . S
C67 C66 1.382 . S
C67 C68 1.392 1_545 S
C67 N69 1.420 . S
C68 H62 0.930 . S
C68 C64 1.407 . S
C68 C67 1.392 1_565 S
N69 C67 1.420 . S
N69 C70 1.244 . S
C70 N69 1.244 . S
H71 C74 0.929 . S
H72 C77 0.929 . S
H73 C79 0.930 . S
C74 H71 0.929 . S
C74 C75 1.398 . S
C74 C76 1.396 . S
C75 C74 1.398 . S
C75 C79 1.407 . S
C76 C74 1.396 . S
C76 C77 1.394 . S
C77 H72 0.929 . S
C77 C76 1.394 . S
C77 C78 1.382 . S
C78 C77 1.382 . S
C78 C79 1.392 . S
C78 N80 1.420 . S
C79 H73 0.930 . S
C79 C75 1.407 . S
C79 C78 1.392 . S
N80 C78 1.420 . S
N80 C81 1.244 . S
C81 N80 1.244 . S
H82 C85 0.929 1_655 S
H83 C88 0.929 . S
H84 C90 0.930 . S
C85 H82 0.929 1_455 S
C85 C86 1.398 . S
C85 C87 1.396 . S
C86 C85 1.398 . S
C86 C90 1.407 . S
C87 C85 1.396 . S
C87 C88 1.394 . S
C88 H83 0.929 . S
C88 C87 1.394 . S
C88 C89 1.382 . S
C89 C88 1.382 . S
C89 C90 1.392 . S
C89 N91 1.420 . S
C90 H84 0.930 . S
C90 C86 1.407 . S
C90 C89 1.392 . S
N91 C89 1.420 . S
N91 C92 1.244 . S
C92 N91 1.244 . S
H93 C96 0.929 . S
H94 C99 0.929 . S
H95 C101 0.930 . S
C96 H93 0.929 . S
C96 C97 1.398 . S
C96 C98 1.396 . S
C97 C96 1.398 . S
C97 C101 1.407 . S
C98 C96 1.396 . S
C98 C99 1.394 1_455 S
C99 H94 0.929 . S
C99 C98 1.394 1_655 S
C99 C100 1.382 . S
C100 C99 1.382 . S
C100 C101 1.392 1_655 S
C100 N102 1.420 . S
C101 H95 0.930 . S
C101 C97 1.407 . S
C101 C100 1.392 1_455 S
N102 C100 1.420 . S
N102 C103 1.244 . S
C103 N102 1.244 . S
H104 C107 0.929 . S
H105 C110 0.929 1_565 S
H106 C112 0.930 . S
C107 H104 0.929 . S
C107 C108 1.398 . S
C107 C109 1.396 . S
C108 C107 1.398 . S
C108 C112 1.407 . S
C109 C107 1.396 . S
C109 C110 1.394 . S
C110 H105 0.929 1_545 S
C110 C109 1.394 . S
C110 C111 1.382 . S
C111 C110 1.382 . S
C111 C112 1.392 . S
C111 N113 1.420 1_545 S
C112 H106 0.930 . S
C112 C108 1.407 . S
C112 C111 1.392 . S
N113 C111 1.420 1_565 S
N113 C114 1.244 . S
C114 N113 1.244 . S
H115 C118 0.929 . S
H116 C121 0.929 . S
H117 C123 0.930 . S
C118 H115 0.929 . S
C118 C119 1.398 . S
C118 C120 1.396 . S
C119 C118 1.398 . S
C119 C123 1.407 . S
C120 C118 1.396 . S
C120 C121 1.394 . S
C121 H116 0.929 . S
C121 C120 1.394 . S
C121 C122 1.382 . S
C122 C121 1.382 . S
C122 C123 1.392 . S
C122 N124 1.420 . S
C123 H117 0.930 . S
C123 C119 1.407 . S
C123 C122 1.392 . S
N124 C122 1.420 . S
N124 C125 1.244 . S
C125 N124 1.244 . S
H126 C134 0.950 . S
H127 C139 0.950 . S
H128 C136 0.950 . S
H129 C138 0.950 . S
H130 C140 0.950 . S
H131 C142 0.950 . S
H132 C144 0.950 . S
H133 C145 0.950 . S
C134 H126 0.950 . S
C134 C135 1.386 . S
C134 C136 1.391 . S
C135 C134 1.386 . S
C135 C139 1.393 . S
C136 H128 0.950 . S
C136 C134 1.391 . S
C136 C137 1.400 . S
C137 C136 1.400 . S
C137 C138 1.398 . S
C137 C143 1.491 . S
C138 H129 0.950 . S
C138 C137 1.398 . S
C138 C139 1.391 . S
C139 H127 0.950 . S
C139 C135 1.393 . S
C139 C138 1.391 . S
C140 H130 0.950 . S
C140 C141 1.386 . S
C140 C142 1.391 . S
C141 C140 1.386 . S
C141 C145 1.393 . S
C142 H131 0.950 . S
C142 C140 1.391 . S
C142 C143 1.400 . S
C143 C137 1.491 . S
C143 C142 1.400 . S
C143 C144 1.398 . S
C144 H132 0.950 . S
C144 C143 1.398 . S
C144 C145 1.391 . S
C145 H133 0.950 . S
C145 C141 1.393 . S
C145 C144 1.391 . S
H146 C154 0.950 . S
H147 C159 0.950 . S
H148 C156 0.950 . S
H149 C158 0.950 . S
H150 C160 0.950 . S
H151 C162 0.950 . S
H152 C164 0.950 . S
H153 C165 0.950 . S
C154 H146 0.950 . S
C154 C155 1.386 . S
C154 C156 1.391 . S
C155 C154 1.386 . S
C155 C159 1.393 . S
C156 H148 0.950 . S
C156 C154 1.391 . S
C156 C157 1.400 . S
C157 C156 1.400 . S
C157 C158 1.398 . S
C157 C163 1.491 . S
C158 H149 0.950 . S
C158 C157 1.398 . S
C158 C159 1.391 . S
C159 H147 0.950 . S
C159 C155 1.393 . S
C159 C158 1.391 . S
C160 H150 0.950 . S
C160 C161 1.386 . S
C160 C162 1.391 . S
C161 C160 1.386 . S
C161 C165 1.393 . S
C162 H151 0.950 . S
C162 C160 1.391 . S
C162 C163 1.400 . S
C163 C157 1.491 . S
C163 C162 1.400 . S
C163 C164 1.398 . S
C164 H152 0.950 . S
C164 C163 1.398 . S
C164 C165 1.391 . S
C165 H153 0.950 . S
C165 C161 1.393 . S
C165 C164 1.391 . S
H166 C174 0.950 . S
H167 C179 0.950 . S
H168 C176 0.950 . S
H169 C178 0.950 . S
H170 C180 0.950 . S
H171 C182 0.950 . S
H172 C184 0.950 . S
H173 C185 0.950 . S
C174 H166 0.950 . S
C174 C175 1.386 . S
C174 C176 1.391 . S
C175 C174 1.386 . S
C175 C179 1.393 . S
C176 H168 0.950 . S
C176 C174 1.391 . S
C176 C177 1.400 . S
C177 C176 1.400 . S
C177 C178 1.398 . S
C177 C183 1.491 . S
C178 H169 0.950 . S
C178 C177 1.398 . S
C178 C179 1.391 . S
C179 H167 0.950 . S
C179 C175 1.393 . S
C179 C178 1.391 . S
C180 H170 0.950 . S
C180 C181 1.386 . S
C180 C182 1.391 . S
C181 C180 1.386 . S
C181 C185 1.393 . S
C182 H171 0.950 . S
C182 C180 1.391 . S
C182 C183 1.400 . S
C183 C177 1.491 . S
C183 C182 1.400 . S
C183 C184 1.398 . S
C184 H172 0.950 . S
C184 C183 1.398 . S
C184 C185 1.391 . S
C185 H173 0.950 . S
C185 C181 1.393 . S
C185 C184 1.391 . S
H186 C194 0.950 . S
H187 C199 0.950 . S
H188 C196 0.950 . S
H189 C198 0.950 . S
H190 C200 0.950 . S
H191 C202 0.950 . S
H192 C204 0.950 . S
H193 C205 0.950 . S
C194 H186 0.950 . S
C194 C195 1.386 . S
C194 C196 1.391 . S
C195 C194 1.386 . S
C195 C199 1.393 . S
C196 H188 0.950 . S
C196 C194 1.391 . S
C196 C197 1.400 . S
C197 C196 1.400 . S
C197 C198 1.398 . S
C197 C203 1.491 . S
C198 H189 0.950 . S
C198 C197 1.398 . S
C198 C199 1.391 . S
C199 H187 0.950 . S
C199 C195 1.393 . S
C199 C198 1.391 . S
C200 H190 0.950 . S
C200 C201 1.386 . S
C200 C202 1.391 . S
C201 C200 1.386 . S
C201 C205 1.393 . S
C202 H191 0.950 . S
C202 C200 1.391 . S
C202 C203 1.400 . S
C203 C197 1.491 . S
C203 C202 1.400 . S
C203 C204 1.398 . S
C204 H192 0.950 . S
C204 C203 1.398 . S
C204 C205 1.391 . S
C205 H193 0.950 . S
C205 C201 1.393 . S
C205 C204 1.391 . S
H206 C214 0.950 . S
H207 C219 0.950 . S
H208 C216 0.950 . S
H209 C218 0.950 . S
H210 C220 0.950 . S
H211 C222 0.950 . S
H212 C224 0.950 . S
H213 C225 0.950 . S
C214 H206 0.950 . S
C214 C215 1.386 . S
C214 C216 1.391 . S
C215 C214 1.386 . S
C215 C219 1.393 . S
C216 H208 0.950 . S
C216 C214 1.391 . S
C216 C217 1.400 . S
C217 C216 1.400 . S
C217 C218 1.398 . S
C217 C223 1.491 . S
C218 H209 0.950 . S
C218 C217 1.398 . S
C218 C219 1.391 . S
C219 H207 0.950 . S
C219 C215 1.393 . S
C219 C218 1.391 . S
C220 H210 0.950 . S
C220 C221 1.386 . S
C220 C222 1.391 . S
C221 C220 1.386 . S
C221 C225 1.393 . S
C222 H211 0.950 . S
C222 C220 1.391 . S
C222 C223 1.400 . S
C223 C217 1.491 . S
C223 C222 1.400 . S
C223 C224 1.398 . S
C224 H212 0.950 . S
C224 C223 1.398 . S
C224 C225 1.391 . S
C225 H213 0.950 . S
C225 C221 1.393 . S
C225 C224 1.391 . S
H226 C234 0.950 . S
H227 C239 0.950 . S
H228 C236 0.950 . S
H229 C238 0.950 . S
H230 C240 0.950 . S
H231 C242 0.950 . S
H232 C244 0.950 . S
H233 C245 0.950 . S
C234 H226 0.950 . S
C234 C235 1.386 . S
C234 C236 1.391 . S
C235 C234 1.386 . S
C235 C239 1.393 . S
C236 H228 0.950 . S
C236 C234 1.391 . S
C236 C237 1.400 . S
C237 C236 1.400 . S
C237 C238 1.398 . S
C237 C243 1.491 . S
C238 H229 0.950 . S
C238 C237 1.398 . S
C238 C239 1.391 . S
C239 H227 0.950 . S
C239 C235 1.393 . S
C239 C238 1.391 . S
C240 H230 0.950 . S
C240 C241 1.386 . S
C240 C242 1.391 . S
C241 C240 1.386 . S
C241 C245 1.393 . S
C242 H231 0.950 . S
C242 C240 1.391 . S
C242 C243 1.400 . S
C243 C237 1.491 . S
C243 C242 1.400 . S
C243 C244 1.398 . S
C244 H232 0.950 . S
C244 C243 1.398 . S
C244 C245 1.391 . S
C245 H233 0.950 . S
C245 C241 1.393 . S
C245 C244 1.391 . S
H246 C254 0.950 . S
H247 C259 0.950 . S
H248 C256 0.950 . S
H249 C258 0.950 . S
H250 C260 0.950 . S
H251 C262 0.950 . S
H252 C264 0.950 . S
H253 C265 0.950 . S
C254 H246 0.950 . S
C254 C255 1.386 . S
C254 C256 1.391 . S
C255 C254 1.386 . S
C255 C259 1.393 . S
C256 H248 0.950 . S
C256 C254 1.391 . S
C256 C257 1.400 . S
C257 C256 1.400 . S
C257 C258 1.398 . S
C257 C263 1.491 . S
C258 H249 0.950 . S
C258 C257 1.398 . S
C258 C259 1.391 . S
C259 H247 0.950 . S
C259 C255 1.393 . S
C259 C258 1.391 . S
C260 H250 0.950 . S
C260 C261 1.386 . S
C260 C262 1.391 . S
C261 C260 1.386 . S
C261 C265 1.393 . S
C262 H251 0.950 . S
C262 C260 1.391 . S
C262 C263 1.400 . S
C263 C257 1.491 . S
C263 C262 1.400 . S
C263 C264 1.398 . S
C264 H252 0.950 . S
C264 C263 1.398 . S
C264 C265 1.391 . S
C265 H253 0.950 . S
C265 C261 1.393 . S
C265 C264 1.391 . S
H266 C274 0.950 . S
H267 C279 0.950 . S
H268 C276 0.950 . S
H269 C278 0.950 . S
H270 C280 0.950 . S
H271 C282 0.950 . S
H272 C284 0.950 . S
H273 C285 0.950 . S
C274 H266 0.950 . S
C274 C275 1.386 . S
C274 C276 1.391 . S
C275 C274 1.386 . S
C275 C279 1.393 . S
C276 H268 0.950 . S
C276 C274 1.391 . S
C276 C277 1.400 . S
C277 C276 1.400 . S
C277 C278 1.398 . S
C277 C283 1.491 . S
C278 H269 0.950 . S
C278 C277 1.398 . S
C278 C279 1.391 . S
C279 H267 0.950 . S
C279 C275 1.393 . S
C279 C278 1.391 . S
C280 H270 0.950 . S
C280 C281 1.386 . S
C280 C282 1.391 . S
C281 C280 1.386 . S
C281 C285 1.393 . S
C282 H271 0.950 . S
C282 C280 1.391 . S
C282 C283 1.400 . S
C283 C277 1.491 . S
C283 C282 1.400 . S
C283 C284 1.398 . S
C284 H272 0.950 . S
C284 C283 1.398 . S
C284 C285 1.391 . S
C285 H273 0.950 . S
C285 C281 1.393 . S
C285 C284 1.391 . S
H286 C294 0.950 . S
H287 C299 0.950 . S
H288 C296 0.950 . S
H289 C298 0.950 . S
H290 C300 0.950 . S
H291 C302 0.950 . S
H292 C304 0.950 . S
H293 C305 0.950 . S
C294 H286 0.950 . S
C294 C295 1.386 . S
C294 C296 1.391 . S
C295 C294 1.386 . S
C295 C299 1.393 . S
C296 H288 0.950 . S
C296 C294 1.391 . S
C296 C297 1.400 . S
C297 C296 1.400 . S
C297 C298 1.398 . S
C297 C303 1.491 . S
C298 H289 0.950 . S
C298 C297 1.398 . S
C298 C299 1.391 . S
C299 H287 0.950 . S
C299 C295 1.393 . S
C299 C298 1.391 . S
C300 H290 0.950 . S
C300 C301 1.386 . S
C300 C302 1.391 . S
C301 C300 1.386 . S
C301 C305 1.393 . S
C302 H291 0.950 . S
C302 C300 1.391 . S
C302 C303 1.400 . S
C303 C297 1.491 . S
C303 C302 1.400 . S
C303 C304 1.398 . S
C304 H292 0.950 . S
C304 C303 1.398 . S
C304 C305 1.391 . S
C305 H293 0.950 . S
C305 C301 1.393 . S
C305 C304 1.391 . S
H306 C314 0.950 . S
H307 C319 0.950 . S
H308 C316 0.950 . S
H309 C318 0.950 . S
H310 C320 0.950 . S
H311 C322 0.950 . S
H312 C324 0.950 . S
H313 C325 0.950 . S
C314 H306 0.950 . S
C314 C315 1.386 . S
C314 C316 1.391 . S
C315 C314 1.386 . S
C315 C319 1.393 . S
C316 H308 0.950 . S
C316 C314 1.391 . S
C316 C317 1.400 . S
C317 C316 1.400 . S
C317 C318 1.398 . S
C317 C323 1.491 . S
C318 H309 0.950 . S
C318 C317 1.398 . S
C318 C319 1.391 . S
C319 H307 0.950 . S
C319 C315 1.393 . S
C319 C318 1.391 . S
C320 H310 0.950 . S
C320 C321 1.386 . S
C320 C322 1.391 . S
C321 C320 1.386 . S
C321 C325 1.393 . S
C322 H311 0.950 . S
C322 C320 1.391 . S
C322 C323 1.400 . S
C323 C317 1.491 . S
C323 C322 1.400 . S
C323 C324 1.398 . S
C324 H312 0.950 . S
C324 C323 1.398 . S
C324 C325 1.391 . S
C325 H313 0.950 . S
C325 C321 1.393 . S
C325 C324 1.391 . S
H326 C334 0.950 . S
H327 C339 0.950 . S
H328 C336 0.950 . S
H329 C338 0.950 . S
H330 C340 0.950 . S
H331 C342 0.950 . S
H332 C344 0.950 . S
H333 C345 0.950 . S
C334 H326 0.950 . S
C334 C335 1.386 . S
C334 C336 1.391 . S
C335 C334 1.386 . S
C335 C339 1.393 . S
C336 H328 0.950 . S
C336 C334 1.391 . S
C336 C337 1.400 . S
C337 C336 1.400 . S
C337 C338 1.398 . S
C337 C343 1.491 . S
C338 H329 0.950 . S
C338 C337 1.398 . S
C338 C339 1.391 . S
C339 H327 0.950 . S
C339 C335 1.393 . S
C339 C338 1.391 . S
C340 H330 0.950 . S
C340 C341 1.386 . S
C340 C342 1.391 . S
C341 C340 1.386 . S
C341 C345 1.393 . S
C342 H331 0.950 . S
C342 C340 1.391 . S
C342 C343 1.400 . S
C343 C337 1.491 . S
C343 C342 1.400 . S
C343 C344 1.398 . S
C344 H332 0.950 . S
C344 C343 1.398 . S
C344 C345 1.391 . S
C345 H333 0.950 . S
C345 C341 1.393 . S
C345 C344 1.391 . S
H346 C354 0.950 . S
H347 C359 0.950 . S
H348 C356 0.950 . S
H349 C358 0.950 . S
H350 C360 0.950 . S
H351 C362 0.950 . S
H352 C364 0.950 . S
H353 C365 0.950 . S
C354 H346 0.950 . S
C354 C355 1.386 . S
C354 C356 1.391 . S
C355 C354 1.386 . S
C355 C359 1.393 . S
C356 H348 0.950 . S
C356 C354 1.391 . S
C356 C357 1.400 . S
C357 C356 1.400 . S
C357 C358 1.398 . S
C357 C363 1.491 . S
C358 H349 0.950 . S
C358 C357 1.398 . S
C358 C359 1.391 . S
C359 H347 0.950 . S
C359 C355 1.393 . S
C359 C358 1.391 . S
C360 H350 0.950 . S
C360 C361 1.386 . S
C360 C362 1.391 . S
C361 C360 1.386 . S
C361 C365 1.393 . S
C362 H351 0.950 . S
C362 C360 1.391 . S
C362 C363 1.400 . S
C363 C357 1.491 . S
C363 C362 1.400 . S
C363 C364 1.398 . S
C364 H352 0.950 . S
C364 C363 1.398 . S
C364 C365 1.391 . S
C365 H353 0.950 . S
C365 C361 1.393 . S
C365 C364 1.391 . S
H366 C374 0.950 . S
H367 C379 0.950 . S
H368 C376 0.930 1_655 S
H369 C378 0.950 . S
H370 C380 0.950 . S
H371 C382 0.950 . S
H372 C384 0.950 1_655 S
H373 C385 0.950 1_655 S
C374 H366 0.950 . S
C374 C375 1.386 1_655 S
C374 C376 1.388 1_655 S
C375 C374 1.386 1_455 S
C375 C379 1.393 . S
C376 H368 0.930 1_455 S
C376 C374 1.388 1_455 S
C376 C377 1.424 . S
C377 C376 1.424 . S
C377 C378 1.398 . S
C377 C383 1.491 1_554 S
C378 H369 0.950 . S
C378 C377 1.398 . S
C378 C379 1.391 . S
C379 H367 0.950 . S
C379 C375 1.393 . S
C379 C378 1.391 . S
C380 H370 0.950 . S
C380 C381 1.386 . S
C380 C382 1.391 . S
C381 C380 1.386 . S
C381 C385 1.393 . S
C382 H371 0.950 . S
C382 C380 1.391 . S
C382 C383 1.400 . S
C383 C377 1.491 1_556 S
C383 C382 1.400 . S
C383 C384 1.398 . S
C384 H372 0.950 1_455 S
C384 C383 1.398 . S
C384 C385 1.391 . S
C385 H373 0.950 1_455 S
C385 C381 1.393 . S
C385 C384 1.391 . S
H386 C394 0.950 . S
H387 C399 0.950 . S
H388 C396 0.950 . S
H389 C398 0.950 . S
H390 C400 0.950 . S
H391 C402 0.950 . S
H392 C404 0.950 . S
H393 C405 0.950 . S
C394 H386 0.950 . S
C394 C395 1.386 1_565 S
C394 C396 1.391 . S
C395 C394 1.386 1_545 S
C395 C399 1.393 . S
C396 H388 0.950 . S
C396 C394 1.391 . S
C396 C397 1.400 1_565 S
C397 C396 1.400 1_545 S
C397 C398 1.398 . S
C397 C403 1.491 . S
C398 H389 0.950 . S
C398 C397 1.398 . S
C398 C399 1.391 . S
C399 H387 0.950 . S
C399 C395 1.393 . S
C399 C398 1.391 . S
C400 H390 0.950 . S
C400 C401 1.386 . S
C400 C402 1.391 . S
C401 C400 1.386 . S
C401 C405 1.393 1_545 S
C402 H391 0.950 . S
C402 C400 1.391 . S
C402 C403 1.400 . S
C403 C397 1.491 . S
C403 C402 1.400 . S
C403 C404 1.398 1_545 S
C404 H392 0.950 . S
C404 C403 1.398 1_565 S
C404 C405 1.391 . S
C405 H393 0.950 . S
C405 C401 1.393 1_565 S
C405 C404 1.391 . S
H406 C414 0.950 . S
H407 C419 0.950 . S
H408 C416 0.950 . S
H409 C418 0.950 . S
H410 C420 0.950 . S
H411 C422 0.950 . S
H412 C424 0.950 . S
H413 C425 0.950 . S
C414 H406 0.950 . S
C414 C415 1.386 . S
C414 C416 1.391 . S
C415 C414 1.386 . S
C415 C419 1.393 . S
C416 H408 0.950 . S
C416 C414 1.391 . S
C416 C417 1.400 . S
C417 C416 1.400 . S
C417 C418 1.398 . S
C417 C423 1.491 . S
C418 H409 0.950 . S
C418 C417 1.398 . S
C418 C419 1.391 . S
C419 H407 0.950 . S
C419 C415 1.393 . S
C419 C418 1.391 . S
C420 H410 0.950 . S
C420 C421 1.386 . S
C420 C422 1.391 . S
C421 C420 1.386 . S
C421 C425 1.393 . S
C422 H411 0.950 . S
C422 C420 1.391 . S
C422 C423 1.400 . S
C423 C417 1.491 . S
C423 C422 1.400 . S
C423 C424 1.398 . S
C424 H412 0.950 . S
C424 C423 1.398 . S
C424 C425 1.391 . S
C425 H413 0.950 . S
C425 C421 1.393 . S
C425 C424 1.391 . S
H426 C434 0.950 . S
H427 C439 0.950 . S
H428 C436 0.950 . S
H429 C438 0.950 . S
H430 C440 0.950 . S
H431 C442 0.950 . S
H432 C444 0.950 . S
H433 C445 0.950 . S
C434 H426 0.950 . S
C434 C435 1.386 1_565 S
C434 C436 1.391 . S
C435 C434 1.386 1_545 S
C435 C439 1.393 . S
C436 H428 0.950 . S
C436 C434 1.391 . S
C436 C437 1.400 1_565 S
C437 C436 1.400 1_545 S
C437 C438 1.398 . S
C437 C443 1.491 . S
C438 H429 0.950 . S
C438 C437 1.398 . S
C438 C439 1.391 . S
C439 H427 0.950 . S
C439 C435 1.393 . S
C439 C438 1.391 . S
C440 H430 0.950 . S
C440 C441 1.386 . S
C440 C442 1.391 . S
C441 C440 1.386 . S
C441 C445 1.393 1_545 S
C442 H431 0.950 . S
C442 C440 1.391 . S
C442 C443 1.400 . S
C443 C437 1.491 . S
C443 C442 1.400 . S
C443 C444 1.398 1_545 S
C444 H432 0.950 . S
C444 C443 1.398 1_565 S
C444 C445 1.391 . S
C445 H433 0.950 . S
C445 C441 1.393 1_565 S
C445 C444 1.391 . S
H446 C454 0.950 . S
H447 C459 0.950 . S
H448 C456 0.950 . S
H449 C458 0.950 . S
H450 C460 0.950 . S
H451 C462 0.969 . S
H452 C464 0.950 . S
H453 C465 0.950 . S
C454 H446 0.950 . S
C454 C455 1.386 . S
C454 C456 1.391 . S
C455 C454 1.386 . S
C455 C459 1.393 . S
C456 H448 0.950 . S
C456 C454 1.391 . S
C456 C457 1.400 . S
C457 C456 1.400 . S
C457 C458 1.398 . S
C457 C463 1.491 1_556 S
C458 H449 0.950 . S
C458 C457 1.398 . S
C458 C459 1.391 . S
C459 H447 0.950 . S
C459 C455 1.393 . S
C459 C458 1.391 . S
C460 H450 0.950 . S
C460 C461 1.386 . S
C460 C462 1.391 . S
C461 C460 1.386 . S
C461 C465 1.393 . S
C462 H451 0.969 . S
C462 C460 1.391 . S
C462 C463 1.400 . S
C463 C457 1.491 1_554 S
C463 C462 1.400 . S
C463 C464 1.398 . S
C464 H452 0.950 . S
C464 C463 1.398 . S
C464 C465 1.391 . S
C465 H453 0.950 . S
C465 C461 1.393 . S
C465 C464 1.391 . S
H466 C474 0.950 . S
H467 C479 0.950 . S
H468 C476 0.950 . S
H469 C478 0.950 . S
H470 C480 0.950 . S
H471 C482 0.950 . S
H472 C484 0.950 . S
H473 C485 0.950 . S
C474 H466 0.950 . S
C474 C475 1.386 . S
C474 C476 1.391 . S
C475 C474 1.386 . S
C475 C479 1.393 1_455 S
C476 H468 0.950 . S
C476 C474 1.391 . S
C476 C477 1.400 . S
C477 C476 1.400 . S
C477 C478 1.398 1_455 S
C477 C483 1.491 . S
C478 H469 0.950 . S
C478 C477 1.398 1_655 S
C478 C479 1.391 . S
C479 H467 0.950 . S
C479 C475 1.393 1_655 S
C479 C478 1.391 . S
C480 H470 0.950 . S
C480 C481 1.386 1_655 S
C480 C482 1.391 . S
C481 C480 1.386 1_455 S
C481 C485 1.393 . S
C482 H471 0.950 . S
C482 C480 1.391 . S
C482 C483 1.400 1_655 S
C483 C477 1.491 . S
C483 C482 1.400 1_455 S
C483 C484 1.398 . S
C484 H472 0.950 . S
C484 C483 1.398 . S
C484 C485 1.391 . S
C485 H473 0.950 . S
C485 C481 1.393 . S
C485 C484 1.391 . S
C135 C2 1.136 . S
C141 C125 1.123 . S
C155 C21 1.041 . S
C161 C103 1.057 . S
C175 C42 1.128 . S
C181 C114 1.099 . S
C195 C1 0.929 . S
C201 C119 0.905 . S
C221 C97 0.996 . S
C215 C22 1.000 . S
C241 C108 0.909 . S
C235 C41 0.926 . S
C255 C38 1.926 . S
C261 C81 1.882 . S
C275 C59 1.864 . S
C281 C86 1.834 1_655 S
C295 C18 1.779 . S
C301 C64 1.771 . S
C321 C75 1.834 . S
C315 C39 1.862 . S
C341 C92 1.879 . S
C335 C58 1.902 . S
C355 C19 2.005 . S
C361 C70 1.956 . S
C381 C87 1.568 . S
C375 C9 1.530 . S
C395 C29 1.535 . S
C401 C65 1.619 . S
C415 C49 1.556 . S
C421 C76 1.585 . S
C441 C109 1.492 . S
C435 C28 1.483 . S
C461 C120 1.468 . S
C455 C48 1.430 . S
C475 C8 1.408 . S
C481 C98 1.445 . S
