# Generated by pormake.
# Topology eea, (3,6)-cn, num edge types: 1
# Building blocks:
#     Node 0, Type 0, BuildingBlock: BELTOD_clean_linker_0, # of connection points: 3
#     Node 1, Type 0, BuildingBlock: BELTOD_clean_linker_0, # of connection points: 3
#     Node 2, Type 0, BuildingBlock: BELTOD_clean_linker_0, # of connection points: 3
#     Node 3, Type 0, BuildingBlock: BELTOD_clean_linker_0, # of connection points: 3
#     Node 4, Type 0, BuildingBlock: BELTOD_clean_linker_0, # of connection points: 3
#     Node 5, Type 0, BuildingBlock: BELTOD_clean_linker_0, # of connection points: 3
#     Node 6, Type 0, BuildingBlock: BELTOD_clean_linker_0, # of connection points: 3
#     Node 7, Type 0, BuildingBlock: BELTOD_clean_linker_0, # of connection points: 3
#     Node 8, Type 0, BuildingBlock: BELTOD_clean_linker_0, # of connection points: 3
#     Node 9, Type 0, BuildingBlock: BELTOD_clean_linker_0, # of connection points: 3
#     Node 10, Type 0, BuildingBlock: BELTOD_clean_linker_0, # of connection points: 3
#     Node 11, Type 0, BuildingBlock: BELTOD_clean_linker_0, # of connection points: 3
#     Node 12, Type 0, BuildingBlock: BELTOD_clean_linker_0, # of connection points: 3
#     Node 13, Type 0, BuildingBlock: BELTOD_clean_linker_0, # of connection points: 3
#     Node 14, Type 0, BuildingBlock: BELTOD_clean_linker_0, # of connection points: 3
#     Node 15, Type 0, BuildingBlock: BELTOD_clean_linker_0, # of connection points: 3
#     Node 16, Type 0, BuildingBlock: BELTOD_clean_linker_0, # of connection points: 3
#     Node 17, Type 0, BuildingBlock: BELTOD_clean_linker_0, # of connection points: 3
#     Node 18, Type 1, BuildingBlock: KUMBOL_clean_sbu_0, # of connection points: 6
#     Node 19, Type 1, BuildingBlock: KUMBOL_clean_sbu_0, # of connection points: 6
#     Node 20, Type 1, BuildingBlock: KUMBOL_clean_sbu_0, # of connection points: 6
#     Node 21, Type 1, BuildingBlock: KUMBOL_clean_sbu_0, # of connection points: 6
#     Node 22, Type 1, BuildingBlock: KUMBOL_clean_sbu_0, # of connection points: 6
#     Node 23, Type 1, BuildingBlock: KUMBOL_clean_sbu_0, # of connection points: 6
#     Node 24, Type 1, BuildingBlock: KUMBOL_clean_sbu_0, # of connection points: 6
#     Node 25, Type 1, BuildingBlock: KUMBOL_clean_sbu_0, # of connection points: 6
#     Node 26, Type 1, BuildingBlock: KUMBOL_clean_sbu_0, # of connection points: 6
#     Edge 27, Type (0, 1), BuildingBlock: XUDNAN_clean_linker_2, # of connection points: 2
#     Edge 28, Type (0, 1), BuildingBlock: XUDNAN_clean_linker_2, # of connection points: 2
#     Edge 29, Type (0, 1), BuildingBlock: XUDNAN_clean_linker_2, # of connection points: 2
#     Edge 30, Type (0, 1), BuildingBlock: XUDNAN_clean_linker_2, # of connection points: 2
#     Edge 31, Type (0, 1), BuildingBlock: XUDNAN_clean_linker_2, # of connection points: 2
#     Edge 32, Type (0, 1), BuildingBlock: XUDNAN_clean_linker_2, # of connection points: 2
#     Edge 33, Type (0, 1), BuildingBlock: XUDNAN_clean_linker_2, # of connection points: 2
#     Edge 34, Type (0, 1), BuildingBlock: XUDNAN_clean_linker_2, # of connection points: 2
#     Edge 35, Type (0, 1), BuildingBlock: XUDNAN_clean_linker_2, # of connection points: 2
#     Edge 36, Type (0, 1), BuildingBlock: XUDNAN_clean_linker_2, # of connection points: 2
#     Edge 37, Type (0, 1), BuildingBlock: XUDNAN_clean_linker_2, # of connection points: 2
#     Edge 38, Type (0, 1), BuildingBlock: XUDNAN_clean_linker_2, # of connection points: 2
#     Edge 39, Type (0, 1), BuildingBlock: XUDNAN_clean_linker_2, # of connection points: 2
#     Edge 40, Type (0, 1), BuildingBlock: XUDNAN_clean_linker_2, # of connection points: 2
#     Edge 41, Type (0, 1), BuildingBlock: XUDNAN_clean_linker_2, # of connection points: 2
#     Edge 42, Type (0, 1), BuildingBlock: XUDNAN_clean_linker_2, # of connection points: 2
#     Edge 43, Type (0, 1), BuildingBlock: XUDNAN_clean_linker_2, # of connection points: 2
#     Edge 44, Type (0, 1), BuildingBlock: XUDNAN_clean_linker_2, # of connection points: 2
#     Edge 45, Type (0, 1), BuildingBlock: XUDNAN_clean_linker_2, # of connection points: 2
#     Edge 46, Type (0, 1), BuildingBlock: XUDNAN_clean_linker_2, # of connection points: 2
#     Edge 47, Type (0, 1), BuildingBlock: XUDNAN_clean_linker_2, # of connection points: 2
#     Edge 48, Type (0, 1), BuildingBlock: XUDNAN_clean_linker_2, # of connection points: 2
#     Edge 49, Type (0, 1), BuildingBlock: XUDNAN_clean_linker_2, # of connection points: 2
#     Edge 50, Type (0, 1), BuildingBlock: XUDNAN_clean_linker_2, # of connection points: 2
#     Edge 51, Type (0, 1), BuildingBlock: XUDNAN_clean_linker_2, # of connection points: 2
#     Edge 52, Type (0, 1), BuildingBlock: XUDNAN_clean_linker_2, # of connection points: 2
#     Edge 53, Type (0, 1), BuildingBlock: XUDNAN_clean_linker_2, # of connection points: 2
#     Edge 54, Type (0, 1), BuildingBlock: XUDNAN_clean_linker_2, # of connection points: 2
#     Edge 55, Type (0, 1), BuildingBlock: XUDNAN_clean_linker_2, # of connection points: 2
#     Edge 56, Type (0, 1), BuildingBlock: XUDNAN_clean_linker_2, # of connection points: 2
#     Edge 57, Type (0, 1), BuildingBlock: XUDNAN_clean_linker_2, # of connection points: 2
#     Edge 58, Type (0, 1), BuildingBlock: XUDNAN_clean_linker_2, # of connection points: 2
#     Edge 59, Type (0, 1), BuildingBlock: XUDNAN_clean_linker_2, # of connection points: 2
#     Edge 60, Type (0, 1), BuildingBlock: XUDNAN_clean_linker_2, # of connection points: 2
#     Edge 61, Type (0, 1), BuildingBlock: XUDNAN_clean_linker_2, # of connection points: 2
#     Edge 62, Type (0, 1), BuildingBlock: XUDNAN_clean_linker_2, # of connection points: 2
#     Edge 63, Type (0, 1), BuildingBlock: XUDNAN_clean_linker_2, # of connection points: 2
#     Edge 64, Type (0, 1), BuildingBlock: XUDNAN_clean_linker_2, # of connection points: 2
#     Edge 65, Type (0, 1), BuildingBlock: XUDNAN_clean_linker_2, # of connection points: 2
#     Edge 66, Type (0, 1), BuildingBlock: XUDNAN_clean_linker_2, # of connection points: 2
#     Edge 67, Type (0, 1), BuildingBlock: XUDNAN_clean_linker_2, # of connection points: 2
#     Edge 68, Type (0, 1), BuildingBlock: XUDNAN_clean_linker_2, # of connection points: 2
#     Edge 69, Type (0, 1), BuildingBlock: XUDNAN_clean_linker_2, # of connection points: 2
#     Edge 70, Type (0, 1), BuildingBlock: XUDNAN_clean_linker_2, # of connection points: 2
#     Edge 71, Type (0, 1), BuildingBlock: XUDNAN_clean_linker_2, # of connection points: 2
#     Edge 72, Type (0, 1), BuildingBlock: XUDNAN_clean_linker_2, # of connection points: 2
#     Edge 73, Type (0, 1), BuildingBlock: XUDNAN_clean_linker_2, # of connection points: 2
#     Edge 74, Type (0, 1), BuildingBlock: XUDNAN_clean_linker_2, # of connection points: 2
#     Edge 75, Type (0, 1), BuildingBlock: XUDNAN_clean_linker_2, # of connection points: 2
#     Edge 76, Type (0, 1), BuildingBlock: XUDNAN_clean_linker_2, # of connection points: 2
#     Edge 77, Type (0, 1), BuildingBlock: XUDNAN_clean_linker_2, # of connection points: 2
#     Edge 78, Type (0, 1), BuildingBlock: XUDNAN_clean_linker_2, # of connection points: 2
#     Edge 79, Type (0, 1), BuildingBlock: XUDNAN_clean_linker_2, # of connection points: 2
#     Edge 80, Type (0, 1), BuildingBlock: XUDNAN_clean_linker_2, # of connection points: 2
# Relax obj value: 0.008
# Max RMSD: 0.086
# Mean RMSD: 0.067
data_MOF--net-eea--node1-KUMBOL_clean_sbu_0--node2-BELTOD_clean_linker_0--edge1-XUDNAN_clean_linker_2
_symmetry_space_group_name_H-M    P1
_symmetry_Int_Tables_number       1
_symmetry_cell_setting            triclinic
loop_
_symmetry_equiv_pos_as_xyz
'x, y, z'
_cell_length_a     58.623021
_cell_length_b     59.579081
_cell_length_c     81.889495
_cell_angle_alpha  90.652414
_cell_angle_beta   90.175688
_cell_angle_gamma 120.03058
loop_
_atom_site_label
_atom_site_type_symbol
_atom_site_fract_x
_atom_site_fract_y
_atom_site_fract_z
_atom_type_partial_charge
P0 P 0.28553 0.14881 0.41361 0.0
H1 H 0.26122 0.1262 0.38235 0.0
H2 H 0.23788 0.08178 0.37169 0.0
H3 H 0.24877 0.0542 0.41801 0.0
H4 H 0.2724 0.09892 0.4286 0.0
H5 H 0.30261 0.20041 0.4007 0.0
H6 H 0.2785 0.22235 0.3927 0.0
H7 H 0.20528 0.15464 0.40581 0.0
H8 H 0.22941 0.13256 0.41346 0.0
H9 H 0.33058 0.16003 0.43455 0.0
H10 H 0.25012 0.14188 0.44082 0.0
O11 O 0.31498 0.16336 0.40472 0.0
H12 H 0.33765 0.16551 0.46408 0.0
H13 H 0.25699 0.14715 0.47036 0.0
C14 C 0.26803 0.11577 0.40634 0.0
C15 C 0.25842 0.11058 0.39026 0.0
C16 C 0.24503 0.08518 0.3842 0.0
C17 C 0.24124 0.06448 0.39408 0.0
C18 C 0.25144 0.06979 0.41012 0.0
C19 C 0.26477 0.0953 0.41621 0.0
C20 C 0.26777 0.16483 0.40758 0.0
C21 C 0.28136 0.1902 0.40173 0.0
C22 C 0.26758 0.20269 0.39713 0.0
C23 C 0.24004 0.19013 0.39861 0.0
C24 C 0.22652 0.16479 0.40463 0.0
C25 C 0.24027 0.15218 0.40899 0.0
C26 C 0.29003 0.15118 0.43545 0.0
C27 C 0.31441 0.15717 0.44227 0.0
C28 C 0.31837 0.1601 0.45918 0.0
C29 C 0.29794 0.15699 0.46955 0.0
C30 C 0.27325 0.15014 0.46267 0.0
C31 C 0.2693 0.14711 0.44576 0.0
P32 P 0.91569 0.10155 0.42999 0.0
H33 H 0.90056 0.05044 0.41607 0.0
H34 H 0.8615 0.01823 0.40103 0.0
H35 H 0.82856 0.06871 0.4037 0.0
H36 H 0.86738 0.10068 0.41922 0.0
H37 H 0.97138 0.13986 0.43257 0.0
H38 H 1.00112 0.17619 0.4155 0.0
H39 H 0.93572 0.16126 0.38391 0.0
H40 H 0.90616 0.12517 0.40097 0.0
H41 H 0.90927 0.08142 0.46281 0.0
H42 H 0.89778 0.13856 0.43809 0.0
O43 O 0.93355 0.08783 0.43493 0.0
H44 H 0.89119 0.08866 0.48767 0.0
H45 H 0.87844 0.14524 0.46293 0.0
C46 C 0.88694 0.07802 0.41876 0.0
C47 C 0.88494 0.0546 0.41353 0.0
C48 C 0.8626 0.03617 0.40497 0.0
C49 C 0.84211 0.04106 0.40124 0.0
C50 C 0.84419 0.06458 0.40638 0.0
C51 C 0.86632 0.0828 0.41525 0.0
C52 C 0.93657 0.12957 0.418 0.0
C53 C 0.96343 0.14445 0.42199 0.0
C54 C 0.98045 0.16508 0.41215 0.0
C55 C 0.97082 0.17138 0.39824 0.0
C56 C 0.94373 0.15691 0.39456 0.0
C57 C 0.92676 0.13617 0.40435 0.0
C58 C 0.90515 0.10966 0.44866 0.0
C59 C 0.90306 0.09574 0.46277 0.0
C60 C 0.89237 0.09969 0.47697 0.0
C61 C 0.88301 0.1173 0.47729 0.0
C62 C 0.88564 0.13167 0.46317 0.0
C63 C 0.8966 0.12783 0.44895 0.0
P64 P 0.87041 0.74063 0.41207 0.0
H65 H 0.81444 0.71927 0.40537 0.0
H66 H 0.78843 0.73789 0.3953 0.0
H67 H 0.85939 0.81249 0.39159 0.0
H68 H 0.88519 0.79376 0.40214 0.0
H69 H 0.89223 0.72467 0.38524 0.0
H70 H 0.93636 0.74305 0.37387 0.0
H71 H 0.96464 0.80726 0.40819 0.0
H72 H 0.92025 0.78861 0.4196 0.0
H73 H 0.83663 0.74444 0.43717 0.0
H74 H 0.90561 0.73622 0.43551 0.0
O75 O 0.85435 0.70935 0.40655 0.0
H76 H 0.83447 0.73865 0.4667 0.0
H77 H 0.90343 0.73017 0.46503 0.0
C78 C 0.85184 0.75498 0.40425 0.0
C79 C 0.82445 0.7396 0.40228 0.0
C80 C 0.80958 0.75028 0.39643 0.0
C81 C 0.82176 0.77668 0.39243 0.0
C82 C 0.84927 0.79214 0.39461 0.0
C83 C 0.86413 0.7814 0.40055 0.0
C84 C 0.90299 0.75514 0.40339 0.0
C85 C 0.90789 0.74268 0.39038 0.0
C86 C 0.93319 0.75315 0.38391 0.0
C87 C 0.95408 0.77653 0.39018 0.0
C88 C 0.94896 0.78929 0.40302 0.0
C89 C 0.92363 0.77864 0.40958 0.0
C90 C 0.87166 0.74137 0.43411 0.0
C91 C 0.85167 0.74195 0.44316 0.0
C92 C 0.85028 0.73836 0.46008 0.0
C93 C 0.86876 0.73391 0.46827 0.0
C94 C 0.88913 0.73397 0.45919 0.0
C95 C 0.89042 0.73746 0.44227 0.0
P96 P 0.13054 0.26672 0.60342 0.0
H97 H 0.10823 0.27972 0.63122 0.0
H98 H 0.06404 0.25993 0.64254 0.0
H99 H 0.03729 0.19731 0.6071 0.0
H100 H 0.08194 0.21721 0.59593 0.0
H101 H 0.18509 0.29555 0.61472 0.0
H102 H 0.21349 0.28316 0.62903 0.0
H103 H 0.15206 0.20281 0.62639 0.0
H104 H 0.12342 0.21547 0.61193 0.0
H105 H 0.09216 0.26387 0.57948 0.0
H106 H 0.16728 0.26713 0.5789 0.0
O107 O 0.14335 0.29824 0.60771 0.0
H108 H 0.09375 0.26882 0.54995 0.0
H109 H 0.16899 0.27198 0.5492 0.0
C110 C 0.09823 0.25026 0.61248 0.0
C111 C 0.09291 0.2617 0.62588 0.0
C112 C 0.06755 0.2504 0.63232 0.0
C113 C 0.04697 0.22724 0.62558 0.0
C114 C 0.05267 0.21514 0.6126 0.0
C115 C 0.07814 0.22654 0.60614 0.0
C116 C 0.1519 0.25651 0.61256 0.0
C117 C 0.17761 0.27524 0.61718 0.0
C118 C 0.19386 0.26814 0.62543 0.0
C119 C 0.18487 0.24205 0.62913 0.0
C120 C 0.1595 0.22308 0.62377 0.0
C121 C 0.1431 0.23028 0.61557 0.0
C122 C 0.12919 0.26429 0.5814 0.0
C123 C 0.1086 0.26474 0.57294 0.0
C124 C 0.10959 0.26769 0.55599 0.0
C125 C 0.13148 0.27074 0.54714 0.0
C126 C 0.1519 0.26982 0.55563 0.0
C127 C 0.1508 0.26672 0.57261 0.0
P128 P 0.81287 0.90289 0.58134 0.0
H129 H 0.84961 0.9538 0.59548 0.0
H130 H 0.84356 0.98677 0.60942 0.0
H131 H 0.75909 0.93588 0.60699 0.0
H132 H 0.76539 0.90354 0.59233 0.0
H133 H 0.84331 0.87637 0.58363 0.0
H134 H 0.83943 0.84122 0.60064 0.0
H135 H 0.77251 0.83801 0.62481 0.0
H136 H 0.77657 0.87331 0.60781 0.0
H137 H 0.81832 0.91418 0.5464 0.0
H138 H 0.75717 0.86185 0.5786 0.0
O139 O 0.84337 0.91829 0.57387 0.0
H140 H 0.78862 0.89486 0.52303 0.0
H141 H 0.72688 0.84321 0.55542 0.0
C142 C 0.80795 0.92638 0.59255 0.0
C143 C 0.82977 0.94975 0.59789 0.0
C144 C 0.82627 0.96854 0.60607 0.0
C145 C 0.80081 0.96419 0.60929 0.0
C146 C 0.77899 0.94023 0.60442 0.0
C147 C 0.78255 0.92158 0.59609 0.0
C148 C 0.8104 0.8777 0.59453 0.0
C149 C 0.82799 0.86836 0.59272 0.0
C150 C 0.82584 0.84832 0.60251 0.0
C151 C 0.80576 0.83693 0.61414 0.0
C152 C 0.78814 0.84634 0.61593 0.0
C153 C 0.79049 0.86658 0.60623 0.0
C154 C 0.79015 0.8892 0.56426 0.0
C155 C 0.79842 0.8986 0.54848 0.0
C156 C 0.78126 0.88767 0.53509 0.0
C157 C 0.75527 0.86726 0.53721 0.0
C158 C 0.74688 0.85845 0.55318 0.0
C159 C 0.76416 0.86924 0.56653 0.0
P160 P 0.12677 0.85912 0.60406 0.0
H161 H 0.16749 0.88869 0.6287 0.0
H162 H 0.1903 0.93418 0.63706 0.0
H163 H 0.14124 0.94806 0.60395 0.0
H164 H 0.1189 0.90239 0.59531 0.0
H165 H 0.08606 0.8072 0.5948 0.0
H166 H 0.04415 0.7766 0.60724 0.0
H167 H 0.05214 0.83627 0.64104 0.0
H168 H 0.09437 0.86693 0.62861 0.0
H169 H 0.16657 0.85851 0.58316 0.0
H170 H 0.09347 0.85829 0.57675 0.0
O171 O 0.14342 0.84591 0.61213 0.0
H172 H 0.17013 0.85537 0.55371 0.0
H173 H 0.09727 0.85604 0.54704 0.0
C174 C 0.14176 0.89226 0.61119 0.0
C175 C 0.16153 0.90146 0.62326 0.0
C176 C 0.17444 0.92751 0.62817 0.0
C177 C 0.16774 0.9449 0.62115 0.0
C178 C 0.14721 0.93532 0.60943 0.0
C179 C 0.13434 0.90921 0.60451 0.0
C180 C 0.09322 0.83941 0.61064 0.0
C181 C 0.07849 0.81395 0.60458 0.0
C182 C 0.05464 0.79644 0.61176 0.0
C183 C 0.04504 0.80407 0.62516 0.0
C184 C 0.05904 0.82999 0.63065 0.0
C185 C 0.08315 0.8475 0.62354 0.0
C186 C 0.1295 0.85812 0.58215 0.0
C187 C 0.1513 0.85791 0.57538 0.0
C188 C 0.15345 0.85638 0.55846 0.0
C189 C 0.13397 0.8554 0.5479 0.0
C190 C 0.11243 0.85632 0.55477 0.0
C191 C 0.11026 0.85774 0.57176 0.0
P192 P 0.95219 0.47511 0.75231 0.0
H193 H 0.97068 0.44087 0.7395 0.0
H194 H 0.94762 0.39695 0.72795 0.0
H195 H 0.87298 0.39192 0.73849 0.0
H196 H 0.89632 0.43623 0.74955 0.0
H197 H 0.95159 0.48892 0.71862 0.0
H198 H 0.93156 0.5108 0.70449 0.0
H199 H 0.90043 0.52005 0.7502 0.0
H200 H 0.92036 0.49787 0.7643 0.0
H201 H 0.92912 0.43635 0.77845 0.0
H202 H 0.9761 0.51947 0.77453 0.0
O203 O 0.98355 0.48903 0.74648 0.0
H204 H 0.93328 0.44031 0.80814 0.0
H205 H 0.97999 0.52363 0.8043 0.0
C206 C 0.93517 0.44192 0.74512 0.0
C207 C 0.94935 0.43029 0.73935 0.0
C208 C 0.93611 0.40504 0.73287 0.0
C209 C 0.9084 0.39091 0.73214 0.0
C210 C 0.89432 0.4024 0.73854 0.0
C211 C 0.9076 0.42768 0.74494 0.0
C212 C 0.93774 0.49203 0.74251 0.0
C213 C 0.94056 0.49576 0.72562 0.0
C214 C 0.92903 0.50818 0.71756 0.0
C215 C 0.91446 0.51717 0.72625 0.0
C216 C 0.91182 0.5136 0.74323 0.0
C217 C 0.92317 0.50088 0.75129 0.0
C218 C 0.95231 0.47766 0.77426 0.0
C219 C 0.93999 0.4555 0.78395 0.0
C220 C 0.94228 0.45779 0.80098 0.0
C221 C 0.95707 0.48229 0.8086 0.0
C222 C 0.96877 0.50446 0.79881 0.0
C223 C 0.96644 0.50213 0.78181 0.0
P224 P 0.57858 0.43314 0.76976 0.0
H225 H 0.56342 0.38311 0.75434 0.0
H226 H 0.52339 0.35068 0.74066 0.0
H227 H 0.49167 0.40235 0.7438 0.0
H228 H 0.53154 0.43431 0.75832 0.0
H229 H 0.63555 0.46301 0.77199 0.0
H230 H 0.66916 0.49535 0.75437 0.0
H231 H 0.60868 0.49672 0.72501 0.0
H232 H 0.57471 0.46367 0.74256 0.0
H233 H 0.566 0.41081 0.80198 0.0
H234 H 0.56568 0.47419 0.7773 0.0
O235 O 0.59351 0.41698 0.77581 0.0
H236 H 0.54813 0.41981 0.82627 0.0
H237 H 0.5467 0.4829 0.80166 0.0
C238 C 0.55035 0.41102 0.75756 0.0
C239 C 0.54794 0.38757 0.75204 0.0
C240 C 0.525 0.36904 0.74403 0.0
C241 C 0.50405 0.3737 0.74114 0.0
C242 C 0.50709 0.3978 0.74609 0.0
C243 C 0.53 0.41623 0.75428 0.0
C244 C 0.6026 0.46046 0.75837 0.0
C245 C 0.62939 0.47035 0.76187 0.0
C246 C 0.64861 0.48884 0.75182 0.0
C247 C 0.6414 0.49818 0.73827 0.0
C248 C 0.61463 0.48968 0.73539 0.0
C249 C 0.59527 0.47079 0.74538 0.0
C250 C 0.56754 0.44206 0.78791 0.0
C251 C 0.56227 0.42686 0.80183 0.0
C252 C 0.55171 0.43185 0.81569 0.0
C253 C 0.54566 0.45191 0.81589 0.0
C254 C 0.55131 0.46744 0.80196 0.0
C255 C 0.56209 0.46246 0.78803 0.0
P256 P 0.53556 0.07765 0.74684 0.0
H257 H 0.50526 0.06345 0.71673 0.0
H258 H 0.47541 0.07597 0.70465 0.0
H259 H 0.49444 0.13266 0.74341 0.0
H260 H 0.52571 0.1209 0.75494 0.0
H261 H 0.55612 0.06173 0.71956 0.0
H262 H 0.59945 0.08013 0.7072 0.0
H263 H 0.62961 0.14444 0.74156 0.0
H264 H 0.58573 0.12579 0.75389 0.0
H265 H 0.5004 0.081 0.7712 0.0
H266 H 0.56983 0.07358 0.77106 0.0
O267 O 0.52027 0.04602 0.74226 0.0
H268 H 0.49666 0.07476 0.80046 0.0
H269 H 0.56487 0.06476 0.80015 0.0
C270 C 0.5167 0.09033 0.73718 0.0
C271 C 0.50319 0.07871 0.7226 0.0
C272 C 0.48596 0.08582 0.71574 0.0
C273 C 0.48169 0.10467 0.72337 0.0
C274 C 0.49696 0.11786 0.73729 0.0
C275 C 0.51463 0.11095 0.74401 0.0
C276 C 0.56786 0.09209 0.73789 0.0
C277 C 0.57204 0.07971 0.72454 0.0
C278 C 0.5969 0.09024 0.71748 0.0
C279 C 0.61812 0.1136 0.7235 0.0
C280 C 0.61367 0.12643 0.73661 0.0
C281 C 0.58869 0.11575 0.74373 0.0
C282 C 0.53612 0.07897 0.76892 0.0
C283 C 0.5154 0.07885 0.77751 0.0
C284 C 0.51286 0.07451 0.79432 0.0
C285 C 0.53024 0.06887 0.8029 0.0
C286 C 0.55132 0.06951 0.79425 0.0
C287 C 0.55422 0.07455 0.77749 0.0
P288 P 0.7972 0.59329 0.93679 0.0
H289 H 0.77619 0.60177 0.9668 0.0
H290 H 0.73192 0.58266 0.97795 0.0
H291 H 0.70134 0.5301 0.93647 0.0
H292 H 0.74603 0.5495 0.9253 0.0
H293 H 0.85287 0.61123 0.93439 0.0
H294 H 0.88164 0.59785 0.94743 0.0
H295 H 0.81383 0.5325 0.96848 0.0
H296 H 0.78498 0.54614 0.95544 0.0
H297 H 0.80443 0.63421 0.91462 0.0
H298 H 0.79135 0.55648 0.91044 0.0
O299 O 0.8122 0.62377 0.94394 0.0
H300 H 0.81004 0.63929 0.88534 0.0
H301 H 0.79543 0.56073 0.88068 0.0
C302 C 0.76434 0.57747 0.94503 0.0
C303 C 0.75999 0.58619 0.96004 0.0
C304 C 0.73463 0.57528 0.9664 0.0
C305 C 0.71303 0.5551 0.958 0.0
C306 C 0.71757 0.54563 0.94324 0.0
C307 C 0.74306 0.55677 0.93679 0.0
C308 C 0.81686 0.57985 0.94405 0.0
C309 C 0.84412 0.59381 0.94162 0.0
C310 C 0.86055 0.58624 0.94915 0.0
C311 C 0.85 0.56436 0.95917 0.0
C312 C 0.82248 0.54946 0.96084 0.0
C313 C 0.806 0.55726 0.9534 0.0
C314 C 0.79782 0.59509 0.91476 0.0
C315 C 0.80236 0.61801 0.90734 0.0
C316 C 0.80529 0.62078 0.89044 0.0
C317 C 0.80325 0.60045 0.88042 0.0
C318 C 0.79766 0.57704 0.88792 0.0
C319 C 0.79506 0.57443 0.90494 0.0
P320 P 0.45533 0.22941 0.91161 0.0
H321 H 0.47195 0.25104 0.94444 0.0
H322 H 0.46831 0.28429 0.95992 0.0
H323 H 0.42408 0.29154 0.92 0.0
H324 H 0.42667 0.25744 0.90502 0.0
H325 H 0.49284 0.21101 0.91526 0.0
H326 H 0.49529 0.18056 0.93369 0.0
H327 H 0.42119 0.16408 0.95505 0.0
H328 H 0.41954 0.19566 0.93686 0.0
H329 H 0.44914 0.24953 0.8807 0.0
H330 H 0.41178 0.17588 0.90497 0.0
O331 O 0.48525 0.24727 0.90368 0.0
H332 H 0.42088 0.22924 0.85671 0.0
H333 H 0.38375 0.15548 0.88095 0.0
C334 C 0.44916 0.25131 0.92367 0.0
C335 C 0.4609 0.25934 0.93918 0.0
C336 C 0.45913 0.27867 0.94795 0.0
C337 C 0.44597 0.29077 0.94124 0.0
C338 C 0.43397 0.28241 0.92573 0.0
C339 C 0.43556 0.2629 0.91705 0.0
C340 C 0.45609 0.2057 0.92476 0.0
C341 C 0.47712 0.2009 0.9239 0.0
C342 C 0.47837 0.18326 0.93441 0.0
C343 C 0.45838 0.16971 0.94588 0.0
C344 C 0.43712 0.1744 0.94656 0.0
C345 C 0.43602 0.19228 0.93609 0.0
C346 C 0.4326 0.21432 0.89468 0.0
C347 C 0.43466 0.22906 0.88095 0.0
C348 C 0.41848 0.21746 0.86725 0.0
C349 C 0.40015 0.19074 0.86692 0.0
C350 C 0.39787 0.17606 0.88079 0.0
C351 C 0.41384 0.18778 0.89458 0.0
P352 P 0.80811 0.19225 0.93654 0.0
H353 H 0.85133 0.2179 0.96026 0.0
H354 H 0.87213 0.26041 0.97361 0.0
H355 H 0.82035 0.27922 0.9468 0.0
H356 H 0.79891 0.23606 0.93401 0.0
H357 H 0.79417 0.1677 0.96807 0.0
H358 H 0.75233 0.14126 0.98175 0.0
H359 H 0.71102 0.14837 0.94007 0.0
H360 H 0.75324 0.17589 0.92681 0.0
H361 H 0.83498 0.23396 0.91271 0.0
H362 H 0.77819 0.15213 0.91194 0.0
O363 O 0.82628 0.17847 0.94035 0.0
H364 H 0.83611 0.23378 0.88298 0.0
H365 H 0.77919 0.15184 0.88206 0.0
C366 C 0.82391 0.22404 0.94592 0.0
C367 C 0.84452 0.23121 0.95719 0.0
C368 C 0.85653 0.25565 0.96477 0.0
C369 C 0.84812 0.27344 0.96123 0.0
C370 C 0.8272 0.26599 0.94999 0.0
C371 C 0.81505 0.24141 0.94253 0.0
C372 C 0.77675 0.17307 0.94624 0.0
C373 C 0.77608 0.16351 0.96187 0.0
C374 C 0.75208 0.14827 0.96965 0.0
C375 C 0.72815 0.14222 0.96193 0.0
C376 C 0.729 0.15264 0.94643 0.0
C377 C 0.75313 0.16814 0.93871 0.0
C378 C 0.80583 0.1932 0.9146 0.0
C379 C 0.82211 0.21608 0.90618 0.0
C380 C 0.82281 0.21596 0.88911 0.0
C381 C 0.80764 0.19282 0.88013 0.0
C382 C 0.79117 0.16997 0.88862 0.0
C383 C 0.79038 0.17016 0.90569 0.0
P384 P 0.61417 0.80874 0.08205 0.0
H385 H 0.61592 0.77987 0.05353 0.0
H386 H 0.5953 0.73353 0.04713 0.0
H387 H 0.55471 0.71602 0.09322 0.0
H388 H 0.57541 0.76241 0.09955 0.0
H389 H 0.61422 0.85636 0.09124 0.0
H390 H 0.59229 0.87832 0.07978 0.0
H391 H 0.55501 0.81742 0.04317 0.0
H392 H 0.57594 0.79502 0.05522 0.0
H393 H 0.65862 0.8175 0.10265 0.0
H394 H 0.58241 0.81052 0.10926 0.0
O395 O 0.64328 0.823 0.07275 0.0
H396 H 0.66799 0.82645 0.13181 0.0
H397 H 0.59151 0.8192 0.13859 0.0
C398 C 0.59769 0.77457 0.07718 0.0
C399 C 0.60255 0.76606 0.06225 0.0
C400 C 0.59057 0.73957 0.05853 0.0
C401 C 0.57352 0.72111 0.06972 0.0
C402 C 0.56805 0.72978 0.08447 0.0
C403 C 0.57989 0.7563 0.0881 0.0
C404 C 0.59608 0.82361 0.07443 0.0
C405 C 0.60082 0.84743 0.08099 0.0
C406 C 0.58855 0.86018 0.07424 0.0
C407 C 0.57176 0.84967 0.06053 0.0
C408 C 0.56729 0.82585 0.05393 0.0
C409 C 0.57936 0.813 0.06081 0.0
C410 C 0.62012 0.81402 0.10375 0.0
C411 C 0.64387 0.81786 0.1104 0.0
C412 C 0.64911 0.82276 0.12712 0.0
C413 C 0.63056 0.82371 0.13753 0.0
C414 C 0.60638 0.81904 0.13086 0.0
C415 C 0.60114 0.81405 0.11412 0.0
P416 P 0.24493 0.77809 0.09364 0.0
H417 H 0.22213 0.72187 0.09272 0.0
H418 H 0.18723 0.6875 0.07619 0.0
H419 H 0.17551 0.74447 0.05112 0.0
H420 H 0.21106 0.77896 0.06759 0.0
H421 H 0.27689 0.77882 0.06684 0.0
H422 H 0.30817 0.81281 0.04914 0.0
H423 H 0.29226 0.86817 0.0736 0.0
H424 H 0.25985 0.83356 0.09072 0.0
H425 H 0.19136 0.75465 0.10668 0.0
H426 H 0.26813 0.81974 0.11836 0.0
O427 O 0.26281 0.76639 0.10195 0.0
H428 H 0.17427 0.76157 0.13214 0.0
H429 H 0.25072 0.82707 0.14385 0.0
C430 C 0.21941 0.75294 0.08118 0.0
C431 C 0.21222 0.72701 0.08359 0.0
C432 C 0.19207 0.70734 0.07421 0.0
C433 C 0.17855 0.71323 0.06232 0.0
C434 C 0.18578 0.73932 0.06 0.0
C435 C 0.20599 0.75902 0.06943 0.0
C436 C 0.26653 0.80378 0.08034 0.0
C437 C 0.28003 0.79827 0.06832 0.0
C438 C 0.29803 0.81778 0.05826 0.0
C439 C 0.30314 0.84339 0.0601 0.0
C440 C 0.28878 0.84867 0.07179 0.0
C441 C 0.27047 0.82895 0.08177 0.0
C442 C 0.23098 0.78705 0.11036 0.0
C443 C 0.20444 0.77093 0.11443 0.0
C444 C 0.19465 0.77475 0.12908 0.0
C445 C 0.2112 0.79481 0.13995 0.0
C446 C 0.2375 0.81164 0.13559 0.0
C447 C 0.2474 0.80754 0.121 0.0
P448 P 0.20736 0.41399 0.08223 0.0
H449 H 0.19075 0.41196 0.04863 0.0
H450 H 0.16294 0.42609 0.03527 0.0
H451 H 0.16038 0.46343 0.08026 0.0
H452 H 0.18945 0.45037 0.09324 0.0
H453 H 0.24149 0.392 0.08406 0.0
H454 H 0.28291 0.4026 0.07095 0.0
H455 H 0.28756 0.47145 0.05087 0.0
H456 H 0.24594 0.46086 0.06434 0.0
H457 H 0.16332 0.40262 0.10351 0.0
H458 H 0.24442 0.4223 0.10943 0.0
O459 O 0.19017 0.38285 0.07648 0.0
H460 H 0.1567 0.39565 0.13285 0.0
H461 H 0.2375 0.41428 0.13877 0.0
C462 C 0.19156 0.42944 0.07205 0.0
C463 C 0.18459 0.4236 0.05553 0.0
C464 C 0.16844 0.4315 0.04795 0.0
C465 C 0.15871 0.4453 0.05678 0.0
C466 C 0.16735 0.45276 0.07306 0.0
C467 C 0.18382 0.44506 0.08058 0.0
C468 C 0.24046 0.42545 0.07506 0.0
C469 C 0.25161 0.40965 0.0771 0.0
C470 C 0.27523 0.41566 0.06951 0.0
C471 C 0.28824 0.43761 0.05961 0.0
C472 C 0.27795 0.45439 0.05839 0.0
C473 C 0.25413 0.4483 0.06605 0.0
C474 C 0.20456 0.41373 0.10423 0.0
C475 C 0.17992 0.40613 0.11115 0.0
C476 C 0.17608 0.40196 0.12793 0.0
C477 C 0.19661 0.40449 0.13809 0.0
C478 C 0.22134 0.41219 0.1312 0.0
C479 C 0.22533 0.41691 0.11442 0.0
P480 P 0.46125 0.92495 0.26617 0.0
H481 H 0.4299 0.95002 0.26458 0.0
H482 H 0.3892 0.94192 0.27733 0.0
H483 H 0.3812 0.87275 0.29926 0.0
H484 H 0.42184 0.88046 0.28563 0.0
H485 H 0.48536 0.93522 0.29829 0.0
H486 H 0.51363 0.92185 0.31181 0.0
H487 H 0.50031 0.86829 0.27205 0.0
H488 H 0.47126 0.88143 0.25867 0.0
H489 H 0.42708 0.92532 0.23979 0.0
H490 H 0.49941 0.9234 0.24368 0.0
O491 O 0.47978 0.95659 0.27037 0.0
H492 H 0.43524 0.93571 0.21124 0.0
H493 H 0.50624 0.93063 0.21459 0.0
C494 C 0.429 0.91589 0.2741 0.0
C495 C 0.41918 0.93278 0.27183 0.0
C496 C 0.39598 0.92827 0.27934 0.0
C497 C 0.38215 0.90699 0.28968 0.0
C498 C 0.39134 0.88934 0.29141 0.0
C499 C 0.41463 0.89377 0.28366 0.0
C500 C 0.47697 0.91005 0.27719 0.0
C501 C 0.48816 0.92032 0.29255 0.0
C502 C 0.50444 0.91272 0.30025 0.0
C503 C 0.50984 0.89453 0.2928 0.0
C504 C 0.49673 0.88251 0.27806 0.0
C505 C 0.48027 0.89015 0.27033 0.0
C506 C 0.46233 0.92306 0.24408 0.0
C507 C 0.44424 0.92604 0.23442 0.0
C508 C 0.44892 0.93187 0.21781 0.0
C509 C 0.4717 0.93447 0.21026 0.0
C510 C 0.48886 0.92968 0.21981 0.0
C511 C 0.48457 0.92472 0.23654 0.0
P512 P 0.13441 0.56831 0.2456 0.0
H513 H 0.17156 0.6042 0.27003 0.0
H514 H 0.17608 0.64319 0.28362 0.0
H515 H 0.10486 0.63043 0.25964 0.0
H516 H 0.09992 0.59128 0.24648 0.0
H517 H 0.11908 0.51535 0.23681 0.0
H518 H 0.11375 0.47845 0.25244 0.0
H519 H 0.13276 0.52426 0.29689 0.0
H520 H 0.13765 0.56111 0.28123 0.0
H521 H 0.13834 0.57685 0.2102 0.0
H522 H 0.07691 0.53597 0.24525 0.0
O523 O 0.16402 0.57943 0.23726 0.0
H524 H 0.10537 0.56213 0.18823 0.0
H525 H 0.04376 0.52119 0.22332 0.0
C526 C 0.13539 0.59471 0.25726 0.0
C527 C 0.15654 0.60942 0.26803 0.0
C528 C 0.1591 0.63162 0.27582 0.0
C529 C 0.14081 0.63971 0.27265 0.0
C530 C 0.1192 0.62452 0.26228 0.0
C531 C 0.11641 0.60211 0.25473 0.0
C532 C 0.12833 0.54092 0.25782 0.0
C533 C 0.12167 0.51739 0.24995 0.0
C534 C 0.11866 0.49631 0.2589 0.0
C535 C 0.12271 0.49847 0.2759 0.0
C536 C 0.12961 0.52212 0.28379 0.0
C537 C 0.13231 0.54318 0.27482 0.0
C538 C 0.11007 0.55739 0.22935 0.0
C539 C 0.11776 0.5646 0.21317 0.0
C540 C 0.09891 0.55607 0.20059 0.0
C541 C 0.07196 0.54045 0.20402 0.0
C542 C 0.06434 0.53336 0.22029 0.0
C543 C 0.08324 0.5417 0.23283 0.0
P544 P 0.46367 0.52292 0.27283 0.0
H545 H 0.51107 0.55408 0.2928 0.0
H546 H 0.53577 0.60007 0.30006 0.0
H547 H 0.48036 0.61255 0.27228 0.0
H548 H 0.45608 0.56646 0.26475 0.0
H549 H 0.41707 0.47366 0.26428 0.0
H550 H 0.37249 0.45067 0.27536 0.0
H551 H 0.3921 0.51548 0.30796 0.0
H552 H 0.43658 0.5383 0.29688 0.0
H553 H 0.49809 0.51155 0.25309 0.0
H554 H 0.43431 0.52653 0.24479 0.0
O555 O 0.47728 0.50781 0.28236 0.0
H556 H 0.50078 0.5054 0.22384 0.0
H557 H 0.4374 0.52125 0.2153 0.0
C558 C 0.48176 0.55689 0.27821 0.0
C559 C 0.50421 0.56668 0.28827 0.0
C560 C 0.51822 0.593 0.29254 0.0
C561 C 0.51003 0.61005 0.28682 0.0
C562 C 0.48741 0.60006 0.27675 0.0
C563 C 0.47345 0.57371 0.27246 0.0
C564 C 0.42998 0.50792 0.27947 0.0
C565 C 0.41163 0.4831 0.27361 0.0
C566 C 0.38625 0.46989 0.28006 0.0
C567 C 0.37881 0.48127 0.29255 0.0
C568 C 0.39714 0.50635 0.2982 0.0
C569 C 0.42259 0.51945 0.29183 0.0
C570 C 0.46569 0.51903 0.25112 0.0
C571 C 0.48468 0.51359 0.24494 0.0
C572 C 0.48638 0.51034 0.22815 0.0
C573 C 0.46929 0.51279 0.21714 0.0
C574 C 0.45059 0.5188 0.22341 0.0
C575 C 0.44887 0.52196 0.24026 0.0
Gd576 Gd 0.51705 0.02104 0.02834 0.0
Gd577 Gd 0.49729 0.99338 0.98638 0.0
C578 C 0.4073 0.94365 0.98097 0.0
C579 C 0.40039 0.90005 0.98239 0.0
C580 C 0.44487 0.93732 0.98321 0.0
C581 C 0.43485 0.9539 0.98226 0.0
C582 C 0.42774 0.91018 0.98248 0.0
C583 C 0.39017 0.91677 0.98173 0.0
C584 C 0.39775 0.96061 0.97841 0.0
C585 C 0.41551 0.98678 0.9761 0.0
N586 N 0.45198 0.97986 0.98145 0.0
C587 C 0.44257 0.99597 0.9772 0.0
H588 H 0.4554 0.01588 0.97411 0.0
C589 C 0.48173 0.93204 0.97952 0.0
N590 N 0.47137 0.94764 0.98321 0.0
C591 C 0.46566 0.90508 0.97882 0.0
C592 C 0.43857 0.89404 0.98086 0.0
H593 H 0.50269 0.94026 0.9778 0.0
H594 H 0.36901 0.90867 0.98109 0.0
H595 H 0.5516 0.00064 0.05127 0.0
H596 H 0.37679 0.95351 0.97741 0.0
H597 H 0.40839 0.99989 0.97316 0.0
H598 H 0.38697 0.87929 0.98211 0.0
H599 H 0.51763 0.07927 0.02473 0.0
H600 H 0.63337 0.05727 0.04885 0.0
H601 H 0.59778 0.01447 0.05765 0.0
H602 H 0.633 0.13026 0.02564 0.0
H603 H 0.4742 0.89287 0.97671 0.0
H604 H 0.4261 0.87315 0.98026 0.0
H605 H 0.64638 0.1003 0.03655 0.0
H606 H 0.54912 0.124 0.01821 0.0
N607 N 0.56065 0.03445 0.03762 0.0
C608 C 0.61307 0.05119 0.04581 0.0
C609 C 0.59305 0.02703 0.05078 0.0
C610 C 0.6065 0.06782 0.03784 0.0
C611 C 0.57972 0.05891 0.03412 0.0
C612 C 0.56684 0.01923 0.04696 0.0
N613 N 0.5461 0.06679 0.02574 0.0
C614 C 0.57222 0.07561 0.02788 0.0
C615 C 0.55597 0.11047 0.02044 0.0
C616 C 0.58284 0.11904 0.02074 0.0
C617 C 0.53793 0.08448 0.02356 0.0
C618 C 0.59131 0.10183 0.02518 0.0
H619 H 0.59683 0.13927 0.01854 0.0
O620 O 0.49933 0.03622 0.04529 0.0
O621 O 0.4836 0.99585 0.01127 0.0
O622 O 0.49443 0.02922 0.98721 0.0
O623 O 0.49428 0.03758 0.01512 0.0
O624 O 0.48449 0.98096 0.03398 0.0
O625 O 0.51217 0.00967 0.05395 0.0
O626 O 0.52405 0.98823 0.97068 0.0
O627 O 0.53065 0.01707 1.00377 0.0
O628 O 0.52914 0.99072 0.02543 0.0
O629 O 0.50753 0.96799 1.00166 0.0
O630 O 0.53172 0.03296 0.9813 0.0
O631 O 0.49415 0.99584 0.9599 0.0
C632 C 0.47151 0.97665 0.02051 0.0
C633 C 0.61811 0.1103 0.02777 0.0
C634 C 0.62571 0.09328 0.03406 0.0
C635 C 0.50091 0.02315 0.05747 0.0
C636 C 0.4916 0.02447 0.07408 0.0
C637 C 0.47741 0.03746 0.07651 0.0
C638 C 0.49497 0.01129 0.08729 0.0
C639 C 0.48367 0.01064 0.10261 0.0
C640 C 0.46642 0.03702 0.09167 0.0
C641 C 0.46934 0.02359 0.1046 0.0
C642 C 0.49148 0.04189 0.99955 0.0
C643 C 0.54444 0.0361 0.99477 0.0
C644 C 0.51397 0.99198 0.95747 0.0
C645 C 0.52387 0.99088 0.94106 0.0
C646 C 0.54037 0.98023 0.93918 0.0
C647 C 0.51842 0.00175 0.92741 0.0
C648 C 0.52993 0.00251 0.91216 0.0
C649 C 0.55143 0.98059 0.92408 0.0
C650 C 0.54639 0.99174 0.91068 0.0
C651 C 0.52085 0.97072 0.01529 0.0
H652 H 0.47436 0.04761 0.06661 0.0
H653 H 0.50575 0.00106 0.08559 0.0
H654 H 0.45541 0.04699 0.09338 0.0
H655 H 0.46068 0.02363 0.11626 0.0
H656 H 0.5449 0.97175 0.94944 0.0
H657 H 0.50599 0.01031 0.92877 0.0
H658 H 0.56409 0.97232 0.92276 0.0
H659 H 0.55517 0.99167 0.89906 0.0
Gd660 Gd 0.98305 0.49856 0.03413 0.0
Gd661 Gd 0.01002 0.49926 0.99292 0.0
C662 C 0.02809 0.44161 0.96741 0.0
C663 C 0.07339 0.45704 0.97579 0.0
C664 C 0.05059 0.47944 0.98518 0.0
C665 C 0.02805 0.4615 0.97689 0.0
C666 C 0.07368 0.47762 0.98449 0.0
C667 C 0.05067 0.43912 0.96721 0.0
C668 C 0.00575 0.4254 0.95794 0.0
C669 C 0.98439 0.42964 0.95776 0.0
N670 N 0.00654 0.46437 0.97732 0.0
C671 C 0.98523 0.44953 0.96743 0.0
H672 H 0.9687 0.45283 0.96727 0.0
C673 C 0.07306 0.51889 1.00013 0.0
N674 N 0.05031 0.49928 0.99335 0.0
C675 C 0.09633 0.5178 0.99987 0.0
C676 C 0.09657 0.49689 0.99222 0.0
H677 H 0.07347 0.5352 0.0062 0.0
H678 H 0.05098 0.42379 0.96014 0.0
H679 H 0.01776 0.54473 0.06239 0.0
H680 H 0.00506 0.40999 0.95041 0.0
H681 H 0.96731 0.41768 0.95015 0.0
H682 H 0.09086 0.45521 0.97525 0.0
H683 H 0.91788 0.45666 0.02691 0.0
H684 H 0.98363 0.59339 0.06757 0.0
H685 H 0.01848 0.58329 0.07468 0.0
H686 H 0.90088 0.54461 0.03946 0.0
H687 H 0.11406 0.5331 0.00561 0.0
H688 H 0.11464 0.49613 0.99204 0.0
H689 H 0.93984 0.57915 0.05387 0.0
H690 H 0.87746 0.45837 0.0224 0.0
N691 N 0.98337 0.53382 0.04807 0.0
C692 C 0.98327 0.57655 0.06214 0.0
C693 C 0.003 0.57091 0.06617 0.0
C694 C 0.96236 0.55939 0.05201 0.0
C695 C 0.96283 0.53769 0.04535 0.0
C696 C 1.00245 0.54904 0.05926 0.0
N697 N 0.94163 0.49675 0.03286 0.0
C698 C 0.94105 0.51834 0.03748 0.0
C699 C 0.89536 0.47563 0.02633 0.0
C700 C 0.8952 0.49857 0.02957 0.0
C701 C 0.91868 0.47491 0.02844 0.0
C702 C 0.918 0.52007 0.03576 0.0
H703 H 0.87708 0.49906 0.02808 0.0
O704 O 0.95808 0.46306 0.0472 0.0
O705 O 0.00905 0.48968 0.01907 0.0
O706 O 0.98553 0.45756 0.99992 0.0
O707 O 0.95809 0.46121 0.01904 0.0
O708 O 0.02342 0.50601 0.04181 0.0
O709 O 0.9932 0.49361 0.05885 0.0
O710 O 0.0381 0.53166 0.97855 0.0
O711 O 0.98478 0.50913 0.00809 0.0
O712 O 0.0131 0.54018 0.02914 0.0
O713 O 0.03503 0.5381 0.00573 0.0
O714 O 0.96934 0.49145 0.98578 0.0
O715 O 0.99853 0.50621 0.96912 0.0
C716 C 0.02815 0.49665 0.02885 0.0
C717 C 0.91818 0.54269 0.04098 0.0
C718 C 0.94037 0.56236 0.04915 0.0
C719 C 0.97176 0.47149 0.06072 0.0
C720 C 0.95731 0.468 0.07616 0.0
C721 C 0.92974 0.45247 0.07652 0.0
C722 C 0.97121 0.47929 0.09087 0.0
C723 C 0.95776 0.47524 0.10578 0.0
C724 C 0.91632 0.44825 0.0912 0.0
C725 C 0.93013 0.4594 0.10571 0.0
C726 C 0.96328 0.44773 0.00808 0.0
C727 C 0.96533 0.50178 0.99856 0.0
C728 C 0.02241 0.52439 0.96579 0.0
C729 C 0.03301 0.52119 0.95014 0.0
C730 C 0.05745 0.52214 0.94948 0.0
C731 C 0.01792 0.51593 0.93573 0.0
C732 C 0.02704 0.51162 0.9208 0.0
C733 C 0.06663 0.51801 0.9347 0.0
C734 C 0.0516 0.51279 0.92044 0.0
C735 C 0.03248 0.55055 0.01847 0.0
H736 H 0.91848 0.44336 0.06548 0.0
H737 H 0.99247 0.49139 0.09067 0.0
H738 H 0.89509 0.43609 0.09137 0.0
H739 H 0.91911 0.45527 0.11693 0.0
H740 H 0.0694 0.52585 0.96038 0.0
H741 H 0.99908 0.51521 0.93618 0.0
H742 H 0.0854 0.51864 0.93432 0.0
H743 H 0.05898 0.50921 0.90919 0.0
Gd744 Gd 0.49158 0.51206 0.99182 0.0
Gd745 Gd 0.51101 0.48873 0.02853 0.0
C746 C 0.59009 0.49098 0.02979 0.0
C747 C 0.57642 0.44514 0.02954 0.0
C748 C 0.54369 0.45881 0.02975 0.0
C749 C 0.5634 0.48443 0.02963 0.0
C750 C 0.54991 0.43883 0.03007 0.0
C751 C 0.59648 0.47119 0.02939 0.0
C752 C 0.6095 0.51719 0.0307 0.0
C753 C 0.60204 0.53601 0.03199 0.0
N754 N 0.55645 0.50298 0.02999 0.0
C755 C 0.57529 0.52852 0.03181 0.0
H756 H 0.56994 0.54335 0.03267 0.0
C757 C 0.49831 0.42863 0.03241 0.0
N758 N 0.51838 0.45348 0.03033 0.0
C759 C 0.50343 0.40808 0.03265 0.0
C760 C 0.52934 0.41318 0.03129 0.0
H761 H 0.47823 0.42463 0.03332 0.0
H762 H 0.61687 0.47583 0.02933 0.0
H763 H 0.42981 0.46323 0.98552 0.0
H764 H 0.63023 0.52306 0.03078 0.0
H765 H 0.61688 0.55632 0.033 0.0
H766 H 0.58162 0.43007 0.0296 0.0
H767 H 0.53162 0.57475 0.98346 0.0
H768 H 0.37768 0.49392 0.98575 0.0
H769 H 0.38479 0.4564 0.98394 0.0
H770 H 0.43687 0.58567 0.98532 0.0
H771 H 0.48741 0.38836 0.03384 0.0
H772 H 0.53327 0.39725 0.03151 0.0
H773 H 0.39735 0.54236 0.98674 0.0
H774 H 0.52894 0.61436 0.97977 0.0
N775 N 0.44801 0.50398 0.98932 0.0
C776 C 0.39749 0.49699 0.98665 0.0
C777 C 0.40143 0.47579 0.98557 0.0
C778 C 0.4193 0.52201 0.98797 0.0
C779 C 0.44465 0.52489 0.98908 0.0
C780 C 0.42701 0.47974 0.98658 0.0
N781 N 0.49062 0.55071 0.98796 0.0
C782 C 0.46674 0.54912 0.98826 0.0
C783 C 0.51131 0.59618 0.98231 0.0
C784 C 0.48707 0.59514 0.98368 0.0
C785 C 0.51273 0.57363 0.98441 0.0
C786 C 0.4643 0.57132 0.98639 0.0
H787 H 0.48603 0.61264 0.98209 0.0
O788 O 0.51427 0.52362 0.96955 0.0
O789 O 0.52088 0.50419 1.00366 0.0
O790 O 0.52451 0.53183 0.02991 0.0
O791 O 0.49877 0.54085 0.01216 0.0
O792 O 0.53603 0.53745 0.99037 0.0
O793 O 0.47497 0.49017 0.96918 0.0
O794 O 0.49126 0.47148 0.05127 0.0
O795 O 0.48066 0.49496 0.01661 0.0
O796 O 0.47341 0.46815 0.99183 0.0
O797 O 0.50161 0.46002 0.00775 0.0
O798 O 0.46726 0.46239 0.03107 0.0
O799 O 0.52432 0.51082 0.05114 0.0
C800 C 0.54209 0.523 0.99877 0.0
C801 C 0.43916 0.56881 0.98651 0.0
C802 C 0.41666 0.54416 0.98732 0.0
C803 C 0.49567 0.50535 0.96068 0.0
C804 C 0.49128 0.51288 0.94449 0.0
C805 C 0.48575 0.53304 0.94259 0.0
C806 C 0.49433 0.50059 0.93064 0.0
C807 C 0.49237 0.50859 0.91487 0.0
C808 C 0.48372 0.54106 0.92693 0.0
C809 C 0.48719 0.52907 0.91313 0.0
C810 C 0.51455 0.5464 0.02506 0.0
C811 C 0.46024 0.47569 0.02224 0.0
C812 C 0.50697 0.49199 0.05998 0.0
C813 C 0.51644 0.48766 0.07556 0.0
C814 C 0.53664 0.4816 0.07615 0.0
C815 C 0.50536 0.49029 0.09012 0.0
C816 C 0.51438 0.487 0.10536 0.0
C817 C 0.54574 0.47831 0.09122 0.0
C818 C 0.53477 0.48103 0.10574 0.0
C819 C 0.48321 0.45328 0.99629 0.0
H820 H 0.48336 0.54275 0.95315 0.0
H821 H 0.49888 0.48519 0.93217 0.0
H822 H 0.47958 0.55672 0.9255 0.0
H823 H 0.48549 0.53554 0.90111 0.0
H824 H 0.54539 0.47956 0.06502 0.0
H825 H 0.48998 0.49533 0.08955 0.0
H826 H 0.56134 0.47363 0.09166 0.0
H827 H 0.54199 0.4781 0.11725 0.0
Gd828 Gd 0.17359 0.35417 0.36112 0.0
Gd829 Gd 0.1541 0.31512 0.32238 0.0
C830 C 0.07895 0.23657 0.31593 0.0
C831 C 0.09623 0.20718 0.31324 0.0
C832 C 0.12605 0.25356 0.31661 0.0
C833 C 0.1049 0.2576 0.31757 0.0
C834 C 0.12203 0.22837 0.31412 0.0
C835 C 0.07471 0.21128 0.31411 0.0
C836 C 0.05811 0.24167 0.31566 0.0
C837 C 0.06354 0.2673 0.31629 0.0
N838 N 0.10976 0.2823 0.31912 0.0
C839 C 0.08965 0.2875 0.31773 0.0
H840 H 0.09357 0.30719 0.31823 0.0
C841 C 0.17217 0.2718 0.31462 0.0
N842 N 0.15067 0.2745 0.31736 0.0
C843 C 0.16921 0.2472 0.31219 0.0
C844 C 0.14405 0.22534 0.31216 0.0
H845 H 0.19172 0.28853 0.31467 0.0
H846 H 0.05491 0.19485 0.31301 0.0
H847 H 0.23119 0.3547 0.36453 0.0
H848 H 0.03788 0.22606 0.31451 0.0
H849 H 0.04763 0.27154 0.3157 0.0
H850 H 0.09271 0.18765 0.31147 0.0
H851 H 0.14259 0.3873 0.36825 0.0
H852 H 0.29361 0.43342 0.36788 0.0
H853 H 0.27847 0.38652 0.36664 0.0
H854 H 0.24804 0.48143 0.37069 0.0
H855 H 0.18633 0.24514 0.3103 0.0
H856 H 0.1418 0.20632 0.31021 0.0
H857 H 0.28207 0.46877 0.36926 0.0
H858 H 0.15343 0.43289 0.37188 0.0
N859 N 0.21926 0.38313 0.36416 0.0
C860 C 0.27273 0.4195 0.367 0.0
C861 C 0.26425 0.39305 0.36634 0.0
C862 C 0.25409 0.42762 0.36693 0.0
C863 C 0.22716 0.40869 0.36563 0.0
C864 C 0.2373 0.37502 0.36515 0.0
N865 N 0.18253 0.39687 0.36577 0.0
C866 C 0.20815 0.4158 0.36639 0.0
C867 C 0.16902 0.42836 0.37032 0.0
C868 C 0.19532 0.44822 0.37023 0.0
C869 C 0.16296 0.40261 0.36831 0.0
C870 C 0.21531 0.44205 0.36852 0.0
H871 H 0.19999 0.46816 0.37183 0.0
O872 O 0.15291 0.34995 0.38387 0.0
O873 O 0.14297 0.31989 0.34758 0.0
O874 O 0.13868 0.34329 0.32372 0.0
O875 O 0.16651 0.37682 0.34171 0.0
O876 O 0.12989 0.33925 0.36255 0.0
O877 O 0.18429 0.3408 0.38282 0.0
O878 O 0.17703 0.32549 0.30018 0.0
O879 O 0.18405 0.35006 0.33584 0.0
O880 O 0.18558 0.32321 0.3605 0.0
O881 O 0.15831 0.29086 0.3416 0.0
O882 O 0.1982 0.33151 0.32132 0.0
O883 O 0.13898 0.32319 0.30024 0.0
C884 C 0.12264 0.31969 0.35279 0.0
C885 C 0.24211 0.46113 0.36921 0.0
C886 C 0.26147 0.45392 0.36841 0.0
C887 C 0.16711 0.34257 0.39199 0.0
C888 C 0.17621 0.35407 0.40835 0.0
C889 C 0.19433 0.38055 0.41041 0.0
C890 C 0.16652 0.33818 0.42209 0.0
C891 C 0.17457 0.34862 0.438 0.0
C892 C 0.20256 0.39107 0.42609 0.0
C893 C 0.19275 0.37533 0.43979 0.0
C894 C 0.14887 0.36728 0.32965 0.0
C895 C 0.20487 0.35126 0.3308 0.0
C896 C 0.15931 0.32731 0.29159 0.0
C897 C 0.15412 0.31579 0.27509 0.0
C898 C 0.14441 0.28919 0.27268 0.0
C899 C 0.16006 0.33196 0.26152 0.0
C900 C 0.1566 0.32177 0.24552 0.0
C901 C 0.14088 0.27891 0.25685 0.0
C902 C 0.14701 0.29504 0.24335 0.0
C903 C 0.17431 0.29924 0.35443 0.0
H904 H 0.20203 0.39302 0.39994 0.0
H905 H 0.15284 0.31764 0.42032 0.0
H906 H 0.21646 0.41157 0.42765 0.0
H907 H 0.19908 0.38422 0.45178 0.0
H908 H 0.13979 0.27648 0.283 0.0
H909 H 0.16785 0.35258 0.26346 0.0
H910 H 0.13341 0.25836 0.25504 0.0
H911 H 0.14386 0.28653 0.23121 0.0
Gd912 Gd 0.65022 0.82664 0.35974 0.0
Gd913 Gd 0.6826 0.84177 0.32015 0.0
C914 C 0.71362 0.79187 0.29747 0.0
C915 C 0.75657 0.80947 0.31051 0.0
C916 C 0.72827 0.82728 0.31706 0.0
C917 C 0.70904 0.80942 0.30662 0.0
C918 C 0.75252 0.82789 0.31885 0.0
C919 C 0.7371 0.7914 0.29989 0.0
C920 C 0.6952 0.77642 0.28546 0.0
C921 C 0.67383 0.77991 0.28211 0.0
N922 N 0.68697 0.81093 0.3042 0.0
C923 C 0.6705 0.79797 0.2913 0.0
H924 H 0.65442 0.80124 0.28839 0.0
C925 C 0.74384 0.8654 0.33315 0.0
N926 N 0.72402 0.84529 0.32453 0.0
C927 C 0.76818 0.86676 0.33534 0.0
C928 C 0.77238 0.84765 0.32841 0.0
H929 H 0.74095 0.88027 0.33865 0.0
H930 H 0.74086 0.77789 0.2931 0.0
H931 H 0.64735 0.88113 0.36196 0.0
H932 H 0.698 0.76272 0.27816 0.0
H933 H 0.66013 0.76899 0.27233 0.0
H934 H 0.77504 0.8096 0.31176 0.0
H935 H 0.61927 0.76433 0.37052 0.0
H936 H 0.56625 0.86102 0.36269 0.0
H937 H 0.61358 0.89436 0.36282 0.0
H938 H 0.52061 0.76842 0.36708 0.0
H939 H 0.7836 0.88245 0.34248 0.0
H940 H 0.79125 0.84874 0.33012 0.0
H941 H 0.53156 0.81379 0.36398 0.0
H942 H 0.57359 0.72847 0.37448 0.0
N943 N 0.61941 0.84081 0.36114 0.0
C944 C 0.58099 0.85513 0.36238 0.0
C945 C 0.60768 0.874 0.36252 0.0
C946 C 0.57368 0.82888 0.36251 0.0
C947 C 0.59365 0.82229 0.36204 0.0
C948 C 0.62676 0.86644 0.36205 0.0
N949 N 0.60756 0.79176 0.36452 0.0
C950 C 0.5875 0.79687 0.3638 0.0
C951 C 0.57721 0.74757 0.37134 0.0
C952 C 0.55616 0.75212 0.36951 0.0
C953 C 0.60299 0.76787 0.36915 0.0
C954 C 0.5612 0.77716 0.36608 0.0
H955 H 0.53621 0.73641 0.37133 0.0
O956 O 0.6606 0.81399 0.382 0.0
O957 O 0.6859 0.83326 0.34612 0.0
O958 O 0.65416 0.79859 0.3212 0.0
O959 O 0.62486 0.79392 0.34199 0.0
O960 O 0.6661 0.79926 0.35908 0.0
O961 O 0.65595 0.8476 0.38269 0.0
O962 O 0.71236 0.87538 0.3073 0.0
O963 O 0.65434 0.84643 0.33606 0.0
O964 O 0.68254 0.86868 0.36047 0.0
O965 O 0.69965 0.87965 0.33416 0.0
O966 O 0.64199 0.83259 0.31244 0.0
O967 O 0.67358 0.85221 0.29665 0.0
C968 C 0.68678 0.8134 0.35057 0.0
C969 C 0.541 0.78333 0.36555 0.0
C970 C 0.54724 0.80917 0.36378 0.0
C971 C 0.66036 0.83181 0.39115 0.0
C972 C 0.64646 0.82322 0.40676 0.0
C973 C 0.61894 0.81155 0.40733 0.0
C974 C 0.66082 0.82629 0.42123 0.0
C975 C 0.64769 0.81721 0.43616 0.0
C976 C 0.60585 0.80267 0.42211 0.0
C977 C 0.62006 0.80532 0.43642 0.0
C978 C 0.63146 0.78539 0.32886 0.0
C979 C 0.63568 0.83969 0.3258 0.0
C980 C 0.69782 0.87011 0.29419 0.0
C981 C 0.7092 0.86799 0.27856 0.0
C982 C 0.73296 0.86758 0.27818 0.0
C983 C 0.6953 0.86483 0.26389 0.0
C984 C 0.70489 0.86125 0.2489 0.0
C985 C 0.74269 0.86426 0.26337 0.0
C986 C 0.72885 0.86116 0.24884 0.0
C987 C 0.69842 0.88547 0.34963 0.0
H988 H 0.60759 0.80928 0.39638 0.0
H989 H 0.6821 0.83522 0.42081 0.0
H990 H 0.5846 0.79363 0.42246 0.0
H991 H 0.60947 0.79828 0.44775 0.0
H992 H 0.74393 0.86958 0.28929 0.0
H993 H 0.67665 0.86449 0.26425 0.0
H994 H 0.76103 0.86403 0.26317 0.0
H995 H 0.73707 0.85892 0.23753 0.0
Gd996 Gd 0.15704 0.84809 0.31976 0.0
Gd997 Gd 0.18168 0.83606 0.35873 0.0
C998 C 0.26366 0.84599 0.36503 0.0
C999 C 0.25371 0.80142 0.36785 0.0
C1000 C 0.21833 0.81107 0.36432 0.0
C1001 C 0.23652 0.83716 0.36322 0.0
C1002 C 0.22665 0.79292 0.36699 0.0
C1003 C 0.27219 0.82793 0.36693 0.0
C1004 C 0.28129 0.87272 0.36556 0.0
C1005 C 0.27156 0.88983 0.36514 0.0
N1006 N 0.22752 0.85406 0.36175 0.0
C1007 C 0.24443 0.88009 0.36351 0.0
H1008 H 0.23719 0.89354 0.36322 0.0
C1009 C 0.17365 0.77861 0.36691 0.0
N1010 N 0.19238 0.80364 0.36377 0.0
C1011 C 0.1809 0.75983 0.36949 0.0
C1012 C 0.2075 0.76694 0.36929 0.0
H1013 H 0.15304 0.773 0.36693 0.0
H1014 H 0.29297 0.83432 0.36815 0.0
H1015 H 0.10136 0.79009 0.31996 0.0
H1016 H 0.3023 0.8803 0.36687 0.0
H1017 H 0.28495 0.91053 0.36603 0.0
H1018 H 0.26052 0.78776 0.36975 0.0
H1019 H 0.18425 0.91021 0.30912 0.0
H1020 H 0.03565 0.80246 0.31693 0.0
H1021 H 0.0534 0.77271 0.31939 0.0
H1022 H 0.07617 0.89404 0.30861 0.0
H1023 H 0.16596 0.73989 0.37156 0.0
H1024 H 0.21307 0.75238 0.37134 0.0
H1025 H 0.04435 0.84789 0.31302 0.0
H1026 H 0.17037 0.94231 0.30357 0.0
N1027 N 0.11092 0.8295 0.31832 0.0
C1028 C 0.05678 0.81023 0.31716 0.0
C1029 C 0.06672 0.79338 0.31851 0.0
C1030 C 0.07423 0.83685 0.31565 0.0
C1031 C 0.10154 0.84596 0.31617 0.0
C1032 C 0.09399 0.80335 0.31882 0.0
N1033 N 0.14539 0.87961 0.31382 0.0
C1034 C 0.11936 0.87186 0.31382 0.0
C1035 C 0.15582 0.92259 0.30653 0.0
C1036 C 0.12918 0.91521 0.30727 0.0
C1037 C 0.16361 0.90436 0.30965 0.0
C1038 C 0.11051 0.88949 0.31073 0.0
H1039 H 0.12318 0.92936 0.30481 0.0
O1040 O 0.17846 0.86024 0.29701 0.0
O1041 O 0.19074 0.84941 0.33314 0.0
O1042 O 0.19056 0.87809 0.35691 0.0
O1043 O 0.16077 0.87824 0.33778 0.0
O1044 O 0.19955 0.87951 0.31735 0.0
O1045 O 0.14223 0.82328 0.29815 0.0
O1046 O 0.16277 0.8212 0.38205 0.0
O1047 O 0.14878 0.8359 0.34548 0.0
O1048 O 0.14859 0.80671 0.32233 0.0
O1049 O 0.18083 0.80782 0.33957 0.0
O1050 O 0.1382 0.8061 0.36131 0.0
O1051 O 0.19281 0.86168 0.37991 0.0
C1052 C 0.20935 0.87006 0.32743 0.0
C1053 C 0.08337 0.88075 0.3108 0.0
C1054 C 0.06525 0.85447 0.3133 0.0
C1055 C 0.16129 0.83967 0.28896 0.0
C1056 C 0.15413 0.84379 0.27256 0.0
C1057 C 0.1418 0.85848 0.27011 0.0
C1058 C 0.16061 0.83342 0.25909 0.0
C1059 C 0.15518 0.83789 0.2431 0.0
C1060 C 0.13631 0.86298 0.25425 0.0
C1061 C 0.14306 0.85289 0.2408 0.0
C1062 C 0.17748 0.88869 0.35021 0.0
C1063 C 0.12915 0.81669 0.35157 0.0
C1064 C 0.17706 0.84331 0.38968 0.0
C1065 C 0.18813 0.84237 0.40562 0.0
C1066 C 0.21119 0.84088 0.40668 0.0
C1067 C 0.17555 0.84331 0.41999 0.0
C1068 C 0.18598 0.84288 0.43545 0.0
C1069 C 0.22166 0.84044 0.42192 0.0
C1070 C 0.20922 0.84145 0.43622 0.0
C1071 C 0.16406 0.7977 0.32712 0.0
H1072 H 0.13661 0.86655 0.28037 0.0
H1073 H 0.17034 0.82225 0.26107 0.0
H1074 H 0.12683 0.87437 0.25238 0.0
H1075 H 0.13847 0.85649 0.22863 0.0
H1076 H 0.22112 0.84013 0.39576 0.0
H1077 H 0.15786 0.84473 0.41911 0.0
H1078 H 0.23946 0.83925 0.42267 0.0
H1079 H 0.21758 0.8407 0.44787 0.0
Gd1080 Gd 0.84382 0.67675 0.69301 0.0
Gd1081 Gd 0.81943 0.64362 0.65243 0.0
C1082 C 0.74034 0.56837 0.64686 0.0
C1083 C 0.75378 0.53808 0.63711 0.0
C1084 C 0.78648 0.58326 0.64239 0.0
C1085 C 0.76697 0.58826 0.64722 0.0
C1086 C 0.78012 0.5583 0.63684 0.0
C1087 C 0.73392 0.5431 0.64216 0.0
C1088 C 0.72097 0.57464 0.65077 0.0
C1089 C 0.72833 0.6004 0.65423 0.0
N1090 N 0.77395 0.61295 0.65144 0.0
C1091 C 0.755 0.61947 0.65421 0.0
H1092 H 0.76031 0.63923 0.65696 0.0
C1093 C 0.83114 0.60016 0.63549 0.0
N1094 N 0.81158 0.60328 0.6422 0.0
C1095 C 0.82586 0.57577 0.62979 0.0
C1096 C 0.8003 0.55463 0.6307 0.0
H1097 H 0.85098 0.61633 0.63485 0.0
H1098 H 0.71361 0.5275 0.64196 0.0
H1099 H 0.90221 0.67963 0.69672 0.0
H1100 H 0.7003 0.55992 0.65074 0.0
H1101 H 0.71348 0.60558 0.65695 0.0
H1102 H 0.74851 0.51869 0.63306 0.0
H1103 H 0.80996 0.70646 0.70286 0.0
H1104 H 0.96222 0.75925 0.70207 0.0
H1105 H 0.94913 0.71287 0.69988 0.0
H1106 H 0.91299 0.80344 0.70648 0.0
H1107 H 0.84152 0.57328 0.62478 0.0
H1108 H 0.79624 0.53577 0.62628 0.0
H1109 H 0.94855 0.79301 0.70427 0.0
H1110 H 0.81867 0.75105 0.70817 0.0
N1111 N 0.88892 0.70694 0.69646 0.0
C1112 C 0.9416 0.74474 0.70063 0.0
C1113 C 0.93428 0.71859 0.69944 0.0
C1114 C 0.92211 0.75176 0.70057 0.0
C1115 C 0.89557 0.73211 0.69862 0.0
C1116 C 0.90766 0.6998 0.69761 0.0
N1117 N 0.85032 0.7182 0.69936 0.0
C1118 C 0.87562 0.73795 0.70009 0.0
C1119 C 0.83486 0.74765 0.70585 0.0
C1120 C 0.86074 0.76839 0.70578 0.0
C1121 C 0.83 0.72244 0.70292 0.0
C1122 C 0.88156 0.76363 0.70323 0.0
H1123 H 0.86446 0.78788 0.70816 0.0
O1124 O 0.82287 0.66744 0.71594 0.0
O1125 O 0.81233 0.64372 0.67901 0.0
O1126 O 0.80622 0.6724 0.65914 0.0
O1127 O 0.83994 0.70364 0.67537 0.0
O1128 O 0.79988 0.65993 0.69655 0.0
O1129 O 0.85865 0.66541 0.71392 0.0
O1130 O 0.83903 0.65713 0.62914 0.0
O1131 O 0.85223 0.6745 0.66697 0.0
O1132 O 0.85614 0.64628 0.68845 0.0
O1133 O 0.82924 0.61799 0.66739 0.0
O1134 O 0.86258 0.65862 0.64778 0.0
O1135 O 0.80287 0.6573 0.6339 0.0
C1136 C 0.79213 0.64112 0.68609 0.0
C1137 C 0.908 0.78353 0.70423 0.0
C1138 C 0.92825 0.77759 0.70297 0.0
C1139 C 0.84003 0.66341 0.72355 0.0
C1140 C 0.84796 0.67525 0.73994 0.0
C1141 C 0.8609 0.70226 0.74204 0.0
C1142 C 0.84098 0.65934 0.75374 0.0
C1143 C 0.84631 0.67035 0.76959 0.0
C1144 C 0.86645 0.71328 0.75771 0.0
C1145 C 0.85905 0.69747 0.77141 0.0
C1146 C 0.82028 0.69644 0.66484 0.0
C1147 C 0.8715 0.67544 0.65953 0.0
C1148 C 0.82079 0.66109 0.62317 0.0
C1149 C 0.81143 0.65069 0.6066 0.0
C1150 C 0.79123 0.62498 0.60417 0.0
C1151 C 0.82336 0.66648 0.59305 0.0
C1152 C 0.81528 0.65669 0.57702 0.0
C1153 C 0.78303 0.61514 0.58836 0.0
C1154 C 0.79495 0.63079 0.57488 0.0
C1155 C 0.84587 0.62402 0.67995 0.0
H1156 H 0.86637 0.71479 0.73159 0.0
H1157 H 0.83077 0.63844 0.75215 0.0
H1158 H 0.87634 0.73414 0.75925 0.0
H1159 H 0.86353 0.70645 0.78346 0.0
H1160 H 0.78189 0.61252 0.61445 0.0
H1161 H 0.83883 0.6864 0.59504 0.0
H1162 H 0.76752 0.59523 0.58654 0.0
H1163 H 0.78853 0.62241 0.56277 0.0
Gd1164 Gd 0.30723 0.15757 0.69755 0.0
Gd1165 Gd 0.34456 0.17601 0.65977 0.0
C1166 C 0.40835 0.15339 0.65731 0.0
C1167 C 0.44851 0.19535 0.65744 0.0
C1168 C 0.40577 0.19265 0.65885 0.0
C1169 C 0.39342 0.16595 0.65854 0.0
C1170 C 0.43344 0.20769 0.65776 0.0
C1171 C 0.43596 0.16822 0.65714 0.0
C1172 C 0.39505 0.12637 0.65558 0.0
C1173 C 0.36758 0.11268 0.65456 0.0
N1174 N 0.36672 0.15228 0.65827 0.0
C1175 C 0.35366 0.12603 0.65582 0.0
H1176 H 0.33247 0.11517 0.65507 0.0
C1177 C 0.40157 0.22972 0.65546 0.0
N1178 N 0.39055 0.20383 0.65853 0.0
C1179 C 0.42891 0.24551 0.65448 0.0
C1180 C 0.44499 0.23454 0.65602 0.0
H1181 H 0.38915 0.23825 0.65418 0.0
H1182 H 0.44776 0.15891 0.65632 0.0
H1183 H 0.3381 0.19049 0.73139 0.0
H1184 H 0.40579 0.116 0.6546 0.0
H1185 H 0.35709 0.09182 0.65291 0.0
H1186 H 0.4698 0.20656 0.65677 0.0
H1187 H 0.25139 0.13131 0.67518 0.0
H1188 H 0.29781 0.22869 0.74983 0.0
H1189 H 0.3339 0.21869 0.75217 0.0
H1190 H 0.22301 0.19776 0.71395 0.0
H1191 H 0.43753 0.26607 0.6524 0.0
H1192 H 0.46616 0.24677 0.6551 0.0
H1193 H 0.25659 0.22102 0.73534 0.0
H1194 H 0.21114 0.13419 0.6732 0.0
N1195 N 0.3057 0.18596 0.71707 0.0
C1196 C 0.29974 0.21653 0.74064 0.0
C1197 C 0.32012 0.21093 0.74201 0.0
C1198 C 0.28138 0.20542 0.72783 0.0
C1199 C 0.28471 0.18965 0.71623 0.0
C1200 C 0.3225 0.19507 0.73024 0.0
N1201 N 0.26876 0.16001 0.69403 0.0
C1202 C 0.26563 0.17623 0.70436 0.0
C1203 C 0.22639 0.1463 0.68193 0.0
C1204 C 0.22335 0.16366 0.69199 0.0
C1205 C 0.2493 0.14466 0.68314 0.0
C1206 C 0.24292 0.17866 0.70354 0.0
H1207 H 0.20562 0.16497 0.69096 0.0
O1208 O 0.27379 0.12485 0.70892 0.0
O1209 O 0.33664 0.15328 0.68247 0.0
O1210 O 0.30731 0.13805 0.65538 0.0
O1211 O 0.28728 0.12253 0.68049 0.0
O1212 O 0.34681 0.16555 0.70663 0.0
O1213 O 0.313 0.13846 0.7183 0.0
O1214 O 0.34863 0.1978 0.63777 0.0
O1215 O 0.30878 0.1714 0.67224 0.0
O1216 O 0.33503 0.20089 0.69864 0.0
O1217 O 0.36696 0.20718 0.6793 0.0
O1218 O 0.33192 0.20588 0.65982 0.0
O1219 O 0.33402 0.15663 0.6361 0.0
C1220 C 0.35419 0.15918 0.69342 0.0
C1221 C 0.24019 0.19545 0.7145 0.0
C1222 C 0.25935 0.20875 0.72665 0.0
C1223 C 0.28794 0.12463 0.72115 0.0
C1224 C 0.27983 0.12756 0.73781 0.0
C1225 C 0.2575 0.13016 0.74017 0.0
C1226 C 0.29597 0.13036 0.75138 0.0
C1227 C 0.29042 0.1365 0.76698 0.0
C1228 C 0.25171 0.13587 0.75566 0.0
C1229 C 0.26811 0.13921 0.76896 0.0
C1230 C 0.2891 0.11992 0.66456 0.0
C1231 C 0.31096 0.19293 0.66832 0.0
C1232 C 0.34102 0.17779 0.62812 0.0
C1233 C 0.35664 0.18145 0.61342 0.0
C1234 C 0.38233 0.18555 0.61437 0.0
C1235 C 0.34516 0.17997 0.59813 0.0
C1236 C 0.35917 0.18256 0.5837 0.0
C1237 C 0.39642 0.18821 0.60011 0.0
C1238 C 0.38496 0.1867 0.58485 0.0
C1239 C 0.35853 0.215 0.692 0.0
H1240 H 0.24477 0.12836 0.73002 0.0
H1241 H 0.31346 0.12879 0.74966 0.0
H1242 H 0.2346 0.13804 0.75732 0.0
H1243 H 0.26324 0.14373 0.78084 0.0
H1244 H 0.39139 0.18653 0.62605 0.0
H1245 H 0.32509 0.17628 0.59749 0.0
H1246 H 0.41627 0.19141 0.6009 0.0
H1247 H 0.39636 0.18904 0.57397 0.0
Gd1248 Gd 0.82008 0.17721 0.65142 0.0
Gd1249 Gd 0.84119 0.16228 0.69056 0.0
C1250 C 0.92076 0.1661 0.69468 0.0
C1251 C 0.90771 0.12073 0.69793 0.0
C1252 C 0.8745 0.13358 0.69556 0.0
C1253 C 0.89398 0.15915 0.69396 0.0
C1254 C 0.88111 0.11413 0.69797 0.0
C1255 C 0.92751 0.14668 0.69627 0.0
C1256 C 0.93993 0.19239 0.69416 0.0
C1257 C 0.93213 0.211 0.69355 0.0
N1258 N 0.88672 0.17739 0.69247 0.0
C1259 C 0.90531 0.20314 0.69288 0.0
H1260 H 0.89967 0.21777 0.69226 0.0
C1261 C 0.82931 0.10363 0.69946 0.0
N1262 N 0.84906 0.12797 0.6957 0.0
C1263 C 0.83483 0.0836 0.7018 0.0
C1264 C 0.86082 0.0888 0.70084 0.0
H1265 H 0.80917 0.09955 0.70006 0.0
H1266 H 0.94798 0.15159 0.69665 0.0
H1267 H 0.75929 0.12467 0.65136 0.0
H1268 H 0.96072 0.19854 0.69461 0.0
H1269 H 0.94677 0.23141 0.69347 0.0
H1270 H 0.91319 0.10602 0.69958 0.0
H1271 H 0.85659 0.23945 0.64098 0.0
H1272 H 0.70302 0.14989 0.64655 0.0
H1273 H 0.7132 0.11462 0.64997 0.0
H1274 H 0.75675 0.24125 0.63791 0.0
H1275 H 0.81906 0.06418 0.7043 0.0
H1276 H 0.86507 0.07328 0.70271 0.0
H1277 H 0.71947 0.19724 0.64214 0.0
H1278 H 0.85036 0.27652 0.63484 0.0
N1279 N 0.77537 0.16543 0.64925 0.0
C1280 C 0.72336 0.15445 0.64716 0.0
C1281 C 0.72903 0.13449 0.64904 0.0
C1282 C 0.74403 0.17998 0.64564 0.0
C1283 C 0.77017 0.18487 0.64663 0.0
C1284 C 0.75528 0.14031 0.64981 0.0
N1285 N 0.81583 0.21329 0.64486 0.0
C1286 C 0.79106 0.20958 0.64431 0.0
C1287 C 0.83351 0.25782 0.63756 0.0
C1288 C 0.80822 0.2546 0.63766 0.0
C1289 C 0.83697 0.23677 0.641 0.0
C1290 C 0.78655 0.23018 0.64086 0.0
H1291 H 0.80559 0.27093 0.63496 0.0
O1292 O 0.84177 0.18643 0.6288 0.0
O1293 O 0.85059 0.17295 0.66475 0.0
O1294 O 0.85398 0.2055 0.68861 0.0
O1295 O 0.82625 0.20848 0.66924 0.0
O1296 O 0.86423 0.20368 0.64916 0.0
O1297 O 0.80311 0.15207 0.63004 0.0
O1298 O 0.82157 0.14866 0.71379 0.0
O1299 O 0.81056 0.16628 0.67734 0.0
O1300 O 0.80433 0.13408 0.65453 0.0
O1301 O 0.83346 0.13042 0.67224 0.0
O1302 O 0.79713 0.13596 0.69329 0.0
O1303 O 0.85519 0.18752 0.71199 0.0
C1304 C 0.87125 0.19145 0.65899 0.0
C1305 C 0.76062 0.22563 0.64041 0.0
C1306 C 0.7394 0.20058 0.64282 0.0
C1307 C 0.82312 0.16671 0.62083 0.0
C1308 C 0.81738 0.17198 0.60433 0.0
C1309 C 0.80839 0.18948 0.60167 0.0
C1310 C 0.82257 0.16039 0.59095 0.0
C1311 C 0.81926 0.16644 0.57489 0.0
C1312 C 0.80499 0.19554 0.58574 0.0
C1313 C 0.81055 0.18425 0.57239 0.0
C1314 C 0.84292 0.21793 0.68173 0.0
C1315 C 0.78998 0.14808 0.68344 0.0
C1316 C 0.838 0.16992 0.72162 0.0
C1317 C 0.84807 0.16669 0.73732 0.0
C1318 C 0.866 0.15766 0.73797 0.0
C1319 C 0.83946 0.1726 0.75187 0.0
C1320 C 0.8487 0.16956 0.76712 0.0
C1321 C 0.87522 0.15453 0.75302 0.0
C1322 C 0.86668 0.16043 0.76751 0.0
C1323 C 0.8154 0.12114 0.66044 0.0
H1324 H 0.80434 0.19864 0.61185 0.0
H1325 H 0.82984 0.14711 0.59306 0.0
H1326 H 0.79816 0.20915 0.58372 0.0
H1327 H 0.80774 0.18918 0.56014 0.0
H1328 H 0.87287 0.15307 0.72689 0.0
H1329 H 0.82535 0.17929 0.75128 0.0
H1330 H 0.88913 0.14762 0.75346 0.0
H1331 H 0.87449 0.15823 0.779 0.0
H1332 H 0.35107 0.84913 0.05211 0.0
H1333 H 0.30369 0.88594 0.04665 0.0
H1334 H 0.34039 0.92214 0.03216 0.0
H1335 H 0.41021 0.90451 0.06056 0.0
H1336 H 0.43021 0.89447 0.04949 0.0
H1337 H 0.39924 0.87053 0.05777 0.0
H1338 H 0.38478 0.84956 0.02911 0.0
H1339 H 0.41513 0.87403 0.02025 0.0
H1340 H 0.38394 0.86842 0.01235 0.0
H1341 H 0.38422 0.95663 0.02121 0.0
H1342 H 0.43141 0.9864 0.01533 0.0
H1343 H 0.44878 0.92579 0.02683 0.0
C1344 C 0.348 0.86436 0.04746 0.0
C1345 C 0.32434 0.86453 0.05044 0.0
C1346 C 0.32166 0.88542 0.04463 0.0
C1347 C 0.3423 0.90594 0.03623 0.0
C1348 C 0.36539 0.90516 0.0336 0.0
C1349 C 0.36826 0.88481 0.039 0.0
C1350 C 0.39566 0.8894 0.03582 0.0
C1351 C 0.40965 0.88976 0.05186 0.0
C1352 C 0.39483 0.86915 0.02365 0.0
C1353 C 0.40814 0.91595 0.02831 0.0
C1354 C 0.39033 0.92465 0.02691 0.0
C1355 C 0.39812 0.94975 0.02183 0.0
C1356 C 0.42486 0.96646 0.01842 0.0
C1357 C 0.44326 0.95785 0.02002 0.0
C1358 C 0.43474 0.9323 0.02487 0.0
H1359 H 0.15247 0.48825 0.06055 0.0
H1360 H 0.1176 0.41255 0.03672 0.0
H1361 H 0.08229 0.41883 0.02544 0.0
H1362 H 0.09225 0.48351 0.07266 0.0
H1363 H 0.10271 0.51711 0.06918 0.0
H1364 H 0.12666 0.50776 0.07428 0.0
H1365 H 0.15247 0.52978 0.04816 0.0
H1366 H 0.12842 0.53888 0.04267 0.0
H1367 H 0.13606 0.52018 0.02856 0.0
H1368 H 0.04881 0.43165 0.0183 0.0
H1369 H 0.01994 0.4506 0.01576 0.0
H1370 H 0.07579 0.51767 0.04427 0.0
C1371 C 0.13749 0.47302 0.05291 0.0
C1372 C 0.13816 0.45001 0.04941 0.0
C1373 C 0.11807 0.43064 0.0393 0.0
C1374 C 0.09774 0.43393 0.03289 0.0
C1375 C 0.09761 0.45669 0.03668 0.0
C1376 C 0.11696 0.47594 0.04642 0.0
C1377 C 0.11156 0.49808 0.04914 0.0
C1378 C 0.10808 0.50182 0.0674 0.0
C1379 C 0.13343 0.52322 0.04169 0.0
C1380 C 0.08585 0.48793 0.03976 0.0
C1381 C 0.07827 0.46412 0.03252 0.0
C1382 C 0.05473 0.45045 0.02371 0.0
C1383 C 0.0385 0.46142 0.02225 0.0
C1384 C 0.04604 0.48592 0.0294 0.0
C1385 C 0.06988 0.49915 0.0384 0.0
H1386 H 0.55175 0.69376 0.04108 0.0
H1387 H 0.57158 0.68511 0.09083 0.0
H1388 H 0.55665 0.63902 0.08511 0.0
H1389 H 0.4928 0.62942 0.0371 0.0
H1390 H 0.49908 0.6252 0.01609 0.0
H1391 H 0.51005 0.65726 0.02423 0.0
H1392 H 0.55773 0.67168 0.01534 0.0
H1393 H 0.54699 0.63969 0.00721 0.0
H1394 H 0.57319 0.65379 0.0222 0.0
H1395 H 0.54345 0.59526 0.07344 0.0
H1396 H 0.52983 0.55559 0.05714 0.0
H1397 H 0.51599 0.59135 0.01534 0.0
C1398 C 0.55275 0.68209 0.05079 0.0
C1399 C 0.56275 0.693 0.06643 0.0
C1400 C 0.56367 0.67709 0.07884 0.0
C1401 C 0.55536 0.65093 0.07568 0.0
C1402 C 0.54592 0.64087 0.0601 0.0
C1403 C 0.54425 0.65582 0.04789 0.0
C1404 C 0.53376 0.64025 0.03212 0.0
C1405 C 0.50735 0.63789 0.0271 0.0
C1406 C 0.55413 0.65206 0.01841 0.0
C1407 C 0.53015 0.61435 0.03735 0.0
C1408 C 0.53747 0.61523 0.05349 0.0
C1409 C 0.53739 0.59424 0.06083 0.0
C1410 C 0.52973 0.57178 0.05139 0.0
C1411 C 0.52193 0.57026 0.03482 0.0
C1412 C 0.5218 0.59179 0.02787 0.0
H1413 H 0.90074 0.30522 0.96904 0.0
H1414 H 0.82457 0.30075 0.97198 0.0
H1415 H 0.84577 0.34414 0.98495 0.0
H1416 H 0.92528 0.33812 0.0086 0.0
H1417 H 0.95859 0.35754 1.00152 0.0
H1418 H 0.93742 0.32585 0.99266 0.0
H1419 H 0.94535 0.34575 0.96384 0.0
H1420 H 0.96671 0.37727 0.97271 0.0
H1421 H 0.93899 0.37189 0.96016 0.0
H1422 H 0.87512 0.38845 0.99645 0.0
H1423 H 0.91074 0.43089 0.00595 0.0
H1424 H 0.96791 0.40629 0.99728 0.0
C1425 C 0.88839 0.31315 0.97261 0.0
C1426 C 0.86092 0.29949 0.96936 0.0
C1427 C 0.84568 0.31091 0.97401 0.0
C1428 C 0.85751 0.33548 0.98154 0.0
C1429 C 0.88457 0.34835 0.9845 0.0
C1430 C 0.89983 0.33757 0.98027 0.0
C1431 C 0.92858 0.35568 0.98469 0.0
C1432 C 0.93801 0.34357 0.99764 0.0
C1433 C 0.94593 0.36311 0.96943 0.0
C1434 C 0.92716 0.37861 0.99171 0.0
C1435 C 0.90152 0.3738 0.9916 0.0
C1436 C 0.89519 0.39221 0.99698 0.0
C1437 C 0.91557 0.41619 1.00267 0.0
C1438 C 0.94197 0.42156 1.00313 0.0
C1439 C 0.94782 0.40251 0.99743 0.0
H1440 H 0.69069 0.58243 0.97042 0.0
H1441 H 0.67403 0.50402 0.96023 0.0
H1442 H 0.62913 0.48686 0.97132 0.0
H1443 H 0.65408 0.56863 0.00835 0.0
H1444 H 0.64247 0.5909 1.00426 0.0
H1445 H 0.67365 0.59698 0.99629 0.0
H1446 H 0.65829 0.59917 0.96694 0.0
H1447 H 0.62721 0.59342 0.97479 0.0
H1448 H 0.62797 0.57244 0.95902 0.0
H1449 H 0.58553 0.47848 0.98314 0.0
H1450 H 0.54628 0.47978 0.99272 0.0
H1451 H 0.59153 0.56371 0.99477 0.0
C1452 C 0.67773 0.56162 0.97071 0.0
C1453 C 0.68594 0.54454 0.96456 0.0
C1454 C 0.66813 0.51747 0.9648 0.0
C1455 C 0.64268 0.50755 0.9712 0.0
C1456 C 0.63529 0.52497 0.97723 0.0
C1457 C 0.65228 0.55145 0.97693 0.0
C1458 C 0.63922 0.56613 0.98339 0.0
C1459 C 0.65319 0.58158 0.999 0.0
C1460 C 0.63811 0.58383 0.97025 0.0
C1461 C 0.61204 0.54384 0.98711 0.0
C1462 C 0.61025 0.52021 0.98373 0.0
C1463 C 0.58683 0.49689 0.98593 0.0
C1464 C 0.56466 0.4978 0.99149 0.0
C1465 C 0.56608 0.52184 0.99486 0.0
C1466 C 0.59008 0.54508 0.99257 0.0
H1467 H 0.47606 0.13601 0.93859 0.0
H1468 H 0.44426 0.16054 0.97831 0.0
H1469 H 0.44834 0.13001 0.99667 0.0
H1470 H 0.44622 0.069 0.94901 0.0
H1471 H 0.47465 0.06668 0.94334 0.0
H1472 H 0.46794 0.08955 0.93335 0.0
H1473 H 0.51462 0.1269 0.94143 0.0
H1474 H 0.52141 0.10411 0.95145 0.0
H1475 H 0.5247 0.13184 0.9626 0.0
H1476 H 0.45699 0.0966 0.01087 0.0
H1477 H 0.46915 0.06393 0.0191 0.0
H1478 H 0.49731 0.06445 0.97007 0.0
C1479 C 0.4701 0.13521 0.95117 0.0
C1480 C 0.45988 0.1508 0.95696 0.0
C1481 C 0.45184 0.1486 0.97348 0.0
C1482 C 0.45425 0.13143 0.98405 0.0
C1483 C 0.46479 0.11664 0.97793 0.0
C1484 C 0.47258 0.11845 0.96185 0.0
C1485 C 0.48382 0.10102 0.95823 0.0
C1486 C 0.46715 0.08034 0.94522 0.0
C1487 C 0.51286 0.11692 0.95313 0.0
C1488 C 0.4812 0.08909 0.97477 0.0
C1489 C 0.47012 0.09813 0.98604 0.0
C1490 C 0.46573 0.08945 1.00212 0.0
C1491 C 0.47278 0.07099 0.00672 0.0
C1492 C 0.48418 0.0616 0.99526 0.0
C1493 C 0.48848 0.07102 0.97915 0.0
H1494 H 0.68248 0.14505 0.96177 0.0
H1495 H 0.71546 0.09895 0.97987 0.0
H1496 H 0.67319 0.06936 0.99284 0.0
H1497 H 0.64129 0.13746 0.9963 0.0
H1498 H 0.61372 0.13393 0.98442 0.0
H1499 H 0.6468 0.1532 0.97692 0.0
H1500 H 0.63534 0.12622 0.95027 0.0
H1501 H 0.60177 0.10747 0.95692 0.0
H1502 H 0.61975 0.09141 0.95123 0.0
H1503 H 0.62642 0.0427 1.00205 0.0
H1504 H 0.5782 0.02058 0.00609 0.0
H1505 H 0.57544 0.08355 0.98198 0.0
C1506 C 0.68089 0.12877 0.96846 0.0
C1507 C 0.70255 0.12461 0.96991 0.0
C1508 C 0.69947 0.10302 0.97887 0.0
C1509 C 0.67546 0.08599 0.98624 0.0
C1510 C 0.65458 0.09068 0.98457 0.0
C1511 C 0.657 0.11148 0.97585 0.0
C1512 C 0.63107 0.11128 0.9751 0.0
C1513 C 0.63334 0.13539 0.9837 0.0
C1514 C 0.62142 0.10894 0.95733 0.0
C1515 C 0.61363 0.08689 0.98451 0.0
C1516 C 0.62761 0.07538 0.98999 0.0
C1517 C 0.61536 0.05175 0.99806 0.0
C1518 C 0.58803 0.03939 1.00038 0.0
C1519 C 0.57341 0.05083 0.99477 0.0
C1520 C 0.58641 0.07486 0.98678 0.0
H1521 H 0.84853 0.51748 0.96147 0.0
H1522 H 0.89228 0.59778 0.97779 0.0
H1523 H 0.92405 0.58914 0.99223 0.0
H1524 H 0.85982 0.48923 0.9985 0.0
H1525 H 0.8639 0.46531 0.98725 0.0
H1526 H 0.84263 0.4765 0.97937 0.0
H1527 H 0.86847 0.48989 0.95236 0.0
H1528 H 0.88951 0.47825 0.95982 0.0
H1529 H 0.9037 0.51117 0.95297 0.0
H1530 H 0.95309 0.57302 1.00296 0.0
H1531 H 0.97817 0.55062 0.00837 0.0
H1532 H 0.9163 0.48085 0.98503 0.0
C1533 C 0.86453 0.53306 0.96835 0.0
C1534 C 0.86796 0.5583 0.96853 0.0
C1535 C 0.88941 0.57835 0.97741 0.0
C1536 C 0.90743 0.57359 0.98575 0.0
C1537 C 0.90379 0.54864 0.98514 0.0
C1538 C 0.88291 0.52867 0.97666 0.0
C1539 C 0.88476 0.50418 0.9769 0.0
C1540 C 0.86139 0.48252 0.98605 0.0
C1541 C 0.88674 0.49537 0.95948 0.0
C1542 C 0.91031 0.51374 0.98639 0.0
C1543 C 0.92073 0.53933 0.99127 0.0
C1544 C 0.94492 0.55286 0.99943 0.0
C1545 C 0.95898 0.53998 1.00252 0.0
C1546 C 0.94875 0.51385 0.99752 0.0
C1547 C 0.92414 0.50063 0.98935 0.0
H1548 H 0.48559 0.32971 0.95992 0.0
H1549 H 0.40562 0.30165 0.94246 0.0
H1550 H 0.40613 0.33949 0.95535 0.0
H1551 H 0.47734 0.35456 0.99961 0.0
H1552 H 0.51043 0.38183 0.99948 0.0
H1553 H 0.50313 0.35187 0.98945 0.0
H1554 H 0.5226 0.377 0.96264 0.0
H1555 H 0.52941 0.4068 0.97266 0.0
H1556 H 0.5095 0.39616 0.9543 0.0
H1557 H 0.4163 0.38171 0.96842 0.0
H1558 H 0.43462 0.42442 0.98213 0.0
H1559 H 0.50694 0.42383 0.99264 0.0
C1560 C 0.46793 0.33113 0.95907 0.0
C1561 C 0.44559 0.31263 0.95005 0.0
C1562 C 0.42316 0.31571 0.94902 0.0
C1563 C 0.42317 0.33705 0.95642 0.0
C1564 C 0.44562 0.35503 0.96501 0.0
C1565 C 0.46749 0.35217 0.96655 0.0
C1566 C 0.48927 0.37459 0.9762 0.0
C1567 C 0.49538 0.36513 0.99213 0.0
C1568 C 0.51416 0.38952 0.96583 0.0
C1569 C 0.47635 0.39069 0.9796 0.0
C1570 C 0.4512 0.37907 0.973 0.0
C1571 C 0.43585 0.39086 0.9738 0.0
C1572 C 0.44648 0.41518 0.98155 0.0
C1573 C 0.47214 0.42738 0.9885 0.0
C1574 C 0.48713 0.41481 0.98762 0.0
H1575 H 0.14005 0.66617 0.0732 0.0
H1576 H 0.16801 0.71237 0.02948 0.0
H1577 H 0.13263 0.67627 0.01333 0.0
H1578 H 0.12516 0.60611 0.05403 0.0
H1579 H 0.09659 0.58701 0.06635 0.0
H1580 H 0.12341 0.61688 0.07441 0.0
H1581 H 0.09141 0.63453 0.08015 0.0
H1582 H 0.06495 0.60398 0.07275 0.0
H1583 H 0.07019 0.63376 0.06389 0.0
H1584 H 0.09543 0.63354 1.00175 0.0
H1585 H 0.05843 0.58894 0.9962 0.0
H1586 H 0.05566 0.57185 0.04766 0.0
C1587 C 0.13883 0.66873 0.06022 0.0
C1588 C 0.15684 0.69208 0.0526 0.0
C1589 C 0.15426 0.69474 0.03561 0.0
C1590 C 0.13433 0.6743 0.02633 0.0
C1591 C 0.11709 0.65142 0.03424 0.0
C1592 C 0.11915 0.64862 0.05082 0.0
C1593 C 0.09865 0.622 0.05643 0.0
C1594 C 0.11174 0.60713 0.0632 0.0
C1595 C 0.0802 0.62371 0.06904 0.0
C1596 C 0.08448 0.61024 0.04045 0.0
C1597 C 0.09549 0.62734 0.02773 0.0
C1598 C 0.08643 0.62015 0.01168 0.0
C1599 C 0.0655 0.59486 0.00863 0.0
C1600 C 0.05374 0.57736 0.0216 0.0
C1601 C 0.06349 0.5852 0.03764 0.0
H1602 H 0.33691 0.48211 0.05561 0.0
H1603 H 0.29089 0.40104 0.04106 0.0
H1604 H 0.32892 0.40454 0.02624 0.0
H1605 H 0.37576 0.50453 0.01716 0.0
H1606 H 0.40615 0.52706 0.0274 0.0
H1607 H 0.37499 0.52035 0.03583 0.0
H1608 H 0.38562 0.5067 0.06323 0.0
H1609 H 0.41737 0.51436 0.0555 0.0
H1610 H 0.39559 0.48256 0.06341 0.0
H1611 H 0.37242 0.41394 0.01714 0.0
H1612 H 0.41967 0.42965 0.01315 0.0
H1613 H 0.43883 0.50572 0.0313 0.0
C1614 C 0.33476 0.46533 0.04896 0.0
C1615 C 0.31096 0.44122 0.04959 0.0
C1616 C 0.30899 0.41958 0.04095 0.0
C1617 C 0.33042 0.42144 0.03235 0.0
C1618 C 0.35375 0.44518 0.03229 0.0
C1619 C 0.35614 0.46687 0.04022 0.0
C1620 C 0.38429 0.4894 0.03921 0.0
C1621 C 0.38537 0.51166 0.02931 0.0
C1622 C 0.39642 0.49879 0.05636 0.0
C1623 C 0.39742 0.47655 0.03011 0.0
C1624 C 0.37923 0.45107 0.02614 0.0
C1625 C 0.38674 0.43408 0.01963 0.0
C1626 C 0.41358 0.44313 0.01739 0.0
C1627 C 0.43259 0.46913 0.02117 0.0
C1628 C 0.42445 0.48619 0.02745 0.0
H1629 H 0.59332 0.90242 0.05681 0.0
H1630 H 0.52216 0.82875 0.04702 0.0
H1631 H 0.50226 0.85175 0.03359 0.0
H1632 H 0.55969 0.93776 0.06661 0.0
H1633 H 0.58446 0.96731 0.05748 0.0
H1634 H 0.59345 0.94501 0.06595 0.0
H1635 H 0.61355 0.94292 0.03822 0.0
H1636 H 0.60447 0.96511 0.02965 0.0
H1637 H 0.59345 0.93399 0.01995 0.0
H1638 H 0.48993 0.88257 0.02131 0.0
H1639 H 0.48534 0.91941 0.01211 0.0
H1640 H 0.5639 0.97314 0.0304 0.0
C1641 C 0.57343 0.89106 0.05203 0.0
C1642 C 0.55942 0.86366 0.05292 0.0
C1643 C 0.53356 0.84967 0.04625 0.0
C1644 C 0.52199 0.86257 0.03867 0.0
C1645 C 0.53643 0.88951 0.03794 0.0
C1646 C 0.56149 0.90363 0.04455 0.0
C1647 C 0.57253 0.93249 0.04244 0.0
C1648 C 0.57784 0.94646 0.05911 0.0
C1649 C 0.59748 0.94431 0.03194 0.0
C1650 C 0.54979 0.93236 0.03354 0.0
C1651 C 0.52921 0.90734 0.03101 0.0
C1652 C 0.50599 0.90222 0.0231 0.0
C1653 C 0.50369 0.92324 0.01772 0.0
C1654 C 0.52447 0.94901 0.02024 0.0
C1655 C 0.54776 0.9536 0.0283 0.0
H1656 H 0.02008 0.18336 0.38766 0.0
H1657 H 0.96271 0.20903 0.38543 0.0
H1658 H 0.99372 0.24687 0.36942 0.0
H1659 H 0.07535 0.24402 0.39401 0.0
H1660 H 0.09726 0.23816 0.38162 0.0
H1661 H 0.06933 0.21146 0.39101 0.0
H1662 H 0.05387 0.18925 0.36268 0.0
H1663 H 0.08118 0.21628 0.35291 0.0
H1664 H 0.04786 0.20586 0.34646 0.0
H1665 H 0.03271 0.28488 0.35781 0.0
H1666 H 0.07713 0.32026 0.35067 0.0
H1667 H 0.10897 0.26952 0.3588 0.0
C1668 C 0.01396 0.19681 0.38362 0.0
C1669 C 0.98893 0.19322 0.38775 0.0
C1670 C 0.98161 0.21119 0.38222 0.0
C1671 C 0.9991 0.23273 0.37312 0.0
C1672 C 0.0237 0.23586 0.36944 0.0
C1673 C 0.03111 0.21831 0.37439 0.0
C1674 C 0.05939 0.2272 0.36979 0.0
C1675 C 0.07632 0.23041 0.38501 0.0
C1676 C 0.06065 0.20854 0.35721 0.0
C1677 C 0.06713 0.25312 0.36223 0.0
C1678 C 0.04611 0.25757 0.36199 0.0
C1679 C 0.04911 0.28136 0.35746 0.0
C1680 C 0.07432 0.30131 0.35344 0.0
C1681 C 0.09604 0.29717 0.35369 0.0
C1682 C 0.09235 0.27267 0.35783 0.0
H1683 H 0.77901 0.75444 0.37132 0.0
H1684 H 0.82776 0.82448 0.3999 0.0
H1685 H 0.80039 0.84267 0.39056 0.0
H1686 H 0.76734 0.78495 0.33753 0.0
H1687 H 0.73329 0.76045 0.33427 0.0
H1688 H 0.7563 0.75179 0.34262 0.0
H1689 H 0.72827 0.73218 0.36817 0.0
H1690 H 0.70389 0.73895 0.3599 0.0
H1691 H 0.71763 0.75095 0.37997 0.0
H1692 H 0.7656 0.8518 0.38002 0.0
H1693 H 0.72665 0.8517 0.36827 0.0
H1694 H 0.70068 0.77623 0.34617 0.0
C1695 C 0.78396 0.77359 0.37566 0.0
C1696 C 0.80571 0.78802 0.38634 0.0
C1697 C 0.81156 0.81316 0.39153 0.0
C1698 C 0.79601 0.82362 0.38635 0.0
C1699 C 0.77466 0.80878 0.37595 0.0
C1700 C 0.76862 0.78431 0.37065 0.0
C1701 C 0.74413 0.77208 0.35987 0.0
C1702 C 0.75063 0.76702 0.34253 0.0
C1703 C 0.72218 0.74707 0.36743 0.0
C1704 C 0.73712 0.79337 0.36009 0.0
C1705 C 0.75503 0.81438 0.36944 0.0
C1706 C 0.75181 0.83571 0.37239 0.0
C1707 C 0.72974 0.83557 0.3656 0.0
C1708 C 0.71143 0.81448 0.35575 0.0
C1709 C 0.71502 0.793 0.35313 0.0
H1710 H 0.25399 0.02601 0.39686 0.0
H1711 H 0.1954 0.04221 0.37643 0.0
H1712 H 0.172 0.99838 0.36405 0.0
H1713 H 0.25725 0.99047 0.36293 0.0
H1714 H 0.26071 0.96702 0.37479 0.0
H1715 H 0.27218 0.99911 0.383 0.0
H1716 H 0.24299 0.97959 0.40847 0.0
H1717 H 0.2315 0.9474 0.40035 0.0
H1718 H 0.20817 0.95745 0.40582 0.0
H1719 H 0.15587 0.95397 0.3531 0.0
H1720 H 0.14782 0.91123 0.34392 0.0
H1721 H 0.21699 0.92323 0.37105 0.0
C1722 C 0.23599 0.02014 0.39 0.0
C1723 C 0.22652 0.03752 0.38757 0.0
C1724 C 0.20315 0.0293 0.3783 0.0
C1725 C 0.18964 0.00441 0.3713 0.0
C1726 C 0.19968 0.9879 0.37373 0.0
C1727 C 0.22225 0.9953 0.38288 0.0
C1728 C 0.22925 0.97399 0.38305 0.0
C1729 C 0.25646 0.98321 0.37549 0.0
C1730 C 0.22789 0.96402 0.40046 0.0
C1731 C 0.20735 0.9537 0.37232 0.0
C1732 C 0.19043 0.96212 0.36722 0.0
C1733 C 0.16895 0.94713 0.35701 0.0
C1734 C 0.16468 0.92291 0.35177 0.0
C1735 C 0.18196 0.91393 0.35658 0.0
C1736 C 0.20342 0.92949 0.36716 0.0
H1737 H 0.53394 0.63328 0.31618 0.0
H1738 H 0.52178 0.65069 0.26663 0.0
H1739 H 0.54911 0.6974 0.27284 0.0
H1740 H 0.53449 0.68902 0.33617 0.0
H1741 H 0.56001 0.6939 0.35051 0.0
H1742 H 0.53762 0.66184 0.34262 0.0
H1743 H 0.57736 0.65767 0.33273 0.0
H1744 H 0.59974 0.68976 0.34053 0.0
H1745 H 0.60116 0.68186 0.31938 0.0
H1746 H 0.57959 0.74179 0.28368 0.0
H1747 H 0.61159 0.78148 0.29862 0.0
H1748 H 0.60542 0.73594 0.34099 0.0
C1749 C 0.53695 0.64691 0.30664 0.0
C1750 C 0.52553 0.63824 0.29091 0.0
C1751 C 0.52985 0.65677 0.27884 0.0
C1752 C 0.54547 0.68337 0.28223 0.0
C1753 C 0.5566 0.69119 0.29777 0.0
C1754 C 0.55251 0.67357 0.30982 0.0
C1755 C 0.56769 0.68719 0.3253 0.0
C1756 C 0.54882 0.68271 0.33949 0.0
C1757 C 0.58767 0.67861 0.32974 0.0
C1758 C 0.5814 0.71517 0.31993 0.0
C1759 C 0.57452 0.71698 0.30403 0.0
C1760 C 0.58512 0.74062 0.29612 0.0
C1761 C 0.60346 0.76299 0.30462 0.0
C1762 C 0.61115 0.76155 0.32077 0.0
C1763 C 0.59969 0.73744 0.32865 0.0
H1764 H 0.33409 0.86279 0.29637 0.0
H1765 H 0.37867 0.94609 0.30482 0.0
H1766 H 0.34042 0.94435 0.31817 0.0
H1767 H 0.27343 0.85774 0.28712 0.0
H1768 H 0.25327 0.82795 0.29777 0.0
H1769 H 0.28486 0.83502 0.29006 0.0
H1770 H 0.29818 0.82872 0.31887 0.0
H1771 H 0.26724 0.82279 0.32724 0.0
H1772 H 0.29792 0.84835 0.33565 0.0
H1773 H 0.29643 0.93548 0.3263 0.0
H1774 H 0.24919 0.91883 0.33132 0.0
H1775 H 0.23256 0.84058 0.3209 0.0
C1776 C 0.33594 0.88054 0.30135 0.0
C1777 C 0.35938 0.90468 0.29922 0.0
C1778 C 0.36084 0.92747 0.30585 0.0
C1779 C 0.33926 0.92667 0.31364 0.0
C1780 C 0.31631 0.90285 0.3151 0.0
C1781 C 0.31449 0.88008 0.3094 0.0
C1782 C 0.28689 0.85729 0.31207 0.0
C1783 C 0.27385 0.84371 0.29578 0.0
C1784 C 0.28758 0.83813 0.32418 0.0
C1785 C 0.27335 0.8711 0.31944 0.0
C1786 C 0.29087 0.8974 0.32109 0.0
C1787 C 0.28268 0.91484 0.32563 0.0
C1788 C 0.25586 0.90526 0.32844 0.0
C1789 C 0.2376 0.87842 0.32719 0.0
C1790 C 0.24644 0.86104 0.32277 0.0
H1791 H 0.1569 0.49774 0.29871 0.0
H1792 H 0.08264 0.44847 0.27356 0.0
H1793 H 0.07976 0.41008 0.28665 0.0
H1794 H 0.18231 0.45616 0.29432 0.0
H1795 H 0.19812 0.46275 0.3141 0.0
H1796 H 0.19312 0.48694 0.30444 0.0
H1797 H 0.16789 0.48905 0.32983 0.0
H1798 H 0.1731 0.46497 0.33958 0.0
H1799 H 0.14018 0.45968 0.33721 0.0
H1800 H 0.08671 0.37704 0.29991 0.0
H1801 H 0.10271 0.35066 0.31311 0.0
H1802 H 0.17257 0.42063 0.33026 0.0
C1803 C 0.13973 0.47892 0.29633 0.0
C1804 C 0.11993 0.47601 0.28516 0.0
C1805 C 0.09806 0.45105 0.28201 0.0
C1806 C 0.09618 0.42918 0.28945 0.0
C1807 C 0.11627 0.43259 0.30009 0.0
C1808 C 0.13758 0.45679 0.30365 0.0
C1809 C 0.15732 0.45466 0.31465 0.0
C1810 C 0.18431 0.46578 0.30638 0.0
C1811 C 0.15976 0.46788 0.33131 0.0
C1812 C 0.14409 0.42547 0.31627 0.0
C1813 C 0.12032 0.41323 0.30788 0.0
C1814 C 0.10511 0.38637 0.3067 0.0
C1815 C 0.11449 0.37155 0.31418 0.0
C1816 C 0.13888 0.38356 0.32274 0.0
C1817 C 0.15369 0.41091 0.32398 0.0
H1818 H 0.35315 0.43057 0.30197 0.0
H1819 H 0.34481 0.49885 0.30012 0.0
H1820 H 0.30039 0.47396 0.31212 0.0
H1821 H 0.2882 0.38501 0.29041 0.0
H1822 H 0.28553 0.36008 0.30386 0.0
H1823 H 0.31725 0.38388 0.29634 0.0
H1824 H 0.33489 0.39618 0.32612 0.0
H1825 H 0.30309 0.37245 0.33371 0.0
H1826 H 0.31793 0.40577 0.34045 0.0
H1827 H 0.25535 0.44038 0.32215 0.0
H1828 H 0.21378 0.40106 0.32941 0.0
H1829 H 0.25225 0.35529 0.32537 0.0
C1830 C 0.34199 0.44031 0.3041 0.0
C1831 C 0.35237 0.46662 0.30006 0.0
C1832 C 0.33729 0.47875 0.30323 0.0
C1833 C 0.31207 0.46478 0.31003 0.0
C1834 C 0.30237 0.43879 0.31377 0.0
C1835 C 0.31695 0.42674 0.31099 0.0
C1836 C 0.30175 0.39842 0.31552 0.0
C1837 C 0.29796 0.38082 0.30064 0.0
C1838 C 0.31523 0.39289 0.3298 0.0
C1839 C 0.27598 0.39616 0.32075 0.0
C1840 C 0.27677 0.41969 0.31985 0.0
C1841 C 0.2547 0.42198 0.3232 0.0
C1842 C 0.2312 0.39958 0.32741 0.0
C1843 C 0.23012 0.37536 0.32844 0.0
C1844 C 0.25281 0.37374 0.32507 0.0
H1845 H 0.50981 0.84824 0.29699 0.0
H1846 H 0.55818 0.93159 0.30382 0.0
H1847 H 0.59417 0.9261 0.31482 0.0
H1848 H 0.53293 0.83129 0.33393 0.0
H1849 H 0.53291 0.80365 0.32474 0.0
H1850 H 0.5099 0.81323 0.31771 0.0
H1851 H 0.52663 0.81698 0.28813 0.0
H1852 H 0.54928 0.8068 0.29484 0.0
H1853 H 0.56135 0.83688 0.28416 0.0
H1854 H 0.62622 0.91245 0.32303 0.0
H1855 H 0.65194 0.89082 0.32886 0.0
H1856 H 0.58327 0.81614 0.31795 0.0
C1857 C 0.52795 0.86528 0.30087 0.0
C1858 C 0.53101 0.89035 0.29969 0.0
C1859 C 0.55511 0.91216 0.30488 0.0
C1860 C 0.57576 0.90927 0.3111 0.0
C1861 C 0.57211 0.8844 0.31219 0.0
C1862 C 0.54882 0.86272 0.30731 0.0
C1863 C 0.55042 0.83826 0.30959 0.0
C1864 C 0.53034 0.82055 0.32224 0.0
C1865 C 0.5467 0.82389 0.2932 0.0
C1866 C 0.57843 0.84971 0.31607 0.0
C1867 C 0.5905 0.87638 0.31753 0.0
C1868 C 0.61682 0.89154 0.3223 0.0
C1869 C 0.63123 0.87912 0.32568 0.0
C1870 C 0.61917 0.85182 0.32458 0.0
C1871 C 0.59253 0.83697 0.31954 0.0
H1872 H 0.1479 0.65878 0.30435 0.0
H1873 H 0.14511 0.6785 0.25383 0.0
H1874 H 0.15373 0.72182 0.26256 0.0
H1875 H 0.11404 0.69046 0.32033 0.0
H1876 H 0.13314 0.70167 0.33897 0.0
H1877 H 0.12847 0.67262 0.32888 0.0
H1878 H 0.17907 0.69208 0.32788 0.0
H1879 H 0.18382 0.72125 0.33789 0.0
H1880 H 0.19921 0.72312 0.31854 0.0
H1881 H 0.16175 0.76201 0.27617 0.0
H1882 H 0.16598 0.79692 0.29433 0.0
H1883 H 0.16181 0.75199 0.33662 0.0
C1884 C 0.14932 0.67239 0.2952 0.0
C1885 C 0.14586 0.66544 0.27841 0.0
C1886 C 0.14753 0.68349 0.26673 0.0
C1887 C 0.15258 0.70814 0.27156 0.0
C1888 C 0.15576 0.71442 0.28815 0.0
C1889 C 0.15401 0.69713 0.29986 0.0
C1890 C 0.15672 0.70862 0.31693 0.0
C1891 C 0.13159 0.69238 0.32686 0.0
C1892 C 0.18117 0.71143 0.32583 0.0
C1893 C 0.16014 0.73495 0.31289 0.0
C1894 C 0.15974 0.73779 0.29618 0.0
C1895 C 0.16195 0.75998 0.28928 0.0
C1896 C 0.1641 0.77964 0.29971 0.0
C1897 C 0.16384 0.77707 0.31687 0.0
C1898 C 0.16232 0.7546 0.32357 0.0
H1899 H 0.81061 0.98981 0.40805 0.0
H1900 H 0.82139 0.04866 0.37335 0.0
H1901 H 0.784 0.0155 0.35674 0.0
H1902 H 0.79465 0.93894 0.37956 0.0
H1903 H 0.77017 0.9139 0.39213 0.0
H1904 H 0.79702 0.94243 0.40149 0.0
H1905 H 0.76375 0.95119 0.41708 0.0
H1906 H 0.73679 0.92263 0.40776 0.0
H1907 H 0.73861 0.95359 0.4058 0.0
H1908 H 0.74837 0.97495 0.34265 0.0
H1909 H 0.71462 0.93075 0.33341 0.0
H1910 H 0.72516 0.89938 0.37847 0.0
C1911 C 0.80492 0.99568 0.397 0.0
C1912 C 0.81879 0.02166 0.39188 0.0
C1913 C 0.81081 0.0288 0.37746 0.0
C1914 C 0.78971 0.01013 0.36796 0.0
C1915 C 0.77658 0.98456 0.37325 0.0
C1916 C 0.78365 0.9774 0.38756 0.0
C1917 C 0.7665 0.94866 0.39052 0.0
C1918 C 0.78308 0.9352 0.39094 0.0
C1919 C 0.75046 0.94374 0.40622 0.0
C1920 C 0.74895 0.94065 0.3755 0.0
C1921 C 0.75518 0.96157 0.3656 0.0
C1922 C 0.74296 0.95853 0.35044 0.0
C1923 C 0.72392 0.93344 0.34529 0.0
C1924 C 0.71706 0.91194 0.35541 0.0
C1925 C 0.72957 0.91567 0.37073 0.0
H1926 H 0.98053 0.75063 0.38239 0.0
H1927 H 0.98868 0.82714 0.38257 0.0
H1928 H 0.03347 0.84533 0.37128 0.0
H1929 H 0.04624 0.77082 0.39474 0.0
H1930 H 0.04924 0.74759 0.38199 0.0
H1931 H 0.01739 0.74042 0.38929 0.0
H1932 H 0.99967 0.73254 0.35949 0.0
H1933 H 0.03155 0.73986 0.35208 0.0
H1934 H 0.0163 0.75761 0.34464 0.0
H1935 H 0.07777 0.85535 0.36068 0.0
H1936 H 0.11893 0.85689 0.35281 0.0
H1937 H 0.08239 0.77393 0.35936 0.0
C1938 C 0.99161 0.77116 0.37987 0.0
C1939 C 0.98104 0.78746 0.38333 0.0
C1940 C 0.99642 0.81432 0.38015 0.0
C1941 C 0.0218 0.82479 0.37362 0.0
C1942 C 0.03159 0.80817 0.37036 0.0
C1943 C 0.01703 0.78195 0.37344 0.0
C1944 C 0.03258 0.76852 0.36948 0.0
C1945 C 0.0366 0.75611 0.38479 0.0
C1946 C 0.01922 0.74844 0.35559 0.0
C1947 C 0.05831 0.79134 0.36393 0.0
C1948 C 0.05719 0.81397 0.36434 0.0
C1949 C 0.07873 0.83769 0.36014 0.0
C1950 C 0.10207 0.83835 0.35553 0.0
C1951 C 0.10372 0.81542 0.35499 0.0
C1952 C 0.08153 0.79167 0.35936 0.0
H1953 H 0.24415 0.21626 0.37048 0.0
H1954 H 0.2035 0.19458 0.41678 0.0
H1955 H 0.18067 0.21875 0.40993 0.0
H1956 H 0.25488 0.28015 0.36937 0.0
H1957 H 0.24909 0.27974 0.34771 0.0
H1958 H 0.26128 0.25979 0.35592 0.0
H1959 H 0.22188 0.21885 0.34265 0.0
H1960 H 0.21004 0.23899 0.33425 0.0
H1961 H 0.18873 0.21179 0.34671 0.0
H1962 H 0.165 0.24796 0.39899 0.0
H1963 H 0.15561 0.27832 0.38385 0.0
H1964 H 0.20493 0.2794 0.34424 0.0
C1965 C 0.23036 0.21656 0.37912 0.0
C1966 C 0.22556 0.20365 0.39416 0.0
C1967 C 0.20725 0.20422 0.40514 0.0
C1968 C 0.19427 0.21793 0.40138 0.0
C1969 C 0.19959 0.23063 0.3865 0.0
C1970 C 0.21697 0.22983 0.37546 0.0
C1971 C 0.21937 0.24533 0.36038 0.0
C1972 C 0.24785 0.26757 0.35823 0.0
C1973 C 0.2094 0.22767 0.3451 0.0
C1974 C 0.20111 0.25548 0.36482 0.0
C1975 C 0.18989 0.24677 0.37995 0.0
C1976 C 0.17336 0.25461 0.38704 0.0
C1977 C 0.16821 0.27183 0.37844 0.0
C1978 C 0.17935 0.28069 0.36293 0.0
C1979 C 0.19584 0.27236 0.35598 0.0
H1980 H 0.65612 0.54813 0.72962 0.0
H1981 H 0.67343 0.48626 0.72126 0.0
H1982 H 0.71089 0.515 0.70385 0.0
H1983 H 0.67722 0.57882 0.68837 0.0
H1984 H 0.69148 0.61112 0.69691 0.0
H1985 H 0.66343 0.5846 0.7065 0.0
H1986 H 0.68954 0.59574 0.73386 0.0
H1987 H 0.71759 0.62213 0.72431 0.0
H1988 H 0.72103 0.59724 0.7344 0.0
H1989 H 0.74906 0.55115 0.69033 0.0
H1990 H 0.7863 0.59285 0.68196 0.0
H1991 H 0.74542 0.63238 0.69882 0.0
C1992 C 0.66744 0.54057 0.72372 0.0
C1993 C 0.66189 0.515 0.72658 0.0
C1994 C 0.67742 0.5058 0.71909 0.0
C1995 C 0.69861 0.52192 0.70914 0.0
C1996 C 0.70403 0.54723 0.70681 0.0
C1997 C 0.68892 0.55658 0.71383 0.0
C1998 C 0.70069 0.58532 0.71065 0.0
C1999 C 0.68209 0.59024 0.69997 0.0
C2000 C 0.70763 0.60102 0.72676 0.0
C2001 C 0.72525 0.59079 0.70136 0.0
C2002 C 0.72646 0.56841 0.69901 0.0
C2003 C 0.74807 0.56872 0.69177 0.0
C2004 C 0.76916 0.59256 0.68698 0.0
C2005 C 0.76847 0.61579 0.68929 0.0
C2006 C 0.74614 0.6148 0.69653 0.0
H2007 H 0.48057 0.15076 0.72154 0.0
H2008 H 0.43313 0.06781 0.71217 0.0
H2009 H 0.39699 0.07358 0.70203 0.0
H2010 H 0.42607 0.15835 0.73595 0.0
H2011 H 0.43845 0.18978 0.72696 0.0
H2012 H 0.46101 0.17924 0.73328 0.0
H2013 H 0.48019 0.18851 0.70457 0.0
H2014 H 0.45657 0.1969 0.69694 0.0
H2015 H 0.45974 0.17123 0.68727 0.0
H2016 H 0.36486 0.08714 0.69457 0.0
H2017 H 0.33878 0.10853 0.68937 0.0
H2018 H 0.40616 0.18289 0.70265 0.0
C2019 C 0.46257 0.13381 0.71739 0.0
C2020 C 0.46003 0.10886 0.71741 0.0
C2021 C 0.43602 0.08723 0.71187 0.0
C2022 C 0.4152 0.09025 0.70619 0.0
C2023 C 0.41843 0.115 0.70618 0.0
C2024 C 0.44138 0.13644 0.7117 0.0
C2025 C 0.43924 0.16078 0.71066 0.0
C2026 C 0.44131 0.17273 0.72773 0.0
C2027 C 0.46015 0.18054 0.69917 0.0
C2028 C 0.41161 0.14958 0.70356 0.0
C2029 C 0.39997 0.12307 0.70124 0.0
C2030 C 0.37392 0.10796 0.69596 0.0
C2031 C 0.35933 0.12025 0.69292 0.0
C2032 C 0.37096 0.1474 0.69479 0.0
C2033 C 0.39729 0.16222 0.70044 0.0
H2034 H 0.92007 0.35125 0.73324 0.0
H2035 H 0.86511 0.3719 0.71208 0.0
H2036 H 0.84215 0.32967 0.69775 0.0
H2037 H 0.92551 0.31885 0.69747 0.0
H2038 H 0.92737 0.29388 0.7086 0.0
H2039 H 0.93906 0.32535 0.71791 0.0
H2040 H 0.90799 0.30403 0.74239 0.0
H2041 H 0.89622 0.27248 0.73315 0.0
H2042 H 0.87321 0.28293 0.73869 0.0
H2043 H 0.82574 0.2862 0.68519 0.0
H2044 H 0.81638 0.24351 0.67509 0.0
H2045 H 0.88241 0.25042 0.70351 0.0
C2046 C 0.90322 0.34691 0.72558 0.0
C2047 C 0.89428 0.36493 0.72394 0.0
C2048 C 0.87204 0.35833 0.71385 0.0
C2049 C 0.85896 0.33442 0.70555 0.0
C2050 C 0.86832 0.31724 0.7074 0.0
C2051 C 0.88989 0.32307 0.71715 0.0
C2052 C 0.89605 0.30114 0.71672 0.0
C2053 C 0.92363 0.31036 0.70976 0.0
C2054 C 0.89319 0.28946 0.73375 0.0
C2055 C 0.87464 0.2822 0.70511 0.0
C2056 C 0.8589 0.29197 0.69994 0.0
C2057 C 0.83794 0.27835 0.68912 0.0
C2058 C 0.83291 0.2541 0.68337 0.0
C2059 C 0.84882 0.2436 0.68833 0.0
C2060 C 0.86989 0.25786 0.69946 0.0
H2061 H 0.18745 0.96821 0.65129 0.0
H2062 H 0.18394 0.98551 0.60027 0.0
H2063 H 0.21216 0.03208 0.60645 0.0
H2064 H 0.18827 0.02567 0.66859 0.0
H2065 H 0.21127 0.02995 0.68464 0.0
H2066 H 0.189 0.99796 0.67658 0.0
H2067 H 0.22858 0.99151 0.67006 0.0
H2068 H 0.25095 0.02346 0.67807 0.0
H2069 H 0.25487 0.01477 0.65755 0.0
H2070 H 0.24321 0.07602 0.6174 0.0
H2071 H 0.27458 0.11535 0.63265 0.0
H2072 H 0.25871 0.07057 0.67689 0.0
C2073 C 0.19248 0.98179 0.64143 0.0
C2074 C 0.18323 0.9731 0.62528 0.0
C2075 C 0.19024 0.99161 0.61277 0.0
C2076 C 0.20643 0.01813 0.61615 0.0
C2077 C 0.21544 0.02596 0.6321 0.0
C2078 C 0.20865 0.00842 0.64458 0.0
C2079 C 0.22193 0.02203 0.66054 0.0
C2080 C 0.20138 0.0187 0.67334 0.0
C2081 C 0.24016 0.01237 0.66692 0.0
C2082 C 0.23759 0.04991 0.65498 0.0
C2083 C 0.23343 0.05162 0.63852 0.0
C2084 C 0.24647 0.07498 0.63032 0.0
C2085 C 0.26437 0.0972 0.6391 0.0
C2086 C 0.26912 0.09606 0.65598 0.0
C2087 C 0.25527 0.07209 0.66405 0.0
H2088 H 0.02152 0.25383 0.63368 0.0
H2089 H 0.01027 0.17613 0.63121 0.0
H2090 H 0.96461 0.15847 0.64101 0.0
H2091 H 0.98317 0.24464 0.67044 0.0
H2092 H 0.96976 0.26424 0.66337 0.0
H2093 H 1.00189 0.27104 0.65679 0.0
H2094 H 0.98731 0.26691 0.62651 0.0
H2095 H 0.95526 0.2605 0.63286 0.0
H2096 H 0.95822 0.23785 0.6195 0.0
H2097 H 0.91944 0.1493 0.65029 0.0
H2098 H 0.87847 0.14938 0.65718 0.0
H2099 H 0.91961 0.2331 0.65366 0.0
C2100 C 0.00964 0.23313 0.63544 0.0
C2101 C 0.01959 0.21639 0.63176 0.0
C2102 C 0.00307 0.18934 0.63385 0.0
C2103 C 0.97718 0.17915 0.63953 0.0
C2104 C 0.96805 0.19625 0.64304 0.0
C2105 C 0.98381 0.22266 0.64104 0.0
C2106 C 0.96906 0.23684 0.64504 0.0
C2107 C 0.98172 0.25528 0.65978 0.0
C2108 C 0.96736 0.25137 0.63008 0.0
C2109 C 0.94235 0.21426 0.64929 0.0
C2110 C 0.9422 0.19101 0.64828 0.0
C2111 C 0.91946 0.16744 0.65127 0.0
C2112 C 0.8963 0.16767 0.65529 0.0
C2113 C 0.89611 0.19132 0.65637 0.0
C2114 C 0.9194 0.21482 0.65321 0.0
H2115 H 0.844 0.83077 0.62976 0.0
H2116 H 0.75994 0.79187 0.61971 0.0
H2117 H 0.75423 0.75299 0.63375 0.0
H2118 H 0.85227 0.77699 0.62288 0.0
H2119 H 0.87589 0.78442 0.63915 0.0
H2120 H 0.87325 0.8101 0.6296 0.0
H2121 H 0.86525 0.82486 0.65787 0.0
H2122 H 0.86782 0.79912 0.66748 0.0
H2123 H 0.83886 0.80185 0.67044 0.0
H2124 H 0.7581 0.71701 0.64599 0.0
H2125 H 0.77103 0.68658 0.65699 0.0
H2126 H 0.85233 0.74878 0.66047 0.0
C2127 C 0.82437 0.81415 0.63068 0.0
C2128 C 0.80237 0.81439 0.62369 0.0
C2129 C 0.777 0.79228 0.62517 0.0
C2130 C 0.77358 0.77007 0.63307 0.0
C2131 C 0.79567 0.77036 0.63965 0.0
C2132 C 0.82055 0.79188 0.63873 0.0
C2133 C 0.84108 0.78665 0.64634 0.0
C2134 C 0.86184 0.78972 0.63374 0.0
C2135 C 0.85401 0.80417 0.66143 0.0
C2136 C 0.82393 0.75858 0.65116 0.0
C2137 C 0.79779 0.74964 0.64723 0.0
C2138 C 0.77842 0.72388 0.64938 0.0
C2139 C 0.78597 0.70673 0.65556 0.0
C2140 C 0.81262 0.71541 0.65966 0.0
C2141 C 0.83175 0.74178 0.6577 0.0
H2142 H 0.99939 0.80391 0.63389 0.0
H2143 H 0.03919 0.75926 0.6369 0.0
H2144 H 1.00076 0.72429 0.6507 0.0
H2145 H 0.96345 0.78222 0.67322 0.0
H2146 H 0.93353 0.77977 0.66527 0.0
H2147 H 0.96505 0.80353 0.6573 0.0
H2148 H 0.95061 0.78575 0.62798 0.0
H2149 H 0.91862 0.76261 0.63549 0.0
H2150 H 0.93734 0.75163 0.62385 0.0
H2151 H 0.95696 0.69192 0.65988 0.0
H2152 H 0.90928 0.66337 0.66397 0.0
H2153 H 0.89663 0.7282 0.65668 0.0
C2154 C 1.0001 0.78698 0.63782 0.0
C2155 C 0.0222 0.7842 0.63435 0.0
C2156 C 0.02236 0.76163 0.63936 0.0
C2157 C 1.00073 0.74178 0.64733 0.0
C2158 C 0.97904 0.74479 0.65032 0.0
C2159 C 0.97844 0.76676 0.64576 0.0
C2160 C 0.95153 0.76373 0.64902 0.0
C2161 C 0.9535 0.78348 0.66198 0.0
C2162 C 0.93878 0.76606 0.63314 0.0
C2163 C 0.93692 0.73628 0.6555 0.0
C2164 C 0.95341 0.72594 0.65631 0.0
C2165 C 0.94401 0.69997 0.65984 0.0
C2166 C 0.91697 0.68391 0.66217 0.0
C2167 C 0.8997 0.69396 0.66139 0.0
C2168 C 0.90978 0.72054 0.65826 0.0
H2169 H 0.19578 0.20254 0.62362 0.0
H2170 H 0.21267 0.26638 0.65683 0.0
H2171 H 0.2436 0.25773 0.67225 0.0
H2172 H 0.19991 0.16015 0.65422 0.0
H2173 H 0.21608 0.14823 0.64089 0.0
H2174 H 0.19362 0.15762 0.63255 0.0
H2175 H 0.22907 0.19003 0.61323 0.0
H2176 H 0.25171 0.18038 0.62075 0.0
H2177 H 0.26068 0.21407 0.62144 0.0
H2178 H 0.27631 0.24559 0.68221 0.0
H2179 H 0.30773 0.22972 0.68628 0.0
H2180 H 0.26891 0.17275 0.64757 0.0
C2181 C 0.2056 0.21433 0.63433 0.0
C2182 C 0.20185 0.23519 0.63899 0.0
C2183 C 0.21543 0.25048 0.65292 0.0
C2184 C 0.23291 0.24561 0.66184 0.0
C2185 C 0.23659 0.22527 0.65676 0.0
C2186 C 0.22326 0.20978 0.64337 0.0
C2187 C 0.23204 0.19018 0.63994 0.0
C2188 C 0.20905 0.16239 0.64203 0.0
C2189 C 0.24409 0.1939 0.62283 0.0
C2190 C 0.25278 0.1975 0.65323 0.0
C2191 C 0.25498 0.2177 0.66287 0.0
C2192 C 0.27433 0.22933 0.67503 0.0
C2193 C 0.29202 0.22022 0.67731 0.0
C2194 C 0.2898 0.19931 0.66777 0.0
C2195 C 0.27006 0.18794 0.65553 0.0
H2196 H 0.83098 0.99999 0.63345 0.0
H2197 H 0.7625 0.97622 0.60206 0.0
H2198 H 0.75704 0.01154 0.61351 0.0
H2199 H 0.80747 0.02109 0.66866 0.0
H2200 H 0.83954 0.04849 0.67319 0.0
H2201 H 0.83673 0.01975 0.66372 0.0
H2202 H 0.86636 0.04754 0.64005 0.0
H2203 H 0.86906 0.07622 0.64951 0.0
H2204 H 0.85716 0.06766 0.62876 0.0
H2205 H 0.76038 0.05079 0.62674 0.0
H2206 H 0.77264 0.09205 0.64076 0.0
H2207 H 0.8398 0.09189 0.66322 0.0
C2208 C 0.81477 0.00211 0.62899 0.0
C2209 C 0.797 0.98496 0.61691 0.0
C2210 C 0.77602 0.98854 0.61155 0.0
C2211 C 0.77282 0.00871 0.61792 0.0
C2212 C 0.79076 0.02529 0.62965 0.0
C2213 C 0.81134 0.02228 0.63517 0.0
C2214 C 0.8286 0.04371 0.64728 0.0
C2215 C 0.82804 0.03258 0.66421 0.0
C2216 C 0.85697 0.05973 0.64102 0.0
C2217 C 0.81475 0.05945 0.64743 0.0
C2218 C 0.79285 0.04828 0.63727 0.0
C2219 C 0.77736 0.05962 0.63484 0.0
C2220 C 0.78456 0.08315 0.64285 0.0
C2221 C 0.80713 0.09524 0.65319 0.0
C2222 C 0.82222 0.08299 0.65562 0.0
H2223 H 0.4969 0.33751 0.71729 0.0
H2224 H 0.45367 0.36217 0.7487 0.0
H2225 H 0.41185 0.3261 0.73801 0.0
H2226 H 0.45057 0.31414 0.68276 0.0
H2227 H 0.45585 0.28723 0.67894 0.0
H2228 H 0.48181 0.31683 0.68783 0.0
H2229 H 0.48448 0.29006 0.7119 0.0
H2230 H 0.45794 0.26077 0.70303 0.0
H2231 H 0.45534 0.27024 0.72362 0.0
H2232 H 0.37466 0.28578 0.7252 0.0
H2233 H 0.34497 0.24411 0.71135 0.0
H2234 H 0.41247 0.24415 0.68966 0.0
C2235 C 0.4787 0.33544 0.72195 0.0
C2236 C 0.47877 0.35296 0.73381 0.0
C2237 C 0.45433 0.3495 0.73937 0.0
C2238 C 0.43039 0.3289 0.73346 0.0
C2239 C 0.43113 0.31181 0.722 0.0
C2240 C 0.45464 0.31484 0.71632 0.0
C2241 C 0.45004 0.293 0.70465 0.0
C2242 C 0.46015 0.30344 0.68752 0.0
C2243 C 0.46269 0.27761 0.7112 0.0
C2244 C 0.42024 0.27699 0.70486 0.0
C2245 C 0.40971 0.28831 0.71484 0.0
C2246 C 0.38268 0.27679 0.71732 0.0
C2247 C 0.36599 0.25301 0.70948 0.0
C2248 C 0.37636 0.24081 0.69941 0.0
C2249 C 0.40386 0.25316 0.69702 0.0
H2250 H 0.64294 0.08674 0.71459 0.0
H2251 H 0.65366 0.16426 0.71599 0.0
H2252 H 0.69778 0.18135 0.70376 0.0
H2253 H 0.70801 0.1044 0.72558 0.0
H2254 H 0.70947 0.08076 0.71236 0.0
H2255 H 0.6783 0.07468 0.72023 0.0
H2256 H 0.65967 0.06794 0.69068 0.0
H2257 H 0.69092 0.07419 0.68272 0.0
H2258 H 0.67657 0.0931 0.67591 0.0
H2259 H 0.74158 0.19003 0.6921 0.0
H2260 H 0.78203 0.18985 0.68397 0.0
H2261 H 0.74232 0.10664 0.69019 0.0
C2262 C 0.65437 0.10727 0.71211 0.0
C2263 C 0.64474 0.12414 0.71617 0.0
C2264 C 0.66066 0.15098 0.71309 0.0
C2265 C 0.68565 0.16082 0.70601 0.0
C2266 C 0.69445 0.14359 0.70209 0.0
C2267 C 0.6793 0.11739 0.70512 0.0
C2268 C 0.69374 0.1031 0.70059 0.0
C2269 C 0.69761 0.08997 0.71559 0.0
C2270 C 0.67936 0.08342 0.68665 0.0
C2271 C 0.71963 0.12541 0.69488 0.0
C2272 C 0.71957 0.14857 0.69557 0.0
C2273 C 0.7417 0.17194 0.69136 0.0
C2274 C 0.76457 0.17165 0.68664 0.0
C2275 C 0.76509 0.14814 0.6861 0.0
C2276 C 0.74226 0.1248 0.69022 0.0
H2277 H 0.91463 0.56239 0.73413 0.0
H2278 H 0.8849 0.49948 0.69839 0.0
H2279 H 0.86384 0.51977 0.68303 0.0
H2280 H 0.85742 0.57126 0.7335 0.0
H2281 H 0.87672 0.60607 0.73544 0.0
H2282 H 0.88875 0.58621 0.74406 0.0
H2283 H 0.93177 0.61114 0.72754 0.0
H2284 H 0.91983 0.631 0.71884 0.0
H2285 H 0.92986 0.61311 0.70567 0.0
H2286 H 0.84518 0.54592 0.67192 0.0
H2287 H 0.83207 0.57773 0.66469 0.0
H2288 H 0.87605 0.62569 0.70647 0.0
C2289 C 0.90348 0.55282 0.72315 0.0
C2290 C 0.90138 0.52935 0.71742 0.0
C2291 C 0.88692 0.51755 0.7029 0.0
C2292 C 0.87479 0.52886 0.69414 0.0
C2293 C 0.87738 0.55206 0.70002 0.0
C2294 C 0.89144 0.56403 0.71413 0.0
C2295 C 0.89171 0.5893 0.71742 0.0
C2296 C 0.87782 0.58813 0.73356 0.0
C2297 C 0.91998 0.6125 0.71736 0.0
C2298 C 0.87586 0.58972 0.70287 0.0
C2299 C 0.86753 0.56785 0.69314 0.0
C2300 C 0.85189 0.56332 0.67931 0.0
C2301 C 0.8447 0.58169 0.67522 0.0
C2302 C 0.85356 0.6047 0.68468 0.0
C2303 C 0.86927 0.60859 0.69877 0.0
H2304 H 0.43803 0.92933 0.18451 0.0
H2305 H 0.52122 0.96288 0.19664 0.0
H2306 H 0.53267 0.98095 0.1692 0.0
H2307 H 0.44132 0.91664 0.14105 0.0
H2308 H 0.41816 0.92677 0.13533 0.0
H2309 H 0.416 0.91279 0.15507 0.0
H2310 H 0.41897 0.95337 0.16913 0.0
H2311 H 0.421 0.96738 0.14947 0.0
H2312 H 0.4463 0.985 0.16465 0.0
H2313 H 0.53565 0.99816 0.14075 0.0
H2314 H 0.5296 0.01606 0.11498 0.0
H2315 H 0.44519 0.97527 0.12248 0.0
C2316 C 0.45871 0.94038 0.18155 0.0
C2317 C 0.47854 0.94405 0.19303 0.0
C2318 C 0.50533 0.9587 0.18819 0.0
C2319 C 0.51217 0.96936 0.17255 0.0
C2320 C 0.49215 0.96567 0.16176 0.0
C2321 C 0.46597 0.95174 0.16612 0.0
C2322 C 0.44836 0.95279 0.15289 0.0
C2323 C 0.42987 0.92563 0.14566 0.0
C2324 C 0.43275 0.96539 0.15943 0.0
C2325 C 0.46879 0.96994 0.14058 0.0
C2326 C 0.49391 0.9767 0.14575 0.0
C2327 C 0.51605 0.99288 0.13656 0.0
C2328 C 0.51245 0.00287 0.12191 0.0
C2329 C 0.48698 0.99705 0.11676 0.0
C2330 C 0.4649 0.98003 0.12614 0.0
H2331 H 0.07268 0.52094 0.17345 0.0
H2332 H 0.02571 0.54118 0.20458 0.0
H2333 H 0.99222 0.52776 0.18264 0.0
H2334 H 0.05858 0.54226 0.13542 0.0
H2335 H 0.05696 0.5159 0.12348 0.0
H2336 H 0.07757 0.52748 0.1415 0.0
H2337 H 0.05366 0.48113 0.15326 0.0
H2338 H 0.03308 0.4694 0.13524 0.0
H2339 H 0.0183 0.46416 0.15513 0.0
H2340 H 0.96426 0.51297 0.15731 0.0
H2341 H 0.9422 0.49538 0.13081 0.0
H2342 H 0.0062 0.48282 0.11624 0.0
C2343 C 0.05543 0.52271 0.17559 0.0
C2344 C 0.05182 0.53214 0.19074 0.0
C2345 C 0.02878 0.5338 0.19315 0.0
C2346 C 0.00973 0.52638 0.18072 0.0
C2347 C 0.0139 0.51721 0.16595 0.0
C2348 C 0.03607 0.51518 0.16334 0.0
C2349 C 0.03534 0.50402 0.14646 0.0
C2350 C 0.05849 0.52359 0.1361 0.0
C2351 C 0.03507 0.47814 0.1476 0.0
C2352 C 0.00927 0.50007 0.14001 0.0
C2353 C 0.99737 0.50801 0.15143 0.0
C2354 C 0.97327 0.50647 0.14832 0.0
C2355 C 0.96079 0.49625 0.13323 0.0
C2356 C 0.97219 0.48734 0.1214 0.0
C2357 C 0.99696 0.48958 0.12488 0.0
H2358 H 0.51361 0.52747 0.19862 0.0
H2359 H 0.42823 0.48803 0.19516 0.0
H2360 H 0.43055 0.47899 0.16591 0.0
H2361 H 0.52709 0.55572 0.15817 0.0
H2362 H 0.55474 0.55085 0.15504 0.0
H2363 H 0.5464 0.55586 0.17539 0.0
H2364 H 0.54318 0.51281 0.1844 0.0
H2365 H 0.55143 0.50763 0.16408 0.0
H2366 H 0.52154 0.48321 0.17338 0.0
H2367 H 0.44213 0.47227 0.13727 0.0
H2368 H 0.46204 0.46842 0.11161 0.0
H2369 H 0.53974 0.5115 0.13399 0.0
C2370 C 0.49535 0.51691 0.19175 0.0
C2371 C 0.47072 0.50852 0.19927 0.0
C2372 C 0.44737 0.49505 0.18969 0.0
C2373 C 0.44847 0.48968 0.17306 0.0
C2374 C 0.47306 0.49791 0.16615 0.0
C2375 C 0.49608 0.5113 0.17519 0.0
C2376 C 0.51994 0.51724 0.165 0.0
C2377 C 0.53811 0.54667 0.1633 0.0
C2378 C 0.53489 0.50445 0.17214 0.0
C2379 C 0.50673 0.50468 0.14888 0.0
C2380 C 0.4797 0.49383 0.14974 0.0
C2381 C 0.46328 0.48085 0.13643 0.0
C2382 C 0.47479 0.47885 0.12188 0.0
C2383 C 0.50246 0.48966 0.12076 0.0
C2384 C 0.51853 0.50281 0.13449 0.0
H2385 H 0.00321 0.51349 0.82514 0.0
H2386 H 0.92118 0.45594 0.8327 0.0
H2387 H 0.92951 0.45849 0.86249 0.0
H2388 H 0.03004 0.49095 0.85483 0.0
H2389 H 0.05572 0.52273 0.86127 0.0
H2390 H 0.04284 0.51747 0.84074 0.0
H2391 H 0.0316 0.55407 0.84476 0.0
H2392 H 0.04456 0.55954 0.86531 0.0
H2393 H 0.01132 0.55269 0.86166 0.0
H2394 H 0.94754 0.46641 0.89151 0.0
H2395 H 0.97387 0.4782 0.91708 0.0
H2396 H 0.04377 0.53084 0.89019 0.0
C2397 C 0.98684 0.50178 0.83306 0.0
C2398 C 0.96149 0.48462 0.82658 0.0
C2399 C 0.94079 0.46912 0.83738 0.0
C2400 C 0.94531 0.47055 0.85431 0.0
C2401 C 0.97061 0.48758 0.86026 0.0
C2402 C 0.991 0.50293 0.84993 0.0
C2403 C 0.01662 0.51887 0.85926 0.0
C2404 C 0.03753 0.51209 0.85369 0.0
C2405 C 0.02661 0.54802 0.85765 0.0
C2406 C 0.0076 0.50982 0.87645 0.0
C2407 C 0.98097 0.49195 0.87683 0.0
C2408 C 0.96837 0.48053 0.89135 0.0
C2409 C 0.98345 0.48743 0.90582 0.0
C2410 C 0.01087 0.50545 0.90563 0.0
C2411 C 0.02291 0.51686 0.89072 0.0
H2412 H 0.5554 0.49804 0.83048 0.0
H2413 H 0.50671 0.41445 0.83434 0.0
H2414 H 0.4874 0.42007 0.85961 0.0
H2415 H 0.56887 0.51188 0.87282 0.0
H2416 H 0.56691 0.54112 0.87273 0.0
H2417 H 0.57651 0.53082 0.85454 0.0
H2418 H 0.53883 0.53135 0.83825 0.0
H2419 H 0.52919 0.54179 0.85638 0.0
H2420 H 0.50547 0.51297 0.84546 0.0
H2421 H 0.47511 0.43427 0.8852 0.0
H2422 H 0.46886 0.45657 0.90891 0.0
H2423 H 0.52382 0.53101 0.88823 0.0
C2424 C 0.54039 0.48094 0.8365 0.0
C2425 C 0.53284 0.45578 0.83048 0.0
C2426 C 0.51328 0.43392 0.83886 0.0
C2427 C 0.50202 0.43689 0.85318 0.0
C2428 C 0.51026 0.46187 0.85895 0.0
C2429 C 0.52878 0.48355 0.85083 0.0
C2430 C 0.53432 0.50819 0.85986 0.0
C2431 C 0.56338 0.52392 0.86531 0.0
C2432 C 0.52648 0.52454 0.84936 0.0
C2433 C 0.51622 0.4969 0.87436 0.0
C2434 C 0.50259 0.47012 0.87359 0.0
C2435 C 0.48547 0.45523 0.88587 0.0
C2436 C 0.48213 0.46804 0.89931 0.0
C2437 C 0.49572 0.49546 0.90033 0.0
C2438 C 0.51287 0.51003 0.88762 0.0
H2439 H 0.56646 0.07583 0.82722 0.0
H2440 H 0.48229 0.04139 0.81824 0.0
H2441 H 0.4736 0.02526 0.84627 0.0
H2442 H 0.56097 0.02242 0.84856 0.0
H2443 H 0.58756 0.04155 0.8627 0.0
H2444 H 0.58753 0.05372 0.84269 0.0
H2445 H 0.59115 0.09523 0.85575 0.0
H2446 H 0.59109 0.08312 0.87583 0.0
H2447 H 0.56708 0.09233 0.87049 0.0
H2448 H 0.47354 0.01002 0.87489 0.0
H2449 H 0.48238 0.99462 0.90082 0.0
H2450 H 0.56601 0.03627 0.89048 0.0
C2451 C 0.54615 0.06501 0.83106 0.0
C2452 C 0.52517 0.0604 0.82033 0.0
C2453 C 0.49894 0.04611 0.82616 0.0
C2454 C 0.4937 0.03661 0.84212 0.0
C2455 C 0.5148 0.04125 0.85222 0.0
C2456 C 0.54051 0.05498 0.84688 0.0
C2457 C 0.55949 0.05536 0.85964 0.0
C2458 C 0.57478 0.04249 0.853 0.0
C2459 C 0.57831 0.08317 0.86579 0.0
C2460 C 0.54038 0.03921 0.87282 0.0
C2461 C 0.51472 0.03164 0.86845 0.0
C2462 C 0.49358 0.01598 0.87848 0.0
C2463 C 0.49877 0.00741 0.89321 0.0
C2464 C 0.52483 0.01419 0.89764 0.0
C2465 C 0.54586 0.03067 0.88738 0.0
H2466 H 0.17511 0.30619 0.53033 0.0
H2467 H 0.09242 0.2488 0.52371 0.0
H2468 H 0.09488 0.26107 0.49478 0.0
H2469 H 0.1751 0.35431 0.50597 0.0
H2470 H 0.20725 0.36537 0.49746 0.0
H2471 H 0.19955 0.35087 0.51732 0.0
H2472 H 0.21215 0.31692 0.50774 0.0
H2473 H 0.22008 0.33144 0.48786 0.0
H2474 H 0.19657 0.29738 0.48974 0.0
H2475 H 0.10568 0.28167 0.46701 0.0
H2476 H 0.12404 0.30836 0.44254 0.0
H2477 H 0.20021 0.35119 0.46694 0.0
C2478 C 0.15765 0.29576 0.52272 0.0
C2479 C 0.13355 0.27646 0.52934 0.0
C2480 C 0.11104 0.26379 0.51899 0.0
C2481 C 0.11228 0.27054 0.50251 0.0
C2482 C 0.13621 0.28994 0.49648 0.0
C2483 C 0.15854 0.30225 0.50624 0.0
C2484 C 0.18157 0.32315 0.49693 0.0
C2485 C 0.19144 0.35001 0.5049 0.0
C2486 C 0.20391 0.31683 0.49548 0.0
C2487 C 0.1686 0.32098 0.4805 0.0
C2488 C 0.14247 0.30163 0.48046 0.0
C2489 C 0.12622 0.29664 0.46684 0.0
C2490 C 0.13692 0.31186 0.45293 0.0
C2491 C 0.16368 0.3319 0.45266 0.0
C2492 C 0.17965 0.33624 0.46669 0.0
H2493 H 0.75133 0.89037 0.50895 0.0
H2494 H 0.71837 0.81577 0.53268 0.0
H2495 H 0.68822 0.79508 0.50928 0.0
H2496 H 0.69175 0.88105 0.49093 0.0
H2497 H 0.70683 0.897 0.47215 0.0
H2498 H 0.72593 0.90613 0.4908 0.0
H2499 H 0.76023 0.89692 0.47708 0.0
H2500 H 0.7412 0.88772 0.45838 0.0
H2501 H 0.74954 0.86556 0.46784 0.0
H2502 H 0.66062 0.78249 0.48379 0.0
H2503 H 0.63801 0.77881 0.45754 0.0
H2504 H 0.69024 0.86084 0.44942 0.0
C2505 C 0.73803 0.86963 0.5092 0.0
C2506 C 0.73722 0.85483 0.52286 0.0
C2507 C 0.71911 0.82776 0.52263 0.0
C2508 C 0.70202 0.81573 0.50929 0.0
C2509 C 0.70334 0.83089 0.49612 0.0
C2510 C 0.72096 0.85722 0.49589 0.0
C2511 C 0.71827 0.86903 0.48018 0.0
C2512 C 0.71021 0.88951 0.48373 0.0
C2513 C 0.74383 0.88048 0.47028 0.0
C2514 C 0.69619 0.84524 0.4717 0.0
C2515 C 0.68787 0.82347 0.48114 0.0
C2516 C 0.66708 0.79936 0.47624 0.0
C2517 C 0.65431 0.79747 0.46135 0.0
C2518 C 0.66244 0.81949 0.45146 0.0
C2519 C 0.68386 0.84362 0.45665 0.0
H2520 H 0.17856 0.87801 0.52894 0.0
H2521 H 0.09391 0.8262 0.52597 0.0
H2522 H 0.09757 0.8196 0.49649 0.0
H2523 H 0.18663 0.90674 0.48877 0.0
H2524 H 0.21751 0.90786 0.48522 0.0
H2525 H 0.20788 0.91026 0.50575 0.0
H2526 H 0.2132 0.87128 0.51411 0.0
H2527 H 0.22279 0.86873 0.49362 0.0
H2528 H 0.19547 0.84107 0.50287 0.0
H2529 H 0.11093 0.81651 0.46753 0.0
H2530 H 0.1329 0.81695 0.44173 0.0
H2531 H 0.2088 0.87013 0.46388 0.0
C2532 C 0.16073 0.86529 0.52214 0.0
C2533 C 0.13591 0.85269 0.52987 0.0
C2534 C 0.1131 0.83645 0.52036 0.0
C2535 C 0.11499 0.83245 0.50359 0.0
C2536 C 0.13982 0.84484 0.49646 0.0
C2537 C 0.16227 0.86098 0.50544 0.0
C2538 C 0.18673 0.8711 0.49506 0.0
C2539 C 0.20049 0.90075 0.49362 0.0
C2540 C 0.20565 0.86252 0.50182 0.0
C2541 C 0.17461 0.85773 0.47891 0.0
C2542 C 0.14751 0.84287 0.4799 0.0
C2543 C 0.13212 0.82826 0.46659 0.0
C2544 C 0.14478 0.82873 0.45196 0.0
C2545 C 0.1726 0.84357 0.45073 0.0
C2546 C 0.18755 0.8584 0.46442 0.0
H2547 H 0.65512 0.80658 0.15848 0.0
H2548 H 0.62077 0.85629 0.15635 0.0
H2549 H 0.63393 0.86963 0.1851 0.0
H2550 H 0.63762 0.78645 0.20076 0.0
H2551 H 0.66801 0.78676 0.20487 0.0
H2552 H 0.65417 0.77977 0.18452 0.0
H2553 H 0.69798 0.81708 0.17335 0.0
H2554 H 0.7119 0.82424 0.19365 0.0
H2555 H 0.71126 0.8493 0.18188 0.0
H2556 H 0.65379 0.87997 0.2135 0.0
H2557 H 0.67774 0.88563 0.23946 0.0
H2558 H 0.69831 0.82847 0.2231 0.0
C2559 C 0.65026 0.82019 0.16407 0.0
C2560 C 0.63687 0.83036 0.15515 0.0
C2561 C 0.63068 0.84796 0.16299 0.0
C2562 C 0.6382 0.85576 0.17929 0.0
C2563 C 0.65173 0.84566 0.18764 0.0
C2564 C 0.65753 0.82812 0.18033 0.0
C2565 C 0.67295 0.82075 0.19179 0.0
C2566 C 0.65724 0.79171 0.19572 0.0
C2567 C 0.70013 0.8283 0.18474 0.0
C2568 C 0.67542 0.8373 0.20659 0.0
C2569 C 0.66295 0.85144 0.204 0.0
C2570 C 0.66335 0.86876 0.21574 0.0
C2571 C 0.67692 0.87174 0.23049 0.0
C2572 C 0.68992 0.85748 0.2334 0.0
C2573 C 0.68887 0.8399 0.22125 0.0
H2574 H 0.21376 0.83764 0.15488 0.0
H2575 H 0.18682 0.75611 0.16185 0.0
H2576 H 0.17041 0.75847 0.1892 0.0
H2577 H 0.23451 0.85893 0.19667 0.0
H2578 H 0.22297 0.88186 0.19677 0.0
H2579 H 0.23345 0.87404 0.17795 0.0
H2580 H 0.18828 0.86105 0.16461 0.0
H2581 H 0.17766 0.86881 0.18338 0.0
H2582 H 0.15846 0.83702 0.1742 0.0
H2583 H 0.15723 0.76964 0.21577 0.0
H2584 H 0.14602 0.78841 0.23936 0.0
H2585 H 0.18002 0.86236 0.2149 0.0
C2586 C 0.20452 0.82038 0.16224 0.0
C2587 C 0.20149 0.79667 0.15631 0.0
C2588 C 0.18909 0.77438 0.16616 0.0
C2589 C 0.17984 0.77557 0.18172 0.0
C2590 C 0.18295 0.79916 0.18719 0.0
C2591 C 0.19481 0.82114 0.17774 0.0
C2592 C 0.19482 0.84381 0.18634 0.0
C2593 C 0.22312 0.86597 0.18963 0.0
C2594 C 0.17885 0.85322 0.17655 0.0
C2595 C 0.18112 0.83112 0.20208 0.0
C2596 C 0.17466 0.80542 0.20237 0.0
C2597 C 0.16214 0.78973 0.21568 0.0
C2598 C 0.15594 0.80057 0.22903 0.0
C2599 C 0.16206 0.82678 0.22892 0.0
C2600 C 0.17482 0.84218 0.21524 0.0
H2601 H 0.20731 0.37151 0.15523 0.0
H2602 H 0.17366 0.42151 0.16028 0.0
H2603 H 0.16207 0.40771 0.1889 0.0
H2604 H 0.15816 0.31939 0.17738 0.0
H2605 H 0.18021 0.3104 0.1868 0.0
H2606 H 0.18819 0.32607 0.16731 0.0
H2607 H 0.23299 0.36212 0.17897 0.0
H2608 H 0.22519 0.34648 0.1985 0.0
H2609 H 0.23363 0.37993 0.19708 0.0
H2610 H 0.15243 0.38698 0.21659 0.0
H2611 H 0.14396 0.35974 0.24087 0.0
H2612 H 0.1828 0.32228 0.21755 0.0
C2613 C 0.19801 0.37995 0.1625 0.0
C2614 C 0.19161 0.39779 0.15564 0.0
C2615 C 0.17878 0.40788 0.16535 0.0
C2616 C 0.1722 0.40021 0.18161 0.0
C2617 C 0.17843 0.38229 0.18795 0.0
C2618 C 0.19101 0.37224 0.17869 0.0
C2619 C 0.19394 0.35201 0.18808 0.0
C2620 C 0.17924 0.3254 0.17937 0.0
C2621 C 0.22318 0.36066 0.19082 0.0
C2622 C 0.18076 0.35201 0.20397 0.0
C2623 C 0.17224 0.36983 0.20373 0.0
C2624 C 0.15916 0.37307 0.21694 0.0
C2625 C 0.15451 0.35757 0.23071 0.0
C2626 C 0.16269 0.33886 0.23113 0.0
C2627 C 0.17612 0.33625 0.21756 0.0
H2628 H 0.79143 0.62968 0.85972 0.0
H2629 H 0.8268 0.58069 0.86019 0.0
H2630 H 0.83786 0.58993 0.83111 0.0
H2631 H 0.76631 0.61582 0.81771 0.0
H2632 H 0.77455 0.64887 0.81428 0.0
H2633 H 0.76629 0.63565 0.8345 0.0
H2634 H 0.81065 0.67322 0.84564 0.0
H2635 H 0.81903 0.68653 0.82549 0.0
H2636 H 0.84102 0.67902 0.83646 0.0
H2637 H 0.84761 0.60685 0.80209 0.0
H2638 H 0.85712 0.63173 0.7765 0.0
H2639 H 0.81852 0.67202 0.79592 0.0
C2640 C 0.80147 0.62078 0.8538 0.0
C2641 C 0.80807 0.6043 0.86244 0.0
C2642 C 0.82091 0.59291 0.85392 0.0
C2643 C 0.82747 0.59819 0.83736 0.0
C2644 C 0.82118 0.61498 0.8294 0.0
C2645 C 0.80851 0.62614 0.83738 0.0
C2646 C 0.80567 0.64502 0.8265 0.0
C2647 C 0.77647 0.63578 0.82304 0.0
C2648 C 0.81995 0.67257 0.83397 0.0
C2649 C 0.81931 0.64326 0.81127 0.0
C2650 C 0.82767 0.62545 0.81303 0.0
C2651 C 0.84105 0.62076 0.80059 0.0
C2652 C 0.84631 0.6349 0.78609 0.0
C2653 C 0.83863 0.65381 0.78429 0.0
C2654 C 0.82473 0.65776 0.79701 0.0
H2655 H 0.37297 0.20746 0.84796 0.0
H2656 H 0.39141 0.14572 0.85202 0.0
H2657 H 0.36605 0.12542 0.82664 0.0
H2658 H 0.30652 0.1673 0.83307 0.0
H2659 H 0.30786 0.19153 0.81949 0.0
H2660 H 0.32771 0.20125 0.83784 0.0
H2661 H 0.36962 0.22823 0.82067 0.0
H2662 H 0.3499 0.21851 0.80225 0.0
H2663 H 0.37714 0.2127 0.80421 0.0
H2664 H 0.33946 0.11245 0.80032 0.0
H2665 H 0.31123 0.10631 0.77621 0.0
H2666 H 0.30957 0.17608 0.78971 0.0
C2667 C 0.37173 0.18971 0.84346 0.0
C2668 C 0.38418 0.17816 0.85195 0.0
C2669 C 0.38182 0.15476 0.8458 0.0
C2670 C 0.36761 0.14319 0.83134 0.0
C2671 C 0.35569 0.15514 0.82323 0.0
C2672 C 0.35742 0.17778 0.82915 0.0
C2673 C 0.34231 0.18641 0.81832 0.0
C2674 C 0.31976 0.18662 0.82775 0.0
C2675 C 0.36086 0.21304 0.81092 0.0
C2676 C 0.33183 0.16512 0.80538 0.0
C2677 C 0.33992 0.14738 0.80834 0.0
C2678 C 0.33293 0.12619 0.79792 0.0
C2679 C 0.31701 0.12291 0.78422 0.0
C2680 C 0.30808 0.1406 0.78115 0.0
C2681 C 0.31579 0.16203 0.79187 0.0
H2682 H 0.81219 0.15665 0.86163 0.0
H2683 H 0.81007 0.22818 0.85795 0.0
H2684 H 0.81808 0.22892 0.82827 0.0
H2685 H 0.86395 0.17318 0.83429 0.0
H2686 H 0.85064 0.14112 0.8255 0.0
H2687 H 0.84266 0.14512 0.84614 0.0
H2688 H 0.79284 0.1187 0.83898 0.0
H2689 H 0.80066 0.11446 0.81832 0.0
H2690 H 0.78013 0.1285 0.82212 0.0
H2691 H 0.82887 0.22304 0.79924 0.0
H2692 H 0.84181 0.2112 0.77329 0.0
H2693 H 0.83604 0.14309 0.79602 0.0
C2694 C 0.8128 0.17217 0.85453 0.0
C2695 C 0.81036 0.1923 0.8621 0.0
C2696 C 0.81201 0.21263 0.85243 0.0
C2697 C 0.81642 0.21314 0.83555 0.0
C2698 C 0.81911 0.19316 0.82854 0.0
C2699 C 0.81726 0.17301 0.83772 0.0
C2700 C 0.82213 0.15459 0.82741 0.0
C2701 C 0.84628 0.15345 0.83371 0.0
C2702 C 0.79747 0.12746 0.82666 0.0
C2703 C 0.82744 0.16774 0.81103 0.0
C2704 C 0.82541 0.18985 0.81189 0.0
C2705 C 0.83024 0.20561 0.7984 0.0
C2706 C 0.83747 0.19866 0.78368 0.0
C2707 C 0.83991 0.17618 0.78257 0.0
C2708 C 0.83459 0.16051 0.79646 0.0
H2709 H 0.32488 0.14157 0.48975 0.0
H2710 H 0.2821 0.18359 0.4896 0.0
H2711 H 0.29188 0.19354 0.51901 0.0
H2712 H 0.30505 0.11448 0.53038 0.0
H2713 H 0.33665 0.11777 0.53508 0.0
H2714 H 0.325 0.11278 0.51424 0.0
H2715 H 0.36764 0.15447 0.50588 0.0
H2716 H 0.37935 0.15966 0.52669 0.0
H2717 H 0.3767 0.18471 0.51622 0.0
H2718 H 0.30826 0.20081 0.54804 0.0
H2719 H 0.32922 0.20404 0.57483 0.0
H2720 H 0.36113 0.1571 0.55603 0.0
C2721 C 0.31753 0.15283 0.49591 0.0
C2722 C 0.30268 0.16176 0.48739 0.0
C2723 C 0.2932 0.17623 0.49593 0.0
C2724 C 0.29877 0.1821 0.51261 0.0
C2725 C 0.31373 0.17325 0.52058 0.0
C2726 C 0.32284 0.15879 0.51255 0.0
C2727 C 0.3389 0.15202 0.52388 0.0
C2728 C 0.3256 0.12251 0.52602 0.0
C2729 C 0.36733 0.1634 0.5178 0.0
C2730 C 0.33787 0.1654 0.53944 0.0
C2731 C 0.32312 0.17739 0.53732 0.0
C2732 C 0.31967 0.19131 0.5499 0.0
C2733 C 0.33157 0.19296 0.56508 0.0
C2734 C 0.34678 0.18079 0.56754 0.0
C2735 C 0.34987 0.16683 0.5545 0.0
H2736 H 0.88673 0.16167 0.49105 0.0
H2737 H 0.84888 0.0783 0.49711 0.0
H2738 H 0.82832 0.08193 0.5224 0.0
H2739 H 0.90029 0.1793 0.53315 0.0
H2740 H 0.89314 0.20537 0.53222 0.0
H2741 H 0.90477 0.19642 0.51435 0.0
H2742 H 0.86382 0.18955 0.49798 0.0
H2743 H 0.85211 0.19859 0.51579 0.0
H2744 H 0.83134 0.16788 0.50564 0.0
H2745 H 0.8132 0.09444 0.54753 0.0
H2746 H 0.80292 0.11513 0.57046 0.0
H2747 H 0.84883 0.19011 0.54781 0.0
C2748 C 0.87387 0.14414 0.49758 0.0
C2749 C 0.86974 0.11973 0.49214 0.0
C2750 C 0.8529 0.09731 0.50117 0.0
C2751 C 0.84093 0.09912 0.51551 0.0
C2752 C 0.84571 0.12345 0.52063 0.0
C2753 C 0.86158 0.14556 0.51191 0.0
C2754 C 0.86351 0.16934 0.52023 0.0
C2755 C 0.89213 0.18874 0.52529 0.0
C2756 C 0.852 0.18209 0.50925 0.0
C2757 C 0.84639 0.15711 0.53501 0.0
C2758 C 0.8364 0.13062 0.53501 0.0
C2759 C 0.82074 0.11514 0.54763 0.0
C2760 C 0.8151 0.12706 0.56061 0.0
C2761 C 0.82497 0.15415 0.56085 0.0
C2762 C 0.84071 0.1693 0.54781 0.0
H2763 H 0.82328 0.70248 0.48488 0.0
H2764 H 0.90784 0.7507 0.49171 0.0
H2765 H 0.90327 0.73789 0.52066 0.0
H2766 H 0.80471 0.71529 0.52516 0.0
H2767 H 0.77771 0.68256 0.52699 0.0
H2768 H 0.78761 0.69678 0.50712 0.0
H2769 H 0.79368 0.6584 0.49775 0.0
H2770 H 0.78395 0.64415 0.51759 0.0
H2771 H 0.81516 0.65086 0.50931 0.0
H2772 H 0.88953 0.7178 0.54859 0.0
H2773 H 0.86789 0.69213 0.57303 0.0
H2774 H 0.79217 0.65824 0.54802 0.0
C2775 C 0.84081 0.71081 0.49253 0.0
C2776 C 0.86593 0.72771 0.486 0.0
C2777 C 0.88841 0.73759 0.49638 0.0
C2778 C 0.88599 0.73054 0.51287 0.0
C2779 C 0.86095 0.71361 0.51883 0.0
C2780 C 0.83875 0.70397 0.50898 0.0
C2781 C 0.81423 0.68529 0.51817 0.0
C2782 C 0.79493 0.6956 0.51943 0.0
C2783 C 0.80099 0.65807 0.51023 0.0
C2784 C 0.82613 0.68561 0.53467 0.0
C2785 C 0.85307 0.70217 0.53486 0.0
C2786 C 0.8684 0.705 0.54863 0.0
C2787 C 0.85588 0.69042 0.5625 0.0
C2788 C 0.82826 0.67313 0.56255 0.0
C2789 C 0.81331 0.67103 0.54841 0.0
loop_
_geom_bond_atom_site_label_1
_geom_bond_atom_site_label_2
_geom_bond_distance
_geom_bond_site_symmetry_2
_ccdc_geom_bond_type
P0 O11 1.490 . S
P0 C14 1.812 . S
P0 C20 1.803 . S
P0 C26 1.819 . S
H1 C15 0.941 . S
H2 C16 0.939 . S
H3 C18 0.940 . S
H4 C19 0.940 . S
H5 C21 0.939 . S
H6 C22 0.942 . S
H7 C24 0.940 . S
H8 C25 0.939 . S
H9 C27 0.941 . S
H10 C31 0.939 . S
O11 P0 1.490 . S
H12 C28 0.939 . S
H13 C30 0.940 . S
C14 P0 1.812 . S
C14 C15 1.389 . S
C14 C19 1.391 . S
C15 H1 0.941 . S
C15 C14 1.389 . S
C15 C16 1.397 . S
C16 H2 0.939 . S
C16 C15 1.397 . S
C16 C17 1.378 . S
C17 C16 1.378 . S
C17 C18 1.378 . S
C18 H3 0.940 . S
C18 C17 1.378 . S
C18 C19 1.396 . S
C19 H4 0.940 . S
C19 C14 1.391 . S
C19 C18 1.396 . S
C20 P0 1.803 . S
C20 C21 1.378 . S
C20 C25 1.400 . S
C21 H5 0.939 . S
C21 C20 1.378 . S
C21 C22 1.361 . S
C22 H6 0.942 . S
C22 C21 1.361 . S
C22 C23 1.369 . S
C23 C22 1.369 . S
C23 C24 1.404 . S
C24 H7 0.940 . S
C24 C23 1.404 . S
C24 C25 1.389 . S
C25 H8 0.939 . S
C25 C20 1.400 . S
C25 C24 1.389 . S
C26 P0 1.819 . S
C26 C27 1.391 . S
C26 C31 1.391 . S
C27 H9 0.941 . S
C27 C26 1.391 . S
C27 C28 1.396 . S
C28 H12 0.939 . S
C28 C27 1.396 . S
C28 C29 1.397 . S
C29 C28 1.397 . S
C29 C30 1.385 . S
C30 H13 0.940 . S
C30 C29 1.385 . S
C30 C31 1.388 . S
C31 H10 0.939 . S
C31 C26 1.391 . S
C31 C30 1.388 . S
P32 O43 1.490 . S
P32 C46 1.812 . S
P32 C52 1.803 . S
P32 C58 1.819 . S
H33 C47 0.941 . S
H34 C48 0.939 . S
H35 C50 0.940 . S
H36 C51 0.940 . S
H37 C53 0.939 . S
H38 C54 0.942 . S
H39 C56 0.940 . S
H40 C57 0.939 . S
H41 C59 0.941 . S
H42 C63 0.939 . S
O43 P32 1.490 . S
H44 C60 0.939 . S
H45 C62 0.940 . S
C46 P32 1.812 . S
C46 C47 1.389 . S
C46 C51 1.391 . S
C47 H33 0.941 . S
C47 C46 1.389 . S
C47 C48 1.397 . S
C48 H34 0.939 . S
C48 C47 1.397 . S
C48 C49 1.378 . S
C49 C48 1.378 . S
C49 C50 1.378 . S
C50 H35 0.940 . S
C50 C49 1.378 . S
C50 C51 1.396 . S
C51 H36 0.940 . S
C51 C46 1.391 . S
C51 C50 1.396 . S
C52 P32 1.803 . S
C52 C53 1.378 . S
C52 C57 1.400 . S
C53 H37 0.939 . S
C53 C52 1.378 . S
C53 C54 1.361 . S
C54 H38 0.942 . S
C54 C53 1.361 . S
C54 C55 1.369 . S
C55 C54 1.369 . S
C55 C56 1.404 . S
C56 H39 0.940 . S
C56 C55 1.404 . S
C56 C57 1.389 . S
C57 H40 0.939 . S
C57 C52 1.400 . S
C57 C56 1.389 . S
C58 P32 1.819 . S
C58 C59 1.391 . S
C58 C63 1.391 . S
C59 H41 0.941 . S
C59 C58 1.391 . S
C59 C60 1.396 . S
C60 H44 0.939 . S
C60 C59 1.396 . S
C60 C61 1.397 . S
C61 C60 1.397 . S
C61 C62 1.385 . S
C62 H45 0.940 . S
C62 C61 1.385 . S
C62 C63 1.388 . S
C63 H42 0.939 . S
C63 C58 1.391 . S
C63 C62 1.388 . S
P64 O75 1.490 . S
P64 C78 1.812 . S
P64 C84 1.803 . S
P64 C90 1.819 . S
H65 C79 0.941 . S
H66 C80 0.939 . S
H67 C82 0.940 . S
H68 C83 0.940 . S
H69 C85 0.939 . S
H70 C86 0.942 . S
H71 C88 0.940 . S
H72 C89 0.939 . S
H73 C91 0.941 . S
H74 C95 0.939 . S
O75 P64 1.490 . S
H76 C92 0.939 . S
H77 C94 0.940 . S
C78 P64 1.812 . S
C78 C79 1.389 . S
C78 C83 1.391 . S
C79 H65 0.941 . S
C79 C78 1.389 . S
C79 C80 1.397 . S
C80 H66 0.939 . S
C80 C79 1.397 . S
C80 C81 1.378 . S
C81 C80 1.378 . S
C81 C82 1.378 . S
C82 H67 0.940 . S
C82 C81 1.378 . S
C82 C83 1.396 . S
C83 H68 0.940 . S
C83 C78 1.391 . S
C83 C82 1.396 . S
C84 P64 1.803 . S
C84 C85 1.378 . S
C84 C89 1.400 . S
C85 H69 0.939 . S
C85 C84 1.378 . S
C85 C86 1.361 . S
C86 H70 0.942 . S
C86 C85 1.361 . S
C86 C87 1.369 . S
C87 C86 1.369 . S
C87 C88 1.404 . S
C88 H71 0.940 . S
C88 C87 1.404 . S
C88 C89 1.389 . S
C89 H72 0.939 . S
C89 C84 1.400 . S
C89 C88 1.389 . S
C90 P64 1.819 . S
C90 C91 1.391 . S
C90 C95 1.391 . S
C91 H73 0.941 . S
C91 C90 1.391 . S
C91 C92 1.396 . S
C92 H76 0.939 . S
C92 C91 1.396 . S
C92 C93 1.397 . S
C93 C92 1.397 . S
C93 C94 1.385 . S
C94 H77 0.940 . S
C94 C93 1.385 . S
C94 C95 1.388 . S
C95 H74 0.939 . S
C95 C90 1.391 . S
C95 C94 1.388 . S
P96 O107 1.490 . S
P96 C110 1.812 . S
P96 C116 1.803 . S
P96 C122 1.819 . S
H97 C111 0.941 . S
H98 C112 0.939 . S
H99 C114 0.940 . S
H100 C115 0.940 . S
H101 C117 0.939 . S
H102 C118 0.942 . S
H103 C120 0.940 . S
H104 C121 0.939 . S
H105 C123 0.941 . S
H106 C127 0.939 . S
O107 P96 1.490 . S
H108 C124 0.939 . S
H109 C126 0.940 . S
C110 P96 1.812 . S
C110 C111 1.389 . S
C110 C115 1.391 . S
C111 H97 0.941 . S
C111 C110 1.389 . S
C111 C112 1.397 . S
C112 H98 0.939 . S
C112 C111 1.397 . S
C112 C113 1.378 . S
C113 C112 1.378 . S
C113 C114 1.378 . S
C114 H99 0.940 . S
C114 C113 1.378 . S
C114 C115 1.396 . S
C115 H100 0.940 . S
C115 C110 1.391 . S
C115 C114 1.396 . S
C116 P96 1.803 . S
C116 C117 1.378 . S
C116 C121 1.400 . S
C117 H101 0.939 . S
C117 C116 1.378 . S
C117 C118 1.361 . S
C118 H102 0.942 . S
C118 C117 1.361 . S
C118 C119 1.369 . S
C119 C118 1.369 . S
C119 C120 1.404 . S
C120 H103 0.940 . S
C120 C119 1.404 . S
C120 C121 1.389 . S
C121 H104 0.939 . S
C121 C116 1.400 . S
C121 C120 1.389 . S
C122 P96 1.819 . S
C122 C123 1.391 . S
C122 C127 1.391 . S
C123 H105 0.941 . S
C123 C122 1.391 . S
C123 C124 1.396 . S
C124 H108 0.939 . S
C124 C123 1.396 . S
C124 C125 1.397 . S
C125 C124 1.397 . S
C125 C126 1.385 . S
C126 H109 0.940 . S
C126 C125 1.385 . S
C126 C127 1.388 . S
C127 H106 0.939 . S
C127 C122 1.391 . S
C127 C126 1.388 . S
P128 O139 1.490 . S
P128 C142 1.812 . S
P128 C148 1.803 . S
P128 C154 1.819 . S
H129 C143 0.941 . S
H130 C144 0.939 . S
H131 C146 0.940 . S
H132 C147 0.940 . S
H133 C149 0.939 . S
H134 C150 0.942 . S
H135 C152 0.940 . S
H136 C153 0.939 . S
H137 C155 0.941 . S
H138 C159 0.939 . S
O139 P128 1.490 . S
H140 C156 0.939 . S
H141 C158 0.940 . S
C142 P128 1.812 . S
C142 C143 1.389 . S
C142 C147 1.391 . S
C143 H129 0.941 . S
C143 C142 1.389 . S
C143 C144 1.397 . S
C144 H130 0.939 . S
C144 C143 1.397 . S
C144 C145 1.378 . S
C145 C144 1.378 . S
C145 C146 1.378 . S
C146 H131 0.940 . S
C146 C145 1.378 . S
C146 C147 1.396 . S
C147 H132 0.940 . S
C147 C142 1.391 . S
C147 C146 1.396 . S
C148 P128 1.803 . S
C148 C149 1.378 . S
C148 C153 1.400 . S
C149 H133 0.939 . S
C149 C148 1.378 . S
C149 C150 1.361 . S
C150 H134 0.942 . S
C150 C149 1.361 . S
C150 C151 1.369 . S
C151 C150 1.369 . S
C151 C152 1.404 . S
C152 H135 0.940 . S
C152 C151 1.404 . S
C152 C153 1.389 . S
C153 H136 0.939 . S
C153 C148 1.400 . S
C153 C152 1.389 . S
C154 P128 1.819 . S
C154 C155 1.391 . S
C154 C159 1.391 . S
C155 H137 0.941 . S
C155 C154 1.391 . S
C155 C156 1.396 . S
C156 H140 0.939 . S
C156 C155 1.396 . S
C156 C157 1.397 . S
C157 C156 1.397 . S
C157 C158 1.385 . S
C158 H141 0.940 . S
C158 C157 1.385 . S
C158 C159 1.388 . S
C159 H138 0.939 . S
C159 C154 1.391 . S
C159 C158 1.388 . S
P160 O171 1.490 . S
P160 C174 1.812 . S
P160 C180 1.803 . S
P160 C186 1.819 . S
H161 C175 0.941 . S
H162 C176 0.939 . S
H163 C178 0.940 . S
H164 C179 0.940 . S
H165 C181 0.939 . S
H166 C182 0.942 . S
H167 C184 0.940 . S
H168 C185 0.939 . S
H169 C187 0.941 . S
H170 C191 0.939 . S
O171 P160 1.490 . S
H172 C188 0.939 . S
H173 C190 0.940 . S
C174 P160 1.812 . S
C174 C175 1.389 . S
C174 C179 1.391 . S
C175 H161 0.941 . S
C175 C174 1.389 . S
C175 C176 1.397 . S
C176 H162 0.939 . S
C176 C175 1.397 . S
C176 C177 1.378 . S
C177 C176 1.378 . S
C177 C178 1.378 . S
C178 H163 0.940 . S
C178 C177 1.378 . S
C178 C179 1.396 . S
C179 H164 0.940 . S
C179 C174 1.391 . S
C179 C178 1.396 . S
C180 P160 1.803 . S
C180 C181 1.378 . S
C180 C185 1.400 . S
C181 H165 0.939 . S
C181 C180 1.378 . S
C181 C182 1.361 . S
C182 H166 0.942 . S
C182 C181 1.361 . S
C182 C183 1.369 . S
C183 C182 1.369 . S
C183 C184 1.404 . S
C184 H167 0.940 . S
C184 C183 1.404 . S
C184 C185 1.389 . S
C185 H168 0.939 . S
C185 C180 1.400 . S
C185 C184 1.389 . S
C186 P160 1.819 . S
C186 C187 1.391 . S
C186 C191 1.391 . S
C187 H169 0.941 . S
C187 C186 1.391 . S
C187 C188 1.396 . S
C188 H172 0.939 . S
C188 C187 1.396 . S
C188 C189 1.397 . S
C189 C188 1.397 . S
C189 C190 1.385 . S
C190 H173 0.940 . S
C190 C189 1.385 . S
C190 C191 1.388 . S
C191 H170 0.939 . S
C191 C186 1.391 . S
C191 C190 1.388 . S
P192 O203 1.490 . S
P192 C206 1.812 . S
P192 C212 1.803 . S
P192 C218 1.819 . S
H193 C207 0.941 . S
H194 C208 0.939 . S
H195 C210 0.940 . S
H196 C211 0.940 . S
H197 C213 0.939 . S
H198 C214 0.942 . S
H199 C216 0.940 . S
H200 C217 0.939 . S
H201 C219 0.941 . S
H202 C223 0.939 . S
O203 P192 1.490 . S
H204 C220 0.939 . S
H205 C222 0.940 . S
C206 P192 1.812 . S
C206 C207 1.389 . S
C206 C211 1.391 . S
C207 H193 0.941 . S
C207 C206 1.389 . S
C207 C208 1.397 . S
C208 H194 0.939 . S
C208 C207 1.397 . S
C208 C209 1.378 . S
C209 C208 1.378 . S
C209 C210 1.378 . S
C210 H195 0.940 . S
C210 C209 1.378 . S
C210 C211 1.396 . S
C211 H196 0.940 . S
C211 C206 1.391 . S
C211 C210 1.396 . S
C212 P192 1.803 . S
C212 C213 1.378 . S
C212 C217 1.400 . S
C213 H197 0.939 . S
C213 C212 1.378 . S
C213 C214 1.361 . S
C214 H198 0.942 . S
C214 C213 1.361 . S
C214 C215 1.369 . S
C215 C214 1.369 . S
C215 C216 1.404 . S
C216 H199 0.940 . S
C216 C215 1.404 . S
C216 C217 1.389 . S
C217 H200 0.939 . S
C217 C212 1.400 . S
C217 C216 1.389 . S
C218 P192 1.819 . S
C218 C219 1.391 . S
C218 C223 1.391 . S
C219 H201 0.941 . S
C219 C218 1.391 . S
C219 C220 1.396 . S
C220 H204 0.939 . S
C220 C219 1.396 . S
C220 C221 1.397 . S
C221 C220 1.397 . S
C221 C222 1.385 . S
C222 H205 0.940 . S
C222 C221 1.385 . S
C222 C223 1.388 . S
C223 H202 0.939 . S
C223 C218 1.391 . S
C223 C222 1.388 . S
P224 O235 1.490 . S
P224 C238 1.812 . S
P224 C244 1.803 . S
P224 C250 1.819 . S
H225 C239 0.941 . S
H226 C240 0.939 . S
H227 C242 0.940 . S
H228 C243 0.940 . S
H229 C245 0.939 . S
H230 C246 0.942 . S
H231 C248 0.940 . S
H232 C249 0.939 . S
H233 C251 0.941 . S
H234 C255 0.939 . S
O235 P224 1.490 . S
H236 C252 0.939 . S
H237 C254 0.940 . S
C238 P224 1.812 . S
C238 C239 1.389 . S
C238 C243 1.391 . S
C239 H225 0.941 . S
C239 C238 1.389 . S
C239 C240 1.397 . S
C240 H226 0.939 . S
C240 C239 1.397 . S
C240 C241 1.378 . S
C241 C240 1.378 . S
C241 C242 1.378 . S
C242 H227 0.940 . S
C242 C241 1.378 . S
C242 C243 1.396 . S
C243 H228 0.940 . S
C243 C238 1.391 . S
C243 C242 1.396 . S
C244 P224 1.803 . S
C244 C245 1.378 . S
C244 C249 1.400 . S
C245 H229 0.939 . S
C245 C244 1.378 . S
C245 C246 1.361 . S
C246 H230 0.942 . S
C246 C245 1.361 . S
C246 C247 1.369 . S
C247 C246 1.369 . S
C247 C248 1.404 . S
C248 H231 0.940 . S
C248 C247 1.404 . S
C248 C249 1.389 . S
C249 H232 0.939 . S
C249 C244 1.400 . S
C249 C248 1.389 . S
C250 P224 1.819 . S
C250 C251 1.391 . S
C250 C255 1.391 . S
C251 H233 0.941 . S
C251 C250 1.391 . S
C251 C252 1.396 . S
C252 H236 0.939 . S
C252 C251 1.396 . S
C252 C253 1.397 . S
C253 C252 1.397 . S
C253 C254 1.385 . S
C254 H237 0.940 . S
C254 C253 1.385 . S
C254 C255 1.388 . S
C255 H234 0.939 . S
C255 C250 1.391 . S
C255 C254 1.388 . S
P256 O267 1.490 . S
P256 C270 1.812 . S
P256 C276 1.803 . S
P256 C282 1.819 . S
H257 C271 0.941 . S
H258 C272 0.939 . S
H259 C274 0.940 . S
H260 C275 0.940 . S
H261 C277 0.939 . S
H262 C278 0.942 . S
H263 C280 0.940 . S
H264 C281 0.939 . S
H265 C283 0.941 . S
H266 C287 0.939 . S
O267 P256 1.490 . S
H268 C284 0.939 . S
H269 C286 0.940 . S
C270 P256 1.812 . S
C270 C271 1.389 . S
C270 C275 1.391 . S
C271 H257 0.941 . S
C271 C270 1.389 . S
C271 C272 1.397 . S
C272 H258 0.939 . S
C272 C271 1.397 . S
C272 C273 1.378 . S
C273 C272 1.378 . S
C273 C274 1.378 . S
C274 H259 0.940 . S
C274 C273 1.378 . S
C274 C275 1.396 . S
C275 H260 0.940 . S
C275 C270 1.391 . S
C275 C274 1.396 . S
C276 P256 1.803 . S
C276 C277 1.378 . S
C276 C281 1.400 . S
C277 H261 0.939 . S
C277 C276 1.378 . S
C277 C278 1.361 . S
C278 H262 0.942 . S
C278 C277 1.361 . S
C278 C279 1.369 . S
C279 C278 1.369 . S
C279 C280 1.404 . S
C280 H263 0.940 . S
C280 C279 1.404 . S
C280 C281 1.389 . S
C281 H264 0.939 . S
C281 C276 1.400 . S
C281 C280 1.389 . S
C282 P256 1.819 . S
C282 C283 1.391 . S
C282 C287 1.391 . S
C283 H265 0.941 . S
C283 C282 1.391 . S
C283 C284 1.396 . S
C284 H268 0.939 . S
C284 C283 1.396 . S
C284 C285 1.397 . S
C285 C284 1.397 . S
C285 C286 1.385 . S
C286 H269 0.940 . S
C286 C285 1.385 . S
C286 C287 1.388 . S
C287 H266 0.939 . S
C287 C282 1.391 . S
C287 C286 1.388 . S
P288 O299 1.490 . S
P288 C302 1.812 . S
P288 C308 1.803 . S
P288 C314 1.819 . S
H289 C303 0.941 . S
H290 C304 0.939 . S
H291 C306 0.940 . S
H292 C307 0.940 . S
H293 C309 0.939 . S
H294 C310 0.942 . S
H295 C312 0.940 . S
H296 C313 0.939 . S
H297 C315 0.941 . S
H298 C319 0.939 . S
O299 P288 1.490 . S
H300 C316 0.939 . S
H301 C318 0.940 . S
C302 P288 1.812 . S
C302 C303 1.389 . S
C302 C307 1.391 . S
C303 H289 0.941 . S
C303 C302 1.389 . S
C303 C304 1.397 . S
C304 H290 0.939 . S
C304 C303 1.397 . S
C304 C305 1.378 . S
C305 C304 1.378 . S
C305 C306 1.378 . S
C306 H291 0.940 . S
C306 C305 1.378 . S
C306 C307 1.396 . S
C307 H292 0.940 . S
C307 C302 1.391 . S
C307 C306 1.396 . S
C308 P288 1.803 . S
C308 C309 1.378 . S
C308 C313 1.400 . S
C309 H293 0.939 . S
C309 C308 1.378 . S
C309 C310 1.361 . S
C310 H294 0.942 . S
C310 C309 1.361 . S
C310 C311 1.369 . S
C311 C310 1.369 . S
C311 C312 1.404 . S
C312 H295 0.940 . S
C312 C311 1.404 . S
C312 C313 1.389 . S
C313 H296 0.939 . S
C313 C308 1.400 . S
C313 C312 1.389 . S
C314 P288 1.819 . S
C314 C315 1.391 . S
C314 C319 1.391 . S
C315 H297 0.941 . S
C315 C314 1.391 . S
C315 C316 1.396 . S
C316 H300 0.939 . S
C316 C315 1.396 . S
C316 C317 1.397 . S
C317 C316 1.397 . S
C317 C318 1.385 . S
C318 H301 0.940 . S
C318 C317 1.385 . S
C318 C319 1.388 . S
C319 H298 0.939 . S
C319 C314 1.391 . S
C319 C318 1.388 . S
P320 O331 1.490 . S
P320 C334 1.812 . S
P320 C340 1.803 . S
P320 C346 1.819 . S
H321 C335 0.941 . S
H322 C336 0.939 . S
H323 C338 0.940 . S
H324 C339 0.940 . S
H325 C341 0.939 . S
H326 C342 0.942 . S
H327 C344 0.940 . S
H328 C345 0.939 . S
H329 C347 0.941 . S
H330 C351 0.939 . S
O331 P320 1.490 . S
H332 C348 0.939 . S
H333 C350 0.940 . S
C334 P320 1.812 . S
C334 C335 1.389 . S
C334 C339 1.391 . S
C335 H321 0.941 . S
C335 C334 1.389 . S
C335 C336 1.397 . S
C336 H322 0.939 . S
C336 C335 1.397 . S
C336 C337 1.378 . S
C337 C336 1.378 . S
C337 C338 1.378 . S
C338 H323 0.940 . S
C338 C337 1.378 . S
C338 C339 1.396 . S
C339 H324 0.940 . S
C339 C334 1.391 . S
C339 C338 1.396 . S
C340 P320 1.803 . S
C340 C341 1.378 . S
C340 C345 1.400 . S
C341 H325 0.939 . S
C341 C340 1.378 . S
C341 C342 1.361 . S
C342 H326 0.942 . S
C342 C341 1.361 . S
C342 C343 1.369 . S
C343 C342 1.369 . S
C343 C344 1.404 . S
C344 H327 0.940 . S
C344 C343 1.404 . S
C344 C345 1.389 . S
C345 H328 0.939 . S
C345 C340 1.400 . S
C345 C344 1.389 . S
C346 P320 1.819 . S
C346 C347 1.391 . S
C346 C351 1.391 . S
C347 H329 0.941 . S
C347 C346 1.391 . S
C347 C348 1.396 . S
C348 H332 0.939 . S
C348 C347 1.396 . S
C348 C349 1.397 . S
C349 C348 1.397 . S
C349 C350 1.385 . S
C350 H333 0.940 . S
C350 C349 1.385 . S
C350 C351 1.388 . S
C351 H330 0.939 . S
C351 C346 1.391 . S
C351 C350 1.388 . S
P352 O363 1.490 . S
P352 C366 1.812 . S
P352 C372 1.803 . S
P352 C378 1.819 . S
H353 C367 0.941 . S
H354 C368 0.939 . S
H355 C370 0.940 . S
H356 C371 0.940 . S
H357 C373 0.939 . S
H358 C374 0.942 . S
H359 C376 0.940 . S
H360 C377 0.939 . S
H361 C379 0.941 . S
H362 C383 0.939 . S
O363 P352 1.490 . S
H364 C380 0.939 . S
H365 C382 0.940 . S
C366 P352 1.812 . S
C366 C367 1.389 . S
C366 C371 1.391 . S
C367 H353 0.941 . S
C367 C366 1.389 . S
C367 C368 1.397 . S
C368 H354 0.939 . S
C368 C367 1.397 . S
C368 C369 1.378 . S
C369 C368 1.378 . S
C369 C370 1.378 . S
C370 H355 0.940 . S
C370 C369 1.378 . S
C370 C371 1.396 . S
C371 H356 0.940 . S
C371 C366 1.391 . S
C371 C370 1.396 . S
C372 P352 1.803 . S
C372 C373 1.378 . S
C372 C377 1.400 . S
C373 H357 0.939 . S
C373 C372 1.378 . S
C373 C374 1.361 . S
C374 H358 0.942 . S
C374 C373 1.361 . S
C374 C375 1.369 . S
C375 C374 1.369 . S
C375 C376 1.404 . S
C376 H359 0.940 . S
C376 C375 1.404 . S
C376 C377 1.389 . S
C377 H360 0.939 . S
C377 C372 1.400 . S
C377 C376 1.389 . S
C378 P352 1.819 . S
C378 C379 1.391 . S
C378 C383 1.391 . S
C379 H361 0.941 . S
C379 C378 1.391 . S
C379 C380 1.396 . S
C380 H364 0.939 . S
C380 C379 1.396 . S
C380 C381 1.397 . S
C381 C380 1.397 . S
C381 C382 1.385 . S
C382 H365 0.940 . S
C382 C381 1.385 . S
C382 C383 1.388 . S
C383 H362 0.939 . S
C383 C378 1.391 . S
C383 C382 1.388 . S
P384 O395 1.490 . S
P384 C398 1.812 . S
P384 C404 1.803 . S
P384 C410 1.819 . S
H385 C399 0.941 . S
H386 C400 0.939 . S
H387 C402 0.940 . S
H388 C403 0.940 . S
H389 C405 0.939 . S
H390 C406 0.942 . S
H391 C408 0.940 . S
H392 C409 0.939 . S
H393 C411 0.941 . S
H394 C415 0.939 . S
O395 P384 1.490 . S
H396 C412 0.939 . S
H397 C414 0.940 . S
C398 P384 1.812 . S
C398 C399 1.389 . S
C398 C403 1.391 . S
C399 H385 0.941 . S
C399 C398 1.389 . S
C399 C400 1.397 . S
C400 H386 0.939 . S
C400 C399 1.397 . S
C400 C401 1.378 . S
C401 C400 1.378 . S
C401 C402 1.378 . S
C402 H387 0.940 . S
C402 C401 1.378 . S
C402 C403 1.396 . S
C403 H388 0.940 . S
C403 C398 1.391 . S
C403 C402 1.396 . S
C404 P384 1.803 . S
C404 C405 1.378 . S
C404 C409 1.400 . S
C405 H389 0.939 . S
C405 C404 1.378 . S
C405 C406 1.361 . S
C406 H390 0.942 . S
C406 C405 1.361 . S
C406 C407 1.369 . S
C407 C406 1.369 . S
C407 C408 1.404 . S
C408 H391 0.940 . S
C408 C407 1.404 . S
C408 C409 1.389 . S
C409 H392 0.939 . S
C409 C404 1.400 . S
C409 C408 1.389 . S
C410 P384 1.819 . S
C410 C411 1.391 . S
C410 C415 1.391 . S
C411 H393 0.941 . S
C411 C410 1.391 . S
C411 C412 1.396 . S
C412 H396 0.939 . S
C412 C411 1.396 . S
C412 C413 1.397 . S
C413 C412 1.397 . S
C413 C414 1.385 . S
C414 H397 0.940 . S
C414 C413 1.385 . S
C414 C415 1.388 . S
C415 H394 0.939 . S
C415 C410 1.391 . S
C415 C414 1.388 . S
P416 O427 1.490 . S
P416 C430 1.812 . S
P416 C436 1.803 . S
P416 C442 1.819 . S
H417 C431 0.941 . S
H418 C432 0.939 . S
H419 C434 0.940 . S
H420 C435 0.940 . S
H421 C437 0.939 . S
H422 C438 0.942 . S
H423 C440 0.940 . S
H424 C441 0.939 . S
H425 C443 0.941 . S
H426 C447 0.939 . S
O427 P416 1.490 . S
H428 C444 0.939 . S
H429 C446 0.940 . S
C430 P416 1.812 . S
C430 C431 1.389 . S
C430 C435 1.391 . S
C431 H417 0.941 . S
C431 C430 1.389 . S
C431 C432 1.397 . S
C432 H418 0.939 . S
C432 C431 1.397 . S
C432 C433 1.378 . S
C433 C432 1.378 . S
C433 C434 1.378 . S
C434 H419 0.940 . S
C434 C433 1.378 . S
C434 C435 1.396 . S
C435 H420 0.940 . S
C435 C430 1.391 . S
C435 C434 1.396 . S
C436 P416 1.803 . S
C436 C437 1.378 . S
C436 C441 1.400 . S
C437 H421 0.939 . S
C437 C436 1.378 . S
C437 C438 1.361 . S
C438 H422 0.942 . S
C438 C437 1.361 . S
C438 C439 1.369 . S
C439 C438 1.369 . S
C439 C440 1.404 . S
C440 H423 0.940 . S
C440 C439 1.404 . S
C440 C441 1.389 . S
C441 H424 0.939 . S
C441 C436 1.400 . S
C441 C440 1.389 . S
C442 P416 1.819 . S
C442 C443 1.391 . S
C442 C447 1.391 . S
C443 H425 0.941 . S
C443 C442 1.391 . S
C443 C444 1.396 . S
C444 H428 0.939 . S
C444 C443 1.396 . S
C444 C445 1.397 . S
C445 C444 1.397 . S
C445 C446 1.385 . S
C446 H429 0.940 . S
C446 C445 1.385 . S
C446 C447 1.388 . S
C447 H426 0.939 . S
C447 C442 1.391 . S
C447 C446 1.388 . S
P448 O459 1.490 . S
P448 C462 1.812 . S
P448 C468 1.803 . S
P448 C474 1.819 . S
H449 C463 0.941 . S
H450 C464 0.939 . S
H451 C466 0.940 . S
H452 C467 0.940 . S
H453 C469 0.939 . S
H454 C470 0.942 . S
H455 C472 0.940 . S
H456 C473 0.939 . S
H457 C475 0.941 . S
H458 C479 0.939 . S
O459 P448 1.490 . S
H460 C476 0.939 . S
H461 C478 0.940 . S
C462 P448 1.812 . S
C462 C463 1.389 . S
C462 C467 1.391 . S
C463 H449 0.941 . S
C463 C462 1.389 . S
C463 C464 1.397 . S
C464 H450 0.939 . S
C464 C463 1.397 . S
C464 C465 1.378 . S
C465 C464 1.378 . S
C465 C466 1.378 . S
C466 H451 0.940 . S
C466 C465 1.378 . S
C466 C467 1.396 . S
C467 H452 0.940 . S
C467 C462 1.391 . S
C467 C466 1.396 . S
C468 P448 1.803 . S
C468 C469 1.378 . S
C468 C473 1.400 . S
C469 H453 0.939 . S
C469 C468 1.378 . S
C469 C470 1.361 . S
C470 H454 0.942 . S
C470 C469 1.361 . S
C470 C471 1.369 . S
C471 C470 1.369 . S
C471 C472 1.404 . S
C472 H455 0.940 . S
C472 C471 1.404 . S
C472 C473 1.389 . S
C473 H456 0.939 . S
C473 C468 1.400 . S
C473 C472 1.389 . S
C474 P448 1.819 . S
C474 C475 1.391 . S
C474 C479 1.391 . S
C475 H457 0.941 . S
C475 C474 1.391 . S
C475 C476 1.396 . S
C476 H460 0.939 . S
C476 C475 1.396 . S
C476 C477 1.397 . S
C477 C476 1.397 . S
C477 C478 1.385 . S
C478 H461 0.940 . S
C478 C477 1.385 . S
C478 C479 1.388 . S
C479 H458 0.939 . S
C479 C474 1.391 . S
C479 C478 1.388 . S
P480 O491 1.490 . S
P480 C494 1.812 . S
P480 C500 1.803 . S
P480 C506 1.819 . S
H481 C495 0.941 . S
H482 C496 0.939 . S
H483 C498 0.940 . S
H484 C499 0.940 . S
H485 C501 0.939 . S
H486 C502 0.942 . S
H487 C504 0.940 . S
H488 C505 0.939 . S
H489 C507 0.941 . S
H490 C511 0.939 . S
O491 P480 1.490 . S
H492 C508 0.939 . S
H493 C510 0.940 . S
C494 P480 1.812 . S
C494 C495 1.389 . S
C494 C499 1.391 . S
C495 H481 0.941 . S
C495 C494 1.389 . S
C495 C496 1.397 . S
C496 H482 0.939 . S
C496 C495 1.397 . S
C496 C497 1.378 . S
C497 C496 1.378 . S
C497 C498 1.378 . S
C498 H483 0.940 . S
C498 C497 1.378 . S
C498 C499 1.396 . S
C499 H484 0.940 . S
C499 C494 1.391 . S
C499 C498 1.396 . S
C500 P480 1.803 . S
C500 C501 1.378 . S
C500 C505 1.400 . S
C501 H485 0.939 . S
C501 C500 1.378 . S
C501 C502 1.361 . S
C502 H486 0.942 . S
C502 C501 1.361 . S
C502 C503 1.369 . S
C503 C502 1.369 . S
C503 C504 1.404 . S
C504 H487 0.940 . S
C504 C503 1.404 . S
C504 C505 1.389 . S
C505 H488 0.939 . S
C505 C500 1.400 . S
C505 C504 1.389 . S
C506 P480 1.819 . S
C506 C507 1.391 . S
C506 C511 1.391 . S
C507 H489 0.941 . S
C507 C506 1.391 . S
C507 C508 1.396 . S
C508 H492 0.939 . S
C508 C507 1.396 . S
C508 C509 1.397 . S
C509 C508 1.397 . S
C509 C510 1.385 . S
C510 H493 0.940 . S
C510 C509 1.385 . S
C510 C511 1.388 . S
C511 H490 0.939 . S
C511 C506 1.391 . S
C511 C510 1.388 . S
P512 O523 1.490 . S
P512 C526 1.812 . S
P512 C532 1.803 . S
P512 C538 1.819 . S
H513 C527 0.941 . S
H514 C528 0.939 . S
H515 C530 0.940 . S
H516 C531 0.940 . S
H517 C533 0.939 . S
H518 C534 0.942 . S
H519 C536 0.940 . S
H520 C537 0.939 . S
H521 C539 0.941 . S
H522 C543 0.939 . S
O523 P512 1.490 . S
H524 C540 0.939 . S
H525 C542 0.940 . S
C526 P512 1.812 . S
C526 C527 1.389 . S
C526 C531 1.391 . S
C527 H513 0.941 . S
C527 C526 1.389 . S
C527 C528 1.397 . S
C528 H514 0.939 . S
C528 C527 1.397 . S
C528 C529 1.378 . S
C529 C528 1.378 . S
C529 C530 1.378 . S
C530 H515 0.940 . S
C530 C529 1.378 . S
C530 C531 1.396 . S
C531 H516 0.940 . S
C531 C526 1.391 . S
C531 C530 1.396 . S
C532 P512 1.803 . S
C532 C533 1.378 . S
C532 C537 1.400 . S
C533 H517 0.939 . S
C533 C532 1.378 . S
C533 C534 1.361 . S
C534 H518 0.942 . S
C534 C533 1.361 . S
C534 C535 1.369 . S
C535 C534 1.369 . S
C535 C536 1.404 . S
C536 H519 0.940 . S
C536 C535 1.404 . S
C536 C537 1.389 . S
C537 H520 0.939 . S
C537 C532 1.400 . S
C537 C536 1.389 . S
C538 P512 1.819 . S
C538 C539 1.391 . S
C538 C543 1.391 . S
C539 H521 0.941 . S
C539 C538 1.391 . S
C539 C540 1.396 . S
C540 H524 0.939 . S
C540 C539 1.396 . S
C540 C541 1.397 . S
C541 C540 1.397 . S
C541 C542 1.385 . S
C542 H525 0.940 . S
C542 C541 1.385 . S
C542 C543 1.388 . S
C543 H522 0.939 . S
C543 C538 1.391 . S
C543 C542 1.388 . S
P544 O555 1.490 . S
P544 C558 1.812 . S
P544 C564 1.803 . S
P544 C570 1.819 . S
H545 C559 0.941 . S
H546 C560 0.939 . S
H547 C562 0.940 . S
H548 C563 0.940 . S
H549 C565 0.939 . S
H550 C566 0.942 . S
H551 C568 0.940 . S
H552 C569 0.939 . S
H553 C571 0.941 . S
H554 C575 0.939 . S
O555 P544 1.490 . S
H556 C572 0.939 . S
H557 C574 0.940 . S
C558 P544 1.812 . S
C558 C559 1.389 . S
C558 C563 1.391 . S
C559 H545 0.941 . S
C559 C558 1.389 . S
C559 C560 1.397 . S
C560 H546 0.939 . S
C560 C559 1.397 . S
C560 C561 1.378 . S
C561 C560 1.378 . S
C561 C562 1.378 . S
C562 H547 0.940 . S
C562 C561 1.378 . S
C562 C563 1.396 . S
C563 H548 0.940 . S
C563 C558 1.391 . S
C563 C562 1.396 . S
C564 P544 1.803 . S
C564 C565 1.378 . S
C564 C569 1.400 . S
C565 H549 0.939 . S
C565 C564 1.378 . S
C565 C566 1.361 . S
C566 H550 0.942 . S
C566 C565 1.361 . S
C566 C567 1.369 . S
C567 C566 1.369 . S
C567 C568 1.404 . S
C568 H551 0.940 . S
C568 C567 1.404 . S
C568 C569 1.389 . S
C569 H552 0.939 . S
C569 C564 1.400 . S
C569 C568 1.389 . S
C570 P544 1.819 . S
C570 C571 1.391 . S
C570 C575 1.391 . S
C571 H553 0.941 . S
C571 C570 1.391 . S
C571 C572 1.396 . S
C572 H556 0.939 . S
C572 C571 1.396 . S
C572 C573 1.397 . S
C573 C572 1.397 . S
C573 C574 1.385 . S
C574 H557 0.940 . S
C574 C573 1.385 . S
C574 C575 1.388 . S
C575 H554 0.939 . S
C575 C570 1.391 . S
C575 C574 1.388 . S
Gd576 N607 2.661 . S
Gd576 N613 2.601 . S
Gd576 O620 2.545 . S
Gd576 O621 2.606 1_545 S
Gd576 O623 2.429 . S
Gd576 O624 2.545 1_545 S
Gd576 O625 2.412 . S
Gd576 O627 2.362 1_554 S
Gd576 O628 2.324 1_545 S
Gd576 C635 2.828 . S
Gd577 N586 2.661 . S
Gd577 N590 2.601 . S
Gd577 O621 2.362 1_556 S
Gd577 O622 2.324 1_565 S
Gd577 O626 2.545 . S
Gd577 O627 2.606 1_565 S
Gd577 O629 2.429 . S
Gd577 O630 2.545 1_565 S
Gd577 O631 2.412 . S
Gd577 C644 2.828 . S
C578 C581 1.417 . S
C578 C583 1.431 . S
C578 C584 1.412 . S
C579 C582 1.437 . S
C579 C583 1.317 . S
C579 H598 0.929 . S
C580 C581 1.426 . S
C580 C582 1.413 . S
C580 N590 1.359 . S
C581 C578 1.417 . S
C581 C580 1.426 . S
C581 N586 1.350 . S
C582 C579 1.437 . S
C582 C580 1.413 . S
C582 C592 1.391 . S
C583 C578 1.431 . S
C583 C579 1.317 . S
C583 H594 0.930 . S
C584 C578 1.412 . S
C584 C585 1.355 . S
C584 H596 0.930 . S
C585 C584 1.355 . S
C585 C587 1.402 . S
C585 H597 0.930 . S
N586 Gd577 2.661 . S
N586 C581 1.350 . S
N586 C587 1.307 . S
C587 C585 1.402 . S
C587 N586 1.307 . S
C587 H588 0.930 . S
H588 C587 0.930 . S
C589 N590 1.334 . S
C589 C591 1.394 . S
C589 H593 0.930 . S
N590 Gd577 2.601 . S
N590 C580 1.359 . S
N590 C589 1.334 . S
C591 C589 1.394 . S
C591 C592 1.359 . S
C591 H603 0.930 . S
C592 C582 1.391 . S
C592 C591 1.359 . S
C592 H604 0.929 . S
H593 C589 0.930 . S
H594 C583 0.930 . S
H595 C612 0.930 . S
H596 C584 0.930 . S
H597 C585 0.930 . S
H598 C579 0.929 . S
H599 C617 0.930 . S
H600 C608 0.930 . S
H601 C609 0.930 . S
H602 C633 0.929 . S
H603 C591 0.930 . S
H604 C592 0.929 . S
H605 C634 0.930 . S
H606 C615 0.930 . S
N607 Gd576 2.661 . S
N607 C611 1.350 . S
N607 C612 1.307 . S
C608 H600 0.930 . S
C608 C609 1.355 . S
C608 C610 1.412 . S
C609 H601 0.930 . S
C609 C608 1.355 . S
C609 C612 1.402 . S
C610 C608 1.412 . S
C610 C611 1.417 . S
C610 C634 1.431 . S
C611 N607 1.350 . S
C611 C610 1.417 . S
C611 C614 1.426 . S
C612 H595 0.930 . S
C612 N607 1.307 . S
C612 C609 1.402 . S
N613 Gd576 2.601 . S
N613 C614 1.359 . S
N613 C617 1.334 . S
C614 C611 1.426 . S
C614 N613 1.359 . S
C614 C618 1.413 . S
C615 H606 0.930 . S
C615 C616 1.359 . S
C615 C617 1.394 . S
C616 C615 1.359 . S
C616 C618 1.391 . S
C616 H619 0.929 . S
C617 H599 0.930 . S
C617 N613 1.334 . S
C617 C615 1.394 . S
C618 C614 1.413 . S
C618 C616 1.391 . S
C618 C633 1.437 . S
H619 C616 0.929 . S
O620 Gd576 2.545 . S
O620 C635 1.258 . S
O621 Gd576 2.606 1_565 S
O621 Gd577 2.362 1_554 S
O621 C632 1.284 . S
O622 Gd577 2.324 1_545 S
O622 C642 1.254 . S
O623 Gd576 2.429 . S
O623 C642 1.268 1_554 S
O624 Gd576 2.545 1_565 S
O624 C632 1.250 . S
O625 Gd576 2.412 . S
O625 C635 1.252 . S
O626 Gd577 2.545 . S
O626 C644 1.258 . S
O627 Gd576 2.362 1_556 S
O627 Gd577 2.606 1_545 S
O627 C643 1.284 . S
O628 Gd576 2.324 1_565 S
O628 C651 1.254 . S
O629 Gd577 2.429 . S
O629 C651 1.268 1_556 S
O630 Gd577 2.545 1_545 S
O630 C643 1.250 . S
O631 Gd577 2.412 . S
O631 C644 1.252 . S
C632 O621 1.284 . S
C632 O624 1.250 . S
C633 H602 0.929 . S
C633 C618 1.437 . S
C633 C634 1.317 . S
C634 H605 0.930 . S
C634 C610 1.431 . S
C634 C633 1.317 . S
C635 Gd576 2.828 . S
C635 O620 1.258 . S
C635 O625 1.252 . S
C635 C636 1.497 . S
C636 C635 1.497 . S
C636 C637 1.395 . S
C636 C638 1.380 1_545 S
C637 C636 1.395 . S
C637 C640 1.398 . S
C637 H652 0.930 . S
C638 C636 1.380 1_565 S
C638 C639 1.391 . S
C638 H653 0.930 . S
C639 C638 1.391 . S
C639 C641 1.387 1_565 S
C640 C637 1.398 . S
C640 C641 1.380 . S
C640 H654 0.930 . S
C641 C639 1.387 1_545 S
C641 C640 1.380 . S
C641 H655 0.930 . S
C642 O622 1.254 . S
C642 O623 1.268 1_556 S
C643 O627 1.284 . S
C643 O630 1.250 . S
C644 Gd577 2.828 . S
C644 O626 1.258 . S
C644 O631 1.252 . S
C644 C645 1.497 . S
C645 C644 1.497 . S
C645 C646 1.395 . S
C645 C647 1.380 1_565 S
C646 C645 1.395 . S
C646 C649 1.398 . S
C646 H656 0.930 . S
C647 C645 1.380 1_545 S
C647 C648 1.391 . S
C647 H657 0.930 . S
C648 C647 1.391 . S
C648 C650 1.387 1_545 S
C649 C646 1.398 . S
C649 C650 1.380 . S
C649 H658 0.930 . S
C650 C648 1.387 1_565 S
C650 C649 1.380 . S
C650 H659 0.930 . S
C651 O628 1.254 . S
C651 O629 1.268 1_554 S
H652 C637 0.930 . S
H653 C638 0.930 . S
H654 C640 0.930 . S
H655 C641 0.930 . S
H656 C646 0.930 . S
H657 C647 0.930 . S
H658 C649 0.930 . S
H659 C650 0.930 . S
Gd660 N691 2.661 . S
Gd660 N697 2.601 . S
Gd660 O704 2.545 . S
Gd660 O705 2.606 1_655 S
Gd660 O707 2.429 . S
Gd660 O708 2.545 1_655 S
Gd660 O709 2.412 . S
Gd660 O711 2.362 1_554 S
Gd660 O712 2.324 1_655 S
Gd660 C719 2.828 . S
Gd661 N670 2.661 . S
Gd661 N674 2.601 . S
Gd661 O705 2.362 1_556 S
Gd661 O706 2.324 1_455 S
Gd661 O710 2.545 . S
Gd661 O711 2.606 1_455 S
Gd661 O713 2.429 . S
Gd661 O714 2.545 1_455 S
Gd661 O715 2.412 . S
Gd661 C728 2.828 . S
C662 C665 1.417 . S
C662 C667 1.431 . S
C662 C668 1.412 . S
C663 C666 1.437 . S
C663 C667 1.317 . S
C663 H682 0.929 . S
C664 C665 1.426 . S
C664 C666 1.413 . S
C664 N674 1.359 . S
C665 C662 1.417 . S
C665 C664 1.426 . S
C665 N670 1.350 . S
C666 C663 1.437 . S
C666 C664 1.413 . S
C666 C676 1.391 . S
C667 C662 1.431 . S
C667 C663 1.317 . S
C667 H678 0.930 . S
C668 C662 1.412 . S
C668 C669 1.355 . S
C668 H680 0.930 . S
C669 C668 1.355 . S
C669 C671 1.402 . S
C669 H681 0.930 . S
N670 Gd661 2.661 . S
N670 C665 1.350 . S
N670 C671 1.307 . S
C671 C669 1.402 . S
C671 N670 1.307 . S
C671 H672 0.930 . S
H672 C671 0.930 . S
C673 N674 1.334 . S
C673 C675 1.394 . S
C673 H677 0.930 . S
N674 Gd661 2.601 . S
N674 C664 1.359 . S
N674 C673 1.334 . S
C675 C673 1.394 . S
C675 C676 1.359 . S
C675 H687 0.930 . S
C676 C666 1.391 . S
C676 C675 1.359 . S
C676 H688 0.929 . S
H677 C673 0.930 . S
H678 C667 0.930 . S
H679 C696 0.930 . S
H680 C668 0.930 . S
H681 C669 0.930 . S
H682 C663 0.929 . S
H683 C701 0.930 . S
H684 C692 0.930 . S
H685 C693 0.930 . S
H686 C717 0.929 . S
H687 C675 0.930 . S
H688 C676 0.929 . S
H689 C718 0.930 . S
H690 C699 0.930 . S
N691 Gd660 2.661 . S
N691 C695 1.350 . S
N691 C696 1.307 . S
C692 H684 0.930 . S
C692 C693 1.355 . S
C692 C694 1.412 . S
C693 H685 0.930 . S
C693 C692 1.355 . S
C693 C696 1.402 . S
C694 C692 1.412 . S
C694 C695 1.417 . S
C694 C718 1.431 . S
C695 N691 1.350 . S
C695 C694 1.417 . S
C695 C698 1.426 . S
C696 H679 0.930 . S
C696 N691 1.307 . S
C696 C693 1.402 . S
N697 Gd660 2.601 . S
N697 C698 1.359 . S
N697 C701 1.334 . S
C698 C695 1.426 . S
C698 N697 1.359 . S
C698 C702 1.413 . S
C699 H690 0.930 . S
C699 C700 1.359 . S
C699 C701 1.394 . S
C700 C699 1.359 . S
C700 C702 1.391 . S
C700 H703 0.929 . S
C701 H683 0.930 . S
C701 N697 1.334 . S
C701 C699 1.394 . S
C702 C698 1.413 . S
C702 C700 1.391 . S
C702 C717 1.437 . S
H703 C700 0.929 . S
O704 Gd660 2.545 . S
O704 C719 1.258 . S
O705 Gd660 2.606 1_455 S
O705 Gd661 2.362 1_554 S
O705 C716 1.284 . S
O706 Gd661 2.324 1_655 S
O706 C726 1.254 . S
O707 Gd660 2.429 . S
O707 C726 1.268 1_554 S
O708 Gd660 2.545 1_455 S
O708 C716 1.250 . S
O709 Gd660 2.412 . S
O709 C719 1.252 . S
O710 Gd661 2.545 . S
O710 C728 1.258 . S
O711 Gd660 2.362 1_556 S
O711 Gd661 2.606 1_655 S
O711 C727 1.284 . S
O712 Gd660 2.324 1_455 S
O712 C735 1.254 . S
O713 Gd661 2.429 . S
O713 C735 1.268 1_556 S
O714 Gd661 2.545 1_655 S
O714 C727 1.250 . S
O715 Gd661 2.412 . S
O715 C728 1.252 . S
C716 O705 1.284 . S
C716 O708 1.250 . S
C717 H686 0.929 . S
C717 C702 1.437 . S
C717 C718 1.317 . S
C718 H689 0.930 . S
C718 C694 1.431 . S
C718 C717 1.317 . S
C719 Gd660 2.828 . S
C719 O704 1.258 . S
C719 O709 1.252 . S
C719 C720 1.497 . S
C720 C719 1.497 . S
C720 C721 1.395 . S
C720 C722 1.380 1_655 S
C721 C720 1.395 . S
C721 C724 1.398 . S
C721 H736 0.930 . S
C722 C720 1.380 1_455 S
C722 C723 1.391 . S
C722 H737 0.930 . S
C723 C722 1.391 . S
C723 C725 1.387 1_455 S
C724 C721 1.398 . S
C724 C725 1.380 . S
C724 H738 0.930 . S
C725 C723 1.387 1_655 S
C725 C724 1.380 . S
C725 H739 0.930 . S
C726 O706 1.254 . S
C726 O707 1.268 1_556 S
C727 O711 1.284 . S
C727 O714 1.250 . S
C728 Gd661 2.828 . S
C728 O710 1.258 . S
C728 O715 1.252 . S
C728 C729 1.497 . S
C729 C728 1.497 . S
C729 C730 1.395 . S
C729 C731 1.380 1_455 S
C730 C729 1.395 . S
C730 C733 1.398 . S
C730 H740 0.930 . S
C731 C729 1.380 1_655 S
C731 C732 1.391 . S
C731 H741 0.930 . S
C732 C731 1.391 . S
C732 C734 1.387 1_655 S
C733 C730 1.398 . S
C733 C734 1.380 . S
C733 H742 0.930 . S
C734 C732 1.387 1_455 S
C734 C733 1.380 . S
C734 H743 0.930 . S
C735 O712 1.254 . S
C735 O713 1.268 1_554 S
H736 C721 0.930 . S
H737 C722 0.930 . S
H738 C724 0.930 . S
H739 C725 0.930 . S
H740 C730 0.930 . S
H741 C731 0.930 . S
H742 C733 0.930 . S
H743 C734 0.930 . S
Gd744 N775 2.661 . S
Gd744 N781 2.601 . S
Gd744 O788 2.545 . S
Gd744 O789 2.606 . S
Gd744 O791 2.429 . S
Gd744 O792 2.545 . S
Gd744 O793 2.412 . S
Gd744 O795 2.362 1_556 S
Gd744 O796 2.324 . S
Gd744 C803 2.828 . S
Gd745 N754 2.661 . S
Gd745 N758 2.601 . S
Gd745 O789 2.362 1_554 S
Gd745 O790 2.324 . S
Gd745 O794 2.545 . S
Gd745 O795 2.606 . S
Gd745 O797 2.429 . S
Gd745 O798 2.545 . S
Gd745 O799 2.412 . S
Gd745 C812 2.828 . S
C746 C749 1.417 . S
C746 C751 1.431 . S
C746 C752 1.412 . S
C747 C750 1.437 . S
C747 C751 1.317 . S
C747 H766 0.929 . S
C748 C749 1.426 . S
C748 C750 1.413 . S
C748 N758 1.359 . S
C749 C746 1.417 . S
C749 C748 1.426 . S
C749 N754 1.350 . S
C750 C747 1.437 . S
C750 C748 1.413 . S
C750 C760 1.391 . S
C751 C746 1.431 . S
C751 C747 1.317 . S
C751 H762 0.930 . S
C752 C746 1.412 . S
C752 C753 1.355 . S
C752 H764 0.930 . S
C753 C752 1.355 . S
C753 C755 1.402 . S
C753 H765 0.930 . S
N754 Gd745 2.661 . S
N754 C749 1.350 . S
N754 C755 1.307 . S
C755 C753 1.402 . S
C755 N754 1.307 . S
C755 H756 0.930 . S
H756 C755 0.930 . S
C757 N758 1.334 . S
C757 C759 1.394 . S
C757 H761 0.930 . S
N758 Gd745 2.601 . S
N758 C748 1.359 . S
N758 C757 1.334 . S
C759 C757 1.394 . S
C759 C760 1.359 . S
C759 H771 0.930 . S
C760 C750 1.391 . S
C760 C759 1.359 . S
C760 H772 0.929 . S
H761 C757 0.930 . S
H762 C751 0.930 . S
H763 C780 0.930 . S
H764 C752 0.930 . S
H765 C753 0.930 . S
H766 C747 0.929 . S
H767 C785 0.930 . S
H768 C776 0.930 . S
H769 C777 0.930 . S
H770 C801 0.929 . S
H771 C759 0.930 . S
H772 C760 0.929 . S
H773 C802 0.930 . S
H774 C783 0.930 . S
N775 Gd744 2.661 . S
N775 C779 1.350 . S
N775 C780 1.307 . S
C776 H768 0.930 . S
C776 C777 1.355 . S
C776 C778 1.412 . S
C777 H769 0.930 . S
C777 C776 1.355 . S
C777 C780 1.402 . S
C778 C776 1.412 . S
C778 C779 1.417 . S
C778 C802 1.431 . S
C779 N775 1.350 . S
C779 C778 1.417 . S
C779 C782 1.426 . S
C780 H763 0.930 . S
C780 N775 1.307 . S
C780 C777 1.402 . S
N781 Gd744 2.601 . S
N781 C782 1.359 . S
N781 C785 1.334 . S
C782 C779 1.426 . S
C782 N781 1.359 . S
C782 C786 1.413 . S
C783 H774 0.930 . S
C783 C784 1.359 . S
C783 C785 1.394 . S
C784 C783 1.359 . S
C784 C786 1.391 . S
C784 H787 0.929 . S
C785 H767 0.930 . S
C785 N781 1.334 . S
C785 C783 1.394 . S
C786 C782 1.413 . S
C786 C784 1.391 . S
C786 C801 1.437 . S
H787 C784 0.929 . S
O788 Gd744 2.545 . S
O788 C803 1.258 . S
O789 Gd744 2.606 . S
O789 Gd745 2.362 1_556 S
O789 C800 1.284 . S
O790 Gd745 2.324 . S
O790 C810 1.254 . S
O791 Gd744 2.429 . S
O791 C810 1.268 1_556 S
O792 Gd744 2.545 . S
O792 C800 1.250 . S
O793 Gd744 2.412 . S
O793 C803 1.252 . S
O794 Gd745 2.545 . S
O794 C812 1.258 . S
O795 Gd744 2.362 1_554 S
O795 Gd745 2.606 . S
O795 C811 1.284 . S
O796 Gd744 2.324 . S
O796 C819 1.254 . S
O797 Gd745 2.429 . S
O797 C819 1.268 1_554 S
O798 Gd745 2.545 . S
O798 C811 1.250 . S
O799 Gd745 2.412 . S
O799 C812 1.252 . S
C800 O789 1.284 . S
C800 O792 1.250 . S
C801 H770 0.929 . S
C801 C786 1.437 . S
C801 C802 1.317 . S
C802 H773 0.930 . S
C802 C778 1.431 . S
C802 C801 1.317 . S
C803 Gd744 2.828 . S
C803 O788 1.258 . S
C803 O793 1.252 . S
C803 C804 1.497 . S
C804 C803 1.497 . S
C804 C805 1.395 . S
C804 C806 1.380 . S
C805 C804 1.395 . S
C805 C808 1.398 . S
C805 H820 0.930 . S
C806 C804 1.380 . S
C806 C807 1.391 . S
C806 H821 0.930 . S
C807 C806 1.391 . S
C807 C809 1.387 . S
C808 C805 1.398 . S
C808 C809 1.380 . S
C808 H822 0.930 . S
C809 C807 1.387 . S
C809 C808 1.380 . S
C809 H823 0.930 . S
C810 O790 1.254 . S
C810 O791 1.268 1_554 S
C811 O795 1.284 . S
C811 O798 1.250 . S
C812 Gd745 2.828 . S
C812 O794 1.258 . S
C812 O799 1.252 . S
C812 C813 1.497 . S
C813 C812 1.497 . S
C813 C814 1.395 . S
C813 C815 1.380 . S
C814 C813 1.395 . S
C814 C817 1.398 . S
C814 H824 0.930 . S
C815 C813 1.380 . S
C815 C816 1.391 . S
C815 H825 0.930 . S
C816 C815 1.391 . S
C816 C818 1.387 . S
C817 C814 1.398 . S
C817 C818 1.380 . S
C817 H826 0.930 . S
C818 C816 1.387 . S
C818 C817 1.380 . S
C818 H827 0.930 . S
C819 O796 1.254 . S
C819 O797 1.268 1_556 S
H820 C805 0.930 . S
H821 C806 0.930 . S
H822 C808 0.930 . S
H823 C809 0.930 . S
H824 C814 0.930 . S
H825 C815 0.930 . S
H826 C817 0.930 . S
H827 C818 0.930 . S
Gd828 N859 2.661 . S
Gd828 N865 2.601 . S
Gd828 O872 2.545 . S
Gd828 O873 2.606 . S
Gd828 O875 2.429 . S
Gd828 O876 2.545 . S
Gd828 O877 2.412 . S
Gd828 O879 2.362 . S
Gd828 O880 2.324 . S
Gd828 C887 2.828 . S
Gd829 N838 2.661 . S
Gd829 N842 2.601 . S
Gd829 O873 2.362 . S
Gd829 O874 2.324 . S
Gd829 O878 2.545 . S
Gd829 O879 2.606 . S
Gd829 O881 2.429 . S
Gd829 O882 2.545 . S
Gd829 O883 2.412 . S
Gd829 C896 2.828 . S
C830 C833 1.417 . S
C830 C835 1.431 . S
C830 C836 1.412 . S
C831 C834 1.437 . S
C831 C835 1.317 . S
C831 H850 0.929 . S
C832 C833 1.426 . S
C832 C834 1.413 . S
C832 N842 1.359 . S
C833 C830 1.417 . S
C833 C832 1.426 . S
C833 N838 1.350 . S
C834 C831 1.437 . S
C834 C832 1.413 . S
C834 C844 1.391 . S
C835 C830 1.431 . S
C835 C831 1.317 . S
C835 H846 0.930 . S
C836 C830 1.412 . S
C836 C837 1.355 . S
C836 H848 0.930 . S
C837 C836 1.355 . S
C837 C839 1.402 . S
C837 H849 0.930 . S
N838 Gd829 2.661 . S
N838 C833 1.350 . S
N838 C839 1.307 . S
C839 C837 1.402 . S
C839 N838 1.307 . S
C839 H840 0.930 . S
H840 C839 0.930 . S
C841 N842 1.334 . S
C841 C843 1.394 . S
C841 H845 0.930 . S
N842 Gd829 2.601 . S
N842 C832 1.359 . S
N842 C841 1.334 . S
C843 C841 1.394 . S
C843 C844 1.359 . S
C843 H855 0.930 . S
C844 C834 1.391 . S
C844 C843 1.359 . S
C844 H856 0.929 . S
H845 C841 0.930 . S
H846 C835 0.930 . S
H847 C864 0.930 . S
H848 C836 0.930 . S
H849 C837 0.930 . S
H850 C831 0.929 . S
H851 C869 0.930 . S
H852 C860 0.930 . S
H853 C861 0.930 . S
H854 C885 0.929 . S
H855 C843 0.930 . S
H856 C844 0.929 . S
H857 C886 0.930 . S
H858 C867 0.930 . S
N859 Gd828 2.661 . S
N859 C863 1.350 . S
N859 C864 1.307 . S
C860 H852 0.930 . S
C860 C861 1.355 . S
C860 C862 1.412 . S
C861 H853 0.930 . S
C861 C860 1.355 . S
C861 C864 1.402 . S
C862 C860 1.412 . S
C862 C863 1.417 . S
C862 C886 1.431 . S
C863 N859 1.350 . S
C863 C862 1.417 . S
C863 C866 1.426 . S
C864 H847 0.930 . S
C864 N859 1.307 . S
C864 C861 1.402 . S
N865 Gd828 2.601 . S
N865 C866 1.359 . S
N865 C869 1.334 . S
C866 C863 1.426 . S
C866 N865 1.359 . S
C866 C870 1.413 . S
C867 H858 0.930 . S
C867 C868 1.359 . S
C867 C869 1.394 . S
C868 C867 1.359 . S
C868 C870 1.391 . S
C868 H871 0.929 . S
C869 H851 0.930 . S
C869 N865 1.334 . S
C869 C867 1.394 . S
C870 C866 1.413 . S
C870 C868 1.391 . S
C870 C885 1.437 . S
H871 C868 0.929 . S
O872 Gd828 2.545 . S
O872 C887 1.258 . S
O873 Gd828 2.606 . S
O873 Gd829 2.362 . S
O873 C884 1.284 . S
O874 Gd829 2.324 . S
O874 C894 1.254 . S
O875 Gd828 2.429 . S
O875 C894 1.268 . S
O876 Gd828 2.545 . S
O876 C884 1.250 . S
O877 Gd828 2.412 . S
O877 C887 1.252 . S
O878 Gd829 2.545 . S
O878 C896 1.258 . S
O879 Gd828 2.362 . S
O879 Gd829 2.606 . S
O879 C895 1.284 . S
O880 Gd828 2.324 . S
O880 C903 1.254 . S
O881 Gd829 2.429 . S
O881 C903 1.268 . S
O882 Gd829 2.545 . S
O882 C895 1.250 . S
O883 Gd829 2.412 . S
O883 C896 1.252 . S
C884 O873 1.284 . S
C884 O876 1.250 . S
C885 H854 0.929 . S
C885 C870 1.437 . S
C885 C886 1.317 . S
C886 H857 0.930 . S
C886 C862 1.431 . S
C886 C885 1.317 . S
C887 Gd828 2.828 . S
C887 O872 1.258 . S
C887 O877 1.252 . S
C887 C888 1.497 . S
C888 C887 1.497 . S
C888 C889 1.395 . S
C888 C890 1.380 . S
C889 C888 1.395 . S
C889 C892 1.398 . S
C889 H904 0.930 . S
C890 C888 1.380 . S
C890 C891 1.391 . S
C890 H905 0.930 . S
C891 C890 1.391 . S
C891 C893 1.387 . S
C892 C889 1.398 . S
C892 C893 1.380 . S
C892 H906 0.930 . S
C893 C891 1.387 . S
C893 C892 1.380 . S
C893 H907 0.930 . S
C894 O874 1.254 . S
C894 O875 1.268 . S
C895 O879 1.284 . S
C895 O882 1.250 . S
C896 Gd829 2.828 . S
C896 O878 1.258 . S
C896 O883 1.252 . S
C896 C897 1.497 . S
C897 C896 1.497 . S
C897 C898 1.395 . S
C897 C899 1.380 . S
C898 C897 1.395 . S
C898 C901 1.398 . S
C898 H908 0.930 . S
C899 C897 1.380 . S
C899 C900 1.391 . S
C899 H909 0.930 . S
C900 C899 1.391 . S
C900 C902 1.387 . S
C901 C898 1.398 . S
C901 C902 1.380 . S
C901 H910 0.930 . S
C902 C900 1.387 . S
C902 C901 1.380 . S
C902 H911 0.930 . S
C903 O880 1.254 . S
C903 O881 1.268 . S
H904 C889 0.930 . S
H905 C890 0.930 . S
H906 C892 0.930 . S
H907 C893 0.930 . S
H908 C898 0.930 . S
H909 C899 0.930 . S
H910 C901 0.930 . S
H911 C902 0.930 . S
Gd912 N943 2.661 . S
Gd912 N949 2.601 . S
Gd912 O956 2.545 . S
Gd912 O957 2.606 . S
Gd912 O959 2.429 . S
Gd912 O960 2.545 . S
Gd912 O961 2.412 . S
Gd912 O963 2.362 . S
Gd912 O964 2.324 . S
Gd912 C971 2.828 . S
Gd913 N922 2.661 . S
Gd913 N926 2.601 . S
Gd913 O957 2.362 . S
Gd913 O958 2.324 . S
Gd913 O962 2.545 . S
Gd913 O963 2.606 . S
Gd913 O965 2.429 . S
Gd913 O966 2.545 . S
Gd913 O967 2.412 . S
Gd913 C980 2.828 . S
C914 C917 1.417 . S
C914 C919 1.431 . S
C914 C920 1.412 . S
C915 C918 1.437 . S
C915 C919 1.317 . S
C915 H934 0.929 . S
C916 C917 1.426 . S
C916 C918 1.413 . S
C916 N926 1.359 . S
C917 C914 1.417 . S
C917 C916 1.426 . S
C917 N922 1.350 . S
C918 C915 1.437 . S
C918 C916 1.413 . S
C918 C928 1.391 . S
C919 C914 1.431 . S
C919 C915 1.317 . S
C919 H930 0.930 . S
C920 C914 1.412 . S
C920 C921 1.355 . S
C920 H932 0.930 . S
C921 C920 1.355 . S
C921 C923 1.402 . S
C921 H933 0.930 . S
N922 Gd913 2.661 . S
N922 C917 1.350 . S
N922 C923 1.307 . S
C923 C921 1.402 . S
C923 N922 1.307 . S
C923 H924 0.930 . S
H924 C923 0.930 . S
C925 N926 1.334 . S
C925 C927 1.394 . S
C925 H929 0.930 . S
N926 Gd913 2.601 . S
N926 C916 1.359 . S
N926 C925 1.334 . S
C927 C925 1.394 . S
C927 C928 1.359 . S
C927 H939 0.930 . S
C928 C918 1.391 . S
C928 C927 1.359 . S
C928 H940 0.929 . S
H929 C925 0.930 . S
H930 C919 0.930 . S
H931 C948 0.930 . S
H932 C920 0.930 . S
H933 C921 0.930 . S
H934 C915 0.929 . S
H935 C953 0.930 . S
H936 C944 0.930 . S
H937 C945 0.930 . S
H938 C969 0.929 . S
H939 C927 0.930 . S
H940 C928 0.929 . S
H941 C970 0.930 . S
H942 C951 0.930 . S
N943 Gd912 2.661 . S
N943 C947 1.350 . S
N943 C948 1.307 . S
C944 H936 0.930 . S
C944 C945 1.355 . S
C944 C946 1.412 . S
C945 H937 0.930 . S
C945 C944 1.355 . S
C945 C948 1.402 . S
C946 C944 1.412 . S
C946 C947 1.417 . S
C946 C970 1.431 . S
C947 N943 1.350 . S
C947 C946 1.417 . S
C947 C950 1.426 . S
C948 H931 0.930 . S
C948 N943 1.307 . S
C948 C945 1.402 . S
N949 Gd912 2.601 . S
N949 C950 1.359 . S
N949 C953 1.334 . S
C950 C947 1.426 . S
C950 N949 1.359 . S
C950 C954 1.413 . S
C951 H942 0.930 . S
C951 C952 1.359 . S
C951 C953 1.394 . S
C952 C951 1.359 . S
C952 C954 1.391 . S
C952 H955 0.929 . S
C953 H935 0.930 . S
C953 N949 1.334 . S
C953 C951 1.394 . S
C954 C950 1.413 . S
C954 C952 1.391 . S
C954 C969 1.437 . S
H955 C952 0.929 . S
O956 Gd912 2.545 . S
O956 C971 1.258 . S
O957 Gd912 2.606 . S
O957 Gd913 2.362 . S
O957 C968 1.284 . S
O958 Gd913 2.324 . S
O958 C978 1.254 . S
O959 Gd912 2.429 . S
O959 C978 1.268 . S
O960 Gd912 2.545 . S
O960 C968 1.250 . S
O961 Gd912 2.412 . S
O961 C971 1.252 . S
O962 Gd913 2.545 . S
O962 C980 1.258 . S
O963 Gd912 2.362 . S
O963 Gd913 2.606 . S
O963 C979 1.284 . S
O964 Gd912 2.324 . S
O964 C987 1.254 . S
O965 Gd913 2.429 . S
O965 C987 1.268 . S
O966 Gd913 2.545 . S
O966 C979 1.250 . S
O967 Gd913 2.412 . S
O967 C980 1.252 . S
C968 O957 1.284 . S
C968 O960 1.250 . S
C969 H938 0.929 . S
C969 C954 1.437 . S
C969 C970 1.317 . S
C970 H941 0.930 . S
C970 C946 1.431 . S
C970 C969 1.317 . S
C971 Gd912 2.828 . S
C971 O956 1.258 . S
C971 O961 1.252 . S
C971 C972 1.497 . S
C972 C971 1.497 . S
C972 C973 1.395 . S
C972 C974 1.380 . S
C973 C972 1.395 . S
C973 C976 1.398 . S
C973 H988 0.930 . S
C974 C972 1.380 . S
C974 C975 1.391 . S
C974 H989 0.930 . S
C975 C974 1.391 . S
C975 C977 1.387 . S
C976 C973 1.398 . S
C976 C977 1.380 . S
C976 H990 0.930 . S
C977 C975 1.387 . S
C977 C976 1.380 . S
C977 H991 0.930 . S
C978 O958 1.254 . S
C978 O959 1.268 . S
C979 O963 1.284 . S
C979 O966 1.250 . S
C980 Gd913 2.828 . S
C980 O962 1.258 . S
C980 O967 1.252 . S
C980 C981 1.497 . S
C981 C980 1.497 . S
C981 C982 1.395 . S
C981 C983 1.380 . S
C982 C981 1.395 . S
C982 C985 1.398 . S
C982 H992 0.930 . S
C983 C981 1.380 . S
C983 C984 1.391 . S
C983 H993 0.930 . S
C984 C983 1.391 . S
C984 C986 1.387 . S
C985 C982 1.398 . S
C985 C986 1.380 . S
C985 H994 0.930 . S
C986 C984 1.387 . S
C986 C985 1.380 . S
C986 H995 0.930 . S
C987 O964 1.254 . S
C987 O965 1.268 . S
H988 C973 0.930 . S
H989 C974 0.930 . S
H990 C976 0.930 . S
H991 C977 0.930 . S
H992 C982 0.930 . S
H993 C983 0.930 . S
H994 C985 0.930 . S
H995 C986 0.930 . S
Gd996 N1027 2.661 . S
Gd996 N1033 2.601 . S
Gd996 O1040 2.545 . S
Gd996 O1041 2.606 . S
Gd996 O1043 2.429 . S
Gd996 O1044 2.545 . S
Gd996 O1045 2.412 . S
Gd996 O1047 2.362 . S
Gd996 O1048 2.324 . S
Gd996 C1055 2.828 . S
Gd997 N1006 2.661 . S
Gd997 N1010 2.601 . S
Gd997 O1041 2.362 . S
Gd997 O1042 2.324 . S
Gd997 O1046 2.545 . S
Gd997 O1047 2.606 . S
Gd997 O1049 2.429 . S
Gd997 O1050 2.545 . S
Gd997 O1051 2.412 . S
Gd997 C1064 2.828 . S
C998 C1001 1.417 . S
C998 C1003 1.431 . S
C998 C1004 1.412 . S
C999 C1002 1.437 . S
C999 C1003 1.317 . S
C999 H1018 0.929 . S
C1000 C1001 1.426 . S
C1000 C1002 1.413 . S
C1000 N1010 1.359 . S
C1001 C998 1.417 . S
C1001 C1000 1.426 . S
C1001 N1006 1.350 . S
C1002 C999 1.437 . S
C1002 C1000 1.413 . S
C1002 C1012 1.391 . S
C1003 C998 1.431 . S
C1003 C999 1.317 . S
C1003 H1014 0.930 . S
C1004 C998 1.412 . S
C1004 C1005 1.355 . S
C1004 H1016 0.930 . S
C1005 C1004 1.355 . S
C1005 C1007 1.402 . S
C1005 H1017 0.930 . S
N1006 Gd997 2.661 . S
N1006 C1001 1.350 . S
N1006 C1007 1.307 . S
C1007 C1005 1.402 . S
C1007 N1006 1.307 . S
C1007 H1008 0.930 . S
H1008 C1007 0.930 . S
C1009 N1010 1.334 . S
C1009 C1011 1.394 . S
C1009 H1013 0.930 . S
N1010 Gd997 2.601 . S
N1010 C1000 1.359 . S
N1010 C1009 1.334 . S
C1011 C1009 1.394 . S
C1011 C1012 1.359 . S
C1011 H1023 0.930 . S
C1012 C1002 1.391 . S
C1012 C1011 1.359 . S
C1012 H1024 0.929 . S
H1013 C1009 0.930 . S
H1014 C1003 0.930 . S
H1015 C1032 0.930 . S
H1016 C1004 0.930 . S
H1017 C1005 0.930 . S
H1018 C999 0.929 . S
H1019 C1037 0.930 . S
H1020 C1028 0.930 . S
H1021 C1029 0.930 . S
H1022 C1053 0.929 . S
H1023 C1011 0.930 . S
H1024 C1012 0.929 . S
H1025 C1054 0.930 . S
H1026 C1035 0.930 . S
N1027 Gd996 2.661 . S
N1027 C1031 1.350 . S
N1027 C1032 1.307 . S
C1028 H1020 0.930 . S
C1028 C1029 1.355 . S
C1028 C1030 1.412 . S
C1029 H1021 0.930 . S
C1029 C1028 1.355 . S
C1029 C1032 1.402 . S
C1030 C1028 1.412 . S
C1030 C1031 1.417 . S
C1030 C1054 1.431 . S
C1031 N1027 1.350 . S
C1031 C1030 1.417 . S
C1031 C1034 1.426 . S
C1032 H1015 0.930 . S
C1032 N1027 1.307 . S
C1032 C1029 1.402 . S
N1033 Gd996 2.601 . S
N1033 C1034 1.359 . S
N1033 C1037 1.334 . S
C1034 C1031 1.426 . S
C1034 N1033 1.359 . S
C1034 C1038 1.413 . S
C1035 H1026 0.930 . S
C1035 C1036 1.359 . S
C1035 C1037 1.394 . S
C1036 C1035 1.359 . S
C1036 C1038 1.391 . S
C1036 H1039 0.929 . S
C1037 H1019 0.930 . S
C1037 N1033 1.334 . S
C1037 C1035 1.394 . S
C1038 C1034 1.413 . S
C1038 C1036 1.391 . S
C1038 C1053 1.437 . S
H1039 C1036 0.929 . S
O1040 Gd996 2.545 . S
O1040 C1055 1.258 . S
O1041 Gd996 2.606 . S
O1041 Gd997 2.362 . S
O1041 C1052 1.284 . S
O1042 Gd997 2.324 . S
O1042 C1062 1.254 . S
O1043 Gd996 2.429 . S
O1043 C1062 1.268 . S
O1044 Gd996 2.545 . S
O1044 C1052 1.250 . S
O1045 Gd996 2.412 . S
O1045 C1055 1.252 . S
O1046 Gd997 2.545 . S
O1046 C1064 1.258 . S
O1047 Gd996 2.362 . S
O1047 Gd997 2.606 . S
O1047 C1063 1.284 . S
O1048 Gd996 2.324 . S
O1048 C1071 1.254 . S
O1049 Gd997 2.429 . S
O1049 C1071 1.268 . S
O1050 Gd997 2.545 . S
O1050 C1063 1.250 . S
O1051 Gd997 2.412 . S
O1051 C1064 1.252 . S
C1052 O1041 1.284 . S
C1052 O1044 1.250 . S
C1053 H1022 0.929 . S
C1053 C1038 1.437 . S
C1053 C1054 1.317 . S
C1054 H1025 0.930 . S
C1054 C1030 1.431 . S
C1054 C1053 1.317 . S
C1055 Gd996 2.828 . S
C1055 O1040 1.258 . S
C1055 O1045 1.252 . S
C1055 C1056 1.497 . S
C1056 C1055 1.497 . S
C1056 C1057 1.395 . S
C1056 C1058 1.380 . S
C1057 C1056 1.395 . S
C1057 C1060 1.398 . S
C1057 H1072 0.930 . S
C1058 C1056 1.380 . S
C1058 C1059 1.391 . S
C1058 H1073 0.930 . S
C1059 C1058 1.391 . S
C1059 C1061 1.387 . S
C1060 C1057 1.398 . S
C1060 C1061 1.380 . S
C1060 H1074 0.930 . S
C1061 C1059 1.387 . S
C1061 C1060 1.380 . S
C1061 H1075 0.930 . S
C1062 O1042 1.254 . S
C1062 O1043 1.268 . S
C1063 O1047 1.284 . S
C1063 O1050 1.250 . S
C1064 Gd997 2.828 . S
C1064 O1046 1.258 . S
C1064 O1051 1.252 . S
C1064 C1065 1.497 . S
C1065 C1064 1.497 . S
C1065 C1066 1.395 . S
C1065 C1067 1.380 . S
C1066 C1065 1.395 . S
C1066 C1069 1.398 . S
C1066 H1076 0.930 . S
C1067 C1065 1.380 . S
C1067 C1068 1.391 . S
C1067 H1077 0.930 . S
C1068 C1067 1.391 . S
C1068 C1070 1.387 . S
C1069 C1066 1.398 . S
C1069 C1070 1.380 . S
C1069 H1078 0.930 . S
C1070 C1068 1.387 . S
C1070 C1069 1.380 . S
C1070 H1079 0.930 . S
C1071 O1048 1.254 . S
C1071 O1049 1.268 . S
H1072 C1057 0.930 . S
H1073 C1058 0.930 . S
H1074 C1060 0.930 . S
H1075 C1061 0.930 . S
H1076 C1066 0.930 . S
H1077 C1067 0.930 . S
H1078 C1069 0.930 . S
H1079 C1070 0.930 . S
Gd1080 N1111 2.661 . S
Gd1080 N1117 2.601 . S
Gd1080 O1124 2.545 . S
Gd1080 O1125 2.606 . S
Gd1080 O1127 2.429 . S
Gd1080 O1128 2.545 . S
Gd1080 O1129 2.412 . S
Gd1080 O1131 2.362 . S
Gd1080 O1132 2.324 . S
Gd1080 C1139 2.828 . S
Gd1081 N1090 2.661 . S
Gd1081 N1094 2.601 . S
Gd1081 O1125 2.362 . S
Gd1081 O1126 2.324 . S
Gd1081 O1130 2.545 . S
Gd1081 O1131 2.606 . S
Gd1081 O1133 2.429 . S
Gd1081 O1134 2.545 . S
Gd1081 O1135 2.412 . S
Gd1081 C1148 2.828 . S
C1082 C1085 1.417 . S
C1082 C1087 1.431 . S
C1082 C1088 1.412 . S
C1083 C1086 1.437 . S
C1083 C1087 1.317 . S
C1083 H1102 0.929 . S
C1084 C1085 1.426 . S
C1084 C1086 1.413 . S
C1084 N1094 1.359 . S
C1085 C1082 1.417 . S
C1085 C1084 1.426 . S
C1085 N1090 1.350 . S
C1086 C1083 1.437 . S
C1086 C1084 1.413 . S
C1086 C1096 1.391 . S
C1087 C1082 1.431 . S
C1087 C1083 1.317 . S
C1087 H1098 0.930 . S
C1088 C1082 1.412 . S
C1088 C1089 1.355 . S
C1088 H1100 0.930 . S
C1089 C1088 1.355 . S
C1089 C1091 1.402 . S
C1089 H1101 0.930 . S
N1090 Gd1081 2.661 . S
N1090 C1085 1.350 . S
N1090 C1091 1.307 . S
C1091 C1089 1.402 . S
C1091 N1090 1.307 . S
C1091 H1092 0.930 . S
H1092 C1091 0.930 . S
C1093 N1094 1.334 . S
C1093 C1095 1.394 . S
C1093 H1097 0.930 . S
N1094 Gd1081 2.601 . S
N1094 C1084 1.359 . S
N1094 C1093 1.334 . S
C1095 C1093 1.394 . S
C1095 C1096 1.359 . S
C1095 H1107 0.930 . S
C1096 C1086 1.391 . S
C1096 C1095 1.359 . S
C1096 H1108 0.929 . S
H1097 C1093 0.930 . S
H1098 C1087 0.930 . S
H1099 C1116 0.930 . S
H1100 C1088 0.930 . S
H1101 C1089 0.930 . S
H1102 C1083 0.929 . S
H1103 C1121 0.930 . S
H1104 C1112 0.930 . S
H1105 C1113 0.930 . S
H1106 C1137 0.929 . S
H1107 C1095 0.930 . S
H1108 C1096 0.929 . S
H1109 C1138 0.930 . S
H1110 C1119 0.930 . S
N1111 Gd1080 2.661 . S
N1111 C1115 1.350 . S
N1111 C1116 1.307 . S
C1112 H1104 0.930 . S
C1112 C1113 1.355 . S
C1112 C1114 1.412 . S
C1113 H1105 0.930 . S
C1113 C1112 1.355 . S
C1113 C1116 1.402 . S
C1114 C1112 1.412 . S
C1114 C1115 1.417 . S
C1114 C1138 1.431 . S
C1115 N1111 1.350 . S
C1115 C1114 1.417 . S
C1115 C1118 1.426 . S
C1116 H1099 0.930 . S
C1116 N1111 1.307 . S
C1116 C1113 1.402 . S
N1117 Gd1080 2.601 . S
N1117 C1118 1.359 . S
N1117 C1121 1.334 . S
C1118 C1115 1.426 . S
C1118 N1117 1.359 . S
C1118 C1122 1.413 . S
C1119 H1110 0.930 . S
C1119 C1120 1.359 . S
C1119 C1121 1.394 . S
C1120 C1119 1.359 . S
C1120 C1122 1.391 . S
C1120 H1123 0.929 . S
C1121 H1103 0.930 . S
C1121 N1117 1.334 . S
C1121 C1119 1.394 . S
C1122 C1118 1.413 . S
C1122 C1120 1.391 . S
C1122 C1137 1.437 . S
H1123 C1120 0.929 . S
O1124 Gd1080 2.545 . S
O1124 C1139 1.258 . S
O1125 Gd1080 2.606 . S
O1125 Gd1081 2.362 . S
O1125 C1136 1.284 . S
O1126 Gd1081 2.324 . S
O1126 C1146 1.254 . S
O1127 Gd1080 2.429 . S
O1127 C1146 1.268 . S
O1128 Gd1080 2.545 . S
O1128 C1136 1.250 . S
O1129 Gd1080 2.412 . S
O1129 C1139 1.252 . S
O1130 Gd1081 2.545 . S
O1130 C1148 1.258 . S
O1131 Gd1080 2.362 . S
O1131 Gd1081 2.606 . S
O1131 C1147 1.284 . S
O1132 Gd1080 2.324 . S
O1132 C1155 1.254 . S
O1133 Gd1081 2.429 . S
O1133 C1155 1.268 . S
O1134 Gd1081 2.545 . S
O1134 C1147 1.250 . S
O1135 Gd1081 2.412 . S
O1135 C1148 1.252 . S
C1136 O1125 1.284 . S
C1136 O1128 1.250 . S
C1137 H1106 0.929 . S
C1137 C1122 1.437 . S
C1137 C1138 1.317 . S
C1138 H1109 0.930 . S
C1138 C1114 1.431 . S
C1138 C1137 1.317 . S
C1139 Gd1080 2.828 . S
C1139 O1124 1.258 . S
C1139 O1129 1.252 . S
C1139 C1140 1.497 . S
C1140 C1139 1.497 . S
C1140 C1141 1.395 . S
C1140 C1142 1.380 . S
C1141 C1140 1.395 . S
C1141 C1144 1.398 . S
C1141 H1156 0.930 . S
C1142 C1140 1.380 . S
C1142 C1143 1.391 . S
C1142 H1157 0.930 . S
C1143 C1142 1.391 . S
C1143 C1145 1.387 . S
C1144 C1141 1.398 . S
C1144 C1145 1.380 . S
C1144 H1158 0.930 . S
C1145 C1143 1.387 . S
C1145 C1144 1.380 . S
C1145 H1159 0.930 . S
C1146 O1126 1.254 . S
C1146 O1127 1.268 . S
C1147 O1131 1.284 . S
C1147 O1134 1.250 . S
C1148 Gd1081 2.828 . S
C1148 O1130 1.258 . S
C1148 O1135 1.252 . S
C1148 C1149 1.497 . S
C1149 C1148 1.497 . S
C1149 C1150 1.395 . S
C1149 C1151 1.380 . S
C1150 C1149 1.395 . S
C1150 C1153 1.398 . S
C1150 H1160 0.930 . S
C1151 C1149 1.380 . S
C1151 C1152 1.391 . S
C1151 H1161 0.930 . S
C1152 C1151 1.391 . S
C1152 C1154 1.387 . S
C1153 C1150 1.398 . S
C1153 C1154 1.380 . S
C1153 H1162 0.930 . S
C1154 C1152 1.387 . S
C1154 C1153 1.380 . S
C1154 H1163 0.930 . S
C1155 O1132 1.254 . S
C1155 O1133 1.268 . S
H1156 C1141 0.930 . S
H1157 C1142 0.930 . S
H1158 C1144 0.930 . S
H1159 C1145 0.930 . S
H1160 C1150 0.930 . S
H1161 C1151 0.930 . S
H1162 C1153 0.930 . S
H1163 C1154 0.930 . S
Gd1164 N1195 2.661 . S
Gd1164 N1201 2.601 . S
Gd1164 O1208 2.545 . S
Gd1164 O1209 2.606 . S
Gd1164 O1211 2.429 . S
Gd1164 O1212 2.545 . S
Gd1164 O1213 2.412 . S
Gd1164 O1215 2.362 . S
Gd1164 O1216 2.324 . S
Gd1164 C1223 2.828 . S
Gd1165 N1174 2.661 . S
Gd1165 N1178 2.601 . S
Gd1165 O1209 2.362 . S
Gd1165 O1210 2.324 . S
Gd1165 O1214 2.545 . S
Gd1165 O1215 2.606 . S
Gd1165 O1217 2.429 . S
Gd1165 O1218 2.545 . S
Gd1165 O1219 2.412 . S
Gd1165 C1232 2.828 . S
C1166 C1169 1.417 . S
C1166 C1171 1.431 . S
C1166 C1172 1.412 . S
C1167 C1170 1.437 . S
C1167 C1171 1.317 . S
C1167 H1186 0.929 . S
C1168 C1169 1.426 . S
C1168 C1170 1.413 . S
C1168 N1178 1.359 . S
C1169 C1166 1.417 . S
C1169 C1168 1.426 . S
C1169 N1174 1.350 . S
C1170 C1167 1.437 . S
C1170 C1168 1.413 . S
C1170 C1180 1.391 . S
C1171 C1166 1.431 . S
C1171 C1167 1.317 . S
C1171 H1182 0.930 . S
C1172 C1166 1.412 . S
C1172 C1173 1.355 . S
C1172 H1184 0.930 . S
C1173 C1172 1.355 . S
C1173 C1175 1.402 . S
C1173 H1185 0.930 . S
N1174 Gd1165 2.661 . S
N1174 C1169 1.350 . S
N1174 C1175 1.307 . S
C1175 C1173 1.402 . S
C1175 N1174 1.307 . S
C1175 H1176 0.930 . S
H1176 C1175 0.930 . S
C1177 N1178 1.334 . S
C1177 C1179 1.394 . S
C1177 H1181 0.930 . S
N1178 Gd1165 2.601 . S
N1178 C1168 1.359 . S
N1178 C1177 1.334 . S
C1179 C1177 1.394 . S
C1179 C1180 1.359 . S
C1179 H1191 0.930 . S
C1180 C1170 1.391 . S
C1180 C1179 1.359 . S
C1180 H1192 0.929 . S
H1181 C1177 0.930 . S
H1182 C1171 0.930 . S
H1183 C1200 0.930 . S
H1184 C1172 0.930 . S
H1185 C1173 0.930 . S
H1186 C1167 0.929 . S
H1187 C1205 0.930 . S
H1188 C1196 0.930 . S
H1189 C1197 0.930 . S
H1190 C1221 0.929 . S
H1191 C1179 0.930 . S
H1192 C1180 0.929 . S
H1193 C1222 0.930 . S
H1194 C1203 0.930 . S
N1195 Gd1164 2.661 . S
N1195 C1199 1.350 . S
N1195 C1200 1.307 . S
C1196 H1188 0.930 . S
C1196 C1197 1.355 . S
C1196 C1198 1.412 . S
C1197 H1189 0.930 . S
C1197 C1196 1.355 . S
C1197 C1200 1.402 . S
C1198 C1196 1.412 . S
C1198 C1199 1.417 . S
C1198 C1222 1.431 . S
C1199 N1195 1.350 . S
C1199 C1198 1.417 . S
C1199 C1202 1.426 . S
C1200 H1183 0.930 . S
C1200 N1195 1.307 . S
C1200 C1197 1.402 . S
N1201 Gd1164 2.601 . S
N1201 C1202 1.359 . S
N1201 C1205 1.334 . S
C1202 C1199 1.426 . S
C1202 N1201 1.359 . S
C1202 C1206 1.413 . S
C1203 H1194 0.930 . S
C1203 C1204 1.359 . S
C1203 C1205 1.394 . S
C1204 C1203 1.359 . S
C1204 C1206 1.391 . S
C1204 H1207 0.929 . S
C1205 H1187 0.930 . S
C1205 N1201 1.334 . S
C1205 C1203 1.394 . S
C1206 C1202 1.413 . S
C1206 C1204 1.391 . S
C1206 C1221 1.437 . S
H1207 C1204 0.929 . S
O1208 Gd1164 2.545 . S
O1208 C1223 1.258 . S
O1209 Gd1164 2.606 . S
O1209 Gd1165 2.362 . S
O1209 C1220 1.284 . S
O1210 Gd1165 2.324 . S
O1210 C1230 1.254 . S
O1211 Gd1164 2.429 . S
O1211 C1230 1.268 . S
O1212 Gd1164 2.545 . S
O1212 C1220 1.250 . S
O1213 Gd1164 2.412 . S
O1213 C1223 1.252 . S
O1214 Gd1165 2.545 . S
O1214 C1232 1.258 . S
O1215 Gd1164 2.362 . S
O1215 Gd1165 2.606 . S
O1215 C1231 1.284 . S
O1216 Gd1164 2.324 . S
O1216 C1239 1.254 . S
O1217 Gd1165 2.429 . S
O1217 C1239 1.268 . S
O1218 Gd1165 2.545 . S
O1218 C1231 1.250 . S
O1219 Gd1165 2.412 . S
O1219 C1232 1.252 . S
C1220 O1209 1.284 . S
C1220 O1212 1.250 . S
C1221 H1190 0.929 . S
C1221 C1206 1.437 . S
C1221 C1222 1.317 . S
C1222 H1193 0.930 . S
C1222 C1198 1.431 . S
C1222 C1221 1.317 . S
C1223 Gd1164 2.828 . S
C1223 O1208 1.258 . S
C1223 O1213 1.252 . S
C1223 C1224 1.497 . S
C1224 C1223 1.497 . S
C1224 C1225 1.395 . S
C1224 C1226 1.380 . S
C1225 C1224 1.395 . S
C1225 C1228 1.398 . S
C1225 H1240 0.930 . S
C1226 C1224 1.380 . S
C1226 C1227 1.391 . S
C1226 H1241 0.930 . S
C1227 C1226 1.391 . S
C1227 C1229 1.387 . S
C1228 C1225 1.398 . S
C1228 C1229 1.380 . S
C1228 H1242 0.930 . S
C1229 C1227 1.387 . S
C1229 C1228 1.380 . S
C1229 H1243 0.930 . S
C1230 O1210 1.254 . S
C1230 O1211 1.268 . S
C1231 O1215 1.284 . S
C1231 O1218 1.250 . S
C1232 Gd1165 2.828 . S
C1232 O1214 1.258 . S
C1232 O1219 1.252 . S
C1232 C1233 1.497 . S
C1233 C1232 1.497 . S
C1233 C1234 1.395 . S
C1233 C1235 1.380 . S
C1234 C1233 1.395 . S
C1234 C1237 1.398 . S
C1234 H1244 0.930 . S
C1235 C1233 1.380 . S
C1235 C1236 1.391 . S
C1235 H1245 0.930 . S
C1236 C1235 1.391 . S
C1236 C1238 1.387 . S
C1237 C1234 1.398 . S
C1237 C1238 1.380 . S
C1237 H1246 0.930 . S
C1238 C1236 1.387 . S
C1238 C1237 1.380 . S
C1238 H1247 0.930 . S
C1239 O1216 1.254 . S
C1239 O1217 1.268 . S
H1240 C1225 0.930 . S
H1241 C1226 0.930 . S
H1242 C1228 0.930 . S
H1243 C1229 0.930 . S
H1244 C1234 0.930 . S
H1245 C1235 0.930 . S
H1246 C1237 0.930 . S
H1247 C1238 0.930 . S
Gd1248 N1279 2.661 . S
Gd1248 N1285 2.601 . S
Gd1248 O1292 2.545 . S
Gd1248 O1293 2.606 . S
Gd1248 O1295 2.429 . S
Gd1248 O1296 2.545 . S
Gd1248 O1297 2.412 . S
Gd1248 O1299 2.362 . S
Gd1248 O1300 2.324 . S
Gd1248 C1307 2.828 . S
Gd1249 N1258 2.661 . S
Gd1249 N1262 2.601 . S
Gd1249 O1293 2.362 . S
Gd1249 O1294 2.324 . S
Gd1249 O1298 2.545 . S
Gd1249 O1299 2.606 . S
Gd1249 O1301 2.429 . S
Gd1249 O1302 2.545 . S
Gd1249 O1303 2.412 . S
Gd1249 C1316 2.828 . S
C1250 C1253 1.417 . S
C1250 C1255 1.431 . S
C1250 C1256 1.412 . S
C1251 C1254 1.437 . S
C1251 C1255 1.317 . S
C1251 H1270 0.929 . S
C1252 C1253 1.426 . S
C1252 C1254 1.413 . S
C1252 N1262 1.359 . S
C1253 C1250 1.417 . S
C1253 C1252 1.426 . S
C1253 N1258 1.350 . S
C1254 C1251 1.437 . S
C1254 C1252 1.413 . S
C1254 C1264 1.391 . S
C1255 C1250 1.431 . S
C1255 C1251 1.317 . S
C1255 H1266 0.930 . S
C1256 C1250 1.412 . S
C1256 C1257 1.355 . S
C1256 H1268 0.930 . S
C1257 C1256 1.355 . S
C1257 C1259 1.402 . S
C1257 H1269 0.930 . S
N1258 Gd1249 2.661 . S
N1258 C1253 1.350 . S
N1258 C1259 1.307 . S
C1259 C1257 1.402 . S
C1259 N1258 1.307 . S
C1259 H1260 0.930 . S
H1260 C1259 0.930 . S
C1261 N1262 1.334 . S
C1261 C1263 1.394 . S
C1261 H1265 0.930 . S
N1262 Gd1249 2.601 . S
N1262 C1252 1.359 . S
N1262 C1261 1.334 . S
C1263 C1261 1.394 . S
C1263 C1264 1.359 . S
C1263 H1275 0.930 . S
C1264 C1254 1.391 . S
C1264 C1263 1.359 . S
C1264 H1276 0.929 . S
H1265 C1261 0.930 . S
H1266 C1255 0.930 . S
H1267 C1284 0.930 . S
H1268 C1256 0.930 . S
H1269 C1257 0.930 . S
H1270 C1251 0.929 . S
H1271 C1289 0.930 . S
H1272 C1280 0.930 . S
H1273 C1281 0.930 . S
H1274 C1305 0.929 . S
H1275 C1263 0.930 . S
H1276 C1264 0.929 . S
H1277 C1306 0.930 . S
H1278 C1287 0.930 . S
N1279 Gd1248 2.661 . S
N1279 C1283 1.350 . S
N1279 C1284 1.307 . S
C1280 H1272 0.930 . S
C1280 C1281 1.355 . S
C1280 C1282 1.412 . S
C1281 H1273 0.930 . S
C1281 C1280 1.355 . S
C1281 C1284 1.402 . S
C1282 C1280 1.412 . S
C1282 C1283 1.417 . S
C1282 C1306 1.431 . S
C1283 N1279 1.350 . S
C1283 C1282 1.417 . S
C1283 C1286 1.426 . S
C1284 H1267 0.930 . S
C1284 N1279 1.307 . S
C1284 C1281 1.402 . S
N1285 Gd1248 2.601 . S
N1285 C1286 1.359 . S
N1285 C1289 1.334 . S
C1286 C1283 1.426 . S
C1286 N1285 1.359 . S
C1286 C1290 1.413 . S
C1287 H1278 0.930 . S
C1287 C1288 1.359 . S
C1287 C1289 1.394 . S
C1288 C1287 1.359 . S
C1288 C1290 1.391 . S
C1288 H1291 0.929 . S
C1289 H1271 0.930 . S
C1289 N1285 1.334 . S
C1289 C1287 1.394 . S
C1290 C1286 1.413 . S
C1290 C1288 1.391 . S
C1290 C1305 1.437 . S
H1291 C1288 0.929 . S
O1292 Gd1248 2.545 . S
O1292 C1307 1.258 . S
O1293 Gd1248 2.606 . S
O1293 Gd1249 2.362 . S
O1293 C1304 1.284 . S
O1294 Gd1249 2.324 . S
O1294 C1314 1.254 . S
O1295 Gd1248 2.429 . S
O1295 C1314 1.268 . S
O1296 Gd1248 2.545 . S
O1296 C1304 1.250 . S
O1297 Gd1248 2.412 . S
O1297 C1307 1.252 . S
O1298 Gd1249 2.545 . S
O1298 C1316 1.258 . S
O1299 Gd1248 2.362 . S
O1299 Gd1249 2.606 . S
O1299 C1315 1.284 . S
O1300 Gd1248 2.324 . S
O1300 C1323 1.254 . S
O1301 Gd1249 2.429 . S
O1301 C1323 1.268 . S
O1302 Gd1249 2.545 . S
O1302 C1315 1.250 . S
O1303 Gd1249 2.412 . S
O1303 C1316 1.252 . S
C1304 O1293 1.284 . S
C1304 O1296 1.250 . S
C1305 H1274 0.929 . S
C1305 C1290 1.437 . S
C1305 C1306 1.317 . S
C1306 H1277 0.930 . S
C1306 C1282 1.431 . S
C1306 C1305 1.317 . S
C1307 Gd1248 2.828 . S
C1307 O1292 1.258 . S
C1307 O1297 1.252 . S
C1307 C1308 1.497 . S
C1308 C1307 1.497 . S
C1308 C1309 1.395 . S
C1308 C1310 1.380 . S
C1309 C1308 1.395 . S
C1309 C1312 1.398 . S
C1309 H1324 0.930 . S
C1310 C1308 1.380 . S
C1310 C1311 1.391 . S
C1310 H1325 0.930 . S
C1311 C1310 1.391 . S
C1311 C1313 1.387 . S
C1312 C1309 1.398 . S
C1312 C1313 1.380 . S
C1312 H1326 0.930 . S
C1313 C1311 1.387 . S
C1313 C1312 1.380 . S
C1313 H1327 0.930 . S
C1314 O1294 1.254 . S
C1314 O1295 1.268 . S
C1315 O1299 1.284 . S
C1315 O1302 1.250 . S
C1316 Gd1249 2.828 . S
C1316 O1298 1.258 . S
C1316 O1303 1.252 . S
C1316 C1317 1.497 . S
C1317 C1316 1.497 . S
C1317 C1318 1.395 . S
C1317 C1319 1.380 . S
C1318 C1317 1.395 . S
C1318 C1321 1.398 . S
C1318 H1328 0.930 . S
C1319 C1317 1.380 . S
C1319 C1320 1.391 . S
C1319 H1329 0.930 . S
C1320 C1319 1.391 . S
C1320 C1322 1.387 . S
C1321 C1318 1.398 . S
C1321 C1322 1.380 . S
C1321 H1330 0.930 . S
C1322 C1320 1.387 . S
C1322 C1321 1.380 . S
C1322 H1331 0.930 . S
C1323 O1300 1.254 . S
C1323 O1301 1.268 . S
H1324 C1309 0.930 . S
H1325 C1310 0.930 . S
H1326 C1312 0.930 . S
H1327 C1313 0.930 . S
H1328 C1318 0.930 . S
H1329 C1319 0.930 . S
H1330 C1321 0.930 . S
H1331 C1322 0.930 . S
H1332 C1344 0.930 . S
H1333 C1346 0.930 . S
H1334 C1347 0.930 . S
H1335 C1351 0.959 . S
H1336 C1351 0.959 . S
H1337 C1351 0.961 . S
H1338 C1352 0.960 . S
H1339 C1352 0.961 . S
H1340 C1352 0.959 . S
H1341 C1355 0.929 . S
H1342 C1356 0.931 1_556 S
H1343 C1358 0.930 . S
C1344 H1332 0.930 . S
C1344 C1345 1.399 . S
C1344 C1349 1.399 . S
C1345 C1344 1.399 . S
C1345 C1346 1.376 . S
C1346 H1333 0.930 . S
C1346 C1345 1.376 . S
C1346 C1347 1.388 . S
C1347 H1334 0.930 . S
C1347 C1346 1.388 . S
C1347 C1348 1.390 . S
C1348 C1347 1.390 . S
C1348 C1349 1.394 . S
C1348 C1354 1.465 . S
C1349 C1344 1.399 . S
C1349 C1348 1.394 . S
C1349 C1350 1.516 . S
C1350 C1349 1.516 . S
C1350 C1351 1.502 . S
C1350 C1352 1.561 . S
C1350 C1353 1.526 . S
C1351 H1335 0.959 . S
C1351 H1336 0.959 . S
C1351 H1337 0.961 . S
C1351 C1350 1.502 . S
C1352 H1338 0.960 . S
C1352 H1339 0.961 . S
C1352 H1340 0.959 . S
C1352 C1350 1.561 . S
C1353 C1350 1.526 . S
C1353 C1354 1.396 . S
C1353 C1358 1.390 . S
C1354 C1348 1.465 . S
C1354 C1353 1.396 . S
C1354 C1355 1.399 . S
C1355 H1341 0.929 . S
C1355 C1354 1.399 . S
C1355 C1356 1.385 . S
C1356 H1342 0.931 1_554 S
C1356 C1355 1.385 . S
C1356 C1357 1.389 . S
C1357 C1356 1.389 . S
C1357 C1358 1.387 . S
C1358 H1343 0.930 . S
C1358 C1353 1.390 . S
C1358 C1357 1.387 . S
H1359 C1371 0.930 . S
H1360 C1373 0.930 . S
H1361 C1374 0.930 . S
H1362 C1378 0.959 . S
H1363 C1378 0.959 . S
H1364 C1378 0.961 . S
H1365 C1379 0.960 . S
H1366 C1379 0.961 . S
H1367 C1379 0.959 . S
H1368 C1382 0.929 . S
H1369 C1383 0.931 . S
H1370 C1385 0.930 . S
C1371 H1359 0.930 . S
C1371 C1372 1.399 . S
C1371 C1376 1.399 . S
C1372 C1371 1.399 . S
C1372 C1373 1.376 . S
C1373 H1360 0.930 . S
C1373 C1372 1.376 . S
C1373 C1374 1.388 . S
C1374 H1361 0.930 . S
C1374 C1373 1.388 . S
C1374 C1375 1.390 . S
C1375 C1374 1.390 . S
C1375 C1376 1.394 . S
C1375 C1381 1.465 . S
C1376 C1371 1.399 . S
C1376 C1375 1.394 . S
C1376 C1377 1.516 . S
C1377 C1376 1.516 . S
C1377 C1378 1.502 . S
C1377 C1379 1.561 . S
C1377 C1380 1.526 . S
C1378 H1362 0.959 . S
C1378 H1363 0.959 . S
C1378 H1364 0.961 . S
C1378 C1377 1.502 . S
C1379 H1365 0.960 . S
C1379 H1366 0.961 . S
C1379 H1367 0.959 . S
C1379 C1377 1.561 . S
C1380 C1377 1.526 . S
C1380 C1381 1.396 . S
C1380 C1385 1.390 . S
C1381 C1375 1.465 . S
C1381 C1380 1.396 . S
C1381 C1382 1.399 . S
C1382 H1368 0.929 . S
C1382 C1381 1.399 . S
C1382 C1383 1.385 . S
C1383 H1369 0.931 . S
C1383 C1382 1.385 . S
C1383 C1384 1.389 . S
C1384 C1383 1.389 . S
C1384 C1385 1.387 . S
C1385 H1370 0.930 . S
C1385 C1380 1.390 . S
C1385 C1384 1.387 . S
H1386 C1398 0.930 . S
H1387 C1400 0.930 . S
H1388 C1401 0.930 . S
H1389 C1405 0.959 . S
H1390 C1405 0.959 1_556 S
H1391 C1405 0.961 . S
H1392 C1406 0.960 . S
H1393 C1406 0.961 1_556 S
H1394 C1406 0.959 . S
H1395 C1409 0.929 . S
H1396 C1410 0.931 . S
H1397 C1412 0.930 . S
C1398 H1386 0.930 . S
C1398 C1399 1.399 . S
C1398 C1403 1.399 . S
C1399 C1398 1.399 . S
C1399 C1400 1.376 . S
C1400 H1387 0.930 . S
C1400 C1399 1.376 . S
C1400 C1401 1.388 . S
C1401 H1388 0.930 . S
C1401 C1400 1.388 . S
C1401 C1402 1.390 . S
C1402 C1401 1.390 . S
C1402 C1403 1.394 . S
C1402 C1408 1.465 . S
C1403 C1398 1.399 . S
C1403 C1402 1.394 . S
C1403 C1404 1.516 . S
C1404 C1403 1.516 . S
C1404 C1405 1.502 . S
C1404 C1406 1.561 . S
C1404 C1407 1.526 . S
C1405 H1389 0.959 . S
C1405 H1390 0.959 1_554 S
C1405 H1391 0.961 . S
C1405 C1404 1.502 . S
C1406 H1392 0.960 . S
C1406 H1393 0.961 1_554 S
C1406 H1394 0.959 . S
C1406 C1404 1.561 . S
C1407 C1404 1.526 . S
C1407 C1408 1.396 . S
C1407 C1412 1.390 . S
C1408 C1402 1.465 . S
C1408 C1407 1.396 . S
C1408 C1409 1.399 . S
C1409 H1395 0.929 . S
C1409 C1408 1.399 . S
C1409 C1410 1.385 . S
C1410 H1396 0.931 . S
C1410 C1409 1.385 . S
C1410 C1411 1.389 . S
C1411 C1410 1.389 . S
C1411 C1412 1.387 . S
C1412 H1397 0.930 . S
C1412 C1407 1.390 . S
C1412 C1411 1.387 . S
H1413 C1425 0.930 . S
H1414 C1427 0.930 . S
H1415 C1428 0.930 . S
H1416 C1432 0.959 . S
H1417 C1432 0.959 . S
H1418 C1432 0.961 . S
H1419 C1433 0.960 . S
H1420 C1433 0.961 . S
H1421 C1433 0.959 . S
H1422 C1436 0.929 . S
H1423 C1437 0.931 1_554 S
H1424 C1439 0.930 . S
C1425 H1413 0.930 . S
C1425 C1426 1.399 . S
C1425 C1430 1.399 . S
C1426 C1425 1.399 . S
C1426 C1427 1.376 . S
C1427 H1414 0.930 . S
C1427 C1426 1.376 . S
C1427 C1428 1.388 . S
C1428 H1415 0.930 . S
C1428 C1427 1.388 . S
C1428 C1429 1.390 . S
C1429 C1428 1.390 . S
C1429 C1430 1.394 . S
C1429 C1435 1.465 . S
C1430 C1425 1.399 . S
C1430 C1429 1.394 . S
C1430 C1431 1.516 . S
C1431 C1430 1.516 . S
C1431 C1432 1.502 . S
C1431 C1433 1.561 . S
C1431 C1434 1.526 . S
C1432 H1416 0.959 . S
C1432 H1417 0.959 . S
C1432 H1418 0.961 . S
C1432 C1431 1.502 . S
C1433 H1419 0.960 . S
C1433 H1420 0.961 . S
C1433 H1421 0.959 . S
C1433 C1431 1.561 . S
C1434 C1431 1.526 . S
C1434 C1435 1.396 . S
C1434 C1439 1.390 . S
C1435 C1429 1.465 . S
C1435 C1434 1.396 . S
C1435 C1436 1.399 . S
C1436 H1422 0.929 . S
C1436 C1435 1.399 . S
C1436 C1437 1.385 . S
C1437 H1423 0.931 1_556 S
C1437 C1436 1.385 . S
C1437 C1438 1.389 . S
C1438 C1437 1.389 . S
C1438 C1439 1.387 . S
C1439 H1424 0.930 . S
C1439 C1434 1.390 . S
C1439 C1438 1.387 . S
H1440 C1452 0.930 . S
H1441 C1454 0.930 . S
H1442 C1455 0.930 . S
H1443 C1459 0.989 . S
H1444 C1459 0.959 1_554 S
H1445 C1459 0.961 . S
H1446 C1460 0.960 . S
H1447 C1460 0.961 . S
H1448 C1460 0.959 . S
H1449 C1463 0.929 . S
H1450 C1464 0.931 . S
H1451 C1466 0.930 . S
C1452 H1440 0.930 . S
C1452 C1453 1.399 . S
C1452 C1457 1.399 . S
C1453 C1452 1.399 . S
C1453 C1454 1.376 . S
C1454 H1441 0.930 . S
C1454 C1453 1.376 . S
C1454 C1455 1.388 . S
C1455 H1442 0.930 . S
C1455 C1454 1.388 . S
C1455 C1456 1.390 . S
C1456 C1455 1.390 . S
C1456 C1457 1.394 . S
C1456 C1462 1.465 . S
C1457 C1452 1.399 . S
C1457 C1456 1.394 . S
C1457 C1458 1.516 . S
C1458 C1457 1.516 . S
C1458 C1459 1.502 . S
C1458 C1460 1.561 . S
C1458 C1461 1.526 . S
C1459 H1443 0.989 . S
C1459 H1444 0.959 1_556 S
C1459 H1445 0.961 . S
C1459 C1458 1.502 . S
C1460 H1446 0.960 . S
C1460 H1447 0.961 . S
C1460 H1448 0.959 . S
C1460 C1458 1.561 . S
C1461 C1458 1.526 . S
C1461 C1462 1.396 . S
C1461 C1466 1.390 . S
C1462 C1456 1.465 . S
C1462 C1461 1.396 . S
C1462 C1463 1.399 . S
C1463 H1449 0.929 . S
C1463 C1462 1.399 . S
C1463 C1464 1.385 . S
C1464 H1450 0.931 . S
C1464 C1463 1.385 . S
C1464 C1465 1.389 . S
C1465 C1464 1.389 . S
C1465 C1466 1.387 . S
C1466 H1451 0.930 . S
C1466 C1461 1.390 . S
C1466 C1465 1.387 . S
H1467 C1479 0.930 . S
H1468 C1481 0.930 . S
H1469 C1482 0.930 . S
H1470 C1486 0.959 . S
H1471 C1486 0.959 . S
H1472 C1486 0.961 . S
H1473 C1487 0.960 . S
H1474 C1487 0.961 . S
H1475 C1487 0.959 . S
H1476 C1490 0.929 1_554 S
H1477 C1491 0.901 1_554 S
H1478 C1493 0.930 . S
C1479 H1467 0.930 . S
C1479 C1480 1.399 . S
C1479 C1484 1.399 . S
C1480 C1479 1.399 . S
C1480 C1481 1.376 . S
C1481 H1468 0.930 . S
C1481 C1480 1.376 . S
C1481 C1482 1.388 . S
C1482 H1469 0.930 . S
C1482 C1481 1.388 . S
C1482 C1483 1.390 . S
C1483 C1482 1.390 . S
C1483 C1484 1.394 . S
C1483 C1489 1.465 . S
C1484 C1479 1.399 . S
C1484 C1483 1.394 . S
C1484 C1485 1.516 . S
C1485 C1484 1.516 . S
C1485 C1486 1.502 . S
C1485 C1487 1.561 . S
C1485 C1488 1.526 . S
C1486 H1470 0.959 . S
C1486 H1471 0.959 . S
C1486 H1472 0.961 . S
C1486 C1485 1.502 . S
C1487 H1473 0.960 . S
C1487 H1474 0.961 . S
C1487 H1475 0.959 . S
C1487 C1485 1.561 . S
C1488 C1485 1.526 . S
C1488 C1489 1.396 . S
C1488 C1493 1.390 . S
C1489 C1483 1.465 . S
C1489 C1488 1.396 . S
C1489 C1490 1.399 . S
C1490 H1476 0.929 1_556 S
C1490 C1489 1.399 . S
C1490 C1491 1.391 . S
C1491 H1477 0.901 1_556 S
C1491 C1490 1.391 . S
C1491 C1492 1.413 . S
C1492 C1491 1.413 . S
C1492 C1493 1.387 . S
C1493 H1478 0.930 . S
C1493 C1488 1.390 . S
C1493 C1492 1.387 . S
H1494 C1506 0.930 . S
H1495 C1508 0.930 . S
H1496 C1509 0.930 . S
H1497 C1513 0.969 . S
H1498 C1513 1.001 . S
H1499 C1513 0.966 . S
H1500 C1514 0.960 . S
H1501 C1514 0.961 . S
H1502 C1514 0.959 . S
H1503 C1517 0.929 . S
H1504 C1518 0.931 . S
H1505 C1520 0.974 . S
C1506 H1494 0.930 . S
C1506 C1507 1.399 . S
C1506 C1511 1.399 . S
C1507 C1506 1.399 . S
C1507 C1508 1.376 . S
C1508 H1495 0.930 . S
C1508 C1507 1.376 . S
C1508 C1509 1.388 . S
C1509 H1496 0.930 . S
C1509 C1508 1.388 . S
C1509 C1510 1.390 . S
C1510 C1509 1.390 . S
C1510 C1511 1.394 . S
C1510 C1516 1.465 . S
C1511 C1506 1.399 . S
C1511 C1510 1.394 . S
C1511 C1512 1.516 . S
C1512 C1511 1.516 . S
C1512 C1513 1.449 1_556 S
C1512 C1514 1.561 . S
C1512 C1515 1.526 . S
C1513 H1497 0.969 . S
C1513 H1498 1.001 . S
C1513 H1499 0.966 . S
C1513 C1512 1.449 1_554 S
C1514 H1500 0.960 . S
C1514 H1501 0.961 . S
C1514 H1502 0.959 . S
C1514 C1512 1.561 . S
C1515 C1512 1.526 . S
C1515 C1516 1.396 . S
C1515 C1520 1.390 . S
C1516 C1510 1.465 . S
C1516 C1515 1.396 . S
C1516 C1517 1.399 . S
C1517 H1503 0.929 . S
C1517 C1516 1.399 . S
C1517 C1518 1.385 . S
C1518 H1504 0.931 . S
C1518 C1517 1.385 . S
C1518 C1519 1.389 . S
C1519 C1518 1.389 . S
C1519 C1520 1.387 . S
C1520 H1505 0.974 . S
C1520 C1515 1.390 . S
C1520 C1519 1.387 . S
H1521 C1533 0.930 . S
H1522 C1535 0.930 . S
H1523 C1536 0.930 . S
H1524 C1540 0.959 . S
H1525 C1540 0.959 . S
H1526 C1540 0.961 . S
H1527 C1541 0.960 . S
H1528 C1541 0.961 . S
H1529 C1541 0.959 . S
H1530 C1544 0.929 . S
H1531 C1545 0.914 1_554 S
H1532 C1547 0.930 . S
C1533 H1521 0.930 . S
C1533 C1534 1.399 . S
C1533 C1538 1.399 . S
C1534 C1533 1.399 . S
C1534 C1535 1.376 . S
C1535 H1522 0.930 . S
C1535 C1534 1.376 . S
C1535 C1536 1.388 . S
C1536 H1523 0.930 . S
C1536 C1535 1.388 . S
C1536 C1537 1.390 . S
C1537 C1536 1.390 . S
C1537 C1538 1.394 . S
C1537 C1543 1.465 . S
C1538 C1533 1.399 . S
C1538 C1537 1.394 . S
C1538 C1539 1.516 . S
C1539 C1538 1.516 . S
C1539 C1540 1.502 . S
C1539 C1541 1.561 . S
C1539 C1542 1.526 . S
C1540 H1524 0.959 . S
C1540 H1525 0.959 . S
C1540 H1526 0.961 . S
C1540 C1539 1.502 . S
C1541 H1527 0.960 . S
C1541 H1528 0.961 . S
C1541 H1529 0.959 . S
C1541 C1539 1.561 . S
C1542 C1539 1.526 . S
C1542 C1543 1.396 . S
C1542 C1547 1.390 . S
C1543 C1537 1.465 . S
C1543 C1542 1.396 . S
C1543 C1544 1.399 . S
C1544 H1530 0.929 . S
C1544 C1543 1.399 . S
C1544 C1545 1.385 . S
C1545 H1531 0.914 1_556 S
C1545 C1544 1.385 . S
C1545 C1546 1.389 . S
C1546 C1545 1.389 . S
C1546 C1547 1.387 . S
C1547 H1532 0.930 . S
C1547 C1542 1.390 . S
C1547 C1546 1.387 . S
H1548 C1560 0.930 . S
H1549 C1562 0.930 . S
H1550 C1563 0.930 . S
H1551 C1567 0.959 . S
H1552 C1567 0.959 . S
H1553 C1567 0.961 . S
H1554 C1568 0.960 . S
H1555 C1568 0.961 . S
H1556 C1568 0.959 . S
H1557 C1571 0.929 . S
H1558 C1572 0.931 . S
H1559 C1574 0.930 . S
C1560 H1548 0.930 . S
C1560 C1561 1.399 . S
C1560 C1565 1.399 . S
C1561 C1560 1.399 . S
C1561 C1562 1.376 . S
C1562 H1549 0.930 . S
C1562 C1561 1.376 . S
C1562 C1563 1.388 . S
C1563 H1550 0.930 . S
C1563 C1562 1.388 . S
C1563 C1564 1.390 . S
C1564 C1563 1.390 . S
C1564 C1565 1.394 . S
C1564 C1570 1.465 . S
C1565 C1560 1.399 . S
C1565 C1564 1.394 . S
C1565 C1566 1.516 . S
C1566 C1565 1.516 . S
C1566 C1567 1.502 . S
C1566 C1568 1.561 . S
C1566 C1569 1.526 . S
C1567 H1551 0.959 . S
C1567 H1552 0.959 . S
C1567 H1553 0.961 . S
C1567 C1566 1.502 . S
C1568 H1554 0.960 . S
C1568 H1555 0.961 . S
C1568 H1556 0.959 . S
C1568 C1566 1.561 . S
C1569 C1566 1.526 . S
C1569 C1570 1.396 . S
C1569 C1574 1.390 . S
C1570 C1564 1.465 . S
C1570 C1569 1.396 . S
C1570 C1571 1.399 . S
C1571 H1557 0.929 . S
C1571 C1570 1.399 . S
C1571 C1572 1.385 . S
C1572 H1558 0.931 . S
C1572 C1571 1.385 . S
C1572 C1573 1.389 . S
C1573 C1572 1.389 . S
C1573 C1574 1.387 . S
C1574 H1559 0.930 . S
C1574 C1569 1.390 . S
C1574 C1573 1.387 . S
H1575 C1587 0.930 . S
H1576 C1589 0.930 . S
H1577 C1590 0.930 . S
H1578 C1594 0.959 . S
H1579 C1594 0.959 . S
H1580 C1594 0.961 . S
H1581 C1595 0.960 . S
H1582 C1595 0.961 . S
H1583 C1595 0.959 . S
H1584 C1598 0.929 . S
H1585 C1599 0.931 1_556 S
H1586 C1601 0.930 . S
C1587 H1575 0.930 . S
C1587 C1588 1.399 . S
C1587 C1592 1.399 . S
C1588 C1587 1.399 . S
C1588 C1589 1.376 . S
C1589 H1576 0.930 . S
C1589 C1588 1.376 . S
C1589 C1590 1.388 . S
C1590 H1577 0.930 . S
C1590 C1589 1.388 . S
C1590 C1591 1.390 . S
C1591 C1590 1.390 . S
C1591 C1592 1.394 . S
C1591 C1597 1.465 . S
C1592 C1587 1.399 . S
C1592 C1591 1.394 . S
C1592 C1593 1.516 . S
C1593 C1592 1.516 . S
C1593 C1594 1.502 . S
C1593 C1595 1.561 . S
C1593 C1596 1.526 . S
C1594 H1578 0.959 . S
C1594 H1579 0.959 . S
C1594 H1580 0.961 . S
C1594 C1593 1.502 . S
C1595 H1581 0.960 . S
C1595 H1582 0.961 . S
C1595 H1583 0.959 . S
C1595 C1593 1.561 . S
C1596 C1593 1.526 . S
C1596 C1597 1.396 . S
C1596 C1601 1.390 . S
C1597 C1591 1.465 . S
C1597 C1596 1.396 . S
C1597 C1598 1.399 . S
C1598 H1584 0.929 . S
C1598 C1597 1.399 . S
C1598 C1599 1.385 . S
C1599 H1585 0.931 1_554 S
C1599 C1598 1.385 . S
C1599 C1600 1.389 . S
C1600 C1599 1.389 . S
C1600 C1601 1.387 . S
C1601 H1586 0.930 . S
C1601 C1596 1.390 . S
C1601 C1600 1.387 . S
H1602 C1614 0.930 . S
H1603 C1616 0.930 . S
H1604 C1617 0.930 . S
H1605 C1621 0.959 . S
H1606 C1621 0.959 . S
H1607 C1621 0.961 . S
H1608 C1622 0.960 . S
H1609 C1622 0.961 . S
H1610 C1622 0.959 . S
H1611 C1625 0.929 . S
H1612 C1626 0.931 1_556 S
H1613 C1628 0.930 . S
C1614 H1602 0.930 . S
C1614 C1615 1.399 . S
C1614 C1619 1.399 . S
C1615 C1614 1.399 . S
C1615 C1616 1.376 . S
C1616 H1603 0.930 . S
C1616 C1615 1.376 . S
C1616 C1617 1.388 . S
C1617 H1604 0.930 . S
C1617 C1616 1.388 . S
C1617 C1618 1.390 . S
C1618 C1617 1.390 . S
C1618 C1619 1.394 . S
C1618 C1624 1.465 . S
C1619 C1614 1.399 . S
C1619 C1618 1.394 . S
C1619 C1620 1.516 . S
C1620 C1619 1.516 . S
C1620 C1621 1.502 . S
C1620 C1622 1.561 . S
C1620 C1623 1.526 . S
C1621 H1605 0.959 . S
C1621 H1606 0.959 . S
C1621 H1607 0.961 . S
C1621 C1620 1.502 . S
C1622 H1608 0.960 . S
C1622 H1609 0.961 . S
C1622 H1610 0.959 . S
C1622 C1620 1.561 . S
C1623 C1620 1.526 . S
C1623 C1624 1.396 . S
C1623 C1628 1.390 . S
C1624 C1618 1.465 . S
C1624 C1623 1.396 . S
C1624 C1625 1.399 . S
C1625 H1611 0.929 . S
C1625 C1624 1.399 . S
C1625 C1626 1.385 . S
C1626 H1612 0.931 1_554 S
C1626 C1625 1.385 . S
C1626 C1627 1.389 . S
C1627 C1626 1.389 . S
C1627 C1628 1.387 . S
C1628 H1613 0.930 . S
C1628 C1623 1.390 . S
C1628 C1627 1.387 . S
H1629 C1641 0.930 . S
H1630 C1643 0.930 . S
H1631 C1644 0.930 . S
H1632 C1648 0.959 . S
H1633 C1648 0.959 . S
H1634 C1648 0.961 . S
H1635 C1649 0.960 . S
H1636 C1649 0.961 . S
H1637 C1649 0.959 . S
H1638 C1652 0.929 . S
H1639 C1653 0.931 . S
H1640 C1655 0.930 . S
C1641 H1629 0.930 . S
C1641 C1642 1.399 . S
C1641 C1646 1.399 . S
C1642 C1641 1.399 . S
C1642 C1643 1.376 . S
C1643 H1630 0.930 . S
C1643 C1642 1.376 . S
C1643 C1644 1.388 . S
C1644 H1631 0.930 . S
C1644 C1643 1.388 . S
C1644 C1645 1.390 . S
C1645 C1644 1.390 . S
C1645 C1646 1.394 . S
C1645 C1651 1.465 . S
C1646 C1641 1.399 . S
C1646 C1645 1.394 . S
C1646 C1647 1.516 . S
C1647 C1646 1.516 . S
C1647 C1648 1.502 . S
C1647 C1649 1.561 . S
C1647 C1650 1.526 . S
C1648 H1632 0.959 . S
C1648 H1633 0.959 . S
C1648 H1634 0.961 . S
C1648 C1647 1.502 . S
C1649 H1635 0.960 . S
C1649 H1636 0.961 . S
C1649 H1637 0.959 . S
C1649 C1647 1.561 . S
C1650 C1647 1.526 . S
C1650 C1651 1.396 . S
C1650 C1655 1.390 . S
C1651 C1645 1.465 . S
C1651 C1650 1.396 . S
C1651 C1652 1.399 . S
C1652 H1638 0.929 . S
C1652 C1651 1.399 . S
C1652 C1653 1.385 . S
C1653 H1639 0.931 . S
C1653 C1652 1.385 . S
C1653 C1654 1.389 . S
C1654 C1653 1.389 . S
C1654 C1655 1.387 . S
C1655 H1640 0.930 . S
C1655 C1650 1.390 . S
C1655 C1654 1.387 . S
H1656 C1668 0.930 . S
H1657 C1670 0.930 . S
H1658 C1671 0.930 . S
H1659 C1675 0.959 . S
H1660 C1675 0.959 . S
H1661 C1675 0.961 . S
H1662 C1676 0.960 . S
H1663 C1676 0.961 . S
H1664 C1676 0.959 . S
H1665 C1679 0.929 . S
H1666 C1680 0.931 . S
H1667 C1682 0.930 . S
C1668 H1656 0.930 . S
C1668 C1669 1.399 . S
C1668 C1673 1.399 1_655 S
C1669 C1668 1.399 . S
C1669 C1670 1.376 . S
C1670 H1657 0.930 . S
C1670 C1669 1.376 . S
C1670 C1671 1.388 1_655 S
C1671 H1658 0.930 . S
C1671 C1670 1.388 1_455 S
C1671 C1672 1.390 . S
C1672 C1671 1.390 . S
C1672 C1673 1.394 . S
C1672 C1678 1.465 . S
C1673 C1668 1.399 1_455 S
C1673 C1672 1.394 . S
C1673 C1674 1.516 . S
C1674 C1673 1.516 . S
C1674 C1675 1.502 . S
C1674 C1676 1.561 . S
C1674 C1677 1.526 . S
C1675 H1659 0.959 . S
C1675 H1660 0.959 . S
C1675 H1661 0.961 . S
C1675 C1674 1.502 . S
C1676 H1662 0.960 . S
C1676 H1663 0.961 . S
C1676 H1664 0.959 . S
C1676 C1674 1.561 . S
C1677 C1674 1.526 . S
C1677 C1678 1.396 . S
C1677 C1682 1.390 . S
C1678 C1672 1.465 . S
C1678 C1677 1.396 . S
C1678 C1679 1.399 . S
C1679 H1665 0.929 . S
C1679 C1678 1.399 . S
C1679 C1680 1.385 . S
C1680 H1666 0.931 . S
C1680 C1679 1.385 . S
C1680 C1681 1.389 . S
C1681 C1680 1.389 . S
C1681 C1682 1.387 . S
C1682 H1667 0.930 . S
C1682 C1677 1.390 . S
C1682 C1681 1.387 . S
H1683 C1695 0.930 . S
H1684 C1697 0.930 . S
H1685 C1698 0.930 . S
H1686 C1702 0.959 . S
H1687 C1702 0.959 . S
H1688 C1702 0.961 . S
H1689 C1703 0.960 . S
H1690 C1703 0.961 . S
H1691 C1703 0.959 . S
H1692 C1706 0.929 . S
H1693 C1707 0.931 . S
H1694 C1709 0.930 . S
C1695 H1683 0.930 . S
C1695 C1696 1.399 . S
C1695 C1700 1.399 . S
C1696 C1695 1.399 . S
C1696 C1697 1.376 . S
C1697 H1684 0.930 . S
C1697 C1696 1.376 . S
C1697 C1698 1.388 . S
C1698 H1685 0.930 . S
C1698 C1697 1.388 . S
C1698 C1699 1.390 . S
C1699 C1698 1.390 . S
C1699 C1700 1.394 . S
C1699 C1705 1.465 . S
C1700 C1695 1.399 . S
C1700 C1699 1.394 . S
C1700 C1701 1.516 . S
C1701 C1700 1.516 . S
C1701 C1702 1.502 . S
C1701 C1703 1.561 . S
C1701 C1704 1.526 . S
C1702 H1686 0.959 . S
C1702 H1687 0.959 . S
C1702 H1688 0.961 . S
C1702 C1701 1.502 . S
C1703 H1689 0.960 . S
C1703 H1690 0.961 . S
C1703 H1691 0.959 . S
C1703 C1701 1.561 . S
C1704 C1701 1.526 . S
C1704 C1705 1.396 . S
C1704 C1709 1.390 . S
C1705 C1699 1.465 . S
C1705 C1704 1.396 . S
C1705 C1706 1.399 . S
C1706 H1692 0.929 . S
C1706 C1705 1.399 . S
C1706 C1707 1.385 . S
C1707 H1693 0.931 . S
C1707 C1706 1.385 . S
C1707 C1708 1.389 . S
C1708 C1707 1.389 . S
C1708 C1709 1.387 . S
C1709 H1694 0.930 . S
C1709 C1704 1.390 . S
C1709 C1708 1.387 . S
H1710 C1722 0.930 . S
H1711 C1724 0.930 . S
H1712 C1725 0.930 . S
H1713 C1729 0.959 . S
H1714 C1729 0.959 . S
H1715 C1729 0.961 . S
H1716 C1730 0.960 . S
H1717 C1730 0.961 . S
H1718 C1730 0.959 . S
H1719 C1733 0.929 . S
H1720 C1734 0.931 . S
H1721 C1736 0.930 . S
C1722 H1710 0.930 . S
C1722 C1723 1.399 . S
C1722 C1727 1.399 1_545 S
C1723 C1722 1.399 . S
C1723 C1724 1.376 . S
C1724 H1711 0.930 . S
C1724 C1723 1.376 . S
C1724 C1725 1.388 . S
C1725 H1712 0.930 . S
C1725 C1724 1.388 . S
C1725 C1726 1.390 1_545 S
C1726 C1725 1.390 1_565 S
C1726 C1727 1.394 . S
C1726 C1732 1.465 . S
C1727 C1722 1.399 1_565 S
C1727 C1726 1.394 . S
C1727 C1728 1.516 . S
C1728 C1727 1.516 . S
C1728 C1729 1.502 . S
C1728 C1730 1.561 . S
C1728 C1731 1.526 . S
C1729 H1713 0.959 . S
C1729 H1714 0.959 . S
C1729 H1715 0.961 . S
C1729 C1728 1.502 . S
C1730 H1716 0.960 . S
C1730 H1717 0.961 . S
C1730 H1718 0.959 . S
C1730 C1728 1.561 . S
C1731 C1728 1.526 . S
C1731 C1732 1.396 . S
C1731 C1736 1.390 . S
C1732 C1726 1.465 . S
C1732 C1731 1.396 . S
C1732 C1733 1.399 . S
C1733 H1719 0.929 . S
C1733 C1732 1.399 . S
C1733 C1734 1.385 . S
C1734 H1720 0.931 . S
C1734 C1733 1.385 . S
C1734 C1735 1.389 . S
C1735 C1734 1.389 . S
C1735 C1736 1.387 . S
C1736 H1721 0.930 . S
C1736 C1731 1.390 . S
C1736 C1735 1.387 . S
H1737 C1749 0.930 . S
H1738 C1751 0.930 . S
H1739 C1752 0.930 . S
H1740 C1756 0.959 . S
H1741 C1756 0.959 . S
H1742 C1756 0.961 . S
H1743 C1757 0.960 . S
H1744 C1757 0.961 . S
H1745 C1757 0.959 . S
H1746 C1760 0.929 . S
H1747 C1761 0.931 . S
H1748 C1763 0.930 . S
C1749 H1737 0.930 . S
C1749 C1750 1.399 . S
C1749 C1754 1.399 . S
C1750 C1749 1.399 . S
C1750 C1751 1.376 . S
C1751 H1738 0.930 . S
C1751 C1750 1.376 . S
C1751 C1752 1.388 . S
C1752 H1739 0.930 . S
C1752 C1751 1.388 . S
C1752 C1753 1.390 . S
C1753 C1752 1.390 . S
C1753 C1754 1.394 . S
C1753 C1759 1.465 . S
C1754 C1749 1.399 . S
C1754 C1753 1.394 . S
C1754 C1755 1.516 . S
C1755 C1754 1.516 . S
C1755 C1756 1.502 . S
C1755 C1757 1.561 . S
C1755 C1758 1.526 . S
C1756 H1740 0.959 . S
C1756 H1741 0.959 . S
C1756 H1742 0.961 . S
C1756 C1755 1.502 . S
C1757 H1743 0.960 . S
C1757 H1744 0.961 . S
C1757 H1745 0.959 . S
C1757 C1755 1.561 . S
C1758 C1755 1.526 . S
C1758 C1759 1.396 . S
C1758 C1763 1.390 . S
C1759 C1753 1.465 . S
C1759 C1758 1.396 . S
C1759 C1760 1.399 . S
C1760 H1746 0.929 . S
C1760 C1759 1.399 . S
C1760 C1761 1.385 . S
C1761 H1747 0.931 . S
C1761 C1760 1.385 . S
C1761 C1762 1.389 . S
C1762 C1761 1.389 . S
C1762 C1763 1.387 . S
C1763 H1748 0.930 . S
C1763 C1758 1.390 . S
C1763 C1762 1.387 . S
H1764 C1776 0.930 . S
H1765 C1778 0.930 . S
H1766 C1779 0.930 . S
H1767 C1783 0.959 . S
H1768 C1783 0.959 . S
H1769 C1783 0.961 . S
H1770 C1784 0.960 . S
H1771 C1784 0.961 . S
H1772 C1784 0.959 . S
H1773 C1787 0.929 . S
H1774 C1788 0.931 . S
H1775 C1790 0.930 . S
C1776 H1764 0.930 . S
C1776 C1777 1.399 . S
C1776 C1781 1.399 . S
C1777 C1776 1.399 . S
C1777 C1778 1.376 . S
C1778 H1765 0.930 . S
C1778 C1777 1.376 . S
C1778 C1779 1.388 . S
C1779 H1766 0.930 . S
C1779 C1778 1.388 . S
C1779 C1780 1.390 . S
C1780 C1779 1.390 . S
C1780 C1781 1.394 . S
C1780 C1786 1.465 . S
C1781 C1776 1.399 . S
C1781 C1780 1.394 . S
C1781 C1782 1.516 . S
C1782 C1781 1.516 . S
C1782 C1783 1.502 . S
C1782 C1784 1.561 . S
C1782 C1785 1.526 . S
C1783 H1767 0.959 . S
C1783 H1768 0.959 . S
C1783 H1769 0.961 . S
C1783 C1782 1.502 . S
C1784 H1770 0.960 . S
C1784 H1771 0.961 . S
C1784 H1772 0.959 . S
C1784 C1782 1.561 . S
C1785 C1782 1.526 . S
C1785 C1786 1.396 . S
C1785 C1790 1.390 . S
C1786 C1780 1.465 . S
C1786 C1785 1.396 . S
C1786 C1787 1.399 . S
C1787 H1773 0.929 . S
C1787 C1786 1.399 . S
C1787 C1788 1.385 . S
C1788 H1774 0.931 . S
C1788 C1787 1.385 . S
C1788 C1789 1.389 . S
C1789 C1788 1.389 . S
C1789 C1790 1.387 . S
C1790 H1775 0.930 . S
C1790 C1785 1.390 . S
C1790 C1789 1.387 . S
H1791 C1803 0.930 . S
H1792 C1805 0.930 . S
H1793 C1806 0.930 . S
H1794 C1810 0.959 . S
H1795 C1810 0.959 . S
H1796 C1810 0.961 . S
H1797 C1811 0.960 . S
H1798 C1811 0.961 . S
H1799 C1811 0.959 . S
H1800 C1814 0.929 . S
H1801 C1815 0.931 . S
H1802 C1817 0.930 . S
C1803 H1791 0.930 . S
C1803 C1804 1.399 . S
C1803 C1808 1.399 . S
C1804 C1803 1.399 . S
C1804 C1805 1.376 . S
C1805 H1792 0.930 . S
C1805 C1804 1.376 . S
C1805 C1806 1.388 . S
C1806 H1793 0.930 . S
C1806 C1805 1.388 . S
C1806 C1807 1.390 . S
C1807 C1806 1.390 . S
C1807 C1808 1.394 . S
C1807 C1813 1.465 . S
C1808 C1803 1.399 . S
C1808 C1807 1.394 . S
C1808 C1809 1.516 . S
C1809 C1808 1.516 . S
C1809 C1810 1.502 . S
C1809 C1811 1.561 . S
C1809 C1812 1.526 . S
C1810 H1794 0.959 . S
C1810 H1795 0.959 . S
C1810 H1796 0.961 . S
C1810 C1809 1.502 . S
C1811 H1797 0.960 . S
C1811 H1798 0.961 . S
C1811 H1799 0.959 . S
C1811 C1809 1.561 . S
C1812 C1809 1.526 . S
C1812 C1813 1.396 . S
C1812 C1817 1.390 . S
C1813 C1807 1.465 . S
C1813 C1812 1.396 . S
C1813 C1814 1.399 . S
C1814 H1800 0.929 . S
C1814 C1813 1.399 . S
C1814 C1815 1.385 . S
C1815 H1801 0.931 . S
C1815 C1814 1.385 . S
C1815 C1816 1.389 . S
C1816 C1815 1.389 . S
C1816 C1817 1.387 . S
C1817 H1802 0.930 . S
C1817 C1812 1.390 . S
C1817 C1816 1.387 . S
H1818 C1830 0.930 . S
H1819 C1832 0.930 . S
H1820 C1833 0.930 . S
H1821 C1837 0.959 . S
H1822 C1837 0.959 . S
H1823 C1837 0.961 . S
H1824 C1838 0.960 . S
H1825 C1838 0.961 . S
H1826 C1838 0.959 . S
H1827 C1841 0.929 . S
H1828 C1842 0.931 . S
H1829 C1844 0.930 . S
C1830 H1818 0.930 . S
C1830 C1831 1.399 . S
C1830 C1835 1.399 . S
C1831 C1830 1.399 . S
C1831 C1832 1.376 . S
C1832 H1819 0.930 . S
C1832 C1831 1.376 . S
C1832 C1833 1.388 . S
C1833 H1820 0.930 . S
C1833 C1832 1.388 . S
C1833 C1834 1.390 . S
C1834 C1833 1.390 . S
C1834 C1835 1.394 . S
C1834 C1840 1.465 . S
C1835 C1830 1.399 . S
C1835 C1834 1.394 . S
C1835 C1836 1.516 . S
C1836 C1835 1.516 . S
C1836 C1837 1.502 . S
C1836 C1838 1.561 . S
C1836 C1839 1.526 . S
C1837 H1821 0.959 . S
C1837 H1822 0.959 . S
C1837 H1823 0.961 . S
C1837 C1836 1.502 . S
C1838 H1824 0.960 . S
C1838 H1825 0.961 . S
C1838 H1826 0.959 . S
C1838 C1836 1.561 . S
C1839 C1836 1.526 . S
C1839 C1840 1.396 . S
C1839 C1844 1.390 . S
C1840 C1834 1.465 . S
C1840 C1839 1.396 . S
C1840 C1841 1.399 . S
C1841 H1827 0.929 . S
C1841 C1840 1.399 . S
C1841 C1842 1.385 . S
C1842 H1828 0.931 . S
C1842 C1841 1.385 . S
C1842 C1843 1.389 . S
C1843 C1842 1.389 . S
C1843 C1844 1.387 . S
C1844 H1829 0.930 . S
C1844 C1839 1.390 . S
C1844 C1843 1.387 . S
H1845 C1857 0.930 . S
H1846 C1859 0.930 . S
H1847 C1860 0.930 . S
H1848 C1864 0.959 . S
H1849 C1864 0.959 . S
H1850 C1864 0.961 . S
H1851 C1865 0.960 . S
H1852 C1865 0.961 . S
H1853 C1865 0.959 . S
H1854 C1868 0.929 . S
H1855 C1869 0.931 . S
H1856 C1871 0.930 . S
C1857 H1845 0.930 . S
C1857 C1858 1.399 . S
C1857 C1862 1.399 . S
C1858 C1857 1.399 . S
C1858 C1859 1.376 . S
C1859 H1846 0.930 . S
C1859 C1858 1.376 . S
C1859 C1860 1.388 . S
C1860 H1847 0.930 . S
C1860 C1859 1.388 . S
C1860 C1861 1.390 . S
C1861 C1860 1.390 . S
C1861 C1862 1.394 . S
C1861 C1867 1.465 . S
C1862 C1857 1.399 . S
C1862 C1861 1.394 . S
C1862 C1863 1.516 . S
C1863 C1862 1.516 . S
C1863 C1864 1.502 . S
C1863 C1865 1.561 . S
C1863 C1866 1.526 . S
C1864 H1848 0.959 . S
C1864 H1849 0.959 . S
C1864 H1850 0.961 . S
C1864 C1863 1.502 . S
C1865 H1851 0.960 . S
C1865 H1852 0.961 . S
C1865 H1853 0.959 . S
C1865 C1863 1.561 . S
C1866 C1863 1.526 . S
C1866 C1867 1.396 . S
C1866 C1871 1.390 . S
C1867 C1861 1.465 . S
C1867 C1866 1.396 . S
C1867 C1868 1.399 . S
C1868 H1854 0.929 . S
C1868 C1867 1.399 . S
C1868 C1869 1.385 . S
C1869 H1855 0.931 . S
C1869 C1868 1.385 . S
C1869 C1870 1.389 . S
C1870 C1869 1.389 . S
C1870 C1871 1.387 . S
C1871 H1856 0.930 . S
C1871 C1866 1.390 . S
C1871 C1870 1.387 . S
H1872 C1884 0.930 . S
H1873 C1886 0.930 . S
H1874 C1887 0.930 . S
H1875 C1891 0.959 . S
H1876 C1891 0.959 . S
H1877 C1891 0.961 . S
H1878 C1892 0.960 . S
H1879 C1892 0.961 . S
H1880 C1892 0.959 . S
H1881 C1895 0.929 . S
H1882 C1896 0.931 . S
H1883 C1898 0.930 . S
C1884 H1872 0.930 . S
C1884 C1885 1.399 . S
C1884 C1889 1.399 . S
C1885 C1884 1.399 . S
C1885 C1886 1.376 . S
C1886 H1873 0.930 . S
C1886 C1885 1.376 . S
C1886 C1887 1.388 . S
C1887 H1874 0.930 . S
C1887 C1886 1.388 . S
C1887 C1888 1.390 . S
C1888 C1887 1.390 . S
C1888 C1889 1.394 . S
C1888 C1894 1.465 . S
C1889 C1884 1.399 . S
C1889 C1888 1.394 . S
C1889 C1890 1.516 . S
C1890 C1889 1.516 . S
C1890 C1891 1.502 . S
C1890 C1892 1.561 . S
C1890 C1893 1.526 . S
C1891 H1875 0.959 . S
C1891 H1876 0.959 . S
C1891 H1877 0.961 . S
C1891 C1890 1.502 . S
C1892 H1878 0.960 . S
C1892 H1879 0.961 . S
C1892 H1880 0.959 . S
C1892 C1890 1.561 . S
C1893 C1890 1.526 . S
C1893 C1894 1.396 . S
C1893 C1898 1.390 . S
C1894 C1888 1.465 . S
C1894 C1893 1.396 . S
C1894 C1895 1.399 . S
C1895 H1881 0.929 . S
C1895 C1894 1.399 . S
C1895 C1896 1.385 . S
C1896 H1882 0.931 . S
C1896 C1895 1.385 . S
C1896 C1897 1.389 . S
C1897 C1896 1.389 . S
C1897 C1898 1.387 . S
C1898 H1883 0.930 . S
C1898 C1893 1.390 . S
C1898 C1897 1.387 . S
H1899 C1911 0.930 . S
H1900 C1913 0.930 . S
H1901 C1914 0.930 . S
H1902 C1918 0.959 . S
H1903 C1918 0.959 . S
H1904 C1918 0.961 . S
H1905 C1919 0.960 . S
H1906 C1919 0.961 . S
H1907 C1919 0.959 . S
H1908 C1922 0.929 . S
H1909 C1923 0.931 . S
H1910 C1925 0.930 . S
C1911 H1899 0.930 . S
C1911 C1912 1.399 . S
C1911 C1916 1.399 1_545 S
C1912 C1911 1.399 . S
C1912 C1913 1.376 . S
C1913 H1900 0.930 . S
C1913 C1912 1.376 . S
C1913 C1914 1.388 . S
C1914 H1901 0.930 . S
C1914 C1913 1.388 . S
C1914 C1915 1.390 1_545 S
C1915 C1914 1.390 1_565 S
C1915 C1916 1.394 . S
C1915 C1921 1.465 . S
C1916 C1911 1.399 1_565 S
C1916 C1915 1.394 . S
C1916 C1917 1.516 . S
C1917 C1916 1.516 . S
C1917 C1918 1.502 . S
C1917 C1919 1.561 . S
C1917 C1920 1.526 . S
C1918 H1902 0.959 . S
C1918 H1903 0.959 . S
C1918 H1904 0.961 . S
C1918 C1917 1.502 . S
C1919 H1905 0.960 . S
C1919 H1906 0.961 . S
C1919 H1907 0.959 . S
C1919 C1917 1.561 . S
C1920 C1917 1.526 . S
C1920 C1921 1.396 . S
C1920 C1925 1.390 . S
C1921 C1915 1.465 . S
C1921 C1920 1.396 . S
C1921 C1922 1.399 . S
C1922 H1908 0.929 . S
C1922 C1921 1.399 . S
C1922 C1923 1.385 . S
C1923 H1909 0.931 . S
C1923 C1922 1.385 . S
C1923 C1924 1.389 . S
C1924 C1923 1.389 . S
C1924 C1925 1.387 . S
C1925 H1910 0.930 . S
C1925 C1920 1.390 . S
C1925 C1924 1.387 . S
H1926 C1938 0.929 . S
H1927 C1940 0.930 . S
H1928 C1941 0.930 . S
H1929 C1945 0.959 . S
H1930 C1945 0.959 . S
H1931 C1945 0.961 . S
H1932 C1946 0.960 . S
H1933 C1946 0.961 . S
H1934 C1946 0.959 . S
H1935 C1949 0.929 . S
H1936 C1950 0.931 . S
H1937 C1952 0.930 . S
C1938 H1926 0.929 . S
C1938 C1939 1.403 . S
C1938 C1943 1.396 1_655 S
C1939 C1938 1.403 . S
C1939 C1940 1.376 . S
C1940 H1927 0.930 . S
C1940 C1939 1.376 . S
C1940 C1941 1.388 1_655 S
C1941 H1928 0.930 . S
C1941 C1940 1.388 1_455 S
C1941 C1942 1.390 . S
C1942 C1941 1.390 . S
C1942 C1943 1.394 . S
C1942 C1948 1.465 . S
C1943 C1938 1.396 1_455 S
C1943 C1942 1.394 . S
C1943 C1944 1.516 . S
C1944 C1943 1.516 . S
C1944 C1945 1.502 . S
C1944 C1946 1.561 . S
C1944 C1947 1.526 . S
C1945 H1929 0.959 . S
C1945 H1930 0.959 . S
C1945 H1931 0.961 . S
C1945 C1944 1.502 . S
C1946 H1932 0.960 . S
C1946 H1933 0.961 . S
C1946 H1934 0.959 . S
C1946 C1944 1.561 . S
C1947 C1944 1.526 . S
C1947 C1948 1.396 . S
C1947 C1952 1.390 . S
C1948 C1942 1.465 . S
C1948 C1947 1.396 . S
C1948 C1949 1.399 . S
C1949 H1935 0.929 . S
C1949 C1948 1.399 . S
C1949 C1950 1.385 . S
C1950 H1936 0.931 . S
C1950 C1949 1.385 . S
C1950 C1951 1.389 . S
C1951 C1950 1.389 . S
C1951 C1952 1.387 . S
C1952 H1937 0.930 . S
C1952 C1947 1.390 . S
C1952 C1951 1.387 . S
H1953 C1965 0.930 . S
H1954 C1967 0.930 . S
H1955 C1968 0.930 . S
H1956 C1972 0.959 . S
H1957 C1972 0.959 . S
H1958 C1972 0.961 . S
H1959 C1973 0.960 . S
H1960 C1973 0.961 . S
H1961 C1973 0.959 . S
H1962 C1976 0.929 . S
H1963 C1977 0.931 . S
H1964 C1979 0.930 . S
C1965 H1953 0.930 . S
C1965 C1966 1.399 . S
C1965 C1970 1.399 . S
C1966 C1965 1.399 . S
C1966 C1967 1.376 . S
C1967 H1954 0.930 . S
C1967 C1966 1.376 . S
C1967 C1968 1.388 . S
C1968 H1955 0.930 . S
C1968 C1967 1.388 . S
C1968 C1969 1.390 . S
C1969 C1968 1.390 . S
C1969 C1970 1.394 . S
C1969 C1975 1.465 . S
C1970 C1965 1.399 . S
C1970 C1969 1.394 . S
C1970 C1971 1.516 . S
C1971 C1970 1.516 . S
C1971 C1972 1.502 . S
C1971 C1973 1.561 . S
C1971 C1974 1.526 . S
C1972 H1956 0.959 . S
C1972 H1957 0.959 . S
C1972 H1958 0.961 . S
C1972 C1971 1.502 . S
C1973 H1959 0.960 . S
C1973 H1960 0.961 . S
C1973 H1961 0.959 . S
C1973 C1971 1.561 . S
C1974 C1971 1.526 . S
C1974 C1975 1.396 . S
C1974 C1979 1.390 . S
C1975 C1969 1.465 . S
C1975 C1974 1.396 . S
C1975 C1976 1.399 . S
C1976 H1962 0.929 . S
C1976 C1975 1.399 . S
C1976 C1977 1.385 . S
C1977 H1963 0.931 . S
C1977 C1976 1.385 . S
C1977 C1978 1.389 . S
C1978 C1977 1.389 . S
C1978 C1979 1.387 . S
C1979 H1964 0.930 . S
C1979 C1974 1.390 . S
C1979 C1978 1.387 . S
H1980 C1992 0.930 . S
H1981 C1994 0.930 . S
H1982 C1995 0.930 . S
H1983 C1999 0.959 . S
H1984 C1999 0.959 . S
H1985 C1999 0.961 . S
H1986 C2000 0.960 . S
H1987 C2000 0.961 . S
H1988 C2000 0.959 . S
H1989 C2003 0.929 . S
H1990 C2004 0.931 . S
H1991 C2006 0.930 . S
C1992 H1980 0.930 . S
C1992 C1993 1.399 . S
C1992 C1997 1.399 . S
C1993 C1992 1.399 . S
C1993 C1994 1.376 . S
C1994 H1981 0.930 . S
C1994 C1993 1.376 . S
C1994 C1995 1.388 . S
C1995 H1982 0.930 . S
C1995 C1994 1.388 . S
C1995 C1996 1.390 . S
C1996 C1995 1.390 . S
C1996 C1997 1.394 . S
C1996 C2002 1.465 . S
C1997 C1992 1.399 . S
C1997 C1996 1.394 . S
C1997 C1998 1.516 . S
C1998 C1997 1.516 . S
C1998 C1999 1.502 . S
C1998 C2000 1.561 . S
C1998 C2001 1.526 . S
C1999 H1983 0.959 . S
C1999 H1984 0.959 . S
C1999 H1985 0.961 . S
C1999 C1998 1.502 . S
C2000 H1986 0.960 . S
C2000 H1987 0.961 . S
C2000 H1988 0.959 . S
C2000 C1998 1.561 . S
C2001 C1998 1.526 . S
C2001 C2002 1.396 . S
C2001 C2006 1.390 . S
C2002 C1996 1.465 . S
C2002 C2001 1.396 . S
C2002 C2003 1.399 . S
C2003 H1989 0.929 . S
C2003 C2002 1.399 . S
C2003 C2004 1.385 . S
C2004 H1990 0.931 . S
C2004 C2003 1.385 . S
C2004 C2005 1.389 . S
C2005 C2004 1.389 . S
C2005 C2006 1.387 . S
C2006 H1991 0.930 . S
C2006 C2001 1.390 . S
C2006 C2005 1.387 . S
H2007 C2019 0.930 . S
H2008 C2021 0.930 . S
H2009 C2022 0.930 . S
H2010 C2026 0.959 . S
H2011 C2026 0.959 . S
H2012 C2026 0.961 . S
H2013 C2027 0.960 . S
H2014 C2027 0.961 . S
H2015 C2027 0.959 . S
H2016 C2030 0.929 . S
H2017 C2031 0.931 . S
H2018 C2033 0.930 . S
C2019 H2007 0.930 . S
C2019 C2020 1.399 . S
C2019 C2024 1.399 . S
C2020 C2019 1.399 . S
C2020 C2021 1.376 . S
C2021 H2008 0.930 . S
C2021 C2020 1.376 . S
C2021 C2022 1.388 . S
C2022 H2009 0.930 . S
C2022 C2021 1.388 . S
C2022 C2023 1.390 . S
C2023 C2022 1.390 . S
C2023 C2024 1.394 . S
C2023 C2029 1.465 . S
C2024 C2019 1.399 . S
C2024 C2023 1.394 . S
C2024 C2025 1.516 . S
C2025 C2024 1.516 . S
C2025 C2026 1.502 . S
C2025 C2027 1.561 . S
C2025 C2028 1.526 . S
C2026 H2010 0.959 . S
C2026 H2011 0.959 . S
C2026 H2012 0.961 . S
C2026 C2025 1.502 . S
C2027 H2013 0.960 . S
C2027 H2014 0.961 . S
C2027 H2015 0.959 . S
C2027 C2025 1.561 . S
C2028 C2025 1.526 . S
C2028 C2029 1.396 . S
C2028 C2033 1.390 . S
C2029 C2023 1.465 . S
C2029 C2028 1.396 . S
C2029 C2030 1.399 . S
C2030 H2016 0.929 . S
C2030 C2029 1.399 . S
C2030 C2031 1.385 . S
C2031 H2017 0.931 . S
C2031 C2030 1.385 . S
C2031 C2032 1.389 . S
C2032 C2031 1.389 . S
C2032 C2033 1.387 . S
C2033 H2018 0.930 . S
C2033 C2028 1.390 . S
C2033 C2032 1.387 . S
H2034 C2046 0.930 . S
H2035 C2048 0.930 . S
H2036 C2049 0.930 . S
H2037 C2053 0.959 . S
H2038 C2053 0.959 . S
H2039 C2053 0.961 . S
H2040 C2054 0.960 . S
H2041 C2054 0.961 . S
H2042 C2054 0.959 . S
H2043 C2057 0.929 . S
H2044 C2058 0.931 . S
H2045 C2060 0.930 . S
C2046 H2034 0.930 . S
C2046 C2047 1.399 . S
C2046 C2051 1.399 . S
C2047 C2046 1.399 . S
C2047 C2048 1.376 . S
C2048 H2035 0.930 . S
C2048 C2047 1.376 . S
C2048 C2049 1.388 . S
C2049 H2036 0.930 . S
C2049 C2048 1.388 . S
C2049 C2050 1.390 . S
C2050 C2049 1.390 . S
C2050 C2051 1.394 . S
C2050 C2056 1.465 . S
C2051 C2046 1.399 . S
C2051 C2050 1.394 . S
C2051 C2052 1.516 . S
C2052 C2051 1.516 . S
C2052 C2053 1.502 . S
C2052 C2054 1.561 . S
C2052 C2055 1.526 . S
C2053 H2037 0.959 . S
C2053 H2038 0.959 . S
C2053 H2039 0.961 . S
C2053 C2052 1.502 . S
C2054 H2040 0.960 . S
C2054 H2041 0.961 . S
C2054 H2042 0.959 . S
C2054 C2052 1.561 . S
C2055 C2052 1.526 . S
C2055 C2056 1.396 . S
C2055 C2060 1.390 . S
C2056 C2050 1.465 . S
C2056 C2055 1.396 . S
C2056 C2057 1.399 . S
C2057 H2043 0.929 . S
C2057 C2056 1.399 . S
C2057 C2058 1.385 . S
C2058 H2044 0.931 . S
C2058 C2057 1.385 . S
C2058 C2059 1.389 . S
C2059 C2058 1.389 . S
C2059 C2060 1.387 . S
C2060 H2045 0.930 . S
C2060 C2055 1.390 . S
C2060 C2059 1.387 . S
H2061 C2073 0.930 . S
H2062 C2075 0.930 . S
H2063 C2076 0.930 . S
H2064 C2080 0.959 . S
H2065 C2080 0.959 . S
H2066 C2080 0.961 . S
H2067 C2081 0.960 1_565 S
H2068 C2081 0.961 . S
H2069 C2081 0.959 . S
H2070 C2084 0.929 . S
H2071 C2085 0.931 . S
H2072 C2087 0.930 . S
C2073 H2061 0.930 . S
C2073 C2074 1.399 . S
C2073 C2078 1.399 1_565 S
C2074 C2073 1.399 . S
C2074 C2075 1.376 . S
C2075 H2062 0.930 . S
C2075 C2074 1.376 . S
C2075 C2076 1.388 1_565 S
C2076 H2063 0.930 . S
C2076 C2075 1.388 1_545 S
C2076 C2077 1.390 . S
C2077 C2076 1.390 . S
C2077 C2078 1.394 . S
C2077 C2083 1.465 . S
C2078 C2073 1.399 1_545 S
C2078 C2077 1.394 . S
C2078 C2079 1.516 . S
C2079 C2078 1.516 . S
C2079 C2080 1.502 . S
C2079 C2081 1.561 . S
C2079 C2082 1.526 . S
C2080 H2064 0.959 . S
C2080 H2065 0.959 . S
C2080 H2066 0.961 . S
C2080 C2079 1.502 . S
C2081 H2067 0.960 1_545 S
C2081 H2068 0.961 . S
C2081 H2069 0.959 . S
C2081 C2079 1.561 . S
C2082 C2079 1.526 . S
C2082 C2083 1.396 . S
C2082 C2087 1.390 . S
C2083 C2077 1.465 . S
C2083 C2082 1.396 . S
C2083 C2084 1.399 . S
C2084 H2070 0.929 . S
C2084 C2083 1.399 . S
C2084 C2085 1.385 . S
C2085 H2071 0.931 . S
C2085 C2084 1.385 . S
C2085 C2086 1.389 . S
C2086 C2085 1.389 . S
C2086 C2087 1.387 . S
C2087 H2072 0.930 . S
C2087 C2082 1.390 . S
C2087 C2086 1.387 . S
H2088 C2100 0.930 . S
H2089 C2102 0.938 . S
H2090 C2103 0.930 . S
H2091 C2107 0.959 . S
H2092 C2107 0.959 . S
H2093 C2107 0.961 1_455 S
H2094 C2108 0.960 . S
H2095 C2108 0.961 . S
H2096 C2108 0.959 . S
H2097 C2111 0.929 . S
H2098 C2112 0.931 . S
H2099 C2114 0.930 . S
C2100 H2088 0.930 . S
C2100 C2101 1.399 . S
C2100 C2105 1.399 1_455 S
C2101 C2100 1.399 . S
C2101 C2102 1.382 . S
C2102 H2089 0.938 . S
C2102 C2101 1.382 . S
C2102 C2103 1.376 1_455 S
C2103 H2090 0.930 . S
C2103 C2102 1.376 1_655 S
C2103 C2104 1.390 . S
C2104 C2103 1.390 . S
C2104 C2105 1.394 . S
C2104 C2110 1.465 . S
C2105 C2100 1.399 1_655 S
C2105 C2104 1.394 . S
C2105 C2106 1.516 . S
C2106 C2105 1.516 . S
C2106 C2107 1.502 . S
C2106 C2108 1.561 . S
C2106 C2109 1.526 . S
C2107 H2091 0.959 . S
C2107 H2092 0.959 . S
C2107 H2093 0.961 1_655 S
C2107 C2106 1.502 . S
C2108 H2094 0.960 . S
C2108 H2095 0.961 . S
C2108 H2096 0.959 . S
C2108 C2106 1.561 . S
C2109 C2106 1.526 . S
C2109 C2110 1.396 . S
C2109 C2114 1.390 . S
C2110 C2104 1.465 . S
C2110 C2109 1.396 . S
C2110 C2111 1.399 . S
C2111 H2097 0.929 . S
C2111 C2110 1.399 . S
C2111 C2112 1.385 . S
C2112 H2098 0.931 . S
C2112 C2111 1.385 . S
C2112 C2113 1.389 . S
C2113 C2112 1.389 . S
C2113 C2114 1.387 . S
C2114 H2099 0.930 . S
C2114 C2109 1.390 . S
C2114 C2113 1.387 . S
H2115 C2127 0.930 . S
H2116 C2129 0.930 . S
H2117 C2130 0.930 . S
H2118 C2134 0.959 . S
H2119 C2134 0.959 . S
H2120 C2134 0.961 . S
H2121 C2135 0.960 . S
H2122 C2135 0.961 . S
H2123 C2135 0.959 . S
H2124 C2138 0.929 . S
H2125 C2139 0.931 . S
H2126 C2141 0.930 . S
C2127 H2115 0.930 . S
C2127 C2128 1.399 . S
C2127 C2132 1.399 . S
C2128 C2127 1.399 . S
C2128 C2129 1.376 . S
C2129 H2116 0.930 . S
C2129 C2128 1.376 . S
C2129 C2130 1.388 . S
C2130 H2117 0.930 . S
C2130 C2129 1.388 . S
C2130 C2131 1.390 . S
C2131 C2130 1.390 . S
C2131 C2132 1.394 . S
C2131 C2137 1.465 . S
C2132 C2127 1.399 . S
C2132 C2131 1.394 . S
C2132 C2133 1.516 . S
C2133 C2132 1.516 . S
C2133 C2134 1.502 . S
C2133 C2135 1.561 . S
C2133 C2136 1.526 . S
C2134 H2118 0.959 . S
C2134 H2119 0.959 . S
C2134 H2120 0.961 . S
C2134 C2133 1.502 . S
C2135 H2121 0.960 . S
C2135 H2122 0.961 . S
C2135 H2123 0.959 . S
C2135 C2133 1.561 . S
C2136 C2133 1.526 . S
C2136 C2137 1.396 . S
C2136 C2141 1.390 . S
C2137 C2131 1.465 . S
C2137 C2136 1.396 . S
C2137 C2138 1.399 . S
C2138 H2124 0.929 . S
C2138 C2137 1.399 . S
C2138 C2139 1.385 . S
C2139 H2125 0.931 . S
C2139 C2138 1.385 . S
C2139 C2140 1.389 . S
C2140 C2139 1.389 . S
C2140 C2141 1.387 . S
C2141 H2126 0.930 . S
C2141 C2136 1.390 . S
C2141 C2140 1.387 . S
H2142 C2154 0.930 . S
H2143 C2156 0.930 . S
H2144 C2157 0.930 . S
H2145 C2161 0.959 . S
H2146 C2161 0.959 . S
H2147 C2161 0.961 . S
H2148 C2162 0.960 . S
H2149 C2162 0.961 . S
H2150 C2162 0.959 . S
H2151 C2165 0.929 . S
H2152 C2166 0.931 . S
H2153 C2168 0.930 . S
C2154 H2142 0.930 . S
C2154 C2155 1.399 1_655 S
C2154 C2159 1.399 . S
C2155 C2154 1.399 1_455 S
C2155 C2156 1.376 . S
C2156 H2143 0.930 . S
C2156 C2155 1.376 . S
C2156 C2157 1.388 . S
C2157 H2144 0.930 . S
C2157 C2156 1.388 . S
C2157 C2158 1.390 1_455 S
C2158 C2157 1.390 1_655 S
C2158 C2159 1.394 . S
C2158 C2164 1.465 . S
C2159 C2154 1.399 . S
C2159 C2158 1.394 . S
C2159 C2160 1.516 . S
C2160 C2159 1.516 . S
C2160 C2161 1.502 . S
C2160 C2162 1.561 . S
C2160 C2163 1.526 . S
C2161 H2145 0.959 . S
C2161 H2146 0.959 . S
C2161 H2147 0.961 . S
C2161 C2160 1.502 . S
C2162 H2148 0.960 . S
C2162 H2149 0.961 . S
C2162 H2150 0.959 . S
C2162 C2160 1.561 . S
C2163 C2160 1.526 . S
C2163 C2164 1.396 . S
C2163 C2168 1.390 . S
C2164 C2158 1.465 . S
C2164 C2163 1.396 . S
C2164 C2165 1.399 . S
C2165 H2151 0.929 . S
C2165 C2164 1.399 . S
C2165 C2166 1.385 . S
C2166 H2152 0.931 . S
C2166 C2165 1.385 . S
C2166 C2167 1.389 . S
C2167 C2166 1.389 . S
C2167 C2168 1.387 . S
C2168 H2153 0.930 . S
C2168 C2163 1.390 . S
C2168 C2167 1.387 . S
H2169 C2181 0.930 . S
H2170 C2183 0.930 . S
H2171 C2184 0.930 . S
H2172 C2188 0.959 . S
H2173 C2188 0.959 . S
H2174 C2188 0.961 . S
H2175 C2189 0.960 . S
H2176 C2189 0.961 . S
H2177 C2189 0.959 . S
H2178 C2192 0.929 . S
H2179 C2193 0.931 . S
H2180 C2195 0.930 . S
C2181 H2169 0.930 . S
C2181 C2182 1.399 . S
C2181 C2186 1.399 . S
C2182 C2181 1.399 . S
C2182 C2183 1.376 . S
C2183 H2170 0.930 . S
C2183 C2182 1.376 . S
C2183 C2184 1.388 . S
C2184 H2171 0.930 . S
C2184 C2183 1.388 . S
C2184 C2185 1.390 . S
C2185 C2184 1.390 . S
C2185 C2186 1.394 . S
C2185 C2191 1.465 . S
C2186 C2181 1.399 . S
C2186 C2185 1.394 . S
C2186 C2187 1.516 . S
C2187 C2186 1.516 . S
C2187 C2188 1.502 . S
C2187 C2189 1.561 . S
C2187 C2190 1.526 . S
C2188 H2172 0.959 . S
C2188 H2173 0.959 . S
C2188 H2174 0.961 . S
C2188 C2187 1.502 . S
C2189 H2175 0.960 . S
C2189 H2176 0.961 . S
C2189 H2177 0.959 . S
C2189 C2187 1.561 . S
C2190 C2187 1.526 . S
C2190 C2191 1.396 . S
C2190 C2195 1.390 . S
C2191 C2185 1.465 . S
C2191 C2190 1.396 . S
C2191 C2192 1.399 . S
C2192 H2178 0.929 . S
C2192 C2191 1.399 . S
C2192 C2193 1.385 . S
C2193 H2179 0.931 . S
C2193 C2192 1.385 . S
C2193 C2194 1.389 . S
C2194 C2193 1.389 . S
C2194 C2195 1.387 . S
C2195 H2180 0.930 . S
C2195 C2190 1.390 . S
C2195 C2194 1.387 . S
H2196 C2208 0.930 . S
H2197 C2210 0.930 . S
H2198 C2211 0.930 . S
H2199 C2215 0.959 . S
H2200 C2215 0.959 . S
H2201 C2215 0.960 . S
H2202 C2216 0.960 1_565 S
H2203 C2216 0.961 . S
H2204 C2216 0.959 . S
H2205 C2219 0.929 . S
H2206 C2220 0.931 . S
H2207 C2222 0.930 . S
C2208 H2196 0.930 . S
C2208 C2209 1.399 . S
C2208 C2213 1.399 1_565 S
C2209 C2208 1.399 . S
C2209 C2210 1.376 . S
C2210 H2197 0.930 . S
C2210 C2209 1.376 . S
C2210 C2211 1.388 1_565 S
C2211 H2198 0.930 . S
C2211 C2210 1.388 1_545 S
C2211 C2212 1.390 . S
C2212 C2211 1.390 . S
C2212 C2213 1.394 . S
C2212 C2218 1.465 . S
C2213 C2208 1.399 1_545 S
C2213 C2212 1.394 . S
C2213 C2214 1.516 . S
C2214 C2213 1.516 . S
C2214 C2215 1.502 . S
C2214 C2216 1.561 . S
C2214 C2217 1.526 . S
C2215 H2199 0.959 . S
C2215 H2200 0.959 . S
C2215 H2201 0.960 . S
C2215 C2214 1.502 . S
C2216 H2202 0.960 1_545 S
C2216 H2203 0.961 . S
C2216 H2204 0.959 . S
C2216 C2214 1.561 . S
C2217 C2214 1.526 . S
C2217 C2218 1.396 . S
C2217 C2222 1.390 . S
C2218 C2212 1.465 . S
C2218 C2217 1.396 . S
C2218 C2219 1.399 . S
C2219 H2205 0.929 . S
C2219 C2218 1.399 . S
C2219 C2220 1.385 . S
C2220 H2206 0.931 . S
C2220 C2219 1.385 . S
C2220 C2221 1.389 . S
C2221 C2220 1.389 . S
C2221 C2222 1.387 . S
C2222 H2207 0.930 . S
C2222 C2217 1.390 . S
C2222 C2221 1.387 . S
H2223 C2235 0.930 . S
H2224 C2237 0.930 . S
H2225 C2238 0.930 . S
H2226 C2242 0.959 . S
H2227 C2242 0.959 . S
H2228 C2242 0.961 . S
H2229 C2243 0.960 . S
H2230 C2243 0.961 . S
H2231 C2243 0.959 . S
H2232 C2246 0.929 . S
H2233 C2247 0.931 . S
H2234 C2249 0.930 . S
C2235 H2223 0.930 . S
C2235 C2236 1.399 . S
C2235 C2240 1.399 . S
C2236 C2235 1.399 . S
C2236 C2237 1.376 . S
C2237 H2224 0.930 . S
C2237 C2236 1.376 . S
C2237 C2238 1.388 . S
C2238 H2225 0.930 . S
C2238 C2237 1.388 . S
C2238 C2239 1.390 . S
C2239 C2238 1.390 . S
C2239 C2240 1.394 . S
C2239 C2245 1.465 . S
C2240 C2235 1.399 . S
C2240 C2239 1.394 . S
C2240 C2241 1.516 . S
C2241 C2240 1.516 . S
C2241 C2242 1.502 . S
C2241 C2243 1.561 . S
C2241 C2244 1.526 . S
C2242 H2226 0.959 . S
C2242 H2227 0.959 . S
C2242 H2228 0.961 . S
C2242 C2241 1.502 . S
C2243 H2229 0.960 . S
C2243 H2230 0.961 . S
C2243 H2231 0.959 . S
C2243 C2241 1.561 . S
C2244 C2241 1.526 . S
C2244 C2245 1.396 . S
C2244 C2249 1.390 . S
C2245 C2239 1.465 . S
C2245 C2244 1.396 . S
C2245 C2246 1.399 . S
C2246 H2232 0.929 . S
C2246 C2245 1.399 . S
C2246 C2247 1.385 . S
C2247 H2233 0.931 . S
C2247 C2246 1.385 . S
C2247 C2248 1.389 . S
C2248 C2247 1.389 . S
C2248 C2249 1.387 . S
C2249 H2234 0.930 . S
C2249 C2244 1.390 . S
C2249 C2248 1.387 . S
H2250 C2262 0.930 . S
H2251 C2264 0.930 . S
H2252 C2265 0.930 . S
H2253 C2269 0.959 . S
H2254 C2269 0.959 . S
H2255 C2269 0.961 . S
H2256 C2270 0.960 . S
H2257 C2270 0.961 . S
H2258 C2270 0.959 . S
H2259 C2273 0.929 . S
H2260 C2274 0.931 . S
H2261 C2276 0.930 . S
C2262 H2250 0.930 . S
C2262 C2263 1.399 . S
C2262 C2267 1.399 . S
C2263 C2262 1.399 . S
C2263 C2264 1.376 . S
C2264 H2251 0.930 . S
C2264 C2263 1.376 . S
C2264 C2265 1.388 . S
C2265 H2252 0.930 . S
C2265 C2264 1.388 . S
C2265 C2266 1.390 . S
C2266 C2265 1.390 . S
C2266 C2267 1.394 . S
C2266 C2272 1.465 . S
C2267 C2262 1.399 . S
C2267 C2266 1.394 . S
C2267 C2268 1.516 . S
C2268 C2267 1.516 . S
C2268 C2269 1.502 . S
C2268 C2270 1.561 . S
C2268 C2271 1.526 . S
C2269 H2253 0.959 . S
C2269 H2254 0.959 . S
C2269 H2255 0.961 . S
C2269 C2268 1.502 . S
C2270 H2256 0.960 . S
C2270 H2257 0.961 . S
C2270 H2258 0.959 . S
C2270 C2268 1.561 . S
C2271 C2268 1.526 . S
C2271 C2272 1.396 . S
C2271 C2276 1.390 . S
C2272 C2266 1.465 . S
C2272 C2271 1.396 . S
C2272 C2273 1.399 . S
C2273 H2259 0.929 . S
C2273 C2272 1.399 . S
C2273 C2274 1.385 . S
C2274 H2260 0.931 . S
C2274 C2273 1.385 . S
C2274 C2275 1.389 . S
C2275 C2274 1.389 . S
C2275 C2276 1.387 . S
C2276 H2261 0.930 . S
C2276 C2271 1.390 . S
C2276 C2275 1.387 . S
H2277 C2289 0.930 . S
H2278 C2291 0.930 . S
H2279 C2292 0.930 . S
H2280 C2296 0.959 . S
H2281 C2296 0.959 . S
H2282 C2296 0.961 . S
H2283 C2297 0.960 . S
H2284 C2297 0.961 . S
H2285 C2297 0.959 . S
H2286 C2300 0.929 . S
H2287 C2301 0.931 . S
H2288 C2303 0.930 . S
C2289 H2277 0.930 . S
C2289 C2290 1.399 . S
C2289 C2294 1.399 . S
C2290 C2289 1.399 . S
C2290 C2291 1.376 . S
C2291 H2278 0.930 . S
C2291 C2290 1.376 . S
C2291 C2292 1.388 . S
C2292 H2279 0.930 . S
C2292 C2291 1.388 . S
C2292 C2293 1.390 . S
C2293 C2292 1.390 . S
C2293 C2294 1.394 . S
C2293 C2299 1.465 . S
C2294 C2289 1.399 . S
C2294 C2293 1.394 . S
C2294 C2295 1.516 . S
C2295 C2294 1.516 . S
C2295 C2296 1.502 . S
C2295 C2297 1.561 . S
C2295 C2298 1.526 . S
C2296 H2280 0.959 . S
C2296 H2281 0.959 . S
C2296 H2282 0.961 . S
C2296 C2295 1.502 . S
C2297 H2283 0.960 . S
C2297 H2284 0.961 . S
C2297 H2285 0.959 . S
C2297 C2295 1.561 . S
C2298 C2295 1.526 . S
C2298 C2299 1.396 . S
C2298 C2303 1.390 . S
C2299 C2293 1.465 . S
C2299 C2298 1.396 . S
C2299 C2300 1.399 . S
C2300 H2286 0.929 . S
C2300 C2299 1.399 . S
C2300 C2301 1.385 . S
C2301 H2287 0.931 . S
C2301 C2300 1.385 . S
C2301 C2302 1.389 . S
C2302 C2301 1.389 . S
C2302 C2303 1.387 . S
C2303 H2288 0.930 . S
C2303 C2298 1.390 . S
C2303 C2302 1.387 . S
H2304 C2316 0.930 . S
H2305 C2318 0.930 . S
H2306 C2319 0.930 . S
H2307 C2323 0.959 . S
H2308 C2323 0.959 . S
H2309 C2323 0.961 . S
H2310 C2324 0.960 . S
H2311 C2324 0.961 . S
H2312 C2324 0.959 . S
H2313 C2327 0.929 1_545 S
H2314 C2328 0.931 1_545 S
H2315 C2330 0.930 . S
C2316 H2304 0.930 . S
C2316 C2317 1.399 . S
C2316 C2321 1.399 . S
C2317 C2316 1.399 . S
C2317 C2318 1.376 . S
C2318 H2305 0.930 . S
C2318 C2317 1.376 . S
C2318 C2319 1.388 . S
C2319 H2306 0.930 . S
C2319 C2318 1.388 . S
C2319 C2320 1.390 . S
C2320 C2319 1.390 . S
C2320 C2321 1.394 . S
C2320 C2326 1.465 . S
C2321 C2316 1.399 . S
C2321 C2320 1.394 . S
C2321 C2322 1.516 . S
C2322 C2321 1.516 . S
C2322 C2323 1.502 . S
C2322 C2324 1.561 . S
C2322 C2325 1.526 . S
C2323 H2307 0.959 . S
C2323 H2308 0.959 . S
C2323 H2309 0.961 . S
C2323 C2322 1.502 . S
C2324 H2310 0.960 . S
C2324 H2311 0.961 . S
C2324 H2312 0.959 . S
C2324 C2322 1.561 . S
C2325 C2322 1.526 . S
C2325 C2326 1.396 . S
C2325 C2330 1.390 . S
C2326 C2320 1.465 . S
C2326 C2325 1.396 . S
C2326 C2327 1.399 . S
C2327 H2313 0.929 1_565 S
C2327 C2326 1.399 . S
C2327 C2328 1.385 . S
C2328 H2314 0.931 1_565 S
C2328 C2327 1.385 . S
C2328 C2329 1.389 . S
C2329 C2328 1.389 . S
C2329 C2330 1.387 . S
C2330 H2315 0.930 . S
C2330 C2325 1.390 . S
C2330 C2329 1.387 . S
H2331 C2343 0.930 . S
H2332 C2345 0.930 . S
H2333 C2346 0.965 . S
H2334 C2350 0.959 . S
H2335 C2350 0.959 . S
H2336 C2350 0.961 . S
H2337 C2351 0.960 . S
H2338 C2351 0.961 . S
H2339 C2351 0.959 . S
H2340 C2354 0.929 1_655 S
H2341 C2355 0.931 1_655 S
H2342 C2357 0.930 . S
C2343 H2331 0.930 . S
C2343 C2344 1.399 . S
C2343 C2348 1.399 . S
C2344 C2343 1.399 . S
C2344 C2345 1.376 . S
C2345 H2332 0.930 . S
C2345 C2344 1.376 . S
C2345 C2346 1.388 . S
C2346 H2333 0.965 . S
C2346 C2345 1.388 . S
C2346 C2347 1.390 . S
C2347 C2346 1.390 . S
C2347 C2348 1.394 . S
C2347 C2353 1.465 . S
C2348 C2343 1.399 . S
C2348 C2347 1.394 . S
C2348 C2349 1.516 . S
C2349 C2348 1.516 . S
C2349 C2350 1.502 . S
C2349 C2351 1.561 . S
C2349 C2352 1.526 . S
C2350 H2334 0.959 . S
C2350 H2335 0.959 . S
C2350 H2336 0.961 . S
C2350 C2349 1.502 . S
C2351 H2337 0.960 . S
C2351 H2338 0.961 . S
C2351 H2339 0.959 . S
C2351 C2349 1.561 . S
C2352 C2349 1.526 . S
C2352 C2353 1.396 . S
C2352 C2357 1.390 . S
C2353 C2347 1.465 . S
C2353 C2352 1.396 . S
C2353 C2354 1.399 . S
C2354 H2340 0.929 1_455 S
C2354 C2353 1.399 . S
C2354 C2355 1.385 . S
C2355 H2341 0.931 1_455 S
C2355 C2354 1.385 . S
C2355 C2356 1.389 . S
C2356 C2355 1.389 . S
C2356 C2357 1.387 . S
C2357 H2342 0.930 . S
C2357 C2352 1.390 . S
C2357 C2356 1.387 . S
H2358 C2370 0.930 . S
H2359 C2372 0.930 . S
H2360 C2373 0.930 . S
H2361 C2377 0.959 . S
H2362 C2377 0.959 . S
H2363 C2377 0.961 . S
H2364 C2378 0.960 . S
H2365 C2378 0.961 . S
H2366 C2378 0.959 . S
H2367 C2381 0.929 . S
H2368 C2382 0.931 . S
H2369 C2384 0.930 . S
C2370 H2358 0.930 . S
C2370 C2371 1.399 . S
C2370 C2375 1.399 . S
C2371 C2370 1.399 . S
C2371 C2372 1.376 . S
C2372 H2359 0.930 . S
C2372 C2371 1.376 . S
C2372 C2373 1.388 . S
C2373 H2360 0.930 . S
C2373 C2372 1.388 . S
C2373 C2374 1.390 . S
C2374 C2373 1.390 . S
C2374 C2375 1.394 . S
C2374 C2380 1.465 . S
C2375 C2370 1.399 . S
C2375 C2374 1.394 . S
C2375 C2376 1.516 . S
C2376 C2375 1.516 . S
C2376 C2377 1.502 . S
C2376 C2378 1.561 . S
C2376 C2379 1.526 . S
C2377 H2361 0.959 . S
C2377 H2362 0.959 . S
C2377 H2363 0.961 . S
C2377 C2376 1.502 . S
C2378 H2364 0.960 . S
C2378 H2365 0.961 . S
C2378 H2366 0.959 . S
C2378 C2376 1.561 . S
C2379 C2376 1.526 . S
C2379 C2380 1.396 . S
C2379 C2384 1.390 . S
C2380 C2374 1.465 . S
C2380 C2379 1.396 . S
C2380 C2381 1.399 . S
C2381 H2367 0.929 . S
C2381 C2380 1.399 . S
C2381 C2382 1.385 . S
C2382 H2368 0.931 . S
C2382 C2381 1.385 . S
C2382 C2383 1.389 . S
C2383 C2382 1.389 . S
C2383 C2384 1.387 . S
C2384 H2369 0.930 . S
C2384 C2379 1.390 . S
C2384 C2383 1.387 . S
H2385 C2397 0.930 . S
H2386 C2399 0.930 . S
H2387 C2400 0.930 . S
H2388 C2404 0.959 . S
H2389 C2404 0.959 . S
H2390 C2404 0.961 . S
H2391 C2405 0.960 . S
H2392 C2405 0.961 . S
H2393 C2405 0.959 . S
H2394 C2408 0.929 . S
H2395 C2409 0.931 . S
H2396 C2411 0.930 . S
C2397 H2385 0.930 . S
C2397 C2398 1.399 . S
C2397 C2402 1.399 . S
C2398 C2397 1.399 . S
C2398 C2399 1.376 . S
C2399 H2386 0.930 . S
C2399 C2398 1.376 . S
C2399 C2400 1.388 . S
C2400 H2387 0.930 . S
C2400 C2399 1.388 . S
C2400 C2401 1.390 . S
C2401 C2400 1.390 . S
C2401 C2402 1.394 . S
C2401 C2407 1.465 . S
C2402 C2397 1.399 . S
C2402 C2401 1.394 . S
C2402 C2403 1.516 . S
C2403 C2402 1.516 . S
C2403 C2404 1.502 1_655 S
C2403 C2405 1.561 . S
C2403 C2406 1.526 . S
C2404 H2388 0.959 . S
C2404 H2389 0.959 . S
C2404 H2390 0.961 . S
C2404 C2403 1.502 1_455 S
C2405 H2391 0.960 . S
C2405 H2392 0.961 . S
C2405 H2393 0.959 . S
C2405 C2403 1.561 . S
C2406 C2403 1.526 . S
C2406 C2407 1.396 . S
C2406 C2411 1.390 . S
C2407 C2401 1.465 . S
C2407 C2406 1.396 . S
C2407 C2408 1.399 . S
C2408 H2394 0.929 . S
C2408 C2407 1.399 . S
C2408 C2409 1.385 . S
C2409 H2395 0.931 . S
C2409 C2408 1.385 . S
C2409 C2410 1.389 . S
C2410 C2409 1.389 . S
C2410 C2411 1.387 . S
C2411 H2396 0.930 . S
C2411 C2406 1.390 . S
C2411 C2410 1.387 . S
H2412 C2424 0.930 . S
H2413 C2426 0.930 . S
H2414 C2427 0.930 . S
H2415 C2431 0.959 . S
H2416 C2431 0.959 . S
H2417 C2431 0.961 . S
H2418 C2432 0.960 . S
H2419 C2432 0.961 . S
H2420 C2432 0.959 . S
H2421 C2435 0.929 . S
H2422 C2436 0.931 . S
H2423 C2438 0.930 . S
C2424 H2412 0.930 . S
C2424 C2425 1.399 . S
C2424 C2429 1.399 . S
C2425 C2424 1.399 . S
C2425 C2426 1.376 . S
C2426 H2413 0.930 . S
C2426 C2425 1.376 . S
C2426 C2427 1.388 . S
C2427 H2414 0.930 . S
C2427 C2426 1.388 . S
C2427 C2428 1.390 . S
C2428 C2427 1.390 . S
C2428 C2429 1.394 . S
C2428 C2434 1.465 . S
C2429 C2424 1.399 . S
C2429 C2428 1.394 . S
C2429 C2430 1.516 . S
C2430 C2429 1.516 . S
C2430 C2431 1.502 . S
C2430 C2432 1.561 . S
C2430 C2433 1.526 . S
C2431 H2415 0.959 . S
C2431 H2416 0.959 . S
C2431 H2417 0.961 . S
C2431 C2430 1.502 . S
C2432 H2418 0.960 . S
C2432 H2419 0.961 . S
C2432 H2420 0.959 . S
C2432 C2430 1.561 . S
C2433 C2430 1.526 . S
C2433 C2434 1.396 . S
C2433 C2438 1.390 . S
C2434 C2428 1.465 . S
C2434 C2433 1.396 . S
C2434 C2435 1.399 . S
C2435 H2421 0.929 . S
C2435 C2434 1.399 . S
C2435 C2436 1.385 . S
C2436 H2422 0.931 . S
C2436 C2435 1.385 . S
C2436 C2437 1.389 . S
C2437 C2436 1.389 . S
C2437 C2438 1.387 . S
C2438 H2423 0.930 . S
C2438 C2433 1.390 . S
C2438 C2437 1.387 . S
H2439 C2451 0.930 . S
H2440 C2453 0.930 . S
H2441 C2454 0.930 . S
H2442 C2458 0.959 . S
H2443 C2458 0.959 . S
H2444 C2458 0.961 . S
H2445 C2459 0.960 . S
H2446 C2459 0.961 . S
H2447 C2459 0.959 . S
H2448 C2462 0.929 1_565 S
H2449 C2463 0.931 1_565 S
H2450 C2465 0.930 . S
C2451 H2439 0.930 . S
C2451 C2452 1.399 . S
C2451 C2456 1.399 . S
C2452 C2451 1.399 . S
C2452 C2453 1.376 . S
C2453 H2440 0.930 . S
C2453 C2452 1.376 . S
C2453 C2454 1.388 . S
C2454 H2441 0.930 . S
C2454 C2453 1.388 . S
C2454 C2455 1.390 . S
C2455 C2454 1.390 . S
C2455 C2456 1.394 . S
C2455 C2461 1.465 . S
C2456 C2451 1.399 . S
C2456 C2455 1.394 . S
C2456 C2457 1.516 . S
C2457 C2456 1.516 . S
C2457 C2458 1.502 . S
C2457 C2459 1.561 . S
C2457 C2460 1.526 . S
C2458 H2442 0.959 . S
C2458 H2443 0.959 . S
C2458 H2444 0.961 . S
C2458 C2457 1.502 . S
C2459 H2445 0.960 . S
C2459 H2446 0.961 . S
C2459 H2447 0.959 . S
C2459 C2457 1.561 . S
C2460 C2457 1.526 . S
C2460 C2461 1.396 . S
C2460 C2465 1.390 . S
C2461 C2455 1.465 . S
C2461 C2460 1.396 . S
C2461 C2462 1.399 . S
C2462 H2448 0.929 1_545 S
C2462 C2461 1.399 . S
C2462 C2463 1.385 . S
C2463 H2449 0.931 1_545 S
C2463 C2462 1.385 . S
C2463 C2464 1.389 . S
C2464 C2463 1.389 . S
C2464 C2465 1.387 . S
C2465 H2450 0.930 . S
C2465 C2460 1.390 . S
C2465 C2464 1.387 . S
H2466 C2478 0.930 . S
H2467 C2480 0.930 . S
H2468 C2481 0.930 . S
H2469 C2485 0.959 . S
H2470 C2485 0.959 . S
H2471 C2485 0.961 . S
H2472 C2486 0.960 . S
H2473 C2486 0.961 . S
H2474 C2486 0.959 . S
H2475 C2489 0.929 . S
H2476 C2490 0.931 . S
H2477 C2492 0.930 . S
C2478 H2466 0.930 . S
C2478 C2479 1.399 . S
C2478 C2483 1.399 . S
C2479 C2478 1.399 . S
C2479 C2480 1.376 . S
C2480 H2467 0.930 . S
C2480 C2479 1.376 . S
C2480 C2481 1.388 . S
C2481 H2468 0.930 . S
C2481 C2480 1.388 . S
C2481 C2482 1.390 . S
C2482 C2481 1.390 . S
C2482 C2483 1.394 . S
C2482 C2488 1.465 . S
C2483 C2478 1.399 . S
C2483 C2482 1.394 . S
C2483 C2484 1.516 . S
C2484 C2483 1.516 . S
C2484 C2485 1.502 . S
C2484 C2486 1.561 . S
C2484 C2487 1.526 . S
C2485 H2469 0.959 . S
C2485 H2470 0.959 . S
C2485 H2471 0.961 . S
C2485 C2484 1.502 . S
C2486 H2472 0.960 . S
C2486 H2473 0.961 . S
C2486 H2474 0.959 . S
C2486 C2484 1.561 . S
C2487 C2484 1.526 . S
C2487 C2488 1.396 . S
C2487 C2492 1.390 . S
C2488 C2482 1.465 . S
C2488 C2487 1.396 . S
C2488 C2489 1.399 . S
C2489 H2475 0.929 . S
C2489 C2488 1.399 . S
C2489 C2490 1.385 . S
C2490 H2476 0.931 . S
C2490 C2489 1.385 . S
C2490 C2491 1.389 . S
C2491 C2490 1.389 . S
C2491 C2492 1.387 . S
C2492 H2477 0.930 . S
C2492 C2487 1.390 . S
C2492 C2491 1.387 . S
H2493 C2505 0.930 . S
H2494 C2507 0.930 . S
H2495 C2508 0.930 . S
H2496 C2512 0.959 . S
H2497 C2512 0.959 . S
H2498 C2512 0.961 . S
H2499 C2513 0.960 . S
H2500 C2513 0.961 . S
H2501 C2513 0.959 . S
H2502 C2516 0.929 . S
H2503 C2517 0.931 . S
H2504 C2519 0.930 . S
C2505 H2493 0.930 . S
C2505 C2506 1.399 . S
C2505 C2510 1.399 . S
C2506 C2505 1.399 . S
C2506 C2507 1.376 . S
C2507 H2494 0.930 . S
C2507 C2506 1.376 . S
C2507 C2508 1.388 . S
C2508 H2495 0.930 . S
C2508 C2507 1.388 . S
C2508 C2509 1.390 . S
C2509 C2508 1.390 . S
C2509 C2510 1.394 . S
C2509 C2515 1.465 . S
C2510 C2505 1.399 . S
C2510 C2509 1.394 . S
C2510 C2511 1.516 . S
C2511 C2510 1.516 . S
C2511 C2512 1.502 . S
C2511 C2513 1.561 . S
C2511 C2514 1.526 . S
C2512 H2496 0.959 . S
C2512 H2497 0.959 . S
C2512 H2498 0.961 . S
C2512 C2511 1.502 . S
C2513 H2499 0.960 . S
C2513 H2500 0.961 . S
C2513 H2501 0.959 . S
C2513 C2511 1.561 . S
C2514 C2511 1.526 . S
C2514 C2515 1.396 . S
C2514 C2519 1.390 . S
C2515 C2509 1.465 . S
C2515 C2514 1.396 . S
C2515 C2516 1.399 . S
C2516 H2502 0.929 . S
C2516 C2515 1.399 . S
C2516 C2517 1.385 . S
C2517 H2503 0.931 . S
C2517 C2516 1.385 . S
C2517 C2518 1.389 . S
C2518 C2517 1.389 . S
C2518 C2519 1.387 . S
C2519 H2504 0.930 . S
C2519 C2514 1.390 . S
C2519 C2518 1.387 . S
H2520 C2532 0.930 . S
H2521 C2534 0.930 . S
H2522 C2535 0.930 . S
H2523 C2539 0.959 . S
H2524 C2539 0.959 . S
H2525 C2539 0.961 . S
H2526 C2540 0.960 . S
H2527 C2540 0.961 . S
H2528 C2540 0.959 . S
H2529 C2543 0.929 . S
H2530 C2544 0.931 . S
H2531 C2546 0.930 . S
C2532 H2520 0.930 . S
C2532 C2533 1.399 . S
C2532 C2537 1.399 . S
C2533 C2532 1.399 . S
C2533 C2534 1.376 . S
C2534 H2521 0.930 . S
C2534 C2533 1.376 . S
C2534 C2535 1.388 . S
C2535 H2522 0.930 . S
C2535 C2534 1.388 . S
C2535 C2536 1.390 . S
C2536 C2535 1.390 . S
C2536 C2537 1.394 . S
C2536 C2542 1.465 . S
C2537 C2532 1.399 . S
C2537 C2536 1.394 . S
C2537 C2538 1.516 . S
C2538 C2537 1.516 . S
C2538 C2539 1.502 . S
C2538 C2540 1.561 . S
C2538 C2541 1.526 . S
C2539 H2523 0.959 . S
C2539 H2524 0.959 . S
C2539 H2525 0.961 . S
C2539 C2538 1.502 . S
C2540 H2526 0.960 . S
C2540 H2527 0.961 . S
C2540 H2528 0.959 . S
C2540 C2538 1.561 . S
C2541 C2538 1.526 . S
C2541 C2542 1.396 . S
C2541 C2546 1.390 . S
C2542 C2536 1.465 . S
C2542 C2541 1.396 . S
C2542 C2543 1.399 . S
C2543 H2529 0.929 . S
C2543 C2542 1.399 . S
C2543 C2544 1.385 . S
C2544 H2530 0.931 . S
C2544 C2543 1.385 . S
C2544 C2545 1.389 . S
C2545 C2544 1.389 . S
C2545 C2546 1.387 . S
C2546 H2531 0.930 . S
C2546 C2541 1.390 . S
C2546 C2545 1.387 . S
H2547 C2559 0.930 . S
H2548 C2561 0.930 . S
H2549 C2562 0.930 . S
H2550 C2566 0.959 . S
H2551 C2566 0.959 . S
H2552 C2566 0.961 . S
H2553 C2567 0.960 . S
H2554 C2567 0.961 . S
H2555 C2567 0.959 . S
H2556 C2570 0.929 . S
H2557 C2571 0.931 . S
H2558 C2573 0.930 . S
C2559 H2547 0.930 . S
C2559 C2560 1.399 . S
C2559 C2564 1.399 . S
C2560 C2559 1.399 . S
C2560 C2561 1.376 . S
C2561 H2548 0.930 . S
C2561 C2560 1.376 . S
C2561 C2562 1.388 . S
C2562 H2549 0.930 . S
C2562 C2561 1.388 . S
C2562 C2563 1.390 . S
C2563 C2562 1.390 . S
C2563 C2564 1.394 . S
C2563 C2569 1.465 . S
C2564 C2559 1.399 . S
C2564 C2563 1.394 . S
C2564 C2565 1.516 . S
C2565 C2564 1.516 . S
C2565 C2566 1.502 . S
C2565 C2567 1.561 . S
C2565 C2568 1.526 . S
C2566 H2550 0.959 . S
C2566 H2551 0.959 . S
C2566 H2552 0.961 . S
C2566 C2565 1.502 . S
C2567 H2553 0.960 . S
C2567 H2554 0.961 . S
C2567 H2555 0.959 . S
C2567 C2565 1.561 . S
C2568 C2565 1.526 . S
C2568 C2569 1.396 . S
C2568 C2573 1.390 . S
C2569 C2563 1.465 . S
C2569 C2568 1.396 . S
C2569 C2570 1.399 . S
C2570 H2556 0.929 . S
C2570 C2569 1.399 . S
C2570 C2571 1.385 . S
C2571 H2557 0.931 . S
C2571 C2570 1.385 . S
C2571 C2572 1.389 . S
C2572 C2571 1.389 . S
C2572 C2573 1.387 . S
C2573 H2558 0.930 . S
C2573 C2568 1.390 . S
C2573 C2572 1.387 . S
H2574 C2586 0.930 . S
H2575 C2588 0.930 . S
H2576 C2589 0.930 . S
H2577 C2593 0.959 . S
H2578 C2593 0.959 . S
H2579 C2593 0.961 . S
H2580 C2594 0.960 . S
H2581 C2594 0.961 . S
H2582 C2594 0.959 . S
H2583 C2597 0.929 . S
H2584 C2598 0.931 . S
H2585 C2600 0.930 . S
C2586 H2574 0.930 . S
C2586 C2587 1.399 . S
C2586 C2591 1.399 . S
C2587 C2586 1.399 . S
C2587 C2588 1.376 . S
C2588 H2575 0.930 . S
C2588 C2587 1.376 . S
C2588 C2589 1.388 . S
C2589 H2576 0.930 . S
C2589 C2588 1.388 . S
C2589 C2590 1.390 . S
C2590 C2589 1.390 . S
C2590 C2591 1.394 . S
C2590 C2596 1.465 . S
C2591 C2586 1.399 . S
C2591 C2590 1.394 . S
C2591 C2592 1.516 . S
C2592 C2591 1.516 . S
C2592 C2593 1.502 . S
C2592 C2594 1.561 . S
C2592 C2595 1.526 . S
C2593 H2577 0.959 . S
C2593 H2578 0.959 . S
C2593 H2579 0.961 . S
C2593 C2592 1.502 . S
C2594 H2580 0.960 . S
C2594 H2581 0.961 . S
C2594 H2582 0.959 . S
C2594 C2592 1.561 . S
C2595 C2592 1.526 . S
C2595 C2596 1.396 . S
C2595 C2600 1.390 . S
C2596 C2590 1.465 . S
C2596 C2595 1.396 . S
C2596 C2597 1.399 . S
C2597 H2583 0.929 . S
C2597 C2596 1.399 . S
C2597 C2598 1.385 . S
C2598 H2584 0.931 . S
C2598 C2597 1.385 . S
C2598 C2599 1.389 . S
C2599 C2598 1.389 . S
C2599 C2600 1.387 . S
C2600 H2585 0.930 . S
C2600 C2595 1.390 . S
C2600 C2599 1.387 . S
H2601 C2613 0.930 . S
H2602 C2615 0.930 . S
H2603 C2616 0.930 . S
H2604 C2620 0.959 . S
H2605 C2620 0.959 . S
H2606 C2620 0.961 . S
H2607 C2621 0.960 . S
H2608 C2621 0.961 . S
H2609 C2621 0.959 . S
H2610 C2624 0.929 . S
H2611 C2625 0.931 . S
H2612 C2627 0.930 . S
C2613 H2601 0.930 . S
C2613 C2614 1.399 . S
C2613 C2618 1.399 . S
C2614 C2613 1.399 . S
C2614 C2615 1.376 . S
C2615 H2602 0.930 . S
C2615 C2614 1.376 . S
C2615 C2616 1.388 . S
C2616 H2603 0.930 . S
C2616 C2615 1.388 . S
C2616 C2617 1.390 . S
C2617 C2616 1.390 . S
C2617 C2618 1.394 . S
C2617 C2623 1.465 . S
C2618 C2613 1.399 . S
C2618 C2617 1.394 . S
C2618 C2619 1.516 . S
C2619 C2618 1.516 . S
C2619 C2620 1.502 . S
C2619 C2621 1.561 . S
C2619 C2622 1.526 . S
C2620 H2604 0.959 . S
C2620 H2605 0.959 . S
C2620 H2606 0.961 . S
C2620 C2619 1.502 . S
C2621 H2607 0.960 . S
C2621 H2608 0.961 . S
C2621 H2609 0.959 . S
C2621 C2619 1.561 . S
C2622 C2619 1.526 . S
C2622 C2623 1.396 . S
C2622 C2627 1.390 . S
C2623 C2617 1.465 . S
C2623 C2622 1.396 . S
C2623 C2624 1.399 . S
C2624 H2610 0.929 . S
C2624 C2623 1.399 . S
C2624 C2625 1.385 . S
C2625 H2611 0.931 . S
C2625 C2624 1.385 . S
C2625 C2626 1.389 . S
C2626 C2625 1.389 . S
C2626 C2627 1.387 . S
C2627 H2612 0.930 . S
C2627 C2622 1.390 . S
C2627 C2626 1.387 . S
H2628 C2640 0.930 . S
H2629 C2642 0.930 . S
H2630 C2643 0.930 . S
H2631 C2647 0.959 . S
H2632 C2647 0.959 . S
H2633 C2647 0.961 . S
H2634 C2648 0.960 . S
H2635 C2648 0.961 . S
H2636 C2648 0.959 . S
H2637 C2651 0.929 . S
H2638 C2652 0.931 . S
H2639 C2654 0.930 . S
C2640 H2628 0.930 . S
C2640 C2641 1.399 . S
C2640 C2645 1.399 . S
C2641 C2640 1.399 . S
C2641 C2642 1.376 . S
C2642 H2629 0.930 . S
C2642 C2641 1.376 . S
C2642 C2643 1.388 . S
C2643 H2630 0.930 . S
C2643 C2642 1.388 . S
C2643 C2644 1.390 . S
C2644 C2643 1.390 . S
C2644 C2645 1.394 . S
C2644 C2650 1.465 . S
C2645 C2640 1.399 . S
C2645 C2644 1.394 . S
C2645 C2646 1.516 . S
C2646 C2645 1.516 . S
C2646 C2647 1.502 . S
C2646 C2648 1.561 . S
C2646 C2649 1.526 . S
C2647 H2631 0.959 . S
C2647 H2632 0.959 . S
C2647 H2633 0.961 . S
C2647 C2646 1.502 . S
C2648 H2634 0.960 . S
C2648 H2635 0.961 . S
C2648 H2636 0.959 . S
C2648 C2646 1.561 . S
C2649 C2646 1.526 . S
C2649 C2650 1.396 . S
C2649 C2654 1.390 . S
C2650 C2644 1.465 . S
C2650 C2649 1.396 . S
C2650 C2651 1.399 . S
C2651 H2637 0.929 . S
C2651 C2650 1.399 . S
C2651 C2652 1.385 . S
C2652 H2638 0.931 . S
C2652 C2651 1.385 . S
C2652 C2653 1.389 . S
C2653 C2652 1.389 . S
C2653 C2654 1.387 . S
C2654 H2639 0.930 . S
C2654 C2649 1.390 . S
C2654 C2653 1.387 . S
H2655 C2667 0.930 . S
H2656 C2669 0.930 . S
H2657 C2670 0.930 . S
H2658 C2674 0.959 . S
H2659 C2674 0.959 . S
H2660 C2674 0.961 . S
H2661 C2675 0.960 . S
H2662 C2675 0.961 . S
H2663 C2675 0.959 . S
H2664 C2678 0.929 . S
H2665 C2679 0.931 . S
H2666 C2681 0.930 . S
C2667 H2655 0.930 . S
C2667 C2668 1.399 . S
C2667 C2672 1.399 . S
C2668 C2667 1.399 . S
C2668 C2669 1.376 . S
C2669 H2656 0.930 . S
C2669 C2668 1.376 . S
C2669 C2670 1.388 . S
C2670 H2657 0.930 . S
C2670 C2669 1.388 . S
C2670 C2671 1.390 . S
C2671 C2670 1.390 . S
C2671 C2672 1.394 . S
C2671 C2677 1.465 . S
C2672 C2667 1.399 . S
C2672 C2671 1.394 . S
C2672 C2673 1.516 . S
C2673 C2672 1.516 . S
C2673 C2674 1.502 . S
C2673 C2675 1.561 . S
C2673 C2676 1.526 . S
C2674 H2658 0.959 . S
C2674 H2659 0.959 . S
C2674 H2660 0.961 . S
C2674 C2673 1.502 . S
C2675 H2661 0.960 . S
C2675 H2662 0.961 . S
C2675 H2663 0.959 . S
C2675 C2673 1.561 . S
C2676 C2673 1.526 . S
C2676 C2677 1.396 . S
C2676 C2681 1.390 . S
C2677 C2671 1.465 . S
C2677 C2676 1.396 . S
C2677 C2678 1.399 . S
C2678 H2664 0.929 . S
C2678 C2677 1.399 . S
C2678 C2679 1.385 . S
C2679 H2665 0.931 . S
C2679 C2678 1.385 . S
C2679 C2680 1.389 . S
C2680 C2679 1.389 . S
C2680 C2681 1.387 . S
C2681 H2666 0.930 . S
C2681 C2676 1.390 . S
C2681 C2680 1.387 . S
H2682 C2694 0.930 . S
H2683 C2696 0.930 . S
H2684 C2697 0.930 . S
H2685 C2701 0.959 . S
H2686 C2701 0.959 . S
H2687 C2701 0.961 . S
H2688 C2702 0.960 . S
H2689 C2702 0.961 . S
H2690 C2702 0.959 . S
H2691 C2705 0.929 . S
H2692 C2706 0.931 . S
H2693 C2708 0.930 . S
C2694 H2682 0.930 . S
C2694 C2695 1.399 . S
C2694 C2699 1.399 . S
C2695 C2694 1.399 . S
C2695 C2696 1.376 . S
C2696 H2683 0.930 . S
C2696 C2695 1.376 . S
C2696 C2697 1.388 . S
C2697 H2684 0.930 . S
C2697 C2696 1.388 . S
C2697 C2698 1.390 . S
C2698 C2697 1.390 . S
C2698 C2699 1.394 . S
C2698 C2704 1.465 . S
C2699 C2694 1.399 . S
C2699 C2698 1.394 . S
C2699 C2700 1.516 . S
C2700 C2699 1.516 . S
C2700 C2701 1.502 . S
C2700 C2702 1.561 . S
C2700 C2703 1.526 . S
C2701 H2685 0.959 . S
C2701 H2686 0.959 . S
C2701 H2687 0.961 . S
C2701 C2700 1.502 . S
C2702 H2688 0.960 . S
C2702 H2689 0.961 . S
C2702 H2690 0.959 . S
C2702 C2700 1.561 . S
C2703 C2700 1.526 . S
C2703 C2704 1.396 . S
C2703 C2708 1.390 . S
C2704 C2698 1.465 . S
C2704 C2703 1.396 . S
C2704 C2705 1.399 . S
C2705 H2691 0.929 . S
C2705 C2704 1.399 . S
C2705 C2706 1.385 . S
C2706 H2692 0.931 . S
C2706 C2705 1.385 . S
C2706 C2707 1.389 . S
C2707 C2706 1.389 . S
C2707 C2708 1.387 . S
C2708 H2693 0.930 . S
C2708 C2703 1.390 . S
C2708 C2707 1.387 . S
H2709 C2721 0.930 . S
H2710 C2723 0.930 . S
H2711 C2724 0.930 . S
H2712 C2728 0.959 . S
H2713 C2728 0.959 . S
H2714 C2728 0.961 . S
H2715 C2729 0.960 . S
H2716 C2729 0.961 . S
H2717 C2729 0.959 . S
H2718 C2732 0.929 . S
H2719 C2733 0.931 . S
H2720 C2735 0.930 . S
C2721 H2709 0.930 . S
C2721 C2722 1.399 . S
C2721 C2726 1.399 . S
C2722 C2721 1.399 . S
C2722 C2723 1.376 . S
C2723 H2710 0.930 . S
C2723 C2722 1.376 . S
C2723 C2724 1.388 . S
C2724 H2711 0.930 . S
C2724 C2723 1.388 . S
C2724 C2725 1.390 . S
C2725 C2724 1.390 . S
C2725 C2726 1.394 . S
C2725 C2731 1.465 . S
C2726 C2721 1.399 . S
C2726 C2725 1.394 . S
C2726 C2727 1.516 . S
C2727 C2726 1.516 . S
C2727 C2728 1.502 . S
C2727 C2729 1.561 . S
C2727 C2730 1.526 . S
C2728 H2712 0.959 . S
C2728 H2713 0.959 . S
C2728 H2714 0.961 . S
C2728 C2727 1.502 . S
C2729 H2715 0.960 . S
C2729 H2716 0.961 . S
C2729 H2717 0.959 . S
C2729 C2727 1.561 . S
C2730 C2727 1.526 . S
C2730 C2731 1.396 . S
C2730 C2735 1.390 . S
C2731 C2725 1.465 . S
C2731 C2730 1.396 . S
C2731 C2732 1.399 . S
C2732 H2718 0.929 . S
C2732 C2731 1.399 . S
C2732 C2733 1.385 . S
C2733 H2719 0.931 . S
C2733 C2732 1.385 . S
C2733 C2734 1.389 . S
C2734 C2733 1.389 . S
C2734 C2735 1.387 . S
C2735 H2720 0.930 . S
C2735 C2730 1.390 . S
C2735 C2734 1.387 . S
H2736 C2748 0.930 . S
H2737 C2750 0.930 . S
H2738 C2751 0.930 . S
H2739 C2755 0.959 . S
H2740 C2755 0.959 . S
H2741 C2755 0.961 . S
H2742 C2756 0.960 . S
H2743 C2756 0.961 . S
H2744 C2756 0.959 . S
H2745 C2759 0.929 . S
H2746 C2760 0.931 . S
H2747 C2762 0.930 . S
C2748 H2736 0.930 . S
C2748 C2749 1.399 . S
C2748 C2753 1.399 . S
C2749 C2748 1.399 . S
C2749 C2750 1.376 . S
C2750 H2737 0.930 . S
C2750 C2749 1.376 . S
C2750 C2751 1.388 . S
C2751 H2738 0.930 . S
C2751 C2750 1.388 . S
C2751 C2752 1.390 . S
C2752 C2751 1.390 . S
C2752 C2753 1.394 . S
C2752 C2758 1.465 . S
C2753 C2748 1.399 . S
C2753 C2752 1.394 . S
C2753 C2754 1.516 . S
C2754 C2753 1.516 . S
C2754 C2755 1.502 . S
C2754 C2756 1.561 . S
C2754 C2757 1.526 . S
C2755 H2739 0.959 . S
C2755 H2740 0.959 . S
C2755 H2741 0.961 . S
C2755 C2754 1.502 . S
C2756 H2742 0.960 . S
C2756 H2743 0.961 . S
C2756 H2744 0.959 . S
C2756 C2754 1.561 . S
C2757 C2754 1.526 . S
C2757 C2758 1.396 . S
C2757 C2762 1.390 . S
C2758 C2752 1.465 . S
C2758 C2757 1.396 . S
C2758 C2759 1.399 . S
C2759 H2745 0.929 . S
C2759 C2758 1.399 . S
C2759 C2760 1.385 . S
C2760 H2746 0.931 . S
C2760 C2759 1.385 . S
C2760 C2761 1.389 . S
C2761 C2760 1.389 . S
C2761 C2762 1.387 . S
C2762 H2747 0.930 . S
C2762 C2757 1.390 . S
C2762 C2761 1.387 . S
H2763 C2775 0.930 . S
H2764 C2777 0.930 . S
H2765 C2778 0.930 . S
H2766 C2782 0.959 . S
H2767 C2782 0.959 . S
H2768 C2782 0.961 . S
H2769 C2783 0.960 . S
H2770 C2783 0.961 . S
H2771 C2783 0.959 . S
H2772 C2786 0.929 . S
H2773 C2787 0.931 . S
H2774 C2789 0.930 . S
C2775 H2763 0.930 . S
C2775 C2776 1.399 . S
C2775 C2780 1.399 . S
C2776 C2775 1.399 . S
C2776 C2777 1.376 . S
C2777 H2764 0.930 . S
C2777 C2776 1.376 . S
C2777 C2778 1.388 . S
C2778 H2765 0.930 . S
C2778 C2777 1.388 . S
C2778 C2779 1.390 . S
C2779 C2778 1.390 . S
C2779 C2780 1.394 . S
C2779 C2785 1.465 . S
C2780 C2775 1.399 . S
C2780 C2779 1.394 . S
C2780 C2781 1.516 . S
C2781 C2780 1.516 . S
C2781 C2782 1.502 . S
C2781 C2783 1.561 . S
C2781 C2784 1.526 . S
C2782 H2766 0.959 . S
C2782 H2767 0.959 . S
C2782 H2768 0.961 . S
C2782 C2781 1.502 . S
C2783 H2769 0.960 . S
C2783 H2770 0.961 . S
C2783 H2771 0.959 . S
C2783 C2781 1.561 . S
C2784 C2781 1.526 . S
C2784 C2785 1.396 . S
C2784 C2789 1.390 . S
C2785 C2779 1.465 . S
C2785 C2784 1.396 . S
C2785 C2786 1.399 . S
C2786 H2772 0.929 . S
C2786 C2785 1.399 . S
C2786 C2787 1.385 . S
C2787 H2773 0.931 . S
C2787 C2786 1.385 . S
C2787 C2788 1.389 . S
C2788 C2787 1.389 . S
C2788 C2789 1.387 . S
C2789 H2774 0.930 . S
C2789 C2784 1.390 . S
C2789 C2788 1.387 . S
C1345 C439 1.368 . S
C1357 C632 1.351 . S
C1372 C465 1.484 . S
C1384 C716 1.415 . S
C1399 C401 1.466 . S
C1411 C810 1.433 . S
C1426 C369 1.431 . S
C1438 C726 1.405 . S
C1465 C800 1.367 . S
C1453 C305 1.461 . S
C1480 C343 1.339 . S
C1492 C642 1.304 . S
C1519 C643 1.309 . S
C1507 C375 1.434 . S
C1546 C727 1.400 . S
C1534 C311 1.451 . S
C1561 C337 1.452 . S
C1573 C819 1.383 . S
C1588 C433 1.417 . S
C1600 C735 1.359 . S
C1615 C471 1.395 . S
C1627 C811 1.374 . S
C1654 C651 1.401 . S
C1642 C407 1.416 . S
C1681 C884 1.281 . S
C1669 C55 1.388 . S
C1696 C81 1.510 . S
C1708 C968 1.407 . S
C1723 C17 1.456 . S
C1735 C1062 1.391 . S
C1750 C561 1.419 . S
C1762 C978 1.387 . S
C1777 C497 1.439 . S
C1789 C1052 1.416 . S
C1804 C535 1.322 . S
C1816 C894 1.340 . S
C1831 C567 1.440 . S
C1843 C895 1.318 . S
C1858 C503 1.474 . S
C1870 C979 1.359 . S
C1897 C1071 1.454 . S
C1885 C529 1.375 . S
C1912 C49 1.421 . S
C1924 C987 1.352 . S
C1951 C1063 1.395 . S
C1939 C87 1.409 . S
C1966 C23 1.420 . S
C1978 C903 1.397 . S
C2005 C1136 1.361 . S
C1993 C247 1.311 . S
C2020 C273 1.485 . S
C2032 C1220 1.433 . S
C2059 C1314 1.426 . S
C2047 C209 1.467 . S
C2086 C1230 1.387 . S
C2074 C177 1.419 . S
C2113 C1304 1.362 . S
C2101 C113 1.461 . S
C2128 C151 1.361 . S
C2140 C1146 1.299 . S
C2155 C183 1.415 . S
C2167 C1147 1.385 . S
C2182 C119 1.451 . S
C2194 C1231 1.419 . S
C2221 C1323 1.456 . S
C2209 C145 1.374 . S
C2236 C241 1.364 . S
C2248 C1239 1.401 . S
C2263 C279 1.416 . S
C2275 C1315 1.391 . S
C2290 C215 1.395 . S
C2302 C1155 1.339 . S
C2317 C509 1.424 . S
C2329 C639 1.300 . S
C2356 C723 1.282 . S
C2344 C541 1.470 . S
C2371 C573 1.421 . S
C2383 C816 1.284 . S
C2398 C221 1.509 . S
C2410 C732 1.421 . S
C2425 C253 1.440 . S
C2437 C807 1.335 . S
C2464 C648 1.314 . S
C2452 C285 1.421 . S
C2479 C125 1.438 . S
C2491 C891 1.308 . S
C2506 C157 1.430 . S
C2518 C975 1.303 . S
C2533 C189 1.421 . S
C2545 C1068 1.283 . S
C2560 C413 1.458 . S
C2572 C984 1.300 . S
C2599 C1059 1.381 . S
C2587 C445 1.409 . S
C2614 C477 1.472 . S
C2626 C900 1.409 . S
C2641 C317 1.426 . S
C2653 C1143 1.300 . S
C2668 C349 1.404 . S
C2680 C1227 1.393 . S
C2707 C1320 1.403 . S
C2695 C381 1.479 . S
C2722 C29 1.459 . S
C2734 C1236 1.304 . S
C2749 C61 1.430 . S
C2761 C1311 1.356 . S
C2776 C93 1.458 . S
C2788 C1152 1.395 . S
