# Generated by pormake.
# Topology eea, (3,6)-cn, num edge types: 1
# Building blocks:
#     Node 0, Type 0, BuildingBlock: MIDCAF_clean_linker_0, # of connection points: 3
#     Node 1, Type 0, BuildingBlock: MIDCAF_clean_linker_0, # of connection points: 3
#     Node 2, Type 0, BuildingBlock: MIDCAF_clean_linker_0, # of connection points: 3
#     Node 3, Type 0, BuildingBlock: MIDCAF_clean_linker_0, # of connection points: 3
#     Node 4, Type 0, BuildingBlock: MIDCAF_clean_linker_0, # of connection points: 3
#     Node 5, Type 0, BuildingBlock: MIDCAF_clean_linker_0, # of connection points: 3
#     Node 6, Type 0, BuildingBlock: MIDCAF_clean_linker_0, # of connection points: 3
#     Node 7, Type 0, BuildingBlock: MIDCAF_clean_linker_0, # of connection points: 3
#     Node 8, Type 0, BuildingBlock: MIDCAF_clean_linker_0, # of connection points: 3
#     Node 9, Type 0, BuildingBlock: MIDCAF_clean_linker_0, # of connection points: 3
#     Node 10, Type 0, BuildingBlock: MIDCAF_clean_linker_0, # of connection points: 3
#     Node 11, Type 0, BuildingBlock: MIDCAF_clean_linker_0, # of connection points: 3
#     Node 12, Type 0, BuildingBlock: MIDCAF_clean_linker_0, # of connection points: 3
#     Node 13, Type 0, BuildingBlock: MIDCAF_clean_linker_0, # of connection points: 3
#     Node 14, Type 0, BuildingBlock: MIDCAF_clean_linker_0, # of connection points: 3
#     Node 15, Type 0, BuildingBlock: MIDCAF_clean_linker_0, # of connection points: 3
#     Node 16, Type 0, BuildingBlock: MIDCAF_clean_linker_0, # of connection points: 3
#     Node 17, Type 0, BuildingBlock: MIDCAF_clean_linker_0, # of connection points: 3
#     Node 18, Type 1, BuildingBlock: CUKXOW_clean_sbu_0, # of connection points: 6
#     Node 19, Type 1, BuildingBlock: CUKXOW_clean_sbu_0, # of connection points: 6
#     Node 20, Type 1, BuildingBlock: CUKXOW_clean_sbu_0, # of connection points: 6
#     Node 21, Type 1, BuildingBlock: CUKXOW_clean_sbu_0, # of connection points: 6
#     Node 22, Type 1, BuildingBlock: CUKXOW_clean_sbu_0, # of connection points: 6
#     Node 23, Type 1, BuildingBlock: CUKXOW_clean_sbu_0, # of connection points: 6
#     Node 24, Type 1, BuildingBlock: CUKXOW_clean_sbu_0, # of connection points: 6
#     Node 25, Type 1, BuildingBlock: CUKXOW_clean_sbu_0, # of connection points: 6
#     Node 26, Type 1, BuildingBlock: CUKXOW_clean_sbu_0, # of connection points: 6
#     Edge 27, Type (0, 1), BuildingBlock: OJICUG_clean_linker_0, # of connection points: 2
#     Edge 28, Type (0, 1), BuildingBlock: OJICUG_clean_linker_0, # of connection points: 2
#     Edge 29, Type (0, 1), BuildingBlock: OJICUG_clean_linker_0, # of connection points: 2
#     Edge 30, Type (0, 1), BuildingBlock: OJICUG_clean_linker_0, # of connection points: 2
#     Edge 31, Type (0, 1), BuildingBlock: OJICUG_clean_linker_0, # of connection points: 2
#     Edge 32, Type (0, 1), BuildingBlock: OJICUG_clean_linker_0, # of connection points: 2
#     Edge 33, Type (0, 1), BuildingBlock: OJICUG_clean_linker_0, # of connection points: 2
#     Edge 34, Type (0, 1), BuildingBlock: OJICUG_clean_linker_0, # of connection points: 2
#     Edge 35, Type (0, 1), BuildingBlock: OJICUG_clean_linker_0, # of connection points: 2
#     Edge 36, Type (0, 1), BuildingBlock: OJICUG_clean_linker_0, # of connection points: 2
#     Edge 37, Type (0, 1), BuildingBlock: OJICUG_clean_linker_0, # of connection points: 2
#     Edge 38, Type (0, 1), BuildingBlock: OJICUG_clean_linker_0, # of connection points: 2
#     Edge 39, Type (0, 1), BuildingBlock: OJICUG_clean_linker_0, # of connection points: 2
#     Edge 40, Type (0, 1), BuildingBlock: OJICUG_clean_linker_0, # of connection points: 2
#     Edge 41, Type (0, 1), BuildingBlock: OJICUG_clean_linker_0, # of connection points: 2
#     Edge 42, Type (0, 1), BuildingBlock: OJICUG_clean_linker_0, # of connection points: 2
#     Edge 43, Type (0, 1), BuildingBlock: OJICUG_clean_linker_0, # of connection points: 2
#     Edge 44, Type (0, 1), BuildingBlock: OJICUG_clean_linker_0, # of connection points: 2
#     Edge 45, Type (0, 1), BuildingBlock: OJICUG_clean_linker_0, # of connection points: 2
#     Edge 46, Type (0, 1), BuildingBlock: OJICUG_clean_linker_0, # of connection points: 2
#     Edge 47, Type (0, 1), BuildingBlock: OJICUG_clean_linker_0, # of connection points: 2
#     Edge 48, Type (0, 1), BuildingBlock: OJICUG_clean_linker_0, # of connection points: 2
#     Edge 49, Type (0, 1), BuildingBlock: OJICUG_clean_linker_0, # of connection points: 2
#     Edge 50, Type (0, 1), BuildingBlock: OJICUG_clean_linker_0, # of connection points: 2
#     Edge 51, Type (0, 1), BuildingBlock: OJICUG_clean_linker_0, # of connection points: 2
#     Edge 52, Type (0, 1), BuildingBlock: OJICUG_clean_linker_0, # of connection points: 2
#     Edge 53, Type (0, 1), BuildingBlock: OJICUG_clean_linker_0, # of connection points: 2
#     Edge 54, Type (0, 1), BuildingBlock: OJICUG_clean_linker_0, # of connection points: 2
#     Edge 55, Type (0, 1), BuildingBlock: OJICUG_clean_linker_0, # of connection points: 2
#     Edge 56, Type (0, 1), BuildingBlock: OJICUG_clean_linker_0, # of connection points: 2
#     Edge 57, Type (0, 1), BuildingBlock: OJICUG_clean_linker_0, # of connection points: 2
#     Edge 58, Type (0, 1), BuildingBlock: OJICUG_clean_linker_0, # of connection points: 2
#     Edge 59, Type (0, 1), BuildingBlock: OJICUG_clean_linker_0, # of connection points: 2
#     Edge 60, Type (0, 1), BuildingBlock: OJICUG_clean_linker_0, # of connection points: 2
#     Edge 61, Type (0, 1), BuildingBlock: OJICUG_clean_linker_0, # of connection points: 2
#     Edge 62, Type (0, 1), BuildingBlock: OJICUG_clean_linker_0, # of connection points: 2
#     Edge 63, Type (0, 1), BuildingBlock: OJICUG_clean_linker_0, # of connection points: 2
#     Edge 64, Type (0, 1), BuildingBlock: OJICUG_clean_linker_0, # of connection points: 2
#     Edge 65, Type (0, 1), BuildingBlock: OJICUG_clean_linker_0, # of connection points: 2
#     Edge 66, Type (0, 1), BuildingBlock: OJICUG_clean_linker_0, # of connection points: 2
#     Edge 67, Type (0, 1), BuildingBlock: OJICUG_clean_linker_0, # of connection points: 2
#     Edge 68, Type (0, 1), BuildingBlock: OJICUG_clean_linker_0, # of connection points: 2
#     Edge 69, Type (0, 1), BuildingBlock: OJICUG_clean_linker_0, # of connection points: 2
#     Edge 70, Type (0, 1), BuildingBlock: OJICUG_clean_linker_0, # of connection points: 2
#     Edge 71, Type (0, 1), BuildingBlock: OJICUG_clean_linker_0, # of connection points: 2
#     Edge 72, Type (0, 1), BuildingBlock: OJICUG_clean_linker_0, # of connection points: 2
#     Edge 73, Type (0, 1), BuildingBlock: OJICUG_clean_linker_0, # of connection points: 2
#     Edge 74, Type (0, 1), BuildingBlock: OJICUG_clean_linker_0, # of connection points: 2
#     Edge 75, Type (0, 1), BuildingBlock: OJICUG_clean_linker_0, # of connection points: 2
#     Edge 76, Type (0, 1), BuildingBlock: OJICUG_clean_linker_0, # of connection points: 2
#     Edge 77, Type (0, 1), BuildingBlock: OJICUG_clean_linker_0, # of connection points: 2
#     Edge 78, Type (0, 1), BuildingBlock: OJICUG_clean_linker_0, # of connection points: 2
#     Edge 79, Type (0, 1), BuildingBlock: OJICUG_clean_linker_0, # of connection points: 2
#     Edge 80, Type (0, 1), BuildingBlock: OJICUG_clean_linker_0, # of connection points: 2
# Relax obj value: 0.018
# Max RMSD: 0.125
# Mean RMSD: 0.060
data_MOF--net-eea--node1-CUKXOW_clean_sbu_0--node2-MIDCAF_clean_linker_0--edge1-OJICUG_clean_linker_0
_symmetry_space_group_name_H-M    P1
_symmetry_Int_Tables_number       1
_symmetry_cell_setting            triclinic
loop_
_symmetry_equiv_pos_as_xyz
'x, y, z'
_cell_length_a     53.008887
_cell_length_b     49.754819
_cell_length_c     56.521336
_cell_angle_alpha  93.166674
_cell_angle_beta   93.224428
_cell_angle_gamma 119.98199
loop_
_atom_site_label
_atom_site_type_symbol
_atom_site_fract_x
_atom_site_fract_y
_atom_site_fract_z
_atom_type_partial_charge
C0 C 0.22076 0.02138 0.41719 0.0
C1 C 0.21268 0.01565 0.39256 0.0
C2 C 0.21508 0.04002 0.37969 0.0
C3 C 0.22493 0.06955 0.39136 0.0
H4 H 0.20483 0.14013 0.39179 0.0
H5 H 0.19142 0.1743 0.37258 0.0
H6 H 0.25204 0.25134 0.42314 0.0
H7 H 0.26571 0.21705 0.44262 0.0
H8 H 0.2656 0.17998 0.49987 0.0
H9 H 0.28645 0.18639 0.54097 0.0
H10 H 0.32345 0.12953 0.51999 0.0
H11 H 0.3017 0.12216 0.47952 0.0
H12 H 0.23699 0.05462 0.44784 0.0
H13 H 0.21937 0.003 0.42745 0.0
H14 H 0.20891 0.0361 0.36068 0.0
H15 H 0.2263 0.08784 0.38102 0.0
N16 N 0.23637 0.12653 0.41855 0.0
N17 N 0.25921 0.1626 0.45232 0.0
N18 N 0.25778 0.11457 0.45047 0.0
C19 C 0.24439 0.15465 0.43022 0.0
C20 C 0.2661 0.14258 0.46245 0.0
C21 C 0.24291 0.10636 0.42855 0.0
C22 C 0.23638 0.17583 0.41882 0.0
C23 C 0.21544 0.16435 0.39889 0.0
C24 C 0.2076 0.18387 0.3879 0.0
C25 C 0.22066 0.21542 0.39638 0.0
C26 C 0.2418 0.22711 0.41614 0.0
C27 C 0.24945 0.20744 0.42737 0.0
C28 C 0.28167 0.15021 0.48658 0.0
C29 C 0.27846 0.16918 0.50409 0.0
C30 C 0.29048 0.17288 0.52761 0.0
C31 C 0.3062 0.15798 0.53394 0.0
C32 C 0.31071 0.14054 0.516 0.0
C33 C 0.2984 0.13648 0.49271 0.0
C34 C 0.23303 0.07534 0.41605 0.0
C35 C 0.23104 0.05098 0.4288 0.0
C36 C 0.97158 0.22496 0.42385 0.0
C37 C 0.97357 0.21974 0.39946 0.0
C38 C 0.9484 0.19715 0.38521 0.0
C39 C 0.92225 0.17927 0.39521 0.0
H40 H 0.8604 0.08291 0.3918 0.0
H41 H 0.82708 0.03059 0.37219 0.0
H42 H 0.75901 0.02303 0.41461 0.0
H43 H 0.79217 0.07502 0.4344 0.0
H44 H 0.82739 0.10605 0.49039 0.0
H45 H 0.81862 0.11456 0.53106 0.0
H46 H 0.87765 0.21339 0.53098 0.0
H47 H 0.88709 0.20502 0.48982 0.0
H48 H 0.94463 0.21104 0.45282 0.0
H49 H 0.99061 0.24206 0.43537 0.0
H50 H 0.94892 0.19305 0.36627 0.0
H51 H 0.90349 0.16171 0.38367 0.0
N52 N 0.87388 0.13447 0.4181 0.0
N53 N 0.84439 0.12122 0.44956 0.0
N54 N 0.88818 0.16938 0.45255 0.0
C55 C 0.84935 0.11388 0.42756 0.0
C56 C 0.86356 0.14878 0.46222 0.0
C57 C 0.89333 0.16232 0.43034 0.0
C58 C 0.82891 0.08307 0.41466 0.0
C59 C 0.83826 0.07017 0.39681 0.0
C60 C 0.81932 0.04021 0.3857 0.0
C61 C 0.79058 0.02291 0.39194 0.0
C62 C 0.78104 0.03603 0.4094 0.0
C63 C 0.80007 0.06571 0.42077 0.0
C64 C 0.85804 0.15488 0.4868 0.0
C65 C 0.83849 0.12972 0.49882 0.0
C66 C 0.83345 0.13449 0.52215 0.0
C67 C 0.84747 0.16456 0.53401 0.0
C68 C 0.86653 0.18999 0.52204 0.0
C69 C 0.87201 0.18516 0.49863 0.0
C70 C 0.92046 0.18363 0.41972 0.0
C71 C 0.94524 0.20713 0.43387 0.0
C72 C 0.78959 0.74483 0.42768 0.0
C73 C 0.8008 0.76895 0.41257 0.0
C74 C 0.8302 0.78222 0.40781 0.0
C75 C 0.84778 0.7713 0.41749 0.0
H76 H 0.93336 0.78802 0.42326 0.0
H77 H 0.97967 0.80413 0.40628 0.0
H78 H 0.97536 0.71847 0.42304 0.0
H79 H 0.92925 0.7025 0.44066 0.0
H80 H 0.90093 0.69836 0.50092 0.0
H81 H 0.8896 0.67597 0.53889 0.0
H82 H 0.79921 0.64996 0.52344 0.0
H83 H 0.81042 0.67281 0.48547 0.0
H84 H 0.79787 0.71519 0.44889 0.0
H85 H 0.76695 0.73382 0.43152 0.0
H86 H 0.83976 0.80125 0.39666 0.0
H87 H 0.8703 0.78212 0.41332 0.0
N88 N 0.88157 0.74415 0.43381 0.0
N89 N 0.89066 0.71485 0.46047 0.0
N90 N 0.84691 0.71608 0.46002 0.0
C91 C 0.89923 0.73391 0.44268 0.0
C92 C 0.86454 0.7059 0.46929 0.0
C93 C 0.85532 0.73523 0.44224 0.0
C94 C 0.92769 0.74396 0.43322 0.0
C95 C 0.94235 0.77268 0.42346 0.0
C96 C 0.96888 0.782 0.41387 0.0
C97 C 0.9809 0.76248 0.41341 0.0
C98 C 0.96638 0.73382 0.42321 0.0
C99 C 0.94014 0.72479 0.43332 0.0
C100 C 0.85664 0.68776 0.49029 0.0
C101 C 0.87849 0.6873 0.50529 0.0
C102 C 0.87206 0.67448 0.52703 0.0
C103 C 0.84359 0.66133 0.53398 0.0
C104 C 0.82129 0.65976 0.51832 0.0
C105 C 0.82779 0.67307 0.49672 0.0
C106 C 0.83653 0.74695 0.43238 0.0
C107 C 0.80728 0.73401 0.43754 0.0
C108 C 0.03149 0.26126 0.58711 0.0
C109 C 0.02252 0.23803 0.60302 0.0
C110 C 0.03973 0.22435 0.6074 0.0
C111 C 0.06546 0.23393 0.59653 0.0
H112 H 0.13162 0.21798 0.59538 0.0
H113 H 0.1624 0.19886 0.61132 0.0
H114 H 0.23607 0.27053 0.57989 0.0
H115 H 0.20476 0.28917 0.56309 0.0
H116 H 0.18932 0.33044 0.52604 0.0
H117 H 0.19985 0.35312 0.48805 0.0
H118 H 0.10837 0.32227 0.47183 0.0
H119 H 0.09772 0.29985 0.50993 0.0
H120 H 0.06375 0.28892 0.56412 0.0
H121 H 0.01885 0.27247 0.58348 0.0
H122 H 0.03319 0.20591 0.61909 0.0
H123 H 0.07804 0.22273 0.60046 0.0
N124 N 0.12105 0.25826 0.57833 0.0
N125 N 0.15396 0.28559 0.55086 0.0
N126 N 0.10982 0.28603 0.55167 0.0
C127 C 0.1467 0.26701 0.56897 0.0
C128 C 0.13559 0.29513 0.54205 0.0
C129 C 0.10255 0.26769 0.57 0.0
C130 C 0.16579 0.25533 0.57812 0.0
C131 C 0.15438 0.22977 0.59182 0.0
C132 C 0.1721 0.21883 0.60109 0.0
C133 C 0.20183 0.23336 0.59716 0.0
C134 C 0.2132 0.25862 0.58309 0.0
C135 C 0.19531 0.26942 0.57357 0.0
C136 C 0.14262 0.313 0.52089 0.0
C137 C 0.17151 0.329 0.5146 0.0
C138 C 0.17762 0.34224 0.49295 0.0
C139 C 0.1549 0.33932 0.47703 0.0
C140 C 0.12626 0.32477 0.48382 0.0
C141 C 0.12021 0.31198 0.50564 0.0
C142 C 0.07467 0.25735 0.58082 0.0
C143 C 0.05727 0.27077 0.57607 0.0
C144 C 0.75463 0.77034 0.59452 0.0
C145 C 0.7758 0.78253 0.61428 0.0
C146 C 0.78814 0.81399 0.62275 0.0
C147 C 0.77941 0.83287 0.61187 0.0
H148 H 0.78372 0.91444 0.62555 0.0
H149 H 0.79892 0.96473 0.64706 0.0
H150 H 0.74232 0.97835 0.59741 0.0
H151 H 0.72692 0.92793 0.57575 0.0
H152 H 0.69108 0.87385 0.53133 0.0
H153 H 0.67171 0.86787 0.49023 0.0
H154 H 0.71142 0.81332 0.47042 0.0
H155 H 0.72986 0.8183 0.51202 0.0
H156 H 0.72968 0.77943 0.56824 0.0
H157 H 0.74494 0.74617 0.58752 0.0
H158 H 0.80434 0.82395 0.63804 0.0
H159 H 0.78939 0.85701 0.61904 0.0
N160 N 0.75457 0.868 0.59401 0.0
N161 N 0.73213 0.87986 0.56278 0.0
N162 N 0.73469 0.83399 0.55897 0.0
C163 C 0.74634 0.8874 0.58497 0.0
C164 C 0.72627 0.8533 0.54963 0.0
C165 C 0.74875 0.84125 0.58133 0.0
C166 C 0.75417 0.91715 0.5988 0.0
C167 C 0.77426 0.92795 0.61926 0.0
C168 C 0.78311 0.95683 0.63157 0.0
C169 C 0.77185 0.97543 0.62387 0.0
C170 C 0.75116 0.96433 0.60385 0.0
C171 C 0.7425 0.93555 0.59136 0.0
C172 C 0.71224 0.84679 0.52493 0.0
C173 C 0.6955 0.86034 0.51826 0.0
C174 C 0.68455 0.85709 0.4946 0.0
C175 C 0.69043 0.84062 0.47681 0.0
C176 C 0.70628 0.82603 0.48361 0.0
C177 C 0.71693 0.82894 0.50746 0.0
C178 C 0.75826 0.82087 0.59208 0.0
C179 C 0.74608 0.78941 0.58339 0.0
C180 C 0.21773 0.96565 0.59475 0.0
C181 C 0.2088 0.97909 0.61249 0.0
C182 C 0.17985 0.96263 0.61843 0.0
C183 C 0.16011 0.93332 0.60672 0.0
H184 H 0.09181 0.84628 0.61857 0.0
H185 H 0.0473 0.81509 0.63693 0.0
H186 H 0.00437 0.76296 0.56898 0.0
H187 H 0.04968 0.79399 0.55047 0.0
H188 H 0.09398 0.82085 0.5017 0.0
H189 H 0.10631 0.81497 0.46131 0.0
H190 H 0.19805 0.8634 0.48714 0.0
H191 H 0.18582 0.87027 0.52687 0.0
H192 H 0.20531 0.92696 0.56897 0.0
H193 H 0.2399 0.978 0.58976 0.0
H194 H 0.17252 0.97243 0.63216 0.0
H195 H 0.13787 0.92133 0.61159 0.0
N196 N 0.12196 0.87064 0.58432 0.0
N197 N 0.10675 0.83519 0.55014 0.0
N198 N 0.15266 0.88125 0.55385 0.0
C199 C 0.10159 0.84326 0.57204 0.0
C200 C 0.13251 0.85415 0.54109 0.0
C201 C 0.14744 0.88978 0.57538 0.0
C202 C 0.07431 0.82289 0.58293 0.0
C203 C 0.07296 0.82822 0.60741 0.0
C204 C 0.0473 0.81038 0.61799 0.0
C205 C 0.02207 0.7868 0.60441 0.0
C206 C 0.02348 0.78086 0.58 0.0
C207 C 0.04939 0.79869 0.56936 0.0
C208 C 0.13895 0.84639 0.51735 0.0
C209 C 0.11671 0.82986 0.49869 0.0
C210 C 0.1238 0.82647 0.47558 0.0
C211 C 0.15325 0.83925 0.47083 0.0
C212 C 0.17522 0.85413 0.48991 0.0
C213 C 0.16819 0.85788 0.51278 0.0
C214 C 0.16882 0.92009 0.58859 0.0
C215 C 0.19788 0.93653 0.58279 0.0
C216 C 0.91807 0.36717 0.73458 0.0
C217 C 0.89686 0.35605 0.71494 0.0
C218 C 0.88578 0.37485 0.70737 0.0
C219 C 0.89535 0.40404 0.71948 0.0
H220 H 0.91785 0.49865 0.71038 0.0
H221 H 0.90066 0.53055 0.6921 0.0
H222 H 0.8933 0.56481 0.7617 0.0
H223 H 0.91081 0.53296 0.78019 0.0
H224 H 0.95115 0.52259 0.82454 0.0
H225 H 0.97057 0.52954 0.86608 0.0
H226 H 0.98239 0.45031 0.85334 0.0
H227 H 0.96361 0.44365 0.81202 0.0
H228 H 0.94329 0.4038 0.76229 0.0
H229 H 0.92678 0.35298 0.7409 0.0
H230 H 0.86953 0.36686 0.69218 0.0
H231 H 0.88601 0.41776 0.71342 0.0
N232 N 0.91775 0.46518 0.74433 0.0
N233 N 0.93584 0.49741 0.78033 0.0
N234 N 0.93671 0.45066 0.77631 0.0
C235 C 0.92361 0.49168 0.75743 0.0
C236 C 0.94269 0.477 0.78982 0.0
C237 C 0.92415 0.44453 0.75362 0.0
C238 C 0.91556 0.51319 0.74675 0.0
C239 C 0.91278 0.51314 0.72184 0.0
C240 C 0.90308 0.53151 0.71134 0.0
C241 C 0.89552 0.54998 0.72548 0.0
C242 C 0.89877 0.55053 0.7504 0.0
C243 C 0.90898 0.53251 0.76097 0.0
C244 C 0.95567 0.48249 0.81486 0.0
C245 C 0.95811 0.50681 0.83054 0.0
C246 C 0.9691 0.5107 0.8544 0.0
C247 C 0.97806 0.49048 0.86304 0.0
C248 C 0.97609 0.46658 0.84723 0.0
C249 C 0.96505 0.46262 0.8235 0.0
C250 C 0.91589 0.41479 0.73964 0.0
C251 C 0.92737 0.39617 0.74691 0.0
C252 C 0.63439 0.5531 0.75642 0.0
C253 C 0.64507 0.53882 0.74086 0.0
C254 C 0.63019 0.50609 0.73733 0.0
C255 C 0.60468 0.48817 0.74812 0.0
H256 H 0.52887 0.40527 0.73254 0.0
H257 H 0.49416 0.35484 0.71113 0.0
H258 H 0.42524 0.35109 0.75057 0.0
H259 H 0.45984 0.40155 0.77209 0.0
H260 H 0.47723 0.45566 0.81454 0.0
H261 H 0.46405 0.4634 0.85373 0.0
H262 H 0.55563 0.51795 0.87973 0.0
H263 H 0.56887 0.51103 0.84002 0.0
H264 H 0.60084 0.54667 0.77892 0.0
H265 H 0.6451 0.57823 0.75946 0.0
H266 H 0.63816 0.49414 0.72612 0.0
H267 H 0.59354 0.46303 0.74459 0.0
N268 N 0.54512 0.45565 0.76004 0.0
N269 N 0.51182 0.44699 0.78817 0.0
N270 N 0.55826 0.49229 0.79317 0.0
C271 C 0.51845 0.43755 0.76766 0.0
C272 C 0.53156 0.47415 0.8011 0.0
C273 C 0.56505 0.48308 0.7725 0.0
C274 C 0.49716 0.40744 0.7541 0.0
C275 C 0.5063 0.39384 0.73659 0.0
C276 C 0.48649 0.36488 0.72439 0.0
C277 C 0.45707 0.3491 0.72923 0.0
C278 C 0.44777 0.3629 0.74637 0.0
C279 C 0.46764 0.3917 0.75879 0.0
C280 C 0.52411 0.48246 0.82422 0.0
C281 C 0.49461 0.4696 0.82853 0.0
C282 C 0.48703 0.47386 0.85109 0.0
C283 C 0.50873 0.49076 0.87008 0.0
C284 C 0.53833 0.5049 0.86552 0.0
C285 C 0.54594 0.5009 0.84276 0.0
C286 C 0.59357 0.50242 0.76309 0.0
C287 C 0.60899 0.53505 0.76757 0.0
C288 C 0.45463 0.07388 0.75826 0.0
C289 C 0.46518 0.09733 0.74253 0.0
C290 C 0.49449 0.11089 0.73751 0.0
C291 C 0.51265 0.10093 0.74753 0.0
H292 H 0.5923 0.11335 0.74429 0.0
H293 H 0.63672 0.12915 0.72521 0.0
H294 H 0.64791 0.05899 0.75824 0.0
H295 H 0.60356 0.04375 0.77816 0.0
H296 H 0.57247 0.04018 0.83564 0.0
H297 H 0.56225 0.01973 0.87447 0.0
H298 H 0.47027 0.98571 0.85732 0.0
H299 H 0.48036 0.00643 0.8186 0.0
H300 H 0.46415 0.04579 0.78039 0.0
H301 H 0.43208 0.0627 0.76234 0.0
H302 H 0.50358 0.12949 0.72594 0.0
H303 H 0.5351 0.11203 0.74317 0.0
N304 N 0.54745 0.07542 0.76413 0.0
N305 N 0.55961 0.05026 0.79261 0.0
N306 N 0.51501 0.04987 0.79238 0.0
C307 C 0.5664 0.06714 0.77344 0.0
C308 C 0.53386 0.04151 0.80215 0.0
C309 C 0.52177 0.06694 0.77337 0.0
C310 C 0.59423 0.07712 0.76268 0.0
C311 C 0.60415 0.1012 0.74755 0.0
C312 C 0.62961 0.11017 0.73643 0.0
C313 C 0.64577 0.09511 0.73989 0.0
C314 C 0.63613 0.07128 0.75531 0.0
C315 C 0.61068 0.06246 0.76668 0.0
C316 C 0.52727 0.02523 0.82412 0.0
C317 C 0.54999 0.02783 0.83993 0.0
C318 C 0.54419 0.0162 0.86218 0.0
C319 C 0.5155 0.00123 0.86887 0.0
C320 C 0.49255 0.99694 0.85252 0.0
C321 C 0.4984 0.00903 0.83044 0.0
C322 C 0.50212 0.07733 0.76309 0.0
C323 C 0.47296 0.06406 0.76852 0.0
C324 C 0.689 0.57819 0.90992 0.0
C325 C 0.68612 0.57043 0.9336 0.0
C326 C 0.71094 0.57492 0.94759 0.0
C327 C 0.73772 0.58616 0.93808 0.0
H328 H 0.80082 0.55826 0.93227 0.0
H329 H 0.83289 0.54109 0.94886 0.0
H330 H 0.90668 0.61833 0.92175 0.0
H331 H 0.87397 0.63451 0.90393 0.0
H332 H 0.85482 0.66635 0.8596 0.0
H333 H 0.86473 0.68555 0.82034 0.0
H334 H 0.77214 0.64547 0.80124 0.0
H335 H 0.76207 0.62658 0.84056 0.0
H336 H 0.71743 0.5952 0.8821 0.0
H337 H 0.67031 0.57473 0.89853 0.0
H338 H 0.70982 0.57002 0.96606 0.0
H339 H 0.75628 0.58916 0.94942 0.0
N340 N 0.78868 0.59798 0.91488 0.0
N341 N 0.82107 0.62309 0.88644 0.0
N342 N 0.77516 0.6198 0.88447 0.0
C343 C 0.81471 0.60714 0.90605 0.0
C344 C 0.80138 0.62949 0.87554 0.0
C345 C 0.76889 0.60437 0.90438 0.0
C346 C 0.83488 0.59782 0.91685 0.0
C347 C 0.82392 0.5717 0.92992 0.0
C348 C 0.84243 0.56193 0.93959 0.0
C349 C 0.87254 0.57839 0.93686 0.0
C350 C 0.88357 0.60475 0.92392 0.0
C351 C 0.86488 0.6142 0.91384 0.0
C352 C 0.80764 0.64466 0.8531 0.0
C353 C 0.83659 0.66209 0.84718 0.0
C354 C 0.84232 0.67332 0.82481 0.0
C355 C 0.81918 0.66689 0.80784 0.0
C356 C 0.79033 0.65068 0.81407 0.0
C357 C 0.78462 0.63992 0.83658 0.0
C358 C 0.74055 0.59363 0.9144 0.0
C359 C 0.71599 0.58985 0.90046 0.0
C360 C 0.43795 0.11415 0.92213 0.0
C361 C 0.44088 0.11587 0.94713 0.0
C362 C 0.43391 0.13559 0.96031 0.0
C363 C 0.42531 0.15423 0.94875 0.0
H364 H 0.45912 0.25386 0.95199 0.0
H365 H 0.4743 0.30524 0.97207 0.0
H366 H 0.41283 0.31334 0.92392 0.0
H367 H 0.39788 0.26231 0.90358 0.0
H368 H 0.41453 0.23347 0.84629 0.0
H369 H 0.39405 0.22614 0.80547 0.0
H370 H 0.34023 0.12717 0.81099 0.0
H371 H 0.36224 0.13457 0.85185 0.0
H372 H 0.4274 0.13112 0.89126 0.0
H373 H 0.44298 0.09889 0.91158 0.0
H374 H 0.43607 0.13739 0.97959 0.0
H375 H 0.42083 0.16983 0.95944 0.0
N376 N 0.42352 0.20262 0.92393 0.0
N377 N 0.40805 0.2175 0.89008 0.0
N378 N 0.40551 0.16895 0.88857 0.0
C379 C 0.41915 0.22385 0.91319 0.0
C380 C 0.40116 0.19021 0.87765 0.0
C381 C 0.4167 0.17512 0.91182 0.0
C382 C 0.42735 0.2541 0.92618 0.0
C383 C 0.44872 0.26652 0.94579 0.0
C384 C 0.45753 0.29592 0.95719 0.0
C385 C 0.4447 0.31309 0.94949 0.0
C386 C 0.4229 0.30041 0.93025 0.0
C387 C 0.41448 0.27131 0.91857 0.0
C388 C 0.38975 0.18463 0.85232 0.0
C389 C 0.39843 0.2101 0.83877 0.0
C390 C 0.38645 0.20588 0.81536 0.0
C391 C 0.36489 0.17614 0.80497 0.0
C392 C 0.35683 0.15041 0.81832 0.0
C393 C 0.36934 0.1546 0.84175 0.0
C394 C 0.42306 0.15314 0.92375 0.0
C395 C 0.42885 0.13241 0.91052 0.0
C396 C 0.87588 0.3097 0.91967 0.0
C397 C 0.87504 0.31702 0.94386 0.0
C398 C 0.85556 0.29355 0.95712 0.0
C399 C 0.83694 0.26339 0.94631 0.0
H400 H 0.76368 0.1816 0.95627 0.0
H401 H 0.71925 0.15115 0.97518 0.0
H402 H 0.67613 0.09616 0.90819 0.0
H403 H 0.72114 0.12622 0.88929 0.0
H404 H 0.76162 0.14924 0.84068 0.0
H405 H 0.77126 0.13908 0.80017 0.0
H406 H 0.86414 0.19207 0.82111 0.0
H407 H 0.85467 0.20288 0.86132 0.0
H408 H 0.85859 0.27456 0.8902 0.0
H409 H 0.89095 0.32733 0.90913 0.0
H410 H 0.85444 0.29864 0.97579 0.0
H411 H 0.82196 0.24589 0.95698 0.0
N412 N 0.79273 0.20502 0.92069 0.0
N413 N 0.77731 0.16745 0.88794 0.0
N414 N 0.82173 0.21483 0.88898 0.0
C415 C 0.77273 0.17659 0.90965 0.0
C416 C 0.80205 0.18641 0.87768 0.0
C417 C 0.81714 0.22435 0.91044 0.0
C418 C 0.74594 0.15653 0.92118 0.0
C419 C 0.74479 0.16296 0.94551 0.0
C420 C 0.71921 0.14558 0.95637 0.0
C421 C 0.69395 0.12143 0.94317 0.0
C422 C 0.69525 0.11443 0.91895 0.0
C423 C 0.72103 0.13173 0.90808 0.0
C424 C 0.8074 0.17704 0.85407 0.0
C425 C 0.78406 0.1583 0.8367 0.0
C426 C 0.78954 0.15255 0.81357 0.0
C427 C 0.81843 0.16478 0.80764 0.0
C428 C 0.84169 0.18218 0.82532 0.0
C429 C 0.83624 0.18853 0.84824 0.0
C430 C 0.8377 0.25599 0.92208 0.0
C431 C 0.85754 0.27942 0.90892 0.0
C432 C 0.5703 0.69451 0.08175 0.0
C433 C 0.54931 0.68215 0.06194 0.0
C434 C 0.53665 0.69934 0.05392 0.0
C435 C 0.54492 0.72849 0.0655 0.0
H436 H 0.54002 0.80561 0.05807 0.0
H437 H 0.52713 0.8393 0.03764 0.0
H438 H 0.58232 0.91576 0.09061 0.0
H439 H 0.59549 0.88187 0.11141 0.0
H440 H 0.6342 0.86247 0.15758 0.0
H441 H 0.65744 0.8705 0.19813 0.0
H442 H 0.60216 0.77225 0.20553 0.0
H443 H 0.58038 0.76425 0.1651 0.0
H444 H 0.59434 0.73222 0.1089 0.0
H445 H 0.58019 0.68154 0.08837 0.0
H446 H 0.52051 0.69031 0.0386 0.0
H447 H 0.53474 0.7412 0.05894 0.0
N448 N 0.56861 0.79171 0.08739 0.0
N449 N 0.58872 0.82717 0.12173 0.0
N450 N 0.5862 0.7786 0.121 0.0
C451 C 0.57597 0.81974 0.09886 0.0
C452 C 0.59364 0.80639 0.1329 0.0
C453 C 0.57385 0.77116 0.09823 0.0
C454 C 0.56882 0.84098 0.08649 0.0
C455 C 0.54962 0.82962 0.06546 0.0
C456 C 0.54205 0.84886 0.05373 0.0
C457 C 0.55364 0.88008 0.06256 0.0
C458 C 0.57321 0.89178 0.08335 0.0
C459 C 0.58059 0.87234 0.09532 0.0
C460 C 0.60585 0.81268 0.15808 0.0
C461 C 0.62704 0.84275 0.16804 0.0
C462 C 0.64027 0.8473 0.19128 0.0
C463 C 0.63217 0.8219 0.20503 0.0
C464 C 0.60982 0.7922 0.19529 0.0
C465 C 0.5971 0.78763 0.1721 0.0
C466 C 0.56563 0.74071 0.08556 0.0
C467 C 0.57823 0.7234 0.09357 0.0
C468 C 0.30099 0.89038 0.08838 0.0
C469 C 0.3117 0.87672 0.07228 0.0
C470 C 0.29683 0.84405 0.06804 0.0
C471 C 0.27144 0.82563 0.07881 0.0
H472 H 0.18405 0.75385 0.05337 0.0
H473 H 0.15047 0.70274 0.03202 0.0
H474 H 0.10988 0.67005 0.09657 0.0
H475 H 0.14307 0.72109 0.11792 0.0
H476 H 0.14493 0.78904 0.14685 0.0
H477 H 0.13097 0.79677 0.18566 0.0
H478 H 0.22219 0.85345 0.21228 0.0
H479 H 0.23621 0.84651 0.17282 0.0
H480 H 0.2676 0.88297 0.11139 0.0
H481 H 0.31171 0.91547 0.09199 0.0
H482 H 0.30479 0.83252 0.05639 0.0
H483 H 0.26045 0.80056 0.07482 0.0
N484 N 0.21278 0.79134 0.09211 0.0
N485 N 0.18044 0.78098 0.1213 0.0
N486 N 0.22559 0.82791 0.12528 0.0
C487 C 0.18688 0.77213 0.10047 0.0
C488 C 0.19951 0.80875 0.1338 0.0
C489 C 0.23226 0.81919 0.10431 0.0
C490 C 0.16623 0.7415 0.08735 0.0
C491 C 0.16794 0.73578 0.063 0.0
C492 C 0.14868 0.70664 0.05075 0.0
C493 C 0.12776 0.68255 0.06272 0.0
C494 C 0.12602 0.68823 0.08701 0.0
C495 C 0.1449 0.71749 0.09916 0.0
C496 C 0.1917 0.81688 0.15682 0.0
C497 C 0.16207 0.8034 0.1609 0.0
C498 C 0.15405 0.80767 0.18325 0.0
C499 C 0.17541 0.82519 0.20231 0.0
C500 C 0.20513 0.83989 0.198 0.0
C501 C 0.2132 0.8359 0.17541 0.0
C502 C 0.26037 0.83924 0.09446 0.0
C503 C 0.27568 0.8718 0.09949 0.0
C504 C 0.11663 0.40323 0.09058 0.0
C505 C 0.12673 0.42587 0.07419 0.0
C506 C 0.15595 0.43939 0.06894 0.0
C507 C 0.17449 0.43022 0.07943 0.0
H508 H 0.25521 0.44535 0.07755 0.0
H509 H 0.30117 0.46307 0.06039 0.0
H510 H 0.31593 0.39846 0.09853 0.0
H511 H 0.27006 0.38128 0.11644 0.0
H512 H 0.23618 0.37191 0.16879 0.0
H513 H 0.22686 0.35192 0.20772 0.0
H514 H 0.13501 0.32015 0.19273 0.0
H515 H 0.14417 0.34038 0.15378 0.0
H516 H 0.12691 0.37659 0.11373 0.0
H517 H 0.09416 0.39214 0.09487 0.0
H518 H 0.16472 0.45741 0.05687 0.0
H519 H 0.19686 0.44131 0.07487 0.0
N520 N 0.21084 0.4077 0.09803 0.0
N521 N 0.22347 0.38382 0.12724 0.0
N522 N 0.17792 0.38132 0.1258 0.0
C523 C 0.2303 0.40057 0.10805 0.0
C524 C 0.19728 0.37408 0.1362 0.0
C525 C 0.18465 0.39821 0.10667 0.0
C526 C 0.25881 0.41169 0.09826 0.0
C527 C 0.26819 0.43485 0.08234 0.0
C528 C 0.29454 0.44495 0.07238 0.0
C529 C 0.31211 0.43196 0.07785 0.0
C530 C 0.30303 0.40915 0.09409 0.0
C531 C 0.27668 0.3992 0.10427 0.0
C532 C 0.19096 0.35809 0.15828 0.0
C533 C 0.21388 0.36017 0.17354 0.0
C534 C 0.20861 0.34878 0.19585 0.0
C535 C 0.18027 0.33462 0.20317 0.0
C536 C 0.15703 0.33078 0.1874 0.0
C537 C 0.16235 0.3426 0.1652 0.0
C538 C 0.16446 0.40749 0.0957 0.0
C539 C 0.13535 0.39419 0.1013 0.0
C540 C 0.36261 0.92731 0.24995 0.0
C541 C 0.35247 0.90369 0.26552 0.0
C542 C 0.36917 0.88959 0.27065 0.0
C543 C 0.39568 0.89937 0.26101 0.0
H544 H 0.46515 0.88836 0.26686 0.0
H545 H 0.49599 0.8699 0.28389 0.0
H546 H 0.56891 0.93831 0.24966 0.0
H547 H 0.53756 0.95616 0.23179 0.0
H548 H 0.52269 0.99587 0.19291 0.0
H549 H 0.53336 0.0173 0.15439 0.0
H550 H 0.44178 0.98503 0.13709 0.0
H551 H 0.43097 0.96405 0.17562 0.0
H552 H 0.39654 0.95548 0.22844 0.0
H553 H 0.35041 0.93886 0.24579 0.0
H554 H 0.36172 0.87083 0.2821 0.0
H555 H 0.40794 0.88799 0.26552 0.0
N556 N 0.45334 0.92547 0.24593 0.0
N557 N 0.48723 0.95248 0.21895 0.0
N558 N 0.44245 0.95167 0.21758 0.0
C559 C 0.4796 0.9346 0.23751 0.0
C560 C 0.46871 0.96105 0.20886 0.0
C561 C 0.43471 0.93398 0.23623 0.0
C562 C 0.49889 0.92387 0.24799 0.0
C563 C 0.48777 0.8996 0.26295 0.0
C564 C 0.50555 0.88906 0.27286 0.0
C565 C 0.53503 0.90272 0.26832 0.0
C566 C 0.5462 0.92698 0.25331 0.0
C567 C 0.52828 0.93735 0.24317 0.0
C568 C 0.47593 0.97795 0.18723 0.0
C569 C 0.5049 0.99388 0.1811 0.0
C570 C 0.51108 0.00637 0.15917 0.0
C571 C 0.48835 0.00271 0.14289 0.0
C572 C 0.45964 0.98814 0.14943 0.0
C573 C 0.45351 0.97615 0.17149 0.0
C574 C 0.4061 0.9233 0.24575 0.0
C575 C 0.38912 0.93695 0.24009 0.0
C576 C 0.10666 0.45047 0.25475 0.0
C577 C 0.10977 0.45234 0.27976 0.0
C578 C 0.10283 0.4721 0.29292 0.0
C579 C 0.0939 0.49045 0.28135 0.0
H580 H 0.1019 0.57743 0.29364 0.0
H581 H 0.11918 0.62931 0.31369 0.0
H582 H 0.10595 0.66087 0.24698 0.0
H583 H 0.08867 0.60934 0.2269 0.0
H584 H 0.03258 0.54648 0.19193 0.0
H585 H 0.01322 0.54008 0.15089 0.0
H586 H 0.04774 0.4801 0.13241 0.0
H587 H 0.06655 0.4858 0.17417 0.0
H588 H 0.09546 0.46697 0.22385 0.0
H589 H 0.11167 0.43519 0.2442 0.0
H590 H 0.10516 0.47407 0.31221 0.0
H591 H 0.08931 0.50596 0.29206 0.0
N592 N 0.09053 0.53788 0.25654 0.0
N593 N 0.07221 0.55108 0.22339 0.0
N594 N 0.07161 0.50351 0.22152 0.0
C595 C 0.08493 0.55843 0.24605 0.0
C596 C 0.0653 0.52373 0.21102 0.0
C597 C 0.08397 0.51043 0.24447 0.0
C598 C 0.09397 0.58922 0.25864 0.0
C599 C 0.10257 0.5954 0.28326 0.0
C600 C 0.11237 0.62502 0.29477 0.0
C601 C 0.11411 0.64908 0.28181 0.0
C602 C 0.10518 0.64282 0.25731 0.0
C603 C 0.09508 0.6132 0.24587 0.0
C604 C 0.05146 0.51698 0.18627 0.0
C605 C 0.036 0.53178 0.1792 0.0
C606 C 0.02501 0.52826 0.15558 0.0
C607 C 0.02947 0.51015 0.1382 0.0
C608 C 0.0439 0.49421 0.14536 0.0
C609 C 0.05471 0.4975 0.16925 0.0
C610 C 0.09126 0.48907 0.25634 0.0
C611 C 0.09721 0.46846 0.24312 0.0
C612 C 0.54777 0.64267 0.25686 0.0
C613 C 0.5474 0.64906 0.2813 0.0
C614 C 0.52771 0.6252 0.29418 0.0
C615 C 0.5081 0.59566 0.28263 0.0
H616 H 0.43211 0.51515 0.29 0.0
H617 H 0.38751 0.48501 0.30868 0.0
H618 H 0.34336 0.43307 0.24094 0.0
H619 H 0.38859 0.46298 0.22214 0.0
H620 H 0.43091 0.48623 0.17292 0.0
H621 H 0.442 0.47931 0.1322 0.0
H622 H 0.53446 0.53414 0.15513 0.0
H623 H 0.52347 0.54177 0.19511 0.0
H624 H 0.52919 0.60908 0.22647 0.0
H625 H 0.56295 0.66063 0.2466 0.0
H626 H 0.52697 0.62963 0.31303 0.0
H627 H 0.49279 0.57786 0.29292 0.0
N628 N 0.4618 0.53929 0.25521 0.0
N629 N 0.44532 0.50376 0.22091 0.0
N630 N 0.49075 0.55021 0.22348 0.0
C631 C 0.44105 0.51184 0.24318 0.0
C632 C 0.47047 0.52286 0.21113 0.0
C633 C 0.48658 0.55866 0.24545 0.0
C634 C 0.41395 0.49173 0.25445 0.0
C635 C 0.41298 0.49729 0.27898 0.0
C636 C 0.38727 0.48006 0.28974 0.0
C637 C 0.36166 0.45687 0.2763 0.0
C638 C 0.36274 0.45064 0.25187 0.0
C639 C 0.38865 0.46785 0.24106 0.0
C640 C 0.47629 0.51494 0.18714 0.0
C641 C 0.45356 0.49648 0.16921 0.0
C642 C 0.45993 0.4925 0.14592 0.0
C643 C 0.48915 0.5067 0.14026 0.0
C644 C 0.51172 0.52368 0.1586 0.0
C645 C 0.50539 0.5279 0.18163 0.0
C646 C 0.50819 0.58935 0.25807 0.0
C647 C 0.52853 0.61308 0.2454 0.0
Tb648 Tb 0.53354 0.02641 0.00378 0.0
C649 C 0.51699 0.95843 0.01797 0.0
Tb650 Tb 0.46845 0.97686 0.00763 0.0
O651 O 0.53748 0.04972 0.03928 0.0
O652 O 0.50723 0.00298 0.03052 0.0
O653 O 0.53685 0.985 0.01015 0.0
C654 C 0.41665 0.94785 0.02533 0.0
O655 O 0.48972 0.95182 0.02061 0.0
C656 C 0.48735 0.97782 0.96543 0.0
C657 C 0.48468 0.04421 0.99275 0.0
O658 O 0.42381 0.93709 0.00698 0.0
O659 O 0.43844 0.97501 0.03337 0.0
O660 O 0.46474 0.95348 0.97213 0.0
O661 O 0.49493 0.00015 0.98092 0.0
O662 O 0.46528 0.01847 0.00181 0.0
O663 O 0.51148 0.04993 0.98917 0.0
C664 C 0.58575 0.05565 0.98697 0.0
O665 O 0.57635 0.06815 0.00236 0.0
O666 O 0.56592 0.02666 0.98133 0.0
C667 C 0.51504 0.02532 0.04606 0.0
Tb668 Tb 0.98072 0.51438 0.99565 0.0
C669 C 0.04536 0.56041 0.01654 0.0
Tb670 Tb 0.02085 0.48752 0.00754 0.0
O671 O 0.98287 0.52849 0.03339 0.0
O672 O 0.98661 0.48995 0.02295 0.0
O673 O 0.02246 0.55746 0.00331 0.0
C674 C 0.05414 0.46815 0.02899 0.0
O675 O 0.04796 0.53621 0.02198 0.0
C676 C 0.01339 0.49375 0.96237 0.0
C677 C 0.95675 0.44155 0.98632 0.0
O678 O 0.0316 0.46754 0.03733 0.0
O679 O 0.05807 0.47983 0.00865 0.0
O680 O 0.0205 0.47401 0.9699 0.0
O681 O 0.01438 0.51122 0.97989 0.0
O682 O 0.97917 0.44465 1.00032 0.0
O683 O 0.9546 0.46579 0.98002 0.0
C684 C 0.94659 0.5344 0.97679 0.0
O685 O 0.93971 0.51508 0.99304 0.0
O686 O 0.97261 0.54237 0.97108 0.0
C687 C 0.98829 0.50745 0.04064 0.0
Tb688 Tb 0.46631 0.4865 0.01054 0.0
C689 C 0.48158 0.43742 0.99026 0.0
Tb690 Tb 0.52984 0.50968 0.99928 0.0
O691 O 0.45094 0.4732 0.9727 0.0
O692 O 0.49303 0.51019 0.98366 0.0
O693 O 0.46368 0.44194 0.00323 0.0
C694 C 0.57788 0.52614 0.97717 0.0
O695 O 0.5069 0.46063 0.98471 0.0
C696 C 0.52027 0.50256 0.04404 0.0
C697 C 0.51434 0.55891 0.01977 0.0
O698 O 0.57046 0.50916 0.99499 0.0
O699 O 0.55834 0.5338 0.97193 0.0
O700 O 0.54543 0.52244 0.03715 0.0
O701 O 0.50317 0.48602 0.02611 0.0
O702 O 0.53337 0.55442 0.00839 0.0
O703 O 0.48806 0.53588 0.02364 0.0
C704 C 0.4181 0.47072 0.03215 0.0
O705 O 0.44122 0.47107 0.04133 0.0
O706 O 0.4221 0.47936 0.01078 0.0
C707 C 0.47592 0.49345 0.96579 0.0
Tb708 Tb 0.20179 0.36305 0.33837 0.0
C709 C 0.18495 0.29561 0.35372 0.0
Tb710 Tb 0.13657 0.31396 0.34241 0.0
O711 O 0.20579 0.38697 0.37373 0.0
O712 O 0.17521 0.34038 0.36526 0.0
O713 O 0.20475 0.32156 0.34512 0.0
C714 C 0.08402 0.28502 0.35877 0.0
O715 O 0.15802 0.28982 0.35688 0.0
C716 C 0.15526 0.31365 0.30035 0.0
C717 C 0.15319 0.38096 0.32648 0.0
O718 O 0.09342 0.27254 0.34337 0.0
O719 O 0.10408 0.31384 0.36473 0.0
O720 O 0.13241 0.28982 0.30723 0.0
O721 O 0.16312 0.33636 0.31552 0.0
O722 O 0.13375 0.35559 0.33588 0.0
O723 O 0.17995 0.38643 0.32306 0.0
C724 C 0.25395 0.39182 0.32119 0.0
O725 O 0.24477 0.40456 0.33659 0.0
O726 O 0.23397 0.36282 0.31584 0.0
C727 C 0.18303 0.36293 0.38056 0.0
Tb728 Tb 0.64585 0.84576 0.33297 0.0
C729 C 0.70937 0.89658 0.3529 0.0
Tb730 Tb 0.68978 0.82435 0.34587 0.0
O731 O 0.64679 0.85961 0.37052 0.0
O732 O 0.65336 0.82266 0.3606 0.0
O733 O 0.68517 0.89096 0.34012 0.0
C734 C 0.72655 0.80982 0.36803 0.0
O735 O 0.71462 0.87411 0.35865 0.0
C736 C 0.6825 0.8308 0.30074 0.0
C737 C 0.62673 0.77401 0.3245 0.0
O738 O 0.70444 0.80954 0.37697 0.0
O739 O 0.72808 0.8185 0.34667 0.0
O740 O 0.68955 0.81101 0.3083 0.0
O741 O 0.68228 0.84737 0.31832 0.0
O742 O 0.65012 0.77911 0.33829 0.0
O743 O 0.62216 0.79681 0.31852 0.0
C744 C 0.60875 0.86042 0.31163 0.0
O745 O 0.63201 0.86312 0.30316 0.0
O746 O 0.60616 0.8492 0.33212 0.0
C747 C 0.65361 0.83967 0.37807 0.0
Tb748 Tb 0.13242 0.81884 0.34218 0.0
C749 C 0.15244 0.77344 0.32349 0.0
Tb750 Tb 0.19598 0.8463 0.33025 0.0
O751 O 0.11597 0.80785 0.30432 0.0
O752 O 0.15773 0.84448 0.31529 0.0
O753 O 0.13608 0.77719 0.33877 0.0
C754 C 0.24518 0.8642 0.30952 0.0
O755 O 0.17516 0.79754 0.3156 0.0
C756 C 0.18695 0.83847 0.37517 0.0
C757 C 0.17662 0.89261 0.34944 0.0
O758 O 0.22245 0.86475 0.30049 0.0
O759 O 0.24023 0.85352 0.33022 0.0
O760 O 0.21104 0.86031 0.36813 0.0
O761 O 0.17055 0.82088 0.35733 0.0
O762 O 0.19593 0.8896 0.33728 0.0
O763 O 0.1515 0.86839 0.35428 0.0
C764 C 0.0847 0.80086 0.36517 0.0
O765 O 0.11074 0.82337 0.37275 0.0
O766 O 0.08543 0.78867 0.34452 0.0
C767 C 0.14069 0.82835 0.29731 0.0
Tb768 Tb 0.86419 0.68843 0.66817 0.0
C769 C 0.84914 0.62121 0.68279 0.0
Tb770 Tb 0.79951 0.63829 0.67332 0.0
O771 O 0.86902 0.71194 0.70386 0.0
O772 O 0.83878 0.66522 0.69541 0.0
O773 O 0.8681 0.64721 0.67375 0.0
C774 C 0.74851 0.60906 0.69205 0.0
O775 O 0.8222 0.61477 0.68667 0.0
C776 C 0.81727 0.63877 0.6308 0.0
C777 C 0.81444 0.70524 0.65798 0.0
O778 O 0.75558 0.59782 0.67393 0.0
O779 O 0.76991 0.63682 0.69928 0.0
O780 O 0.79521 0.61432 0.63797 0.0
O781 O 0.82499 0.66134 0.64609 0.0
O782 O 0.79522 0.67907 0.6667 0.0
O783 O 0.84149 0.71172 0.65453 0.0
C784 C 0.91566 0.71854 0.65015 0.0
O785 O 0.90639 0.73068 0.66595 0.0
O786 O 0.89619 0.68935 0.64487 0.0
C787 C 0.84678 0.6876 0.71091 0.0
Tb788 Tb 0.31103 0.17562 0.66354 0.0
C789 C 0.37426 0.22546 0.68539 0.0
Tb790 Tb 0.35438 0.15337 0.67644 0.0
O791 O 0.31036 0.18816 0.70099 0.0
O792 O 0.31786 0.15186 0.69093 0.0
O793 O 0.3504 0.22067 0.67248 0.0
C794 C 0.39083 0.13799 0.69801 0.0
O795 O 0.37911 0.20253 0.69041 0.0
C796 C 0.3475 0.16065 0.63151 0.0
C797 C 0.29114 0.10346 0.65509 0.0
O798 O 0.36836 0.13694 0.70682 0.0
O799 O 0.39297 0.14795 0.67706 0.0
O800 O 0.35402 0.14037 0.6388 0.0
O801 O 0.34756 0.17722 0.64921 0.0
O802 O 0.31487 0.10838 0.66827 0.0
O803 O 0.28642 0.12636 0.64962 0.0
C804 C 0.27517 0.19119 0.64128 0.0
O805 O 0.27194 0.18002 0.66181 0.0
O806 O 0.29846 0.19337 0.63319 0.0
C807 C 0.31733 0.1683 0.7085 0.0
Tb808 Tb 0.80175 0.15773 0.67329 0.0
C809 C 0.81533 0.10225 0.66242 0.0
Tb810 Tb 0.86524 0.17282 0.66818 0.0
O811 O 0.79812 0.17156 0.63744 0.0
O812 O 0.82579 0.15448 0.64626 0.0
O813 O 0.79652 0.11091 0.66913 0.0
C814 C 0.91556 0.19417 0.64855 0.0
O815 O 0.84282 0.12265 0.65887 0.0
C816 C 0.84839 0.1639 0.71114 0.0
C817 C 0.85169 0.22821 0.67866 0.0
O818 O 0.9109 0.18373 0.66941 0.0
O819 O 0.892 0.19252 0.63894 0.0
O820 O 0.86907 0.15936 0.70409 0.0
O821 O 0.8412 0.17618 0.69529 0.0
O822 O 0.87019 0.21947 0.67132 0.0
O823 O 0.82457 0.20786 0.68317 0.0
C824 C 0.75126 0.13585 0.69271 0.0
O825 O 0.77381 0.13457 0.70114 0.0
O826 O 0.75694 0.14939 0.67307 0.0
C827 C 0.81882 0.167 0.6305 0.0
C828 C 0.36204 0.92364 0.07134 0.0
C829 C 0.33814 0.89612 0.05978 0.0
H830 H 0.40553 0.96165 0.06938 0.0
C831 C 0.34 0.88673 0.03625 0.0
H832 H 0.36164 0.93145 0.08951 0.0
C833 C 0.36538 0.90374 0.02494 0.0
C834 C 0.38926 0.93083 0.03669 0.0
H835 H 0.32184 0.86614 0.0265 0.0
H836 H 0.36633 0.89562 0.007 0.0
C837 C 0.38726 0.94089 0.05986 0.0
C838 C 0.08679 0.43923 0.07519 0.0
C839 C 0.10714 0.43559 0.06249 0.0
H840 H 0.05397 0.45248 0.07445 0.0
C841 C 0.1093 0.44218 0.03855 0.0
H842 H 0.08479 0.43472 0.09371 0.0
C843 C 0.09212 0.45289 0.02775 0.0
C844 C 0.07209 0.45677 0.04052 0.0
H845 H 0.12425 0.43899 0.02806 0.0
H846 H 0.09441 0.45794 0.00933 0.0
C847 C 0.0693 0.4496 0.06424 0.0
C848 C 0.51051 0.62838 0.0457 0.0
C849 C 0.54028 0.65109 0.05 0.0
H850 H 0.47891 0.58125 0.03287 0.0
C851 C 0.56141 0.64367 0.04348 0.0
H852 H 0.49384 0.63352 0.05073 0.0
C853 C 0.55292 0.61393 0.03304 0.0
C854 C 0.52315 0.59092 0.02927 0.0
H855 H 0.5845 0.66089 0.04651 0.0
H856 H 0.56973 0.60877 0.02848 0.0
C857 C 0.50202 0.59847 0.0356 0.0
C858 C 0.89767 0.37498 0.94446 0.0
C859 C 0.89479 0.34898 0.95532 0.0
H860 H 0.91925 0.4248 0.946 0.0
C861 C 0.91133 0.35365 0.97702 0.0
H862 H 0.88497 0.37195 0.92781 0.0
C863 C 0.93101 0.38378 0.98734 0.0
C864 C 0.93423 0.40983 0.97633 0.0
H865 H 0.90962 0.334 0.98569 0.0
H866 H 0.94392 0.38665 0.00383 0.0
C867 C 0.91707 0.40516 0.95497 0.0
C868 C 0.63856 0.56914 0.93806 0.0
C869 C 0.65754 0.5579 0.94387 0.0
H870 H 0.59834 0.56766 0.94398 0.0
C871 C 0.64935 0.53512 0.96012 0.0
H872 H 0.64424 0.5869 0.92585 0.0
C873 C 0.62332 0.52459 0.97083 0.0
C874 C 0.60476 0.53628 0.96527 0.0
H875 H 0.66306 0.52539 0.96463 0.0
H876 H 0.61778 0.50736 0.9835 0.0
C877 C 0.61236 0.55831 0.94857 0.0
C878 C 0.47823 0.09963 0.95306 0.0
C879 C 0.4524 0.09816 0.95945 0.0
H880 H 0.50901 0.08431 0.95892 0.0
C881 C 0.43797 0.08006 0.97779 0.0
H882 H 0.48996 0.11374 0.93919 0.0
C883 C 0.44876 0.06299 0.98906 0.0
C884 C 0.47447 0.06421 0.98248 0.0
H885 H 0.418 0.07859 0.98304 0.0
H886 H 0.43685 0.04865 0.00276 0.0
C887 C 0.48928 0.08304 0.96457 0.0
C888 C 0.65827 0.12024 0.97116 0.0
C889 C 0.66627 0.10428 0.95462 0.0
H890 H 0.62663 0.11729 0.99445 0.0
C891 C 0.64758 0.07199 0.94911 0.0
H892 H 0.67184 0.14518 0.97552 0.0
C893 C 0.62151 0.05612 0.95982 0.0
C894 C 0.61369 0.07218 0.97631 0.0
H895 H 0.6532 0.05891 0.93668 0.0
H896 H 0.60745 0.03128 0.95515 0.0
C897 C 0.63231 0.10433 0.98194 0.0
C898 C 0.88676 0.5541 0.96904 0.0
C899 C 0.89211 0.56776 0.94734 0.0
H900 H 0.89958 0.53245 0.99512 0.0
C901 C 0.91594 0.57056 0.9356 0.0
H902 H 0.86911 0.55216 0.97893 0.0
C903 C 0.93384 0.55996 0.9453 0.0
C904 C 0.92798 0.54586 0.96668 0.0
H905 H 0.9205 0.58042 0.91869 0.0
H906 H 0.95196 0.56229 0.93586 0.0
C907 C 0.90431 0.54296 0.97845 0.0
C908 C 0.48416 0.36742 0.96371 0.0
C909 C 0.45437 0.34448 0.96108 0.0
H910 H 0.51616 0.41506 0.97483 0.0
C911 C 0.43375 0.352 0.96877 0.0
H912 H 0.50041 0.36215 0.95773 0.0
C913 C 0.44273 0.38204 0.97881 0.0
C914 C 0.47245 0.40526 0.98094 0.0
H915 H 0.41067 0.33462 0.96698 0.0
H916 H 0.42628 0.38725 0.98436 0.0
C917 C 0.49311 0.39765 0.97336 0.0
C918 C 0.09139 0.64824 0.02863 0.0
C919 C 0.10784 0.65141 0.05004 0.0
H920 H 0.05844 0.61678 1.00122 0.0
C921 C 0.10463 0.62459 0.05967 0.0
H922 H 0.09343 0.66862 0.02093 0.0
C923 C 0.08503 0.59507 0.04828 0.0
C924 C 0.06791 0.59177 0.02722 0.0
H925 H 0.11723 0.62648 0.07609 0.0
H926 H 0.08266 0.5748 0.05639 0.0
C927 C 0.07136 0.61864 0.01742 0.0
C928 C 0.34044 0.44772 0.04212 0.0
C929 C 0.33946 0.44188 0.06624 0.0
H930 H 0.36622 0.46164 0.01253 0.0
C931 C 0.36477 0.44572 0.07904 0.0
H932 H 0.32123 0.44443 0.0316 0.0
C933 C 0.39043 0.45518 0.06795 0.0
C934 C 0.39126 0.46113 0.04393 0.0
H935 H 0.36488 0.44182 0.09769 0.0
H936 H 0.40964 0.458 0.0782 0.0
C937 C 0.36613 0.45741 0.03113 0.0
C938 C 0.5148 0.88868 0.04352 0.0
C939 C 0.54456 0.89992 0.05032 0.0
H940 H 0.48278 0.89824 0.02786 0.0
C941 C 0.56537 0.93001 0.04527 0.0
H942 H 0.49827 0.86561 0.04731 0.0
C943 C 0.55653 0.94861 0.03383 0.0
C944 C 0.52667 0.93763 0.02756 0.0
H945 H 0.58846 0.93912 0.05012 0.0
H946 H 0.57306 0.97191 0.03053 0.0
C947 C 0.50594 0.90738 0.0324 0.0
C948 C 0.02136 0.2687 0.39567 0.0
C949 C 0.00191 0.23683 0.38894 0.0
H950 H 0.06262 0.309 0.39125 0.0
C951 C 0.00979 0.22113 0.37206 0.0
H952 H 0.01587 0.28155 0.40844 0.0
C953 C 0.03634 0.2369 0.36209 0.0
C954 C 0.05567 0.26867 0.36884 0.0
H955 H 0.99561 0.19646 0.36679 0.0
H956 H 0.04185 0.22414 0.34925 0.0
C957 C 0.04801 0.28447 0.38571 0.0
C958 C 0.7611 0.78265 0.41411 0.0
C959 C 0.78189 0.77988 0.40138 0.0
H960 H 0.72731 0.79446 0.41351 0.0
C961 C 0.78445 0.78753 0.37769 0.0
H962 H 0.75882 0.77736 0.43247 0.0
C963 C 0.76672 0.7977 0.36702 0.0
C964 C 0.74589 0.80019 0.37971 0.0
H965 H 0.79983 0.78517 0.3672 0.0
H966 H 0.76906 0.80318 0.3487 0.0
C967 C 0.74322 0.79264 0.40334 0.0
C968 C 0.21433 0.9805 0.36004 0.0
C969 C 0.20198 0.98426 0.3804 0.0
H970 H 0.21604 0.94839 0.33426 0.0
C971 C 0.18003 0.9578 0.3896 0.0
H972 H 0.23139 0.00058 0.3527 0.0
C973 C 0.17097 0.92802 0.37892 0.0
C974 C 0.18403 0.92415 0.35905 0.0
H975 H 0.17004 0.96016 0.40519 0.0
H976 H 0.15444 0.90802 0.38674 0.0
C977 C 0.20561 0.95067 0.34957 0.0
C978 C 0.58463 0.68577 0.31418 0.0
C979 C 0.56702 0.68087 0.29305 0.0
H980 H 0.61766 0.71924 0.34069 0.0
C981 C 0.56851 0.70666 0.28285 0.0
H982 H 0.58392 0.66622 0.32231 0.0
C983 C 0.58741 0.73683 0.29345 0.0
C984 C 0.60554 0.74187 0.31431 0.0
H985 H 0.55498 0.70347 0.26665 0.0
H986 H 0.58829 0.75623 0.28496 0.0
C987 C 0.60396 0.71605 0.32461 0.0
C988 C 0.30019 0.8915 0.26388 0.0
C989 C 0.32487 0.89397 0.27676 0.0
H990 H 0.25547 0.88005 0.26423 0.0
C991 C 0.32299 0.88677 0.30056 0.0
H992 H 0.30077 0.8965 0.24545 0.0
C993 C 0.297 0.87694 0.31112 0.0
C994 C 0.27245 0.87444 0.29822 0.0
H995 H 0.34172 0.889 0.31117 0.0
H996 H 0.29621 0.87153 0.32947 0.0
C997 C 0.27422 0.88191 0.27455 0.0
C998 C 0.14677 0.43555 0.28576 0.0
C999 C 0.12114 0.43454 0.29218 0.0
H1000 H 0.17735 0.41998 0.29192 0.0
C1001 C 0.10681 0.41693 0.31077 0.0
H1002 H 0.15843 0.44925 0.27168 0.0
C1003 C 0.11753 0.39999 0.32232 0.0
C1004 C 0.14308 0.40082 0.31578 0.0
H1005 H 0.08698 0.41578 0.31604 0.0
H1006 H 0.10569 0.38609 0.33624 0.0
C1007 C 0.15776 0.41906 0.29755 0.0
C1008 C 0.32665 0.45589 0.30497 0.0
C1009 C 0.33395 0.43993 0.28782 0.0
H1010 H 0.29577 0.45316 0.32902 0.0
C1011 C 0.31466 0.40781 0.28194 0.0
H1012 H 0.34068 0.48072 0.30964 0.0
C1013 C 0.28878 0.3921 0.29299 0.0
C1014 C 0.28169 0.40816 0.31013 0.0
H1015 H 0.3197 0.39472 0.26902 0.0
H1016 H 0.2743 0.36739 0.28806 0.0
C1017 C 0.30085 0.44017 0.31603 0.0
C1018 C 0.55086 0.88288 0.30274 0.0
C1019 C 0.55394 0.89166 0.27934 0.0
H1020 H 0.56562 0.86581 0.33117 0.0
C1021 C 0.57503 0.88956 0.26659 0.0
H1022 H 0.53524 0.88471 0.31326 0.0
C1023 C 0.59272 0.87916 0.27706 0.0
C1024 C 0.58948 0.87039 0.30037 0.0
H1025 H 0.5777 0.89563 0.24843 0.0
H1026 H 0.60888 0.87789 0.26688 0.0
C1027 C 0.56834 0.87218 0.31308 0.0
C1028 C 0.14625 0.70686 0.28321 0.0
C1029 C 0.1254 0.6808 0.2936 0.0
H1030 H 0.1714 0.75653 0.28469 0.0
C1031 C 0.11474 0.68534 0.31474 0.0
H1032 H 0.15503 0.70395 0.26704 0.0
C1033 C 0.12401 0.71549 0.32484 0.0
C1034 C 0.1444 0.74158 0.31414 0.0
H1035 H 0.09856 0.66561 0.32302 0.0
H1036 H 0.11489 0.71834 0.34082 0.0
C1037 C 0.15577 0.73694 0.29344 0.0
C1038 C 0.74212 0.98252 0.37146 0.0
C1039 C 0.77054 0.99101 0.38062 0.0
H1040 H 0.70066 0.94613 0.35529 0.0
C1041 C 0.77923 0.96856 0.37978 0.0
H1042 H 0.73499 -0.00051 0.3718 0.0
C1043 C 0.75949 0.93785 0.37054 0.0
C1044 C 0.73089 0.92924 0.36164 0.0
H1045 H 0.80101 0.97457 0.38689 0.0
H1046 H 0.76656 0.92085 0.37051 0.0
C1047 C 0.72256 0.952 0.36192 0.0
C1048 C 0.00808 0.75239 0.38284 0.0
C1049 C 0.00798 0.77166 0.40189 0.0
H1050 H 0.03254 0.74694 0.35595 0.0
C1051 C 0.03345 0.80029 0.40914 0.0
H1052 H 0.98858 0.73031 0.37689 0.0
C1053 C 0.05867 0.80956 0.39745 0.0
C1054 C 0.05851 0.79065 0.37801 0.0
H1055 H 0.03379 0.81544 0.42383 0.0
H1056 H 0.07808 0.83174 0.40334 0.0
C1057 C 0.03309 0.76197 0.37083 0.0
C1058 C 0.18191 0.22558 0.37947 0.0
C1059 C 0.21172 0.23577 0.3848 0.0
H1060 H 0.1501 0.23642 0.3654 0.0
C1061 C 0.23275 0.26532 0.37892 0.0
H1062 H 0.16523 0.20297 0.38394 0.0
C1063 C 0.22411 0.28441 0.36805 0.0
C1064 C 0.19425 0.27446 0.36318 0.0
H1065 H 0.25588 0.27359 0.38263 0.0
H1066 H 0.24084 0.30723 0.36399 0.0
C1067 C 0.17327 0.24478 0.36889 0.0
C1068 C 0.67285 0.5475 0.70465 0.0
C1069 C 0.67129 0.55771 0.72801 0.0
H1070 H 0.69856 0.55565 0.67506 0.0
C1071 C 0.69511 0.58576 0.73895 0.0
H1072 H 0.65472 0.52646 0.69536 0.0
C1073 C 0.71994 0.60284 0.72699 0.0
C1074 C 0.7216 0.59205 0.70397 0.0
H1075 H 0.69494 0.5942 0.75698 0.0
H1076 H 0.73815 0.62408 0.73602 0.0
C1077 C 0.69784 0.56433 0.69287 0.0
C1078 C 0.44818 0.11493 0.70738 0.0
C1079 C 0.44583 0.10759 0.73116 0.0
H1080 H 0.43279 0.13059 0.67838 0.0
C1081 C 0.42515 0.11049 0.74393 0.0
H1082 H 0.46345 0.11241 0.69685 0.0
C1083 C 0.4073 0.12051 0.73316 0.0
C1084 C 0.40995 0.12801 0.70951 0.0
H1085 H 0.42302 0.10545 0.76235 0.0
H1086 H 0.39154 0.12254 0.74339 0.0
C1087 C 0.43054 0.12521 0.69673 0.0
C1088 C 0.85496 0.3036 0.69934 0.0
C1089 C 0.88529 0.32423 0.70324 0.0
H1090 H 0.82048 0.25697 0.68846 0.0
C1091 C 0.90441 0.31369 0.6972 0.0
H1092 H 0.83975 0.31113 0.70398 0.0
C1093 C 0.89343 0.2828 0.68814 0.0
C1094 C 0.86309 0.26172 0.68526 0.0
H1095 H 0.92789 0.32925 0.69986 0.0
H1096 H 0.9088 0.27522 0.68425 0.0
C1097 C 0.84395 0.27259 0.69055 0.0
C1098 C 0.22131 0.0334 0.62612 0.0
C1099 C 0.22946 0.01055 0.62436 0.0
H1100 H 0.23449 0.08081 0.63711 0.0
C1101 C 0.25765 0.01814 0.63349 0.0
H1102 H 0.19974 0.02815 0.61905 0.0
C1103 C 0.27744 0.04814 0.64405 0.0
C1104 C 0.26954 0.07123 0.64536 0.0
H1105 H 0.26438 0.00085 0.63246 0.0
H1106 H 0.29914 0.05338 0.65069 0.0
C1107 C 0.24123 0.06353 0.63636 0.0
C1108 C 0.99422 0.22062 0.63881 0.0
C1109 C 0.99528 0.22777 0.61498 0.0
H1110 H 0.96809 0.20423 0.66809 0.0
C1111 C 0.96991 0.22422 0.60254 0.0
H1112 H 0.01348 0.22358 0.64906 0.0
C1113 C 0.94407 0.21347 0.61358 0.0
C1114 C 0.94303 0.20594 0.63722 0.0
H1115 H 0.96981 0.2291 0.58411 0.0
H1116 H 0.92478 0.21069 0.60348 0.0
C1117 C 0.96831 0.20968 0.64978 0.0
C1118 C 0.76494 0.7331 0.63204 0.0
C1119 C 0.78544 0.76281 0.62602 0.0
H1120 H 0.75797 0.69179 0.6474 0.0
C1121 C 0.8154 0.77392 0.63158 0.0
H1122 H 0.74171 0.72413 0.62817 0.0
C1123 C 0.82472 0.7555 0.64253 0.0
C1124 C 0.80429 0.72566 0.64839 0.0
H1125 H 0.83169 0.79667 0.62704 0.0
H1126 H 0.848 0.76456 0.64618 0.0
C1127 C 0.77427 0.71477 0.64328 0.0
C1128 C 0.9866 0.78439 0.63305 0.0
C1129 C 0.99447 0.76905 0.61585 0.0
H1130 H 0.95569 0.78039 0.65747 0.0
C1131 C 0.97603 0.73677 0.61008 0.0
H1132 H -4e-05 0.80932 0.63763 0.0
C1133 C 0.95048 0.72026 0.62138 0.0
C1134 C 0.94294 0.73569 0.63868 0.0
H1135 H 0.98154 0.72418 0.5971 0.0
H1136 H 0.93666 0.69542 0.61658 0.0
C1137 C 0.96118 0.76788 0.64438 0.0
C1138 C 0.24264 0.22132 0.59595 0.0
C1139 C 0.22081 0.22249 0.60827 0.0
H1140 H 0.27697 0.21029 0.59678 0.0
C1141 C 0.21708 0.21303 0.63145 0.0
H1142 H 0.24587 0.22806 0.57799 0.0
C1143 C 0.23451 0.20245 0.64198 0.0
C1144 C 0.25628 0.20141 0.62969 0.0
H1145 H 0.20091 0.2142 0.64166 0.0
H1146 H 0.23118 0.19547 0.65988 0.0
C1147 C 0.26028 0.21094 0.60661 0.0
C1148 C 0.81298 0.02755 0.64112 0.0
C1149 C 0.78277 0.00699 0.63593 0.0
H1150 H 0.84699 0.07377 0.65368 0.0
C1151 C 0.76327 0.01729 0.6413 0.0
H1152 H 0.82852 0.02027 0.63701 0.0
C1153 C 0.77382 0.04787 0.65103 0.0
C1154 C 0.8041 0.06887 0.65526 0.0
H1155 H 0.73986 0.0018 0.63769 0.0
H1156 H 0.75822 0.05532 0.65439 0.0
C1157 C 0.82355 0.05822 0.65058 0.0
C1158 C 0.40844 0.31084 0.70731 0.0
C1159 C 0.43632 0.3179 0.71693 0.0
H1160 H 0.36708 0.27619 0.68947 0.0
C1161 C 0.44403 0.2947 0.71531 0.0
H1162 H 0.40205 0.3284 0.70818 0.0
C1163 C 0.42402 0.26479 0.70474 0.0
C1164 C 0.396 0.25758 0.69532 0.0
H1165 H 0.4653 0.29946 0.72277 0.0
H1166 H 0.43046 0.24727 0.70414 0.0
C1167 C 0.38854 0.28102 0.69646 0.0
C1168 C 0.69737 0.10579 0.73904 0.0
C1169 C 0.67256 0.10449 0.72744 0.0
H1170 H 0.7417 0.11675 0.73705 0.0
C1171 C 0.67378 0.113 0.70398 0.0
H1172 H 0.69741 0.09986 0.75718 0.0
C1173 C 0.69934 0.12317 0.69261 0.0
C1174 C 0.72405 0.12464 0.70434 0.0
H1175 H 0.65493 0.11173 0.69431 0.0
H1176 H 0.69973 0.12979 0.67463 0.0
C1177 C 0.72281 0.11565 0.72756 0.0
C1178 C 0.85754 0.56567 0.72117 0.0
C1179 C 0.88341 0.5678 0.71414 0.0
H1180 H 0.82608 0.58032 0.71641 0.0
C1181 C 0.89725 0.58651 0.69591 0.0
H1182 H 0.84625 0.55111 0.73497 0.0
C1183 C 0.8858 0.60338 0.6853 0.0
C1184 C 0.86001 0.60143 0.69245 0.0
H1185 H 0.91725 0.58855 0.69018 0.0
H1186 H 0.89726 0.61812 0.67164 0.0
C1187 C 0.84583 0.58213 0.71032 0.0
C1188 C 0.47883 0.98613 0.09959 0.0
C1189 C 0.49391 0.01003 0.11807 0.0
H1190 H 0.47464 0.97199 0.06265 0.0
C1191 C 0.51537 0.03971 0.11272 0.0
H1192 H 0.46261 0.9629 0.10333 0.0
C1193 C 0.52163 0.04528 0.0891 0.0
C1194 C 0.50697 0.02102 0.0707 0.0
H1195 H 0.5274 0.05841 0.1268 0.0
H1196 H 0.53844 0.06821 0.08534 0.0
C1197 C 0.4856 0.99144 0.07624 0.0
C1198 C 0.02294 0.53629 0.10364 0.0
C1199 C 0.01987 0.50914 0.11272 0.0
H1200 H 0.01524 0.55681 0.07385 0.0
C1201 C 0.00705 0.48134 0.09746 0.0
H1202 H 0.03339 0.55831 0.11464 0.0
C1203 C 0.99688 0.48065 0.07386 0.0
C1204 C -0.00058 0.50771 0.06518 0.0
H1205 H 0.00419 0.45998 0.10391 0.0
H1206 H 0.98648 0.45885 0.06258 0.0
C1207 C 0.01264 0.53551 0.08023 0.0
C1208 C 0.48089 0.4777 0.09978 0.0
C1209 C 0.49649 0.5052 0.11531 0.0
H1210 H 0.47663 0.45508 0.06505 0.0
C1211 C 0.51972 0.53161 0.10694 0.0
H1212 H 0.46308 0.45687 0.10567 0.0
C1213 C 0.52748 0.53047 0.08388 0.0
C1214 C 0.51199 0.50305 0.06847 0.0
H1215 H 0.53182 0.55342 0.11816 0.0
H1216 H 0.54538 0.55127 0.07799 0.0
C1217 C 0.48865 0.47663 0.07657 0.0
C1218 C 0.01181 0.48874 0.89531 0.0
C1219 C 0.98839 0.4934 0.8886 0.0
H1220 H 0.03802 0.48532 0.92403 0.0
C1221 C 0.97383 0.49907 0.90653 0.0
H1222 H 0.02362 0.48449 0.88197 0.0
C1223 C 0.98224 0.49964 0.93053 0.0
C1224 C 0.00552 0.49496 0.93716 0.0
H1225 H 0.95518 0.50185 0.90201 0.0
H1226 H 0.96948 0.50202 0.94375 0.0
C1227 C 0.02014 0.48933 0.91935 0.0
C1228 C 0.51586 0.51924 0.91052 0.0
C1229 C 0.5003 0.49205 0.89465 0.0
H1230 H 0.51986 0.5412 0.94542 0.0
C1231 C 0.47656 0.46563 0.90251 0.0
H1232 H 0.53401 0.54011 0.905 0.0
C1233 C 0.46849 0.46638 0.92551 0.0
C1234 C 0.48416 0.4934 0.94132 0.0
H1235 H 0.46444 0.44407 0.89103 0.0
H1236 H 0.4503 0.44554 0.93108 0.0
C1237 C 0.50781 0.51989 0.93364 0.0
C1238 C 0.52601 0.01659 0.91254 0.0
C1239 C 0.50993 0.99347 0.89368 0.0
H1240 H 0.53081 0.02998 0.94974 0.0
C1241 C 0.48724 0.96424 0.89871 0.0
H1242 H 0.54324 0.03951 0.90914 0.0
C1243 C 0.48056 0.95845 0.92222 0.0
C1244 C 0.49607 0.98205 0.94094 0.0
H1245 H 0.47446 0.94607 0.88443 0.0
H1246 H 0.46268 0.93594 0.92565 0.0
C1247 C 0.51893 0.01107 0.93583 0.0
C1248 C 0.18351 0.37651 0.44737 0.0
C1249 C 0.16044 0.34745 0.4523 0.0
H1250 H 0.20839 0.40469 0.42048 0.0
C1251 C 0.14399 0.32461 0.43338 0.0
H1252 H 0.1966 0.39444 0.46172 0.0
C1253 C 0.15111 0.33015 0.41011 0.0
C1254 C 0.17433 0.35896 0.40507 0.0
H1255 H 0.12649 0.3018 0.4367 0.0
H1256 H 0.13901 0.31134 0.39618 0.0
C1257 C 0.19021 0.38237 0.42385 0.0
C1258 C 0.68183 0.8664 0.44275 0.0
C1259 C 0.68103 0.83995 0.45128 0.0
H1260 H 0.67368 0.88683 0.41306 0.0
C1261 C 0.67132 0.81325 0.4352 0.0
H1262 H 0.68984 0.88767 0.45434 0.0
C1263 C 0.66242 0.81302 0.41132 0.0
C1264 C 0.66303 0.83943 0.40309 0.0
H1265 H 0.67012 0.79235 0.44113 0.0
H1266 H 0.65468 0.79208 0.39939 0.0
C1267 C 0.67273 0.86604 0.41902 0.0
C1268 C 0.18635 0.86453 0.43897 0.0
C1269 C 0.16146 0.83858 0.44609 0.0
H1270 H 0.21388 0.88462 0.41115 0.0
C1271 C 0.14483 0.81243 0.42942 0.0
H1272 H 0.19929 0.88541 0.45105 0.0
C1273 C 0.15313 0.81221 0.40633 0.0
C1274 C 0.17819 0.83808 0.39951 0.0
H1275 H 0.12565 0.79199 0.43429 0.0
H1276 H 0.14002 0.79178 0.39385 0.0
C1277 C 0.19469 0.86419 0.41604 0.0
C1278 C 0.65179 0.8019 0.23678 0.0
C1279 C 0.64709 0.82568 0.2292 0.0
H1280 H 0.66634 0.78486 0.26529 0.0
C1281 C 0.65621 0.85242 0.24505 0.0
H1282 H 0.64602 0.78142 0.22491 0.0
C1283 C 0.66874 0.8547 0.26812 0.0
C1284 C 0.67179 0.83008 0.27591 0.0
H1285 H 0.65308 0.87126 0.23988 0.0
H1286 H 0.6758 0.87559 0.27992 0.0
C1287 C 0.66381 0.804 0.25987 0.0
C1288 C 0.18125 0.85412 0.2423 0.0
C1289 C 0.16646 0.82663 0.22668 0.0
H1290 H 0.18419 0.87641 0.27683 0.0
C1291 C 0.14286 0.80007 0.23456 0.0
H1292 H 0.19928 0.87509 0.23677 0.0
C1293 C 0.13421 0.80097 0.25732 0.0
C1294 C 0.14915 0.82828 0.2729 0.0
H1295 H 0.13132 0.77828 0.22329 0.0
H1296 H 0.11622 0.78001 0.26293 0.0
C1297 C 0.17261 0.85492 0.26519 0.0
C1298 C 0.15289 0.2985 0.23365 0.0
C1299 C 0.17554 0.32742 0.22812 0.0
H1300 H 0.12913 0.27105 0.26121 0.0
C1301 C 0.19248 0.3508 0.2466 0.0
H1302 H 0.13951 0.28016 0.21964 0.0
C1303 C 0.18623 0.34586 0.2701 0.0
C1304 C 0.16335 0.31719 0.27572 0.0
H1305 H 0.20972 0.37349 0.24277 0.0
H1306 H 0.19871 0.36496 0.28376 0.0
C1307 C 0.14704 0.29329 0.25736 0.0
C1308 C 0.81057 0.64913 0.7647 0.0
C1309 C 0.82487 0.67358 0.7829 0.0
H1310 H 0.80723 0.6342 0.72804 0.0
C1311 C 0.84588 0.7033 0.77722 0.0
H1312 H 0.79474 0.62585 0.76868 0.0
C1313 C 0.85246 0.70838 0.75361 0.0
C1314 C 0.83856 0.68362 0.73553 0.0
H1315 H 0.8573 0.72246 0.79104 0.0
H1316 H 0.86888 0.73138 0.74962 0.0
C1317 C 0.81764 0.65399 0.74137 0.0
C1318 C 0.3425 0.14624 0.76451 0.0
C1319 C 0.3507 0.17258 0.78055 0.0
H1320 H 0.32414 0.12353 0.72932 0.0
C1321 C 0.34568 0.19613 0.77295 0.0
H1322 H 0.34587 0.12755 0.76968 0.0
C1323 C 0.33433 0.19427 0.74967 0.0
C1324 C 0.3273 0.16863 0.73346 0.0
H1325 H 0.35068 0.21626 0.78494 0.0
H1326 H 0.33156 0.21327 0.74426 0.0
C1327 C 0.33057 0.14415 0.74125 0.0
C1328 C 0.8129 0.17255 0.76493 0.0
C1329 C 0.82451 0.16204 0.78267 0.0
H1330 H 0.81243 0.18264 0.72875 0.0
C1331 C 0.84357 0.15134 0.77666 0.0
H1332 H 0.79862 0.18148 0.76922 0.0
C1333 C 0.85088 0.15116 0.75323 0.0
C1334 C 0.83967 0.16227 0.73561 0.0
H1335 H 0.85292 0.1433 0.79013 0.0
H1336 H 0.86566 0.14289 0.74901 0.0
C1337 C 0.82076 0.17311 0.74175 0.0
C1338 C 0.31552 0.13255 0.5678 0.0
C1339 C 0.31676 0.15916 0.55919 0.0
H1340 H 0.32442 0.1124 0.5973 0.0
C1341 C 0.32805 0.18646 0.57487 0.0
H1342 H 0.3063 0.11086 0.55651 0.0
C1343 C 0.33811 0.18711 0.59848 0.0
C1344 C 0.33706 0.16053 0.60678 0.0
H1345 H 0.32957 0.20745 0.56882 0.0
H1346 H 0.34707 0.20849 0.61014 0.0
C1347 C 0.32577 0.13333 0.59124 0.0
C1348 C 0.84916 0.1522 0.57578 0.0
C1349 C 0.84284 0.16845 0.55918 0.0
H1350 H 0.84653 0.13914 0.61126 0.0
C1351 C 0.82977 0.18572 0.56639 0.0
H1352 H 0.85922 0.13871 0.57057 0.0
C1353 C 0.82211 0.1857 0.58976 0.0
C1354 C 0.82788 0.16879 0.60618 0.0
H1355 H 0.82451 0.19821 0.55375 0.0
H1356 H 0.81139 0.19851 0.5949 0.0
C1357 C 0.84188 0.15247 0.59904 0.0
C1358 C 0.81567 0.62449 0.56397 0.0
C1359 C 0.83818 0.65369 0.55875 0.0
H1360 H 0.79183 0.5964 0.59128 0.0
C1361 C 0.85446 0.67703 0.57738 0.0
H1362 H 0.80272 0.60625 0.54979 0.0
C1363 C 0.84782 0.67174 0.60075 0.0
C1364 C 0.82531 0.6427 0.60615 0.0
H1365 H 0.87154 0.69992 0.57375 0.0
H1366 H 0.85976 0.69085 0.61449 0.0
C1367 C 0.80951 0.61889 0.58761 0.0
loop_
_geom_bond_atom_site_label_1
_geom_bond_atom_site_label_2
_geom_bond_distance
_geom_bond_site_symmetry_2
_ccdc_geom_bond_type
C0 C1 1.384 . S
C0 H13 0.947 . S
C0 C35 1.382 . S
C1 C0 1.384 . S
C1 C2 1.378 . S
C2 C1 1.378 . S
C2 C3 1.378 . S
C2 H14 0.952 . S
C3 C2 1.378 . S
C3 H15 0.950 . S
C3 C34 1.383 . S
H4 C23 0.947 . S
H5 C24 0.946 . S
H6 C26 0.953 . S
H7 C27 0.945 . S
H8 C29 0.952 . S
H9 C30 0.949 . S
H10 C32 0.950 . S
H11 C33 0.948 . S
H12 C35 0.951 . S
H13 C0 0.947 . S
H14 C2 0.952 . S
H15 C3 0.950 . S
N16 C19 1.382 . S
N16 C21 1.363 . S
N17 C19 1.371 . S
N17 C20 1.372 . S
N18 C20 1.361 . S
N18 C21 1.377 . S
C19 N16 1.382 . S
C19 N17 1.371 . S
C19 C22 1.480 . S
C20 N17 1.372 . S
C20 N18 1.361 . S
C20 C28 1.457 . S
C21 N16 1.363 . S
C21 N18 1.377 . S
C21 C34 1.479 . S
C22 C19 1.480 . S
C22 C23 1.383 . S
C22 C27 1.385 . S
C23 H4 0.947 . S
C23 C22 1.383 . S
C23 C24 1.388 . S
C24 H5 0.946 . S
C24 C23 1.388 . S
C24 C25 1.384 . S
C25 C24 1.384 . S
C25 C26 1.377 . S
C26 H6 0.953 . S
C26 C25 1.377 . S
C26 C27 1.369 . S
C27 H7 0.945 . S
C27 C22 1.385 . S
C27 C26 1.369 . S
C28 C20 1.457 . S
C28 C29 1.372 . S
C28 C33 1.364 . S
C29 H8 0.952 . S
C29 C28 1.372 . S
C29 C30 1.389 . S
C30 H9 0.949 . S
C30 C29 1.389 . S
C30 C31 1.387 . S
C31 C30 1.387 . S
C31 C32 1.372 . S
C32 H10 0.950 . S
C32 C31 1.372 . S
C32 C33 1.379 . S
C33 H11 0.948 . S
C33 C28 1.364 . S
C33 C32 1.379 . S
C34 C3 1.383 . S
C34 C21 1.479 . S
C34 C35 1.398 . S
C35 C0 1.382 . S
C35 H12 0.951 . S
C35 C34 1.398 . S
C36 C37 1.384 . S
C36 H49 0.947 . S
C36 C71 1.382 . S
C37 C36 1.384 . S
C37 C38 1.378 . S
C38 C37 1.378 . S
C38 C39 1.378 . S
C38 H50 0.952 . S
C39 C38 1.378 . S
C39 H51 0.950 . S
C39 C70 1.383 . S
H40 C59 0.947 . S
H41 C60 0.946 . S
H42 C62 0.953 . S
H43 C63 0.945 . S
H44 C65 0.952 . S
H45 C66 0.949 . S
H46 C68 0.950 . S
H47 C69 0.948 . S
H48 C71 0.951 . S
H49 C36 0.947 . S
H50 C38 0.952 . S
H51 C39 0.950 . S
N52 C55 1.382 . S
N52 C57 1.363 . S
N53 C55 1.371 . S
N53 C56 1.372 . S
N54 C56 1.361 . S
N54 C57 1.377 . S
C55 N52 1.382 . S
C55 N53 1.371 . S
C55 C58 1.480 . S
C56 N53 1.372 . S
C56 N54 1.361 . S
C56 C64 1.457 . S
C57 N52 1.363 . S
C57 N54 1.377 . S
C57 C70 1.479 . S
C58 C55 1.480 . S
C58 C59 1.383 . S
C58 C63 1.385 . S
C59 H40 0.947 . S
C59 C58 1.383 . S
C59 C60 1.388 . S
C60 H41 0.946 . S
C60 C59 1.388 . S
C60 C61 1.384 . S
C61 C60 1.384 . S
C61 C62 1.377 . S
C62 H42 0.953 . S
C62 C61 1.377 . S
C62 C63 1.369 . S
C63 H43 0.945 . S
C63 C58 1.385 . S
C63 C62 1.369 . S
C64 C56 1.457 . S
C64 C65 1.372 . S
C64 C69 1.364 . S
C65 H44 0.952 . S
C65 C64 1.372 . S
C65 C66 1.389 . S
C66 H45 0.949 . S
C66 C65 1.389 . S
C66 C67 1.387 . S
C67 C66 1.387 . S
C67 C68 1.372 . S
C68 H46 0.950 . S
C68 C67 1.372 . S
C68 C69 1.379 . S
C69 H47 0.948 . S
C69 C64 1.364 . S
C69 C68 1.379 . S
C70 C39 1.383 . S
C70 C57 1.479 . S
C70 C71 1.398 . S
C71 C36 1.382 . S
C71 H48 0.951 . S
C71 C70 1.398 . S
C72 C73 1.384 . S
C72 H85 0.947 . S
C72 C107 1.382 . S
C73 C72 1.384 . S
C73 C74 1.378 . S
C74 C73 1.378 . S
C74 C75 1.378 . S
C74 H86 0.952 . S
C75 C74 1.378 . S
C75 H87 0.950 . S
C75 C106 1.383 . S
H76 C95 0.947 . S
H77 C96 0.946 . S
H78 C98 0.953 . S
H79 C99 0.945 . S
H80 C101 0.952 . S
H81 C102 0.949 . S
H82 C104 0.950 . S
H83 C105 0.948 . S
H84 C107 0.951 . S
H85 C72 0.947 . S
H86 C74 0.952 . S
H87 C75 0.950 . S
N88 C91 1.382 . S
N88 C93 1.363 . S
N89 C91 1.371 . S
N89 C92 1.372 . S
N90 C92 1.361 . S
N90 C93 1.377 . S
C91 N88 1.382 . S
C91 N89 1.371 . S
C91 C94 1.480 . S
C92 N89 1.372 . S
C92 N90 1.361 . S
C92 C100 1.457 . S
C93 N88 1.363 . S
C93 N90 1.377 . S
C93 C106 1.479 . S
C94 C91 1.480 . S
C94 C95 1.383 . S
C94 C99 1.385 . S
C95 H76 0.947 . S
C95 C94 1.383 . S
C95 C96 1.388 . S
C96 H77 0.946 . S
C96 C95 1.388 . S
C96 C97 1.384 . S
C97 C96 1.384 . S
C97 C98 1.377 . S
C98 H78 0.953 . S
C98 C97 1.377 . S
C98 C99 1.369 . S
C99 H79 0.945 . S
C99 C94 1.385 . S
C99 C98 1.369 . S
C100 C92 1.457 . S
C100 C101 1.372 . S
C100 C105 1.364 . S
C101 H80 0.952 . S
C101 C100 1.372 . S
C101 C102 1.389 . S
C102 H81 0.949 . S
C102 C101 1.389 . S
C102 C103 1.387 . S
C103 C102 1.387 . S
C103 C104 1.372 . S
C104 H82 0.950 . S
C104 C103 1.372 . S
C104 C105 1.379 . S
C105 H83 0.948 . S
C105 C100 1.364 . S
C105 C104 1.379 . S
C106 C75 1.383 . S
C106 C93 1.479 . S
C106 C107 1.398 . S
C107 C72 1.382 . S
C107 H84 0.951 . S
C107 C106 1.398 . S
C108 C109 1.384 . S
C108 H121 0.947 . S
C108 C143 1.382 . S
C109 C108 1.384 . S
C109 C110 1.378 . S
C110 C109 1.378 . S
C110 C111 1.378 . S
C110 H122 0.952 . S
C111 C110 1.378 . S
C111 H123 0.950 . S
C111 C142 1.383 . S
H112 C131 0.947 . S
H113 C132 0.946 . S
H114 C134 0.953 . S
H115 C135 0.945 . S
H116 C137 0.952 . S
H117 C138 0.949 . S
H118 C140 0.950 . S
H119 C141 0.948 . S
H120 C143 0.951 . S
H121 C108 0.947 . S
H122 C110 0.952 . S
H123 C111 0.950 . S
N124 C127 1.382 . S
N124 C129 1.363 . S
N125 C127 1.371 . S
N125 C128 1.372 . S
N126 C128 1.361 . S
N126 C129 1.377 . S
C127 N124 1.382 . S
C127 N125 1.371 . S
C127 C130 1.480 . S
C128 N125 1.372 . S
C128 N126 1.361 . S
C128 C136 1.457 . S
C129 N124 1.363 . S
C129 N126 1.377 . S
C129 C142 1.479 . S
C130 C127 1.480 . S
C130 C131 1.383 . S
C130 C135 1.385 . S
C131 H112 0.947 . S
C131 C130 1.383 . S
C131 C132 1.388 . S
C132 H113 0.946 . S
C132 C131 1.388 . S
C132 C133 1.384 . S
C133 C132 1.384 . S
C133 C134 1.377 . S
C134 H114 0.953 . S
C134 C133 1.377 . S
C134 C135 1.369 . S
C135 H115 0.945 . S
C135 C130 1.385 . S
C135 C134 1.369 . S
C136 C128 1.457 . S
C136 C137 1.372 . S
C136 C141 1.364 . S
C137 H116 0.952 . S
C137 C136 1.372 . S
C137 C138 1.389 . S
C138 H117 0.949 . S
C138 C137 1.389 . S
C138 C139 1.387 . S
C139 C138 1.387 . S
C139 C140 1.372 . S
C140 H118 0.950 . S
C140 C139 1.372 . S
C140 C141 1.379 . S
C141 H119 0.948 . S
C141 C136 1.364 . S
C141 C140 1.379 . S
C142 C111 1.383 . S
C142 C129 1.479 . S
C142 C143 1.398 . S
C143 C108 1.382 . S
C143 H120 0.951 . S
C143 C142 1.398 . S
C144 C145 1.384 . S
C144 H157 0.947 . S
C144 C179 1.382 . S
C145 C144 1.384 . S
C145 C146 1.378 . S
C146 C145 1.378 . S
C146 C147 1.378 . S
C146 H158 0.952 . S
C147 C146 1.378 . S
C147 H159 0.950 . S
C147 C178 1.383 . S
H148 C167 0.947 . S
H149 C168 0.946 . S
H150 C170 0.953 . S
H151 C171 0.945 . S
H152 C173 0.952 . S
H153 C174 0.949 . S
H154 C176 0.950 . S
H155 C177 0.948 . S
H156 C179 0.951 . S
H157 C144 0.947 . S
H158 C146 0.952 . S
H159 C147 0.950 . S
N160 C163 1.382 . S
N160 C165 1.363 . S
N161 C163 1.371 . S
N161 C164 1.372 . S
N162 C164 1.361 . S
N162 C165 1.377 . S
C163 N160 1.382 . S
C163 N161 1.371 . S
C163 C166 1.480 . S
C164 N161 1.372 . S
C164 N162 1.361 . S
C164 C172 1.457 . S
C165 N160 1.363 . S
C165 N162 1.377 . S
C165 C178 1.479 . S
C166 C163 1.480 . S
C166 C167 1.383 . S
C166 C171 1.385 . S
C167 H148 0.947 . S
C167 C166 1.383 . S
C167 C168 1.388 . S
C168 H149 0.946 . S
C168 C167 1.388 . S
C168 C169 1.384 . S
C169 C168 1.384 . S
C169 C170 1.377 . S
C170 H150 0.953 . S
C170 C169 1.377 . S
C170 C171 1.369 . S
C171 H151 0.945 . S
C171 C166 1.385 . S
C171 C170 1.369 . S
C172 C164 1.457 . S
C172 C173 1.372 . S
C172 C177 1.364 . S
C173 H152 0.952 . S
C173 C172 1.372 . S
C173 C174 1.389 . S
C174 H153 0.949 . S
C174 C173 1.389 . S
C174 C175 1.387 . S
C175 C174 1.387 . S
C175 C176 1.372 . S
C176 H154 0.950 . S
C176 C175 1.372 . S
C176 C177 1.379 . S
C177 H155 0.948 . S
C177 C172 1.364 . S
C177 C176 1.379 . S
C178 C147 1.383 . S
C178 C165 1.479 . S
C178 C179 1.398 . S
C179 C144 1.382 . S
C179 H156 0.951 . S
C179 C178 1.398 . S
C180 C181 1.384 . S
C180 H193 0.947 . S
C180 C215 1.382 . S
C181 C180 1.384 . S
C181 C182 1.378 . S
C182 C181 1.378 . S
C182 C183 1.378 . S
C182 H194 0.952 . S
C183 C182 1.378 . S
C183 H195 0.950 . S
C183 C214 1.383 . S
H184 C203 0.947 . S
H185 C204 0.946 . S
H186 C206 0.953 . S
H187 C207 0.945 . S
H188 C209 0.952 . S
H189 C210 0.949 . S
H190 C212 0.950 . S
H191 C213 0.948 . S
H192 C215 0.951 . S
H193 C180 0.947 . S
H194 C182 0.952 . S
H195 C183 0.950 . S
N196 C199 1.382 . S
N196 C201 1.363 . S
N197 C199 1.371 . S
N197 C200 1.372 . S
N198 C200 1.361 . S
N198 C201 1.377 . S
C199 N196 1.382 . S
C199 N197 1.371 . S
C199 C202 1.480 . S
C200 N197 1.372 . S
C200 N198 1.361 . S
C200 C208 1.457 . S
C201 N196 1.363 . S
C201 N198 1.377 . S
C201 C214 1.479 . S
C202 C199 1.480 . S
C202 C203 1.383 . S
C202 C207 1.385 . S
C203 H184 0.947 . S
C203 C202 1.383 . S
C203 C204 1.388 . S
C204 H185 0.946 . S
C204 C203 1.388 . S
C204 C205 1.384 . S
C205 C204 1.384 . S
C205 C206 1.377 . S
C206 H186 0.953 . S
C206 C205 1.377 . S
C206 C207 1.369 . S
C207 H187 0.945 . S
C207 C202 1.385 . S
C207 C206 1.369 . S
C208 C200 1.457 . S
C208 C209 1.372 . S
C208 C213 1.364 . S
C209 H188 0.952 . S
C209 C208 1.372 . S
C209 C210 1.389 . S
C210 H189 0.949 . S
C210 C209 1.389 . S
C210 C211 1.387 . S
C211 C210 1.387 . S
C211 C212 1.372 . S
C212 H190 0.950 . S
C212 C211 1.372 . S
C212 C213 1.379 . S
C213 H191 0.948 . S
C213 C208 1.364 . S
C213 C212 1.379 . S
C214 C183 1.383 . S
C214 C201 1.479 . S
C214 C215 1.398 . S
C215 C180 1.382 . S
C215 H192 0.951 . S
C215 C214 1.398 . S
C216 C217 1.384 . S
C216 H229 0.947 . S
C216 C251 1.382 . S
C217 C216 1.384 . S
C217 C218 1.378 . S
C218 C217 1.378 . S
C218 C219 1.378 . S
C218 H230 0.952 . S
C219 C218 1.378 . S
C219 H231 0.950 . S
C219 C250 1.383 . S
H220 C239 0.947 . S
H221 C240 0.946 . S
H222 C242 0.953 . S
H223 C243 0.945 . S
H224 C245 0.952 . S
H225 C246 0.949 . S
H226 C248 0.950 . S
H227 C249 0.948 . S
H228 C251 0.951 . S
H229 C216 0.947 . S
H230 C218 0.952 . S
H231 C219 0.950 . S
N232 C235 1.382 . S
N232 C237 1.363 . S
N233 C235 1.371 . S
N233 C236 1.372 . S
N234 C236 1.361 . S
N234 C237 1.377 . S
C235 N232 1.382 . S
C235 N233 1.371 . S
C235 C238 1.480 . S
C236 N233 1.372 . S
C236 N234 1.361 . S
C236 C244 1.457 . S
C237 N232 1.363 . S
C237 N234 1.377 . S
C237 C250 1.479 . S
C238 C235 1.480 . S
C238 C239 1.383 . S
C238 C243 1.385 . S
C239 H220 0.947 . S
C239 C238 1.383 . S
C239 C240 1.388 . S
C240 H221 0.946 . S
C240 C239 1.388 . S
C240 C241 1.384 . S
C241 C240 1.384 . S
C241 C242 1.377 . S
C242 H222 0.953 . S
C242 C241 1.377 . S
C242 C243 1.369 . S
C243 H223 0.945 . S
C243 C238 1.385 . S
C243 C242 1.369 . S
C244 C236 1.457 . S
C244 C245 1.372 . S
C244 C249 1.364 . S
C245 H224 0.952 . S
C245 C244 1.372 . S
C245 C246 1.389 . S
C246 H225 0.949 . S
C246 C245 1.389 . S
C246 C247 1.387 . S
C247 C246 1.387 . S
C247 C248 1.372 . S
C248 H226 0.950 . S
C248 C247 1.372 . S
C248 C249 1.379 . S
C249 H227 0.948 . S
C249 C244 1.364 . S
C249 C248 1.379 . S
C250 C219 1.383 . S
C250 C237 1.479 . S
C250 C251 1.398 . S
C251 C216 1.382 . S
C251 H228 0.951 . S
C251 C250 1.398 . S
C252 C253 1.384 . S
C252 H265 0.947 . S
C252 C287 1.382 . S
C253 C252 1.384 . S
C253 C254 1.378 . S
C254 C253 1.378 . S
C254 C255 1.378 . S
C254 H266 0.952 . S
C255 C254 1.378 . S
C255 H267 0.950 . S
C255 C286 1.383 . S
H256 C275 0.947 . S
H257 C276 0.946 . S
H258 C278 0.953 . S
H259 C279 0.945 . S
H260 C281 0.952 . S
H261 C282 0.949 . S
H262 C284 0.950 . S
H263 C285 0.948 . S
H264 C287 0.951 . S
H265 C252 0.947 . S
H266 C254 0.952 . S
H267 C255 0.950 . S
N268 C271 1.382 . S
N268 C273 1.363 . S
N269 C271 1.371 . S
N269 C272 1.372 . S
N270 C272 1.361 . S
N270 C273 1.377 . S
C271 N268 1.382 . S
C271 N269 1.371 . S
C271 C274 1.480 . S
C272 N269 1.372 . S
C272 N270 1.361 . S
C272 C280 1.457 . S
C273 N268 1.363 . S
C273 N270 1.377 . S
C273 C286 1.479 . S
C274 C271 1.480 . S
C274 C275 1.383 . S
C274 C279 1.385 . S
C275 H256 0.947 . S
C275 C274 1.383 . S
C275 C276 1.388 . S
C276 H257 0.946 . S
C276 C275 1.388 . S
C276 C277 1.384 . S
C277 C276 1.384 . S
C277 C278 1.377 . S
C278 H258 0.953 . S
C278 C277 1.377 . S
C278 C279 1.369 . S
C279 H259 0.945 . S
C279 C274 1.385 . S
C279 C278 1.369 . S
C280 C272 1.457 . S
C280 C281 1.372 . S
C280 C285 1.364 . S
C281 H260 0.952 . S
C281 C280 1.372 . S
C281 C282 1.389 . S
C282 H261 0.949 . S
C282 C281 1.389 . S
C282 C283 1.387 . S
C283 C282 1.387 . S
C283 C284 1.372 . S
C284 H262 0.950 . S
C284 C283 1.372 . S
C284 C285 1.379 . S
C285 H263 0.948 . S
C285 C280 1.364 . S
C285 C284 1.379 . S
C286 C255 1.383 . S
C286 C273 1.479 . S
C286 C287 1.398 . S
C287 C252 1.382 . S
C287 H264 0.951 . S
C287 C286 1.398 . S
C288 C289 1.384 . S
C288 H301 0.947 . S
C288 C323 1.382 . S
C289 C288 1.384 . S
C289 C290 1.378 . S
C290 C289 1.378 . S
C290 C291 1.378 . S
C290 H302 0.952 . S
C291 C290 1.378 . S
C291 H303 0.950 . S
C291 C322 1.383 . S
H292 C311 0.947 . S
H293 C312 0.946 . S
H294 C314 0.953 . S
H295 C315 0.945 . S
H296 C317 0.952 . S
H297 C318 0.949 . S
H298 C320 0.950 . S
H299 C321 0.948 . S
H300 C323 0.951 . S
H301 C288 0.947 . S
H302 C290 0.952 . S
H303 C291 0.950 . S
N304 C307 1.382 . S
N304 C309 1.363 . S
N305 C307 1.371 . S
N305 C308 1.372 . S
N306 C308 1.361 . S
N306 C309 1.377 . S
C307 N304 1.382 . S
C307 N305 1.371 . S
C307 C310 1.480 . S
C308 N305 1.372 . S
C308 N306 1.361 . S
C308 C316 1.457 . S
C309 N304 1.363 . S
C309 N306 1.377 . S
C309 C322 1.479 . S
C310 C307 1.480 . S
C310 C311 1.383 . S
C310 C315 1.385 . S
C311 H292 0.947 . S
C311 C310 1.383 . S
C311 C312 1.388 . S
C312 H293 0.946 . S
C312 C311 1.388 . S
C312 C313 1.384 . S
C313 C312 1.384 . S
C313 C314 1.377 . S
C314 H294 0.953 . S
C314 C313 1.377 . S
C314 C315 1.369 . S
C315 H295 0.945 . S
C315 C310 1.385 . S
C315 C314 1.369 . S
C316 C308 1.457 . S
C316 C317 1.372 . S
C316 C321 1.364 . S
C317 H296 0.952 . S
C317 C316 1.372 . S
C317 C318 1.389 . S
C318 H297 0.949 . S
C318 C317 1.389 . S
C318 C319 1.387 . S
C319 C318 1.387 . S
C319 C320 1.372 . S
C320 H298 0.950 . S
C320 C319 1.372 . S
C320 C321 1.379 . S
C321 H299 0.948 . S
C321 C316 1.364 . S
C321 C320 1.379 . S
C322 C291 1.383 . S
C322 C309 1.479 . S
C322 C323 1.398 . S
C323 C288 1.382 . S
C323 H300 0.951 . S
C323 C322 1.398 . S
C324 C325 1.384 . S
C324 H337 0.947 . S
C324 C359 1.382 . S
C325 C324 1.384 . S
C325 C326 1.378 . S
C326 C325 1.378 . S
C326 C327 1.378 . S
C326 H338 0.952 . S
C327 C326 1.378 . S
C327 H339 0.950 . S
C327 C358 1.383 . S
H328 C347 0.947 . S
H329 C348 0.946 . S
H330 C350 0.953 . S
H331 C351 0.945 . S
H332 C353 0.952 . S
H333 C354 0.949 . S
H334 C356 0.950 . S
H335 C357 0.948 . S
H336 C359 0.951 . S
H337 C324 0.947 . S
H338 C326 0.952 . S
H339 C327 0.950 . S
N340 C343 1.382 . S
N340 C345 1.363 . S
N341 C343 1.371 . S
N341 C344 1.372 . S
N342 C344 1.361 . S
N342 C345 1.377 . S
C343 N340 1.382 . S
C343 N341 1.371 . S
C343 C346 1.480 . S
C344 N341 1.372 . S
C344 N342 1.361 . S
C344 C352 1.457 . S
C345 N340 1.363 . S
C345 N342 1.377 . S
C345 C358 1.479 . S
C346 C343 1.480 . S
C346 C347 1.383 . S
C346 C351 1.385 . S
C347 H328 0.947 . S
C347 C346 1.383 . S
C347 C348 1.388 . S
C348 H329 0.946 . S
C348 C347 1.388 . S
C348 C349 1.384 . S
C349 C348 1.384 . S
C349 C350 1.377 . S
C350 H330 0.953 . S
C350 C349 1.377 . S
C350 C351 1.369 . S
C351 H331 0.945 . S
C351 C346 1.385 . S
C351 C350 1.369 . S
C352 C344 1.457 . S
C352 C353 1.372 . S
C352 C357 1.364 . S
C353 H332 0.952 . S
C353 C352 1.372 . S
C353 C354 1.389 . S
C354 H333 0.949 . S
C354 C353 1.389 . S
C354 C355 1.387 . S
C355 C354 1.387 . S
C355 C356 1.372 . S
C356 H334 0.950 . S
C356 C355 1.372 . S
C356 C357 1.379 . S
C357 H335 0.948 . S
C357 C352 1.364 . S
C357 C356 1.379 . S
C358 C327 1.383 . S
C358 C345 1.479 . S
C358 C359 1.398 . S
C359 C324 1.382 . S
C359 H336 0.951 . S
C359 C358 1.398 . S
C360 C361 1.384 . S
C360 H373 0.947 . S
C360 C395 1.382 . S
C361 C360 1.384 . S
C361 C362 1.378 . S
C362 C361 1.378 . S
C362 C363 1.378 . S
C362 H374 0.952 . S
C363 C362 1.378 . S
C363 H375 0.950 . S
C363 C394 1.383 . S
H364 C383 0.947 . S
H365 C384 0.946 . S
H366 C386 0.953 . S
H367 C387 0.945 . S
H368 C389 0.952 . S
H369 C390 0.949 . S
H370 C392 0.950 . S
H371 C393 0.948 . S
H372 C395 0.951 . S
H373 C360 0.947 . S
H374 C362 0.952 . S
H375 C363 0.950 . S
N376 C379 1.382 . S
N376 C381 1.363 . S
N377 C379 1.371 . S
N377 C380 1.372 . S
N378 C380 1.361 . S
N378 C381 1.377 . S
C379 N376 1.382 . S
C379 N377 1.371 . S
C379 C382 1.480 . S
C380 N377 1.372 . S
C380 N378 1.361 . S
C380 C388 1.457 . S
C381 N376 1.363 . S
C381 N378 1.377 . S
C381 C394 1.479 . S
C382 C379 1.480 . S
C382 C383 1.383 . S
C382 C387 1.385 . S
C383 H364 0.947 . S
C383 C382 1.383 . S
C383 C384 1.388 . S
C384 H365 0.946 . S
C384 C383 1.388 . S
C384 C385 1.384 . S
C385 C384 1.384 . S
C385 C386 1.377 . S
C386 H366 0.953 . S
C386 C385 1.377 . S
C386 C387 1.369 . S
C387 H367 0.945 . S
C387 C382 1.385 . S
C387 C386 1.369 . S
C388 C380 1.457 . S
C388 C389 1.372 . S
C388 C393 1.364 . S
C389 H368 0.952 . S
C389 C388 1.372 . S
C389 C390 1.389 . S
C390 H369 0.949 . S
C390 C389 1.389 . S
C390 C391 1.387 . S
C391 C390 1.387 . S
C391 C392 1.372 . S
C392 H370 0.950 . S
C392 C391 1.372 . S
C392 C393 1.379 . S
C393 H371 0.948 . S
C393 C388 1.364 . S
C393 C392 1.379 . S
C394 C363 1.383 . S
C394 C381 1.479 . S
C394 C395 1.398 . S
C395 C360 1.382 . S
C395 H372 0.951 . S
C395 C394 1.398 . S
C396 C397 1.384 . S
C396 H409 0.947 . S
C396 C431 1.382 . S
C397 C396 1.384 . S
C397 C398 1.378 . S
C398 C397 1.378 . S
C398 C399 1.378 . S
C398 H410 0.952 . S
C399 C398 1.378 . S
C399 H411 0.950 . S
C399 C430 1.383 . S
H400 C419 0.947 . S
H401 C420 0.946 . S
H402 C422 0.953 . S
H403 C423 0.945 . S
H404 C425 0.952 . S
H405 C426 0.949 . S
H406 C428 0.950 . S
H407 C429 0.948 . S
H408 C431 0.951 . S
H409 C396 0.947 . S
H410 C398 0.952 . S
H411 C399 0.950 . S
N412 C415 1.382 . S
N412 C417 1.363 . S
N413 C415 1.371 . S
N413 C416 1.372 . S
N414 C416 1.361 . S
N414 C417 1.377 . S
C415 N412 1.382 . S
C415 N413 1.371 . S
C415 C418 1.480 . S
C416 N413 1.372 . S
C416 N414 1.361 . S
C416 C424 1.457 . S
C417 N412 1.363 . S
C417 N414 1.377 . S
C417 C430 1.479 . S
C418 C415 1.480 . S
C418 C419 1.383 . S
C418 C423 1.385 . S
C419 H400 0.947 . S
C419 C418 1.383 . S
C419 C420 1.388 . S
C420 H401 0.946 . S
C420 C419 1.388 . S
C420 C421 1.384 . S
C421 C420 1.384 . S
C421 C422 1.377 . S
C422 H402 0.953 . S
C422 C421 1.377 . S
C422 C423 1.369 . S
C423 H403 0.945 . S
C423 C418 1.385 . S
C423 C422 1.369 . S
C424 C416 1.457 . S
C424 C425 1.372 . S
C424 C429 1.364 . S
C425 H404 0.952 . S
C425 C424 1.372 . S
C425 C426 1.389 . S
C426 H405 0.949 . S
C426 C425 1.389 . S
C426 C427 1.387 . S
C427 C426 1.387 . S
C427 C428 1.372 . S
C428 H406 0.950 . S
C428 C427 1.372 . S
C428 C429 1.379 . S
C429 H407 0.948 . S
C429 C424 1.364 . S
C429 C428 1.379 . S
C430 C399 1.383 . S
C430 C417 1.479 . S
C430 C431 1.398 . S
C431 C396 1.382 . S
C431 H408 0.951 . S
C431 C430 1.398 . S
C432 C433 1.384 . S
C432 H445 0.947 . S
C432 C467 1.382 . S
C433 C432 1.384 . S
C433 C434 1.378 . S
C434 C433 1.378 . S
C434 C435 1.378 . S
C434 H446 0.952 . S
C435 C434 1.378 . S
C435 H447 0.950 . S
C435 C466 1.383 . S
H436 C455 0.947 . S
H437 C456 0.946 . S
H438 C458 0.953 . S
H439 C459 0.945 . S
H440 C461 0.952 . S
H441 C462 0.949 . S
H442 C464 0.950 . S
H443 C465 0.948 . S
H444 C467 0.951 . S
H445 C432 0.947 . S
H446 C434 0.952 . S
H447 C435 0.950 . S
N448 C451 1.382 . S
N448 C453 1.363 . S
N449 C451 1.371 . S
N449 C452 1.372 . S
N450 C452 1.361 . S
N450 C453 1.377 . S
C451 N448 1.382 . S
C451 N449 1.371 . S
C451 C454 1.480 . S
C452 N449 1.372 . S
C452 N450 1.361 . S
C452 C460 1.457 . S
C453 N448 1.363 . S
C453 N450 1.377 . S
C453 C466 1.479 . S
C454 C451 1.480 . S
C454 C455 1.383 . S
C454 C459 1.385 . S
C455 H436 0.947 . S
C455 C454 1.383 . S
C455 C456 1.388 . S
C456 H437 0.946 . S
C456 C455 1.388 . S
C456 C457 1.384 . S
C457 C456 1.384 . S
C457 C458 1.377 . S
C458 H438 0.953 . S
C458 C457 1.377 . S
C458 C459 1.369 . S
C459 H439 0.945 . S
C459 C454 1.385 . S
C459 C458 1.369 . S
C460 C452 1.457 . S
C460 C461 1.372 . S
C460 C465 1.364 . S
C461 H440 0.952 . S
C461 C460 1.372 . S
C461 C462 1.389 . S
C462 H441 0.949 . S
C462 C461 1.389 . S
C462 C463 1.387 . S
C463 C462 1.387 . S
C463 C464 1.372 . S
C464 H442 0.950 . S
C464 C463 1.372 . S
C464 C465 1.379 . S
C465 H443 0.948 . S
C465 C460 1.364 . S
C465 C464 1.379 . S
C466 C435 1.383 . S
C466 C453 1.479 . S
C466 C467 1.398 . S
C467 C432 1.382 . S
C467 H444 0.951 . S
C467 C466 1.398 . S
C468 C469 1.384 . S
C468 H481 0.947 . S
C468 C503 1.382 . S
C469 C468 1.384 . S
C469 C470 1.378 . S
C470 C469 1.378 . S
C470 C471 1.378 . S
C470 H482 0.952 . S
C471 C470 1.378 . S
C471 H483 0.950 . S
C471 C502 1.383 . S
H472 C491 0.947 . S
H473 C492 0.946 . S
H474 C494 0.953 . S
H475 C495 0.945 . S
H476 C497 0.952 . S
H477 C498 0.949 . S
H478 C500 0.950 . S
H479 C501 0.948 . S
H480 C503 0.951 . S
H481 C468 0.947 . S
H482 C470 0.952 . S
H483 C471 0.950 . S
N484 C487 1.382 . S
N484 C489 1.363 . S
N485 C487 1.371 . S
N485 C488 1.372 . S
N486 C488 1.361 . S
N486 C489 1.377 . S
C487 N484 1.382 . S
C487 N485 1.371 . S
C487 C490 1.480 . S
C488 N485 1.372 . S
C488 N486 1.361 . S
C488 C496 1.457 . S
C489 N484 1.363 . S
C489 N486 1.377 . S
C489 C502 1.479 . S
C490 C487 1.480 . S
C490 C491 1.383 . S
C490 C495 1.385 . S
C491 H472 0.947 . S
C491 C490 1.383 . S
C491 C492 1.388 . S
C492 H473 0.946 . S
C492 C491 1.388 . S
C492 C493 1.384 . S
C493 C492 1.384 . S
C493 C494 1.377 . S
C494 H474 0.953 . S
C494 C493 1.377 . S
C494 C495 1.369 . S
C495 H475 0.945 . S
C495 C490 1.385 . S
C495 C494 1.369 . S
C496 C488 1.457 . S
C496 C497 1.372 . S
C496 C501 1.364 . S
C497 H476 0.952 . S
C497 C496 1.372 . S
C497 C498 1.389 . S
C498 H477 0.949 . S
C498 C497 1.389 . S
C498 C499 1.387 . S
C499 C498 1.387 . S
C499 C500 1.372 . S
C500 H478 0.950 . S
C500 C499 1.372 . S
C500 C501 1.379 . S
C501 H479 0.948 . S
C501 C496 1.364 . S
C501 C500 1.379 . S
C502 C471 1.383 . S
C502 C489 1.479 . S
C502 C503 1.398 . S
C503 C468 1.382 . S
C503 H480 0.951 . S
C503 C502 1.398 . S
C504 C505 1.384 . S
C504 H517 0.947 . S
C504 C539 1.382 . S
C505 C504 1.384 . S
C505 C506 1.378 . S
C506 C505 1.378 . S
C506 C507 1.378 . S
C506 H518 0.952 . S
C507 C506 1.378 . S
C507 H519 0.950 . S
C507 C538 1.383 . S
H508 C527 0.947 . S
H509 C528 0.946 . S
H510 C530 0.953 . S
H511 C531 0.945 . S
H512 C533 0.952 . S
H513 C534 0.949 . S
H514 C536 0.950 . S
H515 C537 0.948 . S
H516 C539 0.951 . S
H517 C504 0.947 . S
H518 C506 0.952 . S
H519 C507 0.950 . S
N520 C523 1.382 . S
N520 C525 1.363 . S
N521 C523 1.371 . S
N521 C524 1.372 . S
N522 C524 1.361 . S
N522 C525 1.377 . S
C523 N520 1.382 . S
C523 N521 1.371 . S
C523 C526 1.480 . S
C524 N521 1.372 . S
C524 N522 1.361 . S
C524 C532 1.457 . S
C525 N520 1.363 . S
C525 N522 1.377 . S
C525 C538 1.479 . S
C526 C523 1.480 . S
C526 C527 1.383 . S
C526 C531 1.385 . S
C527 H508 0.947 . S
C527 C526 1.383 . S
C527 C528 1.388 . S
C528 H509 0.946 . S
C528 C527 1.388 . S
C528 C529 1.384 . S
C529 C528 1.384 . S
C529 C530 1.377 . S
C530 H510 0.953 . S
C530 C529 1.377 . S
C530 C531 1.369 . S
C531 H511 0.945 . S
C531 C526 1.385 . S
C531 C530 1.369 . S
C532 C524 1.457 . S
C532 C533 1.372 . S
C532 C537 1.364 . S
C533 H512 0.952 . S
C533 C532 1.372 . S
C533 C534 1.389 . S
C534 H513 0.949 . S
C534 C533 1.389 . S
C534 C535 1.387 . S
C535 C534 1.387 . S
C535 C536 1.372 . S
C536 H514 0.950 . S
C536 C535 1.372 . S
C536 C537 1.379 . S
C537 H515 0.948 . S
C537 C532 1.364 . S
C537 C536 1.379 . S
C538 C507 1.383 . S
C538 C525 1.479 . S
C538 C539 1.398 . S
C539 C504 1.382 . S
C539 H516 0.951 . S
C539 C538 1.398 . S
C540 C541 1.384 . S
C540 H553 0.947 . S
C540 C575 1.382 . S
C541 C540 1.384 . S
C541 C542 1.378 . S
C542 C541 1.378 . S
C542 C543 1.378 . S
C542 H554 0.952 . S
C543 C542 1.378 . S
C543 H555 0.950 . S
C543 C574 1.383 . S
H544 C563 0.947 . S
H545 C564 0.946 . S
H546 C566 0.953 . S
H547 C567 0.945 . S
H548 C569 0.952 . S
H549 C570 0.949 . S
H550 C572 0.950 . S
H551 C573 0.948 . S
H552 C575 0.951 . S
H553 C540 0.947 . S
H554 C542 0.952 . S
H555 C543 0.950 . S
N556 C559 1.382 . S
N556 C561 1.363 . S
N557 C559 1.371 . S
N557 C560 1.372 . S
N558 C560 1.361 . S
N558 C561 1.377 . S
C559 N556 1.382 . S
C559 N557 1.371 . S
C559 C562 1.480 . S
C560 N557 1.372 . S
C560 N558 1.361 . S
C560 C568 1.457 . S
C561 N556 1.363 . S
C561 N558 1.377 . S
C561 C574 1.479 . S
C562 C559 1.480 . S
C562 C563 1.383 . S
C562 C567 1.385 . S
C563 H544 0.947 . S
C563 C562 1.383 . S
C563 C564 1.388 . S
C564 H545 0.946 . S
C564 C563 1.388 . S
C564 C565 1.384 . S
C565 C564 1.384 . S
C565 C566 1.377 . S
C566 H546 0.953 . S
C566 C565 1.377 . S
C566 C567 1.369 . S
C567 H547 0.945 . S
C567 C562 1.385 . S
C567 C566 1.369 . S
C568 C560 1.457 . S
C568 C569 1.372 . S
C568 C573 1.364 . S
C569 H548 0.952 . S
C569 C568 1.372 . S
C569 C570 1.389 . S
C570 H549 0.949 . S
C570 C569 1.389 . S
C570 C571 1.387 . S
C571 C570 1.387 . S
C571 C572 1.372 . S
C572 H550 0.950 . S
C572 C571 1.372 . S
C572 C573 1.379 . S
C573 H551 0.948 . S
C573 C568 1.364 . S
C573 C572 1.379 . S
C574 C543 1.383 . S
C574 C561 1.479 . S
C574 C575 1.398 . S
C575 C540 1.382 . S
C575 H552 0.951 . S
C575 C574 1.398 . S
C576 C577 1.384 . S
C576 H589 0.947 . S
C576 C611 1.382 . S
C577 C576 1.384 . S
C577 C578 1.378 . S
C578 C577 1.378 . S
C578 C579 1.378 . S
C578 H590 0.952 . S
C579 C578 1.378 . S
C579 H591 0.950 . S
C579 C610 1.383 . S
H580 C599 0.947 . S
H581 C600 0.946 . S
H582 C602 0.953 . S
H583 C603 0.945 . S
H584 C605 0.952 . S
H585 C606 0.949 . S
H586 C608 0.950 . S
H587 C609 0.948 . S
H588 C611 0.951 . S
H589 C576 0.947 . S
H590 C578 0.952 . S
H591 C579 0.950 . S
N592 C595 1.382 . S
N592 C597 1.363 . S
N593 C595 1.371 . S
N593 C596 1.372 . S
N594 C596 1.361 . S
N594 C597 1.377 . S
C595 N592 1.382 . S
C595 N593 1.371 . S
C595 C598 1.480 . S
C596 N593 1.372 . S
C596 N594 1.361 . S
C596 C604 1.457 . S
C597 N592 1.363 . S
C597 N594 1.377 . S
C597 C610 1.479 . S
C598 C595 1.480 . S
C598 C599 1.383 . S
C598 C603 1.385 . S
C599 H580 0.947 . S
C599 C598 1.383 . S
C599 C600 1.388 . S
C600 H581 0.946 . S
C600 C599 1.388 . S
C600 C601 1.384 . S
C601 C600 1.384 . S
C601 C602 1.377 . S
C602 H582 0.953 . S
C602 C601 1.377 . S
C602 C603 1.369 . S
C603 H583 0.945 . S
C603 C598 1.385 . S
C603 C602 1.369 . S
C604 C596 1.457 . S
C604 C605 1.372 . S
C604 C609 1.364 . S
C605 H584 0.952 . S
C605 C604 1.372 . S
C605 C606 1.389 . S
C606 H585 0.949 . S
C606 C605 1.389 . S
C606 C607 1.387 . S
C607 C606 1.387 . S
C607 C608 1.372 . S
C608 H586 0.950 . S
C608 C607 1.372 . S
C608 C609 1.379 . S
C609 H587 0.948 . S
C609 C604 1.364 . S
C609 C608 1.379 . S
C610 C579 1.383 . S
C610 C597 1.479 . S
C610 C611 1.398 . S
C611 C576 1.382 . S
C611 H588 0.951 . S
C611 C610 1.398 . S
C612 C613 1.384 . S
C612 H625 0.947 . S
C612 C647 1.382 . S
C613 C612 1.384 . S
C613 C614 1.378 . S
C614 C613 1.378 . S
C614 C615 1.378 . S
C614 H626 0.952 . S
C615 C614 1.378 . S
C615 H627 0.950 . S
C615 C646 1.383 . S
H616 C635 0.947 . S
H617 C636 0.946 . S
H618 C638 0.953 . S
H619 C639 0.945 . S
H620 C641 0.952 . S
H621 C642 0.949 . S
H622 C644 0.950 . S
H623 C645 0.948 . S
H624 C647 0.951 . S
H625 C612 0.947 . S
H626 C614 0.952 . S
H627 C615 0.950 . S
N628 C631 1.382 . S
N628 C633 1.363 . S
N629 C631 1.371 . S
N629 C632 1.372 . S
N630 C632 1.361 . S
N630 C633 1.377 . S
C631 N628 1.382 . S
C631 N629 1.371 . S
C631 C634 1.480 . S
C632 N629 1.372 . S
C632 N630 1.361 . S
C632 C640 1.457 . S
C633 N628 1.363 . S
C633 N630 1.377 . S
C633 C646 1.479 . S
C634 C631 1.480 . S
C634 C635 1.383 . S
C634 C639 1.385 . S
C635 H616 0.947 . S
C635 C634 1.383 . S
C635 C636 1.388 . S
C636 H617 0.946 . S
C636 C635 1.388 . S
C636 C637 1.384 . S
C637 C636 1.384 . S
C637 C638 1.377 . S
C638 H618 0.953 . S
C638 C637 1.377 . S
C638 C639 1.369 . S
C639 H619 0.945 . S
C639 C634 1.385 . S
C639 C638 1.369 . S
C640 C632 1.457 . S
C640 C641 1.372 . S
C640 C645 1.364 . S
C641 H620 0.952 . S
C641 C640 1.372 . S
C641 C642 1.389 . S
C642 H621 0.949 . S
C642 C641 1.389 . S
C642 C643 1.387 . S
C643 C642 1.387 . S
C643 C644 1.372 . S
C644 H622 0.950 . S
C644 C643 1.372 . S
C644 C645 1.379 . S
C645 H623 0.948 . S
C645 C640 1.364 . S
C645 C644 1.379 . S
C646 C615 1.383 . S
C646 C633 1.479 . S
C646 C647 1.398 . S
C647 C612 1.382 . S
C647 H624 0.951 . S
C647 C646 1.398 . S
Tb648 O651 2.453 . S
Tb648 O652 2.596 1_545 S
Tb648 O653 2.374 1_545 S
Tb648 O661 2.343 1_554 S
Tb648 O663 2.353 . S
Tb648 O665 2.427 1_554 S
Tb648 O666 2.513 1_554 S
C649 O653 1.251 . S
C649 O655 1.271 . S
Tb650 O652 2.343 1_556 S
Tb650 O655 2.350 1_556 S
Tb650 O658 2.427 1_556 S
Tb650 O659 2.513 1_556 S
Tb650 O660 2.453 . S
Tb650 O661 2.596 1_565 S
Tb650 O662 2.374 1_565 S
O651 Tb648 2.453 . S
O651 C667 1.245 . S
O652 Tb648 2.596 1_565 S
O652 Tb650 2.343 1_554 S
O652 C667 1.259 1_565 S
O653 Tb648 2.374 1_565 S
O653 C649 1.251 . S
C654 O658 1.275 . S
C654 O659 1.246 . S
O655 C649 1.271 . S
O655 Tb650 2.350 1_554 S
C656 O660 1.245 . S
C656 O661 1.259 1_565 S
C657 O662 1.250 . S
C657 O663 1.263 1_556 S
O658 Tb650 2.427 1_554 S
O658 C654 1.275 . S
O659 Tb650 2.513 1_554 S
O659 C654 1.246 . S
O660 Tb650 2.453 . S
O660 C656 1.245 . S
O661 Tb648 2.343 1_556 S
O661 Tb650 2.596 1_545 S
O661 C656 1.259 1_545 S
O662 Tb650 2.374 1_545 S
O662 C657 1.250 . S
O663 Tb648 2.353 . S
O663 C657 1.263 1_554 S
C664 O665 1.275 . S
C664 O666 1.246 . S
O665 Tb648 2.427 1_556 S
O665 C664 1.275 . S
O666 Tb648 2.513 1_556 S
O666 C664 1.246 . S
C667 O651 1.245 . S
C667 O652 1.259 1_545 S
Tb668 O671 2.453 . S
Tb668 O672 2.596 1_655 S
Tb668 O673 2.374 1_655 S
Tb668 O681 2.343 1_554 S
Tb668 O683 2.353 . S
Tb668 O685 2.427 1_554 S
Tb668 O686 2.513 1_554 S
C669 O673 1.251 . S
C669 O675 1.263 . S
Tb670 O672 2.343 1_556 S
Tb670 O675 2.353 1_556 S
Tb670 O678 2.427 1_556 S
Tb670 O679 2.513 1_556 S
Tb670 O680 2.453 . S
Tb670 O681 2.596 1_455 S
Tb670 O682 2.374 1_455 S
O671 Tb668 2.453 . S
O671 C687 1.245 1_655 S
O672 Tb668 2.596 1_455 S
O672 Tb670 2.343 1_554 S
O672 C687 1.259 . S
O673 Tb668 2.374 1_455 S
O673 C669 1.251 . S
C674 O678 1.275 . S
C674 O679 1.246 . S
O675 C669 1.263 . S
O675 Tb670 2.353 1_554 S
C676 O680 1.217 1_655 S
C676 O681 1.270 . S
C677 O682 1.250 . S
C677 O683 1.263 1_556 S
O678 Tb670 2.427 1_554 S
O678 C674 1.275 . S
O679 Tb670 2.513 1_554 S
O679 C674 1.246 . S
O680 Tb670 2.453 . S
O680 C676 1.217 1_455 S
O681 Tb668 2.343 1_556 S
O681 Tb670 2.596 1_655 S
O681 C676 1.270 . S
O682 Tb670 2.374 1_655 S
O682 C677 1.250 . S
O683 Tb668 2.353 . S
O683 C677 1.263 1_554 S
C684 O685 1.275 . S
C684 O686 1.246 . S
O685 Tb668 2.427 1_556 S
O685 C684 1.275 . S
O686 Tb668 2.513 1_556 S
O686 C684 1.246 . S
C687 O671 1.245 1_455 S
C687 O672 1.259 . S
Tb688 O691 2.453 . S
Tb688 O692 2.596 . S
Tb688 O693 2.374 . S
Tb688 O701 2.343 1_556 S
Tb688 O703 2.353 1_556 S
Tb688 O705 2.427 1_556 S
Tb688 O706 2.513 1_556 S
C689 O693 1.251 . S
C689 O695 1.263 1_556 S
Tb690 O692 2.343 1_554 S
Tb690 O695 2.353 . S
Tb690 O698 2.427 1_554 S
Tb690 O699 2.513 1_554 S
Tb690 O700 2.453 . S
Tb690 O701 2.596 . S
Tb690 O702 2.374 . S
O691 Tb688 2.453 . S
O691 C707 1.245 . S
O692 Tb688 2.596 . S
O692 Tb690 2.343 1_556 S
O692 C707 1.259 . S
O693 Tb688 2.374 . S
O693 C689 1.251 . S
C694 O698 1.275 . S
C694 O699 1.246 . S
O695 C689 1.263 1_554 S
O695 Tb690 2.353 . S
C696 O700 1.245 . S
C696 O701 1.259 . S
C697 O702 1.250 . S
C697 O703 1.263 . S
O698 Tb690 2.427 1_556 S
O698 C694 1.275 . S
O699 Tb690 2.513 1_556 S
O699 C694 1.246 . S
O700 Tb690 2.453 . S
O700 C696 1.245 . S
O701 Tb688 2.343 1_554 S
O701 Tb690 2.596 . S
O701 C696 1.259 . S
O702 Tb690 2.374 . S
O702 C697 1.250 . S
O703 Tb688 2.353 1_554 S
O703 C697 1.263 . S
C704 O705 1.275 . S
C704 O706 1.246 . S
O705 Tb688 2.427 1_554 S
O705 C704 1.275 . S
O706 Tb688 2.513 1_554 S
O706 C704 1.246 . S
C707 O691 1.245 . S
C707 O692 1.259 . S
Tb708 O711 2.453 . S
Tb708 O712 2.596 . S
Tb708 O713 2.374 . S
Tb708 O721 2.343 . S
Tb708 O723 2.353 . S
Tb708 O725 2.427 . S
Tb708 O726 2.513 . S
C709 O713 1.251 . S
C709 O715 1.263 . S
Tb710 O712 2.343 . S
Tb710 O715 2.353 . S
Tb710 O718 2.427 . S
Tb710 O719 2.513 . S
Tb710 O720 2.453 . S
Tb710 O721 2.596 . S
Tb710 O722 2.374 . S
O711 Tb708 2.453 . S
O711 C727 1.245 . S
O712 Tb708 2.596 . S
O712 Tb710 2.343 . S
O712 C727 1.259 . S
O713 Tb708 2.374 . S
O713 C709 1.251 . S
C714 O718 1.275 . S
C714 O719 1.246 . S
O715 C709 1.263 . S
O715 Tb710 2.353 . S
C716 O720 1.245 . S
C716 O721 1.259 . S
C717 O722 1.250 . S
C717 O723 1.263 . S
O718 Tb710 2.427 . S
O718 C714 1.275 . S
O719 Tb710 2.513 . S
O719 C714 1.246 . S
O720 Tb710 2.453 . S
O720 C716 1.245 . S
O721 Tb708 2.343 . S
O721 Tb710 2.596 . S
O721 C716 1.259 . S
O722 Tb710 2.374 . S
O722 C717 1.250 . S
O723 Tb708 2.353 . S
O723 C717 1.263 . S
C724 O725 1.275 . S
C724 O726 1.246 . S
O725 Tb708 2.427 . S
O725 C724 1.275 . S
O726 Tb708 2.513 . S
O726 C724 1.246 . S
C727 O711 1.245 . S
C727 O712 1.259 . S
Tb728 O731 2.453 . S
Tb728 O732 2.596 . S
Tb728 O733 2.374 . S
Tb728 O741 2.343 . S
Tb728 O743 2.353 . S
Tb728 O745 2.427 . S
Tb728 O746 2.513 . S
C729 O733 1.251 . S
C729 O735 1.263 . S
Tb730 O732 2.343 . S
Tb730 O735 2.353 . S
Tb730 O738 2.427 . S
Tb730 O739 2.513 . S
Tb730 O740 2.453 . S
Tb730 O741 2.596 . S
Tb730 O742 2.374 . S
O731 Tb728 2.453 . S
O731 C747 1.245 . S
O732 Tb728 2.596 . S
O732 Tb730 2.343 . S
O732 C747 1.259 . S
O733 Tb728 2.374 . S
O733 C729 1.251 . S
C734 O738 1.275 . S
C734 O739 1.246 . S
O735 C729 1.263 . S
O735 Tb730 2.353 . S
C736 O740 1.245 . S
C736 O741 1.259 . S
C737 O742 1.250 . S
C737 O743 1.263 . S
O738 Tb730 2.427 . S
O738 C734 1.275 . S
O739 Tb730 2.513 . S
O739 C734 1.246 . S
O740 Tb730 2.453 . S
O740 C736 1.245 . S
O741 Tb728 2.343 . S
O741 Tb730 2.596 . S
O741 C736 1.259 . S
O742 Tb730 2.374 . S
O742 C737 1.250 . S
O743 Tb728 2.353 . S
O743 C737 1.263 . S
C744 O745 1.275 . S
C744 O746 1.246 . S
O745 Tb728 2.427 . S
O745 C744 1.275 . S
O746 Tb728 2.513 . S
O746 C744 1.246 . S
C747 O731 1.245 . S
C747 O732 1.259 . S
Tb748 O751 2.453 . S
Tb748 O752 2.596 . S
Tb748 O753 2.374 . S
Tb748 O761 2.343 . S
Tb748 O763 2.353 . S
Tb748 O765 2.427 . S
Tb748 O766 2.513 . S
C749 O753 1.251 . S
C749 O755 1.263 . S
Tb750 O752 2.343 . S
Tb750 O755 2.353 . S
Tb750 O758 2.427 . S
Tb750 O759 2.513 . S
Tb750 O760 2.453 . S
Tb750 O761 2.596 . S
Tb750 O762 2.374 . S
O751 Tb748 2.453 . S
O751 C767 1.245 . S
O752 Tb748 2.596 . S
O752 Tb750 2.343 . S
O752 C767 1.259 . S
O753 Tb748 2.374 . S
O753 C749 1.251 . S
C754 O758 1.275 . S
C754 O759 1.246 . S
O755 C749 1.263 . S
O755 Tb750 2.353 . S
C756 O760 1.245 . S
C756 O761 1.259 . S
C757 O762 1.250 . S
C757 O763 1.263 . S
O758 Tb750 2.427 . S
O758 C754 1.275 . S
O759 Tb750 2.513 . S
O759 C754 1.246 . S
O760 Tb750 2.453 . S
O760 C756 1.245 . S
O761 Tb748 2.343 . S
O761 Tb750 2.596 . S
O761 C756 1.259 . S
O762 Tb750 2.374 . S
O762 C757 1.250 . S
O763 Tb748 2.353 . S
O763 C757 1.263 . S
C764 O765 1.275 . S
C764 O766 1.246 . S
O765 Tb748 2.427 . S
O765 C764 1.275 . S
O766 Tb748 2.513 . S
O766 C764 1.246 . S
C767 O751 1.245 . S
C767 O752 1.259 . S
Tb768 O771 2.453 . S
Tb768 O772 2.596 . S
Tb768 O773 2.374 . S
Tb768 O781 2.343 . S
Tb768 O783 2.353 . S
Tb768 O785 2.427 . S
Tb768 O786 2.513 . S
C769 O773 1.251 . S
C769 O775 1.263 . S
Tb770 O772 2.343 . S
Tb770 O775 2.353 . S
Tb770 O778 2.427 . S
Tb770 O779 2.513 . S
Tb770 O780 2.453 . S
Tb770 O781 2.596 . S
Tb770 O782 2.374 . S
O771 Tb768 2.453 . S
O771 C787 1.245 . S
O772 Tb768 2.596 . S
O772 Tb770 2.343 . S
O772 C787 1.259 . S
O773 Tb768 2.374 . S
O773 C769 1.251 . S
C774 O778 1.275 . S
C774 O779 1.246 . S
O775 C769 1.263 . S
O775 Tb770 2.353 . S
C776 O780 1.245 . S
C776 O781 1.259 . S
C777 O782 1.250 . S
C777 O783 1.263 . S
O778 Tb770 2.427 . S
O778 C774 1.275 . S
O779 Tb770 2.513 . S
O779 C774 1.246 . S
O780 Tb770 2.453 . S
O780 C776 1.245 . S
O781 Tb768 2.343 . S
O781 Tb770 2.596 . S
O781 C776 1.259 . S
O782 Tb770 2.374 . S
O782 C777 1.250 . S
O783 Tb768 2.353 . S
O783 C777 1.263 . S
C784 O785 1.275 . S
C784 O786 1.246 . S
O785 Tb768 2.427 . S
O785 C784 1.275 . S
O786 Tb768 2.513 . S
O786 C784 1.246 . S
C787 O771 1.245 . S
C787 O772 1.259 . S
Tb788 O791 2.453 . S
Tb788 O792 2.596 . S
Tb788 O793 2.374 . S
Tb788 O801 2.343 . S
Tb788 O803 2.353 . S
Tb788 O805 2.427 . S
Tb788 O806 2.513 . S
C789 O793 1.251 . S
C789 O795 1.263 . S
Tb790 O792 2.343 . S
Tb790 O795 2.353 . S
Tb790 O798 2.427 . S
Tb790 O799 2.513 . S
Tb790 O800 2.453 . S
Tb790 O801 2.596 . S
Tb790 O802 2.374 . S
O791 Tb788 2.453 . S
O791 C807 1.245 . S
O792 Tb788 2.596 . S
O792 Tb790 2.343 . S
O792 C807 1.259 . S
O793 Tb788 2.374 . S
O793 C789 1.251 . S
C794 O798 1.275 . S
C794 O799 1.246 . S
O795 C789 1.263 . S
O795 Tb790 2.353 . S
C796 O800 1.245 . S
C796 O801 1.259 . S
C797 O802 1.250 . S
C797 O803 1.263 . S
O798 Tb790 2.427 . S
O798 C794 1.275 . S
O799 Tb790 2.513 . S
O799 C794 1.246 . S
O800 Tb790 2.453 . S
O800 C796 1.245 . S
O801 Tb788 2.343 . S
O801 Tb790 2.596 . S
O801 C796 1.259 . S
O802 Tb790 2.374 . S
O802 C797 1.250 . S
O803 Tb788 2.353 . S
O803 C797 1.263 . S
C804 O805 1.275 . S
C804 O806 1.246 . S
O805 Tb788 2.427 . S
O805 C804 1.275 . S
O806 Tb788 2.513 . S
O806 C804 1.246 . S
C807 O791 1.245 . S
C807 O792 1.259 . S
Tb808 O811 2.453 . S
Tb808 O812 2.596 . S
Tb808 O813 2.374 . S
Tb808 O821 2.343 . S
Tb808 O823 2.353 . S
Tb808 O825 2.427 . S
Tb808 O826 2.513 . S
C809 O813 1.251 . S
C809 O815 1.263 . S
Tb810 O812 2.343 . S
Tb810 O815 2.353 . S
Tb810 O818 2.427 . S
Tb810 O819 2.513 . S
Tb810 O820 2.453 . S
Tb810 O821 2.596 . S
Tb810 O822 2.374 . S
O811 Tb808 2.453 . S
O811 C827 1.245 . S
O812 Tb808 2.596 . S
O812 Tb810 2.343 . S
O812 C827 1.259 . S
O813 Tb808 2.374 . S
O813 C809 1.251 . S
C814 O818 1.275 . S
C814 O819 1.246 . S
O815 C809 1.263 . S
O815 Tb810 2.353 . S
C816 O820 1.245 . S
C816 O821 1.259 . S
C817 O822 1.250 . S
C817 O823 1.263 . S
O818 Tb810 2.427 . S
O818 C814 1.275 . S
O819 Tb810 2.513 . S
O819 C814 1.246 . S
O820 Tb810 2.453 . S
O820 C816 1.245 . S
O821 Tb808 2.343 . S
O821 Tb810 2.596 . S
O821 C816 1.259 . S
O822 Tb810 2.374 . S
O822 C817 1.250 . S
O823 Tb808 2.353 . S
O823 C817 1.263 . S
C824 O825 1.275 . S
C824 O826 1.246 . S
O825 Tb808 2.427 . S
O825 C824 1.275 . S
O826 Tb808 2.513 . S
O826 C824 1.246 . S
C827 O811 1.245 . S
C827 O812 1.259 . S
C828 C829 1.387 . S
C828 H832 0.950 . S
C828 C837 1.390 . S
C829 C828 1.387 . S
C829 C831 1.387 . S
H830 C837 0.950 . S
C831 C829 1.387 . S
C831 C833 1.390 . S
C831 H835 0.950 . S
H832 C828 0.950 . S
C833 C831 1.390 . S
C833 C834 1.387 . S
C833 H836 0.950 . S
C834 C833 1.387 . S
C834 C837 1.387 . S
H835 C831 0.950 . S
H836 C833 0.950 . S
C837 C828 1.390 . S
C837 H830 0.950 . S
C837 C834 1.387 . S
C838 C839 1.387 . S
C838 H842 0.950 . S
C838 C847 1.390 . S
C839 C838 1.387 . S
C839 C841 1.387 . S
H840 C847 0.950 . S
C841 C839 1.387 . S
C841 C843 1.390 . S
C841 H845 0.950 . S
H842 C838 0.950 . S
C843 C841 1.390 . S
C843 C844 1.387 . S
C843 H846 0.950 . S
C844 C843 1.387 . S
C844 C847 1.387 . S
H845 C841 0.950 . S
H846 C843 0.950 . S
C847 C838 1.390 . S
C847 H840 0.950 . S
C847 C844 1.387 . S
C848 C849 1.387 . S
C848 H852 0.950 . S
C848 C857 1.390 . S
C849 C848 1.387 . S
C849 C851 1.387 . S
H850 C857 0.950 . S
C851 C849 1.387 . S
C851 C853 1.390 . S
C851 H855 0.950 . S
H852 C848 0.950 . S
C853 C851 1.390 . S
C853 C854 1.387 . S
C853 H856 0.950 . S
C854 C853 1.387 . S
C854 C857 1.387 . S
H855 C851 0.950 . S
H856 C853 0.950 . S
C857 C848 1.390 . S
C857 H850 0.950 . S
C857 C854 1.387 . S
C858 C859 1.387 . S
C858 H862 0.950 . S
C858 C867 1.390 . S
C859 C858 1.387 . S
C859 C861 1.387 . S
H860 C867 0.950 . S
C861 C859 1.387 . S
C861 C863 1.390 . S
C861 H865 0.950 1_556 S
H862 C858 0.950 . S
C863 C861 1.390 . S
C863 C864 1.387 . S
C863 H866 0.950 1_556 S
C864 C863 1.387 . S
C864 C867 1.387 . S
H865 C861 0.950 1_554 S
H866 C863 0.950 1_554 S
C867 C858 1.390 . S
C867 H860 0.950 . S
C867 C864 1.387 . S
C868 C869 1.387 . S
C868 H872 0.950 . S
C868 C877 1.390 . S
C869 C868 1.387 . S
C869 C871 1.387 . S
H870 C877 0.950 . S
C871 C869 1.387 . S
C871 C873 1.390 . S
C871 H875 0.950 . S
H872 C868 0.950 . S
C873 C871 1.390 . S
C873 C874 1.387 . S
C873 H876 0.950 . S
C874 C873 1.387 . S
C874 C877 1.387 . S
H875 C871 0.950 . S
H876 C873 0.950 . S
C877 C868 1.390 . S
C877 H870 0.950 . S
C877 C874 1.387 . S
C878 C879 1.387 . S
C878 H882 0.950 . S
C878 C887 1.390 . S
C879 C878 1.387 . S
C879 C881 1.387 . S
H880 C887 0.950 . S
C881 C879 1.387 . S
C881 C883 1.390 . S
C881 H885 0.950 . S
H882 C878 0.950 . S
C883 C881 1.390 . S
C883 C884 1.387 . S
C883 H886 0.981 . S
C884 C883 1.387 . S
C884 C887 1.387 . S
H885 C881 0.950 . S
H886 C883 0.981 . S
C887 C878 1.390 . S
C887 H880 0.950 . S
C887 C884 1.387 . S
C888 C889 1.387 . S
C888 H892 0.950 . S
C888 C897 1.390 . S
C889 C888 1.387 . S
C889 C891 1.387 . S
H890 C897 0.950 . S
C891 C889 1.387 . S
C891 C893 1.390 . S
C891 H895 0.950 . S
H892 C888 0.950 . S
C893 C891 1.390 . S
C893 C894 1.387 . S
C893 H896 0.950 . S
C894 C893 1.387 . S
C894 C897 1.387 . S
H895 C891 0.950 . S
H896 C893 0.950 . S
C897 C888 1.390 . S
C897 H890 0.950 . S
C897 C894 1.387 . S
C898 C899 1.387 . S
C898 H902 0.950 . S
C898 C907 1.390 . S
C899 C898 1.387 . S
C899 C901 1.387 . S
H900 C907 0.950 . S
C901 C899 1.387 . S
C901 C903 1.390 . S
C901 H905 0.950 . S
H902 C898 0.950 . S
C903 C901 1.390 . S
C903 C904 1.387 . S
C903 H906 0.950 . S
C904 C903 1.387 . S
C904 C907 1.387 . S
H905 C901 0.950 . S
H906 C903 0.950 . S
C907 C898 1.390 . S
C907 H900 0.950 . S
C907 C904 1.387 . S
C908 C909 1.387 . S
C908 H912 0.950 . S
C908 C917 1.390 . S
C909 C908 1.387 . S
C909 C911 1.387 . S
H910 C917 0.950 . S
C911 C909 1.387 . S
C911 C913 1.390 . S
C911 H915 0.950 . S
H912 C908 0.950 . S
C913 C911 1.390 . S
C913 C914 1.387 . S
C913 H916 0.950 . S
C914 C913 1.387 . S
C914 C917 1.387 . S
H915 C911 0.950 . S
H916 C913 0.950 . S
C917 C908 1.390 . S
C917 H910 0.950 . S
C917 C914 1.387 . S
C918 C919 1.387 . S
C918 H922 0.950 . S
C918 C927 1.390 . S
C919 C918 1.387 . S
C919 C921 1.387 . S
H920 C927 0.950 1_556 S
C921 C919 1.387 . S
C921 C923 1.390 . S
C921 H925 0.950 . S
H922 C918 0.950 . S
C923 C921 1.390 . S
C923 C924 1.387 . S
C923 H926 0.950 . S
C924 C923 1.387 . S
C924 C927 1.387 . S
H925 C921 0.950 . S
H926 C923 0.950 . S
C927 C918 1.390 . S
C927 H920 0.950 1_554 S
C927 C924 1.387 . S
C928 C929 1.387 . S
C928 H932 0.950 . S
C928 C937 1.390 . S
C929 C928 1.387 . S
C929 C931 1.387 . S
H930 C937 0.950 . S
C931 C929 1.387 . S
C931 C933 1.390 . S
C931 H935 0.950 . S
H932 C928 0.950 . S
C933 C931 1.390 . S
C933 C934 1.387 . S
C933 H936 0.950 . S
C934 C933 1.387 . S
C934 C937 1.387 . S
H935 C931 0.950 . S
H936 C933 0.950 . S
C937 C928 1.390 . S
C937 H930 0.950 . S
C937 C934 1.387 . S
C938 C939 1.387 . S
C938 H942 0.950 . S
C938 C947 1.390 . S
C939 C938 1.387 . S
C939 C941 1.387 . S
H940 C947 0.950 1_556 S
C941 C939 1.387 . S
C941 C943 1.390 . S
C941 H945 0.950 . S
H942 C938 0.950 . S
C943 C941 1.390 . S
C943 C944 1.387 . S
C943 H946 0.950 . S
C944 C943 1.387 . S
C944 C947 1.387 . S
H945 C941 0.950 . S
H946 C943 0.950 . S
C947 C938 1.390 . S
C947 H940 0.950 1_554 S
C947 C944 1.387 . S
C948 C949 1.387 . S
C948 H952 0.950 . S
C948 C957 1.390 . S
C949 C948 1.387 . S
C949 C951 1.387 . S
H950 C957 0.950 . S
C951 C949 1.387 . S
C951 C953 1.390 . S
C951 H955 0.950 1_455 S
H952 C948 0.950 . S
C953 C951 1.390 . S
C953 C954 1.387 . S
C953 H956 0.950 . S
C954 C953 1.387 . S
C954 C957 1.387 . S
H955 C951 0.950 1_655 S
H956 C953 0.950 . S
C957 C948 1.390 . S
C957 H950 0.950 . S
C957 C954 1.387 . S
C958 C959 1.387 . S
C958 H962 0.950 . S
C958 C967 1.390 . S
C959 C958 1.387 . S
C959 C961 1.387 . S
H960 C967 0.950 . S
C961 C959 1.387 . S
C961 C963 1.390 . S
C961 H965 0.950 . S
H962 C958 0.950 . S
C963 C961 1.390 . S
C963 C964 1.387 . S
C963 H966 0.950 . S
C964 C963 1.387 . S
C964 C967 1.387 . S
H965 C961 0.950 . S
H966 C963 0.950 . S
C967 C958 1.390 . S
C967 H960 0.950 . S
C967 C964 1.387 . S
C968 C969 1.387 . S
C968 H972 0.950 . S
C968 C977 1.390 . S
C969 C968 1.387 . S
C969 C971 1.387 . S
H970 C977 0.950 . S
C971 C969 1.387 . S
C971 C973 1.390 . S
C971 H975 0.950 . S
H972 C968 0.950 . S
C973 C971 1.390 . S
C973 C974 1.387 . S
C973 H976 0.950 . S
C974 C973 1.387 . S
C974 C977 1.387 . S
H975 C971 0.950 . S
H976 C973 0.950 . S
C977 C968 1.390 . S
C977 H970 0.950 . S
C977 C974 1.387 . S
C978 C979 1.387 . S
C978 H982 0.950 . S
C978 C987 1.390 . S
C979 C978 1.387 . S
C979 C981 1.387 . S
H980 C987 0.950 . S
C981 C979 1.387 . S
C981 C983 1.390 . S
C981 H985 0.950 . S
H982 C978 0.950 . S
C983 C981 1.390 . S
C983 C984 1.387 . S
C983 H986 0.950 . S
C984 C983 1.387 . S
C984 C987 1.387 . S
H985 C981 0.950 . S
H986 C983 0.950 . S
C987 C978 1.390 . S
C987 H980 0.950 . S
C987 C984 1.387 . S
C988 C989 1.387 . S
C988 H992 0.950 . S
C988 C997 1.390 . S
C989 C988 1.387 . S
C989 C991 1.387 . S
H990 C997 0.950 . S
C991 C989 1.387 . S
C991 C993 1.390 . S
C991 H995 0.950 . S
H992 C988 0.950 . S
C993 C991 1.390 . S
C993 C994 1.387 . S
C993 H996 0.950 . S
C994 C993 1.387 . S
C994 C997 1.387 . S
H995 C991 0.950 . S
H996 C993 0.950 . S
C997 C988 1.390 . S
C997 H990 0.950 . S
C997 C994 1.387 . S
C998 C999 1.387 . S
C998 H1002 0.950 . S
C998 C1007 1.390 . S
C999 C998 1.387 . S
C999 C1001 1.387 . S
H1000 C1007 0.950 . S
C1001 C999 1.387 . S
C1001 C1003 1.390 . S
C1001 H1005 0.950 . S
H1002 C998 0.950 . S
C1003 C1001 1.390 . S
C1003 C1004 1.387 . S
C1003 H1006 0.950 . S
C1004 C1003 1.387 . S
C1004 C1007 1.387 . S
H1005 C1001 0.950 . S
H1006 C1003 0.950 . S
C1007 C998 1.390 . S
C1007 H1000 0.950 . S
C1007 C1004 1.387 . S
C1008 C1009 1.387 . S
C1008 H1012 0.950 . S
C1008 C1017 1.390 . S
C1009 C1008 1.387 . S
C1009 C1011 1.387 . S
H1010 C1017 0.950 . S
C1011 C1009 1.387 . S
C1011 C1013 1.390 . S
C1011 H1015 0.950 . S
H1012 C1008 0.950 . S
C1013 C1011 1.390 . S
C1013 C1014 1.387 . S
C1013 H1016 0.950 . S
C1014 C1013 1.387 . S
C1014 C1017 1.387 . S
H1015 C1011 0.950 . S
H1016 C1013 0.950 . S
C1017 C1008 1.390 . S
C1017 H1010 0.950 . S
C1017 C1014 1.387 . S
C1018 C1019 1.387 . S
C1018 H1022 0.950 . S
C1018 C1027 1.390 . S
C1019 C1018 1.387 . S
C1019 C1021 1.387 . S
H1020 C1027 0.950 . S
C1021 C1019 1.387 . S
C1021 C1023 1.390 . S
C1021 H1025 0.950 . S
H1022 C1018 0.950 . S
C1023 C1021 1.390 . S
C1023 C1024 1.387 . S
C1023 H1026 0.950 . S
C1024 C1023 1.387 . S
C1024 C1027 1.387 . S
H1025 C1021 0.950 . S
H1026 C1023 0.950 . S
C1027 C1018 1.390 . S
C1027 H1020 0.950 . S
C1027 C1024 1.387 . S
C1028 C1029 1.387 . S
C1028 H1032 0.950 . S
C1028 C1037 1.390 . S
C1029 C1028 1.387 . S
C1029 C1031 1.387 . S
H1030 C1037 0.950 . S
C1031 C1029 1.387 . S
C1031 C1033 1.390 . S
C1031 H1035 0.950 . S
H1032 C1028 0.950 . S
C1033 C1031 1.390 . S
C1033 C1034 1.387 . S
C1033 H1036 0.950 . S
C1034 C1033 1.387 . S
C1034 C1037 1.387 . S
H1035 C1031 0.950 . S
H1036 C1033 0.950 . S
C1037 C1028 1.390 . S
C1037 H1030 0.950 . S
C1037 C1034 1.387 . S
C1038 C1039 1.387 . S
C1038 H1042 0.950 . S
C1038 C1047 1.390 . S
C1039 C1038 1.387 . S
C1039 C1041 1.387 . S
H1040 C1047 0.950 . S
C1041 C1039 1.387 . S
C1041 C1043 1.390 . S
C1041 H1045 0.950 . S
H1042 C1038 0.950 . S
C1043 C1041 1.390 . S
C1043 C1044 1.387 . S
C1043 H1046 0.950 . S
C1044 C1043 1.387 . S
C1044 C1047 1.387 . S
H1045 C1041 0.950 . S
H1046 C1043 0.950 . S
C1047 C1038 1.390 . S
C1047 H1040 0.950 . S
C1047 C1044 1.387 . S
C1048 C1049 1.387 . S
C1048 H1052 0.950 . S
C1048 C1057 1.390 . S
C1049 C1048 1.387 . S
C1049 C1051 1.387 . S
H1050 C1057 0.950 . S
C1051 C1049 1.387 . S
C1051 C1053 1.390 . S
C1051 H1055 0.950 . S
H1052 C1048 0.950 . S
C1053 C1051 1.390 . S
C1053 C1054 1.387 . S
C1053 H1056 0.950 . S
C1054 C1053 1.387 . S
C1054 C1057 1.387 . S
H1055 C1051 0.950 . S
H1056 C1053 0.950 . S
C1057 C1048 1.390 . S
C1057 H1050 0.950 . S
C1057 C1054 1.387 . S
C1058 C1059 1.387 . S
C1058 H1062 0.950 . S
C1058 C1067 1.390 . S
C1059 C1058 1.387 . S
C1059 C1061 1.387 . S
H1060 C1067 0.950 . S
C1061 C1059 1.387 . S
C1061 C1063 1.390 . S
C1061 H1065 0.950 . S
H1062 C1058 0.950 . S
C1063 C1061 1.390 . S
C1063 C1064 1.387 . S
C1063 H1066 0.950 . S
C1064 C1063 1.387 . S
C1064 C1067 1.387 . S
H1065 C1061 0.950 . S
H1066 C1063 0.950 . S
C1067 C1058 1.390 . S
C1067 H1060 0.950 . S
C1067 C1064 1.387 . S
C1068 C1069 1.387 . S
C1068 H1072 0.950 . S
C1068 C1077 1.390 . S
C1069 C1068 1.387 . S
C1069 C1071 1.387 . S
H1070 C1077 0.950 . S
C1071 C1069 1.387 . S
C1071 C1073 1.390 . S
C1071 H1075 0.950 . S
H1072 C1068 0.950 . S
C1073 C1071 1.390 . S
C1073 C1074 1.387 . S
C1073 H1076 0.950 . S
C1074 C1073 1.387 . S
C1074 C1077 1.387 . S
H1075 C1071 0.950 . S
H1076 C1073 0.950 . S
C1077 C1068 1.390 . S
C1077 H1070 0.950 . S
C1077 C1074 1.387 . S
C1078 C1079 1.387 . S
C1078 H1082 0.950 . S
C1078 C1087 1.390 . S
C1079 C1078 1.387 . S
C1079 C1081 1.387 . S
H1080 C1087 0.950 . S
C1081 C1079 1.387 . S
C1081 C1083 1.390 . S
C1081 H1085 0.950 . S
H1082 C1078 0.950 . S
C1083 C1081 1.390 . S
C1083 C1084 1.387 . S
C1083 H1086 0.950 . S
C1084 C1083 1.387 . S
C1084 C1087 1.387 . S
H1085 C1081 0.950 . S
H1086 C1083 0.950 . S
C1087 C1078 1.390 . S
C1087 H1080 0.950 . S
C1087 C1084 1.387 . S
C1088 C1089 1.387 . S
C1088 H1092 0.950 . S
C1088 C1097 1.390 . S
C1089 C1088 1.387 . S
C1089 C1091 1.387 . S
H1090 C1097 0.950 . S
C1091 C1089 1.387 . S
C1091 C1093 1.390 . S
C1091 H1095 0.950 . S
H1092 C1088 0.950 . S
C1093 C1091 1.390 . S
C1093 C1094 1.387 . S
C1093 H1096 0.950 . S
C1094 C1093 1.387 . S
C1094 C1097 1.387 . S
H1095 C1091 0.950 . S
H1096 C1093 0.950 . S
C1097 C1088 1.390 . S
C1097 H1090 0.950 . S
C1097 C1094 1.387 . S
C1098 C1099 1.387 . S
C1098 H1102 0.950 . S
C1098 C1107 1.390 . S
C1099 C1098 1.387 . S
C1099 C1101 1.387 . S
H1100 C1107 0.950 . S
C1101 C1099 1.387 . S
C1101 C1103 1.390 . S
C1101 H1105 0.950 . S
H1102 C1098 0.950 . S
C1103 C1101 1.390 . S
C1103 C1104 1.387 . S
C1103 H1106 0.950 . S
C1104 C1103 1.387 . S
C1104 C1107 1.387 . S
H1105 C1101 0.950 . S
H1106 C1103 0.950 . S
C1107 C1098 1.390 . S
C1107 H1100 0.950 . S
C1107 C1104 1.387 . S
C1108 C1109 1.387 . S
C1108 H1112 0.950 1_655 S
C1108 C1117 1.390 . S
C1109 C1108 1.387 . S
C1109 C1111 1.387 . S
H1110 C1117 0.950 . S
C1111 C1109 1.387 . S
C1111 C1113 1.390 . S
C1111 H1115 0.950 . S
H1112 C1108 0.950 1_455 S
C1113 C1111 1.390 . S
C1113 C1114 1.387 . S
C1113 H1116 0.950 . S
C1114 C1113 1.387 . S
C1114 C1117 1.387 . S
H1115 C1111 0.950 . S
H1116 C1113 0.950 . S
C1117 C1108 1.390 . S
C1117 H1110 0.950 . S
C1117 C1114 1.387 . S
C1118 C1119 1.387 . S
C1118 H1122 0.950 . S
C1118 C1127 1.390 . S
C1119 C1118 1.387 . S
C1119 C1121 1.387 . S
H1120 C1127 0.950 . S
C1121 C1119 1.387 . S
C1121 C1123 1.390 . S
C1121 H1125 0.950 . S
H1122 C1118 0.950 . S
C1123 C1121 1.390 . S
C1123 C1124 1.387 . S
C1123 H1126 0.950 . S
C1124 C1123 1.387 . S
C1124 C1127 1.387 . S
H1125 C1121 0.950 . S
H1126 C1123 0.950 . S
C1127 C1118 1.390 . S
C1127 H1120 0.950 . S
C1127 C1124 1.387 . S
C1128 C1129 1.363 1_655 S
C1128 H1132 0.950 1_655 S
C1128 C1137 1.390 . S
C1129 C1128 1.363 1_455 S
C1129 C1131 1.372 1_455 S
H1130 C1137 0.950 . S
C1131 C1129 1.372 1_655 S
C1131 C1133 1.390 . S
C1131 H1135 0.950 . S
H1132 C1128 0.950 1_455 S
C1133 C1131 1.390 . S
C1133 C1134 1.387 . S
C1133 H1136 0.950 . S
C1134 C1133 1.387 . S
C1134 C1137 1.387 . S
H1135 C1131 0.950 . S
H1136 C1133 0.950 . S
C1137 C1128 1.390 . S
C1137 H1130 0.950 . S
C1137 C1134 1.387 . S
C1138 C1139 1.387 . S
C1138 H1142 0.950 . S
C1138 C1147 1.390 . S
C1139 C1138 1.387 . S
C1139 C1141 1.387 . S
H1140 C1147 0.950 . S
C1141 C1139 1.387 . S
C1141 C1143 1.390 . S
C1141 H1145 0.950 . S
H1142 C1138 0.950 . S
C1143 C1141 1.390 . S
C1143 C1144 1.387 . S
C1143 H1146 0.950 . S
C1144 C1143 1.387 . S
C1144 C1147 1.387 . S
H1145 C1141 0.950 . S
H1146 C1143 0.950 . S
C1147 C1138 1.390 . S
C1147 H1140 0.950 . S
C1147 C1144 1.387 . S
C1148 C1149 1.387 . S
C1148 H1152 0.950 . S
C1148 C1157 1.390 . S
C1149 C1148 1.387 . S
C1149 C1151 1.387 . S
H1150 C1157 0.950 . S
C1151 C1149 1.387 . S
C1151 C1153 1.390 . S
C1151 H1155 0.950 . S
H1152 C1148 0.950 . S
C1153 C1151 1.390 . S
C1153 C1154 1.387 . S
C1153 H1156 0.950 . S
C1154 C1153 1.387 . S
C1154 C1157 1.387 . S
H1155 C1151 0.950 . S
H1156 C1153 0.950 . S
C1157 C1148 1.390 . S
C1157 H1150 0.950 . S
C1157 C1154 1.387 . S
C1158 C1159 1.387 . S
C1158 H1162 0.950 . S
C1158 C1167 1.390 . S
C1159 C1158 1.387 . S
C1159 C1161 1.387 . S
H1160 C1167 0.950 . S
C1161 C1159 1.387 . S
C1161 C1163 1.390 . S
C1161 H1165 0.950 . S
H1162 C1158 0.950 . S
C1163 C1161 1.390 . S
C1163 C1164 1.387 . S
C1163 H1166 0.950 . S
C1164 C1163 1.387 . S
C1164 C1167 1.387 . S
H1165 C1161 0.950 . S
H1166 C1163 0.950 . S
C1167 C1158 1.390 . S
C1167 H1160 0.950 . S
C1167 C1164 1.387 . S
C1168 C1169 1.387 . S
C1168 H1172 0.950 . S
C1168 C1177 1.390 . S
C1169 C1168 1.387 . S
C1169 C1171 1.387 . S
H1170 C1177 0.950 . S
C1171 C1169 1.387 . S
C1171 C1173 1.390 . S
C1171 H1175 0.950 . S
H1172 C1168 0.950 . S
C1173 C1171 1.390 . S
C1173 C1174 1.387 . S
C1173 H1176 0.950 . S
C1174 C1173 1.387 . S
C1174 C1177 1.387 . S
H1175 C1171 0.950 . S
H1176 C1173 0.950 . S
C1177 C1168 1.390 . S
C1177 H1170 0.950 . S
C1177 C1174 1.387 . S
C1178 C1179 1.387 . S
C1178 H1182 0.950 . S
C1178 C1187 1.390 . S
C1179 C1178 1.387 . S
C1179 C1181 1.387 . S
H1180 C1187 0.950 . S
C1181 C1179 1.387 . S
C1181 C1183 1.390 . S
C1181 H1185 0.950 . S
H1182 C1178 0.950 . S
C1183 C1181 1.390 . S
C1183 C1184 1.387 . S
C1183 H1186 0.950 . S
C1184 C1183 1.387 . S
C1184 C1187 1.387 . S
H1185 C1181 0.950 . S
H1186 C1183 0.950 . S
C1187 C1178 1.390 . S
C1187 H1180 0.950 . S
C1187 C1184 1.387 . S
C1188 C1189 1.387 . S
C1188 H1192 0.950 . S
C1188 C1197 1.390 . S
C1189 C1188 1.387 . S
C1189 C1191 1.387 1_565 S
H1190 C1197 0.950 . S
C1191 C1189 1.387 1_545 S
C1191 C1193 1.390 . S
C1191 H1195 0.950 . S
H1192 C1188 0.950 . S
C1193 C1191 1.390 . S
C1193 C1194 1.387 1_545 S
C1193 H1196 0.950 . S
C1194 C1193 1.387 1_565 S
C1194 C1197 1.387 . S
H1195 C1191 0.950 . S
H1196 C1193 0.950 . S
C1197 C1188 1.390 . S
C1197 H1190 0.950 . S
C1197 C1194 1.387 . S
C1198 C1199 1.387 . S
C1198 H1202 0.950 . S
C1198 C1207 1.390 . S
C1199 C1198 1.387 . S
C1199 C1201 1.387 . S
H1200 C1207 0.950 . S
C1201 C1199 1.387 . S
C1201 C1203 1.390 . S
C1201 H1205 0.950 . S
H1202 C1198 0.950 . S
C1203 C1201 1.390 . S
C1203 C1204 1.387 . S
C1203 H1206 0.950 . S
C1204 C1203 1.387 . S
C1204 C1207 1.387 . S
H1205 C1201 0.950 . S
H1206 C1203 0.950 . S
C1207 C1198 1.390 . S
C1207 H1200 0.950 . S
C1207 C1204 1.387 . S
C1208 C1209 1.387 . S
C1208 H1212 0.950 . S
C1208 C1217 1.390 . S
C1209 C1208 1.387 . S
C1209 C1211 1.387 . S
H1210 C1217 0.950 . S
C1211 C1209 1.387 . S
C1211 C1213 1.390 . S
C1211 H1215 0.950 . S
H1212 C1208 0.950 . S
C1213 C1211 1.390 . S
C1213 C1214 1.387 . S
C1213 H1216 0.950 . S
C1214 C1213 1.387 . S
C1214 C1217 1.387 . S
H1215 C1211 0.950 . S
H1216 C1213 0.950 . S
C1217 C1208 1.390 . S
C1217 H1210 0.950 . S
C1217 C1214 1.387 . S
C1218 C1219 1.387 1_455 S
C1218 H1222 0.950 . S
C1218 C1227 1.390 . S
C1219 C1218 1.387 1_655 S
C1219 C1221 1.387 . S
H1220 C1227 0.950 . S
C1221 C1219 1.387 . S
C1221 C1223 1.390 . S
C1221 H1225 0.950 . S
H1222 C1218 0.950 . S
C1223 C1221 1.390 . S
C1223 C1224 1.387 . S
C1223 H1226 0.950 . S
C1224 C1223 1.387 . S
C1224 C1227 1.387 1_655 S
H1225 C1221 0.950 . S
H1226 C1223 0.950 . S
C1227 C1218 1.390 . S
C1227 H1220 0.950 . S
C1227 C1224 1.387 1_455 S
C1228 C1229 1.387 . S
C1228 H1232 0.950 . S
C1228 C1237 1.390 . S
C1229 C1228 1.387 . S
C1229 C1231 1.387 . S
H1230 C1237 0.950 . S
C1231 C1229 1.387 . S
C1231 C1233 1.390 . S
C1231 H1235 0.950 . S
H1232 C1228 0.950 . S
C1233 C1231 1.390 . S
C1233 C1234 1.387 . S
C1233 H1236 0.950 . S
C1234 C1233 1.387 . S
C1234 C1237 1.387 . S
H1235 C1231 0.950 . S
H1236 C1233 0.950 . S
C1237 C1228 1.390 . S
C1237 H1230 0.950 . S
C1237 C1234 1.387 . S
C1238 C1239 1.387 . S
C1238 H1242 0.950 . S
C1238 C1247 1.390 . S
C1239 C1238 1.387 . S
C1239 C1241 1.387 1_545 S
H1240 C1247 0.950 . S
C1241 C1239 1.387 1_565 S
C1241 C1243 1.390 . S
C1241 H1245 0.950 . S
H1242 C1238 0.950 . S
C1243 C1241 1.390 . S
C1243 C1244 1.387 1_565 S
C1243 H1246 0.950 . S
C1244 C1243 1.387 1_545 S
C1244 C1247 1.387 . S
H1245 C1241 0.950 . S
H1246 C1243 0.950 . S
C1247 C1238 1.390 . S
C1247 H1240 0.950 . S
C1247 C1244 1.387 . S
C1248 C1249 1.387 . S
C1248 H1252 0.950 . S
C1248 C1257 1.390 . S
C1249 C1248 1.387 . S
C1249 C1251 1.387 . S
H1250 C1257 0.950 . S
C1251 C1249 1.387 . S
C1251 C1253 1.390 . S
C1251 H1255 0.950 . S
H1252 C1248 0.950 . S
C1253 C1251 1.390 . S
C1253 C1254 1.387 . S
C1253 H1256 0.950 . S
C1254 C1253 1.387 . S
C1254 C1257 1.387 . S
H1255 C1251 0.950 . S
H1256 C1253 0.950 . S
C1257 C1248 1.390 . S
C1257 H1250 0.950 . S
C1257 C1254 1.387 . S
C1258 C1259 1.387 . S
C1258 H1262 0.950 . S
C1258 C1267 1.390 . S
C1259 C1258 1.387 . S
C1259 C1261 1.387 . S
H1260 C1267 0.950 . S
C1261 C1259 1.387 . S
C1261 C1263 1.390 . S
C1261 H1265 0.950 . S
H1262 C1258 0.950 . S
C1263 C1261 1.390 . S
C1263 C1264 1.387 . S
C1263 H1266 0.950 . S
C1264 C1263 1.387 . S
C1264 C1267 1.387 . S
H1265 C1261 0.950 . S
H1266 C1263 0.950 . S
C1267 C1258 1.390 . S
C1267 H1260 0.950 . S
C1267 C1264 1.387 . S
C1268 C1269 1.387 . S
C1268 H1272 0.950 . S
C1268 C1277 1.390 . S
C1269 C1268 1.387 . S
C1269 C1271 1.387 . S
H1270 C1277 0.950 . S
C1271 C1269 1.387 . S
C1271 C1273 1.390 . S
C1271 H1275 0.950 . S
H1272 C1268 0.950 . S
C1273 C1271 1.390 . S
C1273 C1274 1.387 . S
C1273 H1276 0.950 . S
C1274 C1273 1.387 . S
C1274 C1277 1.387 . S
H1275 C1271 0.950 . S
H1276 C1273 0.950 . S
C1277 C1268 1.390 . S
C1277 H1270 0.950 . S
C1277 C1274 1.387 . S
C1278 C1279 1.387 . S
C1278 H1282 0.950 . S
C1278 C1287 1.390 . S
C1279 C1278 1.387 . S
C1279 C1281 1.387 . S
H1280 C1287 0.950 . S
C1281 C1279 1.387 . S
C1281 C1283 1.390 . S
C1281 H1285 0.950 . S
H1282 C1278 0.950 . S
C1283 C1281 1.390 . S
C1283 C1284 1.387 . S
C1283 H1286 0.950 . S
C1284 C1283 1.387 . S
C1284 C1287 1.387 . S
H1285 C1281 0.950 . S
H1286 C1283 0.950 . S
C1287 C1278 1.390 . S
C1287 H1280 0.950 . S
C1287 C1284 1.387 . S
C1288 C1289 1.387 . S
C1288 H1292 0.950 . S
C1288 C1297 1.390 . S
C1289 C1288 1.387 . S
C1289 C1291 1.387 . S
H1290 C1297 0.950 . S
C1291 C1289 1.387 . S
C1291 C1293 1.390 . S
C1291 H1295 0.950 . S
H1292 C1288 0.950 . S
C1293 C1291 1.390 . S
C1293 C1294 1.387 . S
C1293 H1296 0.950 . S
C1294 C1293 1.387 . S
C1294 C1297 1.387 . S
H1295 C1291 0.950 . S
H1296 C1293 0.950 . S
C1297 C1288 1.390 . S
C1297 H1290 0.950 . S
C1297 C1294 1.387 . S
C1298 C1299 1.387 . S
C1298 H1302 0.950 . S
C1298 C1307 1.390 . S
C1299 C1298 1.387 . S
C1299 C1301 1.387 . S
H1300 C1307 0.950 . S
C1301 C1299 1.387 . S
C1301 C1303 1.390 . S
C1301 H1305 0.950 . S
H1302 C1298 0.950 . S
C1303 C1301 1.390 . S
C1303 C1304 1.387 . S
C1303 H1306 0.950 . S
C1304 C1303 1.387 . S
C1304 C1307 1.387 . S
H1305 C1301 0.950 . S
H1306 C1303 0.950 . S
C1307 C1298 1.390 . S
C1307 H1300 0.950 . S
C1307 C1304 1.387 . S
C1308 C1309 1.387 . S
C1308 H1312 0.950 . S
C1308 C1317 1.390 . S
C1309 C1308 1.387 . S
C1309 C1311 1.387 . S
H1310 C1317 0.950 . S
C1311 C1309 1.387 . S
C1311 C1313 1.390 . S
C1311 H1315 0.950 . S
H1312 C1308 0.950 . S
C1313 C1311 1.390 . S
C1313 C1314 1.387 . S
C1313 H1316 0.950 . S
C1314 C1313 1.387 . S
C1314 C1317 1.387 . S
H1315 C1311 0.950 . S
H1316 C1313 0.950 . S
C1317 C1308 1.390 . S
C1317 H1310 0.950 . S
C1317 C1314 1.387 . S
C1318 C1319 1.387 . S
C1318 H1322 0.950 . S
C1318 C1327 1.390 . S
C1319 C1318 1.387 . S
C1319 C1321 1.387 . S
H1320 C1327 0.950 . S
C1321 C1319 1.387 . S
C1321 C1323 1.390 . S
C1321 H1325 0.950 . S
H1322 C1318 0.950 . S
C1323 C1321 1.390 . S
C1323 C1324 1.387 . S
C1323 H1326 0.950 . S
C1324 C1323 1.387 . S
C1324 C1327 1.387 . S
H1325 C1321 0.950 . S
H1326 C1323 0.950 . S
C1327 C1318 1.390 . S
C1327 H1320 0.950 . S
C1327 C1324 1.387 . S
C1328 C1329 1.387 . S
C1328 H1332 0.950 . S
C1328 C1337 1.390 . S
C1329 C1328 1.387 . S
C1329 C1331 1.387 . S
H1330 C1337 0.950 . S
C1331 C1329 1.387 . S
C1331 C1333 1.390 . S
C1331 H1335 0.950 . S
H1332 C1328 0.950 . S
C1333 C1331 1.390 . S
C1333 C1334 1.387 . S
C1333 H1336 0.950 . S
C1334 C1333 1.387 . S
C1334 C1337 1.387 . S
H1335 C1331 0.950 . S
H1336 C1333 0.950 . S
C1337 C1328 1.390 . S
C1337 H1330 0.950 . S
C1337 C1334 1.387 . S
C1338 C1339 1.387 . S
C1338 H1342 0.950 . S
C1338 C1347 1.390 . S
C1339 C1338 1.387 . S
C1339 C1341 1.387 . S
H1340 C1347 0.950 . S
C1341 C1339 1.387 . S
C1341 C1343 1.390 . S
C1341 H1345 0.950 . S
H1342 C1338 0.950 . S
C1343 C1341 1.390 . S
C1343 C1344 1.387 . S
C1343 H1346 0.950 . S
C1344 C1343 1.387 . S
C1344 C1347 1.387 . S
H1345 C1341 0.950 . S
H1346 C1343 0.950 . S
C1347 C1338 1.390 . S
C1347 H1340 0.950 . S
C1347 C1344 1.387 . S
C1348 C1349 1.387 . S
C1348 H1352 0.950 . S
C1348 C1357 1.390 . S
C1349 C1348 1.387 . S
C1349 C1351 1.387 . S
H1350 C1357 0.950 . S
C1351 C1349 1.387 . S
C1351 C1353 1.390 . S
C1351 H1355 0.950 . S
H1352 C1348 0.950 . S
C1353 C1351 1.390 . S
C1353 C1354 1.387 . S
C1353 H1356 0.950 . S
C1354 C1353 1.387 . S
C1354 C1357 1.387 . S
H1355 C1351 0.950 . S
H1356 C1353 0.950 . S
C1357 C1348 1.390 . S
C1357 H1350 0.950 . S
C1357 C1354 1.387 . S
C1358 C1359 1.387 . S
C1358 H1362 0.950 . S
C1358 C1367 1.390 . S
C1359 C1358 1.387 . S
C1359 C1361 1.387 . S
H1360 C1367 0.950 . S
C1361 C1359 1.387 . S
C1361 C1363 1.390 . S
C1361 H1365 0.950 . S
H1362 C1358 0.950 . S
C1363 C1361 1.390 . S
C1363 C1364 1.387 . S
C1363 H1366 0.950 . S
C1364 C1363 1.387 . S
C1364 C1367 1.387 . S
H1365 C1361 0.950 . S
H1366 C1363 0.950 . S
C1367 C1358 1.390 . S
C1367 H1360 0.950 . S
C1367 C1364 1.387 . S
C829 C469 1.606 . S
C834 C654 1.575 . S
C839 C505 1.528 . S
C844 C674 1.484 . S
C849 C433 1.594 . S
C854 C697 1.570 . S
C859 C397 1.513 . S
C864 C677 1.494 . S
C874 C694 1.471 . S
C869 C325 1.486 . S
C879 C361 1.540 . S
C884 C657 1.520 . S
C894 C664 1.575 . S
C889 C421 1.615 . S
C904 C684 1.484 . S
C899 C349 1.527 . S
C909 C385 1.590 . S
C914 C689 1.573 . S
C919 C493 1.512 . S
C924 C669 1.495 . S
C929 C529 1.498 . S
C934 C704 1.470 . S
C944 C649 1.522 . S
C939 C457 1.546 . S
C954 C714 1.575 . S
C949 C37 1.606 1_455 S
C959 C73 1.528 . S
C964 C734 1.484 . S
C969 C1 1.595 1_565 S
C974 C757 1.572 . S
C979 C613 1.513 . S
C984 C737 1.493 . S
C989 C541 1.488 . S
C994 C754 1.470 . S
C999 C577 1.540 . S
C1004 C717 1.521 . S
C1009 C637 1.615 . S
C1014 C724 1.575 . S
C1019 C565 1.527 . S
C1024 C744 1.483 . S
C1034 C749 1.571 . S
C1029 C601 1.589 . S
C1039 C61 1.510 1_565 S
C1044 C729 1.493 . S
C1054 C764 1.469 . S
C1049 C97 1.498 1_455 S
C1059 C25 1.546 . S
C1064 C709 1.522 . S
C1074 C774 1.572 . S
C1069 C253 1.605 . S
C1079 C289 1.527 . S
C1084 C794 1.484 . S
C1094 C817 1.570 . S
C1089 C217 1.594 . S
C1104 C797 1.492 . S
C1099 C181 1.512 1_545 S
C1114 C814 1.469 . S
C1109 C109 1.486 1_655 S
C1119 C145 1.539 . S
C1124 C777 1.521 . S
C1129 C205 1.654 . S
C1134 C784 1.575 . S
C1139 C133 1.527 . S
C1144 C804 1.483 . S
C1154 C809 1.573 . S
C1149 C169 1.590 1_545 S
C1159 C277 1.510 . S
C1164 C789 1.493 . S
C1169 C313 1.498 . S
C1174 C824 1.470 . S
C1179 C241 1.544 . S
C1184 C769 1.520 . S
C1189 C571 1.342 . S
C1194 C667 1.304 1_565 S
C1204 C687 1.593 . S
C1199 C607 1.675 . S
C1209 C643 1.529 . S
C1214 C696 1.474 . S
C1219 C247 1.669 . S
C1224 C676 1.601 . S
C1229 C283 1.534 . S
C1234 C707 1.472 . S
C1244 C656 1.301 1_545 S
C1239 C319 1.338 . S
C1249 C139 1.342 . S
C1254 C727 1.303 . S
C1259 C175 1.675 . S
C1264 C747 1.593 . S
C1269 C211 1.528 . S
C1274 C756 1.471 . S
C1279 C463 1.669 . S
C1284 C736 1.591 . S
C1294 C767 1.472 . S
C1289 C499 1.534 . S
C1299 C535 1.337 . S
C1304 C716 1.304 . S
C1309 C355 1.342 . S
C1314 C787 1.304 . S
C1319 C391 1.674 . S
C1324 C807 1.589 . S
C1334 C816 1.473 . S
C1329 C427 1.529 . S
C1339 C31 1.669 . S
C1344 C796 1.589 . S
C1349 C67 1.534 . S
C1354 C827 1.475 . S
C1359 C103 1.337 . S
C1364 C776 1.303 . S
