# Generated by pormake.
# Topology the, (3,8)-cn, num edge types: 1
# Building blocks:
#     Node 0, Type 0, BuildingBlock: QEWDON_clean_linker_0, # of connection points: 3
#     Node 1, Type 0, BuildingBlock: QEWDON_clean_linker_0, # of connection points: 3
#     Node 2, Type 0, BuildingBlock: QEWDON_clean_linker_0, # of connection points: 3
#     Node 3, Type 0, BuildingBlock: QEWDON_clean_linker_0, # of connection points: 3
#     Node 4, Type 0, BuildingBlock: QEWDON_clean_linker_0, # of connection points: 3
#     Node 5, Type 0, BuildingBlock: QEWDON_clean_linker_0, # of connection points: 3
#     Node 6, Type 0, BuildingBlock: QEWDON_clean_linker_0, # of connection points: 3
#     Node 7, Type 0, BuildingBlock: QEWDON_clean_linker_0, # of connection points: 3
#     Node 8, Type 1, BuildingBlock: GIZVER_clean_sbu_0, # of connection points: 8
#     Node 9, Type 1, BuildingBlock: GIZVER_clean_sbu_0, # of connection points: 8
#     Node 10, Type 1, BuildingBlock: GIZVER_clean_sbu_0, # of connection points: 8
#     Edge 11, Type (0, 1), BuildingBlock: ZUJKAS_clean_linker_0, # of connection points: 2
#     Edge 12, Type (0, 1), BuildingBlock: ZUJKAS_clean_linker_0, # of connection points: 2
#     Edge 13, Type (0, 1), BuildingBlock: ZUJKAS_clean_linker_0, # of connection points: 2
#     Edge 14, Type (0, 1), BuildingBlock: ZUJKAS_clean_linker_0, # of connection points: 2
#     Edge 15, Type (0, 1), BuildingBlock: ZUJKAS_clean_linker_0, # of connection points: 2
#     Edge 16, Type (0, 1), BuildingBlock: ZUJKAS_clean_linker_0, # of connection points: 2
#     Edge 17, Type (0, 1), BuildingBlock: ZUJKAS_clean_linker_0, # of connection points: 2
#     Edge 18, Type (0, 1), BuildingBlock: ZUJKAS_clean_linker_0, # of connection points: 2
#     Edge 19, Type (0, 1), BuildingBlock: ZUJKAS_clean_linker_0, # of connection points: 2
#     Edge 20, Type (0, 1), BuildingBlock: ZUJKAS_clean_linker_0, # of connection points: 2
#     Edge 21, Type (0, 1), BuildingBlock: ZUJKAS_clean_linker_0, # of connection points: 2
#     Edge 22, Type (0, 1), BuildingBlock: ZUJKAS_clean_linker_0, # of connection points: 2
#     Edge 23, Type (0, 1), BuildingBlock: ZUJKAS_clean_linker_0, # of connection points: 2
#     Edge 24, Type (0, 1), BuildingBlock: ZUJKAS_clean_linker_0, # of connection points: 2
#     Edge 25, Type (0, 1), BuildingBlock: ZUJKAS_clean_linker_0, # of connection points: 2
#     Edge 26, Type (0, 1), BuildingBlock: ZUJKAS_clean_linker_0, # of connection points: 2
#     Edge 27, Type (0, 1), BuildingBlock: ZUJKAS_clean_linker_0, # of connection points: 2
#     Edge 28, Type (0, 1), BuildingBlock: ZUJKAS_clean_linker_0, # of connection points: 2
#     Edge 29, Type (0, 1), BuildingBlock: ZUJKAS_clean_linker_0, # of connection points: 2
#     Edge 30, Type (0, 1), BuildingBlock: ZUJKAS_clean_linker_0, # of connection points: 2
#     Edge 31, Type (0, 1), BuildingBlock: ZUJKAS_clean_linker_0, # of connection points: 2
#     Edge 32, Type (0, 1), BuildingBlock: ZUJKAS_clean_linker_0, # of connection points: 2
#     Edge 33, Type (0, 1), BuildingBlock: ZUJKAS_clean_linker_0, # of connection points: 2
#     Edge 34, Type (0, 1), BuildingBlock: ZUJKAS_clean_linker_0, # of connection points: 2
# Relax obj value: 0.102
# Max RMSD: 0.269
# Mean RMSD: 0.190
data_MOF--net-the--node1-GIZVER_clean_sbu_0--node2-QEWDON_clean_linker_0--edge1-ZUJKAS_clean_linker_0
_symmetry_space_group_name_H-M    P1
_symmetry_Int_Tables_number       1
_symmetry_cell_setting            triclinic
loop_
_symmetry_equiv_pos_as_xyz
'x, y, z'
_cell_length_a     52.475636
_cell_length_b     49.517779
_cell_length_c     48.315912
_cell_angle_alpha  87.195753
_cell_angle_beta   93.810525
_cell_angle_gamma 109.92296
loop_
_atom_site_label
_atom_site_type_symbol
_atom_site_fract_x
_atom_site_fract_y
_atom_site_fract_z
_atom_type_partial_charge
H0 H 0.35538 0.2719 0.41408 0.0
C1 C 0.36596 0.28494 0.39694 0.0
C2 C 0.39153 0.28429 0.39064 0.0
C3 C 0.35329 0.30135 0.38053 0.0
H4 H 0.42386 0.29986 0.36228 0.0
C5 C 0.40445 0.30072 0.3677 0.0
C6 C 0.39187 0.31716 0.3509 0.0
C7 C 0.36635 0.31754 0.35773 0.0
C8 C 0.32447 0.2972 0.38405 0.0
H9 H 0.35581 0.32897 0.34432 0.0
C10 C 0.31653 0.31584 0.39989 0.0
C11 C 0.2887 0.31094 0.40301 0.0
C12 C 0.30466 0.27387 0.37124 0.0
H13 H 0.3105 0.25937 0.35899 0.0
C14 C 0.27722 0.26912 0.37398 0.0
H15 H 0.3319 0.33369 0.40999 0.0
C16 C 0.26925 0.28747 0.38965 0.0
H17 H 0.24774 0.28346 0.39096 0.0
H18 H 0.26204 0.25118 0.36384 0.0
H19 H 0.78169 0.34188 0.31319 0.0
C20 C 0.77285 0.3189 0.31707 0.0
C21 C 0.78807 0.30382 0.33173 0.0
C22 C 0.74563 0.30491 0.30885 0.0
H23 H 0.78702 0.26246 0.34914 0.0
C24 C 0.7758 0.27414 0.33709 0.0
C25 C 0.74843 0.25987 0.32889 0.0
C26 C 0.73359 0.27546 0.31445 0.0
C27 C 0.72843 0.32192 0.29937 0.0
H28 H 0.71207 0.26526 0.30944 0.0
C29 C 0.72263 0.32598 0.27101 0.0
C30 C 0.70516 0.34133 0.26258 0.0
C31 C 0.71709 0.33351 0.31924 0.0
H32 H 0.72143 0.33047 0.34118 0.0
C33 C 0.6999 0.34886 0.31094 0.0
H34 H 0.7313 0.31689 0.25569 0.0
C35 C 0.69386 0.3527 0.28279 0.0
H36 H 0.68058 0.36485 0.27678 0.0
H37 H 0.69118 0.35774 0.32634 0.0
H38 H 0.77092 0.67795 0.40128 0.0
C39 C 0.76371 0.67476 0.37972 0.0
C40 C 0.77754 0.66388 0.36166 0.0
C41 C 0.7394 0.67937 0.37094 0.0
H42 H 0.77707 0.6489 0.32045 0.0
C43 C 0.76689 0.65805 0.3342 0.0
C44 C 0.74263 0.66269 0.32477 0.0
C45 C 0.72918 0.6737 0.34338 0.0
C46 C 0.72218 0.68401 0.39215 0.0
H47 H 0.71008 0.67658 0.3369 0.0
C48 C 0.71571 0.70946 0.39309 0.0
C49 C 0.69916 0.71245 0.41393 0.0
C50 C 0.7121 0.66194 0.41207 0.0
H51 H 0.71677 0.64226 0.41171 0.0
C52 C 0.69584 0.66484 0.43252 0.0
H53 H 0.72344 0.72664 0.37785 0.0
C54 C 0.68941 0.68981 0.43349 0.0
H55 H 0.67703 0.69158 0.44992 0.0
H56 H 0.68824 0.64767 0.44777 0.0
H57 H 0.39175 0.74021 0.29697 0.0
C58 C 0.37292 0.7257 0.3048 0.0
C59 C 0.36564 0.72913 0.33151 0.0
C60 C 0.35607 0.70344 0.28816 0.0
H61 H 0.3351 0.71333 0.36158 0.0
C62 C 0.34098 0.71044 0.34114 0.0
C63 C 0.32349 0.68859 0.32441 0.0
C64 C 0.33151 0.68482 0.29808 0.0
C65 C 0.36308 0.70133 0.25945 0.0
H66 H 0.31809 0.66838 0.28472 0.0
C67 C 0.36979 0.67775 0.2514 0.0
C68 C 0.37655 0.67619 0.22391 0.0
C69 C 0.3631 0.72327 0.23997 0.0
H70 H 0.35801 0.74158 0.24587 0.0
C71 C 0.36943 0.72164 0.21267 0.0
H72 H 0.36991 0.66086 0.2665 0.0
C73 C 0.3761 0.69831 0.20464 0.0
H74 H 0.38153 0.6979 0.18346 0.0
H75 H 0.36936 0.73863 0.19772 0.0
H76 H 0.41392 0.71036 0.74798 0.0
C77 C 0.39329 0.70491 0.73924 0.0
C78 C 0.3845 0.72627 0.72563 0.0
C79 C 0.37594 0.67618 0.74021 0.0
H80 H 0.35156 0.73441 0.70149 0.0
C81 C 0.35796 0.71852 0.71343 0.0
C82 C 0.34043 0.6899 0.71439 0.0
C83 C 0.34942 0.6691 0.72844 0.0
C84 C 0.38588 0.65273 0.75064 0.0
H85 H 0.33597 0.64694 0.72948 0.0
C86 C 0.39893 0.65334 0.77714 0.0
C87 C 0.40613 0.62961 0.78722 0.0
C88 C 0.38127 0.62881 0.73399 0.0
H89 H 0.37164 0.62804 0.71336 0.0
C90 C 0.38892 0.60563 0.74375 0.0
H91 H 0.40247 0.67158 0.79021 0.0
C92 C 0.40108 0.60587 0.77028 0.0
H93 H 0.40676 0.58755 0.77755 0.0
H94 H 0.38525 0.58732 0.73079 0.0
H95 H 0.37424 0.32426 0.73843 0.0
C96 C 0.38391 0.31197 0.72769 0.0
C97 C 0.41004 0.31201 0.7368 0.0
C98 C 0.36948 0.29503 0.70557 0.0
H99 H 0.44147 0.29428 0.72998 0.0
C100 C 0.42182 0.29522 0.72265 0.0
C101 C 0.40756 0.27806 0.70029 0.0
C102 C 0.38144 0.2784 0.69193 0.0
C103 C 0.34011 0.29004 0.70027 0.0
H104 H 0.3699 0.26506 0.67515 0.0
C105 C 0.3302 0.3098 0.68499 0.0
C106 C 0.30191 0.30332 0.67962 0.0
C107 C 0.32172 0.26429 0.71053 0.0
H108 H 0.32897 0.24891 0.72231 0.0
C109 C 0.29389 0.25814 0.70586 0.0
H110 H 0.34437 0.32956 0.67677 0.0
C111 C 0.28404 0.27741 0.69058 0.0
H112 H 0.26226 0.27206 0.68752 0.0
H113 H 0.27987 0.2383 0.71407 0.0
H114 H 0.83603 0.32986 0.77353 0.0
C115 C 0.82195 0.31322 0.76082 0.0
C116 C 0.82669 0.31174 0.7328 0.0
C117 C 0.79897 0.29331 0.77245 0.0
H118 H 0.8118 0.28939 0.69471 0.0
C119 C 0.80824 0.29029 0.71645 0.0
C120 C 0.78526 0.27011 0.7279 0.0
C121 C 0.78081 0.27173 0.75603 0.0
C122 C 0.79381 0.295 0.80181 0.0
H123 H 0.76323 0.25622 0.76521 0.0
C124 C 0.78646 0.31782 0.81065 0.0
C125 C 0.78051 0.31894 0.83847 0.0
C126 C 0.79548 0.27336 0.82091 0.0
H127 H 0.80099 0.25556 0.81435 0.0
C128 C 0.79015 0.27463 0.84864 0.0
H129 H 0.78506 0.33443 0.79576 0.0
C130 C 0.78267 0.29721 0.85741 0.0
H131 H 0.77792 0.29726 0.87888 0.0
H132 H 0.79149 0.25789 0.86332 0.0
H133 H 0.81119 0.69479 0.62627 0.0
C134 C 0.80072 0.68575 0.64496 0.0
C135 C 0.80156 0.65932 0.65596 0.0
C136 C 0.78778 0.70146 0.65857 0.0
H137 H 0.79045 0.62847 0.68987 0.0
C138 C 0.78906 0.64846 0.68094 0.0
C139 C 0.77546 0.6636 0.69474 0.0
C140 C 0.77469 0.69003 0.68309 0.0
C141 C 0.79106 0.73128 0.64883 0.0
H142 H 0.76474 0.70226 0.69352 0.0
C143 C 0.76861 0.74057 0.64311 0.0
C144 C 0.77263 0.76918 0.63402 0.0
C145 C 0.81739 0.75079 0.64538 0.0
H146 H 0.83496 0.74421 0.64983 0.0
C147 C 0.8214 0.77905 0.6365 0.0
H148 H 0.74822 0.72567 0.64569 0.0
C149 C 0.79923 0.78823 0.63087 0.0
H150 H 0.80289 0.81022 0.62364 0.0
H151 H 0.84177 0.79389 0.63394 0.0
Co152 Co 0.11762 0.49013 0.53907 0.0
Co153 Co 0.08802 0.4703 0.49381 0.0
Co154 Co 0.06301 0.51189 0.51916 0.0
O155 O 0.07982 0.48139 0.52747 0.0
H156 H 0.06806 0.46497 0.53746 0.0
O157 O 0.04581 0.54228 0.51093 0.0
Co158 Co 1.00772 0.53244 0.49916 0.0
Co159 Co 0.0366 0.5529 0.54443 0.0
H160 H 0.0574 0.55878 0.50092 0.0
O161 O 0.0961 0.4369 0.48991 0.0
O162 O 0.12526 0.48034 0.50174 0.0
O163 O 0.08327 0.49245 0.4612 0.0
O164 O 0.0866 0.52951 0.48689 0.0
O165 O 0.03554 0.4851 0.49383 0.0
O166 O 0.97357 0.52672 0.48678 0.0
O167 O 1.00917 0.56795 0.48578 0.0
O168 O 1.00106 0.49358 0.5106 0.0
O169 O 0.03971 0.49416 0.55155 0.0
O170 O 0.04145 0.53089 0.57705 0.0
O171 O 0.99928 0.5416 0.53632 0.0
O172 O 0.02704 0.58543 0.5487 0.0
C173 C 0.14106 0.46742 0.5576 0.0
C174 C 0.11618 0.54497 0.54194 0.0
C175 C 0.08965 0.51931 0.46398 0.0
C176 C 0.12084 0.45406 0.49453 0.0
C177 C 0.98344 0.55394 0.48007 0.0
C178 C 1.01012 0.47831 0.49626 0.0
C179 C 0.03654 0.50421 0.57446 0.0
C180 C 1.00264 0.56739 0.54428 0.0
O181 O 0.15178 0.49466 0.55124 0.0
O182 O 0.1151 0.45443 0.55222 0.0
O183 O 0.09075 0.53863 0.54436 0.0
O184 O 0.12507 0.52927 0.52788 0.0
Co185 Co 0.57768 0.95078 0.51964 0.0
Co186 Co 0.59801 0.97989 0.56468 0.0
Co187 Co 0.55692 0.0073 0.53432 0.0
O188 O 0.58614 0.99027 0.52983 0.0
H189 H 0.60131 1.00325 0.52019 0.0
O190 O 0.52796 0.02483 0.53876 0.0
Co191 Co 0.53724 0.06468 0.54915 0.0
Co192 Co 0.51687 0.03636 0.50414 0.0
H193 H 0.51265 0.01199 0.54827 0.0
O194 O 0.63064 0.97262 0.57076 0.0
O195 O 0.59 0.94123 0.55736 0.0
O196 O 0.57712 0.98135 0.59552 0.0
O197 O 0.54178 0.98229 0.56791 0.0
O198 O 0.583 0.03678 0.55858 0.0
O199 O 0.54304 0.10018 0.56011 0.0
O200 O 0.50469 0.06202 0.5626 0.0
O201 O 0.57295 0.07278 0.53783 0.0
O202 O 0.57218 0.03195 0.50074 0.0
O203 O 0.53741 0.03438 0.47308 0.0
O204 O 0.52503 0.07505 0.51151 0.0
O205 O 0.48442 0.04348 0.49789 0.0
C206 C 0.59792 0.92696 0.50229 0.0
C207 C 0.52625 0.95071 0.5143 0.0
C208 C 0.55189 0.9769 0.59152 0.0
C209 C 0.61537 0.94649 0.5653 0.0
C210 C 0.51809 0.08912 0.56737 0.0
C211 C 0.58863 0.06368 0.55392 0.0
C212 C 0.56229 0.03708 0.47698 0.0
C213 C 0.49976 0.06972 0.50286 0.0
O214 O 0.57282 0.91527 0.50904 0.0
O215 O 0.61045 0.9543 0.50654 0.0
O216 O 0.53099 0.97756 0.5099 0.0
O217 O 0.54198 0.9423 0.53096 0.0
Co218 Co 0.54307 0.50346 0.08012 0.0
Co219 Co 0.53043 0.45426 0.0567 0.0
Co220 Co 0.5781 0.5031 0.02348 0.0
O221 O 0.54331 0.49202 0.04304 0.0
H222 H 0.52919 0.49574 0.03126 0.0
O223 O 0.6129 0.51428 1.00407 0.0
Co224 Co 0.61374 0.501 0.96793 0.0
Co225 Co 0.62549 0.55138 0.98866 0.0
H226 H 0.62715 0.51148 0.01634 0.0
O227 O 0.49477 0.43471 0.0684 0.0
O228 O 0.53007 0.46314 0.09369 0.0
O229 O 0.55569 0.43422 0.05484 0.0
O230 O 0.591 0.47257 0.043 0.0
O231 O 0.5576 0.47483 0.99395 0.0
O232 O 0.61796 0.48762 0.93551 0.0
O233 O 0.6473 0.49927 0.97279 0.0
O234 O 0.57833 0.50083 0.95858 0.0
O235 O 0.56521 0.53351 1.00369 0.0
O236 O 0.59933 0.57065 0.98737 0.0
O237 O 0.62718 0.54062 0.95264 0.0
O238 O 0.66158 0.57051 0.97779 0.0
C239 C 0.51603 0.51421 0.1021 0.0
C240 C 0.59831 0.52435 0.07898 0.0
C241 C 0.58091 0.44637 0.05155 0.0
C242 C 0.50541 0.44519 0.09224 0.0
C243 C 0.64111 0.48886 0.948 0.0
C244 C 0.55836 0.48071 0.96791 0.0
C245 C 0.57443 0.55865 0.9923 0.0
C246 C 0.65182 0.55857 0.9543 0.0
O247 O 0.5395 0.51517 0.11357 0.0
O248 O 0.50933 0.50506 0.07688 0.0
O249 O 0.59861 0.53123 0.05314 0.0
O250 O 0.57866 0.50359 0.08798 0.0
H251 H 0.24701 0.2954 0.43813 0.0
H252 H 0.22708 0.32652 0.45949 0.0
H253 H 0.29 0.40117 0.42853 0.0
H254 H 0.30932 0.36999 0.40569 0.0
H255 H 0.24329 0.36791 0.49747 0.0
H256 H 0.22299 0.41467 0.39474 0.0
H257 H 0.23461 0.3843 0.39799 0.0
H258 H 0.25807 0.41998 0.4037 0.0
C259 C 0.25662 0.31845 0.43572 0.0
C260 C 0.2794 0.33015 0.41957 0.0
C261 C 0.24533 0.33625 0.44823 0.0
C262 C 0.25661 0.36622 0.44508 0.0
C263 C 0.2805 0.37809 0.43064 0.0
H264 H 0.1745 0.48584 0.48905 0.0
H265 H 0.21156 0.46794 0.48088 0.0
C266 C 0.29173 0.36023 0.41786 0.0
C267 C 0.24208 0.38449 0.45549 0.0
H268 H 0.20694 0.42911 0.43354 0.0
C269 C 0.23564 0.38157 0.48354 0.0
C270 C 0.23198 0.40231 0.43732 0.0
C271 C 0.23701 0.40541 0.40673 0.0
C272 C 0.2187 0.39516 0.49361 0.0
C273 C 0.20794 0.41207 0.47521 0.0
C274 C 0.21538 0.41618 0.44757 0.0
C275 C 0.18661 0.42307 0.48326 0.0
C276 C 0.21187 0.39087 0.52371 0.0
C277 C 0.16041 0.40375 0.48739 0.0
C278 C 0.13919 0.41386 0.49156 0.0
C279 C 0.1438 0.44352 0.49191 0.0
C280 C 0.17031 0.46286 0.48883 0.0
C281 C 0.19149 0.4527 0.48421 0.0
H282 H 0.2265 0.38311 0.53651 0.0
H283 H 0.21166 0.41121 0.53224 0.0
H284 H 0.1913 0.37466 0.52545 0.0
H285 H 0.15618 0.38081 0.48643 0.0
H286 H 0.11907 0.3984 0.49415 0.0
H287 H 0.75283 0.23709 0.38079 0.0
H288 H 0.72336 0.19173 0.40027 0.0
H289 H 0.68053 0.17069 0.32065 0.0
H290 H 0.71048 0.21595 0.30066 0.0
H291 H 0.66602 0.18275 0.39781 0.0
H292 H 0.68954 0.09338 0.35222 0.0
H293 H 0.71392 0.12936 0.35452 0.0
H294 H 0.68631 0.12163 0.32884 0.0
C295 C 0.73786 0.22239 0.36709 0.0
C296 C 0.73398 0.23014 0.33915 0.0
C297 C 0.72092 0.19654 0.37833 0.0
C298 C 0.6999 0.17788 0.36186 0.0
C299 C 0.69689 0.18467 0.33359 0.0
H300 H 0.55098 0.06095 0.42731 0.0
H301 H 0.5838 0.09186 0.39561 0.0
C302 C 0.71385 0.21061 0.32229 0.0
C303 C 0.67894 0.15371 0.37525 0.0
H304 H 0.65171 0.08051 0.38051 0.0
C305 C 0.66285 0.1604 0.394 0.0
C306 C 0.67494 0.12466 0.37012 0.0
C307 C 0.69214 0.11661 0.35047 0.0
C308 C 0.6429 0.13878 0.40797 0.0
C309 C 0.63879 0.10971 0.40285 0.0
C310 C 0.65483 0.10289 0.38409 0.0
C311 C 0.61877 0.08647 0.41824 0.0
C312 C 0.62666 0.14714 0.42857 0.0
C313 C 0.62763 0.07243 0.44075 0.0
C314 C 0.60899 0.05487 0.459 0.0
C315 C 0.58119 0.0511 0.45498 0.0
C316 C 0.57223 0.06352 0.43114 0.0
C317 C 0.59092 0.08115 0.41297 0.0
H318 H 0.63502 0.17042 0.43304 0.0
H319 H 0.60542 0.14211 0.42011 0.0
H320 H 0.6262 0.13465 0.44837 0.0
H321 H 0.6491 0.07639 0.44512 0.0
H322 H 0.61657 0.04542 0.47699 0.0
H323 H 0.788 0.61432 0.35377 0.0
H324 H 0.82565 0.60012 0.37401 0.0
H325 H 0.85941 0.68163 0.41401 0.0
H326 H 0.82137 0.69568 0.39427 0.0
H327 H 0.87896 0.6212 0.36914 0.0
H328 H 0.85852 0.62841 0.47929 0.0
H329 H 0.83494 0.63064 0.4511 0.0
H330 H 0.86421 0.66145 0.45969 0.0
C331 C 0.80355 0.62934 0.36668 0.0
C332 C 0.8016 0.65613 0.37243 0.0
C333 C 0.82505 0.62114 0.37838 0.0
C334 C 0.84521 0.6395 0.39609 0.0
C335 C 0.84377 0.66665 0.40116 0.0
H336 H 0.9916 0.61197 0.47576 0.0
H337 H 0.95974 0.63521 0.45541 0.0
C338 C 0.82209 0.67476 0.38969 0.0
C339 C 0.86769 0.63012 0.40888 0.0
H340 H 0.89814 0.61806 0.47098 0.0
C341 C 0.88312 0.62061 0.39141 0.0
C342 C 0.87329 0.62928 0.43801 0.0
C343 C 0.85673 0.63772 0.45816 0.0
C344 C 0.90363 0.61012 0.40219 0.0
C345 C 0.90898 0.60907 0.4312 0.0
C346 C 0.8941 0.61913 0.44871 0.0
C347 C 0.92846 0.59544 0.44368 0.0
C348 C 0.91933 0.59987 0.38253 0.0
C349 C 0.92131 0.56545 0.44403 0.0
C350 C 0.93928 0.55219 0.45574 0.0
C351 C 0.96496 0.56861 0.46718 0.0
C352 C 0.97213 0.59873 0.46683 0.0
C353 C 0.95392 0.61202 0.45535 0.0
H354 H 0.91612 0.60662 0.36068 0.0
H355 H 0.94138 0.60824 0.38848 0.0
H356 H 0.91266 0.57605 0.38378 0.0
H357 H 0.90171 0.55226 0.43531 0.0
H358 H 0.93302 0.52896 0.4557 0.0
H359 H 0.38949 0.78581 0.3167 0.0
H360 H 0.41659 0.82513 0.34673 0.0
H361 H 0.40798 0.76512 0.41611 0.0
H362 H 0.381 0.72576 0.38628 0.0
H363 H 0.39777 0.83926 0.40083 0.0
H364 H 0.49235 0.81175 0.4109 0.0
H365 H 0.46761 0.80027 0.38219 0.0
H366 H 0.46101 0.7826 0.41559 0.0
C367 C 0.39367 0.78099 0.33828 0.0
C368 C 0.38319 0.75274 0.34917 0.0
C369 C 0.40897 0.80345 0.35539 0.0
C370 C 0.41432 0.79792 0.38353 0.0
C371 C 0.40417 0.76973 0.39438 0.0
H372 H 0.50638 0.89268 0.52273 0.0
H373 H 0.47752 0.85677 0.49081 0.0
C374 C 0.38869 0.74734 0.37738 0.0
C375 C 0.43005 0.82163 0.40184 0.0
H376 H 0.49 0.84788 0.43977 0.0
C377 C 0.41802 0.84137 0.40925 0.0
C378 C 0.45634 0.82409 0.41278 0.0
C379 C 0.4703 0.80372 0.4049 0.0
C380 C 0.43135 0.86314 0.42808 0.0
C381 C 0.45766 0.86554 0.43919 0.0
C382 C 0.4698 0.84598 0.43134 0.0
C383 C 0.47294 0.88772 0.45941 0.0
C384 C 0.41677 0.88268 0.43658 0.0
C385 C 0.47963 0.91715 0.45259 0.0
C386 C 0.49592 0.93781 0.471 0.0
C387 C 0.50617 0.92936 0.49633 0.0
C388 C 0.49888 0.8999 0.50334 0.0
C389 C 0.48243 0.87934 0.48509 0.0
H390 H 0.39447 0.87313 0.4324 0.0
H391 H 0.42089 0.88746 0.45898 0.0
H392 H 0.424 0.90327 0.42451 0.0
H393 H 0.47304 0.92415 0.43265 0.0
H394 H 0.50138 0.96032 0.46488 0.0
H395 H 0.31891 0.6428 0.68252 0.0
H396 H 0.2757 0.62758 0.65576 0.0
H397 H 0.25903 0.70182 0.68129 0.0
H398 H 0.30237 0.71708 0.70904 0.0
H399 H 0.22017 0.62029 0.67983 0.0
H400 H 0.25267 0.69794 0.59075 0.0
H401 H 0.27724 0.68721 0.61229 0.0
H402 H 0.26099 0.70974 0.62601 0.0
C403 C 0.30594 0.65573 0.68293 0.0
C404 C 0.31393 0.68097 0.69826 0.0
C405 C 0.28135 0.64709 0.66744 0.0
C406 C 0.2643 0.66358 0.66666 0.0
C407 C 0.27207 0.6889 0.68168 0.0
H408 H 0.10532 0.57758 0.58081 0.0
H409 H 0.1383 0.61212 0.6115 0.0
C410 C 0.29679 0.69758 0.6974 0.0
C411 C 0.23848 0.65366 0.64985 0.0
H412 H 0.21195 0.65898 0.58425 0.0
C413 C 0.21789 0.62913 0.6592 0.0
C414 C 0.23593 0.66527 0.62296 0.0
C415 C 0.2578 0.69151 0.61217 0.0
C416 C 0.19544 0.6148 0.64167 0.0
C417 C 0.19356 0.62551 0.61421 0.0
C418 C 0.21343 0.65099 0.60539 0.0
C419 C 0.17345 0.60824 0.59339 0.0
C420 C 0.17493 0.58716 0.65197 0.0
C421 C 0.1824 0.59555 0.57246 0.0
C422 C 0.16372 0.57587 0.55496 0.0
C423 C 0.1357 0.56859 0.55802 0.0
C424 C 0.12677 0.5826 0.57802 0.0
C425 C 0.14554 0.60228 0.59561 0.0
H426 H 0.18119 0.58003 0.67268 0.0
H427 H 0.15513 0.59028 0.6536 0.0
H428 H 0.17188 0.56978 0.6371 0.0
H429 H 0.20389 0.59991 0.57044 0.0
H430 H 0.1713 0.56567 0.53965 0.0
H431 H 0.46019 0.28833 0.68613 0.0
H432 H 0.47805 0.25608 0.66288 0.0
H433 H 0.3987 0.19096 0.66058 0.0
H434 H 0.38082 0.22273 0.68395 0.0
H435 H 0.47922 0.20179 0.67905 0.0
H436 H 0.41838 0.19575 0.57977 0.0
H437 H 0.42171 0.22252 0.60511 0.0
H438 H 0.39835 0.18656 0.60976 0.0
C439 C 0.44656 0.26711 0.68078 0.0
C440 C 0.41893 0.2584 0.68664 0.0
C441 C 0.45677 0.24872 0.66735 0.0
C442 C 0.43962 0.22126 0.65935 0.0
C443 C 0.41222 0.2123 0.66574 0.0
H444 H 0.46532 0.07579 0.58284 0.0
H445 H 0.44572 0.10735 0.60507 0.0
C446 C 0.40201 0.23059 0.67915 0.0
C447 C 0.45044 0.20161 0.64513 0.0
H448 H 0.44269 0.16304 0.5863 0.0
C449 C 0.4713 0.19345 0.65872 0.0
C450 C 0.44008 0.19056 0.61859 0.0
C451 C 0.41857 0.19947 0.6023 0.0
C452 C 0.48174 0.17429 0.64678 0.0
C453 C 0.47137 0.16322 0.62029 0.0
C454 C 0.4505 0.17132 0.60668 0.0
C455 C 0.48276 0.14414 0.60604 0.0
C456 C 0.50356 0.16567 0.66284 0.0
C457 C 0.50987 0.15445 0.59864 0.0
C458 C 0.52104 0.13657 0.58598 0.0
C459 C 0.5054 0.10784 0.5803 0.0
C460 C 0.47802 0.09767 0.58713 0.0
C461 C 0.46678 0.11572 0.59977 0.0
H462 H 0.50435 0.16998 0.68529 0.0
H463 H 0.50023 0.14251 0.66047 0.0
H464 H 0.52358 0.17825 0.65471 0.0
H465 H 0.52247 0.17642 0.60272 0.0
H466 H 0.54212 0.14535 0.58082 0.0
H467 H 0.87977 0.32274 0.74965 0.0
H468 H 0.91987 0.35427 0.7265 0.0
H469 H 0.86782 0.3793 0.66519 0.0
H470 H 0.82786 0.34677 0.68756 0.0
H471 H 0.90494 0.36686 0.6409 0.0
H472 H 0.95558 0.43928 0.72702 0.0
H473 H 0.95012 0.40217 0.73569 0.0
H474 H 0.92148 0.4141 0.72863 0.0
C475 C 0.87704 0.33529 0.7314 0.0
C476 C 0.85088 0.3325 0.72033 0.0
C477 C 0.89991 0.3534 0.71828 0.0
C478 C 0.89692 0.36955 0.69432 0.0
C479 C 0.87068 0.36708 0.68363 0.0
H480 H 1.00939 0.51596 0.61595 0.0
H481 H 0.97826 0.48159 0.6465 0.0
C482 C 0.84788 0.34859 0.69641 0.0
C483 C 0.92088 0.38796 0.67938 0.0
H484 H 0.98032 0.44437 0.68662 0.0
C485 C 0.92142 0.38382 0.65091 0.0
C486 C 0.94233 0.41019 0.69242 0.0
C487 C 0.94229 0.41693 0.72255 0.0
C488 C 0.94234 0.40167 0.63495 0.0
C489 C 0.96407 0.42357 0.64806 0.0
C490 C 0.96386 0.42734 0.67666 0.0
C491 C 0.98577 0.44445 0.63197 0.0
C492 C 0.94015 0.39766 0.60397 0.0
C493 C 1.00127 0.43522 0.61439 0.0
C494 C 0.0188 0.45484 0.59642 0.0
C495 C 0.02165 0.48413 0.5963 0.0
C496 C 1.0077 0.49357 0.61548 0.0
C497 C 0.98984 0.4739 0.633 0.0
H498 H 0.91909 0.38522 0.59653 0.0
H499 H 0.9466 0.41868 0.59252 0.0
H500 H 0.95345 0.3856 0.59875 0.0
H501 H 0.99914 0.41272 0.61388 0.0
H502 H 0.02953 0.44698 0.58212 0.0
H503 H 0.72693 0.74474 0.60051 0.0
H504 H 0.69224 0.76617 0.58477 0.0
H505 H 0.7323 0.83899 0.6361 0.0
H506 H 0.76669 0.81777 0.65189 0.0
H507 H 0.67222 0.81403 0.63732 0.0
H508 H 0.71087 0.83971 0.53094 0.0
H509 H 0.70566 0.80448 0.54631 0.0
H510 H 0.73247 0.83478 0.56005 0.0
C511 C 0.72797 0.76506 0.60877 0.0
C512 C 0.74956 0.7797 0.62729 0.0
C513 C 0.70833 0.77736 0.59959 0.0
C514 C 0.70997 0.80433 0.609 0.0
C515 C 0.73077 0.81825 0.62847 0.0
H516 H 0.6687 0.95124 0.57323 0.0
H517 H 0.68766 0.91251 0.58001 0.0
C518 C 0.75041 0.80613 0.63744 0.0
C519 C 0.69083 0.81898 0.59819 0.0
H520 H 0.67932 0.86047 0.54342 0.0
C521 C 0.67325 0.82365 0.61658 0.0
C522 C 0.69244 0.83163 0.57116 0.0
C523 C 0.71137 0.8276 0.55083 0.0
C524 C 0.65812 0.84168 0.6091 0.0
C525 C 0.66071 0.8554 0.58256 0.0
C526 C 0.67734 0.84976 0.56369 0.0
C527 C 0.64895 0.8783 0.57557 0.0
C528 C 0.64066 0.84733 0.63012 0.0
C529 C 0.62092 0.87182 0.57033 0.0
C530 C 0.60996 0.89397 0.56645 0.0
C531 C 0.6269 0.92292 0.56789 0.0
C532 C 0.65505 0.92921 0.57229 0.0
C533 C 0.66596 0.90711 0.57599 0.0
H534 H 0.64224 0.83643 0.65049 0.0
H535 H 0.64661 0.87079 0.63325 0.0
H536 H 0.61911 0.8396 0.62223 0.0
H537 H 0.6075 0.84967 0.5698 0.0
H538 H 0.58821 0.88839 0.56289 0.0
H539 H 0.44466 0.29479 0.40915 0.0
H540 H 0.46442 0.26069 0.43241 0.0
H541 H 0.3854 0.19502 0.43083 0.0
H542 H 0.36559 0.22863 0.40738 0.0
H543 H 0.44592 0.22219 0.4857 0.0
H544 H 0.43878 0.165 0.38762 0.0
H545 H 0.43912 0.20159 0.38801 0.0
H546 H 0.40896 0.17235 0.39613 0.0
C547 C 0.4315 0.27311 0.41385 0.0
C548 C 0.40353 0.26447 0.4064 0.0
C549 C 0.44278 0.25375 0.4273 0.0
C550 C 0.42635 0.22537 0.43327 0.0
C551 C 0.39841 0.21685 0.42641 0.0
H552 H 0.4482 0.06564 0.48474 0.0
H553 H 0.43113 0.1046 0.47081 0.0
C554 C 0.3871 0.23617 0.41314 0.0
C555 C 0.43843 0.20399 0.44516 0.0
H556 H 0.4516 0.144 0.42865 0.0
C557 C 0.44738 0.20517 0.47327 0.0
C558 C 0.44021 0.18185 0.42886 0.0
C559 C 0.43146 0.18005 0.39841 0.0
C560 C 0.45741 0.18418 0.48569 0.0
C561 C 0.45894 0.16186 0.46936 0.0
C562 C 0.45034 0.16105 0.44117 0.0
C563 C 0.46887 0.13864 0.48092 0.0
C564 C 0.46543 0.18552 0.5163 0.0
C565 C 0.49573 0.14478 0.49165 0.0
C566 C 0.50562 0.12244 0.49968 0.0
C567 C 0.48887 0.09356 0.49692 0.0
C568 C 0.46175 0.08758 0.48701 0.0
C569 C 0.45192 0.10986 0.47903 0.0
H570 H 0.45691 0.19954 0.52715 0.0
H571 H 0.45852 0.16374 0.5263 0.0
H572 H 0.48788 0.1944 0.51914 0.0
H573 H 0.50933 0.1668 0.4929 0.0
H574 H 0.5266 0.12782 0.50727 0.0
H575 H 0.83332 0.28735 0.33708 0.0
H576 H 0.8766 0.31196 0.36244 0.0
H577 H 0.84754 0.38035 0.38079 0.0
H578 H 0.80425 0.35579 0.35649 0.0
H579 H 0.90396 0.3966 0.35996 0.0
H580 H 0.88135 0.31971 0.45073 0.0
H581 H 0.87703 0.30579 0.4163 0.0
H582 H 0.85476 0.3235 0.42678 0.0
C583 C 0.83619 0.30765 0.34649 0.0
C584 C 0.81531 0.31963 0.34461 0.0
C585 C 0.8609 0.32167 0.36086 0.0
C586 C 0.86509 0.34786 0.37346 0.0
C587 C 0.84467 0.36021 0.37101 0.0
H588 H 0.95507 0.45604 0.49911 0.0
H589 H 0.92285 0.42094 0.46862 0.0
C590 C 0.81999 0.34621 0.35689 0.0
C591 C 0.89018 0.36223 0.3903 0.0
H592 H 0.9198 0.36135 0.45525 0.0
C593 C 0.90784 0.38868 0.38057 0.0
C594 C 0.89484 0.35182 0.41723 0.0
C595 C 0.87604 0.3237 0.42862 0.0
C596 C 0.92958 0.40559 0.39755 0.0
C597 C 0.93367 0.39564 0.42484 0.0
C598 C 0.91661 0.36871 0.43422 0.0
C599 C 0.95362 0.41438 0.44482 0.0
C600 C 0.94711 0.43468 0.38681 0.0
C601 C 0.98157 0.42168 0.44185 0.0
C602 C 1.00011 0.4417 0.45931 0.0
C603 C 0.99088 0.45479 0.47987 0.0
C604 C 0.96284 0.44649 0.4834 0.0
C605 C 0.9444 0.42639 0.46607 0.0
H606 H 0.93939 0.44049 0.36623 0.0
H607 H 0.94824 0.45151 0.40168 0.0
H608 H 0.96804 0.43463 0.38481 0.0
H609 H 0.989 0.41242 0.42564 0.0
H610 H 0.02157 0.44758 0.4561 0.0
H611 H 0.73299 0.76895 0.41485 0.0
H612 H 0.72145 0.81061 0.42836 0.0
H613 H 0.6377 0.75675 0.43329 0.0
H614 H 0.64899 0.71544 0.41978 0.0
H615 H 0.67809 0.83524 0.40555 0.0
H616 H 0.66273 0.78982 0.5131 0.0
H617 H 0.68372 0.78035 0.48979 0.0
H618 H 0.6474 0.76504 0.48588 0.0
C619 C 0.71204 0.76623 0.41816 0.0
C620 C 0.69195 0.73885 0.4165 0.0
C621 C 0.7055 0.78997 0.42606 0.0
C622 C 0.6788 0.78663 0.43243 0.0
C623 C 0.65851 0.75973 0.42901 0.0
H624 H 0.5773 0.8694 0.4933 0.0
H625 H 0.60036 0.83853 0.47685 0.0
C626 C 0.66499 0.73615 0.42118 0.0
C627 C 0.67191 0.81053 0.44389 0.0
H628 H 0.64678 0.82837 0.50116 0.0
C629 C 0.67164 0.83404 0.42657 0.0
C630 C 0.66358 0.80897 0.47138 0.0
C631 C 0.66453 0.78484 0.49129 0.0
C632 C 0.66183 0.85519 0.43554 0.0
C633 C 0.65243 0.85293 0.46268 0.0
C634 C 0.65384 0.83005 0.48034 0.0
C635 C 0.63893 0.87253 0.47244 0.0
C636 C 0.66033 0.879 0.41551 0.0
C637 C 0.65296 0.90205 0.47572 0.0
C638 C 0.63974 0.91994 0.4852 0.0
C639 C 0.61223 0.90861 0.49156 0.0
C640 C 0.5984 0.87901 0.48841 0.0
C641 C 0.6116 0.86123 0.47906 0.0
H642 H 0.66405 0.87499 0.39397 0.0
H643 H 0.64015 0.88162 0.4156 0.0
H644 H 0.6759 0.89953 0.42204 0.0
H645 H 0.6742 0.9112 0.47125 0.0
H646 H 0.6511 0.94255 0.4877 0.0
H647 H 0.29771 0.63039 0.32019 0.0
H648 H 0.25346 0.60145 0.33753 0.0
H649 H 0.24437 0.67772 0.36845 0.0
H650 H 0.28791 0.70678 0.35046 0.0
H651 H 0.23937 0.59526 0.39186 0.0
H652 H 0.17125 0.64059 0.32789 0.0
H653 H 0.20576 0.64651 0.31934 0.0
H654 H 0.19886 0.6676 0.34527 0.0
C655 C 0.28605 0.64102 0.33029 0.0
C656 C 0.29638 0.67085 0.33407 0.0
C657 C 0.26085 0.62447 0.34026 0.0
C658 C 0.24544 0.6375 0.35391 0.0
C659 C 0.25561 0.66728 0.35748 0.0
H660 H 0.11699 0.57729 0.46696 0.0
H661 H 0.15276 0.60641 0.4371 0.0
C662 C 0.28073 0.6838 0.34754 0.0
C663 C 0.21963 0.61986 0.36618 0.0
H664 H 0.15258 0.61256 0.36829 0.0
C665 C 0.22034 0.5988 0.38645 0.0
C666 C 0.1948 0.62455 0.35911 0.0
C667 C 0.19249 0.64585 0.33651 0.0
C668 C 0.19709 0.58293 0.40042 0.0
C669 C 0.17253 0.58818 0.39387 0.0
C670 C 0.17157 0.60881 0.3733 0.0
C671 C 0.14785 0.57239 0.40869 0.0
C672 C 0.19894 0.561 0.42258 0.0
C673 C 0.13269 0.54407 0.40183 0.0
C674 C 0.11221 0.52738 0.41874 0.0
C675 C 0.10668 0.53873 0.44291 0.0
C676 C 0.12069 0.56784 0.44855 0.0
C677 C 0.14117 0.58452 0.43156 0.0
H678 H 0.22003 0.56102 0.42667 0.0
H679 H 0.19133 0.56531 0.44222 0.0
H680 H 0.18589 0.53923 0.41605 0.0
H681 H 0.13761 0.53445 0.38418 0.0
H682 H 0.10175 0.50512 0.41364 0.0
H683 H 0.43712 0.74213 0.71097 0.0
H684 H 0.46625 0.78979 0.69587 0.0
H685 H 0.40412 0.82476 0.71238 0.0
H686 H 0.37512 0.77724 0.72841 0.0
H687 H 0.45047 0.81779 0.65058 0.0
H688 H 0.47374 0.88586 0.74326 0.0
H689 H 0.46181 0.84706 0.74571 0.0
H690 H 0.43838 0.86576 0.7366 0.0
C691 C 0.42998 0.7601 0.71233 0.0
C692 C 0.40376 0.75587 0.72087 0.0
C693 C 0.44659 0.78731 0.70349 0.0
C694 C 0.43741 0.81084 0.70313 0.0
C695 C 0.41178 0.80701 0.71288 0.0
H696 H 0.49625 0.95626 0.58818 0.0
H697 H 0.46676 0.91875 0.61783 0.0
C698 C 0.39514 0.77978 0.72177 0.0
C699 C 0.45325 0.83833 0.68946 0.0
H700 H 0.48576 0.91 0.6997 0.0
C701 C 0.45822 0.83794 0.66134 0.0
C702 C 0.46334 0.86454 0.70359 0.0
C703 C 0.4593 0.86594 0.73402 0.0
C704 C 0.47301 0.86301 0.6469 0.0
C705 C 0.4827 0.88935 0.66084 0.0
C706 C 0.47792 0.88981 0.68902 0.0
C707 C 0.49928 0.91608 0.64656 0.0
C708 C 0.4787 0.86097 0.61698 0.0
C709 C 0.52703 0.92814 0.65391 0.0
C710 C 0.54397 0.94967 0.6371 0.0
C711 C 0.5334 0.95946 0.6126 0.0
C712 C 0.50515 0.94906 0.60671 0.0
C713 C 0.48824 0.92755 0.62358 0.0
H714 H 0.47469 0.83841 0.61115 0.0
H715 H 0.46542 0.8698 0.6033 0.0
H716 H 0.50012 0.87371 0.61295 0.0
H717 H 0.53588 0.91964 0.67168 0.0
H718 H 0.56557 0.95736 0.64246 0.0
H719 H 0.26073 0.28857 0.63959 0.0
H720 H 0.2366 0.31876 0.61719 0.0
H721 H 0.29223 0.39265 0.65859 0.0
H722 H 0.31634 0.36227 0.68172 0.0
H723 H 0.21286 0.35202 0.65073 0.0
H724 H 0.28441 0.41853 0.57382 0.0
H725 H 0.2855 0.38411 0.58695 0.0
H726 H 0.29794 0.41483 0.60852 0.0
C727 C 0.26801 0.31129 0.64386 0.0
C728 C 0.29028 0.32291 0.6628 0.0
C729 C 0.25423 0.32853 0.63091 0.0
C730 C 0.26256 0.35793 0.63622 0.0
C731 C 0.28559 0.37003 0.65401 0.0
H732 H 0.19252 0.48924 0.58105 0.0
H733 H 0.22184 0.46288 0.6001 0.0
C734 C 0.2994 0.35267 0.66716 0.0
C735 C 0.24562 0.37507 0.62488 0.0
H736 H 0.24374 0.42808 0.57761 0.0
C737 C 0.21958 0.36865 0.63472 0.0
C738 C 0.25449 0.39683 0.60415 0.0
C739 C 0.28204 0.40405 0.5925 0.0
C740 C 0.2022 0.3835 0.62454 0.0
C741 C 0.21076 0.4049 0.6033 0.0
C742 C 0.23702 0.41157 0.59371 0.0
C743 C 0.19291 0.4208 0.59107 0.0
C744 C 0.1751 0.37656 0.63723 0.0
C745 C 0.16695 0.40606 0.57915 0.0
C746 C 0.14992 0.42109 0.56863 0.0
C747 C 0.1587 0.45124 0.56929 0.0
C748 C 0.18501 0.466 0.58042 0.0
C749 C 0.20187 0.45095 0.59125 0.0
H750 H 0.1751 0.36646 0.65828 0.0
H751 H 0.16956 0.39614 0.63878 0.0
H752 H 0.1592 0.3611 0.62402 0.0
H753 H 0.15985 0.38288 0.57788 0.0
H754 H 0.13004 0.4091 0.55963 0.0
H755 H 0.7969 0.23644 0.69094 0.0
H756 H 0.76494 0.2005 0.66085 0.0
H757 H 0.69799 0.21715 0.6949 0.0
H758 H 0.72985 0.25296 0.72524 0.0
H759 H 0.68885 0.15968 0.69075 0.0
H760 H 0.72408 0.21732 0.59152 0.0
H761 H 0.75052 0.21062 0.61324 0.0
H762 H 0.73394 0.23413 0.62469 0.0
C763 C 0.77537 0.23254 0.69189 0.0
C764 C 0.76586 0.24764 0.71031 0.0
C765 C 0.75715 0.21207 0.67465 0.0
C766 C 0.72913 0.20655 0.67526 0.0
C767 C 0.71955 0.22117 0.69402 0.0
H768 H 0.6023 0.12213 0.55385 0.0
H769 H 0.63708 0.15593 0.58325 0.0
C770 C 0.73775 0.24153 0.7114 0.0
C771 C 0.70973 0.18537 0.65654 0.0
H772 H 0.69233 0.17002 0.58828 0.0
C773 C 0.68959 0.16192 0.66834 0.0
C774 C 0.71054 0.18857 0.62731 0.0
C775 C 0.73075 0.21415 0.61338 0.0
C776 C 0.67029 0.14147 0.65171 0.0
C777 C 0.67157 0.14423 0.62249 0.0
C778 C 0.69162 0.16777 0.61069 0.0
C779 C 0.6515 0.12365 0.60379 0.0
C780 C 0.64827 0.11755 0.66556 0.0
C781 C 0.64852 0.09435 0.60508 0.0
C782 C 0.62851 0.07489 0.5884 0.0
C783 C 0.61129 0.08445 0.56993 0.0
C784 C 0.61509 0.11399 0.56792 0.0
C785 C 0.63499 0.13338 0.58471 0.0
H786 H 0.64607 0.12261 0.68724 0.0
H787 H 0.62842 0.11326 0.65386 0.0
H788 H 0.65349 0.09761 0.66619 0.0
H789 H 0.6615 0.0865 0.61919 0.0
H790 H 0.62628 0.05232 0.59028 0.0
H791 H 0.79917 0.64738 0.60102 0.0
H792 H 0.82818 0.62701 0.5776 0.0
H793 H 0.86975 0.61919 0.65608 0.0
H794 H 0.84025 0.6387 0.67959 0.0
H795 H 0.88047 0.64786 0.57233 0.0
H796 H 0.85802 0.54208 0.62624 0.0
H797 H 0.83761 0.56449 0.62956 0.0
H798 H 0.86858 0.57039 0.65066 0.0
C799 C 0.81424 0.64086 0.61329 0.0
C800 C 0.81732 0.64442 0.64216 0.0
C801 C 0.83082 0.62925 0.5999 0.0
C802 C 0.85095 0.62109 0.61506 0.0
C803 C 0.85387 0.62443 0.64396 0.0
H804 H 1.00264 0.61844 0.56346 0.0
H805 H 0.96384 0.63044 0.57678 0.0
C806 C 0.83705 0.63569 0.65741 0.0
C807 C 0.87009 0.61104 0.60049 0.0
H808 H 0.89991 0.5594 0.60267 0.0
C809 C 0.88442 0.6283 0.57876 0.0
C810 C 0.87495 0.5852 0.60832 0.0
C811 C 0.85873 0.56434 0.62976 0.0
C812 C 0.90429 0.62116 0.56563 0.0
C813 C 0.91061 0.59655 0.57501 0.0
C814 C 0.8954 0.57854 0.59577 0.0
C815 C 0.93384 0.58991 0.56469 0.0
C816 C 0.91828 0.64004 0.54181 0.0
C817 C 0.93 0.56301 0.55365 0.0
C818 C 0.95226 0.55595 0.54622 0.0
C819 C 0.97882 0.57562 0.54985 0.0
C820 C 0.9825 0.60279 0.5603 0.0
C821 C 0.96027 0.60978 0.56777 0.0
H822 H 0.90533 0.65155 0.5313 0.0
H823 H 0.93727 0.65643 0.54988 0.0
H824 H 0.92359 0.62735 0.52621 0.0
H825 H 0.9098 0.54729 0.55118 0.0
H826 H 0.94867 0.53486 0.53819 0.0
H827 H 0.39582 0.3711 0.33059 0.0
H828 H 0.41384 0.39391 0.28654 0.0
H829 H 0.43279 0.3188 0.26788 0.0
H830 H 0.41513 0.29607 0.31194 0.0
H831 H 0.47383 0.36706 0.25636 0.0
H832 H 0.37773 0.37665 0.20988 0.0
H833 H 0.38797 0.39382 0.24261 0.0
H834 H 0.37901 0.35545 0.24106 0.0
C835 C 0.40378 0.35944 0.31705 0.0
C836 C 0.40406 0.33177 0.32481 0.0
C837 C 0.41393 0.37244 0.29179 0.0
C838 C 0.42419 0.35787 0.27357 0.0
C839 C 0.4249 0.33046 0.28151 0.0
H840 H 0.45772 0.40024 0.09909 0.0
H841 H 0.43748 0.37952 0.14296 0.0
C842 C 0.41494 0.31754 0.30681 0.0
C843 C 0.43473 0.3713 0.24649 0.0
H844 H 0.41758 0.40049 0.18548 0.0
C845 C 0.46149 0.37431 0.24086 0.0
C846 C 0.41852 0.38037 0.22601 0.0
C847 C 0.38913 0.37617 0.23001 0.0
C848 C 0.47258 0.38642 0.21559 0.0
C849 C 0.45673 0.3965 0.19555 0.0
C850 C 0.42983 0.3931 0.20096 0.0
C851 C 0.46775 0.41035 0.16881 0.0
C852 C 0.50104 0.38772 0.2104 0.0
C853 C 0.49094 0.43512 0.16865 0.0
C854 C 0.50263 0.44684 0.1437 0.0
C855 C 0.49117 0.43433 0.11824 0.0
C856 C 0.46712 0.41038 0.1183 0.0
C857 C 0.45553 0.3985 0.14337 0.0
H858 H 0.50734 0.37206 0.22393 0.0
H859 H 0.50281 0.38333 0.18842 0.0
H860 H 0.51541 0.40953 0.21502 0.0
H861 H 0.50033 0.44513 0.18792 0.0
H862 H 0.52102 0.4654 0.14451 0.0
H863 H 0.38832 0.58881 0.82764 0.0
H864 H 0.41297 0.58255 0.87084 0.0
H865 H 0.47779 0.66148 0.85259 0.0
H866 H 0.45267 0.66817 0.8096 0.0
H867 H 0.46076 0.57469 0.86933 0.0
H868 H 0.4734 0.66723 0.93544 0.0
H869 H 0.44875 0.65786 0.90646 0.0
H870 H 0.48382 0.6776 0.90072 0.0
C871 C 0.4075 0.60519 0.83329 0.0
C872 C 0.41874 0.62889 0.81538 0.0
C873 C 0.42154 0.60164 0.85794 0.0
C874 C 0.44717 0.6216 0.86505 0.0
C875 C 0.4578 0.64612 0.84786 0.0
H876 H 0.58513 0.60979 0.96296 0.0
H877 H 0.55238 0.6269 0.93593 0.0
C878 C 0.44354 0.64988 0.82327 0.0
C879 C 0.46417 0.61447 0.88804 0.0
H880 H 0.50212 0.63925 0.94764 0.0
C881 C 0.46946 0.58864 0.88665 0.0
C882 C 0.47574 0.63283 0.91047 0.0
C883 C 0.46996 0.66031 0.91357 0.0
C884 C 0.48641 0.58089 0.90671 0.0
C885 C 0.49818 0.59933 0.92899 0.0
C886 C 0.49287 0.62512 0.93058 0.0
C887 C 0.51718 0.59247 0.94979 0.0
C888 C 0.4923 0.55344 0.90341 0.0
C889 C 0.50808 0.56819 0.96748 0.0
C890 C 0.52672 0.55822 0.98289 0.0
C891 C 0.5548 0.57243 0.98085 0.0
C892 C 0.5637 0.59815 0.96486 0.0
C893 C 0.54501 0.60806 0.94945 0.0
H894 H 0.48576 0.5445 0.88243 0.0
H895 H 0.51432 0.5571 0.9071 0.0
H896 H 0.48126 0.53708 0.91892 0.0
H897 H 0.4866 0.55606 0.96817 0.0
H898 H 0.51909 0.53852 0.99519 0.0
H899 H 0.46444 0.34279 0.74644 0.0
H900 H 0.48688 0.36898 0.78804 0.0
H901 H 0.41004 0.34392 0.82629 0.0
H902 H 0.38753 0.31744 0.78512 0.0
H903 H 0.43917 0.4019 0.83133 0.0
H904 H 0.50396 0.33668 0.86398 0.0
H905 H 0.50765 0.35011 0.82873 0.0
H906 H 0.47578 0.32463 0.83874 0.0
C907 C 0.45232 0.34256 0.7638 0.0
C908 C 0.42407 0.32802 0.76219 0.0
C909 C 0.46522 0.35754 0.78764 0.0
C910 C 0.45024 0.35821 0.81052 0.0
C911 C 0.42208 0.34378 0.80896 0.0
H912 H 0.52377 0.42468 0.97423 0.0
H913 H 0.495 0.39384 0.93768 0.0
C914 C 0.4092 0.32878 0.78522 0.0
C915 C 0.46365 0.37464 0.83575 0.0
H916 H 0.51321 0.38064 0.8872 0.0
C917 C 0.45525 0.39711 0.84362 0.0
C918 C 0.48435 0.36818 0.85215 0.0
C919 C 0.49335 0.34342 0.8457 0.0
C920 C 0.46753 0.41382 0.86678 0.0
C921 C 0.48901 0.40815 0.88247 0.0
C922 C 0.49683 0.3851 0.87516 0.0
C923 C 0.50473 0.42703 0.90535 0.0
C924 C 0.45738 0.43746 0.87426 0.0
C925 C 0.51961 0.45594 0.89946 0.0
C926 C 0.53599 0.47345 0.92016 0.0
C927 C 0.53801 0.46257 0.94741 0.0
C928 C 0.5225 0.43381 0.95357 0.0
C929 C 0.50619 0.41613 0.93265 0.0
H930 H 0.43633 0.43377 0.86565 0.0
H931 H 0.45785 0.43932 0.89711 0.0
H932 H 0.47065 0.45822 0.86546 0.0
H933 H 0.5192 0.4648 0.87855 0.0
H934 H 0.54764 0.49547 0.9146 0.0
H935 H 0.74339 0.33994 0.81153 0.0
H936 H 0.72453 0.37452 0.82839 0.0
H937 H 0.7764 0.38396 0.90296 0.0
H938 H 0.79533 0.3493 0.88625 0.0
H939 H 0.72329 0.37235 0.91357 0.0
H940 H 0.75441 0.46128 0.83508 0.0
H941 H 0.73713 0.42686 0.82026 0.0
H942 H 0.76952 0.43345 0.83867 0.0
C943 C 0.75123 0.34986 0.83124 0.0
C944 C 0.77086 0.34187 0.84756 0.0
C945 C 0.74046 0.36969 0.84083 0.0
C946 C 0.74932 0.38214 0.86677 0.0
C947 C 0.76935 0.37469 0.88283 0.0
H948 H 0.68992 0.48615 0.969 0.0
H949 H 0.71826 0.46279 0.94877 0.0
C950 C 0.78005 0.35479 0.87331 0.0
C951 C 0.73603 0.40093 0.87822 0.0
H952 H 0.72035 0.46208 0.86525 0.0
C953 C 0.72292 0.39215 0.90317 0.0
C954 C 0.73543 0.42665 0.86452 0.0
C955 C 0.75009 0.4378 0.83829 0.0
C956 C 0.70866 0.40796 0.91445 0.0
C957 C 0.70783 0.43352 0.90063 0.0
C958 C 0.72109 0.44249 0.87579 0.0
C959 C 0.69251 0.45059 0.91139 0.0
C960 C 0.69388 0.39672 0.94064 0.0
C961 C 0.66927 0.45249 0.89652 0.0
C962 C 0.65305 0.46589 0.90798 0.0
C963 C 0.65987 0.47771 0.93448 0.0
C964 C 0.68395 0.47706 0.94866 0.0
C965 C 0.70014 0.46364 0.93719 0.0
H966 H 0.69165 0.37385 0.94528 0.0
H967 H 0.70548 0.40957 0.9584 0.0
H968 H 0.67338 0.39872 0.93899 0.0
H969 H 0.66314 0.44267 0.8765 0.0
H970 H 0.63474 0.46621 0.89641 0.0
H971 H 0.77578 0.69435 0.74071 0.0
H972 H 0.7566 0.67612 0.78543 0.0
H973 H 0.72945 0.58964 0.75593 0.0
H974 H 0.74789 0.60768 0.71079 0.0
H975 H 0.70094 0.64209 0.79581 0.0
H976 H 0.77368 0.58629 0.83049 0.0
H977 H 0.78054 0.61358 0.80309 0.0
H978 H 0.75781 0.57787 0.79636 0.0
C979 C 0.76543 0.67148 0.7435 0.0
C980 C 0.7634 0.65253 0.72198 0.0
C981 C 0.75468 0.66108 0.76922 0.0
C982 C 0.74194 0.6315 0.77414 0.0
C983 C 0.73966 0.61251 0.75275 0.0
H984 H 0.6348 0.54039 0.90163 0.0
H985 H 0.65787 0.55814 0.85875 0.0
C986 C 0.75026 0.62289 0.72695 0.0
C987 C 0.73041 0.62064 0.80143 0.0
H988 H 0.7362 0.57892 0.85844 0.0
C989 C 0.7087 0.62837 0.80954 0.0
C990 C 0.74073 0.60292 0.81941 0.0
C991 C 0.76462 0.59479 0.81212 0.0
C992 C 0.69664 0.61833 0.83487 0.0
C993 C 0.70654 0.60009 0.85255 0.0
C994 C 0.72861 0.59281 0.84476 0.0
C995 C 0.69368 0.588 0.87891 0.0
C996 C 0.67335 0.62724 0.84266 0.0
C997 C 0.70651 0.59842 0.90457 0.0
C998 C 0.69331 0.58838 0.92927 0.0
C999 C 0.66712 0.56761 0.92868 0.0
C1000 C 0.65487 0.55649 0.90293 0.0
C1001 C 0.66799 0.56663 0.87834 0.0
H1002 H 0.67105 0.64512 0.82908 0.0
H1003 H 0.65421 0.60863 0.84075 0.0
H1004 H 0.67628 0.63401 0.86456 0.0
H1005 H 0.72641 0.61487 0.90541 0.0
H1006 H 0.70337 0.59733 0.94871 0.0
H1007 H 0.68887 0.63537 0.30924 0.0
H1008 H 0.66922 0.61718 0.26371 0.0
H1009 H 0.74844 0.6503 0.23027 0.0
H1010 H 0.76831 0.66888 0.27575 0.0
H1011 H 0.66903 0.64407 0.21102 0.0
H1012 H 0.72283 0.56481 0.21196 0.0
H1013 H 0.72101 0.58335 0.2426 0.0
H1014 H 0.74424 0.60151 0.21653 0.0
C1015 C 0.70214 0.63929 0.29216 0.0
C1016 C 0.73029 0.65358 0.29636 0.0
C1017 C 0.69084 0.62869 0.2661 0.0
C1018 C 0.70735 0.63193 0.24358 0.0
C1019 C 0.73531 0.64697 0.24742 0.0
H1020 H 0.63331 0.58058 0.07461 0.0
H1021 H 0.6628 0.60934 0.11208 0.0
C1022 C 0.74665 0.6576 0.27348 0.0
C1023 C 0.69528 0.6188 0.21647 0.0
H1024 H 0.6947 0.56656 0.17236 0.0
C1025 C 0.67482 0.62733 0.20241 0.0
C1026 C 0.70267 0.59675 0.2053 0.0
C1027 C 0.72372 0.58581 0.21991 0.0
C1028 C 0.6613 0.61413 0.17784 0.0
C1029 C 0.66857 0.59196 0.16679 0.0
C1030 C 0.68936 0.58379 0.18059 0.0
C1031 C 0.65275 0.57468 0.14298 0.0
C1032 C 0.63849 0.62313 0.16456 0.0
C1033 C 0.63811 0.54546 0.14751 0.0
C1034 C 0.62145 0.52912 0.12629 0.0
C1035 C 0.61906 0.54144 0.09977 0.0
C1036 C 0.63471 0.57042 0.09475 0.0
C1037 C 0.65136 0.58693 0.11623 0.0
H1038 H 0.63246 0.63718 0.1781 0.0
H1039 H 0.64509 0.63515 0.14482 0.0
H1040 H 0.62044 0.60398 0.15962 0.0
H1041 H 0.6389 0.53543 0.16784 0.0
H1042 H 0.60988 0.50683 0.13092 0.0
H1043 H 0.36024 0.64505 0.1769 0.0
H1044 H 0.37918 0.61083 0.15936 0.0
H1045 H 0.43215 0.62019 0.23312 0.0
H1046 H 0.41301 0.65424 0.25091 0.0
H1047 H 0.43191 0.62508 0.14758 0.0
H1048 H 0.40596 0.53381 0.22397 0.0
H1049 H 0.38949 0.56051 0.22215 0.0
H1050 H 0.42256 0.56811 0.23931 0.0
C1051 C 0.37563 0.63946 0.18957 0.0
C1052 C 0.38523 0.65242 0.21523 0.0
C1053 C 0.38638 0.61984 0.17957 0.0
C1054 C 0.40695 0.61273 0.19499 0.0
C1055 C 0.41588 0.62481 0.22111 0.0
H1056 H 0.52372 0.53443 0.15483 0.0
H1057 H 0.49542 0.55589 0.17791 0.0
C1058 C 0.40497 0.64434 0.23124 0.0
C1059 C 0.42096 0.59526 0.18233 0.0
H1060 H 0.43898 0.53513 0.19167 0.0
C1061 C 0.43319 0.60525 0.1571 0.0
C1062 C 0.42285 0.56952 0.19488 0.0
C1063 C 0.40931 0.55717 0.22145 0.0
C1064 C 0.44762 0.59056 0.1443 0.0
C1065 C 0.44954 0.56486 0.15683 0.0
C1066 C 0.43735 0.55478 0.18207 0.0
C1067 C 0.46484 0.54878 0.14419 0.0
C1068 C 0.46133 0.60311 0.11783 0.0
C1069 C 0.45655 0.53684 0.11796 0.0
C1070 C 0.47271 0.52465 0.10465 0.0
C1071 C 0.49742 0.5241 0.1174 0.0
C1072 C 0.50493 0.53472 0.14432 0.0
C1073 C 0.48874 0.54692 0.1576 0.0
H1074 H 0.46308 0.62601 0.11436 0.0
H1075 H 0.48195 0.60153 0.11814 0.0
H1076 H 0.44921 0.59089 0.09997 0.0
H1077 H 0.43793 0.53765 0.10745 0.0
H1078 H 0.46619 0.51643 0.08405 0.0
H1079 H 0.7404 0.36191 0.22109 0.0
H1080 H 0.72935 0.37573 0.17337 0.0
H1081 H 0.64431 0.34505 0.1899 0.0
H1082 H 0.65516 0.33132 0.23734 0.0
H1083 H 0.66156 0.33241 0.13306 0.0
H1084 H 0.69944 0.44657 0.16557 0.0
H1085 H 0.72023 0.42436 0.17261 0.0
H1086 H 0.68996 0.41739 0.19096 0.0
C1087 C 0.71934 0.35758 0.21425 0.0
C1088 C 0.69861 0.34587 0.23287 0.0
C1089 C 0.71309 0.36549 0.18711 0.0
C1090 C 0.68606 0.36146 0.1783 0.0
C1091 C 0.66528 0.34823 0.19637 0.0
H1092 H 0.56796 0.39362 0.07771 0.0
H1093 H 0.59894 0.37199 0.10102 0.0
C1094 C 0.6715 0.3406 0.22346 0.0
C1095 C 0.67914 0.37378 0.15162 0.0
H1096 H 0.67204 0.43584 0.12473 0.0
C1097 C 0.66441 0.35514 0.13078 0.0
C1098 C 0.68321 0.40346 0.14865 0.0
C1099 C 0.69902 0.42428 0.17055 0.0
C1100 C 0.65207 0.36521 0.1078 0.0
C1101 C 0.65386 0.39442 0.10624 0.0
C1102 C 0.67052 0.41342 0.12594 0.0
C1103 C 0.63548 0.40487 0.08743 0.0
C1104 C 0.6365 0.34423 0.08596 0.0
C1105 C 0.64558 0.43067 0.07191 0.0
C1106 C 0.62779 0.4435 0.0589 0.0
C1107 C 0.59957 0.43076 0.06125 0.0
C1108 C 0.58953 0.40407 0.07541 0.0
C1109 C 0.60729 0.39142 0.08854 0.0
H1110 H 0.64612 0.32774 0.08345 0.0
H1111 H 0.6156 0.33283 0.09261 0.0
H1112 H 0.63529 0.3552 0.06556 0.0
H1113 H 0.66726 0.44154 0.07092 0.0
H1114 H 0.63622 0.46397 0.04802 0.0
loop_
_geom_bond_atom_site_label_1
_geom_bond_atom_site_label_2
_geom_bond_distance
_geom_bond_site_symmetry_2
_ccdc_geom_bond_type
H0 C1 0.949 . S
C1 H0 0.949 . S
C1 C2 1.395 . S
C1 C3 1.391 . S
C2 C1 1.395 . S
C2 C5 1.390 . S
C3 C1 1.391 . S
C3 C7 1.387 . S
C3 C8 1.491 . S
H4 C5 0.950 . S
C5 C2 1.390 . S
C5 H4 0.950 . S
C5 C6 1.378 . S
C6 C5 1.378 . S
C6 C7 1.409 . S
C7 C3 1.387 . S
C7 C6 1.409 . S
C7 H9 0.951 . S
C8 C3 1.491 . S
C8 C10 1.382 . S
C8 C12 1.404 . S
H9 C7 0.951 . S
C10 C8 1.382 . S
C10 C11 1.390 . S
C10 H15 0.949 . S
C11 C10 1.390 . S
C11 C16 1.399 . S
C12 C8 1.404 . S
C12 H13 0.950 . S
C12 C14 1.375 . S
H13 C12 0.950 . S
C14 C12 1.375 . S
C14 C16 1.382 . S
C14 H18 0.950 . S
H15 C10 0.949 . S
C16 C11 1.399 . S
C16 C14 1.382 . S
C16 H17 0.952 . S
H17 C16 0.952 . S
H18 C14 0.950 . S
H19 C20 0.949 . S
C20 H19 0.949 . S
C20 C21 1.395 . S
C20 C22 1.391 . S
C21 C20 1.395 . S
C21 C24 1.390 . S
C22 C20 1.391 . S
C22 C26 1.387 . S
C22 C27 1.491 . S
H23 C24 0.950 . S
C24 C21 1.390 . S
C24 H23 0.950 . S
C24 C25 1.378 . S
C25 C24 1.378 . S
C25 C26 1.409 . S
C26 C22 1.387 . S
C26 C25 1.409 . S
C26 H28 0.951 . S
C27 C22 1.491 . S
C27 C29 1.382 . S
C27 C31 1.404 . S
H28 C26 0.951 . S
C29 C27 1.382 . S
C29 C30 1.390 . S
C29 H34 0.949 . S
C30 C29 1.390 . S
C30 C35 1.399 . S
C31 C27 1.404 . S
C31 H32 0.950 . S
C31 C33 1.375 . S
H32 C31 0.950 . S
C33 C31 1.375 . S
C33 C35 1.382 . S
C33 H37 0.950 . S
H34 C29 0.949 . S
C35 C30 1.399 . S
C35 C33 1.382 . S
C35 H36 0.952 . S
H36 C35 0.952 . S
H37 C33 0.950 . S
H38 C39 0.949 . S
C39 H38 0.949 . S
C39 C40 1.395 . S
C39 C41 1.391 . S
C40 C39 1.395 . S
C40 C43 1.390 . S
C41 C39 1.391 . S
C41 C45 1.387 . S
C41 C46 1.491 . S
H42 C43 0.950 . S
C43 C40 1.390 . S
C43 H42 0.950 . S
C43 C44 1.378 . S
C44 C43 1.378 . S
C44 C45 1.409 . S
C45 C41 1.387 . S
C45 C44 1.409 . S
C45 H47 0.951 . S
C46 C41 1.491 . S
C46 C48 1.382 . S
C46 C50 1.404 . S
H47 C45 0.951 . S
C48 C46 1.382 . S
C48 C49 1.390 . S
C48 H53 0.949 . S
C49 C48 1.390 . S
C49 C54 1.399 . S
C50 C46 1.404 . S
C50 H51 0.950 . S
C50 C52 1.375 . S
H51 C50 0.950 . S
C52 C50 1.375 . S
C52 C54 1.382 . S
C52 H56 0.950 . S
H53 C48 0.949 . S
C54 C49 1.399 . S
C54 C52 1.382 . S
C54 H55 0.952 . S
H55 C54 0.952 . S
H56 C52 0.950 . S
H57 C58 0.949 . S
C58 H57 0.949 . S
C58 C59 1.395 . S
C58 C60 1.391 . S
C59 C58 1.395 . S
C59 C62 1.390 . S
C60 C58 1.391 . S
C60 C64 1.387 . S
C60 C65 1.491 . S
H61 C62 0.950 . S
C62 C59 1.390 . S
C62 H61 0.950 . S
C62 C63 1.378 . S
C63 C62 1.378 . S
C63 C64 1.409 . S
C64 C60 1.387 . S
C64 C63 1.409 . S
C64 H66 0.951 . S
C65 C60 1.491 . S
C65 C67 1.382 . S
C65 C69 1.404 . S
H66 C64 0.951 . S
C67 C65 1.382 . S
C67 C68 1.390 . S
C67 H72 0.949 . S
C68 C67 1.390 . S
C68 C73 1.399 . S
C69 C65 1.404 . S
C69 H70 0.950 . S
C69 C71 1.375 . S
H70 C69 0.950 . S
C71 C69 1.375 . S
C71 C73 1.382 . S
C71 H75 0.950 . S
H72 C67 0.949 . S
C73 C68 1.399 . S
C73 C71 1.382 . S
C73 H74 0.952 . S
H74 C73 0.952 . S
H75 C71 0.950 . S
H76 C77 0.949 . S
C77 H76 0.949 . S
C77 C78 1.395 . S
C77 C79 1.391 . S
C78 C77 1.395 . S
C78 C81 1.390 . S
C79 C77 1.391 . S
C79 C83 1.387 . S
C79 C84 1.491 . S
H80 C81 0.950 . S
C81 C78 1.390 . S
C81 H80 0.950 . S
C81 C82 1.378 . S
C82 C81 1.378 . S
C82 C83 1.409 . S
C83 C79 1.387 . S
C83 C82 1.409 . S
C83 H85 0.951 . S
C84 C79 1.491 . S
C84 C86 1.382 . S
C84 C88 1.404 . S
H85 C83 0.951 . S
C86 C84 1.382 . S
C86 C87 1.390 . S
C86 H91 0.949 . S
C87 C86 1.390 . S
C87 C92 1.399 . S
C88 C84 1.404 . S
C88 H89 0.950 . S
C88 C90 1.375 . S
H89 C88 0.950 . S
C90 C88 1.375 . S
C90 C92 1.382 . S
C90 H94 0.950 . S
H91 C86 0.949 . S
C92 C87 1.399 . S
C92 C90 1.382 . S
C92 H93 0.952 . S
H93 C92 0.952 . S
H94 C90 0.950 . S
H95 C96 0.949 . S
C96 H95 0.949 . S
C96 C97 1.395 . S
C96 C98 1.391 . S
C97 C96 1.395 . S
C97 C100 1.390 . S
C98 C96 1.391 . S
C98 C102 1.387 . S
C98 C103 1.491 . S
H99 C100 0.950 . S
C100 C97 1.390 . S
C100 H99 0.950 . S
C100 C101 1.378 . S
C101 C100 1.378 . S
C101 C102 1.409 . S
C102 C98 1.387 . S
C102 C101 1.409 . S
C102 H104 0.951 . S
C103 C98 1.491 . S
C103 C105 1.382 . S
C103 C107 1.404 . S
H104 C102 0.951 . S
C105 C103 1.382 . S
C105 C106 1.390 . S
C105 H110 0.949 . S
C106 C105 1.390 . S
C106 C111 1.399 . S
C107 C103 1.404 . S
C107 H108 0.950 . S
C107 C109 1.375 . S
H108 C107 0.950 . S
C109 C107 1.375 . S
C109 C111 1.382 . S
C109 H113 0.950 . S
H110 C105 0.949 . S
C111 C106 1.399 . S
C111 C109 1.382 . S
C111 H112 0.952 . S
H112 C111 0.952 . S
H113 C109 0.950 . S
H114 C115 0.949 . S
C115 H114 0.949 . S
C115 C116 1.395 . S
C115 C117 1.391 . S
C116 C115 1.395 . S
C116 C119 1.390 . S
C117 C115 1.391 . S
C117 C121 1.387 . S
C117 C122 1.491 . S
H118 C119 0.950 . S
C119 C116 1.390 . S
C119 H118 0.950 . S
C119 C120 1.378 . S
C120 C119 1.378 . S
C120 C121 1.409 . S
C121 C117 1.387 . S
C121 C120 1.409 . S
C121 H123 0.951 . S
C122 C117 1.491 . S
C122 C124 1.382 . S
C122 C126 1.404 . S
H123 C121 0.951 . S
C124 C122 1.382 . S
C124 C125 1.390 . S
C124 H129 0.949 . S
C125 C124 1.390 . S
C125 C130 1.399 . S
C126 C122 1.404 . S
C126 H127 0.950 . S
C126 C128 1.375 . S
H127 C126 0.950 . S
C128 C126 1.375 . S
C128 C130 1.382 . S
C128 H132 0.950 . S
H129 C124 0.949 . S
C130 C125 1.399 . S
C130 C128 1.382 . S
C130 H131 0.952 . S
H131 C130 0.952 . S
H132 C128 0.950 . S
H133 C134 0.949 . S
C134 H133 0.949 . S
C134 C135 1.395 . S
C134 C136 1.391 . S
C135 C134 1.395 . S
C135 C138 1.390 . S
C136 C134 1.391 . S
C136 C140 1.387 . S
C136 C141 1.491 . S
H137 C138 0.950 . S
C138 C135 1.390 . S
C138 H137 0.950 . S
C138 C139 1.378 . S
C139 C138 1.378 . S
C139 C140 1.409 . S
C140 C136 1.387 . S
C140 C139 1.409 . S
C140 H142 0.951 . S
C141 C136 1.491 . S
C141 C143 1.382 . S
C141 C145 1.404 . S
H142 C140 0.951 . S
C143 C141 1.382 . S
C143 C144 1.390 . S
C143 H148 0.949 . S
C144 C143 1.390 . S
C144 C149 1.399 . S
C145 C141 1.404 . S
C145 H146 0.950 . S
C145 C147 1.375 . S
H146 C145 0.950 . S
C147 C145 1.375 . S
C147 C149 1.382 . S
C147 H151 0.950 . S
H148 C143 0.949 . S
C149 C144 1.399 . S
C149 C147 1.382 . S
C149 H150 0.952 . S
H150 C149 0.952 . S
H151 C147 0.950 . S
Co152 O155 2.042 . S
Co152 O162 2.264 . S
Co152 O181 2.286 . S
Co152 O182 2.069 . S
Co152 O184 2.015 . S
Co153 O155 2.122 . S
Co153 O161 2.073 . S
Co153 O162 2.327 . S
Co153 O163 1.976 . S
Co154 O155 2.087 . S
Co154 O157 2.087 . S
Co154 O164 2.111 . S
Co154 O165 2.143 . S
Co154 O169 2.111 . S
Co154 O183 2.143 . S
O155 Co152 2.042 . S
O155 Co153 2.122 . S
O155 Co154 2.087 . S
O155 H156 0.980 . S
H156 O155 0.980 . S
O157 Co154 2.087 . S
O157 Co158 2.042 1_455 S
O157 Co159 2.113 1_455 S
O157 H160 0.980 . S
Co158 O157 2.042 1_655 S
Co158 O166 2.286 . S
Co158 O167 2.069 . S
Co158 O168 2.015 . S
Co158 O171 2.264 . S
Co159 O157 2.113 1_655 S
Co159 O170 1.980 . S
Co159 O171 2.341 . S
Co159 O172 2.079 1_655 S
H160 O157 0.980 . S
O161 Co153 2.073 . S
O161 C176 1.245 . S
O162 Co152 2.264 . S
O162 Co153 2.327 . S
O162 C176 1.257 . S
O163 Co153 1.976 . S
O163 C175 1.251 . S
O164 Co154 2.111 . S
O164 C175 1.274 . S
O165 Co154 2.143 . S
O165 C178 1.246 1_455 S
O166 Co158 2.286 . S
O166 C177 1.259 . S
O167 Co158 2.069 . S
O167 C177 1.289 . S
O168 Co158 2.015 . S
O168 C178 1.257 . S
O169 Co154 2.111 . S
O169 C179 1.274 1_455 S
O170 Co159 1.980 . S
O170 C179 1.251 . S
O171 Co158 2.264 . S
O171 Co159 2.341 . S
O171 C180 1.257 . S
O172 Co159 2.079 1_455 S
O172 C180 1.245 1_455 S
C173 O181 1.259 . S
C173 O182 1.289 . S
C174 O183 1.246 . S
C174 O184 1.257 . S
C175 O163 1.251 . S
C175 O164 1.274 . S
C176 O161 1.245 . S
C176 O162 1.257 . S
C177 O166 1.259 . S
C177 O167 1.289 . S
C178 O165 1.246 1_655 S
C178 O168 1.257 . S
C179 O169 1.274 1_655 S
C179 O170 1.251 . S
C180 O171 1.257 . S
C180 O172 1.245 1_655 S
O181 Co152 2.286 . S
O181 C173 1.259 . S
O182 Co152 2.069 . S
O182 C173 1.289 . S
O183 Co154 2.143 . S
O183 C174 1.246 . S
O184 Co152 2.015 . S
O184 C174 1.257 . S
Co185 O188 2.042 . S
Co185 O195 2.264 . S
Co185 O214 2.286 . S
Co185 O215 2.069 . S
Co185 O217 2.015 . S
Co186 O188 2.122 . S
Co186 O194 2.073 . S
Co186 O195 2.327 . S
Co186 O196 1.976 . S
Co187 O188 2.087 1_545 S
Co187 O190 2.087 . S
Co187 O197 2.111 1_545 S
Co187 O198 2.143 . S
Co187 O202 2.111 . S
Co187 O216 2.143 1_545 S
O188 Co185 2.042 . S
O188 Co186 2.122 . S
O188 Co187 2.087 1_565 S
O188 H189 0.980 1_565 S
H189 O188 0.980 1_545 S
O190 Co187 2.087 . S
O190 Co191 2.042 . S
O190 Co192 2.122 . S
O190 H193 0.980 . S
Co191 O190 2.042 . S
Co191 O199 2.286 . S
Co191 O200 2.069 . S
Co191 O201 2.015 . S
Co191 O204 2.264 . S
Co192 O190 2.122 . S
Co192 O203 1.976 . S
Co192 O204 2.327 . S
Co192 O205 2.073 . S
H193 O190 0.980 . S
O194 Co186 2.073 . S
O194 C209 1.245 . S
O195 Co185 2.264 . S
O195 Co186 2.327 . S
O195 C209 1.257 . S
O196 Co186 1.976 . S
O196 C208 1.251 . S
O197 Co187 2.111 1_565 S
O197 C208 1.274 . S
O198 Co187 2.143 . S
O198 C211 1.246 . S
O199 Co191 2.286 . S
O199 C210 1.259 . S
O200 Co191 2.069 . S
O200 C210 1.289 . S
O201 Co191 2.015 . S
O201 C211 1.257 . S
O202 Co187 2.111 . S
O202 C212 1.274 . S
O203 Co192 1.976 . S
O203 C212 1.251 . S
O204 Co191 2.264 . S
O204 Co192 2.327 . S
O204 C213 1.257 . S
O205 Co192 2.073 . S
O205 C213 1.245 . S
C206 O214 1.259 . S
C206 O215 1.289 . S
C207 O216 1.246 . S
C207 O217 1.257 . S
C208 O196 1.251 . S
C208 O197 1.274 . S
C209 O194 1.245 . S
C209 O195 1.257 . S
C210 O199 1.259 . S
C210 O200 1.289 . S
C211 O198 1.246 . S
C211 O201 1.257 . S
C212 O202 1.274 . S
C212 O203 1.251 . S
C213 O204 1.257 . S
C213 O205 1.245 . S
O214 Co185 2.286 . S
O214 C206 1.259 . S
O215 Co185 2.069 . S
O215 C206 1.289 . S
O216 Co187 2.143 1_565 S
O216 C207 1.246 . S
O217 Co185 2.015 . S
O217 C207 1.257 . S
Co218 O221 2.042 . S
Co218 O228 2.264 . S
Co218 O247 2.286 . S
Co218 O248 2.069 . S
Co218 O250 2.015 . S
Co219 O221 2.122 . S
Co219 O227 2.073 . S
Co219 O228 2.327 . S
Co219 O229 1.976 . S
Co220 O221 2.087 . S
Co220 O223 2.087 1_554 S
Co220 O230 2.111 . S
Co220 O231 2.143 1_554 S
Co220 O235 2.111 . S
Co220 O249 2.143 . S
O221 Co218 2.042 . S
O221 Co219 2.122 . S
O221 Co220 2.087 . S
O221 H222 0.980 . S
H222 O221 0.980 . S
O223 Co220 2.087 1_556 S
O223 Co224 2.042 . S
O223 Co225 2.122 . S
O223 H226 0.980 . S
Co224 O223 2.042 . S
Co224 O232 2.286 . S
Co224 O233 2.069 . S
Co224 O234 2.015 . S
Co224 O237 2.264 . S
Co225 O223 2.122 . S
Co225 O236 1.976 . S
Co225 O237 2.327 . S
Co225 O238 2.073 . S
H226 O223 0.980 . S
O227 Co219 2.073 . S
O227 C242 1.245 . S
O228 Co218 2.264 . S
O228 Co219 2.327 . S
O228 C242 1.257 . S
O229 Co219 1.976 . S
O229 C241 1.251 . S
O230 Co220 2.111 . S
O230 C241 1.274 . S
O231 Co220 2.143 1_556 S
O231 C244 1.246 . S
O232 Co224 2.286 . S
O232 C243 1.259 . S
O233 Co224 2.069 . S
O233 C243 1.289 . S
O234 Co224 2.015 . S
O234 C244 1.257 . S
O235 Co220 2.111 . S
O235 C245 1.274 1_554 S
O236 Co225 1.976 . S
O236 C245 1.251 . S
O237 Co224 2.264 . S
O237 Co225 2.327 . S
O237 C246 1.257 . S
O238 Co225 2.073 . S
O238 C246 1.245 . S
C239 O247 1.259 . S
C239 O248 1.289 . S
C240 O249 1.246 . S
C240 O250 1.257 . S
C241 O229 1.251 . S
C241 O230 1.274 . S
C242 O227 1.245 . S
C242 O228 1.257 . S
C243 O232 1.259 . S
C243 O233 1.289 . S
C244 O231 1.246 . S
C244 O234 1.257 . S
C245 O235 1.274 1_556 S
C245 O236 1.251 . S
C246 O237 1.257 . S
C246 O238 1.245 . S
O247 Co218 2.286 . S
O247 C239 1.259 . S
O248 Co218 2.069 . S
O248 C239 1.289 . S
O249 Co220 2.143 . S
O249 C240 1.246 . S
O250 Co218 2.015 . S
O250 C240 1.257 . S
H251 C259 0.929 . S
H252 C261 0.930 . S
H253 C263 0.930 . S
H254 C266 0.929 . S
H255 C269 0.930 . S
H256 C271 0.960 . S
H257 C271 0.960 . S
H258 C271 0.960 . S
C259 H251 0.929 . S
C259 C260 1.377 . S
C259 C261 1.384 . S
C260 C259 1.377 . S
C260 C266 1.390 . S
C261 H252 0.930 . S
C261 C259 1.384 . S
C261 C262 1.372 . S
C262 C261 1.372 . S
C262 C263 1.400 . S
C262 C267 1.490 . S
C263 H253 0.930 . S
C263 C262 1.400 . S
C263 C266 1.386 . S
H264 C280 0.930 . S
H265 C281 0.931 . S
C266 H254 0.929 . S
C266 C260 1.390 . S
C266 C263 1.386 . S
C267 C262 1.490 . S
C267 C269 1.395 . S
C267 C270 1.403 . S
H268 C274 0.930 . S
C269 H255 0.930 . S
C269 C267 1.395 . S
C269 C272 1.403 . S
C270 C267 1.403 . S
C270 C271 1.524 . S
C270 C274 1.400 . S
C271 H256 0.960 . S
C271 H257 0.960 . S
C271 H258 0.960 . S
C271 C270 1.524 . S
C272 C269 1.403 . S
C272 C273 1.392 . S
C272 C276 1.495 . S
C273 C272 1.392 . S
C273 C274 1.385 . S
C273 C275 1.478 . S
C274 H268 0.930 . S
C274 C270 1.400 . S
C274 C273 1.385 . S
C275 C273 1.478 . S
C275 C277 1.381 . S
C275 C281 1.383 . S
C276 C272 1.495 . S
C276 H282 0.959 . S
C276 H283 0.961 . S
C276 H284 0.960 . S
C277 C275 1.381 . S
C277 C278 1.394 . S
C277 H285 0.930 . S
C278 C277 1.394 . S
C278 C279 1.383 . S
C278 H286 0.929 . S
C279 C278 1.383 . S
C279 C280 1.377 . S
C280 H264 0.930 . S
C280 C279 1.377 . S
C280 C281 1.379 . S
C281 H265 0.931 . S
C281 C275 1.383 . S
C281 C280 1.379 . S
H282 C276 0.959 . S
H283 C276 0.961 . S
H284 C276 0.960 . S
H285 C277 0.930 . S
H286 C278 0.929 . S
H287 C295 0.929 . S
H288 C297 0.930 . S
H289 C299 0.930 . S
H290 C302 0.929 . S
H291 C305 0.930 . S
H292 C307 0.960 . S
H293 C307 0.960 . S
H294 C307 0.960 . S
C295 H287 0.929 . S
C295 C296 1.377 . S
C295 C297 1.384 . S
C296 C295 1.377 . S
C296 C302 1.390 . S
C297 H288 0.930 . S
C297 C295 1.384 . S
C297 C298 1.372 . S
C298 C297 1.372 . S
C298 C299 1.400 . S
C298 C303 1.490 . S
C299 H289 0.930 . S
C299 C298 1.400 . S
C299 C302 1.386 . S
H300 C316 0.930 . S
H301 C317 0.931 . S
C302 H290 0.929 . S
C302 C296 1.390 . S
C302 C299 1.386 . S
C303 C298 1.490 . S
C303 C305 1.395 . S
C303 C306 1.403 . S
H304 C310 0.930 . S
C305 H291 0.930 . S
C305 C303 1.395 . S
C305 C308 1.403 . S
C306 C303 1.403 . S
C306 C307 1.524 . S
C306 C310 1.400 . S
C307 H292 0.960 . S
C307 H293 0.960 . S
C307 H294 0.960 . S
C307 C306 1.524 . S
C308 C305 1.403 . S
C308 C309 1.392 . S
C308 C312 1.495 . S
C309 C308 1.392 . S
C309 C310 1.385 . S
C309 C311 1.478 . S
C310 H304 0.930 . S
C310 C306 1.400 . S
C310 C309 1.385 . S
C311 C309 1.478 . S
C311 C313 1.381 . S
C311 C317 1.383 . S
C312 C308 1.495 . S
C312 H318 0.959 . S
C312 H319 0.961 . S
C312 H320 0.960 . S
C313 C311 1.381 . S
C313 C314 1.394 . S
C313 H321 0.930 . S
C314 C313 1.394 . S
C314 C315 1.383 . S
C314 H322 0.929 . S
C315 C314 1.383 . S
C315 C316 1.377 . S
C316 H300 0.930 . S
C316 C315 1.377 . S
C316 C317 1.379 . S
C317 H301 0.931 . S
C317 C311 1.383 . S
C317 C316 1.379 . S
H318 C312 0.959 . S
H319 C312 0.961 . S
H320 C312 0.960 . S
H321 C313 0.930 . S
H322 C314 0.929 . S
H323 C331 0.929 . S
H324 C333 0.930 . S
H325 C335 0.930 . S
H326 C338 0.929 . S
H327 C341 0.930 . S
H328 C343 0.960 . S
H329 C343 0.960 . S
H330 C343 0.960 . S
C331 H323 0.929 . S
C331 C332 1.377 . S
C331 C333 1.384 . S
C332 C331 1.377 . S
C332 C338 1.390 . S
C333 H324 0.930 . S
C333 C331 1.384 . S
C333 C334 1.372 . S
C334 C333 1.372 . S
C334 C335 1.400 . S
C334 C339 1.490 . S
C335 H325 0.930 . S
C335 C334 1.400 . S
C335 C338 1.386 . S
H336 C352 0.930 . S
H337 C353 0.931 . S
C338 H326 0.929 . S
C338 C332 1.390 . S
C338 C335 1.386 . S
C339 C334 1.490 . S
C339 C341 1.395 . S
C339 C342 1.403 . S
H340 C346 0.930 . S
C341 H327 0.930 . S
C341 C339 1.395 . S
C341 C344 1.403 . S
C342 C339 1.403 . S
C342 C343 1.524 . S
C342 C346 1.400 . S
C343 H328 0.960 . S
C343 H329 0.960 . S
C343 H330 0.960 . S
C343 C342 1.524 . S
C344 C341 1.403 . S
C344 C345 1.392 . S
C344 C348 1.495 . S
C345 C344 1.392 . S
C345 C346 1.385 . S
C345 C347 1.478 . S
C346 H340 0.930 . S
C346 C342 1.400 . S
C346 C345 1.385 . S
C347 C345 1.478 . S
C347 C349 1.381 . S
C347 C353 1.383 . S
C348 C344 1.495 . S
C348 H354 0.959 . S
C348 H355 0.961 . S
C348 H356 0.960 . S
C349 C347 1.381 . S
C349 C350 1.394 . S
C349 H357 0.930 . S
C350 C349 1.394 . S
C350 C351 1.383 . S
C350 H358 0.929 . S
C351 C350 1.383 . S
C351 C352 1.377 . S
C352 H336 0.930 . S
C352 C351 1.377 . S
C352 C353 1.379 . S
C353 H337 0.931 . S
C353 C347 1.383 . S
C353 C352 1.379 . S
H354 C348 0.959 . S
H355 C348 0.961 . S
H356 C348 0.960 . S
H357 C349 0.930 . S
H358 C350 0.929 . S
H359 C367 0.929 . S
H360 C369 0.930 . S
H361 C371 0.930 . S
H362 C374 0.929 . S
H363 C377 0.930 . S
H364 C379 0.960 . S
H365 C379 0.960 . S
H366 C379 0.960 . S
C367 H359 0.929 . S
C367 C368 1.377 . S
C367 C369 1.384 . S
C368 C367 1.377 . S
C368 C374 1.390 . S
C369 H360 0.930 . S
C369 C367 1.384 . S
C369 C370 1.372 . S
C370 C369 1.372 . S
C370 C371 1.400 . S
C370 C375 1.490 . S
C371 H361 0.930 . S
C371 C370 1.400 . S
C371 C374 1.386 . S
H372 C388 0.930 . S
H373 C389 0.931 . S
C374 H362 0.929 . S
C374 C368 1.390 . S
C374 C371 1.386 . S
C375 C370 1.490 . S
C375 C377 1.395 . S
C375 C378 1.403 . S
H376 C382 0.930 . S
C377 H363 0.930 . S
C377 C375 1.395 . S
C377 C380 1.403 . S
C378 C375 1.403 . S
C378 C379 1.524 . S
C378 C382 1.400 . S
C379 H364 0.960 . S
C379 H365 0.960 . S
C379 H366 0.960 . S
C379 C378 1.524 . S
C380 C377 1.403 . S
C380 C381 1.392 . S
C380 C384 1.495 . S
C381 C380 1.392 . S
C381 C382 1.385 . S
C381 C383 1.478 . S
C382 H376 0.930 . S
C382 C378 1.400 . S
C382 C381 1.385 . S
C383 C381 1.478 . S
C383 C385 1.381 . S
C383 C389 1.383 . S
C384 C380 1.495 . S
C384 H390 0.959 . S
C384 H391 0.961 . S
C384 H392 0.960 . S
C385 C383 1.381 . S
C385 C386 1.394 . S
C385 H393 0.930 . S
C386 C385 1.394 . S
C386 C387 1.383 . S
C386 H394 0.929 . S
C387 C386 1.383 . S
C387 C388 1.377 . S
C388 H372 0.930 . S
C388 C387 1.377 . S
C388 C389 1.379 . S
C389 H373 0.931 . S
C389 C383 1.383 . S
C389 C388 1.379 . S
H390 C384 0.959 . S
H391 C384 0.961 . S
H392 C384 0.960 . S
H393 C385 0.930 . S
H394 C386 0.929 . S
H395 C403 0.929 . S
H396 C405 0.930 . S
H397 C407 0.930 . S
H398 C410 0.929 . S
H399 C413 0.930 . S
H400 C415 0.960 . S
H401 C415 0.960 . S
H402 C415 0.960 . S
C403 H395 0.929 . S
C403 C404 1.377 . S
C403 C405 1.384 . S
C404 C403 1.377 . S
C404 C410 1.390 . S
C405 H396 0.930 . S
C405 C403 1.384 . S
C405 C406 1.372 . S
C406 C405 1.372 . S
C406 C407 1.400 . S
C406 C411 1.490 . S
C407 H397 0.930 . S
C407 C406 1.400 . S
C407 C410 1.386 . S
H408 C424 0.930 . S
H409 C425 0.931 . S
C410 H398 0.929 . S
C410 C404 1.390 . S
C410 C407 1.386 . S
C411 C406 1.490 . S
C411 C413 1.395 . S
C411 C414 1.403 . S
H412 C418 0.930 . S
C413 H399 0.930 . S
C413 C411 1.395 . S
C413 C416 1.403 . S
C414 C411 1.403 . S
C414 C415 1.524 . S
C414 C418 1.400 . S
C415 H400 0.960 . S
C415 H401 0.960 . S
C415 H402 0.960 . S
C415 C414 1.524 . S
C416 C413 1.403 . S
C416 C417 1.392 . S
C416 C420 1.495 . S
C417 C416 1.392 . S
C417 C418 1.385 . S
C417 C419 1.478 . S
C418 H412 0.930 . S
C418 C414 1.400 . S
C418 C417 1.385 . S
C419 C417 1.478 . S
C419 C421 1.381 . S
C419 C425 1.383 . S
C420 C416 1.495 . S
C420 H426 0.959 . S
C420 H427 0.961 . S
C420 H428 0.960 . S
C421 C419 1.381 . S
C421 C422 1.394 . S
C421 H429 0.930 . S
C422 C421 1.394 . S
C422 C423 1.383 . S
C422 H430 0.929 . S
C423 C422 1.383 . S
C423 C424 1.377 . S
C424 H408 0.930 . S
C424 C423 1.377 . S
C424 C425 1.379 . S
C425 H409 0.931 . S
C425 C419 1.383 . S
C425 C424 1.379 . S
H426 C420 0.959 . S
H427 C420 0.961 . S
H428 C420 0.960 . S
H429 C421 0.930 . S
H430 C422 0.929 . S
H431 C439 0.929 . S
H432 C441 0.930 . S
H433 C443 0.930 . S
H434 C446 0.929 . S
H435 C449 0.930 . S
H436 C451 0.960 . S
H437 C451 0.960 . S
H438 C451 0.960 . S
C439 H431 0.929 . S
C439 C440 1.377 . S
C439 C441 1.384 . S
C440 C439 1.377 . S
C440 C446 1.390 . S
C441 H432 0.930 . S
C441 C439 1.384 . S
C441 C442 1.372 . S
C442 C441 1.372 . S
C442 C443 1.400 . S
C442 C447 1.490 . S
C443 H433 0.930 . S
C443 C442 1.400 . S
C443 C446 1.386 . S
H444 C460 0.930 . S
H445 C461 0.931 . S
C446 H434 0.929 . S
C446 C440 1.390 . S
C446 C443 1.386 . S
C447 C442 1.490 . S
C447 C449 1.395 . S
C447 C450 1.403 . S
H448 C454 0.930 . S
C449 H435 0.930 . S
C449 C447 1.395 . S
C449 C452 1.403 . S
C450 C447 1.403 . S
C450 C451 1.524 . S
C450 C454 1.400 . S
C451 H436 0.960 . S
C451 H437 0.960 . S
C451 H438 0.960 . S
C451 C450 1.524 . S
C452 C449 1.403 . S
C452 C453 1.392 . S
C452 C456 1.495 . S
C453 C452 1.392 . S
C453 C454 1.385 . S
C453 C455 1.478 . S
C454 H448 0.930 . S
C454 C450 1.400 . S
C454 C453 1.385 . S
C455 C453 1.478 . S
C455 C457 1.381 . S
C455 C461 1.383 . S
C456 C452 1.495 . S
C456 H462 0.959 . S
C456 H463 0.961 . S
C456 H464 0.960 . S
C457 C455 1.381 . S
C457 C458 1.394 . S
C457 H465 0.930 . S
C458 C457 1.394 . S
C458 C459 1.383 . S
C458 H466 0.929 . S
C459 C458 1.383 . S
C459 C460 1.377 . S
C460 H444 0.930 . S
C460 C459 1.377 . S
C460 C461 1.379 . S
C461 H445 0.931 . S
C461 C455 1.383 . S
C461 C460 1.379 . S
H462 C456 0.959 . S
H463 C456 0.961 . S
H464 C456 0.960 . S
H465 C457 0.930 . S
H466 C458 0.929 . S
H467 C475 0.929 . S
H468 C477 0.930 . S
H469 C479 0.930 . S
H470 C482 0.929 . S
H471 C485 0.930 . S
H472 C487 0.960 . S
H473 C487 0.960 . S
H474 C487 0.960 . S
C475 H467 0.929 . S
C475 C476 1.377 . S
C475 C477 1.384 . S
C476 C475 1.377 . S
C476 C482 1.390 . S
C477 H468 0.930 . S
C477 C475 1.384 . S
C477 C478 1.372 . S
C478 C477 1.372 . S
C478 C479 1.400 . S
C478 C483 1.490 . S
C479 H469 0.930 . S
C479 C478 1.400 . S
C479 C482 1.386 . S
H480 C496 0.930 . S
H481 C497 0.931 . S
C482 H470 0.929 . S
C482 C476 1.390 . S
C482 C479 1.386 . S
C483 C478 1.490 . S
C483 C485 1.395 . S
C483 C486 1.403 . S
H484 C490 0.930 . S
C485 H471 0.930 . S
C485 C483 1.395 . S
C485 C488 1.403 . S
C486 C483 1.403 . S
C486 C487 1.524 . S
C486 C490 1.400 . S
C487 H472 0.960 . S
C487 H473 0.960 . S
C487 H474 0.960 . S
C487 C486 1.524 . S
C488 C485 1.403 . S
C488 C489 1.392 . S
C488 C492 1.495 . S
C489 C488 1.392 . S
C489 C490 1.385 . S
C489 C491 1.478 . S
C490 H484 0.930 . S
C490 C486 1.400 . S
C490 C489 1.385 . S
C491 C489 1.478 . S
C491 C493 1.381 . S
C491 C497 1.383 . S
C492 C488 1.495 . S
C492 H498 0.959 . S
C492 H499 0.961 . S
C492 H500 0.960 . S
C493 C491 1.381 . S
C493 C494 1.394 . S
C493 H501 0.930 . S
C494 C493 1.394 . S
C494 C495 1.383 . S
C494 H502 0.929 . S
C495 C494 1.383 . S
C495 C496 1.377 . S
C496 H480 0.930 . S
C496 C495 1.377 . S
C496 C497 1.379 . S
C497 H481 0.931 . S
C497 C491 1.383 . S
C497 C496 1.379 . S
H498 C492 0.959 . S
H499 C492 0.961 . S
H500 C492 0.960 . S
H501 C493 0.930 . S
H502 C494 0.929 . S
H503 C511 0.929 . S
H504 C513 0.930 . S
H505 C515 0.930 . S
H506 C518 0.929 . S
H507 C521 0.930 . S
H508 C523 0.960 . S
H509 C523 0.960 . S
H510 C523 0.960 . S
C511 H503 0.929 . S
C511 C512 1.377 . S
C511 C513 1.384 . S
C512 C511 1.377 . S
C512 C518 1.390 . S
C513 H504 0.930 . S
C513 C511 1.384 . S
C513 C514 1.372 . S
C514 C513 1.372 . S
C514 C515 1.400 . S
C514 C519 1.490 . S
C515 H505 0.930 . S
C515 C514 1.400 . S
C515 C518 1.386 . S
H516 C532 0.930 . S
H517 C533 0.931 . S
C518 H506 0.929 . S
C518 C512 1.390 . S
C518 C515 1.386 . S
C519 C514 1.490 . S
C519 C521 1.395 . S
C519 C522 1.403 . S
H520 C526 0.930 . S
C521 H507 0.930 . S
C521 C519 1.395 . S
C521 C524 1.403 . S
C522 C519 1.403 . S
C522 C523 1.524 . S
C522 C526 1.400 . S
C523 H508 0.960 . S
C523 H509 0.960 . S
C523 H510 0.960 . S
C523 C522 1.524 . S
C524 C521 1.403 . S
C524 C525 1.392 . S
C524 C528 1.495 . S
C525 C524 1.392 . S
C525 C526 1.385 . S
C525 C527 1.478 . S
C526 H520 0.930 . S
C526 C522 1.400 . S
C526 C525 1.385 . S
C527 C525 1.478 . S
C527 C529 1.381 . S
C527 C533 1.383 . S
C528 C524 1.495 . S
C528 H534 0.959 . S
C528 H535 0.961 . S
C528 H536 0.960 . S
C529 C527 1.381 . S
C529 C530 1.394 . S
C529 H537 0.930 . S
C530 C529 1.394 . S
C530 C531 1.383 . S
C530 H538 0.929 . S
C531 C530 1.383 . S
C531 C532 1.377 . S
C532 H516 0.930 . S
C532 C531 1.377 . S
C532 C533 1.379 . S
C533 H517 0.931 . S
C533 C527 1.383 . S
C533 C532 1.379 . S
H534 C528 0.959 . S
H535 C528 0.961 . S
H536 C528 0.960 . S
H537 C529 0.930 . S
H538 C530 0.929 . S
H539 C547 0.929 . S
H540 C549 0.930 . S
H541 C551 0.930 . S
H542 C554 0.929 . S
H543 C557 0.930 . S
H544 C559 0.960 . S
H545 C559 0.960 . S
H546 C559 0.960 . S
C547 H539 0.929 . S
C547 C548 1.377 . S
C547 C549 1.384 . S
C548 C547 1.377 . S
C548 C554 1.390 . S
C549 H540 0.930 . S
C549 C547 1.384 . S
C549 C550 1.372 . S
C550 C549 1.372 . S
C550 C551 1.400 . S
C550 C555 1.490 . S
C551 H541 0.930 . S
C551 C550 1.400 . S
C551 C554 1.386 . S
H552 C568 0.930 . S
H553 C569 0.931 . S
C554 H542 0.929 . S
C554 C548 1.390 . S
C554 C551 1.386 . S
C555 C550 1.490 . S
C555 C557 1.395 . S
C555 C558 1.403 . S
H556 C562 0.930 . S
C557 H543 0.930 . S
C557 C555 1.395 . S
C557 C560 1.403 . S
C558 C555 1.403 . S
C558 C559 1.524 . S
C558 C562 1.400 . S
C559 H544 0.960 . S
C559 H545 0.960 . S
C559 H546 0.960 . S
C559 C558 1.524 . S
C560 C557 1.403 . S
C560 C561 1.392 . S
C560 C564 1.495 . S
C561 C560 1.392 . S
C561 C562 1.385 . S
C561 C563 1.478 . S
C562 H556 0.930 . S
C562 C558 1.400 . S
C562 C561 1.385 . S
C563 C561 1.478 . S
C563 C565 1.381 . S
C563 C569 1.383 . S
C564 C560 1.495 . S
C564 H570 0.959 . S
C564 H571 0.961 . S
C564 H572 0.960 . S
C565 C563 1.381 . S
C565 C566 1.394 . S
C565 H573 0.930 . S
C566 C565 1.394 . S
C566 C567 1.383 . S
C566 H574 0.929 . S
C567 C566 1.383 . S
C567 C568 1.377 . S
C568 H552 0.930 . S
C568 C567 1.377 . S
C568 C569 1.379 . S
C569 H553 0.931 . S
C569 C563 1.383 . S
C569 C568 1.379 . S
H570 C564 0.959 . S
H571 C564 0.961 . S
H572 C564 0.960 . S
H573 C565 0.930 . S
H574 C566 0.929 . S
H575 C583 0.929 . S
H576 C585 0.930 . S
H577 C587 0.930 . S
H578 C590 0.929 . S
H579 C593 0.930 . S
H580 C595 0.960 . S
H581 C595 0.960 . S
H582 C595 0.960 . S
C583 H575 0.929 . S
C583 C584 1.377 . S
C583 C585 1.384 . S
C584 C583 1.377 . S
C584 C590 1.390 . S
C585 H576 0.930 . S
C585 C583 1.384 . S
C585 C586 1.372 . S
C586 C585 1.372 . S
C586 C587 1.400 . S
C586 C591 1.490 . S
C587 H577 0.930 . S
C587 C586 1.400 . S
C587 C590 1.386 . S
H588 C604 0.930 . S
H589 C605 0.931 . S
C590 H578 0.929 . S
C590 C584 1.390 . S
C590 C587 1.386 . S
C591 C586 1.490 . S
C591 C593 1.395 . S
C591 C594 1.403 . S
H592 C598 0.930 . S
C593 H579 0.930 . S
C593 C591 1.395 . S
C593 C596 1.403 . S
C594 C591 1.403 . S
C594 C595 1.524 . S
C594 C598 1.400 . S
C595 H580 0.960 . S
C595 H581 0.960 . S
C595 H582 0.960 . S
C595 C594 1.524 . S
C596 C593 1.403 . S
C596 C597 1.392 . S
C596 C600 1.495 . S
C597 C596 1.392 . S
C597 C598 1.385 . S
C597 C599 1.478 . S
C598 H592 0.930 . S
C598 C594 1.400 . S
C598 C597 1.385 . S
C599 C597 1.478 . S
C599 C601 1.381 . S
C599 C605 1.383 . S
C600 C596 1.495 . S
C600 H606 0.959 . S
C600 H607 0.961 . S
C600 H608 0.960 . S
C601 C599 1.381 . S
C601 C602 1.394 . S
C601 H609 0.930 . S
C602 C601 1.394 . S
C602 C603 1.383 . S
C602 H610 0.929 . S
C603 C602 1.383 . S
C603 C604 1.377 . S
C604 H588 0.930 . S
C604 C603 1.377 . S
C604 C605 1.379 . S
C605 H589 0.931 . S
C605 C599 1.383 . S
C605 C604 1.379 . S
H606 C600 0.959 . S
H607 C600 0.961 . S
H608 C600 0.960 . S
H609 C601 0.930 . S
H610 C602 0.929 . S
H611 C619 0.929 . S
H612 C621 0.930 . S
H613 C623 0.930 . S
H614 C626 0.929 . S
H615 C629 0.930 . S
H616 C631 0.960 . S
H617 C631 0.960 . S
H618 C631 0.960 . S
C619 H611 0.929 . S
C619 C620 1.377 . S
C619 C621 1.384 . S
C620 C619 1.377 . S
C620 C626 1.390 . S
C621 H612 0.930 . S
C621 C619 1.384 . S
C621 C622 1.372 . S
C622 C621 1.372 . S
C622 C623 1.400 . S
C622 C627 1.490 . S
C623 H613 0.930 . S
C623 C622 1.400 . S
C623 C626 1.386 . S
H624 C640 0.930 . S
H625 C641 0.931 . S
C626 H614 0.929 . S
C626 C620 1.390 . S
C626 C623 1.386 . S
C627 C622 1.490 . S
C627 C629 1.395 . S
C627 C630 1.403 . S
H628 C634 0.930 . S
C629 H615 0.930 . S
C629 C627 1.395 . S
C629 C632 1.403 . S
C630 C627 1.403 . S
C630 C631 1.524 . S
C630 C634 1.400 . S
C631 H616 0.960 . S
C631 H617 0.960 . S
C631 H618 0.960 . S
C631 C630 1.524 . S
C632 C629 1.403 . S
C632 C633 1.392 . S
C632 C636 1.495 . S
C633 C632 1.392 . S
C633 C634 1.385 . S
C633 C635 1.478 . S
C634 H628 0.930 . S
C634 C630 1.400 . S
C634 C633 1.385 . S
C635 C633 1.478 . S
C635 C637 1.381 . S
C635 C641 1.383 . S
C636 C632 1.495 . S
C636 H642 0.959 . S
C636 H643 0.961 . S
C636 H644 0.960 . S
C637 C635 1.381 . S
C637 C638 1.394 . S
C637 H645 0.930 . S
C638 C637 1.394 . S
C638 C639 1.383 . S
C638 H646 0.929 . S
C639 C638 1.383 . S
C639 C640 1.377 . S
C640 H624 0.930 . S
C640 C639 1.377 . S
C640 C641 1.379 . S
C641 H625 0.931 . S
C641 C635 1.383 . S
C641 C640 1.379 . S
H642 C636 0.959 . S
H643 C636 0.961 . S
H644 C636 0.960 . S
H645 C637 0.930 . S
H646 C638 0.929 . S
H647 C655 0.929 . S
H648 C657 0.930 . S
H649 C659 0.930 . S
H650 C662 0.929 . S
H651 C665 0.930 . S
H652 C667 0.960 . S
H653 C667 0.960 . S
H654 C667 0.960 . S
C655 H647 0.929 . S
C655 C656 1.377 . S
C655 C657 1.384 . S
C656 C655 1.377 . S
C656 C662 1.390 . S
C657 H648 0.930 . S
C657 C655 1.384 . S
C657 C658 1.372 . S
C658 C657 1.372 . S
C658 C659 1.400 . S
C658 C663 1.490 . S
C659 H649 0.930 . S
C659 C658 1.400 . S
C659 C662 1.386 . S
H660 C676 0.930 . S
H661 C677 0.931 . S
C662 H650 0.929 . S
C662 C656 1.390 . S
C662 C659 1.386 . S
C663 C658 1.490 . S
C663 C665 1.395 . S
C663 C666 1.403 . S
H664 C670 0.930 . S
C665 H651 0.930 . S
C665 C663 1.395 . S
C665 C668 1.403 . S
C666 C663 1.403 . S
C666 C667 1.524 . S
C666 C670 1.400 . S
C667 H652 0.960 . S
C667 H653 0.960 . S
C667 H654 0.960 . S
C667 C666 1.524 . S
C668 C665 1.403 . S
C668 C669 1.392 . S
C668 C672 1.495 . S
C669 C668 1.392 . S
C669 C670 1.385 . S
C669 C671 1.478 . S
C670 H664 0.930 . S
C670 C666 1.400 . S
C670 C669 1.385 . S
C671 C669 1.478 . S
C671 C673 1.381 . S
C671 C677 1.383 . S
C672 C668 1.495 . S
C672 H678 0.959 . S
C672 H679 0.961 . S
C672 H680 0.960 . S
C673 C671 1.381 . S
C673 C674 1.394 . S
C673 H681 0.930 . S
C674 C673 1.394 . S
C674 C675 1.383 . S
C674 H682 0.929 . S
C675 C674 1.383 . S
C675 C676 1.377 . S
C676 H660 0.930 . S
C676 C675 1.377 . S
C676 C677 1.379 . S
C677 H661 0.931 . S
C677 C671 1.383 . S
C677 C676 1.379 . S
H678 C672 0.959 . S
H679 C672 0.961 . S
H680 C672 0.960 . S
H681 C673 0.930 . S
H682 C674 0.929 . S
H683 C691 0.929 . S
H684 C693 0.930 . S
H685 C695 0.930 . S
H686 C698 0.929 . S
H687 C701 0.930 . S
H688 C703 0.960 . S
H689 C703 0.960 . S
H690 C703 0.960 . S
C691 H683 0.929 . S
C691 C692 1.377 . S
C691 C693 1.384 . S
C692 C691 1.377 . S
C692 C698 1.390 . S
C693 H684 0.930 . S
C693 C691 1.384 . S
C693 C694 1.372 . S
C694 C693 1.372 . S
C694 C695 1.400 . S
C694 C699 1.490 . S
C695 H685 0.930 . S
C695 C694 1.400 . S
C695 C698 1.386 . S
H696 C712 0.930 . S
H697 C713 0.931 . S
C698 H686 0.929 . S
C698 C692 1.390 . S
C698 C695 1.386 . S
C699 C694 1.490 . S
C699 C701 1.395 . S
C699 C702 1.403 . S
H700 C706 0.930 . S
C701 H687 0.930 . S
C701 C699 1.395 . S
C701 C704 1.403 . S
C702 C699 1.403 . S
C702 C703 1.524 . S
C702 C706 1.400 . S
C703 H688 0.960 . S
C703 H689 0.960 . S
C703 H690 0.960 . S
C703 C702 1.524 . S
C704 C701 1.403 . S
C704 C705 1.392 . S
C704 C708 1.495 . S
C705 C704 1.392 . S
C705 C706 1.385 . S
C705 C707 1.478 . S
C706 H700 0.930 . S
C706 C702 1.400 . S
C706 C705 1.385 . S
C707 C705 1.478 . S
C707 C709 1.381 . S
C707 C713 1.383 . S
C708 C704 1.495 . S
C708 H714 0.959 . S
C708 H715 0.961 . S
C708 H716 0.960 . S
C709 C707 1.381 . S
C709 C710 1.394 . S
C709 H717 0.930 . S
C710 C709 1.394 . S
C710 C711 1.383 . S
C710 H718 0.929 . S
C711 C710 1.383 . S
C711 C712 1.377 . S
C712 H696 0.930 . S
C712 C711 1.377 . S
C712 C713 1.379 . S
C713 H697 0.931 . S
C713 C707 1.383 . S
C713 C712 1.379 . S
H714 C708 0.959 . S
H715 C708 0.961 . S
H716 C708 0.960 . S
H717 C709 0.930 . S
H718 C710 0.929 . S
H719 C727 0.929 . S
H720 C729 0.930 . S
H721 C731 0.930 . S
H722 C734 0.929 . S
H723 C737 0.930 . S
H724 C739 0.960 . S
H725 C739 0.960 . S
H726 C739 0.960 . S
C727 H719 0.929 . S
C727 C728 1.377 . S
C727 C729 1.384 . S
C728 C727 1.377 . S
C728 C734 1.390 . S
C729 H720 0.930 . S
C729 C727 1.384 . S
C729 C730 1.372 . S
C730 C729 1.372 . S
C730 C731 1.400 . S
C730 C735 1.490 . S
C731 H721 0.930 . S
C731 C730 1.400 . S
C731 C734 1.386 . S
H732 C748 0.930 . S
H733 C749 0.931 . S
C734 H722 0.929 . S
C734 C728 1.390 . S
C734 C731 1.386 . S
C735 C730 1.490 . S
C735 C737 1.395 . S
C735 C738 1.403 . S
H736 C742 0.930 . S
C737 H723 0.930 . S
C737 C735 1.395 . S
C737 C740 1.403 . S
C738 C735 1.403 . S
C738 C739 1.524 . S
C738 C742 1.400 . S
C739 H724 0.960 . S
C739 H725 0.960 . S
C739 H726 0.960 . S
C739 C738 1.524 . S
C740 C737 1.403 . S
C740 C741 1.392 . S
C740 C744 1.495 . S
C741 C740 1.392 . S
C741 C742 1.385 . S
C741 C743 1.478 . S
C742 H736 0.930 . S
C742 C738 1.400 . S
C742 C741 1.385 . S
C743 C741 1.478 . S
C743 C745 1.381 . S
C743 C749 1.383 . S
C744 C740 1.495 . S
C744 H750 0.959 . S
C744 H751 0.961 . S
C744 H752 0.960 . S
C745 C743 1.381 . S
C745 C746 1.394 . S
C745 H753 0.930 . S
C746 C745 1.394 . S
C746 C747 1.383 . S
C746 H754 0.929 . S
C747 C746 1.383 . S
C747 C748 1.377 . S
C748 H732 0.930 . S
C748 C747 1.377 . S
C748 C749 1.379 . S
C749 H733 0.931 . S
C749 C743 1.383 . S
C749 C748 1.379 . S
H750 C744 0.959 . S
H751 C744 0.961 . S
H752 C744 0.960 . S
H753 C745 0.930 . S
H754 C746 0.929 . S
H755 C763 0.929 . S
H756 C765 0.930 . S
H757 C767 0.930 . S
H758 C770 0.929 . S
H759 C773 0.930 . S
H760 C775 0.960 . S
H761 C775 0.960 . S
H762 C775 0.960 . S
C763 H755 0.929 . S
C763 C764 1.377 . S
C763 C765 1.384 . S
C764 C763 1.377 . S
C764 C770 1.390 . S
C765 H756 0.930 . S
C765 C763 1.384 . S
C765 C766 1.372 . S
C766 C765 1.372 . S
C766 C767 1.400 . S
C766 C771 1.490 . S
C767 H757 0.930 . S
C767 C766 1.400 . S
C767 C770 1.386 . S
H768 C784 0.930 . S
H769 C785 0.931 . S
C770 H758 0.929 . S
C770 C764 1.390 . S
C770 C767 1.386 . S
C771 C766 1.490 . S
C771 C773 1.395 . S
C771 C774 1.403 . S
H772 C778 0.930 . S
C773 H759 0.930 . S
C773 C771 1.395 . S
C773 C776 1.403 . S
C774 C771 1.403 . S
C774 C775 1.524 . S
C774 C778 1.400 . S
C775 H760 0.960 . S
C775 H761 0.960 . S
C775 H762 0.960 . S
C775 C774 1.524 . S
C776 C773 1.403 . S
C776 C777 1.392 . S
C776 C780 1.495 . S
C777 C776 1.392 . S
C777 C778 1.385 . S
C777 C779 1.478 . S
C778 H772 0.930 . S
C778 C774 1.400 . S
C778 C777 1.385 . S
C779 C777 1.478 . S
C779 C781 1.381 . S
C779 C785 1.383 . S
C780 C776 1.495 . S
C780 H786 0.959 . S
C780 H787 0.961 . S
C780 H788 0.960 . S
C781 C779 1.381 . S
C781 C782 1.394 . S
C781 H789 0.930 . S
C782 C781 1.394 . S
C782 C783 1.383 . S
C782 H790 0.929 . S
C783 C782 1.383 . S
C783 C784 1.377 . S
C784 H768 0.930 . S
C784 C783 1.377 . S
C784 C785 1.379 . S
C785 H769 0.931 . S
C785 C779 1.383 . S
C785 C784 1.379 . S
H786 C780 0.959 . S
H787 C780 0.961 . S
H788 C780 0.960 . S
H789 C781 0.930 . S
H790 C782 0.929 . S
H791 C799 0.929 . S
H792 C801 0.930 . S
H793 C803 0.930 . S
H794 C806 0.929 . S
H795 C809 0.930 . S
H796 C811 0.960 . S
H797 C811 0.960 . S
H798 C811 0.960 . S
C799 H791 0.929 . S
C799 C800 1.377 . S
C799 C801 1.384 . S
C800 C799 1.377 . S
C800 C806 1.390 . S
C801 H792 0.930 . S
C801 C799 1.384 . S
C801 C802 1.372 . S
C802 C801 1.372 . S
C802 C803 1.400 . S
C802 C807 1.490 . S
C803 H793 0.930 . S
C803 C802 1.400 . S
C803 C806 1.386 . S
H804 C820 0.930 . S
H805 C821 0.931 . S
C806 H794 0.929 . S
C806 C800 1.390 . S
C806 C803 1.386 . S
C807 C802 1.490 . S
C807 C809 1.395 . S
C807 C810 1.403 . S
H808 C814 0.930 . S
C809 H795 0.930 . S
C809 C807 1.395 . S
C809 C812 1.403 . S
C810 C807 1.403 . S
C810 C811 1.524 . S
C810 C814 1.400 . S
C811 H796 0.960 . S
C811 H797 0.960 . S
C811 H798 0.960 . S
C811 C810 1.524 . S
C812 C809 1.403 . S
C812 C813 1.392 . S
C812 C816 1.495 . S
C813 C812 1.392 . S
C813 C814 1.385 . S
C813 C815 1.478 . S
C814 H808 0.930 . S
C814 C810 1.400 . S
C814 C813 1.385 . S
C815 C813 1.478 . S
C815 C817 1.381 . S
C815 C821 1.383 . S
C816 C812 1.495 . S
C816 H822 0.959 . S
C816 H823 0.961 . S
C816 H824 0.960 . S
C817 C815 1.381 . S
C817 C818 1.394 . S
C817 H825 0.930 . S
C818 C817 1.394 . S
C818 C819 1.383 . S
C818 H826 0.929 . S
C819 C818 1.383 . S
C819 C820 1.377 . S
C820 H804 0.930 . S
C820 C819 1.377 . S
C820 C821 1.379 . S
C821 H805 0.931 . S
C821 C815 1.383 . S
C821 C820 1.379 . S
H822 C816 0.959 . S
H823 C816 0.961 . S
H824 C816 0.960 . S
H825 C817 0.930 . S
H826 C818 0.929 . S
H827 C835 0.929 . S
H828 C837 0.930 . S
H829 C839 0.930 . S
H830 C842 0.929 . S
H831 C845 0.930 . S
H832 C847 0.960 . S
H833 C847 0.960 . S
H834 C847 0.960 . S
C835 H827 0.929 . S
C835 C836 1.377 . S
C835 C837 1.384 . S
C836 C835 1.377 . S
C836 C842 1.390 . S
C837 H828 0.930 . S
C837 C835 1.384 . S
C837 C838 1.372 . S
C838 C837 1.372 . S
C838 C839 1.400 . S
C838 C843 1.490 . S
C839 H829 0.930 . S
C839 C838 1.400 . S
C839 C842 1.386 . S
H840 C856 0.930 . S
H841 C857 0.931 . S
C842 H830 0.929 . S
C842 C836 1.390 . S
C842 C839 1.386 . S
C843 C838 1.490 . S
C843 C845 1.395 . S
C843 C846 1.403 . S
H844 C850 0.930 . S
C845 H831 0.930 . S
C845 C843 1.395 . S
C845 C848 1.403 . S
C846 C843 1.403 . S
C846 C847 1.524 . S
C846 C850 1.400 . S
C847 H832 0.960 . S
C847 H833 0.960 . S
C847 H834 0.960 . S
C847 C846 1.524 . S
C848 C845 1.403 . S
C848 C849 1.392 . S
C848 C852 1.495 . S
C849 C848 1.392 . S
C849 C850 1.385 . S
C849 C851 1.478 . S
C850 H844 0.930 . S
C850 C846 1.400 . S
C850 C849 1.385 . S
C851 C849 1.478 . S
C851 C853 1.381 . S
C851 C857 1.383 . S
C852 C848 1.495 . S
C852 H858 0.959 . S
C852 H859 0.961 . S
C852 H860 0.960 . S
C853 C851 1.381 . S
C853 C854 1.394 . S
C853 H861 0.930 . S
C854 C853 1.394 . S
C854 C855 1.383 . S
C854 H862 0.929 . S
C855 C854 1.383 . S
C855 C856 1.377 . S
C856 H840 0.930 . S
C856 C855 1.377 . S
C856 C857 1.379 . S
C857 H841 0.931 . S
C857 C851 1.383 . S
C857 C856 1.379 . S
H858 C852 0.959 . S
H859 C852 0.961 . S
H860 C852 0.960 . S
H861 C853 0.930 . S
H862 C854 0.929 . S
H863 C871 0.929 . S
H864 C873 0.930 . S
H865 C875 0.930 . S
H866 C878 0.929 . S
H867 C881 0.930 . S
H868 C883 0.960 . S
H869 C883 0.960 . S
H870 C883 0.960 . S
C871 H863 0.929 . S
C871 C872 1.377 . S
C871 C873 1.384 . S
C872 C871 1.377 . S
C872 C878 1.390 . S
C873 H864 0.930 . S
C873 C871 1.384 . S
C873 C874 1.372 . S
C874 C873 1.372 . S
C874 C875 1.400 . S
C874 C879 1.490 . S
C875 H865 0.930 . S
C875 C874 1.400 . S
C875 C878 1.386 . S
H876 C892 0.930 . S
H877 C893 0.931 . S
C878 H866 0.929 . S
C878 C872 1.390 . S
C878 C875 1.386 . S
C879 C874 1.490 . S
C879 C881 1.395 . S
C879 C882 1.403 . S
H880 C886 0.930 . S
C881 H867 0.930 . S
C881 C879 1.395 . S
C881 C884 1.403 . S
C882 C879 1.403 . S
C882 C883 1.524 . S
C882 C886 1.400 . S
C883 H868 0.960 . S
C883 H869 0.960 . S
C883 H870 0.960 . S
C883 C882 1.524 . S
C884 C881 1.403 . S
C884 C885 1.392 . S
C884 C888 1.495 . S
C885 C884 1.392 . S
C885 C886 1.385 . S
C885 C887 1.478 . S
C886 H880 0.930 . S
C886 C882 1.400 . S
C886 C885 1.385 . S
C887 C885 1.478 . S
C887 C889 1.381 . S
C887 C893 1.383 . S
C888 C884 1.495 . S
C888 H894 0.959 . S
C888 H895 0.961 . S
C888 H896 0.960 . S
C889 C887 1.381 . S
C889 C890 1.394 . S
C889 H897 0.930 . S
C890 C889 1.394 . S
C890 C891 1.383 . S
C890 H898 0.929 . S
C891 C890 1.383 . S
C891 C892 1.377 . S
C892 H876 0.930 . S
C892 C891 1.377 . S
C892 C893 1.379 . S
C893 H877 0.931 . S
C893 C887 1.383 . S
C893 C892 1.379 . S
H894 C888 0.959 . S
H895 C888 0.961 . S
H896 C888 0.960 . S
H897 C889 0.930 . S
H898 C890 0.929 . S
H899 C907 0.929 . S
H900 C909 0.930 . S
H901 C911 0.930 . S
H902 C914 0.929 . S
H903 C917 0.930 . S
H904 C919 0.960 . S
H905 C919 0.960 . S
H906 C919 0.960 . S
C907 H899 0.929 . S
C907 C908 1.377 . S
C907 C909 1.384 . S
C908 C907 1.377 . S
C908 C914 1.390 . S
C909 H900 0.930 . S
C909 C907 1.384 . S
C909 C910 1.372 . S
C910 C909 1.372 . S
C910 C911 1.400 . S
C910 C915 1.490 . S
C911 H901 0.930 . S
C911 C910 1.400 . S
C911 C914 1.386 . S
H912 C928 0.930 . S
H913 C929 0.931 . S
C914 H902 0.929 . S
C914 C908 1.390 . S
C914 C911 1.386 . S
C915 C910 1.490 . S
C915 C917 1.395 . S
C915 C918 1.403 . S
H916 C922 0.930 . S
C917 H903 0.930 . S
C917 C915 1.395 . S
C917 C920 1.403 . S
C918 C915 1.403 . S
C918 C919 1.524 . S
C918 C922 1.400 . S
C919 H904 0.960 . S
C919 H905 0.960 . S
C919 H906 0.960 . S
C919 C918 1.524 . S
C920 C917 1.403 . S
C920 C921 1.392 . S
C920 C924 1.495 . S
C921 C920 1.392 . S
C921 C922 1.385 . S
C921 C923 1.478 . S
C922 H916 0.930 . S
C922 C918 1.400 . S
C922 C921 1.385 . S
C923 C921 1.478 . S
C923 C925 1.381 . S
C923 C929 1.383 . S
C924 C920 1.495 . S
C924 H930 0.959 . S
C924 H931 0.961 . S
C924 H932 0.960 . S
C925 C923 1.381 . S
C925 C926 1.394 . S
C925 H933 0.930 . S
C926 C925 1.394 . S
C926 C927 1.383 . S
C926 H934 0.929 . S
C927 C926 1.383 . S
C927 C928 1.377 . S
C928 H912 0.930 . S
C928 C927 1.377 . S
C928 C929 1.379 . S
C929 H913 0.931 . S
C929 C923 1.383 . S
C929 C928 1.379 . S
H930 C924 0.959 . S
H931 C924 0.961 . S
H932 C924 0.960 . S
H933 C925 0.930 . S
H934 C926 0.929 . S
H935 C943 0.929 . S
H936 C945 0.930 . S
H937 C947 0.930 . S
H938 C950 0.929 . S
H939 C953 0.930 . S
H940 C955 0.960 . S
H941 C955 0.960 . S
H942 C955 0.960 . S
C943 H935 0.929 . S
C943 C944 1.377 . S
C943 C945 1.384 . S
C944 C943 1.377 . S
C944 C950 1.390 . S
C945 H936 0.930 . S
C945 C943 1.384 . S
C945 C946 1.372 . S
C946 C945 1.372 . S
C946 C947 1.400 . S
C946 C951 1.490 . S
C947 H937 0.930 . S
C947 C946 1.400 . S
C947 C950 1.386 . S
H948 C964 0.930 . S
H949 C965 0.931 . S
C950 H938 0.929 . S
C950 C944 1.390 . S
C950 C947 1.386 . S
C951 C946 1.490 . S
C951 C953 1.395 . S
C951 C954 1.403 . S
H952 C958 0.930 . S
C953 H939 0.930 . S
C953 C951 1.395 . S
C953 C956 1.403 . S
C954 C951 1.403 . S
C954 C955 1.524 . S
C954 C958 1.400 . S
C955 H940 0.960 . S
C955 H941 0.960 . S
C955 H942 0.960 . S
C955 C954 1.524 . S
C956 C953 1.403 . S
C956 C957 1.392 . S
C956 C960 1.495 . S
C957 C956 1.392 . S
C957 C958 1.385 . S
C957 C959 1.478 . S
C958 H952 0.930 . S
C958 C954 1.400 . S
C958 C957 1.385 . S
C959 C957 1.478 . S
C959 C961 1.381 . S
C959 C965 1.383 . S
C960 C956 1.495 . S
C960 H966 0.959 . S
C960 H967 0.961 . S
C960 H968 0.960 . S
C961 C959 1.381 . S
C961 C962 1.394 . S
C961 H969 0.930 . S
C962 C961 1.394 . S
C962 C963 1.383 . S
C962 H970 0.929 . S
C963 C962 1.383 . S
C963 C964 1.377 . S
C964 H948 0.930 . S
C964 C963 1.377 . S
C964 C965 1.379 . S
C965 H949 0.931 . S
C965 C959 1.383 . S
C965 C964 1.379 . S
H966 C960 0.959 . S
H967 C960 0.961 . S
H968 C960 0.960 . S
H969 C961 0.930 . S
H970 C962 0.929 . S
H971 C979 0.929 . S
H972 C981 0.930 . S
H973 C983 0.930 . S
H974 C986 0.929 . S
H975 C989 0.930 . S
H976 C991 0.960 . S
H977 C991 0.960 . S
H978 C991 0.960 . S
C979 H971 0.929 . S
C979 C980 1.377 . S
C979 C981 1.384 . S
C980 C979 1.377 . S
C980 C986 1.390 . S
C981 H972 0.930 . S
C981 C979 1.384 . S
C981 C982 1.372 . S
C982 C981 1.372 . S
C982 C983 1.400 . S
C982 C987 1.490 . S
C983 H973 0.930 . S
C983 C982 1.400 . S
C983 C986 1.386 . S
H984 C1000 0.930 . S
H985 C1001 0.931 . S
C986 H974 0.929 . S
C986 C980 1.390 . S
C986 C983 1.386 . S
C987 C982 1.490 . S
C987 C989 1.395 . S
C987 C990 1.403 . S
H988 C994 0.930 . S
C989 H975 0.930 . S
C989 C987 1.395 . S
C989 C992 1.403 . S
C990 C987 1.403 . S
C990 C991 1.524 . S
C990 C994 1.400 . S
C991 H976 0.960 . S
C991 H977 0.960 . S
C991 H978 0.960 . S
C991 C990 1.524 . S
C992 C989 1.403 . S
C992 C993 1.392 . S
C992 C996 1.495 . S
C993 C992 1.392 . S
C993 C994 1.385 . S
C993 C995 1.478 . S
C994 H988 0.930 . S
C994 C990 1.400 . S
C994 C993 1.385 . S
C995 C993 1.478 . S
C995 C997 1.381 . S
C995 C1001 1.383 . S
C996 C992 1.495 . S
C996 H1002 0.959 . S
C996 H1003 0.961 . S
C996 H1004 0.960 . S
C997 C995 1.381 . S
C997 C998 1.394 . S
C997 H1005 0.930 . S
C998 C997 1.394 . S
C998 C999 1.383 . S
C998 H1006 0.929 . S
C999 C998 1.383 . S
C999 C1000 1.377 . S
C1000 H984 0.930 . S
C1000 C999 1.377 . S
C1000 C1001 1.379 . S
C1001 H985 0.931 . S
C1001 C995 1.383 . S
C1001 C1000 1.379 . S
H1002 C996 0.959 . S
H1003 C996 0.961 . S
H1004 C996 0.960 . S
H1005 C997 0.930 . S
H1006 C998 0.929 . S
H1007 C1015 0.929 . S
H1008 C1017 0.930 . S
H1009 C1019 0.930 . S
H1010 C1022 0.929 . S
H1011 C1025 0.930 . S
H1012 C1027 0.960 . S
H1013 C1027 0.960 . S
H1014 C1027 0.960 . S
C1015 H1007 0.929 . S
C1015 C1016 1.377 . S
C1015 C1017 1.384 . S
C1016 C1015 1.377 . S
C1016 C1022 1.390 . S
C1017 H1008 0.930 . S
C1017 C1015 1.384 . S
C1017 C1018 1.372 . S
C1018 C1017 1.372 . S
C1018 C1019 1.400 . S
C1018 C1023 1.490 . S
C1019 H1009 0.930 . S
C1019 C1018 1.400 . S
C1019 C1022 1.386 . S
H1020 C1036 0.930 . S
H1021 C1037 0.931 . S
C1022 H1010 0.929 . S
C1022 C1016 1.390 . S
C1022 C1019 1.386 . S
C1023 C1018 1.490 . S
C1023 C1025 1.395 . S
C1023 C1026 1.403 . S
H1024 C1030 0.930 . S
C1025 H1011 0.930 . S
C1025 C1023 1.395 . S
C1025 C1028 1.403 . S
C1026 C1023 1.403 . S
C1026 C1027 1.524 . S
C1026 C1030 1.400 . S
C1027 H1012 0.960 . S
C1027 H1013 0.960 . S
C1027 H1014 0.960 . S
C1027 C1026 1.524 . S
C1028 C1025 1.403 . S
C1028 C1029 1.392 . S
C1028 C1032 1.495 . S
C1029 C1028 1.392 . S
C1029 C1030 1.385 . S
C1029 C1031 1.478 . S
C1030 H1024 0.930 . S
C1030 C1026 1.400 . S
C1030 C1029 1.385 . S
C1031 C1029 1.478 . S
C1031 C1033 1.381 . S
C1031 C1037 1.383 . S
C1032 C1028 1.495 . S
C1032 H1038 0.959 . S
C1032 H1039 0.961 . S
C1032 H1040 0.960 . S
C1033 C1031 1.381 . S
C1033 C1034 1.394 . S
C1033 H1041 0.930 . S
C1034 C1033 1.394 . S
C1034 C1035 1.383 . S
C1034 H1042 0.929 . S
C1035 C1034 1.383 . S
C1035 C1036 1.377 . S
C1036 H1020 0.930 . S
C1036 C1035 1.377 . S
C1036 C1037 1.379 . S
C1037 H1021 0.931 . S
C1037 C1031 1.383 . S
C1037 C1036 1.379 . S
H1038 C1032 0.959 . S
H1039 C1032 0.961 . S
H1040 C1032 0.960 . S
H1041 C1033 0.930 . S
H1042 C1034 0.929 . S
H1043 C1051 0.929 . S
H1044 C1053 0.930 . S
H1045 C1055 0.930 . S
H1046 C1058 0.929 . S
H1047 C1061 0.930 . S
H1048 C1063 0.960 . S
H1049 C1063 0.960 . S
H1050 C1063 0.960 . S
C1051 H1043 0.929 . S
C1051 C1052 1.377 . S
C1051 C1053 1.384 . S
C1052 C1051 1.377 . S
C1052 C1058 1.390 . S
C1053 H1044 0.930 . S
C1053 C1051 1.384 . S
C1053 C1054 1.372 . S
C1054 C1053 1.372 . S
C1054 C1055 1.400 . S
C1054 C1059 1.490 . S
C1055 H1045 0.930 . S
C1055 C1054 1.400 . S
C1055 C1058 1.386 . S
H1056 C1072 0.930 . S
H1057 C1073 0.931 . S
C1058 H1046 0.929 . S
C1058 C1052 1.390 . S
C1058 C1055 1.386 . S
C1059 C1054 1.490 . S
C1059 C1061 1.395 . S
C1059 C1062 1.403 . S
H1060 C1066 0.930 . S
C1061 H1047 0.930 . S
C1061 C1059 1.395 . S
C1061 C1064 1.403 . S
C1062 C1059 1.403 . S
C1062 C1063 1.524 . S
C1062 C1066 1.400 . S
C1063 H1048 0.960 . S
C1063 H1049 0.960 . S
C1063 H1050 0.960 . S
C1063 C1062 1.524 . S
C1064 C1061 1.403 . S
C1064 C1065 1.392 . S
C1064 C1068 1.495 . S
C1065 C1064 1.392 . S
C1065 C1066 1.385 . S
C1065 C1067 1.478 . S
C1066 H1060 0.930 . S
C1066 C1062 1.400 . S
C1066 C1065 1.385 . S
C1067 C1065 1.478 . S
C1067 C1069 1.381 . S
C1067 C1073 1.383 . S
C1068 C1064 1.495 . S
C1068 H1074 0.959 . S
C1068 H1075 0.961 . S
C1068 H1076 0.960 . S
C1069 C1067 1.381 . S
C1069 C1070 1.394 . S
C1069 H1077 0.930 . S
C1070 C1069 1.394 . S
C1070 C1071 1.383 . S
C1070 H1078 0.929 . S
C1071 C1070 1.383 . S
C1071 C1072 1.377 . S
C1072 H1056 0.930 . S
C1072 C1071 1.377 . S
C1072 C1073 1.379 . S
C1073 H1057 0.931 . S
C1073 C1067 1.383 . S
C1073 C1072 1.379 . S
H1074 C1068 0.959 . S
H1075 C1068 0.961 . S
H1076 C1068 0.960 . S
H1077 C1069 0.930 . S
H1078 C1070 0.929 . S
H1079 C1087 0.929 . S
H1080 C1089 0.930 . S
H1081 C1091 0.930 . S
H1082 C1094 0.929 . S
H1083 C1097 0.930 . S
H1084 C1099 0.960 . S
H1085 C1099 0.960 . S
H1086 C1099 0.960 . S
C1087 H1079 0.929 . S
C1087 C1088 1.377 . S
C1087 C1089 1.384 . S
C1088 C1087 1.377 . S
C1088 C1094 1.390 . S
C1089 H1080 0.930 . S
C1089 C1087 1.384 . S
C1089 C1090 1.372 . S
C1090 C1089 1.372 . S
C1090 C1091 1.400 . S
C1090 C1095 1.490 . S
C1091 H1081 0.930 . S
C1091 C1090 1.400 . S
C1091 C1094 1.386 . S
H1092 C1108 0.930 . S
H1093 C1109 0.931 . S
C1094 H1082 0.929 . S
C1094 C1088 1.390 . S
C1094 C1091 1.386 . S
C1095 C1090 1.490 . S
C1095 C1097 1.395 . S
C1095 C1098 1.403 . S
H1096 C1102 0.930 . S
C1097 H1083 0.930 . S
C1097 C1095 1.395 . S
C1097 C1100 1.403 . S
C1098 C1095 1.403 . S
C1098 C1099 1.524 . S
C1098 C1102 1.400 . S
C1099 H1084 0.960 . S
C1099 H1085 0.960 . S
C1099 H1086 0.960 . S
C1099 C1098 1.524 . S
C1100 C1097 1.403 . S
C1100 C1101 1.392 . S
C1100 C1104 1.495 . S
C1101 C1100 1.392 . S
C1101 C1102 1.385 . S
C1101 C1103 1.478 . S
C1102 H1096 0.930 . S
C1102 C1098 1.400 . S
C1102 C1101 1.385 . S
C1103 C1101 1.478 . S
C1103 C1105 1.381 . S
C1103 C1109 1.383 . S
C1104 C1100 1.495 . S
C1104 H1110 0.959 . S
C1104 H1111 0.961 . S
C1104 H1112 0.960 . S
C1105 C1103 1.381 . S
C1105 C1106 1.394 . S
C1105 H1113 0.930 . S
C1106 C1105 1.394 . S
C1106 C1107 1.383 . S
C1106 H1114 0.929 . S
C1107 C1106 1.383 . S
C1107 C1108 1.377 . S
C1108 H1092 0.930 . S
C1108 C1107 1.377 . S
C1108 C1109 1.379 . S
C1109 H1093 0.931 . S
C1109 C1103 1.383 . S
C1109 C1108 1.379 . S
H1110 C1104 0.959 . S
H1111 C1104 0.961 . S
H1112 C1104 0.960 . S
H1113 C1105 0.930 . S
H1114 C1106 0.929 . S
C279 C176 1.433 . S
C260 C11 1.350 . S
C315 C212 1.102 . S
C296 C25 1.176 . S
C351 C177 1.923 . S
C332 C40 1.920 . S
C387 C207 1.591 . S
C368 C59 1.652 . S
C423 C174 1.320 . S
C404 C82 1.417 . S
C440 C101 2.203 . S
C459 C210 2.185 . S
C476 C116 0.313 . S
C495 C179 0.691 . S
C531 C209 1.485 . S
C512 C144 1.380 . S
C567 C213 2.073 . S
C548 C2 2.108 . S
C603 C178 0.775 . S
C584 C21 0.834 . S
C639 C206 1.712 . S
C620 C49 1.463 . S
C675 C175 1.103 . S
C656 C63 1.201 . S
C711 C208 1.828 . S
C692 C78 1.963 . S
C728 C106 1.348 . S
C747 C173 1.400 . S
C764 C120 0.876 . S
C783 C211 0.898 . S
C819 C180 1.691 . S
C800 C135 1.728 . S
C855 C242 2.209 . S
C836 C6 2.312 . S
C872 C87 1.676 . S
C891 C245 1.721 . S
C927 C244 2.368 . S
C908 C97 2.425 . S
C944 C125 0.792 . S
C963 C243 0.772 . S
C999 C246 2.238 . S
C980 C139 2.401 . S
C1016 C44 2.206 . S
C1035 C240 2.106 . S
C1071 C239 1.993 . S
C1052 C68 1.921 . S
C1088 C30 0.665 . S
C1107 C241 0.600 . S
