# Generated by pormake.
# Topology zzz, (3,6)-cn, num edge types: 1
# Building blocks:
#     Node 0, Type 0, BuildingBlock: CUQRIR_clean_linker_1, # of connection points: 3
#     Node 1, Type 0, BuildingBlock: CUQRIR_clean_linker_1, # of connection points: 3
#     Node 2, Type 0, BuildingBlock: CUQRIR_clean_linker_1, # of connection points: 3
#     Node 3, Type 0, BuildingBlock: CUQRIR_clean_linker_1, # of connection points: 3
#     Node 4, Type 0, BuildingBlock: CUQRIR_clean_linker_1, # of connection points: 3
#     Node 5, Type 0, BuildingBlock: CUQRIR_clean_linker_1, # of connection points: 3
#     Node 6, Type 0, BuildingBlock: CUQRIR_clean_linker_1, # of connection points: 3
#     Node 7, Type 0, BuildingBlock: CUQRIR_clean_linker_1, # of connection points: 3
#     Node 8, Type 1, BuildingBlock: MIFKUJ_clean_sbu_0, # of connection points: 6
#     Node 9, Type 1, BuildingBlock: MIFKUJ_clean_sbu_0, # of connection points: 6
#     Node 10, Type 1, BuildingBlock: MIFKUJ_clean_sbu_0, # of connection points: 6
#     Node 11, Type 1, BuildingBlock: MIFKUJ_clean_sbu_0, # of connection points: 6
#     Edge 12, Type (0, 1), BuildingBlock: TEMPAE_clean_linker_10, # of connection points: 2
#     Edge 13, Type (0, 1), BuildingBlock: TEMPAE_clean_linker_10, # of connection points: 2
#     Edge 14, Type (0, 1), BuildingBlock: TEMPAE_clean_linker_10, # of connection points: 2
#     Edge 15, Type (0, 1), BuildingBlock: TEMPAE_clean_linker_10, # of connection points: 2
#     Edge 16, Type (0, 1), BuildingBlock: TEMPAE_clean_linker_10, # of connection points: 2
#     Edge 17, Type (0, 1), BuildingBlock: TEMPAE_clean_linker_10, # of connection points: 2
#     Edge 18, Type (0, 1), BuildingBlock: TEMPAE_clean_linker_10, # of connection points: 2
#     Edge 19, Type (0, 1), BuildingBlock: TEMPAE_clean_linker_10, # of connection points: 2
#     Edge 20, Type (0, 1), BuildingBlock: TEMPAE_clean_linker_10, # of connection points: 2
#     Edge 21, Type (0, 1), BuildingBlock: TEMPAE_clean_linker_10, # of connection points: 2
#     Edge 22, Type (0, 1), BuildingBlock: TEMPAE_clean_linker_10, # of connection points: 2
#     Edge 23, Type (0, 1), BuildingBlock: TEMPAE_clean_linker_10, # of connection points: 2
#     Edge 24, Type (0, 1), BuildingBlock: TEMPAE_clean_linker_10, # of connection points: 2
#     Edge 25, Type (0, 1), BuildingBlock: TEMPAE_clean_linker_10, # of connection points: 2
#     Edge 26, Type (0, 1), BuildingBlock: TEMPAE_clean_linker_10, # of connection points: 2
#     Edge 27, Type (0, 1), BuildingBlock: TEMPAE_clean_linker_10, # of connection points: 2
#     Edge 28, Type (0, 1), BuildingBlock: TEMPAE_clean_linker_10, # of connection points: 2
#     Edge 29, Type (0, 1), BuildingBlock: TEMPAE_clean_linker_10, # of connection points: 2
#     Edge 30, Type (0, 1), BuildingBlock: TEMPAE_clean_linker_10, # of connection points: 2
#     Edge 31, Type (0, 1), BuildingBlock: TEMPAE_clean_linker_10, # of connection points: 2
#     Edge 32, Type (0, 1), BuildingBlock: TEMPAE_clean_linker_10, # of connection points: 2
#     Edge 33, Type (0, 1), BuildingBlock: TEMPAE_clean_linker_10, # of connection points: 2
#     Edge 34, Type (0, 1), BuildingBlock: TEMPAE_clean_linker_10, # of connection points: 2
#     Edge 35, Type (0, 1), BuildingBlock: TEMPAE_clean_linker_10, # of connection points: 2
# Relax obj value: 0.126
# Max RMSD: 0.121
# Mean RMSD: 0.092
data_MOF--net-zzz--node1-MIFKUJ_clean_sbu_0--node2-CUQRIR_clean_linker_1--edge1-TEMPAE_clean_linker_10
_symmetry_space_group_name_H-M    P1
_symmetry_Int_Tables_number       1
_symmetry_cell_setting            triclinic
loop_
_symmetry_equiv_pos_as_xyz
'x, y, z'
_cell_length_a     47.85774
_cell_length_b     48.068324
_cell_length_c     14.482661
_cell_angle_alpha  89.917308
_cell_angle_beta   89.780291
_cell_angle_gamma 90.280592
loop_
_atom_site_label
_atom_site_type_symbol
_atom_site_fract_x
_atom_site_fract_y
_atom_site_fract_z
_atom_type_partial_charge
C0 C 0.71513 0.53931 0.18183 0.0
N1 N 0.74297 0.54137 0.16602 0.0
N2 N 0.70061 0.54705 0.10575 0.0
C3 C 0.7023 0.52698 0.26727 0.0
C4 C 0.72067 0.55353 0.04313 0.0
N5 N 0.74633 0.54988 0.07944 0.0
C6 C 0.71503 0.56087 0.94378 0.0
H7 H 0.70428 0.50401 0.26427 0.0
H8 H 0.67985 0.53243 0.27275 0.0
H9 H 0.71359 0.53436 0.32944 0.0
H10 H 0.69827 0.57665 0.93962 0.0
H11 H 0.70766 0.54201 0.90682 0.0
H12 H 0.73396 0.5692 0.90881 0.0
C13 C 0.00035 0.7226 0.18296 0.0
N14 N 0.00407 0.75043 0.17241 0.0
N15 N 0.996 0.71036 0.09961 0.0
C16 C 0.00265 0.70739 0.27299 0.0
C17 C 0.99757 0.73159 0.03854 0.0
N18 N 0.00251 0.75573 0.08267 0.0
C19 C 0.99519 0.72834 0.93531 0.0
H20 H 0.02411 0.7101 0.3004 0.0
H21 H 0.99802 0.68489 0.26482 0.0
H22 H 0.988 0.71652 0.32399 0.0
H23 H 0.97474 0.71878 0.91812 0.0
H24 H 0.01172 0.71406 0.91034 0.0
H25 H 0.99692 0.74845 0.89818 0.0
C26 C 0.78314 0.97721 0.17933 0.0
N27 N 0.75504 0.97339 0.17193 0.0
N28 N 0.79562 0.9753 0.09502 0.0
C29 C 0.79818 0.98448 0.26671 0.0
C30 C 0.77418 0.97001 0.03694 0.0
N31 N 0.74969 0.96939 0.08296 0.0
C32 C 0.7768 0.96833 0.93331 0.0
H33 H 0.79906 0.00745 0.27355 0.0
H34 H 0.81993 0.97661 0.26465 0.0
H35 H 0.78707 0.97573 0.32764 0.0
H36 H 0.79841 0.96302 0.91185 0.0
H37 H 0.77106 0.98869 0.90273 0.0
H38 H 0.76231 0.95238 0.90558 0.0
C39 C 0.50539 0.78377 0.1715 0.0
N40 N 0.49682 0.75684 0.17143 0.0
N41 N 0.49646 0.79695 0.0941 0.0
C42 C 0.52275 0.79681 0.2458 0.0
C43 C 0.48232 0.77708 0.04721 0.0
N44 N 0.48237 0.75284 0.09443 0.0
C45 C 0.47011 0.78074 0.95223 0.0
H46 H 0.51269 0.79309 0.31391 0.0
H47 H 0.52551 0.81948 0.2343 0.0
H48 H 0.54352 0.78665 0.24719 0.0
H49 H 0.4767 0.76335 0.90688 0.0
H50 H 0.47635 0.80076 0.91993 0.0
H51 H 0.44699 0.78008 0.9574 0.0
C52 C 0.2881 0.4737 0.00834 0.0
N53 N 0.26023 0.47156 0.02348 0.0
N54 N 0.30244 0.46668 0.08557 0.0
C55 C 0.30109 0.48547 0.92234 0.0
C56 C 0.28225 0.4606 0.1481 0.0
N57 N 0.25668 0.4638 0.11074 0.0
C58 C 0.28767 0.45418 0.24833 0.0
H59 H 0.32354 0.47993 0.91769 0.0
H60 H 0.2992 0.50846 0.92382 0.0
H61 H 0.28987 0.47776 0.86047 0.0
H62 H 0.29494 0.47337 0.28359 0.0
H63 H 0.30443 0.43846 0.25451 0.0
H64 H 0.26866 0.44614 0.28361 0.0
C65 C 0.00631 0.29634 0.03122 0.0
N66 N 0.99948 0.26895 0.03491 0.0
N67 N 0.99679 0.30965 0.1076 0.0
C68 C 0.02432 0.30939 0.95806 0.0
C69 C 0.98418 0.28944 0.15766 0.0
N70 N 0.98576 0.26482 0.11363 0.0
C71 C 0.97242 0.29339 0.25326 0.0
H72 H 0.04642 0.30373 0.97098 0.0
H73 H 0.02243 0.33239 0.95897 0.0
H74 H 0.01849 0.30126 0.88907 0.0
H75 H 0.96255 0.31413 0.25974 0.0
H76 H 0.98972 0.29227 0.30393 0.0
H77 H 0.95684 0.27696 0.27013 0.0
C78 C 0.21743 0.0435 0.01482 0.0
N79 N 0.24561 0.04308 0.02662 0.0
N80 N 0.20413 0.04315 0.09799 0.0
C81 C 0.20289 0.0436 0.92339 0.0
C82 C 0.22505 0.04217 0.16018 0.0
N83 N 0.25002 0.04211 0.11707 0.0
C84 C 0.22119 0.03807 0.26268 0.0
H85 H 0.18211 0.0536 0.92948 0.0
H86 H 0.19973 0.02179 0.90061 0.0
H87 H 0.21574 0.05457 0.87065 0.0
H88 H 0.22839 0.01693 0.28184 0.0
H89 H 0.19913 0.0405 0.28476 0.0
H90 H 0.23425 0.05327 0.30082 0.0
C91 C 0.49594 0.22865 0.02368 0.0
N92 N 0.50094 0.25635 0.03298 0.0
N93 N 0.50262 0.21493 0.10266 0.0
C94 C 0.48356 0.21529 0.9397 0.0
C95 C 0.51167 0.23515 0.15996 0.0
N96 N 0.51069 0.26014 0.11785 0.0
C97 C 0.52066 0.23049 0.25829 0.0
H98 H 0.46694 0.2287 0.91063 0.0
H99 H 0.47492 0.19438 0.95598 0.0
H100 H 0.50012 0.21308 0.88646 0.0
H101 H 0.53066 0.20986 0.26638 0.0
H102 H 0.50192 0.23097 0.30362 0.0
H103 H 0.5354 0.24696 0.28115 0.0
Zn104 Zn 0.99036 0.04848 0.5637 0.0
Zn105 Zn 0.01428 0.97572 0.62202 0.0
C106 C 0.99391 0.09291 0.68249 0.0
O107 O 0.96718 0.08692 0.67604 0.0
C108 C 0.02699 0.93031 0.50938 0.0
O109 O 0.05036 0.93487 0.5543 0.0
O110 O 0.97014 0.07211 0.47244 0.0
O111 O 0.01465 0.02257 0.48593 0.0
O112 O 0.04452 0.00266 0.57912 0.0
C113 C 0.98511 0.08054 0.40545 0.0
O114 O 0.01089 0.07158 0.39813 0.0
O115 O 0.01135 0.07783 0.63875 0.0
C116 C 0.00926 0.9319 0.73267 0.0
O117 O 0.98577 0.93406 0.68657 0.0
O118 O 0.02805 0.95047 0.72224 0.0
O119 O 0.97848 0.98979 0.68023 0.0
O120 O 0.9616 0.03139 0.64801 0.0
O121 O 0.00711 0.9477 0.51806 0.0
C122 C 0.03969 0.01668 0.50651 0.0
C123 C 0.96003 0.00836 0.69025 0.0
Zn124 Zn 0.46755 0.99793 0.55922 0.0
Zn125 Zn 0.53243 0.01624 0.63586 0.0
C126 C 0.42471 0.00352 0.69467 0.0
O127 O 0.4289 0.97653 0.69468 0.0
C128 C 0.57462 0.01329 0.49553 0.0
O129 O 0.56981 0.04016 0.49639 0.0
O130 O 0.43916 0.98437 0.46973 0.0
O131 O 0.49263 0.02228 0.47734 0.0
O132 O 0.51354 0.04946 0.57742 0.0
C133 C 0.42944 0.00497 0.42547 0.0
O134 O 0.43919 0.03004 0.44177 0.0
O135 O 0.44096 0.01899 0.64661 0.0
C136 C 0.57284 0.00794 0.75808 0.0
O137 O 0.56466 0.9831 0.73176 0.0
O138 O 0.56128 0.02942 0.72442 0.0
O139 O 0.51004 0.98956 0.718 0.0
O140 O 0.48429 0.96455 0.62337 0.0
O141 O 0.5589 0.99725 0.54339 0.0
C142 C 0.50224 0.04603 0.49905 0.0
C143 C 0.4976 0.96693 0.69866 0.0
Zn144 Zn 0.51469 0.47954 0.55882 0.0
Zn145 Zn 0.48297 0.53524 0.64232 0.0
C146 C 0.51412 0.43512 0.68515 0.0
O147 O 0.54056 0.4425 0.68047 0.0
C148 C 0.48651 0.5748 0.48991 0.0
O149 O 0.46051 0.56675 0.47835 0.0
O150 O 0.53551 0.45487 0.47106 0.0
O151 O 0.48812 0.50073 0.47554 0.0
O152 O 0.45562 0.50991 0.57754 0.0
C153 C 0.51865 0.44272 0.41666 0.0
O154 O 0.4919 0.44845 0.42183 0.0
O155 O 0.49628 0.44965 0.64127 0.0
C156 C 0.47597 0.58196 0.7448 0.0
O157 O 0.50258 0.58224 0.72245 0.0
O158 O 0.46083 0.56142 0.72129 0.0
O159 O 0.51128 0.51882 0.73088 0.0
O160 O 0.54235 0.502 0.6329 0.0
O161 O 0.50141 0.56256 0.55025 0.0
C162 C 0.46248 0.50311 0.49602 0.0
C163 C 0.53623 0.51185 0.71179 0.0
Zn164 Zn 0.04066 0.51856 0.55786 0.0
Zn165 Zn 0.96428 0.50453 0.63109 0.0
C166 C 0.08688 0.51669 0.66539 0.0
O167 O 0.0877 0.54013 0.61864 0.0
C168 C 0.91586 0.49648 0.52786 0.0
O169 O 0.91568 0.47545 0.58594 0.0
O170 O 0.0674 0.51987 0.45187 0.0
O171 O 0.00747 0.49617 0.508 0.0
O172 O 0.98309 0.46868 0.59706 0.0
C173 C 0.07726 0.49546 0.44397 0.0
O174 O 0.06684 0.47537 0.49536 0.0
O175 O 0.06512 0.50134 0.6587 0.0
C176 C 0.92737 0.52707 0.74468 0.0
O177 O 0.93533 0.54663 0.68665 0.0
O178 O 0.93966 0.50367 0.74235 0.0
O179 O 0.99139 0.53589 0.64887 0.0
O180 O 0.03063 0.5561 0.61059 0.0
O181 O 0.93686 0.51285 0.52761 0.0
C182 C 0.0007 0.47155 0.53177 0.0
C183 C 0.00865 0.55567 0.65968 0.0
C184 C 0.16471 0.01286 0.13709 0.0
C185 C 0.17503 0.03967 0.12008 0.0
C186 C 0.14052 0.00867 0.19082 0.0
C187 C 0.12643 0.03194 0.22847 0.0
C188 C 0.13556 0.05915 0.20486 0.0
C189 C 0.15987 0.06265 0.15117 0.0
C190 C 0.13148 0.97932 0.21359 0.0
C191 C 0.12112 0.08455 0.24282 0.0
C192 C 0.05499 0.02255 0.34178 0.0
C193 C 0.06197 0.02029 0.43567 0.0
C194 C 0.07567 0.02607 0.27353 0.0
C195 C 0.10408 0.02783 0.29964 0.0
C196 C 0.11128 0.02567 0.39436 0.0
C197 C 0.09017 0.02165 0.46108 0.0
C198 C 0.06713 0.02782 0.17346 0.0
C199 C 0.1413 0.02785 0.42534 0.0
H200 H 0.17698 0.99517 0.11494 0.0
H201 H 0.1684 0.08331 0.1398 0.0
H202 H 0.13639 0.97474 0.28685 0.0
H203 H 0.10857 0.9769 0.20504 0.0
H204 H 0.14222 0.96375 0.16953 0.0
H205 H 0.12848 0.10397 0.20871 0.0
H206 H 0.09816 0.0828 0.23411 0.0
H207 H 0.12531 0.0862 0.31792 0.0
H208 H 0.03326 0.02121 0.32129 0.0
H209 H 0.09569 0.02004 0.53341 0.0
H210 H 0.07766 0.01126 0.13316 0.0
H211 H 0.07388 0.04806 0.1438 0.0
H212 H 0.04418 0.02563 0.16438 0.0
H213 H 0.15392 0.01129 0.39228 0.0
H214 H 0.14342 0.026 0.50145 0.0
H215 H 0.15029 0.04813 0.40322 0.0
C216 C 0.52156 0.16829 0.12635 0.0
C217 C 0.4987 0.18628 0.12821 0.0
C218 C 0.52127 0.14337 0.1773 0.0
C219 C 0.49754 0.13646 0.23174 0.0
C220 C 0.4736 0.15368 0.22813 0.0
C221 C 0.47455 0.17849 0.17665 0.0
C222 C 0.54717 0.12559 0.1785 0.0
C223 C 0.44778 0.1471 0.28436 0.0
C224 C 0.49155 0.06434 0.3404 0.0
C225 C 0.50142 0.06913 0.43038 0.0
C226 C 0.49017 0.08594 0.27496 0.0
C227 C 0.49887 0.11309 0.29976 0.0
C228 C 0.5089 0.11808 0.39031 0.0
C229 C 0.51011 0.09607 0.45432 0.0
C230 C 0.4794 0.0797 0.17932 0.0
C231 C 0.51825 0.14677 0.41982 0.0
H232 H 0.54041 0.17483 0.09051 0.0
H233 H 0.4572 0.19287 0.17946 0.0
H234 H 0.55755 0.12756 0.24658 0.0
H235 H 0.54163 0.10334 0.169 0.0
H236 H 0.56234 0.13182 0.12392 0.0
H237 H 0.42985 0.16043 0.26473 0.0
H238 H 0.44165 0.12498 0.27585 0.0
H239 H 0.45228 0.15045 0.35864 0.0
H240 H 0.48485 0.04361 0.32076 0.0
H241 H 0.51771 0.10006 0.52348 0.0
H242 H 0.49571 0.08477 0.12721 0.0
H243 H 0.46105 0.09293 0.16403 0.0
H244 H 0.4732 0.05754 0.17111 0.0
H245 H 0.53559 0.15411 0.37477 0.0
H246 H 0.52541 0.14725 0.49267 0.0
H247 H 0.5008 0.1617 0.41196 0.0
C248 C 0.3484 0.45131 0.13743 0.0
C249 C 0.3309 0.47288 0.10919 0.0
C250 C 0.37246 0.45685 0.18948 0.0
C251 C 0.37906 0.4847 0.21324 0.0
C252 C 0.36278 0.50671 0.1772 0.0
C253 C 0.33875 0.50048 0.12574 0.0
C254 C 0.38922 0.43275 0.22618 0.0
C255 C 0.36931 0.53669 0.19969 0.0
C256 C 0.41282 0.49582 0.44741 0.0
C257 C 0.44101 0.49932 0.42353 0.0
C258 C 0.3925 0.49117 0.37941 0.0
C259 C 0.4005 0.49043 0.28507 0.0
C260 C 0.42884 0.4945 0.26036 0.0
C261 C 0.44879 0.4987 0.32991 0.0
C262 C 0.36248 0.48662 0.40868 0.0
C263 C 0.43811 0.49424 0.1606 0.0
H264 H 0.34192 0.43 0.12517 0.0
H265 H 0.32482 0.51704 0.10488 0.0
H266 H 0.41193 0.43663 0.21704 0.0
H267 H 0.38519 0.43041 0.30132 0.0
H268 H 0.38369 0.41287 0.19159 0.0
H269 H 0.35753 0.55129 0.15502 0.0
H270 H 0.36363 0.54089 0.27269 0.0
H271 H 0.39199 0.54098 0.19178 0.0
H272 H 0.40668 0.49617 0.51952 0.0
H273 H 0.47054 0.50156 0.31078 0.0
H274 H 0.35513 0.46591 0.3849 0.0
H275 H 0.3489 0.50245 0.37603 0.0
H276 H 0.35971 0.4878 0.48477 0.0
H277 H 0.43368 0.47358 0.12973 0.0
H278 H 0.46077 0.49881 0.15268 0.0
H279 H 0.42615 0.50984 0.12057 0.0
C280 C 0.0266 0.34027 0.19939 0.0
C281 C 0.00346 0.33687 0.14174 0.0
C282 C 0.02908 0.36371 0.2566 0.0
C283 C 0.00775 0.38405 0.25617 0.0
C284 C 0.98536 0.38157 0.19283 0.0
C285 C 0.98344 0.35786 0.13658 0.0
C286 C 0.05338 0.36559 0.32243 0.0
C287 C 0.96226 0.4028 0.18952 0.0
C288 C 0.99253 0.42216 0.48087 0.0
C289 C 0.00417 0.44854 0.46386 0.0
C290 C 0.99368 0.40104 0.41394 0.0
C291 C 0.00724 0.40616 0.32833 0.0
C292 C 0.01968 0.43244 0.31155 0.0
C293 C 0.01764 0.45338 0.37878 0.0
C294 C 0.97991 0.37334 0.43422 0.0
C295 C 0.0347 0.43861 0.2219 0.0
H296 H 0.04164 0.32355 0.20437 0.0
H297 H 0.9653 0.35468 0.09323 0.0
H298 H 0.06271 0.38676 0.32103 0.0
H299 H 0.04589 0.36164 0.39388 0.0
H300 H 0.0699 0.3502 0.30587 0.0
H301 H 0.94826 0.39959 0.12939 0.0
H302 H 0.94954 0.40133 0.25359 0.0
H303 H 0.97107 0.42416 0.18608 0.0
H304 H 0.98194 0.41817 0.54587 0.0
H305 H 0.02628 0.47376 0.36377 0.0
H306 H 0.99543 0.35636 0.42829 0.0
H307 H 0.96331 0.36916 0.3827 0.0
H308 H 0.97043 0.37256 0.50432 0.0
H309 H 0.05065 0.42246 0.20789 0.0
H310 H 0.04517 0.4593 0.22248 0.0
H311 H 0.0196 0.43808 0.16399 0.0
C312 C 0.82487 0.00739 0.00558 0.0
C313 C 0.82293 0.98467 0.06596 0.0
C314 C 0.84882 0.01191 0.95155 0.0
C315 C 0.87213 0.99417 0.96206 0.0
C316 C 0.87137 0.97302 0.03059 0.0
C317 C 0.84647 0.96811 0.08048 0.0
C318 C 0.84812 0.03406 0.87751 0.0
C319 C 0.89623 0.95455 0.04744 0.0
C320 C 0.91745 0.98368 0.74819 0.0
C321 C 0.93793 0.00418 0.7601 0.0
C322 C 0.89609 0.97995 0.81411 0.0
C323 C 0.89598 0.99637 0.89555 0.0
C324 C 0.91747 0.01628 0.90937 0.0
C325 C 0.93788 0.02033 0.8405 0.0
C326 C 0.87317 0.95905 0.7952 0.0
C327 C 0.91885 0.03335 0.99666 0.0
H328 H 0.80652 0.02009 0.99467 0.0
H329 H 0.84487 0.95045 0.12682 0.0
H330 H 0.86641 0.04816 0.88361 0.0
H331 H 0.8493 0.02409 0.80851 0.0
H332 H 0.82879 0.04674 0.88073 0.0
H333 H 0.89451 0.94346 0.11462 0.0
H334 H 0.89764 0.93877 0.99184 0.0
H335 H 0.91591 0.96685 0.04645 0.0
H336 H 0.91774 0.9711 0.68609 0.0
H337 H 0.95411 0.03589 0.85003 0.0
H338 H 0.85257 0.96959 0.79558 0.0
H339 H 0.87264 0.94304 0.85037 0.0
H340 H 0.87595 0.94845 0.72768 0.0
H341 H 0.90091 0.04783 0.99968 0.0
H342 H 0.93846 0.04573 0.00108 0.0
H343 H 0.91735 0.01956 0.05804 0.0
C344 C 0.48264 0.8457 0.0782 0.0
C345 C 0.50211 0.82469 0.06171 0.0
C346 C 0.48339 0.87064 0.0273 0.0
C347 C 0.50389 0.87433 0.95734 0.0
C348 C 0.52464 0.85372 0.94456 0.0
C349 C 0.52346 0.82911 0.99706 0.0
C350 C 0.4611 0.89216 0.04414 0.0
C351 C 0.54686 0.85671 0.87094 0.0
C352 C 0.4845 0.91835 0.7482 0.0
C353 C 0.4987 0.94338 0.76566 0.0
C354 C 0.48594 0.89586 0.81026 0.0
C355 C 0.50203 0.89833 0.89191 0.0
C356 C 0.51633 0.92355 0.91021 0.0
C357 C 0.51441 0.94575 0.84722 0.0
C358 C 0.47035 0.86932 0.78809 0.0
C359 C 0.53377 0.92706 0.99614 0.0
H360 H 0.46586 0.84184 0.12709 0.0
H361 H 0.53806 0.81244 0.98337 0.0
H362 H 0.47058 0.91319 0.04997 0.0
H363 H 0.44655 0.89256 0.98469 0.0
H364 H 0.44885 0.88773 0.10784 0.0
H365 H 0.56315 0.84042 0.87661 0.0
H366 H 0.53707 0.85511 0.8018 0.0
H367 H 0.55705 0.87745 0.87519 0.0
H368 H 0.47227 0.91625 0.68575 0.0
H369 H 0.52543 0.96498 0.86193 0.0
H370 H 0.45533 0.86433 0.84436 0.0
H371 H 0.48522 0.85174 0.78335 0.0
H372 H 0.45868 0.87074 0.7221 0.0
H373 H 0.52056 0.92386 0.05842 0.0
H374 H 0.54369 0.94796 1.00021 0.0
H375 H 0.55043 0.9111 0.99785 0.0
C376 C 0.65449 0.56295 0.05659 0.0
C377 C 0.67202 0.54118 0.08293 0.0
C378 C 0.6298 0.55766 0.00754 0.0
C379 C 0.6226 0.52987 0.98485 0.0
C380 C 0.63906 0.50769 0.01876 0.0
C381 C 0.66371 0.51367 0.06724 0.0
C382 C 0.61289 0.58193 0.97289 0.0
C383 C 0.63197 0.47778 0.99718 0.0
C384 C 0.55144 0.51664 0.87638 0.0
C385 C 0.55831 0.51555 0.78213 0.0
C386 C 0.57217 0.52066 0.94362 0.0
C387 C 0.60031 0.52433 0.91569 0.0
C388 C 0.60734 0.52326 0.82059 0.0
C389 C 0.58631 0.51855 0.75511 0.0
C390 C 0.56397 0.52107 0.04437 0.0
C391 C 0.63707 0.52754 0.78778 0.0
H392 H 0.66128 0.58419 0.06838 0.0
H393 H 0.67764 0.49696 0.08672 0.0
H394 H 0.61603 0.58416 0.89727 0.0
H395 H 0.59028 0.57832 0.98508 0.0
H396 H 0.61908 0.60177 0.00653 0.0
H397 H 0.64407 0.46306 0.04048 0.0
H398 H 0.60934 0.47374 0.0078 0.0
H399 H 0.63681 0.47349 0.92359 0.0
H400 H 0.52983 0.5141 0.89771 0.0
H401 H 0.59171 0.5179 0.68239 0.0
H402 H 0.56892 0.5417 0.07455 0.0
H403 H 0.57622 0.50539 0.08307 0.0
H404 H 0.54137 0.51669 0.05492 0.0
H405 H 0.64485 0.54819 0.81063 0.0
H406 H 0.639 0.52634 0.71143 0.0
H407 H 0.65085 0.5116 0.81881 0.0
C408 C 0.01897 0.66591 0.06986 0.0
C409 C 0.99443 0.68153 0.07435 0.0
C410 C 0.02048 0.64206 0.014 0.0
C411 C 0.99701 0.63419 0.96033 0.0
C412 C 0.97142 0.64846 0.97198 0.0
C413 C 0.97042 0.67182 0.02979 0.0
C414 C 0.04789 0.62686 0.00633 0.0
C415 C 0.94593 0.64104 0.91588 0.0
C416 C 0.01244 0.60396 0.72291 0.0
C417 C 0.00462 0.5761 0.73469 0.0
C418 C 0.00973 0.6231 0.79567 0.0
C419 C 1.00015 0.61383 0.88342 0.0
C420 C 0.99292 0.5855 0.89616 0.0
C421 C 0.99468 0.5671 0.82105 0.0
C422 C 0.01686 0.65331 0.77836 0.0
C423 C 0.98374 0.57457 0.98929 0.0
H424 H 0.03758 0.67375 0.10361 0.0
H425 H 0.95162 0.68427 0.03293 0.0
H426 H 0.04442 0.60403 0.00452 0.0
H427 H 0.05852 0.6329 0.94106 0.0
H428 H 0.06204 0.63193 0.06466 0.0
H429 H 0.92693 0.6519 0.94099 0.0
H430 H 0.94958 0.647 0.84273 0.0
H431 H 0.94197 0.61831 0.91754 0.0
H432 H 0.02027 0.61085 0.65631 0.0
H433 H 0.98916 0.54538 0.83072 0.0
H434 H 0.03427 0.65988 0.82383 0.0
H435 H 0.99861 0.66655 0.79538 0.0
H436 H 0.02304 0.6573 0.70551 0.0
H437 H 0.99927 0.58038 0.04271 0.0
H438 H 0.98113 0.55159 0.98953 0.0
H439 H 0.96358 0.58411 0.00948 0.0
C440 C 0.9965 0.22915 0.22758 0.0
C441 C 0.98014 0.23818 0.15399 0.0
C442 C 0.99243 0.20278 0.26598 0.0
C443 C 0.97139 0.18518 0.22953 0.0
C444 C 0.95414 0.19466 0.15684 0.0
C445 C 0.95892 0.22119 0.1192 0.0
C446 C 0.0113 0.19344 0.34334 0.0
C447 C 0.93081 0.17689 0.11868 0.0
C448 C 0.99117 0.1104 0.26765 0.0
C449 C 0.97632 0.10423 0.34851 0.0
C450 C 0.98817 0.13608 0.2238 0.0
C451 C 0.96976 0.15603 0.26192 0.0
C452 C 0.95294 0.14902 0.33918 0.0
C453 C 0.95633 0.123 0.38153 0.0
C454 C 0.00696 0.14224 0.14229 0.0
C455 C 0.93343 0.16988 0.38249 0.0
H456 H 0.01295 0.24261 0.25326 0.0
H457 H 0.9463 0.22867 0.06246 0.0
H458 H 0.99876 0.18482 0.40137 0.0
H459 H 0.02521 0.17667 0.31805 0.0
H460 H 0.02453 0.21069 0.36999 0.0
H461 H 0.92346 0.18467 0.05075 0.0
H462 H 0.93741 0.15492 0.11122 0.0
H463 H 0.91286 0.17724 0.16727 0.0
H464 H 0.00648 0.09578 0.24142 0.0
H465 H 0.94485 0.11828 0.44435 0.0
H466 H 0.02876 0.14478 0.16702 0.0
H467 H 0.00109 0.16129 0.10431 0.0
H468 H 0.0068 0.12443 0.0935 0.0
H469 H 0.94588 0.18622 0.41776 0.0
H470 H 0.9192 0.16007 0.43402 0.0
H471 H 0.92069 0.18029 0.32899 0.0
C472 C 0.2889 0.05219 0.22132 0.0
C473 C 0.27581 0.0343 0.1591 0.0
C474 C 0.3139 0.04447 0.26375 0.0
C475 C 0.32588 0.01837 0.24223 0.0
C476 C 0.31255 1.00023 0.17931 0.0
C477 C 0.28748 0.00845 0.13861 0.0
C478 C 0.32759 0.06429 0.33075 0.0
C479 C 0.32466 0.97221 0.15512 0.0
C480 C 0.40343 0.0165 0.28506 0.0
C481 C 0.4044 0.00246 0.36943 0.0
C482 C 0.37804 0.02042 0.23986 0.0
C483 C 0.3531 0.01077 0.28221 0.0
C484 C 0.35415 0.99562 0.36604 0.0
C485 C 0.38004 0.99128 0.40828 0.0
C486 C 0.37814 0.03677 0.15074 0.0
C487 C 0.32787 0.98612 0.415 0.0
H488 H 0.27956 0.0722 0.23597 0.0
H489 H 0.27682 0.99474 0.09079 0.0
H490 H 0.33227 0.05346 0.3966 0.0
H491 H 0.34773 0.07179 0.30153 0.0
H492 H 0.31429 0.08262 0.34588 0.0
H493 H 0.31443 0.96293 0.09361 0.0
H494 H 0.34744 0.97392 0.14169 0.0
H495 H 0.32173 0.95776 0.21415 0.0
H496 H 0.42241 0.02552 0.2564 0.0
H497 H 0.38098 0.98115 0.47518 0.0
H498 H 0.37831 0.05933 0.16697 0.0
H499 H 0.35959 0.03233 0.10771 0.0
H500 H 0.39723 0.03229 0.10961 0.0
H501 H 0.31605 0.00457 0.43906 0.0
H502 H 0.33242 0.97275 0.47571 0.0
H503 H 0.31412 0.97445 0.36716 0.0
C504 C 0.53919 0.30266 0.12559 0.0
C505 C 0.51708 0.28644 0.15924 0.0
C506 C 0.54519 0.32864 0.16499 0.0
C507 C 0.5283 0.33847 0.23834 0.0
C508 C 0.50631 0.32168 0.27364 0.0
C509 C 0.50102 0.29577 0.23351 0.0
C510 C 0.56944 0.34557 0.12823 0.0
C511 C 0.48781 0.33141 0.35182 0.0
C512 C 0.54574 0.39925 0.39381 0.0
C513 C 0.52727 0.4192 0.35936 0.0
C514 C 0.54791 0.37312 0.35125 0.0
C515 C 0.53145 0.36732 0.27248 0.0
C516 C 0.51479 0.38845 0.2331 0.0
C517 C 0.51278 0.41411 0.27747 0.0
C518 C 0.56572 0.35104 0.39558 0.0
C519 C 0.49708 0.38319 0.14893 0.0
H520 H 0.55163 0.29494 0.06854 0.0
H521 H 0.48392 0.28291 0.25853 0.0
H522 H 0.5629 0.36727 0.11403 0.0
H523 H 0.58611 0.34653 0.18111 0.0
H524 H 0.5784 0.3365 0.06419 0.0
H525 H 0.47304 0.31495 0.37546 0.0
H526 H 0.5007 0.33809 0.41137 0.0
H527 H 0.47551 0.34967 0.32908 0.0
H528 H 0.55667 0.40317 0.45796 0.0
H529 H 0.49855 0.42969 0.25104 0.0
H530 H 0.57721 0.33894 0.34264 0.0
H531 H 0.55206 0.33628 0.43403 0.0
H532 H 0.58098 0.36012 0.4448 0.0
H533 H 0.48869 0.40275 0.11919 0.0
H534 H 0.47922 0.36954 0.16812 0.0
H535 H 0.50937 0.37235 0.09513 0.0
C536 C 0.22874 0.48645 0.23026 0.0
C537 C 0.23093 0.46644 0.16063 0.0
C538 C 0.20331 0.49108 0.27504 0.0
C539 C 0.17949 0.47574 0.24747 0.0
C540 C 0.18156 0.45561 0.17655 0.0
C541 C 0.20747 0.45107 0.13413 0.0
C542 C 0.20195 0.51235 0.35165 0.0
C543 C 0.15656 0.43869 0.14631 0.0
C544 C 0.12064 0.46897 0.41937 0.0
C545 C 0.10267 0.49017 0.39046 0.0
C546 C 0.14574 0.46403 0.37317 0.0
C547 C 0.15262 0.4803 0.29502 0.0
C548 C 0.13433 0.50143 0.26437 0.0
C549 C 0.10957 0.5064 0.31348 0.0
C550 C 0.16521 0.44193 0.40946 0.0
C551 C 0.14098 0.51875 0.18009 0.0
H552 H 0.24693 0.49876 0.24834 0.0
H553 H 0.20944 0.43585 0.0794 0.0
H554 H 0.18713 0.5291 0.33303 0.0
H555 H 0.19402 0.50249 0.41601 0.0
H556 H 0.22265 0.52192 0.36607 0.0
H557 H 0.13802 0.45217 0.13724 0.0
H558 H 0.16062 0.4274 0.08078 0.0
H559 H 0.15128 0.42318 0.20045 0.0
H560 H 0.11546 0.4567 0.48002 0.0
H561 H 0.09556 0.52275 0.29139 0.0
H562 H 0.18559 0.45145 0.42801 0.0
H563 H 0.16932 0.42621 0.3552 0.0
H564 H 0.15662 0.43114 0.47133 0.0
H565 H 0.16014 0.53127 0.19224 0.0
H566 H 0.12369 0.53304 0.16169 0.0
H567 H 0.14526 0.50494 0.12054 0.0
C568 C 0.98842 0.80383 0.05522 0.0
C569 C 0.0073 0.78226 0.04072 0.0
C570 C 0.99228 0.82947 0.01117 0.0
C571 C 0.01572 0.83331 0.95239 0.0
C572 C 0.03561 0.8119 0.94172 0.0
C573 C 0.03108 0.78646 0.98619 0.0
C574 C 0.97045 0.85177 0.02304 0.0
C575 C 0.06084 0.81537 0.8798 0.0
C576 C 0.00204 0.88172 0.75415 0.0
C577 C 0.0142 0.90648 0.78549 0.0
C578 C 0.00348 0.85744 0.8064 0.0
C579 C 0.01721 0.85811 0.89259 0.0
C580 C 0.03073 0.88272 0.92283 0.0
C581 C 0.02921 0.9068 0.86814 0.0
C582 C 0.98928 0.83141 0.77089 0.0
C583 C 0.04553 0.88398 0.0146 0.0
H584 H 0.97029 0.80023 0.09878 0.0
H585 H 0.04574 0.76955 0.97735 0.0
H586 H 0.95838 0.85389 0.95815 0.0
H587 H 0.95562 0.84687 0.08006 0.0
H588 H 0.98046 0.87219 0.03702 0.0
H589 H 0.07578 0.7979 0.88713 0.0
H590 H 0.05405 0.81642 0.8067 0.0
H591 H 0.07186 0.83516 0.89553 0.0
H592 H 0.99093 0.88145 0.68899 0.0
H593 H 0.03862 0.92606 0.89183 0.0
H594 H 0.97151 0.82582 0.81684 0.0
H595 H 0.00403 0.81368 0.77133 0.0
H596 H 0.98122 0.83403 0.69955 0.0
H597 H 0.02979 0.88415 0.07104 0.0
H598 H 0.05875 0.90294 0.02091 0.0
H599 H 0.0588 0.86537 0.0248 0.0
C600 C 0.71256 0.00274 0.05304 0.0
C601 C 0.7235 0.97607 0.04105 0.0
C602 C 0.68753 0.01034 0.01106 0.0
C603 C 0.67363 0.99088 0.95419 0.0
C604 C 0.68463 0.96381 0.94203 0.0
C605 C 0.7095 0.95662 0.98656 0.0
C606 C 0.67615 0.03919 0.02698 0.0
C607 C 0.67015 0.94255 0.88206 0.0
C608 C 0.59669 0.99733 0.90294 0.0
C609 C 0.59747 0.00979 0.81586 0.0
C610 C 0.62136 0.99201 0.95084 0.0
C611 C 0.6473 0.9987 0.90869 0.0
C612 C 0.64806 0.01192 0.82121 0.0
C613 C 0.62292 0.01762 0.77602 0.0
C614 C 0.61916 0.97749 0.04317 0.0
C615 C 0.67534 0.01807 0.77235 0.0
H616 H 0.72384 0.01765 0.09501 0.0
H617 H 0.71818 0.93598 0.97862 0.0
H618 H 0.67902 0.05185 0.96356 0.0
H619 H 0.65341 0.03832 0.04215 0.0
H620 H 0.68687 0.04993 0.08486 0.0
H621 H 0.68249 0.92315 0.87476 0.0
H622 H 0.64951 0.9372 0.9125 0.0
H623 H 0.66637 0.95133 0.8123 0.0
H624 H 0.57682 0.99058 0.9318 0.0
H625 H 0.62323 0.02626 0.70675 0.0
H626 H 0.63862 0.97872 0.08408 0.0
H627 H 0.61409 0.95521 0.03161 0.0
H628 H 0.6018 0.98644 0.08452 0.0
H629 H 0.68919 0.03075 0.817 0.0
H630 H 0.67225 0.02927 0.70602 0.0
H631 H 0.68634 0.99826 0.75782 0.0
C632 C 0.44676 0.72138 0.02945 0.0
C633 C 0.47423 0.72622 0.05836 0.0
C634 C 0.43978 0.69692 0.98172 0.0
C635 C 0.46075 0.67692 0.96467 0.0
C636 C 0.48804 0.68102 0.99963 0.0
C637 C 0.49457 0.70594 0.04406 0.0
C638 C 0.41052 0.69305 0.94563 0.0
C639 C 0.51089 0.65985 0.98531 0.0
C640 C 0.45132 0.60354 0.87774 0.0
C641 C 0.46433 0.60619 0.79163 0.0
C642 C 0.44717 0.62707 0.93339 0.0
C643 C 0.45585 0.65353 0.90025 0.0
C644 C 0.4655 0.6564 0.80818 0.0
C645 C 0.47017 0.63256 0.75558 0.0
C646 C 0.43506 0.62282 0.02871 0.0
C647 C 0.4735 0.68437 0.76802 0.0
H648 H 0.43112 0.73721 0.04122 0.0
H649 H 0.51596 0.71019 0.06356 0.0
H650 H 0.41095 0.69273 0.869 0.0
H651 H 0.40196 0.67273 0.96915 0.0
H652 H 0.39629 0.70987 0.96871 0.0
H653 H 0.52931 0.66406 0.02979 0.0
H654 H 0.50302 0.63856 1.0005 0.0
H655 H 0.5179 0.6603 0.91221 0.0
H656 H 0.44645 0.583 0.90462 0.0
H657 H 0.47973 0.63445 0.68783 0.0
H658 H 0.4129 0.6162 0.0221 0.0
H659 H 0.4358 0.6417 0.07242 0.0
H660 H 0.44617 0.60568 0.06436 0.0
H661 H 0.47463 0.68373 0.69139 0.0
H662 H 0.49433 0.69066 0.79437 0.0
H663 H 0.45829 0.70056 0.78891 0.0
C664 C 0.77467 0.52915 0.95683 0.0
C665 C 0.77213 0.54822 0.02916 0.0
C666 C 0.80023 0.52543 0.91168 0.0
C667 C 0.8238 0.54084 0.94126 0.0
C668 C 0.82135 0.56003 0.01489 0.0
C669 C 0.79536 0.56359 0.05786 0.0
C670 C 0.802 0.50505 0.83255 0.0
C671 C 0.84604 0.577 0.04747 0.0
C672 C 0.89509 0.51359 0.87324 0.0
C673 C 0.90167 0.53101 0.79873 0.0
C674 C 0.86986 0.5168 0.92147 0.0
C675 C 0.8508 0.53752 0.89295 0.0
C676 C 0.8573 0.55498 0.81732 0.0
C677 C 0.88281 0.55169 0.77169 0.0
C678 C 0.86355 0.4981 0.00274 0.0
C679 C 0.83709 0.57676 0.7834 0.0
H680 H 0.75667 0.51681 0.93697 0.0
H681 H 0.79313 0.57807 0.11466 0.0
H682 H 0.8095 0.51583 0.76926 0.0
H683 H 0.81733 0.48854 0.84877 0.0
H684 H 0.78153 0.49508 0.81747 0.0
H685 H 0.84169 0.58766 0.11395 0.0
H686 H 0.86472 0.56366 0.05587 0.0
H687 H 0.85128 0.59301 0.99489 0.0
H688 H 0.90966 0.49756 0.89389 0.0
H689 H 0.88761 0.56493 0.71301 0.0
H690 H 0.88092 0.48355 0.01779 0.0
H691 H 0.84432 0.48579 0.98942 0.0
H692 H 0.85955 0.51094 0.06485 0.0
H693 H 0.81696 0.56681 0.76426 0.0
H694 H 0.84524 0.58834 0.72248 0.0
H695 H 0.8326 0.59187 0.83926 0.0
C696 C 0.99244 0.24391 0.88906 0.0
C697 C 0.00715 0.24717 0.97151 0.0
C698 C 0.99528 0.21964 0.83579 0.0
C699 C 0.01311 0.19802 0.86635 0.0
C700 C 0.02935 0.2021 0.94701 0.0
C701 C 0.02619 0.22671 0.99843 0.0
C702 C 0.97754 0.21625 0.75061 0.0
C703 C 0.04907 0.18004 0.98168 0.0
C704 C 0.98506 0.12608 0.80957 0.0
C705 C 0.00222 0.11778 0.73626 0.0
C706 C 0.98903 0.15161 0.85393 0.0
C707 C 0.01071 0.16974 0.8241 0.0
C708 C 0.02882 0.1611 0.7519 0.0
C709 C 0.0245 0.13503 0.7091 0.0
C710 C 0.96855 0.15932 0.92892 0.0
C711 C 0.0517 0.18001 0.7165 0.0
H712 H 0.97751 0.2597 0.86928 0.0
H713 H 0.03753 0.22944 0.06243 0.0
H714 H 0.98997 0.20723 0.69325 0.0
H715 H 0.96006 0.20167 0.76587 0.0
H716 H 0.96857 0.23634 0.72745 0.0
H717 H 0.05552 0.18387 0.05421 0.0
H718 H 0.0395 0.15902 0.97732 0.0
H719 H 0.06812 0.18 0.93787 0.0
H720 H 0.96778 0.11283 0.83102 0.0
H721 H 0.03757 0.12886 0.65146 0.0
H722 H 0.94866 0.16589 0.89655 0.0
H723 H 0.97601 0.17644 0.97359 0.0
H724 H 0.96382 0.14092 0.97285 0.0
H725 H 0.04231 0.19903 0.68641 0.0
H726 H 0.06479 0.16983 0.66293 0.0
H727 H 0.06532 0.18672 0.77415 0.0
C728 C 0.2696 0.0225 0.89076 0.0
C729 C 0.26793 0.04317 0.95863 0.0
C730 C 0.29433 0.01877 0.83878 0.0
C731 C 0.31812 0.03573 0.85642 0.0
C732 C 0.31594 0.05744 0.92208 0.0
C733 C 0.29079 0.06114 0.97091 0.0
C734 C 0.29556 0.9955 0.76924 0.0
C735 C 0.34075 0.07559 0.94549 0.0
C736 C 0.38906 1.00131 0.8205 0.0
C737 C 0.39913 0.01441 0.74045 0.0
C738 C 0.36311 0.00838 0.85938 0.0
C739 C 0.34612 0.02859 0.8158 0.0
C740 C 0.35618 0.04195 0.73464 0.0
C741 C 0.38274 0.03499 0.69864 0.0
C742 C 0.35376 0.99311 0.94528 0.0
C743 C 0.33836 0.06264 0.68353 0.0
H744 H 0.25222 0.00824 0.8822 0.0
H745 H 0.28947 0.07711 0.02347 0.0
H746 H 0.3061 0.00257 0.7049 0.0
H747 H 0.30793 0.97809 0.79806 0.0
H748 H 0.27441 0.9875 0.75181 0.0
H749 H 0.3362 0.09021 0.00291 0.0
H750 H 0.35879 0.0625 0.96537 0.0
H751 H 0.34717 0.08785 0.884 0.0
H752 H 0.40142 0.9851 0.85249 0.0
H753 H 0.39004 0.04463 0.63522 0.0
H754 H 0.3432 0.97347 0.92488 0.0
H755 H 0.33891 0.00536 0.9874 0.0
H756 H 0.37194 0.98754 0.98896 0.0
H757 H 0.31853 0.05251 0.6621 0.0
H758 H 0.34902 0.07108 0.62115 0.0
H759 H 0.33277 0.08019 0.72951 0.0
C760 C 0.51041 0.28036 0.88504 0.0
C761 C 0.49546 0.27855 0.96808 0.0
C762 C 0.50941 0.30461 0.83024 0.0
C763 C 0.49331 0.3277 0.85986 0.0
C764 C 0.47669 0.32509 0.94074 0.0
C765 C 0.47787 0.3005 0.99336 0.0
C766 C 0.52698 0.3061 0.7437 0.0
C767 C 0.45864 0.34869 0.97435 0.0
C768 C 0.52445 0.39881 0.80298 0.0
C769 C 0.50658 0.40886 0.73423 0.0
C770 C 0.5201 0.37275 0.84449 0.0
C771 C 0.49747 0.35573 0.81586 0.0
C772 C 0.47917 0.36575 0.74657 0.0
C773 C 0.48376 0.39234 0.70722 0.0
C774 C 0.54071 0.36326 0.91647 0.0
C775 C 0.45558 0.34788 0.71098 0.0
H776 H 0.52408 0.26341 0.86574 0.0
H777 H 0.46602 0.29884 0.05707 0.0
H778 H 0.51534 0.31638 0.68707 0.0
H779 H 0.546 0.3187 0.75733 0.0
H780 H 0.53361 0.28514 0.72031 0.0
H781 H 0.47042 0.36862 0.97358 0.0
H782 H 0.44055 0.35114 0.92752 0.0
H783 H 0.45048 0.34495 0.04523 0.0
H784 H 0.54228 0.41128 0.8239 0.0
H785 H 0.4702 0.39968 0.65268 0.0
H786 H 0.53095 0.34936 0.96854 0.0
H787 H 0.55031 0.38128 0.95262 0.0
H788 H 0.55775 0.35157 0.88209 0.0
H789 H 0.46423 0.32875 0.67924 0.0
H790 H 0.44276 0.35888 0.6587 0.0
H791 H 0.4418 0.34121 0.76866 0.0
C792 C 0.22123 0.5023 0.98295 0.0
C793 C 0.23781 0.4792 0.96248 0.0
C794 C 0.19629 0.50724 0.93496 0.0
C795 C 0.18798 0.48879 0.86379 0.0
C796 C 0.20515 0.4658 0.84131 0.0
C797 C 0.22984 0.46122 0.89139 0.0
C798 C 0.17888 0.53219 0.96066 0.0
C799 C 0.19723 0.44585 0.76533 0.0
C800 C 0.11135 0.48954 0.79019 0.0
C801 C 0.11238 0.5078 0.71482 0.0
C802 C 0.13586 0.48288 0.83907 0.0
C803 C 0.16193 0.49429 0.8105 0.0
C804 C 0.16305 0.51192 0.7324 0.0
C805 C 0.13832 0.51859 0.68616 0.0
C806 C 0.13382 0.4643 0.92276 0.0
C807 C 0.19036 0.5241 0.69825 0.0
H808 H 0.22743 0.51596 0.03878 0.0
H809 H 0.24253 0.4431 0.8773 0.0
H810 H 0.18051 0.54806 0.90521 0.0
H811 H 0.15651 0.52634 0.96722 0.0
H812 H 0.18583 0.5418 0.02647 0.0
H813 H 0.21319 0.42944 0.75481 0.0
H814 H 0.17696 0.4357 0.78208 0.0
H815 H 0.19445 0.45731 0.69946 0.0
H816 H 0.09136 0.48116 0.81249 0.0
H817 H 0.13937 0.53236 0.62687 0.0
H818 H 0.14199 0.47551 0.98385 0.0
H819 H 0.14699 0.44561 0.91283 0.0
H820 H 0.11202 0.45752 0.93737 0.0
H821 H 0.1992 0.53818 0.75141 0.0
H822 H 0.18788 0.53605 0.63309 0.0
H823 H 0.20578 0.50731 0.68635 0.0
C824 C 0.98893 0.77882 0.30482 0.0
C825 C 0.00965 0.77139 0.24119 0.0
C826 C 0.99113 0.80364 0.35599 0.0
C827 C 0.01422 0.82171 0.34085 0.0
C828 C 0.03571 0.81362 0.27915 0.0
C829 C 0.0334 0.7883 0.23169 0.0
C830 C 0.96813 0.81113 0.42287 0.0
C831 C 0.06034 0.83245 0.25888 0.0
C832 C 0.00665 0.89954 0.38619 0.0
C833 C 0.02238 0.90272 0.4668 0.0
C834 C 0.00358 0.87319 0.34477 0.0
C835 C 0.01568 0.84946 0.38691 0.0
C836 C 0.03054 0.85255 0.47054 0.0
C837 C 0.03405 0.87915 0.5086 0.0
C838 C 0.98802 0.87082 0.25472 0.0
C839 C 0.0431 0.82781 0.51927 0.0
H840 H 0.97032 0.76601 0.31068 0.0
H841 H 0.04931 0.78249 0.18201 0.0
H842 H 0.97707 0.81764 0.49011 0.0
H843 H 0.95616 0.829 0.39535 0.0
H844 H 0.95344 0.79352 0.43484 0.0
H845 H 0.07558 0.82277 0.21079 0.0
H846 H 0.05287 0.85213 0.2275 0.0
H847 H 0.07126 0.83794 0.32379 0.0
H848 H 0.99754 0.91773 0.35409 0.0
H849 H 0.04576 0.88147 0.57212 0.0
H850 H 0.96957 0.857 0.26351 0.0
H851 H 0.00168 0.8612 0.20171 0.0
H852 H 0.98085 0.89132 0.22872 0.0
H853 H 0.02703 0.81136 0.52948 0.0
H854 H 0.05195 0.83342 0.58761 0.0
H855 H 0.05997 0.81882 0.47606 0.0
C856 C 0.73056 0.99783 0.30007 0.0
C857 C 0.73321 0.97477 0.24159 0.0
C858 C 0.70582 0.00217 0.35149 0.0
C859 C 0.68286 0.98358 0.34163 0.0
C860 C 0.68599 0.95972 0.28538 0.0
C861 C 0.71127 0.95533 0.23821 0.0
C862 C 0.70369 0.02759 0.41189 0.0
C863 C 0.66187 0.94001 0.26877 0.0
C864 C 0.61864 0.98514 0.5003 0.0
C865 C 0.60086 0.0032 0.45237 0.0
C866 C 0.64562 0.97907 0.46643 0.0
C867 C 0.65468 0.99053 0.38099 0.0
C868 C 0.6364 0.00826 0.33154 0.0
C869 C 0.61004 0.01476 0.3687 0.0
C870 C 0.66486 0.96134 0.52388 0.0
C871 C 0.64475 0.02132 0.24066 0.0
H872 H 0.74704 0.01332 0.30149 0.0
H873 H 0.71327 0.93757 0.19265 0.0
H874 H 0.691 0.04358 0.37638 0.0
H875 H 0.69313 0.02246 0.47819 0.0
H876 H 0.72457 0.03671 0.4268 0.0
H877 H 0.66775 0.92232 0.22351 0.0
H878 H 0.65393 0.93161 0.33525 0.0
H879 H 0.64442 0.95143 0.23583 0.0
H880 H 0.61199 0.9769 0.56661 0.0
H881 H 0.59659 0.02916 0.33232 0.0
H882 H 0.68425 0.97317 0.53946 0.0
H883 H 0.67108 0.94254 0.48473 0.0
H884 H 0.65504 0.9547 0.59004 0.0
H885 H 0.65577 0.04124 0.25419 0.0
H886 H 0.62616 0.026 0.19774 0.0
H887 H 0.65901 0.00783 0.20047 0.0
C888 C 0.47829 0.72578 0.29118 0.0
C889 C 0.50118 0.73568 0.2405 0.0
C890 C 0.47979 0.70076 0.34114 0.0
C891 C 0.5045 0.68464 0.33729 0.0
C892 C 0.52823 0.69538 0.28991 0.0
C893 C 0.52642 0.72111 0.24354 0.0
C894 C 0.45423 0.69071 0.39291 0.0
C895 C 0.55463 0.67859 0.28063 0.0
C896 C 0.50886 0.62196 0.49937 0.0
C897 C 0.49591 0.60119 0.44636 0.0
C898 C 0.51248 0.64915 0.46446 0.0
C899 C 0.50406 0.65536 0.37299 0.0
C900 C 0.49287 0.63381 0.31727 0.0
C901 C 0.48829 0.60724 0.35529 0.0
C902 C 0.52374 0.67157 0.52715 0.0
C903 C 0.48456 0.63909 0.21846 0.0
H904 H 0.45875 0.73703 0.28771 0.0
H905 H 0.5439 0.72863 0.2026 0.0
H906 H 0.44442 0.67326 0.35465 0.0
H907 H 0.46006 0.68283 0.46225 0.0
H908 H 0.43847 0.70742 0.4013 0.0
H909 H 0.5724 0.6914 0.25477 0.0
H910 H 0.56051 0.66913 0.34762 0.0
H911 H 0.55099 0.66134 0.23114 0.0
H912 H 0.5145 0.61745 0.57018 0.0
H913 H 0.47823 0.59126 0.31419 0.0
H914 H 0.50752 0.68768 0.53806 0.0
H915 H 0.542 0.68201 0.49456 0.0
H916 H 0.53008 0.66326 0.59552 0.0
H917 H 0.46483 0.6511 0.21695 0.0
H918 H 0.48139 0.61941 0.17982 0.0
H919 H 0.50078 0.65162 0.18249 0.0
C920 C 0.78183 0.50983 0.20058 0.0
C921 C 0.76541 0.53268 0.22525 0.0
C922 C 0.80666 0.50386 0.24781 0.0
C923 C 0.81495 0.52092 0.32269 0.0
C924 C 0.79794 0.54363 0.34933 0.0
C925 C 0.77339 0.54931 0.29981 0.0
C926 C 0.82409 0.47948 0.21693 0.0
C927 C 0.80595 0.56221 0.42896 0.0
C928 C 0.86501 0.48991 0.49731 0.0
C929 C 0.89054 0.50245 0.47269 0.0
C930 C 0.84032 0.49596 0.44966 0.0
C931 C 0.84112 0.51464 0.37419 0.0
C932 C 0.86689 0.52711 0.34796 0.0
C933 C 0.89127 0.5211 0.3982 0.0
C934 C 0.81326 0.48261 0.48099 0.0
C935 C 0.86868 0.54684 0.26706 0.0
H936 H 0.77559 0.49721 0.14217 0.0
H937 H 0.76083 0.56726 0.3172 0.0
H938 H 0.82274 0.46269 0.26941 0.0
H939 H 0.817 0.47096 0.14965 0.0
H940 H 0.84641 0.48558 0.21068 0.0
H941 H 0.78988 0.57825 0.44337 0.0
H942 H 0.80907 0.5496 0.49228 0.0
H943 H 0.82605 0.57285 0.41345 0.0
H944 H 0.86415 0.4757 0.55545 0.0
H945 H 0.9109 0.53088 0.37883 0.0
H946 H 0.80423 0.47006 0.42413 0.0
H947 H 0.79784 0.49893 0.49878 0.0
H948 H 0.81609 0.46892 0.54207 0.0
H949 H 0.8581 0.53769 0.20624 0.0
H950 H 0.89062 0.55195 0.24801 0.0
H951 H 0.85769 0.56644 0.28421 0.0
loop_
_geom_bond_atom_site_label_1
_geom_bond_atom_site_label_2
_geom_bond_distance
_geom_bond_site_symmetry_2
_ccdc_geom_bond_type
C0 N1 1.317 . S
C0 N2 1.348 . S
C0 C3 1.485 . S
N1 C0 1.317 . S
N1 N5 1.370 1_554 S
N2 C0 1.348 . S
N2 C4 1.346 1_554 S
C3 C0 1.485 . S
C3 H7 0.960 . S
C3 H8 0.961 . S
C3 H9 0.960 . S
C4 N2 1.346 1_556 S
C4 N5 1.307 . S
C4 C6 1.486 . S
N5 N1 1.370 1_556 S
N5 C4 1.307 . S
C6 C4 1.486 . S
C6 H10 0.960 . S
C6 H11 0.960 . S
C6 H12 0.959 . S
H7 C3 0.960 . S
H8 C3 0.961 . S
H9 C3 0.960 . S
H10 C6 0.960 . S
H11 C6 0.960 . S
H12 C6 0.959 . S
C13 N14 1.317 . S
C13 N15 1.350 . S
C13 C16 1.485 . S
N14 C13 1.317 . S
N14 N18 1.371 . S
N15 C13 1.350 . S
N15 C17 1.345 1_654 S
C16 C13 1.485 . S
C16 H20 0.960 1_655 S
C16 H21 0.961 . S
C16 H22 0.960 . S
C17 N15 1.345 1_456 S
C17 N18 1.307 1_456 S
C17 C19 1.486 . S
N18 N14 1.371 . S
N18 C17 1.307 1_654 S
C19 C17 1.486 . S
C19 H23 0.960 1_455 S
C19 H24 0.960 . S
C19 H25 0.959 . S
H20 C16 0.960 1_455 S
H21 C16 0.961 . S
H22 C16 0.960 . S
H23 C19 0.960 1_655 S
H24 C19 0.960 . S
H25 C19 0.959 . S
C26 N27 1.317 . S
C26 N28 1.348 . S
C26 C29 1.485 . S
N27 C26 1.317 . S
N27 N31 1.370 1_554 S
N28 C26 1.348 . S
N28 C30 1.346 1_554 S
C29 C26 1.485 . S
C29 H33 0.960 . S
C29 H34 0.961 . S
C29 H35 0.960 . S
C30 N28 1.346 1_556 S
C30 N31 1.307 . S
C30 C32 1.486 . S
N31 N27 1.370 1_556 S
N31 C30 1.307 . S
C32 C30 1.486 . S
C32 H36 0.960 . S
C32 H37 0.960 . S
C32 H38 0.959 . S
H33 C29 0.960 . S
H34 C29 0.961 . S
H35 C29 0.960 . S
H36 C32 0.960 . S
H37 C32 0.960 . S
H38 C32 0.959 . S
C39 N40 1.317 . S
C39 N41 1.348 . S
C39 C42 1.485 . S
N40 C39 1.317 . S
N40 N44 1.370 . S
N41 C39 1.348 . S
N41 C43 1.346 1_554 S
C42 C39 1.485 . S
C42 H46 0.960 . S
C42 H47 0.961 . S
C42 H48 0.960 . S
C43 N41 1.346 1_556 S
C43 N44 1.307 1_556 S
C43 C45 1.486 . S
N44 N40 1.370 . S
N44 C43 1.307 1_554 S
C45 C43 1.486 . S
C45 H49 0.960 . S
C45 H50 0.960 . S
C45 H51 0.959 . S
H46 C42 0.960 . S
H47 C42 0.961 . S
H48 C42 0.960 . S
H49 C45 0.960 . S
H50 C45 0.960 . S
H51 C45 0.959 . S
C52 N53 1.317 . S
C52 N54 1.348 . S
C52 C55 1.485 . S
N53 C52 1.317 . S
N53 N57 1.370 . S
N54 C52 1.348 . S
N54 C56 1.346 . S
C55 C52 1.485 . S
C55 H59 0.960 1_554 S
C55 H60 0.961 . S
C55 H61 0.960 1_554 S
C56 N54 1.346 . S
C56 N57 1.307 . S
C56 C58 1.486 . S
N57 N53 1.370 . S
N57 C56 1.307 . S
C58 C56 1.486 . S
C58 H62 0.960 . S
C58 H63 0.960 . S
C58 H64 0.959 . S
H59 C55 0.960 1_556 S
H60 C55 0.961 . S
H61 C55 0.960 1_556 S
H62 C58 0.960 . S
H63 C58 0.960 . S
H64 C58 0.959 . S
C65 N66 1.317 . S
C65 N67 1.350 . S
C65 C68 1.482 1_554 S
N66 C65 1.317 . S
N66 N70 1.370 . S
N67 C65 1.350 . S
N67 C69 1.345 1_655 S
C68 C65 1.482 1_556 S
C68 H72 0.961 1_655 S
C68 H73 0.961 1_556 S
C68 H74 0.961 . S
C69 N67 1.345 1_455 S
C69 N70 1.307 1_455 S
C69 C71 1.486 . S
N70 N66 1.370 . S
N70 C69 1.307 1_655 S
C71 C69 1.486 . S
C71 H75 0.960 1_455 S
C71 H76 0.960 . S
C71 H77 0.959 . S
H72 C68 0.961 1_455 S
H73 C68 0.961 1_554 S
H74 C68 0.961 . S
H75 C71 0.960 1_655 S
H76 C71 0.960 . S
H77 C71 0.959 . S
C78 N79 1.317 . S
C78 N80 1.348 . S
C78 C81 1.485 . S
N79 C78 1.317 . S
N79 N83 1.370 . S
N80 C78 1.348 . S
N80 C82 1.346 . S
C81 C78 1.485 . S
C81 H85 0.960 1_554 S
C81 H86 0.961 . S
C81 H87 0.960 1_554 S
C82 N80 1.346 . S
C82 N83 1.307 . S
C82 C84 1.486 . S
N83 N79 1.370 . S
N83 C82 1.307 . S
C84 C82 1.486 . S
C84 H88 0.960 . S
C84 H89 0.960 . S
C84 H90 0.959 . S
H85 C81 0.960 1_556 S
H86 C81 0.961 . S
H87 C81 0.960 1_556 S
H88 C84 0.960 . S
H89 C84 0.960 . S
H90 C84 0.959 . S
C91 N92 1.317 . S
C91 N93 1.348 . S
C91 C94 1.484 1_554 S
N92 C91 1.317 . S
N92 N96 1.370 . S
N93 C91 1.348 . S
N93 C95 1.346 . S
C94 C91 1.484 1_556 S
C94 H98 0.960 . S
C94 H99 0.961 1_556 S
C94 H100 0.960 . S
C95 N93 1.346 . S
C95 N96 1.307 . S
C95 C97 1.486 . S
N96 N92 1.370 . S
N96 C95 1.307 . S
C97 C95 1.486 . S
C97 H101 0.960 . S
C97 H102 0.960 . S
C97 H103 0.959 . S
H98 C94 0.960 . S
H99 C94 0.961 1_554 S
H100 C94 0.960 . S
H101 C97 0.960 . S
H102 C97 0.960 . S
H103 C97 0.959 . S
Zn104 O110 1.969 . S
Zn104 O111 1.965 1_655 S
Zn104 O115 2.024 1_655 S
Zn104 O120 1.969 . S
Zn105 O112 1.969 . S
Zn105 O118 1.969 . S
Zn105 O119 1.965 1_455 S
Zn105 O121 2.024 1_455 S
C106 O107 1.229 1_455 S
C106 O115 1.058 . S
O107 C106 1.229 1_655 S
C108 O109 1.229 1_655 S
C108 O121 1.058 . S
O109 C108 1.229 1_455 S
O110 Zn104 1.969 . S
O110 C113 1.267 . S
O111 Zn104 1.965 1_455 S
O111 C122 1.260 . S
O112 Zn105 1.969 . S
O112 C122 1.258 1_565 S
C113 O110 1.267 . S
C113 O114 1.228 1_655 S
O114 C113 1.228 1_455 S
O115 Zn104 2.024 1_455 S
O115 C106 1.058 . S
C116 O117 1.228 1_455 S
C116 O118 1.267 . S
O117 C116 1.228 1_655 S
O118 Zn105 1.969 . S
O118 C116 1.267 . S
O119 Zn105 1.965 1_655 S
O119 C123 1.260 1_565 S
O120 Zn104 1.969 . S
O120 C123 1.258 . S
O121 Zn105 2.024 1_655 S
O121 C108 1.058 . S
C122 O111 1.260 . S
C122 O112 1.258 1_545 S
C123 O119 1.260 1_545 S
C123 O120 1.258 . S
Zn124 O130 1.969 1_545 S
Zn124 O131 1.965 . S
Zn124 O135 2.024 . S
Zn124 O140 1.969 1_545 S
Zn125 O132 1.969 . S
Zn125 O138 1.969 . S
Zn125 O139 1.965 1_545 S
Zn125 O141 2.024 1_545 S
C126 O127 1.229 . S
C126 O135 1.058 . S
O127 C126 1.229 . S
C128 O129 1.229 1_565 S
C128 O141 1.058 . S
O129 C128 1.229 1_545 S
O130 Zn124 1.969 1_565 S
O130 C133 1.267 1_565 S
O131 Zn124 1.965 . S
O131 C142 1.260 . S
O132 Zn125 1.969 . S
O132 C142 1.258 . S
C133 O130 1.267 1_545 S
C133 O134 1.228 . S
O134 C133 1.228 . S
O135 Zn124 2.024 . S
O135 C126 1.058 . S
C136 O137 1.252 . S
C136 O138 1.250 1_565 S
O137 C136 1.252 . S
O138 Zn125 1.969 . S
O138 C136 1.250 1_545 S
O139 Zn125 1.965 1_565 S
O139 C143 1.260 . S
O140 Zn124 1.969 1_565 S
O140 C143 1.258 . S
O141 Zn125 2.024 1_565 S
O141 C128 1.058 . S
C142 O131 1.260 . S
C142 O132 1.258 . S
C143 O139 1.260 . S
C143 O140 1.258 . S
Zn144 O150 1.969 . S
Zn144 O151 1.965 . S
Zn144 O155 2.024 . S
Zn144 O160 1.969 . S
Zn145 O152 1.969 . S
Zn145 O158 1.969 . S
Zn145 O159 1.965 . S
Zn145 O161 2.024 . S
C146 O147 1.229 . S
C146 O155 1.058 . S
O147 C146 1.229 . S
C148 O149 1.229 . S
C148 O161 1.058 . S
O149 C148 1.229 . S
O150 Zn144 1.969 . S
O150 C153 1.267 . S
O151 Zn144 1.965 . S
O151 C162 1.260 . S
O152 Zn145 1.969 . S
O152 C162 1.258 . S
C153 O150 1.267 . S
C153 O154 1.228 . S
O154 C153 1.228 . S
O155 Zn144 2.024 . S
O155 C146 1.058 . S
C156 O157 1.228 . S
C156 O158 1.267 . S
O157 C156 1.228 . S
O158 Zn145 1.969 . S
O158 C156 1.267 . S
O159 Zn145 1.965 . S
O159 C163 1.260 . S
O160 Zn144 1.969 . S
O160 C163 1.258 . S
O161 Zn145 2.024 . S
O161 C148 1.058 . S
C162 O151 1.260 . S
C162 O152 1.258 . S
C163 O159 1.260 . S
C163 O160 1.258 . S
Zn164 O170 1.969 . S
Zn164 O171 1.965 . S
Zn164 O175 2.024 . S
Zn164 O180 1.969 . S
Zn165 O172 1.969 . S
Zn165 O178 1.969 . S
Zn165 O179 1.965 . S
Zn165 O181 2.024 . S
C166 O167 1.229 . S
C166 O175 1.058 . S
O167 C166 1.229 . S
C168 O169 1.229 . S
C168 O181 1.058 . S
O169 C168 1.229 . S
O170 Zn164 1.969 . S
O170 C173 1.267 . S
O171 Zn164 1.965 . S
O171 C182 1.260 1_455 S
O172 Zn165 1.969 . S
O172 C182 1.258 . S
C173 O170 1.267 . S
C173 O174 1.228 . S
O174 C173 1.228 . S
O175 Zn164 2.024 . S
O175 C166 1.058 . S
C176 O177 1.228 . S
C176 O178 1.267 . S
O177 C176 1.228 . S
O178 Zn165 1.969 . S
O178 C176 1.267 . S
O179 Zn165 1.965 . S
O179 C183 1.260 1_655 S
O180 Zn164 1.969 . S
O180 C183 1.258 . S
O181 Zn165 2.024 . S
O181 C168 1.058 . S
C182 O171 1.260 1_655 S
C182 O172 1.258 . S
C183 O179 1.260 1_455 S
C183 O180 1.258 . S
C184 C185 1.391 . S
C184 C186 1.394 . S
C184 H200 0.931 . S
C185 C184 1.391 . S
C185 C189 1.376 . S
C186 C184 1.394 . S
C186 C187 1.369 . S
C186 C190 1.531 . S
C187 C186 1.369 . S
C187 C188 1.410 . S
C187 C195 1.503 . S
C188 C187 1.410 . S
C188 C189 1.392 . S
C188 C191 1.511 . S
C189 C185 1.376 . S
C189 C188 1.392 . S
C189 H201 0.929 . S
C190 C186 1.531 . S
C190 H202 0.960 . S
C190 H203 0.962 1_545 S
C190 H204 0.960 . S
C191 C188 1.511 . S
C191 H205 0.961 . S
C191 H206 0.961 . S
C191 H207 0.961 . S
C192 C193 1.370 . S
C192 C194 1.363 . S
C192 H208 0.931 1_545 S
C193 C192 1.370 . S
C193 C197 1.408 . S
C194 C192 1.363 . S
C194 C195 1.370 . S
C194 C198 1.524 1_545 S
C195 C187 1.503 . S
C195 C194 1.370 . S
C195 C196 1.403 . S
C196 C195 1.403 . S
C196 C197 1.404 . S
C196 C199 1.539 . S
C197 C193 1.408 . S
C197 C196 1.404 . S
C197 H209 0.930 . S
C198 C194 1.524 1_565 S
C198 H210 0.956 . S
C198 H211 0.961 1_565 S
C198 H212 0.961 . S
C199 C196 1.539 . S
C199 H213 0.958 . S
C199 H214 0.961 . S
C199 H215 0.960 . S
H200 C184 0.931 . S
H201 C189 0.929 . S
H202 C190 0.960 . S
H203 C190 0.962 1_565 S
H204 C190 0.960 . S
H205 C191 0.961 . S
H206 C191 0.961 . S
H207 C191 0.961 . S
H208 C192 0.931 1_565 S
H209 C197 0.930 . S
H210 C198 0.956 . S
H211 C198 0.961 1_545 S
H212 C198 0.961 . S
H213 C199 0.958 . S
H214 C199 0.961 . S
H215 C199 0.960 . S
C216 C217 1.391 . S
C216 C218 1.394 . S
C216 H232 0.931 . S
C217 C216 1.391 . S
C217 C221 1.376 . S
C218 C216 1.394 . S
C218 C219 1.369 . S
C218 C222 1.531 . S
C219 C218 1.369 . S
C219 C220 1.410 . S
C219 C227 1.503 . S
C220 C219 1.410 . S
C220 C221 1.392 . S
C220 C223 1.511 . S
C221 C217 1.376 . S
C221 C220 1.392 . S
C221 H233 0.929 . S
C222 C218 1.531 . S
C222 H234 0.960 . S
C222 H235 0.962 . S
C222 H236 0.960 . S
C223 C220 1.511 . S
C223 H237 0.961 . S
C223 H238 0.961 . S
C223 H239 0.961 . S
C224 C225 1.370 . S
C224 C226 1.363 . S
C224 H240 0.931 . S
C225 C224 1.370 . S
C225 C229 1.408 . S
C226 C224 1.363 . S
C226 C227 1.370 . S
C226 C230 1.524 . S
C227 C219 1.503 . S
C227 C226 1.370 . S
C227 C228 1.403 . S
C228 C227 1.403 . S
C228 C229 1.404 . S
C228 C231 1.539 . S
C229 C225 1.408 . S
C229 C228 1.404 . S
C229 H241 0.930 . S
C230 C226 1.524 . S
C230 H242 0.956 . S
C230 H243 0.961 . S
C230 H244 0.961 . S
C231 C228 1.539 . S
C231 H245 0.958 . S
C231 H246 0.961 . S
C231 H247 0.960 . S
H232 C216 0.931 . S
H233 C221 0.929 . S
H234 C222 0.960 . S
H235 C222 0.962 . S
H236 C222 0.960 . S
H237 C223 0.961 . S
H238 C223 0.961 . S
H239 C223 0.961 . S
H240 C224 0.931 . S
H241 C229 0.930 . S
H242 C230 0.956 . S
H243 C230 0.961 . S
H244 C230 0.961 . S
H245 C231 0.958 . S
H246 C231 0.961 . S
H247 C231 0.960 . S
C248 C249 1.391 . S
C248 C250 1.394 . S
C248 H264 0.931 . S
C249 C248 1.391 . S
C249 C253 1.376 . S
C250 C248 1.394 . S
C250 C251 1.369 . S
C250 C254 1.531 . S
C251 C250 1.369 . S
C251 C252 1.410 . S
C251 C259 1.503 . S
C252 C251 1.410 . S
C252 C253 1.392 . S
C252 C255 1.511 . S
C253 C249 1.376 . S
C253 C252 1.392 . S
C253 H265 0.929 . S
C254 C250 1.531 . S
C254 H266 0.960 . S
C254 H267 0.962 . S
C254 H268 0.960 . S
C255 C252 1.511 . S
C255 H269 0.961 . S
C255 H270 0.961 . S
C255 H271 0.961 . S
C256 C257 1.370 . S
C256 C258 1.363 . S
C256 H272 0.931 . S
C257 C256 1.370 . S
C257 C261 1.408 . S
C258 C256 1.363 . S
C258 C259 1.370 . S
C258 C262 1.524 . S
C259 C251 1.503 . S
C259 C258 1.370 . S
C259 C260 1.403 . S
C260 C259 1.403 . S
C260 C261 1.404 . S
C260 C263 1.539 . S
C261 C257 1.408 . S
C261 C260 1.404 . S
C261 H273 0.930 . S
C262 C258 1.524 . S
C262 H274 0.956 . S
C262 H275 0.961 . S
C262 H276 0.961 . S
C263 C260 1.539 . S
C263 H277 0.958 . S
C263 H278 0.961 . S
C263 H279 0.960 . S
H264 C248 0.931 . S
H265 C253 0.929 . S
H266 C254 0.960 . S
H267 C254 0.962 . S
H268 C254 0.960 . S
H269 C255 0.961 . S
H270 C255 0.961 . S
H271 C255 0.961 . S
H272 C256 0.931 . S
H273 C261 0.930 . S
H274 C262 0.956 . S
H275 C262 0.961 . S
H276 C262 0.961 . S
H277 C263 0.958 . S
H278 C263 0.961 . S
H279 C263 0.960 . S
C280 C281 1.391 . S
C280 C282 1.394 . S
C280 H296 0.931 . S
C281 C280 1.391 . S
C281 C285 1.376 1_455 S
C282 C280 1.394 . S
C282 C283 1.369 . S
C282 C286 1.531 . S
C283 C282 1.369 . S
C283 C284 1.410 1_455 S
C283 C291 1.503 . S
C284 C283 1.410 1_655 S
C284 C285 1.392 . S
C284 C287 1.511 . S
C285 C281 1.376 1_655 S
C285 C284 1.392 . S
C285 H297 0.929 . S
C286 C282 1.531 . S
C286 H298 0.960 . S
C286 H299 0.962 . S
C286 H300 0.960 . S
C287 C284 1.511 . S
C287 H301 0.961 . S
C287 H302 0.961 . S
C287 H303 0.961 . S
C288 C289 1.378 . S
C288 C290 1.363 . S
C288 H304 0.931 . S
C289 C288 1.378 . S
C289 C293 1.399 1_655 S
C290 C288 1.363 . S
C290 C291 1.370 1_655 S
C290 C294 1.524 . S
C291 C283 1.503 . S
C291 C290 1.370 1_455 S
C291 C292 1.403 . S
C292 C291 1.403 . S
C292 C293 1.404 . S
C292 C295 1.539 . S
C293 C289 1.399 1_455 S
C293 C292 1.404 . S
C293 H305 0.930 . S
C294 C290 1.524 . S
C294 H306 0.956 . S
C294 H307 0.961 . S
C294 H308 0.961 . S
C295 C292 1.539 . S
C295 H309 0.958 . S
C295 H310 0.961 . S
C295 H311 0.960 . S
H296 C280 0.931 . S
H297 C285 0.929 . S
H298 C286 0.960 . S
H299 C286 0.962 . S
H300 C286 0.960 . S
H301 C287 0.961 . S
H302 C287 0.961 . S
H303 C287 0.961 . S
H304 C288 0.931 . S
H305 C293 0.930 . S
H306 C294 0.956 . S
H307 C294 0.961 . S
H308 C294 0.961 . S
H309 C295 0.958 . S
H310 C295 0.961 . S
H311 C295 0.960 . S
C312 C313 1.391 . S
C312 C314 1.394 . S
C312 H328 0.931 . S
C313 C312 1.391 . S
C313 C317 1.376 1_556 S
C314 C312 1.394 . S
C314 C315 1.369 . S
C314 C318 1.531 . S
C315 C314 1.369 . S
C315 C316 1.410 . S
C315 C323 1.503 . S
C316 C315 1.410 . S
C316 C317 1.392 1_556 S
C316 C319 1.511 1_556 S
C317 C313 1.376 1_554 S
C317 C316 1.392 1_554 S
C317 H329 0.929 . S
C318 C314 1.531 . S
C318 H330 0.960 1_565 S
C318 H331 0.962 . S
C318 H332 0.950 1_565 S
C319 C316 1.511 1_554 S
C319 H333 0.961 . S
C319 H334 0.961 1_554 S
C319 H335 0.961 . S
C320 C321 1.370 . S
C320 C322 1.363 . S
C320 H336 0.931 . S
C321 C320 1.370 . S
C321 C325 1.408 1_565 S
C322 C320 1.363 . S
C322 C323 1.370 . S
C322 C326 1.524 . S
C323 C315 1.503 . S
C323 C322 1.370 . S
C323 C324 1.403 1_565 S
C324 C323 1.403 1_545 S
C324 C325 1.404 . S
C324 C327 1.539 . S
C325 C321 1.408 1_545 S
C325 C324 1.404 . S
C325 H337 0.930 . S
C326 C322 1.524 . S
C326 H338 0.956 . S
C326 H339 0.961 . S
C326 H340 0.961 . S
C327 C324 1.539 . S
C327 H341 0.958 . S
C327 H342 0.961 . S
C327 H343 0.960 . S
H328 C312 0.931 . S
H329 C317 0.929 . S
H330 C318 0.960 1_545 S
H331 C318 0.962 . S
H332 C318 0.950 1_545 S
H333 C319 0.961 . S
H334 C319 0.961 1_556 S
H335 C319 0.961 . S
H336 C320 0.931 . S
H337 C325 0.930 . S
H338 C326 0.956 . S
H339 C326 0.961 . S
H340 C326 0.961 . S
H341 C327 0.958 . S
H342 C327 0.961 . S
H343 C327 0.960 . S
C344 C345 1.391 1_554 S
C344 C346 1.394 1_554 S
C344 H360 0.931 . S
C345 C344 1.391 1_556 S
C345 C349 1.376 . S
C346 C344 1.394 1_556 S
C346 C347 1.369 . S
C346 C350 1.533 . S
C347 C346 1.369 . S
C347 C348 1.410 . S
C347 C355 1.503 . S
C348 C347 1.410 . S
C348 C349 1.392 . S
C348 C351 1.511 . S
C349 C345 1.376 . S
C349 C348 1.392 . S
C349 H361 0.929 . S
C350 C346 1.533 . S
C350 H362 0.963 . S
C350 H363 0.964 . S
C350 H364 0.953 1_556 S
C351 C348 1.511 . S
C351 H365 0.961 . S
C351 H366 0.961 . S
C351 H367 0.961 . S
C352 C353 1.370 . S
C352 C354 1.363 . S
C352 H368 0.931 . S
C353 C352 1.370 . S
C353 C357 1.408 . S
C354 C352 1.363 . S
C354 C355 1.370 . S
C354 C358 1.524 . S
C355 C347 1.503 . S
C355 C354 1.370 . S
C355 C356 1.403 . S
C356 C355 1.403 . S
C356 C357 1.404 . S
C356 C359 1.539 . S
C357 C353 1.408 . S
C357 C356 1.404 . S
C357 H369 0.930 . S
C358 C354 1.524 . S
C358 H370 0.956 . S
C358 H371 0.961 . S
C358 H372 0.961 . S
C359 C356 1.539 . S
C359 H373 0.958 . S
C359 H374 0.961 . S
C359 H375 0.960 . S
H360 C344 0.931 . S
H361 C349 0.929 . S
H362 C350 0.963 . S
H363 C350 0.964 . S
H364 C350 0.953 1_554 S
H365 C351 0.961 . S
H366 C351 0.961 . S
H367 C351 0.961 . S
H368 C352 0.931 . S
H369 C357 0.930 . S
H370 C358 0.956 . S
H371 C358 0.961 . S
H372 C358 0.961 . S
H373 C359 0.958 . S
H374 C359 0.961 . S
H375 C359 0.960 . S
C376 C377 1.391 . S
C376 C378 1.394 . S
C376 H392 0.931 1_556 S
C377 C376 1.391 . S
C377 C381 1.376 . S
C378 C376 1.394 . S
C378 C379 1.369 . S
C378 C382 1.531 . S
C379 C378 1.369 . S
C379 C380 1.410 . S
C379 C387 1.503 . S
C380 C379 1.410 . S
C380 C381 1.392 . S
C380 C383 1.511 . S
C381 C377 1.376 . S
C381 C380 1.392 . S
C381 H393 0.929 . S
C382 C378 1.531 . S
C382 H394 0.960 . S
C382 H395 0.962 . S
C382 H396 0.960 . S
C383 C380 1.511 . S
C383 H397 0.961 . S
C383 H398 0.961 . S
C383 H399 0.961 . S
C384 C385 1.370 . S
C384 C386 1.363 . S
C384 H400 0.931 . S
C385 C384 1.370 . S
C385 C389 1.408 . S
C386 C384 1.363 . S
C386 C387 1.370 . S
C386 C390 1.524 . S
C387 C379 1.503 . S
C387 C386 1.370 . S
C387 C388 1.403 . S
C388 C387 1.403 . S
C388 C389 1.404 . S
C388 C391 1.539 . S
C389 C385 1.408 . S
C389 C388 1.404 . S
C389 H401 0.930 . S
C390 C386 1.524 . S
C390 H402 0.956 . S
C390 H403 0.961 . S
C390 H404 0.961 . S
C391 C388 1.539 . S
C391 H405 0.958 . S
C391 H406 0.961 . S
C391 H407 0.960 . S
H392 C376 0.931 1_554 S
H393 C381 0.929 . S
H394 C382 0.960 . S
H395 C382 0.962 . S
H396 C382 0.960 . S
H397 C383 0.961 . S
H398 C383 0.961 . S
H399 C383 0.961 . S
H400 C384 0.931 . S
H401 C389 0.930 . S
H402 C390 0.956 . S
H403 C390 0.961 . S
H404 C390 0.961 . S
H405 C391 0.958 . S
H406 C391 0.961 . S
H407 C391 0.960 . S
C408 C409 1.391 1_455 S
C408 C410 1.394 . S
C408 H424 0.931 1_556 S
C409 C408 1.391 1_655 S
C409 C413 1.376 . S
C410 C408 1.394 . S
C410 C411 1.369 1_455 S
C410 C414 1.531 . S
C411 C410 1.369 1_655 S
C411 C412 1.410 . S
C411 C419 1.503 . S
C412 C411 1.410 . S
C412 C413 1.392 . S
C412 C415 1.511 . S
C413 C409 1.376 . S
C413 C412 1.392 . S
C413 H425 0.929 . S
C414 C410 1.531 . S
C414 H426 0.960 . S
C414 H427 0.962 . S
C414 H428 0.960 1_556 S
C415 C412 1.511 . S
C415 H429 0.961 . S
C415 H430 0.961 . S
C415 H431 0.961 . S
C416 C417 1.376 . S
C416 C418 1.363 . S
C416 H432 0.931 . S
C417 C416 1.376 . S
C417 C421 1.402 1_455 S
C418 C416 1.363 . S
C418 C419 1.370 1_455 S
C418 C422 1.524 . S
C419 C411 1.503 . S
C419 C418 1.370 1_655 S
C419 C420 1.403 . S
C420 C419 1.403 . S
C420 C421 1.404 . S
C420 C423 1.539 . S
C421 C417 1.402 1_655 S
C421 C420 1.404 . S
C421 H433 0.930 . S
C422 C418 1.524 . S
C422 H434 0.956 . S
C422 H435 0.961 . S
C422 H436 0.961 . S
C423 C420 1.539 . S
C423 H437 0.958 . S
C423 H438 0.961 . S
C423 H439 0.960 . S
H424 C408 0.931 1_554 S
H425 C413 0.929 . S
H426 C414 0.960 . S
H427 C414 0.962 . S
H428 C414 0.960 1_554 S
H429 C415 0.961 . S
H430 C415 0.961 . S
H431 C415 0.961 . S
H432 C416 0.931 . S
H433 C421 0.930 . S
H434 C422 0.956 . S
H435 C422 0.961 . S
H436 C422 0.961 . S
H437 C423 0.958 . S
H438 C423 0.961 . S
H439 C423 0.960 . S
C440 C441 1.391 1_455 S
C440 C442 1.394 . S
C440 H456 0.931 . S
C441 C440 1.391 1_655 S
C441 C445 1.376 . S
C442 C440 1.394 . S
C442 C443 1.369 1_455 S
C442 C446 1.531 . S
C443 C442 1.369 1_655 S
C443 C444 1.410 . S
C443 C451 1.503 . S
C444 C443 1.410 . S
C444 C445 1.392 . S
C444 C447 1.511 . S
C445 C441 1.376 . S
C445 C444 1.392 . S
C445 H457 0.929 . S
C446 C442 1.531 . S
C446 H458 0.960 . S
C446 H459 0.962 . S
C446 H460 0.960 . S
C447 C444 1.511 . S
C447 H461 0.961 . S
C447 H462 0.961 . S
C447 H463 0.961 . S
C448 C449 1.370 1_455 S
C448 C450 1.363 . S
C448 H464 0.931 . S
C449 C448 1.370 1_655 S
C449 C453 1.408 . S
C450 C448 1.363 . S
C450 C451 1.370 1_455 S
C450 C454 1.524 . S
C451 C443 1.503 . S
C451 C450 1.370 1_655 S
C451 C452 1.403 . S
C452 C451 1.403 . S
C452 C453 1.404 . S
C452 C455 1.539 . S
C453 C449 1.408 . S
C453 C452 1.404 . S
C453 H465 0.930 . S
C454 C450 1.524 . S
C454 H466 0.956 . S
C454 H467 0.961 . S
C454 H468 0.961 . S
C455 C452 1.539 . S
C455 H469 0.958 . S
C455 H470 0.961 . S
C455 H471 0.960 . S
H456 C440 0.931 . S
H457 C445 0.929 . S
H458 C446 0.960 . S
H459 C446 0.962 . S
H460 C446 0.960 . S
H461 C447 0.961 . S
H462 C447 0.961 . S
H463 C447 0.961 . S
H464 C448 0.931 . S
H465 C453 0.930 . S
H466 C454 0.956 . S
H467 C454 0.961 . S
H468 C454 0.961 . S
H469 C455 0.958 . S
H470 C455 0.961 . S
H471 C455 0.960 . S
C472 C473 1.391 . S
C472 C474 1.394 . S
C472 H488 0.931 . S
C473 C472 1.391 . S
C473 C477 1.376 . S
C474 C472 1.394 . S
C474 C475 1.369 . S
C474 C478 1.531 . S
C475 C474 1.369 . S
C475 C476 1.410 . S
C475 C483 1.503 . S
C476 C475 1.410 . S
C476 C477 1.392 . S
C476 C479 1.511 1_545 S
C477 C473 1.376 . S
C477 C476 1.392 . S
C477 H489 0.929 . S
C478 C474 1.531 . S
C478 H490 0.960 . S
C478 H491 0.962 . S
C478 H492 0.960 . S
C479 C476 1.511 1_565 S
C479 H493 0.961 . S
C479 H494 0.961 . S
C479 H495 0.961 . S
C480 C481 1.370 . S
C480 C482 1.363 . S
C480 H496 0.931 . S
C481 C480 1.370 . S
C481 C485 1.408 . S
C482 C480 1.363 . S
C482 C483 1.370 . S
C482 C486 1.524 . S
C483 C475 1.503 . S
C483 C482 1.370 . S
C483 C484 1.403 . S
C484 C483 1.403 . S
C484 C485 1.404 . S
C484 C487 1.539 . S
C485 C481 1.408 . S
C485 C484 1.404 . S
C485 H497 0.930 1_545 S
C486 C482 1.524 . S
C486 H498 0.956 . S
C486 H499 0.961 . S
C486 H500 0.961 . S
C487 C484 1.539 . S
C487 H501 0.958 . S
C487 H502 0.961 1_545 S
C487 H503 0.960 . S
H488 C472 0.931 . S
H489 C477 0.929 . S
H490 C478 0.960 . S
H491 C478 0.962 . S
H492 C478 0.960 . S
H493 C479 0.961 . S
H494 C479 0.961 . S
H495 C479 0.961 . S
H496 C480 0.931 . S
H497 C485 0.930 1_565 S
H498 C486 0.956 . S
H499 C486 0.961 . S
H500 C486 0.961 . S
H501 C487 0.958 . S
H502 C487 0.961 1_565 S
H503 C487 0.960 . S
C504 C505 1.391 . S
C504 C506 1.394 . S
C504 H520 0.931 . S
C505 C504 1.391 . S
C505 C509 1.376 . S
C506 C504 1.394 . S
C506 C507 1.369 . S
C506 C510 1.531 . S
C507 C506 1.369 . S
C507 C508 1.410 . S
C507 C515 1.503 . S
C508 C507 1.410 . S
C508 C509 1.392 . S
C508 C511 1.511 . S
C509 C505 1.376 . S
C509 C508 1.392 . S
C509 H521 0.929 . S
C510 C506 1.531 . S
C510 H522 0.960 . S
C510 H523 0.962 . S
C510 H524 0.960 . S
C511 C508 1.511 . S
C511 H525 0.961 . S
C511 H526 0.961 . S
C511 H527 0.961 . S
C512 C513 1.370 . S
C512 C514 1.363 . S
C512 H528 0.931 . S
C513 C512 1.370 . S
C513 C517 1.408 . S
C514 C512 1.363 . S
C514 C515 1.370 . S
C514 C518 1.524 . S
C515 C507 1.503 . S
C515 C514 1.370 . S
C515 C516 1.403 . S
C516 C515 1.403 . S
C516 C517 1.404 . S
C516 C519 1.539 . S
C517 C513 1.408 . S
C517 C516 1.404 . S
C517 H529 0.930 . S
C518 C514 1.524 . S
C518 H530 0.956 . S
C518 H531 0.961 . S
C518 H532 0.961 . S
C519 C516 1.539 . S
C519 H533 0.958 . S
C519 H534 0.961 . S
C519 H535 0.960 . S
H520 C504 0.931 . S
H521 C509 0.929 . S
H522 C510 0.960 . S
H523 C510 0.962 . S
H524 C510 0.960 . S
H525 C511 0.961 . S
H526 C511 0.961 . S
H527 C511 0.961 . S
H528 C512 0.931 . S
H529 C517 0.930 . S
H530 C518 0.956 . S
H531 C518 0.961 . S
H532 C518 0.961 . S
H533 C519 0.958 . S
H534 C519 0.961 . S
H535 C519 0.960 . S
C536 C537 1.391 . S
C536 C538 1.394 . S
C536 H552 0.931 . S
C537 C536 1.391 . S
C537 C541 1.376 . S
C538 C536 1.394 . S
C538 C539 1.369 . S
C538 C542 1.531 . S
C539 C538 1.369 . S
C539 C540 1.410 . S
C539 C547 1.503 . S
C540 C539 1.410 . S
C540 C541 1.392 . S
C540 C543 1.511 . S
C541 C537 1.376 . S
C541 C540 1.392 . S
C541 H553 0.929 . S
C542 C538 1.531 . S
C542 H554 0.960 . S
C542 H555 0.962 . S
C542 H556 0.960 . S
C543 C540 1.511 . S
C543 H557 0.961 . S
C543 H558 0.961 . S
C543 H559 0.961 . S
C544 C545 1.370 . S
C544 C546 1.363 . S
C544 H560 0.931 . S
C545 C544 1.370 . S
C545 C549 1.408 . S
C546 C544 1.363 . S
C546 C547 1.370 . S
C546 C550 1.524 . S
C547 C539 1.503 . S
C547 C546 1.370 . S
C547 C548 1.403 . S
C548 C547 1.403 . S
C548 C549 1.404 . S
C548 C551 1.539 . S
C549 C545 1.408 . S
C549 C548 1.404 . S
C549 H561 0.930 . S
C550 C546 1.524 . S
C550 H562 0.956 . S
C550 H563 0.961 . S
C550 H564 0.961 . S
C551 C548 1.539 . S
C551 H565 0.958 . S
C551 H566 0.961 . S
C551 H567 0.960 . S
H552 C536 0.931 . S
H553 C541 0.929 . S
H554 C542 0.960 . S
H555 C542 0.962 . S
H556 C542 0.960 . S
H557 C543 0.961 . S
H558 C543 0.961 . S
H559 C543 0.961 . S
H560 C544 0.931 . S
H561 C549 0.930 . S
H562 C550 0.956 . S
H563 C550 0.961 . S
H564 C550 0.961 . S
H565 C551 0.958 . S
H566 C551 0.961 . S
H567 C551 0.960 . S
C568 C569 1.391 1_554 S
C568 C570 1.394 1_554 S
C568 H584 0.933 . S
C569 C568 1.391 1_556 S
C569 C573 1.376 . S
C570 C568 1.394 1_556 S
C570 C571 1.369 . S
C570 C574 1.531 1_556 S
C571 C570 1.369 . S
C571 C572 1.410 . S
C571 C579 1.503 . S
C572 C571 1.410 . S
C572 C573 1.392 . S
C572 C575 1.511 . S
C573 C569 1.376 . S
C573 C572 1.392 . S
C573 H585 0.929 . S
C574 C570 1.531 1_554 S
C574 H586 0.960 . S
C574 H587 0.962 1_455 S
C574 H588 0.960 . S
C575 C572 1.511 . S
C575 H589 0.961 . S
C575 H590 0.961 . S
C575 H591 0.961 . S
C576 C577 1.370 1_655 S
C576 C578 1.363 . S
C576 H592 0.931 . S
C577 C576 1.370 1_455 S
C577 C581 1.408 . S
C578 C576 1.363 . S
C578 C579 1.370 1_655 S
C578 C582 1.524 . S
C579 C571 1.503 . S
C579 C578 1.370 1_455 S
C579 C580 1.403 . S
C580 C579 1.403 . S
C580 C581 1.404 . S
C580 C583 1.539 . S
C581 C577 1.408 . S
C581 C580 1.404 . S
C581 H593 0.930 . S
C582 C578 1.524 . S
C582 H594 0.956 . S
C582 H595 0.961 . S
C582 H596 0.961 . S
C583 C580 1.539 . S
C583 H597 0.958 . S
C583 H598 0.961 . S
C583 H599 0.960 . S
H584 C568 0.933 . S
H585 C573 0.929 . S
H586 C574 0.960 . S
H587 C574 0.962 1_655 S
H588 C574 0.960 . S
H589 C575 0.961 . S
H590 C575 0.961 . S
H591 C575 0.961 . S
H592 C576 0.931 . S
H593 C581 0.930 . S
H594 C582 0.956 . S
H595 C582 0.961 . S
H596 C582 0.961 . S
H597 C583 0.958 . S
H598 C583 0.961 . S
H599 C583 0.960 . S
C600 C601 1.391 1_554 S
C600 C602 1.394 1_554 S
C600 H616 0.931 . S
C601 C600 1.391 1_556 S
C601 C605 1.376 . S
C602 C600 1.394 1_556 S
C602 C603 1.369 . S
C602 C606 1.531 1_566 S
C603 C602 1.369 . S
C603 C604 1.410 . S
C603 C611 1.503 . S
C604 C603 1.410 . S
C604 C605 1.392 . S
C604 C607 1.511 . S
C605 C601 1.376 . S
C605 C604 1.392 . S
C605 H617 0.929 . S
C606 C602 1.531 1_544 S
C606 H618 0.960 1_554 S
C606 H619 0.962 . S
C606 H620 0.960 . S
C607 C604 1.511 . S
C607 H621 0.961 . S
C607 H622 0.961 . S
C607 H623 0.961 . S
C608 C609 1.370 1_565 S
C608 C610 1.363 . S
C608 H624 0.931 . S
C609 C608 1.370 1_545 S
C609 C613 1.408 . S
C610 C608 1.363 . S
C610 C611 1.370 . S
C610 C614 1.524 . S
C611 C603 1.503 . S
C611 C610 1.370 . S
C611 C612 1.403 1_565 S
C612 C611 1.403 1_545 S
C612 C613 1.404 . S
C612 C615 1.539 . S
C613 C609 1.408 . S
C613 C612 1.404 . S
C613 H625 0.930 . S
C614 C610 1.524 . S
C614 H626 0.956 . S
C614 H627 0.961 . S
C614 H628 0.961 . S
C615 C612 1.539 . S
C615 H629 0.958 . S
C615 H630 0.961 . S
C615 H631 0.960 . S
H616 C600 0.931 . S
H617 C605 0.929 . S
H618 C606 0.960 1_556 S
H619 C606 0.962 . S
H620 C606 0.960 . S
H621 C607 0.961 . S
H622 C607 0.961 . S
H623 C607 0.961 . S
H624 C608 0.931 . S
H625 C613 0.930 . S
H626 C614 0.956 . S
H627 C614 0.961 . S
H628 C614 0.961 . S
H629 C615 0.958 . S
H630 C615 0.961 . S
H631 C615 0.960 . S
C632 C633 1.391 . S
C632 C634 1.394 . S
C632 H648 0.931 . S
C633 C632 1.391 . S
C633 C637 1.376 1_556 S
C634 C632 1.394 . S
C634 C635 1.369 . S
C634 C638 1.531 . S
C635 C634 1.369 . S
C635 C636 1.410 . S
C635 C643 1.503 . S
C636 C635 1.410 . S
C636 C637 1.392 1_556 S
C636 C639 1.511 . S
C637 C633 1.376 1_554 S
C637 C636 1.392 1_554 S
C637 H649 0.929 . S
C638 C634 1.531 . S
C638 H650 0.960 . S
C638 H651 0.962 . S
C638 H652 0.960 . S
C639 C636 1.511 . S
C639 H653 0.961 1_556 S
C639 H654 0.961 . S
C639 H655 0.961 . S
C640 C641 1.370 . S
C640 C642 1.363 . S
C640 H656 0.931 . S
C641 C640 1.370 . S
C641 C645 1.408 . S
C642 C640 1.363 . S
C642 C643 1.370 . S
C642 C646 1.524 . S
C643 C635 1.503 . S
C643 C642 1.370 . S
C643 C644 1.403 . S
C644 C643 1.403 . S
C644 C645 1.404 . S
C644 C647 1.539 . S
C645 C641 1.408 . S
C645 C644 1.404 . S
C645 H657 0.930 . S
C646 C642 1.524 . S
C646 H658 0.956 . S
C646 H659 0.961 1_556 S
C646 H660 0.961 . S
C647 C644 1.539 . S
C647 H661 0.958 . S
C647 H662 0.961 . S
C647 H663 0.960 . S
H648 C632 0.931 . S
H649 C637 0.929 . S
H650 C638 0.960 . S
H651 C638 0.962 . S
H652 C638 0.960 . S
H653 C639 0.961 1_554 S
H654 C639 0.961 . S
H655 C639 0.961 . S
H656 C640 0.931 . S
H657 C645 0.930 . S
H658 C646 0.956 . S
H659 C646 0.961 1_554 S
H660 C646 0.961 . S
H661 C647 0.958 . S
H662 C647 0.961 . S
H663 C647 0.960 . S
C664 C665 1.391 . S
C664 C666 1.394 . S
C664 H680 0.931 . S
C665 C664 1.391 . S
C665 C669 1.376 . S
C666 C664 1.394 . S
C666 C667 1.369 . S
C666 C670 1.531 . S
C667 C666 1.369 . S
C667 C668 1.410 . S
C667 C675 1.503 . S
C668 C667 1.410 . S
C668 C669 1.392 . S
C668 C671 1.511 . S
C669 C665 1.376 . S
C669 C668 1.392 . S
C669 H681 0.929 1_556 S
C670 C666 1.531 . S
C670 H682 0.960 . S
C670 H683 0.962 . S
C670 H684 0.960 . S
C671 C668 1.511 . S
C671 H685 0.961 1_556 S
C671 H686 0.961 . S
C671 H687 0.961 . S
C672 C673 1.370 . S
C672 C674 1.363 . S
C672 H688 0.931 . S
C673 C672 1.370 . S
C673 C677 1.408 . S
C674 C672 1.363 . S
C674 C675 1.370 . S
C674 C678 1.524 . S
C675 C667 1.503 . S
C675 C674 1.370 . S
C675 C676 1.403 . S
C676 C675 1.403 . S
C676 C677 1.404 . S
C676 C679 1.539 . S
C677 C673 1.408 . S
C677 C676 1.404 . S
C677 H689 0.930 . S
C678 C674 1.524 . S
C678 H690 0.956 . S
C678 H691 0.961 1_556 S
C678 H692 0.961 . S
C679 C676 1.539 . S
C679 H693 0.958 . S
C679 H694 0.961 . S
C679 H695 0.960 . S
H680 C664 0.931 . S
H681 C669 0.929 1_554 S
H682 C670 0.960 . S
H683 C670 0.962 . S
H684 C670 0.960 . S
H685 C671 0.961 1_554 S
H686 C671 0.961 . S
H687 C671 0.961 . S
H688 C672 0.931 . S
H689 C677 0.930 . S
H690 C678 0.956 . S
H691 C678 0.961 1_554 S
H692 C678 0.961 . S
H693 C679 0.958 . S
H694 C679 0.961 . S
H695 C679 0.960 . S
C696 C697 1.391 1_656 S
C696 C698 1.394 . S
C696 H712 0.931 . S
C697 C696 1.391 1_454 S
C697 C701 1.376 . S
C698 C696 1.394 . S
C698 C699 1.369 1_655 S
C698 C702 1.531 . S
C699 C698 1.369 1_455 S
C699 C700 1.410 . S
C699 C707 1.503 . S
C700 C699 1.410 . S
C700 C701 1.392 1_556 S
C700 C703 1.511 . S
C701 C697 1.376 . S
C701 C700 1.392 1_554 S
C701 H713 0.929 . S
C702 C698 1.531 . S
C702 H714 0.960 . S
C702 H715 0.962 . S
C702 H716 0.960 . S
C703 C700 1.511 . S
C703 H717 0.961 1_556 S
C703 H718 0.961 . S
C703 H719 0.961 . S
C704 C705 1.370 . S
C704 C706 1.364 . S
C704 H720 0.931 1_455 S
C705 C704 1.370 . S
C705 C709 1.408 . S
C706 C704 1.364 . S
C706 C707 1.375 . S
C706 C710 1.519 1_456 S
C707 C699 1.503 . S
C707 C706 1.375 . S
C707 C708 1.403 . S
C708 C707 1.403 . S
C708 C709 1.404 . S
C708 C711 1.539 . S
C709 C705 1.408 . S
C709 C708 1.404 . S
C709 H721 0.930 . S
C710 C706 1.519 1_654 S
C710 H722 0.956 . S
C710 H723 0.961 1_655 S
C710 H724 0.961 . S
C711 C708 1.539 . S
C711 H725 0.958 . S
C711 H726 0.961 . S
C711 H727 0.960 . S
H712 C696 0.931 . S
H713 C701 0.929 . S
H714 C702 0.960 . S
H715 C702 0.962 . S
H716 C702 0.960 . S
H717 C703 0.961 1_554 S
H718 C703 0.961 . S
H719 C703 0.961 . S
H720 C704 0.931 1_655 S
H721 C709 0.930 . S
H722 C710 0.956 . S
H723 C710 0.961 1_455 S
H724 C710 0.961 . S
H725 C711 0.958 . S
H726 C711 0.961 . S
H727 C711 0.960 . S
C728 C729 1.391 1_556 S
C728 C730 1.394 . S
C728 H744 0.931 . S
C729 C728 1.391 1_554 S
C729 C733 1.376 . S
C730 C728 1.394 . S
C730 C731 1.369 . S
C730 C734 1.531 . S
C731 C730 1.369 . S
C731 C732 1.410 . S
C731 C739 1.503 . S
C732 C731 1.410 . S
C732 C733 1.392 1_556 S
C732 C735 1.511 1_556 S
C733 C729 1.376 . S
C733 C732 1.392 1_554 S
C733 H745 0.929 . S
C734 C730 1.531 . S
C734 H746 0.960 . S
C734 H747 0.962 1_545 S
C734 H748 0.960 1_545 S
C735 C732 1.511 1_554 S
C735 H749 0.961 . S
C735 H750 0.961 . S
C735 H751 0.961 1_554 S
C736 C737 1.370 . S
C736 C738 1.363 . S
C736 H752 0.931 . S
C737 C736 1.370 . S
C737 C741 1.408 . S
C738 C736 1.363 . S
C738 C739 1.370 . S
C738 C742 1.524 1_556 S
C739 C731 1.503 . S
C739 C738 1.370 . S
C739 C740 1.403 . S
C740 C739 1.403 . S
C740 C741 1.404 . S
C740 C743 1.539 . S
C741 C737 1.408 . S
C741 C740 1.404 . S
C741 H753 0.930 . S
C742 C738 1.524 1_554 S
C742 H754 0.956 1_545 S
C742 H755 0.961 . S
C742 H756 0.961 1_545 S
C743 C740 1.539 . S
C743 H757 0.958 . S
C743 H758 0.961 . S
C743 H759 0.960 . S
H744 C728 0.931 . S
H745 C733 0.929 . S
H746 C734 0.960 . S
H747 C734 0.962 1_565 S
H748 C734 0.960 1_565 S
H749 C735 0.961 . S
H750 C735 0.961 . S
H751 C735 0.961 1_556 S
H752 C736 0.931 . S
H753 C741 0.930 . S
H754 C742 0.956 1_565 S
H755 C742 0.961 . S
H756 C742 0.961 1_565 S
H757 C743 0.958 . S
H758 C743 0.961 . S
H759 C743 0.960 . S
C760 C761 1.391 1_556 S
C760 C762 1.394 . S
C760 H776 0.931 . S
C761 C760 1.391 1_554 S
C761 C765 1.376 . S
C762 C760 1.394 . S
C762 C763 1.369 . S
C762 C766 1.531 . S
C763 C762 1.369 . S
C763 C764 1.410 1_556 S
C763 C771 1.503 . S
C764 C763 1.410 1_554 S
C764 C765 1.392 . S
C764 C767 1.511 . S
C765 C761 1.376 . S
C765 C764 1.392 . S
C765 H777 0.929 . S
C766 C762 1.531 . S
C766 H778 0.960 . S
C766 H779 0.962 . S
C766 H780 0.960 . S
C767 C764 1.511 . S
C767 H781 0.961 . S
C767 H782 0.961 . S
C767 H783 0.961 . S
C768 C769 1.370 . S
C768 C770 1.363 . S
C768 H784 0.931 . S
C769 C768 1.370 . S
C769 C773 1.408 . S
C770 C768 1.363 . S
C770 C771 1.370 . S
C770 C774 1.524 . S
C771 C763 1.503 . S
C771 C770 1.370 . S
C771 C772 1.403 . S
C772 C771 1.403 . S
C772 C773 1.404 . S
C772 C775 1.539 . S
C773 C769 1.408 . S
C773 C772 1.404 . S
C773 H785 0.930 . S
C774 C770 1.524 . S
C774 H786 0.956 . S
C774 H787 0.961 . S
C774 H788 0.961 . S
C775 C772 1.539 . S
C775 H789 0.958 . S
C775 H790 0.961 . S
C775 H791 0.960 . S
H776 C760 0.931 . S
H777 C765 0.929 . S
H778 C766 0.960 . S
H779 C766 0.962 . S
H780 C766 0.960 . S
H781 C767 0.961 . S
H782 C767 0.961 . S
H783 C767 0.961 . S
H784 C768 0.931 . S
H785 C773 0.930 . S
H786 C774 0.956 . S
H787 C774 0.961 . S
H788 C774 0.961 . S
H789 C775 0.958 . S
H790 C775 0.961 . S
H791 C775 0.960 . S
C792 C793 1.391 . S
C792 C794 1.394 1_554 S
C792 H808 0.931 . S
C793 C792 1.391 . S
C793 C797 1.376 1_554 S
C794 C792 1.394 1_556 S
C794 C795 1.369 . S
C794 C798 1.531 1_556 S
C795 C794 1.369 . S
C795 C796 1.410 . S
C795 C803 1.503 . S
C796 C795 1.410 . S
C796 C797 1.392 . S
C796 C799 1.511 . S
C797 C793 1.376 1_556 S
C797 C796 1.392 . S
C797 H809 0.929 . S
C798 C794 1.531 1_554 S
C798 H810 0.960 1_554 S
C798 H811 0.962 . S
C798 H812 0.960 . S
C799 C796 1.511 . S
C799 H813 0.961 . S
C799 H814 0.961 . S
C799 H815 0.961 . S
C800 C801 1.370 . S
C800 C802 1.363 . S
C800 H816 0.931 . S
C801 C800 1.370 . S
C801 C805 1.408 . S
C802 C800 1.363 . S
C802 C803 1.370 . S
C802 C806 1.524 1_556 S
C803 C795 1.503 . S
C803 C802 1.370 . S
C803 C804 1.403 . S
C804 C803 1.403 . S
C804 C805 1.404 . S
C804 C807 1.539 . S
C805 C801 1.408 . S
C805 C804 1.404 . S
C805 H817 0.930 . S
C806 C802 1.524 1_554 S
C806 H818 0.956 . S
C806 H819 0.961 . S
C806 H820 0.961 . S
C807 C804 1.539 . S
C807 H821 0.958 . S
C807 H822 0.961 . S
C807 H823 0.960 . S
H808 C792 0.931 . S
H809 C797 0.929 . S
H810 C798 0.960 1_556 S
H811 C798 0.962 . S
H812 C798 0.960 . S
H813 C799 0.961 . S
H814 C799 0.961 . S
H815 C799 0.961 . S
H816 C800 0.931 . S
H817 C805 0.930 . S
H818 C806 0.956 . S
H819 C806 0.961 . S
H820 C806 0.961 . S
H821 C807 0.958 . S
H822 C807 0.961 . S
H823 C807 0.960 . S
C824 C825 1.371 1_655 S
C824 C826 1.394 . S
C824 H840 0.931 . S
C825 C824 1.371 1_455 S
C825 C829 1.397 . S
C826 C824 1.394 . S
C826 C827 1.355 1_655 S
C826 C830 1.531 . S
C827 C826 1.355 1_455 S
C827 C828 1.425 . S
C827 C835 1.501 1_455 S
C828 C827 1.425 . S
C828 C829 1.392 . S
C828 C831 1.511 . S
C829 C825 1.397 . S
C829 C828 1.392 . S
C829 H841 0.929 . S
C830 C826 1.531 . S
C830 H842 0.960 . S
C830 H843 0.962 . S
C830 H844 0.960 . S
C831 C828 1.511 . S
C831 H845 0.961 . S
C831 H846 0.961 . S
C831 H847 0.961 . S
C832 C833 1.370 . S
C832 C834 1.363 . S
C832 H848 0.931 . S
C833 C832 1.370 . S
C833 C837 1.408 1_655 S
C834 C832 1.363 . S
C834 C835 1.370 . S
C834 C838 1.524 . S
C835 C827 1.501 1_655 S
C835 C834 1.370 . S
C835 C836 1.403 1_655 S
C836 C835 1.403 1_455 S
C836 C837 1.404 . S
C836 C839 1.539 . S
C837 C833 1.408 1_455 S
C837 C836 1.404 . S
C837 H849 0.930 . S
C838 C834 1.524 . S
C838 H850 0.956 . S
C838 H851 0.961 . S
C838 H852 0.961 . S
C839 C836 1.539 . S
C839 H853 0.958 . S
C839 H854 0.961 . S
C839 H855 0.960 . S
H840 C824 0.931 . S
H841 C829 0.929 . S
H842 C830 0.960 . S
H843 C830 0.962 . S
H844 C830 0.960 . S
H845 C831 0.961 . S
H846 C831 0.961 . S
H847 C831 0.961 . S
H848 C832 0.931 . S
H849 C837 0.930 . S
H850 C838 0.956 . S
H851 C838 0.961 . S
H852 C838 0.961 . S
H853 C839 0.958 . S
H854 C839 0.961 . S
H855 C839 0.960 . S
C856 C857 1.391 . S
C856 C858 1.394 . S
C856 H872 0.931 . S
C857 C856 1.391 . S
C857 C861 1.376 . S
C858 C856 1.394 . S
C858 C859 1.369 . S
C858 C862 1.531 1_565 S
C859 C858 1.369 . S
C859 C860 1.410 . S
C859 C867 1.503 . S
C860 C859 1.410 . S
C860 C861 1.392 . S
C860 C863 1.511 . S
C861 C857 1.376 . S
C861 C860 1.392 . S
C861 H873 0.929 . S
C862 C858 1.531 1_545 S
C862 H874 0.960 . S
C862 H875 0.962 1_545 S
C862 H876 0.960 . S
C863 C860 1.511 . S
C863 H877 0.961 . S
C863 H878 0.961 . S
C863 H879 0.961 . S
C864 C865 1.370 . S
C864 C866 1.363 . S
C864 H880 0.931 . S
C865 C864 1.370 . S
C865 C869 1.408 1_565 S
C866 C864 1.363 . S
C866 C867 1.370 . S
C866 C870 1.524 . S
C867 C859 1.503 . S
C867 C866 1.370 . S
C867 C868 1.403 1_565 S
C868 C867 1.403 1_545 S
C868 C869 1.404 . S
C868 C871 1.539 . S
C869 C865 1.408 1_545 S
C869 C868 1.404 . S
C869 H881 0.930 . S
C870 C866 1.524 . S
C870 H882 0.956 . S
C870 H883 0.961 . S
C870 H884 0.961 . S
C871 C868 1.539 . S
C871 H885 0.958 . S
C871 H886 0.961 . S
C871 H887 0.960 . S
H872 C856 0.931 . S
H873 C861 0.929 . S
H874 C862 0.960 . S
H875 C862 0.962 1_565 S
H876 C862 0.960 . S
H877 C863 0.961 . S
H878 C863 0.961 . S
H879 C863 0.961 . S
H880 C864 0.931 . S
H881 C869 0.930 . S
H882 C870 0.956 . S
H883 C870 0.961 . S
H884 C870 0.961 . S
H885 C871 0.958 . S
H886 C871 0.961 . S
H887 C871 0.960 . S
C888 C889 1.391 . S
C888 C890 1.394 . S
C888 H904 0.931 . S
C889 C888 1.391 . S
C889 C893 1.376 . S
C890 C888 1.394 . S
C890 C891 1.369 . S
C890 C894 1.531 . S
C891 C890 1.369 . S
C891 C892 1.410 . S
C891 C899 1.503 . S
C892 C891 1.410 . S
C892 C893 1.392 . S
C892 C895 1.511 . S
C893 C889 1.376 . S
C893 C892 1.392 . S
C893 H905 0.929 . S
C894 C890 1.531 . S
C894 H906 0.960 . S
C894 H907 0.962 . S
C894 H908 0.960 . S
C895 C892 1.511 . S
C895 H909 0.961 . S
C895 H910 0.961 . S
C895 H911 0.961 . S
C896 C897 1.370 . S
C896 C898 1.363 . S
C896 H912 0.931 . S
C897 C896 1.370 . S
C897 C901 1.408 . S
C898 C896 1.363 . S
C898 C899 1.370 . S
C898 C902 1.524 . S
C899 C891 1.503 . S
C899 C898 1.370 . S
C899 C900 1.403 . S
C900 C899 1.403 . S
C900 C901 1.404 . S
C900 C903 1.539 . S
C901 C897 1.408 . S
C901 C900 1.404 . S
C901 H913 0.930 . S
C902 C898 1.524 . S
C902 H914 0.956 . S
C902 H915 0.961 . S
C902 H916 0.961 . S
C903 C900 1.539 . S
C903 H917 0.958 . S
C903 H918 0.961 . S
C903 H919 0.960 . S
H904 C888 0.931 . S
H905 C893 0.929 . S
H906 C894 0.960 . S
H907 C894 0.962 . S
H908 C894 0.960 . S
H909 C895 0.961 . S
H910 C895 0.961 . S
H911 C895 0.961 . S
H912 C896 0.931 . S
H913 C901 0.930 . S
H914 C902 0.956 . S
H915 C902 0.961 . S
H916 C902 0.961 . S
H917 C903 0.958 . S
H918 C903 0.961 . S
H919 C903 0.960 . S
C920 C921 1.391 . S
C920 C922 1.394 . S
C920 H936 0.931 . S
C921 C920 1.391 . S
C921 C925 1.376 . S
C922 C920 1.394 . S
C922 C923 1.369 . S
C922 C926 1.531 . S
C923 C922 1.369 . S
C923 C924 1.410 . S
C923 C931 1.503 . S
C924 C923 1.410 . S
C924 C925 1.392 . S
C924 C927 1.511 . S
C925 C921 1.376 . S
C925 C924 1.392 . S
C925 H937 0.929 . S
C926 C922 1.531 . S
C926 H938 0.960 . S
C926 H939 0.962 . S
C926 H940 0.960 . S
C927 C924 1.511 . S
C927 H941 0.961 . S
C927 H942 0.961 . S
C927 H943 0.961 . S
C928 C929 1.370 . S
C928 C930 1.363 . S
C928 H944 0.931 . S
C929 C928 1.370 . S
C929 C933 1.408 . S
C930 C928 1.363 . S
C930 C931 1.370 . S
C930 C934 1.524 . S
C931 C923 1.503 . S
C931 C930 1.370 . S
C931 C932 1.403 . S
C932 C931 1.403 . S
C932 C933 1.404 . S
C932 C935 1.539 . S
C933 C929 1.408 . S
C933 C932 1.404 . S
C933 H945 0.930 . S
C934 C930 1.524 . S
C934 H946 0.956 . S
C934 H947 0.961 . S
C934 H948 0.961 . S
C935 C932 1.539 . S
C935 H949 0.958 . S
C935 H950 0.961 . S
C935 H951 0.960 . S
H936 C920 0.931 . S
H937 C925 0.929 . S
H938 C926 0.960 . S
H939 C926 0.962 . S
H940 C926 0.960 . S
H941 C927 0.961 . S
H942 C927 0.961 . S
H943 C927 0.961 . S
H944 C928 0.931 . S
H945 C933 0.930 . S
H946 C934 0.956 . S
H947 C934 0.961 . S
H948 C934 0.961 . S
H949 C935 0.958 . S
H950 C935 0.961 . S
H951 C935 0.960 . S
C185 N80 1.550 . S
C193 C122 1.556 . S
C225 C142 1.508 . S
C217 N93 1.493 . S
C257 C162 1.540 . S
C249 N54 1.566 . S
C289 C182 1.494 . S
C281 N67 1.527 1_455 S
C321 C123 1.543 1_565 S
C313 N28 1.562 1_556 S
C345 N41 1.521 1_556 S
C353 C143 1.497 . S
C377 N2 1.552 1_556 S
C385 C163 1.561 . S
C409 N15 1.530 1_556 S
C417 C183 1.495 . S
C449 C113 0.826 . S
C441 N70 0.828 . S
C481 C133 0.821 . S
C473 N83 0.836 . S
C513 C153 0.813 . S
C505 N96 0.847 . S
C537 N57 0.815 . S
C545 C173 0.850 . S
C569 N18 0.828 1_456 S
C577 C116 0.836 . S
C609 C136 0.826 1_545 S
C601 N31 0.823 . S
C641 C156 0.795 . S
C633 N44 0.842 1_556 S
C665 N5 0.864 . S
C673 C176 0.804 . S
C697 N66 1.561 1_455 S
C705 C106 1.420 . S
C729 N79 1.589 . S
C737 C126 1.458 . S
C769 C146 1.440 . S
C761 N92 1.548 . S
C801 C166 1.444 . S
C793 N53 1.577 . S
C825 N14 1.553 1_455 S
C833 C108 1.414 . S
C865 C128 1.466 . S
C857 N27 1.567 . S
C897 C148 1.436 . S
C889 N40 1.530 . S
C921 N1 1.564 . S
C929 C168 1.481 . S
