# Generated by pormake.
# Topology pto, (3,4)-cn, num edge types: 1
# Building blocks:
#     Node 0, Type 0, BuildingBlock: BETDIP_clean_linker_0, # of connection points: 3
#     Node 1, Type 0, BuildingBlock: BETDIP_clean_linker_0, # of connection points: 3
#     Node 2, Type 0, BuildingBlock: BETDIP_clean_linker_0, # of connection points: 3
#     Node 3, Type 0, BuildingBlock: BETDIP_clean_linker_0, # of connection points: 3
#     Node 4, Type 0, BuildingBlock: BETDIP_clean_linker_0, # of connection points: 3
#     Node 5, Type 0, BuildingBlock: BETDIP_clean_linker_0, # of connection points: 3
#     Node 6, Type 0, BuildingBlock: BETDIP_clean_linker_0, # of connection points: 3
#     Node 7, Type 0, BuildingBlock: BETDIP_clean_linker_0, # of connection points: 3
#     Node 8, Type 1, BuildingBlock: NAWXER_clean_sbu_0, # of connection points: 4
#     Node 9, Type 1, BuildingBlock: NAWXER_clean_sbu_0, # of connection points: 4
#     Node 10, Type 1, BuildingBlock: NAWXER_clean_sbu_0, # of connection points: 4
#     Node 11, Type 1, BuildingBlock: NAWXER_clean_sbu_0, # of connection points: 4
#     Node 12, Type 1, BuildingBlock: NAWXER_clean_sbu_0, # of connection points: 4
#     Node 13, Type 1, BuildingBlock: NAWXER_clean_sbu_0, # of connection points: 4
#     Edge 14, Type (0, 1), BuildingBlock: MIFKUJ_clean_linker_0, # of connection points: 2
#     Edge 15, Type (0, 1), BuildingBlock: MIFKUJ_clean_linker_0, # of connection points: 2
#     Edge 16, Type (0, 1), BuildingBlock: MIFKUJ_clean_linker_0, # of connection points: 2
#     Edge 17, Type (0, 1), BuildingBlock: MIFKUJ_clean_linker_0, # of connection points: 2
#     Edge 18, Type (0, 1), BuildingBlock: MIFKUJ_clean_linker_0, # of connection points: 2
#     Edge 19, Type (0, 1), BuildingBlock: MIFKUJ_clean_linker_0, # of connection points: 2
#     Edge 20, Type (0, 1), BuildingBlock: MIFKUJ_clean_linker_0, # of connection points: 2
#     Edge 21, Type (0, 1), BuildingBlock: MIFKUJ_clean_linker_0, # of connection points: 2
#     Edge 22, Type (0, 1), BuildingBlock: MIFKUJ_clean_linker_0, # of connection points: 2
#     Edge 23, Type (0, 1), BuildingBlock: MIFKUJ_clean_linker_0, # of connection points: 2
#     Edge 24, Type (0, 1), BuildingBlock: MIFKUJ_clean_linker_0, # of connection points: 2
#     Edge 25, Type (0, 1), BuildingBlock: MIFKUJ_clean_linker_0, # of connection points: 2
#     Edge 26, Type (0, 1), BuildingBlock: MIFKUJ_clean_linker_0, # of connection points: 2
#     Edge 27, Type (0, 1), BuildingBlock: MIFKUJ_clean_linker_0, # of connection points: 2
#     Edge 28, Type (0, 1), BuildingBlock: MIFKUJ_clean_linker_0, # of connection points: 2
#     Edge 29, Type (0, 1), BuildingBlock: MIFKUJ_clean_linker_0, # of connection points: 2
#     Edge 30, Type (0, 1), BuildingBlock: MIFKUJ_clean_linker_0, # of connection points: 2
#     Edge 31, Type (0, 1), BuildingBlock: MIFKUJ_clean_linker_0, # of connection points: 2
#     Edge 32, Type (0, 1), BuildingBlock: MIFKUJ_clean_linker_0, # of connection points: 2
#     Edge 33, Type (0, 1), BuildingBlock: MIFKUJ_clean_linker_0, # of connection points: 2
#     Edge 34, Type (0, 1), BuildingBlock: MIFKUJ_clean_linker_0, # of connection points: 2
#     Edge 35, Type (0, 1), BuildingBlock: MIFKUJ_clean_linker_0, # of connection points: 2
#     Edge 36, Type (0, 1), BuildingBlock: MIFKUJ_clean_linker_0, # of connection points: 2
#     Edge 37, Type (0, 1), BuildingBlock: MIFKUJ_clean_linker_0, # of connection points: 2
# Relax obj value: 0.015
# Max RMSD: 0.146
# Mean RMSD: 0.064
data_MOF--net-pto--node1-NAWXER_clean_sbu_0--node2-BETDIP_clean_linker_0--edge1-MIFKUJ_clean_linker_0
_symmetry_space_group_name_H-M    P1
_symmetry_Int_Tables_number       1
_symmetry_cell_setting            triclinic
loop_
_symmetry_equiv_pos_as_xyz
'x, y, z'
_cell_length_a     55.41274
_cell_length_b     52.81442
_cell_length_c     50.022644
_cell_angle_alpha  100.8245
_cell_angle_beta   100.69789
_cell_angle_gamma 102.10915
loop_
_atom_site_label
_atom_site_type_symbol
_atom_site_fract_x
_atom_site_fract_y
_atom_site_fract_z
_atom_type_partial_charge
H0 H 0.23176 0.33312 0.33254 0.0
H1 H 0.28226 0.29678 0.29268 0.0
H2 H 0.25359 0.35726 0.2607 0.0
H3 H 0.2533 0.25918 0.3019 0.0
C4 C 0.25716 0.2684 0.32412 0.0
C5 C 0.24201 0.33143 0.3161 0.0
C6 C 0.24065 0.34771 0.29682 0.0
C7 C 0.25624 0.31248 0.31408 0.0
C8 C 0.27048 0.31077 0.2937 0.0
C9 C 0.26978 0.3271 0.2747 0.0
C10 C 0.25448 0.34514 0.27592 0.0
N11 N 0.25614 0.29528 0.33271 0.0
H12 H 0.23662 0.7397 0.6756 0.0
H13 H 0.31763 0.76987 0.70424 0.0
H14 H 0.27806 0.71108 0.74019 0.0
H15 H 0.31459 0.78135 0.66308 0.0
C16 C 0.29695 0.78749 0.66032 0.0
C17 C 0.25443 0.73936 0.6887 0.0
C18 C 0.25457 0.72312 0.70796 0.0
C19 C 0.27706 0.756 0.68685 0.0
C20 C 0.3001 0.75653 0.70473 0.0
C21 C 0.30061 0.74028 0.72394 0.0
C22 C 0.27781 0.72347 0.72519 0.0
N23 N 0.27573 0.77333 0.66834 0.0
H24 H 0.78149 0.73241 0.25373 0.0
H25 H 0.81441 0.78011 0.33761 0.0
H26 H 0.74693 0.79202 0.28973 0.0
H27 H 0.83728 0.75167 0.34163 0.0
C28 C 0.83787 0.741 0.32111 0.0
C29 C 0.78114 0.74795 0.27111 0.0
C30 C 0.76158 0.76113 0.26884 0.0
C31 C 0.80016 0.75431 0.29585 0.0
C32 C 0.79979 0.77453 0.31848 0.0
C33 C 0.78033 0.78786 0.31653 0.0
C34 C 0.76142 0.78107 0.29165 0.0
N35 N 0.81941 0.74018 0.29683 0.0
H36 H 0.70593 0.26383 0.8357 0.0
H37 H 0.7483 0.34484 0.87432 0.0
H38 H 0.7717 0.2984 0.80851 0.0
H39 H 0.72771 0.34043 0.90764 0.0
C40 C 0.71022 0.32489 0.89911 0.0
C41 C 0.72164 0.28062 0.83724 0.0
C42 C 0.73868 0.27814 0.82001 0.0
C43 C 0.72505 0.30436 0.85714 0.0
C44 C 0.74555 0.32622 0.85938 0.0
C45 C 0.76274 0.32405 0.84214 0.0
C46 C 0.75902 0.29998 0.82248 0.0
N47 N 0.70729 0.30527 0.87424 0.0
H48 H 0.812 0.81704 0.86892 0.0
H49 H 0.85078 0.84615 0.80957 0.0
H50 H 0.78932 0.87742 0.83049 0.0
H51 H 0.85487 0.80325 0.80075 0.0
C52 C 0.85945 0.79969 0.82157 0.0
C53 C 0.81449 0.83035 0.85503 0.0
C54 C 0.79839 0.84741 0.85164 0.0
C55 C 0.83295 0.8292 0.83942 0.0
C56 C 0.83603 0.84616 0.82103 0.0
C57 C 0.8205 0.86382 0.81792 0.0
C58 C 0.80167 0.86421 0.8332 0.0
N59 N 0.848 0.81071 0.84261 0.0
H60 H 0.72966 0.29224 0.34868 0.0
H61 H 0.81065 0.31319 0.35747 0.0
H62 H 0.76335 0.34791 0.30514 0.0
H63 H 0.81261 0.29491 0.39286 0.0
C64 C 0.79462 0.28105 0.39108 0.0
C65 C 0.7463 0.30344 0.34368 0.0
C66 C 0.74366 0.3208 0.32584 0.0
C67 C 0.77035 0.30073 0.35563 0.0
C68 C 0.79197 0.3152 0.34895 0.0
C69 C 0.78961 0.3326 0.33106 0.0
C70 C 0.7654 0.33519 0.31965 0.0
N71 N 0.77189 0.28303 0.37382 0.0
H72 H 0.1943 0.33444 0.79085 0.0
H73 H 0.26265 0.3151 0.82674 0.0
H74 H 0.24128 0.38173 0.87054 0.0
H75 H 0.26241 0.30093 0.78149 0.0
C76 C 0.24259 0.291 0.77191 0.0
C77 C 0.21089 0.33853 0.80786 0.0
C78 C 0.21535 0.35994 0.83125 0.0
C79 C 0.22819 0.32277 0.80564 0.0
C80 C 0.2499 0.32804 0.82751 0.0
C81 C 0.25504 0.34954 0.85084 0.0
C82 C 0.23755 0.36525 0.85255 0.0
N83 N 0.22328 0.30174 0.78129 0.0
H84 H 0.29427 0.84445 0.22204 0.0
H85 H 0.2631 0.7649 0.17039 0.0
H86 H 0.22483 0.79604 0.23107 0.0
H87 H 0.30357 0.76691 0.17008 0.0
C88 C 0.31203 0.78731 0.16975 0.0
C89 C 0.27957 0.82593 0.21585 0.0
C90 C 0.25888 0.82305 0.22861 0.0
C91 C 0.28166 0.80491 0.19533 0.0
C92 C 0.26236 0.78094 0.18695 0.0
C93 C 0.24163 0.77767 0.19957 0.0
C94 C 0.24015 0.79882 0.22038 0.0
N95 N 0.3033 0.80853 0.18353 0.0
C96 C 0.99678 0.50028 0.26167 0.0
C97 C 0.05709 0.56781 0.23593 0.0
O98 O 0.01288 0.51658 0.28283 0.0
Zn99 Zn 0.04401 0.55091 0.29121 0.0
O100 O 0.99754 0.50308 0.23712 0.0
Zn101 Zn 0.02647 0.53393 0.24798 0.0
O102 O 0.05714 0.51837 0.26519 0.0
O103 O 0.07176 0.53897 0.30985 0.0
O104 O 0.03934 0.54901 0.21939 0.0
O105 O 0.06038 0.57036 0.26246 0.0
O106 O 0.03214 0.57839 0.31229 0.0
O107 O 0.01116 0.56443 0.26803 0.0
C108 C 0.07277 0.52188 0.28876 0.0
C109 C 0.01481 0.57968 0.29239 0.0
C110 C 0.96959 0.52046 0.80784 0.0
C111 C 0.0394 0.57403 0.78006 0.0
O112 O 0.98645 0.53603 0.82891 0.0
Zn113 Zn 0.02182 0.56549 0.83631 0.0
O114 O 0.97244 0.52049 0.78321 0.0
Zn115 Zn 0.0042 0.54723 0.7935 0.0
O116 O 0.02983 0.52738 0.81352 0.0
O117 O 0.04614 0.55052 0.85715 0.0
O118 O 0.0199 0.55697 0.76418 0.0
O119 O 0.04196 0.57879 0.80668 0.0
O120 O 0.01413 0.59759 0.85466 0.0
O121 O 0.99372 0.58275 0.81027 0.0
C122 C 0.04466 0.53066 0.83754 0.0
C123 C 0.99869 0.59998 0.83363 0.0
C124 C 0.28028 0.01846 0.55385 0.0
C125 C 0.27768 0.08303 0.49631 0.0
O126 O 0.2576 0.0176 0.54134 0.0
Zn127 Zn 0.23908 0.03768 0.51345 0.0
O128 O 0.2989 0.03547 0.55081 0.0
Zn129 Zn 0.2795 0.05151 0.52584 0.0
O130 O 0.25966 0.07197 0.55174 0.0
O131 O 0.21853 0.05477 0.53515 0.0
O132 O 0.29721 0.08014 0.5121 0.0
O133 O 0.25564 0.06856 0.49511 0.0
O134 O 0.22296 0.00897 0.48031 0.0
O135 O 0.26481 0.01964 0.48883 0.0
C136 C 0.23677 0.07173 0.55321 0.0
C137 C 0.24325 0.00525 0.47368 0.0
C138 C 0.57362 0.76702 0.03323 0.0
C139 C 0.51255 0.76775 0.95007 0.0
O140 O 0.56003 0.74733 0.01381 0.0
Zn141 Zn 0.54297 0.76736 0.99177 0.0
O142 O 0.57182 0.79067 0.03217 0.0
Zn143 Zn 0.55088 0.80935 0.00438 0.0
O144 O 0.53153 0.82608 0.02756 0.0
O145 O 0.51953 0.78218 0.0176 0.0
O146 O 0.52306 0.79132 0.96539 0.0
O147 O 0.51872 0.7479 0.95768 0.0
O148 O 0.57333 0.78881 0.97708 0.0
O149 O 0.57784 0.83176 0.99328 0.0
C150 C 0.51704 0.80484 0.02974 0.0
C151 C 0.58482 0.81312 0.97921 0.0
C152 C 0.80384 0.02041 0.6133 0.0
C153 C 0.79491 0.08445 0.55543 0.0
O154 O 0.78086 0.01699 0.5998 0.0
Zn155 Zn 0.76021 0.03458 0.57045 0.0
O156 O 0.8213 0.0387 0.61013 0.0
Zn157 Zn 0.79987 0.05189 0.58386 0.0
O158 O 0.77701 0.06782 0.60962 0.0
O159 O 0.73678 0.04677 0.59075 0.0
O160 O 0.81508 0.08209 0.57051 0.0
O161 O 0.77368 0.0681 0.55372 0.0
O162 O 0.74668 0.00552 0.53786 0.0
O163 O 0.78842 0.01951 0.54736 0.0
C164 C 0.75348 0.06416 0.61012 0.0
C165 C 0.76766 0.00353 0.53204 0.0
C166 C 0.52894 0.35275 0.14084 0.0
C167 C 0.47271 0.37186 0.06396 0.0
O168 O 0.51514 0.3317 0.12275 0.0
Zn169 Zn 0.48658 0.32151 0.08415 0.0
O170 O 0.52681 0.37556 0.13754 0.0
Zn171 Zn 0.50095 0.36313 0.10299 0.0
O172 O 0.46918 0.34351 0.11636 0.0
O173 O 0.45674 0.30137 0.09287 0.0
O174 O 0.48739 0.38871 0.08535 0.0
O175 O 0.47117 0.34697 0.06137 0.0
O176 O 0.50258 0.3037 0.05789 0.0
O177 O 0.52143 0.34655 0.07456 0.0
C178 C 0.45397 0.32032 0.11089 0.0
C179 C 0.52023 0.32386 0.05893 0.0
H180 H 0.19407 0.34138 0.30976 0.0
H181 H 0.16741 0.37267 0.31112 0.0
H182 H 0.22317 0.42842 0.28682 0.0
H183 H 0.25077 0.39797 0.28726 0.0
H184 H 0.20461 0.45468 0.32371 0.0
H185 H 0.16903 0.38714 0.23894 0.0
H186 H 0.15182 0.34139 0.20963 0.0
H187 H 0.09138 0.32918 0.25225 0.0
H188 H 0.10844 0.37477 0.28209 0.0
H189 H 0.08533 0.49129 0.24598 0.0
H190 H 0.11546 0.46378 0.24894 0.0
H191 H 0.13253 0.48773 0.33915 0.0
H192 H 0.10277 0.51604 0.33631 0.0
H193 H 0.1153 0.4222 0.26871 0.0
H194 H 0.19334 0.48642 0.36586 0.0
H195 H 0.2122 0.53388 0.38931 0.0
H196 H 0.1906 0.55578 0.31156 0.0
H197 H 0.17189 0.5085 0.28762 0.0
C198 C 0.20095 0.36048 0.30522 0.0
C199 C 0.22457 0.36703 0.29823 0.0
C200 C 0.1855 0.37825 0.30568 0.0
C201 C 0.19306 0.40271 0.29858 0.0
C202 C 0.21686 0.40961 0.29225 0.0
C203 C 0.23249 0.392 0.29215 0.0
C204 C 0.17586 0.42077 0.29697 0.0
C205 C 0.18506 0.44756 0.31173 0.0
C206 C 0.1505 0.41168 0.28086 0.0
C207 C 0.14016 0.38427 0.26293 0.0
C208 C 0.15218 0.37463 0.2422 0.0
C209 C 0.14243 0.34874 0.22547 0.0
C210 C 0.12056 0.33236 0.22913 0.0
C211 C 0.10835 0.34188 0.24948 0.0
C212 C 0.11803 0.36774 0.26629 0.0
C213 C 0.09555 0.49084 0.26649 0.0
C214 C 0.09163 0.50583 0.29094 0.0
C215 C 0.11275 0.47503 0.26813 0.0
C216 C 0.12635 0.47372 0.29424 0.0
C217 C 0.12254 0.48872 0.31875 0.0
C218 C 0.10547 0.50481 0.31711 0.0
C219 C 0.14397 0.4561 0.29556 0.0
C220 C 0.13481 0.42932 0.2808 0.0
C221 C 0.16958 0.46545 0.31086 0.0
C222 C 0.18097 0.49394 0.32504 0.0
C223 C 0.19268 0.50138 0.35377 0.0
C224 C 0.20333 0.52825 0.36715 0.0
C225 C 0.20251 0.54785 0.35196 0.0
C226 C 0.19112 0.54061 0.32334 0.0
C227 C 0.18046 0.51378 0.30987 0.0
H228 H 0.21076 0.56864 0.36236 0.0
H229 H 0.11304 0.31233 0.21615 0.0
H230 H 0.2409 0.71786 0.75659 0.0
H231 H 0.20246 0.68939 0.76245 0.0
H232 H 0.17489 0.66309 0.67279 0.0
H233 H 0.21367 0.69162 0.66671 0.0
H234 H 0.13734 0.67361 0.69964 0.0
H235 H 0.19839 0.62235 0.70684 0.0
H236 H 0.23997 0.6137 0.72338 0.0
H237 H 0.2309 0.62868 0.80786 0.0
H238 H 0.18943 0.63784 0.7919 0.0
H239 H 0.04048 0.57094 0.72475 0.0
H240 H 0.07505 0.59348 0.70644 0.0
H241 H 0.11838 0.63097 0.79082 0.0
H242 H 0.08429 0.60867 0.80919 0.0
H243 H 0.14657 0.60879 0.75854 0.0
H244 H 0.08822 0.66542 0.75162 0.0
H245 H 0.04693 0.67479 0.73526 0.0
H246 H 0.05093 0.64915 0.64986 0.0
H247 H 0.09212 0.63929 0.66574 0.0
C248 C 0.22678 0.70587 0.73808 0.0
C249 C 0.2305 0.70666 0.71117 0.0
C250 C 0.20478 0.68967 0.74146 0.0
C251 C 0.18604 0.67377 0.71805 0.0
C252 C 0.1892 0.67513 0.69112 0.0
C253 C 0.21131 0.69143 0.68769 0.0
C254 C 0.16343 0.65559 0.72215 0.0
C255 C 0.13925 0.65903 0.71202 0.0
C256 C 0.166 0.63671 0.73847 0.0
C257 C 0.19084 0.63094 0.74817 0.0
C258 C 0.20533 0.62397 0.72897 0.0
C259 C 0.22888 0.61896 0.73825 0.0
C260 C 0.23809 0.62068 0.76666 0.0
C261 C 0.22374 0.62736 0.78586 0.0
C262 C 0.20019 0.63243 0.7767 0.0
C263 C 0.05735 0.58406 0.73936 0.0
C264 C 0.05961 0.58799 0.76843 0.0
C265 C 0.07704 0.59695 0.72888 0.0
C266 C 0.09925 0.61391 0.7473 0.0
C267 C 0.10145 0.61788 0.77624 0.0
C268 C 0.08185 0.60516 0.7867 0.0
C269 C 0.12059 0.62745 0.73687 0.0
C270 C 0.14457 0.62304 0.74575 0.0
C271 C 0.11779 0.64534 0.71938 0.0
C272 C 0.09307 0.6513 0.70985 0.0
C273 C 0.08018 0.66155 0.72935 0.0
C274 C 0.05682 0.667 0.72017 0.0
C275 C 0.04627 0.66248 0.69154 0.0
C276 C 0.0591 0.65258 0.67203 0.0
C277 C 0.08245 0.64707 0.6811 0.0
H278 H 0.02818 0.66671 0.68447 0.0
H279 H 0.25633 0.6168 0.7738 0.0
H280 H 0.84536 0.71027 0.27411 0.0
H281 H 0.87685 0.68428 0.27179 0.0
H282 H 0.90555 0.71095 0.36132 0.0
H283 H 0.87413 0.73733 0.36374 0.0
H284 H 0.94392 0.712 0.33387 0.0
H285 H 0.86743 0.64956 0.33377 0.0
H286 H 0.82196 0.62631 0.31779 0.0
H287 H 0.8324 0.59643 0.23591 0.0
H288 H 0.87789 0.61981 0.25129 0.0
H289 H 0.01417 0.61258 0.34172 0.0
H290 H 0.98542 0.64142 0.34882 0.0
H291 H 0.94985 0.61732 0.26053 0.0
H292 H 0.97808 0.58832 0.25333 0.0
H293 H 0.91511 0.61493 0.29079 0.0
H294 H 0.99106 0.67866 0.29009 0.0
H295 H 0.03647 0.70222 0.30562 0.0
H296 H 0.02716 0.72969 0.38858 0.0
H297 H 0.98174 0.70598 0.37363 0.0
C298 C 0.85837 0.71066 0.29331 0.0
C299 C 0.85721 0.72567 0.31919 0.0
C300 C 0.87633 0.69574 0.29196 0.0
C301 C 0.89332 0.69541 0.31644 0.0
C302 C 0.89257 0.71088 0.3422 0.0
C303 C 0.8746 0.72583 0.34357 0.0
C304 C 0.91156 0.67857 0.31507 0.0
C305 C 0.93765 0.6907 0.32484 0.0
C306 C 0.90335 0.65087 0.30289 0.0
C307 C 0.87603 0.63663 0.29363 0.0
C308 C 0.85999 0.63819 0.3123 0.0
C309 C 0.83422 0.62496 0.30336 0.0
C310 C 0.82429 0.60995 0.27584 0.0
C311 C 0.84012 0.60808 0.25722 0.0
C312 C 0.8659 0.62129 0.26604 0.0
C313 C 1.00031 0.61355 0.32381 0.0
C314 C 0.9984 0.59811 0.29697 0.0
C315 C 0.98395 0.6301 0.32789 0.0
C316 C 0.96556 0.63161 0.30516 0.0
C317 C 0.96383 0.6164 0.27837 0.0
C318 C 0.98006 0.59986 0.2743 0.0
C319 C 0.94755 0.6484 0.30915 0.0
C320 C 0.92144 0.63621 0.29995 0.0
C321 C 0.95578 0.67602 0.3218 0.0
C322 C 0.98307 0.6903 0.33082 0.0
C323 C 0.99874 0.68953 0.31171 0.0
C324 C 0.02447 0.70295 0.32039 0.0
C325 C 0.03471 0.71738 0.34809 0.0
C326 C 0.01922 0.71847 0.36715 0.0
C327 C 0.99348 0.70506 0.35857 0.0
H328 H 0.05464 0.72776 0.35478 0.0
H329 H 0.80433 0.59973 0.26896 0.0
H330 H 0.76344 0.37697 0.84763 0.0
H331 H 0.79852 0.41313 0.84587 0.0
H332 H 0.84583 0.35813 0.8378 0.0
H333 H 0.81141 0.32237 0.8409 0.0
H334 H 0.87325 0.40355 0.8695 0.0
H335 H 0.8133 0.37503 0.78017 0.0
H336 H 0.77121 0.36551 0.74808 0.0
H337 H 0.76976 0.44743 0.77308 0.0
H338 H 0.81172 0.45735 0.80561 0.0
H339 H 0.93435 0.47909 0.76955 0.0
H340 H 0.89891 0.44789 0.7782 0.0
H341 H 0.91852 0.49021 0.86502 0.0
H342 H 0.95432 0.52098 0.85672 0.0
H343 H 0.85739 0.45218 0.79489 0.0
H344 H 0.90652 0.44671 0.90572 0.0
H345 H 0.94967 0.45181 0.93365 0.0
H346 H 0.97482 0.43024 0.85833 0.0
H347 H 0.93176 0.42466 0.82999 0.0
C348 C 0.78149 0.37274 0.84609 0.0
C349 C 0.78453 0.34672 0.84402 0.0
C350 C 0.80145 0.39336 0.8448 0.0
C351 C 0.82466 0.38823 0.84114 0.0
C352 C 0.82808 0.36257 0.84046 0.0
C353 C 0.80828 0.34207 0.84196 0.0
C354 C 0.84508 0.40907 0.83664 0.0
C355 C 0.86973 0.41432 0.85332 0.0
C356 C 0.84065 0.42275 0.81514 0.0
C357 C 0.8155 0.41686 0.79553 0.0
C358 C 0.80391 0.39097 0.77896 0.0
C359 C 0.7801 0.38551 0.76068 0.0
C360 C 0.76778 0.40584 0.7586 0.0
C361 C 0.7793 0.4317 0.77475 0.0
C362 C 0.8031 0.43725 0.7931 0.0
C363 C 0.93107 0.48179 0.79046 0.0
C364 C 0.9473 0.50235 0.8125 0.0
C365 C 0.91076 0.464 0.79536 0.0
C366 C 0.90625 0.46649 0.82234 0.0
C367 C 0.92192 0.48756 0.84415 0.0
C368 C 0.94235 0.50519 0.83934 0.0
C369 C 0.88554 0.44667 0.82777 0.0
C370 C 0.86085 0.44164 0.81129 0.0
C371 C 0.89008 0.43259 0.84889 0.0
C372 C 0.91598 0.43558 0.86575 0.0
C373 C 0.92124 0.44298 0.89514 0.0
C374 C 0.94569 0.44596 0.91103 0.0
C375 C 0.965 0.44145 0.89777 0.0
C376 C 0.95988 0.43384 0.86858 0.0
C377 C 0.93546 0.43079 0.85259 0.0
H378 H 0.98391 0.4438 0.91011 0.0
H379 H 0.74935 0.40158 0.74443 0.0
H380 H 0.24658 0.21479 0.3128 0.0
H381 H 0.25281 0.18649 0.34578 0.0
H382 H 0.28379 0.25634 0.41378 0.0
H383 H 0.27696 0.28485 0.38093 0.0
H384 H 0.31218 0.21009 0.40603 0.0
H385 H 0.23319 0.2316 0.41775 0.0
H386 H 0.19008 0.23612 0.40003 0.0
H387 H 0.16607 0.15298 0.35874 0.0
H388 H 0.20917 0.14807 0.37587 0.0
H389 H 0.3108 0.13237 0.50962 0.0
H390 H 0.31015 0.16712 0.48331 0.0
H391 H 0.24898 0.11269 0.41818 0.0
H392 H 0.24868 0.07872 0.44512 0.0
H393 H 0.2373 0.15631 0.42881 0.0
H394 H 0.31363 0.13311 0.41235 0.0
H395 H 0.35645 0.12601 0.42524 0.0
H396 H 0.38546 0.20804 0.46978 0.0
H397 H 0.34272 0.21554 0.45743 0.0
C398 C 0.25465 0.22407 0.3348 0.0
C399 C 0.26109 0.25188 0.34442 0.0
C400 C 0.25824 0.20795 0.35353 0.0
C401 C 0.26875 0.21944 0.38207 0.0
C402 C 0.27569 0.24724 0.39175 0.0
C403 C 0.27163 0.26342 0.37305 0.0
C404 C 0.27177 0.20204 0.40166 0.0
C405 C 0.29597 0.19862 0.41156 0.0
C406 C 0.25044 0.18667 0.40798 0.0
C407 C 0.22446 0.18954 0.39788 0.0
C408 C 0.21878 0.21434 0.40468 0.0
C409 C 0.19433 0.21696 0.39479 0.0
C410 C 0.17536 0.19487 0.37821 0.0
C411 C 0.18078 0.17008 0.37156 0.0
C412 C 0.20521 0.16737 0.38138 0.0
C413 C 0.29747 0.12786 0.48952 0.0
C414 C 0.27974 0.103 0.47937 0.0
C415 C 0.29713 0.14766 0.47445 0.0
C416 C 0.27956 0.14255 0.44863 0.0
C417 C 0.26254 0.11727 0.43813 0.0
C418 C 0.26245 0.09782 0.45346 0.0
C419 C 0.27781 0.16365 0.43297 0.0
C420 C 0.25374 0.16785 0.42373 0.0
C421 C 0.29925 0.17928 0.42678 0.0
C422 C 0.32493 0.1748 0.43425 0.0
C423 C 0.3291 0.14958 0.42509 0.0
C424 C 0.35337 0.14549 0.43225 0.0
C425 C 0.37365 0.16654 0.44839 0.0
C426 C 0.36972 0.19174 0.45733 0.0
C427 C 0.34549 0.19593 0.45024 0.0
H428 H 0.39242 0.16334 0.45391 0.0
H429 H 0.15644 0.19693 0.37057 0.0
H430 H 0.33694 0.78501 0.75436 0.0
H431 H 0.37508 0.78774 0.78942 0.0
H432 H 0.3566 0.70196 0.77407 0.0
H433 H 0.31836 0.69909 0.73887 0.0
H434 H 0.36814 0.72449 0.82889 0.0
H435 H 0.40576 0.73596 0.75178 0.0
H436 H 0.41471 0.75588 0.71274 0.0
H437 H 0.4481 0.83219 0.76998 0.0
H438 H 0.43902 0.81281 0.80934 0.0
H439 H 0.484 0.72061 0.91453 0.0
H440 H 0.45 0.7144 0.87315 0.0
H441 H 0.46237 0.79963 0.88576 0.0
H442 H 0.49651 0.80606 0.927 0.0
H443 H 0.45485 0.77516 0.83058 0.0
H444 H 0.41465 0.76499 0.90662 0.0
H445 H 0.40527 0.74603 0.94611 0.0
H446 H 0.37633 0.6681 0.89098 0.0
H447 H 0.38587 0.68657 0.85121 0.0
C448 C 0.34124 0.76671 0.75806 0.0
C449 C 0.32467 0.74183 0.74381 0.0
C450 C 0.36304 0.76829 0.77813 0.0
C451 C 0.36881 0.74504 0.78418 0.0
C452 C 0.35249 0.72015 0.76973 0.0
C453 C 0.33064 0.71855 0.74969 0.0
C454 C 0.39116 0.74679 0.80663 0.0
C455 C 0.38717 0.73514 0.82897 0.0
C456 C 0.41589 0.76127 0.8071 0.0
C457 C 0.42152 0.77296 0.78349 0.0
C458 C 0.41484 0.75703 0.75602 0.0
C459 C 0.41997 0.76822 0.73384 0.0
C460 C 0.43191 0.7953 0.73887 0.0
C461 C 0.43882 0.81123 0.76611 0.0
C462 C 0.43372 0.80014 0.78837 0.0
C463 C 0.47961 0.73805 0.90842 0.0
C464 C 0.49286 0.76383 0.92418 0.0
C465 C 0.46014 0.73445 0.8848 0.0
C466 C 0.45351 0.75656 0.87658 0.0
C467 C 0.46719 0.78231 0.89177 0.0
C468 C 0.48663 0.78593 0.9154 0.0
C469 C 0.43174 0.7529 0.85275 0.0
C470 C 0.43583 0.76427 0.83026 0.0
C471 C 0.40707 0.73825 0.85216 0.0
C472 C 0.40123 0.72711 0.87601 0.0
C473 C 0.40648 0.74378 0.90297 0.0
C474 C 0.4011 0.73313 0.92539 0.0
C475 C 0.39028 0.70586 0.92107 0.0
C476 C 0.38475 0.68921 0.8943 0.0
C477 C 0.39013 0.69976 0.87181 0.0
H478 H 0.38613 0.69765 0.93846 0.0
H479 H 0.43586 0.80392 0.72166 0.0
H480 H 0.7393 0.79546 0.3368 0.0
H481 H 0.73754 0.83235 0.37344 0.0
H482 H 0.81807 0.86537 0.38645 0.0
H483 H 0.81995 0.82856 0.34957 0.0
H484 H 0.80308 0.86712 0.43588 0.0
H485 H 0.77728 0.89127 0.34918 0.0
H486 H 0.75199 0.88449 0.30116 0.0
H487 H 0.68374 0.87718 0.33125 0.0
H488 H 0.70859 0.8835 0.37943 0.0
H489 H 0.80922 0.99554 0.51312 0.0
H490 H 0.81124 0.95904 0.47636 0.0
H491 H 0.73042 0.92658 0.46138 0.0
H492 H 0.72811 0.96336 0.49795 0.0
H493 H 0.74575 0.92462 0.41285 0.0
H494 H 0.77139 0.90018 0.49944 0.0
H495 H 0.79655 0.90671 0.54748 0.0
H496 H 0.86495 0.91438 0.51766 0.0
H497 H 0.84023 0.90828 0.46947 0.0
C498 C 0.75663 0.81062 0.34741 0.0
C499 C 0.77973 0.80925 0.34015 0.0
C500 C 0.7556 0.83164 0.36835 0.0
C501 C 0.77761 0.85177 0.38234 0.0
C502 C 0.80087 0.85003 0.37583 0.0
C503 C 0.80192 0.82897 0.35485 0.0
C504 C 0.77619 0.87487 0.40339 0.0
C505 C 0.79082 0.87993 0.43079 0.0
C506 C 0.75975 0.89117 0.3968 0.0
C507 C 0.74478 0.88761 0.36788 0.0
C508 C 0.75686 0.88801 0.34553 0.0
C509 C 0.74261 0.88428 0.31829 0.0
C510 C 0.71627 0.88034 0.31314 0.0
C511 C 0.70414 0.8802 0.33526 0.0
C512 C 0.7183 0.88388 0.36255 0.0
C513 C 0.79181 0.98074 0.50194 0.0
C514 C 0.76851 0.98226 0.5086 0.0
C515 C 0.79304 0.95982 0.481 0.0
C516 C 0.77105 0.93988 0.46648 0.0
C517 C 0.74763 0.94174 0.47244 0.0
C518 C 0.74635 0.96274 0.49336 0.0
C519 C 0.77263 0.91687 0.44538 0.0
C520 C 0.75802 0.91183 0.41796 0.0
C521 C 0.78908 0.90057 0.45195 0.0
C522 C 0.80398 0.90403 0.48088 0.0
C523 C 0.79182 0.90345 0.50316 0.0
C524 C 0.806 0.90705 0.53041 0.0
C525 C 0.83234 0.91102 0.53563 0.0
C526 C 0.84455 0.91133 0.51359 0.0
C527 C 0.83046 0.90779 0.4863 0.0
H528 H 0.84329 0.91381 0.55674 0.0
H529 H 0.70527 0.87745 0.29203 0.0
H530 H 0.71128 0.3574 0.94841 0.0
H531 H 0.6786 0.35452 0.97545 0.0
H532 H 0.63164 0.28523 0.91297 0.0
H533 H 0.66401 0.28825 0.88572 0.0
H534 H 0.60418 0.31897 0.92824 0.0
H535 H 0.66365 0.27881 0.9751 0.0
H536 H 0.70555 0.27526 0.99883 0.0
H537 H 0.712 0.34419 0.06346 0.0
H538 H 0.67027 0.34839 0.0399 0.0
H539 H 0.51816 0.28397 0.01404 0.0
H540 H 0.55022 0.28146 0.98641 0.0
H541 H 0.59807 0.35577 0.03958 0.0
H542 H 0.56622 0.35856 0.06704 0.0
H543 H 0.62416 0.3161 0.02836 0.0
H544 H 0.56538 0.35713 0.97938 0.0
H545 H 0.52306 0.35972 0.95578 0.0
H546 H 0.51507 0.28745 0.89499 0.0
H547 H 0.55722 0.28422 0.91853 0.0
C548 C 0.69397 0.34158 0.94049 0.0
C549 C 0.69023 0.32304 0.91507 0.0
C550 C 0.67539 0.33986 0.95599 0.0
C551 C 0.65282 0.31944 0.94638 0.0
C552 C 0.64894 0.30109 0.92079 0.0
C553 C 0.6675 0.30282 0.90529 0.0
C554 C 0.63312 0.31749 0.96285 0.0
C555 C 0.60847 0.3179 0.95 0.0
C556 C 0.63879 0.31647 0.99136 0.0
C557 C 0.66393 0.31406 0.00557 0.0
C558 C 0.6741 0.29336 0.99424 0.0
C559 C 0.6978 0.2912 0.00769 0.0
C560 C 0.71146 0.30953 0.0326 0.0
C561 C 0.70142 0.33003 0.04414 0.0
C562 C 0.67773 0.33229 0.03076 0.0
C563 C 0.53556 0.29969 0.01988 0.0
C564 C 0.53961 0.32154 0.04258 0.0
C565 C 0.5538 0.29826 0.00407 0.0
C566 C 0.57641 0.31851 0.01093 0.0
C567 C 0.58074 0.33996 0.03398 0.0
C568 C 0.56244 0.34157 0.04953 0.0
C569 C 0.59543 0.31783 0.99379 0.0
C570 C 0.61992 0.31695 0.00653 0.0
C571 C 0.58959 0.31827 0.96516 0.0
C572 C 0.56432 0.32026 0.95091 0.0
C573 C 0.5545 0.34166 0.96114 0.0
C574 C 0.53057 0.34327 0.94774 0.0
C575 C 0.51635 0.32372 0.92395 0.0
C576 C 0.52608 0.30255 0.91346 0.0
C577 C 0.55 0.30083 0.92681 0.0
H578 H 0.49782 0.325 0.91361 0.0
H579 H 0.7298 0.30782 0.04299 0.0
H580 H 0.33522 0.82003 0.64695 0.0
H581 H 0.33431 0.86061 0.63012 0.0
H582 H 0.25522 0.8491 0.63171 0.0
H583 H 0.25598 0.80851 0.64833 0.0
H584 H 0.26478 0.86268 0.58386 0.0
H585 H 0.30005 0.89398 0.68339 0.0
H586 H 0.33038 0.89813 0.72778 0.0
H587 H 0.39205 0.93256 0.69436 0.0
H588 H 0.3621 0.92828 0.6496 0.0
H589 H 0.24522 0.98659 0.57272 0.0
H590 H 0.25038 0.94918 0.59336 0.0
H591 H 0.3295 0.96654 0.59114 0.0
H592 H 0.32462 0.00456 0.57096 0.0
H593 H 0.32192 0.94997 0.63829 0.0
H594 H 0.28682 0.92112 0.53974 0.0
H595 H 0.25655 0.91911 0.49615 0.0
H596 H 0.19515 0.87938 0.52664 0.0
H597 H 0.22495 0.88212 0.57097 0.0
C598 C 0.31764 0.82615 0.64356 0.0
C599 C 0.29573 0.81122 0.64901 0.0
C600 C 0.31717 0.84934 0.63409 0.0
C601 C 0.29477 0.858 0.62997 0.0
C602 C 0.2727 0.84277 0.63481 0.0
C603 C 0.27319 0.81962 0.64436 0.0
C604 C 0.29429 0.88302 0.62078 0.0
C605 C 0.27707 0.8818 0.5959 0.0
C606 C 0.31086 0.90784 0.63613 0.0
C607 C 0.32887 0.91054 0.66306 0.0
C608 C 0.3201 0.90223 0.68543 0.0
C609 C 0.33722 0.90465 0.71067 0.0
C610 C 0.36313 0.91553 0.71386 0.0
C611 C 0.37198 0.9241 0.69184 0.0
C612 C 0.35494 0.9217 0.66654 0.0
C613 C 0.26382 0.98271 0.57697 0.0
C614 C 0.28445 0.9983 0.56987 0.0
C615 C 0.26672 0.9613 0.58874 0.0
C616 C 0.29018 0.95474 0.59318 0.0
C617 C 0.3112 0.9712 0.58771 0.0
C618 C 0.30837 0.99287 0.57616 0.0
C619 C 0.29213 0.92966 0.60161 0.0
C620 C 0.30969 0.93083 0.62621 0.0
C621 C 0.27597 0.90473 0.58592 0.0
C622 C 0.25812 0.90206 0.55882 0.0
C623 C 0.26685 0.91209 0.53725 0.0
C624 C 0.24976 0.91086 0.51241 0.0
C625 C 0.22393 0.89909 0.5086 0.0
C626 C 0.21516 0.88851 0.52963 0.0
C627 C 0.23214 0.88997 0.55467 0.0
H628 H 0.21072 0.89816 0.48934 0.0
H629 H 0.37636 0.91738 0.73342 0.0
H630 H 0.76724 0.75254 0.21481 0.0
H631 H 0.73487 0.74752 0.17222 0.0
H632 H 0.67879 0.75184 0.22116 0.0
H633 H 0.71072 0.75577 0.26353 0.0
H634 H 0.65797 0.7172 0.17253 0.0
H635 H 0.71031 0.8072 0.20413 0.0
H636 H 0.75058 0.84215 0.21795 0.0
H637 H 0.76481 0.81815 0.13665 0.0
H638 H 0.72475 0.7828 0.12248 0.0
H639 H 0.60066 0.80386 0.0809 0.0
H640 H 0.63194 0.79806 0.11896 0.0
H641 H 0.62031 0.71592 0.07635 0.0
H642 H 0.5884 0.7214 0.03837 0.0
H643 H 0.67574 0.78717 0.11999 0.0
H644 H 0.63134 0.67946 0.12524 0.0
H645 H 0.58907 0.64828 0.11552 0.0
H646 H 0.55524 0.71418 0.12972 0.0
H647 H 0.59732 0.74572 0.13987 0.0
C648 C 0.74788 0.75178 0.21639 0.0
C649 C 0.7416 0.75491 0.24258 0.0
C650 C 0.72946 0.74912 0.19207 0.0
C651 C 0.70452 0.74978 0.19359 0.0
C652 C 0.69792 0.7514 0.21949 0.0
C653 C 0.71626 0.75392 0.24373 0.0
C654 C 0.68571 0.75083 0.16878 0.0
C655 C 0.66191 0.73234 0.16086 0.0
C656 C 0.69067 0.77092 0.15392 0.0
C657 C 0.71471 0.79218 0.16236 0.0
C658 C 0.72213 0.80926 0.18928 0.0
C659 C 0.74489 0.82915 0.19717 0.0
C660 C 0.76028 0.83231 0.17822 0.0
C661 C 0.7529 0.81563 0.15132 0.0
C662 C 0.73017 0.79567 0.14335 0.0
C663 C 0.60462 0.7845 0.07965 0.0
C664 C 0.592 0.76307 0.05662 0.0
C665 C 0.62261 0.78125 0.10139 0.0
C666 C 0.62843 0.75655 0.10059 0.0
C667 C 0.61588 0.73507 0.07762 0.0
C668 C 0.59768 0.73825 0.0559 0.0
C669 C 0.64788 0.75361 0.12376 0.0
C670 C 0.67187 0.77175 0.13134 0.0
C671 C 0.6428 0.73368 0.1388 0.0
C672 C 0.61743 0.71491 0.13297 0.0
C673 C 0.61487 0.68727 0.12635 0.0
C674 C 0.59096 0.66954 0.12076 0.0
C675 C 0.56947 0.67924 0.1219 0.0
C676 C 0.57187 0.70669 0.12873 0.0
C677 C 0.59575 0.7245 0.13436 0.0
H678 H 0.55097 0.66549 0.11755 0.0
H679 H 0.7779 0.84773 0.18436 0.0
H680 H 0.69511 0.24585 0.78355 0.0
H681 H 0.69133 0.20577 0.74743 0.0
H682 H 0.77169 0.21347 0.77431 0.0
H683 H 0.77555 0.25323 0.81032 0.0
H684 H 0.75705 0.20789 0.71855 0.0
H685 H 0.72829 0.16562 0.78891 0.0
H686 H 0.7005 0.15624 0.82096 0.0
H687 H 0.63559 0.12746 0.75136 0.0
H688 H 0.66298 0.13702 0.71892 0.0
H689 H 0.78413 0.09231 0.66026 0.0
H690 H 0.77447 0.12441 0.6958 0.0
H691 H 0.69728 0.10626 0.64769 0.0
H692 H 0.70675 0.0735 0.61183 0.0
H693 H 0.70369 0.11703 0.70888 0.0
H694 H 0.73405 0.1553 0.6381 0.0
H695 H 0.76317 0.16147 0.60684 0.0
H696 H 0.82573 0.19802 0.67798 0.0
H697 H 0.7971 0.19114 0.70975 0.0
C698 C 0.71186 0.23871 0.78197 0.0
C699 C 0.73567 0.25279 0.79954 0.0
C700 C 0.70968 0.21587 0.76134 0.0
C701 C 0.73125 0.20673 0.75818 0.0
C702 C 0.75485 0.22033 0.77626 0.0
C703 C 0.75704 0.24308 0.79676 0.0
C704 C 0.72986 0.18383 0.73525 0.0
C705 C 0.74543 0.18803 0.71654 0.0
C706 C 0.71407 0.1581 0.73206 0.0
C707 C 0.69763 0.15235 0.75154 0.0
C708 C 0.70806 0.15753 0.78047 0.0
C709 C 0.69239 0.15213 0.7987 0.0
C710 C 0.66628 0.14135 0.78821 0.0
C711 C 0.6558 0.13587 0.75946 0.0
C712 C 0.67139 0.14126 0.74114 0.0
C713 C 0.76498 0.09482 0.65733 0.0
C714 C 0.74631 0.08079 0.633 0.0
C715 C 0.75947 0.11306 0.67775 0.0
C716 C 0.7353 0.11794 0.67409 0.0
C717 C 0.71606 0.10273 0.65079 0.0
C718 C 0.72153 0.08418 0.63031 0.0
C719 C 0.73151 0.1411 0.69301 0.0
C720 C 0.71493 0.13701 0.71072 0.0
C721 C 0.74636 0.16706 0.69537 0.0
C722 C 0.76343 0.17253 0.67632 0.0
C723 C 0.75403 0.16454 0.6471 0.0
C724 C 0.77046 0.16812 0.62928 0.0
C725 C 0.79629 0.18015 0.64041 0.0
C726 C 0.80572 0.18869 0.66939 0.0
C727 C 0.78939 0.18492 0.68732 0.0
H728 H 0.80901 0.18286 0.62658 0.0
H729 H 0.65418 0.13717 0.80235 0.0
H730 H 0.32076 0.33456 0.28588 0.0
H731 H 0.34769 0.33133 0.25232 0.0
H732 H 0.28174 0.31229 0.18392 0.0
H733 H 0.25465 0.3162 0.21764 0.0
H734 H 0.32254 0.27706 0.18518 0.0
H735 H 0.30935 0.36511 0.18698 0.0
H736 H 0.30748 0.40973 0.21086 0.0
H737 H 0.38567 0.4267 0.25426 0.0
H738 H 0.38788 0.38199 0.23097 0.0
H739 H 0.40556 0.28865 0.0902 0.0
H740 H 0.36996 0.28753 0.11315 0.0
H741 H 0.42057 0.34184 0.18746 0.0
H742 H 0.45556 0.34403 0.16411 0.0
H743 H 0.38116 0.35853 0.17655 0.0
H744 H 0.39507 0.27193 0.18084 0.0
H745 H 0.3989 0.22678 0.16159 0.0
H746 H 0.32257 0.20624 0.11166 0.0
H747 H 0.3184 0.2514 0.13038 0.0
C748 C 0.31206 0.32975 0.26368 0.0
C749 C 0.28575 0.32567 0.25421 0.0
C750 C 0.32738 0.32789 0.24461 0.0
C751 C 0.31659 0.32151 0.21577 0.0
C752 C 0.29028 0.31717 0.20615 0.0
C753 C 0.27494 0.31956 0.22532 0.0
C754 C 0.33327 0.31993 0.19605 0.0
C755 C 0.33504 0.2948 0.18267 0.0
C756 C 0.34989 0.34312 0.1936 0.0
C757 C 0.3487 0.37012 0.20741 0.0
C758 C 0.32607 0.37826 0.20181 0.0
C759 C 0.32497 0.40359 0.2152 0.0
C760 C 0.34643 0.42102 0.23411 0.0
C761 C 0.36906 0.41318 0.23962 0.0
C762 C 0.37025 0.38786 0.22631 0.0
C763 C 0.40901 0.3 0.11156 0.0
C764 C 0.43319 0.31646 0.12543 0.0
C765 C 0.38871 0.29935 0.12468 0.0
C766 C 0.39254 0.31458 0.15211 0.0
C767 C 0.41701 0.33015 0.16622 0.0
C768 C 0.43704 0.33128 0.15293 0.0
C769 C 0.37116 0.31551 0.16605 0.0
C770 C 0.36846 0.34063 0.17845 0.0
C771 C 0.35404 0.29225 0.168 0.0
C772 C 0.35654 0.26513 0.15674 0.0
C773 C 0.37918 0.25785 0.16558 0.0
C774 C 0.3814 0.23225 0.15481 0.0
C775 C 0.36102 0.21368 0.13535 0.0
C776 C 0.33836 0.22066 0.12669 0.0
C777 C 0.33605 0.24625 0.13739 0.0
H778 H 0.36277 0.19387 0.12703 0.0
H779 H 0.34553 0.44062 0.24445 0.0
H780 H 0.87932 0.78802 0.87116 0.0
H781 H 0.90387 0.755 0.87738 0.0
H782 H 0.89797 0.73442 0.78838 0.0
H783 H 0.87374 0.76755 0.78209 0.0
H784 H 0.88531 0.69008 0.81196 0.0
H785 H 0.95169 0.77134 0.82894 0.0
H786 H 0.9745 0.81772 0.85309 0.0
H787 H 0.98806 0.79496 0.93147 0.0
H788 H 0.96501 0.74847 0.90782 0.0
H789 H 0.97248 0.61549 0.7907 0.0
H790 H 0.94969 0.65021 0.79331 0.0
H791 H 0.97255 0.66909 0.8835 0.0
H792 H 0.99616 0.63455 0.88102 0.0
H793 H 0.97513 0.7137 0.86511 0.0
H794 H 0.91238 0.63256 0.84934 0.0
H795 H 0.88925 0.58592 0.8268 0.0
H796 H 0.8674 0.60767 0.74902 0.0
H797 H 0.89073 0.65439 0.77098 0.0
C798 C 0.88331 0.77647 0.85295 0.0
C799 C 0.87459 0.78023 0.82609 0.0
C800 C 0.89738 0.7577 0.85655 0.0
C801 C 0.90273 0.74231 0.83333 0.0
C802 C 0.89398 0.74606 0.80655 0.0
C803 C 0.88023 0.76501 0.80299 0.0
C804 C 0.91712 0.72193 0.83665 0.0
C805 C 0.90501 0.69523 0.82339 0.0
C806 C 0.94249 0.72859 0.85248 0.0
C807 C 0.95636 0.75651 0.86667 0.0
C808 C 0.95932 0.77627 0.85137 0.0
C809 C 0.97234 0.80257 0.86496 0.0
C810 C 0.98265 0.8093 0.89382 0.0
C811 C 0.98002 0.78973 0.90913 0.0
C812 C 0.96699 0.7634 0.89564 0.0
C813 C 0.97276 0.62701 0.81114 0.0
C814 C 0.98595 0.62206 0.83567 0.0
C815 C 0.9596 0.64683 0.8126 0.0
C816 C 0.9589 0.66188 0.83861 0.0
C817 C 0.97268 0.65759 0.8632 0.0
C818 C 0.98613 0.63784 0.86175 0.0
C819 C 0.94352 0.68183 0.83977 0.0
C820 C 0.95536 0.70843 0.85392 0.0
C821 C 0.91773 0.67504 0.82507 0.0
C822 C 0.90347 0.64697 0.81178 0.0
C823 C 0.90278 0.62738 0.82738 0.0
C824 C 0.88962 0.60092 0.81471 0.0
C825 C 0.8769 0.59383 0.78648 0.0
C826 C 0.87727 0.61319 0.77088 0.0
C827 C 0.89044 0.63968 0.78344 0.0
H828 H 0.86672 0.57333 0.77671 0.0
H829 H 0.99273 0.82967 0.9043 0.0
H830 H 0.83076 0.31576 0.31863 0.0
H831 H 0.86776 0.34161 0.30675 0.0
H832 H 0.836 0.40981 0.31438 0.0
H833 H 0.79967 0.38459 0.32742 0.0
H834 H 0.87287 0.36486 0.26445 0.0
H835 H 0.88218 0.46623 0.33992 0.0
H836 H 0.8742 0.48307 0.38607 0.0
H837 H 0.88262 0.41081 0.40982 0.0
H838 H 0.89099 0.3937 0.36399 0.0
H839 H 0.95064 0.47259 0.22672 0.0
H840 H 0.9169 0.44088 0.23769 0.0
H841 H 0.9655 0.44794 0.3183 0.0
H842 H 0.99873 0.48015 0.30787 0.0
H843 H 0.92221 0.45278 0.32546 0.0
H844 H 0.94985 0.39062 0.26326 0.0
H845 H 0.96074 0.37158 0.21952 0.0
H846 H 0.88437 0.36146 0.17372 0.0
H847 H 0.8731 0.38078 0.21715 0.0
C848 C 0.83185 0.33638 0.31816 0.0
C849 C 0.8123 0.34813 0.32409 0.0
C850 C 0.85286 0.35103 0.31107 0.0
C851 C 0.85475 0.3777 0.30989 0.0
C852 C 0.83513 0.38937 0.31551 0.0
C853 C 0.81424 0.37483 0.32273 0.0
C854 C 0.87724 0.39353 0.30297 0.0
C855 C 0.88373 0.38407 0.2778 0.0
C856 C 0.8917 0.41835 0.32063 0.0
C857 C 0.88697 0.4286 0.34841 0.0
C858 C 0.88243 0.45399 0.35504 0.0
C859 C 0.87782 0.46357 0.38113 0.0
C860 C 0.87783 0.44799 0.40083 0.0
C861 C 0.88253 0.42282 0.39451 0.0
C862 C 0.88717 0.41316 0.36846 0.0
C863 C 0.95417 0.46708 0.24661 0.0
C864 C 0.97724 0.47897 0.26651 0.0
C865 C 0.93493 0.44889 0.25284 0.0
C866 C 0.93865 0.44192 0.27883 0.0
C867 C 0.96206 0.45312 0.29822 0.0
C868 C 0.98108 0.47151 0.29219 0.0
C869 C 0.9178 0.42433 0.28672 0.0
C870 C 0.9115 0.43354 0.31209 0.0
C871 C 0.904 0.39901 0.26957 0.0
C872 C 0.9107 0.38737 0.24342 0.0
C873 C 0.93543 0.38452 0.24383 0.0
C874 C 0.94166 0.37365 0.2191 0.0
C875 C 0.92327 0.36537 0.19385 0.0
C876 C 0.8986 0.3679 0.19329 0.0
C877 C 0.89227 0.37879 0.21796 0.0
H878 H 0.92814 0.35695 0.17473 0.0
H879 H 0.87423 0.45543 0.42101 0.0
H880 H 0.1632 0.3447 0.8148 0.0
H881 H 0.13357 0.37296 0.81792 0.0
H882 H 0.19619 0.44179 0.85658 0.0
H883 H 0.22606 0.41409 0.85238 0.0
H884 H 0.1538 0.4364 0.88394 0.0
H885 H 0.17182 0.43561 0.79271 0.0
H886 H 0.17476 0.41373 0.74575 0.0
H887 H 0.09522 0.37475 0.72521 0.0
H888 H 0.09189 0.39612 0.77223 0.0
H889 H 0.09177 0.5406 0.87212 0.0
H890 H 0.11999 0.51064 0.87357 0.0
H891 H 0.06123 0.44804 0.81367 0.0
H892 H 0.03364 0.47839 0.81108 0.0
H893 H 0.10171 0.4491 0.79787 0.0
H894 H 0.08165 0.44891 0.88672 0.0
H895 H 0.07705 0.46803 0.93385 0.0
H896 H 0.15707 0.50505 0.95959 0.0
H897 H 0.1621 0.48643 0.91248 0.0
C898 C 0.17077 0.36589 0.82364 0.0
C899 C 0.19713 0.37701 0.83333 0.0
C900 C 0.15376 0.38196 0.82563 0.0
C901 C 0.16273 0.40941 0.83755 0.0
C902 C 0.18891 0.42058 0.84755 0.0
C903 C 0.20594 0.40463 0.84522 0.0
C904 C 0.14485 0.42665 0.83891 0.0
C905 C 0.14253 0.43946 0.86519 0.0
C906 C 0.12971 0.42993 0.81441 0.0
C907 C 0.13167 0.41724 0.78608 0.0
C908 C 0.15501 0.4222 0.77826 0.0
C909 C 0.15673 0.40992 0.75162 0.0
C910 C 0.13521 0.3928 0.73254 0.0
C911 C 0.11189 0.38798 0.74003 0.0
C912 C 0.11006 0.40018 0.76666 0.0
C913 C 0.08481 0.52032 0.85961 0.0
C914 C 0.06057 0.51182 0.84145 0.0
C915 C 0.10091 0.50313 0.86051 0.0
C916 C 0.09276 0.47687 0.84389 0.0
C917 C 0.06812 0.46818 0.82657 0.0
C918 C 0.0523 0.48551 0.82518 0.0
C919 C 0.11028 0.45897 0.84306 0.0
C920 C 0.1127 0.44604 0.81678 0.0
C921 C 0.12515 0.45523 0.86762 0.0
C922 C 0.1222 0.46648 0.89597 0.0
C923 C 0.09823 0.4613 0.90236 0.0
C924 C 0.09556 0.47201 0.92909 0.0
C925 C 0.11675 0.4878 0.94968 0.0
C926 C 0.14067 0.49284 0.9436 0.0
C927 C 0.14345 0.48219 0.9169 0.0
H928 H 0.11464 0.49607 0.97036 0.0
H929 H 0.13658 0.38331 0.71192 0.0
H930 H 0.24893 0.72727 0.19059 0.0
H931 H 0.21749 0.68533 0.18488 0.0
H932 H 0.15921 0.72789 0.18846 0.0
H933 H 0.19022 0.76956 0.19282 0.0
H934 H 0.19383 0.67236 0.22159 0.0
H935 H 0.10134 0.68946 0.15733 0.0
H936 H 0.08877 0.708 0.11672 0.0
H937 H 0.15396 0.69404 0.08733 0.0
H938 H 0.16674 0.67506 0.12753 0.0
H939 H 0.08895 0.61535 0.2652 0.0
H940 H 0.12003 0.6451 0.24929 0.0
H941 H 0.0967 0.5925 0.16684 0.0
H942 H 0.0648 0.56264 0.18257 0.0
H943 H 0.10558 0.64356 0.16345 0.0
H944 H 0.15116 0.59228 0.21096 0.0
H945 H 0.16453 0.5709 0.24901 0.0
H946 H 0.19555 0.64766 0.30601 0.0
H947 H 0.18202 0.6695 0.26844 0.0
C948 C 0.22927 0.72758 0.18929 0.0
C949 C 0.22212 0.75181 0.19238 0.0
C950 C 0.21134 0.7036 0.18623 0.0
C951 C 0.18592 0.70335 0.18612 0.0
C952 C 0.17857 0.72739 0.188 0.0
C953 C 0.19642 0.7513 0.19089 0.0
C954 C 0.1677 0.67878 0.18737 0.0
C955 C 0.17464 0.6659 0.20861 0.0
C956 C 0.14281 0.66979 0.17 0.0
C957 C 0.13508 0.68097 0.14559 0.0
C958 C 0.11292 0.69019 0.14213 0.0
C959 C 0.10577 0.70082 0.11919 0.0
C960 C 0.12058 0.70225 0.09949 0.0
C961 C 0.14254 0.693 0.10266 0.0
C962 C 0.14977 0.68234 0.12554 0.0
C963 C 0.0903 0.61006 0.24363 0.0
C964 C 0.07458 0.58648 0.22522 0.0
C965 C 0.10818 0.62707 0.23459 0.0
C966 C 0.11114 0.62071 0.20707 0.0
C967 C 0.09487 0.59767 0.18824 0.0
C968 C 0.07668 0.58066 0.19725 0.0
C969 C 0.13149 0.63826 0.19851 0.0
C970 C 0.12494 0.64975 0.17596 0.0
C971 C 0.15696 0.64556 0.21422 0.0
C972 C 0.16548 0.63253 0.23686 0.0
C973 C 0.16072 0.6046 0.23164 0.0
C974 C 0.16834 0.5924 0.25313 0.0
C975 C 0.18086 0.60791 0.27991 0.0
C976 C 0.18586 0.63567 0.28524 0.0
C977 C 0.17826 0.64797 0.26384 0.0
H978 H 0.18672 0.59845 0.29653 0.0
H979 H 0.11502 0.71049 0.08176 0.0
H980 H 0.82463 0.85043 0.76375 0.0
H981 H 0.82645 0.87888 0.73042 0.0
H982 H 0.82506 0.94552 0.79448 0.0
H983 H 0.82263 0.91694 0.82763 0.0
H984 H 0.79315 0.9437 0.74957 0.0
H985 H 0.87974 0.94035 0.76998 0.0
H986 H 0.91555 0.91934 0.77561 0.0
H987 H 0.89258 0.87928 0.68849 0.0
H988 H 0.85641 0.89976 0.68241 0.0
H989 H 0.84829 0.02662 0.65187 0.0
H990 H 0.85543 0.00148 0.68787 0.0
H991 H 0.77919 0.95151 0.65576 0.0
H992 H 0.77178 0.97663 0.6202 0.0
H993 H 0.85392 0.94972 0.68819 0.0
H994 H 0.75325 0.94017 0.70935 0.0
H995 H 0.72002 0.96484 0.70656 0.0
H996 H 0.77638 0.0377 0.7169 0.0
H997 H 0.80998 0.01355 0.72021 0.0
C998 C 0.82506 0.87124 0.77078 0.0
C999 C 0.82344 0.88147 0.79825 0.0
C1000 C 0.82617 0.88752 0.75175 0.0
C1001 C 0.82613 0.91447 0.75996 0.0
C1002 C 0.82503 0.9248 0.78759 0.0
C1003 C 0.82363 0.90847 0.80651 0.0
C1004 C 0.82576 0.93149 0.73939 0.0
C1005 C 0.80653 0.94504 0.73627 0.0
C1006 C 0.84345 0.93372 0.72227 0.0
C1007 C 0.86524 0.92143 0.72581 0.0
C1008 C 0.88222 0.92691 0.75207 0.0
C1009 C 0.9026 0.91512 0.75533 0.0
C1010 C 0.9063 0.89794 0.73243 0.0
C1011 C 0.88967 0.89257 0.70621 0.0
C1012 C 0.86925 0.90429 0.70284 0.0
C1013 C 0.83314 0.01012 0.65234 0.0
C1014 C 0.80936 0.00384 0.63337 0.0
C1015 C 0.83727 0.99574 0.67287 0.0
C1016 C 0.8177 0.97492 0.67478 0.0
C1017 C 0.79441 0.96783 0.65501 0.0
C1018 C 0.79023 0.98221 0.63465 0.0
C1019 C 0.82101 0.96128 0.6981 0.0
C1020 C 0.84069 0.9484 0.70167 0.0
C1021 C 0.80413 0.96017 0.71616 0.0
C1022 C 0.78409 0.97497 0.71477 0.0
C1023 C 0.75856 0.96147 0.71118 0.0
C1024 C 0.73967 0.97537 0.70948 0.0
C1025 C 0.74608 0.0028 0.71147 0.0
C1026 C 0.77143 0.01643 0.71528 0.0
C1027 C 0.7904 0.00264 0.71704 0.0
H1028 H 0.73142 0.01351 0.7101 0.0
H1029 H 0.92209 0.88883 0.735 0.0
H1030 H 0.7299 0.36685 0.3218 0.0
H1031 H 0.69012 0.37155 0.29506 0.0
H1032 H 0.66039 0.28616 0.27366 0.0
H1033 H 0.70046 0.28131 0.30003 0.0
H1034 H 0.65553 0.30678 0.22799 0.0
H1035 H 0.6366 0.32591 0.31803 0.0
H1036 H 0.64435 0.34846 0.36781 0.0
H1037 H 0.64872 0.42383 0.34592 0.0
H1038 H 0.64135 0.40179 0.29601 0.0
H1039 H 0.53434 0.30705 0.15624 0.0
H1040 H 0.56785 0.30171 0.19224 0.0
H1041 H 0.60043 0.38665 0.2149 0.0
H1042 H 0.56659 0.39228 0.179 0.0
H1043 H 0.60247 0.36527 0.26112 0.0
H1044 H 0.62452 0.34752 0.17241 0.0
H1045 H 0.61748 0.32604 0.12241 0.0
H1046 H 0.60861 0.2493 0.14187 0.0
H1047 H 0.61521 0.2703 0.19197 0.0
C1048 C 0.71478 0.34909 0.31162 0.0
C1049 C 0.71833 0.32369 0.31283 0.0
C1050 C 0.69198 0.35182 0.29654 0.0
C1051 C 0.67222 0.32922 0.28246 0.0
C1052 C 0.67538 0.30387 0.28443 0.0
C1053 C 0.69819 0.30112 0.29963 0.0
C1054 C 0.64923 0.33201 0.26383 0.0
C1055 C 0.64363 0.31914 0.23537 0.0
C1056 C 0.63424 0.34888 0.27328 0.0
C1057 C 0.63863 0.3622 0.30328 0.0
C1058 C 0.63942 0.34732 0.32384 0.0
C1059 C 0.6437 0.36001 0.35208 0.0
C1060 C 0.64708 0.38757 0.36003 0.0
C1061 C 0.64612 0.40249 0.33973 0.0
C1062 C 0.64186 0.3899 0.31146 0.0
C1063 C 0.54847 0.32468 0.169 0.0
C1064 C 0.54796 0.35009 0.16451 0.0
C1065 C 0.56764 0.32156 0.18958 0.0
C1066 C 0.58687 0.34372 0.20591 0.0
C1067 C 0.5858 0.36927 0.20243 0.0
C1068 C 0.5665 0.37244 0.18187 0.0
C1069 C 0.60878 0.33993 0.22541 0.0
C1070 C 0.61425 0.35271 0.25389 0.0
C1071 C 0.62384 0.32314 0.216 0.0
C1072 C 0.6201 0.31046 0.18591 0.0
C1073 C 0.62088 0.32605 0.16601 0.0
C1074 C 0.61699 0.31396 0.13765 0.0
C1075 C 0.61254 0.28632 0.12896 0.0
C1076 C 0.61203 0.27071 0.14863 0.0
C1077 C 0.61585 0.28269 0.17701 0.0
H1078 H 0.60953 0.277 0.107 0.0
H1079 H 0.6504 0.39735 0.3819 0.0
H1080 H 0.27649 0.269 0.75042 0.0
H1081 H 0.26851 0.23108 0.71075 0.0
H1082 H 0.18783 0.22225 0.69937 0.0
H1083 H 0.19578 0.26029 0.73957 0.0
H1084 H 0.20021 0.17366 0.69403 0.0
H1085 H 0.21679 0.24899 0.65492 0.0
H1086 H 0.23938 0.2934 0.65172 0.0
H1087 H 0.30607 0.26555 0.64574 0.0
H1088 H 0.28402 0.22106 0.64933 0.0
H1089 H 0.19116 0.08077 0.56187 0.0
H1090 H 0.18512 0.11708 0.59669 0.0
H1091 H 0.26623 0.14501 0.62865 0.0
H1092 H 0.27242 0.10929 0.59434 0.0
H1093 H 0.24461 0.18498 0.61794 0.0
H1094 H 0.22901 0.11156 0.6638 0.0
H1095 H 0.20615 0.06727 0.66711 0.0
H1096 H 0.13652 0.09179 0.65914 0.0
H1097 H 0.15894 0.13614 0.65542 0.0
C1098 C 0.25703 0.25899 0.73947 0.0
C1099 C 0.2368 0.26771 0.74793 0.0
C1100 C 0.25249 0.23738 0.71675 0.0
C1101 C 0.22758 0.22407 0.70179 0.0
C1102 C 0.2072 0.23232 0.71053 0.0
C1103 C 0.21177 0.25409 0.73341 0.0
C1104 C 0.22333 0.20172 0.67702 0.0
C1105 C 0.20944 0.17621 0.67706 0.0
C1106 C 0.23542 0.20499 0.65489 0.0
C1107 C 0.24876 0.2317 0.65254 0.0
C1108 C 0.23633 0.25237 0.65311 0.0
C1109 C 0.24903 0.27756 0.6512 0.0
C1110 C 0.27415 0.2823 0.64857 0.0
C1111 C 0.28661 0.26185 0.64778 0.0
C1112 C 0.274 0.23662 0.64971 0.0
C1113 C 0.20765 0.09454 0.5765 0.0
C1114 C 0.23227 0.09215 0.5752 0.0
C1115 C 0.20417 0.11524 0.59638 0.0
C1116 C 0.22525 0.13381 0.61521 0.0
C1117 C 0.2497 0.13105 0.61422 0.0
C1118 C 0.25318 0.11049 0.59457 0.0
C1119 C 0.22245 0.15678 0.63559 0.0
C1120 C 0.23495 0.18249 0.63462 0.0
C1121 C 0.20899 0.15363 0.65668 0.0
C1122 C 0.19557 0.12702 0.65897 0.0
C1123 C 0.20878 0.10742 0.6625 0.0
C1124 C 0.19591 0.08233 0.66451 0.0
C1125 C 0.16988 0.07669 0.66324 0.0
C1126 C 0.15667 0.09616 0.66006 0.0
C1127 C 0.16945 0.12128 0.65801 0.0
H1128 H 0.15995 0.05725 0.6648 0.0
H1129 H 0.28396 0.30182 0.6471 0.0
H1130 H 0.33276 0.75039 0.14444 0.0
H1131 H 0.36913 0.75735 0.12309 0.0
H1132 H 0.37745 0.84226 0.14446 0.0
H1133 H 0.34071 0.83532 0.1656 0.0
H1134 H 0.38247 0.82533 0.09138 0.0
H1135 H 0.41799 0.81506 0.18205 0.0
H1136 H 0.42116 0.79381 0.222 0.0
H1137 H 0.42981 0.72336 0.1699 0.0
H1138 H 0.42633 0.74405 0.12951 0.0
H1139 H 0.50373 0.8489 0.05552 0.0
H1140 H 0.47041 0.84982 0.08155 0.0
H1141 H 0.45212 0.76408 0.06625 0.0
H1142 H 0.48532 0.76297 0.04052 0.0
H1143 H 0.45462 0.78662 0.12005 0.0
H1144 H 0.41535 0.79527 0.02878 0.0
H1145 H 0.4118 0.81604 0.98847 0.0
H1146 H 0.4103 0.88936 0.04174 0.0
H1147 H 0.41417 0.8691 0.08246 0.0
C1148 C 0.34236 0.77054 0.1446 0.0
C1149 C 0.33401 0.79228 0.15681 0.0
C1150 C 0.3632 0.77452 0.13251 0.0
C1151 C 0.37628 0.80036 0.13254 0.0
C1152 C 0.36771 0.82215 0.14431 0.0
C1153 C 0.34678 0.81817 0.15644 0.0
C1154 C 0.39876 0.80434 0.12008 0.0
C1155 C 0.39848 0.81732 0.098 0.0
C1156 C 0.41949 0.79354 0.12842 0.0
C1157 C 0.4217 0.78105 0.1527 0.0
C1158 C 0.42038 0.79497 0.17905 0.0
C1159 C 0.42227 0.78303 0.20179 0.0
C1160 C 0.42564 0.75723 0.19847 0.0
C1161 C 0.42719 0.74334 0.17243 0.0
C1162 C 0.42529 0.75517 0.14962 0.0
C1163 C 0.49264 0.83025 0.05774 0.0
C1164 C 0.49719 0.80586 0.04588 0.0
C1165 C 0.47354 0.83081 0.07254 0.0
C1166 C 0.45865 0.807 0.07569 0.0
C1167 C 0.46338 0.7827 0.06413 0.0
C1168 C 0.48235 0.78212 0.04932 0.0
C1169 C 0.43808 0.8071 0.09099 0.0
C1170 C 0.43875 0.79491 0.11365 0.0
C1171 C 0.41774 0.81861 0.08317 0.0
C1172 C 0.41535 0.83077 0.05871 0.0
C1173 C 0.41448 0.81589 0.03194 0.0
C1174 C 0.41237 0.82755 0.00901 0.0
C1175 C 0.41091 0.85403 0.01256 0.0
C1176 C 0.41148 0.86887 0.03903 0.0
C1177 C 0.41362 0.8573 0.06204 0.0
H1178 H 0.40927 0.86303 0.99478 0.0
H1179 H 0.42709 0.74803 0.2161 0.0
H1180 H 0.8352 0.27155 0.42311 0.0
H1181 H 0.83561 0.23846 0.45144 0.0
H1182 H 0.75392 0.21192 0.42564 0.0
H1183 H 0.7534 0.24503 0.39729 0.0
H1184 H 0.77172 0.21884 0.48243 0.0
H1185 H 0.78925 0.17496 0.39765 0.0
H1186 H 0.81195 0.17063 0.35972 0.0
H1187 H 0.88134 0.17935 0.41963 0.0
H1188 H 0.85911 0.18411 0.45798 0.0
H1189 H 0.75463 0.09752 0.52581 0.0
H1190 H 0.75544 0.13206 0.49953 0.0
H1191 H 0.83728 0.15466 0.52357 0.0
H1192 H 0.83666 0.11988 0.5499 0.0
H1193 H 0.82014 0.15028 0.46823 0.0
H1194 H 0.80511 0.19775 0.55269 0.0
H1195 H 0.7845 0.20537 0.59206 0.0
H1196 H 0.71252 0.19075 0.53436 0.0
H1197 H 0.73286 0.18363 0.49459 0.0
C1198 C 0.81734 0.2586 0.42346 0.0
C1199 C 0.79431 0.2608 0.40796 0.0
C1200 C 0.8176 0.23966 0.43955 0.0
C1201 C 0.79481 0.22255 0.44044 0.0
C1202 C 0.77173 0.2249 0.42519 0.0
C1203 C 0.77147 0.24377 0.40895 0.0
C1204 C 0.7951 0.20245 0.45758 0.0
C1205 C 0.782 0.2036 0.47904 0.0
C1206 C 0.80917 0.18309 0.45375 0.0
C1207 C 0.82256 0.18016 0.43071 0.0
C1208 C 0.80939 0.17618 0.40276 0.0
C1209 C 0.82217 0.1736 0.38118 0.0
C1210 C 0.84808 0.17479 0.38726 0.0
C1211 C 0.86127 0.17848 0.41495 0.0
C1212 C 0.84859 0.18109 0.43661 0.0
C1213 C 0.77284 0.10985 0.52563 0.0
C1214 C 0.7956 0.10587 0.53995 0.0
C1215 C 0.77326 0.12974 0.51071 0.0
C1216 C 0.79641 0.14615 0.50979 0.0
C1217 C 0.81919 0.14226 0.52405 0.0
C1218 C 0.8188 0.12241 0.53912 0.0
C1219 C 0.79671 0.16664 0.49306 0.0
C1220 C 0.80989 0.16554 0.47162 0.0
C1221 C 0.78289 0.18618 0.49702 0.0
C1222 C 0.77044 0.18989 0.52072 0.0
C1223 C 0.78486 0.19598 0.54842 0.0
C1224 C 0.77324 0.2003 0.57079 0.0
C1225 C 0.74717 0.19828 0.56574 0.0
C1226 C 0.7327 0.19222 0.53826 0.0
C1227 C 0.74428 0.18821 0.51579 0.0
H1228 H 0.73821 0.20152 0.58312 0.0
H1229 H 0.85794 0.17278 0.37052 0.0
H1230 H 0.26183 0.36717 0.90785 0.0
H1231 H 0.30111 0.37722 0.94403 0.0
H1232 H 0.3412 0.35508 0.88092 0.0
H1233 H 0.30244 0.34614 0.84447 0.0
H1234 H 0.34754 0.33019 0.92709 0.0
H1235 H 0.35182 0.41747 0.90877 0.0
H1236 H 0.33532 0.45675 0.90436 0.0
H1237 H 0.33041 0.46981 0.99032 0.0
H1238 H 0.34653 0.43035 0.99512 0.0
H1239 H 0.4693 0.36025 0.00832 0.0
H1240 H 0.43481 0.36341 0.97174 0.0
H1241 H 0.40206 0.40169 0.03492 0.0
H1242 H 0.43757 0.39993 0.07151 0.0
H1243 H 0.39127 0.41939 0.98926 0.0
H1244 H 0.38421 0.33341 0.0089 0.0
H1245 H 0.39858 0.29342 0.01563 0.0
H1246 H 0.40514 0.27626 0.93029 0.0
H1247 H 0.39117 0.3164 0.92318 0.0
C1248 C 0.27906 0.36487 0.90154 0.0
C1249 C 0.27885 0.35574 0.87313 0.0
C1250 C 0.30147 0.37053 0.92229 0.0
C1251 C 0.32402 0.36696 0.91509 0.0
C1252 C 0.32394 0.35789 0.88687 0.0
C1253 C 0.30167 0.35257 0.8661 0.0
C1254 C 0.34752 0.37162 0.93701 0.0
C1255 C 0.35733 0.34974 0.94042 0.0
C1256 C 0.35966 0.39697 0.95503 0.0
C1257 C 0.35014 0.42079 0.95221 0.0
C1258 C 0.34701 0.42857 0.92666 0.0
C1259 C 0.33777 0.4509 0.9241 0.0
C1260 C 0.33176 0.46572 0.94702 0.0
C1261 C 0.33504 0.45829 0.97257 0.0
C1262 C 0.34425 0.43596 0.97523 0.0
C1263 C 0.45521 0.37021 0.01425 0.0
C1264 C 0.45596 0.37989 0.04256 0.0
C1265 C 0.43538 0.37178 0.99342 0.0
C1266 C 0.41538 0.38199 0.00061 0.0
C1267 C 0.41717 0.39357 0.02885 0.0
C1268 C 0.43746 0.39264 0.04973 0.0
C1269 C 0.39161 0.37798 0.97906 0.0
C1270 C 0.38159 0.39984 0.97585 0.0
C1271 C 0.37886 0.35245 0.96154 0.0
C1272 C 0.38685 0.32803 0.96558 0.0
C1273 C 0.38884 0.32118 0.99161 0.0
C1274 C 0.39691 0.29849 0.9955 0.0
C1275 C 0.40282 0.28234 0.97342 0.0
C1276 C 0.40059 0.2888 0.94738 0.0
C1277 C 0.39257 0.31151 0.9434 0.0
H1278 H 0.40909 0.26479 0.97646 0.0
H1279 H 0.32461 0.483 0.945 0.0
H1280 H 0.21691 0.84035 0.23634 0.0
H1281 H 0.21288 0.87163 0.27696 0.0
H1282 H 0.2928 0.88577 0.31351 0.0
H1283 H 0.29681 0.85386 0.27323 0.0
H1284 H 0.26463 0.87513 0.35038 0.0
H1285 H 0.26852 0.93294 0.28666 0.0
H1286 H 0.25571 0.94601 0.2424 0.0
H1287 H 0.18056 0.94077 0.25546 0.0
H1288 H 0.19284 0.92731 0.29964 0.0
H1289 H 0.28299 0.9876 0.45962 0.0
H1290 H 0.28308 0.95608 0.41738 0.0
H1291 H 0.20249 0.94516 0.38802 0.0
H1292 H 0.20222 0.97705 0.43056 0.0
H1293 H 0.22826 0.95302 0.34708 0.0
H1294 H 0.22232 0.89349 0.40811 0.0
H1295 H 0.23283 0.87773 0.45113 0.0
H1296 H 0.3096 0.8853 0.44279 0.0
H1297 H 0.2994 0.90072 0.39939 0.0
C1298 C 0.23367 0.85024 0.25296 0.0
C1299 C 0.25717 0.84453 0.25161 0.0
C1300 C 0.23137 0.86828 0.27607 0.0
C1301 C 0.25256 0.88116 0.29825 0.0
C1302 C 0.2762 0.87607 0.29662 0.0
C1303 C 0.27852 0.85802 0.27348 0.0
C1304 C 0.24977 0.89873 0.32383 0.0
C1305 C 0.25704 0.8924 0.34966 0.0
C1306 C 0.23891 0.92065 0.32282 0.0
C1307 C 0.23154 0.92887 0.29633 0.0
C1308 C 0.24921 0.93437 0.27999 0.0
C1309 C 0.24205 0.94189 0.25494 0.0
C1310 C 0.21732 0.94416 0.24609 0.0
C1311 C 0.19971 0.93898 0.26232 0.0
C1312 C 0.20676 0.93143 0.28739 0.0
C1313 C 0.26519 0.97844 0.44431 0.0
C1314 C 0.24258 0.9849 0.44848 0.0
C1315 C 0.26527 0.96027 0.4202 0.0
C1316 C 0.24277 0.94807 0.39962 0.0
C1317 C 0.22007 0.95431 0.40368 0.0
C1318 C 0.21993 0.97245 0.42802 0.0
C1319 C 0.24346 0.92958 0.37358 0.0
C1320 C 0.23579 0.93571 0.34771 0.0
C1321 C 0.25376 0.90732 0.37443 0.0
C1322 C 0.26015 0.89848 0.40069 0.0
C1323 C 0.24148 0.89196 0.41556 0.0
C1324 C 0.24736 0.88299 0.43995 0.0
C1325 C 0.27192 0.8807 0.44983 0.0
C1326 C 0.2906 0.88714 0.43516 0.0
C1327 C 0.28474 0.89585 0.41058 0.0
H1328 H 0.27645 0.87388 0.4688 0.0
H1329 H 0.21181 0.94997 0.22668 0.0
H1330 H 0.80008 0.8481 0.90687 0.0
H1331 H 0.76473 0.84547 0.93016 0.0
H1332 H 0.71369 0.84181 0.85222 0.0
H1333 H 0.749 0.84502 0.82912 0.0
H1334 H 0.70213 0.87213 0.89267 0.0
H1335 H 0.71827 0.78522 0.87729 0.0
H1336 H 0.74422 0.75277 0.88055 0.0
H1337 H 0.75952 0.7752 0.97029 0.0
H1338 H 0.73392 0.80805 0.96755 0.0
H1339 H 0.5993 0.7783 0.94176 0.0
H1340 H 0.63579 0.7869 0.92108 0.0
H1341 H 0.6566 0.86928 0.96642 0.0
H1342 H 0.61955 0.86093 0.98674 0.0
H1343 H 0.684 0.80084 0.94348 0.0
H1344 H 0.68816 0.90776 0.92931 0.0
H1345 H 0.65919 0.93658 0.92074 0.0
H1346 H 0.59759 0.86753 0.88097 0.0
H1347 H 0.62625 0.83834 0.88898 0.0
C1348 C 0.78131 0.84677 0.89478 0.0
C1349 C 0.77728 0.84672 0.86618 0.0
C1350 C 0.76112 0.84526 0.90807 0.0
C1351 C 0.73644 0.84312 0.89288 0.0
C1352 C 0.73253 0.84356 0.86444 0.0
C1353 C 0.75273 0.84538 0.85125 0.0
C1354 C 0.71449 0.83958 0.90623 0.0
C1355 C 0.69824 0.85661 0.90389 0.0
C1356 C 0.7091 0.81908 0.92052 0.0
C1357 C 0.72442 0.79928 0.92221 0.0
C1358 C 0.72732 0.78336 0.89771 0.0
C1359 C 0.74194 0.76488 0.89947 0.0
C1360 C 0.75357 0.76198 0.92561 0.0
C1361 C 0.75054 0.7775 0.95005 0.0
C1362 C 0.73597 0.79605 0.94841 0.0
C1363 C 0.61152 0.79832 0.94725 0.0
C1364 C 0.60648 0.81895 0.96591 0.0
C1365 C 0.63247 0.80318 0.93547 0.0
C1366 C 0.64896 0.82874 0.94209 0.0
C1367 C 0.64397 0.84946 0.96066 0.0
C1368 C 0.62281 0.84466 0.97231 0.0
C1369 C 0.67154 0.83331 0.92982 0.0
C1370 C 0.68799 0.81651 0.93247 0.0
C1371 C 0.67667 0.85352 0.91514 0.0
C1372 C 0.65929 0.87088 0.91006 0.0
C1373 C 0.66844 0.89874 0.91868 0.0
C1374 C 0.65208 0.91514 0.91392 0.0
C1375 C 0.62655 0.90389 0.90041 0.0
C1376 C 0.61735 0.87621 0.89154 0.0
C1377 C 0.63363 0.85974 0.89622 0.0
H1378 H 0.61391 0.91661 0.89676 0.0
H1379 H 0.76488 0.74766 0.92693 0.0
loop_
_geom_bond_atom_site_label_1
_geom_bond_atom_site_label_2
_geom_bond_distance
_geom_bond_site_symmetry_2
_ccdc_geom_bond_type
H0 C5 0.930 . S
H1 C8 0.930 . S
H2 C10 0.930 . S
H3 C4 1.016 . S
C4 H3 1.016 . S
C4 N11 1.286 . S
C5 H0 0.930 . S
C5 C6 1.397 . S
C5 C7 1.361 . S
C6 C5 1.397 . S
C6 C10 1.390 . S
C7 C5 1.361 . S
C7 C8 1.393 . S
C7 N11 1.413 . S
C8 H1 0.930 . S
C8 C7 1.393 . S
C8 C9 1.399 . S
C9 C8 1.399 . S
C9 C10 1.381 . S
C10 H2 0.930 . S
C10 C6 1.390 . S
C10 C9 1.381 . S
N11 C4 1.286 . S
N11 C7 1.413 . S
H12 C17 0.930 . S
H13 C20 0.930 . S
H14 C22 0.930 . S
H15 C16 1.016 . S
C16 H15 1.016 . S
C16 N23 1.286 . S
C17 H12 0.930 . S
C17 C18 1.397 . S
C17 C19 1.361 . S
C18 C17 1.397 . S
C18 C22 1.390 . S
C19 C17 1.361 . S
C19 C20 1.393 . S
C19 N23 1.413 . S
C20 H13 0.930 . S
C20 C19 1.393 . S
C20 C21 1.399 . S
C21 C20 1.399 . S
C21 C22 1.381 . S
C22 H14 0.930 . S
C22 C18 1.390 . S
C22 C21 1.381 . S
N23 C16 1.286 . S
N23 C19 1.413 . S
H24 C29 0.930 . S
H25 C32 0.930 . S
H26 C34 0.930 . S
H27 C28 1.016 . S
C28 H27 1.016 . S
C28 N35 1.286 . S
C29 H24 0.930 . S
C29 C30 1.397 . S
C29 C31 1.361 . S
C30 C29 1.397 . S
C30 C34 1.390 . S
C31 C29 1.361 . S
C31 C32 1.393 . S
C31 N35 1.413 . S
C32 H25 0.930 . S
C32 C31 1.393 . S
C32 C33 1.399 . S
C33 C32 1.399 . S
C33 C34 1.381 . S
C34 H26 0.930 . S
C34 C30 1.390 . S
C34 C33 1.381 . S
N35 C28 1.286 . S
N35 C31 1.413 . S
H36 C41 0.930 . S
H37 C44 0.930 . S
H38 C46 0.930 . S
H39 C40 1.016 . S
C40 H39 1.016 . S
C40 N47 1.286 . S
C41 H36 0.930 . S
C41 C42 1.397 . S
C41 C43 1.361 . S
C42 C41 1.397 . S
C42 C46 1.390 . S
C43 C41 1.361 . S
C43 C44 1.393 . S
C43 N47 1.413 . S
C44 H37 0.930 . S
C44 C43 1.393 . S
C44 C45 1.399 . S
C45 C44 1.399 . S
C45 C46 1.381 . S
C46 H38 0.930 . S
C46 C42 1.390 . S
C46 C45 1.381 . S
N47 C40 1.286 . S
N47 C43 1.413 . S
H48 C53 0.930 . S
H49 C56 0.930 . S
H50 C58 0.930 . S
H51 C52 1.016 . S
C52 H51 1.016 . S
C52 N59 1.286 . S
C53 H48 0.930 . S
C53 C54 1.397 . S
C53 C55 1.361 . S
C54 C53 1.397 . S
C54 C58 1.390 . S
C55 C53 1.361 . S
C55 C56 1.393 . S
C55 N59 1.413 . S
C56 H49 0.930 . S
C56 C55 1.393 . S
C56 C57 1.399 . S
C57 C56 1.399 . S
C57 C58 1.381 . S
C58 H50 0.930 . S
C58 C54 1.390 . S
C58 C57 1.381 . S
N59 C52 1.286 . S
N59 C55 1.413 . S
H60 C65 0.930 . S
H61 C68 0.930 . S
H62 C70 0.930 . S
H63 C64 1.016 . S
C64 H63 1.016 . S
C64 N71 1.286 . S
C65 H60 0.930 . S
C65 C66 1.397 . S
C65 C67 1.361 . S
C66 C65 1.397 . S
C66 C70 1.390 . S
C67 C65 1.361 . S
C67 C68 1.393 . S
C67 N71 1.413 . S
C68 H61 0.930 . S
C68 C67 1.393 . S
C68 C69 1.399 . S
C69 C68 1.399 . S
C69 C70 1.381 . S
C70 H62 0.930 . S
C70 C66 1.390 . S
C70 C69 1.381 . S
N71 C64 1.286 . S
N71 C67 1.413 . S
H72 C77 0.930 . S
H73 C80 0.930 . S
H74 C82 0.930 . S
H75 C76 1.016 . S
C76 H75 1.016 . S
C76 N83 1.286 . S
C77 H72 0.930 . S
C77 C78 1.397 . S
C77 C79 1.361 . S
C78 C77 1.397 . S
C78 C82 1.390 . S
C79 C77 1.361 . S
C79 C80 1.393 . S
C79 N83 1.413 . S
C80 H73 0.930 . S
C80 C79 1.393 . S
C80 C81 1.399 . S
C81 C80 1.399 . S
C81 C82 1.381 . S
C82 H74 0.930 . S
C82 C78 1.390 . S
C82 C81 1.381 . S
N83 C76 1.286 . S
N83 C79 1.413 . S
H84 C89 0.930 . S
H85 C92 0.930 . S
H86 C94 0.930 . S
H87 C88 1.016 . S
C88 H87 1.016 . S
C88 N95 1.286 . S
C89 H84 0.930 . S
C89 C90 1.397 . S
C89 C91 1.361 . S
C90 C89 1.397 . S
C90 C94 1.390 . S
C91 C89 1.361 . S
C91 C92 1.393 . S
C91 N95 1.413 . S
C92 H85 0.930 . S
C92 C91 1.393 . S
C92 C93 1.399 . S
C93 C92 1.399 . S
C93 C94 1.381 . S
C94 H86 0.930 . S
C94 C90 1.390 . S
C94 C93 1.381 . S
N95 C88 1.286 . S
N95 C91 1.413 . S
C96 O98 1.247 1_655 S
C96 O100 1.258 . S
C97 O104 1.247 . S
C97 O105 1.258 . S
O98 C96 1.247 1_455 S
O98 Zn99 2.028 . S
Zn99 O98 2.028 . S
Zn99 O103 2.035 . S
Zn99 O105 2.035 . S
Zn99 O106 2.028 . S
O100 C96 1.258 . S
O100 Zn101 2.035 1_655 S
Zn101 O100 2.035 1_455 S
Zn101 O102 2.028 . S
Zn101 O104 2.028 . S
Zn101 O107 2.035 1_455 S
O102 Zn101 2.028 . S
O102 C108 1.247 . S
O103 Zn99 2.035 . S
O103 C108 1.258 . S
O104 C97 1.247 . S
O104 Zn101 2.028 . S
O105 C97 1.258 . S
O105 Zn99 2.035 . S
O106 Zn99 2.028 . S
O106 C109 1.247 1_455 S
O107 Zn101 2.035 1_655 S
O107 C109 1.258 . S
C108 O102 1.247 . S
C108 O103 1.258 . S
C109 O106 1.247 1_655 S
C109 O107 1.258 . S
C110 O112 1.247 . S
C110 O114 1.258 . S
C111 O118 1.247 . S
C111 O119 1.258 . S
O112 C110 1.247 . S
O112 Zn113 2.028 . S
Zn113 O112 2.028 . S
Zn113 O117 2.035 . S
Zn113 O119 2.035 . S
Zn113 O120 2.028 . S
O114 C110 1.258 . S
O114 Zn115 2.035 . S
Zn115 O114 2.035 . S
Zn115 O116 2.028 . S
Zn115 O118 2.028 . S
Zn115 O121 2.035 . S
O116 Zn115 2.028 . S
O116 C122 1.247 . S
O117 Zn113 2.035 . S
O117 C122 1.258 . S
O118 C111 1.247 . S
O118 Zn115 2.028 . S
O119 C111 1.258 . S
O119 Zn113 2.035 . S
O120 Zn113 2.028 . S
O120 C123 1.247 . S
O121 Zn115 2.035 . S
O121 C123 1.258 . S
C122 O116 1.247 . S
C122 O117 1.258 . S
C123 O120 1.247 . S
C123 O121 1.258 . S
C124 O126 1.247 . S
C124 O128 1.258 . S
C125 O132 1.247 . S
C125 O133 1.258 . S
O126 C124 1.247 . S
O126 Zn127 2.028 . S
Zn127 O126 2.028 . S
Zn127 O131 2.035 1_565 S
Zn127 O133 2.035 1_565 S
Zn127 O134 2.028 . S
O128 C124 1.258 . S
O128 Zn129 2.035 1_565 S
Zn129 O128 2.035 1_545 S
Zn129 O130 2.028 . S
Zn129 O132 2.028 . S
Zn129 O135 2.035 1_545 S
O130 Zn129 2.028 . S
O130 C136 1.247 . S
O131 Zn127 2.035 1_545 S
O131 C136 1.258 . S
O132 C125 1.247 . S
O132 Zn129 2.028 . S
O133 C125 1.258 . S
O133 Zn127 2.035 1_545 S
O134 Zn127 2.028 . S
O134 C137 1.247 . S
O135 Zn129 2.035 1_565 S
O135 C137 1.258 . S
C136 O130 1.247 . S
C136 O131 1.258 . S
C137 O134 1.247 . S
C137 O135 1.258 . S
C138 O140 1.247 . S
C138 O142 1.258 . S
C139 O146 1.247 . S
C139 O147 1.258 . S
O140 C138 1.247 . S
O140 Zn141 2.028 1_554 S
Zn141 O140 2.028 1_556 S
Zn141 O145 2.035 1_556 S
Zn141 O147 2.035 . S
Zn141 O148 2.028 . S
O142 C138 1.258 . S
O142 Zn143 2.035 . S
Zn143 O142 2.035 . S
Zn143 O144 2.028 . S
Zn143 O146 2.028 1_554 S
Zn143 O149 2.035 1_554 S
O144 Zn143 2.028 . S
O144 C150 1.247 . S
O145 Zn141 2.035 1_554 S
O145 C150 1.258 . S
O146 C139 1.247 . S
O146 Zn143 2.028 1_556 S
O147 C139 1.258 . S
O147 Zn141 2.035 . S
O148 Zn141 2.028 . S
O148 C151 1.247 . S
O149 Zn143 2.035 1_556 S
O149 C151 1.258 . S
C150 O144 1.247 . S
C150 O145 1.258 . S
C151 O148 1.247 . S
C151 O149 1.258 . S
C152 O154 1.247 . S
C152 O156 1.258 . S
C153 O160 1.247 . S
C153 O161 1.258 . S
O154 C152 1.247 . S
O154 Zn155 2.028 . S
Zn155 O154 2.028 . S
Zn155 O159 2.035 . S
Zn155 O161 2.035 . S
Zn155 O162 2.028 . S
O156 C152 1.258 . S
O156 Zn157 2.035 . S
Zn157 O156 2.035 . S
Zn157 O158 2.028 . S
Zn157 O160 2.028 . S
Zn157 O163 2.035 . S
O158 Zn157 2.028 . S
O158 C164 1.247 . S
O159 Zn155 2.035 . S
O159 C164 1.258 . S
O160 C153 1.247 . S
O160 Zn157 2.028 . S
O161 C153 1.258 . S
O161 Zn155 2.035 . S
O162 Zn155 2.028 . S
O162 C165 1.247 . S
O163 Zn157 2.035 . S
O163 C165 1.258 . S
C164 O158 1.247 . S
C164 O159 1.258 . S
C165 O162 1.247 . S
C165 O163 1.258 . S
C166 O168 1.247 . S
C166 O170 1.258 . S
C167 O174 1.247 . S
C167 O175 1.258 . S
O168 C166 1.247 . S
O168 Zn169 2.028 . S
Zn169 O168 2.028 . S
Zn169 O173 2.035 . S
Zn169 O175 2.035 . S
Zn169 O176 2.028 . S
O170 C166 1.258 . S
O170 Zn171 2.035 . S
Zn171 O170 2.035 . S
Zn171 O172 2.028 . S
Zn171 O174 2.028 . S
Zn171 O177 2.035 . S
O172 Zn171 2.028 . S
O172 C178 1.247 . S
O173 Zn169 2.035 . S
O173 C178 1.258 . S
O174 C167 1.247 . S
O174 Zn171 2.028 . S
O175 C167 1.258 . S
O175 Zn169 2.035 . S
O176 Zn169 2.028 . S
O176 C179 1.247 . S
O177 Zn171 2.035 . S
O177 C179 1.258 . S
C178 O172 1.247 . S
C178 O173 1.258 . S
C179 O176 1.247 . S
C179 O177 1.258 . S
H180 C198 0.951 . S
H181 C200 0.951 . S
H182 C202 0.950 . S
H183 C203 0.950 . S
H184 C205 0.950 . S
H185 C208 0.950 . S
H186 C209 0.950 . S
H187 C211 0.950 . S
H188 C212 0.950 . S
H189 C213 0.951 . S
H190 C215 0.951 . S
H191 C217 0.950 . S
H192 C218 0.950 . S
H193 C220 0.950 . S
H194 C223 0.950 . S
H195 C224 0.950 . S
H196 C226 0.950 . S
H197 C227 0.950 . S
C198 H180 0.951 . S
C198 C199 1.366 . S
C198 C200 1.388 . S
C199 C198 1.366 . S
C199 C203 1.385 . S
C200 H181 0.951 . S
C200 C198 1.388 . S
C200 C201 1.366 . S
C201 C200 1.366 . S
C201 C202 1.414 . S
C201 C204 1.499 . S
C202 H182 0.950 . S
C202 C201 1.414 . S
C202 C203 1.374 . S
C203 H183 0.950 . S
C203 C199 1.385 . S
C203 C202 1.374 . S
C204 C201 1.499 . S
C204 C205 1.373 . S
C204 C206 1.389 . S
C205 H184 0.950 . S
C205 C204 1.373 . S
C205 C221 1.377 . S
C206 C204 1.389 . S
C206 C207 1.524 . S
C206 C220 1.377 . S
C207 C206 1.524 . S
C207 C208 1.397 . S
C207 C212 1.363 . S
C208 H185 0.950 . S
C208 C207 1.397 . S
C208 C209 1.334 . S
C209 H186 0.950 . S
C209 C208 1.334 . S
C209 C210 1.287 . S
C210 C209 1.287 . S
C210 C211 1.524 . S
C210 H229 0.913 . S
C211 H187 0.950 . S
C211 C210 1.524 . S
C211 C212 1.415 . S
C212 H188 0.950 . S
C212 C207 1.363 . S
C212 C211 1.415 . S
C213 H189 0.951 . S
C213 C214 1.366 . S
C213 C215 1.388 . S
C214 C213 1.366 . S
C214 C218 1.385 . S
C215 H190 0.951 . S
C215 C213 1.388 . S
C215 C216 1.366 . S
C216 C215 1.366 . S
C216 C217 1.414 . S
C216 C219 1.499 . S
C217 H191 0.950 . S
C217 C216 1.414 . S
C217 C218 1.374 . S
C218 H192 0.950 . S
C218 C214 1.385 . S
C218 C217 1.374 . S
C219 C216 1.499 . S
C219 C220 1.373 . S
C219 C221 1.389 . S
C220 H193 0.950 . S
C220 C206 1.377 . S
C220 C219 1.373 . S
C221 C205 1.377 . S
C221 C219 1.389 . S
C221 C222 1.524 . S
C222 C221 1.524 . S
C222 C223 1.397 . S
C222 C227 1.363 . S
C223 H194 0.950 . S
C223 C222 1.397 . S
C223 C224 1.334 . S
C224 H195 0.950 . S
C224 C223 1.334 . S
C224 C225 1.287 . S
C225 C224 1.287 . S
C225 C226 1.524 . S
C225 H228 0.999 . S
C226 H196 0.950 . S
C226 C225 1.524 . S
C226 C227 1.415 . S
C227 H197 0.950 . S
C227 C222 1.363 . S
C227 C226 1.415 . S
H228 C225 0.999 . S
H229 C210 0.913 . S
H230 C248 0.951 . S
H231 C250 0.951 . S
H232 C252 0.950 . S
H233 C253 0.950 . S
H234 C255 0.950 . S
H235 C258 0.950 . S
H236 C259 0.950 . S
H237 C261 0.950 . S
H238 C262 0.950 . S
H239 C263 0.951 . S
H240 C265 0.951 . S
H241 C267 0.950 . S
H242 C268 0.950 . S
H243 C270 0.950 . S
H244 C273 0.950 . S
H245 C274 0.950 . S
H246 C276 0.950 . S
H247 C277 0.950 . S
C248 H230 0.951 . S
C248 C249 1.366 . S
C248 C250 1.388 . S
C249 C248 1.366 . S
C249 C253 1.385 . S
C250 H231 0.951 . S
C250 C248 1.388 . S
C250 C251 1.366 . S
C251 C250 1.366 . S
C251 C252 1.414 . S
C251 C254 1.499 . S
C252 H232 0.950 . S
C252 C251 1.414 . S
C252 C253 1.374 . S
C253 H233 0.950 . S
C253 C249 1.385 . S
C253 C252 1.374 . S
C254 C251 1.499 . S
C254 C255 1.373 . S
C254 C256 1.389 . S
C255 H234 0.950 . S
C255 C254 1.373 . S
C255 C271 1.377 . S
C256 C254 1.389 . S
C256 C257 1.524 . S
C256 C270 1.377 . S
C257 C256 1.524 . S
C257 C258 1.397 . S
C257 C262 1.363 . S
C258 H235 0.950 . S
C258 C257 1.397 . S
C258 C259 1.334 . S
C259 H236 0.950 . S
C259 C258 1.334 . S
C259 C260 1.287 . S
C260 C259 1.287 . S
C260 C261 1.524 . S
C260 H279 0.913 . S
C261 H237 0.950 . S
C261 C260 1.524 . S
C261 C262 1.415 . S
C262 H238 0.950 . S
C262 C257 1.363 . S
C262 C261 1.415 . S
C263 H239 0.951 . S
C263 C264 1.366 . S
C263 C265 1.388 . S
C264 C263 1.366 . S
C264 C268 1.385 . S
C265 H240 0.951 . S
C265 C263 1.388 . S
C265 C266 1.366 . S
C266 C265 1.366 . S
C266 C267 1.414 . S
C266 C269 1.499 . S
C267 H241 0.950 . S
C267 C266 1.414 . S
C267 C268 1.374 . S
C268 H242 0.950 . S
C268 C264 1.385 . S
C268 C267 1.374 . S
C269 C266 1.499 . S
C269 C270 1.373 . S
C269 C271 1.389 . S
C270 H243 0.950 . S
C270 C256 1.377 . S
C270 C269 1.373 . S
C271 C255 1.377 . S
C271 C269 1.389 . S
C271 C272 1.524 . S
C272 C271 1.524 . S
C272 C273 1.397 . S
C272 C277 1.363 . S
C273 H244 0.950 . S
C273 C272 1.397 . S
C273 C274 1.334 . S
C274 H245 0.950 . S
C274 C273 1.334 . S
C274 C275 1.287 . S
C275 C274 1.287 . S
C275 C276 1.524 . S
C275 H278 0.999 . S
C276 H246 0.950 . S
C276 C275 1.524 . S
C276 C277 1.415 . S
C277 H247 0.950 . S
C277 C272 1.363 . S
C277 C276 1.415 . S
H278 C275 0.999 . S
H279 C260 0.913 . S
H280 C298 0.951 . S
H281 C300 0.951 . S
H282 C302 0.950 . S
H283 C303 0.950 . S
H284 C305 0.950 . S
H285 C308 0.950 . S
H286 C309 0.950 . S
H287 C311 0.950 . S
H288 C312 0.950 . S
H289 C313 0.951 . S
H290 C315 0.951 . S
H291 C317 0.950 . S
H292 C318 0.950 . S
H293 C320 0.950 . S
H294 C323 0.950 . S
H295 C324 0.950 . S
H296 C326 0.950 . S
H297 C327 0.950 . S
C298 H280 0.951 . S
C298 C299 1.366 . S
C298 C300 1.388 . S
C299 C298 1.366 . S
C299 C303 1.385 . S
C300 H281 0.951 . S
C300 C298 1.388 . S
C300 C301 1.366 . S
C301 C300 1.366 . S
C301 C302 1.414 . S
C301 C304 1.499 . S
C302 H282 0.950 . S
C302 C301 1.414 . S
C302 C303 1.374 . S
C303 H283 0.950 . S
C303 C299 1.385 . S
C303 C302 1.374 . S
C304 C301 1.499 . S
C304 C305 1.373 . S
C304 C306 1.389 . S
C305 H284 0.950 . S
C305 C304 1.373 . S
C305 C321 1.377 . S
C306 C304 1.389 . S
C306 C307 1.524 . S
C306 C320 1.377 . S
C307 C306 1.524 . S
C307 C308 1.397 . S
C307 C312 1.363 . S
C308 H285 0.950 . S
C308 C307 1.397 . S
C308 C309 1.334 . S
C309 H286 0.950 . S
C309 C308 1.334 . S
C309 C310 1.287 . S
C310 C309 1.287 . S
C310 C311 1.524 . S
C310 H329 0.913 . S
C311 H287 0.950 . S
C311 C310 1.524 . S
C311 C312 1.415 . S
C312 H288 0.950 . S
C312 C307 1.363 . S
C312 C311 1.415 . S
C313 H289 0.951 . S
C313 C314 1.366 . S
C313 C315 1.388 . S
C314 C313 1.366 . S
C314 C318 1.385 . S
C315 H290 0.951 . S
C315 C313 1.388 . S
C315 C316 1.366 . S
C316 C315 1.366 . S
C316 C317 1.414 . S
C316 C319 1.499 . S
C317 H291 0.950 . S
C317 C316 1.414 . S
C317 C318 1.374 . S
C318 H292 0.950 . S
C318 C314 1.385 . S
C318 C317 1.374 . S
C319 C316 1.499 . S
C319 C320 1.373 . S
C319 C321 1.389 . S
C320 H293 0.950 . S
C320 C306 1.377 . S
C320 C319 1.373 . S
C321 C305 1.377 . S
C321 C319 1.389 . S
C321 C322 1.524 . S
C322 C321 1.524 . S
C322 C323 1.397 . S
C322 C327 1.363 . S
C323 H294 0.950 . S
C323 C322 1.397 . S
C323 C324 1.334 1_655 S
C324 H295 0.950 . S
C324 C323 1.334 1_455 S
C324 C325 1.287 . S
C325 C324 1.287 . S
C325 C326 1.524 . S
C325 H328 0.999 . S
C326 H296 0.950 . S
C326 C325 1.524 . S
C326 C327 1.415 1_455 S
C327 H297 0.950 . S
C327 C322 1.363 . S
C327 C326 1.415 1_655 S
H328 C325 0.999 . S
H329 C310 0.913 . S
H330 C348 0.951 . S
H331 C350 0.951 . S
H332 C352 0.950 . S
H333 C353 0.950 . S
H334 C355 0.950 . S
H335 C358 0.950 . S
H336 C359 0.950 . S
H337 C361 0.950 . S
H338 C362 0.950 . S
H339 C363 0.963 . S
H340 C365 0.951 . S
H341 C367 0.950 . S
H342 C368 0.950 . S
H343 C370 0.950 . S
H344 C373 0.950 . S
H345 C374 0.950 . S
H346 C376 0.950 . S
H347 C377 0.950 . S
C348 H330 0.951 . S
C348 C349 1.366 . S
C348 C350 1.388 . S
C349 C348 1.366 . S
C349 C353 1.385 . S
C350 H331 0.951 . S
C350 C348 1.388 . S
C350 C351 1.366 . S
C351 C350 1.366 . S
C351 C352 1.414 . S
C351 C354 1.499 . S
C352 H332 0.950 . S
C352 C351 1.414 . S
C352 C353 1.374 . S
C353 H333 0.950 . S
C353 C349 1.385 . S
C353 C352 1.374 . S
C354 C351 1.499 . S
C354 C355 1.373 . S
C354 C356 1.389 . S
C355 H334 0.950 . S
C355 C354 1.373 . S
C355 C371 1.377 . S
C356 C354 1.389 . S
C356 C357 1.524 . S
C356 C370 1.377 . S
C357 C356 1.524 . S
C357 C358 1.397 . S
C357 C362 1.363 . S
C358 H335 0.950 . S
C358 C357 1.397 . S
C358 C359 1.334 . S
C359 H336 0.950 . S
C359 C358 1.334 . S
C359 C360 1.287 . S
C360 C359 1.287 . S
C360 C361 1.524 . S
C360 H379 0.913 . S
C361 H337 0.950 . S
C361 C360 1.524 . S
C361 C362 1.415 . S
C362 H338 0.950 . S
C362 C357 1.363 . S
C362 C361 1.415 . S
C363 H339 0.963 . S
C363 C364 1.366 . S
C363 C365 1.388 . S
C364 C363 1.366 . S
C364 C368 1.385 . S
C365 H340 0.951 . S
C365 C363 1.388 . S
C365 C366 1.366 . S
C366 C365 1.366 . S
C366 C367 1.414 . S
C366 C369 1.499 . S
C367 H341 0.950 . S
C367 C366 1.414 . S
C367 C368 1.374 . S
C368 H342 0.950 . S
C368 C364 1.385 . S
C368 C367 1.374 . S
C369 C366 1.499 . S
C369 C370 1.373 . S
C369 C371 1.389 . S
C370 H343 0.950 . S
C370 C356 1.377 . S
C370 C369 1.373 . S
C371 C355 1.377 . S
C371 C369 1.389 . S
C371 C372 1.524 . S
C372 C371 1.524 . S
C372 C373 1.397 . S
C372 C377 1.363 . S
C373 H344 0.950 . S
C373 C372 1.397 . S
C373 C374 1.334 . S
C374 H345 0.950 . S
C374 C373 1.334 . S
C374 C375 1.287 . S
C375 C374 1.287 . S
C375 C376 1.524 . S
C375 H378 0.999 1_655 S
C376 H346 0.950 . S
C376 C375 1.524 . S
C376 C377 1.415 . S
C377 H347 0.950 . S
C377 C372 1.363 . S
C377 C376 1.415 . S
H378 C375 0.999 1_455 S
H379 C360 0.913 . S
H380 C398 0.951 . S
H381 C400 0.951 . S
H382 C402 0.950 . S
H383 C403 0.950 . S
H384 C405 0.950 . S
H385 C408 0.950 . S
H386 C409 0.950 . S
H387 C411 0.950 . S
H388 C412 0.950 . S
H389 C413 0.951 . S
H390 C415 0.951 . S
H391 C417 0.950 . S
H392 C418 0.950 . S
H393 C420 0.950 . S
H394 C423 0.950 . S
H395 C424 0.950 . S
H396 C426 0.950 . S
H397 C427 0.950 . S
C398 H380 0.951 . S
C398 C399 1.366 . S
C398 C400 1.388 . S
C399 C398 1.366 . S
C399 C403 1.385 . S
C400 H381 0.951 . S
C400 C398 1.388 . S
C400 C401 1.366 . S
C401 C400 1.366 . S
C401 C402 1.414 . S
C401 C404 1.499 . S
C402 H382 0.950 . S
C402 C401 1.414 . S
C402 C403 1.374 . S
C403 H383 0.950 . S
C403 C399 1.385 . S
C403 C402 1.374 . S
C404 C401 1.499 . S
C404 C405 1.373 . S
C404 C406 1.389 . S
C405 H384 0.950 . S
C405 C404 1.373 . S
C405 C421 1.377 . S
C406 C404 1.389 . S
C406 C407 1.524 . S
C406 C420 1.377 . S
C407 C406 1.524 . S
C407 C408 1.397 . S
C407 C412 1.363 . S
C408 H385 0.950 . S
C408 C407 1.397 . S
C408 C409 1.334 . S
C409 H386 0.950 . S
C409 C408 1.334 . S
C409 C410 1.287 . S
C410 C409 1.287 . S
C410 C411 1.524 . S
C410 H429 0.913 . S
C411 H387 0.950 . S
C411 C410 1.524 . S
C411 C412 1.415 . S
C412 H388 0.950 . S
C412 C407 1.363 . S
C412 C411 1.415 . S
C413 H389 0.951 . S
C413 C414 1.366 . S
C413 C415 1.388 . S
C414 C413 1.366 . S
C414 C418 1.385 . S
C415 H390 0.951 . S
C415 C413 1.388 . S
C415 C416 1.366 . S
C416 C415 1.366 . S
C416 C417 1.414 . S
C416 C419 1.499 . S
C417 H391 0.950 . S
C417 C416 1.414 . S
C417 C418 1.374 . S
C418 H392 0.950 . S
C418 C414 1.385 . S
C418 C417 1.374 . S
C419 C416 1.499 . S
C419 C420 1.373 . S
C419 C421 1.389 . S
C420 H393 0.950 . S
C420 C406 1.377 . S
C420 C419 1.373 . S
C421 C405 1.377 . S
C421 C419 1.389 . S
C421 C422 1.524 . S
C422 C421 1.524 . S
C422 C423 1.397 . S
C422 C427 1.363 . S
C423 H394 0.950 . S
C423 C422 1.397 . S
C423 C424 1.334 . S
C424 H395 0.950 . S
C424 C423 1.334 . S
C424 C425 1.287 . S
C425 C424 1.287 . S
C425 C426 1.524 . S
C425 H428 0.999 . S
C426 H396 0.950 . S
C426 C425 1.524 . S
C426 C427 1.415 . S
C427 H397 0.950 . S
C427 C422 1.363 . S
C427 C426 1.415 . S
H428 C425 0.999 . S
H429 C410 0.913 . S
H430 C448 0.951 . S
H431 C450 0.951 . S
H432 C452 0.950 . S
H433 C453 0.950 . S
H434 C455 0.950 . S
H435 C458 0.950 . S
H436 C459 0.950 . S
H437 C461 0.950 . S
H438 C462 0.950 . S
H439 C463 0.951 . S
H440 C465 0.951 . S
H441 C467 0.950 . S
H442 C468 0.950 . S
H443 C470 0.950 . S
H444 C473 0.950 . S
H445 C474 0.950 . S
H446 C476 0.950 . S
H447 C477 0.950 . S
C448 H430 0.951 . S
C448 C449 1.366 . S
C448 C450 1.388 . S
C449 C448 1.366 . S
C449 C453 1.385 . S
C450 H431 0.951 . S
C450 C448 1.388 . S
C450 C451 1.366 . S
C451 C450 1.366 . S
C451 C452 1.414 . S
C451 C454 1.499 . S
C452 H432 0.950 . S
C452 C451 1.414 . S
C452 C453 1.374 . S
C453 H433 0.950 . S
C453 C449 1.385 . S
C453 C452 1.374 . S
C454 C451 1.499 . S
C454 C455 1.373 . S
C454 C456 1.389 . S
C455 H434 0.950 . S
C455 C454 1.373 . S
C455 C471 1.377 . S
C456 C454 1.389 . S
C456 C457 1.524 . S
C456 C470 1.377 . S
C457 C456 1.524 . S
C457 C458 1.397 . S
C457 C462 1.363 . S
C458 H435 0.950 . S
C458 C457 1.397 . S
C458 C459 1.334 . S
C459 H436 0.950 . S
C459 C458 1.334 . S
C459 C460 1.287 . S
C460 C459 1.287 . S
C460 C461 1.524 . S
C460 H479 0.913 . S
C461 H437 0.950 . S
C461 C460 1.524 . S
C461 C462 1.415 . S
C462 H438 0.950 . S
C462 C457 1.363 . S
C462 C461 1.415 . S
C463 H439 0.951 . S
C463 C464 1.366 . S
C463 C465 1.388 . S
C464 C463 1.366 . S
C464 C468 1.385 . S
C465 H440 0.951 . S
C465 C463 1.388 . S
C465 C466 1.366 . S
C466 C465 1.366 . S
C466 C467 1.414 . S
C466 C469 1.499 . S
C467 H441 0.950 . S
C467 C466 1.414 . S
C467 C468 1.374 . S
C468 H442 0.950 . S
C468 C464 1.385 . S
C468 C467 1.374 . S
C469 C466 1.499 . S
C469 C470 1.373 . S
C469 C471 1.389 . S
C470 H443 0.950 . S
C470 C456 1.377 . S
C470 C469 1.373 . S
C471 C455 1.377 . S
C471 C469 1.389 . S
C471 C472 1.524 . S
C472 C471 1.524 . S
C472 C473 1.397 . S
C472 C477 1.363 . S
C473 H444 0.950 . S
C473 C472 1.397 . S
C473 C474 1.334 . S
C474 H445 0.950 . S
C474 C473 1.334 . S
C474 C475 1.287 . S
C475 C474 1.287 . S
C475 C476 1.524 . S
C475 H478 0.999 . S
C476 H446 0.950 . S
C476 C475 1.524 . S
C476 C477 1.415 . S
C477 H447 0.950 . S
C477 C472 1.363 . S
C477 C476 1.415 . S
H478 C475 0.999 . S
H479 C460 0.913 . S
H480 C498 0.951 . S
H481 C500 0.951 . S
H482 C502 0.950 . S
H483 C503 0.950 . S
H484 C505 0.950 . S
H485 C508 0.950 . S
H486 C509 0.950 . S
H487 C511 0.950 . S
H488 C512 0.950 . S
H489 C513 0.951 1_545 S
H490 C515 0.951 . S
H491 C517 0.950 . S
H492 C518 0.950 . S
H493 C520 0.950 . S
H494 C523 0.950 . S
H495 C524 0.950 . S
H496 C526 0.950 . S
H497 C527 0.950 . S
C498 H480 0.951 . S
C498 C499 1.366 . S
C498 C500 1.388 . S
C499 C498 1.366 . S
C499 C503 1.385 . S
C500 H481 0.951 . S
C500 C498 1.388 . S
C500 C501 1.366 . S
C501 C500 1.366 . S
C501 C502 1.414 . S
C501 C504 1.499 . S
C502 H482 0.950 . S
C502 C501 1.414 . S
C502 C503 1.374 . S
C503 H483 0.950 . S
C503 C499 1.385 . S
C503 C502 1.374 . S
C504 C501 1.499 . S
C504 C505 1.373 . S
C504 C506 1.389 . S
C505 H484 0.950 . S
C505 C504 1.373 . S
C505 C521 1.377 . S
C506 C504 1.389 . S
C506 C507 1.524 . S
C506 C520 1.377 . S
C507 C506 1.524 . S
C507 C508 1.397 . S
C507 C512 1.363 . S
C508 H485 0.950 . S
C508 C507 1.397 . S
C508 C509 1.334 . S
C509 H486 0.950 . S
C509 C508 1.334 . S
C509 C510 1.287 . S
C510 C509 1.287 . S
C510 C511 1.524 . S
C510 H529 0.913 . S
C511 H487 0.950 . S
C511 C510 1.524 . S
C511 C512 1.415 . S
C512 H488 0.950 . S
C512 C507 1.363 . S
C512 C511 1.415 . S
C513 H489 0.951 1_565 S
C513 C514 1.366 . S
C513 C515 1.388 . S
C514 C513 1.366 . S
C514 C518 1.385 . S
C515 H490 0.951 . S
C515 C513 1.388 . S
C515 C516 1.366 . S
C516 C515 1.366 . S
C516 C517 1.414 . S
C516 C519 1.499 . S
C517 H491 0.950 . S
C517 C516 1.414 . S
C517 C518 1.374 . S
C518 H492 0.950 . S
C518 C514 1.385 . S
C518 C517 1.374 . S
C519 C516 1.499 . S
C519 C520 1.373 . S
C519 C521 1.389 . S
C520 H493 0.950 . S
C520 C506 1.377 . S
C520 C519 1.373 . S
C521 C505 1.377 . S
C521 C519 1.389 . S
C521 C522 1.524 . S
C522 C521 1.524 . S
C522 C523 1.397 . S
C522 C527 1.363 . S
C523 H494 0.950 . S
C523 C522 1.397 . S
C523 C524 1.334 . S
C524 H495 0.950 . S
C524 C523 1.334 . S
C524 C525 1.287 . S
C525 C524 1.287 . S
C525 C526 1.524 . S
C525 H528 0.999 . S
C526 H496 0.950 . S
C526 C525 1.524 . S
C526 C527 1.415 . S
C527 H497 0.950 . S
C527 C522 1.363 . S
C527 C526 1.415 . S
H528 C525 0.999 . S
H529 C510 0.913 . S
H530 C548 0.951 . S
H531 C550 0.951 . S
H532 C552 0.950 . S
H533 C553 0.950 . S
H534 C555 0.950 . S
H535 C558 0.950 . S
H536 C559 0.950 . S
H537 C561 0.950 . S
H538 C562 0.950 . S
H539 C563 0.951 . S
H540 C565 0.951 1_556 S
H541 C567 0.950 . S
H542 C568 0.950 . S
H543 C570 0.950 . S
H544 C573 0.950 . S
H545 C574 0.950 . S
H546 C576 0.950 . S
H547 C577 0.950 . S
C548 H530 0.951 . S
C548 C549 1.366 . S
C548 C550 1.388 . S
C549 C548 1.366 . S
C549 C553 1.385 . S
C550 H531 0.951 . S
C550 C548 1.388 . S
C550 C551 1.366 . S
C551 C550 1.366 . S
C551 C552 1.414 . S
C551 C554 1.499 . S
C552 H532 0.950 . S
C552 C551 1.414 . S
C552 C553 1.374 . S
C553 H533 0.950 . S
C553 C549 1.385 . S
C553 C552 1.374 . S
C554 C551 1.499 . S
C554 C555 1.373 . S
C554 C556 1.389 1_556 S
C555 H534 0.950 . S
C555 C554 1.373 . S
C555 C571 1.377 . S
C556 C554 1.389 1_554 S
C556 C557 1.524 . S
C556 C570 1.377 . S
C557 C556 1.524 . S
C557 C558 1.397 1_554 S
C557 C562 1.363 . S
C558 H535 0.950 . S
C558 C557 1.397 1_556 S
C558 C559 1.334 . S
C559 H536 0.950 . S
C559 C558 1.334 . S
C559 C560 1.287 1_556 S
C560 C559 1.287 1_554 S
C560 C561 1.524 . S
C560 H579 0.913 . S
C561 H537 0.950 . S
C561 C560 1.524 . S
C561 C562 1.415 . S
C562 H538 0.950 . S
C562 C557 1.363 . S
C562 C561 1.415 . S
C563 H539 0.951 . S
C563 C564 1.366 . S
C563 C565 1.388 . S
C564 C563 1.366 . S
C564 C568 1.385 . S
C565 H540 0.951 1_554 S
C565 C563 1.388 . S
C565 C566 1.366 . S
C566 C565 1.366 . S
C566 C567 1.414 . S
C566 C569 1.499 . S
C567 H541 0.950 . S
C567 C566 1.414 . S
C567 C568 1.374 . S
C568 H542 0.950 . S
C568 C564 1.385 . S
C568 C567 1.374 . S
C569 C566 1.499 . S
C569 C570 1.373 . S
C569 C571 1.389 1_554 S
C570 H543 0.950 . S
C570 C556 1.377 . S
C570 C569 1.373 . S
C571 C555 1.377 . S
C571 C569 1.389 1_556 S
C571 C572 1.524 . S
C572 C571 1.524 . S
C572 C573 1.397 1_556 S
C572 C577 1.363 . S
C573 H544 0.950 . S
C573 C572 1.397 1_554 S
C573 C574 1.334 . S
C574 H545 0.950 . S
C574 C573 1.334 . S
C574 C575 1.287 1_554 S
C575 C574 1.287 1_556 S
C575 C576 1.524 . S
C575 H578 0.999 . S
C576 H546 0.950 . S
C576 C575 1.524 . S
C576 C577 1.415 . S
C577 H547 0.950 . S
C577 C572 1.363 . S
C577 C576 1.415 . S
H578 C575 0.999 . S
H579 C560 0.913 . S
H580 C598 0.951 . S
H581 C600 0.951 . S
H582 C602 0.950 . S
H583 C603 0.950 . S
H584 C605 0.950 . S
H585 C608 0.950 . S
H586 C609 0.950 . S
H587 C611 0.950 . S
H588 C612 0.950 . S
H589 C613 0.951 . S
H590 C615 0.951 . S
H591 C617 0.950 . S
H592 C618 0.950 . S
H593 C620 0.950 . S
H594 C623 0.950 . S
H595 C624 0.950 . S
H596 C626 0.950 . S
H597 C627 0.950 . S
C598 H580 0.951 . S
C598 C599 1.366 . S
C598 C600 1.388 . S
C599 C598 1.366 . S
C599 C603 1.385 . S
C600 H581 0.951 . S
C600 C598 1.388 . S
C600 C601 1.366 . S
C601 C600 1.366 . S
C601 C602 1.414 . S
C601 C604 1.499 . S
C602 H582 0.950 . S
C602 C601 1.414 . S
C602 C603 1.374 . S
C603 H583 0.950 . S
C603 C599 1.385 . S
C603 C602 1.374 . S
C604 C601 1.499 . S
C604 C605 1.373 . S
C604 C606 1.389 . S
C605 H584 0.950 . S
C605 C604 1.373 . S
C605 C621 1.377 . S
C606 C604 1.389 . S
C606 C607 1.524 . S
C606 C620 1.377 . S
C607 C606 1.524 . S
C607 C608 1.397 . S
C607 C612 1.363 . S
C608 H585 0.950 . S
C608 C607 1.397 . S
C608 C609 1.334 . S
C609 H586 0.950 . S
C609 C608 1.334 . S
C609 C610 1.287 . S
C610 C609 1.287 . S
C610 C611 1.524 . S
C610 H629 0.913 . S
C611 H587 0.950 . S
C611 C610 1.524 . S
C611 C612 1.415 . S
C612 H588 0.950 . S
C612 C607 1.363 . S
C612 C611 1.415 . S
C613 H589 0.951 . S
C613 C614 1.366 . S
C613 C615 1.388 . S
C614 C613 1.366 . S
C614 C618 1.385 . S
C615 H590 0.951 . S
C615 C613 1.388 . S
C615 C616 1.366 . S
C616 C615 1.366 . S
C616 C617 1.414 . S
C616 C619 1.499 . S
C617 H591 0.950 . S
C617 C616 1.414 . S
C617 C618 1.374 . S
C618 H592 0.950 . S
C618 C614 1.385 . S
C618 C617 1.374 . S
C619 C616 1.499 . S
C619 C620 1.373 . S
C619 C621 1.389 . S
C620 H593 0.950 . S
C620 C606 1.377 . S
C620 C619 1.373 . S
C621 C605 1.377 . S
C621 C619 1.389 . S
C621 C622 1.524 . S
C622 C621 1.524 . S
C622 C623 1.397 . S
C622 C627 1.363 . S
C623 H594 0.950 . S
C623 C622 1.397 . S
C623 C624 1.334 . S
C624 H595 0.950 . S
C624 C623 1.334 . S
C624 C625 1.287 . S
C625 C624 1.287 . S
C625 C626 1.524 . S
C625 H628 0.999 . S
C626 H596 0.950 . S
C626 C625 1.524 . S
C626 C627 1.415 . S
C627 H597 0.950 . S
C627 C622 1.363 . S
C627 C626 1.415 . S
H628 C625 0.999 . S
H629 C610 0.913 . S
H630 C648 0.951 . S
H631 C650 0.951 . S
H632 C652 0.950 . S
H633 C653 0.950 . S
H634 C655 0.950 . S
H635 C658 0.950 . S
H636 C659 0.950 . S
H637 C661 0.950 . S
H638 C662 0.950 . S
H639 C663 0.951 . S
H640 C665 0.951 . S
H641 C667 0.950 . S
H642 C668 0.950 . S
H643 C670 0.950 . S
H644 C673 0.950 . S
H645 C674 0.950 . S
H646 C676 0.950 . S
H647 C677 0.950 . S
C648 H630 0.951 . S
C648 C649 1.366 . S
C648 C650 1.388 . S
C649 C648 1.366 . S
C649 C653 1.385 . S
C650 H631 0.951 . S
C650 C648 1.388 . S
C650 C651 1.366 . S
C651 C650 1.366 . S
C651 C652 1.414 . S
C651 C654 1.499 . S
C652 H632 0.950 . S
C652 C651 1.414 . S
C652 C653 1.374 . S
C653 H633 0.950 . S
C653 C649 1.385 . S
C653 C652 1.374 . S
C654 C651 1.499 . S
C654 C655 1.373 . S
C654 C656 1.389 . S
C655 H634 0.950 . S
C655 C654 1.373 . S
C655 C671 1.377 . S
C656 C654 1.389 . S
C656 C657 1.524 . S
C656 C670 1.377 . S
C657 C656 1.524 . S
C657 C658 1.397 . S
C657 C662 1.363 . S
C658 H635 0.950 . S
C658 C657 1.397 . S
C658 C659 1.334 . S
C659 H636 0.950 . S
C659 C658 1.334 . S
C659 C660 1.287 . S
C660 C659 1.287 . S
C660 C661 1.524 . S
C660 H679 0.913 . S
C661 H637 0.950 . S
C661 C660 1.524 . S
C661 C662 1.415 . S
C662 H638 0.950 . S
C662 C657 1.363 . S
C662 C661 1.415 . S
C663 H639 0.951 . S
C663 C664 1.366 . S
C663 C665 1.388 . S
C664 C663 1.366 . S
C664 C668 1.385 . S
C665 H640 0.951 . S
C665 C663 1.388 . S
C665 C666 1.366 . S
C666 C665 1.366 . S
C666 C667 1.414 . S
C666 C669 1.499 . S
C667 H641 0.950 . S
C667 C666 1.414 . S
C667 C668 1.374 . S
C668 H642 0.950 . S
C668 C664 1.385 . S
C668 C667 1.374 . S
C669 C666 1.499 . S
C669 C670 1.373 . S
C669 C671 1.389 . S
C670 H643 0.950 . S
C670 C656 1.377 . S
C670 C669 1.373 . S
C671 C655 1.377 . S
C671 C669 1.389 . S
C671 C672 1.524 . S
C672 C671 1.524 . S
C672 C673 1.397 . S
C672 C677 1.363 . S
C673 H644 0.950 . S
C673 C672 1.397 . S
C673 C674 1.334 . S
C674 H645 0.950 . S
C674 C673 1.334 . S
C674 C675 1.287 . S
C675 C674 1.287 . S
C675 C676 1.524 . S
C675 H678 0.999 . S
C676 H646 0.950 . S
C676 C675 1.524 . S
C676 C677 1.415 . S
C677 H647 0.950 . S
C677 C672 1.363 . S
C677 C676 1.415 . S
H678 C675 0.999 . S
H679 C660 0.913 . S
H680 C698 0.951 . S
H681 C700 0.951 . S
H682 C702 0.950 . S
H683 C703 0.950 . S
H684 C705 0.950 . S
H685 C708 0.950 . S
H686 C709 0.950 . S
H687 C711 0.950 . S
H688 C712 0.950 . S
H689 C713 0.951 . S
H690 C715 0.951 . S
H691 C717 0.950 . S
H692 C718 0.950 . S
H693 C720 0.950 . S
H694 C723 0.950 . S
H695 C724 0.950 . S
H696 C726 0.950 . S
H697 C727 0.950 . S
C698 H680 0.951 . S
C698 C699 1.366 . S
C698 C700 1.388 . S
C699 C698 1.366 . S
C699 C703 1.385 . S
C700 H681 0.951 . S
C700 C698 1.388 . S
C700 C701 1.366 . S
C701 C700 1.366 . S
C701 C702 1.414 . S
C701 C704 1.499 . S
C702 H682 0.950 . S
C702 C701 1.414 . S
C702 C703 1.374 . S
C703 H683 0.950 . S
C703 C699 1.385 . S
C703 C702 1.374 . S
C704 C701 1.499 . S
C704 C705 1.373 . S
C704 C706 1.389 . S
C705 H684 0.950 . S
C705 C704 1.373 . S
C705 C721 1.377 . S
C706 C704 1.389 . S
C706 C707 1.524 . S
C706 C720 1.377 . S
C707 C706 1.524 . S
C707 C708 1.397 . S
C707 C712 1.363 . S
C708 H685 0.950 . S
C708 C707 1.397 . S
C708 C709 1.334 . S
C709 H686 0.950 . S
C709 C708 1.334 . S
C709 C710 1.287 . S
C710 C709 1.287 . S
C710 C711 1.524 . S
C710 H729 0.913 . S
C711 H687 0.950 . S
C711 C710 1.524 . S
C711 C712 1.415 . S
C712 H688 0.950 . S
C712 C707 1.363 . S
C712 C711 1.415 . S
C713 H689 0.951 . S
C713 C714 1.366 . S
C713 C715 1.388 . S
C714 C713 1.366 . S
C714 C718 1.385 . S
C715 H690 0.951 . S
C715 C713 1.388 . S
C715 C716 1.366 . S
C716 C715 1.366 . S
C716 C717 1.414 . S
C716 C719 1.499 . S
C717 H691 0.950 . S
C717 C716 1.414 . S
C717 C718 1.374 . S
C718 H692 0.950 . S
C718 C714 1.385 . S
C718 C717 1.374 . S
C719 C716 1.499 . S
C719 C720 1.373 . S
C719 C721 1.389 . S
C720 H693 0.950 . S
C720 C706 1.377 . S
C720 C719 1.373 . S
C721 C705 1.377 . S
C721 C719 1.389 . S
C721 C722 1.524 . S
C722 C721 1.524 . S
C722 C723 1.397 . S
C722 C727 1.363 . S
C723 H694 0.950 . S
C723 C722 1.397 . S
C723 C724 1.334 . S
C724 H695 0.950 . S
C724 C723 1.334 . S
C724 C725 1.287 . S
C725 C724 1.287 . S
C725 C726 1.524 . S
C725 H728 0.999 . S
C726 H696 0.950 . S
C726 C725 1.524 . S
C726 C727 1.415 . S
C727 H697 0.950 . S
C727 C722 1.363 . S
C727 C726 1.415 . S
H728 C725 0.999 . S
H729 C710 0.913 . S
H730 C748 0.951 . S
H731 C750 0.951 . S
H732 C752 0.950 . S
H733 C753 0.950 . S
H734 C755 0.950 . S
H735 C758 0.950 . S
H736 C759 0.950 . S
H737 C761 0.950 . S
H738 C762 0.950 . S
H739 C763 0.951 . S
H740 C765 0.951 . S
H741 C767 0.950 . S
H742 C768 0.950 . S
H743 C770 0.950 . S
H744 C773 0.950 . S
H745 C774 0.950 . S
H746 C776 0.950 . S
H747 C777 0.950 . S
C748 H730 0.951 . S
C748 C749 1.366 . S
C748 C750 1.388 . S
C749 C748 1.366 . S
C749 C753 1.385 . S
C750 H731 0.951 . S
C750 C748 1.388 . S
C750 C751 1.366 . S
C751 C750 1.366 . S
C751 C752 1.414 . S
C751 C754 1.499 . S
C752 H732 0.950 . S
C752 C751 1.414 . S
C752 C753 1.374 . S
C753 H733 0.950 . S
C753 C749 1.385 . S
C753 C752 1.374 . S
C754 C751 1.499 . S
C754 C755 1.373 . S
C754 C756 1.389 . S
C755 H734 0.950 . S
C755 C754 1.373 . S
C755 C771 1.377 . S
C756 C754 1.389 . S
C756 C757 1.524 . S
C756 C770 1.377 . S
C757 C756 1.524 . S
C757 C758 1.397 . S
C757 C762 1.363 . S
C758 H735 0.950 . S
C758 C757 1.397 . S
C758 C759 1.334 . S
C759 H736 0.950 . S
C759 C758 1.334 . S
C759 C760 1.287 . S
C760 C759 1.287 . S
C760 C761 1.524 . S
C760 H779 0.913 . S
C761 H737 0.950 . S
C761 C760 1.524 . S
C761 C762 1.415 . S
C762 H738 0.950 . S
C762 C757 1.363 . S
C762 C761 1.415 . S
C763 H739 0.951 . S
C763 C764 1.366 . S
C763 C765 1.388 . S
C764 C763 1.366 . S
C764 C768 1.385 . S
C765 H740 0.951 . S
C765 C763 1.388 . S
C765 C766 1.366 . S
C766 C765 1.366 . S
C766 C767 1.414 . S
C766 C769 1.499 . S
C767 H741 0.950 . S
C767 C766 1.414 . S
C767 C768 1.374 . S
C768 H742 0.950 . S
C768 C764 1.385 . S
C768 C767 1.374 . S
C769 C766 1.499 . S
C769 C770 1.373 . S
C769 C771 1.389 . S
C770 H743 0.950 . S
C770 C756 1.377 . S
C770 C769 1.373 . S
C771 C755 1.377 . S
C771 C769 1.389 . S
C771 C772 1.524 . S
C772 C771 1.524 . S
C772 C773 1.397 . S
C772 C777 1.363 . S
C773 H744 0.950 . S
C773 C772 1.397 . S
C773 C774 1.334 . S
C774 H745 0.950 . S
C774 C773 1.334 . S
C774 C775 1.287 . S
C775 C774 1.287 . S
C775 C776 1.524 . S
C775 H778 0.999 . S
C776 H746 0.950 . S
C776 C775 1.524 . S
C776 C777 1.415 . S
C777 H747 0.950 . S
C777 C772 1.363 . S
C777 C776 1.415 . S
H778 C775 0.999 . S
H779 C760 0.913 . S
H780 C798 0.951 . S
H781 C800 0.951 . S
H782 C802 0.950 . S
H783 C803 0.950 . S
H784 C805 0.950 . S
H785 C808 0.950 . S
H786 C809 0.950 . S
H787 C811 0.950 . S
H788 C812 0.950 . S
H789 C813 0.951 . S
H790 C815 0.951 . S
H791 C817 0.950 . S
H792 C818 0.958 . S
H793 C820 0.950 . S
H794 C823 0.950 . S
H795 C824 0.950 . S
H796 C826 0.950 . S
H797 C827 0.950 . S
C798 H780 0.951 . S
C798 C799 1.366 . S
C798 C800 1.388 . S
C799 C798 1.366 . S
C799 C803 1.385 . S
C800 H781 0.951 . S
C800 C798 1.388 . S
C800 C801 1.366 . S
C801 C800 1.366 . S
C801 C802 1.414 . S
C801 C804 1.499 . S
C802 H782 0.950 . S
C802 C801 1.414 . S
C802 C803 1.374 . S
C803 H783 0.950 . S
C803 C799 1.385 . S
C803 C802 1.374 . S
C804 C801 1.499 . S
C804 C805 1.373 . S
C804 C806 1.389 . S
C805 H784 0.950 . S
C805 C804 1.373 . S
C805 C821 1.377 . S
C806 C804 1.389 . S
C806 C807 1.524 . S
C806 C820 1.377 . S
C807 C806 1.524 . S
C807 C808 1.397 . S
C807 C812 1.363 . S
C808 H785 0.950 . S
C808 C807 1.397 . S
C808 C809 1.334 . S
C809 H786 0.950 . S
C809 C808 1.334 . S
C809 C810 1.287 . S
C810 C809 1.287 . S
C810 C811 1.524 . S
C810 H829 0.913 . S
C811 H787 0.950 . S
C811 C810 1.524 . S
C811 C812 1.415 . S
C812 H788 0.950 . S
C812 C807 1.363 . S
C812 C811 1.415 . S
C813 H789 0.951 . S
C813 C814 1.366 1_655 S
C813 C815 1.388 . S
C814 C813 1.366 1_455 S
C814 C818 1.397 . S
C815 H790 0.951 . S
C815 C813 1.388 . S
C815 C816 1.366 . S
C816 C815 1.366 . S
C816 C817 1.414 . S
C816 C819 1.499 . S
C817 H791 0.950 . S
C817 C816 1.414 . S
C817 C818 1.354 1_655 S
C818 H792 0.958 . S
C818 C814 1.397 . S
C818 C817 1.354 1_455 S
C819 C816 1.499 . S
C819 C820 1.373 . S
C819 C821 1.389 . S
C820 H793 0.950 . S
C820 C806 1.377 . S
C820 C819 1.373 . S
C821 C805 1.377 . S
C821 C819 1.389 . S
C821 C822 1.524 . S
C822 C821 1.524 . S
C822 C823 1.397 . S
C822 C827 1.363 . S
C823 H794 0.950 . S
C823 C822 1.397 . S
C823 C824 1.334 . S
C824 H795 0.950 . S
C824 C823 1.334 . S
C824 C825 1.287 . S
C825 C824 1.287 . S
C825 C826 1.524 . S
C825 H828 0.999 . S
C826 H796 0.950 . S
C826 C825 1.524 . S
C826 C827 1.415 . S
C827 H797 0.950 . S
C827 C822 1.363 . S
C827 C826 1.415 . S
H828 C825 0.999 . S
H829 C810 0.913 . S
H830 C848 0.951 . S
H831 C850 0.951 . S
H832 C852 0.950 . S
H833 C853 0.950 . S
H834 C855 0.950 . S
H835 C858 0.950 . S
H836 C859 0.950 . S
H837 C861 0.950 . S
H838 C862 0.950 . S
H839 C863 0.951 . S
H840 C865 0.951 . S
H841 C867 0.950 . S
H842 C868 0.950 . S
H843 C870 0.950 . S
H844 C873 0.950 . S
H845 C874 0.950 . S
H846 C876 0.950 . S
H847 C877 0.950 . S
C848 H830 0.951 . S
C848 C849 1.366 . S
C848 C850 1.388 . S
C849 C848 1.366 . S
C849 C853 1.385 . S
C850 H831 0.951 . S
C850 C848 1.388 . S
C850 C851 1.366 . S
C851 C850 1.366 . S
C851 C852 1.414 . S
C851 C854 1.499 . S
C852 H832 0.950 . S
C852 C851 1.414 . S
C852 C853 1.374 . S
C853 H833 0.950 . S
C853 C849 1.385 . S
C853 C852 1.374 . S
C854 C851 1.499 . S
C854 C855 1.373 . S
C854 C856 1.389 . S
C855 H834 0.950 . S
C855 C854 1.373 . S
C855 C871 1.377 . S
C856 C854 1.389 . S
C856 C857 1.524 . S
C856 C870 1.377 . S
C857 C856 1.524 . S
C857 C858 1.397 . S
C857 C862 1.363 . S
C858 H835 0.950 . S
C858 C857 1.397 . S
C858 C859 1.334 . S
C859 H836 0.950 . S
C859 C858 1.334 . S
C859 C860 1.287 . S
C860 C859 1.287 . S
C860 C861 1.524 . S
C860 H879 0.913 . S
C861 H837 0.950 . S
C861 C860 1.524 . S
C861 C862 1.415 . S
C862 H838 0.950 . S
C862 C857 1.363 . S
C862 C861 1.415 . S
C863 H839 0.951 . S
C863 C864 1.366 . S
C863 C865 1.388 . S
C864 C863 1.366 . S
C864 C868 1.385 . S
C865 H840 0.951 . S
C865 C863 1.388 . S
C865 C866 1.366 . S
C866 C865 1.366 . S
C866 C867 1.414 . S
C866 C869 1.499 . S
C867 H841 0.950 . S
C867 C866 1.414 . S
C867 C868 1.374 . S
C868 H842 0.950 . S
C868 C864 1.385 . S
C868 C867 1.374 . S
C869 C866 1.499 . S
C869 C870 1.373 . S
C869 C871 1.389 . S
C870 H843 0.950 . S
C870 C856 1.377 . S
C870 C869 1.373 . S
C871 C855 1.377 . S
C871 C869 1.389 . S
C871 C872 1.524 . S
C872 C871 1.524 . S
C872 C873 1.397 . S
C872 C877 1.363 . S
C873 H844 0.950 . S
C873 C872 1.397 . S
C873 C874 1.334 . S
C874 H845 0.950 . S
C874 C873 1.334 . S
C874 C875 1.287 . S
C875 C874 1.287 . S
C875 C876 1.524 . S
C875 H878 0.999 . S
C876 H846 0.950 . S
C876 C875 1.524 . S
C876 C877 1.415 . S
C877 H847 0.950 . S
C877 C872 1.363 . S
C877 C876 1.415 . S
H878 C875 0.999 . S
H879 C860 0.913 . S
H880 C898 0.951 . S
H881 C900 0.951 . S
H882 C902 0.950 . S
H883 C903 0.950 . S
H884 C905 0.950 . S
H885 C908 0.950 . S
H886 C909 0.950 . S
H887 C911 0.950 . S
H888 C912 0.950 . S
H889 C913 0.951 . S
H890 C915 0.951 . S
H891 C917 0.950 . S
H892 C918 0.950 . S
H893 C920 0.950 . S
H894 C923 0.950 . S
H895 C924 0.950 . S
H896 C926 0.950 . S
H897 C927 0.950 . S
C898 H880 0.951 . S
C898 C899 1.366 . S
C898 C900 1.388 . S
C899 C898 1.366 . S
C899 C903 1.385 . S
C900 H881 0.951 . S
C900 C898 1.388 . S
C900 C901 1.366 . S
C901 C900 1.366 . S
C901 C902 1.414 . S
C901 C904 1.499 . S
C902 H882 0.950 . S
C902 C901 1.414 . S
C902 C903 1.374 . S
C903 H883 0.950 . S
C903 C899 1.385 . S
C903 C902 1.374 . S
C904 C901 1.499 . S
C904 C905 1.373 . S
C904 C906 1.389 . S
C905 H884 0.950 . S
C905 C904 1.373 . S
C905 C921 1.377 . S
C906 C904 1.389 . S
C906 C907 1.524 . S
C906 C920 1.377 . S
C907 C906 1.524 . S
C907 C908 1.397 . S
C907 C912 1.363 . S
C908 H885 0.950 . S
C908 C907 1.397 . S
C908 C909 1.334 . S
C909 H886 0.950 . S
C909 C908 1.334 . S
C909 C910 1.287 . S
C910 C909 1.287 . S
C910 C911 1.524 . S
C910 H929 0.913 . S
C911 H887 0.950 . S
C911 C910 1.524 . S
C911 C912 1.415 . S
C912 H888 0.950 . S
C912 C907 1.363 . S
C912 C911 1.415 . S
C913 H889 0.951 . S
C913 C914 1.366 . S
C913 C915 1.388 . S
C914 C913 1.366 . S
C914 C918 1.385 . S
C915 H890 0.951 . S
C915 C913 1.388 . S
C915 C916 1.366 . S
C916 C915 1.366 . S
C916 C917 1.414 . S
C916 C919 1.499 . S
C917 H891 0.950 . S
C917 C916 1.414 . S
C917 C918 1.374 . S
C918 H892 0.950 . S
C918 C914 1.385 . S
C918 C917 1.374 . S
C919 C916 1.499 . S
C919 C920 1.373 . S
C919 C921 1.389 . S
C920 H893 0.950 . S
C920 C906 1.377 . S
C920 C919 1.373 . S
C921 C905 1.377 . S
C921 C919 1.389 . S
C921 C922 1.524 . S
C922 C921 1.524 . S
C922 C923 1.397 . S
C922 C927 1.363 . S
C923 H894 0.950 . S
C923 C922 1.397 . S
C923 C924 1.334 . S
C924 H895 0.950 . S
C924 C923 1.334 . S
C924 C925 1.287 . S
C925 C924 1.287 . S
C925 C926 1.524 . S
C925 H928 0.999 . S
C926 H896 0.950 . S
C926 C925 1.524 . S
C926 C927 1.415 . S
C927 H897 0.950 . S
C927 C922 1.363 . S
C927 C926 1.415 . S
H928 C925 0.999 . S
H929 C910 0.913 . S
H930 C948 0.951 . S
H931 C950 0.951 . S
H932 C952 0.950 . S
H933 C953 0.950 . S
H934 C955 0.950 . S
H935 C958 0.950 . S
H936 C959 0.950 . S
H937 C961 0.950 . S
H938 C962 0.950 . S
H939 C963 0.951 . S
H940 C965 0.951 . S
H941 C967 0.950 . S
H942 C968 0.950 . S
H943 C970 0.950 . S
H944 C973 0.950 . S
H945 C974 0.950 . S
H946 C976 0.950 . S
H947 C977 0.950 . S
C948 H930 0.951 . S
C948 C949 1.366 . S
C948 C950 1.388 . S
C949 C948 1.366 . S
C949 C953 1.385 . S
C950 H931 0.951 . S
C950 C948 1.388 . S
C950 C951 1.366 . S
C951 C950 1.366 . S
C951 C952 1.414 . S
C951 C954 1.499 . S
C952 H932 0.950 . S
C952 C951 1.414 . S
C952 C953 1.374 . S
C953 H933 0.950 . S
C953 C949 1.385 . S
C953 C952 1.374 . S
C954 C951 1.499 . S
C954 C955 1.373 . S
C954 C956 1.389 . S
C955 H934 0.950 . S
C955 C954 1.373 . S
C955 C971 1.377 . S
C956 C954 1.389 . S
C956 C957 1.524 . S
C956 C970 1.377 . S
C957 C956 1.524 . S
C957 C958 1.397 . S
C957 C962 1.363 . S
C958 H935 0.950 . S
C958 C957 1.397 . S
C958 C959 1.334 . S
C959 H936 0.950 . S
C959 C958 1.334 . S
C959 C960 1.287 . S
C960 C959 1.287 . S
C960 C961 1.524 . S
C960 H979 0.913 . S
C961 H937 0.950 . S
C961 C960 1.524 . S
C961 C962 1.415 . S
C962 H938 0.950 . S
C962 C957 1.363 . S
C962 C961 1.415 . S
C963 H939 0.951 . S
C963 C964 1.366 . S
C963 C965 1.388 . S
C964 C963 1.366 . S
C964 C968 1.385 . S
C965 H940 0.951 . S
C965 C963 1.388 . S
C965 C966 1.366 . S
C966 C965 1.366 . S
C966 C967 1.414 . S
C966 C969 1.499 . S
C967 H941 0.950 . S
C967 C966 1.414 . S
C967 C968 1.374 . S
C968 H942 0.950 . S
C968 C964 1.385 . S
C968 C967 1.374 . S
C969 C966 1.499 . S
C969 C970 1.373 . S
C969 C971 1.389 . S
C970 H943 0.950 . S
C970 C956 1.377 . S
C970 C969 1.373 . S
C971 C955 1.377 . S
C971 C969 1.389 . S
C971 C972 1.524 . S
C972 C971 1.524 . S
C972 C973 1.397 . S
C972 C977 1.363 . S
C973 H944 0.950 . S
C973 C972 1.397 . S
C973 C974 1.334 . S
C974 H945 0.950 . S
C974 C973 1.334 . S
C974 C975 1.287 . S
C975 C974 1.287 . S
C975 C976 1.524 . S
C975 H978 0.999 . S
C976 H946 0.950 . S
C976 C975 1.524 . S
C976 C977 1.415 . S
C977 H947 0.950 . S
C977 C972 1.363 . S
C977 C976 1.415 . S
H978 C975 0.999 . S
H979 C960 0.913 . S
H980 C998 0.951 . S
H981 C1000 0.951 . S
H982 C1002 0.950 . S
H983 C1003 0.950 . S
H984 C1005 0.950 . S
H985 C1008 0.950 . S
H986 C1009 0.950 . S
H987 C1011 0.950 . S
H988 C1012 0.950 . S
H989 C1013 0.951 1_545 S
H990 C1015 0.951 . S
H991 C1017 0.950 . S
H992 C1018 0.950 . S
H993 C1020 0.950 . S
H994 C1023 0.950 . S
H995 C1024 0.950 . S
H996 C1026 0.950 . S
H997 C1027 0.950 . S
C998 H980 0.951 . S
C998 C999 1.366 . S
C998 C1000 1.388 . S
C999 C998 1.366 . S
C999 C1003 1.385 . S
C1000 H981 0.951 . S
C1000 C998 1.388 . S
C1000 C1001 1.366 . S
C1001 C1000 1.366 . S
C1001 C1002 1.414 . S
C1001 C1004 1.499 . S
C1002 H982 0.950 . S
C1002 C1001 1.414 . S
C1002 C1003 1.374 . S
C1003 H983 0.950 . S
C1003 C999 1.385 . S
C1003 C1002 1.374 . S
C1004 C1001 1.499 . S
C1004 C1005 1.373 . S
C1004 C1006 1.389 . S
C1005 H984 0.950 . S
C1005 C1004 1.373 . S
C1005 C1021 1.377 . S
C1006 C1004 1.389 . S
C1006 C1007 1.524 . S
C1006 C1020 1.377 . S
C1007 C1006 1.524 . S
C1007 C1008 1.397 . S
C1007 C1012 1.363 . S
C1008 H985 0.950 . S
C1008 C1007 1.397 . S
C1008 C1009 1.334 . S
C1009 H986 0.950 . S
C1009 C1008 1.334 . S
C1009 C1010 1.287 . S
C1010 C1009 1.287 . S
C1010 C1011 1.524 . S
C1010 H1029 0.913 . S
C1011 H987 0.950 . S
C1011 C1010 1.524 . S
C1011 C1012 1.415 . S
C1012 H988 0.950 . S
C1012 C1007 1.363 . S
C1012 C1011 1.415 . S
C1013 H989 0.951 1_565 S
C1013 C1014 1.366 . S
C1013 C1015 1.388 . S
C1014 C1013 1.366 . S
C1014 C1018 1.385 . S
C1015 H990 0.951 . S
C1015 C1013 1.388 . S
C1015 C1016 1.366 . S
C1016 C1015 1.366 . S
C1016 C1017 1.414 . S
C1016 C1019 1.499 . S
C1017 H991 0.950 . S
C1017 C1016 1.414 . S
C1017 C1018 1.374 . S
C1018 H992 0.950 . S
C1018 C1014 1.385 . S
C1018 C1017 1.374 . S
C1019 C1016 1.499 . S
C1019 C1020 1.373 . S
C1019 C1021 1.389 . S
C1020 H993 0.950 . S
C1020 C1006 1.377 . S
C1020 C1019 1.373 . S
C1021 C1005 1.377 . S
C1021 C1019 1.389 . S
C1021 C1022 1.524 . S
C1022 C1021 1.524 . S
C1022 C1023 1.397 . S
C1022 C1027 1.363 . S
C1023 H994 0.950 . S
C1023 C1022 1.397 . S
C1023 C1024 1.334 . S
C1024 H995 0.950 . S
C1024 C1023 1.334 . S
C1024 C1025 1.287 . S
C1025 C1024 1.287 . S
C1025 C1026 1.524 . S
C1025 H1028 0.999 . S
C1026 H996 0.950 . S
C1026 C1025 1.524 . S
C1026 C1027 1.415 . S
C1027 H997 0.950 . S
C1027 C1022 1.363 . S
C1027 C1026 1.415 . S
H1028 C1025 0.999 . S
H1029 C1010 0.913 . S
H1030 C1048 0.951 . S
H1031 C1050 0.951 . S
H1032 C1052 0.950 . S
H1033 C1053 0.950 . S
H1034 C1055 0.950 . S
H1035 C1058 0.950 . S
H1036 C1059 0.950 . S
H1037 C1061 0.950 . S
H1038 C1062 0.950 . S
H1039 C1063 0.951 . S
H1040 C1065 0.951 . S
H1041 C1067 0.950 . S
H1042 C1068 0.950 . S
H1043 C1070 0.950 . S
H1044 C1073 0.950 . S
H1045 C1074 0.950 . S
H1046 C1076 0.950 . S
H1047 C1077 0.950 . S
C1048 H1030 0.951 . S
C1048 C1049 1.366 . S
C1048 C1050 1.388 . S
C1049 C1048 1.366 . S
C1049 C1053 1.385 . S
C1050 H1031 0.951 . S
C1050 C1048 1.388 . S
C1050 C1051 1.366 . S
C1051 C1050 1.366 . S
C1051 C1052 1.414 . S
C1051 C1054 1.499 . S
C1052 H1032 0.950 . S
C1052 C1051 1.414 . S
C1052 C1053 1.374 . S
C1053 H1033 0.950 . S
C1053 C1049 1.385 . S
C1053 C1052 1.374 . S
C1054 C1051 1.499 . S
C1054 C1055 1.373 . S
C1054 C1056 1.389 . S
C1055 H1034 0.950 . S
C1055 C1054 1.373 . S
C1055 C1071 1.377 . S
C1056 C1054 1.389 . S
C1056 C1057 1.524 . S
C1056 C1070 1.377 . S
C1057 C1056 1.524 . S
C1057 C1058 1.397 . S
C1057 C1062 1.363 . S
C1058 H1035 0.950 . S
C1058 C1057 1.397 . S
C1058 C1059 1.334 . S
C1059 H1036 0.950 . S
C1059 C1058 1.334 . S
C1059 C1060 1.287 . S
C1060 C1059 1.287 . S
C1060 C1061 1.524 . S
C1060 H1079 0.913 . S
C1061 H1037 0.950 . S
C1061 C1060 1.524 . S
C1061 C1062 1.415 . S
C1062 H1038 0.950 . S
C1062 C1057 1.363 . S
C1062 C1061 1.415 . S
C1063 H1039 0.951 . S
C1063 C1064 1.366 . S
C1063 C1065 1.388 . S
C1064 C1063 1.366 . S
C1064 C1068 1.385 . S
C1065 H1040 0.951 . S
C1065 C1063 1.388 . S
C1065 C1066 1.366 . S
C1066 C1065 1.366 . S
C1066 C1067 1.414 . S
C1066 C1069 1.499 . S
C1067 H1041 0.950 . S
C1067 C1066 1.414 . S
C1067 C1068 1.374 . S
C1068 H1042 0.950 . S
C1068 C1064 1.385 . S
C1068 C1067 1.374 . S
C1069 C1066 1.499 . S
C1069 C1070 1.373 . S
C1069 C1071 1.389 . S
C1070 H1043 0.950 . S
C1070 C1056 1.377 . S
C1070 C1069 1.373 . S
C1071 C1055 1.377 . S
C1071 C1069 1.389 . S
C1071 C1072 1.524 . S
C1072 C1071 1.524 . S
C1072 C1073 1.397 . S
C1072 C1077 1.363 . S
C1073 H1044 0.950 . S
C1073 C1072 1.397 . S
C1073 C1074 1.334 . S
C1074 H1045 0.950 . S
C1074 C1073 1.334 . S
C1074 C1075 1.287 . S
C1075 C1074 1.287 . S
C1075 C1076 1.524 . S
C1075 H1078 0.999 . S
C1076 H1046 0.950 . S
C1076 C1075 1.524 . S
C1076 C1077 1.415 . S
C1077 H1047 0.950 . S
C1077 C1072 1.363 . S
C1077 C1076 1.415 . S
H1078 C1075 0.999 . S
H1079 C1060 0.913 . S
H1080 C1098 0.951 . S
H1081 C1100 0.951 . S
H1082 C1102 0.950 . S
H1083 C1103 0.950 . S
H1084 C1105 0.950 . S
H1085 C1108 0.950 . S
H1086 C1109 0.950 . S
H1087 C1111 0.950 . S
H1088 C1112 0.950 . S
H1089 C1113 0.951 . S
H1090 C1115 0.951 . S
H1091 C1117 0.950 . S
H1092 C1118 0.950 . S
H1093 C1120 0.950 . S
H1094 C1123 0.950 . S
H1095 C1124 0.950 . S
H1096 C1126 0.950 . S
H1097 C1127 0.950 . S
C1098 H1080 0.951 . S
C1098 C1099 1.366 . S
C1098 C1100 1.388 . S
C1099 C1098 1.366 . S
C1099 C1103 1.385 . S
C1100 H1081 0.951 . S
C1100 C1098 1.388 . S
C1100 C1101 1.366 . S
C1101 C1100 1.366 . S
C1101 C1102 1.414 . S
C1101 C1104 1.499 . S
C1102 H1082 0.950 . S
C1102 C1101 1.414 . S
C1102 C1103 1.374 . S
C1103 H1083 0.950 . S
C1103 C1099 1.385 . S
C1103 C1102 1.374 . S
C1104 C1101 1.499 . S
C1104 C1105 1.373 . S
C1104 C1106 1.389 . S
C1105 H1084 0.950 . S
C1105 C1104 1.373 . S
C1105 C1121 1.377 . S
C1106 C1104 1.389 . S
C1106 C1107 1.524 . S
C1106 C1120 1.377 . S
C1107 C1106 1.524 . S
C1107 C1108 1.397 . S
C1107 C1112 1.363 . S
C1108 H1085 0.950 . S
C1108 C1107 1.397 . S
C1108 C1109 1.334 . S
C1109 H1086 0.950 . S
C1109 C1108 1.334 . S
C1109 C1110 1.287 . S
C1110 C1109 1.287 . S
C1110 C1111 1.524 . S
C1110 H1129 0.913 . S
C1111 H1087 0.950 . S
C1111 C1110 1.524 . S
C1111 C1112 1.415 . S
C1112 H1088 0.950 . S
C1112 C1107 1.363 . S
C1112 C1111 1.415 . S
C1113 H1089 0.951 . S
C1113 C1114 1.366 . S
C1113 C1115 1.388 . S
C1114 C1113 1.366 . S
C1114 C1118 1.385 . S
C1115 H1090 0.951 . S
C1115 C1113 1.388 . S
C1115 C1116 1.366 . S
C1116 C1115 1.366 . S
C1116 C1117 1.414 . S
C1116 C1119 1.499 . S
C1117 H1091 0.950 . S
C1117 C1116 1.414 . S
C1117 C1118 1.374 . S
C1118 H1092 0.950 . S
C1118 C1114 1.385 . S
C1118 C1117 1.374 . S
C1119 C1116 1.499 . S
C1119 C1120 1.373 . S
C1119 C1121 1.389 . S
C1120 H1093 0.950 . S
C1120 C1106 1.377 . S
C1120 C1119 1.373 . S
C1121 C1105 1.377 . S
C1121 C1119 1.389 . S
C1121 C1122 1.524 . S
C1122 C1121 1.524 . S
C1122 C1123 1.397 . S
C1122 C1127 1.363 . S
C1123 H1094 0.950 . S
C1123 C1122 1.397 . S
C1123 C1124 1.334 . S
C1124 H1095 0.950 . S
C1124 C1123 1.334 . S
C1124 C1125 1.287 . S
C1125 C1124 1.287 . S
C1125 C1126 1.524 . S
C1125 H1128 0.999 . S
C1126 H1096 0.950 . S
C1126 C1125 1.524 . S
C1126 C1127 1.415 . S
C1127 H1097 0.950 . S
C1127 C1122 1.363 . S
C1127 C1126 1.415 . S
H1128 C1125 0.999 . S
H1129 C1110 0.913 . S
H1130 C1148 0.951 . S
H1131 C1150 0.951 . S
H1132 C1152 0.950 . S
H1133 C1153 0.950 . S
H1134 C1155 0.950 . S
H1135 C1158 0.950 . S
H1136 C1159 0.950 . S
H1137 C1161 0.950 . S
H1138 C1162 0.950 . S
H1139 C1163 0.951 . S
H1140 C1165 0.951 . S
H1141 C1167 0.950 . S
H1142 C1168 0.950 . S
H1143 C1170 0.950 . S
H1144 C1173 0.950 . S
H1145 C1174 0.950 . S
H1146 C1176 0.950 . S
H1147 C1177 0.950 . S
C1148 H1130 0.951 . S
C1148 C1149 1.366 . S
C1148 C1150 1.388 . S
C1149 C1148 1.366 . S
C1149 C1153 1.385 . S
C1150 H1131 0.951 . S
C1150 C1148 1.388 . S
C1150 C1151 1.366 . S
C1151 C1150 1.366 . S
C1151 C1152 1.414 . S
C1151 C1154 1.499 . S
C1152 H1132 0.950 . S
C1152 C1151 1.414 . S
C1152 C1153 1.374 . S
C1153 H1133 0.950 . S
C1153 C1149 1.385 . S
C1153 C1152 1.374 . S
C1154 C1151 1.499 . S
C1154 C1155 1.373 . S
C1154 C1156 1.389 . S
C1155 H1134 0.950 . S
C1155 C1154 1.373 . S
C1155 C1171 1.377 . S
C1156 C1154 1.389 . S
C1156 C1157 1.524 . S
C1156 C1170 1.377 . S
C1157 C1156 1.524 . S
C1157 C1158 1.397 . S
C1157 C1162 1.363 . S
C1158 H1135 0.950 . S
C1158 C1157 1.397 . S
C1158 C1159 1.334 . S
C1159 H1136 0.950 . S
C1159 C1158 1.334 . S
C1159 C1160 1.287 . S
C1160 C1159 1.287 . S
C1160 C1161 1.524 . S
C1160 H1179 0.913 . S
C1161 H1137 0.950 . S
C1161 C1160 1.524 . S
C1161 C1162 1.415 . S
C1162 H1138 0.950 . S
C1162 C1157 1.363 . S
C1162 C1161 1.415 . S
C1163 H1139 0.951 . S
C1163 C1164 1.366 . S
C1163 C1165 1.388 . S
C1164 C1163 1.366 . S
C1164 C1168 1.385 . S
C1165 H1140 0.951 . S
C1165 C1163 1.388 . S
C1165 C1166 1.366 . S
C1166 C1165 1.366 . S
C1166 C1167 1.414 . S
C1166 C1169 1.499 . S
C1167 H1141 0.950 . S
C1167 C1166 1.414 . S
C1167 C1168 1.374 . S
C1168 H1142 0.950 . S
C1168 C1164 1.385 . S
C1168 C1167 1.374 . S
C1169 C1166 1.499 . S
C1169 C1170 1.373 . S
C1169 C1171 1.389 . S
C1170 H1143 0.950 . S
C1170 C1156 1.377 . S
C1170 C1169 1.373 . S
C1171 C1155 1.377 . S
C1171 C1169 1.389 . S
C1171 C1172 1.524 . S
C1172 C1171 1.524 . S
C1172 C1173 1.397 . S
C1172 C1177 1.363 . S
C1173 H1144 0.950 . S
C1173 C1172 1.397 . S
C1173 C1174 1.334 . S
C1174 H1145 0.950 . S
C1174 C1173 1.334 . S
C1174 C1175 1.287 . S
C1175 C1174 1.287 . S
C1175 C1176 1.524 . S
C1175 H1178 0.999 . S
C1176 H1146 0.950 . S
C1176 C1175 1.524 . S
C1176 C1177 1.415 . S
C1177 H1147 0.950 . S
C1177 C1172 1.363 . S
C1177 C1176 1.415 . S
H1178 C1175 0.999 . S
H1179 C1160 0.913 . S
H1180 C1198 0.951 . S
H1181 C1200 0.951 . S
H1182 C1202 0.950 . S
H1183 C1203 0.950 . S
H1184 C1205 0.950 . S
H1185 C1208 0.950 . S
H1186 C1209 0.950 . S
H1187 C1211 0.950 . S
H1188 C1212 0.950 . S
H1189 C1213 0.951 . S
H1190 C1215 0.951 . S
H1191 C1217 0.950 . S
H1192 C1218 0.950 . S
H1193 C1220 0.950 . S
H1194 C1223 0.950 . S
H1195 C1224 0.950 . S
H1196 C1226 0.950 . S
H1197 C1227 0.950 . S
C1198 H1180 0.951 . S
C1198 C1199 1.366 . S
C1198 C1200 1.388 . S
C1199 C1198 1.366 . S
C1199 C1203 1.385 . S
C1200 H1181 0.951 . S
C1200 C1198 1.388 . S
C1200 C1201 1.366 . S
C1201 C1200 1.366 . S
C1201 C1202 1.414 . S
C1201 C1204 1.499 . S
C1202 H1182 0.950 . S
C1202 C1201 1.414 . S
C1202 C1203 1.374 . S
C1203 H1183 0.950 . S
C1203 C1199 1.385 . S
C1203 C1202 1.374 . S
C1204 C1201 1.499 . S
C1204 C1205 1.373 . S
C1204 C1206 1.389 . S
C1205 H1184 0.950 . S
C1205 C1204 1.373 . S
C1205 C1221 1.377 . S
C1206 C1204 1.389 . S
C1206 C1207 1.524 . S
C1206 C1220 1.377 . S
C1207 C1206 1.524 . S
C1207 C1208 1.397 . S
C1207 C1212 1.363 . S
C1208 H1185 0.950 . S
C1208 C1207 1.397 . S
C1208 C1209 1.334 . S
C1209 H1186 0.950 . S
C1209 C1208 1.334 . S
C1209 C1210 1.287 . S
C1210 C1209 1.287 . S
C1210 C1211 1.524 . S
C1210 H1229 0.913 . S
C1211 H1187 0.950 . S
C1211 C1210 1.524 . S
C1211 C1212 1.415 . S
C1212 H1188 0.950 . S
C1212 C1207 1.363 . S
C1212 C1211 1.415 . S
C1213 H1189 0.951 . S
C1213 C1214 1.366 . S
C1213 C1215 1.388 . S
C1214 C1213 1.366 . S
C1214 C1218 1.385 . S
C1215 H1190 0.951 . S
C1215 C1213 1.388 . S
C1215 C1216 1.366 . S
C1216 C1215 1.366 . S
C1216 C1217 1.414 . S
C1216 C1219 1.499 . S
C1217 H1191 0.950 . S
C1217 C1216 1.414 . S
C1217 C1218 1.374 . S
C1218 H1192 0.950 . S
C1218 C1214 1.385 . S
C1218 C1217 1.374 . S
C1219 C1216 1.499 . S
C1219 C1220 1.373 . S
C1219 C1221 1.389 . S
C1220 H1193 0.950 . S
C1220 C1206 1.377 . S
C1220 C1219 1.373 . S
C1221 C1205 1.377 . S
C1221 C1219 1.389 . S
C1221 C1222 1.524 . S
C1222 C1221 1.524 . S
C1222 C1223 1.397 . S
C1222 C1227 1.363 . S
C1223 H1194 0.950 . S
C1223 C1222 1.397 . S
C1223 C1224 1.334 . S
C1224 H1195 0.950 . S
C1224 C1223 1.334 . S
C1224 C1225 1.287 . S
C1225 C1224 1.287 . S
C1225 C1226 1.524 . S
C1225 H1228 0.999 . S
C1226 H1196 0.950 . S
C1226 C1225 1.524 . S
C1226 C1227 1.415 . S
C1227 H1197 0.950 . S
C1227 C1222 1.363 . S
C1227 C1226 1.415 . S
H1228 C1225 0.999 . S
H1229 C1210 0.913 . S
H1230 C1248 0.951 . S
H1231 C1250 0.951 . S
H1232 C1252 0.950 . S
H1233 C1253 0.950 . S
H1234 C1255 0.950 . S
H1235 C1258 0.950 . S
H1236 C1259 0.950 . S
H1237 C1261 0.950 . S
H1238 C1262 0.950 . S
H1239 C1263 0.951 . S
H1240 C1265 0.951 . S
H1241 C1267 0.950 . S
H1242 C1268 0.950 . S
H1243 C1270 0.950 . S
H1244 C1273 0.950 . S
H1245 C1274 0.950 . S
H1246 C1276 0.950 . S
H1247 C1277 0.950 . S
C1248 H1230 0.951 . S
C1248 C1249 1.366 . S
C1248 C1250 1.388 . S
C1249 C1248 1.366 . S
C1249 C1253 1.385 . S
C1250 H1231 0.951 . S
C1250 C1248 1.388 . S
C1250 C1251 1.366 . S
C1251 C1250 1.366 . S
C1251 C1252 1.414 . S
C1251 C1254 1.499 . S
C1252 H1232 0.950 . S
C1252 C1251 1.414 . S
C1252 C1253 1.374 . S
C1253 H1233 0.950 . S
C1253 C1249 1.385 . S
C1253 C1252 1.374 . S
C1254 C1251 1.499 . S
C1254 C1255 1.373 . S
C1254 C1256 1.389 . S
C1255 H1234 0.950 . S
C1255 C1254 1.373 . S
C1255 C1271 1.377 . S
C1256 C1254 1.389 . S
C1256 C1257 1.524 . S
C1256 C1270 1.377 . S
C1257 C1256 1.524 . S
C1257 C1258 1.397 . S
C1257 C1262 1.363 . S
C1258 H1235 0.950 . S
C1258 C1257 1.397 . S
C1258 C1259 1.334 . S
C1259 H1236 0.950 . S
C1259 C1258 1.334 . S
C1259 C1260 1.287 . S
C1260 C1259 1.287 . S
C1260 C1261 1.524 . S
C1260 H1279 0.913 . S
C1261 H1237 0.950 . S
C1261 C1260 1.524 . S
C1261 C1262 1.415 . S
C1262 H1238 0.950 . S
C1262 C1257 1.363 . S
C1262 C1261 1.415 . S
C1263 H1239 0.951 . S
C1263 C1264 1.366 . S
C1263 C1265 1.388 1_554 S
C1264 C1263 1.366 . S
C1264 C1268 1.385 . S
C1265 H1240 0.951 . S
C1265 C1263 1.388 1_556 S
C1265 C1266 1.366 . S
C1266 C1265 1.366 . S
C1266 C1267 1.414 1_556 S
C1266 C1269 1.499 . S
C1267 H1241 0.950 . S
C1267 C1266 1.414 1_554 S
C1267 C1268 1.374 . S
C1268 H1242 0.950 . S
C1268 C1264 1.385 . S
C1268 C1267 1.374 . S
C1269 C1266 1.499 . S
C1269 C1270 1.373 . S
C1269 C1271 1.389 . S
C1270 H1243 0.950 . S
C1270 C1256 1.377 . S
C1270 C1269 1.373 . S
C1271 C1255 1.377 . S
C1271 C1269 1.389 . S
C1271 C1272 1.524 . S
C1272 C1271 1.524 . S
C1272 C1273 1.397 . S
C1272 C1277 1.363 . S
C1273 H1244 0.950 . S
C1273 C1272 1.397 . S
C1273 C1274 1.334 . S
C1274 H1245 0.950 . S
C1274 C1273 1.334 . S
C1274 C1275 1.287 . S
C1275 C1274 1.287 . S
C1275 C1276 1.524 . S
C1275 H1278 0.999 . S
C1276 H1246 0.950 . S
C1276 C1275 1.524 . S
C1276 C1277 1.415 . S
C1277 H1247 0.950 . S
C1277 C1272 1.363 . S
C1277 C1276 1.415 . S
H1278 C1275 0.999 . S
H1279 C1260 0.913 . S
H1280 C1298 0.951 . S
H1281 C1300 0.951 . S
H1282 C1302 0.950 . S
H1283 C1303 0.950 . S
H1284 C1305 0.950 . S
H1285 C1308 0.950 . S
H1286 C1309 0.950 . S
H1287 C1311 0.950 . S
H1288 C1312 0.950 . S
H1289 C1313 0.951 . S
H1290 C1315 0.951 . S
H1291 C1317 0.950 . S
H1292 C1318 0.950 . S
H1293 C1320 0.950 . S
H1294 C1323 0.950 . S
H1295 C1324 0.950 . S
H1296 C1326 0.950 . S
H1297 C1327 0.950 . S
C1298 H1280 0.951 . S
C1298 C1299 1.366 . S
C1298 C1300 1.388 . S
C1299 C1298 1.366 . S
C1299 C1303 1.385 . S
C1300 H1281 0.951 . S
C1300 C1298 1.388 . S
C1300 C1301 1.366 . S
C1301 C1300 1.366 . S
C1301 C1302 1.414 . S
C1301 C1304 1.499 . S
C1302 H1282 0.950 . S
C1302 C1301 1.414 . S
C1302 C1303 1.374 . S
C1303 H1283 0.950 . S
C1303 C1299 1.385 . S
C1303 C1302 1.374 . S
C1304 C1301 1.499 . S
C1304 C1305 1.373 . S
C1304 C1306 1.389 . S
C1305 H1284 0.950 . S
C1305 C1304 1.373 . S
C1305 C1321 1.377 . S
C1306 C1304 1.389 . S
C1306 C1307 1.524 . S
C1306 C1320 1.377 . S
C1307 C1306 1.524 . S
C1307 C1308 1.397 . S
C1307 C1312 1.363 . S
C1308 H1285 0.950 . S
C1308 C1307 1.397 . S
C1308 C1309 1.334 . S
C1309 H1286 0.950 . S
C1309 C1308 1.334 . S
C1309 C1310 1.287 . S
C1310 C1309 1.287 . S
C1310 C1311 1.524 . S
C1310 H1329 0.913 . S
C1311 H1287 0.950 . S
C1311 C1310 1.524 . S
C1311 C1312 1.415 . S
C1312 H1288 0.950 . S
C1312 C1307 1.363 . S
C1312 C1311 1.415 . S
C1313 H1289 0.951 . S
C1313 C1314 1.366 . S
C1313 C1315 1.388 . S
C1314 C1313 1.366 . S
C1314 C1318 1.385 . S
C1315 H1290 0.951 . S
C1315 C1313 1.388 . S
C1315 C1316 1.366 . S
C1316 C1315 1.366 . S
C1316 C1317 1.414 . S
C1316 C1319 1.499 . S
C1317 H1291 0.950 . S
C1317 C1316 1.414 . S
C1317 C1318 1.374 . S
C1318 H1292 0.950 . S
C1318 C1314 1.385 . S
C1318 C1317 1.374 . S
C1319 C1316 1.499 . S
C1319 C1320 1.373 . S
C1319 C1321 1.389 . S
C1320 H1293 0.950 . S
C1320 C1306 1.377 . S
C1320 C1319 1.373 . S
C1321 C1305 1.377 . S
C1321 C1319 1.389 . S
C1321 C1322 1.524 . S
C1322 C1321 1.524 . S
C1322 C1323 1.397 . S
C1322 C1327 1.363 . S
C1323 H1294 0.950 . S
C1323 C1322 1.397 . S
C1323 C1324 1.334 . S
C1324 H1295 0.950 . S
C1324 C1323 1.334 . S
C1324 C1325 1.287 . S
C1325 C1324 1.287 . S
C1325 C1326 1.524 . S
C1325 H1328 0.999 . S
C1326 H1296 0.950 . S
C1326 C1325 1.524 . S
C1326 C1327 1.415 . S
C1327 H1297 0.950 . S
C1327 C1322 1.363 . S
C1327 C1326 1.415 . S
H1328 C1325 0.999 . S
H1329 C1310 0.913 . S
H1330 C1348 0.951 . S
H1331 C1350 0.951 . S
H1332 C1352 0.950 . S
H1333 C1353 0.950 . S
H1334 C1355 0.950 . S
H1335 C1358 0.950 . S
H1336 C1359 0.950 . S
H1337 C1361 0.950 . S
H1338 C1362 0.950 . S
H1339 C1363 0.951 . S
H1340 C1365 0.951 . S
H1341 C1367 0.950 . S
H1342 C1368 0.950 . S
H1343 C1370 0.950 . S
H1344 C1373 0.950 . S
H1345 C1374 0.950 . S
H1346 C1376 0.950 . S
H1347 C1377 0.950 . S
C1348 H1330 0.951 . S
C1348 C1349 1.366 . S
C1348 C1350 1.388 . S
C1349 C1348 1.366 . S
C1349 C1353 1.385 . S
C1350 H1331 0.951 . S
C1350 C1348 1.388 . S
C1350 C1351 1.366 . S
C1351 C1350 1.366 . S
C1351 C1352 1.414 . S
C1351 C1354 1.499 . S
C1352 H1332 0.950 . S
C1352 C1351 1.414 . S
C1352 C1353 1.374 . S
C1353 H1333 0.950 . S
C1353 C1349 1.385 . S
C1353 C1352 1.374 . S
C1354 C1351 1.499 . S
C1354 C1355 1.373 . S
C1354 C1356 1.389 . S
C1355 H1334 0.950 . S
C1355 C1354 1.373 . S
C1355 C1371 1.377 . S
C1356 C1354 1.389 . S
C1356 C1357 1.524 . S
C1356 C1370 1.377 . S
C1357 C1356 1.524 . S
C1357 C1358 1.397 . S
C1357 C1362 1.363 . S
C1358 H1335 0.950 . S
C1358 C1357 1.397 . S
C1358 C1359 1.334 . S
C1359 H1336 0.950 . S
C1359 C1358 1.334 . S
C1359 C1360 1.287 . S
C1360 C1359 1.287 . S
C1360 C1361 1.524 . S
C1360 H1379 0.913 . S
C1361 H1337 0.950 . S
C1361 C1360 1.524 . S
C1361 C1362 1.415 . S
C1362 H1338 0.950 . S
C1362 C1357 1.363 . S
C1362 C1361 1.415 . S
C1363 H1339 0.951 . S
C1363 C1364 1.366 . S
C1363 C1365 1.388 . S
C1364 C1363 1.366 . S
C1364 C1368 1.385 . S
C1365 H1340 0.951 . S
C1365 C1363 1.388 . S
C1365 C1366 1.366 . S
C1366 C1365 1.366 . S
C1366 C1367 1.414 . S
C1366 C1369 1.499 . S
C1367 H1341 0.950 . S
C1367 C1366 1.414 . S
C1367 C1368 1.374 . S
C1368 H1342 0.950 . S
C1368 C1364 1.385 . S
C1368 C1367 1.374 . S
C1369 C1366 1.499 . S
C1369 C1370 1.373 . S
C1369 C1371 1.389 . S
C1370 H1343 0.950 . S
C1370 C1356 1.377 . S
C1370 C1369 1.373 . S
C1371 C1355 1.377 . S
C1371 C1369 1.389 . S
C1371 C1372 1.524 . S
C1372 C1371 1.524 . S
C1372 C1373 1.397 . S
C1372 C1377 1.363 . S
C1373 H1344 0.950 . S
C1373 C1372 1.397 . S
C1373 C1374 1.334 . S
C1374 H1345 0.950 . S
C1374 C1373 1.334 . S
C1374 C1375 1.287 . S
C1375 C1374 1.287 . S
C1375 C1376 1.524 . S
C1375 H1378 0.999 . S
C1376 H1346 0.950 . S
C1376 C1375 1.524 . S
C1376 C1377 1.415 . S
C1377 H1347 0.950 . S
C1377 C1372 1.363 . S
C1377 C1376 1.415 . S
H1378 C1375 0.999 . S
H1379 C1360 0.913 . S
C214 C108 1.562 . S
C199 C6 1.569 . S
C264 C111 1.588 . S
C249 C18 1.591 . S
C314 C109 1.547 . S
C299 C28 1.552 . S
C364 C110 1.672 1_655 S
C349 C45 1.674 . S
C414 C125 1.383 . S
C399 C4 1.386 . S
C464 C139 1.613 . S
C449 C21 1.603 . S
C499 C33 1.719 . S
C514 C165 1.736 1_565 S
C564 C179 1.731 . S
C549 C40 1.734 . S
C614 C124 1.523 . S
C599 C16 1.505 . S
C649 C30 1.608 . S
C664 C138 1.599 . S
C714 C164 1.704 . S
C699 C42 1.696 . S
C764 C178 1.718 . S
C749 C9 1.727 . S
C799 C52 1.685 . S
C814 C123 1.672 . S
C864 C96 1.744 . S
C849 C69 1.726 . S
C899 C78 1.556 . S
C914 C122 1.548 . S
C949 C93 1.306 . S
C964 C97 1.330 . S
C1014 C152 1.788 1_565 S
C999 C57 1.769 . S
C1064 C166 1.786 . S
C1049 C66 1.797 . S
C1114 C136 1.413 . S
C1099 C76 1.412 . S
C1149 C88 1.370 . S
C1164 C150 1.359 . S
C1214 C153 1.709 . S
C1199 C64 1.694 . S
C1264 C167 1.660 . S
C1249 C81 1.668 . S
C1314 C137 1.299 . S
C1299 C90 1.297 . S
C1349 C54 1.611 . S
C1364 C151 1.609 . S
