# Generated by pormake.
# Topology zzz, (3,6)-cn, num edge types: 1
# Building blocks:
#     Node 0, Type 0, BuildingBlock: QEWDON_clean_linker_0, # of connection points: 3
#     Node 1, Type 0, BuildingBlock: QEWDON_clean_linker_0, # of connection points: 3
#     Node 2, Type 0, BuildingBlock: QEWDON_clean_linker_0, # of connection points: 3
#     Node 3, Type 0, BuildingBlock: QEWDON_clean_linker_0, # of connection points: 3
#     Node 4, Type 0, BuildingBlock: QEWDON_clean_linker_0, # of connection points: 3
#     Node 5, Type 0, BuildingBlock: QEWDON_clean_linker_0, # of connection points: 3
#     Node 6, Type 0, BuildingBlock: QEWDON_clean_linker_0, # of connection points: 3
#     Node 7, Type 0, BuildingBlock: QEWDON_clean_linker_0, # of connection points: 3
#     Node 8, Type 1, BuildingBlock: KUMJIN_clean_sbu_1, # of connection points: 6
#     Node 9, Type 1, BuildingBlock: KUMJIN_clean_sbu_1, # of connection points: 6
#     Node 10, Type 1, BuildingBlock: KUMJIN_clean_sbu_1, # of connection points: 6
#     Node 11, Type 1, BuildingBlock: KUMJIN_clean_sbu_1, # of connection points: 6
#     Edge 12, Type (0, 1), BuildingBlock: TEMPAE_clean_linker_10, # of connection points: 2
#     Edge 13, Type (0, 1), BuildingBlock: TEMPAE_clean_linker_10, # of connection points: 2
#     Edge 14, Type (0, 1), BuildingBlock: TEMPAE_clean_linker_10, # of connection points: 2
#     Edge 15, Type (0, 1), BuildingBlock: TEMPAE_clean_linker_10, # of connection points: 2
#     Edge 16, Type (0, 1), BuildingBlock: TEMPAE_clean_linker_10, # of connection points: 2
#     Edge 17, Type (0, 1), BuildingBlock: TEMPAE_clean_linker_10, # of connection points: 2
#     Edge 18, Type (0, 1), BuildingBlock: TEMPAE_clean_linker_10, # of connection points: 2
#     Edge 19, Type (0, 1), BuildingBlock: TEMPAE_clean_linker_10, # of connection points: 2
#     Edge 20, Type (0, 1), BuildingBlock: TEMPAE_clean_linker_10, # of connection points: 2
#     Edge 21, Type (0, 1), BuildingBlock: TEMPAE_clean_linker_10, # of connection points: 2
#     Edge 22, Type (0, 1), BuildingBlock: TEMPAE_clean_linker_10, # of connection points: 2
#     Edge 23, Type (0, 1), BuildingBlock: TEMPAE_clean_linker_10, # of connection points: 2
#     Edge 24, Type (0, 1), BuildingBlock: TEMPAE_clean_linker_10, # of connection points: 2
#     Edge 25, Type (0, 1), BuildingBlock: TEMPAE_clean_linker_10, # of connection points: 2
#     Edge 26, Type (0, 1), BuildingBlock: TEMPAE_clean_linker_10, # of connection points: 2
#     Edge 27, Type (0, 1), BuildingBlock: TEMPAE_clean_linker_10, # of connection points: 2
#     Edge 28, Type (0, 1), BuildingBlock: TEMPAE_clean_linker_10, # of connection points: 2
#     Edge 29, Type (0, 1), BuildingBlock: TEMPAE_clean_linker_10, # of connection points: 2
#     Edge 30, Type (0, 1), BuildingBlock: TEMPAE_clean_linker_10, # of connection points: 2
#     Edge 31, Type (0, 1), BuildingBlock: TEMPAE_clean_linker_10, # of connection points: 2
#     Edge 32, Type (0, 1), BuildingBlock: TEMPAE_clean_linker_10, # of connection points: 2
#     Edge 33, Type (0, 1), BuildingBlock: TEMPAE_clean_linker_10, # of connection points: 2
#     Edge 34, Type (0, 1), BuildingBlock: TEMPAE_clean_linker_10, # of connection points: 2
#     Edge 35, Type (0, 1), BuildingBlock: TEMPAE_clean_linker_10, # of connection points: 2
# Relax obj value: 0.114
# Max RMSD: 0.093
# Mean RMSD: 0.037
data_MOF--net-zzz--node1-KUMJIN_clean_sbu_1--node2-QEWDON_clean_linker_0--edge1-TEMPAE_clean_linker_10
_symmetry_space_group_name_H-M    P1
_symmetry_Int_Tables_number       1
_symmetry_cell_setting            triclinic
loop_
_symmetry_equiv_pos_as_xyz
'x, y, z'
_cell_length_a     54.131297
_cell_length_b     54.125068
_cell_length_c     15.648151
_cell_angle_alpha  90.243321
_cell_angle_beta   89.965292
_cell_angle_gamma 90.169865
loop_
_atom_site_label
_atom_site_type_symbol
_atom_site_fract_x
_atom_site_fract_y
_atom_site_fract_z
_atom_type_partial_charge
H0 H 0.76329 0.55964 0.1226 0.0
C1 C 0.77733 0.55959 0.17144 0.0
C2 C 0.80188 0.56241 0.14536 0.0
C3 C 0.77102 0.55476 0.25699 0.0
H4 H 0.83983 0.56263 0.18618 0.0
C5 C 0.82074 0.56176 0.20677 0.0
C6 C 0.81574 0.55792 0.29362 0.0
C7 C 0.7907 0.55411 0.31853 0.0
C8 C 0.74441 0.54763 0.27697 0.0
H9 H 0.78679 0.55073 0.38523 0.0
C10 C 0.72426 0.55389 0.22163 0.0
C11 C 0.70035 0.54325 0.23119 0.0
C12 C 0.73922 0.532 0.34631 0.0
H13 H 0.75359 0.52615 0.38961 0.0
C14 C 0.71554 0.52245 0.35883 0.0
H15 H 0.72698 0.56696 0.17053 0.0
C16 C 0.6965 0.52755 0.3015 0.0
H17 H 0.67893 0.51844 0.31144 0.0
H18 H 0.71211 0.51013 0.41189 0.0
H19 H 1.00002 0.77648 0.13355 0.0
C20 C 1.00249 0.78876 0.18743 0.0
C21 C 0.99638 0.81379 0.17684 0.0
C22 C 1.01355 0.78012 0.26332 0.0
H23 H 0.99744 0.84999 0.23555 0.0
C24 C 1.00072 0.83041 0.24429 0.0
C25 C 1.01153 0.823 0.32068 0.0
C26 C 1.0175 0.7977 0.33109 0.0
C27 C 0.02349 0.75379 0.26629 0.0
H28 H 0.02579 0.7922 0.39082 0.0
C29 C 1.01501 0.73441 0.21033 0.0
C30 C 0.02648 0.71072 0.20875 0.0
C31 C 0.04334 0.7483 0.32117 0.0
H32 H 0.05136 0.76213 0.36273 0.0
C33 C 0.05425 0.72503 0.32119 0.0
H34 H 0.9995 0.73744 0.16829 0.0
C35 C 0.04615 0.7066 0.26554 0.0
H36 H 0.05596 0.68919 0.26561 0.0
H37 H 0.06966 0.72144 0.36339 0.0
H38 H 0.79899 0.98892 0.2072 0.0
C39 C 0.78592 0.99613 0.25299 0.0
C40 C 0.76272 0.98464 0.25709 0.0
C41 C 0.79166 1.01679 0.30499 0.0
H42 H 0.72742 0.98378 0.32026 0.0
C43 C 0.74534 0.99267 0.31727 0.0
C44 C 0.74926 1.01383 0.36632 0.0
C45 C 0.7724 0.02606 0.35982 0.0
C46 C 0.81731 0.02856 0.30088 0.0
H47 H 0.77485 0.04293 0.39597 0.0
C48 C 0.8345 0.02425 0.23227 0.0
C49 C 0.85876 0.03465 0.23285 0.0
C50 C 0.82535 0.0437 0.36889 0.0
H51 H 0.81398 0.04696 0.42449 0.0
C52 C 0.84859 0.05477 0.36804 0.0
H53 H 0.82942 1.01276 0.17864 0.0
C54 C 0.86497 0.05051 0.30107 0.0
H55 H 0.88264 0.05991 0.30312 0.0
H56 H 0.85409 0.06666 0.42054 0.0
H57 H 0.56439 0.78336 0.14656 0.0
C58 C 0.55748 0.77032 0.19302 0.0
C59 C 0.56158 0.74504 0.1785 0.0
C60 C 0.54452 0.7787 0.26583 0.0
H61 H 0.55625 0.70834 0.22883 0.0
C62 C 0.55364 0.72792 0.23994 0.0
C63 C 0.54114 0.73515 0.31393 0.0
C64 C 0.53651 0.76066 0.32681 0.0
C65 C 0.53991 0.80617 0.27773 0.0
H66 H 0.52609 0.76611 0.38273 0.0
C67 C 0.53893 0.82316 0.20767 0.0
C68 C 0.53655 0.84903 0.22166 0.0
C69 C 0.53758 0.81589 0.36092 0.0
H70 H 0.5389 0.80418 0.41653 0.0
C71 C 0.53423 0.84111 0.3746 0.0
H72 H 0.54042 0.81657 0.14255 0.0
C73 C 0.53379 0.85748 0.30618 0.0
H74 H 0.53138 0.87697 0.31967 0.0
H75 H 0.53239 0.84813 0.43918 0.0
H76 H 0.28015 0.50228 0.21575 0.0
C77 C 0.26769 0.50562 0.16333 0.0
C78 C 0.24277 0.49873 0.17313 0.0
C79 C 0.27605 0.51847 0.09042 0.0
H80 H 0.20673 0.49953 0.1142 0.0
C81 C 0.22613 0.50389 0.10669 0.0
C82 C 0.23326 0.51657 0.03307 0.0
C83 C 0.25846 0.52321 0.02386 0.0
C84 C 0.30198 0.52956 0.09027 0.0
H85 H 0.26388 0.53278 0.96633 0.0
C86 C 0.32156 0.52073 0.14391 0.0
C87 C 0.34467 0.53332 0.14965 0.0
C88 C 0.30673 0.55088 0.04148 0.0
H89 H 0.29266 0.55918 1.00212 0.0
C90 C 0.32948 0.56289 0.04528 0.0
H91 H 0.31911 0.50412 0.18105 0.0
C92 C 0.34807 0.55446 0.09901 0.0
H93 H 0.365 0.56513 0.10243 0.0
H94 H 0.33249 0.57942 0.00787 0.0
H95 H 0.05412 0.30066 0.19665 0.0
C96 C 0.05407 0.28666 0.1474 0.0
C97 C 0.05608 0.26203 0.17294 0.0
C98 C 0.05006 0.29316 0.06162 0.0
H99 H 0.05582 0.2241 0.1308 0.0
C100 C 0.05544 0.24325 0.11087 0.0
C101 C 0.05227 0.24844 0.0239 0.0
C102 C 0.04927 0.27357 0.99942 0.0
C103 C 0.04389 0.31995 0.04186 0.0
H104 H 0.04641 0.27762 0.93255 0.0
C105 C 0.05062 0.3399 0.098 0.0
C106 C 0.04081 0.36409 0.08836 0.0
C107 C 0.02867 0.32555 0.97185 0.0
H108 H 0.02251 0.31134 0.92798 0.0
C109 C 0.01989 0.34947 0.95943 0.0
H110 H 0.0634 0.33678 0.14978 0.0
C111 C 0.02544 0.36835 0.01742 0.0
H112 H 1.01689 0.38614 0.00742 0.0
H113 H 1.00784 0.35323 0.90588 0.0
H114 H 0.27696 0.05123 0.20394 0.0
C115 C 0.28772 0.05049 0.14577 0.0
C116 C 0.31301 0.04568 0.15265 0.0
C117 C 0.27677 0.0546 0.06495 0.0
H118 H 0.34773 0.0428 0.08708 0.0
C119 C 0.32804 0.04598 0.08021 0.0
C120 C 0.31854 0.05039 0.99937 0.0
C121 C 0.2927 0.05421 0.99107 0.0
C122 C 0.24923 0.06017 0.05924 0.0
H123 H 0.2854 0.05687 0.92754 0.0
C124 C 0.23188 0.05356 0.12487 0.0
C125 C 0.20639 0.05971 0.11836 0.0
C126 C 0.24004 0.07321 0.9883 0.0
H127 H 0.25212 0.07969 0.93817 0.0
C128 C 0.21502 0.07889 0.98121 0.0
H129 H 0.23777 0.04329 0.18028 0.0
C130 C 0.1984 0.07222 0.0451 0.0
H131 H 0.17919 0.07741 0.03797 0.0
H132 H 0.20848 0.08893 0.926 0.0
H133 H 0.48092 0.26546 0.18325 0.0
C134 C 0.48673 0.27817 0.13406 0.0
C135 C 0.47535 0.30138 0.13152 0.0
C136 C 0.50593 0.27207 0.07652 0.0
H137 H 0.47293 0.33602 0.06649 0.0
C138 C 0.4819 0.31816 0.06778 0.0
C139 C 0.50264 0.31443 0.01649 0.0
C140 C 0.51445 0.29107 0.0196 0.0
C141 C 0.51713 0.24633 0.0774 0.0
H142 H 0.53069 0.28825 0.98051 0.0
C143 C 0.51589 0.23016 0.14979 0.0
C144 C 0.52571 0.20579 0.14642 0.0
C145 C 0.52838 0.23719 1.00258 0.0
H146 H 0.52914 0.24807 0.94484 0.0
C147 C 0.53829 0.21347 0.99943 0.0
H148 H 0.50788 0.23638 0.20932 0.0
C149 C 0.53693 0.19795 0.07002 0.0
H150 H 0.54435 0.17945 0.06406 0.0
H151 H 0.54683 0.20693 0.94103 0.0
Eu152 Eu 1.0061 0.04917 0.58262 0.0
C153 C 0.0739 0.06789 0.8772 0.0
N154 N 0.07898 0.05826 0.79876 0.0
C155 C 0.11397 0.08518 0.78452 0.0
C156 C 0.08829 0.08737 0.91095 0.0
C157 C 0.09941 0.06566 0.75415 0.0
C158 C 0.10819 0.0963 0.86276 0.0
C159 C 0.05003 0.06646 0.00841 0.0
C160 C 0.05495 0.05748 0.92526 0.0
C161 C 0.06369 0.08649 0.04086 0.0
C162 C 0.08292 0.09674 0.99261 0.0
Eu163 Eu 0.05364 0.02526 0.75242 0.0
N164 N 0.04268 0.03744 0.89362 0.0
C165 C 0.03237 0.05426 0.05829 0.0
C166 C 0.02733 0.02411 0.94551 0.0
C167 C 0.02131 0.03272 0.02724 0.0
H168 H 0.1039 0.05687 0.69393 0.0
H169 H 1.00858 0.02243 0.06696 0.0
H170 H 0.95069 0.04 0.68242 0.0
H171 H 0.03387 0.02387 0.25919 0.0
H172 H 0.01994 1.00653 0.92498 0.0
H173 H 0.02805 0.06061 0.12234 0.0
H174 H 0.03795 0.04415 0.39988 0.0
H175 H 0.1297 0.09154 0.7479 0.0
H176 H 0.06015 0.0936 0.10453 0.0
H177 H 0.09398 0.11147 0.02007 0.0
H178 H 0.9128 1.01605 0.65994 0.0
H179 H 0.11961 0.11131 0.88644 0.0
H180 H 0.99677 0.99881 0.22642 0.0
N181 N 0.96824 0.02728 0.56839 0.0
C182 C 0.96492 1.01524 0.49261 0.0
C183 C 0.92747 1.01532 0.61297 0.0
C184 C 0.94287 1.00212 0.47545 0.0
C185 C 0.94942 0.0284 0.62658 0.0
C186 C 0.92428 1.00187 0.53755 0.0
N187 N 1.00414 0.02972 0.44789 0.0
C188 C 0.02196 0.03283 0.38712 0.0
C189 C 0.97992 1.00521 0.35014 0.0
C190 C 0.98317 1.01685 0.43027 0.0
C191 C 0.99857 1.0075 0.28862 0.0
C192 C 0.01958 0.02155 0.30698 0.0
H193 H 0.9071 0.99202 0.52675 0.0
H194 H 0.92295 0.98006 0.38214 0.0
H195 H 0.9554 0.98267 0.27272 0.0
O196 O 1.01311 0.08491 0.5232 0.0
O197 O 0.02109 1.00988 0.55913 0.0
O198 O 0.0299 0.99469 0.69318 0.0
O199 O 0.97574 0.07055 0.52986 0.0
O200 O 0.04687 0.05661 0.5493 0.0
O201 O 0.06805 0.0252 0.61586 0.0
O202 O 0.0723 1.00396 0.85084 0.0
O203 O 0.05135 0.06643 0.71555 0.0
O204 O 1.01025 0.07144 0.70581 0.0
O205 O 0.0864 1.00336 0.72204 0.0
O206 O 1.01332 1.01342 0.77675 0.0
O207 O 0.99249 0.04628 0.71994 0.0
C208 C 0.02493 0.99115 0.61143 0.0
C209 C 0.98184 0.11248 0.56297 0.0
C210 C 0.98564 0.15686 0.58011 0.0
C211 C 0.97173 0.15583 0.65552 0.0
C212 C 0.96817 0.11144 0.63951 0.0
C213 C 0.96305 0.1331 0.68517 0.0
C214 C 0.99046 0.13521 0.53383 0.0
C215 C 0.06634 0.04202 0.5557 0.0
C216 C 0.98959 0.08993 0.51814 0.0
C217 C 0.93974 0.99023 0.39622 0.0
C218 C 0.95819 0.99179 0.33375 0.0
C219 C 0.03179 0.08015 0.7289 0.0
C220 C 0.09126 0.96733 0.80318 0.0
C221 C 0.07544 0.92656 0.83771 0.0
C222 C 0.0986 0.91636 0.81826 0.0
C223 C 0.11424 0.95695 0.78283 0.0
C224 C 0.07173 0.952 0.82932 0.0
C225 C 0.11783 0.93151 0.79003 0.0
C226 C 0.99384 0.028 0.77478 0.0
C227 C 0.08812 0.99415 0.79831 0.0
H228 H 0.96747 0.17255 0.69072 0.0
H229 H 0.96179 0.09394 0.66472 0.0
H230 H 0.95251 0.13222 0.7439 0.0
H231 H 1.00159 0.13598 0.47616 0.0
H232 H 0.10174 0.8967 0.82486 0.0
H233 H 0.12943 0.96856 0.76208 0.0
H234 H 0.05388 0.95986 0.84502 0.0
H235 H 0.13563 0.92357 0.7747 0.0
Eu236 Eu 0.54421 0.04958 0.78315 0.0
C237 C 0.50839 0.94957 0.6667 0.0
N238 N 0.52811 0.96157 0.63326 0.0
C239 C 0.5525 0.92479 0.64294 0.0
C240 C 0.5103 0.92484 0.69385 0.0
C241 C 0.5497 0.94938 0.61751 0.0
C242 C 0.53287 0.91262 0.68299 0.0
C243 C 0.46444 0.9488 0.69433 0.0
C244 C 0.48583 0.96145 0.66688 0.0
C245 C 0.46652 0.92486 0.72794 0.0
C246 C 0.48943 0.91286 0.7274 0.0
Eu247 Eu 0.52308 1.00378 0.60038 0.0
N248 N 0.48443 0.98428 0.63147 0.0
C249 C 0.44145 0.96 0.68249 0.0
C250 C 0.46185 0.99373 0.61025 0.0
C251 C 0.44011 0.98226 0.63816 0.0
H252 H 0.56497 0.95899 0.5877 0.0
H253 H 0.42234 0.99045 0.625 0.0
H254 H 0.509 0.03594 0.9541 0.0
H255 H 0.58547 0.13825 0.69965 0.0
H256 H 0.46052 1.01055 0.57377 0.0
H257 H 0.42457 0.95098 0.703 0.0
H258 H 0.58039 0.09285 0.69731 0.0
H259 H 0.56984 0.91535 0.63252 0.0
H260 H 0.45035 0.91502 0.75055 0.0
H261 H 0.49056 0.89397 0.74962 0.0
H262 H 0.48471 0.05744 0.06477 0.0
H263 H 0.53509 0.89362 0.70301 0.0
H264 H 0.5593 0.16377 0.79501 0.0
N265 N 0.52158 0.06904 0.89504 0.0
C266 C 0.52212 0.09404 0.8988 0.0
C267 C 0.49504 0.06801 0.01821 0.0
C268 C 0.50867 0.10716 0.96141 0.0
C269 C 0.50885 0.05589 0.95517 0.0
C270 C 0.49475 0.09379 0.02089 0.0
N271 N 0.55118 0.0928 0.78801 0.0
C272 C 0.56888 0.10384 0.73894 0.0
C273 C 0.5398 0.13228 0.8474 0.0
C274 C 0.53744 0.10636 0.84309 0.0
C275 C 0.55695 0.14388 0.79381 0.0
C276 C 0.5718 0.12954 0.74014 0.0
H277 H 0.4842 0.10315 0.07014 0.0
H278 H 0.49975 0.14354 0.01104 0.0
H279 H 0.5268 0.16556 0.91003 0.0
O280 O 0.57565 0.02479 0.79988 0.0
O281 O 0.53599 0.07053 0.65977 0.0
O282 O 0.51636 0.0442 0.5625 0.0
O283 O 0.57019 0.05526 0.88779 0.0
O284 O 0.56774 0.04854 0.66063 0.0
O285 O 0.56449 1.00802 0.62097 0.0
O286 O 0.51333 0.98156 0.4892 0.0
O287 O 0.54416 0.9909 0.71869 0.0
O288 O 0.52561 1.01341 0.82108 0.0
O289 O 0.53994 1.01088 0.47545 0.0
O290 O 0.49314 0.03039 0.65153 0.0
O291 O 0.50438 0.03601 0.7914 0.0
C292 C 0.52445 0.06633 0.58651 0.0
C293 C 0.58551 1.01791 0.94312 0.0
C294 C 0.61166 0.99 0.02324 0.0
C295 C 0.59276 0.98703 0.0837 0.0
C296 C 0.56638 1.01402 1.00225 0.0
C297 C 0.57006 0.99861 0.07219 0.0
C298 C 0.60792 1.00537 0.95258 0.0
C299 C 0.57704 0.02884 0.62259 0.0
C300 C 0.58231 0.03497 0.8716 0.0
C301 C 0.51009 0.13308 0.96395 0.0
C302 C 0.52555 0.14563 0.90667 0.0
C303 C 0.5343 0.99213 0.79522 0.0
C304 C 0.51296 1.00307 0.36075 0.0
C305 C 0.47511 1.02014 0.30095 0.0
C306 C 0.48369 1.0138 0.21859 0.0
C307 C 0.52122 0.99694 0.27863 0.0
C308 C 0.49044 1.01541 0.37139 0.0
C309 C 0.5067 1.00262 0.2077 0.0
C310 C 0.48735 0.03544 0.73165 0.0
C311 C 0.52642 0.99453 0.43608 0.0
H312 H 0.59574 0.97601 0.14036 0.0
H313 H 0.54882 0.02319 0.99521 0.0
H314 H 0.55555 0.99605 0.11864 0.0
H315 H 0.62278 1.00843 0.90728 0.0
H316 H 0.47233 1.01649 0.16253 0.0
H317 H 0.53852 0.98725 0.26966 0.0
H318 H 0.48457 1.02041 0.43534 0.0
H319 H 0.51277 0.99752 0.14419 0.0
Eu320 Eu 0.54524 0.51471 0.60015 0.0
C321 C 0.48192 0.49904 0.91227 0.0
N322 N 0.47595 0.50782 0.83378 0.0
C323 C 0.4399 0.48203 0.8298 0.0
C324 C 0.46765 0.48031 0.95087 0.0
C325 C 0.45477 0.50041 0.79366 0.0
C326 C 0.44655 0.47168 0.90819 0.0
C327 C 0.50772 0.50153 0.03863 0.0
C328 C 0.50164 0.50968 0.95564 0.0
C329 C 0.49444 0.48191 0.07528 0.0
C330 C 0.47442 0.47135 0.03159 0.0
Eu331 Eu 0.50088 0.53983 0.77903 0.0
N332 N 0.51356 0.52921 0.91969 0.0
C333 C 0.52622 0.51407 0.08391 0.0
C334 C 0.52993 0.54284 0.96698 0.0
C335 C 0.53705 0.5351 0.04848 0.0
H336 H 0.4497 0.50849 0.73309 0.0
H337 H 0.5505 0.54566 0.08464 0.0
H338 H 0.6029 0.50898 0.68307 0.0
H339 H 0.51858 0.55217 0.29088 0.0
H340 H 0.53723 0.56003 0.94302 0.0
H341 H 0.53145 0.50837 0.1477 0.0
H342 H 0.51321 0.52815 0.42388 0.0
H343 H 0.42339 0.4758 0.79714 0.0
H344 H 0.49891 0.47542 0.13876 0.0
H345 H 0.46388 0.45674 0.06179 0.0
H346 H 0.64418 0.52712 0.66163 0.0
H347 H 0.43505 0.45738 0.93591 0.0
H348 H 0.55794 0.57416 0.26376 0.0
N349 N 0.58619 0.52947 0.5826 0.0
C350 C 0.59012 0.54435 0.51401 0.0
C351 C 0.62907 0.53238 0.62031 0.0
C352 C 0.61372 0.55442 0.49748 0.0
C353 C 0.60548 0.52247 0.63321 0.0
C354 C 0.63314 0.54869 0.55286 0.0
N355 N 0.54867 0.53752 0.47262 0.0
C356 C 0.5303 0.53797 0.4128 0.0
C357 C 0.57487 0.56197 0.38165 0.0
C358 C 0.57092 0.54817 0.45677 0.0
C359 C 0.55559 0.56382 0.32237 0.0
C360 C 0.53333 0.55145 0.33746 0.0
H361 H 0.65152 0.55606 0.54235 0.0
H362 H 0.63537 0.57712 0.41138 0.0
H363 H 0.60135 0.58375 0.3101 0.0
O364 O 0.53232 0.47825 0.5643 0.0
O365 O 0.52946 0.5536 0.57992 0.0
O366 O 0.52401 0.56974 0.71485 0.0
O367 O 0.56788 0.49078 0.51853 0.0
O368 O 0.50407 0.50884 0.57342 0.0
O369 O 0.48381 0.53979 0.64611 0.0
O370 O 0.48472 0.56422 0.8753 0.0
O371 O 0.50365 0.49822 0.74669 0.0
O372 O 0.54466 0.49396 0.72545 0.0
O373 O 0.46677 0.55979 0.75308 0.0
O374 O 0.54143 0.55204 0.79342 0.0
O375 O 0.56247 0.51953 0.73285 0.0
C376 C 0.52764 0.57264 0.63227 0.0
C377 C 0.5431 0.4664 0.42441 0.0
C378 C 0.51348 0.4446 0.33213 0.0
C379 C 0.53017 0.44782 0.26335 0.0
C380 C 0.55905 0.46955 0.35473 0.0
C381 C 0.55238 0.4606 0.27441 0.0
C382 C 0.52009 0.45479 0.41182 0.0
C383 C 0.4849 0.52345 0.58386 0.0
C384 C 0.55041 0.47429 0.51123 0.0
C385 C 0.61741 0.56913 0.42478 0.0
C386 C 0.59804 0.57288 0.367 0.0
C387 C 0.52385 0.48488 0.75431 0.0
C388 C 0.46512 0.59905 0.81531 0.0
C389 C 0.4826 0.64037 0.82365 0.0
C390 C 0.45997 0.65024 0.79688 0.0
C391 C 0.44267 0.60905 0.78725 0.0
C392 C 0.48521 0.61479 0.83204 0.0
C393 C 0.44018 0.63456 0.7777 0.0
C394 C 0.56129 0.53805 0.78773 0.0
C395 C 0.46754 0.57219 0.82426 0.0
H396 H 0.52687 0.43981 0.20107 0.0
H397 H 0.57678 0.47864 0.36239 0.0
H398 H 0.56488 0.46284 0.22093 0.0
H399 H 0.50768 0.45336 0.46551 0.0
H400 H 0.45759 0.67004 0.79161 0.0
H401 H 0.4271 0.59711 0.7729 0.0
H402 H 0.50266 0.60729 0.8538 0.0
H403 H 0.42279 0.64222 0.75656 0.0
Eu404 Eu 0.0385 0.5615 0.56965 0.0
C405 C 0.04998 0.46996 0.80941 0.0
N406 N 0.03625 0.47358 0.73769 0.0
C407 C 0.04714 0.43316 0.68657 0.0
C408 C 0.06352 0.44797 0.8209 0.0
C409 C 0.03381 0.45511 0.67846 0.0
C410 C 0.0623 0.42969 0.75757 0.0
C411 C 0.06356 0.48454 0.94892 0.0
C412 C 0.04989 0.48793 0.87315 0.0
C413 C 0.07753 0.46295 0.95941 0.0
C414 C 0.07744 0.44469 0.89574 0.0
Eu415 Eu 1.01454 0.51153 0.73118 0.0
N416 N 0.0363 0.5087 0.86134 0.0
C417 C 0.06248 0.50279 0.0125 0.0
C418 C 0.03409 0.52591 0.92494 0.0
C419 C 0.04742 0.5234 1.00091 0.0
H420 H 0.02108 0.45678 0.6259 0.0
H421 H 0.04595 0.53729 0.05064 0.0
H422 H 1.00529 0.61013 0.63323 0.0
H423 H 0.04571 0.52118 0.24802 0.0
H424 H 0.02214 0.54164 0.91708 0.0
H425 H 0.07278 0.5009 0.07145 0.0
H426 H 0.05969 0.53069 0.39403 0.0
H427 H 0.04538 0.41876 0.63873 0.0
H428 H 0.08817 0.46004 0.0171 0.0
H429 H 0.088 0.42796 0.90541 0.0
H430 H 0.97032 0.63545 0.5808 0.0
H431 H 0.07242 0.41256 0.76405 0.0
H432 H 1.0078 0.54052 0.19166 0.0
N433 N 1.00554 0.5867 0.52398 0.0
C434 C 0.99674 0.5824 0.44397 0.0
C435 C 0.97748 0.62049 0.54199 0.0
C436 C 0.97711 0.59654 0.41107 0.0
C437 C 0.99719 0.60623 0.57143 0.0
C438 C 0.96716 0.61541 0.46193 0.0
N439 N 0.02817 0.55251 0.42518 0.0
C440 C 0.0423 0.53811 0.37245 0.0
C441 C 1.00016 0.56059 0.30877 0.0
C442 C 1.00816 0.56458 0.39362 0.0
C443 C 1.01336 0.54409 0.2571 0.0
C444 C 0.03475 0.53311 0.2887 0.0
H445 H 0.95199 0.62659 0.43903 0.0
H446 H 0.95366 0.60276 0.30116 0.0
H447 H 0.9736 0.5711 0.21199 0.0
O448 O 0.06146 0.58194 0.47955 0.0
O449 O 0.99717 0.55791 0.60382 0.0
O450 O 0.99257 0.5166 0.60828 0.0
O451 O 0.05899 0.59429 0.61038 0.0
O452 O 0.05081 0.52167 0.53972 0.0
O453 O 1.01799 0.49948 0.5918 0.0
O454 O 0.97921 0.51764 0.79484 0.0
O455 O 0.05338 0.52732 0.75617 0.0
O456 O 0.0689 0.53696 0.62344 0.0
O457 O 0.99348 0.48048 0.78178 0.0
O458 O 1.00612 0.55174 0.77005 0.0
O459 O 0.03802 0.57367 0.70882 0.0
C460 C 0.98376 0.53823 0.58754 0.0
C461 C 0.09738 0.59817 0.54364 0.0
C462 C 0.13772 0.57916 0.52819 0.0
C463 C 0.1489 0.60112 0.55666 0.0
C464 C 0.10865 0.61993 0.5733 0.0
C465 C 0.13435 0.62133 0.58006 0.0
C466 C 0.11199 0.57766 0.52248 0.0
C467 C 0.03665 0.5018 0.53848 0.0
C468 C 0.0704 0.59666 0.53784 0.0
C469 C 0.96861 0.59198 0.32774 0.0
C470 C 0.97999 0.57396 0.2769 0.0
C471 C 0.0722 0.53113 0.70427 0.0
C472 C 0.95128 0.48672 0.7538 0.0
C473 C 0.90704 0.49195 0.73845 0.0
C474 C 0.90738 0.47787 0.66315 0.0
C475 C 0.95164 0.47292 0.67729 0.0
C476 C 0.92894 0.49608 0.78389 0.0
C477 C 0.9297 0.4684 0.63265 0.0
C478 C 0.02076 0.5713 0.76737 0.0
C479 C 0.97419 0.49406 0.79725 0.0
H480 H 0.16884 0.60263 0.5601 0.0
H481 H 0.09758 0.63578 0.5911 0.0
H482 H 0.14303 0.63819 0.6025 0.0
H483 H 0.10345 0.56073 0.4996 0.0
H484 H 0.89045 0.47409 0.62867 0.0
H485 H 0.96884 0.46601 0.65123 0.0
H486 H 0.9287 0.50732 0.84149 0.0
H487 H 0.93005 0.45775 0.57397 0.0
C488 C 0.1647 0.04339 0.16497 0.0
C489 C 0.18762 0.05401 0.18693 0.0
C490 C 0.14538 0.04092 0.22513 0.0
C491 C 0.1486 0.04962 0.31008 0.0
C492 C 0.17187 0.05994 0.3332 0.0
C493 C 0.19108 0.06181 0.27184 0.0
C494 C 0.12127 0.02938 0.19704 0.0
C495 C 0.17622 0.06981 0.42224 0.0
C496 C 0.08973 0.06486 0.43885 0.0
C497 C 0.08731 0.04425 0.49268 0.0
C498 C 0.10965 0.06703 0.38049 0.0
C499 C 0.12761 0.04799 0.37413 0.0
C500 C 0.12512 0.02708 0.42784 0.0
C501 C 0.10529 0.02557 0.48644 0.0
C502 C 0.11146 0.0898 0.3255 0.0
C503 C 0.14328 1.00602 0.42266 0.0
H504 H 0.16174 0.03727 0.0997 0.0
H505 H 0.20847 0.0704 0.28941 0.0
H506 H 0.11613 1.01407 0.2406 0.0
H507 H 0.10629 0.04329 0.20042 0.0
H508 H 0.12217 0.02206 0.13069 0.0
H509 H 0.19533 0.07691 0.43099 0.0
H510 H 0.16304 0.085 0.43582 0.0
H511 H 0.17274 0.05512 0.47 0.0
H512 H 0.07615 0.07949 0.44282 0.0
H513 H 0.10373 1.00943 0.52688 0.0
H514 H 0.1097 0.08457 0.25715 0.0
H515 H 0.12983 0.09863 0.33378 0.0
H516 H 0.09693 0.10356 0.34104 0.0
H517 H 0.14333 0.99815 0.35704 0.0
H518 H 0.13888 0.99102 0.4685 0.0
H519 H 0.16224 1.01285 0.43591 0.0
C520 C 0.5449 0.17293 0.23969 0.0
C521 C 0.52441 0.18786 0.2202 0.0
C522 C 0.54354 0.15386 0.30077 0.0
C523 C 0.5211 0.14924 0.34477 0.0
C524 C 0.50048 0.16465 0.32735 0.0
C525 C 0.50239 0.18374 0.26574 0.0
C526 C 0.56615 0.13831 0.31709 0.0
C527 C 0.47617 0.16056 0.37229 0.0
C528 C 0.5142 0.0841 0.44051 0.0
C529 C 0.52127 0.08778 0.5262 0.0
C530 C 0.5132 0.10392 0.38179 0.0
C531 C 0.51948 0.12828 0.40857 0.0
C532 C 0.52584 0.13221 0.49557 0.0
C533 C 0.52654 0.1121 0.55285 0.0
C534 C 0.50614 0.0986 0.29021 0.0
C535 C 0.53266 0.15764 0.52795 0.0
H536 H 0.56214 0.176 0.20604 0.0
H537 H 0.48634 0.19485 0.25101 0.0
H538 H 0.57107 0.13901 0.38587 0.0
H539 H 0.56217 0.11872 0.30083 0.0
H540 H 0.58236 0.14449 0.27915 0.0
H541 H 0.46217 0.17461 0.35466 0.0
H542 H 0.46884 0.14197 0.35583 0.0
H543 H 0.47886 0.16108 0.44256 0.0
H544 H 0.51002 0.06556 0.41841 0.0
H545 H 0.53154 0.1155 0.61878 0.0
H546 H 0.52226 0.10196 0.24795 0.0
H547 H 0.49122 0.11125 0.26953 0.0
H548 H 0.4998 0.07923 0.2808 0.0
H549 H 0.54991 0.16394 0.49637 0.0
H550 H 0.53556 0.15802 0.59824 0.0
H551 H 0.51799 0.17107 0.51156 0.0
C552 C 0.39012 0.52933 0.18741 0.0
C553 C 0.36514 0.52589 0.21041 0.0
C554 C 0.40949 0.52678 0.24706 0.0
C555 C 0.40419 0.51992 0.33244 0.0
C556 C 0.37929 0.51453 0.35461 0.0
C557 C 0.36012 0.51778 0.29397 0.0
C558 C 0.43563 0.53234 0.21921 0.0
C559 C 0.37281 0.50586 0.44332 0.0
C560 C 0.45981 0.50077 0.47104 0.0
C561 C 0.46392 0.52203 0.52107 0.0
C562 C 0.44011 0.49939 0.41169 0.0
C563 C 0.42443 0.52011 0.39933 0.0
C564 C 0.42875 0.5417 0.44914 0.0
C565 C 0.44806 0.54226 0.50982 0.0
C566 C 0.43662 0.47574 0.36163 0.0
C567 C 0.41334 0.56461 0.4367 0.0
H568 H 0.39459 0.53475 0.12263 0.0
H569 H 0.34111 0.5149 0.31328 0.0
H570 H 0.4435 0.54737 0.25944 0.0
H571 H 0.44736 0.5158 0.22814 0.0
H572 H 0.43673 0.53799 0.15114 0.0
H573 H 0.35321 0.49991 0.44836 0.0
H574 H 0.38488 0.4902 0.46163 0.0
H575 H 0.37611 0.521 0.48999 0.0
H576 H 0.47185 0.48497 0.4788 0.0
H577 H 0.45112 0.55891 0.54711 0.0
H578 H 0.4477 0.47666 0.30205 0.0
H579 H 0.41701 0.47262 0.34396 0.0
H580 H 0.4432 0.45955 0.39853 0.0
H581 H 0.41476 0.57083 0.36935 0.0
H582 H 0.41919 0.58003 0.47923 0.0
H583 H 0.39361 0.56043 0.44941 0.0
C584 C 0.04438 0.40965 0.12968 0.0
C585 C 0.04497 0.38456 0.15381 0.0
C586 C 0.04457 0.429 0.19066 0.0
C587 C 0.04658 0.42358 0.27894 0.0
C588 C 0.04872 0.39846 0.30373 0.0
C589 C 0.04758 0.37938 0.24154 0.0
C590 C 0.04189 0.4553 0.16032 0.0
C591 C 0.0514 0.39164 0.39667 0.0
C592 C 0.06284 0.47673 0.4347 0.0
C593 C 0.03971 0.48239 0.47041 0.0
C594 C 0.0655 0.45756 0.37332 0.0
C595 C 0.04448 0.44394 0.34529 0.0
C596 C 0.02105 0.45004 0.38007 0.0
C597 C 1.01902 0.46887 0.44225 0.0
C598 C 0.09088 0.45172 0.33914 0.0
C599 C 0.99793 0.43683 0.35087 0.0
H600 H 0.04329 0.41437 0.06261 0.0
H601 H 0.04788 0.36034 0.26248 0.0
H602 H 0.02732 0.46503 0.19718 0.0
H603 H 0.05947 0.46541 0.17094 0.0
H604 H 0.03714 0.45627 0.09139 0.0
H605 H 0.05554 0.37171 0.40522 0.0
H606 H 0.06638 0.4027 0.42672 0.0
H607 H 0.03406 0.39597 0.43133 0.0
H608 H 0.07896 0.48695 0.45605 0.0
H609 H 1.00099 0.47319 0.46846 0.0
H610 H 0.09153 0.45534 0.26948 0.0
H611 H 0.095 0.43183 0.34835 0.0
H612 H 0.10554 0.46287 0.37078 0.0
H613 H 0.99582 0.43875 0.28066 0.0
H614 H 0.98104 0.44412 0.38236 0.0
H615 H 0.99937 0.41681 0.36484 0.0
C616 C 0.9034 0.02941 0.18511 0.0
C617 C 0.87801 0.02948 0.16423 0.0
C618 C 0.922 0.02776 0.12209 0.0
C619 C 0.91549 0.02473 0.03502 0.0
C620 C 0.89001 0.02323 0.01353 0.0
C621 C 0.87167 0.02589 0.07778 0.0
C622 C 0.94872 0.03003 0.14881 0.0
C623 C 0.88207 1.01951 0.92198 0.0
C624 C 0.96143 0.04803 0.86669 0.0
C625 C 0.97408 0.02648 0.84211 0.0
C626 C 0.94246 0.04762 0.92844 0.0
C627 C 0.93532 0.02497 0.96662 0.0
C628 C 0.94794 1.00305 0.94191 0.0
C629 C 0.96725 1.00409 0.88068 0.0
C630 C 0.93037 0.07164 0.95399 0.0
C631 C 0.94096 0.97845 0.97995 0.0
H632 H 0.90898 0.03107 0.25134 0.0
H633 H 0.85238 0.02588 0.05953 0.0
H634 H 0.95842 1.01238 0.13618 0.0
H635 H 0.95819 0.04452 0.11088 0.0
H636 H 0.9507 0.03475 0.2176 0.0
H637 H 0.86189 1.0161 0.91633 0.0
H638 H 0.88683 0.03614 0.88413 0.0
H639 H 0.8921 1.00367 0.89319 0.0
H640 H 0.96663 0.06553 0.83823 0.0
H641 H 0.97675 0.98731 0.86204 0.0
H642 H 0.93297 0.07493 0.02347 0.0
H643 H 0.9102 0.07062 0.94204 0.0
H644 H 0.93802 0.0877 0.91863 0.0
H645 H 0.94474 0.97861 0.04959 0.0
H646 H 0.9513 0.96291 0.95037 0.0
H647 H 0.92087 0.97508 0.97165 0.0
C648 C 0.52372 0.86577 0.07568 0.0
C649 C 0.53778 0.86791 0.15092 0.0
C650 C 0.52306 0.88512 0.01469 0.0
C651 C 0.53693 0.90716 0.02837 0.0
C652 C 0.55178 0.90888 0.10271 0.0
C653 C 0.55202 0.88946 0.16239 0.0
C654 C 0.50717 0.8822 0.93619 0.0
C655 C 0.56709 0.93159 0.12055 0.0
C656 C 0.5524 0.95151 0.84402 0.0
C657 C 0.53499 0.97045 0.85486 0.0
C658 C 0.55287 0.93067 0.8982 0.0
C659 C 0.53573 0.92864 0.96655 0.0
C660 C 0.51832 0.94796 0.9786 0.0
C661 C 0.51819 0.96852 0.92301 0.0
C662 C 0.572 0.91093 0.88276 0.0
C663 C 0.49986 0.94701 0.05079 0.0
H664 H 0.51258 0.84933 0.06586 0.0
H665 H 0.56329 0.89129 0.21932 0.0
H666 H 0.49343 0.89736 0.9334 0.0
H667 H 0.51881 0.8836 0.87804 0.0
H668 H 0.49721 0.86423 0.93485 0.0
H669 H 0.57888 0.92957 0.17817 0.0
H670 H 0.57913 0.93568 0.06499 0.0
H671 H 0.55471 0.94765 0.1303 0.0
H672 H 0.56597 0.9531 0.79345 0.0
H673 H 0.50473 0.98307 0.93261 0.0
H674 H 0.56289 0.89266 0.87555 0.0
H675 H 0.58456 0.90978 0.93858 0.0
H676 H 0.58324 0.91458 0.82471 0.0
H677 H 0.48901 0.92962 0.0471 0.0
H678 H 0.48691 0.9629 0.0498 0.0
H679 H 0.50972 0.94706 0.11294 0.0
C680 C 0.68501 0.54985 0.07851 0.0
C681 C 0.67982 0.54688 0.16613 0.0
C682 C 0.66598 0.55063 0.01648 0.0
C683 C 0.6409 0.54777 0.04129 0.0
C684 C 0.63542 0.54534 0.12952 0.0
C685 C 0.65472 0.54548 0.19039 0.0
C686 C 0.67283 0.55382 0.92367 0.0
C687 C 0.60914 0.54198 0.15998 0.0
C688 C 0.58759 0.56411 0.88823 0.0
C689 C 0.58189 0.54108 0.85125 0.0
C690 C 0.60685 0.56671 0.94892 0.0
C691 C 0.62063 0.54572 0.97489 0.0
C692 C 0.61473 0.52242 0.93808 0.0
C693 C 0.59577 0.52046 0.87654 0.0
C694 C 0.61247 0.59196 0.98523 0.0
C695 C 0.62814 0.49933 0.96516 0.0
H696 H 0.70405 0.55075 0.05749 0.0
H697 H 0.64998 0.54405 0.25743 0.0
H698 H 0.66859 0.53659 0.88784 0.0
H699 H 0.66171 0.56882 0.89483 0.0
H700 H 0.69274 0.55821 0.91515 0.0
H701 H 0.60822 0.53652 0.22825 0.0
H702 H 0.59888 0.55953 0.15218 0.0
H703 H 0.59949 0.52767 0.12137 0.0
H704 H 0.57707 0.58019 0.8692 0.0
H705 H 0.59139 0.5025 0.84952 0.0
H706 H 0.63236 0.59636 0.9768 0.0
H707 H 0.60861 0.59216 0.05483 0.0
H708 H 0.60133 0.60668 0.95456 0.0
H709 H 0.6482 0.50127 0.9522 0.0
H710 H 0.62123 0.48257 0.93154 0.0
H711 H 0.62592 0.49662 0.03502 0.0
C712 C 1.01405 0.69527 0.06033 0.0
C713 C 0.01947 0.69031 0.14647 0.0
C714 C 1.01145 0.67597 0.99933 0.0
C715 C 1.01464 0.65091 0.02401 0.0
C716 C 1.01879 0.64575 0.1116 0.0
C717 C 0.02085 0.66531 0.17125 0.0
C718 C 1.00626 0.6825 0.90748 0.0
C719 C 0.02244 0.61956 0.14201 0.0
C720 C 0.99639 0.59651 0.87603 0.0
C721 C 1.01878 0.59123 0.83431 0.0
C722 C 0.99456 0.61607 0.93636 0.0
C723 C 1.01576 0.63038 0.95785 0.0
C724 C 0.03848 0.62471 0.91697 0.0
C725 C 0.03961 0.6056 0.85539 0.0
C726 C 0.96982 0.62161 0.97638 0.0
C727 C 0.0618 0.63871 0.9389 0.0
H728 H 1.01292 0.7143 0.03955 0.0
H729 H 0.02434 0.66094 0.23766 0.0
H730 H 0.02292 0.67886 0.86812 0.0
H731 H 0.9911 0.67079 0.8818 0.0
H732 H 1.00112 0.70223 0.9001 0.0
H733 H 0.0236 0.61836 0.21277 0.0
H734 H 1.0071 0.60753 0.11988 0.0
H735 H 0.03976 0.61204 0.11432 0.0
H736 H 0.98013 0.58571 0.86006 0.0
H737 H 0.05709 0.60164 0.82443 0.0
H738 H 0.96494 0.64125 0.96564 0.0
H739 H 0.97075 0.61881 0.04646 0.0
H740 H 0.95486 0.60973 0.95008 0.0
H741 H 0.05946 0.65859 0.92412 0.0
H742 H 0.07813 0.63171 0.90331 0.0
H743 H 0.06557 0.63727 0.00841 0.0
C744 C 0.06643 0.234 0.29468 0.0
C745 C 0.05487 0.25548 0.2651 0.0
C746 C 0.05858 0.22279 0.37044 0.0
C747 C 0.0394 0.23391 0.41842 0.0
C748 C 0.03151 0.25799 0.39816 0.0
C749 C 0.03883 0.26831 0.32032 0.0
C750 C 0.06813 0.19737 0.39175 0.0
C751 C 1.01257 0.27124 0.45206 0.0
C752 C 0.98942 0.18764 0.46581 0.0
C753 C 0.99576 0.18018 0.54807 0.0
C754 C 1.00283 0.20613 0.42468 0.0
C755 C 0.02273 0.21778 0.46822 0.0
C756 C 0.02779 0.21177 0.55432 0.0
C757 C 1.01451 0.19251 0.59277 0.0
C758 C 0.9967 0.21187 0.33255 0.0
C759 C 0.04799 0.22444 0.60449 0.0
H760 H 0.07986 0.22467 0.25461 0.0
H761 H 0.02996 0.28518 0.29984 0.0
H762 H 0.07199 0.19587 0.46105 0.0
H763 H 0.05383 0.18338 0.37543 0.0
H764 H 0.08524 0.19287 0.35574 0.0
H765 H 1.0138 0.29157 0.44327 0.0
H766 H 0.99378 0.26519 0.43275 0.0
H767 H 1.01499 0.2669 0.52082 0.0
H768 H 0.97489 0.17787 0.43177 0.0
H769 H 0.01981 0.18612 0.65549 0.0
H770 H 1.01292 0.20804 0.29119 0.0
H771 H 0.99206 0.2317 0.32578 0.0
H772 H 0.98083 0.2008 0.30839 0.0
H773 H 0.06539 0.21386 0.59749 0.0
H774 H 0.04334 0.22502 0.67367 0.0
H775 H 0.05134 0.24356 0.5819 0.0
C776 C 0.33375 0.06023 0.28402 0.0
C777 C 0.32533 0.04038 0.23419 0.0
C778 C 0.35635 0.05854 0.32769 0.0
C779 C 0.37088 0.03707 0.3168 0.0
C780 C 0.36026 1.0157 0.27914 0.0
C781 C 0.33708 1.01748 0.2404 0.0
C782 C 0.36608 0.08074 0.37557 0.0
C783 C 0.3748 0.99213 0.26776 0.0
C784 C 0.43761 0.04307 0.25064 0.0
C785 C 0.44936 0.02915 0.31392 0.0
C786 C 0.41211 0.04733 0.25378 0.0
C787 C 0.39818 0.03851 0.32433 0.0
C788 C 0.41043 0.02721 0.39339 0.0
C789 C 0.43567 0.02196 0.38619 0.0
C790 C 0.39994 0.05905 0.17715 0.0
C791 C 0.3969 1.01905 0.47275 0.0
H792 H 0.32441 0.07789 0.28025 0.0
H793 H 0.33021 1.00211 0.20244 0.0
H794 H 0.37734 0.07496 0.43129 0.0
H795 H 0.37806 0.09184 0.3328 0.0
H796 H 0.35075 0.09273 0.3981 0.0
H797 H 0.36337 0.97692 0.24062 0.0
H798 H 0.39064 0.99548 0.22416 0.0
H799 H 0.38234 0.98596 0.32986 0.0
H800 H 0.44806 0.04956 0.19605 0.0
H801 H 0.44415 1.01091 0.43541 0.0
H802 H 0.38652 0.07339 0.19683 0.0
H803 H 0.38971 0.04462 0.141 0.0
H804 H 0.41361 0.0677 0.13344 0.0
H805 H 0.37908 0.02882 0.48152 0.0
H806 H 0.4086 0.02239 0.52985 0.0
H807 H 0.39333 0.99888 0.46938 0.0
C808 C 0.44208 0.32508 0.20452 0.0
C809 C 0.46467 0.31256 0.20925 0.0
C810 C 0.43881 0.34762 0.24815 0.0
C811 C 0.45924 0.35832 0.29137 0.0
C812 C 0.48038 0.34351 0.3076 0.0
C813 C 0.48206 0.3201 0.26997 0.0
C814 C 0.41427 0.36055 0.24119 0.0
C815 C 0.50288 0.35341 0.35397 0.0
C816 C 0.48228 0.42159 0.24191 0.0
C817 C 0.49111 0.42816 0.32323 0.0
C818 C 0.46829 0.40004 0.22987 0.0
C819 C 0.46154 0.38564 0.30181 0.0
C820 C 0.46465 0.39586 0.38416 0.0
C821 C 0.48023 0.41642 0.39453 0.0
C822 C 0.4635 0.39144 0.13958 0.0
C823 C 0.45365 0.38391 0.4624 0.0
H824 H 0.42815 0.31882 0.15955 0.0
H825 H 0.49926 0.30997 0.27502 0.0
H826 H 0.41401 0.37872 0.27427 0.0
H827 H 0.40927 0.363 0.17295 0.0
H828 H 0.39975 0.34865 0.26979 0.0
H829 H 0.51856 0.34021 0.35318 0.0
H830 H 0.50929 0.3709 0.32438 0.0
H831 H 0.49823 0.35723 0.42162 0.0
H832 H 0.48789 0.43197 0.18631 0.0
H833 H 0.4849 0.42166 0.45913 0.0
H834 H 0.44364 0.38742 0.13032 0.0
H835 H 0.47404 0.37432 0.12731 0.0
H836 H 0.46905 0.40539 0.09134 0.0
H837 H 0.44292 0.39792 0.49871 0.0
H838 H 0.46856 0.37749 0.5055 0.0
H839 H 0.44123 0.36821 0.44645 0.0
C840 C 0.24123 0.50326 0.33268 0.0
C841 C 0.23245 0.49154 0.25829 0.0
C842 C 0.22513 0.50819 0.40074 0.0
C843 C 0.19974 0.50265 0.39079 0.0
C844 C 0.19235 0.48593 0.32591 0.0
C845 C 0.20945 0.47941 0.2625 0.0
C846 C 0.23425 0.52375 0.47448 0.0
C847 C 0.16575 0.4784 0.31291 0.0
C848 C 0.1541 0.53602 0.53525 0.0
C849 C 0.15284 0.55893 0.49411 0.0
C850 C 0.16876 0.51692 0.50149 0.0
C851 C 0.1818 0.52092 0.42437 0.0
C852 C 0.1792 0.54366 0.38039 0.0
C853 C 0.16511 0.56251 0.41681 0.0
C854 C 0.17059 0.49272 0.54848 0.0
C855 C 0.19159 0.5484 0.29527 0.0
H856 H 0.25938 0.51167 0.33409 0.0
H857 H 0.20324 0.46827 0.20889 0.0
H858 H 0.23189 0.54359 0.4588 0.0
H859 H 0.22361 0.51981 0.53356 0.0
H860 H 0.25418 0.52043 0.48672 0.0
H861 H 0.16457 0.45804 0.30455 0.0
H862 H 0.15347 0.484 0.36614 0.0
H863 H 0.15874 0.48687 0.25315 0.0
H864 H 0.14401 0.53324 0.59419 0.0
H865 H 0.16344 0.58011 0.38439 0.0
H866 H 0.1899 0.48989 0.56997 0.0
H867 H 0.16596 0.47708 0.50543 0.0
H868 H 0.15807 0.49205 0.6047 0.0
H869 H 0.18479 0.56555 0.26456 0.0
H870 H 0.18831 0.53274 0.25068 0.0
H871 H 0.21182 0.5503 0.30456 0.0
C872 C 0.97765 0.84644 0.08509 0.0
C873 C 0.9909 0.82422 0.09098 0.0
C874 C 0.98421 0.86406 0.02377 0.0
C875 C 1.0029 0.85818 0.96409 0.0
C876 C 1.01074 0.83341 0.95537 0.0
C877 C 1.00512 0.81666 0.02055 0.0
C878 C 0.9746 0.89005 0.03367 0.0
C879 C 0.02874 0.82587 0.88656 0.0
C880 C 0.03364 0.90708 0.82649 0.0
C881 C 0.05565 0.91078 0.87183 0.0
C882 C 1.01577 0.89031 0.85595 0.0
C883 C 0.01977 0.87792 0.93407 0.0
C884 C 0.04125 0.88318 0.98304 0.0
C885 C 0.05917 0.89915 0.95021 0.0
C886 C 0.99353 0.88499 0.80086 0.0
C887 C 0.04578 0.87142 0.06915 0.0
H888 H 0.96524 0.85172 0.13642 0.0
H889 H 1.01472 0.79914 0.02142 0.0
H890 H 0.98748 0.90072 0.075 0.0
H891 H 0.97341 0.8996 0.9713 0.0
H892 H 0.9561 0.89018 0.06448 0.0
H893 H 0.02784 0.80567 0.87413 0.0
H894 H 0.02499 0.8359 0.82622 0.0
H895 H 0.0478 0.83052 0.90745 0.0
H896 H 0.03078 0.91665 0.76674 0.0
H897 H 0.07604 0.90258 0.98579 0.0
H898 H 0.9773 0.87889 0.83857 0.0
H899 H 0.99826 0.86988 0.75567 0.0
H900 H 0.98832 0.90151 0.76313 0.0
H901 H 0.02917 0.87308 0.11036 0.0
H902 H 0.06165 0.87999 0.10326 0.0
H903 H 0.04975 0.85147 0.06052 0.0
C904 C 0.75052 0.98103 0.1068 0.0
C905 C 0.7534 0.96925 0.18571 0.0
C906 C 0.72943 0.9765 0.05719 0.0
C907 C 0.71164 0.95937 0.08704 0.0
C908 C 0.71797 0.9431 0.15395 0.0
C909 C 0.73887 0.94842 0.20381 0.0
C910 C 0.72401 0.99349 0.98342 0.0
C911 C 0.7005 0.92303 0.18227 0.0
C912 C 0.64866 0.9882 0.11378 0.0
C913 C 0.63637 0.98008 0.04065 0.0
C914 C 0.67294 0.98111 0.12981 0.0
C915 C 0.68513 0.96489 0.07199 0.0
C916 C 0.67236 0.9558 0.99932 0.0
C917 C 0.64806 0.9638 0.98388 0.0
C918 C 0.68549 0.9915 0.20837 0.0
C919 C 0.68392 0.93735 0.93895 0.0
H920 H 0.76215 0.99675 0.09138 0.0
H921 H 0.74157 0.93874 0.26361 0.0
H922 H 0.71427 0.98353 0.93129 0.0
H923 H 0.71183 1.00866 1.00589 0.0
H924 H 0.74119 1.00184 0.95736 0.0
H925 H 0.71052 0.90814 0.21631 0.0
H926 H 0.68662 0.93094 0.2268 0.0
H927 H 0.69051 0.91497 0.12678 0.0
H928 H 0.63944 1.00085 0.15721 0.0
H929 H 0.63818 0.95732 0.92779 0.0
H930 H 0.70343 1.00009 0.19125 0.0
H931 H 0.68896 0.97635 0.25422 0.0
H932 H 0.67411 1.00566 0.24134 0.0
H933 H 0.7041 0.94029 0.93193 0.0
H934 H 0.6752 0.93801 0.87474 0.0
H935 H 0.68109 0.91851 0.96501 0.0
C936 C 0.58104 0.71222 0.0884 0.0
C937 C 0.56976 0.73553 0.09357 0.0
C938 C 0.57461 0.69585 0.02247 0.0
C939 C 0.55865 0.70421 0.9572 0.0
C940 C 0.55409 0.72983 0.94936 0.0
C941 C 0.55913 0.7453 0.01931 0.0
C942 C 0.58073 0.66888 0.03387 0.0
C943 C 0.5393 0.73989 0.87576 0.0
C944 C 0.52517 0.65834 0.81263 0.0
C945 C 0.50234 0.65676 0.85456 0.0
C946 C 0.54406 0.67362 0.84511 0.0
C947 C 0.53993 0.68694 0.9218 0.0
C948 C 0.51707 0.68446 0.96563 0.0
C949 C 0.49846 0.66973 0.93047 0.0
C950 C 0.56815 0.67577 0.79719 0.0
C951 C 0.51208 0.69727 0.05003 0.0
H952 H 0.59106 0.70519 0.14313 0.0
H953 H 0.55142 0.76375 0.01986 0.0
H954 H 0.56864 0.66109 0.08447 0.0
H955 H 0.578 0.65784 0.97491 0.0
H956 H 0.60014 0.66682 0.05558 0.0
H957 H 0.54344 0.75977 0.86547 0.0
H958 H 0.54317 0.72948 0.81599 0.0
H959 H 0.51931 0.73807 0.89031 0.0
H960 H 0.5281 0.64786 0.75436 0.0
H961 H 0.48089 0.66789 0.96332 0.0
H962 H 0.58412 0.67363 0.84076 0.0
H963 H 0.56963 0.6945 0.76915 0.0
H964 H 0.56965 0.66179 0.74531 0.0
H965 H 0.52723 0.69358 0.09591 0.0
H966 H 0.49444 0.69115 0.07958 0.0
H967 H 0.51107 0.71753 0.04029 0.0
C968 C 0.79579 0.54593 0.99668 0.0
C969 C 0.80838 0.56193 0.05293 0.0
C970 C 0.80638 0.53899 0.91866 0.0
C971 C 0.83049 0.5472 0.89936 0.0
C972 C 0.84126 0.56649 0.9481 0.0
C973 C 0.82976 0.57399 0.02399 0.0
C974 C 0.79346 0.51998 0.86378 0.0
C975 C 0.86664 0.57645 0.92763 0.0
C976 C 0.87656 0.49699 0.85373 0.0
C977 C 0.88418 0.50292 0.77119 0.0
C978 C 0.85828 0.51076 0.89459 0.0
C979 C 0.84695 0.5306 0.8505 0.0
C980 C 0.85328 0.53542 0.76443 0.0
C981 C 0.87237 0.52182 0.72632 0.0
C982 C 0.85225 0.50489 0.98677 0.0
C983 C 0.84103 0.55561 0.71373 0.0
H984 H 0.77897 0.53672 0.01648 0.0
H985 H 0.83887 0.58744 0.0648 0.0
H986 H 0.79805 0.52258 0.79523 0.0
H987 H 0.79958 0.50123 0.88265 0.0
H988 H 0.7731 0.52094 0.87205 0.0
H989 H 0.87079 0.59368 0.96379 0.0
H990 H 0.88072 0.56241 0.94445 0.0
H991 H 0.86838 0.58026 0.85837 0.0
H992 H 0.88596 0.48238 0.88797 0.0
H993 H 0.87896 0.52688 0.66352 0.0
H994 H 0.83243 0.50003 0.99309 0.0
H995 H 0.85582 0.5213 0.02778 0.0
H996 H 0.86331 0.48924 0.0117 0.0
H997 H 0.84047 0.55075 0.64468 0.0
H998 H 0.85191 0.57291 0.72028 0.0
H999 H 0.82193 0.55926 0.73616 0.0
C1000 C 0.06801 0.20739 0.96939 0.0
C1001 C 0.05062 0.2266 0.96337 0.0
C1002 C 0.0645 0.18434 0.92832 0.0
C1003 C 0.04314 0.17992 0.8778 0.0
C1004 C 0.02571 0.19954 0.86989 0.0
C1005 C 0.02976 0.22251 0.91192 0.0
C1006 C 0.08292 0.16404 0.94425 0.0
C1007 C 1.00196 0.19653 0.82097 0.0
C1008 C 0.05011 0.1232 0.72821 0.0
C1009 C 0.0341 0.10582 0.76506 0.0
C1010 C 0.05232 0.14754 0.76115 0.0
C1011 C 0.03917 0.15464 0.83626 0.0
C1012 C 0.02325 0.1368 0.87436 0.0
C1013 C 0.02044 0.11302 0.83719 0.0
C1014 C 0.0691 0.16525 0.71455 0.0
C1015 C 1.00946 0.14263 0.95569 0.0
H1016 H 0.08407 0.21008 0.00981 0.0
H1017 H 1.01581 0.23679 0.90811 0.0
H1018 H 0.07309 0.14773 0.97027 0.0
H1019 H 0.09177 0.15836 0.88343 0.0
H1020 H 0.0976 0.16965 0.98999 0.0
H1021 H 1.00064 0.21117 0.77169 0.0
H1022 H 1.00011 0.17822 0.79005 0.0
H1023 H 0.9861 0.19917 0.86509 0.0
H1024 H 0.06068 0.11792 0.67217 0.0
H1025 H 1.00811 0.09968 0.86646 0.0
H1026 H 0.08861 0.16026 0.72745 0.0
H1027 H 0.06619 0.18479 0.73336 0.0
H1028 H 0.06624 0.16354 0.64445 0.0
H1029 H 0.02219 0.15076 1.00387 0.0
H1030 H 1.00056 0.12598 0.98353 0.0
H1031 H 0.99489 0.15645 0.94238 0.0
C1032 C 0.34389 0.02964 0.88464 0.0
C1033 C 0.3372 0.05136 0.92829 0.0
C1034 C 0.36691 0.02755 0.84191 0.0
C1035 C 0.38407 0.04748 0.8438 0.0
C1036 C 0.37675 0.06992 0.88363 0.0
C1037 C 0.35359 0.07155 0.92508 0.0
C1038 C 0.37359 1.00333 0.79997 0.0
C1039 C 0.3942 0.09167 0.8887 0.0
C1040 C 0.45351 0.0327 0.8422 0.0
C1041 C 0.46074 0.03838 0.75819 0.0
C1042 C 0.42885 0.03541 0.87009 0.0
C1043 C 0.41045 0.04407 0.81299 0.0
C1044 C 0.41759 0.04988 0.72792 0.0
C1045 C 0.44249 0.04688 0.70153 0.0
C1046 C 0.42252 0.02903 0.96137 0.0
C1047 C 0.39889 0.05947 0.66493 0.0
H1048 H 0.33186 1.01365 0.88911 0.0
H1049 H 0.34908 0.0881 0.96107 0.0
H1050 H 0.38134 1.00653 0.73527 0.0
H1051 H 0.38806 0.994 0.8382 0.0
H1052 H 0.35742 0.99074 0.79445 0.0
H1053 H 0.38478 0.10871 0.91119 0.0
H1054 H 0.40939 0.08739 0.93386 0.0
H1055 H 0.40269 0.09533 0.82545 0.0
H1056 H 0.46718 0.0258 0.88655 0.0
H1057 H 0.44774 0.05152 0.6367 0.0
H1058 H 0.40906 1.01354 0.96244 0.0
H1059 H 0.41362 0.04505 0.9931 0.0
H1060 H 0.43902 0.02368 0.99913 0.0
H1061 H 0.40741 0.06437 0.60263 0.0
H1062 H 0.38959 0.07608 0.69131 0.0
H1063 H 0.38439 0.04528 0.6539 0.0
C1064 C 0.51729 0.35841 0.0201 0.0
C1065 C 0.51276 0.33688 0.97161 0.0
C1066 C 0.52066 0.38168 0.98161 0.0
C1067 C 0.52024 0.38379 0.89137 0.0
C1068 C 0.51738 0.36186 0.84163 0.0
C1069 C 0.51344 0.33874 0.8822 0.0
C1070 C 0.52353 0.40423 0.03809 0.0
C1071 C 0.51736 0.36299 0.74538 0.0
C1072 C 0.50034 0.44649 0.79988 0.0
C1073 C 0.52294 0.4586 0.78581 0.0
C1074 C 0.49921 0.42227 0.83311 0.0
C1075 C 0.52129 0.40908 0.85027 0.0
C1076 C 0.54423 0.4208 0.83268 0.0
C1077 C 0.54478 0.44534 0.80171 0.0
C1078 C 0.47425 0.41113 0.85263 0.0
C1079 C 0.56829 0.40749 0.84745 0.0
H1080 H 0.51684 0.3572 0.08927 0.0
H1081 H 0.50971 0.3224 0.84404 0.0
H1082 H 0.54173 0.41304 0.02647 0.0
H1083 H 0.50917 0.41809 0.02249 0.0
H1084 H 0.52212 0.39967 0.10708 0.0
H1085 H 0.51784 0.3443 0.71579 0.0
H1086 H 0.50048 0.37259 0.72317 0.0
H1087 H 0.53349 0.37378 0.72236 0.0
H1088 H 0.48338 0.45598 0.78504 0.0
H1089 H 0.56246 0.4542 0.79043 0.0
H1090 H 0.47196 0.40973 0.92294 0.0
H1091 H 0.47281 0.39219 0.82584 0.0
H1092 H 0.45886 0.42239 0.82682 0.0
H1093 H 0.57102 0.40451 0.91687 0.0
H1094 H 0.58439 0.41799 0.82245 0.0
H1095 H 0.56783 0.38903 0.81635 0.0
C1096 C 0.2135 0.51798 0.88509 0.0
C1097 C 0.21301 0.52418 0.97224 0.0
C1098 C 0.19223 0.52079 0.83296 0.0
C1099 C 0.16972 0.52969 0.86861 0.0
C1100 C 0.1697 0.5373 0.95536 0.0
C1101 C 0.1912 0.53472 1.00531 0.0
C1102 C 0.19353 0.51282 0.74093 0.0
C1103 C 0.14654 0.54718 0.99691 0.0
C1104 C 0.11377 0.55075 0.73487 0.0
C1105 C 0.09791 0.53022 0.73989 0.0
C1106 C 0.13744 0.55065 0.77367 0.0
C1107 C 0.14572 0.52943 0.81847 0.0
C1108 C 0.12994 0.50842 0.82126 0.0
C1109 C 0.10641 0.50913 0.78232 0.0
C1110 C 0.15351 0.57335 0.76675 0.0
C1111 C 0.1375 0.48535 0.86817 0.0
H1112 H 0.23007 0.50977 0.8586 0.0
H1113 H 0.19062 0.54001 0.0722 0.0
H1114 H 0.18426 0.49462 0.73418 0.0
H1115 H 0.18378 0.52618 0.69942 0.0
H1116 H 0.2129 0.51096 0.71832 0.0
H1117 H 0.1498 0.55353 0.06358 0.0
H1118 H 0.13914 0.56286 0.95938 0.0
H1119 H 0.13213 0.53255 0.99777 0.0
H1120 H 0.10738 0.56719 0.70262 0.0
H1121 H 0.09467 0.493 0.78475 0.0
H1122 H 0.169 0.56948 0.72225 0.0
H1123 H 0.16162 0.5783 0.82964 0.0
H1124 H 0.14309 0.5895 0.7424 0.0
H1125 H 0.1568 0.48024 0.85232 0.0
H1126 H 0.12528 0.46943 0.85277 0.0
H1127 H 0.13659 0.48884 0.93804 0.0
C1128 C 0.03649 0.86065 0.35751 0.0
C1129 C 1.0185 0.84327 0.38222 0.0
C1130 C 0.03889 0.88378 0.39899 0.0
C1131 C 0.02294 0.89005 0.46773 0.0
C1132 C 1.00546 0.87208 0.49544 0.0
C1133 C 1.00336 0.84909 0.45221 0.0
C1134 C 0.05746 0.90217 0.36521 0.0
C1135 C 0.98761 0.87762 0.56678 0.0
C1136 C 0.03923 0.94633 0.60997 0.0
C1137 C 0.0242 0.96509 0.5762 0.0
C1138 C 0.03918 0.92204 0.57532 0.0
C1139 C 0.0234 0.91592 0.50586 0.0
C1140 C 1.0081 0.93473 0.47204 0.0
C1141 C 1.00879 0.95885 0.50714 0.0
C1142 C 0.05601 0.90281 0.61309 0.0
C1143 C 0.99097 0.92938 0.39817 0.0
H1144 H 0.04776 0.85669 0.30179 0.0
H1145 H 0.98883 0.83628 0.47004 0.0
H1146 H 0.04759 0.91796 0.33601 0.0
H1147 H 0.06894 0.90966 0.41805 0.0
H1148 H 0.06984 0.8939 0.31623 0.0
H1149 H 0.98176 0.86044 0.59978 0.0
H1150 H 0.99571 0.89054 0.61424 0.0
H1151 H 0.97087 0.8864 0.53969 0.0
H1152 H 0.05145 0.95077 0.66255 0.0
H1153 H 0.99683 0.97273 0.48106 0.0
H1154 H 0.06716 0.89385 0.56227 0.0
H1155 H 0.04471 0.88814 0.64359 0.0
H1156 H 0.06877 0.91079 0.66133 0.0
H1157 H 0.98043 0.94593 0.37823 0.0
H1158 H 0.97766 0.91467 0.41615 0.0
H1159 H 1.0017 0.92249 0.34257 0.0
C1160 C 0.72221 1.01471 0.49789 0.0
C1161 C 0.72736 0.02342 0.41534 0.0
C1162 C 0.69853 1.01756 0.53543 0.0
C1163 C 0.67913 0.02904 0.48907 0.0
C1164 C 0.68458 0.03869 0.40689 0.0
C1165 C 0.70845 0.03574 0.37128 0.0
C1166 C 0.69392 1.00702 0.62308 0.0
C1167 C 0.66478 0.05096 0.35431 0.0
C1168 C 0.61208 1.00952 0.53812 0.0
C1169 C 0.60306 0.02934 0.58754 0.0
C1170 C 0.63652 1.0093 0.5058 0.0
C1171 C 0.65286 0.02927 0.52341 0.0
C1172 C 0.64388 0.04935 0.57318 0.0
C1173 C 0.61924 0.04919 0.60415 0.0
C1174 C 0.64484 0.98759 0.45229 0.0
C1175 C 0.66039 0.07102 0.59427 0.0
H1176 H 0.73636 1.00445 0.53138 0.0
H1177 H 0.71193 0.04179 0.3064 0.0
H1178 H 0.68468 1.02088 0.66452 0.0
H1179 H 0.68135 0.99085 0.61781 0.0
H1180 H 0.71127 1.00101 0.65456 0.0
H1181 H 0.64994 0.03744 0.33936 0.0
H1182 H 0.65621 0.06625 0.39119 0.0
H1183 H 0.6721 0.05846 0.29332 0.0
H1184 H 0.59995 0.99406 0.52415 0.0
H1185 H 0.61277 0.06458 0.64243 0.0
H1186 H 0.66116 0.97877 0.4821 0.0
H1187 H 0.65056 0.99401 0.388 0.0
H1188 H 0.6301 0.97343 0.44454 0.0
H1189 H 0.6769 0.06456 0.62964 0.0
H1190 H 0.65082 0.08522 0.63352 0.0
H1191 H 0.66706 0.07977 0.53454 0.0
C1192 C 0.54167 0.71395 0.45826 0.0
C1193 C 0.53302 0.71495 0.37384 0.0
C1194 C 0.53933 0.69211 0.50741 0.0
C1195 C 0.52821 0.67058 0.47168 0.0
C1196 C 0.51806 0.67212 0.38839 0.0
C1197 C 0.52052 0.69412 0.34099 0.0
C1198 C 0.54993 0.69168 0.59616 0.0
C1199 C 0.5055 0.65011 0.34761 0.0
C1200 C 0.54792 0.60564 0.54293 0.0
C1201 C 0.52837 0.5982 0.59578 0.0
C1202 C 0.54838 0.62922 0.50446 0.0
C1203 C 0.52863 0.64603 0.51807 0.0
C1204 C 0.50887 0.63863 0.57225 0.0
C1205 C 0.50913 0.61501 0.61095 0.0
C1206 C 0.5699 0.63592 0.44766 0.0
C1207 C 0.48732 0.65553 0.58944 0.0
H1208 H 0.55155 0.72973 0.48414 0.0
H1209 H 0.51367 0.69465 0.2759 0.0
H1210 H 0.5359 0.68473 0.64183 0.0
H1211 H 0.56586 0.67883 0.59773 0.0
H1212 H 0.55626 0.71023 0.61767 0.0
H1213 H 0.49708 0.65469 0.28492 0.0
H1214 H 0.51913 0.63508 0.33776 0.0
H1215 H 0.49086 0.64287 0.39052 0.0
H1216 H 0.56312 0.59309 0.53244 0.0
H1217 H 0.49383 0.60938 0.6511 0.0
H1218 H 0.5776 0.65417 0.46648 0.0
H1219 H 0.56347 0.63741 0.38056 0.0
H1220 H 0.5849 0.62199 0.45028 0.0
H1221 H 0.47105 0.64518 0.61378 0.0
H1222 H 0.48176 0.66562 0.531 0.0
H1223 H 0.49278 0.66943 0.63828 0.0
C1224 C 0.84142 0.53586 0.40651 0.0
C1225 C 0.8377 0.55634 0.35339 0.0
C1226 C 0.8643 0.53191 0.44865 0.0
C1227 C 0.88422 0.54904 0.439 0.0
C1228 C 0.88021 0.57 0.3866 0.0
C1229 C 0.8572 0.5735 0.34586 0.0
C1230 C 0.86682 0.50859 0.49988 0.0
C1231 C 0.90084 0.58808 0.36885 0.0
C1232 C 0.94107 0.55712 0.58648 0.0
C1233 C 0.95814 0.54044 0.55151 0.0
C1234 C 0.91675 0.55919 0.55385 0.0
C1235 C 0.90938 0.54519 0.48078 0.0
C1236 C 0.92689 0.52857 0.44455 0.0
C1237 C 0.95064 0.52594 0.48158 0.0
C1238 C 0.89936 0.57669 0.59874 0.0
C1239 C 0.92078 0.51382 0.36534 0.0
H1240 H 0.82689 0.52212 0.41179 0.0
H1241 H 0.85477 0.58936 0.30466 0.0
H1242 H 0.86353 0.49236 0.45769 0.0
H1243 H 0.88519 0.50662 0.52982 0.0
H1244 H 0.85236 0.50812 0.55021 0.0
H1245 H 0.90594 0.59804 0.42832 0.0
H1246 H 0.9174 0.5779 0.34646 0.0
H1247 H 0.89575 0.60192 0.31976 0.0
H1248 H 0.94655 0.56832 0.64092 0.0
H1249 H 0.96372 0.51306 0.45382 0.0
H1250 H 0.8798 0.57407 0.57985 0.0
H1251 H 0.90494 0.59599 0.58455 0.0
H1252 H 0.90081 0.57431 0.66905 0.0
H1253 H 0.90699 0.49936 0.38129 0.0
H1254 H 0.93733 0.50465 0.33782 0.0
H1255 H 0.91253 0.52593 0.31594 0.0
loop_
_geom_bond_atom_site_label_1
_geom_bond_atom_site_label_2
_geom_bond_distance
_geom_bond_site_symmetry_2
_ccdc_geom_bond_type
H0 C1 0.949 . S
C1 H0 0.949 . S
C1 C2 1.395 . S
C1 C3 1.391 . S
C2 C1 1.395 . S
C2 C5 1.390 . S
C3 C1 1.391 . S
C3 C7 1.387 . S
C3 C8 1.491 . S
H4 C5 0.950 . S
C5 C2 1.390 . S
C5 H4 0.950 . S
C5 C6 1.378 . S
C6 C5 1.378 . S
C6 C7 1.409 . S
C7 C3 1.387 . S
C7 C6 1.409 . S
C7 H9 0.951 . S
C8 C3 1.491 . S
C8 C10 1.382 . S
C8 C12 1.404 . S
H9 C7 0.951 . S
C10 C8 1.382 . S
C10 C11 1.390 . S
C10 H15 0.949 . S
C11 C10 1.390 . S
C11 C16 1.399 . S
C12 C8 1.404 . S
C12 H13 0.950 . S
C12 C14 1.375 . S
H13 C12 0.950 . S
C14 C12 1.375 . S
C14 C16 1.382 . S
C14 H18 0.950 . S
H15 C10 0.949 . S
C16 C11 1.399 . S
C16 C14 1.382 . S
C16 H17 0.952 . S
H17 C16 0.952 . S
H18 C14 0.950 . S
H19 C20 0.949 . S
C20 H19 0.949 . S
C20 C21 1.395 . S
C20 C22 1.391 . S
C21 C20 1.395 . S
C21 C24 1.390 . S
C22 C20 1.391 . S
C22 C26 1.387 . S
C22 C27 1.491 . S
H23 C24 0.950 . S
C24 C21 1.390 . S
C24 H23 0.950 . S
C24 C25 1.378 . S
C25 C24 1.378 . S
C25 C26 1.409 . S
C26 C22 1.387 . S
C26 C25 1.409 . S
C26 H28 0.951 . S
C27 C22 1.491 . S
C27 C29 1.382 . S
C27 C31 1.404 . S
H28 C26 0.951 . S
C29 C27 1.382 . S
C29 C30 1.390 . S
C29 H34 0.949 . S
C30 C29 1.390 . S
C30 C35 1.399 . S
C31 C27 1.404 . S
C31 H32 0.950 . S
C31 C33 1.375 . S
H32 C31 0.950 . S
C33 C31 1.375 . S
C33 C35 1.382 . S
C33 H37 0.950 . S
H34 C29 0.949 . S
C35 C30 1.399 . S
C35 C33 1.382 . S
C35 H36 0.952 . S
H36 C35 0.952 . S
H37 C33 0.950 . S
H38 C39 0.949 . S
C39 H38 0.949 . S
C39 C40 1.395 . S
C39 C41 1.391 . S
C40 C39 1.395 . S
C40 C43 1.390 . S
C41 C39 1.391 . S
C41 C45 1.387 . S
C41 C46 1.491 . S
H42 C43 0.950 . S
C43 C40 1.390 . S
C43 H42 0.950 . S
C43 C44 1.378 . S
C44 C43 1.378 . S
C44 C45 1.409 . S
C45 C41 1.387 . S
C45 C44 1.409 . S
C45 H47 0.951 . S
C46 C41 1.491 . S
C46 C48 1.382 . S
C46 C50 1.404 . S
H47 C45 0.951 . S
C48 C46 1.382 . S
C48 C49 1.390 . S
C48 H53 0.949 . S
C49 C48 1.390 . S
C49 C54 1.399 . S
C50 C46 1.404 . S
C50 H51 0.950 . S
C50 C52 1.375 . S
H51 C50 0.950 . S
C52 C50 1.375 . S
C52 C54 1.382 . S
C52 H56 0.950 . S
H53 C48 0.949 . S
C54 C49 1.399 . S
C54 C52 1.382 . S
C54 H55 0.952 . S
H55 C54 0.952 . S
H56 C52 0.950 . S
H57 C58 0.949 . S
C58 H57 0.949 . S
C58 C59 1.395 . S
C58 C60 1.391 . S
C59 C58 1.395 . S
C59 C62 1.390 . S
C60 C58 1.391 . S
C60 C64 1.387 . S
C60 C65 1.491 . S
H61 C62 0.950 . S
C62 C59 1.390 . S
C62 H61 0.950 . S
C62 C63 1.378 . S
C63 C62 1.378 . S
C63 C64 1.409 . S
C64 C60 1.387 . S
C64 C63 1.409 . S
C64 H66 0.951 . S
C65 C60 1.491 . S
C65 C67 1.382 . S
C65 C69 1.404 . S
H66 C64 0.951 . S
C67 C65 1.382 . S
C67 C68 1.390 . S
C67 H72 0.949 . S
C68 C67 1.390 . S
C68 C73 1.399 . S
C69 C65 1.404 . S
C69 H70 0.950 . S
C69 C71 1.375 . S
H70 C69 0.950 . S
C71 C69 1.375 . S
C71 C73 1.382 . S
C71 H75 0.950 . S
H72 C67 0.949 . S
C73 C68 1.399 . S
C73 C71 1.382 . S
C73 H74 0.952 . S
H74 C73 0.952 . S
H75 C71 0.950 . S
H76 C77 0.949 . S
C77 H76 0.949 . S
C77 C78 1.395 . S
C77 C79 1.391 . S
C78 C77 1.395 . S
C78 C81 1.390 1_554 S
C79 C77 1.391 . S
C79 C83 1.387 1_554 S
C79 C84 1.491 . S
H80 C81 0.950 . S
C81 C78 1.390 1_556 S
C81 H80 0.950 . S
C81 C82 1.378 . S
C82 C81 1.378 . S
C82 C83 1.409 . S
C83 C79 1.387 1_556 S
C83 C82 1.409 . S
C83 H85 0.951 . S
C84 C79 1.491 . S
C84 C86 1.382 . S
C84 C88 1.404 1_554 S
H85 C83 0.951 . S
C86 C84 1.382 . S
C86 C87 1.390 . S
C86 H91 0.949 . S
C87 C86 1.390 . S
C87 C92 1.399 . S
C88 C84 1.404 1_556 S
C88 H89 0.950 . S
C88 C90 1.375 . S
H89 C88 0.950 . S
C90 C88 1.375 . S
C90 C92 1.382 1_556 S
C90 H94 0.950 . S
H91 C86 0.949 . S
C92 C87 1.399 . S
C92 C90 1.382 1_554 S
C92 H93 0.952 . S
H93 C92 0.952 . S
H94 C90 0.950 . S
H95 C96 0.949 . S
C96 H95 0.949 . S
C96 C97 1.395 . S
C96 C98 1.391 . S
C97 C96 1.395 . S
C97 C100 1.388 1_554 S
C98 C96 1.391 . S
C98 C102 1.387 1_554 S
C98 C103 1.491 . S
H99 C100 0.950 . S
C100 C97 1.388 1_556 S
C100 H99 0.950 . S
C100 C101 1.380 . S
C101 C100 1.380 . S
C101 C102 1.409 . S
C102 C98 1.387 1_556 S
C102 C101 1.409 . S
C102 H104 0.951 . S
C103 C98 1.491 . S
C103 C105 1.382 . S
C103 C107 1.404 1_554 S
H104 C102 0.951 . S
C105 C103 1.382 . S
C105 C106 1.390 . S
C105 H110 0.949 . S
C106 C105 1.390 . S
C106 C111 1.399 . S
C107 C103 1.404 1_556 S
C107 H108 0.965 . S
C107 C109 1.375 . S
H108 C107 0.965 . S
C109 C107 1.375 . S
C109 C111 1.382 1_556 S
C109 H113 0.950 1_455 S
H110 C105 0.949 . S
C111 C106 1.399 . S
C111 C109 1.382 1_554 S
C111 H112 0.952 . S
H112 C111 0.952 . S
H113 C109 0.950 1_655 S
H114 C115 0.949 . S
C115 H114 0.949 . S
C115 C116 1.395 . S
C115 C117 1.391 . S
C116 C115 1.395 . S
C116 C119 1.390 1_554 S
C117 C115 1.391 . S
C117 C121 1.387 1_554 S
C117 C122 1.491 . S
H118 C119 0.950 . S
C119 C116 1.390 1_556 S
C119 H118 0.950 . S
C119 C120 1.378 . S
C120 C119 1.378 . S
C120 C121 1.409 . S
C121 C117 1.387 1_556 S
C121 C120 1.409 . S
C121 H123 0.951 . S
C122 C117 1.491 . S
C122 C124 1.382 . S
C122 C126 1.404 1_554 S
H123 C121 0.951 . S
C124 C122 1.382 . S
C124 C125 1.390 . S
C124 H129 0.949 . S
C125 C124 1.390 . S
C125 C130 1.399 . S
C126 C122 1.404 1_556 S
C126 H127 0.950 . S
C126 C128 1.375 . S
H127 C126 0.950 . S
C128 C126 1.375 . S
C128 C130 1.382 1_556 S
C128 H132 0.950 1_545 S
H129 C124 0.949 . S
C130 C125 1.399 . S
C130 C128 1.382 1_554 S
C130 H131 0.952 . S
H131 C130 0.952 . S
H132 C128 0.950 1_565 S
H133 C134 0.949 . S
C134 H133 0.949 . S
C134 C135 1.395 . S
C134 C136 1.391 . S
C135 C134 1.395 . S
C135 C138 1.390 1_554 S
C136 C134 1.391 . S
C136 C140 1.387 1_554 S
C136 C141 1.491 . S
H137 C138 0.950 . S
C138 C135 1.390 1_556 S
C138 H137 0.950 . S
C138 C139 1.378 . S
C139 C138 1.378 . S
C139 C140 1.409 . S
C140 C136 1.387 1_556 S
C140 C139 1.409 . S
C140 H142 0.951 . S
C141 C136 1.491 . S
C141 C143 1.382 . S
C141 C145 1.404 1_554 S
H142 C140 0.951 . S
C143 C141 1.382 . S
C143 C144 1.390 . S
C143 H148 0.949 . S
C144 C143 1.390 . S
C144 C149 1.399 . S
C145 C141 1.404 1_556 S
C145 H146 0.950 . S
C145 C147 1.375 . S
H146 C145 0.950 . S
C147 C145 1.375 . S
C147 C149 1.382 1_556 S
C147 H151 0.950 . S
H148 C143 0.949 . S
C149 C144 1.399 . S
C149 C147 1.382 1_554 S
C149 H150 0.952 . S
H150 C149 0.952 . S
H151 C147 0.950 . S
Eu152 N181 2.600 . S
Eu152 N187 2.562 . S
Eu152 O196 2.462 1_655 S
Eu152 O197 2.373 1_545 S
Eu152 O199 2.432 . S
Eu152 O200 2.291 1_655 S
Eu152 O204 2.335 1_655 S
Eu152 O207 2.372 . S
Eu152 C216 2.787 . S
C153 N154 1.365 . S
C153 C156 1.405 . S
C153 C160 1.448 . S
N154 C153 1.365 . S
N154 C157 1.319 . S
N154 Eu163 2.600 1_545 S
C155 C157 1.397 . S
C155 C158 1.367 . S
C155 H175 0.931 . S
C156 C153 1.405 . S
C156 C158 1.403 . S
C156 C162 1.439 1_556 S
C157 N154 1.319 . S
C157 C155 1.397 . S
C157 H168 0.930 1_545 S
C158 C155 1.367 . S
C158 C156 1.403 . S
C158 H179 0.929 . S
C159 C160 1.430 1_554 S
C159 C161 1.387 . S
C159 C165 1.404 . S
C160 C153 1.448 . S
C160 C159 1.430 1_556 S
C160 N164 1.351 . S
C161 C159 1.387 . S
C161 C162 1.374 . S
C161 H176 0.931 . S
C162 C156 1.439 1_554 S
C162 C161 1.374 . S
C162 H177 0.931 . S
Eu163 N154 2.600 1_565 S
Eu163 N164 2.562 1_565 S
Eu163 O198 2.335 . S
Eu163 O201 2.376 . S
Eu163 O202 2.462 . S
Eu163 O203 2.373 1_565 S
Eu163 O205 2.432 . S
Eu163 O206 2.291 1_465 S
Eu163 C227 2.787 . S
N164 C160 1.351 . S
N164 Eu163 2.562 1_545 S
N164 C166 1.325 . S
C165 C159 1.404 . S
C165 C167 1.366 . S
C165 H173 0.930 . S
C166 N164 1.325 . S
C166 C167 1.416 1_556 S
C166 H172 0.929 1_455 S
C167 C165 1.366 . S
C167 C166 1.416 1_554 S
C167 H169 0.930 1_455 S
H168 C157 0.930 1_565 S
H169 C167 0.930 1_655 S
H170 C185 0.930 . S
H171 C192 0.930 . S
H172 C166 0.929 1_655 S
H173 C165 0.930 . S
H174 C188 0.929 . S
H175 C155 0.931 . S
H176 C161 0.931 . S
H177 C162 0.931 . S
H178 C183 0.931 . S
H179 C158 0.929 . S
H180 C191 0.930 . S
N181 Eu152 2.600 . S
N181 C182 1.365 . S
N181 C185 1.319 . S
C182 N181 1.365 . S
C182 C184 1.405 1_545 S
C182 C190 1.448 . S
C183 H178 0.931 . S
C183 C185 1.397 . S
C183 C186 1.367 1_545 S
C184 C182 1.405 1_565 S
C184 C186 1.403 . S
C184 C217 1.439 . S
C185 H170 0.930 . S
C185 N181 1.319 . S
C185 C183 1.397 . S
C186 C183 1.367 1_565 S
C186 C184 1.403 . S
C186 H193 0.929 . S
N187 Eu152 2.562 . S
N187 C188 1.325 1_655 S
N187 C190 1.351 . S
C188 H174 0.929 . S
C188 N187 1.325 1_455 S
C188 C192 1.416 1_545 S
C189 C190 1.430 1_565 S
C189 C191 1.404 . S
C189 C218 1.387 . S
C190 C182 1.448 . S
C190 N187 1.351 . S
C190 C189 1.430 1_545 S
C191 H180 0.930 . S
C191 C189 1.404 . S
C191 C192 1.366 1_655 S
C192 H171 0.930 . S
C192 C188 1.416 1_565 S
C192 C191 1.366 1_455 S
H193 C186 0.929 . S
H194 C217 0.931 . S
H195 C218 0.931 . S
O196 Eu152 2.462 1_455 S
O196 C216 1.252 1_455 S
O197 Eu152 2.373 1_565 S
O197 C208 1.249 . S
O198 Eu163 2.335 . S
O198 C208 1.264 1_455 S
O199 Eu152 2.432 . S
O199 C216 1.268 . S
O200 Eu152 2.291 1_455 S
O200 C215 1.255 . S
O201 Eu163 2.376 . S
O201 C215 1.239 1_565 S
O202 Eu163 2.462 . S
O202 C227 1.252 . S
O203 Eu163 2.373 1_545 S
O203 C219 1.249 . S
O204 Eu152 2.335 1_455 S
O204 C219 1.264 . S
O205 Eu163 2.432 . S
O205 C227 1.268 . S
O206 Eu163 2.291 1_645 S
O206 C226 1.255 . S
O207 Eu152 2.372 . S
O207 C226 1.257 . S
C208 O197 1.249 . S
C208 O198 1.264 1_655 S
C209 C212 1.382 . S
C209 C214 1.390 1_655 S
C209 C216 1.506 . S
C210 C211 1.431 . S
C210 C214 1.388 1_655 S
C211 C210 1.431 . S
C211 C213 1.372 . S
C211 H228 0.931 . S
C212 C209 1.382 . S
C212 C213 1.390 . S
C212 H229 0.931 . S
C213 C211 1.372 . S
C213 C212 1.390 . S
C213 H230 0.929 . S
C214 C209 1.390 1_455 S
C214 C210 1.388 1_455 S
C214 H231 0.930 . S
C215 O200 1.255 . S
C215 O201 1.239 1_545 S
C216 Eu152 2.787 . S
C216 O196 1.252 1_655 S
C216 O199 1.268 . S
C216 C209 1.506 . S
C217 C184 1.439 . S
C217 H194 0.931 . S
C217 C218 1.374 . S
C218 C189 1.387 . S
C218 H195 0.931 . S
C218 C217 1.374 . S
C219 O203 1.249 . S
C219 O204 1.264 . S
C220 C223 1.382 . S
C220 C224 1.390 . S
C220 C227 1.506 . S
C221 C222 1.398 . S
C221 C224 1.392 . S
C222 C221 1.398 . S
C222 C225 1.372 . S
C222 H232 0.931 1_556 S
C223 C220 1.382 . S
C223 C225 1.390 . S
C223 H233 0.931 . S
C224 C220 1.390 . S
C224 C221 1.392 . S
C224 H234 0.930 1_455 S
C225 C222 1.372 . S
C225 C223 1.390 . S
C225 H235 0.929 . S
C226 O206 1.255 . S
C226 O207 1.257 . S
C227 Eu163 2.787 . S
C227 O202 1.252 . S
C227 O205 1.268 . S
C227 C220 1.506 . S
H228 C211 0.931 . S
H229 C212 0.931 . S
H230 C213 0.929 . S
H231 C214 0.930 . S
H232 C222 0.931 1_554 S
H233 C223 0.931 . S
H234 C224 0.930 1_655 S
H235 C225 0.929 . S
Eu236 N265 2.600 . S
Eu236 N271 2.562 . S
Eu236 O280 2.462 . S
Eu236 O281 2.373 . S
Eu236 O283 2.432 . S
Eu236 O284 2.291 . S
Eu236 O288 2.335 1_545 S
Eu236 O291 2.372 . S
Eu236 C300 2.787 . S
C237 N238 1.365 . S
C237 C240 1.405 . S
C237 C244 1.448 . S
N238 C237 1.365 . S
N238 C241 1.319 . S
N238 Eu247 2.600 . S
C239 C241 1.397 . S
C239 C242 1.367 . S
C239 H259 0.931 . S
C240 C237 1.405 . S
C240 C242 1.403 . S
C240 C246 1.439 . S
C241 N238 1.319 . S
C241 C239 1.397 . S
C241 H252 0.930 . S
C242 C239 1.367 . S
C242 C240 1.403 . S
C242 H263 0.929 . S
C243 C244 1.430 . S
C243 C245 1.387 . S
C243 C249 1.404 . S
C244 C237 1.448 . S
C244 C243 1.430 . S
C244 N248 1.351 . S
C245 C243 1.387 . S
C245 C246 1.374 . S
C245 H260 0.931 . S
C246 C240 1.439 . S
C246 C245 1.374 . S
C246 H261 0.931 . S
Eu247 N238 2.600 . S
Eu247 N248 2.562 . S
Eu247 O282 2.335 1_565 S
Eu247 O285 2.372 . S
Eu247 O286 2.462 . S
Eu247 O287 2.373 . S
Eu247 O289 2.432 . S
Eu247 O290 2.291 1_565 S
Eu247 C311 2.787 . S
N248 C244 1.351 . S
N248 Eu247 2.562 . S
N248 C250 1.325 . S
C249 C243 1.404 . S
C249 C251 1.366 . S
C249 H257 0.930 . S
C250 N248 1.325 . S
C250 C251 1.416 . S
C250 H256 0.929 . S
C251 C249 1.366 . S
C251 C250 1.416 . S
C251 H253 0.930 . S
H252 C241 0.930 . S
H253 C251 0.930 . S
H254 C269 0.930 . S
H255 C276 0.930 . S
H256 C250 0.929 . S
H257 C249 0.930 . S
H258 C272 0.929 . S
H259 C239 0.931 . S
H260 C245 0.931 . S
H261 C246 0.931 . S
H262 C267 0.931 . S
H263 C242 0.929 . S
H264 C275 0.930 . S
N265 Eu236 2.600 . S
N265 C266 1.365 . S
N265 C269 1.319 . S
C266 N265 1.365 . S
C266 C268 1.405 . S
C266 C274 1.448 . S
C267 H262 0.931 . S
C267 C269 1.397 . S
C267 C270 1.367 . S
C268 C266 1.405 . S
C268 C270 1.403 . S
C268 C301 1.439 . S
C269 H254 0.930 . S
C269 N265 1.319 . S
C269 C267 1.397 . S
C270 C267 1.367 . S
C270 C268 1.403 . S
C270 H277 0.929 . S
N271 Eu236 2.562 . S
N271 C272 1.325 . S
N271 C274 1.351 . S
C272 H258 0.929 . S
C272 N271 1.325 . S
C272 C276 1.416 . S
C273 C274 1.430 . S
C273 C275 1.404 . S
C273 C302 1.387 . S
C274 C266 1.448 . S
C274 N271 1.351 . S
C274 C273 1.430 . S
C275 H264 0.930 . S
C275 C273 1.404 . S
C275 C276 1.366 . S
C276 H255 0.930 . S
C276 C272 1.416 . S
C276 C275 1.366 . S
H277 C270 0.929 . S
H278 C301 0.931 . S
H279 C302 0.931 . S
O280 Eu236 2.462 . S
O280 C300 1.252 . S
O281 Eu236 2.373 . S
O281 C292 1.249 . S
O282 Eu247 2.335 1_545 S
O282 C292 1.264 . S
O283 Eu236 2.432 . S
O283 C300 1.268 . S
O284 Eu236 2.291 . S
O284 C299 1.255 . S
O285 Eu247 2.372 . S
O285 C299 1.257 1_565 S
O286 Eu247 2.462 . S
O286 C311 1.252 . S
O287 Eu247 2.373 . S
O287 C303 1.249 . S
O288 Eu236 2.335 1_565 S
O288 C303 1.264 . S
O289 Eu247 2.432 . S
O289 C311 1.268 . S
O290 Eu247 2.291 1_545 S
O290 C310 1.255 . S
O291 Eu236 2.372 . S
O291 C310 1.257 . S
C292 O281 1.249 . S
C292 O282 1.264 . S
C293 C296 1.382 1_556 S
C293 C298 1.390 . S
C293 C300 1.506 . S
C294 C295 1.398 . S
C294 C298 1.392 1_554 S
C295 C294 1.398 . S
C295 C297 1.372 . S
C295 H312 0.931 . S
C296 C293 1.382 1_554 S
C296 C297 1.390 . S
C296 H313 0.931 . S
C297 C295 1.372 . S
C297 C296 1.390 . S
C297 H314 0.929 . S
C298 C293 1.390 . S
C298 C294 1.392 1_556 S
C298 H315 0.930 . S
C299 O284 1.255 . S
C299 O285 1.257 1_545 S
C300 Eu236 2.787 . S
C300 O280 1.252 . S
C300 O283 1.268 . S
C300 C293 1.506 . S
C301 C268 1.439 . S
C301 H278 0.931 . S
C301 C302 1.374 . S
C302 C273 1.387 . S
C302 H279 0.931 . S
C302 C301 1.374 . S
C303 O287 1.249 . S
C303 O288 1.264 . S
C304 C307 1.380 1_545 S
C304 C308 1.393 . S
C304 C311 1.505 1_545 S
C305 C306 1.398 . S
C305 C308 1.392 . S
C306 C305 1.398 . S
C306 C309 1.372 1_545 S
C306 H316 0.931 . S
C307 C304 1.380 1_565 S
C307 C309 1.390 . S
C307 H317 0.931 . S
C308 C304 1.393 . S
C308 C305 1.392 . S
C308 H318 0.930 . S
C309 C306 1.372 1_565 S
C309 C307 1.390 . S
C309 H319 0.929 . S
C310 O290 1.255 . S
C310 O291 1.257 . S
C311 Eu247 2.787 . S
C311 O286 1.252 . S
C311 O289 1.268 . S
C311 C304 1.505 1_565 S
H312 C295 0.931 . S
H313 C296 0.931 . S
H314 C297 0.929 . S
H315 C298 0.930 . S
H316 C306 0.931 . S
H317 C307 0.931 . S
H318 C308 0.930 . S
H319 C309 0.929 . S
Eu320 N349 2.600 . S
Eu320 N355 2.562 . S
Eu320 O364 2.462 . S
Eu320 O365 2.373 . S
Eu320 O367 2.432 . S
Eu320 O368 2.291 . S
Eu320 O372 2.335 . S
Eu320 O375 2.372 . S
Eu320 C384 2.787 . S
C321 N322 1.365 . S
C321 C324 1.405 . S
C321 C328 1.448 . S
N322 C321 1.365 . S
N322 C325 1.319 . S
N322 Eu331 2.600 . S
C323 C325 1.397 . S
C323 C326 1.367 . S
C323 H343 0.931 . S
C324 C321 1.405 . S
C324 C326 1.403 . S
C324 C330 1.439 1_556 S
C325 N322 1.319 . S
C325 C323 1.397 . S
C325 H336 0.930 . S
C326 C323 1.367 . S
C326 C324 1.403 . S
C326 H347 0.929 . S
C327 C328 1.430 1_554 S
C327 C329 1.387 . S
C327 C333 1.404 . S
C328 C321 1.448 . S
C328 C327 1.430 1_556 S
C328 N332 1.351 . S
C329 C327 1.387 . S
C329 C330 1.374 . S
C329 H344 0.931 . S
C330 C324 1.439 1_554 S
C330 C329 1.374 . S
C330 H345 0.931 . S
Eu331 N322 2.600 . S
Eu331 N332 2.562 . S
Eu331 O366 2.335 . S
Eu331 O369 2.372 . S
Eu331 O370 2.462 . S
Eu331 O371 2.373 . S
Eu331 O373 2.432 . S
Eu331 O374 2.291 . S
Eu331 C395 2.787 . S
N332 C328 1.351 . S
N332 Eu331 2.562 . S
N332 C334 1.325 . S
C333 C327 1.404 . S
C333 C335 1.366 . S
C333 H341 0.930 . S
C334 N332 1.325 . S
C334 C335 1.416 1_556 S
C334 H340 0.929 . S
C335 C333 1.366 . S
C335 C334 1.416 1_554 S
C335 H337 0.930 . S
H336 C325 0.930 . S
H337 C335 0.930 . S
H338 C353 0.930 . S
H339 C360 0.930 . S
H340 C334 0.929 . S
H341 C333 0.930 . S
H342 C356 0.929 . S
H343 C323 0.931 . S
H344 C329 0.931 . S
H345 C330 0.931 . S
H346 C351 0.931 . S
H347 C326 0.929 . S
H348 C359 0.930 . S
N349 Eu320 2.600 . S
N349 C350 1.365 . S
N349 C353 1.319 . S
C350 N349 1.365 . S
C350 C352 1.405 . S
C350 C358 1.448 . S
C351 H346 0.931 . S
C351 C353 1.397 . S
C351 C354 1.367 . S
C352 C350 1.405 . S
C352 C354 1.403 . S
C352 C385 1.439 . S
C353 H338 0.930 . S
C353 N349 1.319 . S
C353 C351 1.397 . S
C354 C351 1.367 . S
C354 C352 1.403 . S
C354 H361 0.929 . S
N355 Eu320 2.562 . S
N355 C356 1.325 . S
N355 C358 1.351 . S
C356 H342 0.929 . S
C356 N355 1.325 . S
C356 C360 1.416 . S
C357 C358 1.430 . S
C357 C359 1.404 . S
C357 C386 1.387 . S
C358 C350 1.448 . S
C358 N355 1.351 . S
C358 C357 1.430 . S
C359 H348 0.930 . S
C359 C357 1.404 . S
C359 C360 1.366 . S
C360 H339 0.930 . S
C360 C356 1.416 . S
C360 C359 1.366 . S
H361 C354 0.929 . S
H362 C385 0.931 . S
H363 C386 0.931 . S
O364 Eu320 2.462 . S
O364 C384 1.252 . S
O365 Eu320 2.373 . S
O365 C376 1.249 . S
O366 Eu331 2.335 . S
O366 C376 1.264 . S
O367 Eu320 2.432 . S
O367 C384 1.268 . S
O368 Eu320 2.291 . S
O368 C383 1.255 . S
O369 Eu331 2.372 . S
O369 C383 1.257 . S
O370 Eu331 2.462 . S
O370 C395 1.252 . S
O371 Eu331 2.373 . S
O371 C387 1.249 . S
O372 Eu320 2.335 . S
O372 C387 1.264 . S
O373 Eu331 2.432 . S
O373 C395 1.268 . S
O374 Eu331 2.291 . S
O374 C394 1.255 . S
O375 Eu320 2.372 . S
O375 C394 1.257 . S
C376 O365 1.249 . S
C376 O366 1.264 . S
C377 C380 1.382 . S
C377 C382 1.390 . S
C377 C384 1.506 . S
C378 C379 1.398 . S
C378 C382 1.392 . S
C379 C378 1.398 . S
C379 C381 1.372 . S
C379 H396 0.931 . S
C380 C377 1.382 . S
C380 C381 1.390 . S
C380 H397 0.931 . S
C381 C379 1.372 . S
C381 C380 1.390 . S
C381 H398 0.929 . S
C382 C377 1.390 . S
C382 C378 1.392 . S
C382 H399 0.930 . S
C383 O368 1.255 . S
C383 O369 1.257 . S
C384 Eu320 2.787 . S
C384 O364 1.252 . S
C384 O367 1.268 . S
C384 C377 1.506 . S
C385 C352 1.439 . S
C385 H362 0.931 . S
C385 C386 1.374 . S
C386 C357 1.387 . S
C386 H363 0.931 . S
C386 C385 1.374 . S
C387 O371 1.249 . S
C387 O372 1.264 . S
C388 C391 1.382 . S
C388 C392 1.390 . S
C388 C395 1.506 . S
C389 C390 1.398 . S
C389 C392 1.392 . S
C390 C389 1.398 . S
C390 C393 1.372 . S
C390 H400 0.931 1_556 S
C391 C388 1.382 . S
C391 C393 1.390 . S
C391 H401 0.931 . S
C392 C388 1.390 . S
C392 C389 1.392 . S
C392 H402 0.930 . S
C393 C390 1.372 . S
C393 C391 1.390 . S
C393 H403 0.929 . S
C394 O374 1.255 . S
C394 O375 1.257 . S
C395 Eu331 2.787 . S
C395 O370 1.252 . S
C395 O373 1.268 . S
C395 C388 1.506 . S
H396 C379 0.931 . S
H397 C380 0.931 . S
H398 C381 0.929 . S
H399 C382 0.930 . S
H400 C390 0.931 1_554 S
H401 C391 0.931 . S
H402 C392 0.930 . S
H403 C393 0.929 . S
Eu404 N433 2.600 . S
Eu404 N439 2.562 . S
Eu404 O448 2.462 . S
Eu404 O449 2.373 1_455 S
Eu404 O451 2.432 . S
Eu404 O452 2.291 . S
Eu404 O456 2.335 . S
Eu404 O459 2.372 . S
Eu404 C468 2.787 . S
C405 N406 1.365 . S
C405 C408 1.405 . S
C405 C412 1.448 . S
N406 C405 1.365 . S
N406 C409 1.319 1_455 S
N406 Eu415 2.600 1_455 S
C407 C409 1.397 1_455 S
C407 C410 1.367 . S
C407 H427 0.931 . S
C408 C405 1.405 . S
C408 C410 1.403 . S
C408 C414 1.439 1_556 S
C409 N406 1.319 1_655 S
C409 C407 1.397 1_655 S
C409 H420 0.930 . S
C410 C407 1.367 . S
C410 C408 1.403 . S
C410 H431 0.929 . S
C411 C412 1.430 1_554 S
C411 C413 1.387 . S
C411 C417 1.404 . S
C412 C405 1.448 . S
C412 C411 1.430 1_556 S
C412 N416 1.351 . S
C413 C411 1.387 . S
C413 C414 1.374 . S
C413 H428 0.931 . S
C414 C408 1.439 1_554 S
C414 C413 1.374 . S
C414 H429 0.931 . S
Eu415 N406 2.600 1_655 S
Eu415 N416 2.562 1_655 S
Eu415 O450 2.335 . S
Eu415 O453 2.372 . S
Eu415 O454 2.462 . S
Eu415 O455 2.373 1_655 S
Eu415 O457 2.432 . S
Eu415 O458 2.291 1_655 S
Eu415 C479 2.787 . S
N416 C412 1.351 . S
N416 Eu415 2.562 1_455 S
N416 C418 1.325 . S
C417 C411 1.404 . S
C417 C419 1.366 . S
C417 H425 0.930 . S
C418 N416 1.325 . S
C418 C419 1.416 1_556 S
C418 H424 0.929 . S
C419 C417 1.366 . S
C419 C418 1.416 1_554 S
C419 H421 0.930 . S
H420 C409 0.930 . S
H421 C419 0.930 . S
H422 C437 0.930 . S
H423 C444 0.930 . S
H424 C418 0.929 . S
H425 C417 0.930 . S
H426 C440 0.929 . S
H427 C407 0.931 . S
H428 C413 0.931 . S
H429 C414 0.931 . S
H430 C435 0.931 . S
H431 C410 0.929 . S
H432 C443 0.930 . S
N433 Eu404 2.600 . S
N433 C434 1.365 . S
N433 C437 1.319 . S
C434 N433 1.365 . S
C434 C436 1.405 1_455 S
C434 C442 1.447 . S
C435 H430 0.931 . S
C435 C437 1.397 . S
C435 C438 1.367 1_455 S
C436 C434 1.405 1_655 S
C436 C438 1.403 . S
C436 C469 1.439 . S
C437 H422 0.930 . S
C437 N433 1.319 . S
C437 C435 1.397 . S
C438 C435 1.367 1_655 S
C438 C436 1.403 . S
C438 H445 0.929 . S
N439 Eu404 2.562 . S
N439 C440 1.325 . S
N439 C442 1.351 . S
C440 H426 0.929 . S
C440 N439 1.325 . S
C440 C444 1.416 1_455 S
C441 C442 1.431 1_655 S
C441 C443 1.404 . S
C441 C470 1.387 . S
C442 C434 1.447 . S
C442 N439 1.351 . S
C442 C441 1.431 1_455 S
C443 H432 0.930 . S
C443 C441 1.404 . S
C443 C444 1.366 . S
C444 H423 0.930 . S
C444 C440 1.416 1_655 S
C444 C443 1.366 . S
H445 C438 0.929 . S
H446 C469 0.931 . S
H447 C470 0.931 . S
O448 Eu404 2.462 . S
O448 C468 1.252 . S
O449 Eu404 2.373 1_655 S
O449 C460 1.249 . S
O450 Eu415 2.335 . S
O450 C460 1.264 . S
O451 Eu404 2.432 . S
O451 C468 1.268 . S
O452 Eu404 2.291 . S
O452 C467 1.255 . S
O453 Eu415 2.372 . S
O453 C467 1.257 1_655 S
O454 Eu415 2.462 . S
O454 C479 1.252 . S
O455 Eu415 2.373 1_455 S
O455 C471 1.249 . S
O456 Eu404 2.335 . S
O456 C471 1.264 . S
O457 Eu415 2.432 . S
O457 C479 1.268 . S
O458 Eu415 2.291 1_455 S
O458 C478 1.255 . S
O459 Eu404 2.372 . S
O459 C478 1.257 . S
C460 O449 1.249 . S
C460 O450 1.264 . S
C461 C464 1.382 . S
C461 C466 1.390 . S
C461 C468 1.506 . S
C462 C463 1.398 . S
C462 C466 1.392 . S
C463 C462 1.398 . S
C463 C465 1.372 . S
C463 H480 0.931 . S
C464 C461 1.382 . S
C464 C465 1.390 . S
C464 H481 0.931 . S
C465 C463 1.372 . S
C465 C464 1.390 . S
C465 H482 0.929 . S
C466 C461 1.390 . S
C466 C462 1.392 . S
C466 H483 0.930 . S
C467 O452 1.255 . S
C467 O453 1.257 1_455 S
C468 Eu404 2.787 . S
C468 O448 1.252 . S
C468 O451 1.268 . S
C468 C461 1.506 . S
C469 C436 1.439 . S
C469 H446 0.931 . S
C469 C470 1.374 . S
C470 C441 1.387 . S
C470 H447 0.931 . S
C470 C469 1.374 . S
C471 O455 1.249 . S
C471 O456 1.264 . S
C472 C475 1.382 . S
C472 C476 1.390 . S
C472 C479 1.506 . S
C473 C474 1.398 . S
C473 C476 1.392 . S
C474 C473 1.398 . S
C474 C477 1.372 . S
C474 H484 0.931 1_556 S
C475 C472 1.382 . S
C475 C477 1.390 . S
C475 H485 0.931 . S
C476 C472 1.390 . S
C476 C473 1.392 . S
C476 H486 0.930 . S
C477 C474 1.372 . S
C477 C475 1.390 . S
C477 H487 0.929 . S
C478 O458 1.255 . S
C478 O459 1.257 . S
C479 Eu415 2.787 . S
C479 O454 1.252 . S
C479 O457 1.268 . S
C479 C472 1.506 . S
H480 C463 0.931 . S
H481 C464 0.931 . S
H482 C465 0.929 . S
H483 C466 0.930 . S
H484 C474 0.931 1_554 S
H485 C475 0.931 . S
H486 C476 0.930 . S
H487 C477 0.929 . S
C488 C489 1.391 . S
C488 C490 1.394 . S
C488 H504 0.931 . S
C489 C488 1.391 . S
C489 C493 1.376 . S
C490 C488 1.394 . S
C490 C491 1.369 . S
C490 C494 1.531 1_545 S
C491 C490 1.369 . S
C491 C492 1.410 . S
C491 C499 1.503 . S
C492 C491 1.410 . S
C492 C493 1.392 . S
C492 C495 1.511 . S
C493 C489 1.376 . S
C493 C492 1.392 . S
C493 H505 0.929 . S
C494 C490 1.531 1_565 S
C494 H506 0.960 . S
C494 H507 0.962 1_565 S
C494 H508 0.960 . S
C495 C492 1.511 . S
C495 H509 0.961 . S
C495 H510 0.961 . S
C495 H511 0.961 . S
C496 C497 1.370 . S
C496 C498 1.363 . S
C496 H512 0.931 . S
C497 C496 1.370 . S
C497 C501 1.408 . S
C498 C496 1.363 . S
C498 C499 1.370 . S
C498 C502 1.524 . S
C499 C491 1.503 . S
C499 C498 1.370 . S
C499 C500 1.403 . S
C500 C499 1.403 . S
C500 C501 1.404 . S
C500 C503 1.539 1_545 S
C501 C497 1.408 . S
C501 C500 1.404 . S
C501 H513 0.930 1_545 S
C502 C498 1.524 . S
C502 H514 0.956 . S
C502 H515 0.961 . S
C502 H516 0.961 . S
C503 C500 1.539 1_565 S
C503 H517 0.958 . S
C503 H518 0.961 . S
C503 H519 0.960 . S
H504 C488 0.931 . S
H505 C493 0.929 . S
H506 C494 0.960 . S
H507 C494 0.962 1_545 S
H508 C494 0.960 . S
H509 C495 0.961 . S
H510 C495 0.961 . S
H511 C495 0.961 . S
H512 C496 0.931 . S
H513 C501 0.930 1_565 S
H514 C502 0.956 . S
H515 C502 0.961 . S
H516 C502 0.961 . S
H517 C503 0.958 . S
H518 C503 0.961 . S
H519 C503 0.960 . S
C520 C521 1.391 . S
C520 C522 1.394 . S
C520 H536 0.931 . S
C521 C520 1.391 . S
C521 C525 1.376 . S
C522 C520 1.394 . S
C522 C523 1.369 . S
C522 C526 1.531 . S
C523 C522 1.369 . S
C523 C524 1.410 . S
C523 C531 1.503 . S
C524 C523 1.410 . S
C524 C525 1.392 . S
C524 C527 1.511 . S
C525 C521 1.376 . S
C525 C524 1.392 . S
C525 H537 0.929 . S
C526 C522 1.531 . S
C526 H538 0.960 . S
C526 H539 0.962 . S
C526 H540 0.960 . S
C527 C524 1.511 . S
C527 H541 0.961 . S
C527 H542 0.961 . S
C527 H543 0.961 . S
C528 C529 1.370 . S
C528 C530 1.363 . S
C528 H544 0.931 . S
C529 C528 1.370 . S
C529 C533 1.408 . S
C530 C528 1.363 . S
C530 C531 1.370 . S
C530 C534 1.524 . S
C531 C523 1.503 . S
C531 C530 1.370 . S
C531 C532 1.403 . S
C532 C531 1.403 . S
C532 C533 1.404 . S
C532 C535 1.539 . S
C533 C529 1.408 . S
C533 C532 1.404 . S
C533 H545 0.930 . S
C534 C530 1.524 . S
C534 H546 0.956 . S
C534 H547 0.961 . S
C534 H548 0.961 . S
C535 C532 1.539 . S
C535 H549 0.958 . S
C535 H550 0.961 . S
C535 H551 0.960 . S
H536 C520 0.931 . S
H537 C525 0.929 . S
H538 C526 0.960 . S
H539 C526 0.962 . S
H540 C526 0.960 . S
H541 C527 0.961 . S
H542 C527 0.961 . S
H543 C527 0.961 . S
H544 C528 0.931 . S
H545 C533 0.930 . S
H546 C534 0.956 . S
H547 C534 0.961 . S
H548 C534 0.961 . S
H549 C535 0.958 . S
H550 C535 0.961 . S
H551 C535 0.960 . S
C552 C553 1.391 . S
C552 C554 1.394 . S
C552 H568 0.931 . S
C553 C552 1.391 . S
C553 C557 1.376 . S
C554 C552 1.394 . S
C554 C555 1.369 . S
C554 C558 1.531 . S
C555 C554 1.369 . S
C555 C556 1.410 . S
C555 C563 1.503 . S
C556 C555 1.410 . S
C556 C557 1.392 . S
C556 C559 1.511 . S
C557 C553 1.376 . S
C557 C556 1.392 . S
C557 H569 0.929 . S
C558 C554 1.531 . S
C558 H570 0.960 . S
C558 H571 0.962 . S
C558 H572 0.960 . S
C559 C556 1.511 . S
C559 H573 0.961 . S
C559 H574 0.961 . S
C559 H575 0.961 . S
C560 C561 1.370 . S
C560 C562 1.363 . S
C560 H576 0.931 . S
C561 C560 1.370 . S
C561 C565 1.408 . S
C562 C560 1.363 . S
C562 C563 1.370 . S
C562 C566 1.524 . S
C563 C555 1.503 . S
C563 C562 1.370 . S
C563 C564 1.403 . S
C564 C563 1.403 . S
C564 C565 1.404 . S
C564 C567 1.539 . S
C565 C561 1.408 . S
C565 C564 1.404 . S
C565 H577 0.930 . S
C566 C562 1.524 . S
C566 H578 0.956 . S
C566 H579 0.961 . S
C566 H580 0.961 . S
C567 C564 1.539 . S
C567 H581 0.958 . S
C567 H582 0.961 . S
C567 H583 0.960 . S
H568 C552 0.931 . S
H569 C557 0.929 . S
H570 C558 0.960 . S
H571 C558 0.962 . S
H572 C558 0.960 . S
H573 C559 0.961 . S
H574 C559 0.961 . S
H575 C559 0.961 . S
H576 C560 0.931 . S
H577 C565 0.930 . S
H578 C566 0.956 . S
H579 C566 0.961 . S
H580 C566 0.961 . S
H581 C567 0.958 . S
H582 C567 0.961 . S
H583 C567 0.960 . S
C584 C585 1.391 . S
C584 C586 1.394 . S
C584 H600 0.931 . S
C585 C584 1.391 . S
C585 C589 1.376 . S
C586 C584 1.394 . S
C586 C587 1.369 . S
C586 C590 1.531 . S
C587 C586 1.369 . S
C587 C588 1.410 . S
C587 C595 1.503 . S
C588 C587 1.410 . S
C588 C589 1.392 . S
C588 C591 1.511 1_455 S
C589 C585 1.376 . S
C589 C588 1.392 . S
C589 H601 0.929 . S
C590 C586 1.531 . S
C590 H602 0.960 . S
C590 H603 0.962 . S
C590 H604 0.960 . S
C591 C588 1.511 1_655 S
C591 H605 0.961 . S
C591 H606 0.961 . S
C591 H607 0.961 . S
C592 C593 1.370 . S
C592 C594 1.363 . S
C592 H608 0.931 . S
C593 C592 1.370 . S
C593 C597 1.408 . S
C594 C592 1.363 . S
C594 C595 1.370 . S
C594 C598 1.524 . S
C595 C587 1.503 . S
C595 C594 1.370 . S
C595 C596 1.403 . S
C596 C595 1.403 . S
C596 C597 1.404 . S
C596 C599 1.539 1_455 S
C597 C593 1.408 . S
C597 C596 1.404 . S
C597 H609 0.930 1_455 S
C598 C594 1.524 . S
C598 H610 0.956 . S
C598 H611 0.961 . S
C598 H612 0.961 . S
C599 C596 1.539 1_655 S
C599 H613 0.958 . S
C599 H614 0.961 . S
C599 H615 0.960 . S
H600 C584 0.931 . S
H601 C589 0.929 . S
H602 C590 0.960 . S
H603 C590 0.962 . S
H604 C590 0.960 . S
H605 C591 0.961 . S
H606 C591 0.961 . S
H607 C591 0.961 . S
H608 C592 0.931 . S
H609 C597 0.930 1_655 S
H610 C598 0.956 . S
H611 C598 0.961 . S
H612 C598 0.961 . S
H613 C599 0.958 . S
H614 C599 0.961 . S
H615 C599 0.960 . S
C616 C617 1.391 . S
C616 C618 1.394 . S
C616 H632 0.931 . S
C617 C616 1.391 . S
C617 C621 1.390 . S
C618 C616 1.394 . S
C618 C619 1.369 . S
C618 C622 1.531 . S
C619 C618 1.369 . S
C619 C620 1.410 1_565 S
C619 C627 1.503 1_554 S
C620 C619 1.410 1_545 S
C620 C621 1.391 1_545 S
C620 C623 1.511 1_554 S
C621 C617 1.390 . S
C621 C620 1.391 1_565 S
C621 H633 0.917 1_565 S
C622 C618 1.531 . S
C622 H634 0.960 . S
C622 H635 0.962 . S
C622 H636 0.960 . S
C623 C620 1.511 1_556 S
C623 H637 0.961 . S
C623 H638 0.961 . S
C623 H639 0.961 . S
C624 C625 1.377 . S
C624 C626 1.363 . S
C624 H640 0.931 . S
C625 C624 1.377 . S
C625 C629 1.398 1_545 S
C626 C624 1.363 . S
C626 C627 1.370 1_545 S
C626 C630 1.524 1_556 S
C627 C619 1.503 1_556 S
C627 C626 1.370 1_565 S
C627 C628 1.403 . S
C628 C627 1.403 . S
C628 C629 1.404 . S
C628 C631 1.539 . S
C629 C625 1.398 1_565 S
C629 C628 1.404 . S
C629 H641 0.930 . S
C630 C626 1.524 1_554 S
C630 H642 0.956 . S
C630 H643 0.961 . S
C630 H644 0.961 . S
C631 C628 1.539 . S
C631 H645 0.958 . S
C631 H646 0.961 . S
C631 H647 0.960 . S
H632 C616 0.931 . S
H633 C621 0.917 1_545 S
H634 C622 0.960 . S
H635 C622 0.962 . S
H636 C622 0.960 . S
H637 C623 0.961 . S
H638 C623 0.961 . S
H639 C623 0.961 . S
H640 C624 0.931 . S
H641 C629 0.930 . S
H642 C630 0.956 . S
H643 C630 0.961 . S
H644 C630 0.961 . S
H645 C631 0.958 . S
H646 C631 0.961 . S
H647 C631 0.960 . S
C648 C649 1.391 . S
C648 C650 1.394 . S
C648 H664 0.931 . S
C649 C648 1.391 . S
C649 C653 1.376 . S
C650 C648 1.394 . S
C650 C651 1.369 . S
C650 C654 1.531 1_554 S
C651 C650 1.369 . S
C651 C652 1.410 . S
C651 C659 1.503 1_554 S
C652 C651 1.410 . S
C652 C653 1.392 . S
C652 C655 1.511 . S
C653 C649 1.376 . S
C653 C652 1.392 . S
C653 H665 0.929 . S
C654 C650 1.531 1_556 S
C654 H666 0.960 . S
C654 H667 0.962 . S
C654 H668 0.960 . S
C655 C652 1.511 . S
C655 H669 0.961 . S
C655 H670 0.961 . S
C655 H671 0.961 . S
C656 C657 1.370 . S
C656 C658 1.363 . S
C656 H672 0.931 . S
C657 C656 1.370 . S
C657 C661 1.408 . S
C658 C656 1.363 . S
C658 C659 1.370 . S
C658 C662 1.524 . S
C659 C651 1.503 1_556 S
C659 C658 1.370 . S
C659 C660 1.403 . S
C660 C659 1.403 . S
C660 C661 1.404 . S
C660 C663 1.539 1_556 S
C661 C657 1.408 . S
C661 C660 1.404 . S
C661 H673 0.930 . S
C662 C658 1.524 . S
C662 H674 0.956 . S
C662 H675 0.961 . S
C662 H676 0.961 . S
C663 C660 1.539 1_554 S
C663 H677 0.958 . S
C663 H678 0.961 . S
C663 H679 0.960 . S
H664 C648 0.931 . S
H665 C653 0.929 . S
H666 C654 0.960 . S
H667 C654 0.962 . S
H668 C654 0.960 . S
H669 C655 0.961 . S
H670 C655 0.961 . S
H671 C655 0.961 . S
H672 C656 0.931 . S
H673 C661 0.930 . S
H674 C662 0.956 . S
H675 C662 0.961 . S
H676 C662 0.961 . S
H677 C663 0.958 . S
H678 C663 0.961 . S
H679 C663 0.960 . S
C680 C681 1.391 . S
C680 C682 1.394 . S
C680 H696 0.931 . S
C681 C680 1.391 . S
C681 C685 1.376 . S
C682 C680 1.394 . S
C682 C683 1.369 . S
C682 C686 1.531 . S
C683 C682 1.369 . S
C683 C684 1.410 . S
C683 C691 1.503 1_554 S
C684 C683 1.410 . S
C684 C685 1.392 . S
C684 C687 1.511 . S
C685 C681 1.376 . S
C685 C684 1.392 . S
C685 H697 0.929 . S
C686 C682 1.531 . S
C686 H698 0.960 1_554 S
C686 H699 0.962 1_554 S
C686 H700 0.960 . S
C687 C684 1.511 . S
C687 H701 0.961 . S
C687 H702 0.961 . S
C687 H703 0.961 . S
C688 C689 1.370 . S
C688 C690 1.363 . S
C688 H704 0.931 . S
C689 C688 1.370 . S
C689 C693 1.408 . S
C690 C688 1.363 . S
C690 C691 1.370 . S
C690 C694 1.524 . S
C691 C683 1.503 1_556 S
C691 C690 1.370 . S
C691 C692 1.403 . S
C692 C691 1.403 . S
C692 C693 1.404 . S
C692 C695 1.539 1_556 S
C693 C689 1.408 . S
C693 C692 1.404 . S
C693 H705 0.930 . S
C694 C690 1.524 . S
C694 H706 0.956 . S
C694 H707 0.961 . S
C694 H708 0.961 . S
C695 C692 1.539 1_554 S
C695 H709 0.958 . S
C695 H710 0.961 . S
C695 H711 0.960 . S
H696 C680 0.931 . S
H697 C685 0.929 . S
H698 C686 0.960 1_556 S
H699 C686 0.962 1_556 S
H700 C686 0.960 . S
H701 C687 0.961 . S
H702 C687 0.961 . S
H703 C687 0.961 . S
H704 C688 0.931 . S
H705 C693 0.930 . S
H706 C694 0.956 . S
H707 C694 0.961 . S
H708 C694 0.961 . S
H709 C695 0.958 . S
H710 C695 0.961 . S
H711 C695 0.960 . S
C712 C713 1.391 1_455 S
C712 C714 1.394 . S
C712 H728 0.931 . S
C713 C712 1.391 1_655 S
C713 C717 1.376 . S
C714 C712 1.394 . S
C714 C715 1.369 1_455 S
C714 C718 1.531 . S
C715 C714 1.369 1_655 S
C715 C716 1.410 . S
C715 C723 1.503 1_554 S
C716 C715 1.410 . S
C716 C717 1.392 . S
C716 C719 1.511 . S
C717 C713 1.376 . S
C717 C716 1.392 . S
C717 H729 0.929 . S
C718 C714 1.531 . S
C718 H730 0.960 . S
C718 H731 0.969 . S
C718 H732 0.960 . S
C719 C716 1.511 . S
C719 H733 0.961 . S
C719 H734 0.961 1_554 S
C719 H735 0.961 . S
C720 C721 1.370 . S
C720 C722 1.363 . S
C720 H736 0.931 . S
C721 C720 1.370 . S
C721 C725 1.408 . S
C722 C720 1.363 . S
C722 C723 1.370 . S
C722 C726 1.524 . S
C723 C715 1.503 1_556 S
C723 C722 1.370 . S
C723 C724 1.403 . S
C724 C723 1.403 . S
C724 C725 1.404 . S
C724 C727 1.539 1_556 S
C725 C721 1.408 . S
C725 C724 1.404 . S
C725 H737 0.930 1_655 S
C726 C722 1.524 . S
C726 H738 0.956 1_655 S
C726 H739 0.961 . S
C726 H740 0.961 . S
C727 C724 1.539 1_554 S
C727 H741 0.958 1_655 S
C727 H742 0.961 . S
C727 H743 0.960 . S
H728 C712 0.931 . S
H729 C717 0.929 . S
H730 C718 0.960 . S
H731 C718 0.969 . S
H732 C718 0.960 . S
H733 C719 0.961 . S
H734 C719 0.961 1_556 S
H735 C719 0.961 . S
H736 C720 0.931 . S
H737 C725 0.930 1_455 S
H738 C726 0.956 1_455 S
H739 C726 0.961 . S
H740 C726 0.961 . S
H741 C727 0.958 1_455 S
H742 C727 0.961 . S
H743 C727 0.960 . S
C744 C745 1.391 . S
C744 C746 1.394 . S
C744 H760 0.931 . S
C745 C744 1.391 . S
C745 C749 1.376 . S
C746 C744 1.394 . S
C746 C747 1.369 . S
C746 C750 1.531 . S
C747 C746 1.369 . S
C747 C748 1.410 . S
C747 C755 1.503 . S
C748 C747 1.410 . S
C748 C749 1.392 . S
C748 C751 1.511 1_455 S
C749 C745 1.376 . S
C749 C748 1.392 . S
C749 H761 0.929 . S
C750 C746 1.531 . S
C750 H762 0.960 . S
C750 H763 0.962 . S
C750 H764 0.960 . S
C751 C748 1.511 1_655 S
C751 H765 0.961 . S
C751 H766 0.961 . S
C751 H767 0.961 . S
C752 C753 1.370 . S
C752 C754 1.363 . S
C752 H768 0.931 . S
C753 C752 1.370 . S
C753 C757 1.408 . S
C754 C752 1.363 . S
C754 C755 1.370 . S
C754 C758 1.524 . S
C755 C747 1.503 . S
C755 C754 1.370 . S
C755 C756 1.403 . S
C756 C755 1.403 . S
C756 C757 1.404 . S
C756 C759 1.538 1_455 S
C757 C753 1.408 . S
C757 C756 1.404 . S
C757 H769 0.930 1_455 S
C758 C754 1.524 . S
C758 H770 0.956 . S
C758 H771 0.961 . S
C758 H772 0.961 . S
C759 C756 1.538 1_655 S
C759 H773 0.955 1_655 S
C759 H774 0.965 . S
C759 H775 0.960 . S
H760 C744 0.931 . S
H761 C749 0.929 . S
H762 C750 0.960 . S
H763 C750 0.962 . S
H764 C750 0.960 . S
H765 C751 0.961 . S
H766 C751 0.961 . S
H767 C751 0.961 . S
H768 C752 0.931 . S
H769 C757 0.930 1_655 S
H770 C758 0.956 . S
H771 C758 0.961 . S
H772 C758 0.961 . S
H773 C759 0.955 1_455 S
H774 C759 0.965 . S
H775 C759 0.960 . S
C776 C777 1.391 . S
C776 C778 1.394 . S
C776 H792 0.931 . S
C777 C776 1.391 . S
C777 C781 1.376 . S
C778 C776 1.394 . S
C778 C779 1.369 . S
C778 C782 1.531 . S
C779 C778 1.369 . S
C779 C780 1.410 . S
C779 C787 1.503 . S
C780 C779 1.410 . S
C780 C781 1.392 . S
C780 C783 1.511 1_545 S
C781 C777 1.376 . S
C781 C780 1.392 . S
C781 H793 0.929 . S
C782 C778 1.531 . S
C782 H794 0.960 . S
C782 H795 0.962 . S
C782 H796 0.960 . S
C783 C780 1.511 1_565 S
C783 H797 0.961 . S
C783 H798 0.961 . S
C783 H799 0.961 . S
C784 C785 1.370 . S
C784 C786 1.363 . S
C784 H800 0.931 . S
C785 C784 1.370 . S
C785 C789 1.422 . S
C786 C784 1.363 . S
C786 C787 1.370 . S
C786 C790 1.524 . S
C787 C779 1.503 . S
C787 C786 1.370 . S
C787 C788 1.403 . S
C788 C787 1.403 . S
C788 C789 1.410 . S
C788 C791 1.539 1_545 S
C789 C785 1.422 . S
C789 C788 1.410 . S
C789 H801 0.911 1_545 S
C790 C786 1.524 . S
C790 H802 0.956 . S
C790 H803 0.961 . S
C790 H804 0.961 . S
C791 C788 1.539 1_565 S
C791 H805 0.947 1_565 S
C791 H806 0.961 . S
C791 H807 0.960 . S
H792 C776 0.931 . S
H793 C781 0.929 . S
H794 C782 0.960 . S
H795 C782 0.962 . S
H796 C782 0.960 . S
H797 C783 0.961 . S
H798 C783 0.961 . S
H799 C783 0.961 . S
H800 C784 0.931 . S
H801 C789 0.911 1_565 S
H802 C790 0.956 . S
H803 C790 0.961 . S
H804 C790 0.961 . S
H805 C791 0.947 1_545 S
H806 C791 0.961 . S
H807 C791 0.960 . S
C808 C809 1.391 . S
C808 C810 1.394 . S
C808 H824 0.931 . S
C809 C808 1.391 . S
C809 C813 1.376 . S
C810 C808 1.394 . S
C810 C811 1.369 . S
C810 C814 1.531 . S
C811 C810 1.369 . S
C811 C812 1.410 . S
C811 C819 1.503 . S
C812 C811 1.410 . S
C812 C813 1.392 . S
C812 C815 1.511 . S
C813 C809 1.376 . S
C813 C812 1.392 . S
C813 H825 0.929 . S
C814 C810 1.531 . S
C814 H826 0.960 . S
C814 H827 0.962 . S
C814 H828 0.960 . S
C815 C812 1.511 . S
C815 H829 0.961 . S
C815 H830 0.961 . S
C815 H831 0.961 . S
C816 C817 1.370 . S
C816 C818 1.363 . S
C816 H832 0.931 . S
C817 C816 1.370 . S
C817 C821 1.408 . S
C818 C816 1.363 . S
C818 C819 1.370 . S
C818 C822 1.524 . S
C819 C811 1.503 . S
C819 C818 1.370 . S
C819 C820 1.403 . S
C820 C819 1.403 . S
C820 C821 1.404 . S
C820 C823 1.539 . S
C821 C817 1.408 . S
C821 C820 1.404 . S
C821 H833 0.930 . S
C822 C818 1.524 . S
C822 H834 0.956 . S
C822 H835 0.961 . S
C822 H836 0.961 . S
C823 C820 1.539 . S
C823 H837 0.958 . S
C823 H838 0.961 . S
C823 H839 0.960 . S
H824 C808 0.931 . S
H825 C813 0.929 . S
H826 C814 0.960 . S
H827 C814 0.962 . S
H828 C814 0.960 . S
H829 C815 0.961 . S
H830 C815 0.961 . S
H831 C815 0.961 . S
H832 C816 0.931 . S
H833 C821 0.930 . S
H834 C822 0.956 . S
H835 C822 0.961 . S
H836 C822 0.961 . S
H837 C823 0.958 . S
H838 C823 0.961 . S
H839 C823 0.960 . S
C840 C841 1.391 . S
C840 C842 1.394 . S
C840 H856 0.931 . S
C841 C840 1.391 . S
C841 C845 1.376 . S
C842 C840 1.394 . S
C842 C843 1.369 . S
C842 C846 1.531 . S
C843 C842 1.369 . S
C843 C844 1.410 . S
C843 C851 1.503 . S
C844 C843 1.410 . S
C844 C845 1.392 . S
C844 C847 1.511 . S
C845 C841 1.376 . S
C845 C844 1.392 . S
C845 H857 0.929 . S
C846 C842 1.531 . S
C846 H858 0.960 . S
C846 H859 0.962 . S
C846 H860 0.960 . S
C847 C844 1.511 . S
C847 H861 0.961 . S
C847 H862 0.961 . S
C847 H863 0.961 . S
C848 C849 1.370 . S
C848 C850 1.363 . S
C848 H864 0.931 . S
C849 C848 1.370 . S
C849 C853 1.408 . S
C850 C848 1.363 . S
C850 C851 1.370 . S
C850 C854 1.524 . S
C851 C843 1.503 . S
C851 C850 1.370 . S
C851 C852 1.403 . S
C852 C851 1.403 . S
C852 C853 1.404 . S
C852 C855 1.539 . S
C853 C849 1.408 . S
C853 C852 1.404 . S
C853 H865 0.930 . S
C854 C850 1.524 . S
C854 H866 0.956 . S
C854 H867 0.961 . S
C854 H868 0.961 . S
C855 C852 1.539 . S
C855 H869 0.958 . S
C855 H870 0.961 . S
C855 H871 0.960 . S
H856 C840 0.931 . S
H857 C845 0.929 . S
H858 C846 0.960 . S
H859 C846 0.962 . S
H860 C846 0.960 . S
H861 C847 0.961 . S
H862 C847 0.961 . S
H863 C847 0.961 . S
H864 C848 0.931 . S
H865 C853 0.930 . S
H866 C854 0.956 . S
H867 C854 0.961 . S
H868 C854 0.961 . S
H869 C855 0.958 . S
H870 C855 0.961 . S
H871 C855 0.960 . S
C872 C873 1.391 . S
C872 C874 1.394 . S
C872 H888 0.931 . S
C873 C872 1.391 . S
C873 C877 1.376 1_655 S
C874 C872 1.394 . S
C874 C875 1.369 . S
C874 C878 1.531 . S
C875 C874 1.369 . S
C875 C876 1.410 1_655 S
C875 C883 1.503 . S
C876 C875 1.410 1_455 S
C876 C877 1.392 . S
C876 C879 1.511 . S
C877 C873 1.376 1_455 S
C877 C876 1.392 . S
C877 H889 0.929 . S
C878 C874 1.531 . S
C878 H890 0.960 . S
C878 H891 0.962 . S
C878 H892 0.960 . S
C879 C876 1.511 . S
C879 H893 0.961 . S
C879 H894 0.961 . S
C879 H895 0.961 . S
C880 C881 1.378 . S
C880 C882 1.357 1_456 S
C880 H896 0.931 . S
C881 C880 1.378 . S
C881 C885 1.408 1_556 S
C882 C880 1.357 1_654 S
C882 C883 1.370 . S
C882 C886 1.524 1_554 S
C883 C875 1.503 . S
C883 C882 1.370 . S
C883 C884 1.401 1_655 S
C884 C883 1.401 1_455 S
C884 C885 1.406 . S
C884 C887 1.540 . S
C885 C881 1.408 1_554 S
C885 C884 1.406 . S
C885 H897 0.930 . S
C886 C882 1.524 1_556 S
C886 H898 0.956 . S
C886 H899 0.934 1_655 S
C886 H900 0.961 . S
C887 C884 1.540 . S
C887 H901 0.958 1_455 S
C887 H902 0.961 . S
C887 H903 0.960 . S
H888 C872 0.931 . S
H889 C877 0.929 . S
H890 C878 0.960 . S
H891 C878 0.962 . S
H892 C878 0.960 . S
H893 C879 0.961 . S
H894 C879 0.961 . S
H895 C879 0.961 . S
H896 C880 0.931 . S
H897 C885 0.930 . S
H898 C886 0.956 . S
H899 C886 0.934 1_455 S
H900 C886 0.961 . S
H901 C887 0.958 1_655 S
H902 C887 0.961 . S
H903 C887 0.960 . S
C904 C905 1.391 . S
C904 C906 1.394 1_565 S
C904 H920 0.931 1_565 S
C905 C904 1.391 . S
C905 C909 1.376 . S
C906 C904 1.394 1_545 S
C906 C907 1.369 1_545 S
C906 C910 1.531 . S
C907 C906 1.369 1_565 S
C907 C908 1.410 . S
C907 C915 1.503 . S
C908 C907 1.410 . S
C908 C909 1.392 . S
C908 C911 1.511 . S
C909 C905 1.376 . S
C909 C908 1.392 . S
C909 H921 0.929 . S
C910 C906 1.531 . S
C910 H922 0.960 1_554 S
C910 H923 0.962 . S
C910 H924 0.960 . S
C911 C908 1.511 . S
C911 H925 0.961 . S
C911 H926 0.961 . S
C911 H927 0.961 . S
C912 C913 1.370 1_554 S
C912 C914 1.363 . S
C912 H928 0.931 . S
C913 C912 1.370 1_556 S
C913 C917 1.408 1_545 S
C914 C912 1.363 . S
C914 C915 1.370 1_545 S
C914 C918 1.524 . S
C915 C907 1.503 . S
C915 C914 1.370 1_565 S
C915 C916 1.403 1_554 S
C916 C915 1.403 1_556 S
C916 C917 1.404 . S
C916 C919 1.539 . S
C917 C913 1.408 1_565 S
C917 C916 1.404 . S
C917 H929 0.930 . S
C918 C914 1.524 . S
C918 H930 0.956 . S
C918 H931 0.961 . S
C918 H932 0.961 . S
C919 C916 1.539 . S
C919 H933 0.958 . S
C919 H934 0.961 . S
C919 H935 0.960 . S
H920 C904 0.931 1_545 S
H921 C909 0.929 . S
H922 C910 0.960 1_556 S
H923 C910 0.962 . S
H924 C910 0.960 . S
H925 C911 0.961 . S
H926 C911 0.961 . S
H927 C911 0.961 . S
H928 C912 0.931 . S
H929 C917 0.930 . S
H930 C918 0.956 . S
H931 C918 0.961 . S
H932 C918 0.961 . S
H933 C919 0.958 . S
H934 C919 0.961 . S
H935 C919 0.960 . S
C936 C937 1.391 . S
C936 C938 1.394 . S
C936 H952 0.931 . S
C937 C936 1.391 . S
C937 C941 1.376 . S
C938 C936 1.394 . S
C938 C939 1.369 . S
C938 C942 1.531 . S
C939 C938 1.369 . S
C939 C940 1.410 . S
C939 C947 1.503 . S
C940 C939 1.410 . S
C940 C941 1.392 . S
C940 C943 1.511 1_554 S
C941 C937 1.376 . S
C941 C940 1.392 . S
C941 H953 0.929 . S
C942 C938 1.531 . S
C942 H954 0.960 . S
C942 H955 0.962 . S
C942 H956 0.960 . S
C943 C940 1.511 1_556 S
C943 H957 0.961 . S
C943 H958 0.961 . S
C943 H959 0.961 . S
C944 C945 1.370 1_554 S
C944 C946 1.363 . S
C944 H960 0.931 1_554 S
C945 C944 1.370 1_556 S
C945 C949 1.408 1_556 S
C946 C944 1.363 . S
C946 C947 1.370 . S
C946 C950 1.524 . S
C947 C939 1.503 . S
C947 C946 1.370 . S
C947 C948 1.403 . S
C948 C947 1.403 . S
C948 C949 1.404 . S
C948 C951 1.539 . S
C949 C945 1.408 1_554 S
C949 C948 1.404 . S
C949 H961 0.930 . S
C950 C946 1.524 . S
C950 H962 0.956 . S
C950 H963 0.961 . S
C950 H964 0.961 . S
C951 C948 1.539 . S
C951 H965 0.958 . S
C951 H966 0.961 . S
C951 H967 0.960 . S
H952 C936 0.931 . S
H953 C941 0.929 . S
H954 C942 0.960 . S
H955 C942 0.962 . S
H956 C942 0.960 . S
H957 C943 0.961 . S
H958 C943 0.961 . S
H959 C943 0.961 . S
H960 C944 0.931 1_556 S
H961 C949 0.930 . S
H962 C950 0.956 . S
H963 C950 0.961 . S
H964 C950 0.961 . S
H965 C951 0.958 . S
H966 C951 0.961 . S
H967 C951 0.960 . S
C968 C969 1.391 . S
C968 C970 1.394 . S
C968 H984 0.931 . S
C969 C968 1.391 . S
C969 C973 1.376 . S
C970 C968 1.394 . S
C970 C971 1.369 . S
C970 C974 1.531 . S
C971 C970 1.369 . S
C971 C972 1.410 . S
C971 C979 1.503 . S
C972 C971 1.410 . S
C972 C973 1.392 . S
C972 C975 1.511 . S
C973 C969 1.376 . S
C973 C972 1.392 . S
C973 H985 0.929 . S
C974 C970 1.531 . S
C974 H986 0.960 1_554 S
C974 H987 0.962 . S
C974 H988 0.960 1_554 S
C975 C972 1.511 . S
C975 H989 0.961 . S
C975 H990 0.961 . S
C975 H991 0.961 . S
C976 C977 1.370 1_554 S
C976 C978 1.363 . S
C976 H992 0.931 . S
C977 C976 1.370 1_556 S
C977 C981 1.408 . S
C978 C976 1.363 . S
C978 C979 1.370 . S
C978 C982 1.524 . S
C979 C971 1.503 . S
C979 C978 1.370 . S
C979 C980 1.403 . S
C980 C979 1.403 . S
C980 C981 1.404 1_554 S
C980 C983 1.539 1_554 S
C981 C977 1.408 . S
C981 C980 1.404 1_556 S
C981 H993 0.930 . S
C982 C978 1.524 . S
C982 H994 0.956 . S
C982 H995 0.961 . S
C982 H996 0.961 . S
C983 C980 1.539 1_556 S
C983 H997 0.958 . S
C983 H998 0.961 . S
C983 H999 0.960 1_556 S
H984 C968 0.931 . S
H985 C973 0.929 . S
H986 C974 0.960 1_556 S
H987 C974 0.962 . S
H988 C974 0.960 1_556 S
H989 C975 0.961 . S
H990 C975 0.961 . S
H991 C975 0.961 . S
H992 C976 0.931 . S
H993 C981 0.930 . S
H994 C982 0.956 . S
H995 C982 0.961 . S
H996 C982 0.961 . S
H997 C983 0.958 . S
H998 C983 0.961 . S
H999 C983 0.960 1_554 S
C1000 C1001 1.391 . S
C1000 C1002 1.394 . S
C1000 H1016 0.931 . S
C1001 C1000 1.391 . S
C1001 C1005 1.376 . S
C1002 C1000 1.394 . S
C1002 C1003 1.369 . S
C1002 C1006 1.531 . S
C1003 C1002 1.369 . S
C1003 C1004 1.410 . S
C1003 C1011 1.503 . S
C1004 C1003 1.410 . S
C1004 C1005 1.392 . S
C1004 C1007 1.513 . S
C1005 C1001 1.376 . S
C1005 C1004 1.392 . S
C1005 H1017 0.929 . S
C1006 C1002 1.531 . S
C1006 H1018 0.960 . S
C1006 H1019 0.962 . S
C1006 H1020 0.960 1_556 S
C1007 C1004 1.513 . S
C1007 H1021 0.961 . S
C1007 H1022 0.962 . S
C1007 H1023 0.957 1_455 S
C1008 C1009 1.370 . S
C1008 C1010 1.363 . S
C1008 H1024 0.931 . S
C1009 C1008 1.370 . S
C1009 C1013 1.408 . S
C1010 C1008 1.363 . S
C1010 C1011 1.370 . S
C1010 C1014 1.524 . S
C1011 C1003 1.503 . S
C1011 C1010 1.370 . S
C1011 C1012 1.403 . S
C1012 C1011 1.403 . S
C1012 C1013 1.404 . S
C1012 C1015 1.539 1_455 S
C1013 C1009 1.408 . S
C1013 C1012 1.404 . S
C1013 H1025 0.930 1_455 S
C1014 C1010 1.524 . S
C1014 H1026 0.956 . S
C1014 H1027 0.961 . S
C1014 H1028 0.961 . S
C1015 C1012 1.539 1_655 S
C1015 H1029 0.958 . S
C1015 H1030 0.961 . S
C1015 H1031 0.960 . S
H1016 C1000 0.931 . S
H1017 C1005 0.929 . S
H1018 C1006 0.960 . S
H1019 C1006 0.962 . S
H1020 C1006 0.960 1_554 S
H1021 C1007 0.961 . S
H1022 C1007 0.962 . S
H1023 C1007 0.957 1_655 S
H1024 C1008 0.931 . S
H1025 C1013 0.930 1_655 S
H1026 C1014 0.956 . S
H1027 C1014 0.961 . S
H1028 C1014 0.961 . S
H1029 C1015 0.958 . S
H1030 C1015 0.961 . S
H1031 C1015 0.960 . S
C1032 C1033 1.391 . S
C1032 C1034 1.394 . S
C1032 H1048 0.931 . S
C1033 C1032 1.391 . S
C1033 C1037 1.376 . S
C1034 C1032 1.394 . S
C1034 C1035 1.369 . S
C1034 C1038 1.531 . S
C1035 C1034 1.369 . S
C1035 C1036 1.410 . S
C1035 C1043 1.503 . S
C1036 C1035 1.410 . S
C1036 C1037 1.392 . S
C1036 C1039 1.511 . S
C1037 C1033 1.376 . S
C1037 C1036 1.392 . S
C1037 H1049 0.929 . S
C1038 C1034 1.531 . S
C1038 H1050 0.960 . S
C1038 H1051 0.962 . S
C1038 H1052 0.960 . S
C1039 C1036 1.511 . S
C1039 H1053 0.961 1_556 S
C1039 H1054 0.961 . S
C1039 H1055 0.961 . S
C1040 C1041 1.370 . S
C1040 C1042 1.363 . S
C1040 H1056 0.931 1_545 S
C1041 C1040 1.370 . S
C1041 C1045 1.408 . S
C1042 C1040 1.363 . S
C1042 C1043 1.370 . S
C1042 C1046 1.524 1_545 S
C1043 C1035 1.503 . S
C1043 C1042 1.370 . S
C1043 C1044 1.403 . S
C1044 C1043 1.403 . S
C1044 C1045 1.404 . S
C1044 C1047 1.539 . S
C1045 C1041 1.408 . S
C1045 C1044 1.404 . S
C1045 H1057 0.930 . S
C1046 C1042 1.524 1_565 S
C1046 H1058 0.956 . S
C1046 H1059 0.961 . S
C1046 H1060 0.961 . S
C1047 C1044 1.539 . S
C1047 H1061 0.958 . S
C1047 H1062 0.961 . S
C1047 H1063 0.960 . S
H1048 C1032 0.931 . S
H1049 C1037 0.929 . S
H1050 C1038 0.960 . S
H1051 C1038 0.962 . S
H1052 C1038 0.960 . S
H1053 C1039 0.961 1_554 S
H1054 C1039 0.961 . S
H1055 C1039 0.961 . S
H1056 C1040 0.931 1_565 S
H1057 C1045 0.930 . S
H1058 C1046 0.956 . S
H1059 C1046 0.961 . S
H1060 C1046 0.961 . S
H1061 C1047 0.958 . S
H1062 C1047 0.961 . S
H1063 C1047 0.960 . S
C1064 C1065 1.391 . S
C1064 C1066 1.394 . S
C1064 H1080 0.931 . S
C1065 C1064 1.391 . S
C1065 C1069 1.376 . S
C1066 C1064 1.394 . S
C1066 C1067 1.369 . S
C1066 C1070 1.531 . S
C1067 C1066 1.369 . S
C1067 C1068 1.410 . S
C1067 C1075 1.503 . S
C1068 C1067 1.410 . S
C1068 C1069 1.392 . S
C1068 C1071 1.511 . S
C1069 C1065 1.376 . S
C1069 C1068 1.392 . S
C1069 H1081 0.929 . S
C1070 C1066 1.531 . S
C1070 H1082 0.960 . S
C1070 H1083 0.962 . S
C1070 H1084 0.960 . S
C1071 C1068 1.511 . S
C1071 H1085 0.961 . S
C1071 H1086 0.961 . S
C1071 H1087 0.961 . S
C1072 C1073 1.370 . S
C1072 C1074 1.363 . S
C1072 H1088 0.931 . S
C1073 C1072 1.370 . S
C1073 C1077 1.408 . S
C1074 C1072 1.363 . S
C1074 C1075 1.370 . S
C1074 C1078 1.524 . S
C1075 C1067 1.503 . S
C1075 C1074 1.370 . S
C1075 C1076 1.403 . S
C1076 C1075 1.403 . S
C1076 C1077 1.404 . S
C1076 C1079 1.539 . S
C1077 C1073 1.408 . S
C1077 C1076 1.404 . S
C1077 H1089 0.930 . S
C1078 C1074 1.524 . S
C1078 H1090 0.956 . S
C1078 H1091 0.961 . S
C1078 H1092 0.961 . S
C1079 C1076 1.539 . S
C1079 H1093 0.958 . S
C1079 H1094 0.961 . S
C1079 H1095 0.960 . S
H1080 C1064 0.931 . S
H1081 C1069 0.929 . S
H1082 C1070 0.960 . S
H1083 C1070 0.962 . S
H1084 C1070 0.960 . S
H1085 C1071 0.961 . S
H1086 C1071 0.961 . S
H1087 C1071 0.961 . S
H1088 C1072 0.931 . S
H1089 C1077 0.930 . S
H1090 C1078 0.956 . S
H1091 C1078 0.961 . S
H1092 C1078 0.961 . S
H1093 C1079 0.958 . S
H1094 C1079 0.961 . S
H1095 C1079 0.960 . S
C1096 C1097 1.391 . S
C1096 C1098 1.394 . S
C1096 H1112 0.931 . S
C1097 C1096 1.391 . S
C1097 C1101 1.376 . S
C1098 C1096 1.394 . S
C1098 C1099 1.369 . S
C1098 C1102 1.531 . S
C1099 C1098 1.369 . S
C1099 C1100 1.410 . S
C1099 C1107 1.503 . S
C1100 C1099 1.410 . S
C1100 C1101 1.392 . S
C1100 C1103 1.511 . S
C1101 C1097 1.376 . S
C1101 C1100 1.392 . S
C1101 H1113 0.929 . S
C1102 C1098 1.531 . S
C1102 H1114 0.960 . S
C1102 H1115 0.962 . S
C1102 H1116 0.960 . S
C1103 C1100 1.511 . S
C1103 H1117 0.961 . S
C1103 H1118 0.961 . S
C1103 H1119 0.961 1_556 S
C1104 C1105 1.370 . S
C1104 C1106 1.363 . S
C1104 H1120 0.931 . S
C1105 C1104 1.370 . S
C1105 C1109 1.408 . S
C1106 C1104 1.363 . S
C1106 C1107 1.370 . S
C1106 C1110 1.524 . S
C1107 C1099 1.503 . S
C1107 C1106 1.370 . S
C1107 C1108 1.403 . S
C1108 C1107 1.403 . S
C1108 C1109 1.404 . S
C1108 C1111 1.539 . S
C1109 C1105 1.408 . S
C1109 C1108 1.404 . S
C1109 H1121 0.930 . S
C1110 C1106 1.524 . S
C1110 H1122 0.956 . S
C1110 H1123 0.961 . S
C1110 H1124 0.961 . S
C1111 C1108 1.539 . S
C1111 H1125 0.958 . S
C1111 H1126 0.961 . S
C1111 H1127 0.960 . S
H1112 C1096 0.931 . S
H1113 C1101 0.929 . S
H1114 C1102 0.960 . S
H1115 C1102 0.962 . S
H1116 C1102 0.960 . S
H1117 C1103 0.961 . S
H1118 C1103 0.961 . S
H1119 C1103 0.961 1_554 S
H1120 C1104 0.931 . S
H1121 C1109 0.930 . S
H1122 C1110 0.956 . S
H1123 C1110 0.961 . S
H1124 C1110 0.961 . S
H1125 C1111 0.958 . S
H1126 C1111 0.961 . S
H1127 C1111 0.960 . S
C1128 C1129 1.391 . S
C1128 C1130 1.395 . S
C1128 H1144 0.931 1_655 S
C1129 C1128 1.391 . S
C1129 C1133 1.376 . S
C1130 C1128 1.395 . S
C1130 C1131 1.384 . S
C1130 C1134 1.514 1_655 S
C1131 C1130 1.384 . S
C1131 C1132 1.410 . S
C1131 C1139 1.503 . S
C1132 C1131 1.410 . S
C1132 C1133 1.392 . S
C1132 C1135 1.511 . S
C1133 C1129 1.376 . S
C1133 C1132 1.392 . S
C1133 H1145 0.929 . S
C1134 C1130 1.514 1_455 S
C1134 H1146 0.960 . S
C1134 H1147 0.962 . S
C1134 H1148 0.960 . S
C1135 C1132 1.511 . S
C1135 H1149 0.961 . S
C1135 H1150 0.961 . S
C1135 H1151 0.961 . S
C1136 C1137 1.370 1_455 S
C1136 C1138 1.363 . S
C1136 H1152 0.931 . S
C1137 C1136 1.370 1_655 S
C1137 C1141 1.408 . S
C1138 C1136 1.363 . S
C1138 C1139 1.370 1_455 S
C1138 C1142 1.524 . S
C1139 C1131 1.503 . S
C1139 C1138 1.370 1_655 S
C1139 C1140 1.403 . S
C1140 C1139 1.403 . S
C1140 C1141 1.404 . S
C1140 C1143 1.539 . S
C1141 C1137 1.408 . S
C1141 C1140 1.404 . S
C1141 H1153 0.930 . S
C1142 C1138 1.524 . S
C1142 H1154 0.956 . S
C1142 H1155 0.991 . S
C1142 H1156 0.961 . S
C1143 C1140 1.539 . S
C1143 H1157 0.958 . S
C1143 H1158 0.961 . S
C1143 H1159 0.960 . S
H1144 C1128 0.931 1_455 S
H1145 C1133 0.929 . S
H1146 C1134 0.960 . S
H1147 C1134 0.962 . S
H1148 C1134 0.960 . S
H1149 C1135 0.961 . S
H1150 C1135 0.961 . S
H1151 C1135 0.961 . S
H1152 C1136 0.931 . S
H1153 C1141 0.930 . S
H1154 C1142 0.956 . S
H1155 C1142 0.991 . S
H1156 C1142 0.961 . S
H1157 C1143 0.958 . S
H1158 C1143 0.961 . S
H1159 C1143 0.960 . S
C1160 C1161 1.391 . S
C1160 C1162 1.394 . S
C1160 H1176 0.931 . S
C1161 C1160 1.391 . S
C1161 C1165 1.376 . S
C1162 C1160 1.394 . S
C1162 C1163 1.369 . S
C1162 C1166 1.531 . S
C1163 C1162 1.369 . S
C1163 C1164 1.410 . S
C1163 C1171 1.503 . S
C1164 C1163 1.410 . S
C1164 C1165 1.392 . S
C1164 C1167 1.511 1_565 S
C1165 C1161 1.376 . S
C1165 C1164 1.392 . S
C1165 H1177 0.929 . S
C1166 C1162 1.531 . S
C1166 H1178 0.960 . S
C1166 H1179 0.962 . S
C1166 H1180 0.960 . S
C1167 C1164 1.511 1_545 S
C1167 H1181 0.961 1_545 S
C1167 H1182 0.961 1_545 S
C1167 H1183 0.961 . S
C1168 C1169 1.370 . S
C1168 C1170 1.363 . S
C1168 H1184 0.931 . S
C1169 C1168 1.370 . S
C1169 C1173 1.408 1_565 S
C1170 C1168 1.363 . S
C1170 C1171 1.370 . S
C1170 C1174 1.524 . S
C1171 C1163 1.503 . S
C1171 C1170 1.370 . S
C1171 C1172 1.403 1_565 S
C1172 C1171 1.403 1_545 S
C1172 C1173 1.404 . S
C1172 C1175 1.539 . S
C1173 C1169 1.408 1_545 S
C1173 C1172 1.404 . S
C1173 H1185 0.930 . S
C1174 C1170 1.524 . S
C1174 H1186 0.956 . S
C1174 H1187 0.961 . S
C1174 H1188 0.961 . S
C1175 C1172 1.539 . S
C1175 H1189 0.958 . S
C1175 H1190 0.961 . S
C1175 H1191 0.960 . S
H1176 C1160 0.931 . S
H1177 C1165 0.929 . S
H1178 C1166 0.960 . S
H1179 C1166 0.962 . S
H1180 C1166 0.960 . S
H1181 C1167 0.961 1_565 S
H1182 C1167 0.961 1_565 S
H1183 C1167 0.961 . S
H1184 C1168 0.931 . S
H1185 C1173 0.930 . S
H1186 C1174 0.956 . S
H1187 C1174 0.961 . S
H1188 C1174 0.961 . S
H1189 C1175 0.958 . S
H1190 C1175 0.961 . S
H1191 C1175 0.960 . S
C1192 C1193 1.391 . S
C1192 C1194 1.394 . S
C1192 H1208 0.931 . S
C1193 C1192 1.391 . S
C1193 C1197 1.376 . S
C1194 C1192 1.394 . S
C1194 C1195 1.369 . S
C1194 C1198 1.531 . S
C1195 C1194 1.369 . S
C1195 C1196 1.410 . S
C1195 C1203 1.503 . S
C1196 C1195 1.410 . S
C1196 C1197 1.392 . S
C1196 C1199 1.511 . S
C1197 C1193 1.376 . S
C1197 C1196 1.392 . S
C1197 H1209 0.929 . S
C1198 C1194 1.531 . S
C1198 H1210 0.960 . S
C1198 H1211 0.962 . S
C1198 H1212 0.960 . S
C1199 C1196 1.511 . S
C1199 H1213 0.961 . S
C1199 H1214 0.961 . S
C1199 H1215 0.961 . S
C1200 C1201 1.370 . S
C1200 C1202 1.363 . S
C1200 H1216 0.931 . S
C1201 C1200 1.370 . S
C1201 C1205 1.408 . S
C1202 C1200 1.363 . S
C1202 C1203 1.370 . S
C1202 C1206 1.524 . S
C1203 C1195 1.503 . S
C1203 C1202 1.370 . S
C1203 C1204 1.403 . S
C1204 C1203 1.403 . S
C1204 C1205 1.404 . S
C1204 C1207 1.539 . S
C1205 C1201 1.408 . S
C1205 C1204 1.404 . S
C1205 H1217 0.930 . S
C1206 C1202 1.524 . S
C1206 H1218 0.956 . S
C1206 H1219 0.961 . S
C1206 H1220 0.961 . S
C1207 C1204 1.539 . S
C1207 H1221 0.958 . S
C1207 H1222 0.961 . S
C1207 H1223 0.960 . S
H1208 C1192 0.931 . S
H1209 C1197 0.929 . S
H1210 C1198 0.960 . S
H1211 C1198 0.962 . S
H1212 C1198 0.960 . S
H1213 C1199 0.961 . S
H1214 C1199 0.961 . S
H1215 C1199 0.961 . S
H1216 C1200 0.931 . S
H1217 C1205 0.930 . S
H1218 C1206 0.956 . S
H1219 C1206 0.961 . S
H1220 C1206 0.961 . S
H1221 C1207 0.958 . S
H1222 C1207 0.961 . S
H1223 C1207 0.960 . S
C1224 C1225 1.391 . S
C1224 C1226 1.394 . S
C1224 H1240 0.931 . S
C1225 C1224 1.391 . S
C1225 C1229 1.376 . S
C1226 C1224 1.394 . S
C1226 C1227 1.369 . S
C1226 C1230 1.531 . S
C1227 C1226 1.369 . S
C1227 C1228 1.410 . S
C1227 C1235 1.503 . S
C1228 C1227 1.410 . S
C1228 C1229 1.392 . S
C1228 C1231 1.511 . S
C1229 C1225 1.376 . S
C1229 C1228 1.392 . S
C1229 H1241 0.929 . S
C1230 C1226 1.531 . S
C1230 H1242 0.960 . S
C1230 H1243 0.962 . S
C1230 H1244 0.960 . S
C1231 C1228 1.511 . S
C1231 H1245 0.961 . S
C1231 H1246 0.961 . S
C1231 H1247 0.961 . S
C1232 C1233 1.370 . S
C1232 C1234 1.363 . S
C1232 H1248 0.931 . S
C1233 C1232 1.370 . S
C1233 C1237 1.408 . S
C1234 C1232 1.363 . S
C1234 C1235 1.370 . S
C1234 C1238 1.524 . S
C1235 C1227 1.503 . S
C1235 C1234 1.370 . S
C1235 C1236 1.403 . S
C1236 C1235 1.403 . S
C1236 C1237 1.404 . S
C1236 C1239 1.539 . S
C1237 C1233 1.408 . S
C1237 C1236 1.404 . S
C1237 H1249 0.930 . S
C1238 C1234 1.524 . S
C1238 H1250 0.956 . S
C1238 H1251 0.961 . S
C1238 H1252 0.961 . S
C1239 C1236 1.539 . S
C1239 H1253 0.958 . S
C1239 H1254 0.961 . S
C1239 H1255 0.960 . S
H1240 C1224 0.931 . S
H1241 C1229 0.929 . S
H1242 C1230 0.960 . S
H1243 C1230 0.962 . S
H1244 C1230 0.960 . S
H1245 C1231 0.961 . S
H1246 C1231 0.961 . S
H1247 C1231 0.961 . S
H1248 C1232 0.931 . S
H1249 C1237 0.930 . S
H1250 C1238 0.956 . S
H1251 C1238 0.961 . S
H1252 C1238 0.961 . S
H1253 C1239 0.958 . S
H1254 C1239 0.961 . S
H1255 C1239 0.960 . S
C489 C125 1.933 . S
C497 C215 2.019 . S
C529 C292 2.033 . S
C521 C144 1.950 . S
C561 C383 2.010 . S
C553 C87 1.923 . S
C593 C467 2.000 . S
C585 C106 1.919 . S
C625 C226 2.029 . S
C617 C49 2.004 . S
C649 C68 2.023 . S
C657 C303 2.030 . S
C681 C11 2.012 . S
C689 C394 2.009 . S
C713 C30 1.997 . S
C721 C478 2.003 1_655 S
C753 C210 0.617 1_455 S
C745 C97 0.708 . S
C785 C305 0.676 . S
C777 C116 0.677 . S
C817 C378 0.638 . S
C809 C135 0.679 . S
C841 C78 0.595 . S
C849 C462 0.689 . S
C873 C21 0.599 . S
C881 C221 0.680 . S
C913 C294 0.684 1_556 S
C905 C40 0.708 . S
C945 C389 0.639 . S
C937 C59 0.634 . S
C969 C2 0.699 . S
C977 C473 0.690 . S
C1001 C101 1.919 . S
C1009 C219 2.111 . S
C1033 C120 1.962 . S
C1041 C310 2.137 . S
C1073 C387 2.122 . S
C1065 C139 1.963 . S
C1105 C471 2.133 . S
C1097 C82 1.936 . S
C1129 C25 1.915 . S
C1137 C208 2.111 . S
C1169 C299 2.132 1_565 S
C1161 C44 1.953 . S
C1201 C376 2.121 . S
C1193 C63 1.983 . S
C1225 C6 1.951 . S
C1233 C460 2.132 . S
