# Generated by pormake.
# Topology nom, (4,4)-cn, num edge types: 1
# Building blocks:
#     Node 0, Type 0, BuildingBlock: MUDLON_clean_linker_0, # of connection points: 4
#     Node 1, Type 0, BuildingBlock: MUDLON_clean_linker_0, # of connection points: 4
#     Node 2, Type 0, BuildingBlock: MUDLON_clean_linker_0, # of connection points: 4
#     Node 3, Type 0, BuildingBlock: MUDLON_clean_linker_0, # of connection points: 4
#     Node 4, Type 0, BuildingBlock: MUDLON_clean_linker_0, # of connection points: 4
#     Node 5, Type 0, BuildingBlock: MUDLON_clean_linker_0, # of connection points: 4
#     Node 6, Type 1, BuildingBlock: UXUYUI_clean_sbu_0, # of connection points: 4
#     Node 7, Type 1, BuildingBlock: UXUYUI_clean_sbu_0, # of connection points: 4
#     Node 8, Type 1, BuildingBlock: UXUYUI_clean_sbu_0, # of connection points: 4
#     Node 9, Type 1, BuildingBlock: UXUYUI_clean_sbu_0, # of connection points: 4
#     Node 10, Type 1, BuildingBlock: UXUYUI_clean_sbu_0, # of connection points: 4
#     Node 11, Type 1, BuildingBlock: UXUYUI_clean_sbu_0, # of connection points: 4
#     Edge 12, Type (0, 1), BuildingBlock: XUDNAN_clean_linker_2, # of connection points: 2
#     Edge 13, Type (0, 1), BuildingBlock: XUDNAN_clean_linker_2, # of connection points: 2
#     Edge 14, Type (0, 1), BuildingBlock: XUDNAN_clean_linker_2, # of connection points: 2
#     Edge 15, Type (0, 1), BuildingBlock: XUDNAN_clean_linker_2, # of connection points: 2
#     Edge 16, Type (0, 1), BuildingBlock: XUDNAN_clean_linker_2, # of connection points: 2
#     Edge 17, Type (0, 1), BuildingBlock: XUDNAN_clean_linker_2, # of connection points: 2
#     Edge 18, Type (0, 1), BuildingBlock: XUDNAN_clean_linker_2, # of connection points: 2
#     Edge 19, Type (0, 1), BuildingBlock: XUDNAN_clean_linker_2, # of connection points: 2
#     Edge 20, Type (0, 1), BuildingBlock: XUDNAN_clean_linker_2, # of connection points: 2
#     Edge 21, Type (0, 1), BuildingBlock: XUDNAN_clean_linker_2, # of connection points: 2
#     Edge 22, Type (0, 1), BuildingBlock: XUDNAN_clean_linker_2, # of connection points: 2
#     Edge 23, Type (0, 1), BuildingBlock: XUDNAN_clean_linker_2, # of connection points: 2
#     Edge 24, Type (0, 1), BuildingBlock: XUDNAN_clean_linker_2, # of connection points: 2
#     Edge 25, Type (0, 1), BuildingBlock: XUDNAN_clean_linker_2, # of connection points: 2
#     Edge 26, Type (0, 1), BuildingBlock: XUDNAN_clean_linker_2, # of connection points: 2
#     Edge 27, Type (0, 1), BuildingBlock: XUDNAN_clean_linker_2, # of connection points: 2
#     Edge 28, Type (0, 1), BuildingBlock: XUDNAN_clean_linker_2, # of connection points: 2
#     Edge 29, Type (0, 1), BuildingBlock: XUDNAN_clean_linker_2, # of connection points: 2
#     Edge 30, Type (0, 1), BuildingBlock: XUDNAN_clean_linker_2, # of connection points: 2
#     Edge 31, Type (0, 1), BuildingBlock: XUDNAN_clean_linker_2, # of connection points: 2
#     Edge 32, Type (0, 1), BuildingBlock: XUDNAN_clean_linker_2, # of connection points: 2
#     Edge 33, Type (0, 1), BuildingBlock: XUDNAN_clean_linker_2, # of connection points: 2
#     Edge 34, Type (0, 1), BuildingBlock: XUDNAN_clean_linker_2, # of connection points: 2
#     Edge 35, Type (0, 1), BuildingBlock: XUDNAN_clean_linker_2, # of connection points: 2
# Relax obj value: 0.038
# Max RMSD: 0.149
# Mean RMSD: 0.119
data_MOF--net-nom--node1-UXUYUI_clean_sbu_0--node2-MUDLON_clean_linker_0--edge1-XUDNAN_clean_linker_2
_symmetry_space_group_name_H-M    P1
_symmetry_Int_Tables_number       1
_symmetry_cell_setting            triclinic
loop_
_symmetry_equiv_pos_as_xyz
'x, y, z'
_cell_length_a     70.507791
_cell_length_b     71.192731
_cell_length_c     71.200594
_cell_angle_alpha  90.303737
_cell_angle_beta   89.824342
_cell_angle_gamma 120.29476
loop_
_atom_site_label
_atom_site_type_symbol
_atom_site_fract_x
_atom_site_fract_y
_atom_site_fract_z
_atom_type_partial_charge
H0 H 0.13414 0.55224 0.32825 0.0
N1 N 0.09794 0.54983 0.34197 0.0
H2 H 0.16482 0.58309 0.3126 0.0
H3 H 0.09895 0.5872 0.33027 0.0
H4 H 0.12889 0.61753 0.31384 0.0
H5 H 0.11181 0.58526 0.36519 0.0
H6 H 0.12509 0.58867 0.39733 0.0
H7 H 0.09776 0.51892 0.36294 0.0
H8 H 0.11111 0.52223 0.39526 0.0
H9 H 0.07194 0.51856 0.31818 0.0
H10 H 0.07271 0.56571 0.35687 0.0
H11 H 0.03369 0.5065 0.31019 0.0
H12 H 0.03484 0.55414 0.34876 0.0
H13 H 0.93286 0.46908 0.29875 0.0
H14 H 0.91404 0.44799 0.2707 0.0
H15 H 0.91831 0.50544 0.24612 0.0
H16 H 0.93612 0.526 0.27465 0.0
H17 H 0.92754 0.53605 0.31338 0.0
H18 H 0.89648 0.52745 0.33404 0.0
H19 H 0.89347 0.46746 0.34983 0.0
H20 H 0.92447 0.47619 0.32894 0.0
H21 H 0.97746 0.5129 0.2839 0.0
H22 H 0.01359 0.52061 0.29353 0.0
H23 H 0.99734 0.52456 0.35135 0.0
N24 N 0.94514 0.5116 0.30574 0.0
H25 H 0.96133 0.51736 0.34187 0.0
C26 C 0.11415 0.56718 0.3304 0.0
C27 C 0.1328 0.56634 0.32486 0.0
C28 C 0.15028 0.58399 0.31583 0.0
C29 C 0.14944 0.60293 0.31199 0.0
C30 C 0.13032 0.6034 0.31686 0.0
C31 C 0.11295 0.58584 0.3261 0.0
C32 C 0.10388 0.55177 0.36158 0.0
C33 C 0.11138 0.57134 0.37164 0.0
C34 C 0.1191 0.57333 0.39001 0.0
C35 C 0.11932 0.55578 0.39876 0.0
C36 C 0.11103 0.53599 0.38894 0.0
C37 C 0.10344 0.53407 0.3705 0.0
C38 C 0.07524 0.54293 0.33811 0.0
C39 C 0.06383 0.52625 0.32497 0.0
C40 C 0.04203 0.51948 0.32037 0.0
C41 C 0.03115 0.52934 0.32884 0.0
C42 C 0.04255 0.54593 0.3422 0.0
C43 C 0.06435 0.55267 0.34679 0.0
C44 C 0.93564 0.49908 0.28882 0.0
C45 C 0.92959 0.47704 0.28736 0.0
C46 C 0.91905 0.46508 0.2712 0.0
C47 C 0.91447 0.47495 0.25616 0.0
C48 C 0.92112 0.49716 0.25755 0.0
C49 C 0.93148 0.50902 0.27374 0.0
C50 C 0.92831 0.50685 0.3196 0.0
C51 C 0.92034 0.52121 0.32152 0.0
C52 C 0.90264 0.51627 0.33338 0.0
C53 C 0.89246 0.49675 0.34362 0.0
C54 C 0.90075 0.48249 0.34197 0.0
C55 C 0.9185 0.48747 0.33006 0.0
C56 C 0.96556 0.51318 0.31207 0.0
C57 C 0.98114 0.51464 0.29877 0.0
C58 C 1.00204 0.51919 0.30428 0.0
C59 C 0.00834 0.52297 0.32324 0.0
C60 C 0.99304 0.52172 0.3366 0.0
C61 C 0.97209 0.51717 0.33111 0.0
H62 H 0.49617 0.90505 0.49517 0.0
N63 N 0.49892 0.93837 0.47645 0.0
H64 H 0.46336 0.87473 0.50907 0.0
H65 H 0.45949 0.93658 0.48165 0.0
H66 H 0.42671 0.9067 0.49602 0.0
H67 H 0.46894 0.93086 0.44887 0.0
H68 H 0.46563 0.91242 0.41902 0.0
H69 H 0.52865 0.93069 0.46104 0.0
H70 H 0.52591 0.91281 0.43089 0.0
H71 H 0.53328 0.96163 0.4983 0.0
H72 H 0.48626 0.96659 0.46339 0.0
H73 H 0.5514 1.00052 0.50516 0.0
H74 H 0.50365 0.00543 0.47075 0.0
H75 H 0.61417 0.12497 0.52439 0.0
H76 H 0.61445 0.14234 0.55412 0.0
H77 H 0.54337 0.10748 0.55393 0.0
H78 H 0.54345 0.09122 0.52367 0.0
H79 H 0.54811 0.10801 0.49236 0.0
H80 H 0.55351 0.13749 0.47136 0.0
H81 H 0.62069 0.1536 0.46216 0.0
H82 H 0.61498 0.12401 0.48298 0.0
H83 H 0.56946 0.0659 0.52758 0.0
H84 H 0.54767 0.02711 0.52177 0.0
H85 H 0.53645 0.03944 0.46473 0.0
N86 N 0.57966 0.09872 0.50337 0.0
H87 H 0.55734 0.07818 0.47066 0.0
C88 C 0.48036 0.92307 0.48743 0.0
C89 C 0.48115 0.90569 0.49573 0.0
C90 C 0.46236 0.88841 0.50371 0.0
C91 C 0.44229 0.88816 0.50358 0.0
C92 C 0.4418 0.90619 0.49609 0.0
C93 C 0.46063 0.92344 0.48802 0.0
C94 C 0.49901 0.93196 0.45725 0.0
C95 C 0.48171 0.92746 0.44486 0.0
C96 C 0.47988 0.91694 0.42773 0.0
C97 C 0.49533 0.91081 0.42269 0.0
C98 C 0.51348 0.91689 0.43452 0.0
C99 C 0.51523 0.92729 0.45164 0.0
C100 C 0.50843 0.96121 0.48048 0.0
C101 C 0.52673 0.97115 0.49233 0.0
C102 C 0.53693 0.99336 0.49633 0.0
C103 C 0.52891 0.0062 0.48866 0.0
C104 C 0.5104 0.99613 0.47679 0.0
C105 C 0.50029 0.97384 0.47269 0.0
C106 C 0.57889 0.10675 0.52189 0.0
C107 C 0.59869 0.12097 0.53092 0.0
C108 C 0.59877 0.13077 0.54799 0.0
C109 C 0.57892 0.12637 0.55655 0.0
C110 C 0.559 0.11161 0.54766 0.0
C111 C 0.55897 0.10209 0.53041 0.0
C112 C 0.58123 0.11387 0.48918 0.0
C113 C 0.56387 0.11774 0.48561 0.0
C114 C 0.56704 0.13466 0.47368 0.0
C115 C 0.58757 0.14798 0.46512 0.0
C116 C 0.60458 0.1435 0.46827 0.0
C117 C 0.60141 0.12664 0.48018 0.0
C118 C 0.56454 0.0756 0.50001 0.0
C119 C 0.56177 0.06044 0.51396 0.0
C120 C 0.54953 0.03808 0.51051 0.0
C121 C 0.54024 0.03002 0.49275 0.0
C122 C 0.54293 0.04499 0.47871 0.0
C123 C 0.55502 0.06742 0.48221 0.0
H124 H 0.49803 0.61099 0.65715 0.0
N125 N 0.49516 0.57513 0.67097 0.0
H126 H 0.47095 0.61391 0.63782 0.0
H127 H 0.45819 0.54109 0.65539 0.0
H128 H 0.43107 0.54383 0.63603 0.0
H129 H 0.45574 0.55879 0.6895 0.0
H130 H 0.45037 0.56936 0.7206 0.0
H131 H 0.52594 0.59679 0.69677 0.0
H132 H 0.52083 0.60572 0.72878 0.0
H133 H 0.53314 0.58781 0.65396 0.0
H134 H 0.47777 0.53196 0.67875 0.0
H135 H 0.55076 0.56629 0.64773 0.0
H136 H 0.49518 0.51006 0.67233 0.0
H137 H 0.59868 0.51949 0.61826 0.0
H138 H 0.60328 0.51167 0.58549 0.0
H139 H 0.54994 0.44565 0.59211 0.0
H140 H 0.545 0.45375 0.62468 0.0
H141 H 0.53629 0.45971 0.66345 0.0
H142 H 0.53617 0.4308 0.6815 0.0
H143 H 0.60488 0.45683 0.66823 0.0
H144 H 0.60513 0.4866 0.65139 0.0
H145 H 0.52774 0.47678 0.63673 0.0
H146 H 0.5078 0.49602 0.64378 0.0
H147 H 0.56665 0.54878 0.66839 0.0
N148 N 0.57132 0.49174 0.64365 0.0
H149 H 0.58634 0.52938 0.66143 0.0
C150 C 0.48027 0.57592 0.65759 0.0
C151 C 0.48363 0.59629 0.65228 0.0
C152 C 0.46808 0.59791 0.64139 0.0
C153 C 0.44883 0.57909 0.63552 0.0
C154 C 0.44584 0.5586 0.64021 0.0
C155 C 0.46137 0.55701 0.65126 0.0
C156 C 0.49135 0.57757 0.69053 0.0
C157 C 0.47006 0.56906 0.69794 0.0
C158 C 0.467 0.57496 0.71598 0.0
C159 C 0.48515 0.58891 0.72729 0.0
C160 C 0.50639 0.59572 0.72035 0.0
C161 C 0.50941 0.59037 0.70212 0.0
C162 C 0.50421 0.56146 0.66666 0.0
C163 C 0.52474 0.57081 0.65788 0.0
C164 C 0.5348 0.55854 0.65446 0.0
C165 C 0.52439 0.53653 0.65965 0.0
C166 C 0.50351 0.52695 0.6681 0.0
C167 C 0.49354 0.53939 0.67174 0.0
C168 C 0.57175 0.48722 0.62393 0.0
C169 C 0.58774 0.50348 0.6125 0.0
C170 C 0.59032 0.49899 0.59384 0.0
C171 C 0.57708 0.47801 0.58638 0.0
C172 C 0.56049 0.46189 0.59762 0.0
C173 C 0.55764 0.46652 0.61619 0.0
C174 C 0.57089 0.47561 0.65616 0.0
C175 C 0.55148 0.45959 0.66479 0.0
C176 C 0.55137 0.44276 0.67495 0.0
C177 C 0.57047 0.44119 0.6763 0.0
C178 C 0.58991 0.45755 0.66794 0.0
C179 C 0.59011 0.47459 0.65817 0.0
C180 C 0.55857 0.50172 0.64864 0.0
C181 C 0.53624 0.49235 0.64384 0.0
C182 C 0.52486 0.50333 0.64791 0.0
C183 C 0.53572 0.52395 0.65652 0.0
C184 C 0.55792 0.53302 0.66155 0.0
C185 C 0.56916 0.52196 0.6577 0.0
H186 H 0.13241 0.60475 0.83071 0.0
N187 N 0.09759 0.57169 0.81474 0.0
H188 H 0.16151 0.60371 0.84857 0.0
H189 H 0.09771 0.53486 0.82571 0.0
H190 H 0.12662 0.53367 0.84389 0.0
H191 H 0.11481 0.55313 0.79166 0.0
H192 H 0.13286 0.56743 0.76163 0.0
H193 H 0.09618 0.60214 0.79439 0.0
H194 H 0.1127 0.61563 0.76359 0.0
H195 H 0.07288 0.57848 0.83873 0.0
H196 H 0.07045 0.53217 0.79825 0.0
H197 H 0.03343 0.55571 0.84416 0.0
H198 H 0.03068 0.50953 0.80299 0.0
H199 H 0.90505 0.48755 0.85318 0.0
H200 H 0.88869 0.4741 0.88398 0.0
H201 H 0.93353 0.45024 0.89288 0.0
H202 H 0.9487 0.46252 0.86164 0.0
H203 H 0.92466 0.43945 0.83247 0.0
H204 H 0.89567 0.4118 0.81262 0.0
H205 H 0.88363 0.46077 0.78941 0.0
H206 H 0.9128 0.48838 0.80932 0.0
H207 H 0.96047 0.52469 0.83388 0.0
H208 H 1.00005 0.54586 0.82843 0.0
H209 H 1.00213 0.4863 0.82468 0.0
N210 N 0.93517 0.48193 0.83587 0.0
H211 H 0.96242 0.46532 0.82947 0.0
C212 C 0.11286 0.56997 0.82704 0.0
C213 C 0.13092 0.58917 0.83378 0.0
C214 C 0.14754 0.58855 0.84384 0.0
C215 C 0.14632 0.56861 0.84752 0.0
C216 C 0.12785 0.54923 0.84134 0.0
C217 C 0.11132 0.5499 0.831 0.0
C218 C 0.10464 0.577 0.79549 0.0
C219 C 0.11419 0.56671 0.78558 0.0
C220 C 0.12436 0.57483 0.76823 0.0
C221 C 0.12472 0.59307 0.76022 0.0
C222 C 0.11348 0.60207 0.76954 0.0
C223 C 0.10375 0.59424 0.78704 0.0
C224 C 0.0745 0.55716 0.81801 0.0
C225 C 0.06373 0.56336 0.831 0.0
C226 C 0.04115 0.55039 0.83394 0.0
C227 C 0.02873 0.53089 0.8238 0.0
C228 C 0.0397 0.52437 0.8111 0.0
C229 C 0.06242 0.53735 0.80827 0.0
C230 C 0.92817 0.47626 0.8551 0.0
C231 C 0.91148 0.47965 0.86193 0.0
C232 C 0.90225 0.47203 0.87963 0.0
C233 C 0.9097 0.46098 0.89104 0.0
C234 C 0.92703 0.45829 0.8844 0.0
C235 C 0.936 0.4656 0.86654 0.0
C236 C 0.92099 0.46606 0.82222 0.0
C237 C 0.91629 0.44438 0.8227 0.0
C238 C 0.89963 0.42856 0.81138 0.0
C239 C 0.88727 0.4341 0.79956 0.0
C240 C 0.89272 0.45597 0.79853 0.0
C241 C 0.90946 0.47178 0.80973 0.0
C242 C 0.95846 0.49352 0.83217 0.0
C243 C 0.9695 0.51626 0.83179 0.0
C244 C 0.99216 0.5283 0.82883 0.0
C245 C 0.00441 0.51782 0.82631 0.0
C246 C 0.99324 0.49492 0.82642 0.0
C247 C 0.97047 0.48287 0.82928 0.0
H248 H 0.53556 0.12138 0.00669 0.0
N249 N 0.53909 0.09526 0.98208 0.0
H250 H 0.56481 0.14973 0.02591 0.0
H251 H 0.58034 0.10152 0.98629 0.0
H252 H 0.60998 0.13029 0.00491 0.0
H253 H 0.56906 0.10218 0.95462 0.0
H254 H 0.57476 0.12294 0.92584 0.0
H255 H 0.5126 0.10795 0.96802 0.0
H256 H 0.51784 0.12836 0.93902 0.0
H257 H 0.50191 0.07093 1.00032 0.0
H258 H 0.55317 0.06776 0.97005 0.0
H259 H 0.48292 0.03165 0.00534 0.0
H260 H 0.53403 0.02823 0.97452 0.0
H261 H 0.42004 0.91978 0.02139 0.0
H262 H 0.41149 0.9064 0.05374 0.0
H263 H 0.47843 0.92119 0.06111 0.0
H264 H 0.48686 0.93477 0.02888 0.0
H265 H 0.48759 0.92087 0.99934 0.0
H266 H 0.4836 0.89126 0.97896 0.0
H267 H 0.42331 0.88402 0.95678 0.0
H268 H 0.42725 0.9134 0.97748 0.0
H269 H 0.44206 0.95977 0.99348 0.0
H270 H 0.46253 0.99887 0.98744 0.0
H271 H 0.52334 0.9999 0.99833 0.0
N272 N 0.45787 0.93455 0.00333 0.0
H273 H 0.50257 0.96051 0.00375 0.0
C274 C 0.55581 0.1095 0.99507 0.0
C275 C 0.55169 0.12302 0.00659 0.0
C276 C 0.56847 0.13932 0.01738 0.0
C277 C 0.58985 0.14251 0.01674 0.0
C278 C 0.5937 0.12822 0.00582 0.0
C279 C 0.5768 0.11181 0.99507 0.0
C280 C 0.5404 0.10362 0.96349 0.0
C281 C 0.55752 0.10739 0.95112 0.0
C282 C 0.56074 0.11925 0.93462 0.0
C283 C 0.54692 0.12756 0.93026 0.0
C284 C 0.52901 0.12253 0.94213 0.0
C285 C 0.52584 0.11072 0.95859 0.0
C286 C 0.52876 0.07217 0.98475 0.0
C287 C 0.50897 0.06164 0.99469 0.0
C288 C 0.49811 0.03919 0.99742 0.0
C289 C 0.5068 0.02669 0.99014 0.0
C290 C 0.52693 0.03737 0.98039 0.0
C291 C 0.53784 0.05995 0.97771 0.0
C292 C 0.45395 0.9281 0.02271 0.0
C293 C 0.43286 0.9203 0.03009 0.0
C294 C 0.42806 0.91274 0.04854 0.0
C295 C 0.44429 0.91269 0.05993 0.0
C296 C 0.46555 0.92082 0.05258 0.0
C297 C 0.47039 0.92861 0.03416 0.0
C298 C 0.45753 0.91915 0.99001 0.0
C299 C 0.4736 0.91303 0.99004 0.0
C300 C 0.4713 0.89608 0.9784 0.0
C301 C 0.4531 0.88528 0.96635 0.0
C302 C 0.4376 0.89215 0.96579 0.0
C303 C 0.43977 0.90886 0.9776 0.0
C304 C 0.47075 0.95735 0.99918 0.0
C305 C 0.45982 0.96847 0.99444 0.0
C306 C 0.47156 0.99083 0.99114 0.0
C307 C 0.49461 0.00263 0.99264 0.0
C308 C 0.50563 0.99131 0.99698 0.0
C309 C 0.49378 0.96882 1.00022 0.0
H310 H 0.56169 0.46135 0.16289 0.0
N311 N 0.57913 0.50139 0.17992 0.0
H312 H 0.58007 0.45008 0.14029 0.0
H313 H 0.61835 0.52598 0.16428 0.0
H314 H 0.63717 0.51452 0.14184 0.0
H315 H 0.60728 0.51135 0.20798 0.0
H316 H 0.60349 0.48929 0.23549 0.0
H317 H 0.54196 0.46371 0.19015 0.0
H318 H 0.53788 0.44155 0.21772 0.0
H319 H 0.54386 0.48026 0.15572 0.0
H320 H 0.57738 0.53547 0.19288 0.0
H321 H 0.5178 0.49155 0.14755 0.0
H322 H 0.55041 0.54631 0.18559 0.0
H323 H 0.43126 0.53419 0.12851 0.0
H324 H 0.4277 0.54731 0.09786 0.0
H325 H 0.49797 0.57818 0.09009 0.0
H326 H 0.50148 0.5661 0.12095 0.0
H327 H 0.48622 0.58898 0.14436 0.0
H328 H 0.47583 0.61099 0.16292 0.0
H329 H 0.4365 0.5557 0.19878 0.0
H330 H 0.44535 0.53325 0.17876 0.0
H331 H 0.46127 0.50464 0.15009 0.0
H332 H 0.48779 0.49365 0.15865 0.0
H333 H 0.53861 0.56139 0.1624 0.0
N334 N 0.46807 0.54467 0.14682 0.0
H335 H 0.51157 0.57204 0.15483 0.0
C336 C 0.58853 0.49475 0.16508 0.0
C337 C 0.57788 0.4733 0.15804 0.0
C338 C 0.58844 0.46682 0.14512 0.0
C339 C 0.61001 0.48145 0.13929 0.0
C340 C 0.62054 0.50292 0.14614 0.0
C341 C 0.60981 0.50951 0.15882 0.0
C342 C 0.57501 0.48921 0.19704 0.0
C343 C 0.59196 0.49631 0.21025 0.0
C344 C 0.58971 0.48371 0.22597 0.0
C345 C 0.57039 0.46361 0.22877 0.0
C346 C 0.55306 0.45683 0.21584 0.0
C347 C 0.55532 0.46953 0.20012 0.0
C348 C 0.56298 0.50725 0.17479 0.0
C349 C 0.5457 0.49481 0.16221 0.0
C350 C 0.5305 0.5012 0.15767 0.0
C351 C 0.53188 0.51991 0.16586 0.0
C352 C 0.54899 0.53208 0.17866 0.0
C353 C 0.56436 0.52584 0.18298 0.0
C354 C 0.46652 0.54905 0.12722 0.0
C355 C 0.44582 0.54341 0.11999 0.0
C356 C 0.44384 0.5509 0.10241 0.0
C357 C 0.46259 0.56408 0.09153 0.0
C358 C 0.48321 0.56852 0.09825 0.0
C359 C 0.48521 0.56131 0.11595 0.0
C360 C 0.4659 0.55917 0.15979 0.0
C361 C 0.47535 0.58156 0.15621 0.0
C362 C 0.46955 0.59429 0.1671 0.0
C363 C 0.45478 0.58515 0.18224 0.0
C364 C 0.44715 0.56323 0.18682 0.0
C365 C 0.45243 0.55036 0.17557 0.0
C366 C 0.48443 0.53905 0.1517 0.0
C367 C 0.47815 0.51704 0.15281 0.0
C368 C 0.49342 0.51084 0.15757 0.0
C369 C 0.5155 0.52659 0.16112 0.0
C370 C 0.52174 0.54875 0.16004 0.0
C371 C 0.50634 0.55492 0.15554 0.0
Li372 Li 0.63757 0.39449 0.42536 0.0
Li373 Li 0.63542 0.36299 0.41151 0.0
Li374 Li 0.66838 0.39818 0.40629 0.0
Li375 Li 0.63118 0.38807 0.39122 0.0
C376 C 0.6542 0.37327 0.44753 0.0
N377 N 0.64768 0.35385 0.48227 0.0
C378 C 0.63292 0.36014 0.45443 0.0
C379 C 0.67217 0.37647 0.45824 0.0
C380 C 0.62996 0.35047 0.47204 0.0
C381 C 0.66853 0.36653 0.47579 0.0
C382 C 0.59052 0.35628 0.41203 0.0
C383 C 0.5575 0.33098 0.39549 0.0
N384 N 0.54605 0.32632 0.41186 0.0
C385 C 0.57837 0.35145 0.42866 0.0
C386 C 0.57998 0.34615 0.39527 0.0
C387 C 0.55593 0.33617 0.4283 0.0
C388 C 0.61278 0.41026 0.44235 0.0
N389 N 0.62946 0.40641 0.44583 0.0
C390 C 0.63387 0.42112 0.47683 0.0
C391 C 0.64008 0.41166 0.46263 0.0
C392 C 0.61688 0.42555 0.4735 0.0
C393 C 0.60628 0.41999 0.45601 0.0
H394 H 0.60474 0.40603 0.4288 0.0
H395 H 0.65358 0.40883 0.46493 0.0
C396 C 0.64416 0.32945 0.41714 0.0
N397 N 0.62706 0.33308 0.41555 0.0
C398 C 0.64036 0.30838 0.41945 0.0
C399 C 0.60135 0.29512 0.41948 0.0
C400 C 0.60591 0.31646 0.41682 0.0
C401 C 0.61872 0.2909 0.4206 0.0
H402 H 0.66082 0.34299 0.41644 0.0
H403 H 0.59252 0.31959 0.41572 0.0
C404 C 0.65866 0.43469 0.41305 0.0
N405 N 0.66836 0.47253 0.43186 0.0
C406 C 0.64711 0.44535 0.40894 0.0
C407 C 0.67522 0.44332 0.42664 0.0
C408 C 0.65224 0.46446 0.41863 0.0
C409 C 0.67986 0.46246 0.43601 0.0
C410 C 0.65019 0.35803 0.37857 0.0
C411 C 0.66936 0.35688 0.37728 0.0
C412 C 0.63048 0.341 0.37149 0.0
C413 C 0.6684 0.33849 0.36921 0.0
C414 C 0.63019 0.32287 0.36355 0.0
N415 N 0.649 0.32199 0.3626 0.0
C416 C 0.71155 0.40477 0.40744 0.0
C417 C 0.70854 0.43376 0.39445 0.0
C418 C 0.73419 0.4159 0.40404 0.0
N419 N 0.69927 0.41377 0.40248 0.0
C420 C 0.73113 0.44561 0.39111 0.0
C421 C 0.74421 0.43662 0.39581 0.0
H422 H 0.70371 0.38885 0.41385 0.0
H423 H 0.69835 0.44046 0.39054 0.0
C424 C 0.60499 0.40134 0.37203 0.0
N425 N 0.61756 0.39198 0.36986 0.0
C426 C 0.5956 0.40528 0.35638 0.0
C427 C 0.61159 0.38908 0.33671 0.0
C428 C 0.62093 0.38576 0.35269 0.0
C429 C 0.59892 0.39916 0.33843 0.0
H430 H 0.60241 0.40589 0.38591 0.0
H431 H 0.63109 0.37844 0.35139 0.0
O432 O 0.65754 0.3828 0.43029 0.0
O433 O 0.61248 0.37133 0.41212 0.0
O434 O 0.65339 0.41554 0.40425 0.0
O435 O 0.6507 0.37568 0.38685 0.0
H436 H 0.61887 0.35737 0.44625 0.0
H437 H 0.68874 0.38654 0.45304 0.0
H438 H 0.61357 0.34026 0.47755 0.0
H439 H 0.68228 0.36888 0.48426 0.0
H440 H 0.54915 0.32295 0.38263 0.0
H441 H 0.58617 0.35943 0.44171 0.0
H442 H 0.58899 0.34998 0.38221 0.0
H443 H 0.54635 0.3322 0.44108 0.0
H444 H 0.64259 0.42542 0.49009 0.0
H445 H 0.59303 0.42303 0.45296 0.0
H446 H 0.6542 0.3058 0.42053 0.0
H447 H 0.58444 0.28202 0.42032 0.0
H448 H 0.63423 0.43887 0.3985 0.0
H449 H 0.68415 0.43511 0.43012 0.0
H450 H 0.64337 0.47284 0.41567 0.0
H451 H 0.69253 0.46925 0.44665 0.0
H452 H 0.68478 0.36996 0.38255 0.0
H453 H 0.61553 0.34164 0.37231 0.0
H454 H 0.68309 0.33731 0.36823 0.0
H455 H 0.61501 0.30948 0.35817 0.0
H456 H 0.74377 0.4085 0.40793 0.0
H457 H 0.73823 0.46144 0.38456 0.0
H458 H 0.58578 0.41293 0.35827 0.0
H459 H 0.61472 0.38434 0.32309 0.0
Li460 Li 0.2642 0.64739 0.59555 0.0
Li461 Li 0.28943 0.63881 0.58004 0.0
Li462 Li 0.2889 0.6729 0.5716 0.0
Li463 Li 0.25889 0.63584 0.56272 0.0
C464 C 0.30602 0.67931 0.6104 0.0
N465 N 0.32503 0.70883 0.63954 0.0
C466 C 0.31584 0.67478 0.62538 0.0
C467 C 0.30601 0.69895 0.61021 0.0
C468 C 0.3253 0.68988 0.63999 0.0
C469 C 0.31567 0.71364 0.62507 0.0
C470 C 0.25793 0.60132 0.59192 0.0
C471 C 0.26188 0.56988 0.58725 0.0
N472 N 0.25999 0.56633 0.60609 0.0
C473 C 0.25602 0.59736 0.61124 0.0
C474 C 0.26085 0.58746 0.57981 0.0
C475 C 0.25708 0.57957 0.61812 0.0
C476 C 0.22681 0.62713 0.61839 0.0
N477 N 0.24765 0.64444 0.61808 0.0
C478 C 0.24227 0.65618 0.64815 0.0
C479 C 0.25551 0.65885 0.63262 0.0
C480 C 0.22057 0.63862 0.64875 0.0
C481 C 0.21292 0.62391 0.63359 0.0
H482 H 0.22086 0.61593 0.60663 0.0
H483 H 0.27194 0.67254 0.63227 0.0
C484 C 0.3193 0.62486 0.56892 0.0
N485 N 0.3087 0.62755 0.58375 0.0
C486 C 0.33361 0.6169 0.5717 0.0
C487 C 0.32591 0.61479 0.60496 0.0
C488 C 0.31171 0.62267 0.60153 0.0
C489 C 0.33716 0.61189 0.58995 0.0
H490 H 0.31684 0.62909 0.55495 0.0
H491 H 0.30298 0.62482 0.61306 0.0
C492 C 0.24007 0.66241 0.58092 0.0
N493 N 0.20593 0.66554 0.59673 0.0
C494 C 0.21836 0.64575 0.57823 0.0
C495 C 0.24441 0.68072 0.59154 0.0
C496 C 0.20133 0.64764 0.58635 0.0
C497 C 0.22693 0.68198 0.59946 0.0
C498 C 0.2878 0.64738 0.53595 0.0
C499 C 0.28904 0.66349 0.52402 0.0
C500 C 0.28298 0.62723 0.52851 0.0
C501 C 0.28527 0.6591 0.50482 0.0
C502 C 0.27927 0.62347 0.50923 0.0
N503 N 0.28048 0.63935 0.49789 0.0
C504 C 0.32792 0.71143 0.56158 0.0
C505 C 0.29536 0.71316 0.55862 0.0
C506 C 0.34053 0.73263 0.55478 0.0
N507 N 0.30579 0.70217 0.56327 0.0
C508 C 0.30732 0.73441 0.55185 0.0
C509 C 0.33023 0.7444 0.54969 0.0
H510 H 0.33571 0.70219 0.56528 0.0
H511 H 0.27772 0.70533 0.56002 0.0
C512 C 0.22767 0.59894 0.54144 0.0
N513 N 0.23769 0.62089 0.54347 0.0
C514 C 0.21247 0.58843 0.52701 0.0
C515 C 0.21792 0.62329 0.51727 0.0
C516 C 0.23306 0.63311 0.53182 0.0
C517 C 0.20741 0.60063 0.51465 0.0
H518 H 0.23153 0.58959 0.55096 0.0
H519 H 0.24117 0.65053 0.53387 0.0
O520 O 0.29698 0.66483 0.59583 0.0
O521 O 0.25722 0.61883 0.58493 0.0
O522 O 0.257 0.66057 0.57354 0.0
O523 O 0.29078 0.65112 0.55487 0.0
H524 H 0.31618 0.65979 0.62575 0.0
H525 H 0.29836 0.70272 0.5989 0.0
H526 H 0.33289 0.68653 0.65169 0.0
H527 H 0.31567 0.72884 0.62513 0.0
H528 H 0.26429 0.55912 0.57805 0.0
H529 H 0.25402 0.60803 0.62086 0.0
H530 H 0.26269 0.59045 0.56486 0.0
H531 H 0.25571 0.57635 0.63304 0.0
H532 H 0.24906 0.66775 0.65962 0.0
H533 H 0.19626 0.61029 0.63328 0.0
H534 H 0.34215 0.61514 0.55976 0.0
H535 H 0.32793 0.61086 0.61922 0.0
H536 H 0.2147 0.63137 0.57021 0.0
H537 H 0.2611 0.69374 0.5938 0.0
H538 H 0.18446 0.63482 0.58449 0.0
H539 H 0.23005 0.69599 0.60781 0.0
H540 H 0.29263 0.67912 0.52955 0.0
H541 H 0.28176 0.61451 0.53756 0.0
H542 H 0.28606 0.67138 0.49543 0.0
H543 H 0.27535 0.6079 0.5033 0.0
H544 H 0.35806 0.73949 0.55309 0.0
H545 H 0.29868 0.7429 0.54837 0.0
H546 H 0.205 0.57098 0.52543 0.0
H547 H 0.21429 0.63334 0.50834 0.0
Li548 Li 0.66366 0.28472 0.74405 0.0
Li549 Li 0.6278 0.25688 0.76109 0.0
Li550 Li 0.63271 0.2558 0.72713 0.0
Li551 Li 0.62847 0.28402 0.73969 0.0
C552 C 0.6528 0.23632 0.73985 0.0
N553 N 0.65667 0.2033 0.72313 0.0
C554 C 0.63554 0.21481 0.74093 0.0
C555 C 0.67208 0.24103 0.73039 0.0
C556 C 0.63779 0.19835 0.73234 0.0
C557 C 0.67372 0.22411 0.72201 0.0
C558 C 0.64374 0.30615 0.7705 0.0
C559 C 0.62463 0.31975 0.78917 0.0
N560 N 0.63919 0.34031 0.78343 0.0
C561 C 0.65854 0.3274 0.76481 0.0
C562 C 0.62665 0.30225 0.78279 0.0
C563 C 0.65595 0.34445 0.7715 0.0
C564 C 0.70167 0.31257 0.76439 0.0
N565 N 0.69459 0.30251 0.74747 0.0
C566 C 0.73164 0.31795 0.73665 0.0
C567 C 0.70901 0.3049 0.73367 0.0
C568 C 0.73943 0.3287 0.75396 0.0
C569 C 0.72409 0.32586 0.76792 0.0
H570 H 0.68987 0.3102 0.7752 0.0
H571 H 0.70297 0.29659 0.7204 0.0
C572 C 0.60104 0.21964 0.78343 0.0
N573 N 0.61686 0.24104 0.78382 0.0
C574 C 0.59247 0.2083 0.80019 0.0
C575 C 0.61665 0.24122 0.81737 0.0
C576 C 0.62492 0.25184 0.80031 0.0
C577 C 0.60011 0.2192 0.81744 0.0
H578 H 0.59474 0.21153 0.77011 0.0
H579 H 0.63762 0.26881 0.80019 0.0
C580 C 0.64823 0.28813 0.70166 0.0
N581 N 0.64351 0.28904 0.66322 0.0
C582 C 0.62774 0.28212 0.69392 0.0
C583 C 0.66638 0.29484 0.68986 0.0
C584 C 0.62566 0.28262 0.67446 0.0
C585 C 0.66364 0.29514 0.67046 0.0
C586 C 0.58591 0.24842 0.74241 0.0
C587 C 0.57371 0.24609 0.72622 0.0
C588 C 0.57624 0.24622 0.76006 0.0
C589 C 0.55221 0.24197 0.72796 0.0
C590 C 0.55467 0.24205 0.76121 0.0
N591 N 0.54321 0.24006 0.74527 0.0
C592 C 0.6031 0.22034 0.70511 0.0
C593 C 0.63922 0.23823 0.6927 0.0
C594 C 0.59523 0.20686 0.68935 0.0
N595 N 0.62462 0.23604 0.70627 0.0
C596 C 0.63207 0.22496 0.6767 0.0
C597 C 0.60968 0.20939 0.6747 0.0
H598 H 0.59192 0.21855 0.71627 0.0
H599 H 0.65632 0.25066 0.69407 0.0
C600 C 0.62884 0.32038 0.72343 0.0
N601 N 0.61722 0.30346 0.73533 0.0
C602 C 0.62114 0.3344 0.71873 0.0
C603 C 0.59008 0.31394 0.73921 0.0
C604 C 0.59853 0.30051 0.74368 0.0
C605 C 0.60126 0.33094 0.72637 0.0
H606 H 0.64401 0.32289 0.71737 0.0
H607 H 0.59011 0.28781 0.75385 0.0
O608 O 0.65067 0.25272 0.74773 0.0
O609 O 0.6456 0.28918 0.76363 0.0
O610 O 0.65044 0.28728 0.72069 0.0
O611 O 0.60689 0.2521 0.74097 0.0
H612 H 0.62044 0.21091 0.74807 0.0
H613 H 0.68559 0.25758 0.72943 0.0
H614 H 0.62449 0.18164 0.73294 0.0
H615 H 0.68851 0.22754 0.71457 0.0
H616 H 0.61142 0.31698 0.79861 0.0
H617 H 0.67171 0.33063 0.75513 0.0
H618 H 0.61489 0.28586 0.78714 0.0
H619 H 0.66721 0.36097 0.76714 0.0
H620 H 0.74288 0.31979 0.72546 0.0
H621 H 0.72937 0.33354 0.78157 0.0
H622 H 0.57959 0.19138 0.79968 0.0
H623 H 0.62314 0.25013 0.83038 0.0
H624 H 0.61362 0.27712 0.70287 0.0
H625 H 0.68238 0.29966 0.69559 0.0
H626 H 0.60987 0.27791 0.66829 0.0
H627 H 0.67753 0.30019 0.66115 0.0
H628 H 0.58067 0.24728 0.71243 0.0
H629 H 0.58537 0.24815 0.77277 0.0
H630 H 0.54263 0.24021 0.71554 0.0
H631 H 0.54708 0.2405 0.77477 0.0
H632 H 0.57793 0.19475 0.68853 0.0
H633 H 0.64374 0.22743 0.6657 0.0
H634 H 0.6303 0.34738 0.7088 0.0
H635 H 0.57495 0.31106 0.74574 0.0
Li636 Li 0.3934 0.63534 0.92818 0.0
Li637 Li 0.39663 0.66749 0.91215 0.0
Li638 Li 0.36388 0.63011 0.90764 0.0
Li639 Li 0.39869 0.63918 0.89299 0.0
C640 C 0.37106 0.649 0.94964 0.0
N641 N 0.3654 0.65047 0.98794 0.0
C642 C 0.38086 0.66897 0.9591 0.0
C643 C 0.35815 0.6298 0.95963 0.0
C644 C 0.37786 0.66937 0.97847 0.0
C645 C 0.35556 0.63087 0.979 0.0
C646 C 0.44025 0.67395 0.9131 0.0
C647 C 0.47212 0.70086 0.89622 0.0
N648 N 0.484 0.7063 0.91237 0.0
C649 C 0.45291 0.67962 0.92947 0.0
C650 C 0.45004 0.6845 0.89629 0.0
C651 C 0.47493 0.69608 0.92884 0.0
C652 C 0.40021 0.60676 0.9513 0.0
N653 N 0.4021 0.62671 0.95036 0.0
C654 C 0.42018 0.63667 0.98012 0.0
C655 C 0.41167 0.64151 0.96444 0.0
C656 C 0.41906 0.61644 0.9813 0.0
C657 C 0.40855 0.60121 0.96678 0.0
H658 H 0.39283 0.59539 0.93978 0.0
H659 H 0.41332 0.65738 0.96324 0.0
C660 C 0.39346 0.70504 0.90723 0.0
N661 N 0.40609 0.69772 0.91504 0.0
C662 C 0.39914 0.72679 0.90932 0.0
C663 C 0.43062 0.73307 0.92763 0.0
C664 C 0.42429 0.7112 0.92522 0.0
C665 C 0.41795 0.74116 0.91967 0.0
H666 H 0.37884 0.69389 0.89948 0.0
H667 H 0.43372 0.70494 0.93178 0.0
C668 C 0.36178 0.59235 0.9055 0.0
N669 N 0.32597 0.55125 0.89994 0.0
C670 C 0.35704 0.58304 0.88756 0.0
C671 C 0.34848 0.58065 0.92065 0.0
C672 C 0.33882 0.56227 0.88503 0.0
C673 C 0.3304 0.55993 0.91755 0.0
C674 C 0.38539 0.66328 0.87136 0.0
C675 C 0.37078 0.65413 0.85631 0.0
C676 C 0.40471 0.68325 0.86897 0.0
C677 C 0.37601 0.66483 0.83904 0.0
C678 C 0.40936 0.69347 0.8515 0.0
N679 N 0.39505 0.6841 0.837 0.0
C680 C 0.3189 0.61334 0.91746 0.0
C681 C 0.3253 0.60645 0.88616 0.0
C682 C 0.29639 0.60371 0.91392 0.0
N683 N 0.33284 0.61471 0.90358 0.0
C684 C 0.303 0.59701 0.88193 0.0
C685 C 0.2883 0.59581 0.89585 0.0
H686 H 0.3253 0.62023 0.93113 0.0
H687 H 0.33668 0.60754 0.87545 0.0
C688 C 0.43286 0.63658 0.87472 0.0
N689 N 0.41254 0.63391 0.87213 0.0
C690 C 0.44394 0.63357 0.8598 0.0
C691 C 0.4124 0.62362 0.84006 0.0
C692 C 0.40208 0.62723 0.8553 0.0
C693 C 0.43373 0.62712 0.84218 0.0
H694 H 0.44054 0.64118 0.88839 0.0
H695 H 0.38569 0.62461 0.85372 0.0
O696 O 0.37397 0.64829 0.93069 0.0
O697 O 0.41861 0.65782 0.91351 0.0
O698 O 0.37928 0.61285 0.9082 0.0
O699 O 0.38049 0.65298 0.8884 0.0
H700 H 0.39074 0.68401 0.9516 0.0
H701 H 0.35032 0.61423 0.95254 0.0
H702 H 0.38544 0.6847 0.98598 0.0
H703 H 0.34573 0.61613 0.98692 0.0
H704 H 0.47984 0.70914 0.88329 0.0
H705 H 0.44581 0.67151 0.94257 0.0
H706 H 0.44085 0.67986 0.88332 0.0
H707 H 0.48483 0.70072 0.94145 0.0
H708 H 0.42786 0.6488 0.9911 0.0
H709 H 0.40752 0.58551 0.96702 0.0
H710 H 0.38862 0.73214 0.90324 0.0
H711 H 0.4453 0.74352 0.93564 0.0
H712 H 0.3672 0.59183 0.8757 0.0
H713 H 0.35206 0.5875 0.93465 0.0
H714 H 0.33488 0.55492 0.87119 0.0
H715 H 0.3199 0.55074 0.92913 0.0
H716 H 0.35559 0.63888 0.85787 0.0
H717 H 0.41592 0.69096 0.88051 0.0
H718 H 0.36491 0.65782 0.82726 0.0
H719 H 0.42431 0.7089 0.8495 0.0
H720 H 0.28556 0.60324 0.92497 0.0
H721 H 0.29733 0.5909 0.86787 0.0
H722 H 0.46027 0.63611 0.86201 0.0
H723 H 0.40401 0.6186 0.82667 0.0
Li724 Li 0.74736 0.39675 0.07852 0.0
Li725 Li 0.77467 0.39192 0.09267 0.0
Li726 Li 0.77407 0.39481 0.05885 0.0
Li727 Li 0.74599 0.36076 0.07508 0.0
C728 C 0.77831 0.43587 0.07906 0.0
N729 N 0.77353 0.47202 0.08169 0.0
C730 C 0.77594 0.44334 0.09663 0.0
C731 C 0.77831 0.44685 0.06285 0.0
C732 C 0.77352 0.46162 0.09766 0.0
C733 C 0.77587 0.46509 0.06447 0.0
C734 C 0.74259 0.36916 0.11651 0.0
C735 C 0.73692 0.3424 0.13989 0.0
N736 N 0.74314 0.35787 0.15352 0.0
C737 C 0.74884 0.38477 0.13077 0.0
C738 C 0.73653 0.34779 0.12111 0.0
C739 C 0.74906 0.37875 0.14938 0.0
C740 C 0.72194 0.41582 0.06655 0.0
N741 N 0.72846 0.40873 0.08156 0.0
C742 C 0.70812 0.41844 0.10243 0.0
C743 C 0.72169 0.40974 0.09924 0.0
C744 C 0.70115 0.42593 0.08723 0.0
C745 C 0.70819 0.4245 0.06907 0.0
H746 H 0.72744 0.41478 0.05262 0.0
H747 H 0.72682 0.40377 0.1109 0.0
C748 C 0.80848 0.42036 0.11738 0.0
N749 N 0.79448 0.39901 0.11347 0.0
C750 C 0.82285 0.4264 0.13259 0.0
C751 C 0.80894 0.38835 0.13901 0.0
C752 C 0.7947 0.38305 0.12374 0.0
C753 C 0.82309 0.41029 0.14371 0.0
H754 H 0.80858 0.43276 0.10865 0.0
H755 H 0.78367 0.36617 0.12018 0.0
C756 C 0.73876 0.37648 0.03664 0.0
N757 N 0.73436 0.37276 0.99803 0.0
C758 C 0.73015 0.35612 0.02798 0.0
C759 C 0.74495 0.39491 0.02567 0.0
C760 C 0.72809 0.35459 0.00844 0.0
C761 C 0.74267 0.39271 0.00617 0.0
C762 C 0.79741 0.37457 0.07719 0.0
C763 C 0.81704 0.39416 0.07442 0.0
C764 C 0.79795 0.35665 0.08444 0.0
C765 C 0.83694 0.39547 0.07891 0.0
C766 C 0.81819 0.35861 0.08875 0.0
N767 N 0.8371 0.37782 0.08592 0.0
C768 C 0.80806 0.42395 0.03359 0.0
C769 C 0.78895 0.38664 0.02513 0.0
C770 C 0.82198 0.42891 0.01805 0.0
N771 N 0.7919 0.40309 0.03676 0.0
C772 C 0.8023 0.39086 0.0094 0.0
C773 C 0.81931 0.4122 0.00577 0.0
H774 H 0.81065 0.43663 0.04343 0.0
H775 H 0.77641 0.37011 0.02828 0.0
C776 C 0.70613 0.3207 0.07563 0.0
N777 N 0.72801 0.33019 0.07215 0.0
C778 C 0.69227 0.29849 0.07228 0.0
C779 C 0.72379 0.29623 0.06204 0.0
C780 C 0.73702 0.31851 0.06551 0.0
C781 C 0.70105 0.28597 0.06527 0.0
H782 H 0.69943 0.3305 0.08076 0.0
H783 H 0.7544 0.32661 0.06244 0.0
O784 O 0.78003 0.41759 0.07774 0.0
O785 O 0.74237 0.37473 0.09816 0.0
O786 O 0.74113 0.37833 0.05575 0.0
O787 O 0.77774 0.37315 0.07332 0.0
H788 H 0.77556 0.43489 0.10932 0.0
H789 H 0.7799 0.44124 0.04913 0.0
H790 H 0.77151 0.46746 0.11115 0.0
H791 H 0.77573 0.47367 0.05202 0.0
H792 H 0.73234 0.32594 0.14363 0.0
H793 H 0.75393 0.40147 0.12752 0.0
H794 H 0.73173 0.33549 0.11032 0.0
H795 H 0.75404 0.39071 0.16052 0.0
H796 H 0.70278 0.41888 0.11662 0.0
H797 H 0.70327 0.43019 0.05698 0.0
H798 H 0.83384 0.44351 0.1355 0.0
H799 H 0.80858 0.37543 0.14725 0.0
H800 H 0.72517 0.34166 0.03621 0.0
H801 H 0.75178 0.4108 0.03208 0.0
H802 H 0.72153 0.33895 0.00155 0.0
H803 H 0.74757 0.40687 0.9975 0.0
H804 H 0.8169 0.40831 0.06915 0.0
H805 H 0.78288 0.34146 0.08695 0.0
H806 H 0.85226 0.41055 0.0769 0.0
H807 H 0.81886 0.34489 0.09443 0.0
H808 H 0.83511 0.44552 0.01605 0.0
H809 H 0.79938 0.37747 1.00025 0.0
H810 H 0.67486 0.2912 0.07508 0.0
H811 H 0.73118 0.28728 0.05634 0.0
Li812 Li 0.40312 0.77569 0.25791 0.0
Li813 Li 0.36737 0.7516 0.2446 0.0
Li814 Li 0.39848 0.74778 0.23577 0.0
Li815 Li 0.39617 0.7785 0.22508 0.0
C816 C 0.39428 0.73563 0.27283 0.0
N817 N 0.41324 0.71929 0.29671 0.0
C818 C 0.38107 0.71724 0.28366 0.0
C819 C 0.41714 0.74573 0.27416 0.0
C820 C 0.39097 0.70922 0.29565 0.0
C821 C 0.42641 0.73722 0.28631 0.0
C822 C 0.37307 0.78947 0.26147 0.0
C823 C 0.36213 0.8138 0.27476 0.0
N824 N 0.35458 0.80105 0.29029 0.0
C825 C 0.36518 0.77659 0.27756 0.0
C826 C 0.37152 0.80822 0.26004 0.0
C827 C 0.3559 0.78272 0.29197 0.0
C828 C 0.43418 0.81329 0.27759 0.0
N829 N 0.418 0.79223 0.2798 0.0
C830 C 0.42288 0.79515 0.3131 0.0
C831 C 0.41198 0.78315 0.29714 0.0
C832 C 0.43978 0.81684 0.31124 0.0
C833 C 0.44527 0.82604 0.29325 0.0
H834 H 0.43844 0.82016 0.26364 0.0
H835 H 0.39867 0.76659 0.29864 0.0
C836 C 0.32842 0.71455 0.25551 0.0
N837 N 0.33665 0.73542 0.24982 0.0
C838 C 0.30649 0.70209 0.26103 0.0
C839 C 0.30169 0.73264 0.25413 0.0
C840 C 0.32374 0.74452 0.24875 0.0
C841 C 0.29286 0.71121 0.26064 0.0
H842 H 0.33908 0.70774 0.25615 0.0
H843 H 0.33064 0.76113 0.24409 0.0
C844 C 0.4374 0.78293 0.22238 0.0
N845 N 0.46795 0.79136 0.19446 0.0
C846 C 0.43106 0.77087 0.20569 0.0
C847 C 0.45927 0.79926 0.22488 0.0
C848 C 0.44674 0.77538 0.19175 0.0
C849 C 0.47447 0.80327 0.2106 0.0
C850 C 0.36009 0.74512 0.20649 0.0
C851 C 0.35205 0.72853 0.19302 0.0
C852 C 0.35203 0.75948 0.20707 0.0
C853 C 0.33602 0.72653 0.18037 0.0
C854 C 0.33601 0.75695 0.19418 0.0
N855 N 0.3284 0.74066 0.18121 0.0
C856 C 0.38946 0.70727 0.22282 0.0
C857 C 0.42624 0.72889 0.2332 0.0
C858 C 0.3927 0.68983 0.21916 0.0
N859 N 0.40605 0.72622 0.22983 0.0
C860 C 0.43016 0.71174 0.22992 0.0
C861 C 0.41316 0.69174 0.223 0.0
H862 H 0.37356 0.70562 0.22033 0.0
H863 H 0.43917 0.74415 0.23881 0.0
C864 C 0.40797 0.81918 0.2095 0.0
N865 N 0.4028 0.79856 0.20503 0.0
C866 C 0.41237 0.83438 0.19535 0.0
C867 C 0.40641 0.8069 0.17227 0.0
C868 C 0.40202 0.79222 0.18686 0.0
C869 C 0.41154 0.82828 0.17642 0.0
H870 H 0.40856 0.82378 0.22408 0.0
H871 H 0.39776 0.77568 0.18366 0.0
O872 O 0.38476 0.74352 0.26092 0.0
O873 O 0.38228 0.7839 0.24713 0.0
O874 O 0.42239 0.77895 0.23627 0.0
O875 O 0.37582 0.74721 0.21891 0.0
H876 H 0.36335 0.70924 0.28282 0.0
H877 H 0.42765 0.76 0.26594 0.0
H878 H 0.38094 0.69499 0.30411 0.0
H879 H 0.44407 0.74487 0.28747 0.0
H880 H 0.36084 0.82828 0.27383 0.0
H881 H 0.36611 0.76196 0.27893 0.0
H882 H 0.37751 0.81834 0.24766 0.0
H883 H 0.34973 0.77289 0.30449 0.0
H884 H 0.41797 0.78762 0.32679 0.0
H885 H 0.45823 0.84275 0.29132 0.0
H886 H 0.3005 0.68575 0.26615 0.0
H887 H 0.29172 0.74023 0.25335 0.0
H888 H 0.41422 0.75818 0.20348 0.0
H889 H 0.46442 0.80873 0.23773 0.0
H890 H 0.44206 0.76619 0.17876 0.0
H891 H 0.49146 0.81587 0.21234 0.0
H892 H 0.35817 0.71731 0.19234 0.0
H893 H 0.35811 0.77252 0.21729 0.0
H894 H 0.32966 0.71375 0.16987 0.0
H895 H 0.32964 0.76796 0.19448 0.0
H896 H 0.37923 0.67498 0.21341 0.0
H897 H 0.44614 0.71396 0.23325 0.0
H898 H 0.41651 0.85075 0.19918 0.0
H899 H 0.4053 0.80142 0.15789 0.0
H900 H 0.17896 0.60467 0.28544 0.0
H901 H 0.16466 0.64573 0.32108 0.0
H902 H 0.19811 0.67808 0.30965 0.0
H903 H 0.23591 0.63271 0.2942 0.0
H904 H 0.24359 0.62951 0.27074 0.0
H905 H 0.2172 0.60972 0.28001 0.0
H906 H 0.19797 0.61572 0.25163 0.0
H907 H 0.22433 0.63553 0.24223 0.0
H908 H 0.2036 0.6428 0.24634 0.0
H909 H 0.23449 0.70574 0.29631 0.0
H910 H 0.27146 0.7266 0.28237 0.0
H911 H 0.26266 0.66765 0.25586 0.0
C912 C 0.18275 0.62045 0.2908 0.0
C913 C 0.16893 0.62255 0.30407 0.0
C914 C 0.17458 0.64361 0.31059 0.0
C915 C 0.19367 0.66213 0.30427 0.0
C916 C 0.20703 0.65941 0.29143 0.0
C917 C 0.20183 0.63911 0.28474 0.0
C918 C 0.21967 0.64054 0.27186 0.0
C919 C 0.22968 0.62734 0.27968 0.0
C920 C 0.21086 0.63322 0.25183 0.0
C921 C 0.23591 0.66476 0.2727 0.0
C922 C 0.22819 0.67537 0.28389 0.0
C923 C 0.2406 0.69766 0.28733 0.0
C924 C 0.26156 0.7094 0.27925 0.0
C925 C 0.26997 0.69883 0.26792 0.0
C926 C 0.25678 0.67622 0.26451 0.0
H927 H 0.57395 0.17728 0.47256 0.0
H928 H 0.61118 0.16262 0.43239 0.0
H929 H 0.62151 0.19671 0.4156 0.0
H930 H 0.55382 0.20236 0.43858 0.0
H931 H 0.55612 0.2225 0.45531 0.0
H932 H 0.55028 0.19612 0.4633 0.0
H933 H 0.584 0.21453 0.48544 0.0
H934 H 0.59004 0.24091 0.47744 0.0
H935 H 0.61067 0.23313 0.47581 0.0
H936 H 0.63055 0.23384 0.40493 0.0
H937 H 0.63619 0.27072 0.40021 0.0
H938 H 0.59204 0.26067 0.44655 0.0
C939 C 0.5838 0.18093 0.45995 0.0
C940 C 0.59176 0.16724 0.45382 0.0
C941 C 0.60507 0.17294 0.43749 0.0
C942 C 0.61092 0.19221 0.42779 0.0
C943 C 0.60319 0.20554 0.43447 0.0
C944 C 0.58972 0.20006 0.45005 0.0
C945 C 0.58444 0.21771 0.4548 0.0
C946 C 0.55969 0.20916 0.45288 0.0
C947 C 0.59279 0.22712 0.47454 0.0
C948 C 0.5974 0.23416 0.43967 0.0
C949 C 0.60807 0.22681 0.42807 0.0
C950 C 0.62205 0.23965 0.41375 0.0
C951 C 0.62525 0.26058 0.41124 0.0
C952 C 0.61444 0.26841 0.42294 0.0
C953 C 0.60019 0.25491 0.43721 0.0
H954 H 0.43264 0.60576 0.64425 0.0
H955 H 0.4255 0.55638 0.60433 0.0
H956 H 0.39624 0.55947 0.58795 0.0
H957 H 0.37553 0.58839 0.6477 0.0
H958 H 0.38004 0.6156 0.6497 0.0
H959 H 0.40063 0.60973 0.6579 0.0
H960 H 0.42962 0.64002 0.63649 0.0
H961 H 0.40913 0.64603 0.62827 0.0
H962 H 0.42429 0.63944 0.61168 0.0
H963 H 0.36788 0.56846 0.57585 0.0
H964 H 0.34192 0.58153 0.56976 0.0
H965 H 0.36783 0.62472 0.61795 0.0
C966 C 0.4251 0.59576 0.63193 0.0
C967 C 0.43144 0.58095 0.62544 0.0
C968 C 0.42083 0.56779 0.60954 0.0
C969 C 0.40427 0.5695 0.60013 0.0
C970 C 0.39844 0.58432 0.60691 0.0
C971 C 0.40849 0.59714 0.6225 0.0
C972 C 0.39895 0.61144 0.62726 0.0
C973 C 0.38814 0.60595 0.6468 0.0
C974 C 0.41655 0.63567 0.62583 0.0
C975 C 0.38199 0.60475 0.61187 0.0
C976 C 0.38197 0.58917 0.6002 0.0
C977 C 0.36776 0.58066 0.58491 0.0
C978 C 0.35316 0.58824 0.58151 0.0
C979 C 0.3528 0.60408 0.59342 0.0
C980 C 0.36749 0.61239 0.60875 0.0
H981 H 0.84651 0.42967 0.79782 0.0
H982 H 0.8835 0.39938 0.77932 0.0
H983 H 0.85 0.36977 0.76428 0.0
H984 H 0.79798 0.38109 0.80951 0.0
H985 H 0.77969 0.39023 0.80173 0.0
H986 H 0.80684 0.40968 0.80982 0.0
H987 H 0.81491 0.43053 0.77837 0.0
H988 H 0.78771 0.41119 0.7702 0.0
H989 H 0.81136 0.41616 0.75655 0.0
H990 H 0.81192 0.34287 0.7521 0.0
H991 H 0.77233 0.32035 0.74477 0.0
H992 H 0.76063 0.36847 0.77155 0.0
C993 C 0.84769 0.41704 0.79028 0.0
C994 C 0.86765 0.41692 0.78955 0.0
C995 C 0.86836 0.39976 0.78003 0.0
C996 C 0.84945 0.38295 0.77139 0.0
C997 C 0.82998 0.38351 0.77249 0.0
C998 C 0.829 0.40012 0.78173 0.0
C999 C 0.8059 0.39644 0.78174 0.0
C1000 C 0.79709 0.39422 0.8019 0.0
C1001 C 0.80492 0.41466 0.77107 0.0
C1002 C 0.79395 0.37506 0.7712 0.0
C1003 C 0.80812 0.36793 0.76583 0.0
C1004 C 0.80071 0.34837 0.75615 0.0
C1005 C 0.77822 0.33574 0.75197 0.0
C1006 C 0.76337 0.34263 0.7576 0.0
C1007 C 0.7715 0.36265 0.76722 0.0
H1008 H 0.45586 0.85033 0.97844 0.0
H1009 H 0.4415 0.87668 0.92926 0.0
H1010 H 0.43267 0.84333 0.91138 0.0
H1011 H 0.48009 0.82213 0.9537 0.0
H1012 H 0.46791 0.79925 0.96945 0.0
H1013 H 0.47476 0.82588 0.97781 0.0
H1014 H 0.43459 0.81057 0.98894 0.0
H1015 H 0.4276 0.78394 0.98055 0.0
H1016 H 0.41246 0.79649 0.97238 0.0
H1017 H 0.42382 0.8064 0.89938 0.0
H1018 H 0.41523 0.76859 0.89419 0.0
H1019 H 0.43421 0.76606 0.95167 0.0
C1020 C 0.45132 0.84927 0.96378 0.0
C1021 C 0.44953 0.86613 0.95516 0.0
C1022 C 0.44296 0.86391 0.93611 0.0
C1023 C 0.43799 0.84509 0.92585 0.0
C1024 C 0.43962 0.82863 0.93486 0.0
C1025 C 0.44614 0.83054 0.9534 0.0
C1026 C 0.44537 0.81001 0.96011 0.0
C1027 C 0.4684 0.8146 0.96559 0.0
C1028 C 0.42903 0.79965 0.97646 0.0
C1029 C 0.43719 0.79616 0.94252 0.0
C1030 C 0.43413 0.80724 0.92807 0.0
C1031 C 0.4262 0.79759 0.91058 0.0
C1032 C 0.42121 0.77604 0.90782 0.0
C1033 C 0.424 0.76427 0.92251 0.0
C1034 C 0.43222 0.77464 0.94004 0.0
H1035 H 0.65075 0.4868 0.14496 0.0
H1036 H 0.59556 0.4582 0.10651 0.0
H1037 H 0.61422 0.44307 0.08748 0.0
H1038 H 0.69429 0.50003 0.11006 0.0
H1039 H 0.70968 0.49287 0.1257 0.0
H1040 H 0.69295 0.50322 0.13508 0.0
H1041 H 0.67233 0.46901 0.156 0.0
H1042 H 0.68889 0.45851 0.14664 0.0
H1043 H 0.65937 0.44241 0.14524 0.0
H1044 H 0.63813 0.42947 0.07367 0.0
H1045 H 0.66455 0.41711 0.06696 0.0
H1046 H 0.70368 0.45406 0.11491 0.0
C1047 C 0.64285 0.47778 0.13228 0.0
C1048 C 0.62185 0.47385 0.12704 0.0
C1049 C 0.61169 0.46142 0.11069 0.0
C1050 C 0.6222 0.45286 0.09979 0.0
C1051 C 0.64279 0.45679 0.10549 0.0
C1052 C 0.65299 0.46893 0.12138 0.0
C1053 C 0.67436 0.46945 0.12525 0.0
C1054 C 0.69398 0.49278 0.12394 0.0
C1055 C 0.67368 0.45923 0.14442 0.0
C1056 C 0.67445 0.45545 0.10922 0.0
C1057 C 0.65626 0.44852 0.09783 0.0
C1058 C 0.65253 0.43494 0.08241 0.0
C1059 C 0.66766 0.42808 0.07866 0.0
C1060 C 0.68616 0.43462 0.0904 0.0
C1061 C 0.68963 0.44868 0.10574 0.0
H1062 H 0.43657 0.86127 0.53349 0.0
H1063 H 0.40157 0.86977 0.48727 0.0
H1064 H 0.36839 0.83521 0.49548 0.0
H1065 H 0.41485 0.80517 0.52685 0.0
H1066 H 0.41303 0.7987 0.55147 0.0
H1067 H 0.43336 0.8253 0.5434 0.0
H1068 H 0.41846 0.84303 0.56654 0.0
H1069 H 0.39815 0.81646 0.57479 0.0
H1070 H 0.38974 0.83484 0.56598 0.0
H1071 H 0.34005 0.79823 0.50681 0.0
H1072 H 0.31834 0.76188 0.52094 0.0
H1073 H 0.37164 0.7772 0.55981 0.0
C1074 C 0.42188 0.85599 0.52518 0.0
C1075 C 0.42172 0.86841 0.50979 0.0
C1076 C 0.40207 0.86087 0.49936 0.0
C1077 C 0.38313 0.84114 0.50383 0.0
C1078 C 0.38404 0.82912 0.51881 0.0
C1079 C 0.40285 0.8363 0.52941 0.0
C1080 C 0.39981 0.81975 0.54418 0.0
C1081 C 0.41624 0.81176 0.54129 0.0
C1082 C 0.40164 0.82908 0.56405 0.0
C1083 C 0.37652 0.80193 0.53994 0.0
C1084 C 0.36767 0.80774 0.52535 0.0
C1085 C 0.34669 0.79363 0.51844 0.0
C1086 C 0.33443 0.77302 0.52664 0.0
C1087 C 0.34315 0.76664 0.54161 0.0
C1088 C 0.36448 0.78146 0.54834 0.0
H1089 H 0.60363 0.43974 0.6958 0.0
H1090 H 0.53625 0.39875 0.67691 0.0
H1091 H 0.536 0.36678 0.69009 0.0
H1092 H 0.62092 0.40286 0.68244 0.0
H1093 H 0.63949 0.40925 0.70193 0.0
H1094 H 0.63359 0.42944 0.69321 0.0
H1095 H 0.62122 0.43377 0.72648 0.0
H1096 H 0.6271 0.41358 0.73531 0.0
H1097 H 0.60016 0.41015 0.73848 0.0
H1098 H 0.54356 0.33879 0.70375 0.0
H1099 H 0.55906 0.31676 0.71556 0.0
H1100 H 0.62222 0.37545 0.72336 0.0
C1101 C 0.58875 0.42411 0.69439 0.0
C1102 C 0.56988 0.42202 0.68539 0.0
C1103 C 0.55078 0.4011 0.68413 0.0
C1104 C 0.5505 0.38272 0.69146 0.0
C1105 C 0.56949 0.38538 0.69991 0.0
C1106 C 0.5883 0.40553 0.70132 0.0
C1107 C 0.60701 0.40375 0.70982 0.0
C1108 C 0.62639 0.4118 0.69603 0.0
C1109 C 0.6143 0.41604 0.72864 0.0
C1110 C 0.59587 0.37939 0.71267 0.0
C1111 C 0.57412 0.36914 0.70713 0.0
C1112 C 0.56053 0.34665 0.70822 0.0
C1113 C 0.56944 0.33429 0.715 0.0
C1114 C 0.5918 0.34442 0.72038 0.0
C1115 C 0.6051 0.36728 0.71927 0.0
H1116 H 0.18981 0.59264 0.83873 0.0
H1117 H 0.14452 0.54388 0.87765 0.0
H1118 H 0.17589 0.54472 0.89415 0.0
H1119 H 0.22751 0.57218 0.83542 0.0
H1120 H 0.25142 0.59896 0.83384 0.0
H1121 H 0.22536 0.59413 0.82515 0.0
H1122 H 0.22819 0.62503 0.84653 0.0
H1123 H 0.25424 0.62995 0.85529 0.0
H1124 H 0.23223 0.62417 0.87144 0.0
H1125 H 0.21281 0.55288 0.90744 0.0
H1126 H 0.25179 0.56574 0.91506 0.0
H1127 H 0.27223 0.60786 0.8664 0.0
C1128 C 0.18652 0.58215 0.85074 0.0
C1129 C 0.16482 0.5683 0.85705 0.0
C1130 C 0.16107 0.55456 0.87261 0.0
C1131 C 0.17876 0.55499 0.88207 0.0
C1132 C 0.20002 0.56903 0.87558 0.0
C1133 C 0.2039 0.58217 0.86013 0.0
C1134 C 0.22818 0.59571 0.85583 0.0
C1135 C 0.23342 0.58989 0.83641 0.0
C1136 C 0.23617 0.62016 0.85737 0.0
C1137 C 0.23745 0.5884 0.87142 0.0
C1138 C 0.22101 0.57308 0.88275 0.0
C1139 C 0.22578 0.56468 0.89854 0.0
C1140 C 0.24791 0.5721 0.9028 0.0
C1141 C 0.26492 0.58757 0.89119 0.0
C1142 C 0.25952 0.5957 0.8753 0.0
H1143 H 0.59708 0.18404 0.01904 0.0
H1144 H 0.62444 0.14415 0.03611 0.0
H1145 H 0.65561 0.17633 0.05107 0.0
H1146 H 0.64744 0.23139 0.00806 0.0
H1147 H 0.63918 0.24999 0.01683 0.0
H1148 H 0.61885 0.2237 0.008 0.0
H1149 H 0.59771 0.21531 0.03955 0.0
H1150 H 0.61797 0.24161 0.04848 0.0
H1151 H 0.61187 0.21736 0.06118 0.0
H1152 H 0.68438 0.2134 0.06343 0.0
H1153 H 0.70811 0.25208 0.07232 0.0
H1154 H 0.66126 0.26708 0.04735 0.0
C1155 C 0.60938 0.18191 0.02621 0.0
C1156 C 0.60822 0.16149 0.02648 0.0
C1157 C 0.62504 0.15964 0.0356 0.0
C1158 C 0.64274 0.1778 0.04422 0.0
C1159 C 0.64336 0.19767 0.04363 0.0
C1160 C 0.62707 0.19979 0.03489 0.0
C1161 C 0.63174 0.22298 0.03581 0.0
C1162 C 0.63447 0.23257 0.016 0.0
C1163 C 0.61375 0.22439 0.04692 0.0
C1164 C 0.65328 0.23368 0.04637 0.0
C1165 C 0.65974 0.21885 0.05078 0.0
C1166 C 0.67942 0.22512 0.06012 0.0
C1167 C 0.69283 0.24713 0.06502 0.0
C1168 C 0.68649 0.26258 0.06062 0.0
C1169 C 0.66639 0.25562 0.05123 0.0
H1170 H 0.47531 0.62978 0.18857 0.0
H1171 H 0.41365 0.56947 0.19763 0.0
H1172 H 0.39795 0.59011 0.21165 0.0
H1173 H 0.47322 0.65958 0.22982 0.0
H1174 H 0.48392 0.68485 0.21725 0.0
H1175 H 0.49168 0.66526 0.2103 0.0
H1176 H 0.47808 0.66497 0.17647 0.0
H1177 H 0.47029 0.68453 0.18331 0.0
H1178 H 0.45028 0.65902 0.17286 0.0
H1179 H 0.38782 0.61705 0.22292 0.0
H1180 H 0.38353 0.64867 0.22947 0.0
H1181 H 0.45023 0.69179 0.21008 0.0
C1182 C 0.45853 0.62078 0.19352 0.0
C1183 C 0.44598 0.59777 0.19212 0.0
C1184 C 0.42407 0.58691 0.19899 0.0
C1185 C 0.41483 0.59854 0.20688 0.0
C1186 C 0.42753 0.62111 0.20767 0.0
C1187 C 0.44886 0.63216 0.2011 0.0
C1188 C 0.45828 0.65657 0.20217 0.0
C1189 C 0.47794 0.66719 0.21569 0.0
C1190 C 0.4646 0.66687 0.18254 0.0
C1191 C 0.43874 0.65745 0.21006 0.0
C1192 C 0.42131 0.63679 0.21337 0.0
C1193 C 0.40134 0.63332 0.22034 0.0
C1194 C 0.399 0.65143 0.22383 0.0
C1195 C 0.41643 0.67281 0.22009 0.0
C1196 C 0.43664 0.67575 0.21329 0.0
H1197 H 0.85481 0.45685 0.34697 0.0
H1198 H 0.88528 0.52375 0.36643 0.0
H1199 H 0.85128 0.51507 0.38344 0.0
H1200 H 0.80247 0.44913 0.33888 0.0
H1201 H 0.78762 0.42139 0.34695 0.0
H1202 H 0.81487 0.43236 0.33749 0.0
H1203 H 0.82743 0.42222 0.36805 0.0
H1204 H 0.80015 0.41109 0.37758 0.0
H1205 H 0.82342 0.43184 0.39034 0.0
H1206 H 0.81307 0.49997 0.39601 0.0
H1207 H 0.77364 0.47902 0.40434 0.0
H1208 H 0.76843 0.42166 0.37774 0.0
C1209 C 0.85455 0.46956 0.35518 0.0
C1210 C 0.87275 0.49101 0.35532 0.0
C1211 C 0.87148 0.50727 0.36591 0.0
C1212 C 0.85229 0.50246 0.37572 0.0
C1213 C 0.83453 0.48127 0.37497 0.0
C1214 C 0.83555 0.46502 0.36512 0.0
C1215 C 0.81382 0.4438 0.36593 0.0
C1216 C 0.80413 0.43624 0.34614 0.0
C1217 C 0.81637 0.4262 0.37609 0.0
C1218 C 0.80031 0.45078 0.37744 0.0
C1219 C 0.81259 0.47245 0.38256 0.0
C1220 C 0.80336 0.48292 0.39231 0.0
C1221 C 0.78098 0.47095 0.3969 0.0
C1222 C 0.7681 0.44873 0.3918 0.0
C1223 C 0.77801 0.43852 0.38212 0.0
H1224 H 0.15782 0.58997 0.41187 0.0
H1225 H 0.10287 0.5275 0.42844 0.0
H1226 H 0.11947 0.53192 0.45991 0.0
H1227 H 0.1994 0.58472 0.43615 0.0
H1228 H 0.21496 0.61306 0.44266 0.0
H1229 H 0.19862 0.60496 0.42159 0.0
H1230 H 0.17804 0.62436 0.43339 0.0
H1231 H 0.19433 0.63253 0.4545 0.0
H1232 H 0.16478 0.61739 0.45604 0.0
H1233 H 0.142 0.54361 0.48976 0.0
H1234 H 0.16879 0.5613 0.51545 0.0
H1235 H 0.20939 0.6156 0.47875 0.0
C1236 C 0.14915 0.57731 0.42218 0.0
C1237 C 0.12899 0.55844 0.41776 0.0
C1238 C 0.11839 0.54204 0.43151 0.0
C1239 C 0.12765 0.54445 0.44942 0.0
C1240 C 0.14756 0.56328 0.4533 0.0
C1241 C 0.15821 0.57939 0.44003 0.0
C1242 C 0.17957 0.59792 0.44761 0.0
C1243 C 0.1993 0.60029 0.43633 0.0
C1244 C 0.17914 0.61931 0.4479 0.0
C1245 C 0.17921 0.58982 0.46728 0.0
C1246 C 0.16064 0.56982 0.47031 0.0
C1247 C 0.15666 0.55922 0.4875 0.0
C1248 C 0.17207 0.56934 0.50198 0.0
C1249 C 0.19127 0.58986 0.49918 0.0
C1250 C 0.19479 0.60008 0.4815 0.0
H1251 H 0.60787 0.13862 0.58639 0.0
H1252 H 0.55071 0.14076 0.56666 0.0
H1253 H 0.55158 0.16071 0.59527 0.0
H1254 H 0.59494 0.13321 0.63591 0.0
H1255 H 0.62303 0.15087 0.64304 0.0
H1256 H 0.61708 0.13537 0.62159 0.0
H1257 H 0.64143 0.17083 0.60304 0.0
H1258 H 0.64744 0.18644 0.62442 0.0
H1259 H 0.63589 0.1929 0.60463 0.0
H1260 H 0.55909 0.18128 0.62551 0.0
H1261 H 0.57339 0.20195 0.65505 0.0
H1262 H 0.62679 0.18824 0.65447 0.0
C1263 C 0.59554 0.14331 0.58798 0.0
C1264 C 0.57908 0.13783 0.57421 0.0
C1265 C 0.56318 0.14419 0.5771 0.0
C1266 C 0.56363 0.15572 0.59327 0.0
C1267 C 0.58017 0.16098 0.60641 0.0
C1268 C 0.5959 0.15506 0.60393 0.0
C1269 C 0.61242 0.1635 0.61986 0.0
C1270 C 0.61182 0.14461 0.63075 0.0
C1271 C 0.63567 0.17936 0.61254 0.0
C1272 C 0.60358 0.17518 0.63162 0.0
C1273 C 0.58486 0.17336 0.62367 0.0
C1274 C 0.57369 0.18276 0.63191 0.0
C1275 C 0.58188 0.19438 0.64873 0.0
C1276 C 0.60113 0.19662 0.65709 0.0
C1277 C 0.61211 0.18689 0.64835 0.0
H1278 H 0.45041 0.56899 0.75255 0.0
H1279 H 0.51239 0.62895 0.74343 0.0
H1280 H 0.50687 0.64394 0.77265 0.0
H1281 H 0.42176 0.59558 0.76802 0.0
H1282 H 0.40519 0.57504 0.78498 0.0
H1283 H 0.41498 0.56779 0.76437 0.0
H1284 H 0.43309 0.55156 0.78534 0.0
H1285 H 0.42333 0.55875 0.80604 0.0
H1286 H 0.4522 0.56822 0.80336 0.0
H1287 H 0.49446 0.65314 0.80242 0.0
H1288 H 0.47473 0.65649 0.82984 0.0
H1289 H 0.41936 0.59227 0.81815 0.0
C1290 C 0.46289 0.58528 0.75656 0.0
C1291 C 0.48207 0.5975 0.74558 0.0
C1292 C 0.4979 0.61877 0.7517 0.0
C1293 C 0.49483 0.62761 0.76827 0.0
C1294 C 0.47569 0.61521 0.77854 0.0
C1295 C 0.45989 0.59459 0.77287 0.0
C1296 C 0.44014 0.58526 0.78586 0.0
C1297 C 0.41929 0.58066 0.77517 0.0
C1298 C 0.43702 0.56473 0.79574 0.0
C1299 C 0.44729 0.60397 0.7996 0.0
C1300 C 0.468 0.62095 0.79525 0.0
C1301 C 0.47823 0.63996 0.80597 0.0
C1302 C 0.46696 0.6417 0.82151 0.0
C1303 C 0.44557 0.62467 0.82601 0.0
C1304 C 0.43564 0.60558 0.81489 0.0
H1305 H 0.8916 0.47702 0.91655 0.0
H1306 H 0.90185 0.42247 0.90669 0.0
H1307 H 0.88194 0.40544 0.93586 0.0
H1308 H 0.89515 0.47807 0.9675 0.0
H1309 H 0.87342 0.48415 0.9706 0.0
H1310 H 0.89029 0.49319 0.94981 0.0
H1311 H 0.85547 0.4735 0.929 0.0
H1312 H 0.83851 0.46441 0.9497 0.0
H1313 H 0.83654 0.44489 0.93244 0.0
H1314 H 0.85966 0.39345 0.96535 0.0
H1315 H 0.83577 0.38692 0.99276 0.0
H1316 H 0.83748 0.44781 0.98225 0.0
C1317 C 0.88972 0.4615 0.92045 0.0
C1318 C 0.89861 0.45129 0.90926 0.0
C1319 C 0.89579 0.43101 0.91514 0.0
C1320 C 0.88432 0.42107 0.93166 0.0
C1321 C 0.87559 0.43147 0.94216 0.0
C1322 C 0.87807 0.4512 0.93679 0.0
C1323 C 0.86604 0.45835 0.95008 0.0
C1324 C 0.88219 0.47971 0.96009 0.0
C1325 C 0.84808 0.4604 0.93968 0.0
C1326 C 0.8562 0.43941 0.96363 0.0
C1327 C 0.86209 0.4242 0.95889 0.0
C1328 C 0.85487 0.40521 0.96917 0.0
C1329 C 0.84112 0.40157 0.98464 0.0
C1330 C 0.83449 0.41672 0.98963 0.0
C1331 C 0.84235 0.43598 0.97898 0.0
H1332 H 0.45466 0.88426 0.0763 0.0
H1333 H 0.42113 0.92029 0.08685 0.0
H1334 H 0.41028 0.90367 0.11834 0.0
H1335 H 0.4151 0.8354 0.09814 0.0
H1336 H 0.43482 0.82909 0.10779 0.0
H1337 H 0.44115 0.84483 0.08661 0.0
H1338 H 0.47661 0.87567 0.10195 0.0
H1339 H 0.47045 0.85995 0.12317 0.0
H1340 H 0.47483 0.88717 0.12404 0.0
H1341 H 0.40213 0.88225 0.14823 0.0
H1342 H 0.39653 0.85697 0.1741 0.0
H1343 H 0.4353 0.83481 0.14397 0.0
C1344 C 0.44535 0.88892 0.08537 0.0
C1345 C 0.43881 0.90363 0.0792 0.0
C1346 C 0.42622 0.90897 0.0913 0.0
C1347 C 0.42007 0.8997 0.10921 0.0
C1348 C 0.4266 0.88507 0.11479 0.0
C1349 C 0.43895 0.8797 0.10324 0.0
C1350 C 0.44301 0.86283 0.11228 0.0
C1351 C 0.43291 0.8418 0.1005 0.0
C1352 C 0.46769 0.87196 0.11556 0.0
C1353 C 0.43086 0.85942 0.13066 0.0
C1354 C 0.42165 0.87252 0.1319 0.0
C1355 C 0.40939 0.87202 0.14747 0.0
C1356 C 0.40638 0.85768 0.16213 0.0
C1357 C 0.41551 0.84394 0.16109 0.0
C1358 C 0.42797 0.84497 0.14513 0.0
H1359 H 0.58441 0.47519 0.26524 0.0
H1360 H 0.55412 0.41965 0.22747 0.0
H1361 H 0.55538 0.39634 0.25239 0.0
H1362 H 0.62196 0.46289 0.28547 0.0
H1363 H 0.6203 0.47189 0.30881 0.0
H1364 H 0.6148 0.48369 0.28876 0.0
H1365 H 0.57663 0.4732 0.30246 0.0
H1366 H 0.58205 0.46142 0.32262 0.0
H1367 H 0.55777 0.44531 0.30868 0.0
H1368 H 0.56362 0.38 0.28016 0.0
H1369 H 0.57668 0.37151 0.30935 0.0
H1370 H 0.60133 0.43755 0.3291 0.0
C1371 C 0.5778 0.45807 0.26228 0.0
C1372 C 0.56906 0.44923 0.24441 0.0
C1373 C 0.56054 0.42672 0.24113 0.0
C1374 C 0.56129 0.41337 0.25517 0.0
C1375 C 0.57044 0.42271 0.27248 0.0
C1376 C 0.57835 0.4445 0.27616 0.0
C1377 C 0.58834 0.45075 0.29561 0.0
C1378 C 0.6128 0.46834 0.29459 0.0
C1379 C 0.57542 0.4581 0.30808 0.0
C1380 C 0.58535 0.4292 0.30211 0.0
C1381 C 0.57491 0.41321 0.2886 0.0
C1382 C 0.57152 0.3923 0.29095 0.0
C1383 C 0.57908 0.38766 0.3075 0.0
C1384 C 0.58983 0.40382 0.3215 0.0
C1385 C 0.59276 0.42477 0.31879 0.0
H1386 H 0.47941 0.91205 0.38752 0.0
H1387 H 0.50121 0.87577 0.42115 0.0
H1388 H 0.49181 0.84941 0.39535 0.0
H1389 H 0.43318 0.86642 0.36793 0.0
H1390 H 0.43572 0.87818 0.34505 0.0
H1391 H 0.44605 0.89551 0.36543 0.0
H1392 H 0.48451 0.91691 0.34999 0.0
H1393 H 0.47427 0.89966 0.32951 0.0
H1394 H 0.49787 0.90247 0.34183 0.0
H1395 H 0.47692 0.82507 0.36748 0.0
H1396 H 0.45879 0.80507 0.33837 0.0
H1397 H 0.44695 0.85693 0.32225 0.0
C1398 C 0.48242 0.89869 0.38937 0.0
C1399 C 0.4913 0.89616 0.40633 0.0
C1400 C 0.49493 0.8784 0.40818 0.0
C1401 C 0.4895 0.86322 0.39363 0.0
C1402 C 0.48055 0.86603 0.37724 0.0
C1403 C 0.47717 0.88338 0.37492 0.0
C1404 C 0.46646 0.88203 0.35613 0.0
C1405 C 0.44402 0.88043 0.35881 0.0
C1406 C 0.48169 0.90142 0.34363 0.0
C1407 C 0.4639 0.86096 0.34848 0.0
C1408 C 0.47219 0.85204 0.3609 0.0
C1409 C 0.47063 0.83202 0.35752 0.0
C1410 C 0.46024 0.82074 0.34103 0.0
C1411 C 0.45166 0.82957 0.32809 0.0
C1412 C 0.45373 0.85004 0.33179 0.0
H1413 H 0.58324 0.44444 0.57615 0.0
H1414 H 0.58148 0.50008 0.55382 0.0
H1415 H 0.59071 0.49226 0.52223 0.0
H1416 H 0.62951 0.45233 0.54953 0.0
H1417 H 0.61951 0.42374 0.54609 0.0
H1418 H 0.61142 0.43288 0.56661 0.0
H1419 H 0.57042 0.40728 0.55824 0.0
H1420 H 0.57839 0.39795 0.53775 0.0
H1421 H 0.56053 0.40908 0.53538 0.0
H1422 H 0.60033 0.47839 0.49319 0.0
H1423 H 0.6111 0.46042 0.46904 0.0
H1424 H 0.60811 0.41478 0.5107 0.0
C1425 C 0.58447 0.45475 0.56452 0.0
C1426 C 0.58143 0.47272 0.56729 0.0
C1427 C 0.5837 0.48621 0.5519 0.0
C1428 C 0.58889 0.48186 0.53395 0.0
C1429 C 0.59197 0.46411 0.53171 0.0
C1430 C 0.58994 0.45083 0.54659 0.0
C1431 C 0.59507 0.4334 0.54064 0.0
C1432 C 0.61507 0.43574 0.55135 0.0
C1433 C 0.5749 0.41058 0.54315 0.0
C1434 C 0.6003 0.43894 0.52008 0.0
C1435 C 0.59823 0.45659 0.51516 0.0
C1436 C 0.60201 0.46457 0.49688 0.0
C1437 C 0.60804 0.45424 0.48326 0.0
C1438 C 0.61045 0.43627 0.48804 0.0
C1439 C 0.60658 0.42861 0.50672 0.0
H1440 H 0.13284 0.57375 0.72968 0.0
H1441 H 0.14802 0.63672 0.75218 0.0
H1442 H 0.17186 0.65469 0.72507 0.0
H1443 H 0.18721 0.59091 0.71479 0.0
H1444 H 0.17908 0.57415 0.69395 0.0
H1445 H 0.16118 0.56584 0.71407 0.0
H1446 H 0.12978 0.56335 0.69342 0.0
H1447 H 0.14761 0.57168 0.67321 0.0
H1448 H 0.13435 0.58668 0.68 0.0
H1449 H 0.19553 0.66623 0.69644 0.0
H1450 H 0.21815 0.67051 0.66857 0.0
H1451 H 0.19004 0.60043 0.66584 0.0
C1452 C 0.14108 0.59131 0.72895 0.0
C1453 C 0.13813 0.60368 0.7431 0.0
C1454 C 0.14931 0.62668 0.74138 0.0
C1455 C 0.16311 0.63713 0.72606 0.0
C1456 C 0.1658 0.62446 0.71256 0.0
C1457 C 0.15517 0.60207 0.71385 0.0
C1458 C 0.16198 0.59241 0.69799 0.0
C1459 C 0.17302 0.58011 0.70566 0.0
C1460 C 0.14225 0.57766 0.68541 0.0
C1461 C 0.17831 0.61292 0.68777 0.0
C1462 C 0.18008 0.63119 0.69631 0.0
C1463 C 0.19433 0.65204 0.68963 0.0
C1464 C 0.20726 0.6543 0.67387 0.0
C1465 C 0.20607 0.63584 0.66503 0.0
C1466 C 0.19121 0.61488 0.67208 0.0
H1467 H 0.56094 0.12524 0.89448 0.0
H1468 H 0.54574 0.16528 0.93054 0.0
H1469 H 0.55646 0.19226 0.90526 0.0
H1470 H 0.60859 0.16886 0.87334 0.0
H1471 H 0.60342 0.15654 0.85035 0.0
H1472 H 0.59346 0.13966 0.87091 0.0
H1473 H 0.55389 0.12064 0.85754 0.0
H1474 H 0.56375 0.13745 0.8369 0.0
H1475 H 0.542 0.13685 0.85075 0.0
H1476 H 0.57077 0.21592 0.877 0.0
H1477 H 0.5864 0.23414 0.84678 0.0
H1478 H 0.59218 0.17895 0.82867 0.0
C1479 C 0.55977 0.13963 0.89701 0.0
C1480 C 0.55229 0.14302 0.91446 0.0
C1481 C 0.55098 0.16208 0.91719 0.0
C1482 C 0.55718 0.17759 0.90295 0.0
C1483 C 0.5646 0.17383 0.886 0.0
C1484 C 0.5658 0.15529 0.88288 0.0
C1485 C 0.57473 0.15547 0.86343 0.0
C1486 C 0.59633 0.15512 0.86459 0.0
C1487 C 0.55756 0.13647 0.85145 0.0
C1488 C 0.5786 0.17714 0.85624 0.0
C1489 C 0.57267 0.18745 0.86952 0.0
C1490 C 0.57536 0.20796 0.86643 0.0
C1491 C 0.58436 0.21823 0.84929 0.0
C1492 C 0.59047 0.20795 0.83542 0.0
C1493 C 0.58741 0.18707 0.83895 0.0
H1494 H 0.42968 0.54727 0.06468 0.0
H1495 H 0.49124 0.60536 0.07923 0.0
H1496 H 0.48763 0.62403 0.05173 0.0
H1497 H 0.4357 0.55276 0.01373 0.0
H1498 H 0.40705 0.54351 0.00989 0.0
H1499 H 0.4153 0.53387 0.02985 0.0
H1500 H 0.39525 0.54715 0.05208 0.0
H1501 H 0.38699 0.55687 0.03221 0.0
H1502 H 0.40204 0.57517 0.05121 0.0
H1503 H 0.47665 0.63726 0.02386 0.0
H1504 H 0.45894 0.64417 0.99713 0.0
H1505 H 0.40357 0.57828 0.00121 0.0
C1506 C 0.44247 0.56388 0.06207 0.0
C1507 C 0.4609 0.57468 0.07411 0.0
C1508 C 0.47725 0.59644 0.07005 0.0
C1509 C 0.47528 0.6073 0.0545 0.0
C1510 C 0.45682 0.59627 0.04312 0.0
C1511 C 0.44069 0.57505 0.04666 0.0
C1512 C 0.42202 0.56733 0.03266 0.0
C1513 C 0.4199 0.54824 0.02083 0.0
C1514 C 0.4003 0.56128 0.04264 0.0
C1515 C 0.43007 0.58765 0.02088 0.0
C1516 C 0.45024 0.60408 0.02713 0.0
C1517 C 0.46086 0.62452 0.01882 0.0
C1518 C 0.45057 0.62834 0.00373 0.0
C1519 C 0.42978 0.61183 0.99714 0.0
C1520 C 0.41953 0.59117 0.0058 0.0
H1521 H 0.88313 0.47806 0.23583 0.0
H1522 H 0.91842 0.44274 0.23811 0.0
H1523 H 0.89818 0.42154 0.2101 0.0
H1524 H 0.83135 0.43373 0.22055 0.0
H1525 H 0.82561 0.45035 0.20526 0.0
H1526 H 0.84236 0.46217 0.22583 0.0
H1527 H 0.87362 0.49124 0.20515 0.0
H1528 H 0.85695 0.47954 0.18452 0.0
H1529 H 0.88393 0.48267 0.1857 0.0
H1530 H 0.87406 0.40435 0.18148 0.0
H1531 H 0.84891 0.39345 0.15423 0.0
H1532 H 0.83064 0.44103 0.17044 0.0
C1533 C 0.88683 0.46604 0.23039 0.0
C1534 C 0.90242 0.46211 0.23924 0.0
C1535 C 0.90635 0.44588 0.23177 0.0
C1536 C 0.89502 0.43382 0.2158 0.0
C1537 C 0.87985 0.43822 0.20741 0.0
C1538 C 0.87581 0.454 0.21443 0.0
C1539 C 0.85902 0.4559 0.20268 0.0
C1540 C 0.83836 0.45019 0.21428 0.0
C1541 C 0.86898 0.47869 0.194 0.0
C1542 C 0.85429 0.4388 0.18786 0.0
C1543 C 0.86633 0.42865 0.19087 0.0
C1544 C 0.86456 0.41219 0.17901 0.0
C1545 C 0.85018 0.40604 0.16363 0.0
C1546 C 0.83791 0.41645 0.1602 0.0
C1547 C 0.84001 0.43298 0.17257 0.0
loop_
_geom_bond_atom_site_label_1
_geom_bond_atom_site_label_2
_geom_bond_distance
_geom_bond_site_symmetry_2
_ccdc_geom_bond_type
H0 C27 0.929 . S
N1 C26 1.433 . S
N1 C32 1.435 . S
N1 C38 1.423 . S
H2 C28 0.930 . S
H3 C31 0.931 . S
H4 C30 0.929 . S
H5 C33 0.930 . S
H6 C34 0.932 . S
H7 C37 0.929 . S
H8 C36 0.931 . S
H9 C39 0.929 . S
H10 C43 0.932 . S
H11 C40 0.931 . S
H12 C42 0.929 . S
H13 C45 0.929 . S
H14 C46 0.930 . S
H15 C48 0.929 . S
H16 C49 0.931 . S
H17 C51 0.930 . S
H18 C52 0.932 . S
H19 C54 0.931 . S
H20 C55 0.929 . S
H21 C57 0.929 . S
H22 C58 0.931 1_455 S
H23 C60 0.929 . S
N24 C44 1.433 . S
N24 C50 1.435 . S
N24 C56 1.423 . S
H25 C61 0.932 . S
C26 N1 1.433 . S
C26 C27 1.363 . S
C26 C31 1.370 . S
C27 H0 0.929 . S
C27 C26 1.363 . S
C27 C28 1.385 . S
C28 H2 0.930 . S
C28 C27 1.385 . S
C28 C29 1.357 . S
C29 C28 1.357 . S
C29 C30 1.406 . S
C30 H4 0.929 . S
C30 C29 1.406 . S
C30 C31 1.391 . S
C31 H3 0.931 . S
C31 C26 1.370 . S
C31 C30 1.391 . S
C32 N1 1.435 . S
C32 C33 1.358 . S
C32 C37 1.371 . S
C33 H5 0.930 . S
C33 C32 1.358 . S
C33 C34 1.405 . S
C34 H6 0.932 . S
C34 C33 1.405 . S
C34 C35 1.383 . S
C35 C34 1.383 . S
C35 C36 1.393 . S
C36 H8 0.931 . S
C36 C35 1.393 . S
C36 C37 1.382 . S
C37 H7 0.929 . S
C37 C32 1.371 . S
C37 C36 1.382 . S
C38 N1 1.423 . S
C38 C39 1.362 . S
C38 C43 1.388 . S
C39 H9 0.929 . S
C39 C38 1.362 . S
C39 C40 1.376 . S
C40 H11 0.931 . S
C40 C39 1.376 . S
C40 C41 1.396 . S
C41 C40 1.396 . S
C41 C42 1.348 . S
C41 C59 1.472 . S
C42 H12 0.929 . S
C42 C41 1.348 . S
C42 C43 1.443 . S
C43 H10 0.932 . S
C43 C38 1.388 . S
C43 C42 1.443 . S
C44 N24 1.433 . S
C44 C45 1.363 . S
C44 C49 1.370 . S
C45 H13 0.929 . S
C45 C44 1.363 . S
C45 C46 1.385 . S
C46 H14 0.930 . S
C46 C45 1.385 . S
C46 C47 1.357 . S
C47 C46 1.357 . S
C47 C48 1.406 . S
C48 H15 0.929 . S
C48 C47 1.406 . S
C48 C49 1.391 . S
C49 H16 0.931 . S
C49 C44 1.370 . S
C49 C48 1.391 . S
C50 N24 1.435 . S
C50 C51 1.358 . S
C50 C55 1.371 . S
C51 H17 0.930 . S
C51 C50 1.358 . S
C51 C52 1.405 . S
C52 H18 0.932 . S
C52 C51 1.405 . S
C52 C53 1.383 . S
C53 C52 1.383 . S
C53 C54 1.393 . S
C54 H19 0.931 . S
C54 C53 1.393 . S
C54 C55 1.382 . S
C55 H20 0.929 . S
C55 C50 1.371 . S
C55 C54 1.382 . S
C56 N24 1.423 . S
C56 C57 1.362 . S
C56 C61 1.388 . S
C57 H21 0.929 . S
C57 C56 1.362 . S
C57 C58 1.376 . S
C58 H22 0.931 1_655 S
C58 C57 1.376 . S
C58 C59 1.396 1_655 S
C59 C41 1.472 . S
C59 C58 1.396 1_455 S
C59 C60 1.348 1_455 S
C60 H23 0.929 . S
C60 C59 1.348 1_655 S
C60 C61 1.443 . S
C61 H25 0.932 . S
C61 C56 1.388 . S
C61 C60 1.443 . S
H62 C89 0.929 . S
N63 C88 1.433 . S
N63 C94 1.435 . S
N63 C100 1.423 . S
H64 C90 0.930 . S
H65 C93 0.931 . S
H66 C92 0.929 . S
H67 C95 0.930 . S
H68 C96 0.932 . S
H69 C99 0.929 . S
H70 C98 0.931 . S
H71 C101 0.929 . S
H72 C105 0.932 . S
H73 C102 0.931 . S
H74 C104 0.929 . S
H75 C107 0.929 . S
H76 C108 0.930 . S
H77 C110 0.929 . S
H78 C111 0.931 . S
H79 C113 0.930 . S
H80 C114 0.932 . S
H81 C116 0.931 . S
H82 C117 0.929 . S
H83 C119 0.929 . S
H84 C120 0.931 . S
H85 C122 0.929 . S
N86 C106 1.433 . S
N86 C112 1.435 . S
N86 C118 1.423 . S
H87 C123 0.932 . S
C88 N63 1.433 . S
C88 C89 1.363 . S
C88 C93 1.370 . S
C89 H62 0.929 . S
C89 C88 1.363 . S
C89 C90 1.385 . S
C90 H64 0.930 . S
C90 C89 1.385 . S
C90 C91 1.357 . S
C91 C90 1.357 . S
C91 C92 1.406 . S
C92 H66 0.929 . S
C92 C91 1.406 . S
C92 C93 1.391 . S
C93 H65 0.931 . S
C93 C88 1.370 . S
C93 C92 1.391 . S
C94 N63 1.435 . S
C94 C95 1.358 . S
C94 C99 1.371 . S
C95 H67 0.930 . S
C95 C94 1.358 . S
C95 C96 1.405 . S
C96 H68 0.932 . S
C96 C95 1.405 . S
C96 C97 1.383 . S
C97 C96 1.383 . S
C97 C98 1.393 . S
C98 H70 0.931 . S
C98 C97 1.393 . S
C98 C99 1.382 . S
C99 H69 0.929 . S
C99 C94 1.371 . S
C99 C98 1.382 . S
C100 N63 1.423 . S
C100 C101 1.362 . S
C100 C105 1.388 . S
C101 H71 0.929 . S
C101 C100 1.362 . S
C101 C102 1.376 . S
C102 H73 0.931 . S
C102 C101 1.376 . S
C102 C103 1.396 1_565 S
C103 C102 1.396 1_545 S
C103 C104 1.348 . S
C103 C121 1.472 . S
C104 H74 0.929 . S
C104 C103 1.348 . S
C104 C105 1.443 1_545 S
C105 H72 0.932 . S
C105 C100 1.388 . S
C105 C104 1.443 1_565 S
C106 N86 1.433 . S
C106 C107 1.363 . S
C106 C111 1.370 . S
C107 H75 0.929 . S
C107 C106 1.363 . S
C107 C108 1.385 . S
C108 H76 0.930 . S
C108 C107 1.385 . S
C108 C109 1.357 . S
C109 C108 1.357 . S
C109 C110 1.406 . S
C110 H77 0.929 . S
C110 C109 1.406 . S
C110 C111 1.391 . S
C111 H78 0.931 . S
C111 C106 1.370 . S
C111 C110 1.391 . S
C112 N86 1.435 . S
C112 C113 1.358 . S
C112 C117 1.371 . S
C113 H79 0.930 . S
C113 C112 1.358 . S
C113 C114 1.405 . S
C114 H80 0.932 . S
C114 C113 1.405 . S
C114 C115 1.383 . S
C115 C114 1.383 . S
C115 C116 1.393 . S
C116 H81 0.931 . S
C116 C115 1.393 . S
C116 C117 1.382 . S
C117 H82 0.929 . S
C117 C112 1.371 . S
C117 C116 1.382 . S
C118 N86 1.423 . S
C118 C119 1.362 . S
C118 C123 1.388 . S
C119 H83 0.929 . S
C119 C118 1.362 . S
C119 C120 1.376 . S
C120 H84 0.931 . S
C120 C119 1.376 . S
C120 C121 1.396 . S
C121 C103 1.472 . S
C121 C120 1.396 . S
C121 C122 1.348 . S
C122 H85 0.929 . S
C122 C121 1.348 . S
C122 C123 1.443 . S
C123 H87 0.932 . S
C123 C118 1.388 . S
C123 C122 1.443 . S
H124 C151 0.929 . S
N125 C150 1.433 . S
N125 C156 1.435 . S
N125 C162 1.423 . S
H126 C152 0.930 . S
H127 C155 0.931 . S
H128 C154 0.929 . S
H129 C157 0.930 . S
H130 C158 0.932 . S
H131 C161 0.929 . S
H132 C160 0.931 . S
H133 C163 0.929 . S
H134 C167 0.932 . S
H135 C164 0.931 . S
H136 C166 0.929 . S
H137 C169 0.929 . S
H138 C170 0.930 . S
H139 C172 0.929 . S
H140 C173 0.931 . S
H141 C175 0.930 . S
H142 C176 0.932 . S
H143 C178 0.931 . S
H144 C179 0.929 . S
H145 C181 0.929 . S
H146 C182 0.931 . S
H147 C184 0.929 . S
N148 C168 1.433 . S
N148 C174 1.435 . S
N148 C180 1.423 . S
H149 C185 0.932 . S
C150 N125 1.433 . S
C150 C151 1.363 . S
C150 C155 1.370 . S
C151 H124 0.929 . S
C151 C150 1.363 . S
C151 C152 1.385 . S
C152 H126 0.930 . S
C152 C151 1.385 . S
C152 C153 1.357 . S
C153 C152 1.357 . S
C153 C154 1.406 . S
C154 H128 0.929 . S
C154 C153 1.406 . S
C154 C155 1.391 . S
C155 H127 0.931 . S
C155 C150 1.370 . S
C155 C154 1.391 . S
C156 N125 1.435 . S
C156 C157 1.358 . S
C156 C161 1.371 . S
C157 H129 0.930 . S
C157 C156 1.358 . S
C157 C158 1.405 . S
C158 H130 0.932 . S
C158 C157 1.405 . S
C158 C159 1.383 . S
C159 C158 1.383 . S
C159 C160 1.393 . S
C160 H132 0.931 . S
C160 C159 1.393 . S
C160 C161 1.382 . S
C161 H131 0.929 . S
C161 C156 1.371 . S
C161 C160 1.382 . S
C162 N125 1.423 . S
C162 C163 1.362 . S
C162 C167 1.388 . S
C163 H133 0.929 . S
C163 C162 1.362 . S
C163 C164 1.376 . S
C164 H135 0.931 . S
C164 C163 1.376 . S
C164 C165 1.396 . S
C165 C164 1.396 . S
C165 C166 1.348 . S
C165 C183 1.472 . S
C166 H136 0.929 . S
C166 C165 1.348 . S
C166 C167 1.443 . S
C167 H134 0.932 . S
C167 C162 1.388 . S
C167 C166 1.443 . S
C168 N148 1.433 . S
C168 C169 1.363 . S
C168 C173 1.370 . S
C169 H137 0.929 . S
C169 C168 1.363 . S
C169 C170 1.385 . S
C170 H138 0.930 . S
C170 C169 1.385 . S
C170 C171 1.357 . S
C171 C170 1.357 . S
C171 C172 1.406 . S
C172 H139 0.929 . S
C172 C171 1.406 . S
C172 C173 1.391 . S
C173 H140 0.931 . S
C173 C168 1.370 . S
C173 C172 1.391 . S
C174 N148 1.435 . S
C174 C175 1.358 . S
C174 C179 1.371 . S
C175 H141 0.930 . S
C175 C174 1.358 . S
C175 C176 1.405 . S
C176 H142 0.932 . S
C176 C175 1.405 . S
C176 C177 1.383 . S
C177 C176 1.383 . S
C177 C178 1.393 . S
C178 H143 0.931 . S
C178 C177 1.393 . S
C178 C179 1.382 . S
C179 H144 0.929 . S
C179 C174 1.371 . S
C179 C178 1.382 . S
C180 N148 1.423 . S
C180 C181 1.362 . S
C180 C185 1.388 . S
C181 H145 0.929 . S
C181 C180 1.362 . S
C181 C182 1.376 . S
C182 H146 0.931 . S
C182 C181 1.376 . S
C182 C183 1.396 . S
C183 C165 1.472 . S
C183 C182 1.396 . S
C183 C184 1.348 . S
C184 H147 0.929 . S
C184 C183 1.348 . S
C184 C185 1.443 . S
C185 H149 0.932 . S
C185 C180 1.388 . S
C185 C184 1.443 . S
H186 C213 0.929 . S
N187 C212 1.433 . S
N187 C218 1.435 . S
N187 C224 1.423 . S
H188 C214 0.930 . S
H189 C217 0.931 . S
H190 C216 0.929 . S
H191 C219 0.930 . S
H192 C220 0.932 . S
H193 C223 0.929 . S
H194 C222 0.931 . S
H195 C225 0.929 . S
H196 C229 0.932 . S
H197 C226 0.931 . S
H198 C228 0.929 . S
H199 C231 0.929 . S
H200 C232 0.930 . S
H201 C234 0.929 . S
H202 C235 0.931 . S
H203 C237 0.930 . S
H204 C238 0.932 . S
H205 C240 0.931 . S
H206 C241 0.929 . S
H207 C243 0.929 . S
H208 C244 0.931 1_455 S
H209 C246 0.929 . S
N210 C230 1.433 . S
N210 C236 1.435 . S
N210 C242 1.423 . S
H211 C247 0.932 . S
C212 N187 1.433 . S
C212 C213 1.363 . S
C212 C217 1.370 . S
C213 H186 0.929 . S
C213 C212 1.363 . S
C213 C214 1.385 . S
C214 H188 0.930 . S
C214 C213 1.385 . S
C214 C215 1.357 . S
C215 C214 1.357 . S
C215 C216 1.406 . S
C216 H190 0.929 . S
C216 C215 1.406 . S
C216 C217 1.391 . S
C217 H189 0.931 . S
C217 C212 1.370 . S
C217 C216 1.391 . S
C218 N187 1.435 . S
C218 C219 1.358 . S
C218 C223 1.371 . S
C219 H191 0.930 . S
C219 C218 1.358 . S
C219 C220 1.405 . S
C220 H192 0.932 . S
C220 C219 1.405 . S
C220 C221 1.383 . S
C221 C220 1.383 . S
C221 C222 1.393 . S
C222 H194 0.931 . S
C222 C221 1.393 . S
C222 C223 1.382 . S
C223 H193 0.929 . S
C223 C218 1.371 . S
C223 C222 1.382 . S
C224 N187 1.423 . S
C224 C225 1.362 . S
C224 C229 1.388 . S
C225 H195 0.929 . S
C225 C224 1.362 . S
C225 C226 1.376 . S
C226 H197 0.931 . S
C226 C225 1.376 . S
C226 C227 1.396 . S
C227 C226 1.396 . S
C227 C228 1.348 . S
C227 C245 1.472 . S
C228 H198 0.929 . S
C228 C227 1.348 . S
C228 C229 1.443 . S
C229 H196 0.932 . S
C229 C224 1.388 . S
C229 C228 1.443 . S
C230 N210 1.433 . S
C230 C231 1.363 . S
C230 C235 1.370 . S
C231 H199 0.929 . S
C231 C230 1.363 . S
C231 C232 1.385 . S
C232 H200 0.930 . S
C232 C231 1.385 . S
C232 C233 1.357 . S
C233 C232 1.357 . S
C233 C234 1.406 . S
C234 H201 0.929 . S
C234 C233 1.406 . S
C234 C235 1.391 . S
C235 H202 0.931 . S
C235 C230 1.370 . S
C235 C234 1.391 . S
C236 N210 1.435 . S
C236 C237 1.358 . S
C236 C241 1.371 . S
C237 H203 0.930 . S
C237 C236 1.358 . S
C237 C238 1.405 . S
C238 H204 0.932 . S
C238 C237 1.405 . S
C238 C239 1.383 . S
C239 C238 1.383 . S
C239 C240 1.393 . S
C240 H205 0.931 . S
C240 C239 1.393 . S
C240 C241 1.382 . S
C241 H206 0.929 . S
C241 C236 1.371 . S
C241 C240 1.382 . S
C242 N210 1.423 . S
C242 C243 1.362 . S
C242 C247 1.388 . S
C243 H207 0.929 . S
C243 C242 1.362 . S
C243 C244 1.376 . S
C244 H208 0.931 1_655 S
C244 C243 1.376 . S
C244 C245 1.396 1_655 S
C245 C227 1.472 . S
C245 C244 1.396 1_455 S
C245 C246 1.348 1_455 S
C246 H209 0.929 . S
C246 C245 1.348 1_655 S
C246 C247 1.443 . S
C247 H211 0.932 . S
C247 C242 1.388 . S
C247 C246 1.443 . S
H248 C275 0.929 . S
N249 C274 1.433 . S
N249 C280 1.435 . S
N249 C286 1.423 . S
H250 C276 0.934 . S
H251 C279 0.931 . S
H252 C278 0.929 . S
H253 C281 0.930 . S
H254 C282 0.932 . S
H255 C285 0.929 . S
H256 C284 0.931 . S
H257 C287 0.929 . S
H258 C291 0.932 . S
H259 C288 0.965 . S
H260 C290 0.929 . S
H261 C293 0.929 . S
H262 C294 0.930 . S
H263 C296 0.929 . S
H264 C297 0.931 . S
H265 C299 0.930 . S
H266 C300 0.932 . S
H267 C302 0.931 . S
H268 C303 0.929 . S
H269 C305 0.929 . S
H270 C306 0.931 1_545 S
H271 C308 0.929 . S
N272 C292 1.433 . S
N272 C298 1.435 1_554 S
N272 C304 1.423 . S
H273 C309 0.932 . S
C274 N249 1.433 . S
C274 C275 1.363 . S
C274 C279 1.417 . S
C275 H248 0.929 . S
C275 C274 1.363 . S
C275 C276 1.430 . S
C276 H250 0.934 . S
C276 C275 1.430 . S
C276 C277 1.311 1_556 S
C277 C276 1.311 1_554 S
C277 C278 1.406 . S
C278 H252 0.929 . S
C278 C277 1.406 . S
C278 C279 1.346 1_554 S
C279 H251 0.931 . S
C279 C274 1.417 . S
C279 C278 1.346 1_556 S
C280 N249 1.435 . S
C280 C281 1.358 . S
C280 C285 1.371 . S
C281 H253 0.930 . S
C281 C280 1.358 . S
C281 C282 1.405 . S
C282 H254 0.932 . S
C282 C281 1.405 . S
C282 C283 1.383 . S
C283 C282 1.383 . S
C283 C284 1.393 . S
C284 H256 0.931 . S
C284 C283 1.393 . S
C284 C285 1.382 . S
C285 H255 0.929 . S
C285 C280 1.371 . S
C285 C284 1.382 . S
C286 N249 1.423 . S
C286 C287 1.362 . S
C286 C291 1.388 . S
C287 H257 0.929 . S
C287 C286 1.362 . S
C287 C288 1.376 . S
C288 H259 0.965 . S
C288 C287 1.376 . S
C288 C289 1.396 . S
C289 C288 1.396 . S
C289 C290 1.348 . S
C289 C307 1.514 . S
C290 H260 0.929 . S
C290 C289 1.348 . S
C290 C291 1.443 . S
C291 H258 0.932 . S
C291 C286 1.388 . S
C291 C290 1.443 . S
C292 N272 1.433 . S
C292 C293 1.363 . S
C292 C297 1.370 . S
C293 H261 0.929 . S
C293 C292 1.363 . S
C293 C294 1.385 . S
C294 H262 0.930 . S
C294 C293 1.385 . S
C294 C295 1.357 . S
C295 C294 1.357 . S
C295 C296 1.406 . S
C296 H263 0.929 . S
C296 C295 1.406 . S
C296 C297 1.391 . S
C297 H264 0.931 . S
C297 C292 1.370 . S
C297 C296 1.391 . S
C298 N272 1.435 1_556 S
C298 C299 1.358 1_556 S
C298 C303 1.371 . S
C299 H265 0.930 . S
C299 C298 1.358 1_554 S
C299 C300 1.405 1_554 S
C300 H266 0.932 . S
C300 C299 1.405 1_556 S
C300 C301 1.383 . S
C301 C300 1.383 . S
C301 C302 1.393 . S
C302 H267 0.931 . S
C302 C301 1.393 . S
C302 C303 1.382 . S
C303 H268 0.929 . S
C303 C298 1.371 . S
C303 C302 1.382 . S
C304 N272 1.423 . S
C304 C305 1.362 . S
C304 C309 1.388 1_554 S
C305 H269 0.929 . S
C305 C304 1.362 . S
C305 C306 1.376 . S
C306 H270 0.931 1_565 S
C306 C305 1.376 . S
C306 C307 1.397 1_564 S
C307 C289 1.514 . S
C307 C306 1.397 1_546 S
C307 C308 1.304 1_545 S
C308 H271 0.929 . S
C308 C307 1.304 1_565 S
C308 C309 1.443 . S
C309 H273 0.932 . S
C309 C304 1.388 1_556 S
C309 C308 1.443 . S
H310 C337 0.929 . S
N311 C336 1.433 . S
N311 C342 1.435 . S
N311 C348 1.423 . S
H312 C338 0.930 . S
H313 C341 0.931 . S
H314 C340 0.929 . S
H315 C343 0.930 . S
H316 C344 0.932 . S
H317 C347 0.929 . S
H318 C346 0.931 . S
H319 C349 0.929 . S
H320 C353 0.932 . S
H321 C350 0.931 . S
H322 C352 0.929 . S
H323 C355 0.929 . S
H324 C356 0.930 . S
H325 C358 0.929 . S
H326 C359 0.931 . S
H327 C361 0.930 . S
H328 C362 0.932 . S
H329 C364 0.931 . S
H330 C365 0.929 . S
H331 C367 0.929 . S
H332 C368 0.931 . S
H333 C370 0.929 . S
N334 C354 1.433 . S
N334 C360 1.435 . S
N334 C366 1.423 . S
H335 C371 0.932 . S
C336 N311 1.433 . S
C336 C337 1.363 . S
C336 C341 1.370 . S
C337 H310 0.929 . S
C337 C336 1.363 . S
C337 C338 1.385 . S
C338 H312 0.930 . S
C338 C337 1.385 . S
C338 C339 1.357 . S
C339 C338 1.357 . S
C339 C340 1.406 . S
C340 H314 0.929 . S
C340 C339 1.406 . S
C340 C341 1.391 . S
C341 H313 0.931 . S
C341 C336 1.370 . S
C341 C340 1.391 . S
C342 N311 1.435 . S
C342 C343 1.358 . S
C342 C347 1.371 . S
C343 H315 0.930 . S
C343 C342 1.358 . S
C343 C344 1.405 . S
C344 H316 0.932 . S
C344 C343 1.405 . S
C344 C345 1.383 . S
C345 C344 1.383 . S
C345 C346 1.393 . S
C346 H318 0.931 . S
C346 C345 1.393 . S
C346 C347 1.382 . S
C347 H317 0.929 . S
C347 C342 1.371 . S
C347 C346 1.382 . S
C348 N311 1.423 . S
C348 C349 1.362 . S
C348 C353 1.388 . S
C349 H319 0.929 . S
C349 C348 1.362 . S
C349 C350 1.376 . S
C350 H321 0.931 . S
C350 C349 1.376 . S
C350 C351 1.396 . S
C351 C350 1.396 . S
C351 C352 1.348 . S
C351 C369 1.472 . S
C352 H322 0.929 . S
C352 C351 1.348 . S
C352 C353 1.443 . S
C353 H320 0.932 . S
C353 C348 1.388 . S
C353 C352 1.443 . S
C354 N334 1.433 . S
C354 C355 1.363 . S
C354 C359 1.370 . S
C355 H323 0.929 . S
C355 C354 1.363 . S
C355 C356 1.385 . S
C356 H324 0.930 . S
C356 C355 1.385 . S
C356 C357 1.357 . S
C357 C356 1.357 . S
C357 C358 1.406 . S
C358 H325 0.929 . S
C358 C357 1.406 . S
C358 C359 1.391 . S
C359 H326 0.931 . S
C359 C354 1.370 . S
C359 C358 1.391 . S
C360 N334 1.435 . S
C360 C361 1.358 . S
C360 C365 1.371 . S
C361 H327 0.930 . S
C361 C360 1.358 . S
C361 C362 1.405 . S
C362 H328 0.932 . S
C362 C361 1.405 . S
C362 C363 1.383 . S
C363 C362 1.383 . S
C363 C364 1.393 . S
C364 H329 0.931 . S
C364 C363 1.393 . S
C364 C365 1.382 . S
C365 H330 0.929 . S
C365 C360 1.371 . S
C365 C364 1.382 . S
C366 N334 1.423 . S
C366 C367 1.362 . S
C366 C371 1.388 . S
C367 H331 0.929 . S
C367 C366 1.362 . S
C367 C368 1.376 . S
C368 H332 0.931 . S
C368 C367 1.376 . S
C368 C369 1.396 . S
C369 C351 1.472 . S
C369 C368 1.396 . S
C369 C370 1.348 . S
C370 H333 0.929 . S
C370 C369 1.348 . S
C370 C371 1.443 . S
C371 H335 0.932 . S
C371 C366 1.388 . S
C371 C370 1.443 . S
Li372 N389 1.990 . S
Li372 O432 1.956 . S
Li372 O433 1.970 . S
Li372 O434 1.961 . S
Li373 N397 1.990 . S
Li373 O432 1.970 . S
Li373 O433 1.956 . S
Li373 O435 1.961 . S
Li374 N419 1.990 . S
Li374 O432 1.961 . S
Li374 O434 1.956 . S
Li374 O435 1.970 . S
Li375 N425 1.990 . S
Li375 O433 1.961 . S
Li375 O434 1.970 . S
Li375 O435 1.956 . S
C376 C378 1.348 . S
C376 C379 1.356 . S
C376 O432 1.325 . S
N377 C380 1.314 . S
N377 C381 1.279 . S
C378 C376 1.348 . S
C378 C380 1.353 . S
C378 H436 0.929 . S
C379 C376 1.356 . S
C379 C381 1.358 . S
C379 H437 0.930 . S
C380 N377 1.314 . S
C380 C378 1.353 . S
C380 H438 0.930 . S
C381 N377 1.279 . S
C381 C379 1.358 . S
C381 H439 0.930 . S
C382 C385 1.348 . S
C382 C386 1.356 . S
C382 O433 1.325 . S
C383 N384 1.279 . S
C383 C386 1.358 . S
C383 H440 0.930 . S
N384 C383 1.279 . S
N384 C387 1.314 . S
C385 C382 1.348 . S
C385 C387 1.353 . S
C385 H441 0.929 . S
C386 C382 1.356 . S
C386 C383 1.358 . S
C386 H442 0.930 . S
C387 N384 1.314 . S
C387 C385 1.353 . S
C387 H443 0.930 . S
C388 N389 1.314 . S
C388 C393 1.353 . S
C388 H394 0.930 . S
N389 Li372 1.990 . S
N389 C388 1.314 . S
N389 C391 1.279 . S
C390 C391 1.358 . S
C390 C392 1.356 . S
C390 H444 0.930 . S
C391 N389 1.279 . S
C391 C390 1.358 . S
C391 H395 0.930 . S
C392 C390 1.356 . S
C392 C393 1.348 . S
C393 C388 1.353 . S
C393 C392 1.348 . S
C393 H445 0.929 . S
H394 C388 0.930 . S
H395 C391 0.930 . S
C396 N397 1.314 . S
C396 C398 1.353 . S
C396 H402 0.930 . S
N397 Li373 1.990 . S
N397 C396 1.314 . S
N397 C400 1.279 . S
C398 C396 1.353 . S
C398 C401 1.348 . S
C398 H446 0.929 . S
C399 C400 1.358 . S
C399 C401 1.356 . S
C399 H447 0.930 . S
C400 N397 1.279 . S
C400 C399 1.358 . S
C400 H403 0.930 . S
C401 C398 1.348 . S
C401 C399 1.356 . S
H402 C396 0.930 . S
H403 C400 0.930 . S
C404 C406 1.348 . S
C404 C407 1.356 . S
C404 O434 1.325 . S
N405 C408 1.314 . S
N405 C409 1.279 . S
C406 C404 1.348 . S
C406 C408 1.353 . S
C406 H448 0.929 . S
C407 C404 1.356 . S
C407 C409 1.358 . S
C407 H449 0.930 . S
C408 N405 1.314 . S
C408 C406 1.353 . S
C408 H450 0.930 . S
C409 N405 1.279 . S
C409 C407 1.358 . S
C409 H451 0.930 . S
C410 C411 1.348 . S
C410 C412 1.356 . S
C410 O435 1.325 . S
C411 C410 1.348 . S
C411 C413 1.353 . S
C411 H452 0.929 . S
C412 C410 1.356 . S
C412 C414 1.358 . S
C412 H453 0.930 . S
C413 C411 1.353 . S
C413 N415 1.314 . S
C413 H454 0.930 . S
C414 C412 1.358 . S
C414 N415 1.279 . S
C414 H455 0.930 . S
N415 C413 1.314 . S
N415 C414 1.279 . S
C416 C418 1.353 . S
C416 N419 1.314 . S
C416 H422 0.930 . S
C417 N419 1.279 . S
C417 C420 1.358 . S
C417 H423 0.930 . S
C418 C416 1.353 . S
C418 C421 1.348 . S
C418 H456 0.929 . S
N419 Li374 1.990 . S
N419 C416 1.314 . S
N419 C417 1.279 . S
C420 C417 1.358 . S
C420 C421 1.356 . S
C420 H457 0.930 . S
C421 C418 1.348 . S
C421 C420 1.356 . S
H422 C416 0.930 . S
H423 C417 0.930 . S
C424 N425 1.314 . S
C424 C426 1.353 . S
C424 H430 0.930 . S
N425 Li375 1.990 . S
N425 C424 1.314 . S
N425 C428 1.279 . S
C426 C424 1.353 . S
C426 C429 1.348 . S
C426 H458 0.929 . S
C427 C428 1.358 . S
C427 C429 1.356 . S
C427 H459 0.930 . S
C428 N425 1.279 . S
C428 C427 1.358 . S
C428 H431 0.930 . S
C429 C426 1.348 . S
C429 C427 1.356 . S
H430 C424 0.930 . S
H431 C428 0.930 . S
O432 Li372 1.956 . S
O432 Li373 1.970 . S
O432 Li374 1.961 . S
O432 C376 1.325 . S
O433 Li372 1.970 . S
O433 Li373 1.956 . S
O433 Li375 1.961 . S
O433 C382 1.325 . S
O434 Li372 1.961 . S
O434 Li374 1.956 . S
O434 Li375 1.970 . S
O434 C404 1.325 . S
O435 Li373 1.961 . S
O435 Li374 1.970 . S
O435 Li375 1.956 . S
O435 C410 1.325 . S
H436 C378 0.929 . S
H437 C379 0.930 . S
H438 C380 0.930 . S
H439 C381 0.930 . S
H440 C383 0.930 . S
H441 C385 0.929 . S
H442 C386 0.930 . S
H443 C387 0.930 . S
H444 C390 0.930 . S
H445 C393 0.929 . S
H446 C398 0.929 . S
H447 C399 0.930 . S
H448 C406 0.929 . S
H449 C407 0.930 . S
H450 C408 0.930 . S
H451 C409 0.930 . S
H452 C411 0.929 . S
H453 C412 0.930 . S
H454 C413 0.930 . S
H455 C414 0.930 . S
H456 C418 0.929 . S
H457 C420 0.930 . S
H458 C426 0.929 . S
H459 C427 0.930 . S
Li460 N477 1.990 . S
Li460 O520 1.956 . S
Li460 O521 1.970 . S
Li460 O522 1.961 . S
Li461 N485 1.990 . S
Li461 O520 1.970 . S
Li461 O521 1.956 . S
Li461 O523 1.961 . S
Li462 N507 1.990 . S
Li462 O520 1.961 . S
Li462 O522 1.956 . S
Li462 O523 1.970 . S
Li463 N513 1.990 . S
Li463 O521 1.961 . S
Li463 O522 1.970 . S
Li463 O523 1.956 . S
C464 C466 1.348 . S
C464 C467 1.356 . S
C464 O520 1.325 . S
N465 C468 1.314 . S
N465 C469 1.279 . S
C466 C464 1.348 . S
C466 C468 1.353 . S
C466 H524 0.929 . S
C467 C464 1.356 . S
C467 C469 1.358 . S
C467 H525 0.930 . S
C468 N465 1.314 . S
C468 C466 1.353 . S
C468 H526 0.930 . S
C469 N465 1.279 . S
C469 C467 1.358 . S
C469 H527 0.930 . S
C470 C473 1.348 . S
C470 C474 1.356 . S
C470 O521 1.325 . S
C471 N472 1.279 . S
C471 C474 1.358 . S
C471 H528 0.930 . S
N472 C471 1.279 . S
N472 C475 1.314 . S
C473 C470 1.348 . S
C473 C475 1.353 . S
C473 H529 0.929 . S
C474 C470 1.356 . S
C474 C471 1.358 . S
C474 H530 0.930 . S
C475 N472 1.314 . S
C475 C473 1.353 . S
C475 H531 0.930 . S
C476 N477 1.314 . S
C476 C481 1.353 . S
C476 H482 0.930 . S
N477 Li460 1.990 . S
N477 C476 1.314 . S
N477 C479 1.279 . S
C478 C479 1.358 . S
C478 C480 1.356 . S
C478 H532 0.930 . S
C479 N477 1.279 . S
C479 C478 1.358 . S
C479 H483 0.930 . S
C480 C478 1.356 . S
C480 C481 1.348 . S
C481 C476 1.353 . S
C481 C480 1.348 . S
C481 H533 0.929 . S
H482 C476 0.930 . S
H483 C479 0.930 . S
C484 N485 1.314 . S
C484 C486 1.353 . S
C484 H490 0.930 . S
N485 Li461 1.990 . S
N485 C484 1.314 . S
N485 C488 1.279 . S
C486 C484 1.353 . S
C486 C489 1.348 . S
C486 H534 0.929 . S
C487 C488 1.358 . S
C487 C489 1.356 . S
C487 H535 0.930 . S
C488 N485 1.279 . S
C488 C487 1.358 . S
C488 H491 0.930 . S
C489 C486 1.348 . S
C489 C487 1.356 . S
H490 C484 0.930 . S
H491 C488 0.930 . S
C492 C494 1.348 . S
C492 C495 1.356 . S
C492 O522 1.325 . S
N493 C496 1.314 . S
N493 C497 1.279 . S
C494 C492 1.348 . S
C494 C496 1.353 . S
C494 H536 0.929 . S
C495 C492 1.356 . S
C495 C497 1.358 . S
C495 H537 0.930 . S
C496 N493 1.314 . S
C496 C494 1.353 . S
C496 H538 0.930 . S
C497 N493 1.279 . S
C497 C495 1.358 . S
C497 H539 0.930 . S
C498 C499 1.348 . S
C498 C500 1.356 . S
C498 O523 1.325 . S
C499 C498 1.348 . S
C499 C501 1.353 . S
C499 H540 0.929 . S
C500 C498 1.356 . S
C500 C502 1.358 . S
C500 H541 0.930 . S
C501 C499 1.353 . S
C501 N503 1.314 . S
C501 H542 0.930 . S
C502 C500 1.358 . S
C502 N503 1.279 . S
C502 H543 0.930 . S
N503 C501 1.314 . S
N503 C502 1.279 . S
C504 C506 1.353 . S
C504 N507 1.314 . S
C504 H510 0.930 . S
C505 N507 1.279 . S
C505 C508 1.358 . S
C505 H511 0.930 . S
C506 C504 1.353 . S
C506 C509 1.348 . S
C506 H544 0.929 . S
N507 Li462 1.990 . S
N507 C504 1.314 . S
N507 C505 1.279 . S
C508 C505 1.358 . S
C508 C509 1.356 . S
C508 H545 0.930 . S
C509 C506 1.348 . S
C509 C508 1.356 . S
H510 C504 0.930 . S
H511 C505 0.930 . S
C512 N513 1.314 . S
C512 C514 1.353 . S
C512 H518 0.930 . S
N513 Li463 1.990 . S
N513 C512 1.314 . S
N513 C516 1.279 . S
C514 C512 1.353 . S
C514 C517 1.348 . S
C514 H546 0.929 . S
C515 C516 1.358 . S
C515 C517 1.356 . S
C515 H547 0.930 . S
C516 N513 1.279 . S
C516 C515 1.358 . S
C516 H519 0.930 . S
C517 C514 1.348 . S
C517 C515 1.356 . S
H518 C512 0.930 . S
H519 C516 0.930 . S
O520 Li460 1.956 . S
O520 Li461 1.970 . S
O520 Li462 1.961 . S
O520 C464 1.325 . S
O521 Li460 1.970 . S
O521 Li461 1.956 . S
O521 Li463 1.961 . S
O521 C470 1.325 . S
O522 Li460 1.961 . S
O522 Li462 1.956 . S
O522 Li463 1.970 . S
O522 C492 1.325 . S
O523 Li461 1.961 . S
O523 Li462 1.970 . S
O523 Li463 1.956 . S
O523 C498 1.325 . S
H524 C466 0.929 . S
H525 C467 0.930 . S
H526 C468 0.930 . S
H527 C469 0.930 . S
H528 C471 0.930 . S
H529 C473 0.929 . S
H530 C474 0.930 . S
H531 C475 0.930 . S
H532 C478 0.930 . S
H533 C481 0.929 . S
H534 C486 0.929 . S
H535 C487 0.930 . S
H536 C494 0.929 . S
H537 C495 0.930 . S
H538 C496 0.930 . S
H539 C497 0.930 . S
H540 C499 0.929 . S
H541 C500 0.930 . S
H542 C501 0.930 . S
H543 C502 0.930 . S
H544 C506 0.929 . S
H545 C508 0.930 . S
H546 C514 0.929 . S
H547 C515 0.930 . S
Li548 N565 1.990 . S
Li548 O608 1.956 . S
Li548 O609 1.970 . S
Li548 O610 1.961 . S
Li549 N573 1.990 . S
Li549 O608 1.970 . S
Li549 O609 1.956 . S
Li549 O611 1.961 . S
Li550 N595 1.990 . S
Li550 O608 1.961 . S
Li550 O610 1.956 . S
Li550 O611 1.970 . S
Li551 N601 1.990 . S
Li551 O609 1.961 . S
Li551 O610 1.970 . S
Li551 O611 1.956 . S
C552 C554 1.348 . S
C552 C555 1.356 . S
C552 O608 1.325 . S
N553 C556 1.314 . S
N553 C557 1.279 . S
C554 C552 1.348 . S
C554 C556 1.353 . S
C554 H612 0.929 . S
C555 C552 1.356 . S
C555 C557 1.358 . S
C555 H613 0.930 . S
C556 N553 1.314 . S
C556 C554 1.353 . S
C556 H614 0.930 . S
C557 N553 1.279 . S
C557 C555 1.358 . S
C557 H615 0.930 . S
C558 C561 1.348 . S
C558 C562 1.356 . S
C558 O609 1.325 . S
C559 N560 1.279 . S
C559 C562 1.358 . S
C559 H616 0.930 . S
N560 C559 1.279 . S
N560 C563 1.314 . S
C561 C558 1.348 . S
C561 C563 1.353 . S
C561 H617 0.929 . S
C562 C558 1.356 . S
C562 C559 1.358 . S
C562 H618 0.930 . S
C563 N560 1.314 . S
C563 C561 1.353 . S
C563 H619 0.930 . S
C564 N565 1.314 . S
C564 C569 1.353 . S
C564 H570 0.930 . S
N565 Li548 1.990 . S
N565 C564 1.314 . S
N565 C567 1.279 . S
C566 C567 1.358 . S
C566 C568 1.356 . S
C566 H620 0.930 . S
C567 N565 1.279 . S
C567 C566 1.358 . S
C567 H571 0.930 . S
C568 C566 1.356 . S
C568 C569 1.348 . S
C569 C564 1.353 . S
C569 C568 1.348 . S
C569 H621 0.929 . S
H570 C564 0.930 . S
H571 C567 0.930 . S
C572 N573 1.314 . S
C572 C574 1.353 . S
C572 H578 0.930 . S
N573 Li549 1.990 . S
N573 C572 1.314 . S
N573 C576 1.279 . S
C574 C572 1.353 . S
C574 C577 1.348 . S
C574 H622 0.929 . S
C575 C576 1.358 . S
C575 C577 1.356 . S
C575 H623 0.930 . S
C576 N573 1.279 . S
C576 C575 1.358 . S
C576 H579 0.930 . S
C577 C574 1.348 . S
C577 C575 1.356 . S
H578 C572 0.930 . S
H579 C576 0.930 . S
C580 C582 1.348 . S
C580 C583 1.356 . S
C580 O610 1.325 . S
N581 C584 1.314 . S
N581 C585 1.279 . S
C582 C580 1.348 . S
C582 C584 1.353 . S
C582 H624 0.929 . S
C583 C580 1.356 . S
C583 C585 1.358 . S
C583 H625 0.930 . S
C584 N581 1.314 . S
C584 C582 1.353 . S
C584 H626 0.930 . S
C585 N581 1.279 . S
C585 C583 1.358 . S
C585 H627 0.930 . S
C586 C587 1.348 . S
C586 C588 1.356 . S
C586 O611 1.325 . S
C587 C586 1.348 . S
C587 C589 1.353 . S
C587 H628 0.929 . S
C588 C586 1.356 . S
C588 C590 1.358 . S
C588 H629 0.930 . S
C589 C587 1.353 . S
C589 N591 1.314 . S
C589 H630 0.930 . S
C590 C588 1.358 . S
C590 N591 1.279 . S
C590 H631 0.930 . S
N591 C589 1.314 . S
N591 C590 1.279 . S
C592 C594 1.353 . S
C592 N595 1.314 . S
C592 H598 0.930 . S
C593 N595 1.279 . S
C593 C596 1.358 . S
C593 H599 0.930 . S
C594 C592 1.353 . S
C594 C597 1.348 . S
C594 H632 0.929 . S
N595 Li550 1.990 . S
N595 C592 1.314 . S
N595 C593 1.279 . S
C596 C593 1.358 . S
C596 C597 1.356 . S
C596 H633 0.930 . S
C597 C594 1.348 . S
C597 C596 1.356 . S
H598 C592 0.930 . S
H599 C593 0.930 . S
C600 N601 1.314 . S
C600 C602 1.353 . S
C600 H606 0.930 . S
N601 Li551 1.990 . S
N601 C600 1.314 . S
N601 C604 1.279 . S
C602 C600 1.353 . S
C602 C605 1.348 . S
C602 H634 0.929 . S
C603 C604 1.358 . S
C603 C605 1.356 . S
C603 H635 0.930 . S
C604 N601 1.279 . S
C604 C603 1.358 . S
C604 H607 0.930 . S
C605 C602 1.348 . S
C605 C603 1.356 . S
H606 C600 0.930 . S
H607 C604 0.930 . S
O608 Li548 1.956 . S
O608 Li549 1.970 . S
O608 Li550 1.961 . S
O608 C552 1.325 . S
O609 Li548 1.970 . S
O609 Li549 1.956 . S
O609 Li551 1.961 . S
O609 C558 1.325 . S
O610 Li548 1.961 . S
O610 Li550 1.956 . S
O610 Li551 1.970 . S
O610 C580 1.325 . S
O611 Li549 1.961 . S
O611 Li550 1.970 . S
O611 Li551 1.956 . S
O611 C586 1.325 . S
H612 C554 0.929 . S
H613 C555 0.930 . S
H614 C556 0.930 . S
H615 C557 0.930 . S
H616 C559 0.930 . S
H617 C561 0.929 . S
H618 C562 0.930 . S
H619 C563 0.930 . S
H620 C566 0.930 . S
H621 C569 0.929 . S
H622 C574 0.929 . S
H623 C575 0.930 . S
H624 C582 0.929 . S
H625 C583 0.930 . S
H626 C584 0.930 . S
H627 C585 0.930 . S
H628 C587 0.929 . S
H629 C588 0.930 . S
H630 C589 0.930 . S
H631 C590 0.930 . S
H632 C594 0.929 . S
H633 C596 0.930 . S
H634 C602 0.929 . S
H635 C603 0.930 . S
Li636 N653 1.990 . S
Li636 O696 1.956 . S
Li636 O697 1.970 . S
Li636 O698 1.961 . S
Li637 N661 1.990 . S
Li637 O696 1.970 . S
Li637 O697 1.956 . S
Li637 O699 1.961 . S
Li638 N683 1.990 . S
Li638 O696 1.961 . S
Li638 O698 1.956 . S
Li638 O699 1.970 . S
Li639 N689 1.990 . S
Li639 O697 1.961 . S
Li639 O698 1.970 . S
Li639 O699 1.956 . S
C640 C642 1.348 . S
C640 C643 1.356 . S
C640 O696 1.325 . S
N641 C644 1.314 . S
N641 C645 1.279 . S
C642 C640 1.348 . S
C642 C644 1.353 . S
C642 H700 0.929 . S
C643 C640 1.356 . S
C643 C645 1.358 . S
C643 H701 0.930 . S
C644 N641 1.314 . S
C644 C642 1.353 . S
C644 H702 0.930 . S
C645 N641 1.279 . S
C645 C643 1.358 . S
C645 H703 0.930 . S
C646 C649 1.348 . S
C646 C650 1.356 . S
C646 O697 1.325 . S
C647 N648 1.279 . S
C647 C650 1.358 . S
C647 H704 0.930 . S
N648 C647 1.279 . S
N648 C651 1.314 . S
C649 C646 1.348 . S
C649 C651 1.353 . S
C649 H705 0.929 . S
C650 C646 1.356 . S
C650 C647 1.358 . S
C650 H706 0.930 . S
C651 N648 1.314 . S
C651 C649 1.353 . S
C651 H707 0.930 . S
C652 N653 1.314 . S
C652 C657 1.353 . S
C652 H658 0.930 . S
N653 Li636 1.990 . S
N653 C652 1.314 . S
N653 C655 1.279 . S
C654 C655 1.358 . S
C654 C656 1.356 . S
C654 H708 0.930 1_556 S
C655 N653 1.279 . S
C655 C654 1.358 . S
C655 H659 0.930 . S
C656 C654 1.356 . S
C656 C657 1.348 . S
C657 C652 1.353 . S
C657 C656 1.348 . S
C657 H709 0.929 . S
H658 C652 0.930 . S
H659 C655 0.930 . S
C660 N661 1.314 . S
C660 C662 1.353 . S
C660 H666 0.930 . S
N661 Li637 1.990 . S
N661 C660 1.314 . S
N661 C664 1.279 . S
C662 C660 1.353 . S
C662 C665 1.348 . S
C662 H710 0.929 . S
C663 C664 1.358 . S
C663 C665 1.356 . S
C663 H711 0.930 . S
C664 N661 1.279 . S
C664 C663 1.358 . S
C664 H667 0.930 . S
C665 C662 1.348 . S
C665 C663 1.356 . S
H666 C660 0.930 . S
H667 C664 0.930 . S
C668 C670 1.348 . S
C668 C671 1.356 . S
C668 O698 1.325 . S
N669 C672 1.314 . S
N669 C673 1.279 . S
C670 C668 1.348 . S
C670 C672 1.353 . S
C670 H712 0.929 . S
C671 C668 1.356 . S
C671 C673 1.358 . S
C671 H713 0.930 . S
C672 N669 1.314 . S
C672 C670 1.353 . S
C672 H714 0.930 . S
C673 N669 1.279 . S
C673 C671 1.358 . S
C673 H715 0.930 . S
C674 C675 1.348 . S
C674 C676 1.356 . S
C674 O699 1.325 . S
C675 C674 1.348 . S
C675 C677 1.353 . S
C675 H716 0.929 . S
C676 C674 1.356 . S
C676 C678 1.358 . S
C676 H717 0.930 . S
C677 C675 1.353 . S
C677 N679 1.314 . S
C677 H718 0.930 . S
C678 C676 1.358 . S
C678 N679 1.279 . S
C678 H719 0.930 . S
N679 C677 1.314 . S
N679 C678 1.279 . S
C680 C682 1.353 . S
C680 N683 1.314 . S
C680 H686 0.930 . S
C681 N683 1.279 . S
C681 C684 1.358 . S
C681 H687 0.930 . S
C682 C680 1.353 . S
C682 C685 1.348 . S
C682 H720 0.929 . S
N683 Li638 1.990 . S
N683 C680 1.314 . S
N683 C681 1.279 . S
C684 C681 1.358 . S
C684 C685 1.356 . S
C684 H721 0.930 . S
C685 C682 1.348 . S
C685 C684 1.356 . S
H686 C680 0.930 . S
H687 C681 0.930 . S
C688 N689 1.314 . S
C688 C690 1.353 . S
C688 H694 0.930 . S
N689 Li639 1.990 . S
N689 C688 1.314 . S
N689 C692 1.279 . S
C690 C688 1.353 . S
C690 C693 1.348 . S
C690 H722 0.929 . S
C691 C692 1.358 . S
C691 C693 1.356 . S
C691 H723 0.930 . S
C692 N689 1.279 . S
C692 C691 1.358 . S
C692 H695 0.930 . S
C693 C690 1.348 . S
C693 C691 1.356 . S
H694 C688 0.930 . S
H695 C692 0.930 . S
O696 Li636 1.956 . S
O696 Li637 1.970 . S
O696 Li638 1.961 . S
O696 C640 1.325 . S
O697 Li636 1.970 . S
O697 Li637 1.956 . S
O697 Li639 1.961 . S
O697 C646 1.325 . S
O698 Li636 1.961 . S
O698 Li638 1.956 . S
O698 Li639 1.970 . S
O698 C668 1.325 . S
O699 Li637 1.961 . S
O699 Li638 1.970 . S
O699 Li639 1.956 . S
O699 C674 1.325 . S
H700 C642 0.929 . S
H701 C643 0.930 . S
H702 C644 0.930 . S
H703 C645 0.930 . S
H704 C647 0.930 . S
H705 C649 0.929 . S
H706 C650 0.930 . S
H707 C651 0.930 . S
H708 C654 0.930 1_554 S
H709 C657 0.929 . S
H710 C662 0.929 . S
H711 C663 0.930 . S
H712 C670 0.929 . S
H713 C671 0.930 . S
H714 C672 0.930 . S
H715 C673 0.930 . S
H716 C675 0.929 . S
H717 C676 0.930 . S
H718 C677 0.930 . S
H719 C678 0.930 . S
H720 C682 0.929 . S
H721 C684 0.930 . S
H722 C690 0.929 . S
H723 C691 0.930 . S
Li724 N741 1.990 . S
Li724 O784 1.956 . S
Li724 O785 1.970 . S
Li724 O786 1.961 . S
Li725 N749 1.990 . S
Li725 O784 1.970 . S
Li725 O785 1.956 . S
Li725 O787 1.961 . S
Li726 N771 1.990 . S
Li726 O784 1.961 . S
Li726 O786 1.956 . S
Li726 O787 1.970 . S
Li727 N777 1.990 . S
Li727 O785 1.961 . S
Li727 O786 1.970 . S
Li727 O787 1.956 . S
C728 C730 1.348 . S
C728 C731 1.356 . S
C728 O784 1.325 . S
N729 C732 1.314 . S
N729 C733 1.279 . S
C730 C728 1.348 . S
C730 C732 1.353 . S
C730 H788 0.929 . S
C731 C728 1.356 . S
C731 C733 1.358 . S
C731 H789 0.930 . S
C732 N729 1.314 . S
C732 C730 1.353 . S
C732 H790 0.930 . S
C733 N729 1.279 . S
C733 C731 1.358 . S
C733 H791 0.930 . S
C734 C737 1.348 . S
C734 C738 1.356 . S
C734 O785 1.325 . S
C735 N736 1.279 . S
C735 C738 1.358 . S
C735 H792 0.930 . S
N736 C735 1.279 . S
N736 C739 1.314 . S
C737 C734 1.348 . S
C737 C739 1.353 . S
C737 H793 0.929 . S
C738 C734 1.356 . S
C738 C735 1.358 . S
C738 H794 0.930 . S
C739 N736 1.314 . S
C739 C737 1.353 . S
C739 H795 0.930 . S
C740 N741 1.314 . S
C740 C745 1.353 . S
C740 H746 0.930 . S
N741 Li724 1.990 . S
N741 C740 1.314 . S
N741 C743 1.279 . S
C742 C743 1.358 . S
C742 C744 1.356 . S
C742 H796 0.930 . S
C743 N741 1.279 . S
C743 C742 1.358 . S
C743 H747 0.930 . S
C744 C742 1.356 . S
C744 C745 1.348 . S
C745 C740 1.353 . S
C745 C744 1.348 . S
C745 H797 0.929 . S
H746 C740 0.930 . S
H747 C743 0.930 . S
C748 N749 1.314 . S
C748 C750 1.353 . S
C748 H754 0.930 . S
N749 Li725 1.990 . S
N749 C748 1.314 . S
N749 C752 1.279 . S
C750 C748 1.353 . S
C750 C753 1.348 . S
C750 H798 0.929 . S
C751 C752 1.358 . S
C751 C753 1.356 . S
C751 H799 0.930 . S
C752 N749 1.279 . S
C752 C751 1.358 . S
C752 H755 0.930 . S
C753 C750 1.348 . S
C753 C751 1.356 . S
H754 C748 0.930 . S
H755 C752 0.930 . S
C756 C758 1.348 . S
C756 C759 1.356 . S
C756 O786 1.325 . S
N757 C760 1.314 . S
N757 C761 1.279 . S
C758 C756 1.348 . S
C758 C760 1.353 . S
C758 H800 0.929 . S
C759 C756 1.356 . S
C759 C761 1.358 . S
C759 H801 0.930 . S
C760 N757 1.314 . S
C760 C758 1.353 . S
C760 H802 0.930 . S
C761 N757 1.279 . S
C761 C759 1.358 . S
C761 H803 0.930 . S
C762 C763 1.348 . S
C762 C764 1.356 . S
C762 O787 1.325 . S
C763 C762 1.348 . S
C763 C765 1.353 . S
C763 H804 0.929 . S
C764 C762 1.356 . S
C764 C766 1.358 . S
C764 H805 0.930 . S
C765 C763 1.353 . S
C765 N767 1.314 . S
C765 H806 0.930 . S
C766 C764 1.358 . S
C766 N767 1.279 . S
C766 H807 0.930 . S
N767 C765 1.314 . S
N767 C766 1.279 . S
C768 C770 1.353 . S
C768 N771 1.314 . S
C768 H774 0.930 . S
C769 N771 1.279 . S
C769 C772 1.391 . S
C769 H775 0.930 . S
C770 C768 1.353 . S
C770 C773 1.348 . S
C770 H808 0.929 . S
N771 Li726 1.990 . S
N771 C768 1.314 . S
N771 C769 1.279 . S
C772 C769 1.391 . S
C772 C773 1.360 . S
C772 H809 0.894 1_554 S
C773 C770 1.348 . S
C773 C772 1.360 . S
H774 C768 0.930 . S
H775 C769 0.930 . S
C776 N777 1.314 . S
C776 C778 1.353 . S
C776 H782 0.930 . S
N777 Li727 1.990 . S
N777 C776 1.314 . S
N777 C780 1.279 . S
C778 C776 1.353 . S
C778 C781 1.348 . S
C778 H810 0.929 . S
C779 C780 1.358 . S
C779 C781 1.356 . S
C779 H811 0.930 . S
C780 N777 1.279 . S
C780 C779 1.358 . S
C780 H783 0.930 . S
C781 C778 1.348 . S
C781 C779 1.356 . S
H782 C776 0.930 . S
H783 C780 0.930 . S
O784 Li724 1.956 . S
O784 Li725 1.970 . S
O784 Li726 1.961 . S
O784 C728 1.325 . S
O785 Li724 1.970 . S
O785 Li725 1.956 . S
O785 Li727 1.961 . S
O785 C734 1.325 . S
O786 Li724 1.961 . S
O786 Li726 1.956 . S
O786 Li727 1.970 . S
O786 C756 1.325 . S
O787 Li725 1.961 . S
O787 Li726 1.970 . S
O787 Li727 1.956 . S
O787 C762 1.325 . S
H788 C730 0.929 . S
H789 C731 0.930 . S
H790 C732 0.930 . S
H791 C733 0.930 . S
H792 C735 0.930 . S
H793 C737 0.929 . S
H794 C738 0.930 . S
H795 C739 0.930 . S
H796 C742 0.930 . S
H797 C745 0.929 . S
H798 C750 0.929 . S
H799 C751 0.930 . S
H800 C758 0.929 . S
H801 C759 0.930 . S
H802 C760 0.930 . S
H803 C761 0.930 . S
H804 C763 0.929 . S
H805 C764 0.930 . S
H806 C765 0.930 . S
H807 C766 0.930 . S
H808 C770 0.929 . S
H809 C772 0.894 1_556 S
H810 C778 0.929 . S
H811 C779 0.930 . S
Li812 N829 1.990 . S
Li812 O872 1.956 . S
Li812 O873 1.970 . S
Li812 O874 1.961 . S
Li813 N837 1.990 . S
Li813 O872 1.970 . S
Li813 O873 1.956 . S
Li813 O875 1.961 . S
Li814 N859 1.990 . S
Li814 O872 1.961 . S
Li814 O874 1.956 . S
Li814 O875 1.970 . S
Li815 N865 1.990 . S
Li815 O873 1.961 . S
Li815 O874 1.970 . S
Li815 O875 1.956 . S
C816 C818 1.348 . S
C816 C819 1.356 . S
C816 O872 1.325 . S
N817 C820 1.314 . S
N817 C821 1.279 . S
C818 C816 1.348 . S
C818 C820 1.353 . S
C818 H876 0.929 . S
C819 C816 1.356 . S
C819 C821 1.358 . S
C819 H877 0.930 . S
C820 N817 1.314 . S
C820 C818 1.353 . S
C820 H878 0.930 . S
C821 N817 1.279 . S
C821 C819 1.358 . S
C821 H879 0.930 . S
C822 C825 1.348 . S
C822 C826 1.356 . S
C822 O873 1.325 . S
C823 N824 1.279 . S
C823 C826 1.358 . S
C823 H880 0.930 . S
N824 C823 1.279 . S
N824 C827 1.314 . S
C825 C822 1.348 . S
C825 C827 1.353 . S
C825 H881 0.929 . S
C826 C822 1.356 . S
C826 C823 1.358 . S
C826 H882 0.930 . S
C827 N824 1.314 . S
C827 C825 1.353 . S
C827 H883 0.930 . S
C828 N829 1.314 . S
C828 C833 1.353 . S
C828 H834 0.930 . S
N829 Li812 1.990 . S
N829 C828 1.314 . S
N829 C831 1.279 . S
C830 C831 1.358 . S
C830 C832 1.356 . S
C830 H884 0.930 . S
C831 N829 1.279 . S
C831 C830 1.358 . S
C831 H835 0.930 . S
C832 C830 1.356 . S
C832 C833 1.348 . S
C833 C828 1.353 . S
C833 C832 1.348 . S
C833 H885 0.929 . S
H834 C828 0.930 . S
H835 C831 0.930 . S
C836 N837 1.314 . S
C836 C838 1.353 . S
C836 H842 0.930 . S
N837 Li813 1.990 . S
N837 C836 1.314 . S
N837 C840 1.279 . S
C838 C836 1.353 . S
C838 C841 1.348 . S
C838 H886 0.929 . S
C839 C840 1.358 . S
C839 C841 1.356 . S
C839 H887 0.930 . S
C840 N837 1.279 . S
C840 C839 1.358 . S
C840 H843 0.930 . S
C841 C838 1.348 . S
C841 C839 1.356 . S
H842 C836 0.930 . S
H843 C840 0.930 . S
C844 C846 1.348 . S
C844 C847 1.356 . S
C844 O874 1.325 . S
N845 C848 1.314 . S
N845 C849 1.279 . S
C846 C844 1.348 . S
C846 C848 1.353 . S
C846 H888 0.929 . S
C847 C844 1.356 . S
C847 C849 1.358 . S
C847 H889 0.930 . S
C848 N845 1.314 . S
C848 C846 1.353 . S
C848 H890 0.930 . S
C849 N845 1.279 . S
C849 C847 1.358 . S
C849 H891 0.930 . S
C850 C851 1.348 . S
C850 C852 1.356 . S
C850 O875 1.325 . S
C851 C850 1.348 . S
C851 C853 1.353 . S
C851 H892 0.929 . S
C852 C850 1.356 . S
C852 C854 1.358 . S
C852 H893 0.930 . S
C853 C851 1.353 . S
C853 N855 1.314 . S
C853 H894 0.930 . S
C854 C852 1.358 . S
C854 N855 1.279 . S
C854 H895 0.930 . S
N855 C853 1.314 . S
N855 C854 1.279 . S
C856 C858 1.353 . S
C856 N859 1.314 . S
C856 H862 0.930 . S
C857 N859 1.279 . S
C857 C860 1.358 . S
C857 H863 0.930 . S
C858 C856 1.353 . S
C858 C861 1.348 . S
C858 H896 0.929 . S
N859 Li814 1.990 . S
N859 C856 1.314 . S
N859 C857 1.279 . S
C860 C857 1.358 . S
C860 C861 1.356 . S
C860 H897 0.930 . S
C861 C858 1.348 . S
C861 C860 1.356 . S
H862 C856 0.930 . S
H863 C857 0.930 . S
C864 N865 1.314 . S
C864 C866 1.353 . S
C864 H870 0.930 . S
N865 Li815 1.990 . S
N865 C864 1.314 . S
N865 C868 1.279 . S
C866 C864 1.353 . S
C866 C869 1.348 . S
C866 H898 0.929 . S
C867 C868 1.358 . S
C867 C869 1.356 . S
C867 H899 0.930 . S
C868 N865 1.279 . S
C868 C867 1.358 . S
C868 H871 0.930 . S
C869 C866 1.348 . S
C869 C867 1.356 . S
H870 C864 0.930 . S
H871 C868 0.930 . S
O872 Li812 1.956 . S
O872 Li813 1.970 . S
O872 Li814 1.961 . S
O872 C816 1.325 . S
O873 Li812 1.970 . S
O873 Li813 1.956 . S
O873 Li815 1.961 . S
O873 C822 1.325 . S
O874 Li812 1.961 . S
O874 Li814 1.956 . S
O874 Li815 1.970 . S
O874 C844 1.325 . S
O875 Li813 1.961 . S
O875 Li814 1.970 . S
O875 Li815 1.956 . S
O875 C850 1.325 . S
H876 C818 0.929 . S
H877 C819 0.930 . S
H878 C820 0.930 . S
H879 C821 0.930 . S
H880 C823 0.930 . S
H881 C825 0.929 . S
H882 C826 0.930 . S
H883 C827 0.930 . S
H884 C830 0.930 . S
H885 C833 0.929 . S
H886 C838 0.929 . S
H887 C839 0.930 . S
H888 C846 0.929 . S
H889 C847 0.930 . S
H890 C848 0.930 . S
H891 C849 0.930 . S
H892 C851 0.929 . S
H893 C852 0.930 . S
H894 C853 0.930 . S
H895 C854 0.930 . S
H896 C858 0.929 . S
H897 C860 0.930 . S
H898 C866 0.929 . S
H899 C867 0.930 . S
H900 C912 0.930 . S
H901 C914 0.930 . S
H902 C915 0.930 . S
H903 C919 0.959 . S
H904 C919 0.959 . S
H905 C919 0.961 . S
H906 C920 0.960 . S
H907 C920 0.961 . S
H908 C920 0.959 . S
H909 C923 0.929 . S
H910 C924 0.931 . S
H911 C926 0.930 . S
C912 H900 0.930 . S
C912 C913 1.399 . S
C912 C917 1.399 . S
C913 C912 1.399 . S
C913 C914 1.376 . S
C914 H901 0.930 . S
C914 C913 1.376 . S
C914 C915 1.388 . S
C915 H902 0.930 . S
C915 C914 1.388 . S
C915 C916 1.390 . S
C916 C915 1.390 . S
C916 C917 1.394 . S
C916 C922 1.465 . S
C917 C912 1.399 . S
C917 C916 1.394 . S
C917 C918 1.516 . S
C918 C917 1.516 . S
C918 C919 1.502 . S
C918 C920 1.561 . S
C918 C921 1.526 . S
C919 H903 0.959 . S
C919 H904 0.959 . S
C919 H905 0.961 . S
C919 C918 1.502 . S
C920 H906 0.960 . S
C920 H907 0.961 . S
C920 H908 0.959 . S
C920 C918 1.561 . S
C921 C918 1.526 . S
C921 C922 1.396 . S
C921 C926 1.390 . S
C922 C916 1.465 . S
C922 C921 1.396 . S
C922 C923 1.399 . S
C923 H909 0.929 . S
C923 C922 1.399 . S
C923 C924 1.385 . S
C924 H910 0.931 . S
C924 C923 1.385 . S
C924 C925 1.389 . S
C925 C924 1.389 . S
C925 C926 1.387 . S
C926 H911 0.930 . S
C926 C921 1.390 . S
C926 C925 1.387 . S
H927 C939 0.930 . S
H928 C941 0.930 . S
H929 C942 0.930 . S
H930 C946 0.959 . S
H931 C946 0.959 . S
H932 C946 0.961 . S
H933 C947 0.960 . S
H934 C947 0.961 . S
H935 C947 0.959 . S
H936 C950 0.929 . S
H937 C951 0.931 . S
H938 C953 0.930 . S
C939 H927 0.930 . S
C939 C940 1.399 . S
C939 C944 1.399 . S
C940 C939 1.399 . S
C940 C941 1.376 . S
C941 H928 0.930 . S
C941 C940 1.376 . S
C941 C942 1.388 . S
C942 H929 0.930 . S
C942 C941 1.388 . S
C942 C943 1.390 . S
C943 C942 1.390 . S
C943 C944 1.394 . S
C943 C949 1.465 . S
C944 C939 1.399 . S
C944 C943 1.394 . S
C944 C945 1.516 . S
C945 C944 1.516 . S
C945 C946 1.502 . S
C945 C947 1.561 . S
C945 C948 1.526 . S
C946 H930 0.959 . S
C946 H931 0.959 . S
C946 H932 0.961 . S
C946 C945 1.502 . S
C947 H933 0.960 . S
C947 H934 0.961 . S
C947 H935 0.959 . S
C947 C945 1.561 . S
C948 C945 1.526 . S
C948 C949 1.396 . S
C948 C953 1.390 . S
C949 C943 1.465 . S
C949 C948 1.396 . S
C949 C950 1.399 . S
C950 H936 0.929 . S
C950 C949 1.399 . S
C950 C951 1.385 . S
C951 H937 0.931 . S
C951 C950 1.385 . S
C951 C952 1.389 . S
C952 C951 1.389 . S
C952 C953 1.387 . S
C953 H938 0.930 . S
C953 C948 1.390 . S
C953 C952 1.387 . S
H954 C966 0.930 . S
H955 C968 0.930 . S
H956 C969 0.930 . S
H957 C973 0.959 . S
H958 C973 0.959 . S
H959 C973 0.961 . S
H960 C974 0.960 . S
H961 C974 0.961 . S
H962 C974 0.959 . S
H963 C977 0.929 . S
H964 C978 0.931 . S
H965 C980 0.930 . S
C966 H954 0.930 . S
C966 C967 1.399 . S
C966 C971 1.399 . S
C967 C966 1.399 . S
C967 C968 1.376 . S
C968 H955 0.930 . S
C968 C967 1.376 . S
C968 C969 1.388 . S
C969 H956 0.930 . S
C969 C968 1.388 . S
C969 C970 1.390 . S
C970 C969 1.390 . S
C970 C971 1.394 . S
C970 C976 1.465 . S
C971 C966 1.399 . S
C971 C970 1.394 . S
C971 C972 1.516 . S
C972 C971 1.516 . S
C972 C973 1.502 . S
C972 C974 1.561 . S
C972 C975 1.526 . S
C973 H957 0.959 . S
C973 H958 0.959 . S
C973 H959 0.961 . S
C973 C972 1.502 . S
C974 H960 0.960 . S
C974 H961 0.961 . S
C974 H962 0.959 . S
C974 C972 1.561 . S
C975 C972 1.526 . S
C975 C976 1.396 . S
C975 C980 1.390 . S
C976 C970 1.465 . S
C976 C975 1.396 . S
C976 C977 1.399 . S
C977 H963 0.929 . S
C977 C976 1.399 . S
C977 C978 1.385 . S
C978 H964 0.931 . S
C978 C977 1.385 . S
C978 C979 1.389 . S
C979 C978 1.389 . S
C979 C980 1.387 . S
C980 H965 0.930 . S
C980 C975 1.390 . S
C980 C979 1.387 . S
H981 C993 0.930 . S
H982 C995 0.930 . S
H983 C996 0.930 . S
H984 C1000 0.959 . S
H985 C1000 0.959 . S
H986 C1000 0.961 . S
H987 C1001 0.960 . S
H988 C1001 0.961 . S
H989 C1001 0.959 . S
H990 C1004 0.929 . S
H991 C1005 0.931 . S
H992 C1007 0.930 . S
C993 H981 0.930 . S
C993 C994 1.399 . S
C993 C998 1.399 . S
C994 C993 1.399 . S
C994 C995 1.376 . S
C995 H982 0.930 . S
C995 C994 1.376 . S
C995 C996 1.388 . S
C996 H983 0.930 . S
C996 C995 1.388 . S
C996 C997 1.390 . S
C997 C996 1.390 . S
C997 C998 1.394 . S
C997 C1003 1.465 . S
C998 C993 1.399 . S
C998 C997 1.394 . S
C998 C999 1.516 . S
C999 C998 1.516 . S
C999 C1000 1.502 . S
C999 C1001 1.561 . S
C999 C1002 1.526 . S
C1000 H984 0.959 . S
C1000 H985 0.959 . S
C1000 H986 0.961 . S
C1000 C999 1.502 . S
C1001 H987 0.960 . S
C1001 H988 0.961 . S
C1001 H989 0.959 . S
C1001 C999 1.561 . S
C1002 C999 1.526 . S
C1002 C1003 1.396 . S
C1002 C1007 1.390 . S
C1003 C997 1.465 . S
C1003 C1002 1.396 . S
C1003 C1004 1.399 . S
C1004 H990 0.929 . S
C1004 C1003 1.399 . S
C1004 C1005 1.385 . S
C1005 H991 0.931 . S
C1005 C1004 1.385 . S
C1005 C1006 1.389 . S
C1006 C1005 1.389 . S
C1006 C1007 1.387 . S
C1007 H992 0.930 . S
C1007 C1002 1.390 . S
C1007 C1006 1.387 . S
H1008 C1020 0.930 . S
H1009 C1022 0.930 . S
H1010 C1023 0.930 . S
H1011 C1027 0.959 . S
H1012 C1027 0.959 . S
H1013 C1027 0.961 . S
H1014 C1028 0.960 . S
H1015 C1028 0.961 . S
H1016 C1028 0.959 . S
H1017 C1031 0.929 . S
H1018 C1032 0.931 . S
H1019 C1034 0.930 . S
C1020 H1008 0.930 . S
C1020 C1021 1.399 . S
C1020 C1025 1.399 . S
C1021 C1020 1.399 . S
C1021 C1022 1.376 . S
C1022 H1009 0.930 . S
C1022 C1021 1.376 . S
C1022 C1023 1.388 . S
C1023 H1010 0.930 . S
C1023 C1022 1.388 . S
C1023 C1024 1.390 . S
C1024 C1023 1.390 . S
C1024 C1025 1.394 . S
C1024 C1030 1.465 . S
C1025 C1020 1.399 . S
C1025 C1024 1.394 . S
C1025 C1026 1.516 . S
C1026 C1025 1.516 . S
C1026 C1027 1.502 . S
C1026 C1028 1.561 . S
C1026 C1029 1.526 . S
C1027 H1011 0.959 . S
C1027 H1012 0.959 . S
C1027 H1013 0.961 . S
C1027 C1026 1.502 . S
C1028 H1014 0.960 . S
C1028 H1015 0.961 . S
C1028 H1016 0.959 . S
C1028 C1026 1.561 . S
C1029 C1026 1.526 . S
C1029 C1030 1.396 . S
C1029 C1034 1.390 . S
C1030 C1024 1.465 . S
C1030 C1029 1.396 . S
C1030 C1031 1.399 . S
C1031 H1017 0.929 . S
C1031 C1030 1.399 . S
C1031 C1032 1.385 . S
C1032 H1018 0.931 . S
C1032 C1031 1.385 . S
C1032 C1033 1.389 . S
C1033 C1032 1.389 . S
C1033 C1034 1.387 . S
C1034 H1019 0.930 . S
C1034 C1029 1.390 . S
C1034 C1033 1.387 . S
H1035 C1047 0.930 . S
H1036 C1049 0.930 . S
H1037 C1050 0.930 . S
H1038 C1054 0.959 . S
H1039 C1054 0.959 . S
H1040 C1054 0.961 . S
H1041 C1055 0.960 . S
H1042 C1055 0.961 . S
H1043 C1055 0.959 . S
H1044 C1058 0.929 . S
H1045 C1059 0.931 . S
H1046 C1061 0.930 . S
C1047 H1035 0.930 . S
C1047 C1048 1.399 . S
C1047 C1052 1.399 . S
C1048 C1047 1.399 . S
C1048 C1049 1.376 . S
C1049 H1036 0.930 . S
C1049 C1048 1.376 . S
C1049 C1050 1.388 . S
C1050 H1037 0.930 . S
C1050 C1049 1.388 . S
C1050 C1051 1.390 . S
C1051 C1050 1.390 . S
C1051 C1052 1.394 . S
C1051 C1057 1.465 . S
C1052 C1047 1.399 . S
C1052 C1051 1.394 . S
C1052 C1053 1.516 . S
C1053 C1052 1.516 . S
C1053 C1054 1.502 . S
C1053 C1055 1.561 . S
C1053 C1056 1.526 . S
C1054 H1038 0.959 . S
C1054 H1039 0.959 . S
C1054 H1040 0.961 . S
C1054 C1053 1.502 . S
C1055 H1041 0.960 . S
C1055 H1042 0.961 . S
C1055 H1043 0.959 . S
C1055 C1053 1.561 . S
C1056 C1053 1.526 . S
C1056 C1057 1.396 . S
C1056 C1061 1.390 . S
C1057 C1051 1.465 . S
C1057 C1056 1.396 . S
C1057 C1058 1.399 . S
C1058 H1044 0.929 . S
C1058 C1057 1.399 . S
C1058 C1059 1.385 . S
C1059 H1045 0.931 . S
C1059 C1058 1.385 . S
C1059 C1060 1.389 . S
C1060 C1059 1.389 . S
C1060 C1061 1.387 . S
C1061 H1046 0.930 . S
C1061 C1056 1.390 . S
C1061 C1060 1.387 . S
H1062 C1074 0.930 . S
H1063 C1076 0.930 . S
H1064 C1077 0.930 . S
H1065 C1081 0.959 . S
H1066 C1081 0.959 . S
H1067 C1081 0.961 . S
H1068 C1082 0.960 . S
H1069 C1082 0.961 . S
H1070 C1082 0.959 . S
H1071 C1085 0.929 . S
H1072 C1086 0.931 . S
H1073 C1088 0.930 . S
C1074 H1062 0.930 . S
C1074 C1075 1.399 . S
C1074 C1079 1.399 . S
C1075 C1074 1.399 . S
C1075 C1076 1.376 . S
C1076 H1063 0.930 . S
C1076 C1075 1.376 . S
C1076 C1077 1.388 . S
C1077 H1064 0.930 . S
C1077 C1076 1.388 . S
C1077 C1078 1.390 . S
C1078 C1077 1.390 . S
C1078 C1079 1.394 . S
C1078 C1084 1.465 . S
C1079 C1074 1.399 . S
C1079 C1078 1.394 . S
C1079 C1080 1.516 . S
C1080 C1079 1.516 . S
C1080 C1081 1.502 . S
C1080 C1082 1.561 . S
C1080 C1083 1.526 . S
C1081 H1065 0.959 . S
C1081 H1066 0.959 . S
C1081 H1067 0.961 . S
C1081 C1080 1.502 . S
C1082 H1068 0.960 . S
C1082 H1069 0.961 . S
C1082 H1070 0.959 . S
C1082 C1080 1.561 . S
C1083 C1080 1.526 . S
C1083 C1084 1.396 . S
C1083 C1088 1.390 . S
C1084 C1078 1.465 . S
C1084 C1083 1.396 . S
C1084 C1085 1.399 . S
C1085 H1071 0.929 . S
C1085 C1084 1.399 . S
C1085 C1086 1.385 . S
C1086 H1072 0.931 . S
C1086 C1085 1.385 . S
C1086 C1087 1.389 . S
C1087 C1086 1.389 . S
C1087 C1088 1.387 . S
C1088 H1073 0.930 . S
C1088 C1083 1.390 . S
C1088 C1087 1.387 . S
H1089 C1101 0.930 . S
H1090 C1103 0.930 . S
H1091 C1104 0.930 . S
H1092 C1108 0.959 . S
H1093 C1108 0.959 . S
H1094 C1108 0.961 . S
H1095 C1109 0.960 . S
H1096 C1109 0.961 . S
H1097 C1109 0.959 . S
H1098 C1112 0.929 . S
H1099 C1113 0.931 . S
H1100 C1115 0.930 . S
C1101 H1089 0.930 . S
C1101 C1102 1.399 . S
C1101 C1106 1.399 . S
C1102 C1101 1.399 . S
C1102 C1103 1.376 . S
C1103 H1090 0.930 . S
C1103 C1102 1.376 . S
C1103 C1104 1.388 . S
C1104 H1091 0.930 . S
C1104 C1103 1.388 . S
C1104 C1105 1.390 . S
C1105 C1104 1.390 . S
C1105 C1106 1.394 . S
C1105 C1111 1.465 . S
C1106 C1101 1.399 . S
C1106 C1105 1.394 . S
C1106 C1107 1.516 . S
C1107 C1106 1.516 . S
C1107 C1108 1.502 . S
C1107 C1109 1.561 . S
C1107 C1110 1.526 . S
C1108 H1092 0.959 . S
C1108 H1093 0.959 . S
C1108 H1094 0.961 . S
C1108 C1107 1.502 . S
C1109 H1095 0.960 . S
C1109 H1096 0.961 . S
C1109 H1097 0.959 . S
C1109 C1107 1.561 . S
C1110 C1107 1.526 . S
C1110 C1111 1.396 . S
C1110 C1115 1.390 . S
C1111 C1105 1.465 . S
C1111 C1110 1.396 . S
C1111 C1112 1.399 . S
C1112 H1098 0.929 . S
C1112 C1111 1.399 . S
C1112 C1113 1.385 . S
C1113 H1099 0.931 . S
C1113 C1112 1.385 . S
C1113 C1114 1.389 . S
C1114 C1113 1.389 . S
C1114 C1115 1.387 . S
C1115 H1100 0.930 . S
C1115 C1110 1.390 . S
C1115 C1114 1.387 . S
H1116 C1128 0.930 . S
H1117 C1130 0.930 . S
H1118 C1131 0.930 . S
H1119 C1135 0.959 . S
H1120 C1135 0.959 . S
H1121 C1135 0.961 . S
H1122 C1136 0.960 . S
H1123 C1136 0.961 . S
H1124 C1136 0.959 . S
H1125 C1139 0.929 . S
H1126 C1140 0.931 . S
H1127 C1142 0.930 . S
C1128 H1116 0.930 . S
C1128 C1129 1.399 . S
C1128 C1133 1.399 . S
C1129 C1128 1.399 . S
C1129 C1130 1.376 . S
C1130 H1117 0.930 . S
C1130 C1129 1.376 . S
C1130 C1131 1.388 . S
C1131 H1118 0.930 . S
C1131 C1130 1.388 . S
C1131 C1132 1.390 . S
C1132 C1131 1.390 . S
C1132 C1133 1.394 . S
C1132 C1138 1.465 . S
C1133 C1128 1.399 . S
C1133 C1132 1.394 . S
C1133 C1134 1.516 . S
C1134 C1133 1.516 . S
C1134 C1135 1.502 . S
C1134 C1136 1.561 . S
C1134 C1137 1.526 . S
C1135 H1119 0.959 . S
C1135 H1120 0.959 . S
C1135 H1121 0.961 . S
C1135 C1134 1.502 . S
C1136 H1122 0.960 . S
C1136 H1123 0.961 . S
C1136 H1124 0.959 . S
C1136 C1134 1.561 . S
C1137 C1134 1.526 . S
C1137 C1138 1.396 . S
C1137 C1142 1.390 . S
C1138 C1132 1.465 . S
C1138 C1137 1.396 . S
C1138 C1139 1.399 . S
C1139 H1125 0.929 . S
C1139 C1138 1.399 . S
C1139 C1140 1.385 . S
C1140 H1126 0.931 . S
C1140 C1139 1.385 . S
C1140 C1141 1.389 . S
C1141 C1140 1.389 . S
C1141 C1142 1.387 . S
C1142 H1127 0.930 . S
C1142 C1137 1.390 . S
C1142 C1141 1.387 . S
H1143 C1155 0.930 . S
H1144 C1157 0.930 . S
H1145 C1158 0.930 . S
H1146 C1162 0.959 . S
H1147 C1162 0.959 . S
H1148 C1162 0.961 . S
H1149 C1163 0.960 . S
H1150 C1163 0.961 . S
H1151 C1163 0.959 . S
H1152 C1166 0.929 . S
H1153 C1167 0.931 . S
H1154 C1169 0.930 . S
C1155 H1143 0.930 . S
C1155 C1156 1.399 . S
C1155 C1160 1.399 . S
C1156 C1155 1.399 . S
C1156 C1157 1.376 . S
C1157 H1144 0.930 . S
C1157 C1156 1.376 . S
C1157 C1158 1.388 . S
C1158 H1145 0.930 . S
C1158 C1157 1.388 . S
C1158 C1159 1.390 . S
C1159 C1158 1.390 . S
C1159 C1160 1.394 . S
C1159 C1165 1.465 . S
C1160 C1155 1.399 . S
C1160 C1159 1.394 . S
C1160 C1161 1.516 . S
C1161 C1160 1.516 . S
C1161 C1162 1.502 . S
C1161 C1163 1.561 . S
C1161 C1164 1.526 . S
C1162 H1146 0.959 . S
C1162 H1147 0.959 . S
C1162 H1148 0.961 . S
C1162 C1161 1.502 . S
C1163 H1149 0.960 . S
C1163 H1150 0.961 . S
C1163 H1151 0.959 . S
C1163 C1161 1.561 . S
C1164 C1161 1.526 . S
C1164 C1165 1.396 . S
C1164 C1169 1.390 . S
C1165 C1159 1.465 . S
C1165 C1164 1.396 . S
C1165 C1166 1.399 . S
C1166 H1152 0.929 . S
C1166 C1165 1.399 . S
C1166 C1167 1.385 . S
C1167 H1153 0.931 . S
C1167 C1166 1.385 . S
C1167 C1168 1.389 . S
C1168 C1167 1.389 . S
C1168 C1169 1.387 . S
C1169 H1154 0.930 . S
C1169 C1164 1.390 . S
C1169 C1168 1.387 . S
H1170 C1182 0.930 . S
H1171 C1184 0.930 . S
H1172 C1185 0.930 . S
H1173 C1189 0.959 . S
H1174 C1189 0.959 . S
H1175 C1189 0.961 . S
H1176 C1190 0.960 . S
H1177 C1190 0.961 . S
H1178 C1190 0.959 . S
H1179 C1193 0.929 . S
H1180 C1194 0.931 . S
H1181 C1196 0.930 . S
C1182 H1170 0.930 . S
C1182 C1183 1.399 . S
C1182 C1187 1.399 . S
C1183 C1182 1.399 . S
C1183 C1184 1.376 . S
C1184 H1171 0.930 . S
C1184 C1183 1.376 . S
C1184 C1185 1.388 . S
C1185 H1172 0.930 . S
C1185 C1184 1.388 . S
C1185 C1186 1.390 . S
C1186 C1185 1.390 . S
C1186 C1187 1.394 . S
C1186 C1192 1.465 . S
C1187 C1182 1.399 . S
C1187 C1186 1.394 . S
C1187 C1188 1.516 . S
C1188 C1187 1.516 . S
C1188 C1189 1.502 . S
C1188 C1190 1.561 . S
C1188 C1191 1.526 . S
C1189 H1173 0.959 . S
C1189 H1174 0.959 . S
C1189 H1175 0.961 . S
C1189 C1188 1.502 . S
C1190 H1176 0.960 . S
C1190 H1177 0.961 . S
C1190 H1178 0.959 . S
C1190 C1188 1.561 . S
C1191 C1188 1.526 . S
C1191 C1192 1.396 . S
C1191 C1196 1.390 . S
C1192 C1186 1.465 . S
C1192 C1191 1.396 . S
C1192 C1193 1.399 . S
C1193 H1179 0.929 . S
C1193 C1192 1.399 . S
C1193 C1194 1.385 . S
C1194 H1180 0.931 . S
C1194 C1193 1.385 . S
C1194 C1195 1.389 . S
C1195 C1194 1.389 . S
C1195 C1196 1.387 . S
C1196 H1181 0.930 . S
C1196 C1191 1.390 . S
C1196 C1195 1.387 . S
H1197 C1209 0.930 . S
H1198 C1211 0.930 . S
H1199 C1212 0.930 . S
H1200 C1216 0.959 . S
H1201 C1216 0.959 . S
H1202 C1216 0.961 . S
H1203 C1217 0.960 . S
H1204 C1217 0.961 . S
H1205 C1217 0.959 . S
H1206 C1220 0.929 . S
H1207 C1221 0.931 . S
H1208 C1223 0.930 . S
C1209 H1197 0.930 . S
C1209 C1210 1.399 . S
C1209 C1214 1.399 . S
C1210 C1209 1.399 . S
C1210 C1211 1.376 . S
C1211 H1198 0.930 . S
C1211 C1210 1.376 . S
C1211 C1212 1.388 . S
C1212 H1199 0.930 . S
C1212 C1211 1.388 . S
C1212 C1213 1.390 . S
C1213 C1212 1.390 . S
C1213 C1214 1.394 . S
C1213 C1219 1.465 . S
C1214 C1209 1.399 . S
C1214 C1213 1.394 . S
C1214 C1215 1.516 . S
C1215 C1214 1.516 . S
C1215 C1216 1.502 . S
C1215 C1217 1.561 . S
C1215 C1218 1.526 . S
C1216 H1200 0.959 . S
C1216 H1201 0.959 . S
C1216 H1202 0.961 . S
C1216 C1215 1.502 . S
C1217 H1203 0.960 . S
C1217 H1204 0.961 . S
C1217 H1205 0.959 . S
C1217 C1215 1.561 . S
C1218 C1215 1.526 . S
C1218 C1219 1.396 . S
C1218 C1223 1.390 . S
C1219 C1213 1.465 . S
C1219 C1218 1.396 . S
C1219 C1220 1.399 . S
C1220 H1206 0.929 . S
C1220 C1219 1.399 . S
C1220 C1221 1.385 . S
C1221 H1207 0.931 . S
C1221 C1220 1.385 . S
C1221 C1222 1.389 . S
C1222 C1221 1.389 . S
C1222 C1223 1.387 . S
C1223 H1208 0.930 . S
C1223 C1218 1.390 . S
C1223 C1222 1.387 . S
H1224 C1236 0.930 . S
H1225 C1238 0.930 . S
H1226 C1239 0.930 . S
H1227 C1243 0.959 . S
H1228 C1243 0.959 . S
H1229 C1243 0.961 . S
H1230 C1244 0.960 . S
H1231 C1244 0.961 . S
H1232 C1244 0.959 . S
H1233 C1247 0.929 . S
H1234 C1248 0.931 . S
H1235 C1250 0.930 . S
C1236 H1224 0.930 . S
C1236 C1237 1.399 . S
C1236 C1241 1.399 . S
C1237 C1236 1.399 . S
C1237 C1238 1.376 . S
C1238 H1225 0.930 . S
C1238 C1237 1.376 . S
C1238 C1239 1.388 . S
C1239 H1226 0.930 . S
C1239 C1238 1.388 . S
C1239 C1240 1.390 . S
C1240 C1239 1.390 . S
C1240 C1241 1.394 . S
C1240 C1246 1.465 . S
C1241 C1236 1.399 . S
C1241 C1240 1.394 . S
C1241 C1242 1.516 . S
C1242 C1241 1.516 . S
C1242 C1243 1.502 . S
C1242 C1244 1.561 . S
C1242 C1245 1.526 . S
C1243 H1227 0.959 . S
C1243 H1228 0.959 . S
C1243 H1229 0.961 . S
C1243 C1242 1.502 . S
C1244 H1230 0.960 . S
C1244 H1231 0.961 . S
C1244 H1232 0.959 . S
C1244 C1242 1.561 . S
C1245 C1242 1.526 . S
C1245 C1246 1.396 . S
C1245 C1250 1.390 . S
C1246 C1240 1.465 . S
C1246 C1245 1.396 . S
C1246 C1247 1.399 . S
C1247 H1233 0.929 . S
C1247 C1246 1.399 . S
C1247 C1248 1.385 . S
C1248 H1234 0.931 . S
C1248 C1247 1.385 . S
C1248 C1249 1.389 . S
C1249 C1248 1.389 . S
C1249 C1250 1.387 . S
C1250 H1235 0.930 . S
C1250 C1245 1.390 . S
C1250 C1249 1.387 . S
H1251 C1263 0.930 . S
H1252 C1265 0.930 . S
H1253 C1266 0.930 . S
H1254 C1270 0.959 . S
H1255 C1270 0.959 . S
H1256 C1270 0.961 . S
H1257 C1271 0.960 . S
H1258 C1271 0.961 . S
H1259 C1271 0.959 . S
H1260 C1274 0.929 . S
H1261 C1275 0.931 . S
H1262 C1277 0.930 . S
C1263 H1251 0.930 . S
C1263 C1264 1.399 . S
C1263 C1268 1.399 . S
C1264 C1263 1.399 . S
C1264 C1265 1.376 . S
C1265 H1252 0.930 . S
C1265 C1264 1.376 . S
C1265 C1266 1.388 . S
C1266 H1253 0.930 . S
C1266 C1265 1.388 . S
C1266 C1267 1.390 . S
C1267 C1266 1.390 . S
C1267 C1268 1.394 . S
C1267 C1273 1.465 . S
C1268 C1263 1.399 . S
C1268 C1267 1.394 . S
C1268 C1269 1.516 . S
C1269 C1268 1.516 . S
C1269 C1270 1.502 . S
C1269 C1271 1.561 . S
C1269 C1272 1.526 . S
C1270 H1254 0.959 . S
C1270 H1255 0.959 . S
C1270 H1256 0.961 . S
C1270 C1269 1.502 . S
C1271 H1257 0.960 . S
C1271 H1258 0.961 . S
C1271 H1259 0.959 . S
C1271 C1269 1.561 . S
C1272 C1269 1.526 . S
C1272 C1273 1.396 . S
C1272 C1277 1.390 . S
C1273 C1267 1.465 . S
C1273 C1272 1.396 . S
C1273 C1274 1.399 . S
C1274 H1260 0.929 . S
C1274 C1273 1.399 . S
C1274 C1275 1.385 . S
C1275 H1261 0.931 . S
C1275 C1274 1.385 . S
C1275 C1276 1.389 . S
C1276 C1275 1.389 . S
C1276 C1277 1.387 . S
C1277 H1262 0.930 . S
C1277 C1272 1.390 . S
C1277 C1276 1.387 . S
H1278 C1290 0.930 . S
H1279 C1292 0.930 . S
H1280 C1293 0.930 . S
H1281 C1297 0.959 . S
H1282 C1297 0.959 . S
H1283 C1297 0.961 . S
H1284 C1298 0.960 . S
H1285 C1298 0.961 . S
H1286 C1298 0.959 . S
H1287 C1301 0.929 . S
H1288 C1302 0.931 . S
H1289 C1304 0.930 . S
C1290 H1278 0.930 . S
C1290 C1291 1.399 . S
C1290 C1295 1.399 . S
C1291 C1290 1.399 . S
C1291 C1292 1.376 . S
C1292 H1279 0.930 . S
C1292 C1291 1.376 . S
C1292 C1293 1.388 . S
C1293 H1280 0.930 . S
C1293 C1292 1.388 . S
C1293 C1294 1.390 . S
C1294 C1293 1.390 . S
C1294 C1295 1.394 . S
C1294 C1300 1.465 . S
C1295 C1290 1.399 . S
C1295 C1294 1.394 . S
C1295 C1296 1.516 . S
C1296 C1295 1.516 . S
C1296 C1297 1.502 . S
C1296 C1298 1.561 . S
C1296 C1299 1.526 . S
C1297 H1281 0.959 . S
C1297 H1282 0.959 . S
C1297 H1283 0.961 . S
C1297 C1296 1.502 . S
C1298 H1284 0.960 . S
C1298 H1285 0.961 . S
C1298 H1286 0.959 . S
C1298 C1296 1.561 . S
C1299 C1296 1.526 . S
C1299 C1300 1.396 . S
C1299 C1304 1.390 . S
C1300 C1294 1.465 . S
C1300 C1299 1.396 . S
C1300 C1301 1.399 . S
C1301 H1287 0.929 . S
C1301 C1300 1.399 . S
C1301 C1302 1.385 . S
C1302 H1288 0.931 . S
C1302 C1301 1.385 . S
C1302 C1303 1.389 . S
C1303 C1302 1.389 . S
C1303 C1304 1.387 . S
C1304 H1289 0.930 . S
C1304 C1299 1.390 . S
C1304 C1303 1.387 . S
H1305 C1317 0.930 . S
H1306 C1319 0.930 . S
H1307 C1320 0.930 . S
H1308 C1324 0.959 . S
H1309 C1324 0.959 . S
H1310 C1324 0.961 . S
H1311 C1325 0.960 . S
H1312 C1325 0.961 . S
H1313 C1325 0.959 . S
H1314 C1328 0.929 . S
H1315 C1329 0.931 . S
H1316 C1331 0.930 . S
C1317 H1305 0.930 . S
C1317 C1318 1.399 . S
C1317 C1322 1.399 . S
C1318 C1317 1.399 . S
C1318 C1319 1.376 . S
C1319 H1306 0.930 . S
C1319 C1318 1.376 . S
C1319 C1320 1.388 . S
C1320 H1307 0.930 . S
C1320 C1319 1.388 . S
C1320 C1321 1.390 . S
C1321 C1320 1.390 . S
C1321 C1322 1.394 . S
C1321 C1327 1.465 . S
C1322 C1317 1.399 . S
C1322 C1321 1.394 . S
C1322 C1323 1.516 . S
C1323 C1322 1.516 . S
C1323 C1324 1.502 . S
C1323 C1325 1.561 . S
C1323 C1326 1.526 . S
C1324 H1308 0.959 . S
C1324 H1309 0.959 . S
C1324 H1310 0.961 . S
C1324 C1323 1.502 . S
C1325 H1311 0.960 . S
C1325 H1312 0.961 . S
C1325 H1313 0.959 . S
C1325 C1323 1.561 . S
C1326 C1323 1.526 . S
C1326 C1327 1.396 . S
C1326 C1331 1.390 . S
C1327 C1321 1.465 . S
C1327 C1326 1.396 . S
C1327 C1328 1.399 . S
C1328 H1314 0.929 . S
C1328 C1327 1.399 . S
C1328 C1329 1.385 . S
C1329 H1315 0.931 . S
C1329 C1328 1.385 . S
C1329 C1330 1.389 . S
C1330 C1329 1.389 . S
C1330 C1331 1.387 . S
C1331 H1316 0.930 . S
C1331 C1326 1.390 . S
C1331 C1330 1.387 . S
H1332 C1344 0.930 . S
H1333 C1346 0.930 . S
H1334 C1347 0.930 . S
H1335 C1351 0.959 . S
H1336 C1351 0.959 . S
H1337 C1351 0.961 . S
H1338 C1352 0.960 . S
H1339 C1352 0.961 . S
H1340 C1352 0.959 . S
H1341 C1355 0.929 . S
H1342 C1356 0.931 . S
H1343 C1358 0.930 . S
C1344 H1332 0.930 . S
C1344 C1345 1.399 . S
C1344 C1349 1.399 . S
C1345 C1344 1.399 . S
C1345 C1346 1.376 . S
C1346 H1333 0.930 . S
C1346 C1345 1.376 . S
C1346 C1347 1.388 . S
C1347 H1334 0.930 . S
C1347 C1346 1.388 . S
C1347 C1348 1.390 . S
C1348 C1347 1.390 . S
C1348 C1349 1.394 . S
C1348 C1354 1.465 . S
C1349 C1344 1.399 . S
C1349 C1348 1.394 . S
C1349 C1350 1.516 . S
C1350 C1349 1.516 . S
C1350 C1351 1.502 . S
C1350 C1352 1.561 . S
C1350 C1353 1.526 . S
C1351 H1335 0.959 . S
C1351 H1336 0.959 . S
C1351 H1337 0.961 . S
C1351 C1350 1.502 . S
C1352 H1338 0.960 . S
C1352 H1339 0.961 . S
C1352 H1340 0.959 . S
C1352 C1350 1.561 . S
C1353 C1350 1.526 . S
C1353 C1354 1.396 . S
C1353 C1358 1.390 . S
C1354 C1348 1.465 . S
C1354 C1353 1.396 . S
C1354 C1355 1.399 . S
C1355 H1341 0.929 . S
C1355 C1354 1.399 . S
C1355 C1356 1.385 . S
C1356 H1342 0.931 . S
C1356 C1355 1.385 . S
C1356 C1357 1.389 . S
C1357 C1356 1.389 . S
C1357 C1358 1.387 . S
C1358 H1343 0.930 . S
C1358 C1353 1.390 . S
C1358 C1357 1.387 . S
H1359 C1371 0.930 . S
H1360 C1373 0.930 . S
H1361 C1374 0.930 . S
H1362 C1378 0.959 . S
H1363 C1378 0.959 . S
H1364 C1378 0.961 . S
H1365 C1379 0.960 . S
H1366 C1379 0.961 . S
H1367 C1379 0.959 . S
H1368 C1382 0.929 . S
H1369 C1383 0.931 . S
H1370 C1385 0.930 . S
C1371 H1359 0.930 . S
C1371 C1372 1.399 . S
C1371 C1376 1.399 . S
C1372 C1371 1.399 . S
C1372 C1373 1.376 . S
C1373 H1360 0.930 . S
C1373 C1372 1.376 . S
C1373 C1374 1.388 . S
C1374 H1361 0.930 . S
C1374 C1373 1.388 . S
C1374 C1375 1.390 . S
C1375 C1374 1.390 . S
C1375 C1376 1.394 . S
C1375 C1381 1.465 . S
C1376 C1371 1.399 . S
C1376 C1375 1.394 . S
C1376 C1377 1.516 . S
C1377 C1376 1.516 . S
C1377 C1378 1.502 . S
C1377 C1379 1.561 . S
C1377 C1380 1.526 . S
C1378 H1362 0.959 . S
C1378 H1363 0.959 . S
C1378 H1364 0.961 . S
C1378 C1377 1.502 . S
C1379 H1365 0.960 . S
C1379 H1366 0.961 . S
C1379 H1367 0.959 . S
C1379 C1377 1.561 . S
C1380 C1377 1.526 . S
C1380 C1381 1.396 . S
C1380 C1385 1.390 . S
C1381 C1375 1.465 . S
C1381 C1380 1.396 . S
C1381 C1382 1.399 . S
C1382 H1368 0.929 . S
C1382 C1381 1.399 . S
C1382 C1383 1.385 . S
C1383 H1369 0.931 . S
C1383 C1382 1.385 . S
C1383 C1384 1.389 . S
C1384 C1383 1.389 . S
C1384 C1385 1.387 . S
C1385 H1370 0.930 . S
C1385 C1380 1.390 . S
C1385 C1384 1.387 . S
H1386 C1398 0.930 . S
H1387 C1400 0.930 . S
H1388 C1401 0.930 . S
H1389 C1405 0.959 . S
H1390 C1405 0.959 . S
H1391 C1405 0.961 . S
H1392 C1406 0.960 . S
H1393 C1406 0.961 . S
H1394 C1406 0.959 . S
H1395 C1409 0.929 . S
H1396 C1410 0.931 . S
H1397 C1412 0.930 . S
C1398 H1386 0.930 . S
C1398 C1399 1.399 . S
C1398 C1403 1.399 . S
C1399 C1398 1.399 . S
C1399 C1400 1.376 . S
C1400 H1387 0.930 . S
C1400 C1399 1.376 . S
C1400 C1401 1.388 . S
C1401 H1388 0.930 . S
C1401 C1400 1.388 . S
C1401 C1402 1.390 . S
C1402 C1401 1.390 . S
C1402 C1403 1.394 . S
C1402 C1408 1.465 . S
C1403 C1398 1.399 . S
C1403 C1402 1.394 . S
C1403 C1404 1.516 . S
C1404 C1403 1.516 . S
C1404 C1405 1.502 . S
C1404 C1406 1.561 . S
C1404 C1407 1.526 . S
C1405 H1389 0.959 . S
C1405 H1390 0.959 . S
C1405 H1391 0.961 . S
C1405 C1404 1.502 . S
C1406 H1392 0.960 . S
C1406 H1393 0.961 . S
C1406 H1394 0.959 . S
C1406 C1404 1.561 . S
C1407 C1404 1.526 . S
C1407 C1408 1.396 . S
C1407 C1412 1.390 . S
C1408 C1402 1.465 . S
C1408 C1407 1.396 . S
C1408 C1409 1.399 . S
C1409 H1395 0.929 . S
C1409 C1408 1.399 . S
C1409 C1410 1.385 . S
C1410 H1396 0.931 . S
C1410 C1409 1.385 . S
C1410 C1411 1.389 . S
C1411 C1410 1.389 . S
C1411 C1412 1.387 . S
C1412 H1397 0.930 . S
C1412 C1407 1.390 . S
C1412 C1411 1.387 . S
H1413 C1425 0.930 . S
H1414 C1427 0.930 . S
H1415 C1428 0.930 . S
H1416 C1432 0.959 . S
H1417 C1432 0.959 . S
H1418 C1432 0.961 . S
H1419 C1433 0.960 . S
H1420 C1433 0.961 . S
H1421 C1433 0.959 . S
H1422 C1436 0.929 . S
H1423 C1437 0.931 . S
H1424 C1439 0.930 . S
C1425 H1413 0.930 . S
C1425 C1426 1.399 . S
C1425 C1430 1.399 . S
C1426 C1425 1.399 . S
C1426 C1427 1.376 . S
C1427 H1414 0.930 . S
C1427 C1426 1.376 . S
C1427 C1428 1.388 . S
C1428 H1415 0.930 . S
C1428 C1427 1.388 . S
C1428 C1429 1.390 . S
C1429 C1428 1.390 . S
C1429 C1430 1.394 . S
C1429 C1435 1.465 . S
C1430 C1425 1.399 . S
C1430 C1429 1.394 . S
C1430 C1431 1.516 . S
C1431 C1430 1.516 . S
C1431 C1432 1.502 . S
C1431 C1433 1.561 . S
C1431 C1434 1.526 . S
C1432 H1416 0.959 . S
C1432 H1417 0.959 . S
C1432 H1418 0.961 . S
C1432 C1431 1.502 . S
C1433 H1419 0.960 . S
C1433 H1420 0.961 . S
C1433 H1421 0.959 . S
C1433 C1431 1.561 . S
C1434 C1431 1.526 . S
C1434 C1435 1.396 . S
C1434 C1439 1.390 . S
C1435 C1429 1.465 . S
C1435 C1434 1.396 . S
C1435 C1436 1.399 . S
C1436 H1422 0.929 . S
C1436 C1435 1.399 . S
C1436 C1437 1.385 . S
C1437 H1423 0.931 . S
C1437 C1436 1.385 . S
C1437 C1438 1.389 . S
C1438 C1437 1.389 . S
C1438 C1439 1.387 . S
C1439 H1424 0.930 . S
C1439 C1434 1.390 . S
C1439 C1438 1.387 . S
H1440 C1452 0.930 . S
H1441 C1454 0.930 . S
H1442 C1455 0.930 . S
H1443 C1459 0.959 . S
H1444 C1459 0.959 . S
H1445 C1459 0.961 . S
H1446 C1460 0.960 . S
H1447 C1460 0.961 . S
H1448 C1460 0.959 . S
H1449 C1463 0.929 . S
H1450 C1464 0.931 . S
H1451 C1466 0.930 . S
C1452 H1440 0.930 . S
C1452 C1453 1.399 . S
C1452 C1457 1.399 . S
C1453 C1452 1.399 . S
C1453 C1454 1.376 . S
C1454 H1441 0.930 . S
C1454 C1453 1.376 . S
C1454 C1455 1.388 . S
C1455 H1442 0.930 . S
C1455 C1454 1.388 . S
C1455 C1456 1.390 . S
C1456 C1455 1.390 . S
C1456 C1457 1.394 . S
C1456 C1462 1.465 . S
C1457 C1452 1.399 . S
C1457 C1456 1.394 . S
C1457 C1458 1.516 . S
C1458 C1457 1.516 . S
C1458 C1459 1.502 . S
C1458 C1460 1.561 . S
C1458 C1461 1.526 . S
C1459 H1443 0.959 . S
C1459 H1444 0.959 . S
C1459 H1445 0.961 . S
C1459 C1458 1.502 . S
C1460 H1446 0.960 . S
C1460 H1447 0.961 . S
C1460 H1448 0.959 . S
C1460 C1458 1.561 . S
C1461 C1458 1.526 . S
C1461 C1462 1.396 . S
C1461 C1466 1.390 . S
C1462 C1456 1.465 . S
C1462 C1461 1.396 . S
C1462 C1463 1.399 . S
C1463 H1449 0.929 . S
C1463 C1462 1.399 . S
C1463 C1464 1.385 . S
C1464 H1450 0.931 . S
C1464 C1463 1.385 . S
C1464 C1465 1.389 . S
C1465 C1464 1.389 . S
C1465 C1466 1.387 . S
C1466 H1451 0.930 . S
C1466 C1461 1.390 . S
C1466 C1465 1.387 . S
H1467 C1479 0.930 . S
H1468 C1481 0.930 . S
H1469 C1482 0.930 . S
H1470 C1486 0.959 . S
H1471 C1486 0.959 . S
H1472 C1486 0.961 . S
H1473 C1487 0.960 . S
H1474 C1487 0.961 . S
H1475 C1487 0.959 . S
H1476 C1490 0.929 . S
H1477 C1491 0.931 . S
H1478 C1493 0.930 . S
C1479 H1467 0.930 . S
C1479 C1480 1.399 . S
C1479 C1484 1.399 . S
C1480 C1479 1.399 . S
C1480 C1481 1.376 . S
C1481 H1468 0.930 . S
C1481 C1480 1.376 . S
C1481 C1482 1.388 . S
C1482 H1469 0.930 . S
C1482 C1481 1.388 . S
C1482 C1483 1.390 . S
C1483 C1482 1.390 . S
C1483 C1484 1.394 . S
C1483 C1489 1.465 . S
C1484 C1479 1.399 . S
C1484 C1483 1.394 . S
C1484 C1485 1.516 . S
C1485 C1484 1.516 . S
C1485 C1486 1.502 . S
C1485 C1487 1.561 . S
C1485 C1488 1.526 . S
C1486 H1470 0.959 . S
C1486 H1471 0.959 . S
C1486 H1472 0.961 . S
C1486 C1485 1.502 . S
C1487 H1473 0.960 . S
C1487 H1474 0.961 . S
C1487 H1475 0.959 . S
C1487 C1485 1.561 . S
C1488 C1485 1.526 . S
C1488 C1489 1.396 . S
C1488 C1493 1.390 . S
C1489 C1483 1.465 . S
C1489 C1488 1.396 . S
C1489 C1490 1.399 . S
C1490 H1476 0.929 . S
C1490 C1489 1.399 . S
C1490 C1491 1.385 . S
C1491 H1477 0.931 . S
C1491 C1490 1.385 . S
C1491 C1492 1.389 . S
C1492 C1491 1.389 . S
C1492 C1493 1.387 . S
C1493 H1478 0.930 . S
C1493 C1488 1.390 . S
C1493 C1492 1.387 . S
H1494 C1506 0.930 . S
H1495 C1508 0.930 . S
H1496 C1509 0.930 . S
H1497 C1513 0.959 . S
H1498 C1513 0.959 . S
H1499 C1513 0.961 . S
H1500 C1514 0.960 . S
H1501 C1514 0.961 . S
H1502 C1514 0.959 . S
H1503 C1517 0.929 . S
H1504 C1518 0.931 . S
H1505 C1520 0.930 . S
C1506 H1494 0.930 . S
C1506 C1507 1.399 . S
C1506 C1511 1.399 . S
C1507 C1506 1.399 . S
C1507 C1508 1.376 . S
C1508 H1495 0.930 . S
C1508 C1507 1.376 . S
C1508 C1509 1.388 . S
C1509 H1496 0.930 . S
C1509 C1508 1.388 . S
C1509 C1510 1.390 . S
C1510 C1509 1.390 . S
C1510 C1511 1.394 . S
C1510 C1516 1.465 . S
C1511 C1506 1.399 . S
C1511 C1510 1.394 . S
C1511 C1512 1.516 . S
C1512 C1511 1.516 . S
C1512 C1513 1.502 . S
C1512 C1514 1.561 . S
C1512 C1515 1.526 . S
C1513 H1497 0.959 . S
C1513 H1498 0.959 . S
C1513 H1499 0.961 . S
C1513 C1512 1.502 . S
C1514 H1500 0.960 . S
C1514 H1501 0.961 . S
C1514 H1502 0.959 . S
C1514 C1512 1.561 . S
C1515 C1512 1.526 . S
C1515 C1516 1.396 . S
C1515 C1520 1.390 . S
C1516 C1510 1.465 . S
C1516 C1515 1.396 . S
C1516 C1517 1.399 . S
C1517 H1503 0.929 . S
C1517 C1516 1.399 . S
C1517 C1518 1.385 . S
C1518 H1504 0.931 . S
C1518 C1517 1.385 . S
C1518 C1519 1.389 . S
C1519 C1518 1.389 . S
C1519 C1520 1.387 . S
C1520 H1505 0.930 . S
C1520 C1515 1.390 . S
C1520 C1519 1.387 . S
H1521 C1533 0.930 . S
H1522 C1535 0.930 . S
H1523 C1536 0.930 . S
H1524 C1540 0.959 . S
H1525 C1540 0.959 . S
H1526 C1540 0.961 . S
H1527 C1541 0.960 . S
H1528 C1541 0.961 . S
H1529 C1541 0.959 . S
H1530 C1544 0.929 . S
H1531 C1545 0.931 . S
H1532 C1547 0.930 . S
C1533 H1521 0.930 . S
C1533 C1534 1.399 . S
C1533 C1538 1.399 . S
C1534 C1533 1.399 . S
C1534 C1535 1.376 . S
C1535 H1522 0.930 . S
C1535 C1534 1.376 . S
C1535 C1536 1.388 . S
C1536 H1523 0.930 . S
C1536 C1535 1.388 . S
C1536 C1537 1.390 . S
C1537 C1536 1.390 . S
C1537 C1538 1.394 . S
C1537 C1543 1.465 . S
C1538 C1533 1.399 . S
C1538 C1537 1.394 . S
C1538 C1539 1.516 . S
C1539 C1538 1.516 . S
C1539 C1540 1.502 . S
C1539 C1541 1.561 . S
C1539 C1542 1.526 . S
C1540 H1524 0.959 . S
C1540 H1525 0.959 . S
C1540 H1526 0.961 . S
C1540 C1539 1.502 . S
C1541 H1527 0.960 . S
C1541 H1528 0.961 . S
C1541 H1529 0.959 . S
C1541 C1539 1.561 . S
C1542 C1539 1.526 . S
C1542 C1543 1.396 . S
C1542 C1547 1.390 . S
C1543 C1537 1.465 . S
C1543 C1542 1.396 . S
C1543 C1544 1.399 . S
C1544 H1530 0.929 . S
C1544 C1543 1.399 . S
C1544 C1545 1.385 . S
C1545 H1531 0.931 . S
C1545 C1544 1.385 . S
C1545 C1546 1.389 . S
C1546 C1545 1.389 . S
C1546 C1547 1.387 . S
C1547 H1532 0.930 . S
C1547 C1542 1.390 . S
C1547 C1546 1.387 . S
C925 C841 1.731 . S
C913 C29 1.645 . S
C940 C115 1.644 . S
C952 C401 1.624 . S
C967 C153 1.669 . S
C979 C489 1.708 . S
C994 C239 1.612 . S
C1006 C568 1.645 . S
C1033 C665 1.645 . S
C1021 C301 1.663 . S
C1048 C339 1.877 . S
C1060 C744 1.964 . S
C1075 C91 1.597 . S
C1087 C509 1.694 . S
C1102 C177 1.588 . S
C1114 C605 1.622 . S
C1129 C215 1.700 . S
C1141 C685 1.724 . S
C1168 C781 1.996 . S
C1156 C277 1.929 . S
C1195 C861 1.637 . S
C1183 C363 1.657 . S
C1222 C421 1.666 . S
C1210 C53 1.639 . S
C1237 C35 1.555 . S
C1249 C517 1.546 . S
C1264 C109 1.398 . S
C1276 C597 1.492 . S
C1303 C693 1.427 . S
C1291 C159 1.411 . S
C1318 C233 1.559 . S
C1330 C773 1.733 1_556 S
C1357 C869 1.554 . S
C1345 C295 1.461 . S
C1384 C429 1.351 . S
C1372 C345 1.290 . S
C1411 C832 1.429 . S
C1399 C97 1.368 . S
C1426 C171 1.437 . S
C1438 C392 1.499 . S
C1465 C480 1.562 . S
C1453 C221 1.537 . S
C1480 C283 1.292 . S
C1492 C577 1.355 . S
C1507 C357 1.392 . S
C1519 C656 1.549 1_554 S
C1534 C47 1.560 . S
C1546 C753 1.748 . S
