# Generated by pormake.
# Topology pyr, (3,6)-cn, num edge types: 1
# Building blocks:
#     Node 0, Type 0, BuildingBlock: QEWDON_clean_linker_0, # of connection points: 3
#     Node 1, Type 0, BuildingBlock: QEWDON_clean_linker_0, # of connection points: 3
#     Node 2, Type 0, BuildingBlock: QEWDON_clean_linker_0, # of connection points: 3
#     Node 3, Type 0, BuildingBlock: QEWDON_clean_linker_0, # of connection points: 3
#     Node 4, Type 0, BuildingBlock: QEWDON_clean_linker_0, # of connection points: 3
#     Node 5, Type 0, BuildingBlock: QEWDON_clean_linker_0, # of connection points: 3
#     Node 6, Type 0, BuildingBlock: QEWDON_clean_linker_0, # of connection points: 3
#     Node 7, Type 0, BuildingBlock: QEWDON_clean_linker_0, # of connection points: 3
#     Node 8, Type 1, BuildingBlock: INOVEN_clean_sbu_0, # of connection points: 6
#     Node 9, Type 1, BuildingBlock: INOVEN_clean_sbu_0, # of connection points: 6
#     Node 10, Type 1, BuildingBlock: INOVEN_clean_sbu_0, # of connection points: 6
#     Node 11, Type 1, BuildingBlock: INOVEN_clean_sbu_0, # of connection points: 6
#     Edge 12, Type (0, 1), BuildingBlock: XIVTED_clean_linker_0, # of connection points: 2
#     Edge 13, Type (0, 1), BuildingBlock: XIVTED_clean_linker_0, # of connection points: 2
#     Edge 14, Type (0, 1), BuildingBlock: XIVTED_clean_linker_0, # of connection points: 2
#     Edge 15, Type (0, 1), BuildingBlock: XIVTED_clean_linker_0, # of connection points: 2
#     Edge 16, Type (0, 1), BuildingBlock: XIVTED_clean_linker_0, # of connection points: 2
#     Edge 17, Type (0, 1), BuildingBlock: XIVTED_clean_linker_0, # of connection points: 2
#     Edge 18, Type (0, 1), BuildingBlock: XIVTED_clean_linker_0, # of connection points: 2
#     Edge 19, Type (0, 1), BuildingBlock: XIVTED_clean_linker_0, # of connection points: 2
#     Edge 20, Type (0, 1), BuildingBlock: XIVTED_clean_linker_0, # of connection points: 2
#     Edge 21, Type (0, 1), BuildingBlock: XIVTED_clean_linker_0, # of connection points: 2
#     Edge 22, Type (0, 1), BuildingBlock: XIVTED_clean_linker_0, # of connection points: 2
#     Edge 23, Type (0, 1), BuildingBlock: XIVTED_clean_linker_0, # of connection points: 2
#     Edge 24, Type (0, 1), BuildingBlock: XIVTED_clean_linker_0, # of connection points: 2
#     Edge 25, Type (0, 1), BuildingBlock: XIVTED_clean_linker_0, # of connection points: 2
#     Edge 26, Type (0, 1), BuildingBlock: XIVTED_clean_linker_0, # of connection points: 2
#     Edge 27, Type (0, 1), BuildingBlock: XIVTED_clean_linker_0, # of connection points: 2
#     Edge 28, Type (0, 1), BuildingBlock: XIVTED_clean_linker_0, # of connection points: 2
#     Edge 29, Type (0, 1), BuildingBlock: XIVTED_clean_linker_0, # of connection points: 2
#     Edge 30, Type (0, 1), BuildingBlock: XIVTED_clean_linker_0, # of connection points: 2
#     Edge 31, Type (0, 1), BuildingBlock: XIVTED_clean_linker_0, # of connection points: 2
#     Edge 32, Type (0, 1), BuildingBlock: XIVTED_clean_linker_0, # of connection points: 2
#     Edge 33, Type (0, 1), BuildingBlock: XIVTED_clean_linker_0, # of connection points: 2
#     Edge 34, Type (0, 1), BuildingBlock: XIVTED_clean_linker_0, # of connection points: 2
#     Edge 35, Type (0, 1), BuildingBlock: XIVTED_clean_linker_0, # of connection points: 2
# Relax obj value: 0.166
# Max RMSD: 0.266
# Mean RMSD: 0.196
data_MOF--net-pyr--node1-INOVEN_clean_sbu_0--node2-QEWDON_clean_linker_0--edge1-XIVTED_clean_linker_0
_symmetry_space_group_name_H-M    P1
_symmetry_Int_Tables_number       1
_symmetry_cell_setting            triclinic
loop_
_symmetry_equiv_pos_as_xyz
'x, y, z'
_cell_length_a     38.958884
_cell_length_b     40.641359
_cell_length_c     38.789617
_cell_angle_alpha  91.138337
_cell_angle_beta   88.627535
_cell_angle_gamma 109.34692
loop_
_atom_site_label
_atom_site_type_symbol
_atom_site_fract_x
_atom_site_fract_y
_atom_site_fract_z
_atom_type_partial_charge
H0 H 0.44076 0.35503 0.19915 0.0
C1 C 0.42383 0.34949 0.22232 0.0
C2 C 0.4198 0.31895 0.24065 0.0
C3 C 0.40413 0.37165 0.23244 0.0
H4 H 0.39517 0.28863 0.28486 0.0
C5 C 0.39708 0.31152 0.27005 0.0
C6 C 0.37594 0.33233 0.27978 0.0
C7 C 0.38009 0.36271 0.26108 0.0
C8 C 0.40707 0.40306 0.21199 0.0
H9 H 0.36397 0.37904 0.26824 0.0
C10 C 0.37573 0.41136 0.2045 0.0
C11 C 0.37816 0.44121 0.18547 0.0
C12 C 0.44108 0.42487 0.19978 0.0
H13 H 0.46572 0.41933 0.20535 0.0
C14 C 0.4437 0.45441 0.1807 0.0
H15 H 0.34926 0.39408 0.2128 0.0
C16 C 0.41253 0.46262 0.17359 0.0
H17 H 0.4154 0.48599 0.15922 0.0
H18 H 0.47005 0.47117 0.17159 0.0
H19 H 0.17376 0.87148 0.77294 0.0
C20 C 0.19189 0.85849 0.76218 0.0
C21 C 0.22365 0.86036 0.77955 0.0
C22 C 0.18345 0.83972 0.73093 0.0
H23 H 0.27271 0.84695 0.77764 0.0
C24 C 0.24753 0.84453 0.76482 0.0
C25 C 0.24006 0.82689 0.73302 0.0
C26 C 0.20741 0.82364 0.71664 0.0
C27 C 0.15147 0.83961 0.71138 0.0
H28 H 0.20169 0.81048 0.69178 0.0
C29 C 0.14915 0.87118 0.69958 0.0
C30 C 0.12076 0.87144 0.67805 0.0
C31 C 0.12473 0.80809 0.70224 0.0
H32 H 0.12631 0.78348 0.71093 0.0
C33 C 0.09584 0.80823 0.68166 0.0
H34 H 0.17055 0.89537 0.70574 0.0
C35 C 0.09392 0.83967 0.6694 0.0
H36 H 0.07156 0.83915 0.65309 0.0
H37 H 0.07518 0.78387 0.67476 0.0
H38 H 0.71613 0.47596 0.90899 0.0
C39 C 0.70588 0.44845 0.91498 0.0
C40 C 0.72769 0.4332 0.93311 0.0
C41 C 0.66995 0.42875 0.90638 0.0
H42 H 0.72922 0.38582 0.9563 0.0
C43 C 0.71315 0.39765 0.94168 0.0
C44 C 0.6774 0.37752 0.93311 0.0
C45 C 0.65621 0.39327 0.91514 0.0
C46 C 0.64446 0.44615 0.8942 0.0
H47 H 0.6281 0.37847 0.90968 0.0
C48 C 0.65023 0.46502 0.8631 0.0
C49 C 0.62523 0.48147 0.85322 0.0
C50 C 0.61368 0.44392 0.91489 0.0
H51 H 0.60879 0.42982 0.93893 0.0
C52 C 0.58914 0.46016 0.90518 0.0
H53 H 0.67382 0.4669 0.84688 0.0
C54 C 0.59484 0.47882 0.87467 0.0
H55 H 0.57515 0.49096 0.86757 0.0
H56 H 0.56559 0.45829 0.92139 0.0
H57 H 0.91573 0.81884 0.38652 0.0
C58 C 0.89443 0.80134 0.40237 0.0
C59 C 0.88968 0.8103 0.43701 0.0
C60 C 0.87105 0.77031 0.38769 0.0
H61 H 0.85589 0.79556 0.48265 0.0
C62 C 0.86089 0.78781 0.45664 0.0
C63 C 0.83679 0.75693 0.44229 0.0
C64 C 0.84248 0.74821 0.40778 0.0
C65 C 0.87198 0.76431 0.34991 0.0
H66 H 0.82387 0.72492 0.39599 0.0
C67 C 0.88872 0.74144 0.33471 0.0
C68 C 0.88713 0.73534 0.29868 0.0
C69 C 0.85428 0.78113 0.32889 0.0
H70 H 0.84123 0.79868 0.34011 0.0
C71 C 0.85276 0.7751 0.29337 0.0
H72 H 0.90244 0.7283 0.35072 0.0
C73 C 0.86889 0.75225 0.27836 0.0
H74 H 0.8674 0.74796 0.25069 0.0
H75 H 0.83888 0.78808 0.27742 0.0
H76 H 0.68492 0.78142 0.94105 0.0
C77 C 0.69786 0.79518 0.91803 0.0
C78 C 0.73121 0.7926 0.9063 0.0
C79 C 0.68141 0.81581 0.90037 0.0
H80 H 0.77435 0.80955 0.86843 0.0
C81 C 0.74793 0.81059 0.87671 0.0
C82 C 0.73229 0.8317 0.85907 0.0
C83 C 0.69906 0.83444 0.87116 0.0
C84 C 0.64568 0.8176 0.91238 0.0
H85 H 0.68665 0.85051 0.85753 0.0
C86 C 0.64024 0.84995 0.91733 0.0
C87 C 0.60637 0.8515 0.92933 0.0
C88 C 0.61684 0.78673 0.9192 0.0
H89 H 0.62032 0.76153 0.91538 0.0
C90 C 0.58312 0.78806 0.93063 0.0
H91 H 0.66247 0.87383 0.91218 0.0
C92 C 0.57786 0.82014 0.93575 0.0
H93 H 0.55166 0.82036 0.94552 0.0
H94 H 0.56104 0.76413 0.93583 0.0
H95 H 0.785 0.21025 0.55969 0.0
C96 C 0.7765 0.20551 0.53312 0.0
C97 C 0.79512 0.19029 0.50989 0.0
C98 C 0.74735 0.21543 0.52236 0.0
H99 H 0.79826 0.17312 0.45733 0.0
C100 C 0.78433 0.18525 0.47539 0.0
C101 C 0.75541 0.19542 0.46403 0.0
C102 C 0.73721 0.21089 0.48762 0.0
C103 C 0.72743 0.23003 0.54792 0.0
H104 H 0.71439 0.21819 0.47929 0.0
C105 C 0.72141 0.26153 0.5416 0.0
C106 C 0.70399 0.2763 0.56662 0.0
C107 C 0.71559 0.2131 0.57942 0.0
H108 H 0.71986 0.1887 0.58479 0.0
C109 C 0.69799 0.22743 0.60418 0.0
H110 H 0.73136 0.27501 0.51766 0.0
C111 C 0.69221 0.25884 0.59792 0.0
H112 H 0.67809 0.26921 0.61741 0.0
H113 H 0.68877 0.21415 0.62831 0.0
H114 H 0.43169 0.81389 0.26063 0.0
C115 C 0.40521 0.80088 0.24978 0.0
C116 C 0.38901 0.81905 0.22822 0.0
C117 C 0.38835 0.76507 0.25581 0.0
H118 H 0.34303 0.81315 0.19552 0.0
C119 C 0.35497 0.80053 0.21379 0.0
C120 C 0.33715 0.76501 0.22062 0.0
C121 C 0.35412 0.74764 0.24183 0.0
C122 C 0.40927 0.74403 0.26993 0.0
H123 H 0.34137 0.72003 0.24661 0.0
C124 C 0.41982 0.74631 0.30476 0.0
C125 C 0.43977 0.72539 0.31642 0.0
C126 C 0.41859 0.7208 0.2473 0.0
H127 H 0.41076 0.7187 0.2205 0.0
C128 C 0.43818 0.70024 0.25877 0.0
H129 H 0.41267 0.76407 0.32245 0.0
C130 C 0.44871 0.70247 0.29298 0.0
H131 H 0.46361 0.68586 0.3013 0.0
H132 H 0.44517 0.68242 0.24107 0.0
H133 H 0.25016 0.49333 0.7817 0.0
C134 C 0.23622 0.46952 0.76762 0.0
C135 C 0.24636 0.4653 0.73305 0.0
C136 C 0.20946 0.44227 0.78466 0.0
H137 H 0.23621 0.43051 0.68906 0.0
C138 C 0.22848 0.43372 0.71555 0.0
C139 C 0.20223 0.40575 0.73225 0.0
C140 C 0.19285 0.41064 0.76681 0.0
C141 C 0.20271 0.444 0.82252 0.0
H142 H 0.17376 0.38922 0.78072 0.0
C143 C 0.1895 0.46938 0.83819 0.0
C144 C 0.18188 0.46862 0.87422 0.0
C145 C 0.20871 0.4185 0.84316 0.0
H146 H 0.21904 0.39895 0.83186 0.0
C147 C 0.20129 0.41764 0.87841 0.0
H148 H 0.18491 0.48919 0.82245 0.0
C149 C 0.18777 0.44216 0.89377 0.0
H150 H 0.1813 0.43989 0.92111 0.0
H151 H 0.20567 0.39757 0.89391 0.0
Gd152 Gd 0.06784 0.12294 0.54848 0.0
Gd153 Gd 0.04714 0.08963 0.61888 0.0
C154 C 0.09594 0.16939 0.61845 0.0
C155 C 0.07927 0.16263 0.49531 0.0
C156 C 0.11085 0.19086 0.48229 0.0
C157 C 0.14498 0.19729 0.4971 0.0
C158 C 0.10776 0.20943 0.45317 0.0
C159 C 0.17342 0.23755 0.45117 0.0
C160 C 0.13887 0.23282 0.43775 0.0
C161 C 0.17608 0.22038 0.48156 0.0
C162 C 0.11343 0.0911 0.57251 0.0
C163 C 0.02047 0.04308 0.54882 0.0
C164 C 0.03246 0.04952 0.67184 0.0
C165 C 0.99805 1.02531 0.68531 0.0
C166 C 0.96491 1.0296 0.67701 0.0
C167 C 0.99802 0.99769 0.70631 0.0
C168 C 0.93198 0.97961 0.71184 0.0
C169 C 0.96519 0.97491 0.71944 0.0
C170 C 0.93216 1.00708 0.69036 0.0
C171 C 1.00013 0.11932 0.59452 0.0
O172 O 0.0882 0.16906 0.58538 0.0
O173 O 0.08807 0.14024 0.63609 0.0
O174 O 0.08314 0.13185 0.49478 0.0
O175 O 0.06426 0.16921 0.52401 0.0
O176 O 0.10726 0.09322 0.54009 0.0
O177 O 0.09832 0.10908 0.58975 0.0
O178 O 0.03027 0.04355 0.58135 0.0
O179 O 0.0261 0.07245 0.53202 0.0
O180 O 0.03537 0.08249 0.67345 0.0
O181 O 0.04391 0.04059 0.64232 0.0
O182 O 1.00585 0.11716 0.62693 0.0
O183 O 0.01618 0.10237 0.57712 0.0
H184 H 0.14773 0.18324 0.51976 0.0
H185 H 0.08154 0.2047 0.44149 0.0
H186 H 0.13615 0.2455 0.41416 0.0
H187 H 0.20239 0.22376 0.49248 0.0
H188 H 0.96439 0.05053 0.66039 0.0
H189 H 0.02336 0.99391 0.71276 0.0
H190 H 0.96584 0.9541 0.73616 0.0
H191 H 0.90696 1.01104 0.68377 0.0
Gd192 Gd 0.57002 0.10787 0.0961 0.0
Gd193 Gd 0.49661 0.08832 0.06441 0.0
C194 C 0.51541 0.14207 0.12956 0.0
C195 C 0.63677 0.12761 0.1155 0.0
C196 C 0.65253 0.13442 0.15012 0.0
C197 C 0.63644 0.11208 0.17749 0.0
C198 C 0.68228 0.16455 0.15661 0.0
C199 C 0.67944 0.15001 0.21745 0.0
C200 C 0.6956 0.17236 0.19006 0.0
C201 C 0.64985 0.11972 0.21075 0.0
C202 C 0.51841 0.05575 0.12942 0.0
C203 C 0.55193 0.05605 1.0296 0.0
C204 C 0.4281 0.06792 0.04999 0.0
C205 C 0.4033 0.04789 1.02328 0.0
C206 C 0.41175 0.05343 0.98801 0.0
C207 C 0.37036 1.0228 0.03341 0.0
C208 C 0.3545 1.00881 0.97339 0.0
C209 C 0.34621 1.00333 1.00871 0.0
C210 C 0.38744 1.03415 0.96327 0.0
C211 C 0.54863 0.1408 0.03202 0.0
O212 O 0.55019 0.14666 0.12443 0.0
O213 O 0.49007 0.11735 0.11303 0.0
O214 O 0.61802 0.09514 0.10822 0.0
O215 O 0.62101 0.14948 0.10534 0.0
O216 O 0.54421 0.07996 0.14462 0.0
O217 O 0.52202 0.05944 0.09718 0.0
O218 O 0.51698 0.05039 0.03554 0.0
O219 O 0.57715 0.08151 0.04565 0.0
O220 O 0.45106 0.09832 0.04136 0.0
O221 O 0.44253 0.05027 0.06939 0.0
O222 O 0.52325 0.11671 1.016 0.0
O223 O 0.54424 0.1366 0.06409 0.0
H224 H 0.61307 0.08892 0.17338 0.0
H225 H 0.69486 0.18226 0.1359 0.0
H226 H 0.71858 0.19579 0.19448 0.0
H227 H 0.63645 0.1023 0.23141 0.0
H228 H 0.43714 0.0725 0.97955 0.0
H229 H 0.36334 1.01823 0.06051 0.0
H230 H 0.32093 0.98415 1.01724 0.0
H231 H 0.39475 0.03856 0.93622 0.0
Gd232 Gd 0.53893 0.59127 0.56922 0.0
Gd233 Gd 0.54276 0.65258 0.61369 0.0
C234 C 0.57231 0.59631 0.64606 0.0
C235 C 0.5497 0.54191 0.53218 0.0
C236 C 0.57275 0.52 0.53363 0.0
C237 C 0.56292 0.48848 0.51513 0.0
C238 C 0.6043 0.53009 0.55343 0.0
C239 C 0.61581 0.47671 0.53655 0.0
C240 C 0.62574 0.50862 0.55484 0.0
C241 C 0.58423 0.46695 0.51659 0.0
C242 C 0.47479 0.58749 0.60079 0.0
C243 C 0.51341 0.64918 0.53593 0.0
C244 C 0.52939 0.70139 0.64946 0.0
C245 C 0.50044 0.71689 0.6499 0.0
C246 C 0.50363 0.74622 0.67068 0.0
C247 C 0.4688 0.70161 0.63086 0.0
C248 C 0.44293 0.7442 0.65463 0.0
C249 C 0.44025 0.71517 0.63319 0.0
C250 C 0.4751 0.7598 0.67306 0.0
C251 C 0.60662 0.65693 0.58138 0.0
O252 O 0.57114 0.58304 0.61449 0.0
O253 O 0.55932 0.62183 0.65318 0.0
O254 O 0.52404 0.53634 0.55585 0.0
O255 O 0.56673 0.57503 0.52683 0.0
O256 O 0.47778 0.57746 0.56925 0.0
O257 O 0.50572 0.59832 0.61428 0.0
O258 O 0.50996 0.65951 0.56801 0.0
O259 O 0.52849 0.62514 0.52924 0.0
O260 O 0.55079 0.70751 0.62216 0.0
O261 O 0.51929 0.66888 0.6591 0.0
O262 O 0.60429 0.66857 0.61242 0.0
O263 O 0.57544 0.64556 0.56863 0.0
H264 H 0.53854 0.48033 0.49985 0.0
H265 H 0.61227 0.55448 0.56785 0.0
H266 H 0.65003 0.51698 0.57021 0.0
H267 H 0.57543 0.44225 0.50276 0.0
H268 H 0.52784 0.75815 0.68565 0.0
H269 H 0.46592 0.67882 0.61473 0.0
H270 H 0.416 0.70281 0.61842 0.0
H271 H 0.47781 0.78184 0.69021 0.0
Gd272 Gd 0.03093 0.56468 0.09784 0.0
Gd273 Gd 0.026 0.63641 0.0685 0.0
C274 C 0.09892 0.63845 0.10664 0.0
C275 C 0.05001 0.5121 0.11456 0.0
C276 C 0.08424 0.50525 0.11967 0.0
C277 C 0.11767 0.52909 0.10876 0.0
C278 C 0.08358 0.47498 0.13668 0.0
C279 C 0.14967 0.49257 0.13239 0.0
C280 C 0.11599 0.46866 0.14299 0.0
C281 C 0.15013 0.52278 0.115 0.0
C282 C 0.99369 0.59801 0.13654 0.0
C283 C 0.96298 0.56207 0.05093 0.0
C284 C 1.00466 0.68994 0.06617 0.0
C285 C 0.97553 0.69956 0.04992 0.0
C286 C 0.97147 0.69875 1.014 0.0
C287 C 0.95025 0.70842 0.07124 0.0
C288 C 0.91678 0.71508 1.02119 0.0
C289 C 0.92112 0.71588 0.05711 0.0
C290 C 0.94244 0.70658 0.99977 0.0
C291 C 0.05615 0.60261 1.02134 0.0
O292 O 0.08739 0.60376 0.10628 0.0
O293 O 0.07893 0.65689 0.09589 0.0
O294 O 0.04249 0.53313 0.13726 0.0
O295 O 0.04302 0.51806 0.08282 0.0
O296 O 0.98435 0.56423 0.13417 0.0
O297 O 0.02261 0.61196 0.1194 0.0
O298 O 0.97214 0.59646 0.05428 0.0
O299 O 0.9832 0.54422 0.06264 0.0
O300 O 0.03132 0.68663 0.04651 0.0
O301 O 0.99335 0.66577 0.08963 0.0
O302 O 0.05107 0.63199 1.0148 0.0
O303 O 0.04425 0.59421 0.0513 0.0
H304 H 0.11871 0.55274 0.09578 0.0
H305 H 0.05798 0.45632 0.14528 0.0
H306 H 0.11465 0.44492 0.15602 0.0
H307 H 0.17561 0.5419 0.10685 0.0
H308 H 0.99051 0.69189 0.99692 0.0
H309 H 0.95272 0.70902 0.09905 0.0
H310 H 0.90166 0.72169 0.07448 0.0
H311 H 0.9403 0.70622 0.97198 0.0
H312 H 0.33428 0.26525 0.29505 0.0
H313 H 0.1922 0.3023 0.42156 0.0
H314 H 0.35147 0.37192 0.32731 0.0
H315 H 0.22917 0.21427 0.43376 0.0
H316 H 0.24432 0.32848 0.3821 0.0
H317 H 0.28867 0.24545 0.34048 0.0
C318 C 0.32905 0.28464 0.31195 0.0
C319 C 0.34763 0.32045 0.30758 0.0
C320 C 0.24116 0.30372 0.39396 0.0
C321 C 0.29379 0.29755 0.35895 0.0
C322 C 0.21153 0.28879 0.41627 0.0
C323 C 0.20657 0.25618 0.43091 0.0
C324 C 0.26509 0.28533 0.38572 0.0
C325 C 0.23223 0.2396 0.42329 0.0
C326 C 0.30267 0.27319 0.33775 0.0
C327 C 0.3379 0.3441 0.3295 0.0
N328 N 0.26007 0.25411 0.40081 0.0
N329 N 0.3114 0.33223 0.35417 0.0
H330 H 0.24207 0.83842 0.83998 0.0
H331 H 0.33236 1.03056 0.91401 0.0
H332 H 0.22965 0.92845 0.79197 0.0
H333 H 0.31974 0.93835 0.97316 0.0
H334 H 0.29373 0.99399 0.86947 0.0
H335 H 0.26863 0.87453 0.89005 0.0
C336 C 0.24446 0.86576 0.84034 0.0
C337 C 0.23384 0.88062 0.81194 0.0
C338 C 0.2991 0.98181 0.89237 0.0
C339 C 0.26479 0.92225 0.86867 0.0
C340 C 0.32134 1.00262 0.91763 0.0
C341 C 0.32941 0.98741 0.94718 0.0
C342 C 0.28525 0.9455 0.8965 0.0
C343 C 0.31405 0.95116 0.95086 0.0
C344 C 0.25961 0.88637 0.86885 0.0
C345 C 0.2374 0.91608 0.81352 0.0
N346 N 0.29301 0.93141 0.92565 0.0
N347 N 0.25311 0.93588 0.84125 0.0
H348 H 0.63019 0.459 0.7864 0.0
H349 H 0.58876 0.62369 0.71083 0.0
H350 H 0.6276 0.54856 0.84631 0.0
H351 H 0.5911 0.53634 0.64682 0.0
H352 H 0.60965 0.59857 0.75906 0.0
H353 H 0.62342 0.48887 0.73359 0.0
C354 C 0.62917 0.48529 0.78831 0.0
C355 C 0.62936 0.50135 0.82072 0.0
C356 C 0.60585 0.58485 0.73449 0.0
C357 C 0.62097 0.53536 0.76076 0.0
C358 C 0.5938 0.59923 0.7068 0.0
C359 C 0.58774 0.582 0.67465 0.0
C360 C 0.61173 0.55269 0.73041 0.0
C361 C 0.59521 0.55049 0.67115 0.0
C362 C 0.62497 0.5022 0.75824 0.0
C363 C 0.62741 0.53521 0.82184 0.0
N364 N 0.60646 0.53667 0.69877 0.0
N365 N 0.623 0.55088 0.79246 0.0
H366 H 0.95947 0.74694 0.28618 0.0
H367 H 0.92791 0.57373 0.17053 0.0
H368 H 0.85339 0.67167 0.26937 0.0
H369 H 0.02304 0.66526 0.16025 0.0
H370 H 0.90263 0.60505 0.21349 0.0
H371 H 0.98617 0.71259 0.24774 0.0
C372 C 0.94199 0.7227 0.27504 0.0
C373 C 0.90431 0.71179 0.2812 0.0
C374 C 0.92903 0.61828 0.20181 0.0
C375 C 0.93437 0.67273 0.23687 0.0
C376 C 0.94343 0.60043 0.17729 0.0
C377 C 0.97751 0.61698 0.16165 0.0
C378 C 0.9491 0.65278 0.21122 0.0
C379 C 0.99654 0.65159 0.17148 0.0
C380 C 0.95711 0.70333 0.25283 0.0
C381 C 0.88264 0.68066 0.26552 0.0
N382 N 0.98218 0.66827 0.1957 0.0
N383 N 0.89794 0.66221 0.24411 0.0
H384 H 0.38641 0.24877 0.23588 0.0
H385 H 0.55737 0.20698 0.15246 0.0
H386 H 0.48916 0.32901 0.21477 0.0
H387 H 0.44773 0.13413 0.15604 0.0
H388 H 0.53593 0.25039 0.18252 0.0
H389 H 0.41159 0.20512 0.2137 0.0
C390 C 0.4145 0.25719 0.2269 0.0
C391 C 0.43582 0.29262 0.22743 0.0
C392 C 0.5167 0.22479 0.17693 0.0
C393 C 0.46476 0.24254 0.20134 0.0
C394 C 0.52893 0.19993 0.16001 0.0
C395 C 0.50422 0.16695 0.15156 0.0
C396 C 0.47963 0.21642 0.18565 0.0
C397 C 0.46768 0.15929 0.16178 0.0
C398 C 0.42879 0.23222 0.214 0.0
C399 C 0.47177 0.302 0.21468 0.0
N400 N 0.45651 0.18386 0.17816 0.0
N401 N 0.48517 0.27706 0.20213 0.0
H402 H 0.13375 0.93471 0.7107 0.0
H403 H 0.11749 1.0332 0.5383 0.0
H404 H 0.1081 0.88385 0.61135 0.0
H405 H 0.12614 0.08077 0.63956 0.0
H406 H 0.12095 0.98004 0.56402 0.0
H407 H 0.13651 0.98992 0.68466 0.0
C408 C 0.12868 0.93519 0.6834 0.0
C409 C 0.12055 0.90466 0.66315 0.0
C410 C 0.12242 1.00219 0.58061 0.0
C411 C 0.12388 0.96766 0.63319 0.0
C412 C 0.12078 1.03264 0.56591 0.0
C413 C 0.1214 0.06126 0.58693 0.0
C414 C 0.1249 1.00047 0.61656 0.0
C415 C 0.12549 0.05913 0.62253 0.0
C416 C 0.13023 0.96666 0.66858 0.0
C417 C 0.11396 0.90667 0.62799 0.0
N418 N 0.12686 1.02912 0.63631 0.0
N419 N 0.11588 0.93765 0.61411 0.0
H420 H 0.74918 0.50019 0.95973 0.0
H421 H 0.93868 0.49364 1.02873 0.0
H422 H 0.78958 0.415 0.93743 0.0
H423 H 0.90929 0.5872 0.03093 0.0
H424 H 0.88295 0.46356 0.9975 0.0
H425 H 0.80692 0.53218 0.98676 0.0
C426 C 0.77031 0.48835 0.95996 0.0
C427 C 0.7642 0.45464 0.94628 0.0
C428 C 0.88874 0.49069 1.00477 0.0
C429 C 0.83032 0.49096 0.97819 0.0
C430 C 0.92052 0.50787 1.02279 0.0
C431 C 0.92881 0.54306 0.03262 0.0
C432 C 0.86479 0.50866 0.9967 0.0
C433 C 0.90418 0.5601 1.02393 0.0
C434 C 0.80323 0.50657 0.97574 0.0
C435 C 0.79262 0.44059 0.94811 0.0
N436 N 0.8733 0.54274 1.00663 0.0
N437 N 0.82421 0.45865 0.96397 0.0
H438 H 0.83139 0.74132 0.51143 0.0
H439 H 0.6147 0.64901 0.51176 0.0
H440 H 0.76687 0.72496 0.41974 0.0
H441 H 0.6764 0.68546 0.60393 0.0
H442 H 0.67131 0.66857 0.47747 0.0
H443 H 0.77606 0.71304 0.5453 0.0
C444 C 0.80566 0.73167 0.49833 0.0
C445 C 0.80396 0.73592 0.46258 0.0
C446 C 0.67251 0.67211 0.50521 0.0
C447 C 0.74031 0.70307 0.50138 0.0
C448 C 0.64022 0.66085 0.52481 0.0
C449 C 0.64087 0.66589 0.56072 0.0
C450 C 0.70577 0.68834 0.52163 0.0
C451 C 0.67468 0.68131 0.57628 0.0
C452 C 0.77406 0.71541 0.51773 0.0
C453 C 0.76978 0.7221 0.44708 0.0
N454 N 0.70575 0.6921 0.55665 0.0
N455 N 0.73938 0.70654 0.46657 0.0
H456 H 0.32008 0.43611 0.22887 0.0
H457 H 0.20987 0.50304 0.09015 0.0
H458 H 0.36027 0.46617 0.12554 0.0
H459 H 0.1681 0.4676 0.19179 0.0
H460 H 0.26612 0.49185 0.10316 0.0
H461 H 0.26495 0.44913 0.21611 0.0
C462 C 0.31725 0.44529 0.20341 0.0
C463 C 0.34485 0.44987 0.17819 0.0
C464 C 0.24464 0.48653 0.12261 0.0
C465 C 0.2818 0.46527 0.1635 0.0
C466 C 0.21259 0.49308 0.11527 0.0
C467 C 0.18414 0.48615 0.13987 0.0
C468 C 0.24837 0.47304 0.15485 0.0
C469 C 0.18906 0.47285 0.17184 0.0
C470 C 0.28581 0.45291 0.1962 0.0
C471 C 0.33991 0.46255 0.14589 0.0
N472 N 0.2205 0.46676 0.17838 0.0
N473 N 0.30898 0.46972 0.13946 0.0
H474 H 0.63261 0.31987 0.89873 0.0
H475 H 0.5978 0.19652 0.06372 0.0
H476 H 0.68437 0.35209 0.99662 0.0
H477 H 0.55077 0.16076 0.96462 0.0
H478 H 0.63155 0.253 0.03863 0.0
H479 H 0.60368 0.26107 0.92144 0.0
C480 C 0.63799 0.31458 0.92494 0.0
C481 C 0.66109 0.34105 0.94571 0.0
C482 C 0.61405 0.23279 1.02224 0.0
C483 C 0.62807 0.2737 0.97191 0.0
C484 C 0.59483 0.20048 0.03657 0.0
C485 C 0.57138 0.17395 1.01624 0.0
C486 C 0.60969 0.23879 0.9873 0.0
C487 C 0.56853 0.18054 0.98122 0.0
C488 C 0.62159 0.28095 0.93785 0.0
C489 C 0.66727 0.33251 0.97942 0.0
N490 N 0.58726 0.21238 0.9679 0.0
N491 N 0.65076 0.29974 0.99145 0.0
H492 H 0.91852 0.82281 0.50176 0.0
H493 H 0.99582 1.03087 0.48234 0.0
H494 H 0.91282 0.87536 0.40761 0.0
H495 H 1.00418 0.97731 0.57512 0.0
H496 H 0.96654 0.97441 0.45412 0.0
H497 H 0.95134 0.87914 0.5284 0.0
C498 C 0.92428 0.8462 0.48662 0.0
C499 C 0.9127 0.84423 0.45237 0.0
C500 C 0.97481 0.97501 0.48064 0.0
C501 C 0.95044 0.90914 0.48286 0.0
C502 C 0.9915 1.00729 0.49683 0.0
C503 C 1.00241 1.009 0.53128 0.0
C504 C 0.96889 0.94405 0.49895 0.0
C505 C 0.99615 0.97743 0.54861 0.0
C506 C 0.94312 0.8784 0.50185 0.0
C507 C 0.92145 0.87548 0.43394 0.0
N508 N 0.9798 0.94637 0.53231 0.0
N509 N 0.93954 0.90659 0.44946 0.0
H510 H 0.23171 0.7627 0.70373 0.0
H511 H 0.44437 0.81197 0.6589 0.0
H512 H 0.31167 0.86355 0.72317 0.0
H513 H 0.37047 0.70597 0.66112 0.0
H514 H 0.39352 0.83262 0.67284 0.0
H515 H 0.27999 0.74273 0.67851 0.0
C516 C 0.25937 0.78063 0.70242 0.0
C517 C 0.26796 0.81458 0.71596 0.0
C518 C 0.38838 0.80484 0.67004 0.0
C519 C 0.32291 0.79223 0.68718 0.0
C520 C 0.41742 0.79304 0.6622 0.0
C521 C 0.41175 0.75719 0.65928 0.0
C522 C 0.35336 0.78063 0.67502 0.0
C523 C 0.37607 0.73386 0.663 0.0
C524 C 0.28685 0.76927 0.68817 0.0
C525 C 0.30411 0.83693 0.71362 0.0
N526 N 0.34823 0.74598 0.67097 0.0
N527 N 0.33026 0.82533 0.69964 0.0
H528 H 0.74519 0.90086 0.84602 0.0
H529 H 0.90831 0.9085 0.71605 0.0
H530 H 0.76625 0.80966 0.80546 0.0
H531 H 0.8771 0.99839 0.74244 0.0
H532 H 0.85325 0.87135 0.74522 0.0
H533 H 0.78895 0.93655 0.80395 0.0
C534 C 0.75838 0.88825 0.82772 0.0
C535 C 0.75258 0.85237 0.82955 0.0
C536 C 0.85819 0.89916 0.74435 0.0
C537 C 0.80313 0.89299 0.78197 0.0
C538 C 0.88974 0.92036 0.7279 0.0
C539 C 0.8974 0.95655 0.72714 0.0
C540 C 0.83431 0.9143 0.76058 0.0
C541 C 0.87215 0.97056 0.74239 0.0
C542 C 0.78356 0.90864 0.80388 0.0
C543 C 0.77056 0.83738 0.80537 0.0
N544 N 0.84193 0.94945 0.75887 0.0
N545 N 0.7954 0.85782 0.78294 0.0
H546 H 0.74506 0.13584 0.42606 0.0
H547 H 0.69791 0.21294 0.25187 0.0
H548 H 0.73925 0.23972 0.41954 0.0
H549 H 0.6909 0.10562 0.2643 0.0
H550 H 0.71668 0.22477 0.312 0.0
H551 H 0.72812 0.12557 0.36572 0.0
C552 C 0.74033 0.15656 0.41182 0.0
C553 C 0.74377 0.18875 0.42773 0.0
C554 C 0.71106 0.19866 0.30152 0.0
C555 C 0.72414 0.17713 0.35857 0.0
C556 C 0.70064 0.19197 0.26717 0.0
C557 C 0.69273 0.15822 0.25314 0.0
C558 C 0.71381 0.17145 0.32185 0.0
C559 C 0.69628 0.13191 0.2742 0.0
C560 C 0.7305 0.15063 0.3774 0.0
C561 C 0.73669 0.21446 0.40825 0.0
N562 N 0.70654 0.13908 0.30745 0.0
N563 N 0.72735 0.20815 0.37458 0.0
H564 H 0.39819 0.71536 0.37641 0.0
H565 H 0.54444 0.65763 0.4723 0.0
H566 H 0.50804 0.7354 0.33856 0.0
H567 H 0.45962 0.67985 0.53192 0.0
H568 H 0.52803 0.68381 0.42235 0.0
H569 H 0.41689 0.70229 0.43352 0.0
C570 C 0.4264 0.718 0.3804 0.0
C571 C 0.45157 0.72611 0.35269 0.0
C572 C 0.51302 0.68327 0.44632 0.0
C573 C 0.47278 0.71049 0.41723 0.0
C574 C 0.52221 0.66801 0.47487 0.0
C575 C 0.5032 0.66629 0.5063 0.0
C576 C 0.48401 0.69649 0.44865 0.0
C577 C 0.47493 0.68065 0.5081 0.0
C578 C 0.43699 0.71033 0.41286 0.0
C579 C 0.48768 0.72883 0.35911 0.0
N580 N 0.46578 0.69476 0.47945 0.0
N581 N 0.49702 0.72052 0.39042 0.0
H582 H 0.13048 0.49675 0.85172 0.0
H583 H 0.09188 0.55863 0.04002 0.0
H584 H 0.19855 0.4985 0.93839 0.0
H585 H 0.06365 0.60488 0.95077 0.0
H586 H 0.12424 0.52909 1.00248 0.0
H587 H 0.10042 0.53132 0.88616 0.0
C588 C 0.1395 0.50471 0.87769 0.0
C589 C 0.16675 0.49398 0.89224 0.0
C590 C 0.11092 0.54564 0.99103 0.0
C591 C 0.13174 0.53265 0.932 0.0
C592 C 0.09216 0.5622 1.01246 0.0
C593 C 0.07485 0.58395 0.99849 0.0
C594 C 0.11194 0.55032 0.95514 0.0
C595 C 0.07668 0.58827 0.96254 0.0
C596 C 0.12213 0.52423 0.89741 0.0
C597 C 0.177 0.50508 0.92624 0.0
N598 N 0.09462 0.57136 0.94201 0.0
N599 N 0.15921 0.52323 0.94499 0.0
H600 H 0.54665 0.87036 0.91587 0.0
H601 H 0.62022 0.05152 1.01967 0.0
H602 H 0.65354 0.91019 0.95979 0.0
H603 H 0.50878 1.0037 0.98862 0.0
H604 H 0.636 1.00512 0.98917 0.0
H605 H 0.53552 0.92386 0.93406 0.0
C606 C 0.56786 0.89042 0.92921 0.0
C607 C 0.60091 0.88551 0.93669 0.0
C608 C 0.60818 1.00502 0.98873 0.0
C609 C 0.58841 0.94706 0.95742 0.0
C610 C 0.59916 1.0316 1.00601 0.0
C611 C 0.56301 1.03134 1.00705 0.0
C612 C 0.5809 0.978 0.97228 0.0
C613 C 0.53692 1.00482 0.98884 0.0
C614 C 0.56153 0.92104 0.93947 0.0
C615 C 0.6277 0.91282 0.95335 0.0
N616 N 0.54633 0.9791 0.97246 0.0
N617 N 0.62074 0.94226 0.96343 0.0
H618 H 0.80006 0.16032 0.57136 0.0
H619 H 0.98606 0.12752 0.5273 0.0
H620 H 0.85934 0.19506 0.4759 0.0
H621 H 0.94933 0.13811 0.63146 0.0
H622 H 0.93623 0.14532 0.50572 0.0
H623 H 0.85108 0.14453 0.59177 0.0
C624 C 0.82388 0.16488 0.55474 0.0
C625 C 0.8255 0.17939 0.52195 0.0
C626 C 0.93928 0.14389 0.53328 0.0
C627 C 0.88361 0.16053 0.54496 0.0
C628 C 0.96755 0.13372 0.54555 0.0
C629 C 0.97156 0.13137 0.58113 0.0
C630 C 0.91471 0.15109 0.55683 0.0
C631 C 0.94706 0.13965 0.60382 0.0
C632 C 0.8529 0.1557 0.5664 0.0
C633 C 0.85671 0.18365 0.50121 0.0
N634 N 0.91942 0.14889 0.59126 0.0
N635 N 0.88457 0.17417 0.51304 0.0
H636 H 0.3148 0.69813 0.19362 0.0
H637 H 0.12831 0.70845 0.12082 0.0
H638 H 0.27937 0.78758 0.20828 0.0
H639 H 0.15185 0.6121 0.12684 0.0
H640 H 0.18615 0.73902 0.1481 0.0
H641 H 0.2575 0.66727 0.1654 0.0
C642 C 0.2949 0.71124 0.19127 0.0
C643 C 0.30205 0.74559 0.20365 0.0
C644 C 0.1787 0.7112 0.14341 0.0
C645 C 0.23651 0.71045 0.17044 0.0
C646 C 0.14568 0.69367 0.12764 0.0
C647 C 0.13501 0.65752 0.12147 0.0
C648 C 0.20152 0.6926 0.15296 0.0
C649 C 0.1588 0.63992 0.13109 0.0
C650 C 0.26225 0.69362 0.17487 0.0
C651 C 0.2754 0.76135 0.19889 0.0
N652 N 0.19091 0.65763 0.14632 0.0
N653 N 0.24393 0.74371 0.18265 0.0
H654 H 0.31277 0.50244 0.76048 0.0
H655 H 0.40597 0.56102 0.57587 0.0
H656 H 0.25299 0.4879 0.666 0.0
H657 H 0.46421 0.58898 0.67101 0.0
H658 H 0.34908 0.53754 0.60899 0.0
H659 H 0.36744 0.53803 0.72931 0.0
C660 C 0.31087 0.50729 0.73335 0.0
C661 C 0.27813 0.49176 0.71585 0.0
C662 C 0.3742 0.54907 0.62272 0.0
C663 C 0.34107 0.53198 0.67973 0.0
C664 C 0.40672 0.56249 0.60377 0.0
C665 C 0.43991 0.57669 0.62069 0.0
C666 C 0.37478 0.5495 0.65897 0.0
C667 C 0.43924 0.57809 0.65692 0.0
C668 C 0.34225 0.52741 0.71547 0.0
C669 C 0.27768 0.49871 0.68051 0.0
N670 N 0.40728 0.56431 0.67484 0.0
N671 N 0.30865 0.5179 0.66363 0.0
H672 H 0.75998 0.74375 0.8819 0.0
H673 H 0.88605 0.76369 0.04381 0.0
H674 H 0.74788 0.79945 0.97461 0.0
H675 H 0.87627 0.68505 0.96459 0.0
H676 H 0.83527 0.7768 1.01899 0.0
H677 H 0.80169 0.72087 0.91186 0.0
C678 C 0.76568 0.75062 0.90879 0.0
C679 C 0.75065 0.77355 0.92586 0.0
C680 C 0.84405 0.75649 1.00719 0.0
C681 C 0.79882 0.74816 0.96005 0.0
C682 C 0.87305 0.74887 1.02141 0.0
C683 C 0.88566 0.7232 1.0063 0.0
C684 C 0.82769 0.73866 0.97734 0.0
C685 C 0.86804 0.70549 0.97681 0.0
C686 C 0.78949 0.73764 0.92586 0.0
C687 C 0.75879 0.78168 0.96065 0.0
N688 N 0.84014 0.71371 0.96318 0.0
N689 N 0.78278 0.76941 0.97649 0.0
H690 H 0.46342 0.8542 0.2225 0.0
H691 H 0.45664 1.0053 0.10707 0.0
H692 H 0.3598 0.86983 0.21021 0.0
H693 H 0.53387 1.02977 0.18939 0.0
H694 H 0.42412 0.94933 0.13457 0.0
H695 H 0.49391 0.91326 0.2018 0.0
C696 C 0.44685 0.86983 0.21601 0.0
C697 C 0.40856 0.85623 0.2181 0.0
C698 C 0.44806 0.96718 0.14662 0.0
C699 C 0.44385 0.92359 0.19268 0.0
C700 C 0.46657 0.99906 0.13101 0.0
C701 C 0.49768 1.02241 0.14618 0.0
C702 C 0.4616 0.95808 0.17688 0.0
C703 C 0.50975 1.01266 0.177 0.0
C704 C 0.46448 0.90355 0.20386 0.0
C705 C 0.38916 0.87822 0.20819 0.0
N706 N 0.49202 0.98098 0.19109 0.0
N707 N 0.40694 0.91046 0.19538 0.0
H708 H 0.23447 0.37516 0.68231 0.0
H709 H 0.08805 0.18669 0.68598 0.0
H710 H 0.13439 0.35529 0.74169 0.0
H711 H 0.14233 0.22968 0.59076 0.0
H712 H 0.11341 0.24446 0.71358 0.0
H713 H 0.20889 0.31832 0.65437 0.0
C714 C 0.20701 0.35934 0.68936 0.0
C715 C 0.18664 0.37084 0.7145 0.0
C716 C 0.11982 0.24109 0.6867 0.0
C717 C 0.15802 0.30443 0.68338 0.0
C718 C 0.10565 0.20817 0.67102 0.0
C719 C 0.11317 0.20341 0.63606 0.0
C720 C 0.14245 0.2692 0.66752 0.0
C721 C 0.13581 0.23225 0.61776 0.0
C722 C 0.19264 0.32659 0.6735 0.0
C723 C 0.15165 0.34783 0.72306 0.0
N724 N 0.14994 0.26385 0.63378 0.0
N725 N 0.13863 0.3157 0.7078 0.0
H726 H 0.68333 0.29788 0.5064 0.0
H727 H 0.64664 0.4617 0.59433 0.0
H728 H 0.71062 0.3308 0.61169 0.0
H729 H 0.63318 0.43682 0.48567 0.0
H730 H 0.67526 0.41712 0.60006 0.0
H731 H 0.66958 0.35131 0.49711 0.0
C732 C 0.68686 0.31653 0.52747 0.0
C733 C 0.69774 0.30964 0.56001 0.0
C734 C 0.66639 0.42164 0.57488 0.0
C735 C 0.68149 0.37065 0.54968 0.0
C736 C 0.65023 0.44727 0.57154 0.0
C737 C 0.63703 0.45268 0.53955 0.0
C738 C 0.66911 0.40109 0.54609 0.0
C739 C 0.64215 0.43293 0.511 0.0
C740 C 0.67886 0.347 0.52218 0.0
C741 C 0.70148 0.33464 0.58643 0.0
N742 N 0.65742 0.40774 0.51502 0.0
N743 N 0.69306 0.36389 0.58076 0.0
loop_
_geom_bond_atom_site_label_1
_geom_bond_atom_site_label_2
_geom_bond_distance
_geom_bond_site_symmetry_2
_ccdc_geom_bond_type
H0 C1 0.949 . S
C1 H0 0.949 . S
C1 C2 1.395 . S
C1 C3 1.391 . S
C2 C1 1.395 . S
C2 C5 1.390 . S
C3 C1 1.391 . S
C3 C7 1.387 . S
C3 C8 1.491 . S
H4 C5 0.950 . S
C5 C2 1.390 . S
C5 H4 0.950 . S
C5 C6 1.378 . S
C6 C5 1.378 . S
C6 C7 1.409 . S
C7 C3 1.387 . S
C7 C6 1.409 . S
C7 H9 0.951 . S
C8 C3 1.491 . S
C8 C10 1.382 . S
C8 C12 1.404 . S
H9 C7 0.951 . S
C10 C8 1.382 . S
C10 C11 1.390 . S
C10 H15 0.949 . S
C11 C10 1.390 . S
C11 C16 1.399 . S
C12 C8 1.404 . S
C12 H13 0.950 . S
C12 C14 1.375 . S
H13 C12 0.950 . S
C14 C12 1.375 . S
C14 C16 1.382 . S
C14 H18 0.950 . S
H15 C10 0.949 . S
C16 C11 1.399 . S
C16 C14 1.382 . S
C16 H17 0.952 . S
H17 C16 0.952 . S
H18 C14 0.950 . S
H19 C20 0.949 . S
C20 H19 0.949 . S
C20 C21 1.395 . S
C20 C22 1.391 . S
C21 C20 1.395 . S
C21 C24 1.390 . S
C22 C20 1.391 . S
C22 C26 1.387 . S
C22 C27 1.491 . S
H23 C24 0.950 . S
C24 C21 1.390 . S
C24 H23 0.950 . S
C24 C25 1.378 . S
C25 C24 1.378 . S
C25 C26 1.409 . S
C26 C22 1.387 . S
C26 C25 1.409 . S
C26 H28 0.951 . S
C27 C22 1.491 . S
C27 C29 1.382 . S
C27 C31 1.404 . S
H28 C26 0.951 . S
C29 C27 1.382 . S
C29 C30 1.390 . S
C29 H34 0.949 . S
C30 C29 1.390 . S
C30 C35 1.399 . S
C31 C27 1.404 . S
C31 H32 0.950 . S
C31 C33 1.375 . S
H32 C31 0.950 . S
C33 C31 1.375 . S
C33 C35 1.382 . S
C33 H37 0.950 . S
H34 C29 0.949 . S
C35 C30 1.399 . S
C35 C33 1.382 . S
C35 H36 0.952 . S
H36 C35 0.952 . S
H37 C33 0.950 . S
H38 C39 0.949 . S
C39 H38 0.949 . S
C39 C40 1.395 . S
C39 C41 1.391 . S
C40 C39 1.395 . S
C40 C43 1.390 . S
C41 C39 1.391 . S
C41 C45 1.387 . S
C41 C46 1.491 . S
H42 C43 0.950 . S
C43 C40 1.390 . S
C43 H42 0.950 . S
C43 C44 1.378 . S
C44 C43 1.378 . S
C44 C45 1.409 . S
C45 C41 1.387 . S
C45 C44 1.409 . S
C45 H47 0.951 . S
C46 C41 1.491 . S
C46 C48 1.382 . S
C46 C50 1.404 . S
H47 C45 0.951 . S
C48 C46 1.382 . S
C48 C49 1.390 . S
C48 H53 0.949 . S
C49 C48 1.390 . S
C49 C54 1.399 . S
C50 C46 1.404 . S
C50 H51 0.950 . S
C50 C52 1.375 . S
H51 C50 0.950 . S
C52 C50 1.375 . S
C52 C54 1.382 . S
C52 H56 0.950 . S
H53 C48 0.949 . S
C54 C49 1.399 . S
C54 C52 1.382 . S
C54 H55 0.952 . S
H55 C54 0.952 . S
H56 C52 0.950 . S
H57 C58 0.949 . S
C58 H57 0.949 . S
C58 C59 1.395 . S
C58 C60 1.391 . S
C59 C58 1.395 . S
C59 C62 1.390 . S
C60 C58 1.391 . S
C60 C64 1.387 . S
C60 C65 1.491 . S
H61 C62 0.950 . S
C62 C59 1.390 . S
C62 H61 0.950 . S
C62 C63 1.378 . S
C63 C62 1.378 . S
C63 C64 1.409 . S
C64 C60 1.387 . S
C64 C63 1.409 . S
C64 H66 0.951 . S
C65 C60 1.491 . S
C65 C67 1.382 . S
C65 C69 1.404 . S
H66 C64 0.951 . S
C67 C65 1.382 . S
C67 C68 1.390 . S
C67 H72 0.949 . S
C68 C67 1.390 . S
C68 C73 1.399 . S
C69 C65 1.404 . S
C69 H70 0.950 . S
C69 C71 1.375 . S
H70 C69 0.950 . S
C71 C69 1.375 . S
C71 C73 1.382 . S
C71 H75 0.950 . S
H72 C67 0.949 . S
C73 C68 1.399 . S
C73 C71 1.382 . S
C73 H74 0.952 . S
H74 C73 0.952 . S
H75 C71 0.950 . S
H76 C77 0.949 . S
C77 H76 0.949 . S
C77 C78 1.395 . S
C77 C79 1.391 . S
C78 C77 1.395 . S
C78 C81 1.390 . S
C79 C77 1.391 . S
C79 C83 1.387 . S
C79 C84 1.491 . S
H80 C81 0.950 . S
C81 C78 1.390 . S
C81 H80 0.950 . S
C81 C82 1.378 . S
C82 C81 1.378 . S
C82 C83 1.409 . S
C83 C79 1.387 . S
C83 C82 1.409 . S
C83 H85 0.951 . S
C84 C79 1.491 . S
C84 C86 1.382 . S
C84 C88 1.404 . S
H85 C83 0.951 . S
C86 C84 1.382 . S
C86 C87 1.390 . S
C86 H91 0.949 . S
C87 C86 1.390 . S
C87 C92 1.399 . S
C88 C84 1.404 . S
C88 H89 0.950 . S
C88 C90 1.375 . S
H89 C88 0.950 . S
C90 C88 1.375 . S
C90 C92 1.382 . S
C90 H94 0.950 . S
H91 C86 0.949 . S
C92 C87 1.399 . S
C92 C90 1.382 . S
C92 H93 0.952 . S
H93 C92 0.952 . S
H94 C90 0.950 . S
H95 C96 0.949 . S
C96 H95 0.949 . S
C96 C97 1.395 . S
C96 C98 1.391 . S
C97 C96 1.395 . S
C97 C100 1.390 . S
C98 C96 1.391 . S
C98 C102 1.387 . S
C98 C103 1.491 . S
H99 C100 0.950 . S
C100 C97 1.390 . S
C100 H99 0.950 . S
C100 C101 1.378 . S
C101 C100 1.378 . S
C101 C102 1.409 . S
C102 C98 1.387 . S
C102 C101 1.409 . S
C102 H104 0.951 . S
C103 C98 1.491 . S
C103 C105 1.382 . S
C103 C107 1.404 . S
H104 C102 0.951 . S
C105 C103 1.382 . S
C105 C106 1.390 . S
C105 H110 0.949 . S
C106 C105 1.390 . S
C106 C111 1.399 . S
C107 C103 1.404 . S
C107 H108 0.950 . S
C107 C109 1.375 . S
H108 C107 0.950 . S
C109 C107 1.375 . S
C109 C111 1.382 . S
C109 H113 0.950 . S
H110 C105 0.949 . S
C111 C106 1.399 . S
C111 C109 1.382 . S
C111 H112 0.952 . S
H112 C111 0.952 . S
H113 C109 0.950 . S
H114 C115 0.949 . S
C115 H114 0.949 . S
C115 C116 1.395 . S
C115 C117 1.391 . S
C116 C115 1.395 . S
C116 C119 1.390 . S
C117 C115 1.391 . S
C117 C121 1.387 . S
C117 C122 1.491 . S
H118 C119 0.950 . S
C119 C116 1.390 . S
C119 H118 0.950 . S
C119 C120 1.378 . S
C120 C119 1.378 . S
C120 C121 1.409 . S
C121 C117 1.387 . S
C121 C120 1.409 . S
C121 H123 0.951 . S
C122 C117 1.491 . S
C122 C124 1.382 . S
C122 C126 1.404 . S
H123 C121 0.951 . S
C124 C122 1.382 . S
C124 C125 1.390 . S
C124 H129 0.949 . S
C125 C124 1.390 . S
C125 C130 1.399 . S
C126 C122 1.404 . S
C126 H127 0.950 . S
C126 C128 1.375 . S
H127 C126 0.950 . S
C128 C126 1.375 . S
C128 C130 1.382 . S
C128 H132 0.950 . S
H129 C124 0.949 . S
C130 C125 1.399 . S
C130 C128 1.382 . S
C130 H131 0.952 . S
H131 C130 0.952 . S
H132 C128 0.950 . S
H133 C134 0.949 . S
C134 H133 0.949 . S
C134 C135 1.395 . S
C134 C136 1.391 . S
C135 C134 1.395 . S
C135 C138 1.390 . S
C136 C134 1.391 . S
C136 C140 1.387 . S
C136 C141 1.491 . S
H137 C138 0.950 . S
C138 C135 1.390 . S
C138 H137 0.950 . S
C138 C139 1.378 . S
C139 C138 1.378 . S
C139 C140 1.409 . S
C140 C136 1.387 . S
C140 C139 1.409 . S
C140 H142 0.951 . S
C141 C136 1.491 . S
C141 C143 1.382 . S
C141 C145 1.404 . S
H142 C140 0.951 . S
C143 C141 1.382 . S
C143 C144 1.390 . S
C143 H148 0.949 . S
C144 C143 1.390 . S
C144 C149 1.399 . S
C145 C141 1.404 . S
C145 H146 0.950 . S
C145 C147 1.375 . S
H146 C145 0.950 . S
C147 C145 1.375 . S
C147 C149 1.382 . S
C147 H151 0.950 . S
H148 C143 0.949 . S
C149 C144 1.399 . S
C149 C147 1.382 . S
C149 H150 0.952 . S
H150 C149 0.952 . S
H151 C147 0.950 . S
Gd152 C155 2.818 . S
Gd152 O172 2.377 . S
Gd152 O174 2.448 . S
Gd152 O175 2.506 . S
Gd152 O176 2.435 . S
Gd152 O177 2.717 . S
Gd152 O179 2.395 1_545 S
Gd152 O183 2.327 1_455 S
Gd153 C164 2.818 1_545 S
Gd153 O173 2.395 1_655 S
Gd153 O177 2.327 1_655 S
Gd153 O178 2.377 1_545 S
Gd153 O180 2.448 1_545 S
Gd153 O181 2.506 1_545 S
Gd153 O182 2.435 . S
Gd153 O183 2.717 . S
C154 O172 1.240 . S
C154 O173 1.240 . S
C155 Gd152 2.818 . S
C155 C156 1.510 . S
C155 O174 1.249 . S
C155 O175 1.252 . S
C156 C155 1.510 . S
C156 C157 1.404 . S
C156 C158 1.352 . S
C157 C156 1.404 . S
C157 C161 1.389 . S
C157 H184 0.930 . S
C158 C156 1.352 . S
C158 C160 1.374 . S
C158 H185 0.931 . S
C159 C160 1.359 . S
C159 C161 1.364 . S
C160 C158 1.374 . S
C160 C159 1.359 . S
C160 H186 0.931 . S
C161 C157 1.389 . S
C161 C159 1.364 . S
C161 H187 0.931 . S
C162 O176 1.256 . S
C162 O177 1.257 . S
C163 O178 1.240 . S
C163 O179 1.240 1_655 S
C164 Gd153 2.818 1_565 S
C164 C165 1.510 . S
C164 O180 1.249 . S
C164 O181 1.252 . S
C165 C164 1.510 . S
C165 C166 1.404 . S
C165 C167 1.352 . S
C166 C165 1.404 . S
C166 C170 1.389 . S
C166 H188 0.930 . S
C167 C165 1.352 . S
C167 C169 1.374 . S
C167 H189 0.931 . S
C168 C169 1.359 . S
C168 C170 1.364 . S
C169 C167 1.374 . S
C169 C168 1.359 . S
C169 H190 0.931 . S
C170 C166 1.389 . S
C170 C168 1.364 . S
C170 H191 0.931 . S
C171 O182 1.256 . S
C171 O183 1.257 . S
O172 Gd152 2.377 . S
O172 C154 1.240 . S
O173 Gd153 2.395 1_455 S
O173 C154 1.240 . S
O174 Gd152 2.448 . S
O174 C155 1.249 . S
O175 Gd152 2.506 . S
O175 C155 1.252 . S
O176 Gd152 2.435 . S
O176 C162 1.256 . S
O177 Gd152 2.717 . S
O177 Gd153 2.327 1_455 S
O177 C162 1.257 . S
O178 Gd153 2.377 1_565 S
O178 C163 1.240 . S
O179 Gd152 2.395 1_565 S
O179 C163 1.240 1_455 S
O180 Gd153 2.448 1_565 S
O180 C164 1.249 . S
O181 Gd153 2.506 1_565 S
O181 C164 1.252 . S
O182 Gd153 2.435 . S
O182 C171 1.256 . S
O183 Gd152 2.327 1_655 S
O183 Gd153 2.717 . S
O183 C171 1.257 . S
H184 C157 0.930 . S
H185 C158 0.931 . S
H186 C160 0.931 . S
H187 C161 0.931 . S
H188 C166 0.930 . S
H189 C167 0.931 . S
H190 C169 0.931 . S
H191 C170 0.931 . S
Gd192 C195 2.818 . S
Gd192 O212 2.377 . S
Gd192 O214 2.448 . S
Gd192 O215 2.506 . S
Gd192 O216 2.435 1_545 S
Gd192 O217 2.720 . S
Gd192 O219 2.403 . S
Gd192 O223 2.327 . S
Gd193 C204 2.818 1_544 S
Gd193 O213 2.395 . S
Gd193 O217 2.334 . S
Gd193 O218 2.377 . S
Gd193 O220 2.448 1_554 S
Gd193 O221 2.506 1_545 S
Gd193 O222 2.435 . S
Gd193 O223 2.717 . S
C194 O212 1.240 . S
C194 O213 1.240 . S
C195 Gd192 2.818 . S
C195 C196 1.510 . S
C195 O214 1.249 . S
C195 O215 1.252 . S
C196 C195 1.510 . S
C196 C197 1.404 . S
C196 C198 1.352 . S
C197 C196 1.404 . S
C197 C201 1.389 . S
C197 H224 0.930 . S
C198 C196 1.352 . S
C198 C200 1.374 . S
C198 H225 0.931 . S
C199 C200 1.359 . S
C199 C201 1.364 . S
C200 C198 1.374 . S
C200 C199 1.359 . S
C200 H226 0.931 . S
C201 C197 1.389 . S
C201 C199 1.364 . S
C201 H227 0.931 . S
C202 O216 1.256 . S
C202 O217 1.251 1_565 S
C203 O218 1.240 1_565 S
C203 O219 1.240 1_565 S
C204 Gd193 2.818 1_566 S
C204 C205 1.510 . S
C204 O220 1.249 1_565 S
C204 O221 1.252 1_556 S
C205 C204 1.510 . S
C205 C206 1.404 . S
C205 C207 1.352 . S
C206 C205 1.404 . S
C206 C210 1.389 . S
C206 H228 0.930 1_565 S
C207 C205 1.352 . S
C207 C209 1.374 . S
C207 H229 0.931 . S
C208 C209 1.359 . S
C208 C210 1.364 . S
C209 C207 1.374 . S
C209 C208 1.359 . S
C209 H230 0.931 . S
C210 C206 1.389 . S
C210 C208 1.364 . S
C210 H231 0.931 . S
C211 O222 1.256 . S
C211 O223 1.257 . S
O212 Gd192 2.377 . S
O212 C194 1.240 . S
O213 Gd193 2.395 . S
O213 C194 1.240 . S
O214 Gd192 2.448 . S
O214 C195 1.249 . S
O215 Gd192 2.506 . S
O215 C195 1.252 . S
O216 Gd192 2.435 1_565 S
O216 C202 1.256 . S
O217 Gd192 2.720 . S
O217 Gd193 2.334 . S
O217 C202 1.251 1_545 S
O218 Gd193 2.377 . S
O218 C203 1.240 1_545 S
O219 Gd192 2.403 . S
O219 C203 1.240 1_545 S
O220 Gd193 2.448 1_556 S
O220 C204 1.249 1_545 S
O221 Gd193 2.506 1_565 S
O221 C204 1.252 1_554 S
O222 Gd193 2.435 . S
O222 C211 1.256 . S
O223 Gd192 2.327 . S
O223 Gd193 2.717 . S
O223 C211 1.257 . S
H224 C197 0.930 . S
H225 C198 0.931 . S
H226 C200 0.931 . S
H227 C201 0.931 . S
H228 C206 0.930 1_545 S
H229 C207 0.931 . S
H230 C209 0.931 . S
H231 C210 0.931 . S
Gd232 C235 2.818 . S
Gd232 O252 2.377 . S
Gd232 O254 2.448 . S
Gd232 O255 2.506 . S
Gd232 O256 2.435 . S
Gd232 O257 2.717 . S
Gd232 O259 2.395 . S
Gd232 O263 2.327 . S
Gd233 C244 2.818 . S
Gd233 O253 2.395 . S
Gd233 O257 2.327 . S
Gd233 O258 2.377 . S
Gd233 O260 2.448 . S
Gd233 O261 2.506 . S
Gd233 O262 2.435 . S
Gd233 O263 2.717 . S
C234 O252 1.240 . S
C234 O253 1.240 . S
C235 Gd232 2.818 . S
C235 C236 1.510 . S
C235 O254 1.249 . S
C235 O255 1.252 . S
C236 C235 1.510 . S
C236 C237 1.404 . S
C236 C238 1.352 . S
C237 C236 1.404 . S
C237 C241 1.389 . S
C237 H264 0.930 . S
C238 C236 1.352 . S
C238 C240 1.374 . S
C238 H265 0.931 . S
C239 C240 1.359 . S
C239 C241 1.364 . S
C240 C238 1.374 . S
C240 C239 1.359 . S
C240 H266 0.931 . S
C241 C237 1.389 . S
C241 C239 1.364 . S
C241 H267 0.931 . S
C242 O256 1.256 . S
C242 O257 1.257 . S
C243 O258 1.240 . S
C243 O259 1.240 . S
C244 Gd233 2.818 . S
C244 C245 1.510 . S
C244 O260 1.249 . S
C244 O261 1.252 . S
C245 C244 1.510 . S
C245 C246 1.404 . S
C245 C247 1.352 . S
C246 C245 1.404 . S
C246 C250 1.389 . S
C246 H268 0.930 . S
C247 C245 1.352 . S
C247 C249 1.374 . S
C247 H269 0.931 . S
C248 C249 1.359 . S
C248 C250 1.364 . S
C249 C247 1.374 . S
C249 C248 1.359 . S
C249 H270 0.931 . S
C250 C246 1.389 . S
C250 C248 1.364 . S
C250 H271 0.931 . S
C251 O262 1.256 . S
C251 O263 1.257 . S
O252 Gd232 2.377 . S
O252 C234 1.240 . S
O253 Gd233 2.395 . S
O253 C234 1.240 . S
O254 Gd232 2.448 . S
O254 C235 1.249 . S
O255 Gd232 2.506 . S
O255 C235 1.252 . S
O256 Gd232 2.435 . S
O256 C242 1.256 . S
O257 Gd232 2.717 . S
O257 Gd233 2.327 . S
O257 C242 1.257 . S
O258 Gd233 2.377 . S
O258 C243 1.240 . S
O259 Gd232 2.395 . S
O259 C243 1.240 . S
O260 Gd233 2.448 . S
O260 C244 1.249 . S
O261 Gd233 2.506 . S
O261 C244 1.252 . S
O262 Gd233 2.435 . S
O262 C251 1.256 . S
O263 Gd232 2.327 . S
O263 Gd233 2.717 . S
O263 C251 1.257 . S
H264 C237 0.930 . S
H265 C238 0.931 . S
H266 C240 0.931 . S
H267 C241 0.931 . S
H268 C246 0.930 . S
H269 C247 0.931 . S
H270 C249 0.931 . S
H271 C250 0.931 . S
Gd272 C275 2.818 . S
Gd272 O292 2.377 . S
Gd272 O294 2.448 . S
Gd272 O295 2.506 . S
Gd272 O296 2.435 . S
Gd272 O297 2.717 . S
Gd272 O299 2.395 1_455 S
Gd272 O303 2.327 1_554 S
Gd273 C284 2.818 1_455 S
Gd273 O293 2.395 1_556 S
Gd273 O297 2.327 1_556 S
Gd273 O298 2.377 1_455 S
Gd273 O300 2.448 . S
Gd273 O301 2.506 1_455 S
Gd273 O302 2.435 . S
Gd273 O303 2.717 . S
C274 O292 1.240 . S
C274 O293 1.240 . S
C275 Gd272 2.818 . S
C275 C276 1.510 . S
C275 O294 1.249 . S
C275 O295 1.252 . S
C276 C275 1.510 . S
C276 C277 1.404 . S
C276 C278 1.352 . S
C277 C276 1.404 . S
C277 C281 1.389 . S
C277 H304 0.930 . S
C278 C276 1.352 . S
C278 C280 1.374 . S
C278 H305 0.931 . S
C279 C280 1.359 . S
C279 C281 1.364 . S
C280 C278 1.374 . S
C280 C279 1.359 . S
C280 H306 0.931 . S
C281 C277 1.389 . S
C281 C279 1.364 . S
C281 H307 0.931 . S
C282 O296 1.256 . S
C282 O297 1.257 . S
C283 O298 1.240 . S
C283 O299 1.240 1_556 S
C284 Gd273 2.818 1_655 S
C284 C285 1.510 . S
C284 O300 1.249 1_655 S
C284 O301 1.252 . S
C285 C284 1.510 . S
C285 C286 1.404 . S
C285 C287 1.352 . S
C286 C285 1.404 . S
C286 C290 1.389 . S
C286 H308 0.930 . S
C287 C285 1.352 . S
C287 C289 1.374 . S
C287 H309 0.931 . S
C288 C289 1.359 . S
C288 C290 1.364 . S
C289 C287 1.374 . S
C289 C288 1.359 . S
C289 H310 0.931 . S
C290 C286 1.389 . S
C290 C288 1.364 . S
C290 H311 0.931 . S
C291 O302 1.256 . S
C291 O303 1.257 . S
O292 Gd272 2.377 . S
O292 C274 1.240 . S
O293 Gd273 2.395 1_554 S
O293 C274 1.240 . S
O294 Gd272 2.448 . S
O294 C275 1.249 . S
O295 Gd272 2.506 . S
O295 C275 1.252 . S
O296 Gd272 2.435 . S
O296 C282 1.256 . S
O297 Gd272 2.717 . S
O297 Gd273 2.327 1_554 S
O297 C282 1.257 . S
O298 Gd273 2.377 1_655 S
O298 C283 1.240 . S
O299 Gd272 2.395 1_655 S
O299 C283 1.240 1_554 S
O300 Gd273 2.448 . S
O300 C284 1.249 1_455 S
O301 Gd273 2.506 1_655 S
O301 C284 1.252 . S
O302 Gd273 2.435 . S
O302 C291 1.256 . S
O303 Gd272 2.327 1_556 S
O303 Gd273 2.717 . S
O303 C291 1.257 . S
H304 C277 0.930 . S
H305 C278 0.931 . S
H306 C280 0.931 . S
H307 C281 0.931 . S
H308 C286 0.930 . S
H309 C287 0.931 . S
H310 C289 0.931 . S
H311 C290 0.931 . S
H312 C318 0.930 . S
H313 C322 0.930 . S
H314 C327 0.929 . S
H315 C325 0.929 . S
H316 C320 0.929 . S
H317 C326 0.929 . S
C318 H312 0.930 . S
C318 C319 1.367 . S
C318 C326 1.378 . S
C319 C318 1.367 . S
C319 C327 1.433 . S
C320 H316 0.929 . S
C320 C322 1.378 . S
C320 C324 1.350 . S
C321 C324 1.463 . S
C321 C326 1.350 . S
C321 N329 1.427 . S
C322 H313 0.930 . S
C322 C320 1.378 . S
C322 C323 1.367 . S
C323 C322 1.367 . S
C323 C325 1.433 . S
C324 C320 1.350 . S
C324 C321 1.463 . S
C324 N328 1.427 . S
C325 H315 0.929 . S
C325 C323 1.433 . S
C325 N328 1.384 . S
C326 H317 0.929 . S
C326 C318 1.378 . S
C326 C321 1.350 . S
C327 H314 0.929 . S
C327 C319 1.433 . S
C327 N329 1.384 . S
N328 C324 1.427 . S
N328 C325 1.384 . S
N329 C321 1.427 . S
N329 C327 1.384 . S
H330 C336 0.930 . S
H331 C340 0.930 . S
H332 C345 0.929 . S
H333 C343 0.929 . S
H334 C338 0.929 . S
H335 C344 0.929 . S
C336 H330 0.930 . S
C336 C337 1.367 . S
C336 C344 1.378 . S
C337 C336 1.367 . S
C337 C345 1.433 . S
C338 H334 0.929 . S
C338 C340 1.378 . S
C338 C342 1.350 . S
C339 C342 1.463 . S
C339 C344 1.350 . S
C339 N347 1.427 . S
C340 H331 0.930 . S
C340 C338 1.378 . S
C340 C341 1.367 . S
C341 C340 1.367 . S
C341 C343 1.433 . S
C342 C338 1.350 . S
C342 C339 1.463 . S
C342 N346 1.427 . S
C343 H333 0.929 . S
C343 C341 1.433 . S
C343 N346 1.384 . S
C344 H335 0.929 . S
C344 C336 1.378 . S
C344 C339 1.350 . S
C345 H332 0.929 . S
C345 C337 1.433 . S
C345 N347 1.384 . S
N346 C342 1.427 . S
N346 C343 1.384 . S
N347 C339 1.427 . S
N347 C345 1.384 . S
H348 C354 0.930 . S
H349 C358 0.930 . S
H350 C363 0.929 . S
H351 C361 0.929 . S
H352 C356 0.929 . S
H353 C362 0.929 . S
C354 H348 0.930 . S
C354 C355 1.367 . S
C354 C362 1.378 . S
C355 C354 1.367 . S
C355 C363 1.433 . S
C356 H352 0.929 . S
C356 C358 1.378 . S
C356 C360 1.350 . S
C357 C360 1.463 . S
C357 C362 1.350 . S
C357 N365 1.427 . S
C358 H349 0.930 . S
C358 C356 1.378 . S
C358 C359 1.367 . S
C359 C358 1.367 . S
C359 C361 1.433 . S
C360 C356 1.350 . S
C360 C357 1.463 . S
C360 N364 1.427 . S
C361 H351 0.929 . S
C361 C359 1.433 . S
C361 N364 1.384 . S
C362 H353 0.929 . S
C362 C354 1.378 . S
C362 C357 1.350 . S
C363 H350 0.929 . S
C363 C355 1.433 . S
C363 N365 1.384 . S
N364 C360 1.427 . S
N364 C361 1.384 . S
N365 C357 1.427 . S
N365 C363 1.384 . S
H366 C372 0.930 . S
H367 C376 0.930 . S
H368 C381 0.929 . S
H369 C379 0.929 . S
H370 C374 0.929 . S
H371 C380 0.929 . S
C372 H366 0.930 . S
C372 C373 1.367 . S
C372 C380 1.378 . S
C373 C372 1.367 . S
C373 C381 1.433 . S
C374 H370 0.929 . S
C374 C376 1.378 . S
C374 C378 1.350 . S
C375 C378 1.463 . S
C375 C380 1.350 . S
C375 N383 1.427 . S
C376 H367 0.930 . S
C376 C374 1.378 . S
C376 C377 1.367 . S
C377 C376 1.367 . S
C377 C379 1.433 1_655 S
C378 C374 1.350 . S
C378 C375 1.463 . S
C378 N382 1.427 . S
C379 H369 0.929 . S
C379 C377 1.433 1_455 S
C379 N382 1.384 1_455 S
C380 H371 0.929 . S
C380 C372 1.378 . S
C380 C375 1.350 . S
C381 H368 0.929 . S
C381 C373 1.433 . S
C381 N383 1.384 . S
N382 C378 1.427 . S
N382 C379 1.384 1_655 S
N383 C375 1.427 . S
N383 C381 1.384 . S
H384 C390 0.930 . S
H385 C394 0.930 . S
H386 C399 0.929 . S
H387 C397 0.929 . S
H388 C392 0.929 . S
H389 C398 0.929 . S
C390 H384 0.930 . S
C390 C391 1.367 . S
C390 C398 1.378 . S
C391 C390 1.367 . S
C391 C399 1.433 . S
C392 H388 0.929 . S
C392 C394 1.378 . S
C392 C396 1.350 . S
C393 C396 1.463 . S
C393 C398 1.350 . S
C393 N401 1.427 . S
C394 H385 0.930 . S
C394 C392 1.378 . S
C394 C395 1.367 . S
C395 C394 1.367 . S
C395 C397 1.433 . S
C396 C392 1.350 . S
C396 C393 1.463 . S
C396 N400 1.427 . S
C397 H387 0.929 . S
C397 C395 1.433 . S
C397 N400 1.384 . S
C398 H389 0.929 . S
C398 C390 1.378 . S
C398 C393 1.350 . S
C399 H386 0.929 . S
C399 C391 1.433 . S
C399 N401 1.384 . S
N400 C396 1.427 . S
N400 C397 1.384 . S
N401 C393 1.427 . S
N401 C399 1.384 . S
H402 C408 0.930 . S
H403 C412 0.930 . S
H404 C417 0.929 . S
H405 C415 0.929 . S
H406 C410 0.929 . S
H407 C416 0.929 . S
C408 H402 0.930 . S
C408 C409 1.367 . S
C408 C416 1.378 . S
C409 C408 1.367 . S
C409 C417 1.433 . S
C410 H406 0.929 . S
C410 C412 1.378 . S
C410 C414 1.350 . S
C411 C414 1.463 . S
C411 C416 1.350 . S
C411 N419 1.427 . S
C412 H403 0.930 . S
C412 C410 1.378 . S
C412 C413 1.367 1_565 S
C413 C412 1.367 1_545 S
C413 C415 1.433 . S
C414 C410 1.350 . S
C414 C411 1.463 . S
C414 N418 1.427 . S
C415 H405 0.929 . S
C415 C413 1.433 . S
C415 N418 1.384 1_545 S
C416 H407 0.929 . S
C416 C408 1.378 . S
C416 C411 1.350 . S
C417 H404 0.929 . S
C417 C409 1.433 . S
C417 N419 1.384 . S
N418 C414 1.427 . S
N418 C415 1.384 1_565 S
N419 C411 1.427 . S
N419 C417 1.384 . S
H420 C426 0.930 . S
H421 C430 0.930 . S
H422 C435 0.929 . S
H423 C433 0.929 . S
H424 C428 0.929 . S
H425 C434 0.929 . S
C426 H420 0.930 . S
C426 C427 1.367 . S
C426 C434 1.378 . S
C427 C426 1.367 . S
C427 C435 1.433 . S
C428 H424 0.929 . S
C428 C430 1.378 . S
C428 C432 1.350 . S
C429 C432 1.463 . S
C429 C434 1.350 . S
C429 N437 1.427 . S
C430 H421 0.930 . S
C430 C428 1.378 . S
C430 C431 1.367 . S
C431 C430 1.367 . S
C431 C433 1.433 . S
C432 C428 1.350 . S
C432 C429 1.463 . S
C432 N436 1.427 . S
C433 H423 0.929 . S
C433 C431 1.433 . S
C433 N436 1.384 . S
C434 H425 0.929 . S
C434 C426 1.378 . S
C434 C429 1.350 . S
C435 H422 0.929 . S
C435 C427 1.433 . S
C435 N437 1.384 . S
N436 C432 1.427 . S
N436 C433 1.384 . S
N437 C429 1.427 . S
N437 C435 1.384 . S
H438 C444 0.930 . S
H439 C448 0.930 . S
H440 C453 0.929 . S
H441 C451 0.929 . S
H442 C446 0.929 . S
H443 C452 0.929 . S
C444 H438 0.930 . S
C444 C445 1.367 . S
C444 C452 1.378 . S
C445 C444 1.367 . S
C445 C453 1.433 . S
C446 H442 0.929 . S
C446 C448 1.378 . S
C446 C450 1.350 . S
C447 C450 1.463 . S
C447 C452 1.350 . S
C447 N455 1.427 . S
C448 H439 0.930 . S
C448 C446 1.378 . S
C448 C449 1.367 . S
C449 C448 1.367 . S
C449 C451 1.433 . S
C450 C446 1.350 . S
C450 C447 1.463 . S
C450 N454 1.427 . S
C451 H441 0.929 . S
C451 C449 1.433 . S
C451 N454 1.384 . S
C452 H443 0.929 . S
C452 C444 1.378 . S
C452 C447 1.350 . S
C453 H440 0.929 . S
C453 C445 1.433 . S
C453 N455 1.384 . S
N454 C450 1.427 . S
N454 C451 1.384 . S
N455 C447 1.427 . S
N455 C453 1.384 . S
H456 C462 0.930 . S
H457 C466 0.930 . S
H458 C471 0.929 . S
H459 C469 0.929 . S
H460 C464 0.929 . S
H461 C470 0.929 . S
C462 H456 0.930 . S
C462 C463 1.367 . S
C462 C470 1.378 . S
C463 C462 1.367 . S
C463 C471 1.433 . S
C464 H460 0.929 . S
C464 C466 1.378 . S
C464 C468 1.350 . S
C465 C468 1.463 . S
C465 C470 1.350 . S
C465 N473 1.427 . S
C466 H457 0.930 . S
C466 C464 1.378 . S
C466 C467 1.367 . S
C467 C466 1.367 . S
C467 C469 1.433 . S
C468 C464 1.350 . S
C468 C465 1.463 . S
C468 N472 1.427 . S
C469 H459 0.929 . S
C469 C467 1.433 . S
C469 N472 1.384 . S
C470 H461 0.929 . S
C470 C462 1.378 . S
C470 C465 1.350 . S
C471 H458 0.929 . S
C471 C463 1.433 . S
C471 N473 1.384 . S
N472 C468 1.427 . S
N472 C469 1.384 . S
N473 C465 1.427 . S
N473 C471 1.384 . S
H474 C480 0.930 . S
H475 C484 0.930 . S
H476 C489 0.929 . S
H477 C487 0.929 . S
H478 C482 0.929 . S
H479 C488 0.929 . S
C480 H474 0.930 . S
C480 C481 1.367 . S
C480 C488 1.378 . S
C481 C480 1.367 . S
C481 C489 1.433 . S
C482 H478 0.929 . S
C482 C484 1.378 . S
C482 C486 1.350 1_554 S
C483 C486 1.463 . S
C483 C488 1.350 . S
C483 N491 1.427 . S
C484 H475 0.930 . S
C484 C482 1.378 . S
C484 C485 1.367 . S
C485 C484 1.367 . S
C485 C487 1.433 1_554 S
C486 C482 1.350 1_556 S
C486 C483 1.463 . S
C486 N490 1.427 . S
C487 H477 0.929 . S
C487 C485 1.433 1_556 S
C487 N490 1.384 . S
C488 H479 0.929 . S
C488 C480 1.378 . S
C488 C483 1.350 . S
C489 H476 0.929 . S
C489 C481 1.433 . S
C489 N491 1.384 . S
N490 C486 1.427 . S
N490 C487 1.384 . S
N491 C483 1.427 . S
N491 C489 1.384 . S
H492 C498 0.930 . S
H493 C502 0.930 . S
H494 C507 0.929 . S
H495 C505 0.929 . S
H496 C500 0.929 . S
H497 C506 0.929 . S
C498 H492 0.930 . S
C498 C499 1.367 . S
C498 C506 1.378 . S
C499 C498 1.367 . S
C499 C507 1.433 . S
C500 H496 0.929 . S
C500 C502 1.378 . S
C500 C504 1.350 . S
C501 C504 1.463 . S
C501 C506 1.350 . S
C501 N509 1.427 . S
C502 H493 0.930 . S
C502 C500 1.378 . S
C502 C503 1.367 . S
C503 C502 1.367 . S
C503 C505 1.433 . S
C504 C500 1.350 . S
C504 C501 1.463 . S
C504 N508 1.427 . S
C505 H495 0.929 . S
C505 C503 1.433 . S
C505 N508 1.384 . S
C506 H497 0.929 . S
C506 C498 1.378 . S
C506 C501 1.350 . S
C507 H494 0.929 . S
C507 C499 1.433 . S
C507 N509 1.384 . S
N508 C504 1.427 . S
N508 C505 1.384 . S
N509 C501 1.427 . S
N509 C507 1.384 . S
H510 C516 0.930 . S
H511 C520 0.930 . S
H512 C525 0.929 . S
H513 C523 0.929 . S
H514 C518 0.929 . S
H515 C524 0.929 . S
C516 H510 0.930 . S
C516 C517 1.367 . S
C516 C524 1.378 . S
C517 C516 1.367 . S
C517 C525 1.433 . S
C518 H514 0.929 . S
C518 C520 1.378 . S
C518 C522 1.350 . S
C519 C522 1.463 . S
C519 C524 1.350 . S
C519 N527 1.427 . S
C520 H511 0.930 . S
C520 C518 1.378 . S
C520 C521 1.367 . S
C521 C520 1.367 . S
C521 C523 1.433 . S
C522 C518 1.350 . S
C522 C519 1.463 . S
C522 N526 1.427 . S
C523 H513 0.929 . S
C523 C521 1.433 . S
C523 N526 1.384 . S
C524 H515 0.929 . S
C524 C516 1.378 . S
C524 C519 1.350 . S
C525 H512 0.929 . S
C525 C517 1.433 . S
C525 N527 1.384 . S
N526 C522 1.427 . S
N526 C523 1.384 . S
N527 C519 1.427 . S
N527 C525 1.384 . S
H528 C534 0.930 . S
H529 C538 0.930 . S
H530 C543 0.929 . S
H531 C541 0.929 . S
H532 C536 0.929 . S
H533 C542 0.929 . S
C534 H528 0.930 . S
C534 C535 1.367 . S
C534 C542 1.378 . S
C535 C534 1.367 . S
C535 C543 1.433 . S
C536 H532 0.929 . S
C536 C538 1.378 . S
C536 C540 1.350 . S
C537 C540 1.463 . S
C537 C542 1.350 . S
C537 N545 1.427 . S
C538 H529 0.930 . S
C538 C536 1.378 . S
C538 C539 1.367 . S
C539 C538 1.367 . S
C539 C541 1.433 . S
C540 C536 1.350 . S
C540 C537 1.463 . S
C540 N544 1.427 . S
C541 H531 0.929 . S
C541 C539 1.433 . S
C541 N544 1.384 . S
C542 H533 0.929 . S
C542 C534 1.378 . S
C542 C537 1.350 . S
C543 H530 0.929 . S
C543 C535 1.433 . S
C543 N545 1.384 . S
N544 C540 1.427 . S
N544 C541 1.384 . S
N545 C537 1.427 . S
N545 C543 1.384 . S
H546 C552 0.930 . S
H547 C556 0.930 . S
H548 C561 0.929 . S
H549 C559 0.929 . S
H550 C554 0.929 . S
H551 C560 0.929 . S
C552 H546 0.930 . S
C552 C553 1.367 . S
C552 C560 1.378 . S
C553 C552 1.367 . S
C553 C561 1.433 . S
C554 H550 0.929 . S
C554 C556 1.378 . S
C554 C558 1.350 . S
C555 C558 1.463 . S
C555 C560 1.350 . S
C555 N563 1.427 . S
C556 H547 0.930 . S
C556 C554 1.378 . S
C556 C557 1.367 . S
C557 C556 1.367 . S
C557 C559 1.433 . S
C558 C554 1.350 . S
C558 C555 1.463 . S
C558 N562 1.427 . S
C559 H549 0.929 . S
C559 C557 1.433 . S
C559 N562 1.384 . S
C560 H551 0.929 . S
C560 C552 1.378 . S
C560 C555 1.350 . S
C561 H548 0.929 . S
C561 C553 1.433 . S
C561 N563 1.384 . S
N562 C558 1.427 . S
N562 C559 1.384 . S
N563 C555 1.427 . S
N563 C561 1.384 . S
H564 C570 0.930 . S
H565 C574 0.930 . S
H566 C579 0.929 . S
H567 C577 0.929 . S
H568 C572 0.929 . S
H569 C578 0.929 . S
C570 H564 0.930 . S
C570 C571 1.367 . S
C570 C578 1.378 . S
C571 C570 1.367 . S
C571 C579 1.433 . S
C572 H568 0.929 . S
C572 C574 1.378 . S
C572 C576 1.350 . S
C573 C576 1.463 . S
C573 C578 1.350 . S
C573 N581 1.427 . S
C574 H565 0.930 . S
C574 C572 1.378 . S
C574 C575 1.367 . S
C575 C574 1.367 . S
C575 C577 1.433 . S
C576 C572 1.350 . S
C576 C573 1.463 . S
C576 N580 1.427 . S
C577 H567 0.929 . S
C577 C575 1.433 . S
C577 N580 1.384 . S
C578 H569 0.929 . S
C578 C570 1.378 . S
C578 C573 1.350 . S
C579 H566 0.929 . S
C579 C571 1.433 . S
C579 N581 1.384 . S
N580 C576 1.427 . S
N580 C577 1.384 . S
N581 C573 1.427 . S
N581 C579 1.384 . S
H582 C588 0.930 . S
H583 C592 0.930 . S
H584 C597 0.929 . S
H585 C595 0.929 . S
H586 C590 0.929 . S
H587 C596 0.929 . S
C588 H582 0.930 . S
C588 C589 1.367 . S
C588 C596 1.378 . S
C589 C588 1.367 . S
C589 C597 1.433 . S
C590 H586 0.929 . S
C590 C592 1.378 . S
C590 C594 1.350 . S
C591 C594 1.463 . S
C591 C596 1.350 . S
C591 N599 1.427 . S
C592 H583 0.930 . S
C592 C590 1.378 . S
C592 C593 1.367 . S
C593 C592 1.367 . S
C593 C595 1.433 . S
C594 C590 1.350 . S
C594 C591 1.463 . S
C594 N598 1.427 . S
C595 H585 0.929 . S
C595 C593 1.433 . S
C595 N598 1.384 . S
C596 H587 0.929 . S
C596 C588 1.378 . S
C596 C591 1.350 . S
C597 H584 0.929 . S
C597 C589 1.433 . S
C597 N599 1.384 . S
N598 C594 1.427 . S
N598 C595 1.384 . S
N599 C591 1.427 . S
N599 C597 1.384 . S
H600 C606 0.930 . S
H601 C610 0.930 . S
H602 C615 0.929 . S
H603 C613 0.929 . S
H604 C608 0.942 . S
H605 C614 0.929 . S
C606 H600 0.930 . S
C606 C607 1.367 . S
C606 C614 1.378 . S
C607 C606 1.367 . S
C607 C615 1.433 . S
C608 H604 0.942 . S
C608 C610 1.395 . S
C608 C612 1.319 1_554 S
C609 C612 1.463 . S
C609 C614 1.350 . S
C609 N617 1.427 . S
C610 H601 0.930 . S
C610 C608 1.395 . S
C610 C611 1.367 . S
C611 C610 1.367 . S
C611 C613 1.433 1_554 S
C612 C608 1.319 1_556 S
C612 C609 1.463 . S
C612 N616 1.427 . S
C613 H603 0.929 . S
C613 C611 1.433 1_556 S
C613 N616 1.384 . S
C614 H605 0.929 . S
C614 C606 1.378 . S
C614 C609 1.350 . S
C615 H602 0.929 . S
C615 C607 1.433 . S
C615 N617 1.384 . S
N616 C612 1.427 . S
N616 C613 1.384 . S
N617 C609 1.427 . S
N617 C615 1.384 . S
H618 C624 0.930 . S
H619 C628 0.930 . S
H620 C633 0.929 . S
H621 C631 0.929 . S
H622 C626 0.929 . S
H623 C632 0.929 . S
C624 H618 0.930 . S
C624 C625 1.367 . S
C624 C632 1.378 . S
C625 C624 1.367 . S
C625 C633 1.433 . S
C626 H622 0.929 . S
C626 C628 1.378 . S
C626 C630 1.350 . S
C627 C630 1.463 . S
C627 C632 1.350 . S
C627 N635 1.427 . S
C628 H619 0.930 . S
C628 C626 1.378 . S
C628 C629 1.367 . S
C629 C628 1.367 . S
C629 C631 1.433 . S
C630 C626 1.350 . S
C630 C627 1.463 . S
C630 N634 1.427 . S
C631 H621 0.929 . S
C631 C629 1.433 . S
C631 N634 1.384 . S
C632 H623 0.929 . S
C632 C624 1.378 . S
C632 C627 1.350 . S
C633 H620 0.929 . S
C633 C625 1.433 . S
C633 N635 1.384 . S
N634 C630 1.427 . S
N634 C631 1.384 . S
N635 C627 1.427 . S
N635 C633 1.384 . S
H636 C642 0.930 . S
H637 C646 0.930 . S
H638 C651 0.929 . S
H639 C649 0.929 . S
H640 C644 0.929 . S
H641 C650 0.929 . S
C642 H636 0.930 . S
C642 C643 1.367 . S
C642 C650 1.378 . S
C643 C642 1.367 . S
C643 C651 1.433 . S
C644 H640 0.929 . S
C644 C646 1.378 . S
C644 C648 1.350 . S
C645 C648 1.463 . S
C645 C650 1.350 . S
C645 N653 1.427 . S
C646 H637 0.930 . S
C646 C644 1.378 . S
C646 C647 1.367 . S
C647 C646 1.367 . S
C647 C649 1.433 . S
C648 C644 1.350 . S
C648 C645 1.463 . S
C648 N652 1.427 . S
C649 H639 0.929 . S
C649 C647 1.433 . S
C649 N652 1.384 . S
C650 H641 0.929 . S
C650 C642 1.378 . S
C650 C645 1.350 . S
C651 H638 0.929 . S
C651 C643 1.433 . S
C651 N653 1.384 . S
N652 C648 1.427 . S
N652 C649 1.384 . S
N653 C645 1.427 . S
N653 C651 1.384 . S
H654 C660 0.930 . S
H655 C664 0.930 . S
H656 C669 0.929 . S
H657 C667 0.929 . S
H658 C662 0.929 . S
H659 C668 0.929 . S
C660 H654 0.930 . S
C660 C661 1.367 . S
C660 C668 1.378 . S
C661 C660 1.367 . S
C661 C669 1.433 . S
C662 H658 0.929 . S
C662 C664 1.378 . S
C662 C666 1.350 . S
C663 C666 1.463 . S
C663 C668 1.350 . S
C663 N671 1.427 . S
C664 H655 0.930 . S
C664 C662 1.378 . S
C664 C665 1.367 . S
C665 C664 1.367 . S
C665 C667 1.433 . S
C666 C662 1.350 . S
C666 C663 1.463 . S
C666 N670 1.427 . S
C667 H657 0.929 . S
C667 C665 1.433 . S
C667 N670 1.384 . S
C668 H659 0.929 . S
C668 C660 1.378 . S
C668 C663 1.350 . S
C669 H656 0.929 . S
C669 C661 1.433 . S
C669 N671 1.384 . S
N670 C666 1.427 . S
N670 C667 1.384 . S
N671 C663 1.427 . S
N671 C669 1.384 . S
H672 C678 0.930 . S
H673 C682 0.930 . S
H674 C687 0.929 . S
H675 C685 0.929 . S
H676 C680 0.929 . S
H677 C686 0.929 . S
C678 H672 0.930 . S
C678 C679 1.367 . S
C678 C686 1.378 . S
C679 C678 1.367 . S
C679 C687 1.433 . S
C680 H676 0.929 . S
C680 C682 1.378 . S
C680 C684 1.350 . S
C681 C684 1.463 . S
C681 C686 1.350 . S
C681 N689 1.427 . S
C682 H673 0.930 . S
C682 C680 1.378 . S
C682 C683 1.367 . S
C683 C682 1.367 . S
C683 C685 1.433 . S
C684 C680 1.350 . S
C684 C681 1.463 . S
C684 N688 1.427 . S
C685 H675 0.929 . S
C685 C683 1.433 . S
C685 N688 1.384 . S
C686 H677 0.929 . S
C686 C678 1.378 . S
C686 C681 1.350 . S
C687 H674 0.929 . S
C687 C679 1.433 . S
C687 N689 1.384 . S
N688 C684 1.427 . S
N688 C685 1.384 . S
N689 C681 1.427 . S
N689 C687 1.384 . S
H690 C696 0.930 . S
H691 C700 0.930 . S
H692 C705 0.929 . S
H693 C703 0.929 . S
H694 C698 0.929 . S
H695 C704 0.929 . S
C696 H690 0.930 . S
C696 C697 1.367 . S
C696 C704 1.378 . S
C697 C696 1.367 . S
C697 C705 1.433 . S
C698 H694 0.929 . S
C698 C700 1.378 . S
C698 C702 1.350 . S
C699 C702 1.463 . S
C699 C704 1.350 . S
C699 N707 1.427 . S
C700 H691 0.930 . S
C700 C698 1.378 . S
C700 C701 1.367 . S
C701 C700 1.367 . S
C701 C703 1.433 . S
C702 C698 1.350 . S
C702 C699 1.463 . S
C702 N706 1.427 . S
C703 H693 0.929 . S
C703 C701 1.433 . S
C703 N706 1.384 . S
C704 H695 0.929 . S
C704 C696 1.378 . S
C704 C699 1.350 . S
C705 H692 0.929 . S
C705 C697 1.433 . S
C705 N707 1.384 . S
N706 C702 1.427 . S
N706 C703 1.384 . S
N707 C699 1.427 . S
N707 C705 1.384 . S
H708 C714 0.930 . S
H709 C718 0.930 . S
H710 C723 0.929 . S
H711 C721 0.929 . S
H712 C716 0.929 . S
H713 C722 0.929 . S
C714 H708 0.930 . S
C714 C715 1.367 . S
C714 C722 1.378 . S
C715 C714 1.367 . S
C715 C723 1.433 . S
C716 H712 0.929 . S
C716 C718 1.378 . S
C716 C720 1.350 . S
C717 C720 1.463 . S
C717 C722 1.350 . S
C717 N725 1.427 . S
C718 H709 0.930 . S
C718 C716 1.378 . S
C718 C719 1.367 . S
C719 C718 1.367 . S
C719 C721 1.433 . S
C720 C716 1.350 . S
C720 C717 1.463 . S
C720 N724 1.427 . S
C721 H711 0.929 . S
C721 C719 1.433 . S
C721 N724 1.384 . S
C722 H713 0.929 . S
C722 C714 1.378 . S
C722 C717 1.350 . S
C723 H710 0.929 . S
C723 C715 1.433 . S
C723 N725 1.384 . S
N724 C720 1.427 . S
N724 C721 1.384 . S
N725 C717 1.427 . S
N725 C723 1.384 . S
H726 C732 0.930 . S
H727 C736 0.930 . S
H728 C741 0.929 . S
H729 C739 0.929 . S
H730 C734 0.929 . S
H731 C740 0.929 . S
C732 H726 0.930 . S
C732 C733 1.367 . S
C732 C740 1.378 . S
C733 C732 1.367 . S
C733 C741 1.433 . S
C734 H730 0.929 . S
C734 C736 1.378 . S
C734 C738 1.350 . S
C735 C738 1.463 . S
C735 C740 1.350 . S
C735 N743 1.427 . S
C736 H727 0.930 . S
C736 C734 1.378 . S
C736 C737 1.367 . S
C737 C736 1.367 . S
C737 C739 1.433 . S
C738 C734 1.350 . S
C738 C735 1.463 . S
C738 N742 1.427 . S
C739 H729 0.929 . S
C739 C737 1.433 . S
C739 N742 1.384 . S
C740 H731 0.929 . S
C740 C732 1.378 . S
C740 C735 1.350 . S
C741 H728 0.929 . S
C741 C733 1.433 . S
C741 N743 1.384 . S
N742 C738 1.427 . S
N742 C739 1.384 . S
N743 C735 1.427 . S
N743 C741 1.384 . S
C319 C6 1.203 . S
C323 C159 1.227 . S
C337 C21 1.468 . S
C341 C208 1.494 . S
C359 C234 1.846 . S
C355 C49 1.794 . S
C373 C68 2.075 . S
C377 C282 2.120 1_655 S
C395 C194 2.998 . S
C391 C2 2.884 . S
C413 C162 0.447 . S
C409 C30 0.501 . S
C431 C283 1.868 . S
C427 C40 1.905 . S
C449 C251 1.490 . S
C445 C63 1.498 . S
C463 C11 1.428 . S
C467 C279 1.580 . S
C485 C211 2.603 . S
C481 C44 2.671 . S
C499 C59 1.962 . S
C503 C163 1.967 . S
C517 C25 1.335 . S
C521 C248 1.311 . S
C539 C168 1.465 . S
C535 C82 1.453 . S
C553 C101 1.260 . S
C557 C199 1.267 . S
C571 C125 2.226 . S
C575 C243 2.343 . S
C589 C144 1.805 . S
C593 C291 1.885 . S
C607 C87 1.891 . S
C611 C203 2.034 . S
C629 C171 1.815 . S
C625 C97 1.844 . S
C647 C274 1.672 . S
C643 C120 1.720 . S
C665 C242 1.528 . S
C661 C135 1.600 . S
C679 C78 1.932 . S
C683 C288 2.036 . S
C701 C202 1.890 . S
C697 C116 1.932 . S
C719 C154 2.629 . S
C715 C139 2.632 . S
C733 C106 0.836 . S
C737 C239 0.962 . S
