# Generated by pormake.
# Topology rtl, (3,6)-cn, num edge types: 1
# Building blocks:
#     Node 0, Type 0, BuildingBlock: PAMTOO_clean_linker_0, # of connection points: 3
#     Node 1, Type 0, BuildingBlock: PAMTOO_clean_linker_0, # of connection points: 3
#     Node 2, Type 0, BuildingBlock: PAMTOO_clean_linker_0, # of connection points: 3
#     Node 3, Type 0, BuildingBlock: PAMTOO_clean_linker_0, # of connection points: 3
#     Node 4, Type 1, BuildingBlock: FUNLAD_clean_sbu_0, # of connection points: 6
#     Node 5, Type 1, BuildingBlock: FUNLAD_clean_sbu_0, # of connection points: 6
#     Edge 6, Type (0, 1), BuildingBlock: CIFDUS_clean_linker_0, # of connection points: 2
#     Edge 7, Type (0, 1), BuildingBlock: CIFDUS_clean_linker_0, # of connection points: 2
#     Edge 8, Type (0, 1), BuildingBlock: CIFDUS_clean_linker_0, # of connection points: 2
#     Edge 9, Type (0, 1), BuildingBlock: CIFDUS_clean_linker_0, # of connection points: 2
#     Edge 10, Type (0, 1), BuildingBlock: CIFDUS_clean_linker_0, # of connection points: 2
#     Edge 11, Type (0, 1), BuildingBlock: CIFDUS_clean_linker_0, # of connection points: 2
#     Edge 12, Type (0, 1), BuildingBlock: CIFDUS_clean_linker_0, # of connection points: 2
#     Edge 13, Type (0, 1), BuildingBlock: CIFDUS_clean_linker_0, # of connection points: 2
#     Edge 14, Type (0, 1), BuildingBlock: CIFDUS_clean_linker_0, # of connection points: 2
#     Edge 15, Type (0, 1), BuildingBlock: CIFDUS_clean_linker_0, # of connection points: 2
#     Edge 16, Type (0, 1), BuildingBlock: CIFDUS_clean_linker_0, # of connection points: 2
#     Edge 17, Type (0, 1), BuildingBlock: CIFDUS_clean_linker_0, # of connection points: 2
# Relax obj value: 0.003
# Max RMSD: 0.036
# Mean RMSD: 0.028
data_MOF--net-rtl--node1-FUNLAD_clean_sbu_0--node2-PAMTOO_clean_linker_0--edge1-CIFDUS_clean_linker_0
_symmetry_space_group_name_H-M    P1
_symmetry_Int_Tables_number       1
_symmetry_cell_setting            triclinic
loop_
_symmetry_equiv_pos_as_xyz
'x, y, z'
_cell_length_a     35.228318
_cell_length_b     35.596346
_cell_length_c     18.254228
_cell_angle_alpha  92.403046
_cell_angle_beta   90.90983
_cell_angle_gamma 89.459312
loop_
_atom_site_label
_atom_site_type_symbol
_atom_site_fract_x
_atom_site_fract_y
_atom_site_fract_z
_atom_type_partial_charge
H0 H 0.11123 0.89182 0.00318 0.0
H1 H 0.18723 0.81994 0.12086 0.0
H2 H 0.20054 0.83157 0.889 0.0
H3 H 0.19613 0.75362 0.95094 0.0
C4 C 0.2167 0.75853 -0.00271 0.0
O5 O 0.22506 0.79636 0.00447 0.0
H6 H 0.20314 0.74954 0.04821 0.0
C7 C 0.13512 0.87235 0.00336 0.0
C8 C 0.15459 0.86394 0.93824 0.0
C9 C 0.14682 0.85689 0.06932 0.0
C10 C 0.17818 0.83235 0.0702 0.0
C11 C 0.19708 0.82266 0.00482 0.0
C12 C 0.18574 0.83902 0.9392 0.0
H13 H 0.61917 0.61665 0.52609 0.0
H14 H 0.68874 0.69472 0.41587 0.0
H15 H 0.69014 0.69433 0.65124 0.0
H16 H 0.69628 0.76881 0.5949 0.0
C17 C 0.71045 0.76212 0.54185 0.0
O18 O 0.71938 0.72432 0.53635 0.0
H19 H 0.69049 0.76932 0.49655 0.0
C20 C 0.64 0.63893 0.52825 0.0
C21 C 0.65302 0.65367 0.59646 0.0
C22 C 0.65234 0.65381 0.46285 0.0
C23 C 0.67863 0.68322 0.46595 0.0
C24 C 0.69254 0.69744 0.53382 0.0
C25 C 0.67945 0.68298 0.59898 0.0
H26 H 0.94166 0.15244 0.01241 0.0
H27 H 0.84593 0.20255 0.90298 0.0
H28 H 0.8501 0.2013 0.1384 0.0
H29 H 0.7749 0.18671 0.06637 0.0
C30 C 0.77667 0.20647 0.02088 0.0
O31 O 0.81139 0.22414 0.02429 0.0
H32 H 0.77359 0.1901 0.96789 0.0
C33 C 0.91502 0.16795 0.01494 0.0
C34 C 0.89853 0.17625 0.08308 0.0
C35 C 0.89603 0.17678 0.9498 0.0
C36 C 0.86085 0.19553 0.95303 0.0
C37 C 0.84465 0.20496 0.02114 0.0
C38 C 0.86323 0.19484 0.08603 0.0
H39 H 0.41572 0.38912 0.49871 0.0
H40 H 0.34449 0.31303 0.61017 0.0
H41 H 0.34183 0.31373 0.37475 0.0
H42 H 0.26768 0.3181 0.45303 0.0
C43 C 0.27397 0.2973 0.49561 0.0
O44 O 0.3113 0.28547 0.49037 0.0
H45 H 0.26934 0.31146 0.55029 0.0
C46 C 0.39446 0.36724 0.4969 0.0
C47 C 0.38066 0.35296 0.42892 0.0
C48 C 0.382 0.3527 0.56248 0.0
C49 C 0.3549 0.32402 0.55986 0.0
C50 C 0.33988 0.31058 0.49226 0.0
C51 C 0.35334 0.32446 0.42682 0.0
C52 C 0.0532 0.96738 0.40759 0.0
N53 N 0.07907 0.06803 0.52379 0.0
C54 C 0.11585 0.05635 0.53006 0.0
C55 C 0.14529 0.08252 0.53243 0.0
C56 C 0.13674 0.12097 0.52753 0.0
C57 C 0.09853 0.13218 0.522 0.0
C58 C 0.07005 0.10518 0.52048 0.0
Zn59 Zn 0.03585 0.02986 0.51559 0.0
C60 C 0.9781 0.05035 0.40137 0.0
N61 N 0.94421 0.95172 0.49565 0.0
C62 C 0.95029 0.91403 0.49973 0.0
C63 C 0.9085 0.96606 0.4876 0.0
C64 C 0.87723 0.94231 0.48306 0.0
C65 C 0.88257 0.90338 0.48774 0.0
C66 C 0.91966 0.88923 0.49633 0.0
Zn67 Zn 0.98841 0.98881 0.50415 0.0
O68 O 0.06615 0.99766 0.43712 0.0
C69 C 0.04459 0.9679 0.61932 0.0
O70 O 0.02026 0.9564 0.42446 0.0
H71 H 0.90413 0.9961 0.48538 0.0
H72 H 0.12242 0.02668 0.53234 0.0
H73 H 0.97888 0.9032 0.5061 0.0
O74 O 0.0612 0.99742 0.59992 0.0
O75 O 0.01344 0.95824 0.58833 0.0
H76 H 0.04067 0.11395 0.51599 0.0
O77 O 0.95783 0.02197 0.58346 0.0
O78 O 1.00502 0.06163 0.59487 0.0
O79 O 0.96363 0.01998 0.42109 0.0
O80 O 1.00928 0.06137 0.43067 0.0
C81 C 0.97199 0.05179 0.6128 0.0
H82 H 0.17442 0.07273 0.53637 0.0
H83 H 0.0907 0.16159 0.51923 0.0
H84 H 0.84904 0.95438 0.47748 0.0
H85 H 0.92493 0.85932 0.49978 0.0
C86 C 0.47432 0.46926 0.90066 0.0
N87 N 0.57386 0.43518 0.00877 0.0
C88 C 0.56265 0.39866 0.00808 0.0
C89 C 0.5896 0.36951 0.00401 0.0
C90 C 0.62833 0.37811 -0.00027 0.0
C91 C 0.63901 0.41601 0.00127 0.0
C92 C 0.61127 0.44417 0.00619 0.0
Zn93 Zn 0.53506 0.47858 0.01161 0.0
C94 C 0.55852 0.53886 0.90997 0.0
N95 N 0.45837 0.57285 0.01638 0.0
C96 C 0.42099 0.56387 0.0093 0.0
C97 C 0.46948 0.60935 0.02457 0.0
C98 C 0.44242 0.63847 0.02587 0.0
C99 C 0.40369 0.62988 0.01773 0.0
C100 C 0.39316 0.592 0.00946 0.0
Zn101 Zn 0.49718 0.52937 0.01421 0.0
O102 O 0.50269 0.45174 0.92684 0.0
C103 C 0.47359 0.46907 0.11568 0.0
O104 O 0.46597 0.50193 0.92678 0.0
H105 H 0.49933 0.61592 0.03002 0.0
H106 H 0.53277 0.39211 0.01002 0.0
H107 H 0.41264 0.53473 0.00365 0.0
O108 O 0.50257 0.45182 0.09013 0.0
O109 O 0.46504 0.50149 0.09331 0.0
H110 H 0.61968 0.47332 0.00745 0.0
O111 O 0.52939 0.55581 0.10003 0.0
O112 O 0.56681 0.50606 0.09785 0.0
O113 O 0.53002 0.5565 0.93652 0.0
O114 O 0.56661 0.50621 0.93157 0.0
C115 C 0.55818 0.53845 0.12503 0.0
H116 H 0.58023 0.3406 0.00259 0.0
H117 H 0.6686 0.42384 -0.00086 0.0
H118 H 0.4517 0.66736 0.03214 0.0
H119 H 0.36359 0.58412 0.00424 0.0
H120 H 0.27238 0.23503 0.57737 0.0
H121 H 0.21572 0.28683 0.39599 0.0
H122 H 0.16908 0.23636 0.38863 0.0
H123 H 0.14296 0.17891 0.43678 0.0
H124 H 0.19916 0.12664 0.61826 0.0
H125 H 0.24774 0.17546 0.62205 0.0
C126 C 0.25004 0.23485 0.53579 0.0
C127 C 0.24751 0.26438 0.48709 0.0
C128 C 0.22323 0.20578 0.53207 0.0
C129 C 0.21831 0.26424 0.43377 0.0
C130 C 0.1916 0.23548 0.4297 0.0
C131 C 0.16581 0.17827 0.47726 0.0
C132 C 0.1673 0.14942 0.52756 0.0
C133 C 0.19351 0.20639 0.47912 0.0
C134 C 0.19749 0.1485 0.57877 0.0
C135 C 0.22515 0.17648 0.58117 0.0
H136 H 0.28241 0.7592 0.07918 0.0
H137 H 0.22928 0.70435 0.88964 0.0
H138 H 0.2832 0.66107 0.87713 0.0
H139 H 0.34367 0.63644 0.92412 0.0
H140 H 0.39733 0.69062 0.11384 0.0
H141 H 0.34551 0.73692 0.12158 0.0
C142 C 0.2831 0.73814 0.03451 0.0
C143 C 0.25214 0.73515 0.98502 0.0
C144 C 0.31419 0.71316 0.02789 0.0
C145 C 0.25295 0.70742 0.92796 0.0
C146 C 0.28369 0.68257 0.92096 0.0
C147 C 0.34403 0.65845 0.96706 0.0
C148 C 0.37408 0.65991 0.01872 0.0
C149 C 0.31415 0.68479 0.97127 0.0
C150 C 0.37457 0.68899 0.07326 0.0
C151 C 0.34485 0.71532 0.07794 0.0
H152 H 0.72855 0.81512 0.44432 0.0
H153 H 0.77201 0.75983 0.63411 0.0
H154 H 0.83007 0.79718 0.63234 0.0
H155 H 0.86749 0.847 0.57872 0.0
H156 H 0.82293 0.90339 0.39086 0.0
H157 H 0.76627 0.86426 0.3898 0.0
C158 C 0.75084 0.81122 0.48505 0.0
C159 C 0.74626 0.78475 0.53911 0.0
C160 C 0.78384 0.83302 0.48404 0.0
C161 C 0.77517 0.78002 0.59188 0.0
C162 C 0.80826 0.80134 0.59086 0.0
C163 C 0.84555 0.85035 0.53709 0.0
C164 C 0.84934 0.87802 0.48497 0.0
C165 C 0.81283 0.82806 0.53738 0.0
C166 C 0.82047 0.88248 0.43193 0.0
C167 C 0.78812 0.86008 0.4312 0.0
H168 H 0.76658 0.2674 0.93763 0.0
H169 H 0.71603 0.20957 0.11387 0.0
H170 H 0.66489 0.2566 0.12117 0.0
H171 H 0.63541 0.31521 0.07915 0.0
H172 H 0.68713 0.37367 0.90467 0.0
H173 H 0.737 0.32565 0.89518 0.0
C174 C 0.74438 0.26531 0.97774 0.0
C175 C 0.74524 0.23547 0.02575 0.0
C176 C 0.71535 0.29259 0.98199 0.0
C177 C 0.71613 0.23258 0.07689 0.0
C178 C 0.68689 0.25941 0.08099 0.0
C179 C 0.65745 0.31719 0.03869 0.0
C180 C 0.65764 0.34797 0.99281 0.0
C181 C 0.6863 0.28965 0.03404 0.0
C182 C 0.68659 0.35044 0.94113 0.0
C183 C 0.71505 0.32295 0.93551 0.0
H184 H 0.173 0.89917 0.18475 0.0
H185 H 0.07404 0.8406 0.10123 0.0
H186 H 0.03636 0.86737 0.20278 0.0
H187 H 0.03049 0.91202 0.30894 0.0
H188 H 0.129 0.97399 0.38646 0.0
H189 H 0.16787 0.94147 0.29415 0.0
C190 C 0.14341 0.89171 0.1901 0.0
C191 C 0.12623 0.86778 0.13672 0.0
C192 C 0.12174 0.9083 0.24689 0.0
C193 C 0.08772 0.85877 0.14259 0.0
C194 C 0.0662 0.87425 0.2002 0.0
C195 C 0.06053 0.91811 0.30601 0.0
C196 C 0.0767 0.9456 0.35412 0.0
C197 C 0.08269 0.89979 0.25171 0.0
C198 C 0.11569 0.95324 0.34956 0.0
C199 C 0.13804 0.93459 0.2969 0.0
H200 H 0.65312 0.58132 0.63566 0.0
H201 H 0.61846 0.69297 0.70824 0.0
H202 H 0.58651 0.66749 0.81345 0.0
H203 H 0.56529 0.6128 0.88027 0.0
H204 H 0.60263 0.50145 0.80972 0.0
H205 H 0.63672 0.52738 0.70831 0.0
C206 C 0.63884 0.59999 0.67506 0.0
C207 C 0.63783 0.63882 0.66441 0.0
C208 C 0.62083 0.58517 0.73531 0.0
C209 C 0.61965 0.66296 0.71584 0.0
C210 C 0.60122 0.64838 0.77558 0.0
C211 C 0.58105 0.59429 0.84283 0.0
C212 C 0.58112 0.55526 0.85198 0.0
C213 C 0.60109 0.60945 0.78516 0.0
C214 C 0.6021 0.53161 0.80378 0.0
C215 C 0.62153 0.54638 0.74567 0.0
H216 H 0.869 0.12688 0.17338 0.0
H217 H 0.9695 0.1911 0.1376 0.0
H218 H 1.00302 0.15901 0.23622 0.0
H219 H 1.00477 0.10938 0.32673 0.0
H220 H 0.9049 0.04236 0.3549 0.0
H221 H 0.87021 0.07861 0.26523 0.0
C222 C 0.89797 0.13433 0.18849 0.0
C223 C 0.91673 0.16149 0.14947 0.0
C224 C 0.91734 0.1148 0.24302 0.0
C225 C 0.95455 0.17042 0.1678 0.0
C226 C 0.97371 0.15194 0.22369 0.0
C227 C 0.9754 0.10284 0.31336 0.0
C228 C 0.95761 0.07303 0.3471 0.0
C229 C 0.95562 0.1235 0.26068 0.0
C230 C 0.91948 0.06489 0.32921 0.0
C231 C 0.89948 0.08572 0.27813 0.0
H232 H 0.3815 0.42516 0.61229 0.0
H233 H 0.41742 0.31407 0.67 0.0
H234 H 0.44881 0.34021 0.78145 0.0
H235 H 0.46878 0.39527 0.85863 0.0
H236 H 0.43011 0.50604 0.80285 0.0
H237 H 0.39693 0.47948 0.69454 0.0
C238 C 0.39601 0.40676 0.64974 0.0
C239 C 0.39753 0.3679 0.6332 0.0
C240 C 0.4136 0.42194 0.71363 0.0
C241 C 0.41592 0.3441 0.68211 0.0
C242 C 0.43398 0.35905 0.74544 0.0
C243 C 0.45294 0.41353 0.82287 0.0
C244 C 0.4522 0.45258 0.83826 0.0
C245 C 0.43347 0.39801 0.76118 0.0
C246 C 0.43114 0.47588 0.79213 0.0
C247 C 0.41223 0.46075 0.73009 0.0
H248 H 0.65273 0.58147 0.41187 0.0
H249 H 0.61668 0.69284 0.35624 0.0
H250 H 0.58463 0.66713 0.24519 0.0
H251 H 0.56399 0.61233 0.1679 0.0
H252 H 0.60276 0.5013 0.22155 0.0
H253 H 0.63668 0.52744 0.32935 0.0
C254 C 0.63809 0.60003 0.37492 0.0
C255 C 0.63674 0.63884 0.39197 0.0
C256 C 0.62006 0.58509 0.31127 0.0
C257 C 0.61812 0.66284 0.34371 0.0
C258 C 0.59965 0.64814 0.28062 0.0
C259 C 0.58001 0.59394 0.2031 0.0
C260 C 0.58057 0.55493 0.18726 0.0
C261 C 0.59995 0.60922 0.26446 0.0
C262 C 0.60187 0.53143 0.23264 0.0
C263 C 0.6212 0.54632 0.29438 0.0
H264 H 0.86475 0.12648 0.8527 0.0
H265 H 0.96389 0.19464 0.89294 0.0
H266 H 0.99543 0.16342 0.78809 0.0
H267 H 0.99676 0.11307 0.69259 0.0
H268 H 0.89902 0.04193 0.65689 0.0
H269 H 0.86492 0.07789 0.75236 0.0
C270 C 0.89289 0.13499 0.8371 0.0
C271 C 0.91198 0.16294 0.87942 0.0
C272 C 0.91126 0.11596 0.77856 0.0
C273 C 0.94873 0.17335 0.86032 0.0
C274 C 0.96677 0.15535 0.80088 0.0
C275 C 0.9679 0.10554 0.70527 0.0
C276 C 0.95061 0.07464 0.66805 0.0
C277 C 0.94867 0.12597 0.76083 0.0
C278 C 0.91314 0.06539 0.68511 0.0
C279 C 0.89357 0.08599 0.73959 0.0
H280 H 0.37968 0.42533 0.39004 0.0
H281 H 0.41515 0.31408 0.31657 0.0
H282 H 0.44665 0.34003 0.21123 0.0
H283 H 0.46732 0.39504 0.14475 0.0
H284 H 0.42905 0.50597 0.21598 0.0
H285 H 0.3953 0.47956 0.31739 0.0
C286 C 0.39401 0.40685 0.35036 0.0
C287 C 0.39543 0.368 0.36081 0.0
C288 C 0.41171 0.42194 0.29003 0.0
C289 C 0.41368 0.3441 0.30911 0.0
C290 C 0.43183 0.35895 0.24931 0.0
C291 C 0.45142 0.41335 0.18232 0.0
C292 C 0.451 0.45242 0.17341 0.0
C293 C 0.43158 0.39791 0.23994 0.0
C294 C 0.42984 0.4758 0.22175 0.0
C295 C 0.41061 0.46075 0.27986 0.0
H296 H 0.08383 0.86335 0.88035 0.0
H297 H 0.19636 0.9046 0.84515 0.0
H298 H 0.17245 0.94093 0.74244 0.0
H299 H 0.11835 0.96358 0.66731 0.0
H300 H 1.00639 0.92009 0.70248 0.0
H301 H 0.03115 0.88231 0.80092 0.0
C302 C 0.10312 0.88007 0.84963 0.0
C303 C 0.14165 0.88159 0.87017 0.0
C304 C 0.08917 0.90081 0.79133 0.0
C305 C 0.16658 0.90293 0.82979 0.0
C306 C 0.15285 0.9239 0.77162 0.0
C307 C 0.09947 0.94583 0.69667 0.0
C308 C 0.06054 0.94493 0.67813 0.0
C309 C 0.11402 0.92357 0.75272 0.0
C310 C 0.03645 0.92136 0.71577 0.0
C311 C 0.05055 0.89971 0.77209 0.0
loop_
_geom_bond_atom_site_label_1
_geom_bond_atom_site_label_2
_geom_bond_distance
_geom_bond_site_symmetry_2
_ccdc_geom_bond_type
H0 C7 0.929 . S
H1 C10 0.930 . S
H2 C12 0.929 . S
H3 C4 0.969 . S
C4 H3 0.969 . S
C4 O5 1.550 1_554 S
C4 H6 0.973 . S
O5 C4 1.550 1_556 S
O5 C11 1.412 1_556 S
H6 C4 0.973 . S
C7 H0 0.929 . S
C7 C8 1.400 1_554 S
C7 C9 1.364 . S
C8 C7 1.400 1_556 S
C8 C12 1.377 . S
C9 C7 1.364 . S
C9 C10 1.374 . S
C10 H1 0.930 . S
C10 C9 1.374 . S
C10 C11 1.383 . S
C11 O5 1.412 1_554 S
C11 C10 1.383 . S
C11 C12 1.394 1_554 S
C12 H2 0.929 . S
C12 C8 1.377 . S
C12 C11 1.394 1_556 S
H13 C20 0.929 . S
H14 C23 0.930 . S
H15 C25 0.929 . S
H16 C17 0.969 . S
C17 H16 0.969 . S
C17 O18 1.550 . S
C17 H19 0.973 . S
O18 C17 1.550 . S
O18 C24 1.412 . S
H19 C17 0.973 . S
C20 H13 0.929 . S
C20 C21 1.400 . S
C20 C22 1.364 . S
C21 C20 1.400 . S
C21 C25 1.377 . S
C22 C20 1.364 . S
C22 C23 1.374 . S
C23 H14 0.930 . S
C23 C22 1.374 . S
C23 C24 1.383 . S
C24 O18 1.412 . S
C24 C23 1.383 . S
C24 C25 1.394 . S
C25 H15 0.929 . S
C25 C21 1.377 . S
C25 C24 1.394 . S
H26 C33 0.929 . S
H27 C36 0.930 . S
H28 C38 0.929 . S
H29 C30 0.969 . S
C30 H29 0.969 . S
C30 O31 1.550 1_556 S
C30 H32 0.973 . S
O31 C30 1.550 1_554 S
O31 C37 1.412 . S
H32 C30 0.973 . S
C33 H26 0.929 . S
C33 C34 1.400 . S
C33 C35 1.364 1_554 S
C34 C33 1.400 . S
C34 C38 1.377 . S
C35 C33 1.364 1_556 S
C35 C36 1.374 . S
C36 H27 0.930 . S
C36 C35 1.374 . S
C36 C37 1.383 1_556 S
C37 O31 1.412 . S
C37 C36 1.383 1_554 S
C37 C38 1.394 . S
C38 H28 0.929 . S
C38 C34 1.377 . S
C38 C37 1.394 . S
H39 C46 0.929 . S
H40 C49 0.930 . S
H41 C51 0.929 . S
H42 C43 0.969 . S
C43 H42 0.969 . S
C43 O44 1.550 . S
C43 H45 0.973 . S
O44 C43 1.550 . S
O44 C50 1.412 . S
H45 C43 0.973 . S
C46 H39 0.929 . S
C46 C47 1.400 . S
C46 C48 1.364 . S
C47 C46 1.400 . S
C47 C51 1.377 . S
C48 C46 1.364 . S
C48 C49 1.374 . S
C49 H40 0.930 . S
C49 C48 1.374 . S
C49 C50 1.383 . S
C50 O44 1.412 . S
C50 C49 1.383 . S
C50 C51 1.394 . S
C51 H41 0.929 . S
C51 C47 1.377 . S
C51 C50 1.394 . S
C52 O68 1.251 . S
C52 O70 1.254 . S
N53 C54 1.333 . S
N53 C58 1.307 . S
N53 Zn59 2.020 . S
C54 N53 1.333 . S
C54 C55 1.379 . S
C54 H72 0.952 . S
C55 C54 1.379 . S
C55 C56 1.390 . S
C55 H82 0.949 . S
C56 C55 1.390 . S
C56 C57 1.357 . S
C57 C56 1.357 . S
C57 C58 1.370 . S
C57 H83 0.950 . S
C58 N53 1.307 . S
C58 C57 1.370 . S
C58 H76 0.948 . S
Zn59 N53 2.020 . S
Zn59 O68 2.039 1_545 S
Zn59 O74 2.034 1_545 S
Zn59 O78 2.025 1_455 S
Zn59 O80 2.024 1_455 S
C60 O79 1.246 . S
C60 O80 1.249 . S
N61 C62 1.307 . S
N61 C63 1.333 . S
N61 Zn67 2.020 . S
C62 N61 1.307 . S
C62 C66 1.370 . S
C62 H73 0.948 . S
C63 N61 1.333 . S
C63 C64 1.379 . S
C63 H71 0.952 . S
C64 C63 1.379 . S
C64 C65 1.390 . S
C64 H84 0.949 . S
C65 C64 1.390 . S
C65 C66 1.357 . S
C66 C62 1.370 . S
C66 C65 1.357 . S
C66 H85 0.950 . S
Zn67 N61 2.020 . S
Zn67 O70 2.025 1_655 S
Zn67 O75 2.024 1_655 S
Zn67 O77 2.039 1_565 S
Zn67 O79 2.034 1_565 S
O68 C52 1.251 . S
O68 Zn59 2.039 1_565 S
C69 O74 1.246 . S
C69 O75 1.249 . S
O70 C52 1.254 . S
O70 Zn67 2.025 1_455 S
H71 C63 0.952 . S
H72 C54 0.952 . S
H73 C62 0.948 . S
O74 Zn59 2.034 1_565 S
O74 C69 1.246 . S
O75 Zn67 2.024 1_455 S
O75 C69 1.249 . S
H76 C58 0.948 . S
O77 Zn67 2.039 1_545 S
O77 C81 1.251 . S
O78 Zn59 2.025 1_655 S
O78 C81 1.254 . S
O79 C60 1.246 . S
O79 Zn67 2.034 1_545 S
O80 Zn59 2.024 1_655 S
O80 C60 1.249 . S
C81 O77 1.251 . S
C81 O78 1.254 . S
H82 C55 0.949 . S
H83 C57 0.950 . S
H84 C64 0.949 . S
H85 C66 0.950 . S
C86 O102 1.251 . S
C86 O104 1.254 . S
N87 C88 1.333 1_554 S
N87 C92 1.307 . S
N87 Zn93 2.020 . S
C88 N87 1.333 1_556 S
C88 C89 1.379 . S
C88 H106 0.952 . S
C89 C88 1.379 . S
C89 C90 1.390 1_556 S
C89 H116 0.949 . S
C90 C89 1.390 1_554 S
C90 C91 1.357 . S
C91 C90 1.357 . S
C91 C92 1.370 . S
C91 H117 0.950 . S
C92 N87 1.307 . S
C92 C91 1.370 . S
C92 H110 0.948 . S
Zn93 N87 2.020 . S
Zn93 O102 2.039 1_554 S
Zn93 O108 2.034 . S
Zn93 O112 2.025 . S
Zn93 O114 2.024 1_554 S
C94 O113 1.246 . S
C94 O114 1.249 . S
N95 C96 1.307 1_554 S
N95 C97 1.333 . S
N95 Zn101 2.020 . S
C96 N95 1.307 1_556 S
C96 C100 1.370 1_556 S
C96 H107 0.948 . S
C97 N95 1.333 . S
C97 C98 1.379 . S
C97 H105 0.952 . S
C98 C97 1.379 . S
C98 C99 1.390 . S
C98 H118 0.949 . S
C99 C98 1.390 . S
C99 C100 1.358 . S
C100 C96 1.370 1_554 S
C100 C99 1.358 . S
C100 H119 0.949 1_554 S
Zn101 N95 2.020 . S
Zn101 O104 2.025 1_554 S
Zn101 O109 2.024 . S
Zn101 O111 2.039 . S
Zn101 O113 2.034 1_554 S
O102 C86 1.251 . S
O102 Zn93 2.039 1_556 S
C103 O108 1.246 . S
C103 O109 1.249 . S
O104 C86 1.254 . S
O104 Zn101 2.025 1_556 S
H105 C97 0.952 . S
H106 C88 0.952 . S
H107 C96 0.948 . S
O108 Zn93 2.034 . S
O108 C103 1.246 . S
O109 Zn101 2.024 . S
O109 C103 1.249 . S
H110 C92 0.948 . S
O111 Zn101 2.039 . S
O111 C115 1.251 . S
O112 Zn93 2.025 . S
O112 C115 1.254 . S
O113 C94 1.246 . S
O113 Zn101 2.034 1_556 S
O114 Zn93 2.024 1_556 S
O114 C94 1.249 . S
C115 O111 1.251 . S
C115 O112 1.254 . S
H116 C89 0.949 . S
H117 C91 0.950 . S
H118 C98 0.949 . S
H119 C100 0.949 1_556 S
H120 C126 0.930 . S
H121 C129 0.930 . S
H122 C130 0.930 . S
H123 C131 0.930 . S
H124 C134 0.930 . S
H125 C135 0.930 . S
C126 H120 0.930 . S
C126 C127 1.355 . S
C126 C128 1.415 . S
C127 C126 1.355 . S
C127 C129 1.419 . S
C128 C126 1.415 . S
C128 C133 1.425 . S
C128 C135 1.409 . S
C129 H121 0.930 . S
C129 C127 1.419 . S
C129 C130 1.362 . S
C130 H122 0.930 . S
C130 C129 1.362 . S
C130 C133 1.409 . S
C131 H123 0.930 . S
C131 C132 1.355 . S
C131 C133 1.415 . S
C132 C131 1.355 . S
C132 C134 1.419 . S
C133 C128 1.425 . S
C133 C130 1.409 . S
C133 C131 1.415 . S
C134 H124 0.930 . S
C134 C132 1.419 . S
C134 C135 1.362 . S
C135 H125 0.930 . S
C135 C128 1.409 . S
C135 C134 1.362 . S
H136 C142 0.930 . S
H137 C145 0.930 1_556 S
H138 C146 0.930 . S
H139 C147 0.930 . S
H140 C150 0.930 . S
H141 C151 0.930 . S
C142 H136 0.930 . S
C142 C143 1.355 . S
C142 C144 1.415 . S
C143 C142 1.355 . S
C143 C145 1.419 . S
C144 C142 1.415 . S
C144 C149 1.425 . S
C144 C151 1.409 . S
C145 H137 0.930 1_554 S
C145 C143 1.419 . S
C145 C146 1.362 1_554 S
C146 H138 0.930 . S
C146 C145 1.362 1_556 S
C146 C149 1.409 1_556 S
C147 H139 0.930 . S
C147 C148 1.355 . S
C147 C149 1.415 . S
C148 C147 1.355 . S
C148 C150 1.419 . S
C149 C144 1.425 . S
C149 C146 1.409 1_554 S
C149 C147 1.415 . S
C150 H140 0.930 . S
C150 C148 1.419 . S
C150 C151 1.362 . S
C151 H141 0.930 . S
C151 C144 1.409 . S
C151 C150 1.362 . S
H152 C158 0.930 . S
H153 C161 0.930 . S
H154 C162 0.930 . S
H155 C163 0.930 . S
H156 C166 0.930 . S
H157 C167 0.930 . S
C158 H152 0.930 . S
C158 C159 1.355 . S
C158 C160 1.415 . S
C159 C158 1.355 . S
C159 C161 1.419 . S
C160 C158 1.415 . S
C160 C165 1.425 . S
C160 C167 1.409 . S
C161 H153 0.930 . S
C161 C159 1.419 . S
C161 C162 1.362 . S
C162 H154 0.930 . S
C162 C161 1.362 . S
C162 C165 1.409 . S
C163 H155 0.930 . S
C163 C164 1.355 . S
C163 C165 1.415 . S
C164 C163 1.355 . S
C164 C166 1.419 . S
C165 C160 1.425 . S
C165 C162 1.409 . S
C165 C163 1.415 . S
C166 H156 0.930 . S
C166 C164 1.419 . S
C166 C167 1.362 . S
C167 H157 0.930 . S
C167 C160 1.409 . S
C167 C166 1.362 . S
H168 C174 0.930 . S
H169 C177 0.930 . S
H170 C178 0.930 . S
H171 C179 0.930 . S
H172 C182 0.930 . S
H173 C183 0.930 . S
C174 H168 0.930 . S
C174 C175 1.355 1_556 S
C174 C176 1.415 . S
C175 C174 1.355 1_554 S
C175 C177 1.419 . S
C176 C174 1.415 . S
C176 C181 1.425 1_556 S
C176 C183 1.409 . S
C177 H169 0.930 . S
C177 C175 1.419 . S
C177 C178 1.362 . S
C178 H170 0.930 . S
C178 C177 1.362 . S
C178 C181 1.409 . S
C179 H171 0.930 . S
C179 C180 1.355 1_554 S
C179 C181 1.415 . S
C180 C179 1.355 1_556 S
C180 C182 1.419 . S
C181 C176 1.425 1_554 S
C181 C178 1.409 . S
C181 C179 1.415 . S
C182 H172 0.930 . S
C182 C180 1.419 . S
C182 C183 1.362 . S
C183 H173 0.930 . S
C183 C176 1.409 . S
C183 C182 1.362 . S
H184 C190 0.930 . S
H185 C193 0.930 . S
H186 C194 0.930 . S
H187 C195 0.930 . S
H188 C198 0.930 . S
H189 C199 0.930 . S
C190 H184 0.930 . S
C190 C191 1.355 . S
C190 C192 1.415 . S
C191 C190 1.355 . S
C191 C193 1.419 . S
C192 C190 1.415 . S
C192 C197 1.425 . S
C192 C199 1.409 . S
C193 H185 0.930 . S
C193 C191 1.419 . S
C193 C194 1.362 . S
C194 H186 0.930 . S
C194 C193 1.362 . S
C194 C197 1.409 . S
C195 H187 0.930 . S
C195 C196 1.355 . S
C195 C197 1.415 . S
C196 C195 1.355 . S
C196 C198 1.419 . S
C197 C192 1.425 . S
C197 C194 1.409 . S
C197 C195 1.415 . S
C198 H188 0.930 . S
C198 C196 1.419 . S
C198 C199 1.362 . S
C199 H189 0.930 . S
C199 C192 1.409 . S
C199 C198 1.362 . S
H200 C206 0.930 . S
H201 C209 0.930 . S
H202 C210 0.930 . S
H203 C211 0.930 . S
H204 C214 0.930 . S
H205 C215 0.930 . S
C206 H200 0.930 . S
C206 C207 1.355 . S
C206 C208 1.415 . S
C207 C206 1.355 . S
C207 C209 1.419 . S
C208 C206 1.415 . S
C208 C213 1.425 . S
C208 C215 1.409 . S
C209 H201 0.930 . S
C209 C207 1.419 . S
C209 C210 1.362 . S
C210 H202 0.930 . S
C210 C209 1.362 . S
C210 C213 1.409 . S
C211 H203 0.930 . S
C211 C212 1.355 . S
C211 C213 1.415 . S
C212 C211 1.355 . S
C212 C214 1.419 . S
C213 C208 1.425 . S
C213 C210 1.409 . S
C213 C211 1.415 . S
C214 H204 0.930 . S
C214 C212 1.419 . S
C214 C215 1.362 . S
C215 H205 0.930 . S
C215 C208 1.409 . S
C215 C214 1.362 . S
H216 C222 0.930 . S
H217 C225 0.930 . S
H218 C226 0.930 . S
H219 C227 0.930 . S
H220 C230 0.930 . S
H221 C231 0.930 . S
C222 H216 0.930 . S
C222 C223 1.355 . S
C222 C224 1.415 . S
C223 C222 1.355 . S
C223 C225 1.419 . S
C224 C222 1.415 . S
C224 C229 1.425 . S
C224 C231 1.409 . S
C225 H217 0.930 . S
C225 C223 1.419 . S
C225 C226 1.362 . S
C226 H218 0.930 . S
C226 C225 1.362 . S
C226 C229 1.409 . S
C227 H219 0.930 . S
C227 C228 1.355 . S
C227 C229 1.415 . S
C228 C227 1.355 . S
C228 C230 1.419 . S
C229 C224 1.425 . S
C229 C226 1.409 . S
C229 C227 1.415 . S
C230 H220 0.930 . S
C230 C228 1.419 . S
C230 C231 1.362 . S
C231 H221 0.930 . S
C231 C224 1.409 . S
C231 C230 1.362 . S
H232 C238 0.930 . S
H233 C241 0.930 . S
H234 C242 0.930 . S
H235 C243 0.930 . S
H236 C246 0.930 . S
H237 C247 0.930 . S
C238 H232 0.930 . S
C238 C239 1.355 . S
C238 C240 1.415 . S
C239 C238 1.355 . S
C239 C241 1.419 . S
C240 C238 1.415 . S
C240 C245 1.425 . S
C240 C247 1.409 . S
C241 H233 0.930 . S
C241 C239 1.419 . S
C241 C242 1.362 . S
C242 H234 0.930 . S
C242 C241 1.362 . S
C242 C245 1.409 . S
C243 H235 0.930 . S
C243 C244 1.355 . S
C243 C245 1.415 . S
C244 C243 1.355 . S
C244 C246 1.419 . S
C245 C240 1.425 . S
C245 C242 1.409 . S
C245 C243 1.415 . S
C246 H236 0.930 . S
C246 C244 1.419 . S
C246 C247 1.362 . S
C247 H237 0.930 . S
C247 C240 1.409 . S
C247 C246 1.362 . S
H248 C254 0.930 . S
H249 C257 0.930 . S
H250 C258 0.930 . S
H251 C259 0.930 . S
H252 C262 0.930 . S
H253 C263 0.930 . S
C254 H248 0.930 . S
C254 C255 1.355 . S
C254 C256 1.415 . S
C255 C254 1.355 . S
C255 C257 1.419 . S
C256 C254 1.415 . S
C256 C261 1.425 . S
C256 C263 1.409 . S
C257 H249 0.930 . S
C257 C255 1.419 . S
C257 C258 1.362 . S
C258 H250 0.930 . S
C258 C257 1.362 . S
C258 C261 1.409 . S
C259 H251 0.930 . S
C259 C260 1.355 . S
C259 C261 1.415 . S
C260 C259 1.355 . S
C260 C262 1.419 . S
C261 C256 1.425 . S
C261 C258 1.409 . S
C261 C259 1.415 . S
C262 H252 0.930 . S
C262 C260 1.419 . S
C262 C263 1.362 . S
C263 H253 0.930 . S
C263 C256 1.409 . S
C263 C262 1.362 . S
H264 C270 0.930 . S
H265 C273 0.930 . S
H266 C274 0.930 . S
H267 C275 0.930 . S
H268 C278 0.930 . S
H269 C279 0.930 . S
C270 H264 0.930 . S
C270 C271 1.355 . S
C270 C272 1.415 . S
C271 C270 1.355 . S
C271 C273 1.419 . S
C272 C270 1.415 . S
C272 C277 1.425 . S
C272 C279 1.409 . S
C273 H265 0.930 . S
C273 C271 1.419 . S
C273 C274 1.362 . S
C274 H266 0.930 . S
C274 C273 1.362 . S
C274 C277 1.409 . S
C275 H267 0.930 . S
C275 C276 1.355 . S
C275 C277 1.415 . S
C276 C275 1.355 . S
C276 C278 1.419 . S
C277 C272 1.425 . S
C277 C274 1.409 . S
C277 C275 1.415 . S
C278 H268 0.930 . S
C278 C276 1.419 . S
C278 C279 1.362 . S
C279 H269 0.930 . S
C279 C272 1.409 . S
C279 C278 1.362 . S
H280 C286 0.930 . S
H281 C289 0.930 . S
H282 C290 0.930 . S
H283 C291 0.930 . S
H284 C294 0.930 . S
H285 C295 0.930 . S
C286 H280 0.930 . S
C286 C287 1.355 . S
C286 C288 1.415 . S
C287 C286 1.355 . S
C287 C289 1.419 . S
C288 C286 1.415 . S
C288 C293 1.425 . S
C288 C295 1.409 . S
C289 H281 0.930 . S
C289 C287 1.419 . S
C289 C290 1.362 . S
C290 H282 0.930 . S
C290 C289 1.362 . S
C290 C293 1.409 . S
C291 H283 0.930 . S
C291 C292 1.355 . S
C291 C293 1.415 . S
C292 C291 1.355 . S
C292 C294 1.419 . S
C293 C288 1.425 . S
C293 C290 1.409 . S
C293 C291 1.415 . S
C294 H284 0.930 . S
C294 C292 1.419 . S
C294 C295 1.362 . S
C295 H285 0.930 . S
C295 C288 1.409 . S
C295 C294 1.362 . S
H296 C302 0.930 . S
H297 C305 0.930 . S
H298 C306 0.930 . S
H299 C307 0.930 . S
H300 C310 0.930 . S
H301 C311 0.930 . S
C302 H296 0.930 . S
C302 C303 1.355 . S
C302 C304 1.415 . S
C303 C302 1.355 . S
C303 C305 1.419 . S
C304 C302 1.415 . S
C304 C309 1.425 . S
C304 C311 1.409 . S
C305 H297 0.930 . S
C305 C303 1.419 . S
C305 C306 1.362 . S
C306 H298 0.930 . S
C306 C305 1.362 . S
C306 C309 1.409 . S
C307 H299 0.930 . S
C307 C308 1.355 . S
C307 C309 1.415 . S
C308 C307 1.355 . S
C308 C310 1.419 . S
C309 C304 1.425 . S
C309 C306 1.409 . S
C309 C307 1.415 . S
C310 H300 0.930 . S
C310 C308 1.419 . S
C310 C311 1.362 . S
C311 H301 0.930 . S
C311 C304 1.409 . S
C311 C310 1.362 . S
C132 C56 1.501 . S
C127 C43 1.441 . S
C143 C4 1.452 . S
C148 C99 1.508 . S
C159 C17 1.464 . S
C164 C65 1.505 . S
C175 C30 1.486 1_554 S
C180 C90 1.508 1_556 S
C196 C52 1.500 . S
C191 C9 1.462 . S
C212 C94 1.496 . S
C207 C21 1.495 . S
C223 C34 1.498 . S
C228 C60 1.501 . S
C239 C48 1.492 . S
C244 C86 1.502 . S
C260 C115 1.502 . S
C255 C22 1.495 . S
C276 C81 1.502 . S
C271 C35 1.476 . S
C292 C103 1.502 . S
C287 C47 1.506 . S
C303 C8 1.509 . S
C308 C69 1.503 . S
