# Generated by pormake.
# Topology ctn, (3,4)-cn, num edge types: 1
# Building blocks:
#     Node 0, Type 0, BuildingBlock: KAKCAD_clean_linker_0, # of connection points: 3
#     Node 1, Type 0, BuildingBlock: KAKCAD_clean_linker_0, # of connection points: 3
#     Node 2, Type 0, BuildingBlock: KAKCAD_clean_linker_0, # of connection points: 3
#     Node 3, Type 0, BuildingBlock: KAKCAD_clean_linker_0, # of connection points: 3
#     Node 4, Type 0, BuildingBlock: KAKCAD_clean_linker_0, # of connection points: 3
#     Node 5, Type 0, BuildingBlock: KAKCAD_clean_linker_0, # of connection points: 3
#     Node 6, Type 0, BuildingBlock: KAKCAD_clean_linker_0, # of connection points: 3
#     Node 7, Type 0, BuildingBlock: KAKCAD_clean_linker_0, # of connection points: 3
#     Node 8, Type 0, BuildingBlock: KAKCAD_clean_linker_0, # of connection points: 3
#     Node 9, Type 0, BuildingBlock: KAKCAD_clean_linker_0, # of connection points: 3
#     Node 10, Type 0, BuildingBlock: KAKCAD_clean_linker_0, # of connection points: 3
#     Node 11, Type 0, BuildingBlock: KAKCAD_clean_linker_0, # of connection points: 3
#     Node 12, Type 0, BuildingBlock: KAKCAD_clean_linker_0, # of connection points: 3
#     Node 13, Type 0, BuildingBlock: KAKCAD_clean_linker_0, # of connection points: 3
#     Node 14, Type 0, BuildingBlock: KAKCAD_clean_linker_0, # of connection points: 3
#     Node 15, Type 0, BuildingBlock: KAKCAD_clean_linker_0, # of connection points: 3
#     Node 16, Type 1, BuildingBlock: UXUYUI_clean_sbu_0, # of connection points: 4
#     Node 17, Type 1, BuildingBlock: UXUYUI_clean_sbu_0, # of connection points: 4
#     Node 18, Type 1, BuildingBlock: UXUYUI_clean_sbu_0, # of connection points: 4
#     Node 19, Type 1, BuildingBlock: UXUYUI_clean_sbu_0, # of connection points: 4
#     Node 20, Type 1, BuildingBlock: UXUYUI_clean_sbu_0, # of connection points: 4
#     Node 21, Type 1, BuildingBlock: UXUYUI_clean_sbu_0, # of connection points: 4
#     Node 22, Type 1, BuildingBlock: UXUYUI_clean_sbu_0, # of connection points: 4
#     Node 23, Type 1, BuildingBlock: UXUYUI_clean_sbu_0, # of connection points: 4
#     Node 24, Type 1, BuildingBlock: UXUYUI_clean_sbu_0, # of connection points: 4
#     Node 25, Type 1, BuildingBlock: UXUYUI_clean_sbu_0, # of connection points: 4
#     Node 26, Type 1, BuildingBlock: UXUYUI_clean_sbu_0, # of connection points: 4
#     Node 27, Type 1, BuildingBlock: UXUYUI_clean_sbu_0, # of connection points: 4
#     Edge 28, Type (0, 1), BuildingBlock: ZUJKAS_clean_linker_0, # of connection points: 2
#     Edge 29, Type (0, 1), BuildingBlock: ZUJKAS_clean_linker_0, # of connection points: 2
#     Edge 30, Type (0, 1), BuildingBlock: ZUJKAS_clean_linker_0, # of connection points: 2
#     Edge 31, Type (0, 1), BuildingBlock: ZUJKAS_clean_linker_0, # of connection points: 2
#     Edge 32, Type (0, 1), BuildingBlock: ZUJKAS_clean_linker_0, # of connection points: 2
#     Edge 33, Type (0, 1), BuildingBlock: ZUJKAS_clean_linker_0, # of connection points: 2
#     Edge 34, Type (0, 1), BuildingBlock: ZUJKAS_clean_linker_0, # of connection points: 2
#     Edge 35, Type (0, 1), BuildingBlock: ZUJKAS_clean_linker_0, # of connection points: 2
#     Edge 36, Type (0, 1), BuildingBlock: ZUJKAS_clean_linker_0, # of connection points: 2
#     Edge 37, Type (0, 1), BuildingBlock: ZUJKAS_clean_linker_0, # of connection points: 2
#     Edge 38, Type (0, 1), BuildingBlock: ZUJKAS_clean_linker_0, # of connection points: 2
#     Edge 39, Type (0, 1), BuildingBlock: ZUJKAS_clean_linker_0, # of connection points: 2
#     Edge 40, Type (0, 1), BuildingBlock: ZUJKAS_clean_linker_0, # of connection points: 2
#     Edge 41, Type (0, 1), BuildingBlock: ZUJKAS_clean_linker_0, # of connection points: 2
#     Edge 42, Type (0, 1), BuildingBlock: ZUJKAS_clean_linker_0, # of connection points: 2
#     Edge 43, Type (0, 1), BuildingBlock: ZUJKAS_clean_linker_0, # of connection points: 2
#     Edge 44, Type (0, 1), BuildingBlock: ZUJKAS_clean_linker_0, # of connection points: 2
#     Edge 45, Type (0, 1), BuildingBlock: ZUJKAS_clean_linker_0, # of connection points: 2
#     Edge 46, Type (0, 1), BuildingBlock: ZUJKAS_clean_linker_0, # of connection points: 2
#     Edge 47, Type (0, 1), BuildingBlock: ZUJKAS_clean_linker_0, # of connection points: 2
#     Edge 48, Type (0, 1), BuildingBlock: ZUJKAS_clean_linker_0, # of connection points: 2
#     Edge 49, Type (0, 1), BuildingBlock: ZUJKAS_clean_linker_0, # of connection points: 2
#     Edge 50, Type (0, 1), BuildingBlock: ZUJKAS_clean_linker_0, # of connection points: 2
#     Edge 51, Type (0, 1), BuildingBlock: ZUJKAS_clean_linker_0, # of connection points: 2
#     Edge 52, Type (0, 1), BuildingBlock: ZUJKAS_clean_linker_0, # of connection points: 2
#     Edge 53, Type (0, 1), BuildingBlock: ZUJKAS_clean_linker_0, # of connection points: 2
#     Edge 54, Type (0, 1), BuildingBlock: ZUJKAS_clean_linker_0, # of connection points: 2
#     Edge 55, Type (0, 1), BuildingBlock: ZUJKAS_clean_linker_0, # of connection points: 2
#     Edge 56, Type (0, 1), BuildingBlock: ZUJKAS_clean_linker_0, # of connection points: 2
#     Edge 57, Type (0, 1), BuildingBlock: ZUJKAS_clean_linker_0, # of connection points: 2
#     Edge 58, Type (0, 1), BuildingBlock: ZUJKAS_clean_linker_0, # of connection points: 2
#     Edge 59, Type (0, 1), BuildingBlock: ZUJKAS_clean_linker_0, # of connection points: 2
#     Edge 60, Type (0, 1), BuildingBlock: ZUJKAS_clean_linker_0, # of connection points: 2
#     Edge 61, Type (0, 1), BuildingBlock: ZUJKAS_clean_linker_0, # of connection points: 2
#     Edge 62, Type (0, 1), BuildingBlock: ZUJKAS_clean_linker_0, # of connection points: 2
#     Edge 63, Type (0, 1), BuildingBlock: ZUJKAS_clean_linker_0, # of connection points: 2
#     Edge 64, Type (0, 1), BuildingBlock: ZUJKAS_clean_linker_0, # of connection points: 2
#     Edge 65, Type (0, 1), BuildingBlock: ZUJKAS_clean_linker_0, # of connection points: 2
#     Edge 66, Type (0, 1), BuildingBlock: ZUJKAS_clean_linker_0, # of connection points: 2
#     Edge 67, Type (0, 1), BuildingBlock: ZUJKAS_clean_linker_0, # of connection points: 2
#     Edge 68, Type (0, 1), BuildingBlock: ZUJKAS_clean_linker_0, # of connection points: 2
#     Edge 69, Type (0, 1), BuildingBlock: ZUJKAS_clean_linker_0, # of connection points: 2
#     Edge 70, Type (0, 1), BuildingBlock: ZUJKAS_clean_linker_0, # of connection points: 2
#     Edge 71, Type (0, 1), BuildingBlock: ZUJKAS_clean_linker_0, # of connection points: 2
#     Edge 72, Type (0, 1), BuildingBlock: ZUJKAS_clean_linker_0, # of connection points: 2
#     Edge 73, Type (0, 1), BuildingBlock: ZUJKAS_clean_linker_0, # of connection points: 2
#     Edge 74, Type (0, 1), BuildingBlock: ZUJKAS_clean_linker_0, # of connection points: 2
#     Edge 75, Type (0, 1), BuildingBlock: ZUJKAS_clean_linker_0, # of connection points: 2
# Relax obj value: 0.000
# Max RMSD: 0.005
# Mean RMSD: 0.004
data_MOF--net-ctn--node1-UXUYUI_clean_sbu_0--node2-KAKCAD_clean_linker_0--edge1-ZUJKAS_clean_linker_0
_symmetry_space_group_name_H-M    P1
_symmetry_Int_Tables_number       1
_symmetry_cell_setting            triclinic
loop_
_symmetry_equiv_pos_as_xyz
'x, y, z'
_cell_length_a     97.672525
_cell_length_b     97.589382
_cell_length_c     97.486896
_cell_angle_alpha  90.082284
_cell_angle_beta   90.298348
_cell_angle_gamma 90.218661
loop_
_atom_site_label
_atom_site_type_symbol
_atom_site_fract_x
_atom_site_fract_y
_atom_site_fract_z
_atom_type_partial_charge
C0 C 0.0358 0.07294 0.99934 0.0
C1 C 0.03124 0.08557 0.00453 0.0
C2 C 0.03785 0.06176 0.00807 0.0
C3 C 0.03546 0.06294 0.02224 0.0
C4 C 0.0309 0.07557 0.02743 0.0
C5 C 0.02878 0.08672 0.01869 0.0
C6 C 0.03778 0.05107 0.03158 0.0
C7 C 0.04901 0.04233 0.02964 0.0
C8 C 0.05133 0.03114 0.03842 0.0
C9 C 0.04232 0.02888 0.0494 0.0
C10 C 0.03105 0.03753 0.05159 0.0
C11 C 0.02882 0.04852 0.04254 0.0
C12 C 0.02166 0.03517 0.06338 0.0
C13 C 0.01788 0.02182 0.06728 0.0
C14 C 0.01647 0.0463 0.0709 0.0
C15 C 0.00774 0.04413 0.08201 0.0
C16 C 0.00402 0.03078 0.08597 0.0
C17 C 0.0632 0.02187 0.03614 0.0
C18 C 0.06686 0.01788 0.02278 0.0
C19 C 0.07094 0.01691 0.04726 0.0
C20 C 0.08204 0.00816 0.04509 0.0
C21 C 0.0857 0.00418 0.03173 0.0
C22 C 0.07797 0.00916 0.02061 0.0
C23 C 0.0092 0.01965 0.07845 0.0
H24 H 0.03796 0.0717 0.98853 0.0
H25 H 0.04122 0.05216 0.00367 0.0
H26 H 0.0291 0.07692 0.0383 0.0
H27 H 0.02509 0.09622 0.02305 0.0
H28 H 0.0562 0.04443 0.02147 0.0
H29 H 0.01991 0.05495 0.04387 0.0
H30 H 0.0441 0.02035 0.05628 0.0
H31 H 0.02153 0.013 0.06164 0.0
H32 H 0.01928 0.05672 0.06831 0.0
H33 H 0.00381 0.05297 0.08743 0.0
H34 H 0.06104 0.02138 0.01398 0.0
H35 H 0.06853 0.01989 0.05767 0.0
H36 H 0.0067 0.00921 0.08128 0.0
H37 H 0.08058 0.00645 0.01017 0.0
H38 H 0.08765 0.00441 0.05391 0.0
C39 C 0.32643 0.73547 0.24718 0.0
C40 C 0.33452 0.72444 0.25166 0.0
C41 C 0.31535 0.73327 0.23829 0.0
C42 C 0.31206 0.71998 0.23373 0.0
C43 C 0.32013 0.70895 0.23824 0.0
C44 C 0.33124 0.71116 0.24707 0.0
C45 C 0.30025 0.7176 0.2243 0.0
C46 C 0.29793 0.72638 0.21312 0.0
C47 C 0.28687 0.72416 0.20408 0.0
C48 C 0.27808 0.71294 0.20637 0.0
C49 C 0.28023 0.70402 0.21749 0.0
C50 C 0.29133 0.70648 0.22642 0.0
C51 C 0.27093 0.6921 0.21978 0.0
C52 C 0.25672 0.69329 0.21769 0.0
C53 C 0.2762 0.6794 0.22405 0.0
C54 C 0.26751 0.6682 0.22621 0.0
C55 C 0.25331 0.66937 0.22409 0.0
C56 C 0.28459 0.73348 0.1922 0.0
C57 C 0.28648 0.74771 0.19359 0.0
C58 C 0.28055 0.72823 0.17935 0.0
C59 C 0.27845 0.73698 0.16819 0.0
C60 C 0.28038 0.75121 0.16956 0.0
C61 C 0.28442 0.75646 0.18241 0.0
C62 C 0.24803 0.68206 0.21979 0.0
H63 H 0.32876 0.74584 0.25042 0.0
H64 H 0.30927 0.74197 0.23509 0.0
H65 H 0.31795 0.6986 0.23481 0.0
H66 H 0.33718 0.70242 0.25044 0.0
H67 H 0.305 0.73474 0.21123 0.0
H68 H 0.29286 0.69991 0.23523 0.0
H69 H 0.26956 0.71112 0.19944 0.0
H70 H 0.25227 0.70294 0.21456 0.0
H71 H 0.2871 0.67805 0.22561 0.0
H72 H 0.27194 0.65865 0.22969 0.0
H73 H 0.28944 0.75214 0.20336 0.0
H74 H 0.27915 0.71731 0.17784 0.0
H75 H 0.23717 0.68332 0.21789 0.0
H76 H 0.28617 0.76733 0.18383 0.0
H77 H 0.27518 0.73257 0.1585 0.0
C78 C 0.98725 0.47806 0.08626 0.0
C79 C 1.00132 0.47538 0.08506 0.0
C80 C 0.97841 0.47598 0.07511 0.0
C81 C 0.98344 0.47127 0.06246 0.0
C82 C 0.99755 0.46867 0.06127 0.0
C83 C 0.00637 0.47065 0.07245 0.0
C84 C 0.974 0.46903 0.05059 0.0
C85 C 0.96312 0.4781 0.04807 0.0
C86 C 0.95402 0.47596 0.03704 0.0
C87 C 0.95606 0.46467 0.02831 0.0
C88 C 0.96693 0.45551 0.03057 0.0
C89 C 0.97577 0.45774 0.0418 0.0
C90 C 0.96903 0.44356 0.02127 0.0
C91 C 0.9578 0.43603 0.01614 0.0
C92 C 0.98231 0.43958 0.01746 0.0
C93 C 0.98432 0.42833 0.00882 0.0
C94 C 0.97309 0.42083 0.00369 0.0
C95 C 0.9423 0.48543 0.03476 0.0
C96 C 0.9348 0.49051 0.04594 0.0
C97 C 0.93842 0.48938 0.02142 0.0
C98 C 0.92728 0.49812 0.01933 0.0
C99 C 0.91979 0.50317 0.03052 0.0
C100 C 0.92371 0.49929 0.04385 0.0
C101 C 0.95981 0.42483 0.00742 0.0
H102 H 0.98302 0.48153 0.0959 0.0
H103 H 0.96758 0.47786 0.0765 0.0
H104 H 0.00183 0.46526 0.05163 0.0
H105 H 0.01719 0.46867 0.07116 0.0
H106 H 0.9619 0.48703 0.05455 0.0
H107 H 0.98384 0.45045 0.04391 0.0
H108 H 0.94914 0.46298 0.01975 0.0
H109 H 0.94744 0.43864 0.01903 0.0
H110 H 0.99118 0.44527 0.02102 0.0
H111 H 0.99467 0.42563 0.00598 0.0
H112 H 0.93734 0.4875 0.05633 0.0
H113 H 0.94409 0.48586 0.01259 0.0
H114 H 0.95096 0.41914 0.00378 0.0
H115 H 0.91803 0.50284 0.05267 0.0
H116 H 0.92463 0.50107 0.00894 0.0
C117 C 0.71071 0.7576 0.17416 0.0
C118 C 0.72409 0.75357 0.1708 0.0
C119 C 0.70836 0.76641 0.18522 0.0
C120 C 0.71933 0.7714 0.1932 0.0
C121 C 0.73271 0.76732 0.18989 0.0
C122 C 0.73506 0.75852 0.17882 0.0
C123 C 0.71683 0.78093 0.20486 0.0
C124 C 0.70569 0.77883 0.2137 0.0
C125 C 0.7031 0.7879 0.22461 0.0
C126 C 0.71191 0.79917 0.22663 0.0
C127 C 0.72318 0.80139 0.21799 0.0
C128 C 0.72553 0.79223 0.20713 0.0
C129 C 0.73249 0.81329 0.22028 0.0
C130 C 0.7272 0.8263 0.22339 0.0
C131 C 0.74676 0.81171 0.21936 0.0
C132 C 0.75553 0.82287 0.22152 0.0
C133 C 0.75024 0.8359 0.2246 0.0
C134 C 0.69124 0.78557 0.23389 0.0
C135 C 0.67859 0.78096 0.22862 0.0
C136 C 0.69245 0.78796 0.24808 0.0
C137 C 0.68128 0.78585 0.25677 0.0
C138 C 0.66867 0.78123 0.25149 0.0
C139 C 0.66746 0.77878 0.23732 0.0
C140 C 0.73597 0.83748 0.2255 0.0
H141 H 0.70205 0.75415 0.16807 0.0
H142 H 0.69795 0.76951 0.18735 0.0
H143 H 0.74137 0.7708 0.19595 0.0
H144 H 0.74547 0.75546 0.17665 0.0
H145 H 0.69919 0.76991 0.21226 0.0
H146 H 0.73396 0.79412 0.20019 0.0
H147 H 0.71001 0.80626 0.23497 0.0
H148 H 0.71625 0.82789 0.22404 0.0
H149 H 0.75117 0.8018 0.2171 0.0
H150 H 0.76646 0.82133 0.22062 0.0
H151 H 0.67721 0.77924 0.21773 0.0
H152 H 0.70208 0.79127 0.25254 0.0
H153 H 0.73157 0.84734 0.22798 0.0
H154 H 0.65782 0.77539 0.23292 0.0
H155 H 0.68259 0.78765 0.26766 0.0
C156 C 0.99782 0.97127 0.43413 0.0
C157 C 0.00295 0.97415 0.42098 0.0
C158 C 0.00672 0.96901 0.44518 0.0
C159 C 0.02097 0.96967 0.44336 0.0
C160 C 0.02612 0.97258 0.43025 0.0
C161 C 0.01723 0.97475 0.41919 0.0
C162 C 0.03048 0.9673 0.45508 0.0
C163 C 0.02824 0.95637 0.46417 0.0
C164 C 0.03738 0.95384 0.47506 0.0
C165 C 0.04879 0.9625 0.47687 0.0
C166 C 0.05111 0.97361 0.46799 0.0
C167 C 0.0419 0.97588 0.45709 0.0
C168 C 0.0631 0.98287 0.4701 0.0
C169 C 0.06703 0.98702 0.48338 0.0
C170 C 0.07064 0.98774 0.45885 0.0
C171 C 0.08176 0.9966 0.46082 0.0
C172 C 0.08566 1.00077 0.47409 0.0
C173 C 0.03512 0.94204 0.48441 0.0
C174 C 0.02203 0.93927 0.48967 0.0
C175 C 0.04604 0.93343 0.4881 0.0
C176 C 0.04389 0.92224 0.49678 0.0
C177 C 0.0308 0.91948 0.50207 0.0
C178 C 0.0199 0.92814 0.49845 0.0
C179 C 0.07818 0.99584 0.48535 0.0
H180 H 0.98689 0.97094 0.43596 0.0
H181 H 0.00245 0.96695 0.4552 0.0
H182 H 0.03706 0.97295 0.42848 0.0
H183 H 0.02158 0.97668 0.40918 0.0
H184 H 0.01961 0.94954 0.46252 0.0
H185 H 0.04343 0.98455 0.45034 0.0
H186 H 0.05588 0.96058 0.48523 0.0
H187 H 0.06132 0.98365 0.49227 0.0
H188 H 0.06804 0.98458 0.4485 0.0
H189 H 0.08743 1.00005 0.45194 0.0
H190 H 0.01344 0.94578 0.48709 0.0
H191 H 0.05622 0.93523 0.48412 0.0
H192 H 0.0808 0.99901 0.49569 0.0
H193 H 0.00968 0.92622 0.50227 0.0
H194 H 0.05252 0.91582 0.49947 0.0
C195 C 0.17504 0.71161 0.75626 0.0
C196 C 0.17104 0.72501 0.75286 0.0
C197 C 0.18614 0.70935 0.76506 0.0
C198 C 0.19361 0.72043 0.77061 0.0
C199 C 0.18962 0.73384 0.76714 0.0
C200 C 0.17844 0.7361 0.75842 0.0
C201 C 0.20545 0.71801 0.78 0.0
C202 C 0.21448 0.70706 0.77764 0.0
C203 C 0.22557 0.70456 0.78653 0.0
C204 C 0.22768 0.71329 0.79784 0.0
C205 C 0.21883 0.72433 0.80036 0.0
C206 C 0.20773 0.72657 0.79141 0.0
C207 C 0.22112 0.73348 0.8124 0.0
C208 C 0.22479 0.72802 0.82524 0.0
C209 C 0.21963 0.74775 0.81115 0.0
C210 C 0.22178 0.75635 0.82245 0.0
C211 C 0.22543 0.75089 0.83529 0.0
C212 C 0.23488 0.69278 0.78406 0.0
C213 C 0.22956 0.67996 0.78005 0.0
C214 C 0.24912 0.6942 0.78577 0.0
C215 C 0.25782 0.68307 0.78357 0.0
C216 C 0.2525 0.67024 0.77963 0.0
C217 C 0.23826 0.66883 0.77788 0.0
C218 C 0.2269 0.73662 0.83655 0.0
H219 H 0.16941 0.70286 0.75229 0.0
H220 H 0.18874 0.6989 0.76769 0.0
H221 H 0.19525 0.74261 0.77102 0.0
H222 H 0.17572 0.74653 0.75585 0.0
H223 H 0.21305 0.70062 0.76868 0.0
H224 H 0.20064 0.73479 0.79357 0.0
H225 H 0.23621 0.71145 0.80474 0.0
H226 H 0.22588 0.71706 0.8266 0.0
H227 H 0.21694 0.7523 0.80138 0.0
H228 H 0.22041 0.76728 0.82115 0.0
H229 H 0.21864 0.67847 0.77877 0.0
H230 H 0.25357 0.70396 0.78871 0.0
H231 H 0.22984 0.73208 0.84626 0.0
H232 H 0.23382 0.65914 0.7747 0.0
H233 H 0.26872 0.68448 0.78514 0.0
C234 C 0.97693 0.58541 0.48798 0.0
C235 C 0.9746 0.58415 0.50214 0.0
C236 C 0.97485 0.57425 0.47919 0.0
C237 C 0.97047 0.56152 0.48435 0.0
C238 C 0.96819 0.56026 0.49854 0.0
C239 C 0.97018 0.57145 0.50731 0.0
C240 C 0.96829 0.54961 0.47499 0.0
C241 C 0.97725 0.54724 0.46399 0.0
C242 C 0.97527 0.53606 0.45509 0.0
C243 C 0.9642 0.52712 0.45731 0.0
C244 C 0.95508 0.52931 0.4682 0.0
C245 C 0.95721 0.54058 0.47697 0.0
C246 C 0.94321 0.51995 0.47032 0.0
C247 C 0.93539 0.51526 0.45909 0.0
C248 C 0.93956 0.51569 0.48358 0.0
C249 C 0.92834 0.50698 0.48558 0.0
C250 C 0.92049 0.50232 0.47435 0.0
C251 C 0.98472 0.5338 0.44341 0.0
C252 C 0.98865 0.54478 0.43498 0.0
C253 C 0.98979 0.52064 0.44054 0.0
C254 C 0.99863 0.51853 0.4295 0.0
C255 C 0.00248 0.52951 0.421 0.0
C256 C 0.99739 0.54265 0.42386 0.0
C257 C 0.92417 0.50656 0.46109 0.0
H258 H 0.98014 0.59511 0.48365 0.0
H259 H 0.97648 0.57568 0.4683 0.0
H260 H 0.96504 0.55056 0.50291 0.0
H261 H 0.96848 0.5701 0.5182 0.0
H262 H 0.986 0.55394 0.46251 0.0
H263 H 0.95 0.54255 0.48513 0.0
H264 H 0.96264 0.51847 0.45049 0.0
H265 H 0.93779 0.51852 0.44876 0.0
H266 H 0.94548 0.51896 0.49243 0.0
H267 H 0.92594 0.50375 0.49591 0.0
H268 H 0.98483 0.55501 0.43687 0.0
H269 H 0.98702 0.512 0.44692 0.0
H270 H 0.91822 0.50336 0.45223 0.0
H271 H 1.00026 0.55133 0.41758 0.0
H272 H 0.0023 0.50827 0.42749 0.0
C273 C 0.79448 0.75951 0.83266 0.0
C274 C 0.78131 0.75445 0.83555 0.0
C275 C 0.79664 0.7681 0.8214 0.0
C276 C 0.78566 0.77192 0.81286 0.0
C277 C 0.77249 0.76688 0.81577 0.0
C278 C 0.77035 0.75819 0.82695 0.0
C279 C 0.78794 0.78118 0.80099 0.0
C280 C 0.79906 0.77908 0.79216 0.0
C281 C 0.80137 0.78783 0.78095 0.0
C282 C 0.79235 0.79881 0.77867 0.0
C283 C 0.78115 0.8011 0.7874 0.0
C284 C 0.77904 0.79219 0.79852 0.0
C285 C 0.77177 0.81288 0.78502 0.0
C286 C 0.77695 0.82571 0.78096 0.0
C287 C 0.75757 0.81142 0.7869 0.0
C288 C 0.74879 0.82252 0.78486 0.0
C289 C 0.75398 0.83534 0.78082 0.0
C290 C 0.81319 0.7855 0.77164 0.0
C291 C 0.82599 0.78149 0.77695 0.0
C292 C 0.8118 0.78727 0.75738 0.0
C293 C 0.82293 0.78515 0.74867 0.0
C294 C 0.83569 0.78113 0.75399 0.0
C295 C 0.83709 0.7793 0.76822 0.0
C296 C 0.76815 0.83679 0.77885 0.0
H297 H 0.80314 0.75672 0.83903 0.0
H298 H 0.80688 0.7719 0.81947 0.0
H299 H 0.76385 0.76957 0.80931 0.0
H300 H 0.76008 0.75453 0.82899 0.0
H301 H 0.80575 0.7704 0.79386 0.0
H302 H 0.77067 0.79404 0.80553 0.0
H303 H 0.79406 0.80563 0.77009 0.0
H304 H 0.78784 0.82728 0.77965 0.0
H305 H 0.7532 0.80163 0.78981 0.0
H306 H 0.73789 0.82101 0.78627 0.0
H307 H 0.8275 0.78025 0.78789 0.0
H308 H 0.80205 0.79012 0.75291 0.0
H309 H 0.7725 0.84659 0.77593 0.0
H310 H 0.84684 0.77639 0.77266 0.0
H311 H 0.82147 0.78646 0.73773 0.0
C312 C 0.29335 0.25862 0.33195 0.0
C313 C 0.28014 0.25364 0.33477 0.0
C314 C 0.29562 0.26728 0.32077 0.0
C315 C 0.2847 0.27125 0.31222 0.0
C316 C 0.27149 0.26628 0.31504 0.0
C317 C 0.26924 0.25752 0.32616 0.0
C318 C 0.2871 0.28064 0.30047 0.0
C319 C 0.29836 0.27867 0.29177 0.0
C320 C 0.30086 0.2876 0.28074 0.0
C321 C 0.2919 0.29864 0.27852 0.0
C322 C 0.28055 0.30076 0.28707 0.0
C323 C 0.27821 0.29166 0.29799 0.0
C324 C 0.27122 0.31255 0.28471 0.0
C325 C 0.27651 0.32558 0.28153 0.0
C326 C 0.25695 0.31089 0.28568 0.0
C327 C 0.24818 0.32199 0.28353 0.0
C328 C 0.25347 0.33504 0.28039 0.0
C329 C 0.31278 0.28537 0.27153 0.0
C330 C 0.32549 0.28118 0.2769 0.0
C331 C 0.31155 0.2874 0.25729 0.0
C332 C 0.32274 0.28534 0.24866 0.0
C333 C 0.33543 0.28113 0.25403 0.0
C334 C 0.33666 0.27905 0.26825 0.0
C335 C 0.26775 0.33668 0.27941 0.0
H336 H 0.30197 0.25571 0.33833 0.0
H337 H 0.3059 0.27103 0.31894 0.0
H338 H 0.26289 0.26908 0.30857 0.0
H339 H 0.25892 0.25394 0.32812 0.0
H340 H 0.30502 0.26997 0.29343 0.0
H341 H 0.26969 0.2934 0.30484 0.0
H342 H 0.29376 0.30564 0.27011 0.0
H343 H 0.28746 0.32725 0.28092 0.0
H344 H 0.25253 0.30095 0.28792 0.0
H345 H 0.23724 0.3203 0.28415 0.0
H346 H 0.32688 0.27974 0.28783 0.0
H347 H 0.30186 0.29038 0.25276 0.0
H348 H 0.2722 0.34662 0.27723 0.0
H349 H 0.34635 0.276 0.27273 0.0
H350 H 0.32141 0.28683 0.23772 0.0
C351 C 0.48528 0.97442 0.58777 0.0
C352 C 0.49959 0.97392 0.58616 0.0
C353 C 0.47653 0.97246 0.57654 0.0
C354 C 0.48185 0.96984 0.56344 0.0
C355 C 0.49612 0.96927 0.5618 0.0
C356 C 0.50488 0.97134 0.57301 0.0
C357 C 0.47254 0.96774 0.5515 0.0
C358 C 0.46133 0.97647 0.54939 0.0
C359 C 0.45254 0.97465 0.53806 0.0
C360 C 0.45504 0.96387 0.52884 0.0
C361 C 0.46612 0.95492 0.53085 0.0
C362 C 0.47486 0.957 0.54219 0.0
C363 C 0.46845 0.94326 0.52126 0.0
C364 C 0.45735 0.93553 0.51615 0.0
C365 C 0.48178 0.93966 0.51728 0.0
C366 C 0.48396 0.92855 0.50848 0.0
C367 C 0.47286 0.92081 0.50341 0.0
C368 C 0.44077 0.98403 0.53586 0.0
C369 C 0.4324 0.98788 0.54689 0.0
C370 C 0.4378 0.98919 0.52273 0.0
C371 C 0.42673 0.99801 0.52067 0.0
C372 C 0.41831 0.00184 0.53169 0.0
C373 C 0.42129 0.99665 0.54483 0.0
C374 C 0.45953 0.92447 0.50731 0.0
H375 H 0.48082 0.97613 0.59777 0.0
H376 H 0.46557 0.97277 0.57815 0.0
H377 H 0.50052 0.96746 0.55179 0.0
H378 H 0.51583 0.97112 0.5713 0.0
H379 H 0.45964 0.98493 0.55639 0.0
H380 H 0.48326 0.95 0.54402 0.0
H381 H 0.44829 0.96242 0.5201 0.0
H382 H 0.44696 0.93786 0.51919 0.0
H383 H 0.49055 0.94551 0.52084 0.0
H384 H 0.49434 0.92612 0.50551 0.0
H385 H 0.4343 0.98393 0.5571 0.0
H386 H 0.44418 0.98657 0.51406 0.0
H387 H 0.45077 0.91859 0.50376 0.0
H388 H 0.4149 0.99918 0.55351 0.0
H389 H 0.4249 0.00198 0.51046 0.0
C390 C 0.20924 0.25912 0.67337 0.0
C391 C 0.22249 0.25442 0.67032 0.0
C392 C 0.20701 0.26779 0.68456 0.0
C393 C 0.21799 0.27206 0.69293 0.0
C394 C 0.23123 0.26739 0.68991 0.0
C395 C 0.23345 0.25865 0.67877 0.0
C396 C 0.21563 0.28142 0.70473 0.0
C397 C 0.20455 0.27923 0.71361 0.0
C398 C 0.20216 0.28808 0.72474 0.0
C399 C 0.21109 0.29924 0.7269 0.0
C400 C 0.22226 0.30161 0.71814 0.0
C401 C 0.22442 0.29262 0.70709 0.0
C402 C 0.23158 0.31353 0.72046 0.0
C403 C 0.22637 0.3263 0.72456 0.0
C404 C 0.24578 0.31224 0.71854 0.0
C405 C 0.25453 0.32344 0.72061 0.0
C406 C 0.24932 0.33622 0.72472 0.0
C407 C 0.19034 0.28569 0.73407 0.0
C408 C 0.17763 0.28124 0.72883 0.0
C409 C 0.19165 0.28789 0.74829 0.0
C410 C 0.18051 0.2858 0.75701 0.0
C411 C 0.16783 0.28135 0.75174 0.0
C412 C 0.16652 0.27905 0.73756 0.0
C413 C 0.23512 0.33748 0.7267 0.0
H414 H 0.20058 0.25629 0.66697 0.0
H415 H 0.19672 0.27136 0.68652 0.0
H416 H 0.23986 0.27036 0.69628 0.0
H417 H 0.24375 0.25506 0.6769 0.0
H418 H 0.19797 0.2704 0.71202 0.0
H419 H 0.23275 0.29454 0.70004 0.0
H420 H 0.20933 0.30613 0.73542 0.0
H421 H 0.21548 0.32773 0.72598 0.0
H422 H 0.25019 0.30253 0.71553 0.0
H423 H 0.26538 0.32211 0.71882 0.0
H424 H 0.17616 0.27966 0.71792 0.0
H425 H 0.20133 0.29106 0.75274 0.0
H426 H 0.23075 0.3471 0.73002 0.0
H427 H 0.15683 0.27579 0.73318 0.0
H428 H 0.18188 0.28747 0.76791 0.0
C429 C 0.82634 0.23591 0.74707 0.0
C430 C 0.8344 0.22482 0.75145 0.0
C431 C 0.81511 0.23379 0.73834 0.0
C432 C 0.81166 0.22053 0.73381 0.0
C433 C 0.81971 0.20944 0.73822 0.0
C434 C 0.83095 0.21156 0.74691 0.0
C435 C 0.79973 0.21825 0.7245 0.0
C436 C 0.79726 0.22717 0.71346 0.0
C437 C 0.78611 0.22502 0.70452 0.0
C438 C 0.77735 0.21378 0.70677 0.0
C439 C 0.77964 0.20475 0.71776 0.0
C440 C 0.79085 0.20709 0.72657 0.0
C441 C 0.77035 0.19284 0.72003 0.0
C442 C 0.75609 0.19423 0.71858 0.0
C443 C 0.77569 0.17997 0.72365 0.0
C444 C 0.76699 0.16877 0.72576 0.0
C445 C 0.75273 0.17015 0.7243 0.0
C446 C 0.78372 0.23441 0.69273 0.0
C447 C 0.78522 0.24867 0.69432 0.0
C448 C 0.78 0.2292 0.67978 0.0
C449 C 0.77787 0.23801 0.66868 0.0
C450 C 0.7794 0.25226 0.67025 0.0
C451 C 0.78308 0.25748 0.68322 0.0
C452 C 0.74739 0.18302 0.72069 0.0
H453 H 0.82879 0.24627 0.75026 0.0
H454 H 0.80906 0.24254 0.73524 0.0
H455 H 0.81741 0.19911 0.73481 0.0
H456 H 0.83685 0.20278 0.7502 0.0
H457 H 0.80427 0.23559 0.71157 0.0
H458 H 0.79249 0.20037 0.73526 0.0
H459 H 0.76875 0.21204 0.69992 0.0
H460 H 0.75162 0.20404 0.71602 0.0
H461 H 0.78663 0.17849 0.72464 0.0
H462 H 0.77147 0.15895 0.72831 0.0
H463 H 0.78788 0.25304 0.7042 0.0
H464 H 0.77898 0.21826 0.67814 0.0
H465 H 0.73644 0.18449 0.71968 0.0
H466 H 0.78414 0.26841 0.68485 0.0
H467 H 0.77527 0.23362 0.65879 0.0
C468 C 0.53544 0.57269 0.49843 0.0
C469 C 0.53096 0.58539 0.50349 0.0
C470 C 0.53749 0.56163 0.50731 0.0
C471 C 0.53517 0.56302 0.52148 0.0
C472 C 0.5307 0.57575 0.52652 0.0
C473 C 0.52859 0.58679 0.51763 0.0
C474 C 0.53743 0.55127 0.53096 0.0
C475 C 0.54864 0.54246 0.52915 0.0
C476 C 0.55087 0.53134 0.53803 0.0
C477 C 0.54176 0.52916 0.54894 0.0
C478 C 0.53051 0.53788 0.551 0.0
C479 C 0.52841 0.54884 0.5419 0.0
C480 C 0.521 0.53558 0.56268 0.0
C481 C 0.51693 0.52225 0.56639 0.0
C482 C 0.51594 0.54673 0.57026 0.0
C483 C 0.50705 0.54462 0.58125 0.0
C484 C 0.50301 0.53129 0.58497 0.0
C485 C 0.56276 0.52206 0.53593 0.0
C486 C 0.56655 0.51796 0.52265 0.0
C487 C 0.57042 0.51724 0.54718 0.0
C488 C 0.58158 0.50853 0.54518 0.0
C489 C 0.58539 0.50448 0.5319 0.0
C490 C 0.57773 0.50929 0.52065 0.0
C491 C 0.50807 0.52014 0.57742 0.0
H492 H 0.53717 0.57122 0.48757 0.0
H493 H 0.54071 0.55192 0.50303 0.0
H494 H 0.52904 0.57728 0.53739 0.0
H495 H 0.52532 0.59649 0.52187 0.0
H496 H 0.55587 0.54448 0.521 0.0
H497 H 0.51953 0.55534 0.54315 0.0
H498 H 0.54344 0.52066 0.55588 0.0
H499 H 0.52044 0.51344 0.56065 0.0
H500 H 0.51904 0.55712 0.56784 0.0
H501 H 0.5035 0.55342 0.58698 0.0
H502 H 0.56074 0.52129 0.51377 0.0
H503 H 0.56794 0.52036 0.55753 0.0
H504 H 0.50501 0.50976 0.57991 0.0
H505 H 0.58027 0.5062 0.5103 0.0
H506 H 0.58739 0.50516 0.55405 0.0
C507 C 0.4976 0.47036 0.93368 0.0
C508 C 0.5027 0.47442 0.92084 0.0
C509 C 0.50649 0.46827 0.94478 0.0
C510 C 0.52068 0.47017 0.9433 0.0
C511 C 0.52577 0.47423 0.93045 0.0
C512 C 0.51689 0.47634 0.91937 0.0
C513 C 0.53018 0.46785 0.95506 0.0
C514 C 0.52825 0.45664 0.96391 0.0
C515 C 0.5373 0.45423 0.97489 0.0
C516 C 0.54843 0.4632 0.97696 0.0
C517 C 0.55054 0.47449 0.96827 0.0
C518 C 0.54132 0.47674 0.95738 0.0
C519 C 0.5624 0.48391 0.9705 0.0
C520 C 0.56639 0.48783 0.98383 0.0
C521 C 0.56985 0.48902 0.9593 0.0
C522 C 0.58099 0.49783 0.96137 0.0
C523 C 0.58502 0.50172 0.9747 0.0
C524 C 0.53521 0.44227 0.98411 0.0
C525 C 0.52205 0.43882 0.98877 0.0
C526 C 0.54637 0.43421 0.98832 0.0
C527 C 0.5444 0.42296 0.99697 0.0
C528 C 0.53124 0.41952 0.00165 0.0
C529 C 0.52008 0.4276 0.99746 0.0
C530 C 0.57756 0.49661 0.9859 0.0
H531 H 0.48671 0.46898 0.93521 0.0
H532 H 0.5022 0.46534 0.95458 0.0
H533 H 0.53666 0.47556 0.92889 0.0
H534 H 0.52118 0.47924 0.90957 0.0
H535 H 0.5199 0.44954 0.962 0.0
H536 H 0.54265 0.48561 0.95085 0.0
H537 H 0.55549 0.46135 0.98536 0.0
H538 H 0.5608 0.48421 0.99269 0.0
H539 H 0.56717 0.4861 0.94891 0.0
H540 H 0.58638 0.50169 0.95249 0.0
H541 H 0.51325 0.44489 0.98581 0.0
H542 H 0.55663 0.4365 0.98481 0.0
H543 H 0.58045 0.49926 0.99631 0.0
H544 H 0.50979 0.42515 1.00076 0.0
H545 H 0.55323 0.41705 1.00012 0.0
C546 C 0.67461 0.21094 0.25589 0.0
C547 C 0.67029 0.22429 0.25265 0.0
C548 C 0.68573 0.2088 0.26472 0.0
C549 C 0.69289 0.21996 0.27048 0.0
C550 C 0.68863 0.23331 0.26718 0.0
C551 C 0.67746 0.23545 0.25842 0.0
C552 C 0.70471 0.21766 0.27994 0.0
C553 C 0.71401 0.20698 0.27749 0.0
C554 C 0.72504 0.20454 0.28649 0.0
C555 C 0.72684 0.21315 0.29795 0.0
C556 C 0.71775 0.22399 0.30053 0.0
C557 C 0.70667 0.22608 0.29152 0.0
C558 C 0.71979 0.23312 0.31265 0.0
C559 C 0.72405 0.22776 0.32536 0.0
C560 C 0.71751 0.24731 0.31158 0.0
C561 C 0.71939 0.2559 0.32294 0.0
C562 C 0.72367 0.25053 0.33562 0.0
C563 C 0.73457 0.19291 0.28398 0.0
C564 C 0.72956 0.18024 0.27916 0.0
C565 C 0.74871 0.19431 0.28648 0.0
C566 C 0.75758 0.18331 0.28432 0.0
C567 C 0.75254 0.17066 0.27951 0.0
C568 C 0.73844 0.16927 0.27691 0.0
C569 C 0.726 0.23637 0.33669 0.0
H570 H 0.66948 0.20209 0.25152 0.0
H571 H 0.68859 0.19837 0.26715 0.0
H572 H 0.69399 0.24216 0.27128 0.0
H573 H 0.67435 0.24588 0.2563 0.0
H574 H 0.71283 0.2007 0.26839 0.0
H575 H 0.69933 0.23407 0.29373 0.0
H576 H 0.73534 0.2114 0.3049 0.0
H577 H 0.72568 0.21687 0.32663 0.0
H578 H 0.71446 0.25183 0.30191 0.0
H579 H 0.7177 0.26679 0.32172 0.0
H580 H 0.71871 0.17869 0.27735 0.0
H581 H 0.75298 0.20398 0.28997 0.0
H582 H 0.72912 0.2319 0.34637 0.0
H583 H 0.73422 0.1596 0.27338 0.0
H584 H 0.76842 0.18475 0.28625 0.0
C585 C 0.47755 0.08527 0.98818 0.0
C586 C 0.47513 0.08394 0.00233 0.0
C587 C 0.47547 0.07418 0.97931 0.0
C588 C 0.471 0.06144 0.98434 0.0
C589 C 0.46868 0.06007 0.99851 0.0
C590 C 0.47069 0.07119 0.00738 0.0
C591 C 0.46861 0.04968 0.97483 0.0
C592 C 0.47746 0.04737 0.96373 0.0
C593 C 0.4751 0.03655 0.95445 0.0
C594 C 0.46375 0.02789 0.95647 0.0
C595 C 0.45487 0.02991 0.96759 0.0
C596 C 0.45737 0.04084 0.97668 0.0
C597 C 0.44292 0.02068 0.96967 0.0
C598 C 0.43449 0.01687 0.95858 0.0
C599 C 0.43986 0.01562 0.9828 0.0
C600 C 0.42862 0.00694 0.98478 0.0
C601 C 0.42011 0.00317 0.9737 0.0
C602 C 0.48447 0.03435 0.94264 0.0
C603 C 0.48969 0.04557 0.93524 0.0
C604 C 0.48828 0.02104 0.93867 0.0
C605 C 0.49707 0.01901 0.92757 0.0
C606 C 0.50232 0.03023 0.92022 0.0
C607 C 0.49852 0.04353 0.92419 0.0
C608 C 0.42319 0.00826 0.96057 0.0
H609 H 0.48114 0.09487 0.98393 0.0
H610 H 0.4772 0.07567 0.96845 0.0
H611 H 0.46539 0.05038 0.00279 0.0
H612 H 0.46858 0.06981 0.01819 0.0
H613 H 0.4864 0.05385 0.96247 0.0
H614 H 0.45028 0.04269 0.98499 0.0
H615 H 0.46179 0.01955 0.94937 0.0
H616 H 0.43648 0.02075 0.94837 0.0
H617 H 0.44628 0.01823 0.99152 0.0
H618 H 0.42673 0.00304 0.99499 0.0
H619 H 0.48679 0.05594 0.93787 0.0
H620 H 0.48464 0.01218 0.94426 0.0
H621 H 0.41675 0.00579 0.95183 0.0
H622 H 0.50221 0.05238 0.91861 0.0
H623 H 0.49995 0.00864 0.92489 0.0
Li624 Li 0.26462 0.88682 1.00017 0.0
Li625 Li 0.25469 0.86966 0.01566 0.0
Li626 Li 0.25062 0.86908 0.99004 0.0
Li627 Li 0.23924 0.88642 0.00433 0.0
C628 C 0.28191 0.86631 0.99976 0.0
N629 N 0.31016 0.86644 0.99845 0.0
C630 C 0.28971 0.86393 0.01157 0.0
C631 C 0.28846 0.86863 0.98726 0.0
C632 C 0.30399 0.86406 0.0107 0.0
C633 C 0.30276 0.8687 0.98682 0.0
C634 C 0.25246 0.89501 0.03049 0.0
C635 C 0.23785 0.89852 0.05006 0.0
N636 N 0.2482 0.90531 0.05656 0.0
C637 C 0.26289 0.90218 0.0373 0.0
C638 C 0.23979 0.89329 0.03687 0.0
C639 C 0.26056 0.90724 0.0505 0.0
C640 C 0.28152 0.90565 0.98577 0.0
N641 N 0.28021 0.89845 0.99762 0.0
C642 C 0.30146 0.90748 0.00602 0.0
C643 C 0.28987 0.89924 0.00769 0.0
C644 C 0.30315 0.91497 0.99384 0.0
C645 C 0.29299 0.91396 0.98363 0.0
H646 H 0.27365 0.90497 0.97798 0.0
H647 H 0.28863 0.89334 0.01698 0.0
C648 C 0.25361 0.84514 0.03062 0.0
N649 N 0.25756 0.85849 0.0315 0.0
C650 C 0.25538 0.83635 0.04178 0.0
C651 C 0.2654 0.85515 0.05454 0.0
C652 C 0.26349 0.86356 0.0431 0.0
C653 C 0.26132 0.84134 0.05397 0.0
H654 H 0.24902 0.84134 0.02123 0.0
H655 H 0.26689 0.87409 0.04347 0.0
C656 C 0.24559 0.88995 0.97337 0.0
N657 N 0.2378 0.89077 0.9461 0.0
C658 C 0.23222 0.89358 0.96977 0.0
C659 C 0.25504 0.88687 0.9631 0.0
C660 C 0.22848 0.89391 0.95592 0.0
C661 C 0.25088 0.88729 0.94938 0.0
C662 C 0.22551 0.86063 0.01011 0.0
C663 C 0.21606 0.85462 1.00109 0.0
C664 C 0.22285 0.86064 0.02419 0.0
C665 C 0.20397 0.84902 0.00627 0.0
C666 C 0.21064 0.85492 0.02897 0.0
N667 N 0.20152 0.8493 0.01999 0.0
C668 C 0.2585 0.84862 0.97097 0.0
C669 C 0.23626 0.85754 0.96729 0.0
C670 C 0.25707 0.83996 0.95962 0.0
N671 N 0.24819 0.85722 0.97454 0.0
C672 C 0.23439 0.84907 0.95587 0.0
C673 C 0.24488 0.84011 0.95188 0.0
H674 H 0.26785 0.8485 0.97694 0.0
H675 H 0.22819 0.86442 0.97036 0.0
C676 C 0.22546 0.91086 0.01048 0.0
N677 N 0.22337 0.89763 0.00659 0.0
C678 C 0.21437 0.91962 0.01249 0.0
C679 C 0.19913 0.90106 0.00622 0.0
C680 C 0.21053 0.89268 0.0043 0.0
C681 C 0.20095 0.91474 0.01043 0.0
H682 H 0.23579 0.9146 0.01205 0.0
H683 H 0.20909 0.88224 1.00093 0.0
O684 O 0.26794 0.86651 1.00047 0.0
O685 O 0.2546 0.89 0.01756 0.0
O686 O 0.2494 0.88941 0.98688 0.0
O687 O 0.23745 0.8661 0.00518 0.0
H688 H 0.28481 0.86213 0.02132 0.0
H689 H 0.28258 0.8705 0.97803 0.0
H690 H 0.31016 0.8623 0.01977 0.0
H691 H 0.30797 0.87058 0.97723 0.0
H692 H 0.22809 0.89723 0.0551 0.0
H693 H 0.27271 0.90379 0.03249 0.0
H694 H 0.23146 0.88816 0.03164 0.0
H695 H 0.26858 0.91272 0.05591 0.0
H696 H 0.30912 0.90784 0.01409 0.0
H697 H 0.2938 0.9197 0.97416 0.0
H698 H 0.25199 0.8258 0.04093 0.0
H699 H 0.27025 0.85936 0.06364 0.0
H700 H 0.2248 0.89604 0.97758 0.0
H701 H 0.26541 0.884 0.96571 0.0
H702 H 0.21815 0.89664 0.95299 0.0
H703 H 0.25805 0.88482 0.94133 0.0
H704 H 0.21799 0.85433 0.9902 0.0
H705 H 0.23017 0.86483 0.0314 0.0
H706 H 0.19653 0.84443 0.99938 0.0
H707 H 0.20846 0.8549 0.03984 0.0
H708 H 0.26548 0.83333 0.95686 0.0
H709 H 0.22475 0.84942 0.95035 0.0
H710 H 0.21631 0.93014 0.01549 0.0
H711 H 0.189 0.8968 0.00458 0.0
Li712 Li 0.11863 0.5036 0.26629 0.0
Li713 Li 0.13586 0.4892 0.25507 0.0
Li714 Li 0.13571 0.51484 0.25113 0.0
Li715 Li 0.11847 0.49951 0.2408 0.0
C716 C 0.14364 0.50879 0.2809 0.0
N717 N 0.15349 0.51767 0.30606 0.0
C718 C 0.14824 0.49933 0.29064 0.0
C719 C 0.14436 0.52279 0.28388 0.0
C720 C 0.15308 0.50401 0.30332 0.0
C721 C 0.14929 0.52708 0.29667 0.0
C722 C 0.11455 0.47259 0.25899 0.0
C723 C 0.11708 0.44885 0.25258 0.0
N724 N 0.11288 0.44503 0.2653 0.0
C725 C 0.11016 0.46843 0.27196 0.0
C726 C 0.11794 0.46272 0.24917 0.0
C727 C 0.10941 0.45445 0.27496 0.0
C728 C 0.09519 0.51234 0.28076 0.0
N729 N 0.1074 0.50583 0.28221 0.0
C730 C 0.1032 0.5023 0.30611 0.0
C731 C 0.11143 0.50069 0.29454 0.0
C732 C 0.0907 0.50928 0.30498 0.0
C733 C 0.08671 0.51431 0.29208 0.0
H734 H 0.09201 0.51599 0.27078 0.0
H735 H 0.12094 0.49515 0.29537 0.0
C736 C 0.15656 0.47035 0.24759 0.0
N737 N 0.14747 0.47362 0.25757 0.0
C738 C 0.1651 0.45898 0.24908 0.0
C739 C 0.15485 0.45461 0.27115 0.0
C740 C 0.14651 0.46604 0.26922 0.0
C741 C 0.16432 0.45093 0.261 0.0
H742 H 0.15723 0.4766 0.23848 0.0
H743 H 0.13918 0.46881 0.277 0.0
C744 C 0.11092 0.53004 0.25286 0.0
N745 N 0.10187 0.55659 0.25659 0.0
C746 C 0.10386 0.53676 0.24235 0.0
C747 C 0.11318 0.53676 0.26534 0.0
C748 C 0.09942 0.5502 0.24441 0.0
C749 C 0.10857 0.55019 0.26701 0.0
C750 C 0.13932 0.49891 0.22381 0.0
C751 C 0.14178 0.51073 0.21612 0.0
C752 C 0.1373 0.48639 0.21711 0.0
C753 C 0.142 0.50986 0.20182 0.0
C754 C 0.13757 0.48594 0.20279 0.0
N755 N 0.13988 0.49759 0.1955 0.0
C756 C 0.16014 0.53015 0.25311 0.0
C757 C 0.14217 0.5419 0.24179 0.0
C758 C 0.16891 0.54135 0.25138 0.0
N759 N 0.14701 0.53066 0.24843 0.0
C760 C 0.15056 0.55336 0.23991 0.0
C761 C 0.16413 0.55319 0.24475 0.0
H762 H 0.16377 0.52102 0.25823 0.0
H763 H 0.13186 0.54194 0.23776 0.0
C764 C 0.09954 0.48545 0.22349 0.0
N765 N 0.10703 0.49713 0.22498 0.0
C766 C 0.09128 0.48351 0.21191 0.0
C767 C 0.09841 0.50574 0.20367 0.0
C768 C 0.10661 0.50721 0.21537 0.0
C769 C 0.09062 0.49375 0.20181 0.0
H770 H 0.09992 0.47765 0.23133 0.0
H771 H 0.11271 0.51638 0.21677 0.0
O772 O 0.13896 0.50436 0.26838 0.0
O773 O 0.1155 0.48623 0.25592 0.0
O774 O 0.11541 0.51689 0.25096 0.0
O775 O 0.1388 0.49961 0.23781 0.0
H776 H 0.14797 0.48848 0.28848 0.0
H777 H 0.14132 0.53032 0.27637 0.0
H778 H 0.15654 0.49678 0.31098 0.0
H779 H 0.14984 0.53788 0.2991 0.0
H780 H 0.11978 0.44111 0.24512 0.0
H781 H 0.10739 0.4759 0.27964 0.0
H782 H 0.12134 0.46575 0.23909 0.0
H783 H 0.10609 0.45109 0.28498 0.0
H784 H 0.10665 0.49824 0.31586 0.0
H785 H 0.07703 0.51952 0.2907 0.0
H786 H 0.17238 0.45664 0.24107 0.0
H787 H 0.15376 0.44861 0.28042 0.0
H788 H 0.10184 0.53169 0.23268 0.0
H789 H 0.1182 0.53159 0.27373 0.0
H790 H 0.09402 0.55555 0.23633 0.0
H791 H 0.11027 0.55549 0.27663 0.0
H792 H 0.14339 0.5205 0.22113 0.0
H793 H 0.13545 0.47713 0.22289 0.0
H794 H 0.14381 0.51895 0.19574 0.0
H795 H 0.13593 0.47634 0.19746 0.0
H796 H 0.17927 0.54081 0.25534 0.0
H797 H 0.14654 0.56216 0.2345 0.0
H798 H 0.08529 0.47418 0.21097 0.0
H799 H 0.09832 0.51383 0.19608 0.0
Li800 Li 0.73937 0.62008 1.00104 0.0
Li801 Li 0.75094 0.63738 0.01533 0.0
Li802 Li 0.75467 0.63705 0.98978 0.0
Li803 Li 0.76492 0.61982 0.00513 0.0
C804 C 0.72568 0.64537 0.99462 0.0
N805 N 0.70187 0.65561 0.9832 0.0
C806 C 0.71608 0.65199 0.00287 0.0
C807 C 0.72327 0.64418 0.98053 0.0
C808 C 0.70407 0.65703 0.99691 0.0
C809 C 0.71115 0.64937 0.97495 0.0
C810 C 0.74646 0.61654 0.03198 0.0
C811 C 0.75273 0.61877 0.05583 0.0
N812 N 0.73959 0.61593 0.05942 0.0
C813 C 0.73304 0.61355 0.03589 0.0
C814 C 0.75643 0.61908 0.04201 0.0
C815 C 0.72976 0.61332 0.04982 0.0
C816 C 0.72549 0.59557 0.99485 0.0
N817 N 0.72349 0.60877 0.99882 0.0
C818 C 0.69927 0.60514 0.99959 0.0
C819 C 0.71072 0.61362 1.00133 0.0
C820 C 0.70099 0.59149 0.99532 0.0
C821 C 0.71435 0.58673 0.993 0.0
H822 H 0.73578 0.59192 0.99313 0.0
H823 H 0.70937 0.62403 0.00479 0.0
C824 C 0.75908 0.6571 0.03526 0.0
N825 N 0.74855 0.64902 0.03093 0.0
C826 C 0.75754 0.66559 0.0467 0.0
C827 C 0.7343 0.65735 0.04897 0.0
C828 C 0.7363 0.64903 0.03749 0.0
C829 C 0.74501 0.6658 0.05373 0.0
H830 H 0.76867 0.65702 0.02978 0.0
H831 H 0.72808 0.64251 0.03384 0.0
C832 C 0.75333 0.61122 0.97499 0.0
N833 N 0.75093 0.59988 0.94908 0.0
C834 C 0.76456 0.60486 0.96889 0.0
C835 C 0.74081 0.6116 0.96798 0.0
C836 C 0.76317 0.59925 0.95576 0.0
C837 C 0.73982 0.60586 0.95488 0.0
C838 C 0.78209 0.64103 0.00559 0.0
C839 C 0.78957 0.64462 0.99394 0.0
C840 C 0.78896 0.6383 0.0179 0.0
C841 C 0.80385 0.64526 0.99477 0.0
C842 C 0.80324 0.63902 0.01829 0.0
N843 N 0.81033 0.64245 0.00682 0.0
C844 C 0.7535 0.66162 0.97487 0.0
C845 C 0.76302 0.6432 0.9623 0.0
C846 C 0.75521 0.67044 0.96372 0.0
N847 N 0.75733 0.64827 0.97395 0.0
C848 C 0.76481 0.65162 0.95087 0.0
C849 C 0.76089 0.66544 0.95149 0.0
H850 H 0.74909 0.66541 0.98429 0.0
H851 H 0.76632 0.63269 0.96189 0.0
C852 C 0.78078 0.59939 0.01835 0.0
N853 N 0.78046 0.60817 0.00754 0.0
C854 C 0.79202 0.59079 0.02037 0.0
C855 C 0.80241 0.60042 1.0001 0.0
C856 C 0.79094 0.60876 0.99842 0.0
C857 C 0.80306 0.59126 0.01119 0.0
H858 H 0.77228 0.59903 0.0254 0.0
H859 H 0.79038 0.61571 0.98982 0.0
O860 O 0.7375 0.6404 1.00032 0.0
O861 O 0.74982 0.61703 0.01839 0.0
O862 O 0.75454 0.61674 0.98786 0.0
O863 O 0.76813 0.64019 0.00494 0.0
H864 H 0.71783 0.65317 0.01376 0.0
H865 H 0.73073 0.63947 0.97391 0.0
H866 H 0.69651 0.66208 0.0032 0.0
H867 H 0.70916 0.64848 0.96406 0.0
H868 H 0.76032 0.62082 0.06371 0.0
H869 H 0.72521 0.61154 0.02825 0.0
H870 H 0.76687 0.62138 0.03915 0.0
H871 H 0.71939 0.61109 0.053 0.0
H872 H 0.68919 0.60931 1.00142 0.0
H873 H 0.71622 0.57623 0.98996 0.0
H874 H 0.76601 0.67208 0.04987 0.0
H875 H 0.72453 0.65704 0.05415 0.0
H876 H 0.77429 0.60431 0.97419 0.0
H877 H 0.73189 0.61611 0.97265 0.0
H878 H 0.77181 0.59438 0.95089 0.0
H879 H 0.73019 0.60612 0.94935 0.0
H880 H 0.78442 0.6468 0.98435 0.0
H881 H 0.78333 0.63552 0.02701 0.0
H882 H 0.80977 0.64795 0.98582 0.0
H883 H 0.8087 0.63683 0.02772 0.0
H884 H 0.75197 0.681 0.9646 0.0
H885 H 0.76945 0.64742 0.94172 0.0
H886 H 0.79213 0.58397 0.02912 0.0
H887 H 0.8106 0.60099 0.99267 0.0
Li888 Li 0.86901 0.01571 0.25487 0.0
Li889 Li 0.88615 1.00049 0.26542 0.0
Li890 Li 0.8861 0.0045 0.2398 0.0
Li891 Li 0.86872 0.9901 0.25102 0.0
C892 C 0.89415 0.03088 0.25449 0.0
N893 N 0.90407 0.05741 0.25327 0.0
C894 C 0.89996 0.037 0.26612 0.0
C895 C 0.89362 0.03818 0.24217 0.0
C896 C 0.90485 0.05045 0.26532 0.0
C897 C 0.89863 0.0516 0.24178 0.0
C898 C 0.86456 0.99955 0.28214 0.0
C899 C 0.86599 0.98627 0.30295 0.0
N900 N 0.86231 0.99751 0.31031 0.0
C901 C 0.86069 0.01094 0.28989 0.0
C902 C 0.86714 0.98708 0.2887 0.0
C903 C 0.85963 0.00971 0.30413 0.0
C904 C 0.84507 0.03145 0.25171 0.0
N905 N 0.85782 0.03155 0.25738 0.0
C906 C 0.85407 0.05391 0.26669 0.0
C907 C 0.86236 0.04243 0.26488 0.0
C908 C 0.84088 0.05418 0.26084 0.0
C909 C 0.83641 0.0427 0.25328 0.0
H910 H 0.84161 0.02257 0.246 0.0
H911 H 0.87236 0.04215 0.26962 0.0
C912 C 0.90679 0.98763 0.28127 0.0
N913 N 0.89764 0.99809 0.28118 0.0
C914 C 0.91528 0.98554 0.29265 0.0
C915 C 0.90482 0.00505 0.30364 0.0
C916 C 0.89661 0.00682 0.292 0.0
C917 C 0.91435 0.99429 0.30409 0.0
H918 H 0.90756 0.98095 0.27246 0.0
H919 H 0.88936 0.01515 0.29163 0.0
C920 C 0.86124 0.00999 0.22526 0.0
N921 N 0.85192 0.01977 0.20032 0.0
C922 C 0.85526 1.00105 0.21572 0.0
C923 C 0.86225 0.02394 0.2222 0.0
C924 C 0.85068 0.00618 0.20314 0.0
C925 C 0.85754 0.02868 0.20952 0.0
C926 C 0.88999 0.9736 0.24703 0.0
C927 C 0.89342 0.96959 0.23373 0.0
C928 C 0.88753 0.96365 0.25703 0.0
C929 C 0.89414 0.95563 0.23059 0.0
C930 C 0.88833 0.94981 0.25348 0.0
N931 N 0.89158 0.94612 0.24044 0.0
C932 C 0.91029 0.01198 0.22606 0.0
C933 C 0.89302 0.0032 0.21131 0.0
C934 C 0.91906 0.01397 0.21496 0.0
N935 N 0.89748 0.00682 0.22405 0.0
C936 C 0.90143 0.00505 0.19991 0.0
C937 C 0.91466 0.01055 0.20163 0.0
H938 H 0.91369 0.01455 0.23633 0.0
H939 H 0.88296 0.99877 0.20998 0.0
C940 C 0.8482 0.97102 0.25866 0.0
N941 N 0.85708 0.97448 0.24853 0.0
C942 C 0.83958 0.95965 0.25716 0.0
C943 C 0.84932 0.95563 0.23479 0.0
C944 C 0.85771 0.96711 0.2367 0.0
C945 C 0.84008 0.95176 0.2451 0.0
H946 H 0.84779 0.97712 0.26791 0.0
H947 H 0.86473 0.97016 0.22873 0.0
O948 O 0.88932 0.01771 0.25512 0.0
O949 O 0.86578 1.00059 0.26821 0.0
O950 O 0.8658 0.0051 0.23761 0.0
O951 O 0.88907 0.98721 0.25026 0.0
H952 H 0.90061 0.03147 0.2757 0.0
H953 H 0.88955 0.03349 0.23297 0.0
H954 H 0.90927 0.05534 0.27427 0.0
H955 H 0.89824 0.05736 0.23232 0.0
H956 H 0.86804 0.97671 0.30816 0.0
H957 H 0.85859 0.02064 0.28499 0.0
H958 H 0.87007 0.97816 0.28285 0.0
H959 H 0.85671 0.01845 0.31026 0.0
H960 H 0.85801 0.06253 0.27252 0.0
H961 H 0.82625 0.0423 0.24881 0.0
H962 H 0.92264 0.97727 0.29238 0.0
H963 H 0.90359 0.01196 0.31223 0.0
H964 H 0.85423 0.99025 0.21796 0.0
H965 H 0.86647 0.03107 0.22958 0.0
H966 H 0.84612 0.99936 0.19563 0.0
H967 H 0.85829 0.03945 0.20701 0.0
H968 H 0.89541 0.97715 0.22589 0.0
H969 H 0.88495 0.96659 0.26739 0.0
H970 H 0.89671 0.95237 0.22031 0.0
H971 H 0.88636 0.942 0.26109 0.0
H972 H 0.92925 0.01798 0.21685 0.0
H973 H 0.89754 0.00232 0.18985 0.0
H974 H 0.83271 0.95699 0.26543 0.0
H975 H 0.84992 0.94998 0.22525 0.0
Li976 Li 0.24973 0.13725 0.51549 0.0
Li977 Li 0.23944 0.11986 0.5002 0.0
Li978 Li 0.26494 0.12004 0.50467 0.0
Li979 Li 0.2539 0.1372 0.48989 0.0
C980 C 0.25013 0.11254 0.53099 0.0
N981 N 0.25129 0.10358 0.55785 0.0
C982 C 0.2387 0.10633 0.53697 0.0
C983 C 0.2622 0.11398 0.53861 0.0
C984 C 0.23947 0.10193 0.55059 0.0
C985 C 0.26257 0.10944 0.55219 0.0
C986 C 0.22267 0.14135 0.49886 0.0
C987 C 0.20202 0.14009 0.48524 0.0
N988 N 0.19454 0.14334 0.49651 0.0
C989 C 0.2148 0.14479 0.51029 0.0
C990 C 0.21625 0.13909 0.48621 0.0
C991 C 0.20059 0.14571 0.50889 0.0
C992 C 0.25253 0.16145 0.53107 0.0
N993 N 0.247 0.14865 0.53122 0.0
C994 C 0.23753 0.15266 0.55344 0.0
C995 C 0.23949 0.1442 0.54205 0.0
C996 C 0.2432 0.16592 0.55365 0.0
C997 C 0.25078 0.17028 0.54221 0.0
H998 H 0.25827 0.16483 0.52222 0.0
H999 H 0.23486 0.13415 0.54182 0.0
C1000 C 0.22381 0.09914 0.48703 0.0
N1001 N 0.22382 0.10825 0.4976 0.0
C1002 C 0.21258 0.09048 0.48485 0.0
C1003 C 0.20158 0.10067 0.5045 0.0
C1004 C 0.21305 0.10907 0.50635 0.0
C1005 C 0.20125 0.0912 0.49363 0.0
H1006 H 0.23255 0.09855 0.48032 0.0
H1007 H 0.2134 0.11623 0.51481 0.0
C1008 C 0.27963 0.14471 0.50972 0.0
N1009 N 0.30497 0.15367 0.51884 0.0
C1010 C 0.28929 0.1496 0.50039 0.0
C1011 C 0.28277 0.14463 0.52372 0.0
C1012 C 0.30207 0.15401 0.50519 0.0
C1013 C 0.29566 0.14914 0.52813 0.0
C1014 C 0.2577 0.11547 0.47358 0.0
C1015 C 0.27074 0.11133 0.4695 0.0
C1016 C 0.24769 0.11817 0.46365 0.0
C1017 C 0.27362 0.11016 0.45552 0.0
C1018 C 0.25098 0.1169 0.44978 0.0
N1019 N 0.26377 0.11297 0.44604 0.0
C1020 C 0.279 0.09653 0.51378 0.0
C1021 C 0.29313 0.1126 0.50238 0.0
C1022 C 0.29013 0.08782 0.51586 0.0
N1023 N 0.2807 0.10873 0.50729 0.0
C1024 C 0.30454 0.10418 0.50418 0.0
C1025 C 0.30314 0.09159 0.51104 0.0
H1026 H 0.26896 0.09353 0.51734 0.0
H1027 H 0.29416 0.1221 0.49681 0.0
C1028 C 0.24676 0.15807 0.47103 0.0
N1029 N 0.2565 0.14867 0.4742 0.0
C1030 C 0.24829 0.16656 0.4596 0.0
C1031 C 0.26989 0.15556 0.4549 0.0
C1032 C 0.26798 0.14737 0.46648 0.0
C1033 C 0.25997 0.16535 0.45131 0.0
H1034 H 0.23782 0.15905 0.47744 0.0
H1035 H 0.27565 0.13991 0.46927 0.0
O1036 O 0.24951 0.11695 0.51768 0.0
O1037 O 0.23658 0.14023 0.50007 0.0
O1038 O 0.26704 0.14038 0.50518 0.0
O1039 O 0.25474 0.11682 0.48721 0.0
H1040 H 0.22932 0.10499 0.5312 0.0
H1041 H 0.27125 0.11838 0.53405 0.0
H1042 H 0.23068 0.0972 0.55537 0.0
H1043 H 0.27186 0.11051 0.5582 0.0
H1044 H 0.19691 0.13828 0.47553 0.0
H1045 H 0.21959 0.14664 0.52014 0.0
H1046 H 0.22219 0.13655 0.47724 0.0
H1047 H 0.19436 0.14829 0.51767 0.0
H1048 H 0.2317 0.14878 0.56203 0.0
H1049 H 0.25513 0.18049 0.54176 0.0
H1050 H 0.21273 0.0834 0.47628 0.0
H1051 H 0.19316 0.10143 0.51164 0.0
H1052 H 0.28699 0.14991 0.48954 0.0
H1053 H 0.2753 0.14129 0.53115 0.0
H1054 H 0.30968 0.15772 0.49806 0.0
H1055 H 0.29823 0.14909 0.53893 0.0
H1056 H 0.27858 0.1091 0.47703 0.0
H1057 H 0.23752 0.12127 0.46663 0.0
H1058 H 0.2837 0.10704 0.45222 0.0
H1059 H 0.24336 0.11905 0.44199 0.0
H1060 H 0.28855 0.07827 0.52129 0.0
H1061 H 0.31429 0.10739 0.5 0.0
H1062 H 0.24049 0.17411 0.45742 0.0
H1063 H 0.27897 0.15411 0.44876 0.0
Li1064 Li 0.38596 0.50092 0.76523 0.0
Li1065 Li 0.36893 0.51542 0.75372 0.0
Li1066 Li 0.36885 0.48987 0.74978 0.0
Li1067 Li 0.38632 0.50503 0.73963 0.0
C1068 C 0.361 0.49509 0.77916 0.0
N1069 N 0.35144 0.48442 0.80357 0.0
C1070 C 0.35511 0.50369 0.78896 0.0
C1071 C 0.36179 0.48103 0.78169 0.0
C1072 C 0.35041 0.49811 0.80126 0.0
C1073 C 0.35696 0.47583 0.79411 0.0
C1074 C 0.39007 0.53186 0.75811 0.0
C1075 C 0.38818 0.55562 0.75159 0.0
N1076 N 0.39123 0.55939 0.7647 0.0
C1077 C 0.3933 0.53597 0.77149 0.0
C1078 C 0.38759 0.54175 0.74805 0.0
C1079 C 0.3938 0.54994 0.77462 0.0
C1080 C 0.40968 0.49285 0.77964 0.0
N1081 N 0.3971 0.49852 0.78124 0.0
C1082 C 0.40083 0.50073 0.80542 0.0
C1083 C 0.39264 0.50261 0.79378 0.0
C1084 C 0.41378 0.49465 0.80413 0.0
C1085 C 0.4182 0.49074 0.791 0.0
H1086 H 0.41312 0.48996 0.76952 0.0
H1087 H 0.38277 0.50744 0.79476 0.0
C1088 C 0.34925 0.53519 0.74566 0.0
N1089 N 0.35752 0.53112 0.75613 0.0
C1090 C 0.34085 0.54666 0.74717 0.0
C1091 C 0.34959 0.5495 0.77023 0.0
C1092 C 0.35779 0.53797 0.76828 0.0
C1093 C 0.34094 0.55399 0.75959 0.0
H1094 H 0.34914 0.52952 0.73613 0.0
H1095 H 0.3644 0.53449 0.77648 0.0
C1096 C 0.39397 0.47459 0.75065 0.0
N1097 N 0.40388 0.44812 0.75205 0.0
C1098 C 0.39999 0.46855 0.73916 0.0
C1099 C 0.39322 0.46723 0.76291 0.0
C1100 C 0.40487 0.45514 0.74005 0.0
C1101 C 0.39823 0.45385 0.7634 0.0
C1102 C 0.36504 0.50577 0.72243 0.0
C1103 C 0.36126 0.49419 0.71483 0.0
C1104 C 0.36784 0.51808 0.71566 0.0
C1105 C 0.36052 0.49507 0.70054 0.0
C1106 C 0.36702 0.51853 0.70136 0.0
N1107 N 0.36341 0.50712 0.69416 0.0
C1108 C 0.34433 0.47484 0.75178 0.0
C1109 C 0.36199 0.46281 0.74042 0.0
C1110 C 0.33541 0.46373 0.75015 0.0
N1111 N 0.35738 0.47415 0.74704 0.0
C1112 C 0.35344 0.45143 0.73863 0.0
C1113 C 0.33995 0.45179 0.74354 0.0
H1114 H 0.34088 0.48403 0.7569 0.0
H1115 H 0.37223 0.46261 0.73636 0.0
C1116 C 0.40699 0.51811 0.72405 0.0
N1117 N 0.39799 0.50745 0.7241 0.0
C1118 C 0.41552 0.52027 0.71278 0.0
C1119 C 0.40542 0.5004 0.70185 0.0
C1120 C 0.39715 0.49858 0.71335 0.0
C1121 C 0.41476 0.51137 0.70145 0.0
H1122 H 0.40755 0.52495 0.73276 0.0
H1123 H 0.39003 0.49008 0.71369 0.0
O1124 O 0.36564 0.50041 0.76705 0.0
O1125 O 0.3893 0.51823 0.75491 0.0
O1126 O 0.38914 0.48772 0.74992 0.0
O1127 O 0.36597 0.50506 0.73641 0.0
H1128 H 0.35423 0.51457 0.78712 0.0
H1129 H 0.3659 0.47414 0.7741 0.0
H1130 H 0.34593 0.50468 0.80897 0.0
H1131 H 0.35755 0.46497 0.7962 0.0
H1132 H 0.38618 0.56337 0.74393 0.0
H1133 H 0.39529 0.52847 0.77938 0.0
H1134 H 0.38514 0.53874 0.73764 0.0
H1135 H 0.39621 0.55327 0.78494 0.0
H1136 H 0.39699 0.50387 0.81533 0.0
H1137 H 0.4282 0.48626 0.78947 0.0
H1138 H 0.33447 0.54981 0.73864 0.0
H1139 H 0.34987 0.5547 0.78005 0.0
H1140 H 0.40082 0.47412 0.72963 0.0
H1141 H 0.38901 0.47184 0.77203 0.0
H1142 H 0.40946 0.45032 0.7312 0.0
H1143 H 0.39769 0.44805 0.77283 0.0
H1144 H 0.359 0.4846 0.7199 0.0
H1145 H 0.37074 0.52714 0.72138 0.0
H1146 H 0.35768 0.48617 0.69453 0.0
H1147 H 0.36926 0.52796 0.69598 0.0
H1148 H 0.32511 0.46442 0.75416 0.0
H1149 H 0.35728 0.44253 0.73324 0.0
H1150 H 0.42249 0.52892 0.71287 0.0
H1151 H 0.40463 0.49318 0.69343 0.0
Li1152 Li 0.76458 0.38649 0.50085 0.0
Li1153 Li 0.75322 0.36942 0.51541 0.0
Li1154 Li 0.74916 0.36934 0.48985 0.0
Li1155 Li 0.73904 0.3868 0.50499 0.0
C1156 C 0.77857 0.36161 0.49504 0.0
N1157 N 0.80296 0.35225 0.48433 0.0
C1158 C 0.78841 0.35571 0.50363 0.0
C1159 C 0.78104 0.36252 0.48097 0.0
C1160 C 0.80071 0.35111 0.49803 0.0
C1161 C 0.79346 0.35779 0.47575 0.0
C1162 C 0.75753 0.39062 0.53183 0.0
C1163 C 0.75101 0.38881 0.55559 0.0
N1164 N 0.76407 0.39192 0.55941 0.0
C1165 C 0.77086 0.39391 0.53599 0.0
C1166 C 0.74749 0.38816 0.54169 0.0
C1167 C 0.77397 0.39448 0.54998 0.0
C1168 C 0.77893 0.41021 0.49263 0.0
N1169 N 0.78053 0.39766 0.49843 0.0
C1170 C 0.80464 0.40144 0.50084 0.0
C1171 C 0.79303 0.39324 0.50268 0.0
C1172 C 0.80335 0.41436 0.49463 0.0
C1173 C 0.79025 0.41873 0.49054 0.0
H1174 H 0.76883 0.41362 0.48961 0.0
H1175 H 0.79401 0.3834 0.50762 0.0
C1176 C 0.74541 0.3497 0.53531 0.0
N1177 N 0.75578 0.35802 0.53115 0.0
C1178 C 0.74706 0.34133 0.54682 0.0
C1179 C 0.77006 0.35017 0.54951 0.0
C1180 C 0.76797 0.35836 0.53795 0.0
C1181 C 0.75954 0.34147 0.55409 0.0
H1182 H 0.73588 0.34949 0.52964 0.0
H1183 H 0.77605 0.36505 0.53444 0.0
C1184 C 0.74973 0.39445 0.47447 0.0
N1185 N 0.75067 0.4043 0.44791 0.0
C1186 C 0.73811 0.40031 0.46849 0.0
C1187 C 0.76189 0.39383 0.46701 0.0
C1188 C 0.73876 0.40516 0.45503 0.0
C1189 C 0.76215 0.39881 0.45359 0.0
C1190 C 0.72195 0.36542 0.50582 0.0
C1191 C 0.71432 0.3616 0.49426 0.0
C1192 C 0.71526 0.36818 0.51815 0.0
C1193 C 0.70007 0.36078 0.49518 0.0
C1194 C 0.70099 0.36727 0.51865 0.0
N1195 N 0.69376 0.36363 0.50725 0.0
C1196 C 0.7514 0.34488 0.47475 0.0
C1197 C 0.73957 0.36239 0.46284 0.0
C1198 C 0.7498 0.33596 0.46362 0.0
N1199 N 0.74642 0.35785 0.47412 0.0
C1200 C 0.73778 0.35384 0.45146 0.0
C1201 C 0.74294 0.34041 0.45172 0.0
H1202 H 0.75662 0.34145 0.48393 0.0
H1203 H 0.73539 0.37259 0.46267 0.0
C1204 C 0.72371 0.40766 0.51794 0.0
N1205 N 0.72354 0.39849 0.50743 0.0
C1206 C 0.71256 0.41633 0.52008 0.0
C1207 C 0.70127 0.40601 0.5005 0.0
C1208 C 0.71267 0.3976 0.4987 0.0
C1209 C 0.70112 0.41556 0.5113 0.0
H1210 H 0.73252 0.40827 0.52467 0.0
H1211 H 0.71284 0.39036 0.49031 0.0
O1212 O 0.76646 0.36616 0.50039 0.0
O1213 O 0.75435 0.3898 0.51817 0.0
O1214 O 0.74923 0.38965 0.48765 0.0
O1215 O 0.7359 0.36642 0.50507 0.0
H1216 H 0.78662 0.35474 0.51452 0.0
H1217 H 0.77341 0.36665 0.4741 0.0
H1218 H 0.80845 0.34662 0.50458 0.0
H1219 H 0.7955 0.35846 0.46488 0.0
H1220 H 0.74336 0.38682 0.56333 0.0
H1221 H 0.77874 0.3959 0.5285 0.0
H1222 H 0.73712 0.38567 0.53865 0.0
H1223 H 0.78427 0.39693 0.55335 0.0
H1224 H 0.81452 0.39763 0.50412 0.0
H1225 H 0.78874 0.42871 0.48595 0.0
H1226 H 0.73874 0.33464 0.54984 0.0
H1227 H 0.77978 0.35076 0.55487 0.0
H1228 H 0.72865 0.40104 0.47414 0.0
H1229 H 0.7711 0.38974 0.47157 0.0
H1230 H 0.72981 0.40963 0.45026 0.0
H1231 H 0.77149 0.39836 0.4477 0.0
H1232 H 0.71933 0.35937 0.48465 0.0
H1233 H 0.721 0.3711 0.52721 0.0
H1234 H 0.69403 0.3579 0.48629 0.0
H1235 H 0.69567 0.36947 0.5281 0.0
H1236 H 0.75372 0.32563 0.46443 0.0
H1237 H 0.73251 0.35778 0.44251 0.0
H1238 H 0.71285 0.42345 0.5286 0.0
H1239 H 0.69277 0.4052 0.49337 0.0
Li1240 Li 0.63606 0.9892 0.75531 0.0
Li1241 Li 0.61886 0.00448 0.76544 0.0
Li1242 Li 0.61902 1.00023 0.73988 0.0
Li1243 Li 0.63633 0.01469 0.75132 0.0
C1244 C 0.61036 0.97423 0.75416 0.0
N1245 N 0.5992 0.94822 0.75205 0.0
C1246 C 0.60431 0.96805 0.76556 0.0
C1247 C 0.61051 0.96726 0.74162 0.0
C1248 C 0.59879 0.95487 0.76431 0.0
C1249 C 0.60487 0.95411 0.74078 0.0
C1250 C 0.64005 0.00527 0.78261 0.0
C1251 C 0.63797 0.01822 0.80358 0.0
N1252 N 0.64143 0.00687 0.81088 0.0
C1253 C 0.64367 0.99375 0.79031 0.0
C1254 C 0.63727 0.01763 0.78928 0.0
C1255 C 0.64429 0.99477 0.8046 0.0
C1256 C 0.66047 0.97415 0.75363 0.0
N1257 N 0.64731 0.97343 0.75805 0.0
C1258 C 0.65082 0.95058 0.76614 0.0
C1259 C 0.64243 0.962 0.76434 0.0
C1260 C 0.66444 0.95094 0.76155 0.0
C1261 C 0.66924 0.96298 0.75525 0.0
H1262 H 0.66415 0.98344 0.74883 0.0
H1263 H 0.63205 0.96174 0.76805 0.0
C1264 C 0.59854 0.01782 0.7812 0.0
N1265 N 0.60726 0.007 0.781 0.0
C1266 C 0.59005 0.01999 0.79249 0.0
C1267 C 0.59962 0.99981 0.80313 0.0
C1268 C 0.60786 0.99799 0.79161 0.0
C1269 C 0.59055 0.01094 0.80368 0.0
H1270 H 0.59817 0.02478 0.7726 0.0
H1271 H 0.61477 0.98939 0.79115 0.0
C1272 C 0.64443 0.99387 0.72629 0.0
N1273 N 0.65492 0.98233 0.70267 0.0
C1274 C 0.65133 0.00202 0.71676 0.0
C1275 C 0.64305 0.97981 0.72388 0.0
C1276 C 0.6565 0.99601 0.70486 0.0
C1277 C 0.64837 0.97418 0.71187 0.0
C1278 C 0.61541 0.03113 0.74655 0.0
C1279 C 0.61235 0.03479 0.73303 0.0
C1280 C 0.61793 0.04133 0.75632 0.0
C1281 C 0.61202 0.04865 0.72946 0.0
C1282 C 0.61753 0.05507 0.75234 0.0
N1283 N 0.61462 0.05842 0.73911 0.0
C1284 C 0.59431 0.99458 0.72616 0.0
C1285 C 0.61263 0.99963 0.71113 0.0
C1286 C 0.58538 0.99273 0.71506 0.0
N1287 N 0.60767 0.99788 0.72402 0.0
C1288 C 0.60409 0.99778 0.69973 0.0
C1289 C 0.59027 0.99428 0.70162 0.0
H1290 H 0.59061 0.99334 0.73653 0.0
H1291 H 0.62316 0.00261 0.70966 0.0
C1292 C 0.65598 0.03482 0.75918 0.0
N1293 N 0.64789 0.03032 0.74871 0.0
C1294 C 0.66438 0.04631 0.75745 0.0
C1295 C 0.65601 0.04828 0.73417 0.0
C1296 C 0.64781 0.03674 0.73634 0.0
C1297 C 0.66447 0.05322 0.7448 0.0
H1298 H 0.65599 0.02944 0.76886 0.0
H1299 H 0.64129 0.03295 0.72818 0.0
O1300 O 0.61576 0.98716 0.75523 0.0
O1301 O 0.63923 0.00443 0.76863 0.0
O1302 O 0.63931 0.99963 0.73799 0.0
O1303 O 0.61599 0.01761 0.75018 0.0
H1304 H 0.60394 0.97332 0.7753 0.0
H1305 H 0.61476 0.97198 0.73258 0.0
H1306 H 0.59417 0.94994 0.77308 0.0
H1307 H 0.60495 0.9486 0.73114 0.0
H1308 H 0.63574 0.02769 0.80888 0.0
H1309 H 0.6459 0.98412 0.78532 0.0
H1310 H 0.63446 0.02664 0.78347 0.0
H1311 H 0.64701 0.98592 0.81069 0.0
H1312 H 0.64662 0.94151 0.77096 0.0
H1313 H 0.67971 0.96386 0.75177 0.0
H1314 H 0.5833 0.02877 0.79252 0.0
H1315 H 0.60021 0.99248 0.81144 0.0
H1316 H 0.65265 0.01289 0.71851 0.0
H1317 H 0.6381 0.97326 0.73128 0.0
H1318 H 0.6618 0.00222 0.69737 0.0
H1319 H 0.64736 0.96331 0.70989 0.0
H1320 H 0.61035 0.02702 0.72534 0.0
H1321 H 0.62029 0.03867 0.76683 0.0
H1322 H 0.60974 0.05164 0.71902 0.0
H1323 H 0.61956 0.06308 0.75978 0.0
H1324 H 0.57482 0.98994 0.71697 0.0
H1325 H 0.60821 0.99931 0.68955 0.0
H1326 H 0.67087 0.04962 0.76587 0.0
H1327 H 0.65561 0.05336 0.72431 0.0
Li1328 Li 0.01443 0.25508 0.86999 0.0
Li1329 Li 0.99938 0.2655 0.88734 0.0
Li1330 Li 0.00359 0.23992 0.88728 0.0
Li1331 Li 0.98883 0.25096 0.87004 0.0
C1332 C 0.03006 0.25525 0.89467 0.0
N1333 N 0.057 0.25513 0.90349 0.0
C1334 C 0.03588 0.26704 0.90047 0.0
C1335 C 0.03789 0.24335 0.89357 0.0
C1336 C 0.04953 0.26679 0.90481 0.0
C1337 C 0.0515 0.24351 0.89803 0.0
C1338 C 0.99795 0.28213 0.86544 0.0
C1339 C 0.98441 0.30272 0.86632 0.0
N1340 N 0.99557 0.31018 0.86257 0.0
C1341 C 0.00926 0.28998 0.86148 0.0
C1342 C 0.9854 0.28852 0.86776 0.0
C1343 C 0.00785 0.30415 0.86012 0.0
C1344 C 0.02998 0.25176 0.84594 0.0
N1345 N 0.0301 0.25771 0.85856 0.0
C1346 C 0.05223 0.26737 0.85438 0.0
C1347 C 0.04086 0.26554 0.86282 0.0
C1348 C 0.0525 0.26123 0.84132 0.0
C1349 C 0.04112 0.25337 0.83713 0.0
H1350 H 0.02119 0.2458 0.84269 0.0
H1351 H 0.04059 0.2705 0.8727 0.0
C1352 C 0.9869 0.28094 0.90842 0.0
N1353 N 0.99697 0.2812 0.89886 0.0
C1354 C 0.98481 0.29222 0.91699 0.0
C1355 C 0.00353 0.30383 0.90576 0.0
C1356 C 0.00532 0.29228 0.89749 0.0
C1357 C 0.99316 0.30392 0.91571 0.0
H1358 H 0.98055 0.27192 0.90949 0.0
H1359 H 0.0134 0.29217 0.88995 0.0
C1360 C 0.00835 0.22512 0.8628 0.0
N1361 N 0.01723 0.19965 0.85428 0.0
C1362 C 0.99898 0.21548 0.85774 0.0
C1363 C 0.02227 0.22189 0.86328 0.0
C1364 C 0.00365 0.20263 0.85356 0.0
C1365 C 0.02655 0.20894 0.85899 0.0
C1366 C 0.97263 0.24731 0.8918 0.0
C1367 C 0.96837 0.2342 0.8957 0.0
C1368 C 0.96288 0.25747 0.88935 0.0
C1369 C 0.95439 0.23141 0.89686 0.0
C1370 C 0.94899 0.25428 0.8906 0.0
N1371 N 0.94507 0.24142 0.89429 0.0
C1372 C 0.01301 0.22575 0.9107 0.0
C1373 C 1.00102 0.21172 0.8948 0.0
C1374 C 0.0152 0.21454 0.91933 0.0
N1375 N 0.00618 0.22413 0.89861 0.0
C1376 C 0.00291 0.20025 0.90315 0.0
C1377 C 0.01014 0.20156 0.91559 0.0
H1378 H 0.01672 0.23577 0.91368 0.0
H1379 H 0.99527 0.21075 0.88536 0.0
C1380 C 0.97006 0.25814 0.84908 0.0
N1381 N 0.97311 0.24837 0.85853 0.0
C1382 C 0.95872 0.25658 0.84041 0.0
C1383 C 0.95384 0.2349 0.85133 0.0
C1384 C 0.96533 0.23685 0.85973 0.0
C1385 C 0.95043 0.24483 0.84148 0.0
H1386 H 0.97648 0.26714 0.84821 0.0
H1387 H 0.96807 0.22912 0.86716 0.0
O1388 O 0.01672 0.25535 0.89032 0.0
O1389 O 0.99917 0.26825 0.86694 0.0
O1390 O 0.00393 0.23776 0.86693 0.0
O1391 O 0.98628 0.25018 0.89045 0.0
H1392 H 0.02995 0.2763 0.90154 0.0
H1393 H 0.03347 0.23404 0.88948 0.0
H1394 H 0.05419 0.27586 0.90923 0.0
H1395 H 0.05768 0.23436 0.89721 0.0
H1396 H 0.97477 0.30781 0.86818 0.0
H1397 H 0.01902 0.2852 0.85955 0.0
H1398 H 0.97652 0.28258 0.8707 0.0
H1399 H 0.01653 0.31037 0.85714 0.0
H1400 H 0.06077 0.27344 0.85812 0.0
H1401 H 0.0407 0.24867 0.82707 0.0
H1402 H 0.97687 0.29167 0.92468 0.0
H1403 H 0.01014 0.31263 0.90426 0.0
H1404 H 0.98819 0.21785 0.85713 0.0
H1405 H 0.02972 0.22934 0.86676 0.0
H1406 H 0.99649 0.19504 0.84972 0.0
H1407 H 0.03729 0.20629 0.85935 0.0
H1408 H 0.97578 0.22624 0.89773 0.0
H1409 H 0.96601 0.26769 0.88646 0.0
H1410 H 0.95094 0.22129 0.8998 0.0
H1411 H 0.94134 0.26202 0.88865 0.0
H1412 H 0.02059 0.21609 0.92895 0.0
H1413 H 0.99885 0.19044 0.89984 0.0
H1414 H 0.95641 0.26454 0.83304 0.0
H1415 H 0.94786 0.2256 0.85237 0.0
Li1416 Li 0.51497 0.75539 0.36944 0.0
Li1417 Li 0.49989 0.76569 0.38681 0.0
Li1418 Li 0.50407 0.74015 0.38664 0.0
Li1419 Li 0.4894 0.75129 0.36944 0.0
C1420 C 0.53053 0.75505 0.39426 0.0
N1421 N 0.55736 0.75409 0.40337 0.0
C1422 C 0.53655 0.76655 0.40041 0.0
C1423 C 0.5381 0.743 0.39295 0.0
C1424 C 0.55015 0.76588 0.40489 0.0
C1425 C 0.55166 0.74273 0.39756 0.0
C1426 C 0.4988 0.78255 0.36529 0.0
C1427 C 0.48566 0.80338 0.36665 0.0
N1428 N 0.49701 0.81072 0.36327 0.0
C1429 C 0.51031 0.79028 0.36172 0.0
C1430 C 0.48634 0.78912 0.36767 0.0
C1431 C 0.5092 0.80452 0.36079 0.0
C1432 C 0.5302 0.75269 0.34516 0.0
N1433 N 0.53063 0.75809 0.35802 0.0
C1434 C 0.55298 0.76728 0.35396 0.0
C1435 C 0.54167 0.7654 0.36247 0.0
C1436 C 0.5529 0.76173 0.34065 0.0
C1437 C 0.54126 0.75436 0.33628 0.0
H1438 H 0.5212 0.7471 0.34178 0.0
H1439 H 0.54166 0.76993 0.37257 0.0
C1440 C 0.48694 0.78138 0.40744 0.0
N1441 N 0.49748 0.78134 0.39839 0.0
C1442 C 0.48486 0.79266 0.41602 0.0
C1443 C 0.50455 0.80365 0.40584 0.0
C1444 C 0.50629 0.79213 0.39752 0.0
C1445 C 0.49372 0.80402 0.41526 0.0
H1446 H 0.48016 0.77264 0.40805 0.0
H1447 H 0.51472 0.79177 0.39039 0.0
C1448 C 0.50908 0.72556 0.362 0.0
N1449 N 0.51832 0.70032 0.35315 0.0
C1450 C 0.49982 0.71578 0.35699 0.0
C1451 C 0.52306 0.72258 0.36225 0.0
C1452 C 0.50468 0.70305 0.35264 0.0
C1453 C 0.52753 0.70975 0.3578 0.0
C1454 C 0.47311 0.74742 0.39094 0.0
C1455 C 0.46888 0.73429 0.39482 0.0
C1456 C 0.46333 0.75748 0.3882 0.0
C1457 C 0.45489 0.73139 0.3957 0.0
C1458 C 0.44944 0.75417 0.38917 0.0
N1459 N 0.44554 0.7413 0.39286 0.0
C1460 C 0.51331 0.72585 0.41007 0.0
C1461 C 0.50151 0.71191 0.39397 0.0
C1462 C 0.51547 0.7146 0.41864 0.0
N1463 N 0.5066 0.7243 0.39791 0.0
C1464 C 0.50337 0.70038 0.40226 0.0
C1465 C 0.51049 0.70161 0.41477 0.0
H1466 H 0.51702 0.73586 0.41312 0.0
H1467 H 0.49578 0.711 0.38452 0.0
C1468 C 0.47033 0.75876 0.34881 0.0
N1469 N 0.47366 0.74876 0.35792 0.0
C1470 C 0.45886 0.75729 0.3403 0.0
C1471 C 0.45448 0.73523 0.35065 0.0
C1472 C 0.46607 0.7371 0.3589 0.0
C1473 C 0.45073 0.74541 0.34118 0.0
H1474 H 0.47658 0.76789 0.34814 0.0
H1475 H 0.46902 0.72923 0.3661 0.0
O1476 O 0.51724 0.75556 0.38977 0.0
O1477 O 0.49972 0.76861 0.36642 0.0
O1478 O 0.50447 0.73808 0.36628 0.0
O1479 O 0.48676 0.75039 0.38984 0.0
H1480 H 0.53082 0.77591 0.40166 0.0
H1481 H 0.53351 0.73388 0.38861 0.0
H1482 H 0.55495 0.77473 0.40958 0.0
H1483 H 0.55763 0.73347 0.39659 0.0
H1484 H 0.47611 0.8086 0.36855 0.0
H1485 H 0.52 0.78537 0.35978 0.0
H1486 H 0.47732 0.78328 0.37033 0.0
H1487 H 0.51805 0.81065 0.35811 0.0
H1488 H 0.56173 0.77295 0.35785 0.0
H1489 H 0.54059 0.75011 0.32603 0.0
H1490 H 0.47632 0.79255 0.42305 0.0
H1491 H 0.51174 0.81209 0.40506 0.0
H1492 H 0.48899 0.71795 0.35654 0.0
H1493 H 0.53043 0.73014 0.36567 0.0
H1494 H 0.49761 0.69536 0.34885 0.0
H1495 H 0.53832 0.70731 0.35799 0.0
H1496 H 0.4763 0.72641 0.39707 0.0
H1497 H 0.46642 0.7677 0.38528 0.0
H1498 H 0.45147 0.72126 0.39862 0.0
H1499 H 0.44176 0.76183 0.38699 0.0
H1500 H 0.5211 0.71606 0.42813 0.0
H1501 H 0.49906 0.69067 0.39898 0.0
H1502 H 0.45629 0.76544 0.33323 0.0
H1503 H 0.44863 0.72583 0.35154 0.0
Li1504 Li 0.00474 0.76466 0.61913 0.0
Li1505 Li 0.98943 0.75461 0.63642 0.0
Li1506 Li 0.01493 0.75064 0.63674 0.0
Li1507 Li 1.00049 0.73917 0.61951 0.0
C1508 C 0.00528 0.78197 0.63994 0.0
N1509 N 0.00638 0.81027 0.64047 0.0
C1510 C 0.99354 0.78954 0.64292 0.0
C1511 C 0.01762 0.78879 0.63738 0.0
C1512 C 0.9943 0.80384 0.64311 0.0
C1513 C 0.01795 0.8031 0.63764 0.0
C1514 C 0.97424 0.75302 0.61116 0.0
C1515 C 0.95393 0.73934 0.60742 0.0
N1516 N 0.94784 0.75018 0.60116 0.0
C1517 C 0.96784 0.76397 0.60452 0.0
C1518 C 0.96728 0.74056 0.61248 0.0
C1519 C 0.95446 0.76236 0.5996 0.0
C1520 C 0.01866 0.78102 0.59956 0.0
N1521 N 0.00727 0.78022 0.60746 0.0
C1522 C 0.99942 0.8018 0.59894 0.0
C1523 C 0.9977 0.7903 0.60728 0.0
C1524 C 0.01114 0.80298 0.59069 0.0
C1525 C 0.02084 0.79237 0.59111 0.0
H1526 H 0.02609 0.77285 0.59981 0.0
H1527 H 0.98872 0.78942 0.61365 0.0
C1528 C 0.97447 0.75314 0.66092 0.0
N1529 N 0.9737 0.75747 0.64769 0.0
C1530 C 0.9634 0.75492 0.66975 0.0
C1531 C 0.95098 0.76576 0.65125 0.0
C1532 C 0.96231 0.76381 0.64279 0.0
C1533 C 0.9514 0.76129 0.66495 0.0
H1534 H 0.98373 0.7483 0.66461 0.0
H1535 H 0.96202 0.76747 0.63237 0.0
C1536 C 0.03148 0.74613 0.61594 0.0
N1537 N 0.05891 0.7393 0.61543 0.0
C1538 C 0.03546 0.73282 0.61253 0.0
C1539 C 0.04146 0.75601 0.61894 0.0
C1540 C 0.04937 0.72956 0.61236 0.0
C1541 C 0.05527 0.75234 0.61868 0.0
C1542 C 0.99449 0.7252 0.64453 0.0
C1543 C 0.00314 0.71523 0.65007 0.0
C1544 C 0.98036 0.72283 0.64418 0.0
C1545 C 0.99756 0.70293 0.65482 0.0
C1546 C 0.97517 0.71041 0.64905 0.0
N1547 N 0.98381 0.70078 0.6542 0.0
C1548 C 0.03489 0.75881 0.65645 0.0
C1549 C 0.03727 0.73607 0.64833 0.0
C1550 C 0.04645 0.75737 0.66482 0.0
N1551 N 0.03058 0.74826 0.64839 0.0
C1552 C 0.04883 0.73414 0.65659 0.0
C1553 C 0.05361 0.74489 0.66499 0.0
H1554 H 0.02938 0.76839 0.65635 0.0
H1555 H 0.03368 0.72785 0.64179 0.0
C1556 C 0.99247 0.72481 0.59566 0.0
N1557 N 0.99817 0.72319 0.60831 0.0
C1558 C 0.99054 0.71353 0.58702 0.0
C1559 C 1.00078 0.69914 0.60438 0.0
C1560 C 0.00243 0.7107 0.61272 0.0
C1561 C 0.99471 0.70044 0.59133 0.0
H1562 H 0.98939 0.73489 0.59228 0.0
H1563 H 0.00735 0.70972 0.6226 0.0
O1564 O 0.00468 0.76797 0.63948 0.0
O1565 O 0.98734 0.75447 0.61606 0.0
O1566 O 0.01789 0.74945 0.61639 0.0
O1567 O 0.99981 0.73734 0.63989 0.0
H1568 H 0.98392 0.78444 0.64496 0.0
H1569 H 0.0268 0.78311 0.63507 0.0
H1570 H 0.98528 0.80982 0.64533 0.0
H1571 H 0.0274 0.80851 0.63557 0.0
H1572 H 0.94843 0.72975 0.6084 0.0
H1573 H 0.9731 0.77363 0.6032 0.0
H1574 H 0.97219 0.73183 0.61715 0.0
H1575 H 0.94937 0.77078 0.59453 0.0
H1576 H 0.99155 0.80958 0.59884 0.0
H1577 H 0.03012 0.79288 0.5851 0.0
H1578 H 0.96432 0.75153 0.68028 0.0
H1579 H 0.94195 0.77063 0.64704 0.0
H1580 H 0.02789 0.72506 0.61011 0.0
H1581 H 0.03857 0.76635 0.6216 0.0
H1582 H 0.05259 0.71928 0.60981 0.0
H1583 H 0.06309 0.75986 0.62109 0.0
H1584 H 0.01406 0.71692 0.65065 0.0
H1585 H 0.97343 0.73055 0.64039 0.0
H1586 H 0.00416 0.6951 0.65902 0.0
H1587 H 0.96426 0.70845 0.64879 0.0
H1588 H 0.04983 0.76601 0.67096 0.0
H1589 H 0.05386 0.72428 0.65649 0.0
H1590 H 0.9857 0.71506 0.57713 0.0
H1591 H 0.00445 0.68934 0.60803 0.0
Li1592 Li 0.50425 0.26497 0.11882 0.0
Li1593 Li 0.48904 0.25486 0.13621 0.0
Li1594 Li 0.51451 0.25091 0.13639 0.0
Li1595 Li 0.50002 0.2394 0.11926 0.0
C1596 C 0.50493 0.28221 0.13995 0.0
N1597 N 0.50613 0.31048 0.14125 0.0
C1598 C 0.49331 0.28972 0.14351 0.0
C1599 C 0.51719 0.28908 0.1372 0.0
C1600 C 0.49412 0.30401 0.14408 0.0
C1601 C 0.51758 0.30338 0.13785 0.0
C1602 C 0.47375 0.25388 0.11092 0.0
C1603 C 0.45301 0.24104 0.10658 0.0
N1604 N 0.44729 0.25234 0.10079 0.0
C1605 C 0.46773 0.26531 0.10474 0.0
C1606 C 0.46639 0.2416 0.1117 0.0
C1607 C 0.45432 0.26435 0.09976 0.0
C1608 C 0.51762 0.2807 0.09842 0.0
N1609 N 0.50676 0.28049 0.10709 0.0
C1610 C 0.49955 0.30251 0.09914 0.0
C1611 C 0.49774 0.29106 0.10754 0.0
C1612 C 0.51073 0.30307 0.09014 0.0
C1613 C 0.51983 0.29195 0.08986 0.0
H1614 H 0.52455 0.2721 0.09811 0.0
H1615 H 0.48917 0.29065 0.11449 0.0
C1616 C 0.47407 0.25309 0.1607 0.0
N1617 N 0.47335 0.25769 0.14756 0.0
C1618 C 0.46303 0.25484 0.16958 0.0
C1619 C 0.45073 0.26618 0.15131 0.0
C1620 C 0.46203 0.26425 0.1428 0.0
C1621 C 0.45112 0.26145 0.16493 0.0
H1622 H 0.48328 0.24808 0.16429 0.0
H1623 H 0.46177 0.26812 0.13245 0.0
C1624 C 0.53101 0.24659 0.11557 0.0
N1625 N 0.55853 0.24017 0.11507 0.0
C1626 C 0.53517 0.23325 0.11253 0.0
C1627 C 0.54085 0.25671 0.1182 0.0
C1628 C 0.54913 0.2302 0.11235 0.0
C1629 C 0.55471 0.25325 0.11796 0.0
C1630 C 0.49385 0.22549 0.1441 0.0
C1631 C 0.50222 0.21544 0.14992 0.0
C1632 C 0.47973 0.22325 0.14323 0.0
C1633 C 0.49637 0.20318 0.15445 0.0
C1634 C 0.47426 0.21086 0.14789 0.0
N1635 N 0.48262 0.20116 0.15333 0.0
C1636 C 0.53477 0.25908 0.1558 0.0
C1637 C 0.53662 0.23614 0.14808 0.0
C1638 C 0.54631 0.25752 0.16419 0.0
N1639 N 0.53021 0.24848 0.14794 0.0
C1640 C 0.54813 0.23409 0.15638 0.0
C1641 C 0.55312 0.24487 0.16459 0.0
H1642 H 0.52943 0.26875 0.15561 0.0
H1643 H 0.53285 0.2279 0.14166 0.0
C1644 C 0.49171 0.22483 0.09559 0.0
N1645 N 0.49766 0.22338 0.10815 0.0
C1646 C 0.48974 0.21346 0.08709 0.0
C1647 C 0.5005 0.19933 0.10436 0.0
C1648 C 0.50216 0.21097 0.11258 0.0
C1649 C 0.49415 0.20048 0.09144 0.0
H1650 H 0.48852 0.23486 0.09216 0.0
H1651 H 0.50721 0.21012 0.12241 0.0
O1652 O 0.50428 0.26823 0.13918 0.0
O1653 O 0.48689 0.25468 0.11585 0.0
O1654 O 0.51738 0.24972 0.11603 0.0
O1655 O 0.49944 0.23757 0.13963 0.0
H1656 H 0.48375 0.28459 0.14574 0.0
H1657 H 0.52628 0.28344 0.13445 0.0
H1658 H 0.48519 0.30995 0.14676 0.0
H1659 H 0.52698 0.30882 0.13564 0.0
H1660 H 0.44721 0.2316 0.10715 0.0
H1661 H 0.4733 0.27484 0.10386 0.0
H1662 H 0.47099 0.23253 0.116 0.0
H1663 H 0.44951 0.27314 0.09505 0.0
H1664 H 0.49236 0.31089 0.09983 0.0
H1665 H 0.52847 0.29185 0.08293 0.0
H1666 H 0.46393 0.25124 0.18005 0.0
H1667 H 0.44176 0.27124 0.14721 0.0
H1668 H 0.5277 0.22531 0.1104 0.0
H1669 H 0.53782 0.26709 0.12053 0.0
H1670 H 0.55249 0.2199 0.11009 0.0
H1671 H 0.56243 0.26095 0.12008 0.0
H1672 H 0.51313 0.21705 0.15089 0.0
H1673 H 0.47302 0.23103 0.13919 0.0
H1674 H 0.50275 0.19529 0.15887 0.0
H1675 H 0.46335 0.209 0.14723 0.0
H1676 H 0.54971 0.26604 0.17048 0.0
H1677 H 0.55317 0.22422 0.15624 0.0
H1678 H 0.48503 0.21485 0.07711 0.0
H1679 H 0.50404 0.18952 0.10812 0.0
H1680 H 0.23865 0.77572 0.83606 0.0
H1681 H 0.24207 0.79081 0.85586 0.0
H1682 H 0.22096 0.76182 0.88161 0.0
H1683 H 0.21714 0.74684 0.86179 0.0
H1684 H 0.21239 0.7889 0.8853 0.0
H1685 H 0.26904 0.78487 0.88774 0.0
H1686 H 0.2624 0.78988 0.87129 0.0
H1687 H 0.25854 0.77313 0.87791 0.0
C1688 C 0.23466 0.77258 0.84592 0.0
C1689 C 0.22766 0.76004 0.84734 0.0
C1690 C 0.23676 0.78115 0.85725 0.0
C1691 C 0.23195 0.77734 0.87024 0.0
C1692 C 0.22484 0.76491 0.87169 0.0
H1693 H 0.25288 0.81334 0.94919 0.0
H1694 H 0.24966 0.79822 0.92939 0.0
C1695 C 0.22275 0.75632 0.86037 0.0
C1696 C 0.23406 0.78643 0.88228 0.0
H1697 H 0.25877 0.80145 0.90223 0.0
C1698 C 0.22253 0.79163 0.88903 0.0
C1699 C 0.2473 0.78984 0.88721 0.0
C1700 C 0.26004 0.78406 0.88076 0.0
C1701 C 0.22387 0.80032 0.90046 0.0
C1702 C 0.2371 0.80404 0.90515 0.0
C1703 C 0.24864 0.79868 0.89854 0.0
C1704 C 0.23919 0.81334 0.91704 0.0
C1705 C 0.21111 0.80526 0.90756 0.0
C1706 C 0.23455 0.82692 0.91658 0.0
C1707 C 0.23644 0.83562 0.92785 0.0
C1708 C 0.24307 0.83092 0.93979 0.0
C1709 C 0.24787 0.81734 0.94012 0.0
C1710 C 0.24598 0.80866 0.92884 0.0
H1711 H 0.20204 0.79887 0.90487 0.0
H1712 H 0.21248 0.80518 0.91887 0.0
H1713 H 0.20896 0.81594 0.90434 0.0
H1714 H 0.22954 0.83083 0.90745 0.0
H1715 H 0.23284 0.84608 0.92714 0.0
H1716 H 0.02606 0.51446 0.42031 0.0
H1717 H 0.04131 0.51086 0.40073 0.0
H1718 H 0.01509 0.53583 0.37543 0.0
H1719 H 0.99975 0.53942 0.39491 0.0
H1720 H 0.02383 0.5085 0.36422 0.0
H1721 H 0.0664 0.5418 0.38301 0.0
H1722 H 0.05937 0.52965 0.39496 0.0
H1723 H 0.04903 0.5436 0.38902 0.0
C1724 C 0.02352 0.51912 0.41056 0.0
C1725 C 0.01173 0.52726 0.40916 0.0
C1726 C 0.03227 0.51713 0.39943 0.0
C1727 C 0.02936 0.52317 0.3867 0.0
C1728 C 0.01753 0.53115 0.38521 0.0
H1729 H 0.07737 0.53256 0.31286 0.0
H1730 H 0.06244 0.53566 0.33276 0.0
C1731 C 0.00883 0.53324 0.39636 0.0
C1732 C 0.03858 0.52108 0.37488 0.0
H1733 H 0.07015 0.5295 0.36248 0.0
C1734 C 0.03396 0.51306 0.36383 0.0
C1735 C 0.05173 0.52714 0.37441 0.0
C1736 C 0.05698 0.53612 0.38591 0.0
C1737 C 0.04226 0.51082 0.35232 0.0
C1738 C 0.05547 0.51677 0.3519 0.0
C1739 C 0.06003 0.5249 0.3629 0.0
C1740 C 0.06459 0.51484 0.33999 0.0
C1741 C 0.03684 0.50226 0.34058 0.0
C1742 C 0.07081 0.50214 0.33759 0.0
C1743 C 0.07937 0.50034 0.32628 0.0
C1744 C 0.0818 0.51122 0.31713 0.0
C1745 C 0.07558 0.52395 0.31963 0.0
C1746 C 0.06712 0.52576 0.33101 0.0
H1747 H 0.02572 0.50007 0.34159 0.0
H1748 H 0.03862 0.50755 0.33067 0.0
H1749 H 0.04239 0.49237 0.34029 0.0
H1750 H 0.06902 0.49362 0.34447 0.0
H1751 H 0.08393 0.49039 0.32456 0.0
H1752 H 0.76622 0.73079 0.83647 0.0
H1753 H 0.7625 0.71576 0.85627 0.0
H1754 H 0.78756 0.74236 0.88136 0.0
H1755 H 0.79128 0.75748 0.86165 0.0
H1756 H 0.78513 0.70306 0.87357 0.0
H1757 H 0.74949 0.73711 0.90197 0.0
H1758 H 0.75198 0.73843 0.88367 0.0
H1759 H 0.76484 0.74478 0.89526 0.0
C1760 C 0.77085 0.73349 0.84623 0.0
C1761 C 0.77902 0.74533 0.84752 0.0
C1762 C 0.76877 0.72487 0.85749 0.0
C1763 C 0.77468 0.72804 0.87026 0.0
C1764 C 0.78283 0.73982 0.8716 0.0
H1765 H 0.77097 0.69164 0.95132 0.0
H1766 H 0.77448 0.70657 0.93147 0.0
C1767 C 0.78502 0.74838 0.86032 0.0
C1768 C 0.7725 0.71888 0.88214 0.0
H1769 H 0.75647 0.71683 0.9131 0.0
C1770 C 0.77884 0.70601 0.88221 0.0
C1771 C 0.76437 0.72286 0.89339 0.0
C1772 C 0.75718 0.73651 0.89364 0.0
C1773 C 0.77743 0.69705 0.89338 0.0
C1774 C 0.76914 0.70094 0.90461 0.0
C1775 C 0.7628 0.71384 0.9045 0.0
C1776 C 0.76695 0.69183 0.9166 0.0
C1777 C 0.78515 0.68369 0.8932 0.0
C1778 C 0.76137 0.67865 0.91488 0.0
C1779 C 0.75943 0.67008 0.92619 0.0
C1780 C 0.76283 0.6746 0.93949 0.0
C1781 C 0.76816 0.6879 0.94122 0.0
C1782 C 0.77021 0.69642 0.92988 0.0
H1783 H 0.79398 0.68409 0.88607 0.0
H1784 H 0.789 0.68102 0.90359 0.0
H1785 H 0.7782 0.67538 0.88966 0.0
H1786 H 0.75841 0.67502 0.90479 0.0
H1787 H 0.75508 0.65998 0.92456 0.0
H1788 H 0.00567 0.99274 0.40005 0.0
H1789 H 0.99038 0.99621 0.38043 0.0
H1790 H 0.9634 0.96469 0.39557 0.0
H1791 H 0.9788 0.96085 0.41505 0.0
H1792 H 0.98161 0.97535 0.36052 0.0
H1793 H 0.93853 0.99913 0.38895 0.0
H1794 H 0.95573 0.99838 0.39582 0.0
H1795 H 0.94508 0.98336 0.39586 0.0
C1796 C 0.99656 0.98644 0.39917 0.0
C1797 C 0.99349 0.9765 0.40917 0.0
C1798 C 0.98779 0.98851 0.38799 0.0
C1799 C 0.97572 0.9808 0.38664 0.0
C1800 C 0.97258 0.97089 0.39656 0.0
H1801 H 0.92262 0.97003 0.31567 0.0
H1802 H 0.93771 0.9668 0.3355 0.0
C1803 C 0.98138 0.96875 0.40771 0.0
C1804 C 0.96657 0.98292 0.37467 0.0
H1805 H 0.93478 0.99423 0.36543 0.0
C1806 C 0.97137 0.97947 0.36157 0.0
C1807 C 0.95328 0.98841 0.3761 0.0
C1808 C 0.94782 0.99265 0.38991 0.0
C1809 C 0.96314 0.98121 0.34986 0.0
C1810 C 0.94976 0.98648 0.35132 0.0
C1811 C 0.94502 0.9901 0.36439 0.0
C1812 C 0.9406 0.98844 0.33933 0.0
C1813 C 0.96882 0.97756 0.33597 0.0
C1814 C 0.93713 0.00169 0.33504 0.0
C1815 C 0.92864 0.0036 0.32361 0.0
C1816 C 0.92333 0.99227 0.31633 0.0
C1817 C 0.92672 0.97899 0.32083 0.0
C1818 C 0.93528 0.97711 0.33221 0.0
H1819 H 0.98008 0.97601 0.33632 0.0
H1820 H 0.96396 0.96792 0.33231 0.0
H1821 H 0.96646 0.98571 0.32839 0.0
H1822 H 0.94116 0.01056 0.34042 0.0
H1823 H 0.92644 0.01396 0.32036 0.0
H1824 H 0.20624 0.2333 0.66102 0.0
H1825 H 0.21003 0.21847 0.64116 0.0
H1826 H 0.24792 0.23955 0.63279 0.0
H1827 H 0.24408 0.25469 0.6524 0.0
H1828 H 0.21441 0.22744 0.61264 0.0
H1829 H 0.25792 0.19777 0.63436 0.0
H1830 H 0.24617 0.20726 0.64498 0.0
H1831 H 0.25921 0.21613 0.63556 0.0
C1832 C 0.21533 0.23489 0.65491 0.0
C1833 C 0.22486 0.24521 0.65836 0.0
C1834 C 0.21751 0.22634 0.64361 0.0
C1835 C 0.22932 0.22783 0.63562 0.0
C1836 C 0.23885 0.2381 0.63898 0.0
H1837 H 0.26154 0.184 0.56521 0.0
H1838 H 0.25792 0.1994 0.58465 0.0
C1839 C 0.23665 0.24671 0.65023 0.0
C1840 C 0.23151 0.21884 0.62358 0.0
H1841 H 0.25209 0.19353 0.61119 0.0
C1842 C 0.22261 0.21999 0.61231 0.0
C1843 C 0.24228 0.20922 0.62319 0.0
C1844 C 0.25192 0.20738 0.63518 0.0
C1845 C 0.22432 0.21189 0.60052 0.0
C1846 C 0.23499 0.20212 0.60017 0.0
C1847 C 0.24391 0.20101 0.61146 0.0
C1848 C 0.23705 0.19289 0.58823 0.0
C1849 C 0.21486 0.21414 0.58844 0.0
C1850 C 0.22657 0.18399 0.58386 0.0
C1851 C 0.22854 0.17531 0.57263 0.0
C1852 C 0.24111 0.17519 0.56562 0.0
C1853 C 0.25166 0.18398 0.57018 0.0
C1854 C 0.24964 0.19272 0.58137 0.0
H1855 H 0.21012 0.22447 0.58874 0.0
H1856 H 0.22039 0.21299 0.57858 0.0
H1857 H 0.20649 0.20644 0.58872 0.0
H1858 H 0.21687 0.18371 0.58917 0.0
H1859 H 0.22013 0.16879 0.56936 0.0
H1860 H 0.50484 0.51187 0.60514 0.0
H1861 H 0.48947 0.5084 0.62458 0.0
H1862 H 0.46459 0.54218 0.61087 0.0
H1863 H 0.47995 0.54575 0.59144 0.0
H1864 H 0.47001 0.54341 0.63834 0.0
H1865 H 0.45141 0.49149 0.62423 0.0
H1866 H 0.46972 0.49272 0.62534 0.0
H1867 H 0.46067 0.50228 0.61243 0.0
C1868 C 0.49601 0.51846 0.60617 0.0
C1869 C 0.49359 0.52906 0.59671 0.0
C1870 C 0.48722 0.51644 0.61728 0.0
C1871 C 0.47575 0.52489 0.61906 0.0
C1872 C 0.47336 0.53552 0.60968 0.0
H1873 H 0.40774 0.50923 0.67429 0.0
H1874 H 0.42243 0.51281 0.65434 0.0
C1875 C 0.48217 0.53758 0.59861 0.0
C1876 C 0.46647 0.5229 0.63092 0.0
H1877 H 0.44575 0.49945 0.64658 0.0
C1878 C 0.46466 0.53381 0.64012 0.0
C1879 C 0.45935 0.51044 0.63312 0.0
C1880 C 0.46026 0.4986 0.62319 0.0
C1881 C 0.45611 0.53254 0.65159 0.0
C1882 C 0.4494 0.51991 0.65408 0.0
C1883 C 0.45102 0.50908 0.64474 0.0
C1884 C 0.44055 0.51777 0.66624 0.0
C1885 C 0.45416 0.54482 0.6608 0.0
C1886 C 0.4459 0.51919 0.67956 0.0
C1887 C 0.43753 0.51717 0.69098 0.0
C1888 C 0.42367 0.51352 0.68931 0.0
C1889 C 0.4184 0.51191 0.67594 0.0
C1890 C 0.42676 0.514 0.66453 0.0
H1891 H 0.4568 0.55453 0.65548 0.0
H1892 H 0.44344 0.54547 0.66445 0.0
H1893 H 0.46099 0.54387 0.66988 0.0
H1894 H 0.45659 0.52175 0.68113 0.0
H1895 H 0.44197 0.51824 0.70113 0.0
H1896 H 0.75942 0.25086 0.65043 0.0
H1897 H 0.75616 0.26607 0.63076 0.0
H1898 H 0.79105 0.29015 0.6436 0.0
H1899 H 0.79447 0.27493 0.66324 0.0
H1900 H 0.76816 0.30593 0.63643 0.0
H1901 H 0.78002 0.26748 0.59621 0.0
H1902 H 0.76695 0.26225 0.60803 0.0
H1903 H 0.78418 0.26488 0.61409 0.0
C1904 C 0.7665 0.2593 0.649 0.0
C1905 C 0.77726 0.26162 0.65838 0.0
C1906 C 0.76461 0.26799 0.63775 0.0
C1907 C 0.77348 0.27912 0.63562 0.0
C1908 C 0.7841 0.28159 0.64505 0.0
H1909 H 0.7824 0.32684 0.5611 0.0
H1910 H 0.78581 0.31221 0.58116 0.0
C1911 C 0.786 0.27292 0.6563 0.0
C1912 C 0.77159 0.28829 0.62363 0.0
H1913 H 0.77123 0.28881 0.5886 0.0
C1914 C 0.76885 0.3022 0.62597 0.0
C1915 C 0.77267 0.28343 0.61 0.0
C1916 C 0.77624 0.26873 0.60687 0.0
C1917 C 0.76696 0.31137 0.61502 0.0
C1918 C 0.76765 0.30642 0.60139 0.0
C1919 C 0.77059 0.29255 0.59906 0.0
C1920 C 0.76556 0.31552 0.58938 0.0
C1921 C 0.76447 0.3263 0.61814 0.0
C1922 C 0.753 0.32216 0.58728 0.0
C1923 C 0.75104 0.3306 0.57587 0.0
C1924 C 0.7616 0.33253 0.56628 0.0
C1925 C 0.77414 0.32577 0.56838 0.0
C1926 C 0.77607 0.31732 0.57979 0.0
H1927 H 0.76768 0.32901 0.62876 0.0
H1928 H 0.77007 0.33299 0.61085 0.0
H1929 H 0.75338 0.32848 0.61711 0.0
H1930 H 0.74467 0.32073 0.59443 0.0
H1931 H 0.7413 0.33573 0.57462 0.0
H1932 H 0.52377 0.96079 0.59192 0.0
H1933 H 0.53914 0.96455 0.61147 0.0
H1934 H 0.5119 0.99534 0.62725 0.0
H1935 H 0.49665 0.99201 0.60754 0.0
H1936 H 0.55137 0.9916 0.6202 0.0
H1937 H 0.51832 0.96666 0.65932 0.0
H1938 H 0.51661 0.96311 0.64119 0.0
H1939 H 0.51028 0.9789 0.6481 0.0
C1940 C 0.52109 0.96848 0.59944 0.0
C1941 C 0.50893 0.97608 0.59812 0.0
C1942 C 0.52985 0.97054 0.61066 0.0
C1943 C 0.52657 0.98012 0.62084 0.0
C1944 C 0.5145 0.98776 0.61958 0.0
H1945 H 0.56409 0.00368 0.69836 0.0
H1946 H 0.54889 1.00052 0.67855 0.0
C1947 C 0.50577 0.98579 0.60833 0.0
C1948 C 0.53586 0.98225 0.6327 0.0
H1949 H 0.53854 0.97739 0.66727 0.0
C1950 C 0.54862 0.98847 0.6305 0.0
C1951 C 0.53215 0.97823 0.6461 0.0
C1952 C 0.51864 0.97127 0.6489 0.0
C1953 C 0.55773 0.99099 0.64141 0.0
C1954 C 0.55412 0.9868 0.65483 0.0
C1955 C 0.54132 0.98058 0.657 0.0
C1956 C 0.56345 0.98876 0.66676 0.0
C1957 C 0.57098 0.99842 0.63851 0.0
C1958 C 0.57663 0.98305 0.66681 0.0
C1959 C 0.58535 0.9849 0.67809 0.0
C1960 C 0.58099 0.99232 0.68964 0.0
C1961 C 0.56771 0.99783 0.68966 0.0
C1962 C 0.55903 0.99607 0.67833 0.0
H1963 H 0.57035 0.00442 0.62884 0.0
H1964 H 0.57377 0.00549 0.64702 0.0
H1965 H 0.57931 0.99082 0.63734 0.0
H1966 H 0.58013 0.97704 0.65818 0.0
H1967 H 0.59544 0.98033 0.67786 0.0
H1968 H 0.83623 0.24177 0.77383 0.0
H1969 H 0.85596 0.24538 0.78899 0.0
H1970 H 0.87936 0.21653 0.76525 0.0
H1971 H 0.85969 0.21288 0.75002 0.0
H1972 H 0.88167 0.21222 0.79313 0.0
H1973 H 0.8908 0.26693 0.7806 0.0
H1974 H 0.87366 0.26327 0.78609 0.0
H1975 H 0.87984 0.25602 0.77034 0.0
C1976 C 0.84562 0.23631 0.77174 0.0
C1977 C 0.84639 0.22708 0.76067 0.0
C1978 C 0.85689 0.2384 0.78041 0.0
C1979 C 0.86919 0.23138 0.77813 0.0
C1980 C 0.86997 0.22208 0.76718 0.0
H1981 H 0.94873 0.24996 0.81393 0.0
H1982 H 0.92903 0.24649 0.79871 0.0
C1983 C 0.8587 0.21996 0.75852 0.0
C1984 C 0.88117 0.2335 0.78734 0.0
H1985 H 0.90342 0.25784 0.79937 0.0
C1986 C 0.88645 0.22219 0.79448 0.0
C1987 C 0.88751 0.24647 0.78894 0.0
C1988 C 0.88277 0.25885 0.781 0.0
C1989 C 0.89778 0.22352 0.80332 0.0
C1990 C 0.90384 0.23659 0.80526 0.0
C1991 C 0.89868 0.24786 0.79798 0.0
C1992 C 0.91572 0.23873 0.81461 0.0
C1993 C 0.90332 0.21088 0.81027 0.0
C1994 C 0.91473 0.23571 0.82864 0.0
C1995 C 0.92598 0.23767 0.83737 0.0
C1996 C 0.93841 0.24285 0.83225 0.0
C1997 C 0.93928 0.24608 0.81822 0.0
C1998 C 0.92805 0.24405 0.8095 0.0
H1999 H 0.9 0.20136 0.80492 0.0
H2000 H 0.91468 0.2111 0.8107 0.0
H2001 H 0.89942 0.21044 0.82093 0.0
H2002 H 0.90522 0.23192 0.83288 0.0
H2003 H 0.9249 0.23531 0.84816 0.0
H2004 H 0.45851 0.9137 0.48025 0.0
H2005 H 0.46213 0.89387 0.46533 0.0
H2006 H 0.49602 0.88115 0.49076 0.0
H2007 H 0.49249 0.90098 0.5057 0.0
H2008 H 0.50197 0.87979 0.46333 0.0
H2009 H 0.45228 0.85426 0.47377 0.0
H2010 H 0.45059 0.87156 0.4678 0.0
H2011 H 0.4587 0.86828 0.48406 0.0
C2012 C 0.46666 0.90661 0.48273 0.0
C2013 C 0.47517 0.90888 0.49421 0.0
C2014 C 0.4687 0.89527 0.47421 0.0
C2015 C 0.4792 0.8859 0.47706 0.0
C2016 C 0.48783 0.88823 0.48839 0.0
H2017 H 0.48726 0.80421 0.44256 0.0
H2018 H 0.48407 0.82412 0.45747 0.0
C2019 C 0.48583 0.8996 0.49689 0.0
C2020 C 0.48132 0.87375 0.46814 0.0
H2021 H 0.46557 0.84498 0.45566 0.0
C2022 C 0.49403 0.87215 0.46168 0.0
C2023 C 0.47101 0.8637 0.46615 0.0
C2024 C 0.45742 0.86443 0.47341 0.0
C2025 C 0.49665 0.86088 0.45312 0.0
C2026 C 0.48618 0.85108 0.45075 0.0
C2027 C 0.47354 0.85257 0.45737 0.0
C2028 C 0.48818 0.83907 0.44163 0.0
C2029 C 0.5107 0.85944 0.44692 0.0
C2030 C 0.49139 0.84085 0.42772 0.0
C2031 C 0.49323 0.82949 0.41917 0.0
C2032 C 0.49174 0.81611 0.42433 0.0
C2033 C 0.48835 0.81437 0.43823 0.0
C2034 C 0.48657 0.82573 0.44678 0.0
H2035 H 0.51848 0.86553 0.45264 0.0
H2036 H 0.51397 0.84855 0.44676 0.0
H2037 H 0.51044 0.86323 0.4362 0.0
H2038 H 0.49234 0.85104 0.42343 0.0
H2039 H 0.4956 0.83118 0.40847 0.0
H2040 H 0.14976 0.25984 0.75189 0.0
H2041 H 0.13012 0.25642 0.76709 0.0
H2042 H 0.13953 0.29441 0.78775 0.0
H2043 H 0.15913 0.29797 0.77255 0.0
H2044 H 0.131 0.25613 0.79784 0.0
H2045 H 0.098 0.2968 0.77544 0.0
H2046 H 0.11206 0.28926 0.76615 0.0
H2047 H 0.11538 0.30153 0.77949 0.0
C2048 C 0.14759 0.26751 0.75961 0.0
C2049 C 0.15597 0.27919 0.761 0.0
C2050 C 0.13642 0.26551 0.76831 0.0
C2051 C 0.13333 0.27523 0.77844 0.0
C2052 C 0.14169 0.28686 0.77991 0.0
H2053 H 0.0681 0.28439 0.83767 0.0
H2054 H 0.08797 0.28733 0.82285 0.0
C2055 C 0.15292 0.28882 0.77129 0.0
C2056 C 0.12145 0.27312 0.78758 0.0
H2057 H 0.08982 0.28565 0.79526 0.0
C2058 C 0.12196 0.26253 0.79728 0.0
C2059 C 0.10975 0.28156 0.78683 0.0
C2060 C 0.10863 0.29289 0.77637 0.0
C2061 C 0.11113 0.26029 0.80644 0.0
C2062 C 0.09933 0.26865 0.80562 0.0
C2063 C 0.09885 0.27924 0.79588 0.0
C2064 C 0.08739 0.26666 0.8148 0.0
C2065 C 0.11261 0.24924 0.81716 0.0
C2066 C 0.08034 0.2541 0.81512 0.0
C2067 C 0.06908 0.25232 0.82374 0.0
C2068 C 0.0645 0.26312 0.83211 0.0
C2069 C 0.07147 0.27576 0.83159 0.0
C2070 C 0.08278 0.2775 0.82302 0.0
H2071 H 0.12353 0.24662 0.819 0.0
H2072 H 0.10799 0.25243 0.82704 0.0
H2073 H 0.10729 0.23983 0.81355 0.0
H2074 H 0.0835 0.24568 0.80863 0.0
H2075 H 0.06405 0.24241 0.82394 0.0
H2076 H 0.50967 0.60357 0.50324 0.0
H2077 H 0.50626 0.62307 0.48782 0.0
H2078 H 0.54377 0.61326 0.46693 0.0
H2079 H 0.54738 0.59387 0.48245 0.0
H2080 H 0.54069 0.64162 0.4744 0.0
H2081 H 0.4953 0.62093 0.44656 0.0
H2082 H 0.49415 0.62068 0.46496 0.0
H2083 H 0.50665 0.61023 0.45652 0.0
C2084 C 0.51722 0.6056 0.4954 0.0
C2085 C 0.52878 0.59715 0.49405 0.0
C2086 C 0.5152 0.61666 0.48653 0.0
C2087 C 0.52468 0.61949 0.47614 0.0
C2088 C 0.53629 0.61118 0.47483 0.0
H2089 H 0.51631 0.6752 0.40709 0.0
H2090 H 0.51984 0.65531 0.42193 0.0
C2091 C 0.53829 0.60006 0.48365 0.0
C2092 C 0.52265 0.63131 0.46683 0.0
H2093 H 0.50137 0.64405 0.44207 0.0
C2094 C 0.53212 0.64216 0.46731 0.0
C2095 C 0.51153 0.63189 0.4575 0.0
C2096 C 0.50136 0.62028 0.45622 0.0
C2097 C 0.53062 0.65371 0.45886 0.0
C2098 C 0.5193 0.65445 0.44979 0.0
C2099 C 0.50997 0.64349 0.44913 0.0
C2100 C 0.51701 0.66651 0.44085 0.0
C2101 C 0.54122 0.66497 0.45959 0.0
C2102 C 0.51405 0.67934 0.44659 0.0
C2103 C 0.5119 0.69071 0.43814 0.0
C2104 C 0.51264 0.68946 0.42377 0.0
C2105 C 0.51549 0.67652 0.41808 0.0
C2106 C 0.51759 0.66515 0.42654 0.0
H2107 H 0.55077 0.66151 0.46474 0.0
H2108 H 0.54379 0.66873 0.44917 0.0
H2109 H 0.53705 0.67371 0.46553 0.0
H2110 H 0.51331 0.68054 0.4576 0.0
H2111 H 0.50946 0.70043 0.44288 0.0
H2112 H 0.8439 0.79701 0.73239 0.0
H2113 H 0.86343 0.7933 0.71718 0.0
H2114 H 0.87394 0.75672 0.73957 0.0
H2115 H 0.85431 0.76022 0.75469 0.0
H2116 H 0.89195 0.79089 0.72536 0.0
H2117 H 0.87226 0.7444 0.69864 0.0
H2118 H 0.86125 0.7559 0.70799 0.0
H2119 H 0.87182 0.74391 0.71707 0.0
C2120 C 0.85028 0.78809 0.73399 0.0
C2121 C 0.84753 0.77888 0.74472 0.0
C2122 C 0.86147 0.78604 0.72534 0.0
C2123 C 0.87002 0.77466 0.72717 0.0
C2124 C 0.86735 0.76547 0.73788 0.0
H2125 H 0.94142 0.74375 0.68451 0.0
H2126 H 0.92207 0.74733 0.69989 0.0
C2127 C 0.85621 0.76755 0.74658 0.0
C2128 C 0.88193 0.7726 0.71805 0.0
H2129 H 0.89504 0.75107 0.69385 0.0
C2130 C 0.89263 0.78222 0.71842 0.0
C2131 C 0.88279 0.76123 0.70909 0.0
C2132 C 0.87139 0.7508 0.70804 0.0
C2133 C 0.9043 0.78067 0.71021 0.0
C2134 C 0.90512 0.76937 0.70114 0.0
C2135 C 0.8944 0.75973 0.7008 0.0
C2136 C 0.91698 0.76735 0.69189 0.0
C2137 C 0.91578 0.79099 0.7116 0.0
C2138 C 0.92048 0.77735 0.68216 0.0
C2139 C 0.93165 0.77541 0.67347 0.0
C2140 C 0.93947 0.76335 0.67419 0.0
C2141 C 0.9358 0.75326 0.68382 0.0
C2142 C 0.92466 0.75524 0.69255 0.0
H2143 H 0.91535 0.79652 0.72155 0.0
H2144 H 0.92593 0.78598 0.71073 0.0
H2145 H 0.91487 0.79869 0.70329 0.0
H2146 H 0.91452 0.78664 0.68125 0.0
H2147 H 0.93422 0.78345 0.66628 0.0
H2148 H 0.04048 0.89338 0.49912 0.0
H2149 H 0.03674 0.87377 0.51428 0.0
H2150 H 0.01254 0.89908 0.54109 0.0
H2151 H 0.0161 0.91868 0.52588 0.0
H2152 H 0.04375 0.87024 0.54095 0.0
H2153 H 0.98731 0.8667 0.53533 0.0
H2154 H 0.99772 0.87712 0.52418 0.0
H2155 H 0.99313 0.88325 0.54095 0.0
C2156 C 0.03438 0.89476 0.50826 0.0
C2157 C 0.02853 0.90756 0.51127 0.0
C2158 C 0.03221 0.88354 0.51689 0.0
C2159 C 0.02416 0.88488 0.52871 0.0
C2160 C 0.01847 0.89769 0.53184 0.0
H2161 H 0.00488 0.82987 0.59609 0.0
H2162 H 0.00807 0.84972 0.58111 0.0
C2163 C 0.02055 0.9089 0.52316 0.0
C2164 C 0.02207 0.87294 0.53791 0.0
H2165 H 0.99746 0.85287 0.55266 0.0
C2166 C 0.03363 0.8664 0.54345 0.0
C2167 C 0.00885 0.86793 0.54117 0.0
C2168 C 0.99604 0.87402 0.535 0.0
C2169 C 0.03233 0.85512 0.55228 0.0
C2170 C 0.01913 0.8502 0.55559 0.0
C2171 C 0.00756 0.85673 0.55012 0.0
C2172 C 0.01714 0.83814 0.56458 0.0
C2173 C 0.04506 0.84864 0.55817 0.0
C2174 C 0.02103 0.82506 0.56015 0.0
C2175 C 0.01907 0.81366 0.5686 0.0
C2176 C 0.01319 0.81513 0.58168 0.0
C2177 C 0.00926 0.8283 0.58603 0.0
C2178 C 0.01115 0.83968 0.57753 0.0
H2179 H 0.05424 0.85526 0.55683 0.0
H2180 H 0.04374 0.84648 0.56927 0.0
H2181 H 0.04695 0.83875 0.55288 0.0
H2182 H 0.02548 0.82365 0.55009 0.0
H2183 H 0.02198 0.80367 0.56478 0.0
H2184 H 0.16489 0.71187 0.72879 0.0
H2185 H 0.14526 0.71576 0.71358 0.0
H2186 H 0.13056 0.74715 0.74094 0.0
H2187 H 0.15027 0.74345 0.75606 0.0
H2188 H 0.11826 0.71294 0.71841 0.0
H2189 H 0.12934 0.76695 0.70473 0.0
H2190 H 0.1417 0.7562 0.71329 0.0
H2191 H 0.12825 0.76427 0.72289 0.0
C2192 C 0.15747 0.71961 0.73155 0.0
C2193 C 0.15917 0.72741 0.74359 0.0
C2194 C 0.14629 0.72185 0.72284 0.0
C2195 C 0.13656 0.73192 0.72598 0.0
C2196 C 0.13813 0.7396 0.73809 0.0
H2197 H 0.05805 0.75483 0.69103 0.0
H2198 H 0.07827 0.7517 0.70559 0.0
C2199 C 0.14937 0.73744 0.74675 0.0
C2200 C 0.12455 0.73405 0.71682 0.0
H2201 H 0.10739 0.75829 0.69826 0.0
C2202 C 0.11594 0.72283 0.71394 0.0
C2203 C 0.12153 0.74698 0.71096 0.0
C2204 C 0.13076 0.75925 0.713 0.0
C2205 C 0.10429 0.72424 0.70556 0.0
C2206 C 0.10121 0.73718 0.69987 0.0
C2207 C 0.10978 0.7484 0.70271 0.0
C2208 C 0.08911 0.73924 0.6909 0.0
C2209 C 0.09521 0.71195 0.70302 0.0
C2210 C 0.08862 0.73341 0.67775 0.0
C2211 C 0.07716 0.73531 0.66932 0.0
C2212 C 0.06593 0.74305 0.67389 0.0
C2213 C 0.06655 0.74896 0.68707 0.0
C2214 C 0.07806 0.74712 0.69546 0.0
H2215 H 0.09761 0.70336 0.71009 0.0
H2216 H 0.08427 0.71474 0.70421 0.0
H2217 H 0.09666 0.7083 0.69233 0.0
H2218 H 0.09716 0.72745 0.67399 0.0
H2219 H 0.07719 0.73083 0.65915 0.0
H2220 H 0.95811 0.59278 0.52304 0.0
H2221 H 0.96164 0.61246 0.5383 0.0
H2222 H 0.99933 0.62213 0.51756 0.0
H2223 H 0.99597 0.60237 0.50235 0.0
H2224 H 1.0005 0.62194 0.54765 0.0
H2225 H 0.95821 0.65363 0.52639 0.0
H2226 H 0.95382 0.63631 0.53094 0.0
H2227 H 0.9655 0.6394 0.51712 0.0
C2228 C 0.96719 0.59905 0.52178 0.0
C2229 C 0.97674 0.59604 0.51146 0.0
C2230 C 0.96913 0.61034 0.53043 0.0
C2231 C 0.98067 0.61881 0.52895 0.0
C2232 C 0.99032 0.61575 0.5188 0.0
H2233 H 0.99768 0.69906 0.56336 0.0
H2234 H 0.99431 0.67916 0.54845 0.0
C2235 C 0.98834 0.60451 0.51008 0.0
C2236 C 0.98273 0.63081 0.53805 0.0
H2237 H 0.96965 0.66221 0.54608 0.0
C2238 C 0.99377 0.63075 0.54733 0.0
C2239 C 0.97399 0.64232 0.53749 0.0
C2240 C 0.96226 0.64305 0.52739 0.0
C2241 C 0.99619 0.64186 0.5562 0.0
C2242 C 0.98731 0.65326 0.55581 0.0
C2243 C 0.97638 0.6534 0.54641 0.0
C2244 C 0.98931 0.66526 0.56494 0.0
C2245 C 0.00833 0.64143 0.56582 0.0
C2246 C 0.98747 0.66404 0.57915 0.0
C2247 C 0.98922 0.67544 0.58771 0.0
C2248 C 0.99286 0.68828 0.58222 0.0
C2249 C 0.99467 0.68941 0.56795 0.0
C2250 C 0.99284 0.67803 0.5594 0.0
H2251 H 0.01567 0.63324 0.56298 0.0
H2252 H 0.01381 0.65143 0.56587 0.0
H2253 H 0.00471 0.63943 0.5764 0.0
H2254 H 0.98453 0.65431 0.58359 0.0
H2255 H 0.9875 0.67422 0.5986 0.0
H2256 H 0.74724 0.86219 0.21526 0.0
H2257 H 0.76267 0.88169 0.21894 0.0
H2258 H 0.78989 0.85601 0.24241 0.0
H2259 H 0.77436 0.83652 0.23907 0.0
H2260 H 0.78444 0.88156 0.25478 0.0
H2261 H 0.8001 0.88738 0.20042 0.0
H2262 H 0.78191 0.88727 0.20309 0.0
H2263 H 0.7917 0.87216 0.20677 0.0
C2264 C 0.75647 0.86071 0.22128 0.0
C2265 C 0.75959 0.84778 0.22683 0.0
C2266 C 0.76533 0.87183 0.22325 0.0
C2267 C 0.77751 0.87024 0.23078 0.0
C2268 C 0.78058 0.85742 0.23649 0.0
H2269 H 0.84647 0.92681 0.23397 0.0
H2270 H 0.83138 0.90696 0.23082 0.0
C2271 C 0.77174 0.84628 0.23449 0.0
C2272 C 0.78696 0.882 0.23287 0.0
H2273 H 0.80717 0.90491 0.21583 0.0
C2274 C 0.78944 0.88666 0.24628 0.0
C2275 C 0.7936 0.88851 0.22176 0.0
C2276 C 0.79182 0.88353 0.2072 0.0
C2277 C 0.79822 0.89781 0.24888 0.0
C2278 C 0.80453 0.90459 0.23774 0.0
C2279 C 0.80223 0.89977 0.22434 0.0
C2280 C 0.81364 0.91664 0.23976 0.0
C2281 C 0.80082 0.9021 0.26354 0.0
C2282 C 0.80863 0.92872 0.24569 0.0
C2283 C 0.81721 0.9401 0.24747 0.0
C2284 C 0.83096 0.93964 0.24326 0.0
C2285 C 0.8359 0.92755 0.2372 0.0
C2286 C 0.82731 0.91617 0.23545 0.0
H2287 H 0.79819 0.8938 0.27088 0.0
H2288 H 0.8117 0.90505 0.26514 0.0
H2289 H 0.79437 0.91111 0.26598 0.0
H2290 H 0.79802 0.92942 0.24879 0.0
H2291 H 0.81301 0.94933 0.25193 0.0
H2292 H 0.77312 0.16175 0.29639 0.0
H2293 H 0.78835 0.14216 0.29289 0.0
H2294 H 0.76829 0.13332 0.25437 0.0
H2295 H 0.7531 0.15296 0.25772 0.0
H2296 H 0.77941 0.11353 0.28824 0.0
H2297 H 0.81038 0.13507 0.24561 0.0
H2298 H 0.80066 0.14573 0.25715 0.0
H2299 H 0.79208 0.13628 0.24381 0.0
C2300 C 0.77205 0.15572 0.28711 0.0
C2301 C 0.76193 0.15892 0.27731 0.0
C2302 C 0.78071 0.14451 0.28516 0.0
C2303 C 0.77951 0.1364 0.27332 0.0
C2304 C 0.76946 0.13956 0.26351 0.0
H2305 H 0.82335 0.06576 0.2421 0.0
H2306 H 0.80817 0.08534 0.2454 0.0
C2307 C 0.76073 0.15071 0.26549 0.0
C2308 C 0.78855 0.1244 0.27141 0.0
H2309 H 0.81432 0.11193 0.25149 0.0
C2310 C 0.78709 0.11317 0.28024 0.0
C2311 C 0.79846 0.12397 0.26091 0.0
C2312 C 0.80063 0.13592 0.25135 0.0
C2313 C 0.79515 0.10139 0.27874 0.0
C2314 C 0.8052 0.10099 0.26832 0.0
C2315 C 0.80663 0.11225 0.25947 0.0
C2316 C 0.81434 0.08901 0.26644 0.0
C2317 C 0.79258 0.08935 0.28809 0.0
C2318 C 0.82298 0.08465 0.27711 0.0
C2319 C 0.83155 0.07335 0.27532 0.0
C2320 C 0.83179 0.06626 0.26274 0.0
C2321 C 0.82327 0.07081 0.25199 0.0
C2322 C 0.81466 0.08207 0.25383 0.0
H2323 H 0.78218 0.08972 0.29263 0.0
H2324 H 0.79372 0.07949 0.28252 0.0
H2325 H 0.80012 0.08958 0.29664 0.0
H2326 H 0.82314 0.09002 0.28684 0.0
H2327 H 0.83786 0.07009 0.28386 0.0
H2328 H 0.41053 0.98265 0.95686 0.0
H2329 H 0.39048 0.96799 0.96021 0.0
H2330 H 0.38276 0.98768 0.99902 0.0
H2331 H 0.40236 0.00284 0.99546 0.0
H2332 H 0.38505 0.94952 0.98026 0.0
H2333 H 0.3457 0.99032 0.98074 0.0
H2334 H 0.36304 0.99341 0.97524 0.0
H2335 H 0.35901 0.99296 0.99322 0.0
C2336 C 0.40445 0.98404 0.96601 0.0
C2337 C 0.40804 0.99403 0.97584 0.0
C2338 C 0.39305 0.97556 0.96796 0.0
C2339 C 0.38497 0.97689 0.97975 0.0
C2340 C 0.38865 0.98667 0.98969 0.0
H2341 H 0.3151 0.93252 0.01231 0.0
H2342 H 0.33522 0.94719 0.0089 0.0
C2343 C 0.4 0.99521 0.98772 0.0
C2344 C 0.37289 0.96782 0.98178 0.0
H2345 H 0.33839 0.96803 0.98744 0.0
C2346 C 0.37484 0.95357 0.98175 0.0
C2347 C 0.35956 0.97311 0.9837 0.0
C2348 C 0.35664 0.98828 0.9831 0.0
C2349 C 0.36386 0.94448 0.98383 0.0
C2350 C 0.35058 0.94979 0.98589 0.0
C2351 C 0.34861 0.96402 0.98592 0.0
C2352 C 0.33857 0.94072 0.98796 0.0
C2353 C 0.36655 0.92927 0.98405 0.0
C2354 C 0.33376 0.93232 0.97727 0.0
C2355 C 0.32227 0.92395 0.97918 0.0
C2356 C 0.3154 0.92382 0.99183 0.0
C2357 C 0.32027 0.93226 0.00251 0.0
C2358 C 0.3317 0.9407 1.00056 0.0
H2359 H 0.37764 0.92696 0.98511 0.0
H2360 H 0.36097 0.92431 0.99262 0.0
H2361 H 0.36281 0.92465 0.97431 0.0
H2362 H 0.33883 0.93232 0.96742 0.0
H2363 H 0.31884 0.91749 0.97079 0.0
H2364 H 0.2555 0.3554 0.26112 0.0
H2365 H 0.24038 0.37506 0.25787 0.0
H2366 H 0.21513 0.36115 0.29125 0.0
H2367 H 0.23029 0.34154 0.29472 0.0
H2368 H 0.20027 0.36887 0.26748 0.0
H2369 H 0.23786 0.40882 0.28326 0.0
H2370 H 0.24373 0.39736 0.27012 0.0
H2371 H 0.24025 0.39086 0.28698 0.0
C2372 C 0.24682 0.35659 0.26788 0.0
C2373 C 0.24416 0.34691 0.27823 0.0
C2374 C 0.23818 0.36783 0.26599 0.0
C2375 C 0.22674 0.36965 0.27443 0.0
C2376 C 0.22393 0.35994 0.28464 0.0
H2377 H 0.17772 0.44292 0.28439 0.0
H2378 H 0.19246 0.42294 0.28755 0.0
C2379 C 0.23257 0.3487 0.28655 0.0
C2380 C 0.21761 0.38162 0.27254 0.0
H2381 H 0.21686 0.41659 0.27382 0.0
C2382 C 0.20388 0.37931 0.26888 0.0
C2383 C 0.22232 0.39521 0.27453 0.0
C2384 C 0.23681 0.39827 0.27906 0.0
C2385 C 0.19476 0.39025 0.26695 0.0
C2386 C 0.19956 0.40385 0.2686 0.0
C2387 C 0.21325 0.40615 0.27245 0.0
C2388 C 0.19049 0.41585 0.2666 0.0
C2389 C 0.18001 0.38715 0.26341 0.0
C2390 C 0.18459 0.41855 0.25373 0.0
C2391 C 0.1761 0.42993 0.2519 0.0
C2392 C 0.17338 0.43885 0.2629 0.0
C2393 C 0.17942 0.43615 0.27575 0.0
C2394 C 0.18792 0.42479 0.27756 0.0
H2395 H 0.17724 0.37636 0.26578 0.0
H2396 H 0.17301 0.39405 0.26908 0.0
H2397 H 0.17836 0.38882 0.25227 0.0
H2398 H 0.18661 0.4119 0.24508 0.0
H2399 H 0.17155 0.43165 0.2419 0.0
H2400 H 0.10592 0.99934 0.49357 0.0
H2401 H 0.12524 0.01503 0.49693 0.0
H2402 H 0.11139 0.03937 0.46272 0.0
H2403 H 0.09206 0.0237 0.45926 0.0
H2404 H 0.13891 0.03436 0.4618 0.0
H2405 H 0.12445 0.05334 0.51335 0.0
H2406 H 0.12569 0.03502 0.51236 0.0
H2407 H 0.11278 0.04378 0.50254 0.0
C2408 C 0.1069 0.00812 0.48685 0.0
C2409 C 0.09741 0.0103 0.47617 0.0
C2410 C 0.11794 0.01709 0.4888 0.0
C2411 C 0.11964 0.0285 0.48022 0.0
C2412 C 0.11026 0.03065 0.46949 0.0
H2413 H 0.17408 0.09778 0.49541 0.0
H2414 H 0.15429 0.08268 0.49186 0.0
C2415 C 0.09925 0.02165 0.46749 0.0
C2416 C 0.13138 0.03803 0.48219 0.0
H2417 H 0.1467 0.05937 0.50551 0.0
C2418 C 0.14059 0.03987 0.47134 0.0
C2419 C 0.13345 0.04536 0.49458 0.0
C2420 C 0.1235 0.04441 0.50633 0.0
C2421 C 0.15194 0.04867 0.4726 0.0
C2422 C 0.1543 0.0556 0.48516 0.0
C2423 C 0.14496 0.05394 0.49593 0.0
C2424 C 0.16634 0.0647 0.48731 0.0
C2425 C 0.16117 0.05062 0.46038 0.0
C2426 C 0.17969 0.05956 0.48611 0.0
C2427 C 0.191 0.06816 0.48812 0.0
C2428 C 0.1892 0.08205 0.49152 0.0
C2429 C 0.17582 0.08711 0.49291 0.0
C2430 C 0.1645 0.07851 0.49084 0.0
H2431 H 0.15593 0.04776 0.45064 0.0
H2432 H 0.16472 0.06142 0.45961 0.0
H2433 H 0.17029 0.04397 0.46153 0.0
H2434 H 0.18136 0.04885 0.48375 0.0
H2435 H 0.20117 0.06388 0.48723 0.0
H2436 H 0.75436 0.15055 0.74434 0.0
H2437 H 0.73933 0.13074 0.74769 0.0
H2438 H 0.71509 0.1429 0.71272 0.0
H2439 H 0.73012 0.1627 0.70923 0.0
H2440 H 0.6994 0.13575 0.73548 0.0
H2441 H 0.73818 0.09594 0.72412 0.0
H2442 H 0.74328 0.10792 0.73721 0.0
H2443 H 0.74069 0.11378 0.71992 0.0
C2444 C 0.74592 0.14894 0.73727 0.0
C2445 C 0.74349 0.15818 0.72647 0.0
C2446 C 0.73733 0.13761 0.7392 0.0
C2447 C 0.72621 0.13524 0.73033 0.0
C2448 C 0.72364 0.14453 0.71966 0.0
H2449 H 0.6794 0.05985 0.72202 0.0
H2450 H 0.69388 0.08001 0.71847 0.0
C2451 C 0.7322 0.15587 0.71772 0.0
C2452 C 0.71715 0.12316 0.73227 0.0
H2453 H 0.71695 0.08817 0.73302 0.0
C2454 C 0.70321 0.12534 0.73491 0.0
C2455 C 0.72213 0.1096 0.73136 0.0
C2456 C 0.73686 0.10661 0.72787 0.0
C2457 C 0.69415 0.11431 0.73687 0.0
C2458 C 0.69921 0.10076 0.73637 0.0
C2459 C 0.71311 0.09858 0.73352 0.0
C2460 C 0.69023 0.08866 0.73856 0.0
C2461 C 0.67919 0.11727 0.73922 0.0
C2462 C 0.68346 0.08677 0.75108 0.0
C2463 C 0.67509 0.07529 0.75311 0.0
C2464 C 0.67338 0.06544 0.74268 0.0
C2465 C 0.6803 0.06733 0.73019 0.0
C2466 C 0.68866 0.0788 0.72818 0.0
H2467 H 0.67639 0.12775 0.73579 0.0
H2468 H 0.67259 0.10974 0.73372 0.0
H2469 H 0.67698 0.1165 0.75034 0.0
H2470 H 0.68472 0.09412 0.75933 0.0
H2471 H 0.66984 0.07422 0.76281 0.0
H2472 H 0.40942 0.0226 0.5484 0.0
H2473 H 0.38977 0.03767 0.54488 0.0
H2474 H 0.3809 0.01761 0.50641 0.0
H2475 H 0.40035 0.00228 0.50995 0.0
H2476 H 0.3809 0.04714 0.50552 0.0
H2477 H 0.34876 0.02626 0.54754 0.0
H2478 H 0.36591 0.03105 0.55238 0.0
H2479 H 0.36321 0.0171 0.54062 0.0
C2480 C 0.4032 0.02126 0.53927 0.0
C2481 C 0.40645 0.01116 0.52949 0.0
C2482 C 0.39199 0.02991 0.53726 0.0
C2483 C 0.38381 0.02865 0.52546 0.0
C2484 C 0.38709 0.01873 0.5156 0.0
H2485 H 0.30382 0.06354 0.50918 0.0
H2486 H 0.32348 0.04846 0.51257 0.0
C2487 C 0.39827 0.01003 0.51761 0.0
C2488 C 0.3719 0.03778 0.52331 0.0
H2489 H 0.34062 0.04617 0.53632 0.0
C2490 C 0.37208 0.04694 0.51223 0.0
C2491 C 0.36036 0.03737 0.53202 0.0
C2492 C 0.35942 0.02735 0.54375 0.0
C2493 C 0.3611 0.05586 0.50973 0.0
C2494 C 0.3497 0.05566 0.51863 0.0
C2495 C 0.34943 0.04636 0.52959 0.0
C2496 C 0.33785 0.0649 0.51661 0.0
C2497 C 0.36167 0.06528 0.49749 0.0
C2498 C 0.3394 0.07914 0.51792 0.0
C2499 C 0.32816 0.08781 0.51611 0.0
C2500 C 0.31513 0.08238 0.51298 0.0
C2501 C 0.31364 0.06808 0.51176 0.0
C2502 C 0.32488 0.05943 0.51361 0.0
H2503 H 0.36958 0.06204 0.49002 0.0
H2504 H 0.35159 0.06565 0.49217 0.0
H2505 H 0.36423 0.07581 0.50101 0.0
H2506 H 0.34928 0.08355 0.52048 0.0
H2507 H 0.32964 0.09874 0.51737 0.0
H2508 H 0.59239 0.4816 0.54654 0.0
H2509 H 0.61209 0.46659 0.54306 0.0
H2510 H 0.62503 0.49151 0.50897 0.0
H2511 H 0.60533 0.50654 0.51236 0.0
H2512 H 0.62601 0.46404 0.50313 0.0
H2513 H 0.65181 0.4748 0.55283 0.0
H2514 H 0.63445 0.46899 0.55457 0.0
H2515 H 0.63792 0.48512 0.54637 0.0
C2516 C 0.59951 0.48396 0.53839 0.0
C2517 C 0.59733 0.49531 0.52977 0.0
C2518 C 0.61077 0.47539 0.53642 0.0
C2519 C 0.62016 0.47806 0.52589 0.0
C2520 C 0.61794 0.48928 0.51718 0.0
H2521 H 0.7013 0.44289 0.51769 0.0
H2522 H 0.68162 0.45796 0.52093 0.0
C2523 C 0.60665 0.49783 0.5191 0.0
C2524 C 0.63217 0.46903 0.52379 0.0
H2525 H 0.66081 0.45651 0.53956 0.0
C2526 C 0.63364 0.46242 0.51108 0.0
C2527 C 0.64223 0.46707 0.5341 0.0
C2528 C 0.64163 0.47447 0.54769 0.0
C2529 C 0.64479 0.45376 0.50847 0.0
C2530 C 0.65459 0.45143 0.51895 0.0
C2531 C 0.65322 0.45819 0.53158 0.0
C2532 C 0.66647 0.4422 0.51695 0.0
C2533 C 0.64609 0.4474 0.49442 0.0
C2534 C 0.66449 0.42828 0.5138 0.0
C2535 C 0.67573 0.41964 0.51194 0.0
C2536 C 0.68917 0.42472 0.51333 0.0
C2537 C 0.69109 0.43863 0.51667 0.0
C2538 C 0.67986 0.44727 0.51847 0.0
H2539 H 0.64004 0.45306 0.4866 0.0
H2540 H 0.65695 0.44713 0.49111 0.0
H2541 H 0.64218 0.43671 0.49474 0.0
H2542 H 0.65425 0.42407 0.51291 0.0
H2543 H 0.67389 0.40894 0.50961 0.0
H2544 H 0.74478 0.25044 0.35421 0.0
H2545 H 0.748 0.26554 0.3741 0.0
H2546 H 0.71052 0.28653 0.36403 0.0
H2547 H 0.70712 0.27137 0.34425 0.0
H2548 H 0.74943 0.29545 0.37382 0.0
H2549 H 0.70645 0.27527 0.40513 0.0
H2550 H 0.71368 0.26581 0.39099 0.0
H2551 H 0.70224 0.2798 0.38774 0.0
C2552 C 0.73716 0.25819 0.35631 0.0
C2553 C 0.72567 0.25968 0.34768 0.0
C2554 C 0.73905 0.26684 0.36762 0.0
C2555 C 0.72942 0.27703 0.3706 0.0
C2556 C 0.71798 0.2786 0.36199 0.0
H2557 H 0.72052 0.33785 0.43481 0.0
H2558 H 0.71773 0.32283 0.41491 0.0
C2559 C 0.71612 0.27002 0.35064 0.0
C2560 C 0.73146 0.2862 0.38257 0.0
H2561 H 0.71788 0.295 0.41354 0.0
C2562 C 0.74258 0.29534 0.38255 0.0
C2563 C 0.72246 0.28604 0.39388 0.0
C2564 C 0.71058 0.27614 0.39457 0.0
C2565 C 0.74481 0.30454 0.39344 0.0
C2566 C 0.73585 0.30433 0.40481 0.0
C2567 C 0.72474 0.29515 0.40483 0.0
C2568 C 0.73775 0.3136 0.41678 0.0
C2569 C 0.75651 0.31463 0.39247 0.0
C2570 C 0.74989 0.31331 0.42455 0.0
C2571 C 0.7516 0.32203 0.43584 0.0
C2572 C 0.74113 0.33111 0.4397 0.0
C2573 C 0.7289 0.3312 0.432 0.0
C2574 C 0.72723 0.32253 0.42068 0.0
H2575 H 0.75984 0.3161 0.38169 0.0
H2576 H 0.75363 0.32474 0.3968 0.0
H2577 H 0.76538 0.31067 0.39839 0.0
H2578 H 0.75803 0.3063 0.42193 0.0
H2579 H 0.76119 0.32173 0.44144 0.0
H2580 H 0.50016 0.01115 0.89968 0.0
H2581 H 0.51552 0.0078 0.88023 0.0
H2582 H 0.541 0.04109 0.89461 0.0
H2583 H 0.52565 0.04454 0.91406 0.0
H2584 H 0.53574 0.04279 0.86717 0.0
H2585 H 0.55323 0.99044 0.88039 0.0
H2586 H 0.53495 0.99191 0.87922 0.0
H2587 H 0.54413 1.00116 0.89235 0.0
C2588 C 0.50912 0.01766 0.89879 0.0
C2589 C 0.51171 0.02808 0.90845 0.0
C2590 C 0.5179 0.01571 0.88767 0.0
C2591 C 0.52954 0.02405 0.88608 0.0
C2592 C 0.5321 0.03451 0.89566 0.0
H2593 H 0.59743 0.00833 0.83082 0.0
H2594 H 0.58275 0.01182 0.85079 0.0
C2595 C 0.52329 0.03651 0.90674 0.0
C2596 C 0.53883 0.02213 0.87422 0.0
H2597 H 0.55913 0.99867 0.85821 0.0
C2598 C 0.5409 0.03316 0.86523 0.0
C2599 C 0.5457 0.00962 0.87182 0.0
C2600 C 0.54452 0.99764 0.88152 0.0
C2601 C 0.54947 0.03196 0.85378 0.0
C2602 C 0.55594 0.01929 0.85108 0.0
C2603 C 0.55406 0.00833 0.8602 0.0
C2604 C 0.56479 0.01722 0.83892 0.0
C2605 C 0.55171 0.04436 0.84481 0.0
C2606 C 0.55952 0.01893 0.8256 0.0
C2607 C 0.56789 0.01695 0.81418 0.0
C2608 C 0.58166 0.01308 0.81583 0.0
C2609 C 0.58685 0.01119 0.82919 0.0
C2610 C 0.57849 0.01323 0.84061 0.0
H2611 H 0.54926 0.05402 0.85031 0.0
H2612 H 0.56247 0.04492 0.84121 0.0
H2613 H 0.5449 0.04365 0.83569 0.0
H2614 H 0.5489 0.02167 0.82404 0.0
H2615 H 0.56351 0.01824 0.80403 0.0
H2616 H 0.26462 0.23023 0.33561 0.0
H2617 H 0.26066 0.21519 0.35533 0.0
H2618 H 0.28634 0.24113 0.38047 0.0
H2619 H 0.29026 0.2563 0.36086 0.0
H2620 H 0.28179 0.20137 0.37193 0.0
H2621 H 0.24921 0.23712 0.4018 0.0
H2622 H 0.25189 0.23895 0.38357 0.0
H2623 H 0.26503 0.24409 0.39545 0.0
C2624 C 0.26933 0.23279 0.34537 0.0
C2625 C 0.27773 0.24447 0.34669 0.0
C2626 C 0.26711 0.22416 0.35659 0.0
C2627 C 0.2731 0.22713 0.36936 0.0
C2628 C 0.28151 0.23875 0.37072 0.0
H2629 H 0.28377 0.17692 0.44179 0.0
H2630 H 0.28678 0.19141 0.42158 0.0
C2631 C 0.28382 0.24733 0.35949 0.0
C2632 C 0.27074 0.21797 0.38122 0.0
H2633 H 0.25599 0.21663 0.41289 0.0
C2634 C 0.27613 0.20467 0.38088 0.0
C2635 C 0.26325 0.22231 0.39281 0.0
C2636 C 0.2569 0.23636 0.39347 0.0
C2637 C 0.27444 0.19565 0.39196 0.0
C2638 C 0.26721 0.20009 0.40367 0.0
C2639 C 0.2616 0.2133 0.40391 0.0
C2640 C 0.26539 0.19115 0.4158 0.0
C2641 C 0.28028 0.1814 0.39105 0.0
C2642 C 0.25232 0.18634 0.4193 0.0
C2643 C 0.25056 0.17792 0.43077 0.0
C2644 C 0.26183 0.17428 0.43905 0.0
C2645 C 0.2749 0.17927 0.43553 0.0
C2646 C 0.27665 0.18761 0.42401 0.0
H2647 H 0.28316 0.17866 0.38039 0.0
H2648 H 0.2896 0.18078 0.39759 0.0
H2649 H 0.27281 0.17372 0.39488 0.0
H2650 H 0.2435 0.18898 0.41308 0.0
H2651 H 0.24039 0.17414 0.43302 0.0
H2652 H 0.48063 0.45871 0.91313 0.0
H2653 H 0.46542 0.46205 0.8934 0.0
H2654 H 0.48816 0.49821 0.88204 0.0
H2655 H 0.5034 0.49498 0.90175 0.0
H2656 H 0.44874 0.48405 0.88667 0.0
H2657 H 0.48806 0.47562 0.84668 0.0
H2658 H 0.4908 0.47118 0.86445 0.0
H2659 H 0.49253 0.48867 0.85893 0.0
C2660 C 0.48235 0.46743 0.90649 0.0
C2661 C 0.49329 0.47654 0.90898 0.0
C2662 C 0.47368 0.46929 0.89519 0.0
C2663 C 0.47579 0.48025 0.88612 0.0
C2664 C 0.48654 0.4895 0.88871 0.0
H2665 H 0.41825 0.51209 0.82577 0.0
H2666 H 0.43296 0.50843 0.84582 0.0
C2667 C 0.49523 0.48764 0.89999 0.0
C2668 C 0.46665 0.48208 0.87406 0.0
H2669 H 0.46647 0.48388 0.83907 0.0
C2670 C 0.4526 0.48398 0.87626 0.0
C2671 C 0.47169 0.48179 0.86048 0.0
C2672 C 0.48657 0.47908 0.85744 0.0
C2673 C 0.44346 0.48584 0.86524 0.0
C2674 C 0.44857 0.48601 0.85168 0.0
C2675 C 0.46259 0.48388 0.84948 0.0
C2676 C 0.43952 0.48821 0.83961 0.0
C2677 C 0.4284 0.48736 0.86821 0.0
C2678 C 0.43856 0.47819 0.82931 0.0
C2679 C 0.4302 0.48026 0.81782 0.0
C2680 C 0.42266 0.49244 0.81637 0.0
C2681 C 0.42372 0.5025 0.82668 0.0
C2682 C 0.43212 0.50042 0.83816 0.0
H2683 H 0.42575 0.4834 0.87854 0.0
H2684 H 0.42566 0.49838 0.86787 0.0
H2685 H 0.42208 0.48187 0.86044 0.0
H2686 H 0.44422 0.4687 0.83021 0.0
H2687 H 0.42951 0.47225 0.81015 0.0
H2688 H 0.70936 0.73088 0.16298 0.0
H2689 H 0.71332 0.71596 0.14321 0.0
H2690 H 0.74855 0.74021 0.13213 0.0
H2691 H 0.74444 0.75542 0.15164 0.0
H2692 H 0.73115 0.73445 0.11004 0.0
H2693 H 0.7436 0.68725 0.13916 0.0
H2694 H 0.72761 0.69496 0.14381 0.0
H2695 H 0.74336 0.70401 0.14703 0.0
C2696 C 0.71791 0.73309 0.1563 0.0
C2697 C 0.72661 0.74433 0.15892 0.0
C2698 C 0.72025 0.72446 0.14509 0.0
C2699 C 0.73135 0.72685 0.13632 0.0
C2700 C 0.73998 0.73811 0.13883 0.0
H2701 H 0.76319 0.67105 0.07463 0.0
H2702 H 0.76008 0.6862 0.0944 0.0
C2703 C 0.73767 0.74674 0.15005 0.0
C2704 C 0.73375 0.71784 0.12431 0.0
H2705 H 0.74045 0.68476 0.11509 0.0
C2706 C 0.73323 0.7236 0.11113 0.0
C2707 C 0.73663 0.70372 0.12578 0.0
C2708 C 0.73797 0.69711 0.1397 0.0
C2709 C 0.73526 0.71556 0.09936 0.0
C2710 C 0.73768 0.70135 0.10081 0.0
C2711 C 0.73846 0.69564 0.114 0.0
C2712 C 0.73952 0.69224 0.08877 0.0
C2713 C 0.73498 0.72239 0.08549 0.0
C2714 C 0.72894 0.6905 0.07912 0.0
C2715 C 0.73071 0.68192 0.06777 0.0
C2716 C 0.74309 0.67485 0.06587 0.0
C2717 C 0.75361 0.6765 0.07566 0.0
C2718 C 0.75182 0.68508 0.08701 0.0
H2719 H 0.73658 0.73364 0.08632 0.0
H2720 H 0.74296 0.71808 0.07867 0.0
H2721 H 0.72485 0.72059 0.08059 0.0
H2722 H 0.71928 0.69575 0.0804 0.0
H2723 H 0.72243 0.68097 0.0604 0.0
H2724 H 0.0035 0.04482 0.1104 0.0
H2725 H 0.98816 0.04121 0.12982 0.0
H2726 H 0.96855 0.00783 0.1083 0.0
H2727 H 0.98357 0.01157 0.08864 0.0
H2728 H 0.95793 0.04129 0.12903 0.0
H2729 H 0.9802 0.99193 0.14667 0.0
H2730 H 0.98942 0.00371 0.13577 0.0
H2731 H 0.97606 0.99313 0.1287 0.0
C2732 C 0.99585 0.03679 0.1097 0.0
C2733 C 0.9948 0.02848 0.09791 0.0
C2734 C 0.98715 0.03469 0.12086 0.0
C2735 C 0.97734 0.02417 0.12053 0.0
C2736 C 0.97621 0.01587 0.10882 0.0
H2737 H 0.9178 0.9939 0.17914 0.0
H2738 H 0.93255 0.99759 0.1593 0.0
C2739 C 0.98485 0.018 0.09762 0.0
C2740 C 0.96811 0.02206 0.13235 0.0
H2741 H 0.96032 0.99959 0.15799 0.0
C2742 C 0.95845 0.0322 0.13541 0.0
C2743 C 0.96879 0.01015 0.14056 0.0
C2744 C 0.97922 0.99912 0.13788 0.0
C2745 C 0.94929 0.03067 0.14637 0.0
C2746 C 0.95007 0.01882 0.15471 0.0
C2747 C 0.95973 0.00866 0.15161 0.0
C2748 C 0.94099 0.01677 0.16671 0.0
C2749 C 0.93866 0.0416 0.14869 0.0
C2750 C 0.94093 0.02624 0.17756 0.0
C2751 C 0.93238 0.02425 0.18885 0.0
C2752 C 0.9238 0.01265 0.18961 0.0
C2753 C 0.92406 0.00307 0.1788 0.0
C2754 C 0.93257 0.00511 0.16749 0.0
H2755 H 0.93683 0.04775 0.13928 0.0
H2756 H 0.92878 0.03705 0.152 0.0
H2757 H 0.94231 0.04868 0.15685 0.0
H2758 H 0.94755 0.03516 0.17734 0.0
H2759 H 0.93239 0.0319 0.19691 0.0
H2760 H 0.26868 0.77675 0.1694 0.0
H2761 H 0.26539 0.79205 0.14981 0.0
H2762 H 0.28372 0.76209 0.12313 0.0
H2763 H 0.28733 0.74683 0.14268 0.0
H2764 H 0.28614 0.80244 0.13137 0.0
H2765 H 0.24642 0.7713 0.10457 0.0
H2766 H 0.25066 0.76891 0.12247 0.0
H2767 H 0.2617 0.76225 0.1094 0.0
C2768 C 0.27212 0.77343 0.1594 0.0
C2769 C 0.27824 0.76051 0.15764 0.0
C2770 C 0.27016 0.78217 0.1482 0.0
C2771 C 0.27415 0.77812 0.13501 0.0
C2772 C 0.28033 0.7653 0.1332 0.0
H2773 H 0.27045 0.81484 0.0541 0.0
H2774 H 0.27372 0.7998 0.0739 0.0
C2775 C 0.28235 0.75658 0.14439 0.0
C2776 C 0.27212 0.78743 0.12318 0.0
H2777 H 0.25512 0.79055 0.09266 0.0
C2778 C 0.27931 0.7999 0.12292 0.0
C2779 C 0.26325 0.78403 0.11217 0.0
C2780 C 0.25496 0.77095 0.11214 0.0
C2781 C 0.27809 0.80896 0.1118 0.0
C2782 C 0.26917 0.80559 0.1008 0.0
C2783 C 0.26195 0.79312 0.10109 0.0
C2784 C 0.26722 0.81481 0.08885 0.0
C2785 C 0.28665 0.82187 0.11178 0.0
C2786 C 0.2623 0.8282 0.09064 0.0
C2787 C 0.26045 0.83682 0.07934 0.0
C2788 C 0.26331 0.83217 0.066 0.0
C2789 C 0.26804 0.8187 0.06422 0.0
C2790 C 0.26996 0.81011 0.07553 0.0
H2791 H 0.29558 0.82105 0.11883 0.0
H2792 H 0.29043 0.82423 0.10132 0.0
H2793 H 0.28029 0.83058 0.11529 0.0
H2794 H 0.25977 0.83194 0.10077 0.0
H2795 H 0.25656 0.84706 0.08103 0.0
H2796 H 0.02164 0.45837 0.09413 0.0
H2797 H 0.03678 0.46162 0.11397 0.0
H2798 H 0.0175 0.50036 0.12253 0.0
H2799 H 0.00221 0.49708 0.10283 0.0
H2800 H 0.05546 0.48149 0.11963 0.0
H2801 H 0.01504 0.48172 0.15937 0.0
H2802 H 0.01174 0.47643 0.14192 0.0
H2803 H 0.01241 0.49435 0.14627 0.0
C2804 C 0.02065 0.4676 0.10023 0.0
C2805 C 0.01067 0.47743 0.09698 0.0
C2806 C 0.02928 0.46942 0.11158 0.0
C2807 C 0.02811 0.48111 0.1199 0.0
C2808 C 0.01834 0.49108 0.11651 0.0
H2809 H 0.07356 0.5126 0.19006 0.0
H2810 H 0.05876 0.50957 0.16989 0.0
C2811 C 0.00963 0.48921 0.10522 0.0
C2812 C 0.03729 0.48297 0.13197 0.0
H2813 H 0.03744 0.48822 0.16664 0.0
C2814 C 0.05152 0.48289 0.12992 0.0
C2815 C 0.03214 0.48477 0.1454 0.0
C2816 C 0.01701 0.48419 0.14843 0.0
C2817 C 0.06071 0.48477 0.14089 0.0
C2818 C 0.05554 0.48671 0.15426 0.0
C2819 C 0.04134 0.4868 0.15634 0.0
C2820 C 0.06471 0.48856 0.16627 0.0
C2821 C 0.07589 0.48491 0.13811 0.0
C2822 C 0.07287 0.47771 0.17094 0.0
C2823 C 0.08131 0.47939 0.18246 0.0
C2824 C 0.08175 0.49198 0.1895 0.0
C2825 C 0.07356 0.50284 0.18476 0.0
C2826 C 0.06506 0.50111 0.1733 0.0
H2827 H 0.07813 0.48597 0.127 0.0
H2828 H 0.08097 0.49343 0.14375 0.0
H2829 H 0.08043 0.47516 0.14176 0.0
H2830 H 0.07263 0.4679 0.16572 0.0
H2831 H 0.08756 0.47087 0.1858 0.0
H2832 H 0.36004 0.713 0.25043 0.0
H2833 H 0.37937 0.7167 0.26607 0.0
H2834 H 0.35514 0.74484 0.28982 0.0
H2835 H 0.33575 0.74122 0.2742 0.0
H2836 H 0.38093 0.75475 0.28475 0.0
H2837 H 0.38371 0.70166 0.30472 0.0
H2838 H 0.38459 0.70261 0.28636 0.0
H2839 H 0.36924 0.70784 0.29499 0.0
C2840 C 0.35877 0.71987 0.25907 0.0
C2841 C 0.34632 0.72676 0.26111 0.0
C2842 C 0.36983 0.72196 0.268 0.0
C2843 C 0.36863 0.73086 0.27925 0.0
C2844 C 0.35628 0.73789 0.28123 0.0
H2845 H 0.42555 0.73524 0.34821 0.0
H2846 H 0.40547 0.73216 0.33339 0.0
C2847 C 0.34522 0.73585 0.27227 0.0
C2848 C 0.38033 0.73307 0.28879 0.0
H2849 H 0.40235 0.71645 0.31037 0.0
C2850 C 0.38558 0.74639 0.2904 0.0
C2851 C 0.38626 0.72218 0.29631 0.0
C2852 C 0.38059 0.70779 0.29564 0.0
C2853 C 0.39677 0.74908 0.29912 0.0
C2854 C 0.40305 0.7381 0.30621 0.0
C2855 C 0.39762 0.72483 0.30481 0.0
C2856 C 0.41522 0.74016 0.31518 0.0
C2857 C 0.40163 0.76369 0.30081 0.0
C2858 C 0.42743 0.74554 0.30984 0.0
C2859 C 0.43892 0.74732 0.31829 0.0
C2860 C 0.43848 0.74361 0.33222 0.0
C2861 C 0.42627 0.73809 0.3375 0.0
C2862 C 0.41477 0.73637 0.32906 0.0
H2863 H 0.39353 0.77112 0.29791 0.0
H2864 H 0.40486 0.76577 0.31155 0.0
H2865 H 0.41055 0.76548 0.29403 0.0
H2866 H 0.42814 0.7482 0.29909 0.0
H2867 H 0.44823 0.75136 0.31384 0.0
H2868 H 0.99192 0.40033 0.00649 0.0
H2869 H 0.99551 0.38066 0.9913 0.0
H2870 H 0.96264 0.39444 0.96512 0.0
H2871 H 0.95908 0.41423 0.98018 0.0
H2872 H 0.97513 0.35996 0.98345 0.0
H2873 H 0.99628 0.38881 0.93914 0.0
H2874 H 0.99587 0.39582 0.95629 0.0
H2875 H 0.98052 0.39518 0.94611 0.0
C2876 C 0.98554 0.39924 0.99744 0.0
C2877 C 0.97524 0.40886 0.99451 0.0
C2878 C 0.98755 0.38796 0.98882 0.0
C2879 C 0.97943 0.38619 0.97704 0.0
C2880 C 0.96912 0.39573 0.9741 0.0
H2881 H 0.96892 0.31467 0.92492 0.0
H2882 H 0.96569 0.33438 0.94007 0.0
C2883 C 0.96702 0.40695 0.98276 0.0
C2884 C 0.98161 0.37423 0.96795 0.0
H2885 H 0.99198 0.36513 0.93579 0.0
C2886 C 0.97882 0.36107 0.97304 0.0
C2887 C 0.98653 0.37574 0.95442 0.0
C2888 C 0.99009 0.38962 0.94863 0.0
C2889 C 0.98062 0.34937 0.96485 0.0
C2890 C 0.98531 0.3509 0.95124 0.0
C2891 C 0.9883 0.36403 0.94621 0.0
C2892 C 0.98728 0.33894 0.94211 0.0
C2893 C 0.97767 0.33543 0.97083 0.0
C2894 C 1.00049 0.33509 0.93814 0.0
C2895 C 0.00241 0.32373 0.92961 0.0
C2896 C 0.99112 0.31608 0.92475 0.0
C2897 C 0.97787 0.32013 0.92865 0.0
C2898 C 0.97598 0.33143 0.93726 0.0
H2899 H 0.97655 0.33581 0.98216 0.0
H2900 H 0.96799 0.33138 0.96636 0.0
H2901 H 0.98597 0.32814 0.96823 0.0
H2902 H 0.00934 0.34077 0.94179 0.0
H2903 H 0.01277 0.32083 0.92701 0.0
H2904 H 0.65979 0.79782 0.27225 0.0
H2905 H 0.6402 0.79415 0.28742 0.0
H2906 H 0.63098 0.75617 0.26665 0.0
H2907 H 0.65065 0.75966 0.25154 0.0
H2908 H 0.61165 0.79004 0.27879 0.0
H2909 H 0.63281 0.74621 0.3084 0.0
H2910 H 0.64352 0.75779 0.29872 0.0
H2911 H 0.63366 0.74484 0.29002 0.0
C2912 C 0.65367 0.78862 0.271 0.0
C2913 C 0.6568 0.77901 0.26072 0.0
C2914 C 0.64245 0.78658 0.27962 0.0
C2915 C 0.63424 0.77483 0.27823 0.0
C2916 C 0.63729 0.76522 0.26798 0.0
H2917 H 0.56382 0.74333 0.32243 0.0
H2918 H 0.58312 0.74679 0.30693 0.0
C2919 C 0.64846 0.7673 0.25929 0.0
C2920 C 0.62231 0.77276 0.28733 0.0
H2921 H 0.60983 0.75225 0.31274 0.0
C2922 C 0.61124 0.78181 0.28625 0.0
C2923 C 0.62181 0.76197 0.29696 0.0
C2924 C 0.6336 0.75217 0.29873 0.0
C2925 C 0.59955 0.78024 0.29444 0.0
C2926 C 0.5991 0.76953 0.30422 0.0
C2927 C 0.61019 0.76046 0.30525 0.0
C2928 C 0.58725 0.76758 0.31352 0.0
C2929 C 0.58767 0.78986 0.2923 0.0
C2930 C 0.58323 0.77806 0.3225 0.0
C2931 C 0.57208 0.7762 0.33124 0.0
C2932 C 0.5648 0.76372 0.33134 0.0
C2933 C 0.56901 0.75316 0.32247 0.0
C2934 C 0.58012 0.75507 0.31367 0.0
H2935 H 0.58795 0.79467 0.28198 0.0
H2936 H 0.57773 0.78445 0.29347 0.0
H2937 H 0.58822 0.79819 0.30004 0.0
H2938 H 0.58876 0.7877 0.32279 0.0
H2939 H 0.56909 0.7846 0.33782 0.0
H2940 H 0.02056 0.08559 0.97841 0.0
H2941 H 0.01729 0.10521 0.96316 0.0
H2942 H 0.03337 0.13223 0.99437 0.0
H2943 H 0.03704 0.11267 0.00958 0.0
H2944 H 0.00774 0.1407 0.98153 0.0
H2945 H 0.04836 0.12773 0.94398 0.0
H2946 H 0.03655 0.11416 0.94803 0.0
H2947 H 0.04793 0.1206 0.96106 0.0
C2948 C 0.02359 0.09567 0.98199 0.0
C2949 C 0.02911 0.09751 0.99524 0.0
C2950 C 0.02167 0.10687 0.97326 0.0
C2951 C 0.02521 0.12013 0.97761 0.0
C2952 C 0.03058 0.12206 0.99084 0.0
H2953 H 0.03341 0.1945 0.92963 0.0
H2954 H 0.03682 0.17486 0.94486 0.0
C2955 C 0.03259 0.11086 0.99954 0.0
C2956 C 0.02313 0.13204 0.96843 0.0
H2957 H 0.03397 0.14641 0.93844 0.0
C2958 C 0.01346 0.14197 0.97211 0.0
C2959 C 0.03072 0.1337 0.95623 0.0
C2960 C 0.04156 0.12356 0.95208 0.0
C2961 C 0.01106 0.15347 0.9638 0.0
C2962 C 0.01845 0.15499 0.95145 0.0
C2963 C 0.02825 0.14515 0.94787 0.0
C2964 C 0.0163 0.16685 0.9422 0.0
C2965 C 1.00079 0.16401 0.96839 0.0
C2966 C 0.00367 0.16876 0.93555 0.0
C2967 C 0.00168 0.17998 0.92687 0.0
C2968 C 0.01229 0.18951 0.92467 0.0
C2969 C 0.02497 0.18747 0.93126 0.0
C2970 C 0.02697 0.17621 0.93989 0.0
H2971 H 0.99832 0.16296 0.97946 0.0
H2972 H 0.00467 0.17455 0.96652 0.0
H2973 H 0.99117 0.16266 0.96243 0.0
H2974 H 0.99537 0.16154 0.93706 0.0
H2975 H 0.99177 0.1813 0.92204 0.0
H2976 H 0.34397 0.29728 0.23277 0.0
H2977 H 0.36355 0.29359 0.21762 0.0
H2978 H 0.37353 0.25657 0.2395 0.0
H2979 H 0.35385 0.26005 0.25456 0.0
H2980 H 0.39203 0.2907 0.22588 0.0
H2981 H 0.37182 0.2449 0.19836 0.0
H2982 H 0.36093 0.25641 0.20784 0.0
H2983 H 0.37131 0.24414 0.21678 0.0
C2984 C 0.35025 0.28828 0.23427 0.0
C2985 C 0.34733 0.27893 0.24484 0.0
C2986 C 0.36147 0.28623 0.22566 0.0
C2987 C 0.36988 0.27474 0.22735 0.0
C2988 C 0.36705 0.26541 0.23791 0.0
H2989 H 0.44094 0.24367 0.18418 0.0
H2990 H 0.42165 0.24722 0.19964 0.0
C2991 C 0.35588 0.26748 0.24658 0.0
C2992 C 0.3818 0.27266 0.21824 0.0
H2993 H 0.39467 0.25139 0.19369 0.0
C2994 C 0.39262 0.28214 0.2188 0.0
C2995 C 0.38253 0.26144 0.2091 0.0
C2996 C 0.371 0.25117 0.20784 0.0
C2997 C 0.40428 0.28059 0.21058 0.0
C2998 C 0.40497 0.26944 0.20131 0.0
C2999 C 0.39414 0.25994 0.20079 0.0
C3000 C 0.4168 0.26744 0.19202 0.0
C3001 C 0.41588 0.29074 0.21216 0.0
C3002 C 0.42042 0.27757 0.18248 0.0
C3003 C 0.43156 0.27566 0.17374 0.0
C3004 C 0.43923 0.26349 0.17423 0.0
C3005 C 0.43543 0.25327 0.18367 0.0
C3006 C 0.42433 0.25523 0.19245 0.0
H3007 H 0.41552 0.29609 0.22222 0.0
H3008 H 0.42597 0.28562 0.21119 0.0
H3009 H 0.41507 0.29861 0.20399 0.0
H3010 H 0.41458 0.28696 0.18174 0.0
H3011 H 0.43423 0.2838 0.1667 0.0
H3012 H 0.51463 0.41773 0.02417 0.0
H3013 H 0.51118 0.39798 0.03921 0.0
H3014 H 0.53982 0.37459 0.01526 0.0
H3015 H 0.54306 0.39417 0.99994 0.0
H3016 H 0.51547 0.36041 0.02121 0.0
H3017 H 0.53846 0.3836 0.06805 0.0
H3018 H 0.5252 0.39364 0.06018 0.0
H3019 H 0.54092 0.39073 0.05116 0.0
C3020 C 0.52013 0.40836 0.02204 0.0
C3021 C 0.52916 0.40755 0.01087 0.0
C3022 C 0.51826 0.39713 0.03074 0.0
C3023 C 0.5254 0.38489 0.02847 0.0
C3024 C 0.53429 0.38398 0.01725 0.0
H3025 H 0.53486 0.31604 0.08405 0.0
H3026 H 0.53835 0.33566 0.06881 0.0
C3027 C 0.5362 0.39521 0.00856 0.0
C3028 C 0.52342 0.37293 0.03763 0.0
H3029 H 0.52721 0.36218 0.07076 0.0
C3030 C 0.51806 0.36077 0.03204 0.0
C3031 C 0.52695 0.3734 0.05172 0.0
C3032 C 0.53332 0.38599 0.05815 0.0
C3033 C 0.51594 0.34912 0.0402 0.0
C3034 C 0.51912 0.34971 0.05437 0.0
C3035 C 0.52467 0.3618 0.05992 0.0
C3036 C 0.51692 0.33781 0.06356 0.0
C3037 C 0.51052 0.3362 0.03356 0.0
C3038 C 0.5037 0.33262 0.06578 0.0
C3039 C 0.50168 0.32138 0.07442 0.0
C3040 C 0.51285 0.31513 0.08106 0.0
C3041 C 0.52607 0.32048 0.07893 0.0
C3042 C 0.52807 0.33174 0.07031 0.0
H3043 H 0.51179 0.33638 0.02224 0.0
H3044 H 0.5158 0.32702 0.0377 0.0
H3045 H 0.49943 0.33518 0.03578 0.0
H3046 H 0.49492 0.3373 0.06084 0.0
H3047 H 0.49138 0.31747 0.07575 0.0
H3048 H 0.64634 0.20955 0.25122 0.0
H3049 H 0.62692 0.21306 0.23576 0.0
H3050 H 0.64726 0.24812 0.21817 0.0
H3051 H 0.66703 0.24426 0.23307 0.0
H3052 H 0.60989 0.23465 0.23353 0.0
H3053 H 0.63675 0.22697 0.18415 0.0
H3054 H 0.64439 0.22255 0.20044 0.0
H3055 H 0.6444 0.24005 0.19466 0.0
C3056 C 0.64682 0.21786 0.2439 0.0
C3057 C 0.65835 0.22655 0.24335 0.0
C3058 C 0.63564 0.21993 0.23514 0.0
C3059 C 0.63571 0.23071 0.22563 0.0
C3060 C 0.64709 0.23954 0.22519 0.0
H3061 H 0.57483 0.26231 0.16848 0.0
H3062 H 0.59476 0.25903 0.1835 0.0
C3063 C 0.65832 0.23743 0.23388 0.0
C3064 C 0.62372 0.23292 0.21647 0.0
H3065 H 0.61403 0.23558 0.18284 0.0
C3066 C 0.6108 0.23478 0.22245 0.0
C3067 C 0.62489 0.23309 0.202 0.0
C3068 C 0.63833 0.23043 0.19491 0.0
C3069 C 0.59907 0.23698 0.21436 0.0
C3070 C 0.60029 0.23723 0.19993 0.0
C3071 C 0.61318 0.23543 0.19393 0.0
C3072 C 0.58823 0.23918 0.19087 0.0
C3073 C 0.58549 0.2392 0.22129 0.0
C3074 C 0.57806 0.22903 0.18997 0.0
C3075 C 0.56669 0.23085 0.18139 0.0
C3076 C 0.56528 0.24288 0.17359 0.0
C3077 C 0.57554 0.253 0.17448 0.0
C3078 C 0.58696 0.25112 0.18299 0.0
H3079 H 0.58672 0.24143 0.23241 0.0
H3080 H 0.57986 0.24778 0.2164 0.0
H3081 H 0.57913 0.22981 0.22019 0.0
H3082 H 0.57893 0.21968 0.19588 0.0
H3083 H 0.55891 0.22292 0.18101 0.0
H3084 H 0.48586 0.08398 0.02844 0.0
H3085 H 0.48889 0.10356 0.04389 0.0
H3086 H 0.47239 0.13046 0.01299 0.0
H3087 H 0.46896 0.11094 0.99758 0.0
H3088 H 0.49802 0.13931 0.02591 0.0
H3089 H 0.45748 0.12533 0.06329 0.0
H3090 H 0.46947 0.11205 0.05907 0.0
H3091 H 0.45798 0.11835 0.04613 0.0
C3092 C 0.48269 0.09402 0.02497 0.0
C3093 C 0.47712 0.09585 0.01175 0.0
C3094 C 0.48448 0.1052 0.03381 0.0
C3095 C 0.48076 0.11841 0.02961 0.0
C3096 C 0.47533 0.12033 0.01641 0.0
H3097 H 0.47146 0.1933 0.07648 0.0
H3098 H 0.46848 0.17337 0.06143 0.0
C3099 C 0.47346 0.10916 0.00759 0.0
C3100 C 0.48268 0.1303 0.03889 0.0
H3101 H 0.47144 0.14444 0.06884 0.0
C3102 C 0.49223 0.14045 0.03531 0.0
C3103 C 0.47501 0.13178 0.05106 0.0
C3104 C 0.46432 0.12138 0.05513 0.0
C3105 C 0.49442 0.15199 0.04367 0.0
C3106 C 0.4869 0.15335 0.05595 0.0
C3107 C 0.47724 0.14329 0.05946 0.0
C3108 C 0.48875 0.16531 0.06516 0.0
C3109 C 0.50459 0.16275 0.03923 0.0
C3110 C 0.50109 0.16728 0.07234 0.0
C3111 C 0.50282 0.17864 0.08095 0.0
C3112 C 0.49225 0.18826 0.0825 0.0
C3113 C 0.47985 0.18617 0.07536 0.0
C3114 C 0.4781 0.17476 0.06683 0.0
H3115 H 0.50753 0.16152 0.0283 0.0
H3116 H 0.50034 0.17318 0.04072 0.0
H3117 H 0.51399 0.16191 0.04562 0.0
H3118 H 0.50938 0.16002 0.07128 0.0
H3119 H 0.51252 0.18001 0.08622 0.0
H3120 H 0.27506 0.33643 0.73622 0.0
H3121 H 0.29039 0.35606 0.73946 0.0
H3122 H 0.26006 0.38273 0.72168 0.0
H3123 H 0.24477 0.36314 0.71804 0.0
H3124 H 0.30002 0.37502 0.71822 0.0
H3125 H 0.27037 0.40058 0.75947 0.0
H3126 H 0.26811 0.3827 0.75517 0.0
H3127 H 0.26082 0.3957 0.7444 0.0
C3128 C 0.27166 0.34643 0.73287 0.0
C3129 C 0.25863 0.34817 0.72688 0.0
C3130 C 0.28042 0.35765 0.73482 0.0
C3131 C 0.27628 0.37084 0.73096 0.0
C3132 C 0.26334 0.37265 0.72495 0.0
H3133 H 0.31299 0.45185 0.73568 0.0
H3134 H 0.2978 0.43209 0.73245 0.0
C3135 C 0.2546 0.36144 0.72292 0.0
C3136 C 0.28561 0.38269 0.73296 0.0
H3137 H 0.28937 0.41271 0.75063 0.0
C3138 C 0.29775 0.38325 0.72534 0.0
C3139 C 0.28255 0.39341 0.7422 0.0
C3140 C 0.26981 0.3931 0.75088 0.0
C3141 C 0.30681 0.3944 0.72653 0.0
C3142 C 0.30382 0.4051 0.73586 0.0
C3143 C 0.29167 0.40451 0.74349 0.0
C3144 C 0.31311 0.41703 0.73784 0.0
C3145 C 0.31932 0.39478 0.7175 0.0
C3146 C 0.32672 0.41516 0.74213 0.0
C3147 C 0.33543 0.42643 0.74394 0.0
C3148 C 0.33066 0.43982 0.74168 0.0
C3149 C 0.31695 0.44168 0.73761 0.0
C3150 C 0.30827 0.4304 0.73572 0.0
H3151 H 0.31807 0.38806 0.70837 0.0
H3152 H 0.32154 0.40536 0.71397 0.0
H3153 H 0.32829 0.39106 0.72343 0.0
H3154 H 0.33058 0.40498 0.7442 0.0
H3155 H 0.34586 0.42467 0.74732 0.0
H3156 H 0.2775 0.66996 0.76694 0.0
H3157 H 0.29267 0.65037 0.76349 0.0
H3158 H 0.26351 0.62398 0.78357 0.0
H3159 H 0.24846 0.64357 0.78743 0.0
H3160 H 0.29038 0.62015 0.79258 0.0
H3161 H 0.2871 0.61921 0.73571 0.0
H3162 H 0.29211 0.63547 0.74285 0.0
H3163 H 0.27528 0.62877 0.74618 0.0
C3164 C 0.27434 0.66001 0.77071 0.0
C3165 C 0.26173 0.65834 0.77742 0.0
C3166 C 0.28297 0.64879 0.76859 0.0
C3167 C 0.27912 0.63568 0.77308 0.0
C3168 C 0.26662 0.634 0.77992 0.0
H3169 H 0.3144 0.55729 0.75098 0.0
H3170 H 0.29961 0.57717 0.75436 0.0
C3171 C 0.25799 0.64519 0.78203 0.0
C3172 C 0.28822 0.62375 0.7709 0.0
H3173 H 0.30337 0.60441 0.74603 0.0
C3174 C 0.29322 0.61669 0.78241 0.0
C3175 C 0.29177 0.61916 0.75761 0.0
C3176 C 0.2862 0.62595 0.74486 0.0
C3177 C 0.3018 0.60527 0.781 0.0
C3178 C 0.30564 0.60091 0.76772 0.0
C3179 C 0.30051 0.60786 0.7562 0.0
C3180 C 0.31476 0.58898 0.76556 0.0
C3181 C 0.30648 0.5978 0.79373 0.0
C3182 C 0.32826 0.58911 0.77056 0.0
C3183 C 0.33677 0.57779 0.76859 0.0
C3184 C 0.33197 0.56613 0.76151 0.0
C3185 C 0.31848 0.56614 0.75635 0.0
C3186 C 0.30999 0.57746 0.75833 0.0
H3187 H 0.3 0.60029 0.80272 0.0
H3188 H 0.30628 0.58654 0.7921 0.0
H3189 H 0.31716 0.60088 0.79619 0.0
H3190 H 0.33225 0.59802 0.77592 0.0
H3191 H 0.34717 0.57824 0.77248 0.0
H3192 H 0.91264 0.48009 0.45894 0.0
H3193 H 0.89262 0.46532 0.46217 0.0
H3194 H 0.88145 0.48856 0.49803 0.0
H3195 H 0.90117 0.50367 0.49462 0.0
H3196 H 0.88581 0.44892 0.48434 0.0
H3197 H 0.84615 0.48852 0.47534 0.0
H3198 H 0.8639 0.49108 0.47092 0.0
H3199 H 0.85842 0.49299 0.48839 0.0
C3200 C 0.90583 0.48218 0.46742 0.0
C3201 C 0.90848 0.49314 0.47647 0.0
C3202 C 0.89445 0.47366 0.4693 0.0
C3203 C 0.88544 0.47596 0.48022 0.0
C3204 C 0.88814 0.48675 0.48939 0.0
H3205 H 0.82484 0.41896 0.51226 0.0
H3206 H 0.84487 0.43361 0.50866 0.0
C3207 C 0.89951 0.49528 0.48751 0.0
C3208 C 0.87334 0.46693 0.48212 0.0
H3209 H 0.83841 0.46702 0.48373 0.0
C3210 C 0.87544 0.45286 0.48418 0.0
C3211 C 0.85981 0.47207 0.48172 0.0
C3212 C 0.85687 0.48697 0.47885 0.0
C3213 C 0.86439 0.44382 0.48606 0.0
C3214 C 0.85089 0.44903 0.4861 0.0
C3215 C 0.84878 0.46306 0.48383 0.0
C3216 C 0.83879 0.44006 0.4883 0.0
C3217 C 0.86726 0.42873 0.48775 0.0
C3218 C 0.82855 0.43906 0.47819 0.0
C3219 C 0.81707 0.43072 0.48023 0.0
C3220 C 0.81556 0.42325 0.49246 0.0
C3221 C 0.8258 0.42437 0.50263 0.0
C3222 C 0.83726 0.43274 0.50058 0.0
H3223 H 0.87758 0.42598 0.48389 0.0
H3224 H 0.86686 0.42606 0.4988 0.0
H3225 H 0.85949 0.42242 0.48224 0.0
H3226 H 0.82951 0.44465 0.46864 0.0
H3227 H 0.80946 0.42999 0.47214 0.0
H3228 H 0.75425 0.85412 0.75997 0.0
H3229 H 0.73904 0.87378 0.75679 0.0
H3230 H 0.7173 0.86286 0.79359 0.0
H3231 H 0.73258 0.8433 0.79697 0.0
H3232 H 0.70933 0.87333 0.75453 0.0
H3233 H 0.72811 0.90386 0.79904 0.0
H3234 H 0.73779 0.88991 0.79176 0.0
H3235 H 0.72346 0.8864 0.80269 0.0
C3236 C 0.7463 0.85597 0.76745 0.0
C3237 C 0.74465 0.84718 0.77876 0.0
C3238 C 0.73758 0.86716 0.76558 0.0
C3239 C 0.72716 0.86985 0.77504 0.0
C3240 C 0.7254 0.86105 0.78627 0.0
H3241 H 0.66605 0.93353 0.78358 0.0
H3242 H 0.68087 0.9136 0.78638 0.0
C3243 C 0.73406 0.84982 0.78811 0.0
C3244 C 0.71799 0.88175 0.77306 0.0
H3245 H 0.70873 0.91234 0.78721 0.0
C3246 C 0.70921 0.8819 0.76163 0.0
C3247 C 0.71785 0.89286 0.78239 0.0
C3248 C 0.72737 0.89338 0.79462 0.0
C3249 C 0.70008 0.89277 0.75939 0.0
C3250 C 0.69999 0.90395 0.76868 0.0
C3251 C 0.7088 0.90378 0.78011 0.0
C3252 C 0.69084 0.91592 0.76675 0.0
C3253 C 0.69039 0.89201 0.74731 0.0
C3254 C 0.6916 0.92394 0.75484 0.0
C3255 C 0.68302 0.93525 0.75312 0.0
C3256 C 0.67359 0.93888 0.76336 0.0
C3257 C 0.67299 0.93091 0.77537 0.0
C3258 C 0.68154 0.91957 0.77704 0.0
H3259 H 0.68902 0.88131 0.74363 0.0
H3260 H 0.6802 0.89623 0.74995 0.0
H3261 H 0.69464 0.89812 0.73872 0.0
H3262 H 0.6989 0.9215 0.74688 0.0
H3263 H 0.68369 0.94107 0.74369 0.0
H3264 H 0.58766 0.5226 0.99344 0.0
H3265 H 0.60731 0.53786 0.99699 0.0
H3266 H 0.62892 0.51744 0.96444 0.0
H3267 H 0.60947 0.50196 0.96098 0.0
H3268 H 0.63524 0.53035 0.00324 0.0
H3269 H 0.63051 0.55869 0.95405 0.0
H3270 H 0.61668 0.5486 0.96105 0.0
H3271 H 0.63067 0.54033 0.95255 0.0
C3272 C 0.59663 0.52126 0.9871 0.0
C3273 C 0.59694 0.51106 0.97688 0.0
C3274 C 0.60781 0.53005 0.9891 0.0
C3275 C 0.61948 0.52889 0.98085 0.0
C3276 C 0.6199 0.51867 0.97073 0.0
H3277 H 0.69685 0.57228 0.97515 0.0
H3278 H 0.67724 0.5569 0.97216 0.0
C3279 C 0.60875 0.50985 0.96875 0.0
C3280 C 0.63131 0.53821 0.98299 0.0
H3281 H 0.65029 0.56317 0.96749 0.0
C3282 C 0.63851 0.53758 0.99546 0.0
C3283 C 0.63556 0.54758 0.9728 0.0
C3284 C 0.62791 0.54898 0.95939 0.0
C3285 C 0.65004 0.54589 0.99792 0.0
C3286 C 0.65428 0.55531 0.98774 0.0
C3287 C 0.64703 0.55595 0.97528 0.0
C3288 C 0.66623 0.56455 0.98977 0.0
C3289 C 0.65779 0.54425 0.01125 0.0
C3290 C 0.66651 0.57407 1.00057 0.0
C3291 C 0.67777 0.58278 0.00241 0.0
C3292 C 0.68896 0.58225 0.99337 0.0
C3293 C 0.68855 0.57281 0.98244 0.0
C3294 C 0.67729 0.56408 0.98065 0.0
H3295 H 0.6556 0.5342 0.01614 0.0
H3296 H 0.669 0.54516 0.00964 0.0
H3297 H 0.65462 0.55241 0.01849 0.0
H3298 H 0.65796 0.57481 0.00757 0.0
H3299 H 0.67777 0.58982 0.011 0.0
H3300 H 0.22761 0.66919 0.23542 0.0
H3301 H 0.21248 0.64949 0.23897 0.0
H3302 H 0.24289 0.62274 0.22168 0.0
H3303 H 0.25797 0.64238 0.21776 0.0
H3304 H 0.20275 0.62998 0.21821 0.0
H3305 H 0.23327 0.6056 0.25976 0.0
H3306 H 0.23532 0.6234 0.25509 0.0
H3307 H 0.24257 0.6102 0.24456 0.0
C3308 C 0.23106 0.65915 0.23224 0.0
C3309 C 0.24406 0.6574 0.22633 0.0
C3310 C 0.22242 0.64789 0.23436 0.0
C3311 C 0.22664 0.63466 0.23075 0.0
C3312 C 0.23954 0.63285 0.22477 0.0
H3313 H 0.19097 0.55334 0.23678 0.0
H3314 H 0.20588 0.57323 0.23324 0.0
C3315 C 0.24816 0.6441 0.22258 0.0
C3316 C 0.21746 0.62276 0.23299 0.0
H3317 H 0.21433 0.59304 0.25116 0.0
C3318 C 0.20522 0.62191 0.22544 0.0
C3319 C 0.22079 0.61226 0.24239 0.0
C3320 C 0.23365 0.61288 0.25102 0.0
C3321 C 0.19631 0.61068 0.22686 0.0
C3322 C 0.19958 0.60019 0.23634 0.0
C3323 C 0.21183 0.60108 0.2439 0.0
C3324 C 0.19047 0.58818 0.23854 0.0
C3325 C 0.18367 0.60999 0.21791 0.0
C3326 C 0.17691 0.58995 0.24289 0.0
C3327 C 0.16836 0.57861 0.24489 0.0
C3328 C 0.17326 0.56524 0.24275 0.0
C3329 C 0.18692 0.56349 0.23862 0.0
C3330 C 0.19543 0.57484 0.23655 0.0
H3331 H 0.18467 0.61657 0.20868 0.0
H3332 H 0.18154 0.59931 0.21453 0.0
H3333 H 0.17473 0.61367 0.22384 0.0
H3334 H 0.17296 0.60011 0.24486 0.0
H3335 H 0.15797 0.58029 0.2483 0.0
H3336 H 0.9132 0.52639 0.04479 0.0
H3337 H 0.89335 0.54125 0.04141 0.0
H3338 H 0.87958 0.51565 0.00794 0.0
H3339 H 0.89945 0.50078 0.01122 0.0
H3340 H 0.878 0.54288 0.00173 0.0
H3341 H 0.85414 0.53293 0.05225 0.0
H3342 H 0.87147 0.53899 0.05351 0.0
H3343 H 0.86795 0.52265 0.04566 0.0
C3344 C 0.90588 0.52386 0.03679 0.0
C3345 C 0.90786 0.51235 0.02832 0.0
C3346 C 0.89453 0.53235 0.03488 0.0
C3347 C 0.88484 0.52942 0.02459 0.0
C3348 C 0.8869 0.51807 0.01599 0.0
H3349 H 0.80321 0.56413 0.0183 0.0
H3350 H 0.82305 0.54916 0.0212 0.0
C3351 C 0.89829 0.50961 0.01784 0.0
C3352 C 0.87267 0.5383 0.02264 0.0
H3353 H 0.84458 0.55098 0.03899 0.0
C3354 C 0.87066 0.54462 0.00986 0.0
C3355 C 0.863 0.54041 0.03319 0.0
C3356 C 0.86414 0.53328 0.04688 0.0
C3357 C 0.85936 0.55316 0.00741 0.0
C3358 C 0.84997 0.55566 0.01813 0.0
C3359 C 0.85187 0.54917 0.03083 0.0
C3360 C 0.83799 0.56483 0.01632 0.0
C3361 C 0.85747 0.55919 0.99329 0.0
C3362 C 0.83979 0.57866 0.0128 0.0
C3363 C 0.82847 0.58723 0.01111 0.0
C3364 C 0.81511 0.58218 0.01308 0.0
C3365 C 0.81336 0.56837 0.01682 0.0
C3366 C 0.82468 0.55979 0.01843 0.0
H3367 H 0.86318 0.55333 0.9854 0.0
H3368 H 0.84648 0.5594 0.99032 0.0
H3369 H 0.86141 0.56986 0.99326 0.0
H3370 H 0.84997 0.58286 0.01146 0.0
H3371 H 0.83018 0.59787 0.00846 0.0
H3372 H 0.11052 0.00407 0.04508 0.0
H3373 H 0.12986 0.98869 0.04129 0.0
H3374 H 0.10721 0.96798 0.0093 0.0
H3375 H 0.0877 0.98312 0.01317 0.0
H3376 H 0.12999 0.95919 0.04274 0.0
H3377 H 0.1441 0.97854 0.99109 0.0
H3378 H 0.13334 0.98808 0.00267 0.0
H3379 H 0.12642 0.97384 0.99318 0.0
C3380 C 0.10958 0.99618 0.03731 0.0
C3381 C 0.09754 0.99488 0.02941 0.0
C3382 C 0.12068 0.98745 0.03511 0.0
C3383 C 0.12002 0.97733 0.0249 0.0
C3384 C 0.10802 0.97591 0.01706 0.0
H3385 H 0.17726 0.91622 0.99522 0.0
H3386 H 0.15747 0.93096 0.99914 0.0
C3387 C 0.09689 0.9846 0.01927 0.0
C3388 C 0.13181 0.96808 0.02265 0.0
H3389 H 0.15591 0.95898 0.99911 0.0
C3390 C 0.1357 0.95915 0.03323 0.0
C3391 C 0.13917 0.96803 0.0102 0.0
C3392 C 0.13566 0.9777 0.99865 0.0
C3393 C 0.14666 0.95002 0.03163 0.0
C3394 C 0.15413 0.95006 0.01921 0.0
C3395 C 0.15019 0.95897 0.00862 0.0
C3396 C 0.1661 0.94098 0.01703 0.0
C3397 C 0.14993 0.94021 0.04313 0.0
C3398 C 0.17759 0.94181 0.0257 0.0
C3399 C 0.18886 0.93329 0.02358 0.0
C3400 C 0.18895 0.92384 0.01265 0.0
C3401 C 0.17747 0.92319 0.00388 0.0
C3402 C 0.16618 0.93169 0.00603 0.0
H3403 H 0.14104 0.93875 0.05005 0.0
H3404 H 0.15303 0.93005 0.03907 0.0
H3405 H 0.15853 0.94441 0.04933 0.0
H3406 H 0.17788 0.94911 0.03407 0.0
H3407 H 0.19745 0.93401 0.03061 0.0
loop_
_geom_bond_atom_site_label_1
_geom_bond_atom_site_label_2
_geom_bond_distance
_geom_bond_site_symmetry_2
_ccdc_geom_bond_type
C0 C1 1.386 . S
C0 C2 1.379 1_556 S
C0 H24 0.931 . S
C1 C0 1.386 . S
C1 C5 1.397 1_556 S
C2 C0 1.379 1_554 S
C2 C3 1.415 . S
C2 H25 0.918 1_554 S
C3 C2 1.415 . S
C3 C4 1.377 . S
C3 C6 1.481 . S
C4 C3 1.377 . S
C4 C5 1.389 . S
C4 H26 0.929 . S
C5 C1 1.397 1_554 S
C5 C4 1.389 . S
C5 H27 0.931 . S
C6 C3 1.481 . S
C6 C7 1.387 . S
C6 C11 1.390 . S
C7 C6 1.387 . S
C7 C8 1.401 . S
C7 H28 0.930 . S
C8 C7 1.401 . S
C8 C9 1.376 . S
C8 C17 1.511 . S
C9 C8 1.376 . S
C9 C10 1.392 . S
C9 H30 0.931 . S
C10 C9 1.392 . S
C10 C11 1.361 . S
C10 C12 1.500 . S
C11 C6 1.390 . S
C11 C10 1.361 . S
C11 H29 0.931 . S
C12 C10 1.500 . S
C12 C13 1.371 . S
C12 C14 1.365 . S
C13 C12 1.371 . S
C13 C23 1.386 . S
C13 H31 0.931 . S
C14 C12 1.365 . S
C14 C15 1.362 1_455 S
C14 H32 0.929 . S
C15 C14 1.362 1_655 S
C15 C16 1.395 . S
C15 H33 0.966 . S
C16 C15 1.395 . S
C16 C23 1.357 1_655 S
C17 C8 1.511 . S
C17 C18 1.341 . S
C17 C19 1.371 . S
C18 C17 1.341 . S
C18 C22 1.394 . S
C18 H34 0.930 . S
C19 C17 1.371 . S
C19 C20 1.392 1_545 S
C19 H35 0.931 . S
C20 C19 1.392 1_565 S
C20 C21 1.331 . S
C20 H38 0.932 . S
C21 C20 1.331 . S
C21 C22 1.336 1_565 S
C22 C18 1.394 . S
C22 C21 1.336 1_545 S
C22 H37 0.929 . S
C23 C13 1.386 . S
C23 C16 1.357 1_455 S
C23 H36 0.928 . S
H24 C0 0.931 . S
H25 C2 0.918 1_556 S
H26 C4 0.929 . S
H27 C5 0.931 . S
H28 C7 0.930 . S
H29 C11 0.931 . S
H30 C9 0.931 . S
H31 C13 0.931 . S
H32 C14 0.929 . S
H33 C15 0.966 . S
H34 C18 0.930 . S
H35 C19 0.931 . S
H36 C23 0.928 . S
H37 C22 0.929 . S
H38 C20 0.932 . S
C39 C40 1.386 . S
C39 C41 1.397 . S
C39 H63 0.931 . S
C40 C39 1.386 . S
C40 C44 1.397 . S
C41 C39 1.397 . S
C41 C42 1.384 . S
C41 H64 0.930 . S
C42 C41 1.384 . S
C42 C43 1.377 . S
C42 C45 1.481 . S
C43 C42 1.377 . S
C43 C44 1.389 . S
C43 H65 0.929 . S
C44 C40 1.397 . S
C44 C43 1.389 . S
C44 H66 0.931 . S
C45 C42 1.481 . S
C45 C46 1.387 . S
C45 C50 1.390 . S
C46 C45 1.387 . S
C46 C47 1.401 . S
C46 H67 0.930 . S
C47 C46 1.401 . S
C47 C48 1.376 . S
C47 C56 1.511 . S
C48 C47 1.376 . S
C48 C49 1.392 . S
C48 H69 0.931 . S
C49 C48 1.392 . S
C49 C50 1.361 . S
C49 C51 1.500 . S
C50 C45 1.390 . S
C50 C49 1.361 . S
C50 H68 0.931 . S
C51 C49 1.500 . S
C51 C52 1.371 . S
C51 C53 1.365 . S
C52 C51 1.371 . S
C52 C62 1.386 . S
C52 H70 0.931 . S
C53 C51 1.365 . S
C53 C54 1.409 . S
C53 H71 0.929 . S
C54 C53 1.409 . S
C54 C55 1.380 . S
C54 H72 0.930 . S
C55 C54 1.380 . S
C55 C62 1.357 . S
C56 C47 1.511 . S
C56 C57 1.341 . S
C56 C58 1.371 . S
C57 C56 1.341 . S
C57 C61 1.394 . S
C57 H73 0.930 . S
C58 C56 1.371 . S
C58 C59 1.392 . S
C58 H74 0.931 . S
C59 C58 1.392 . S
C59 C60 1.331 . S
C59 H77 0.932 . S
C60 C59 1.331 . S
C60 C61 1.336 . S
C61 C57 1.394 . S
C61 C60 1.336 . S
C61 H76 0.929 . S
C62 C52 1.386 . S
C62 C55 1.357 . S
C62 H75 0.928 . S
H63 C39 0.931 . S
H64 C41 0.930 . S
H65 C43 0.929 . S
H66 C44 0.931 . S
H67 C46 0.930 . S
H68 C50 0.931 . S
H69 C48 0.931 . S
H70 C52 0.931 . S
H71 C53 0.929 . S
H72 C54 0.930 . S
H73 C57 0.930 . S
H74 C58 0.931 . S
H75 C62 0.928 . S
H76 C61 0.929 . S
H77 C59 0.932 . S
C78 C79 1.386 1_655 S
C78 C80 1.397 . S
C78 H102 0.931 . S
C79 C78 1.386 1_455 S
C79 C83 1.397 . S
C80 C78 1.397 . S
C80 C81 1.384 . S
C80 H103 0.930 . S
C81 C80 1.384 . S
C81 C82 1.373 . S
C81 C84 1.481 . S
C82 C81 1.373 . S
C82 C83 1.392 1_655 S
C82 H104 0.931 1_655 S
C83 C79 1.397 . S
C83 C82 1.392 1_455 S
C83 H105 0.931 . S
C84 C81 1.481 . S
C84 C85 1.387 . S
C84 C89 1.390 . S
C85 C84 1.387 . S
C85 C86 1.401 . S
C85 H106 0.930 . S
C86 C85 1.401 . S
C86 C87 1.376 . S
C86 C95 1.511 . S
C87 C86 1.376 . S
C87 C88 1.392 . S
C87 H108 0.931 . S
C88 C87 1.392 . S
C88 C89 1.361 . S
C88 C90 1.500 . S
C89 C84 1.390 . S
C89 C88 1.361 . S
C89 H107 0.931 . S
C90 C88 1.500 . S
C90 C91 1.371 . S
C90 C92 1.365 . S
C91 C90 1.371 . S
C91 C101 1.391 1_554 S
C91 H109 0.931 . S
C92 C90 1.365 . S
C92 C93 1.409 . S
C92 H110 0.929 . S
C93 C92 1.409 . S
C93 C94 1.380 1_554 S
C93 H111 0.930 . S
C94 C93 1.380 1_556 S
C94 C101 1.356 . S
C95 C86 1.511 . S
C95 C96 1.341 . S
C95 C97 1.371 . S
C96 C95 1.341 . S
C96 C100 1.394 . S
C96 H112 0.930 . S
C97 C95 1.371 . S
C97 C98 1.392 . S
C97 H113 0.931 . S
C98 C97 1.392 . S
C98 C99 1.331 . S
C98 H116 0.932 . S
C99 C98 1.331 . S
C99 C100 1.336 . S
C100 C96 1.394 . S
C100 C99 1.336 . S
C100 H115 0.929 . S
C101 C91 1.391 1_556 S
C101 C94 1.356 . S
C101 H114 0.925 . S
H102 C78 0.931 . S
H103 C80 0.930 . S
H104 C82 0.931 1_455 S
H105 C83 0.931 . S
H106 C85 0.930 . S
H107 C89 0.931 . S
H108 C87 0.931 . S
H109 C91 0.931 . S
H110 C92 0.929 . S
H111 C93 0.930 . S
H112 C96 0.930 . S
H113 C97 0.931 . S
H114 C101 0.925 . S
H115 C100 0.929 . S
H116 C98 0.932 . S
C117 C118 1.386 . S
C117 C119 1.397 . S
C117 H141 0.931 . S
C118 C117 1.386 . S
C118 C122 1.397 . S
C119 C117 1.397 . S
C119 C120 1.384 . S
C119 H142 0.930 . S
C120 C119 1.384 . S
C120 C121 1.377 . S
C120 C123 1.481 . S
C121 C120 1.377 . S
C121 C122 1.389 . S
C121 H143 0.929 . S
C122 C118 1.397 . S
C122 C121 1.389 . S
C122 H144 0.931 . S
C123 C120 1.481 . S
C123 C124 1.387 . S
C123 C128 1.390 . S
C124 C123 1.387 . S
C124 C125 1.401 . S
C124 H145 0.930 . S
C125 C124 1.401 . S
C125 C126 1.376 . S
C125 C134 1.511 . S
C126 C125 1.376 . S
C126 C127 1.392 . S
C126 H147 0.931 . S
C127 C126 1.392 . S
C127 C128 1.361 . S
C127 C129 1.500 . S
C128 C123 1.390 . S
C128 C127 1.361 . S
C128 H146 0.931 . S
C129 C127 1.500 . S
C129 C130 1.371 . S
C129 C131 1.365 . S
C130 C129 1.371 . S
C130 C140 1.386 . S
C130 H148 0.931 . S
C131 C129 1.365 . S
C131 C132 1.409 . S
C131 H149 0.929 . S
C132 C131 1.409 . S
C132 C133 1.380 . S
C132 H150 0.930 . S
C133 C132 1.380 . S
C133 C140 1.357 . S
C134 C125 1.511 . S
C134 C135 1.341 . S
C134 C136 1.371 . S
C135 C134 1.341 . S
C135 C139 1.394 . S
C135 H151 0.930 . S
C136 C134 1.371 . S
C136 C137 1.392 . S
C136 H152 0.931 . S
C137 C136 1.392 . S
C137 C138 1.331 . S
C137 H155 0.932 . S
C138 C137 1.331 . S
C138 C139 1.336 . S
C139 C135 1.394 . S
C139 C138 1.336 . S
C139 H154 0.929 . S
C140 C130 1.386 . S
C140 C133 1.357 . S
C140 H153 0.928 . S
H141 C117 0.931 . S
H142 C119 0.930 . S
H143 C121 0.929 . S
H144 C122 0.931 . S
H145 C124 0.930 . S
H146 C128 0.931 . S
H147 C126 0.931 . S
H148 C130 0.931 . S
H149 C131 0.929 . S
H150 C132 0.930 . S
H151 C135 0.930 . S
H152 C136 0.931 . S
H153 C140 0.928 . S
H154 C139 0.929 . S
H155 C137 0.932 . S
C156 C157 1.386 . S
C156 C158 1.391 1_655 S
C156 H180 0.931 . S
C157 C156 1.386 . S
C157 C161 1.397 1_655 S
C158 C156 1.391 1_455 S
C158 C159 1.394 . S
C158 H181 0.926 1_455 S
C159 C158 1.394 . S
C159 C160 1.377 . S
C159 C162 1.481 . S
C160 C159 1.377 . S
C160 C161 1.389 . S
C160 H182 0.929 . S
C161 C157 1.397 1_455 S
C161 C160 1.389 . S
C161 H183 0.931 . S
C162 C159 1.481 . S
C162 C163 1.387 . S
C162 C167 1.390 . S
C163 C162 1.387 . S
C163 C164 1.401 . S
C163 H184 0.930 . S
C164 C163 1.401 . S
C164 C165 1.376 . S
C164 C173 1.511 . S
C165 C164 1.376 . S
C165 C166 1.392 . S
C165 H186 0.931 . S
C166 C165 1.392 . S
C166 C167 1.361 . S
C166 C168 1.500 . S
C167 C162 1.390 . S
C167 C166 1.361 . S
C167 H185 0.931 . S
C168 C166 1.500 . S
C168 C169 1.371 . S
C168 C170 1.365 . S
C169 C168 1.371 . S
C169 C179 1.420 . S
C169 H187 0.931 . S
C170 C168 1.365 . S
C170 C171 1.409 1_565 S
C170 H188 0.929 . S
C171 C170 1.409 1_545 S
C171 C172 1.380 . S
C171 H189 0.930 . S
C172 C171 1.380 . S
C172 C179 1.334 1_545 S
C173 C164 1.511 . S
C173 C174 1.341 . S
C173 C175 1.371 . S
C174 C173 1.341 . S
C174 C178 1.394 . S
C174 H190 0.930 . S
C175 C173 1.371 . S
C175 C176 1.392 . S
C175 H191 0.931 . S
C176 C175 1.392 . S
C176 C177 1.331 . S
C176 H194 0.932 . S
C177 C176 1.331 . S
C177 C178 1.336 . S
C178 C174 1.394 . S
C178 C177 1.336 . S
C178 H193 0.929 . S
C179 C169 1.420 . S
C179 C172 1.334 1_565 S
C179 H192 0.920 1_565 S
H180 C156 0.931 . S
H181 C158 0.926 1_655 S
H182 C160 0.929 . S
H183 C161 0.931 . S
H184 C163 0.930 . S
H185 C167 0.931 . S
H186 C165 0.931 . S
H187 C169 0.931 . S
H188 C170 0.929 . S
H189 C171 0.930 . S
H190 C174 0.930 . S
H191 C175 0.931 . S
H192 C179 0.920 1_545 S
H193 C178 0.929 . S
H194 C176 0.932 . S
C195 C196 1.386 . S
C195 C197 1.397 . S
C195 H219 0.931 . S
C196 C195 1.386 . S
C196 C200 1.397 . S
C197 C195 1.397 . S
C197 C198 1.384 . S
C197 H220 0.930 . S
C198 C197 1.384 . S
C198 C199 1.377 . S
C198 C201 1.481 . S
C199 C198 1.377 . S
C199 C200 1.389 . S
C199 H221 0.929 . S
C200 C196 1.397 . S
C200 C199 1.389 . S
C200 H222 0.931 . S
C201 C198 1.481 . S
C201 C202 1.387 . S
C201 C206 1.390 . S
C202 C201 1.387 . S
C202 C203 1.401 . S
C202 H223 0.930 . S
C203 C202 1.401 . S
C203 C204 1.376 . S
C203 C212 1.511 . S
C204 C203 1.376 . S
C204 C205 1.392 . S
C204 H225 0.931 . S
C205 C204 1.392 . S
C205 C206 1.361 . S
C205 C207 1.500 . S
C206 C201 1.390 . S
C206 C205 1.361 . S
C206 H224 0.931 . S
C207 C205 1.500 . S
C207 C208 1.371 . S
C207 C209 1.365 . S
C208 C207 1.371 . S
C208 C218 1.386 . S
C208 H226 0.931 . S
C209 C207 1.365 . S
C209 C210 1.409 . S
C209 H227 0.929 . S
C210 C209 1.409 . S
C210 C211 1.380 . S
C210 H228 0.930 . S
C211 C210 1.380 . S
C211 C218 1.357 . S
C212 C203 1.511 . S
C212 C213 1.341 . S
C212 C214 1.371 . S
C213 C212 1.341 . S
C213 C217 1.394 . S
C213 H229 0.930 . S
C214 C212 1.371 . S
C214 C215 1.392 . S
C214 H230 0.931 . S
C215 C214 1.392 . S
C215 C216 1.331 . S
C215 H233 0.932 . S
C216 C215 1.331 . S
C216 C217 1.336 . S
C217 C213 1.394 . S
C217 C216 1.336 . S
C217 H232 0.929 . S
C218 C208 1.386 . S
C218 C211 1.357 . S
C218 H231 0.928 . S
H219 C195 0.931 . S
H220 C197 0.930 . S
H221 C199 0.929 . S
H222 C200 0.931 . S
H223 C202 0.930 . S
H224 C206 0.931 . S
H225 C204 0.931 . S
H226 C208 0.931 . S
H227 C209 0.929 . S
H228 C210 0.930 . S
H229 C213 0.930 . S
H230 C214 0.931 . S
H231 C218 0.928 . S
H232 C217 0.929 . S
H233 C215 0.932 . S
C234 C235 1.386 . S
C234 C236 1.397 . S
C234 H258 0.931 . S
C235 C234 1.386 . S
C235 C239 1.397 . S
C236 C234 1.397 . S
C236 C237 1.384 . S
C236 H259 0.930 . S
C237 C236 1.384 . S
C237 C238 1.377 . S
C237 C240 1.481 . S
C238 C237 1.377 . S
C238 C239 1.389 . S
C238 H260 0.929 . S
C239 C235 1.397 . S
C239 C238 1.389 . S
C239 H261 0.931 . S
C240 C237 1.481 . S
C240 C241 1.387 . S
C240 C245 1.390 . S
C241 C240 1.387 . S
C241 C242 1.401 . S
C241 H262 0.930 . S
C242 C241 1.401 . S
C242 C243 1.376 . S
C242 C251 1.511 . S
C243 C242 1.376 . S
C243 C244 1.392 . S
C243 H264 0.931 . S
C244 C243 1.392 . S
C244 C245 1.361 . S
C244 C246 1.500 . S
C245 C240 1.390 . S
C245 C244 1.361 . S
C245 H263 0.931 . S
C246 C244 1.500 . S
C246 C247 1.371 . S
C246 C248 1.365 . S
C247 C246 1.371 . S
C247 C257 1.386 . S
C247 H265 0.931 . S
C248 C246 1.365 . S
C248 C249 1.409 . S
C248 H266 0.929 . S
C249 C248 1.409 . S
C249 C250 1.380 . S
C249 H267 0.930 . S
C250 C249 1.380 . S
C250 C257 1.357 . S
C251 C242 1.511 . S
C251 C252 1.341 . S
C251 C253 1.371 . S
C252 C251 1.341 . S
C252 C256 1.394 1_655 S
C252 H268 0.930 . S
C253 C251 1.371 . S
C253 C254 1.392 . S
C253 H269 0.931 . S
C254 C253 1.392 . S
C254 C255 1.331 1_655 S
C254 H272 0.932 . S
C255 C254 1.331 1_455 S
C255 C256 1.336 . S
C256 C252 1.394 1_455 S
C256 C255 1.336 . S
C256 H271 0.929 . S
C257 C247 1.386 . S
C257 C250 1.357 . S
C257 H270 0.928 . S
H258 C234 0.931 . S
H259 C236 0.930 . S
H260 C238 0.929 . S
H261 C239 0.931 . S
H262 C241 0.930 . S
H263 C245 0.931 . S
H264 C243 0.931 . S
H265 C247 0.931 . S
H266 C248 0.929 . S
H267 C249 0.930 . S
H268 C252 0.930 . S
H269 C253 0.931 . S
H270 C257 0.928 . S
H271 C256 0.929 . S
H272 C254 0.932 . S
C273 C274 1.386 . S
C273 C275 1.397 . S
C273 H297 0.931 . S
C274 C273 1.386 . S
C274 C278 1.397 . S
C275 C273 1.397 . S
C275 C276 1.384 . S
C275 H298 0.930 . S
C276 C275 1.384 . S
C276 C277 1.377 . S
C276 C279 1.481 . S
C277 C276 1.377 . S
C277 C278 1.389 . S
C277 H299 0.929 . S
C278 C274 1.397 . S
C278 C277 1.389 . S
C278 H300 0.931 . S
C279 C276 1.481 . S
C279 C280 1.387 . S
C279 C284 1.390 . S
C280 C279 1.387 . S
C280 C281 1.401 . S
C280 H301 0.930 . S
C281 C280 1.401 . S
C281 C282 1.376 . S
C281 C290 1.511 . S
C282 C281 1.376 . S
C282 C283 1.392 . S
C282 H303 0.931 . S
C283 C282 1.392 . S
C283 C284 1.361 . S
C283 C285 1.500 . S
C284 C279 1.390 . S
C284 C283 1.361 . S
C284 H302 0.931 . S
C285 C283 1.500 . S
C285 C286 1.371 . S
C285 C287 1.365 . S
C286 C285 1.371 . S
C286 C296 1.386 . S
C286 H304 0.931 . S
C287 C285 1.365 . S
C287 C288 1.409 . S
C287 H305 0.929 . S
C288 C287 1.409 . S
C288 C289 1.380 . S
C288 H306 0.930 . S
C289 C288 1.380 . S
C289 C296 1.357 . S
C290 C281 1.511 . S
C290 C291 1.341 . S
C290 C292 1.371 . S
C291 C290 1.341 . S
C291 C295 1.394 . S
C291 H307 0.930 . S
C292 C290 1.371 . S
C292 C293 1.392 . S
C292 H308 0.931 . S
C293 C292 1.392 . S
C293 C294 1.331 . S
C293 H311 0.932 . S
C294 C293 1.331 . S
C294 C295 1.336 . S
C295 C291 1.394 . S
C295 C294 1.336 . S
C295 H310 0.929 . S
C296 C286 1.386 . S
C296 C289 1.357 . S
C296 H309 0.928 . S
H297 C273 0.931 . S
H298 C275 0.930 . S
H299 C277 0.929 . S
H300 C278 0.931 . S
H301 C280 0.930 . S
H302 C284 0.931 . S
H303 C282 0.931 . S
H304 C286 0.931 . S
H305 C287 0.929 . S
H306 C288 0.930 . S
H307 C291 0.930 . S
H308 C292 0.931 . S
H309 C296 0.928 . S
H310 C295 0.929 . S
H311 C293 0.932 . S
C312 C313 1.386 . S
C312 C314 1.397 . S
C312 H336 0.931 . S
C313 C312 1.386 . S
C313 C317 1.397 . S
C314 C312 1.397 . S
C314 C315 1.384 . S
C314 H337 0.930 . S
C315 C314 1.384 . S
C315 C316 1.377 . S
C315 C318 1.481 . S
C316 C315 1.377 . S
C316 C317 1.389 . S
C316 H338 0.929 . S
C317 C313 1.397 . S
C317 C316 1.389 . S
C317 H339 0.931 . S
C318 C315 1.481 . S
C318 C319 1.387 . S
C318 C323 1.390 . S
C319 C318 1.387 . S
C319 C320 1.401 . S
C319 H340 0.930 . S
C320 C319 1.401 . S
C320 C321 1.376 . S
C320 C329 1.511 . S
C321 C320 1.376 . S
C321 C322 1.392 . S
C321 H342 0.931 . S
C322 C321 1.392 . S
C322 C323 1.361 . S
C322 C324 1.500 . S
C323 C318 1.390 . S
C323 C322 1.361 . S
C323 H341 0.931 . S
C324 C322 1.500 . S
C324 C325 1.371 . S
C324 C326 1.365 . S
C325 C324 1.371 . S
C325 C335 1.386 . S
C325 H343 0.931 . S
C326 C324 1.365 . S
C326 C327 1.409 . S
C326 H344 0.929 . S
C327 C326 1.409 . S
C327 C328 1.380 . S
C327 H345 0.930 . S
C328 C327 1.380 . S
C328 C335 1.357 . S
C329 C320 1.511 . S
C329 C330 1.341 . S
C329 C331 1.371 . S
C330 C329 1.341 . S
C330 C334 1.394 . S
C330 H346 0.930 . S
C331 C329 1.371 . S
C331 C332 1.392 . S
C331 H347 0.931 . S
C332 C331 1.392 . S
C332 C333 1.331 . S
C332 H350 0.932 . S
C333 C332 1.331 . S
C333 C334 1.336 . S
C334 C330 1.394 . S
C334 C333 1.336 . S
C334 H349 0.929 . S
C335 C325 1.386 . S
C335 C328 1.357 . S
C335 H348 0.928 . S
H336 C312 0.931 . S
H337 C314 0.930 . S
H338 C316 0.929 . S
H339 C317 0.931 . S
H340 C319 0.930 . S
H341 C323 0.931 . S
H342 C321 0.931 . S
H343 C325 0.931 . S
H344 C326 0.929 . S
H345 C327 0.930 . S
H346 C330 0.930 . S
H347 C331 0.931 . S
H348 C335 0.928 . S
H349 C334 0.929 . S
H350 C332 0.932 . S
C351 C352 1.386 . S
C351 C353 1.397 . S
C351 H375 0.931 . S
C352 C351 1.386 . S
C352 C356 1.397 . S
C353 C351 1.397 . S
C353 C354 1.384 . S
C353 H376 0.930 . S
C354 C353 1.384 . S
C354 C355 1.377 . S
C354 C357 1.481 . S
C355 C354 1.377 . S
C355 C356 1.389 . S
C355 H377 0.929 . S
C356 C352 1.397 . S
C356 C355 1.389 . S
C356 H378 0.931 . S
C357 C354 1.481 . S
C357 C358 1.387 . S
C357 C362 1.390 . S
C358 C357 1.387 . S
C358 C359 1.401 . S
C358 H379 0.930 . S
C359 C358 1.401 . S
C359 C360 1.376 . S
C359 C368 1.511 . S
C360 C359 1.376 . S
C360 C361 1.392 . S
C360 H381 0.931 . S
C361 C360 1.392 . S
C361 C362 1.361 . S
C361 C363 1.500 . S
C362 C357 1.390 . S
C362 C361 1.361 . S
C362 H380 0.931 . S
C363 C361 1.500 . S
C363 C364 1.371 . S
C363 C365 1.365 . S
C364 C363 1.371 . S
C364 C374 1.386 . S
C364 H382 0.931 . S
C365 C363 1.365 . S
C365 C366 1.409 . S
C365 H383 0.929 . S
C366 C365 1.409 . S
C366 C367 1.380 . S
C366 H384 0.930 . S
C367 C366 1.380 . S
C367 C374 1.357 . S
C368 C359 1.511 . S
C368 C369 1.341 . S
C368 C370 1.371 . S
C369 C368 1.341 . S
C369 C373 1.394 1_565 S
C369 H385 0.930 . S
C370 C368 1.371 . S
C370 C371 1.392 . S
C370 H386 0.931 . S
C371 C370 1.392 . S
C371 C372 1.331 1_565 S
C371 H389 0.932 . S
C372 C371 1.331 1_545 S
C372 C373 1.336 . S
C373 C369 1.394 1_545 S
C373 C372 1.336 . S
C373 H388 0.929 . S
C374 C364 1.386 . S
C374 C367 1.357 . S
C374 H387 0.928 . S
H375 C351 0.931 . S
H376 C353 0.930 . S
H377 C355 0.929 . S
H378 C356 0.931 . S
H379 C358 0.930 . S
H380 C362 0.931 . S
H381 C360 0.931 . S
H382 C364 0.931 . S
H383 C365 0.929 . S
H384 C366 0.930 . S
H385 C369 0.930 . S
H386 C370 0.931 . S
H387 C374 0.928 . S
H388 C373 0.929 . S
H389 C371 0.932 . S
C390 C391 1.386 . S
C390 C392 1.397 . S
C390 H414 0.931 . S
C391 C390 1.386 . S
C391 C395 1.397 . S
C392 C390 1.397 . S
C392 C393 1.384 . S
C392 H415 0.930 . S
C393 C392 1.384 . S
C393 C394 1.377 . S
C393 C396 1.481 . S
C394 C393 1.377 . S
C394 C395 1.389 . S
C394 H416 0.929 . S
C395 C391 1.397 . S
C395 C394 1.389 . S
C395 H417 0.931 . S
C396 C393 1.481 . S
C396 C397 1.387 . S
C396 C401 1.390 . S
C397 C396 1.387 . S
C397 C398 1.401 . S
C397 H418 0.930 . S
C398 C397 1.401 . S
C398 C399 1.376 . S
C398 C407 1.511 . S
C399 C398 1.376 . S
C399 C400 1.392 . S
C399 H420 0.931 . S
C400 C399 1.392 . S
C400 C401 1.361 . S
C400 C402 1.500 . S
C401 C396 1.390 . S
C401 C400 1.361 . S
C401 H419 0.931 . S
C402 C400 1.500 . S
C402 C403 1.371 . S
C402 C404 1.365 . S
C403 C402 1.371 . S
C403 C413 1.386 . S
C403 H421 0.931 . S
C404 C402 1.365 . S
C404 C405 1.409 . S
C404 H422 0.929 . S
C405 C404 1.409 . S
C405 C406 1.380 . S
C405 H423 0.930 . S
C406 C405 1.380 . S
C406 C413 1.357 . S
C407 C398 1.511 . S
C407 C408 1.341 . S
C407 C409 1.371 . S
C408 C407 1.341 . S
C408 C412 1.394 . S
C408 H424 0.930 . S
C409 C407 1.371 . S
C409 C410 1.392 . S
C409 H425 0.931 . S
C410 C409 1.392 . S
C410 C411 1.331 . S
C410 H428 0.932 . S
C411 C410 1.331 . S
C411 C412 1.336 . S
C412 C408 1.394 . S
C412 C411 1.336 . S
C412 H427 0.929 . S
C413 C403 1.386 . S
C413 C406 1.357 . S
C413 H426 0.928 . S
H414 C390 0.931 . S
H415 C392 0.930 . S
H416 C394 0.929 . S
H417 C395 0.931 . S
H418 C397 0.930 . S
H419 C401 0.931 . S
H420 C399 0.931 . S
H421 C403 0.931 . S
H422 C404 0.929 . S
H423 C405 0.930 . S
H424 C408 0.930 . S
H425 C409 0.931 . S
H426 C413 0.928 . S
H427 C412 0.929 . S
H428 C410 0.932 . S
C429 C430 1.386 . S
C429 C431 1.397 . S
C429 H453 0.931 . S
C430 C429 1.386 . S
C430 C434 1.397 . S
C431 C429 1.397 . S
C431 C432 1.384 . S
C431 H454 0.930 . S
C432 C431 1.384 . S
C432 C433 1.377 . S
C432 C435 1.481 . S
C433 C432 1.377 . S
C433 C434 1.389 . S
C433 H455 0.929 . S
C434 C430 1.397 . S
C434 C433 1.389 . S
C434 H456 0.931 . S
C435 C432 1.481 . S
C435 C436 1.387 . S
C435 C440 1.390 . S
C436 C435 1.387 . S
C436 C437 1.401 . S
C436 H457 0.930 . S
C437 C436 1.401 . S
C437 C438 1.376 . S
C437 C446 1.511 . S
C438 C437 1.376 . S
C438 C439 1.392 . S
C438 H459 0.931 . S
C439 C438 1.392 . S
C439 C440 1.361 . S
C439 C441 1.500 . S
C440 C435 1.390 . S
C440 C439 1.361 . S
C440 H458 0.931 . S
C441 C439 1.500 . S
C441 C442 1.371 . S
C441 C443 1.365 . S
C442 C441 1.371 . S
C442 C452 1.386 . S
C442 H460 0.931 . S
C443 C441 1.365 . S
C443 C444 1.409 . S
C443 H461 0.929 . S
C444 C443 1.409 . S
C444 C445 1.380 . S
C444 H462 0.930 . S
C445 C444 1.380 . S
C445 C452 1.357 . S
C446 C437 1.511 . S
C446 C447 1.341 . S
C446 C448 1.371 . S
C447 C446 1.341 . S
C447 C451 1.394 . S
C447 H463 0.930 . S
C448 C446 1.371 . S
C448 C449 1.392 . S
C448 H464 0.931 . S
C449 C448 1.392 . S
C449 C450 1.331 . S
C449 H467 0.932 . S
C450 C449 1.331 . S
C450 C451 1.336 . S
C451 C447 1.394 . S
C451 C450 1.336 . S
C451 H466 0.929 . S
C452 C442 1.386 . S
C452 C445 1.357 . S
C452 H465 0.928 . S
H453 C429 0.931 . S
H454 C431 0.930 . S
H455 C433 0.929 . S
H456 C434 0.931 . S
H457 C436 0.930 . S
H458 C440 0.931 . S
H459 C438 0.931 . S
H460 C442 0.931 . S
H461 C443 0.929 . S
H462 C444 0.930 . S
H463 C447 0.930 . S
H464 C448 0.931 . S
H465 C452 0.928 . S
H466 C451 0.929 . S
H467 C449 0.932 . S
C468 C469 1.386 . S
C468 C470 1.397 . S
C468 H492 0.931 . S
C469 C468 1.386 . S
C469 C473 1.397 . S
C470 C468 1.397 . S
C470 C471 1.384 . S
C470 H493 0.930 . S
C471 C470 1.384 . S
C471 C472 1.377 . S
C471 C474 1.481 . S
C472 C471 1.377 . S
C472 C473 1.389 . S
C472 H494 0.929 . S
C473 C469 1.397 . S
C473 C472 1.389 . S
C473 H495 0.931 . S
C474 C471 1.481 . S
C474 C475 1.387 . S
C474 C479 1.390 . S
C475 C474 1.387 . S
C475 C476 1.401 . S
C475 H496 0.930 . S
C476 C475 1.401 . S
C476 C477 1.376 . S
C476 C485 1.511 . S
C477 C476 1.376 . S
C477 C478 1.392 . S
C477 H498 0.931 . S
C478 C477 1.392 . S
C478 C479 1.361 . S
C478 C480 1.500 . S
C479 C474 1.390 . S
C479 C478 1.361 . S
C479 H497 0.931 . S
C480 C478 1.500 . S
C480 C481 1.371 . S
C480 C482 1.365 . S
C481 C480 1.371 . S
C481 C491 1.386 . S
C481 H499 0.931 . S
C482 C480 1.365 . S
C482 C483 1.409 . S
C482 H500 0.929 . S
C483 C482 1.409 . S
C483 C484 1.380 . S
C483 H501 0.930 . S
C484 C483 1.380 . S
C484 C491 1.357 . S
C485 C476 1.511 . S
C485 C486 1.341 . S
C485 C487 1.371 . S
C486 C485 1.341 . S
C486 C490 1.394 . S
C486 H502 0.930 . S
C487 C485 1.371 . S
C487 C488 1.392 . S
C487 H503 0.931 . S
C488 C487 1.392 . S
C488 C489 1.331 . S
C488 H506 0.932 . S
C489 C488 1.331 . S
C489 C490 1.336 . S
C490 C486 1.394 . S
C490 C489 1.336 . S
C490 H505 0.929 . S
C491 C481 1.386 . S
C491 C484 1.357 . S
C491 H504 0.928 . S
H492 C468 0.931 . S
H493 C470 0.930 . S
H494 C472 0.929 . S
H495 C473 0.931 . S
H496 C475 0.930 . S
H497 C479 0.931 . S
H498 C477 0.931 . S
H499 C481 0.931 . S
H500 C482 0.929 . S
H501 C483 0.930 . S
H502 C486 0.930 . S
H503 C487 0.931 . S
H504 C491 0.928 . S
H505 C490 0.929 . S
H506 C488 0.932 . S
C507 C508 1.386 . S
C507 C509 1.397 . S
C507 H531 0.931 . S
C508 C507 1.386 . S
C508 C512 1.397 . S
C509 C507 1.397 . S
C509 C510 1.384 . S
C509 H532 0.930 . S
C510 C509 1.384 . S
C510 C511 1.377 . S
C510 C513 1.481 . S
C511 C510 1.377 . S
C511 C512 1.389 . S
C511 H533 0.929 . S
C512 C508 1.397 . S
C512 C511 1.389 . S
C512 H534 0.931 . S
C513 C510 1.481 . S
C513 C514 1.387 . S
C513 C518 1.390 . S
C514 C513 1.387 . S
C514 C515 1.401 . S
C514 H535 0.930 . S
C515 C514 1.401 . S
C515 C516 1.376 . S
C515 C524 1.511 . S
C516 C515 1.376 . S
C516 C517 1.392 . S
C516 H537 0.931 . S
C517 C516 1.392 . S
C517 C518 1.361 . S
C517 C519 1.500 . S
C518 C513 1.390 . S
C518 C517 1.361 . S
C518 H536 0.931 . S
C519 C517 1.500 . S
C519 C520 1.371 . S
C519 C521 1.365 . S
C520 C519 1.371 . S
C520 C530 1.386 . S
C520 H538 0.931 . S
C521 C519 1.365 . S
C521 C522 1.409 . S
C521 H539 0.929 . S
C522 C521 1.409 . S
C522 C523 1.380 . S
C522 H540 0.930 . S
C523 C522 1.380 . S
C523 C530 1.357 . S
C524 C515 1.511 . S
C524 C525 1.341 . S
C524 C526 1.371 . S
C525 C524 1.341 . S
C525 C529 1.394 . S
C525 H541 0.930 . S
C526 C524 1.371 . S
C526 C527 1.392 1_556 S
C526 H542 0.931 . S
C527 C526 1.392 1_554 S
C527 C528 1.331 . S
C527 H545 0.932 . S
C528 C527 1.331 . S
C528 C529 1.336 1_554 S
C529 C525 1.394 . S
C529 C528 1.336 1_556 S
C529 H544 0.929 . S
C530 C520 1.386 . S
C530 C523 1.357 . S
C530 H543 0.928 . S
H531 C507 0.931 . S
H532 C509 0.930 . S
H533 C511 0.929 . S
H534 C512 0.931 . S
H535 C514 0.930 . S
H536 C518 0.931 . S
H537 C516 0.931 . S
H538 C520 0.931 . S
H539 C521 0.929 . S
H540 C522 0.930 . S
H541 C525 0.930 . S
H542 C526 0.931 . S
H543 C530 0.928 . S
H544 C529 0.929 . S
H545 C527 0.932 . S
C546 C547 1.386 . S
C546 C548 1.397 . S
C546 H570 0.931 . S
C547 C546 1.386 . S
C547 C551 1.397 . S
C548 C546 1.397 . S
C548 C549 1.384 . S
C548 H571 0.930 . S
C549 C548 1.384 . S
C549 C550 1.377 . S
C549 C552 1.481 . S
C550 C549 1.377 . S
C550 C551 1.389 . S
C550 H572 0.929 . S
C551 C547 1.397 . S
C551 C550 1.389 . S
C551 H573 0.931 . S
C552 C549 1.481 . S
C552 C553 1.387 . S
C552 C557 1.390 . S
C553 C552 1.387 . S
C553 C554 1.401 . S
C553 H574 0.930 . S
C554 C553 1.401 . S
C554 C555 1.376 . S
C554 C563 1.511 . S
C555 C554 1.376 . S
C555 C556 1.392 . S
C555 H576 0.931 . S
C556 C555 1.392 . S
C556 C557 1.361 . S
C556 C558 1.500 . S
C557 C552 1.390 . S
C557 C556 1.361 . S
C557 H575 0.931 . S
C558 C556 1.500 . S
C558 C559 1.371 . S
C558 C560 1.365 . S
C559 C558 1.371 . S
C559 C569 1.386 . S
C559 H577 0.931 . S
C560 C558 1.365 . S
C560 C561 1.409 . S
C560 H578 0.929 . S
C561 C560 1.409 . S
C561 C562 1.380 . S
C561 H579 0.930 . S
C562 C561 1.380 . S
C562 C569 1.357 . S
C563 C554 1.511 . S
C563 C564 1.341 . S
C563 C565 1.371 . S
C564 C563 1.341 . S
C564 C568 1.394 . S
C564 H580 0.930 . S
C565 C563 1.371 . S
C565 C566 1.392 . S
C565 H581 0.931 . S
C566 C565 1.392 . S
C566 C567 1.331 . S
C566 H584 0.932 . S
C567 C566 1.331 . S
C567 C568 1.336 . S
C568 C564 1.394 . S
C568 C567 1.336 . S
C568 H583 0.929 . S
C569 C559 1.386 . S
C569 C562 1.357 . S
C569 H582 0.928 . S
H570 C546 0.931 . S
H571 C548 0.930 . S
H572 C550 0.929 . S
H573 C551 0.931 . S
H574 C553 0.930 . S
H575 C557 0.931 . S
H576 C555 0.931 . S
H577 C559 0.931 . S
H578 C560 0.929 . S
H579 C561 0.930 . S
H580 C564 0.930 . S
H581 C565 0.931 . S
H582 C569 0.928 . S
H583 C568 0.929 . S
H584 C566 0.932 . S
C585 C586 1.386 1_556 S
C585 C587 1.397 . S
C585 H609 0.931 . S
C586 C585 1.386 1_554 S
C586 C590 1.397 . S
C587 C585 1.397 . S
C587 C588 1.384 . S
C587 H610 0.930 . S
C588 C587 1.384 . S
C588 C589 1.377 1_556 S
C588 C591 1.481 . S
C589 C588 1.377 1_554 S
C589 C590 1.389 . S
C589 H611 0.929 . S
C590 C586 1.397 . S
C590 C589 1.389 . S
C590 H612 0.931 . S
C591 C588 1.481 . S
C591 C592 1.387 . S
C591 C596 1.390 . S
C592 C591 1.387 . S
C592 C593 1.401 . S
C592 H613 0.930 . S
C593 C592 1.401 . S
C593 C594 1.376 . S
C593 C602 1.511 . S
C594 C593 1.376 . S
C594 C595 1.392 . S
C594 H615 0.931 . S
C595 C594 1.392 . S
C595 C596 1.361 . S
C595 C597 1.500 . S
C596 C591 1.390 . S
C596 C595 1.361 . S
C596 H614 0.931 . S
C597 C595 1.500 . S
C597 C598 1.371 . S
C597 C599 1.365 . S
C598 C597 1.371 . S
C598 C608 1.386 1_545 S
C598 H616 0.931 . S
C599 C597 1.365 . S
C599 C600 1.409 . S
C599 H617 0.929 . S
C600 C599 1.409 . S
C600 C601 1.380 1_545 S
C600 H618 0.930 . S
C601 C600 1.380 1_565 S
C601 C608 1.357 . S
C602 C593 1.511 . S
C602 C603 1.341 . S
C602 C604 1.371 . S
C603 C602 1.341 . S
C603 C607 1.394 . S
C603 H619 0.930 . S
C604 C602 1.371 . S
C604 C605 1.392 . S
C604 H620 0.931 . S
C605 C604 1.392 . S
C605 C606 1.331 . S
C605 H623 0.932 . S
C606 C605 1.331 . S
C606 C607 1.336 . S
C607 C603 1.394 . S
C607 C606 1.336 . S
C607 H622 0.929 . S
C608 C598 1.386 1_565 S
C608 C601 1.357 . S
C608 H621 0.928 . S
H609 C585 0.931 . S
H610 C587 0.930 . S
H611 C589 0.929 . S
H612 C590 0.931 . S
H613 C592 0.930 . S
H614 C596 0.931 . S
H615 C594 0.931 . S
H616 C598 0.931 . S
H617 C599 0.929 . S
H618 C600 0.930 . S
H619 C603 0.930 . S
H620 C604 0.931 . S
H621 C608 0.928 . S
H622 C607 0.929 . S
H623 C605 0.932 . S
Li624 N641 1.990 . S
Li624 O684 1.959 . S
Li624 O685 1.970 1_556 S
Li624 O686 1.961 . S
Li625 N649 1.990 . S
Li625 O684 1.911 1_554 S
Li625 O685 1.956 . S
Li625 O687 1.961 . S
Li626 N671 1.990 . S
Li626 O684 2.007 . S
Li626 O686 1.956 . S
Li626 O687 1.970 1_556 S
Li627 N677 1.990 . S
Li627 O685 1.961 . S
Li627 O686 1.970 1_554 S
Li627 O687 1.956 . S
C628 C630 1.348 1_556 S
C628 C631 1.356 . S
C628 O684 1.337 . S
N629 C632 1.314 1_556 S
N629 C633 1.279 . S
C630 C628 1.348 1_554 S
C630 C632 1.353 . S
C630 H688 0.929 . S
C631 C628 1.356 . S
C631 C633 1.358 . S
C631 H689 0.930 . S
C632 N629 1.314 1_554 S
C632 C630 1.353 . S
C632 H690 0.930 . S
C633 N629 1.279 . S
C633 C631 1.358 . S
C633 H691 0.930 . S
C634 C637 1.348 . S
C634 C638 1.356 . S
C634 O685 1.325 . S
C635 N636 1.279 . S
C635 C638 1.358 . S
C635 H692 0.930 . S
N636 C635 1.279 . S
N636 C639 1.314 . S
C637 C634 1.348 . S
C637 C639 1.353 . S
C637 H693 0.929 . S
C638 C634 1.356 . S
C638 C635 1.358 . S
C638 H694 0.930 . S
C639 N636 1.314 . S
C639 C637 1.353 . S
C639 H695 0.930 . S
C640 N641 1.314 . S
C640 C645 1.353 . S
C640 H646 0.930 . S
N641 Li624 1.990 . S
N641 C640 1.314 . S
N641 C643 1.279 . S
C642 C643 1.358 . S
C642 C644 1.356 . S
C642 H696 0.930 . S
C643 N641 1.279 . S
C643 C642 1.358 . S
C643 H647 0.951 . S
C644 C642 1.356 . S
C644 C645 1.348 . S
C645 C640 1.353 . S
C645 C644 1.348 . S
C645 H697 0.929 . S
H646 C640 0.930 . S
H647 C643 0.951 . S
C648 N649 1.314 . S
C648 C650 1.353 . S
C648 H654 0.930 . S
N649 Li625 1.990 . S
N649 C648 1.314 . S
N649 C652 1.279 . S
C650 C648 1.353 . S
C650 C653 1.348 . S
C650 H698 0.929 . S
C651 C652 1.358 . S
C651 C653 1.356 . S
C651 H699 0.930 . S
C652 N649 1.279 . S
C652 C651 1.358 . S
C652 H655 0.930 . S
C653 C650 1.348 . S
C653 C651 1.356 . S
H654 C648 0.930 . S
H655 C652 0.930 . S
C656 C658 1.348 . S
C656 C659 1.356 . S
C656 O686 1.325 . S
N657 C660 1.314 . S
N657 C661 1.279 . S
C658 C656 1.348 . S
C658 C660 1.353 . S
C658 H700 0.929 . S
C659 C656 1.356 . S
C659 C661 1.358 . S
C659 H701 0.930 . S
C660 N657 1.314 . S
C660 C658 1.353 . S
C660 H702 0.930 . S
C661 N657 1.279 . S
C661 C659 1.358 . S
C661 H703 0.930 . S
C662 C663 1.348 1_554 S
C662 C664 1.356 . S
C662 O687 1.325 . S
C663 C662 1.348 1_556 S
C663 C665 1.353 . S
C663 H704 0.929 . S
C664 C662 1.356 . S
C664 C666 1.358 . S
C664 H705 0.930 . S
C665 C663 1.353 . S
C665 N667 1.314 1_556 S
C665 H706 0.930 . S
C666 C664 1.358 . S
C666 N667 1.279 . S
C666 H707 0.930 . S
N667 C665 1.314 1_554 S
N667 C666 1.279 . S
C668 C670 1.353 . S
C668 N671 1.314 . S
C668 H674 0.930 . S
C669 N671 1.279 . S
C669 C672 1.358 . S
C669 H675 0.930 . S
C670 C668 1.353 . S
C670 C673 1.348 . S
C670 H708 0.929 . S
N671 Li626 1.990 . S
N671 C668 1.314 . S
N671 C669 1.279 . S
C672 C669 1.358 . S
C672 C673 1.356 . S
C672 H709 0.930 . S
C673 C670 1.348 . S
C673 C672 1.356 . S
H674 C668 0.930 . S
H675 C669 0.930 . S
C676 N677 1.314 . S
C676 C678 1.353 . S
C676 H682 0.930 . S
N677 Li627 1.990 . S
N677 C676 1.314 . S
N677 C680 1.279 . S
C678 C676 1.353 . S
C678 C681 1.348 . S
C678 H710 0.929 . S
C679 C680 1.358 . S
C679 C681 1.356 . S
C679 H711 0.930 . S
C680 N677 1.279 . S
C680 C679 1.358 . S
C680 H683 0.930 . S
C681 C678 1.348 . S
C681 C679 1.356 . S
H682 C676 0.930 . S
H683 C680 0.930 . S
O684 Li624 1.959 . S
O684 Li625 1.911 1_556 S
O684 Li626 2.007 . S
O684 C628 1.337 . S
O685 Li624 1.970 1_554 S
O685 Li625 1.956 . S
O685 Li627 1.961 . S
O685 C634 1.325 . S
O686 Li624 1.961 . S
O686 Li626 1.956 . S
O686 Li627 1.970 1_556 S
O686 C656 1.325 . S
O687 Li625 1.961 . S
O687 Li626 1.970 1_554 S
O687 Li627 1.956 . S
O687 C662 1.325 . S
H688 C630 0.929 . S
H689 C631 0.930 . S
H690 C632 0.930 . S
H691 C633 0.930 . S
H692 C635 0.930 . S
H693 C637 0.929 . S
H694 C638 0.930 . S
H695 C639 0.930 . S
H696 C642 0.930 . S
H697 C645 0.929 . S
H698 C650 0.929 . S
H699 C651 0.930 . S
H700 C658 0.929 . S
H701 C659 0.930 . S
H702 C660 0.930 . S
H703 C661 0.930 . S
H704 C663 0.929 . S
H705 C664 0.930 . S
H706 C665 0.930 . S
H707 C666 0.930 . S
H708 C670 0.929 . S
H709 C672 0.930 . S
H710 C678 0.929 . S
H711 C679 0.930 . S
Li712 N729 1.990 . S
Li712 O772 1.956 . S
Li712 O773 1.970 . S
Li712 O774 1.961 . S
Li713 N737 1.990 . S
Li713 O772 1.970 . S
Li713 O773 1.956 . S
Li713 O775 1.961 . S
Li714 N759 1.990 . S
Li714 O772 1.961 . S
Li714 O774 1.956 . S
Li714 O775 1.970 . S
Li715 N765 1.990 . S
Li715 O773 1.961 . S
Li715 O774 1.970 . S
Li715 O775 1.956 . S
C716 C718 1.348 . S
C716 C719 1.356 . S
C716 O772 1.325 . S
N717 C720 1.314 . S
N717 C721 1.279 . S
C718 C716 1.348 . S
C718 C720 1.353 . S
C718 H776 0.929 . S
C719 C716 1.356 . S
C719 C721 1.358 . S
C719 H777 0.930 . S
C720 N717 1.314 . S
C720 C718 1.353 . S
C720 H778 0.930 . S
C721 N717 1.279 . S
C721 C719 1.358 . S
C721 H779 0.930 . S
C722 C725 1.348 . S
C722 C726 1.356 . S
C722 O773 1.325 . S
C723 N724 1.279 . S
C723 C726 1.358 . S
C723 H780 0.930 . S
N724 C723 1.279 . S
N724 C727 1.314 . S
C725 C722 1.348 . S
C725 C727 1.353 . S
C725 H781 0.929 . S
C726 C722 1.356 . S
C726 C723 1.358 . S
C726 H782 0.930 . S
C727 N724 1.314 . S
C727 C725 1.353 . S
C727 H783 0.930 . S
C728 N729 1.314 . S
C728 C733 1.353 . S
C728 H734 0.930 . S
N729 Li712 1.990 . S
N729 C728 1.314 . S
N729 C731 1.279 . S
C730 C731 1.358 . S
C730 C732 1.356 . S
C730 H784 0.930 . S
C731 N729 1.279 . S
C731 C730 1.358 . S
C731 H735 0.930 . S
C732 C730 1.356 . S
C732 C733 1.348 . S
C733 C728 1.353 . S
C733 C732 1.348 . S
C733 H785 0.929 . S
H734 C728 0.930 . S
H735 C731 0.930 . S
C736 N737 1.314 . S
C736 C738 1.353 . S
C736 H742 0.930 . S
N737 Li713 1.990 . S
N737 C736 1.314 . S
N737 C740 1.279 . S
C738 C736 1.353 . S
C738 C741 1.348 . S
C738 H786 0.929 . S
C739 C740 1.358 . S
C739 C741 1.356 . S
C739 H787 0.930 . S
C740 N737 1.279 . S
C740 C739 1.358 . S
C740 H743 0.930 . S
C741 C738 1.348 . S
C741 C739 1.356 . S
H742 C736 0.930 . S
H743 C740 0.930 . S
C744 C746 1.348 . S
C744 C747 1.356 . S
C744 O774 1.325 . S
N745 C748 1.314 . S
N745 C749 1.279 . S
C746 C744 1.348 . S
C746 C748 1.353 . S
C746 H788 0.929 . S
C747 C744 1.356 . S
C747 C749 1.358 . S
C747 H789 0.930 . S
C748 N745 1.314 . S
C748 C746 1.353 . S
C748 H790 0.930 . S
C749 N745 1.279 . S
C749 C747 1.358 . S
C749 H791 0.930 . S
C750 C751 1.348 . S
C750 C752 1.356 . S
C750 O775 1.325 . S
C751 C750 1.348 . S
C751 C753 1.353 . S
C751 H792 0.929 . S
C752 C750 1.356 . S
C752 C754 1.358 . S
C752 H793 0.930 . S
C753 C751 1.353 . S
C753 N755 1.314 . S
C753 H794 0.930 . S
C754 C752 1.358 . S
C754 N755 1.279 . S
C754 H795 0.930 . S
N755 C753 1.314 . S
N755 C754 1.279 . S
C756 C758 1.353 . S
C756 N759 1.314 . S
C756 H762 0.930 . S
C757 N759 1.279 . S
C757 C760 1.358 . S
C757 H763 0.930 . S
C758 C756 1.353 . S
C758 C761 1.348 . S
C758 H796 0.929 . S
N759 Li714 1.990 . S
N759 C756 1.314 . S
N759 C757 1.279 . S
C760 C757 1.358 . S
C760 C761 1.356 . S
C760 H797 0.930 . S
C761 C758 1.348 . S
C761 C760 1.356 . S
H762 C756 0.930 . S
H763 C757 0.930 . S
C764 N765 1.314 . S
C764 C766 1.353 . S
C764 H770 0.930 . S
N765 Li715 1.990 . S
N765 C764 1.314 . S
N765 C768 1.279 . S
C766 C764 1.353 . S
C766 C769 1.348 . S
C766 H798 0.929 . S
C767 C768 1.358 . S
C767 C769 1.356 . S
C767 H799 0.930 . S
C768 N765 1.279 . S
C768 C767 1.358 . S
C768 H771 0.930 . S
C769 C766 1.348 . S
C769 C767 1.356 . S
H770 C764 0.930 . S
H771 C768 0.930 . S
O772 Li712 1.956 . S
O772 Li713 1.970 . S
O772 Li714 1.961 . S
O772 C716 1.325 . S
O773 Li712 1.970 . S
O773 Li713 1.956 . S
O773 Li715 1.961 . S
O773 C722 1.325 . S
O774 Li712 1.961 . S
O774 Li714 1.956 . S
O774 Li715 1.970 . S
O774 C744 1.325 . S
O775 Li713 1.961 . S
O775 Li714 1.970 . S
O775 Li715 1.956 . S
O775 C750 1.325 . S
H776 C718 0.929 . S
H777 C719 0.930 . S
H778 C720 0.930 . S
H779 C721 0.930 . S
H780 C723 0.930 . S
H781 C725 0.929 . S
H782 C726 0.930 . S
H783 C727 0.930 . S
H784 C730 0.930 . S
H785 C733 0.929 . S
H786 C738 0.929 . S
H787 C739 0.930 . S
H788 C746 0.929 . S
H789 C747 0.930 . S
H790 C748 0.930 . S
H791 C749 0.930 . S
H792 C751 0.929 . S
H793 C752 0.930 . S
H794 C753 0.930 . S
H795 C754 0.930 . S
H796 C758 0.929 . S
H797 C760 0.930 . S
H798 C766 0.929 . S
H799 C767 0.930 . S
Li800 N817 1.990 . S
Li800 O860 1.958 . S
Li800 O861 1.970 1_556 S
Li800 O862 1.961 . S
Li801 N825 1.990 . S
Li801 O860 1.914 1_554 S
Li801 O861 1.956 . S
Li801 O863 1.961 . S
Li802 N847 1.990 . S
Li802 O860 2.005 . S
Li802 O862 1.956 . S
Li802 O863 1.970 1_556 S
Li803 N853 1.990 . S
Li803 O861 1.961 . S
Li803 O862 1.970 1_554 S
Li803 O863 1.956 . S
C804 C806 1.348 1_556 S
C804 C807 1.356 . S
C804 O860 1.337 . S
N805 C808 1.314 1_556 S
N805 C809 1.279 . S
C806 C804 1.348 1_554 S
C806 C808 1.353 . S
C806 H864 0.929 . S
C807 C804 1.356 . S
C807 C809 1.358 . S
C807 H865 0.930 . S
C808 N805 1.314 1_554 S
C808 C806 1.353 . S
C808 H866 0.930 . S
C809 N805 1.279 . S
C809 C807 1.358 . S
C809 H867 0.930 . S
C810 C813 1.348 . S
C810 C814 1.356 . S
C810 O861 1.325 . S
C811 N812 1.279 . S
C811 C814 1.358 . S
C811 H868 0.930 . S
N812 C811 1.279 . S
N812 C815 1.314 . S
C813 C810 1.348 . S
C813 C815 1.353 . S
C813 H869 0.929 . S
C814 C810 1.356 . S
C814 C811 1.358 . S
C814 H870 0.930 . S
C815 N812 1.314 . S
C815 C813 1.353 . S
C815 H871 0.930 . S
C816 N817 1.314 . S
C816 C821 1.353 . S
C816 H822 0.930 . S
N817 Li800 1.990 . S
N817 C816 1.314 . S
N817 C819 1.279 . S
C818 C819 1.358 . S
C818 C820 1.356 . S
C818 H872 0.930 . S
C819 N817 1.279 . S
C819 C818 1.358 . S
C819 H823 0.930 . S
C820 C818 1.356 . S
C820 C821 1.348 . S
C821 C816 1.353 . S
C821 C820 1.348 . S
C821 H873 0.929 . S
H822 C816 0.930 . S
H823 C819 0.930 . S
C824 N825 1.314 . S
C824 C826 1.353 . S
C824 H830 0.930 . S
N825 Li801 1.990 . S
N825 C824 1.314 . S
N825 C828 1.279 . S
C826 C824 1.353 . S
C826 C829 1.348 . S
C826 H874 0.929 . S
C827 C828 1.358 . S
C827 C829 1.356 . S
C827 H875 0.930 . S
C828 N825 1.279 . S
C828 C827 1.358 . S
C828 H831 0.930 . S
C829 C826 1.348 . S
C829 C827 1.356 . S
H830 C824 0.930 . S
H831 C828 0.930 . S
C832 C834 1.348 . S
C832 C835 1.356 . S
C832 O862 1.325 . S
N833 C836 1.314 . S
N833 C837 1.279 . S
C834 C832 1.348 . S
C834 C836 1.353 . S
C834 H876 0.929 . S
C835 C832 1.356 . S
C835 C837 1.358 . S
C835 H877 0.930 . S
C836 N833 1.314 . S
C836 C834 1.353 . S
C836 H878 0.930 . S
C837 N833 1.279 . S
C837 C835 1.358 . S
C837 H879 0.930 . S
C838 C839 1.348 1_554 S
C838 C840 1.356 . S
C838 O863 1.325 . S
C839 C838 1.348 1_556 S
C839 C841 1.353 . S
C839 H880 0.929 . S
C840 C838 1.356 . S
C840 C842 1.358 . S
C840 H881 0.930 . S
C841 C839 1.353 . S
C841 N843 1.314 1_556 S
C841 H882 0.930 . S
C842 C840 1.358 . S
C842 N843 1.279 . S
C842 H883 0.930 . S
N843 C841 1.314 1_554 S
N843 C842 1.279 . S
C844 C846 1.353 . S
C844 N847 1.314 . S
C844 H850 0.930 . S
C845 N847 1.279 . S
C845 C848 1.358 . S
C845 H851 0.930 . S
C846 C844 1.353 . S
C846 C849 1.348 . S
C846 H884 0.929 . S
N847 Li802 1.990 . S
N847 C844 1.314 . S
N847 C845 1.279 . S
C848 C845 1.358 . S
C848 C849 1.356 . S
C848 H885 0.930 . S
C849 C846 1.348 . S
C849 C848 1.356 . S
H850 C844 0.930 . S
H851 C845 0.930 . S
C852 N853 1.314 . S
C852 C854 1.353 . S
C852 H858 0.930 . S
N853 Li803 1.990 . S
N853 C852 1.314 . S
N853 C856 1.279 . S
C854 C852 1.353 . S
C854 C857 1.348 . S
C854 H886 0.929 . S
C855 C856 1.358 . S
C855 C857 1.356 . S
C855 H887 0.930 . S
C856 N853 1.279 . S
C856 C855 1.358 . S
C856 H859 0.930 . S
C857 C854 1.348 . S
C857 C855 1.356 . S
H858 C852 0.930 . S
H859 C856 0.930 . S
O860 Li800 1.958 . S
O860 Li801 1.914 1_556 S
O860 Li802 2.005 . S
O860 C804 1.337 . S
O861 Li800 1.970 1_554 S
O861 Li801 1.956 . S
O861 Li803 1.961 . S
O861 C810 1.325 . S
O862 Li800 1.961 . S
O862 Li802 1.956 . S
O862 Li803 1.970 1_556 S
O862 C832 1.325 . S
O863 Li801 1.961 . S
O863 Li802 1.970 1_554 S
O863 Li803 1.956 . S
O863 C838 1.325 . S
H864 C806 0.929 . S
H865 C807 0.930 . S
H866 C808 0.930 . S
H867 C809 0.930 . S
H868 C811 0.930 . S
H869 C813 0.929 . S
H870 C814 0.930 . S
H871 C815 0.930 . S
H872 C818 0.930 . S
H873 C821 0.929 . S
H874 C826 0.929 . S
H875 C827 0.930 . S
H876 C834 0.929 . S
H877 C835 0.930 . S
H878 C836 0.930 . S
H879 C837 0.930 . S
H880 C839 0.929 . S
H881 C840 0.930 . S
H882 C841 0.930 . S
H883 C842 0.930 . S
H884 C846 0.929 . S
H885 C848 0.930 . S
H886 C854 0.929 . S
H887 C855 0.930 . S
Li888 N905 1.990 . S
Li888 O948 1.956 . S
Li888 O949 1.945 1_545 S
Li888 O950 1.961 . S
Li889 N913 2.002 . S
Li889 O948 1.918 1_565 S
Li889 O949 1.956 . S
Li889 O951 2.000 . S
Li890 N935 1.990 . S
Li890 O948 1.961 . S
Li890 O950 1.956 . S
Li890 O951 1.970 1_545 S
Li891 N941 1.990 . S
Li891 O949 1.981 . S
Li891 O950 1.970 1_565 S
Li891 O951 1.956 . S
C892 C894 1.348 . S
C892 C895 1.356 . S
C892 O948 1.325 . S
N893 C896 1.314 . S
N893 C897 1.279 . S
C894 C892 1.348 . S
C894 C896 1.353 . S
C894 H952 0.929 . S
C895 C892 1.356 . S
C895 C897 1.358 . S
C895 H953 0.930 . S
C896 N893 1.314 . S
C896 C894 1.353 . S
C896 H954 0.930 . S
C897 N893 1.279 . S
C897 C895 1.358 . S
C897 H955 0.930 . S
C898 C901 1.348 1_565 S
C898 C902 1.356 . S
C898 O949 1.330 . S
C899 N900 1.279 . S
C899 C902 1.358 . S
C899 H956 0.930 . S
N900 C899 1.279 . S
N900 C903 1.314 1_565 S
C901 C898 1.348 1_545 S
C901 C903 1.353 . S
C901 H957 0.929 . S
C902 C898 1.356 . S
C902 C899 1.358 . S
C902 H958 0.930 . S
C903 N900 1.314 1_545 S
C903 C901 1.353 . S
C903 H959 0.930 . S
C904 N905 1.314 . S
C904 C909 1.353 . S
C904 H910 0.930 . S
N905 Li888 1.990 . S
N905 C904 1.314 . S
N905 C907 1.279 . S
C906 C907 1.358 . S
C906 C908 1.356 . S
C906 H960 0.930 . S
C907 N905 1.279 . S
C907 C906 1.358 . S
C907 H911 0.930 . S
C908 C906 1.356 . S
C908 C909 1.348 . S
C909 C904 1.353 . S
C909 C908 1.348 . S
C909 H961 0.929 . S
H910 C904 0.930 . S
H911 C907 0.930 . S
C912 N913 1.314 . S
C912 C914 1.353 . S
C912 H918 0.930 . S
N913 Li889 2.002 . S
N913 C912 1.314 . S
N913 C916 1.279 . S
C914 C912 1.353 . S
C914 C917 1.348 . S
C914 H962 0.929 . S
C915 C916 1.358 . S
C915 C917 1.356 . S
C915 H963 0.930 . S
C916 N913 1.279 . S
C916 C915 1.358 . S
C916 H919 0.942 . S
C917 C914 1.348 . S
C917 C915 1.356 . S
H918 C912 0.930 . S
H919 C916 0.942 . S
C920 C922 1.348 1_545 S
C920 C923 1.356 . S
C920 O950 1.325 . S
N921 C924 1.314 1_545 S
N921 C925 1.279 . S
C922 C920 1.348 1_565 S
C922 C924 1.353 . S
C922 H964 0.929 . S
C923 C920 1.356 . S
C923 C925 1.358 . S
C923 H965 0.930 . S
C924 N921 1.314 1_565 S
C924 C922 1.353 . S
C924 H966 0.930 . S
C925 N921 1.279 . S
C925 C923 1.358 . S
C925 H967 0.930 . S
C926 C927 1.348 . S
C926 C928 1.356 . S
C926 O951 1.325 . S
C927 C926 1.348 . S
C927 C929 1.353 . S
C927 H968 0.929 . S
C928 C926 1.356 . S
C928 C930 1.358 . S
C928 H969 0.930 . S
C929 C927 1.353 . S
C929 N931 1.314 . S
C929 H970 0.930 . S
C930 C928 1.358 . S
C930 N931 1.279 . S
C930 H971 0.930 . S
N931 C929 1.314 . S
N931 C930 1.279 . S
C932 C934 1.353 . S
C932 N935 1.314 . S
C932 H938 0.930 . S
C933 N935 1.279 . S
C933 C936 1.358 . S
C933 H939 0.930 . S
C934 C932 1.353 . S
C934 C937 1.348 . S
C934 H972 0.929 . S
N935 Li890 1.990 . S
N935 C932 1.314 . S
N935 C933 1.279 . S
C936 C933 1.358 . S
C936 C937 1.356 . S
C936 H973 0.930 . S
C937 C934 1.348 . S
C937 C936 1.356 . S
H938 C932 0.930 . S
H939 C933 0.930 . S
C940 N941 1.314 . S
C940 C942 1.353 . S
C940 H946 0.930 . S
N941 Li891 1.990 . S
N941 C940 1.314 . S
N941 C944 1.279 . S
C942 C940 1.353 . S
C942 C945 1.348 . S
C942 H974 0.929 . S
C943 C944 1.358 . S
C943 C945 1.356 . S
C943 H975 0.930 . S
C944 N941 1.279 . S
C944 C943 1.358 . S
C944 H947 0.930 . S
C945 C942 1.348 . S
C945 C943 1.356 . S
H946 C940 0.930 . S
H947 C944 0.930 . S
O948 Li888 1.956 . S
O948 Li889 1.918 1_545 S
O948 Li890 1.961 . S
O948 C892 1.325 . S
O949 Li888 1.945 1_565 S
O949 Li889 1.956 . S
O949 Li891 1.981 . S
O949 C898 1.330 . S
O950 Li888 1.961 . S
O950 Li890 1.956 . S
O950 Li891 1.970 1_545 S
O950 C920 1.325 . S
O951 Li889 2.000 . S
O951 Li890 1.970 1_565 S
O951 Li891 1.956 . S
O951 C926 1.325 . S
H952 C894 0.929 . S
H953 C895 0.930 . S
H954 C896 0.930 . S
H955 C897 0.930 . S
H956 C899 0.930 . S
H957 C901 0.929 . S
H958 C902 0.930 . S
H959 C903 0.930 . S
H960 C906 0.930 . S
H961 C909 0.929 . S
H962 C914 0.929 . S
H963 C915 0.930 . S
H964 C922 0.929 . S
H965 C923 0.930 . S
H966 C924 0.930 . S
H967 C925 0.930 . S
H968 C927 0.929 . S
H969 C928 0.930 . S
H970 C929 0.930 . S
H971 C930 0.930 . S
H972 C934 0.929 . S
H973 C936 0.930 . S
H974 C942 0.929 . S
H975 C943 0.930 . S
Li976 N993 1.990 . S
Li976 O1036 1.956 . S
Li976 O1037 1.970 . S
Li976 O1038 1.961 . S
Li977 N1001 1.990 . S
Li977 O1036 1.970 . S
Li977 O1037 1.956 . S
Li977 O1039 1.961 . S
Li978 N1023 1.990 . S
Li978 O1036 1.961 . S
Li978 O1038 1.956 . S
Li978 O1039 1.970 . S
Li979 N1029 1.990 . S
Li979 O1037 1.961 . S
Li979 O1038 1.970 . S
Li979 O1039 1.956 . S
C980 C982 1.348 . S
C980 C983 1.356 . S
C980 O1036 1.325 . S
N981 C984 1.314 . S
N981 C985 1.279 . S
C982 C980 1.348 . S
C982 C984 1.353 . S
C982 H1040 0.929 . S
C983 C980 1.356 . S
C983 C985 1.358 . S
C983 H1041 0.930 . S
C984 N981 1.314 . S
C984 C982 1.353 . S
C984 H1042 0.930 . S
C985 N981 1.279 . S
C985 C983 1.358 . S
C985 H1043 0.930 . S
C986 C989 1.348 . S
C986 C990 1.356 . S
C986 O1037 1.325 . S
C987 N988 1.279 . S
C987 C990 1.358 . S
C987 H1044 0.930 . S
N988 C987 1.279 . S
N988 C991 1.314 . S
C989 C986 1.348 . S
C989 C991 1.353 . S
C989 H1045 0.929 . S
C990 C986 1.356 . S
C990 C987 1.358 . S
C990 H1046 0.930 . S
C991 N988 1.314 . S
C991 C989 1.353 . S
C991 H1047 0.930 . S
C992 N993 1.314 . S
C992 C997 1.353 . S
C992 H998 0.930 . S
N993 Li976 1.990 . S
N993 C992 1.314 . S
N993 C995 1.279 . S
C994 C995 1.358 . S
C994 C996 1.356 . S
C994 H1048 0.930 . S
C995 N993 1.279 . S
C995 C994 1.358 . S
C995 H999 0.930 . S
C996 C994 1.356 . S
C996 C997 1.348 . S
C997 C992 1.353 . S
C997 C996 1.348 . S
C997 H1049 0.929 . S
H998 C992 0.930 . S
H999 C995 0.930 . S
C1000 N1001 1.314 . S
C1000 C1002 1.353 . S
C1000 H1006 0.930 . S
N1001 Li977 1.990 . S
N1001 C1000 1.314 . S
N1001 C1004 1.279 . S
C1002 C1000 1.353 . S
C1002 C1005 1.348 . S
C1002 H1050 0.929 . S
C1003 C1004 1.358 . S
C1003 C1005 1.356 . S
C1003 H1051 0.930 . S
C1004 N1001 1.279 . S
C1004 C1003 1.358 . S
C1004 H1007 0.930 . S
C1005 C1002 1.348 . S
C1005 C1003 1.356 . S
H1006 C1000 0.930 . S
H1007 C1004 0.930 . S
C1008 C1010 1.348 . S
C1008 C1011 1.356 . S
C1008 O1038 1.325 . S
N1009 C1012 1.314 . S
N1009 C1013 1.279 . S
C1010 C1008 1.348 . S
C1010 C1012 1.353 . S
C1010 H1052 0.929 . S
C1011 C1008 1.356 . S
C1011 C1013 1.358 . S
C1011 H1053 0.930 . S
C1012 N1009 1.314 . S
C1012 C1010 1.353 . S
C1012 H1054 0.930 . S
C1013 N1009 1.279 . S
C1013 C1011 1.358 . S
C1013 H1055 0.930 . S
C1014 C1015 1.348 . S
C1014 C1016 1.356 . S
C1014 O1039 1.325 . S
C1015 C1014 1.348 . S
C1015 C1017 1.353 . S
C1015 H1056 0.929 . S
C1016 C1014 1.356 . S
C1016 C1018 1.358 . S
C1016 H1057 0.930 . S
C1017 C1015 1.353 . S
C1017 N1019 1.314 . S
C1017 H1058 0.930 . S
C1018 C1016 1.358 . S
C1018 N1019 1.279 . S
C1018 H1059 0.930 . S
N1019 C1017 1.314 . S
N1019 C1018 1.279 . S
C1020 C1022 1.353 . S
C1020 N1023 1.314 . S
C1020 H1026 0.930 . S
C1021 N1023 1.279 . S
C1021 C1024 1.358 . S
C1021 H1027 0.930 . S
C1022 C1020 1.353 . S
C1022 C1025 1.348 . S
C1022 H1060 0.929 . S
N1023 Li978 1.990 . S
N1023 C1020 1.314 . S
N1023 C1021 1.279 . S
C1024 C1021 1.358 . S
C1024 C1025 1.356 . S
C1024 H1061 0.930 . S
C1025 C1022 1.348 . S
C1025 C1024 1.356 . S
H1026 C1020 0.930 . S
H1027 C1021 0.930 . S
C1028 N1029 1.314 . S
C1028 C1030 1.353 . S
C1028 H1034 0.930 . S
N1029 Li979 1.990 . S
N1029 C1028 1.314 . S
N1029 C1032 1.279 . S
C1030 C1028 1.353 . S
C1030 C1033 1.348 . S
C1030 H1062 0.929 . S
C1031 C1032 1.358 . S
C1031 C1033 1.356 . S
C1031 H1063 0.930 . S
C1032 N1029 1.279 . S
C1032 C1031 1.358 . S
C1032 H1035 0.930 . S
C1033 C1030 1.348 . S
C1033 C1031 1.356 . S
H1034 C1028 0.930 . S
H1035 C1032 0.930 . S
O1036 Li976 1.956 . S
O1036 Li977 1.970 . S
O1036 Li978 1.961 . S
O1036 C980 1.325 . S
O1037 Li976 1.970 . S
O1037 Li977 1.956 . S
O1037 Li979 1.961 . S
O1037 C986 1.325 . S
O1038 Li976 1.961 . S
O1038 Li978 1.956 . S
O1038 Li979 1.970 . S
O1038 C1008 1.325 . S
O1039 Li977 1.961 . S
O1039 Li978 1.970 . S
O1039 Li979 1.956 . S
O1039 C1014 1.325 . S
H1040 C982 0.929 . S
H1041 C983 0.930 . S
H1042 C984 0.930 . S
H1043 C985 0.930 . S
H1044 C987 0.930 . S
H1045 C989 0.929 . S
H1046 C990 0.930 . S
H1047 C991 0.930 . S
H1048 C994 0.930 . S
H1049 C997 0.929 . S
H1050 C1002 0.929 . S
H1051 C1003 0.930 . S
H1052 C1010 0.929 . S
H1053 C1011 0.930 . S
H1054 C1012 0.930 . S
H1055 C1013 0.930 . S
H1056 C1015 0.929 . S
H1057 C1016 0.930 . S
H1058 C1017 0.930 . S
H1059 C1018 0.930 . S
H1060 C1022 0.929 . S
H1061 C1024 0.930 . S
H1062 C1030 0.929 . S
H1063 C1031 0.930 . S
Li1064 N1081 1.990 . S
Li1064 O1124 1.956 . S
Li1064 O1125 1.970 . S
Li1064 O1126 1.961 . S
Li1065 N1089 1.990 . S
Li1065 O1124 1.970 . S
Li1065 O1125 1.956 . S
Li1065 O1127 1.961 . S
Li1066 N1111 1.990 . S
Li1066 O1124 1.961 . S
Li1066 O1126 1.956 . S
Li1066 O1127 1.970 . S
Li1067 N1117 1.990 . S
Li1067 O1125 1.961 . S
Li1067 O1126 1.970 . S
Li1067 O1127 1.956 . S
C1068 C1070 1.348 . S
C1068 C1071 1.356 . S
C1068 O1124 1.325 . S
N1069 C1072 1.314 . S
N1069 C1073 1.279 . S
C1070 C1068 1.348 . S
C1070 C1072 1.353 . S
C1070 H1128 0.929 . S
C1071 C1068 1.356 . S
C1071 C1073 1.358 . S
C1071 H1129 0.930 . S
C1072 N1069 1.314 . S
C1072 C1070 1.353 . S
C1072 H1130 0.930 . S
C1073 N1069 1.279 . S
C1073 C1071 1.358 . S
C1073 H1131 0.930 . S
C1074 C1077 1.348 . S
C1074 C1078 1.356 . S
C1074 O1125 1.325 . S
C1075 N1076 1.279 . S
C1075 C1078 1.358 . S
C1075 H1132 0.930 . S
N1076 C1075 1.279 . S
N1076 C1079 1.314 . S
C1077 C1074 1.348 . S
C1077 C1079 1.353 . S
C1077 H1133 0.929 . S
C1078 C1074 1.356 . S
C1078 C1075 1.358 . S
C1078 H1134 0.930 . S
C1079 N1076 1.314 . S
C1079 C1077 1.353 . S
C1079 H1135 0.930 . S
C1080 N1081 1.314 . S
C1080 C1085 1.353 . S
C1080 H1086 0.930 . S
N1081 Li1064 1.990 . S
N1081 C1080 1.314 . S
N1081 C1083 1.279 . S
C1082 C1083 1.358 . S
C1082 C1084 1.356 . S
C1082 H1136 0.930 . S
C1083 N1081 1.279 . S
C1083 C1082 1.358 . S
C1083 H1087 0.930 . S
C1084 C1082 1.356 . S
C1084 C1085 1.348 . S
C1085 C1080 1.353 . S
C1085 C1084 1.348 . S
C1085 H1137 0.929 . S
H1086 C1080 0.930 . S
H1087 C1083 0.930 . S
C1088 N1089 1.314 . S
C1088 C1090 1.353 . S
C1088 H1094 0.930 . S
N1089 Li1065 1.990 . S
N1089 C1088 1.314 . S
N1089 C1092 1.279 . S
C1090 C1088 1.353 . S
C1090 C1093 1.348 . S
C1090 H1138 0.929 . S
C1091 C1092 1.358 . S
C1091 C1093 1.356 . S
C1091 H1139 0.930 . S
C1092 N1089 1.279 . S
C1092 C1091 1.358 . S
C1092 H1095 0.930 . S
C1093 C1090 1.348 . S
C1093 C1091 1.356 . S
H1094 C1088 0.930 . S
H1095 C1092 0.930 . S
C1096 C1098 1.348 . S
C1096 C1099 1.356 . S
C1096 O1126 1.325 . S
N1097 C1100 1.314 . S
N1097 C1101 1.279 . S
C1098 C1096 1.348 . S
C1098 C1100 1.353 . S
C1098 H1140 0.929 . S
C1099 C1096 1.356 . S
C1099 C1101 1.358 . S
C1099 H1141 0.930 . S
C1100 N1097 1.314 . S
C1100 C1098 1.353 . S
C1100 H1142 0.930 . S
C1101 N1097 1.279 . S
C1101 C1099 1.358 . S
C1101 H1143 0.930 . S
C1102 C1103 1.348 . S
C1102 C1104 1.356 . S
C1102 O1127 1.325 . S
C1103 C1102 1.348 . S
C1103 C1105 1.353 . S
C1103 H1144 0.929 . S
C1104 C1102 1.356 . S
C1104 C1106 1.358 . S
C1104 H1145 0.930 . S
C1105 C1103 1.353 . S
C1105 N1107 1.314 . S
C1105 H1146 0.930 . S
C1106 C1104 1.358 . S
C1106 N1107 1.279 . S
C1106 H1147 0.930 . S
N1107 C1105 1.314 . S
N1107 C1106 1.279 . S
C1108 C1110 1.353 . S
C1108 N1111 1.314 . S
C1108 H1114 0.930 . S
C1109 N1111 1.279 . S
C1109 C1112 1.358 . S
C1109 H1115 0.930 . S
C1110 C1108 1.353 . S
C1110 C1113 1.348 . S
C1110 H1148 0.929 . S
N1111 Li1066 1.990 . S
N1111 C1108 1.314 . S
N1111 C1109 1.279 . S
C1112 C1109 1.358 . S
C1112 C1113 1.356 . S
C1112 H1149 0.930 . S
C1113 C1110 1.348 . S
C1113 C1112 1.356 . S
H1114 C1108 0.930 . S
H1115 C1109 0.930 . S
C1116 N1117 1.314 . S
C1116 C1118 1.353 . S
C1116 H1122 0.930 . S
N1117 Li1067 1.990 . S
N1117 C1116 1.314 . S
N1117 C1120 1.279 . S
C1118 C1116 1.353 . S
C1118 C1121 1.348 . S
C1118 H1150 0.929 . S
C1119 C1120 1.358 . S
C1119 C1121 1.356 . S
C1119 H1151 0.930 . S
C1120 N1117 1.279 . S
C1120 C1119 1.358 . S
C1120 H1123 0.930 . S
C1121 C1118 1.348 . S
C1121 C1119 1.356 . S
H1122 C1116 0.930 . S
H1123 C1120 0.930 . S
O1124 Li1064 1.956 . S
O1124 Li1065 1.970 . S
O1124 Li1066 1.961 . S
O1124 C1068 1.325 . S
O1125 Li1064 1.970 . S
O1125 Li1065 1.956 . S
O1125 Li1067 1.961 . S
O1125 C1074 1.325 . S
O1126 Li1064 1.961 . S
O1126 Li1066 1.956 . S
O1126 Li1067 1.970 . S
O1126 C1096 1.325 . S
O1127 Li1065 1.961 . S
O1127 Li1066 1.970 . S
O1127 Li1067 1.956 . S
O1127 C1102 1.325 . S
H1128 C1070 0.929 . S
H1129 C1071 0.930 . S
H1130 C1072 0.930 . S
H1131 C1073 0.930 . S
H1132 C1075 0.930 . S
H1133 C1077 0.929 . S
H1134 C1078 0.930 . S
H1135 C1079 0.930 . S
H1136 C1082 0.930 . S
H1137 C1085 0.929 . S
H1138 C1090 0.929 . S
H1139 C1091 0.930 . S
H1140 C1098 0.929 . S
H1141 C1099 0.930 . S
H1142 C1100 0.930 . S
H1143 C1101 0.930 . S
H1144 C1103 0.929 . S
H1145 C1104 0.930 . S
H1146 C1105 0.930 . S
H1147 C1106 0.930 . S
H1148 C1110 0.929 . S
H1149 C1112 0.930 . S
H1150 C1118 0.929 . S
H1151 C1119 0.930 . S
Li1152 N1169 1.990 . S
Li1152 O1212 1.956 . S
Li1152 O1213 1.970 . S
Li1152 O1214 1.961 . S
Li1153 N1177 1.990 . S
Li1153 O1212 1.970 . S
Li1153 O1213 1.956 . S
Li1153 O1215 1.961 . S
Li1154 N1199 1.990 . S
Li1154 O1212 1.961 . S
Li1154 O1214 1.956 . S
Li1154 O1215 1.970 . S
Li1155 N1205 1.990 . S
Li1155 O1213 1.961 . S
Li1155 O1214 1.970 . S
Li1155 O1215 1.956 . S
C1156 C1158 1.348 . S
C1156 C1159 1.356 . S
C1156 O1212 1.325 . S
N1157 C1160 1.314 . S
N1157 C1161 1.279 . S
C1158 C1156 1.348 . S
C1158 C1160 1.353 . S
C1158 H1216 0.929 . S
C1159 C1156 1.356 . S
C1159 C1161 1.358 . S
C1159 H1217 0.930 . S
C1160 N1157 1.314 . S
C1160 C1158 1.353 . S
C1160 H1218 0.930 . S
C1161 N1157 1.279 . S
C1161 C1159 1.358 . S
C1161 H1219 0.930 . S
C1162 C1165 1.348 . S
C1162 C1166 1.356 . S
C1162 O1213 1.325 . S
C1163 N1164 1.279 . S
C1163 C1166 1.358 . S
C1163 H1220 0.930 . S
N1164 C1163 1.279 . S
N1164 C1167 1.314 . S
C1165 C1162 1.348 . S
C1165 C1167 1.353 . S
C1165 H1221 0.929 . S
C1166 C1162 1.356 . S
C1166 C1163 1.358 . S
C1166 H1222 0.930 . S
C1167 N1164 1.314 . S
C1167 C1165 1.353 . S
C1167 H1223 0.930 . S
C1168 N1169 1.314 . S
C1168 C1173 1.353 . S
C1168 H1174 0.930 . S
N1169 Li1152 1.990 . S
N1169 C1168 1.314 . S
N1169 C1171 1.279 . S
C1170 C1171 1.358 . S
C1170 C1172 1.356 . S
C1170 H1224 0.930 . S
C1171 N1169 1.279 . S
C1171 C1170 1.358 . S
C1171 H1175 0.930 . S
C1172 C1170 1.356 . S
C1172 C1173 1.348 . S
C1173 C1168 1.353 . S
C1173 C1172 1.348 . S
C1173 H1225 0.929 . S
H1174 C1168 0.930 . S
H1175 C1171 0.930 . S
C1176 N1177 1.314 . S
C1176 C1178 1.353 . S
C1176 H1182 0.930 . S
N1177 Li1153 1.990 . S
N1177 C1176 1.314 . S
N1177 C1180 1.279 . S
C1178 C1176 1.353 . S
C1178 C1181 1.348 . S
C1178 H1226 0.929 . S
C1179 C1180 1.358 . S
C1179 C1181 1.356 . S
C1179 H1227 0.930 . S
C1180 N1177 1.279 . S
C1180 C1179 1.358 . S
C1180 H1183 0.930 . S
C1181 C1178 1.348 . S
C1181 C1179 1.356 . S
H1182 C1176 0.930 . S
H1183 C1180 0.930 . S
C1184 C1186 1.348 . S
C1184 C1187 1.356 . S
C1184 O1214 1.325 . S
N1185 C1188 1.314 . S
N1185 C1189 1.279 . S
C1186 C1184 1.348 . S
C1186 C1188 1.353 . S
C1186 H1228 0.929 . S
C1187 C1184 1.356 . S
C1187 C1189 1.358 . S
C1187 H1229 0.930 . S
C1188 N1185 1.314 . S
C1188 C1186 1.353 . S
C1188 H1230 0.930 . S
C1189 N1185 1.279 . S
C1189 C1187 1.358 . S
C1189 H1231 0.930 . S
C1190 C1191 1.348 . S
C1190 C1192 1.356 . S
C1190 O1215 1.325 . S
C1191 C1190 1.348 . S
C1191 C1193 1.353 . S
C1191 H1232 0.929 . S
C1192 C1190 1.356 . S
C1192 C1194 1.358 . S
C1192 H1233 0.930 . S
C1193 C1191 1.353 . S
C1193 N1195 1.314 . S
C1193 H1234 0.930 . S
C1194 C1192 1.358 . S
C1194 N1195 1.279 . S
C1194 H1235 0.930 . S
N1195 C1193 1.314 . S
N1195 C1194 1.279 . S
C1196 C1198 1.353 . S
C1196 N1199 1.314 . S
C1196 H1202 0.930 . S
C1197 N1199 1.279 . S
C1197 C1200 1.358 . S
C1197 H1203 0.930 . S
C1198 C1196 1.353 . S
C1198 C1201 1.348 . S
C1198 H1236 0.929 . S
N1199 Li1154 1.990 . S
N1199 C1196 1.314 . S
N1199 C1197 1.279 . S
C1200 C1197 1.358 . S
C1200 C1201 1.356 . S
C1200 H1237 0.930 . S
C1201 C1198 1.348 . S
C1201 C1200 1.356 . S
H1202 C1196 0.930 . S
H1203 C1197 0.930 . S
C1204 N1205 1.314 . S
C1204 C1206 1.353 . S
C1204 H1210 0.930 . S
N1205 Li1155 1.990 . S
N1205 C1204 1.314 . S
N1205 C1208 1.279 . S
C1206 C1204 1.353 . S
C1206 C1209 1.348 . S
C1206 H1238 0.929 . S
C1207 C1208 1.358 . S
C1207 C1209 1.356 . S
C1207 H1239 0.930 . S
C1208 N1205 1.279 . S
C1208 C1207 1.358 . S
C1208 H1211 0.930 . S
C1209 C1206 1.348 . S
C1209 C1207 1.356 . S
H1210 C1204 0.930 . S
H1211 C1208 0.930 . S
O1212 Li1152 1.956 . S
O1212 Li1153 1.970 . S
O1212 Li1154 1.961 . S
O1212 C1156 1.325 . S
O1213 Li1152 1.970 . S
O1213 Li1153 1.956 . S
O1213 Li1155 1.961 . S
O1213 C1162 1.325 . S
O1214 Li1152 1.961 . S
O1214 Li1154 1.956 . S
O1214 Li1155 1.970 . S
O1214 C1184 1.325 . S
O1215 Li1153 1.961 . S
O1215 Li1154 1.970 . S
O1215 Li1155 1.956 . S
O1215 C1190 1.325 . S
H1216 C1158 0.929 . S
H1217 C1159 0.930 . S
H1218 C1160 0.930 . S
H1219 C1161 0.930 . S
H1220 C1163 0.930 . S
H1221 C1165 0.929 . S
H1222 C1166 0.930 . S
H1223 C1167 0.930 . S
H1224 C1170 0.930 . S
H1225 C1173 0.929 . S
H1226 C1178 0.929 . S
H1227 C1179 0.930 . S
H1228 C1186 0.929 . S
H1229 C1187 0.930 . S
H1230 C1188 0.930 . S
H1231 C1189 0.930 . S
H1232 C1191 0.929 . S
H1233 C1192 0.930 . S
H1234 C1193 0.930 . S
H1235 C1194 0.930 . S
H1236 C1198 0.929 . S
H1237 C1200 0.930 . S
H1238 C1206 0.929 . S
H1239 C1207 0.930 . S
Li1240 N1257 1.990 . S
Li1240 O1300 1.956 . S
Li1240 O1301 1.970 1_565 S
Li1240 O1302 1.961 . S
Li1241 N1265 1.990 . S
Li1241 O1300 1.970 1_545 S
Li1241 O1301 1.956 . S
Li1241 O1303 1.961 . S
Li1242 N1287 1.990 . S
Li1242 O1300 1.961 . S
Li1242 O1302 1.956 . S
Li1242 O1303 1.970 1_565 S
Li1243 N1293 1.990 . S
Li1243 O1301 1.961 . S
Li1243 O1302 1.970 1_545 S
Li1243 O1303 1.956 . S
C1244 C1246 1.348 . S
C1244 C1247 1.356 . S
C1244 O1300 1.325 . S
N1245 C1248 1.314 . S
N1245 C1249 1.279 . S
C1246 C1244 1.348 . S
C1246 C1248 1.353 . S
C1246 H1304 0.929 . S
C1247 C1244 1.356 . S
C1247 C1249 1.358 . S
C1247 H1305 0.930 . S
C1248 N1245 1.314 . S
C1248 C1246 1.353 . S
C1248 H1306 0.930 . S
C1249 N1245 1.279 . S
C1249 C1247 1.358 . S
C1249 H1307 0.930 . S
C1250 C1253 1.348 1_545 S
C1250 C1254 1.356 . S
C1250 O1301 1.325 . S
C1251 N1252 1.279 . S
C1251 C1254 1.358 . S
C1251 H1308 0.930 . S
N1252 C1251 1.279 . S
N1252 C1255 1.314 1_545 S
C1253 C1250 1.348 1_565 S
C1253 C1255 1.353 . S
C1253 H1309 0.929 . S
C1254 C1250 1.356 . S
C1254 C1251 1.358 . S
C1254 H1310 0.930 . S
C1255 N1252 1.314 1_565 S
C1255 C1253 1.353 . S
C1255 H1311 0.930 . S
C1256 N1257 1.314 . S
C1256 C1261 1.353 . S
C1256 H1262 0.930 . S
N1257 Li1240 1.990 . S
N1257 C1256 1.314 . S
N1257 C1259 1.279 . S
C1258 C1259 1.358 . S
C1258 C1260 1.356 . S
C1258 H1312 0.930 . S
C1259 N1257 1.279 . S
C1259 C1258 1.358 . S
C1259 H1263 0.930 . S
C1260 C1258 1.356 . S
C1260 C1261 1.348 . S
C1261 C1256 1.353 . S
C1261 C1260 1.348 . S
C1261 H1313 0.929 . S
H1262 C1256 0.930 . S
H1263 C1259 0.930 . S
C1264 N1265 1.314 . S
C1264 C1266 1.353 . S
C1264 H1270 0.930 . S
N1265 Li1241 1.990 . S
N1265 C1264 1.314 . S
N1265 C1268 1.279 . S
C1266 C1264 1.353 . S
C1266 C1269 1.348 . S
C1266 H1314 0.929 . S
C1267 C1268 1.358 . S
C1267 C1269 1.356 . S
C1267 H1315 0.930 . S
C1268 N1265 1.279 . S
C1268 C1267 1.358 . S
C1268 H1271 0.930 . S
C1269 C1266 1.348 . S
C1269 C1267 1.356 . S
H1270 C1264 0.930 . S
H1271 C1268 0.930 . S
C1272 C1274 1.348 1_565 S
C1272 C1275 1.356 . S
C1272 O1302 1.325 . S
N1273 C1276 1.314 1_565 S
N1273 C1277 1.279 . S
C1274 C1272 1.348 1_545 S
C1274 C1276 1.353 . S
C1274 H1316 0.929 . S
C1275 C1272 1.356 . S
C1275 C1277 1.358 . S
C1275 H1317 0.930 . S
C1276 N1273 1.314 1_545 S
C1276 C1274 1.353 . S
C1276 H1318 0.930 . S
C1277 N1273 1.279 . S
C1277 C1275 1.358 . S
C1277 H1319 0.930 . S
C1278 C1279 1.348 . S
C1278 C1280 1.356 . S
C1278 O1303 1.325 . S
C1279 C1278 1.348 . S
C1279 C1281 1.353 . S
C1279 H1320 0.929 . S
C1280 C1278 1.356 . S
C1280 C1282 1.358 . S
C1280 H1321 0.930 . S
C1281 C1279 1.353 . S
C1281 N1283 1.314 . S
C1281 H1322 0.930 . S
C1282 C1280 1.358 . S
C1282 N1283 1.279 . S
C1282 H1323 0.930 . S
N1283 C1281 1.314 . S
N1283 C1282 1.279 . S
C1284 C1286 1.353 . S
C1284 N1287 1.314 . S
C1284 H1290 0.930 . S
C1285 N1287 1.279 . S
C1285 C1288 1.358 . S
C1285 H1291 0.930 . S
C1286 C1284 1.353 . S
C1286 C1289 1.348 . S
C1286 H1324 0.929 . S
N1287 Li1242 1.990 . S
N1287 C1284 1.314 . S
N1287 C1285 1.279 . S
C1288 C1285 1.358 . S
C1288 C1289 1.356 . S
C1288 H1325 0.930 . S
C1289 C1286 1.348 . S
C1289 C1288 1.356 . S
H1290 C1284 0.930 . S
H1291 C1285 0.930 . S
C1292 N1293 1.314 . S
C1292 C1294 1.353 . S
C1292 H1298 0.930 . S
N1293 Li1243 1.990 . S
N1293 C1292 1.314 . S
N1293 C1296 1.279 . S
C1294 C1292 1.353 . S
C1294 C1297 1.348 . S
C1294 H1326 0.929 . S
C1295 C1296 1.358 . S
C1295 C1297 1.356 . S
C1295 H1327 0.930 . S
C1296 N1293 1.279 . S
C1296 C1295 1.358 . S
C1296 H1299 0.930 . S
C1297 C1294 1.348 . S
C1297 C1295 1.356 . S
H1298 C1292 0.930 . S
H1299 C1296 0.930 . S
O1300 Li1240 1.956 . S
O1300 Li1241 1.970 1_565 S
O1300 Li1242 1.961 . S
O1300 C1244 1.325 . S
O1301 Li1240 1.970 1_545 S
O1301 Li1241 1.956 . S
O1301 Li1243 1.961 . S
O1301 C1250 1.325 . S
O1302 Li1240 1.961 . S
O1302 Li1242 1.956 . S
O1302 Li1243 1.970 1_565 S
O1302 C1272 1.325 . S
O1303 Li1241 1.961 . S
O1303 Li1242 1.970 1_545 S
O1303 Li1243 1.956 . S
O1303 C1278 1.325 . S
H1304 C1246 0.929 . S
H1305 C1247 0.930 . S
H1306 C1248 0.930 . S
H1307 C1249 0.930 . S
H1308 C1251 0.930 . S
H1309 C1253 0.929 . S
H1310 C1254 0.930 . S
H1311 C1255 0.930 . S
H1312 C1258 0.930 . S
H1313 C1261 0.929 . S
H1314 C1266 0.929 . S
H1315 C1267 0.930 . S
H1316 C1274 0.929 . S
H1317 C1275 0.930 . S
H1318 C1276 0.930 . S
H1319 C1277 0.930 . S
H1320 C1279 0.929 . S
H1321 C1280 0.930 . S
H1322 C1281 0.930 . S
H1323 C1282 0.930 . S
H1324 C1286 0.929 . S
H1325 C1288 0.930 . S
H1326 C1294 0.929 . S
H1327 C1295 0.930 . S
Li1328 N1345 1.990 . S
Li1328 O1388 1.956 . S
Li1328 O1389 1.970 1_455 S
Li1328 O1390 1.961 . S
Li1329 N1353 1.990 . S
Li1329 O1388 1.970 1_655 S
Li1329 O1389 1.956 . S
Li1329 O1391 1.961 . S
Li1330 N1375 1.990 . S
Li1330 O1388 1.961 . S
Li1330 O1390 1.956 . S
Li1330 O1391 1.970 1_455 S
Li1331 N1381 1.990 . S
Li1331 O1389 1.961 . S
Li1331 O1390 1.970 1_655 S
Li1331 O1391 1.956 . S
C1332 C1334 1.348 . S
C1332 C1335 1.356 . S
C1332 O1388 1.325 . S
N1333 C1336 1.314 . S
N1333 C1337 1.279 . S
C1334 C1332 1.348 . S
C1334 C1336 1.353 . S
C1334 H1392 0.929 . S
C1335 C1332 1.356 . S
C1335 C1337 1.358 . S
C1335 H1393 0.930 . S
C1336 N1333 1.314 . S
C1336 C1334 1.353 . S
C1336 H1394 0.930 . S
C1337 N1333 1.279 . S
C1337 C1335 1.358 . S
C1337 H1395 0.930 . S
C1338 C1341 1.348 1_655 S
C1338 C1342 1.356 . S
C1338 O1389 1.325 . S
C1339 N1340 1.279 . S
C1339 C1342 1.358 . S
C1339 H1396 0.930 . S
N1340 C1339 1.279 . S
N1340 C1343 1.314 1_655 S
C1341 C1338 1.348 1_455 S
C1341 C1343 1.353 . S
C1341 H1397 0.929 . S
C1342 C1338 1.356 . S
C1342 C1339 1.358 . S
C1342 H1398 0.930 . S
C1343 N1340 1.314 1_455 S
C1343 C1341 1.353 . S
C1343 H1399 0.930 . S
C1344 N1345 1.314 . S
C1344 C1349 1.353 . S
C1344 H1350 0.930 . S
N1345 Li1328 1.990 . S
N1345 C1344 1.314 . S
N1345 C1347 1.279 . S
C1346 C1347 1.358 . S
C1346 C1348 1.356 . S
C1346 H1400 0.930 . S
C1347 N1345 1.279 . S
C1347 C1346 1.358 . S
C1347 H1351 0.930 . S
C1348 C1346 1.356 . S
C1348 C1349 1.348 . S
C1349 C1344 1.353 . S
C1349 C1348 1.348 . S
C1349 H1401 0.929 . S
H1350 C1344 0.930 . S
H1351 C1347 0.930 . S
C1352 N1353 1.314 . S
C1352 C1354 1.353 . S
C1352 H1358 0.930 . S
N1353 Li1329 1.990 . S
N1353 C1352 1.314 . S
N1353 C1356 1.279 . S
C1354 C1352 1.353 . S
C1354 C1357 1.348 . S
C1354 H1402 0.929 . S
C1355 C1356 1.358 . S
C1355 C1357 1.356 . S
C1355 H1403 0.930 . S
C1356 N1353 1.279 . S
C1356 C1355 1.358 . S
C1356 H1359 0.930 . S
C1357 C1354 1.348 . S
C1357 C1355 1.356 . S
H1358 C1352 0.930 . S
H1359 C1356 0.930 . S
C1360 C1362 1.348 1_455 S
C1360 C1363 1.356 . S
C1360 O1390 1.325 . S
N1361 C1364 1.314 1_455 S
N1361 C1365 1.279 . S
C1362 C1360 1.348 1_655 S
C1362 C1364 1.353 . S
C1362 H1404 0.929 . S
C1363 C1360 1.356 . S
C1363 C1365 1.358 . S
C1363 H1405 0.930 . S
C1364 N1361 1.314 1_655 S
C1364 C1362 1.353 . S
C1364 H1406 0.930 . S
C1365 N1361 1.279 . S
C1365 C1363 1.358 . S
C1365 H1407 0.930 . S
C1366 C1367 1.348 . S
C1366 C1368 1.356 . S
C1366 O1391 1.325 . S
C1367 C1366 1.348 . S
C1367 C1369 1.353 . S
C1367 H1408 0.929 . S
C1368 C1366 1.356 . S
C1368 C1370 1.358 . S
C1368 H1409 0.930 . S
C1369 C1367 1.353 . S
C1369 N1371 1.314 . S
C1369 H1410 0.930 . S
C1370 C1368 1.358 . S
C1370 N1371 1.279 . S
C1370 H1411 0.930 . S
N1371 C1369 1.314 . S
N1371 C1370 1.279 . S
C1372 C1374 1.353 . S
C1372 N1375 1.314 . S
C1372 H1378 0.930 . S
C1373 N1375 1.279 . S
C1373 C1376 1.358 . S
C1373 H1379 0.930 . S
C1374 C1372 1.353 . S
C1374 C1377 1.348 . S
C1374 H1412 0.929 . S
N1375 Li1330 1.990 . S
N1375 C1372 1.314 . S
N1375 C1373 1.279 . S
C1376 C1373 1.358 . S
C1376 C1377 1.356 . S
C1376 H1413 0.930 . S
C1377 C1374 1.348 . S
C1377 C1376 1.356 . S
H1378 C1372 0.930 . S
H1379 C1373 0.930 . S
C1380 N1381 1.314 . S
C1380 C1382 1.353 . S
C1380 H1386 0.930 . S
N1381 Li1331 1.990 . S
N1381 C1380 1.314 . S
N1381 C1384 1.279 . S
C1382 C1380 1.353 . S
C1382 C1385 1.348 . S
C1382 H1414 0.929 . S
C1383 C1384 1.358 . S
C1383 C1385 1.356 . S
C1383 H1415 0.930 . S
C1384 N1381 1.279 . S
C1384 C1383 1.358 . S
C1384 H1387 0.930 . S
C1385 C1382 1.348 . S
C1385 C1383 1.356 . S
H1386 C1380 0.930 . S
H1387 C1384 0.930 . S
O1388 Li1328 1.956 . S
O1388 Li1329 1.970 1_455 S
O1388 Li1330 1.961 . S
O1388 C1332 1.325 . S
O1389 Li1328 1.970 1_655 S
O1389 Li1329 1.956 . S
O1389 Li1331 1.961 . S
O1389 C1338 1.325 . S
O1390 Li1328 1.961 . S
O1390 Li1330 1.956 . S
O1390 Li1331 1.970 1_455 S
O1390 C1360 1.325 . S
O1391 Li1329 1.961 . S
O1391 Li1330 1.970 1_655 S
O1391 Li1331 1.956 . S
O1391 C1366 1.325 . S
H1392 C1334 0.929 . S
H1393 C1335 0.930 . S
H1394 C1336 0.930 . S
H1395 C1337 0.930 . S
H1396 C1339 0.930 . S
H1397 C1341 0.929 . S
H1398 C1342 0.930 . S
H1399 C1343 0.930 . S
H1400 C1346 0.930 . S
H1401 C1349 0.929 . S
H1402 C1354 0.929 . S
H1403 C1355 0.930 . S
H1404 C1362 0.929 . S
H1405 C1363 0.930 . S
H1406 C1364 0.930 . S
H1407 C1365 0.930 . S
H1408 C1367 0.929 . S
H1409 C1368 0.930 . S
H1410 C1369 0.930 . S
H1411 C1370 0.930 . S
H1412 C1374 0.929 . S
H1413 C1376 0.930 . S
H1414 C1382 0.929 . S
H1415 C1383 0.930 . S
Li1416 N1433 1.990 . S
Li1416 O1476 1.956 . S
Li1416 O1477 1.970 . S
Li1416 O1478 1.961 . S
Li1417 N1441 1.990 . S
Li1417 O1476 1.970 . S
Li1417 O1477 1.956 . S
Li1417 O1479 1.961 . S
Li1418 N1463 1.990 . S
Li1418 O1476 1.961 . S
Li1418 O1478 1.956 . S
Li1418 O1479 1.970 . S
Li1419 N1469 1.990 . S
Li1419 O1477 1.961 . S
Li1419 O1478 1.970 . S
Li1419 O1479 1.956 . S
C1420 C1422 1.348 . S
C1420 C1423 1.356 . S
C1420 O1476 1.325 . S
N1421 C1424 1.314 . S
N1421 C1425 1.279 . S
C1422 C1420 1.348 . S
C1422 C1424 1.353 . S
C1422 H1480 0.929 . S
C1423 C1420 1.356 . S
C1423 C1425 1.358 . S
C1423 H1481 0.930 . S
C1424 N1421 1.314 . S
C1424 C1422 1.353 . S
C1424 H1482 0.930 . S
C1425 N1421 1.279 . S
C1425 C1423 1.358 . S
C1425 H1483 0.930 . S
C1426 C1429 1.348 . S
C1426 C1430 1.356 . S
C1426 O1477 1.325 . S
C1427 N1428 1.279 . S
C1427 C1430 1.358 . S
C1427 H1484 0.930 . S
N1428 C1427 1.279 . S
N1428 C1431 1.314 . S
C1429 C1426 1.348 . S
C1429 C1431 1.353 . S
C1429 H1485 0.929 . S
C1430 C1426 1.356 . S
C1430 C1427 1.358 . S
C1430 H1486 0.930 . S
C1431 N1428 1.314 . S
C1431 C1429 1.353 . S
C1431 H1487 0.930 . S
C1432 N1433 1.314 . S
C1432 C1437 1.353 . S
C1432 H1438 0.930 . S
N1433 Li1416 1.990 . S
N1433 C1432 1.314 . S
N1433 C1435 1.279 . S
C1434 C1435 1.358 . S
C1434 C1436 1.356 . S
C1434 H1488 0.930 . S
C1435 N1433 1.279 . S
C1435 C1434 1.358 . S
C1435 H1439 0.930 . S
C1436 C1434 1.356 . S
C1436 C1437 1.348 . S
C1437 C1432 1.353 . S
C1437 C1436 1.348 . S
C1437 H1489 0.929 . S
H1438 C1432 0.930 . S
H1439 C1435 0.930 . S
C1440 N1441 1.314 . S
C1440 C1442 1.353 . S
C1440 H1446 0.930 . S
N1441 Li1417 1.990 . S
N1441 C1440 1.314 . S
N1441 C1444 1.279 . S
C1442 C1440 1.353 . S
C1442 C1445 1.348 . S
C1442 H1490 0.929 . S
C1443 C1444 1.358 . S
C1443 C1445 1.356 . S
C1443 H1491 0.930 . S
C1444 N1441 1.279 . S
C1444 C1443 1.358 . S
C1444 H1447 0.930 . S
C1445 C1442 1.348 . S
C1445 C1443 1.356 . S
H1446 C1440 0.930 . S
H1447 C1444 0.930 . S
C1448 C1450 1.348 . S
C1448 C1451 1.356 . S
C1448 O1478 1.325 . S
N1449 C1452 1.314 . S
N1449 C1453 1.279 . S
C1450 C1448 1.348 . S
C1450 C1452 1.353 . S
C1450 H1492 0.929 . S
C1451 C1448 1.356 . S
C1451 C1453 1.358 . S
C1451 H1493 0.930 . S
C1452 N1449 1.314 . S
C1452 C1450 1.353 . S
C1452 H1494 0.930 . S
C1453 N1449 1.279 . S
C1453 C1451 1.358 . S
C1453 H1495 0.930 . S
C1454 C1455 1.348 . S
C1454 C1456 1.356 . S
C1454 O1479 1.325 . S
C1455 C1454 1.348 . S
C1455 C1457 1.353 . S
C1455 H1496 0.929 . S
C1456 C1454 1.356 . S
C1456 C1458 1.358 . S
C1456 H1497 0.930 . S
C1457 C1455 1.353 . S
C1457 N1459 1.314 . S
C1457 H1498 0.930 . S
C1458 C1456 1.358 . S
C1458 N1459 1.279 . S
C1458 H1499 0.930 . S
N1459 C1457 1.314 . S
N1459 C1458 1.279 . S
C1460 C1462 1.353 . S
C1460 N1463 1.314 . S
C1460 H1466 0.930 . S
C1461 N1463 1.279 . S
C1461 C1464 1.358 . S
C1461 H1467 0.930 . S
C1462 C1460 1.353 . S
C1462 C1465 1.348 . S
C1462 H1500 0.929 . S
N1463 Li1418 1.990 . S
N1463 C1460 1.314 . S
N1463 C1461 1.279 . S
C1464 C1461 1.358 . S
C1464 C1465 1.356 . S
C1464 H1501 0.930 . S
C1465 C1462 1.348 . S
C1465 C1464 1.356 . S
H1466 C1460 0.930 . S
H1467 C1461 0.930 . S
C1468 N1469 1.314 . S
C1468 C1470 1.353 . S
C1468 H1474 0.930 . S
N1469 Li1419 1.990 . S
N1469 C1468 1.314 . S
N1469 C1472 1.279 . S
C1470 C1468 1.353 . S
C1470 C1473 1.348 . S
C1470 H1502 0.929 . S
C1471 C1472 1.358 . S
C1471 C1473 1.356 . S
C1471 H1503 0.930 . S
C1472 N1469 1.279 . S
C1472 C1471 1.358 . S
C1472 H1475 0.930 . S
C1473 C1470 1.348 . S
C1473 C1471 1.356 . S
H1474 C1468 0.930 . S
H1475 C1472 0.930 . S
O1476 Li1416 1.956 . S
O1476 Li1417 1.970 . S
O1476 Li1418 1.961 . S
O1476 C1420 1.325 . S
O1477 Li1416 1.970 . S
O1477 Li1417 1.956 . S
O1477 Li1419 1.961 . S
O1477 C1426 1.325 . S
O1478 Li1416 1.961 . S
O1478 Li1418 1.956 . S
O1478 Li1419 1.970 . S
O1478 C1448 1.325 . S
O1479 Li1417 1.961 . S
O1479 Li1418 1.970 . S
O1479 Li1419 1.956 . S
O1479 C1454 1.325 . S
H1480 C1422 0.929 . S
H1481 C1423 0.930 . S
H1482 C1424 0.930 . S
H1483 C1425 0.930 . S
H1484 C1427 0.930 . S
H1485 C1429 0.929 . S
H1486 C1430 0.930 . S
H1487 C1431 0.930 . S
H1488 C1434 0.930 . S
H1489 C1437 0.929 . S
H1490 C1442 0.929 . S
H1491 C1443 0.930 . S
H1492 C1450 0.929 . S
H1493 C1451 0.930 . S
H1494 C1452 0.930 . S
H1495 C1453 0.930 . S
H1496 C1455 0.929 . S
H1497 C1456 0.930 . S
H1498 C1457 0.930 . S
H1499 C1458 0.930 . S
H1500 C1462 0.929 . S
H1501 C1464 0.930 . S
H1502 C1470 0.929 . S
H1503 C1471 0.930 . S
Li1504 N1521 1.990 . S
Li1504 O1564 1.956 . S
Li1504 O1565 1.970 1_455 S
Li1504 O1566 1.961 . S
Li1505 N1529 1.990 . S
Li1505 O1564 1.970 1_655 S
Li1505 O1565 1.956 . S
Li1505 O1567 1.961 . S
Li1506 N1551 1.990 . S
Li1506 O1564 1.961 . S
Li1506 O1566 1.956 . S
Li1506 O1567 1.970 1_455 S
Li1507 N1557 1.990 . S
Li1507 O1565 1.961 . S
Li1507 O1566 1.970 1_655 S
Li1507 O1567 1.956 . S
C1508 C1510 1.348 1_455 S
C1508 C1511 1.356 . S
C1508 O1564 1.325 . S
N1509 C1512 1.314 1_455 S
N1509 C1513 1.279 . S
C1510 C1508 1.348 1_655 S
C1510 C1512 1.353 . S
C1510 H1568 0.929 . S
C1511 C1508 1.356 . S
C1511 C1513 1.358 . S
C1511 H1569 0.930 . S
C1512 N1509 1.314 1_655 S
C1512 C1510 1.353 . S
C1512 H1570 0.930 . S
C1513 N1509 1.279 . S
C1513 C1511 1.358 . S
C1513 H1571 0.930 . S
C1514 C1517 1.348 . S
C1514 C1518 1.356 . S
C1514 O1565 1.325 . S
C1515 N1516 1.279 . S
C1515 C1518 1.358 . S
C1515 H1572 0.930 . S
N1516 C1515 1.279 . S
N1516 C1519 1.314 . S
C1517 C1514 1.348 . S
C1517 C1519 1.353 . S
C1517 H1573 0.929 . S
C1518 C1514 1.356 . S
C1518 C1515 1.358 . S
C1518 H1574 0.930 . S
C1519 N1516 1.314 . S
C1519 C1517 1.353 . S
C1519 H1575 0.930 . S
C1520 N1521 1.314 . S
C1520 C1525 1.353 . S
C1520 H1526 0.930 . S
N1521 Li1504 1.990 . S
N1521 C1520 1.314 . S
N1521 C1523 1.279 . S
C1522 C1523 1.358 . S
C1522 C1524 1.356 . S
C1522 H1576 0.930 . S
C1523 N1521 1.279 . S
C1523 C1522 1.358 . S
C1523 H1527 0.930 . S
C1524 C1522 1.356 . S
C1524 C1525 1.348 . S
C1525 C1520 1.353 . S
C1525 C1524 1.348 . S
C1525 H1577 0.929 . S
H1526 C1520 0.930 . S
H1527 C1523 0.930 . S
C1528 N1529 1.314 . S
C1528 C1530 1.353 . S
C1528 H1534 0.930 . S
N1529 Li1505 1.990 . S
N1529 C1528 1.314 . S
N1529 C1532 1.279 . S
C1530 C1528 1.353 . S
C1530 C1533 1.348 . S
C1530 H1578 0.929 . S
C1531 C1532 1.358 . S
C1531 C1533 1.356 . S
C1531 H1579 0.930 . S
C1532 N1529 1.279 . S
C1532 C1531 1.358 . S
C1532 H1535 0.930 . S
C1533 C1530 1.348 . S
C1533 C1531 1.356 . S
H1534 C1528 0.930 . S
H1535 C1532 0.930 . S
C1536 C1538 1.348 . S
C1536 C1539 1.356 . S
C1536 O1566 1.325 . S
N1537 C1540 1.314 . S
N1537 C1541 1.279 . S
C1538 C1536 1.348 . S
C1538 C1540 1.353 . S
C1538 H1580 0.929 . S
C1539 C1536 1.356 . S
C1539 C1541 1.358 . S
C1539 H1581 0.930 . S
C1540 N1537 1.314 . S
C1540 C1538 1.353 . S
C1540 H1582 0.930 . S
C1541 N1537 1.279 . S
C1541 C1539 1.358 . S
C1541 H1583 0.930 . S
C1542 C1543 1.348 1_655 S
C1542 C1544 1.356 . S
C1542 O1567 1.325 . S
C1543 C1542 1.348 1_455 S
C1543 C1545 1.353 . S
C1543 H1584 0.929 . S
C1544 C1542 1.356 . S
C1544 C1546 1.358 . S
C1544 H1585 0.930 . S
C1545 C1543 1.353 . S
C1545 N1547 1.314 1_455 S
C1545 H1586 0.930 . S
C1546 C1544 1.358 . S
C1546 N1547 1.279 . S
C1546 H1587 0.930 . S
N1547 C1545 1.314 1_655 S
N1547 C1546 1.279 . S
C1548 C1550 1.353 . S
C1548 N1551 1.314 . S
C1548 H1554 0.930 . S
C1549 N1551 1.279 . S
C1549 C1552 1.358 . S
C1549 H1555 0.930 . S
C1550 C1548 1.353 . S
C1550 C1553 1.348 . S
C1550 H1588 0.929 . S
N1551 Li1506 1.990 . S
N1551 C1548 1.314 . S
N1551 C1549 1.279 . S
C1552 C1549 1.358 . S
C1552 C1553 1.356 . S
C1552 H1589 0.930 . S
C1553 C1550 1.348 . S
C1553 C1552 1.356 . S
H1554 C1548 0.930 . S
H1555 C1549 0.930 . S
C1556 N1557 1.314 . S
C1556 C1558 1.353 . S
C1556 H1562 0.930 . S
N1557 Li1507 1.990 . S
N1557 C1556 1.314 . S
N1557 C1560 1.279 . S
C1558 C1556 1.353 . S
C1558 C1561 1.348 . S
C1558 H1590 0.929 . S
C1559 C1560 1.358 . S
C1559 C1561 1.356 . S
C1559 H1591 0.930 . S
C1560 N1557 1.279 . S
C1560 C1559 1.358 . S
C1560 H1563 0.930 . S
C1561 C1558 1.348 . S
C1561 C1559 1.356 . S
H1562 C1556 0.930 . S
H1563 C1560 0.930 . S
O1564 Li1504 1.956 . S
O1564 Li1505 1.970 1_455 S
O1564 Li1506 1.961 . S
O1564 C1508 1.325 . S
O1565 Li1504 1.970 1_655 S
O1565 Li1505 1.956 . S
O1565 Li1507 1.961 . S
O1565 C1514 1.325 . S
O1566 Li1504 1.961 . S
O1566 Li1506 1.956 . S
O1566 Li1507 1.970 1_455 S
O1566 C1536 1.325 . S
O1567 Li1505 1.961 . S
O1567 Li1506 1.970 1_655 S
O1567 Li1507 1.956 . S
O1567 C1542 1.325 . S
H1568 C1510 0.929 . S
H1569 C1511 0.930 . S
H1570 C1512 0.930 . S
H1571 C1513 0.930 . S
H1572 C1515 0.930 . S
H1573 C1517 0.929 . S
H1574 C1518 0.930 . S
H1575 C1519 0.930 . S
H1576 C1522 0.930 . S
H1577 C1525 0.929 . S
H1578 C1530 0.929 . S
H1579 C1531 0.930 . S
H1580 C1538 0.929 . S
H1581 C1539 0.930 . S
H1582 C1540 0.930 . S
H1583 C1541 0.930 . S
H1584 C1543 0.929 . S
H1585 C1544 0.930 . S
H1586 C1545 0.930 . S
H1587 C1546 0.930 . S
H1588 C1550 0.929 . S
H1589 C1552 0.930 . S
H1590 C1558 0.929 . S
H1591 C1559 0.930 . S
Li1592 N1609 1.990 . S
Li1592 O1652 1.956 . S
Li1592 O1653 1.970 . S
Li1592 O1654 1.961 . S
Li1593 N1617 1.990 . S
Li1593 O1652 1.970 . S
Li1593 O1653 1.956 . S
Li1593 O1655 1.961 . S
Li1594 N1639 1.990 . S
Li1594 O1652 1.961 . S
Li1594 O1654 1.956 . S
Li1594 O1655 1.970 . S
Li1595 N1645 1.990 . S
Li1595 O1653 1.961 . S
Li1595 O1654 1.970 . S
Li1595 O1655 1.956 . S
C1596 C1598 1.348 . S
C1596 C1599 1.356 . S
C1596 O1652 1.325 . S
N1597 C1600 1.314 . S
N1597 C1601 1.279 . S
C1598 C1596 1.348 . S
C1598 C1600 1.353 . S
C1598 H1656 0.929 . S
C1599 C1596 1.356 . S
C1599 C1601 1.358 . S
C1599 H1657 0.930 . S
C1600 N1597 1.314 . S
C1600 C1598 1.353 . S
C1600 H1658 0.930 . S
C1601 N1597 1.279 . S
C1601 C1599 1.358 . S
C1601 H1659 0.930 . S
C1602 C1605 1.348 . S
C1602 C1606 1.356 . S
C1602 O1653 1.325 . S
C1603 N1604 1.279 . S
C1603 C1606 1.358 . S
C1603 H1660 0.930 . S
N1604 C1603 1.279 . S
N1604 C1607 1.314 . S
C1605 C1602 1.348 . S
C1605 C1607 1.353 . S
C1605 H1661 0.929 . S
C1606 C1602 1.356 . S
C1606 C1603 1.358 . S
C1606 H1662 0.930 . S
C1607 N1604 1.314 . S
C1607 C1605 1.353 . S
C1607 H1663 0.930 . S
C1608 N1609 1.314 . S
C1608 C1613 1.353 . S
C1608 H1614 0.930 . S
N1609 Li1592 1.990 . S
N1609 C1608 1.314 . S
N1609 C1611 1.279 . S
C1610 C1611 1.358 . S
C1610 C1612 1.356 . S
C1610 H1664 0.930 . S
C1611 N1609 1.279 . S
C1611 C1610 1.358 . S
C1611 H1615 0.930 . S
C1612 C1610 1.356 . S
C1612 C1613 1.348 . S
C1613 C1608 1.353 . S
C1613 C1612 1.348 . S
C1613 H1665 0.929 . S
H1614 C1608 0.930 . S
H1615 C1611 0.930 . S
C1616 N1617 1.314 . S
C1616 C1618 1.353 . S
C1616 H1622 0.930 . S
N1617 Li1593 1.990 . S
N1617 C1616 1.314 . S
N1617 C1620 1.279 . S
C1618 C1616 1.353 . S
C1618 C1621 1.348 . S
C1618 H1666 0.929 . S
C1619 C1620 1.358 . S
C1619 C1621 1.356 . S
C1619 H1667 0.930 . S
C1620 N1617 1.279 . S
C1620 C1619 1.358 . S
C1620 H1623 0.930 . S
C1621 C1618 1.348 . S
C1621 C1619 1.356 . S
H1622 C1616 0.930 . S
H1623 C1620 0.930 . S
C1624 C1626 1.348 . S
C1624 C1627 1.356 . S
C1624 O1654 1.325 . S
N1625 C1628 1.314 . S
N1625 C1629 1.279 . S
C1626 C1624 1.348 . S
C1626 C1628 1.353 . S
C1626 H1668 0.929 . S
C1627 C1624 1.356 . S
C1627 C1629 1.358 . S
C1627 H1669 0.930 . S
C1628 N1625 1.314 . S
C1628 C1626 1.353 . S
C1628 H1670 0.930 . S
C1629 N1625 1.279 . S
C1629 C1627 1.358 . S
C1629 H1671 0.930 . S
C1630 C1631 1.348 . S
C1630 C1632 1.356 . S
C1630 O1655 1.325 . S
C1631 C1630 1.348 . S
C1631 C1633 1.353 . S
C1631 H1672 0.929 . S
C1632 C1630 1.356 . S
C1632 C1634 1.358 . S
C1632 H1673 0.930 . S
C1633 C1631 1.353 . S
C1633 N1635 1.314 . S
C1633 H1674 0.930 . S
C1634 C1632 1.358 . S
C1634 N1635 1.279 . S
C1634 H1675 0.930 . S
N1635 C1633 1.314 . S
N1635 C1634 1.279 . S
C1636 C1638 1.353 . S
C1636 N1639 1.314 . S
C1636 H1642 0.930 . S
C1637 N1639 1.279 . S
C1637 C1640 1.358 . S
C1637 H1643 0.930 . S
C1638 C1636 1.353 . S
C1638 C1641 1.348 . S
C1638 H1676 0.929 . S
N1639 Li1594 1.990 . S
N1639 C1636 1.314 . S
N1639 C1637 1.279 . S
C1640 C1637 1.358 . S
C1640 C1641 1.356 . S
C1640 H1677 0.930 . S
C1641 C1638 1.348 . S
C1641 C1640 1.356 . S
H1642 C1636 0.930 . S
H1643 C1637 0.930 . S
C1644 N1645 1.314 . S
C1644 C1646 1.353 . S
C1644 H1650 0.930 . S
N1645 Li1595 1.990 . S
N1645 C1644 1.314 . S
N1645 C1648 1.279 . S
C1646 C1644 1.353 . S
C1646 C1649 1.348 . S
C1646 H1678 0.929 . S
C1647 C1648 1.358 . S
C1647 C1649 1.356 . S
C1647 H1679 0.930 . S
C1648 N1645 1.279 . S
C1648 C1647 1.358 . S
C1648 H1651 0.930 . S
C1649 C1646 1.348 . S
C1649 C1647 1.356 . S
H1650 C1644 0.930 . S
H1651 C1648 0.930 . S
O1652 Li1592 1.956 . S
O1652 Li1593 1.970 . S
O1652 Li1594 1.961 . S
O1652 C1596 1.325 . S
O1653 Li1592 1.970 . S
O1653 Li1593 1.956 . S
O1653 Li1595 1.961 . S
O1653 C1602 1.325 . S
O1654 Li1592 1.961 . S
O1654 Li1594 1.956 . S
O1654 Li1595 1.970 . S
O1654 C1624 1.325 . S
O1655 Li1593 1.961 . S
O1655 Li1594 1.970 . S
O1655 Li1595 1.956 . S
O1655 C1630 1.325 . S
H1656 C1598 0.929 . S
H1657 C1599 0.930 . S
H1658 C1600 0.930 . S
H1659 C1601 0.930 . S
H1660 C1603 0.930 . S
H1661 C1605 0.929 . S
H1662 C1606 0.930 . S
H1663 C1607 0.930 . S
H1664 C1610 0.930 . S
H1665 C1613 0.929 . S
H1666 C1618 0.929 . S
H1667 C1619 0.930 . S
H1668 C1626 0.929 . S
H1669 C1627 0.930 . S
H1670 C1628 0.930 . S
H1671 C1629 0.930 . S
H1672 C1631 0.929 . S
H1673 C1632 0.930 . S
H1674 C1633 0.930 . S
H1675 C1634 0.930 . S
H1676 C1638 0.929 . S
H1677 C1640 0.930 . S
H1678 C1646 0.929 . S
H1679 C1647 0.930 . S
H1680 C1688 0.929 . S
H1681 C1690 0.930 . S
H1682 C1692 0.930 . S
H1683 C1695 0.929 . S
H1684 C1698 0.930 . S
H1685 C1700 0.960 . S
H1686 C1700 0.960 . S
H1687 C1700 0.960 . S
C1688 H1680 0.929 . S
C1688 C1689 1.377 . S
C1688 C1690 1.384 . S
C1689 C1688 1.377 . S
C1689 C1695 1.390 . S
C1690 H1681 0.930 . S
C1690 C1688 1.384 . S
C1690 C1691 1.372 . S
C1691 C1690 1.372 . S
C1691 C1692 1.400 . S
C1691 C1696 1.490 . S
C1692 H1682 0.930 . S
C1692 C1691 1.400 . S
C1692 C1695 1.386 . S
H1693 C1709 0.930 . S
H1694 C1710 0.931 . S
C1695 H1683 0.929 . S
C1695 C1689 1.390 . S
C1695 C1692 1.386 . S
C1696 C1691 1.490 . S
C1696 C1698 1.395 . S
C1696 C1699 1.403 . S
H1697 C1703 0.930 . S
C1698 H1684 0.930 . S
C1698 C1696 1.395 . S
C1698 C1701 1.403 . S
C1699 C1696 1.403 . S
C1699 C1700 1.524 . S
C1699 C1703 1.400 . S
C1700 H1685 0.960 . S
C1700 H1686 0.960 . S
C1700 H1687 0.960 . S
C1700 C1699 1.524 . S
C1701 C1698 1.403 . S
C1701 C1702 1.392 . S
C1701 C1705 1.495 . S
C1702 C1701 1.392 . S
C1702 C1703 1.385 . S
C1702 C1704 1.478 . S
C1703 H1697 0.930 . S
C1703 C1699 1.400 . S
C1703 C1702 1.385 . S
C1704 C1702 1.478 . S
C1704 C1706 1.381 . S
C1704 C1710 1.383 . S
C1705 C1701 1.495 . S
C1705 H1711 0.959 . S
C1705 H1712 0.961 . S
C1705 H1713 0.960 . S
C1706 C1704 1.381 . S
C1706 C1707 1.394 . S
C1706 H1714 0.930 . S
C1707 C1706 1.394 . S
C1707 C1708 1.383 . S
C1707 H1715 0.929 . S
C1708 C1707 1.383 . S
C1708 C1709 1.377 . S
C1709 H1693 0.930 . S
C1709 C1708 1.377 . S
C1709 C1710 1.379 . S
C1710 H1694 0.931 . S
C1710 C1704 1.383 . S
C1710 C1709 1.379 . S
H1711 C1705 0.959 . S
H1712 C1705 0.961 . S
H1713 C1705 0.960 . S
H1714 C1706 0.930 . S
H1715 C1707 0.929 . S
H1716 C1724 0.929 . S
H1717 C1726 0.930 . S
H1718 C1728 0.930 . S
H1719 C1731 0.929 . S
H1720 C1734 0.930 . S
H1721 C1736 0.960 . S
H1722 C1736 0.960 . S
H1723 C1736 0.960 . S
C1724 H1716 0.929 . S
C1724 C1725 1.377 . S
C1724 C1726 1.384 . S
C1725 C1724 1.377 . S
C1725 C1731 1.390 . S
C1726 H1717 0.930 . S
C1726 C1724 1.384 . S
C1726 C1727 1.372 . S
C1727 C1726 1.372 . S
C1727 C1728 1.400 . S
C1727 C1732 1.490 . S
C1728 H1718 0.930 . S
C1728 C1727 1.400 . S
C1728 C1731 1.386 . S
H1729 C1745 0.930 . S
H1730 C1746 0.931 . S
C1731 H1719 0.929 . S
C1731 C1725 1.390 . S
C1731 C1728 1.386 . S
C1732 C1727 1.490 . S
C1732 C1734 1.395 . S
C1732 C1735 1.403 . S
H1733 C1739 0.930 . S
C1734 H1720 0.930 . S
C1734 C1732 1.395 . S
C1734 C1737 1.403 . S
C1735 C1732 1.403 . S
C1735 C1736 1.524 . S
C1735 C1739 1.400 . S
C1736 H1721 0.960 . S
C1736 H1722 0.960 . S
C1736 H1723 0.960 . S
C1736 C1735 1.524 . S
C1737 C1734 1.403 . S
C1737 C1738 1.392 . S
C1737 C1741 1.495 . S
C1738 C1737 1.392 . S
C1738 C1739 1.385 . S
C1738 C1740 1.478 . S
C1739 H1733 0.930 . S
C1739 C1735 1.400 . S
C1739 C1738 1.385 . S
C1740 C1738 1.478 . S
C1740 C1742 1.381 . S
C1740 C1746 1.383 . S
C1741 C1737 1.495 . S
C1741 H1747 0.959 . S
C1741 H1748 0.961 . S
C1741 H1749 0.960 . S
C1742 C1740 1.381 . S
C1742 C1743 1.394 . S
C1742 H1750 0.930 . S
C1743 C1742 1.394 . S
C1743 C1744 1.383 . S
C1743 H1751 0.929 . S
C1744 C1743 1.383 . S
C1744 C1745 1.377 . S
C1745 H1729 0.930 . S
C1745 C1744 1.377 . S
C1745 C1746 1.379 . S
C1746 H1730 0.931 . S
C1746 C1740 1.383 . S
C1746 C1745 1.379 . S
H1747 C1741 0.959 . S
H1748 C1741 0.961 . S
H1749 C1741 0.960 . S
H1750 C1742 0.930 . S
H1751 C1743 0.929 . S
H1752 C1760 0.929 . S
H1753 C1762 0.930 . S
H1754 C1764 0.930 . S
H1755 C1767 0.929 . S
H1756 C1770 0.930 . S
H1757 C1772 0.960 . S
H1758 C1772 0.960 . S
H1759 C1772 0.960 . S
C1760 H1752 0.929 . S
C1760 C1761 1.377 . S
C1760 C1762 1.384 . S
C1761 C1760 1.377 . S
C1761 C1767 1.390 . S
C1762 H1753 0.930 . S
C1762 C1760 1.384 . S
C1762 C1763 1.372 . S
C1763 C1762 1.372 . S
C1763 C1764 1.400 . S
C1763 C1768 1.490 . S
C1764 H1754 0.930 . S
C1764 C1763 1.400 . S
C1764 C1767 1.386 . S
H1765 C1781 0.930 . S
H1766 C1782 0.931 . S
C1767 H1755 0.929 . S
C1767 C1761 1.390 . S
C1767 C1764 1.386 . S
C1768 C1763 1.490 . S
C1768 C1770 1.395 . S
C1768 C1771 1.403 . S
H1769 C1775 0.930 . S
C1770 H1756 0.930 . S
C1770 C1768 1.395 . S
C1770 C1773 1.403 . S
C1771 C1768 1.403 . S
C1771 C1772 1.524 . S
C1771 C1775 1.400 . S
C1772 H1757 0.960 . S
C1772 H1758 0.960 . S
C1772 H1759 0.960 . S
C1772 C1771 1.524 . S
C1773 C1770 1.403 . S
C1773 C1774 1.392 . S
C1773 C1777 1.495 . S
C1774 C1773 1.392 . S
C1774 C1775 1.385 . S
C1774 C1776 1.478 . S
C1775 H1769 0.930 . S
C1775 C1771 1.400 . S
C1775 C1774 1.385 . S
C1776 C1774 1.478 . S
C1776 C1778 1.381 . S
C1776 C1782 1.383 . S
C1777 C1773 1.495 . S
C1777 H1783 0.959 . S
C1777 H1784 0.961 . S
C1777 H1785 0.960 . S
C1778 C1776 1.381 . S
C1778 C1779 1.394 . S
C1778 H1786 0.930 . S
C1779 C1778 1.394 . S
C1779 C1780 1.383 . S
C1779 H1787 0.929 . S
C1780 C1779 1.383 . S
C1780 C1781 1.377 . S
C1781 H1765 0.930 . S
C1781 C1780 1.377 . S
C1781 C1782 1.379 . S
C1782 H1766 0.931 . S
C1782 C1776 1.383 . S
C1782 C1781 1.379 . S
H1783 C1777 0.959 . S
H1784 C1777 0.961 . S
H1785 C1777 0.960 . S
H1786 C1778 0.930 . S
H1787 C1779 0.929 . S
H1788 C1796 0.929 1_545 S
H1789 C1798 0.930 1_545 S
H1790 C1800 0.930 . S
H1791 C1803 0.929 . S
H1792 C1806 0.930 . S
H1793 C1808 0.960 . S
H1794 C1808 0.960 . S
H1795 C1808 0.960 . S
C1796 H1788 0.929 1_565 S
C1796 C1797 1.377 . S
C1796 C1798 1.384 . S
C1797 C1796 1.377 . S
C1797 C1803 1.390 . S
C1798 H1789 0.930 1_565 S
C1798 C1796 1.384 . S
C1798 C1799 1.372 . S
C1799 C1798 1.372 . S
C1799 C1800 1.400 . S
C1799 C1804 1.490 . S
C1800 H1790 0.930 . S
C1800 C1799 1.400 . S
C1800 C1803 1.386 . S
H1801 C1817 0.930 . S
H1802 C1818 0.931 . S
C1803 H1791 0.929 . S
C1803 C1797 1.390 . S
C1803 C1800 1.386 . S
C1804 C1799 1.490 . S
C1804 C1806 1.395 . S
C1804 C1807 1.403 . S
H1805 C1811 0.930 . S
C1806 H1792 0.930 . S
C1806 C1804 1.395 . S
C1806 C1809 1.403 . S
C1807 C1804 1.403 . S
C1807 C1808 1.524 . S
C1807 C1811 1.400 . S
C1808 H1793 0.960 . S
C1808 H1794 0.960 . S
C1808 H1795 0.960 . S
C1808 C1807 1.524 . S
C1809 C1806 1.403 . S
C1809 C1810 1.392 . S
C1809 C1813 1.503 . S
C1810 C1809 1.392 . S
C1810 C1811 1.385 . S
C1810 C1812 1.478 . S
C1811 H1805 0.930 . S
C1811 C1807 1.400 . S
C1811 C1810 1.385 . S
C1812 C1810 1.478 . S
C1812 C1814 1.381 1_565 S
C1812 C1818 1.383 . S
C1813 C1809 1.503 . S
C1813 H1819 0.955 1_565 S
C1813 H1820 0.974 . S
C1813 H1821 0.943 1_565 S
C1814 C1812 1.381 1_545 S
C1814 C1815 1.394 . S
C1814 H1822 0.930 . S
C1815 C1814 1.394 . S
C1815 C1816 1.383 1_545 S
C1815 H1823 0.929 . S
C1816 C1815 1.383 1_565 S
C1816 C1817 1.377 . S
C1817 H1801 0.930 . S
C1817 C1816 1.377 . S
C1817 C1818 1.379 . S
C1818 H1802 0.931 . S
C1818 C1812 1.383 . S
C1818 C1817 1.379 . S
H1819 C1813 0.955 1_545 S
H1820 C1813 0.974 . S
H1821 C1813 0.943 1_545 S
H1822 C1814 0.930 . S
H1823 C1815 0.929 . S
H1824 C1832 0.929 . S
H1825 C1834 0.930 . S
H1826 C1836 0.930 . S
H1827 C1839 0.929 . S
H1828 C1842 0.930 . S
H1829 C1844 0.960 . S
H1830 C1844 0.960 . S
H1831 C1844 0.960 . S
C1832 H1824 0.929 . S
C1832 C1833 1.377 . S
C1832 C1834 1.384 . S
C1833 C1832 1.377 . S
C1833 C1839 1.390 . S
C1834 H1825 0.930 . S
C1834 C1832 1.384 . S
C1834 C1835 1.372 . S
C1835 C1834 1.372 . S
C1835 C1836 1.400 . S
C1835 C1840 1.490 . S
C1836 H1826 0.930 . S
C1836 C1835 1.400 . S
C1836 C1839 1.386 . S
H1837 C1853 0.930 . S
H1838 C1854 0.931 . S
C1839 H1827 0.929 . S
C1839 C1833 1.390 . S
C1839 C1836 1.386 . S
C1840 C1835 1.490 . S
C1840 C1842 1.395 . S
C1840 C1843 1.403 . S
H1841 C1847 0.930 . S
C1842 H1828 0.930 . S
C1842 C1840 1.395 . S
C1842 C1845 1.403 . S
C1843 C1840 1.403 . S
C1843 C1844 1.524 . S
C1843 C1847 1.400 . S
C1844 H1829 0.960 . S
C1844 H1830 0.960 . S
C1844 H1831 0.960 . S
C1844 C1843 1.524 . S
C1845 C1842 1.403 . S
C1845 C1846 1.392 . S
C1845 C1849 1.495 . S
C1846 C1845 1.392 . S
C1846 C1847 1.385 . S
C1846 C1848 1.478 . S
C1847 H1841 0.930 . S
C1847 C1843 1.400 . S
C1847 C1846 1.385 . S
C1848 C1846 1.478 . S
C1848 C1850 1.381 . S
C1848 C1854 1.383 . S
C1849 C1845 1.495 . S
C1849 H1855 0.959 . S
C1849 H1856 0.961 . S
C1849 H1857 0.960 . S
C1850 C1848 1.381 . S
C1850 C1851 1.394 . S
C1850 H1858 0.930 . S
C1851 C1850 1.394 . S
C1851 C1852 1.383 . S
C1851 H1859 0.929 . S
C1852 C1851 1.383 . S
C1852 C1853 1.377 . S
C1853 H1837 0.930 . S
C1853 C1852 1.377 . S
C1853 C1854 1.379 . S
C1854 H1838 0.931 . S
C1854 C1848 1.383 . S
C1854 C1853 1.379 . S
H1855 C1849 0.959 . S
H1856 C1849 0.961 . S
H1857 C1849 0.960 . S
H1858 C1850 0.930 . S
H1859 C1851 0.929 . S
H1860 C1868 0.929 . S
H1861 C1870 0.930 . S
H1862 C1872 0.930 . S
H1863 C1875 0.929 . S
H1864 C1878 0.930 . S
H1865 C1880 0.960 . S
H1866 C1880 0.960 . S
H1867 C1880 0.960 . S
C1868 H1860 0.929 . S
C1868 C1869 1.377 . S
C1868 C1870 1.384 . S
C1869 C1868 1.377 . S
C1869 C1875 1.390 . S
C1870 H1861 0.930 . S
C1870 C1868 1.384 . S
C1870 C1871 1.372 . S
C1871 C1870 1.372 . S
C1871 C1872 1.400 . S
C1871 C1876 1.490 . S
C1872 H1862 0.930 . S
C1872 C1871 1.400 . S
C1872 C1875 1.386 . S
H1873 C1889 0.930 . S
H1874 C1890 0.931 . S
C1875 H1863 0.929 . S
C1875 C1869 1.390 . S
C1875 C1872 1.386 . S
C1876 C1871 1.490 . S
C1876 C1878 1.395 . S
C1876 C1879 1.403 . S
H1877 C1883 0.930 . S
C1878 H1864 0.930 . S
C1878 C1876 1.395 . S
C1878 C1881 1.403 . S
C1879 C1876 1.403 . S
C1879 C1880 1.524 . S
C1879 C1883 1.400 . S
C1880 H1865 0.960 . S
C1880 H1866 0.960 . S
C1880 H1867 0.960 . S
C1880 C1879 1.524 . S
C1881 C1878 1.403 . S
C1881 C1882 1.392 . S
C1881 C1885 1.495 . S
C1882 C1881 1.392 . S
C1882 C1883 1.385 . S
C1882 C1884 1.478 . S
C1883 H1877 0.930 . S
C1883 C1879 1.400 . S
C1883 C1882 1.385 . S
C1884 C1882 1.478 . S
C1884 C1886 1.381 . S
C1884 C1890 1.383 . S
C1885 C1881 1.495 . S
C1885 H1891 0.959 . S
C1885 H1892 0.961 . S
C1885 H1893 0.960 . S
C1886 C1884 1.381 . S
C1886 C1887 1.394 . S
C1886 H1894 0.930 . S
C1887 C1886 1.394 . S
C1887 C1888 1.383 . S
C1887 H1895 0.929 . S
C1888 C1887 1.383 . S
C1888 C1889 1.377 . S
C1889 H1873 0.930 . S
C1889 C1888 1.377 . S
C1889 C1890 1.379 . S
C1890 H1874 0.931 . S
C1890 C1884 1.383 . S
C1890 C1889 1.379 . S
H1891 C1885 0.959 . S
H1892 C1885 0.961 . S
H1893 C1885 0.960 . S
H1894 C1886 0.930 . S
H1895 C1887 0.929 . S
H1896 C1904 0.929 . S
H1897 C1906 0.930 . S
H1898 C1908 0.930 . S
H1899 C1911 0.929 . S
H1900 C1914 0.930 . S
H1901 C1916 0.960 . S
H1902 C1916 0.960 . S
H1903 C1916 0.960 . S
C1904 H1896 0.929 . S
C1904 C1905 1.377 . S
C1904 C1906 1.384 . S
C1905 C1904 1.377 . S
C1905 C1911 1.390 . S
C1906 H1897 0.930 . S
C1906 C1904 1.384 . S
C1906 C1907 1.372 . S
C1907 C1906 1.372 . S
C1907 C1908 1.400 . S
C1907 C1912 1.490 . S
C1908 H1898 0.930 . S
C1908 C1907 1.400 . S
C1908 C1911 1.386 . S
H1909 C1925 0.930 . S
H1910 C1926 0.931 . S
C1911 H1899 0.929 . S
C1911 C1905 1.390 . S
C1911 C1908 1.386 . S
C1912 C1907 1.490 . S
C1912 C1914 1.395 . S
C1912 C1915 1.403 . S
H1913 C1919 0.930 . S
C1914 H1900 0.930 . S
C1914 C1912 1.395 . S
C1914 C1917 1.403 . S
C1915 C1912 1.403 . S
C1915 C1916 1.524 . S
C1915 C1919 1.400 . S
C1916 H1901 0.960 . S
C1916 H1902 0.960 . S
C1916 H1903 0.960 . S
C1916 C1915 1.524 . S
C1917 C1914 1.403 . S
C1917 C1918 1.392 . S
C1917 C1921 1.495 . S
C1918 C1917 1.392 . S
C1918 C1919 1.385 . S
C1918 C1920 1.478 . S
C1919 H1913 0.930 . S
C1919 C1915 1.400 . S
C1919 C1918 1.385 . S
C1920 C1918 1.478 . S
C1920 C1922 1.381 . S
C1920 C1926 1.383 . S
C1921 C1917 1.495 . S
C1921 H1927 0.959 . S
C1921 H1928 0.961 . S
C1921 H1929 0.960 . S
C1922 C1920 1.381 . S
C1922 C1923 1.394 . S
C1922 H1930 0.930 . S
C1923 C1922 1.394 . S
C1923 C1924 1.383 . S
C1923 H1931 0.929 . S
C1924 C1923 1.383 . S
C1924 C1925 1.377 . S
C1925 H1909 0.930 . S
C1925 C1924 1.377 . S
C1925 C1926 1.379 . S
C1926 H1910 0.931 . S
C1926 C1920 1.383 . S
C1926 C1925 1.379 . S
H1927 C1921 0.959 . S
H1928 C1921 0.961 . S
H1929 C1921 0.960 . S
H1930 C1922 0.930 . S
H1931 C1923 0.929 . S
H1932 C1940 0.929 . S
H1933 C1942 0.930 . S
H1934 C1944 0.918 1_545 S
H1935 C1947 0.929 . S
H1936 C1950 0.930 . S
H1937 C1952 0.960 . S
H1938 C1952 0.960 . S
H1939 C1952 0.960 . S
C1940 H1932 0.929 . S
C1940 C1941 1.377 . S
C1940 C1942 1.384 . S
C1941 C1940 1.377 . S
C1941 C1947 1.390 . S
C1942 H1933 0.930 . S
C1942 C1940 1.384 . S
C1942 C1943 1.372 . S
C1943 C1942 1.372 . S
C1943 C1944 1.400 . S
C1943 C1948 1.490 . S
C1944 H1934 0.918 1_565 S
C1944 C1943 1.400 . S
C1944 C1947 1.386 . S
H1945 C1961 0.930 . S
H1946 C1962 0.952 . S
C1947 H1935 0.929 . S
C1947 C1941 1.390 . S
C1947 C1944 1.386 . S
C1948 C1943 1.490 . S
C1948 C1950 1.395 . S
C1948 C1951 1.403 . S
H1949 C1955 0.930 . S
C1950 H1936 0.930 . S
C1950 C1948 1.395 . S
C1950 C1953 1.403 . S
C1951 C1948 1.403 . S
C1951 C1952 1.524 . S
C1951 C1955 1.400 . S
C1952 H1937 0.960 . S
C1952 H1938 0.960 . S
C1952 H1939 0.960 . S
C1952 C1951 1.524 . S
C1953 C1950 1.403 . S
C1953 C1954 1.392 . S
C1953 C1957 1.495 . S
C1954 C1953 1.392 . S
C1954 C1955 1.385 . S
C1954 C1956 1.478 . S
C1955 H1949 0.930 . S
C1955 C1951 1.400 . S
C1955 C1954 1.385 . S
C1956 C1954 1.478 . S
C1956 C1958 1.381 . S
C1956 C1962 1.360 1_565 S
C1957 C1953 1.495 . S
C1957 H1963 0.959 . S
C1957 H1964 0.961 . S
C1957 H1965 0.960 . S
C1958 C1956 1.381 . S
C1958 C1959 1.394 . S
C1958 H1966 0.930 . S
C1959 C1958 1.394 . S
C1959 C1960 1.383 . S
C1959 H1967 0.929 . S
C1960 C1959 1.383 . S
C1960 C1961 1.377 1_565 S
C1961 H1945 0.930 . S
C1961 C1960 1.377 1_545 S
C1961 C1962 1.382 . S
C1962 H1946 0.952 . S
C1962 C1956 1.360 1_545 S
C1962 C1961 1.382 . S
H1963 C1957 0.959 . S
H1964 C1957 0.961 . S
H1965 C1957 0.960 . S
H1966 C1958 0.930 . S
H1967 C1959 0.929 . S
H1968 C1976 0.929 . S
H1969 C1978 0.930 . S
H1970 C1980 0.930 . S
H1971 C1983 0.929 . S
H1972 C1986 0.930 . S
H1973 C1988 0.960 . S
H1974 C1988 0.960 . S
H1975 C1988 0.960 . S
C1976 H1968 0.929 . S
C1976 C1977 1.377 . S
C1976 C1978 1.384 . S
C1977 C1976 1.377 . S
C1977 C1983 1.390 . S
C1978 H1969 0.930 . S
C1978 C1976 1.384 . S
C1978 C1979 1.372 . S
C1979 C1978 1.372 . S
C1979 C1980 1.400 . S
C1979 C1984 1.490 . S
C1980 H1970 0.930 . S
C1980 C1979 1.400 . S
C1980 C1983 1.386 . S
H1981 C1997 0.930 . S
H1982 C1998 0.931 . S
C1983 H1971 0.929 . S
C1983 C1977 1.390 . S
C1983 C1980 1.386 . S
C1984 C1979 1.490 . S
C1984 C1986 1.395 . S
C1984 C1987 1.403 . S
H1985 C1991 0.930 . S
C1986 H1972 0.930 . S
C1986 C1984 1.395 . S
C1986 C1989 1.403 . S
C1987 C1984 1.403 . S
C1987 C1988 1.524 . S
C1987 C1991 1.400 . S
C1988 H1973 0.960 . S
C1988 H1974 0.960 . S
C1988 H1975 0.960 . S
C1988 C1987 1.524 . S
C1989 C1986 1.403 . S
C1989 C1990 1.392 . S
C1989 C1993 1.495 . S
C1990 C1989 1.392 . S
C1990 C1991 1.385 . S
C1990 C1992 1.478 . S
C1991 H1985 0.930 . S
C1991 C1987 1.400 . S
C1991 C1990 1.385 . S
C1992 C1990 1.478 . S
C1992 C1994 1.381 . S
C1992 C1998 1.383 . S
C1993 C1989 1.495 . S
C1993 H1999 0.959 . S
C1993 H2000 0.961 . S
C1993 H2001 0.960 . S
C1994 C1992 1.381 . S
C1994 C1995 1.394 . S
C1994 H2002 0.930 . S
C1995 C1994 1.394 . S
C1995 C1996 1.383 . S
C1995 H2003 0.929 . S
C1996 C1995 1.383 . S
C1996 C1997 1.377 . S
C1997 H1981 0.930 . S
C1997 C1996 1.377 . S
C1997 C1998 1.379 . S
C1998 H1982 0.931 . S
C1998 C1992 1.383 . S
C1998 C1997 1.379 . S
H1999 C1993 0.959 . S
H2000 C1993 0.961 . S
H2001 C1993 0.960 . S
H2002 C1994 0.930 . S
H2003 C1995 0.929 . S
H2004 C2012 0.929 . S
H2005 C2014 0.930 . S
H2006 C2016 0.930 . S
H2007 C2019 0.929 . S
H2008 C2022 0.930 . S
H2009 C2024 0.960 . S
H2010 C2024 0.960 . S
H2011 C2024 0.960 . S
C2012 H2004 0.929 . S
C2012 C2013 1.377 . S
C2012 C2014 1.384 . S
C2013 C2012 1.377 . S
C2013 C2019 1.390 . S
C2014 H2005 0.930 . S
C2014 C2012 1.384 . S
C2014 C2015 1.372 . S
C2015 C2014 1.372 . S
C2015 C2016 1.400 . S
C2015 C2020 1.490 . S
C2016 H2006 0.930 . S
C2016 C2015 1.400 . S
C2016 C2019 1.386 . S
H2017 C2033 0.930 . S
H2018 C2034 0.931 . S
C2019 H2007 0.929 . S
C2019 C2013 1.390 . S
C2019 C2016 1.386 . S
C2020 C2015 1.490 . S
C2020 C2022 1.395 . S
C2020 C2023 1.403 . S
H2021 C2027 0.930 . S
C2022 H2008 0.930 . S
C2022 C2020 1.395 . S
C2022 C2025 1.403 . S
C2023 C2020 1.403 . S
C2023 C2024 1.524 . S
C2023 C2027 1.400 . S
C2024 H2009 0.960 . S
C2024 H2010 0.960 . S
C2024 H2011 0.960 . S
C2024 C2023 1.524 . S
C2025 C2022 1.403 . S
C2025 C2026 1.392 . S
C2025 C2029 1.495 . S
C2026 C2025 1.392 . S
C2026 C2027 1.385 . S
C2026 C2028 1.478 . S
C2027 H2021 0.930 . S
C2027 C2023 1.400 . S
C2027 C2026 1.385 . S
C2028 C2026 1.478 . S
C2028 C2030 1.381 . S
C2028 C2034 1.383 . S
C2029 C2025 1.495 . S
C2029 H2035 0.959 . S
C2029 H2036 0.961 . S
C2029 H2037 0.960 . S
C2030 C2028 1.381 . S
C2030 C2031 1.394 . S
C2030 H2038 0.930 . S
C2031 C2030 1.394 . S
C2031 C2032 1.383 . S
C2031 H2039 0.929 . S
C2032 C2031 1.383 . S
C2032 C2033 1.377 . S
C2033 H2017 0.930 . S
C2033 C2032 1.377 . S
C2033 C2034 1.379 . S
C2034 H2018 0.931 . S
C2034 C2028 1.383 . S
C2034 C2033 1.379 . S
H2035 C2029 0.959 . S
H2036 C2029 0.961 . S
H2037 C2029 0.960 . S
H2038 C2030 0.930 . S
H2039 C2031 0.929 . S
H2040 C2048 0.929 . S
H2041 C2050 0.930 . S
H2042 C2052 0.930 . S
H2043 C2055 0.929 . S
H2044 C2058 0.930 . S
H2045 C2060 0.960 . S
H2046 C2060 0.960 . S
H2047 C2060 0.960 . S
C2048 H2040 0.929 . S
C2048 C2049 1.377 . S
C2048 C2050 1.384 . S
C2049 C2048 1.377 . S
C2049 C2055 1.390 . S
C2050 H2041 0.930 . S
C2050 C2048 1.384 . S
C2050 C2051 1.372 . S
C2051 C2050 1.372 . S
C2051 C2052 1.400 . S
C2051 C2056 1.490 . S
C2052 H2042 0.930 . S
C2052 C2051 1.400 . S
C2052 C2055 1.386 . S
H2053 C2069 0.930 . S
H2054 C2070 0.931 . S
C2055 H2043 0.929 . S
C2055 C2049 1.390 . S
C2055 C2052 1.386 . S
C2056 C2051 1.490 . S
C2056 C2058 1.395 . S
C2056 C2059 1.403 . S
H2057 C2063 0.930 . S
C2058 H2044 0.930 . S
C2058 C2056 1.395 . S
C2058 C2061 1.403 . S
C2059 C2056 1.403 . S
C2059 C2060 1.524 . S
C2059 C2063 1.400 . S
C2060 H2045 0.960 . S
C2060 H2046 0.960 . S
C2060 H2047 0.960 . S
C2060 C2059 1.524 . S
C2061 C2058 1.403 . S
C2061 C2062 1.392 . S
C2061 C2065 1.495 . S
C2062 C2061 1.392 . S
C2062 C2063 1.385 . S
C2062 C2064 1.478 . S
C2063 H2057 0.930 . S
C2063 C2059 1.400 . S
C2063 C2062 1.385 . S
C2064 C2062 1.478 . S
C2064 C2066 1.381 . S
C2064 C2070 1.383 . S
C2065 C2061 1.495 . S
C2065 H2071 0.959 . S
C2065 H2072 0.961 . S
C2065 H2073 0.960 . S
C2066 C2064 1.381 . S
C2066 C2067 1.394 . S
C2066 H2074 0.930 . S
C2067 C2066 1.394 . S
C2067 C2068 1.383 . S
C2067 H2075 0.929 . S
C2068 C2067 1.383 . S
C2068 C2069 1.377 . S
C2069 H2053 0.930 . S
C2069 C2068 1.377 . S
C2069 C2070 1.379 . S
C2070 H2054 0.931 . S
C2070 C2064 1.383 . S
C2070 C2069 1.379 . S
H2071 C2065 0.959 . S
H2072 C2065 0.961 . S
H2073 C2065 0.960 . S
H2074 C2066 0.930 . S
H2075 C2067 0.929 . S
H2076 C2084 0.929 . S
H2077 C2086 0.930 . S
H2078 C2088 0.930 . S
H2079 C2091 0.929 . S
H2080 C2094 0.930 . S
H2081 C2096 0.960 . S
H2082 C2096 0.960 . S
H2083 C2096 0.960 . S
C2084 H2076 0.929 . S
C2084 C2085 1.377 . S
C2084 C2086 1.384 . S
C2085 C2084 1.377 . S
C2085 C2091 1.390 . S
C2086 H2077 0.930 . S
C2086 C2084 1.384 . S
C2086 C2087 1.372 . S
C2087 C2086 1.372 . S
C2087 C2088 1.400 . S
C2087 C2092 1.490 . S
C2088 H2078 0.930 . S
C2088 C2087 1.400 . S
C2088 C2091 1.386 . S
H2089 C2105 0.930 . S
H2090 C2106 0.931 . S
C2091 H2079 0.929 . S
C2091 C2085 1.390 . S
C2091 C2088 1.386 . S
C2092 C2087 1.490 . S
C2092 C2094 1.395 . S
C2092 C2095 1.403 . S
H2093 C2099 0.930 . S
C2094 H2080 0.930 . S
C2094 C2092 1.395 . S
C2094 C2097 1.403 . S
C2095 C2092 1.403 . S
C2095 C2096 1.524 . S
C2095 C2099 1.400 . S
C2096 H2081 0.960 . S
C2096 H2082 0.960 . S
C2096 H2083 0.960 . S
C2096 C2095 1.524 . S
C2097 C2094 1.403 . S
C2097 C2098 1.392 . S
C2097 C2101 1.495 . S
C2098 C2097 1.392 . S
C2098 C2099 1.385 . S
C2098 C2100 1.478 . S
C2099 H2093 0.930 . S
C2099 C2095 1.400 . S
C2099 C2098 1.385 . S
C2100 C2098 1.478 . S
C2100 C2102 1.381 . S
C2100 C2106 1.383 . S
C2101 C2097 1.495 . S
C2101 H2107 0.959 . S
C2101 H2108 0.961 . S
C2101 H2109 0.960 . S
C2102 C2100 1.381 . S
C2102 C2103 1.394 . S
C2102 H2110 0.930 . S
C2103 C2102 1.394 . S
C2103 C2104 1.383 . S
C2103 H2111 0.929 . S
C2104 C2103 1.383 . S
C2104 C2105 1.377 . S
C2105 H2089 0.930 . S
C2105 C2104 1.377 . S
C2105 C2106 1.379 . S
C2106 H2090 0.931 . S
C2106 C2100 1.383 . S
C2106 C2105 1.379 . S
H2107 C2101 0.959 . S
H2108 C2101 0.961 . S
H2109 C2101 0.960 . S
H2110 C2102 0.930 . S
H2111 C2103 0.929 . S
H2112 C2120 0.929 . S
H2113 C2122 0.930 . S
H2114 C2124 0.930 . S
H2115 C2127 0.929 . S
H2116 C2130 0.930 . S
H2117 C2132 0.960 . S
H2118 C2132 0.960 . S
H2119 C2132 0.960 . S
C2120 H2112 0.929 . S
C2120 C2121 1.377 . S
C2120 C2122 1.384 . S
C2121 C2120 1.377 . S
C2121 C2127 1.390 . S
C2122 H2113 0.930 . S
C2122 C2120 1.384 . S
C2122 C2123 1.372 . S
C2123 C2122 1.372 . S
C2123 C2124 1.400 . S
C2123 C2128 1.490 . S
C2124 H2114 0.930 . S
C2124 C2123 1.400 . S
C2124 C2127 1.386 . S
H2125 C2141 0.930 . S
H2126 C2142 0.931 . S
C2127 H2115 0.929 . S
C2127 C2121 1.390 . S
C2127 C2124 1.386 . S
C2128 C2123 1.490 . S
C2128 C2130 1.395 . S
C2128 C2131 1.403 . S
H2129 C2135 0.930 . S
C2130 H2116 0.930 . S
C2130 C2128 1.395 . S
C2130 C2133 1.403 . S
C2131 C2128 1.403 . S
C2131 C2132 1.524 . S
C2131 C2135 1.400 . S
C2132 H2117 0.960 . S
C2132 H2118 0.960 . S
C2132 H2119 0.960 . S
C2132 C2131 1.524 . S
C2133 C2130 1.403 . S
C2133 C2134 1.392 . S
C2133 C2137 1.495 . S
C2134 C2133 1.392 . S
C2134 C2135 1.385 . S
C2134 C2136 1.478 . S
C2135 H2129 0.930 . S
C2135 C2131 1.400 . S
C2135 C2134 1.385 . S
C2136 C2134 1.478 . S
C2136 C2138 1.381 . S
C2136 C2142 1.383 . S
C2137 C2133 1.495 . S
C2137 H2143 0.959 . S
C2137 H2144 0.961 . S
C2137 H2145 0.960 . S
C2138 C2136 1.381 . S
C2138 C2139 1.394 . S
C2138 H2146 0.930 . S
C2139 C2138 1.394 . S
C2139 C2140 1.383 . S
C2139 H2147 0.929 . S
C2140 C2139 1.383 . S
C2140 C2141 1.377 . S
C2141 H2125 0.930 . S
C2141 C2140 1.377 . S
C2141 C2142 1.379 . S
C2142 H2126 0.931 . S
C2142 C2136 1.383 . S
C2142 C2141 1.379 . S
H2143 C2137 0.959 . S
H2144 C2137 0.961 . S
H2145 C2137 0.960 . S
H2146 C2138 0.930 . S
H2147 C2139 0.929 . S
H2148 C2156 0.929 . S
H2149 C2158 0.930 . S
H2150 C2160 0.930 . S
H2151 C2163 0.929 . S
H2152 C2166 0.930 . S
H2153 C2168 0.960 . S
H2154 C2168 0.960 . S
H2155 C2168 0.960 . S
C2156 H2148 0.929 . S
C2156 C2157 1.377 . S
C2156 C2158 1.384 . S
C2157 C2156 1.377 . S
C2157 C2163 1.390 . S
C2158 H2149 0.930 . S
C2158 C2156 1.384 . S
C2158 C2159 1.372 . S
C2159 C2158 1.372 . S
C2159 C2160 1.400 . S
C2159 C2164 1.490 . S
C2160 H2150 0.930 . S
C2160 C2159 1.400 . S
C2160 C2163 1.386 . S
H2161 C2177 0.930 . S
H2162 C2178 0.931 . S
C2163 H2151 0.929 . S
C2163 C2157 1.390 . S
C2163 C2160 1.386 . S
C2164 C2159 1.490 . S
C2164 C2166 1.395 . S
C2164 C2167 1.403 . S
H2165 C2171 0.930 1_655 S
C2166 H2152 0.930 . S
C2166 C2164 1.395 . S
C2166 C2169 1.403 . S
C2167 C2164 1.403 . S
C2167 C2168 1.524 1_455 S
C2167 C2171 1.400 . S
C2168 H2153 0.960 . S
C2168 H2154 0.960 . S
C2168 H2155 0.960 . S
C2168 C2167 1.524 1_655 S
C2169 C2166 1.403 . S
C2169 C2170 1.392 . S
C2169 C2173 1.495 . S
C2170 C2169 1.392 . S
C2170 C2171 1.385 . S
C2170 C2172 1.478 . S
C2171 H2165 0.930 1_455 S
C2171 C2167 1.400 . S
C2171 C2170 1.385 . S
C2172 C2170 1.478 . S
C2172 C2174 1.381 . S
C2172 C2178 1.383 . S
C2173 C2169 1.495 . S
C2173 H2179 0.959 . S
C2173 H2180 0.961 . S
C2173 H2181 0.960 . S
C2174 C2172 1.381 . S
C2174 C2175 1.394 . S
C2174 H2182 0.930 . S
C2175 C2174 1.394 . S
C2175 C2176 1.383 . S
C2175 H2183 0.929 . S
C2176 C2175 1.383 . S
C2176 C2177 1.377 . S
C2177 H2161 0.930 . S
C2177 C2176 1.377 . S
C2177 C2178 1.379 . S
C2178 H2162 0.931 . S
C2178 C2172 1.383 . S
C2178 C2177 1.379 . S
H2179 C2173 0.959 . S
H2180 C2173 0.961 . S
H2181 C2173 0.960 . S
H2182 C2174 0.930 . S
H2183 C2175 0.929 . S
H2184 C2192 0.929 . S
H2185 C2194 0.930 . S
H2186 C2196 0.930 . S
H2187 C2199 0.929 . S
H2188 C2202 0.930 . S
H2189 C2204 0.960 . S
H2190 C2204 0.960 . S
H2191 C2204 0.960 . S
C2192 H2184 0.929 . S
C2192 C2193 1.377 . S
C2192 C2194 1.384 . S
C2193 C2192 1.377 . S
C2193 C2199 1.390 . S
C2194 H2185 0.930 . S
C2194 C2192 1.384 . S
C2194 C2195 1.372 . S
C2195 C2194 1.372 . S
C2195 C2196 1.400 . S
C2195 C2200 1.490 . S
C2196 H2186 0.930 . S
C2196 C2195 1.400 . S
C2196 C2199 1.386 . S
H2197 C2213 0.930 . S
H2198 C2214 0.931 . S
C2199 H2187 0.929 . S
C2199 C2193 1.390 . S
C2199 C2196 1.386 . S
C2200 C2195 1.490 . S
C2200 C2202 1.395 . S
C2200 C2203 1.403 . S
H2201 C2207 0.930 . S
C2202 H2188 0.930 . S
C2202 C2200 1.395 . S
C2202 C2205 1.403 . S
C2203 C2200 1.403 . S
C2203 C2204 1.524 . S
C2203 C2207 1.400 . S
C2204 H2189 0.960 . S
C2204 H2190 0.960 . S
C2204 H2191 0.960 . S
C2204 C2203 1.524 . S
C2205 C2202 1.403 . S
C2205 C2206 1.392 . S
C2205 C2209 1.495 . S
C2206 C2205 1.392 . S
C2206 C2207 1.385 . S
C2206 C2208 1.478 . S
C2207 H2201 0.930 . S
C2207 C2203 1.400 . S
C2207 C2206 1.385 . S
C2208 C2206 1.478 . S
C2208 C2210 1.381 . S
C2208 C2214 1.383 . S
C2209 C2205 1.495 . S
C2209 H2215 0.959 . S
C2209 H2216 0.961 . S
C2209 H2217 0.960 . S
C2210 C2208 1.381 . S
C2210 C2211 1.394 . S
C2210 H2218 0.930 . S
C2211 C2210 1.394 . S
C2211 C2212 1.383 . S
C2211 H2219 0.929 . S
C2212 C2211 1.383 . S
C2212 C2213 1.377 . S
C2213 H2197 0.930 . S
C2213 C2212 1.377 . S
C2213 C2214 1.379 . S
C2214 H2198 0.931 . S
C2214 C2208 1.383 . S
C2214 C2213 1.379 . S
H2215 C2209 0.959 . S
H2216 C2209 0.961 . S
H2217 C2209 0.960 . S
H2218 C2210 0.930 . S
H2219 C2211 0.929 . S
H2220 C2228 0.929 . S
H2221 C2230 0.930 . S
H2222 C2232 0.930 . S
H2223 C2235 0.929 . S
H2224 C2238 0.930 . S
H2225 C2240 0.960 . S
H2226 C2240 0.960 . S
H2227 C2240 0.960 . S
C2228 H2220 0.929 . S
C2228 C2229 1.377 . S
C2228 C2230 1.384 . S
C2229 C2228 1.377 . S
C2229 C2235 1.390 . S
C2230 H2221 0.930 . S
C2230 C2228 1.384 . S
C2230 C2231 1.372 . S
C2231 C2230 1.372 . S
C2231 C2232 1.400 . S
C2231 C2236 1.490 . S
C2232 H2222 0.930 . S
C2232 C2231 1.400 . S
C2232 C2235 1.386 . S
H2233 C2249 0.930 1_455 S
H2234 C2250 0.906 1_455 S
C2235 H2223 0.929 . S
C2235 C2229 1.390 . S
C2235 C2232 1.386 . S
C2236 C2231 1.490 . S
C2236 C2238 1.395 . S
C2236 C2239 1.403 . S
H2237 C2243 0.930 . S
C2238 H2224 0.930 . S
C2238 C2236 1.395 . S
C2238 C2241 1.403 . S
C2239 C2236 1.403 . S
C2239 C2240 1.524 . S
C2239 C2243 1.400 . S
C2240 H2225 0.960 . S
C2240 H2226 0.960 . S
C2240 H2227 0.960 . S
C2240 C2239 1.524 . S
C2241 C2238 1.403 . S
C2241 C2242 1.392 . S
C2241 C2245 1.495 1_655 S
C2242 C2241 1.392 . S
C2242 C2243 1.385 . S
C2242 C2244 1.478 . S
C2243 H2237 0.930 . S
C2243 C2239 1.400 . S
C2243 C2242 1.385 . S
C2244 C2242 1.478 . S
C2244 C2246 1.381 . S
C2244 C2250 1.383 . S
C2245 C2241 1.495 1_455 S
C2245 H2251 0.959 . S
C2245 H2252 0.961 . S
C2245 H2253 0.960 1_455 S
C2246 C2244 1.381 . S
C2246 C2247 1.394 . S
C2246 H2254 0.930 . S
C2247 C2246 1.394 . S
C2247 C2248 1.383 . S
C2247 H2255 0.929 . S
C2248 C2247 1.383 . S
C2248 C2249 1.377 . S
C2249 H2233 0.930 1_655 S
C2249 C2248 1.377 . S
C2249 C2250 1.379 . S
C2250 H2234 0.906 1_655 S
C2250 C2244 1.383 . S
C2250 C2249 1.379 . S
H2251 C2245 0.959 . S
H2252 C2245 0.961 . S
H2253 C2245 0.960 1_655 S
H2254 C2246 0.930 . S
H2255 C2247 0.929 . S
H2256 C2264 0.929 . S
H2257 C2266 0.930 . S
H2258 C2268 0.930 . S
H2259 C2271 0.929 . S
H2260 C2274 0.930 . S
H2261 C2276 0.960 . S
H2262 C2276 0.960 . S
H2263 C2276 0.960 . S
C2264 H2256 0.929 . S
C2264 C2265 1.377 . S
C2264 C2266 1.384 . S
C2265 C2264 1.377 . S
C2265 C2271 1.390 . S
C2266 H2257 0.930 . S
C2266 C2264 1.384 . S
C2266 C2267 1.372 . S
C2267 C2266 1.372 . S
C2267 C2268 1.400 . S
C2267 C2272 1.490 . S
C2268 H2258 0.930 . S
C2268 C2267 1.400 . S
C2268 C2271 1.386 . S
H2269 C2285 0.930 . S
H2270 C2286 0.931 . S
C2271 H2259 0.929 . S
C2271 C2265 1.390 . S
C2271 C2268 1.386 . S
C2272 C2267 1.490 . S
C2272 C2274 1.395 . S
C2272 C2275 1.403 . S
H2273 C2279 0.930 . S
C2274 H2260 0.930 . S
C2274 C2272 1.395 . S
C2274 C2277 1.403 . S
C2275 C2272 1.403 . S
C2275 C2276 1.524 . S
C2275 C2279 1.400 . S
C2276 H2261 0.960 . S
C2276 H2262 0.960 . S
C2276 H2263 0.960 . S
C2276 C2275 1.524 . S
C2277 C2274 1.403 . S
C2277 C2278 1.392 . S
C2277 C2281 1.495 . S
C2278 C2277 1.392 . S
C2278 C2279 1.385 . S
C2278 C2280 1.478 . S
C2279 H2273 0.930 . S
C2279 C2275 1.400 . S
C2279 C2278 1.385 . S
C2280 C2278 1.478 . S
C2280 C2282 1.381 . S
C2280 C2286 1.383 . S
C2281 C2277 1.495 . S
C2281 H2287 0.959 . S
C2281 H2288 0.961 . S
C2281 H2289 0.960 . S
C2282 C2280 1.381 . S
C2282 C2283 1.394 . S
C2282 H2290 0.930 . S
C2283 C2282 1.394 . S
C2283 C2284 1.383 . S
C2283 H2291 0.929 . S
C2284 C2283 1.383 . S
C2284 C2285 1.377 . S
C2285 H2269 0.930 . S
C2285 C2284 1.377 . S
C2285 C2286 1.379 . S
C2286 H2270 0.931 . S
C2286 C2280 1.383 . S
C2286 C2285 1.379 . S
H2287 C2281 0.959 . S
H2288 C2281 0.961 . S
H2289 C2281 0.960 . S
H2290 C2282 0.930 . S
H2291 C2283 0.929 . S
H2292 C2300 0.929 . S
H2293 C2302 0.930 . S
H2294 C2304 0.930 . S
H2295 C2307 0.929 . S
H2296 C2310 0.930 . S
H2297 C2312 0.960 . S
H2298 C2312 0.960 . S
H2299 C2312 0.960 . S
C2300 H2292 0.929 . S
C2300 C2301 1.377 . S
C2300 C2302 1.384 . S
C2301 C2300 1.377 . S
C2301 C2307 1.390 . S
C2302 H2293 0.930 . S
C2302 C2300 1.384 . S
C2302 C2303 1.372 . S
C2303 C2302 1.372 . S
C2303 C2304 1.400 . S
C2303 C2308 1.490 . S
C2304 H2294 0.930 . S
C2304 C2303 1.400 . S
C2304 C2307 1.386 . S
H2305 C2321 0.930 . S
H2306 C2322 0.931 . S
C2307 H2295 0.929 . S
C2307 C2301 1.390 . S
C2307 C2304 1.386 . S
C2308 C2303 1.490 . S
C2308 C2310 1.395 . S
C2308 C2311 1.403 . S
H2309 C2315 0.930 . S
C2310 H2296 0.930 . S
C2310 C2308 1.395 . S
C2310 C2313 1.403 . S
C2311 C2308 1.403 . S
C2311 C2312 1.524 . S
C2311 C2315 1.400 . S
C2312 H2297 0.960 . S
C2312 H2298 0.960 . S
C2312 H2299 0.960 . S
C2312 C2311 1.524 . S
C2313 C2310 1.403 . S
C2313 C2314 1.392 . S
C2313 C2317 1.495 . S
C2314 C2313 1.392 . S
C2314 C2315 1.385 . S
C2314 C2316 1.478 . S
C2315 H2309 0.930 . S
C2315 C2311 1.400 . S
C2315 C2314 1.385 . S
C2316 C2314 1.478 . S
C2316 C2318 1.381 . S
C2316 C2322 1.383 . S
C2317 C2313 1.495 . S
C2317 H2323 0.959 . S
C2317 H2324 0.961 . S
C2317 H2325 0.960 . S
C2318 C2316 1.381 . S
C2318 C2319 1.394 . S
C2318 H2326 0.930 . S
C2319 C2318 1.394 . S
C2319 C2320 1.383 . S
C2319 H2327 0.929 . S
C2320 C2319 1.383 . S
C2320 C2321 1.377 . S
C2321 H2305 0.930 . S
C2321 C2320 1.377 . S
C2321 C2322 1.379 . S
C2322 H2306 0.931 . S
C2322 C2316 1.383 . S
C2322 C2321 1.379 . S
H2323 C2317 0.959 . S
H2324 C2317 0.961 . S
H2325 C2317 0.960 . S
H2326 C2318 0.930 . S
H2327 C2319 0.929 . S
H2328 C2336 0.929 . S
H2329 C2338 0.930 . S
H2330 C2340 0.930 1_554 S
H2331 C2343 0.929 1_554 S
H2332 C2346 0.930 . S
H2333 C2348 0.960 . S
H2334 C2348 0.960 . S
H2335 C2348 0.991 . S
C2336 H2328 0.929 . S
C2336 C2337 1.377 . S
C2336 C2338 1.384 . S
C2337 C2336 1.377 . S
C2337 C2343 1.390 . S
C2338 H2329 0.930 . S
C2338 C2336 1.384 . S
C2338 C2339 1.372 . S
C2339 C2338 1.372 . S
C2339 C2340 1.400 . S
C2339 C2344 1.490 . S
C2340 H2330 0.930 1_556 S
C2340 C2339 1.400 . S
C2340 C2343 1.386 . S
H2341 C2357 0.930 . S
H2342 C2358 0.931 . S
C2343 H2331 0.929 1_556 S
C2343 C2337 1.390 . S
C2343 C2340 1.386 . S
C2344 C2339 1.490 . S
C2344 C2346 1.395 . S
C2344 C2347 1.403 . S
H2345 C2351 0.930 . S
C2346 H2332 0.930 . S
C2346 C2344 1.395 . S
C2346 C2349 1.403 . S
C2347 C2344 1.403 . S
C2347 C2348 1.524 . S
C2347 C2351 1.400 . S
C2348 H2333 0.960 . S
C2348 H2334 0.960 . S
C2348 H2335 0.991 . S
C2348 C2347 1.524 . S
C2349 C2346 1.403 . S
C2349 C2350 1.392 . S
C2349 C2353 1.495 . S
C2350 C2349 1.392 . S
C2350 C2351 1.385 . S
C2350 C2352 1.478 . S
C2351 H2345 0.930 . S
C2351 C2347 1.400 . S
C2351 C2350 1.385 . S
C2352 C2350 1.478 . S
C2352 C2354 1.381 . S
C2352 C2358 1.383 1_556 S
C2353 C2349 1.495 . S
C2353 H2359 0.959 . S
C2353 H2360 0.961 . S
C2353 H2361 0.960 . S
C2354 C2352 1.381 . S
C2354 C2355 1.394 . S
C2354 H2362 0.930 . S
C2355 C2354 1.394 . S
C2355 C2356 1.383 . S
C2355 H2363 0.929 . S
C2356 C2355 1.383 . S
C2356 C2357 1.377 1_556 S
C2357 H2341 0.930 . S
C2357 C2356 1.377 1_554 S
C2357 C2358 1.379 . S
C2358 H2342 0.931 . S
C2358 C2352 1.383 1_554 S
C2358 C2357 1.379 . S
H2359 C2353 0.959 . S
H2360 C2353 0.961 . S
H2361 C2353 0.960 . S
H2362 C2354 0.930 . S
H2363 C2355 0.929 . S
H2364 C2372 0.929 . S
H2365 C2374 0.930 . S
H2366 C2376 0.930 . S
H2367 C2379 0.929 . S
H2368 C2382 0.930 . S
H2369 C2384 0.960 . S
H2370 C2384 0.960 . S
H2371 C2384 0.960 . S
C2372 H2364 0.929 . S
C2372 C2373 1.377 . S
C2372 C2374 1.384 . S
C2373 C2372 1.377 . S
C2373 C2379 1.390 . S
C2374 H2365 0.930 . S
C2374 C2372 1.384 . S
C2374 C2375 1.372 . S
C2375 C2374 1.372 . S
C2375 C2376 1.400 . S
C2375 C2380 1.490 . S
C2376 H2366 0.930 . S
C2376 C2375 1.400 . S
C2376 C2379 1.386 . S
H2377 C2393 0.930 . S
H2378 C2394 0.931 . S
C2379 H2367 0.929 . S
C2379 C2373 1.390 . S
C2379 C2376 1.386 . S
C2380 C2375 1.490 . S
C2380 C2382 1.395 . S
C2380 C2383 1.403 . S
H2381 C2387 0.930 . S
C2382 H2368 0.930 . S
C2382 C2380 1.395 . S
C2382 C2385 1.403 . S
C2383 C2380 1.403 . S
C2383 C2384 1.524 . S
C2383 C2387 1.400 . S
C2384 H2369 0.960 . S
C2384 H2370 0.960 . S
C2384 H2371 0.960 . S
C2384 C2383 1.524 . S
C2385 C2382 1.403 . S
C2385 C2386 1.392 . S
C2385 C2389 1.495 . S
C2386 C2385 1.392 . S
C2386 C2387 1.385 . S
C2386 C2388 1.478 . S
C2387 H2381 0.930 . S
C2387 C2383 1.400 . S
C2387 C2386 1.385 . S
C2388 C2386 1.478 . S
C2388 C2390 1.381 . S
C2388 C2394 1.383 . S
C2389 C2385 1.495 . S
C2389 H2395 0.959 . S
C2389 H2396 0.961 . S
C2389 H2397 0.960 . S
C2390 C2388 1.381 . S
C2390 C2391 1.394 . S
C2390 H2398 0.930 . S
C2391 C2390 1.394 . S
C2391 C2392 1.383 . S
C2391 H2399 0.929 . S
C2392 C2391 1.383 . S
C2392 C2393 1.377 . S
C2393 H2377 0.930 . S
C2393 C2392 1.377 . S
C2393 C2394 1.379 . S
C2394 H2378 0.931 . S
C2394 C2388 1.383 . S
C2394 C2393 1.379 . S
H2395 C2389 0.959 . S
H2396 C2389 0.961 . S
H2397 C2389 0.960 . S
H2398 C2390 0.930 . S
H2399 C2391 0.929 . S
H2400 C2408 0.929 . S
H2401 C2410 0.930 . S
H2402 C2412 0.930 . S
H2403 C2415 0.929 . S
H2404 C2418 0.930 . S
H2405 C2420 0.960 . S
H2406 C2420 0.960 . S
H2407 C2420 0.960 . S
C2408 H2400 0.929 . S
C2408 C2409 1.377 . S
C2408 C2410 1.384 . S
C2409 C2408 1.377 . S
C2409 C2415 1.390 . S
C2410 H2401 0.930 . S
C2410 C2408 1.384 . S
C2410 C2411 1.372 . S
C2411 C2410 1.372 . S
C2411 C2412 1.400 . S
C2411 C2416 1.490 . S
C2412 H2402 0.930 . S
C2412 C2411 1.400 . S
C2412 C2415 1.386 . S
H2413 C2429 0.930 . S
H2414 C2430 0.931 . S
C2415 H2403 0.929 . S
C2415 C2409 1.390 . S
C2415 C2412 1.386 . S
C2416 C2411 1.490 . S
C2416 C2418 1.395 . S
C2416 C2419 1.403 . S
H2417 C2423 0.930 . S
C2418 H2404 0.930 . S
C2418 C2416 1.395 . S
C2418 C2421 1.403 . S
C2419 C2416 1.403 . S
C2419 C2420 1.524 . S
C2419 C2423 1.400 . S
C2420 H2405 0.960 . S
C2420 H2406 0.960 . S
C2420 H2407 0.960 . S
C2420 C2419 1.524 . S
C2421 C2418 1.403 . S
C2421 C2422 1.392 . S
C2421 C2425 1.495 . S
C2422 C2421 1.392 . S
C2422 C2423 1.385 . S
C2422 C2424 1.478 . S
C2423 H2417 0.930 . S
C2423 C2419 1.400 . S
C2423 C2422 1.385 . S
C2424 C2422 1.478 . S
C2424 C2426 1.381 . S
C2424 C2430 1.383 . S
C2425 C2421 1.495 . S
C2425 H2431 0.959 . S
C2425 H2432 0.961 . S
C2425 H2433 0.960 . S
C2426 C2424 1.381 . S
C2426 C2427 1.394 . S
C2426 H2434 0.930 . S
C2427 C2426 1.394 . S
C2427 C2428 1.383 . S
C2427 H2435 0.929 . S
C2428 C2427 1.383 . S
C2428 C2429 1.377 . S
C2429 H2413 0.930 . S
C2429 C2428 1.377 . S
C2429 C2430 1.379 . S
C2430 H2414 0.931 . S
C2430 C2424 1.383 . S
C2430 C2429 1.379 . S
H2431 C2425 0.959 . S
H2432 C2425 0.961 . S
H2433 C2425 0.960 . S
H2434 C2426 0.930 . S
H2435 C2427 0.929 . S
H2436 C2444 0.929 . S
H2437 C2446 0.930 . S
H2438 C2448 0.930 . S
H2439 C2451 0.929 . S
H2440 C2454 0.930 . S
H2441 C2456 0.960 . S
H2442 C2456 0.960 . S
H2443 C2456 0.960 . S
C2444 H2436 0.929 . S
C2444 C2445 1.377 . S
C2444 C2446 1.384 . S
C2445 C2444 1.377 . S
C2445 C2451 1.390 . S
C2446 H2437 0.930 . S
C2446 C2444 1.384 . S
C2446 C2447 1.372 . S
C2447 C2446 1.372 . S
C2447 C2448 1.400 . S
C2447 C2452 1.490 . S
C2448 H2438 0.930 . S
C2448 C2447 1.400 . S
C2448 C2451 1.386 . S
H2449 C2465 0.930 . S
H2450 C2466 0.931 . S
C2451 H2439 0.929 . S
C2451 C2445 1.390 . S
C2451 C2448 1.386 . S
C2452 C2447 1.490 . S
C2452 C2454 1.395 . S
C2452 C2455 1.403 . S
H2453 C2459 0.930 . S
C2454 H2440 0.930 . S
C2454 C2452 1.395 . S
C2454 C2457 1.403 . S
C2455 C2452 1.403 . S
C2455 C2456 1.524 . S
C2455 C2459 1.400 . S
C2456 H2441 0.960 . S
C2456 H2442 0.960 . S
C2456 H2443 0.960 . S
C2456 C2455 1.524 . S
C2457 C2454 1.403 . S
C2457 C2458 1.392 . S
C2457 C2461 1.495 . S
C2458 C2457 1.392 . S
C2458 C2459 1.385 . S
C2458 C2460 1.478 . S
C2459 H2453 0.930 . S
C2459 C2455 1.400 . S
C2459 C2458 1.385 . S
C2460 C2458 1.478 . S
C2460 C2462 1.381 . S
C2460 C2466 1.383 . S
C2461 C2457 1.495 . S
C2461 H2467 0.959 . S
C2461 H2468 0.961 . S
C2461 H2469 0.960 . S
C2462 C2460 1.381 . S
C2462 C2463 1.394 . S
C2462 H2470 0.930 . S
C2463 C2462 1.394 . S
C2463 C2464 1.383 . S
C2463 H2471 0.929 . S
C2464 C2463 1.383 . S
C2464 C2465 1.377 . S
C2465 H2449 0.930 . S
C2465 C2464 1.377 . S
C2465 C2466 1.379 . S
C2466 H2450 0.931 . S
C2466 C2460 1.383 . S
C2466 C2465 1.379 . S
H2467 C2461 0.959 . S
H2468 C2461 0.961 . S
H2469 C2461 0.960 . S
H2470 C2462 0.930 . S
H2471 C2463 0.929 . S
H2472 C2480 0.929 . S
H2473 C2482 0.930 . S
H2474 C2484 0.930 . S
H2475 C2487 0.929 . S
H2476 C2490 0.930 . S
H2477 C2492 0.960 . S
H2478 C2492 0.960 . S
H2479 C2492 0.960 . S
C2480 H2472 0.929 . S
C2480 C2481 1.377 . S
C2480 C2482 1.384 . S
C2481 C2480 1.377 . S
C2481 C2487 1.390 . S
C2482 H2473 0.930 . S
C2482 C2480 1.384 . S
C2482 C2483 1.372 . S
C2483 C2482 1.372 . S
C2483 C2484 1.400 . S
C2483 C2488 1.490 . S
C2484 H2474 0.930 . S
C2484 C2483 1.400 . S
C2484 C2487 1.386 . S
H2485 C2501 0.930 . S
H2486 C2502 0.931 . S
C2487 H2475 0.929 . S
C2487 C2481 1.390 . S
C2487 C2484 1.386 . S
C2488 C2483 1.490 . S
C2488 C2490 1.395 . S
C2488 C2491 1.403 . S
H2489 C2495 0.930 . S
C2490 H2476 0.930 . S
C2490 C2488 1.395 . S
C2490 C2493 1.403 . S
C2491 C2488 1.403 . S
C2491 C2492 1.524 . S
C2491 C2495 1.400 . S
C2492 H2477 0.960 . S
C2492 H2478 0.960 . S
C2492 H2479 0.960 . S
C2492 C2491 1.524 . S
C2493 C2490 1.403 . S
C2493 C2494 1.392 . S
C2493 C2497 1.495 . S
C2494 C2493 1.392 . S
C2494 C2495 1.385 . S
C2494 C2496 1.478 . S
C2495 H2489 0.930 . S
C2495 C2491 1.400 . S
C2495 C2494 1.385 . S
C2496 C2494 1.478 . S
C2496 C2498 1.381 . S
C2496 C2502 1.383 . S
C2497 C2493 1.495 . S
C2497 H2503 0.959 . S
C2497 H2504 0.961 . S
C2497 H2505 0.960 . S
C2498 C2496 1.381 . S
C2498 C2499 1.394 . S
C2498 H2506 0.930 . S
C2499 C2498 1.394 . S
C2499 C2500 1.383 . S
C2499 H2507 0.929 . S
C2500 C2499 1.383 . S
C2500 C2501 1.377 . S
C2501 H2485 0.930 . S
C2501 C2500 1.377 . S
C2501 C2502 1.379 . S
C2502 H2486 0.931 . S
C2502 C2496 1.383 . S
C2502 C2501 1.379 . S
H2503 C2497 0.959 . S
H2504 C2497 0.961 . S
H2505 C2497 0.960 . S
H2506 C2498 0.930 . S
H2507 C2499 0.929 . S
H2508 C2516 0.929 . S
H2509 C2518 0.930 . S
H2510 C2520 0.930 . S
H2511 C2523 0.929 . S
H2512 C2526 0.930 . S
H2513 C2528 0.960 . S
H2514 C2528 0.960 . S
H2515 C2528 0.960 . S
C2516 H2508 0.929 . S
C2516 C2517 1.377 . S
C2516 C2518 1.384 . S
C2517 C2516 1.377 . S
C2517 C2523 1.390 . S
C2518 H2509 0.930 . S
C2518 C2516 1.384 . S
C2518 C2519 1.372 . S
C2519 C2518 1.372 . S
C2519 C2520 1.400 . S
C2519 C2524 1.490 . S
C2520 H2510 0.930 . S
C2520 C2519 1.400 . S
C2520 C2523 1.386 . S
H2521 C2537 0.930 . S
H2522 C2538 0.931 . S
C2523 H2511 0.929 . S
C2523 C2517 1.390 . S
C2523 C2520 1.386 . S
C2524 C2519 1.490 . S
C2524 C2526 1.395 . S
C2524 C2527 1.403 . S
H2525 C2531 0.930 . S
C2526 H2512 0.930 . S
C2526 C2524 1.395 . S
C2526 C2529 1.403 . S
C2527 C2524 1.403 . S
C2527 C2528 1.524 . S
C2527 C2531 1.400 . S
C2528 H2513 0.960 . S
C2528 H2514 0.960 . S
C2528 H2515 0.960 . S
C2528 C2527 1.524 . S
C2529 C2526 1.403 . S
C2529 C2530 1.392 . S
C2529 C2533 1.495 . S
C2530 C2529 1.392 . S
C2530 C2531 1.385 . S
C2530 C2532 1.478 . S
C2531 H2525 0.930 . S
C2531 C2527 1.400 . S
C2531 C2530 1.385 . S
C2532 C2530 1.478 . S
C2532 C2534 1.381 . S
C2532 C2538 1.383 . S
C2533 C2529 1.495 . S
C2533 H2539 0.959 . S
C2533 H2540 0.961 . S
C2533 H2541 0.960 . S
C2534 C2532 1.381 . S
C2534 C2535 1.394 . S
C2534 H2542 0.930 . S
C2535 C2534 1.394 . S
C2535 C2536 1.383 . S
C2535 H2543 0.929 . S
C2536 C2535 1.383 . S
C2536 C2537 1.377 . S
C2537 H2521 0.930 . S
C2537 C2536 1.377 . S
C2537 C2538 1.379 . S
C2538 H2522 0.931 . S
C2538 C2532 1.383 . S
C2538 C2537 1.379 . S
H2539 C2533 0.959 . S
H2540 C2533 0.961 . S
H2541 C2533 0.960 . S
H2542 C2534 0.930 . S
H2543 C2535 0.929 . S
H2544 C2552 0.929 . S
H2545 C2554 0.930 . S
H2546 C2556 0.930 . S
H2547 C2559 0.929 . S
H2548 C2562 0.930 . S
H2549 C2564 0.960 . S
H2550 C2564 0.960 . S
H2551 C2564 0.960 . S
C2552 H2544 0.929 . S
C2552 C2553 1.377 . S
C2552 C2554 1.384 . S
C2553 C2552 1.377 . S
C2553 C2559 1.390 . S
C2554 H2545 0.930 . S
C2554 C2552 1.384 . S
C2554 C2555 1.372 . S
C2555 C2554 1.372 . S
C2555 C2556 1.400 . S
C2555 C2560 1.490 . S
C2556 H2546 0.930 . S
C2556 C2555 1.400 . S
C2556 C2559 1.386 . S
H2557 C2573 0.930 . S
H2558 C2574 0.931 . S
C2559 H2547 0.929 . S
C2559 C2553 1.390 . S
C2559 C2556 1.386 . S
C2560 C2555 1.490 . S
C2560 C2562 1.395 . S
C2560 C2563 1.403 . S
H2561 C2567 0.930 . S
C2562 H2548 0.930 . S
C2562 C2560 1.395 . S
C2562 C2565 1.403 . S
C2563 C2560 1.403 . S
C2563 C2564 1.524 . S
C2563 C2567 1.400 . S
C2564 H2549 0.960 . S
C2564 H2550 0.960 . S
C2564 H2551 0.960 . S
C2564 C2563 1.524 . S
C2565 C2562 1.403 . S
C2565 C2566 1.392 . S
C2565 C2569 1.495 . S
C2566 C2565 1.392 . S
C2566 C2567 1.385 . S
C2566 C2568 1.478 . S
C2567 H2561 0.930 . S
C2567 C2563 1.400 . S
C2567 C2566 1.385 . S
C2568 C2566 1.478 . S
C2568 C2570 1.381 . S
C2568 C2574 1.383 . S
C2569 C2565 1.495 . S
C2569 H2575 0.959 . S
C2569 H2576 0.961 . S
C2569 H2577 0.960 . S
C2570 C2568 1.381 . S
C2570 C2571 1.394 . S
C2570 H2578 0.930 . S
C2571 C2570 1.394 . S
C2571 C2572 1.383 . S
C2571 H2579 0.929 . S
C2572 C2571 1.383 . S
C2572 C2573 1.377 . S
C2573 H2557 0.930 . S
C2573 C2572 1.377 . S
C2573 C2574 1.379 . S
C2574 H2558 0.931 . S
C2574 C2568 1.383 . S
C2574 C2573 1.379 . S
H2575 C2569 0.959 . S
H2576 C2569 0.961 . S
H2577 C2569 0.960 . S
H2578 C2570 0.930 . S
H2579 C2571 0.929 . S
H2580 C2588 0.929 . S
H2581 C2590 0.930 . S
H2582 C2592 0.930 . S
H2583 C2595 0.929 . S
H2584 C2598 0.930 . S
H2585 C2600 0.935 1_565 S
H2586 C2600 0.921 1_565 S
H2587 C2600 0.997 . S
C2588 H2580 0.929 . S
C2588 C2589 1.377 . S
C2588 C2590 1.384 . S
C2589 C2588 1.377 . S
C2589 C2595 1.390 . S
C2590 H2581 0.930 . S
C2590 C2588 1.384 . S
C2590 C2591 1.372 . S
C2591 C2590 1.372 . S
C2591 C2592 1.400 . S
C2591 C2596 1.490 . S
C2592 H2582 0.930 . S
C2592 C2591 1.400 . S
C2592 C2595 1.386 . S
H2593 C2609 0.930 . S
H2594 C2610 0.931 . S
C2595 H2583 0.929 . S
C2595 C2589 1.390 . S
C2595 C2592 1.386 . S
C2596 C2591 1.490 . S
C2596 C2598 1.395 . S
C2596 C2599 1.403 . S
H2597 C2603 0.930 . S
C2598 H2584 0.930 . S
C2598 C2596 1.395 . S
C2598 C2601 1.403 . S
C2599 C2596 1.403 . S
C2599 C2600 1.556 . S
C2599 C2603 1.400 . S
C2600 H2585 0.935 1_545 S
C2600 H2586 0.921 1_545 S
C2600 H2587 0.997 . S
C2600 C2599 1.556 . S
C2601 C2598 1.403 . S
C2601 C2602 1.392 . S
C2601 C2605 1.495 . S
C2602 C2601 1.392 . S
C2602 C2603 1.385 . S
C2602 C2604 1.478 . S
C2603 H2597 0.930 . S
C2603 C2599 1.400 . S
C2603 C2602 1.385 . S
C2604 C2602 1.478 . S
C2604 C2606 1.381 . S
C2604 C2610 1.383 . S
C2605 C2601 1.495 . S
C2605 H2611 0.959 . S
C2605 H2612 0.961 . S
C2605 H2613 0.960 . S
C2606 C2604 1.381 . S
C2606 C2607 1.394 . S
C2606 H2614 0.930 . S
C2607 C2606 1.394 . S
C2607 C2608 1.383 . S
C2607 H2615 0.931 1_545 S
C2608 C2607 1.383 . S
C2608 C2609 1.377 . S
C2609 H2593 0.930 . S
C2609 C2608 1.377 . S
C2609 C2610 1.379 . S
C2610 H2594 0.931 . S
C2610 C2604 1.383 . S
C2610 C2609 1.379 . S
H2611 C2605 0.959 . S
H2612 C2605 0.961 . S
H2613 C2605 0.960 . S
H2614 C2606 0.930 . S
H2615 C2607 0.931 1_565 S
H2616 C2624 0.929 . S
H2617 C2626 0.930 . S
H2618 C2628 0.930 . S
H2619 C2631 0.929 . S
H2620 C2634 0.930 . S
H2621 C2636 0.960 . S
H2622 C2636 0.960 . S
H2623 C2636 0.960 . S
C2624 H2616 0.929 . S
C2624 C2625 1.377 . S
C2624 C2626 1.384 . S
C2625 C2624 1.377 . S
C2625 C2631 1.390 . S
C2626 H2617 0.930 . S
C2626 C2624 1.384 . S
C2626 C2627 1.372 . S
C2627 C2626 1.372 . S
C2627 C2628 1.400 . S
C2627 C2632 1.490 . S
C2628 H2618 0.930 . S
C2628 C2627 1.400 . S
C2628 C2631 1.386 . S
H2629 C2645 0.930 . S
H2630 C2646 0.931 . S
C2631 H2619 0.929 . S
C2631 C2625 1.390 . S
C2631 C2628 1.386 . S
C2632 C2627 1.490 . S
C2632 C2634 1.395 . S
C2632 C2635 1.403 . S
H2633 C2639 0.930 . S
C2634 H2620 0.930 . S
C2634 C2632 1.395 . S
C2634 C2637 1.403 . S
C2635 C2632 1.403 . S
C2635 C2636 1.524 . S
C2635 C2639 1.400 . S
C2636 H2621 0.960 . S
C2636 H2622 0.960 . S
C2636 H2623 0.960 . S
C2636 C2635 1.524 . S
C2637 C2634 1.403 . S
C2637 C2638 1.392 . S
C2637 C2641 1.495 . S
C2638 C2637 1.392 . S
C2638 C2639 1.385 . S
C2638 C2640 1.478 . S
C2639 H2633 0.930 . S
C2639 C2635 1.400 . S
C2639 C2638 1.385 . S
C2640 C2638 1.478 . S
C2640 C2642 1.381 . S
C2640 C2646 1.383 . S
C2641 C2637 1.495 . S
C2641 H2647 0.959 . S
C2641 H2648 0.961 . S
C2641 H2649 0.960 . S
C2642 C2640 1.381 . S
C2642 C2643 1.394 . S
C2642 H2650 0.930 . S
C2643 C2642 1.394 . S
C2643 C2644 1.383 . S
C2643 H2651 0.929 . S
C2644 C2643 1.383 . S
C2644 C2645 1.377 . S
C2645 H2629 0.930 . S
C2645 C2644 1.377 . S
C2645 C2646 1.379 . S
C2646 H2630 0.931 . S
C2646 C2640 1.383 . S
C2646 C2645 1.379 . S
H2647 C2641 0.959 . S
H2648 C2641 0.961 . S
H2649 C2641 0.960 . S
H2650 C2642 0.930 . S
H2651 C2643 0.929 . S
H2652 C2660 0.929 . S
H2653 C2662 0.930 . S
H2654 C2664 0.930 . S
H2655 C2667 0.929 . S
H2656 C2670 0.930 . S
H2657 C2672 0.960 . S
H2658 C2672 0.960 . S
H2659 C2672 0.960 . S
C2660 H2652 0.929 . S
C2660 C2661 1.377 . S
C2660 C2662 1.384 . S
C2661 C2660 1.377 . S
C2661 C2667 1.390 . S
C2662 H2653 0.930 . S
C2662 C2660 1.384 . S
C2662 C2663 1.372 . S
C2663 C2662 1.372 . S
C2663 C2664 1.400 . S
C2663 C2668 1.490 . S
C2664 H2654 0.930 . S
C2664 C2663 1.400 . S
C2664 C2667 1.386 . S
H2665 C2681 0.930 . S
H2666 C2682 0.931 . S
C2667 H2655 0.929 . S
C2667 C2661 1.390 . S
C2667 C2664 1.386 . S
C2668 C2663 1.490 . S
C2668 C2670 1.395 . S
C2668 C2671 1.403 . S
H2669 C2675 0.930 . S
C2670 H2656 0.930 . S
C2670 C2668 1.395 . S
C2670 C2673 1.403 . S
C2671 C2668 1.403 . S
C2671 C2672 1.524 . S
C2671 C2675 1.400 . S
C2672 H2657 0.960 . S
C2672 H2658 0.960 . S
C2672 H2659 0.960 . S
C2672 C2671 1.524 . S
C2673 C2670 1.403 . S
C2673 C2674 1.392 . S
C2673 C2677 1.495 . S
C2674 C2673 1.392 . S
C2674 C2675 1.385 . S
C2674 C2676 1.478 . S
C2675 H2669 0.930 . S
C2675 C2671 1.400 . S
C2675 C2674 1.385 . S
C2676 C2674 1.478 . S
C2676 C2678 1.381 . S
C2676 C2682 1.383 . S
C2677 C2673 1.495 . S
C2677 H2683 0.959 . S
C2677 H2684 0.961 . S
C2677 H2685 0.960 . S
C2678 C2676 1.381 . S
C2678 C2679 1.394 . S
C2678 H2686 0.930 . S
C2679 C2678 1.394 . S
C2679 C2680 1.383 . S
C2679 H2687 0.929 . S
C2680 C2679 1.383 . S
C2680 C2681 1.377 . S
C2681 H2665 0.930 . S
C2681 C2680 1.377 . S
C2681 C2682 1.379 . S
C2682 H2666 0.931 . S
C2682 C2676 1.383 . S
C2682 C2681 1.379 . S
H2683 C2677 0.959 . S
H2684 C2677 0.961 . S
H2685 C2677 0.960 . S
H2686 C2678 0.930 . S
H2687 C2679 0.929 . S
H2688 C2696 0.929 . S
H2689 C2698 0.930 . S
H2690 C2700 0.930 . S
H2691 C2703 0.929 . S
H2692 C2706 0.930 . S
H2693 C2708 0.960 . S
H2694 C2708 0.960 . S
H2695 C2708 0.960 . S
C2696 H2688 0.929 . S
C2696 C2697 1.377 . S
C2696 C2698 1.384 . S
C2697 C2696 1.377 . S
C2697 C2703 1.390 . S
C2698 H2689 0.930 . S
C2698 C2696 1.384 . S
C2698 C2699 1.372 . S
C2699 C2698 1.372 . S
C2699 C2700 1.400 . S
C2699 C2704 1.490 . S
C2700 H2690 0.930 . S
C2700 C2699 1.400 . S
C2700 C2703 1.386 . S
H2701 C2717 0.930 . S
H2702 C2718 0.931 . S
C2703 H2691 0.929 . S
C2703 C2697 1.390 . S
C2703 C2700 1.386 . S
C2704 C2699 1.490 . S
C2704 C2706 1.395 . S
C2704 C2707 1.403 . S
H2705 C2711 0.930 . S
C2706 H2692 0.930 . S
C2706 C2704 1.395 . S
C2706 C2709 1.403 . S
C2707 C2704 1.403 . S
C2707 C2708 1.524 . S
C2707 C2711 1.400 . S
C2708 H2693 0.960 . S
C2708 H2694 0.960 . S
C2708 H2695 0.960 . S
C2708 C2707 1.524 . S
C2709 C2706 1.403 . S
C2709 C2710 1.392 . S
C2709 C2713 1.495 . S
C2710 C2709 1.392 . S
C2710 C2711 1.385 . S
C2710 C2712 1.478 . S
C2711 H2705 0.930 . S
C2711 C2707 1.400 . S
C2711 C2710 1.385 . S
C2712 C2710 1.478 . S
C2712 C2714 1.381 . S
C2712 C2718 1.383 . S
C2713 C2709 1.495 . S
C2713 H2719 0.959 . S
C2713 H2720 0.961 . S
C2713 H2721 0.960 . S
C2714 C2712 1.381 . S
C2714 C2715 1.394 . S
C2714 H2722 0.930 . S
C2715 C2714 1.394 . S
C2715 C2716 1.383 . S
C2715 H2723 0.929 . S
C2716 C2715 1.383 . S
C2716 C2717 1.377 . S
C2717 H2701 0.930 . S
C2717 C2716 1.377 . S
C2717 C2718 1.379 . S
C2718 H2702 0.931 . S
C2718 C2712 1.383 . S
C2718 C2717 1.379 . S
H2719 C2713 0.959 . S
H2720 C2713 0.961 . S
H2721 C2713 0.960 . S
H2722 C2714 0.930 . S
H2723 C2715 0.929 . S
H2724 C2732 0.929 . S
H2725 C2734 0.930 . S
H2726 C2736 0.930 . S
H2727 C2739 0.929 . S
H2728 C2742 0.930 . S
H2729 C2744 0.960 . S
H2730 C2744 0.960 . S
H2731 C2744 0.960 . S
C2732 H2724 0.929 . S
C2732 C2733 1.377 . S
C2732 C2734 1.384 . S
C2733 C2732 1.377 . S
C2733 C2739 1.390 . S
C2734 H2725 0.930 . S
C2734 C2732 1.384 . S
C2734 C2735 1.372 . S
C2735 C2734 1.372 . S
C2735 C2736 1.400 . S
C2735 C2740 1.490 . S
C2736 H2726 0.930 . S
C2736 C2735 1.400 . S
C2736 C2739 1.386 . S
H2737 C2753 0.930 1_565 S
H2738 C2754 0.931 . S
C2739 H2727 0.929 . S
C2739 C2733 1.390 . S
C2739 C2736 1.386 . S
C2740 C2735 1.490 . S
C2740 C2742 1.395 . S
C2740 C2743 1.403 . S
H2741 C2747 0.930 1_565 S
C2742 H2728 0.930 . S
C2742 C2740 1.395 . S
C2742 C2745 1.403 . S
C2743 C2740 1.403 . S
C2743 C2744 1.524 1_545 S
C2743 C2747 1.400 . S
C2744 H2729 0.960 . S
C2744 H2730 0.960 . S
C2744 H2731 0.960 . S
C2744 C2743 1.524 1_565 S
C2745 C2742 1.403 . S
C2745 C2746 1.392 . S
C2745 C2749 1.495 . S
C2746 C2745 1.392 . S
C2746 C2747 1.385 . S
C2746 C2748 1.478 . S
C2747 H2741 0.930 1_545 S
C2747 C2743 1.400 . S
C2747 C2746 1.385 . S
C2748 C2746 1.478 . S
C2748 C2750 1.381 . S
C2748 C2754 1.383 . S
C2749 C2745 1.495 . S
C2749 H2755 0.959 . S
C2749 H2756 0.961 . S
C2749 H2757 0.960 . S
C2750 C2748 1.381 . S
C2750 C2751 1.394 . S
C2750 H2758 0.930 . S
C2751 C2750 1.394 . S
C2751 C2752 1.383 . S
C2751 H2759 0.929 . S
C2752 C2751 1.383 . S
C2752 C2753 1.377 . S
C2753 H2737 0.930 1_545 S
C2753 C2752 1.377 . S
C2753 C2754 1.379 . S
C2754 H2738 0.931 . S
C2754 C2748 1.383 . S
C2754 C2753 1.379 . S
H2755 C2749 0.959 . S
H2756 C2749 0.961 . S
H2757 C2749 0.960 . S
H2758 C2750 0.930 . S
H2759 C2751 0.929 . S
H2760 C2768 0.929 . S
H2761 C2770 0.930 . S
H2762 C2772 0.930 . S
H2763 C2775 0.929 . S
H2764 C2778 0.930 . S
H2765 C2780 0.960 . S
H2766 C2780 0.960 . S
H2767 C2780 0.960 . S
C2768 H2760 0.929 . S
C2768 C2769 1.377 . S
C2768 C2770 1.384 . S
C2769 C2768 1.377 . S
C2769 C2775 1.390 . S
C2770 H2761 0.930 . S
C2770 C2768 1.384 . S
C2770 C2771 1.372 . S
C2771 C2770 1.372 . S
C2771 C2772 1.400 . S
C2771 C2776 1.490 . S
C2772 H2762 0.930 . S
C2772 C2771 1.400 . S
C2772 C2775 1.386 . S
H2773 C2789 0.930 . S
H2774 C2790 0.931 . S
C2775 H2763 0.929 . S
C2775 C2769 1.390 . S
C2775 C2772 1.386 . S
C2776 C2771 1.490 . S
C2776 C2778 1.395 . S
C2776 C2779 1.403 . S
H2777 C2783 0.930 . S
C2778 H2764 0.930 . S
C2778 C2776 1.395 . S
C2778 C2781 1.403 . S
C2779 C2776 1.403 . S
C2779 C2780 1.524 . S
C2779 C2783 1.400 . S
C2780 H2765 0.960 . S
C2780 H2766 0.960 . S
C2780 H2767 0.960 . S
C2780 C2779 1.524 . S
C2781 C2778 1.403 . S
C2781 C2782 1.392 . S
C2781 C2785 1.495 . S
C2782 C2781 1.392 . S
C2782 C2783 1.385 . S
C2782 C2784 1.478 . S
C2783 H2777 0.930 . S
C2783 C2779 1.400 . S
C2783 C2782 1.385 . S
C2784 C2782 1.478 . S
C2784 C2786 1.381 . S
C2784 C2790 1.383 . S
C2785 C2781 1.495 . S
C2785 H2791 0.959 . S
C2785 H2792 0.961 . S
C2785 H2793 0.960 . S
C2786 C2784 1.381 . S
C2786 C2787 1.394 . S
C2786 H2794 0.930 . S
C2787 C2786 1.394 . S
C2787 C2788 1.383 . S
C2787 H2795 0.929 . S
C2788 C2787 1.383 . S
C2788 C2789 1.377 . S
C2789 H2773 0.930 . S
C2789 C2788 1.377 . S
C2789 C2790 1.379 . S
C2790 H2774 0.931 . S
C2790 C2784 1.383 . S
C2790 C2789 1.379 . S
H2791 C2785 0.959 . S
H2792 C2785 0.961 . S
H2793 C2785 0.960 . S
H2794 C2786 0.930 . S
H2795 C2787 0.929 . S
H2796 C2804 0.929 . S
H2797 C2806 0.930 . S
H2798 C2808 0.930 . S
H2799 C2811 0.929 . S
H2800 C2814 0.930 . S
H2801 C2816 0.960 . S
H2802 C2816 0.960 . S
H2803 C2816 0.960 . S
C2804 H2796 0.929 . S
C2804 C2805 1.377 . S
C2804 C2806 1.384 . S
C2805 C2804 1.377 . S
C2805 C2811 1.390 . S
C2806 H2797 0.930 . S
C2806 C2804 1.384 . S
C2806 C2807 1.372 . S
C2807 C2806 1.372 . S
C2807 C2808 1.400 . S
C2807 C2812 1.490 . S
C2808 H2798 0.930 . S
C2808 C2807 1.400 . S
C2808 C2811 1.386 . S
H2809 C2825 0.930 . S
H2810 C2826 0.931 . S
C2811 H2799 0.929 . S
C2811 C2805 1.390 . S
C2811 C2808 1.386 . S
C2812 C2807 1.490 . S
C2812 C2814 1.395 . S
C2812 C2815 1.403 . S
H2813 C2819 0.930 . S
C2814 H2800 0.930 . S
C2814 C2812 1.395 . S
C2814 C2817 1.403 . S
C2815 C2812 1.403 . S
C2815 C2816 1.524 . S
C2815 C2819 1.400 . S
C2816 H2801 0.960 . S
C2816 H2802 0.960 . S
C2816 H2803 0.960 . S
C2816 C2815 1.524 . S
C2817 C2814 1.403 . S
C2817 C2818 1.392 . S
C2817 C2821 1.495 . S
C2818 C2817 1.392 . S
C2818 C2819 1.385 . S
C2818 C2820 1.478 . S
C2819 H2813 0.930 . S
C2819 C2815 1.400 . S
C2819 C2818 1.385 . S
C2820 C2818 1.478 . S
C2820 C2822 1.381 . S
C2820 C2826 1.383 . S
C2821 C2817 1.495 . S
C2821 H2827 0.959 . S
C2821 H2828 0.961 . S
C2821 H2829 0.960 . S
C2822 C2820 1.381 . S
C2822 C2823 1.394 . S
C2822 H2830 0.930 . S
C2823 C2822 1.394 . S
C2823 C2824 1.383 . S
C2823 H2831 0.929 . S
C2824 C2823 1.383 . S
C2824 C2825 1.377 . S
C2825 H2809 0.930 . S
C2825 C2824 1.377 . S
C2825 C2826 1.379 . S
C2826 H2810 0.931 . S
C2826 C2820 1.383 . S
C2826 C2825 1.379 . S
H2827 C2821 0.959 . S
H2828 C2821 0.961 . S
H2829 C2821 0.960 . S
H2830 C2822 0.930 . S
H2831 C2823 0.929 . S
H2832 C2840 0.929 . S
H2833 C2842 0.930 . S
H2834 C2844 0.930 . S
H2835 C2847 0.929 . S
H2836 C2850 0.930 . S
H2837 C2852 0.960 . S
H2838 C2852 0.960 . S
H2839 C2852 0.960 . S
C2840 H2832 0.929 . S
C2840 C2841 1.377 . S
C2840 C2842 1.384 . S
C2841 C2840 1.377 . S
C2841 C2847 1.390 . S
C2842 H2833 0.930 . S
C2842 C2840 1.384 . S
C2842 C2843 1.372 . S
C2843 C2842 1.372 . S
C2843 C2844 1.400 . S
C2843 C2848 1.490 . S
C2844 H2834 0.930 . S
C2844 C2843 1.400 . S
C2844 C2847 1.386 . S
H2845 C2861 0.930 . S
H2846 C2862 0.931 . S
C2847 H2835 0.929 . S
C2847 C2841 1.390 . S
C2847 C2844 1.386 . S
C2848 C2843 1.490 . S
C2848 C2850 1.395 . S
C2848 C2851 1.403 . S
H2849 C2855 0.930 . S
C2850 H2836 0.930 . S
C2850 C2848 1.395 . S
C2850 C2853 1.403 . S
C2851 C2848 1.403 . S
C2851 C2852 1.524 . S
C2851 C2855 1.400 . S
C2852 H2837 0.960 . S
C2852 H2838 0.960 . S
C2852 H2839 0.960 . S
C2852 C2851 1.524 . S
C2853 C2850 1.403 . S
C2853 C2854 1.392 . S
C2853 C2857 1.495 . S
C2854 C2853 1.392 . S
C2854 C2855 1.385 . S
C2854 C2856 1.478 . S
C2855 H2849 0.930 . S
C2855 C2851 1.400 . S
C2855 C2854 1.385 . S
C2856 C2854 1.478 . S
C2856 C2858 1.381 . S
C2856 C2862 1.383 . S
C2857 C2853 1.495 . S
C2857 H2863 0.959 . S
C2857 H2864 0.961 . S
C2857 H2865 0.960 . S
C2858 C2856 1.381 . S
C2858 C2859 1.394 . S
C2858 H2866 0.930 . S
C2859 C2858 1.394 . S
C2859 C2860 1.383 . S
C2859 H2867 0.929 . S
C2860 C2859 1.383 . S
C2860 C2861 1.377 . S
C2861 H2845 0.930 . S
C2861 C2860 1.377 . S
C2861 C2862 1.379 . S
C2862 H2846 0.931 . S
C2862 C2856 1.383 . S
C2862 C2861 1.379 . S
H2863 C2857 0.959 . S
H2864 C2857 0.961 . S
H2865 C2857 0.960 . S
H2866 C2858 0.930 . S
H2867 C2859 0.929 . S
H2868 C2876 0.932 . S
H2869 C2878 0.930 1_455 S
H2870 C2880 0.930 . S
H2871 C2883 0.929 . S
H2872 C2886 0.930 . S
H2873 C2888 0.960 . S
H2874 C2888 0.960 . S
H2875 C2888 0.960 . S
C2876 H2868 0.932 . S
C2876 C2877 1.377 . S
C2876 C2878 1.384 . S
C2877 C2876 1.377 . S
C2877 C2883 1.390 . S
C2878 H2869 0.930 1_655 S
C2878 C2876 1.384 . S
C2878 C2879 1.372 . S
C2879 C2878 1.372 . S
C2879 C2880 1.400 . S
C2879 C2884 1.490 . S
C2880 H2870 0.930 . S
C2880 C2879 1.400 . S
C2880 C2883 1.386 . S
H2881 C2897 0.930 . S
H2882 C2898 0.931 . S
C2883 H2871 0.929 . S
C2883 C2877 1.390 . S
C2883 C2880 1.386 . S
C2884 C2879 1.490 . S
C2884 C2886 1.395 . S
C2884 C2887 1.403 . S
H2885 C2891 0.930 . S
C2886 H2872 0.930 . S
C2886 C2884 1.395 . S
C2886 C2889 1.403 . S
C2887 C2884 1.403 . S
C2887 C2888 1.524 . S
C2887 C2891 1.400 . S
C2888 H2873 0.960 . S
C2888 H2874 0.960 . S
C2888 H2875 0.960 . S
C2888 C2887 1.524 . S
C2889 C2886 1.403 . S
C2889 C2890 1.392 . S
C2889 C2893 1.495 . S
C2890 C2889 1.392 . S
C2890 C2891 1.385 . S
C2890 C2892 1.478 . S
C2891 H2885 0.930 . S
C2891 C2887 1.400 . S
C2891 C2890 1.385 . S
C2892 C2890 1.478 . S
C2892 C2894 1.381 1_655 S
C2892 C2898 1.383 . S
C2893 C2889 1.495 . S
C2893 H2899 0.959 . S
C2893 H2900 0.961 . S
C2893 H2901 0.960 1_655 S
C2894 C2892 1.381 1_455 S
C2894 C2895 1.394 . S
C2894 H2902 0.930 . S
C2895 C2894 1.394 . S
C2895 C2896 1.383 1_455 S
C2895 H2903 0.929 . S
C2896 C2895 1.383 1_655 S
C2896 C2897 1.377 . S
C2897 H2881 0.930 . S
C2897 C2896 1.377 . S
C2897 C2898 1.379 . S
C2898 H2882 0.931 . S
C2898 C2892 1.383 . S
C2898 C2897 1.379 . S
H2899 C2893 0.959 . S
H2900 C2893 0.961 . S
H2901 C2893 0.960 1_455 S
H2902 C2894 0.930 . S
H2903 C2895 0.929 . S
H2904 C2912 0.929 . S
H2905 C2914 0.930 . S
H2906 C2916 0.930 . S
H2907 C2919 0.929 . S
H2908 C2922 0.930 . S
H2909 C2924 0.960 . S
H2910 C2924 0.960 . S
H2911 C2924 0.960 . S
C2912 H2904 0.929 . S
C2912 C2913 1.377 . S
C2912 C2914 1.384 . S
C2913 C2912 1.377 . S
C2913 C2919 1.390 . S
C2914 H2905 0.930 . S
C2914 C2912 1.384 . S
C2914 C2915 1.372 . S
C2915 C2914 1.372 . S
C2915 C2916 1.400 . S
C2915 C2920 1.490 . S
C2916 H2906 0.930 . S
C2916 C2915 1.400 . S
C2916 C2919 1.386 . S
H2917 C2933 0.930 . S
H2918 C2934 0.931 . S
C2919 H2907 0.929 . S
C2919 C2913 1.390 . S
C2919 C2916 1.386 . S
C2920 C2915 1.490 . S
C2920 C2922 1.395 . S
C2920 C2923 1.403 . S
H2921 C2927 0.930 . S
C2922 H2908 0.930 . S
C2922 C2920 1.395 . S
C2922 C2925 1.403 . S
C2923 C2920 1.403 . S
C2923 C2924 1.524 . S
C2923 C2927 1.400 . S
C2924 H2909 0.960 . S
C2924 H2910 0.960 . S
C2924 H2911 0.960 . S
C2924 C2923 1.524 . S
C2925 C2922 1.403 . S
C2925 C2926 1.392 . S
C2925 C2929 1.495 . S
C2926 C2925 1.392 . S
C2926 C2927 1.385 . S
C2926 C2928 1.478 . S
C2927 H2921 0.930 . S
C2927 C2923 1.400 . S
C2927 C2926 1.385 . S
C2928 C2926 1.478 . S
C2928 C2930 1.381 . S
C2928 C2934 1.383 . S
C2929 C2925 1.495 . S
C2929 H2935 0.959 . S
C2929 H2936 0.961 . S
C2929 H2937 0.960 . S
C2930 C2928 1.381 . S
C2930 C2931 1.394 . S
C2930 H2938 0.930 . S
C2931 C2930 1.394 . S
C2931 C2932 1.383 . S
C2931 H2939 0.929 . S
C2932 C2931 1.383 . S
C2932 C2933 1.377 . S
C2933 H2917 0.930 . S
C2933 C2932 1.377 . S
C2933 C2934 1.379 . S
C2934 H2918 0.931 . S
C2934 C2928 1.383 . S
C2934 C2933 1.379 . S
H2935 C2929 0.959 . S
H2936 C2929 0.961 . S
H2937 C2929 0.960 . S
H2938 C2930 0.930 . S
H2939 C2931 0.929 . S
H2940 C2948 0.929 . S
H2941 C2950 0.970 . S
H2942 C2952 0.930 . S
H2943 C2955 0.929 . S
H2944 C2958 0.930 1_655 S
H2945 C2960 0.960 . S
H2946 C2960 0.960 . S
H2947 C2960 0.960 . S
C2948 H2940 0.929 . S
C2948 C2949 1.377 . S
C2948 C2950 1.384 . S
C2949 C2948 1.377 . S
C2949 C2955 1.390 . S
C2950 H2941 0.970 . S
C2950 C2948 1.384 . S
C2950 C2951 1.372 . S
C2951 C2950 1.372 . S
C2951 C2952 1.400 . S
C2951 C2956 1.490 . S
C2952 H2942 0.930 . S
C2952 C2951 1.400 . S
C2952 C2955 1.386 . S
H2953 C2969 0.930 . S
H2954 C2970 0.931 . S
C2955 H2943 0.929 . S
C2955 C2949 1.390 . S
C2955 C2952 1.386 . S
C2956 C2951 1.490 . S
C2956 C2958 1.395 . S
C2956 C2959 1.403 . S
H2957 C2963 0.930 . S
C2958 H2944 0.930 1_455 S
C2958 C2956 1.395 . S
C2958 C2961 1.403 . S
C2959 C2956 1.403 . S
C2959 C2960 1.524 . S
C2959 C2963 1.400 . S
C2960 H2945 0.960 . S
C2960 H2946 0.960 . S
C2960 H2947 0.960 . S
C2960 C2959 1.524 . S
C2961 C2958 1.403 . S
C2961 C2962 1.392 . S
C2961 C2965 1.495 1_455 S
C2962 C2961 1.392 . S
C2962 C2963 1.385 . S
C2962 C2964 1.478 . S
C2963 H2957 0.930 . S
C2963 C2959 1.400 . S
C2963 C2962 1.385 . S
C2964 C2962 1.478 . S
C2964 C2966 1.381 1_455 S
C2964 C2970 1.383 . S
C2965 C2961 1.495 1_655 S
C2965 H2971 0.959 . S
C2965 H2972 0.961 . S
C2965 H2973 0.960 . S
C2966 C2964 1.381 1_655 S
C2966 C2967 1.393 . S
C2966 H2974 0.930 . S
C2967 C2966 1.393 . S
C2967 C2968 1.344 1_655 S
C2967 H2975 0.973 . S
C2968 C2967 1.344 1_455 S
C2968 C2969 1.377 . S
C2969 H2953 0.930 . S
C2969 C2968 1.377 . S
C2969 C2970 1.379 . S
C2970 H2954 0.931 . S
C2970 C2964 1.383 . S
C2970 C2969 1.379 . S
H2971 C2965 0.959 . S
H2972 C2965 0.961 . S
H2973 C2965 0.960 . S
H2974 C2966 0.930 . S
H2975 C2967 0.973 . S
H2976 C2984 0.929 . S
H2977 C2986 0.930 . S
H2978 C2988 0.930 . S
H2979 C2991 0.929 . S
H2980 C2994 0.930 . S
H2981 C2996 0.960 . S
H2982 C2996 0.960 . S
H2983 C2996 0.960 . S
C2984 H2976 0.929 . S
C2984 C2985 1.377 . S
C2984 C2986 1.384 . S
C2985 C2984 1.377 . S
C2985 C2991 1.390 . S
C2986 H2977 0.930 . S
C2986 C2984 1.384 . S
C2986 C2987 1.372 . S
C2987 C2986 1.372 . S
C2987 C2988 1.400 . S
C2987 C2992 1.490 . S
C2988 H2978 0.930 . S
C2988 C2987 1.400 . S
C2988 C2991 1.386 . S
H2989 C3005 0.930 . S
H2990 C3006 0.931 . S
C2991 H2979 0.929 . S
C2991 C2985 1.390 . S
C2991 C2988 1.386 . S
C2992 C2987 1.490 . S
C2992 C2994 1.395 . S
C2992 C2995 1.403 . S
H2993 C2999 0.930 . S
C2994 H2980 0.930 . S
C2994 C2992 1.395 . S
C2994 C2997 1.403 . S
C2995 C2992 1.403 . S
C2995 C2996 1.524 . S
C2995 C2999 1.400 . S
C2996 H2981 0.960 . S
C2996 H2982 0.960 . S
C2996 H2983 0.960 . S
C2996 C2995 1.524 . S
C2997 C2994 1.403 . S
C2997 C2998 1.392 . S
C2997 C3001 1.495 . S
C2998 C2997 1.392 . S
C2998 C2999 1.385 . S
C2998 C3000 1.478 . S
C2999 H2993 0.930 . S
C2999 C2995 1.400 . S
C2999 C2998 1.385 . S
C3000 C2998 1.478 . S
C3000 C3002 1.381 . S
C3000 C3006 1.383 . S
C3001 C2997 1.495 . S
C3001 H3007 0.959 . S
C3001 H3008 0.961 . S
C3001 H3009 0.960 . S
C3002 C3000 1.381 . S
C3002 C3003 1.394 . S
C3002 H3010 0.930 . S
C3003 C3002 1.394 . S
C3003 C3004 1.383 . S
C3003 H3011 0.929 . S
C3004 C3003 1.383 . S
C3004 C3005 1.377 . S
C3005 H2989 0.930 . S
C3005 C3004 1.377 . S
C3005 C3006 1.379 . S
C3006 H2990 0.931 . S
C3006 C3000 1.383 . S
C3006 C3005 1.379 . S
H3007 C3001 0.959 . S
H3008 C3001 0.961 . S
H3009 C3001 0.960 . S
H3010 C3002 0.930 . S
H3011 C3003 0.929 . S
H3012 C3020 0.929 . S
H3013 C3022 0.930 . S
H3014 C3024 0.930 . S
H3015 C3027 0.929 . S
H3016 C3030 0.930 . S
H3017 C3032 0.960 . S
H3018 C3032 0.960 . S
H3019 C3032 0.960 . S
C3020 H3012 0.929 . S
C3020 C3021 1.377 . S
C3020 C3022 1.384 . S
C3021 C3020 1.377 . S
C3021 C3027 1.390 . S
C3022 H3013 0.930 . S
C3022 C3020 1.384 . S
C3022 C3023 1.372 . S
C3023 C3022 1.372 . S
C3023 C3024 1.400 . S
C3023 C3028 1.490 . S
C3024 H3014 0.930 . S
C3024 C3023 1.400 . S
C3024 C3027 1.386 . S
H3025 C3041 0.930 . S
H3026 C3042 0.931 . S
C3027 H3015 0.929 . S
C3027 C3021 1.390 . S
C3027 C3024 1.386 . S
C3028 C3023 1.490 . S
C3028 C3030 1.395 . S
C3028 C3031 1.403 . S
H3029 C3035 0.930 . S
C3030 H3016 0.930 . S
C3030 C3028 1.395 . S
C3030 C3033 1.403 . S
C3031 C3028 1.403 . S
C3031 C3032 1.524 . S
C3031 C3035 1.400 . S
C3032 H3017 0.960 . S
C3032 H3018 0.960 . S
C3032 H3019 0.960 . S
C3032 C3031 1.524 . S
C3033 C3030 1.403 . S
C3033 C3034 1.392 . S
C3033 C3037 1.495 . S
C3034 C3033 1.392 . S
C3034 C3035 1.385 . S
C3034 C3036 1.478 . S
C3035 H3029 0.930 . S
C3035 C3031 1.400 . S
C3035 C3034 1.385 . S
C3036 C3034 1.478 . S
C3036 C3038 1.381 . S
C3036 C3042 1.383 . S
C3037 C3033 1.495 . S
C3037 H3043 0.959 . S
C3037 H3044 0.961 . S
C3037 H3045 0.960 . S
C3038 C3036 1.381 . S
C3038 C3039 1.394 . S
C3038 H3046 0.930 . S
C3039 C3038 1.394 . S
C3039 C3040 1.383 . S
C3039 H3047 0.929 . S
C3040 C3039 1.383 . S
C3040 C3041 1.377 . S
C3041 H3025 0.930 . S
C3041 C3040 1.377 . S
C3041 C3042 1.379 . S
C3042 H3026 0.931 . S
C3042 C3036 1.383 . S
C3042 C3041 1.379 . S
H3043 C3037 0.959 . S
H3044 C3037 0.961 . S
H3045 C3037 0.960 . S
H3046 C3038 0.930 . S
H3047 C3039 0.929 . S
H3048 C3056 0.929 . S
H3049 C3058 0.930 . S
H3050 C3060 0.930 . S
H3051 C3063 0.929 . S
H3052 C3066 0.930 . S
H3053 C3068 0.960 . S
H3054 C3068 0.960 . S
H3055 C3068 0.960 . S
C3056 H3048 0.929 . S
C3056 C3057 1.377 . S
C3056 C3058 1.384 . S
C3057 C3056 1.377 . S
C3057 C3063 1.390 . S
C3058 H3049 0.930 . S
C3058 C3056 1.384 . S
C3058 C3059 1.372 . S
C3059 C3058 1.372 . S
C3059 C3060 1.400 . S
C3059 C3064 1.490 . S
C3060 H3050 0.930 . S
C3060 C3059 1.400 . S
C3060 C3063 1.386 . S
H3061 C3077 0.930 . S
H3062 C3078 0.931 . S
C3063 H3051 0.929 . S
C3063 C3057 1.390 . S
C3063 C3060 1.386 . S
C3064 C3059 1.490 . S
C3064 C3066 1.395 . S
C3064 C3067 1.403 . S
H3065 C3071 0.930 . S
C3066 H3052 0.930 . S
C3066 C3064 1.395 . S
C3066 C3069 1.403 . S
C3067 C3064 1.403 . S
C3067 C3068 1.524 . S
C3067 C3071 1.400 . S
C3068 H3053 0.960 . S
C3068 H3054 0.960 . S
C3068 H3055 0.960 . S
C3068 C3067 1.524 . S
C3069 C3066 1.403 . S
C3069 C3070 1.392 . S
C3069 C3073 1.495 . S
C3070 C3069 1.392 . S
C3070 C3071 1.385 . S
C3070 C3072 1.478 . S
C3071 H3065 0.930 . S
C3071 C3067 1.400 . S
C3071 C3070 1.385 . S
C3072 C3070 1.478 . S
C3072 C3074 1.381 . S
C3072 C3078 1.383 . S
C3073 C3069 1.495 . S
C3073 H3079 0.959 . S
C3073 H3080 0.961 . S
C3073 H3081 0.960 . S
C3074 C3072 1.381 . S
C3074 C3075 1.394 . S
C3074 H3082 0.930 . S
C3075 C3074 1.394 . S
C3075 C3076 1.383 . S
C3075 H3083 0.929 . S
C3076 C3075 1.383 . S
C3076 C3077 1.377 . S
C3077 H3061 0.930 . S
C3077 C3076 1.377 . S
C3077 C3078 1.379 . S
C3078 H3062 0.931 . S
C3078 C3072 1.383 . S
C3078 C3077 1.379 . S
H3079 C3073 0.959 . S
H3080 C3073 0.961 . S
H3081 C3073 0.960 . S
H3082 C3074 0.930 . S
H3083 C3075 0.929 . S
H3084 C3092 0.929 . S
H3085 C3094 0.930 . S
H3086 C3096 0.930 . S
H3087 C3099 0.929 . S
H3088 C3102 0.930 . S
H3089 C3104 0.960 . S
H3090 C3104 0.960 . S
H3091 C3104 0.960 . S
C3092 H3084 0.929 . S
C3092 C3093 1.377 . S
C3092 C3094 1.384 . S
C3093 C3092 1.377 . S
C3093 C3099 1.390 . S
C3094 H3085 0.930 . S
C3094 C3092 1.384 . S
C3094 C3095 1.372 . S
C3095 C3094 1.372 . S
C3095 C3096 1.400 . S
C3095 C3100 1.490 . S
C3096 H3086 0.930 . S
C3096 C3095 1.400 . S
C3096 C3099 1.386 . S
H3097 C3113 0.930 . S
H3098 C3114 0.931 . S
C3099 H3087 0.929 . S
C3099 C3093 1.390 . S
C3099 C3096 1.386 . S
C3100 C3095 1.490 . S
C3100 C3102 1.395 . S
C3100 C3103 1.403 . S
H3101 C3107 0.930 . S
C3102 H3088 0.930 . S
C3102 C3100 1.395 . S
C3102 C3105 1.403 . S
C3103 C3100 1.403 . S
C3103 C3104 1.524 . S
C3103 C3107 1.400 . S
C3104 H3089 0.960 . S
C3104 H3090 0.960 . S
C3104 H3091 0.960 . S
C3104 C3103 1.524 . S
C3105 C3102 1.403 . S
C3105 C3106 1.392 . S
C3105 C3109 1.495 . S
C3106 C3105 1.392 . S
C3106 C3107 1.385 . S
C3106 C3108 1.478 . S
C3107 H3101 0.930 . S
C3107 C3103 1.400 . S
C3107 C3106 1.385 . S
C3108 C3106 1.478 . S
C3108 C3110 1.381 . S
C3108 C3114 1.383 . S
C3109 C3105 1.495 . S
C3109 H3115 0.959 . S
C3109 H3116 0.961 . S
C3109 H3117 0.960 . S
C3110 C3108 1.381 . S
C3110 C3111 1.394 . S
C3110 H3118 0.930 . S
C3111 C3110 1.394 . S
C3111 C3112 1.383 . S
C3111 H3119 0.929 . S
C3112 C3111 1.383 . S
C3112 C3113 1.377 . S
C3113 H3097 0.930 . S
C3113 C3112 1.377 . S
C3113 C3114 1.379 . S
C3114 H3098 0.931 . S
C3114 C3108 1.383 . S
C3114 C3113 1.379 . S
H3115 C3109 0.959 . S
H3116 C3109 0.961 . S
H3117 C3109 0.960 . S
H3118 C3110 0.930 . S
H3119 C3111 0.929 . S
H3120 C3128 0.929 . S
H3121 C3130 0.930 . S
H3122 C3132 0.930 . S
H3123 C3135 0.929 . S
H3124 C3138 0.930 . S
H3125 C3140 0.960 . S
H3126 C3140 0.960 . S
H3127 C3140 0.960 . S
C3128 H3120 0.929 . S
C3128 C3129 1.377 . S
C3128 C3130 1.384 . S
C3129 C3128 1.377 . S
C3129 C3135 1.390 . S
C3130 H3121 0.930 . S
C3130 C3128 1.384 . S
C3130 C3131 1.372 . S
C3131 C3130 1.372 . S
C3131 C3132 1.400 . S
C3131 C3136 1.490 . S
C3132 H3122 0.930 . S
C3132 C3131 1.400 . S
C3132 C3135 1.386 . S
H3133 C3149 0.930 . S
H3134 C3150 0.931 . S
C3135 H3123 0.929 . S
C3135 C3129 1.390 . S
C3135 C3132 1.386 . S
C3136 C3131 1.490 . S
C3136 C3138 1.395 . S
C3136 C3139 1.403 . S
H3137 C3143 0.930 . S
C3138 H3124 0.930 . S
C3138 C3136 1.395 . S
C3138 C3141 1.403 . S
C3139 C3136 1.403 . S
C3139 C3140 1.524 . S
C3139 C3143 1.400 . S
C3140 H3125 0.960 . S
C3140 H3126 0.960 . S
C3140 H3127 0.960 . S
C3140 C3139 1.524 . S
C3141 C3138 1.403 . S
C3141 C3142 1.392 . S
C3141 C3145 1.495 . S
C3142 C3141 1.392 . S
C3142 C3143 1.385 . S
C3142 C3144 1.478 . S
C3143 H3137 0.930 . S
C3143 C3139 1.400 . S
C3143 C3142 1.385 . S
C3144 C3142 1.478 . S
C3144 C3146 1.381 . S
C3144 C3150 1.383 . S
C3145 C3141 1.495 . S
C3145 H3151 0.959 . S
C3145 H3152 0.961 . S
C3145 H3153 0.960 . S
C3146 C3144 1.381 . S
C3146 C3147 1.394 . S
C3146 H3154 0.930 . S
C3147 C3146 1.394 . S
C3147 C3148 1.383 . S
C3147 H3155 0.929 . S
C3148 C3147 1.383 . S
C3148 C3149 1.377 . S
C3149 H3133 0.930 . S
C3149 C3148 1.377 . S
C3149 C3150 1.379 . S
C3150 H3134 0.931 . S
C3150 C3144 1.383 . S
C3150 C3149 1.379 . S
H3151 C3145 0.959 . S
H3152 C3145 0.961 . S
H3153 C3145 0.960 . S
H3154 C3146 0.930 . S
H3155 C3147 0.929 . S
H3156 C3164 0.929 . S
H3157 C3166 0.930 . S
H3158 C3168 0.930 . S
H3159 C3171 0.929 . S
H3160 C3174 0.930 . S
H3161 C3176 0.960 . S
H3162 C3176 0.960 . S
H3163 C3176 0.960 . S
C3164 H3156 0.929 . S
C3164 C3165 1.377 . S
C3164 C3166 1.384 . S
C3165 C3164 1.377 . S
C3165 C3171 1.390 . S
C3166 H3157 0.930 . S
C3166 C3164 1.384 . S
C3166 C3167 1.372 . S
C3167 C3166 1.372 . S
C3167 C3168 1.400 . S
C3167 C3172 1.490 . S
C3168 H3158 0.930 . S
C3168 C3167 1.400 . S
C3168 C3171 1.386 . S
H3169 C3185 0.930 . S
H3170 C3186 0.931 . S
C3171 H3159 0.929 . S
C3171 C3165 1.390 . S
C3171 C3168 1.386 . S
C3172 C3167 1.490 . S
C3172 C3174 1.395 . S
C3172 C3175 1.403 . S
H3173 C3179 0.930 . S
C3174 H3160 0.930 . S
C3174 C3172 1.395 . S
C3174 C3177 1.403 . S
C3175 C3172 1.403 . S
C3175 C3176 1.524 . S
C3175 C3179 1.400 . S
C3176 H3161 0.960 . S
C3176 H3162 0.960 . S
C3176 H3163 0.960 . S
C3176 C3175 1.524 . S
C3177 C3174 1.403 . S
C3177 C3178 1.392 . S
C3177 C3181 1.495 . S
C3178 C3177 1.392 . S
C3178 C3179 1.385 . S
C3178 C3180 1.478 . S
C3179 H3173 0.930 . S
C3179 C3175 1.400 . S
C3179 C3178 1.385 . S
C3180 C3178 1.478 . S
C3180 C3182 1.381 . S
C3180 C3186 1.383 . S
C3181 C3177 1.495 . S
C3181 H3187 0.959 . S
C3181 H3188 0.961 . S
C3181 H3189 0.960 . S
C3182 C3180 1.381 . S
C3182 C3183 1.394 . S
C3182 H3190 0.930 . S
C3183 C3182 1.394 . S
C3183 C3184 1.383 . S
C3183 H3191 0.929 . S
C3184 C3183 1.383 . S
C3184 C3185 1.377 . S
C3185 H3169 0.930 . S
C3185 C3184 1.377 . S
C3185 C3186 1.379 . S
C3186 H3170 0.931 . S
C3186 C3180 1.383 . S
C3186 C3185 1.379 . S
H3187 C3181 0.959 . S
H3188 C3181 0.961 . S
H3189 C3181 0.960 . S
H3190 C3182 0.930 . S
H3191 C3183 0.929 . S
H3192 C3200 0.929 . S
H3193 C3202 0.930 . S
H3194 C3204 0.930 . S
H3195 C3207 0.929 . S
H3196 C3210 0.930 . S
H3197 C3212 0.960 . S
H3198 C3212 0.960 . S
H3199 C3212 0.960 . S
C3200 H3192 0.929 . S
C3200 C3201 1.377 . S
C3200 C3202 1.384 . S
C3201 C3200 1.377 . S
C3201 C3207 1.390 . S
C3202 H3193 0.930 . S
C3202 C3200 1.384 . S
C3202 C3203 1.372 . S
C3203 C3202 1.372 . S
C3203 C3204 1.400 . S
C3203 C3208 1.490 . S
C3204 H3194 0.930 . S
C3204 C3203 1.400 . S
C3204 C3207 1.386 . S
H3205 C3221 0.930 . S
H3206 C3222 0.931 . S
C3207 H3195 0.929 . S
C3207 C3201 1.390 . S
C3207 C3204 1.386 . S
C3208 C3203 1.490 . S
C3208 C3210 1.395 . S
C3208 C3211 1.403 . S
H3209 C3215 0.930 . S
C3210 H3196 0.930 . S
C3210 C3208 1.395 . S
C3210 C3213 1.403 . S
C3211 C3208 1.403 . S
C3211 C3212 1.524 . S
C3211 C3215 1.400 . S
C3212 H3197 0.960 . S
C3212 H3198 0.960 . S
C3212 H3199 0.960 . S
C3212 C3211 1.524 . S
C3213 C3210 1.403 . S
C3213 C3214 1.392 . S
C3213 C3217 1.495 . S
C3214 C3213 1.392 . S
C3214 C3215 1.385 . S
C3214 C3216 1.478 . S
C3215 H3209 0.930 . S
C3215 C3211 1.400 . S
C3215 C3214 1.385 . S
C3216 C3214 1.478 . S
C3216 C3218 1.381 . S
C3216 C3222 1.383 . S
C3217 C3213 1.495 . S
C3217 H3223 0.959 . S
C3217 H3224 0.961 . S
C3217 H3225 0.960 . S
C3218 C3216 1.381 . S
C3218 C3219 1.394 . S
C3218 H3226 0.930 . S
C3219 C3218 1.394 . S
C3219 C3220 1.383 . S
C3219 H3227 0.929 . S
C3220 C3219 1.383 . S
C3220 C3221 1.377 . S
C3221 H3205 0.930 . S
C3221 C3220 1.377 . S
C3221 C3222 1.379 . S
C3222 H3206 0.931 . S
C3222 C3216 1.383 . S
C3222 C3221 1.379 . S
H3223 C3217 0.959 . S
H3224 C3217 0.961 . S
H3225 C3217 0.960 . S
H3226 C3218 0.930 . S
H3227 C3219 0.929 . S
H3228 C3236 0.929 . S
H3229 C3238 0.930 . S
H3230 C3240 0.930 . S
H3231 C3243 0.929 . S
H3232 C3246 0.930 . S
H3233 C3248 0.960 . S
H3234 C3248 0.960 . S
H3235 C3248 0.960 . S
C3236 H3228 0.929 . S
C3236 C3237 1.377 . S
C3236 C3238 1.384 . S
C3237 C3236 1.377 . S
C3237 C3243 1.390 . S
C3238 H3229 0.930 . S
C3238 C3236 1.384 . S
C3238 C3239 1.372 . S
C3239 C3238 1.372 . S
C3239 C3240 1.400 . S
C3239 C3244 1.490 . S
C3240 H3230 0.930 . S
C3240 C3239 1.400 . S
C3240 C3243 1.386 . S
H3241 C3257 0.930 . S
H3242 C3258 0.931 . S
C3243 H3231 0.929 . S
C3243 C3237 1.390 . S
C3243 C3240 1.386 . S
C3244 C3239 1.490 . S
C3244 C3246 1.395 . S
C3244 C3247 1.403 . S
H3245 C3251 0.930 . S
C3246 H3232 0.930 . S
C3246 C3244 1.395 . S
C3246 C3249 1.403 . S
C3247 C3244 1.403 . S
C3247 C3248 1.524 . S
C3247 C3251 1.400 . S
C3248 H3233 0.960 . S
C3248 H3234 0.960 . S
C3248 H3235 0.960 . S
C3248 C3247 1.524 . S
C3249 C3246 1.403 . S
C3249 C3250 1.392 . S
C3249 C3253 1.495 . S
C3250 C3249 1.392 . S
C3250 C3251 1.385 . S
C3250 C3252 1.478 . S
C3251 H3245 0.930 . S
C3251 C3247 1.400 . S
C3251 C3250 1.385 . S
C3252 C3250 1.478 . S
C3252 C3254 1.381 . S
C3252 C3258 1.383 . S
C3253 C3249 1.495 . S
C3253 H3259 0.959 . S
C3253 H3260 0.961 . S
C3253 H3261 0.960 . S
C3254 C3252 1.381 . S
C3254 C3255 1.394 . S
C3254 H3262 0.930 . S
C3255 C3254 1.394 . S
C3255 C3256 1.383 . S
C3255 H3263 0.929 . S
C3256 C3255 1.383 . S
C3256 C3257 1.377 . S
C3257 H3241 0.930 . S
C3257 C3256 1.377 . S
C3257 C3258 1.379 . S
C3258 H3242 0.931 . S
C3258 C3252 1.383 . S
C3258 C3257 1.379 . S
H3259 C3253 0.959 . S
H3260 C3253 0.961 . S
H3261 C3253 0.960 . S
H3262 C3254 0.930 . S
H3263 C3255 0.929 . S
H3264 C3272 0.929 . S
H3265 C3274 0.925 1_554 S
H3266 C3276 0.930 . S
H3267 C3279 0.929 . S
H3268 C3282 0.930 1_554 S
H3269 C3284 0.960 . S
H3270 C3284 0.960 . S
H3271 C3284 0.960 . S
C3272 H3264 0.929 . S
C3272 C3273 1.377 . S
C3272 C3274 1.384 . S
C3273 C3272 1.377 . S
C3273 C3279 1.390 . S
C3274 H3265 0.925 1_556 S
C3274 C3272 1.384 . S
C3274 C3275 1.372 . S
C3275 C3274 1.372 . S
C3275 C3276 1.400 . S
C3275 C3280 1.490 . S
C3276 H3266 0.930 . S
C3276 C3275 1.400 . S
C3276 C3279 1.386 . S
H3277 C3293 0.930 . S
H3278 C3294 0.931 . S
C3279 H3267 0.929 . S
C3279 C3273 1.390 . S
C3279 C3276 1.386 . S
C3280 C3275 1.490 . S
C3280 C3282 1.395 . S
C3280 C3283 1.403 . S
H3281 C3287 0.930 . S
C3282 H3268 0.930 1_556 S
C3282 C3280 1.395 . S
C3282 C3285 1.407 . S
C3283 C3280 1.403 . S
C3283 C3284 1.524 . S
C3283 C3287 1.400 . S
C3284 H3269 0.960 . S
C3284 H3270 0.960 . S
C3284 H3271 0.960 . S
C3284 C3283 1.524 . S
C3285 C3282 1.407 . S
C3285 C3286 1.405 . S
C3285 C3289 1.480 1_556 S
C3286 C3285 1.405 . S
C3286 C3287 1.385 . S
C3286 C3288 1.478 . S
C3287 H3281 0.930 . S
C3287 C3283 1.400 . S
C3287 C3286 1.385 . S
C3288 C3286 1.478 . S
C3288 C3290 1.381 1_556 S
C3288 C3294 1.383 . S
C3289 C3285 1.480 1_554 S
C3289 H3295 0.959 . S
C3289 H3296 0.961 . S
C3289 H3297 0.960 . S
C3290 C3288 1.381 1_554 S
C3290 C3291 1.394 . S
C3290 H3298 0.930 . S
C3291 C3290 1.394 . S
C3291 C3292 1.383 1_554 S
C3291 H3299 0.929 . S
C3292 C3291 1.383 1_556 S
C3292 C3293 1.377 . S
C3293 H3277 0.930 . S
C3293 C3292 1.377 . S
C3293 C3294 1.379 . S
C3294 H3278 0.931 . S
C3294 C3288 1.383 . S
C3294 C3293 1.379 . S
H3295 C3289 0.959 . S
H3296 C3289 0.961 . S
H3297 C3289 0.960 . S
H3298 C3290 0.930 . S
H3299 C3291 0.929 . S
H3300 C3308 0.929 . S
H3301 C3310 0.930 . S
H3302 C3312 0.930 . S
H3303 C3315 0.929 . S
H3304 C3318 0.930 . S
H3305 C3320 0.960 . S
H3306 C3320 0.960 . S
H3307 C3320 0.960 . S
C3308 H3300 0.929 . S
C3308 C3309 1.377 . S
C3308 C3310 1.384 . S
C3309 C3308 1.377 . S
C3309 C3315 1.390 . S
C3310 H3301 0.930 . S
C3310 C3308 1.384 . S
C3310 C3311 1.372 . S
C3311 C3310 1.372 . S
C3311 C3312 1.400 . S
C3311 C3316 1.490 . S
C3312 H3302 0.930 . S
C3312 C3311 1.400 . S
C3312 C3315 1.386 . S
H3313 C3329 0.930 . S
H3314 C3330 0.931 . S
C3315 H3303 0.929 . S
C3315 C3309 1.390 . S
C3315 C3312 1.386 . S
C3316 C3311 1.490 . S
C3316 C3318 1.395 . S
C3316 C3319 1.403 . S
H3317 C3323 0.930 . S
C3318 H3304 0.930 . S
C3318 C3316 1.395 . S
C3318 C3321 1.403 . S
C3319 C3316 1.403 . S
C3319 C3320 1.524 . S
C3319 C3323 1.400 . S
C3320 H3305 0.960 . S
C3320 H3306 0.960 . S
C3320 H3307 0.960 . S
C3320 C3319 1.524 . S
C3321 C3318 1.403 . S
C3321 C3322 1.392 . S
C3321 C3325 1.495 . S
C3322 C3321 1.392 . S
C3322 C3323 1.385 . S
C3322 C3324 1.478 . S
C3323 H3317 0.930 . S
C3323 C3319 1.400 . S
C3323 C3322 1.385 . S
C3324 C3322 1.478 . S
C3324 C3326 1.381 . S
C3324 C3330 1.383 . S
C3325 C3321 1.495 . S
C3325 H3331 0.959 . S
C3325 H3332 0.961 . S
C3325 H3333 0.960 . S
C3326 C3324 1.381 . S
C3326 C3327 1.394 . S
C3326 H3334 0.930 . S
C3327 C3326 1.394 . S
C3327 C3328 1.383 . S
C3327 H3335 0.929 . S
C3328 C3327 1.383 . S
C3328 C3329 1.377 . S
C3329 H3313 0.930 . S
C3329 C3328 1.377 . S
C3329 C3330 1.379 . S
C3330 H3314 0.931 . S
C3330 C3324 1.383 . S
C3330 C3329 1.379 . S
H3331 C3325 0.959 . S
H3332 C3325 0.961 . S
H3333 C3325 0.960 . S
H3334 C3326 0.930 . S
H3335 C3327 0.929 . S
H3336 C3344 0.929 . S
H3337 C3346 0.930 . S
H3338 C3348 0.930 . S
H3339 C3351 0.929 . S
H3340 C3354 0.877 1_556 S
H3341 C3356 0.960 . S
H3342 C3356 0.960 . S
H3343 C3356 0.960 . S
C3344 H3336 0.929 . S
C3344 C3345 1.377 . S
C3344 C3346 1.384 . S
C3345 C3344 1.377 . S
C3345 C3351 1.390 . S
C3346 H3337 0.930 . S
C3346 C3344 1.384 . S
C3346 C3347 1.372 . S
C3347 C3346 1.372 . S
C3347 C3348 1.400 . S
C3347 C3352 1.490 . S
C3348 H3338 0.930 . S
C3348 C3347 1.400 . S
C3348 C3351 1.386 . S
H3349 C3365 0.930 . S
H3350 C3366 0.931 . S
C3351 H3339 0.929 . S
C3351 C3345 1.390 . S
C3351 C3348 1.386 . S
C3352 C3347 1.490 . S
C3352 C3354 1.395 . S
C3352 C3355 1.403 . S
H3353 C3359 0.930 . S
C3354 H3340 0.877 1_554 S
C3354 C3352 1.395 . S
C3354 C3357 1.403 . S
C3355 C3352 1.403 . S
C3355 C3356 1.524 . S
C3355 C3359 1.400 . S
C3356 H3341 0.960 . S
C3356 H3342 0.960 . S
C3356 H3343 0.960 . S
C3356 C3355 1.524 . S
C3357 C3354 1.403 . S
C3357 C3358 1.392 . S
C3357 C3361 1.495 1_554 S
C3358 C3357 1.392 . S
C3358 C3359 1.385 . S
C3358 C3360 1.478 . S
C3359 H3353 0.930 . S
C3359 C3355 1.400 . S
C3359 C3358 1.385 . S
C3360 C3358 1.478 . S
C3360 C3362 1.381 . S
C3360 C3366 1.383 . S
C3361 C3357 1.495 1_556 S
C3361 H3367 0.959 . S
C3361 H3368 0.961 . S
C3361 H3369 0.960 . S
C3362 C3360 1.381 . S
C3362 C3363 1.394 . S
C3362 H3370 0.930 . S
C3363 C3362 1.394 . S
C3363 C3364 1.383 . S
C3363 H3371 0.929 . S
C3364 C3363 1.383 . S
C3364 C3365 1.377 . S
C3365 H3349 0.930 . S
C3365 C3364 1.377 . S
C3365 C3366 1.379 . S
C3366 H3350 0.931 . S
C3366 C3360 1.383 . S
C3366 C3365 1.379 . S
H3367 C3361 0.959 . S
H3368 C3361 0.961 . S
H3369 C3361 0.960 . S
H3370 C3362 0.930 . S
H3371 C3363 0.929 . S
H3372 C3380 0.929 . S
H3373 C3382 0.930 . S
H3374 C3384 0.930 . S
H3375 C3387 0.929 . S
H3376 C3390 0.930 . S
H3377 C3392 0.960 . S
H3378 C3392 0.960 . S
H3379 C3392 0.960 . S
C3380 H3372 0.929 . S
C3380 C3381 1.377 . S
C3380 C3382 1.384 . S
C3381 C3380 1.377 . S
C3381 C3387 1.390 . S
C3382 H3373 0.930 . S
C3382 C3380 1.384 . S
C3382 C3383 1.372 . S
C3383 C3382 1.372 . S
C3383 C3384 1.400 . S
C3383 C3388 1.490 . S
C3384 H3374 0.930 . S
C3384 C3383 1.400 . S
C3384 C3387 1.386 . S
H3385 C3401 0.880 1_556 S
H3386 C3402 0.931 . S
C3387 H3375 0.929 . S
C3387 C3381 1.390 . S
C3387 C3384 1.386 . S
C3388 C3383 1.490 . S
C3388 C3390 1.395 . S
C3388 C3391 1.403 . S
H3389 C3395 0.930 1_556 S
C3390 H3376 0.930 . S
C3390 C3388 1.395 . S
C3390 C3393 1.403 . S
C3391 C3388 1.403 . S
C3391 C3392 1.524 1_554 S
C3391 C3395 1.400 . S
C3392 H3377 0.960 . S
C3392 H3378 0.960 . S
C3392 H3379 0.960 . S
C3392 C3391 1.524 1_556 S
C3393 C3390 1.403 . S
C3393 C3394 1.392 . S
C3393 C3397 1.495 . S
C3394 C3393 1.392 . S
C3394 C3395 1.385 . S
C3394 C3396 1.478 . S
C3395 H3389 0.930 1_554 S
C3395 C3391 1.400 . S
C3395 C3394 1.385 . S
C3396 C3394 1.478 . S
C3396 C3398 1.381 . S
C3396 C3402 1.383 . S
C3397 C3393 1.495 . S
C3397 H3403 0.959 . S
C3397 H3404 0.961 . S
C3397 H3405 0.960 . S
C3398 C3396 1.381 . S
C3398 C3399 1.394 . S
C3398 H3406 0.930 . S
C3399 C3398 1.394 . S
C3399 C3400 1.383 . S
C3399 H3407 0.929 . S
C3400 C3399 1.383 . S
C3400 C3401 1.377 . S
C3401 H3385 0.880 1_554 S
C3401 C3400 1.377 . S
C3401 C3402 1.379 . S
C3402 H3386 0.931 . S
C3402 C3396 1.383 . S
C3402 C3401 1.379 . S
H3403 C3397 0.959 . S
H3404 C3397 0.961 . S
H3405 C3397 0.960 . S
H3406 C3398 0.930 . S
H3407 C3399 0.929 . S
C1708 C673 1.500 . S
C1689 C211 1.503 . S
C1744 C732 1.515 . S
C1725 C255 1.514 . S
C1761 C274 1.509 . S
C1780 C849 1.505 . S
C1816 C917 1.525 . S
C1797 C157 1.525 . S
C1852 C996 1.519 . S
C1833 C391 1.518 . S
C1888 C1121 1.520 . S
C1869 C484 1.520 . S
C1905 C450 1.504 . S
C1924 C1181 1.498 . S
C1960 C1289 1.520 . S
C1941 C352 1.523 . S
C1977 C430 1.505 . S
C1996 C1385 1.499 . S
C2032 C1445 1.528 . S
C2013 C367 1.532 . S
C2049 C411 1.528 . S
C2068 C1348 1.526 . S
C2104 C1465 1.518 . S
C2085 C469 1.519 . S
C2121 C294 1.502 . S
C2140 C1533 1.505 . S
C2157 C177 1.525 . S
C2176 C1524 1.522 . S
C2193 C196 1.509 . S
C2212 C1553 1.507 . S
C2229 C235 1.515 . S
C2248 C1561 1.512 . S
C2265 C133 1.510 . S
C2284 C945 1.509 . S
C2301 C567 1.503 . S
C2320 C908 1.504 . S
C2356 C644 1.511 . S
C2337 C601 1.516 . S
C2392 C741 1.504 . S
C2373 C328 1.510 . S
C2409 C172 1.520 . S
C2428 C1005 1.520 . S
C2464 C1297 1.503 . S
C2445 C445 1.508 . S
C2500 C1025 1.537 . S
C2481 C372 1.538 . S
C2536 C1209 1.503 . S
C2517 C489 1.508 . S
C2572 C1201 1.496 . S
C2553 C562 1.501 . S
C2589 C606 1.513 . S
C2608 C1269 1.514 . S
C2625 C313 1.508 . S
C2644 C1033 1.504 . S
C2680 C1084 1.519 . S
C2661 C508 1.524 . S
C2697 C118 1.518 . S
C2716 C829 1.518 . S
C2752 C937 1.517 . S
C2733 C16 1.519 . S
C2788 C653 1.499 . S
C2769 C60 1.504 . S
C2824 C769 1.520 . S
C2805 C79 1.522 . S
C2841 C40 1.504 . S
C2860 C1473 1.501 . S
C2877 C94 1.534 . S
C2896 C1357 1.533 . S
C2913 C138 1.529 . S
C2932 C1436 1.531 . S
C2949 C1 1.518 . S
C2968 C1377 1.517 . S
C3004 C1621 1.505 . S
C2985 C333 1.503 . S
C3040 C1612 1.525 . S
C3021 C528 1.526 . S
C3076 C1641 1.509 . S
C3057 C547 1.507 . S
C3093 C586 1.517 . S
C3112 C1649 1.517 . S
C3129 C406 1.510 . S
C3148 C1113 1.505 . S
C3184 C1093 1.503 . S
C3165 C216 1.503 . S
C3220 C1172 1.511 . S
C3201 C250 1.516 . S
C3256 C1260 1.504 . S
C3237 C289 1.510 . S
C3273 C523 1.520 . S
C3292 C820 1.519 . S
C3328 C761 1.505 . S
C3309 C55 1.509 . S
C3345 C99 1.540 . S
C3364 C857 1.539 . S
C3400 C681 1.504 . S
C3381 C21 1.508 . S
