# Generated by pormake.
# Topology apo, (3,6)-cn, num edge types: 1
# Building blocks:
#     Node 0, Type 0, BuildingBlock: BETDIP_clean_linker_0, # of connection points: 3
#     Node 1, Type 0, BuildingBlock: BETDIP_clean_linker_0, # of connection points: 3
#     Node 2, Type 0, BuildingBlock: BETDIP_clean_linker_0, # of connection points: 3
#     Node 3, Type 0, BuildingBlock: BETDIP_clean_linker_0, # of connection points: 3
#     Node 4, Type 0, BuildingBlock: BETDIP_clean_linker_0, # of connection points: 3
#     Node 5, Type 0, BuildingBlock: BETDIP_clean_linker_0, # of connection points: 3
#     Node 6, Type 0, BuildingBlock: BETDIP_clean_linker_0, # of connection points: 3
#     Node 7, Type 0, BuildingBlock: BETDIP_clean_linker_0, # of connection points: 3
#     Node 8, Type 1, BuildingBlock: KUMBUR_clean_sbu_1, # of connection points: 6
#     Node 9, Type 1, BuildingBlock: KUMBUR_clean_sbu_1, # of connection points: 6
#     Node 10, Type 1, BuildingBlock: KUMBUR_clean_sbu_1, # of connection points: 6
#     Node 11, Type 1, BuildingBlock: KUMBUR_clean_sbu_1, # of connection points: 6
#     Edge 12, Type (0, 1), BuildingBlock: AJUNOK_clean_linker_0, # of connection points: 2
#     Edge 13, Type (0, 1), BuildingBlock: AJUNOK_clean_linker_0, # of connection points: 2
#     Edge 14, Type (0, 1), BuildingBlock: AJUNOK_clean_linker_0, # of connection points: 2
#     Edge 15, Type (0, 1), BuildingBlock: AJUNOK_clean_linker_0, # of connection points: 2
#     Edge 16, Type (0, 1), BuildingBlock: AJUNOK_clean_linker_0, # of connection points: 2
#     Edge 17, Type (0, 1), BuildingBlock: AJUNOK_clean_linker_0, # of connection points: 2
#     Edge 18, Type (0, 1), BuildingBlock: AJUNOK_clean_linker_0, # of connection points: 2
#     Edge 19, Type (0, 1), BuildingBlock: AJUNOK_clean_linker_0, # of connection points: 2
#     Edge 20, Type (0, 1), BuildingBlock: AJUNOK_clean_linker_0, # of connection points: 2
#     Edge 21, Type (0, 1), BuildingBlock: AJUNOK_clean_linker_0, # of connection points: 2
#     Edge 22, Type (0, 1), BuildingBlock: AJUNOK_clean_linker_0, # of connection points: 2
#     Edge 23, Type (0, 1), BuildingBlock: AJUNOK_clean_linker_0, # of connection points: 2
#     Edge 24, Type (0, 1), BuildingBlock: AJUNOK_clean_linker_0, # of connection points: 2
#     Edge 25, Type (0, 1), BuildingBlock: AJUNOK_clean_linker_0, # of connection points: 2
#     Edge 26, Type (0, 1), BuildingBlock: AJUNOK_clean_linker_0, # of connection points: 2
#     Edge 27, Type (0, 1), BuildingBlock: AJUNOK_clean_linker_0, # of connection points: 2
#     Edge 28, Type (0, 1), BuildingBlock: AJUNOK_clean_linker_0, # of connection points: 2
#     Edge 29, Type (0, 1), BuildingBlock: AJUNOK_clean_linker_0, # of connection points: 2
#     Edge 30, Type (0, 1), BuildingBlock: AJUNOK_clean_linker_0, # of connection points: 2
#     Edge 31, Type (0, 1), BuildingBlock: AJUNOK_clean_linker_0, # of connection points: 2
#     Edge 32, Type (0, 1), BuildingBlock: AJUNOK_clean_linker_0, # of connection points: 2
#     Edge 33, Type (0, 1), BuildingBlock: AJUNOK_clean_linker_0, # of connection points: 2
#     Edge 34, Type (0, 1), BuildingBlock: AJUNOK_clean_linker_0, # of connection points: 2
#     Edge 35, Type (0, 1), BuildingBlock: AJUNOK_clean_linker_0, # of connection points: 2
# Relax obj value: 0.037
# Max RMSD: 0.217
# Mean RMSD: 0.168
data_MOF--net-apo--node1-KUMBUR_clean_sbu_1--node2-BETDIP_clean_linker_0--edge1-AJUNOK_clean_linker_0
_symmetry_space_group_name_H-M    P1
_symmetry_Int_Tables_number       1
_symmetry_cell_setting            triclinic
loop_
_symmetry_equiv_pos_as_xyz
'x, y, z'
_cell_length_a     20.679993
_cell_length_b     30.350738
_cell_length_c     39.332698
_cell_angle_alpha  90.010407
_cell_angle_beta   89.792304
_cell_angle_gamma 91.242996
loop_
_atom_site_label
_atom_site_type_symbol
_atom_site_fract_x
_atom_site_fract_y
_atom_site_fract_z
_atom_type_partial_charge
H0 H 0.28592 0.33137 0.45606 0.0
H1 H 0.28839 0.37919 0.35297 0.0
H2 H 0.38164 0.45477 0.4316 0.0
H3 H 0.1844 0.3455 0.35636 0.0
C4 C 0.19921 0.31399 0.36654 0.0
C5 C 0.29991 0.35646 0.4377 0.0
C6 C 0.33558 0.39408 0.44813 0.0
C7 C 0.28148 0.35128 0.40357 0.0
C8 C 0.30108 0.38327 0.37949 0.0
C9 C 0.33769 0.42046 0.38951 0.0
C10 C 0.35396 0.42576 0.42381 0.0
N11 N 0.244 0.31351 0.39387 0.0
H12 H 0.24168 0.1756 0.96377 0.0
H13 H 0.20646 0.13188 0.86116 0.0
H14 H 0.13182 0.05569 0.94484 0.0
H15 H 0.30978 0.16189 0.85558 0.0
C16 C 0.30499 0.19316 0.86868 0.0
C17 C 0.2203 0.15194 0.94624 0.0
C18 C 0.18459 0.11532 0.9588 0.0
C19 C 0.22999 0.15773 0.91115 0.0
C20 C 0.20165 0.12719 0.88835 0.0
C21 C 0.16622 0.09055 0.90054 0.0
C22 C 0.1582 0.08459 0.93563 0.0
N23 N 0.26843 0.19427 0.89939 0.0
H24 H 0.74147 0.18485 0.59719 0.0
H25 H 0.75408 0.12036 0.69412 0.0
H26 H 0.871 0.07721 0.61072 0.0
H27 H 0.66971 0.15683 0.70776 0.0
C28 C 0.66922 0.18665 0.69263 0.0
C29 C 0.76126 0.15928 0.61307 0.0
C30 C 0.80725 0.13063 0.5997 0.0
C31 C 0.74162 0.15612 0.64703 0.0
C32 C 0.76852 0.12362 0.66785 0.0
C33 C 0.81544 0.09514 0.65509 0.0
C34 C 0.83454 0.09879 0.62085 0.0
N35 N 0.69787 0.18777 0.65975 0.0
H36 H 0.75997 0.32784 0.09159 0.0
H37 H 0.70036 0.36776 0.19084 0.0
H38 H 0.66685 0.45196 0.10477 0.0
H39 H 0.80325 0.34523 0.20225 0.0
C40 C 0.80363 0.31385 0.18897 0.0
C41 C 0.73719 0.35181 0.10791 0.0
C42 C 0.71048 0.38979 0.09387 0.0
C43 C 0.7376 0.3455 0.14303 0.0
C44 C 0.7063 0.37564 0.16421 0.0
C45 C 0.68264 0.41527 0.15128 0.0
C46 C 0.68512 0.42199 0.1157 0.0
N47 N 0.77279 0.3101 0.15686 0.0
H48 H 0.74173 0.67406 0.58648 0.0
H49 H 0.71424 0.6294 0.68924 0.0
H50 H 0.63898 0.55143 0.60648 0.0
H51 H 0.8273 0.6624 0.68857 0.0
C52 C 0.81184 0.69369 0.67828 0.0
C53 C 0.72332 0.64929 0.60405 0.0
C54 C 0.69076 0.61129 0.59169 0.0
C55 C 0.73379 0.65536 0.63897 0.0
C56 C 0.7083 0.62423 0.66216 0.0
C57 C 0.67315 0.58712 0.65053 0.0
C58 C 0.66503 0.58057 0.61535 0.0
N59 N 0.7687 0.6936 0.65018 0.0
H60 H 0.79051 0.82907 0.09088 0.0
H61 H 0.78992 0.88313 0.19222 0.0
H62 H 0.88605 0.95359 0.11153 0.0
H63 H 0.68671 0.8507 0.18956 0.0
C64 C 0.69995 0.81829 0.1805 0.0
C65 C 0.80439 0.85499 0.10852 0.0
C66 C 0.84152 0.89154 0.09712 0.0
C67 C 0.78445 0.85205 0.14268 0.0
C68 C 0.80325 0.88556 0.16562 0.0
C69 C 0.83943 0.92237 0.1544 0.0
C70 C 0.85807 0.92512 0.12021 0.0
N71 N 0.74579 0.81527 0.15358 0.0
H72 H 0.25031 0.8242 0.45394 0.0
H73 H 0.21524 0.8783 0.35522 0.0
H74 H 0.16148 0.94996 0.44501 0.0
H75 H 0.30398 0.84337 0.34081 0.0
C76 C 0.30399 0.81354 0.35603 0.0
C77 C 0.23354 0.8511 0.4384 0.0
C78 C 0.20145 0.8864 0.45344 0.0
C79 C 0.24246 0.84945 0.40316 0.0
C80 C 0.21489 0.88196 0.38254 0.0
C81 C 0.18377 0.91812 0.39711 0.0
C82 C 0.18138 0.92125 0.43286 0.0
N83 N 0.27644 0.8135 0.38915 0.0
H84 H 0.25954 0.69012 0.94772 0.0
H85 H 0.25962 0.62637 0.85003 0.0
H86 H 0.37359 0.57514 0.93145 0.0
H87 H 0.17015 0.66224 0.84199 0.0
C88 C 0.17318 0.69256 0.85657 0.0
C89 C 0.27549 0.66373 0.93132 0.0
C90 C 0.31846 0.63249 0.94369 0.0
C91 C 0.25327 0.66172 0.89785 0.0
C92 C 0.27505 0.62811 0.87622 0.0
C93 C 0.31748 0.59625 0.8883 0.0
C94 C 0.33976 0.59901 0.92203 0.0
N95 N 0.21067 0.69481 0.88669 0.0
Tb96 Tb 0.07268 0.11262 0.24365 0.0
C97 C 0.79476 0.08603 0.27296 0.0
N98 N 0.8303 0.12112 0.28425 0.0
C99 C 0.75061 0.16994 0.26232 0.0
C100 C 0.73805 0.0915 0.25378 0.0
C101 C 0.80587 0.16246 0.28174 0.0
C102 C 0.71749 0.13432 0.24744 0.0
C103 C 0.77393 1.00729 0.2751 0.0
C104 C 0.8119 0.04475 0.28364 0.0
C105 C 0.72003 0.01204 0.25388 0.0
C106 C 0.70208 0.05414 0.24322 0.0
Tb107 Tb 0.92469 0.10541 0.31208 0.0
N108 N 0.86483 0.04165 0.30367 0.0
C109 C 0.79039 0.96655 0.28891 0.0
C110 C 0.87845 1.00255 0.3191 0.0
C111 C 0.8422 0.96434 0.31152 0.0
H112 H 0.82896 0.1898 0.29476 0.0
H113 H 0.85456 0.93319 0.3229 0.0
H114 H 0.19771 0.05576 0.26567 0.0
H115 H 0.06205 0.28364 0.2025 0.0
H116 H 0.91912 1.00052 0.33588 0.0
H117 H 0.76252 0.93692 0.28297 0.0
H118 H 0.02988 0.20538 0.20156 0.0
H119 H 0.73309 0.20305 0.25931 0.0
H120 H 0.69073 0.9836 0.24654 0.0
H121 H 0.65893 0.05758 0.22799 0.0
H122 H 0.30793 0.06976 0.28823 0.0
H123 H 0.67419 0.14005 0.2328 0.0
H124 H 0.16101 0.30786 0.23304 0.0
N125 N 0.17601 0.1233 0.26181 0.0
C126 C 0.19918 0.1653 0.26285 0.0
C127 C 0.2775 0.09704 0.2817 0.0
C128 C 0.26167 0.17528 0.27513 0.0
C129 C 0.21481 0.08909 0.26954 0.0
C130 C 0.30074 0.14043 0.28503 0.0
N131 N 0.10289 0.1857 0.23626 0.0
C132 C 0.07014 0.21552 0.2172 0.0
C133 C 0.18326 0.24202 0.24982 0.0
C134 C 0.1606 0.19789 0.25026 0.0
C135 C 0.14556 0.27353 0.23386 0.0
C136 C 0.08956 0.26 0.21673 0.0
H137 H 0.34925 0.1466 0.29446 0.0
H138 H 0.33071 0.22797 0.28637 0.0
H139 H 0.26177 0.28664 0.26434 0.0
O140 O 0.11395 0.12057 0.19465 0.0
O141 O 0.08999 0.132 0.29668 0.0
O142 O 0.9938 0.16173 0.31395 0.0
O143 O 0.10048 0.05536 0.21742 0.0
O144 O 0.98115 0.14572 0.23167 0.0
O145 O 0.94067 0.16693 0.28383 0.0
O146 O 0.93609 0.09185 0.36392 0.0
O147 O 0.94568 0.05279 0.27576 0.0
O148 O 0.97565 0.0915 0.22887 0.0
O149 O 0.85457 0.12737 0.34698 0.0
O150 O 0.01317 0.07306 0.32727 0.0
O151 O 0.07423 0.05484 0.27914 0.0
C152 C 0.05767 0.16141 0.31383 0.0
C153 C 0.14757 0.05785 0.16036 0.0
C154 C 0.17328 0.05924 0.0996 0.0
C155 C 0.20006 0.01735 0.1026 0.0
C156 C 0.17401 0.01573 0.16259 0.0
C157 C 0.20018 0.99573 0.13387 0.0
C158 C 0.14698 0.07956 0.1286 0.0
C159 C 0.94631 0.17213 0.25075 0.0
C160 C 0.11981 0.07824 0.19111 0.0
C161 C 0.28325 0.21943 0.27648 0.0
C162 C 0.24391 0.25282 0.264 0.0
C163 C 0.94627 0.05763 0.2428 0.0
C164 C 0.89745 0.14544 0.40069 0.0
C165 C 0.89152 0.16334 0.46094 0.0
C166 C 0.92629 0.2028 0.45463 0.0
C167 C 0.93129 0.18527 0.39464 0.0
C168 C 0.87756 0.13464 0.4338 0.0
C169 C 0.94576 0.21374 0.42158 0.0
C170 C 0.05598 0.04864 0.31146 0.0
C171 C 0.886 0.11362 0.37321 0.0
H172 H 0.22032 1.00118 0.08055 0.0
H173 H 0.17478 0.9983 0.18661 0.0
H174 H 0.22059 0.96329 0.13586 0.0
H175 H 0.12607 0.11187 0.12637 0.0
H176 H 0.93758 0.2254 0.47519 0.0
H177 H 0.94693 0.19418 0.36924 0.0
H178 H 0.85216 0.10358 0.43852 0.0
H179 H 0.9722 0.2443 0.41684 0.0
Tb180 Tb 0.42771 0.3988 0.73919 0.0
C181 C 0.68169 0.46891 0.79516 0.0
N182 N 0.66054 0.42633 0.7928 0.0
C183 C 0.76161 0.40605 0.76789 0.0
C184 C 0.74314 0.48207 0.78284 0.0
C185 C 0.69992 0.39465 0.78017 0.0
C186 C 0.78317 0.44999 0.76901 0.0
C187 C 0.66017 0.54398 0.81188 0.0
C188 C 0.64046 0.49936 0.80927 0.0
C189 C 0.72099 0.55756 0.7991 0.0
C190 C 0.76241 0.52666 0.78467 0.0
Tb191 Tb 0.56009 0.41112 0.81438 0.0
N192 N 0.58189 0.48495 0.82127 0.0
C193 C 0.61882 0.57337 0.82796 0.0
C194 C 0.54421 0.51278 0.83959 0.0
C195 C 0.56108 0.55752 0.8424 0.0
H196 H 0.68422 0.36052 0.77986 0.0
H197 H 0.53022 0.57954 0.85637 0.0
H198 H 0.32221 0.47967 0.75352 0.0
H199 H 0.376 0.22771 0.71256 0.0
H200 H 0.50242 0.50052 0.85326 0.0
H201 H 0.6321 0.60794 0.83048 0.0
H202 H 0.43961 0.29797 0.71008 0.0
H203 H 0.79258 0.38092 0.75771 0.0
H204 H 0.73682 0.59176 0.80071 0.0
H205 H 0.80936 0.53753 0.77519 0.0
H206 H 0.21416 0.48608 0.77933 0.0
H207 H 0.83089 0.45872 0.75937 0.0
H208 H 0.27144 0.2245 0.74352 0.0
N209 N 0.32427 0.40971 0.75874 0.0
C210 C 0.28816 0.37262 0.76478 0.0
C211 C 0.23479 0.45391 0.77589 0.0
C212 C 0.22508 0.37457 0.77828 0.0
C213 C 0.29664 0.45011 0.76178 0.0
C214 C 0.19936 0.41597 0.78491 0.0
N215 N 0.37188 0.33314 0.73974 0.0
C216 C 0.39363 0.29663 0.72327 0.0
C217 C 0.27476 0.29381 0.75673 0.0
C218 C 0.31235 0.33289 0.75425 0.0
C219 C 0.29888 0.25528 0.74227 0.0
C220 C 0.35785 0.25698 0.72471 0.0
H221 H 0.1511 0.41897 0.79535 0.0
H222 H 0.14048 0.33608 0.79385 0.0
H223 H 0.1841 0.2652 0.77489 0.0
O224 O 0.46069 0.39038 0.68913 0.0
O225 O 0.4379 0.34521 0.77578 0.0
O226 O 0.46748 0.37682 0.82666 0.0
O227 O 0.36586 0.41468 0.69873 0.0
O228 O 0.52279 0.3679 0.73212 0.0
O229 O 0.56383 0.35001 0.7854 0.0
O230 O 0.5787 0.42435 0.86577 0.0
O231 O 0.57963 0.43463 0.76176 0.0
O232 O 0.48332 0.46057 0.74287 0.0
O233 O 0.61358 0.36532 0.84267 0.0
O234 O 0.46237 0.43397 0.82412 0.0
O235 O 0.42726 0.45791 0.77191 0.0
C236 C 0.43701 0.34595 0.80905 0.0
C237 C 0.41546 0.43411 0.64661 0.0
C238 C 0.40652 0.44557 0.58556 0.0
C239 C 0.4355 0.48763 0.58941 0.0
C240 C 0.4435 0.47626 0.65022 0.0
C241 C 0.45356 0.50291 0.62164 0.0
C242 C 0.39679 0.41897 0.61437 0.0
C243 C 0.55786 0.34307 0.7524 0.0
C244 C 0.40776 0.40429 0.67563 0.0
C245 C 0.18875 0.33534 0.78309 0.0
C246 C 0.21353 0.29498 0.77225 0.0
C247 C 0.54666 0.46339 0.74425 0.0
C248 C 0.67132 0.39508 0.89021 0.0
C249 C 0.72116 0.40285 0.94618 0.0
C250 C 0.78109 0.41161 0.93033 0.0
C251 C 0.73145 0.404 0.87483 0.0
C252 C 0.66654 0.3943 0.92585 0.0
C253 C 0.78607 0.41209 0.89488 0.0
C254 C 0.42504 0.45844 0.80537 0.0
C255 C 0.61182 0.38907 0.87022 0.0
H256 H 0.44371 0.50873 0.56753 0.0
H257 H 0.45793 0.48819 0.67499 0.0
H258 H 0.47569 0.53536 0.62446 0.0
H259 H 0.37602 0.38604 0.61161 0.0
H260 H 0.82418 0.41755 0.94537 0.0
H261 H 0.73629 0.40498 0.84752 0.0
H262 H 0.61993 0.38787 0.93781 0.0
H263 H 0.83242 0.41885 0.88289 0.0
Tb264 Tb 0.06942 0.91217 0.74023 0.0
C265 C 0.7753 0.8801 0.78325 0.0
N266 N 0.81373 0.91645 0.78803 0.0
C267 C 0.72576 0.96301 0.77348 0.0
C268 C 0.71043 0.88379 0.77303 0.0
C269 C 0.78985 0.95768 0.78367 0.0
C270 C 0.6859 0.92592 0.76804 0.0
C271 C 0.76376 0.80036 0.78312 0.0
C272 C 0.80157 0.83895 0.7882 0.0
C273 C 0.69902 0.80381 0.77295 0.0
C274 C 0.6724 0.84542 0.76795 0.0
Tb275 Tb 0.91747 0.90333 0.80398 0.0
N276 N 0.86507 0.83691 0.79688 0.0
C277 C 0.79231 0.75952 0.78829 0.0
C278 C 0.89213 0.79726 0.80369 0.0
C279 C 0.85657 0.75801 0.79897 0.0
H280 H 0.81978 0.98656 0.78865 0.0
H281 H 0.87867 0.72662 0.80375 0.0
H282 H 0.17849 0.84596 0.77297 0.0
H283 H 0.06727 0.0893 0.72226 0.0
H284 H 0.94081 0.79555 0.8129 0.0
H285 H 0.76499 0.72905 0.78454 0.0
H286 H 0.02775 0.01332 0.71424 0.0
H287 H 0.70705 0.99572 0.76999 0.0
H288 H 0.6692 0.77452 0.7688 0.0
H289 H 0.62245 0.84756 0.76002 0.0
H290 H 0.28549 0.85369 0.80017 0.0
H291 H 0.63629 0.93017 0.76015 0.0
H292 H 0.17072 0.10382 0.75203 0.0
N293 N 0.16828 0.91489 0.7656 0.0
C294 C 0.19611 0.95571 0.76861 0.0
C295 C 0.26067 0.88266 0.79159 0.0
C296 C 0.25708 0.96166 0.78401 0.0
C297 C 0.19973 0.87842 0.77648 0.0
C298 C 0.28942 0.92445 0.79546 0.0
N299 N 0.102 0.9847 0.74366 0.0
C300 C 0.07002 0.01896 0.72947 0.0
C301 C 0.18781 0.03477 0.76147 0.0
C302 C 0.16158 0.9918 0.75763 0.0
C303 C 0.15236 0.07027 0.74952 0.0
C304 C 0.09369 0.06224 0.73297 0.0
H305 H 0.33646 0.92762 0.80736 0.0
H306 H 0.3299 1.00973 0.79987 0.0
H307 H 0.26936 0.07371 0.7801 0.0
O308 O 0.07881 0.92948 0.68856 0.0
O309 O 0.07767 0.93416 0.79379 0.0
O310 O 0.9791 0.96258 0.8068 0.0
O311 O 0.14118 0.88206 0.71083 0.0
O312 O 0.97721 0.93976 0.72414 0.0
O313 O 0.93048 0.96362 0.77399 0.0
O314 O 0.93039 0.88216 0.85437 0.0
O315 O 0.90406 0.87334 0.7535 0.0
O316 O 0.00491 0.85425 0.73292 0.0
O317 O 0.856 0.92776 0.84198 0.0
O318 O 0.00622 0.86741 0.81625 0.0
O319 O 0.05745 0.84916 0.7657 0.0
C320 C 0.04224 0.96293 0.80994 0.0
C321 C 0.11214 0.87139 0.65365 0.0
C322 C 0.12169 0.85689 0.59301 0.0
C323 C 0.08629 0.81729 0.59732 0.0
C324 C 0.07753 0.83135 0.65763 0.0
C325 C 0.06462 0.80453 0.62954 0.0
C326 C 0.13469 0.8839 0.62126 0.0
C327 C 0.93555 0.96409 0.74062 0.0
C328 C 0.12336 0.90079 0.68285 0.0
C329 C 0.28317 1.00446 0.78801 0.0
C330 C 0.24859 0.04091 0.77683 0.0
C331 C 0.94134 0.84963 0.73391 0.0
C332 C 0.90219 0.93312 0.89659 0.0
C333 C 0.90708 0.93964 0.95836 0.0
C334 C 0.93621 0.98171 0.95466 0.0
C335 C 0.93118 0.97508 0.89346 0.0
C336 C 0.88993 0.91553 0.92907 0.0
C337 C 0.94829 0.9992 0.92237 0.0
C338 C 0.04517 0.84266 0.79814 0.0
C339 C 0.88518 0.90713 0.86626 0.0
H340 H 0.07563 0.79624 0.57571 0.0
H341 H 0.06051 0.82072 0.68236 0.0
H342 H 0.03759 0.77386 0.63276 0.0
H343 H 0.16126 0.91481 0.61793 0.0
H344 H 0.94874 1.00135 0.97675 0.0
H345 H 0.94001 0.98915 0.86867 0.0
H346 H 0.86762 0.88302 0.93154 0.0
H347 H 0.97057 0.03165 0.91976 0.0
Tb348 Tb 0.43435 0.60388 0.23164 0.0
C349 C 0.68975 0.67869 0.28813 0.0
N350 N 0.67316 0.63538 0.28544 0.0
C351 C 0.77572 0.62078 0.25968 0.0
C352 C 0.74894 0.69532 0.27515 0.0
C353 C 0.71596 0.60607 0.27264 0.0
C354 C 0.79195 0.66573 0.26049 0.0
C355 C 0.66218 0.75125 0.308 0.0
C356 C 0.64692 0.70604 0.30414 0.0
C357 C 0.71976 0.76865 0.29378 0.0
C358 C 0.7632 0.74068 0.27746 0.0
Tb359 Tb 0.57314 0.61443 0.305 0.0
N360 N 0.59199 0.68773 0.31756 0.0
C361 C 0.62021 0.77717 0.32698 0.0
C362 C 0.55503 0.71197 0.3392 0.0
C363 C 0.5672 0.75719 0.34333 0.0
H364 H 0.70364 0.57151 0.27214 0.0
H365 H 0.53632 0.77642 0.35961 0.0
H366 H 0.32916 0.68371 0.24773 0.0
H367 H 0.38138 0.43105 0.21121 0.0
H368 H 0.5167 0.69658 0.35386 0.0
H369 H 0.62994 0.8121 0.33046 0.0
H370 H 0.44249 0.50157 0.20394 0.0
H371 H 0.80911 0.59747 0.24902 0.0
H372 H 0.73194 0.80342 0.29606 0.0
H373 H 0.80805 0.75431 0.26723 0.0
H374 H 0.22599 0.69085 0.27869 0.0
H375 H 0.83808 0.6771 0.25027 0.0
H376 H 0.28227 0.42846 0.24678 0.0
N377 N 0.33411 0.61446 0.25544 0.0
C378 C 0.29971 0.57743 0.26381 0.0
C379 C 0.24674 0.65871 0.27529 0.0
C380 C 0.23912 0.57951 0.28018 0.0
C381 C 0.30605 0.65465 0.25845 0.0
C382 C 0.21383 0.62098 0.28701 0.0
N383 N 0.37935 0.53775 0.23553 0.0
C384 C 0.39902 0.5006 0.21915 0.0
C385 C 0.28628 0.49834 0.25799 0.0
C386 C 0.32252 0.53758 0.25282 0.0
C387 C 0.3087 0.45938 0.24346 0.0
C388 C 0.36456 0.46073 0.2233 0.0
H389 H 0.16745 0.62411 0.29958 0.0
H390 H 0.15822 0.54109 0.30052 0.0
H391 H 0.19977 0.46981 0.28112 0.0
O392 O 0.45528 0.59065 0.18047 0.0
O393 O 0.45096 0.551 0.2685 0.0
O394 O 0.4763 0.58889 0.3168 0.0
O395 O 0.36977 0.62493 0.19385 0.0
O396 O 0.52877 0.57661 0.22036 0.0
O397 O 0.5799 0.55611 0.27059 0.0
O398 O 0.6095 0.62202 0.35513 0.0
O399 O 0.59291 0.63639 0.25261 0.0
O400 O 0.49685 0.6635 0.23317 0.0
O401 O 0.60858 0.55826 0.32987 0.0
O402 O 0.47673 0.64224 0.31466 0.0
O403 O 0.43942 0.66439 0.26214 0.0
C404 C 0.45006 0.55469 0.30161 0.0
C405 C 0.4192 0.64242 0.14134 0.0
C406 C 0.41194 0.66054 0.08115 0.0
C407 C 0.45066 0.69843 0.08683 0.0
C408 C 0.45714 0.68066 0.14672 0.0
C409 C 0.47282 0.70848 0.1195 0.0
C410 C 0.39657 0.63254 0.1086 0.0
C411 C 0.56633 0.55027 0.23775 0.0
C412 C 0.40564 0.61125 0.16907 0.0
C413 C 0.20445 0.54026 0.28752 0.0
C414 C 0.22801 0.49968 0.2764 0.0
C415 C 0.56036 0.66612 0.23608 0.0
C416 C 0.65029 0.55999 0.3881 0.0
C417 C 0.67527 0.5599 0.44908 0.0
C418 C 0.7022 0.51815 0.44535 0.0
C419 C 0.6773 0.51807 0.38531 0.0
C420 C 0.6492 0.58094 0.42031 0.0
C421 C 0.70309 0.49742 0.41373 0.0
C422 C 0.44138 0.66805 0.29548 0.0
C423 C 0.62164 0.58036 0.35746 0.0
H424 H 0.46304 0.72051 0.06605 0.0
H425 H 0.47508 0.68879 0.17177 0.0
H426 H 0.50235 0.73784 0.12374 0.0
H427 H 0.36793 0.60269 0.10438 0.0
H428 H 0.72255 0.50149 0.46707 0.0
H429 H 0.67856 0.50112 0.36108 0.0
H430 H 0.6282 0.61316 0.42304 0.0
H431 H 0.72384 0.46514 0.41123 0.0
C432 C 0.17557 0.96316 0.34304 0.0
C433 C 0.15026 0.95081 0.37512 0.0
C434 C 0.14389 0.99332 0.32203 0.0
C435 C 0.08725 0.01419 0.33276 0.0
H436 H 0.22048 0.94964 0.33397 0.0
H437 H 0.16459 1.00037 0.2974 0.0
S438 S 0.99707 0.98996 0.4132 0.0
N439 N 0.05964 0.95744 0.41424 0.0
N440 N 0.00589 0.0182 0.37772 0.0
C441 C 0.0613 1.0017 0.36477 0.0
C442 C 0.0914 0.96925 0.38518 0.0
C443 C 0.36355 0.56942 0.83298 0.0
C444 C 0.33843 0.56007 0.86562 0.0
C445 C 0.38751 0.5358 0.81218 0.0
C446 C 0.38731 0.49189 0.8235 0.0
H447 H 0.36704 0.60313 0.82401 0.0
H448 H 0.40964 0.54458 0.78804 0.0
S449 S 0.31789 0.44926 0.90436 0.0
N450 N 0.30795 0.50304 0.90635 0.0
N451 N 0.35381 0.44014 0.86755 0.0
C452 C 0.35895 0.48186 0.85513 0.0
C453 C 0.33445 0.51589 0.87618 0.0
C454 C 0.67208 0.51734 0.68513 0.0
C455 C 0.64196 0.55644 0.67534 0.0
C456 C 0.64201 0.48787 0.70825 0.0
C457 C 0.58066 0.49644 0.7222 0.0
H458 H 0.71887 0.50936 0.67462 0.0
H459 H 0.66621 0.45766 0.71451 0.0
S460 S 0.48405 0.59597 0.70608 0.0
N461 N 0.54928 0.60315 0.6822 0.0
N462 N 0.49303 0.54849 0.7258 0.0
C463 C 0.55121 0.53619 0.71321 0.0
C464 C 0.58175 0.56597 0.68972 0.0
C465 C 0.89306 0.9463 0.20844 0.0
C466 C 0.86048 0.95743 0.17842 0.0
C467 C 0.9199 0.97905 0.22954 0.0
C468 C 0.91527 0.02387 0.22117 0.0
H469 H 0.8998 0.91207 0.21506 0.0
H470 H 0.94603 0.96918 0.25202 0.0
S471 S 0.82673 0.07047 0.14835 0.0
N472 N 0.81894 0.01655 0.14351 0.0
N473 N 0.87043 0.07799 0.183 0.0
C474 C 0.88054 0.03551 0.19212 0.0
C475 C 0.85277 1.00229 0.17079 0.0
C476 C 0.85083 0.01803 0.66681 0.0
C477 C 0.84477 0.0619 0.67776 0.0
C478 C 0.8786 0.98628 0.68778 0.0
C479 C 0.90045 0.99707 0.72062 0.0
H480 H 0.83395 1.00815 0.64185 0.0
H481 H 0.88325 0.95303 0.67817 0.0
S482 S 0.89978 0.10766 0.7605 0.0
N483 N 0.86655 0.11491 0.7229 0.0
N484 N 0.91617 0.05475 0.76267 0.0
C485 C 0.8942 0.04059 0.732 0.0
C486 C 0.86711 0.07313 0.71046 0.0
C487 C 0.60247 0.47426 0.16351 0.0
C488 C 0.65439 0.44901 0.17468 0.0
C489 C 0.57538 0.50651 0.18411 0.0
C490 C 0.59666 0.5143 0.21768 0.0
H491 H 0.58179 0.46913 0.13854 0.0
H492 H 0.53676 0.5253 0.17323 0.0
S493 S 0.73015 0.45657 0.26043 0.0
N494 N 0.72818 0.43549 0.22177 0.0
N495 N 0.67097 0.49211 0.26187 0.0
C496 C 0.64695 0.48828 0.2299 0.0
C497 C 0.67713 0.45668 0.20819 0.0
C498 C 0.35328 0.49895 0.37156 0.0
C499 C 0.36086 0.45386 0.36455 0.0
C500 C 0.38185 0.53142 0.35081 0.0
C501 C 0.41853 0.51993 0.3222 0.0
H502 H 0.32602 0.50918 0.39366 0.0
H503 H 0.37541 0.56575 0.35729 0.0
S504 S 0.45411 0.40691 0.29298 0.0
N505 N 0.4081 0.39953 0.327 0.0
N506 N 0.46175 0.46078 0.28793 0.0
C507 C 0.42543 0.47513 0.3144 0.0
C508 C 0.39646 0.44201 0.33557 0.0
C509 C 0.16458 0.01873 0.86905 0.0
C510 C 0.13555 0.05902 0.87655 0.0
C511 C 0.13443 0.98799 0.84719 0.0
C512 C 0.07417 0.99649 0.83219 0.0
H513 H 0.2106 0.01085 0.88035 0.0
H514 H 0.15798 0.95703 0.84253 0.0
S515 S 0.97942 0.09803 0.84397 0.0
N516 N 0.04434 0.10621 0.86761 0.0
N517 N 0.98783 0.04918 0.8262 0.0
C518 C 0.04539 0.03714 0.83937 0.0
C519 C 0.07606 0.06822 0.86163 0.0
C520 C 0.23442 0.10764 1.01645 0.0
C521 C 0.1786 0.1072 0.99605 0.0
C522 C 0.23169 0.09422 0.05059 0.0
C523 C 0.17292 0.08061 0.06574 0.0
H524 H 0.28113 0.11631 1.0055 0.0
H525 H 0.27623 0.09298 0.06494 0.0
S526 S 0.01217 0.07679 0.0245 0.0
N527 N 0.06203 0.09458 0.99432 0.0
N528 N 0.05725 0.06951 0.05856 0.0
C529 C 0.11631 0.08199 0.04625 0.0
C530 C 0.11907 0.09523 1.01138 0.0
C531 C 0.41714 0.41646 0.49202 0.0
C532 C 0.35383 0.40172 0.48421 0.0
C533 C 0.43384 0.43007 0.5249 0.0
C534 C 0.38812 0.42903 0.55138 0.0
H535 H 0.45384 0.41838 0.47232 0.0
H536 H 0.48286 0.4418 0.52959 0.0
S537 S 0.21633 0.39242 0.54479 0.0
N538 N 0.24544 0.3864 0.50595 0.0
N539 N 0.27733 0.41115 0.56805 0.0
C540 C 0.32527 0.41295 0.54434 0.0
C541 C 0.30804 0.39941 0.51071 0.0
C542 C 0.68554 0.36131 0.03556 0.0
C543 C 0.71022 0.39545 0.05633 0.0
C544 C 0.68791 0.36443 1.0 0.0
C545 C 0.71582 0.4016 0.98385 0.0
H546 H 0.66455 0.33176 0.04692 0.0
H547 H 0.66921 0.33707 0.98502 0.0
S548 S 0.78473 0.50085 0.02657 0.0
N549 N 0.76169 0.46816 0.05814 0.0
N550 N 0.76591 0.47413 0.99126 0.0
C551 C 0.73946 0.43637 1.00429 0.0
C552 C 0.73659 0.43332 0.04052 0.0
C553 C 0.89408 0.14363 0.55622 0.0
C554 C 0.82845 0.13549 0.5639 0.0
C555 C 0.91429 0.15224 0.52275 0.0
C556 C 0.86964 0.15233 0.49585 0.0
H557 H 0.92972 0.1446 0.57634 0.0
H558 H 0.96512 0.15909 0.51788 0.0
S559 S 0.69292 0.13064 0.50251 0.0
N560 N 0.71935 0.12641 0.54193 0.0
N561 N 0.75733 0.14236 0.47897 0.0
C562 C 0.80421 0.14299 0.50311 0.0
C563 C 0.78359 0.13468 0.53717 0.0
C564 C 0.81491 0.89394 0.03494 0.0
C565 C 0.86138 0.89662 0.06094 0.0
C566 C 0.83066 0.9062 1.00141 0.0
C567 C 0.8933 0.9217 0.99283 0.0
H568 H 0.76533 0.88447 0.04086 0.0
H569 H 0.7928 0.90548 0.98244 0.0
S570 S 0.03459 0.92861 0.05054 0.0
N571 N 0.97429 0.91108 0.07501 0.0
N572 N 0.00354 0.93447 1.01223 0.0
C573 C 0.94097 0.92206 1.01819 0.0
C574 C 0.92511 0.90939 0.05216 0.0
C575 C 0.6266 0.58793 0.53975 0.0
C576 C 0.68544 0.60301 0.55419 0.0
C577 C 0.62218 0.57689 0.505 0.0
C578 C 0.67639 0.58051 0.4834 0.0
H579 H 0.58388 0.58386 0.55556 0.0
H580 H 0.57679 0.56368 0.49529 0.0
S581 S 0.84122 0.61834 0.50784 0.0
N582 N 0.79896 0.62108 0.54345 0.0
N583 N 0.78999 0.60072 0.47848 0.0
C584 C 0.73479 0.59657 0.49716 0.0
C585 C 0.73946 0.6078 0.53241 0.0
C586 C 0.40826 0.64102 0.98577 0.0
C587 C 0.34178 0.63581 0.97916 0.0
C588 C 0.43072 0.64857 1.01893 0.0
C589 C 0.3875 0.65044 0.04659 0.0
H590 H 0.4429 0.64061 0.96505 0.0
H591 H 0.48222 0.65324 1.02296 0.0
S592 S 0.20913 0.63632 0.04279 0.0
N593 N 0.23327 0.63123 1.00293 0.0
N594 N 0.27546 0.6451 0.06528 0.0
C595 C 0.32112 0.64388 0.04039 0.0
C596 C 0.29826 0.6367 1.00664 0.0
C597 C 0.22755 0.87322 0.515 0.0
C598 C 0.18237 0.88435 0.48988 0.0
C599 C 0.20825 0.86644 0.54893 0.0
C600 C 0.14312 0.87009 0.55861 0.0
H601 H 0.27784 0.86888 0.50824 0.0
H602 H 0.24392 0.85668 0.56741 0.0
S603 S 0.00628 0.89935 0.50324 0.0
N604 N 0.06965 0.89941 0.47759 0.0
N605 N 0.03405 0.88684 0.54126 0.0
C606 C 0.09794 0.88233 0.53413 0.0
C607 C 0.11741 0.88946 0.49977 0.0
C608 C 0.10402 0.27819 0.33907 0.0
C609 C 0.16419 0.27368 0.35495 0.0
C610 C 0.06929 0.24144 0.32693 0.0
C611 C 0.09385 0.19884 0.32936 0.0
H612 H 0.08347 0.31048 0.33601 0.0
H613 H 0.02368 0.24667 0.31467 0.0
S614 S 0.24934 0.16891 0.36884 0.0
N615 N 0.24704 0.22305 0.37287 0.0
N616 N 0.18175 0.15389 0.34935 0.0
C617 C 0.15399 0.19368 0.34524 0.0
C618 C 0.18914 0.23114 0.35821 0.0
C619 C 0.33283 0.27492 0.86849 0.0
C620 C 0.34147 0.23224 0.85529 0.0
C621 C 0.36585 0.31178 0.85438 0.0
C622 C 0.40818 0.30705 0.82661 0.0
H623 H 0.29951 0.28007 0.88934 0.0
H624 H 0.35656 0.34423 0.8645 0.0
S625 S 0.45228 0.20206 0.78507 0.0
N626 N 0.3986 0.18739 0.81432 0.0
N627 N 0.46051 0.2561 0.78827 0.0
C628 C 0.4186 0.26444 0.81404 0.0
C629 C 0.38524 0.22719 0.82825 0.0
C630 C 0.62203 0.26187 0.6875 0.0
C631 C 0.64212 0.22672 0.7079 0.0
C632 C 0.59526 0.29953 0.70211 0.0
C633 C 0.58882 0.30374 0.73763 0.0
H634 H 0.62594 0.26002 0.66008 0.0
H635 H 0.57955 0.32549 0.68536 0.0
S636 S 0.63823 0.22133 0.80198 0.0
N637 N 0.65559 0.19853 0.76506 0.0
N638 N 0.60769 0.26964 0.79279 0.0
C639 C 0.61059 0.26909 0.75825 0.0
C640 C 0.63646 0.23047 0.74329 0.0
C641 C 0.853 0.23872 0.18615 0.0
C642 C 0.84005 0.27758 0.20423 0.0
C643 C 0.88863 0.20495 0.20108 0.0
C644 C 0.91168 0.20883 0.23461 0.0
H645 H 0.83582 0.23437 0.16037 0.0
H646 H 0.89725 0.17536 0.1865 0.0
S647 S 0.88986 0.30419 0.29241 0.0
N648 N 0.85296 0.31815 0.25703 0.0
N649 N 0.91868 0.25483 0.28515 0.0
C650 C 0.89888 0.24766 0.25271 0.0
C651 C 0.86329 0.28196 0.23751 0.0
C652 C 0.90766 0.73264 0.70369 0.0
C653 C 0.84506 0.73482 0.68999 0.0
C654 C 0.94002 0.77045 0.71611 0.0
C655 C 0.91021 0.81165 0.71621 0.0
H656 H 0.93178 0.70135 0.70493 0.0
H657 H 0.98767 0.76701 0.72695 0.0
S658 S 0.74692 0.83524 0.68305 0.0
N659 N 0.75493 0.78183 0.67666 0.0
N660 N 0.81503 0.85263 0.70085 0.0
C661 C 0.84786 0.81438 0.70229 0.0
C662 C 0.81543 0.77604 0.689 0.0
C663 C 0.6871 0.73621 0.18947 0.0
C664 C 0.66424 0.77918 0.19406 0.0
C665 C 0.65349 0.69953 0.2033 0.0
C666 C 0.59547 0.70468 0.22153 0.0
H667 H 0.73159 0.73089 0.17561 0.0
H668 H 0.67278 0.66697 0.19958 0.0
S669 S 0.51742 0.81018 0.24201 0.0
N670 N 0.58165 0.82469 0.21927 0.0
N671 N 0.51852 0.75594 0.24456 0.0
C672 C 0.57261 0.74738 0.22632 0.0
C673 C 0.60708 0.7846 0.21282 0.0
C674 C 0.35724 0.77647 0.30789 0.0
C675 C 0.33656 0.77467 0.34187 0.0
C676 C 0.38959 0.74143 0.29305 0.0
C677 C 0.4039 0.70343 0.31174 0.0
H678 H 0.34824 0.8053 0.2925 0.0
H679 H 0.40333 0.7443 0.26662 0.0
S680 S 0.35545 0.68048 0.40101 0.0
N681 N 0.32897 0.73048 0.3935 0.0
N682 N 0.39056 0.66455 0.36545 0.0
C683 C 0.38191 0.70054 0.34557 0.0
C684 C 0.34819 0.73621 0.3607 0.0
C685 C 0.11856 0.73076 0.80952 0.0
C686 C 0.13958 0.73149 0.8434 0.0
C687 C 0.08809 0.76694 0.79524 0.0
C688 C 0.0762 0.80492 0.81452 0.0
H689 H 0.12663 0.70216 0.79369 0.0
H690 H 0.07354 0.76502 0.76886 0.0
S691 S 0.12126 0.82372 0.90456 0.0
N692 N 0.14656 0.77363 0.89608 0.0
N693 N 0.08788 0.84148 0.86918 0.0
C694 C 0.09617 0.80606 0.84859 0.0
C695 C 0.12832 0.76939 0.86307 0.0
loop_
_geom_bond_atom_site_label_1
_geom_bond_atom_site_label_2
_geom_bond_distance
_geom_bond_site_symmetry_2
_ccdc_geom_bond_type
H0 C5 0.930 . S
H1 C8 0.930 . S
H2 C10 0.930 . S
H3 C4 1.016 . S
C4 H3 1.016 . S
C4 N11 1.286 . S
C5 H0 0.930 . S
C5 C6 1.397 . S
C5 C7 1.361 . S
C6 C5 1.397 . S
C6 C10 1.390 . S
C7 C5 1.361 . S
C7 C8 1.393 . S
C7 N11 1.413 . S
C8 H1 0.930 . S
C8 C7 1.393 . S
C8 C9 1.399 . S
C9 C8 1.399 . S
C9 C10 1.381 . S
C10 H2 0.930 . S
C10 C6 1.390 . S
C10 C9 1.381 . S
N11 C4 1.286 . S
N11 C7 1.413 . S
H12 C17 0.930 . S
H13 C20 0.930 . S
H14 C22 0.930 . S
H15 C16 1.016 . S
C16 H15 1.016 . S
C16 N23 1.286 . S
C17 H12 0.930 . S
C17 C18 1.397 . S
C17 C19 1.361 . S
C18 C17 1.397 . S
C18 C22 1.390 . S
C19 C17 1.361 . S
C19 C20 1.393 . S
C19 N23 1.413 . S
C20 H13 0.930 . S
C20 C19 1.393 . S
C20 C21 1.399 . S
C21 C20 1.399 . S
C21 C22 1.381 . S
C22 H14 0.930 . S
C22 C18 1.390 . S
C22 C21 1.381 . S
N23 C16 1.286 . S
N23 C19 1.413 . S
H24 C29 0.930 . S
H25 C32 0.930 . S
H26 C34 0.930 . S
H27 C28 1.016 . S
C28 H27 1.016 . S
C28 N35 1.286 . S
C29 H24 0.930 . S
C29 C30 1.397 . S
C29 C31 1.361 . S
C30 C29 1.397 . S
C30 C34 1.390 . S
C31 C29 1.361 . S
C31 C32 1.393 . S
C31 N35 1.413 . S
C32 H25 0.930 . S
C32 C31 1.393 . S
C32 C33 1.399 . S
C33 C32 1.399 . S
C33 C34 1.381 . S
C34 H26 0.930 . S
C34 C30 1.390 . S
C34 C33 1.381 . S
N35 C28 1.286 . S
N35 C31 1.413 . S
H36 C41 0.930 . S
H37 C44 0.930 . S
H38 C46 0.930 . S
H39 C40 1.016 . S
C40 H39 1.016 . S
C40 N47 1.286 . S
C41 H36 0.930 . S
C41 C42 1.397 . S
C41 C43 1.361 . S
C42 C41 1.397 . S
C42 C46 1.390 . S
C43 C41 1.361 . S
C43 C44 1.393 . S
C43 N47 1.413 . S
C44 H37 0.930 . S
C44 C43 1.393 . S
C44 C45 1.399 . S
C45 C44 1.399 . S
C45 C46 1.381 . S
C46 H38 0.930 . S
C46 C42 1.390 . S
C46 C45 1.381 . S
N47 C40 1.286 . S
N47 C43 1.413 . S
H48 C53 0.930 . S
H49 C56 0.930 . S
H50 C58 0.930 . S
H51 C52 1.016 . S
C52 H51 1.016 . S
C52 N59 1.286 . S
C53 H48 0.930 . S
C53 C54 1.397 . S
C53 C55 1.361 . S
C54 C53 1.397 . S
C54 C58 1.390 . S
C55 C53 1.361 . S
C55 C56 1.393 . S
C55 N59 1.413 . S
C56 H49 0.930 . S
C56 C55 1.393 . S
C56 C57 1.399 . S
C57 C56 1.399 . S
C57 C58 1.381 . S
C58 H50 0.930 . S
C58 C54 1.390 . S
C58 C57 1.381 . S
N59 C52 1.286 . S
N59 C55 1.413 . S
H60 C65 0.930 . S
H61 C68 0.930 . S
H62 C70 0.930 . S
H63 C64 1.016 . S
C64 H63 1.016 . S
C64 N71 1.286 . S
C65 H60 0.930 . S
C65 C66 1.397 . S
C65 C67 1.361 . S
C66 C65 1.397 . S
C66 C70 1.390 . S
C67 C65 1.361 . S
C67 C68 1.393 . S
C67 N71 1.413 . S
C68 H61 0.930 . S
C68 C67 1.393 . S
C68 C69 1.399 . S
C69 C68 1.399 . S
C69 C70 1.381 . S
C70 H62 0.930 . S
C70 C66 1.390 . S
C70 C69 1.381 . S
N71 C64 1.286 . S
N71 C67 1.413 . S
H72 C77 0.930 . S
H73 C80 0.930 . S
H74 C82 0.930 . S
H75 C76 1.016 . S
C76 H75 1.016 . S
C76 N83 1.286 . S
C77 H72 0.930 . S
C77 C78 1.397 . S
C77 C79 1.361 . S
C78 C77 1.397 . S
C78 C82 1.390 . S
C79 C77 1.361 . S
C79 C80 1.393 . S
C79 N83 1.413 . S
C80 H73 0.930 . S
C80 C79 1.393 . S
C80 C81 1.399 . S
C81 C80 1.399 . S
C81 C82 1.381 . S
C82 H74 0.930 . S
C82 C78 1.390 . S
C82 C81 1.381 . S
N83 C76 1.286 . S
N83 C79 1.413 . S
H84 C89 0.930 . S
H85 C92 0.930 . S
H86 C94 0.930 . S
H87 C88 1.016 . S
C88 H87 1.016 . S
C88 N95 1.286 . S
C89 H84 0.930 . S
C89 C90 1.397 . S
C89 C91 1.361 . S
C90 C89 1.397 . S
C90 C94 1.390 . S
C91 C89 1.361 . S
C91 C92 1.393 . S
C91 N95 1.413 . S
C92 H85 0.930 . S
C92 C91 1.393 . S
C92 C93 1.399 . S
C93 C92 1.399 . S
C93 C94 1.381 . S
C94 H86 0.930 . S
C94 C90 1.390 . S
C94 C93 1.381 . S
N95 C88 1.286 . S
N95 C91 1.413 . S
Tb96 N125 2.617 . S
Tb96 N131 2.572 . S
Tb96 O140 2.465 . S
Tb96 O141 2.387 . S
Tb96 O143 2.428 . S
Tb96 O144 2.308 1_455 S
Tb96 O148 2.349 1_455 S
Tb96 O151 2.393 . S
Tb96 C160 2.802 . S
C97 N98 1.379 . S
C97 C100 1.416 . S
C97 C104 1.424 . S
N98 C97 1.379 . S
N98 C101 1.334 . S
N98 Tb107 2.617 . S
C99 C101 1.390 . S
C99 C102 1.339 . S
C99 H119 0.930 . S
C100 C97 1.416 . S
C100 C102 1.416 . S
C100 C106 1.448 . S
C101 N98 1.334 . S
C101 C99 1.390 . S
C101 H112 0.930 . S
C102 C99 1.339 . S
C102 C100 1.416 . S
C102 H123 0.930 . S
C103 C104 1.413 1_565 S
C103 C105 1.427 . S
C103 C109 1.416 . S
C104 C97 1.424 . S
C104 C103 1.413 1_545 S
C104 N108 1.361 . S
C105 C103 1.427 . S
C105 C106 1.328 1_565 S
C105 H120 0.929 . S
C106 C100 1.448 . S
C106 C105 1.328 1_545 S
C106 H121 0.930 . S
Tb107 N98 2.617 . S
Tb107 N108 2.572 . S
Tb107 O142 2.349 1_655 S
Tb107 O145 2.393 . S
Tb107 O146 2.465 . S
Tb107 O147 2.387 . S
Tb107 O149 2.428 . S
Tb107 O150 2.308 1_655 S
Tb107 C171 2.802 . S
N108 C104 1.361 . S
N108 Tb107 2.572 . S
N108 C110 1.340 1_545 S
C109 C103 1.416 . S
C109 C111 1.332 . S
C109 H117 0.931 . S
C110 N108 1.340 1_565 S
C110 C111 1.407 . S
C110 H116 0.930 . S
C111 C109 1.332 . S
C111 C110 1.407 . S
C111 H113 0.929 . S
H112 C101 0.930 . S
H113 C111 0.929 . S
H114 C129 0.930 . S
H115 C136 0.929 . S
H116 C110 0.930 . S
H117 C109 0.931 . S
H118 C132 0.930 . S
H119 C99 0.930 . S
H120 C105 0.929 . S
H121 C106 0.930 . S
H122 C127 0.930 . S
H123 C102 0.930 . S
H124 C135 0.931 . S
N125 Tb96 2.617 . S
N125 C126 1.379 . S
N125 C129 1.334 . S
C126 N125 1.379 . S
C126 C128 1.416 . S
C126 C134 1.424 . S
C127 H122 0.930 . S
C127 C129 1.390 . S
C127 C130 1.339 . S
C128 C126 1.416 . S
C128 C130 1.416 . S
C128 C161 1.448 . S
C129 H114 0.930 . S
C129 N125 1.334 . S
C129 C127 1.390 . S
C130 C127 1.339 . S
C130 C128 1.416 . S
C130 H137 0.930 . S
N131 Tb96 2.572 . S
N131 C132 1.340 . S
N131 C134 1.361 . S
C132 H118 0.930 . S
C132 N131 1.340 . S
C132 C136 1.407 . S
C133 C134 1.413 . S
C133 C135 1.416 . S
C133 C162 1.427 . S
C134 C126 1.424 . S
C134 N131 1.361 . S
C134 C133 1.413 . S
C135 H124 0.931 . S
C135 C133 1.416 . S
C135 C136 1.332 . S
C136 H115 0.929 . S
C136 C132 1.407 . S
C136 C135 1.332 . S
H137 C130 0.930 . S
H138 C161 0.930 . S
H139 C162 0.929 . S
O140 Tb96 2.465 . S
O140 C160 1.264 . S
O141 Tb96 2.387 . S
O141 C152 1.264 . S
O142 Tb107 2.349 1_455 S
O142 C152 1.243 . S
O143 Tb96 2.428 . S
O143 C160 1.256 . S
O144 Tb96 2.308 1_655 S
O144 C159 1.266 . S
O145 Tb107 2.393 . S
O145 C159 1.248 . S
O146 Tb107 2.465 . S
O146 C171 1.264 . S
O147 Tb107 2.387 . S
O147 C163 1.264 . S
O148 Tb96 2.349 1_655 S
O148 C163 1.243 . S
O149 Tb107 2.428 . S
O149 C171 1.256 . S
O150 Tb107 2.308 1_455 S
O150 C170 1.266 . S
O151 Tb96 2.393 . S
O151 C170 1.248 . S
C152 O141 1.264 . S
C152 O142 1.243 . S
C153 C156 1.399 . S
C153 C158 1.383 . S
C153 C160 1.496 . S
C154 C155 1.399 . S
C154 C158 1.389 . S
C155 C154 1.399 . S
C155 C157 1.380 . S
C155 H172 0.929 . S
C156 C153 1.399 . S
C156 C157 1.392 . S
C156 H173 0.929 . S
C157 C155 1.380 . S
C157 C156 1.392 . S
C157 H174 0.929 . S
C158 C153 1.383 . S
C158 C154 1.389 . S
C158 H175 0.931 . S
C159 O144 1.266 . S
C159 O145 1.248 . S
C160 Tb96 2.802 . S
C160 O140 1.264 . S
C160 O143 1.256 . S
C160 C153 1.496 . S
C161 C128 1.448 . S
C161 H138 0.930 . S
C161 C162 1.328 . S
C162 C133 1.427 . S
C162 H139 0.929 . S
C162 C161 1.328 . S
C163 O147 1.264 . S
C163 O148 1.243 . S
C164 C167 1.399 . S
C164 C168 1.383 . S
C164 C171 1.496 . S
C165 C166 1.399 . S
C165 C168 1.389 . S
C166 C165 1.399 . S
C166 C169 1.380 . S
C166 H176 0.929 . S
C167 C164 1.399 . S
C167 C169 1.392 . S
C167 H177 0.929 . S
C168 C164 1.383 . S
C168 C165 1.389 . S
C168 H178 0.931 . S
C169 C166 1.380 . S
C169 C167 1.392 . S
C169 H179 0.929 . S
C170 O150 1.266 . S
C170 O151 1.248 . S
C171 Tb107 2.802 . S
C171 O146 1.264 . S
C171 O149 1.256 . S
C171 C164 1.496 . S
H172 C155 0.929 . S
H173 C156 0.929 . S
H174 C157 0.929 . S
H175 C158 0.931 . S
H176 C166 0.929 . S
H177 C167 0.929 . S
H178 C168 0.931 . S
H179 C169 0.929 . S
Tb180 N209 2.617 . S
Tb180 N215 2.572 . S
Tb180 O224 2.465 . S
Tb180 O225 2.387 . S
Tb180 O227 2.428 . S
Tb180 O228 2.308 . S
Tb180 O232 2.349 . S
Tb180 O235 2.393 . S
Tb180 C244 2.802 . S
C181 N182 1.379 . S
C181 C184 1.416 . S
C181 C188 1.424 . S
N182 C181 1.379 . S
N182 C185 1.334 . S
N182 Tb191 2.617 . S
C183 C185 1.390 . S
C183 C186 1.339 . S
C183 H203 0.930 . S
C184 C181 1.416 . S
C184 C186 1.416 . S
C184 C190 1.448 . S
C185 N182 1.334 . S
C185 C183 1.390 . S
C185 H196 0.930 . S
C186 C183 1.339 . S
C186 C184 1.416 . S
C186 H207 0.930 . S
C187 C188 1.413 . S
C187 C189 1.427 . S
C187 C193 1.416 . S
C188 C181 1.424 . S
C188 C187 1.413 . S
C188 N192 1.361 . S
C189 C187 1.427 . S
C189 C190 1.328 . S
C189 H204 0.929 . S
C190 C184 1.448 . S
C190 C189 1.328 . S
C190 H205 0.930 . S
Tb191 N182 2.617 . S
Tb191 N192 2.572 . S
Tb191 O226 2.349 . S
Tb191 O229 2.393 . S
Tb191 O230 2.465 . S
Tb191 O231 2.387 . S
Tb191 O233 2.428 . S
Tb191 O234 2.308 . S
Tb191 C255 2.802 . S
N192 C188 1.361 . S
N192 Tb191 2.572 . S
N192 C194 1.340 . S
C193 C187 1.416 . S
C193 C195 1.332 . S
C193 H201 0.931 . S
C194 N192 1.340 . S
C194 C195 1.407 . S
C194 H200 0.930 . S
C195 C193 1.332 . S
C195 C194 1.407 . S
C195 H197 0.929 . S
H196 C185 0.930 . S
H197 C195 0.929 . S
H198 C213 0.930 . S
H199 C220 0.929 . S
H200 C194 0.930 . S
H201 C193 0.931 . S
H202 C216 0.930 . S
H203 C183 0.930 . S
H204 C189 0.929 . S
H205 C190 0.930 . S
H206 C211 0.930 . S
H207 C186 0.930 . S
H208 C219 0.931 . S
N209 Tb180 2.617 . S
N209 C210 1.379 . S
N209 C213 1.334 . S
C210 N209 1.379 . S
C210 C212 1.416 . S
C210 C218 1.424 . S
C211 H206 0.930 . S
C211 C213 1.390 . S
C211 C214 1.339 . S
C212 C210 1.416 . S
C212 C214 1.416 . S
C212 C245 1.448 . S
C213 H198 0.930 . S
C213 N209 1.334 . S
C213 C211 1.390 . S
C214 C211 1.339 . S
C214 C212 1.416 . S
C214 H221 0.930 . S
N215 Tb180 2.572 . S
N215 C216 1.340 . S
N215 C218 1.361 . S
C216 H202 0.930 . S
C216 N215 1.340 . S
C216 C220 1.407 . S
C217 C218 1.413 . S
C217 C219 1.416 . S
C217 C246 1.427 . S
C218 C210 1.424 . S
C218 N215 1.361 . S
C218 C217 1.413 . S
C219 H208 0.931 . S
C219 C217 1.416 . S
C219 C220 1.332 . S
C220 H199 0.929 . S
C220 C216 1.407 . S
C220 C219 1.332 . S
H221 C214 0.930 . S
H222 C245 0.930 . S
H223 C246 0.929 . S
O224 Tb180 2.465 . S
O224 C244 1.264 . S
O225 Tb180 2.387 . S
O225 C236 1.264 . S
O226 Tb191 2.349 . S
O226 C236 1.243 . S
O227 Tb180 2.428 . S
O227 C244 1.256 . S
O228 Tb180 2.308 . S
O228 C243 1.266 . S
O229 Tb191 2.393 . S
O229 C243 1.248 . S
O230 Tb191 2.465 . S
O230 C255 1.264 . S
O231 Tb191 2.387 . S
O231 C247 1.264 . S
O232 Tb180 2.349 . S
O232 C247 1.243 . S
O233 Tb191 2.428 . S
O233 C255 1.256 . S
O234 Tb191 2.308 . S
O234 C254 1.266 . S
O235 Tb180 2.393 . S
O235 C254 1.248 . S
C236 O225 1.264 . S
C236 O226 1.243 . S
C237 C240 1.399 . S
C237 C242 1.383 . S
C237 C244 1.496 . S
C238 C239 1.399 . S
C238 C242 1.389 . S
C239 C238 1.399 . S
C239 C241 1.380 . S
C239 H256 0.929 . S
C240 C237 1.399 . S
C240 C241 1.392 . S
C240 H257 0.929 . S
C241 C239 1.380 . S
C241 C240 1.392 . S
C241 H258 0.929 . S
C242 C237 1.383 . S
C242 C238 1.389 . S
C242 H259 0.931 . S
C243 O228 1.266 . S
C243 O229 1.248 . S
C244 Tb180 2.802 . S
C244 O224 1.264 . S
C244 O227 1.256 . S
C244 C237 1.496 . S
C245 C212 1.448 . S
C245 H222 0.930 . S
C245 C246 1.328 . S
C246 C217 1.427 . S
C246 H223 0.929 . S
C246 C245 1.328 . S
C247 O231 1.264 . S
C247 O232 1.243 . S
C248 C251 1.399 . S
C248 C252 1.383 . S
C248 C255 1.496 . S
C249 C250 1.399 . S
C249 C252 1.389 . S
C250 C249 1.399 . S
C250 C253 1.380 . S
C250 H260 0.929 . S
C251 C248 1.399 . S
C251 C253 1.392 . S
C251 H261 0.929 . S
C252 C248 1.383 . S
C252 C249 1.389 . S
C252 H262 0.931 . S
C253 C250 1.380 . S
C253 C251 1.392 . S
C253 H263 0.929 . S
C254 O234 1.266 . S
C254 O235 1.248 . S
C255 Tb191 2.802 . S
C255 O230 1.264 . S
C255 O233 1.256 . S
C255 C248 1.496 . S
H256 C239 0.929 . S
H257 C240 0.929 . S
H258 C241 0.929 . S
H259 C242 0.931 . S
H260 C250 0.929 . S
H261 C251 0.929 . S
H262 C252 0.931 . S
H263 C253 0.929 . S
Tb264 N293 2.617 . S
Tb264 N299 2.572 . S
Tb264 O308 2.465 . S
Tb264 O309 2.387 . S
Tb264 O311 2.428 . S
Tb264 O312 2.299 1_455 S
Tb264 O316 2.351 . S
Tb264 O319 2.393 . S
Tb264 C328 2.802 . S
C265 N266 1.379 . S
C265 C268 1.416 . S
C265 C272 1.424 . S
N266 C265 1.379 . S
N266 C269 1.334 . S
N266 Tb275 2.617 . S
C267 C269 1.390 . S
C267 C270 1.339 . S
C267 H287 0.930 . S
C268 C265 1.416 . S
C268 C270 1.416 . S
C268 C274 1.448 . S
C269 N266 1.334 . S
C269 C267 1.390 . S
C269 H280 0.930 . S
C270 C267 1.339 . S
C270 C268 1.416 . S
C270 H291 0.930 . S
C271 C272 1.413 . S
C271 C273 1.427 . S
C271 C277 1.416 . S
C272 C265 1.424 . S
C272 C271 1.413 . S
C272 N276 1.361 . S
C273 C271 1.427 . S
C273 C274 1.328 . S
C273 H288 0.929 . S
C274 C268 1.448 . S
C274 C273 1.328 . S
C274 H289 0.930 . S
Tb275 N266 2.617 . S
Tb275 N276 2.572 . S
Tb275 O310 2.349 1_655 S
Tb275 O313 2.393 . S
Tb275 O314 2.465 . S
Tb275 O315 2.387 . S
Tb275 O317 2.428 . S
Tb275 O318 2.308 1_655 S
Tb275 C339 2.802 . S
N276 C272 1.361 . S
N276 Tb275 2.572 . S
N276 C278 1.340 . S
C277 C271 1.416 . S
C277 C279 1.332 . S
C277 H285 0.931 . S
C278 N276 1.340 . S
C278 C279 1.407 . S
C278 H284 0.930 . S
C279 C277 1.332 . S
C279 C278 1.407 . S
C279 H281 0.929 . S
H280 C269 0.930 . S
H281 C279 0.929 . S
H282 C297 0.930 . S
H283 C304 0.929 . S
H284 C278 0.930 . S
H285 C277 0.931 . S
H286 C300 0.930 . S
H287 C267 0.930 . S
H288 C273 0.929 . S
H289 C274 0.930 . S
H290 C295 0.930 . S
H291 C270 0.930 . S
H292 C303 0.931 . S
N293 Tb264 2.617 . S
N293 C294 1.379 . S
N293 C297 1.334 . S
C294 N293 1.379 . S
C294 C296 1.416 . S
C294 C302 1.424 . S
C295 H290 0.930 . S
C295 C297 1.390 . S
C295 C298 1.339 . S
C296 C294 1.416 . S
C296 C298 1.416 . S
C296 C329 1.448 . S
C297 H282 0.930 . S
C297 N293 1.334 . S
C297 C295 1.390 . S
C298 C295 1.339 . S
C298 C296 1.416 . S
C298 H305 0.930 . S
N299 Tb264 2.572 . S
N299 C300 1.340 1_565 S
N299 C302 1.361 . S
C300 H286 0.930 . S
C300 N299 1.340 1_545 S
C300 C304 1.407 . S
C301 C302 1.413 1_545 S
C301 C303 1.416 . S
C301 C330 1.427 . S
C302 C294 1.424 . S
C302 N299 1.361 . S
C302 C301 1.413 1_565 S
C303 H292 0.931 . S
C303 C301 1.416 . S
C303 C304 1.332 . S
C304 H283 0.929 . S
C304 C300 1.407 . S
C304 C303 1.332 . S
H305 C298 0.930 . S
H306 C329 0.930 . S
H307 C330 0.929 . S
O308 Tb264 2.465 . S
O308 C328 1.264 . S
O309 Tb264 2.387 . S
O309 C320 1.264 . S
O310 Tb275 2.349 1_455 S
O310 C320 1.243 . S
O311 Tb264 2.428 . S
O311 C328 1.256 . S
O312 Tb264 2.299 1_655 S
O312 C327 1.277 . S
O313 Tb275 2.393 . S
O313 C327 1.248 . S
O314 Tb275 2.465 . S
O314 C339 1.264 . S
O315 Tb275 2.387 . S
O315 C331 1.264 . S
O316 Tb264 2.351 . S
O316 C331 1.241 1_455 S
O317 Tb275 2.428 . S
O317 C339 1.256 . S
O318 Tb275 2.308 1_455 S
O318 C338 1.266 . S
O319 Tb264 2.393 . S
O319 C338 1.248 . S
C320 O309 1.264 . S
C320 O310 1.243 . S
C321 C324 1.399 . S
C321 C326 1.383 . S
C321 C328 1.496 . S
C322 C323 1.399 . S
C322 C326 1.389 . S
C323 C322 1.399 . S
C323 C325 1.380 . S
C323 H340 0.929 . S
C324 C321 1.399 . S
C324 C325 1.392 . S
C324 H341 0.929 . S
C325 C323 1.380 . S
C325 C324 1.392 . S
C325 H342 0.929 . S
C326 C321 1.383 . S
C326 C322 1.389 . S
C326 H343 0.931 . S
C327 O312 1.277 . S
C327 O313 1.248 . S
C328 Tb264 2.802 . S
C328 O308 1.264 . S
C328 O311 1.256 . S
C328 C321 1.496 . S
C329 C296 1.448 . S
C329 H306 0.930 . S
C329 C330 1.328 1_565 S
C330 C301 1.427 . S
C330 H307 0.929 . S
C330 C329 1.328 1_545 S
C331 O315 1.264 . S
C331 O316 1.241 1_655 S
C332 C335 1.399 . S
C332 C336 1.383 . S
C332 C339 1.496 . S
C333 C334 1.399 . S
C333 C336 1.389 . S
C334 C333 1.399 . S
C334 C337 1.380 . S
C334 H344 0.929 . S
C335 C332 1.399 . S
C335 C337 1.392 . S
C335 H345 0.929 . S
C336 C332 1.383 . S
C336 C333 1.389 . S
C336 H346 0.931 . S
C337 C334 1.380 . S
C337 C335 1.392 . S
C337 H347 0.929 . S
C338 O318 1.266 . S
C338 O319 1.248 . S
C339 Tb275 2.802 . S
C339 O314 1.264 . S
C339 O317 1.256 . S
C339 C332 1.496 . S
H340 C323 0.929 . S
H341 C324 0.929 . S
H342 C325 0.929 . S
H343 C326 0.931 . S
H344 C334 0.929 . S
H345 C335 0.929 . S
H346 C336 0.931 . S
H347 C337 0.929 . S
Tb348 N377 2.617 . S
Tb348 N383 2.572 . S
Tb348 O392 2.465 . S
Tb348 O393 2.387 . S
Tb348 O395 2.428 . S
Tb348 O396 2.308 . S
Tb348 O400 2.349 . S
Tb348 O403 2.393 . S
Tb348 C412 2.802 . S
C349 N350 1.379 . S
C349 C352 1.416 . S
C349 C356 1.424 . S
N350 C349 1.379 . S
N350 C353 1.334 . S
N350 Tb359 2.617 . S
C351 C353 1.390 . S
C351 C354 1.339 . S
C351 H371 0.930 . S
C352 C349 1.416 . S
C352 C354 1.416 . S
C352 C358 1.448 . S
C353 N350 1.334 . S
C353 C351 1.390 . S
C353 H364 0.930 . S
C354 C351 1.339 . S
C354 C352 1.416 . S
C354 H375 0.930 . S
C355 C356 1.413 . S
C355 C357 1.427 . S
C355 C361 1.416 . S
C356 C349 1.424 . S
C356 C355 1.413 . S
C356 N360 1.361 . S
C357 C355 1.427 . S
C357 C358 1.328 . S
C357 H372 0.929 . S
C358 C352 1.448 . S
C358 C357 1.328 . S
C358 H373 0.930 . S
Tb359 N350 2.617 . S
Tb359 N360 2.572 . S
Tb359 O394 2.349 . S
Tb359 O397 2.393 . S
Tb359 O398 2.465 . S
Tb359 O399 2.387 . S
Tb359 O401 2.428 . S
Tb359 O402 2.308 . S
Tb359 C423 2.802 . S
N360 C356 1.361 . S
N360 Tb359 2.572 . S
N360 C362 1.340 . S
C361 C355 1.416 . S
C361 C363 1.332 . S
C361 H369 0.931 . S
C362 N360 1.340 . S
C362 C363 1.407 . S
C362 H368 0.930 . S
C363 C361 1.332 . S
C363 C362 1.407 . S
C363 H365 0.929 . S
H364 C353 0.930 . S
H365 C363 0.929 . S
H366 C381 0.930 . S
H367 C388 0.929 . S
H368 C362 0.930 . S
H369 C361 0.931 . S
H370 C384 0.930 . S
H371 C351 0.930 . S
H372 C357 0.929 . S
H373 C358 0.930 . S
H374 C379 0.930 . S
H375 C354 0.930 . S
H376 C387 0.931 . S
N377 Tb348 2.617 . S
N377 C378 1.379 . S
N377 C381 1.334 . S
C378 N377 1.379 . S
C378 C380 1.416 . S
C378 C386 1.424 . S
C379 H374 0.930 . S
C379 C381 1.390 . S
C379 C382 1.339 . S
C380 C378 1.416 . S
C380 C382 1.416 . S
C380 C413 1.448 . S
C381 H366 0.930 . S
C381 N377 1.334 . S
C381 C379 1.390 . S
C382 C379 1.339 . S
C382 C380 1.416 . S
C382 H389 0.930 . S
N383 Tb348 2.572 . S
N383 C384 1.340 . S
N383 C386 1.361 . S
C384 H370 0.930 . S
C384 N383 1.340 . S
C384 C388 1.407 . S
C385 C386 1.413 . S
C385 C387 1.416 . S
C385 C414 1.427 . S
C386 C378 1.424 . S
C386 N383 1.361 . S
C386 C385 1.413 . S
C387 H376 0.931 . S
C387 C385 1.416 . S
C387 C388 1.332 . S
C388 H367 0.929 . S
C388 C384 1.407 . S
C388 C387 1.332 . S
H389 C382 0.930 . S
H390 C413 0.930 . S
H391 C414 0.929 . S
O392 Tb348 2.465 . S
O392 C412 1.264 . S
O393 Tb348 2.387 . S
O393 C404 1.264 . S
O394 Tb359 2.349 . S
O394 C404 1.243 . S
O395 Tb348 2.428 . S
O395 C412 1.256 . S
O396 Tb348 2.308 . S
O396 C411 1.266 . S
O397 Tb359 2.393 . S
O397 C411 1.248 . S
O398 Tb359 2.465 . S
O398 C423 1.264 . S
O399 Tb359 2.387 . S
O399 C415 1.264 . S
O400 Tb348 2.349 . S
O400 C415 1.243 . S
O401 Tb359 2.428 . S
O401 C423 1.256 . S
O402 Tb359 2.308 . S
O402 C422 1.266 . S
O403 Tb348 2.393 . S
O403 C422 1.248 . S
C404 O393 1.264 . S
C404 O394 1.243 . S
C405 C408 1.399 . S
C405 C410 1.383 . S
C405 C412 1.496 . S
C406 C407 1.399 . S
C406 C410 1.389 . S
C407 C406 1.399 . S
C407 C409 1.380 . S
C407 H424 0.929 . S
C408 C405 1.399 . S
C408 C409 1.392 . S
C408 H425 0.929 . S
C409 C407 1.380 . S
C409 C408 1.392 . S
C409 H426 0.929 . S
C410 C405 1.383 . S
C410 C406 1.389 . S
C410 H427 0.931 . S
C411 O396 1.266 . S
C411 O397 1.248 . S
C412 Tb348 2.802 . S
C412 O392 1.264 . S
C412 O395 1.256 . S
C412 C405 1.496 . S
C413 C380 1.448 . S
C413 H390 0.930 . S
C413 C414 1.328 . S
C414 C385 1.427 . S
C414 H391 0.929 . S
C414 C413 1.328 . S
C415 O399 1.264 . S
C415 O400 1.243 . S
C416 C419 1.399 . S
C416 C420 1.383 . S
C416 C423 1.496 . S
C417 C418 1.399 . S
C417 C420 1.389 . S
C418 C417 1.399 . S
C418 C421 1.380 . S
C418 H428 0.929 . S
C419 C416 1.399 . S
C419 C421 1.392 . S
C419 H429 0.929 . S
C420 C416 1.383 . S
C420 C417 1.389 . S
C420 H430 0.931 . S
C421 C418 1.380 . S
C421 C419 1.392 . S
C421 H431 0.929 . S
C422 O402 1.266 . S
C422 O403 1.248 . S
C423 Tb359 2.802 . S
C423 O398 1.264 . S
C423 O401 1.256 . S
C423 C416 1.496 . S
H424 C407 0.929 . S
H425 C408 0.929 . S
H426 C409 0.929 . S
H427 C410 0.931 . S
H428 C418 0.929 . S
H429 C419 0.929 . S
H430 C420 0.931 . S
H431 C421 0.929 . S
C432 C433 1.369 . S
C432 C434 1.419 . S
C432 H436 0.930 . S
C433 C432 1.369 . S
C433 C442 1.429 . S
C434 C432 1.419 . S
C434 C435 1.363 . S
C434 H437 0.929 . S
C435 C434 1.363 . S
C435 C441 1.428 . S
H436 C432 0.930 . S
H437 C434 0.929 . S
S438 N439 1.613 1_655 S
S438 N440 1.610 1_655 S
N439 S438 1.613 1_455 S
N439 C442 1.350 . S
N440 S438 1.610 1_455 S
N440 C441 1.351 . S
C441 C435 1.428 . S
C441 N440 1.351 . S
C441 C442 1.434 . S
C442 C433 1.429 . S
C442 N439 1.350 . S
C442 C441 1.434 . S
C443 C444 1.369 . S
C443 C445 1.419 . S
C443 H447 0.930 . S
C444 C443 1.369 . S
C444 C453 1.429 . S
C445 C443 1.419 . S
C445 C446 1.363 . S
C445 H448 0.929 . S
C446 C445 1.363 . S
C446 C452 1.428 . S
H447 C443 0.930 . S
H448 C445 0.929 . S
S449 N450 1.613 . S
S449 N451 1.610 . S
N450 S449 1.613 . S
N450 C453 1.350 . S
N451 S449 1.610 . S
N451 C452 1.351 . S
C452 C446 1.428 . S
C452 N451 1.351 . S
C452 C453 1.434 . S
C453 C444 1.429 . S
C453 N450 1.350 . S
C453 C452 1.434 . S
C454 C455 1.369 . S
C454 C456 1.419 . S
C454 H458 0.930 . S
C455 C454 1.369 . S
C455 C464 1.429 . S
C456 C454 1.419 . S
C456 C457 1.363 . S
C456 H459 0.929 . S
C457 C456 1.363 . S
C457 C463 1.428 . S
H458 C454 0.930 . S
H459 C456 0.929 . S
S460 N461 1.613 . S
S460 N462 1.610 . S
N461 S460 1.613 . S
N461 C464 1.350 . S
N462 S460 1.610 . S
N462 C463 1.351 . S
C463 C457 1.428 . S
C463 N462 1.351 . S
C463 C464 1.434 . S
C464 C455 1.429 . S
C464 N461 1.350 . S
C464 C463 1.434 . S
C465 C466 1.369 . S
C465 C467 1.419 . S
C465 H469 0.930 . S
C466 C465 1.369 . S
C466 C475 1.429 . S
C467 C465 1.419 . S
C467 C468 1.363 . S
C467 H470 0.929 . S
C468 C467 1.363 . S
C468 C474 1.428 1_565 S
H469 C465 0.930 . S
H470 C467 0.929 . S
S471 N472 1.615 1_545 S
S471 N473 1.610 . S
N472 S471 1.615 1_565 S
N472 C475 1.349 . S
N473 S471 1.610 . S
N473 C474 1.351 . S
C474 C468 1.428 1_545 S
C474 N473 1.351 . S
C474 C475 1.434 1_545 S
C475 C466 1.429 . S
C475 N472 1.349 . S
C475 C474 1.434 1_565 S
C476 C477 1.369 . S
C476 C478 1.419 1_545 S
C476 H480 0.930 . S
C477 C476 1.369 . S
C477 C486 1.429 . S
C478 C476 1.419 1_565 S
C478 C479 1.363 1_565 S
C478 H481 0.929 . S
C479 C478 1.363 1_545 S
C479 C485 1.428 . S
H480 C476 0.930 . S
H481 C478 0.929 . S
S482 N483 1.613 . S
S482 N484 1.610 . S
N483 S482 1.613 . S
N483 C486 1.350 . S
N484 S482 1.610 . S
N484 C485 1.351 . S
C485 C479 1.428 . S
C485 N484 1.351 . S
C485 C486 1.434 . S
C486 C477 1.429 . S
C486 N483 1.350 . S
C486 C485 1.434 . S
C487 C488 1.369 . S
C487 C489 1.419 . S
C487 H491 0.930 . S
C488 C487 1.369 . S
C488 C497 1.429 . S
C489 C487 1.419 . S
C489 C490 1.363 . S
C489 H492 0.929 . S
C490 C489 1.363 . S
C490 C496 1.428 . S
H491 C487 0.930 . S
H492 C489 0.929 . S
S493 N494 1.613 . S
S493 N495 1.610 . S
N494 S493 1.613 . S
N494 C497 1.350 . S
N495 S493 1.610 . S
N495 C496 1.351 . S
C496 C490 1.428 . S
C496 N495 1.351 . S
C496 C497 1.434 . S
C497 C488 1.429 . S
C497 N494 1.350 . S
C497 C496 1.434 . S
C498 C499 1.369 . S
C498 C500 1.419 . S
C498 H502 0.930 . S
C499 C498 1.369 . S
C499 C508 1.429 . S
C500 C498 1.419 . S
C500 C501 1.363 . S
C500 H503 0.929 . S
C501 C500 1.363 . S
C501 C507 1.428 . S
H502 C498 0.930 . S
H503 C500 0.929 . S
S504 N505 1.613 . S
S504 N506 1.610 . S
N505 S504 1.613 . S
N505 C508 1.350 . S
N506 S504 1.610 . S
N506 C507 1.351 . S
C507 C501 1.428 . S
C507 N506 1.351 . S
C507 C508 1.434 . S
C508 C499 1.429 . S
C508 N505 1.350 . S
C508 C507 1.434 . S
C509 C510 1.369 . S
C509 C511 1.420 1_545 S
C509 H513 0.930 . S
C510 C509 1.369 . S
C510 C519 1.429 . S
C511 C509 1.420 1_565 S
C511 C512 1.363 1_565 S
C511 H514 0.927 . S
C512 C511 1.363 1_545 S
C512 C518 1.428 . S
H513 C509 0.930 . S
H514 C511 0.927 . S
S515 N516 1.613 1_655 S
S515 N517 1.610 1_655 S
N516 S515 1.613 1_455 S
N516 C519 1.350 . S
N517 S515 1.610 1_455 S
N517 C518 1.351 . S
C518 C512 1.428 . S
C518 N517 1.351 . S
C518 C519 1.434 . S
C519 C510 1.429 . S
C519 N516 1.350 . S
C519 C518 1.434 . S
C520 C521 1.369 . S
C520 C522 1.419 1_556 S
C520 H524 0.930 . S
C521 C520 1.369 . S
C521 C530 1.429 . S
C522 C520 1.419 1_554 S
C522 C523 1.363 . S
C522 H525 0.929 . S
C523 C522 1.363 . S
C523 C529 1.428 . S
H524 C520 0.930 . S
H525 C522 0.929 . S
S526 N527 1.613 . S
S526 N528 1.610 1_556 S
N527 S526 1.613 . S
N527 C530 1.350 . S
N528 S526 1.610 1_554 S
N528 C529 1.351 . S
C529 C523 1.428 . S
C529 N528 1.351 . S
C529 C530 1.434 1_554 S
C530 C521 1.429 . S
C530 N527 1.350 . S
C530 C529 1.434 1_556 S
C531 C532 1.369 . S
C531 C533 1.419 . S
C531 H535 0.930 . S
C532 C531 1.369 . S
C532 C541 1.429 . S
C533 C531 1.419 . S
C533 C534 1.363 . S
C533 H536 0.929 . S
C534 C533 1.363 . S
C534 C540 1.428 . S
H535 C531 0.930 . S
H536 C533 0.929 . S
S537 N538 1.613 . S
S537 N539 1.610 . S
N538 S537 1.613 . S
N538 C541 1.350 . S
N539 S537 1.610 . S
N539 C540 1.351 . S
C540 C534 1.428 . S
C540 N539 1.351 . S
C540 C541 1.434 . S
C541 C532 1.429 . S
C541 N538 1.350 . S
C541 C540 1.434 . S
C542 C543 1.369 . S
C542 C544 1.419 1_554 S
C542 H546 0.930 . S
C543 C542 1.369 . S
C543 C552 1.429 . S
C544 C542 1.419 1_556 S
C544 C545 1.363 . S
C544 H547 0.929 . S
C545 C544 1.363 . S
C545 C551 1.428 . S
H546 C542 0.930 . S
H547 C544 0.929 . S
S548 N549 1.613 . S
S548 N550 1.610 1_554 S
N549 S548 1.613 . S
N549 C552 1.350 . S
N550 S548 1.610 1_556 S
N550 C551 1.351 . S
C551 C545 1.428 . S
C551 N550 1.351 . S
C551 C552 1.434 1_556 S
C552 C543 1.429 . S
C552 N549 1.350 . S
C552 C551 1.434 1_554 S
C553 C554 1.369 . S
C553 C555 1.419 . S
C553 H557 0.930 . S
C554 C553 1.369 . S
C554 C563 1.429 . S
C555 C553 1.419 . S
C555 C556 1.363 . S
C555 H558 0.929 . S
C556 C555 1.363 . S
C556 C562 1.428 . S
H557 C553 0.930 . S
H558 C555 0.929 . S
S559 N560 1.613 . S
S559 N561 1.610 . S
N560 S559 1.613 . S
N560 C563 1.350 . S
N561 S559 1.610 . S
N561 C562 1.351 . S
C562 C556 1.428 . S
C562 N561 1.351 . S
C562 C563 1.434 . S
C563 C554 1.429 . S
C563 N560 1.350 . S
C563 C562 1.434 . S
C564 C565 1.369 . S
C564 C566 1.419 1_554 S
C564 H568 0.930 . S
C565 C564 1.369 . S
C565 C574 1.429 . S
C566 C564 1.419 1_556 S
C566 C567 1.363 . S
C566 H569 0.929 . S
C567 C566 1.363 . S
C567 C573 1.437 . S
H568 C564 0.930 . S
H569 C566 0.929 . S
S570 N571 1.613 . S
S570 N572 1.610 . S
N571 S570 1.613 . S
N571 C574 1.350 . S
N572 S570 1.610 . S
N572 C573 1.350 1_554 S
C573 C567 1.437 . S
C573 N572 1.350 1_556 S
C573 C574 1.425 1_556 S
C574 C565 1.429 . S
C574 N571 1.350 . S
C574 C573 1.425 1_554 S
C575 C576 1.369 . S
C575 C577 1.419 . S
C575 H579 0.930 . S
C576 C575 1.369 . S
C576 C585 1.429 . S
C577 C575 1.419 . S
C577 C578 1.363 . S
C577 H580 0.929 . S
C578 C577 1.363 . S
C578 C584 1.428 . S
H579 C575 0.930 . S
H580 C577 0.929 . S
S581 N582 1.613 . S
S581 N583 1.610 . S
N582 S581 1.613 . S
N582 C585 1.350 . S
N583 S581 1.610 . S
N583 C584 1.351 . S
C584 C578 1.428 . S
C584 N583 1.351 . S
C584 C585 1.434 . S
C585 C576 1.429 . S
C585 N582 1.350 . S
C585 C584 1.434 . S
C586 C587 1.369 . S
C586 C588 1.407 1_556 S
C586 H590 0.930 . S
C587 C586 1.369 . S
C587 C596 1.429 . S
C588 C586 1.407 1_554 S
C588 C589 1.374 . S
C588 H591 0.930 . S
C589 C588 1.374 . S
C589 C595 1.428 . S
H590 C586 0.930 . S
H591 C588 0.930 . S
S592 N593 1.613 1_554 S
S592 N594 1.610 . S
N593 S592 1.613 1_556 S
N593 C596 1.350 . S
N594 S592 1.610 . S
N594 C595 1.351 . S
C595 C589 1.428 . S
C595 N594 1.351 . S
C595 C596 1.434 1_554 S
C596 C587 1.429 . S
C596 N593 1.350 . S
C596 C595 1.434 1_556 S
C597 C598 1.369 . S
C597 C599 1.419 . S
C597 H601 0.930 . S
C598 C597 1.369 . S
C598 C607 1.429 . S
C599 C597 1.419 . S
C599 C600 1.363 . S
C599 H602 0.929 . S
C600 C599 1.363 . S
C600 C606 1.428 . S
H601 C597 0.930 . S
H602 C599 0.929 . S
S603 N604 1.613 . S
S603 N605 1.610 . S
N604 S603 1.613 . S
N604 C607 1.350 . S
N605 S603 1.610 . S
N605 C606 1.351 . S
C606 C600 1.428 . S
C606 N605 1.351 . S
C606 C607 1.434 . S
C607 C598 1.429 . S
C607 N604 1.350 . S
C607 C606 1.434 . S
C608 C609 1.369 . S
C608 C610 1.419 . S
C608 H612 0.930 . S
C609 C608 1.369 . S
C609 C618 1.429 . S
C610 C608 1.419 . S
C610 C611 1.363 . S
C610 H613 0.929 . S
C611 C610 1.363 . S
C611 C617 1.428 . S
H612 C608 0.930 . S
H613 C610 0.929 . S
S614 N615 1.613 . S
S614 N616 1.610 . S
N615 S614 1.613 . S
N615 C618 1.350 . S
N616 S614 1.610 . S
N616 C617 1.351 . S
C617 C611 1.428 . S
C617 N616 1.351 . S
C617 C618 1.434 . S
C618 C609 1.429 . S
C618 N615 1.350 . S
C618 C617 1.434 . S
C619 C620 1.369 . S
C619 C621 1.419 . S
C619 H623 0.930 . S
C620 C619 1.369 . S
C620 C629 1.429 . S
C621 C619 1.419 . S
C621 C622 1.363 . S
C621 H624 0.929 . S
C622 C621 1.363 . S
C622 C628 1.428 . S
H623 C619 0.930 . S
H624 C621 0.929 . S
S625 N626 1.613 . S
S625 N627 1.610 . S
N626 S625 1.613 . S
N626 C629 1.350 . S
N627 S625 1.610 . S
N627 C628 1.351 . S
C628 C622 1.428 . S
C628 N627 1.351 . S
C628 C629 1.434 . S
C629 C620 1.429 . S
C629 N626 1.350 . S
C629 C628 1.434 . S
C630 C631 1.369 . S
C630 C632 1.419 . S
C630 H634 0.930 . S
C631 C630 1.369 . S
C631 C640 1.429 . S
C632 C630 1.419 . S
C632 C633 1.363 . S
C632 H635 0.929 . S
C633 C632 1.363 . S
C633 C639 1.428 . S
H634 C630 0.930 . S
H635 C632 0.929 . S
S636 N637 1.613 . S
S636 N638 1.610 . S
N637 S636 1.613 . S
N637 C640 1.350 . S
N638 S636 1.610 . S
N638 C639 1.351 . S
C639 C633 1.428 . S
C639 N638 1.351 . S
C639 C640 1.434 . S
C640 C631 1.429 . S
C640 N637 1.350 . S
C640 C639 1.434 . S
C641 C642 1.369 . S
C641 C643 1.419 . S
C641 H645 0.930 . S
C642 C641 1.369 . S
C642 C651 1.429 . S
C643 C641 1.419 . S
C643 C644 1.363 . S
C643 H646 0.929 . S
C644 C643 1.363 . S
C644 C650 1.428 . S
H645 C641 0.930 . S
H646 C643 0.929 . S
S647 N648 1.613 . S
S647 N649 1.610 . S
N648 S647 1.613 . S
N648 C651 1.350 . S
N649 S647 1.610 . S
N649 C650 1.351 . S
C650 C644 1.428 . S
C650 N649 1.351 . S
C650 C651 1.434 . S
C651 C642 1.429 . S
C651 N648 1.350 . S
C651 C650 1.434 . S
C652 C653 1.369 . S
C652 C654 1.419 . S
C652 H656 0.930 . S
C653 C652 1.369 . S
C653 C662 1.429 . S
C654 C652 1.419 . S
C654 C655 1.363 . S
C654 H657 0.929 . S
C655 C654 1.363 . S
C655 C661 1.428 . S
H656 C652 0.930 . S
H657 C654 0.929 . S
S658 N659 1.613 . S
S658 N660 1.610 . S
N659 S658 1.613 . S
N659 C662 1.350 . S
N660 S658 1.610 . S
N660 C661 1.351 . S
C661 C655 1.428 . S
C661 N660 1.351 . S
C661 C662 1.434 . S
C662 C653 1.429 . S
C662 N659 1.350 . S
C662 C661 1.434 . S
C663 C664 1.369 . S
C663 C665 1.419 . S
C663 H667 0.930 . S
C664 C663 1.369 . S
C664 C673 1.429 . S
C665 C663 1.419 . S
C665 C666 1.363 . S
C665 H668 0.929 . S
C666 C665 1.363 . S
C666 C672 1.428 . S
H667 C663 0.930 . S
H668 C665 0.929 . S
S669 N670 1.613 . S
S669 N671 1.610 . S
N670 S669 1.613 . S
N670 C673 1.350 . S
N671 S669 1.610 . S
N671 C672 1.351 . S
C672 C666 1.428 . S
C672 N671 1.351 . S
C672 C673 1.434 . S
C673 C664 1.429 . S
C673 N670 1.350 . S
C673 C672 1.434 . S
C674 C675 1.369 . S
C674 C676 1.419 . S
C674 H678 0.930 . S
C675 C674 1.369 . S
C675 C684 1.429 . S
C676 C674 1.419 . S
C676 C677 1.363 . S
C676 H679 0.929 . S
C677 C676 1.363 . S
C677 C683 1.428 . S
H678 C674 0.930 . S
H679 C676 0.929 . S
S680 N681 1.613 . S
S680 N682 1.610 . S
N681 S680 1.613 . S
N681 C684 1.350 . S
N682 S680 1.610 . S
N682 C683 1.351 . S
C683 C677 1.428 . S
C683 N682 1.351 . S
C683 C684 1.434 . S
C684 C675 1.429 . S
C684 N681 1.350 . S
C684 C683 1.434 . S
C685 C686 1.369 . S
C685 C687 1.419 . S
C685 H689 0.930 . S
C686 C685 1.369 . S
C686 C695 1.429 . S
C687 C685 1.419 . S
C687 C688 1.363 . S
C687 H690 0.929 . S
C688 C687 1.363 . S
C688 C694 1.428 . S
H689 C685 0.930 . S
H690 C687 0.929 . S
S691 N692 1.613 . S
S691 N693 1.610 . S
N692 S691 1.613 . S
N692 C695 1.350 . S
N693 S691 1.610 . S
N693 C694 1.351 . S
C694 C688 1.428 . S
C694 N693 1.351 . S
C694 C695 1.434 . S
C695 C686 1.429 . S
C695 N692 1.350 . S
C695 C694 1.434 . S
C433 C81 1.675 . S
C435 C170 1.665 1_565 S
C446 C254 1.665 . S
C444 C93 1.675 . S
C457 C247 1.667 . S
C455 C57 1.674 . S
C466 C69 1.674 . S
C468 C163 1.664 1_565 S
C479 C327 1.663 1_545 S
C477 C33 1.670 . S
C490 C411 1.662 . S
C488 C45 1.672 . S
C499 C9 1.668 . S
C501 C404 1.666 . S
C510 C21 1.666 . S
C512 C320 1.666 1_545 S
C523 C154 1.451 . S
C521 C18 1.602 . S
C534 C238 1.445 . S
C532 C6 1.605 . S
C545 C249 1.372 . S
C543 C42 1.602 . S
C556 C165 1.362 . S
C554 C30 1.605 . S
C567 C333 1.447 . S
C565 C66 1.610 . S
C576 C54 1.613 . S
C578 C417 1.444 . S
C589 C406 1.361 . S
C587 C90 1.611 . S
C598 C78 1.608 . S
C600 C322 1.374 . S
C611 C152 1.522 . S
C609 C4 1.502 . S
C622 C236 1.523 . S
C620 C16 1.503 . S
C631 C28 1.499 . S
C633 C243 1.488 . S
C644 C159 1.488 . S
C642 C40 1.498 . S
C655 C331 1.522 . S
C653 C52 1.498 . S
C664 C64 1.498 . S
C666 C415 1.523 . S
C675 C76 1.497 . S
C677 C422 1.493 . S
C686 C88 1.497 . S
C688 C338 1.493 . S
