# Generated by pormake.
# Topology zzz, (3,6)-cn, num edge types: 1
# Building blocks:
#     Node 0, Type 0, BuildingBlock: BETDAH_clean_linker_0, # of connection points: 3
#     Node 1, Type 0, BuildingBlock: BETDAH_clean_linker_0, # of connection points: 3
#     Node 2, Type 0, BuildingBlock: BETDAH_clean_linker_0, # of connection points: 3
#     Node 3, Type 0, BuildingBlock: BETDAH_clean_linker_0, # of connection points: 3
#     Node 4, Type 0, BuildingBlock: BETDAH_clean_linker_0, # of connection points: 3
#     Node 5, Type 0, BuildingBlock: BETDAH_clean_linker_0, # of connection points: 3
#     Node 6, Type 0, BuildingBlock: BETDAH_clean_linker_0, # of connection points: 3
#     Node 7, Type 0, BuildingBlock: BETDAH_clean_linker_0, # of connection points: 3
#     Node 8, Type 1, BuildingBlock: KUMJIN_clean_sbu_0, # of connection points: 6
#     Node 9, Type 1, BuildingBlock: KUMJIN_clean_sbu_0, # of connection points: 6
#     Node 10, Type 1, BuildingBlock: KUMJIN_clean_sbu_0, # of connection points: 6
#     Node 11, Type 1, BuildingBlock: KUMJIN_clean_sbu_0, # of connection points: 6
#     Edge 12, Type (0, 1), BuildingBlock: XUDNAN_clean_linker_2, # of connection points: 2
#     Edge 13, Type (0, 1), BuildingBlock: XUDNAN_clean_linker_2, # of connection points: 2
#     Edge 14, Type (0, 1), BuildingBlock: XUDNAN_clean_linker_2, # of connection points: 2
#     Edge 15, Type (0, 1), BuildingBlock: XUDNAN_clean_linker_2, # of connection points: 2
#     Edge 16, Type (0, 1), BuildingBlock: XUDNAN_clean_linker_2, # of connection points: 2
#     Edge 17, Type (0, 1), BuildingBlock: XUDNAN_clean_linker_2, # of connection points: 2
#     Edge 18, Type (0, 1), BuildingBlock: XUDNAN_clean_linker_2, # of connection points: 2
#     Edge 19, Type (0, 1), BuildingBlock: XUDNAN_clean_linker_2, # of connection points: 2
#     Edge 20, Type (0, 1), BuildingBlock: XUDNAN_clean_linker_2, # of connection points: 2
#     Edge 21, Type (0, 1), BuildingBlock: XUDNAN_clean_linker_2, # of connection points: 2
#     Edge 22, Type (0, 1), BuildingBlock: XUDNAN_clean_linker_2, # of connection points: 2
#     Edge 23, Type (0, 1), BuildingBlock: XUDNAN_clean_linker_2, # of connection points: 2
#     Edge 24, Type (0, 1), BuildingBlock: XUDNAN_clean_linker_2, # of connection points: 2
#     Edge 25, Type (0, 1), BuildingBlock: XUDNAN_clean_linker_2, # of connection points: 2
#     Edge 26, Type (0, 1), BuildingBlock: XUDNAN_clean_linker_2, # of connection points: 2
#     Edge 27, Type (0, 1), BuildingBlock: XUDNAN_clean_linker_2, # of connection points: 2
#     Edge 28, Type (0, 1), BuildingBlock: XUDNAN_clean_linker_2, # of connection points: 2
#     Edge 29, Type (0, 1), BuildingBlock: XUDNAN_clean_linker_2, # of connection points: 2
#     Edge 30, Type (0, 1), BuildingBlock: XUDNAN_clean_linker_2, # of connection points: 2
#     Edge 31, Type (0, 1), BuildingBlock: XUDNAN_clean_linker_2, # of connection points: 2
#     Edge 32, Type (0, 1), BuildingBlock: XUDNAN_clean_linker_2, # of connection points: 2
#     Edge 33, Type (0, 1), BuildingBlock: XUDNAN_clean_linker_2, # of connection points: 2
#     Edge 34, Type (0, 1), BuildingBlock: XUDNAN_clean_linker_2, # of connection points: 2
#     Edge 35, Type (0, 1), BuildingBlock: XUDNAN_clean_linker_2, # of connection points: 2
# Relax obj value: 0.177
# Max RMSD: 0.165
# Mean RMSD: 0.117
data_MOF--net-zzz--node1-KUMJIN_clean_sbu_0--node2-BETDAH_clean_linker_0--edge1-XUDNAN_clean_linker_2
_symmetry_space_group_name_H-M    P1
_symmetry_Int_Tables_number       1
_symmetry_cell_setting            triclinic
loop_
_symmetry_equiv_pos_as_xyz
'x, y, z'
_cell_length_a     50.464275
_cell_length_b     50.475212
_cell_length_c     14.737696
_cell_angle_alpha  91.618183
_cell_angle_beta   90.070749
_cell_angle_gamma 89.993639
loop_
_atom_site_label
_atom_site_type_symbol
_atom_site_fract_x
_atom_site_fract_y
_atom_site_fract_z
_atom_type_partial_charge
H0 H 0.81951 0.56156 0.21904 0.0
H1 H 0.74158 0.54868 0.11212 0.0
H2 H 0.76121 0.5213 0.37854 0.0
C3 C 0.7994 0.55479 0.22975 0.0
C4 C 0.79299 0.54158 0.30952 0.0
C5 C 0.78088 0.55736 0.15934 0.0
C6 C 0.75537 0.54706 0.16809 0.0
C7 C 0.74795 0.53428 0.2475 0.0
C8 C 0.76684 0.53157 0.31799 0.0
N9 N 0.72198 0.52342 0.25684 0.0
C10 C 0.7032 0.52159 0.1867 0.0
H11 H 0.01903 0.83001 0.13969 0.0
H12 H 1.0111 0.74752 0.06622 0.0
H13 H 1.01156 0.77275 0.34866 0.0
C14 C 0.01584 0.80973 0.15949 0.0
C15 C 1.0147 0.80425 0.25215 0.0
C16 C 1.01466 0.78942 0.09245 0.0
C17 C 1.01198 0.76308 0.11826 0.0
C18 C 1.01075 0.75668 0.21024 0.0
C19 C 1.01183 0.77749 0.27745 0.0
N20 N 1.00924 0.72957 0.23592 0.0
C21 C 1.01337 0.70764 0.17642 0.0
H22 H 0.70724 0.02253 0.18321 0.0
H23 H 0.78854 1.01286 0.1042 0.0
H24 H 0.7634 0.99043 0.37111 0.0
C25 C 0.72721 0.01636 0.19991 0.0
C26 C 0.73259 1.00655 0.28624 0.0
C27 C 0.74725 0.01858 0.1346 0.0
C28 C 0.77319 1.01082 0.15487 0.0
C29 C 0.77917 1.00031 0.2398 0.0
C30 C 0.75875 0.99819 0.30517 0.0
N31 N 0.80542 0.99201 0.26177 0.0
C32 C 0.82719 0.99171 0.2026 0.0
H33 H 0.57282 0.71939 0.26553 0.0
H34 H 0.56785 0.79729 0.16055 0.0
H35 H 0.5252 0.77854 0.40375 0.0
C36 C 0.56539 0.73946 0.27172 0.0
C37 C 0.54767 0.74608 0.34208 0.0
C38 C 0.57235 0.75758 0.20525 0.0
C39 C 0.56289 0.78363 0.2129 0.0
C40 C 0.5465 0.79166 0.28594 0.0
C41 C 0.53876 0.77268 0.34994 0.0
N42 N 0.53677 0.81826 0.29446 0.0
C43 C 0.54224 0.83832 0.23323 0.0
H44 H 0.22098 0.55595 0.08176 0.0
H45 H 0.29367 0.5409 0.22053 0.0
H46 H 0.26887 0.48884 0.99905 0.0
C47 C 0.239 0.54437 0.08616 0.0
C48 C 0.24249 0.52192 0.02912 0.0
C49 C 0.25741 0.55127 0.15408 0.0
C50 C 0.27995 0.53565 0.16637 0.0
C51 C 0.28439 0.51312 0.10999 0.0
C52 C 0.26552 0.50631 0.04181 0.0
N53 N 0.30718 0.49672 0.12166 0.0
C54 C 0.32796 0.50232 0.18246 0.0
H55 H 0.05764 0.20702 0.14338 0.0
H56 H 0.05197 0.28886 0.22571 0.0
H57 H 1.00527 0.25858 1.00072 0.0
C58 C 0.05042 0.22684 0.13106 0.0
C59 C 0.0319 0.23029 0.06138 0.0
C60 C 0.05702 0.24771 0.19202 0.0
C61 C 0.04664 0.27302 0.1785 0.0
C62 C 0.02786 0.27737 0.11032 0.0
C63 C 0.02034 0.25573 0.05193 0.0
N64 N 0.01533 0.30276 0.10338 0.0
C65 C 0.01913 0.32433 0.16487 0.0
H66 H 0.33601 0.05217 0.1158 0.0
H67 H 0.25571 0.05032 0.21245 0.0
H68 H 0.27479 0.01942 0.94412 0.0
C69 C 0.31523 0.04773 0.10407 0.0
C70 C 0.30782 0.03546 0.02159 0.0
C71 C 0.29657 0.05348 0.17264 0.0
C72 C 0.26992 0.04651 0.15863 0.0
C73 C 0.2618 0.03416 0.07634 0.0
C74 C 0.28086 0.02901 1.00747 0.0
N75 N 0.23495 0.02607 0.06195 0.0
C76 C 0.21413 0.03004 0.12382 0.0
H77 H 0.47595 0.3252 0.11109 0.0
H78 H 0.48616 0.24832 0.22266 0.0
H79 H 0.51332 0.26364 0.95117 0.0
C80 C 0.48238 0.30482 0.10304 0.0
C81 C 0.49566 0.2971 0.02354 0.0
C82 C 0.4795 0.28783 0.17596 0.0
C83 C 0.48777 0.26134 0.16576 0.0
C84 C 0.49899 0.25216 0.08294 0.0
C85 C 0.50332 0.2703 0.0127 0.0
N86 N 0.50742 0.22533 0.06958 0.0
C87 C 0.50281 0.20463 0.12883 0.0
Eu88 Eu 0.04658 1.00282 0.74593 0.0
C89 C 0.94879 0.99174 0.50786 0.0
C90 C 0.96587 0.96427 0.38424 0.0
C91 C 0.9193 0.96169 0.42389 0.0
C92 C 0.96986 0.98342 0.45492 0.0
C93 C 0.92312 0.98141 0.49163 0.0
C94 C 0.94064 0.95317 0.37015 0.0
C95 C 0.90623 1.01302 0.60283 0.0
N96 N 0.95296 1.01127 0.5711 0.0
C97 C 0.93193 0.02266 0.61612 0.0
C98 C 0.90184 0.99199 0.54136 0.0
Eu99 Eu 0.99718 0.02668 0.59402 0.0
N100 N 0.99384 0.99513 0.46881 0.0
C101 C 1.01424 0.98924 0.41026 0.0
C102 C 0.9871 0.95744 0.32769 0.0
C103 C 1.01128 0.97025 0.34009 0.0
H104 H 0.93514 0.03926 0.66278 0.0
H105 H 0.02777 0.96548 0.29564 0.0
H106 H 0.93727 0.93847 0.31638 0.0
H107 H 0.88978 0.02205 0.63911 0.0
H108 H 0.03326 0.9984 0.41688 0.0
H109 H 0.03172 0.97709 0.101 0.0
H110 H 0.98486 0.94281 0.27298 0.0
H111 H 0.08259 0.05333 0.66157 0.0
H112 H 0.02884 0.97116 0.9347 0.0
H113 H 0.11557 0.08522 0.71565 0.0
H114 H 0.89979 0.95346 0.41074 0.0
H115 H 0.05621 0.01529 0.16801 0.0
H116 H 0.08582 0.05416 0.14401 0.0
H117 H 0.88186 0.98469 0.53055 0.0
H118 H 0.11054 0.08195 0.03918 0.0
N119 N 0.04758 1.00785 0.90729 0.0
C120 C 0.0379 0.98891 0.96318 0.0
C121 C 0.05389 1.01341 0.09497 0.0
C122 C 0.06596 0.03138 0.03747 0.0
C123 C 0.04005 0.99186 0.05747 0.0
C124 C 0.06221 0.02818 0.94269 0.0
H125 H 0.12371 0.09162 0.87988 0.0
N126 N 0.07151 0.04073 0.79315 0.0
C127 C 0.10438 0.07391 0.76379 0.0
C128 C 0.07528 0.04451 0.88384 0.0
C129 C 0.08554 0.05548 0.73327 0.0
C130 C 0.10882 0.07754 0.85643 0.0
C131 C 0.0936 0.06348 0.91792 0.0
O132 O 0.08701 0.99164 0.70698 0.0
O133 O 0.02368 0.9925 0.61936 0.0
O134 O 0.9748 1.008 0.71212 0.0
O135 O 1.00702 0.99856 0.82008 0.0
O136 O 0.02314 0.96486 0.71835 0.0
O137 O 0.06602 0.96856 0.80382 0.0
O138 O 0.96947 0.05534 0.53709 0.0
O139 O 0.02544 0.04038 0.70775 0.0
O140 O 0.06738 1.01064 0.61183 0.0
O141 O 0.03672 0.03285 0.52412 0.0
O142 O 0.98565 0.05005 0.71942 0.0
O143 O 1.01119 0.0612 0.52209 0.0
C144 C 0.01595 0.9692 0.636 0.0
C145 C 0.09232 0.94517 0.69503 0.0
C146 C 0.08151 0.89909 0.65355 0.0
C147 C 0.07859 0.92163 0.71111 0.0
C148 C 0.0995 0.9001 0.58097 0.0
C149 C 0.11052 0.94561 0.62305 0.0
C150 C 0.11402 0.92319 0.56643 0.0
C151 C 0.98196 1.00005 0.79364 0.0
C152 C 0.08635 0.96949 0.74978 0.0
C153 C 0.09685 0.06721 0.012 0.0
C154 C 0.08275 0.05144 0.07168 0.0
C155 C 1.00858 0.05339 0.75633 0.0
C156 C 0.98648 0.09848 0.56654 0.0
C157 C 1.00646 0.11696 0.55037 0.0
C158 C 1.00888 0.14016 0.60461 0.0
C159 C 0.99041 0.1451 0.6744 0.0
C160 C 0.96791 0.10392 0.63575 0.0
C161 C 0.96991 0.12715 0.6891 0.0
C162 C 0.06092 0.02394 0.539 0.0
C163 C 0.98801 0.07224 0.52022 0.0
H164 H 0.06563 0.92088 0.76944 0.0
H165 H 0.1022 0.88321 0.53498 0.0
H166 H 0.12178 0.96334 0.60994 0.0
H167 H 0.12785 0.9238 0.51045 0.0
H168 H 0.0204 0.11293 0.49577 0.0
H169 H 0.99188 0.16271 0.71782 0.0
H170 H 0.95239 0.0899 0.65072 0.0
H171 H 0.95581 0.13102 0.74317 0.0
Eu172 Eu 0.52728 0.04537 0.75321 0.0
C173 C 0.55999 0.94744 0.5172 0.0
C174 C 0.58348 0.96665 0.39155 0.0
C175 C 0.5943 0.92212 0.43719 0.0
C176 C 0.56411 0.96862 0.46081 0.0
C177 C 0.57477 0.92382 0.50474 0.0
C178 C 0.59865 0.94348 0.38081 0.0
C179 C 0.54862 0.90421 0.62223 0.0
N180 N 0.54108 0.94951 0.58243 0.0
C181 C 0.53437 0.92783 0.63164 0.0
C182 C 0.56913 0.90228 0.55921 0.0
Eu183 Eu 0.51704 0.99004 0.59219 0.0
N184 N 0.54935 0.99104 0.47323 0.0
C185 C 0.55277 1.01177 0.41618 0.0
C186 C 0.58708 0.98797 0.33457 0.0
C187 C 0.57155 1.01053 0.34669 0.0
H188 H 0.51838 0.92912 0.68044 0.0
H189 H 0.57415 0.02717 0.30278 0.0
H190 H 0.61364 0.94178 0.3284 0.0
H191 H 0.54369 0.88748 0.66335 0.0
H192 H 0.54172 0.02978 0.42339 0.0
H193 H 0.53852 0.02279 0.11471 0.0
H194 H 0.60172 0.98717 0.28083 0.0
H195 H 0.48041 0.08694 0.66074 0.0
H196 H 0.55313 0.02718 0.95688 0.0
H197 H 0.43833 0.10671 0.70275 0.0
H198 H 0.6059 0.90422 0.42715 0.0
H199 H 0.49327 0.0362 0.15958 0.0
H200 H 0.45091 0.0583 0.11935 0.0
H201 H 0.58008 0.88388 0.55164 0.0
H202 H 0.424 0.08148 1.00804 0.0
N203 N 0.51559 0.04073 0.90918 0.0
C204 C 0.53306 0.03275 0.97469 0.0
C205 C 0.4994 0.03782 0.08952 0.0
C206 C 0.48263 0.04882 0.02505 0.0
C207 C 0.52495 0.03028 0.06457 0.0
C208 C 0.49142 0.05031 0.93413 0.0
H209 H 0.41926 0.09974 0.85413 0.0
N210 N 0.48595 0.06673 0.78557 0.0
C211 C 0.44868 0.09451 0.75054 0.0
C212 C 0.47631 0.06373 0.87107 0.0
C213 C 0.47285 0.08277 0.72674 0.0
C214 C 0.43798 0.09052 0.83594 0.0
C215 C 0.45197 0.07547 0.89798 0.0
O216 O 0.53508 0.08742 0.78061 0.0
O217 O 0.54745 1.01442 0.66431 0.0
O218 O 0.54108 0.97485 0.70955 0.0
O219 O 0.5308 1.00522 0.82472 0.0
O220 O 0.56224 0.05208 0.65872 0.0
O221 O 0.56268 0.05769 0.82726 0.0
O222 O 0.48914 0.95749 0.57584 0.0
O223 O 0.49641 0.02124 0.68008 0.0
O224 O 0.51746 0.06401 0.62022 0.0
O225 O 0.50652 0.02863 0.5215 0.0
O226 O 0.48531 0.98225 0.69765 0.0
O227 O 0.49509 0.98439 0.46535 0.0
C228 C 0.56534 0.02821 0.62918 0.0
C229 C 0.58127 0.09674 0.76968 0.0
C230 C 0.62886 0.09798 0.73894 0.0
C231 C 0.60717 0.08839 0.7879 0.0
C232 C 0.62457 0.11736 0.6741 0.0
C233 C 0.57728 0.11609 0.70412 0.0
C234 C 0.59887 0.12642 0.65722 0.0
C235 C 0.53894 0.98143 0.79647 0.0
C236 C 0.55882 0.08284 0.81239 0.0
C237 C 0.44271 0.07277 0.98687 0.0
C238 C 0.45801 0.05953 0.05024 0.0
C239 C 0.48046 1.0065 0.72173 0.0
C240 C 0.45293 0.96472 0.48225 0.0
C241 C 0.43816 0.98762 0.503 0.0
C242 C 0.41044 0.98752 0.49323 0.0
C243 C 0.3979 0.96385 0.46306 0.0
C244 C 0.4401 0.94142 0.45327 0.0
C245 C 0.41265 0.94101 0.44391 0.0
C246 C 0.50943 0.05438 0.5406 0.0
C247 C 0.48159 0.96433 0.49543 0.0
H248 H 0.61038 0.07389 0.8397 0.0
H249 H 0.64096 0.12518 0.63578 0.0
H250 H 0.55752 0.12284 0.68767 0.0
H251 H 0.59562 0.14117 0.60647 0.0
H252 H 0.44841 1.0054 0.52593 0.0
H253 H 0.37675 0.96305 0.45103 0.0
H254 H 0.45133 0.92353 0.43816 0.0
H255 H 0.40278 0.92303 0.42061 0.0
Eu256 Eu 0.53728 0.5138 0.59441 0.0
C257 C 0.43498 0.50194 0.79802 0.0
C258 C 0.40453 0.52409 0.69871 0.0
C259 C 0.38951 0.48635 0.78341 0.0
C260 C 0.43009 0.52129 0.73629 0.0
C261 C 0.41455 0.48471 0.82457 0.0
C262 C 0.38448 0.50608 0.72076 0.0
C263 C 0.44391 0.46813 0.93924 0.0
N264 N 0.45914 0.50145 0.83787 0.0
C265 C 0.46334 0.48586 0.91134 0.0
C266 C 0.41952 0.46722 0.89459 0.0
Eu267 Eu 0.49239 0.53047 0.78173 0.0
N268 N 0.44976 0.53867 0.71844 0.0
C269 C 0.44449 0.56057 0.66901 0.0
C270 C 0.39957 0.54557 0.64334 0.0
C271 C 0.41949 0.56421 0.63012 0.0
H272 H 0.48226 0.48635 0.94598 0.0
H273 H 0.4157 0.58128 0.58922 0.0
H274 H 0.36478 0.50783 0.69225 0.0
H275 H 0.44776 0.45524 0.99525 0.0
H276 H 0.45953 0.57516 0.65718 0.0
H277 H 0.58607 0.41728 0.54287 0.0
H278 H 0.38025 0.54839 0.61295 0.0
H279 H 0.56476 0.57215 0.68268 0.0
H280 H 0.54903 0.44863 0.54396 0.0
H281 H 0.60789 0.5894 0.72523 0.0
H282 H 0.37364 0.47313 0.80215 0.0
H283 H 0.63063 0.43218 0.59127 0.0
H284 H 0.66024 0.46878 0.64576 0.0
H285 H 0.40436 0.45366 0.91685 0.0
H286 H 0.66624 0.51546 0.69199 0.0
N287 N 0.57173 0.4814 0.59574 0.0
C288 C 0.56822 0.45562 0.56607 0.0
C289 C 0.61434 0.44616 0.59215 0.0
C290 C 0.61822 0.47267 0.61888 0.0
C291 C 0.58924 0.43766 0.56502 0.0
C292 C 0.59634 0.4902 0.61899 0.0
H293 H 0.64714 0.56033 0.71982 0.0
N294 N 0.57833 0.53318 0.64517 0.0
C295 C 0.60598 0.569 0.70139 0.0
C296 C 0.59977 0.51674 0.64372 0.0
C297 C 0.58126 0.55899 0.67509 0.0
C298 C 0.62804 0.55253 0.69866 0.0
C299 C 0.62512 0.52604 0.67082 0.0
O300 O 0.5254 0.53127 0.46567 0.0
O301 O 0.4953 0.52352 0.63215 0.0
O302 O 0.496 0.48531 0.77322 0.0
O303 O 0.52786 0.47505 0.66277 0.0
O304 O 0.50107 0.48894 0.55727 0.0
O305 O 0.55697 0.50304 0.46616 0.0
O306 O 0.48911 0.53757 0.92818 0.0
O307 O 0.53513 0.52811 0.73854 0.0
O308 O 0.53027 0.55791 0.58544 0.0
O309 O 0.50331 0.56882 0.71015 0.0
O310 O 0.52563 0.51336 0.86457 0.0
O311 O 0.48765 0.57057 0.83963 0.0
C312 C 0.48325 0.50509 0.58893 0.0
C313 C 0.52544 0.49871 0.34861 0.0
C314 C 0.50368 0.45647 0.30951 0.0
C315 C 0.51881 0.47254 0.36897 0.0
C316 C 0.49496 0.46724 0.22759 0.0
C317 C 0.51658 0.50911 0.26687 0.0
C318 C 0.50144 0.49337 0.20658 0.0
C319 C 0.51141 0.46837 0.72793 0.0
C320 C 0.53988 0.51528 0.41649 0.0
C321 C 0.64676 0.5086 0.67113 0.0
C322 C 0.64333 0.48201 0.64514 0.0
C323 C 0.54442 0.51673 0.80747 0.0
C324 C 0.50925 0.57679 0.98205 0.0
C325 C 0.52781 0.59457 0.94688 0.0
C326 C 0.54523 0.60869 1.00498 0.0
C327 C 0.5446 0.60372 0.0987 0.0
C328 C 0.50919 0.57204 0.07539 0.0
C329 C 0.52699 0.58526 0.13313 0.0
C330 C 0.51657 0.57516 0.63597 0.0
C331 C 0.48973 0.5631 0.92301 0.0
H332 H 0.52505 0.46479 0.43275 0.0
H333 H 0.48355 0.45542 0.17913 0.0
H334 H 0.52115 0.52937 0.25016 0.0
H335 H 0.49469 0.50145 0.14332 0.0
H336 H 0.52837 0.59782 0.87465 0.0
H337 H 0.55708 0.61469 0.14628 0.0
H338 H 0.49522 0.55823 0.1037 0.0
H339 H 0.52666 0.58171 0.20523 0.0
Eu340 Eu 0.02783 0.54504 0.58431 0.0
C341 C 0.03695 0.43401 0.77393 0.0
C342 C 1.01498 0.40178 0.6753 0.0
C343 C 0.05037 0.38771 0.77487 0.0
C344 C 0.01825 0.42815 0.70809 0.0
C345 C 0.05295 0.4138 0.8093 0.0
C346 C 0.03142 0.38171 0.70792 0.0
C347 C 0.07165 0.44628 0.91433 0.0
N348 N 0.03888 0.45935 0.80593 0.0
C349 C 0.05533 0.46558 0.87728 0.0
C350 C 0.07067 0.42031 0.87955 0.0
Eu351 Eu 1.01121 0.49152 0.73935 0.0
N352 N 1.00278 0.44808 0.67772 0.0
C353 C 0.98263 0.44248 0.61799 0.0
C354 C 0.99505 0.39627 0.61164 0.0
C355 C 0.97863 0.41668 0.58369 0.0
H356 H 0.05639 0.48566 0.90428 0.0
H357 H 0.9629 0.4126 0.53532 0.0
H358 H 0.02934 0.36142 0.68292 0.0
H359 H 0.08502 0.45148 0.96948 0.0
H360 H 0.96981 0.45773 0.59393 0.0
H361 H 0.07378 0.62757 0.77127 0.0
H362 H 0.99196 0.37632 0.58458 0.0
H363 H 0.98716 0.54948 0.40669 0.0
H364 H 0.06939 0.58173 0.71163 0.0
H365 H 0.95794 0.58239 0.3365 0.0
H366 H 0.0626 0.37195 0.80068 0.0
H367 H 0.0396 0.66081 0.73625 0.0
H368 H 0.9986 0.6724 0.64927 0.0
H369 H 0.08329 0.40536 0.90846 0.0
H370 H 0.96643 0.65988 0.53018 0.0
N371 N 0.03194 0.5882 0.64974 0.0
C372 C 0.05396 0.59583 0.6976 0.0
C373 C 0.03724 0.64053 0.71148 0.0
C374 C 0.0159 0.63318 0.65555 0.0
C375 C 0.05665 0.62188 0.73104 0.0
C376 C 1.01396 0.60657 0.62424 0.0
H377 H 0.95194 0.62667 0.41011 0.0
N378 N 0.99753 0.57485 0.51882 0.0
C379 C 0.96809 0.58735 0.39943 0.0
C380 C 0.99603 0.59961 0.55668 0.0
C381 C 0.98472 0.56881 0.43903 0.0
C382 C 0.96475 0.61229 0.4413 0.0
C383 C 0.97934 0.61896 0.51952 0.0
O384 O 0.04147 0.5528 0.44658 0.0
O385 O 0.02595 0.50148 0.6026 0.0
O386 O 0.05536 0.49003 0.71229 0.0
O387 O 0.06341 0.53386 0.6755 0.0
O388 O 0.01792 0.51345 0.47391 0.0
O389 O 0.0694 0.55386 0.55788 0.0
O390 O 0.9997 0.48803 0.88084 0.0
O391 O 1.01419 0.53589 0.72437 0.0
O392 O 0.98245 0.5443 0.59948 0.0
O393 O 0.97655 0.50105 0.64577 0.0
O394 O 0.02712 0.5209 0.84567 0.0
O395 O 0.96953 0.48772 0.77636 0.0
C396 C 0.01999 0.49303 0.5238 0.0
C397 C 0.07498 0.58592 0.4479 0.0
C398 C 0.11266 0.61571 0.42793 0.0
C399 C 0.10233 0.59011 0.44115 0.0
C400 C 0.09487 0.63711 0.42265 0.0
C401 C 0.05765 0.60739 0.43812 0.0
C402 C 0.06757 0.63286 0.42666 0.0
C403 C 0.07157 0.51048 0.70483 0.0
C404 C 0.06518 0.55966 0.47361 0.0
C405 C 0.97938 0.64485 0.55692 0.0
C406 C 0.99771 0.65198 0.62471 0.0
C407 C 0.02341 0.54229 0.80222 0.0
C408 C 0.96119 0.51312 0.91124 0.0
C409 C 0.93935 0.52592 0.87214 0.0
C410 C 0.92757 0.54795 0.91625 0.0
C411 C 0.93795 0.55712 1.00009 0.0
C412 C 0.97117 0.52271 0.99507 0.0
C413 C 0.9597 0.54469 0.03867 0.0
C414 C 0.96716 0.52334 0.61251 0.0
C415 C 0.97459 0.49088 0.86288 0.0
H416 H 0.11537 0.57313 0.44504 0.0
H417 H 0.10194 0.65715 0.41458 0.0
H418 H 0.03649 0.60462 0.44018 0.0
H419 H 0.05404 0.64938 0.42098 0.0
H420 H 0.93137 0.5187 0.80775 0.0
H421 H 0.92874 0.57342 0.03753 0.0
H422 H 0.98799 0.51333 0.02675 0.0
H423 H 0.96746 0.5519 0.10328 0.0
H424 H 0.19845 1.00129 0.26948 0.0
H425 H 0.17649 0.06731 0.10357 0.0
H426 H 0.13518 0.07335 0.19259 0.0
H427 H 0.13277 0.97448 0.2924 0.0
H428 H 0.13704 0.96502 0.4085 0.0
H429 H 0.16527 0.96622 0.33402 0.0
H430 H 0.18899 0.99851 0.44708 0.0
H431 H 0.16089 0.9972 0.52214 0.0
H432 H 0.17259 0.02869 0.48365 0.0
H433 H 0.09553 0.07146 0.29754 0.0
H434 H 0.06092 0.06211 0.41037 0.0
H435 H 0.10848 0.99768 0.5112 0.0
C436 C 0.18498 0.01713 0.25267 0.0
C437 C 0.19065 0.03403 0.18019 0.0
C438 C 0.17253 0.05434 0.1593 0.0
C439 C 0.149 0.05784 0.20931 0.0
C440 C 0.1438 0.04081 0.28016 0.0
C441 C 0.16131 0.02089 0.30216 0.0
C442 C 0.15075 1.00516 0.38099 0.0
C443 C 0.14619 0.97599 0.35222 0.0
C444 C 0.16942 1.00754 0.46334 0.0
C445 C 0.12463 0.01928 0.39966 0.0
C446 C 0.12098 0.03974 0.34054 0.0
C447 C 0.09818 0.05537 0.34367 0.0
C448 C 0.07856 0.04989 0.4082 0.0
C449 C 0.08188 0.02916 0.47017 0.0
C450 C 0.10536 1.01377 0.46553 0.0
H451 H 0.51848 0.19543 0.30297 0.0
H452 H 0.47974 0.15937 0.06797 0.0
H453 H 0.47591 0.11703 0.14825 0.0
H454 H 0.55661 0.13869 0.36225 0.0
H455 H 0.55331 0.14418 0.48308 0.0
H456 H 0.55202 0.17182 0.40858 0.0
H457 H 0.50631 0.18541 0.47504 0.0
H458 H 0.50757 0.15781 0.54985 0.0
H459 H 0.47973 0.16155 0.47455 0.0
H460 H 0.47797 0.07788 0.25344 0.0
H461 H 0.48521 0.04558 0.37435 0.0
H462 H 0.52216 0.10742 0.54168 0.0
C463 C 0.50891 0.17866 0.26919 0.0
C464 C 0.49914 0.18059 0.17974 0.0
C465 C 0.48708 0.15825 0.13688 0.0
C466 C 0.48487 0.13413 0.18192 0.0
C467 C 0.49481 0.13269 0.27009 0.0
C468 C 0.50651 0.15441 0.31345 0.0
C469 C 0.51607 0.14744 0.40757 0.0
C470 C 0.54629 0.15073 0.4158 0.0
C471 C 0.50155 0.16404 0.48109 0.0
C472 C 0.50811 0.11846 0.41017 0.0
C473 C 0.49588 0.11028 0.33032 0.0
C474 C 0.48742 0.08413 0.31637 0.0
C475 C 0.49163 0.06589 0.38556 0.0
C476 C 0.50412 0.07383 0.46818 0.0
C477 C 0.5123 0.1006 0.48005 0.0
H478 H 0.35064 0.46973 0.30607 0.0
H479 H 0.35659 0.54746 0.19048 0.0
H480 H 0.39631 0.55706 0.28507 0.0
H481 H 0.37048 0.48937 0.53318 0.0
H482 H 0.38988 0.46019 0.55466 0.0
H483 H 0.362 0.45822 0.47813 0.0
H484 H 0.3911 0.43965 0.34839 0.0
H485 H 0.41941 0.44025 0.42322 0.0
H486 H 0.42073 0.45707 0.31701 0.0
H487 H 0.43672 0.55727 0.38629 0.0
H488 H 0.47356 0.54916 0.49236 0.0
H489 H 0.44141 0.47167 0.5473 0.0
C490 C 0.36026 0.48883 0.30145 0.0
C491 C 0.3506 0.50799 0.24141 0.0
C492 C 0.3637 0.53263 0.23639 0.0
C493 C 0.38626 0.53821 0.28978 0.0
C494 C 0.39547 0.51892 0.34818 0.0
C495 C 0.38284 0.49474 0.35467 0.0
C496 C 0.39705 0.47741 0.42218 0.0
C497 C 0.37878 0.4709 0.50182 0.0
C498 C 0.40771 0.45208 0.37489 0.0
C499 C 0.41958 0.49556 0.45273 0.0
C500 C 0.41834 0.51936 0.40864 0.0
C501 C 0.43758 0.53889 0.42223 0.0
C502 C 0.4584 0.53414 0.48296 0.0
C503 C 0.45979 0.51022 0.53082 0.0
C504 C 0.44032 0.4905 0.51405 0.0
H505 H 0.99297 0.37197 0.16724 0.0
H506 H 0.05341 0.32789 0.30767 0.0
H507 H 0.05982 0.36568 0.4156 0.0
H508 H 0.02464 0.4362 0.18978 0.0
H509 H 0.9941 0.45412 0.20752 0.0
H510 H 0.99418 0.42353 0.14152 0.0
H511 H 0.95834 0.40481 0.24671 0.0
H512 H 0.95836 0.43497 0.31517 0.0
H513 H 0.96445 0.40361 0.36696 0.0
H514 H 0.06071 0.40937 0.50683 0.0
H515 H 0.05477 0.45431 0.5755 0.0
H516 H 0.99311 0.47019 0.3797 0.0
C517 C 1.00754 0.37033 0.2208 0.0
C518 C 0.02273 0.34689 0.22875 0.0
C519 C 0.04155 0.34551 0.29978 0.0
C520 C 0.04534 0.36698 0.36166 0.0
C521 C 0.03016 0.38986 0.35203 0.0
C522 C 1.01157 0.39167 0.28342 0.0
C523 C 0.99783 0.41853 0.28826 0.0
C524 C 1.00301 0.434 0.20163 0.0
C525 C 0.96798 0.41529 0.30531 0.0
C526 C 1.01159 0.43153 0.37001 0.0
C527 C 0.03025 0.41468 0.40566 0.0
C528 C 0.04593 0.42255 0.47988 0.0
C529 C 0.04229 0.44809 0.51908 0.0
C530 C 0.02286 0.46549 0.48522 0.0
C531 C 1.00768 0.45711 0.40858 0.0
H532 H 0.84119 0.01761 0.04802 0.0
H533 H 0.8687 0.96054 0.24104 0.0
H534 H 0.91091 0.95576 0.15655 0.0
H535 H 0.87039 0.98608 0.84718 0.0
H536 H 0.87907 0.01701 0.79687 0.0
H537 H 0.8511 0.01546 0.87214 0.0
H538 H 0.87164 0.05341 0.97168 0.0
H539 H 0.89972 0.05463 0.89655 0.0
H540 H 0.90471 0.04965 0.01597 0.0
H541 H 0.95025 0.957 0.04988 0.0
H542 H 0.98386 0.96488 0.9322 0.0
H543 H 0.93184 0.0221 0.80963 0.0
C544 C 0.85613 1.00407 0.072 0.0
C545 C 0.85172 0.98926 0.15067 0.0
C546 C 0.8717 0.9719 0.18059 0.0
C547 C 0.89573 0.96907 0.133 0.0
C548 C 0.89956 0.9838 0.05532 0.0
C549 C 0.88036 1.00105 0.02511 0.0
C550 C 0.88969 1.01475 0.94025 0.0
C551 C 0.87147 1.00789 0.85933 0.0
C552 C 0.89155 0.0449 0.95717 0.0
C553 C 0.91703 1.00249 0.92731 0.0
C554 C 0.9223 0.98468 0.99447 0.0
C555 C 0.94631 0.97101 0.99726 0.0
C556 C 0.96546 0.97579 0.93032 0.0
C557 C 0.96076 0.99417 0.86118 0.0
C558 C 0.93602 1.00754 0.85996 0.0
H559 H 0.51768 0.88653 0.21932 0.0
H560 H 0.57936 0.8368 0.10089 0.0
H561 H 0.58738 0.86997 0.98449 0.0
H562 H 0.49093 0.90987 0.01507 0.0
H563 H 0.48509 0.94337 0.05585 0.0
H564 H 0.48521 0.91666 0.13424 0.0
H565 H 0.52138 0.94088 0.23001 0.0
H566 H 0.52141 0.96765 0.15154 0.0
H567 H 0.55182 0.9506 0.17655 0.0
H568 H 0.5863 0.90613 0.87332 0.0
H569 H 0.57692 0.94374 0.77535 0.0
H570 H 0.51713 0.97229 0.96551 0.0
C571 C 0.53306 0.88287 0.16932 0.0
C572 C 0.54777 0.85895 0.16852 0.0
C573 C 0.56768 0.85476 0.10233 0.0
C574 C 0.57249 0.87362 0.03613 0.0
C575 C 0.5575 0.89684 0.03766 0.0
C576 C 0.53835 0.90177 0.10296 0.0
C577 C 0.52463 0.92815 0.08702 0.0
C578 C 0.49469 0.92426 0.07214 0.0
C579 C 0.53014 0.94799 0.16597 0.0
C580 C 0.53832 0.93664 1.00051 0.0
C581 C 0.55739 0.91833 0.97411 0.0
C582 C 0.57169 0.92078 0.89399 0.0
C583 C 0.56616 0.94221 0.83856 0.0
C584 C 0.54647 0.9611 0.86296 0.0
C585 C 0.5327 0.9585 0.94605 0.0
H586 H 0.66599 0.55691 0.12863 0.0
H587 H 0.6954 0.47692 0.08595 0.0
H588 H 0.66036 0.46822 0.97098 0.0
H589 H 0.59787 0.54078 0.11344 0.0
H590 H 0.58812 0.57 0.05458 0.0
H591 H 0.61661 0.57105 0.12801 0.0
H592 H 0.64522 0.58745 0.99675 0.0
H593 H 0.61713 0.58628 0.92109 0.0
H594 H 0.64697 0.56834 0.89184 0.0
H595 H 0.61896 0.46657 0.87424 0.0
H596 H 0.57552 0.47281 0.79919 0.0
H597 H 0.57406 0.55453 0.89553 0.0
C598 C 0.66522 0.53774 0.09381 0.0
C599 C 0.68343 0.51755 0.11544 0.0
C600 C 0.68169 0.49261 0.06977 0.0
C601 C 0.66187 0.48754 1.00432 0.0
C602 C 0.644 0.50771 0.9847 0.0
C603 C 0.64557 0.5324 0.0277 0.0
C604 C 0.62306 0.55015 0.99737 0.0
C605 C 0.60539 0.55847 0.07824 0.0
C606 C 0.63373 0.5745 0.94884 0.0
C607 C 0.60844 0.53152 0.93171 0.0
C608 C 0.62083 0.5071 0.92547 0.0
C609 C 0.60959 0.48585 0.87633 0.0
C610 C 0.58502 0.48958 0.83326 0.0
C611 C 0.57238 0.51457 0.83658 0.0
C612 C 0.58419 0.5357 0.8872 0.0
H613 H 0.98102 0.68012 0.05536 0.0
H614 H 0.05998 0.68172 0.17111 0.0
H615 H 0.07163 0.64133 0.08056 0.0
H616 H 0.97454 0.60836 0.05279 0.0
H617 H 0.95663 0.60652 0.94708 0.0
H618 H 0.95388 0.63566 0.01987 0.0
H619 H 0.96691 0.6635 0.88709 0.0
H620 H 0.9722 0.63534 0.81133 0.0
H621 H 0.99847 0.65898 0.83315 0.0
H622 H 0.0737 0.59892 0.98731 0.0
H623 H 0.06709 0.55852 0.89172 0.0
H624 H 0.98771 0.5844 0.82537 0.0
C625 C 1.00081 0.67201 0.06086 0.0
C626 C 0.01974 0.68414 0.11993 0.0
C627 C 0.04529 0.67284 0.12603 0.0
C628 C 0.05205 0.64988 0.07478 0.0
C629 C 0.03306 0.63833 0.01709 0.0
C630 C 1.00795 0.64897 1.00969 0.0
C631 C 0.99115 0.63209 0.94428 0.0
C632 C 0.96763 0.61997 0.99425 0.0
C633 C 0.98164 0.6484 0.86406 0.0
C634 C 1.01086 0.61059 0.91448 0.0
C635 C 0.03476 0.61445 0.95906 0.0
C636 C 0.0553 0.59606 0.95058 0.0
C637 C 0.05137 0.57314 0.89594 0.0
C638 C 0.02742 0.56883 0.84747 0.0
C639 C 1.00677 0.58784 0.85744 0.0
H640 H 0.03805 0.26322 0.35512 0.0
H641 H 0.09984 0.21589 0.22847 0.0
H642 H 0.1048 0.19103 0.36851 0.0
H643 H 0.06036 0.25084 0.6153 0.0
H644 H 0.02568 0.24938 0.64371 0.0
H645 H 0.0372 0.27271 0.56202 0.0
H646 H 1.00306 0.25392 0.44651 0.0
H647 H 0.99192 0.23044 0.5258 0.0
H648 H 1.00371 0.21902 0.41596 0.0
H649 H 0.09089 0.16099 0.48354 0.0
H650 H 0.06052 0.13008 0.5563 0.0
H651 H 1.00449 0.19384 0.60481 0.0
C652 C 0.05394 0.24892 0.35953 0.0
C653 C 0.06847 0.24133 0.28138 0.0
C654 C 0.08853 0.22198 0.28789 0.0
C655 C 0.09152 0.20785 0.36767 0.0
C656 C 0.07433 0.21338 0.44009 0.0
C657 C 0.0563 0.23411 0.4377 0.0
C658 C 0.03533 0.23167 0.51063 0.0
C659 C 0.03994 0.25237 0.58748 0.0
C660 C 1.00689 0.23382 0.47224 0.0
C661 C 0.04148 0.20415 0.5426 0.0
C662 C 0.06515 0.19479 0.50642 0.0
C663 C 0.07274 0.16838 0.51397 0.0
C664 C 0.05511 0.15082 0.5539 0.0
C665 C 0.02987 0.15959 0.58387 0.0
C666 C 0.02378 0.1868 0.58322 0.0
H667 H 0.28517 0.03364 0.33681 0.0
H668 H 0.33121 0.09409 0.20822 0.0
H669 H 0.3616 0.09579 0.33795 0.0
H670 H 0.31105 0.05676 0.59754 0.0
H671 H 0.30951 0.02232 0.62588 0.0
H672 H 0.28391 0.0365 0.55665 0.0
H673 H 0.29201 0.99989 0.43408 0.0
H674 H 0.3174 0.9859 0.50159 0.0
H675 H 0.32487 0.99549 0.38737 0.0
H676 H 0.39595 0.07483 0.42056 0.0
H677 H 0.42567 0.03825 0.45286 0.0
H678 H 0.35959 0.99316 0.55462 0.0
C679 C 0.30051 0.0486 0.33999 0.0
C680 C 0.30629 0.06327 0.26249 0.0
C681 C 0.32671 0.0824 0.26678 0.0
C682 C 0.344 0.08361 0.3409 0.0
C683 C 0.34019 0.06607 0.41128 0.0
C684 C 0.31794 0.0499 0.41433 0.0
C685 C 0.32132 0.02899 0.48552 0.0
C686 C 0.30552 0.03661 0.57147 0.0
C687 C 0.31352 1.00096 0.44974 0.0
C688 C 0.35077 0.03167 0.50378 0.0
C689 C 0.3609 0.05436 0.46576 0.0
C690 C 0.38816 0.05767 0.4539 0.0
C691 C 0.40509 0.03655 0.47245 0.0
C692 C 0.39477 1.01242 0.50397 0.0
C693 C 0.36778 1.01118 0.52828 0.0
H694 H 0.43767 0.31937 0.22061 0.0
H695 H 0.51041 0.2875 0.32654 0.0
H696 H 0.51781 0.32862 0.41519 0.0
H697 H 0.46088 0.3699 0.15213 0.0
H698 H 0.43638 0.39505 0.17655 0.0
H699 H 0.4266 0.36102 0.16658 0.0
H700 H 0.40675 0.36098 0.32832 0.0
H701 H 0.41365 0.39595 0.33428 0.0
H702 H 0.42558 0.37488 0.42219 0.0
H703 H 0.52807 0.37544 0.43079 0.0
H704 H 0.53627 0.42186 0.39683 0.0
H705 H 0.45846 0.42705 0.27288 0.0
C706 C 0.45388 0.32044 0.2688 0.0
C707 C 0.47374 0.30068 0.26551 0.0
C708 C 0.49496 0.30242 0.32787 0.0
C709 C 0.4995 0.32605 0.37768 0.0
C710 C 0.48229 0.34733 0.36549 0.0
C711 C 0.45921 0.34451 0.31502 0.0
C712 C 0.4475 0.37141 0.29383 0.0
C713 C 0.4426 0.3745 0.19126 0.0
C714 C 0.42187 0.37609 0.34802 0.0
C715 C 0.46943 0.38953 0.3285 0.0
C716 C 0.48865 0.37535 0.37335 0.0
C717 C 0.5126 0.38694 0.39964 0.0
C718 C 0.51711 0.41349 0.37966 0.0
C719 C 0.4978 0.42851 0.33347 0.0
C720 C 0.47351 0.41629 0.30896 0.0
H721 H 0.24415 0.54744 0.33024 0.0
H722 H 0.25228 0.60315 0.11498 0.0
H723 H 0.22363 0.63483 0.19832 0.0
H724 H 0.18305 0.54981 0.35004 0.0
H725 H 0.17843 0.54852 0.47117 0.0
H726 H 0.20827 0.53584 0.42131 0.0
H727 H 0.23643 0.56696 0.5249 0.0
H728 H 0.20648 0.57956 0.57707 0.0
H729 H 0.2299 0.60208 0.52858 0.0
H730 H 0.18279 0.65061 0.26498 0.0
H731 H 0.13677 0.65114 0.31608 0.0
H732 H 0.15429 0.58806 0.50133 0.0
C733 C 0.24138 0.56716 0.30477 0.0
C734 C 0.25059 0.57324 0.21763 0.0
C735 C 0.24575 0.59854 0.18275 0.0
C736 C 0.22946 0.61661 0.2298 0.0
C737 C 0.21839 0.60912 0.31192 0.0
C738 C 0.22482 0.58527 0.35101 0.0
C739 C 0.20616 0.57941 0.42862 0.0
C740 C 0.19321 0.5518 0.41686 0.0
C741 C 0.22061 0.58218 0.52022 0.0
C742 C 0.18619 0.60152 0.41823 0.0
C743 C 0.19416 0.61904 0.35314 0.0
C744 C 0.17682 0.63783 0.31901 0.0
C745 C 0.1505 0.63798 0.34879 0.0
C746 C 0.14161 0.61951 0.41272 0.0
C747 C 0.16025 0.60223 0.45155 0.0
H748 H 0.99371 0.83063 1.00011 0.0
H749 H 0.0468 0.76346 0.96979 0.0
H750 H 0.06143 0.77957 0.82191 0.0
H751 H 0.97954 0.84059 0.74871 0.0
H752 H 0.9805 0.87611 0.7681 0.0
H753 H 0.96868 0.85494 0.85556 0.0
H754 H 1.00293 0.87615 0.96636 0.0
H755 H 1.01506 0.89678 0.87857 0.0
H756 H 0.03759 0.87535 0.9368 0.0
H757 H 0.0796 0.80872 0.7064 0.0
H758 H 0.09867 0.84747 0.63352 0.0
H759 H 0.03146 0.89486 0.72436 0.0
C760 C 1.00771 0.81885 0.96062 0.0
C761 C 0.01903 0.79579 0.9961 0.0
C762 C 0.03749 0.78095 0.94321 0.0
C763 C 0.04594 0.78998 0.859 0.0
C764 C 0.03549 0.81366 0.82817 0.0
C765 C 0.01645 0.82771 0.87692 0.0
C766 C 1.01169 0.85466 0.83785 0.0
C767 C 0.98343 0.85667 0.8001 0.0
C768 C 0.01717 0.87702 0.9091 0.0
C769 C 0.03221 0.85429 0.76295 0.0
C770 C 0.04552 0.83034 0.75761 0.0
C771 C 0.06875 0.82722 0.70716 0.0
C772 C 0.07945 0.84943 0.66552 0.0
C773 C 0.06682 0.87442 0.67425 0.0
C774 C 0.0419 0.87617 0.71778 0.0
H775 H 0.71193 0.9997 1.01001 0.0
H776 H 0.76666 0.06409 0.0656 0.0
H777 H 0.74806 0.0885 0.9369 0.0
H778 H 0.70867 1.00873 0.74854 0.0
H779 H 0.67399 1.00019 0.74852 0.0
H780 H 0.69639 0.98479 0.8267 0.0
H781 H 0.6666 1.00028 0.96124 0.0
H782 H 0.64432 0.01565 0.884 0.0
H783 H 0.65886 0.03503 0.97585 0.0
H784 H 0.71607 0.11021 0.83394 0.0
H785 H 0.67488 0.12629 0.76346 0.0
H786 H 0.64286 0.04664 0.7631 0.0
C787 C 0.72071 0.0184 0.99194 0.0
C788 C 0.74074 0.03007 0.04641 0.0
C789 C 0.75155 0.05479 0.02328 0.0
C790 C 0.74113 0.06871 0.95027 0.0
C791 C 0.72043 0.05724 0.89999 0.0
C792 C 0.71079 0.03226 0.91844 0.0
C793 C 0.68618 0.02586 0.86327 0.0
C794 C 0.69165 1.00357 0.79256 0.0
C795 C 0.66263 0.01883 0.92479 0.0
C796 C 0.68201 0.05201 0.81782 0.0
C797 C 0.7023 0.06968 0.83769 0.0
C798 C 0.70055 0.09632 0.81516 0.0
C799 C 0.67709 0.10531 0.77499 0.0
C800 C 0.65571 0.08771 0.75855 0.0
C801 C 0.65894 0.06052 0.77538 0.0
H802 H 0.61467 0.72441 0.18956 0.0
H803 H 0.55667 0.76576 0.03119 0.0
H804 H 0.56011 0.7318 0.91054 0.0
H805 H 0.64574 0.68045 0.97426 0.0
H806 H 0.64813 0.65307 0.04973 0.0
H807 H 0.65571 0.68626 0.09058 0.0
H808 H 0.62192 0.68089 0.22002 0.0
H809 H 0.61383 0.64833 0.17949 0.0
H810 H 0.58795 0.67282 0.19236 0.0
H811 H 0.55027 0.688 0.85705 0.0
H812 H 0.53151 0.64401 0.87498 0.0
H813 H 0.59455 0.6248 0.0614 0.0
C814 C 0.60414 0.72689 0.12636 0.0
C815 C 0.58495 0.74711 0.12047 0.0
C816 C 0.57148 0.75039 0.03756 0.0
C817 C 0.57328 0.73091 0.96838 0.0
C818 C 0.58863 0.70837 0.98319 0.0
C819 C 0.60484 0.7067 0.05909 0.0
C820 C 0.61339 0.67824 0.07326 0.0
C821 C 0.64247 0.67428 0.04523 0.0
C822 C 0.60893 0.6696 0.17198 0.0
C823 C 0.59516 0.6639 1.00656 0.0
C824 C 0.58255 0.6816 0.95061 0.0
C825 C 0.56075 0.67389 0.8978 0.0
C826 C 0.55013 0.64857 0.90833 0.0
C827 C 0.56137 0.63102 0.97094 0.0
C828 C 0.58542 0.63806 0.01416 0.0
H829 H 0.789 0.52782 1.00892 0.0
H830 H 0.7959 0.60747 0.11952 0.0
H831 H 0.82645 0.61876 0.99684 0.0
H832 H 0.84579 0.51385 0.99845 0.0
H833 H 0.84942 0.49554 0.89212 0.0
H834 H 0.81768 0.49793 0.94399 0.0
H835 H 0.79836 0.51748 0.79803 0.0
H836 H 0.83057 0.51518 0.74527 0.0
H837 H 0.81323 0.54638 0.75017 0.0
H838 H 0.86742 0.6164 0.91756 0.0
H839 H 0.91306 0.60035 0.90934 0.0
H840 H 0.88487 0.52076 0.85281 0.0
C841 C 0.79568 0.54805 1.00225 0.0
C842 C 0.79009 0.56693 0.07151 0.0
C843 C 0.79973 0.59299 0.06546 0.0
C844 C 0.81701 0.59951 0.99542 0.0
C845 C 0.8248 0.57961 0.93304 0.0
C846 C 0.81386 0.55434 0.93442 0.0
C847 C 0.8306 0.53466 0.87986 0.0
C848 C 0.83624 0.50908 0.93195 0.0
C849 C 0.8174 0.52805 0.7879 0.0
C850 C 0.85521 0.55125 0.86627 0.0
C851 C 0.85046 0.57771 0.88881 0.0
C852 C 0.87115 0.59593 0.89789 0.0
C853 C 0.89719 0.58657 0.89405 0.0
C854 C 0.90234 0.55917 0.8828 0.0
C855 C 0.88128 0.54182 0.86059 0.0
H856 H 0.0618 0.1959 0.95507 0.0
H857 H 0.9822 0.2083 0.05679 0.0
H858 H 0.96973 0.16319 1.00051 0.0
H859 H 0.04516 0.16161 0.75452 0.0
H860 H 0.07072 0.13649 0.75288 0.0
H861 H 0.07662 0.16853 0.8063 0.0
H862 H 0.08562 0.15201 0.96763 0.0
H863 H 0.08648 0.12041 0.91092 0.0
H864 H 0.0656 0.12529 1.00878 0.0
H865 H 0.96799 0.11449 0.95022 0.0
H866 H 0.97211 0.0708 0.87433 0.0
H867 H 0.05049 0.09176 0.77995 0.0
C868 C 0.04152 0.18937 0.9632 0.0
C869 C 0.02285 0.2059 1.0093 0.0
C870 C 0.9967 0.19633 0.0202 0.0
C871 C 0.98958 0.17053 0.98953 0.0
C872 C 1.00874 0.15445 0.94704 0.0
C873 C 0.03393 0.16382 0.93156 0.0
C874 C 0.05075 0.14269 0.88364 0.0
C875 C 0.06149 0.15285 0.79378 0.0
C876 C 0.07338 0.13458 0.94669 0.0
C877 C 0.03071 0.12016 0.86951 0.0
C878 C 1.00707 0.1271 0.9114 0.0
C879 C 0.98621 0.10918 0.91561 0.0
C880 C 0.98891 0.08415 0.8724 0.0
C881 C 1.01182 0.07699 0.8212 0.0
C882 C 0.03319 0.09549 0.82081 0.0
H883 H 0.35151 1.00377 0.04032 0.0
H884 H 0.31294 0.05542 0.85118 0.0
H885 H 0.35272 0.05324 0.75222 0.0
H886 H 0.4118 0.02898 0.03463 0.0
H887 H 0.43269 0.99991 0.03073 0.0
H888 H 0.40043 0.99879 0.08262 0.0
H889 H 0.38267 0.96156 0.9806 0.0
H890 H 0.41546 0.95832 0.93322 0.0
H891 H 0.38732 0.96252 0.85951 0.0
H892 H 0.39897 0.04912 0.68285 0.0
H893 H 0.44546 0.03957 0.63979 0.0
H894 H 0.4538 0.98963 0.87217 0.0
C895 C 0.35117 1.01396 0.97663 0.0
C896 C 0.329 0.02961 0.95294 0.0
C897 C 0.32947 0.04303 0.86991 0.0
C898 C 0.3521 0.04204 0.81374 0.0
C899 C 0.374 0.0272 0.84081 0.0
C900 C 0.37338 1.01275 0.91906 0.0
C901 C 0.39965 0.99871 0.93389 0.0
C902 C 0.41194 1.00709 0.02581 0.0
C903 C 0.39606 0.96848 0.92633 0.0
C904 C 0.41572 1.00867 0.85459 0.0
C905 C 0.40045 0.02481 0.80107 0.0
C906 C 0.41095 0.03634 0.72404 0.0
C907 C 0.43749 0.03099 0.70047 0.0
C908 C 0.45347 1.01435 0.75361 0.0
C909 C 0.44223 1.00285 0.83121 0.0
H910 H 0.51244 0.34782 0.063 0.0
H911 H 0.49364 0.29487 0.83483 0.0
H912 H 0.49832 0.33257 0.73108 0.0
H913 H 0.47325 0.39967 0.99626 0.0
H914 H 0.49495 0.42625 0.03286 0.0
H915 H 0.4958 0.39533 0.08997 0.0
H916 H 0.54535 0.38888 0.06043 0.0
H917 H 0.54603 0.42072 1.00826 0.0
H918 H 0.55821 0.39179 0.94707 0.0
H919 H 0.50318 0.37788 0.65344 0.0
H920 H 0.50559 0.42525 0.61246 0.0
H921 H 0.51535 0.4479 0.89608 0.0
C922 C 0.5093 0.34391 0.99115 0.0
C923 C 0.50231 0.31822 0.95743 0.0
C924 C 0.49915 0.31419 0.86251 0.0
C925 C 0.50161 0.33558 0.80321 0.0
C926 C 0.50718 0.36088 0.83987 0.0
C927 C 0.51098 0.36499 0.932 0.0
C928 C 0.51486 0.39412 0.95646 0.0
C929 C 0.4934 0.40441 0.0227 0.0
C930 C 0.54277 0.39916 0.99531 0.0
C931 C 0.51187 0.40605 0.86407 0.0
C932 C 0.50818 0.38662 0.79701 0.0
C933 C 0.50588 0.39312 0.70578 0.0
C934 C 0.50725 0.42003 0.68306 0.0
C935 C 0.51017 0.4401 0.75146 0.0
C936 C 0.51254 0.43293 0.84283 0.0
H937 H 0.20985 0.55507 0.93095 0.0
H938 H 0.22481 0.47183 0.97796 0.0
H939 H 0.18521 0.46 0.887 0.0
H940 H 0.14114 0.552 0.96226 0.0
H941 H 0.13293 0.57553 0.87692 0.0
H942 H 0.16452 0.57743 0.93353 0.0
H943 H 0.18853 0.57444 0.77815 0.0
H944 H 0.15695 0.57265 0.721 0.0
H945 H 0.18138 0.54716 0.70044 0.0
H946 H 0.14143 0.45734 0.80269 0.0
H947 H 0.09754 0.46388 0.73379 0.0
H948 H 0.10903 0.54911 0.74993 0.0
C949 C 0.20505 0.53427 0.92188 0.0
C950 C 0.22081 0.51441 0.96256 0.0
C951 C 0.21365 0.4875 0.94693 0.0
C952 C 0.19095 0.48057 0.89567 0.0
C953 C 0.17545 0.50071 0.85981 0.0
C954 C 0.18229 0.52704 0.8719 0.0
C955 C 0.16128 0.54499 0.83193 0.0
C956 C 0.14926 0.56358 0.90555 0.0
C957 C 0.17272 0.56074 0.75322 0.0
C958 C 0.14114 0.52468 0.79762 0.0
C959 C 0.14993 0.49925 0.81322 0.0
C960 C 0.1345 0.47719 0.78996 0.0
C961 C 0.10942 0.48116 0.75113 0.0
C962 C 0.09951 0.50704 0.7368 0.0
C963 C 0.11595 0.52906 0.75917 0.0
H964 H 0.9806 0.82945 0.37726 0.0
H965 H 0.0605 0.83156 0.27034 0.0
H966 H 0.06839 0.87423 0.3518 0.0
H967 H 0.96783 0.8988 0.36343 0.0
H968 H 0.94957 0.90223 0.46829 0.0
H969 H 0.94978 0.87099 0.406 0.0
H970 H 0.96722 0.84708 0.54585 0.0
H971 H 0.9666 0.87797 0.61005 0.0
H972 H 0.99686 0.85892 0.60167 0.0
H973 H 0.06622 0.91898 0.42934 0.0
H974 H 0.05789 0.95867 0.52671 0.0
H975 H 0.98048 0.92805 0.5957 0.0
C976 C 0.99996 0.83857 0.37332 0.0
C977 C 0.02011 0.82685 0.31814 0.0
C978 C 0.04493 0.83988 0.31292 0.0
C979 C 0.0495 0.86431 0.35829 0.0
C980 C 0.02909 0.87577 0.40948 0.0
C981 C 1.00499 0.86315 0.41912 0.0
C982 C 0.98663 0.88005 0.47924 0.0
C983 C 0.96198 0.88852 0.42606 0.0
C984 C 0.97887 0.86512 0.56438 0.0
C985 C 1.0043 0.90387 0.50263 0.0
C986 C 0.02844 0.90116 0.45925 0.0
C987 C 0.04762 0.92102 0.46527 0.0
C988 C 0.04262 0.94366 0.52019 0.0
C989 C 0.01854 0.94664 0.56855 0.0
C990 C 0.99906 0.9264 0.55933 0.0
H991 H 0.69536 0.04482 0.32777 0.0
H992 H 0.71922 0.96548 0.39783 0.0
H993 H 0.67965 0.96211 0.49685 0.0
H994 H 0.66826 0.06418 0.55253 0.0
H995 H 0.642 0.08329 0.50343 0.0
H996 H 0.67323 0.07975 0.44526 0.0
H997 H 0.64827 0.06197 0.30306 0.0
H998 H 0.61692 0.06418 0.36093 0.0
H999 H 0.62765 0.03302 0.31073 0.0
H1000 H 0.63504 0.96714 0.58364 0.0
H1001 H 0.59174 0.98058 0.6504 0.0
H1002 H 0.59756 0.05614 0.51991 0.0
C1003 C 0.69245 0.02677 0.36447 0.0
C1004 C 0.71051 1.00536 0.3545 0.0
C1005 C 0.70592 0.98225 0.40472 0.0
C1006 C 0.68336 0.98012 0.46082 0.0
C1007 C 0.66564 1.00141 0.46716 0.0
C1008 C 0.67023 0.02443 0.42104 0.0
C1009 C 0.6481 0.04435 0.43735 0.0
C1010 C 0.65853 0.06937 0.48763 0.0
C1011 C 0.63442 0.05128 0.34772 0.0
C1012 C 0.62987 0.02877 0.49763 0.0
C1013 C 0.64032 1.00411 0.51513 0.0
C1014 C 0.62678 0.9864 0.56982 0.0
C1015 C 0.60205 0.99407 0.60691 0.0
C1016 C 0.59084 0.01905 0.58796 0.0
C1017 C 0.60534 0.03667 0.53403 0.0
H1018 H 0.53834 0.69339 0.29578 0.0
H1019 H 0.5355 0.74883 0.52641 0.0
H1020 H 0.52423 0.71167 0.62601 0.0
H1021 H 0.48726 0.64827 0.36427 0.0
H1022 H 0.50505 0.61931 0.32378 0.0
H1023 H 0.50976 0.65053 0.26981 0.0
H1024 H 0.57251 0.64321 0.41071 0.0
H1025 H 0.5601 0.64742 0.29725 0.0
H1026 H 0.55582 0.61626 0.35152 0.0
H1027 H 0.51446 0.66685 0.70151 0.0
H1028 H 0.50988 0.61998 0.74481 0.0
H1029 H 0.5248 0.59456 0.46622 0.0
C1030 C 0.53566 0.69802 0.36733 0.0
C1031 C 0.53826 0.72439 0.40279 0.0
C1032 C 0.5335 0.72907 0.49674 0.0
C1033 C 0.52722 0.70797 0.55406 0.0
C1034 C 0.52587 0.68218 0.51684 0.0
C1035 C 0.5301 0.67725 0.4254 0.0
C1036 C 0.52932 0.64777 0.40206 0.0
C1037 C 0.50648 0.64109 0.33611 0.0
C1038 C 0.55603 0.63811 0.36318 0.0
C1039 C 0.52423 0.63668 0.49488 0.0
C1040 C 0.52178 0.65676 0.56019 0.0
C1041 C 0.51651 0.65109 0.65067 0.0
C1042 C 0.51398 0.62436 0.67481 0.0
C1043 C 0.51741 0.60349 0.60947 0.0
C1044 C 0.52241 0.60996 0.51825 0.0
H1045 H 0.83435 0.57456 0.36601 0.0
H1046 H 0.80164 0.49622 0.4053 0.0
H1047 H 0.84062 0.48497 0.49799 0.0
H1048 H 0.90084 0.55527 0.33501 0.0
H1049 H 0.91344 0.58447 0.39381 0.0
H1050 H 0.88167 0.58545 0.3399 0.0
H1051 H 0.86286 0.602 0.49702 0.0
H1052 H 0.89504 0.59871 0.5488 0.0
H1053 H 0.86695 0.58153 0.59439 0.0
H1054 H 0.88525 0.48058 0.57395 0.0
H1055 H 0.93117 0.48304 0.62747 0.0
H1056 H 0.93668 0.56401 0.53733 0.0
C1057 C 0.83514 0.55512 0.39505 0.0
C1058 C 0.81458 0.53632 0.37773 0.0
C1059 C 0.81661 0.51122 0.41813 0.0
C1060 C 0.83889 0.50456 0.47065 0.0
C1061 C 0.8591 0.52323 0.48339 0.0
C1062 C 0.85728 0.54813 0.44772 0.0
C1063 C 0.88243 0.56402 0.46728 0.0
C1064 C 0.89536 0.57274 0.37863 0.0
C1065 C 0.87645 0.58799 0.53064 0.0
C1066 C 0.89934 0.54369 0.51534 0.0
C1067 C 0.88517 0.5205 0.52545 0.0
C1068 C 0.89644 0.49867 0.56628 0.0
C1069 C 0.92285 0.50028 0.59618 0.0
C1070 C 0.93835 0.52348 0.58479 0.0
C1071 C 0.92596 0.54571 0.54534 0.0
loop_
_geom_bond_atom_site_label_1
_geom_bond_atom_site_label_2
_geom_bond_distance
_geom_bond_site_symmetry_2
_ccdc_geom_bond_type
H0 C3 0.929 . S
H1 C6 0.929 . S
H2 C8 0.930 . S
C3 H0 0.929 . S
C3 C4 1.398 . S
C3 C5 1.396 . S
C4 C3 1.398 . S
C4 C8 1.407 . S
C5 C3 1.396 . S
C5 C6 1.394 . S
C6 H1 0.929 . S
C6 C5 1.394 . S
C6 C7 1.382 . S
C7 C6 1.382 . S
C7 C8 1.392 . S
C7 N9 1.420 . S
C8 H2 0.930 . S
C8 C4 1.407 . S
C8 C7 1.392 . S
N9 C7 1.420 . S
N9 C10 1.244 . S
C10 N9 1.244 . S
H11 C14 0.929 . S
H12 C17 0.929 . S
H13 C19 0.930 . S
C14 H11 0.929 . S
C14 C15 1.398 . S
C14 C16 1.396 . S
C15 C14 1.398 . S
C15 C19 1.407 . S
C16 C14 1.396 . S
C16 C17 1.394 . S
C17 H12 0.929 . S
C17 C16 1.394 . S
C17 C18 1.382 . S
C18 C17 1.382 . S
C18 C19 1.392 . S
C18 N20 1.420 . S
C19 H13 0.930 . S
C19 C15 1.407 . S
C19 C18 1.392 . S
N20 C18 1.420 . S
N20 C21 1.244 . S
C21 N20 1.244 . S
H22 C25 0.929 . S
H23 C28 0.929 . S
H24 C30 0.930 . S
C25 H22 0.929 . S
C25 C26 1.398 . S
C25 C27 1.396 . S
C26 C25 1.398 . S
C26 C30 1.407 . S
C27 C25 1.396 . S
C27 C28 1.394 . S
C28 H23 0.929 . S
C28 C27 1.394 . S
C28 C29 1.382 . S
C29 C28 1.382 . S
C29 C30 1.392 . S
C29 N31 1.420 . S
C30 H24 0.930 . S
C30 C26 1.407 . S
C30 C29 1.392 . S
N31 C29 1.420 . S
N31 C32 1.244 . S
C32 N31 1.244 . S
H33 C36 0.929 . S
H34 C39 0.929 . S
H35 C41 0.930 . S
C36 H33 0.929 . S
C36 C37 1.398 . S
C36 C38 1.396 . S
C37 C36 1.398 . S
C37 C41 1.407 . S
C38 C36 1.396 . S
C38 C39 1.394 . S
C39 H34 0.929 . S
C39 C38 1.394 . S
C39 C40 1.382 . S
C40 C39 1.382 . S
C40 C41 1.392 . S
C40 N42 1.420 . S
C41 H35 0.930 . S
C41 C37 1.407 . S
C41 C40 1.392 . S
N42 C40 1.420 . S
N42 C43 1.244 . S
C43 N42 1.244 . S
H44 C47 0.929 . S
H45 C50 0.929 . S
H46 C52 0.930 . S
C47 H44 0.929 . S
C47 C48 1.398 . S
C47 C49 1.396 1_556 S
C48 C47 1.398 . S
C48 C52 1.407 . S
C49 C47 1.396 1_554 S
C49 C50 1.394 . S
C50 H45 0.929 . S
C50 C49 1.394 . S
C50 C51 1.382 . S
C51 C50 1.382 . S
C51 C52 1.392 1_554 S
C51 N53 1.420 . S
C52 H46 0.930 . S
C52 C48 1.407 . S
C52 C51 1.392 1_556 S
N53 C51 1.420 . S
N53 C54 1.244 . S
C54 N53 1.244 . S
H55 C58 0.929 . S
H56 C61 0.929 . S
H57 C63 0.930 . S
C58 H55 0.929 . S
C58 C59 1.398 . S
C58 C60 1.396 1_556 S
C59 C58 1.398 . S
C59 C63 1.407 . S
C60 C58 1.396 1_554 S
C60 C61 1.394 . S
C61 H56 0.929 . S
C61 C60 1.394 . S
C61 C62 1.382 . S
C62 C61 1.382 . S
C62 C63 1.392 1_554 S
C62 N64 1.420 . S
C63 H57 0.930 . S
C63 C59 1.407 . S
C63 C62 1.392 1_556 S
N64 C62 1.420 . S
N64 C65 1.244 . S
C65 N64 1.244 . S
H66 C69 0.929 . S
H67 C72 0.929 . S
H68 C74 0.930 . S
C69 H66 0.929 . S
C69 C70 1.398 . S
C69 C71 1.396 1_556 S
C70 C69 1.398 . S
C70 C74 1.407 . S
C71 C69 1.396 1_554 S
C71 C72 1.394 . S
C72 H67 0.929 . S
C72 C71 1.394 . S
C72 C73 1.381 . S
C73 C72 1.381 . S
C73 C74 1.392 1_554 S
C73 N75 1.420 . S
C74 H68 0.930 . S
C74 C70 1.407 . S
C74 C73 1.392 1_556 S
N75 C73 1.420 . S
N75 C76 1.244 . S
C76 N75 1.244 . S
H77 C80 0.929 . S
H78 C83 0.929 . S
H79 C85 0.930 . S
C80 H77 0.929 . S
C80 C81 1.398 . S
C80 C82 1.396 1_556 S
C81 C80 1.398 . S
C81 C85 1.407 . S
C82 C80 1.396 1_554 S
C82 C83 1.394 . S
C83 H78 0.929 . S
C83 C82 1.394 . S
C83 C84 1.382 . S
C84 C83 1.382 . S
C84 C85 1.392 1_554 S
C84 N86 1.420 . S
C85 H79 0.930 . S
C85 C81 1.407 . S
C85 C84 1.392 1_556 S
N86 C84 1.420 . S
N86 C87 1.244 . S
C87 N86 1.244 . S
Eu88 N119 2.657 1_565 S
Eu88 N126 2.609 1_565 S
Eu88 O132 2.558 . S
Eu88 O133 2.612 1_455 S
Eu88 O135 2.339 1_455 S
Eu88 O136 2.563 . S
Eu88 O137 2.419 . S
Eu88 O139 2.380 1_565 S
Eu88 O140 2.432 . S
Eu88 C152 2.848 . S
C89 C92 1.429 1_545 S
C89 C93 1.407 1_545 S
C89 N96 1.377 . S
C90 C92 1.420 . S
C90 C94 1.423 . S
C90 C102 1.392 . S
C91 C93 1.437 . S
C91 C94 1.351 . S
C91 H114 0.931 . S
C92 C89 1.429 1_565 S
C92 C90 1.420 . S
C92 N100 1.372 . S
C93 C89 1.407 1_565 S
C93 C91 1.437 . S
C93 C98 1.383 1_565 S
C94 C90 1.423 . S
C94 C91 1.351 . S
C94 H106 0.930 . S
C95 C97 1.400 . S
C95 C98 1.386 . S
C95 H107 0.930 . S
N96 C89 1.377 . S
N96 C97 1.321 . S
N96 Eu99 2.609 . S
C97 C95 1.400 . S
C97 N96 1.321 . S
C97 H104 0.930 . S
C98 C93 1.383 1_545 S
C98 C95 1.386 . S
C98 H117 0.930 . S
Eu99 N96 2.609 . S
Eu99 N100 2.632 1_545 S
Eu99 O133 2.380 1_545 S
Eu99 O134 2.432 . S
Eu99 O138 2.558 . S
Eu99 O139 2.612 1_655 S
Eu99 O141 2.339 1_655 S
Eu99 O142 2.563 1_655 S
Eu99 O143 2.419 . S
Eu99 C163 2.848 . S
N100 C92 1.372 . S
N100 Eu99 2.632 1_565 S
N100 C101 1.351 1_655 S
C101 N100 1.351 1_455 S
C101 C103 1.413 . S
C101 H108 0.929 . S
C102 C90 1.392 . S
C102 C103 1.367 1_655 S
C102 H110 0.930 . S
C103 C101 1.413 . S
C103 C102 1.367 1_455 S
C103 H105 0.930 . S
H104 C97 0.930 . S
H105 C103 0.930 . S
H106 C94 0.930 . S
H107 C95 0.930 . S
H108 C101 0.929 . S
H109 C123 0.930 1_655 S
H110 C102 0.930 . S
H111 C129 0.930 . S
H112 C120 0.929 1_655 S
H113 C127 0.930 . S
H114 C91 0.931 . S
H115 C121 0.930 . S
H116 C154 0.930 . S
H117 C98 0.930 . S
H118 C153 0.931 . S
N119 Eu88 2.657 1_545 S
N119 C120 1.334 . S
N119 C124 1.362 . S
C120 H112 0.929 1_455 S
C120 N119 1.334 . S
C120 C123 1.413 1_556 S
C121 H115 0.930 . S
C121 C122 1.392 . S
C121 C123 1.367 . S
C122 C121 1.392 . S
C122 C124 1.420 1_554 S
C122 C154 1.423 . S
C123 H109 0.930 1_455 S
C123 C120 1.413 1_554 S
C123 C121 1.367 . S
C124 N119 1.362 . S
C124 C122 1.420 1_556 S
C124 C128 1.429 . S
H125 C130 0.930 . S
N126 Eu88 2.609 1_545 S
N126 C128 1.377 . S
N126 C129 1.321 1_545 S
C127 H113 0.930 . S
C127 C129 1.400 . S
C127 C130 1.386 1_565 S
C128 C124 1.429 . S
C128 N126 1.377 . S
C128 C131 1.411 . S
C129 H111 0.930 . S
C129 N126 1.321 1_565 S
C129 C127 1.400 . S
C130 H125 0.930 . S
C130 C127 1.386 1_545 S
C130 C131 1.395 . S
C131 C128 1.411 . S
C131 C130 1.395 . S
C131 C153 1.420 1_556 S
O132 Eu88 2.558 . S
O132 C152 1.257 . S
O133 Eu88 2.612 1_655 S
O133 Eu99 2.380 1_565 S
O133 C144 1.276 . S
O134 Eu99 2.432 . S
O134 C151 1.264 . S
O135 Eu88 2.339 1_655 S
O135 C151 1.254 1_565 S
O136 Eu88 2.563 . S
O136 C144 1.235 1_455 S
O137 Eu88 2.419 . S
O137 C152 1.249 . S
O138 Eu99 2.558 . S
O138 C163 1.257 . S
O139 Eu88 2.380 1_545 S
O139 Eu99 2.612 1_455 S
O139 C155 1.276 . S
O140 Eu88 2.432 . S
O140 C162 1.264 1_565 S
O141 Eu99 2.339 1_455 S
O141 C162 1.254 . S
O142 Eu99 2.563 1_455 S
O142 C155 1.235 . S
O143 Eu99 2.419 . S
O143 C163 1.249 . S
C144 O133 1.276 . S
C144 O136 1.235 1_655 S
C145 C147 1.393 . S
C145 C149 1.395 . S
C145 C152 1.492 . S
C146 C147 1.392 . S
C146 C148 1.386 1_556 S
C147 C145 1.393 . S
C147 C146 1.392 . S
C147 H164 0.968 . S
C148 C146 1.386 1_554 S
C148 C150 1.395 1_554 S
C148 H165 0.930 . S
C149 C145 1.395 . S
C149 C150 1.379 . S
C149 H166 0.930 . S
C150 C148 1.395 1_556 S
C150 C149 1.379 . S
C150 H167 0.930 . S
C151 O134 1.264 . S
C151 O135 1.254 1_545 S
C152 Eu88 2.848 . S
C152 O132 1.257 . S
C152 O137 1.249 . S
C152 C145 1.492 . S
C153 H118 0.931 . S
C153 C131 1.420 1_554 S
C153 C154 1.351 . S
C154 H116 0.930 . S
C154 C122 1.423 . S
C154 C153 1.351 . S
C155 O139 1.276 . S
C155 O142 1.235 . S
C156 C157 1.393 . S
C156 C160 1.395 . S
C156 C163 1.492 . S
C157 C156 1.393 . S
C157 C158 1.392 . S
C157 H168 0.930 1_655 S
C158 C157 1.392 . S
C158 C159 1.386 . S
C159 C158 1.386 . S
C159 C161 1.395 . S
C159 H169 0.930 . S
C160 C156 1.395 . S
C160 C161 1.379 . S
C160 H170 0.930 . S
C161 C159 1.395 . S
C161 C160 1.379 . S
C161 H171 0.930 . S
C162 O140 1.264 1_545 S
C162 O141 1.254 . S
C163 Eu99 2.848 . S
C163 O138 1.257 . S
C163 O143 1.249 . S
C163 C156 1.492 . S
H164 C147 0.968 . S
H165 C148 0.930 . S
H166 C149 0.930 . S
H167 C150 0.930 . S
H168 C157 0.930 1_455 S
H169 C159 0.930 . S
H170 C160 0.930 . S
H171 C161 0.930 . S
Eu172 N203 2.657 . S
Eu172 N210 2.609 . S
Eu172 O216 2.558 . S
Eu172 O217 2.612 1_545 S
Eu172 O219 2.339 1_545 S
Eu172 O220 2.563 . S
Eu172 O221 2.419 . S
Eu172 O223 2.380 . S
Eu172 O224 2.432 . S
Eu172 C236 2.848 . S
C173 C176 1.429 . S
C173 C177 1.411 . S
C173 N180 1.377 . S
C174 C176 1.420 . S
C174 C178 1.423 . S
C174 C186 1.392 . S
C175 C177 1.420 . S
C175 C178 1.351 . S
C175 H198 0.931 . S
C176 C173 1.429 . S
C176 C174 1.420 . S
C176 N184 1.362 . S
C177 C173 1.411 . S
C177 C175 1.420 . S
C177 C182 1.395 . S
C178 C174 1.423 . S
C178 C175 1.351 . S
C178 H190 0.930 . S
C179 C181 1.400 . S
C179 C182 1.386 . S
C179 H191 0.930 . S
N180 C173 1.377 . S
N180 C181 1.321 . S
N180 Eu183 2.609 . S
C181 C179 1.400 . S
C181 N180 1.321 . S
C181 H188 0.930 . S
C182 C177 1.395 . S
C182 C179 1.386 . S
C182 H201 0.930 . S
Eu183 N180 2.609 . S
Eu183 N184 2.657 . S
Eu183 O217 2.380 . S
Eu183 O218 2.432 . S
Eu183 O222 2.558 . S
Eu183 O223 2.612 1_565 S
Eu183 O225 2.339 1_565 S
Eu183 O226 2.563 1_565 S
Eu183 O227 2.419 . S
Eu183 C247 2.848 . S
N184 C176 1.362 . S
N184 Eu183 2.657 . S
N184 C185 1.334 1_565 S
C185 N184 1.334 1_545 S
C185 C187 1.413 . S
C185 H192 0.929 . S
C186 C174 1.392 . S
C186 C187 1.367 1_565 S
C186 H194 0.930 . S
C187 C185 1.413 . S
C187 C186 1.367 1_545 S
C187 H189 0.930 . S
H188 C181 0.930 . S
H189 C187 0.930 . S
H190 C178 0.930 . S
H191 C179 0.930 . S
H192 C185 0.929 . S
H193 C207 0.930 1_565 S
H194 C186 0.930 . S
H195 C213 0.930 . S
H196 C204 0.929 1_565 S
H197 C211 0.930 . S
H198 C175 0.931 . S
H199 C205 0.930 . S
H200 C238 0.930 . S
H201 C182 0.930 . S
H202 C237 0.931 . S
N203 Eu172 2.657 . S
N203 C204 1.334 . S
N203 C208 1.362 . S
C204 H196 0.929 1_545 S
C204 N203 1.334 . S
C204 C207 1.413 1_556 S
C205 H199 0.930 . S
C205 C206 1.392 . S
C205 C207 1.367 . S
C206 C205 1.392 . S
C206 C208 1.420 1_554 S
C206 C238 1.423 . S
C207 H193 0.930 1_545 S
C207 C204 1.413 1_554 S
C207 C205 1.367 . S
C208 N203 1.362 . S
C208 C206 1.420 1_556 S
C208 C212 1.429 . S
H209 C214 0.930 . S
N210 Eu172 2.609 . S
N210 C212 1.377 . S
N210 C213 1.321 . S
C211 H197 0.930 . S
C211 C213 1.400 . S
C211 C214 1.386 . S
C212 C208 1.429 . S
C212 N210 1.377 . S
C212 C215 1.411 . S
C213 H195 0.930 . S
C213 N210 1.321 . S
C213 C211 1.400 . S
C214 H209 0.930 . S
C214 C211 1.386 . S
C214 C215 1.395 . S
C215 C212 1.411 . S
C215 C214 1.395 . S
C215 C237 1.420 1_556 S
O216 Eu172 2.558 . S
O216 C236 1.257 . S
O217 Eu172 2.612 1_565 S
O217 Eu183 2.380 . S
O217 C228 1.276 . S
O218 Eu183 2.432 . S
O218 C235 1.264 . S
O219 Eu172 2.339 1_565 S
O219 C235 1.254 . S
O220 Eu172 2.563 . S
O220 C228 1.235 1_545 S
O221 Eu172 2.419 . S
O221 C236 1.249 . S
O222 Eu183 2.558 . S
O222 C247 1.257 . S
O223 Eu172 2.380 . S
O223 Eu183 2.612 1_545 S
O223 C239 1.276 . S
O224 Eu172 2.432 . S
O224 C246 1.264 . S
O225 Eu183 2.339 1_545 S
O225 C246 1.254 . S
O226 Eu183 2.563 1_545 S
O226 C239 1.235 . S
O227 Eu183 2.419 . S
O227 C247 1.249 . S
C228 O217 1.276 . S
C228 O220 1.235 1_565 S
C229 C231 1.393 . S
C229 C233 1.395 . S
C229 C236 1.492 . S
C230 C231 1.392 . S
C230 C232 1.386 1_556 S
C231 C229 1.393 . S
C231 C230 1.392 . S
C231 H248 0.930 . S
C232 C230 1.386 1_554 S
C232 C234 1.395 1_554 S
C232 H249 0.930 . S
C233 C229 1.395 . S
C233 C234 1.379 . S
C233 H250 0.930 . S
C234 C232 1.395 1_556 S
C234 C233 1.379 . S
C234 H251 0.930 . S
C235 O218 1.264 . S
C235 O219 1.254 . S
C236 Eu172 2.848 . S
C236 O216 1.257 . S
C236 O221 1.249 . S
C236 C229 1.492 . S
C237 H202 0.931 . S
C237 C215 1.420 1_554 S
C237 C238 1.351 . S
C238 H200 0.930 . S
C238 C206 1.423 . S
C238 C237 1.351 . S
C239 O223 1.276 . S
C239 O226 1.235 . S
C240 C241 1.393 . S
C240 C244 1.395 . S
C240 C247 1.492 . S
C241 C240 1.393 . S
C241 C242 1.392 . S
C241 H252 0.930 1_565 S
C242 C241 1.392 . S
C242 C243 1.386 . S
C243 C242 1.386 . S
C243 C245 1.395 . S
C243 H253 0.930 . S
C244 C240 1.395 . S
C244 C245 1.379 . S
C244 H254 0.930 . S
C245 C243 1.395 . S
C245 C244 1.379 . S
C245 H255 0.930 . S
C246 O224 1.264 . S
C246 O225 1.254 . S
C247 Eu183 2.848 . S
C247 O222 1.257 . S
C247 O227 1.249 . S
C247 C240 1.492 . S
H248 C231 0.930 . S
H249 C232 0.930 . S
H250 C233 0.930 . S
H251 C234 0.930 . S
H252 C241 0.930 1_545 S
H253 C243 0.930 . S
H254 C244 0.930 . S
H255 C245 0.930 . S
Eu256 N287 2.657 . S
Eu256 N294 2.609 . S
Eu256 O300 2.558 . S
Eu256 O301 2.612 . S
Eu256 O303 2.339 . S
Eu256 O304 2.563 . S
Eu256 O305 2.419 . S
Eu256 O307 2.380 . S
Eu256 O308 2.432 . S
Eu256 C320 2.848 . S
C257 C260 1.429 . S
C257 C261 1.411 . S
C257 N264 1.377 . S
C258 C260 1.420 . S
C258 C262 1.423 . S
C258 C270 1.392 . S
C259 C261 1.420 . S
C259 C262 1.351 . S
C259 H282 0.931 . S
C260 C257 1.429 . S
C260 C258 1.420 . S
C260 N268 1.362 . S
C261 C257 1.411 . S
C261 C259 1.420 . S
C261 C266 1.395 . S
C262 C258 1.423 . S
C262 C259 1.351 . S
C262 H274 0.930 . S
C263 C265 1.400 . S
C263 C266 1.386 . S
C263 H275 0.930 . S
N264 C257 1.377 . S
N264 C265 1.321 . S
N264 Eu267 2.609 . S
C265 C263 1.400 . S
C265 N264 1.321 . S
C265 H272 0.930 . S
C266 C261 1.395 . S
C266 C263 1.386 . S
C266 H285 0.930 . S
Eu267 N264 2.609 . S
Eu267 N268 2.657 . S
Eu267 O301 2.380 . S
Eu267 O302 2.432 . S
Eu267 O306 2.558 . S
Eu267 O307 2.612 . S
Eu267 O309 2.339 . S
Eu267 O310 2.563 . S
Eu267 O311 2.419 . S
Eu267 C331 2.848 . S
N268 C260 1.362 . S
N268 Eu267 2.657 . S
N268 C269 1.334 . S
C269 N268 1.334 . S
C269 C271 1.413 . S
C269 H276 0.929 . S
C270 C258 1.392 . S
C270 C271 1.367 . S
C270 H278 0.930 . S
C271 C269 1.413 . S
C271 C270 1.367 . S
C271 H273 0.930 . S
H272 C265 0.930 . S
H273 C271 0.930 . S
H274 C262 0.930 . S
H275 C263 0.930 . S
H276 C269 0.929 . S
H277 C291 0.930 . S
H278 C270 0.930 . S
H279 C297 0.930 . S
H280 C288 0.929 . S
H281 C295 0.930 . S
H282 C259 0.931 . S
H283 C289 0.930 . S
H284 C322 0.930 . S
H285 C266 0.930 . S
H286 C321 0.931 . S
N287 Eu256 2.657 . S
N287 C288 1.334 . S
N287 C292 1.362 . S
C288 H280 0.929 . S
C288 N287 1.334 . S
C288 C291 1.413 . S
C289 H283 0.930 . S
C289 C290 1.392 . S
C289 C291 1.367 . S
C290 C289 1.392 . S
C290 C292 1.420 . S
C290 C322 1.423 . S
C291 H277 0.930 . S
C291 C288 1.413 . S
C291 C289 1.367 . S
C292 N287 1.362 . S
C292 C290 1.420 . S
C292 C296 1.429 . S
H293 C298 0.930 . S
N294 Eu256 2.609 . S
N294 C296 1.377 . S
N294 C297 1.321 . S
C295 H281 0.930 . S
C295 C297 1.400 . S
C295 C298 1.386 . S
C296 C292 1.429 . S
C296 N294 1.377 . S
C296 C299 1.411 . S
C297 H279 0.930 . S
C297 N294 1.321 . S
C297 C295 1.400 . S
C298 H293 0.930 . S
C298 C295 1.386 . S
C298 C299 1.395 . S
C299 C296 1.411 . S
C299 C298 1.395 . S
C299 C321 1.420 . S
O300 Eu256 2.558 . S
O300 C320 1.257 . S
O301 Eu256 2.612 . S
O301 Eu267 2.380 . S
O301 C312 1.276 . S
O302 Eu267 2.432 . S
O302 C319 1.264 . S
O303 Eu256 2.339 . S
O303 C319 1.254 . S
O304 Eu256 2.563 . S
O304 C312 1.235 . S
O305 Eu256 2.419 . S
O305 C320 1.249 . S
O306 Eu267 2.558 . S
O306 C331 1.257 . S
O307 Eu256 2.380 . S
O307 Eu267 2.612 . S
O307 C323 1.276 . S
O308 Eu256 2.432 . S
O308 C330 1.264 . S
O309 Eu267 2.339 . S
O309 C330 1.254 . S
O310 Eu267 2.563 . S
O310 C323 1.235 . S
O311 Eu267 2.419 . S
O311 C331 1.249 . S
C312 O301 1.276 . S
C312 O304 1.235 . S
C313 C315 1.393 . S
C313 C317 1.395 . S
C313 C320 1.492 . S
C314 C315 1.392 . S
C314 C316 1.386 . S
C315 C313 1.393 . S
C315 C314 1.392 . S
C315 H332 0.930 . S
C316 C314 1.386 . S
C316 C318 1.395 . S
C316 H333 0.930 . S
C317 C313 1.395 . S
C317 C318 1.379 . S
C317 H334 0.930 . S
C318 C316 1.395 . S
C318 C317 1.379 . S
C318 H335 0.930 . S
C319 O302 1.264 . S
C319 O303 1.254 . S
C320 Eu256 2.848 . S
C320 O300 1.257 . S
C320 O305 1.249 . S
C320 C313 1.492 . S
C321 H286 0.931 . S
C321 C299 1.420 . S
C321 C322 1.351 . S
C322 H284 0.930 . S
C322 C290 1.423 . S
C322 C321 1.351 . S
C323 O307 1.276 . S
C323 O310 1.235 . S
C324 C325 1.393 . S
C324 C328 1.395 1_556 S
C324 C331 1.492 . S
C325 C324 1.393 . S
C325 C326 1.392 1_556 S
C325 H336 0.930 . S
C326 C325 1.392 1_554 S
C326 C327 1.386 . S
C327 C326 1.386 . S
C327 C329 1.395 . S
C327 H337 0.930 . S
C328 C324 1.395 1_554 S
C328 C329 1.379 . S
C328 H338 0.930 . S
C329 C327 1.395 . S
C329 C328 1.379 . S
C329 H339 0.930 . S
C330 O308 1.264 . S
C330 O309 1.254 . S
C331 Eu267 2.848 . S
C331 O306 1.257 . S
C331 O311 1.249 . S
C331 C324 1.492 . S
H332 C315 0.930 . S
H333 C316 0.930 . S
H334 C317 0.930 . S
H335 C318 0.930 . S
H336 C325 0.930 . S
H337 C327 0.930 . S
H338 C328 0.930 . S
H339 C329 0.930 . S
Eu340 N371 2.657 . S
Eu340 N378 2.609 . S
Eu340 O384 2.558 . S
Eu340 O385 2.612 . S
Eu340 O387 2.339 . S
Eu340 O388 2.563 . S
Eu340 O389 2.419 . S
Eu340 O391 2.380 . S
Eu340 O392 2.432 1_455 S
Eu340 C404 2.848 . S
C341 C344 1.429 . S
C341 C345 1.411 . S
C341 N348 1.377 . S
C342 C344 1.420 . S
C342 C346 1.423 . S
C342 C354 1.392 . S
C343 C345 1.420 . S
C343 C346 1.351 . S
C343 H366 0.931 . S
C344 C341 1.429 . S
C344 C342 1.420 . S
C344 N352 1.362 . S
C345 C341 1.411 . S
C345 C343 1.420 . S
C345 C350 1.395 1_655 S
C346 C342 1.423 . S
C346 C343 1.351 . S
C346 H358 0.930 . S
C347 C349 1.400 . S
C347 C350 1.386 . S
C347 H359 0.930 . S
N348 C341 1.377 . S
N348 C349 1.321 1_655 S
N348 Eu351 2.609 . S
C349 C347 1.400 . S
C349 N348 1.321 1_455 S
C349 H356 0.930 . S
C350 C345 1.395 1_455 S
C350 C347 1.386 . S
C350 H369 0.930 . S
Eu351 N348 2.609 . S
Eu351 N352 2.657 . S
Eu351 O385 2.380 1_655 S
Eu351 O386 2.432 1_655 S
Eu351 O390 2.558 . S
Eu351 O391 2.612 1_655 S
Eu351 O393 2.339 . S
Eu351 O394 2.563 . S
Eu351 O395 2.419 . S
Eu351 C415 2.848 . S
N352 C344 1.362 . S
N352 Eu351 2.657 . S
N352 C353 1.334 . S
C353 N352 1.334 . S
C353 C355 1.413 . S
C353 H360 0.929 . S
C354 C342 1.392 . S
C354 C355 1.367 . S
C354 H362 0.930 . S
C355 C353 1.413 . S
C355 C354 1.367 . S
C355 H357 0.930 . S
H356 C349 0.930 . S
H357 C355 0.930 . S
H358 C346 0.930 . S
H359 C347 0.930 . S
H360 C353 0.929 . S
H361 C375 0.930 . S
H362 C354 0.930 . S
H363 C381 0.926 1_655 S
H364 C372 0.929 . S
H365 C379 0.930 . S
H366 C343 0.931 . S
H367 C373 0.930 . S
H368 C406 0.930 . S
H369 C350 0.930 . S
H370 C405 0.931 . S
N371 Eu340 2.657 . S
N371 C372 1.334 . S
N371 C376 1.362 . S
C372 H364 0.929 . S
C372 N371 1.334 . S
C372 C375 1.413 . S
C373 H367 0.930 . S
C373 C374 1.392 . S
C373 C375 1.367 . S
C374 C373 1.392 . S
C374 C376 1.420 . S
C374 C406 1.423 . S
C375 H361 0.930 . S
C375 C372 1.413 . S
C375 C373 1.367 . S
C376 N371 1.362 . S
C376 C374 1.420 . S
C376 C380 1.429 . S
H377 C382 0.930 . S
N378 Eu340 2.609 . S
N378 C380 1.377 . S
N378 C381 1.326 . S
C379 H365 0.930 . S
C379 C381 1.398 1_655 S
C379 C382 1.386 1_655 S
C380 C376 1.429 . S
C380 N378 1.377 . S
C380 C383 1.411 . S
C381 H363 0.926 1_455 S
C381 N378 1.326 . S
C381 C379 1.398 1_455 S
C382 H377 0.930 . S
C382 C379 1.386 1_455 S
C382 C383 1.395 . S
C383 C380 1.411 . S
C383 C382 1.395 . S
C383 C405 1.420 . S
O384 Eu340 2.558 . S
O384 C404 1.257 . S
O385 Eu340 2.612 . S
O385 Eu351 2.380 1_455 S
O385 C396 1.276 . S
O386 Eu351 2.432 1_455 S
O386 C403 1.264 . S
O387 Eu340 2.339 . S
O387 C403 1.254 . S
O388 Eu340 2.563 . S
O388 C396 1.235 . S
O389 Eu340 2.419 . S
O389 C404 1.249 . S
O390 Eu351 2.558 . S
O390 C415 1.257 . S
O391 Eu340 2.380 . S
O391 Eu351 2.612 1_455 S
O391 C407 1.276 1_455 S
O392 Eu340 2.432 1_655 S
O392 C414 1.264 . S
O393 Eu351 2.339 . S
O393 C414 1.254 . S
O394 Eu351 2.563 . S
O394 C407 1.235 . S
O395 Eu351 2.419 . S
O395 C415 1.249 . S
C396 O385 1.276 . S
C396 O388 1.235 . S
C397 C399 1.393 . S
C397 C401 1.395 . S
C397 C404 1.492 . S
C398 C399 1.392 . S
C398 C400 1.386 . S
C399 C397 1.393 . S
C399 C398 1.392 . S
C399 H416 0.930 . S
C400 C398 1.386 . S
C400 C402 1.395 . S
C400 H417 0.930 . S
C401 C397 1.395 . S
C401 C402 1.379 . S
C401 H418 0.930 . S
C402 C400 1.395 . S
C402 C401 1.379 . S
C402 H419 0.930 . S
C403 O386 1.264 . S
C403 O387 1.254 . S
C404 Eu340 2.848 . S
C404 O384 1.257 . S
C404 O389 1.249 . S
C404 C397 1.492 . S
C405 H370 0.931 . S
C405 C383 1.420 . S
C405 C406 1.351 . S
C406 H368 0.930 . S
C406 C374 1.423 . S
C406 C405 1.351 . S
C407 O391 1.276 1_655 S
C407 O394 1.235 . S
C408 C409 1.393 . S
C408 C412 1.395 1_556 S
C408 C415 1.492 . S
C409 C408 1.393 . S
C409 C410 1.392 1_556 S
C409 H420 0.930 . S
C410 C409 1.392 1_554 S
C410 C411 1.386 . S
C411 C410 1.386 . S
C411 C413 1.395 . S
C411 H421 0.930 . S
C412 C408 1.395 1_554 S
C412 C413 1.379 . S
C412 H422 0.930 . S
C413 C411 1.395 . S
C413 C412 1.379 . S
C413 H423 0.930 . S
C414 O392 1.264 . S
C414 O393 1.254 . S
C415 Eu351 2.848 . S
C415 O390 1.257 . S
C415 O395 1.249 . S
C415 C408 1.492 . S
H416 C399 0.930 . S
H417 C400 0.930 . S
H418 C401 0.930 . S
H419 C402 0.930 . S
H420 C409 0.930 . S
H421 C411 0.930 . S
H422 C412 0.930 . S
H423 C413 0.930 . S
H424 C436 0.930 . S
H425 C438 0.930 . S
H426 C439 0.930 . S
H427 C443 0.959 . S
H428 C443 0.959 . S
H429 C443 0.961 . S
H430 C444 0.960 . S
H431 C444 0.961 . S
H432 C444 0.959 . S
H433 C447 0.929 . S
H434 C448 0.931 . S
H435 C450 0.930 . S
C436 H424 0.930 . S
C436 C437 1.399 . S
C436 C441 1.399 . S
C437 C436 1.399 . S
C437 C438 1.376 . S
C438 H425 0.930 . S
C438 C437 1.376 . S
C438 C439 1.388 . S
C439 H426 0.930 . S
C439 C438 1.388 . S
C439 C440 1.390 . S
C440 C439 1.390 . S
C440 C441 1.394 . S
C440 C446 1.465 . S
C441 C436 1.399 . S
C441 C440 1.394 . S
C441 C442 1.516 . S
C442 C441 1.516 . S
C442 C443 1.502 1_545 S
C442 C444 1.561 . S
C442 C445 1.526 . S
C443 H427 0.959 . S
C443 H428 0.959 . S
C443 H429 0.961 . S
C443 C442 1.502 1_565 S
C444 H430 0.960 . S
C444 H431 0.961 . S
C444 H432 0.959 . S
C444 C442 1.561 . S
C445 C442 1.526 . S
C445 C446 1.396 . S
C445 C450 1.390 . S
C446 C440 1.465 . S
C446 C445 1.396 . S
C446 C447 1.399 . S
C447 H433 0.929 . S
C447 C446 1.399 . S
C447 C448 1.385 . S
C448 H434 0.931 . S
C448 C447 1.385 . S
C448 C449 1.389 . S
C449 C448 1.389 . S
C449 C450 1.387 . S
C450 H435 0.930 . S
C450 C445 1.390 . S
C450 C449 1.387 . S
H451 C463 0.930 . S
H452 C465 0.930 . S
H453 C466 0.930 . S
H454 C470 0.959 . S
H455 C470 0.959 . S
H456 C470 0.961 . S
H457 C471 0.960 . S
H458 C471 0.961 . S
H459 C471 0.959 . S
H460 C474 0.929 . S
H461 C475 0.931 . S
H462 C477 0.930 . S
C463 H451 0.930 . S
C463 C464 1.399 . S
C463 C468 1.399 . S
C464 C463 1.399 . S
C464 C465 1.376 . S
C465 H452 0.930 . S
C465 C464 1.376 . S
C465 C466 1.388 . S
C466 H453 0.930 . S
C466 C465 1.388 . S
C466 C467 1.390 . S
C467 C466 1.390 . S
C467 C468 1.394 . S
C467 C473 1.465 . S
C468 C463 1.399 . S
C468 C467 1.394 . S
C468 C469 1.516 . S
C469 C468 1.516 . S
C469 C470 1.502 . S
C469 C471 1.561 . S
C469 C472 1.526 . S
C470 H454 0.959 . S
C470 H455 0.959 . S
C470 H456 0.961 . S
C470 C469 1.502 . S
C471 H457 0.960 . S
C471 H458 0.961 . S
C471 H459 0.959 . S
C471 C469 1.561 . S
C472 C469 1.526 . S
C472 C473 1.396 . S
C472 C477 1.390 . S
C473 C467 1.465 . S
C473 C472 1.396 . S
C473 C474 1.399 . S
C474 H460 0.929 . S
C474 C473 1.399 . S
C474 C475 1.385 . S
C475 H461 0.931 . S
C475 C474 1.385 . S
C475 C476 1.389 . S
C476 C475 1.389 . S
C476 C477 1.387 . S
C477 H462 0.930 . S
C477 C472 1.390 . S
C477 C476 1.387 . S
H478 C490 0.930 . S
H479 C492 0.930 . S
H480 C493 0.930 . S
H481 C497 0.959 . S
H482 C497 0.959 . S
H483 C497 0.961 . S
H484 C498 0.960 . S
H485 C498 0.961 . S
H486 C498 0.959 . S
H487 C501 0.929 . S
H488 C502 0.931 . S
H489 C504 0.930 . S
C490 H478 0.930 . S
C490 C491 1.399 . S
C490 C495 1.399 . S
C491 C490 1.399 . S
C491 C492 1.376 . S
C492 H479 0.930 . S
C492 C491 1.376 . S
C492 C493 1.388 . S
C493 H480 0.930 . S
C493 C492 1.388 . S
C493 C494 1.390 . S
C494 C493 1.390 . S
C494 C495 1.394 . S
C494 C500 1.465 . S
C495 C490 1.399 . S
C495 C494 1.394 . S
C495 C496 1.516 . S
C496 C495 1.516 . S
C496 C497 1.502 . S
C496 C498 1.561 . S
C496 C499 1.526 . S
C497 H481 0.959 . S
C497 H482 0.959 . S
C497 H483 0.961 . S
C497 C496 1.502 . S
C498 H484 0.960 . S
C498 H485 0.961 . S
C498 H486 0.959 . S
C498 C496 1.561 . S
C499 C496 1.526 . S
C499 C500 1.396 . S
C499 C504 1.390 . S
C500 C494 1.465 . S
C500 C499 1.396 . S
C500 C501 1.399 . S
C501 H487 0.929 . S
C501 C500 1.399 . S
C501 C502 1.385 . S
C502 H488 0.931 . S
C502 C501 1.385 . S
C502 C503 1.389 . S
C503 C502 1.389 . S
C503 C504 1.387 . S
C504 H489 0.930 . S
C504 C499 1.390 . S
C504 C503 1.387 . S
H505 C517 0.930 . S
H506 C519 0.930 . S
H507 C520 0.930 . S
H508 C524 0.959 . S
H509 C524 0.959 . S
H510 C524 0.961 . S
H511 C525 0.960 . S
H512 C525 0.961 . S
H513 C525 0.959 . S
H514 C528 0.929 . S
H515 C529 0.931 . S
H516 C531 0.930 . S
C517 H505 0.930 . S
C517 C518 1.399 . S
C517 C522 1.399 . S
C518 C517 1.399 . S
C518 C519 1.376 . S
C519 H506 0.930 . S
C519 C518 1.376 . S
C519 C520 1.388 . S
C520 H507 0.930 . S
C520 C519 1.388 . S
C520 C521 1.390 . S
C521 C520 1.390 . S
C521 C522 1.394 . S
C521 C527 1.465 . S
C522 C517 1.399 . S
C522 C521 1.394 . S
C522 C523 1.516 . S
C523 C522 1.516 . S
C523 C524 1.502 . S
C523 C525 1.561 1_455 S
C523 C526 1.526 . S
C524 H508 0.959 . S
C524 H509 0.959 . S
C524 H510 0.961 . S
C524 C523 1.502 . S
C525 H511 0.960 . S
C525 H512 0.961 . S
C525 H513 0.959 . S
C525 C523 1.561 1_655 S
C526 C523 1.526 . S
C526 C527 1.396 . S
C526 C531 1.390 . S
C527 C521 1.465 . S
C527 C526 1.396 . S
C527 C528 1.399 . S
C528 H514 0.929 . S
C528 C527 1.399 . S
C528 C529 1.385 . S
C529 H515 0.931 . S
C529 C528 1.385 . S
C529 C530 1.389 . S
C530 C529 1.389 . S
C530 C531 1.387 . S
C531 H516 0.930 . S
C531 C526 1.390 . S
C531 C530 1.387 . S
H532 C544 0.930 . S
H533 C546 0.930 . S
H534 C547 0.930 . S
H535 C551 0.959 . S
H536 C551 0.959 1_545 S
H537 C551 0.961 . S
H538 C552 0.960 1_554 S
H539 C552 0.961 . S
H540 C552 0.959 1_554 S
H541 C555 0.929 1_554 S
H542 C556 0.931 . S
H543 C558 0.925 1_545 S
C544 H532 0.930 . S
C544 C545 1.399 . S
C544 C549 1.399 . S
C545 C544 1.399 . S
C545 C546 1.376 . S
C546 H533 0.930 . S
C546 C545 1.376 . S
C546 C547 1.388 . S
C547 H534 0.930 . S
C547 C546 1.388 . S
C547 C548 1.390 . S
C548 C547 1.390 . S
C548 C549 1.394 . S
C548 C554 1.465 1_554 S
C549 C544 1.399 . S
C549 C548 1.394 . S
C549 C550 1.518 1_554 S
C550 C549 1.518 1_556 S
C550 C551 1.502 . S
C550 C552 1.559 1_565 S
C550 C553 1.526 . S
C551 H535 0.959 . S
C551 H536 0.959 1_565 S
C551 H537 0.961 . S
C551 C550 1.502 . S
C552 H538 0.960 1_556 S
C552 H539 0.961 . S
C552 H540 0.959 1_556 S
C552 C550 1.559 1_545 S
C553 C550 1.526 . S
C553 C554 1.396 . S
C553 C558 1.392 . S
C554 C548 1.465 1_556 S
C554 C553 1.396 . S
C554 C555 1.399 . S
C555 H541 0.929 1_556 S
C555 C554 1.399 . S
C555 C556 1.385 . S
C556 H542 0.931 . S
C556 C555 1.385 . S
C556 C557 1.389 . S
C557 C556 1.389 . S
C557 C558 1.389 . S
C558 H543 0.925 1_565 S
C558 C553 1.392 . S
C558 C557 1.389 . S
H559 C571 0.930 . S
H560 C573 0.930 . S
H561 C574 0.930 1_556 S
H562 C578 0.959 . S
H563 C578 0.959 . S
H564 C578 0.961 . S
H565 C579 0.960 . S
H566 C579 0.961 . S
H567 C579 0.959 . S
H568 C582 0.929 . S
H569 C583 0.931 . S
H570 C585 0.930 . S
C571 H559 0.930 . S
C571 C572 1.399 . S
C571 C576 1.399 . S
C572 C571 1.399 . S
C572 C573 1.376 . S
C573 H560 0.930 . S
C573 C572 1.376 . S
C573 C574 1.388 . S
C574 H561 0.930 1_554 S
C574 C573 1.388 . S
C574 C575 1.390 . S
C575 C574 1.390 . S
C575 C576 1.394 . S
C575 C581 1.465 1_554 S
C576 C571 1.399 . S
C576 C575 1.394 . S
C576 C577 1.516 . S
C577 C576 1.516 . S
C577 C578 1.502 . S
C577 C579 1.561 . S
C577 C580 1.526 1_554 S
C578 H562 0.959 . S
C578 H563 0.959 . S
C578 H564 0.961 . S
C578 C577 1.502 . S
C579 H565 0.960 . S
C579 H566 0.961 . S
C579 H567 0.959 . S
C579 C577 1.561 . S
C580 C577 1.526 1_556 S
C580 C581 1.396 . S
C580 C585 1.390 . S
C581 C575 1.465 1_556 S
C581 C580 1.396 . S
C581 C582 1.399 . S
C582 H568 0.929 . S
C582 C581 1.399 . S
C582 C583 1.385 . S
C583 H569 0.931 . S
C583 C582 1.385 . S
C583 C584 1.389 . S
C584 C583 1.389 . S
C584 C585 1.387 . S
C585 H570 0.930 . S
C585 C580 1.390 . S
C585 C584 1.387 . S
H586 C598 0.930 . S
H587 C600 0.930 . S
H588 C601 0.930 . S
H589 C605 0.959 . S
H590 C605 0.959 . S
H591 C605 0.961 . S
H592 C606 0.956 1_554 S
H593 C606 0.961 . S
H594 C606 0.959 . S
H595 C609 0.929 . S
H596 C610 0.931 . S
H597 C612 0.930 . S
C598 H586 0.930 . S
C598 C599 1.399 . S
C598 C603 1.399 . S
C599 C598 1.399 . S
C599 C600 1.376 . S
C600 H587 0.930 . S
C600 C599 1.376 . S
C600 C601 1.388 . S
C601 H588 0.930 . S
C601 C600 1.388 . S
C601 C602 1.390 . S
C602 C601 1.390 . S
C602 C603 1.394 . S
C602 C608 1.465 1_554 S
C603 C598 1.399 . S
C603 C602 1.394 . S
C603 C604 1.516 . S
C604 C603 1.516 . S
C604 C605 1.502 . S
C604 C606 1.561 1_554 S
C604 C607 1.526 1_554 S
C605 H589 0.959 . S
C605 H590 0.959 . S
C605 H591 0.961 . S
C605 C604 1.502 . S
C606 H592 0.956 1_556 S
C606 H593 0.961 . S
C606 H594 0.959 . S
C606 C604 1.561 1_556 S
C607 C604 1.526 1_556 S
C607 C608 1.396 . S
C607 C612 1.390 . S
C608 C602 1.465 1_556 S
C608 C607 1.396 . S
C608 C609 1.399 . S
C609 H595 0.929 . S
C609 C608 1.399 . S
C609 C610 1.385 . S
C610 H596 0.931 . S
C610 C609 1.385 . S
C610 C611 1.389 . S
C611 C610 1.389 . S
C611 C612 1.387 . S
C612 H597 0.930 . S
C612 C607 1.390 . S
C612 C611 1.387 . S
H613 C625 0.930 . S
H614 C627 0.930 . S
H615 C628 0.930 . S
H616 C632 0.959 . S
H617 C632 0.959 . S
H618 C632 0.961 . S
H619 C633 0.960 . S
H620 C633 0.961 . S
H621 C633 0.952 1_554 S
H622 C636 0.929 1_554 S
H623 C637 0.931 . S
H624 C639 0.945 . S
C625 H613 0.930 . S
C625 C626 1.399 . S
C625 C630 1.399 . S
C626 C625 1.399 . S
C626 C627 1.376 . S
C627 H614 0.930 . S
C627 C626 1.376 . S
C627 C628 1.388 . S
C628 H615 0.930 . S
C628 C627 1.388 . S
C628 C629 1.390 . S
C629 C628 1.390 . S
C629 C630 1.394 . S
C629 C635 1.465 1_554 S
C630 C625 1.399 . S
C630 C629 1.394 . S
C630 C631 1.516 1_554 S
C631 C630 1.516 1_556 S
C631 C632 1.502 . S
C631 C633 1.561 1_655 S
C631 C634 1.526 . S
C632 H616 0.959 . S
C632 H617 0.959 . S
C632 H618 0.961 . S
C632 C631 1.502 . S
C633 H619 0.960 . S
C633 H620 0.961 . S
C633 H621 0.952 1_556 S
C633 C631 1.561 1_455 S
C634 C631 1.526 . S
C634 C635 1.396 . S
C634 C639 1.390 . S
C635 C629 1.465 1_556 S
C635 C634 1.396 . S
C635 C636 1.399 . S
C636 H622 0.929 1_556 S
C636 C635 1.399 . S
C636 C637 1.385 . S
C637 H623 0.931 . S
C637 C636 1.385 . S
C637 C638 1.389 . S
C638 C637 1.389 . S
C638 C639 1.387 . S
C639 H624 0.945 . S
C639 C634 1.390 . S
C639 C638 1.387 . S
H640 C652 0.930 . S
H641 C654 0.930 . S
H642 C655 0.930 . S
H643 C659 0.959 . S
H644 C659 0.959 . S
H645 C659 0.961 . S
H646 C660 0.960 . S
H647 C660 0.961 1_655 S
H648 C660 0.959 . S
H649 C663 0.929 . S
H650 C664 0.931 . S
H651 C666 0.930 . S
C652 H640 0.930 . S
C652 C653 1.399 . S
C652 C657 1.399 . S
C653 C652 1.399 . S
C653 C654 1.376 . S
C654 H641 0.930 . S
C654 C653 1.376 . S
C654 C655 1.388 . S
C655 H642 0.930 . S
C655 C654 1.388 . S
C655 C656 1.390 . S
C656 C655 1.390 . S
C656 C657 1.394 . S
C656 C662 1.465 . S
C657 C652 1.399 . S
C657 C656 1.394 . S
C657 C658 1.516 . S
C658 C657 1.516 . S
C658 C659 1.502 1_455 S
C658 C660 1.561 . S
C658 C661 1.526 . S
C659 H643 0.959 . S
C659 H644 0.959 . S
C659 H645 0.961 . S
C659 C658 1.502 1_655 S
C660 H646 0.960 . S
C660 H647 0.961 1_455 S
C660 H648 0.959 . S
C660 C658 1.561 . S
C661 C658 1.526 . S
C661 C662 1.396 . S
C661 C666 1.390 1_455 S
C662 C656 1.465 . S
C662 C661 1.396 . S
C662 C663 1.399 . S
C663 H649 0.929 . S
C663 C662 1.399 . S
C663 C664 1.385 . S
C664 H650 0.931 . S
C664 C663 1.385 . S
C664 C665 1.389 . S
C665 C664 1.389 . S
C665 C666 1.387 1_455 S
C666 H651 0.930 . S
C666 C661 1.390 1_655 S
C666 C665 1.387 1_655 S
H667 C679 0.930 . S
H668 C681 0.930 . S
H669 C682 0.930 . S
H670 C686 0.959 1_545 S
H671 C686 0.959 . S
H672 C686 0.961 . S
H673 C687 0.960 . S
H674 C687 0.961 . S
H675 C687 0.959 . S
H676 C690 0.929 . S
H677 C691 0.931 . S
H678 C693 0.930 . S
C679 H667 0.930 . S
C679 C680 1.399 . S
C679 C684 1.399 . S
C680 C679 1.399 . S
C680 C681 1.376 . S
C681 H668 0.930 . S
C681 C680 1.376 . S
C681 C682 1.388 . S
C682 H669 0.930 . S
C682 C681 1.388 . S
C682 C683 1.390 . S
C683 C682 1.390 . S
C683 C684 1.394 . S
C683 C689 1.465 . S
C684 C679 1.399 . S
C684 C683 1.394 . S
C684 C685 1.516 . S
C685 C684 1.516 . S
C685 C686 1.502 1_545 S
C685 C687 1.561 1_545 S
C685 C688 1.526 . S
C686 H670 0.959 1_565 S
C686 H671 0.959 . S
C686 H672 0.961 . S
C686 C685 1.502 1_565 S
C687 H673 0.960 . S
C687 H674 0.961 . S
C687 H675 0.959 . S
C687 C685 1.561 1_565 S
C688 C685 1.526 . S
C688 C689 1.396 . S
C688 C693 1.390 1_545 S
C689 C683 1.465 . S
C689 C688 1.396 . S
C689 C690 1.399 . S
C690 H676 0.929 . S
C690 C689 1.399 . S
C690 C691 1.385 . S
C691 H677 0.931 . S
C691 C690 1.385 . S
C691 C692 1.389 . S
C692 C691 1.389 . S
C692 C693 1.387 1_545 S
C693 H678 0.930 . S
C693 C688 1.390 1_565 S
C693 C692 1.387 1_565 S
H694 C706 0.930 . S
H695 C708 0.930 . S
H696 C709 0.930 . S
H697 C713 0.959 . S
H698 C713 0.959 . S
H699 C713 0.961 . S
H700 C714 0.960 . S
H701 C714 0.961 . S
H702 C714 0.959 . S
H703 C717 0.929 . S
H704 C718 0.931 . S
H705 C720 0.930 . S
C706 H694 0.930 . S
C706 C707 1.399 . S
C706 C711 1.399 . S
C707 C706 1.399 . S
C707 C708 1.376 . S
C708 H695 0.930 . S
C708 C707 1.376 . S
C708 C709 1.388 . S
C709 H696 0.930 . S
C709 C708 1.388 . S
C709 C710 1.390 . S
C710 C709 1.390 . S
C710 C711 1.394 . S
C710 C716 1.465 . S
C711 C706 1.399 . S
C711 C710 1.394 . S
C711 C712 1.516 . S
C712 C711 1.516 . S
C712 C713 1.502 . S
C712 C714 1.561 . S
C712 C715 1.526 . S
C713 H697 0.959 . S
C713 H698 0.959 . S
C713 H699 0.961 . S
C713 C712 1.502 . S
C714 H700 0.960 . S
C714 H701 0.961 . S
C714 H702 0.959 . S
C714 C712 1.561 . S
C715 C712 1.526 . S
C715 C716 1.396 . S
C715 C720 1.390 . S
C716 C710 1.465 . S
C716 C715 1.396 . S
C716 C717 1.399 . S
C717 H703 0.929 . S
C717 C716 1.399 . S
C717 C718 1.385 . S
C718 H704 0.931 . S
C718 C717 1.385 . S
C718 C719 1.389 . S
C719 C718 1.389 . S
C719 C720 1.387 . S
C720 H705 0.930 . S
C720 C715 1.390 . S
C720 C719 1.387 . S
H721 C733 0.930 . S
H722 C735 0.930 1_556 S
H723 C736 0.930 . S
H724 C740 0.959 . S
H725 C740 0.959 . S
H726 C740 0.961 . S
H727 C741 0.960 . S
H728 C741 0.961 . S
H729 C741 0.959 . S
H730 C744 0.929 . S
H731 C745 0.931 . S
H732 C747 0.930 . S
C733 H721 0.930 . S
C733 C734 1.399 . S
C733 C738 1.399 . S
C734 C733 1.399 . S
C734 C735 1.376 . S
C735 H722 0.930 1_554 S
C735 C734 1.376 . S
C735 C736 1.388 . S
C736 H723 0.930 . S
C736 C735 1.388 . S
C736 C737 1.390 . S
C737 C736 1.390 . S
C737 C738 1.394 . S
C737 C743 1.465 . S
C738 C733 1.399 . S
C738 C737 1.394 . S
C738 C739 1.516 . S
C739 C738 1.516 . S
C739 C740 1.502 . S
C739 C741 1.561 . S
C739 C742 1.526 . S
C740 H724 0.959 . S
C740 H725 0.959 . S
C740 H726 0.961 . S
C740 C739 1.502 . S
C741 H727 0.960 . S
C741 H728 0.961 . S
C741 H729 0.959 . S
C741 C739 1.561 . S
C742 C739 1.526 . S
C742 C743 1.396 . S
C742 C747 1.390 . S
C743 C737 1.465 . S
C743 C742 1.396 . S
C743 C744 1.399 . S
C744 H730 0.929 . S
C744 C743 1.399 . S
C744 C745 1.385 . S
C745 H731 0.931 . S
C745 C744 1.385 . S
C745 C746 1.389 . S
C746 C745 1.389 . S
C746 C747 1.387 . S
C747 H732 0.930 . S
C747 C742 1.390 . S
C747 C746 1.387 . S
H748 C760 0.930 . S
H749 C762 0.930 . S
H750 C763 0.930 1_455 S
H751 C767 0.959 . S
H752 C767 0.959 . S
H753 C767 0.961 . S
H754 C768 0.960 . S
H755 C768 0.961 1_556 S
H756 C768 0.959 . S
H757 C771 0.929 . S
H758 C772 0.931 . S
H759 C774 0.930 . S
C760 H748 0.930 . S
C760 C761 1.399 . S
C760 C765 1.399 . S
C761 C760 1.399 . S
C761 C762 1.376 . S
C762 H749 0.930 . S
C762 C761 1.376 . S
C762 C763 1.388 . S
C763 H750 0.930 1_655 S
C763 C762 1.388 . S
C763 C764 1.390 . S
C764 C763 1.390 . S
C764 C765 1.394 . S
C764 C770 1.465 . S
C765 C760 1.399 . S
C765 C764 1.394 . S
C765 C766 1.516 . S
C766 C765 1.516 . S
C766 C767 1.502 1_554 S
C766 C768 1.561 . S
C766 C769 1.526 . S
C767 H751 0.959 . S
C767 H752 0.959 . S
C767 H753 0.961 . S
C767 C766 1.502 1_556 S
C768 H754 0.960 . S
C768 H755 0.961 1_554 S
C768 H756 0.959 . S
C768 C766 1.561 . S
C769 C766 1.526 . S
C769 C770 1.396 . S
C769 C774 1.390 1_554 S
C770 C764 1.465 . S
C770 C769 1.396 . S
C770 C771 1.399 1_655 S
C771 H757 0.929 . S
C771 C770 1.399 1_455 S
C771 C772 1.385 . S
C772 H758 0.931 . S
C772 C771 1.385 . S
C772 C773 1.394 . S
C773 C772 1.394 . S
C773 C774 1.386 1_454 S
C774 H759 0.930 . S
C774 C769 1.390 1_556 S
C774 C773 1.386 1_656 S
H775 C787 0.930 . S
H776 C789 0.930 . S
H777 C790 0.930 1_545 S
H778 C794 0.959 . S
H779 C794 0.959 . S
H780 C794 0.961 . S
H781 C795 0.960 . S
H782 C795 0.961 . S
H783 C795 0.959 . S
H784 C798 0.929 . S
H785 C799 0.931 . S
H786 C801 0.930 . S
C787 H775 0.930 . S
C787 C788 1.399 . S
C787 C792 1.399 . S
C788 C787 1.399 . S
C788 C789 1.376 . S
C789 H776 0.930 . S
C789 C788 1.376 . S
C789 C790 1.388 . S
C790 H777 0.930 1_565 S
C790 C789 1.388 . S
C790 C791 1.390 . S
C791 C790 1.390 . S
C791 C792 1.394 . S
C791 C797 1.465 1_565 S
C792 C787 1.399 . S
C792 C791 1.394 . S
C792 C793 1.516 . S
C793 C792 1.516 . S
C793 C794 1.502 1_554 S
C793 C795 1.561 . S
C793 C796 1.526 . S
C794 H778 0.959 . S
C794 H779 0.959 . S
C794 H780 0.961 . S
C794 C793 1.502 1_556 S
C795 H781 0.960 . S
C795 H782 0.961 . S
C795 H783 0.959 . S
C795 C793 1.561 . S
C796 C793 1.526 . S
C796 C797 1.396 1_565 S
C796 C801 1.390 1_554 S
C797 C791 1.465 1_545 S
C797 C796 1.396 1_545 S
C797 C798 1.399 . S
C798 H784 0.929 . S
C798 C797 1.399 . S
C798 C799 1.385 . S
C799 H785 0.931 . S
C799 C798 1.385 . S
C799 C800 1.385 1_554 S
C800 C799 1.385 1_556 S
C800 C801 1.387 1_545 S
C801 H786 0.930 . S
C801 C796 1.390 1_556 S
C801 C800 1.387 1_565 S
H802 C814 0.930 . S
H803 C816 0.930 . S
H804 C817 0.930 . S
H805 C821 0.959 . S
H806 C821 0.959 . S
H807 C821 0.961 . S
H808 C822 0.960 . S
H809 C822 0.961 . S
H810 C822 0.959 . S
H811 C825 0.929 1_556 S
H812 C826 0.931 . S
H813 C828 0.930 . S
C814 H802 0.930 . S
C814 C815 1.399 . S
C814 C819 1.399 . S
C815 C814 1.399 . S
C815 C816 1.376 . S
C816 H803 0.930 . S
C816 C815 1.376 . S
C816 C817 1.388 . S
C817 H804 0.930 . S
C817 C816 1.388 . S
C817 C818 1.390 . S
C818 C817 1.390 . S
C818 C819 1.394 . S
C818 C824 1.465 . S
C819 C814 1.399 . S
C819 C818 1.394 . S
C819 C820 1.516 . S
C820 C819 1.516 . S
C820 C821 1.502 . S
C820 C822 1.561 . S
C820 C823 1.526 . S
C821 H805 0.959 . S
C821 H806 0.959 . S
C821 H807 0.961 . S
C821 C820 1.502 . S
C822 H808 0.960 . S
C822 H809 0.961 . S
C822 H810 0.959 . S
C822 C820 1.561 . S
C823 C820 1.526 . S
C823 C824 1.396 . S
C823 C828 1.390 . S
C824 C818 1.465 . S
C824 C823 1.396 . S
C824 C825 1.399 . S
C825 H811 0.929 1_554 S
C825 C824 1.399 . S
C825 C826 1.385 1_554 S
C826 H812 0.931 . S
C826 C825 1.385 1_556 S
C826 C827 1.389 1_556 S
C827 C826 1.389 1_554 S
C827 C828 1.387 . S
C828 H813 0.930 . S
C828 C823 1.390 . S
C828 C827 1.387 . S
H829 C841 0.930 . S
H830 C843 0.930 . S
H831 C844 0.930 . S
H832 C848 0.959 . S
H833 C848 0.959 . S
H834 C848 0.961 . S
H835 C849 0.960 . S
H836 C849 0.961 . S
H837 C849 0.959 . S
H838 C852 0.929 . S
H839 C853 0.931 . S
H840 C855 0.930 . S
C841 H829 0.930 . S
C841 C842 1.399 . S
C841 C846 1.399 . S
C842 C841 1.399 . S
C842 C843 1.376 . S
C843 H830 0.930 . S
C843 C842 1.376 . S
C843 C844 1.388 . S
C844 H831 0.930 . S
C844 C843 1.388 . S
C844 C845 1.390 . S
C845 C844 1.390 . S
C845 C846 1.394 . S
C845 C851 1.465 . S
C846 C841 1.399 . S
C846 C845 1.394 . S
C846 C847 1.516 . S
C847 C846 1.516 . S
C847 C848 1.502 . S
C847 C849 1.561 . S
C847 C850 1.526 . S
C848 H832 0.959 . S
C848 H833 0.959 . S
C848 H834 0.961 . S
C848 C847 1.502 . S
C849 H835 0.960 . S
C849 H836 0.961 . S
C849 H837 0.959 . S
C849 C847 1.561 . S
C850 C847 1.526 . S
C850 C851 1.396 . S
C850 C855 1.390 . S
C851 C845 1.465 . S
C851 C850 1.396 . S
C851 C852 1.399 1_554 S
C852 H838 0.929 . S
C852 C851 1.399 1_556 S
C852 C853 1.385 . S
C853 H839 0.931 . S
C853 C852 1.385 . S
C853 C854 1.389 1_556 S
C854 C853 1.389 1_554 S
C854 C855 1.387 . S
C855 H840 0.930 . S
C855 C850 1.390 . S
C855 C854 1.387 . S
H856 C868 0.930 . S
H857 C870 0.930 . S
H858 C871 0.930 . S
H859 C875 0.959 . S
H860 C875 0.959 . S
H861 C875 0.961 . S
H862 C876 0.960 1_554 S
H863 C876 0.961 . S
H864 C876 0.959 . S
H865 C879 0.929 . S
H866 C880 0.931 . S
H867 C882 0.930 . S
C868 H856 0.930 . S
C868 C869 1.399 . S
C868 C873 1.399 . S
C869 C868 1.399 . S
C869 C870 1.376 . S
C870 H857 0.930 . S
C870 C869 1.376 . S
C870 C871 1.388 . S
C871 H858 0.930 . S
C871 C870 1.388 . S
C871 C872 1.390 . S
C872 C871 1.390 . S
C872 C873 1.394 . S
C872 C878 1.465 . S
C873 C868 1.399 . S
C873 C872 1.394 . S
C873 C874 1.516 . S
C874 C873 1.516 . S
C874 C875 1.502 . S
C874 C876 1.561 . S
C874 C877 1.526 . S
C875 H859 0.959 . S
C875 H860 0.959 . S
C875 H861 0.961 . S
C875 C874 1.502 . S
C876 H862 0.960 1_556 S
C876 H863 0.961 . S
C876 H864 0.959 . S
C876 C874 1.561 . S
C877 C874 1.526 . S
C877 C878 1.396 . S
C877 C882 1.390 . S
C878 C872 1.465 . S
C878 C877 1.396 . S
C878 C879 1.399 . S
C879 H865 0.929 . S
C879 C878 1.399 . S
C879 C880 1.385 . S
C880 H866 0.931 . S
C880 C879 1.385 . S
C880 C881 1.389 . S
C881 C880 1.389 . S
C881 C882 1.387 . S
C882 H867 0.930 . S
C882 C877 1.390 . S
C882 C881 1.387 . S
H883 C895 0.930 . S
H884 C897 0.930 . S
H885 C898 0.930 . S
H886 C902 0.959 . S
H887 C902 0.959 . S
H888 C902 0.961 . S
H889 C903 0.960 1_565 S
H890 C903 0.961 1_565 S
H891 C903 0.959 . S
H892 C906 0.929 . S
H893 C907 0.931 . S
H894 C909 0.971 . S
C895 H883 0.930 . S
C895 C896 1.399 . S
C895 C900 1.399 . S
C896 C895 1.399 . S
C896 C897 1.376 . S
C897 H884 0.930 . S
C897 C896 1.376 . S
C897 C898 1.388 . S
C898 H885 0.930 . S
C898 C897 1.388 . S
C898 C899 1.390 . S
C899 C898 1.390 . S
C899 C900 1.394 . S
C899 C905 1.465 . S
C900 C895 1.399 . S
C900 C899 1.394 . S
C900 C901 1.516 . S
C901 C900 1.516 . S
C901 C902 1.502 1_545 S
C901 C903 1.561 . S
C901 C904 1.526 . S
C902 H886 0.959 . S
C902 H887 0.959 . S
C902 H888 0.961 . S
C902 C901 1.502 1_565 S
C903 H889 0.960 1_545 S
C903 H890 0.961 1_545 S
C903 H891 0.959 . S
C903 C901 1.561 . S
C904 C901 1.526 . S
C904 C905 1.396 . S
C904 C909 1.390 . S
C905 C899 1.465 . S
C905 C904 1.396 . S
C905 C906 1.399 . S
C906 H892 0.929 . S
C906 C905 1.399 . S
C906 C907 1.385 . S
C907 H893 0.931 . S
C907 C906 1.385 . S
C907 C908 1.389 . S
C908 C907 1.389 . S
C908 C909 1.387 . S
C909 H894 0.971 . S
C909 C904 1.390 . S
C909 C908 1.387 . S
H910 C922 0.930 . S
H911 C924 0.930 . S
H912 C925 0.930 . S
H913 C929 0.959 . S
H914 C929 0.959 . S
H915 C929 0.961 1_554 S
H916 C930 0.960 1_554 S
H917 C930 0.961 1_554 S
H918 C930 0.959 . S
H919 C933 0.929 . S
H920 C934 0.931 . S
H921 C936 0.930 . S
C922 H910 0.930 . S
C922 C923 1.399 . S
C922 C927 1.399 . S
C923 C922 1.399 . S
C923 C924 1.376 . S
C924 H911 0.930 . S
C924 C923 1.376 . S
C924 C925 1.388 . S
C925 H912 0.930 . S
C925 C924 1.388 . S
C925 C926 1.390 . S
C926 C925 1.390 . S
C926 C927 1.394 . S
C926 C932 1.465 . S
C927 C922 1.399 . S
C927 C926 1.394 . S
C927 C928 1.516 . S
C928 C927 1.516 . S
C928 C929 1.502 . S
C928 C930 1.561 . S
C928 C931 1.526 . S
C929 H913 0.959 . S
C929 H914 0.959 . S
C929 H915 0.961 1_556 S
C929 C928 1.502 . S
C930 H916 0.960 1_556 S
C930 H917 0.961 1_556 S
C930 H918 0.959 . S
C930 C928 1.561 . S
C931 C928 1.526 . S
C931 C932 1.396 . S
C931 C936 1.390 . S
C932 C926 1.465 . S
C932 C931 1.396 . S
C932 C933 1.399 . S
C933 H919 0.929 . S
C933 C932 1.399 . S
C933 C934 1.385 . S
C934 H920 0.931 . S
C934 C933 1.385 . S
C934 C935 1.389 . S
C935 C934 1.389 . S
C935 C936 1.387 . S
C936 H921 0.930 . S
C936 C931 1.390 . S
C936 C935 1.387 . S
H937 C949 0.930 . S
H938 C951 0.930 . S
H939 C952 0.930 . S
H940 C956 0.959 . S
H941 C956 0.959 . S
H942 C956 0.961 . S
H943 C957 0.960 . S
H944 C957 0.961 . S
H945 C957 0.959 . S
H946 C960 0.929 . S
H947 C961 0.931 . S
H948 C963 0.930 . S
C949 H937 0.930 . S
C949 C950 1.399 . S
C949 C954 1.399 . S
C950 C949 1.399 . S
C950 C951 1.376 . S
C951 H938 0.930 . S
C951 C950 1.376 . S
C951 C952 1.388 . S
C952 H939 0.930 . S
C952 C951 1.388 . S
C952 C953 1.390 . S
C953 C952 1.390 . S
C953 C954 1.394 . S
C953 C959 1.465 . S
C954 C949 1.399 . S
C954 C953 1.394 . S
C954 C955 1.516 . S
C955 C954 1.516 . S
C955 C956 1.502 . S
C955 C957 1.561 . S
C955 C958 1.526 . S
C956 H940 0.959 . S
C956 H941 0.959 . S
C956 H942 0.961 . S
C956 C955 1.502 . S
C957 H943 0.960 . S
C957 H944 0.961 . S
C957 H945 0.959 . S
C957 C955 1.561 . S
C958 C955 1.526 . S
C958 C959 1.396 . S
C958 C963 1.390 . S
C959 C953 1.465 . S
C959 C958 1.396 . S
C959 C960 1.399 . S
C960 H946 0.929 . S
C960 C959 1.399 . S
C960 C961 1.385 . S
C961 H947 0.931 . S
C961 C960 1.385 . S
C961 C962 1.389 . S
C962 C961 1.389 . S
C962 C963 1.387 . S
C963 H948 0.930 . S
C963 C958 1.390 . S
C963 C962 1.387 . S
H964 C976 0.930 . S
H965 C978 0.930 . S
H966 C979 0.930 . S
H967 C983 0.959 . S
H968 C983 0.959 . S
H969 C983 0.961 . S
H970 C984 0.960 . S
H971 C984 0.961 . S
H972 C984 0.959 1_455 S
H973 C987 0.929 . S
H974 C988 0.931 . S
H975 C990 0.930 . S
C976 H964 0.930 . S
C976 C977 1.399 . S
C976 C981 1.399 . S
C977 C976 1.399 . S
C977 C978 1.376 . S
C978 H965 0.930 . S
C978 C977 1.376 . S
C978 C979 1.388 . S
C979 H966 0.930 . S
C979 C978 1.388 . S
C979 C980 1.390 . S
C980 C979 1.390 . S
C980 C981 1.394 . S
C980 C986 1.465 . S
C981 C976 1.399 . S
C981 C980 1.394 . S
C981 C982 1.516 . S
C982 C981 1.516 . S
C982 C983 1.502 . S
C982 C984 1.561 . S
C982 C985 1.526 . S
C983 H967 0.959 . S
C983 H968 0.959 . S
C983 H969 0.961 . S
C983 C982 1.502 . S
C984 H970 0.960 . S
C984 H971 0.961 . S
C984 H972 0.959 1_655 S
C984 C982 1.561 . S
C985 C982 1.526 . S
C985 C986 1.396 . S
C985 C990 1.390 . S
C986 C980 1.465 . S
C986 C985 1.396 . S
C986 C987 1.399 . S
C987 H973 0.929 . S
C987 C986 1.399 . S
C987 C988 1.385 . S
C988 H974 0.931 . S
C988 C987 1.385 . S
C988 C989 1.389 . S
C989 C988 1.389 . S
C989 C990 1.387 . S
C990 H975 0.930 . S
C990 C985 1.390 . S
C990 C989 1.387 . S
H991 C1003 0.927 1_545 S
H992 C1005 0.930 . S
H993 C1006 0.930 . S
H994 C1010 0.959 . S
H995 C1010 0.959 . S
H996 C1010 0.961 . S
H997 C1011 0.960 . S
H998 C1011 0.961 . S
H999 C1011 0.959 1_565 S
H1000 C1014 0.929 . S
H1001 C1015 0.931 . S
H1002 C1017 0.892 1_545 S
C1003 H991 0.927 1_565 S
C1003 C1004 1.399 . S
C1003 C1008 1.399 . S
C1004 C1003 1.399 . S
C1004 C1005 1.376 . S
C1005 H992 0.930 . S
C1005 C1004 1.376 . S
C1005 C1006 1.388 . S
C1006 H993 0.930 . S
C1006 C1005 1.388 . S
C1006 C1007 1.390 . S
C1007 C1006 1.390 . S
C1007 C1008 1.394 . S
C1007 C1013 1.465 . S
C1008 C1003 1.399 . S
C1008 C1007 1.394 . S
C1008 C1009 1.516 1_565 S
C1009 C1008 1.516 1_545 S
C1009 C1010 1.502 . S
C1009 C1011 1.561 . S
C1009 C1012 1.526 1_545 S
C1010 H994 0.959 . S
C1010 H995 0.959 . S
C1010 H996 0.961 . S
C1010 C1009 1.502 . S
C1011 H997 0.960 . S
C1011 H998 0.961 . S
C1011 H999 0.959 1_545 S
C1011 C1009 1.561 . S
C1012 C1009 1.526 1_565 S
C1012 C1013 1.396 . S
C1012 C1017 1.404 . S
C1013 C1007 1.465 . S
C1013 C1012 1.396 . S
C1013 C1014 1.399 . S
C1014 H1000 0.929 . S
C1014 C1013 1.399 . S
C1014 C1015 1.385 . S
C1015 H1001 0.931 . S
C1015 C1014 1.385 . S
C1015 C1016 1.389 . S
C1016 C1015 1.389 . S
C1016 C1017 1.412 . S
C1017 H1002 0.892 1_565 S
C1017 C1012 1.404 . S
C1017 C1016 1.412 . S
H1018 C1030 0.930 . S
H1019 C1032 0.930 . S
H1020 C1033 0.930 . S
H1021 C1037 0.959 . S
H1022 C1037 0.959 . S
H1023 C1037 0.961 . S
H1024 C1038 0.960 . S
H1025 C1038 0.961 . S
H1026 C1038 0.959 . S
H1027 C1041 0.929 . S
H1028 C1042 0.931 . S
H1029 C1044 0.930 . S
C1030 H1018 0.930 . S
C1030 C1031 1.399 . S
C1030 C1035 1.399 . S
C1031 C1030 1.399 . S
C1031 C1032 1.376 . S
C1032 H1019 0.930 . S
C1032 C1031 1.376 . S
C1032 C1033 1.388 . S
C1033 H1020 0.930 . S
C1033 C1032 1.388 . S
C1033 C1034 1.390 . S
C1034 C1033 1.390 . S
C1034 C1035 1.394 . S
C1034 C1040 1.465 . S
C1035 C1030 1.399 . S
C1035 C1034 1.394 . S
C1035 C1036 1.516 . S
C1036 C1035 1.516 . S
C1036 C1037 1.502 . S
C1036 C1038 1.561 . S
C1036 C1039 1.526 . S
C1037 H1021 0.959 . S
C1037 H1022 0.959 . S
C1037 H1023 0.961 . S
C1037 C1036 1.502 . S
C1038 H1024 0.960 . S
C1038 H1025 0.961 . S
C1038 H1026 0.959 . S
C1038 C1036 1.561 . S
C1039 C1036 1.526 . S
C1039 C1040 1.396 . S
C1039 C1044 1.390 . S
C1040 C1034 1.465 . S
C1040 C1039 1.396 . S
C1040 C1041 1.399 . S
C1041 H1027 0.929 . S
C1041 C1040 1.399 . S
C1041 C1042 1.385 . S
C1042 H1028 0.931 . S
C1042 C1041 1.385 . S
C1042 C1043 1.389 . S
C1043 C1042 1.389 . S
C1043 C1044 1.387 . S
C1044 H1029 0.930 . S
C1044 C1039 1.390 . S
C1044 C1043 1.387 . S
H1045 C1057 0.930 . S
H1046 C1059 0.930 . S
H1047 C1060 0.930 . S
H1048 C1064 0.959 . S
H1049 C1064 0.959 . S
H1050 C1064 0.961 . S
H1051 C1065 0.960 . S
H1052 C1065 0.961 . S
H1053 C1065 0.959 . S
H1054 C1068 0.929 . S
H1055 C1069 0.931 . S
H1056 C1071 0.930 . S
C1057 H1045 0.930 . S
C1057 C1058 1.399 . S
C1057 C1062 1.399 . S
C1058 C1057 1.399 . S
C1058 C1059 1.376 . S
C1059 H1046 0.930 . S
C1059 C1058 1.376 . S
C1059 C1060 1.388 . S
C1060 H1047 0.930 . S
C1060 C1059 1.388 . S
C1060 C1061 1.390 . S
C1061 C1060 1.390 . S
C1061 C1062 1.394 . S
C1061 C1067 1.465 . S
C1062 C1057 1.399 . S
C1062 C1061 1.394 . S
C1062 C1063 1.516 . S
C1063 C1062 1.516 . S
C1063 C1064 1.502 . S
C1063 C1065 1.561 . S
C1063 C1066 1.526 . S
C1064 H1048 0.959 . S
C1064 H1049 0.959 . S
C1064 H1050 0.961 . S
C1064 C1063 1.502 . S
C1065 H1051 0.960 . S
C1065 H1052 0.961 . S
C1065 H1053 0.959 . S
C1065 C1063 1.561 . S
C1066 C1063 1.526 . S
C1066 C1067 1.396 . S
C1066 C1071 1.390 . S
C1067 C1061 1.465 . S
C1067 C1066 1.396 . S
C1067 C1068 1.399 . S
C1068 H1054 0.929 . S
C1068 C1067 1.399 . S
C1068 C1069 1.385 . S
C1069 H1055 0.931 . S
C1069 C1068 1.385 . S
C1069 C1070 1.389 . S
C1070 C1069 1.389 . S
C1070 C1071 1.387 . S
C1071 H1056 0.930 . S
C1071 C1066 1.390 . S
C1071 C1070 1.387 . S
C437 C76 1.885 . S
C449 C162 1.925 . S
C476 C246 1.944 . S
C464 C87 1.903 . S
C503 C312 1.894 . S
C491 C54 2.001 . S
C530 C396 1.950 . S
C518 C65 1.910 . S
C557 C151 1.918 1_565 S
C545 C32 1.904 . S
C572 C43 1.860 . S
C584 C235 1.978 . S
C599 C10 1.938 . S
C611 C323 1.961 . S
C626 C21 1.997 . S
C638 C407 1.867 . S
C665 C158 0.727 1_455 S
C653 C60 0.714 . S
C692 C242 0.699 1_545 S
C680 C71 0.632 . S
C719 C314 0.531 . S
C707 C82 0.546 . S
C734 C49 0.524 . S
C746 C398 0.530 . S
C761 C16 0.563 . S
C773 C146 0.585 1_554 S
C800 C230 0.547 . S
C788 C27 0.528 . S
C827 C326 0.613 . S
C815 C38 0.568 . S
C842 C5 0.725 . S
C854 C410 0.711 . S
C869 C59 2.020 . S
C881 C155 2.036 . S
C896 C70 1.988 . S
C908 C239 2.072 . S
C935 C319 2.062 . S
C923 C81 1.921 . S
C962 C403 2.112 . S
C950 C48 1.926 . S
C977 C15 1.953 . S
C989 C144 2.087 . S
C1016 C228 2.068 . S
C1004 C26 1.964 . S
C1043 C330 2.080 . S
C1031 C37 1.906 . S
C1058 C4 1.907 . S
C1070 C414 2.071 . S
