# Generated by pormake.
# Topology anh, (6,3)-cn, num edge types: 1
# Building blocks:
#     Node 0, Type 0, BuildingBlock: VOLQOD_clean_sbu_1, # of connection points: 6
#     Node 1, Type 0, BuildingBlock: VOLQOD_clean_sbu_1, # of connection points: 6
#     Node 2, Type 0, BuildingBlock: VOLQOD_clean_sbu_1, # of connection points: 6
#     Node 3, Type 1, BuildingBlock: QEWDON_clean_linker_0, # of connection points: 3
#     Node 4, Type 1, BuildingBlock: QEWDON_clean_linker_0, # of connection points: 3
#     Node 5, Type 1, BuildingBlock: QEWDON_clean_linker_0, # of connection points: 3
#     Node 6, Type 1, BuildingBlock: QEWDON_clean_linker_0, # of connection points: 3
#     Node 7, Type 1, BuildingBlock: QEWDON_clean_linker_0, # of connection points: 3
#     Node 8, Type 1, BuildingBlock: QEWDON_clean_linker_0, # of connection points: 3
#     Edge 9, Type (0, 1), BuildingBlock: MIFKUJ_clean_linker_0, # of connection points: 2
#     Edge 10, Type (0, 1), BuildingBlock: MIFKUJ_clean_linker_0, # of connection points: 2
#     Edge 11, Type (0, 1), BuildingBlock: MIFKUJ_clean_linker_0, # of connection points: 2
#     Edge 12, Type (0, 1), BuildingBlock: MIFKUJ_clean_linker_0, # of connection points: 2
#     Edge 13, Type (0, 1), BuildingBlock: MIFKUJ_clean_linker_0, # of connection points: 2
#     Edge 14, Type (0, 1), BuildingBlock: MIFKUJ_clean_linker_0, # of connection points: 2
#     Edge 15, Type (0, 1), BuildingBlock: MIFKUJ_clean_linker_0, # of connection points: 2
#     Edge 16, Type (0, 1), BuildingBlock: MIFKUJ_clean_linker_0, # of connection points: 2
#     Edge 17, Type (0, 1), BuildingBlock: MIFKUJ_clean_linker_0, # of connection points: 2
#     Edge 18, Type (0, 1), BuildingBlock: MIFKUJ_clean_linker_0, # of connection points: 2
#     Edge 19, Type (0, 1), BuildingBlock: MIFKUJ_clean_linker_0, # of connection points: 2
#     Edge 20, Type (0, 1), BuildingBlock: MIFKUJ_clean_linker_0, # of connection points: 2
#     Edge 21, Type (0, 1), BuildingBlock: MIFKUJ_clean_linker_0, # of connection points: 2
#     Edge 22, Type (0, 1), BuildingBlock: MIFKUJ_clean_linker_0, # of connection points: 2
#     Edge 23, Type (0, 1), BuildingBlock: MIFKUJ_clean_linker_0, # of connection points: 2
#     Edge 24, Type (0, 1), BuildingBlock: MIFKUJ_clean_linker_0, # of connection points: 2
#     Edge 25, Type (0, 1), BuildingBlock: MIFKUJ_clean_linker_0, # of connection points: 2
#     Edge 26, Type (0, 1), BuildingBlock: MIFKUJ_clean_linker_0, # of connection points: 2
# Relax obj value: 0.172
# Max RMSD: 0.223
# Mean RMSD: 0.181
data_MOF--net-anh--node1-VOLQOD_clean_sbu_1--node2-QEWDON_clean_linker_0--edge1-MIFKUJ_clean_linker_0
_symmetry_space_group_name_H-M    P1
_symmetry_Int_Tables_number       1
_symmetry_cell_setting            triclinic
loop_
_symmetry_equiv_pos_as_xyz
'x, y, z'
_cell_length_a     39.371495
_cell_length_b     39.323952
_cell_length_c     72.412196
_cell_angle_alpha  94.280314
_cell_angle_beta   94.125021
_cell_angle_gamma 120.18261
loop_
_atom_site_label
_atom_site_type_symbol
_atom_site_fract_x
_atom_site_fract_y
_atom_site_fract_z
_atom_type_partial_charge
O0 O 0.0277 0.56603 0.20626 0.0
Zn1 Zn 0.03064 0.57311 0.1791 0.0
O2 O 0.03572 0.53116 0.16557 0.0
Zn3 Zn 0.98932 0.49913 0.14704 0.0
Zn4 Zn 0.04185 0.49841 0.18339 0.0
Zn5 Zn 0.08152 0.55455 0.15221 0.0
O6 O 0.00249 0.49925 0.12054 0.0
O7 O 0.06727 0.54172 0.12454 0.0
O8 O 0.98061 0.57203 0.1693 0.0
O9 O 0.95182 0.51952 0.14762 0.0
O10 O 0.95912 0.4438 0.15341 0.0
O11 O 0.99336 0.44298 0.179 0.0
O12 O 0.09254 0.49655 0.1815 0.0
O13 O 0.07835 0.62706 0.17769 0.0
O14 O 0.11688 0.53377 0.15876 0.0
O15 O 0.11317 0.61363 0.15873 0.0
C16 C 0.03445 0.5448 0.21665 0.0
C17 C 0.03514 0.51874 0.11393 0.0
C18 C 0.96315 0.42586 0.16657 0.0
C19 C 0.95185 0.54831 0.15691 0.0
C20 C 0.11861 0.51197 0.17044 0.0
C21 C 0.1086 0.63834 0.16904 0.0
O22 O 0.04273 0.51933 0.20993 0.0
O23 O 0.5348 0.06597 0.45949 0.0
Zn24 Zn 0.52504 0.06451 0.48631 0.0
O25 O 0.56649 0.06234 0.50177 0.0
Zn26 Zn 0.59152 0.10657 0.52181 0.0
Zn27 Zn 0.60623 0.06432 0.48615 0.0
Zn28 Zn 0.54297 0.01414 0.51343 0.0
O29 O 0.59125 0.08971 0.54751 0.0
O30 O 0.54993 0.02483 0.54135 0.0
O31 O 0.52255 0.1131 0.49494 0.0
O32 O 0.56348 0.13719 0.52151 0.0
O33 O 0.64682 0.14554 0.51738 0.0
O34 O 0.657 0.11758 0.49224 0.0
O35 O 0.61582 0.01864 0.4893 0.0
O36 O 0.47159 0.01566 0.48676 0.0
O37 O 0.57052 0.98465 0.50775 0.0
O38 O 0.48466 0.97914 0.50464 0.0
C39 C 0.56033 0.06359 0.45053 0.0
C40 C 0.57133 0.05581 0.55299 0.0
C41 C 0.66854 0.14674 0.50494 0.0
C42 C 0.53853 0.13804 0.50967 0.0
C43 C 0.59854 0.98933 0.49851 0.0
C44 C 0.46028 0.98403 0.49432 0.0
O45 O 0.58862 0.06133 0.45885 0.0
O46 O 0.54333 0.51862 0.78613 0.0
Zn47 Zn 0.53618 0.50781 0.8129 0.0
O48 O 0.58538 0.54462 0.82947 0.0
Zn49 Zn 0.57888 0.58205 0.8453 0.0
Zn50 Zn 0.62818 0.57441 0.81453 0.0
Zn51 Zn 0.59829 0.51491 0.84601 0.0
O52 O 0.58878 0.58021 0.87256 0.0
O53 O 0.59527 0.52757 0.87335 0.0
O54 O 0.49059 0.51437 0.82005 0.0
O55 O 0.5232 0.56862 0.84073 0.0
O56 O 0.61267 0.63755 0.84004 0.0
O57 O 0.64684 0.63326 0.81784 0.0
O58 O 0.67409 0.56612 0.82109 0.0
O59 O 0.52224 0.45072 0.81389 0.0
O60 O 0.65286 0.52616 0.84313 0.0
O61 O 0.56315 0.45669 0.83832 0.0
C62 C 0.57404 0.53732 0.77796 0.0
C63 C 0.59287 0.55585 0.88169 0.0
C64 C 0.63776 0.6536 0.82871 0.0
C65 C 0.49125 0.54152 0.83114 0.0
C66 C 0.67914 0.54587 0.8328 0.0
C67 C 0.53536 0.43532 0.82515 0.0
O68 O 0.60854 0.5573 0.78714 0.0
H69 H 0.53357 0.12595 0.25046 0.0
C70 C 0.50833 0.09824 0.24371 0.0
C71 C 0.48851 0.06653 0.25409 0.0
C72 C 0.49406 0.09505 0.22493 0.0
H73 H 0.44038 0.00634 0.25317 0.0
C74 C 0.45524 0.03117 0.24531 0.0
C75 C 0.44119 0.02733 0.22648 0.0
C76 C 0.46069 0.05946 0.21637 0.0
C77 C 0.51219 0.12963 0.21451 0.0
H78 H 0.44951 0.05706 0.20191 0.0
C79 C 0.55265 0.14866 0.21238 0.0
C80 C 0.5694 0.18094 0.20197 0.0
C81 C 0.4886 0.14339 0.20645 0.0
H82 H 0.45739 0.12921 0.20803 0.0
C83 C 0.50517 0.17586 0.19651 0.0
H84 H 0.5706 0.13743 0.21826 0.0
C85 C 0.54524 0.19455 0.19426 0.0
H86 H 0.55736 0.21985 0.18655 0.0
H87 H 0.48688 0.18654 0.19049 0.0
H88 H 0.51233 0.57975 0.57334 0.0
C89 C 0.51585 0.55502 0.56859 0.0
C90 C 0.5318 0.53981 0.58127 0.0
C91 C 0.50343 0.53754 0.54988 0.0
H92 H 0.54817 0.49592 0.58492 0.0
C93 C 0.53586 0.50753 0.57505 0.0
C94 C 0.5227 0.48918 0.55651 0.0
C95 C 0.50656 0.50452 0.54402 0.0
C96 C 0.48626 0.55282 0.53633 0.0
H97 H 0.49577 0.49045 0.52971 0.0
C98 C 0.50819 0.59228 0.53264 0.0
C99 C 0.49338 0.60573 0.51844 0.0
C100 C 0.44888 0.52711 0.5261 0.0
H101 H 0.43155 0.49656 0.52874 0.0
C102 C 0.43368 0.54056 0.51231 0.0
H103 H 0.53741 0.61192 0.54024 0.0
C104 C 0.45582 0.57954 0.5084 0.0
H105 H 0.44346 0.58929 0.4976 0.0
H106 H 0.4048 0.5206 0.50452 0.0
H107 H 0.13452 0.60994 0.9268 0.0
C108 C 0.10848 0.59964 0.91677 0.0
C109 C 0.07037 0.57538 0.92174 0.0
C110 C 0.1132 0.61183 0.89897 0.0
H111 H 0.00776 0.54451 0.91204 0.0
C112 C 0.03729 0.56313 0.90842 0.0
C113 C 0.04186 0.57552 0.89059 0.0
C114 C 0.08003 0.59991 0.88598 0.0
C115 C 0.1529 0.6364 0.89362 0.0
H116 H 0.08405 0.60942 0.87222 0.0
C117 C 0.17437 0.61858 0.88828 0.0
C118 C 0.2113 0.64104 0.88193 0.0
C119 C 0.16841 0.67699 0.89281 0.0
H120 H 0.15183 0.69097 0.89674 0.0
C121 C 0.20544 0.69968 0.88682 0.0
H122 H 0.16208 0.58714 0.88896 0.0
C123 C 0.22681 0.68188 0.88137 0.0
H124 H 0.25508 0.69988 0.8764 0.0
H125 H 0.2174 0.73104 0.88621 0.0
H126 H 0.96035 0.5709 0.41719 0.0
C127 C 0.9893 0.59514 0.4233 0.0
C128 C 0.02092 0.60979 0.41255 0.0
C129 C 0.9948 0.61236 0.4418 0.0
H130 H 0.08245 0.65323 0.41212 0.0
C131 C 0.0581 0.64162 0.42046 0.0
C132 C 0.06392 0.65925 0.43886 0.0
C133 C 0.03217 0.64435 0.4495 0.0
C134 C 0.96117 0.59823 0.45289 0.0
H135 H 0.03634 0.65805 0.46368 0.0
C136 C 0.93992 0.55834 0.4561 0.0
C137 C 0.90865 0.54525 0.46716 0.0
C138 C 0.95069 0.62498 0.46058 0.0
H139 H 0.96665 0.65581 0.45822 0.0
C140 C 0.91924 0.61207 0.47119 0.0
H141 H 0.94874 0.53798 0.45053 0.0
C142 C 0.89833 0.57254 0.47448 0.0
H143 H 0.87392 0.56333 0.48269 0.0
H144 H 0.91109 0.63279 0.47693 0.0
H145 H 0.54091 0.9872 0.75439 0.0
C146 C 0.53769 0.01193 0.75947 0.0
C147 C 0.54449 0.04161 0.74808 0.0
C148 C 0.52604 0.01369 0.77726 0.0
H149 H 0.54442 0.09596 0.74587 0.0
C150 C 0.53958 0.07319 0.75467 0.0
C151 C 0.52791 0.07541 0.77235 0.0
C152 C 0.52147 0.04568 0.7836 0.0
C153 C 0.5175 0.98178 0.78913 0.0
H154 H 0.51243 0.0472 0.79727 0.0
C155 C 0.54278 0.96629 0.79122 0.0
C156 C 0.53535 0.93741 0.80322 0.0
C157 C 0.48413 0.96718 0.7988 0.0
H158 H 0.46373 0.97793 0.7972 0.0
C159 C 0.4765 0.93829 0.81055 0.0
H160 H 0.56883 0.97752 0.78401 0.0
C161 C 0.50199 0.9236 0.81284 0.0
H162 H 0.49532 0.901 0.82197 0.0
H163 H 0.45072 0.92723 0.8179 0.0
H164 H 0.551 0.6236 0.08341 0.0
C165 C 0.5691 0.61403 0.09073 0.0
C166 C 0.58884 0.59895 0.08062 0.0
C167 C 0.57477 0.61905 0.11035 0.0
H168 H 0.629 0.577 0.0824 0.0
C169 C 0.61322 0.58791 0.09026 0.0
C170 C 0.6188 0.59236 0.10984 0.0
C171 C 0.59958 0.60822 0.11983 0.0
C172 C 0.55876 0.63997 0.12105 0.0
H173 H 0.60442 0.61283 0.13497 0.0
C174 C 0.52102 0.61917 0.12689 0.0
C175 C 0.50712 0.63945 0.13799 0.0
C176 C 0.5824 0.68109 0.12612 0.0
H177 H 0.61162 0.69745 0.12177 0.0
C178 C 0.56865 0.70135 0.13695 0.0
H179 H 0.503 0.5873 0.12313 0.0
C180 C 0.53133 0.68073 0.14291 0.0
H181 H 0.5212 0.69718 0.1512 0.0
H182 H 0.58701 0.73311 0.1408 0.0
H183 H 0.14688 0.49128 0.14157 0.0
H184 H 0.21303 0.50053 0.14143 0.0
H185 H 0.23678 0.53511 0.20101 0.0
H186 H 0.16978 0.52485 0.20123 0.0
H187 H 0.28867 0.59283 0.17963 0.0
H188 H 0.23978 0.45673 0.18582 0.0
H189 H 0.19449 0.38447 0.17865 0.0
H190 H 0.22484 0.38826 0.12276 0.0
H191 H 0.26989 0.46066 0.12949 0.0
H192 H 0.48778 0.64702 0.17293 0.0
H193 H 0.42179 0.61566 0.18294 0.0
H194 H 0.37077 0.55281 0.12751 0.0
H195 H 0.43687 0.58365 0.11753 0.0
H196 H 0.33426 0.50568 0.15218 0.0
H197 H 0.37129 0.63907 0.14294 0.0
H198 H 0.41126 0.71216 0.14725 0.0
H199 H 0.39854 0.71435 0.20565 0.0
H200 H 0.35889 0.64121 0.20173 0.0
C201 C 0.16568 0.49931 0.15473 0.0
C202 C 0.15337 0.50715 0.17142 0.0
C203 C 0.20343 0.50457 0.15465 0.0
C204 C 0.22977 0.51844 0.17121 0.0
C205 C 0.21672 0.52409 0.18812 0.0
C206 C 0.17848 0.518 0.18825 0.0
C207 C 0.27221 0.53275 0.17012 0.0
C208 C 0.29901 0.57366 0.17416 0.0
C209 C 0.28509 0.50784 0.16226 0.0
C210 C 0.25809 0.46423 0.15815 0.0
C211 C 0.23658 0.44223 0.17195 0.0
C212 C 0.21099 0.40121 0.16797 0.0
C213 C 0.20675 0.38179 0.15026 0.0
C214 C 0.22816 0.40335 0.13649 0.0
C215 C 0.25378 0.44437 0.14038 0.0
C216 C 0.46247 0.62642 0.1629 0.0
C217 C 0.46742 0.61805 0.14439 0.0
C218 C 0.42477 0.60853 0.16863 0.0
C219 C 0.39117 0.58237 0.15591 0.0
C220 C 0.39621 0.5729 0.13759 0.0
C221 C 0.43399 0.59051 0.13189 0.0
C222 C 0.35069 0.56596 0.16143 0.0
C223 C 0.32426 0.52476 0.15811 0.0
C224 C 0.3378 0.59071 0.1696 0.0
C225 C 0.36267 0.63464 0.1721 0.0
C226 C 0.37745 0.65512 0.15675 0.0
C227 C 0.39994 0.69656 0.15911 0.0
C228 C 0.40759 0.71788 0.17673 0.0
C229 C 0.39275 0.69779 0.19202 0.0
C230 C 0.37027 0.65635 0.18975 0.0
H231 H 0.42487 0.74996 0.17851 0.0
H232 H 0.18691 0.35004 0.14721 0.0
H233 H 0.70597 0.21287 0.53084 0.0
H234 H 0.75332 0.28024 0.52532 0.0
H235 H 0.75814 0.23619 0.4698 0.0
H236 H 0.71117 0.16851 0.47527 0.0
H237 H 0.82979 0.29916 0.48507 0.0
H238 H 0.69471 0.26686 0.47661 0.0
H239 H 0.62792 0.24274 0.48569 0.0
H240 H 0.67596 0.33761 0.53096 0.0
H241 H 0.74325 0.36179 0.52243 0.0
H242 H 0.88576 0.47695 0.4438 0.0
H243 H 0.85053 0.40864 0.45112 0.0
H244 H 0.8475 0.45082 0.50733 0.0
H245 H 0.88335 0.51909 0.50031 0.0
H246 H 0.77527 0.3885 0.49135 0.0
H247 H 0.91115 0.42039 0.49905 0.0
H248 H 0.9771 0.44335 0.48914 0.0
H249 H 0.92559 0.34887 0.44356 0.0
H250 H 0.85922 0.32567 0.45306 0.0
C251 C 0.71784 0.21731 0.51761 0.0
C252 C 0.70426 0.18533 0.50339 0.0
C253 C 0.74479 0.25589 0.51446 0.0
C254 C 0.75836 0.26329 0.49697 0.0
C255 C 0.74773 0.23114 0.48334 0.0
C256 C 0.72091 0.19243 0.48652 0.0
C257 C 0.78044 0.30449 0.49235 0.0
C258 C 0.81775 0.3186 0.48627 0.0
C259 C 0.76472 0.3299 0.49403 0.0
C260 C 0.72416 0.31584 0.49902 0.0
C261 C 0.69112 0.2824 0.48861 0.0
C262 C 0.65316 0.26871 0.49365 0.0
C263 C 0.64773 0.28851 0.50895 0.0
C264 C 0.68024 0.32221 0.51916 0.0
C265 C 0.71831 0.3359 0.51423 0.0
C266 C 0.87802 0.47175 0.45779 0.0
C267 C 0.88734 0.50358 0.47145 0.0
C268 C 0.85778 0.43267 0.46192 0.0
C269 C 0.84658 0.42469 0.4798 0.0
C270 C 0.85573 0.45632 0.49343 0.0
C271 C 0.87606 0.49534 0.48934 0.0
C272 C 0.82485 0.38336 0.48429 0.0
C273 C 0.78741 0.36914 0.49024 0.0
C274 C 0.84026 0.3578 0.48231 0.0
C275 C 0.88017 0.37153 0.47666 0.0
C276 C 0.91384 0.4047 0.48683 0.0
C277 C 0.95131 0.41772 0.4813 0.0
C278 C 0.95552 0.39765 0.4657 0.0
C279 C 0.92228 0.36443 0.45563 0.0
C280 C 0.88474 0.3513 0.46109 0.0
H281 H 0.98455 0.40778 0.46144 0.0
H282 H 0.61835 0.27772 0.51288 0.0
H283 H 0.65634 0.71359 0.85595 0.0
H284 H 0.65776 0.77528 0.85162 0.0
H285 H 0.64696 0.74769 0.79193 0.0
H286 H 0.64719 0.68658 0.79628 0.0
H287 H 0.68701 0.8291 0.80296 0.0
H288 H 0.56507 0.71284 0.81268 0.0
H289 H 0.52236 0.6569 0.82931 0.0
H290 H 0.54343 0.73823 0.87771 0.0
H291 H 0.58677 0.79462 0.86145 0.0
H292 H 0.56268 0.90824 0.77627 0.0
H293 H 0.59761 0.87189 0.78074 0.0
H294 H 0.60256 0.89378 0.84045 0.0
H295 H 0.56719 0.92939 0.83601 0.0
H296 H 0.56919 0.81762 0.8292 0.0
H297 H 0.68684 0.93497 0.81809 0.0
H298 H 0.72799 0.99029 0.8008 0.0
H299 H 0.71345 0.90752 0.75438 0.0
H300 H 0.67172 0.85165 0.77129 0.0
C301 C 0.65596 0.72154 0.84196 0.0
C302 C 0.65118 0.69523 0.82644 0.0
C303 C 0.65663 0.75669 0.83949 0.0
C304 C 0.65126 0.76541 0.82143 0.0
C305 C 0.65089 0.74138 0.80597 0.0
C306 C 0.65107 0.7065 0.80847 0.0
C307 C 0.63926 0.7951 0.81873 0.0
C308 C 0.66117 0.82662 0.80859 0.0
C309 C 0.6056 0.79186 0.82616 0.0
C310 C 0.57946 0.75791 0.83591 0.0
C311 C 0.56082 0.71876 0.82691 0.0
C312 C 0.53647 0.68697 0.83627 0.0
C313 C 0.53024 0.69402 0.85457 0.0
C314 C 0.54833 0.73283 0.86355 0.0
C315 C 0.57277 0.7647 0.85427 0.0
C316 C 0.57209 0.90602 0.79034 0.0
C317 C 0.56183 0.92111 0.8058 0.0
C318 C 0.59216 0.88539 0.79289 0.0
C319 C 0.60269 0.88008 0.81094 0.0
C320 C 0.59455 0.89733 0.82639 0.0
C321 C 0.57425 0.91754 0.82385 0.0
C322 C 0.6174 0.85247 0.81379 0.0
C323 C 0.59546 0.82073 0.82377 0.0
C324 C 0.65077 0.85557 0.8061 0.0
C325 C 0.67582 0.88911 0.79589 0.0
C326 C 0.69211 0.92854 0.80413 0.0
C327 C 0.71561 0.96001 0.79441 0.0
C328 C 0.72324 0.95243 0.77649 0.0
C329 C 0.70747 0.91335 0.76826 0.0
C330 C 0.68392 0.88178 0.77791 0.0
H331 H 0.74145 0.97683 0.76899 0.0
H332 H 0.51132 0.66947 0.86181 0.0
H333 H 0.93742 0.60216 0.17565 0.0
H334 H 0.87899 0.60868 0.17028 0.0
H335 H 0.82899 0.51179 0.12549 0.0
H336 H 0.88733 0.50544 0.13051 0.0
H337 H 0.82136 0.57149 0.11541 0.0
H338 H 0.79394 0.49778 0.1677 0.0
H339 H 0.80837 0.48427 0.19914 0.0
H340 H 0.81817 0.5924 0.22334 0.0
H341 H 0.80431 0.6068 0.19199 0.0
H342 H 0.62579 0.52738 0.10208 0.0
H343 H 0.68067 0.51888 0.11347 0.0
H344 H 0.73154 0.62832 0.15059 0.0
H345 H 0.6769 0.63741 0.13903 0.0
H346 H 0.73932 0.56475 0.16555 0.0
H347 H 0.76383 0.6358 0.11179 0.0
H348 H 0.74567 0.64479 0.07998 0.0
H349 H 0.73875 0.53667 0.05806 0.0
H350 H 0.7561 0.52662 0.08981 0.0
C351 C 0.91407 0.58233 0.16461 0.0
C352 C 0.91713 0.5533 0.15351 0.0
C353 C 0.88057 0.58592 0.16165 0.0
C354 C 0.84946 0.56045 0.1476 0.0
C355 C 0.85265 0.53177 0.13639 0.0
C356 C 0.88607 0.52819 0.13931 0.0
C357 C 0.8138 0.56399 0.1443 0.0
C358 C 0.80326 0.56961 0.12635 0.0
C359 C 0.79051 0.56222 0.15864 0.0
C360 C 0.79858 0.55359 0.1775 0.0
C361 C 0.79954 0.51884 0.17972 0.0
C362 C 0.80754 0.51099 0.19752 0.0
C363 C 0.81433 0.53754 0.21322 0.0
C364 C 0.81298 0.57191 0.21116 0.0
C365 C 0.80502 0.57991 0.19338 0.0
C366 C 0.64833 0.54933 0.11288 0.0
C367 C 0.64739 0.58336 0.11946 0.0
C368 C 0.67953 0.54434 0.11942 0.0
C369 C 0.71034 0.57327 0.13265 0.0
C370 C 0.70796 0.6057 0.14036 0.0
C371 C 0.67672 0.61079 0.13377 0.0
C372 C 0.74693 0.57183 0.13668 0.0
C373 C 0.75764 0.56676 0.1547 0.0
C374 C 0.77026 0.57371 0.12237 0.0
C375 C 0.76092 0.58028 0.1032 0.0
C376 C 0.75819 0.61381 0.1002 0.0
C377 C 0.74804 0.6191 0.08218 0.0
C378 C 0.74097 0.59127 0.06701 0.0
C379 C 0.74419 0.55817 0.06982 0.0
C380 C 0.75419 0.55267 0.08783 0.0
H381 H 0.73308 0.5954 0.05307 0.0
H382 H 0.82053 0.53142 0.22699 0.0
H383 H 0.40314 0.97632 0.46767 0.0
H384 H 0.3345 0.92212 0.46087 0.0
H385 H 0.353 0.86535 0.5061 0.0
H386 H 0.42217 0.91887 0.51259 0.0
H387 H 0.31441 0.81273 0.47728 0.0
H388 H 0.29852 0.91356 0.50898 0.0
H389 H 0.30712 0.98 0.51585 0.0
H390 H 0.24907 0.96781 0.46118 0.0
H391 H 0.24061 0.9015 0.45388 0.0
H392 H 0.10735 0.67086 0.47237 0.0
H393 H 0.17341 0.72733 0.48441 0.0
H394 H 0.17403 0.78223 0.43495 0.0
H395 H 0.10821 0.72597 0.42287 0.0
H396 H 0.20129 0.8351 0.46864 0.0
H397 H 0.22194 0.73532 0.43699 0.0
H398 H 0.21267 0.66842 0.43106 0.0
H399 H 0.26109 0.67879 0.48766 0.0
H400 H 0.27011 0.74557 0.49399 0.0
C401 C 0.39257 0.95246 0.47626 0.0
C402 C 0.41815 0.95199 0.4907 0.0
C403 C 0.3532 0.92154 0.47242 0.0
C404 C 0.33831 0.88989 0.48316 0.0
C405 C 0.36375 0.88946 0.49764 0.0
C406 C 0.40328 0.92013 0.50135 0.0
C407 C 0.29669 0.8565 0.47877 0.0
C408 C 0.28966 0.81767 0.47575 0.0
C409 C 0.26431 0.86282 0.47649 0.0
C410 C 0.26923 0.90267 0.48083 0.0
C411 C 0.28785 0.92516 0.49837 0.0
C412 C 0.29265 0.96278 0.50235 0.0
C413 C 0.27873 0.97815 0.48894 0.0
C414 C 0.25988 0.95588 0.47155 0.0
C415 C 0.25502 0.91825 0.46749 0.0
C416 C 0.12152 0.69518 0.46419 0.0
C417 C 0.10291 0.694 0.44665 0.0
C418 C 0.1592 0.72726 0.47102 0.0
C419 C 0.17859 0.75876 0.4605 0.0
C420 C 0.15952 0.75818 0.44326 0.0
C421 C 0.12213 0.72596 0.43633 0.0
C422 C 0.21938 0.79176 0.46705 0.0
C423 C 0.22615 0.83038 0.47042 0.0
C424 C 0.25147 0.78526 0.46986 0.0
C425 C 0.24627 0.74523 0.46602 0.0
C426 C 0.23028 0.72319 0.44822 0.0
C427 C 0.22514 0.68532 0.44477 0.0
C428 C 0.23617 0.66931 0.45899 0.0
C429 C 0.25249 0.69119 0.47667 0.0
C430 C 0.25764 0.72906 0.48019 0.0
H431 H 0.23217 0.64 0.4563 0.0
H432 H 0.28249 0.00729 0.49205 0.0
H433 H 0.49253 0.38256 0.79375 0.0
H434 H 0.48213 0.31593 0.78647 0.0
H435 H 0.53774 0.32499 0.8416 0.0
H436 H 0.54855 0.39145 0.84893 0.0
H437 H 0.57249 0.30756 0.81509 0.0
H438 H 0.43952 0.25937 0.82861 0.0
H439 H 0.37392 0.25342 0.82592 0.0
H440 H 0.35386 0.21002 0.76764 0.0
H441 H 0.41961 0.21623 0.76992 0.0
H442 H 0.55051 0.11793 0.80718 0.0
H443 H 0.543 0.17405 0.81763 0.0
H444 H 0.48596 0.16501 0.76285 0.0
H445 H 0.49189 0.1078 0.7525 0.0
H446 H 0.45006 0.18113 0.78965 0.0
H447 H 0.58319 0.23262 0.7754 0.0
H448 H 0.64909 0.23925 0.77733 0.0
H449 H 0.6692 0.27793 0.83618 0.0
H450 H 0.60314 0.27098 0.83465 0.0
C451 C 0.50164 0.36997 0.80448 0.0
C452 C 0.52179 0.39252 0.82184 0.0
C453 C 0.49564 0.33186 0.8003 0.0
C454 C 0.50935 0.31559 0.81347 0.0
C455 C 0.52717 0.33708 0.83119 0.0
C456 C 0.53327 0.37509 0.83536 0.0
C457 C 0.50911 0.27829 0.80823 0.0
C458 C 0.54558 0.27974 0.80985 0.0
C459 C 0.47422 0.24237 0.80081 0.0
C460 C 0.43468 0.23864 0.7994 0.0
C461 C 0.42128 0.2489 0.81518 0.0
C462 C 0.38403 0.2454 0.81374 0.0
C463 C 0.35978 0.23145 0.79661 0.0
C464 C 0.37269 0.22087 0.7809 0.0
C465 C 0.40994 0.22433 0.78226 0.0
C466 C 0.53582 0.12747 0.79743 0.0
C467 C 0.52214 0.10863 0.77895 0.0
C468 C 0.53181 0.15974 0.80339 0.0
C469 C 0.51443 0.17406 0.79093 0.0
C470 C 0.4996 0.15454 0.77266 0.0
C471 C 0.50344 0.12216 0.76672 0.0
C472 C 0.51336 0.21045 0.79671 0.0
C473 C 0.47683 0.20891 0.79506 0.0
C474 C 0.54825 0.2465 0.804 0.0
C475 C 0.58806 0.25088 0.80495 0.0
C476 C 0.60154 0.24224 0.78878 0.0
C477 C 0.63894 0.24611 0.78979 0.0
C478 C 0.66327 0.2589 0.80687 0.0
C479 C 0.65029 0.26796 0.82297 0.0
C480 C 0.61289 0.26409 0.82203 0.0
H481 H 0.69222 0.26189 0.80763 0.0
H482 H 0.33094 0.22876 0.79553 0.0
H483 H 0.61277 0.95362 0.46862 0.0
H484 H 0.61355 0.89134 0.46763 0.0
H485 H 0.60852 0.89366 0.52701 0.0
H486 H 0.60707 0.95506 0.52796 0.0
H487 H 0.65373 0.86081 0.51405 0.0
H488 H 0.52499 0.85093 0.49998 0.0
H489 H 0.47898 0.8647 0.48164 0.0
H490 H 0.49261 0.80935 0.43157 0.0
H491 H 0.53917 0.79575 0.44964 0.0
H492 H 0.53392 0.67425 0.54269 0.0
H493 H 0.56893 0.74218 0.53507 0.0
H494 H 0.54177 0.69794 0.47633 0.0
H495 H 0.50615 0.62988 0.48392 0.0
H496 H 0.52349 0.75211 0.48241 0.0
H497 H 0.63852 0.74575 0.49903 0.0
H498 H 0.68366 0.73183 0.51797 0.0
H499 H 0.69696 0.81677 0.56301 0.0
H500 H 0.65144 0.83079 0.54446 0.0
C501 C 0.61329 0.94147 0.48151 0.0
C502 C 0.60949 0.95868 0.49834 0.0
C503 C 0.61365 0.90596 0.48094 0.0
C504 C 0.61075 0.88783 0.49723 0.0
C505 C 0.6109 0.90723 0.5143 0.0
C506 C 0.60985 0.94215 0.51482 0.0
C507 C 0.60066 0.84605 0.49637 0.0
C508 C 0.62546 0.83688 0.50704 0.0
C509 C 0.5641 0.815 0.4869 0.0
C510 C 0.53588 0.82281 0.47609 0.0
C511 C 0.51837 0.84197 0.48504 0.0
C512 C 0.49218 0.84971 0.4747 0.0
C513 C 0.48298 0.83802 0.45544 0.0
C514 C 0.49985 0.81847 0.44649 0.0
C515 C 0.52614 0.81075 0.45676 0.0
C516 C 0.536 0.67903 0.52817 0.0
C517 C 0.5171 0.64682 0.5139 0.0
C518 C 0.55621 0.71786 0.52382 0.0
C519 C 0.55846 0.72522 0.50511 0.0
C520 C 0.54049 0.69301 0.49085 0.0
C521 C 0.51999 0.65418 0.4952 0.0
C522 C 0.57614 0.76647 0.50051 0.0
C523 C 0.55252 0.77563 0.4889 0.0
C524 C 0.61382 0.79738 0.50912 0.0
C525 C 0.64137 0.78918 0.52036 0.0
C526 C 0.65085 0.76128 0.51302 0.0
C527 C 0.67655 0.7534 0.52368 0.0
C528 C 0.69313 0.77337 0.54169 0.0
C529 C 0.6841 0.80132 0.54905 0.0
C530 C 0.6584 0.80931 0.53846 0.0
H531 H 0.71301 0.76722 0.54992 0.0
H532 H 0.46269 0.84402 0.44745 0.0
H533 H 0.7503 0.59682 0.82115 0.0
H534 H 0.81162 0.59502 0.82555 0.0
H535 H 0.75123 0.48827 0.85164 0.0
H536 H 0.69055 0.49059 0.84785 0.0
H537 H 0.81648 0.53824 0.87217 0.0
H538 H 0.78042 0.48825 0.80734 0.0
H539 H 0.76065 0.48704 0.7741 0.0
H540 H 0.86916 0.59637 0.7724 0.0
H541 H 0.88936 0.59853 0.80572 0.0
H542 H 0.97285 0.50391 0.88257 0.0
H543 H 0.91044 0.49147 0.86609 0.0
H544 H 0.96878 0.61114 0.85226 0.0
H545 H 0.03105 0.62418 0.86901 0.0
H546 H 0.90412 0.5505 0.82394 0.0
H547 H 0.93487 0.60163 0.89025 0.0
H548 H 0.9553 0.59912 0.92288 0.0
H549 H 0.85394 0.48225 0.92083 0.0
H550 H 0.83339 0.48377 0.88801 0.0
C551 C 0.75012 0.57286 0.8277 0.0
C552 C 0.71578 0.54412 0.83434 0.0
C553 C 0.78506 0.57168 0.83009 0.0
C554 C 0.78591 0.54134 0.83882 0.0
C555 C 0.7513 0.51204 0.84494 0.0
C556 C 0.71665 0.51348 0.84279 0.0
C557 C 0.82343 0.54161 0.84294 0.0
C558 C 0.83516 0.5402 0.8615 0.0
C559 C 0.84827 0.54488 0.82912 0.0
C560 C 0.83622 0.54374 0.80908 0.0
C561 C 0.79992 0.51222 0.79992 0.0
C562 C 0.78867 0.51133 0.78106 0.0
C563 C 0.81359 0.54167 0.77115 0.0
C564 C 0.84986 0.57292 0.78009 0.0
C565 C 0.86125 0.57397 0.79896 0.0
C566 C 0.97252 0.52734 0.87573 0.0
C567 C 0.00657 0.56527 0.87742 0.0
C568 C 0.93703 0.52004 0.86616 0.0
C569 C 0.93516 0.55056 0.85818 0.0
C570 C 0.96984 0.58723 0.85828 0.0
C571 C 0.00535 0.59462 0.86791 0.0
C572 C 0.89645 0.54681 0.85298 0.0
C573 C 0.88486 0.54799 0.8344 0.0
C574 C 0.87138 0.54294 0.8667 0.0
C575 C 0.88282 0.54266 0.88664 0.0
C576 C 0.91706 0.57533 0.89673 0.0
C577 C 0.92868 0.57408 0.91525 0.0
C578 C 0.90598 0.54051 0.92391 0.0
C579 C 0.87152 0.50821 0.91409 0.0
C580 C 0.85988 0.50924 0.89553 0.0
H581 H 0.91507 0.53957 0.93824 0.0
H582 H 0.80483 0.54091 0.75655 0.0
H583 H 0.17066 0.67522 0.14886 0.0
H584 H 0.22601 0.74354 0.15503 0.0
H585 H 0.17467 0.76505 0.20195 0.0
H586 H 0.11863 0.69707 0.19555 0.0
H587 H 0.20446 0.82699 0.18351 0.0
H588 H 0.25 0.74318 0.20681 0.0
H589 H 0.26365 0.68838 0.20484 0.0
H590 H 0.34123 0.74088 0.16354 0.0
H591 H 0.32753 0.79571 0.16503 0.0
H592 H 0.37106 0.98519 0.24031 0.0
H593 H 0.31368 0.92148 0.22667 0.0
H594 H 0.37349 0.92119 0.17908 0.0
H595 H 0.43136 0.98503 0.19279 0.0
H596 H 0.34083 0.85027 0.19431 0.0
H597 H 0.29927 0.9376 0.17351 0.0
H598 H 0.28653 0.99292 0.17673 0.0
H599 H 0.20243 0.9341 0.21471 0.0
H600 H 0.2151 0.87866 0.21194 0.0
C601 C 0.17096 0.69457 0.16041 0.0
C602 C 0.14036 0.6806 0.17181 0.0
C603 C 0.20273 0.73358 0.16396 0.0
C604 C 0.20488 0.75918 0.17917 0.0
C605 C 0.17369 0.74577 0.19016 0.0
C606 C 0.14167 0.70687 0.1865 0.0
C607 C 0.24007 0.7996 0.184 0.0
C608 C 0.23424 0.83203 0.18602 0.0
C609 C 0.27908 0.80629 0.18678 0.0
C610 C 0.28731 0.77329 0.18586 0.0
C611 C 0.26968 0.74286 0.19718 0.0
C612 C 0.27748 0.71183 0.19617 0.0
C613 C 0.30317 0.71107 0.18401 0.0
C614 C 0.32125 0.74145 0.1729 0.0
C615 C 0.31347 0.77251 0.17382 0.0
C616 C 0.37194 0.97157 0.22692 0.0
C617 C 0.40566 0.98991 0.21762 0.0
C618 C 0.33907 0.93536 0.21909 0.0
C619 C 0.33928 0.91681 0.20182 0.0
C620 C 0.37276 0.93516 0.1924 0.0
C621 C 0.40562 0.97163 0.20018 0.0
C622 C 0.30505 0.87741 0.1941 0.0
C623 C 0.31108 0.84521 0.19157 0.0
C624 C 0.26623 0.87087 0.19098 0.0
C625 C 0.25837 0.90409 0.19262 0.0
C626 C 0.27829 0.93659 0.18266 0.0
C627 C 0.27104 0.96795 0.18439 0.0
C628 C 0.24375 0.96706 0.19595 0.0
C629 C 0.22358 0.93476 0.20577 0.0
C630 C 0.23075 0.90333 0.20411 0.0
H631 H 0.23817 0.99138 0.19726 0.0
H632 H 0.30911 0.68698 0.18323 0.0
H633 H 0.53917 0.17545 0.54289 0.0
H634 H 0.53105 0.23306 0.54806 0.0
H635 H 0.51322 0.23274 0.48859 0.0
H636 H 0.52019 0.17423 0.48326 0.0
H637 H 0.57677 0.30905 0.51314 0.0
H638 H 0.4384 0.2082 0.5049 0.0
H639 H 0.38037 0.14596 0.51091 0.0
H640 H 0.39947 0.19192 0.56878 0.0
H641 H 0.45803 0.25423 0.56317 0.0
H642 H 0.53932 0.46795 0.52282 0.0
H643 H 0.53773 0.4066 0.51253 0.0
H644 H 0.50939 0.36783 0.56647 0.0
H645 H 0.50797 0.42756 0.57637 0.0
H646 H 0.46576 0.30919 0.54141 0.0
H647 H 0.60443 0.4057 0.55212 0.0
H648 H 0.66647 0.46697 0.54885 0.0
H649 H 0.65247 0.42943 0.49019 0.0
H650 H 0.58998 0.36817 0.49305 0.0
C651 C 0.53297 0.18733 0.53093 0.0
C652 C 0.53011 0.17038 0.51269 0.0
C653 C 0.52833 0.22011 0.53389 0.0
C654 C 0.52148 0.23685 0.51869 0.0
C655 C 0.51832 0.21993 0.50045 0.0
C656 C 0.52207 0.18651 0.49745 0.0
C657 C 0.51961 0.27325 0.52206 0.0
C658 C 0.55224 0.30921 0.51899 0.0
C659 C 0.4881 0.27315 0.53024 0.0
C660 C 0.45284 0.23574 0.53364 0.0
C661 C 0.43047 0.20489 0.51895 0.0
C662 C 0.39742 0.16963 0.52227 0.0
C663 C 0.3863 0.16495 0.54023 0.0
C664 C 0.40815 0.19557 0.55488 0.0
C665 C 0.44125 0.23088 0.55163 0.0
C666 C 0.53234 0.44621 0.53244 0.0
C667 C 0.52391 0.45286 0.55046 0.0
C668 C 0.53195 0.41133 0.52661 0.0
C669 C 0.52396 0.38278 0.5388 0.0
C670 C 0.51572 0.38943 0.55681 0.0
C671 C 0.51547 0.42395 0.56255 0.0
C672 C 0.52339 0.34558 0.53279 0.0
C673 C 0.49026 0.30931 0.53539 0.0
C674 C 0.55496 0.3455 0.52456 0.0
C675 C 0.59222 0.38261 0.52276 0.0
C676 C 0.61434 0.41071 0.53848 0.0
C677 C 0.64964 0.4454 0.53671 0.0
C678 C 0.66332 0.45216 0.51931 0.0
C679 C 0.64177 0.42421 0.50365 0.0
C680 C 0.60641 0.3895 0.50534 0.0
H681 H 0.69069 0.47901 0.51798 0.0
H682 H 0.3607 0.13763 0.54277 0.0
H683 H 0.48583 0.59987 0.85037 0.0
H684 H 0.42675 0.60038 0.85704 0.0
H685 H 0.35374 0.48479 0.82511 0.0
H686 H 0.41374 0.48417 0.818 0.0
H687 H 0.32881 0.54122 0.81912 0.0
H688 H 0.35779 0.48571 0.86957 0.0
H689 H 0.40061 0.47947 0.89398 0.0
H690 H 0.43508 0.59467 0.92157 0.0
H691 H 0.39297 0.60192 0.89718 0.0
H692 H 0.18173 0.56961 0.86029 0.0
H693 H 0.21815 0.53745 0.85045 0.0
H694 H 0.32665 0.63697 0.87932 0.0
H695 H 0.29034 0.66868 0.88965 0.0
H696 H 0.31868 0.56641 0.88613 0.0
H697 H 0.30261 0.62683 0.83209 0.0
H698 H 0.26305 0.63584 0.80704 0.0
H699 H 0.20554 0.51203 0.78615 0.0
H700 H 0.24447 0.50223 0.81124 0.0
C701 C 0.45737 0.57453 0.8446 0.0
C702 C 0.45454 0.54182 0.83376 0.0
C703 C 0.42356 0.57484 0.84851 0.0
C704 C 0.38601 0.54227 0.8419 0.0
C705 C 0.38264 0.51001 0.83046 0.0
C706 C 0.41683 0.50973 0.82643 0.0
C707 C 0.35099 0.54293 0.84744 0.0
C708 C 0.32567 0.54551 0.83374 0.0
C709 C 0.34732 0.54881 0.86653 0.0
C710 C 0.37217 0.54434 0.8815 0.0
C711 C 0.37461 0.5098 0.8808 0.0
C712 C 0.39877 0.50608 0.89464 0.0
C713 C 0.42055 0.53665 0.90931 0.0
C714 C 0.41814 0.57098 0.91021 0.0
C715 C 0.39405 0.57487 0.8964 0.0
C716 C 0.2133 0.58443 0.86468 0.0
C717 C 0.23325 0.62169 0.87574 0.0
C718 C 0.23404 0.56614 0.85894 0.0
C719 C 0.27505 0.58493 0.86411 0.0
C720 C 0.29495 0.62197 0.87523 0.0
C721 C 0.27428 0.64023 0.88096 0.0
C722 C 0.29789 0.56671 0.85785 0.0
C723 C 0.32082 0.56074 0.87149 0.0
C724 C 0.29931 0.55774 0.83872 0.0
C725 C 0.27603 0.5637 0.82366 0.0
C726 C 0.28128 0.60148 0.82224 0.0
C727 C 0.25903 0.60674 0.80803 0.0
C728 C 0.23169 0.5745 0.79505 0.0
C729 C 0.22665 0.53695 0.79624 0.0
C730 C 0.2488 0.53153 0.81045 0.0
H731 H 0.2145 0.57862 0.78405 0.0
H732 H 0.43928 0.53375 0.92 0.0
H733 H 0.89826 0.3771 0.14129 0.0
H734 H 0.83375 0.3265 0.14841 0.0
H735 H 0.88361 0.33752 0.20504 0.0
H736 H 0.94861 0.38853 0.1981 0.0
H737 H 0.81852 0.25715 0.18921 0.0
H738 H 0.84976 0.39203 0.20016 0.0
H739 H 0.87459 0.45989 0.19233 0.0
H740 H 0.78404 0.41472 0.14535 0.0
H741 H 0.75909 0.34639 0.15269 0.0
H742 H 0.63398 0.19843 0.22678 0.0
H743 H 0.70368 0.2323 0.22144 0.0
H744 H 0.66998 0.24091 0.16476 0.0
H745 H 0.60049 0.20647 0.1698 0.0
H746 H 0.72956 0.31214 0.1834 0.0
H747 H 0.69832 0.17604 0.1734 0.0
H748 H 0.67471 0.10905 0.18217 0.0
H749 H 0.76562 0.15788 0.22916 0.0
H750 H 0.78943 0.22527 0.22081 0.0
C751 C 0.89593 0.36796 0.15512 0.0
C752 C 0.92842 0.38748 0.16924 0.0
C753 C 0.859 0.33899 0.15915 0.0
C754 C 0.85389 0.329 0.17733 0.0
C755 C 0.88705 0.34504 0.19094 0.0
C756 C 0.92417 0.37418 0.18692 0.0
C757 C 0.81341 0.30699 0.18262 0.0
C758 C 0.79913 0.26924 0.18819 0.0
C759 C 0.78829 0.32297 0.18124 0.0
C760 C 0.80285 0.36403 0.17685 0.0
C761 C 0.83537 0.3965 0.18805 0.0
C762 C 0.84944 0.43504 0.18371 0.0
C763 C 0.83101 0.44156 0.16831 0.0
C764 C 0.79835 0.40957 0.15725 0.0
C765 C 0.78422 0.37092 0.16149 0.0
C766 C 0.64137 0.20702 0.2131 0.0
C767 C 0.61166 0.20004 0.19876 0.0
C768 C 0.6812 0.22642 0.21009 0.0
C769 C 0.69193 0.23907 0.1927 0.0
C770 C 0.66232 0.23159 0.17831 0.0
C771 C 0.62263 0.21211 0.18127 0.0
C772 C 0.73406 0.26168 0.18956 0.0
C773 C 0.74883 0.2999 0.18448 0.0
C774 C 0.75957 0.24623 0.19162 0.0
C775 C 0.74537 0.20573 0.1966 0.0
C776 C 0.71306 0.17253 0.1857 0.0
C777 C 0.69968 0.13448 0.19057 0.0
C778 C 0.71857 0.12922 0.20625 0.0
C779 C 0.75097 0.162 0.21704 0.0
C780 C 0.76443 0.20013 0.21224 0.0
H781 H 0.70818 0.09974 0.21 0.0
H782 H 0.84192 0.47142 0.16502 0.0
H783 H 0.97564 0.50221 0.08647 0.0
H784 H 0.98013 0.5054 0.05307 0.0
H785 H 0.10085 0.53119 0.06204 0.0
H786 H 0.09704 0.53005 0.0955 0.0
H787 H 0.09921 0.57949 0.04158 0.0
H788 H 0.01956 0.43893 0.03913 0.0
H789 H 0.96353 0.37519 0.04515 0.0
H790 H 0.88189 0.39982 0.01512 0.0
H791 H 0.9374 0.46398 0.00914 0.0
H792 H 0.11598 0.55649 0.94437 0.0
H793 H 0.10853 0.54108 0.97646 0.0
H794 H 0.00438 0.5513 0.97446 0.0
H795 H 0.01253 0.56871 0.9428 0.0
H796 H -0.00162 0.48193 0.9905 0.0
H797 H 0.08149 0.62516 0.99492 0.0
H798 H 0.13945 0.68685 0.98835 0.0
H799 H 0.21734 0.65283 0.01446 0.0
H800 H 0.15976 0.5906 0.02093 0.0
C801 C 0.00292 0.50803 0.08124 0.0
C802 C 0.03603 0.51604 0.09355 0.0
C803 C 0.00544 0.50966 0.06213 0.0
C804 C 0.04076 0.51818 0.05494 0.0
C805 C 0.07335 0.52476 0.06722 0.0
C806 C 0.07112 0.52401 0.08633 0.0
C807 C 0.04478 0.52302 0.0349 0.0
C808 C 0.07744 0.55766 0.03046 0.0
C809 C 0.01613 0.49504 0.02028 0.0
C810 C 0.98264 0.45644 0.02383 0.0
C811 C 0.98964 0.4309 0.03393 0.0
C812 C 0.95797 0.39467 0.03732 0.0
C813 C 0.91917 0.38351 0.03056 0.0
C814 C 0.91196 0.40852 0.02036 0.0
C815 C 0.94352 0.44481 0.01695 0.0
C816 C 0.09166 0.55583 0.95077 0.0
C817 C 0.06495 0.56399 0.94093 0.0
C818 C 0.08727 0.54663 0.96904 0.0
C819 C 0.05587 0.54502 0.97773 0.0
C820 C 0.02858 0.55207 0.96787 0.0
C821 C 0.03326 0.56185 0.94972 0.0
C822 C 0.05264 0.53805 0.99746 0.0
C823 C 0.02016 0.50327 0.00175 0.0
C824 C 0.08173 0.56549 0.01195 0.0
C825 C 0.11633 0.60304 0.00821 0.0
C826 C 0.11097 0.63067 0.9991 0.0
C827 C 0.14375 0.66576 0.99543 0.0
C828 C 0.18206 0.6737 0.00094 0.0
C829 C 0.18765 0.64661 0.01018 0.0
C830 C 0.15496 0.61144 0.01386 0.0
H831 H 0.2074 0.70089 0.99808 0.0
H832 H 0.89469 0.35545 0.0332 0.0
H833 H 0.49667 0.0521 0.42739 0.0
H834 H 0.49118 0.05348 0.39372 0.0
H835 H 0.61083 0.07778 0.39349 0.0
H836 H 0.61664 0.07622 0.42734 0.0
H837 H 0.59202 0.12708 0.37262 0.0
H838 H 0.54238 0.98962 0.3776 0.0
H839 H 0.50134 0.92591 0.38948 0.0
H840 H 0.39576 0.92284 0.36701 0.0
H841 H 0.43617 0.98687 0.35523 0.0
H842 H 0.56308 0.09352 0.27186 0.0
H843 H 0.58168 0.09454 0.30511 0.0
H844 H 0.46033 0.04969 0.31488 0.0
H845 H 0.44171 0.04796 0.28182 0.0
H846 H 0.48754 0.00901 0.33062 0.0
H847 H 0.5351 0.14796 0.32838 0.0
H848 H 0.57441 0.21295 0.31728 0.0
H849 H 0.68173 0.21457 0.335 0.0
H850 H 0.64298 0.14929 0.34599 0.0
C851 C 0.52188 0.05772 0.42023 0.0
C852 C 0.55706 0.06392 0.43005 0.0
C853 C 0.51863 0.05841 0.40098 0.0
C854 C 0.55053 0.06552 0.39115 0.0
C855 C 0.5859 0.07221 0.40087 0.0
C856 C 0.58906 0.07109 0.42016 0.0
C857 C 0.54637 0.06564 0.37069 0.0
C858 C 0.56972 0.10112 0.36332 0.0
C859 C 0.51678 0.03191 0.35872 0.0
C860 C 0.49234 0.99321 0.36565 0.0
C861 C 0.51041 0.97552 0.37531 0.0
C862 C 0.48726 0.93932 0.382 0.0
C863 C 0.44597 0.92038 0.37903 0.0
C864 C 0.42775 0.93756 0.36931 0.0
C865 C 0.45077 0.97378 0.3626 0.0
C866 C 0.5406 0.08431 0.28121 0.0
C867 C 0.50094 0.07035 0.2743 0.0
C868 C 0.5512 0.08491 0.30017 0.0
C869 C 0.52238 0.07218 0.31251 0.0
C870 C 0.48301 0.05928 0.30562 0.0
C871 C 0.4724 0.05833 0.28674 0.0
C872 C 0.53243 0.07083 0.33249 0.0
C873 C 0.51021 0.03496 0.3398 0.0
C874 C 0.56281 0.10432 0.34439 0.0
C875 C 0.58612 0.14353 0.33779 0.0
C876 C 0.56706 0.16201 0.32976 0.0
C877 C 0.58924 0.19893 0.32352 0.0
C878 C 0.63054 0.21781 0.32537 0.0
C879 C 0.64974 0.19987 0.33353 0.0
C880 C 0.62768 0.16292 0.33978 0.0
H881 H 0.64766 0.2464 0.32054 0.0
H882 H 0.4281 0.89235 0.38423 0.0
H883 H 0.63256 0.56677 0.75531 0.0
H884 H 0.6258 0.57262 0.72213 0.0
H885 H 0.49914 0.51698 0.72113 0.0
H886 H 0.50552 0.51012 0.75429 0.0
H887 H 0.51592 0.48941 0.691 0.0
H888 H 0.55898 0.61829 0.72243 0.0
H889 H 0.60174 0.6788 0.74457 0.0
H890 H 0.70099 0.70366 0.71513 0.0
H891 H 0.65896 0.64294 0.69297 0.0
H892 H 0.48112 0.54241 0.60402 0.0
H893 H 0.4898 0.54975 0.63825 0.0
H894 H 0.60981 0.57502 0.63823 0.0
H895 H 0.60097 0.56693 0.60397 0.0
H896 H 0.59487 0.62052 0.66882 0.0
H897 H 0.55106 0.48795 0.63898 0.0
H898 H 0.50688 0.42854 0.61647 0.0
H899 H 0.40679 0.41202 0.64331 0.0
H900 H 0.45036 0.47193 0.66575 0.0
C901 C 0.6032 0.55554 0.74804 0.0
C902 C 0.56959 0.53817 0.75752 0.0
C903 C 0.59942 0.55915 0.72907 0.0
C904 C 0.56205 0.54601 0.71922 0.0
C905 C 0.52831 0.52755 0.72848 0.0
C906 C 0.53202 0.52363 0.74744 0.0
C907 C 0.55821 0.55155 0.69926 0.0
C908 C 0.53276 0.51821 0.68625 0.0
C909 C 0.58058 0.58906 0.69295 0.0
C910 C 0.60588 0.62585 0.70613 0.0
C911 C 0.58999 0.63651 0.72074 0.0
C912 C 0.61409 0.67087 0.73329 0.0
C913 C 0.65408 0.69501 0.73128 0.0
C914 C 0.67002 0.68491 0.71668 0.0
C915 C 0.64606 0.65054 0.70411 0.0
C916 C 0.50974 0.55089 0.61136 0.0
C917 C 0.54039 0.55409 0.60146 0.0
C918 C 0.51462 0.55491 0.63086 0.0
C919 C 0.55035 0.56266 0.64068 0.0
C920 C 0.5821 0.56918 0.63087 0.0
C921 C 0.57702 0.5645 0.61136 0.0
C922 C 0.55273 0.55846 0.66078 0.0
C923 C 0.57792 0.5919 0.67373 0.0
C924 C 0.52996 0.52116 0.66709 0.0
C925 C 0.50388 0.48466 0.65389 0.0
C926 C 0.51958 0.47185 0.63997 0.0
C927 C 0.49467 0.43807 0.62724 0.0
C928 C 0.45403 0.41657 0.62843 0.0
C929 C 0.43827 0.42875 0.64239 0.0
C930 C 0.46305 0.46262 0.65511 0.0
H931 H 0.43478 0.39041 0.61856 0.0
H932 H 0.67269 0.72159 0.74101 0.0
H933 H 0.61623 0.11405 0.58229 0.0
H934 H 0.61619 0.10759 0.61563 0.0
H935 H 0.5292 0.98294 0.60281 0.0
H936 H 0.5288 0.98904 0.56953 0.0
H937 H 0.50896 0.01945 0.62926 0.0
H938 H 0.62361 0.01205 0.61802 0.0
H939 H 0.68834 0.03398 0.60688 0.0
H940 H 0.74058 0.14191 0.64475 0.0
H941 H 0.67599 0.12087 0.65594 0.0
H942 H 0.511 0.97641 0.72163 0.0
H943 H 0.52097 0.97458 0.68869 0.0
H944 H 0.60919 0.09929 0.69797 0.0
H945 H 0.60029 0.10103 0.73102 0.0
H946 H 0.62931 0.05919 0.67312 0.0
H947 H 0.51484 0.06964 0.6825 0.0
H948 H 0.45037 0.04926 0.69363 0.0
H949 H 0.3981 0.93723 0.65895 0.0
H950 H 0.46248 0.95674 0.64781 0.0
C951 C 0.59722 0.08521 0.58655 0.0
C952 C 0.57248 0.05209 0.57321 0.0
C953 C 0.5974 0.08154 0.60561 0.0
C954 C 0.57291 0.04471 0.61167 0.0
C955 C 0.54835 0.01161 0.59841 0.0
C956 C 0.54824 0.0152 0.57938 0.0
C957 C 0.57157 0.04097 0.63186 0.0
C958 C 0.53516 0.02748 0.63879 0.0
C959 C 0.60594 0.05234 0.64434 0.0
C960 C 0.64486 0.06503 0.63769 0.0
C961 C 0.64882 0.04061 0.62387 0.0
C962 C 0.6855 0.05285 0.61757 0.0
C963 C 0.71853 0.08936 0.62507 0.0
C964 C 0.71496 0.11365 0.63894 0.0
C965 C 0.67833 0.10157 0.64527 0.0
C966 C 0.53325 0.00318 0.71676 0.0
C967 C 0.55451 0.03899 0.72885 0.0
C968 C 0.5387 0.00217 0.69791 0.0
C969 C 0.56528 0.03698 0.69083 0.0
C970 C 0.58836 0.07215 0.70312 0.0
C971 C 0.583 0.07317 0.72196 0.0
C972 C 0.56671 0.03765 0.67046 0.0
C973 C 0.60309 0.05076 0.66352 0.0
C974 C 0.53235 0.02613 0.65793 0.0
C975 C 0.49356 0.01447 0.66448 0.0
C976 C 0.48967 0.04054 0.67735 0.0
C977 C 0.45314 0.02916 0.68365 0.0
C978 C 0.42019 0.99192 0.67704 0.0
C979 C 0.42367 0.96603 0.66408 0.0
C980 C 0.46017 0.97724 0.65777 0.0
H981 H 0.39193 0.98317 0.68193 0.0
H982 H 0.7469 0.09878 0.62018 0.0
H983 H 0.60216 0.61938 0.90428 0.0
H984 H 0.60004 0.62573 0.93784 0.0
H985 H 0.58015 0.5076 0.93918 0.0
H986 H 0.58346 0.50147 0.90555 0.0
H987 H 0.54467 0.58878 0.95836 0.0
H988 H 0.61869 0.50102 0.98138 0.0
H989 H 0.66807 0.48466 0.97154 0.0
H990 H 0.72292 0.59029 0.94482 0.0
H991 H 0.6742 0.60751 0.95471 0.0
H992 H 0.52302 0.56032 0.05453 0.0
H993 H 0.52143 0.55189 0.02044 0.0
H994 H 0.6489 0.62576 0.02664 0.0
H995 H 0.65048 0.63286 0.06053 0.0
H996 H 0.62874 0.56474 0.0035 0.0
H997 H 0.58335 0.65724 0.0106 0.0
H998 H 0.54032 0.68204 0.02063 0.0
H999 H 0.43961 0.58226 0.98757 0.0
H1000 H 0.48197 0.55656 0.97754 0.0
C1001 C 0.59759 0.59478 0.9117 0.0
C1002 C 0.59317 0.55996 0.90223 0.0
C1003 C 0.59617 0.5984 0.93091 0.0
C1004 C 0.59011 0.56726 0.94111 0.0
C1005 C 0.58549 0.53232 0.93169 0.0
C1006 C 0.58737 0.52883 0.91245 0.0
C1007 C 0.58867 0.57167 0.96157 0.0
C1008 C 0.563 0.58343 0.96824 0.0
C1009 C 0.61287 0.56519 0.97451 0.0
C1010 C 0.6425 0.55526 0.9686 0.0
C1011 C 0.64135 0.52078 0.97345 0.0
C1012 C 0.66922 0.51136 0.96786 0.0
C1013 C 0.69852 0.53634 0.9575 0.0
C1014 C 0.70011 0.57088 0.95278 0.0
C1015 C 0.67234 0.58045 0.95835 0.0
C1016 C 0.55052 0.57504 0.0485 0.0
C1017 C 0.58685 0.59711 0.06005 0.0
C1018 C 0.54965 0.57028 0.02906 0.0
C1019 C 0.58507 0.58827 0.02091 0.0
C1020 C 0.62121 0.61128 0.03254 0.0
C1021 C 0.6221 0.6155 0.05188 0.0
C1022 C 0.58507 0.58235 0.00036 0.0
C1023 C 0.61025 0.56996 0.99366 0.0
C1024 C 0.56129 0.58942 0.98744 0.0
C1025 C 0.53575 0.60474 0.9935 0.0
C1026 C 0.55196 0.64041 0.0056 0.0
C1027 C 0.52771 0.65466 0.01126 0.0
C1028 C 0.48723 0.63367 0.00479 0.0
C1029 C 0.47095 0.59844 0.9926 0.0
C1030 C 0.49507 0.58402 0.98692 0.0
H1031 H 0.46851 0.64476 0.00918 0.0
H1032 H 0.72005 0.52898 0.95318 0.0
H1033 H 0.99481 0.57572 0.23385 0.0
H1034 H 0.98797 0.5815 0.26695 0.0
H1035 H 0.06052 0.53012 0.27835 0.0
H1036 H 0.06596 0.5226 0.245 0.0
H1037 H 0.00273 0.50101 0.29821 0.0
H1038 H 0.09628 0.63298 0.2876 0.0
H1039 H 0.12211 0.69364 0.27224 0.0
H1040 H 0.02616 0.70833 0.28704 0.0
H1041 H -0.00055 0.64743 0.30228 0.0
H1042 H 0.06336 0.58234 0.39538 0.0
H1043 H 0.0597 0.56487 0.36176 0.0
H1044 H 0.96336 0.58644 0.35128 0.0
H1045 H 0.96647 0.60324 0.38496 0.0
H1046 H 0.03106 0.62941 0.33127 0.0
H1047 H 0.94082 0.49698 0.3437 0.0
H1048 H 0.91968 0.43806 0.36006 0.0
H1049 H 0.01634 0.42704 0.34307 0.0
H1050 H 0.03843 0.48629 0.32682 0.0
C1051 C 0.00945 0.56578 0.2434 0.0
C1052 C 0.03123 0.54901 0.23683 0.0
C1053 C 0.00562 0.56922 0.26236 0.0
C1054 C 0.02437 0.55699 0.27526 0.0
C1055 C 0.04583 0.53986 0.2687 0.0
C1056 C 0.04906 0.53572 0.24965 0.0
C1057 C 0.02153 0.56207 0.29555 0.0
C1058 C 0.00943 0.52925 0.30546 0.0
C1059 C 0.02961 0.59872 0.30504 0.0
C1060 C 0.04565 0.63543 0.29592 0.0
C1061 C 0.08053 0.64899 0.28746 0.0
C1062 C 0.09535 0.68344 0.27879 0.0
C1063 C 0.07573 0.70477 0.27862 0.0
C1064 C 0.0413 0.69175 0.28716 0.0
C1065 C 0.02632 0.65729 0.29583 0.0
C1066 C 0.04093 0.58257 0.38589 0.0
C1067 C 0.01512 0.594 0.39267 0.0
C1068 C 0.03883 0.57257 0.36675 0.0
C1069 C 0.01126 0.57439 0.3541 0.0
C1070 C 0.98475 0.58478 0.36087 0.0
C1071 C 0.98638 0.59412 0.38005 0.0
C1072 C 0.01228 0.56845 0.33377 0.0
C1073 C 0.02422 0.60119 0.32392 0.0
C1074 C 0.00478 0.53201 0.32447 0.0
C1075 C 0.99151 0.49632 0.33419 0.0
C1076 C 0.9578 0.48223 0.34359 0.0
C1077 C 0.94559 0.44872 0.35282 0.0
C1078 C 0.96671 0.42888 0.35265 0.0
C1079 C 3e-05 0.44247 0.34321 0.0
C1080 C 0.01239 0.47599 0.33397 0.0
H1081 H 0.95721 0.40294 0.35979 0.0
H1082 H 0.08725 0.73143 0.2719 0.0
loop_
_geom_bond_atom_site_label_1
_geom_bond_atom_site_label_2
_geom_bond_distance
_geom_bond_site_symmetry_2
_ccdc_geom_bond_type
O0 Zn1 1.953 . S
O0 C16 1.225 . S
Zn1 O0 1.953 . S
Zn1 O2 1.949 . S
Zn1 O8 1.919 1_455 S
Zn1 O13 1.924 . S
O2 Zn1 1.949 . S
O2 Zn3 1.923 . S
O2 Zn4 1.950 . S
O2 Zn5 1.945 . S
Zn3 O2 1.923 . S
Zn3 O6 1.933 . S
Zn3 O9 1.941 1_455 S
Zn3 O10 1.965 1_455 S
Zn4 O2 1.950 . S
Zn4 O11 1.938 . S
Zn4 O12 1.906 . S
Zn4 O22 1.953 . S
Zn5 O2 1.945 . S
Zn5 O7 1.932 . S
Zn5 O14 1.977 . S
Zn5 O15 1.910 . S
O6 Zn3 1.933 . S
O6 C17 1.226 . S
O7 Zn5 1.932 . S
O7 C17 1.307 . S
O8 Zn1 1.919 1_655 S
O8 C19 1.253 . S
O9 Zn3 1.941 1_655 S
O9 C19 1.283 . S
O10 Zn3 1.965 1_655 S
O10 C18 1.303 . S
O11 Zn4 1.938 . S
O11 C18 1.247 1_455 S
O12 Zn4 1.906 . S
O12 C20 1.304 . S
O13 Zn1 1.924 . S
O13 C21 1.311 . S
O14 Zn5 1.977 . S
O14 C20 1.272 . S
O15 Zn5 1.910 . S
O15 C21 1.231 . S
C16 O0 1.225 . S
C16 O22 1.298 . S
C17 O6 1.226 . S
C17 O7 1.307 . S
C18 O10 1.303 . S
C18 O11 1.247 1_655 S
C19 O8 1.253 . S
C19 O9 1.283 . S
C20 O12 1.304 . S
C20 O14 1.272 . S
C21 O13 1.311 . S
C21 O15 1.231 . S
O22 Zn4 1.953 . S
O22 C16 1.298 . S
O23 Zn24 1.953 . S
O23 C39 1.225 . S
Zn24 O23 1.953 . S
Zn24 O25 1.949 . S
Zn24 O31 1.919 . S
Zn24 O36 1.924 . S
O25 Zn24 1.949 . S
O25 Zn26 1.923 . S
O25 Zn27 1.950 . S
O25 Zn28 1.945 . S
Zn26 O25 1.923 . S
Zn26 O29 1.933 . S
Zn26 O32 1.941 . S
Zn26 O33 1.965 . S
Zn27 O25 1.950 . S
Zn27 O34 1.938 . S
Zn27 O35 1.906 . S
Zn27 O45 1.953 . S
Zn28 O25 1.945 . S
Zn28 O30 1.932 . S
Zn28 O37 1.977 1_545 S
Zn28 O38 1.910 1_545 S
O29 Zn26 1.933 . S
O29 C40 1.226 . S
O30 Zn28 1.932 . S
O30 C40 1.307 . S
O31 Zn24 1.919 . S
O31 C42 1.253 . S
O32 Zn26 1.941 . S
O32 C42 1.283 . S
O33 Zn26 1.965 . S
O33 C41 1.303 . S
O34 Zn27 1.938 . S
O34 C41 1.247 . S
O35 Zn27 1.906 . S
O35 C43 1.304 1_545 S
O36 Zn24 1.924 . S
O36 C44 1.311 1_545 S
O37 Zn28 1.977 1_565 S
O37 C43 1.272 . S
O38 Zn28 1.910 1_565 S
O38 C44 1.231 . S
C39 O23 1.225 . S
C39 O45 1.298 . S
C40 O29 1.226 . S
C40 O30 1.307 . S
C41 O33 1.303 . S
C41 O34 1.247 . S
C42 O31 1.253 . S
C42 O32 1.283 . S
C43 O35 1.304 1_565 S
C43 O37 1.272 . S
C44 O36 1.311 1_565 S
C44 O38 1.231 . S
O45 Zn27 1.953 . S
O45 C39 1.298 . S
O46 Zn47 1.953 . S
O46 C62 1.225 . S
Zn47 O46 1.953 . S
Zn47 O48 1.949 . S
Zn47 O54 1.919 . S
Zn47 O59 1.924 . S
O48 Zn47 1.949 . S
O48 Zn49 1.923 . S
O48 Zn50 1.950 . S
O48 Zn51 1.945 . S
Zn49 O48 1.923 . S
Zn49 O52 1.933 . S
Zn49 O55 1.941 . S
Zn49 O56 1.965 . S
Zn50 O48 1.950 . S
Zn50 O57 1.938 . S
Zn50 O58 1.906 . S
Zn50 O68 1.953 . S
Zn51 O48 1.945 . S
Zn51 O53 1.932 . S
Zn51 O60 1.977 . S
Zn51 O61 1.910 . S
O52 Zn49 1.933 . S
O52 C63 1.226 . S
O53 Zn51 1.932 . S
O53 C63 1.307 . S
O54 Zn47 1.919 . S
O54 C65 1.253 . S
O55 Zn49 1.941 . S
O55 C65 1.283 . S
O56 Zn49 1.965 . S
O56 C64 1.303 . S
O57 Zn50 1.938 . S
O57 C64 1.247 . S
O58 Zn50 1.906 . S
O58 C66 1.304 . S
O59 Zn47 1.924 . S
O59 C67 1.311 . S
O60 Zn51 1.977 . S
O60 C66 1.272 . S
O61 Zn51 1.910 . S
O61 C67 1.231 . S
C62 O46 1.225 . S
C62 O68 1.298 . S
C63 O52 1.226 . S
C63 O53 1.307 . S
C64 O56 1.303 . S
C64 O57 1.247 . S
C65 O54 1.253 . S
C65 O55 1.283 . S
C66 O58 1.304 . S
C66 O60 1.272 . S
C67 O59 1.311 . S
C67 O61 1.231 . S
O68 Zn50 1.953 . S
O68 C62 1.298 . S
H69 C70 0.949 . S
C70 H69 0.949 . S
C70 C71 1.395 . S
C70 C72 1.391 . S
C71 C70 1.395 . S
C71 C74 1.390 . S
C72 C70 1.391 . S
C72 C76 1.387 . S
C72 C77 1.491 . S
H73 C74 0.950 . S
C74 C71 1.390 . S
C74 H73 0.950 . S
C74 C75 1.378 . S
C75 C74 1.378 . S
C75 C76 1.409 . S
C76 C72 1.387 . S
C76 C75 1.409 . S
C76 H78 0.951 . S
C77 C72 1.491 . S
C77 C79 1.382 . S
C77 C81 1.404 . S
H78 C76 0.951 . S
C79 C77 1.382 . S
C79 C80 1.390 . S
C79 H84 0.949 . S
C80 C79 1.390 . S
C80 C85 1.399 . S
C81 C77 1.404 . S
C81 H82 0.950 . S
C81 C83 1.375 . S
H82 C81 0.950 . S
C83 C81 1.375 . S
C83 C85 1.382 . S
C83 H87 0.950 . S
H84 C79 0.949 . S
C85 C80 1.399 . S
C85 C83 1.382 . S
C85 H86 0.952 . S
H86 C85 0.952 . S
H87 C83 0.950 . S
H88 C89 0.949 . S
C89 H88 0.949 . S
C89 C90 1.395 . S
C89 C91 1.391 . S
C90 C89 1.395 . S
C90 C93 1.390 . S
C91 C89 1.391 . S
C91 C95 1.387 . S
C91 C96 1.491 . S
H92 C93 0.950 . S
C93 C90 1.390 . S
C93 H92 0.950 . S
C93 C94 1.378 . S
C94 C93 1.378 . S
C94 C95 1.409 . S
C95 C91 1.387 . S
C95 C94 1.409 . S
C95 H97 0.951 . S
C96 C91 1.491 . S
C96 C98 1.382 . S
C96 C100 1.404 . S
H97 C95 0.951 . S
C98 C96 1.382 . S
C98 C99 1.390 . S
C98 H103 0.949 . S
C99 C98 1.390 . S
C99 C104 1.399 . S
C100 C96 1.404 . S
C100 H101 0.950 . S
C100 C102 1.375 . S
H101 C100 0.950 . S
C102 C100 1.375 . S
C102 C104 1.382 . S
C102 H106 0.950 . S
H103 C98 0.949 . S
C104 C99 1.399 . S
C104 C102 1.382 . S
C104 H105 0.952 . S
H105 C104 0.952 . S
H106 C102 0.950 . S
H107 C108 0.949 . S
C108 H107 0.949 . S
C108 C109 1.395 . S
C108 C110 1.391 . S
C109 C108 1.395 . S
C109 C112 1.390 . S
C110 C108 1.391 . S
C110 C114 1.387 . S
C110 C115 1.491 . S
H111 C112 0.950 . S
C112 C109 1.390 . S
C112 H111 0.950 . S
C112 C113 1.378 . S
C113 C112 1.378 . S
C113 C114 1.409 . S
C114 C110 1.387 . S
C114 C113 1.409 . S
C114 H116 0.951 . S
C115 C110 1.491 . S
C115 C117 1.382 . S
C115 C119 1.404 . S
H116 C114 0.951 . S
C117 C115 1.382 . S
C117 C118 1.390 . S
C117 H122 0.949 . S
C118 C117 1.390 . S
C118 C123 1.399 . S
C119 C115 1.404 . S
C119 H120 0.950 . S
C119 C121 1.375 . S
H120 C119 0.950 . S
C121 C119 1.375 . S
C121 C123 1.382 . S
C121 H125 0.950 . S
H122 C117 0.949 . S
C123 C118 1.399 . S
C123 C121 1.382 . S
C123 H124 0.952 . S
H124 C123 0.952 . S
H125 C121 0.950 . S
H126 C127 0.949 1_655 S
C127 H126 0.949 1_455 S
C127 C128 1.395 . S
C127 C129 1.391 . S
C128 C127 1.395 . S
C128 C131 1.390 . S
C129 C127 1.391 . S
C129 C133 1.387 . S
C129 C134 1.491 1_455 S
H130 C131 0.950 . S
C131 C128 1.390 . S
C131 H130 0.950 . S
C131 C132 1.378 . S
C132 C131 1.378 . S
C132 C133 1.409 . S
C133 C129 1.387 . S
C133 C132 1.409 . S
C133 H135 0.951 . S
C134 C129 1.491 1_655 S
C134 C136 1.382 . S
C134 C138 1.404 . S
H135 C133 0.951 . S
C136 C134 1.382 . S
C136 C137 1.390 . S
C136 H141 0.949 . S
C137 C136 1.390 . S
C137 C142 1.399 . S
C138 C134 1.404 . S
C138 H139 0.950 . S
C138 C140 1.375 . S
H139 C138 0.950 . S
C140 C138 1.375 . S
C140 C142 1.382 . S
C140 H144 0.950 . S
H141 C136 0.949 . S
C142 C137 1.399 . S
C142 C140 1.382 . S
C142 H143 0.952 . S
H143 C142 0.952 . S
H144 C140 0.950 . S
H145 C146 0.949 . S
C146 H145 0.949 . S
C146 C147 1.395 . S
C146 C148 1.391 . S
C147 C146 1.395 . S
C147 C150 1.390 . S
C148 C146 1.391 . S
C148 C152 1.387 . S
C148 C153 1.491 1_545 S
H149 C150 0.950 . S
C150 C147 1.390 . S
C150 H149 0.950 . S
C150 C151 1.378 . S
C151 C150 1.378 . S
C151 C152 1.409 . S
C152 C148 1.387 . S
C152 C151 1.409 . S
C152 H154 0.951 . S
C153 C148 1.491 1_565 S
C153 C155 1.382 . S
C153 C157 1.404 . S
H154 C152 0.951 . S
C155 C153 1.382 . S
C155 C156 1.390 . S
C155 H160 0.949 . S
C156 C155 1.390 . S
C156 C161 1.399 . S
C157 C153 1.404 . S
C157 H158 0.950 1_565 S
C157 C159 1.375 . S
H158 C157 0.950 1_545 S
C159 C157 1.375 . S
C159 C161 1.382 . S
C159 H163 0.950 . S
H160 C155 0.949 . S
C161 C156 1.399 . S
C161 C159 1.382 . S
C161 H162 0.952 . S
H162 C161 0.952 . S
H163 C159 0.950 . S
H164 C165 0.949 . S
C165 H164 0.949 . S
C165 C166 1.395 . S
C165 C167 1.391 . S
C166 C165 1.395 . S
C166 C169 1.390 . S
C167 C165 1.391 . S
C167 C171 1.387 . S
C167 C172 1.491 . S
H168 C169 0.950 . S
C169 C166 1.390 . S
C169 H168 0.950 . S
C169 C170 1.378 . S
C170 C169 1.378 . S
C170 C171 1.409 . S
C171 C167 1.387 . S
C171 C170 1.409 . S
C171 H173 0.951 . S
C172 C167 1.491 . S
C172 C174 1.382 . S
C172 C176 1.404 . S
H173 C171 0.951 . S
C174 C172 1.382 . S
C174 C175 1.390 . S
C174 H179 0.949 . S
C175 C174 1.390 . S
C175 C180 1.399 . S
C176 C172 1.404 . S
C176 H177 0.950 . S
C176 C178 1.375 . S
H177 C176 0.950 . S
C178 C176 1.375 . S
C178 C180 1.382 . S
C178 H182 0.950 . S
H179 C174 0.949 . S
C180 C175 1.399 . S
C180 C178 1.382 . S
C180 H181 0.952 . S
H181 C180 0.952 . S
H182 C178 0.950 . S
H183 C201 0.951 . S
H184 C203 0.951 . S
H185 C205 0.950 . S
H186 C206 0.950 . S
H187 C208 0.950 . S
H188 C211 0.950 . S
H189 C212 0.950 . S
H190 C214 0.950 . S
H191 C215 0.950 . S
H192 C216 0.951 . S
H193 C218 0.951 . S
H194 C220 0.950 . S
H195 C221 0.950 . S
H196 C223 0.950 . S
H197 C226 0.950 . S
H198 C227 0.950 . S
H199 C229 0.950 . S
H200 C230 0.950 . S
C201 H183 0.951 . S
C201 C202 1.366 . S
C201 C203 1.388 . S
C202 C201 1.366 . S
C202 C206 1.385 . S
C203 H184 0.951 . S
C203 C201 1.388 . S
C203 C204 1.366 . S
C204 C203 1.366 . S
C204 C205 1.414 . S
C204 C207 1.499 . S
C205 H185 0.950 . S
C205 C204 1.414 . S
C205 C206 1.374 . S
C206 H186 0.950 . S
C206 C202 1.385 . S
C206 C205 1.374 . S
C207 C204 1.499 . S
C207 C208 1.373 . S
C207 C209 1.389 . S
C208 H187 0.950 . S
C208 C207 1.373 . S
C208 C224 1.377 . S
C209 C207 1.389 . S
C209 C210 1.524 . S
C209 C223 1.377 . S
C210 C209 1.524 . S
C210 C211 1.397 . S
C210 C215 1.363 . S
C211 H188 0.950 . S
C211 C210 1.397 . S
C211 C212 1.334 . S
C212 H189 0.950 . S
C212 C211 1.334 . S
C212 C213 1.287 . S
C213 C212 1.287 . S
C213 C214 1.524 . S
C213 H232 0.913 . S
C214 H190 0.950 . S
C214 C213 1.524 . S
C214 C215 1.415 . S
C215 H191 0.950 . S
C215 C210 1.363 . S
C215 C214 1.415 . S
C216 H192 0.951 . S
C216 C217 1.366 . S
C216 C218 1.388 . S
C217 C216 1.366 . S
C217 C221 1.385 . S
C218 H193 0.951 . S
C218 C216 1.388 . S
C218 C219 1.366 . S
C219 C218 1.366 . S
C219 C220 1.414 . S
C219 C222 1.499 . S
C220 H194 0.950 . S
C220 C219 1.414 . S
C220 C221 1.374 . S
C221 H195 0.950 . S
C221 C217 1.385 . S
C221 C220 1.374 . S
C222 C219 1.499 . S
C222 C223 1.373 . S
C222 C224 1.389 . S
C223 H196 0.950 . S
C223 C209 1.377 . S
C223 C222 1.373 . S
C224 C208 1.377 . S
C224 C222 1.389 . S
C224 C225 1.524 . S
C225 C224 1.524 . S
C225 C226 1.397 . S
C225 C230 1.363 . S
C226 H197 0.950 . S
C226 C225 1.397 . S
C226 C227 1.334 . S
C227 H198 0.950 . S
C227 C226 1.334 . S
C227 C228 1.287 . S
C228 C227 1.287 . S
C228 C229 1.524 . S
C228 H231 0.999 . S
C229 H199 0.950 . S
C229 C228 1.524 . S
C229 C230 1.415 . S
C230 H200 0.950 . S
C230 C225 1.363 . S
C230 C229 1.415 . S
H231 C228 0.999 . S
H232 C213 0.913 . S
H233 C251 0.951 . S
H234 C253 0.951 . S
H235 C255 0.950 . S
H236 C256 0.950 . S
H237 C258 0.950 . S
H238 C261 0.950 . S
H239 C262 0.950 . S
H240 C264 0.950 . S
H241 C265 0.950 . S
H242 C266 0.951 . S
H243 C268 0.951 . S
H244 C270 0.950 . S
H245 C271 0.950 . S
H246 C273 0.950 . S
H247 C276 0.950 . S
H248 C277 0.950 . S
H249 C279 0.950 . S
H250 C280 0.950 . S
C251 H233 0.951 . S
C251 C252 1.366 . S
C251 C253 1.388 . S
C252 C251 1.366 . S
C252 C256 1.385 . S
C253 H234 0.951 . S
C253 C251 1.388 . S
C253 C254 1.366 . S
C254 C253 1.366 . S
C254 C255 1.414 . S
C254 C257 1.499 . S
C255 H235 0.950 . S
C255 C254 1.414 . S
C255 C256 1.374 . S
C256 H236 0.950 . S
C256 C252 1.385 . S
C256 C255 1.374 . S
C257 C254 1.499 . S
C257 C258 1.373 . S
C257 C259 1.389 . S
C258 H237 0.950 . S
C258 C257 1.373 . S
C258 C274 1.377 . S
C259 C257 1.389 . S
C259 C260 1.524 . S
C259 C273 1.377 . S
C260 C259 1.524 . S
C260 C261 1.397 . S
C260 C265 1.363 . S
C261 H238 0.950 . S
C261 C260 1.397 . S
C261 C262 1.334 . S
C262 H239 0.950 . S
C262 C261 1.334 . S
C262 C263 1.287 . S
C263 C262 1.287 . S
C263 C264 1.524 . S
C263 H282 0.913 . S
C264 H240 0.950 . S
C264 C263 1.524 . S
C264 C265 1.415 . S
C265 H241 0.950 . S
C265 C260 1.363 . S
C265 C264 1.415 . S
C266 H242 0.951 . S
C266 C267 1.366 . S
C266 C268 1.388 . S
C267 C266 1.366 . S
C267 C271 1.385 . S
C268 H243 0.951 . S
C268 C266 1.388 . S
C268 C269 1.366 . S
C269 C268 1.366 . S
C269 C270 1.414 . S
C269 C272 1.499 . S
C270 H244 0.950 . S
C270 C269 1.414 . S
C270 C271 1.374 . S
C271 H245 0.950 . S
C271 C267 1.385 . S
C271 C270 1.374 . S
C272 C269 1.499 . S
C272 C273 1.373 . S
C272 C274 1.389 . S
C273 H246 0.950 . S
C273 C259 1.377 . S
C273 C272 1.373 . S
C274 C258 1.377 . S
C274 C272 1.389 . S
C274 C275 1.524 . S
C275 C274 1.524 . S
C275 C276 1.397 . S
C275 C280 1.363 . S
C276 H247 0.950 . S
C276 C275 1.397 . S
C276 C277 1.334 . S
C277 H248 0.950 . S
C277 C276 1.334 . S
C277 C278 1.287 . S
C278 C277 1.287 . S
C278 C279 1.524 . S
C278 H281 0.999 . S
C279 H249 0.950 . S
C279 C278 1.524 . S
C279 C280 1.415 . S
C280 H250 0.950 . S
C280 C275 1.363 . S
C280 C279 1.415 . S
H281 C278 0.999 . S
H282 C263 0.913 . S
H283 C301 0.951 . S
H284 C303 0.951 . S
H285 C305 0.950 . S
H286 C306 0.950 . S
H287 C308 0.950 . S
H288 C311 0.950 . S
H289 C312 0.950 . S
H290 C314 0.950 . S
H291 C315 0.950 . S
H292 C316 0.951 . S
H293 C318 0.951 . S
H294 C320 0.950 . S
H295 C321 0.950 . S
H296 C323 0.950 . S
H297 C326 0.950 . S
H298 C327 0.950 . S
H299 C329 0.950 . S
H300 C330 0.950 . S
C301 H283 0.951 . S
C301 C302 1.366 . S
C301 C303 1.388 . S
C302 C301 1.366 . S
C302 C306 1.385 . S
C303 H284 0.951 . S
C303 C301 1.388 . S
C303 C304 1.366 . S
C304 C303 1.366 . S
C304 C305 1.414 . S
C304 C307 1.499 . S
C305 H285 0.950 . S
C305 C304 1.414 . S
C305 C306 1.374 . S
C306 H286 0.950 . S
C306 C302 1.385 . S
C306 C305 1.374 . S
C307 C304 1.499 . S
C307 C308 1.373 . S
C307 C309 1.389 . S
C308 H287 0.950 . S
C308 C307 1.373 . S
C308 C324 1.377 . S
C309 C307 1.389 . S
C309 C310 1.524 . S
C309 C323 1.377 . S
C310 C309 1.524 . S
C310 C311 1.397 . S
C310 C315 1.363 . S
C311 H288 0.950 . S
C311 C310 1.397 . S
C311 C312 1.334 . S
C312 H289 0.950 . S
C312 C311 1.334 . S
C312 C313 1.287 . S
C313 C312 1.287 . S
C313 C314 1.524 . S
C313 H332 0.913 . S
C314 H290 0.950 . S
C314 C313 1.524 . S
C314 C315 1.415 . S
C315 H291 0.950 . S
C315 C310 1.363 . S
C315 C314 1.415 . S
C316 H292 0.951 . S
C316 C317 1.366 . S
C316 C318 1.388 . S
C317 C316 1.366 . S
C317 C321 1.385 . S
C318 H293 0.951 . S
C318 C316 1.388 . S
C318 C319 1.366 . S
C319 C318 1.366 . S
C319 C320 1.414 . S
C319 C322 1.499 . S
C320 H294 0.950 . S
C320 C319 1.414 . S
C320 C321 1.374 . S
C321 H295 0.950 . S
C321 C317 1.385 . S
C321 C320 1.374 . S
C322 C319 1.499 . S
C322 C323 1.373 . S
C322 C324 1.389 . S
C323 H296 0.950 . S
C323 C309 1.377 . S
C323 C322 1.373 . S
C324 C308 1.377 . S
C324 C322 1.389 . S
C324 C325 1.524 . S
C325 C324 1.524 . S
C325 C326 1.397 . S
C325 C330 1.363 . S
C326 H297 0.950 . S
C326 C325 1.397 . S
C326 C327 1.334 . S
C327 H298 0.950 . S
C327 C326 1.334 . S
C327 C328 1.287 . S
C328 C327 1.287 . S
C328 C329 1.524 . S
C328 H331 0.999 . S
C329 H299 0.950 . S
C329 C328 1.524 . S
C329 C330 1.415 . S
C330 H300 0.950 . S
C330 C325 1.363 . S
C330 C329 1.415 . S
H331 C328 0.999 . S
H332 C313 0.913 . S
H333 C351 0.951 . S
H334 C353 0.951 . S
H335 C355 0.950 . S
H336 C356 0.950 . S
H337 C358 0.950 . S
H338 C361 0.950 . S
H339 C362 0.950 . S
H340 C364 0.950 . S
H341 C365 0.950 . S
H342 C366 0.951 . S
H343 C368 0.951 . S
H344 C370 0.950 . S
H345 C371 0.950 . S
H346 C373 0.950 . S
H347 C376 0.950 . S
H348 C377 0.950 . S
H349 C379 0.950 . S
H350 C380 0.950 . S
C351 H333 0.951 . S
C351 C352 1.366 . S
C351 C353 1.388 . S
C352 C351 1.366 . S
C352 C356 1.385 . S
C353 H334 0.951 . S
C353 C351 1.388 . S
C353 C354 1.366 . S
C354 C353 1.366 . S
C354 C355 1.414 . S
C354 C357 1.499 . S
C355 H335 0.950 . S
C355 C354 1.414 . S
C355 C356 1.374 . S
C356 H336 0.950 . S
C356 C352 1.385 . S
C356 C355 1.374 . S
C357 C354 1.499 . S
C357 C358 1.373 . S
C357 C359 1.389 . S
C358 H337 0.950 . S
C358 C357 1.373 . S
C358 C374 1.377 . S
C359 C357 1.389 . S
C359 C360 1.524 . S
C359 C373 1.377 . S
C360 C359 1.524 . S
C360 C361 1.397 . S
C360 C365 1.363 . S
C361 H338 0.950 . S
C361 C360 1.397 . S
C361 C362 1.334 . S
C362 H339 0.950 . S
C362 C361 1.334 . S
C362 C363 1.287 . S
C363 C362 1.287 . S
C363 C364 1.524 . S
C363 H382 0.913 . S
C364 H340 0.950 . S
C364 C363 1.524 . S
C364 C365 1.415 . S
C365 H341 0.950 . S
C365 C360 1.363 . S
C365 C364 1.415 . S
C366 H342 0.951 . S
C366 C367 1.366 . S
C366 C368 1.388 . S
C367 C366 1.366 . S
C367 C371 1.385 . S
C368 H343 0.951 . S
C368 C366 1.388 . S
C368 C369 1.366 . S
C369 C368 1.366 . S
C369 C370 1.414 . S
C369 C372 1.499 . S
C370 H344 0.950 . S
C370 C369 1.414 . S
C370 C371 1.374 . S
C371 H345 0.950 . S
C371 C367 1.385 . S
C371 C370 1.374 . S
C372 C369 1.499 . S
C372 C373 1.373 . S
C372 C374 1.389 . S
C373 H346 0.950 . S
C373 C359 1.377 . S
C373 C372 1.373 . S
C374 C358 1.377 . S
C374 C372 1.389 . S
C374 C375 1.524 . S
C375 C374 1.524 . S
C375 C376 1.397 . S
C375 C380 1.363 . S
C376 H347 0.950 . S
C376 C375 1.397 . S
C376 C377 1.334 . S
C377 H348 0.950 . S
C377 C376 1.334 . S
C377 C378 1.287 . S
C378 C377 1.287 . S
C378 C379 1.524 . S
C378 H381 0.999 . S
C379 H349 0.950 . S
C379 C378 1.524 . S
C379 C380 1.415 . S
C380 H350 0.950 . S
C380 C375 1.363 . S
C380 C379 1.415 . S
H381 C378 0.999 . S
H382 C363 0.913 . S
H383 C401 0.951 . S
H384 C403 0.951 . S
H385 C405 0.950 . S
H386 C406 0.950 . S
H387 C408 0.950 . S
H388 C411 0.950 . S
H389 C412 0.950 . S
H390 C414 0.950 . S
H391 C415 0.950 . S
H392 C416 0.951 . S
H393 C418 0.951 . S
H394 C420 0.950 . S
H395 C421 0.950 . S
H396 C423 0.950 . S
H397 C426 0.950 . S
H398 C427 0.950 . S
H399 C429 0.950 . S
H400 C430 0.950 . S
C401 H383 0.951 . S
C401 C402 1.366 . S
C401 C403 1.388 . S
C402 C401 1.366 . S
C402 C406 1.385 . S
C403 H384 0.951 . S
C403 C401 1.388 . S
C403 C404 1.366 . S
C404 C403 1.366 . S
C404 C405 1.414 . S
C404 C407 1.499 . S
C405 H385 0.950 . S
C405 C404 1.414 . S
C405 C406 1.374 . S
C406 H386 0.950 . S
C406 C402 1.385 . S
C406 C405 1.374 . S
C407 C404 1.499 . S
C407 C408 1.373 . S
C407 C409 1.389 . S
C408 H387 0.950 . S
C408 C407 1.373 . S
C408 C424 1.377 . S
C409 C407 1.389 . S
C409 C410 1.524 . S
C409 C423 1.377 . S
C410 C409 1.524 . S
C410 C411 1.397 . S
C410 C415 1.363 . S
C411 H388 0.950 . S
C411 C410 1.397 . S
C411 C412 1.334 . S
C412 H389 0.950 . S
C412 C411 1.334 . S
C412 C413 1.287 . S
C413 C412 1.287 . S
C413 C414 1.524 . S
C413 H432 0.913 . S
C414 H390 0.950 . S
C414 C413 1.524 . S
C414 C415 1.415 . S
C415 H391 0.950 . S
C415 C410 1.363 . S
C415 C414 1.415 . S
C416 H392 0.951 . S
C416 C417 1.366 . S
C416 C418 1.388 . S
C417 C416 1.366 . S
C417 C421 1.385 . S
C418 H393 0.951 . S
C418 C416 1.388 . S
C418 C419 1.366 . S
C419 C418 1.366 . S
C419 C420 1.414 . S
C419 C422 1.499 . S
C420 H394 0.950 . S
C420 C419 1.414 . S
C420 C421 1.374 . S
C421 H395 0.950 . S
C421 C417 1.385 . S
C421 C420 1.374 . S
C422 C419 1.499 . S
C422 C423 1.373 . S
C422 C424 1.389 . S
C423 H396 0.950 . S
C423 C409 1.377 . S
C423 C422 1.373 . S
C424 C408 1.377 . S
C424 C422 1.389 . S
C424 C425 1.524 . S
C425 C424 1.524 . S
C425 C426 1.397 . S
C425 C430 1.363 . S
C426 H397 0.950 . S
C426 C425 1.397 . S
C426 C427 1.334 . S
C427 H398 0.950 . S
C427 C426 1.334 . S
C427 C428 1.287 . S
C428 C427 1.287 . S
C428 C429 1.524 . S
C428 H431 0.999 . S
C429 H399 0.950 . S
C429 C428 1.524 . S
C429 C430 1.415 . S
C430 H400 0.950 . S
C430 C425 1.363 . S
C430 C429 1.415 . S
H431 C428 0.999 . S
H432 C413 0.913 . S
H433 C451 0.951 . S
H434 C453 0.951 . S
H435 C455 0.950 . S
H436 C456 0.950 . S
H437 C458 0.950 . S
H438 C461 0.950 . S
H439 C462 0.950 . S
H440 C464 0.950 . S
H441 C465 0.950 . S
H442 C466 0.951 . S
H443 C468 0.951 . S
H444 C470 0.950 . S
H445 C471 0.950 . S
H446 C473 0.950 . S
H447 C476 0.950 . S
H448 C477 0.950 . S
H449 C479 0.950 . S
H450 C480 0.950 . S
C451 H433 0.951 . S
C451 C452 1.366 . S
C451 C453 1.388 . S
C452 C451 1.366 . S
C452 C456 1.385 . S
C453 H434 0.951 . S
C453 C451 1.388 . S
C453 C454 1.366 . S
C454 C453 1.366 . S
C454 C455 1.414 . S
C454 C457 1.499 . S
C455 H435 0.950 . S
C455 C454 1.414 . S
C455 C456 1.374 . S
C456 H436 0.950 . S
C456 C452 1.385 . S
C456 C455 1.374 . S
C457 C454 1.499 . S
C457 C458 1.373 . S
C457 C459 1.389 . S
C458 H437 0.950 . S
C458 C457 1.373 . S
C458 C474 1.377 . S
C459 C457 1.389 . S
C459 C460 1.524 . S
C459 C473 1.377 . S
C460 C459 1.524 . S
C460 C461 1.397 . S
C460 C465 1.363 . S
C461 H438 0.950 . S
C461 C460 1.397 . S
C461 C462 1.334 . S
C462 H439 0.950 . S
C462 C461 1.334 . S
C462 C463 1.287 . S
C463 C462 1.287 . S
C463 C464 1.524 . S
C463 H482 0.913 . S
C464 H440 0.950 . S
C464 C463 1.524 . S
C464 C465 1.415 . S
C465 H441 0.950 . S
C465 C460 1.363 . S
C465 C464 1.415 . S
C466 H442 0.951 . S
C466 C467 1.366 . S
C466 C468 1.388 . S
C467 C466 1.366 . S
C467 C471 1.385 . S
C468 H443 0.951 . S
C468 C466 1.388 . S
C468 C469 1.366 . S
C469 C468 1.366 . S
C469 C470 1.414 . S
C469 C472 1.499 . S
C470 H444 0.950 . S
C470 C469 1.414 . S
C470 C471 1.374 . S
C471 H445 0.950 . S
C471 C467 1.385 . S
C471 C470 1.374 . S
C472 C469 1.499 . S
C472 C473 1.373 . S
C472 C474 1.389 . S
C473 H446 0.950 . S
C473 C459 1.377 . S
C473 C472 1.373 . S
C474 C458 1.377 . S
C474 C472 1.389 . S
C474 C475 1.524 . S
C475 C474 1.524 . S
C475 C476 1.397 . S
C475 C480 1.363 . S
C476 H447 0.950 . S
C476 C475 1.397 . S
C476 C477 1.334 . S
C477 H448 0.950 . S
C477 C476 1.334 . S
C477 C478 1.287 . S
C478 C477 1.287 . S
C478 C479 1.524 . S
C478 H481 0.999 . S
C479 H449 0.950 . S
C479 C478 1.524 . S
C479 C480 1.415 . S
C480 H450 0.950 . S
C480 C475 1.363 . S
C480 C479 1.415 . S
H481 C478 0.999 . S
H482 C463 0.913 . S
H483 C501 0.951 . S
H484 C503 0.951 . S
H485 C505 0.950 . S
H486 C506 0.950 . S
H487 C508 0.950 . S
H488 C511 0.950 . S
H489 C512 0.950 . S
H490 C514 0.950 . S
H491 C515 0.950 . S
H492 C516 0.951 . S
H493 C518 0.951 . S
H494 C520 0.950 . S
H495 C521 0.950 . S
H496 C523 0.950 . S
H497 C526 0.950 . S
H498 C527 0.950 . S
H499 C529 0.950 . S
H500 C530 0.950 . S
C501 H483 0.951 . S
C501 C502 1.366 . S
C501 C503 1.388 . S
C502 C501 1.366 . S
C502 C506 1.385 . S
C503 H484 0.951 . S
C503 C501 1.388 . S
C503 C504 1.366 . S
C504 C503 1.366 . S
C504 C505 1.414 . S
C504 C507 1.499 . S
C505 H485 0.950 . S
C505 C504 1.414 . S
C505 C506 1.374 . S
C506 H486 0.950 . S
C506 C502 1.385 . S
C506 C505 1.374 . S
C507 C504 1.499 . S
C507 C508 1.373 . S
C507 C509 1.389 . S
C508 H487 0.950 . S
C508 C507 1.373 . S
C508 C524 1.377 . S
C509 C507 1.389 . S
C509 C510 1.524 . S
C509 C523 1.377 . S
C510 C509 1.524 . S
C510 C511 1.397 . S
C510 C515 1.363 . S
C511 H488 0.950 . S
C511 C510 1.397 . S
C511 C512 1.334 . S
C512 H489 0.950 . S
C512 C511 1.334 . S
C512 C513 1.287 . S
C513 C512 1.287 . S
C513 C514 1.524 . S
C513 H532 0.913 . S
C514 H490 0.950 . S
C514 C513 1.524 . S
C514 C515 1.415 . S
C515 H491 0.950 . S
C515 C510 1.363 . S
C515 C514 1.415 . S
C516 H492 0.951 . S
C516 C517 1.366 . S
C516 C518 1.388 . S
C517 C516 1.366 . S
C517 C521 1.385 . S
C518 H493 0.951 . S
C518 C516 1.388 . S
C518 C519 1.366 . S
C519 C518 1.366 . S
C519 C520 1.414 . S
C519 C522 1.499 . S
C520 H494 0.950 . S
C520 C519 1.414 . S
C520 C521 1.374 . S
C521 H495 0.950 . S
C521 C517 1.385 . S
C521 C520 1.374 . S
C522 C519 1.499 . S
C522 C523 1.373 . S
C522 C524 1.389 . S
C523 H496 0.950 . S
C523 C509 1.377 . S
C523 C522 1.373 . S
C524 C508 1.377 . S
C524 C522 1.389 . S
C524 C525 1.524 . S
C525 C524 1.524 . S
C525 C526 1.397 . S
C525 C530 1.363 . S
C526 H497 0.950 . S
C526 C525 1.397 . S
C526 C527 1.334 . S
C527 H498 0.950 . S
C527 C526 1.334 . S
C527 C528 1.287 . S
C528 C527 1.287 . S
C528 C529 1.524 . S
C528 H531 0.999 . S
C529 H499 0.950 . S
C529 C528 1.524 . S
C529 C530 1.415 . S
C530 H500 0.950 . S
C530 C525 1.363 . S
C530 C529 1.415 . S
H531 C528 0.999 . S
H532 C513 0.913 . S
H533 C551 0.951 . S
H534 C553 0.951 . S
H535 C555 0.950 . S
H536 C556 0.950 . S
H537 C558 0.950 . S
H538 C561 0.950 . S
H539 C562 0.950 . S
H540 C564 0.950 . S
H541 C565 0.950 . S
H542 C566 0.951 . S
H543 C568 0.951 . S
H544 C570 0.950 . S
H545 C571 0.950 1_455 S
H546 C573 0.950 . S
H547 C576 0.950 . S
H548 C577 0.950 . S
H549 C579 0.950 . S
H550 C580 0.950 . S
C551 H533 0.951 . S
C551 C552 1.366 . S
C551 C553 1.388 . S
C552 C551 1.366 . S
C552 C556 1.385 . S
C553 H534 0.951 . S
C553 C551 1.388 . S
C553 C554 1.366 . S
C554 C553 1.366 . S
C554 C555 1.414 . S
C554 C557 1.499 . S
C555 H535 0.950 . S
C555 C554 1.414 . S
C555 C556 1.374 . S
C556 H536 0.950 . S
C556 C552 1.385 . S
C556 C555 1.374 . S
C557 C554 1.499 . S
C557 C558 1.373 . S
C557 C559 1.389 . S
C558 H537 0.950 . S
C558 C557 1.373 . S
C558 C574 1.377 . S
C559 C557 1.389 . S
C559 C560 1.524 . S
C559 C573 1.377 . S
C560 C559 1.524 . S
C560 C561 1.397 . S
C560 C565 1.363 . S
C561 H538 0.950 . S
C561 C560 1.397 . S
C561 C562 1.334 . S
C562 H539 0.950 . S
C562 C561 1.334 . S
C562 C563 1.287 . S
C563 C562 1.287 . S
C563 C564 1.524 . S
C563 H582 0.913 . S
C564 H540 0.950 . S
C564 C563 1.524 . S
C564 C565 1.415 . S
C565 H541 0.950 . S
C565 C560 1.363 . S
C565 C564 1.415 . S
C566 H542 0.951 . S
C566 C567 1.366 . S
C566 C568 1.388 . S
C567 C566 1.366 . S
C567 C571 1.385 . S
C568 H543 0.951 . S
C568 C566 1.388 . S
C568 C569 1.366 . S
C569 C568 1.366 . S
C569 C570 1.414 . S
C569 C572 1.499 . S
C570 H544 0.950 . S
C570 C569 1.414 . S
C570 C571 1.374 . S
C571 H545 0.950 1_655 S
C571 C567 1.385 . S
C571 C570 1.374 . S
C572 C569 1.499 . S
C572 C573 1.373 . S
C572 C574 1.389 . S
C573 H546 0.950 . S
C573 C559 1.377 . S
C573 C572 1.373 . S
C574 C558 1.377 . S
C574 C572 1.389 . S
C574 C575 1.524 . S
C575 C574 1.524 . S
C575 C576 1.397 . S
C575 C580 1.363 . S
C576 H547 0.950 . S
C576 C575 1.397 . S
C576 C577 1.334 . S
C577 H548 0.950 . S
C577 C576 1.334 . S
C577 C578 1.287 . S
C578 C577 1.287 . S
C578 C579 1.524 . S
C578 H581 0.999 . S
C579 H549 0.950 . S
C579 C578 1.524 . S
C579 C580 1.415 . S
C580 H550 0.950 . S
C580 C575 1.363 . S
C580 C579 1.415 . S
H581 C578 0.999 . S
H582 C563 0.913 . S
H583 C601 0.951 . S
H584 C603 0.951 . S
H585 C605 0.950 . S
H586 C606 0.950 . S
H587 C608 0.950 . S
H588 C611 0.950 . S
H589 C612 0.950 . S
H590 C614 0.950 . S
H591 C615 0.950 . S
H592 C616 0.971 . S
H593 C618 0.951 . S
H594 C620 0.950 . S
H595 C621 0.950 . S
H596 C623 0.950 . S
H597 C626 0.950 . S
H598 C627 0.950 . S
H599 C629 0.938 1_545 S
H600 C630 0.950 . S
C601 H583 0.951 . S
C601 C602 1.366 . S
C601 C603 1.388 . S
C602 C601 1.366 . S
C602 C606 1.385 . S
C603 H584 0.951 . S
C603 C601 1.388 . S
C603 C604 1.366 . S
C604 C603 1.366 . S
C604 C605 1.414 . S
C604 C607 1.499 . S
C605 H585 0.950 . S
C605 C604 1.414 . S
C605 C606 1.374 . S
C606 H586 0.950 . S
C606 C602 1.385 . S
C606 C605 1.374 . S
C607 C604 1.499 . S
C607 C608 1.373 . S
C607 C609 1.389 . S
C608 H587 0.950 . S
C608 C607 1.373 . S
C608 C624 1.377 . S
C609 C607 1.389 . S
C609 C610 1.524 . S
C609 C623 1.377 . S
C610 C609 1.524 . S
C610 C611 1.397 . S
C610 C615 1.363 . S
C611 H588 0.950 . S
C611 C610 1.397 . S
C611 C612 1.334 . S
C612 H589 0.950 . S
C612 C611 1.334 . S
C612 C613 1.287 . S
C613 C612 1.287 . S
C613 C614 1.524 . S
C613 H632 0.913 . S
C614 H590 0.950 . S
C614 C613 1.524 . S
C614 C615 1.415 . S
C615 H591 0.950 . S
C615 C610 1.363 . S
C615 C614 1.415 . S
C616 H592 0.971 . S
C616 C617 1.356 . S
C616 C618 1.379 1_545 S
C617 C616 1.356 . S
C617 C621 1.385 1_545 S
C618 H593 0.951 . S
C618 C616 1.379 1_565 S
C618 C619 1.366 . S
C619 C618 1.366 . S
C619 C620 1.414 . S
C619 C622 1.499 . S
C620 H594 0.950 . S
C620 C619 1.414 . S
C620 C621 1.374 . S
C621 H595 0.950 . S
C621 C617 1.385 1_565 S
C621 C620 1.374 . S
C622 C619 1.499 . S
C622 C623 1.373 . S
C622 C624 1.389 . S
C623 H596 0.950 . S
C623 C609 1.377 . S
C623 C622 1.373 . S
C624 C608 1.377 . S
C624 C622 1.389 . S
C624 C625 1.524 . S
C625 C624 1.524 . S
C625 C626 1.397 . S
C625 C630 1.363 . S
C626 H597 0.950 . S
C626 C625 1.397 . S
C626 C627 1.334 1_565 S
C627 H598 0.950 . S
C627 C626 1.334 1_545 S
C627 C628 1.287 . S
C628 C627 1.287 . S
C628 C629 1.520 1_545 S
C628 H631 0.999 . S
C629 H599 0.938 1_565 S
C629 C628 1.520 1_565 S
C629 C630 1.432 . S
C630 H600 0.950 . S
C630 C625 1.363 . S
C630 C629 1.432 . S
H631 C628 0.999 . S
H632 C613 0.913 . S
H633 C651 0.951 . S
H634 C653 0.951 . S
H635 C655 0.950 . S
H636 C656 0.950 . S
H637 C658 0.950 . S
H638 C661 0.950 . S
H639 C662 0.950 . S
H640 C664 0.950 . S
H641 C665 0.950 . S
H642 C666 0.951 . S
H643 C668 0.951 . S
H644 C670 0.950 . S
H645 C671 0.950 . S
H646 C673 0.950 . S
H647 C676 0.950 . S
H648 C677 0.950 . S
H649 C679 0.950 . S
H650 C680 0.950 . S
C651 H633 0.951 . S
C651 C652 1.366 . S
C651 C653 1.388 . S
C652 C651 1.366 . S
C652 C656 1.385 . S
C653 H634 0.951 . S
C653 C651 1.388 . S
C653 C654 1.366 . S
C654 C653 1.366 . S
C654 C655 1.414 . S
C654 C657 1.499 . S
C655 H635 0.950 . S
C655 C654 1.414 . S
C655 C656 1.374 . S
C656 H636 0.950 . S
C656 C652 1.385 . S
C656 C655 1.374 . S
C657 C654 1.499 . S
C657 C658 1.373 . S
C657 C659 1.389 . S
C658 H637 0.950 . S
C658 C657 1.373 . S
C658 C674 1.377 . S
C659 C657 1.389 . S
C659 C660 1.524 . S
C659 C673 1.377 . S
C660 C659 1.524 . S
C660 C661 1.397 . S
C660 C665 1.363 . S
C661 H638 0.950 . S
C661 C660 1.397 . S
C661 C662 1.334 . S
C662 H639 0.950 . S
C662 C661 1.334 . S
C662 C663 1.287 . S
C663 C662 1.287 . S
C663 C664 1.524 . S
C663 H682 0.913 . S
C664 H640 0.950 . S
C664 C663 1.524 . S
C664 C665 1.415 . S
C665 H641 0.950 . S
C665 C660 1.363 . S
C665 C664 1.415 . S
C666 H642 0.951 . S
C666 C667 1.366 . S
C666 C668 1.388 . S
C667 C666 1.366 . S
C667 C671 1.385 . S
C668 H643 0.951 . S
C668 C666 1.388 . S
C668 C669 1.366 . S
C669 C668 1.366 . S
C669 C670 1.414 . S
C669 C672 1.499 . S
C670 H644 0.950 . S
C670 C669 1.414 . S
C670 C671 1.374 . S
C671 H645 0.950 . S
C671 C667 1.385 . S
C671 C670 1.374 . S
C672 C669 1.499 . S
C672 C673 1.373 . S
C672 C674 1.389 . S
C673 H646 0.950 . S
C673 C659 1.377 . S
C673 C672 1.373 . S
C674 C658 1.377 . S
C674 C672 1.389 . S
C674 C675 1.524 . S
C675 C674 1.524 . S
C675 C676 1.397 . S
C675 C680 1.363 . S
C676 H647 0.950 . S
C676 C675 1.397 . S
C676 C677 1.334 . S
C677 H648 0.950 . S
C677 C676 1.334 . S
C677 C678 1.287 . S
C678 C677 1.287 . S
C678 C679 1.524 . S
C678 H681 0.999 . S
C679 H649 0.950 . S
C679 C678 1.524 . S
C679 C680 1.415 . S
C680 H650 0.950 . S
C680 C675 1.363 . S
C680 C679 1.415 . S
H681 C678 0.999 . S
H682 C663 0.913 . S
H683 C701 0.951 . S
H684 C703 0.951 . S
H685 C705 0.950 . S
H686 C706 0.950 . S
H687 C708 0.950 . S
H688 C711 0.950 . S
H689 C712 0.950 . S
H690 C714 0.950 . S
H691 C715 0.950 . S
H692 C716 0.951 . S
H693 C718 0.951 . S
H694 C720 0.950 . S
H695 C721 0.950 . S
H696 C723 0.950 . S
H697 C726 0.950 . S
H698 C727 0.950 . S
H699 C729 0.950 . S
H700 C730 0.950 . S
C701 H683 0.951 . S
C701 C702 1.366 . S
C701 C703 1.388 . S
C702 C701 1.366 . S
C702 C706 1.385 . S
C703 H684 0.951 . S
C703 C701 1.388 . S
C703 C704 1.366 . S
C704 C703 1.366 . S
C704 C705 1.414 . S
C704 C707 1.499 . S
C705 H685 0.950 . S
C705 C704 1.414 . S
C705 C706 1.374 . S
C706 H686 0.950 . S
C706 C702 1.385 . S
C706 C705 1.374 . S
C707 C704 1.499 . S
C707 C708 1.373 . S
C707 C709 1.389 . S
C708 H687 0.950 . S
C708 C707 1.373 . S
C708 C724 1.377 . S
C709 C707 1.389 . S
C709 C710 1.524 . S
C709 C723 1.377 . S
C710 C709 1.524 . S
C710 C711 1.397 . S
C710 C715 1.363 . S
C711 H688 0.950 . S
C711 C710 1.397 . S
C711 C712 1.334 . S
C712 H689 0.950 . S
C712 C711 1.334 . S
C712 C713 1.287 . S
C713 C712 1.287 . S
C713 C714 1.524 . S
C713 H732 0.913 . S
C714 H690 0.950 . S
C714 C713 1.524 . S
C714 C715 1.415 . S
C715 H691 0.950 . S
C715 C710 1.363 . S
C715 C714 1.415 . S
C716 H692 0.951 . S
C716 C717 1.366 . S
C716 C718 1.388 . S
C717 C716 1.366 . S
C717 C721 1.385 . S
C718 H693 0.951 . S
C718 C716 1.388 . S
C718 C719 1.366 . S
C719 C718 1.366 . S
C719 C720 1.414 . S
C719 C722 1.499 . S
C720 H694 0.950 . S
C720 C719 1.414 . S
C720 C721 1.374 . S
C721 H695 0.950 . S
C721 C717 1.385 . S
C721 C720 1.374 . S
C722 C719 1.499 . S
C722 C723 1.373 . S
C722 C724 1.389 . S
C723 H696 0.950 . S
C723 C709 1.377 . S
C723 C722 1.373 . S
C724 C708 1.377 . S
C724 C722 1.389 . S
C724 C725 1.524 . S
C725 C724 1.524 . S
C725 C726 1.397 . S
C725 C730 1.363 . S
C726 H697 0.950 . S
C726 C725 1.397 . S
C726 C727 1.334 . S
C727 H698 0.950 . S
C727 C726 1.334 . S
C727 C728 1.287 . S
C728 C727 1.287 . S
C728 C729 1.524 . S
C728 H731 0.999 . S
C729 H699 0.950 . S
C729 C728 1.524 . S
C729 C730 1.415 . S
C730 H700 0.950 . S
C730 C725 1.363 . S
C730 C729 1.415 . S
H731 C728 0.999 . S
H732 C713 0.913 . S
H733 C751 0.951 . S
H734 C753 0.951 . S
H735 C755 0.950 . S
H736 C756 0.950 . S
H737 C758 0.950 . S
H738 C761 0.950 . S
H739 C762 0.950 . S
H740 C764 0.950 . S
H741 C765 0.950 . S
H742 C766 0.951 . S
H743 C768 0.951 . S
H744 C770 0.950 . S
H745 C771 0.950 . S
H746 C773 0.950 . S
H747 C776 0.950 . S
H748 C777 0.950 . S
H749 C779 0.950 . S
H750 C780 0.950 . S
C751 H733 0.951 . S
C751 C752 1.366 . S
C751 C753 1.388 . S
C752 C751 1.366 . S
C752 C756 1.385 . S
C753 H734 0.951 . S
C753 C751 1.388 . S
C753 C754 1.366 . S
C754 C753 1.366 . S
C754 C755 1.414 . S
C754 C757 1.499 . S
C755 H735 0.950 . S
C755 C754 1.414 . S
C755 C756 1.374 . S
C756 H736 0.950 . S
C756 C752 1.385 . S
C756 C755 1.374 . S
C757 C754 1.499 . S
C757 C758 1.373 . S
C757 C759 1.389 . S
C758 H737 0.950 . S
C758 C757 1.373 . S
C758 C774 1.377 . S
C759 C757 1.389 . S
C759 C760 1.524 . S
C759 C773 1.377 . S
C760 C759 1.524 . S
C760 C761 1.397 . S
C760 C765 1.363 . S
C761 H738 0.950 . S
C761 C760 1.397 . S
C761 C762 1.334 . S
C762 H739 0.950 . S
C762 C761 1.334 . S
C762 C763 1.287 . S
C763 C762 1.287 . S
C763 C764 1.524 . S
C763 H782 0.913 . S
C764 H740 0.950 . S
C764 C763 1.524 . S
C764 C765 1.415 . S
C765 H741 0.950 . S
C765 C760 1.363 . S
C765 C764 1.415 . S
C766 H742 0.951 . S
C766 C767 1.366 . S
C766 C768 1.388 . S
C767 C766 1.366 . S
C767 C771 1.385 . S
C768 H743 0.951 . S
C768 C766 1.388 . S
C768 C769 1.366 . S
C769 C768 1.366 . S
C769 C770 1.414 . S
C769 C772 1.499 . S
C770 H744 0.950 . S
C770 C769 1.414 . S
C770 C771 1.374 . S
C771 H745 0.950 . S
C771 C767 1.385 . S
C771 C770 1.374 . S
C772 C769 1.499 . S
C772 C773 1.373 . S
C772 C774 1.389 . S
C773 H746 0.950 . S
C773 C759 1.377 . S
C773 C772 1.373 . S
C774 C758 1.377 . S
C774 C772 1.389 . S
C774 C775 1.524 . S
C775 C774 1.524 . S
C775 C776 1.397 . S
C775 C780 1.363 . S
C776 H747 0.950 . S
C776 C775 1.397 . S
C776 C777 1.334 . S
C777 H748 0.950 . S
C777 C776 1.334 . S
C777 C778 1.287 . S
C778 C777 1.287 . S
C778 C779 1.524 . S
C778 H781 0.999 . S
C779 H749 0.950 . S
C779 C778 1.524 . S
C779 C780 1.415 . S
C780 H750 0.950 . S
C780 C775 1.363 . S
C780 C779 1.415 . S
H781 C778 0.999 . S
H782 C763 0.913 . S
H783 C801 0.951 1_655 S
H784 C803 0.951 1_655 S
H785 C805 0.950 . S
H786 C806 0.950 . S
H787 C808 0.950 . S
H788 C811 0.950 1_455 S
H789 C812 0.950 . S
H790 C814 0.950 . S
H791 C815 0.950 . S
H792 C816 0.951 . S
H793 C818 0.951 . S
H794 C820 0.950 . S
H795 C821 0.950 . S
H796 C823 0.950 1_556 S
H797 C826 0.950 . S
H798 C827 0.950 . S
H799 C829 0.950 . S
H800 C830 0.950 . S
C801 H783 0.951 1_455 S
C801 C802 1.366 . S
C801 C803 1.388 . S
C802 C801 1.366 . S
C802 C806 1.385 . S
C803 H784 0.951 1_455 S
C803 C801 1.388 . S
C803 C804 1.366 . S
C804 C803 1.366 . S
C804 C805 1.414 . S
C804 C807 1.499 . S
C805 H785 0.950 . S
C805 C804 1.414 . S
C805 C806 1.374 . S
C806 H786 0.950 . S
C806 C802 1.385 . S
C806 C805 1.374 . S
C807 C804 1.499 . S
C807 C808 1.373 . S
C807 C809 1.389 . S
C808 H787 0.950 . S
C808 C807 1.373 . S
C808 C824 1.377 . S
C809 C807 1.389 . S
C809 C810 1.524 1_455 S
C809 C823 1.377 . S
C810 C809 1.524 1_655 S
C810 C811 1.397 . S
C810 C815 1.363 . S
C811 H788 0.950 1_655 S
C811 C810 1.397 . S
C811 C812 1.334 . S
C812 H789 0.950 . S
C812 C811 1.334 . S
C812 C813 1.287 . S
C813 C812 1.287 . S
C813 C814 1.524 . S
C813 H832 0.913 . S
C814 H790 0.950 . S
C814 C813 1.524 . S
C814 C815 1.415 . S
C815 H791 0.950 . S
C815 C810 1.363 . S
C815 C814 1.415 . S
C816 H792 0.951 . S
C816 C817 1.366 . S
C816 C818 1.388 . S
C817 C816 1.366 . S
C817 C821 1.385 . S
C818 H793 0.951 . S
C818 C816 1.388 . S
C818 C819 1.366 . S
C819 C818 1.366 . S
C819 C820 1.414 . S
C819 C822 1.499 . S
C820 H794 0.950 . S
C820 C819 1.414 . S
C820 C821 1.374 . S
C821 H795 0.950 . S
C821 C817 1.385 . S
C821 C820 1.374 . S
C822 C819 1.499 . S
C822 C823 1.373 1_556 S
C822 C824 1.389 1_556 S
C823 H796 0.950 1_554 S
C823 C809 1.377 . S
C823 C822 1.373 1_554 S
C824 C808 1.377 . S
C824 C822 1.389 1_554 S
C824 C825 1.524 . S
C825 C824 1.524 . S
C825 C826 1.397 1_554 S
C825 C830 1.363 . S
C826 H797 0.950 . S
C826 C825 1.397 1_556 S
C826 C827 1.334 . S
C827 H798 0.950 . S
C827 C826 1.334 . S
C827 C828 1.287 . S
C828 C827 1.287 . S
C828 C829 1.524 1_556 S
C828 H831 0.999 . S
C829 H799 0.950 . S
C829 C828 1.524 1_554 S
C829 C830 1.415 . S
C830 H800 0.950 . S
C830 C825 1.363 . S
C830 C829 1.415 . S
H831 C828 0.999 . S
H832 C813 0.913 . S
H833 C851 0.951 . S
H834 C853 0.951 . S
H835 C855 0.950 . S
H836 C856 0.950 . S
H837 C858 0.950 . S
H838 C861 0.950 . S
H839 C862 0.950 . S
H840 C864 0.950 . S
H841 C865 0.950 . S
H842 C866 0.951 . S
H843 C868 0.951 . S
H844 C870 0.950 . S
H845 C871 0.950 . S
H846 C873 0.950 . S
H847 C876 0.950 . S
H848 C877 0.950 . S
H849 C879 0.950 . S
H850 C880 0.950 . S
C851 H833 0.951 . S
C851 C852 1.366 . S
C851 C853 1.388 . S
C852 C851 1.366 . S
C852 C856 1.385 . S
C853 H834 0.951 . S
C853 C851 1.388 . S
C853 C854 1.366 . S
C854 C853 1.366 . S
C854 C855 1.414 . S
C854 C857 1.499 . S
C855 H835 0.950 . S
C855 C854 1.414 . S
C855 C856 1.374 . S
C856 H836 0.950 . S
C856 C852 1.385 . S
C856 C855 1.374 . S
C857 C854 1.499 . S
C857 C858 1.373 . S
C857 C859 1.389 . S
C858 H837 0.950 . S
C858 C857 1.373 . S
C858 C874 1.377 . S
C859 C857 1.389 . S
C859 C860 1.535 . S
C859 C873 1.377 . S
C860 C859 1.535 . S
C860 C861 1.394 . S
C860 C865 1.355 1_545 S
C861 H838 0.950 . S
C861 C860 1.394 . S
C861 C862 1.334 1_545 S
C862 H839 0.950 . S
C862 C861 1.334 1_565 S
C862 C863 1.287 . S
C863 C862 1.287 . S
C863 C864 1.524 . S
C863 H882 0.913 . S
C864 H840 0.950 . S
C864 C863 1.524 . S
C864 C865 1.415 . S
C865 H841 0.950 . S
C865 C860 1.355 1_565 S
C865 C864 1.415 . S
C866 H842 0.951 . S
C866 C867 1.366 . S
C866 C868 1.388 . S
C867 C866 1.366 . S
C867 C871 1.385 . S
C868 H843 0.951 . S
C868 C866 1.388 . S
C868 C869 1.366 . S
C869 C868 1.366 . S
C869 C870 1.414 . S
C869 C872 1.499 . S
C870 H844 0.950 . S
C870 C869 1.414 . S
C870 C871 1.374 . S
C871 H845 0.950 . S
C871 C867 1.385 . S
C871 C870 1.374 . S
C872 C869 1.499 . S
C872 C873 1.373 . S
C872 C874 1.389 . S
C873 H846 0.950 . S
C873 C859 1.377 . S
C873 C872 1.373 . S
C874 C858 1.377 . S
C874 C872 1.389 . S
C874 C875 1.524 . S
C875 C874 1.524 . S
C875 C876 1.397 . S
C875 C880 1.363 . S
C876 H847 0.950 . S
C876 C875 1.397 . S
C876 C877 1.334 . S
C877 H848 0.950 . S
C877 C876 1.334 . S
C877 C878 1.287 . S
C878 C877 1.287 . S
C878 C879 1.524 . S
C878 H881 0.999 . S
C879 H849 0.950 . S
C879 C878 1.524 . S
C879 C880 1.415 . S
C880 H850 0.950 . S
C880 C875 1.363 . S
C880 C879 1.415 . S
H881 C878 0.999 . S
H882 C863 0.913 . S
H883 C901 0.951 . S
H884 C903 0.951 . S
H885 C905 0.950 . S
H886 C906 0.950 . S
H887 C908 0.950 . S
H888 C911 0.950 . S
H889 C912 0.950 . S
H890 C914 0.950 . S
H891 C915 0.950 . S
H892 C916 0.951 . S
H893 C918 0.951 . S
H894 C920 0.950 . S
H895 C921 0.950 . S
H896 C923 0.950 . S
H897 C926 0.950 . S
H898 C927 0.950 . S
H899 C929 0.950 . S
H900 C930 0.950 . S
C901 H883 0.951 . S
C901 C902 1.366 . S
C901 C903 1.388 . S
C902 C901 1.366 . S
C902 C906 1.385 . S
C903 H884 0.951 . S
C903 C901 1.388 . S
C903 C904 1.366 . S
C904 C903 1.366 . S
C904 C905 1.414 . S
C904 C907 1.499 . S
C905 H885 0.950 . S
C905 C904 1.414 . S
C905 C906 1.374 . S
C906 H886 0.950 . S
C906 C902 1.385 . S
C906 C905 1.374 . S
C907 C904 1.499 . S
C907 C908 1.373 . S
C907 C909 1.389 . S
C908 H887 0.950 . S
C908 C907 1.373 . S
C908 C924 1.377 . S
C909 C907 1.389 . S
C909 C910 1.524 . S
C909 C923 1.377 . S
C910 C909 1.524 . S
C910 C911 1.397 . S
C910 C915 1.363 . S
C911 H888 0.950 . S
C911 C910 1.397 . S
C911 C912 1.334 . S
C912 H889 0.950 . S
C912 C911 1.334 . S
C912 C913 1.287 . S
C913 C912 1.287 . S
C913 C914 1.524 . S
C913 H932 0.913 . S
C914 H890 0.950 . S
C914 C913 1.524 . S
C914 C915 1.415 . S
C915 H891 0.950 . S
C915 C910 1.363 . S
C915 C914 1.415 . S
C916 H892 0.951 . S
C916 C917 1.366 . S
C916 C918 1.388 . S
C917 C916 1.366 . S
C917 C921 1.385 . S
C918 H893 0.951 . S
C918 C916 1.388 . S
C918 C919 1.366 . S
C919 C918 1.366 . S
C919 C920 1.414 . S
C919 C922 1.499 . S
C920 H894 0.950 . S
C920 C919 1.414 . S
C920 C921 1.374 . S
C921 H895 0.950 . S
C921 C917 1.385 . S
C921 C920 1.374 . S
C922 C919 1.499 . S
C922 C923 1.373 . S
C922 C924 1.389 . S
C923 H896 0.950 . S
C923 C909 1.377 . S
C923 C922 1.373 . S
C924 C908 1.377 . S
C924 C922 1.389 . S
C924 C925 1.524 . S
C925 C924 1.524 . S
C925 C926 1.397 . S
C925 C930 1.363 . S
C926 H897 0.950 . S
C926 C925 1.397 . S
C926 C927 1.334 . S
C927 H898 0.950 . S
C927 C926 1.334 . S
C927 C928 1.287 . S
C928 C927 1.287 . S
C928 C929 1.524 . S
C928 H931 0.999 . S
C929 H899 0.950 . S
C929 C928 1.524 . S
C929 C930 1.415 . S
C930 H900 0.950 . S
C930 C925 1.363 . S
C930 C929 1.415 . S
H931 C928 0.999 . S
H932 C913 0.913 . S
H933 C951 0.951 . S
H934 C953 0.951 . S
H935 C955 0.950 . S
H936 C956 0.950 . S
H937 C958 0.950 . S
H938 C961 0.950 . S
H939 C962 0.950 . S
H940 C964 0.950 . S
H941 C965 0.950 . S
H942 C966 0.952 1_565 S
H943 C968 0.951 . S
H944 C970 0.950 . S
H945 C971 0.950 . S
H946 C973 0.950 . S
H947 C976 0.950 . S
H948 C977 0.950 . S
H949 C979 0.950 1_565 S
H950 C980 0.950 1_565 S
C951 H933 0.951 . S
C951 C952 1.366 . S
C951 C953 1.388 . S
C952 C951 1.366 . S
C952 C956 1.385 . S
C953 H934 0.951 . S
C953 C951 1.388 . S
C953 C954 1.366 . S
C954 C953 1.366 . S
C954 C955 1.414 . S
C954 C957 1.499 . S
C955 H935 0.950 . S
C955 C954 1.414 . S
C955 C956 1.374 . S
C956 H936 0.950 . S
C956 C952 1.385 . S
C956 C955 1.374 . S
C957 C954 1.499 . S
C957 C958 1.373 . S
C957 C959 1.389 . S
C958 H937 0.950 . S
C958 C957 1.373 . S
C958 C974 1.377 . S
C959 C957 1.389 . S
C959 C960 1.524 . S
C959 C973 1.377 . S
C960 C959 1.524 . S
C960 C961 1.397 . S
C960 C965 1.363 . S
C961 H938 0.950 . S
C961 C960 1.397 . S
C961 C962 1.334 . S
C962 H939 0.950 . S
C962 C961 1.334 . S
C962 C963 1.287 . S
C963 C962 1.287 . S
C963 C964 1.524 . S
C963 H982 0.913 . S
C964 H940 0.950 . S
C964 C963 1.524 . S
C964 C965 1.415 . S
C965 H941 0.950 . S
C965 C960 1.363 . S
C965 C964 1.415 . S
C966 H942 0.952 1_545 S
C966 C967 1.366 . S
C966 C968 1.388 . S
C967 C966 1.366 . S
C967 C971 1.385 . S
C968 H943 0.951 . S
C968 C966 1.388 . S
C968 C969 1.366 . S
C969 C968 1.366 . S
C969 C970 1.414 . S
C969 C972 1.499 . S
C970 H944 0.950 . S
C970 C969 1.414 . S
C970 C971 1.374 . S
C971 H945 0.950 . S
C971 C967 1.385 . S
C971 C970 1.374 . S
C972 C969 1.499 . S
C972 C973 1.373 . S
C972 C974 1.389 . S
C973 H946 0.950 . S
C973 C959 1.377 . S
C973 C972 1.373 . S
C974 C958 1.377 . S
C974 C972 1.389 . S
C974 C975 1.524 . S
C975 C974 1.524 . S
C975 C976 1.397 . S
C975 C980 1.363 . S
C976 H947 0.950 . S
C976 C975 1.397 . S
C976 C977 1.334 . S
C977 H948 0.950 . S
C977 C976 1.334 . S
C977 C978 1.287 . S
C978 C977 1.287 . S
C978 C979 1.524 . S
C978 H981 0.999 . S
C979 H949 0.950 1_545 S
C979 C978 1.524 . S
C979 C980 1.415 . S
C980 H950 0.950 1_545 S
C980 C975 1.363 . S
C980 C979 1.415 . S
H981 C978 0.999 . S
H982 C963 0.913 . S
H983 C1001 0.951 . S
H984 C1003 0.951 . S
H985 C1005 0.950 . S
H986 C1006 0.950 . S
H987 C1008 0.950 . S
H988 C1011 0.950 . S
H989 C1012 0.950 . S
H990 C1014 0.950 . S
H991 C1015 0.950 . S
H992 C1016 0.951 . S
H993 C1018 0.951 . S
H994 C1020 0.950 . S
H995 C1021 0.950 . S
H996 C1023 0.950 1_554 S
H997 C1026 0.950 . S
H998 C1027 0.950 . S
H999 C1029 0.950 . S
H1000 C1030 0.950 . S
C1001 H983 0.951 . S
C1001 C1002 1.366 . S
C1001 C1003 1.388 . S
C1002 C1001 1.366 . S
C1002 C1006 1.385 . S
C1003 H984 0.951 . S
C1003 C1001 1.388 . S
C1003 C1004 1.366 . S
C1004 C1003 1.366 . S
C1004 C1005 1.414 . S
C1004 C1007 1.499 . S
C1005 H985 0.950 . S
C1005 C1004 1.414 . S
C1005 C1006 1.374 . S
C1006 H986 0.950 . S
C1006 C1002 1.385 . S
C1006 C1005 1.374 . S
C1007 C1004 1.499 . S
C1007 C1008 1.373 . S
C1007 C1009 1.389 . S
C1008 H987 0.950 . S
C1008 C1007 1.373 . S
C1008 C1024 1.377 . S
C1009 C1007 1.389 . S
C1009 C1010 1.524 . S
C1009 C1023 1.377 . S
C1010 C1009 1.524 . S
C1010 C1011 1.397 . S
C1010 C1015 1.363 . S
C1011 H988 0.950 . S
C1011 C1010 1.397 . S
C1011 C1012 1.334 . S
C1012 H989 0.950 . S
C1012 C1011 1.334 . S
C1012 C1013 1.287 . S
C1013 C1012 1.287 . S
C1013 C1014 1.524 . S
C1013 H1032 0.913 . S
C1014 H990 0.950 . S
C1014 C1013 1.524 . S
C1014 C1015 1.415 . S
C1015 H991 0.950 . S
C1015 C1010 1.363 . S
C1015 C1014 1.415 . S
C1016 H992 0.951 . S
C1016 C1017 1.366 . S
C1016 C1018 1.388 . S
C1017 C1016 1.366 . S
C1017 C1021 1.385 . S
C1018 H993 0.951 . S
C1018 C1016 1.388 . S
C1018 C1019 1.366 . S
C1019 C1018 1.366 . S
C1019 C1020 1.414 . S
C1019 C1022 1.526 . S
C1020 H994 0.950 . S
C1020 C1019 1.414 . S
C1020 C1021 1.374 . S
C1021 H995 0.950 . S
C1021 C1017 1.385 . S
C1021 C1020 1.374 . S
C1022 C1019 1.526 . S
C1022 C1023 1.365 1_554 S
C1022 C1024 1.371 1_554 S
C1023 H996 0.950 1_556 S
C1023 C1009 1.377 . S
C1023 C1022 1.365 1_556 S
C1024 C1008 1.377 . S
C1024 C1022 1.371 1_556 S
C1024 C1025 1.524 . S
C1025 C1024 1.524 . S
C1025 C1026 1.397 1_556 S
C1025 C1030 1.363 . S
C1026 H997 0.950 . S
C1026 C1025 1.397 1_554 S
C1026 C1027 1.334 . S
C1027 H998 0.950 . S
C1027 C1026 1.334 . S
C1027 C1028 1.288 1_554 S
C1028 C1027 1.288 1_556 S
C1028 C1029 1.522 . S
C1028 H1031 1.000 1_556 S
C1029 H999 0.950 . S
C1029 C1028 1.522 . S
C1029 C1030 1.415 . S
C1030 H1000 0.950 . S
C1030 C1025 1.363 . S
C1030 C1029 1.415 . S
H1031 C1028 1.000 1_554 S
H1032 C1013 0.913 . S
H1033 C1051 0.951 1_655 S
H1034 C1053 0.951 1_655 S
H1035 C1055 0.950 . S
H1036 C1056 0.950 . S
H1037 C1058 0.950 . S
H1038 C1061 0.950 . S
H1039 C1062 0.950 . S
H1040 C1064 0.950 . S
H1041 C1065 0.950 . S
H1042 C1066 0.951 . S
H1043 C1068 0.951 . S
H1044 C1070 0.950 1_655 S
H1045 C1071 0.950 1_655 S
H1046 C1073 0.950 . S
H1047 C1076 0.950 . S
H1048 C1077 0.950 . S
H1049 C1079 0.950 . S
H1050 C1080 0.950 . S
C1051 H1033 0.951 1_455 S
C1051 C1052 1.366 . S
C1051 C1053 1.388 . S
C1052 C1051 1.366 . S
C1052 C1056 1.385 . S
C1053 H1034 0.951 1_455 S
C1053 C1051 1.388 . S
C1053 C1054 1.366 . S
C1054 C1053 1.366 . S
C1054 C1055 1.414 . S
C1054 C1057 1.499 . S
C1055 H1035 0.950 . S
C1055 C1054 1.414 . S
C1055 C1056 1.374 . S
C1056 H1036 0.950 . S
C1056 C1052 1.385 . S
C1056 C1055 1.374 . S
C1057 C1054 1.499 . S
C1057 C1058 1.373 . S
C1057 C1059 1.389 . S
C1058 H1037 0.950 . S
C1058 C1057 1.373 . S
C1058 C1074 1.377 . S
C1059 C1057 1.389 . S
C1059 C1060 1.524 . S
C1059 C1073 1.377 . S
C1060 C1059 1.524 . S
C1060 C1061 1.397 . S
C1060 C1065 1.363 1_455 S
C1061 H1038 0.950 . S
C1061 C1060 1.397 . S
C1061 C1062 1.334 . S
C1062 H1039 0.950 . S
C1062 C1061 1.334 . S
C1062 C1063 1.287 . S
C1063 C1062 1.287 . S
C1063 C1064 1.524 1_455 S
C1063 H1082 0.913 . S
C1064 H1040 0.950 . S
C1064 C1063 1.524 1_655 S
C1064 C1065 1.415 . S
C1065 H1041 0.950 . S
C1065 C1060 1.363 1_655 S
C1065 C1064 1.415 . S
C1066 H1042 0.951 . S
C1066 C1067 1.366 . S
C1066 C1068 1.388 . S
C1067 C1066 1.366 . S
C1067 C1071 1.385 . S
C1068 H1043 0.951 . S
C1068 C1066 1.388 . S
C1068 C1069 1.366 . S
C1069 C1068 1.366 . S
C1069 C1070 1.414 . S
C1069 C1072 1.499 . S
C1070 H1044 0.950 1_455 S
C1070 C1069 1.414 . S
C1070 C1071 1.374 . S
C1071 H1045 0.950 1_455 S
C1071 C1067 1.385 . S
C1071 C1070 1.374 . S
C1072 C1069 1.499 . S
C1072 C1073 1.373 . S
C1072 C1074 1.389 . S
C1073 H1046 0.950 . S
C1073 C1059 1.377 . S
C1073 C1072 1.373 . S
C1074 C1058 1.377 . S
C1074 C1072 1.389 . S
C1074 C1075 1.524 . S
C1075 C1074 1.524 . S
C1075 C1076 1.397 . S
C1075 C1080 1.363 . S
C1076 H1047 0.950 . S
C1076 C1075 1.397 . S
C1076 C1077 1.334 . S
C1077 H1048 0.950 . S
C1077 C1076 1.334 . S
C1077 C1078 1.287 . S
C1078 C1077 1.287 . S
C1078 C1079 1.524 . S
C1078 H1081 0.999 . S
C1079 H1049 0.950 . S
C1079 C1078 1.524 . S
C1079 C1080 1.415 . S
C1080 H1050 0.950 . S
C1080 C1075 1.363 . S
C1080 C1079 1.415 . S
H1081 C1078 0.999 . S
H1082 C1063 0.913 . S
C202 C20 1.237 . S
C217 C175 1.189 . S
C252 C41 1.247 . S
C267 C137 1.185 . S
C302 C64 1.263 . S
C317 C156 1.205 . S
C352 C19 1.186 . S
C367 C170 1.238 . S
C417 C132 1.191 . S
C402 C44 1.183 . S
C467 C151 1.141 . S
C452 C67 1.138 . S
C502 C43 1.224 . S
C517 C99 1.178 . S
C552 C66 1.088 . S
C567 C113 1.118 1_655 S
C602 C21 1.182 . S
C617 C75 1.190 . S
C667 C94 1.221 . S
C652 C42 1.171 . S
C717 C118 1.206 . S
C702 C65 1.227 . S
C752 C18 1.248 . S
C767 C80 1.186 . S
C817 C109 1.580 . S
C802 C17 1.586 . S
C852 C39 1.595 . S
C867 C71 1.581 . S
C902 C62 1.592 . S
C917 C90 1.578 . S
C967 C147 1.573 . S
C952 C40 1.578 . S
C1017 C166 1.565 . S
C1002 C63 1.579 . S
C1052 C16 1.590 . S
C1067 C128 1.575 . S
