# Generated by pormake.
# Topology pyr, (3,6)-cn, num edge types: 1
# Building blocks:
#     Node 0, Type 0, BuildingBlock: VETTIZ_charged_linker_0, # of connection points: 3
#     Node 1, Type 0, BuildingBlock: VETTIZ_charged_linker_0, # of connection points: 3
#     Node 2, Type 0, BuildingBlock: VETTIZ_charged_linker_0, # of connection points: 3
#     Node 3, Type 0, BuildingBlock: VETTIZ_charged_linker_0, # of connection points: 3
#     Node 4, Type 0, BuildingBlock: VETTIZ_charged_linker_0, # of connection points: 3
#     Node 5, Type 0, BuildingBlock: VETTIZ_charged_linker_0, # of connection points: 3
#     Node 6, Type 0, BuildingBlock: VETTIZ_charged_linker_0, # of connection points: 3
#     Node 7, Type 0, BuildingBlock: VETTIZ_charged_linker_0, # of connection points: 3
#     Node 8, Type 1, BuildingBlock: INOVEN_clean_sbu_0, # of connection points: 6
#     Node 9, Type 1, BuildingBlock: INOVEN_clean_sbu_0, # of connection points: 6
#     Node 10, Type 1, BuildingBlock: INOVEN_clean_sbu_0, # of connection points: 6
#     Node 11, Type 1, BuildingBlock: INOVEN_clean_sbu_0, # of connection points: 6
#     Edge 12, Type (0, 1), BuildingBlock: EZIPEK_clean_linker_0, # of connection points: 2
#     Edge 13, Type (0, 1), BuildingBlock: EZIPEK_clean_linker_0, # of connection points: 2
#     Edge 14, Type (0, 1), BuildingBlock: EZIPEK_clean_linker_0, # of connection points: 2
#     Edge 15, Type (0, 1), BuildingBlock: EZIPEK_clean_linker_0, # of connection points: 2
#     Edge 16, Type (0, 1), BuildingBlock: EZIPEK_clean_linker_0, # of connection points: 2
#     Edge 17, Type (0, 1), BuildingBlock: EZIPEK_clean_linker_0, # of connection points: 2
#     Edge 18, Type (0, 1), BuildingBlock: EZIPEK_clean_linker_0, # of connection points: 2
#     Edge 19, Type (0, 1), BuildingBlock: EZIPEK_clean_linker_0, # of connection points: 2
#     Edge 20, Type (0, 1), BuildingBlock: EZIPEK_clean_linker_0, # of connection points: 2
#     Edge 21, Type (0, 1), BuildingBlock: EZIPEK_clean_linker_0, # of connection points: 2
#     Edge 22, Type (0, 1), BuildingBlock: EZIPEK_clean_linker_0, # of connection points: 2
#     Edge 23, Type (0, 1), BuildingBlock: EZIPEK_clean_linker_0, # of connection points: 2
#     Edge 24, Type (0, 1), BuildingBlock: EZIPEK_clean_linker_0, # of connection points: 2
#     Edge 25, Type (0, 1), BuildingBlock: EZIPEK_clean_linker_0, # of connection points: 2
#     Edge 26, Type (0, 1), BuildingBlock: EZIPEK_clean_linker_0, # of connection points: 2
#     Edge 27, Type (0, 1), BuildingBlock: EZIPEK_clean_linker_0, # of connection points: 2
#     Edge 28, Type (0, 1), BuildingBlock: EZIPEK_clean_linker_0, # of connection points: 2
#     Edge 29, Type (0, 1), BuildingBlock: EZIPEK_clean_linker_0, # of connection points: 2
#     Edge 30, Type (0, 1), BuildingBlock: EZIPEK_clean_linker_0, # of connection points: 2
#     Edge 31, Type (0, 1), BuildingBlock: EZIPEK_clean_linker_0, # of connection points: 2
#     Edge 32, Type (0, 1), BuildingBlock: EZIPEK_clean_linker_0, # of connection points: 2
#     Edge 33, Type (0, 1), BuildingBlock: EZIPEK_clean_linker_0, # of connection points: 2
#     Edge 34, Type (0, 1), BuildingBlock: EZIPEK_clean_linker_0, # of connection points: 2
#     Edge 35, Type (0, 1), BuildingBlock: EZIPEK_clean_linker_0, # of connection points: 2
# Relax obj value: 0.132
# Max RMSD: 0.141
# Mean RMSD: 0.066
data_MOF--net-pyr--node1-INOVEN_clean_sbu_0--node2-VETTIZ_charged_linker_0--edge1-EZIPEK_clean_linker_0
_symmetry_space_group_name_H-M    P1
_symmetry_Int_Tables_number       1
_symmetry_cell_setting            triclinic
loop_
_symmetry_equiv_pos_as_xyz
'x, y, z'
_cell_length_a     35.876133
_cell_length_b     38.211249
_cell_length_c     35.078684
_cell_angle_alpha  90.98162
_cell_angle_beta   88.846003
_cell_angle_gamma 101.10809
loop_
_atom_site_label
_atom_site_type_symbol
_atom_site_fract_x
_atom_site_fract_y
_atom_site_fract_z
_atom_type_partial_charge
C0 C 0.30466 0.25701 0.34925 0.0
C1 C 0.27355 0.27179 0.36166 0.0
C2 C 0.27105 0.30641 0.35064 0.0
C3 C 0.32188 0.30525 0.30475 0.0
C4 C 0.32852 0.27413 0.32029 0.0
C5 C 0.3578 0.25883 0.29753 0.0
H6 H 0.43081 0.23131 0.12573 0.0
C7 C 0.34127 0.30973 0.26723 0.0
C8 C 0.36352 0.28343 0.26325 0.0
H9 H 0.45145 0.18539 0.23316 0.0
H10 H 0.42142 0.22854 0.26696 0.0
H11 H 0.44556 0.31812 0.15695 0.0
H12 H 0.34565 0.23526 0.14529 0.0
H13 H 0.33558 0.27533 0.12835 0.0
H14 H 0.37169 0.25582 0.10464 0.0
H15 H 0.42806 0.30127 0.11125 0.0
H16 H 0.4091 0.33593 0.136 0.0
C17 C 0.39424 0.26258 0.32158 0.0
C18 C 0.34034 0.21977 0.28615 0.0
C19 C 0.27998 0.37515 0.16988 0.0
C20 C 0.28041 0.37483 0.13003 0.0
C21 C 0.30813 0.35981 0.11006 0.0
C22 C 0.33338 0.34298 0.12997 0.0
C23 C 0.33032 0.34081 0.17003 0.0
C24 C 0.30451 0.35763 0.1892 0.0
C25 C 0.3039 0.35221 0.23142 0.0
C26 C 0.33279 0.32814 0.23466 0.0
C27 C 0.34832 0.32148 0.19868 0.0
C28 C 0.31822 0.38894 0.25075 0.0
C29 C 0.26293 0.33383 0.24418 0.0
C30 C 0.42933 0.23109 0.1566 0.0
C31 C 0.44309 0.20483 0.17695 0.0
C32 C 0.44087 0.20524 0.21703 0.0
C33 C 0.42314 0.22997 0.23652 0.0
C34 C 0.40606 0.2535 0.21569 0.0
C35 C 0.41063 0.25501 0.17656 0.0
C36 C 0.39003 0.28182 0.15959 0.0
C37 C 0.3729 0.29635 0.19518 0.0
C38 C 0.38154 0.27863 0.22769 0.0
C39 C 0.41952 0.31084 0.13958 0.0
C40 C 0.3592 0.26132 0.13282 0.0
H41 H 0.29183 0.34925 0.31355 0.0
H42 H 0.30709 0.2306 0.35826 0.0
H43 H 0.31164 0.21821 0.27401 0.0
H44 H 0.35714 0.20825 0.26444 0.0
H45 H 0.33747 0.20208 0.31126 0.0
H46 H 0.39373 0.2807 0.34668 0.0
H47 H 0.39791 0.23641 0.33264 0.0
H48 H 0.42008 0.27447 0.30493 0.0
H49 H 0.2591 0.38689 0.18573 0.0
H50 H 0.3091 0.35981 0.07918 0.0
H51 H 0.35334 0.33117 0.11342 0.0
H52 H 0.34231 0.40471 0.23417 0.0
H53 H 0.29526 0.40472 0.25271 0.0
H54 H 0.32944 0.38655 0.27952 0.0
H55 H 0.24253 0.32933 0.22035 0.0
H56 H 0.26211 0.30685 0.25569 0.0
H57 H 0.2506 0.35012 0.26574 0.0
H58 H 0.24762 0.31841 0.36075 0.0
C59 C 0.29581 0.32363 0.32253 0.0
C60 C 0.21459 0.93901 0.59263 0.0
C61 C 0.20165 0.96441 0.61614 0.0
C62 C 0.21196 0.96772 0.65471 0.0
C63 C 0.24327 0.91727 0.64719 0.0
C64 C 0.23561 0.91592 0.60866 0.0
C65 C 0.25177 0.88727 0.58794 0.0
H66 H 0.34596 0.75097 0.59782 0.0
C67 C 0.26176 0.88712 0.65562 0.0
C68 C 0.2668 0.8694 0.62111 0.0
H69 H 0.325 0.80776 0.49778 0.0
H70 H 0.28631 0.84153 0.53577 0.0
H71 H 0.37142 0.81695 0.64353 0.0
H72 H 0.26111 0.74827 0.64381 0.0
H73 H 0.27139 0.76135 0.69135 0.0
H74 H 0.30146 0.7359 0.66552 0.0
H75 H 0.36271 0.77345 0.6643 0.0
H76 H 0.35587 0.81224 0.69113 0.0
C77 C 0.28407 0.90551 0.56062 0.0
C78 C 0.21926 0.86167 0.56766 0.0
C79 C 0.29768 0.86638 0.79104 0.0
C80 C 0.31437 0.84009 0.80746 0.0
C81 C 0.31833 0.80955 0.78603 0.0
C82 C 0.30855 0.80673 0.74741 0.0
C83 C 0.29477 0.83476 0.73044 0.0
C84 C 0.28798 0.86314 0.75264 0.0
C85 C 0.27164 0.88963 0.7303 0.0
C86 C 0.27181 0.87355 0.69052 0.0
C87 C 0.28585 0.84174 0.69069 0.0
C88 C 0.29888 0.92637 0.73311 0.0
C89 C 0.23079 0.88937 0.74575 0.0
C90 C 0.33174 0.76981 0.58403 0.0
C91 C 0.33775 0.77669 0.54508 0.0
C92 C 0.32021 0.80207 0.52782 0.0
C93 C 0.2985 0.82195 0.55002 0.0
C94 C 0.2956 0.81697 0.58975 0.0
C95 C 0.31159 0.79079 0.60601 0.0
C96 C 0.31056 0.79238 0.64885 0.0
C97 C 0.29217 0.82444 0.65574 0.0
C98 C 0.2829 0.83834 0.62112 0.0
C99 C 0.3521 0.79886 0.66304 0.0
C100 C 0.28507 0.75764 0.66345 0.0
H101 H 0.23848 0.94708 0.70031 0.0
H102 H 0.20743 0.93653 0.56272 0.0
H103 H 0.19458 0.8538 0.58748 0.0
H104 H 0.22767 0.83669 0.55773 0.0
H105 H 0.20942 0.87464 0.54266 0.0
H106 H 0.29375 0.93429 0.56768 0.0
H107 H 0.2747 0.90381 0.53054 0.0
H108 H 0.30994 0.89382 0.56257 0.0
H109 H 0.29386 0.88979 0.80738 0.0
H110 H 0.33075 0.78889 0.79867 0.0
H111 H 0.31349 0.78356 0.73189 0.0
H112 H 0.32903 0.92305 0.73309 0.0
H113 H 0.29354 0.94081 0.7598 0.0
H114 H 0.29702 0.94362 0.70857 0.0
H115 H 0.217 0.86231 0.75549 0.0
H116 H 0.21166 0.89598 0.72386 0.0
H117 H 0.23099 0.908 0.77044 0.0
H118 H 0.20243 0.98751 0.67298 0.0
C119 C 0.23247 0.94404 0.67048 0.0
C120 C 0.62268 0.25408 0.93214 0.0
C121 C 0.58942 0.23071 0.92021 0.0
C122 C 0.57026 0.24144 0.88877 0.0
C123 C 0.61678 0.29772 0.88276 0.0
C124 C 0.63566 0.28687 0.91327 0.0
C125 C 0.67055 0.31401 0.92317 0.0
H126 H 0.78706 0.47536 0.9023 0.0
C127 C 0.63801 0.33413 0.87017 0.0
C128 C 0.66961 0.34328 0.89437 0.0
H129 H 0.79828 0.39062 0.97857 0.0
H130 H 0.74164 0.35403 0.95332 0.0
H131 H 0.69292 0.4658 0.90708 0.0
H132 H 0.76661 0.42176 0.82889 0.0
H133 H 0.72986 0.43363 0.80265 0.0
H134 H 0.76252 0.4678 0.82765 0.0
H135 H 0.7249 0.49275 0.87434 0.0
H136 H 0.67839 0.47024 0.85997 0.0
C137 C 0.66534 0.32716 0.96462 0.0
C138 C 0.7057 0.29637 0.91668 0.0
C139 C 0.5938 0.40355 0.75802 0.0
C140 C 0.60853 0.43729 0.74128 0.0
C141 C 0.64162 0.4577 0.75744 0.0
C142 C 0.65954 0.44553 0.78879 0.0
C143 C 0.64485 0.41203 0.80502 0.0
C144 C 0.61238 0.39148 0.78967 0.0
C145 C 0.60124 0.35635 0.81098 0.0
C146 C 0.63229 0.35906 0.84112 0.0
C147 C 0.6579 0.39217 0.83743 0.0
C148 C 0.5617 0.355 0.82959 0.0
C149 C 0.60248 0.32535 0.78257 0.0
C150 C 0.77721 0.4489 0.91351 0.0
C151 C 0.79747 0.43622 0.94308 0.0
C152 C 0.78351 0.40136 0.95625 0.0
C153 C 0.75043 0.38001 0.94134 0.0
C154 C 0.73051 0.39291 0.91211 0.0
C155 C 0.74429 0.42668 0.8982 0.0
C156 C 0.72037 0.43487 0.86545 0.0
C157 C 0.6896 0.40096 0.86269 0.0
C158 C 0.69558 0.37658 0.89052 0.0
C159 C 0.7033 0.46779 0.87694 0.0
C160 C 0.74598 0.4401 0.82915 0.0
H161 H 0.56749 0.28087 0.84669 0.0
H162 H 0.63825 0.24703 0.95605 0.0
H163 H 0.7007 0.27567 0.89367 0.0
H164 H 0.73111 0.31549 0.90683 0.0
H165 H 0.71261 0.28323 0.94292 0.0
H166 H 0.63554 0.33047 0.97 0.0
H167 H 0.67179 0.30776 0.98556 0.0
H168 H 0.6829 0.35357 0.97088 0.0
H169 H 0.56855 0.38689 0.74655 0.0
H170 H 0.6538 0.48347 0.74561 0.0
H171 H 0.68447 0.46285 0.79928 0.0
H172 H 0.56059 0.38051 0.84494 0.0
H173 H 0.53926 0.35079 0.80769 0.0
H174 H 0.55465 0.33377 0.85091 0.0
H175 H 0.62941 0.33049 0.76552 0.0
H176 H 0.6015 0.29976 0.79697 0.0
H177 H 0.57845 0.32222 0.7625 0.0
H178 H 0.54456 0.22433 0.87883 0.0
C179 C 0.5836 0.27449 0.87017 0.0
C180 C 0.93893 0.81143 0.4003 0.0
C181 C 0.92188 0.83332 0.42621 0.0
C182 C 0.88291 0.82158 0.43512 0.0
C183 C 0.88036 0.76634 0.39859 0.0
C184 C 0.9171 0.77875 0.38578 0.0
C185 C 0.92769 0.75407 0.35429 0.0
H186 H 0.87794 0.59736 0.24845 0.0
C187 C 0.86567 0.73076 0.38064 0.0
C188 C 0.89275 0.72346 0.35342 0.0
H189 H 0.9775 0.67937 0.23194 0.0
H190 H 0.95823 0.71318 0.28595 0.0
H191 H 0.88266 0.59972 0.34282 0.0
H192 H 0.81664 0.65017 0.26642 0.0
H193 H 0.78738 0.62902 0.30371 0.0
H194 H 0.80984 0.60256 0.27086 0.0
H195 H 0.84399 0.57446 0.31632 0.0
H196 H 0.83611 0.59575 0.36126 0.0
C197 C 0.96378 0.74082 0.36571 0.0
C198 C 0.93257 0.77506 0.31672 0.0
C199 C 0.74425 0.65573 0.43737 0.0
C200 C 0.72326 0.62124 0.42994 0.0
C201 C 0.73603 0.60119 0.39986 0.0
C202 C 0.76908 0.61505 0.37801 0.0
C203 C 0.78997 0.6496 0.38596 0.0
C204 C 0.77711 0.66924 0.41525 0.0
C205 C 0.80157 0.70582 0.41922 0.0
C206 C 0.83248 0.70453 0.38893 0.0
C207 C 0.8256 0.67167 0.36897 0.0
C208 C 0.81769 0.70944 0.46001 0.0
C209 C 0.77703 0.73381 0.40983 0.0
C210 C 0.89538 0.62278 0.25617 0.0
C211 C 0.92925 0.63567 0.23517 0.0
C212 C 0.95118 0.66882 0.24697 0.0
C213 C 0.93976 0.68861 0.27829 0.0
C214 C 0.90553 0.67574 0.29846 0.0
C215 C 0.88415 0.64304 0.28731 0.0
C216 C 0.84912 0.63275 0.31253 0.0
C217 C 0.85174 0.66507 0.33931 0.0
C218 C 0.88521 0.69057 0.33138 0.0
C219 C 0.85276 0.59875 0.33432 0.0
C220 C 0.81369 0.62811 0.28723 0.0
H221 H 0.8337 0.78121 0.43183 0.0
H222 H 0.96834 0.81958 0.39141 0.0
H223 H 0.90967 0.79074 0.31403 0.0
H224 H 0.93045 0.75758 0.29124 0.0
H225 H 0.96026 0.79402 0.31576 0.0
H226 H 0.96043 0.73007 0.3951 0.0
H227 H 0.98892 0.76294 0.36507 0.0
H228 H 0.96974 0.71911 0.34679 0.0
H229 H 0.73492 0.67207 0.45977 0.0
H230 H 0.72031 0.57472 0.39326 0.0
H231 H 0.77704 0.59838 0.35552 0.0
H232 H 0.83023 0.68586 0.46676 0.0
H233 H 0.7949 0.71112 0.4815 0.0
H234 H 0.84046 0.73296 0.46398 0.0
H235 H 0.75112 0.72183 0.39378 0.0
H236 H 0.7924 0.75503 0.39098 0.0
H237 H 0.76745 0.74626 0.43618 0.0
H238 H 0.86807 0.83782 0.45326 0.0
C239 C 0.86266 0.78844 0.42239 0.0
C240 C 0.74015 0.72514 0.93287 0.0
C241 C 0.76321 0.70242 0.91704 0.0
C242 C 0.75733 0.68966 0.87933 0.0
C243 C 0.7137 0.72928 0.87068 0.0
C244 C 0.71489 0.73787 0.90896 0.0
C245 C 0.68782 0.76252 0.91909 0.0
H246 H 0.58721 0.88309 0.85807 0.0
C247 C 0.69071 0.7511 0.85161 0.0
C248 C 0.6732 0.76919 0.87971 0.0
H249 H 0.59998 0.85136 0.97374 0.0
H250 H 0.63265 0.80471 0.95097 0.0
H251 H 0.56936 0.79953 0.8201 0.0
H252 H 0.65388 0.89016 0.82811 0.0
H253 H 0.68144 0.8637 0.80273 0.0
H254 H 0.63984 0.87515 0.78172 0.0
H255 H 0.57552 0.8417 0.79646 0.0
H256 H 0.5945 0.80503 0.77601 0.0
C257 C 0.65582 0.74243 0.94538 0.0
C258 C 0.71091 0.79693 0.93723 0.0
C259 C 0.74003 0.80176 0.72555 0.0
C260 C 0.73065 0.82998 0.70523 0.0
C261 C 0.69412 0.838 0.70959 0.0
C262 C 0.6696 0.82177 0.73856 0.0
C263 C 0.68251 0.79844 0.76341 0.0
C264 C 0.71559 0.78636 0.75483 0.0
C265 C 0.72395 0.76037 0.78367 0.0
C266 C 0.69238 0.76223 0.81322 0.0
C267 C 0.66957 0.78611 0.80185 0.0
C268 C 0.72053 0.72319 0.76412 0.0
C269 C 0.764 0.77433 0.8 0.0
C270 C 0.59689 0.86581 0.8783 0.0
C271 C 0.59163 0.87079 0.91754 0.0
C272 C 0.60418 0.8479 0.94334 0.0
C273 C 0.62316 0.82107 0.93011 0.0
C274 C 0.63009 0.81758 0.89079 0.0
C275 C 0.61648 0.83936 0.86558 0.0
C276 C 0.62678 0.83224 0.82485 0.0
C277 C 0.64865 0.80219 0.82972 0.0
C278 C 0.65075 0.794 0.86851 0.0
C279 C 0.58963 0.81907 0.80292 0.0
C280 C 0.65169 0.86684 0.80833 0.0
H281 H 0.72708 0.69188 0.82793 0.0
H282 H 0.74325 0.73406 0.9623 0.0
H283 H 0.73618 0.80763 0.91907 0.0
H284 H 0.6946 0.81847 0.94051 0.0
H285 H 0.72108 0.7915 0.96584 0.0
H286 H 0.65222 0.71302 0.94151 0.0
H287 H 0.66199 0.74869 0.97592 0.0
H288 H 0.62771 0.74854 0.93879 0.0
H289 H 0.76763 0.79466 0.72134 0.0
H290 H 0.68616 0.8591 0.69322 0.0
H291 H 0.64252 0.82938 0.7421 0.0
H292 H 0.71993 0.72462 0.73249 0.0
H293 H 0.74528 0.7108 0.77029 0.0
H294 H 0.69405 0.70482 0.77321 0.0
H295 H 0.76602 0.80171 0.81213 0.0
H296 H 0.7712 0.75725 0.82267 0.0
H297 H 0.78639 0.77503 0.77758 0.0
H298 H 0.77375 0.671 0.86735 0.0
C299 C 0.73172 0.70243 0.85629 0.0
C300 C 0.86546 0.17384 0.47432 0.0
C301 C 0.88494 0.149 0.45709 0.0
C302 C 0.89099 0.14953 0.41726 0.0
C303 C 0.85782 0.19877 0.41266 0.0
C304 C 0.85376 0.19935 0.45185 0.0
C305 C 0.83926 0.23156 0.46627 0.0
H306 H 0.74482 0.36155 0.42912 0.0
C307 C 0.84303 0.22902 0.39769 0.0
C308 C 0.83356 0.24923 0.42895 0.0
H309 H 0.78446 0.33521 0.53833 0.0
H310 H 0.81997 0.29426 0.50721 0.0
H311 H 0.72813 0.28118 0.39273 0.0
H312 H 0.82521 0.34555 0.34441 0.0
H313 H 0.78369 0.36505 0.35322 0.0
H314 H 0.82148 0.37017 0.38668 0.0
H315 H 0.72637 0.32409 0.3734 0.0
H316 H 0.74113 0.29021 0.34462 0.0
C317 C 0.80135 0.21843 0.48805 0.0
C318 C 0.87042 0.2549 0.49076 0.0
C319 C 0.79721 0.22362 0.26197 0.0
C320 C 0.77636 0.24519 0.24274 0.0
C321 C 0.77495 0.2795 0.25696 0.0
C322 C 0.79028 0.29051 0.29252 0.0
C323 C 0.80631 0.2666 0.31398 0.0
C324 C 0.81213 0.23491 0.29766 0.0
C325 C 0.83216 0.21421 0.3241 0.0
C326 C 0.83356 0.23712 0.36021 0.0
C327 C 0.81743 0.26719 0.35418 0.0
C328 C 0.8074 0.17666 0.32967 0.0
C329 C 0.8724 0.21343 0.30746 0.0
C330 C 0.76145 0.34708 0.44622 0.0
C331 C 0.76102 0.35031 0.48606 0.0
C332 C 0.78382 0.33219 0.50758 0.0
C333 C 0.8042 0.30852 0.48949 0.0
C334 C 0.80196 0.30357 0.44966 0.0
C335 C 0.78225 0.32393 0.42865 0.0
C336 C 0.78414 0.31652 0.3866 0.0
C337 C 0.80803 0.28776 0.38571 0.0
C338 C 0.81713 0.27946 0.42281 0.0
C339 C 0.74293 0.30234 0.37331 0.0
C340 C 0.80445 0.35103 0.36648 0.0
H341 H 0.88251 0.17363 0.36473 0.0
H342 H 0.86158 0.17472 0.50502 0.0
H343 H 0.89907 0.24891 0.4844 0.0
H344 H 0.87341 0.2837 0.48476 0.0
H345 H 0.86456 0.25052 0.52171 0.0
H346 H 0.78183 0.19877 0.47037 0.0
H347 H 0.80632 0.2052 0.51493 0.0
H348 H 0.78598 0.23999 0.49546 0.0
H349 H 0.79922 0.19748 0.2507 0.0
H350 H 0.75938 0.29651 0.24198 0.0
H351 H 0.78673 0.31615 0.3031 0.0
H352 H 0.77809 0.17879 0.33896 0.0
H353 H 0.80558 0.16085 0.30268 0.0
H354 H 0.81864 0.16107 0.3513 0.0
H355 H 0.89471 0.22133 0.3291 0.0
H356 H 0.87433 0.18656 0.29592 0.0
H357 H 0.88038 0.2326 0.28379 0.0
H358 H 0.90668 0.13107 0.40361 0.0
C359 C 0.87719 0.17415 0.39489 0.0
C360 C 0.43473 0.67238 0.33258 0.0
C361 C 0.41693 0.64141 0.35321 0.0
C362 C 0.37976 0.62539 0.34207 0.0
C363 C 0.38018 0.66772 0.29026 0.0
C364 C 0.41551 0.68547 0.30198 0.0
C365 C 0.42826 0.71943 0.27888 0.0
H366 H 0.39082 0.82768 0.13248 0.0
C367 C 0.36803 0.68679 0.25687 0.0
C368 C 0.39596 0.7179 0.25025 0.0
H369 H 0.48728 0.84929 0.20627 0.0
H370 H 0.46428 0.79326 0.23948 0.0
H371 H 0.32646 0.79591 0.19705 0.0
H372 H 0.39549 0.74845 0.1177 0.0
H373 H 0.35245 0.71784 0.12158 0.0
H374 H 0.35273 0.76182 0.10328 0.0
H375 H 0.32126 0.79594 0.14624 0.0
H376 H 0.29709 0.75943 0.17468 0.0
C377 C 0.43083 0.75171 0.30635 0.0
C378 C 0.4663 0.71764 0.25851 0.0
C379 C 0.24675 0.63067 0.18396 0.0
C380 C 0.22986 0.64048 0.15054 0.0
C381 C 0.24762 0.67204 0.13224 0.0
C382 C 0.28083 0.69354 0.14669 0.0
C383 C 0.29741 0.68361 0.17996 0.0
C384 C 0.28062 0.65237 0.19783 0.0
C385 C 0.303 0.64584 0.2324 0.0
C386 C 0.33606 0.67797 0.23205 0.0
C387 C 0.33223 0.7003 0.20146 0.0
C388 C 0.2772 0.64615 0.26829 0.0
C389 C 0.31691 0.61034 0.22559 0.0
C390 C 0.40671 0.82077 0.15623 0.0
C391 C 0.44063 0.84372 0.16699 0.0
C392 C 0.46077 0.8327 0.19757 0.0
C393 C 0.44731 0.80006 0.2169 0.0
C394 C 0.41312 0.77748 0.20584 0.0
C395 C 0.39377 0.78827 0.17562 0.0
C396 C 0.35905 0.76092 0.16588 0.0
C397 C 0.35941 0.73255 0.19581 0.0
C398 C 0.39126 0.74177 0.21971 0.0
C399 C 0.32396 0.77878 0.1709 0.0
C400 C 0.36483 0.74654 0.12495 0.0
H401 H 0.33399 0.62345 0.30413 0.0
H402 H 0.46286 0.68622 0.34026 0.0
H403 H 0.46438 0.69173 0.24302 0.0
H404 H 0.47418 0.73878 0.23716 0.0
H405 H 0.4896 0.72011 0.27936 0.0
H406 H 0.40482 0.74892 0.32472 0.0
H407 H 0.45569 0.75378 0.32523 0.0
H408 H 0.43302 0.77707 0.29121 0.0
H409 H 0.2339 0.60663 0.19885 0.0
H410 H 0.23537 0.68034 0.10674 0.0
H411 H 0.29223 0.71734 0.13133 0.0
H412 H 0.25667 0.66421 0.26463 0.0
H413 H 0.26055 0.61909 0.27426 0.0
H414 H 0.29338 0.65664 0.29388 0.0
H415 H 0.32915 0.60932 0.19629 0.0
H416 H 0.3396 0.6068 0.24504 0.0
H417 H 0.29303 0.5872 0.22859 0.0
H418 H 0.36449 0.60246 0.35732 0.0
C419 C 0.36185 0.63778 0.31092 0.0
C420 C 0.10144 0.25877 0.69463 0.0
C421 C 0.11452 0.24059 0.66277 0.0
C422 C 0.14827 0.25718 0.64416 0.0
C423 C 0.15501 0.30886 0.68728 0.0
C424 C 0.12216 0.29288 0.70636 0.0
C425 C 0.11315 0.31659 0.7394 0.0
H426 H 0.1553 0.47802 0.83701 0.0
C427 C 0.16973 0.34448 0.70544 0.0
C428 C 0.14526 0.34956 0.73622 0.0
H429 H 0.06541 0.38895 0.86363 0.0
H430 H 0.08545 0.35502 0.8104 0.0
H431 H 0.15032 0.47179 0.74311 0.0
H432 H 0.21976 0.42795 0.82187 0.0
H433 H 0.24799 0.44615 0.78275 0.0
H434 H 0.22628 0.47501 0.81359 0.0
H435 H 0.18654 0.4995 0.77067 0.0
H436 H 0.19778 0.47925 0.72624 0.0
C437 C 0.07388 0.32601 0.73277 0.0
C438 C 0.1152 0.29654 0.77689 0.0
C439 C 0.29039 0.42105 0.6488 0.0
C440 C 0.31155 0.4553 0.65712 0.0
C441 C 0.29855 0.47495 0.68741 0.0
C442 C 0.26541 0.46079 0.70893 0.0
C443 C 0.24457 0.42637 0.70037 0.0
C444 C 0.25732 0.4073 0.67052 0.0
C445 C 0.23178 0.37147 0.66478 0.0
C446 C 0.20181 0.37167 0.6962 0.0
C447 C 0.20917 0.40391 0.71728 0.0
C448 C 0.21453 0.37076 0.62449 0.0
C449 C 0.2556 0.34233 0.67125 0.0
C450 C 0.1399 0.4512 0.8315 0.0
C451 C 0.10822 0.43665 0.85498 0.0
C452 C 0.08957 0.40128 0.84632 0.0
C453 C 0.10136 0.38146 0.81528 0.0
C454 C 0.13289 0.39641 0.79219 0.0
C455 C 0.15188 0.4307 0.80096 0.0
C456 C 0.18598 0.44191 0.77474 0.0
C457 C 0.18421 0.40931 0.74849 0.0
C458 C 0.15263 0.38237 0.75838 0.0
C459 C 0.18023 0.47502 0.75255 0.0
C460 C 0.22206 0.4484 0.7993 0.0
H461 H 0.19366 0.30144 0.64011 0.0
H462 H 0.07561 0.24686 0.70971 0.0
H463 H 0.14042 0.28355 0.77643 0.0
H464 H 0.11849 0.31444 0.8021 0.0
H465 H 0.08949 0.27543 0.78103 0.0
H466 H 0.07205 0.33508 0.70303 0.0
H467 H 0.05084 0.30241 0.73734 0.0
H468 H 0.06828 0.34793 0.75153 0.0
H469 H 0.29943 0.40524 0.62573 0.0
H470 H 0.3142 0.50135 0.69447 0.0
H471 H 0.2572 0.47724 0.73149 0.0
H472 H 0.21041 0.39775 0.61634 0.0
H473 H 0.23338 0.36166 0.6025 0.0
H474 H 0.18589 0.35388 0.6228 0.0
H475 H 0.27659 0.3506 0.69419 0.0
H476 H 0.23829 0.3169 0.68111 0.0
H477 H 0.27163 0.33726 0.64498 0.0
H478 H 0.15902 0.24411 0.61981 0.0
C479 C 0.16835 0.29075 0.65606 0.0
Gd480 Gd 0.03487 0.05451 0.50869 0.0
Gd481 Gd 1.0041 1.02058 0.58167 0.0
C482 C 0.04695 0.10371 0.58509 0.0
C483 C 0.05209 0.08475 0.44442 0.0
C484 C 0.08378 0.11338 0.43295 0.0
C485 C 0.1217 0.11 0.43832 0.0
C486 C 0.07623 0.14534 0.41862 0.0
C487 C 0.14382 0.16954 0.41435 0.0
C488 C 0.10609 0.17335 0.4095 0.0
C489 C 0.15147 0.13785 0.42893 0.0
C490 C 0.08869 1.03582 0.55363 0.0
C491 C 0.98908 0.97152 0.50336 0.0
C492 C 0.98139 0.97901 0.63822 0.0
C493 C 0.94361 0.95717 0.64426 0.0
C494 C 0.91409 0.96118 0.61998 0.0
C495 C 0.93676 0.93204 0.67336 0.0
C496 C 0.87078 0.91589 0.65456 0.0
C497 C 0.90037 0.91153 0.67859 0.0
C498 C 0.87784 0.94061 0.62506 0.0
C499 C 0.95671 0.0573 0.54803 0.0
O500 O 0.041 0.10319 0.5479 0.0
O501 O 0.04038 0.07303 0.60378 0.0
O502 O 0.06103 0.05408 0.45285 0.0
O503 O 0.02707 0.09445 0.46818 0.0
O504 O 0.09396 0.06431 0.53336 0.0
O505 O 0.05591 1.01824 0.54811 0.0
O506 O 0.98583 0.9733 0.54107 0.0
O507 O 1.00549 1.00034 0.48431 0.0
O508 O 0.98285 1.01336 0.63986 0.0
O509 O 1.00017 0.96943 0.60895 0.0
O510 O 0.95758 0.05298 0.5843 0.0
O511 O 0.97724 1.03843 0.53158 0.0
H512 H 0.12848 0.08591 0.44978 0.0
H513 H 0.04724 0.14864 0.41462 0.0
H514 H 0.09989 0.19769 0.398 0.0
H515 H 0.18051 0.13455 0.43259 0.0
H516 H 0.91907 0.98051 0.5973 0.0
H517 H 0.95933 0.92857 0.69215 0.0
H518 H 0.89506 0.8927 0.70173 0.0
H519 H 0.85516 0.94447 0.6066 0.0
Gd520 Gd 0.54939 1.04165 0.05915 0.0
Gd521 Gd 0.4781 1.03401 1.02726 0.0
C522 C 0.48937 0.0852 0.09616 0.0
C523 C 0.61562 0.06241 0.08852 0.0
C524 C 0.63953 0.09481 0.10358 0.0
C525 C 0.66748 0.0913 0.12969 0.0
C526 C 0.63402 0.1289 0.09362 0.0
C527 C 0.68324 0.15549 0.13749 0.0
C528 C 0.65609 0.15925 0.11037 0.0
C529 C 0.68917 0.12145 0.14662 0.0
C530 C 0.50518 0.97699 0.08148 0.0
C531 C 0.53532 0.98701 0.99093 0.0
C532 C 0.41209 1.01283 0.99744 0.0
C533 C 0.39355 0.97921 0.97947 0.0
C534 C 0.37308 0.98047 0.94615 0.0
C535 C 0.39923 0.94612 0.9928 0.0
C536 C 0.36685 0.9165 0.93774 0.0
C537 C 0.38562 0.91479 0.97214 0.0
C538 C 0.35987 0.94931 0.92538 0.0
C539 C 0.52392 0.09735 1.00396 0.0
O540 O 0.52535 0.08693 0.08656 0.0
O541 O 0.46407 0.05929 0.08198 0.0
O542 O 0.58513 0.04985 0.10868 0.0
O543 O 0.60977 0.06117 0.05184 0.0
O544 O 0.54129 0.98364 0.0746 0.0
O545 O 0.49414 1.00674 0.07888 0.0
O546 O 0.49974 0.99021 0.99541 0.0
O547 O 0.56219 1.00847 1.00944 0.0
O548 O 0.44128 1.03038 0.97858 0.0
O549 O 0.41799 1.01216 1.03396 0.0
O550 O 0.48861 0.09325 1.01438 0.0
O551 O 0.53402 0.06719 1.00634 0.0
H552 H 0.67195 0.06515 0.13764 0.0
H553 H 0.61229 0.13194 0.0736 0.0
H554 H 0.65115 0.18544 0.10329 0.0
H555 H 0.70998 0.11825 0.16759 0.0
H556 H 0.36863 1.00574 0.9354 0.0
H557 H 0.41525 0.94463 1.01838 0.0
H558 H 0.39118 0.88959 0.98196 0.0
H559 H 0.34531 0.95093 0.89889 0.0
Gd560 Gd 0.51439 0.50954 0.52316 0.0
Gd561 Gd 0.5205 0.57206 0.56897 0.0
C562 C 0.54996 0.50842 0.6098 0.0
C563 C 0.53396 0.45713 0.48577 0.0
C564 C 0.56919 0.44384 0.49037 0.0
C565 C 0.57299 0.41019 0.47642 0.0
C566 C 0.59938 0.46521 0.5098 0.0
C567 C 0.63689 0.4194 0.5017 0.0
C568 C 0.63268 0.45279 0.51615 0.0
C569 C 0.60687 0.39812 0.48181 0.0
C570 C 0.44885 0.5094 0.56394 0.0
C571 C 0.48185 0.57242 0.48338 0.0
C572 C 0.5066 0.62813 0.60416 0.0
C573 C 0.49155 0.6587 0.59033 0.0
C574 C 0.50758 0.67783 0.55812 0.0
C575 C 0.45732 0.66531 0.60604 0.0
C576 C 0.45283 0.70607 0.55485 0.0
C577 C 0.43808 0.68879 0.5884 0.0
C578 C 0.48816 0.7013 0.54035 0.0
C579 C 0.58575 0.57215 0.52637 0.0
O580 O 0.54867 0.49541 0.57432 0.0
O581 O 0.53741 0.53837 0.61637 0.0
O582 O 0.51041 0.45243 0.51491 0.0
O583 O 0.53887 0.48938 0.4725 0.0
O584 O 0.4503 0.49857 0.5287 0.0
O585 O 0.48242 0.51928 0.57606 0.0
O586 O 0.48685 0.58739 0.51791 0.0
O587 O 0.49237 0.54142 0.47729 0.0
O588 O 0.54063 0.62514 0.59236 0.0
O589 O 0.48247 0.59781 0.60307 0.0
O590 O 0.58478 0.58269 0.5617 0.0
O591 O 0.5518 0.56212 0.51561 0.0
H592 H 0.54996 0.39343 0.46138 0.0
H593 H 0.59722 0.49166 0.51996 0.0
H594 H 0.65551 0.46951 0.53152 0.0
H595 H 0.60969 0.37215 0.47058 0.0
H596 H 0.53413 0.67342 0.54556 0.0
H597 H 0.44445 0.65086 0.6308 0.0
H598 H 0.41086 0.69244 0.60007 0.0
H599 H 0.50005 0.71493 0.5148 0.0
Gd600 Gd 1.01373 0.50491 0.06439 0.0
Gd601 Gd 1.01802 0.56911 1.02309 0.0
C602 C 0.08968 0.56789 0.07459 0.0
C603 C 0.03225 0.44732 0.089 0.0
C604 C 0.06979 0.43708 0.08985 0.0
C605 C 0.07829 0.41527 0.11887 0.0
C606 C 0.09788 0.45004 0.06225 0.0
C607 C 0.14241 0.41954 0.09282 0.0
C608 C 0.13387 0.44118 0.06361 0.0
C609 C 0.11436 0.40653 0.12033 0.0
C610 C 0.97811 0.55206 0.10454 0.0
C611 C 0.94048 0.50775 1.01546 0.0
C612 C 1.00267 0.62697 0.99547 0.0
C613 C 0.96699 0.63877 0.98649 0.0
C614 C 0.94149 0.62022 0.95976 0.0
C615 C 0.95755 0.66837 1.00604 0.0
C616 C 0.89843 0.66123 0.9717 0.0
C617 C 0.92345 0.67942 0.99884 0.0
C618 C 0.90754 0.63147 0.95236 0.0
C619 C 0.05352 0.52113 0.98317 0.0
O620 O 0.07473 0.53348 0.07692 0.0
O621 O 0.07155 0.58908 0.05604 0.0
O622 O 0.02762 0.47372 0.11157 0.0
O623 O 1.0188 0.44989 0.05509 0.0
O624 O 0.96643 0.51763 0.10319 0.0
O625 O 1.00909 0.55949 0.08542 0.0
O626 O 0.9562 0.54193 1.01251 0.0
O627 O 0.9583 0.48607 1.03374 0.0
O628 O 1.01226 0.6016 0.97421 0.0
O629 O 1.00831 0.62295 1.03161 0.0
O630 O 0.06602 0.55539 0.98547 0.0
O631 O 0.02249 0.51443 1.00221 0.0
H632 H 0.05713 0.40519 0.14048 0.0
H633 H 0.09205 0.46716 0.0397 0.0
H634 H 0.15511 0.45138 0.04211 0.0
H635 H 0.1205 0.3897 0.143 0.0
H636 H 0.94769 0.59706 0.94453 0.0
H637 H 0.97658 0.68291 1.02697 0.0
H638 H 0.91681 0.70245 1.01399 0.0
H639 H 0.88849 0.61716 0.93131 0.0
C640 C 0.21512 0.22635 0.34911 0.0
C641 C 0.23906 0.24766 0.37595 0.0
C642 C 0.19775 0.22046 0.4283 0.0
C643 C 0.17568 0.19757 0.40137 0.0
N644 N 0.16352 0.17788 0.33608 0.0
N645 N 0.25557 0.26382 0.44088 0.0
C646 C 0.18439 0.20038 0.3619 0.0
C647 C 0.23094 0.24455 0.41558 0.0
N648 N 0.22112 0.22975 0.31071 0.0
N649 N 0.18628 0.2197 0.46574 0.0
H650 H 0.2795 0.28224 0.4322 0.0
H651 H 0.25368 0.2603 0.47024 0.0
H652 H 0.16217 0.2023 0.4758 0.0
H653 H 0.19886 0.23778 0.4864 0.0
H654 H 0.24266 0.24825 0.29782 0.0
H655 H 0.24266 0.24825 0.29782 0.0
H656 H 0.16929 0.17924 0.30679 0.0
H657 H 0.14105 0.15746 0.34376 0.0
C658 C 0.36986 0.86163 0.8495 0.0
C659 C 0.33053 0.84712 0.84595 0.0
C660 C 0.31781 0.86767 0.91041 0.0
C661 C 0.35636 0.88495 0.91241 0.0
N662 N 0.42113 0.88893 0.89083 0.0
N663 N 0.26946 0.82676 0.87559 0.0
C664 C 0.38316 0.8783 0.8844 0.0
C665 C 0.30534 0.84668 0.8776 0.0
N666 N 0.39387 0.86214 0.81865 0.0
N667 N 0.29302 0.87303 0.93901 0.0
H668 H 0.26015 0.81122 0.8516 0.0
H669 H 0.25019 0.82324 0.89841 0.0
H670 H 0.30207 0.88701 0.96404 0.0
H671 H 0.26371 0.86465 0.93764 0.0
H672 H 0.42166 0.87645 0.81799 0.0
H673 H 0.38548 0.84977 0.79268 0.0
H674 H 0.44225 0.88202 0.87307 0.0
H675 H 0.43157 0.90186 0.91594 0.0
C676 C 0.60924 0.45334 0.6702 0.0
C677 C 0.59085 0.45197 0.70669 0.0
C678 C 0.5427 0.48252 0.67817 0.0
C679 C 0.5639 0.48818 0.643 0.0
N680 N 0.62132 0.48198 0.60876 0.0
N681 N 0.54188 0.46964 0.74608 0.0
C682 C 0.59805 0.47405 0.63989 0.0
C683 C 0.55804 0.46774 0.71072 0.0
N684 N 0.63722 0.43406 0.6641 0.0
N685 N 0.50674 0.48944 0.68017 0.0
H686 H 0.55143 0.4585 0.7701 0.0
H687 H 0.52098 0.48454 0.75212 0.0
H688 H 0.49373 0.4988 0.65719 0.0
H689 H 0.48825 0.48228 0.70322 0.0
H690 H 0.64891 0.43031 0.63727 0.0
H691 H 0.64614 0.41887 0.68531 0.0
H692 H 0.64859 0.47643 0.60662 0.0
H693 H 0.61484 0.49715 0.58647 0.0
C694 C 0.92763 0.61684 0.16416 0.0
C695 C 0.94224 0.61453 0.20141 0.0
C696 C 0.98098 0.5718 0.17509 0.0
C697 C 0.96722 0.57498 0.13764 0.0
N698 N 0.93144 0.60447 0.09571 0.0
N699 N 0.98631 0.59277 0.24129 0.0
C700 C 0.94169 0.59869 0.13206 0.0
C701 C 0.96994 0.59281 0.20643 0.0
N702 N 0.89959 0.636 0.15955 0.0
N703 N 1.00427 0.54803 0.18089 0.0
H704 H 0.97784 0.60621 0.26507 0.0
H705 H 1.00973 0.58126 0.24639 0.0
H706 H 1.01483 0.53404 0.15871 0.0
H707 H 1.01177 0.5407 0.20767 0.0
H708 H 0.88443 0.63593 0.13458 0.0
H709 H 0.88971 0.65052 0.18172 0.0
H710 H 0.91643 0.62406 0.08848 0.0
H711 H 0.94037 0.59117 0.07203 0.0
C712 C 0.42926 0.15165 0.13293 0.0
C713 C 0.45532 0.17431 0.15653 0.0
C714 C 0.50059 0.13429 0.14658 0.0
C715 C 0.47705 0.11522 0.11787 0.0
N716 N 0.42306 0.11495 0.0765 0.0
N717 N 0.51911 0.19072 0.18015 0.0
C718 C 0.44246 0.12633 0.10896 0.0
C719 C 0.49207 0.16673 0.16165 0.0
N720 N 0.39155 0.1534 0.13396 0.0
N721 N 0.52991 0.12078 0.16094 0.0
H722 H 0.5141 0.21507 0.19084 0.0
H723 H 0.5474 0.18793 0.18142 0.0
H724 H 0.53524 0.09572 0.15325 0.0
H725 H 0.54592 0.13245 0.18392 0.0
H726 H 0.37112 0.13495 0.11969 0.0
H727 H 0.38007 0.17043 0.15235 0.0
H728 H 0.39975 0.1253 0.06794 0.0
H729 H 0.43255 0.0992 0.05548 0.0
C730 C 0.13656 0.97884 0.61671 0.0
C731 C 0.17402 0.98483 0.60137 0.0
C732 C 0.1554 1.02248 0.55231 0.0
C733 C 0.1193 1.02024 0.57081 0.0
N734 N 0.08038 1.00335 0.62714 0.0
N735 N 0.22146 1.01858 0.55973 0.0
C736 C 0.11135 1.00058 0.60498 0.0
C737 C 0.18426 1.00878 0.57088 0.0
N738 N 0.12424 0.95132 0.64112 0.0
N739 N 0.16159 1.03494 0.516 0.0
H740 H 0.24335 1.0092 0.57295 0.0
H741 H 0.23079 1.03862 0.54001 0.0
H742 H 0.14052 1.04193 0.49943 0.0
H743 H 0.18645 1.03398 0.50047 0.0
H744 H 0.09591 0.94386 0.64985 0.0
H745 H 0.14115 0.93352 0.64936 0.0
H746 H 0.07566 0.99229 0.65419 0.0
H747 H 0.06174 1.01983 0.62039 0.0
C748 C 0.83427 0.46514 1.0011 0.0
C749 C 0.83306 0.45846 0.96093 0.0
C750 C 0.89947 0.49188 0.95627 0.0
C751 C 0.90257 0.49316 0.99679 0.0
N752 N 0.8723 0.47903 0.05799 0.0
N753 N 0.868 0.46099 0.90122 0.0
C754 C 0.86976 0.47905 1.0192 0.0
C755 C 0.86654 0.47093 0.93874 0.0
N756 N 0.80108 0.45966 1.02188 0.0
N757 N 0.92783 0.51083 0.93415 0.0
H758 H 0.84537 0.44483 0.88747 0.0
H759 H 0.89291 0.4658 0.88476 0.0
H760 H 0.95243 0.52621 0.94532 0.0
H761 H 0.92532 0.51396 0.90492 0.0
H762 H 0.79932 0.46717 0.05044 0.0
H763 H 0.77462 0.45107 1.00954 0.0
H764 H 0.85101 0.46527 0.07573 0.0
H765 H 0.89666 0.49117 0.07237 0.0
C766 C 0.65254 0.61697 0.44427 0.0
C767 C 0.68744 0.60682 0.45302 0.0
C768 C 0.65627 0.57512 0.50974 0.0
C769 C 0.62048 0.58353 0.5001 0.0
N770 N 0.58471 0.61073 0.455 0.0
N771 N 0.72105 0.57135 0.49052 0.0
C772 C 0.61867 0.60369 0.46628 0.0
C773 C 0.68874 0.58438 0.48466 0.0
N774 N 0.65201 0.64055 0.41546 0.0
N775 N 0.65973 0.55895 0.54357 0.0
H776 H 0.74568 0.57858 0.4739 0.0
H777 H 0.72263 0.55128 0.50977 0.0
H778 H 0.637 0.55085 0.56226 0.0
H779 H 0.68559 0.55588 0.55463 0.0
H780 H 0.62939 0.65327 0.41066 0.0
H781 H 0.67534 0.64934 0.3975 0.0
H782 H 0.58015 0.61973 0.42796 0.0
H783 H 0.56035 0.60655 0.47195 0.0
C784 C 0.24755 0.42423 0.11263 0.0
C785 C 0.24909 0.38746 0.11056 0.0
C786 C 0.18431 0.37434 0.08592 0.0
C787 C 0.18054 0.40985 0.09469 0.0
N788 N 0.20783 0.46881 0.11805 0.0
N789 N 0.21799 0.3266 0.09772 0.0
C790 C 0.21215 0.43509 0.10793 0.0
C791 C 0.21744 0.36227 0.09723 0.0
N792 N 0.28004 0.44861 0.11932 0.0
N793 N 0.1562 0.35223 0.06662 0.0
H794 H 0.2417 0.31646 0.10538 0.0
H795 H 0.19407 0.30686 0.09302 0.0
H796 H 0.13158 0.36034 0.05793 0.0
H797 H 0.15888 0.32717 0.05608 0.0
H798 H 0.28172 0.47606 0.1179 0.0
H799 H 0.30626 0.44113 0.12275 0.0
H800 H 0.22853 0.48708 0.13206 0.0
H801 H 0.18246 0.47787 0.11486 0.0
C802 C 0.57815 0.16214 0.92663 0.0
C803 C 0.57396 0.19611 0.94173 0.0
C804 C 0.54395 0.16539 0.9997 0.0
C805 C 0.54437 0.13098 0.9831 0.0
N806 N 0.55709 0.09761 0.92687 0.0
N807 N 0.54742 0.229 0.99091 0.0
C808 C 0.56049 0.12967 0.94559 0.0
C809 C 0.55541 0.19731 0.97782 0.0
N810 N 0.59974 0.16082 0.89432 0.0
N811 N 0.53388 0.16787 1.03725 0.0
H812 H 0.5555 0.25285 0.97621 0.0
H813 H 0.52995 0.23118 1.01454 0.0
H814 H 0.52599 0.14568 0.0544 0.0
H815 H 0.53703 0.19187 0.05245 0.0
H816 H 0.60775 0.13758 0.88404 0.0
H817 H 0.61237 0.18363 0.87951 0.0
H818 H 0.56423 0.09512 0.89816 0.0
H819 H 0.54393 0.07355 0.93887 0.0
C820 C 0.96665 0.89606 0.42507 0.0
C821 C 0.94292 0.86792 0.4454 0.0
C822 C 0.94425 0.91003 0.49992 0.0
C823 C 0.973 0.93617 0.48236 0.0
N824 N 1.01923 0.94615 0.43011 0.0
N825 N 0.92213 0.84684 0.50845 0.0
C826 C 0.98651 0.92697 0.44543 0.0
C827 C 0.93603 0.87449 0.48482 0.0
N828 N 0.96924 0.89456 0.38626 0.0
N829 N 0.92245 0.91912 0.52939 0.0
H830 H 0.91844 0.82025 0.49944 0.0
H831 H 0.91892 0.85045 0.5378 0.0
H832 H 0.92254 0.94551 0.53734 0.0
H833 H 0.90001 0.90098 0.54145 0.0
H834 H 0.98369 0.91585 0.37023 0.0
H835 H 0.95343 0.87409 0.37004 0.0
H836 H 0.03115 0.93866 0.40461 0.0
H837 H 0.03717 0.96615 0.44501 0.0
C838 C 0.40569 0.78264 0.53123 0.0
C839 C 0.3689 0.76246 0.5262 0.0
C840 C 0.39482 0.70836 0.51843 0.0
C841 C 0.42915 0.72701 0.53429 0.0
N842 N 0.46996 0.78244 0.55189 0.0
N843 N 0.32768 0.70764 0.50914 0.0
C844 C 0.43602 0.76467 0.53825 0.0
C845 C 0.3634 0.72582 0.51679 0.0
N846 N 0.40972 0.81881 0.53157 0.0
N847 N 0.39229 0.67381 0.50645 0.0
H848 H 0.30485 0.72077 0.50683 0.0
H849 H 0.32059 0.68003 0.50607 0.0
H850 H 0.41537 0.66088 0.50761 0.0
H851 H 0.36885 0.6592 0.49253 0.0
H852 H 0.43558 0.83659 0.5337 0.0
H853 H 0.43558 0.83659 0.5337 0.0
H854 H 0.4753 0.80921 0.56003 0.0
H855 H 0.49272 0.76983 0.55661 0.0
C856 C 0.77942 0.84599 0.65309 0.0
C857 C 0.76202 0.85561 0.6873 0.0
C858 C 0.81111 0.90949 0.6932 0.0
C859 C 0.83162 0.89686 0.6628 0.0
N860 N 0.83676 0.85313 0.61363 0.0
N861 N 0.76389 0.89419 0.7431 0.0
C862 C 0.81599 0.86529 0.64229 0.0
C863 C 0.77821 0.88703 0.70798 0.0
N864 N 0.76083 0.81844 0.63117 0.0
N865 N 0.82313 0.94306 0.70794 0.0
H866 H 0.74007 0.87847 0.75575 0.0
H867 H 0.77756 0.9142 0.76132 0.0
H868 H 0.84747 0.96022 0.69802 0.0
H869 H 0.80705 0.95512 0.72737 0.0
H870 H 0.77033 0.81181 0.60426 0.0
H871 H 0.734 0.80401 0.6387 0.0
H872 H 0.82882 0.82837 0.60024 0.0
H873 H 0.86329 0.86707 0.60459 0.0
C874 C 0.76492 0.22456 0.17506 0.0
C875 C 0.75041 0.22908 0.21227 0.0
C876 C 0.68778 0.1961 0.19389 0.0
C877 C 0.70401 0.18644 0.15912 0.0
N878 N 0.75695 0.19154 0.11501 0.0
N879 N 0.69882 0.21767 0.25865 0.0
C880 C 0.7422 0.20116 0.14895 0.0
C881 C 0.71182 0.21504 0.22196 0.0
N882 N 0.80031 0.24264 0.16496 0.0
N883 N 0.64945 0.18659 0.20025 0.0
H884 H 0.71525 0.23139 0.28033 0.0
H885 H 0.67252 0.20407 0.2685 0.0
H886 H 0.6311 0.17187 0.1806 0.0
H887 H 0.63532 0.19597 0.22332 0.0
H888 H 0.81156 0.24293 0.13737 0.0
H889 H 0.81743 0.25977 0.18381 0.0
H890 H 0.78565 0.19787 0.10754 0.0
H891 H 0.74035 0.17584 0.09464 0.0
C892 C 0.43455 0.58715 0.38694 0.0
C893 C 0.43578 0.62476 0.38602 0.0
C894 C 0.47226 0.62888 0.44616 0.0
C895 C 0.46511 0.59089 0.45044 0.0
N896 N 0.42846 0.53517 0.42681 0.0
N897 N 0.44901 0.67986 0.42243 0.0
C898 C 0.44314 0.57044 0.42131 0.0
C899 C 0.45272 0.64516 0.41783 0.0
N900 N 0.42658 0.56709 0.3545 0.0
N901 N 0.49943 0.64995 0.4673 0.0
H902 H 0.43332 0.69231 0.40409 0.0
H903 H 0.45795 0.69482 0.44687 0.0
H904 H 0.51581 0.63997 0.48695 0.0
H905 H 0.50882 0.67693 0.46158 0.0
H906 H 0.42843 0.54021 0.35284 0.0
H907 H 0.42284 0.57827 0.32827 0.0
H908 H 0.40985 0.51994 0.40773 0.0
H909 H 0.43057 0.52246 0.4525 0.0
C910 C 0.11866 0.47275 0.91839 0.0
C911 C 0.09422 0.458 0.88821 0.0
C912 C 0.0413 0.47805 0.9241 0.0
C913 C 0.06678 0.49738 0.95152 0.0
N914 N 0.1323 0.51657 0.96963 0.0
N915 N 0.03346 0.45523 0.85908 0.0
C916 C 0.10621 0.49585 0.94689 0.0
C917 C 0.05588 0.46303 0.8903 0.0
N918 N 0.15337 0.46339 0.92119 0.0
N919 N 1.00295 0.47331 0.92985 0.0
H920 H 0.04322 0.44591 0.83337 0.0
H921 H 1.00674 0.46192 0.85726 0.0
H922 H 0.99026 0.48283 0.9536 0.0
H923 H 0.98359 0.45638 0.91286 0.0
H924 H 0.17078 0.47002 0.94467 0.0
H925 H 0.163 0.44574 0.90212 0.0
H926 H 0.16151 0.51968 0.96491 0.0
H927 H 0.12488 0.53294 0.99131 0.0
C928 C 0.53711 0.89467 0.94677 0.0
C929 C 0.57467 0.90109 0.93181 0.0
C930 C 0.57964 0.96496 0.94446 0.0
C931 C 0.54556 0.95772 0.96665 0.0
N932 N 0.49275 0.9135 0.9914 0.0
N933 N 0.6335 0.94217 0.91892 0.0
C934 C 0.52404 0.9221 0.968 0.0
C935 C 0.59641 0.93624 0.9311 0.0
N936 N 0.51386 0.86237 0.94052 0.0
N937 N 0.59527 0.99927 0.93494 0.0
H938 H 0.64695 0.9219 0.90876 0.0
H939 H 0.65176 0.96677 0.92185 0.0
H940 H 0.58246 1.02082 0.94225 0.0
H941 H 0.61825 1.00578 0.91604 0.0
H942 H 0.48484 0.85745 0.94689 0.0
H943 H 0.52279 0.8416 0.92544 0.0
H944 H 0.47898 0.88733 0.99625 0.0
H945 H 0.48263 0.93144 1.00949 0.0
C946 C 0.89183 0.08688 0.47543 0.0
C947 C 0.90132 0.12439 0.48133 0.0
C948 C 0.93528 0.1152 0.53883 0.0
C949 C 0.93289 0.07884 0.52842 0.0
N950 N 0.9073 1.02907 0.48715 0.0
N951 N 0.93979 0.17434 0.51423 0.0
C952 C 0.91088 0.06439 0.4966 0.0
C953 C 0.92506 0.13861 0.51192 0.0
N954 N 0.86328 0.07265 0.45126 0.0
N955 N 0.94704 0.12777 0.57414 0.0
H956 H 0.93606 0.19224 0.49319 0.0
H957 H 0.95924 0.18552 0.5348 0.0
H958 H 0.95558 0.11226 0.59508 0.0
H959 H 0.94512 0.15336 0.58373 0.0
H960 H 0.85268 0.04538 0.44859 0.0
H961 H 0.84747 0.08817 0.43667 0.0
H962 H 0.89607 1.01822 0.46144 0.0
H963 H 0.91649 1.01072 0.50461 0.0
C964 C 0.1932 0.58731 0.11264 0.0
C965 C 0.19315 0.61902 0.13462 0.0
C966 C 0.12427 0.61275 0.12275 0.0
C967 C 0.12525 0.58384 0.09672 0.0
N968 N 0.16113 0.54301 0.0674 0.0
N969 N 0.1587 0.66304 0.15907 0.0
C970 C 0.15979 0.57067 0.09224 0.0
C971 C 0.15865 0.63195 0.13917 0.0
N972 N 0.22535 0.57304 0.11131 0.0
N973 N 0.08997 0.62051 0.13385 0.0
H974 H 0.18217 0.67642 0.17402 0.0
H975 H 0.13622 0.67668 0.15902 0.0
H976 H 0.0641 0.60615 0.12425 0.0
H977 H 0.08668 0.6385 0.1557 0.0
H978 H 0.22675 0.5482 0.09942 0.0
H979 H 0.25052 0.58516 0.12433 0.0
H980 H 0.18595 0.53461 0.05889 0.0
H981 H 0.13729 0.5291 0.05365 0.0
C982 C 0.34728 0.49737 0.60682 0.0
C983 C 0.34734 0.47035 0.63431 0.0
C984 C 0.41348 0.46782 0.61467 0.0
C985 C 0.41444 0.49674 0.58932 0.0
N986 N 0.38376 0.54233 0.5652 0.0
N987 N 0.38308 0.43456 0.66908 0.0
C988 C 0.3817 0.51241 0.58657 0.0
C989 C 0.38125 0.45701 0.63955 0.0
N990 N 0.31391 0.50777 0.59898 0.0
N991 N 0.44252 0.44931 0.61369 0.0
H992 H 0.36022 0.4259 0.68766 0.0
H993 H 0.40816 0.42711 0.67726 0.0
H994 H 0.46625 0.45578 0.59571 0.0
H995 H 0.44164 0.42564 0.62826 0.0
H996 H 0.31075 0.52428 0.57645 0.0
H997 H 0.2884 0.49763 0.6132 0.0
H998 H 0.36259 0.55751 0.56515 0.0
H999 H 0.40812 0.55372 0.54976 0.0
C1000 C 0.83246 0.71732 0.93029 0.0
C1001 C 0.79664 0.69502 0.93737 0.0
C1002 C 0.82731 0.65459 0.97379 0.0
C1003 C 0.86334 0.67421 0.9621 0.0
N1004 N 0.90069 0.72213 0.92586 0.0
N1005 N 0.75911 0.64182 0.96415 0.0
C1006 C 0.8661 0.70528 0.9398 0.0
C1007 C 0.79376 0.66358 0.95895 0.0
N1008 N 0.83426 0.75004 0.91433 0.0
N1009 N 0.82529 0.62782 0.99956 0.0
H1010 H 0.73392 0.64851 0.95499 0.0
H1011 H 0.75548 0.61643 0.97566 0.0
H1012 H 0.84936 0.62069 1.01097 0.0
H1013 H 0.79998 0.61466 1.01201 0.0
H1014 H 0.85918 0.76911 0.91221 0.0
H1015 H 0.81024 0.75949 0.90621 0.0
H1016 H 0.90405 0.74229 0.90577 0.0
H1017 H 0.9261 0.71413 0.93191 0.0
C1018 C 0.44082 0.90921 0.14985 0.0
C1019 C 0.45612 0.8777 0.14447 0.0
C1020 C 0.50066 0.90982 0.09577 0.0
C1021 C 0.48499 0.94172 0.10046 0.0
N1022 N 0.43075 0.96526 0.12428 0.0
N1023 N 0.49514 0.84606 0.10607 0.0
C1024 C 0.45234 0.93952 0.12525 0.0
C1025 C 0.48457 0.87764 0.11578 0.0
N1026 N 0.41558 0.9106 0.17925 0.0
N1027 N 0.53105 0.90957 0.07172 0.0
H1028 H 0.4848 0.82226 0.1202 0.0
H1029 H 0.51161 0.84256 0.08205 0.0
H1030 H 0.53938 0.92806 0.05035 0.0
H1031 H 0.54833 0.89063 0.07293 0.0
H1032 H 0.40675 0.93393 0.18798 0.0
H1033 H 0.40603 0.88905 0.19713 0.0
H1034 H 0.4049 0.96337 0.13888 0.0
H1035 H 0.43556 0.98614 0.10519 0.0
C1036 C 0.10527 0.17266 0.6557 0.0
C1037 C 0.0935 0.20496 0.64679 0.0
C1038 C 0.05144 0.17206 0.59725 0.0
C1039 C 0.06319 0.13916 0.60592 0.0
N1040 N 0.11053 0.11246 0.63644 0.0
N1041 N 0.05049 0.23417 0.61385 0.0
C1042 C 0.09224 0.14057 0.63373 0.0
C1043 C 0.06532 0.20419 0.61884 0.0
N1044 N 0.12861 0.1725 0.68598 0.0
N1045 N 0.02863 0.17373 0.56692 0.0
H1046 H 0.06039 0.25818 0.62822 0.0
H1047 H 0.02622 0.23463 0.59824 0.0
H1048 H 1.01478 0.15182 0.55164 0.0
H1049 H 0.02533 0.1976 0.55481 0.0
H1050 H 0.13485 0.14935 0.69735 0.0
H1051 H 0.13891 0.19538 0.70214 0.0
H1052 H 0.13436 0.11296 0.65302 0.0
H1053 H 0.10527 0.09012 0.61855 0.0
C1054 C 0.73973 0.40792 0.49303 0.0
C1055 C 0.73494 0.3718 0.50375 0.0
C1056 C 0.67097 0.37409 0.52744 0.0
C1057 C 0.67256 0.40622 0.5074 0.0
N1058 N 0.70866 0.45346 0.46889 0.0
N1059 N 0.69504 0.31947 0.53089 0.0
C1060 C 0.70726 0.42366 0.4903 0.0
C1061 C 0.70063 0.35474 0.52181 0.0
N1062 N 0.7752 0.4264 0.48397 0.0
N1063 N 0.64103 0.36206 0.55153 0.0
H1064 H 0.71587 0.30406 0.52742 0.0
H1065 H 0.66877 0.30487 0.53966 0.0
H1066 H 0.61917 0.37615 0.55657 0.0
H1067 H 0.64002 0.34034 0.56935 0.0
H1068 H 0.781 0.45368 0.47869 0.0
H1069 H 0.79926 0.41489 0.48571 0.0
H1070 H 0.73242 0.46483 0.45266 0.0
H1071 H 0.68521 0.46517 0.4645 0.0
loop_
_geom_bond_atom_site_label_1
_geom_bond_atom_site_label_2
_geom_bond_distance
_geom_bond_site_symmetry_2
_ccdc_geom_bond_type
C0 C1 1.391 . S
C0 C4 1.391 . S
C0 H42 0.948 . S
C1 C0 1.391 . S
C1 C2 1.391 . S
C2 C1 1.391 . S
C2 H58 0.947 . S
C2 C59 1.392 . S
C3 C4 1.391 . S
C3 C7 1.397 . S
C3 C59 1.419 . S
C4 C0 1.391 . S
C4 C3 1.391 . S
C4 C5 1.399 . S
C5 C4 1.399 . S
C5 C8 1.396 . S
C5 C17 1.453 . S
C5 C18 1.684 . S
H6 C30 0.948 . S
C7 C3 1.397 . S
C7 C8 1.394 . S
C7 C26 1.723 . S
C8 C5 1.396 . S
C8 C7 1.394 . S
C8 C38 1.723 . S
H9 C32 0.947 . S
H10 C33 0.948 . S
H11 C39 0.982 . S
H12 C40 0.979 . S
H13 C40 0.980 . S
H14 C40 0.983 . S
H15 C39 0.979 . S
H16 C39 0.977 . S
C17 C5 1.453 . S
C17 H46 0.982 . S
C17 H47 0.979 . S
C17 H48 0.977 . S
C18 C5 1.684 . S
C18 H43 0.979 . S
C18 H44 0.980 . S
C18 H45 0.983 . S
C19 C20 1.391 . S
C19 C24 1.391 . S
C19 H49 0.948 . S
C20 C19 1.391 . S
C20 C21 1.391 . S
C21 C20 1.391 . S
C21 C22 1.392 . S
C21 H50 0.947 . S
C22 C21 1.392 . S
C22 C23 1.419 . S
C22 H51 0.948 . S
C23 C22 1.419 . S
C23 C24 1.391 . S
C23 C27 1.397 . S
C24 C19 1.391 . S
C24 C23 1.391 . S
C24 C25 1.399 . S
C25 C24 1.399 . S
C25 C26 1.396 . S
C25 C28 1.453 . S
C25 C29 1.684 . S
C26 C7 1.723 . S
C26 C25 1.396 . S
C26 C27 1.394 . S
C27 C23 1.397 . S
C27 C26 1.394 . S
C27 C37 1.723 . S
C28 C25 1.453 . S
C28 H52 0.982 . S
C28 H53 0.979 . S
C28 H54 0.977 . S
C29 C25 1.684 . S
C29 H55 0.979 . S
C29 H56 0.980 . S
C29 H57 0.983 . S
C30 H6 0.948 . S
C30 C31 1.391 . S
C30 C35 1.391 . S
C31 C30 1.391 . S
C31 C32 1.391 . S
C32 H9 0.947 . S
C32 C31 1.391 . S
C32 C33 1.392 . S
C33 H10 0.948 . S
C33 C32 1.392 . S
C33 C34 1.419 . S
C34 C33 1.419 . S
C34 C35 1.391 . S
C34 C38 1.397 . S
C35 C30 1.391 . S
C35 C34 1.391 . S
C35 C36 1.399 . S
C36 C35 1.399 . S
C36 C37 1.396 . S
C36 C39 1.453 . S
C36 C40 1.684 . S
C37 C27 1.723 . S
C37 C36 1.396 . S
C37 C38 1.394 . S
C38 C8 1.723 . S
C38 C34 1.397 . S
C38 C37 1.394 . S
C39 H11 0.982 . S
C39 H15 0.979 . S
C39 H16 0.977 . S
C39 C36 1.453 . S
C40 H12 0.979 . S
C40 H13 0.980 . S
C40 H14 0.983 . S
C40 C36 1.684 . S
H41 C59 0.948 . S
H42 C0 0.948 . S
H43 C18 0.979 . S
H44 C18 0.980 . S
H45 C18 0.983 . S
H46 C17 0.982 . S
H47 C17 0.979 . S
H48 C17 0.977 . S
H49 C19 0.948 . S
H50 C21 0.947 . S
H51 C22 0.948 . S
H52 C28 0.982 . S
H53 C28 0.979 . S
H54 C28 0.977 . S
H55 C29 0.979 . S
H56 C29 0.980 . S
H57 C29 0.983 . S
H58 C2 0.947 . S
C59 C2 1.392 . S
C59 C3 1.419 . S
C59 H41 0.948 . S
C60 C61 1.391 . S
C60 C64 1.391 . S
C60 H102 0.948 . S
C61 C60 1.391 . S
C61 C62 1.391 . S
C62 C61 1.391 . S
C62 H118 0.947 . S
C62 C119 1.392 . S
C63 C64 1.391 . S
C63 C67 1.397 . S
C63 C119 1.419 . S
C64 C60 1.391 . S
C64 C63 1.391 . S
C64 C65 1.399 . S
C65 C64 1.399 . S
C65 C68 1.396 . S
C65 C77 1.453 . S
C65 C78 1.684 . S
H66 C90 0.948 . S
C67 C63 1.397 . S
C67 C68 1.394 . S
C67 C86 1.723 . S
C68 C65 1.396 . S
C68 C67 1.394 . S
C68 C98 1.723 . S
H69 C92 0.947 . S
H70 C93 0.948 . S
H71 C99 0.982 . S
H72 C100 0.979 . S
H73 C100 0.980 . S
H74 C100 0.983 . S
H75 C99 0.979 . S
H76 C99 0.977 . S
C77 C65 1.453 . S
C77 H106 0.982 . S
C77 H107 0.979 . S
C77 H108 0.977 . S
C78 C65 1.684 . S
C78 H103 0.979 . S
C78 H104 0.980 . S
C78 H105 0.983 . S
C79 C80 1.391 . S
C79 C84 1.391 . S
C79 H109 0.948 . S
C80 C79 1.391 . S
C80 C81 1.391 . S
C81 C80 1.391 . S
C81 C82 1.392 . S
C81 H110 0.947 . S
C82 C81 1.392 . S
C82 C83 1.419 . S
C82 H111 0.948 . S
C83 C82 1.419 . S
C83 C84 1.391 . S
C83 C87 1.397 . S
C84 C79 1.391 . S
C84 C83 1.391 . S
C84 C85 1.399 . S
C85 C84 1.399 . S
C85 C86 1.396 . S
C85 C88 1.453 . S
C85 C89 1.684 . S
C86 C67 1.723 . S
C86 C85 1.396 . S
C86 C87 1.394 . S
C87 C83 1.397 . S
C87 C86 1.394 . S
C87 C97 1.723 . S
C88 C85 1.453 . S
C88 H112 0.982 . S
C88 H113 0.979 . S
C88 H114 0.977 . S
C89 C85 1.684 . S
C89 H115 0.979 . S
C89 H116 0.980 . S
C89 H117 0.983 . S
C90 H66 0.948 . S
C90 C91 1.391 . S
C90 C95 1.391 . S
C91 C90 1.391 . S
C91 C92 1.391 . S
C92 H69 0.947 . S
C92 C91 1.391 . S
C92 C93 1.392 . S
C93 H70 0.948 . S
C93 C92 1.392 . S
C93 C94 1.419 . S
C94 C93 1.419 . S
C94 C95 1.391 . S
C94 C98 1.397 . S
C95 C90 1.391 . S
C95 C94 1.391 . S
C95 C96 1.399 . S
C96 C95 1.399 . S
C96 C97 1.396 . S
C96 C99 1.453 . S
C96 C100 1.684 . S
C97 C87 1.723 . S
C97 C96 1.396 . S
C97 C98 1.394 . S
C98 C68 1.723 . S
C98 C94 1.397 . S
C98 C97 1.394 . S
C99 H71 0.982 . S
C99 H75 0.979 . S
C99 H76 0.977 . S
C99 C96 1.453 . S
C100 H72 0.979 . S
C100 H73 0.980 . S
C100 H74 0.983 . S
C100 C96 1.684 . S
H101 C119 0.948 . S
H102 C60 0.948 . S
H103 C78 0.979 . S
H104 C78 0.980 . S
H105 C78 0.983 . S
H106 C77 0.982 . S
H107 C77 0.979 . S
H108 C77 0.977 . S
H109 C79 0.948 . S
H110 C81 0.947 . S
H111 C82 0.948 . S
H112 C88 0.982 . S
H113 C88 0.979 . S
H114 C88 0.977 . S
H115 C89 0.979 . S
H116 C89 0.980 . S
H117 C89 0.983 . S
H118 C62 0.947 . S
C119 C62 1.392 . S
C119 C63 1.419 . S
C119 H101 0.948 . S
C120 C121 1.391 . S
C120 C124 1.391 . S
C120 H162 0.948 . S
C121 C120 1.391 . S
C121 C122 1.391 . S
C122 C121 1.391 . S
C122 H178 0.947 . S
C122 C179 1.392 . S
C123 C124 1.391 . S
C123 C127 1.397 . S
C123 C179 1.419 . S
C124 C120 1.391 . S
C124 C123 1.391 . S
C124 C125 1.399 . S
C125 C124 1.399 . S
C125 C128 1.396 . S
C125 C137 1.453 . S
C125 C138 1.684 . S
H126 C150 0.948 . S
C127 C123 1.397 . S
C127 C128 1.394 . S
C127 C146 1.723 . S
C128 C125 1.396 . S
C128 C127 1.394 . S
C128 C158 1.723 . S
H129 C152 0.947 . S
H130 C153 0.948 . S
H131 C159 0.982 . S
H132 C160 0.979 . S
H133 C160 0.980 . S
H134 C160 0.983 . S
H135 C159 0.979 . S
H136 C159 0.977 . S
C137 C125 1.453 . S
C137 H166 0.982 . S
C137 H167 0.979 . S
C137 H168 0.977 . S
C138 C125 1.684 . S
C138 H163 0.979 . S
C138 H164 0.980 . S
C138 H165 0.983 . S
C139 C140 1.391 . S
C139 C144 1.391 . S
C139 H169 0.948 . S
C140 C139 1.391 . S
C140 C141 1.391 . S
C141 C140 1.391 . S
C141 C142 1.392 . S
C141 H170 0.947 . S
C142 C141 1.392 . S
C142 C143 1.419 . S
C142 H171 0.948 . S
C143 C142 1.419 . S
C143 C144 1.391 . S
C143 C147 1.397 . S
C144 C139 1.391 . S
C144 C143 1.391 . S
C144 C145 1.399 . S
C145 C144 1.399 . S
C145 C146 1.396 . S
C145 C148 1.453 . S
C145 C149 1.684 . S
C146 C127 1.723 . S
C146 C145 1.396 . S
C146 C147 1.394 . S
C147 C143 1.397 . S
C147 C146 1.394 . S
C147 C157 1.723 . S
C148 C145 1.453 . S
C148 H172 0.982 . S
C148 H173 0.979 . S
C148 H174 0.977 . S
C149 C145 1.684 . S
C149 H175 0.979 . S
C149 H176 0.980 . S
C149 H177 0.983 . S
C150 H126 0.948 . S
C150 C151 1.391 . S
C150 C155 1.391 . S
C151 C150 1.391 . S
C151 C152 1.391 . S
C152 H129 0.947 . S
C152 C151 1.391 . S
C152 C153 1.392 . S
C153 H130 0.948 . S
C153 C152 1.392 . S
C153 C154 1.419 . S
C154 C153 1.419 . S
C154 C155 1.391 . S
C154 C158 1.397 . S
C155 C150 1.391 . S
C155 C154 1.391 . S
C155 C156 1.399 . S
C156 C155 1.399 . S
C156 C157 1.396 . S
C156 C159 1.453 . S
C156 C160 1.684 . S
C157 C147 1.723 . S
C157 C156 1.396 . S
C157 C158 1.394 . S
C158 C128 1.723 . S
C158 C154 1.397 . S
C158 C157 1.394 . S
C159 H131 0.982 . S
C159 H135 0.979 . S
C159 H136 0.977 . S
C159 C156 1.453 . S
C160 H132 0.979 . S
C160 H133 0.980 . S
C160 H134 0.983 . S
C160 C156 1.684 . S
H161 C179 0.948 . S
H162 C120 0.948 . S
H163 C138 0.979 . S
H164 C138 0.980 . S
H165 C138 0.983 . S
H166 C137 0.982 . S
H167 C137 0.979 . S
H168 C137 0.977 . S
H169 C139 0.948 . S
H170 C141 0.947 . S
H171 C142 0.948 . S
H172 C148 0.982 . S
H173 C148 0.979 . S
H174 C148 0.977 . S
H175 C149 0.979 . S
H176 C149 0.980 . S
H177 C149 0.983 . S
H178 C122 0.947 . S
C179 C122 1.392 . S
C179 C123 1.419 . S
C179 H161 0.948 . S
C180 C181 1.391 . S
C180 C184 1.391 . S
C180 H222 0.948 . S
C181 C180 1.391 . S
C181 C182 1.391 . S
C182 C181 1.391 . S
C182 H238 0.947 . S
C182 C239 1.392 . S
C183 C184 1.391 . S
C183 C187 1.397 . S
C183 C239 1.419 . S
C184 C180 1.391 . S
C184 C183 1.391 . S
C184 C185 1.399 . S
C185 C184 1.399 . S
C185 C188 1.396 . S
C185 C197 1.453 . S
C185 C198 1.684 . S
H186 C210 0.948 . S
C187 C183 1.397 . S
C187 C188 1.394 . S
C187 C206 1.723 . S
C188 C185 1.396 . S
C188 C187 1.394 . S
C188 C218 1.723 . S
H189 C212 0.947 . S
H190 C213 0.948 . S
H191 C219 0.982 . S
H192 C220 0.979 . S
H193 C220 0.980 . S
H194 C220 0.983 . S
H195 C219 0.979 . S
H196 C219 0.977 . S
C197 C185 1.453 . S
C197 H226 0.982 . S
C197 H227 0.979 . S
C197 H228 0.977 . S
C198 C185 1.684 . S
C198 H223 0.979 . S
C198 H224 0.980 . S
C198 H225 0.983 . S
C199 C200 1.391 . S
C199 C204 1.391 . S
C199 H229 0.948 . S
C200 C199 1.391 . S
C200 C201 1.391 . S
C201 C200 1.391 . S
C201 C202 1.392 . S
C201 H230 0.947 . S
C202 C201 1.392 . S
C202 C203 1.419 . S
C202 H231 0.948 . S
C203 C202 1.419 . S
C203 C204 1.391 . S
C203 C207 1.397 . S
C204 C199 1.391 . S
C204 C203 1.391 . S
C204 C205 1.399 . S
C205 C204 1.399 . S
C205 C206 1.396 . S
C205 C208 1.453 . S
C205 C209 1.684 . S
C206 C187 1.723 . S
C206 C205 1.396 . S
C206 C207 1.394 . S
C207 C203 1.397 . S
C207 C206 1.394 . S
C207 C217 1.723 . S
C208 C205 1.453 . S
C208 H232 0.982 . S
C208 H233 0.979 . S
C208 H234 0.977 . S
C209 C205 1.684 . S
C209 H235 0.979 . S
C209 H236 0.980 . S
C209 H237 0.983 . S
C210 H186 0.948 . S
C210 C211 1.391 . S
C210 C215 1.391 . S
C211 C210 1.391 . S
C211 C212 1.391 . S
C212 H189 0.947 . S
C212 C211 1.391 . S
C212 C213 1.392 . S
C213 H190 0.948 . S
C213 C212 1.392 . S
C213 C214 1.419 . S
C214 C213 1.419 . S
C214 C215 1.391 . S
C214 C218 1.397 . S
C215 C210 1.391 . S
C215 C214 1.391 . S
C215 C216 1.399 . S
C216 C215 1.399 . S
C216 C217 1.396 . S
C216 C219 1.453 . S
C216 C220 1.684 . S
C217 C207 1.723 . S
C217 C216 1.396 . S
C217 C218 1.394 . S
C218 C188 1.723 . S
C218 C214 1.397 . S
C218 C217 1.394 . S
C219 H191 0.982 . S
C219 H195 0.979 . S
C219 H196 0.977 . S
C219 C216 1.453 . S
C220 H192 0.979 . S
C220 H193 0.980 . S
C220 H194 0.983 . S
C220 C216 1.684 . S
H221 C239 0.948 . S
H222 C180 0.948 . S
H223 C198 0.979 . S
H224 C198 0.980 . S
H225 C198 0.983 . S
H226 C197 0.982 . S
H227 C197 0.979 . S
H228 C197 0.977 . S
H229 C199 0.948 . S
H230 C201 0.947 . S
H231 C202 0.948 . S
H232 C208 0.982 . S
H233 C208 0.979 . S
H234 C208 0.977 . S
H235 C209 0.979 . S
H236 C209 0.980 . S
H237 C209 0.983 . S
H238 C182 0.947 . S
C239 C182 1.392 . S
C239 C183 1.419 . S
C239 H221 0.948 . S
C240 C241 1.391 . S
C240 C244 1.391 . S
C240 H282 0.948 . S
C241 C240 1.391 . S
C241 C242 1.391 . S
C242 C241 1.391 . S
C242 H298 0.947 . S
C242 C299 1.392 . S
C243 C244 1.391 . S
C243 C247 1.397 . S
C243 C299 1.419 . S
C244 C240 1.391 . S
C244 C243 1.391 . S
C244 C245 1.399 . S
C245 C244 1.399 . S
C245 C248 1.396 . S
C245 C257 1.453 . S
C245 C258 1.684 . S
H246 C270 0.948 . S
C247 C243 1.397 . S
C247 C248 1.394 . S
C247 C266 1.723 . S
C248 C245 1.396 . S
C248 C247 1.394 . S
C248 C278 1.723 . S
H249 C272 0.947 . S
H250 C273 0.948 . S
H251 C279 0.982 . S
H252 C280 0.979 . S
H253 C280 0.980 . S
H254 C280 0.983 . S
H255 C279 0.979 . S
H256 C279 0.977 . S
C257 C245 1.453 . S
C257 H286 0.982 . S
C257 H287 0.979 . S
C257 H288 0.977 . S
C258 C245 1.684 . S
C258 H283 0.979 . S
C258 H284 0.980 . S
C258 H285 0.983 . S
C259 C260 1.391 . S
C259 C264 1.391 . S
C259 H289 0.948 . S
C260 C259 1.391 . S
C260 C261 1.391 . S
C261 C260 1.391 . S
C261 C262 1.392 . S
C261 H290 0.947 . S
C262 C261 1.392 . S
C262 C263 1.419 . S
C262 H291 0.948 . S
C263 C262 1.419 . S
C263 C264 1.391 . S
C263 C267 1.397 . S
C264 C259 1.391 . S
C264 C263 1.391 . S
C264 C265 1.399 . S
C265 C264 1.399 . S
C265 C266 1.396 . S
C265 C268 1.453 . S
C265 C269 1.684 . S
C266 C247 1.723 . S
C266 C265 1.396 . S
C266 C267 1.394 . S
C267 C263 1.397 . S
C267 C266 1.394 . S
C267 C277 1.723 . S
C268 C265 1.453 . S
C268 H292 0.982 . S
C268 H293 0.979 . S
C268 H294 0.977 . S
C269 C265 1.684 . S
C269 H295 0.979 . S
C269 H296 0.980 . S
C269 H297 0.983 . S
C270 H246 0.948 . S
C270 C271 1.391 . S
C270 C275 1.391 . S
C271 C270 1.391 . S
C271 C272 1.391 . S
C272 H249 0.947 . S
C272 C271 1.391 . S
C272 C273 1.392 . S
C273 H250 0.948 . S
C273 C272 1.392 . S
C273 C274 1.419 . S
C274 C273 1.419 . S
C274 C275 1.391 . S
C274 C278 1.397 . S
C275 C270 1.391 . S
C275 C274 1.391 . S
C275 C276 1.399 . S
C276 C275 1.399 . S
C276 C277 1.396 . S
C276 C279 1.453 . S
C276 C280 1.684 . S
C277 C267 1.723 . S
C277 C276 1.396 . S
C277 C278 1.394 . S
C278 C248 1.723 . S
C278 C274 1.397 . S
C278 C277 1.394 . S
C279 H251 0.982 . S
C279 H255 0.979 . S
C279 H256 0.977 . S
C279 C276 1.453 . S
C280 H252 0.979 . S
C280 H253 0.980 . S
C280 H254 0.983 . S
C280 C276 1.684 . S
H281 C299 0.948 . S
H282 C240 0.948 . S
H283 C258 0.979 . S
H284 C258 0.980 . S
H285 C258 0.983 . S
H286 C257 0.982 . S
H287 C257 0.979 . S
H288 C257 0.977 . S
H289 C259 0.948 . S
H290 C261 0.947 . S
H291 C262 0.948 . S
H292 C268 0.982 . S
H293 C268 0.979 . S
H294 C268 0.977 . S
H295 C269 0.979 . S
H296 C269 0.980 . S
H297 C269 0.983 . S
H298 C242 0.947 . S
C299 C242 1.392 . S
C299 C243 1.419 . S
C299 H281 0.948 . S
C300 C301 1.391 . S
C300 C304 1.391 . S
C300 H342 0.948 . S
C301 C300 1.391 . S
C301 C302 1.391 . S
C302 C301 1.391 . S
C302 H358 0.947 . S
C302 C359 1.392 . S
C303 C304 1.391 . S
C303 C307 1.397 . S
C303 C359 1.419 . S
C304 C300 1.391 . S
C304 C303 1.391 . S
C304 C305 1.399 . S
C305 C304 1.399 . S
C305 C308 1.396 . S
C305 C317 1.453 . S
C305 C318 1.684 . S
H306 C330 0.948 . S
C307 C303 1.397 . S
C307 C308 1.394 . S
C307 C326 1.723 . S
C308 C305 1.396 . S
C308 C307 1.394 . S
C308 C338 1.723 . S
H309 C332 0.947 . S
H310 C333 0.948 . S
H311 C339 0.982 . S
H312 C340 0.979 . S
H313 C340 0.980 . S
H314 C340 0.983 . S
H315 C339 0.979 . S
H316 C339 0.977 . S
C317 C305 1.453 . S
C317 H346 0.982 . S
C317 H347 0.979 . S
C317 H348 0.977 . S
C318 C305 1.684 . S
C318 H343 0.979 . S
C318 H344 0.980 . S
C318 H345 0.983 . S
C319 C320 1.391 . S
C319 C324 1.391 . S
C319 H349 0.948 . S
C320 C319 1.391 . S
C320 C321 1.391 . S
C321 C320 1.391 . S
C321 C322 1.392 . S
C321 H350 0.947 . S
C322 C321 1.392 . S
C322 C323 1.419 . S
C322 H351 0.948 . S
C323 C322 1.419 . S
C323 C324 1.391 . S
C323 C327 1.397 . S
C324 C319 1.391 . S
C324 C323 1.391 . S
C324 C325 1.399 . S
C325 C324 1.399 . S
C325 C326 1.396 . S
C325 C328 1.453 . S
C325 C329 1.684 . S
C326 C307 1.723 . S
C326 C325 1.396 . S
C326 C327 1.394 . S
C327 C323 1.397 . S
C327 C326 1.394 . S
C327 C337 1.723 . S
C328 C325 1.453 . S
C328 H352 0.982 . S
C328 H353 0.979 . S
C328 H354 0.977 . S
C329 C325 1.684 . S
C329 H355 0.979 . S
C329 H356 0.980 . S
C329 H357 0.983 . S
C330 H306 0.948 . S
C330 C331 1.391 . S
C330 C335 1.391 . S
C331 C330 1.391 . S
C331 C332 1.391 . S
C332 H309 0.947 . S
C332 C331 1.391 . S
C332 C333 1.392 . S
C333 H310 0.948 . S
C333 C332 1.392 . S
C333 C334 1.419 . S
C334 C333 1.419 . S
C334 C335 1.391 . S
C334 C338 1.397 . S
C335 C330 1.391 . S
C335 C334 1.391 . S
C335 C336 1.399 . S
C336 C335 1.399 . S
C336 C337 1.396 . S
C336 C339 1.453 . S
C336 C340 1.684 . S
C337 C327 1.723 . S
C337 C336 1.396 . S
C337 C338 1.394 . S
C338 C308 1.723 . S
C338 C334 1.397 . S
C338 C337 1.394 . S
C339 H311 0.982 . S
C339 H315 0.979 . S
C339 H316 0.977 . S
C339 C336 1.453 . S
C340 H312 0.979 . S
C340 H313 0.980 . S
C340 H314 0.983 . S
C340 C336 1.684 . S
H341 C359 0.948 . S
H342 C300 0.948 . S
H343 C318 0.979 . S
H344 C318 0.980 . S
H345 C318 0.983 . S
H346 C317 0.982 . S
H347 C317 0.979 . S
H348 C317 0.977 . S
H349 C319 0.948 . S
H350 C321 0.947 . S
H351 C322 0.948 . S
H352 C328 0.982 . S
H353 C328 0.979 . S
H354 C328 0.977 . S
H355 C329 0.979 . S
H356 C329 0.980 . S
H357 C329 0.983 . S
H358 C302 0.947 . S
C359 C302 1.392 . S
C359 C303 1.419 . S
C359 H341 0.948 . S
C360 C361 1.391 . S
C360 C364 1.391 . S
C360 H402 0.948 . S
C361 C360 1.391 . S
C361 C362 1.391 . S
C362 C361 1.391 . S
C362 H418 0.947 . S
C362 C419 1.392 . S
C363 C364 1.391 . S
C363 C367 1.397 . S
C363 C419 1.419 . S
C364 C360 1.391 . S
C364 C363 1.391 . S
C364 C365 1.399 . S
C365 C364 1.399 . S
C365 C368 1.396 . S
C365 C377 1.453 . S
C365 C378 1.684 . S
H366 C390 0.948 . S
C367 C363 1.397 . S
C367 C368 1.394 . S
C367 C386 1.723 . S
C368 C365 1.396 . S
C368 C367 1.394 . S
C368 C398 1.723 . S
H369 C392 0.947 . S
H370 C393 0.948 . S
H371 C399 0.982 . S
H372 C400 0.979 . S
H373 C400 0.980 . S
H374 C400 0.983 . S
H375 C399 0.979 . S
H376 C399 0.977 . S
C377 C365 1.453 . S
C377 H406 0.982 . S
C377 H407 0.979 . S
C377 H408 0.977 . S
C378 C365 1.684 . S
C378 H403 0.979 . S
C378 H404 0.980 . S
C378 H405 0.983 . S
C379 C380 1.391 . S
C379 C384 1.391 . S
C379 H409 0.948 . S
C380 C379 1.391 . S
C380 C381 1.391 . S
C381 C380 1.391 . S
C381 C382 1.392 . S
C381 H410 0.947 . S
C382 C381 1.392 . S
C382 C383 1.419 . S
C382 H411 0.948 . S
C383 C382 1.419 . S
C383 C384 1.391 . S
C383 C387 1.397 . S
C384 C379 1.391 . S
C384 C383 1.391 . S
C384 C385 1.399 . S
C385 C384 1.399 . S
C385 C386 1.396 . S
C385 C388 1.453 . S
C385 C389 1.684 . S
C386 C367 1.723 . S
C386 C385 1.396 . S
C386 C387 1.394 . S
C387 C383 1.397 . S
C387 C386 1.394 . S
C387 C397 1.723 . S
C388 C385 1.453 . S
C388 H412 0.982 . S
C388 H413 0.979 . S
C388 H414 0.977 . S
C389 C385 1.684 . S
C389 H415 0.979 . S
C389 H416 0.980 . S
C389 H417 0.983 . S
C390 H366 0.948 . S
C390 C391 1.391 . S
C390 C395 1.391 . S
C391 C390 1.391 . S
C391 C392 1.391 . S
C392 H369 0.947 . S
C392 C391 1.391 . S
C392 C393 1.392 . S
C393 H370 0.948 . S
C393 C392 1.392 . S
C393 C394 1.419 . S
C394 C393 1.419 . S
C394 C395 1.391 . S
C394 C398 1.397 . S
C395 C390 1.391 . S
C395 C394 1.391 . S
C395 C396 1.399 . S
C396 C395 1.399 . S
C396 C397 1.396 . S
C396 C399 1.453 . S
C396 C400 1.684 . S
C397 C387 1.723 . S
C397 C396 1.396 . S
C397 C398 1.394 . S
C398 C368 1.723 . S
C398 C394 1.397 . S
C398 C397 1.394 . S
C399 H371 0.982 . S
C399 H375 0.979 . S
C399 H376 0.977 . S
C399 C396 1.453 . S
C400 H372 0.979 . S
C400 H373 0.980 . S
C400 H374 0.983 . S
C400 C396 1.684 . S
H401 C419 0.948 . S
H402 C360 0.948 . S
H403 C378 0.979 . S
H404 C378 0.980 . S
H405 C378 0.983 . S
H406 C377 0.982 . S
H407 C377 0.979 . S
H408 C377 0.977 . S
H409 C379 0.948 . S
H410 C381 0.947 . S
H411 C382 0.948 . S
H412 C388 0.982 . S
H413 C388 0.979 . S
H414 C388 0.977 . S
H415 C389 0.979 . S
H416 C389 0.980 . S
H417 C389 0.983 . S
H418 C362 0.947 . S
C419 C362 1.392 . S
C419 C363 1.419 . S
C419 H401 0.948 . S
C420 C421 1.391 . S
C420 C424 1.391 . S
C420 H462 0.948 . S
C421 C420 1.391 . S
C421 C422 1.391 . S
C422 C421 1.391 . S
C422 H478 0.947 . S
C422 C479 1.392 . S
C423 C424 1.391 . S
C423 C427 1.397 . S
C423 C479 1.419 . S
C424 C420 1.391 . S
C424 C423 1.391 . S
C424 C425 1.399 . S
C425 C424 1.399 . S
C425 C428 1.396 . S
C425 C437 1.453 . S
C425 C438 1.684 . S
H426 C450 0.948 . S
C427 C423 1.397 . S
C427 C428 1.394 . S
C427 C446 1.723 . S
C428 C425 1.396 . S
C428 C427 1.394 . S
C428 C458 1.723 . S
H429 C452 0.947 . S
H430 C453 0.948 . S
H431 C459 0.982 . S
H432 C460 0.979 . S
H433 C460 0.980 . S
H434 C460 0.983 . S
H435 C459 0.979 . S
H436 C459 0.977 . S
C437 C425 1.453 . S
C437 H466 0.982 . S
C437 H467 0.979 . S
C437 H468 0.977 . S
C438 C425 1.684 . S
C438 H463 0.979 . S
C438 H464 0.980 . S
C438 H465 0.983 . S
C439 C440 1.391 . S
C439 C444 1.391 . S
C439 H469 0.948 . S
C440 C439 1.391 . S
C440 C441 1.391 . S
C441 C440 1.391 . S
C441 C442 1.392 . S
C441 H470 0.947 . S
C442 C441 1.392 . S
C442 C443 1.419 . S
C442 H471 0.948 . S
C443 C442 1.419 . S
C443 C444 1.391 . S
C443 C447 1.397 . S
C444 C439 1.391 . S
C444 C443 1.391 . S
C444 C445 1.399 . S
C445 C444 1.399 . S
C445 C446 1.396 . S
C445 C448 1.453 . S
C445 C449 1.684 . S
C446 C427 1.723 . S
C446 C445 1.396 . S
C446 C447 1.394 . S
C447 C443 1.397 . S
C447 C446 1.394 . S
C447 C457 1.723 . S
C448 C445 1.453 . S
C448 H472 0.982 . S
C448 H473 0.979 . S
C448 H474 0.977 . S
C449 C445 1.684 . S
C449 H475 0.979 . S
C449 H476 0.980 . S
C449 H477 0.983 . S
C450 H426 0.948 . S
C450 C451 1.391 . S
C450 C455 1.391 . S
C451 C450 1.391 . S
C451 C452 1.391 . S
C452 H429 0.947 . S
C452 C451 1.391 . S
C452 C453 1.392 . S
C453 H430 0.948 . S
C453 C452 1.392 . S
C453 C454 1.419 . S
C454 C453 1.419 . S
C454 C455 1.391 . S
C454 C458 1.397 . S
C455 C450 1.391 . S
C455 C454 1.391 . S
C455 C456 1.399 . S
C456 C455 1.399 . S
C456 C457 1.396 . S
C456 C459 1.453 . S
C456 C460 1.684 . S
C457 C447 1.723 . S
C457 C456 1.396 . S
C457 C458 1.394 . S
C458 C428 1.723 . S
C458 C454 1.397 . S
C458 C457 1.394 . S
C459 H431 0.982 . S
C459 H435 0.979 . S
C459 H436 0.977 . S
C459 C456 1.453 . S
C460 H432 0.979 . S
C460 H433 0.980 . S
C460 H434 0.983 . S
C460 C456 1.684 . S
H461 C479 0.948 . S
H462 C420 0.948 . S
H463 C438 0.979 . S
H464 C438 0.980 . S
H465 C438 0.983 . S
H466 C437 0.982 . S
H467 C437 0.979 . S
H468 C437 0.977 . S
H469 C439 0.948 . S
H470 C441 0.947 . S
H471 C442 0.948 . S
H472 C448 0.982 . S
H473 C448 0.979 . S
H474 C448 0.977 . S
H475 C449 0.979 . S
H476 C449 0.980 . S
H477 C449 0.983 . S
H478 C422 0.947 . S
C479 C422 1.392 . S
C479 C423 1.419 . S
C479 H461 0.948 . S
Gd480 C483 2.818 . S
Gd480 O500 2.377 . S
Gd480 O502 2.448 . S
Gd480 O503 2.506 . S
Gd480 O504 2.435 1_545 S
Gd480 O505 2.717 1_545 S
Gd480 O507 2.395 1_445 S
Gd480 O511 2.327 1_455 S
Gd481 C492 2.818 . S
Gd481 O501 2.395 1_665 S
Gd481 O505 2.327 1_655 S
Gd481 O506 2.377 . S
Gd481 O508 2.448 . S
Gd481 O509 2.506 . S
Gd481 O510 2.435 1_565 S
Gd481 O511 2.717 1_565 S
C482 O500 1.240 . S
C482 O501 1.240 . S
C483 Gd480 2.818 . S
C483 C484 1.510 . S
C483 O502 1.249 . S
C483 O503 1.252 . S
C484 C483 1.510 . S
C484 C485 1.404 . S
C484 C486 1.352 . S
C485 C484 1.404 . S
C485 C489 1.389 . S
C485 H512 0.930 . S
C486 C484 1.352 . S
C486 C488 1.374 . S
C486 H513 0.931 . S
C487 C488 1.359 . S
C487 C489 1.364 . S
C488 C486 1.374 . S
C488 C487 1.359 . S
C488 H514 0.931 . S
C489 C485 1.389 . S
C489 C487 1.364 . S
C489 H515 0.931 . S
C490 O504 1.256 . S
C490 O505 1.257 . S
C491 O506 1.240 . S
C491 O507 1.240 . S
C492 Gd481 2.818 . S
C492 C493 1.510 . S
C492 O508 1.249 . S
C492 O509 1.252 . S
C493 C492 1.510 . S
C493 C494 1.404 . S
C493 C495 1.352 . S
C494 C493 1.404 . S
C494 C498 1.389 . S
C494 H516 0.930 . S
C495 C493 1.352 . S
C495 C497 1.374 . S
C495 H517 0.931 . S
C496 C497 1.359 . S
C496 C498 1.364 . S
C497 C495 1.374 . S
C497 C496 1.359 . S
C497 H518 0.931 . S
C498 C494 1.389 . S
C498 C496 1.364 . S
C498 H519 0.931 . S
C499 O510 1.256 . S
C499 O511 1.257 . S
O500 Gd480 2.377 . S
O500 C482 1.240 . S
O501 Gd481 2.395 1_445 S
O501 C482 1.240 . S
O502 Gd480 2.448 . S
O502 C483 1.249 . S
O503 Gd480 2.506 . S
O503 C483 1.252 . S
O504 Gd480 2.435 1_565 S
O504 C490 1.256 . S
O505 Gd480 2.717 1_565 S
O505 Gd481 2.327 1_455 S
O505 C490 1.257 . S
O506 Gd481 2.377 . S
O506 C491 1.240 . S
O507 Gd480 2.395 1_665 S
O507 C491 1.240 . S
O508 Gd481 2.448 . S
O508 C492 1.249 . S
O509 Gd481 2.506 . S
O509 C492 1.252 . S
O510 Gd481 2.435 1_545 S
O510 C499 1.256 . S
O511 Gd480 2.327 1_655 S
O511 Gd481 2.717 1_545 S
O511 C499 1.257 . S
H512 C485 0.930 . S
H513 C486 0.931 . S
H514 C488 0.931 . S
H515 C489 0.931 . S
H516 C494 0.930 . S
H517 C495 0.931 . S
H518 C497 0.931 . S
H519 C498 0.931 . S
Gd520 C523 2.818 1_565 S
Gd520 O540 2.377 1_565 S
Gd520 O542 2.448 1_565 S
Gd520 O543 2.506 1_565 S
Gd520 O544 2.435 . S
Gd520 O545 2.717 . S
Gd520 O547 2.395 1_554 S
Gd520 O551 2.327 1_564 S
Gd521 C532 2.818 1_545 S
Gd521 O541 2.395 1_556 S
Gd521 O545 2.327 1_546 S
Gd521 O546 2.377 1_545 S
Gd521 O548 2.448 1_545 S
Gd521 O549 2.506 1_545 S
Gd521 O550 2.435 . S
Gd521 O551 2.717 . S
C522 O540 1.240 . S
C522 O541 1.240 . S
C523 Gd520 2.818 1_545 S
C523 C524 1.510 . S
C523 O542 1.249 . S
C523 O543 1.252 . S
C524 C523 1.510 . S
C524 C525 1.404 . S
C524 C526 1.352 . S
C525 C524 1.404 . S
C525 C529 1.389 . S
C525 H552 0.930 . S
C526 C524 1.352 . S
C526 C528 1.374 . S
C526 H553 0.931 . S
C527 C528 1.359 . S
C527 C529 1.364 . S
C528 C526 1.374 . S
C528 C527 1.359 . S
C528 H554 0.931 . S
C529 C525 1.389 . S
C529 C527 1.364 . S
C529 H555 0.931 . S
C530 O544 1.256 . S
C530 O545 1.257 . S
C531 O546 1.240 . S
C531 O547 1.240 . S
C532 Gd521 2.818 1_565 S
C532 C533 1.510 . S
C532 O548 1.249 . S
C532 O549 1.252 . S
C533 C532 1.510 . S
C533 C534 1.404 . S
C533 C535 1.352 . S
C534 C533 1.404 . S
C534 C538 1.389 . S
C534 H556 0.930 . S
C535 C533 1.352 . S
C535 C537 1.374 . S
C535 H557 0.931 . S
C536 C537 1.359 . S
C536 C538 1.364 . S
C537 C535 1.374 . S
C537 C536 1.359 . S
C537 H558 0.931 . S
C538 C534 1.389 . S
C538 C536 1.364 . S
C538 H559 0.931 . S
C539 O550 1.256 . S
C539 O551 1.257 . S
O540 Gd520 2.377 1_545 S
O540 C522 1.240 . S
O541 Gd521 2.395 1_554 S
O541 C522 1.240 . S
O542 Gd520 2.448 1_545 S
O542 C523 1.249 . S
O543 Gd520 2.506 1_545 S
O543 C523 1.252 . S
O544 Gd520 2.435 . S
O544 C530 1.256 . S
O545 Gd520 2.717 . S
O545 Gd521 2.327 1_564 S
O545 C530 1.257 . S
O546 Gd521 2.377 1_565 S
O546 C531 1.240 . S
O547 Gd520 2.395 1_556 S
O547 C531 1.240 . S
O548 Gd521 2.448 1_565 S
O548 C532 1.249 . S
O549 Gd521 2.506 1_565 S
O549 C532 1.252 . S
O550 Gd521 2.435 . S
O550 C539 1.256 . S
O551 Gd520 2.327 1_546 S
O551 Gd521 2.717 . S
O551 C539 1.257 . S
H552 C525 0.930 . S
H553 C526 0.931 . S
H554 C528 0.931 . S
H555 C529 0.931 . S
H556 C534 0.930 . S
H557 C535 0.931 . S
H558 C537 0.931 . S
H559 C538 0.931 . S
Gd560 C563 2.818 . S
Gd560 O580 2.377 . S
Gd560 O582 2.448 . S
Gd560 O583 2.506 . S
Gd560 O584 2.435 . S
Gd560 O585 2.717 . S
Gd560 O587 2.395 . S
Gd560 O591 2.327 . S
Gd561 C572 2.818 . S
Gd561 O581 2.395 . S
Gd561 O585 2.327 . S
Gd561 O586 2.377 . S
Gd561 O588 2.448 . S
Gd561 O589 2.506 . S
Gd561 O590 2.435 . S
Gd561 O591 2.717 . S
C562 O580 1.240 . S
C562 O581 1.240 . S
C563 Gd560 2.818 . S
C563 C564 1.510 . S
C563 O582 1.249 . S
C563 O583 1.252 . S
C564 C563 1.510 . S
C564 C565 1.404 . S
C564 C566 1.352 . S
C565 C564 1.404 . S
C565 C569 1.389 . S
C565 H592 0.930 . S
C566 C564 1.352 . S
C566 C568 1.374 . S
C566 H593 0.931 . S
C567 C568 1.359 . S
C567 C569 1.364 . S
C568 C566 1.374 . S
C568 C567 1.359 . S
C568 H594 0.931 . S
C569 C565 1.389 . S
C569 C567 1.364 . S
C569 H595 0.931 . S
C570 O584 1.256 . S
C570 O585 1.257 . S
C571 O586 1.240 . S
C571 O587 1.240 . S
C572 Gd561 2.818 . S
C572 C573 1.510 . S
C572 O588 1.249 . S
C572 O589 1.252 . S
C573 C572 1.510 . S
C573 C574 1.404 . S
C573 C575 1.352 . S
C574 C573 1.404 . S
C574 C578 1.389 . S
C574 H596 0.930 . S
C575 C573 1.352 . S
C575 C577 1.374 . S
C575 H597 0.931 . S
C576 C577 1.359 . S
C576 C578 1.364 . S
C577 C575 1.374 . S
C577 C576 1.359 . S
C577 H598 0.931 . S
C578 C574 1.389 . S
C578 C576 1.364 . S
C578 H599 0.931 . S
C579 O590 1.256 . S
C579 O591 1.257 . S
O580 Gd560 2.377 . S
O580 C562 1.240 . S
O581 Gd561 2.395 . S
O581 C562 1.240 . S
O582 Gd560 2.448 . S
O582 C563 1.249 . S
O583 Gd560 2.506 . S
O583 C563 1.252 . S
O584 Gd560 2.435 . S
O584 C570 1.256 . S
O585 Gd560 2.717 . S
O585 Gd561 2.327 . S
O585 C570 1.257 . S
O586 Gd561 2.377 . S
O586 C571 1.240 . S
O587 Gd560 2.395 . S
O587 C571 1.240 . S
O588 Gd561 2.448 . S
O588 C572 1.249 . S
O589 Gd561 2.506 . S
O589 C572 1.252 . S
O590 Gd561 2.435 . S
O590 C579 1.256 . S
O591 Gd560 2.327 . S
O591 Gd561 2.717 . S
O591 C579 1.257 . S
H592 C565 0.930 . S
H593 C566 0.931 . S
H594 C568 0.931 . S
H595 C569 0.931 . S
H596 C574 0.930 . S
H597 C575 0.931 . S
H598 C577 0.931 . S
H599 C578 0.931 . S
Gd600 C603 2.818 . S
Gd600 O620 2.377 . S
Gd600 O622 2.448 . S
Gd600 O623 2.506 . S
Gd600 O624 2.435 1_455 S
Gd600 O625 2.717 1_455 S
Gd600 O627 2.395 1_454 S
Gd600 O631 2.327 1_554 S
Gd601 C612 2.818 . S
Gd601 O621 2.395 1_656 S
Gd601 O625 2.327 1_556 S
Gd601 O626 2.377 . S
Gd601 O628 2.448 . S
Gd601 O629 2.506 . S
Gd601 O630 2.435 1_655 S
Gd601 O631 2.717 1_655 S
C602 O620 1.240 . S
C602 O621 1.240 . S
C603 Gd600 2.818 . S
C603 C604 1.510 . S
C603 O622 1.249 . S
C603 O623 1.252 . S
C604 C603 1.510 . S
C604 C605 1.404 . S
C604 C606 1.352 . S
C605 C604 1.404 . S
C605 C609 1.389 . S
C605 H632 0.930 . S
C606 C604 1.352 . S
C606 C608 1.374 . S
C606 H633 0.931 . S
C607 C608 1.359 . S
C607 C609 1.364 . S
C608 C606 1.374 . S
C608 C607 1.359 . S
C608 H634 0.931 . S
C609 C605 1.389 . S
C609 C607 1.364 . S
C609 H635 0.931 . S
C610 O624 1.256 . S
C610 O625 1.257 . S
C611 O626 1.240 . S
C611 O627 1.240 . S
C612 Gd601 2.818 . S
C612 C613 1.510 . S
C612 O628 1.249 . S
C612 O629 1.252 . S
C613 C612 1.510 . S
C613 C614 1.404 . S
C613 C615 1.352 . S
C614 C613 1.404 . S
C614 C618 1.389 . S
C614 H636 0.930 . S
C615 C613 1.352 . S
C615 C617 1.374 . S
C615 H637 0.931 . S
C616 C617 1.359 . S
C616 C618 1.364 . S
C617 C615 1.374 . S
C617 C616 1.359 . S
C617 H638 0.931 . S
C618 C614 1.389 . S
C618 C616 1.364 . S
C618 H639 0.931 . S
C619 O630 1.256 . S
C619 O631 1.257 . S
O620 Gd600 2.377 . S
O620 C602 1.240 . S
O621 Gd601 2.395 1_454 S
O621 C602 1.240 . S
O622 Gd600 2.448 . S
O622 C603 1.249 . S
O623 Gd600 2.506 . S
O623 C603 1.252 . S
O624 Gd600 2.435 1_655 S
O624 C610 1.256 . S
O625 Gd600 2.717 1_655 S
O625 Gd601 2.327 1_554 S
O625 C610 1.257 . S
O626 Gd601 2.377 . S
O626 C611 1.240 . S
O627 Gd600 2.395 1_656 S
O627 C611 1.240 . S
O628 Gd601 2.448 . S
O628 C612 1.249 . S
O629 Gd601 2.506 . S
O629 C612 1.252 . S
O630 Gd601 2.435 1_455 S
O630 C619 1.256 . S
O631 Gd600 2.327 1_556 S
O631 Gd601 2.717 1_455 S
O631 C619 1.257 . S
H632 C605 0.930 . S
H633 C606 0.931 . S
H634 C608 0.931 . S
H635 C609 0.931 . S
H636 C614 0.930 . S
H637 C615 0.931 . S
H638 C617 0.931 . S
H639 C618 0.931 . S
C640 C641 1.363 . S
C640 C646 1.379 . S
C640 N648 1.356 . S
C641 C640 1.363 . S
C641 C647 1.363 . S
C642 C643 1.363 . S
C642 C647 1.379 . S
C642 N649 1.356 . S
C643 C642 1.363 . S
C643 C646 1.363 . S
N644 C646 1.356 . S
N644 H656 0.984 . S
N644 H657 0.985 . S
N645 C647 1.356 . S
N645 H650 0.984 . S
N645 H651 0.985 . S
C646 C640 1.379 . S
C646 C643 1.363 . S
C646 N644 1.356 . S
C647 C641 1.363 . S
C647 C642 1.379 . S
C647 N645 1.356 . S
N648 C640 1.356 . S
N648 H654 0.984 . S
N648 H655 0.984 . S
N649 C642 1.356 . S
N649 H652 0.984 . S
N649 H653 0.985 . S
H650 N645 0.984 . S
H651 N645 0.985 . S
H652 N649 0.984 . S
H653 N649 0.985 . S
H654 N648 0.984 . S
H655 N648 0.984 . S
H656 N644 0.984 . S
H657 N644 0.985 . S
C658 C659 1.363 . S
C658 C664 1.379 . S
C658 N666 1.356 . S
C659 C658 1.363 . S
C659 C665 1.363 . S
C660 C661 1.363 . S
C660 C665 1.379 . S
C660 N667 1.356 . S
C661 C660 1.363 . S
C661 C664 1.363 . S
N662 C664 1.356 . S
N662 H674 0.984 . S
N662 H675 0.985 . S
N663 C665 1.356 . S
N663 H668 0.984 . S
N663 H669 0.985 . S
C664 C658 1.379 . S
C664 C661 1.363 . S
C664 N662 1.356 . S
C665 C659 1.363 . S
C665 C660 1.379 . S
C665 N663 1.356 . S
N666 C658 1.356 . S
N666 H672 0.984 . S
N666 H673 0.984 . S
N667 C660 1.356 . S
N667 H670 0.984 . S
N667 H671 0.985 . S
H668 N663 0.984 . S
H669 N663 0.985 . S
H670 N667 0.984 . S
H671 N667 0.985 . S
H672 N666 0.984 . S
H673 N666 0.984 . S
H674 N662 0.984 . S
H675 N662 0.985 . S
C676 C677 1.363 . S
C676 C682 1.379 . S
C676 N684 1.356 . S
C677 C676 1.363 . S
C677 C683 1.363 . S
C678 C679 1.363 . S
C678 C683 1.379 . S
C678 N685 1.356 . S
C679 C678 1.363 . S
C679 C682 1.363 . S
N680 C682 1.356 . S
N680 H692 0.984 . S
N680 H693 0.985 . S
N681 C683 1.356 . S
N681 H686 0.984 . S
N681 H687 0.985 . S
C682 C676 1.379 . S
C682 C679 1.363 . S
C682 N680 1.356 . S
C683 C677 1.363 . S
C683 C678 1.379 . S
C683 N681 1.356 . S
N684 C676 1.356 . S
N684 H690 0.984 . S
N684 H691 0.984 . S
N685 C678 1.356 . S
N685 H688 0.984 . S
N685 H689 0.985 . S
H686 N681 0.984 . S
H687 N681 0.985 . S
H688 N685 0.984 . S
H689 N685 0.985 . S
H690 N684 0.984 . S
H691 N684 0.984 . S
H692 N680 0.984 . S
H693 N680 0.985 . S
C694 C695 1.363 . S
C694 C700 1.379 . S
C694 N702 1.356 . S
C695 C694 1.363 . S
C695 C701 1.363 . S
C696 C697 1.363 . S
C696 C701 1.379 . S
C696 N703 1.356 . S
C697 C696 1.363 . S
C697 C700 1.363 . S
N698 C700 1.356 . S
N698 H710 0.984 . S
N698 H711 0.985 . S
N699 C701 1.356 . S
N699 H704 0.984 . S
N699 H705 0.985 . S
C700 C694 1.379 . S
C700 C697 1.363 . S
C700 N698 1.356 . S
C701 C695 1.363 . S
C701 C696 1.379 . S
C701 N699 1.356 . S
N702 C694 1.356 . S
N702 H708 0.984 . S
N702 H709 0.984 . S
N703 C696 1.356 . S
N703 H706 0.984 . S
N703 H707 0.985 . S
H704 N699 0.984 . S
H705 N699 0.985 . S
H706 N703 0.984 . S
H707 N703 0.985 . S
H708 N702 0.984 . S
H709 N702 0.984 . S
H710 N698 0.984 . S
H711 N698 0.985 . S
C712 C713 1.363 . S
C712 C718 1.379 . S
C712 N720 1.356 . S
C713 C712 1.363 . S
C713 C719 1.363 . S
C714 C715 1.363 . S
C714 C719 1.379 . S
C714 N721 1.356 . S
C715 C714 1.363 . S
C715 C718 1.363 . S
N716 C718 1.356 . S
N716 H728 0.984 . S
N716 H729 0.985 . S
N717 C719 1.356 . S
N717 H722 0.984 . S
N717 H723 0.985 . S
C718 C712 1.379 . S
C718 C715 1.363 . S
C718 N716 1.356 . S
C719 C713 1.363 . S
C719 C714 1.379 . S
C719 N717 1.356 . S
N720 C712 1.356 . S
N720 H726 0.984 . S
N720 H727 0.984 . S
N721 C714 1.356 . S
N721 H724 0.984 . S
N721 H725 0.985 . S
H722 N717 0.984 . S
H723 N717 0.985 . S
H724 N721 0.984 . S
H725 N721 0.985 . S
H726 N720 0.984 . S
H727 N720 0.984 . S
H728 N716 0.984 . S
H729 N716 0.985 . S
C730 C731 1.363 . S
C730 C736 1.379 . S
C730 N738 1.356 . S
C731 C730 1.363 . S
C731 C737 1.363 . S
C732 C733 1.363 . S
C732 C737 1.379 . S
C732 N739 1.356 . S
C733 C732 1.363 . S
C733 C736 1.363 . S
N734 C736 1.356 . S
N734 H746 0.984 . S
N734 H747 0.985 . S
N735 C737 1.356 . S
N735 H740 0.984 . S
N735 H741 0.985 . S
C736 C730 1.379 . S
C736 C733 1.363 . S
C736 N734 1.356 . S
C737 C731 1.363 . S
C737 C732 1.379 . S
C737 N735 1.356 . S
N738 C730 1.356 . S
N738 H744 0.984 . S
N738 H745 0.984 . S
N739 C732 1.356 . S
N739 H742 0.984 . S
N739 H743 0.985 . S
H740 N735 0.984 . S
H741 N735 0.985 . S
H742 N739 0.984 . S
H743 N739 0.985 . S
H744 N738 0.984 . S
H745 N738 0.984 . S
H746 N734 0.984 . S
H747 N734 0.985 . S
C748 C749 1.363 . S
C748 C754 1.379 . S
C748 N756 1.356 . S
C749 C748 1.363 . S
C749 C755 1.363 . S
C750 C751 1.363 . S
C750 C755 1.379 . S
C750 N757 1.356 . S
C751 C750 1.363 . S
C751 C754 1.363 . S
N752 C754 1.360 . S
N752 H764 0.982 1_556 S
N752 H765 0.983 1_556 S
N753 C755 1.356 . S
N753 H758 0.984 . S
N753 H759 0.985 . S
C754 C748 1.379 . S
C754 C751 1.363 . S
C754 N752 1.360 . S
C755 C749 1.363 . S
C755 C750 1.379 . S
C755 N753 1.356 . S
N756 C748 1.356 . S
N756 H762 0.984 . S
N756 H763 0.984 . S
N757 C750 1.356 . S
N757 H760 0.984 . S
N757 H761 0.985 . S
H758 N753 0.984 . S
H759 N753 0.985 . S
H760 N757 0.984 . S
H761 N757 0.985 . S
H762 N756 0.984 . S
H763 N756 0.984 . S
H764 N752 0.982 1_554 S
H765 N752 0.983 1_554 S
C766 C767 1.363 . S
C766 C772 1.379 . S
C766 N774 1.356 . S
C767 C766 1.363 . S
C767 C773 1.363 . S
C768 C769 1.363 . S
C768 C773 1.379 . S
C768 N775 1.356 . S
C769 C768 1.363 . S
C769 C772 1.363 . S
N770 C772 1.356 . S
N770 H782 0.984 . S
N770 H783 0.985 . S
N771 C773 1.356 . S
N771 H776 0.984 . S
N771 H777 0.985 . S
C772 C766 1.379 . S
C772 C769 1.363 . S
C772 N770 1.356 . S
C773 C767 1.363 . S
C773 C768 1.379 . S
C773 N771 1.356 . S
N774 C766 1.356 . S
N774 H780 0.984 . S
N774 H781 0.984 . S
N775 C768 1.356 . S
N775 H778 0.984 . S
N775 H779 0.985 . S
H776 N771 0.984 . S
H777 N771 0.985 . S
H778 N775 0.984 . S
H779 N775 0.985 . S
H780 N774 0.984 . S
H781 N774 0.984 . S
H782 N770 0.984 . S
H783 N770 0.985 . S
C784 C785 1.363 . S
C784 C790 1.379 . S
C784 N792 1.356 . S
C785 C784 1.363 . S
C785 C791 1.363 . S
C786 C787 1.363 . S
C786 C791 1.379 . S
C786 N793 1.356 . S
C787 C786 1.363 . S
C787 C790 1.363 . S
N788 C790 1.356 . S
N788 H800 0.984 . S
N788 H801 0.985 . S
N789 C791 1.356 . S
N789 H794 0.984 . S
N789 H795 0.985 . S
C790 C784 1.379 . S
C790 C787 1.363 . S
C790 N788 1.356 . S
C791 C785 1.363 . S
C791 C786 1.379 . S
C791 N789 1.356 . S
N792 C784 1.356 . S
N792 H798 0.984 . S
N792 H799 0.984 . S
N793 C786 1.356 . S
N793 H796 0.984 . S
N793 H797 0.985 . S
H794 N789 0.984 . S
H795 N789 0.985 . S
H796 N793 0.984 . S
H797 N793 0.985 . S
H798 N792 0.984 . S
H799 N792 0.984 . S
H800 N788 0.984 . S
H801 N788 0.985 . S
C802 C803 1.363 . S
C802 C808 1.379 . S
C802 N810 1.356 . S
C803 C802 1.363 . S
C803 C809 1.363 . S
C804 C805 1.363 . S
C804 C809 1.379 . S
C804 N811 1.356 . S
C805 C804 1.363 . S
C805 C808 1.363 . S
N806 C808 1.356 . S
N806 H818 0.984 . S
N806 H819 0.985 . S
N807 C809 1.356 . S
N807 H812 0.984 . S
N807 H813 0.985 . S
C808 C802 1.379 . S
C808 C805 1.363 . S
C808 N806 1.356 . S
C809 C803 1.363 . S
C809 C804 1.379 . S
C809 N807 1.356 . S
N810 C802 1.356 . S
N810 H816 0.984 . S
N810 H817 0.984 . S
N811 C804 1.356 . S
N811 H814 0.984 . S
N811 H815 0.985 . S
H812 N807 0.984 . S
H813 N807 0.985 . S
H814 N811 0.984 . S
H815 N811 0.985 . S
H816 N810 0.984 . S
H817 N810 0.984 . S
H818 N806 0.984 . S
H819 N806 0.985 . S
C820 C821 1.363 . S
C820 C826 1.379 . S
C820 N828 1.356 . S
C821 C820 1.363 . S
C821 C827 1.363 . S
C822 C823 1.363 . S
C822 C827 1.379 . S
C822 N829 1.356 . S
C823 C822 1.363 . S
C823 C826 1.363 . S
N824 C826 1.356 . S
N824 H836 0.984 . S
N824 H837 0.985 . S
N825 C827 1.356 . S
N825 H830 0.984 . S
N825 H831 0.985 . S
C826 C820 1.379 . S
C826 C823 1.363 . S
C826 N824 1.356 . S
C827 C821 1.363 . S
C827 C822 1.379 . S
C827 N825 1.356 . S
N828 C820 1.356 . S
N828 H834 0.984 . S
N828 H835 0.984 . S
N829 C822 1.356 . S
N829 H832 0.984 . S
N829 H833 0.985 . S
H830 N825 0.984 . S
H831 N825 0.985 . S
H832 N829 0.984 . S
H833 N829 0.985 . S
H834 N828 0.984 . S
H835 N828 0.984 . S
H836 N824 0.984 . S
H837 N824 0.985 . S
C838 C839 1.363 . S
C838 C844 1.379 . S
C838 N846 1.356 . S
C839 C838 1.363 . S
C839 C845 1.363 . S
C840 C841 1.363 . S
C840 C845 1.379 . S
C840 N847 1.356 . S
C841 C840 1.363 . S
C841 C844 1.363 . S
N842 C844 1.356 . S
N842 H854 0.984 . S
N842 H855 0.985 . S
N843 C845 1.356 . S
N843 H848 0.984 . S
N843 H849 0.985 . S
C844 C838 1.379 . S
C844 C841 1.363 . S
C844 N842 1.356 . S
C845 C839 1.363 . S
C845 C840 1.379 . S
C845 N843 1.356 . S
N846 C838 1.356 . S
N846 H852 0.984 . S
N846 H853 0.984 . S
N847 C840 1.356 . S
N847 H850 0.984 . S
N847 H851 0.985 . S
H848 N843 0.984 . S
H849 N843 0.985 . S
H850 N847 0.984 . S
H851 N847 0.985 . S
H852 N846 0.984 . S
H853 N846 0.984 . S
H854 N842 0.984 . S
H855 N842 0.985 . S
C856 C857 1.363 . S
C856 C862 1.379 . S
C856 N864 1.356 . S
C857 C856 1.363 . S
C857 C863 1.363 . S
C858 C859 1.363 . S
C858 C863 1.379 . S
C858 N865 1.356 . S
C859 C858 1.363 . S
C859 C862 1.363 . S
N860 C862 1.356 . S
N860 H872 0.984 . S
N860 H873 0.985 . S
N861 C863 1.356 . S
N861 H866 0.984 . S
N861 H867 0.985 . S
C862 C856 1.379 . S
C862 C859 1.363 . S
C862 N860 1.356 . S
C863 C857 1.363 . S
C863 C858 1.379 . S
C863 N861 1.356 . S
N864 C856 1.356 . S
N864 H870 0.984 . S
N864 H871 0.984 . S
N865 C858 1.356 . S
N865 H868 0.984 . S
N865 H869 0.985 . S
H866 N861 0.984 . S
H867 N861 0.985 . S
H868 N865 0.984 . S
H869 N865 0.985 . S
H870 N864 0.984 . S
H871 N864 0.984 . S
H872 N860 0.984 . S
H873 N860 0.985 . S
C874 C875 1.363 . S
C874 C880 1.379 . S
C874 N882 1.356 . S
C875 C874 1.363 . S
C875 C881 1.363 . S
C876 C877 1.363 . S
C876 C881 1.379 . S
C876 N883 1.356 . S
C877 C876 1.363 . S
C877 C880 1.363 . S
N878 C880 1.356 . S
N878 H890 0.984 . S
N878 H891 0.985 . S
N879 C881 1.356 . S
N879 H884 0.984 . S
N879 H885 0.985 . S
C880 C874 1.379 . S
C880 C877 1.363 . S
C880 N878 1.356 . S
C881 C875 1.363 . S
C881 C876 1.379 . S
C881 N879 1.356 . S
N882 C874 1.356 . S
N882 H888 0.984 . S
N882 H889 0.984 . S
N883 C876 1.356 . S
N883 H886 0.984 . S
N883 H887 0.985 . S
H884 N879 0.984 . S
H885 N879 0.985 . S
H886 N883 0.984 . S
H887 N883 0.985 . S
H888 N882 0.984 . S
H889 N882 0.984 . S
H890 N878 0.984 . S
H891 N878 0.985 . S
C892 C893 1.363 . S
C892 C898 1.379 . S
C892 N900 1.356 . S
C893 C892 1.363 . S
C893 C899 1.363 . S
C894 C895 1.363 . S
C894 C899 1.379 . S
C894 N901 1.356 . S
C895 C894 1.363 . S
C895 C898 1.363 . S
N896 C898 1.356 . S
N896 H908 0.984 . S
N896 H909 0.985 . S
N897 C899 1.356 . S
N897 H902 0.984 . S
N897 H903 0.985 . S
C898 C892 1.379 . S
C898 C895 1.363 . S
C898 N896 1.356 . S
C899 C893 1.363 . S
C899 C894 1.379 . S
C899 N897 1.356 . S
N900 C892 1.356 . S
N900 H906 0.984 . S
N900 H907 0.984 . S
N901 C894 1.356 . S
N901 H904 0.984 . S
N901 H905 0.985 . S
H902 N897 0.984 . S
H903 N897 0.985 . S
H904 N901 0.984 . S
H905 N901 0.985 . S
H906 N900 0.984 . S
H907 N900 0.984 . S
H908 N896 0.984 . S
H909 N896 0.985 . S
C910 C911 1.363 . S
C910 C916 1.379 . S
C910 N918 1.356 . S
C911 C910 1.363 . S
C911 C917 1.363 . S
C912 C913 1.363 . S
C912 C917 1.379 . S
C912 N919 1.356 . S
C913 C912 1.363 . S
C913 C916 1.363 . S
N914 C916 1.356 . S
N914 H926 0.984 . S
N914 H927 0.985 . S
N915 C917 1.356 . S
N915 H920 0.984 . S
N915 H921 0.985 . S
C916 C910 1.379 . S
C916 C913 1.363 . S
C916 N914 1.356 . S
C917 C911 1.363 . S
C917 C912 1.379 . S
C917 N915 1.356 . S
N918 C910 1.356 . S
N918 H924 0.984 . S
N918 H925 0.984 . S
N919 C912 1.356 . S
N919 H922 0.984 . S
N919 H923 0.985 1_455 S
H920 N915 0.984 . S
H921 N915 0.985 . S
H922 N919 0.984 . S
H923 N919 0.985 1_655 S
H924 N918 0.984 . S
H925 N918 0.984 . S
H926 N914 0.984 . S
H927 N914 0.985 . S
C928 C929 1.363 . S
C928 C934 1.379 . S
C928 N936 1.356 . S
C929 C928 1.363 . S
C929 C935 1.363 . S
C930 C931 1.363 . S
C930 C935 1.379 . S
C930 N937 1.356 . S
C931 C930 1.363 . S
C931 C934 1.363 . S
N932 C934 1.356 . S
N932 H944 0.984 . S
N932 H945 0.985 . S
N933 C935 1.356 . S
N933 H938 0.984 . S
N933 H939 0.985 . S
C934 C928 1.379 . S
C934 C931 1.363 . S
C934 N932 1.356 . S
C935 C929 1.363 . S
C935 C930 1.379 . S
C935 N933 1.356 . S
N936 C928 1.356 . S
N936 H942 0.984 . S
N936 H943 0.984 . S
N937 C930 1.356 . S
N937 H940 0.984 . S
N937 H941 0.985 . S
H938 N933 0.984 . S
H939 N933 0.985 . S
H940 N937 0.984 . S
H941 N937 0.985 . S
H942 N936 0.984 . S
H943 N936 0.984 . S
H944 N932 0.984 . S
H945 N932 0.985 . S
C946 C947 1.363 . S
C946 C952 1.379 . S
C946 N954 1.356 . S
C947 C946 1.363 . S
C947 C953 1.363 . S
C948 C949 1.363 . S
C948 C953 1.379 . S
C948 N955 1.356 . S
C949 C948 1.363 . S
C949 C952 1.363 . S
N950 C952 1.356 . S
N950 H962 0.984 . S
N950 H963 0.985 . S
N951 C953 1.356 . S
N951 H956 0.984 . S
N951 H957 0.985 . S
C952 C946 1.379 . S
C952 C949 1.363 . S
C952 N950 1.356 . S
C953 C947 1.363 . S
C953 C948 1.379 . S
C953 N951 1.356 . S
N954 C946 1.356 . S
N954 H960 0.984 . S
N954 H961 0.984 . S
N955 C948 1.356 . S
N955 H958 0.984 . S
N955 H959 0.985 . S
H956 N951 0.984 . S
H957 N951 0.985 . S
H958 N955 0.984 . S
H959 N955 0.985 . S
H960 N954 0.984 . S
H961 N954 0.984 . S
H962 N950 0.984 . S
H963 N950 0.985 . S
C964 C965 1.363 . S
C964 C970 1.379 . S
C964 N972 1.356 . S
C965 C964 1.363 . S
C965 C971 1.363 . S
C966 C967 1.363 . S
C966 C971 1.379 . S
C966 N973 1.356 . S
C967 C966 1.363 . S
C967 C970 1.363 . S
N968 C970 1.356 . S
N968 H980 0.984 . S
N968 H981 0.985 . S
N969 C971 1.356 . S
N969 H974 0.984 . S
N969 H975 0.985 . S
C970 C964 1.379 . S
C970 C967 1.363 . S
C970 N968 1.356 . S
C971 C965 1.363 . S
C971 C966 1.379 . S
C971 N969 1.356 . S
N972 C964 1.356 . S
N972 H978 0.984 . S
N972 H979 0.984 . S
N973 C966 1.356 . S
N973 H976 0.984 . S
N973 H977 0.985 . S
H974 N969 0.984 . S
H975 N969 0.985 . S
H976 N973 0.984 . S
H977 N973 0.985 . S
H978 N972 0.984 . S
H979 N972 0.984 . S
H980 N968 0.984 . S
H981 N968 0.985 . S
C982 C983 1.363 . S
C982 C988 1.379 . S
C982 N990 1.356 . S
C983 C982 1.363 . S
C983 C989 1.363 . S
C984 C985 1.363 . S
C984 C989 1.379 . S
C984 N991 1.356 . S
C985 C984 1.363 . S
C985 C988 1.363 . S
N986 C988 1.356 . S
N986 H998 0.984 . S
N986 H999 0.985 . S
N987 C989 1.356 . S
N987 H992 0.984 . S
N987 H993 0.985 . S
C988 C982 1.379 . S
C988 C985 1.363 . S
C988 N986 1.356 . S
C989 C983 1.363 . S
C989 C984 1.379 . S
C989 N987 1.356 . S
N990 C982 1.356 . S
N990 H996 0.984 . S
N990 H997 0.984 . S
N991 C984 1.356 . S
N991 H994 0.984 . S
N991 H995 0.985 . S
H992 N987 0.984 . S
H993 N987 0.985 . S
H994 N991 0.984 . S
H995 N991 0.985 . S
H996 N990 0.984 . S
H997 N990 0.984 . S
H998 N986 0.984 . S
H999 N986 0.985 . S
C1000 C1001 1.363 . S
C1000 C1006 1.379 . S
C1000 N1008 1.356 . S
C1001 C1000 1.363 . S
C1001 C1007 1.363 . S
C1002 C1003 1.363 . S
C1002 C1007 1.379 . S
C1002 N1009 1.356 . S
C1003 C1002 1.363 . S
C1003 C1006 1.363 . S
N1004 C1006 1.356 . S
N1004 H1016 0.984 . S
N1004 H1017 0.985 . S
N1005 C1007 1.356 . S
N1005 H1010 0.984 . S
N1005 H1011 0.985 . S
C1006 C1000 1.379 . S
C1006 C1003 1.363 . S
C1006 N1004 1.356 . S
C1007 C1001 1.363 . S
C1007 C1002 1.379 . S
C1007 N1005 1.356 . S
N1008 C1000 1.356 . S
N1008 H1014 0.984 . S
N1008 H1015 0.984 . S
N1009 C1002 1.356 . S
N1009 H1012 0.984 . S
N1009 H1013 0.985 . S
H1010 N1005 0.984 . S
H1011 N1005 0.985 . S
H1012 N1009 0.984 . S
H1013 N1009 0.985 . S
H1014 N1008 0.984 . S
H1015 N1008 0.984 . S
H1016 N1004 0.984 . S
H1017 N1004 0.985 . S
C1018 C1019 1.363 . S
C1018 C1024 1.379 . S
C1018 N1026 1.356 . S
C1019 C1018 1.363 . S
C1019 C1025 1.363 . S
C1020 C1021 1.363 . S
C1020 C1025 1.379 . S
C1020 N1027 1.356 . S
C1021 C1020 1.363 . S
C1021 C1024 1.363 . S
N1022 C1024 1.356 . S
N1022 H1034 0.984 . S
N1022 H1035 0.985 . S
N1023 C1025 1.356 . S
N1023 H1028 0.984 . S
N1023 H1029 0.985 . S
C1024 C1018 1.379 . S
C1024 C1021 1.363 . S
C1024 N1022 1.356 . S
C1025 C1019 1.363 . S
C1025 C1020 1.379 . S
C1025 N1023 1.356 . S
N1026 C1018 1.356 . S
N1026 H1032 0.984 . S
N1026 H1033 0.984 . S
N1027 C1020 1.356 . S
N1027 H1030 0.984 . S
N1027 H1031 0.985 . S
H1028 N1023 0.984 . S
H1029 N1023 0.985 . S
H1030 N1027 0.984 . S
H1031 N1027 0.985 . S
H1032 N1026 0.984 . S
H1033 N1026 0.984 . S
H1034 N1022 0.984 . S
H1035 N1022 0.985 . S
C1036 C1037 1.363 . S
C1036 C1042 1.379 . S
C1036 N1044 1.356 . S
C1037 C1036 1.363 . S
C1037 C1043 1.363 . S
C1038 C1039 1.363 . S
C1038 C1043 1.379 . S
C1038 N1045 1.356 . S
C1039 C1038 1.363 . S
C1039 C1042 1.363 . S
N1040 C1042 1.356 . S
N1040 H1052 0.984 . S
N1040 H1053 0.985 . S
N1041 C1043 1.356 . S
N1041 H1046 0.984 . S
N1041 H1047 0.985 . S
C1042 C1036 1.379 . S
C1042 C1039 1.363 . S
C1042 N1040 1.356 . S
C1043 C1037 1.363 . S
C1043 C1038 1.379 . S
C1043 N1041 1.356 . S
N1044 C1036 1.356 . S
N1044 H1050 0.984 . S
N1044 H1051 0.984 . S
N1045 C1038 1.356 . S
N1045 H1048 0.984 . S
N1045 H1049 0.985 . S
H1046 N1041 0.984 . S
H1047 N1041 0.985 . S
H1048 N1045 0.984 . S
H1049 N1045 0.985 . S
H1050 N1044 0.984 . S
H1051 N1044 0.984 . S
H1052 N1040 0.984 . S
H1053 N1040 0.985 . S
C1054 C1055 1.363 . S
C1054 C1060 1.379 . S
C1054 N1062 1.356 . S
C1055 C1054 1.363 . S
C1055 C1061 1.363 . S
C1056 C1057 1.363 . S
C1056 C1061 1.379 . S
C1056 N1063 1.356 . S
C1057 C1056 1.363 . S
C1057 C1060 1.363 . S
N1058 C1060 1.356 . S
N1058 H1070 0.984 . S
N1058 H1071 0.985 . S
N1059 C1061 1.356 . S
N1059 H1064 0.984 . S
N1059 H1065 0.985 . S
C1060 C1054 1.379 . S
C1060 C1057 1.363 . S
C1060 N1058 1.356 . S
C1061 C1055 1.363 . S
C1061 C1056 1.379 . S
C1061 N1059 1.356 . S
N1062 C1054 1.356 . S
N1062 H1068 0.984 . S
N1062 H1069 0.984 . S
N1063 C1056 1.356 . S
N1063 H1066 0.984 . S
N1063 H1067 0.985 . S
H1064 N1059 0.984 . S
H1065 N1059 0.985 . S
H1066 N1063 0.984 . S
H1067 N1063 0.985 . S
H1068 N1062 0.984 . S
H1069 N1062 0.984 . S
H1070 N1058 0.984 . S
H1071 N1058 0.985 . S
C641 C1 1.194 . S
C643 C487 1.419 . S
C659 C80 1.048 . S
C661 C536 1.116 . S
C679 C562 2.481 . S
C677 C140 2.462 . S
C695 C211 2.425 . S
C697 C610 2.394 . S
C715 C522 2.617 . S
C713 C31 2.236 . S
C733 C490 0.921 . S
C731 C61 0.897 . S
C751 C611 1.931 . S
C749 C151 1.948 . S
C769 C579 1.686 . S
C767 C200 1.690 . S
C785 C20 1.712 . S
C787 C607 1.851 . S
C805 C539 2.332 . S
C803 C121 2.416 . S
C821 C181 2.292 . S
C823 C491 2.340 . S
C839 C91 1.229 . S
C841 C576 1.192 . S
C859 C496 1.419 . S
C857 C260 1.286 . S
C875 C320 1.048 . S
C877 C527 1.114 . S
C893 C361 2.463 . S
C895 C571 2.481 . S
C911 C451 2.425 . S
C913 C619 2.396 . S
C929 C271 2.339 . S
C931 C531 2.617 . S
C949 C499 0.921 . S
C947 C301 0.897 . S
C967 C602 1.931 . S
C965 C380 1.916 . S
C985 C570 1.686 . S
C983 C440 1.690 . S
C1001 C241 1.575 . S
C1003 C616 1.852 . S
C1021 C530 2.332 . S
C1019 C391 2.410 . S
C1039 C482 2.340 . S
C1037 C421 2.292 . S
C1055 C331 1.229 . S
C1057 C567 1.192 . S
