# Generated by pormake.
# Topology hwx, (6,3)-cn, num edge types: 1
# Building blocks:
#     Node 0, Type 0, BuildingBlock: IZENUY_clean_sbu_0, # of connection points: 6
#     Node 1, Type 0, BuildingBlock: IZENUY_clean_sbu_0, # of connection points: 6
#     Node 2, Type 0, BuildingBlock: IZENUY_clean_sbu_0, # of connection points: 6
#     Node 3, Type 0, BuildingBlock: IZENUY_clean_sbu_0, # of connection points: 6
#     Node 4, Type 1, BuildingBlock: MIDCAF_clean_linker_0, # of connection points: 3
#     Node 5, Type 1, BuildingBlock: MIDCAF_clean_linker_0, # of connection points: 3
#     Node 6, Type 1, BuildingBlock: MIDCAF_clean_linker_0, # of connection points: 3
#     Node 7, Type 1, BuildingBlock: MIDCAF_clean_linker_0, # of connection points: 3
#     Node 8, Type 1, BuildingBlock: MIDCAF_clean_linker_0, # of connection points: 3
#     Node 9, Type 1, BuildingBlock: MIDCAF_clean_linker_0, # of connection points: 3
#     Node 10, Type 1, BuildingBlock: MIDCAF_clean_linker_0, # of connection points: 3
#     Node 11, Type 1, BuildingBlock: MIDCAF_clean_linker_0, # of connection points: 3
#     Edge 12, Type (0, 1), BuildingBlock: CIFDUS_clean_linker_0, # of connection points: 2
#     Edge 13, Type (0, 1), BuildingBlock: CIFDUS_clean_linker_0, # of connection points: 2
#     Edge 14, Type (0, 1), BuildingBlock: CIFDUS_clean_linker_0, # of connection points: 2
#     Edge 15, Type (0, 1), BuildingBlock: CIFDUS_clean_linker_0, # of connection points: 2
#     Edge 16, Type (0, 1), BuildingBlock: CIFDUS_clean_linker_0, # of connection points: 2
#     Edge 17, Type (0, 1), BuildingBlock: CIFDUS_clean_linker_0, # of connection points: 2
#     Edge 18, Type (0, 1), BuildingBlock: CIFDUS_clean_linker_0, # of connection points: 2
#     Edge 19, Type (0, 1), BuildingBlock: CIFDUS_clean_linker_0, # of connection points: 2
#     Edge 20, Type (0, 1), BuildingBlock: CIFDUS_clean_linker_0, # of connection points: 2
#     Edge 21, Type (0, 1), BuildingBlock: CIFDUS_clean_linker_0, # of connection points: 2
#     Edge 22, Type (0, 1), BuildingBlock: CIFDUS_clean_linker_0, # of connection points: 2
#     Edge 23, Type (0, 1), BuildingBlock: CIFDUS_clean_linker_0, # of connection points: 2
#     Edge 24, Type (0, 1), BuildingBlock: CIFDUS_clean_linker_0, # of connection points: 2
#     Edge 25, Type (0, 1), BuildingBlock: CIFDUS_clean_linker_0, # of connection points: 2
#     Edge 26, Type (0, 1), BuildingBlock: CIFDUS_clean_linker_0, # of connection points: 2
#     Edge 27, Type (0, 1), BuildingBlock: CIFDUS_clean_linker_0, # of connection points: 2
#     Edge 28, Type (0, 1), BuildingBlock: CIFDUS_clean_linker_0, # of connection points: 2
#     Edge 29, Type (0, 1), BuildingBlock: CIFDUS_clean_linker_0, # of connection points: 2
#     Edge 30, Type (0, 1), BuildingBlock: CIFDUS_clean_linker_0, # of connection points: 2
#     Edge 31, Type (0, 1), BuildingBlock: CIFDUS_clean_linker_0, # of connection points: 2
#     Edge 32, Type (0, 1), BuildingBlock: CIFDUS_clean_linker_0, # of connection points: 2
#     Edge 33, Type (0, 1), BuildingBlock: CIFDUS_clean_linker_0, # of connection points: 2
#     Edge 34, Type (0, 1), BuildingBlock: CIFDUS_clean_linker_0, # of connection points: 2
#     Edge 35, Type (0, 1), BuildingBlock: CIFDUS_clean_linker_0, # of connection points: 2
# Relax obj value: 0.053
# Max RMSD: 0.077
# Mean RMSD: 0.069
data_MOF--net-hwx--node1-IZENUY_clean_sbu_0--node2-MIDCAF_clean_linker_0--edge1-CIFDUS_clean_linker_0
_symmetry_space_group_name_H-M    P1
_symmetry_Int_Tables_number       1
_symmetry_cell_setting            triclinic
loop_
_symmetry_equiv_pos_as_xyz
'x, y, z'
_cell_length_a     51.788172
_cell_length_b     51.807971
_cell_length_c     25.228079
_cell_angle_alpha  89.759962
_cell_angle_beta   90.212503
_cell_angle_gamma 90.023199
loop_
_atom_site_label
_atom_site_type_symbol
_atom_site_fract_x
_atom_site_fract_y
_atom_site_fract_z
_atom_type_partial_charge
Fe0 Fe 0.23848 0.21258 0.05248 0.0
Fe1 Fe 0.2427 0.21004 0.93198 0.0
O2 O 0.2326 0.19617 0.99251 0.0
Fe3 Fe 0.21659 0.16598 0.99282 0.0
O4 O 0.19608 0.17335 0.05054 0.0
O5 O 0.20445 0.21413 0.0666 0.0
O6 O 0.2351 0.24511 0.02334 0.0
C7 C 0.22363 0.25247 0.98138 0.0
C8 C 0.24819 0.16013 0.07878 0.0
O9 O 0.22226 0.23787 0.94166 0.0
C10 C 0.25601 0.15995 0.9159 0.0
O11 O 0.27301 0.21211 0.04193 0.0
O12 O 0.27102 0.22662 0.96022 0.0
O13 O 0.24144 0.15163 0.03409 0.0
O14 O 0.24271 0.18302 0.09237 0.0
C15 C 0.19403 0.18856 0.90663 0.0
O16 O 0.26363 0.18299 0.91907 0.0
O17 O 0.23439 0.15325 0.93523 0.0
C18 C 0.2838 0.22208 0.00216 0.0
O19 O 0.21625 0.19612 0.8925 0.0
O20 O 0.19067 0.1785 0.95164 0.0
C21 C 0.18973 0.19488 0.0704 0.0
Fe22 Fe 0.25786 0.71592 0.53663 0.0
Fe23 Fe 0.27819 0.6678 0.4798 0.0
O24 O 0.26425 0.69905 0.4774 0.0
Fe25 Fe 0.25675 0.71361 0.41568 0.0
O26 O 0.27835 0.74045 0.42835 0.0
O27 O 0.26373 0.74808 0.50826 0.0
O28 O 0.2916 0.71537 0.55519 0.0
C29 C 0.30512 0.69523 0.55962 0.0
C30 C 0.21447 0.7275 0.48011 0.0
O31 O 0.29775 0.67413 0.53927 0.0
C32 C 0.241 0.66432 0.39676 0.0
O33 O 0.25083 0.68697 0.57589 0.0
O34 O 0.25166 0.65503 0.51883 0.0
O35 O 0.22864 0.73154 0.44013 0.0
O36 O 0.22369 0.71744 0.52161 0.0
C37 C 0.30436 0.68866 0.39622 0.0
O38 O 0.26106 0.65608 0.42042 0.0
O39 O 0.23475 0.68779 0.39906 0.0
C40 C 0.24429 0.6644 0.56228 0.0
O41 O 0.30583 0.6783 0.44138 0.0
O42 O 0.28334 0.69832 0.37985 0.0
C43 C 0.27651 0.75507 0.46796 0.0
Fe44 Fe 0.75824 0.79365 0.96749 0.0
Fe45 Fe 0.75902 0.79713 0.08866 0.0
O46 O 0.76675 0.81044 0.02591 0.0
Fe47 Fe 0.78303 0.84051 0.02165 0.0
O48 O 0.7568 0.85495 0.98392 0.0
O49 O 0.75246 0.8228 0.92794 0.0
O50 O 0.72425 0.79444 0.98423 0.0
C51 C 0.71497 0.78535 0.02648 0.0
C52 C 0.80629 0.81102 0.94057 0.0
O53 O 0.72926 0.78126 0.06643 0.0
C54 C 0.80877 0.81861 0.10498 0.0
O55 O 0.76231 0.76142 0.99652 0.0
O56 O 0.77813 0.76833 0.07609 0.0
O57 O 0.80076 0.83252 0.96124 0.0
O58 O 0.79171 0.79174 0.94673 0.0
C59 C 0.74769 0.84795 0.10586 0.0
O60 O 0.78731 0.81056 0.12229 0.0
O61 O 0.81049 0.82823 0.0591 0.0
C62 C 0.77469 0.75364 0.03688 0.0
O63 O 0.73944 0.82501 0.10558 0.0
O64 O 0.76813 0.85395 0.08128 0.0
C65 C 0.74771 0.84579 0.94154 0.0
Fe66 Fe 0.71462 0.34032 0.50359 0.0
Fe67 Fe 0.73972 0.29763 0.57099 0.0
O68 O 0.73166 0.31066 0.50808 0.0
Fe69 Fe 0.74046 0.29392 0.44972 0.0
O70 O 0.74543 0.32331 0.40971 0.0
O71 O 0.74041 0.35511 0.46608 0.0
O72 O 0.72966 0.35442 0.56299 0.0
C73 C 0.75022 0.34859 0.58769 0.0
C74 C 0.69178 0.30981 0.42286 0.0
O75 O 0.75865 0.32577 0.58797 0.0
C76 C 0.7246 0.25388 0.51925 0.0
O77 O 0.68758 0.32761 0.54105 0.0
O78 O 0.71116 0.31036 0.60438 0.0
O79 O 0.70714 0.29121 0.42918 0.0
O80 O 0.69655 0.33164 0.44319 0.0
C81 C 0.78395 0.28673 0.50915 0.0
O82 O 0.7212 0.26861 0.55825 0.0
O83 O 0.73704 0.26155 0.479 0.0
C84 C 0.68949 0.31771 0.5866 0.0
O85 O 0.7699 0.28257 0.54921 0.0
O86 O 0.77447 0.29522 0.46642 0.0
C87 C 0.74934 0.34653 0.42327 0.0
C88 C 0.1957 0.57944 0.12406 0.0
C89 C 0.19777 0.56587 0.17225 0.0
C90 C 0.19379 0.53906 0.17253 0.0
C91 C 0.18878 0.52596 0.12534 0.0
H92 H 0.17086 0.4546 0.06501 0.0
H93 H 0.17617 0.40814 0.07306 0.0
H94 H 0.20253 0.40479 0.91093 0.0
H95 H 0.19663 0.4513 0.90233 0.0
H96 H 0.18451 0.50492 0.83131 0.0
H97 H 0.19257 0.52782 0.74825 0.0
H98 H 0.2081 0.59766 0.83589 0.0
H99 H 0.19928 0.57522 0.91818 0.0
H100 H 0.19011 0.57731 0.04019 0.0
H101 H 0.1989 0.60009 0.12251 0.0
H102 H 0.19495 0.52816 0.20919 0.0
H103 H 0.18642 0.5052 0.12699 0.0
N104 N 0.18348 0.49896 0.02661 0.0
N105 N 0.18565 0.49805 0.93381 0.0
N106 N 0.18755 0.53754 0.97893 0.0
C107 C 0.18348 0.4853 0.98083 0.0
C108 C 0.18752 0.52425 0.93256 0.0
C109 C 0.18548 0.52504 0.02613 0.0
C110 C 0.18361 0.45675 0.98317 0.0
C111 C 0.17753 0.44396 0.03081 0.0
C112 C 0.18069 0.41732 0.03557 0.0
C113 C 0.19013 0.40281 0.99293 0.0
C114 C 0.19505 0.41538 0.94446 0.0
C115 C 0.19174 0.44208 0.93957 0.0
C116 C 0.19123 0.53817 0.8816 0.0
C117 C 0.18943 0.52522 0.8328 0.0
C118 C 0.19418 0.53832 0.78514 0.0
C119 C 0.20093 0.56463 0.78522 0.0
C120 C 0.20243 0.57756 0.83404 0.0
C121 C 0.19753 0.56457 0.88148 0.0
C122 C 0.18781 0.53935 0.07671 0.0
C123 C 0.1908 0.56633 0.07679 0.0
C124 C 0.91032 0.84659 0.68018 0.0
C125 C 0.9156 0.83024 0.72338 0.0
C126 C 0.93626 0.81278 0.72023 0.0
C127 C 0.95101 0.81127 0.67403 0.0
H128 H 0.0269 0.79976 0.61183 0.0
H129 H 0.06969 0.7806 0.60925 0.0
H130 H 0.06092 0.76724 0.44117 0.0
H131 H 0.01834 0.78707 0.4433 0.0
H132 H 0.96609 0.80478 0.38501 0.0
H133 H 0.9363 0.80474 0.30937 0.0
H134 H 0.88177 0.84957 0.39935 0.0
H135 H 0.91115 0.84974 0.47456 0.0
H136 H 0.91968 0.85708 0.60048 0.0
H137 H 0.89436 0.86008 0.68152 0.0
H138 H 0.94072 0.80006 0.75319 0.0
H139 H 0.96642 0.79717 0.67213 0.0
N140 N 0.98194 0.81214 0.57675 0.0
N141 N 0.98011 0.81224 0.48369 0.0
N142 N 0.94547 0.82838 0.53293 0.0
C143 C 0.99319 0.80697 0.52936 0.0
C144 C 0.95624 0.82308 0.48525 0.0
C145 C 0.95812 0.82294 0.57875 0.0
C146 C 0.01915 0.79504 0.52773 0.0
C147 C 0.03402 0.79273 0.57426 0.0
C148 C 0.05853 0.78158 0.57289 0.0
C149 C 0.06872 0.77235 0.52504 0.0
C150 C 0.05379 0.77449 0.47856 0.0
C151 C 0.02932 0.78578 0.47985 0.0
C152 C 0.94078 0.82678 0.43629 0.0
C153 C 0.94799 0.81509 0.38828 0.0
C154 C 0.93101 0.8151 0.34491 0.0
C155 C 0.90663 0.82676 0.34906 0.0
C156 C 0.9003 0.84004 0.39557 0.0
C157 C 0.91717 0.8401 0.43865 0.0
C158 C 0.94496 0.82682 0.62991 0.0
C159 C 0.92473 0.84477 0.63375 0.0
C160 C 0.83088 0.42966 0.85498 0.0
C161 C 0.81094 0.43488 0.81831 0.0
C162 C 0.79641 0.45767 0.82464 0.0
C163 C 0.80081 0.47396 0.8678 0.0
H164 H 0.81946 0.55397 0.92292 0.0
H165 H 0.81184 0.60018 0.92304 0.0
H166 H 0.79418 0.597 0.09016 0.0
H167 H 0.80247 0.55062 0.0905 0.0
H168 H 0.79418 0.49154 0.14256 0.0
H169 H 0.78454 0.46198 0.2153 0.0
H170 H 0.83124 0.40325 0.1412 0.0
H171 H 0.83999 0.43245 0.06769 0.0
H172 H 0.84929 0.44029 0.92796 0.0
H173 H 0.84311 0.41287 0.85078 0.0
H174 H 0.78064 0.46234 0.79804 0.0
H175 H 0.78851 0.49067 0.87292 0.0
N176 N 0.81685 0.50752 0.95839 0.0
N177 N 0.81587 0.50606 0.05149 0.0
N178 N 0.8216 0.46802 0.00285 0.0
C179 C 0.81511 0.52001 0.00561 0.0
C180 C 0.81928 0.48003 0.05027 0.0
C181 C 0.82028 0.48156 0.95688 0.0
C182 C 0.81137 0.54843 0.0066 0.0
C183 C 0.81402 0.56303 0.95984 0.0
C184 C 0.80955 0.58959 0.95983 0.0
C185 C 0.80212 0.6023 0.00648 0.0
C186 C 0.80008 0.58787 0.05362 0.0
C187 C 0.80469 0.56122 0.05371 0.0
C188 C 0.81755 0.46421 0.09906 0.0
C189 C 0.80279 0.47249 0.14238 0.0
C190 C 0.79731 0.45551 0.18417 0.0
C191 C 0.80674 0.43002 0.18374 0.0
C192 C 0.82305 0.42247 0.14215 0.0
C193 C 0.82823 0.43928 0.10016 0.0
C194 C 0.81935 0.4675 0.90627 0.0
C195 C 0.83471 0.44553 0.89895 0.0
C196 C 0.09674 0.18883 0.34005 0.0
C197 C 0.08391 0.181 0.29382 0.0
C198 C 0.05741 0.17552 0.29561 0.0
C199 C 0.04374 0.17867 0.34297 0.0
H200 H 0.9765 0.21709 0.39878 0.0
H201 H 0.93234 0.23221 0.39545 0.0
H202 H 0.92366 0.21455 0.56217 0.0
H203 H 0.96864 0.20062 0.566 0.0
H204 H 0.03816 0.17274 0.6267 0.0
H205 H 0.06978 0.17246 0.69946 0.0
H206 H 0.1144 0.23062 0.61709 0.0
H207 H 0.08373 0.22959 0.54394 0.0
H208 H 0.09379 0.19794 0.42208 0.0
H209 H 0.11724 0.19304 0.33944 0.0
H210 H 0.04722 0.16949 0.26018 0.0
H211 H 0.02319 0.17478 0.34331 0.0
N212 N 0.01655 0.19524 0.43905 0.0
N213 N 0.01726 0.20166 0.53136 0.0
N214 N 0.05559 0.19291 0.48552 0.0
C215 C 0.00382 0.20056 0.48483 0.0
C216 C 0.04322 0.19784 0.53157 0.0
C217 C 0.04241 0.19121 0.43922 0.0
C218 C 0.97614 0.20765 0.48272 0.0
C219 C 0.96517 0.21621 0.43474 0.0
C220 C 0.93967 0.2248 0.43276 0.0
C221 C 0.92424 0.22465 0.4785 0.0
C222 C 0.93505 0.21545 0.52632 0.0
C223 C 0.96079 0.20725 0.52849 0.0
C224 C 0.05879 0.20102 0.57991 0.0
C225 C 0.05455 0.18571 0.62501 0.0
C226 C 0.07265 0.18561 0.66654 0.0
C227 C 0.09499 0.20111 0.66366 0.0
C228 C 0.09794 0.2178 0.61997 0.0
C229 C 0.08025 0.21746 0.57829 0.0
C230 C 0.05656 0.18685 0.38925 0.0
C231 C 0.08328 0.19154 0.38734 0.0
C232 C 0.6826 0.91963 0.38873 0.0
C233 C 0.68478 0.93042 0.33776 0.0
C234 C 0.6839 0.95745 0.33221 0.0
C235 C 0.6821 0.97331 0.37684 0.0
H236 H 0.67937 0.04999 0.42681 0.0
H237 H 0.68563 0.09641 0.41815 0.0
H238 H 0.70463 0.10095 0.58476 0.0
H239 H 0.69771 0.05478 0.59388 0.0
H240 H 0.69034 0.00455 0.66761 0.0
H241 H 0.69951 0.98311 0.75205 0.0
H242 H 0.70483 0.90995 0.67108 0.0
H243 H 0.69486 0.93096 0.58784 0.0
H244 H 0.67992 0.92629 0.47187 0.0
H245 H 0.68351 0.89893 0.39463 0.0
H246 H 0.68516 0.96638 0.29341 0.0
H247 H 0.68224 0.99405 0.37121 0.0
N248 N 0.68304 0.00515 0.47189 0.0
N249 N 0.68824 0.00844 0.56416 0.0
N250 N 0.68469 0.96784 0.52449 0.0
C251 C 0.68589 0.02004 0.51588 0.0
C252 C 0.6876 0.98233 0.56878 0.0
C253 C 0.68232 0.97898 0.47596 0.0
C254 C 0.68814 0.04852 0.511 0.0
C255 C 0.68469 0.06088 0.46174 0.0
C256 C 0.68842 0.08752 0.45667 0.0
C257 C 0.69577 0.10243 0.50068 0.0
C258 C 0.69864 0.09015 0.55015 0.0
C259 C 0.69481 0.06357 0.55529 0.0
C260 C 0.69183 0.96952 0.62079 0.0
C261 C 0.69322 0.98384 0.668 0.0
C262 C 0.6986 0.97158 0.71639 0.0
C263 C 0.70281 0.94476 0.71854 0.0
C264 C 0.70113 0.93052 0.67134 0.0
C265 C 0.69558 0.94268 0.62327 0.0
C266 C 0.68116 0.96248 0.42801 0.0
C267 C 0.68077 0.93542 0.43321 0.0
C268 C 0.60172 0.32529 0.87896 0.0
C269 C 0.59233 0.31707 0.82964 0.0
C270 C 0.56579 0.31237 0.8234 0.0
C271 C 0.54915 0.31444 0.86686 0.0
H272 H 0.47485 0.3025 0.91626 0.0
H273 H 0.43049 0.28796 0.90891 0.0
H274 H 0.42231 0.29242 0.07899 0.0
H275 H 0.46713 0.30641 0.08675 0.0
H276 H 0.51945 0.32807 0.15843 0.0
H277 H 0.54349 0.3287 0.24292 0.0
H278 H 0.61439 0.31484 0.15842 0.0
H279 H 0.59103 0.31446 0.0752 0.0
H280 H 0.5934 0.33331 0.95974 0.0
H281 H 0.62205 0.32953 0.88449 0.0
H282 H 0.55813 0.30606 0.78559 0.0
H283 H 0.52894 0.30972 0.86153 0.0
N284 N 0.51683 0.31529 0.9618 0.0
N285 N 0.51392 0.31534 0.0549 0.0
N286 N 0.55354 0.32302 0.01331 0.0
C287 C 0.50237 0.31278 0.00652 0.0
C288 C 0.53963 0.32047 0.05839 0.0
C289 C 0.54243 0.32058 0.96496 0.0
C290 C 0.47472 0.30556 0.00219 0.0
C291 C 0.46367 0.30055 0.95224 0.0
C292 C 0.4381 0.29232 0.94791 0.0
C293 C 0.42284 0.28898 0.99334 0.0
C294 C 0.43368 0.29444 0.04325 0.0
C295 C 0.45934 0.30262 0.04765 0.0
C296 C 0.55329 0.32125 0.11005 0.0
C297 C 0.54016 0.32519 0.1581 0.0
C298 C 0.55385 0.32563 0.20627 0.0
C299 C 0.58068 0.32157 0.20693 0.0
C300 C 0.59366 0.31771 0.15899 0.0
C301 C 0.5802 0.31768 0.11123 0.0
C302 C 0.55886 0.32141 0.91703 0.0
C303 C 0.58521 0.32751 0.92206 0.0
C304 C 0.31206 0.07575 0.65509 0.0
C305 C 0.30532 0.06087 0.69965 0.0
C306 C 0.30598 0.03384 0.69597 0.0
C307 C 0.31216 0.02194 0.64803 0.0
H308 H 0.33481 0.95267 0.57446 0.0
H309 H 0.32916 0.90614 0.5747 0.0
H310 H 0.29859 0.90977 0.41527 0.0
H311 H 0.30483 0.95653 0.41446 0.0
H312 H 0.29614 0.01521 0.36164 0.0
H313 H 0.28462 0.04458 0.28943 0.0
H314 H 0.32205 0.10726 0.37224 0.0
H315 H 0.33258 0.07819 0.44501 0.0
H316 H 0.32231 0.07602 0.57319 0.0
H317 H 0.31149 0.09663 0.65647 0.0
H318 H 0.30114 0.02189 0.72985 0.0
H319 H 0.31165 0.00107 0.64612 0.0
N320 N 0.32101 0.99849 0.5458 0.0
N321 N 0.31883 0.00175 0.453 0.0
N322 N 0.31905 0.0391 0.50534 0.0
C323 C 0.32056 0.98692 0.49757 0.0
C324 C 0.31842 0.02794 0.45675 0.0
C325 C 0.32022 0.02455 0.55007 0.0
C326 C 0.31992 0.95839 0.49469 0.0
C327 C 0.32711 0.94359 0.53918 0.0
C328 C 0.32379 0.91689 0.53943 0.0
C329 C 0.31302 0.9043 0.49537 0.0
C330 C 0.30705 0.91889 0.44978 0.0
C331 C 0.31055 0.94569 0.44938 0.0
C332 C 0.31496 0.04446 0.40929 0.0
C333 C 0.30222 0.03518 0.36395 0.0
C334 C 0.29568 0.05204 0.32249 0.0
C335 C 0.30204 0.07843 0.32532 0.0
C336 C 0.3162 0.08724 0.36933 0.0
C337 C 0.3224 0.07053 0.41094 0.0
C338 C 0.31757 0.03687 0.60266 0.0
C339 C 0.3181 0.06389 0.60716 0.0
C340 C 0.40002 0.67169 0.11031 0.0
C341 C 0.40498 0.68483 0.15775 0.0
C342 C 0.42849 0.69808 0.16387 0.0
C343 C 0.44572 0.7 0.1213 0.0
H344 H 0.51855 0.72725 0.06663 0.0
H345 H 0.56185 0.74551 0.06827 0.0
H346 H 0.56846 0.73307 0.89952 0.0
H347 H 0.52487 0.71569 0.89756 0.0
H348 H 0.47024 0.70101 0.82845 0.0
H349 H 0.44388 0.70587 0.74758 0.0
H350 H 0.37578 0.71552 0.84342 0.0
H351 H 0.40153 0.71012 0.92349 0.0
H352 H 0.41202 0.66427 0.03109 0.0
H353 H 0.38225 0.66093 0.10502 0.0
H354 H 0.43271 0.70835 0.20021 0.0
H355 H 0.46292 0.71172 0.1257 0.0
N356 N 0.47902 0.70323 0.02556 0.0
N357 N 0.47827 0.71014 0.93328 0.0
N358 N 0.44135 0.6952 0.97671 0.0
C359 C 0.49134 0.71043 0.98019 0.0
C360 C 0.45319 0.70269 0.93147 0.0
C361 C 0.45406 0.69517 0.02373 0.0
C362 C 0.51821 0.72007 0.98195 0.0
C363 C 0.52929 0.72828 0.02992 0.0
C364 C 0.55417 0.7387 0.03087 0.0
C365 C 0.56865 0.74086 0.98397 0.0
C366 C 0.55769 0.7322 0.93619 0.0
C367 C 0.53273 0.72205 0.93515 0.0
C368 C 0.43792 0.70506 0.8822 0.0
C369 C 0.44963 0.70411 0.83205 0.0
C370 C 0.43466 0.70686 0.786 0.0
C371 C 0.408 0.71128 0.78978 0.0
C372 C 0.39639 0.71236 0.83977 0.0
C373 C 0.41113 0.70906 0.88548 0.0
C374 C 0.43953 0.68872 0.07227 0.0
C375 C 0.41708 0.67362 0.06804 0.0
H376 H 0.15679 0.15642 0.10198 0.0
H377 H 0.17143 0.23819 0.11787 0.0
H378 H 0.13809 0.2413 0.18495 0.0
H379 H 0.108 0.22027 0.24568 0.0
H380 H 0.09261 0.13893 0.23149 0.0
H381 H 0.12274 0.13616 0.15669 0.0
C382 C 0.15244 0.17497 0.11961 0.0
C383 C 0.167 0.19691 0.10554 0.0
C384 C 0.13321 0.17668 0.15864 0.0
C385 C 0.16087 0.22086 0.12841 0.0
C386 C 0.14177 0.22272 0.16686 0.0
C387 C 0.11102 0.20206 0.22552 0.0
C388 C 0.09848 0.1798 0.24385 0.0
C389 C 0.12836 0.20067 0.18326 0.0
C390 C 0.10217 0.15627 0.21763 0.0
C391 C 0.11947 0.1547 0.17523 0.0
H392 H 0.24736 0.61216 0.57486 0.0
H393 H 0.211 0.68031 0.63791 0.0
H394 H 0.19216 0.65482 0.70954 0.0
H395 H 0.18873 0.61405 0.758 0.0
H396 H 0.22794 0.54643 0.69971 0.0
H397 H 0.2423 0.57059 0.62191 0.0
C398 C 0.23498 0.62129 0.60385 0.0
C399 C 0.23067 0.64808 0.60133 0.0
C400 C 0.22477 0.60663 0.6459 0.0
C401 C 0.21477 0.65974 0.63935 0.0
C402 C 0.204 0.64519 0.6803 0.0
C403 C 0.20049 0.60457 0.72841 0.0
C404 C 0.20744 0.5785 0.73518 0.0
C405 C 0.20939 0.61877 0.68469 0.0
C406 C 0.2221 0.5664 0.69553 0.0
C407 C 0.23053 0.58028 0.65116 0.0
H408 H 0.8084 0.80668 0.2091 0.0
H409 H 0.85888 0.83363 0.0848 0.0
H410 H 0.8943 0.83764 0.14903 0.0
H411 H 0.91028 0.83495 0.242 0.0
H412 H 0.85821 0.8093 0.36456 0.0
H413 H 0.82399 0.80339 0.29934 0.0
C414 C 0.82715 0.81333 0.19569 0.0
C415 C 0.83092 0.81992 0.14218 0.0
C416 C 0.84711 0.81598 0.23269 0.0
C417 C 0.85541 0.8285 0.12582 0.0
C418 C 0.87565 0.83082 0.16254 0.0
C419 C 0.89144 0.82797 0.25409 0.0
C420 C 0.88661 0.82283 0.30795 0.0
C421 C 0.87164 0.82485 0.21626 0.0
C422 C 0.86219 0.81379 0.3234 0.0
C423 C 0.84267 0.81029 0.28615 0.0
H424 H 0.77824 0.33977 0.67683 0.0
H425 H 0.74963 0.40096 0.57618 0.0
H426 H 0.76808 0.43318 0.63611 0.0
H427 H 0.7907 0.44381 0.71888 0.0
H428 H 0.81456 0.38205 0.82403 0.0
H429 H 0.80046 0.35039 0.75964 0.0
C430 C 0.77627 0.36016 0.66773 0.0
C431 C 0.76261 0.368 0.6222 0.0
C432 C 0.78623 0.37852 0.70305 0.0
C433 C 0.75995 0.39448 0.61122 0.0
C434 C 0.77052 0.41289 0.6454 0.0
C435 C 0.79268 0.42347 0.72816 0.0
C436 C 0.80389 0.41563 0.77667 0.0
C437 C 0.78337 0.40512 0.69189 0.0
C438 C 0.80668 0.38899 0.78684 0.0
C439 C 0.79828 0.3707 0.75021 0.0
H440 H 0.65241 0.34377 0.40323 0.0
H441 H 0.68143 0.26868 0.35925 0.0
H442 H 0.64773 0.26473 0.29242 0.0
H443 H 0.6125 0.28397 0.24107 0.0
H444 H 0.58301 0.35881 0.28327 0.0
H445 H 0.61404 0.3613 0.35691 0.0
C446 C 0.65125 0.32648 0.37928 0.0
C447 C 0.66974 0.30676 0.38578 0.0
C448 C 0.63171 0.32425 0.34067 0.0
C449 C 0.66767 0.2843 0.35491 0.0
C450 C 0.64838 0.28197 0.31658 0.0
C451 C 0.61268 0.30065 0.26696 0.0
C452 C 0.59578 0.32127 0.25679 0.0
C453 C 0.63068 0.30203 0.30839 0.0
C454 C 0.59586 0.34269 0.29068 0.0
C455 C 0.61372 0.34418 0.33238 0.0
H456 H 0.24194 0.11161 0.8843 0.0
H457 H 0.30321 0.16786 0.87108 0.0
H458 H 0.32519 0.14081 0.80676 0.0
H459 H 0.32517 0.10316 0.74839 0.0
H460 H 0.26335 0.04757 0.75901 0.0
H461 H 0.24382 0.07207 0.83097 0.0
C462 C 0.26024 0.11783 0.86784 0.0
C463 C 0.27065 0.14194 0.88193 0.0
C464 C 0.27272 0.1023 0.83029 0.0
C465 C 0.29453 0.14956 0.86048 0.0
C466 C 0.30716 0.13411 0.82364 0.0
C467 C 0.30751 0.09634 0.76672 0.0
C468 C 0.29563 0.07373 0.74808 0.0
C469 C 0.29611 0.11078 0.80727 0.0
C470 C 0.273 0.06484 0.77285 0.0
C471 C 0.26169 0.07896 0.81371 0.0
H472 H 0.304 0.69914 0.29132 0.0
H473 H 0.35448 0.67481 0.41854 0.0
H474 H 0.3906 0.6721 0.35637 0.0
H475 H 0.40757 0.67605 0.26474 0.0
H476 H 0.35581 0.69935 0.13898 0.0
H477 H 0.32045 0.70305 0.2018 0.0
C478 C 0.32289 0.69331 0.3057 0.0
C479 C 0.32651 0.68719 0.35949 0.0
C480 C 0.34335 0.69153 0.26988 0.0
C481 C 0.35114 0.67955 0.37722 0.0
C482 C 0.37181 0.67802 0.34173 0.0
C483 C 0.38854 0.682 0.25142 0.0
C484 C 0.38417 0.68718 0.19738 0.0
C485 C 0.36811 0.68388 0.28784 0.0
C486 C 0.35948 0.69486 0.18032 0.0
C487 C 0.33929 0.6971 0.21619 0.0
H488 H 0.75447 0.89734 0.92431 0.0
H489 H 0.70985 0.83151 0.87368 0.0
H490 H 0.68967 0.85738 0.80391 0.0
H491 H 0.6873 0.89744 0.75299 0.0
H492 H 0.73483 0.96233 0.79762 0.0
H493 H 0.75062 0.93844 0.87485 0.0
C494 C 0.74004 0.88885 0.89845 0.0
C495 C 0.73373 0.86257 0.90381 0.0
C496 C 0.72906 0.90365 0.85729 0.0
C497 C 0.71516 0.85167 0.86988 0.0
C498 C 0.70362 0.86643 0.83004 0.0
C499 C 0.70118 0.90639 0.77946 0.0
C500 C 0.71007 0.93155 0.76896 0.0
C501 C 0.71091 0.89223 0.82256 0.0
C502 C 0.72748 0.94306 0.80474 0.0
C503 C 0.73673 0.92931 0.84873 0.0
H504 H 0.83609 0.85064 0.90591 0.0
H505 H 0.82605 0.76819 0.89176 0.0
H506 H 0.86074 0.76663 0.82636 0.0
H507 H 0.89195 0.7892 0.769 0.0
H508 H 0.90024 0.8718 0.78077 0.0
H509 H 0.8682 0.8728 0.85171 0.0
C510 C 0.84155 0.83225 0.88891 0.0
C511 C 0.82834 0.80958 0.90351 0.0
C512 C 0.86116 0.83156 0.85084 0.0
C513 C 0.83577 0.78596 0.88099 0.0
C514 C 0.85561 0.78505 0.84361 0.0
C515 C 0.88701 0.80732 0.78784 0.0
C516 C 0.89838 0.8304 0.76997 0.0
C517 C 0.86818 0.80778 0.8277 0.0
C518 C 0.89161 0.85384 0.79391 0.0
C519 C 0.87332 0.8544 0.83434 0.0
H520 H 0.76262 0.33777 0.32064 0.0
H521 H 0.76483 0.39613 0.44227 0.0
H522 H 0.78395 0.4267 0.37986 0.0
H523 H 0.7988 0.43734 0.2899 0.0
H524 H 0.79443 0.37936 0.16767 0.0
H525 H 0.77798 0.34816 0.23146 0.0
C526 C 0.76741 0.35712 0.33368 0.0
C527 C 0.76214 0.36463 0.38603 0.0
C528 C 0.77815 0.37472 0.29748 0.0
C529 C 0.7685 0.38983 0.4021 0.0
C530 C 0.77947 0.40736 0.36645 0.0
C531 C 0.79417 0.41792 0.27714 0.0
C532 C 0.79802 0.4108 0.22395 0.0
C533 C 0.78412 0.40011 0.31385 0.0
C534 C 0.7922 0.38536 0.20846 0.0
C535 C 0.78253 0.3675 0.24484 0.0
H536 H 0.19713 0.19509 0.80035 0.0
H537 H 0.14225 0.18447 0.92685 0.0
H538 H 0.10658 0.1875 0.86318 0.0
H539 H 0.09106 0.19408 0.77138 0.0
H540 H 0.14685 0.20217 0.64545 0.0
H541 H 0.18194 0.19961 0.70929 0.0
C542 C 0.17738 0.19345 0.81411 0.0
C543 C 0.17238 0.18966 0.86827 0.0
C544 C 0.15705 0.19497 0.77739 0.0
C545 C 0.14664 0.18732 0.88529 0.0
C546 C 0.12623 0.18912 0.84893 0.0
C547 C 0.11088 0.19506 0.75784 0.0
C548 C 0.11614 0.19881 0.7036 0.0
C549 C 0.13121 0.19301 0.79482 0.0
C550 C 0.14205 0.20009 0.68699 0.0
C551 C 0.16223 0.19838 0.72344 0.0
H552 H 0.2519 0.61433 0.37242 0.0
H553 H 0.19909 0.6764 0.33527 0.0
H554 H 0.17984 0.65065 0.26482 0.0
H555 H 0.18022 0.61188 0.20915 0.0
H556 H 0.23364 0.55031 0.24499 0.0
H557 H 0.25011 0.57434 0.32095 0.0
C558 C 0.236 0.62215 0.34935 0.0
C559 C 0.22724 0.64741 0.35877 0.0
C560 C 0.22515 0.60736 0.30844 0.0
C561 C 0.20643 0.65711 0.32867 0.0
C562 C 0.1954 0.64242 0.28823 0.0
C563 C 0.1954 0.60372 0.23375 0.0
C564 C 0.20579 0.57945 0.22126 0.0
C565 C 0.20501 0.61777 0.27697 0.0
C566 C 0.22516 0.56888 0.25399 0.0
C567 C 0.23472 0.58268 0.29722 0.0
H568 H 0.32159 0.73448 0.62224 0.0
H569 H 0.34049 0.65671 0.5752 0.0
H570 H 0.37638 0.65603 0.63827 0.0
H571 H 0.3999 0.67617 0.71259 0.0
H572 H 0.37898 0.75272 0.76273 0.0
H573 H 0.34657 0.75545 0.69212 0.0
C574 C 0.33367 0.71743 0.62534 0.0
C575 C 0.32814 0.69557 0.59447 0.0
C576 C 0.35393 0.71699 0.66228 0.0
C577 C 0.34413 0.67372 0.59892 0.0
C578 C 0.36468 0.67331 0.63492 0.0
C579 C 0.38857 0.69359 0.70707 0.0
C580 C 0.3917 0.71427 0.74223 0.0
C581 C 0.36943 0.69464 0.66757 0.0
C582 C 0.37677 0.73666 0.73573 0.0
C583 C 0.35822 0.73815 0.69565 0.0
H584 H 0.70688 0.84158 0.17343 0.0
H585 H 0.76171 0.8983 0.11762 0.0
H586 H 0.74553 0.92938 0.18134 0.0
H587 H 0.71869 0.93933 0.25794 0.0
H588 H 0.66356 0.88321 0.31437 0.0
H589 H 0.67707 0.8531 0.24549 0.0
C590 C 0.71512 0.86081 0.17484 0.0
C591 C 0.73575 0.86738 0.14115 0.0
C592 C 0.70584 0.8787 0.21199 0.0
C593 C 0.74602 0.89252 0.14334 0.0
C594 C 0.73679 0.91038 0.17984 0.0
C595 C 0.70915 0.92077 0.25449 0.0
C596 C 0.69026 0.91352 0.29158 0.0
C597 C 0.71708 0.90352 0.21504 0.0
C598 C 0.67844 0.88916 0.28686 0.0
C599 C 0.68611 0.87194 0.2474 0.0
H600 H 0.68638 0.29389 0.6816 0.0
H601 H 0.64206 0.34076 0.57258 0.0
H602 H 0.60684 0.34312 0.63691 0.0
H603 H 0.59018 0.33448 0.72737 0.0
H604 H 0.63583 0.28845 0.83543 0.0
H605 H 0.66902 0.28313 0.76813 0.0
C606 C 0.669 0.30457 0.67164 0.0
C607 C 0.66703 0.31743 0.62266 0.0
C608 C 0.64911 0.3061 0.70883 0.0
C609 C 0.64416 0.33081 0.61019 0.0
C610 C 0.62404 0.33222 0.647 0.0
C611 C 0.60727 0.32304 0.73568 0.0
C612 C 0.6108 0.31213 0.78632 0.0
C613 C 0.62651 0.32033 0.69689 0.0
C614 C 0.63297 0.29735 0.79691 0.0
C615 C 0.6519 0.29426 0.75849 0.0
H616 H 0.2555 0.16814 0.18416 0.0
H617 H 0.26787 0.11193 0.06099 0.0
H618 H 0.2864 0.08202 0.12584 0.0
H619 H 0.29843 0.07154 0.21792 0.0
H620 H 0.28382 0.12726 0.3411 0.0
H621 H 0.26733 0.15771 0.27563 0.0
C622 C 0.26235 0.14941 0.17134 0.0
C623 C 0.26021 0.14231 0.11777 0.0
C624 C 0.27272 0.13219 0.20885 0.0
C625 C 0.26914 0.11788 0.10203 0.0
C626 C 0.27977 0.10075 0.13908 0.0
C627 C 0.29151 0.09027 0.23052 0.0
C628 C 0.2926 0.09705 0.28448 0.0
C629 C 0.28148 0.10762 0.1927 0.0
C630 C 0.28379 0.12161 0.29982 0.0
C631 C 0.2741 0.13902 0.26244 0.0
H632 H 0.22824 0.29087 0.05396 0.0
H633 H 0.19786 0.27457 0.89798 0.0
H634 H 0.18398 0.31934 0.88855 0.0
H635 H 0.18147 0.36345 0.92357 0.0
H636 H 0.2131 0.37981 0.07839 0.0
H637 H 0.22505 0.33463 0.08949 0.0
C638 C 0.21851 0.29705 0.01794 0.0
C639 C 0.21429 0.27938 0.97665 0.0
C640 C 0.2107 0.32286 0.01257 0.0
C641 C 0.20154 0.28777 0.93033 0.0
C642 C 0.19356 0.31339 0.92485 0.0
C643 C 0.19106 0.35714 0.95963 0.0
C644 C 0.19631 0.37502 7e-05 0.0
C645 C 0.19826 0.33116 0.96551 0.0
C646 C 0.20844 0.36642 0.04691 0.0
C647 C 0.21549 0.3406 0.05317 0.0
H648 H 0.17743 0.71884 0.5543 0.0
H649 H 0.19108 0.75775 0.40523 0.0
H650 H 0.14718 0.77467 0.40578 0.0
H651 H 0.10541 0.77951 0.44963 0.0
H652 H 0.09115 0.7397 0.59732 0.0
H653 H 0.13497 0.72237 0.59653 0.0
C654 C 0.17081 0.73103 0.52192 0.0
C655 C 0.1876 0.73713 0.47999 0.0
C656 C 0.1455 0.74066 0.52232 0.0
C657 C 0.17861 0.75275 0.43809 0.0
C658 C 0.1535 0.76249 0.43835 0.0
C659 C 0.11173 0.76675 0.48129 0.0
C660 C 0.09502 0.761 0.52352 0.0
C661 C 0.13684 0.75666 0.48036 0.0
C662 C 0.10373 0.74477 0.5647 0.0
C663 C 0.12874 0.73472 0.56415 0.0
H664 H 0.76485 0.71643 0.9645 0.0
H665 H 0.80238 0.72887 0.11534 0.0
H666 H 0.81436 0.68316 0.11934 0.0
H667 H 0.81394 0.63954 0.0797 0.0
H668 H 0.77498 0.62791 0.93003 0.0
H669 H 0.76405 0.67353 0.92582 0.0
C670 C 0.7757 0.70927 0.99835 0.0
C671 C 0.78265 0.72614 0.0396 0.0
C672 C 0.78235 0.68307 0.00053 0.0
C673 C 0.79671 0.71635 0.08305 0.0
C674 C 0.80356 0.6902 0.08536 0.0
C675 C 0.80291 0.64697 0.04637 0.0
C676 C 0.7955 0.63026 0.00504 0.0
C677 C 0.79639 0.67334 0.04438 0.0
C678 C 0.7814 0.64033 0.9619 0.0
C679 C 0.77497 0.66642 0.95959 0.0
H680 H 0.81033 0.26286 0.43106 0.0
H681 H 0.81765 0.29045 0.59136 0.0
H682 H 0.86195 0.27405 0.59599 0.0
H683 H 0.89832 0.2517 0.55447 0.0
H684 H 0.88916 0.22014 0.39723 0.0
H685 H 0.846 0.23853 0.39122 0.0
C686 C 0.82178 0.26548 0.46674 0.0
C687 C 0.81101 0.27805 0.5106 0.0
C688 C 0.84684 0.25524 0.46971 0.0
C689 C 0.82571 0.28088 0.55709 0.0
C690 C 0.85095 0.27148 0.55975 0.0
C691 C 0.88681 0.24843 0.51915 0.0
C692 C 0.89727 0.23467 0.47624 0.0
C693 C 0.86165 0.25845 0.51642 0.0
C694 C 0.88201 0.23111 0.43052 0.0
C695 C 0.85718 0.24148 0.4271 0.0
H696 H 0.73297 0.21573 0.4475 0.0
H697 H 0.69688 0.2306 0.59839 0.0
H698 H 0.68393 0.18539 0.60489 0.0
H699 H 0.68362 0.14143 0.5687 0.0
H700 H 0.72105 0.12648 0.4193 0.0
H701 H 0.73221 0.17203 0.41092 0.0
C702 C 0.72221 0.20916 0.48181 0.0
C703 C 0.71607 0.22659 0.52252 0.0
C704 C 0.71494 0.1831 0.48549 0.0
C705 C 0.70203 0.21763 0.56656 0.0
C706 C 0.69458 0.19176 0.57032 0.0
C707 C 0.69435 0.14809 0.53443 0.0
C708 C 0.70147 0.13046 0.49474 0.0
C709 C 0.70111 0.17428 0.53023 0.0
C710 C 0.71497 0.1396 0.45014 0.0
C711 C 0.72156 0.16564 0.44549 0.0
H712 H 0.30827 0.25656 0.93832 0.0
H713 H 0.31953 0.20911 0.07756 0.0
H714 H 0.36341 0.22578 0.0874 0.0
H715 H 0.3986 0.25372 0.05627 0.0
H716 H 0.38659 0.30237 0.91904 0.0
H717 H 0.34304 0.28515 0.90843 0.0
C718 C 0.32035 0.24975 0.97068 0.0
C719 C 0.31064 0.23157 0.00706 0.0
C720 C 0.34542 0.25964 0.97651 0.0
C721 C 0.32651 0.22313 0.04904 0.0
C722 C 0.3516 0.23266 0.05472 0.0
C723 C 0.38635 0.26081 0.02445 0.0
C724 C 0.39592 0.27927 0.98846 0.0
C725 C 0.36121 0.251 0.01882 0.0
C726 C 0.37988 0.28791 0.9469 0.0
C727 C 0.35492 0.27816 0.94091 0.0
H728 H 0.27449 0.79141 0.54469 0.0
H729 H 0.30111 0.77895 0.38485 0.0
H730 H 0.31544 0.82388 0.3795 0.0
H731 H 0.31923 0.86713 0.41964 0.0
H732 H 0.29131 0.87901 0.57875 0.0
H733 H 0.27894 0.8338 0.58497 0.0
C734 C 0.28348 0.79842 0.50863 0.0
C735 C 0.28653 0.78183 0.46514 0.0
C736 C 0.2915 0.82421 0.50569 0.0
C737 C 0.29841 0.7913 0.41891 0.0
C738 C 0.30659 0.81701 0.41578 0.0
C739 C 0.31038 0.85981 0.45557 0.0
C740 C 0.30636 0.87645 0.49873 0.0
C741 C 0.30299 0.83372 0.45877 0.0
C742 C 0.29508 0.86658 0.54524 0.0
C743 C 0.2878 0.84074 0.54875 0.0
H744 H 0.67747 0.79396 0.95245 0.0
H745 H 0.69156 0.75635 0.10295 0.0
H746 H 0.64766 0.7395 0.10307 0.0
H747 H 0.60585 0.73406 0.05923 0.0
H748 H 0.59091 0.77293 0.91053 0.0
H749 H 0.63474 0.79021 0.91059 0.0
C750 C 0.67092 0.78213 0.98534 0.0
C751 C 0.68787 0.77633 0.02743 0.0
C752 C 0.64558 0.7725 0.98533 0.0
C753 C 0.67898 0.76114 0.06996 0.0
C754 C 0.65387 0.75141 0.07006 0.0
C755 C 0.612 0.74662 0.02717 0.0
C756 C 0.59509 0.75203 0.98484 0.0
C757 C 0.63708 0.75682 0.02781 0.0
C758 C 0.60364 0.76802 0.94319 0.0
C759 C 0.62865 0.77808 0.94335 0.0
loop_
_geom_bond_atom_site_label_1
_geom_bond_atom_site_label_2
_geom_bond_distance
_geom_bond_site_symmetry_2
_ccdc_geom_bond_type
Fe0 O2 1.918 . S
Fe0 O5 1.997 . S
Fe0 O6 2.002 . S
Fe0 O11 1.976 . S
Fe0 O14 1.996 . S
Fe1 O2 1.918 1_556 S
Fe1 O9 1.997 . S
Fe1 O12 1.996 . S
Fe1 O16 1.976 . S
Fe1 O19 2.002 . S
O2 Fe0 1.918 . S
O2 Fe1 1.918 1_554 S
O2 Fe3 1.918 . S
Fe3 O2 1.918 . S
Fe3 O4 2.002 . S
Fe3 O13 1.976 . S
Fe3 O17 1.996 1_554 S
Fe3 O20 1.997 1_554 S
O4 Fe3 2.002 . S
O4 C21 1.295 . S
O5 Fe0 1.997 . S
O5 C21 1.235 . S
O6 Fe0 2.002 . S
O6 C7 1.295 . S
C7 O6 1.295 . S
C7 O9 1.235 1_554 S
C8 O13 1.287 . S
C8 O14 1.255 . S
O9 Fe1 1.997 . S
O9 C7 1.235 1_556 S
C10 O16 1.287 . S
C10 O17 1.255 . S
O11 Fe0 1.976 . S
O11 C18 1.299 . S
O12 Fe1 1.996 . S
O12 C18 1.242 1_556 S
O13 Fe3 1.976 . S
O13 C8 1.287 . S
O14 Fe0 1.996 . S
O14 C8 1.255 . S
C15 O19 1.295 . S
C15 O20 1.235 . S
O16 Fe1 1.976 . S
O16 C10 1.287 . S
O17 Fe3 1.996 1_556 S
O17 C10 1.255 . S
C18 O11 1.299 . S
C18 O12 1.242 1_554 S
O19 Fe1 2.002 . S
O19 C15 1.295 . S
O20 Fe3 1.997 1_556 S
O20 C15 1.235 . S
C21 O4 1.295 . S
C21 O5 1.235 . S
Fe22 O24 1.918 . S
Fe22 O27 1.997 . S
Fe22 O28 2.002 . S
Fe22 O33 1.976 . S
Fe22 O36 1.996 . S
Fe23 O24 1.918 . S
Fe23 O31 1.997 . S
Fe23 O34 1.996 . S
Fe23 O38 1.976 . S
Fe23 O41 2.002 . S
O24 Fe22 1.918 . S
O24 Fe23 1.918 . S
O24 Fe25 1.918 . S
Fe25 O24 1.918 . S
Fe25 O26 2.002 . S
Fe25 O35 1.976 . S
Fe25 O39 1.996 . S
Fe25 O42 1.997 . S
O26 Fe25 2.002 . S
O26 C43 1.295 . S
O27 Fe22 1.997 . S
O27 C43 1.235 . S
O28 Fe22 2.002 . S
O28 C29 1.295 . S
C29 O28 1.295 . S
C29 O31 1.235 . S
C30 O35 1.287 . S
C30 O36 1.255 . S
O31 Fe23 1.997 . S
O31 C29 1.235 . S
C32 O38 1.287 . S
C32 O39 1.255 . S
O33 Fe22 1.976 . S
O33 C40 1.287 . S
O34 Fe23 1.996 . S
O34 C40 1.255 . S
O35 Fe25 1.976 . S
O35 C30 1.287 . S
O36 Fe22 1.996 . S
O36 C30 1.255 . S
C37 O41 1.295 . S
C37 O42 1.235 . S
O38 Fe23 1.976 . S
O38 C32 1.287 . S
O39 Fe25 1.996 . S
O39 C32 1.255 . S
C40 O33 1.287 . S
C40 O34 1.255 . S
O41 Fe23 2.002 . S
O41 C37 1.295 . S
O42 Fe25 1.997 . S
O42 C37 1.235 . S
C43 O26 1.295 . S
C43 O27 1.235 . S
Fe44 O46 1.918 1_556 S
Fe44 O49 1.997 . S
Fe44 O50 2.002 . S
Fe44 O55 1.976 . S
Fe44 O58 1.996 . S
Fe45 O46 1.918 . S
Fe45 O53 1.997 . S
Fe45 O56 1.996 . S
Fe45 O60 1.976 . S
Fe45 O63 2.002 . S
O46 Fe44 1.918 1_554 S
O46 Fe45 1.918 . S
O46 Fe47 1.918 . S
Fe47 O46 1.918 . S
Fe47 O48 2.002 1_554 S
Fe47 O57 1.976 1_554 S
Fe47 O61 1.996 . S
Fe47 O64 1.997 . S
O48 Fe47 2.002 1_556 S
O48 C65 1.295 . S
O49 Fe44 1.997 . S
O49 C65 1.235 . S
O50 Fe44 2.002 . S
O50 C51 1.290 1_556 S
C51 O50 1.290 1_554 S
C51 O53 1.240 . S
C52 O57 1.287 . S
C52 O58 1.255 . S
O53 Fe45 1.997 . S
O53 C51 1.240 . S
C54 O60 1.287 . S
C54 O61 1.255 . S
O55 Fe44 1.976 . S
O55 C62 1.287 1_556 S
O56 Fe45 1.996 . S
O56 C62 1.255 . S
O57 Fe47 1.976 1_556 S
O57 C52 1.287 . S
O58 Fe44 1.996 . S
O58 C52 1.255 . S
C59 O63 1.295 . S
C59 O64 1.235 . S
O60 Fe45 1.976 . S
O60 C54 1.287 . S
O61 Fe47 1.996 . S
O61 C54 1.255 . S
C62 O55 1.287 1_554 S
C62 O56 1.255 . S
O63 Fe45 2.002 . S
O63 C59 1.295 . S
O64 Fe47 1.997 . S
O64 C59 1.235 . S
C65 O48 1.295 . S
C65 O49 1.235 . S
Fe66 O68 1.918 . S
Fe66 O71 1.997 . S
Fe66 O72 2.002 . S
Fe66 O77 1.976 . S
Fe66 O80 1.996 . S
Fe67 O68 1.918 . S
Fe67 O75 1.997 . S
Fe67 O78 1.996 . S
Fe67 O82 1.976 . S
Fe67 O85 2.002 . S
O68 Fe66 1.918 . S
O68 Fe67 1.918 . S
O68 Fe69 1.918 . S
Fe69 O68 1.918 . S
Fe69 O70 2.002 . S
Fe69 O79 1.976 . S
Fe69 O83 1.996 . S
Fe69 O86 1.997 . S
O70 Fe69 2.002 . S
O70 C87 1.295 . S
O71 Fe66 1.997 . S
O71 C87 1.235 . S
O72 Fe66 2.002 . S
O72 C73 1.295 . S
C73 O72 1.295 . S
C73 O75 1.235 . S
C74 O79 1.287 . S
C74 O80 1.255 . S
O75 Fe67 1.997 . S
O75 C73 1.235 . S
C76 O82 1.287 . S
C76 O83 1.255 . S
O77 Fe66 1.976 . S
O77 C84 1.287 . S
O78 Fe67 1.996 . S
O78 C84 1.255 . S
O79 Fe69 1.976 . S
O79 C74 1.287 . S
O80 Fe66 1.996 . S
O80 C74 1.255 . S
C81 O85 1.295 . S
C81 O86 1.235 . S
O82 Fe67 1.976 . S
O82 C76 1.287 . S
O83 Fe69 1.996 . S
O83 C76 1.255 . S
C84 O77 1.287 . S
C84 O78 1.255 . S
O85 Fe67 2.002 . S
O85 C81 1.295 . S
O86 Fe69 1.997 . S
O86 C81 1.235 . S
C87 O70 1.295 . S
C87 O71 1.235 . S
C88 C89 1.384 . S
C88 H101 0.947 . S
C88 C123 1.382 . S
C89 C88 1.384 . S
C89 C90 1.378 . S
C90 C89 1.378 . S
C90 C91 1.378 . S
C90 H102 0.952 . S
C91 C90 1.378 . S
C91 H103 0.950 . S
C91 C122 1.383 . S
H92 C111 0.947 . S
H93 C112 0.946 . S
H94 C114 0.953 . S
H95 C115 0.945 . S
H96 C117 0.952 . S
H97 C118 0.949 . S
H98 C120 0.950 . S
H99 C121 0.948 . S
H100 C123 0.951 . S
H101 C88 0.947 . S
H102 C90 0.952 . S
H103 C91 0.950 . S
N104 C107 1.384 . S
N104 C109 1.363 . S
N105 C107 1.368 1_556 S
N105 C108 1.372 . S
N106 C108 1.361 . S
N106 C109 1.377 1_556 S
C107 N104 1.384 . S
C107 N105 1.368 1_554 S
C107 C110 1.480 1_554 S
C108 N105 1.372 . S
C108 N106 1.361 . S
C108 C116 1.457 . S
C109 N104 1.363 . S
C109 N106 1.377 1_554 S
C109 C122 1.479 . S
C110 C107 1.480 1_556 S
C110 C111 1.383 1_556 S
C110 C115 1.385 . S
C111 H92 0.947 . S
C111 C110 1.383 1_554 S
C111 C112 1.388 . S
C112 H93 0.946 . S
C112 C111 1.388 . S
C112 C113 1.367 1_554 S
C113 C112 1.367 1_556 S
C113 C114 1.394 . S
C114 H94 0.953 . S
C114 C113 1.394 . S
C114 C115 1.369 . S
C115 H95 0.945 . S
C115 C110 1.385 . S
C115 C114 1.369 . S
C116 C108 1.457 . S
C116 C117 1.372 . S
C116 C121 1.364 . S
C117 H96 0.952 . S
C117 C116 1.372 . S
C117 C118 1.389 . S
C118 H97 0.949 . S
C118 C117 1.389 . S
C118 C119 1.387 . S
C119 C118 1.387 . S
C119 C120 1.372 . S
C120 H98 0.950 . S
C120 C119 1.372 . S
C120 C121 1.379 . S
C121 H99 0.948 . S
C121 C116 1.364 . S
C121 C120 1.379 . S
C122 C91 1.383 . S
C122 C109 1.479 . S
C122 C123 1.398 . S
C123 C88 1.382 . S
C123 H100 0.951 . S
C123 C122 1.398 . S
C124 C125 1.384 . S
C124 H137 0.947 . S
C124 C159 1.382 . S
C125 C124 1.384 . S
C125 C126 1.378 . S
C126 C125 1.378 . S
C126 C127 1.378 . S
C126 H138 0.952 . S
C127 C126 1.378 . S
C127 H139 0.950 . S
C127 C158 1.383 . S
H128 C147 0.947 . S
H129 C148 0.946 . S
H130 C150 0.953 . S
H131 C151 0.945 . S
H132 C153 0.952 . S
H133 C154 0.949 . S
H134 C156 0.950 . S
H135 C157 0.948 . S
H136 C159 0.951 . S
H137 C124 0.947 . S
H138 C126 0.952 . S
H139 C127 0.950 . S
N140 C143 1.382 1_655 S
N140 C145 1.363 . S
N141 C143 1.371 1_655 S
N141 C144 1.372 . S
N142 C144 1.361 . S
N142 C145 1.377 . S
C143 N140 1.382 1_455 S
C143 N141 1.371 1_455 S
C143 C146 1.480 . S
C144 N141 1.372 . S
C144 N142 1.361 . S
C144 C152 1.457 . S
C145 N140 1.363 . S
C145 N142 1.377 . S
C145 C158 1.479 . S
C146 C143 1.480 . S
C146 C147 1.383 . S
C146 C151 1.385 . S
C147 H128 0.947 . S
C147 C146 1.383 . S
C147 C148 1.388 . S
C148 H129 0.946 . S
C148 C147 1.388 . S
C148 C149 1.384 . S
C149 C148 1.384 . S
C149 C150 1.377 . S
C150 H130 0.953 . S
C150 C149 1.377 . S
C150 C151 1.369 . S
C151 H131 0.945 . S
C151 C146 1.385 . S
C151 C150 1.369 . S
C152 C144 1.457 . S
C152 C153 1.372 . S
C152 C157 1.364 . S
C153 H132 0.952 . S
C153 C152 1.372 . S
C153 C154 1.389 . S
C154 H133 0.949 . S
C154 C153 1.389 . S
C154 C155 1.387 . S
C155 C154 1.387 . S
C155 C156 1.372 . S
C156 H134 0.950 . S
C156 C155 1.372 . S
C156 C157 1.379 . S
C157 H135 0.948 . S
C157 C152 1.364 . S
C157 C156 1.379 . S
C158 C127 1.383 . S
C158 C145 1.479 . S
C158 C159 1.398 . S
C159 C124 1.382 . S
C159 H136 0.951 . S
C159 C158 1.398 . S
C160 C161 1.384 . S
C160 H173 0.947 . S
C160 C195 1.382 . S
C161 C160 1.384 . S
C161 C162 1.378 . S
C162 C161 1.378 . S
C162 C163 1.378 . S
C162 H174 0.952 . S
C163 C162 1.378 . S
C163 H175 0.950 . S
C163 C194 1.383 . S
H164 C183 0.947 . S
H165 C184 0.946 . S
H166 C186 0.953 . S
H167 C187 0.945 . S
H168 C189 0.952 . S
H169 C190 0.949 . S
H170 C192 0.950 . S
H171 C193 0.948 . S
H172 C195 0.951 . S
H173 C160 0.947 . S
H174 C162 0.952 . S
H175 C163 0.950 . S
N176 C179 1.382 1_556 S
N176 C181 1.363 . S
N177 C179 1.371 . S
N177 C180 1.372 . S
N178 C180 1.361 . S
N178 C181 1.377 1_554 S
C179 N176 1.382 1_554 S
C179 N177 1.371 . S
C179 C182 1.480 . S
C180 N177 1.372 . S
C180 N178 1.361 . S
C180 C188 1.457 . S
C181 N176 1.363 . S
C181 N178 1.377 1_556 S
C181 C194 1.479 . S
C182 C179 1.480 . S
C182 C183 1.383 1_554 S
C182 C187 1.385 . S
C183 H164 0.947 . S
C183 C182 1.383 1_556 S
C183 C184 1.388 . S
C184 H165 0.946 . S
C184 C183 1.388 . S
C184 C185 1.384 1_556 S
C185 C184 1.384 1_554 S
C185 C186 1.377 . S
C186 H166 0.953 . S
C186 C185 1.377 . S
C186 C187 1.369 . S
C187 H167 0.945 . S
C187 C182 1.385 . S
C187 C186 1.369 . S
C188 C180 1.457 . S
C188 C189 1.372 . S
C188 C193 1.364 . S
C189 H168 0.952 . S
C189 C188 1.372 . S
C189 C190 1.389 . S
C190 H169 0.949 . S
C190 C189 1.389 . S
C190 C191 1.387 . S
C191 C190 1.387 . S
C191 C192 1.372 . S
C192 H170 0.950 . S
C192 C191 1.372 . S
C192 C193 1.379 . S
C193 H171 0.948 . S
C193 C188 1.364 . S
C193 C192 1.379 . S
C194 C163 1.383 . S
C194 C181 1.479 . S
C194 C195 1.398 . S
C195 C160 1.382 . S
C195 H172 0.951 . S
C195 C194 1.398 . S
C196 C197 1.384 . S
C196 H209 0.947 . S
C196 C231 1.382 . S
C197 C196 1.384 . S
C197 C198 1.378 . S
C198 C197 1.378 . S
C198 C199 1.378 . S
C198 H210 0.952 . S
C199 C198 1.378 . S
C199 H211 0.950 . S
C199 C230 1.383 . S
H200 C219 0.947 . S
H201 C220 0.946 . S
H202 C222 0.953 . S
H203 C223 0.945 . S
H204 C225 0.952 . S
H205 C226 0.949 . S
H206 C228 0.950 . S
H207 C229 0.948 . S
H208 C231 0.951 . S
H209 C196 0.947 . S
H210 C198 0.952 . S
H211 C199 0.950 . S
N212 C215 1.382 1_455 S
N212 C217 1.363 . S
N213 C215 1.371 1_455 S
N213 C216 1.372 . S
N214 C216 1.361 . S
N214 C217 1.377 . S
C215 N212 1.382 1_655 S
C215 N213 1.371 1_655 S
C215 C218 1.480 . S
C216 N213 1.372 . S
C216 N214 1.361 . S
C216 C224 1.457 . S
C217 N212 1.363 . S
C217 N214 1.377 . S
C217 C230 1.479 . S
C218 C215 1.480 . S
C218 C219 1.383 . S
C218 C223 1.385 . S
C219 H200 0.947 . S
C219 C218 1.383 . S
C219 C220 1.388 . S
C220 H201 0.946 . S
C220 C219 1.388 . S
C220 C221 1.384 . S
C221 C220 1.384 . S
C221 C222 1.377 . S
C222 H202 0.953 . S
C222 C221 1.377 . S
C222 C223 1.369 . S
C223 H203 0.945 . S
C223 C218 1.385 . S
C223 C222 1.369 . S
C224 C216 1.457 . S
C224 C225 1.372 . S
C224 C229 1.364 . S
C225 H204 0.952 . S
C225 C224 1.372 . S
C225 C226 1.389 . S
C226 H205 0.949 . S
C226 C225 1.389 . S
C226 C227 1.387 . S
C227 C226 1.387 . S
C227 C228 1.372 . S
C228 H206 0.950 . S
C228 C227 1.372 . S
C228 C229 1.379 . S
C229 H207 0.948 . S
C229 C224 1.364 . S
C229 C228 1.379 . S
C230 C199 1.383 . S
C230 C217 1.479 . S
C230 C231 1.398 . S
C231 C196 1.382 . S
C231 H208 0.951 . S
C231 C230 1.398 . S
C232 C233 1.384 . S
C232 H245 0.947 . S
C232 C267 1.382 . S
C233 C232 1.384 . S
C233 C234 1.378 . S
C234 C233 1.378 . S
C234 C235 1.378 . S
C234 H246 0.952 . S
C235 C234 1.378 . S
C235 H247 0.950 . S
C235 C266 1.383 . S
H236 C255 0.947 . S
H237 C256 0.946 . S
H238 C258 0.953 . S
H239 C259 0.945 . S
H240 C261 0.952 . S
H241 C262 0.949 . S
H242 C264 0.950 . S
H243 C265 0.948 . S
H244 C267 0.951 . S
H245 C232 0.947 . S
H246 C234 0.952 . S
H247 C235 0.950 . S
N248 C251 1.382 . S
N248 C253 1.363 1_545 S
N249 C251 1.371 . S
N249 C252 1.372 1_545 S
N250 C252 1.361 . S
N250 C253 1.377 . S
C251 N248 1.382 . S
C251 N249 1.371 . S
C251 C254 1.480 . S
C252 N249 1.372 1_565 S
C252 N250 1.361 . S
C252 C260 1.457 . S
C253 N248 1.363 1_565 S
C253 N250 1.377 . S
C253 C266 1.479 . S
C254 C251 1.480 . S
C254 C255 1.383 . S
C254 C259 1.385 . S
C255 H236 0.947 . S
C255 C254 1.383 . S
C255 C256 1.388 . S
C256 H237 0.946 . S
C256 C255 1.388 . S
C256 C257 1.384 . S
C257 C256 1.384 . S
C257 C258 1.377 . S
C258 H238 0.953 . S
C258 C257 1.377 . S
C258 C259 1.369 . S
C259 H239 0.945 . S
C259 C254 1.385 . S
C259 C258 1.369 . S
C260 C252 1.457 . S
C260 C261 1.372 . S
C260 C265 1.364 . S
C261 H240 0.952 . S
C261 C260 1.372 . S
C261 C262 1.389 . S
C262 H241 0.949 . S
C262 C261 1.389 . S
C262 C263 1.387 . S
C263 C262 1.387 . S
C263 C264 1.372 . S
C264 H242 0.950 . S
C264 C263 1.372 . S
C264 C265 1.379 . S
C265 H243 0.948 . S
C265 C260 1.364 . S
C265 C264 1.379 . S
C266 C235 1.383 . S
C266 C253 1.479 . S
C266 C267 1.398 . S
C267 C232 1.382 . S
C267 H244 0.951 . S
C267 C266 1.398 . S
C268 C269 1.384 . S
C268 H281 0.947 . S
C268 C303 1.382 . S
C269 C268 1.384 . S
C269 C270 1.378 . S
C270 C269 1.378 . S
C270 C271 1.378 . S
C270 H282 0.952 . S
C271 C270 1.378 . S
C271 H283 0.950 . S
C271 C302 1.383 . S
H272 C291 0.947 . S
H273 C292 0.946 . S
H274 C294 0.953 . S
H275 C295 0.945 . S
H276 C297 0.952 . S
H277 C298 0.949 . S
H278 C300 0.950 . S
H279 C301 0.948 . S
H280 C303 0.951 . S
H281 C268 0.947 . S
H282 C270 0.952 . S
H283 C271 0.950 . S
N284 C287 1.382 1_556 S
N284 C289 1.363 . S
N285 C287 1.371 . S
N285 C288 1.372 . S
N286 C288 1.361 . S
N286 C289 1.377 1_554 S
C287 N284 1.382 1_554 S
C287 N285 1.371 . S
C287 C290 1.480 . S
C288 N285 1.372 . S
C288 N286 1.361 . S
C288 C296 1.457 . S
C289 N284 1.363 . S
C289 N286 1.377 1_556 S
C289 C302 1.479 . S
C290 C287 1.480 . S
C290 C291 1.383 1_554 S
C290 C295 1.385 . S
C291 H272 0.947 . S
C291 C290 1.383 1_556 S
C291 C292 1.388 . S
C292 H273 0.946 . S
C292 C291 1.388 . S
C292 C293 1.384 1_556 S
C293 C292 1.384 1_554 S
C293 C294 1.377 . S
C294 H274 0.953 . S
C294 C293 1.377 . S
C294 C295 1.369 . S
C295 H275 0.945 . S
C295 C290 1.385 . S
C295 C294 1.369 . S
C296 C288 1.457 . S
C296 C297 1.372 . S
C296 C301 1.364 . S
C297 H276 0.952 . S
C297 C296 1.372 . S
C297 C298 1.389 . S
C298 H277 0.949 . S
C298 C297 1.389 . S
C298 C299 1.387 . S
C299 C298 1.387 . S
C299 C300 1.372 . S
C300 H278 0.950 . S
C300 C299 1.372 . S
C300 C301 1.379 . S
C301 H279 0.948 . S
C301 C296 1.364 . S
C301 C300 1.379 . S
C302 C271 1.383 . S
C302 C289 1.479 . S
C302 C303 1.398 . S
C303 C268 1.382 . S
C303 H280 0.951 . S
C303 C302 1.398 . S
C304 C305 1.384 . S
C304 H317 0.947 . S
C304 C339 1.382 . S
C305 C304 1.384 . S
C305 C306 1.378 . S
C306 C305 1.378 . S
C306 C307 1.378 . S
C306 H318 0.952 . S
C307 C306 1.378 . S
C307 H319 0.950 . S
C307 C338 1.383 . S
H308 C327 0.947 . S
H309 C328 0.946 . S
H310 C330 0.953 . S
H311 C331 0.945 . S
H312 C333 0.952 . S
H313 C334 0.949 . S
H314 C336 0.950 . S
H315 C337 0.948 . S
H316 C339 0.951 . S
H317 C304 0.947 . S
H318 C306 0.952 . S
H319 C307 0.950 . S
N320 C323 1.379 1_545 S
N320 C325 1.369 . S
N321 C323 1.389 . S
N321 C324 1.333 1_565 S
N322 C324 1.361 . S
N322 C325 1.377 . S
C323 N320 1.379 1_565 S
C323 N321 1.389 . S
C323 C326 1.480 . S
C324 N321 1.333 1_545 S
C324 N322 1.361 . S
C324 C332 1.457 . S
C325 N320 1.369 . S
C325 N322 1.377 . S
C325 C338 1.479 . S
C326 C323 1.480 . S
C326 C327 1.383 . S
C326 C331 1.385 . S
C327 H308 0.947 . S
C327 C326 1.383 . S
C327 C328 1.388 . S
C328 H309 0.946 . S
C328 C327 1.388 . S
C328 C329 1.384 . S
C329 C328 1.384 . S
C329 C330 1.377 . S
C330 H310 0.953 . S
C330 C329 1.377 . S
C330 C331 1.369 . S
C331 H311 0.945 . S
C331 C326 1.385 . S
C331 C330 1.369 . S
C332 C324 1.457 . S
C332 C333 1.372 . S
C332 C337 1.364 . S
C333 H312 0.952 . S
C333 C332 1.372 . S
C333 C334 1.389 . S
C334 H313 0.949 . S
C334 C333 1.389 . S
C334 C335 1.387 . S
C335 C334 1.387 . S
C335 C336 1.372 . S
C336 H314 0.950 . S
C336 C335 1.372 . S
C336 C337 1.379 . S
C337 H315 0.948 . S
C337 C332 1.364 . S
C337 C336 1.379 . S
C338 C307 1.383 . S
C338 C325 1.479 . S
C338 C339 1.398 . S
C339 C304 1.382 . S
C339 H316 0.951 . S
C339 C338 1.398 . S
C340 C341 1.384 . S
C340 H353 0.947 . S
C340 C375 1.382 . S
C341 C340 1.384 . S
C341 C342 1.378 . S
C342 C341 1.378 . S
C342 C343 1.378 . S
C342 H354 0.952 . S
C343 C342 1.378 . S
C343 H355 0.950 . S
C343 C374 1.383 . S
H344 C363 0.947 . S
H345 C364 0.946 . S
H346 C366 0.953 . S
H347 C367 0.945 . S
H348 C369 0.952 . S
H349 C370 0.949 . S
H350 C372 0.950 . S
H351 C373 0.948 . S
H352 C375 0.951 . S
H353 C340 0.947 . S
H354 C342 0.952 . S
H355 C343 0.950 . S
N356 C359 1.382 . S
N356 C361 1.363 . S
N357 C359 1.371 1_556 S
N357 C360 1.372 . S
N358 C360 1.378 . S
N358 C361 1.358 1_556 S
C359 N356 1.382 . S
C359 N357 1.371 1_554 S
C359 C362 1.480 1_554 S
C360 N357 1.372 . S
C360 N358 1.378 . S
C360 C368 1.457 . S
C361 N356 1.363 . S
C361 N358 1.358 1_554 S
C361 C374 1.479 . S
C362 C359 1.480 1_556 S
C362 C363 1.380 1_556 S
C362 C367 1.387 . S
C363 H344 0.947 . S
C363 C362 1.380 1_554 S
C363 C364 1.388 . S
C364 H345 0.946 . S
C364 C363 1.388 . S
C364 C365 1.384 1_554 S
C365 C364 1.384 1_556 S
C365 C366 1.376 . S
C366 H346 0.953 . S
C366 C365 1.376 . S
C366 C367 1.369 . S
C367 H347 0.945 . S
C367 C362 1.387 . S
C367 C366 1.369 . S
C368 C360 1.457 . S
C368 C369 1.372 . S
C368 C373 1.364 . S
C369 H348 0.952 . S
C369 C368 1.372 . S
C369 C370 1.389 . S
C370 H349 0.949 . S
C370 C369 1.389 . S
C370 C371 1.387 . S
C371 C370 1.387 . S
C371 C372 1.372 . S
C372 H350 0.950 . S
C372 C371 1.372 . S
C372 C373 1.379 . S
C373 H351 0.948 . S
C373 C368 1.364 . S
C373 C372 1.379 . S
C374 C343 1.383 . S
C374 C361 1.479 . S
C374 C375 1.398 . S
C375 C340 1.382 . S
C375 H352 0.951 . S
C375 C374 1.398 . S
H376 C382 0.930 . S
H377 C385 0.930 . S
H378 C386 0.930 . S
H379 C387 0.930 . S
H380 C390 0.930 . S
H381 C391 0.930 . S
C382 H376 0.930 . S
C382 C383 1.355 . S
C382 C384 1.415 . S
C383 C382 1.355 . S
C383 C385 1.419 . S
C384 C382 1.415 . S
C384 C389 1.425 . S
C384 C391 1.409 . S
C385 H377 0.930 . S
C385 C383 1.419 . S
C385 C386 1.362 . S
C386 H378 0.930 . S
C386 C385 1.362 . S
C386 C389 1.409 . S
C387 H379 0.930 . S
C387 C388 1.355 . S
C387 C389 1.415 . S
C388 C387 1.355 . S
C388 C390 1.419 . S
C389 C384 1.425 . S
C389 C386 1.409 . S
C389 C387 1.415 . S
C390 H380 0.930 . S
C390 C388 1.419 . S
C390 C391 1.362 . S
C391 H381 0.930 . S
C391 C384 1.409 . S
C391 C390 1.362 . S
H392 C398 0.930 . S
H393 C401 0.930 . S
H394 C402 0.930 . S
H395 C403 0.930 . S
H396 C406 0.930 . S
H397 C407 0.930 . S
C398 H392 0.930 . S
C398 C399 1.355 . S
C398 C400 1.415 . S
C399 C398 1.355 . S
C399 C401 1.419 . S
C400 C398 1.415 . S
C400 C405 1.425 . S
C400 C407 1.409 . S
C401 H393 0.930 . S
C401 C399 1.419 . S
C401 C402 1.362 . S
C402 H394 0.930 . S
C402 C401 1.362 . S
C402 C405 1.409 . S
C403 H395 0.930 . S
C403 C404 1.355 . S
C403 C405 1.415 . S
C404 C403 1.355 . S
C404 C406 1.419 . S
C405 C400 1.425 . S
C405 C402 1.409 . S
C405 C403 1.415 . S
C406 H396 0.930 . S
C406 C404 1.419 . S
C406 C407 1.362 . S
C407 H397 0.930 . S
C407 C400 1.409 . S
C407 C406 1.362 . S
H408 C414 0.930 . S
H409 C417 0.930 . S
H410 C418 0.930 . S
H411 C419 0.930 . S
H412 C422 0.930 . S
H413 C423 0.930 . S
C414 H408 0.930 . S
C414 C415 1.355 . S
C414 C416 1.415 . S
C415 C414 1.355 . S
C415 C417 1.419 . S
C416 C414 1.415 . S
C416 C421 1.425 . S
C416 C423 1.409 . S
C417 H409 0.930 . S
C417 C415 1.419 . S
C417 C418 1.362 . S
C418 H410 0.930 . S
C418 C417 1.362 . S
C418 C421 1.409 . S
C419 H411 0.930 . S
C419 C420 1.355 . S
C419 C421 1.415 . S
C420 C419 1.355 . S
C420 C422 1.419 . S
C421 C416 1.425 . S
C421 C418 1.409 . S
C421 C419 1.415 . S
C422 H412 0.930 . S
C422 C420 1.419 . S
C422 C423 1.362 . S
C423 H413 0.930 . S
C423 C416 1.409 . S
C423 C422 1.362 . S
H424 C430 0.930 . S
H425 C433 0.930 . S
H426 C434 0.930 . S
H427 C435 0.930 . S
H428 C438 0.930 . S
H429 C439 0.930 . S
C430 H424 0.930 . S
C430 C431 1.355 . S
C430 C432 1.415 . S
C431 C430 1.355 . S
C431 C433 1.419 . S
C432 C430 1.415 . S
C432 C437 1.425 . S
C432 C439 1.409 . S
C433 H425 0.930 . S
C433 C431 1.419 . S
C433 C434 1.362 . S
C434 H426 0.930 . S
C434 C433 1.362 . S
C434 C437 1.409 . S
C435 H427 0.930 . S
C435 C436 1.355 . S
C435 C437 1.415 . S
C436 C435 1.355 . S
C436 C438 1.419 . S
C437 C432 1.425 . S
C437 C434 1.409 . S
C437 C435 1.415 . S
C438 H428 0.930 . S
C438 C436 1.419 . S
C438 C439 1.362 . S
C439 H429 0.930 . S
C439 C432 1.409 . S
C439 C438 1.362 . S
H440 C446 0.930 . S
H441 C449 0.930 . S
H442 C450 0.930 . S
H443 C451 0.930 . S
H444 C454 0.930 . S
H445 C455 0.930 . S
C446 H440 0.930 . S
C446 C447 1.355 . S
C446 C448 1.415 . S
C447 C446 1.355 . S
C447 C449 1.419 . S
C448 C446 1.415 . S
C448 C453 1.425 . S
C448 C455 1.409 . S
C449 H441 0.930 . S
C449 C447 1.419 . S
C449 C450 1.362 . S
C450 H442 0.930 . S
C450 C449 1.362 . S
C450 C453 1.409 . S
C451 H443 0.930 . S
C451 C452 1.355 . S
C451 C453 1.415 . S
C452 C451 1.355 . S
C452 C454 1.419 . S
C453 C448 1.425 . S
C453 C450 1.409 . S
C453 C451 1.415 . S
C454 H444 0.930 . S
C454 C452 1.419 . S
C454 C455 1.362 . S
C455 H445 0.930 . S
C455 C448 1.409 . S
C455 C454 1.362 . S
H456 C462 0.930 . S
H457 C465 0.930 . S
H458 C466 0.930 . S
H459 C467 0.930 . S
H460 C470 0.930 . S
H461 C471 0.930 . S
C462 H456 0.930 . S
C462 C463 1.355 . S
C462 C464 1.415 . S
C463 C462 1.355 . S
C463 C465 1.419 . S
C464 C462 1.415 . S
C464 C469 1.425 . S
C464 C471 1.409 . S
C465 H457 0.930 . S
C465 C463 1.419 . S
C465 C466 1.362 . S
C466 H458 0.930 . S
C466 C465 1.362 . S
C466 C469 1.409 . S
C467 H459 0.930 . S
C467 C468 1.355 . S
C467 C469 1.415 . S
C468 C467 1.355 . S
C468 C470 1.419 . S
C469 C464 1.425 . S
C469 C466 1.409 . S
C469 C467 1.415 . S
C470 H460 0.930 . S
C470 C468 1.419 . S
C470 C471 1.362 . S
C471 H461 0.930 . S
C471 C464 1.409 . S
C471 C470 1.362 . S
H472 C478 0.930 . S
H473 C481 0.930 . S
H474 C482 0.930 . S
H475 C483 0.930 . S
H476 C486 0.930 . S
H477 C487 0.930 . S
C478 H472 0.930 . S
C478 C479 1.355 . S
C478 C480 1.415 . S
C479 C478 1.355 . S
C479 C481 1.419 . S
C480 C478 1.415 . S
C480 C485 1.425 . S
C480 C487 1.409 . S
C481 H473 0.930 . S
C481 C479 1.419 . S
C481 C482 1.362 . S
C482 H474 0.930 . S
C482 C481 1.362 . S
C482 C485 1.409 . S
C483 H475 0.930 . S
C483 C484 1.355 . S
C483 C485 1.415 . S
C484 C483 1.355 . S
C484 C486 1.419 . S
C485 C480 1.425 . S
C485 C482 1.409 . S
C485 C483 1.415 . S
C486 H476 0.930 . S
C486 C484 1.419 . S
C486 C487 1.362 . S
C487 H477 0.930 . S
C487 C480 1.409 . S
C487 C486 1.362 . S
H488 C494 0.930 . S
H489 C497 0.930 . S
H490 C498 0.930 . S
H491 C499 0.930 . S
H492 C502 0.930 . S
H493 C503 0.930 . S
C494 H488 0.930 . S
C494 C495 1.355 . S
C494 C496 1.415 . S
C495 C494 1.355 . S
C495 C497 1.419 . S
C496 C494 1.415 . S
C496 C501 1.425 . S
C496 C503 1.409 . S
C497 H489 0.930 . S
C497 C495 1.419 . S
C497 C498 1.362 . S
C498 H490 0.930 . S
C498 C497 1.362 . S
C498 C501 1.409 . S
C499 H491 0.930 . S
C499 C500 1.355 . S
C499 C501 1.415 . S
C500 C499 1.355 . S
C500 C502 1.419 . S
C501 C496 1.425 . S
C501 C498 1.409 . S
C501 C499 1.415 . S
C502 H492 0.930 . S
C502 C500 1.419 . S
C502 C503 1.362 . S
C503 H493 0.930 . S
C503 C496 1.409 . S
C503 C502 1.362 . S
H504 C510 0.930 . S
H505 C513 0.930 . S
H506 C514 0.930 . S
H507 C515 0.930 . S
H508 C518 0.930 . S
H509 C519 0.930 . S
C510 H504 0.930 . S
C510 C511 1.355 . S
C510 C512 1.415 . S
C511 C510 1.355 . S
C511 C513 1.419 . S
C512 C510 1.415 . S
C512 C517 1.425 . S
C512 C519 1.409 . S
C513 H505 0.930 . S
C513 C511 1.419 . S
C513 C514 1.362 . S
C514 H506 0.930 . S
C514 C513 1.362 . S
C514 C517 1.409 . S
C515 H507 0.930 . S
C515 C516 1.355 . S
C515 C517 1.415 . S
C516 C515 1.355 . S
C516 C518 1.419 . S
C517 C512 1.425 . S
C517 C514 1.409 . S
C517 C515 1.415 . S
C518 H508 0.930 . S
C518 C516 1.419 . S
C518 C519 1.362 . S
C519 H509 0.930 . S
C519 C512 1.409 . S
C519 C518 1.362 . S
H520 C526 0.930 . S
H521 C529 0.930 . S
H522 C530 0.930 . S
H523 C531 0.930 . S
H524 C534 0.930 . S
H525 C535 0.930 . S
C526 H520 0.930 . S
C526 C527 1.355 . S
C526 C528 1.415 . S
C527 C526 1.355 . S
C527 C529 1.419 . S
C528 C526 1.415 . S
C528 C533 1.425 . S
C528 C535 1.409 . S
C529 H521 0.930 . S
C529 C527 1.419 . S
C529 C530 1.362 . S
C530 H522 0.930 . S
C530 C529 1.362 . S
C530 C533 1.409 . S
C531 H523 0.930 . S
C531 C532 1.355 . S
C531 C533 1.415 . S
C532 C531 1.355 . S
C532 C534 1.419 . S
C533 C528 1.425 . S
C533 C530 1.409 . S
C533 C531 1.415 . S
C534 H524 0.930 . S
C534 C532 1.419 . S
C534 C535 1.362 . S
C535 H525 0.930 . S
C535 C528 1.409 . S
C535 C534 1.362 . S
H536 C542 0.930 . S
H537 C545 0.930 . S
H538 C546 0.930 . S
H539 C547 0.930 . S
H540 C550 0.930 . S
H541 C551 0.930 . S
C542 H536 0.930 . S
C542 C543 1.355 . S
C542 C544 1.415 . S
C543 C542 1.355 . S
C543 C545 1.419 . S
C544 C542 1.415 . S
C544 C549 1.425 . S
C544 C551 1.409 . S
C545 H537 0.930 . S
C545 C543 1.419 . S
C545 C546 1.362 . S
C546 H538 0.930 . S
C546 C545 1.362 . S
C546 C549 1.409 . S
C547 H539 0.930 . S
C547 C548 1.355 . S
C547 C549 1.415 . S
C548 C547 1.355 . S
C548 C550 1.419 . S
C549 C544 1.425 . S
C549 C546 1.409 . S
C549 C547 1.415 . S
C550 H540 0.930 . S
C550 C548 1.419 . S
C550 C551 1.362 . S
C551 H541 0.930 . S
C551 C544 1.409 . S
C551 C550 1.362 . S
H552 C558 0.930 . S
H553 C561 0.930 . S
H554 C562 0.930 . S
H555 C563 0.930 . S
H556 C566 0.930 . S
H557 C567 0.930 . S
C558 H552 0.930 . S
C558 C559 1.355 . S
C558 C560 1.415 . S
C559 C558 1.355 . S
C559 C561 1.419 . S
C560 C558 1.415 . S
C560 C565 1.425 . S
C560 C567 1.409 . S
C561 H553 0.930 . S
C561 C559 1.419 . S
C561 C562 1.362 . S
C562 H554 0.930 . S
C562 C561 1.362 . S
C562 C565 1.409 . S
C563 H555 0.930 . S
C563 C564 1.355 . S
C563 C565 1.415 . S
C564 C563 1.355 . S
C564 C566 1.419 . S
C565 C560 1.425 . S
C565 C562 1.409 . S
C565 C563 1.415 . S
C566 H556 0.930 . S
C566 C564 1.419 . S
C566 C567 1.362 . S
C567 H557 0.930 . S
C567 C560 1.409 . S
C567 C566 1.362 . S
H568 C574 0.930 . S
H569 C577 0.930 . S
H570 C578 0.930 . S
H571 C579 0.930 . S
H572 C582 0.930 . S
H573 C583 0.930 . S
C574 H568 0.930 . S
C574 C575 1.355 . S
C574 C576 1.415 . S
C575 C574 1.355 . S
C575 C577 1.419 . S
C576 C574 1.415 . S
C576 C581 1.425 . S
C576 C583 1.409 . S
C577 H569 0.930 . S
C577 C575 1.419 . S
C577 C578 1.362 . S
C578 H570 0.930 . S
C578 C577 1.362 . S
C578 C581 1.409 . S
C579 H571 0.930 . S
C579 C580 1.355 . S
C579 C581 1.415 . S
C580 C579 1.355 . S
C580 C582 1.419 . S
C581 C576 1.425 . S
C581 C578 1.409 . S
C581 C579 1.415 . S
C582 H572 0.930 . S
C582 C580 1.419 . S
C582 C583 1.362 . S
C583 H573 0.930 . S
C583 C576 1.409 . S
C583 C582 1.362 . S
H584 C590 0.930 . S
H585 C593 0.930 . S
H586 C594 0.930 . S
H587 C595 0.930 . S
H588 C598 0.930 . S
H589 C599 0.930 . S
C590 H584 0.930 . S
C590 C591 1.355 . S
C590 C592 1.415 . S
C591 C590 1.355 . S
C591 C593 1.419 . S
C592 C590 1.415 . S
C592 C597 1.425 . S
C592 C599 1.409 . S
C593 H585 0.930 . S
C593 C591 1.419 . S
C593 C594 1.362 . S
C594 H586 0.930 . S
C594 C593 1.362 . S
C594 C597 1.409 . S
C595 H587 0.930 . S
C595 C596 1.355 . S
C595 C597 1.415 . S
C596 C595 1.355 . S
C596 C598 1.419 . S
C597 C592 1.425 . S
C597 C594 1.409 . S
C597 C595 1.415 . S
C598 H588 0.930 . S
C598 C596 1.419 . S
C598 C599 1.362 . S
C599 H589 0.930 . S
C599 C592 1.409 . S
C599 C598 1.362 . S
H600 C606 0.930 . S
H601 C609 0.930 . S
H602 C610 0.930 . S
H603 C611 0.930 . S
H604 C614 0.930 . S
H605 C615 0.930 . S
C606 H600 0.930 . S
C606 C607 1.355 . S
C606 C608 1.415 . S
C607 C606 1.355 . S
C607 C609 1.419 . S
C608 C606 1.415 . S
C608 C613 1.425 . S
C608 C615 1.409 . S
C609 H601 0.930 . S
C609 C607 1.419 . S
C609 C610 1.362 . S
C610 H602 0.930 . S
C610 C609 1.362 . S
C610 C613 1.409 . S
C611 H603 0.930 . S
C611 C612 1.355 . S
C611 C613 1.415 . S
C612 C611 1.355 . S
C612 C614 1.419 . S
C613 C608 1.425 . S
C613 C610 1.409 . S
C613 C611 1.415 . S
C614 H604 0.930 . S
C614 C612 1.419 . S
C614 C615 1.362 . S
C615 H605 0.930 . S
C615 C608 1.409 . S
C615 C614 1.362 . S
H616 C622 0.930 . S
H617 C625 0.930 . S
H618 C626 0.930 . S
H619 C627 0.930 . S
H620 C630 0.930 . S
H621 C631 0.930 . S
C622 H616 0.930 . S
C622 C623 1.355 . S
C622 C624 1.415 . S
C623 C622 1.355 . S
C623 C625 1.419 . S
C624 C622 1.415 . S
C624 C629 1.425 . S
C624 C631 1.409 . S
C625 H617 0.930 . S
C625 C623 1.419 . S
C625 C626 1.362 . S
C626 H618 0.930 . S
C626 C625 1.362 . S
C626 C629 1.409 . S
C627 H619 0.930 . S
C627 C628 1.355 . S
C627 C629 1.415 . S
C628 C627 1.355 . S
C628 C630 1.419 . S
C629 C624 1.425 . S
C629 C626 1.409 . S
C629 C627 1.415 . S
C630 H620 0.930 . S
C630 C628 1.419 . S
C630 C631 1.362 . S
C631 H621 0.930 . S
C631 C624 1.409 . S
C631 C630 1.362 . S
H632 C638 0.930 . S
H633 C641 0.930 . S
H634 C642 0.930 . S
H635 C643 0.930 . S
H636 C646 0.930 . S
H637 C647 0.930 . S
C638 H632 0.930 . S
C638 C639 1.355 . S
C638 C640 1.415 . S
C639 C638 1.355 . S
C639 C641 1.419 1_554 S
C640 C638 1.415 . S
C640 C645 1.425 1_554 S
C640 C647 1.409 . S
C641 H633 0.930 . S
C641 C639 1.419 1_556 S
C641 C642 1.362 . S
C642 H634 0.930 . S
C642 C641 1.362 . S
C642 C645 1.409 . S
C643 H635 0.930 . S
C643 C644 1.354 1_556 S
C643 C645 1.415 . S
C644 C643 1.354 1_554 S
C644 C646 1.420 . S
C645 C640 1.425 1_556 S
C645 C642 1.409 . S
C645 C643 1.415 . S
C646 H636 0.930 . S
C646 C644 1.420 . S
C646 C647 1.362 . S
C647 H637 0.930 . S
C647 C640 1.409 . S
C647 C646 1.362 . S
H648 C654 0.930 . S
H649 C657 0.930 . S
H650 C658 0.930 . S
H651 C659 0.930 . S
H652 C662 0.930 . S
H653 C663 0.930 . S
C654 H648 0.930 . S
C654 C655 1.355 . S
C654 C656 1.415 . S
C655 C654 1.355 . S
C655 C657 1.419 . S
C656 C654 1.415 . S
C656 C661 1.425 . S
C656 C663 1.409 . S
C657 H649 0.930 . S
C657 C655 1.419 . S
C657 C658 1.362 . S
C658 H650 0.930 . S
C658 C657 1.362 . S
C658 C661 1.409 . S
C659 H651 0.930 . S
C659 C660 1.355 . S
C659 C661 1.415 . S
C660 C659 1.355 . S
C660 C662 1.419 . S
C661 C656 1.425 . S
C661 C658 1.409 . S
C661 C659 1.415 . S
C662 H652 0.930 . S
C662 C660 1.419 . S
C662 C663 1.362 . S
C663 H653 0.930 . S
C663 C656 1.409 . S
C663 C662 1.362 . S
H664 C670 0.930 . S
H665 C673 0.930 . S
H666 C674 0.930 . S
H667 C675 0.930 . S
H668 C678 0.930 . S
H669 C679 0.930 . S
C670 H664 0.930 . S
C670 C671 1.355 1_556 S
C670 C672 1.415 . S
C671 C670 1.355 1_554 S
C671 C673 1.419 . S
C672 C670 1.415 . S
C672 C677 1.425 1_556 S
C672 C679 1.409 . S
C673 H665 0.930 . S
C673 C671 1.419 . S
C673 C674 1.362 . S
C674 H666 0.930 . S
C674 C673 1.362 . S
C674 C677 1.409 . S
C675 H667 0.930 . S
C675 C676 1.353 1_554 S
C675 C677 1.415 . S
C676 C675 1.353 1_556 S
C676 C678 1.421 . S
C677 C672 1.425 1_554 S
C677 C674 1.409 . S
C677 C675 1.415 . S
C678 H668 0.930 . S
C678 C676 1.421 . S
C678 C679 1.362 . S
C679 H669 0.930 . S
C679 C672 1.409 . S
C679 C678 1.362 . S
H680 C686 0.930 . S
H681 C689 0.930 . S
H682 C690 0.930 . S
H683 C691 0.930 . S
H684 C694 0.930 . S
H685 C695 0.930 . S
C686 H680 0.930 . S
C686 C687 1.355 . S
C686 C688 1.415 . S
C687 C686 1.355 . S
C687 C689 1.419 . S
C688 C686 1.415 . S
C688 C693 1.425 . S
C688 C695 1.409 . S
C689 H681 0.930 . S
C689 C687 1.419 . S
C689 C690 1.362 . S
C690 H682 0.930 . S
C690 C689 1.362 . S
C690 C693 1.409 . S
C691 H683 0.930 . S
C691 C692 1.355 . S
C691 C693 1.415 . S
C692 C691 1.355 . S
C692 C694 1.419 . S
C693 C688 1.425 . S
C693 C690 1.409 . S
C693 C691 1.415 . S
C694 H684 0.930 . S
C694 C692 1.419 . S
C694 C695 1.362 . S
C695 H685 0.930 . S
C695 C688 1.409 . S
C695 C694 1.362 . S
H696 C702 0.930 . S
H697 C705 0.930 . S
H698 C706 0.930 . S
H699 C707 0.930 . S
H700 C710 0.930 . S
H701 C711 0.930 . S
C702 H696 0.930 . S
C702 C703 1.355 . S
C702 C704 1.415 . S
C703 C702 1.355 . S
C703 C705 1.419 . S
C704 C702 1.415 . S
C704 C709 1.425 . S
C704 C711 1.409 . S
C705 H697 0.930 . S
C705 C703 1.419 . S
C705 C706 1.362 . S
C706 H698 0.930 . S
C706 C705 1.362 . S
C706 C709 1.409 . S
C707 H699 0.930 . S
C707 C708 1.355 . S
C707 C709 1.415 . S
C708 C707 1.355 . S
C708 C710 1.419 . S
C709 C704 1.425 . S
C709 C706 1.409 . S
C709 C707 1.415 . S
C710 H700 0.930 . S
C710 C708 1.419 . S
C710 C711 1.362 . S
C711 H701 0.930 . S
C711 C704 1.409 . S
C711 C710 1.362 . S
H712 C718 0.930 . S
H713 C721 0.930 . S
H714 C722 0.930 . S
H715 C723 0.930 . S
H716 C726 0.930 . S
H717 C727 0.930 . S
C718 H712 0.930 . S
C718 C719 1.355 1_556 S
C718 C720 1.415 . S
C719 C718 1.355 1_554 S
C719 C721 1.419 . S
C720 C718 1.415 . S
C720 C725 1.425 1_556 S
C720 C727 1.409 . S
C721 H713 0.930 . S
C721 C719 1.419 . S
C721 C722 1.362 . S
C722 H714 0.930 . S
C722 C721 1.362 . S
C722 C725 1.409 . S
C723 H715 0.930 . S
C723 C724 1.355 1_554 S
C723 C725 1.415 . S
C724 C723 1.355 1_556 S
C724 C726 1.419 . S
C725 C720 1.425 1_554 S
C725 C722 1.409 . S
C725 C723 1.415 . S
C726 H716 0.930 . S
C726 C724 1.419 . S
C726 C727 1.362 . S
C727 H717 0.930 . S
C727 C720 1.409 . S
C727 C726 1.362 . S
H728 C734 0.930 . S
H729 C737 0.930 . S
H730 C738 0.930 . S
H731 C739 0.930 . S
H732 C742 0.930 . S
H733 C743 0.930 . S
C734 H728 0.930 . S
C734 C735 1.355 . S
C734 C736 1.415 . S
C735 C734 1.355 . S
C735 C737 1.419 . S
C736 C734 1.415 . S
C736 C741 1.425 . S
C736 C743 1.409 . S
C737 H729 0.930 . S
C737 C735 1.419 . S
C737 C738 1.362 . S
C738 H730 0.930 . S
C738 C737 1.362 . S
C738 C741 1.409 . S
C739 H731 0.930 . S
C739 C740 1.355 . S
C739 C741 1.415 . S
C740 C739 1.355 . S
C740 C742 1.419 . S
C741 C736 1.425 . S
C741 C738 1.409 . S
C741 C739 1.415 . S
C742 H732 0.930 . S
C742 C740 1.419 . S
C742 C743 1.362 . S
C743 H733 0.930 . S
C743 C736 1.409 . S
C743 C742 1.362 . S
H744 C750 0.930 . S
H745 C753 0.930 . S
H746 C754 0.930 . S
H747 C755 0.930 . S
H748 C758 0.930 . S
H749 C759 0.930 . S
C750 H744 0.930 . S
C750 C751 1.355 1_556 S
C750 C752 1.415 . S
C751 C750 1.355 1_554 S
C751 C753 1.419 . S
C752 C750 1.415 . S
C752 C757 1.425 1_556 S
C752 C759 1.409 . S
C753 H745 0.930 . S
C753 C751 1.419 . S
C753 C754 1.362 . S
C754 H746 0.930 . S
C754 C753 1.362 . S
C754 C757 1.409 . S
C755 H747 0.930 . S
C755 C756 1.355 1_554 S
C755 C757 1.415 . S
C756 C755 1.355 1_556 S
C756 C758 1.419 . S
C757 C752 1.425 1_554 S
C757 C754 1.409 . S
C757 C755 1.415 . S
C758 H748 0.930 . S
C758 C756 1.419 . S
C758 C759 1.362 . S
C759 H749 0.930 . S
C759 C752 1.409 . S
C759 C758 1.362 . S
C383 C21 1.627 . S
C388 C197 1.622 . S
C399 C40 1.751 . S
C404 C119 1.611 . S
C420 C155 1.568 . S
C415 C54 1.612 . S
C431 C73 1.802 . S
C436 C161 1.734 . S
C452 C299 1.615 . S
C447 C74 1.623 . S
C468 C305 1.694 . S
C463 C10 1.749 . S
C484 C341 1.577 . S
C479 C37 1.636 . S
C500 C263 1.645 . S
C495 C65 1.799 . S
C511 C52 1.628 . S
C516 C125 1.603 . S
C527 C87 1.795 . S
C532 C191 1.725 . S
C543 C15 1.656 . S
C548 C227 1.578 . S
C564 C89 1.626 . S
C559 C32 1.740 . S
C575 C29 1.642 . S
C580 C371 1.551 . S
C596 C233 1.711 . S
C591 C59 1.801 . S
C612 C269 1.583 . S
C607 C84 1.619 . S
C623 C8 1.747 . S
C628 C335 1.679 . S
C644 C113 1.709 1_554 S
C639 C7 1.854 . S
C660 C149 1.683 . S
C655 C30 1.681 . S
C671 C62 1.859 . S
C676 C185 1.816 1_556 S
C687 C81 1.681 . S
C692 C221 1.662 . S
C708 C257 1.723 . S
C703 C76 1.858 . S
C719 C18 1.697 . S
C724 C293 1.697 1_556 S
C735 C43 1.854 . S
C740 C329 1.795 . S
C751 C51 1.646 . S
C756 C365 1.609 . S
