# Generated by pormake.
# Topology sit, (3,6)-cn, num edge types: 1
# Building blocks:
#     Node 0, Type 0, BuildingBlock: VETTIZ_charged_linker_0, # of connection points: 3
#     Node 1, Type 0, BuildingBlock: VETTIZ_charged_linker_0, # of connection points: 3
#     Node 2, Type 0, BuildingBlock: VETTIZ_charged_linker_0, # of connection points: 3
#     Node 3, Type 0, BuildingBlock: VETTIZ_charged_linker_0, # of connection points: 3
#     Node 4, Type 1, BuildingBlock: MIDCAF_clean_sbu_0, # of connection points: 6
#     Node 5, Type 1, BuildingBlock: MIDCAF_clean_sbu_0, # of connection points: 6
#     Edge 6, Type (0, 1), BuildingBlock: EZIPEK_clean_linker_0, # of connection points: 2
#     Edge 7, Type (0, 1), BuildingBlock: EZIPEK_clean_linker_0, # of connection points: 2
#     Edge 8, Type (0, 1), BuildingBlock: EZIPEK_clean_linker_0, # of connection points: 2
#     Edge 9, Type (0, 1), BuildingBlock: EZIPEK_clean_linker_0, # of connection points: 2
#     Edge 10, Type (0, 1), BuildingBlock: EZIPEK_clean_linker_0, # of connection points: 2
#     Edge 11, Type (0, 1), BuildingBlock: EZIPEK_clean_linker_0, # of connection points: 2
#     Edge 12, Type (0, 1), BuildingBlock: EZIPEK_clean_linker_0, # of connection points: 2
#     Edge 13, Type (0, 1), BuildingBlock: EZIPEK_clean_linker_0, # of connection points: 2
#     Edge 14, Type (0, 1), BuildingBlock: EZIPEK_clean_linker_0, # of connection points: 2
#     Edge 15, Type (0, 1), BuildingBlock: EZIPEK_clean_linker_0, # of connection points: 2
#     Edge 16, Type (0, 1), BuildingBlock: EZIPEK_clean_linker_0, # of connection points: 2
#     Edge 17, Type (0, 1), BuildingBlock: EZIPEK_clean_linker_0, # of connection points: 2
# Relax obj value: 0.113
# Max RMSD: 0.194
# Mean RMSD: 0.109
data_MOF--net-sit--node1-MIDCAF_clean_sbu_0--node2-VETTIZ_charged_linker_0--edge1-EZIPEK_clean_linker_0
_symmetry_space_group_name_H-M    P1
_symmetry_Int_Tables_number       1
_symmetry_cell_setting            triclinic
loop_
_symmetry_equiv_pos_as_xyz
'x, y, z'
_cell_length_a     22.255777
_cell_length_b     29.568785
_cell_length_c     33.191882
_cell_angle_alpha  90.342527
_cell_angle_beta   89.435781
_cell_angle_gamma 84.036791
loop_
_atom_site_label
_atom_site_type_symbol
_atom_site_fract_x
_atom_site_fract_y
_atom_site_fract_z
_atom_type_partial_charge
C0 C 0.03126 0.19982 0.11008 0.0
C1 C 0.08007 0.16675 0.11712 0.0
C2 C 0.13444 0.16847 0.09536 0.0
C3 C 0.09595 0.24137 0.06804 0.0
C4 C 0.03993 0.23656 0.08491 0.0
C5 C -0.00646 0.27529 0.07393 0.0
H6 H 0.93821 0.48201 0.98606 0.0
C7 C 0.09344 0.28705 0.0502 0.0
C8 C 0.03341 0.30708 0.05323 0.0
H9 H 0.81007 0.38701 0.0144 0.0
H10 H 0.88857 0.33755 0.0474 0.0
H11 H 0.0204 0.47057 0.06752 0.0
H12 H 0.02862 0.41219 0.94915 0.0
H13 H 0.10152 0.42501 0.96068 0.0
H14 H 0.0411 0.46988 0.96092 0.0
H15 H 0.05991 0.49505 0.02736 0.0
H16 H 0.09788 0.45303 0.05979 0.0
C17 C 0.96382 0.297 0.11267 0.0
C18 C 0.94777 0.25693 0.04452 0.0
C19 C 0.28357 0.3492 0.99675 0.0
C20 C 0.29337 0.39266 0.98288 0.0
C21 C 0.24857 0.42923 0.98838 0.0
C22 C 0.19268 0.42224 0.00512 0.0
C23 C 0.18103 0.37792 0.01501 0.0
C24 C 0.22683 0.3427 0.01308 0.0
C25 C 0.20655 0.29895 0.02873 0.0
C26 C 0.13979 0.3132 0.03686 0.0
C27 C 0.12541 0.35925 0.02782 0.0
C28 C 0.24183 0.28697 0.06785 0.0
C29 C 0.21625 0.26222 0.99518 0.0
C30 C 0.92698 0.45144 0.0009 0.0
C31 C 0.8688 0.43795 -0.00237 0.0
C32 C 0.85514 0.39756 0.01634 0.0
C33 C 0.90071 0.36865 0.03474 0.0
C34 C 0.96036 0.3801 0.03369 0.0
C35 C 0.97245 0.42145 0.01781 0.0
C36 C 0.03896 0.42533 0.01412 0.0
C37 C 0.06456 0.37857 0.028 0.0
C38 C 0.01865 0.35261 0.04042 0.0
C39 C 0.05532 0.46301 0.04351 0.0
C40 C 0.05382 0.43379 0.96908 0.0
H41 H 0.18621 0.20671 0.05687 0.0
H42 H -0.01161 0.19819 0.12543 0.0
H43 H 0.96356 0.22232 0.03286 0.0
H44 H 0.94098 0.27837 0.0173 0.0
H45 H 0.90327 0.25467 0.05941 0.0
H46 H -0.00106 0.30495 0.13447 0.0
H47 H 0.93465 0.27357 0.12746 0.0
H48 H 0.93563 0.3292 0.10658 0.0
H49 H 0.3182 0.32084 0.99329 0.0
H50 H 0.25599 0.46277 0.97795 0.0
H51 H 0.15972 0.45118 0.00793 0.0
H52 H 0.24503 0.31799 0.08654 0.0
H53 H 0.28859 0.27188 0.06081 0.0
H54 H 0.21996 0.26359 0.08756 0.0
H55 H 0.2071 0.27747 0.965 0.0
H56 H 0.18499 0.23571 -0.00205 0.0
H57 H 0.26347 0.24581 0.99489 0.0
H58 H 0.1719 0.14255 0.0997 0.0
C59 C 0.14289 0.20599 0.07118 0.0
C60 C 0.22007 0.61501 -0.00115 0.0
C61 C 0.21735 0.57373 0.97804 0.0
C62 C 0.16327 0.55307 0.97812 0.0
C63 C 0.11246 0.61942 0.01165 0.0
C64 C 0.16701 0.63724 0.01568 0.0
C65 C 0.16002 0.68283 0.03682 0.0
H66 H 0.97199 0.86322 0.10425 0.0
C67 C 0.06434 0.65435 0.02497 0.0
C68 C 0.09152 0.6916 0.03992 0.0
H69 H 0.16134 0.83109 0.1299 0.0
H70 H 0.1652 0.76473 0.08651 0.0
H71 H 0.97438 0.82578 0.00786 0.0
H72 H 0.94053 0.76495 0.12266 0.0
H73 H 0.88468 0.75198 0.08852 0.0
H74 H 0.89073 0.81033 0.10172 0.0
H75 H 0.90497 0.83967 0.0353 0.0
H76 H 0.91547 0.79125 0.00158 0.0
C77 C 0.187 0.71824 0.00978 0.0
C78 C 0.18989 0.67726 0.07882 0.0
C79 C 0.84994 0.63235 0.9882 0.0
C80 C 0.79758 0.66253 0.98542 0.0
C81 C 0.79649 0.70685 0.00125 0.0
C82 C 0.84867 0.72158 0.01825 0.0
C83 C 0.9021 0.6916 0.019 0.0
C84 C 0.90175 0.64774 0.00434 0.0
C85 C 0.96327 0.62192 0.0034 0.0
C86 C 0.00103 0.6575 0.01972 0.0
C87 C 0.96506 0.69794 0.0296 0.0
C88 C 0.97963 0.60808 0.95893 0.0
C89 C 0.96268 0.58153 0.03277 0.0
C90 C 0.01453 0.84248 0.09939 0.0
C91 C 0.06638 0.85206 0.12038 0.0
C92 C 0.12094 0.82417 0.11403 0.0
C93 C 0.12286 0.78536 0.08946 0.0
C94 C 0.06947 0.77388 0.07169 0.0
C95 C 0.01643 0.80227 0.07663 0.0
C96 C 0.96275 0.78145 0.06003 0.0
C97 C -0.00787 0.73535 0.04591 0.0
C98 C 0.05488 0.73177 0.05174 0.0
C99 C 0.93746 0.81101 0.02448 0.0
C100 C 0.91679 0.77705 0.09479 0.0
H101 H 0.06978 0.56014 0.99164 0.0
H102 H 0.26188 0.63072 -0.00011 0.0
H103 H 0.19891 0.64095 0.08761 0.0
H104 H 0.16022 0.69325 0.10312 0.0
H105 H 0.23381 0.69198 0.07944 0.0
H106 H 0.16955 0.71651 0.97858 0.0
H107 H 0.23705 0.71186 0.00834 0.0
H108 H 0.17525 0.75348 0.0205 0.0
H109 H 0.85167 0.59841 0.97538 0.0
H110 H 0.75612 0.73048 -0.00114 0.0
H111 H 0.84596 0.75605 0.02894 0.0
H112 H 0.94938 0.62712 0.93695 0.0
H113 H 0.9762 0.57131 0.95357 0.0
H114 H 0.02538 0.61605 0.95002 0.0
H115 H 0.93759 0.59221 0.06099 0.0
H116 H 0.00845 0.56834 0.0425 0.0
H117 H 0.94018 0.5535 0.01909 0.0
H118 H 0.16088 0.52098 0.96262 0.0
C119 C 0.11057 0.576 0.9946 0.0
C120 C 0.53084 0.69931 0.60971 0.0
C121 C 0.57967 0.66621 0.61665 0.0
C122 C 0.6339 0.66786 0.59471 0.0
C123 C 0.59533 0.74078 0.56746 0.0
C124 C 0.5394 0.73601 0.58448 0.0
C125 C 0.49299 0.77477 0.57357 0.0
H126 H 0.43754 0.98167 0.486 0.0
C127 C 0.59278 0.78645 0.54959 0.0
C128 C 0.53279 0.80651 0.55274 0.0
H129 H 0.30934 0.88672 0.51439 0.0
H130 H 0.38794 0.8371 0.54715 0.0
H131 H 0.52045 0.96963 0.56736 0.0
H132 H 0.52734 0.91189 0.44871 0.0
H133 H 0.60049 0.92422 0.45999 0.0
H134 H 0.54047 0.96943 0.46052 0.0
H135 H 0.55893 0.99457 0.52697 0.0
H136 H 0.59786 0.95251 0.55894 0.0
C137 C 0.46349 0.79654 0.61236 0.0
C138 C 0.44702 0.75643 0.5443 0.0
C139 C 0.78293 0.84848 0.49603 0.0
C140 C 0.79275 0.89189 0.48209 0.0
C141 C 0.74791 0.92847 0.48743 0.0
C142 C 0.692 0.92152 0.50417 0.0
C143 C 0.68036 0.87724 0.5142 0.0
C144 C 0.72616 0.84201 0.51234 0.0
C145 C 0.70586 0.79828 0.52801 0.0
C146 C 0.63912 0.81256 0.53616 0.0
C147 C 0.62475 0.8586 0.5271 0.0
C148 C 0.74117 0.78632 0.56712 0.0
C149 C 0.71553 0.76153 0.49448 0.0
C150 C 0.42631 0.95108 0.5008 0.0
C151 C 0.36809 0.93766 0.49761 0.0
C152 C 0.35445 0.89722 0.51627 0.0
C153 C 0.40007 0.86823 0.53453 0.0
C154 C 0.45974 0.87961 0.53339 0.0
C155 C 0.47183 0.92098 0.51755 0.0
C156 C 0.53833 0.92478 0.51366 0.0
C157 C 0.56392 0.87798 0.52743 0.0
C158 C 0.51803 0.85206 0.53995 0.0
C159 C 0.55495 0.96239 0.54304 0.0
C160 C 0.55292 0.93328 0.46858 0.0
H161 H 0.68548 0.70604 0.55605 0.0
H162 H 0.48807 0.69771 0.6252 0.0
H163 H 0.46268 0.72179 0.53267 0.0
H164 H 0.44015 0.77783 0.51706 0.0
H165 H 0.40258 0.75425 0.5593 0.0
H166 H 0.49874 0.80453 0.63405 0.0
H167 H 0.43443 0.77312 0.62727 0.0
H168 H 0.43524 0.82871 0.60629 0.0
H169 H 0.81757 0.82011 0.49266 0.0
H170 H 0.75533 0.96198 0.47692 0.0
H171 H 0.65903 0.95047 0.50686 0.0
H172 H 0.7442 0.81733 0.58586 0.0
H173 H 0.78799 0.77137 0.56008 0.0
H174 H 0.71944 0.76282 0.58679 0.0
H175 H 0.70663 0.77678 0.46427 0.0
H176 H 0.68406 0.73515 0.49716 0.0
H177 H 0.76266 0.74495 0.4943 0.0
H178 H 0.67136 0.64193 0.59897 0.0
C179 C 0.64224 0.70536 0.57048 0.0
C180 C 0.71881 0.1145 0.49836 0.0
C181 C 0.71599 0.07325 0.47754 0.0
C182 C 0.66184 0.05268 0.47761 0.0
C183 C 0.61121 0.11905 0.51122 0.0
C184 C 0.66582 0.13678 0.51523 0.0
C185 C 0.65899 0.18233 0.53644 0.0
H186 H 0.47153 0.36262 0.60471 0.0
C187 C 0.5632 0.15399 0.52469 0.0
C188 C 0.59052 0.19116 0.53968 0.0
H189 H 0.66112 0.33047 0.62961 0.0
H190 H 0.66463 0.26419 0.58614 0.0
H191 H 0.47323 0.32547 0.50824 0.0
H192 H 0.4402 0.26443 0.62307 0.0
H193 H 0.3842 0.25136 0.5891 0.0
H194 H 0.39013 0.30974 0.60227 0.0
H195 H 0.40407 0.33936 0.53596 0.0
H196 H 0.41417 0.29104 0.50211 0.0
C197 C 0.68592 0.21776 0.5094 0.0
C198 C 0.68902 0.17665 0.57838 0.0
C199 C 0.34852 0.1324 0.48827 0.0
C200 C 0.29615 0.16261 0.48582 0.0
C201 C 0.29518 0.20681 0.50191 0.0
C202 C 0.34751 0.22139 0.51882 0.0
C203 C 0.40094 0.1914 0.51925 0.0
C204 C 0.40046 0.14764 0.50437 0.0
C205 C 0.46193 0.12176 0.50323 0.0
C206 C 0.49984 0.15722 0.51961 0.0
C207 C 0.46398 0.19763 0.52972 0.0
C208 C 0.47807 0.10808 0.4587 0.0
C209 C 0.46137 0.08124 0.53248 0.0
C210 C 0.51404 0.3419 0.59967 0.0
C211 C 0.56608 0.35144 0.62047 0.0
C212 C 0.62058 0.32358 0.61389 0.0
C213 C 0.62231 0.28482 0.58926 0.0
C214 C 0.56877 0.27336 0.57168 0.0
C215 C 0.51576 0.30175 0.57683 0.0
C216 C 0.46195 0.28101 0.56037 0.0
C217 C 0.4912 0.23495 0.54605 0.0
C218 C 0.55399 0.23131 0.55169 0.0
C219 C 0.43641 0.3107 0.52496 0.0
C220 C 0.41625 0.2765 0.59526 0.0
H221 H 0.56835 0.05987 0.49114 0.0
H222 H 0.76068 0.13014 0.49943 0.0
H223 H 0.69779 0.14032 0.58717 0.0
H224 H 0.65958 0.19276 0.60274 0.0
H225 H 0.7331 0.19115 0.5789 0.0
H226 H 0.66839 0.21607 0.47822 0.0
H227 H 0.73597 0.21136 0.50789 0.0
H228 H 0.67421 0.25299 0.52014 0.0
H229 H 0.35013 0.09856 0.47526 0.0
H230 H 0.2548 0.23047 0.49978 0.0
H231 H 0.34489 0.25579 0.52972 0.0
H232 H 0.44785 0.12733 0.43684 0.0
H233 H 0.47441 0.07137 0.45321 0.0
H234 H 0.52387 0.11593 0.44976 0.0
H235 H 0.43651 0.09186 0.5608 0.0
H236 H 0.50716 0.06789 0.54203 0.0
H237 H 0.43864 0.05334 0.51877 0.0
H238 H 0.65938 0.02059 0.46211 0.0
C239 C 0.60918 0.07567 0.49411 0.0
Zn240 Zn 0.00405 0.1035 0.34177 0.0
Zn241 Zn 0.10677 0.92644 0.34615 0.0
Zn242 Zn 0.05783 0.01527 0.34328 0.0
C243 C 0.08543 0.95109 0.26498 0.0
C244 C -0.00358 0.93352 0.38676 0.0
O245 O 0.11508 0.05749 0.37632 0.0
O246 O 0.06564 0.12677 0.37763 0.0
C247 C 0.03882 0.07547 0.2626 0.0
O248 O 0.06773 0.99018 0.28066 0.0
O249 O 0.10518 0.91818 0.28689 0.0
O250 O 0.04046 0.90421 0.37904 0.0
O251 O -0.00387 0.97478 0.37468 0.0
O252 O 0.01451 0.1091 0.28259 0.0
O253 O 0.05596 0.0376 0.28003 0.0
O254 O 0.96943 0.01952 0.37327 0.0
O255 O 0.92649 0.09008 0.36634 0.0
C256 C 0.92501 0.05024 0.37947 0.0
O257 O 0.14155 0.01239 0.37809 0.0
O258 O 0.18022 0.94027 0.37469 0.0
C259 C 0.11028 0.0994 0.38762 0.0
C260 C 0.18269 0.98041 0.38724 0.0
Zn261 Zn 0.50531 0.60351 0.84163 0.0
Zn262 Zn 0.60713 0.42624 0.84635 0.0
Zn263 Zn 0.55859 0.51515 0.84314 0.0
C264 C 0.58568 0.45059 0.76508 0.0
C265 C 0.49684 0.43381 0.88704 0.0
O266 O 0.61624 0.55727 0.87595 0.0
O267 O 0.56718 0.62668 0.87731 0.0
C268 C 0.5395 0.57515 0.7624 0.0
O269 O 0.56815 0.4898 0.78058 0.0
O270 O 0.60536 0.41778 0.78712 0.0
O271 O 0.54073 0.40435 0.87938 0.0
O272 O 0.49675 0.475 0.8748 0.0
O273 O 0.51554 0.60887 0.78242 0.0
O274 O 0.55654 0.53725 0.77983 0.0
O275 O 0.47029 0.5198 0.87329 0.0
O276 O 0.42774 0.59046 0.86639 0.0
C277 C 0.42607 0.55066 0.87956 0.0
O278 O 0.64247 0.51214 0.87779 0.0
O279 O 0.68077 0.43991 0.87476 0.0
C280 C 0.61175 0.59919 0.88721 0.0
C281 C 0.68348 0.48012 0.88708 0.0
C282 C 0.03369 0.10238 0.15135 0.0
C283 C 0.07699 0.13456 0.1512 0.0
C284 C 0.11068 0.10851 0.21781 0.0
C285 C 0.0595 0.08436 0.22134 0.0
N286 N 0.97326 0.05525 0.19186 0.0
N287 N 0.15095 0.173 0.18786 0.0
C288 C 0.02161 0.07982 0.18796 0.0
C289 C 0.11486 0.13839 0.18508 0.0
N290 N 0.00469 0.09344 0.11658 0.0
N291 N 0.15435 0.10378 0.24655 0.0
H292 H 0.1527 0.19814 0.16616 0.0
H293 H 0.17439 0.17974 0.21387 0.0
H294 H 0.15215 0.08164 0.27078 0.0
H295 H 0.19531 0.11774 0.24388 0.0
H296 H 0.97612 0.06787 0.1139 0.0
H297 H 0.01337 0.10919 0.08939 0.0
H298 H 0.93984 0.05447 0.17022 0.0
H299 H 0.96584 0.03678 0.21784 0.0
C300 C 0.09977 0.92221 0.15381 0.0
C301 C 0.06195 0.8862 0.15376 0.0
C302 C 0.02147 0.91201 0.21956 0.0
C303 C 0.06871 0.93996 0.22347 0.0
N304 N 0.15146 0.9748 0.19443 0.0
N305 N -0.00646 0.84246 0.19098 0.0
C306 C 0.10705 0.94663 0.19035 0.0
C307 C 0.02355 0.88036 0.18746 0.0
N308 N 0.12828 0.9329 0.11907 0.0
N309 N 0.97586 0.91469 0.24756 0.0
H310 H -0.00226 0.81567 0.17034 0.0
H311 H 0.96985 0.83507 0.21695 0.0
H312 H 0.97361 0.93815 0.2713 0.0
H313 H 0.93751 0.89755 0.24453 0.0
H314 H 0.15276 0.96091 0.11639 0.0
H315 H 0.12281 0.91591 0.0919 0.0
H316 H 0.18517 0.9776 0.17289 0.0
H317 H 0.15551 0.9942 0.22047 0.0
C318 C 0.61494 0.63799 0.68454 0.0
C319 C 0.57683 0.63407 0.6508 0.0
C320 C 0.52181 0.57931 0.68781 0.0
C321 C 0.55993 0.58395 0.72106 0.0
N322 N 0.65488 0.60352 0.74596 0.0
N323 N 0.50432 0.59286 0.61648 0.0
C324 C 0.61103 0.60814 0.71733 0.0
C325 C 0.53358 0.60186 0.65113 0.0
N326 N 0.65099 0.67263 0.68715 0.0
N327 N 0.47355 0.5547 0.69191 0.0
H328 H 0.51277 0.60861 0.58924 0.0
H329 H 0.47578 0.56727 0.61392 0.0
H330 H 0.46635 0.53624 0.71793 0.0
H331 H 0.43997 0.55385 0.67038 0.0
H332 H 0.6746 0.67942 0.71307 0.0
H333 H 0.65255 0.69774 0.6654 0.0
H334 H 0.69579 0.61751 0.74313 0.0
H335 H 0.65285 0.58144 0.77024 0.0
C336 C 0.59944 0.42164 0.65385 0.0
C337 C 0.56187 0.38548 0.65393 0.0
C338 C 0.52185 0.41102 0.71991 0.0
C339 C 0.56885 0.43923 0.72364 0.0
N340 N 0.65107 0.47444 0.69429 0.0
N341 N 0.49417 0.34137 0.69138 0.0
C342 C 0.60684 0.44608 0.69037 0.0
C343 C 0.52387 0.37942 0.68778 0.0
N344 N 0.6276 0.43246 0.61902 0.0
N345 N 0.47651 0.41345 0.74811 0.0
H346 H 0.49833 0.31464 0.67066 0.0
H347 H 0.4708 0.33382 0.71743 0.0
H348 H 0.47429 0.43685 0.77189 0.0
H349 H 0.43829 0.39612 0.74522 0.0
H350 H 0.65184 0.46058 0.61625 0.0
H351 H 0.62206 0.41545 0.59188 0.0
H352 H 0.68456 0.47739 0.67262 0.0
H353 H 0.65523 0.49383 0.72031 0.0
C354 C 0.34252 0.40078 0.91608 0.0
C355 C 0.34744 0.39968 0.95864 0.0
C356 C 0.45239 0.41689 0.95392 0.0
C357 C 0.44581 0.42139 0.91159 0.0
N358 N 0.38321 0.4244 0.85258 0.0
N359 N 0.40288 0.41174 0.01901 0.0
C360 C 0.39042 0.41531 0.8927 0.0
C361 C 0.40138 0.4089 0.9779 0.0
N362 N 0.29251 0.38686 0.89802 0.0
N363 N 0.50733 0.4205 0.97112 0.0
H364 H 0.36664 0.40502 0.03743 0.0
H365 H 0.43821 0.42361 0.03489 0.0
H366 H 0.54489 0.4289 0.95484 0.0
H367 H 0.51688 0.41272 0.00106 0.0
H368 H 0.289 0.38219 0.86706 0.0
H369 H 0.25613 0.37621 0.91418 0.0
H370 H 0.34171 0.42616 0.83816 0.0
H371 H 0.41802 0.43355 0.8341 0.0
C372 C 0.75351 0.64988 0.91815 0.0
C373 C 0.74749 0.64906 0.96075 0.0
C374 C 0.65018 0.61818 0.95498 0.0
C375 C 0.65882 0.61551 0.9126 0.0
N376 N 0.72156 0.62218 0.85379 0.0
N377 N 0.6956 0.62694 0.02035 0.0
C378 C 0.7114 0.62939 0.89414 0.0
C379 C 0.69722 0.6318 0.97943 0.0
N380 N 0.79876 0.67122 0.90072 0.0
N381 N 0.5968 0.60815 0.97174 0.0
H382 H 0.72873 0.6376 0.03918 0.0
H383 H 0.66386 0.60958 0.03541 0.0
H384 H 0.56226 0.59627 0.9549 0.0
H385 H 0.58518 0.61413 0.0019 0.0
H386 H 0.80178 0.67717 0.86992 0.0
H387 H 0.83074 0.68656 0.91733 0.0
H388 H 0.76225 0.62669 0.83939 0.0
H389 H 0.69082 0.60829 0.83505 0.0
C390 C 0.77009 0.48402 0.98369 0.0
C391 C 0.82538 0.4615 0.96908 0.0
C392 C 0.79231 0.47662 0.89996 0.0
C393 C 0.73302 0.48814 0.9145 0.0
N394 N 0.66382 0.50395 0.97045 0.0
N395 N 0.88789 0.43307 0.91221 0.0
C396 C 0.72153 0.49344 0.95648 0.0
C397 C 0.83695 0.45782 0.92686 0.0
N398 N 0.76407 0.49585 0.02346 0.0
N399 N 0.80493 0.4822 0.86007 0.0
H400 H 0.92055 0.41615 0.93047 0.0
H401 H 0.89503 0.42564 0.88172 0.0
H402 H 0.77204 0.49596 0.8401 0.0
H403 H 0.8486 0.47785 0.84806 0.0
H404 H 0.72668 0.51594 0.03519 0.0
H405 H 0.79925 0.48915 0.04385 0.0
H406 H 0.65179 0.50297 0.00081 0.0
H407 H 0.62726 0.51155 0.95141 0.0
C408 C 0.26437 0.55878 0.90956 0.0
C409 C 0.269 0.55562 0.95219 0.0
C410 C 0.37828 0.53642 0.94628 0.0
C411 C 0.37335 0.541 0.90389 0.0
N412 N 0.31225 0.54006 0.84482 0.0
N413 N 0.32613 0.52878 0.01008 0.0
C414 C 0.31629 0.54629 0.88547 0.0
C415 C 0.32473 0.53997 0.9702 0.0
N416 N 0.21209 0.57718 0.89211 0.0
N417 N 0.43386 0.53171 0.96382 0.0
H418 H 0.28719 0.53098 0.02808 0.0
H419 H 0.3644 0.51327 0.02419 0.0
H420 H 0.47414 0.52812 0.94727 0.0
H421 H 0.44021 0.53356 0.9948 0.0
H422 H 0.20887 0.5848 0.86156 0.0
H423 H 0.17316 0.58868 0.90836 0.0
H424 H 0.27129 0.53945 0.83 0.0
H425 H 0.35024 0.53064 0.82676 0.0
C426 C 0.8424 0.89962 0.4154 0.0
C427 C 0.84696 0.89889 0.45799 0.0
C428 C 0.95171 0.91662 0.45354 0.0
C429 C 0.94543 0.92082 0.41117 0.0
N430 N 0.8834 0.923 0.35192 0.0
N431 N 0.90175 0.91164 0.51849 0.0
C432 C 0.89033 0.91426 0.39211 0.0
C433 C 0.90061 0.90852 0.47739 0.0
N434 N 0.79271 0.8853 0.39726 0.0
N435 N 0.00644 0.9206 0.47089 0.0
H436 H 0.86548 0.90481 0.53683 0.0
H437 H 0.93682 0.92381 0.53443 0.0
H438 H 0.04406 0.92902 0.45469 0.0
H439 H 0.01581 0.91308 0.50091 0.0
H440 H 0.78952 0.88038 0.3663 0.0
H441 H 0.75632 0.8746 0.41335 0.0
H442 H 0.84207 0.92439 0.33733 0.0
H443 H 0.91827 0.93222 0.33353 0.0
C444 C 0.25125 0.15115 0.41862 0.0
C445 C 0.24588 0.14936 0.46121 0.0
C446 C 0.1491 0.11769 0.45545 0.0
C447 C 0.15721 0.1159 0.413 0.0
N448 N 0.21875 0.12459 0.35398 0.0
N449 N 0.1952 0.1256 0.5207 0.0
C450 C 0.20915 0.13079 0.39449 0.0
C451 C 0.1962 0.13126 0.47986 0.0
N452 N 0.29591 0.17324 0.40132 0.0
N453 N 0.09613 0.10693 0.47229 0.0
H454 H 0.22833 0.13625 0.53954 0.0
H455 H 0.16399 0.10762 0.53565 0.0
H456 H 0.06151 0.0952 0.45542 0.0
H457 H 0.08485 0.11221 0.50259 0.0
H458 H 0.29838 0.17991 0.37062 0.0
H459 H 0.32794 0.18842 0.41801 0.0
H460 H 0.25905 0.12986 0.33941 0.0
H461 H 0.18798 0.11082 0.33519 0.0
C462 C 0.33612 0.95813 0.42696 0.0
C463 C 0.32454 0.96135 0.46921 0.0
C464 C 0.22058 0.99315 0.45677 0.0
C465 C 0.23213 0.98837 0.41476 0.0
N466 N 0.3041 0.98324 0.36038 0.0
N467 N 0.26304 0.995 0.5238 0.0
C468 C 0.29147 0.97718 0.4002 0.0
C469 C 0.26915 0.98359 0.48395 0.0
N470 N 0.38705 0.93352 0.41214 0.0
N471 N 0.16282 1.00329 0.47077 0.0
H472 H 0.29823 0.98821 0.54417 0.0
H473 H 0.22554 0.01486 0.53566 0.0
H474 H 0.12625 1.01096 0.45175 0.0
H475 H 0.15078 1.00193 0.5011 0.0
H476 H 0.39421 0.92646 0.38158 0.0
H477 H 0.41964 0.9163 0.43027 0.0
H478 H 0.34779 0.97913 0.34839 0.0
H479 H 0.27118 0.99715 0.3405 0.0
C480 C 0.82337 0.03943 0.46992 0.0
C481 C 0.7677 0.055 0.45179 0.0
C482 C 0.81529 0.04553 0.38517 0.0
C483 C 0.87227 0.04039 0.4037 0.0
N484 N 0.93253 0.03129 0.46375 0.0
N485 N 0.711 0.0763 0.39157 0.0
C486 C 0.87702 0.03589 0.4461 0.0
C487 C 0.76324 0.05802 0.40914 0.0
N488 N 0.82461 0.0283 0.50981 0.0
N489 N 0.81144 0.03918 0.34452 0.0
H490 H 0.672 0.08781 0.40772 0.0
H491 H 0.70789 0.08381 0.36099 0.0
H492 H 0.84954 0.02974 0.32657 0.0
H493 H 0.77056 0.03846 0.32962 0.0
H494 H 0.86285 0.01287 0.52401 0.0
H495 H 0.78559 0.03046 0.52773 0.0
H496 H 0.93874 0.03321 0.49474 0.0
H497 H 0.97287 0.0277 0.44727 0.0
loop_
_geom_bond_atom_site_label_1
_geom_bond_atom_site_label_2
_geom_bond_distance
_geom_bond_site_symmetry_2
_ccdc_geom_bond_type
C0 C1 1.391 . S
C0 C4 1.391 . S
C0 H42 0.948 . S
C1 C0 1.391 . S
C1 C2 1.391 . S
C2 C1 1.391 . S
C2 H58 0.947 . S
C2 C59 1.392 . S
C3 C4 1.391 . S
C3 C7 1.397 . S
C3 C59 1.419 . S
C4 C0 1.391 . S
C4 C3 1.391 . S
C4 C5 1.399 . S
C5 C4 1.399 . S
C5 C8 1.396 . S
C5 C17 1.452 1_455 S
C5 C18 1.684 1_455 S
H6 C30 0.948 . S
C7 C3 1.397 . S
C7 C8 1.394 . S
C7 C26 1.723 . S
C8 C5 1.396 . S
C8 C7 1.394 . S
C8 C38 1.723 . S
H9 C32 0.947 . S
H10 C33 0.948 . S
H11 C39 0.982 . S
H12 C40 0.979 . S
H13 C40 0.980 . S
H14 C40 0.983 . S
H15 C39 0.979 . S
H16 C39 0.977 . S
C17 C5 1.452 1_655 S
C17 H46 0.981 1_655 S
C17 H47 0.980 . S
C17 H48 0.978 . S
C18 C5 1.684 1_655 S
C18 H43 0.979 1_655 S
C18 H44 0.980 . S
C18 H45 0.983 . S
C19 C20 1.391 . S
C19 C24 1.391 . S
C19 H49 0.948 . S
C20 C19 1.391 . S
C20 C21 1.391 . S
C21 C20 1.391 . S
C21 C22 1.392 . S
C21 H50 0.947 . S
C22 C21 1.392 . S
C22 C23 1.419 . S
C22 H51 0.948 . S
C23 C22 1.419 . S
C23 C24 1.391 . S
C23 C27 1.397 1_556 S
C24 C19 1.391 . S
C24 C23 1.391 . S
C24 C25 1.399 1_556 S
C25 C24 1.399 1_554 S
C25 C26 1.396 . S
C25 C28 1.453 . S
C25 C29 1.684 . S
C26 C7 1.723 . S
C26 C25 1.396 . S
C26 C27 1.394 . S
C27 C23 1.397 1_554 S
C27 C26 1.394 . S
C27 C37 1.723 1_554 S
C28 C25 1.453 . S
C28 H52 0.982 . S
C28 H53 0.979 . S
C28 H54 0.977 . S
C29 C25 1.684 . S
C29 H55 0.979 . S
C29 H56 0.980 . S
C29 H57 0.983 . S
C30 H6 0.948 . S
C30 C31 1.391 . S
C30 C35 1.391 1_655 S
C31 C30 1.391 . S
C31 C32 1.391 . S
C32 H9 0.947 . S
C32 C31 1.391 . S
C32 C33 1.392 1_556 S
C33 H10 0.948 . S
C33 C32 1.392 1_554 S
C33 C34 1.419 1_654 S
C34 C33 1.419 1_456 S
C34 C35 1.391 . S
C34 C38 1.397 1_556 S
C35 C30 1.391 1_455 S
C35 C34 1.391 . S
C35 C36 1.399 . S
C36 C35 1.399 . S
C36 C37 1.396 . S
C36 C39 1.453 . S
C36 C40 1.684 . S
C37 C27 1.723 1_556 S
C37 C36 1.396 . S
C37 C38 1.394 1_556 S
C38 C8 1.723 . S
C38 C34 1.397 1_554 S
C38 C37 1.394 1_554 S
C39 H11 0.982 . S
C39 H15 0.979 . S
C39 H16 0.977 . S
C39 C36 1.453 . S
C40 H12 0.979 . S
C40 H13 0.980 . S
C40 H14 0.983 . S
C40 C36 1.684 . S
H41 C59 0.948 . S
H42 C0 0.948 . S
H43 C18 0.979 1_455 S
H44 C18 0.980 . S
H45 C18 0.983 . S
H46 C17 0.981 1_455 S
H47 C17 0.980 . S
H48 C17 0.978 . S
H49 C19 0.948 . S
H50 C21 0.947 . S
H51 C22 0.948 . S
H52 C28 0.982 . S
H53 C28 0.979 . S
H54 C28 0.977 . S
H55 C29 0.979 . S
H56 C29 0.980 . S
H57 C29 0.983 . S
H58 C2 0.947 . S
C59 C2 1.392 . S
C59 C3 1.419 . S
C59 H41 0.948 . S
C60 C61 1.391 . S
C60 C64 1.391 1_556 S
C60 H102 0.958 . S
C61 C60 1.391 . S
C61 C62 1.391 . S
C62 C61 1.391 . S
C62 H118 0.947 . S
C62 C119 1.392 . S
C63 C64 1.391 1_556 S
C63 C67 1.397 1_556 S
C63 C119 1.419 . S
C64 C60 1.391 1_554 S
C64 C63 1.391 1_554 S
C64 C65 1.399 . S
C65 C64 1.399 . S
C65 C68 1.396 . S
C65 C77 1.453 . S
C65 C78 1.684 . S
H66 C90 0.948 . S
C67 C63 1.397 1_554 S
C67 C68 1.394 . S
C67 C86 1.723 1_454 S
C68 C65 1.396 . S
C68 C67 1.394 . S
C68 C98 1.723 . S
H69 C92 0.947 . S
H70 C93 0.948 . S
H71 C99 0.982 . S
H72 C100 0.979 . S
H73 C100 0.980 . S
H74 C100 0.983 . S
H75 C99 0.979 . S
H76 C99 0.977 . S
C77 C65 1.453 . S
C77 H106 0.982 . S
C77 H107 0.979 . S
C77 H108 0.977 . S
C78 C65 1.684 . S
C78 H103 0.979 . S
C78 H104 0.980 . S
C78 H105 0.983 . S
C79 C80 1.391 . S
C79 C84 1.391 . S
C79 H109 0.948 . S
C80 C79 1.391 . S
C80 C81 1.391 1_556 S
C81 C80 1.391 1_554 S
C81 C82 1.392 . S
C81 H110 0.947 . S
C82 C81 1.392 . S
C82 C83 1.419 . S
C82 H111 0.948 . S
C83 C82 1.419 . S
C83 C84 1.391 1_554 S
C83 C87 1.397 . S
C84 C79 1.391 . S
C84 C83 1.391 1_556 S
C84 C85 1.399 . S
C85 C84 1.399 . S
C85 C86 1.396 . S
C85 C88 1.453 . S
C85 C89 1.684 . S
C86 C67 1.723 1_656 S
C86 C85 1.396 . S
C86 C87 1.394 1_556 S
C87 C83 1.397 . S
C87 C86 1.394 1_554 S
C87 C97 1.723 . S
C88 C85 1.453 . S
C88 H112 0.982 . S
C88 H113 0.979 . S
C88 H114 0.977 1_655 S
C89 C85 1.684 . S
C89 H115 0.979 . S
C89 H116 0.980 1_655 S
C89 H117 0.983 . S
C90 H66 0.948 . S
C90 C91 1.391 1_655 S
C90 C95 1.391 . S
C91 C90 1.391 1_455 S
C91 C92 1.391 . S
C92 H69 0.947 . S
C92 C91 1.391 . S
C92 C93 1.392 . S
C93 H70 0.948 . S
C93 C92 1.392 . S
C93 C94 1.419 . S
C94 C93 1.419 . S
C94 C95 1.391 1_455 S
C94 C98 1.397 . S
C95 C90 1.391 . S
C95 C94 1.391 1_655 S
C95 C96 1.399 . S
C96 C95 1.399 . S
C96 C97 1.396 . S
C96 C99 1.453 . S
C96 C100 1.684 . S
C97 C87 1.723 . S
C97 C96 1.396 . S
C97 C98 1.394 1_655 S
C98 C68 1.723 . S
C98 C94 1.397 . S
C98 C97 1.394 1_455 S
C99 H71 0.982 . S
C99 H75 0.979 . S
C99 H76 0.977 . S
C99 C96 1.453 . S
C100 H72 0.979 . S
C100 H73 0.980 . S
C100 H74 0.983 . S
C100 C96 1.684 . S
H101 C119 0.948 . S
H102 C60 0.958 . S
H103 C78 0.979 . S
H104 C78 0.980 . S
H105 C78 0.983 . S
H106 C77 0.982 . S
H107 C77 0.979 . S
H108 C77 0.977 . S
H109 C79 0.948 . S
H110 C81 0.947 . S
H111 C82 0.948 . S
H112 C88 0.982 . S
H113 C88 0.979 . S
H114 C88 0.977 1_455 S
H115 C89 0.979 . S
H116 C89 0.980 1_455 S
H117 C89 0.983 . S
H118 C62 0.947 . S
C119 C62 1.392 . S
C119 C63 1.419 . S
C119 H101 0.948 . S
C120 C121 1.391 . S
C120 C124 1.391 . S
C120 H162 0.948 . S
C121 C120 1.391 . S
C121 C122 1.391 . S
C122 C121 1.391 . S
C122 H178 0.947 . S
C122 C179 1.392 . S
C123 C124 1.391 . S
C123 C127 1.397 . S
C123 C179 1.419 . S
C124 C120 1.391 . S
C124 C123 1.391 . S
C124 C125 1.399 . S
C125 C124 1.399 . S
C125 C128 1.396 . S
C125 C137 1.453 . S
C125 C138 1.684 . S
H126 C150 0.948 . S
C127 C123 1.397 . S
C127 C128 1.394 . S
C127 C146 1.723 . S
C128 C125 1.396 . S
C128 C127 1.394 . S
C128 C158 1.723 . S
H129 C152 0.947 . S
H130 C153 0.948 . S
H131 C159 0.982 . S
H132 C160 0.979 . S
H133 C160 0.980 . S
H134 C160 0.983 . S
H135 C159 0.979 . S
H136 C159 0.977 . S
C137 C125 1.453 . S
C137 H166 0.982 . S
C137 H167 0.979 . S
C137 H168 0.977 . S
C138 C125 1.684 . S
C138 H163 0.979 . S
C138 H164 0.980 . S
C138 H165 0.983 . S
C139 C140 1.391 . S
C139 C144 1.391 . S
C139 H169 0.948 . S
C140 C139 1.391 . S
C140 C141 1.391 . S
C141 C140 1.391 . S
C141 C142 1.392 . S
C141 H170 0.947 . S
C142 C141 1.392 . S
C142 C143 1.419 . S
C142 H171 0.948 . S
C143 C142 1.419 . S
C143 C144 1.391 . S
C143 C147 1.397 . S
C144 C139 1.391 . S
C144 C143 1.391 . S
C144 C145 1.399 . S
C145 C144 1.399 . S
C145 C146 1.396 . S
C145 C148 1.453 . S
C145 C149 1.684 . S
C146 C127 1.723 . S
C146 C145 1.396 . S
C146 C147 1.394 . S
C147 C143 1.397 . S
C147 C146 1.394 . S
C147 C157 1.723 . S
C148 C145 1.453 . S
C148 H172 0.982 . S
C148 H173 0.979 . S
C148 H174 0.977 . S
C149 C145 1.684 . S
C149 H175 0.979 . S
C149 H176 0.980 . S
C149 H177 0.983 . S
C150 H126 0.948 . S
C150 C151 1.391 . S
C150 C155 1.391 . S
C151 C150 1.391 . S
C151 C152 1.391 . S
C152 H129 0.947 . S
C152 C151 1.391 . S
C152 C153 1.392 . S
C153 H130 0.948 . S
C153 C152 1.392 . S
C153 C154 1.419 . S
C154 C153 1.419 . S
C154 C155 1.391 . S
C154 C158 1.397 . S
C155 C150 1.391 . S
C155 C154 1.391 . S
C155 C156 1.399 . S
C156 C155 1.399 . S
C156 C157 1.396 . S
C156 C159 1.453 . S
C156 C160 1.684 . S
C157 C147 1.723 . S
C157 C156 1.396 . S
C157 C158 1.394 . S
C158 C128 1.723 . S
C158 C154 1.397 . S
C158 C157 1.394 . S
C159 H131 0.982 . S
C159 H135 0.979 . S
C159 H136 0.977 . S
C159 C156 1.453 . S
C160 H132 0.979 . S
C160 H133 0.980 . S
C160 H134 0.983 . S
C160 C156 1.684 . S
H161 C179 0.948 . S
H162 C120 0.948 . S
H163 C138 0.979 . S
H164 C138 0.980 . S
H165 C138 0.983 . S
H166 C137 0.982 . S
H167 C137 0.979 . S
H168 C137 0.977 . S
H169 C139 0.948 . S
H170 C141 0.947 . S
H171 C142 0.948 . S
H172 C148 0.982 . S
H173 C148 0.979 . S
H174 C148 0.977 . S
H175 C149 0.979 . S
H176 C149 0.980 . S
H177 C149 0.983 . S
H178 C122 0.947 . S
C179 C122 1.392 . S
C179 C123 1.419 . S
C179 H161 0.948 . S
C180 C181 1.391 . S
C180 C184 1.391 . S
C180 H222 0.948 . S
C181 C180 1.391 . S
C181 C182 1.391 . S
C182 C181 1.391 . S
C182 H238 0.947 . S
C182 C239 1.392 . S
C183 C184 1.391 . S
C183 C187 1.397 . S
C183 C239 1.419 . S
C184 C180 1.391 . S
C184 C183 1.391 . S
C184 C185 1.399 . S
C185 C184 1.399 . S
C185 C188 1.396 . S
C185 C197 1.453 . S
C185 C198 1.684 . S
H186 C210 0.948 . S
C187 C183 1.397 . S
C187 C188 1.394 . S
C187 C206 1.723 . S
C188 C185 1.396 . S
C188 C187 1.394 . S
C188 C218 1.723 . S
H189 C212 0.947 . S
H190 C213 0.948 . S
H191 C219 0.982 . S
H192 C220 0.979 . S
H193 C220 0.980 . S
H194 C220 0.983 . S
H195 C219 0.979 . S
H196 C219 0.977 . S
C197 C185 1.453 . S
C197 H226 0.982 . S
C197 H227 0.979 . S
C197 H228 0.977 . S
C198 C185 1.684 . S
C198 H223 0.979 . S
C198 H224 0.980 . S
C198 H225 0.983 . S
C199 C200 1.391 . S
C199 C204 1.391 . S
C199 H229 0.948 . S
C200 C199 1.391 . S
C200 C201 1.391 . S
C201 C200 1.391 . S
C201 C202 1.392 . S
C201 H230 0.947 . S
C202 C201 1.392 . S
C202 C203 1.419 . S
C202 H231 0.948 . S
C203 C202 1.419 . S
C203 C204 1.391 . S
C203 C207 1.397 . S
C204 C199 1.391 . S
C204 C203 1.391 . S
C204 C205 1.399 . S
C205 C204 1.399 . S
C205 C206 1.396 . S
C205 C208 1.453 . S
C205 C209 1.684 . S
C206 C187 1.723 . S
C206 C205 1.396 . S
C206 C207 1.394 . S
C207 C203 1.397 . S
C207 C206 1.394 . S
C207 C217 1.723 . S
C208 C205 1.453 . S
C208 H232 0.982 . S
C208 H233 0.979 . S
C208 H234 0.977 . S
C209 C205 1.684 . S
C209 H235 0.979 . S
C209 H236 0.980 . S
C209 H237 0.983 . S
C210 H186 0.948 . S
C210 C211 1.391 . S
C210 C215 1.391 . S
C211 C210 1.391 . S
C211 C212 1.391 . S
C212 H189 0.947 . S
C212 C211 1.391 . S
C212 C213 1.392 . S
C213 H190 0.948 . S
C213 C212 1.392 . S
C213 C214 1.419 . S
C214 C213 1.419 . S
C214 C215 1.391 . S
C214 C218 1.397 . S
C215 C210 1.391 . S
C215 C214 1.391 . S
C215 C216 1.399 . S
C216 C215 1.399 . S
C216 C217 1.396 . S
C216 C219 1.453 . S
C216 C220 1.684 . S
C217 C207 1.723 . S
C217 C216 1.396 . S
C217 C218 1.394 . S
C218 C188 1.723 . S
C218 C214 1.397 . S
C218 C217 1.394 . S
C219 H191 0.982 . S
C219 H195 0.979 . S
C219 H196 0.977 . S
C219 C216 1.453 . S
C220 H192 0.979 . S
C220 H193 0.980 . S
C220 H194 0.983 . S
C220 C216 1.684 . S
H221 C239 0.948 . S
H222 C180 0.948 . S
H223 C198 0.979 . S
H224 C198 0.980 . S
H225 C198 0.983 . S
H226 C197 0.982 . S
H227 C197 0.979 . S
H228 C197 0.977 . S
H229 C199 0.948 . S
H230 C201 0.947 . S
H231 C202 0.948 . S
H232 C208 0.982 . S
H233 C208 0.979 . S
H234 C208 0.977 . S
H235 C209 0.979 . S
H236 C209 0.980 . S
H237 C209 0.983 . S
H238 C182 0.947 . S
C239 C182 1.392 . S
C239 C183 1.419 . S
C239 H221 0.948 . S
Zn240 O246 1.920 . S
Zn240 O252 1.898 . S
Zn240 O255 1.905 1_455 S
Zn241 O249 1.905 . S
Zn241 O250 1.898 . S
Zn241 O258 1.920 . S
Zn242 O245 2.080 . S
Zn242 O248 2.114 1_545 S
Zn242 O251 2.120 1_545 S
Zn242 O253 2.120 . S
Zn242 O254 2.114 1_455 S
Zn242 O257 2.080 1_545 S
C243 O248 1.166 . S
C243 O249 1.182 . S
C244 O250 1.167 . S
C244 O251 1.299 . S
O245 Zn242 2.080 . S
O245 C259 1.305 . S
O246 Zn240 1.920 . S
O246 C259 1.234 . S
C247 O252 1.167 . S
C247 O253 1.299 . S
O248 Zn242 2.114 1_565 S
O248 C243 1.166 . S
O249 Zn241 1.905 . S
O249 C243 1.182 . S
O250 Zn241 1.898 . S
O250 C244 1.167 . S
O251 Zn242 2.120 1_565 S
O251 C244 1.299 . S
O252 Zn240 1.898 . S
O252 C247 1.167 . S
O253 Zn242 2.120 . S
O253 C247 1.299 . S
O254 Zn242 2.114 1_655 S
O254 C256 1.166 . S
O255 Zn240 1.905 1_655 S
O255 C256 1.182 . S
C256 O254 1.166 . S
C256 O255 1.182 . S
O257 Zn242 2.080 1_565 S
O257 C260 1.305 . S
O258 Zn241 1.920 . S
O258 C260 1.234 . S
C259 O245 1.305 . S
C259 O246 1.234 . S
C260 O257 1.305 . S
C260 O258 1.234 . S
Zn261 O267 1.920 . S
Zn261 O273 1.898 . S
Zn261 O276 1.905 . S
Zn262 O270 1.905 . S
Zn262 O271 1.898 . S
Zn262 O279 1.920 . S
Zn263 O266 2.080 . S
Zn263 O269 2.114 . S
Zn263 O272 2.120 . S
Zn263 O274 2.120 . S
Zn263 O275 2.114 . S
Zn263 O278 2.080 . S
C264 O269 1.166 . S
C264 O270 1.182 . S
C265 O271 1.167 . S
C265 O272 1.299 . S
O266 Zn263 2.080 . S
O266 C280 1.305 . S
O267 Zn261 1.920 . S
O267 C280 1.234 . S
C268 O273 1.167 . S
C268 O274 1.299 . S
O269 Zn263 2.114 . S
O269 C264 1.166 . S
O270 Zn262 1.905 . S
O270 C264 1.182 . S
O271 Zn262 1.898 . S
O271 C265 1.167 . S
O272 Zn263 2.120 . S
O272 C265 1.299 . S
O273 Zn261 1.898 . S
O273 C268 1.167 . S
O274 Zn263 2.120 . S
O274 C268 1.299 . S
O275 Zn263 2.114 . S
O275 C277 1.166 . S
O276 Zn261 1.905 . S
O276 C277 1.182 . S
C277 O275 1.166 . S
C277 O276 1.182 . S
O278 Zn263 2.080 . S
O278 C281 1.305 . S
O279 Zn262 1.920 . S
O279 C281 1.234 . S
C280 O266 1.305 . S
C280 O267 1.234 . S
C281 O278 1.305 . S
C281 O279 1.234 . S
C282 C283 1.363 . S
C282 C288 1.379 . S
C282 N290 1.356 . S
C283 C282 1.363 . S
C283 C289 1.363 . S
C284 C285 1.363 . S
C284 C289 1.379 . S
C284 N291 1.356 . S
C285 C284 1.363 . S
C285 C288 1.363 . S
N286 C288 1.356 . S
N286 H298 0.984 . S
N286 H299 0.985 . S
N287 C289 1.356 . S
N287 H292 0.984 . S
N287 H293 0.985 . S
C288 C282 1.379 . S
C288 C285 1.363 . S
C288 N286 1.356 . S
C289 C283 1.363 . S
C289 C284 1.379 . S
C289 N287 1.356 . S
N290 C282 1.356 . S
N290 H296 0.984 . S
N290 H297 0.984 . S
N291 C284 1.356 . S
N291 H294 0.984 . S
N291 H295 0.985 . S
H292 N287 0.984 . S
H293 N287 0.985 . S
H294 N291 0.984 . S
H295 N291 0.985 . S
H296 N290 0.984 . S
H297 N290 0.984 . S
H298 N286 0.984 . S
H299 N286 0.985 . S
C300 C301 1.363 . S
C300 C306 1.379 . S
C300 N308 1.356 . S
C301 C300 1.363 . S
C301 C307 1.363 1_455 S
C302 C303 1.363 1_655 S
C302 C307 1.379 . S
C302 N309 1.356 . S
C303 C302 1.363 1_455 S
C303 C306 1.363 . S
N304 C306 1.356 . S
N304 H316 0.984 . S
N304 H317 0.985 . S
N305 C307 1.356 . S
N305 H310 0.984 . S
N305 H311 0.985 . S
C306 C300 1.379 . S
C306 C303 1.363 . S
C306 N304 1.356 . S
C307 C301 1.363 1_655 S
C307 C302 1.379 . S
C307 N305 1.356 . S
N308 C300 1.356 . S
N308 H314 0.984 . S
N308 H315 0.984 . S
N309 C302 1.356 . S
N309 H312 0.984 . S
N309 H313 0.985 . S
H310 N305 0.984 . S
H311 N305 0.985 . S
H312 N309 0.984 . S
H313 N309 0.985 . S
H314 N308 0.984 . S
H315 N308 0.984 . S
H316 N304 0.984 . S
H317 N304 0.985 . S
C318 C319 1.363 . S
C318 C324 1.379 . S
C318 N326 1.356 . S
C319 C318 1.363 . S
C319 C325 1.363 . S
C320 C321 1.363 . S
C320 C325 1.379 . S
C320 N327 1.356 . S
C321 C320 1.363 . S
C321 C324 1.363 . S
N322 C324 1.356 . S
N322 H334 0.984 . S
N322 H335 0.985 . S
N323 C325 1.356 . S
N323 H328 0.984 . S
N323 H329 0.985 . S
C324 C318 1.379 . S
C324 C321 1.363 . S
C324 N322 1.356 . S
C325 C319 1.363 . S
C325 C320 1.379 . S
C325 N323 1.356 . S
N326 C318 1.356 . S
N326 H332 0.984 . S
N326 H333 0.984 . S
N327 C320 1.356 . S
N327 H330 0.984 . S
N327 H331 0.985 . S
H328 N323 0.984 . S
H329 N323 0.985 . S
H330 N327 0.984 . S
H331 N327 0.985 . S
H332 N326 0.984 . S
H333 N326 0.984 . S
H334 N322 0.984 . S
H335 N322 0.985 . S
C336 C337 1.363 . S
C336 C342 1.379 . S
C336 N344 1.356 . S
C337 C336 1.363 . S
C337 C343 1.363 . S
C338 C339 1.363 . S
C338 C343 1.379 . S
C338 N345 1.356 . S
C339 C338 1.363 . S
C339 C342 1.363 . S
N340 C342 1.356 . S
N340 H352 0.984 . S
N340 H353 0.985 . S
N341 C343 1.356 . S
N341 H346 0.984 . S
N341 H347 0.985 . S
C342 C336 1.379 . S
C342 C339 1.363 . S
C342 N340 1.356 . S
C343 C337 1.363 . S
C343 C338 1.379 . S
C343 N341 1.356 . S
N344 C336 1.356 . S
N344 H350 0.984 . S
N344 H351 0.984 . S
N345 C338 1.356 . S
N345 H348 0.984 . S
N345 H349 0.985 . S
H346 N341 0.984 . S
H347 N341 0.985 . S
H348 N345 0.984 . S
H349 N345 0.985 . S
H350 N344 0.984 . S
H351 N344 0.984 . S
H352 N340 0.984 . S
H353 N340 0.985 . S
C354 C355 1.363 . S
C354 C360 1.379 . S
C354 N362 1.356 . S
C355 C354 1.363 . S
C355 C361 1.363 . S
C356 C357 1.363 . S
C356 C361 1.379 . S
C356 N363 1.356 . S
C357 C356 1.363 . S
C357 C360 1.363 . S
N358 C360 1.356 . S
N358 H370 0.984 . S
N358 H371 0.985 . S
N359 C361 1.356 1_554 S
N359 H364 0.985 . S
N359 H365 0.985 . S
C360 C354 1.379 . S
C360 C357 1.363 . S
C360 N358 1.356 . S
C361 C355 1.363 . S
C361 C356 1.379 . S
C361 N359 1.356 1_556 S
N362 C354 1.356 . S
N362 H368 0.984 . S
N362 H369 0.984 . S
N363 C356 1.356 . S
N363 H366 0.984 . S
N363 H367 0.985 1_556 S
H364 N359 0.985 . S
H365 N359 0.985 . S
H366 N363 0.984 . S
H367 N363 0.985 1_554 S
H368 N362 0.984 . S
H369 N362 0.984 . S
H370 N358 0.984 . S
H371 N358 0.985 . S
C372 C373 1.363 . S
C372 C378 1.379 . S
C372 N380 1.356 . S
C373 C372 1.363 . S
C373 C379 1.363 . S
C374 C375 1.363 . S
C374 C379 1.379 . S
C374 N381 1.356 . S
C375 C374 1.363 . S
C375 C378 1.363 . S
N376 C378 1.356 . S
N376 H388 0.984 . S
N376 H389 0.985 . S
N377 C379 1.356 1_554 S
N377 H382 0.984 . S
N377 H383 0.985 . S
C378 C372 1.379 . S
C378 C375 1.363 . S
C378 N376 1.356 . S
C379 C373 1.363 . S
C379 C374 1.379 . S
C379 N377 1.356 1_556 S
N380 C372 1.356 . S
N380 H386 0.984 . S
N380 H387 0.984 . S
N381 C374 1.356 . S
N381 H384 0.984 . S
N381 H385 0.985 1_556 S
H382 N377 0.984 . S
H383 N377 0.985 . S
H384 N381 0.984 . S
H385 N381 0.985 1_554 S
H386 N380 0.984 . S
H387 N380 0.984 . S
H388 N376 0.984 . S
H389 N376 0.985 . S
C390 C391 1.363 . S
C390 C396 1.379 . S
C390 N398 1.356 . S
C391 C390 1.363 . S
C391 C397 1.363 . S
C392 C393 1.363 . S
C392 C397 1.379 . S
C392 N399 1.356 . S
C393 C392 1.363 . S
C393 C396 1.363 . S
N394 C396 1.356 . S
N394 H406 0.984 . S
N394 H407 0.985 . S
N395 C397 1.356 . S
N395 H400 0.984 . S
N395 H401 0.985 . S
C396 C390 1.379 . S
C396 C393 1.363 . S
C396 N394 1.356 . S
C397 C391 1.363 . S
C397 C392 1.379 . S
C397 N395 1.356 . S
N398 C390 1.356 . S
N398 H404 0.984 1_556 S
N398 H405 0.983 1_556 S
N399 C392 1.356 . S
N399 H402 0.984 . S
N399 H403 0.985 . S
H400 N395 0.984 . S
H401 N395 0.985 . S
H402 N399 0.984 . S
H403 N399 0.985 . S
H404 N398 0.984 1_554 S
H405 N398 0.983 1_554 S
H406 N394 0.984 . S
H407 N394 0.985 . S
C408 C409 1.363 . S
C408 C414 1.379 . S
C408 N416 1.356 . S
C409 C408 1.363 . S
C409 C415 1.363 . S
C410 C411 1.363 . S
C410 C415 1.379 . S
C410 N417 1.356 . S
C411 C410 1.363 . S
C411 C414 1.363 . S
N412 C414 1.356 . S
N412 H424 0.984 . S
N412 H425 0.985 . S
N413 C415 1.380 . S
N413 H418 0.983 1_556 S
N413 H419 0.963 1_556 S
C414 C408 1.379 . S
C414 C411 1.363 . S
C414 N412 1.356 . S
C415 C409 1.363 . S
C415 C410 1.379 . S
C415 N413 1.380 . S
N416 C408 1.356 . S
N416 H422 0.984 . S
N416 H423 0.984 . S
N417 C410 1.356 . S
N417 H420 0.984 . S
N417 H421 0.985 . S
H418 N413 0.983 1_554 S
H419 N413 0.963 1_554 S
H420 N417 0.984 . S
H421 N417 0.985 . S
H422 N416 0.984 . S
H423 N416 0.984 . S
H424 N412 0.984 . S
H425 N412 0.985 . S
C426 C427 1.363 . S
C426 C432 1.379 . S
C426 N434 1.356 . S
C427 C426 1.363 . S
C427 C433 1.363 . S
C428 C429 1.363 . S
C428 C433 1.379 . S
C428 N435 1.356 . S
C429 C428 1.363 . S
C429 C432 1.363 . S
N430 C432 1.356 1_455 S
N430 H442 0.984 . S
N430 H443 0.985 . S
N431 C433 1.356 . S
N431 H436 0.984 . S
N431 H437 0.985 . S
C432 C426 1.379 . S
C432 C429 1.363 . S
C432 N430 1.356 1_655 S
C433 C427 1.363 . S
C433 C428 1.379 . S
C433 N431 1.356 . S
N434 C426 1.356 . S
N434 H440 0.984 . S
N434 H441 0.984 . S
N435 C428 1.356 . S
N435 H438 0.984 . S
N435 H439 0.985 . S
H436 N431 0.984 . S
H437 N431 0.985 . S
H438 N435 0.984 . S
H439 N435 0.985 . S
H440 N434 0.984 . S
H441 N434 0.984 . S
H442 N430 0.984 . S
H443 N430 0.985 . S
C444 C445 1.363 . S
C444 C450 1.379 . S
C444 N452 1.356 . S
C445 C444 1.363 . S
C445 C451 1.363 . S
C446 C447 1.363 . S
C446 C451 1.379 . S
C446 N453 1.356 . S
C447 C446 1.363 . S
C447 C450 1.363 . S
N448 C450 1.356 . S
N448 H460 0.984 . S
N448 H461 0.985 . S
N449 C451 1.356 . S
N449 H454 0.984 . S
N449 H455 0.985 . S
C450 C444 1.379 . S
C450 C447 1.363 . S
C450 N448 1.356 . S
C451 C445 1.363 . S
C451 C446 1.379 . S
C451 N449 1.356 . S
N452 C444 1.356 . S
N452 H458 0.984 . S
N452 H459 0.984 . S
N453 C446 1.356 . S
N453 H456 0.984 . S
N453 H457 0.985 . S
H454 N449 0.984 . S
H455 N449 0.985 . S
H456 N453 0.984 . S
H457 N453 0.985 . S
H458 N452 0.984 . S
H459 N452 0.984 . S
H460 N448 0.984 . S
H461 N448 0.985 . S
C462 C463 1.363 . S
C462 C468 1.379 . S
C462 N470 1.356 . S
C463 C462 1.363 . S
C463 C469 1.363 . S
C464 C465 1.363 . S
C464 C469 1.379 . S
C464 N471 1.356 . S
C465 C464 1.363 . S
C465 C468 1.363 . S
N466 C468 1.356 . S
N466 H478 0.984 . S
N466 H479 0.985 . S
N467 C469 1.356 . S
N467 H472 0.984 . S
N467 H473 0.985 . S
C468 C462 1.379 . S
C468 C465 1.363 . S
C468 N466 1.356 . S
C469 C463 1.363 . S
C469 C464 1.379 . S
C469 N467 1.356 . S
N470 C462 1.356 . S
N470 H476 0.984 . S
N470 H477 0.984 . S
N471 C464 1.356 . S
N471 H474 0.984 . S
N471 H475 0.985 . S
H472 N467 0.984 . S
H473 N467 0.985 . S
H474 N471 0.984 . S
H475 N471 0.985 . S
H476 N470 0.984 . S
H477 N470 0.984 . S
H478 N466 0.984 . S
H479 N466 0.985 . S
C480 C481 1.363 . S
C480 C486 1.379 . S
C480 N488 1.356 . S
C481 C480 1.363 . S
C481 C487 1.363 . S
C482 C483 1.363 . S
C482 C487 1.379 . S
C482 N489 1.356 . S
C483 C482 1.363 . S
C483 C486 1.363 . S
N484 C486 1.356 . S
N484 H496 0.984 . S
N484 H497 0.985 . S
N485 C487 1.356 . S
N485 H490 0.984 . S
N485 H491 0.985 . S
C486 C480 1.379 . S
C486 C483 1.363 . S
C486 N484 1.356 . S
C487 C481 1.363 . S
C487 C482 1.379 . S
C487 N485 1.356 . S
N488 C480 1.356 . S
N488 H494 0.984 . S
N488 H495 0.984 . S
N489 C482 1.356 . S
N489 H492 0.984 . S
N489 H493 0.985 . S
H490 N485 0.984 . S
H491 N485 0.985 . S
H492 N489 0.984 . S
H493 N489 0.985 . S
H494 N488 0.984 . S
H495 N488 0.984 . S
H496 N484 0.984 . S
H497 N484 0.985 . S
C285 C247 1.497 . S
C283 C1 1.569 . S
C303 C243 1.503 . S
C301 C91 1.474 . S
C321 C268 1.497 . S
C319 C121 1.569 . S
C337 C211 1.474 . S
C339 C264 1.503 . S
C355 C20 1.347 . S
C357 C265 1.152 . S
C375 C280 1.174 . S
C373 C80 1.358 . S
C391 C31 1.698 . S
C393 C281 1.519 . S
C411 C277 1.536 . S
C409 C61 1.616 . S
C429 C244 1.152 1_655 S
C427 C140 1.347 . S
C445 C200 1.358 . S
C447 C259 1.174 . S
C465 C260 1.519 . S
C463 C151 1.698 . S
C483 C256 1.536 . S
C481 C181 1.616 . S
