# Generated by pormake.
# Topology rtl, (3,6)-cn, num edge types: 1
# Building blocks:
#     Node 0, Type 0, BuildingBlock: BELTOD_clean_linker_0, # of connection points: 3
#     Node 1, Type 0, BuildingBlock: BELTOD_clean_linker_0, # of connection points: 3
#     Node 2, Type 0, BuildingBlock: BELTOD_clean_linker_0, # of connection points: 3
#     Node 3, Type 0, BuildingBlock: BELTOD_clean_linker_0, # of connection points: 3
#     Node 4, Type 1, BuildingBlock: KUMBUR_clean_sbu_1, # of connection points: 6
#     Node 5, Type 1, BuildingBlock: KUMBUR_clean_sbu_1, # of connection points: 6
#     Edge 6, Type (0, 1), BuildingBlock: CIFDUS_clean_linker_0, # of connection points: 2
#     Edge 7, Type (0, 1), BuildingBlock: CIFDUS_clean_linker_0, # of connection points: 2
#     Edge 8, Type (0, 1), BuildingBlock: CIFDUS_clean_linker_0, # of connection points: 2
#     Edge 9, Type (0, 1), BuildingBlock: CIFDUS_clean_linker_0, # of connection points: 2
#     Edge 10, Type (0, 1), BuildingBlock: CIFDUS_clean_linker_0, # of connection points: 2
#     Edge 11, Type (0, 1), BuildingBlock: CIFDUS_clean_linker_0, # of connection points: 2
#     Edge 12, Type (0, 1), BuildingBlock: CIFDUS_clean_linker_0, # of connection points: 2
#     Edge 13, Type (0, 1), BuildingBlock: CIFDUS_clean_linker_0, # of connection points: 2
#     Edge 14, Type (0, 1), BuildingBlock: CIFDUS_clean_linker_0, # of connection points: 2
#     Edge 15, Type (0, 1), BuildingBlock: CIFDUS_clean_linker_0, # of connection points: 2
#     Edge 16, Type (0, 1), BuildingBlock: CIFDUS_clean_linker_0, # of connection points: 2
#     Edge 17, Type (0, 1), BuildingBlock: CIFDUS_clean_linker_0, # of connection points: 2
# Relax obj value: 0.019
# Max RMSD: 0.106
# Mean RMSD: 0.067
data_MOF--net-rtl--node1-KUMBUR_clean_sbu_1--node2-BELTOD_clean_linker_0--edge1-CIFDUS_clean_linker_0
_symmetry_space_group_name_H-M    P1
_symmetry_Int_Tables_number       1
_symmetry_cell_setting            triclinic
loop_
_symmetry_equiv_pos_as_xyz
'x, y, z'
_cell_length_a     33.362487
_cell_length_b     33.960763
_cell_length_c     29.610098
_cell_angle_alpha  77.424051
_cell_angle_beta   99.854807
_cell_angle_gamma 90.529227
loop_
_atom_site_label
_atom_site_type_symbol
_atom_site_fract_x
_atom_site_fract_y
_atom_site_fract_z
_atom_type_partial_charge
P0 P 0.26099 0.88459 0.02065 0.0
H1 H 0.29562 0.85503 0.11911 0.0
H2 H 0.26986 0.85274 0.19203 0.0
H3 H 0.15512 0.90564 0.11188 0.0
H4 H 0.18146 0.9085 0.03903 0.0
H5 H 0.32015 0.86976 0.96477 0.0
H6 H 0.35437 0.80848 0.95777 0.0
H7 H 0.29229 0.73776 0.06314 0.0
H8 H 0.25756 0.79914 0.06939 0.0
H9 H 0.25336 0.94919 0.93637 0.0
H10 H 0.18752 0.84382 0.98784 0.0
O11 O 0.29455 0.92138 0.01948 0.0
H12 H 0.20768 0.96063 0.86117 0.0
H13 H 0.14042 0.85574 0.91253 0.0
C14 C 0.24004 0.88066 0.07364 0.0
C15 C 0.26475 0.86571 0.11724 0.0
C16 C 0.25001 0.86453 0.15889 0.0
C17 C 0.2103 0.87874 0.15781 0.0
C18 C 0.18591 0.89466 0.11397 0.0
C19 C 0.20074 0.89577 0.07223 0.0
C20 C 0.28729 0.83915 0.01857 0.0
C21 C 0.31416 0.84109 0.98664 0.0
C22 C 0.33339 0.80606 0.98234 0.0
C23 C 0.32611 0.7684 0.01003 0.0
C24 C 0.29884 0.76648 0.04178 0.0
C25 C 0.27915 0.80155 0.04556 0.0
C26 C 0.22342 0.89603 0.9679 0.0
C27 C 0.22846 0.92897 0.93183 0.0
C28 C 0.20213 0.93553 0.88873 0.0
C29 C 0.17012 0.90924 0.88075 0.0
C30 C 0.1649 0.87639 0.91732 0.0
C31 C 0.19147 0.86978 0.96051 0.0
P32 P 0.72063 0.66916 0.64553 0.0
H33 H 0.74422 0.61812 0.5864 0.0
H34 H 0.70806 0.59614 0.518 0.0
H35 H 0.60387 0.67109 0.51756 0.0
H36 H 0.64022 0.69221 0.58724 0.0
H37 H 0.7916 0.70301 0.69379 0.0
H38 H 0.8312 0.76248 0.67036 0.0
H39 H 0.74219 0.80069 0.54393 0.0
H40 H 0.7029 0.74094 0.56741 0.0
H41 H 0.64839 0.62207 0.66064 0.0
H42 H 0.72262 0.70488 0.72772 0.0
O43 O 0.75777 0.63451 0.66951 0.0
H44 H 0.61199 0.60634 0.72648 0.0
H45 H 0.68643 0.68864 0.79449 0.0
C46 C 0.69457 0.6561 0.59246 0.0
C47 C 0.71363 0.62991 0.57163 0.0
C48 C 0.69299 0.61764 0.53214 0.0
C49 C 0.65293 0.63169 0.51235 0.0
C50 C 0.63442 0.65918 0.53239 0.0
C51 C 0.65518 0.67141 0.57203 0.0
C52 C 0.74461 0.71713 0.6321 0.0
C53 C 0.78023 0.72453 0.6614 0.0
C54 C 0.8028 0.75867 0.64801 0.0
C55 C 0.79014 0.78612 0.60495 0.0
C56 C 0.75317 0.77973 0.57689 0.0
C57 C 0.73052 0.74562 0.59046 0.0
C58 C 0.68755 0.66565 0.68838 0.0
C59 C 0.65592 0.63811 0.68865 0.0
C60 C 0.63513 0.62892 0.72658 0.0
C61 C 0.64626 0.64628 0.7657 0.0
C62 C 0.67722 0.67473 0.76486 0.0
C63 C 0.6977 0.68429 0.72651 0.0
P64 P 0.83315 0.21564 0.04539 0.0
H65 H 0.77405 0.21798 0.95973 0.0
H66 H 0.77442 0.18461 0.89483 0.0
H67 H 0.87699 0.10918 0.9755 0.0
H68 H 0.87689 0.14334 0.04009 0.0
H69 H 0.80918 0.30066 0.00964 0.0
H70 H 0.74918 0.34011 0.01145 0.0
H71 H 0.69574 0.23225 0.08082 0.0
H72 H 0.75637 0.19277 0.07917 0.0
H73 H 0.90187 0.23141 0.11312 0.0
H74 H 0.81018 0.14147 0.10708 0.0
O75 O 0.86764 0.2482 0.02651 0.0
H76 H 0.9298 0.19782 0.19316 0.0
H77 H 0.83664 0.10862 0.18908 0.0
C78 C 0.82502 0.1827 0.00503 0.0
C79 C 0.79567 0.19327 0.96419 0.0
C80 C 0.79592 0.1741 0.92702 0.0
C81 C 0.82592 0.14439 0.92991 0.0
C82 C 0.85374 0.13221 0.97208 0.0
C83 C 0.85344 0.15142 0.00922 0.0
C84 C 0.78762 0.24385 0.04507 0.0
C85 C 0.78463 0.28536 0.02523 0.0
C86 C 0.75007 0.3079 0.02591 0.0
C87 C 0.71771 0.28935 0.04639 0.0
C88 C 0.72041 0.2475 0.06536 0.0
C89 C 0.75504 0.22489 0.06445 0.0
C90 C 0.85384 0.18907 0.10419 0.0
C91 C 0.88757 0.20444 0.12912 0.0
C92 C 0.9033 0.18533 0.17526 0.0
C93 C 0.88508 0.15083 0.19803 0.0
C94 C 0.85154 0.13501 0.17263 0.0
C95 C 0.83611 0.15399 0.12594 0.0
P96 P 0.36489 0.2764 0.47943 0.0
H97 H 0.42186 0.2764 0.567 0.0
H98 H 0.42633 0.31888 0.62442 0.0
H99 H 0.32307 0.39088 0.5394 0.0
H100 H 0.31949 0.34872 0.48171 0.0
H101 H 0.3 0.25088 0.40964 0.0
H102 H 0.23777 0.21351 0.41887 0.0
H103 H 0.26791 0.2019 0.56934 0.0
H104 H 0.32756 0.24159 0.55925 0.0
H105 H 0.43727 0.29442 0.43824 0.0
H106 H 0.30904 0.3238 0.39647 0.0
O107 O 0.4016 0.24058 0.49754 0.0
H108 H 0.45004 0.33396 0.36368 0.0
H109 H 0.32106 0.36157 0.3197 0.0
C110 C 0.37056 0.3097 0.51983 0.0
C111 C 0.40051 0.30164 0.56042 0.0
C112 C 0.40281 0.32577 0.59351 0.0
C113 C 0.3751 0.35839 0.58666 0.0
C114 C 0.34538 0.36649 0.54554 0.0
C115 C 0.34316 0.34235 0.51251 0.0
C116 C 0.31752 0.25078 0.48353 0.0
C117 C 0.29239 0.24145 0.44437 0.0
C118 C 0.25709 0.21931 0.44989 0.0
C119 C 0.24701 0.20503 0.49488 0.0
C120 C 0.27334 0.21349 0.53393 0.0
C121 C 0.30787 0.23618 0.52824 0.0
C122 C 0.37202 0.3047 0.42231 0.0
C123 C 0.41161 0.3086 0.41241 0.0
C124 C 0.41884 0.33114 0.36934 0.0
C125 C 0.38655 0.35035 0.33468 0.0
C126 C 0.34679 0.34721 0.34524 0.0
C127 C 0.3397 0.32507 0.38895 0.0
Tb128 Tb 0.03581 0.9577 0.52213 0.0
C129 C 0.93938 0.12393 0.48586 0.0
N130 N 0.97551 0.11351 0.51508 0.0
C131 C 1.00077 0.17909 0.48729 0.0
C132 C 0.93258 0.16247 0.45581 0.0
C133 C 0.00604 0.14046 0.51642 0.0
C134 C 0.96391 0.19013 0.45673 0.0
C135 C 0.87133 0.1051 0.45616 0.0
C136 C 0.90943 0.09537 0.4856 0.0
C137 C 0.86447 0.14334 0.42577 0.0
C138 C 0.89503 0.17194 0.42558 0.0
Tb139 Tb 0.98176 0.04919 0.55935 0.0
N140 N 0.91746 0.05843 0.51512 0.0
C141 C 0.84098 0.07647 0.45895 0.0
C142 C 0.8867 0.03194 0.52071 0.0
C143 C 0.84848 0.04005 0.49203 0.0
H144 H 0.03414 0.13243 0.54071 0.0
H145 H 0.82454 0.01851 0.49617 0.0
H146 H 0.98162 0.87849 0.55943 0.0
H147 H 0.19565 0.98924 0.56803 0.0
H148 H 0.89044 0.00525 0.54826 0.0
H149 H 0.81125 0.08277 0.43704 0.0
H150 H 0.12737 1.00071 0.5211 0.0
H151 H 0.02508 0.20036 0.48856 0.0
H152 H 0.83549 0.15123 0.40264 0.0
H153 H 0.88928 0.20133 0.40202 0.0
H154 H 0.99234 0.81462 0.61892 0.0
H155 H 0.95993 0.22005 0.43411 0.0
H156 H 0.21118 0.92852 0.63223 0.0
N157 N 0.04204 0.89779 0.57616 0.0
C158 C 0.07993 0.88781 0.6015 0.0
C159 C 0.01715 0.83511 0.61472 0.0
C160 C 0.08763 0.85136 0.63554 0.0
C161 C 0.01093 0.87171 0.5816 0.0
C162 C 0.05561 0.82495 0.64201 0.0
N163 N 0.10171 0.95047 0.56187 0.0
C164 C 0.13233 0.97579 0.55082 0.0
C165 C 0.14996 0.90652 0.62136 0.0
C166 C 0.11056 0.91529 0.59466 0.0
C167 C 0.18052 0.93413 0.61254 0.0
C168 C 0.17178 0.96859 0.57661 0.0
H169 H 0.06029 0.79665 0.6678 0.0
H170 H 0.13316 0.81505 0.68901 0.0
H171 H 0.1878 0.86323 0.67645 0.0
O172 O 0.06924 0.95178 0.46785 0.0
O173 O 0.03754 0.95606 0.59774 0.0
O174 O 0.03996 0.02306 0.5981 0.0
O175 O 0.02465 0.90849 0.49116 0.0
O176 O 0.05703 0.01943 0.49715 0.0
O177 O 0.04621 0.05574 0.55253 0.0
O178 O 0.95404 0.03839 0.61934 0.0
O179 O 0.97979 0.05321 0.48442 0.0
O180 O 0.98225 0.98801 0.47358 0.0
O181 O 0.98383 0.09411 0.59873 0.0
O182 O 0.96135 0.98732 0.58109 0.0
O183 O 0.97054 0.95446 0.52301 0.0
C184 C 0.04579 0.98533 0.62025 0.0
C185 C 0.05772 0.89259 0.43108 0.0
C186 C 0.08831 0.87819 0.36677 0.0
C187 C 0.06873 0.84101 0.37165 0.0
C188 C 0.03885 0.85504 0.43517 0.0
C189 C 0.04427 0.82961 0.40558 0.0
C190 C 0.08241 0.90427 0.39646 0.0
C191 C 0.0641 0.05055 0.51747 0.0
C192 C 0.05094 0.91841 0.46354 0.0
C193 C 0.1267 0.8428 0.66251 0.0
C194 C 0.15776 0.87033 0.65549 0.0
C195 C 0.97396 0.02685 0.45765 0.0
C196 C 0.92719 0.09604 0.63637 0.0
C197 C 0.88888 0.11428 0.69238 0.0
C198 C 0.8607 0.1362 0.65458 0.0
C199 C 0.89889 0.11825 0.59926 0.0
C200 C 0.92205 0.09404 0.68283 0.0
C201 C 0.86575 0.13808 0.60836 0.0
C202 C 0.95308 0.9581 0.55845 0.0
C203 C 0.96171 0.07407 0.62748 0.0
H204 H 0.07204 0.82077 0.34876 0.0
H205 H 0.01976 0.84511 0.46139 0.0
H206 H 0.0294 0.80091 0.40896 0.0
H207 H 0.09724 0.93303 0.39299 0.0
H208 H 0.83525 0.15268 0.66071 0.0
H209 H 0.90238 0.12045 0.56336 0.0
H210 H 0.94377 0.07655 0.71148 0.0
H211 H 0.8441 0.15526 0.5795 0.0
Tb212 Tb 0.45005 0.48513 0.9984 0.0
C213 C 0.63276 0.53851 0.0637 0.0
N214 N 0.61096 0.50725 0.08285 0.0
C215 C 0.66981 0.46308 0.09901 0.0
C216 C 0.67384 0.53308 0.06023 0.0
C217 C 0.62929 0.47023 0.10231 0.0
C218 C 0.69209 0.49454 0.0774 0.0
C219 C 0.63587 0.61018 0.03076 0.0
C220 C 0.61414 0.57646 0.04919 0.0
C221 C 0.67656 0.60485 0.02609 0.0
C222 C 0.69548 0.56636 0.0407 0.0
Tb223 Tb 0.5448 0.52231 0.08458 0.0
N224 N 0.57443 0.58018 0.05293 0.0
C225 C 0.61603 0.64815 0.01787 0.0
C226 C 0.55572 0.61745 0.04351 0.0
C227 C 0.57594 0.65186 0.02485 0.0
H228 H 0.61283 0.44633 0.12097 0.0
H229 H 0.56068 0.6812 0.01602 0.0
H230 H 0.37365 0.53856 0.01403 0.0
H231 H 0.48709 0.32426 0.04527 0.0
H232 H 0.52491 0.62036 0.04937 0.0
H233 H 0.63161 0.67484 0.00337 0.0
H234 H 0.49434 0.39416 0.0047 0.0
H235 H 0.68397 0.43346 0.11368 0.0
H236 H 0.69374 0.63031 0.01161 0.0
H237 H 0.72702 0.56278 0.03743 0.0
H238 H 0.3133 0.52589 0.05289 0.0
H239 H 0.72358 0.48903 0.0753 0.0
H240 H 0.43133 0.30652 0.09064 0.0
N241 N 0.39401 0.47711 0.03314 0.0
C242 C 0.38628 0.43857 0.05348 0.0
C243 C 0.33372 0.50112 0.05352 0.0
C244 C 0.3525 0.42997 0.07637 0.0
C245 C 0.36793 0.50825 0.03174 0.0
C246 C 0.3261 0.46186 0.07621 0.0
N247 N 0.44635 0.41776 0.03138 0.0
C248 C 0.4714 0.38785 0.02656 0.0
C249 C 0.40751 0.36793 0.07572 0.0
C250 C 0.41369 0.40805 0.0533 0.0
C251 C 0.43497 0.33772 0.07382 0.0
C252 C 0.46666 0.34766 0.04854 0.0
H253 H 0.2998 0.4565 0.09345 0.0
H254 H 0.32099 0.3829 0.11735 0.0
H255 H 0.36902 0.32857 0.11666 0.0
O256 O 0.42902 0.45364 0.94496 0.0
O257 O 0.45053 0.48439 0.07337 0.0
O258 O 0.51564 0.46576 0.10922 0.0
O259 O 0.40402 0.51323 0.94278 0.0
O260 O 0.51133 0.46309 0.99667 0.0
O261 O 0.54417 0.46112 0.07208 0.0
O262 O 0.52715 0.55001 0.13517 0.0
O263 O 0.54018 0.55074 0.00961 0.0
O264 O 0.49515 0.5181 0.96077 0.0
O265 O 0.5853 0.51906 0.14835 0.0
O266 O 0.48472 0.55145 0.07312 0.0
O267 O 0.44854 0.54964 0.99916 0.0
C268 C 0.47629 0.46304 0.10842 0.0
C269 C 0.37636 0.48184 0.87782 0.0
C270 C 0.36127 0.45942 0.80364 0.0
C271 C 0.32565 0.484 0.79125 0.0
C272 C 0.34074 0.50621 0.8644 0.0
C273 C 0.31547 0.50703 0.82151 0.0
C274 C 0.38632 0.45801 0.84753 0.0
C275 C 0.54277 0.45253 0.03072 0.0
C276 C 0.40368 0.48297 0.92235 0.0
C277 C 0.3466 0.39012 0.09924 0.0
C278 C 0.37405 0.3592 0.09897 0.0
C279 C 0.52384 0.54405 0.96825 0.0
C280 C 0.55596 0.52354 0.21416 0.0
C281 C 0.56972 0.53111 0.29538 0.0
C282 C 0.54585 0.49741 0.30791 0.0
C283 C 0.53266 0.4898 0.22726 0.0
C284 C 0.57446 0.54399 0.24819 0.0
C285 C 0.52753 0.47689 0.27397 0.0
C286 C 0.45834 0.56713 0.03509 0.0
C287 C 0.56052 0.53898 0.16514 0.0
H288 H 0.30541 0.48518 0.75818 0.0
H289 H 0.33242 0.5247 0.8871 0.0
H290 H 0.28796 0.52579 0.81154 0.0
H291 H 0.41407 0.43952 0.85734 0.0
H292 H 0.5419 0.48653 0.34403 0.0
H293 H 0.51842 0.47369 0.20143 0.0
H294 H 0.59208 0.57037 0.23769 0.0
H295 H 0.50938 0.45085 0.28391 0.0
H296 H 0.21048 0.15075 0.4446 0.0
H297 H 0.19863 0.2053 0.56088 0.0
H298 H 0.14293 0.16159 0.57872 0.0
H299 H 0.09963 0.10605 0.56418 0.0
H300 H 0.10397 0.057 0.44228 0.0
H301 H 0.16071 0.10032 0.4241 0.0
C302 C 0.19535 0.15375 0.47332 0.0
C303 C 0.20989 0.18089 0.50197 0.0
C304 C 0.16207 0.12926 0.4827 0.0
C305 C 0.18953 0.18385 0.53911 0.0
C306 C 0.15724 0.15905 0.54922 0.0
C307 C 0.11203 0.10544 0.53281 0.0
C308 C 0.09711 0.07835 0.50452 0.0
C309 C 0.14362 0.13132 0.52167 0.0
C310 C 0.11477 0.07743 0.46485 0.0
C311 C 0.14722 0.10228 0.45436 0.0
H312 H 0.36578 0.71073 0.08124 0.0
H313 H 0.33479 0.74361 0.93024 0.0
H314 H 0.3719 0.6836 0.92414 0.0
H315 H 0.4145 0.62213 0.96214 0.0
H316 H 0.44675 0.59167 0.11346 0.0
H317 H 0.40782 0.65 0.1189 0.0
C318 C 0.36683 0.7045 0.04704 0.0
C319 C 0.34749 0.73141 0.0063 0.0
C320 C 0.38863 0.67037 0.04381 0.0
C321 C 0.34967 0.72338 0.96213 0.0
C322 C 0.37078 0.68905 0.95864 0.0
C323 C 0.4128 0.62823 0.99623 0.0
C324 C 0.43368 0.60255 0.0372 0.0
C325 C 0.39061 0.66238 0.99927 0.0
C326 C 0.43138 0.61103 0.08119 0.0
C327 C 0.40896 0.64439 0.08447 0.0
H328 H 0.83299 0.836 0.65523 0.0
H329 H 0.80781 0.81086 0.51659 0.0
H330 H 0.85513 0.86232 0.48959 0.0
H331 H 0.90583 0.91274 0.50607 0.0
H332 H 0.93119 0.93766 0.64477 0.0
H333 H 0.88201 0.88791 0.67103 0.0
C334 C 0.83789 0.84177 0.61912 0.0
C335 C 0.81683 0.81953 0.58805 0.0
C336 C 0.86541 0.87123 0.60386 0.0
C337 C 0.82314 0.82784 0.54116 0.0
C338 C 0.85048 0.85705 0.52574 0.0
C339 C 0.90055 0.90723 0.54203 0.0
C340 C 0.92233 0.92863 0.5735 0.0
C341 C 0.8721 0.87866 0.55689 0.0
C342 C 0.91481 0.92159 0.61983 0.0
C343 C 0.88675 0.89307 0.63492 0.0
H344 H 0.67677 0.3495 0.97833 0.0
H345 H 0.67907 0.28491 0.12146 0.0
H346 H 0.62391 0.32874 0.12863 0.0
H347 H 0.57708 0.38731 0.09537 0.0
H348 H 0.57543 0.4527 0.95291 0.0
H349 H 0.62831 0.40666 0.94418 0.0
C350 C 0.66523 0.34507 0.01111 0.0
C351 C 0.68215 0.31409 0.04937 0.0
C352 C 0.63379 0.37061 0.01513 0.0
C353 C 0.66635 0.30826 0.09134 0.0
C354 C 0.63501 0.33349 0.09559 0.0
C355 C 0.58853 0.39149 0.06254 0.0
C356 C 0.57311 0.42358 0.02504 0.0
C357 C 0.61888 0.36504 0.05793 0.0
C358 C 0.58716 0.4282 0.98223 0.0
C359 C 0.6174 0.40201 0.97733 0.0
H360 H 0.1642 0.93437 0.18278 0.0
H361 H 0.21966 0.81495 0.23277 0.0
H362 H 0.19099 0.80676 0.30439 0.0
H363 H 0.14627 0.83099 0.35024 0.0
H364 H 0.08775 0.94874 0.30039 0.0
H365 H 0.12212 0.96053 0.23185 0.0
C366 C 0.16996 0.90658 0.20938 0.0
C367 C 0.194 0.87527 0.20224 0.0
C368 C 0.15298 0.90184 0.25058 0.0
C369 C 0.20169 0.8397 0.23743 0.0
C370 C 0.18513 0.83488 0.27837 0.0
C371 C 0.1413 0.85939 0.32452 0.0
C372 C 0.11419 0.88875 0.32999 0.0
C373 C 0.16028 0.86543 0.28495 0.0
C374 C 0.10859 0.92572 0.29698 0.0
C375 C 0.12792 0.93226 0.25759 0.0
H376 H 0.5664 0.63287 0.77217 0.0
H377 H 0.68651 0.62525 0.85598 0.0
H378 H 0.65907 0.59397 0.92614 0.0
H379 H 0.60191 0.56407 0.9623 0.0
H380 H 0.48152 0.57234 0.87991 0.0
H381 H 0.50819 0.6069 0.81007 0.0
C382 C 0.58647 0.62463 0.80589 0.0
C383 C 0.62843 0.63148 0.80882 0.0
C384 C 0.57051 0.60635 0.84614 0.0
C385 C 0.65403 0.62088 0.85282 0.0
C386 C 0.63842 0.60267 0.89293 0.0
C387 C 0.58131 0.57477 0.92962 0.0
C388 C 0.53974 0.5665 0.92663 0.0
C389 C 0.59682 0.59483 0.88988 0.0
C390 C 0.51371 0.57843 0.88312 0.0
C391 C 0.52891 0.59829 0.84325 0.0
H392 H 0.89302 0.07048 0.24242 0.0
H393 H 0.91167 0.19054 0.26757 0.0
H394 H 0.94247 0.16241 0.34845 0.0
H395 H 0.96617 0.10468 0.41087 0.0
H396 H 0.94244 0.98397 0.39117 0.0
H397 H 0.91218 0.01146 0.3088 0.0
C398 C 0.90328 0.09047 0.26576 0.0
C399 C 0.90074 0.13266 0.24839 0.0
C400 C 0.9203 0.07405 0.313 0.0
C401 C 0.91432 0.15802 0.27932 0.0
C402 C 0.93168 0.14199 0.3258 0.0
C403 C 0.9534 0.08421 0.38924 0.0
C404 C 0.95585 0.04235 0.40764 0.0
C405 C 0.93514 0.10017 0.34281 0.0
C406 C 0.94082 0.01637 0.37803 0.0
C407 C 0.92337 0.0321 0.33099 0.0
H408 H 0.38956 0.33334 0.68266 0.0
H409 H 0.36388 0.44016 0.57129 0.0
H410 H 0.35997 0.4809 0.62882 0.0
H411 H 0.35985 0.48582 0.71011 0.0
H412 H 0.38594 0.37982 0.8221 0.0
H413 H 0.39506 0.33941 0.76514 0.0
C414 C 0.38378 0.36563 0.67096 0.0
C415 C 0.37641 0.38346 0.62247 0.0
C416 C 0.38171 0.38907 0.70438 0.0
C417 C 0.3687 0.42538 0.60817 0.0
C418 C 0.36671 0.44881 0.6411 0.0
C419 C 0.36764 0.45387 0.72207 0.0
C420 C 0.37164 0.43573 0.77018 0.0
C421 C 0.37238 0.43087 0.68916 0.0
C422 C 0.38269 0.39451 0.78527 0.0
C423 C 0.38763 0.37136 0.75266 0.0
H424 H 0.68155 0.61828 0.43603 0.0
H425 H 0.57329 0.60997 0.4988 0.0
H426 H 0.53754 0.5796 0.43633 0.0
H427 H 0.53803 0.55229 0.36596 0.0
H428 H 0.64731 0.55823 0.30534 0.0
H429 H 0.68166 0.59235 0.36503 0.0
C430 C 0.65018 0.60969 0.43619 0.0
C431 C 0.63028 0.61622 0.47227 0.0
C432 C 0.63002 0.59157 0.40066 0.0
C433 C 0.5893 0.6057 0.47127 0.0
C434 C 0.5689 0.58798 0.43576 0.0
C435 C 0.56943 0.56085 0.36601 0.0
C436 C 0.5901 0.55254 0.33136 0.0
C437 C 0.58914 0.58023 0.40067 0.0
C438 C 0.63056 0.56454 0.33136 0.0
C439 C 0.65031 0.5839 0.36561 0.0
H440 H 0.89673 0.13575 0.89946 0.0
H441 H 0.76708 0.12285 0.86368 0.0
H442 H 0.77556 0.1095 0.78789 0.0
H443 H 0.81933 0.10652 0.72978 0.0
H444 H 0.94866 0.12183 0.76523 0.0
H445 H 0.9409 0.12786 0.84388 0.0
C446 C 0.87039 0.129 0.87564 0.0
C447 C 0.83131 0.13034 0.88719 0.0
C448 C 0.87544 0.1219 0.83203 0.0
C449 C 0.79745 0.12234 0.85543 0.0
C450 C 0.80229 0.1147 0.81214 0.0
C451 C 0.84581 0.11115 0.75475 0.0
C452 C 0.88446 0.11407 0.74147 0.0
C453 C 0.84104 0.11537 0.79965 0.0
C454 C 0.9186 0.11919 0.77457 0.0
C455 C 0.91416 0.12293 0.81948 0.0
H456 H 0.44394 0.33401 0.28502 0.0
H457 H 0.34801 0.42036 0.2795 0.0
H458 H 0.36484 0.46087 0.20672 0.0
H459 H 0.41046 0.47471 0.14772 0.0
H460 H 0.50951 0.39086 0.15784 0.0
H461 H 0.48853 0.34713 0.2264 0.0
C462 C 0.42689 0.36192 0.26844 0.0
C463 C 0.39494 0.37406 0.28848 0.0
C464 C 0.43763 0.38586 0.2275 0.0
C465 C 0.3725 0.40978 0.26507 0.0
C466 C 0.38236 0.43328 0.22354 0.0
C467 C 0.42709 0.44663 0.16479 0.0
C468 C 0.46147 0.43593 0.14794 0.0
C469 C 0.41532 0.42199 0.20486 0.0
C470 C 0.4831 0.39976 0.17047 0.0
C471 C 0.47107 0.37475 0.20957 0.0
H472 H 0.14001 0.98075 0.82482 0.0
H473 H 0.13977 0.85259 0.83122 0.0
H474 H 0.09901 0.86436 0.7523 0.0
H475 H 0.06531 0.91163 0.6804 0.0
H476 H 0.07114 0.03986 0.67321 0.0
H477 H 0.10744 0.02737 0.75355 0.0
C478 C 0.13136 0.95533 0.80893 0.0
C479 C 0.1432 0.91589 0.83396 0.0
C480 C 0.10889 0.96233 0.76325 0.0
C481 C 0.13076 0.88329 0.81307 0.0
C482 C 0.10771 0.89 0.76775 0.0
C483 C 0.07512 0.9368 0.69604 0.0
C484 C 0.06628 0.97657 0.67007 0.0
C485 C 0.09697 0.92948 0.74227 0.0
C486 C 0.07785 0.00885 0.69187 0.0
C487 C 0.09869 0.00181 0.73797 0.0
loop_
_geom_bond_atom_site_label_1
_geom_bond_atom_site_label_2
_geom_bond_distance
_geom_bond_site_symmetry_2
_ccdc_geom_bond_type
P0 O11 1.490 . S
P0 C14 1.812 . S
P0 C20 1.803 . S
P0 C26 1.819 1_554 S
H1 C15 0.941 . S
H2 C16 0.939 . S
H3 C18 0.940 . S
H4 C19 0.940 . S
H5 C21 0.936 1_556 S
H6 C22 0.942 . S
H7 C24 0.940 . S
H8 C25 0.939 . S
H9 C27 0.941 . S
H10 C31 0.939 . S
O11 P0 1.490 . S
H12 C28 0.939 . S
H13 C30 0.940 . S
C14 P0 1.812 . S
C14 C15 1.389 . S
C14 C19 1.391 . S
C15 H1 0.941 . S
C15 C14 1.389 . S
C15 C16 1.397 . S
C16 H2 0.939 . S
C16 C15 1.397 . S
C16 C17 1.378 . S
C17 C16 1.378 . S
C17 C18 1.378 . S
C18 H3 0.940 . S
C18 C17 1.378 . S
C18 C19 1.396 . S
C19 H4 0.940 . S
C19 C14 1.391 . S
C19 C18 1.396 . S
C20 P0 1.803 . S
C20 C21 1.378 . S
C20 C25 1.400 . S
C21 H5 0.936 1_554 S
C21 C20 1.378 . S
C21 C22 1.361 . S
C22 H6 0.942 . S
C22 C21 1.361 . S
C22 C23 1.369 . S
C23 C22 1.369 . S
C23 C24 1.404 . S
C24 H7 0.940 . S
C24 C23 1.404 . S
C24 C25 1.389 . S
C25 H8 0.939 . S
C25 C20 1.400 . S
C25 C24 1.389 . S
C26 P0 1.819 1_556 S
C26 C27 1.391 . S
C26 C31 1.391 . S
C27 H9 0.941 . S
C27 C26 1.391 . S
C27 C28 1.396 . S
C28 H12 0.939 . S
C28 C27 1.396 . S
C28 C29 1.397 . S
C29 C28 1.397 . S
C29 C30 1.385 . S
C30 H13 0.940 . S
C30 C29 1.385 . S
C30 C31 1.388 . S
C31 H10 0.939 . S
C31 C26 1.391 . S
C31 C30 1.388 . S
P32 O43 1.490 . S
P32 C46 1.812 . S
P32 C52 1.803 . S
P32 C58 1.819 . S
H33 C47 0.941 . S
H34 C48 0.939 . S
H35 C50 0.940 . S
H36 C51 0.940 . S
H37 C53 0.939 . S
H38 C54 0.942 . S
H39 C56 0.940 . S
H40 C57 0.939 . S
H41 C59 0.941 . S
H42 C63 0.939 . S
O43 P32 1.490 . S
H44 C60 0.939 . S
H45 C62 0.940 . S
C46 P32 1.812 . S
C46 C47 1.389 . S
C46 C51 1.391 . S
C47 H33 0.941 . S
C47 C46 1.389 . S
C47 C48 1.397 . S
C48 H34 0.939 . S
C48 C47 1.397 . S
C48 C49 1.378 . S
C49 C48 1.378 . S
C49 C50 1.378 . S
C50 H35 0.940 . S
C50 C49 1.378 . S
C50 C51 1.396 . S
C51 H36 0.940 . S
C51 C46 1.391 . S
C51 C50 1.396 . S
C52 P32 1.803 . S
C52 C53 1.378 . S
C52 C57 1.400 . S
C53 H37 0.939 . S
C53 C52 1.378 . S
C53 C54 1.361 . S
C54 H38 0.942 . S
C54 C53 1.361 . S
C54 C55 1.369 . S
C55 C54 1.369 . S
C55 C56 1.404 . S
C56 H39 0.940 . S
C56 C55 1.404 . S
C56 C57 1.389 . S
C57 H40 0.939 . S
C57 C52 1.400 . S
C57 C56 1.389 . S
C58 P32 1.819 . S
C58 C59 1.391 . S
C58 C63 1.391 . S
C59 H41 0.941 . S
C59 C58 1.391 . S
C59 C60 1.396 . S
C60 H44 0.939 . S
C60 C59 1.396 . S
C60 C61 1.397 . S
C61 C60 1.397 . S
C61 C62 1.385 . S
C62 H45 0.940 . S
C62 C61 1.385 . S
C62 C63 1.388 . S
C63 H42 0.939 . S
C63 C58 1.391 . S
C63 C62 1.388 . S
P64 O75 1.490 . S
P64 C78 1.812 . S
P64 C84 1.803 . S
P64 C90 1.819 . S
H65 C79 0.941 . S
H66 C80 0.939 . S
H67 C82 0.940 . S
H68 C83 0.940 . S
H69 C85 0.939 . S
H70 C86 0.942 . S
H71 C88 0.940 . S
H72 C89 0.939 . S
H73 C91 0.941 . S
H74 C95 0.939 . S
O75 P64 1.490 . S
H76 C92 0.939 . S
H77 C94 0.940 . S
C78 P64 1.812 . S
C78 C79 1.389 1_554 S
C78 C83 1.391 . S
C79 H65 0.941 . S
C79 C78 1.389 1_556 S
C79 C80 1.397 . S
C80 H66 0.939 . S
C80 C79 1.397 . S
C80 C81 1.378 . S
C81 C80 1.378 . S
C81 C82 1.378 . S
C82 H67 0.940 . S
C82 C81 1.378 . S
C82 C83 1.396 1_556 S
C83 H68 0.940 . S
C83 C78 1.391 . S
C83 C82 1.396 1_554 S
C84 P64 1.803 . S
C84 C85 1.378 . S
C84 C89 1.400 . S
C85 H69 0.939 . S
C85 C84 1.378 . S
C85 C86 1.361 . S
C86 H70 0.942 . S
C86 C85 1.361 . S
C86 C87 1.369 . S
C87 C86 1.369 . S
C87 C88 1.404 . S
C88 H71 0.940 . S
C88 C87 1.404 . S
C88 C89 1.389 . S
C89 H72 0.939 . S
C89 C84 1.400 . S
C89 C88 1.389 . S
C90 P64 1.819 . S
C90 C91 1.391 . S
C90 C95 1.391 . S
C91 H73 0.941 . S
C91 C90 1.391 . S
C91 C92 1.396 . S
C92 H76 0.939 . S
C92 C91 1.396 . S
C92 C93 1.397 . S
C93 C92 1.397 . S
C93 C94 1.385 . S
C94 H77 0.940 . S
C94 C93 1.385 . S
C94 C95 1.388 . S
C95 H74 0.939 . S
C95 C90 1.391 . S
C95 C94 1.388 . S
P96 O107 1.490 . S
P96 C110 1.812 . S
P96 C116 1.803 . S
P96 C122 1.819 . S
H97 C111 0.941 . S
H98 C112 0.939 . S
H99 C114 0.940 . S
H100 C115 0.940 . S
H101 C117 0.939 . S
H102 C118 0.942 . S
H103 C120 0.940 . S
H104 C121 0.939 . S
H105 C123 0.941 . S
H106 C127 0.939 . S
O107 P96 1.490 . S
H108 C124 0.939 . S
H109 C126 0.940 . S
C110 P96 1.812 . S
C110 C111 1.389 . S
C110 C115 1.391 . S
C111 H97 0.941 . S
C111 C110 1.389 . S
C111 C112 1.397 . S
C112 H98 0.939 . S
C112 C111 1.397 . S
C112 C113 1.378 . S
C113 C112 1.378 . S
C113 C114 1.378 . S
C114 H99 0.940 . S
C114 C113 1.378 . S
C114 C115 1.396 . S
C115 H100 0.940 . S
C115 C110 1.391 . S
C115 C114 1.396 . S
C116 P96 1.803 . S
C116 C117 1.378 . S
C116 C121 1.400 . S
C117 H101 0.939 . S
C117 C116 1.378 . S
C117 C118 1.361 . S
C118 H102 0.942 . S
C118 C117 1.361 . S
C118 C119 1.369 . S
C119 C118 1.369 . S
C119 C120 1.404 . S
C120 H103 0.940 . S
C120 C119 1.404 . S
C120 C121 1.389 . S
C121 H104 0.939 . S
C121 C116 1.400 . S
C121 C120 1.389 . S
C122 P96 1.819 . S
C122 C123 1.391 . S
C122 C127 1.391 . S
C123 H105 0.941 . S
C123 C122 1.391 . S
C123 C124 1.396 . S
C124 H108 0.939 . S
C124 C123 1.396 . S
C124 C125 1.397 . S
C125 C124 1.397 . S
C125 C126 1.385 . S
C126 H109 0.940 . S
C126 C125 1.385 . S
C126 C127 1.388 . S
C127 H106 0.939 . S
C127 C122 1.391 . S
C127 C126 1.388 . S
Tb128 N157 2.617 . S
Tb128 N163 2.572 . S
Tb128 O172 2.465 . S
Tb128 O173 2.387 . S
Tb128 O175 2.428 . S
Tb128 O176 2.308 1_565 S
Tb128 O180 2.335 1_465 S
Tb128 O183 2.393 1_455 S
Tb128 C192 2.802 . S
C129 N130 1.379 . S
C129 C132 1.416 . S
C129 C136 1.424 . S
N130 C129 1.379 . S
N130 C133 1.334 1_655 S
N130 Tb139 2.617 . S
C131 C133 1.390 1_655 S
C131 C134 1.339 . S
C131 H151 0.930 1_655 S
C132 C129 1.416 . S
C132 C134 1.416 . S
C132 C138 1.448 . S
C133 N130 1.334 1_455 S
C133 C131 1.390 1_455 S
C133 H144 0.931 . S
C134 C131 1.339 . S
C134 C132 1.416 . S
C134 H155 0.930 . S
C135 C136 1.413 . S
C135 C137 1.427 . S
C135 C141 1.416 . S
C136 C129 1.424 . S
C136 C135 1.413 . S
C136 N140 1.361 . S
C137 C135 1.427 . S
C137 C138 1.328 . S
C137 H152 0.929 . S
C138 C132 1.448 . S
C138 C137 1.328 . S
C138 H153 0.930 . S
Tb139 N130 2.617 . S
Tb139 N140 2.572 . S
Tb139 O174 2.349 1_655 S
Tb139 O177 2.393 1_655 S
Tb139 O178 2.465 . S
Tb139 O179 2.387 . S
Tb139 O181 2.428 . S
Tb139 O182 2.308 1_545 S
Tb139 C203 2.802 . S
N140 C136 1.361 . S
N140 Tb139 2.572 . S
N140 C142 1.340 . S
C141 C135 1.416 . S
C141 C143 1.332 . S
C141 H149 0.931 . S
C142 N140 1.340 . S
C142 C143 1.407 . S
C142 H148 0.930 . S
C143 C141 1.332 . S
C143 C142 1.407 . S
C143 H145 0.929 . S
H144 C133 0.931 . S
H145 C143 0.929 . S
H146 C161 0.930 1_655 S
H147 C168 0.929 . S
H148 C142 0.930 . S
H149 C141 0.931 . S
H150 C164 0.930 . S
H151 C131 0.930 1_455 S
H152 C137 0.929 . S
H153 C138 0.930 . S
H154 C159 0.930 1_655 S
H155 C134 0.930 . S
H156 C167 0.931 . S
N157 Tb128 2.617 . S
N157 C158 1.379 . S
N157 C161 1.334 . S
C158 N157 1.379 . S
C158 C160 1.416 . S
C158 C166 1.424 . S
C159 H154 0.930 1_455 S
C159 C161 1.390 . S
C159 C162 1.339 . S
C160 C158 1.416 . S
C160 C162 1.416 . S
C160 C193 1.448 . S
C161 H146 0.930 1_455 S
C161 N157 1.334 . S
C161 C159 1.390 . S
C162 C159 1.339 . S
C162 C160 1.416 . S
C162 H169 0.930 . S
N163 Tb128 2.572 . S
N163 C164 1.340 . S
N163 C166 1.361 . S
C164 H150 0.930 . S
C164 N163 1.340 . S
C164 C168 1.407 . S
C165 C166 1.413 . S
C165 C167 1.416 . S
C165 C194 1.427 . S
C166 C158 1.424 . S
C166 N163 1.361 . S
C166 C165 1.413 . S
C167 H156 0.931 . S
C167 C165 1.416 . S
C167 C168 1.332 . S
C168 H147 0.929 . S
C168 C164 1.407 . S
C168 C167 1.332 . S
H169 C162 0.930 . S
H170 C193 0.930 . S
H171 C194 0.929 . S
O172 Tb128 2.465 . S
O172 C192 1.264 . S
O173 Tb128 2.387 . S
O173 C184 1.264 . S
O174 Tb139 2.349 1_455 S
O174 C184 1.243 1_545 S
O175 Tb128 2.428 . S
O175 C192 1.256 . S
O176 Tb128 2.308 1_545 S
O176 C191 1.266 . S
O177 Tb139 2.393 1_455 S
O177 C191 1.248 . S
O178 Tb139 2.465 . S
O178 C203 1.264 . S
O179 Tb139 2.387 . S
O179 C195 1.264 . S
O180 Tb128 2.335 1_645 S
O180 C195 1.267 . S
O181 Tb139 2.428 . S
O181 C203 1.256 . S
O182 Tb139 2.308 1_565 S
O182 C202 1.266 . S
O183 Tb128 2.393 1_655 S
O183 C202 1.248 . S
C184 O173 1.264 . S
C184 O174 1.243 1_565 S
C185 C188 1.399 . S
C185 C190 1.383 . S
C185 C192 1.496 . S
C186 C187 1.399 . S
C186 C190 1.389 . S
C187 C186 1.399 . S
C187 C189 1.380 . S
C187 H204 0.929 . S
C188 C185 1.399 . S
C188 C189 1.392 . S
C188 H205 0.929 . S
C189 C187 1.380 . S
C189 C188 1.392 . S
C189 H206 0.929 . S
C190 C185 1.383 . S
C190 C186 1.389 . S
C190 H207 0.931 . S
C191 O176 1.266 . S
C191 O177 1.248 . S
C192 Tb128 2.802 . S
C192 O172 1.264 . S
C192 O175 1.256 . S
C192 C185 1.496 . S
C193 C160 1.448 . S
C193 H170 0.930 . S
C193 C194 1.328 . S
C194 C165 1.427 . S
C194 H171 0.929 . S
C194 C193 1.328 . S
C195 O179 1.264 . S
C195 O180 1.267 . S
C196 C199 1.399 . S
C196 C200 1.383 . S
C196 C203 1.496 . S
C197 C198 1.399 . S
C197 C200 1.389 . S
C198 C197 1.399 . S
C198 C201 1.380 . S
C198 H208 0.929 . S
C199 C196 1.399 . S
C199 C201 1.392 . S
C199 H209 0.929 . S
C200 C196 1.383 . S
C200 C197 1.389 . S
C200 H210 0.931 . S
C201 C198 1.380 . S
C201 C199 1.392 . S
C201 H211 0.929 . S
C202 O182 1.266 . S
C202 O183 1.248 . S
C203 Tb139 2.802 . S
C203 O178 1.264 . S
C203 O181 1.256 . S
C203 C196 1.496 . S
H204 C187 0.929 . S
H205 C188 0.929 . S
H206 C189 0.929 . S
H207 C190 0.931 . S
H208 C198 0.929 . S
H209 C199 0.929 . S
H210 C200 0.931 . S
H211 C201 0.929 . S
Tb212 N241 2.618 . S
Tb212 N247 2.572 1_556 S
Tb212 O256 2.465 . S
Tb212 O257 2.387 1_556 S
Tb212 O259 2.428 . S
Tb212 O260 2.308 1_556 S
Tb212 O264 2.349 . S
Tb212 O267 2.393 1_556 S
Tb212 C276 2.802 . S
C213 N214 1.379 . S
C213 C216 1.416 . S
C213 C220 1.424 . S
N214 C213 1.379 . S
N214 C217 1.334 . S
N214 Tb223 2.617 . S
C215 C217 1.390 . S
C215 C218 1.339 . S
C215 H235 0.930 . S
C216 C213 1.416 . S
C216 C218 1.416 . S
C216 C222 1.448 . S
C217 N214 1.334 . S
C217 C215 1.390 . S
C217 H228 0.930 . S
C218 C215 1.339 . S
C218 C216 1.416 . S
C218 H239 0.930 . S
C219 C220 1.413 . S
C219 C221 1.427 . S
C219 C225 1.416 . S
C220 C213 1.424 . S
C220 C219 1.413 . S
C220 N224 1.361 . S
C221 C219 1.427 . S
C221 C222 1.328 . S
C221 H236 0.929 . S
C222 C216 1.448 . S
C222 C221 1.328 . S
C222 H237 0.930 . S
Tb223 N214 2.617 . S
Tb223 N224 2.572 . S
Tb223 O258 2.349 . S
Tb223 O261 2.393 . S
Tb223 O262 2.465 . S
Tb223 O263 2.387 . S
Tb223 O265 2.428 . S
Tb223 O266 2.308 . S
Tb223 C287 2.802 . S
N224 C220 1.361 . S
N224 Tb223 2.572 . S
N224 C226 1.340 . S
C225 C219 1.416 . S
C225 C227 1.332 . S
C225 H233 0.931 . S
C226 N224 1.340 . S
C226 C227 1.407 . S
C226 H232 0.930 . S
C227 C225 1.332 . S
C227 C226 1.407 . S
C227 H229 0.929 . S
H228 C217 0.930 . S
H229 C227 0.929 . S
H230 C245 0.930 . S
H231 C252 0.929 . S
H232 C226 0.930 . S
H233 C225 0.931 . S
H234 C248 0.930 . S
H235 C215 0.930 . S
H236 C221 0.929 . S
H237 C222 0.930 . S
H238 C243 0.930 . S
H239 C218 0.930 . S
H240 C251 0.931 . S
N241 Tb212 2.618 . S
N241 C242 1.379 1_556 S
N241 C245 1.334 . S
C242 N241 1.379 1_554 S
C242 C244 1.416 . S
C242 C250 1.424 . S
C243 H238 0.930 . S
C243 C245 1.390 . S
C243 C246 1.339 1_556 S
C244 C242 1.416 . S
C244 C246 1.416 . S
C244 C277 1.448 . S
C245 H230 0.930 . S
C245 N241 1.334 . S
C245 C243 1.390 . S
C246 C243 1.339 1_554 S
C246 C244 1.416 . S
C246 H253 0.930 . S
N247 Tb212 2.572 1_554 S
N247 C248 1.340 . S
N247 C250 1.361 . S
C248 H234 0.930 . S
C248 N247 1.340 . S
C248 C252 1.407 . S
C249 C250 1.413 . S
C249 C251 1.416 . S
C249 C278 1.427 . S
C250 C242 1.424 . S
C250 N247 1.361 . S
C250 C249 1.413 . S
C251 H240 0.931 . S
C251 C249 1.416 . S
C251 C252 1.332 . S
C252 H231 0.929 . S
C252 C248 1.407 . S
C252 C251 1.332 . S
H253 C246 0.930 . S
H254 C277 0.930 . S
H255 C278 0.929 . S
O256 Tb212 2.465 . S
O256 C276 1.264 . S
O257 Tb212 2.387 1_554 S
O257 C268 1.264 . S
O258 Tb223 2.349 . S
O258 C268 1.243 . S
O259 Tb212 2.428 . S
O259 C276 1.256 . S
O260 Tb212 2.308 1_554 S
O260 C275 1.266 . S
O261 Tb223 2.393 . S
O261 C275 1.248 . S
O262 Tb223 2.465 . S
O262 C287 1.264 . S
O263 Tb223 2.387 . S
O263 C279 1.264 1_554 S
O264 Tb212 2.349 . S
O264 C279 1.243 . S
O265 Tb223 2.428 . S
O265 C287 1.256 . S
O266 Tb223 2.308 . S
O266 C286 1.266 . S
O267 Tb212 2.393 1_554 S
O267 C286 1.248 . S
C268 O257 1.264 . S
C268 O258 1.243 . S
C269 C272 1.399 . S
C269 C274 1.383 . S
C269 C276 1.496 . S
C270 C271 1.399 . S
C270 C274 1.389 . S
C271 C270 1.399 . S
C271 C273 1.380 . S
C271 H288 0.929 . S
C272 C269 1.399 . S
C272 C273 1.392 . S
C272 H289 0.929 . S
C273 C271 1.380 . S
C273 C272 1.392 . S
C273 H290 0.929 . S
C274 C269 1.383 . S
C274 C270 1.389 . S
C274 H291 0.931 . S
C275 O260 1.266 . S
C275 O261 1.248 . S
C276 Tb212 2.802 . S
C276 O256 1.264 . S
C276 O259 1.256 . S
C276 C269 1.496 . S
C277 C244 1.448 . S
C277 H254 0.930 . S
C277 C278 1.328 . S
C278 C249 1.427 . S
C278 H255 0.929 . S
C278 C277 1.328 . S
C279 O263 1.264 1_556 S
C279 O264 1.243 . S
C280 C283 1.399 . S
C280 C284 1.383 . S
C280 C287 1.496 . S
C281 C282 1.399 . S
C281 C284 1.389 . S
C282 C281 1.399 . S
C282 C285 1.380 . S
C282 H292 0.929 . S
C283 C280 1.399 . S
C283 C285 1.392 . S
C283 H293 0.929 . S
C284 C280 1.383 . S
C284 C281 1.389 . S
C284 H294 0.931 . S
C285 C282 1.380 . S
C285 C283 1.392 . S
C285 H295 0.929 . S
C286 O266 1.266 . S
C286 O267 1.248 . S
C287 Tb223 2.802 . S
C287 O262 1.264 . S
C287 O265 1.256 . S
C287 C280 1.496 . S
H288 C271 0.929 . S
H289 C272 0.929 . S
H290 C273 0.929 . S
H291 C274 0.931 . S
H292 C282 0.929 . S
H293 C283 0.929 . S
H294 C284 0.931 . S
H295 C285 0.929 . S
H296 C302 0.930 . S
H297 C305 0.930 . S
H298 C306 0.930 . S
H299 C307 0.930 . S
H300 C310 0.930 . S
H301 C311 0.930 . S
C302 H296 0.930 . S
C302 C303 1.355 . S
C302 C304 1.415 . S
C303 C302 1.355 . S
C303 C305 1.419 . S
C304 C302 1.415 . S
C304 C309 1.425 . S
C304 C311 1.409 . S
C305 H297 0.930 . S
C305 C303 1.419 . S
C305 C306 1.362 . S
C306 H298 0.930 . S
C306 C305 1.362 . S
C306 C309 1.409 . S
C307 H299 0.930 . S
C307 C308 1.355 . S
C307 C309 1.415 . S
C308 C307 1.355 . S
C308 C310 1.419 . S
C309 C304 1.425 . S
C309 C306 1.409 . S
C309 C307 1.415 . S
C310 H300 0.930 . S
C310 C308 1.419 . S
C310 C311 1.362 . S
C311 H301 0.930 . S
C311 C304 1.409 . S
C311 C310 1.362 . S
H312 C318 0.930 . S
H313 C321 0.930 1_556 S
H314 C322 0.917 1_556 S
H315 C323 0.930 1_556 S
H316 C326 0.930 . S
H317 C327 0.930 . S
C318 H312 0.930 . S
C318 C319 1.355 . S
C318 C320 1.415 . S
C319 C318 1.355 . S
C319 C321 1.419 . S
C320 C318 1.415 . S
C320 C325 1.425 . S
C320 C327 1.409 . S
C321 H313 0.930 1_554 S
C321 C319 1.419 . S
C321 C322 1.370 . S
C322 H314 0.917 1_554 S
C322 C321 1.370 . S
C322 C325 1.415 . S
C323 H315 0.930 1_554 S
C323 C324 1.355 . S
C323 C325 1.415 . S
C324 C323 1.355 . S
C324 C326 1.419 . S
C325 C320 1.425 . S
C325 C322 1.415 . S
C325 C323 1.415 . S
C326 H316 0.930 . S
C326 C324 1.419 . S
C326 C327 1.362 . S
C327 H317 0.930 . S
C327 C320 1.409 . S
C327 C326 1.362 . S
H328 C334 0.930 . S
H329 C337 0.930 . S
H330 C338 0.930 . S
H331 C339 0.930 . S
H332 C342 0.930 . S
H333 C343 0.930 . S
C334 H328 0.930 . S
C334 C335 1.355 . S
C334 C336 1.415 . S
C335 C334 1.355 . S
C335 C337 1.419 . S
C336 C334 1.415 . S
C336 C341 1.425 . S
C336 C343 1.409 . S
C337 H329 0.930 . S
C337 C335 1.419 . S
C337 C338 1.362 . S
C338 H330 0.930 . S
C338 C337 1.362 . S
C338 C341 1.409 . S
C339 H331 0.930 . S
C339 C340 1.355 . S
C339 C341 1.415 . S
C340 C339 1.355 . S
C340 C342 1.419 . S
C341 C336 1.425 . S
C341 C338 1.409 . S
C341 C339 1.415 . S
C342 H332 0.930 . S
C342 C340 1.419 . S
C342 C343 1.362 . S
C343 H333 0.930 . S
C343 C336 1.409 . S
C343 C342 1.362 . S
H344 C350 0.930 1_556 S
H345 C353 0.930 . S
H346 C354 0.930 . S
H347 C355 0.930 . S
H348 C358 0.930 1_556 S
H349 C359 0.930 . S
C350 H344 0.930 1_554 S
C350 C351 1.355 . S
C350 C352 1.415 . S
C351 C350 1.355 . S
C351 C353 1.419 . S
C352 C350 1.415 . S
C352 C357 1.425 . S
C352 C359 1.409 1_554 S
C353 H345 0.930 . S
C353 C351 1.419 . S
C353 C354 1.362 . S
C354 H346 0.930 . S
C354 C353 1.362 . S
C354 C357 1.409 . S
C355 H347 0.930 . S
C355 C356 1.355 . S
C355 C357 1.415 . S
C356 C355 1.355 . S
C356 C358 1.419 . S
C357 C352 1.425 . S
C357 C354 1.409 . S
C357 C355 1.415 . S
C358 H348 0.930 1_554 S
C358 C356 1.419 . S
C358 C359 1.362 1_554 S
C359 H349 0.930 . S
C359 C352 1.409 1_556 S
C359 C358 1.362 1_556 S
H360 C366 0.930 . S
H361 C369 0.930 . S
H362 C370 0.930 . S
H363 C371 0.930 . S
H364 C374 0.930 . S
H365 C375 0.930 . S
C366 H360 0.930 . S
C366 C367 1.355 . S
C366 C368 1.415 . S
C367 C366 1.355 . S
C367 C369 1.419 . S
C368 C366 1.415 . S
C368 C373 1.425 . S
C368 C375 1.409 . S
C369 H361 0.930 . S
C369 C367 1.419 . S
C369 C370 1.362 . S
C370 H362 0.930 . S
C370 C369 1.362 . S
C370 C373 1.409 . S
C371 H363 0.930 . S
C371 C372 1.355 . S
C371 C373 1.415 . S
C372 C371 1.355 . S
C372 C374 1.419 . S
C373 C368 1.425 . S
C373 C370 1.409 . S
C373 C371 1.415 . S
C374 H364 0.930 . S
C374 C372 1.419 . S
C374 C375 1.362 . S
C375 H365 0.930 . S
C375 C368 1.409 . S
C375 C374 1.362 . S
H376 C382 0.930 . S
H377 C385 0.930 . S
H378 C386 0.930 . S
H379 C387 0.930 . S
H380 C390 0.930 . S
H381 C391 0.930 . S
C382 H376 0.930 . S
C382 C383 1.355 . S
C382 C384 1.415 . S
C383 C382 1.355 . S
C383 C385 1.419 . S
C384 C382 1.415 . S
C384 C389 1.425 . S
C384 C391 1.409 . S
C385 H377 0.930 . S
C385 C383 1.419 . S
C385 C386 1.362 . S
C386 H378 0.930 . S
C386 C385 1.362 . S
C386 C389 1.409 . S
C387 H379 0.930 . S
C387 C388 1.355 . S
C387 C389 1.415 . S
C388 C387 1.355 . S
C388 C390 1.419 . S
C389 C384 1.425 . S
C389 C386 1.409 . S
C389 C387 1.415 . S
C390 H380 0.930 . S
C390 C388 1.419 . S
C390 C391 1.362 . S
C391 H381 0.930 . S
C391 C384 1.409 . S
C391 C390 1.362 . S
H392 C398 0.930 . S
H393 C401 0.930 . S
H394 C402 0.930 . S
H395 C403 0.930 . S
H396 C406 0.938 . S
H397 C407 0.930 . S
C398 H392 0.930 . S
C398 C399 1.355 . S
C398 C400 1.415 . S
C399 C398 1.355 . S
C399 C401 1.419 . S
C400 C398 1.415 . S
C400 C405 1.425 . S
C400 C407 1.409 . S
C401 H393 0.930 . S
C401 C399 1.419 . S
C401 C402 1.362 . S
C402 H394 0.930 . S
C402 C401 1.362 . S
C402 C405 1.409 . S
C403 H395 0.930 . S
C403 C404 1.355 . S
C403 C405 1.415 . S
C404 C403 1.355 . S
C404 C406 1.419 . S
C405 C400 1.425 . S
C405 C402 1.409 . S
C405 C403 1.415 . S
C406 H396 0.938 . S
C406 C404 1.419 . S
C406 C407 1.362 . S
C407 H397 0.930 . S
C407 C400 1.409 . S
C407 C406 1.362 . S
H408 C414 0.930 . S
H409 C417 0.930 . S
H410 C418 0.930 . S
H411 C419 0.930 . S
H412 C422 0.930 . S
H413 C423 0.930 . S
C414 H408 0.930 . S
C414 C415 1.355 . S
C414 C416 1.415 . S
C415 C414 1.355 . S
C415 C417 1.419 . S
C416 C414 1.415 . S
C416 C421 1.425 . S
C416 C423 1.409 . S
C417 H409 0.930 . S
C417 C415 1.419 . S
C417 C418 1.362 . S
C418 H410 0.930 . S
C418 C417 1.362 . S
C418 C421 1.409 . S
C419 H411 0.930 . S
C419 C420 1.355 . S
C419 C421 1.415 . S
C420 C419 1.355 . S
C420 C422 1.419 . S
C421 C416 1.425 . S
C421 C418 1.409 . S
C421 C419 1.415 . S
C422 H412 0.930 . S
C422 C420 1.419 . S
C422 C423 1.362 . S
C423 H413 0.930 . S
C423 C416 1.409 . S
C423 C422 1.362 . S
H424 C430 0.930 . S
H425 C433 0.930 . S
H426 C434 0.930 . S
H427 C435 0.930 . S
H428 C438 0.930 . S
H429 C439 0.930 . S
C430 H424 0.930 . S
C430 C431 1.355 . S
C430 C432 1.415 . S
C431 C430 1.355 . S
C431 C433 1.419 . S
C432 C430 1.415 . S
C432 C437 1.425 . S
C432 C439 1.409 . S
C433 H425 0.930 . S
C433 C431 1.419 . S
C433 C434 1.362 . S
C434 H426 0.930 . S
C434 C433 1.362 . S
C434 C437 1.409 . S
C435 H427 0.930 . S
C435 C436 1.355 . S
C435 C437 1.415 . S
C436 C435 1.355 . S
C436 C438 1.419 . S
C437 C432 1.425 . S
C437 C434 1.409 . S
C437 C435 1.415 . S
C438 H428 0.930 . S
C438 C436 1.419 . S
C438 C439 1.362 . S
C439 H429 0.930 . S
C439 C432 1.409 . S
C439 C438 1.362 . S
H440 C446 0.930 . S
H441 C449 0.930 . S
H442 C450 0.930 . S
H443 C451 0.930 . S
H444 C454 0.930 . S
H445 C455 0.930 . S
C446 H440 0.930 . S
C446 C447 1.355 . S
C446 C448 1.415 . S
C447 C446 1.355 . S
C447 C449 1.419 . S
C448 C446 1.415 . S
C448 C453 1.425 . S
C448 C455 1.409 . S
C449 H441 0.930 . S
C449 C447 1.419 . S
C449 C450 1.362 . S
C450 H442 0.930 . S
C450 C449 1.362 . S
C450 C453 1.409 . S
C451 H443 0.930 . S
C451 C452 1.355 . S
C451 C453 1.415 . S
C452 C451 1.355 . S
C452 C454 1.419 . S
C453 C448 1.425 . S
C453 C450 1.409 . S
C453 C451 1.415 . S
C454 H444 0.930 . S
C454 C452 1.419 . S
C454 C455 1.362 . S
C455 H445 0.930 . S
C455 C448 1.409 . S
C455 C454 1.362 . S
H456 C462 0.930 . S
H457 C465 0.930 . S
H458 C466 0.930 . S
H459 C467 0.930 . S
H460 C470 0.930 . S
H461 C471 0.930 . S
C462 H456 0.930 . S
C462 C463 1.355 . S
C462 C464 1.415 . S
C463 C462 1.355 . S
C463 C465 1.419 . S
C464 C462 1.415 . S
C464 C469 1.425 . S
C464 C471 1.409 . S
C465 H457 0.930 . S
C465 C463 1.419 . S
C465 C466 1.362 . S
C466 H458 0.930 . S
C466 C465 1.362 . S
C466 C469 1.409 . S
C467 H459 0.930 . S
C467 C468 1.355 . S
C467 C469 1.415 . S
C468 C467 1.355 . S
C468 C470 1.419 . S
C469 C464 1.425 . S
C469 C466 1.409 . S
C469 C467 1.415 . S
C470 H460 0.930 . S
C470 C468 1.419 . S
C470 C471 1.362 . S
C471 H461 0.930 . S
C471 C464 1.409 . S
C471 C470 1.362 . S
H472 C478 0.930 . S
H473 C481 0.930 . S
H474 C482 0.930 . S
H475 C483 0.930 . S
H476 C486 0.930 . S
H477 C487 0.930 . S
C478 H472 0.930 . S
C478 C479 1.355 . S
C478 C480 1.415 . S
C479 C478 1.355 . S
C479 C481 1.419 . S
C480 C478 1.415 . S
C480 C485 1.425 . S
C480 C487 1.409 . S
C481 H473 0.930 . S
C481 C479 1.419 . S
C481 C482 1.362 . S
C482 H474 0.930 . S
C482 C481 1.362 . S
C482 C485 1.409 . S
C483 H475 0.930 . S
C483 C484 1.355 . S
C483 C485 1.415 . S
C484 C483 1.355 . S
C484 C486 1.419 . S
C485 C480 1.425 . S
C485 C482 1.409 . S
C485 C483 1.415 . S
C486 H476 0.930 . S
C486 C484 1.419 . S
C486 C487 1.362 . S
C487 H477 0.930 . S
C487 C480 1.409 . S
C487 C486 1.362 . S
C308 C191 1.622 . S
C303 C119 1.629 . S
C319 C23 1.608 . S
C324 C286 1.607 . S
C335 C55 1.519 . S
C340 C202 1.636 . S
C351 C87 1.537 . S
C356 C275 1.615 . S
C372 C186 1.379 . S
C367 C17 1.526 . S
C388 C279 1.606 . S
C383 C61 1.503 . S
C399 C93 1.445 . S
C404 C195 1.599 . S
C415 C113 1.533 . S
C420 C270 1.444 . S
C436 C281 1.376 . S
C431 C49 1.505 . S
C452 C197 1.357 . S
C447 C81 1.512 . S
C468 C268 1.605 . S
C463 C125 1.607 . S
C479 C29 1.591 . S
C484 C184 1.599 . S
