# Generated by pormake.
# Topology zzz, (3,6)-cn, num edge types: 1
# Building blocks:
#     Node 0, Type 0, BuildingBlock: QEWDON_clean_linker_0, # of connection points: 3
#     Node 1, Type 0, BuildingBlock: QEWDON_clean_linker_0, # of connection points: 3
#     Node 2, Type 0, BuildingBlock: QEWDON_clean_linker_0, # of connection points: 3
#     Node 3, Type 0, BuildingBlock: QEWDON_clean_linker_0, # of connection points: 3
#     Node 4, Type 0, BuildingBlock: QEWDON_clean_linker_0, # of connection points: 3
#     Node 5, Type 0, BuildingBlock: QEWDON_clean_linker_0, # of connection points: 3
#     Node 6, Type 0, BuildingBlock: QEWDON_clean_linker_0, # of connection points: 3
#     Node 7, Type 0, BuildingBlock: QEWDON_clean_linker_0, # of connection points: 3
#     Node 8, Type 1, BuildingBlock: PAMTOO_clean_sbu_0, # of connection points: 6
#     Node 9, Type 1, BuildingBlock: PAMTOO_clean_sbu_0, # of connection points: 6
#     Node 10, Type 1, BuildingBlock: PAMTOO_clean_sbu_0, # of connection points: 6
#     Node 11, Type 1, BuildingBlock: PAMTOO_clean_sbu_0, # of connection points: 6
#     Edge 12, Type (0, 1), BuildingBlock: TEMPAE_clean_linker_10, # of connection points: 2
#     Edge 13, Type (0, 1), BuildingBlock: TEMPAE_clean_linker_10, # of connection points: 2
#     Edge 14, Type (0, 1), BuildingBlock: TEMPAE_clean_linker_10, # of connection points: 2
#     Edge 15, Type (0, 1), BuildingBlock: TEMPAE_clean_linker_10, # of connection points: 2
#     Edge 16, Type (0, 1), BuildingBlock: TEMPAE_clean_linker_10, # of connection points: 2
#     Edge 17, Type (0, 1), BuildingBlock: TEMPAE_clean_linker_10, # of connection points: 2
#     Edge 18, Type (0, 1), BuildingBlock: TEMPAE_clean_linker_10, # of connection points: 2
#     Edge 19, Type (0, 1), BuildingBlock: TEMPAE_clean_linker_10, # of connection points: 2
#     Edge 20, Type (0, 1), BuildingBlock: TEMPAE_clean_linker_10, # of connection points: 2
#     Edge 21, Type (0, 1), BuildingBlock: TEMPAE_clean_linker_10, # of connection points: 2
#     Edge 22, Type (0, 1), BuildingBlock: TEMPAE_clean_linker_10, # of connection points: 2
#     Edge 23, Type (0, 1), BuildingBlock: TEMPAE_clean_linker_10, # of connection points: 2
#     Edge 24, Type (0, 1), BuildingBlock: TEMPAE_clean_linker_10, # of connection points: 2
#     Edge 25, Type (0, 1), BuildingBlock: TEMPAE_clean_linker_10, # of connection points: 2
#     Edge 26, Type (0, 1), BuildingBlock: TEMPAE_clean_linker_10, # of connection points: 2
#     Edge 27, Type (0, 1), BuildingBlock: TEMPAE_clean_linker_10, # of connection points: 2
#     Edge 28, Type (0, 1), BuildingBlock: TEMPAE_clean_linker_10, # of connection points: 2
#     Edge 29, Type (0, 1), BuildingBlock: TEMPAE_clean_linker_10, # of connection points: 2
#     Edge 30, Type (0, 1), BuildingBlock: TEMPAE_clean_linker_10, # of connection points: 2
#     Edge 31, Type (0, 1), BuildingBlock: TEMPAE_clean_linker_10, # of connection points: 2
#     Edge 32, Type (0, 1), BuildingBlock: TEMPAE_clean_linker_10, # of connection points: 2
#     Edge 33, Type (0, 1), BuildingBlock: TEMPAE_clean_linker_10, # of connection points: 2
#     Edge 34, Type (0, 1), BuildingBlock: TEMPAE_clean_linker_10, # of connection points: 2
#     Edge 35, Type (0, 1), BuildingBlock: TEMPAE_clean_linker_10, # of connection points: 2
# Relax obj value: 0.153
# Max RMSD: 0.254
# Mean RMSD: 0.085
data_MOF--net-zzz--node1-PAMTOO_clean_sbu_0--node2-QEWDON_clean_linker_0--edge1-TEMPAE_clean_linker_10
_symmetry_space_group_name_H-M    P1
_symmetry_Int_Tables_number       1
_symmetry_cell_setting            triclinic
loop_
_symmetry_equiv_pos_as_xyz
'x, y, z'
_cell_length_a     61.94871
_cell_length_b     53.773219
_cell_length_c     15.441249
_cell_angle_alpha  91.788397
_cell_angle_beta   79.717552
_cell_angle_gamma 86.710637
loop_
_atom_site_label
_atom_site_type_symbol
_atom_site_fract_x
_atom_site_fract_y
_atom_site_fract_z
_atom_type_partial_charge
H0 H 0.79317 0.54161 0.39131 0.0
C1 C 0.80461 0.53682 0.43443 0.0
C2 C 0.82699 0.53809 0.40141 0.0
C3 C 0.79717 0.52841 0.51946 0.0
H4 H 0.8596 0.53407 0.43124 0.0
C5 C 0.84219 0.53331 0.45686 0.0
C6 C 0.83572 0.5254 0.54244 0.0
C7 C 0.81305 0.52294 0.57409 0.0
C8 C 0.77299 0.52477 0.54766 0.0
H9 H 0.80809 0.51585 0.63896 0.0
C10 C 0.75938 0.51964 0.48479 0.0
C11 C 0.73641 0.51825 0.50998 0.0
C12 C 0.76305 0.52734 0.63699 0.0
H13 H 0.77254 0.53167 0.6873 0.0
C14 C 0.74046 0.52513 0.66272 0.0
H15 H 0.76649 0.51645 0.41584 0.0
C16 C 0.72723 0.5208 0.60007 0.0
H17 H 0.70969 0.52007 0.62216 0.0
H18 H 0.73306 0.52733 0.73174 0.0
H19 H 0.99459 0.73027 0.35609 0.0
C20 C 0.99882 0.74277 0.40581 0.0
C21 C 0.99632 0.76837 0.39426 0.0
C22 C 1.00652 0.73362 0.48036 0.0
H23 H 0.99944 0.80512 0.44775 0.0
C24 C 1.00091 0.78525 0.45805 0.0
C25 C 1.00878 0.77714 0.53199 0.0
C26 C 1.01179 0.75128 0.54322 0.0
C27 C 1.00869 0.70587 0.49181 0.0
H28 H 0.01853 0.74519 0.59955 0.0
C29 C 1.01173 0.68848 0.41861 0.0
C30 C 1.01195 0.66248 0.43011 0.0
C31 C 1.00663 0.69637 0.57667 0.0
H32 H 1.0037 0.70866 0.63494 0.0
C33 C 1.00759 0.67071 0.58824 0.0
H34 H 1.01417 0.69491 0.35214 0.0
C35 C 1.0101 0.6539 0.51595 0.0
H36 H 1.01002 0.63414 0.5276 0.0
H37 H 1.00587 0.66379 0.65404 0.0
H38 H 0.77421 0.0088 0.1614 0.0
C39 C 0.76216 0.00902 0.22147 0.0
C40 C 0.74008 0.01473 0.21636 0.0
C41 C 0.7683 1.00263 0.30232 0.0
H42 H 0.70674 0.01868 0.28597 0.0
C43 C 0.72378 0.01433 0.29144 0.0
C44 C 0.72873 0.00791 0.37266 0.0
C45 C 0.75108 1.00215 0.37833 0.0
C46 C 0.79231 0.9955 0.30571 0.0
H47 H 0.75478 0.99781 0.44215 0.0
C48 C 0.81035 1.0028 0.24147 0.0
C49 C 0.8325 0.99529 0.24639 0.0
C50 C 0.79745 0.98029 0.37295 0.0
H51 H 0.78475 0.97312 0.42125 0.0
C52 C 0.81918 0.9733 0.37846 0.0
H53 H 0.80747 0.01457 0.18865 0.0
C54 C 0.83648 0.98077 0.31632 0.0
H55 H 0.85316 0.97473 0.32195 0.0
H56 H 0.82262 0.96168 0.43097 0.0
H57 H 0.54796 0.73464 0.11945 0.0
C58 C 0.54379 0.7248 0.17969 0.0
C59 C 0.53975 0.69946 0.17424 0.0
C60 C 0.54376 0.73678 0.26275 0.0
H61 H 0.53268 0.66647 0.24448 0.0
C62 C 0.5352 0.68622 0.25076 0.0
C63 C 0.53511 0.69714 0.33378 0.0
C64 C 0.53931 0.72257 0.33984 0.0
C65 C 0.55022 0.76327 0.26855 0.0
H66 H 0.53907 0.73113 0.40441 0.0
C67 C 0.54547 0.78142 0.20821 0.0
C68 C 0.55296 0.80579 0.21283 0.0
C69 C 0.56231 0.77026 0.33348 0.0
H70 H 0.56703 0.75697 0.37901 0.0
C71 C 0.56914 0.79436 0.33962 0.0
H72 H 0.53629 0.77662 0.15729 0.0
C73 C 0.56453 0.81194 0.28017 0.0
H74 H 0.57008 0.83053 0.28703 0.0
H75 H 0.57832 0.79937 0.39031 0.0
H76 H 0.23889 0.51454 0.24809 0.0
C77 C 0.23109 0.51415 0.19085 0.0
C78 C 0.21107 0.52806 0.19614 0.0
C79 C 0.24008 0.49884 0.11561 0.0
H80 H 0.18385 0.53715 0.13182 0.0
C81 C 0.19957 0.5267 0.12613 0.0
C82 C 0.20735 0.51123 0.05121 0.0
C83 C 0.22781 0.49758 0.04562 0.0
C84 C 0.26141 0.48333 0.11348 0.0
H85 H 0.23394 0.48626 0.98634 0.0
C86 C 0.27673 0.48932 0.16881 0.0
C87 C 0.29577 0.47358 0.1711 0.0
C88 C 0.26623 0.46151 0.05879 0.0
H89 H 0.25503 0.4553 0.01765 0.0
C90 C 0.28548 0.44666 0.05748 0.0
H91 H 0.27387 0.50593 0.21143 0.0
C92 C 0.30008 0.45256 0.11271 0.0
H93 H 0.31482 0.44048 0.10963 0.0
H94 H 0.28893 0.43014 0.01419 0.0
H95 H 1.01023 0.27782 0.24763 0.0
C96 C 1.01457 0.26484 0.19132 0.0
C97 C 1.01478 0.23933 0.20603 0.0
C98 C 0.01922 0.27346 0.1049 0.0
H99 H 0.01816 0.20232 0.14612 0.0
C100 C 0.01889 0.2221 0.1345 0.0
C101 C 0.02273 0.22982 0.0481 0.0
C102 C 0.02326 0.25554 0.03288 0.0
C103 C 0.01822 0.30105 0.09153 0.0
H104 H 0.02655 0.26139 0.96562 0.0
C105 C 0.02335 0.31827 0.1554 0.0
C106 C 0.01961 0.34421 0.14834 0.0
C107 C 1.01044 0.31058 0.01813 0.0
H108 H 1.00588 0.29829 0.96852 0.0
C109 C 1.00749 0.33627 0.0094 0.0
H110 H 0.02963 0.31163 0.21215 0.0
C111 C 1.01176 0.35296 0.07433 0.0
H112 H 1.00887 0.37278 0.06686 0.0
H113 H 1.00133 0.34328 0.95288 0.0
H114 H 0.27702 0.99243 0.38627 0.0
C115 C 0.28983 0.99693 0.33294 0.0
C116 C 0.31148 0.99551 0.34772 0.0
C117 C 0.28505 1.00347 0.24997 0.0
H118 H 0.34552 0.99765 0.29215 0.0
C119 C 0.32882 0.99943 0.27956 0.0
C120 C 0.3254 1.00464 0.19516 0.0
C121 C 0.30336 0.00758 0.18096 0.0
C122 C 0.26127 1.00464 0.23543 0.0
H123 H 0.30085 0.0126 0.11616 0.0
C124 C 0.24266 0.00716 0.30636 0.0
C125 C 0.22074 0.00758 0.29013 0.0
C126 C 0.25687 1.00233 0.14912 0.0
H127 H 0.26991 0.9993 0.09261 0.0
C128 C 0.23537 1.00321 0.13323 0.0
H129 H 0.24488 0.00926 0.37397 0.0
C130 C 0.21754 0.00589 0.2026 0.0
H131 H 0.20108 0.00611 0.18779 0.0
H132 H 0.23251 1.00145 0.06623 0.0
H133 H 0.53676 0.26993 0.43697 0.0
C134 C 0.53034 0.28092 0.38848 0.0
C135 C 0.52539 0.30657 0.40572 0.0
C136 C 0.52851 0.26989 0.30625 0.0
H137 H 0.51535 0.34117 0.35493 0.0
C138 C 0.51816 0.32117 0.34195 0.0
C139 C 0.51694 0.31107 0.25864 0.0
C140 C 0.52212 0.28531 0.24085 0.0
C141 C 0.53617 0.24314 0.28505 0.0
H142 H 0.52152 0.27742 0.17596 0.0
C143 C 0.53044 0.22407 0.34505 0.0
C144 C 0.53905 0.19906 0.32517 0.0
C145 C 0.55053 0.23687 0.20528 0.0
H146 H 0.55559 0.251 0.15873 0.0
C147 C 0.55932 0.21253 0.18589 0.0
H148 H 0.5191 0.22871 0.40606 0.0
C149 C 0.55387 0.19391 0.24518 0.0
H150 H 0.56171 0.17546 0.22834 0.0
H151 H 0.57073 0.20811 0.12491 0.0
Dy152 Dy 0.01672 0.00989 0.68153 0.0
Dy153 Dy 0.0355 0.99745 0.85719 0.0
C154 C 0.06869 1.00384 0.67702 0.0
O155 O 1.01361 0.96862 0.68878 0.0
O156 O 0.0361 0.96 0.78824 0.0
O157 O 0.02121 0.02433 0.55125 0.0
O158 O 0.99007 0.01001 0.60837 0.0
O159 O 0.99958 0.98965 0.88392 0.0
O160 O 0.98858 0.01866 0.79509 0.0
O161 O 0.02799 0.03882 0.8721 0.0
O162 O 0.02557 0.04716 0.72929 0.0
O163 O 0.03261 1.00059 0.99868 0.0
O164 O 0.05997 0.97859 0.91976 0.0
C165 C 0.02436 0.95256 0.73054 0.0
O166 O 0.05262 0.99753 0.63685 0.0
O167 O 0.06448 0.00982 0.76192 0.0
C168 C 0.98949 0.04699 0.53086 0.0
C169 C 0.97672 0.097 0.50695 0.0
C170 C 0.98756 0.08146 0.43517 0.0
C171 C 0.99381 0.05667 0.44708 0.0
C172 C 0.9777 0.06194 0.60194 0.0
C173 C 0.97122 0.08671 0.58993 0.0
C174 C 1.00049 0.02313 0.54648 0.0
C175 C 0.98386 1.00423 0.86207 0.0
C176 C 0.02685 0.05475 0.80988 0.0
C177 C 0.04088 0.96014 0.04246 0.0
C178 C 0.02907 0.91203 0.08931 0.0
C179 C 1.01339 0.92947 0.06789 0.0
C180 C 0.01922 0.95329 0.0449 0.0
C181 C 0.05641 0.94306 0.06711 0.0
C182 C 0.05049 0.91915 0.09101 0.0
C183 C 0.04794 0.98281 0.9978 0.0
H184 H 0.99254 0.08879 0.37062 0.0
H185 H 1.00321 0.04553 0.39193 0.0
H186 H 0.97444 0.05489 0.66765 0.0
H187 H 0.96272 0.09804 0.6463 0.0
H188 H 0.99667 0.92458 0.06776 0.0
H189 H 1.00692 0.96596 0.02542 0.0
H190 H 0.07328 0.9478 0.06398 0.0
H191 H 0.06285 0.90595 0.10751 0.0
Dy192 Dy 0.52238 0.98981 0.70412 0.0
Dy193 Dy 0.53379 0.0192 0.8741 0.0
C194 C 0.52535 0.0481 0.70669 0.0
O195 O 0.55818 0.99711 0.66158 0.0
O196 O 0.56694 1.0047 0.79782 0.0
O197 O 0.51844 0.98798 0.5677 0.0
O198 O 0.51233 0.95605 0.64819 0.0
O199 O 0.52512 0.98105 0.91703 0.0
O200 O 0.53681 0.96109 0.7837 0.0
O201 O 0.49662 0.02381 0.89737 0.0
O202 O 0.4901 0.99337 0.79931 0.0
O203 O 0.54689 0.01835 0.99415 0.0
O204 O 0.53501 0.05355 0.94939 0.0
C205 C 0.57296 1.00038 0.71207 0.0
O206 O 0.5126 0.03033 0.69247 0.0
O207 O 0.53902 0.04483 0.76159 0.0
C208 C 0.48732 0.96591 0.55722 0.0
C209 C 0.4431 0.96195 0.54292 0.0
C210 C 0.44911 0.98125 0.59507 0.0
C211 C 0.47103 0.98326 0.60196 0.0
C212 C 0.48149 0.94683 0.5036 0.0
C213 C 0.45945 0.945 0.49573 0.0
C214 C 0.50969 0.96647 0.57548 0.0
C215 C 0.53168 0.96042 0.86979 0.0
C216 C 0.48297 0.0096 0.86532 0.0
C217 C 0.5674 0.05255 0.01153 0.0
C218 C 0.6115 0.06183 0.01784 0.0
C219 C 0.59781 0.05229 0.09062 0.0
C220 C 0.576 0.0479 0.08761 0.0
C221 C 0.58057 0.063 0.93985 0.0
C222 C 0.60237 0.06784 0.94333 0.0
C223 C 0.54624 0.04258 0.00303 0.0
H224 H 0.43683 0.99489 0.62998 0.0
H225 H 0.47525 0.99812 0.64366 0.0
H226 H 0.49386 0.93316 0.46937 0.0
H227 H 0.45509 0.93014 0.45437 0.0
H228 H 0.60417 0.04674 0.14846 0.0
H229 H 0.56622 0.03944 0.14294 0.0
H230 H 0.57435 0.06644 0.87976 0.0
H231 H 0.61221 0.0755 0.88651 0.0
Dy232 Dy 0.55153 0.5077 0.82667 0.0
Dy233 Dy 0.50142 0.50206 0.76231 0.0
C234 C 0.51882 0.46548 0.90769 0.0
O235 O 0.55445 0.47146 0.75139 0.0
O236 O 0.52777 0.47985 0.66843 0.0
O237 O 0.58533 0.49659 0.83456 0.0
O238 O 0.57096 0.53257 0.88967 0.0
O239 O 0.5134 0.53743 0.70974 0.0
O240 O 0.55066 0.53116 0.70676 0.0
O241 O 0.50017 0.53788 0.8435 0.0
O242 O 0.52437 0.52458 0.92869 0.0
O243 O 0.48579 0.49646 0.65053 0.0
O244 O 0.4654 0.50108 0.78303 0.0
C245 C 0.54357 0.46517 0.68951 0.0
O246 O 0.53665 0.47766 0.91075 0.0
O247 O 0.50408 0.47191 0.85865 0.0
C248 C 0.60075 0.51488 0.95287 0.0
C249 C 0.62912 0.51302 0.07961 0.0
C250 C 0.62361 0.49099 0.03887 0.0
C251 C 0.60967 0.4919 0.97624 0.0
C252 C 0.60589 0.53681 0.99468 0.0
C253 C 0.61981 0.53591 0.05708 0.0
C254 C 0.58814 0.51681 0.87918 0.0
C255 C 0.5336 0.54362 0.68427 0.0
C256 C 0.51043 0.54176 0.90977 0.0
C257 C 0.44657 0.49427 0.65564 0.0
C258 C 0.4112 0.4919 0.56066 0.0
C259 C 0.4316 0.47871 0.52985 0.0
C260 C 0.44902 0.48005 0.57618 0.0
C261 C 0.42602 0.50664 0.68892 0.0
C262 C 0.40858 0.50557 0.64187 0.0
C263 C 0.46604 0.49784 0.69797 0.0
H264 H 0.63014 0.47297 0.05508 0.0
H265 H 0.60622 0.47462 0.94505 0.0
H266 H 0.59962 0.55484 0.97724 0.0
H267 H 0.62383 0.55333 0.08551 0.0
H268 H 0.43425 0.46736 0.46929 0.0
H269 H 0.4646 0.47015 0.54895 0.0
H270 H 0.42369 0.51794 0.74959 0.0
H271 H 0.39328 0.51616 0.66789 0.0
Dy272 Dy 0.03194 0.52684 0.70849 0.0
Dy273 Dy 0.01974 0.4817 0.84101 0.0
C274 C 0.03255 0.47111 0.6338 0.0
O275 O 0.99499 0.52725 0.72752 0.0
O276 O 0.98852 0.48936 0.78879 0.0
O277 O 0.04908 0.54173 0.58922 0.0
O278 O 0.02724 0.56602 0.68574 0.0
O279 O 1.00763 0.51746 0.9191 0.0
O280 O 0.0337 0.54073 0.84448 0.0
O281 O 0.05369 0.49023 0.85765 0.0
O282 O 0.0649 0.51045 0.73007 0.0
O283 O 1.0146 0.4667 0.97079 0.0
O284 O 1.01312 0.44296 0.85703 0.0
C285 C 0.98176 0.50938 0.75178 0.0
O286 O 0.02696 0.49445 0.62136 0.0
O287 O 0.03641 0.46424 0.71077 0.0
C288 C 0.0602 0.58169 0.61441 0.0
C289 C 0.1009 0.60344 0.59959 0.0
C290 C 0.08983 0.60222 0.52729 0.0
C291 C 0.06968 0.59144 0.53481 0.0
C292 C 0.06995 0.58505 0.68905 0.0
C293 C 0.09004 0.59611 0.68193 0.0
C294 C 0.04248 0.5647 0.61521 0.0
C295 C 0.01935 0.53717 0.91543 0.0
C296 C 0.06921 0.49967 0.80119 0.0
C297 C 0.98564 0.44007 0.98276 0.0
C298 C 0.94056 0.44898 0.04733 0.0
C299 C 0.95575 0.45057 0.1047 0.0
C300 C 0.97817 0.44597 0.07264 0.0
C301 C 0.97025 0.43476 0.92891 0.0
C302 C 0.94784 0.43917 0.96114 0.0
C303 C 1.00812 0.44577 0.94253 0.0
H304 H 0.09757 0.60729 0.4623 0.0
H305 H 0.06238 0.58896 0.47663 0.0
H306 H 0.06281 0.57764 0.75142 0.0
H307 H 0.09779 0.59717 0.73936 0.0
H308 H 0.95064 0.45793 0.1718 0.0
H309 H 0.98971 0.44978 0.11576 0.0
H310 H 0.97543 0.42962 0.85961 0.0
H311 H 0.93638 0.43706 0.91638 0.0
C312 C 0.19633 0.98988 0.42037 0.0
C313 C 0.20066 0.00922 0.36187 0.0
C314 C 0.17556 0.98884 0.47598 0.0
C315 C 0.15862 0.00776 0.47444 0.0
C316 C 0.16336 0.02792 0.41832 0.0
C317 C 0.18407 0.02824 0.36245 0.0
C318 C 0.17141 0.96682 0.53344 0.0
C319 C 0.14624 0.04882 0.41495 0.0
C320 C 0.09757 0.9941 0.53938 0.0
C321 C 0.09184 1.00435 0.62597 0.0
C322 C 0.11917 0.99464 0.49055 0.0
C323 C 0.13572 0.00602 0.52795 0.0
C324 C 0.13004 0.01638 0.61536 0.0
C325 C 0.10838 0.01528 0.66317 0.0
C326 C 0.12427 0.98306 0.39831 0.0
C327 C 0.14681 0.02905 0.65808 0.0
H328 H 0.20882 0.97486 0.41933 0.0
H329 H 0.18714 0.04314 0.31704 0.0
H330 H 0.165 0.97326 0.60268 0.0
H331 H 0.15868 0.95577 0.51117 0.0
H332 H 0.18649 0.95445 0.5315 0.0
H333 H 0.15297 0.06414 0.37372 0.0
H334 H 0.13237 0.04153 0.38749 0.0
H335 H 0.13949 0.05661 0.48237 0.0
H336 H 0.08514 0.9855 0.50952 0.0
H337 H 0.10433 0.02337 0.72967 0.0
H338 H 0.13831 0.96896 0.39231 0.0
H339 H 0.12922 0.99756 0.35046 0.0
H340 H 0.11 0.97396 0.37977 0.0
H341 H 0.1613 0.01598 0.65869 0.0
H342 H 0.14006 0.03585 0.72678 0.0
H343 H 0.15272 0.04512 0.6192 0.0
C344 C 0.53303 0.15359 0.35218 0.0
C345 C 0.53334 0.17814 0.38648 0.0
C346 C 0.53062 0.13315 0.40697 0.0
C347 C 0.52733 0.13713 0.49956 0.0
C348 C 0.52614 0.16191 0.53534 0.0
C349 C 0.52946 0.18203 0.47863 0.0
C350 C 0.53246 0.10714 0.36524 0.0
C351 C 0.52189 0.16715 0.63367 0.0
C352 C 0.50619 0.08157 0.6319 0.0
C353 C 0.52542 0.07137 0.65678 0.0
C354 C 0.50632 0.10359 0.58437 0.0
C355 C 0.52633 0.11518 0.55788 0.0
C356 C 0.54579 0.10481 0.58271 0.0
C357 C 0.545 0.08337 0.63305 0.0
C358 C 0.48505 0.11441 0.56224 0.0
C359 C 0.56764 0.11587 0.55362 0.0
H360 H 0.5351 0.15012 0.28164 0.0
H361 H 0.52965 0.20069 0.50682 0.0
H362 H 0.54632 0.09609 0.38519 0.0
H363 H 0.5173 0.09748 0.3886 0.0
H364 H 0.53523 0.10714 0.29214 0.0
H365 H 0.51868 0.18739 0.65124 0.0
H366 H 0.5076 0.15714 0.66556 0.0
H367 H 0.53635 0.16024 0.66127 0.0
H368 H 0.49096 0.07252 0.65074 0.0
H369 H 0.55996 0.0755 0.65148 0.0
H370 H 0.48571 0.11298 0.49001 0.0
H371 H 0.48259 0.1345 0.5826 0.0
H372 H 0.47062 0.10469 0.59481 0.0
H373 H 0.57162 0.11553 0.48058 0.0
H374 H 0.58125 0.10563 0.57833 0.0
H375 H 0.56677 0.13564 0.57733 0.0
C376 C 0.32078 0.45798 0.27294 0.0
C377 C 0.31098 0.47821 0.23516 0.0
C378 C 0.33619 0.4614 0.32837 0.0
C379 C 0.34181 0.48575 0.3491 0.0
C380 C 0.33139 0.50639 0.3143 0.0
C381 C 0.31625 0.5024 0.25749 0.0
C382 C 0.34687 0.43877 0.36314 0.0
C383 C 0.33657 0.53271 0.33571 0.0
C384 C 0.37086 0.49197 0.54745 0.0
C385 C 0.39311 0.49165 0.50703 0.0
C386 C 0.35396 0.49098 0.49716 0.0
C387 C 0.3593 0.4893 0.40383 0.0
C388 C 0.38164 0.48943 0.36264 0.0
C389 C 0.39814 0.49082 0.41436 0.0
C390 C 0.33038 0.49119 0.54407 0.0
C391 C 0.38822 0.48748 0.26356 0.0
H392 H 0.31648 0.43922 0.25886 0.0
H393 H 0.30899 0.51824 0.22892 0.0
H394 H 0.36491 0.43798 0.33952 0.0
H395 H 0.34406 0.44009 0.43616 0.0
H396 H 0.34052 0.42109 0.34206 0.0
H397 H 0.32586 0.5468 0.30961 0.0
H398 H 0.3346 0.53597 0.4081 0.0
H399 H 0.35395 0.53557 0.30719 0.0
H400 H 0.36659 0.49241 0.61865 0.0
H401 H 0.4151 0.49124 0.38167 0.0
H402 H 0.32366 0.47295 0.53236 0.0
H403 H 0.32016 0.50567 0.51753 0.0
H404 H 0.32873 0.49477 0.61627 0.0
H405 H 0.38328 0.46955 0.23807 0.0
H406 H 0.40621 0.48852 0.2414 0.0
H407 H 0.37956 0.50265 0.23358 0.0
C408 C 0.04261 0.36231 0.25109 0.0
C409 C 0.0227 0.36226 0.21986 0.0
C410 C 0.0457 0.37992 0.31673 0.0
C411 C 0.02826 0.39747 0.3538 0.0
C412 C 1.00802 0.3972 0.32315 0.0
C413 C 1.00559 0.37984 0.25607 0.0
C414 C 0.06772 0.37995 0.34564 0.0
C415 C 0.9888 0.41512 0.3618 0.0
C416 C 0.02779 0.42749 0.58172 0.0
C417 C 0.03315 0.45191 0.56171 0.0
C418 C 0.02631 0.40958 0.51486 0.0
C419 C 0.03096 0.41595 0.42533 0.0
C420 C 0.03717 0.44036 0.40466 0.0
C421 C 0.03782 0.45814 0.47305 0.0
C422 C 0.01897 0.3841 0.5403 0.0
C423 C 0.04287 0.4478 0.31025 0.0
H424 H 0.05593 0.34891 0.22275 0.0
H425 H 0.99011 0.37975 0.23263 0.0
H426 H 0.07446 0.39855 0.33614 0.0
H427 H 0.06578 0.37639 0.41688 0.0
H428 H 0.07981 0.36564 0.30856 0.0
H429 H 0.974 0.41204 0.3325 0.0
H430 H 0.98456 0.4131 0.43406 0.0
H431 H 0.99328 0.4346 0.3509 0.0
H432 H 0.02388 0.42261 0.65009 0.0
H433 H 0.04206 0.47695 0.45708 0.0
H434 H 0.03139 0.36944 0.50821 0.0
H435 H 1.00341 0.38086 0.51679 0.0
H436 H 0.01628 0.38193 0.61268 0.0
H437 H 0.05546 0.43421 0.27222 0.0
H438 H 0.04921 0.46671 0.30495 0.0
H439 H 0.0281 0.44757 0.27897 0.0
C440 C 0.85656 0.98974 0.09553 0.0
C441 C 0.85204 1.00159 0.17972 0.0
C442 C 0.87723 0.99107 0.03952 0.0
C443 C 0.89389 1.00479 0.06755 0.0
C444 C 0.88893 0.01775 0.15096 0.0
C445 C 0.86831 0.01575 0.20603 0.0
C446 C 0.88162 0.97669 0.95209 0.0
C447 C 0.90578 0.03295 0.18386 0.0
C448 C 0.95497 0.98651 0.9771 0.0
C449 C 0.96071 1.00426 0.91333 0.0
C450 C 0.9334 0.98628 0.02621 0.0
C451 C 0.91684 1.00439 0.01267 0.0
C452 C 0.92251 0.02235 0.9483 0.0
C453 C 0.9442 0.022 0.89939 0.0
C454 C 0.92835 0.96657 0.09309 0.0
C455 C 0.90569 0.04221 0.93177 0.0
H456 H 0.84434 0.97828 0.07538 0.0
H457 H 0.86513 0.02464 0.27143 0.0
H458 H 0.88807 0.98897 0.89836 0.0
H459 H 0.8944 0.96141 0.95307 0.0
H460 H 0.86663 0.96845 0.93667 0.0
H461 H 0.89881 0.04377 0.24602 0.0
H462 H 0.91971 0.02042 0.19582 0.0
H463 H 0.91252 0.04608 0.13343 0.0
H464 H 0.96738 0.97259 0.98863 0.0
H465 H 0.94826 0.03587 0.85069 0.0
H466 H 0.91452 0.9559 0.07849 0.0
H467 H 0.92311 0.97552 0.15983 0.0
H468 H 0.94273 0.95332 0.09411 0.0
H469 H 0.89132 0.03346 0.91296 0.0
H470 H 0.91247 0.05466 0.87892 0.0
H471 H 0.89961 0.05372 0.99313 0.0
C472 C 0.52847 0.8307 0.12729 0.0
C473 C 0.54929 0.82523 0.1485 0.0
C474 C 0.52454 0.85138 0.0766 0.0
C475 C 0.54183 0.86698 0.04623 0.0
C476 C 0.56309 0.86077 0.06407 0.0
C477 C 0.56654 0.84005 0.11438 0.0
C478 C 0.50168 0.85713 0.05855 0.0
C479 C 0.58209 0.87663 0.03302 0.0
C480 C 0.53884 0.9136 0.86548 0.0
C481 C 0.53342 0.93627 0.91448 0.0
C482 C 0.54091 0.89083 0.90727 0.0
C483 C 0.53766 0.89059 1.00051 0.0
C484 C 0.53183 0.91336 0.05026 0.0
C485 C 0.52974 0.9358 0.00687 0.0
C486 C 0.547 0.86706 0.8515 0.0
C487 C 0.52832 0.91413 0.14966 0.0
H488 H 0.51502 0.81947 0.15349 0.0
H489 H 0.58279 0.83576 0.12901 0.0
H490 H 0.49455 0.87469 0.09483 0.0
H491 H 0.50224 0.86003 0.98738 0.0
H492 H 0.4906 0.84202 0.07898 0.0
H493 H 0.59784 0.86857 0.04819 0.0
H494 H 0.58407 0.87883 0.96091 0.0
H495 H 0.57868 0.89554 0.06519 0.0
H496 H 0.54159 0.91361 0.79417 0.0
H497 H 0.52551 0.95309 0.04571 0.0
H498 H 0.53506 0.85288 0.87291 0.0
H499 H 0.56341 0.85928 0.86032 0.0
H500 H 0.54747 0.87005 0.78034 0.0
H501 H 0.5158 0.90104 0.17604 0.0
H502 H 0.5229 0.93308 0.179 0.0
H503 H 0.54384 0.90801 0.17141 0.0
C504 C 0.70411 0.49979 0.45736 0.0
C505 C 0.72182 0.51528 0.44277 0.0
C506 C 0.68934 0.49823 0.39793 0.0
C507 C 0.6921 0.51264 0.32184 0.0
C508 C 0.71019 0.52795 0.30581 0.0
C509 C 0.72481 0.52901 0.36602 0.0
C510 C 0.67055 0.48139 0.41736 0.0
C511 C 0.71377 0.54376 0.22606 0.0
C512 C 0.66353 0.49541 0.12947 0.0
C513 C 0.64493 0.51231 0.1433 0.0
C514 C 0.67886 0.49517 0.18703 0.0
C515 C 0.67573 0.5123 0.26057 0.0
C516 C 0.65692 0.52926 0.27537 0.0
C517 C 0.64181 0.52902 0.21705 0.0
C518 C 0.69858 0.47669 0.16859 0.0
C519 C 0.65279 0.54784 0.35279 0.0
H520 H 0.70175 0.48885 0.51569 0.0
H521 H 0.73823 0.54127 0.35435 0.0
H522 H 0.65467 0.49266 0.42708 0.0
H523 H 0.67082 0.46813 0.3606 0.0
H524 H 0.67117 0.47059 0.47713 0.0
H525 H 0.729 0.55398 0.2211 0.0
H526 H 0.71479 0.53194 0.16512 0.0
H527 H 0.69958 0.55752 0.22915 0.0
H528 H 0.66642 0.48263 0.07235 0.0
H529 H 0.6274 0.54191 0.22972 0.0
H530 H 0.69914 0.46517 0.2266 0.0
H531 H 0.7139 0.48677 0.15694 0.0
H532 H 0.69838 0.46412 0.11029 0.0
H533 H 0.65165 0.53791 0.4152 0.0
H534 H 0.63744 0.55979 0.35535 0.0
H535 H 0.66678 0.56 0.34911 0.0
C536 C 1.00074 0.64883 0.2875 0.0
C537 C 1.0132 0.64424 0.35359 0.0
C538 C 1.00084 0.63127 0.21768 0.0
C539 C 1.01383 0.60851 0.21306 0.0
C540 C 0.02654 0.60381 0.27927 0.0
C541 C 0.02604 0.62165 0.34854 0.0
C542 C 0.987 0.63706 0.14884 0.0
C543 C 0.04082 0.57999 0.27659 0.0
C544 C 1.00173 0.55342 0.06911 0.0
C545 C 0.01742 0.5553 0.99222 0.0
C546 C 1.00025 0.57062 0.1413 0.0
C547 C 1.01488 0.59012 0.13696 0.0
C548 C 0.03074 0.59203 0.05957 0.0
C549 C 0.03177 0.57475 0.98851 0.0
C550 C 0.98303 0.56794 0.22234 0.0
C551 C 0.04678 0.61232 0.05181 0.0
H552 H 0.99049 0.666 0.29132 0.0
H553 H 0.03591 0.61796 0.3986 0.0
H554 H 0.99766 0.63739 0.08308 0.0
H555 H 0.97541 0.62223 0.14527 0.0
H556 H 0.97741 0.65529 0.16278 0.0
H557 H 0.04935 0.57886 0.3339 0.0
H558 H 0.0307 0.56365 0.27552 0.0
H559 H 0.05337 0.57861 0.21533 0.0
H560 H 0.99057 0.53853 0.07291 0.0
H561 H 0.04405 0.57647 0.92986 0.0
H562 H 0.97222 0.58531 0.23624 0.0
H563 H 0.99105 0.56508 0.28034 0.0
H564 H 0.97268 0.55206 0.21515 0.0
H565 H 0.03772 0.63089 0.06028 0.0
H566 H 0.05815 0.61127 0.98724 0.0
H567 H 0.05669 0.61097 0.10486 0.0
C568 C 0.98741 0.23462 0.34259 0.0
C569 C 1.00875 0.2297 0.29483 0.0
C570 C 0.97855 0.21837 0.40712 0.0
C571 C 0.99129 0.19669 0.42147 0.0
C572 C 1.01388 0.19395 0.38285 0.0
C573 C 0.02239 0.21073 0.32034 0.0
C574 C 0.95486 0.22286 0.45149 0.0
C575 C 0.02826 0.17131 0.39694 0.0
C576 C 0.97855 0.14134 0.56016 0.0
C577 C 0.97384 0.12429 0.49621 0.0
C578 C 0.98141 0.16642 0.54096 0.0
C579 C 0.98041 0.17416 0.45508 0.0
C580 C 0.97323 0.15774 0.39397 0.0
C581 C 0.96957 0.13315 0.41622 0.0
C582 C 0.98737 0.18391 0.60996 0.0
C583 C 0.97176 0.16521 0.30147 0.0
H584 H 0.97693 0.24955 0.32349 0.0
H585 H 0.03903 0.20732 0.28397 0.0
H586 H 0.94413 0.21445 0.40977 0.0
H587 H 0.95174 0.21439 0.51683 0.0
H588 H 0.95012 0.24315 0.45993 0.0
H589 H 0.04588 0.17338 0.36947 0.0
H590 H 0.02671 0.1678 0.46803 0.0
H591 H 0.02294 0.15464 0.36421 0.0
H592 H 0.98162 0.13488 0.62288 0.0
H593 H 0.96499 0.12032 0.36806 0.0
H594 H 0.98071 0.20324 0.60363 0.0
H595 H 1.00551 0.18416 0.60162 0.0
H596 H 0.9811 0.17783 0.67744 0.0
H597 H 0.96132 0.18272 0.30324 0.0
H598 H 0.96485 0.15063 0.26386 0.0
H599 H 0.9884 0.16866 0.26515 0.0
C600 C 0.32743 0.00583 0.47748 0.0
C601 C 0.31751 0.98819 0.43166 0.0
C602 C 0.34475 0.99848 0.52008 0.0
C603 C 0.3518 0.97291 0.51751 0.0
C604 C 0.33891 0.95488 0.48658 0.0
C605 C 0.32186 0.96278 0.44299 0.0
C606 C 0.35762 0.01832 0.55486 0.0
C607 C 0.34517 0.9274 0.48749 0.0
C608 C 0.41361 0.96311 0.45348 0.0
C609 C 0.41982 0.96056 0.53543 0.0
C610 C 0.39138 0.96607 0.4467 0.0
C611 C 0.37501 0.96603 0.52397 0.0
C612 C 0.38126 0.96175 0.60629 0.0
C613 C 0.40369 0.95935 0.61113 0.0
C614 C 0.38559 0.97105 0.35747 0.0
C615 C 0.36455 0.96099 0.69004 0.0
H616 H 0.32393 0.0255 0.46864 0.0
H617 H 0.31409 0.94914 0.40765 0.0
H618 H 0.36232 0.01297 0.61805 0.0
H619 H 0.37298 0.02041 0.50688 0.0
H620 H 0.34814 0.03667 0.56511 0.0
H621 H 0.33105 0.91603 0.48143 0.0
H622 H 0.35863 0.92216 0.43106 0.0
H623 H 0.35122 0.92283 0.54895 0.0
H624 H 0.42618 0.96423 0.39531 0.0
H625 H 0.40865 0.95708 0.67442 0.0
H626 H 0.37868 0.99055 0.3576 0.0
H627 H 0.37295 0.95856 0.34288 0.0
H628 H 0.40011 0.96844 0.30343 0.0
H629 H 0.34885 0.95395 0.67753 0.0
H630 H 0.36107 0.98009 0.72043 0.0
H631 H 0.37094 0.94907 0.73852 0.0
C632 C 0.51486 0.33308 0.54232 0.0
C633 C 0.53143 0.32007 0.48144 0.0
C634 C 0.51942 0.35429 0.58937 0.0
C635 C 0.54093 0.36286 0.5731 0.0
C636 C 0.55816 0.3481 0.51933 0.0
C637 C 0.55319 0.32668 0.47443 0.0
C638 C 0.5007 0.36907 0.6484 0.0
C639 C 0.5813 0.35648 0.50035 0.0
C640 C 0.54093 0.43335 0.57132 0.0
C641 C 0.5465 0.43924 0.6531 0.0
C642 C 0.54008 0.40844 0.54297 0.0
C643 C 0.54437 0.38901 0.59889 0.0
C644 C 0.55063 0.39485 0.68045 0.0
C645 C 0.55185 0.41992 0.70619 0.0
C646 C 0.5337 0.40297 0.45463 0.0
C647 C 0.55481 0.37476 0.74259 0.0
H648 H 0.49799 0.32809 0.54667 0.0
H649 H 0.5659 0.31681 0.42608 0.0
H650 H 0.50593 0.37627 0.709 0.0
H651 H 0.49542 0.38536 0.6131 0.0
H652 H 0.48632 0.3577 0.66752 0.0
H653 H 0.59335 0.34096 0.47205 0.0
H654 H 0.58215 0.37145 0.45218 0.0
H655 H 0.58615 0.36426 0.56088 0.0
H656 H 0.5367 0.44825 0.53045 0.0
H657 H 0.55573 0.4244 0.77043 0.0
H658 H 0.51751 0.39463 0.46443 0.0
H659 H 0.54585 0.38923 0.415 0.0
H660 H 0.53257 0.42001 0.41636 0.0
H661 H 0.53933 0.36562 0.76572 0.0
H662 H 0.56092 0.38226 0.80094 0.0
H663 H 0.56696 0.36014 0.70812 0.0
C664 C 0.21284 0.5598 0.3177 0.0
C665 C 0.20097 0.54281 0.27736 0.0
C666 C 0.2024 0.57535 0.38985 0.0
C667 C 0.17957 0.57399 0.42082 0.0
C668 C 0.16784 0.55598 0.38232 0.0
C669 C 0.17877 0.54052 0.31201 0.0
C670 C 0.21581 0.59361 0.42982 0.0
C671 C 0.14351 0.55332 0.41334 0.0
C672 C 0.13888 0.58984 0.62019 0.0
C673 C 0.12506 0.6064 0.58275 0.0
C674 C 0.16014 0.58272 0.57495 0.0
C675 C 0.167 0.59164 0.4901 0.0
C676 C 0.15541 0.61262 0.46342 0.0
C677 C 0.13452 0.62013 0.5114 0.0
C678 C 0.17342 0.56229 0.60993 0.0
C679 C 0.16311 0.62406 0.37634 0.0
H680 H 0.2301 0.56148 0.29128 0.0
H681 H 0.16975 0.52685 0.28254 0.0
H682 H 0.21759 0.6102 0.38882 0.0
H683 H 0.20816 0.59985 0.49812 0.0
H684 H 0.23261 0.58522 0.43012 0.0
H685 H 0.13689 0.53899 0.37365 0.0
H686 H 0.14043 0.54793 0.483 0.0
H687 H 0.13413 0.57132 0.40934 0.0
H688 H 0.13235 0.57975 0.67771 0.0
H689 H 0.12449 0.63426 0.48558 0.0
H690 H 0.19129 0.56464 0.59018 0.0
H691 H 0.1699 0.54402 0.58195 0.0
H692 H 0.1692 0.56202 0.68288 0.0
H693 H 0.15495 0.64288 0.37328 0.0
H694 H 0.15913 0.61196 0.32251 0.0
H695 H 0.18117 0.62552 0.36467 0.0
C696 C 1.00957 0.77501 0.23728 0.0
C697 C 0.99253 0.77843 0.3103 0.0
C698 C 1.01308 0.79358 0.17552 0.0
C699 C 0.99918 0.81569 0.18841 0.0
C700 C 0.97952 0.81669 0.25155 0.0
C701 C 0.9764 0.79788 0.31234 0.0
C702 C 0.0336 0.79135 0.10592 0.0
C703 C 0.96372 0.83946 0.26459 0.0
C704 C 0.02764 0.876 0.18662 0.0
C705 C 0.02284 0.88653 0.1102 0.0
C706 C 0.02039 0.85267 0.21126 0.0
C707 C 1.00816 0.83946 0.15745 0.0
C708 C 1.00378 0.84971 0.07868 0.0
C709 C 1.01121 0.87321 0.05596 0.0
C710 C 0.02517 0.84264 0.29684 0.0
C711 C 0.99136 0.83606 0.01827 0.0
H712 H 0.0219 0.75973 0.23522 0.0
H713 H 0.96302 0.80021 0.36837 0.0
H714 H 0.03055 0.7998 0.04425 0.0
H715 H 0.04667 0.8015 0.12971 0.0
H716 H 0.03971 0.77157 0.09122 0.0
H717 H 0.94738 0.83527 0.30194 0.0
H718 H 0.97042 0.85417 0.30235 0.0
H719 H 0.9616 0.847 0.20035 0.0
H720 H 0.03644 0.88644 0.22881 0.0
H721 H 1.0078 0.88128 0.99595 0.0
H722 H 0.0334 0.82366 0.28542 0.0
H723 H 1.00952 0.84129 0.34382 0.0
H724 H 0.03581 0.85469 0.32832 0.0
H725 H 1.00282 0.82212 0.97628 0.0
H726 H 0.98434 0.84898 0.97424 0.0
H727 H 0.97787 0.82594 0.05585 0.0
C728 C 0.73423 0.0451 0.10372 0.0
C729 C 0.73277 0.02082 0.13339 0.0
C730 C 0.71895 0.05499 0.05464 0.0
C731 C 0.70162 0.04043 0.03869 0.0
C732 C 0.70235 0.01475 0.05672 0.0
C733 C 0.71819 0.00517 0.10307 0.0
C734 C 0.7198 0.08182 0.02955 0.0
C735 C 0.68448 0.99829 0.03948 0.0
C736 C 0.64304 0.06693 0.097 0.0
C737 C 0.63555 0.06281 0.01757 0.0
C738 C 0.66502 0.06133 0.10339 0.0
C739 C 0.68026 0.05272 0.02712 0.0
C740 C 0.6735 0.05201 0.94437 0.0
C741 C 0.65112 0.05657 0.9407 0.0
C742 C 0.67135 0.06238 0.1936 0.0
C743 C 0.68942 0.04471 0.86039 0.0
H744 H 0.74567 0.05715 0.12665 0.0
H745 H 0.71728 0.98631 0.12589 0.0
H746 H 0.71319 0.08474 0.96813 0.0
H747 H 0.70969 0.09393 0.0829 0.0
H748 H 0.73691 0.0878 0.02024 0.0
H749 H 0.68858 0.97835 0.04998 0.0
H750 H 0.66887 1.00429 0.0845 0.0
H751 H 0.68164 0.99999 0.97103 0.0
H752 H 0.63142 0.07302 0.1559 0.0
H753 H 0.6458 0.05372 0.87827 0.0
H754 H 0.68545 0.07415 0.19358 0.0
H755 H 0.67649 0.04336 0.21125 0.0
H756 H 0.6576 0.06998 0.2457 0.0
H757 H 0.70655 0.04864 0.86553 0.0
H758 H 0.68472 0.0548 0.80417 0.0
H759 H 0.68891 0.02448 0.84526 0.0
C760 C 0.52303 0.68474 0.04924 0.0
C761 C 0.5413 0.68467 0.09104 0.0
C762 C 0.51847 0.66316 0.00367 0.0
C763 C 0.53172 0.64085 0.00547 0.0
C764 C 0.55143 0.64161 0.03984 0.0
C765 C 0.55651 0.66399 0.07782 0.0
C766 C 0.49865 0.66379 0.95936 0.0
C767 C 0.56653 0.61868 0.04393 0.0
C768 C 0.50376 0.57939 0.01381 0.0
C769 C 0.51411 0.56772 0.93388 0.0
C770 C 0.5091 0.60349 0.03779 0.0
C771 C 0.52427 0.61647 0.97812 0.0
C772 C 0.53434 0.60475 0.89681 0.0
C773 C 0.52994 0.58015 0.87818 0.0
C774 C 0.49951 0.61444 0.12867 0.0
C775 C 0.55026 0.6179 0.83061 0.0
H776 H 0.51128 0.70077 0.05898 0.0
H777 H 0.57074 0.66409 0.10992 0.0
H778 H 0.50225 0.65257 0.89629 0.0
H779 H 0.48477 0.65567 0.00243 0.0
H780 H 0.49333 0.68316 0.94603 0.0
H781 H 0.57347 0.61926 0.10549 0.0
H782 H 0.55832 0.60098 0.04079 0.0
H783 H 0.58059 0.61842 0.98817 0.0
H784 H 0.49217 0.56937 0.05863 0.0
H785 H 0.53935 0.57044 0.82052 0.0
H786 H 0.48945 0.63187 0.12374 0.0
H787 H 0.51296 0.6193 0.16378 0.0
H788 H 0.48904 0.60138 0.16884 0.0
H789 H 0.54292 0.63652 0.81857 0.0
H790 H 0.55492 0.60712 0.76683 0.0
H791 H 0.56549 0.62087 0.85671 0.0
C792 C 0.82766 0.52025 0.25123 0.0
C793 C 0.83526 0.53801 0.30527 0.0
C794 C 0.84203 0.50864 0.17917 0.0
C795 C 0.86418 0.51481 0.16355 0.0
C796 C 0.87021 0.53658 0.20475 0.0
C797 C 0.85527 0.54846 0.27446 0.0
C798 C 0.83456 0.48703 0.13003 0.0
C799 C 0.89348 0.54459 0.18667 0.0
C800 C 0.9067 0.46131 0.15756 0.0
C801 C 0.91857 0.46212 0.07187 0.0
C802 C 0.88838 0.47783 0.18692 0.0
C803 C 0.88155 0.49523 0.12828 0.0
C804 C 0.89263 0.49506 0.04015 0.0
C805 C 0.9111 0.47857 0.01311 0.0
C806 C 0.87723 0.47762 0.28236 0.0
C807 C 0.88549 0.51257 0.97474 0.0
H808 H 0.8118 0.51269 0.27221 0.0
H809 H 0.86068 0.56313 0.31376 0.0
H810 H 0.84291 0.48597 0.06002 0.0
H811 H 0.83885 0.46938 0.16024 0.0
H812 H 0.81648 0.48862 0.13307 0.0
H813 H 0.89447 0.56403 0.21149 0.0
H814 H 0.90395 0.53208 0.22023 0.0
H815 H 0.90032 0.54317 0.11514 0.0
H816 H 0.91236 0.44851 0.20284 0.0
H817 H 0.9205 0.4797 0.94734 0.0
H818 H 0.85956 0.4744 0.28676 0.0
H819 H 0.87834 0.49598 0.31565 0.0
H820 H 0.88471 0.46298 0.31902 0.0
H821 H 0.87217 0.50428 0.94636 0.0
H822 H 0.89928 0.51548 0.92016 0.0
H823 H 0.87894 0.531 0.00562 0.0
C824 C 1.00516 0.19955 0.96233 0.0
C825 C 0.02446 0.20998 0.97751 0.0
C826 C 1.0057 0.17553 0.92261 0.0
C827 C 0.02607 0.16149 0.89743 0.0
C828 C 0.04576 0.17284 0.90583 0.0
C829 C 0.04471 0.19684 0.94661 0.0
C830 C 0.98429 0.1644 0.91454 0.0
C831 C 0.06787 0.15888 0.8781 0.0
C832 C 0.0259 0.09088 0.91871 0.0
C833 C 0.02684 0.0821 0.83142 0.0
C834 C 0.02562 0.11654 0.94054 0.0
C835 C 0.0265 0.13412 0.87354 0.0
C836 C 0.02743 0.12543 0.78522 0.0
C837 C 0.02757 0.09961 0.76528 0.0
C838 C 0.0242 0.12486 0.03588 0.0
C839 C 0.02861 0.14332 0.71139 0.0
H840 H 0.98944 0.20939 0.98816 0.0
H841 H 0.05961 0.20456 0.96016 0.0
H842 H 0.98522 0.15572 0.84774 0.0
H843 H 0.98112 0.1495 0.96247 0.0
H844 H 0.97018 0.17853 0.92759 0.0
H845 H 0.08162 0.17131 0.87708 0.0
H846 H 0.06973 0.14396 0.92476 0.0
H847 H 0.06914 0.1498 0.8117 0.0
H848 H 0.02521 0.07768 0.97061 0.0
H849 H 0.02834 0.09317 0.69751 0.0
H850 H 1.00936 0.13763 0.05756 0.0
H851 H 0.03869 0.13537 0.04345 0.0
H852 H 0.02343 0.10895 0.08028 0.0
H853 H 0.04526 0.15052 0.69797 0.0
H854 H 0.01666 0.15957 0.7302 0.0
H855 H 0.02537 0.13429 0.64967 0.0
C856 C 0.36178 0.98525 0.11724 0.0
C857 C 0.34576 0.00528 0.1252 0.0
C858 C 0.38334 0.98699 0.07047 0.0
C859 C 0.3894 0.00924 0.02836 0.0
C860 C 0.37295 0.02904 0.03132 0.0
C861 C 0.35143 0.02693 0.08011 0.0
C862 C 0.39994 0.96526 0.06953 0.0
C863 C 0.37832 0.05277 0.98497 0.0
C864 C 0.45114 0.02104 0.99164 0.0
C865 C 0.45879 0.01128 0.90533 0.0
C866 C 0.42866 0.02105 0.03143 0.0
C867 C 0.41304 0.01169 0.98357 0.0
C868 C 0.42056 1.00278 0.8952 0.0
C869 C 0.4432 1.0023 0.85804 0.0
C870 C 0.42173 0.0303 0.12615 0.0
C871 C 0.40491 0.99288 0.83994 0.0
H872 H 0.35768 0.96845 0.15196 0.0
H873 H 0.33941 0.04263 0.08646 0.0
H874 H 0.40695 0.959 1.0006 0.0
H875 H 0.41372 0.97115 0.10088 0.0
H876 H 0.39267 0.94919 0.1049 0.0
H877 H 0.36355 0.06573 0.98796 0.0
H878 H 0.39064 0.06237 0.01555 0.0
H879 H 0.38573 0.04838 0.91486 0.0
H880 H 0.46287 0.02793 0.02943 0.0
H881 H 0.44866 0.99475 0.7914 0.0
H882 H 0.41542 0.01475 0.16701 0.0
H883 H 0.40816 0.04497 0.13192 0.0
H884 H 0.4355 0.03798 0.1535 0.0
H885 H 0.40343 0.97269 0.85057 0.0
H886 H 0.41106 0.99513 0.76881 0.0
H887 H 0.38826 1.0024 0.85747 0.0
C888 C 0.52895 0.3305 0.11348 0.0
C889 C 0.51308 0.32886 0.18982 0.0
C890 C 0.52884 0.35146 0.06078 0.0
C891 C 0.5124 0.37118 0.08467 0.0
C892 C 0.49543 0.36866 0.158 0.0
C893 C 0.49598 0.34759 0.20945 0.0
C894 C 0.54695 0.35307 0.9821 0.0
C895 C 0.47749 0.38902 0.18586 0.0
C896 C 0.527 0.43748 0.02707 0.0
C897 C 0.51625 0.44189 0.95584 0.0
C898 C 0.52586 0.41461 0.06919 0.0
C899 C 0.51399 0.39536 0.03865 0.0
C900 C 0.50325 0.39963 0.96627 0.0
C901 C 0.50441 0.42282 0.92618 0.0
C902 C 0.53745 0.41101 0.14647 0.0
C903 C 0.49078 0.37959 0.93031 0.0
H904 H 0.54232 0.31624 0.09839 0.0
H905 H 0.48367 0.34643 0.26845 0.0
H906 H 0.5397 0.35469 0.92179 0.0
H907 H 0.55603 0.37002 0.98888 0.0
H908 H 0.55882 0.33651 0.97337 0.0
H909 H 0.4644 0.38323 0.23898 0.0
H910 H 0.48465 0.40576 0.21012 0.0
H911 H 0.4699 0.39452 0.12888 0.0
H912 H 0.53631 0.45198 0.05013 0.0
H913 H 0.49647 0.42576 0.86986 0.0
H914 H 0.54967 0.39483 0.13227 0.0
H915 H 0.52541 0.40683 0.20571 0.0
H916 H 0.54604 0.4277 0.16206 0.0
H917 H 0.50233 0.36357 0.90302 0.0
H918 H 0.48217 0.38633 0.87745 0.0
H919 H 0.4785 0.37258 0.98381 0.0
C920 C 0.18709 0.48487 0.95754 0.0
C921 C 0.19261 0.50849 0.98452 0.0
C922 C 0.16912 0.48219 0.91367 0.0
C923 C 0.15617 0.50359 0.89722 0.0
C924 C 0.16285 0.5275 0.91774 0.0
C925 C 0.181 0.52963 0.96024 0.0
C926 C 0.16314 0.45637 0.89012 0.0
C927 C 0.14979 0.5509 0.9012 0.0
C928 C 0.11055 0.50167 0.75816 0.0
C929 C 0.09179 0.49964 0.82308 0.0
C930 C 0.13172 0.50215 0.78044 0.0
C931 C 0.13419 0.50115 0.86999 0.0
C932 C 0.11524 0.49916 0.93551 0.0
C933 C 0.09446 0.49815 0.91126 0.0
C934 C 0.15142 0.50332 0.7079 0.0
C935 C 0.11679 0.49876 0.03201 0.0
H936 H 0.19586 0.4684 0.97583 0.0
H937 H 0.18533 0.54801 0.97935 0.0
H938 H 0.14816 0.45165 0.93603 0.0
H939 H 0.15936 0.45557 0.82253 0.0
H940 H 0.17654 0.44204 0.89412 0.0
H941 H 0.15848 0.56798 0.91101 0.0
H942 H 0.14628 0.55029 0.83322 0.0
H943 H 0.13375 0.55225 0.94713 0.0
H944 H 0.10873 0.50264 0.6898 0.0
H945 H 0.08011 0.49686 0.96226 0.0
H946 H 0.16064 0.48484 0.69871 0.0
H947 H 0.16278 0.51706 0.72545 0.0
H948 H 0.14661 0.50823 0.6443 0.0
H949 H 0.10055 0.49715 0.07489 0.0
H950 H 0.12382 0.5161 0.05214 0.0
H951 H 0.12799 0.48287 0.04365 0.0
C952 C 0.03445 0.80846 0.56572 0.0
C953 C 1.01473 0.7969 0.59149 0.0
C954 C 0.03732 0.8326 0.59821 0.0
C955 C 0.01998 0.84567 0.65772 0.0
C956 C 1.0007 0.83323 0.68925 0.0
C957 C 0.99825 0.8091 0.65524 0.0
C958 C 0.05819 0.8449 0.56278 0.0
C959 C 0.98181 0.84619 0.75298 0.0
C960 C 0.03077 0.90758 0.76756 0.0
C961 C 0.02319 0.92518 0.71251 0.0
C962 C 0.02967 0.88173 0.75138 0.0
C963 C 0.02092 0.87309 0.67798 0.0
C964 C 1.01319 0.89077 0.62241 0.0
C965 C 1.01433 0.91647 0.64048 0.0
C966 C 0.0379 0.86366 0.81283 0.0
C967 C 1.00377 0.88252 0.54323 0.0
H968 H 0.04696 0.79942 0.51451 0.0
H969 H 0.98272 0.80058 0.67338 0.0
H970 H 0.05469 0.8592 0.51601 0.0
H971 H 0.06452 0.85451 0.61686 0.0
H972 H 0.07123 0.83127 0.52765 0.0
H973 H 0.97006 0.83278 0.78386 0.0
H974 H 0.98783 0.85679 0.80569 0.0
H975 H 0.97282 0.85971 0.71723 0.0
H976 H 0.03746 0.91398 0.82397 0.0
H977 H 1.00842 0.92977 0.59741 0.0
H978 H 0.04423 0.87328 0.86702 0.0
H979 H 0.05124 0.85082 0.77553 0.0
H980 H 0.02445 0.85206 0.84208 0.0
H981 H 0.01624 0.87053 0.4975 0.0
H982 H 0.99838 0.89851 0.50668 0.0
H983 H 0.98948 0.87121 0.56435 0.0
C984 C 0.69514 0.02826 0.4704 0.0
C985 C 0.70957 0.00696 0.44751 0.0
C986 C 0.67386 0.02684 0.52075 0.0
C987 C 0.66642 1.00346 0.54917 0.0
C988 C 0.68138 0.98208 0.53055 0.0
C989 C 0.70267 0.98407 0.48003 0.0
C990 C 0.65887 0.05025 0.53884 0.0
C991 C 0.67443 0.95677 0.55951 0.0
C992 C 0.61323 1.0037 0.72291 0.0
C993 C 0.59704 0.99995 0.67109 0.0
C994 C 0.63576 1.00429 0.68482 0.0
C995 C 0.6426 1.00127 0.59211 0.0
C996 C 0.62638 0.99722 0.5396 0.0
C997 C 0.604 0.99657 0.57939 0.0
C998 C 0.65221 0.00871 0.74391 0.0
C999 C 0.63264 0.99397 0.44067 0.0
H1000 H 0.7001 0.04596 0.44437 0.0
H1001 H 0.71339 0.96741 0.46114 0.0
H1002 H 0.64521 0.04901 0.50148 0.0
H1003 H 0.65144 0.05229 0.60979 0.0
H1004 H 0.66763 0.06724 0.5196 0.0
H1005 H 0.68847 0.94253 0.54872 0.0
H1006 H 0.6668 0.95771 0.63032 0.0
H1007 H 0.66186 0.95063 0.52193 0.0
H1008 H 0.60829 0.00645 0.79367 0.0
H1009 H 0.59187 0.99371 0.53806 0.0
H1010 H 0.65927 0.02697 0.73021 0.0
H1011 H 0.66601 0.99423 0.73009 0.0
H1012 H 0.64473 0.00865 0.81486 0.0
H1013 H 0.63986 0.01109 0.41321 0.0
H1014 H 0.61834 0.99012 0.40907 0.0
H1015 H 0.64535 0.97839 0.42268 0.0
C1016 C 0.51739 0.66153 0.41176 0.0
C1017 C 0.53238 0.68027 0.40973 0.0
C1018 C 0.51921 0.64023 0.46049 0.0
C1019 C 0.53523 0.63838 0.51529 0.0
C1020 C 0.54865 0.65863 0.52217 0.0
C1021 C 0.54747 0.6791 0.46758 0.0
C1022 C 0.50482 0.61903 0.44881 0.0
C1023 C 0.56489 0.65831 0.58426 0.0
C1024 C 0.52095 0.58808 0.67784 0.0
C1025 C 0.53606 0.56819 0.64342 0.0
C1026 C 0.52211 0.61171 0.64225 0.0
C1027 C 0.53745 0.61516 0.56484 0.0
C1028 C 0.55279 0.59514 0.52914 0.0
C1029 C 0.55236 0.57206 0.57064 0.0
C1030 C 0.50661 0.63287 0.68696 0.0
C1031 C 0.56884 0.59766 0.44457 0.0
H1032 H 0.50526 0.66259 0.36907 0.0
H1033 H 0.55909 0.69344 0.46695 0.0
H1034 H 0.51515 0.60148 0.42993 0.0
H1035 H 0.49367 0.61606 0.51168 0.0
H1036 H 0.49463 0.62255 0.39755 0.0
H1037 H 0.56972 0.67738 0.59854 0.0
H1038 H 0.558 0.64998 0.64734 0.0
H1039 H 0.57994 0.64685 0.55391 0.0
H1040 H 0.50829 0.58529 0.73426 0.0
H1041 H 0.56393 0.5567 0.54345 0.0
H1042 H 0.4939 0.63752 0.64681 0.0
H1043 H 0.51573 0.64982 0.69331 0.0
H1044 H 0.49821 0.62813 0.75357 0.0
H1045 H 0.55969 0.60187 0.39057 0.0
H1046 H 0.57967 0.58046 0.42537 0.0
H1047 H 0.57926 0.61342 0.45142 0.0
C1048 C 0.87172 0.50268 0.55039 0.0
C1049 C 0.85371 0.51841 0.59231 0.0
C1050 C 0.89166 0.50087 0.58207 0.0
C1051 C 0.89369 0.5144 0.66023 0.0
C1052 C 0.8751 0.52932 0.7057 0.0
C1053 C 0.85539 0.53108 0.67126 0.0
C1054 C 0.91113 0.48612 0.52721 0.0
C1055 C 0.87586 0.54482 0.78805 0.0
C1056 C 0.9438 0.49311 0.76042 0.0
C1057 C 0.95867 0.51143 0.73363 0.0
C1058 C 0.92248 0.49419 0.73934 0.0
C1059 C 0.91567 0.51398 0.68969 0.0
C1060 C 0.93046 0.53269 0.66365 0.0
C1061 C 0.95159 0.53128 0.68617 0.0
C1062 C 0.90728 0.47392 0.76914 0.0
C1063 C 0.9241 0.55403 0.61016 0.0
H1064 H 0.87063 0.49294 0.48891 0.0
H1065 H 0.84178 0.54362 0.70342 0.0
H1066 H 0.92406 0.49896 0.50278 0.0
H1067 H 0.91841 0.47236 0.56743 0.0
H1068 H 0.90668 0.47606 0.46958 0.0
H1069 H 0.86309 0.53906 0.84237 0.0
H1070 H 0.89204 0.54344 0.80916 0.0
H1071 H 0.87169 0.56469 0.77707 0.0
H1072 H 0.94889 0.47767 0.7972 0.0
H1073 H 0.96276 0.54558 0.66483 0.0
H1074 H 0.91435 0.46062 0.81168 0.0
H1075 H 0.90375 0.46325 0.71127 0.0
H1076 H 0.89132 0.48231 0.80541 0.0
H1077 H 0.91921 0.54671 0.54895 0.0
H1078 H 0.93767 0.56658 0.59195 0.0
H1079 H 0.90969 0.56515 0.64838 0.0
loop_
_geom_bond_atom_site_label_1
_geom_bond_atom_site_label_2
_geom_bond_distance
_geom_bond_site_symmetry_2
_ccdc_geom_bond_type
H0 C1 0.949 . S
C1 H0 0.949 . S
C1 C2 1.395 . S
C1 C3 1.391 . S
C2 C1 1.395 . S
C2 C5 1.390 . S
C3 C1 1.391 . S
C3 C7 1.387 . S
C3 C8 1.491 . S
H4 C5 0.950 . S
C5 C2 1.390 . S
C5 H4 0.950 . S
C5 C6 1.378 . S
C6 C5 1.378 . S
C6 C7 1.409 . S
C7 C3 1.387 . S
C7 C6 1.409 . S
C7 H9 0.951 . S
C8 C3 1.491 . S
C8 C10 1.382 . S
C8 C12 1.404 . S
H9 C7 0.951 . S
C10 C8 1.382 . S
C10 C11 1.390 . S
C10 H15 0.949 . S
C11 C10 1.390 . S
C11 C16 1.399 . S
C12 C8 1.404 . S
C12 H13 0.950 . S
C12 C14 1.375 . S
H13 C12 0.950 . S
C14 C12 1.375 . S
C14 C16 1.382 . S
C14 H18 0.950 . S
H15 C10 0.949 . S
C16 C11 1.399 . S
C16 C14 1.382 . S
C16 H17 0.952 . S
H17 C16 0.952 . S
H18 C14 0.950 . S
H19 C20 0.949 . S
C20 H19 0.949 . S
C20 C21 1.395 . S
C20 C22 1.391 . S
C21 C20 1.395 . S
C21 C24 1.390 . S
C22 C20 1.391 . S
C22 C26 1.387 . S
C22 C27 1.491 . S
H23 C24 0.953 . S
C24 C21 1.390 . S
C24 H23 0.953 . S
C24 C25 1.378 . S
C25 C24 1.378 . S
C25 C26 1.409 . S
C26 C22 1.387 . S
C26 C25 1.409 . S
C26 H28 0.951 . S
C27 C22 1.491 . S
C27 C29 1.382 . S
C27 C31 1.404 . S
H28 C26 0.951 . S
C29 C27 1.382 . S
C29 C30 1.390 . S
C29 H34 0.949 1_655 S
C30 C29 1.390 . S
C30 C35 1.399 . S
C31 C27 1.404 . S
C31 H32 0.950 . S
C31 C33 1.375 . S
H32 C31 0.950 . S
C33 C31 1.375 . S
C33 C35 1.382 . S
C33 H37 0.950 . S
H34 C29 0.949 1_455 S
C35 C30 1.399 . S
C35 C33 1.382 . S
C35 H36 0.952 . S
H36 C35 0.952 . S
H37 C33 0.950 . S
H38 C39 0.949 . S
C39 H38 0.949 . S
C39 C40 1.395 . S
C39 C41 1.391 . S
C40 C39 1.395 . S
C40 C43 1.390 1_565 S
C41 C39 1.391 . S
C41 C45 1.387 . S
C41 C46 1.491 . S
H42 C43 0.951 . S
C43 C40 1.390 1_545 S
C43 H42 0.951 . S
C43 C44 1.377 1_545 S
C44 C43 1.377 1_565 S
C44 C45 1.409 . S
C45 C41 1.387 . S
C45 C44 1.409 . S
C45 H47 0.951 . S
C46 C41 1.491 . S
C46 C48 1.382 . S
C46 C50 1.404 . S
H47 C45 0.951 . S
C48 C46 1.382 . S
C48 C49 1.390 . S
C48 H53 0.949 1_565 S
C49 C48 1.390 . S
C49 C54 1.399 . S
C50 C46 1.404 . S
C50 H51 0.950 . S
C50 C52 1.375 . S
H51 C50 0.950 . S
C52 C50 1.375 . S
C52 C54 1.382 . S
C52 H56 0.950 . S
H53 C48 0.949 1_545 S
C54 C49 1.399 . S
C54 C52 1.382 . S
C54 H55 0.952 . S
H55 C54 0.952 . S
H56 C52 0.950 . S
H57 C58 0.949 . S
C58 H57 0.949 . S
C58 C59 1.395 . S
C58 C60 1.391 . S
C59 C58 1.395 . S
C59 C62 1.390 . S
C60 C58 1.391 . S
C60 C64 1.387 . S
C60 C65 1.491 . S
H61 C62 0.950 . S
C62 C59 1.390 . S
C62 H61 0.950 . S
C62 C63 1.378 . S
C63 C62 1.378 . S
C63 C64 1.409 . S
C64 C60 1.387 . S
C64 C63 1.409 . S
C64 H66 0.951 . S
C65 C60 1.491 . S
C65 C67 1.382 . S
C65 C69 1.404 . S
H66 C64 0.951 . S
C67 C65 1.382 . S
C67 C68 1.390 . S
C67 H72 0.949 . S
C68 C67 1.390 . S
C68 C73 1.399 . S
C69 C65 1.404 . S
C69 H70 0.950 . S
C69 C71 1.375 . S
H70 C69 0.950 . S
C71 C69 1.375 . S
C71 C73 1.382 . S
C71 H75 0.950 . S
H72 C67 0.949 . S
C73 C68 1.399 . S
C73 C71 1.382 . S
C73 H74 0.952 . S
H74 C73 0.952 . S
H75 C71 0.950 . S
H76 C77 0.949 . S
C77 H76 0.949 . S
C77 C78 1.395 . S
C77 C79 1.391 1_554 S
C78 C77 1.395 . S
C78 C81 1.390 1_554 S
C79 C77 1.391 1_556 S
C79 C83 1.387 . S
C79 C84 1.491 . S
H80 C81 0.950 . S
C81 C78 1.390 1_556 S
C81 H80 0.950 . S
C81 C82 1.378 . S
C82 C81 1.378 . S
C82 C83 1.409 . S
C83 C79 1.387 . S
C83 C82 1.409 . S
C83 H85 0.951 . S
C84 C79 1.491 . S
C84 C86 1.382 1_556 S
C84 C88 1.404 . S
H85 C83 0.951 . S
C86 C84 1.382 1_554 S
C86 C87 1.390 . S
C86 H91 0.949 . S
C87 C86 1.390 . S
C87 C92 1.399 1_554 S
C88 C84 1.404 . S
C88 H89 0.950 . S
C88 C90 1.375 . S
H89 C88 0.950 . S
C90 C88 1.375 . S
C90 C92 1.382 . S
C90 H94 0.950 . S
H91 C86 0.949 . S
C92 C87 1.399 1_556 S
C92 C90 1.382 . S
C92 H93 0.952 . S
H93 C92 0.952 . S
H94 C90 0.950 . S
H95 C96 0.949 . S
C96 H95 0.949 . S
C96 C97 1.395 . S
C96 C98 1.391 . S
C97 C96 1.395 . S
C97 C100 1.390 . S
C98 C96 1.391 . S
C98 C102 1.387 . S
C98 C103 1.491 . S
H99 C100 0.950 . S
C100 C97 1.390 . S
C100 H99 0.950 . S
C100 C101 1.378 . S
C101 C100 1.378 . S
C101 C102 1.409 . S
C102 C98 1.387 . S
C102 C101 1.409 . S
C102 H104 0.951 1_554 S
C103 C98 1.491 . S
C103 C105 1.382 . S
C103 C107 1.404 1_455 S
H104 C102 0.951 1_556 S
C105 C103 1.382 . S
C105 C106 1.390 . S
C105 H110 0.949 . S
C106 C105 1.390 . S
C106 C111 1.399 1_455 S
C107 C103 1.404 1_655 S
C107 H108 0.950 . S
C107 C109 1.375 . S
H108 C107 0.950 . S
C109 C107 1.375 . S
C109 C111 1.382 . S
C109 H113 0.950 . S
H110 C105 0.949 . S
C111 C106 1.399 1_655 S
C111 C109 1.382 . S
C111 H112 0.952 . S
H112 C111 0.952 . S
H113 C109 0.950 . S
H114 C115 0.952 . S
C115 H114 0.952 . S
C115 C116 1.390 1_565 S
C115 C117 1.393 . S
C116 C115 1.390 1_545 S
C116 C119 1.390 . S
C117 C115 1.393 . S
C117 C121 1.387 . S
C117 C122 1.491 . S
H118 C119 0.950 . S
C119 C116 1.390 . S
C119 H118 0.950 . S
C119 C120 1.378 . S
C120 C119 1.378 . S
C120 C121 1.409 1_545 S
C121 C117 1.387 . S
C121 C120 1.409 1_565 S
C121 H123 0.951 . S
C122 C117 1.491 . S
C122 C124 1.382 1_565 S
C122 C126 1.404 . S
H123 C121 0.951 . S
C124 C122 1.382 1_545 S
C124 C125 1.390 1_545 S
C124 H129 0.949 . S
C125 C124 1.390 1_565 S
C125 C130 1.399 . S
C126 C122 1.404 . S
C126 H127 0.950 . S
C126 C128 1.375 . S
H127 C126 0.950 . S
C128 C126 1.375 . S
C128 C130 1.382 . S
C128 H132 0.950 . S
H129 C124 0.949 . S
C130 C125 1.399 . S
C130 C128 1.382 . S
C130 H131 0.952 . S
H131 C130 0.952 . S
H132 C128 0.950 . S
H133 C134 0.949 . S
C134 H133 0.949 . S
C134 C135 1.395 . S
C134 C136 1.391 . S
C135 C134 1.395 . S
C135 C138 1.390 . S
C136 C134 1.391 . S
C136 C140 1.387 . S
C136 C141 1.491 . S
H137 C138 0.950 . S
C138 C135 1.390 . S
C138 H137 0.950 . S
C138 C139 1.378 . S
C139 C138 1.378 . S
C139 C140 1.409 . S
C140 C136 1.387 . S
C140 C139 1.409 . S
C140 H142 0.951 . S
C141 C136 1.491 . S
C141 C143 1.382 . S
C141 C145 1.404 . S
H142 C140 0.951 . S
C143 C141 1.382 . S
C143 C144 1.390 . S
C143 H148 0.949 . S
C144 C143 1.390 . S
C144 C149 1.399 . S
C145 C141 1.404 . S
C145 H146 0.950 . S
C145 C147 1.375 . S
H146 C145 0.950 . S
C147 C145 1.375 . S
C147 C149 1.382 . S
C147 H151 0.950 . S
H148 C143 0.949 . S
C149 C144 1.399 . S
C149 C147 1.382 . S
C149 H150 0.952 . S
H150 C149 0.952 . S
H151 C147 0.950 . S
Dy152 O155 2.307 1_545 S
Dy152 O157 2.395 1_655 S
Dy152 O158 2.379 . S
Dy152 O160 2.339 . S
Dy152 O162 2.298 1_655 S
Dy152 O166 2.275 1_655 S
Dy152 C174 2.738 . S
Dy153 O156 2.298 . S
Dy153 O159 2.275 1_455 S
Dy153 O161 2.307 1_565 S
Dy153 O163 2.382 1_455 S
Dy153 O164 2.379 . S
Dy153 O167 2.339 . S
Dy153 C183 2.738 . S
C154 O166 1.254 1_565 S
C154 O167 1.257 . S
O155 Dy152 2.307 1_565 S
O155 C165 1.266 1_655 S
O156 Dy153 2.298 . S
O156 C165 1.236 . S
O157 Dy152 2.395 1_455 S
O157 C174 1.255 1_455 S
O158 Dy152 2.379 . S
O158 C174 1.249 . S
O159 Dy153 2.275 1_655 S
O159 C175 1.254 1_565 S
O160 Dy152 2.339 . S
O160 C175 1.257 . S
O161 Dy153 2.307 1_545 S
O161 C176 1.266 . S
O162 Dy152 2.298 1_455 S
O162 C176 1.236 . S
O163 Dy153 2.382 1_655 S
O163 C183 1.231 1_655 S
O164 Dy153 2.379 . S
O164 C183 1.249 . S
C165 O155 1.266 1_455 S
C165 O156 1.236 . S
O166 Dy152 2.275 1_455 S
O166 C154 1.254 1_545 S
O167 Dy153 2.339 . S
O167 C154 1.257 . S
C168 C171 1.344 1_655 S
C168 C172 1.328 . S
C168 C174 1.516 . S
C169 C170 1.302 . S
C169 C173 1.325 1_455 S
C170 C169 1.302 . S
C170 C171 1.371 . S
C170 H184 0.930 . S
C171 C168 1.344 1_455 S
C171 C170 1.371 . S
C171 H185 0.931 . S
C172 C168 1.328 . S
C172 C173 1.433 . S
C172 H186 0.931 . S
C173 C169 1.325 1_655 S
C173 C172 1.433 . S
C173 H187 0.933 . S
C174 Dy152 2.738 . S
C174 O157 1.255 1_655 S
C174 O158 1.249 . S
C174 C168 1.516 . S
C175 O159 1.254 1_545 S
C175 O160 1.257 . S
C176 O161 1.266 . S
C176 O162 1.236 . S
C177 C180 1.344 1_455 S
C177 C181 1.328 . S
C177 C183 1.516 1_554 S
C178 C179 1.304 1_455 S
C178 C182 1.323 . S
C179 C178 1.304 1_655 S
C179 C180 1.371 . S
C179 H188 0.930 . S
C180 C177 1.344 1_655 S
C180 C179 1.371 . S
C180 H189 0.931 . S
C181 C177 1.328 . S
C181 C182 1.433 . S
C181 H190 0.931 . S
C182 C178 1.323 . S
C182 C181 1.433 . S
C182 H191 0.933 . S
C183 Dy153 2.738 . S
C183 O163 1.231 1_455 S
C183 O164 1.249 . S
C183 C177 1.516 1_556 S
H184 C170 0.930 . S
H185 C171 0.931 . S
H186 C172 0.931 . S
H187 C173 0.933 . S
H188 C179 0.930 . S
H189 C180 0.931 . S
H190 C181 0.931 . S
H191 C182 0.933 . S
Dy192 O195 2.307 . S
Dy192 O197 2.395 1_565 S
Dy192 O198 2.379 . S
Dy192 O200 2.339 . S
Dy192 O202 2.298 . S
Dy192 O206 2.275 1_565 S
Dy192 C214 2.738 . S
Dy193 O196 2.298 . S
Dy193 O199 2.275 1_545 S
Dy193 O201 2.307 . S
Dy193 O203 2.395 1_545 S
Dy193 O204 2.379 . S
Dy193 O207 2.339 . S
Dy193 C223 2.738 . S
C194 O206 1.254 . S
C194 O207 1.257 . S
O195 Dy192 2.307 . S
O195 C205 1.266 . S
O196 Dy193 2.298 . S
O196 C205 1.236 1_545 S
O197 Dy192 2.395 1_545 S
O197 C214 1.255 1_545 S
O198 Dy192 2.379 . S
O198 C214 1.249 . S
O199 Dy193 2.275 1_565 S
O199 C215 1.254 . S
O200 Dy192 2.339 . S
O200 C215 1.257 . S
O201 Dy193 2.307 . S
O201 C216 1.266 . S
O202 Dy192 2.298 . S
O202 C216 1.236 1_565 S
O203 Dy193 2.395 1_565 S
O203 C223 1.255 1_565 S
O204 Dy193 2.379 . S
O204 C223 1.249 . S
C205 O195 1.266 . S
C205 O196 1.236 1_565 S
O206 Dy192 2.275 1_545 S
O206 C194 1.254 . S
O207 Dy193 2.339 . S
O207 C194 1.257 . S
C208 C211 1.344 1_565 S
C208 C212 1.328 . S
C208 C214 1.516 . S
C209 C210 1.304 1_565 S
C209 C213 1.323 . S
C210 C209 1.304 1_545 S
C210 C211 1.371 . S
C210 H224 0.930 . S
C211 C208 1.344 1_545 S
C211 C210 1.371 . S
C211 H225 0.931 . S
C212 C208 1.328 . S
C212 C213 1.433 . S
C212 H226 0.931 . S
C213 C209 1.323 . S
C213 C212 1.433 . S
C213 H227 0.933 . S
C214 Dy192 2.738 . S
C214 O197 1.255 1_565 S
C214 O198 1.249 . S
C214 C208 1.516 . S
C215 O199 1.254 . S
C215 O200 1.257 . S
C216 O201 1.266 . S
C216 O202 1.236 1_545 S
C217 C220 1.344 1_545 S
C217 C221 1.328 . S
C217 C223 1.516 1_554 S
C218 C219 1.304 1_545 S
C218 C222 1.323 . S
C219 C218 1.304 1_565 S
C219 C220 1.371 . S
C219 H228 0.930 . S
C220 C217 1.344 1_565 S
C220 C219 1.371 . S
C220 H229 0.931 1_554 S
C221 C217 1.328 . S
C221 C222 1.433 . S
C221 H230 0.931 . S
C222 C218 1.323 . S
C222 C221 1.433 . S
C222 H231 0.933 . S
C223 Dy193 2.738 . S
C223 O203 1.255 1_545 S
C223 O204 1.249 . S
C223 C217 1.516 1_556 S
H224 C210 0.930 . S
H225 C211 0.931 . S
H226 C212 0.931 . S
H227 C213 0.933 . S
H228 C219 0.930 . S
H229 C220 0.931 1_556 S
H230 C221 0.931 . S
H231 C222 0.933 . S
Dy232 O235 2.307 . S
Dy232 O237 2.395 . S
Dy232 O238 2.379 . S
Dy232 O240 2.339 . S
Dy232 O242 2.298 . S
Dy232 O246 2.275 . S
Dy232 C254 2.738 . S
Dy233 O236 2.298 . S
Dy233 O239 2.275 . S
Dy233 O241 2.307 . S
Dy233 O243 2.395 . S
Dy233 O244 2.379 . S
Dy233 O247 2.339 . S
Dy233 C263 2.738 . S
C234 O246 1.254 . S
C234 O247 1.257 . S
O235 Dy232 2.307 . S
O235 C245 1.266 . S
O236 Dy233 2.298 . S
O236 C245 1.236 . S
O237 Dy232 2.395 . S
O237 C254 1.255 . S
O238 Dy232 2.379 . S
O238 C254 1.249 . S
O239 Dy233 2.275 . S
O239 C255 1.254 . S
O240 Dy232 2.339 . S
O240 C255 1.257 . S
O241 Dy233 2.307 . S
O241 C256 1.266 . S
O242 Dy232 2.298 . S
O242 C256 1.236 . S
O243 Dy233 2.395 . S
O243 C263 1.255 . S
O244 Dy233 2.379 . S
O244 C263 1.249 . S
C245 O235 1.266 . S
C245 O236 1.236 . S
O246 Dy232 2.275 . S
O246 C234 1.254 . S
O247 Dy233 2.339 . S
O247 C234 1.257 . S
C248 C251 1.344 1_556 S
C248 C252 1.328 . S
C248 C254 1.516 . S
C249 C250 1.304 . S
C249 C253 1.323 1_554 S
C250 C249 1.304 . S
C250 C251 1.371 . S
C250 H264 0.930 . S
C251 C248 1.344 1_554 S
C251 C250 1.371 . S
C251 H265 0.931 . S
C252 C248 1.328 . S
C252 C253 1.433 . S
C252 H266 0.931 . S
C253 C249 1.323 1_556 S
C253 C252 1.433 . S
C253 H267 0.933 . S
C254 Dy232 2.738 . S
C254 O237 1.255 . S
C254 O238 1.249 . S
C254 C248 1.516 . S
C255 O239 1.254 . S
C255 O240 1.257 . S
C256 O241 1.266 . S
C256 O242 1.236 . S
C257 C260 1.344 . S
C257 C261 1.328 . S
C257 C263 1.516 . S
C258 C259 1.304 . S
C258 C262 1.323 . S
C259 C258 1.304 . S
C259 C260 1.371 . S
C259 H268 0.930 . S
C260 C257 1.344 . S
C260 C259 1.371 . S
C260 H269 0.931 . S
C261 C257 1.328 . S
C261 C262 1.433 . S
C261 H270 0.931 . S
C262 C258 1.323 . S
C262 C261 1.433 . S
C262 H271 0.933 . S
C263 Dy233 2.738 . S
C263 O243 1.255 . S
C263 O244 1.249 . S
C263 C257 1.516 . S
H264 C250 0.930 . S
H265 C251 0.931 . S
H266 C252 0.931 . S
H267 C253 0.933 . S
H268 C259 0.930 . S
H269 C260 0.931 . S
H270 C261 0.931 . S
H271 C262 0.933 . S
Dy272 O275 2.307 1_455 S
Dy272 O277 2.395 . S
Dy272 O278 2.379 . S
Dy272 O280 2.339 . S
Dy272 O282 2.298 . S
Dy272 O286 2.275 . S
Dy272 C294 2.738 . S
Dy273 O276 2.298 . S
Dy273 O279 2.275 1_655 S
Dy273 O281 2.307 1_655 S
Dy273 O283 2.395 . S
Dy273 O284 2.379 . S
Dy273 O287 2.339 . S
Dy273 C303 2.738 1_556 S
C274 O286 1.254 . S
C274 O287 1.257 1_455 S
O275 Dy272 2.307 1_655 S
O275 C285 1.266 . S
O276 Dy273 2.298 . S
O276 C285 1.236 . S
O277 Dy272 2.395 . S
O277 C294 1.255 . S
O278 Dy272 2.379 . S
O278 C294 1.249 . S
O279 Dy273 2.275 1_455 S
O279 C295 1.254 . S
O280 Dy272 2.339 . S
O280 C295 1.257 . S
O281 Dy273 2.307 1_455 S
O281 C296 1.266 . S
O282 Dy272 2.298 . S
O282 C296 1.236 . S
O283 Dy273 2.395 . S
O283 C303 1.255 1_556 S
O284 Dy273 2.379 . S
O284 C303 1.249 1_556 S
C285 O275 1.266 . S
C285 O276 1.236 . S
O286 Dy272 2.275 . S
O286 C274 1.254 . S
O287 Dy273 2.339 . S
O287 C274 1.257 1_655 S
C288 C291 1.344 . S
C288 C292 1.328 . S
C288 C294 1.516 . S
C289 C290 1.304 . S
C289 C293 1.323 . S
C290 C289 1.304 . S
C290 C291 1.371 . S
C290 H304 0.930 . S
C291 C288 1.344 . S
C291 C290 1.371 . S
C291 H305 0.931 . S
C292 C288 1.328 . S
C292 C293 1.433 . S
C292 H306 0.931 . S
C293 C289 1.323 . S
C293 C292 1.433 . S
C293 H307 0.933 . S
C294 Dy272 2.738 . S
C294 O277 1.255 . S
C294 O278 1.249 . S
C294 C288 1.516 . S
C295 O279 1.254 . S
C295 O280 1.257 . S
C296 O281 1.266 . S
C296 O282 1.236 . S
C297 C300 1.344 . S
C297 C301 1.328 . S
C297 C303 1.516 . S
C298 C299 1.304 . S
C298 C302 1.323 . S
C299 C298 1.304 . S
C299 C300 1.371 . S
C299 H308 0.930 . S
C300 C297 1.344 . S
C300 C299 1.371 . S
C300 H309 0.931 . S
C301 C297 1.328 . S
C301 C302 1.433 . S
C301 H310 0.931 . S
C302 C298 1.323 . S
C302 C301 1.433 . S
C302 H311 0.933 . S
C303 Dy273 2.738 1_554 S
C303 O283 1.255 1_554 S
C303 O284 1.249 1_554 S
C303 C297 1.516 . S
H304 C290 0.930 . S
H305 C291 0.931 . S
H306 C292 0.931 . S
H307 C293 0.933 . S
H308 C299 0.930 . S
H309 C300 0.931 . S
H310 C301 0.931 . S
H311 C302 0.933 . S
C312 C313 1.391 1_565 S
C312 C314 1.394 . S
C312 H328 0.931 . S
C313 C312 1.391 1_545 S
C313 C317 1.376 . S
C314 C312 1.394 . S
C314 C315 1.369 1_565 S
C314 C318 1.531 . S
C315 C314 1.369 1_545 S
C315 C316 1.410 . S
C315 C323 1.503 . S
C316 C315 1.410 . S
C316 C317 1.392 . S
C316 C319 1.511 . S
C317 C313 1.376 . S
C317 C316 1.392 . S
C317 H329 0.929 . S
C318 C314 1.531 . S
C318 H330 0.960 . S
C318 H331 0.962 . S
C318 H332 0.960 . S
C319 C316 1.511 . S
C319 H333 0.961 . S
C319 H334 0.961 . S
C319 H335 0.961 . S
C320 C321 1.370 1_565 S
C320 C322 1.363 . S
C320 H336 0.931 . S
C321 C320 1.370 1_545 S
C321 C325 1.408 . S
C322 C320 1.363 . S
C322 C323 1.370 1_565 S
C322 C326 1.524 . S
C323 C315 1.503 . S
C323 C322 1.370 1_545 S
C323 C324 1.403 . S
C324 C323 1.403 . S
C324 C325 1.404 . S
C324 C327 1.539 . S
C325 C321 1.408 . S
C325 C324 1.404 . S
C325 H337 0.930 . S
C326 C322 1.524 . S
C326 H338 0.956 . S
C326 H339 0.961 . S
C326 H340 0.961 . S
C327 C324 1.539 . S
C327 H341 0.958 . S
C327 H342 0.961 . S
C327 H343 0.960 . S
H328 C312 0.931 . S
H329 C317 0.929 . S
H330 C318 0.960 . S
H331 C318 0.962 . S
H332 C318 0.960 . S
H333 C319 0.961 . S
H334 C319 0.961 . S
H335 C319 0.961 . S
H336 C320 0.931 . S
H337 C325 0.930 . S
H338 C326 0.956 . S
H339 C326 0.961 . S
H340 C326 0.961 . S
H341 C327 0.958 . S
H342 C327 0.961 . S
H343 C327 0.960 . S
C344 C345 1.391 . S
C344 C346 1.394 . S
C344 H360 0.931 . S
C345 C344 1.391 . S
C345 C349 1.376 . S
C346 C344 1.394 . S
C346 C347 1.369 . S
C346 C350 1.531 . S
C347 C346 1.369 . S
C347 C348 1.410 . S
C347 C355 1.503 . S
C348 C347 1.410 . S
C348 C349 1.392 . S
C348 C351 1.511 . S
C349 C345 1.376 . S
C349 C348 1.392 . S
C349 H361 0.929 . S
C350 C346 1.531 . S
C350 H362 0.960 . S
C350 H363 0.962 . S
C350 H364 0.960 . S
C351 C348 1.511 . S
C351 H365 0.961 . S
C351 H366 0.961 . S
C351 H367 0.961 . S
C352 C353 1.370 . S
C352 C354 1.363 . S
C352 H368 0.931 . S
C353 C352 1.370 . S
C353 C357 1.408 . S
C354 C352 1.363 . S
C354 C355 1.370 . S
C354 C358 1.524 . S
C355 C347 1.503 . S
C355 C354 1.370 . S
C355 C356 1.403 . S
C356 C355 1.403 . S
C356 C357 1.404 . S
C356 C359 1.539 . S
C357 C353 1.408 . S
C357 C356 1.404 . S
C357 H369 0.930 . S
C358 C354 1.524 . S
C358 H370 0.956 . S
C358 H371 0.961 . S
C358 H372 0.961 . S
C359 C356 1.539 . S
C359 H373 0.958 . S
C359 H374 0.961 . S
C359 H375 0.960 . S
H360 C344 0.931 . S
H361 C349 0.929 . S
H362 C350 0.960 . S
H363 C350 0.962 . S
H364 C350 0.960 . S
H365 C351 0.961 . S
H366 C351 0.961 . S
H367 C351 0.961 . S
H368 C352 0.931 . S
H369 C357 0.930 . S
H370 C358 0.956 . S
H371 C358 0.961 . S
H372 C358 0.961 . S
H373 C359 0.958 . S
H374 C359 0.961 . S
H375 C359 0.960 . S
C376 C377 1.391 . S
C376 C378 1.394 . S
C376 H392 0.931 . S
C377 C376 1.391 . S
C377 C381 1.376 . S
C378 C376 1.394 . S
C378 C379 1.369 . S
C378 C382 1.531 . S
C379 C378 1.369 . S
C379 C380 1.410 . S
C379 C387 1.503 . S
C380 C379 1.410 . S
C380 C381 1.392 . S
C380 C383 1.511 . S
C381 C377 1.376 . S
C381 C380 1.392 . S
C381 H393 0.929 . S
C382 C378 1.531 . S
C382 H394 0.960 . S
C382 H395 0.962 . S
C382 H396 0.960 . S
C383 C380 1.511 . S
C383 H397 0.961 . S
C383 H398 0.961 . S
C383 H399 0.961 . S
C384 C385 1.370 . S
C384 C386 1.363 . S
C384 H400 0.931 . S
C385 C384 1.370 . S
C385 C389 1.408 . S
C386 C384 1.363 . S
C386 C387 1.370 . S
C386 C390 1.524 . S
C387 C379 1.503 . S
C387 C386 1.370 . S
C387 C388 1.403 . S
C388 C387 1.403 . S
C388 C389 1.404 . S
C388 C391 1.539 . S
C389 C385 1.408 . S
C389 C388 1.404 . S
C389 H401 0.930 . S
C390 C386 1.524 . S
C390 H402 0.956 . S
C390 H403 0.961 . S
C390 H404 0.961 . S
C391 C388 1.539 . S
C391 H405 0.958 . S
C391 H406 0.961 . S
C391 H407 0.960 . S
H392 C376 0.931 . S
H393 C381 0.929 . S
H394 C382 0.960 . S
H395 C382 0.962 . S
H396 C382 0.960 . S
H397 C383 0.961 . S
H398 C383 0.961 . S
H399 C383 0.961 . S
H400 C384 0.931 . S
H401 C389 0.930 . S
H402 C390 0.956 . S
H403 C390 0.961 . S
H404 C390 0.961 . S
H405 C391 0.958 . S
H406 C391 0.961 . S
H407 C391 0.960 . S
C408 C409 1.391 . S
C408 C410 1.394 . S
C408 H424 0.931 . S
C409 C408 1.391 . S
C409 C413 1.383 . S
C410 C408 1.394 . S
C410 C411 1.369 . S
C410 C414 1.531 . S
C411 C410 1.369 . S
C411 C412 1.410 1_455 S
C411 C419 1.503 . S
C412 C411 1.410 1_655 S
C412 C413 1.393 1_655 S
C412 C415 1.511 . S
C413 C409 1.383 . S
C413 C412 1.393 1_455 S
C413 H425 0.921 1_455 S
C414 C410 1.531 . S
C414 H426 0.960 . S
C414 H427 0.962 . S
C414 H428 0.960 . S
C415 C412 1.511 . S
C415 H429 0.961 . S
C415 H430 0.961 . S
C415 H431 0.961 . S
C416 C417 1.370 . S
C416 C418 1.363 . S
C416 H432 0.931 . S
C417 C416 1.370 . S
C417 C421 1.380 1_455 S
C418 C416 1.363 . S
C418 C419 1.370 . S
C418 C422 1.524 . S
C419 C411 1.503 . S
C419 C418 1.370 . S
C419 C420 1.402 1_455 S
C420 C419 1.402 1_655 S
C420 C421 1.411 . S
C420 C423 1.540 . S
C421 C417 1.380 1_655 S
C421 C420 1.411 . S
C421 H433 0.952 . S
C422 C418 1.524 . S
C422 H434 0.956 . S
C422 H435 0.961 . S
C422 H436 0.961 . S
C423 C420 1.540 . S
C423 H437 0.958 . S
C423 H438 0.961 . S
C423 H439 0.960 . S
H424 C408 0.931 . S
H425 C413 0.921 1_655 S
H426 C414 0.960 . S
H427 C414 0.962 . S
H428 C414 0.960 . S
H429 C415 0.961 . S
H430 C415 0.961 . S
H431 C415 0.961 . S
H432 C416 0.931 . S
H433 C421 0.952 . S
H434 C422 0.956 . S
H435 C422 0.961 . S
H436 C422 0.961 . S
H437 C423 0.958 . S
H438 C423 0.961 . S
H439 C423 0.960 . S
C440 C441 1.391 . S
C440 C442 1.394 . S
C440 H456 0.931 . S
C441 C440 1.391 . S
C441 C445 1.376 . S
C442 C440 1.394 . S
C442 C443 1.369 . S
C442 C446 1.531 1_554 S
C443 C442 1.369 . S
C443 C444 1.410 . S
C443 C451 1.503 . S
C444 C443 1.410 . S
C444 C445 1.392 . S
C444 C447 1.511 . S
C445 C441 1.376 . S
C445 C444 1.392 . S
C445 H457 0.929 . S
C446 C442 1.531 1_556 S
C446 H458 0.960 . S
C446 H459 0.962 1_545 S
C446 H460 0.960 . S
C447 C444 1.511 . S
C447 H461 0.961 1_545 S
C447 H462 0.961 1_545 S
C447 H463 0.961 . S
C448 C449 1.346 1_565 S
C448 C450 1.363 1_556 S
C448 H464 0.931 . S
C449 C448 1.346 1_545 S
C449 C453 1.433 . S
C450 C448 1.363 1_554 S
C450 C451 1.370 1_565 S
C450 C454 1.524 . S
C451 C443 1.503 . S
C451 C450 1.370 1_545 S
C451 C452 1.403 . S
C452 C451 1.403 . S
C452 C453 1.404 1_554 S
C452 C455 1.539 . S
C453 C449 1.433 . S
C453 C452 1.404 1_556 S
C453 H465 0.930 . S
C454 C450 1.524 . S
C454 H466 0.956 . S
C454 H467 0.961 . S
C454 H468 0.961 . S
C455 C452 1.539 . S
C455 H469 0.958 . S
C455 H470 0.961 . S
C455 H471 0.960 . S
H456 C440 0.931 . S
H457 C445 0.929 . S
H458 C446 0.960 . S
H459 C446 0.962 1_565 S
H460 C446 0.960 . S
H461 C447 0.961 1_565 S
H462 C447 0.961 1_565 S
H463 C447 0.961 . S
H464 C448 0.931 . S
H465 C453 0.930 . S
H466 C454 0.956 . S
H467 C454 0.961 . S
H468 C454 0.961 . S
H469 C455 0.958 . S
H470 C455 0.961 . S
H471 C455 0.960 . S
C472 C473 1.391 . S
C472 C474 1.394 . S
C472 H488 0.931 . S
C473 C472 1.391 . S
C473 C477 1.376 . S
C474 C472 1.394 . S
C474 C475 1.369 . S
C474 C478 1.531 . S
C475 C474 1.369 . S
C475 C476 1.410 1_554 S
C475 C483 1.503 1_554 S
C476 C475 1.410 1_556 S
C476 C477 1.392 1_556 S
C476 C479 1.511 . S
C477 C473 1.376 . S
C477 C476 1.392 1_554 S
C477 H489 0.929 1_554 S
C478 C474 1.531 . S
C478 H490 0.960 . S
C478 H491 0.962 . S
C478 H492 0.960 . S
C479 C476 1.511 . S
C479 H493 0.961 . S
C479 H494 0.961 . S
C479 H495 0.961 . S
C480 C481 1.370 . S
C480 C482 1.363 . S
C480 H496 0.931 . S
C481 C480 1.370 . S
C481 C485 1.408 . S
C482 C480 1.363 . S
C482 C483 1.370 . S
C482 C486 1.524 . S
C483 C475 1.503 1_556 S
C483 C482 1.370 . S
C483 C484 1.403 . S
C484 C483 1.403 . S
C484 C485 1.404 . S
C484 C487 1.538 1_556 S
C485 C481 1.408 . S
C485 C484 1.404 . S
C485 H497 0.930 . S
C486 C482 1.524 . S
C486 H498 0.956 . S
C486 H499 0.961 . S
C486 H500 0.961 . S
C487 C484 1.538 1_554 S
C487 H501 0.958 . S
C487 H502 0.961 . S
C487 H503 0.960 . S
H488 C472 0.931 . S
H489 C477 0.929 1_556 S
H490 C478 0.960 . S
H491 C478 0.962 . S
H492 C478 0.960 . S
H493 C479 0.961 . S
H494 C479 0.961 . S
H495 C479 0.961 . S
H496 C480 0.931 . S
H497 C485 0.930 . S
H498 C486 0.956 . S
H499 C486 0.961 . S
H500 C486 0.961 . S
H501 C487 0.958 . S
H502 C487 0.961 . S
H503 C487 0.960 . S
C504 C505 1.391 . S
C504 C506 1.394 . S
C504 H520 0.931 . S
C505 C504 1.391 . S
C505 C509 1.376 . S
C506 C504 1.394 . S
C506 C507 1.369 . S
C506 C510 1.531 . S
C507 C506 1.369 . S
C507 C508 1.410 . S
C507 C515 1.503 . S
C508 C507 1.410 . S
C508 C509 1.392 . S
C508 C511 1.511 . S
C509 C505 1.376 . S
C509 C508 1.392 . S
C509 H521 0.929 . S
C510 C506 1.531 . S
C510 H522 0.960 . S
C510 H523 0.962 . S
C510 H524 0.960 . S
C511 C508 1.511 . S
C511 H525 0.961 . S
C511 H526 0.961 . S
C511 H527 0.961 . S
C512 C513 1.370 . S
C512 C514 1.363 . S
C512 H528 0.931 . S
C513 C512 1.370 . S
C513 C517 1.408 . S
C514 C512 1.363 . S
C514 C515 1.370 . S
C514 C518 1.524 . S
C515 C507 1.503 . S
C515 C514 1.370 . S
C515 C516 1.403 . S
C516 C515 1.403 . S
C516 C517 1.404 . S
C516 C519 1.539 . S
C517 C513 1.408 . S
C517 C516 1.404 . S
C517 H529 0.930 . S
C518 C514 1.524 . S
C518 H530 0.956 . S
C518 H531 0.961 . S
C518 H532 0.961 . S
C519 C516 1.539 . S
C519 H533 0.958 . S
C519 H534 0.961 . S
C519 H535 0.960 . S
H520 C504 0.931 . S
H521 C509 0.929 . S
H522 C510 0.960 . S
H523 C510 0.962 . S
H524 C510 0.960 . S
H525 C511 0.961 . S
H526 C511 0.961 . S
H527 C511 0.961 . S
H528 C512 0.931 . S
H529 C517 0.930 . S
H530 C518 0.956 . S
H531 C518 0.961 . S
H532 C518 0.961 . S
H533 C519 0.958 . S
H534 C519 0.961 . S
H535 C519 0.960 . S
C536 C537 1.391 1_455 S
C536 C538 1.394 . S
C536 H552 0.931 . S
C537 C536 1.391 1_655 S
C537 C541 1.376 . S
C538 C536 1.394 . S
C538 C539 1.369 . S
C538 C542 1.531 . S
C539 C538 1.369 . S
C539 C540 1.410 1_455 S
C539 C547 1.503 . S
C540 C539 1.410 1_655 S
C540 C541 1.392 . S
C540 C543 1.511 . S
C541 C537 1.376 . S
C541 C540 1.392 . S
C541 H553 0.929 . S
C542 C538 1.531 . S
C542 H554 0.960 . S
C542 H555 0.962 . S
C542 H556 0.960 . S
C543 C540 1.511 . S
C543 H557 0.961 . S
C543 H558 0.961 . S
C543 H559 0.961 1_655 S
C544 C545 1.370 1_655 S
C544 C546 1.363 1_556 S
C544 H560 0.931 . S
C545 C544 1.370 1_455 S
C545 C549 1.408 . S
C546 C544 1.363 1_554 S
C546 C547 1.370 1_655 S
C546 C550 1.524 . S
C547 C539 1.503 . S
C547 C546 1.370 1_455 S
C547 C548 1.403 . S
C548 C547 1.403 . S
C548 C549 1.404 1_554 S
C548 C551 1.539 . S
C549 C545 1.408 . S
C549 C548 1.404 1_556 S
C549 H561 0.930 . S
C550 C546 1.524 . S
C550 H562 0.956 . S
C550 H563 0.961 . S
C550 H564 0.961 . S
C551 C548 1.539 . S
C551 H565 0.958 . S
C551 H566 0.961 . S
C551 H567 0.960 . S
H552 C536 0.931 . S
H553 C541 0.929 . S
H554 C542 0.960 . S
H555 C542 0.962 . S
H556 C542 0.960 . S
H557 C543 0.961 . S
H558 C543 0.961 . S
H559 C543 0.961 1_455 S
H560 C544 0.931 . S
H561 C549 0.930 . S
H562 C550 0.956 . S
H563 C550 0.961 . S
H564 C550 0.961 . S
H565 C551 0.958 . S
H566 C551 0.961 . S
H567 C551 0.960 . S
C568 C569 1.391 . S
C568 C570 1.394 . S
C568 H584 0.931 . S
C569 C568 1.391 . S
C569 C573 1.376 . S
C570 C568 1.394 . S
C570 C571 1.369 . S
C570 C574 1.531 . S
C571 C570 1.369 . S
C571 C572 1.410 . S
C571 C579 1.503 . S
C572 C571 1.410 . S
C572 C573 1.392 . S
C572 C575 1.511 . S
C573 C569 1.376 . S
C573 C572 1.392 . S
C573 H585 0.929 . S
C574 C570 1.531 . S
C574 H586 0.960 . S
C574 H587 0.962 1_455 S
C574 H588 0.960 . S
C575 C572 1.511 . S
C575 H589 0.961 . S
C575 H590 0.961 . S
C575 H591 0.961 . S
C576 C577 1.370 . S
C576 C578 1.363 . S
C576 H592 0.931 . S
C577 C576 1.370 . S
C577 C581 1.408 1_655 S
C578 C576 1.363 . S
C578 C579 1.370 1_655 S
C578 C582 1.524 . S
C579 C571 1.503 . S
C579 C578 1.370 1_455 S
C579 C580 1.403 . S
C580 C579 1.403 . S
C580 C581 1.404 . S
C580 C583 1.539 . S
C581 C577 1.408 1_455 S
C581 C580 1.404 . S
C581 H593 0.930 . S
C582 C578 1.524 . S
C582 H594 0.956 . S
C582 H595 0.961 . S
C582 H596 0.961 . S
C583 C580 1.539 . S
C583 H597 0.958 . S
C583 H598 0.961 . S
C583 H599 0.960 . S
H584 C568 0.931 . S
H585 C573 0.929 . S
H586 C574 0.960 . S
H587 C574 0.962 1_655 S
H588 C574 0.960 . S
H589 C575 0.961 . S
H590 C575 0.961 . S
H591 C575 0.961 . S
H592 C576 0.931 . S
H593 C581 0.930 . S
H594 C582 0.956 . S
H595 C582 0.961 . S
H596 C582 0.961 . S
H597 C583 0.958 . S
H598 C583 0.961 . S
H599 C583 0.960 . S
C600 C601 1.391 . S
C600 C602 1.394 . S
C600 H616 0.931 . S
C601 C600 1.391 . S
C601 C605 1.376 . S
C602 C600 1.394 . S
C602 C603 1.382 . S
C602 C606 1.531 . S
C603 C602 1.382 . S
C603 C604 1.401 1_545 S
C603 C611 1.496 1_545 S
C604 C603 1.401 1_565 S
C604 C605 1.392 1_565 S
C604 C607 1.511 . S
C605 C601 1.376 . S
C605 C604 1.392 1_545 S
C605 H617 0.929 1_545 S
C606 C602 1.531 . S
C606 H618 0.960 . S
C606 H619 0.962 1_545 S
C606 H620 0.960 . S
C607 C604 1.511 . S
C607 H621 0.961 . S
C607 H622 0.961 . S
C607 H623 0.961 1_565 S
C608 C609 1.370 . S
C608 C610 1.363 . S
C608 H624 0.931 . S
C609 C608 1.370 . S
C609 C613 1.408 1_565 S
C610 C608 1.363 . S
C610 C611 1.370 . S
C610 C614 1.524 . S
C611 C603 1.496 1_565 S
C611 C610 1.370 . S
C611 C612 1.403 1_565 S
C612 C611 1.403 1_545 S
C612 C613 1.404 . S
C612 C615 1.539 . S
C613 C609 1.408 1_545 S
C613 C612 1.404 . S
C613 H625 0.930 . S
C614 C610 1.524 . S
C614 H626 0.956 . S
C614 H627 0.961 . S
C614 H628 0.961 . S
C615 C612 1.539 . S
C615 H629 0.958 . S
C615 H630 0.961 . S
C615 H631 0.960 . S
H616 C600 0.931 . S
H617 C605 0.929 1_565 S
H618 C606 0.960 . S
H619 C606 0.962 1_565 S
H620 C606 0.960 . S
H621 C607 0.961 . S
H622 C607 0.961 . S
H623 C607 0.961 1_545 S
H624 C608 0.931 . S
H625 C613 0.930 . S
H626 C614 0.956 . S
H627 C614 0.961 . S
H628 C614 0.961 . S
H629 C615 0.958 . S
H630 C615 0.961 . S
H631 C615 0.960 . S
C632 C633 1.391 . S
C632 C634 1.394 . S
C632 H648 0.931 . S
C633 C632 1.391 . S
C633 C637 1.376 . S
C634 C632 1.394 . S
C634 C635 1.369 . S
C634 C638 1.531 . S
C635 C634 1.369 . S
C635 C636 1.410 . S
C635 C643 1.503 . S
C636 C635 1.410 . S
C636 C637 1.392 . S
C636 C639 1.511 . S
C637 C633 1.376 . S
C637 C636 1.392 . S
C637 H649 0.929 . S
C638 C634 1.531 . S
C638 H650 0.960 . S
C638 H651 0.962 . S
C638 H652 0.960 . S
C639 C636 1.511 . S
C639 H653 0.961 . S
C639 H654 0.961 . S
C639 H655 0.961 . S
C640 C641 1.370 . S
C640 C642 1.363 . S
C640 H656 0.931 . S
C641 C640 1.370 . S
C641 C645 1.408 . S
C642 C640 1.363 . S
C642 C643 1.370 . S
C642 C646 1.524 . S
C643 C635 1.503 . S
C643 C642 1.370 . S
C643 C644 1.403 . S
C644 C643 1.403 . S
C644 C645 1.404 . S
C644 C647 1.539 . S
C645 C641 1.408 . S
C645 C644 1.404 . S
C645 H657 0.930 . S
C646 C642 1.524 . S
C646 H658 0.956 . S
C646 H659 0.961 . S
C646 H660 0.961 . S
C647 C644 1.539 . S
C647 H661 0.958 . S
C647 H662 0.961 . S
C647 H663 0.960 . S
H648 C632 0.931 . S
H649 C637 0.929 . S
H650 C638 0.960 . S
H651 C638 0.962 . S
H652 C638 0.960 . S
H653 C639 0.961 . S
H654 C639 0.961 . S
H655 C639 0.961 . S
H656 C640 0.931 . S
H657 C645 0.930 . S
H658 C646 0.956 . S
H659 C646 0.961 . S
H660 C646 0.961 . S
H661 C647 0.958 . S
H662 C647 0.961 . S
H663 C647 0.960 . S
C664 C665 1.391 . S
C664 C666 1.394 . S
C664 H680 0.931 . S
C665 C664 1.391 . S
C665 C669 1.376 . S
C666 C664 1.394 . S
C666 C667 1.369 . S
C666 C670 1.531 . S
C667 C666 1.369 . S
C667 C668 1.410 . S
C667 C675 1.503 . S
C668 C667 1.410 . S
C668 C669 1.392 . S
C668 C671 1.511 . S
C669 C665 1.376 . S
C669 C668 1.392 . S
C669 H681 0.929 . S
C670 C666 1.531 . S
C670 H682 0.960 . S
C670 H683 0.962 . S
C670 H684 0.960 . S
C671 C668 1.511 . S
C671 H685 0.961 . S
C671 H686 0.961 . S
C671 H687 0.961 . S
C672 C673 1.370 . S
C672 C674 1.363 . S
C672 H688 0.931 . S
C673 C672 1.370 . S
C673 C677 1.408 . S
C674 C672 1.363 . S
C674 C675 1.370 . S
C674 C678 1.524 . S
C675 C667 1.503 . S
C675 C674 1.370 . S
C675 C676 1.403 . S
C676 C675 1.403 . S
C676 C677 1.404 . S
C676 C679 1.539 . S
C677 C673 1.408 . S
C677 C676 1.404 . S
C677 H689 0.930 . S
C678 C674 1.524 . S
C678 H690 0.956 . S
C678 H691 0.961 . S
C678 H692 0.961 . S
C679 C676 1.539 . S
C679 H693 0.958 . S
C679 H694 0.961 . S
C679 H695 0.960 . S
H680 C664 0.931 . S
H681 C669 0.929 . S
H682 C670 0.960 . S
H683 C670 0.962 . S
H684 C670 0.960 . S
H685 C671 0.961 . S
H686 C671 0.961 . S
H687 C671 0.961 . S
H688 C672 0.931 . S
H689 C677 0.930 . S
H690 C678 0.956 . S
H691 C678 0.961 . S
H692 C678 0.961 . S
H693 C679 0.958 . S
H694 C679 0.961 . S
H695 C679 0.960 . S
C696 C697 1.391 1_455 S
C696 C698 1.394 . S
C696 H712 0.931 . S
C697 C696 1.391 1_655 S
C697 C701 1.376 . S
C698 C696 1.394 . S
C698 C699 1.370 . S
C698 C702 1.531 . S
C699 C698 1.370 . S
C699 C700 1.408 1_455 S
C699 C707 1.504 . S
C700 C699 1.408 1_655 S
C700 C701 1.392 . S
C700 C703 1.511 . S
C701 C697 1.376 . S
C701 C700 1.392 . S
C701 H713 0.929 . S
C702 C698 1.531 . S
C702 H714 0.960 . S
C702 H715 0.962 . S
C702 H716 0.960 . S
C703 C700 1.511 . S
C703 H717 0.961 . S
C703 H718 0.961 . S
C703 H719 0.961 . S
C704 C705 1.370 . S
C704 C706 1.363 . S
C704 H720 0.931 . S
C705 C704 1.370 . S
C705 C709 1.369 1_455 S
C706 C704 1.363 . S
C706 C707 1.370 . S
C706 C710 1.524 . S
C707 C699 1.504 . S
C707 C706 1.370 . S
C707 C708 1.403 1_455 S
C708 C707 1.403 1_655 S
C708 C709 1.414 . S
C708 C711 1.539 . S
C709 C705 1.369 1_655 S
C709 C708 1.414 . S
C709 H721 0.960 . S
C710 C706 1.524 . S
C710 H722 0.956 . S
C710 H723 0.961 . S
C710 H724 0.961 . S
C711 C708 1.539 . S
C711 H725 0.958 . S
C711 H726 0.961 . S
C711 H727 0.960 . S
H712 C696 0.931 . S
H713 C701 0.929 . S
H714 C702 0.960 . S
H715 C702 0.962 . S
H716 C702 0.960 . S
H717 C703 0.961 . S
H718 C703 0.961 . S
H719 C703 0.961 . S
H720 C704 0.931 . S
H721 C709 0.960 . S
H722 C710 0.956 . S
H723 C710 0.961 . S
H724 C710 0.961 . S
H725 C711 0.958 . S
H726 C711 0.961 . S
H727 C711 0.960 . S
C728 C729 1.391 . S
C728 C730 1.394 . S
C728 H744 0.931 . S
C729 C728 1.391 . S
C729 C733 1.376 1_545 S
C730 C728 1.394 . S
C730 C731 1.369 . S
C730 C734 1.531 . S
C731 C730 1.369 . S
C731 C732 1.410 . S
C731 C739 1.503 . S
C732 C731 1.410 . S
C732 C733 1.392 1_545 S
C732 C735 1.511 1_545 S
C733 C729 1.376 1_565 S
C733 C732 1.392 1_565 S
C733 H745 0.929 . S
C734 C730 1.531 . S
C734 H746 0.960 . S
C734 H747 0.962 . S
C734 H748 0.960 . S
C735 C732 1.511 1_565 S
C735 H749 0.961 . S
C735 H750 0.961 . S
C735 H751 0.961 1_565 S
C736 C737 1.370 1_565 S
C736 C738 1.363 . S
C736 H752 0.931 . S
C737 C736 1.370 1_545 S
C737 C741 1.408 . S
C738 C736 1.363 . S
C738 C739 1.370 1_565 S
C738 C742 1.524 . S
C739 C731 1.503 . S
C739 C738 1.370 1_545 S
C739 C740 1.403 . S
C740 C739 1.403 . S
C740 C741 1.404 . S
C740 C743 1.539 . S
C741 C737 1.408 . S
C741 C740 1.404 . S
C741 H753 0.930 . S
C742 C738 1.524 . S
C742 H754 0.956 . S
C742 H755 0.961 . S
C742 H756 0.961 . S
C743 C740 1.539 . S
C743 H757 0.958 . S
C743 H758 0.961 . S
C743 H759 0.960 . S
H744 C728 0.931 . S
H745 C733 0.929 . S
H746 C734 0.960 . S
H747 C734 0.962 . S
H748 C734 0.960 . S
H749 C735 0.961 . S
H750 C735 0.961 . S
H751 C735 0.961 1_545 S
H752 C736 0.931 . S
H753 C741 0.930 . S
H754 C742 0.956 . S
H755 C742 0.961 . S
H756 C742 0.961 . S
H757 C743 0.958 . S
H758 C743 0.961 . S
H759 C743 0.960 . S
C760 C761 1.391 . S
C760 C762 1.394 1_554 S
C760 H776 0.931 1_554 S
C761 C760 1.391 . S
C761 C765 1.376 . S
C762 C760 1.394 1_556 S
C762 C763 1.369 1_556 S
C762 C766 1.531 . S
C763 C762 1.369 1_554 S
C763 C764 1.410 . S
C763 C771 1.503 1_554 S
C764 C763 1.410 . S
C764 C765 1.392 . S
C764 C767 1.511 . S
C765 C761 1.376 . S
C765 C764 1.392 . S
C765 H777 0.929 . S
C766 C762 1.531 . S
C766 H778 0.960 . S
C766 H779 0.962 . S
C766 H780 0.960 . S
C767 C764 1.511 . S
C767 H781 0.961 . S
C767 H782 0.961 . S
C767 H783 0.961 . S
C768 C769 1.370 1_554 S
C768 C770 1.363 . S
C768 H784 0.931 . S
C769 C768 1.370 1_556 S
C769 C773 1.408 . S
C770 C768 1.363 . S
C770 C771 1.370 1_554 S
C770 C774 1.524 . S
C771 C763 1.503 1_556 S
C771 C770 1.370 1_556 S
C771 C772 1.403 . S
C772 C771 1.403 . S
C772 C773 1.404 . S
C772 C775 1.539 . S
C773 C769 1.408 . S
C773 C772 1.404 . S
C773 H785 0.930 . S
C774 C770 1.524 . S
C774 H786 0.956 . S
C774 H787 0.961 . S
C774 H788 0.961 . S
C775 C772 1.539 . S
C775 H789 0.958 . S
C775 H790 0.961 . S
C775 H791 0.960 . S
H776 C760 0.931 1_556 S
H777 C765 0.929 . S
H778 C766 0.960 . S
H779 C766 0.962 . S
H780 C766 0.960 . S
H781 C767 0.961 . S
H782 C767 0.961 . S
H783 C767 0.961 . S
H784 C768 0.931 . S
H785 C773 0.930 . S
H786 C774 0.956 . S
H787 C774 0.961 . S
H788 C774 0.961 . S
H789 C775 0.958 . S
H790 C775 0.961 . S
H791 C775 0.960 . S
C792 C793 1.391 . S
C792 C794 1.394 . S
C792 H808 0.931 . S
C793 C792 1.391 . S
C793 C797 1.376 . S
C794 C792 1.394 . S
C794 C795 1.369 . S
C794 C798 1.531 . S
C795 C794 1.369 . S
C795 C796 1.410 . S
C795 C803 1.503 . S
C796 C795 1.410 . S
C796 C797 1.392 . S
C796 C799 1.511 . S
C797 C793 1.376 . S
C797 C796 1.392 . S
C797 H809 0.929 . S
C798 C794 1.531 . S
C798 H810 0.960 . S
C798 H811 0.962 . S
C798 H812 0.960 . S
C799 C796 1.511 . S
C799 H813 0.961 . S
C799 H814 0.961 . S
C799 H815 0.961 . S
C800 C801 1.370 . S
C800 C802 1.363 . S
C800 H816 0.931 . S
C801 C800 1.370 . S
C801 C805 1.408 . S
C802 C800 1.363 . S
C802 C803 1.370 . S
C802 C806 1.524 . S
C803 C795 1.503 . S
C803 C802 1.370 . S
C803 C804 1.403 . S
C804 C803 1.403 . S
C804 C805 1.404 . S
C804 C807 1.539 . S
C805 C801 1.408 . S
C805 C804 1.404 . S
C805 H817 0.930 . S
C806 C802 1.524 . S
C806 H818 0.956 . S
C806 H819 0.961 . S
C806 H820 0.961 . S
C807 C804 1.539 . S
C807 H821 0.958 . S
C807 H822 0.961 . S
C807 H823 0.960 . S
H808 C792 0.931 . S
H809 C797 0.929 . S
H810 C798 0.960 . S
H811 C798 0.962 . S
H812 C798 0.960 . S
H813 C799 0.961 . S
H814 C799 0.961 . S
H815 C799 0.961 . S
H816 C800 0.931 . S
H817 C805 0.930 . S
H818 C806 0.956 . S
H819 C806 0.961 . S
H820 C806 0.961 . S
H821 C807 0.958 . S
H822 C807 0.961 . S
H823 C807 0.960 . S
C824 C825 1.391 1_554 S
C824 C826 1.394 . S
C824 H840 0.931 . S
C825 C824 1.391 1_556 S
C825 C829 1.376 . S
C826 C824 1.394 . S
C826 C827 1.369 1_554 S
C826 C830 1.531 . S
C827 C826 1.369 1_556 S
C827 C828 1.410 . S
C827 C835 1.503 . S
C828 C827 1.410 . S
C828 C829 1.392 . S
C828 C831 1.511 . S
C829 C825 1.376 . S
C829 C828 1.392 . S
C829 H841 0.929 . S
C830 C826 1.531 . S
C830 H842 0.960 1_455 S
C830 H843 0.962 . S
C830 H844 0.960 1_455 S
C831 C828 1.511 . S
C831 H845 0.961 . S
C831 H846 0.961 . S
C831 H847 0.961 . S
C832 C833 1.370 . S
C832 C834 1.363 . S
C832 H848 0.931 . S
C833 C832 1.370 . S
C833 C837 1.408 1_455 S
C834 C832 1.363 . S
C834 C835 1.370 . S
C834 C838 1.524 . S
C835 C827 1.503 . S
C835 C834 1.370 . S
C835 C836 1.403 1_455 S
C836 C835 1.403 1_655 S
C836 C837 1.404 . S
C836 C839 1.539 . S
C837 C833 1.408 1_655 S
C837 C836 1.404 . S
C837 H849 0.930 . S
C838 C834 1.524 . S
C838 H850 0.956 . S
C838 H851 0.961 . S
C838 H852 0.961 . S
C839 C836 1.539 . S
C839 H853 0.958 . S
C839 H854 0.961 . S
C839 H855 0.960 . S
H840 C824 0.931 . S
H841 C829 0.929 . S
H842 C830 0.960 1_655 S
H843 C830 0.962 . S
H844 C830 0.960 1_655 S
H845 C831 0.961 . S
H846 C831 0.961 . S
H847 C831 0.961 . S
H848 C832 0.931 . S
H849 C837 0.930 . S
H850 C838 0.956 . S
H851 C838 0.961 . S
H852 C838 0.961 . S
H853 C839 0.958 . S
H854 C839 0.961 . S
H855 C839 0.960 . S
C856 C857 1.391 1_556 S
C856 C858 1.394 . S
C856 H872 0.931 . S
C857 C856 1.391 1_554 S
C857 C861 1.376 . S
C858 C856 1.394 . S
C858 C859 1.369 1_556 S
C858 C862 1.531 . S
C859 C858 1.369 1_554 S
C859 C860 1.410 . S
C859 C867 1.503 1_554 S
C860 C859 1.410 . S
C860 C861 1.392 . S
C860 C863 1.511 . S
C861 C857 1.376 . S
C861 C860 1.392 . S
C861 H873 0.929 . S
C862 C858 1.531 . S
C862 H874 0.960 . S
C862 H875 0.962 . S
C862 H876 0.960 . S
C863 C860 1.511 . S
C863 H877 0.961 1_545 S
C863 H878 0.952 1_545 S
C863 H879 0.961 . S
C864 C865 1.370 1_565 S
C864 C866 1.363 . S
C864 H880 0.931 . S
C865 C864 1.370 1_545 S
C865 C869 1.408 . S
C866 C864 1.363 . S
C866 C867 1.370 1_565 S
C866 C870 1.524 . S
C867 C859 1.503 1_556 S
C867 C866 1.370 1_545 S
C867 C868 1.403 . S
C868 C867 1.403 . S
C868 C869 1.404 . S
C868 C871 1.539 1_556 S
C869 C865 1.408 . S
C869 C868 1.404 . S
C869 H881 0.930 . S
C870 C866 1.524 . S
C870 H882 0.956 . S
C870 H883 0.961 1_556 S
C870 H884 0.961 . S
C871 C868 1.539 1_554 S
C871 H885 0.958 1_554 S
C871 H886 0.961 . S
C871 H887 0.960 . S
H872 C856 0.931 . S
H873 C861 0.929 . S
H874 C862 0.960 . S
H875 C862 0.962 . S
H876 C862 0.960 . S
H877 C863 0.961 1_565 S
H878 C863 0.952 1_565 S
H879 C863 0.961 . S
H880 C864 0.931 . S
H881 C869 0.930 . S
H882 C870 0.956 . S
H883 C870 0.961 1_554 S
H884 C870 0.961 . S
H885 C871 0.958 1_556 S
H886 C871 0.961 . S
H887 C871 0.960 . S
C888 C889 1.391 . S
C888 C890 1.394 . S
C888 H904 0.931 . S
C889 C888 1.391 . S
C889 C893 1.376 . S
C890 C888 1.394 . S
C890 C891 1.369 . S
C890 C894 1.531 . S
C891 C890 1.369 . S
C891 C892 1.410 . S
C891 C899 1.503 . S
C892 C891 1.410 . S
C892 C893 1.392 . S
C892 C895 1.511 . S
C893 C889 1.376 . S
C893 C892 1.392 . S
C893 H905 0.929 . S
C894 C890 1.531 . S
C894 H906 0.960 . S
C894 H907 0.962 . S
C894 H908 0.960 . S
C895 C892 1.511 . S
C895 H909 0.961 . S
C895 H910 0.961 . S
C895 H911 0.961 . S
C896 C897 1.370 1_554 S
C896 C898 1.363 . S
C896 H912 0.931 . S
C897 C896 1.370 1_556 S
C897 C901 1.408 . S
C898 C896 1.363 . S
C898 C899 1.370 . S
C898 C902 1.524 . S
C899 C891 1.503 . S
C899 C898 1.370 . S
C899 C900 1.403 1_554 S
C900 C899 1.403 1_556 S
C900 C901 1.404 . S
C900 C903 1.539 . S
C901 C897 1.408 . S
C901 C900 1.404 . S
C901 H913 0.930 . S
C902 C898 1.524 . S
C902 H914 0.956 . S
C902 H915 0.961 . S
C902 H916 0.961 . S
C903 C900 1.539 . S
C903 H917 0.958 . S
C903 H918 0.961 . S
C903 H919 0.960 . S
H904 C888 0.931 . S
H905 C893 0.929 . S
H906 C894 0.960 . S
H907 C894 0.962 . S
H908 C894 0.960 . S
H909 C895 0.961 . S
H910 C895 0.961 . S
H911 C895 0.961 . S
H912 C896 0.931 . S
H913 C901 0.930 . S
H914 C902 0.956 . S
H915 C902 0.961 . S
H916 C902 0.961 . S
H917 C903 0.958 . S
H918 C903 0.961 . S
H919 C903 0.960 . S
C920 C921 1.391 . S
C920 C922 1.394 . S
C920 H936 0.931 . S
C921 C920 1.391 . S
C921 C925 1.376 . S
C922 C920 1.394 . S
C922 C923 1.369 . S
C922 C926 1.531 . S
C923 C922 1.369 . S
C923 C924 1.410 . S
C923 C931 1.503 . S
C924 C923 1.410 . S
C924 C925 1.392 . S
C924 C927 1.511 . S
C925 C921 1.376 . S
C925 C924 1.392 . S
C925 H937 0.929 . S
C926 C922 1.531 . S
C926 H938 0.960 . S
C926 H939 0.962 . S
C926 H940 0.960 1_556 S
C927 C924 1.511 . S
C927 H941 0.961 . S
C927 H942 0.961 . S
C927 H943 0.961 . S
C928 C929 1.370 . S
C928 C930 1.363 . S
C928 H944 0.931 . S
C929 C928 1.370 . S
C929 C933 1.408 . S
C930 C928 1.363 . S
C930 C931 1.370 . S
C930 C934 1.524 . S
C931 C923 1.503 . S
C931 C930 1.370 . S
C931 C932 1.403 . S
C932 C931 1.403 . S
C932 C933 1.404 . S
C932 C935 1.539 . S
C933 C929 1.408 . S
C933 C932 1.404 . S
C933 H945 0.930 . S
C934 C930 1.524 . S
C934 H946 0.956 . S
C934 H947 0.961 . S
C934 H948 0.961 . S
C935 C932 1.539 . S
C935 H949 0.958 1_556 S
C935 H950 0.961 . S
C935 H951 0.960 . S
H936 C920 0.931 . S
H937 C925 0.929 . S
H938 C926 0.960 . S
H939 C926 0.962 . S
H940 C926 0.960 1_554 S
H941 C927 0.961 . S
H942 C927 0.961 . S
H943 C927 0.961 . S
H944 C928 0.931 . S
H945 C933 0.930 . S
H946 C934 0.956 . S
H947 C934 0.961 . S
H948 C934 0.961 . S
H949 C935 0.958 1_554 S
H950 C935 0.961 . S
H951 C935 0.960 . S
C952 C953 1.391 1_455 S
C952 C954 1.394 . S
C952 H968 0.931 . S
C953 C952 1.391 1_655 S
C953 C957 1.376 . S
C954 C952 1.394 . S
C954 C955 1.393 . S
C954 C958 1.531 . S
C955 C954 1.393 . S
C955 C956 1.381 1_455 S
C955 C963 1.505 . S
C956 C955 1.381 1_655 S
C956 C957 1.392 . S
C956 C959 1.511 . S
C957 C953 1.376 . S
C957 C956 1.392 . S
C957 H969 0.929 . S
C958 C954 1.531 . S
C958 H970 0.960 . S
C958 H971 0.962 . S
C958 H972 0.960 . S
C959 C956 1.511 . S
C959 H973 0.961 . S
C959 H974 0.961 . S
C959 H975 0.961 . S
C960 C961 1.380 . S
C960 C962 1.363 . S
C960 H976 0.931 . S
C961 C960 1.380 . S
C961 C965 1.400 1_655 S
C962 C960 1.363 . S
C962 C963 1.367 1_655 S
C962 C966 1.524 . S
C963 C955 1.505 . S
C963 C962 1.367 1_455 S
C963 C964 1.407 . S
C964 C963 1.407 . S
C964 C965 1.404 . S
C964 C967 1.539 . S
C965 C961 1.400 1_455 S
C965 C964 1.404 . S
C965 H977 0.930 . S
C966 C962 1.524 . S
C966 H978 0.956 . S
C966 H979 0.961 . S
C966 H980 0.961 . S
C967 C964 1.539 . S
C967 H981 0.958 . S
C967 H982 0.961 . S
C967 H983 0.960 . S
H968 C952 0.931 . S
H969 C957 0.929 . S
H970 C958 0.960 . S
H971 C958 0.962 . S
H972 C958 0.960 . S
H973 C959 0.961 . S
H974 C959 0.961 . S
H975 C959 0.961 . S
H976 C960 0.931 . S
H977 C965 0.930 . S
H978 C966 0.956 . S
H979 C966 0.961 . S
H980 C966 0.961 . S
H981 C967 0.958 . S
H982 C967 0.961 . S
H983 C967 0.960 . S
C984 C985 1.396 . S
C984 C986 1.400 . S
C984 H1000 0.921 1_565 S
C985 C984 1.396 . S
C985 C989 1.376 . S
C986 C984 1.400 . S
C986 C987 1.369 . S
C986 C990 1.527 1_565 S
C987 C986 1.369 . S
C987 C988 1.410 . S
C987 C995 1.503 . S
C988 C987 1.410 . S
C988 C989 1.392 . S
C988 C991 1.511 . S
C989 C985 1.376 . S
C989 C988 1.392 . S
C989 H1001 0.929 . S
C990 C986 1.527 1_545 S
C990 H1002 0.941 1_545 S
C990 H1003 0.992 . S
C990 H1004 0.955 1_545 S
C991 C988 1.511 . S
C991 H1005 0.961 . S
C991 H1006 0.961 . S
C991 H1007 0.961 . S
C992 C993 1.370 1_545 S
C992 C994 1.363 . S
C992 H1008 0.931 . S
C993 C992 1.370 1_565 S
C993 C997 1.408 . S
C994 C992 1.363 . S
C994 C995 1.370 1_545 S
C994 C998 1.524 . S
C995 C987 1.503 . S
C995 C994 1.370 1_565 S
C995 C996 1.403 . S
C996 C995 1.403 . S
C996 C997 1.404 . S
C996 C999 1.539 . S
C997 C993 1.408 . S
C997 C996 1.404 . S
C997 H1009 0.930 . S
C998 C994 1.524 . S
C998 H1010 0.956 . S
C998 H1011 0.961 . S
C998 H1012 0.961 . S
C999 C996 1.539 . S
C999 H1013 0.958 . S
C999 H1014 0.961 . S
C999 H1015 0.960 . S
H1000 C984 0.921 1_545 S
H1001 C989 0.929 . S
H1002 C990 0.941 1_565 S
H1003 C990 0.992 . S
H1004 C990 0.955 1_565 S
H1005 C991 0.961 . S
H1006 C991 0.961 . S
H1007 C991 0.961 . S
H1008 C992 0.931 . S
H1009 C997 0.930 . S
H1010 C998 0.956 . S
H1011 C998 0.961 . S
H1012 C998 0.961 . S
H1013 C999 0.958 . S
H1014 C999 0.961 . S
H1015 C999 0.960 . S
C1016 C1017 1.391 . S
C1016 C1018 1.394 . S
C1016 H1032 0.931 . S
C1017 C1016 1.391 . S
C1017 C1021 1.376 . S
C1018 C1016 1.394 . S
C1018 C1019 1.369 . S
C1018 C1022 1.531 . S
C1019 C1018 1.369 . S
C1019 C1020 1.410 . S
C1019 C1027 1.503 . S
C1020 C1019 1.410 . S
C1020 C1021 1.392 . S
C1020 C1023 1.511 . S
C1021 C1017 1.376 . S
C1021 C1020 1.392 . S
C1021 H1033 0.929 . S
C1022 C1018 1.531 . S
C1022 H1034 0.960 . S
C1022 H1035 0.962 . S
C1022 H1036 0.960 . S
C1023 C1020 1.511 . S
C1023 H1037 0.961 . S
C1023 H1038 0.961 . S
C1023 H1039 0.961 . S
C1024 C1025 1.370 . S
C1024 C1026 1.363 . S
C1024 H1040 0.931 . S
C1025 C1024 1.370 . S
C1025 C1029 1.408 . S
C1026 C1024 1.363 . S
C1026 C1027 1.370 . S
C1026 C1030 1.524 . S
C1027 C1019 1.503 . S
C1027 C1026 1.370 . S
C1027 C1028 1.403 . S
C1028 C1027 1.403 . S
C1028 C1029 1.404 . S
C1028 C1031 1.539 . S
C1029 C1025 1.408 . S
C1029 C1028 1.404 . S
C1029 H1041 0.930 . S
C1030 C1026 1.524 . S
C1030 H1042 0.956 . S
C1030 H1043 0.961 . S
C1030 H1044 0.961 . S
C1031 C1028 1.539 . S
C1031 H1045 0.958 . S
C1031 H1046 0.961 . S
C1031 H1047 0.960 . S
H1032 C1016 0.931 . S
H1033 C1021 0.929 . S
H1034 C1022 0.960 . S
H1035 C1022 0.962 . S
H1036 C1022 0.960 . S
H1037 C1023 0.961 . S
H1038 C1023 0.961 . S
H1039 C1023 0.961 . S
H1040 C1024 0.931 . S
H1041 C1029 0.930 . S
H1042 C1030 0.956 . S
H1043 C1030 0.961 . S
H1044 C1030 0.961 . S
H1045 C1031 0.958 . S
H1046 C1031 0.961 . S
H1047 C1031 0.960 . S
C1048 C1049 1.391 . S
C1048 C1050 1.394 . S
C1048 H1064 0.931 . S
C1049 C1048 1.391 . S
C1049 C1053 1.376 . S
C1050 C1048 1.394 . S
C1050 C1051 1.369 . S
C1050 C1054 1.531 . S
C1051 C1050 1.369 . S
C1051 C1052 1.410 . S
C1051 C1059 1.503 . S
C1052 C1051 1.410 . S
C1052 C1053 1.392 . S
C1052 C1055 1.511 . S
C1053 C1049 1.376 . S
C1053 C1052 1.392 . S
C1053 H1065 0.929 . S
C1054 C1050 1.531 . S
C1054 H1066 0.960 . S
C1054 H1067 0.962 . S
C1054 H1068 0.960 . S
C1055 C1052 1.511 . S
C1055 H1069 0.961 . S
C1055 H1070 0.961 . S
C1055 H1071 0.961 . S
C1056 C1057 1.370 . S
C1056 C1058 1.363 . S
C1056 H1072 0.931 . S
C1057 C1056 1.370 . S
C1057 C1061 1.408 . S
C1058 C1056 1.363 . S
C1058 C1059 1.370 . S
C1058 C1062 1.524 . S
C1059 C1051 1.503 . S
C1059 C1058 1.370 . S
C1059 C1060 1.403 . S
C1060 C1059 1.403 . S
C1060 C1061 1.404 . S
C1060 C1063 1.539 . S
C1061 C1057 1.408 . S
C1061 C1060 1.404 . S
C1061 H1073 0.930 . S
C1062 C1058 1.524 . S
C1062 H1074 0.956 . S
C1062 H1075 0.961 . S
C1062 H1076 0.961 . S
C1063 C1060 1.539 . S
C1063 H1077 0.958 . S
C1063 H1078 0.961 . S
C1063 H1079 0.960 . S
H1064 C1048 0.931 . S
H1065 C1053 0.929 . S
H1066 C1054 0.960 . S
H1067 C1054 0.962 . S
H1068 C1054 0.960 . S
H1069 C1055 0.961 . S
H1070 C1055 0.961 . S
H1071 C1055 0.961 . S
H1072 C1056 0.931 . S
H1073 C1061 0.930 . S
H1074 C1062 0.956 . S
H1075 C1062 0.961 . S
H1076 C1062 0.961 . S
H1077 C1063 0.958 . S
H1078 C1063 0.961 . S
H1079 C1063 0.960 . S
C313 C125 2.024 1_545 S
C321 C154 2.060 1_545 S
C353 C194 2.076 . S
C345 C144 1.937 . S
C385 C258 1.876 . S
C377 C87 1.835 . S
C417 C274 1.626 . S
C409 C106 1.576 . S
C449 C175 2.056 . S
C441 C49 2.023 1_545 S
C473 C68 2.015 . S
C481 C215 2.086 . S
C505 C11 1.904 . S
C513 C249 1.879 . S
C537 C30 1.632 . S
C545 C295 1.623 . S
C577 C169 0.439 1_655 S
C569 C97 0.520 . S
C609 C209 0.785 . S
C601 C116 0.826 . S
C641 C245 0.837 . S
C633 C135 0.853 . S
C665 C78 0.535 . S
C673 C289 0.605 . S
C697 C21 0.565 . S
C705 C178 0.436 . S
C737 C218 0.812 . S
C729 C40 0.809 1_545 S
C769 C256 0.820 . S
C761 C59 0.883 . S
C793 C2 0.663 . S
C801 C298 0.568 . S
C825 C101 1.842 1_556 S
C833 C176 2.021 . S
C857 C120 1.899 . S
C865 C216 2.051 . S
C897 C234 1.576 . S
C889 C139 1.616 . S
C929 C296 2.463 . S
C921 C82 2.210 . S
C953 C25 1.803 . S
C961 C165 2.020 1_655 S
C993 C205 2.051 . S
C985 C44 1.893 . S
C1025 C255 1.594 . S
C1017 C63 1.567 . S
C1049 C6 2.203 . S
C1057 C285 2.469 . S
