# Generated by pormake.
# Topology hwx, (6,3)-cn, num edge types: 1
# Building blocks:
#     Node 0, Type 0, BuildingBlock: IZENUY_clean_sbu_0, # of connection points: 6
#     Node 1, Type 0, BuildingBlock: IZENUY_clean_sbu_0, # of connection points: 6
#     Node 2, Type 0, BuildingBlock: IZENUY_clean_sbu_0, # of connection points: 6
#     Node 3, Type 0, BuildingBlock: IZENUY_clean_sbu_0, # of connection points: 6
#     Node 4, Type 1, BuildingBlock: KAKCAD_clean_linker_0, # of connection points: 3
#     Node 5, Type 1, BuildingBlock: KAKCAD_clean_linker_0, # of connection points: 3
#     Node 6, Type 1, BuildingBlock: KAKCAD_clean_linker_0, # of connection points: 3
#     Node 7, Type 1, BuildingBlock: KAKCAD_clean_linker_0, # of connection points: 3
#     Node 8, Type 1, BuildingBlock: KAKCAD_clean_linker_0, # of connection points: 3
#     Node 9, Type 1, BuildingBlock: KAKCAD_clean_linker_0, # of connection points: 3
#     Node 10, Type 1, BuildingBlock: KAKCAD_clean_linker_0, # of connection points: 3
#     Node 11, Type 1, BuildingBlock: KAKCAD_clean_linker_0, # of connection points: 3
#     Edge 12, Type (0, 1), None
#     Edge 13, Type (0, 1), None
#     Edge 14, Type (0, 1), None
#     Edge 15, Type (0, 1), None
#     Edge 16, Type (0, 1), None
#     Edge 17, Type (0, 1), None
#     Edge 18, Type (0, 1), None
#     Edge 19, Type (0, 1), None
#     Edge 20, Type (0, 1), None
#     Edge 21, Type (0, 1), None
#     Edge 22, Type (0, 1), None
#     Edge 23, Type (0, 1), None
#     Edge 24, Type (0, 1), None
#     Edge 25, Type (0, 1), None
#     Edge 26, Type (0, 1), None
#     Edge 27, Type (0, 1), None
#     Edge 28, Type (0, 1), None
#     Edge 29, Type (0, 1), None
#     Edge 30, Type (0, 1), None
#     Edge 31, Type (0, 1), None
#     Edge 32, Type (0, 1), None
#     Edge 33, Type (0, 1), None
#     Edge 34, Type (0, 1), None
#     Edge 35, Type (0, 1), None
# Relax obj value: 0.051
# Max RMSD: 0.076
# Mean RMSD: 0.068
data_MOF--net-hwx--node1-IZENUY_clean_sbu_0--node2-KAKCAD_clean_linker_0--edge1-none
_symmetry_space_group_name_H-M    P1
_symmetry_Int_Tables_number       1
_symmetry_cell_setting            triclinic
loop_
_symmetry_equiv_pos_as_xyz
'x, y, z'
_cell_length_a     32.427671
_cell_length_b     32.293219
_cell_length_c     15.573228
_cell_angle_alpha  89.767568
_cell_angle_beta   89.97907
_cell_angle_gamma 89.918517
loop_
_atom_site_label
_atom_site_type_symbol
_atom_site_fract_x
_atom_site_fract_y
_atom_site_fract_z
_atom_type_partial_charge
Fe0 Fe 0.25784 0.23152 0.10586 0.0
Fe1 Fe 0.25338 0.2307 0.91033 0.0
O2 O 0.23829 0.20947 0.01039 0.0
Fe3 Fe 0.20385 0.16678 0.01397 0.0
O4 O 0.1782 0.1831 0.11356 0.0
O5 O 0.20657 0.24314 0.14468 0.0
O6 O 0.25939 0.28462 0.06325 0.0
C7 C 0.23898 0.30072 0.0023 0.0
C8 C 0.25829 0.14547 0.14194 0.0
O9 O 0.22989 0.27989 0.93673 0.0
C10 C 0.25773 0.14848 0.87435 0.0
O11 O 0.3107 0.22099 0.07411 0.0
O12 O 0.30417 0.24805 0.94589 0.0
O13 O 0.24054 0.13494 0.07325 0.0
O14 O 0.25937 0.18286 0.16532 0.0
C15 C 0.16989 0.2126 0.88354 0.0
O16 O 0.27706 0.18235 0.87861 0.0
O17 O 0.22412 0.14326 0.91502 0.0
C18 C 0.32666 0.23486 0.00618 0.0
O19 O 0.20588 0.21778 0.85509 0.0
O20 O 0.16399 0.19523 0.95521 0.0
C21 C 0.17784 0.21718 0.15371 0.0
Fe22 Fe 0.22869 0.72952 0.60996 0.0
Fe23 Fe 0.28109 0.6668 0.50978 0.0
O24 O 0.2468 0.70966 0.51124 0.0
Fe25 Fe 0.23051 0.73329 0.41445 0.0
O26 O 0.22649 0.78543 0.45946 0.0
O27 O 0.25261 0.77929 0.58875 0.0
O28 O 0.27467 0.71593 0.67071 0.0
C29 C 0.31139 0.71043 0.64663 0.0
C30 C 0.15844 0.73511 0.50365 0.0
O31 O 0.31915 0.69397 0.57505 0.0
C32 C 0.23271 0.64808 0.37184 0.0
O33 O 0.20429 0.68074 0.63678 0.0
O34 O 0.25793 0.6418 0.60449 0.0
O35 O 0.17666 0.72196 0.43754 0.0
O36 O 0.1789 0.74703 0.56799 0.0
C37 C 0.31175 0.71969 0.37728 0.0
O38 O 0.24601 0.6362 0.444 0.0
O39 O 0.23226 0.68596 0.35164 0.0
C40 C 0.22327 0.6466 0.64122 0.0
O41 O 0.30981 0.68474 0.41463 0.0
O42 O 0.28303 0.74586 0.38497 0.0
C43 C 0.24504 0.80094 0.52307 0.0
Fe44 Fe 0.73126 0.77769 0.89824 0.0
Fe45 Fe 0.73457 0.77498 0.09387 0.0
O46 O 0.7469 0.80016 0.99644 0.0
Fe47 Fe 0.77483 0.8474 0.99797 0.0
O48 O 0.74909 0.86923 0.90288 0.0
O49 O 0.70169 0.82325 0.86929 0.0
O50 O 0.68321 0.75566 0.94157 0.0
C51 C 0.66239 0.76578 0.00715 0.0
C52 C 0.81104 0.80821 0.86157 0.0
O53 O 0.6799 0.78017 0.07288 0.0
C54 C 0.81327 0.79866 0.12796 0.0
O55 O 0.76021 0.73038 0.9201 0.0
O56 O 0.73574 0.72249 0.05012 0.0
O57 O 0.81618 0.82552 0.93323 0.0
O58 O 0.77593 0.79602 0.83749 0.0
C59 C 0.72484 0.85977 0.13593 0.0
O60 O 0.78865 0.76867 0.12006 0.0
O61 O 0.80546 0.83349 0.09348 0.0
C62 C 0.75439 0.70805 0.98561 0.0
O63 O 0.73108 0.8224 0.15658 0.0
O64 O 0.73561 0.87305 0.06304 0.0
C65 C 0.71595 0.85956 0.86493 0.0
Fe66 Fe 0.7062 0.34273 0.4809 0.0
Fe67 Fe 0.75183 0.27708 0.58821 0.0
O68 O 0.73789 0.29798 0.487 0.0
Fe69 Fe 0.75567 0.27378 0.39225 0.0
O70 O 0.7595 0.32184 0.32987 0.0
O71 O 0.745 0.3715 0.42132 0.0
O72 O 0.72703 0.36614 0.57921 0.0
C73 C 0.76 0.35956 0.62103 0.0
C74 C 0.67673 0.29239 0.34497 0.0
O75 O 0.77763 0.32466 0.61839 0.0
C76 C 0.73531 0.20609 0.50041 0.0
O77 O 0.66469 0.31743 0.53985 0.0
O78 O 0.70452 0.29305 0.64232 0.0
O79 O 0.7035 0.2645 0.35576 0.0
O80 O 0.68012 0.32719 0.38156 0.0
C81 C 0.82466 0.26786 0.49076 0.0
O82 O 0.72652 0.22832 0.56432 0.0
O83 O 0.75503 0.22108 0.43731 0.0
C84 C 0.66918 0.30155 0.61331 0.0
O85 O 0.80206 0.25722 0.5532 0.0
O86 O 0.80899 0.28167 0.42241 0.0
C87 C 0.7611 0.35949 0.35193 0.0
C88 C 0.17658 0.62349 0.76059 0.0
C89 C 0.20926 0.615 0.70387 0.0
C90 C 0.16868 0.59721 0.83015 0.0
C91 C 0.19312 0.56185 0.84403 0.0
C92 C 0.22347 0.55158 0.78331 0.0
C93 C 0.23145 0.57786 0.71393 0.0
C94 C 0.19143 0.53928 0.92712 0.0
C95 C 0.19531 0.49608 0.93042 0.0
C96 C 0.20081 0.47543 0.00931 0.0
C97 C 0.20245 0.49869 0.08555 0.0
C98 C 0.19942 0.54201 0.08303 0.0
C99 C 0.19234 0.56178 0.00384 0.0
C100 C 0.20884 0.56727 0.16014 0.0
C101 C 0.19443 0.55644 0.24265 0.0
C102 C 0.23344 0.60276 0.15079 0.0
C103 C 0.24155 0.62804 0.22055 0.0
C104 C 0.22606 0.61822 0.30218 0.0
C105 C 0.20898 0.43019 0.01056 0.0
C106 C 0.18804 0.40358 0.95418 0.0
C107 C 0.23945 0.41357 0.06499 0.0
C108 C 0.2489 0.37146 0.06278 0.0
C109 C 0.22857 0.34513 0.00517 0.0
C110 C 0.19792 0.36152 0.95112 0.0
C111 C 0.20321 0.58172 0.31354 0.0
H112 H 0.15855 0.65159 0.75419 0.0
H113 H 0.14474 0.60558 0.87543 0.0
H114 H 0.24305 0.52472 0.79249 0.0
H115 H 0.25654 0.57013 0.67092 0.0
H116 H 0.19596 0.47878 0.87095 0.0
H117 H 0.19029 0.59527 0.00125 0.0
H118 H 0.20799 0.48327 0.14636 0.0
H119 H 0.17563 0.52909 0.25197 0.0
H120 H 0.24657 0.61119 0.08921 0.0
H121 H 0.26006 0.65558 0.21046 0.0
H122 H 0.16403 0.41526 0.91222 0.0
H123 H 0.25686 0.43323 0.10786 0.0
H124 H 0.19104 0.5736 0.37616 0.0
H125 H 0.18135 0.34181 0.90685 0.0
H126 H 0.27276 0.35972 0.10507 0.0
C127 C 0.86177 0.75692 0.21872 0.0
C128 C 0.84604 0.7957 0.19344 0.0
C129 C 0.88828 0.75373 0.28925 0.0
C130 C 0.89875 0.78914 0.33621 0.0
C131 C 0.88442 0.82802 0.30917 0.0
C132 C 0.85866 0.83136 0.23772 0.0
C133 C 0.92085 0.78516 0.41836 0.0
C134 C 0.96218 0.77274 0.42074 0.0
C135 C 0.983 0.769 0.49967 0.0
C136 C 0.96127 0.77697 0.57643 0.0
C137 C 0.91983 0.78975 0.57454 0.0
C138 C 0.89998 0.79379 0.49486 0.0
C139 C 0.89659 0.79815 0.65501 0.0
C140 C 0.89983 0.77143 0.7264 0.0
C141 C 0.86849 0.83135 0.65847 0.0
C142 C 0.84233 0.83606 0.7289 0.0
C143 C 0.84428 0.80818 0.79788 0.0
C144 C 0.02777 0.75875 0.50172 0.0
C145 C 0.04525 0.7309 0.44247 0.0
C146 C 0.05372 0.77805 0.56162 0.0
C147 C 0.09588 0.76976 0.56254 0.0
C148 C 0.11344 0.74245 0.50267 0.0
C149 C 0.08773 0.72305 0.44257 0.0
C150 C 0.87375 0.7764 0.79736 0.0
H151 H 0.85258 0.72898 0.18563 0.0
H152 H 0.89894 0.72345 0.30971 0.0
H153 H 0.89214 0.85563 0.34504 0.0
H154 H 0.84682 0.86163 0.22021 0.0
H155 H 0.97827 0.76736 0.3608 0.0
H156 H 0.86774 0.80265 0.49207 0.0
H157 H 0.97667 0.77363 0.63778 0.0
H158 H 0.92088 0.74537 0.72549 0.0
H159 H 0.86574 0.85294 0.60536 0.0
H160 H 0.81938 0.8605 0.728 0.0
H161 H 0.02613 0.715 0.39615 0.0
H162 H 0.04172 0.80041 0.60686 0.0
H163 H 0.87505 0.75414 0.84954 0.0
H164 H 0.10037 0.70163 0.39608 0.0
H165 H 0.11485 0.78556 0.60931 0.0
C166 C 0.7581 0.42979 0.2832 0.0
C167 C 0.77575 0.39011 0.28805 0.0
C168 C 0.76631 0.45561 0.21281 0.0
C169 C 0.79283 0.4425 0.14654 0.0
C170 C 0.81299 0.40411 0.15549 0.0
C171 C 0.80424 0.37808 0.22493 0.0
C172 C 0.79579 0.46636 0.06449 0.0
C173 C 0.79418 0.50985 0.06359 0.0
C174 C 0.79093 0.53205 0.98571 0.0
C175 C 0.79127 0.51009 0.90784 0.0
C176 C 0.79385 0.46666 0.90737 0.0
C177 C 0.79599 0.44521 0.98582 0.0
C178 C 0.78983 0.44292 0.82626 0.0
C179 C 0.75909 0.45328 0.76634 0.0
C180 C 0.81387 0.4073 0.81233 0.0
C181 C 0.80571 0.38126 0.74289 0.0
C182 C 0.77323 0.39025 0.68598 0.0
C183 C 0.78334 0.57761 0.98625 0.0
C184 C 0.75756 0.59495 0.04916 0.0
C185 C 0.79998 0.60386 0.92256 0.0
C186 C 0.79072 0.6463 0.9217 0.0
C187 C 0.7649 0.66337 0.98489 0.0
C188 C 0.74872 0.63717 0.04883 0.0
C189 C 0.7509 0.42726 0.69696 0.0
H190 H 0.73589 0.43982 0.33078 0.0
H191 H 0.74989 0.48475 0.20802 0.0
H192 H 0.83442 0.39342 0.10701 0.0
H193 H 0.81875 0.34785 0.22771 0.0
H194 H 0.79469 0.52643 0.1239 0.0
H195 H 0.79512 0.41167 0.98549 0.0
H196 H 0.78799 0.52661 0.84754 0.0
H197 H 0.73979 0.4803 0.77556 0.0
H198 H 0.83816 0.39884 0.85683 0.0
H199 H 0.82379 0.35324 0.736 0.0
H200 H 0.74325 0.57576 0.09792 0.0
H201 H 0.82026 0.59166 0.87352 0.0
H202 H 0.72579 0.4353 0.65415 0.0
H203 H 0.72847 0.64912 0.09826 0.0
H204 H 0.8039 0.66573 0.87194 0.0
C205 C 0.10156 0.19665 0.81482 0.0
C206 C 0.13577 0.22282 0.82478 0.0
C207 C 0.07544 0.2016 0.7436 0.0
C208 C 0.08351 0.23265 0.68224 0.0
C209 C 0.11548 0.26086 0.69684 0.0
C210 C 0.14127 0.25605 0.76744 0.0
C211 C 0.06244 0.23306 0.5982 0.0
C212 C 0.0195 0.23642 0.59222 0.0
C213 C 0.00015 0.23826 0.51128 0.0
C214 C 0.02437 0.2353 0.43649 0.0
C215 C 0.06738 0.23233 0.44203 0.0
C216 C 0.08615 0.23131 0.52297 0.0
C217 C 0.09313 0.23089 0.3637 0.0
C218 C 0.08536 0.20165 0.29925 0.0
C219 C 0.12692 0.25768 0.35506 0.0
C220 C 0.15333 0.25445 0.28468 0.0
C221 C 0.14684 0.22391 0.22202 0.0
C222 C 0.95499 0.24505 0.50477 0.0
C223 C 0.92791 0.22608 0.5633 0.0
C224 C 0.9387 0.27143 0.44108 0.0
C225 C 0.89633 0.27862 0.43599 0.0
C226 C 0.86941 0.25999 0.49515 0.0
C227 C 0.88561 0.23366 0.55886 0.0
C228 C 0.11216 0.19799 0.22926 0.0
H229 H 0.09683 0.17073 0.85805 0.0
H230 H 0.05081 0.17954 0.73336 0.0
H231 H 0.12185 0.28539 0.65104 0.0
H232 H 0.16714 0.27699 0.77441 0.0
H233 H 0.00151 0.23929 0.65056 0.0
H234 H 0.11943 0.22855 0.5275 0.0
H235 H 0.00991 0.236 0.37376 0.0
H236 H 0.05947 0.18064 0.30467 0.0
H237 H 0.13324 0.28078 0.40355 0.0
H238 H 0.17968 0.27496 0.28116 0.0
H239 H 0.93934 0.20512 0.6123 0.0
H240 H 0.95874 0.28722 0.396 0.0
H241 H 0.10622 0.17427 0.18188 0.0
H242 H 0.86558 0.21855 0.60497 0.0
H243 H 0.88474 0.29928 0.38658 0.0
C244 C 0.69296 0.92878 0.80789 0.0
C245 C 0.70119 0.88657 0.79524 0.0
C246 C 0.68344 0.95454 0.73766 0.0
C247 C 0.68371 0.93881 0.65314 0.0
C248 C 0.69211 0.89615 0.64239 0.0
C249 C 0.69978 0.87044 0.71228 0.0
C250 C 0.67954 0.96633 0.57541 0.0
C251 C 0.6912 0.00838 0.57634 0.0
C252 C 0.69586 0.03088 0.49899 0.0
C253 C 0.69266 0.00968 0.42016 0.0
C254 C 0.68168 0.96772 0.4187 0.0
C255 C 0.66981 0.94863 0.49577 0.0
C256 C 0.69054 0.94102 0.34291 0.0
C257 C 0.68491 0.95428 0.25735 0.0
C258 C 0.70796 0.90173 0.3577 0.0
C259 C 0.71819 0.87591 0.29025 0.0
C260 C 0.7124 0.8886 0.20489 0.0
C261 C 0.70683 0.07568 0.50091 0.0
C262 C 0.6886 0.10231 0.56145 0.0
C263 C 0.73508 0.09235 0.44165 0.0
C264 C 0.74423 0.13458 0.44174 0.0
C265 C 0.72579 0.16123 0.50178 0.0
C266 C 0.69808 0.14458 0.56209 0.0
C267 C 0.69592 0.92823 0.18864 0.0
H268 H 0.69422 0.94183 0.8718 0.0
H269 H 0.67677 0.98679 0.74996 0.0
H270 H 0.69498 0.88219 0.57979 0.0
H271 H 0.70717 0.83818 0.70073 0.0
H272 H 0.69878 0.02333 0.63629 0.0
H273 H 0.65716 0.91768 0.49295 0.0
H274 H 0.7 0.0253 0.36048 0.0
H275 H 0.67199 0.98451 0.24357 0.0
H276 H 0.71481 0.89088 0.422 0.0
H277 H 0.73172 0.84609 0.30564 0.0
H278 H 0.6664 0.09062 0.60748 0.0
H279 H 0.75052 0.07276 0.39541 0.0
H280 H 0.69134 0.93888 0.12331 0.0
H281 H 0.6832 0.16431 0.60894 0.0
H282 H 0.76604 0.14628 0.39489 0.0
C283 C 0.63825 0.24779 0.24094 0.0
C284 C 0.64494 0.28687 0.27801 0.0
C285 C 0.61155 0.24361 0.17113 0.0
C286 C 0.59132 0.2784 0.13746 0.0
C287 C 0.59672 0.31713 0.17583 0.0
C288 C 0.62314 0.32133 0.24596 0.0
C289 C 0.56728 0.27501 0.058 0.0
C290 C 0.52553 0.2645 0.06071 0.0
C291 C 0.50251 0.26172 0.98442 0.0
C292 C 0.52224 0.26928 0.90516 0.0
C293 C 0.56394 0.28077 0.90236 0.0
C294 C 0.58628 0.28333 0.97929 0.0
C295 C 0.58477 0.29012 0.81985 0.0
C296 C 0.58203 0.26276 0.75001 0.0
C297 C 0.61069 0.32482 0.81344 0.0
C298 C 0.63576 0.33033 0.74165 0.0
C299 C 0.63504 0.30152 0.67468 0.0
C300 C 0.45757 0.25313 0.98811 0.0
C301 C 0.4412 0.22537 0.04917 0.0
C302 C 0.43045 0.27408 0.9326 0.0
C303 C 0.38808 0.26763 0.9381 0.0
C304 C 0.37169 0.24054 9e-05 0.0
C305 C 0.39863 0.21935 0.05548 0.0
C306 C 0.60726 0.26833 0.67784 0.0
H307 H 0.65442 0.22064 0.26442 0.0
H308 H 0.60766 0.21352 0.14174 0.0
H309 H 0.58138 0.34429 0.14999 0.0
H310 H 0.62766 0.35189 0.27279 0.0
H311 H 0.51092 0.25963 0.12253 0.0
H312 H 0.61872 0.29148 0.97812 0.0
H313 H 0.5051 0.2669 0.84568 0.0
H314 H 0.56242 0.23567 0.75356 0.0
H315 H 0.61293 0.34673 0.86575 0.0
H316 H 0.65747 0.35583 0.7406 0.0
H317 H 0.46126 0.20823 0.09209 0.0
H318 H 0.44177 0.29633 0.88607 0.0
H319 H 0.60702 0.24535 0.62735 0.0
H320 H 0.38685 0.19796 0.10329 0.0
H321 H 0.3681 0.28464 0.89473 0.0
C322 C 0.25229 0.07577 0.21202 0.0
C323 C 0.27253 0.11397 0.20407 0.0
C324 C 0.2599 0.05025 0.28316 0.0
C325 C 0.28822 0.06236 0.3469 0.0
C326 C 0.31094 0.09889 0.33456 0.0
C327 C 0.303 0.12452 0.26421 0.0
C328 C 0.29064 0.03964 0.43 0.0
C329 C 0.2877 0.99632 0.43291 0.0
C330 C 0.28426 0.97528 0.51184 0.0
C331 C 0.28542 0.99797 0.58852 0.0
C332 C 0.28886 0.04124 0.58694 0.0
C333 C 0.29162 0.06178 0.50752 0.0
C334 C 0.28495 0.06553 0.66718 0.0
C335 C 0.25407 0.05576 0.72722 0.0
C336 C 0.30971 0.10054 0.68102 0.0
C337 C 0.30236 0.12641 0.75109 0.0
C338 C 0.26991 0.11789 0.80847 0.0
C339 C 0.27551 0.93022 0.51404 0.0
C340 C 0.24786 0.91307 0.45462 0.0
C341 C 0.29291 0.90444 0.57748 0.0
C342 C 0.28268 0.86243 0.58145 0.0
C343 C 0.25513 0.84544 0.52165 0.0
C344 C 0.23798 0.87118 0.45806 0.0
C345 C 0.24666 0.08162 0.79714 0.0
H346 H 0.22853 0.06699 0.16676 0.0
H347 H 0.24165 0.02243 0.29087 0.0
H348 H 0.33364 0.10861 0.38132 0.0
H349 H 0.31949 0.15359 0.25889 0.0
H350 H 0.28727 0.97902 0.37346 0.0
H351 H 0.2918 0.09533 0.50608 0.0
H352 H 0.28194 0.98213 0.64957 0.0
H353 H 0.23419 0.02922 0.71797 0.0
H354 H 0.33408 0.10851 0.63634 0.0
H355 H 0.32109 0.15393 0.75821 0.0
H356 H 0.23309 0.93218 0.40625 0.0
H357 H 0.31458 0.91666 0.62377 0.0
H358 H 0.22155 0.074 0.84027 0.0
H359 H 0.2165 0.85908 0.41121 0.0
H360 H 0.29671 0.84321 0.63061 0.0
C361 C 0.38073 0.69656 0.71437 0.0
C362 C 0.34428 0.72001 0.70893 0.0
C363 C 0.40753 0.70181 0.78433 0.0
C364 C 0.39808 0.7306 0.84911 0.0
C365 C 0.36334 0.75609 0.83953 0.0
C366 C 0.33676 0.75082 0.77043 0.0
C367 C 0.42154 0.73174 0.9307 0.0
C368 C 0.46469 0.73457 0.93161 0.0
C369 C 0.48628 0.73676 0.01009 0.0
C370 C 0.46403 0.73488 0.08778 0.0
C371 C 0.4209 0.73264 0.08729 0.0
C372 C 0.39999 0.73095 0.0088 0.0
C373 C 0.39697 0.73268 0.16811 0.0
C374 C 0.40374 0.70234 0.23132 0.0
C375 C 0.36489 0.76137 0.17912 0.0
C376 C 0.33874 0.75865 0.25004 0.0
C377 C 0.34372 0.7267 0.31082 0.0
C378 C 0.53171 0.74301 0.01091 0.0
C379 C 0.55706 0.72373 0.9496 0.0
C380 C 0.54998 0.76937 0.07174 0.0
C381 C 0.59246 0.77632 0.0712 0.0
C382 C 0.61761 0.7575 0.00915 0.0
C383 C 0.59949 0.7311 0.94841 0.0
C384 C 0.37714 0.69918 0.30188 0.0
H385 H 0.38724 0.67266 0.66768 0.0
H386 H 0.43425 0.68185 0.7903 0.0
H387 H 0.35584 0.77913 0.88749 0.0
H388 H 0.30931 0.76994 0.76693 0.0
H389 H 0.48112 0.73676 0.87117 0.0
H390 H 0.36663 0.72845 0.00865 0.0
H391 H 0.48007 0.73589 0.14877 0.0
H392 H 0.42832 0.67987 0.22398 0.0
H393 H 0.35937 0.78527 0.13142 0.0
H394 H 0.31344 0.78045 0.25484 0.0
H395 H 0.54418 0.70278 0.90264 0.0
H396 H 0.53139 0.78545 0.11881 0.0
H397 H 0.38193 0.67434 0.34777 0.0
H398 H 0.61812 0.71588 0.90014 0.0
H399 H 0.60547 0.79709 0.11842 0.0
loop_
_geom_bond_atom_site_label_1
_geom_bond_atom_site_label_2
_geom_bond_distance
_geom_bond_site_symmetry_2
_ccdc_geom_bond_type
Fe0 O2 1.918 . S
Fe0 O5 1.997 . S
Fe0 O6 2.002 . S
Fe0 O11 1.976 . S
Fe0 O14 1.996 . S
Fe1 O2 1.918 1_556 S
Fe1 O9 1.997 . S
Fe1 O12 1.996 . S
Fe1 O16 1.976 . S
Fe1 O19 2.002 . S
O2 Fe0 1.918 . S
O2 Fe1 1.918 1_554 S
O2 Fe3 1.918 . S
Fe3 O2 1.918 . S
Fe3 O4 2.010 . S
Fe3 O13 1.984 . S
Fe3 O17 1.987 1_554 S
Fe3 O20 1.988 1_554 S
O4 Fe3 2.010 . S
O4 C21 1.295 . S
O5 Fe0 1.997 . S
O5 C21 1.235 . S
O6 Fe0 2.002 . S
O6 C7 1.295 . S
C7 O6 1.295 . S
C7 O9 1.235 1_554 S
C8 O13 1.287 . S
C8 O14 1.255 . S
O9 Fe1 1.997 . S
O9 C7 1.235 1_556 S
C10 O16 1.287 . S
C10 O17 1.255 . S
O11 Fe0 1.976 . S
O11 C18 1.275 1_554 S
O12 Fe1 1.996 . S
O12 C18 1.266 . S
O13 Fe3 1.984 . S
O13 C8 1.287 . S
O14 Fe0 1.996 . S
O14 C8 1.255 . S
C15 O19 1.295 . S
C15 O20 1.235 . S
O16 Fe1 1.976 . S
O16 C10 1.287 . S
O17 Fe3 1.987 1_556 S
O17 C10 1.255 . S
C18 O11 1.275 1_556 S
C18 O12 1.266 . S
O19 Fe1 2.002 . S
O19 C15 1.295 . S
O20 Fe3 1.988 1_556 S
O20 C15 1.235 . S
C21 O4 1.295 . S
C21 O5 1.235 . S
Fe22 O24 1.918 . S
Fe22 O27 1.997 . S
Fe22 O28 2.002 . S
Fe22 O33 1.976 . S
Fe22 O36 1.996 . S
Fe23 O24 1.918 . S
Fe23 O31 1.997 . S
Fe23 O34 1.996 . S
Fe23 O38 1.976 . S
Fe23 O41 2.002 . S
O24 Fe22 1.918 . S
O24 Fe23 1.918 . S
O24 Fe25 1.918 . S
Fe25 O24 1.918 . S
Fe25 O26 2.002 . S
Fe25 O35 1.976 . S
Fe25 O39 1.996 . S
Fe25 O42 1.997 . S
O26 Fe25 2.002 . S
O26 C43 1.295 . S
O27 Fe22 1.997 . S
O27 C43 1.235 . S
O28 Fe22 2.002 . S
O28 C29 1.295 . S
C29 O28 1.295 . S
C29 O31 1.235 . S
C30 O35 1.287 . S
C30 O36 1.255 . S
O31 Fe23 1.997 . S
O31 C29 1.235 . S
C32 O38 1.287 . S
C32 O39 1.255 . S
O33 Fe22 1.976 . S
O33 C40 1.287 . S
O34 Fe23 1.996 . S
O34 C40 1.255 . S
O35 Fe25 1.976 . S
O35 C30 1.287 . S
O36 Fe22 1.996 . S
O36 C30 1.255 . S
C37 O41 1.295 . S
C37 O42 1.235 . S
O38 Fe23 1.976 . S
O38 C32 1.287 . S
O39 Fe25 1.996 . S
O39 C32 1.255 . S
C40 O33 1.287 . S
C40 O34 1.255 . S
O41 Fe23 2.002 . S
O41 C37 1.295 . S
O42 Fe25 1.997 . S
O42 C37 1.235 . S
C43 O26 1.295 . S
C43 O27 1.235 . S
Fe44 O46 1.918 1_556 S
Fe44 O49 1.997 . S
Fe44 O50 2.002 . S
Fe44 O55 1.976 . S
Fe44 O58 1.996 . S
Fe45 O46 1.918 . S
Fe45 O53 1.997 . S
Fe45 O56 1.996 . S
Fe45 O60 1.976 . S
Fe45 O63 2.002 . S
O46 Fe44 1.918 1_554 S
O46 Fe45 1.918 . S
O46 Fe47 1.918 . S
Fe47 O46 1.918 . S
Fe47 O48 2.002 1_554 S
Fe47 O57 1.976 1_554 S
Fe47 O61 1.996 . S
Fe47 O64 1.997 . S
O48 Fe47 2.002 1_556 S
O48 C65 1.295 . S
O49 Fe44 1.997 . S
O49 C65 1.235 . S
O50 Fe44 2.002 . S
O50 C51 1.295 . S
C51 O50 1.295 . S
C51 O53 1.235 1_556 S
C52 O57 1.287 . S
C52 O58 1.255 . S
O53 Fe45 1.997 . S
O53 C51 1.235 1_554 S
C54 O60 1.287 . S
C54 O61 1.255 . S
O55 Fe44 1.976 . S
O55 C62 1.287 1_556 S
O56 Fe45 1.996 . S
O56 C62 1.255 . S
O57 Fe47 1.976 1_556 S
O57 C52 1.287 . S
O58 Fe44 1.996 . S
O58 C52 1.255 . S
C59 O63 1.295 . S
C59 O64 1.235 . S
O60 Fe45 1.976 . S
O60 C54 1.287 . S
O61 Fe47 1.996 . S
O61 C54 1.255 . S
C62 O55 1.287 1_554 S
C62 O56 1.255 . S
O63 Fe45 2.002 . S
O63 C59 1.295 . S
O64 Fe47 1.997 . S
O64 C59 1.235 . S
C65 O48 1.295 . S
C65 O49 1.235 . S
Fe66 O68 1.918 . S
Fe66 O71 1.997 . S
Fe66 O72 2.002 . S
Fe66 O77 1.976 . S
Fe66 O80 1.996 . S
Fe67 O68 1.918 . S
Fe67 O75 1.997 . S
Fe67 O78 1.996 . S
Fe67 O82 1.976 . S
Fe67 O85 2.002 . S
O68 Fe66 1.918 . S
O68 Fe67 1.918 . S
O68 Fe69 1.918 . S
Fe69 O68 1.918 . S
Fe69 O70 2.002 . S
Fe69 O79 1.976 . S
Fe69 O83 1.996 . S
Fe69 O86 1.997 . S
O70 Fe69 2.002 . S
O70 C87 1.295 . S
O71 Fe66 1.997 . S
O71 C87 1.235 . S
O72 Fe66 2.002 . S
O72 C73 1.295 . S
C73 O72 1.295 . S
C73 O75 1.235 . S
C74 O79 1.287 . S
C74 O80 1.255 . S
O75 Fe67 1.997 . S
O75 C73 1.235 . S
C76 O82 1.287 . S
C76 O83 1.255 . S
O77 Fe66 1.976 . S
O77 C84 1.287 . S
O78 Fe67 1.996 . S
O78 C84 1.255 . S
O79 Fe69 1.976 . S
O79 C74 1.287 . S
O80 Fe66 1.996 . S
O80 C74 1.255 . S
C81 O85 1.295 . S
C81 O86 1.235 . S
O82 Fe67 1.976 . S
O82 C76 1.287 . S
O83 Fe69 1.996 . S
O83 C76 1.255 . S
C84 O77 1.287 . S
C84 O78 1.255 . S
O85 Fe67 2.002 . S
O85 C81 1.295 . S
O86 Fe69 1.997 . S
O86 C81 1.235 . S
C87 O70 1.295 . S
C87 O71 1.235 . S
C88 C89 1.386 . S
C88 C90 1.397 . S
C88 H112 0.931 . S
C89 C88 1.386 . S
C89 C93 1.397 . S
C90 C88 1.397 . S
C90 C91 1.384 . S
C90 H113 0.930 . S
C91 C90 1.384 . S
C91 C92 1.377 . S
C91 C94 1.481 . S
C92 C91 1.377 . S
C92 C93 1.389 . S
C92 H114 0.929 . S
C93 C89 1.397 . S
C93 C92 1.389 . S
C93 H115 0.931 . S
C94 C91 1.481 . S
C94 C95 1.387 . S
C94 C99 1.390 1_556 S
C95 C94 1.387 . S
C95 C96 1.401 1_556 S
C95 H116 0.930 . S
C96 C95 1.401 1_554 S
C96 C97 1.376 . S
C96 C105 1.511 . S
C97 C96 1.376 . S
C97 C98 1.392 . S
C97 H118 0.931 . S
C98 C97 1.392 . S
C98 C99 1.361 . S
C98 C100 1.500 . S
C99 C94 1.390 1_554 S
C99 C98 1.361 . S
C99 H117 0.931 . S
C100 C98 1.500 . S
C100 C101 1.371 . S
C100 C102 1.365 . S
C101 C100 1.371 . S
C101 C111 1.386 . S
C101 H119 0.931 . S
C102 C100 1.365 . S
C102 C103 1.409 . S
C102 H120 0.929 . S
C103 C102 1.409 . S
C103 C104 1.380 . S
C103 H121 0.930 . S
C104 C103 1.380 . S
C104 C111 1.357 . S
C105 C96 1.511 . S
C105 C106 1.341 1_554 S
C105 C107 1.371 . S
C106 C105 1.341 1_556 S
C106 C110 1.394 . S
C106 H122 0.930 . S
C107 C105 1.371 . S
C107 C108 1.392 . S
C107 H123 0.931 . S
C108 C107 1.392 . S
C108 C109 1.331 . S
C108 H126 0.932 . S
C109 C108 1.331 . S
C109 C110 1.336 1_554 S
C110 C106 1.394 . S
C110 C109 1.336 1_556 S
C110 H125 0.929 . S
C111 C101 1.386 . S
C111 C104 1.357 . S
C111 H124 0.928 . S
H112 C88 0.931 . S
H113 C90 0.930 . S
H114 C92 0.929 . S
H115 C93 0.931 . S
H116 C95 0.930 . S
H117 C99 0.931 . S
H118 C97 0.931 . S
H119 C101 0.931 . S
H120 C102 0.929 . S
H121 C103 0.930 . S
H122 C106 0.930 . S
H123 C107 0.931 . S
H124 C111 0.928 . S
H125 C110 0.929 . S
H126 C108 0.932 . S
C127 C128 1.386 . S
C127 C129 1.397 . S
C127 H151 0.931 . S
C128 C127 1.386 . S
C128 C132 1.397 . S
C129 C127 1.397 . S
C129 C130 1.384 . S
C129 H152 0.930 . S
C130 C129 1.384 . S
C130 C131 1.377 . S
C130 C133 1.481 . S
C131 C130 1.377 . S
C131 C132 1.389 . S
C131 H153 0.929 . S
C132 C128 1.397 . S
C132 C131 1.389 . S
C132 H154 0.931 . S
C133 C130 1.481 . S
C133 C134 1.387 . S
C133 C138 1.390 . S
C134 C133 1.387 . S
C134 C135 1.401 1_655 S
C134 H155 0.930 1_655 S
C135 C134 1.401 1_455 S
C135 C136 1.376 1_455 S
C135 C144 1.511 . S
C136 C135 1.376 1_655 S
C136 C137 1.392 . S
C136 H157 0.931 1_655 S
C137 C136 1.392 . S
C137 C138 1.361 . S
C137 C139 1.500 . S
C138 C133 1.390 . S
C138 C137 1.361 . S
C138 H156 0.931 . S
C139 C137 1.500 . S
C139 C140 1.371 . S
C139 C141 1.365 . S
C140 C139 1.371 . S
C140 C150 1.386 . S
C140 H158 0.931 . S
C141 C139 1.365 . S
C141 C142 1.409 . S
C141 H159 0.929 . S
C142 C141 1.409 . S
C142 C143 1.380 . S
C142 H160 0.930 . S
C143 C142 1.380 . S
C143 C150 1.357 . S
C144 C135 1.511 . S
C144 C145 1.341 . S
C144 C146 1.371 . S
C145 C144 1.341 . S
C145 C149 1.394 . S
C145 H161 0.930 . S
C146 C144 1.371 . S
C146 C147 1.392 . S
C146 H162 0.931 . S
C147 C146 1.392 . S
C147 C148 1.331 . S
C147 H165 0.932 . S
C148 C147 1.331 . S
C148 C149 1.336 . S
C149 C145 1.394 . S
C149 C148 1.336 . S
C149 H164 0.929 . S
C150 C140 1.386 . S
C150 C143 1.357 . S
C150 H163 0.928 . S
H151 C127 0.931 . S
H152 C129 0.930 . S
H153 C131 0.929 . S
H154 C132 0.931 . S
H155 C134 0.930 1_455 S
H156 C138 0.931 . S
H157 C136 0.931 1_455 S
H158 C140 0.931 . S
H159 C141 0.929 . S
H160 C142 0.930 . S
H161 C145 0.930 . S
H162 C146 0.931 . S
H163 C150 0.928 . S
H164 C149 0.929 . S
H165 C147 0.932 . S
C166 C167 1.386 . S
C166 C168 1.397 . S
C166 H190 0.931 . S
C167 C166 1.386 . S
C167 C171 1.397 . S
C168 C166 1.397 . S
C168 C169 1.384 . S
C168 H191 0.930 . S
C169 C168 1.384 . S
C169 C170 1.377 . S
C169 C172 1.481 . S
C170 C169 1.377 . S
C170 C171 1.389 . S
C170 H192 0.929 . S
C171 C167 1.397 . S
C171 C170 1.389 . S
C171 H193 0.931 . S
C172 C169 1.481 . S
C172 C173 1.387 . S
C172 C177 1.396 . S
C173 C172 1.387 . S
C173 C174 1.401 1_554 S
C173 H194 0.930 . S
C174 C173 1.401 1_556 S
C174 C175 1.376 . S
C174 C183 1.511 . S
C175 C174 1.376 . S
C175 C176 1.392 . S
C175 H196 0.931 . S
C176 C175 1.392 . S
C176 C177 1.355 1_556 S
C176 C178 1.500 . S
C177 C172 1.396 . S
C177 C176 1.355 1_554 S
C177 H195 0.931 . S
C178 C176 1.500 . S
C178 C179 1.371 . S
C178 C180 1.365 . S
C179 C178 1.371 . S
C179 C189 1.386 . S
C179 H197 0.931 . S
C180 C178 1.365 . S
C180 C181 1.409 . S
C180 H198 0.929 . S
C181 C180 1.409 . S
C181 C182 1.380 . S
C181 H199 0.930 . S
C182 C181 1.380 . S
C182 C189 1.357 . S
C183 C174 1.511 . S
C183 C184 1.341 1_556 S
C183 C185 1.371 . S
C184 C183 1.341 1_554 S
C184 C188 1.394 . S
C184 H200 0.930 . S
C185 C183 1.371 . S
C185 C186 1.392 . S
C185 H201 0.931 . S
C186 C185 1.392 . S
C186 C187 1.321 1_556 S
C186 H204 0.932 . S
C187 C186 1.321 1_554 S
C187 C188 1.346 . S
C188 C184 1.394 . S
C188 C187 1.346 . S
C188 H203 0.929 . S
C189 C179 1.386 . S
C189 C182 1.357 . S
C189 H202 0.928 . S
H190 C166 0.931 . S
H191 C168 0.930 . S
H192 C170 0.929 . S
H193 C171 0.931 . S
H194 C173 0.930 . S
H195 C177 0.931 . S
H196 C175 0.931 . S
H197 C179 0.931 . S
H198 C180 0.929 . S
H199 C181 0.930 . S
H200 C184 0.930 . S
H201 C185 0.931 . S
H202 C189 0.928 . S
H203 C188 0.929 . S
H204 C186 0.932 . S
C205 C206 1.386 . S
C205 C207 1.397 . S
C205 H229 0.931 . S
C206 C205 1.386 . S
C206 C210 1.397 . S
C207 C205 1.397 . S
C207 C208 1.384 . S
C207 H230 0.930 . S
C208 C207 1.384 . S
C208 C209 1.377 . S
C208 C211 1.481 . S
C209 C208 1.377 . S
C209 C210 1.389 . S
C209 H231 0.929 . S
C210 C206 1.397 . S
C210 C209 1.389 . S
C210 H232 0.931 . S
C211 C208 1.481 . S
C211 C212 1.387 1_455 S
C211 C216 1.390 . S
C212 C211 1.387 1_655 S
C212 C213 1.401 . S
C212 H233 0.930 . S
C213 C212 1.401 . S
C213 C214 1.376 . S
C213 C222 1.511 . S
C214 C213 1.376 . S
C214 C215 1.392 1_655 S
C214 H235 0.931 . S
C215 C214 1.392 1_455 S
C215 C216 1.361 . S
C215 C217 1.500 . S
C216 C211 1.390 . S
C216 C215 1.361 . S
C216 H234 0.931 . S
C217 C215 1.500 . S
C217 C218 1.371 . S
C217 C219 1.365 . S
C218 C217 1.371 . S
C218 C228 1.386 . S
C218 H236 0.931 . S
C219 C217 1.365 . S
C219 C220 1.409 . S
C219 H237 0.929 . S
C220 C219 1.409 . S
C220 C221 1.380 . S
C220 H238 0.930 . S
C221 C220 1.380 . S
C221 C228 1.357 . S
C222 C213 1.511 . S
C222 C223 1.341 . S
C222 C224 1.371 . S
C223 C222 1.341 . S
C223 C227 1.394 . S
C223 H239 0.930 . S
C224 C222 1.371 . S
C224 C225 1.392 . S
C224 H240 0.931 . S
C225 C224 1.392 . S
C225 C226 1.331 . S
C225 H243 0.932 . S
C226 C225 1.331 . S
C226 C227 1.336 . S
C227 C223 1.394 . S
C227 C226 1.336 . S
C227 H242 0.929 . S
C228 C218 1.386 . S
C228 C221 1.357 . S
C228 H241 0.928 . S
H229 C205 0.931 . S
H230 C207 0.930 . S
H231 C209 0.929 . S
H232 C210 0.931 . S
H233 C212 0.930 . S
H234 C216 0.931 . S
H235 C214 0.931 . S
H236 C218 0.931 . S
H237 C219 0.929 . S
H238 C220 0.930 . S
H239 C223 0.930 . S
H240 C224 0.931 . S
H241 C228 0.928 . S
H242 C227 0.929 . S
H243 C225 0.932 . S
C244 C245 1.386 . S
C244 C246 1.397 . S
C244 H268 0.931 . S
C245 C244 1.386 . S
C245 C249 1.397 . S
C246 C244 1.397 . S
C246 C247 1.384 . S
C246 H269 0.930 . S
C247 C246 1.384 . S
C247 C248 1.377 . S
C247 C250 1.481 . S
C248 C247 1.377 . S
C248 C249 1.389 . S
C248 H270 0.929 . S
C249 C245 1.397 . S
C249 C248 1.389 . S
C249 H271 0.931 . S
C250 C247 1.481 . S
C250 C251 1.387 1_565 S
C250 C255 1.390 . S
C251 C250 1.387 1_545 S
C251 C252 1.401 . S
C251 H272 0.930 . S
C252 C251 1.401 . S
C252 C253 1.376 . S
C252 C261 1.511 . S
C253 C252 1.376 . S
C253 C254 1.392 1_545 S
C253 H274 0.931 . S
C254 C253 1.392 1_565 S
C254 C255 1.361 . S
C254 C256 1.500 . S
C255 C250 1.390 . S
C255 C254 1.361 . S
C255 H273 0.931 . S
C256 C254 1.500 . S
C256 C257 1.371 . S
C256 C258 1.365 . S
C257 C256 1.371 . S
C257 C267 1.386 . S
C257 H275 0.931 . S
C258 C256 1.365 . S
C258 C259 1.409 . S
C258 H276 0.929 . S
C259 C258 1.409 . S
C259 C260 1.380 . S
C259 H277 0.930 . S
C260 C259 1.380 . S
C260 C267 1.357 . S
C261 C252 1.511 . S
C261 C262 1.341 . S
C261 C263 1.371 . S
C262 C261 1.341 . S
C262 C266 1.394 . S
C262 H278 0.930 . S
C263 C261 1.371 . S
C263 C264 1.392 . S
C263 H279 0.931 . S
C264 C263 1.392 . S
C264 C265 1.331 . S
C264 H282 0.932 . S
C265 C264 1.331 . S
C265 C266 1.336 . S
C266 C262 1.394 . S
C266 C265 1.336 . S
C266 H281 0.929 . S
C267 C257 1.386 . S
C267 C260 1.357 . S
C267 H280 0.928 . S
H268 C244 0.931 . S
H269 C246 0.930 . S
H270 C248 0.929 . S
H271 C249 0.931 . S
H272 C251 0.930 . S
H273 C255 0.931 . S
H274 C253 0.931 . S
H275 C257 0.931 . S
H276 C258 0.929 . S
H277 C259 0.930 . S
H278 C262 0.930 . S
H279 C263 0.931 . S
H280 C267 0.928 . S
H281 C266 0.929 . S
H282 C264 0.932 . S
C283 C284 1.386 . S
C283 C285 1.397 . S
C283 H307 0.931 . S
C284 C283 1.386 . S
C284 C288 1.397 . S
C285 C283 1.397 . S
C285 C286 1.384 . S
C285 H308 0.930 . S
C286 C285 1.384 . S
C286 C287 1.377 . S
C286 C289 1.481 . S
C287 C286 1.377 . S
C287 C288 1.389 . S
C287 H309 0.929 . S
C288 C284 1.397 . S
C288 C287 1.389 . S
C288 H310 0.931 . S
C289 C286 1.481 . S
C289 C290 1.387 . S
C289 C294 1.387 1_554 S
C290 C289 1.387 . S
C290 C291 1.401 1_554 S
C290 H311 0.930 . S
C291 C290 1.401 1_556 S
C291 C292 1.376 . S
C291 C300 1.511 . S
C292 C291 1.376 . S
C292 C293 1.392 . S
C292 H313 0.931 . S
C293 C292 1.392 . S
C293 C294 1.365 . S
C293 C295 1.500 . S
C294 C289 1.387 1_556 S
C294 C293 1.365 . S
C294 H312 0.931 . S
C295 C293 1.500 . S
C295 C296 1.371 . S
C295 C297 1.365 . S
C296 C295 1.371 . S
C296 C306 1.386 . S
C296 H314 0.931 . S
C297 C295 1.365 . S
C297 C298 1.409 . S
C297 H315 0.929 . S
C298 C297 1.409 . S
C298 C299 1.380 . S
C298 H316 0.930 . S
C299 C298 1.380 . S
C299 C306 1.357 . S
C300 C291 1.511 . S
C300 C301 1.341 1_556 S
C300 C302 1.371 . S
C301 C300 1.341 1_554 S
C301 C305 1.394 . S
C301 H317 0.930 . S
C302 C300 1.371 . S
C302 C303 1.392 . S
C302 H318 0.931 . S
C303 C302 1.392 . S
C303 C304 1.330 1_556 S
C303 H321 0.932 . S
C304 C303 1.330 1_554 S
C304 C305 1.337 . S
C305 C301 1.394 . S
C305 C304 1.337 . S
C305 H320 0.929 . S
C306 C296 1.386 . S
C306 C299 1.357 . S
C306 H319 0.928 . S
H307 C283 0.931 . S
H308 C285 0.930 . S
H309 C287 0.929 . S
H310 C288 0.931 . S
H311 C290 0.930 . S
H312 C294 0.931 . S
H313 C292 0.931 . S
H314 C296 0.931 . S
H315 C297 0.929 . S
H316 C298 0.930 . S
H317 C301 0.930 . S
H318 C302 0.931 . S
H319 C306 0.928 . S
H320 C305 0.929 . S
H321 C303 0.932 . S
C322 C323 1.386 . S
C322 C324 1.397 . S
C322 H346 0.931 . S
C323 C322 1.386 . S
C323 C327 1.397 . S
C324 C322 1.397 . S
C324 C325 1.384 . S
C324 H347 0.930 . S
C325 C324 1.384 . S
C325 C326 1.377 . S
C325 C328 1.481 . S
C326 C325 1.377 . S
C326 C327 1.389 . S
C326 H348 0.929 . S
C327 C323 1.397 . S
C327 C326 1.389 . S
C327 H349 0.931 . S
C328 C325 1.481 . S
C328 C329 1.387 1_545 S
C328 C333 1.390 . S
C329 C328 1.387 1_565 S
C329 C330 1.401 . S
C329 H350 0.930 . S
C330 C329 1.401 . S
C330 C331 1.376 . S
C330 C339 1.511 . S
C331 C330 1.376 . S
C331 C332 1.392 1_565 S
C331 H352 0.931 . S
C332 C331 1.392 1_545 S
C332 C333 1.361 . S
C332 C334 1.500 . S
C333 C328 1.390 . S
C333 C332 1.361 . S
C333 H351 0.931 . S
C334 C332 1.500 . S
C334 C335 1.371 . S
C334 C336 1.365 . S
C335 C334 1.371 . S
C335 C345 1.386 . S
C335 H353 0.931 . S
C336 C334 1.365 . S
C336 C337 1.409 . S
C336 H354 0.929 . S
C337 C336 1.409 . S
C337 C338 1.380 . S
C337 H355 0.930 . S
C338 C337 1.380 . S
C338 C345 1.357 . S
C339 C330 1.511 . S
C339 C340 1.341 . S
C339 C341 1.371 . S
C340 C339 1.341 . S
C340 C344 1.394 . S
C340 H356 0.930 . S
C341 C339 1.371 . S
C341 C342 1.392 . S
C341 H357 0.931 . S
C342 C341 1.392 . S
C342 C343 1.331 . S
C342 H360 0.932 . S
C343 C342 1.331 . S
C343 C344 1.336 . S
C344 C340 1.394 . S
C344 C343 1.336 . S
C344 H359 0.929 . S
C345 C335 1.386 . S
C345 C338 1.357 . S
C345 H358 0.928 . S
H346 C322 0.931 . S
H347 C324 0.930 . S
H348 C326 0.929 . S
H349 C327 0.931 . S
H350 C329 0.930 . S
H351 C333 0.931 . S
H352 C331 0.931 . S
H353 C335 0.931 . S
H354 C336 0.929 . S
H355 C337 0.930 . S
H356 C340 0.930 . S
H357 C341 0.931 . S
H358 C345 0.928 . S
H359 C344 0.929 . S
H360 C342 0.932 . S
C361 C362 1.386 . S
C361 C363 1.397 . S
C361 H385 0.931 . S
C362 C361 1.386 . S
C362 C366 1.397 . S
C363 C361 1.397 . S
C363 C364 1.384 . S
C363 H386 0.930 . S
C364 C363 1.384 . S
C364 C365 1.377 . S
C364 C367 1.481 . S
C365 C364 1.377 . S
C365 C366 1.389 . S
C365 H387 0.929 . S
C366 C362 1.397 . S
C366 C365 1.389 . S
C366 H388 0.931 . S
C367 C364 1.481 . S
C367 C368 1.387 . S
C367 C372 1.390 1_556 S
C368 C367 1.387 . S
C368 C369 1.401 1_556 S
C368 H389 0.930 . S
C369 C368 1.401 1_554 S
C369 C370 1.376 . S
C369 C378 1.511 . S
C370 C369 1.376 . S
C370 C371 1.392 . S
C370 H391 0.931 . S
C371 C370 1.392 . S
C371 C372 1.361 . S
C371 C373 1.500 . S
C372 C367 1.390 1_554 S
C372 C371 1.361 . S
C372 H390 0.931 . S
C373 C371 1.500 . S
C373 C374 1.371 . S
C373 C375 1.365 . S
C374 C373 1.371 . S
C374 C384 1.386 . S
C374 H392 0.931 . S
C375 C373 1.365 . S
C375 C376 1.409 . S
C375 H393 0.929 . S
C376 C375 1.409 . S
C376 C377 1.380 . S
C376 H394 0.930 . S
C377 C376 1.380 . S
C377 C384 1.357 . S
C378 C369 1.511 . S
C378 C379 1.341 1_554 S
C378 C380 1.371 . S
C379 C378 1.341 1_556 S
C379 C383 1.394 . S
C379 H395 0.930 . S
C380 C378 1.371 . S
C380 C381 1.392 . S
C380 H396 0.931 . S
C381 C380 1.392 . S
C381 C382 1.331 . S
C381 H399 0.932 . S
C382 C381 1.331 . S
C382 C383 1.336 1_554 S
C383 C379 1.394 . S
C383 C382 1.336 1_556 S
C383 H398 0.929 . S
C384 C374 1.386 . S
C384 C377 1.357 . S
C384 H397 0.928 . S
H385 C361 0.931 . S
H386 C363 0.930 . S
H387 C365 0.929 . S
H388 C366 0.931 . S
H389 C368 0.930 . S
H390 C372 0.931 . S
H391 C370 0.931 . S
H392 C374 0.931 . S
H393 C375 0.929 . S
H394 C376 0.930 . S
H395 C379 0.930 . S
H396 C380 0.931 . S
H397 C384 0.928 . S
H398 C383 0.929 . S
H399 C381 0.932 . S
C21 C221 2.051 . S
C40 C89 2.501 . S
C128 C54 2.075 . S
C73 C182 2.562 . S
C284 C74 2.074 . S
C338 C10 2.492 . S
C377 C37 2.051 . S
C245 C65 2.571 . S
C52 C143 2.131 . S
C87 C167 2.538 . S
C15 C206 2.112 . S
C104 C32 2.462 . S
C29 C362 2.112 . S
C260 C59 2.539 . S
C299 C84 2.132 . S
C8 C323 2.462 . S
C109 C7 2.630 . S
C148 C30 2.083 . S
C62 C187 2.581 . S
C81 C226 2.015 . S
C265 C76 2.632 . S
C18 C304 2.083 1_556 S
C43 C343 2.579 . S
C51 C382 2.015 1_556 S
