# Generated by pormake.
# Topology ssb, (4,4)-cn, num edge types: 1
# Building blocks:
#     Node 0, Type 0, BuildingBlock: AZAVOO_clean_linker_0, # of connection points: 4
#     Node 1, Type 0, BuildingBlock: AZAVOO_clean_linker_0, # of connection points: 4
#     Node 2, Type 0, BuildingBlock: AZAVOO_clean_linker_0, # of connection points: 4
#     Node 3, Type 0, BuildingBlock: AZAVOO_clean_linker_0, # of connection points: 4
#     Node 4, Type 0, BuildingBlock: AZAVOO_clean_linker_0, # of connection points: 4
#     Node 5, Type 0, BuildingBlock: AZAVOO_clean_linker_0, # of connection points: 4
#     Node 6, Type 0, BuildingBlock: AZAVOO_clean_linker_0, # of connection points: 4
#     Node 7, Type 0, BuildingBlock: AZAVOO_clean_linker_0, # of connection points: 4
#     Node 8, Type 1, BuildingBlock: KOZSID_clean_sbu_0, # of connection points: 4
#     Node 9, Type 1, BuildingBlock: KOZSID_clean_sbu_0, # of connection points: 4
#     Node 10, Type 1, BuildingBlock: KOZSID_clean_sbu_0, # of connection points: 4
#     Node 11, Type 1, BuildingBlock: KOZSID_clean_sbu_0, # of connection points: 4
#     Node 12, Type 1, BuildingBlock: KOZSID_clean_sbu_0, # of connection points: 4
#     Node 13, Type 1, BuildingBlock: KOZSID_clean_sbu_0, # of connection points: 4
#     Node 14, Type 1, BuildingBlock: KOZSID_clean_sbu_0, # of connection points: 4
#     Node 15, Type 1, BuildingBlock: KOZSID_clean_sbu_0, # of connection points: 4
#     Edge 16, Type (0, 1), BuildingBlock: MIFKUJ_clean_linker_0, # of connection points: 2
#     Edge 17, Type (0, 1), BuildingBlock: MIFKUJ_clean_linker_0, # of connection points: 2
#     Edge 18, Type (0, 1), BuildingBlock: MIFKUJ_clean_linker_0, # of connection points: 2
#     Edge 19, Type (0, 1), BuildingBlock: MIFKUJ_clean_linker_0, # of connection points: 2
#     Edge 20, Type (0, 1), BuildingBlock: MIFKUJ_clean_linker_0, # of connection points: 2
#     Edge 21, Type (0, 1), BuildingBlock: MIFKUJ_clean_linker_0, # of connection points: 2
#     Edge 22, Type (0, 1), BuildingBlock: MIFKUJ_clean_linker_0, # of connection points: 2
#     Edge 23, Type (0, 1), BuildingBlock: MIFKUJ_clean_linker_0, # of connection points: 2
#     Edge 24, Type (0, 1), BuildingBlock: MIFKUJ_clean_linker_0, # of connection points: 2
#     Edge 25, Type (0, 1), BuildingBlock: MIFKUJ_clean_linker_0, # of connection points: 2
#     Edge 26, Type (0, 1), BuildingBlock: MIFKUJ_clean_linker_0, # of connection points: 2
#     Edge 27, Type (0, 1), BuildingBlock: MIFKUJ_clean_linker_0, # of connection points: 2
#     Edge 28, Type (0, 1), BuildingBlock: MIFKUJ_clean_linker_0, # of connection points: 2
#     Edge 29, Type (0, 1), BuildingBlock: MIFKUJ_clean_linker_0, # of connection points: 2
#     Edge 30, Type (0, 1), BuildingBlock: MIFKUJ_clean_linker_0, # of connection points: 2
#     Edge 31, Type (0, 1), BuildingBlock: MIFKUJ_clean_linker_0, # of connection points: 2
#     Edge 32, Type (0, 1), BuildingBlock: MIFKUJ_clean_linker_0, # of connection points: 2
#     Edge 33, Type (0, 1), BuildingBlock: MIFKUJ_clean_linker_0, # of connection points: 2
#     Edge 34, Type (0, 1), BuildingBlock: MIFKUJ_clean_linker_0, # of connection points: 2
#     Edge 35, Type (0, 1), BuildingBlock: MIFKUJ_clean_linker_0, # of connection points: 2
#     Edge 36, Type (0, 1), BuildingBlock: MIFKUJ_clean_linker_0, # of connection points: 2
#     Edge 37, Type (0, 1), BuildingBlock: MIFKUJ_clean_linker_0, # of connection points: 2
#     Edge 38, Type (0, 1), BuildingBlock: MIFKUJ_clean_linker_0, # of connection points: 2
#     Edge 39, Type (0, 1), BuildingBlock: MIFKUJ_clean_linker_0, # of connection points: 2
#     Edge 40, Type (0, 1), BuildingBlock: MIFKUJ_clean_linker_0, # of connection points: 2
#     Edge 41, Type (0, 1), BuildingBlock: MIFKUJ_clean_linker_0, # of connection points: 2
#     Edge 42, Type (0, 1), BuildingBlock: MIFKUJ_clean_linker_0, # of connection points: 2
#     Edge 43, Type (0, 1), BuildingBlock: MIFKUJ_clean_linker_0, # of connection points: 2
#     Edge 44, Type (0, 1), BuildingBlock: MIFKUJ_clean_linker_0, # of connection points: 2
#     Edge 45, Type (0, 1), BuildingBlock: MIFKUJ_clean_linker_0, # of connection points: 2
#     Edge 46, Type (0, 1), BuildingBlock: MIFKUJ_clean_linker_0, # of connection points: 2
#     Edge 47, Type (0, 1), BuildingBlock: MIFKUJ_clean_linker_0, # of connection points: 2
# Relax obj value: 0.042
# Max RMSD: 0.287
# Mean RMSD: 0.108
data_MOF--net-ssb--node1-KOZSID_clean_sbu_0--node2-AZAVOO_clean_linker_0--edge1-MIFKUJ_clean_linker_0
_symmetry_space_group_name_H-M    P1
_symmetry_Int_Tables_number       1
_symmetry_cell_setting            triclinic
loop_
_symmetry_equiv_pos_as_xyz
'x, y, z'
_cell_length_a     74.225702
_cell_length_b     76.2164
_cell_length_c     54.569318
_cell_angle_alpha  94.165094
_cell_angle_beta   93.847447
_cell_angle_gamma 90.229486
loop_
_atom_site_label
_atom_site_type_symbol
_atom_site_fract_x
_atom_site_fract_y
_atom_site_fract_z
_atom_type_partial_charge
H0 H 0.17399 0.46364 0.29565 0.0
H1 H 0.31478 0.40344 0.11492 0.0
H2 H 0.23967 0.39658 0.30977 0.0
H3 H 0.21513 0.39381 0.33721 0.0
H4 H 0.19012 0.35346 0.28623 0.0
H5 H 0.21476 0.35628 0.25893 0.0
H6 H 0.24145 0.42804 0.2741 0.0
H7 H 0.21651 0.44718 0.28567 0.0
H8 H 0.17835 0.40873 0.25034 0.0
H9 H 0.20342 0.38983 0.23868 0.0
H10 H 0.27344 0.42755 0.23321 0.0
H11 H 0.27068 0.4526 0.20774 0.0
H12 H 0.2201 0.43131 0.17404 0.0
H13 H 0.22347 0.40589 0.19886 0.0
H14 H 0.3009 0.39694 0.23352 0.0
H15 H 0.32107 0.40369 0.20169 0.0
H16 H 0.27763 0.39233 0.14585 0.0
H17 H 0.25766 0.38551 0.17783 0.0
H18 H 0.29808 0.36572 0.27031 0.0
H19 H 0.32442 0.34859 0.25892 0.0
H20 H 0.29792 0.33524 0.18686 0.0
H21 H 0.27133 0.35133 0.1991 0.0
H22 H 0.2694 0.36915 0.30732 0.0
H23 H 0.2745 0.34414 0.33242 0.0
H24 H 0.25408 0.30897 0.27094 0.0
H25 H 0.24976 0.33413 0.24576 0.0
O26 O 0.18366 0.45613 0.29027 0.0
O27 O 0.16464 0.43614 0.27127 0.0
O28 O 0.32797 0.4093 0.15752 0.0
O29 O 0.30719 0.40058 0.12784 0.0
C30 C 0.24188 0.38041 0.26402 0.0
C31 C 0.23929 0.39541 0.25036 0.0
C32 C 0.25117 0.39894 0.23215 0.0
C33 C 0.26545 0.3872 0.22736 0.0
C34 C 0.26797 0.37214 0.24099 0.0
C35 C 0.2563 0.36885 0.2596 0.0
C36 C 0.22892 0.37663 0.28245 0.0
C37 C 0.22911 0.38686 0.30487 0.0
C38 C 0.21512 0.38526 0.32046 0.0
C39 C 0.20071 0.3735 0.3137 0.0
C40 C 0.20101 0.36272 0.29172 0.0
C41 C 0.21509 0.3642 0.27627 0.0
C42 C 0.22422 0.40757 0.2556 0.0
C43 C 0.2277 0.42389 0.26865 0.0
C44 C 0.21343 0.43474 0.27533 0.0
C45 C 0.19543 0.42944 0.26905 0.0
C46 C 0.19204 0.4132 0.25553 0.0
C47 C 0.20632 0.40239 0.24883 0.0
C48 C 0.24868 0.41485 0.21791 0.0
C49 C 0.26176 0.42832 0.22034 0.0
C50 C 0.26007 0.44271 0.20585 0.0
C51 C 0.24516 0.44404 0.18872 0.0
C52 C 0.23191 0.43063 0.18671 0.0
C53 C 0.23368 0.41618 0.2011 0.0
C54 C 0.27783 0.39078 0.20797 0.0
C55 C 0.29581 0.39583 0.21439 0.0
C56 C 0.30727 0.39973 0.19619 0.0
C57 C 0.30092 0.39863 0.17123 0.0
C58 C 0.28295 0.39333 0.16488 0.0
C59 C 0.2715 0.38946 0.1831 0.0
C60 C 0.28286 0.35985 0.23547 0.0
C61 C 0.29782 0.35865 0.25234 0.0
C62 C 0.31294 0.34902 0.24566 0.0
C63 C 0.31346 0.34067 0.22183 0.0
C64 C 0.29801 0.34124 0.20547 0.0
C65 C 0.28282 0.3506 0.21232 0.0
C66 C 0.25924 0.35347 0.27471 0.0
C67 C 0.26607 0.35602 0.2993 0.0
C68 C 0.26884 0.34167 0.31367 0.0
C69 C 0.26465 0.32441 0.30385 0.0
C70 C 0.25775 0.32197 0.27911 0.0
C71 C 0.25514 0.33634 0.26469 0.0
C72 C 0.18028 0.44073 0.27684 0.0
C73 C 0.3129 0.40315 0.15187 0.0
H74 H 0.64861 0.18472 0.28509 0.0
H75 H 0.80355 0.23258 0.48098 0.0
H76 H 0.72697 0.25392 0.27818 0.0
H77 H 0.70416 0.25751 0.24465 0.0
H78 H 0.66925 0.28288 0.29669 0.0
H79 H 0.69282 0.28038 0.32962 0.0
H80 H 0.71786 0.22193 0.30327 0.0
H81 H 0.69134 0.20351 0.2902 0.0
H82 H 0.66151 0.23093 0.34647 0.0
H83 H 0.68815 0.24927 0.35926 0.0
H84 H 0.74362 0.21052 0.34881 0.0
H85 H 0.73729 0.18432 0.37034 0.0
H86 H 0.70723 0.21624 0.42199 0.0
H87 H 0.71306 0.24212 0.39963 0.0
H88 H 0.78122 0.23996 0.36162 0.0
H89 H 0.80301 0.23132 0.39416 0.0
H90 H 0.76585 0.24805 0.44882 0.0
H91 H 0.74431 0.25681 0.41612 0.0
H92 H 0.7808 0.27507 0.32776 0.0
H93 H 0.80827 0.2917 0.34156 0.0
H94 H 0.78665 0.30371 0.41251 0.0
H95 H 0.75878 0.28828 0.39778 0.0
H96 H 0.75084 0.27582 0.28779 0.0
H97 H 0.75675 0.30245 0.26696 0.0
H98 H 0.74339 0.33437 0.33177 0.0
H99 H 0.73682 0.30764 0.3522 0.0
O100 O 0.65894 0.19212 0.29057 0.0
O101 O 0.64418 0.20668 0.3197 0.0
O102 O 0.81386 0.22757 0.43894 0.0
O103 O 0.7952 0.23587 0.46775 0.0
C104 C 0.72446 0.26298 0.32683 0.0
C105 C 0.72088 0.24813 0.33977 0.0
C106 C 0.73263 0.24386 0.35972 0.0
C107 C 0.74813 0.25426 0.36669 0.0
C108 C 0.75162 0.26933 0.35403 0.0
C109 C 0.73974 0.2737 0.33405 0.0
C110 C 0.71169 0.26727 0.30616 0.0
C111 C 0.71465 0.26082 0.2821 0.0
C112 C 0.7014 0.26257 0.26306 0.0
C113 C 0.6847 0.27035 0.26789 0.0
C114 C 0.682 0.27711 0.29208 0.0
C115 C 0.69543 0.27566 0.31099 0.0
C116 C 0.70486 0.23686 0.33218 0.0
C117 C 0.70557 0.22389 0.31273 0.0
C118 C 0.69041 0.21341 0.30532 0.0
C119 C 0.6743 0.21575 0.31729 0.0
C120 C 0.6737 0.22878 0.33686 0.0
C121 C 0.68888 0.23925 0.34423 0.0
C122 C 0.7289 0.22812 0.37287 0.0
C123 C 0.73564 0.21175 0.36475 0.0
C124 C 0.73208 0.19687 0.37715 0.0
C125 C 0.72181 0.19819 0.39797 0.0
C126 C 0.71497 0.21469 0.40585 0.0
C127 C 0.71842 0.22952 0.3933 0.0
C128 C 0.76116 0.24887 0.38653 0.0
C129 C 0.77782 0.24171 0.38064 0.0
C130 C 0.79023 0.2368 0.39926 0.0
C131 C 0.78615 0.23896 0.42411 0.0
C132 C 0.7694 0.24616 0.42989 0.0
C133 C 0.75703 0.2511 0.41125 0.0
C134 C 0.76782 0.2804 0.3618 0.0
C135 C 0.78189 0.28163 0.34609 0.0
C136 C 0.79769 0.29095 0.35417 0.0
C137 C 0.79986 0.29895 0.3783 0.0
C138 C 0.78548 0.29799 0.39373 0.0
C139 C 0.76957 0.28898 0.38545 0.0
C140 C 0.74302 0.28981 0.32129 0.0
C141 C 0.74876 0.28855 0.29727 0.0
C142 C 0.75225 0.30373 0.28548 0.0
C143 C 0.75045 0.3204 0.29778 0.0
C144 C 0.74492 0.32164 0.32196 0.0
C145 C 0.74111 0.30645 0.33357 0.0
C146 C 0.6582 0.20462 0.30934 0.0
C147 C 0.79928 0.23377 0.44396 0.0
H148 H 0.67993 0.87577 0.33937 0.0
H149 H 0.69842 0.68963 0.20301 0.0
H150 H 0.7609 0.81528 0.33949 0.0
H151 H 0.76221 0.8389 0.37229 0.0
H152 H 0.7336 0.80568 0.41799 0.0
H153 H 0.73148 0.7826 0.3844 0.0
H154 H 0.72989 0.82141 0.30563 0.0
H155 H 0.71174 0.84739 0.31561 0.0
H156 H 0.68043 0.81698 0.36178 0.0
H157 H 0.69865 0.79109 0.3515 0.0
H158 H 0.72696 0.79815 0.26285 0.0
H159 H 0.70386 0.80945 0.23426 0.0
H160 H 0.6627 0.78226 0.26975 0.0
H161 H 0.68615 0.77064 0.29798 0.0
H162 H 0.73653 0.76599 0.24697 0.0
H163 H 0.72724 0.74539 0.21187 0.0
H164 H 0.7059 0.71007 0.26155 0.0
H165 H 0.71508 0.73091 0.29646 0.0
H166 H 0.76681 0.75028 0.2717 0.0
H167 H 0.78038 0.72213 0.25983 0.0
H168 H 0.76563 0.70208 0.32797 0.0
H169 H 0.75114 0.73009 0.33895 0.0
H170 H 0.78533 0.77269 0.31475 0.0
H171 H 0.81473 0.77082 0.337 0.0
H172 H 0.78849 0.76179 0.40345 0.0
H173 H 0.75907 0.76245 0.38041 0.0
O174 O 0.68697 0.86535 0.33573 0.0
O175 O 0.67142 0.84918 0.35942 0.0
O176 O 0.71316 0.71675 0.19176 0.0
O177 O 0.7021 0.69808 0.21653 0.0
C178 C 0.74162 0.78487 0.3379 0.0
C179 C 0.72663 0.78873 0.32197 0.0
C180 C 0.72232 0.77788 0.30039 0.0
C181 C 0.73214 0.76236 0.29555 0.0
C182 C 0.74724 0.75842 0.31141 0.0
C183 C 0.75235 0.77002 0.33221 0.0
C184 C 0.74627 0.7972 0.3597 0.0
C185 C 0.75536 0.81299 0.35686 0.0
C186 C 0.75608 0.82647 0.37569 0.0
C187 C 0.74785 0.82432 0.39782 0.0
C188 C 0.73975 0.80798 0.40107 0.0
C189 C 0.7388 0.79463 0.38207 0.0
C190 C 0.7155 0.80442 0.32778 0.0
C191 C 0.71905 0.8204 0.3178 0.0
C192 C 0.70869 0.83521 0.32358 0.0
C193 C 0.69462 0.83426 0.33948 0.0
C194 C 0.69115 0.81817 0.34946 0.0
C195 C 0.7015 0.80337 0.34362 0.0
C196 C 0.70818 0.78348 0.28225 0.0
C197 C 0.71296 0.79448 0.26421 0.0
C198 C 0.69973 0.80107 0.2481 0.0
C199 C 0.68142 0.79687 0.24985 0.0
C200 C 0.6767 0.7856 0.26779 0.0
C201 C 0.69002 0.77898 0.28392 0.0
C202 C 0.72629 0.75001 0.27419 0.0
C203 C 0.72965 0.7539 0.25019 0.0
C204 C 0.72443 0.74206 0.2302 0.0
C205 C 0.71579 0.72608 0.2339 0.0
C206 C 0.71249 0.72225 0.25804 0.0
C207 C 0.71769 0.73413 0.278 0.0
C208 C 0.75771 0.74215 0.30598 0.0
C209 C 0.76655 0.73981 0.28408 0.0
C210 C 0.77448 0.72373 0.27747 0.0
C211 C 0.77402 0.7097 0.29285 0.0
C212 C 0.76593 0.71243 0.31543 0.0
C213 C 0.75781 0.72849 0.32189 0.0
C214 C 0.77004 0.76791 0.346 0.0
C215 C 0.78594 0.77008 0.33404 0.0
C216 C 0.80275 0.76922 0.34691 0.0
C217 C 0.80404 0.76648 0.37219 0.0
C218 C 0.78804 0.76386 0.384 0.0
C219 C 0.77119 0.76446 0.37095 0.0
C220 C 0.68361 0.85 0.34555 0.0
C221 C 0.7103 0.71341 0.21274 0.0
H222 H 0.3331 0.96087 0.27628 0.0
H223 H 0.27122 0.80629 0.09855 0.0
H224 H 0.26378 0.89533 0.29773 0.0
H225 H 0.26016 0.92198 0.32492 0.0
H226 H 0.21815 0.93953 0.274 0.0
H227 H 0.22161 0.91268 0.2471 0.0
H228 H 0.29681 0.89229 0.26083 0.0
H229 H 0.31597 0.91835 0.27115 0.0
H230 H 0.27421 0.95079 0.23929 0.0
H231 H 0.25537 0.92457 0.2286 0.0
H232 H 0.29708 0.85718 0.22102 0.0
H233 H 0.32428 0.85976 0.19884 0.0
H234 H 0.30286 0.90651 0.16746 0.0
H235 H 0.27513 0.90306 0.18854 0.0
H236 H 0.26832 0.82935 0.21858 0.0
H237 H 0.27426 0.80718 0.18546 0.0
H238 H 0.26015 0.84471 0.13173 0.0
H239 H 0.25395 0.86667 0.16503 0.0
H240 H 0.23996 0.83239 0.25623 0.0
H241 H 0.22707 0.80322 0.24366 0.0
H242 H 0.20564 0.82254 0.17517 0.0
H243 H 0.2182 0.85167 0.18816 0.0
H244 H 0.23975 0.86665 0.29543 0.0
H245 H 0.21565 0.85857 0.32096 0.0
H246 H 0.17665 0.86242 0.25911 0.0
H247 H 0.20084 0.87116 0.23398 0.0
O248 O 0.32525 0.95076 0.27223 0.0
O249 O 0.30245 0.96712 0.25869 0.0
O250 O 0.27588 0.79595 0.14036 0.0
O251 O 0.26904 0.81483 0.11201 0.0
C252 C 0.24775 0.88826 0.25178 0.0
C253 C 0.26302 0.89072 0.23818 0.0
C254 C 0.26744 0.8779 0.21961 0.0
C255 C 0.25632 0.86283 0.21428 0.0
C256 C 0.24115 0.86032 0.22809 0.0
C257 C 0.237 0.87293 0.24709 0.0
C258 C 0.24295 0.90215 0.27053 0.0
C259 C 0.25339 0.90466 0.2929 0.0
C260 C 0.25131 0.91983 0.30835 0.0
C261 C 0.23894 0.93276 0.3014 0.0
C262 C 0.2278 0.92973 0.27966 0.0
C263 C 0.22967 0.91441 0.26442 0.0
C264 C 0.27471 0.90656 0.24401 0.0
C265 C 0.29189 0.90503 0.25598 0.0
C266 C 0.30277 0.91994 0.26189 0.0
C267 C 0.29661 0.93666 0.25607 0.0
C268 C 0.27936 0.93812 0.24408 0.0
C269 C 0.26856 0.92318 0.23799 0.0
C270 C 0.28409 0.87988 0.20633 0.0
C271 C 0.29821 0.86788 0.20917 0.0
C272 C 0.31387 0.86953 0.1967 0.0
C273 C 0.31589 0.88342 0.18142 0.0
C274 C 0.30171 0.89552 0.17878 0.0
C275 C 0.28592 0.89369 0.191 0.0
C276 C 0.26059 0.84957 0.19419 0.0
C277 C 0.26646 0.83273 0.19964 0.0
C278 C 0.26988 0.82011 0.18069 0.0
C279 C 0.26764 0.82417 0.15593 0.0
C280 C 0.26198 0.84115 0.15058 0.0
C281 C 0.25848 0.85373 0.16955 0.0
C282 C 0.23013 0.84404 0.22297 0.0
C283 C 0.23195 0.83043 0.2389 0.0
C284 C 0.22469 0.81378 0.23163 0.0
C285 C 0.21552 0.81054 0.20832 0.0
C286 C 0.21247 0.82463 0.19333 0.0
C287 C 0.21973 0.84126 0.20062 0.0
C288 C 0.22203 0.86954 0.26289 0.0
C289 C 0.22595 0.86607 0.28755 0.0
C290 C 0.21219 0.86124 0.302 0.0
C291 C 0.19423 0.85968 0.29201 0.0
C292 C 0.19029 0.86364 0.26744 0.0
C293 C 0.20409 0.86855 0.25302 0.0
C294 C 0.30821 0.95247 0.2624 0.0
C295 C 0.27113 0.81076 0.13571 0.0
H296 H 0.38253 0.95818 0.73598 0.0
H297 H 0.18819 0.93448 0.63768 0.0
H298 H 0.32793 0.88142 0.73949 0.0
H299 H 0.35368 0.87672 0.76831 0.0
H300 H 0.31961 0.88598 0.82916 0.0
H301 H 0.29413 0.89169 0.80005 0.0
H302 H 0.32154 0.91124 0.70426 0.0
H303 H 0.34876 0.92966 0.71067 0.0
H304 H 0.33426 0.94557 0.78442 0.0
H305 H 0.30697 0.92727 0.77765 0.0
H306 H 0.28335 0.91216 0.66945 0.0
H307 H 0.28583 0.9379 0.64583 0.0
H308 H 0.28838 0.97136 0.71356 0.0
H309 H 0.28432 0.9456 0.73668 0.0
H310 H 0.2561 0.8824 0.67152 0.0
H311 H 0.23171 0.88949 0.64151 0.0
H312 H 0.219 0.9354 0.68829 0.0
H313 H 0.24333 0.92808 0.71824 0.0
H314 H 0.26321 0.8516 0.70854 0.0
H315 H 0.23638 0.83374 0.69541 0.0
H316 H 0.20259 0.8756 0.72361 0.0
H317 H 0.22954 0.89293 0.73775 0.0
H318 H 0.29886 0.85112 0.74609 0.0
H319 H 0.29536 0.82542 0.76993 0.0
H320 H 0.24958 0.8498 0.80305 0.0
H321 H 0.25334 0.87554 0.77947 0.0
O322 O 0.37167 0.95102 0.73382 0.0
O323 O 0.36367 0.95868 0.77165 0.0
O324 O 0.20618 0.90865 0.62478 0.0
O325 O 0.19788 0.93136 0.64927 0.0
C326 C 0.29414 0.89163 0.75002 0.0
C327 C 0.29576 0.90672 0.73652 0.0
C328 C 0.28176 0.91109 0.7192 0.0
C329 C 0.26614 0.90028 0.71537 0.0
C330 C 0.26446 0.88524 0.72895 0.0
C331 C 0.2784 0.88094 0.74644 0.0
C332 C 0.3092 0.88702 0.76767 0.0
C333 C 0.32604 0.8824 0.75905 0.0
C334 C 0.34071 0.87956 0.77559 0.0
C335 C 0.33878 0.881 0.80114 0.0
C336 C 0.32168 0.88506 0.80966 0.0
C337 C 0.30705 0.88813 0.79307 0.0
C338 C 0.31228 0.91794 0.74048 0.0
C339 C 0.32424 0.91878 0.72174 0.0
C340 C 0.33979 0.92928 0.72548 0.0
C341 C 0.34369 0.93909 0.74806 0.0
C342 C 0.33167 0.93818 0.76681 0.0
C343 C 0.31609 0.92772 0.76302 0.0
C344 C 0.28355 0.92692 0.70484 0.0
C345 C 0.28418 0.92508 0.67913 0.0
C346 C 0.28588 0.93988 0.66567 0.0
C347 C 0.2874 0.9569 0.67764 0.0
C348 C 0.28691 0.95862 0.70349 0.0
C349 C 0.28482 0.94384 0.71686 0.0
C350 C 0.25145 0.90472 0.69705 0.0
C351 C 0.24799 0.89396 0.67526 0.0
C352 C 0.23409 0.89806 0.65814 0.0
C353 C 0.22341 0.91303 0.6625 0.0
C354 C 0.22695 0.92378 0.68437 0.0
C355 C 0.24086 0.91966 0.70147 0.0
C356 C 0.24831 0.87362 0.72391 0.0
C357 C 0.25002 0.85671 0.71239 0.0
C358 C 0.23466 0.84661 0.70469 0.0
C359 C 0.2173 0.85331 0.70817 0.0
C360 C 0.21572 0.86993 0.72083 0.0
C361 C 0.23109 0.87994 0.72875 0.0
C362 C 0.27639 0.86529 0.76103 0.0
C363 C 0.28817 0.85098 0.75864 0.0
C364 C 0.28615 0.8363 0.77228 0.0
C365 C 0.27216 0.83554 0.78835 0.0
C366 C 0.26035 0.84987 0.79062 0.0
C367 C 0.26251 0.86461 0.77721 0.0
C368 C 0.36025 0.9502 0.75198 0.0
C369 C 0.20866 0.91748 0.64434 0.0
H370 H 0.20635 0.48472 0.79119 0.0
H371 H 0.22301 0.3136 0.65209 0.0
H372 H 0.28795 0.43066 0.79568 0.0
H373 H 0.29283 0.45281 0.82989 0.0
H374 H 0.28182 0.41383 0.88089 0.0
H375 H 0.27601 0.3919 0.84611 0.0
H376 H 0.25485 0.42947 0.75629 0.0
H377 H 0.23561 0.45489 0.7646 0.0
H378 H 0.22056 0.43321 0.83147 0.0
H379 H 0.23982 0.40777 0.82286 0.0
H380 H 0.24612 0.39844 0.71536 0.0
H381 H 0.21628 0.4012 0.69395 0.0
H382 H 0.19123 0.38926 0.76016 0.0
H383 H 0.22101 0.38573 0.78089 0.0
H384 H 0.28029 0.37222 0.71192 0.0
H385 H 0.27065 0.35419 0.6743 0.0
H386 H 0.22612 0.33375 0.71115 0.0
H387 H 0.23599 0.35171 0.74867 0.0
H388 H 0.31486 0.37159 0.75562 0.0
H389 H 0.3322 0.34678 0.73914 0.0
H390 H 0.28753 0.31183 0.74889 0.0
H391 H 0.27107 0.33645 0.76709 0.0
H392 H 0.31846 0.39876 0.79927 0.0
H393 H 0.34461 0.38947 0.82498 0.0
H394 H 0.31389 0.34481 0.84433 0.0
H395 H 0.28783 0.35438 0.8191 0.0
O396 O 0.21424 0.47476 0.78863 0.0
O397 O 0.20399 0.4612 0.8197 0.0
O398 O 0.2486 0.33368 0.64764 0.0
O399 O 0.22732 0.32061 0.66683 0.0
C400 C 0.27554 0.39736 0.79714 0.0
C401 C 0.25953 0.40089 0.78286 0.0
C402 C 0.25366 0.38928 0.76253 0.0
C403 C 0.26436 0.37474 0.75546 0.0
C404 C 0.28036 0.37116 0.76975 0.0
C405 C 0.28564 0.38219 0.79103 0.0
C406 C 0.28151 0.40973 0.8184 0.0
C407 C 0.28687 0.42685 0.81428 0.0
C408 C 0.28982 0.43947 0.83396 0.0
C409 C 0.28769 0.43517 0.85828 0.0
C410 C 0.28332 0.41768 0.86242 0.0
C411 C 0.28018 0.40508 0.84262 0.0
C412 C 0.24872 0.4168 0.78898 0.0
C413 C 0.24747 0.43029 0.7728 0.0
C414 C 0.23647 0.44479 0.77759 0.0
C415 C 0.22646 0.44602 0.79861 0.0
C416 C 0.22802 0.4326 0.81504 0.0
C417 C 0.23907 0.41812 0.81025 0.0
C418 C 0.2357 0.3918 0.74962 0.0
C419 C 0.23415 0.39638 0.72514 0.0
C420 C 0.2171 0.3981 0.71305 0.0
C421 C 0.20135 0.39538 0.72532 0.0
C422 C 0.20305 0.39114 0.75002 0.0
C423 C 0.22005 0.38928 0.76198 0.0
C424 C 0.25879 0.36333 0.73295 0.0
C425 C 0.26851 0.36377 0.71184 0.0
C426 C 0.26294 0.35351 0.69037 0.0
C427 C 0.24753 0.34262 0.68968 0.0
C428 C 0.238 0.34202 0.71103 0.0
C429 C 0.24358 0.35229 0.73247 0.0
C430 C 0.2916 0.35586 0.76223 0.0
C431 C 0.30906 0.35848 0.75475 0.0
C432 C 0.31887 0.34428 0.74509 0.0
C433 C 0.31125 0.32724 0.74232 0.0
C434 C 0.29405 0.32463 0.75098 0.0
C435 C 0.28444 0.33876 0.76109 0.0
C436 C 0.30128 0.37725 0.80739 0.0
C437 C 0.31738 0.38709 0.8093 0.0
C438 C 0.33231 0.38168 0.8238 0.0
C439 C 0.33131 0.3664 0.83667 0.0
C440 C 0.31503 0.35676 0.83492 0.0
C441 C 0.30017 0.36214 0.82042 0.0
C442 C 0.21423 0.4611 0.80307 0.0
C443 C 0.24126 0.33205 0.66676 0.0
H444 H 0.87851 0.36304 0.87488 0.0
H445 H 0.81747 0.21972 0.67938 0.0
H446 H 0.81621 0.28979 0.88851 0.0
H447 H 0.81416 0.31121 0.92385 0.0
H448 H 0.76608 0.33266 0.88869 0.0
H449 H 0.76834 0.31121 0.85328 0.0
H450 H 0.84514 0.29425 0.84653 0.0
H451 H 0.86372 0.32027 0.85973 0.0
H452 H 0.81761 0.35345 0.84558 0.0
H453 H 0.79926 0.32735 0.83209 0.0
H454 H 0.84502 0.26852 0.79617 0.0
H455 H 0.86537 0.279 0.76673 0.0
H456 H 0.83024 0.32324 0.75534 0.0
H457 H 0.80962 0.31212 0.78362 0.0
H458 H 0.81809 0.23487 0.80145 0.0
H459 H 0.82479 0.21555 0.76547 0.0
H460 H 0.80434 0.25486 0.71774 0.0
H461 H 0.7975 0.27396 0.75388 0.0
H462 H 0.78653 0.23337 0.84243 0.0
H463 H 0.77265 0.20497 0.82837 0.0
H464 H 0.75455 0.22605 0.75951 0.0
H465 H 0.76733 0.25463 0.77452 0.0
H466 H 0.78242 0.26421 0.88525 0.0
H467 H 0.75482 0.25995 0.90662 0.0
H468 H 0.72262 0.26983 0.84018 0.0
H469 H 0.75012 0.27431 0.81917 0.0
O470 O 0.87094 0.35294 0.86946 0.0
O471 O 0.84679 0.3694 0.86204 0.0
O472 O 0.82617 0.20773 0.7193 0.0
O473 O 0.81499 0.22712 0.69391 0.0
C474 C 0.79564 0.28809 0.8454 0.0
C475 C 0.8096 0.29303 0.83083 0.0
C476 C 0.81287 0.28294 0.80886 0.0
C477 C 0.80293 0.26727 0.80224 0.0
C478 C 0.78872 0.26245 0.81657 0.0
C479 C 0.78473 0.27318 0.83777 0.0
C480 C 0.79244 0.29898 0.86836 0.0
C481 C 0.80501 0.29886 0.88872 0.0
C482 C 0.80379 0.31107 0.90889 0.0
C483 C 0.79002 0.32369 0.90896 0.0
C484 C 0.77694 0.3232 0.88902 0.0
C485 C 0.77811 0.3109 0.86891 0.0
C486 C 0.82085 0.30892 0.83852 0.0
C487 C 0.83911 0.30716 0.84623 0.0
C488 C 0.84967 0.32204 0.8538 0.0
C489 C 0.84213 0.33894 0.85378 0.0
C490 C 0.82382 0.34063 0.84588 0.0
C491 C 0.8133 0.32575 0.83825 0.0
C492 C 0.82583 0.28953 0.79197 0.0
C493 C 0.84174 0.28042 0.7872 0.0
C494 C 0.85341 0.28653 0.77053 0.0
C495 C 0.84942 0.30195 0.75855 0.0
C496 C 0.83359 0.31116 0.76381 0.0
C497 C 0.82187 0.30494 0.78021 0.0
C498 C 0.80739 0.25583 0.78027 0.0
C499 C 0.81509 0.23928 0.7832 0.0
C500 C 0.81891 0.22828 0.76263 0.0
C501 C 0.81512 0.23368 0.73872 0.0
C502 C 0.80744 0.25031 0.73588 0.0
C503 C 0.80359 0.26128 0.75648 0.0
C504 C 0.7782 0.246 0.80935 0.0
C505 C 0.77917 0.23193 0.82456 0.0
C506 C 0.77141 0.21564 0.81634 0.0
C507 C 0.76272 0.21303 0.79257 0.0
C508 C 0.76096 0.2275 0.77796 0.0
C509 C 0.76845 0.24384 0.78639 0.0
C510 C 0.76827 0.2696 0.85067 0.0
C511 C 0.76939 0.26543 0.87536 0.0
C512 C 0.75366 0.263 0.8875 0.0
C513 C 0.73659 0.26449 0.87501 0.0
C514 C 0.73557 0.26833 0.85017 0.0
C515 C 0.75126 0.27094 0.83816 0.0
C516 C 0.85336 0.35471 0.86198 0.0
C517 C 0.81912 0.22201 0.7168 0.0
H518 H 0.91522 0.69266 0.82688 0.0
H519 H 0.73518 0.71465 0.94435 0.0
H520 H 0.85678 0.76776 0.82482 0.0
H521 H 0.87725 0.77258 0.79254 0.0
H522 H 0.83494 0.75649 0.7371 0.0
H523 H 0.81459 0.7516 0.76955 0.0
H524 H 0.85791 0.73829 0.86252 0.0
H525 H 0.88464 0.72074 0.85413 0.0
H526 H 0.85873 0.70105 0.78412 0.0
H527 H 0.832 0.71851 0.79287 0.0
H528 H 0.82806 0.73694 0.90055 0.0
H529 H 0.83316 0.71176 0.92552 0.0
H530 H 0.81888 0.67641 0.86153 0.0
H531 H 0.81341 0.70169 0.83688 0.0
H532 H 0.79662 0.76589 0.9002 0.0
H533 H 0.77668 0.76001 0.93263 0.0
H534 H 0.75874 0.71171 0.89157 0.0
H535 H 0.77856 0.71789 0.8591 0.0
H536 H 0.79359 0.79439 0.86203 0.0
H537 H 0.76637 0.81028 0.87311 0.0
H538 H 0.73386 0.76481 0.84615 0.0
H539 H 0.76104 0.74946 0.83407 0.0
H540 H 0.82214 0.79729 0.82814 0.0
H541 H 0.8125 0.82297 0.80608 0.0
H542 H 0.77107 0.79129 0.76442 0.0
H543 H 0.78062 0.76574 0.78681 0.0
O544 O 0.90448 0.69943 0.82987 0.0
O545 O 0.89059 0.68977 0.79402 0.0
O546 O 0.75279 0.7423 0.95207 0.0
O547 O 0.74336 0.71717 0.93194 0.0
C548 C 0.82246 0.7548 0.81917 0.0
C549 C 0.82689 0.74044 0.83338 0.0
C550 C 0.81592 0.7363 0.85237 0.0
C551 C 0.80049 0.74644 0.85713 0.0
C552 C 0.79585 0.76056 0.84262 0.0
C553 C 0.80687 0.76475 0.82373 0.0
C554 C 0.83422 0.75933 0.79952 0.0
C555 C 0.85191 0.76541 0.8057 0.0
C556 C 0.86359 0.76807 0.78726 0.0
C557 C 0.85773 0.7648 0.76229 0.0
C558 C 0.83979 0.75925 0.75616 0.0
C559 C 0.82816 0.75647 0.77464 0.0
C560 C 0.84304 0.72965 0.82831 0.0
C561 C 0.85801 0.7301 0.84544 0.0
C562 C 0.87328 0.72011 0.84057 0.0
C563 C 0.87383 0.7095 0.81844 0.0
C564 C 0.85875 0.70908 0.80133 0.0
C565 C 0.84349 0.71906 0.80626 0.0
C566 C 0.82031 0.72108 0.867 0.0
C567 C 0.82615 0.72373 0.89196 0.0
C568 C 0.82917 0.70936 0.9061 0.0
C569 C 0.82637 0.69212 0.89547 0.0
C570 C 0.82094 0.68954 0.87027 0.0
C571 C 0.81793 0.70392 0.85615 0.0
C572 C 0.78905 0.74231 0.87734 0.0
C573 C 0.7884 0.75403 0.89829 0.0
C574 C 0.777 0.75064 0.91677 0.0
C575 C 0.76608 0.7354 0.91467 0.0
C576 C 0.76695 0.72357 0.89377 0.0
C577 C 0.77832 0.72702 0.87525 0.0
C578 C 0.77927 0.7708 0.84723 0.0
C579 C 0.78053 0.78805 0.85804 0.0
C580 C 0.76498 0.79701 0.86461 0.0
C581 C 0.7479 0.7888 0.86068 0.0
C582 C 0.74671 0.77166 0.84915 0.0
C583 C 0.76224 0.7628 0.84239 0.0
C584 C 0.80207 0.77975 0.80897 0.0
C585 C 0.8111 0.79591 0.81409 0.0
C586 C 0.80552 0.81051 0.80165 0.0
C587 C 0.79102 0.80904 0.78369 0.0
C588 C 0.78234 0.79269 0.77812 0.0
C589 C 0.78775 0.77816 0.79083 0.0
C590 C 0.89009 0.69895 0.81328 0.0
C591 C 0.75372 0.73189 0.93408 0.0
C592 C 0.0244 0.40413 0.56699 0.0
C593 C 0.02523 0.42182 0.57519 0.0
C594 C 0.01564 0.43076 0.55781 0.0
C595 C 0.00934 0.41809 0.54012 0.0
N596 N 0.01418 0.40172 0.54549 0.0
Co597 Co 0.00764 0.37968 0.52518 0.0
N598 N 0.98809 0.3915 0.50643 0.0
C599 C 0.98649 0.40892 0.5044 0.0
C600 C 0.97149 0.41309 0.48991 0.0
C601 C 0.9632 0.39729 0.48242 0.0
C602 C 0.97363 0.38437 0.49291 0.0
N603 N 0.00092 0.35768 0.50493 0.0
C604 C 0.98511 0.35327 0.49213 0.0
C605 C 0.9856 0.33611 0.4817 0.0
C606 C 0.0025 0.32986 0.48775 0.0
C607 C 0.0113 0.34338 0.50174 0.0
N608 N 0.02741 0.36782 0.54358 0.0
C609 C 0.03519 0.35257 0.53614 0.0
C610 C 0.04895 0.34776 0.55224 0.0
C611 C 0.05002 0.3609 0.57078 0.0
C612 C 0.03681 0.37309 0.56496 0.0
N613 N 0.99083 0.37353 0.54924 0.0
C614 C 0.96724 0.36439 0.58415 0.0
C615 C 0.97958 0.35221 0.57488 0.0
C616 C 0.99116 0.357 0.55741 0.0
C617 C 0.96681 0.38122 0.57539 0.0
C618 C 0.9788 0.38557 0.55803 0.0
N619 N 0.02463 0.38565 0.50116 0.0
C620 C 0.03366 0.38329 0.45954 0.0
C621 C 0.05121 0.38894 0.4677 0.0
C622 C 0.05467 0.39414 0.49274 0.0
C623 C 0.04133 0.39224 0.50911 0.0
C624 C 0.02053 0.38195 0.47652 0.0
H625 H 0.04484 0.39547 0.52837 0.0
H626 H 0.00728 0.37714 0.46984 0.0
H627 H 0.00039 0.34728 0.5505 0.0
H628 H 0.9784 0.39867 0.5518 0.0
C629 C 0.99699 0.42077 0.52021 0.0
C630 C 0.03512 0.39036 0.5785 0.0
C631 C 0.97 0.36545 0.48881 0.0
C632 C 0.02747 0.34194 0.51613 0.0
H633 H 0.03235 0.4277 0.59175 0.0
H634 H 0.01319 0.44477 0.55834 0.0
H635 H 0.96664 0.42608 0.48624 0.0
H636 H 0.95088 0.3955 0.47071 0.0
H637 H 0.97491 0.32874 0.47108 0.0
H638 H 0.0074 0.31668 0.48362 0.0
H639 H 0.05694 0.33592 0.55103 0.0
H640 H 0.05968 0.36153 0.58653 0.0
H641 H 0.98016 0.33897 0.58088 0.0
H642 H 0.9575 0.39104 0.5822 0.0
H643 H 0.03025 0.37913 0.4404 0.0
H644 H 0.0678 0.39916 0.4999 0.0
C645 C 0.71684 0.03688 0.65062 0.0
C646 C 0.70099 0.04153 0.6615 0.0
C647 C 0.68768 0.03087 0.65011 0.0
C648 C 0.69613 0.02034 0.63305 0.0
N649 N 0.71411 0.02338 0.63314 0.0
Co650 Co 0.73135 0.01166 0.61047 0.0
N651 N 0.71164 0.99639 0.59314 0.0
C652 C 0.69416 0.99578 0.59865 0.0
C653 C 0.68401 0.98335 0.58439 0.0
C654 C 0.69576 0.97534 0.56906 0.0
C655 C 0.71244 0.98341 0.57489 0.0
N656 N 0.74846 1.00059 0.58701 0.0
C657 C 0.74558 0.98775 0.56863 0.0
C658 C 0.76119 0.98396 0.55666 0.0
C659 C 0.77443 0.99473 0.56796 0.0
C660 C 0.76619 0.00445 0.58607 0.0
N661 N 0.75124 0.02633 0.62853 0.0
C662 C 0.76901 0.02577 0.62436 0.0
C663 C 0.77941 0.03759 0.63927 0.0
C664 C 0.76761 0.04632 0.65377 0.0
C665 C 0.75057 0.03922 0.64694 0.0
N666 N 0.73633 0.99292 0.63332 0.0
C667 C 0.74252 0.96352 0.66078 0.0
C668 C 0.75636 0.97072 0.6486 0.0
C669 C 0.75308 0.98546 0.63538 0.0
C670 C 0.72577 0.97173 0.66013 0.0
C671 C 0.72295 0.9863 0.64626 0.0
N672 N 0.72637 0.03025 0.58744 0.0
C673 C 0.73717 0.05287 0.56323 0.0
C674 C 0.71969 0.05588 0.55338 0.0
C675 C 0.70553 0.04608 0.56133 0.0
C676 C 0.70913 0.03351 0.57837 0.0
C677 C 0.74018 0.04007 0.57993 0.0
H678 H 0.69777 0.02652 0.58379 0.0
H679 H 0.75384 0.03836 0.58643 0.0
H680 H 0.76423 0.99033 0.62659 0.0
H681 H 0.70973 0.99169 0.64587 0.0
C682 C 0.68764 0.00728 0.617 0.0
C683 C 0.73406 0.04588 0.65731 0.0
C684 C 0.72866 0.97812 0.56278 0.0
C685 C 0.77513 0.01581 0.60414 0.0
H686 H 0.69921 0.05167 0.67606 0.0
H687 H 0.67352 0.03086 0.65373 0.0
H688 H 0.66978 0.98042 0.58514 0.0
H689 H 0.69247 0.96468 0.55525 0.0
H690 H 0.76296 0.97409 0.54175 0.0
H691 H 0.78853 0.99499 0.56404 0.0
H692 H 0.79373 0.04017 0.63882 0.0
H693 H 0.77118 0.05711 0.66719 0.0
H694 H 0.76968 0.96492 0.64913 0.0
H695 H 0.71472 0.96656 0.66953 0.0
H696 H 0.74858 0.06043 0.55822 0.0
H697 H 0.69174 0.04786 0.5542 0.0
C698 C 0.04912 0.80975 0.55563 0.0
C699 C 0.05453 0.82684 0.56356 0.0
C700 C 0.04587 0.83776 0.54783 0.0
C701 C 0.03571 0.82683 0.53119 0.0
N702 N 0.03725 0.80973 0.53568 0.0
Co703 Co 0.02548 0.78972 0.51543 0.0
N704 N 0.0076 0.80541 0.49979 0.0
C705 C 0.00912 0.82295 0.49903 0.0
C706 C 0.99409 0.83025 0.48793 0.0
C707 C 0.98247 0.81641 0.48126 0.0
C708 C 0.9912 0.80135 0.48847 0.0
N709 N 0.01371 0.76982 0.49508 0.0
C710 C 0.99692 0.76875 0.48385 0.0
C711 C 0.99389 0.75241 0.47127 0.0
C712 C 0.00941 0.74295 0.47501 0.0
C713 C 0.02101 0.75403 0.48953 0.0
N714 N 0.04336 0.77393 0.53088 0.0
C715 C 0.04734 0.75751 0.52214 0.0
C716 C 0.06025 0.7497 0.53678 0.0
C717 C 0.06486 0.76206 0.55569 0.0
C718 C 0.05456 0.77685 0.5514 0.0
N719 N 0.00917 0.78631 0.54133 0.0
C720 C 0.98414 0.78138 0.57633 0.0
C721 C 0.99358 0.76709 0.56605 0.0
C722 C 0.00597 0.76982 0.54848 0.0
C723 C 0.98772 0.7982 0.56904 0.0
C724 C 0.00037 0.8004 0.55171 0.0
N725 N 0.04172 0.79324 0.48941 0.0
C726 C 0.07138 0.79983 0.47711 0.0
C727 C 0.06464 0.80039 0.45259 0.0
C728 C 0.04624 0.79691 0.44681 0.0
C729 C 0.03505 0.79327 0.46543 0.0
C730 C 0.05973 0.79626 0.49518 0.0
H731 H 0.02092 0.79074 0.46047 0.0
H732 H 0.0653 0.79629 0.51392 0.0
H733 H 0.01276 0.75857 0.54043 0.0
H734 H 0.00286 0.8135 0.54648 0.0
C735 C 0.02282 0.83223 0.51341 0.0
C736 C 0.0573 0.79395 0.56549 0.0
C737 C 0.98412 0.78332 0.48367 0.0
C738 C 0.03696 0.74908 0.50226 0.0
H739 H 0.06408 0.831 0.57874 0.0
H740 H 0.04665 0.85198 0.54873 0.0
H741 H 0.99141 0.84407 0.48622 0.0
H742 H 0.96907 0.81744 0.47245 0.0
H743 H 0.98175 0.74782 0.4606 0.0
H744 H 0.01161 0.72934 0.4689 0.0
H745 H 0.06538 0.73645 0.53436 0.0
H746 H 0.07493 0.76049 0.57063 0.0
H747 H 0.99114 0.75386 0.57114 0.0
H748 H 0.98089 0.80962 0.57683 0.0
H749 H 0.08547 0.80263 0.48247 0.0
H750 H 0.04051 0.79699 0.42803 0.0
C751 C 0.31501 0.11517 0.52468 0.0
C752 C 0.33186 0.10742 0.52734 0.0
C753 C 0.34275 0.11552 0.51237 0.0
C754 C 0.33205 0.12781 0.5016 0.0
N755 N 0.31498 0.12816 0.5089 0.0
Co756 Co 0.29513 0.14428 0.49803 0.0
N757 N 0.3109 0.15549 0.47485 0.0
C758 C 0.32827 0.15147 0.47093 0.0
C759 C 0.33579 0.16159 0.45449 0.0
C760 C 0.32247 0.17279 0.44745 0.0
C761 C 0.30746 0.16878 0.45995 0.0
N762 N 0.27532 0.16052 0.48735 0.0
C763 C 0.27518 0.17331 0.47123 0.0
C764 C 0.25842 0.18131 0.46901 0.0
C765 C 0.24773 0.17359 0.48458 0.0
C766 C 0.25843 0.16128 0.49526 0.0
N767 N 0.27926 0.13291 0.52095 0.0
C768 C 0.2618 0.13676 0.52459 0.0
C769 C 0.25399 0.12608 0.54007 0.0
C770 C 0.26717 0.11463 0.54668 0.0
C771 C 0.28244 0.11911 0.535 0.0
N772 N 0.30341 0.16205 0.52492 0.0
C773 C 0.31506 0.18696 0.56343 0.0
C774 C 0.297 0.18166 0.56004 0.0
C775 C 0.29149 0.16941 0.54073 0.0
C776 C 0.32721 0.17967 0.54722 0.0
C777 C 0.32117 0.16724 0.52835 0.0
N778 N 0.28691 0.12639 0.47137 0.0
C779 C 0.26328 0.10738 0.45158 0.0
C780 C 0.27582 0.09771 0.43845 0.0
C781 C 0.29384 0.10321 0.4409 0.0
C782 C 0.29907 0.11747 0.4574 0.0
C783 C 0.26903 0.12173 0.46756 0.0
H784 H 0.31307 0.12072 0.45904 0.0
H785 H 0.25882 0.12856 0.47702 0.0
H786 H 0.2775 0.16616 0.53894 0.0
H787 H 0.33115 0.16205 0.51684 0.0
C788 C 0.33743 0.1387 0.48389 0.0
C789 C 0.29947 0.10957 0.53735 0.0
C790 C 0.29046 0.17835 0.45759 0.0
C791 C 0.25288 0.15003 0.51241 0.0
H792 H 0.33586 0.09689 0.53877 0.0
H793 H 0.35675 0.11265 0.50946 0.0
H794 H 0.34946 0.16111 0.44869 0.0
H795 H 0.3238 0.18295 0.43482 0.0
H796 H 0.25429 0.19164 0.4573 0.0
H797 H 0.23377 0.17655 0.48765 0.0
H798 H 0.24021 0.12634 0.54545 0.0
H799 H 0.26552 0.10398 0.55843 0.0
H800 H 0.28705 0.1872 0.57197 0.0
H801 H 0.34136 0.18339 0.54925 0.0
H802 H 0.24909 0.10377 0.44976 0.0
H803 H 0.304 0.09609 0.43092 0.0
C804 C 0.55491 0.87553 0.05401 0.0
C805 C 0.5624 0.8911 0.06505 0.0
C806 C 0.55762 0.904 0.04984 0.0
C807 C 0.54744 0.89562 0.03054 0.0
N808 N 0.54548 0.87813 0.03245 0.0
Co809 Co 0.53111 0.86108 0.00898 0.0
N810 N 0.52418 0.88003 0.98666 0.0
C811 C 0.5304 0.8968 0.98851 0.0
C812 C 0.52309 0.90675 0.97045 0.0
C813 C 0.51132 0.89573 0.95643 0.0
C814 C 0.51207 0.87968 0.96692 0.0
N815 N 0.51589 0.84425 0.98625 0.0
C816 C 0.50392 0.84749 0.96727 0.0
C817 C 0.49467 0.8323 0.95793 0.0
C818 C 0.50097 0.81903 0.97153 0.0
C819 C 0.51348 0.82685 0.98847 0.0
N820 N 0.53867 0.84194 0.0307 0.0
C821 C 0.53488 0.82456 0.02653 0.0
C822 C 0.54254 0.81446 0.04412 0.0
C823 C 0.55188 0.82605 0.06048 0.0
C824 C 0.5493 0.84265 0.05192 0.0
N825 N 0.50968 0.86614 0.02795 0.0
C826 C 0.47857 0.87312 0.05356 0.0
C827 C 0.48511 0.85603 0.05033 0.0
C828 C 0.50049 0.85282 0.03739 0.0
C829 C 0.48791 0.8867 0.04398 0.0
C830 C 0.50345 0.88298 0.03155 0.0
N831 N 0.55273 0.85599 0.98992 0.0
C832 C 0.57098 0.83546 0.96656 0.0
C833 C 0.58445 0.84816 0.96564 0.0
C834 C 0.58161 0.86497 0.97651 0.0
C835 C 0.56575 0.8686 0.98825 0.0
C836 C 0.55541 0.83959 0.97872 0.0
H837 H 0.56448 0.88171 0.99596 0.0
H838 H 0.5459 0.82916 0.979 0.0
H839 H 0.50464 0.83945 0.03506 0.0
H840 H 0.51018 0.8939 0.02491 0.0
C841 C 0.54069 0.90349 0.00951 0.0
C842 C 0.55744 0.85859 0.06445 0.0
C843 C 0.5003 0.86482 0.9584 0.0
C844 C 0.52289 0.81832 0.00706 0.0
H845 H 0.57064 0.89288 0.08219 0.0
H846 H 0.56139 0.91778 0.05233 0.0
H847 H 0.5253 0.92061 0.96849 0.0
H848 H 0.50268 0.89925 0.9408 0.0
H849 H 0.48414 0.83092 0.94324 0.0
H850 H 0.49657 0.80541 0.96971 0.0
H851 H 0.54124 0.80038 0.04515 0.0
H852 H 0.55965 0.82266 0.07692 0.0
H853 H 0.47816 0.8451 0.05731 0.0
H854 H 0.48337 0.90018 0.04632 0.0
H855 H 0.57263 0.8222 0.95847 0.0
H856 H 0.59156 0.87534 0.97589 0.0
C857 C 0.21179 0.65814 0.01684 0.0
C858 C 0.19341 0.66147 0.01389 0.0
C859 C 0.18774 0.65503 0.99047 0.0
C860 C 0.20287 0.64807 0.98046 0.0
N861 N 0.21762 0.6496 0.99629 0.0
Co862 Co 0.24217 0.6416 0.98928 0.0
N863 N 0.23269 0.62573 0.96124 0.0
C864 C 0.2166 0.62671 0.94864 0.0
C865 C 0.21382 0.61305 0.93083 0.0
C866 C 0.22913 0.60294 0.93261 0.0
C867 C 0.24032 0.61105 0.95147 0.0
N868 N 0.26663 0.63355 0.98202 0.0
C869 C 0.27141 0.61814 0.97059 0.0
C870 C 0.29006 0.61687 0.97064 0.0
C871 C 0.29702 0.63223 0.98242 0.0
C872 C 0.28229 0.64193 0.98904 0.0
N873 N 0.25184 0.65751 0.01723 0.0
C874 C 0.26899 0.66348 0.02093 0.0
C875 C 0.27169 0.67445 0.04195 0.0
C876 C 0.25518 0.67552 0.05183 0.0
C877 C 0.24324 0.66517 0.03621 0.0
N878 N 0.24015 0.6226 0.01124 0.0
C879 C 0.23854 0.59379 0.04027 0.0
C880 C 0.25372 0.60493 0.04219 0.0
C881 C 0.25425 0.61921 0.0276 0.0
C882 C 0.22401 0.59765 0.0238 0.0
C883 C 0.22506 0.61212 0.00956 0.0
N884 N 0.24429 0.66065 0.96727 0.0
C885 C 0.25385 0.67121 0.92958 0.0
C886 C 0.24851 0.68837 0.93677 0.0
C887 C 0.24072 0.69118 0.95943 0.0
C888 C 0.23879 0.67725 0.97434 0.0
C889 C 0.2516 0.65757 0.94502 0.0
H890 H 0.23293 0.67999 0.99173 0.0
H891 H 0.25597 0.64455 0.9391 0.0
H892 H 0.26625 0.62733 0.02919 0.0
H893 H 0.21376 0.61467 0.99687 0.0
C894 C 0.20323 0.63777 0.95804 0.0
C895 C 0.22358 0.66462 0.03835 0.0
C896 C 0.25826 0.60496 0.95957 0.0
C897 C 0.2826 0.65625 0.00672 0.0
H898 H 0.18504 0.66805 0.02713 0.0
H899 H 0.17411 0.65496 0.98207 0.0
H900 H 0.20169 0.61011 0.91909 0.0
H901 H 0.23166 0.5909 0.92167 0.0
H902 H 0.29789 0.60596 0.96351 0.0
H903 H 0.31112 0.63534 0.98716 0.0
H904 H 0.28424 0.68047 0.04965 0.0
H905 H 0.25221 0.6832 0.06847 0.0
H906 H 0.26536 0.6024 0.05445 0.0
H907 H 0.21189 0.58958 0.02192 0.0
H908 H 0.2601 0.66835 0.91239 0.0
H909 H 0.23602 0.70407 0.96566 0.0
C910 C 0.49417 0.31489 0.99229 0.0
C911 C 0.49296 0.33239 0.98688 0.0
C912 C 0.50492 0.3416 0.00303 0.0
C913 C 0.51265 0.32927 0.01736 0.0
N914 N 0.50656 0.31267 0.01119 0.0
Co915 Co 0.51353 0.29087 0.02799 0.0
N916 N 0.52985 0.30472 0.0532 0.0
C917 C 0.53321 0.32225 0.0545 0.0
C918 C 0.54565 0.32792 0.07306 0.0
C919 C 0.55059 0.31316 0.08434 0.0
C920 C 0.54069 0.29925 0.0721 0.0
N921 N 0.52044 0.26907 0.04483 0.0
C922 C 0.5318 0.26703 0.06492 0.0
C923 C 0.53245 0.24962 0.07085 0.0
C924 C 0.52139 0.24026 0.05363 0.0
C925 C 0.51453 0.25244 0.03834 0.0
N926 N 0.49716 0.27706 0.00278 0.0
C927 C 0.49437 0.25945 0.0007 0.0
C928 C 0.48201 0.25387 0.98193 0.0
C929 C 0.47638 0.26883 0.97156 0.0
C930 C 0.48564 0.28271 0.98474 0.0
N931 N 0.53412 0.28717 0.00674 0.0
C932 C 0.56596 0.28111 0.98219 0.0
C933 C 0.55374 0.26744 0.9844 0.0
C934 C 0.538 0.27075 0.99657 0.0
C935 C 0.5615 0.29801 0.99126 0.0
C936 C 0.5456 0.30074 0.0032 0.0
N937 N 0.49314 0.29448 0.04944 0.0
C938 C 0.46816 0.28282 0.06964 0.0
C939 C 0.46509 0.29928 0.08155 0.0
C940 C 0.47612 0.31336 0.07673 0.0
C941 C 0.48995 0.31068 0.06078 0.0
C942 C 0.48208 0.28075 0.05372 0.0
H943 H 0.49791 0.32192 0.05795 0.0
H944 H 0.48371 0.26789 0.04524 0.0
H945 H 0.52944 0.25972 0.99799 0.0
H946 H 0.54311 0.3139 0.00978 0.0
C947 C 0.52491 0.33302 0.03757 0.0
C948 C 0.4826 0.30103 0.97989 0.0
C949 C 0.54238 0.28108 0.07877 0.0
C950 C 0.5026 0.24865 0.01771 0.0
H951 H 0.48405 0.33804 0.97311 0.0
H952 H 0.5073 0.35567 0.0046 0.0
H953 H 0.55074 0.34117 0.07758 0.0
H954 H 0.56059 0.31274 0.09963 0.0
H955 H 0.54017 0.2442 0.08601 0.0
H956 H 0.5187 0.22625 0.05238 0.0
H957 H 0.47729 0.24056 0.97683 0.0
H958 H 0.46633 0.26952 0.95634 0.0
H959 H 0.55657 0.25411 0.97756 0.0
H960 H 0.57031 0.30913 0.98935 0.0
H961 H 0.46009 0.27145 0.07286 0.0
H962 H 0.47405 0.32646 0.08507 0.0
C963 C 0.79666 0.54319 0.15188 0.0
C964 C 0.78212 0.55464 0.15286 0.0
C965 C 0.77123 0.55087 0.1319 0.0
C966 C 0.77965 0.53743 0.11923 0.0
N967 N 0.79508 0.53237 0.13102 0.0
Co968 Co 0.81188 0.51434 0.11803 0.0
N969 N 0.79295 0.50412 0.09365 0.0
C970 C 0.77761 0.51203 0.08606 0.0
C971 C 0.76687 0.5015 0.06958 0.0
C972 C 0.7761 0.48605 0.06649 0.0
C973 C 0.79212 0.48811 0.08115 0.0
N974 N 0.82863 0.49638 0.10476 0.0
C975 C 0.82493 0.48115 0.09097 0.0
C976 C 0.84073 0.47256 0.08522 0.0
C977 C 0.85475 0.48283 0.09591 0.0
C978 C 0.84677 0.49709 0.10746 0.0
N979 N 0.83087 0.52454 0.14236 0.0
C980 C 0.84877 0.52191 0.14162 0.0
C981 C 0.85863 0.53047 0.1611 0.0
C982 C 0.84619 0.53922 0.17476 0.0
C983 C 0.82937 0.53565 0.16266 0.0
N984 N 0.80462 0.49826 0.14178 0.0
C985 C 0.79409 0.4727 0.17222 0.0
C986 C 0.8124 0.47611 0.1697 0.0
C987 C 0.81737 0.48893 0.15442 0.0
C988 C 0.78118 0.48282 0.15988 0.0
C989 C 0.78672 0.49558 0.14485 0.0
N990 N 0.81915 0.53039 0.09412 0.0
C991 C 0.82684 0.5596 0.08425 0.0
C992 C 0.82722 0.55386 0.05935 0.0
C993 C 0.82401 0.53604 0.05229 0.0
C994 C 0.82013 0.52451 0.06998 0.0
C995 C 0.82274 0.54769 0.1013 0.0
H996 H 0.81758 0.51088 0.064 0.0
H997 H 0.82209 0.55261 0.12021 0.0
H998 H 0.83153 0.49094 0.1523 0.0
H999 H 0.77651 0.50298 0.13523 0.0
C1000 C 0.77237 0.52783 0.09804 0.0
C1001 C 0.81265 0.54453 0.16941 0.0
C1002 C 0.80678 0.47522 0.08149 0.0
C1003 C 0.85548 0.50949 0.12444 0.0
H1004 H 0.77977 0.565 0.16688 0.0
H1005 H 0.75854 0.55701 0.12674 0.0
H1006 H 0.75355 0.50438 0.06161 0.0
H1007 H 0.77154 0.47463 0.05475 0.0
H1008 H 0.842 0.46022 0.07436 0.0
H1009 H 0.86901 0.47987 0.09605 0.0
H1010 H 0.87308 0.53003 0.16526 0.0
H1011 H 0.84922 0.54755 0.19145 0.0
H1012 H 0.82283 0.4685 0.17874 0.0
H1013 H 0.76688 0.48077 0.16161 0.0
H1014 H 0.82905 0.57332 0.09041 0.0
H1015 H 0.82435 0.53107 0.03322 0.0
H1016 H 0.16536 0.37529 0.29743 0.0
H1017 H 0.13904 0.37729 0.32225 0.0
H1018 H 0.17385 0.37404 0.38828 0.0
H1019 H 0.20026 0.37201 0.36352 0.0
H1020 H 0.14196 0.3525 0.38559 0.0
H1021 H 0.16006 0.41238 0.37478 0.0
H1022 H 0.16768 0.4366 0.34958 0.0
H1023 H 0.11464 0.43334 0.3129 0.0
H1024 H 0.10681 0.40887 0.33758 0.0
H1025 H 0.08649 0.38034 0.47832 0.0
H1026 H 0.11081 0.37802 0.45076 0.0
H1027 H 0.07427 0.39189 0.39052 0.0
H1028 H 0.04994 0.39553 0.41854 0.0
H1029 H 0.10578 0.40717 0.38757 0.0
H1030 H 0.0866 0.3486 0.3979 0.0
H1031 H 0.07837 0.32328 0.42066 0.0
H1032 H 0.13202 0.32263 0.45529 0.0
H1033 H 0.14051 0.34812 0.433 0.0
C1034 C 0.16735 0.37474 0.31721 0.0
C1035 C 0.1848 0.37346 0.32861 0.0
C1036 C 0.15235 0.37601 0.33133 0.0
C1037 C 0.15457 0.37593 0.35705 0.0
C1038 C 0.17192 0.37414 0.36843 0.0
C1039 C 0.18695 0.37306 0.35433 0.0
C1040 C 0.13885 0.37823 0.37217 0.0
C1041 C 0.13413 0.3645 0.38628 0.0
C1042 C 0.12835 0.39368 0.37228 0.0
C1043 C 0.13291 0.40868 0.35786 0.0
C1044 C 0.15006 0.41675 0.36122 0.0
C1045 C 0.15442 0.43053 0.34704 0.0
C1046 C 0.14167 0.43648 0.32961 0.0
C1047 C 0.12451 0.4287 0.32638 0.0
C1048 C 0.1201 0.41488 0.34047 0.0
C1049 C 0.0836 0.38333 0.45938 0.0
C1050 C 0.06615 0.38818 0.45075 0.0
C1051 C 0.09753 0.38169 0.4435 0.0
C1052 C 0.09429 0.38437 0.41844 0.0
C1053 C 0.07704 0.3896 0.40977 0.0
C1054 C 0.0631 0.39151 0.42578 0.0
C1055 C 0.10895 0.3815 0.40142 0.0
C1056 C 0.11348 0.3951 0.38686 0.0
C1057 C 0.11915 0.3658 0.40061 0.0
C1058 C 0.11415 0.35036 0.41391 0.0
C1059 C 0.09661 0.34313 0.41049 0.0
C1060 C 0.09191 0.32874 0.42329 0.0
C1061 C 0.10466 0.32138 0.43945 0.0
C1062 C 0.12216 0.32836 0.44278 0.0
C1063 C 0.12693 0.34277 0.43005 0.0
H1064 H 0.10099 0.31024 0.44935 0.0
H1065 H 0.14507 0.44714 0.31864 0.0
H1066 H 0.7455 0.17194 0.40835 0.0
H1067 H 0.74049 0.14653 0.43183 0.0
H1068 H 0.68626 0.16381 0.44329 0.0
H1069 H 0.69091 0.18905 0.41908 0.0
H1070 H 0.70644 0.15528 0.48656 0.0
H1071 H 0.69074 0.12974 0.40505 0.0
H1072 H 0.69524 0.12274 0.36107 0.0
H1073 H 0.7435 0.09454 0.38028 0.0
H1074 H 0.73944 0.10159 0.42439 0.0
H1075 H 0.69112 0.07852 0.54859 0.0
H1076 H 0.68682 0.10118 0.51934 0.0
H1077 H 0.73709 0.08658 0.48834 0.0
H1078 H 0.74084 0.06319 0.51621 0.0
H1079 H 0.71392 0.09363 0.45317 0.0
H1080 H 0.73306 0.12222 0.53267 0.0
H1081 H 0.73097 0.13008 0.57704 0.0
H1082 H 0.67911 0.15329 0.56224 0.0
H1083 H 0.68081 0.14537 0.51779 0.0
C1084 C 0.73238 0.17019 0.41542 0.0
C1085 C 0.71858 0.18252 0.41175 0.0
C1086 C 0.72958 0.1557 0.42893 0.0
C1087 C 0.71297 0.15328 0.43909 0.0
C1088 C 0.69916 0.1655 0.43555 0.0
C1089 C 0.70189 0.17995 0.42184 0.0
C1090 C 0.7104 0.13826 0.45417 0.0
C1091 C 0.70768 0.14176 0.47921 0.0
C1092 C 0.71245 0.12071 0.44456 0.0
C1093 C 0.71483 0.11629 0.41804 0.0
C1094 C 0.70238 0.12215 0.3999 0.0
C1095 C 0.70484 0.11815 0.37494 0.0
C1096 C 0.71966 0.10822 0.36788 0.0
C1097 C 0.73203 0.10223 0.38578 0.0
C1098 C 0.72963 0.1062 0.41076 0.0
C1099 C 0.70108 0.0799 0.53523 0.0
C1100 C 0.71646 0.06916 0.53499 0.0
C1101 C 0.6987 0.093 0.5187 0.0
C1102 C 0.71181 0.09581 0.50197 0.0
C1103 C 0.72683 0.08473 0.50116 0.0
C1104 C 0.72908 0.0715 0.51738 0.0
C1105 C 0.7104 0.11063 0.48581 0.0
C1106 C 0.71236 0.10711 0.46051 0.0
C1107 C 0.70797 0.1282 0.49527 0.0
C1108 C 0.70696 0.13301 0.52196 0.0
C1109 C 0.72115 0.12888 0.53891 0.0
C1110 C 0.72005 0.13337 0.56406 0.0
C1111 C 0.70489 0.14213 0.57246 0.0
C1112 C 0.69083 0.14647 0.55571 0.0
C1113 C 0.69186 0.14199 0.53054 0.0
H1114 H 0.70406 0.14559 0.59194 0.0
H1115 H 0.72155 0.10515 0.34855 0.0
H1116 H 0.83297 0.78781 0.36653 0.0
H1117 H 0.86294 0.78746 0.38763 0.0
H1118 H 0.84586 0.74645 0.43151 0.0
H1119 H 0.81588 0.74608 0.40966 0.0
H1120 H 0.86671 0.77704 0.45779 0.0
H1121 H 0.8695 0.73285 0.39044 0.0
H1122 H 0.86491 0.72144 0.34701 0.0
H1123 H 0.9001 0.76167 0.3257 0.0
H1124 H 0.90467 0.7735 0.36897 0.0
H1125 H 0.95784 0.76573 0.50433 0.0
H1126 H 0.92678 0.75955 0.48736 0.0
H1127 H 0.93748 0.78708 0.42333 0.0
H1128 H 0.96869 0.79225 0.43967 0.0
H1129 H 0.91878 0.75945 0.40929 0.0
H1130 H 0.91429 0.80561 0.47367 0.0
H1131 H 0.91885 0.81905 0.51614 0.0
H1132 H 0.88674 0.77819 0.54205 0.0
H1133 H 0.88233 0.76424 0.49984 0.0
C1134 C 0.83556 0.77851 0.3804 0.0
C1135 C 0.82202 0.76678 0.38609 0.0
C1136 C 0.85267 0.77846 0.3926 0.0
C1137 C 0.85658 0.76686 0.41096 0.0
C1138 C 0.84303 0.75552 0.41737 0.0
C1139 C 0.8259 0.75538 0.40492 0.0
C1140 C 0.87507 0.76641 0.42278 0.0
C1141 C 0.87812 0.77288 0.44742 0.0
C1142 C 0.88987 0.76136 0.40895 0.0
C1143 C 0.88731 0.75414 0.38294 0.0
C1144 C 0.87615 0.73935 0.37647 0.0
C1145 C 0.87357 0.73279 0.35188 0.0
C1146 C 0.88218 0.74084 0.3336 0.0
C1147 C 0.89343 0.75545 0.33988 0.0
C1148 C 0.89603 0.76208 0.36444 0.0
C1149 C 0.95342 0.77043 0.48666 0.0
C1150 C 0.96531 0.77993 0.47358 0.0
C1151 C 0.93572 0.76698 0.47702 0.0
C1152 C 0.92963 0.7732 0.4543 0.0
C1153 C 0.94178 0.78225 0.44096 0.0
C1154 C 0.95951 0.78541 0.4504 0.0
C1155 C 0.91063 0.77049 0.44431 0.0
C1156 C 0.90744 0.76341 0.41991 0.0
C1157 C 0.89574 0.77527 0.45828 0.0
C1158 C 0.89816 0.78377 0.48363 0.0
C1159 C 0.90832 0.79941 0.48846 0.0
C1160 C 0.91089 0.8071 0.5125 0.0
C1161 C 0.90318 0.79941 0.53182 0.0
C1162 C 0.8928 0.78405 0.52712 0.0
C1163 C 0.89026 0.77624 0.50314 0.0
H1164 H 0.90519 0.80537 0.55043 0.0
H1165 H 0.88016 0.73575 0.31457 0.0
H1166 H 0.24345 0.96446 0.28315 0.0
H1167 H 0.24759 0.9931 0.30634 0.0
H1168 H 0.23971 0.96888 0.37387 0.0
H1169 H 0.23589 0.94003 0.35073 0.0
H1170 H 0.22084 0.00404 0.36486 0.0
H1171 H 0.27876 0.97465 0.3678 0.0
H1172 H 0.30362 0.95847 0.34889 0.0
H1173 H 0.3125 0.00137 0.30418 0.0
H1174 H 0.28747 0.01771 0.32259 0.0
H1175 H 0.25618 0.07041 0.45223 0.0
H1176 H 0.24806 0.04288 0.42826 0.0
H1177 H 0.2746 0.06091 0.36656 0.0
H1178 H 0.28337 0.08826 0.39098 0.0
H1179 H 0.28312 0.02874 0.37154 0.0
H1180 H 0.22699 0.05916 0.36878 0.0
H1181 H 0.20148 0.07572 0.38536 0.0
H1182 H 0.18808 0.0321 0.42648 0.0
H1183 H 0.21367 0.01535 0.4104 0.0
C1184 C 0.24225 0.96532 0.30288 0.0
C1185 C 0.23927 0.95014 0.31523 0.0
C1186 C 0.24468 0.98162 0.31607 0.0
C1187 C 0.24394 0.983 0.34173 0.0
C1188 C 0.24023 0.968 0.35403 0.0
C1189 C 0.23812 0.9516 0.34088 0.0
C1190 C 0.24832 0.99992 0.35578 0.0
C1191 C 0.23447 0.00942 0.36666 0.0
C1192 C 0.26599 0.00703 0.35731 0.0
C1193 C 0.28114 0.99732 0.34639 0.0
C1194 C 0.2859 0.98056 0.35377 0.0
C1195 C 0.30004 0.97138 0.34318 0.0
C1196 C 0.30961 0.97888 0.32533 0.0
C1197 C 0.30506 0.99558 0.31802 0.0
C1198 C 0.29091 0.00482 0.32853 0.0
C1199 C 0.26011 0.06854 0.43345 0.0
C1200 C 0.27028 0.08146 0.42334 0.0
C1201 C 0.25542 0.05284 0.41973 0.0
C1202 C 0.26041 0.04992 0.3954 0.0
C1203 C 0.27055 0.06287 0.38526 0.0
C1204 C 0.27553 0.07847 0.39916 0.0
C1205 C 0.25562 0.0331 0.38091 0.0
C1206 C 0.26943 0.02353 0.36983 0.0
C1207 C 0.23782 0.02607 0.37893 0.0
C1208 C 0.22235 0.03606 0.38855 0.0
C1209 C 0.21868 0.05314 0.38149 0.0
C1210 C 0.2042 0.06256 0.39078 0.0
C1211 C 0.19319 0.05498 0.407 0.0
C1212 C 0.19663 0.03795 0.41393 0.0
C1213 C 0.21111 0.02849 0.40471 0.0
H1214 H 0.18199 0.06229 0.41418 0.0
H1215 H 0.32061 0.97178 0.31726 0.0
H1216 H 0.21337 0.83516 0.66304 0.0
H1217 H 0.18587 0.82228 0.64227 0.0
H1218 H 0.15634 0.8378 0.70562 0.0
H1219 H 0.1841 0.8501 0.72712 0.0
H1220 H 0.14514 0.80536 0.68404 0.0
H1221 H 0.15573 0.86333 0.65834 0.0
H1222 H 0.17342 0.88684 0.64215 0.0
H1223 H 0.17824 0.85502 0.57472 0.0
H1224 H 0.16086 0.83119 0.59067 0.0
H1225 H 0.05837 0.80275 0.61505 0.0
H1226 H 0.08532 0.81045 0.64259 0.0
H1227 H 0.11911 0.79903 0.58214 0.0
H1228 H 0.09227 0.79183 0.55471 0.0
H1229 H 0.12715 0.83014 0.60451 0.0
H1230 H 0.11736 0.77195 0.62992 0.0
H1231 H 0.09991 0.7481 0.64566 0.0
H1232 H 0.09351 0.77981 0.71278 0.0
H1233 H 0.11072 0.80397 0.69728 0.0
C1234 C 0.20118 0.83545 0.6729 0.0
C1235 C 0.20095 0.84378 0.69674 0.0
C1236 C 0.1854 0.82822 0.66087 0.0
C1237 C 0.169 0.82939 0.67223 0.0
C1238 C 0.16884 0.83687 0.69647 0.0
C1239 C 0.18468 0.84403 0.70863 0.0
C1240 C 0.15191 0.82391 0.65808 0.0
C1241 C 0.14105 0.81091 0.66679 0.0
C1242 C 0.14673 0.83102 0.63544 0.0
C1243 C 0.15711 0.84541 0.62579 0.0
C1244 C 0.16067 0.86129 0.64013 0.0
C1245 C 0.17064 0.87468 0.63099 0.0
C1246 C 0.17696 0.87241 0.60743 0.0
C1247 C 0.17334 0.85675 0.59297 0.0
C1248 C 0.16343 0.8433 0.60205 0.0
C1249 C 0.07163 0.80161 0.60794 0.0
C1250 C 0.07341 0.79649 0.58301 0.0
C1251 C 0.08697 0.80596 0.62359 0.0
C1252 C 0.10425 0.80519 0.61445 0.0
C1253 C 0.10594 0.79969 0.5896 0.0
C1254 C 0.09067 0.79546 0.57401 0.0
C1255 C 0.12052 0.81126 0.63009 0.0
C1256 C 0.13118 0.82454 0.62174 0.0
C1257 C 0.12548 0.80436 0.65296 0.0
C1258 C 0.11516 0.78984 0.66232 0.0
C1259 C 0.1121 0.7739 0.64795 0.0
C1260 C 0.10227 0.76031 0.65684 0.0
C1261 C 0.09556 0.76246 0.68018 0.0
C1262 C 0.09869 0.77818 0.69469 0.0
C1263 C 0.10849 0.79182 0.68586 0.0
H1264 H 0.08796 0.75192 0.68704 0.0
H1265 H 0.18461 0.88279 0.60031 0.0
H1266 H 0.33163 0.32932 0.70242 0.0
H1267 H 0.34112 0.30519 0.67478 0.0
H1268 H 0.31936 0.26785 0.72091 0.0
H1269 H 0.31111 0.29189 0.74987 0.0
H1270 H 0.34721 0.25374 0.69856 0.0
H1271 H 0.29335 0.28486 0.67423 0.0
H1272 H 0.27615 0.31148 0.66532 0.0
H1273 H 0.30997 0.32063 0.60659 0.0
H1274 H 0.32768 0.29423 0.6156 0.0
H1275 H 0.30748 0.18796 0.61171 0.0
H1276 H 0.31493 0.21148 0.64383 0.0
H1277 H 0.34315 0.23977 0.59222 0.0
H1278 H 0.33577 0.21623 0.56 0.0
H1279 H 0.31659 0.25926 0.61581 0.0
H1280 H 0.3672 0.22368 0.63755 0.0
H1281 H 0.3828 0.19644 0.64794 0.0
H1282 H 0.35243 0.19417 0.7119 0.0
H1283 H 0.33644 0.22127 0.70171 0.0
C1284 C 0.32948 0.31601 0.70736 0.0
C1285 C 0.32016 0.31263 0.72819 0.0
C1286 C 0.33478 0.30219 0.69131 0.0
C1287 C 0.33041 0.28475 0.69535 0.0
C1288 C 0.32266 0.28122 0.71724 0.0
C1289 C 0.31769 0.29503 0.7336 0.0
C1290 C 0.33154 0.27056 0.67542 0.0
C1291 C 0.34051 0.25491 0.68047 0.0
C1292 C 0.32292 0.27215 0.65172 0.0
C1293 C 0.31196 0.2877 0.64576 0.0
C1294 C 0.29717 0.29259 0.65948 0.0
C1295 C 0.28733 0.30765 0.65443 0.0
C1296 C 0.29197 0.31777 0.63541 0.0
C1297 C 0.30642 0.3128 0.62135 0.0
C1298 C 0.31637 0.2978 0.62644 0.0
C1299 C 0.31544 0.19912 0.60732 0.0
C1300 C 0.32098 0.20035 0.58338 0.0
C1301 C 0.31981 0.21244 0.6257 0.0
C1302 C 0.32969 0.22728 0.6204 0.0
C1303 C 0.33562 0.22835 0.59667 0.0
C1304 C 0.33144 0.21491 0.57834 0.0
C1305 C 0.33216 0.24239 0.63896 0.0
C1306 C 0.32367 0.2582 0.63369 0.0
C1307 C 0.34091 0.24075 0.66251 0.0
C1308 C 0.35052 0.22446 0.66875 0.0
C1309 C 0.36373 0.2173 0.65372 0.0
C1310 C 0.37267 0.20189 0.6596 0.0
C1311 C 0.36859 0.19356 0.68054 0.0
C1312 C 0.35558 0.20064 0.69568 0.0
C1313 C 0.34659 0.21604 0.68988 0.0
H1314 H 0.37552 0.18163 0.68506 0.0
H1315 H 0.28437 0.32946 0.63155 0.0
H1316 H 0.8399 0.31679 0.71534 0.0
H1317 H 0.85974 0.32828 0.68641 0.0
H1318 H 0.90628 0.31242 0.73087 0.0
H1319 H 0.8865 0.30182 0.76076 0.0
H1320 H 0.91186 0.34386 0.71643 0.0
H1321 H 0.8909 0.28895 0.67614 0.0
H1322 H 0.86834 0.26663 0.65939 0.0
H1323 H 0.84554 0.30294 0.60954 0.0
H1324 H 0.86781 0.32558 0.62624 0.0
H1325 H 0.97589 0.34732 0.62548 0.0
H1326 H 0.95548 0.33772 0.65535 0.0
H1327 H 0.91051 0.36048 0.61502 0.0
H1328 H 0.93091 0.37004 0.58489 0.0
H1329 H 0.90394 0.3261 0.62704 0.0
H1330 H 0.9262 0.38073 0.66754 0.0
H1331 H 0.94962 0.4022 0.68426 0.0
H1332 H 0.97111 0.36498 0.73368 0.0
H1333 H 0.94797 0.34319 0.71701 0.0
C1334 C 0.85435 0.31592 0.71918 0.0
C1335 C 0.86157 0.30839 0.74047 0.0
C1336 C 0.86569 0.32229 0.7024 0.0
C1337 C 0.88451 0.32099 0.70624 0.0
C1338 C 0.89179 0.31351 0.72746 0.0
C1339 C 0.88045 0.30728 0.74441 0.0
C1340 C 0.89659 0.32765 0.6883 0.0
C1341 C 0.91027 0.33977 0.69694 0.0
C1342 C 0.89429 0.32264 0.66276 0.0
C1343 C 0.88092 0.30902 0.65261 0.0
C1344 C 0.88099 0.29222 0.66173 0.0
C1345 C 0.86827 0.2795 0.65223 0.0
C1346 C 0.85549 0.28338 0.63346 0.0
C1347 C 0.85543 0.29996 0.62411 0.0
C1348 C 0.86811 0.31274 0.63356 0.0
C1349 C 0.96165 0.35029 0.62299 0.0
C1350 C 0.95496 0.3594 0.60286 0.0
C1351 C 0.95004 0.3449 0.64014 0.0
C1352 C 0.93152 0.34848 0.63745 0.0
C1353 C 0.92478 0.35763 0.61742 0.0
C1354 C 0.93644 0.36317 0.60035 0.0
C1355 C 0.91916 0.34222 0.65522 0.0
C1356 C 0.90546 0.33018 0.64654 0.0
C1357 C 0.92156 0.34716 0.68073 0.0
C1358 C 0.93545 0.36027 0.69086 0.0
C1359 C 0.93601 0.37707 0.68183 0.0
C1360 C 0.94922 0.38931 0.69133 0.0
C1361 C 0.96187 0.38494 0.70998 0.0
C1362 C 0.96132 0.36834 0.71921 0.0
C1363 C 0.94814 0.35604 0.70976 0.0
H1364 H 0.97209 0.39444 0.7173 0.0
H1365 H 0.84565 0.27351 0.62613 0.0
H1366 H 0.78518 0.81192 0.73434 0.0
H1367 H 0.7753 0.83806 0.71356 0.0
H1368 H 0.77256 0.86716 0.784 0.0
H1369 H 0.78261 0.84111 0.80487 0.0
H1370 H 0.74163 0.87086 0.7482 0.0
H1371 H 0.80694 0.87457 0.7562 0.0
H1372 H 0.83757 0.86301 0.75124 0.0
H1373 H 0.82629 0.85638 0.67289 0.0
H1374 H 0.79549 0.86767 0.67743 0.0
H1375 H 0.73662 0.9577 0.70834 0.0
H1376 H 0.74334 0.93093 0.72944 0.0
H1377 H 0.76117 0.90572 0.66192 0.0
H1378 H 0.75521 0.9327 0.64124 0.0
H1379 H 0.78412 0.89955 0.6968 0.0
H1380 H 0.71971 0.89559 0.68674 0.0
H1381 H 0.68831 0.90552 0.68978 0.0
H1382 H 0.69631 0.91073 0.76864 0.0
H1383 H 0.72785 0.90106 0.76606 0.0
C1384 C 0.78237 0.82389 0.74533 0.0
C1385 C 0.78474 0.82462 0.77113 0.0
C1386 C 0.77677 0.83875 0.7335 0.0
C1387 C 0.77327 0.85446 0.74732 0.0
C1388 C 0.7752 0.85511 0.7731 0.0
C1389 C 0.78105 0.84032 0.78493 0.0
C1390 C 0.76824 0.87042 0.73481 0.0
C1391 C 0.75092 0.87732 0.73715 0.0
C1392 C 0.78028 0.87842 0.71994 0.0
C1393 C 0.79886 0.87179 0.71718 0.0
C1394 C 0.81094 0.87051 0.73793 0.0
C1395 C 0.82834 0.86403 0.7352 0.0
C1396 C 0.83386 0.85892 0.71177 0.0
C1397 C 0.822 0.86032 0.69103 0.0
C1398 C 0.80457 0.86677 0.69367 0.0
C1399 C 0.74186 0.94636 0.69808 0.0
C1400 C 0.74551 0.94718 0.67329 0.0
C1401 C 0.7456 0.93105 0.71005 0.0
C1402 C 0.75259 0.91622 0.6972 0.0
C1403 C 0.75587 0.917 0.67226 0.0
C1404 C 0.75246 0.93238 0.66046 0.0
C1405 C 0.75732 0.90013 0.70991 0.0
C1406 C 0.77468 0.89317 0.70771 0.0
C1407 C 0.74516 0.89193 0.72457 0.0
C1408 C 0.7262 0.89777 0.72619 0.0
C1409 C 0.71482 0.89899 0.70472 0.0
C1410 C 0.69699 0.90455 0.70636 0.0
C1411 C 0.69033 0.9088 0.72938 0.0
C1412 C 0.70149 0.90746 0.75082 0.0
C1413 C 0.71934 0.90192 0.74928 0.0
H1414 H 0.67652 0.9131 0.73062 0.0
H1415 H 0.84733 0.8539 0.70969 0.0
H1416 H 0.89247 0.7533 0.76178 0.0
H1417 H 0.91349 0.75596 0.72964 0.0
H1418 H 0.87289 0.78284 0.68649 0.0
H1419 H 0.8517 0.78006 0.71858 0.0
H1420 H 0.88953 0.75918 0.65807 0.0
H1421 H 0.90832 0.80534 0.71855 0.0
H1422 H 0.9178 0.81855 0.76002 0.0
H1423 H 0.96437 0.78532 0.76249 0.0
H1424 H 0.95503 0.77173 0.72115 0.0
H1425 H 0.95003 0.79459 0.57692 0.0
H1426 H 0.92806 0.79111 0.60786 0.0
H1427 H 0.96584 0.75904 0.64784 0.0
H1428 H 0.98786 0.76248 0.61695 0.0
H1429 H 0.9505 0.78553 0.67751 0.0
H1430 H 0.93173 0.74056 0.61498 0.0
H1431 H 0.92176 0.72827 0.57324 0.0
H1432 H 0.87424 0.76018 0.57436 0.0
H1433 H 0.88425 0.77317 0.61574 0.0
C1434 C 0.88808 0.75994 0.74556 0.0
C1435 C 0.87048 0.7666 0.74279 0.0
C1436 C 0.9001 0.76143 0.72718 0.0
C1437 C 0.89486 0.76982 0.70579 0.0
C1438 C 0.87723 0.77632 0.70285 0.0
C1439 C 0.86514 0.77472 0.72117 0.0
C1440 C 0.90777 0.77169 0.68647 0.0
C1441 C 0.90276 0.76518 0.66223 0.0
C1442 C 0.92518 0.77921 0.69201 0.0
C1443 C 0.93088 0.7874 0.71685 0.0
C1444 C 0.92051 0.80075 0.72801 0.0
C1445 C 0.92587 0.80833 0.75148 0.0
C1446 C 0.94165 0.80275 0.76391 0.0
C1447 C 0.95213 0.78961 0.75286 0.0
C1448 C 0.94682 0.78198 0.7294 0.0
C1449 C 0.95363 0.78681 0.59233 0.0
C1450 C 0.97064 0.77882 0.5946 0.0
C1451 C 0.94105 0.78475 0.60988 0.0
C1452 C 0.94532 0.77477 0.63006 0.0
C1453 C 0.9623 0.76678 0.63237 0.0
C1454 C 0.9748 0.76867 0.61467 0.0
C1455 C 0.93226 0.77301 0.64914 0.0
C1456 C 0.93725 0.77956 0.67334 0.0
C1457 C 0.91479 0.76569 0.64347 0.0
C1458 C 0.90889 0.75804 0.61838 0.0
C1459 C 0.9193 0.74519 0.60619 0.0
C1460 C 0.91363 0.73808 0.58258 0.0
C1461 C 0.89744 0.74353 0.57108 0.0
C1462 C 0.88685 0.75606 0.58321 0.0
C1463 C 0.89254 0.76334 0.60671 0.0
H1464 H 0.89305 0.73799 0.55281 0.0
H1465 H 0.94578 0.80863 0.78208 0.0
H1466 H 0.30486 0.95949 0.63493 0.0
H1467 H 0.3076 0.98504 0.61118 0.0
H1468 H 0.27893 0.01634 0.6647 0.0
H1469 H 0.27466 0.99047 0.68739 0.0
H1470 H 0.26785 0.02535 0.62294 0.0
H1471 H 0.32719 0.01804 0.66002 0.0
H1472 H 0.35528 0.00247 0.67113 0.0
H1473 H 0.36523 0.99346 0.59465 0.0
H1474 H 0.33705 0.00879 0.58305 0.0
H1475 H 0.29686 0.10869 0.58693 0.0
H1476 H 0.29629 0.08263 0.61089 0.0
H1477 H 0.30512 0.04936 0.54554 0.0
H1478 H 0.30505 0.07538 0.52135 0.0
H1479 H 0.32682 0.04194 0.59303 0.0
H1480 H 0.26592 0.05039 0.55785 0.0
H1481 H 0.23912 0.0686 0.54961 0.0
H1482 H 0.23365 0.07799 0.62729 0.0
H1483 H 0.26067 0.06012 0.636 0.0
C1484 C 0.29883 0.97168 0.64154 0.0
C1485 C 0.28953 0.97273 0.66328 0.0
C1486 C 0.30072 0.98645 0.62808 0.0
C1487 C 0.29384 0.00284 0.63632 0.0
C1488 C 0.28448 0.00393 0.65792 0.0
C1489 C 0.28226 0.98909 0.67113 0.0
C1490 C 0.29607 0.01873 0.62224 0.0
C1491 C 0.28084 0.02902 0.61675 0.0
C1492 C 0.31294 0.0236 0.61376 0.0
C1493 C 0.32991 0.01441 0.62066 0.0
C1494 C 0.3353 0.01263 0.64556 0.0
C1495 C 0.35125 0.00386 0.65195 0.0
C1496 C 0.36201 0.99694 0.63361 0.0
C1497 C 0.35686 0.99881 0.60883 0.0
C1498 C 0.34091 0.00755 0.60234 0.0
C1499 C 0.29876 0.0958 0.57778 0.0
C1500 C 0.30081 0.09395 0.55232 0.0
C1501 C 0.29848 0.08097 0.59144 0.0
C1502 C 0.3006 0.06409 0.57994 0.0
C1503 C 0.3035 0.06229 0.55473 0.0
C1504 C 0.30343 0.0771 0.54096 0.0
C1505 C 0.29867 0.0483 0.59395 0.0
C1506 C 0.31392 0.03812 0.59935 0.0
C1507 C 0.28195 0.04372 0.6028 0.0
C1508 C 0.26542 0.05406 0.59757 0.0
C1509 C 0.25909 0.05645 0.57318 0.0
C1510 C 0.24385 0.0667 0.56842 0.0
C1511 C 0.23471 0.07449 0.58791 0.0
C1512 C 0.24076 0.07198 0.61221 0.0
C1513 C 0.25603 0.06178 0.61706 0.0
H1514 H 0.22293 0.08243 0.5842 0.0
H1515 H 0.37435 0.99016 0.63859 0.0
H1516 H 0.18957 0.41918 0.69249 0.0
H1517 H 0.15982 0.42047 0.67063 0.0
H1518 H 0.14211 0.37598 0.70763 0.0
H1519 H 0.17202 0.37406 0.72859 0.0
H1520 H 0.13222 0.37184 0.66061 0.0
H1521 H 0.12857 0.41865 0.72364 0.0
H1522 H 0.13842 0.44588 0.74811 0.0
H1523 H 0.13394 0.47445 0.68303 0.0
H1524 H 0.12431 0.44733 0.65808 0.0
H1525 H 0.03908 0.37888 0.62469 0.0
H1526 H 0.06609 0.38225 0.65337 0.0
H1527 H 0.0904 0.41601 0.6045 0.0
H1528 H 0.06378 0.41215 0.57548 0.0
H1529 H 0.09569 0.42622 0.65926 0.0
H1530 H 0.10454 0.37892 0.59629 0.0
H1531 H 0.09558 0.35174 0.57098 0.0
H1532 H 0.09003 0.32472 0.63647 0.0
H1533 H 0.09904 0.35177 0.66215 0.0
C1534 C 0.17939 0.40959 0.69584 0.0
C1535 C 0.18318 0.39655 0.71237 0.0
C1536 C 0.1623 0.41049 0.68357 0.0
C1537 C 0.14864 0.39849 0.68778 0.0
C1538 C 0.15241 0.38545 0.70421 0.0
C1539 C 0.16948 0.38447 0.71635 0.0
C1540 C 0.13062 0.39902 0.67433 0.0
C1541 C 0.12414 0.38367 0.66075 0.0
C1542 C 0.1202 0.41455 0.67398 0.0
C1543 C 0.12586 0.43092 0.68896 0.0
C1544 C 0.12981 0.43071 0.71451 0.0
C1545 C 0.13533 0.44614 0.72847 0.0
C1546 C 0.13684 0.46188 0.71713 0.0
C1547 C 0.13278 0.46224 0.69179 0.0
C1548 C 0.12727 0.44685 0.67773 0.0
C1549 C 0.05 0.38742 0.62053 0.0
C1550 C 0.04935 0.39545 0.59816 0.0
C1551 C 0.06538 0.38928 0.63679 0.0
C1552 C 0.08014 0.39939 0.63096 0.0
C1553 C 0.07904 0.40831 0.60936 0.0
C1554 C 0.06384 0.40617 0.59291 0.0
C1555 C 0.09746 0.39907 0.64591 0.0
C1556 C 0.10378 0.41441 0.65955 0.0
C1557 C 0.10779 0.38358 0.64639 0.0
C1558 C 0.10227 0.36736 0.63109 0.0
C1559 C 0.10132 0.36719 0.60526 0.0
C1560 C 0.09634 0.3518 0.59086 0.0
C1561 C 0.09219 0.33653 0.60211 0.0
C1562 C 0.09319 0.33658 0.62779 0.0
C1563 C 0.09831 0.35191 0.64227 0.0
H1564 H 0.08822 0.32466 0.59093 0.0
H1565 H 0.14113 0.4738 0.72797 0.0
H1566 H 0.77924 0.18161 0.80041 0.0
H1567 H 0.77161 0.15274 0.78049 0.0
H1568 H 0.72636 0.17474 0.73982 0.0
H1569 H 0.73312 0.20359 0.76104 0.0
H1570 H 0.71767 0.14303 0.75097 0.0
H1571 H 0.76708 0.16795 0.71418 0.0
H1572 H 0.79676 0.18233 0.71294 0.0
H1573 H 0.82274 0.13783 0.74348 0.0
H1574 H 0.79314 0.12328 0.74525 0.0
H1575 H 0.71862 0.07717 0.6477 0.0
H1576 H 0.72085 0.105 0.67355 0.0
H1577 H 0.75339 0.07959 0.72885 0.0
H1578 H 0.75059 0.05159 0.70343 0.0
H1579 H 0.76781 0.11285 0.70973 0.0
H1580 H 0.71559 0.08807 0.74387 0.0
H1581 H 0.68504 0.07495 0.74087 0.0
H1582 H 0.66349 0.12105 0.70925 0.0
H1583 H 0.69399 0.13433 0.71166 0.0
C1584 C 0.76734 0.18033 0.78779 0.0
C1585 C 0.7569 0.19509 0.78224 0.0
C1586 C 0.76314 0.16378 0.77612 0.0
C1587 C 0.7487 0.16163 0.75817 0.0
C1588 C 0.73769 0.17609 0.75343 0.0
C1589 C 0.74171 0.19265 0.7654 0.0
C1590 C 0.74577 0.14454 0.74345 0.0
C1591 C 0.7286 0.13653 0.74178 0.0
C1592 C 0.76 0.13601 0.73136 0.0
C1593 C 0.77787 0.1446 0.73008 0.0
C1594 C 0.77911 0.16128 0.72079 0.0
C1595 C 0.79592 0.16946 0.71998 0.0
C1596 C 0.81163 0.16102 0.7282 0.0
C1597 C 0.81056 0.14436 0.73716 0.0
C1598 C 0.79376 0.13613 0.73805 0.0
C1599 C 0.72603 0.07755 0.66553 0.0
C1600 C 0.73461 0.06241 0.67359 0.0
C1601 C 0.7273 0.09337 0.68022 0.0
C1602 C 0.73733 0.09429 0.70301 0.0
C1603 C 0.74564 0.0791 0.71126 0.0
C1604 C 0.74406 0.0632 0.69681 0.0
C1605 C 0.73987 0.1113 0.71769 0.0
C1606 C 0.75695 0.11935 0.71911 0.0
C1607 C 0.72546 0.12002 0.72894 0.0
C1608 C 0.70711 0.11212 0.7277 0.0
C1609 C 0.70437 0.09534 0.73605 0.0
C1610 C 0.68705 0.08789 0.7345 0.0
C1611 C 0.67234 0.09714 0.72481 0.0
C1612 C 0.67491 0.11389 0.71671 0.0
C1613 C 0.6922 0.12139 0.71819 0.0
H1614 H 0.65894 0.09134 0.72363 0.0
H1615 H 0.82464 0.16738 0.72757 0.0
H1616 H 0.80526 0.32812 0.41082 0.0
H1617 H 0.83387 0.34028 0.42905 0.0
H1618 H 0.86267 0.30225 0.38443 0.0
H1619 H 0.83415 0.28905 0.36766 0.0
H1620 H 0.87753 0.3037 0.4276 0.0
H1621 H 0.85947 0.34771 0.37337 0.0
H1622 H 0.83931 0.36938 0.35456 0.0
H1623 H 0.83813 0.39904 0.4244 0.0
H1624 H 0.85809 0.3774 0.44372 0.0
H1625 H 0.96268 0.35003 0.44241 0.0
H1626 H 0.93322 0.33982 0.42342 0.0
H1627 H 0.90777 0.35888 0.48883 0.0
H1628 H 0.93743 0.36836 0.50837 0.0
H1629 H 0.89173 0.36762 0.4356 0.0
H1630 H 0.91016 0.32111 0.48864 0.0
H1631 H 0.93227 0.29978 0.50409 0.0
H1632 H 0.93453 0.27517 0.43104 0.0
H1633 H 0.91265 0.29658 0.4151 0.0
C1634 C 0.81765 0.3222 0.405 0.0
C1635 C 0.81729 0.30751 0.38776 0.0
C1636 C 0.83406 0.32938 0.41519 0.0
C1637 C 0.8505 0.32236 0.40791 0.0
C1638 C 0.85019 0.30794 0.39034 0.0
C1639 C 0.8338 0.30054 0.38049 0.0
C1640 C 0.868 0.3295 0.41938 0.0
C1641 C 0.88063 0.31767 0.42901 0.0
C1642 C 0.87211 0.34776 0.42159 0.0
C1643 C 0.86013 0.36083 0.41004 0.0
C1644 C 0.8548 0.35877 0.38476 0.0
C1645 C 0.84343 0.37107 0.374 0.0
C1646 C 0.83741 0.38555 0.38829 0.0
C1647 C 0.84279 0.3878 0.41336 0.0
C1648 C 0.85414 0.37553 0.42422 0.0
C1649 C 0.95083 0.35169 0.45286 0.0
C1650 C 0.95227 0.35934 0.47711 0.0
C1651 C 0.93405 0.34608 0.44194 0.0
C1652 C 0.91845 0.34854 0.45485 0.0
C1653 C 0.91974 0.35686 0.47869 0.0
C1654 C 0.93659 0.36214 0.48982 0.0
C1655 C 0.9009 0.34181 0.44364 0.0
C1656 C 0.88841 0.35369 0.43409 0.0
C1657 C 0.89703 0.32361 0.44101 0.0
C1658 C 0.90993 0.31056 0.45064 0.0
C1659 C 0.9155 0.31126 0.47584 0.0
C1660 C 0.92797 0.29914 0.48469 0.0
C1661 C 0.93484 0.28616 0.46854 0.0
C1662 C 0.92921 0.28525 0.44352 0.0
C1663 C 0.91677 0.29736 0.43457 0.0
H1664 H 0.94449 0.27679 0.47543 0.0
H1665 H 0.82861 0.39505 0.37993 0.0
H1666 H 0.71943 0.83267 0.42599 0.0
H1667 H 0.71625 0.85828 0.45463 0.0
H1668 H 0.76902 0.87683 0.43925 0.0
H1669 H 0.77287 0.85054 0.4118 0.0
H1670 H 0.76483 0.88333 0.48564 0.0
H1671 H 0.72899 0.89305 0.41181 0.0
H1672 H 0.70581 0.88637 0.37786 0.0
H1673 H 0.66485 0.88556 0.42973 0.0
H1674 H 0.68784 0.89197 0.46404 0.0
H1675 H 0.72567 0.97633 0.51273 0.0
H1676 H 0.72839 0.95002 0.48441 0.0
H1677 H 0.73399 0.91791 0.54644 0.0
H1678 H 0.73147 0.94428 0.57465 0.0
H1679 H 0.7098 0.91953 0.475 0.0
H1680 H 0.76609 0.88686 0.53477 0.0
H1681 H 0.7905 0.89597 0.56611 0.0
H1682 H 0.79323 0.94663 0.53681 0.0
H1683 H 0.76912 0.93771 0.50503 0.0
C1684 C 0.73059 0.84192 0.42908 0.0
C1685 C 0.74643 0.83946 0.41646 0.0
C1686 C 0.72861 0.85676 0.44522 0.0
C1687 C 0.74222 0.86971 0.44871 0.0
C1688 C 0.75826 0.86708 0.43674 0.0
C1689 C 0.76037 0.85211 0.42084 0.0
C1690 C 0.73956 0.88613 0.46446 0.0
C1691 C 0.75278 0.89121 0.4833 0.0
C1692 C 0.72402 0.8967 0.46113 0.0
C1693 C 0.71017 0.89286 0.44051 0.0
C1694 C 0.71506 0.89132 0.41599 0.0
C1695 C 0.70195 0.8876 0.39668 0.0
C1696 C 0.68387 0.88553 0.40164 0.0
C1697 C 0.67886 0.88716 0.42592 0.0
C1698 C 0.69192 0.89085 0.44531 0.0
C1699 C 0.72726 0.96357 0.52013 0.0
C1700 C 0.72842 0.96213 0.54565 0.0
C1701 C 0.72879 0.9486 0.50405 0.0
C1702 C 0.7316 0.93205 0.51334 0.0
C1703 C 0.73206 0.93059 0.5389 0.0
C1704 C 0.73054 0.94556 0.55496 0.0
C1705 C 0.73486 0.91644 0.4964 0.0
C1706 C 0.72179 0.91157 0.47734 0.0
C1707 C 0.75075 0.90636 0.49907 0.0
C1708 C 0.76566 0.91166 0.51768 0.0
C1709 C 0.77198 0.8999 0.53493 0.0
C1710 C 0.78576 0.90503 0.55277 0.0
C1711 C 0.79337 0.92188 0.55349 0.0
C1712 C 0.7873 0.9336 0.53628 0.0
C1713 C 0.77357 0.92851 0.51835 0.0
H1714 H 0.80401 0.92584 0.56736 0.0
H1715 H 0.67372 0.88272 0.38668 0.0
H1716 H 0.19637 0.83337 0.32352 0.0
H1717 H 0.17292 0.82304 0.34835 0.0
H1718 H 0.13579 0.86067 0.31851 0.0
H1719 H 0.15949 0.87159 0.29426 0.0
H1720 H 0.13388 0.86031 0.36713 0.0
H1721 H 0.13248 0.81698 0.29928 0.0
H1722 H 0.14507 0.79508 0.26976 0.0
H1723 H 0.16306 0.76401 0.32911 0.0
H1724 H 0.1508 0.78586 0.35905 0.0
H1725 H 0.05757 0.82283 0.41632 0.0
H1726 H 0.07813 0.83217 0.38642 0.0
H1727 H 0.11953 0.79859 0.41605 0.0
H1728 H 0.09894 0.78894 0.4457 0.0
H1729 H 0.11757 0.79699 0.36527 0.0
H1730 H 0.12053 0.84144 0.43301 0.0
H1731 H 0.10791 0.86342 0.4624 0.0
H1732 H 0.08667 0.89239 0.40248 0.0
H1733 H 0.09896 0.87043 0.37269 0.0
C1734 C 0.18328 0.8396 0.32241 0.0
C1735 C 0.17983 0.85335 0.30694 0.0
C1736 C 0.16981 0.83352 0.33639 0.0
C1737 C 0.15251 0.84091 0.33503 0.0
C1738 C 0.14902 0.85472 0.31974 0.0
C1739 C 0.16253 0.86085 0.30577 0.0
C1740 C 0.13825 0.83444 0.35002 0.0
C1741 C 0.13008 0.84651 0.36639 0.0
C1742 C 0.13354 0.81638 0.3494 0.0
C1743 C 0.14084 0.80314 0.33143 0.0
C1744 C 0.13924 0.80554 0.30606 0.0
C1745 C 0.1463 0.79313 0.28925 0.0
C1746 C 0.15489 0.77818 0.29756 0.0
C1747 C 0.15641 0.7756 0.3227 0.0
C1748 C 0.14939 0.78799 0.3396 0.0
C1749 C 0.07096 0.81723 0.41621 0.0
C1750 C 0.07667 0.8052 0.43344 0.0
C1751 C 0.08272 0.82268 0.39925 0.0
C1752 C 0.1004 0.81622 0.39921 0.0
C1753 C 0.10595 0.80378 0.41583 0.0
C1754 C 0.09423 0.79838 0.43286 0.0
C1755 C 0.11335 0.82284 0.38244 0.0
C1756 C 0.12127 0.8108 0.36579 0.0
C1757 C 0.1178 0.84093 0.38273 0.0
C1758 C 0.11049 0.85419 0.40062 0.0
C1759 C 0.11304 0.85242 0.42609 0.0
C1760 C 0.10597 0.86489 0.44282 0.0
C1761 C 0.09645 0.87927 0.43431 0.0
C1762 C 0.09402 0.88123 0.40904 0.0
C1763 C 0.10104 0.86878 0.39223 0.0
H1764 H 0.09099 0.88891 0.44729 0.0
H1765 H 0.16035 0.76858 0.28451 0.0
H1766 H 0.25988 0.32297 0.35328 0.0
H1767 H 0.26519 0.2982 0.37873 0.0
H1768 H 0.28036 0.26603 0.31531 0.0
H1769 H 0.27575 0.29091 0.28978 0.0
H1770 H 0.2563 0.24908 0.34382 0.0
H1771 H 0.31239 0.28145 0.3557 0.0
H1772 H 0.33146 0.30785 0.36607 0.0
H1773 H 0.31224 0.31269 0.43871 0.0
H1774 H 0.29283 0.28644 0.42865 0.0
H1775 H 0.2911 0.17737 0.4075 0.0
H1776 H 0.28762 0.20198 0.38104 0.0
H1777 H 0.28148 0.23758 0.44511 0.0
H1778 H 0.28581 0.21303 0.47157 0.0
H1779 H 0.30124 0.25285 0.41557 0.0
H1780 H 0.24483 0.22175 0.40487 0.0
H1781 H 0.22472 0.19597 0.39558 0.0
H1782 H 0.24274 0.18954 0.32235 0.0
H1783 H 0.26318 0.21514 0.33132 0.0
C1784 C 0.2646 0.31074 0.3447 0.0
C1785 C 0.26747 0.30909 0.31936 0.0
C1786 C 0.26753 0.29653 0.35932 0.0
C1787 C 0.27329 0.28028 0.34897 0.0
C1788 C 0.27588 0.27844 0.32368 0.0
C1789 C 0.27313 0.2927 0.30907 0.0
C1790 C 0.27662 0.26523 0.36459 0.0
C1791 C 0.2663 0.24979 0.35931 0.0
C1792 C 0.28931 0.26634 0.38522 0.0
C1793 C 0.30102 0.28208 0.39134 0.0
C1794 C 0.31211 0.28823 0.37382 0.0
C1795 C 0.323 0.30315 0.37965 0.0
C1796 C 0.32303 0.31197 0.40301 0.0
C1797 C 0.31219 0.30586 0.42061 0.0
C1798 C 0.30125 0.29095 0.41486 0.0
C1799 C 0.28914 0.1905 0.41584 0.0
C1800 C 0.28868 0.19336 0.4415 0.0
C1801 C 0.287 0.20454 0.40074 0.0
C1802 C 0.28395 0.22167 0.41096 0.0
C1803 C 0.28377 0.22453 0.4367 0.0
C1804 C 0.28615 0.21052 0.45181 0.0
C1805 C 0.28088 0.23659 0.3949 0.0
C1806 C 0.29124 0.25206 0.40009 0.0
C1807 C 0.26804 0.23558 0.37436 0.0
C1808 C 0.25566 0.22026 0.36885 0.0
C1809 C 0.2446 0.21477 0.38683 0.0
C1810 C 0.23313 0.20019 0.38162 0.0
C1811 C 0.23248 0.19109 0.35841 0.0
C1812 C 0.24327 0.19658 0.34033 0.0
C1813 C 0.25479 0.21113 0.34546 0.0
H1814 H 0.22359 0.17981 0.35441 0.0
H1815 H 0.33147 0.32352 0.40749 0.0
H1816 H 0.74507 0.80912 0.90376 0.0
H1817 H 0.71782 0.8216 0.92028 0.0
H1818 H 0.68616 0.8 0.85586 0.0
H1819 H 0.71354 0.78826 0.83854 0.0
H1820 H 0.67427 0.83174 0.86975 0.0
H1821 H 0.68905 0.77916 0.90969 0.0
H1822 H 0.70885 0.7594 0.93293 0.0
H1823 H 0.71405 0.79827 0.99407 0.0
H1824 H 0.69452 0.8184 0.97101 0.0
H1825 H 0.58851 0.82974 0.92147 0.0
H1826 H 0.61677 0.82173 0.90291 0.0
H1827 H 0.64709 0.84862 0.96478 0.0
H1828 H 0.61889 0.85657 0.98352 0.0
H1829 H 0.65987 0.81507 0.95253 0.0
H1830 H 0.64372 0.8672 0.91202 0.0
H1831 H 0.62363 0.88628 0.88807 0.0
H1832 H 0.62014 0.847 0.82738 0.0
H1833 H 0.64002 0.82756 0.85112 0.0
C1834 C 0.7324 0.80734 0.89279 0.0
C1835 C 0.73151 0.79756 0.86985 0.0
C1836 C 0.71677 0.81432 0.90243 0.0
C1837 C 0.69988 0.81142 0.88955 0.0
C1838 C 0.69902 0.80229 0.86622 0.0
C1839 C 0.71468 0.79543 0.85645 0.0
C1840 C 0.68306 0.81729 0.90081 0.0
C1841 C 0.67103 0.82794 0.88773 0.0
C1842 C 0.67895 0.81255 0.92446 0.0
C1843 C 0.69046 0.80036 0.93852 0.0
C1844 C 0.6945 0.78354 0.92803 0.0
C1845 C 0.70567 0.77227 0.94117 0.0
C1846 C 0.71273 0.77759 0.96494 0.0
C1847 C 0.70859 0.79418 0.97564 0.0
C1848 C 0.69747 0.80552 0.96255 0.0
C1849 C 0.60121 0.83393 0.9311 0.0
C1850 C 0.6015 0.8438 0.95392 0.0
C1851 C 0.61731 0.82945 0.92042 0.0
C1852 C 0.634 0.83468 0.93241 0.0
C1853 C 0.63434 0.8445 0.95521 0.0
C1854 C 0.61824 0.84913 0.96579 0.0
C1855 C 0.65111 0.82951 0.92146 0.0
C1856 C 0.66316 0.81893 0.9346 0.0
C1857 C 0.65513 0.83417 0.89779 0.0
C1858 C 0.64322 0.84585 0.88345 0.0
C1859 C 0.63855 0.86256 0.89365 0.0
C1860 C 0.62722 0.87345 0.8801 0.0
C1861 C 0.62058 0.86783 0.85625 0.0
C1862 C 0.62528 0.85132 0.84587 0.0
C1863 C 0.63659 0.84037 0.85936 0.0
H1864 H 0.61181 0.87629 0.84578 0.0
H1865 H 0.72139 0.76886 0.97508 0.0
H1866 H 0.24083 0.81813 0.79559 0.0
H1867 H 0.23701 0.79284 0.81998 0.0
H1868 H 0.29445 0.7924 0.83838 0.0
H1869 H 0.29835 0.81751 0.81364 0.0
H1870 H 0.28282 0.76001 0.82906 0.0
H1871 H 0.26366 0.80996 0.8794 0.0
H1872 H 0.24587 0.83657 0.88886 0.0
H1873 H 0.19678 0.80625 0.87681 0.0
H1874 H 0.21428 0.77949 0.86697 0.0
H1875 H 0.2583 0.72247 0.95161 0.0
H1876 H 0.26233 0.74699 0.92606 0.0
H1877 H 0.24932 0.71284 0.86072 0.0
H1878 H 0.24488 0.68825 0.88618 0.0
H1879 H 0.23938 0.76276 0.89446 0.0
H1880 H 0.27484 0.72614 0.81472 0.0
H1881 H 0.29462 0.70055 0.80785 0.0
H1882 H 0.31473 0.70609 0.88368 0.0
H1883 H 0.29528 0.73185 0.8909 0.0
C1884 C 0.25263 0.81268 0.80492 0.0
C1885 C 0.26988 0.8199 0.80279 0.0
C1886 C 0.25044 0.79822 0.81888 0.0
C1887 C 0.2654 0.79082 0.83139 0.0
C1888 C 0.28268 0.79783 0.82893 0.0
C1889 C 0.2849 0.81219 0.81476 0.0
C1890 C 0.26305 0.77593 0.84724 0.0
C1891 C 0.27328 0.76063 0.84331 0.0
C1892 C 0.25081 0.77672 0.86614 0.0
C1893 C 0.24028 0.79276 0.87225 0.0
C1894 C 0.24907 0.80899 0.87863 0.0
C1895 C 0.23904 0.82409 0.88407 0.0
C1896 C 0.22021 0.8231 0.88338 0.0
C1897 C 0.21137 0.807 0.87731 0.0
C1898 C 0.22134 0.79186 0.87183 0.0
C1899 C 0.25607 0.72015 0.93182 0.0
C1900 C 0.2512 0.7033 0.92103 0.0
C1901 C 0.25846 0.73422 0.91722 0.0
C1902 C 0.25623 0.73178 0.89145 0.0
C1903 C 0.25135 0.71501 0.88056 0.0
C1904 C 0.24889 0.70092 0.89517 0.0
C1905 C 0.259 0.74682 0.87608 0.0
C1906 C 0.24884 0.76213 0.88011 0.0
C1907 C 0.27155 0.74616 0.8576 0.0
C1908 C 0.28345 0.7308 0.85339 0.0
C1909 C 0.28353 0.72193 0.8299 0.0
C1910 C 0.29468 0.70739 0.82595 0.0
C1911 C 0.30587 0.70166 0.84534 0.0
C1912 C 0.306 0.7105 0.8687 0.0
C1913 C 0.2949 0.72505 0.87274 0.0
H1914 H 0.31448 0.6904 0.84224 0.0
H1915 H 0.21247 0.83481 0.88759 0.0
H1916 H 0.33207 0.3536 0.88223 0.0
H1917 H 0.358 0.34205 0.90573 0.0
H1918 H 0.39249 0.3539 0.84843 0.0
H1919 H 0.36646 0.36504 0.82446 0.0
H1920 H 0.39864 0.32118 0.86369 0.0
H1921 H 0.39362 0.37956 0.90162 0.0
H1922 H 0.37805 0.40468 0.92167 0.0
H1923 H 0.36632 0.37347 0.98117 0.0
H1924 H 0.38161 0.34808 0.96128 0.0
H1925 H 0.48251 0.31142 0.9332 0.0
H1926 H 0.45665 0.32188 0.908 0.0
H1927 H 0.42153 0.31178 0.96545 0.0
H1928 H 0.44753 0.30165 0.99076 0.0
H1929 H 0.41589 0.34375 0.94968 0.0
H1930 H 0.42092 0.28536 0.91195 0.0
H1931 H 0.43647 0.26019 0.89201 0.0
H1932 H 0.44813 0.29121 0.83228 0.0
H1933 H 0.43287 0.31666 0.85207 0.0
C1934 C 0.34516 0.35369 0.87459 0.0
C1935 C 0.34723 0.36024 0.85149 0.0
C1936 C 0.35999 0.34721 0.88812 0.0
C1937 C 0.3772 0.34725 0.87892 0.0
C1938 C 0.37933 0.35379 0.85589 0.0
C1939 C 0.36449 0.3603 0.84233 0.0
C1940 C 0.3929 0.34022 0.89322 0.0
C1941 C 0.4026 0.32627 0.88237 0.0
C1942 C 0.39775 0.34659 0.91778 0.0
C1943 C 0.38861 0.36187 0.92984 0.0
C1944 C 0.3876 0.37801 0.91888 0.0
C1945 C 0.37884 0.3923 0.93023 0.0
C1946 C 0.37116 0.39066 0.95265 0.0
C1947 C 0.37226 0.37472 0.96379 0.0
C1948 C 0.38098 0.36038 0.9525 0.0
C1949 C 0.4692 0.3113 0.94019 0.0
C1950 C 0.46682 0.30582 0.96374 0.0
C1951 C 0.45446 0.3172 0.92585 0.0
C1952 C 0.43713 0.31751 0.9348 0.0
C1953 C 0.43477 0.31167 0.95821 0.0
C1954 C 0.44953 0.30582 0.97256 0.0
C1955 C 0.42161 0.32464 0.92022 0.0
C1956 C 0.41195 0.33863 0.931 0.0
C1957 C 0.4168 0.31829 0.89562 0.0
C1958 C 0.4259 0.30297 0.88362 0.0
C1959 C 0.42692 0.28686 0.89466 0.0
C1960 C 0.43566 0.27253 0.88337 0.0
C1961 C 0.44332 0.27411 0.86092 0.0
C1962 C 0.44221 0.29001 0.84969 0.0
C1963 C 0.4335 0.30439 0.86092 0.0
H1964 H 0.45008 0.26301 0.85221 0.0
H1965 H 0.36439 0.40174 0.96141 0.0
H1966 H 0.79577 0.32152 0.95886 0.0
H1967 H 0.7987 0.34594 0.99081 0.0
H1968 H 0.78819 0.3829 0.93547 0.0
H1969 H 0.78544 0.35866 0.90354 0.0
H1970 H 0.81851 0.3915 0.96654 0.0
H1971 H 0.75632 0.37384 0.97317 0.0
H1972 H 0.73208 0.35276 0.97957 0.0
H1973 H 0.75658 0.34416 0.05119 0.0
H1974 H 0.78112 0.36501 0.04507 0.0
H1975 H 0.80287 0.4716 0.0316 0.0
H1976 H 0.80008 0.44435 0.00502 0.0
H1977 H 0.80492 0.41415 0.06906 0.0
H1978 H 0.80698 0.44166 0.09578 0.0
H1979 H 0.77961 0.40006 0.03684 0.0
H1980 H 0.84038 0.41852 0.03274 0.0
H1981 H 0.86532 0.4391 0.02761 0.0
H1982 H 0.84538 0.44495 0.95297 0.0
H1983 H 0.82011 0.42466 0.95778 0.0
C1984 C 0.79398 0.33486 0.95357 0.0
C1985 C 0.79029 0.33818 0.92871 0.0
C1986 C 0.79558 0.34877 0.97183 0.0
C1987 C 0.79361 0.36622 0.9655 0.0
C1988 C 0.78973 0.36953 0.94074 0.0
C1989 C 0.788 0.35566 0.92255 0.0
C1990 C 0.79619 0.38117 0.98441 0.0
C1991 C 0.8099 0.39348 0.98179 0.0
C1992 C 0.78544 0.38332 0.00485 0.0
C1993 C 0.77067 0.37082 0.00854 0.0
C1994 C 0.75663 0.36733 0.99019 0.0
C1995 C 0.74282 0.35545 0.99379 0.0
C1996 C 0.74282 0.34708 0.01574 0.0
C1997 C 0.75661 0.35062 0.03417 0.0
C1998 C 0.77047 0.36247 0.03065 0.0
C1999 C 0.80312 0.45912 0.03993 0.0
C2000 C 0.80484 0.45859 0.06561 0.0
C2001 C 0.80171 0.44357 0.02478 0.0
C2002 C 0.80254 0.42717 0.03501 0.0
C2003 C 0.80424 0.42664 0.06076 0.0
C2004 C 0.80546 0.44227 0.07597 0.0
C2005 C 0.80163 0.4107 0.0186 0.0
C2006 C 0.78833 0.39804 0.02173 0.0
C2007 C 0.81294 0.40807 0.99878 0.0
C2008 C 0.82826 0.42014 0.99569 0.0
C2009 C 0.84124 0.42428 0.01528 0.0
C2010 C 0.85544 0.43589 0.01242 0.0
C2011 C 0.85692 0.44335 0.98999 0.0
C2012 C 0.84422 0.43917 0.97035 0.0
C2013 C 0.82995 0.4276 0.97312 0.0
H2014 H 0.86793 0.45233 0.98782 0.0
H2015 H 0.73212 0.33789 0.01849 0.0
H2016 H 0.67652 0.24538 0.22984 0.0
H2017 H 0.65215 0.2458 0.19756 0.0
H2018 H 0.634 0.29541 0.22952 0.0
H2019 H 0.65902 0.29581 0.26106 0.0
H2020 H 0.60685 0.26287 0.21626 0.0
H2021 H 0.65167 0.30184 0.18582 0.0
H2022 H 0.68229 0.30855 0.17399 0.0
H2023 H 0.67944 0.26391 0.12108 0.0
H2024 H 0.64889 0.25678 0.13291 0.0
H2025 H 0.54205 0.29144 0.12751 0.0
H2026 H 0.56584 0.28748 0.15981 0.0
H2027 H 0.59603 0.25636 0.10762 0.0
H2028 H 0.57273 0.26148 0.07497 0.0
H2029 H 0.61777 0.27745 0.13133 0.0
H2030 H 0.57372 0.23866 0.15686 0.0
H2031 H 0.54387 0.2288 0.16798 0.0
H2032 H 0.5456 0.2679 0.22887 0.0
H2033 H 0.57536 0.27818 0.2179 0.0
C2034 C 0.66764 0.25661 0.22981 0.0
C2035 C 0.6699 0.27064 0.24809 0.0
C2036 C 0.6536 0.25669 0.21148 0.0
C2037 C 0.64135 0.2706 0.21133 0.0
C2038 C 0.64333 0.28451 0.22955 0.0
C2039 C 0.65759 0.28465 0.24762 0.0
C2040 C 0.62655 0.27067 0.19193 0.0
C2041 C 0.60908 0.26624 0.19771 0.0
C2042 C 0.62979 0.27431 0.16763 0.0
C2043 C 0.64811 0.27865 0.16048 0.0
C2044 C 0.65765 0.29334 0.17187 0.0
C2045 C 0.67498 0.29725 0.16512 0.0
C2046 C 0.68284 0.28662 0.14686 0.0
C2047 C 0.67336 0.2721 0.13526 0.0
C2048 C 0.65604 0.26813 0.14198 0.0
C2049 C 0.55374 0.28366 0.12312 0.0
C2050 C 0.55572 0.27682 0.09891 0.0
C2051 C 0.56726 0.28124 0.14158 0.0
C2052 C 0.5827 0.27141 0.1363 0.0
C2053 C 0.5843 0.26402 0.11218 0.0
C2054 C 0.57098 0.26682 0.0936 0.0
C2055 C 0.59768 0.26986 0.1555 0.0
C2056 C 0.61531 0.27396 0.14975 0.0
C2057 C 0.59462 0.26545 0.1797 0.0
C2058 C 0.57672 0.25929 0.18642 0.0
C2059 C 0.56768 0.24525 0.17251 0.0
C2060 C 0.55078 0.23957 0.17881 0.0
C2061 C 0.54282 0.24774 0.19909 0.0
C2062 C 0.55177 0.26159 0.21315 0.0
C2063 C 0.56867 0.26734 0.20692 0.0
H2064 H 0.52974 0.24332 0.20393 0.0
H2065 H 0.69625 0.28968 0.14165 0.0
H2066 H 0.75994 0.6772 0.2998 0.0
H2067 H 0.77007 0.64849 0.28355 0.0
H2068 H 0.81346 0.67338 0.24996 0.0
H2069 H 0.8039 0.70215 0.26692 0.0
H2070 H 0.79191 0.65016 0.21745 0.0
H2071 H 0.82368 0.65076 0.29736 0.0
H2072 H 0.82638 0.65375 0.34275 0.0
H2073 H 0.78941 0.61051 0.34501 0.0
H2074 H 0.78627 0.60743 0.2996 0.0
H2075 H 0.83213 0.5747 0.16878 0.0
H2076 H 0.82933 0.60185 0.19489 0.0
H2077 H 0.79079 0.57635 0.23666 0.0
H2078 H 0.79438 0.54879 0.21121 0.0
H2079 H 0.81054 0.59992 0.26609 0.0
H2080 H 0.77692 0.59967 0.18818 0.0
H2081 H 0.7726 0.59599 0.1429 0.0
H2082 H 0.81019 0.63817 0.13684 0.0
H2083 H 0.81497 0.64191 0.18212 0.0
C2084 C 0.77192 0.6766 0.2895 0.0
C2085 C 0.78105 0.69208 0.28465 0.0
C2086 C 0.77762 0.66015 0.28011 0.0
C2087 C 0.79251 0.65882 0.26557 0.0
C2088 C 0.80189 0.67414 0.26107 0.0
C2089 C 0.79632 0.69059 0.27067 0.0
C2090 C 0.79763 0.64156 0.25385 0.0
C2091 C 0.79629 0.63926 0.22806 0.0
C2092 C 0.80269 0.62719 0.26777 0.0
C2093 C 0.80461 0.62897 0.29507 0.0
C2094 C 0.816 0.64198 0.30753 0.0
C2095 C 0.81764 0.64368 0.33326 0.0
C2096 C 0.80804 0.63235 0.34676 0.0
C2097 C 0.79682 0.61929 0.33454 0.0
C2098 C 0.79512 0.61755 0.3088 0.0
C2099 C 0.82361 0.57473 0.18416 0.0
C2100 C 0.81359 0.55968 0.18823 0.0
C2101 C 0.82184 0.59028 0.19887 0.0
C2102 C 0.80953 0.59126 0.21737 0.0
C2103 C 0.80033 0.57592 0.22246 0.0
C2104 C 0.80237 0.56021 0.20798 0.0
C2105 C 0.80503 0.60858 0.22965 0.0
C2106 C 0.80631 0.61086 0.25547 0.0
C2107 C 0.79958 0.6229 0.21579 0.0
C2108 C 0.79643 0.62096 0.18855 0.0
C2109 C 0.78434 0.6081 0.17719 0.0
C2110 C 0.78181 0.606 0.15153 0.0
C2111 C 0.79115 0.61681 0.137 0.0
C2112 C 0.80298 0.62979 0.14812 0.0
C2113 C 0.8056 0.63192 0.17379 0.0
H2114 H 0.78919 0.61515 0.11713 0.0
H2115 H 0.80932 0.63368 0.36668 0.0
H2116 H 0.31921 0.8942 0.1349 0.0
H2117 H 0.34665 0.89595 0.11293 0.0
H2118 H 0.3778 0.87717 0.17519 0.0
H2119 H 0.3507 0.8766 0.19794 0.0
H2120 H 0.39624 0.90124 0.15708 0.0
H2121 H 0.36322 0.84986 0.12237 0.0
H2122 H 0.33686 0.83337 0.10248 0.0
H2123 H 0.3378 0.86432 0.03989 0.0
H2124 H 0.36403 0.88116 0.05956 0.0
H2125 H 0.47061 0.86223 0.09809 0.0
H2126 H 0.44277 0.86733 0.11921 0.0
H2127 H 0.42123 0.89681 0.05955 0.0
H2128 H 0.44917 0.8919 0.03843 0.0
H2129 H 0.39766 0.86986 0.07432 0.0
H2130 H 0.43334 0.91925 0.10923 0.0
H2131 H 0.46047 0.93401 0.1298 0.0
H2132 H 0.45535 0.90443 0.19304 0.0
H2133 H 0.42832 0.88929 0.17269 0.0
C2134 C 0.33193 0.89076 0.14414 0.0
C2135 C 0.33265 0.88509 0.16817 0.0
C2136 C 0.34761 0.89155 0.13139 0.0
C2137 C 0.36427 0.88634 0.14218 0.0
C2138 C 0.3651 0.88115 0.16638 0.0
C2139 C 0.34951 0.88061 0.17927 0.0
C2140 C 0.38079 0.88587 0.12819 0.0
C2141 C 0.39655 0.89424 0.13908 0.0
C2142 C 0.38118 0.87705 0.10445 0.0
C2143 C 0.36546 0.8669 0.09255 0.0
C2144 C 0.35772 0.85323 0.10444 0.0
C2145 C 0.34282 0.84381 0.0932 0.0
C2146 C 0.33563 0.84783 0.06997 0.0
C2147 C 0.34336 0.86125 0.0579 0.0
C2148 C 0.35825 0.87073 0.06908 0.0
C2149 C 0.45994 0.86983 0.08954 0.0
C2150 C 0.46199 0.87668 0.06667 0.0
C2151 C 0.44413 0.8728 0.10165 0.0
C2152 C 0.43003 0.8825 0.09095 0.0
C2153 C 0.43201 0.88934 0.06809 0.0
C2154 C 0.44796 0.8866 0.05614 0.0
C2155 C 0.41302 0.88499 0.1034 0.0
C2156 C 0.39722 0.87698 0.09222 0.0
C2157 C 0.41267 0.89389 0.127 0.0
C2158 C 0.42889 0.90302 0.13933 0.0
C2159 C 0.43808 0.91577 0.12743 0.0
C2160 C 0.45343 0.92423 0.13907 0.0
C2161 C 0.45966 0.92013 0.16269 0.0
C2162 C 0.45052 0.90758 0.17474 0.0
C2163 C 0.43518 0.89907 0.16317 0.0
H2164 H 0.47154 0.9267 0.17167 0.0
H2165 H 0.32409 0.84052 0.0613 0.0
H2166 H 0.25425 0.47868 0.20126 0.0
H2167 H 0.25234 0.50332 0.17512 0.0
H2168 H 0.2299 0.46888 0.1144 0.0
H2169 H 0.23265 0.44393 0.1401 0.0
H2170 H 0.25368 0.49022 0.09835 0.0
H2171 H 0.20328 0.49799 0.14792 0.0
H2172 H 0.18742 0.50068 0.18628 0.0
H2173 H 0.21909 0.54657 0.21136 0.0
H2174 H 0.23532 0.54401 0.17327 0.0
H2175 H 0.22559 0.56063 0.02566 0.0
H2176 H 0.22531 0.53491 0.05002 0.0
H2177 H 0.25058 0.56567 0.11256 0.0
H2178 H 0.25034 0.59156 0.0886 0.0
H2179 H 0.22381 0.54555 0.12629 0.0
H2180 H 0.275 0.53652 0.07656 0.0
H2181 H 0.28981 0.53391 0.03737 0.0
H2182 H 0.25506 0.49033 0.01149 0.0
H2183 H 0.23996 0.49276 0.05053 0.0
C2184 C 0.24908 0.47625 0.18228 0.0
C2185 C 0.24357 0.45924 0.17289 0.0
C2186 C 0.24779 0.49045 0.1674 0.0
C2187 C 0.2407 0.48808 0.14283 0.0
C2188 C 0.23533 0.4711 0.13331 0.0
C2189 C 0.23673 0.45686 0.14815 0.0
C2190 C 0.23903 0.50329 0.12711 0.0
C2191 C 0.24691 0.50221 0.10433 0.0
C2192 C 0.23041 0.51908 0.13493 0.0
C2193 C 0.22063 0.52071 0.15783 0.0
C2194 C 0.20695 0.50858 0.16169 0.0
C2195 C 0.19788 0.51009 0.18337 0.0
C2196 C 0.20227 0.52376 0.20127 0.0
C2197 C 0.21572 0.53598 0.19749 0.0
C2198 C 0.22484 0.53451 0.17585 0.0
C2199 C 0.23089 0.56198 0.04469 0.0
C2200 C 0.23802 0.57817 0.05515 0.0
C2201 C 0.23089 0.54721 0.05853 0.0
C2202 C 0.23814 0.54827 0.08306 0.0
C2203 C 0.24498 0.56449 0.09366 0.0
C2204 C 0.24497 0.57925 0.07986 0.0
C2205 C 0.23866 0.53254 0.09777 0.0
C2206 C 0.23053 0.53352 0.12032 0.0
C2207 C 0.24693 0.51664 0.08965 0.0
C2208 C 0.25625 0.51492 0.06638 0.0
C2209 C 0.27046 0.52643 0.06247 0.0
C2210 C 0.27892 0.52498 0.04028 0.0
C2211 C 0.27333 0.512 0.02189 0.0
C2212 C 0.25936 0.50039 0.02573 0.0
C2213 C 0.25087 0.50177 0.04791 0.0
H2214 H 0.27986 0.51091 0.0047 0.0
H2215 H 0.19524 0.52491 0.21804 0.0
H2216 H 0.34813 0.35248 0.23362 0.0
H2217 H 0.37545 0.34257 0.21485 0.0
H2218 H 0.34483 0.3025 0.16997 0.0
H2219 H 0.31756 0.31146 0.19002 0.0
H2220 H 0.37752 0.29076 0.18149 0.0
H2221 H 0.35321 0.34347 0.14922 0.0
H2222 H 0.34222 0.37397 0.15186 0.0
H2223 H 0.39407 0.39218 0.18355 0.0
H2224 H 0.40529 0.36171 0.18144 0.0
H2225 H 0.43117 0.28448 0.0773 0.0
H2226 H 0.40714 0.28902 0.10554 0.0
H2227 H 0.44173 0.32446 0.15285 0.0
H2228 H 0.46601 0.31969 0.12506 0.0
H2229 H 0.40819 0.33816 0.14189 0.0
H2230 H 0.43286 0.28469 0.17062 0.0
H2231 H 0.44316 0.25397 0.16644 0.0
H2232 H 0.38989 0.23699 0.13896 0.0
H2233 H 0.37933 0.26766 0.14264 0.0
C2234 C 0.34721 0.34117 0.22039 0.0
C2235 C 0.33049 0.33296 0.21311 0.0
C2236 C 0.36287 0.33567 0.20941 0.0
C2237 C 0.36209 0.32215 0.19048 0.0
C2238 C 0.34572 0.31311 0.18434 0.0
C2239 C 0.33008 0.3184 0.19563 0.0
C2240 C 0.3779 0.31842 0.17572 0.0
C2241 C 0.38414 0.30109 0.17267 0.0
C2242 C 0.38669 0.33194 0.16443 0.0
C2243 C 0.38003 0.3503 0.1654 0.0
C2244 C 0.36223 0.35397 0.15688 0.0
C2245 C 0.35596 0.37125 0.15829 0.0
C2246 C 0.36743 0.38501 0.16793 0.0
C2247 C 0.3852 0.38151 0.17612 0.0
C2248 C 0.39153 0.36423 0.17482 0.0
C2249 C 0.43379 0.29302 0.09391 0.0
C2250 C 0.45053 0.30175 0.09887 0.0
C2251 C 0.42003 0.29561 0.11 0.0
C2252 C 0.42273 0.30697 0.13135 0.0
C2253 C 0.4394 0.31564 0.13645 0.0
C2254 C 0.4532 0.31299 0.12044 0.0
C2255 C 0.40783 0.31053 0.1477 0.0
C2256 C 0.40169 0.32785 0.15091 0.0
C2257 C 0.39905 0.29697 0.15884 0.0
C2258 C 0.40535 0.2785 0.1567 0.0
C2259 C 0.42338 0.27443 0.16349 0.0
C2260 C 0.42926 0.25701 0.16125 0.0
C2261 C 0.4172 0.24354 0.15238 0.0
C2262 C 0.39922 0.24744 0.1458 0.0
C2263 C 0.39328 0.26484 0.14798 0.0
H2264 H 0.42177 0.23007 0.15067 0.0
H2265 H 0.36259 0.39839 0.16902 0.0
H2266 H 0.77253 0.3477 0.31545 0.0
H2267 H 0.77974 0.37401 0.29473 0.0
H2268 H 0.7444 0.35567 0.23193 0.0
H2269 H 0.73773 0.32903 0.2523 0.0
H2270 H 0.77367 0.36802 0.21656 0.0
H2271 H 0.73253 0.3894 0.27586 0.0
H2272 H 0.72105 0.39429 0.31716 0.0
H2273 H 0.76938 0.42303 0.34278 0.0
H2274 H 0.78124 0.41812 0.3017 0.0
H2275 H 0.76745 0.44832 0.1595 0.0
H2276 H 0.75949 0.42308 0.18191 0.0
H2277 H 0.80057 0.43833 0.23928 0.0
H2278 H 0.80836 0.46388 0.21719 0.0
H2279 H 0.76855 0.42793 0.25749 0.0
H2280 H 0.80912 0.4065 0.19702 0.0
H2281 H 0.81954 0.4021 0.15506 0.0
H2282 H 0.77071 0.37371 0.13095 0.0
H2283 H 0.75986 0.37816 0.1727 0.0
C2284 C 0.76626 0.34938 0.29727 0.0
C2285 C 0.75453 0.33645 0.28546 0.0
C2286 C 0.77032 0.36442 0.28548 0.0
C2287 C 0.76237 0.36699 0.26192 0.0
C2288 C 0.75069 0.354 0.25009 0.0
C2289 C 0.74687 0.33882 0.26172 0.0
C2290 C 0.76642 0.38306 0.2494 0.0
C2291 C 0.77229 0.38111 0.22542 0.0
C2292 C 0.765 0.40017 0.26109 0.0
C2293 C 0.75784 0.40326 0.28576 0.0
C2294 C 0.74076 0.39667 0.29034 0.0
C2295 C 0.73417 0.39946 0.31371 0.0
C2296 C 0.7445 0.40893 0.3326 0.0
C2297 C 0.7614 0.41568 0.32814 0.0
C2298 C 0.76805 0.41292 0.30481 0.0
C2299 C 0.77459 0.44647 0.17708 0.0
C2300 C 0.78855 0.45805 0.18659 0.0
C2301 C 0.77014 0.43196 0.18974 0.0
C2302 C 0.7796 0.42875 0.21207 0.0
C2303 C 0.79317 0.44057 0.222 0.0
C2304 C 0.79767 0.45506 0.20931 0.0
C2305 C 0.77564 0.4128 0.22474 0.0
C2306 C 0.76986 0.4148 0.24871 0.0
C2307 C 0.77698 0.39574 0.21297 0.0
C2308 C 0.78361 0.39281 0.18794 0.0
C2309 C 0.80055 0.39942 0.18274 0.0
C2310 C 0.80654 0.3969 0.15899 0.0
C2311 C 0.79577 0.38767 0.14034 0.0
C2312 C 0.77902 0.38087 0.14541 0.0
C2313 C 0.77295 0.38338 0.16912 0.0
H2314 H 0.80042 0.38575 0.12196 0.0
H2315 H 0.73938 0.41107 0.35068 0.0
H2316 H 0.6796 0.83048 0.23546 0.0
H2317 H 0.65747 0.84253 0.20624 0.0
H2318 H 0.62902 0.79276 0.19775 0.0
H2319 H 0.65154 0.78038 0.22632 0.0
H2320 H 0.63321 0.80494 0.15421 0.0
H2321 H 0.61233 0.82832 0.23094 0.0
H2322 H 0.61507 0.84403 0.27216 0.0
H2323 H 0.6302 0.89139 0.24037 0.0
H2324 H 0.62779 0.87589 0.19897 0.0
H2325 H 0.54884 0.8547 0.11139 0.0
H2326 H 0.56936 0.84641 0.14582 0.0
H2327 H 0.61454 0.84994 0.10054 0.0
H2328 H 0.59398 0.85807 0.06613 0.0
H2329 H 0.60006 0.86032 0.1723 0.0
H2330 H 0.64025 0.81394 0.10845 0.0
H2331 H 0.63597 0.79729 0.06794 0.0
H2332 H 0.57899 0.79366 0.07622 0.0
H2333 H 0.58295 0.81014 0.11685 0.0
C2334 C 0.66869 0.82205 0.22728 0.0
C2335 C 0.66738 0.80443 0.23311 0.0
C2336 C 0.65593 0.82903 0.21079 0.0
C2337 C 0.6415 0.8186 0.19998 0.0
C2338 C 0.64004 0.80105 0.20594 0.0
C2339 C 0.65283 0.79404 0.2224 0.0
C2340 C 0.62834 0.8258 0.18174 0.0
C2341 C 0.62595 0.81703 0.15823 0.0
C2342 C 0.61872 0.8415 0.18702 0.0
C2343 C 0.62002 0.8509 0.21187 0.0
C2344 C 0.61636 0.84205 0.23275 0.0
C2345 C 0.61784 0.85092 0.25615 0.0
C2346 C 0.62285 0.86868 0.25889 0.0
C2347 C 0.62634 0.87762 0.23822 0.0
C2348 C 0.6249 0.86881 0.21479 0.0
C2349 C 0.56323 0.85411 0.10916 0.0
C2350 C 0.56999 0.85696 0.08638 0.0
C2351 C 0.5749 0.8494 0.12872 0.0
C2352 C 0.59341 0.84736 0.12558 0.0
C2353 C 0.60027 0.85128 0.10321 0.0
C2354 C 0.58861 0.856 0.08369 0.0
C2355 C 0.60525 0.8396 0.14479 0.0
C2356 C 0.60736 0.84825 0.16839 0.0
C2357 C 0.6144 0.82363 0.13978 0.0
C2358 C 0.6119 0.8134 0.11558 0.0
C2359 C 0.62683 0.80952 0.10165 0.0
C2360 C 0.62445 0.80014 0.07866 0.0
C2361 C 0.6072 0.79448 0.06947 0.0
C2362 C 0.59232 0.79812 0.08331 0.0
C2363 C 0.59462 0.8075 0.1063 0.0
H2364 H 0.60539 0.78724 0.05166 0.0
H2365 H 0.62399 0.87553 0.27702 0.0
H2366 H 0.18527 0.79767 0.18091 0.0
H2367 H 0.18234 0.76924 0.15678 0.0
H2368 H 0.23443 0.75402 0.18772 0.0
H2369 H 0.2376 0.78232 0.21145 0.0
H2370 H 0.23203 0.75409 0.13697 0.0
H2371 H 0.19867 0.73225 0.20096 0.0
H2372 H 0.17428 0.73255 0.2295 0.0
H2373 H 0.13464 0.72866 0.16828 0.0
H2374 H 0.1588 0.72862 0.13935 0.0
H2375 H 0.22144 0.65925 0.08692 0.0
H2376 H 0.21541 0.68166 0.12011 0.0
H2377 H 0.2044 0.71958 0.0662 0.0
H2378 H 0.2105 0.6973 0.03321 0.0
H2379 H 0.18575 0.70649 0.13059 0.0
H2380 H 0.22895 0.75403 0.08436 0.0
H2381 H 0.25407 0.75439 0.05692 0.0
H2382 H 0.27518 0.7072 0.0859 0.0
H2383 H 0.25 0.70641 0.11319 0.0
C2384 C 0.19589 0.78808 0.18296 0.0
C2385 C 0.2117 0.79226 0.19799 0.0
C2386 C 0.19415 0.77183 0.16931 0.0
C2387 C 0.20819 0.7596 0.17048 0.0
C2388 C 0.22343 0.7633 0.18666 0.0
C2389 C 0.22515 0.77945 0.20035 0.0
C2390 C 0.20834 0.74421 0.15237 0.0
C2391 C 0.22192 0.74366 0.1357 0.0
C2392 C 0.1951 0.73069 0.15063 0.0
C2393 C 0.18055 0.7306 0.16799 0.0
C2394 C 0.18475 0.73162 0.19358 0.0
C2395 C 0.17097 0.73171 0.20983 0.0
C2396 C 0.15292 0.73067 0.20071 0.0
C2397 C 0.14863 0.72948 0.17531 0.0
C2398 C 0.16236 0.72941 0.15898 0.0
C2399 C 0.21713 0.67223 0.08227 0.0
C2400 C 0.21617 0.67661 0.05769 0.0
C2401 C 0.21372 0.68497 0.10112 0.0
C2402 C 0.20954 0.70224 0.09553 0.0
C2403 C 0.2076 0.70631 0.07083 0.0
C2404 C 0.21097 0.69361 0.05205 0.0
C2405 C 0.20942 0.71652 0.11535 0.0
C2406 C 0.19583 0.71692 0.13208 0.0
C2407 C 0.22265 0.73 0.11732 0.0
C2408 C 0.23757 0.7301 0.10062 0.0
C2409 C 0.23893 0.74371 0.08477 0.0
C2410 C 0.25313 0.74395 0.06921 0.0
C2411 C 0.26616 0.73076 0.06957 0.0
C2412 C 0.26501 0.71732 0.08551 0.0
C2413 C 0.25071 0.7169 0.10091 0.0
H2414 H 0.27717 0.73099 0.05757 0.0
H2415 H 0.14226 0.73074 0.21332 0.0
H2416 H 0.36671 0.85777 0.7965 0.0
H2417 H 0.39379 0.85572 0.82387 0.0
H2418 H 0.37375 0.89652 0.87367 0.0
H2419 H 0.34714 0.8995 0.84553 0.0
H2420 H 0.40757 0.90242 0.86892 0.0
H2421 H 0.37382 0.85195 0.88598 0.0
H2422 H 0.35621 0.82449 0.87676 0.0
H2423 H 0.40181 0.79968 0.84481 0.0
H2424 H 0.41963 0.82708 0.85353 0.0
H2425 H 0.4706 0.88362 0.96953 0.0
H2426 H 0.44284 0.88709 0.94319 0.0
H2427 H 0.46569 0.85554 0.88433 0.0
H2428 H 0.49359 0.8524 0.91051 0.0
H2429 H 0.43009 0.84511 0.89541 0.0
H2430 H 0.46343 0.89712 0.8794 0.0
H2431 H 0.48037 0.92463 0.89147 0.0
H2432 H 0.43407 0.94656 0.9252 0.0
H2433 H 0.41695 0.91904 0.91369 0.0
C2434 C 0.36809 0.86643 0.81316 0.0
C2435 C 0.3547 0.87883 0.81873 0.0
C2436 C 0.38351 0.86507 0.82899 0.0
C2437 C 0.38573 0.87578 0.85105 0.0
C2438 C 0.37233 0.88806 0.85681 0.0
C2439 C 0.35699 0.8896 0.84081 0.0
C2440 C 0.40228 0.8745 0.86771 0.0
C2441 C 0.41231 0.8899 0.875 0.0
C2442 C 0.40866 0.85816 0.87545 0.0
C2443 C 0.398 0.84163 0.87021 0.0
C2444 C 0.38005 0.84068 0.87682 0.0
C2445 C 0.37004 0.82512 0.87171 0.0
C2446 C 0.37787 0.81036 0.86015 0.0
C2447 C 0.39575 0.81113 0.85374 0.0
C2448 C 0.40582 0.82667 0.85878 0.0
C2449 C 0.46967 0.8776 0.95087 0.0
C2450 C 0.48399 0.86761 0.94197 0.0
C2451 C 0.45389 0.87956 0.93591 0.0
C2452 C 0.45225 0.8715 0.91189 0.0
C2453 C 0.4667 0.86175 0.90287 0.0
C2454 C 0.48256 0.85998 0.91773 0.0
C2455 C 0.43531 0.87294 0.89631 0.0
C2456 C 0.42524 0.85758 0.88931 0.0
C2457 C 0.42875 0.88933 0.88921 0.0
C2458 C 0.43897 0.90595 0.8959 0.0
C2459 C 0.45691 0.90775 0.88957 0.0
C2460 C 0.46654 0.92336 0.89629 0.0
C2461 C 0.45831 0.93732 0.90915 0.0
C2462 C 0.44043 0.93572 0.91526 0.0
C2463 C 0.43075 0.92013 0.90864 0.0
H2464 H 0.46579 0.9494 0.91432 0.0
H2465 H 0.3701 0.79832 0.85622 0.0
H2466 H 0.26644 0.43858 0.89764 0.0
H2467 H 0.26372 0.46436 0.92626 0.0
H2468 H 0.30647 0.49023 0.89249 0.0
H2469 H 0.31023 0.46402 0.86508 0.0
H2470 H 0.30717 0.50098 0.93949 0.0
H2471 H 0.26041 0.49303 0.87219 0.0
H2472 H 0.23555 0.47651 0.84858 0.0
H2473 H 0.20553 0.47727 0.91326 0.0
H2474 H 0.23041 0.49355 0.93735 0.0
H2475 H 0.28245 0.5896 0.92935 0.0
H2476 H 0.28918 0.5582 0.92318 0.0
H2477 H 0.24966 0.54644 0.97427 0.0
H2478 H 0.24332 0.57801 0.98104 0.0
H2479 H 0.24601 0.52651 0.92837 0.0
H2480 H 0.2906 0.54148 0.99228 0.0
H2481 H 0.31557 0.55847 0.01476 0.0
H2482 H 0.34968 0.54578 0.95559 0.0
H2483 H 0.32482 0.52886 0.93258 0.0
C2484 C 0.27575 0.44946 0.89686 0.0
C2485 C 0.28831 0.44933 0.87861 0.0
C2486 C 0.27403 0.46431 0.91311 0.0
C2487 C 0.28449 0.47945 0.91101 0.0
C2488 C 0.29808 0.47879 0.89429 0.0
C2489 C 0.30005 0.46385 0.87837 0.0
C2490 C 0.27998 0.49658 0.9238 0.0
C2491 C 0.29381 0.50658 0.93707 0.0
C2492 C 0.2624 0.50373 0.92123 0.0
C2493 C 0.24733 0.4943 0.90661 0.0
C2494 C 0.24854 0.4896 0.88138 0.0
C2495 C 0.23445 0.48028 0.86792 0.0
C2496 C 0.21898 0.4758 0.87943 0.0
C2497 C 0.21754 0.48071 0.90439 0.0
C2498 C 0.23163 0.48997 0.91796 0.0
C2499 C 0.27559 0.58033 0.93974 0.0
C2500 C 0.26275 0.58611 0.95614 0.0
C2501 C 0.27936 0.56244 0.93614 0.0
C2502 C 0.2701 0.55007 0.94857 0.0
C2503 C 0.25705 0.55582 0.96471 0.0
C2504 C 0.25344 0.57376 0.96853 0.0
C2505 C 0.27335 0.53109 0.94324 0.0
C2506 C 0.25927 0.52077 0.93134 0.0
C2507 C 0.29071 0.52377 0.94688 0.0
C2508 C 0.30578 0.53391 0.96066 0.0
C2509 C 0.30339 0.54236 0.98399 0.0
C2510 C 0.31753 0.55199 0.99684 0.0
C2511 C 0.3342 0.55322 0.98661 0.0
C2512 C 0.33676 0.5448 0.9635 0.0
C2513 C 0.32265 0.53516 0.95057 0.0
H2514 H 0.34514 0.56069 0.99658 0.0
H2515 H 0.20809 0.46854 0.86905 0.0
H2516 H 0.70599 0.246 0.85877 0.0
H2517 H 0.67716 0.24597 0.878 0.0
H2518 H 0.70032 0.27947 0.93931 0.0
H2519 H 0.72926 0.27938 0.92026 0.0
H2520 H 0.67809 0.25524 0.95481 0.0
H2521 H 0.67548 0.29665 0.8923 0.0
H2522 H 0.678 0.30628 0.85049 0.0
H2523 H 0.63686 0.26903 0.8221 0.0
H2524 H 0.63428 0.25899 0.86372 0.0
H2525 H 0.59905 0.29439 0.99902 0.0
H2526 H 0.62804 0.28882 0.98136 0.0
H2527 H 0.60177 0.25423 0.92363 0.0
H2528 H 0.57257 0.26007 0.94091 0.0
H2529 H 0.62513 0.27711 0.90593 0.0
H2530 H 0.62648 0.23732 0.97006 0.0
H2531 H 0.62395 0.22873 0.0124 0.0
H2532 H 0.66739 0.26408 0.03844 0.0
H2533 H 0.67002 0.27308 0.99629 0.0
C2534 C 0.70495 0.25325 0.87644 0.0
C2535 C 0.7198 0.26283 0.88792 0.0
C2536 C 0.68849 0.25322 0.88739 0.0
C2537 C 0.68651 0.26298 0.90986 0.0
C2538 C 0.70155 0.27187 0.92194 0.0
C2539 C 0.71808 0.27179 0.91107 0.0
C2540 C 0.66853 0.26472 0.92009 0.0
C2541 C 0.66654 0.26016 0.94422 0.0
C2542 C 0.65339 0.27085 0.90609 0.0
C2543 C 0.65483 0.27694 0.88107 0.0
C2544 C 0.66707 0.29042 0.87711 0.0
C2545 C 0.66849 0.29597 0.85345 0.0
C2546 C 0.65764 0.28824 0.83363 0.0
C2547 C 0.64529 0.27498 0.83746 0.0
C2548 C 0.64383 0.26937 0.86108 0.0
C2549 C 0.59941 0.28571 0.98245 0.0
C2550 C 0.58351 0.27771 0.9713 0.0
C2551 C 0.61601 0.28239 0.97254 0.0
C2552 C 0.61708 0.27094 0.95137 0.0
C2553 C 0.60123 0.26303 0.94007 0.0
C2554 C 0.5846 0.2663 0.95002 0.0
C2555 C 0.63469 0.26768 0.94068 0.0
C2556 C 0.63663 0.27202 0.91646 0.0
C2557 C 0.64978 0.26148 0.95468 0.0
C2558 C 0.64834 0.25598 0.98003 0.0
C2559 C 0.63541 0.24336 0.98484 0.0
C2560 C 0.63397 0.2384 0.0088 0.0
C2561 C 0.64548 0.24588 0.02811 0.0
C2562 C 0.65848 0.25831 0.02347 0.0
C2563 C 0.65996 0.26332 0.99954 0.0
H2564 H 0.64434 0.24203 0.04665 0.0
H2565 H 0.65876 0.29255 0.81533 0.0
H2566 H 0.85307 0.68632 0.931 0.0
H2567 H 0.8551 0.66196 0.95791 0.0
H2568 H 0.80618 0.63927 0.92145 0.0
H2569 H 0.8038 0.66378 0.89499 0.0
H2570 H 0.80534 0.64057 0.97082 0.0
H2571 H 0.84677 0.62146 0.91061 0.0
H2572 H 0.87293 0.62417 0.88554 0.0
H2573 H 0.90828 0.63053 0.95121 0.0
H2574 H 0.88227 0.6281 0.9767 0.0
H2575 H 0.80734 0.55662 0.01611 0.0
H2576 H 0.80951 0.5795 0.98723 0.0
H2577 H 0.85466 0.60304 0.03186 0.0
H2578 H 0.85259 0.58009 0.06089 0.0
H2579 H 0.85845 0.60158 0.97939 0.0
H2580 H 0.81712 0.62083 0.03948 0.0
H2581 H 0.79105 0.61787 0.06464 0.0
H2582 H 0.75561 0.61135 0.99906 0.0
H2583 H 0.78154 0.61398 0.97348 0.0
C2584 C 0.84276 0.67613 0.92875 0.0
C2585 C 0.82829 0.67693 0.91087 0.0
C2586 C 0.84401 0.66216 0.94397 0.0
C2587 C 0.83086 0.64876 0.94151 0.0
C2588 C 0.81649 0.64947 0.92357 0.0
C2589 C 0.81524 0.66339 0.90834 0.0
C2590 C 0.83163 0.63432 0.95826 0.0
C2591 C 0.81686 0.63191 0.97243 0.0
C2592 C 0.84689 0.62335 0.96085 0.0
C2593 C 0.86255 0.62478 0.94557 0.0
C2594 C 0.8601 0.62359 0.91971 0.0
C2595 C 0.8749 0.62505 0.90542 0.0
C2596 C 0.89225 0.62758 0.91678 0.0
C2597 C 0.89483 0.6286 0.94244 0.0
C2598 C 0.88007 0.62717 0.95682 0.0
C2599 C 0.81794 0.56647 0.01952 0.0
C2600 C 0.82977 0.56665 0.04074 0.0
C2601 C 0.8191 0.57956 0.00311 0.0
C2602 C 0.83215 0.59297 0.0076 0.0
C2603 C 0.84451 0.59277 0.02816 0.0
C2604 C 0.84324 0.57976 0.04475 0.0
C2605 C 0.83208 0.60777 0.99159 0.0
C2606 C 0.84697 0.61028 0.97769 0.0
C2607 C 0.81695 0.61887 0.98923 0.0
C2608 C 0.8013 0.61741 0.00456 0.0
C2609 C 0.80379 0.6186 0.03041 0.0
C2610 C 0.78904 0.61701 0.04475 0.0
C2611 C 0.77169 0.61437 0.03345 0.0
C2612 C 0.76906 0.61336 0.00779 0.0
C2613 C 0.78378 0.61491 0.99336 0.0
H2614 H 0.76028 0.61315 0.04459 0.0
H2615 H 0.90369 0.6287 0.90568 0.0
loop_
_geom_bond_atom_site_label_1
_geom_bond_atom_site_label_2
_geom_bond_distance
_geom_bond_site_symmetry_2
_ccdc_geom_bond_type
H0 O26 0.856 . S
H1 O29 0.854 . S
H2 C37 0.930 . S
H3 C38 0.930 . S
H4 C40 0.930 . S
H5 C41 0.930 . S
H6 C43 0.931 . S
H7 C44 0.930 . S
H8 C46 0.930 . S
H9 C47 0.929 . S
H10 C49 0.930 . S
H11 C50 0.931 . S
H12 C52 0.930 . S
H13 C53 0.929 . S
H14 C55 0.931 . S
H15 C56 0.930 . S
H16 C58 0.930 . S
H17 C59 0.932 . S
H18 C61 0.930 . S
H19 C62 0.929 . S
H20 C64 0.931 . S
H21 C65 0.930 . S
H22 C67 0.929 . S
H23 C68 0.931 . S
H24 C70 0.930 . S
H25 C71 0.929 . S
O26 H0 0.856 . S
O26 C72 1.300 . S
O27 C72 1.209 . S
O28 C73 1.199 . S
O29 H1 0.854 . S
O29 C73 1.297 . S
C30 C31 1.404 . S
C30 C35 1.397 . S
C30 C36 1.492 . S
C31 C30 1.404 . S
C31 C32 1.396 . S
C31 C42 1.492 . S
C32 C31 1.396 . S
C32 C33 1.397 . S
C32 C48 1.509 . S
C33 C32 1.397 . S
C33 C34 1.412 . S
C33 C54 1.485 . S
C34 C33 1.412 . S
C34 C35 1.388 . S
C34 C60 1.490 . S
C35 C30 1.397 . S
C35 C34 1.388 . S
C35 C66 1.519 . S
C36 C30 1.492 . S
C36 C37 1.363 . S
C36 C41 1.390 . S
C37 H2 0.930 . S
C37 C36 1.363 . S
C37 C38 1.372 . S
C38 H3 0.930 . S
C38 C37 1.372 . S
C38 C39 1.383 . S
C39 C38 1.383 . S
C39 C40 1.395 . S
C40 H4 0.930 . S
C40 C39 1.395 . S
C40 C41 1.362 . S
C41 H5 0.930 . S
C41 C36 1.390 . S
C41 C40 1.362 . S
C42 C31 1.492 . S
C42 C43 1.377 . S
C42 C47 1.397 . S
C43 H6 0.931 . S
C43 C42 1.377 . S
C43 C44 1.376 . S
C44 H7 0.930 . S
C44 C43 1.376 . S
C44 C45 1.376 . S
C45 C44 1.376 . S
C45 C46 1.378 . S
C45 C72 1.486 . S
C46 H8 0.930 . S
C46 C45 1.378 . S
C46 C47 1.376 . S
C47 H9 0.929 . S
C47 C42 1.397 . S
C47 C46 1.376 . S
C48 C32 1.509 . S
C48 C49 1.391 . S
C48 C53 1.386 . S
C49 H10 0.930 . S
C49 C48 1.391 . S
C49 C50 1.375 . S
C50 H11 0.931 . S
C50 C49 1.375 . S
C50 C51 1.375 . S
C51 C50 1.375 . S
C51 C52 1.361 . S
C52 H12 0.930 . S
C52 C51 1.361 . S
C52 C53 1.399 . S
C53 H13 0.929 . S
C53 C48 1.386 . S
C53 C52 1.399 . S
C54 C33 1.485 . S
C54 C55 1.394 . S
C54 C59 1.360 . S
C55 H14 0.931 . S
C55 C54 1.394 . S
C55 C56 1.372 . S
C56 H15 0.930 . S
C56 C55 1.372 . S
C56 C57 1.397 . S
C57 C56 1.397 . S
C57 C58 1.390 . S
C57 C73 1.476 . S
C58 H16 0.930 . S
C58 C57 1.390 . S
C58 C59 1.366 . S
C59 H17 0.932 . S
C59 C54 1.360 . S
C59 C58 1.366 . S
C60 C34 1.490 . S
C60 C61 1.380 . S
C60 C65 1.386 . S
C61 H18 0.930 . S
C61 C60 1.380 . S
C61 C62 1.381 . S
C62 H19 0.929 . S
C62 C61 1.381 . S
C62 C63 1.371 . S
C63 C62 1.371 . S
C63 C64 1.380 . S
C64 H20 0.931 . S
C64 C63 1.380 . S
C64 C65 1.387 . S
C65 H21 0.930 . S
C65 C60 1.386 . S
C65 C64 1.387 . S
C66 C35 1.519 . S
C66 C67 1.377 . S
C66 C71 1.361 . S
C67 H22 0.929 . S
C67 C66 1.377 . S
C67 C68 1.386 . S
C68 H23 0.931 . S
C68 C67 1.386 . S
C68 C69 1.363 . S
C69 C68 1.363 . S
C69 C70 1.385 . S
C70 H24 0.930 . S
C70 C69 1.385 . S
C70 C71 1.396 . S
C71 H25 0.929 . S
C71 C66 1.361 . S
C71 C70 1.396 . S
C72 O26 1.300 . S
C72 O27 1.209 . S
C72 C45 1.486 . S
C73 O28 1.199 . S
C73 O29 1.297 . S
C73 C57 1.476 . S
H74 O100 0.856 . S
H75 O103 0.854 . S
H76 C111 0.930 . S
H77 C112 0.930 . S
H78 C114 0.930 . S
H79 C115 0.930 . S
H80 C117 0.931 . S
H81 C118 0.930 . S
H82 C120 0.930 . S
H83 C121 0.929 . S
H84 C123 0.930 . S
H85 C124 0.931 . S
H86 C126 0.930 . S
H87 C127 0.929 . S
H88 C129 0.931 . S
H89 C130 0.930 . S
H90 C132 0.930 . S
H91 C133 0.932 . S
H92 C135 0.930 . S
H93 C136 0.929 . S
H94 C138 0.931 . S
H95 C139 0.930 . S
H96 C141 0.929 . S
H97 C142 0.931 . S
H98 C144 0.930 . S
H99 C145 0.929 . S
O100 H74 0.856 . S
O100 C146 1.300 . S
O101 C146 1.209 . S
O102 C147 1.199 . S
O103 H75 0.854 . S
O103 C147 1.297 . S
C104 C105 1.404 . S
C104 C109 1.397 . S
C104 C110 1.492 . S
C105 C104 1.404 . S
C105 C106 1.396 . S
C105 C116 1.492 . S
C106 C105 1.396 . S
C106 C107 1.397 . S
C106 C122 1.509 . S
C107 C106 1.397 . S
C107 C108 1.412 . S
C107 C128 1.485 . S
C108 C107 1.412 . S
C108 C109 1.388 . S
C108 C134 1.490 . S
C109 C104 1.397 . S
C109 C108 1.388 . S
C109 C140 1.519 . S
C110 C104 1.492 . S
C110 C111 1.363 . S
C110 C115 1.390 . S
C111 H76 0.930 . S
C111 C110 1.363 . S
C111 C112 1.372 . S
C112 H77 0.930 . S
C112 C111 1.372 . S
C112 C113 1.383 . S
C113 C112 1.383 . S
C113 C114 1.395 . S
C114 H78 0.930 . S
C114 C113 1.395 . S
C114 C115 1.362 . S
C115 H79 0.930 . S
C115 C110 1.390 . S
C115 C114 1.362 . S
C116 C105 1.492 . S
C116 C117 1.377 . S
C116 C121 1.397 . S
C117 H80 0.931 . S
C117 C116 1.377 . S
C117 C118 1.376 . S
C118 H81 0.930 . S
C118 C117 1.376 . S
C118 C119 1.376 . S
C119 C118 1.376 . S
C119 C120 1.378 . S
C119 C146 1.486 . S
C120 H82 0.930 . S
C120 C119 1.378 . S
C120 C121 1.376 . S
C121 H83 0.929 . S
C121 C116 1.397 . S
C121 C120 1.376 . S
C122 C106 1.509 . S
C122 C123 1.391 . S
C122 C127 1.386 . S
C123 H84 0.930 . S
C123 C122 1.391 . S
C123 C124 1.375 . S
C124 H85 0.931 . S
C124 C123 1.375 . S
C124 C125 1.375 . S
C125 C124 1.375 . S
C125 C126 1.361 . S
C126 H86 0.930 . S
C126 C125 1.361 . S
C126 C127 1.399 . S
C127 H87 0.929 . S
C127 C122 1.386 . S
C127 C126 1.399 . S
C128 C107 1.485 . S
C128 C129 1.394 . S
C128 C133 1.360 . S
C129 H88 0.931 . S
C129 C128 1.394 . S
C129 C130 1.372 . S
C130 H89 0.930 . S
C130 C129 1.372 . S
C130 C131 1.397 . S
C131 C130 1.397 . S
C131 C132 1.390 . S
C131 C147 1.476 . S
C132 H90 0.930 . S
C132 C131 1.390 . S
C132 C133 1.366 . S
C133 H91 0.932 . S
C133 C128 1.360 . S
C133 C132 1.366 . S
C134 C108 1.490 . S
C134 C135 1.380 . S
C134 C139 1.386 . S
C135 H92 0.930 . S
C135 C134 1.380 . S
C135 C136 1.381 . S
C136 H93 0.929 . S
C136 C135 1.381 . S
C136 C137 1.371 . S
C137 C136 1.371 . S
C137 C138 1.380 . S
C138 H94 0.931 . S
C138 C137 1.380 . S
C138 C139 1.387 . S
C139 H95 0.930 . S
C139 C134 1.386 . S
C139 C138 1.387 . S
C140 C109 1.519 . S
C140 C141 1.377 . S
C140 C145 1.361 . S
C141 H96 0.929 . S
C141 C140 1.377 . S
C141 C142 1.386 . S
C142 H97 0.931 . S
C142 C141 1.386 . S
C142 C143 1.363 . S
C143 C142 1.363 . S
C143 C144 1.385 . S
C144 H98 0.930 . S
C144 C143 1.385 . S
C144 C145 1.396 . S
C145 H99 0.929 . S
C145 C140 1.361 . S
C145 C144 1.396 . S
C146 O100 1.300 . S
C146 O101 1.209 . S
C146 C119 1.486 . S
C147 O102 1.199 . S
C147 O103 1.297 . S
C147 C131 1.476 . S
H148 O174 0.856 . S
H149 O177 0.854 . S
H150 C185 0.930 . S
H151 C186 0.930 . S
H152 C188 0.930 . S
H153 C189 0.930 . S
H154 C191 0.931 . S
H155 C192 0.930 . S
H156 C194 0.930 . S
H157 C195 0.929 . S
H158 C197 0.930 . S
H159 C198 0.931 . S
H160 C200 0.930 . S
H161 C201 0.929 . S
H162 C203 0.931 . S
H163 C204 0.930 . S
H164 C206 0.930 . S
H165 C207 0.932 . S
H166 C209 0.930 . S
H167 C210 0.929 . S
H168 C212 0.931 . S
H169 C213 0.930 . S
H170 C215 0.929 . S
H171 C216 0.931 . S
H172 C218 0.930 . S
H173 C219 0.929 . S
O174 H148 0.856 . S
O174 C220 1.300 . S
O175 C220 1.209 . S
O176 C221 1.199 . S
O177 H149 0.854 . S
O177 C221 1.297 . S
C178 C179 1.404 . S
C178 C183 1.397 . S
C178 C184 1.492 . S
C179 C178 1.404 . S
C179 C180 1.396 . S
C179 C190 1.492 . S
C180 C179 1.396 . S
C180 C181 1.397 . S
C180 C196 1.509 . S
C181 C180 1.397 . S
C181 C182 1.412 . S
C181 C202 1.485 . S
C182 C181 1.412 . S
C182 C183 1.388 . S
C182 C208 1.490 . S
C183 C178 1.397 . S
C183 C182 1.388 . S
C183 C214 1.519 . S
C184 C178 1.492 . S
C184 C185 1.363 . S
C184 C189 1.390 . S
C185 H150 0.930 . S
C185 C184 1.363 . S
C185 C186 1.372 . S
C186 H151 0.930 . S
C186 C185 1.372 . S
C186 C187 1.383 . S
C187 C186 1.383 . S
C187 C188 1.395 . S
C188 H152 0.930 . S
C188 C187 1.395 . S
C188 C189 1.362 . S
C189 H153 0.930 . S
C189 C184 1.390 . S
C189 C188 1.362 . S
C190 C179 1.492 . S
C190 C191 1.377 . S
C190 C195 1.397 . S
C191 H154 0.931 . S
C191 C190 1.377 . S
C191 C192 1.376 . S
C192 H155 0.930 . S
C192 C191 1.376 . S
C192 C193 1.376 . S
C193 C192 1.376 . S
C193 C194 1.378 . S
C193 C220 1.486 . S
C194 H156 0.930 . S
C194 C193 1.378 . S
C194 C195 1.376 . S
C195 H157 0.929 . S
C195 C190 1.397 . S
C195 C194 1.376 . S
C196 C180 1.509 . S
C196 C197 1.391 . S
C196 C201 1.386 . S
C197 H158 0.930 . S
C197 C196 1.391 . S
C197 C198 1.375 . S
C198 H159 0.931 . S
C198 C197 1.375 . S
C198 C199 1.375 . S
C199 C198 1.375 . S
C199 C200 1.361 . S
C200 H160 0.930 . S
C200 C199 1.361 . S
C200 C201 1.399 . S
C201 H161 0.929 . S
C201 C196 1.386 . S
C201 C200 1.399 . S
C202 C181 1.485 . S
C202 C203 1.394 . S
C202 C207 1.360 . S
C203 H162 0.931 . S
C203 C202 1.394 . S
C203 C204 1.372 . S
C204 H163 0.930 . S
C204 C203 1.372 . S
C204 C205 1.397 . S
C205 C204 1.397 . S
C205 C206 1.390 . S
C205 C221 1.476 . S
C206 H164 0.930 . S
C206 C205 1.390 . S
C206 C207 1.366 . S
C207 H165 0.932 . S
C207 C202 1.360 . S
C207 C206 1.366 . S
C208 C182 1.490 . S
C208 C209 1.380 . S
C208 C213 1.386 . S
C209 H166 0.930 . S
C209 C208 1.380 . S
C209 C210 1.381 . S
C210 H167 0.929 . S
C210 C209 1.381 . S
C210 C211 1.371 . S
C211 C210 1.371 . S
C211 C212 1.380 . S
C212 H168 0.931 . S
C212 C211 1.380 . S
C212 C213 1.387 . S
C213 H169 0.930 . S
C213 C208 1.386 . S
C213 C212 1.387 . S
C214 C183 1.519 . S
C214 C215 1.377 . S
C214 C219 1.361 . S
C215 H170 0.929 . S
C215 C214 1.377 . S
C215 C216 1.386 . S
C216 H171 0.931 . S
C216 C215 1.386 . S
C216 C217 1.363 . S
C217 C216 1.363 . S
C217 C218 1.385 . S
C218 H172 0.930 . S
C218 C217 1.385 . S
C218 C219 1.396 . S
C219 H173 0.929 . S
C219 C214 1.361 . S
C219 C218 1.396 . S
C220 O174 1.300 . S
C220 O175 1.209 . S
C220 C193 1.486 . S
C221 O176 1.199 . S
C221 O177 1.297 . S
C221 C205 1.476 . S
H222 O248 0.856 . S
H223 O251 0.854 . S
H224 C259 0.930 . S
H225 C260 0.930 . S
H226 C262 0.930 . S
H227 C263 0.930 . S
H228 C265 0.931 . S
H229 C266 0.930 . S
H230 C268 0.930 . S
H231 C269 0.929 . S
H232 C271 0.930 . S
H233 C272 0.931 . S
H234 C274 0.930 . S
H235 C275 0.929 . S
H236 C277 0.931 . S
H237 C278 0.930 . S
H238 C280 0.930 . S
H239 C281 0.932 . S
H240 C283 0.930 . S
H241 C284 0.929 . S
H242 C286 0.931 . S
H243 C287 0.930 . S
H244 C289 0.929 . S
H245 C290 0.931 . S
H246 C292 0.930 . S
H247 C293 0.929 . S
O248 H222 0.856 . S
O248 C294 1.300 . S
O249 C294 1.209 . S
O250 C295 1.199 . S
O251 H223 0.854 . S
O251 C295 1.297 . S
C252 C253 1.404 . S
C252 C257 1.397 . S
C252 C258 1.492 . S
C253 C252 1.404 . S
C253 C254 1.396 . S
C253 C264 1.492 . S
C254 C253 1.396 . S
C254 C255 1.397 . S
C254 C270 1.509 . S
C255 C254 1.397 . S
C255 C256 1.412 . S
C255 C276 1.485 . S
C256 C255 1.412 . S
C256 C257 1.388 . S
C256 C282 1.490 . S
C257 C252 1.397 . S
C257 C256 1.388 . S
C257 C288 1.519 . S
C258 C252 1.492 . S
C258 C259 1.363 . S
C258 C263 1.390 . S
C259 H224 0.930 . S
C259 C258 1.363 . S
C259 C260 1.372 . S
C260 H225 0.930 . S
C260 C259 1.372 . S
C260 C261 1.383 . S
C261 C260 1.383 . S
C261 C262 1.395 . S
C262 H226 0.930 . S
C262 C261 1.395 . S
C262 C263 1.362 . S
C263 H227 0.930 . S
C263 C258 1.390 . S
C263 C262 1.362 . S
C264 C253 1.492 . S
C264 C265 1.377 . S
C264 C269 1.397 . S
C265 H228 0.931 . S
C265 C264 1.377 . S
C265 C266 1.376 . S
C266 H229 0.930 . S
C266 C265 1.376 . S
C266 C267 1.376 . S
C267 C266 1.376 . S
C267 C268 1.378 . S
C267 C294 1.486 . S
C268 H230 0.930 . S
C268 C267 1.378 . S
C268 C269 1.376 . S
C269 H231 0.929 . S
C269 C264 1.397 . S
C269 C268 1.376 . S
C270 C254 1.509 . S
C270 C271 1.391 . S
C270 C275 1.386 . S
C271 H232 0.930 . S
C271 C270 1.391 . S
C271 C272 1.375 . S
C272 H233 0.931 . S
C272 C271 1.375 . S
C272 C273 1.375 . S
C273 C272 1.375 . S
C273 C274 1.361 . S
C274 H234 0.930 . S
C274 C273 1.361 . S
C274 C275 1.399 . S
C275 H235 0.929 . S
C275 C270 1.386 . S
C275 C274 1.399 . S
C276 C255 1.485 . S
C276 C277 1.394 . S
C276 C281 1.360 . S
C277 H236 0.931 . S
C277 C276 1.394 . S
C277 C278 1.372 . S
C278 H237 0.930 . S
C278 C277 1.372 . S
C278 C279 1.397 . S
C279 C278 1.397 . S
C279 C280 1.390 . S
C279 C295 1.476 . S
C280 H238 0.930 . S
C280 C279 1.390 . S
C280 C281 1.366 . S
C281 H239 0.932 . S
C281 C276 1.360 . S
C281 C280 1.366 . S
C282 C256 1.490 . S
C282 C283 1.380 . S
C282 C287 1.386 . S
C283 H240 0.930 . S
C283 C282 1.380 . S
C283 C284 1.381 . S
C284 H241 0.929 . S
C284 C283 1.381 . S
C284 C285 1.371 . S
C285 C284 1.371 . S
C285 C286 1.380 . S
C286 H242 0.931 . S
C286 C285 1.380 . S
C286 C287 1.387 . S
C287 H243 0.930 . S
C287 C282 1.386 . S
C287 C286 1.387 . S
C288 C257 1.519 . S
C288 C289 1.377 . S
C288 C293 1.361 . S
C289 H244 0.929 . S
C289 C288 1.377 . S
C289 C290 1.386 . S
C290 H245 0.931 . S
C290 C289 1.386 . S
C290 C291 1.363 . S
C291 C290 1.363 . S
C291 C292 1.385 . S
C292 H246 0.930 . S
C292 C291 1.385 . S
C292 C293 1.396 . S
C293 H247 0.929 . S
C293 C288 1.361 . S
C293 C292 1.396 . S
C294 O248 1.300 . S
C294 O249 1.209 . S
C294 C267 1.486 . S
C295 O250 1.199 . S
C295 O251 1.297 . S
C295 C279 1.476 . S
H296 O322 0.856 . S
H297 O325 0.854 . S
H298 C333 0.930 . S
H299 C334 0.930 . S
H300 C336 0.930 . S
H301 C337 0.930 . S
H302 C339 0.931 . S
H303 C340 0.930 . S
H304 C342 0.930 . S
H305 C343 0.929 . S
H306 C345 0.930 . S
H307 C346 0.931 . S
H308 C348 0.930 . S
H309 C349 0.929 . S
H310 C351 0.931 . S
H311 C352 0.930 . S
H312 C354 0.930 . S
H313 C355 0.932 . S
H314 C357 0.930 . S
H315 C358 0.929 . S
H316 C360 0.931 . S
H317 C361 0.930 . S
H318 C363 0.929 . S
H319 C364 0.931 . S
H320 C366 0.930 . S
H321 C367 0.929 . S
O322 H296 0.856 . S
O322 C368 1.300 . S
O323 C368 1.209 . S
O324 C369 1.199 . S
O325 H297 0.854 . S
O325 C369 1.297 . S
C326 C327 1.404 . S
C326 C331 1.397 . S
C326 C332 1.492 . S
C327 C326 1.404 . S
C327 C328 1.396 . S
C327 C338 1.492 . S
C328 C327 1.396 . S
C328 C329 1.397 . S
C328 C344 1.509 . S
C329 C328 1.397 . S
C329 C330 1.412 . S
C329 C350 1.485 . S
C330 C329 1.412 . S
C330 C331 1.388 . S
C330 C356 1.490 . S
C331 C326 1.397 . S
C331 C330 1.388 . S
C331 C362 1.519 . S
C332 C326 1.492 . S
C332 C333 1.363 . S
C332 C337 1.390 . S
C333 H298 0.930 . S
C333 C332 1.363 . S
C333 C334 1.372 . S
C334 H299 0.930 . S
C334 C333 1.372 . S
C334 C335 1.383 . S
C335 C334 1.383 . S
C335 C336 1.395 . S
C336 H300 0.930 . S
C336 C335 1.395 . S
C336 C337 1.362 . S
C337 H301 0.930 . S
C337 C332 1.390 . S
C337 C336 1.362 . S
C338 C327 1.492 . S
C338 C339 1.377 . S
C338 C343 1.397 . S
C339 H302 0.931 . S
C339 C338 1.377 . S
C339 C340 1.376 . S
C340 H303 0.930 . S
C340 C339 1.376 . S
C340 C341 1.376 . S
C341 C340 1.376 . S
C341 C342 1.378 . S
C341 C368 1.486 . S
C342 H304 0.930 . S
C342 C341 1.378 . S
C342 C343 1.376 . S
C343 H305 0.929 . S
C343 C338 1.397 . S
C343 C342 1.376 . S
C344 C328 1.509 . S
C344 C345 1.391 . S
C344 C349 1.386 . S
C345 H306 0.930 . S
C345 C344 1.391 . S
C345 C346 1.375 . S
C346 H307 0.931 . S
C346 C345 1.375 . S
C346 C347 1.375 . S
C347 C346 1.375 . S
C347 C348 1.361 . S
C348 H308 0.930 . S
C348 C347 1.361 . S
C348 C349 1.399 . S
C349 H309 0.929 . S
C349 C344 1.386 . S
C349 C348 1.399 . S
C350 C329 1.485 . S
C350 C351 1.394 . S
C350 C355 1.360 . S
C351 H310 0.931 . S
C351 C350 1.394 . S
C351 C352 1.372 . S
C352 H311 0.930 . S
C352 C351 1.372 . S
C352 C353 1.397 . S
C353 C352 1.397 . S
C353 C354 1.390 . S
C353 C369 1.476 . S
C354 H312 0.930 . S
C354 C353 1.390 . S
C354 C355 1.366 . S
C355 H313 0.932 . S
C355 C350 1.360 . S
C355 C354 1.366 . S
C356 C330 1.490 . S
C356 C357 1.380 . S
C356 C361 1.386 . S
C357 H314 0.930 . S
C357 C356 1.380 . S
C357 C358 1.381 . S
C358 H315 0.929 . S
C358 C357 1.381 . S
C358 C359 1.371 . S
C359 C358 1.371 . S
C359 C360 1.380 . S
C360 H316 0.931 . S
C360 C359 1.380 . S
C360 C361 1.387 . S
C361 H317 0.930 . S
C361 C356 1.386 . S
C361 C360 1.387 . S
C362 C331 1.519 . S
C362 C363 1.377 . S
C362 C367 1.361 . S
C363 H318 0.929 . S
C363 C362 1.377 . S
C363 C364 1.386 . S
C364 H319 0.931 . S
C364 C363 1.386 . S
C364 C365 1.363 . S
C365 C364 1.363 . S
C365 C366 1.385 . S
C366 H320 0.930 . S
C366 C365 1.385 . S
C366 C367 1.396 . S
C367 H321 0.929 . S
C367 C362 1.361 . S
C367 C366 1.396 . S
C368 O322 1.300 . S
C368 O323 1.209 . S
C368 C341 1.486 . S
C369 O324 1.199 . S
C369 O325 1.297 . S
C369 C353 1.476 . S
H370 O396 0.856 . S
H371 O399 0.854 . S
H372 C407 0.930 . S
H373 C408 0.930 . S
H374 C410 0.930 . S
H375 C411 0.930 . S
H376 C413 0.931 . S
H377 C414 0.930 . S
H378 C416 0.930 . S
H379 C417 0.929 . S
H380 C419 0.930 . S
H381 C420 0.931 . S
H382 C422 0.930 . S
H383 C423 0.929 . S
H384 C425 0.931 . S
H385 C426 0.930 . S
H386 C428 0.930 . S
H387 C429 0.932 . S
H388 C431 0.930 . S
H389 C432 0.929 . S
H390 C434 0.931 . S
H391 C435 0.930 . S
H392 C437 0.929 . S
H393 C438 0.931 . S
H394 C440 0.930 . S
H395 C441 0.929 . S
O396 H370 0.856 . S
O396 C442 1.300 . S
O397 C442 1.209 . S
O398 C443 1.199 . S
O399 H371 0.854 . S
O399 C443 1.297 . S
C400 C401 1.404 . S
C400 C405 1.397 . S
C400 C406 1.492 . S
C401 C400 1.404 . S
C401 C402 1.396 . S
C401 C412 1.492 . S
C402 C401 1.396 . S
C402 C403 1.397 . S
C402 C418 1.509 . S
C403 C402 1.397 . S
C403 C404 1.412 . S
C403 C424 1.485 . S
C404 C403 1.412 . S
C404 C405 1.388 . S
C404 C430 1.490 . S
C405 C400 1.397 . S
C405 C404 1.388 . S
C405 C436 1.519 . S
C406 C400 1.492 . S
C406 C407 1.363 . S
C406 C411 1.390 . S
C407 H372 0.930 . S
C407 C406 1.363 . S
C407 C408 1.372 . S
C408 H373 0.930 . S
C408 C407 1.372 . S
C408 C409 1.383 . S
C409 C408 1.383 . S
C409 C410 1.395 . S
C410 H374 0.930 . S
C410 C409 1.395 . S
C410 C411 1.362 . S
C411 H375 0.930 . S
C411 C406 1.390 . S
C411 C410 1.362 . S
C412 C401 1.492 . S
C412 C413 1.377 . S
C412 C417 1.397 . S
C413 H376 0.931 . S
C413 C412 1.377 . S
C413 C414 1.376 . S
C414 H377 0.930 . S
C414 C413 1.376 . S
C414 C415 1.376 . S
C415 C414 1.376 . S
C415 C416 1.378 . S
C415 C442 1.486 . S
C416 H378 0.930 . S
C416 C415 1.378 . S
C416 C417 1.376 . S
C417 H379 0.929 . S
C417 C412 1.397 . S
C417 C416 1.376 . S
C418 C402 1.509 . S
C418 C419 1.391 . S
C418 C423 1.386 . S
C419 H380 0.930 . S
C419 C418 1.391 . S
C419 C420 1.375 . S
C420 H381 0.931 . S
C420 C419 1.375 . S
C420 C421 1.375 . S
C421 C420 1.375 . S
C421 C422 1.361 . S
C422 H382 0.930 . S
C422 C421 1.361 . S
C422 C423 1.399 . S
C423 H383 0.929 . S
C423 C418 1.386 . S
C423 C422 1.399 . S
C424 C403 1.485 . S
C424 C425 1.394 . S
C424 C429 1.360 . S
C425 H384 0.931 . S
C425 C424 1.394 . S
C425 C426 1.372 . S
C426 H385 0.930 . S
C426 C425 1.372 . S
C426 C427 1.397 . S
C427 C426 1.397 . S
C427 C428 1.390 . S
C427 C443 1.476 . S
C428 H386 0.930 . S
C428 C427 1.390 . S
C428 C429 1.366 . S
C429 H387 0.932 . S
C429 C424 1.360 . S
C429 C428 1.366 . S
C430 C404 1.490 . S
C430 C431 1.380 . S
C430 C435 1.386 . S
C431 H388 0.930 . S
C431 C430 1.380 . S
C431 C432 1.381 . S
C432 H389 0.929 . S
C432 C431 1.381 . S
C432 C433 1.371 . S
C433 C432 1.371 . S
C433 C434 1.380 . S
C434 H390 0.931 . S
C434 C433 1.380 . S
C434 C435 1.387 . S
C435 H391 0.930 . S
C435 C430 1.386 . S
C435 C434 1.387 . S
C436 C405 1.519 . S
C436 C437 1.377 . S
C436 C441 1.361 . S
C437 H392 0.929 . S
C437 C436 1.377 . S
C437 C438 1.386 . S
C438 H393 0.931 . S
C438 C437 1.386 . S
C438 C439 1.363 . S
C439 C438 1.363 . S
C439 C440 1.385 . S
C440 H394 0.930 . S
C440 C439 1.385 . S
C440 C441 1.396 . S
C441 H395 0.929 . S
C441 C436 1.361 . S
C441 C440 1.396 . S
C442 O396 1.300 . S
C442 O397 1.209 . S
C442 C415 1.486 . S
C443 O398 1.199 . S
C443 O399 1.297 . S
C443 C427 1.476 . S
H444 O470 0.856 . S
H445 O473 0.854 . S
H446 C481 0.930 . S
H447 C482 0.930 . S
H448 C484 0.930 . S
H449 C485 0.930 . S
H450 C487 0.931 . S
H451 C488 0.930 . S
H452 C490 0.930 . S
H453 C491 0.929 . S
H454 C493 0.930 . S
H455 C494 0.931 . S
H456 C496 0.930 . S
H457 C497 0.929 . S
H458 C499 0.931 . S
H459 C500 0.930 . S
H460 C502 0.930 . S
H461 C503 0.932 . S
H462 C505 0.930 . S
H463 C506 0.929 . S
H464 C508 0.931 . S
H465 C509 0.930 . S
H466 C511 0.929 . S
H467 C512 0.931 . S
H468 C514 0.930 . S
H469 C515 0.929 . S
O470 H444 0.856 . S
O470 C516 1.300 . S
O471 C516 1.209 . S
O472 C517 1.199 . S
O473 H445 0.854 . S
O473 C517 1.297 . S
C474 C475 1.404 . S
C474 C479 1.397 . S
C474 C480 1.492 . S
C475 C474 1.404 . S
C475 C476 1.396 . S
C475 C486 1.492 . S
C476 C475 1.396 . S
C476 C477 1.397 . S
C476 C492 1.509 . S
C477 C476 1.397 . S
C477 C478 1.412 . S
C477 C498 1.485 . S
C478 C477 1.412 . S
C478 C479 1.388 . S
C478 C504 1.490 . S
C479 C474 1.397 . S
C479 C478 1.388 . S
C479 C510 1.519 . S
C480 C474 1.492 . S
C480 C481 1.363 . S
C480 C485 1.390 . S
C481 H446 0.930 . S
C481 C480 1.363 . S
C481 C482 1.372 . S
C482 H447 0.930 . S
C482 C481 1.372 . S
C482 C483 1.383 . S
C483 C482 1.383 . S
C483 C484 1.395 . S
C484 H448 0.930 . S
C484 C483 1.395 . S
C484 C485 1.362 . S
C485 H449 0.930 . S
C485 C480 1.390 . S
C485 C484 1.362 . S
C486 C475 1.492 . S
C486 C487 1.377 . S
C486 C491 1.397 . S
C487 H450 0.931 . S
C487 C486 1.377 . S
C487 C488 1.376 . S
C488 H451 0.930 . S
C488 C487 1.376 . S
C488 C489 1.376 . S
C489 C488 1.376 . S
C489 C490 1.378 . S
C489 C516 1.486 . S
C490 H452 0.930 . S
C490 C489 1.378 . S
C490 C491 1.376 . S
C491 H453 0.929 . S
C491 C486 1.397 . S
C491 C490 1.376 . S
C492 C476 1.509 . S
C492 C493 1.391 . S
C492 C497 1.386 . S
C493 H454 0.930 . S
C493 C492 1.391 . S
C493 C494 1.375 . S
C494 H455 0.931 . S
C494 C493 1.375 . S
C494 C495 1.375 . S
C495 C494 1.375 . S
C495 C496 1.361 . S
C496 H456 0.930 . S
C496 C495 1.361 . S
C496 C497 1.399 . S
C497 H457 0.929 . S
C497 C492 1.386 . S
C497 C496 1.399 . S
C498 C477 1.485 . S
C498 C499 1.394 . S
C498 C503 1.360 . S
C499 H458 0.931 . S
C499 C498 1.394 . S
C499 C500 1.372 . S
C500 H459 0.930 . S
C500 C499 1.372 . S
C500 C501 1.397 . S
C501 C500 1.397 . S
C501 C502 1.390 . S
C501 C517 1.476 . S
C502 H460 0.930 . S
C502 C501 1.390 . S
C502 C503 1.366 . S
C503 H461 0.932 . S
C503 C498 1.360 . S
C503 C502 1.366 . S
C504 C478 1.490 . S
C504 C505 1.380 . S
C504 C509 1.386 . S
C505 H462 0.930 . S
C505 C504 1.380 . S
C505 C506 1.381 . S
C506 H463 0.929 . S
C506 C505 1.381 . S
C506 C507 1.371 . S
C507 C506 1.371 . S
C507 C508 1.380 . S
C508 H464 0.931 . S
C508 C507 1.380 . S
C508 C509 1.387 . S
C509 H465 0.930 . S
C509 C504 1.386 . S
C509 C508 1.387 . S
C510 C479 1.519 . S
C510 C511 1.377 . S
C510 C515 1.361 . S
C511 H466 0.929 . S
C511 C510 1.377 . S
C511 C512 1.386 . S
C512 H467 0.931 . S
C512 C511 1.386 . S
C512 C513 1.363 . S
C513 C512 1.363 . S
C513 C514 1.385 . S
C514 H468 0.930 . S
C514 C513 1.385 . S
C514 C515 1.396 . S
C515 H469 0.929 . S
C515 C510 1.361 . S
C515 C514 1.396 . S
C516 O470 1.300 . S
C516 O471 1.209 . S
C516 C489 1.486 . S
C517 O472 1.199 . S
C517 O473 1.297 . S
C517 C501 1.476 . S
H518 O544 0.856 . S
H519 O547 0.854 . S
H520 C555 0.930 . S
H521 C556 0.930 . S
H522 C558 0.930 . S
H523 C559 0.930 . S
H524 C561 0.931 . S
H525 C562 0.930 . S
H526 C564 0.930 . S
H527 C565 0.929 . S
H528 C567 0.930 . S
H529 C568 0.931 . S
H530 C570 0.930 . S
H531 C571 0.929 . S
H532 C573 0.931 . S
H533 C574 0.930 . S
H534 C576 0.930 . S
H535 C577 0.932 . S
H536 C579 0.930 . S
H537 C580 0.929 . S
H538 C582 0.931 . S
H539 C583 0.930 . S
H540 C585 0.929 . S
H541 C586 0.931 . S
H542 C588 0.930 . S
H543 C589 0.929 . S
O544 H518 0.856 . S
O544 C590 1.300 . S
O545 C590 1.209 . S
O546 C591 1.199 . S
O547 H519 0.854 . S
O547 C591 1.297 . S
C548 C549 1.404 . S
C548 C553 1.397 . S
C548 C554 1.492 . S
C549 C548 1.404 . S
C549 C550 1.396 . S
C549 C560 1.492 . S
C550 C549 1.396 . S
C550 C551 1.397 . S
C550 C566 1.509 . S
C551 C550 1.397 . S
C551 C552 1.412 . S
C551 C572 1.485 . S
C552 C551 1.412 . S
C552 C553 1.388 . S
C552 C578 1.490 . S
C553 C548 1.397 . S
C553 C552 1.388 . S
C553 C584 1.519 . S
C554 C548 1.492 . S
C554 C555 1.363 . S
C554 C559 1.390 . S
C555 H520 0.930 . S
C555 C554 1.363 . S
C555 C556 1.372 . S
C556 H521 0.930 . S
C556 C555 1.372 . S
C556 C557 1.383 . S
C557 C556 1.383 . S
C557 C558 1.395 . S
C558 H522 0.930 . S
C558 C557 1.395 . S
C558 C559 1.362 . S
C559 H523 0.930 . S
C559 C554 1.390 . S
C559 C558 1.362 . S
C560 C549 1.492 . S
C560 C561 1.377 . S
C560 C565 1.397 . S
C561 H524 0.931 . S
C561 C560 1.377 . S
C561 C562 1.376 . S
C562 H525 0.930 . S
C562 C561 1.376 . S
C562 C563 1.376 . S
C563 C562 1.376 . S
C563 C564 1.378 . S
C563 C590 1.486 . S
C564 H526 0.930 . S
C564 C563 1.378 . S
C564 C565 1.376 . S
C565 H527 0.929 . S
C565 C560 1.397 . S
C565 C564 1.376 . S
C566 C550 1.509 . S
C566 C567 1.391 . S
C566 C571 1.386 . S
C567 H528 0.930 . S
C567 C566 1.391 . S
C567 C568 1.375 . S
C568 H529 0.931 . S
C568 C567 1.375 . S
C568 C569 1.375 . S
C569 C568 1.375 . S
C569 C570 1.361 . S
C570 H530 0.930 . S
C570 C569 1.361 . S
C570 C571 1.399 . S
C571 H531 0.929 . S
C571 C566 1.386 . S
C571 C570 1.399 . S
C572 C551 1.485 . S
C572 C573 1.394 . S
C572 C577 1.360 . S
C573 H532 0.931 . S
C573 C572 1.394 . S
C573 C574 1.372 . S
C574 H533 0.930 . S
C574 C573 1.372 . S
C574 C575 1.397 . S
C575 C574 1.397 . S
C575 C576 1.390 . S
C575 C591 1.476 . S
C576 H534 0.930 . S
C576 C575 1.390 . S
C576 C577 1.366 . S
C577 H535 0.932 . S
C577 C572 1.360 . S
C577 C576 1.366 . S
C578 C552 1.490 . S
C578 C579 1.380 . S
C578 C583 1.386 . S
C579 H536 0.930 . S
C579 C578 1.380 . S
C579 C580 1.381 . S
C580 H537 0.929 . S
C580 C579 1.381 . S
C580 C581 1.371 . S
C581 C580 1.371 . S
C581 C582 1.380 . S
C582 H538 0.931 . S
C582 C581 1.380 . S
C582 C583 1.387 . S
C583 H539 0.930 . S
C583 C578 1.386 . S
C583 C582 1.387 . S
C584 C553 1.519 . S
C584 C585 1.377 . S
C584 C589 1.361 . S
C585 H540 0.929 . S
C585 C584 1.377 . S
C585 C586 1.386 . S
C586 H541 0.931 . S
C586 C585 1.386 . S
C586 C587 1.363 . S
C587 C586 1.363 . S
C587 C588 1.385 . S
C588 H542 0.930 . S
C588 C587 1.385 . S
C588 C589 1.396 . S
C589 H543 0.929 . S
C589 C584 1.361 . S
C589 C588 1.396 . S
C590 O544 1.300 . S
C590 O545 1.209 . S
C590 C563 1.486 . S
C591 O546 1.199 . S
C591 O547 1.297 . S
C591 C575 1.476 . S
C592 C593 1.443 . S
C592 N596 1.376 . S
C592 C630 1.389 . S
C593 C592 1.443 . S
C593 C594 1.340 . S
C593 H633 0.951 . S
C594 C593 1.340 . S
C594 C595 1.439 . S
C594 H634 0.950 . S
C595 C594 1.439 . S
C595 N596 1.374 . S
C595 C629 1.395 1_455 S
N596 C592 1.376 . S
N596 C595 1.374 . S
N596 Co597 2.008 . S
Co597 N596 2.008 . S
Co597 N598 1.995 1_455 S
Co597 N603 2.008 1_455 S
Co597 N608 1.995 . S
Co597 N613 2.282 1_455 S
Co597 N619 2.282 . S
N598 Co597 1.995 1_655 S
N598 C599 1.376 . S
N598 C602 1.383 . S
C599 N598 1.376 . S
C599 C600 1.446 . S
C599 C629 1.391 . S
C600 C599 1.446 . S
C600 C601 1.339 . S
C600 H635 0.949 . S
C601 C600 1.339 . S
C601 C602 1.439 . S
C601 H636 0.950 . S
C602 N598 1.383 . S
C602 C601 1.439 . S
C602 C631 1.392 . S
N603 Co597 2.008 1_655 S
N603 C604 1.376 . S
N603 C607 1.374 . S
C604 N603 1.376 . S
C604 C605 1.443 . S
C604 C631 1.389 . S
C605 C604 1.443 . S
C605 C606 1.340 . S
C605 H637 0.951 . S
C606 C605 1.340 . S
C606 C607 1.439 . S
C606 H638 0.950 . S
C607 N603 1.374 . S
C607 C606 1.439 . S
C607 C632 1.395 1_655 S
N608 Co597 1.995 . S
N608 C609 1.376 . S
N608 C612 1.383 . S
C609 N608 1.376 . S
C609 C610 1.446 . S
C609 C632 1.391 . S
C610 C609 1.446 . S
C610 C611 1.339 . S
C610 H639 0.949 . S
C611 C610 1.339 . S
C611 C612 1.439 . S
C611 H640 0.950 . S
C612 N608 1.383 . S
C612 C611 1.439 . S
C612 C630 1.392 . S
N613 Co597 2.282 1_655 S
N613 C616 1.332 . S
N613 C618 1.332 . S
C614 C615 1.386 . S
C614 C617 1.388 . S
C615 C614 1.386 . S
C615 C616 1.382 . S
C615 H641 0.950 . S
C616 N613 1.332 . S
C616 C615 1.382 . S
C616 H627 0.952 . S
C617 C614 1.388 . S
C617 C618 1.382 . S
C617 H642 0.950 . S
C618 N613 1.332 . S
C618 C617 1.382 . S
C618 H628 0.948 . S
N619 Co597 2.282 . S
N619 C623 1.332 . S
N619 C624 1.332 . S
C620 C621 1.388 . S
C620 C624 1.382 . S
C620 H643 0.950 . S
C621 C620 1.388 . S
C621 C622 1.386 . S
C622 C621 1.386 . S
C622 C623 1.382 . S
C622 H644 0.950 . S
C623 N619 1.332 . S
C623 C622 1.382 . S
C623 H625 0.952 . S
C624 N619 1.332 . S
C624 C620 1.382 . S
C624 H626 0.948 . S
H625 C623 0.952 . S
H626 C624 0.948 . S
H627 C616 0.952 . S
H628 C618 0.948 . S
C629 C595 1.395 1_655 S
C629 C599 1.391 . S
C630 C592 1.389 . S
C630 C612 1.392 . S
C631 C602 1.392 . S
C631 C604 1.389 . S
C632 C607 1.395 1_455 S
C632 C609 1.391 . S
H633 C593 0.951 . S
H634 C594 0.950 . S
H635 C600 0.949 . S
H636 C601 0.950 . S
H637 C605 0.951 . S
H638 C606 0.950 . S
H639 C610 0.949 . S
H640 C611 0.950 . S
H641 C615 0.950 . S
H642 C617 0.950 . S
H643 C620 0.950 . S
H644 C622 0.950 . S
C645 C646 1.443 . S
C645 N649 1.376 . S
C645 C683 1.389 . S
C646 C645 1.443 . S
C646 C647 1.340 . S
C646 H686 0.951 . S
C647 C646 1.340 . S
C647 C648 1.439 . S
C647 H687 0.950 . S
C648 C647 1.439 . S
C648 N649 1.374 . S
C648 C682 1.395 . S
N649 C645 1.376 . S
N649 C648 1.374 . S
N649 Co650 2.008 . S
Co650 N649 2.008 . S
Co650 N651 1.995 1_545 S
Co650 N656 2.008 1_545 S
Co650 N661 1.995 . S
Co650 N666 2.282 1_545 S
Co650 N672 2.282 . S
N651 Co650 1.995 1_565 S
N651 C652 1.376 . S
N651 C655 1.383 . S
C652 N651 1.376 . S
C652 C653 1.446 . S
C652 C682 1.391 1_565 S
C653 C652 1.446 . S
C653 C654 1.339 . S
C653 H688 0.949 . S
C654 C653 1.339 . S
C654 C655 1.439 . S
C654 H689 0.950 . S
C655 N651 1.383 . S
C655 C654 1.439 . S
C655 C684 1.392 . S
N656 Co650 2.008 1_565 S
N656 C657 1.376 . S
N656 C660 1.374 . S
C657 N656 1.376 . S
C657 C658 1.443 . S
C657 C684 1.389 . S
C658 C657 1.443 . S
C658 C659 1.340 . S
C658 H690 0.951 . S
C659 C658 1.340 . S
C659 C660 1.439 . S
C659 H691 0.950 . S
C660 N656 1.374 . S
C660 C659 1.439 . S
C660 C685 1.395 1_565 S
N661 Co650 1.995 . S
N661 C662 1.376 . S
N661 C665 1.383 . S
C662 N661 1.376 . S
C662 C663 1.446 . S
C662 C685 1.391 . S
C663 C662 1.446 . S
C663 C664 1.339 . S
C663 H692 0.949 . S
C664 C663 1.339 . S
C664 C665 1.439 . S
C664 H693 0.950 . S
C665 N661 1.383 . S
C665 C664 1.439 . S
C665 C683 1.392 . S
N666 Co650 2.282 1_565 S
N666 C669 1.332 . S
N666 C671 1.332 . S
C667 C668 1.386 . S
C667 C670 1.388 . S
C668 C667 1.386 . S
C668 C669 1.382 . S
C668 H694 0.950 . S
C669 N666 1.332 . S
C669 C668 1.382 . S
C669 H680 0.952 . S
C670 C667 1.388 . S
C670 C671 1.382 . S
C670 H695 0.950 . S
C671 N666 1.332 . S
C671 C670 1.382 . S
C671 H681 0.948 . S
N672 Co650 2.282 . S
N672 C676 1.332 . S
N672 C677 1.332 . S
C673 C674 1.388 . S
C673 C677 1.382 . S
C673 H696 0.950 . S
C674 C673 1.388 . S
C674 C675 1.386 . S
C675 C674 1.386 . S
C675 C676 1.382 . S
C675 H697 0.950 . S
C676 N672 1.332 . S
C676 C675 1.382 . S
C676 H678 0.952 . S
C677 N672 1.332 . S
C677 C673 1.382 . S
C677 H679 0.948 . S
H678 C676 0.952 . S
H679 C677 0.948 . S
H680 C669 0.952 . S
H681 C671 0.948 . S
C682 C648 1.395 . S
C682 C652 1.391 1_545 S
C683 C645 1.389 . S
C683 C665 1.392 . S
C684 C655 1.392 . S
C684 C657 1.389 . S
C685 C660 1.395 1_545 S
C685 C662 1.391 . S
H686 C646 0.951 . S
H687 C647 0.950 . S
H688 C653 0.949 . S
H689 C654 0.950 . S
H690 C658 0.951 . S
H691 C659 0.950 . S
H692 C663 0.949 . S
H693 C664 0.950 . S
H694 C668 0.950 . S
H695 C670 0.950 . S
H696 C673 0.950 . S
H697 C675 0.950 . S
C698 C699 1.443 . S
C698 N702 1.376 . S
C698 C736 1.389 . S
C699 C698 1.443 . S
C699 C700 1.340 . S
C699 H739 0.951 . S
C700 C699 1.340 . S
C700 C701 1.439 . S
C700 H740 0.950 . S
C701 C700 1.439 . S
C701 N702 1.374 . S
C701 C735 1.395 . S
N702 C698 1.376 . S
N702 C701 1.374 . S
N702 Co703 2.008 . S
Co703 N702 2.008 . S
Co703 N704 1.995 . S
Co703 N709 2.008 . S
Co703 N714 1.995 . S
Co703 N719 2.282 . S
Co703 N725 2.282 . S
N704 Co703 1.995 . S
N704 C705 1.376 . S
N704 C708 1.383 1_455 S
C705 N704 1.376 . S
C705 C706 1.446 1_455 S
C705 C735 1.391 . S
C706 C705 1.446 1_655 S
C706 C707 1.339 . S
C706 H741 0.949 . S
C707 C706 1.339 . S
C707 C708 1.439 . S
C707 H742 0.950 . S
C708 N704 1.383 1_655 S
C708 C707 1.439 . S
C708 C737 1.392 . S
N709 Co703 2.008 . S
N709 C710 1.376 . S
N709 C713 1.374 . S
C710 N709 1.376 . S
C710 C711 1.443 1_455 S
C710 C737 1.389 1_455 S
C711 C710 1.443 1_655 S
C711 C712 1.340 1_655 S
C711 H743 0.951 . S
C712 C711 1.340 1_455 S
C712 C713 1.439 . S
C712 H744 0.950 . S
C713 N709 1.374 . S
C713 C712 1.439 . S
C713 C738 1.395 . S
N714 Co703 1.995 . S
N714 C715 1.376 . S
N714 C718 1.383 . S
C715 N714 1.376 . S
C715 C716 1.446 . S
C715 C738 1.391 . S
C716 C715 1.446 . S
C716 C717 1.339 . S
C716 H745 0.949 . S
C717 C716 1.339 . S
C717 C718 1.439 . S
C717 H746 0.950 . S
C718 N714 1.383 . S
C718 C717 1.439 . S
C718 C736 1.392 . S
N719 Co703 2.282 . S
N719 C722 1.332 . S
N719 C724 1.357 . S
C720 C721 1.383 . S
C720 C723 1.388 . S
C721 C720 1.383 . S
C721 C722 1.384 1_655 S
C721 H747 0.950 1_655 S
C722 N719 1.332 . S
C722 C721 1.384 1_455 S
C722 H733 0.952 . S
C723 C720 1.388 . S
C723 C724 1.356 1_655 S
C723 H748 0.950 . S
C724 N719 1.357 . S
C724 C723 1.356 1_455 S
C724 H734 0.948 . S
N725 Co703 2.282 . S
N725 C729 1.332 . S
N725 C730 1.332 . S
C726 C727 1.388 . S
C726 C730 1.382 . S
C726 H749 0.950 . S
C727 C726 1.388 . S
C727 C728 1.386 . S
C728 C727 1.386 . S
C728 C729 1.382 . S
C728 H750 0.950 . S
C729 N725 1.332 . S
C729 C728 1.382 . S
C729 H731 0.952 . S
C730 N725 1.332 . S
C730 C726 1.382 . S
C730 H732 0.948 . S
H731 C729 0.952 . S
H732 C730 0.948 . S
H733 C722 0.952 . S
H734 C724 0.948 . S
C735 C701 1.395 . S
C735 C705 1.391 . S
C736 C698 1.389 . S
C736 C718 1.392 . S
C737 C708 1.392 . S
C737 C710 1.389 1_655 S
C738 C713 1.395 . S
C738 C715 1.391 . S
H739 C699 0.951 . S
H740 C700 0.950 . S
H741 C706 0.949 . S
H742 C707 0.950 . S
H743 C711 0.951 . S
H744 C712 0.950 . S
H745 C716 0.949 . S
H746 C717 0.950 . S
H747 C721 0.950 1_455 S
H748 C723 0.950 . S
H749 C726 0.950 . S
H750 C728 0.950 . S
C751 C752 1.443 . S
C751 N755 1.376 . S
C751 C789 1.389 . S
C752 C751 1.443 . S
C752 C753 1.340 . S
C752 H792 0.951 . S
C753 C752 1.340 . S
C753 C754 1.439 . S
C753 H793 0.950 . S
C754 C753 1.439 . S
C754 N755 1.374 . S
C754 C788 1.395 . S
N755 C751 1.376 . S
N755 C754 1.374 . S
N755 Co756 2.008 . S
Co756 N755 2.008 . S
Co756 N757 1.995 . S
Co756 N762 2.008 . S
Co756 N767 1.995 . S
Co756 N772 2.282 . S
Co756 N778 2.282 . S
N757 Co756 1.995 . S
N757 C758 1.376 . S
N757 C761 1.383 . S
C758 N757 1.376 . S
C758 C759 1.446 . S
C758 C788 1.391 . S
C759 C758 1.446 . S
C759 C760 1.339 . S
C759 H794 0.949 . S
C760 C759 1.339 . S
C760 C761 1.439 . S
C760 H795 0.950 . S
C761 N757 1.383 . S
C761 C760 1.439 . S
C761 C790 1.392 . S
N762 Co756 2.008 . S
N762 C763 1.376 . S
N762 C766 1.374 . S
C763 N762 1.376 . S
C763 C764 1.443 . S
C763 C790 1.389 . S
C764 C763 1.443 . S
C764 C765 1.340 . S
C764 H796 0.951 . S
C765 C764 1.340 . S
C765 C766 1.439 . S
C765 H797 0.950 . S
C766 N762 1.374 . S
C766 C765 1.439 . S
C766 C791 1.395 . S
N767 Co756 1.995 . S
N767 C768 1.376 . S
N767 C771 1.383 . S
C768 N767 1.376 . S
C768 C769 1.446 . S
C768 C791 1.391 . S
C769 C768 1.446 . S
C769 C770 1.339 . S
C769 H798 0.949 . S
C770 C769 1.339 . S
C770 C771 1.439 . S
C770 H799 0.950 . S
C771 N767 1.383 . S
C771 C770 1.439 . S
C771 C789 1.392 . S
N772 Co756 2.282 . S
N772 C775 1.332 . S
N772 C777 1.332 . S
C773 C774 1.386 . S
C773 C776 1.388 . S
C774 C773 1.386 . S
C774 C775 1.382 . S
C774 H800 0.950 . S
C775 N772 1.332 . S
C775 C774 1.382 . S
C775 H786 0.952 . S
C776 C773 1.388 . S
C776 C777 1.382 . S
C776 H801 0.950 . S
C777 N772 1.332 . S
C777 C776 1.382 . S
C777 H787 0.948 . S
N778 Co756 2.282 . S
N778 C782 1.332 . S
N778 C783 1.332 . S
C779 C780 1.388 . S
C779 C783 1.382 . S
C779 H802 0.950 . S
C780 C779 1.388 . S
C780 C781 1.386 . S
C781 C780 1.386 . S
C781 C782 1.382 . S
C781 H803 0.950 . S
C782 N778 1.332 . S
C782 C781 1.382 . S
C782 H784 0.952 . S
C783 N778 1.332 . S
C783 C779 1.382 . S
C783 H785 0.948 . S
H784 C782 0.952 . S
H785 C783 0.948 . S
H786 C775 0.952 . S
H787 C777 0.948 . S
C788 C754 1.395 . S
C788 C758 1.391 . S
C789 C751 1.389 . S
C789 C771 1.392 . S
C790 C761 1.392 . S
C790 C763 1.389 . S
C791 C766 1.395 . S
C791 C768 1.391 . S
H792 C752 0.951 . S
H793 C753 0.950 . S
H794 C759 0.949 . S
H795 C760 0.950 . S
H796 C764 0.951 . S
H797 C765 0.950 . S
H798 C769 0.949 . S
H799 C770 0.950 . S
H800 C774 0.950 . S
H801 C776 0.950 . S
H802 C779 0.950 . S
H803 C781 0.950 . S
C804 C805 1.443 . S
C804 N808 1.376 . S
C804 C842 1.389 . S
C805 C804 1.443 . S
C805 C806 1.340 . S
C805 H845 0.951 . S
C806 C805 1.340 . S
C806 C807 1.439 . S
C806 H846 0.950 . S
C807 C806 1.439 . S
C807 N808 1.374 . S
C807 C841 1.395 . S
N808 C804 1.376 . S
N808 C807 1.374 . S
N808 Co809 2.008 . S
Co809 N808 2.008 . S
Co809 N810 1.995 1_554 S
Co809 N815 2.008 1_554 S
Co809 N820 1.995 . S
Co809 N825 2.282 . S
Co809 N831 2.282 1_554 S
N810 Co809 1.995 1_556 S
N810 C811 1.376 . S
N810 C814 1.383 . S
C811 N810 1.376 . S
C811 C812 1.446 . S
C811 C841 1.391 1_556 S
C812 C811 1.446 . S
C812 C813 1.339 . S
C812 H847 0.949 . S
C813 C812 1.339 . S
C813 C814 1.439 . S
C813 H848 0.950 . S
C814 N810 1.383 . S
C814 C813 1.439 . S
C814 C843 1.392 . S
N815 Co809 2.008 1_556 S
N815 C816 1.376 . S
N815 C819 1.374 . S
C816 N815 1.376 . S
C816 C817 1.443 . S
C816 C843 1.389 . S
C817 C816 1.443 . S
C817 C818 1.340 . S
C817 H849 0.951 . S
C818 C817 1.340 . S
C818 C819 1.439 . S
C818 H850 0.950 . S
C819 N815 1.374 . S
C819 C818 1.439 . S
C819 C844 1.395 1_556 S
N820 Co809 1.995 . S
N820 C821 1.376 . S
N820 C824 1.383 . S
C821 N820 1.376 . S
C821 C822 1.446 . S
C821 C844 1.391 . S
C822 C821 1.446 . S
C822 C823 1.339 . S
C822 H851 0.949 . S
C823 C822 1.339 . S
C823 C824 1.439 . S
C823 H852 0.950 . S
C824 N820 1.383 . S
C824 C823 1.439 . S
C824 C842 1.392 . S
N825 Co809 2.282 . S
N825 C828 1.332 . S
N825 C830 1.332 . S
C826 C827 1.386 . S
C826 C829 1.388 . S
C827 C826 1.386 . S
C827 C828 1.382 . S
C827 H853 0.950 . S
C828 N825 1.332 . S
C828 C827 1.382 . S
C828 H839 0.952 . S
C829 C826 1.388 . S
C829 C830 1.382 . S
C829 H854 0.950 . S
C830 N825 1.332 . S
C830 C829 1.382 . S
C830 H840 0.948 . S
N831 Co809 2.282 1_556 S
N831 C835 1.332 . S
N831 C836 1.332 . S
C832 C833 1.388 . S
C832 C836 1.382 . S
C832 H855 0.950 . S
C833 C832 1.388 . S
C833 C834 1.386 . S
C834 C833 1.386 . S
C834 C835 1.382 . S
C834 H856 0.950 . S
C835 N831 1.332 . S
C835 C834 1.382 . S
C835 H837 0.952 . S
C836 N831 1.332 . S
C836 C832 1.382 . S
C836 H838 0.948 . S
H837 C835 0.952 . S
H838 C836 0.948 . S
H839 C828 0.952 . S
H840 C830 0.948 . S
C841 C807 1.395 . S
C841 C811 1.391 1_554 S
C842 C804 1.389 . S
C842 C824 1.392 . S
C843 C814 1.392 . S
C843 C816 1.389 . S
C844 C819 1.395 1_554 S
C844 C821 1.391 . S
H845 C805 0.951 . S
H846 C806 0.950 . S
H847 C812 0.949 . S
H848 C813 0.950 . S
H849 C817 0.951 . S
H850 C818 0.950 . S
H851 C822 0.949 . S
H852 C823 0.950 . S
H853 C827 0.950 . S
H854 C829 0.950 . S
H855 C832 0.950 . S
H856 C834 0.950 . S
C857 C858 1.443 . S
C857 N861 1.376 . S
C857 C895 1.389 . S
C858 C857 1.443 . S
C858 C859 1.340 . S
C858 H898 0.951 . S
C859 C858 1.340 . S
C859 C860 1.439 . S
C859 H899 0.950 . S
C860 C859 1.439 . S
C860 N861 1.374 . S
C860 C894 1.395 1_554 S
N861 C857 1.376 . S
N861 C860 1.374 . S
N861 Co862 2.008 . S
Co862 N861 2.008 . S
Co862 N863 1.995 1_554 S
Co862 N868 2.008 1_554 S
Co862 N873 1.995 . S
Co862 N878 2.282 . S
Co862 N884 2.282 1_554 S
N863 Co862 1.995 1_556 S
N863 C864 1.376 . S
N863 C867 1.383 . S
C864 N863 1.376 . S
C864 C865 1.446 . S
C864 C894 1.391 . S
C865 C864 1.446 . S
C865 C866 1.339 . S
C865 H900 0.949 . S
C866 C865 1.339 . S
C866 C867 1.439 . S
C866 H901 0.950 . S
C867 N863 1.383 . S
C867 C866 1.439 . S
C867 C896 1.392 . S
N868 Co862 2.008 1_556 S
N868 C869 1.376 . S
N868 C872 1.374 1_556 S
C869 N868 1.376 . S
C869 C870 1.443 . S
C869 C896 1.389 . S
C870 C869 1.443 . S
C870 C871 1.340 . S
C870 H902 0.951 . S
C871 C870 1.340 . S
C871 C872 1.439 1_556 S
C871 H903 0.950 . S
C872 N868 1.374 1_554 S
C872 C871 1.439 1_554 S
C872 C897 1.395 . S
N873 Co862 1.995 . S
N873 C874 1.376 . S
N873 C877 1.383 . S
C874 N873 1.376 . S
C874 C875 1.446 . S
C874 C897 1.391 . S
C875 C874 1.446 . S
C875 C876 1.339 . S
C875 H904 0.949 . S
C876 C875 1.339 . S
C876 C877 1.439 . S
C876 H905 0.950 . S
C877 N873 1.383 . S
C877 C876 1.439 . S
C877 C895 1.392 . S
N878 Co862 2.282 . S
N878 C881 1.332 . S
N878 C883 1.332 . S
C879 C880 1.386 . S
C879 C882 1.388 . S
C880 C879 1.386 . S
C880 C881 1.382 . S
C880 H906 0.950 . S
C881 N878 1.332 . S
C881 C880 1.382 . S
C881 H892 0.952 . S
C882 C879 1.388 . S
C882 C883 1.382 . S
C882 H907 0.950 . S
C883 N878 1.332 . S
C883 C882 1.382 . S
C883 H893 0.948 . S
N884 Co862 2.282 1_556 S
N884 C888 1.332 . S
N884 C889 1.332 . S
C885 C886 1.388 . S
C885 C889 1.382 . S
C885 H908 0.950 . S
C886 C885 1.388 . S
C886 C887 1.386 . S
C887 C886 1.386 . S
C887 C888 1.382 . S
C887 H909 0.950 . S
C888 N884 1.332 . S
C888 C887 1.382 . S
C888 H890 0.952 . S
C889 N884 1.332 . S
C889 C885 1.382 . S
C889 H891 0.948 . S
H890 C888 0.952 . S
H891 C889 0.948 . S
H892 C881 0.952 . S
H893 C883 0.948 . S
C894 C860 1.395 1_556 S
C894 C864 1.391 . S
C895 C857 1.389 . S
C895 C877 1.392 . S
C896 C867 1.392 . S
C896 C869 1.389 . S
C897 C872 1.395 . S
C897 C874 1.391 . S
H898 C858 0.951 . S
H899 C859 0.950 . S
H900 C865 0.949 . S
H901 C866 0.950 . S
H902 C870 0.951 . S
H903 C871 0.950 . S
H904 C875 0.949 . S
H905 C876 0.950 . S
H906 C880 0.950 . S
H907 C882 0.950 . S
H908 C885 0.950 . S
H909 C887 0.950 . S
C910 C911 1.443 . S
C910 N914 1.376 . S
C910 C948 1.389 1_554 S
C911 C910 1.443 . S
C911 C912 1.340 . S
C911 H951 0.951 1_554 S
C912 C911 1.340 . S
C912 C913 1.439 . S
C912 H952 0.950 . S
C913 C912 1.439 . S
C913 N914 1.374 . S
C913 C947 1.395 . S
N914 C910 1.376 . S
N914 C913 1.374 . S
N914 Co915 2.008 . S
Co915 N914 2.008 . S
Co915 N916 1.995 . S
Co915 N921 2.008 . S
Co915 N926 1.995 . S
Co915 N931 2.282 . S
Co915 N937 2.282 . S
N916 Co915 1.995 . S
N916 C917 1.376 . S
N916 C920 1.383 . S
C917 N916 1.376 . S
C917 C918 1.446 . S
C917 C947 1.391 . S
C918 C917 1.446 . S
C918 C919 1.339 . S
C918 H953 0.949 . S
C919 C918 1.339 . S
C919 C920 1.439 . S
C919 H954 0.950 . S
C920 N916 1.383 . S
C920 C919 1.439 . S
C920 C949 1.392 . S
N921 Co915 2.008 . S
N921 C922 1.376 . S
N921 C925 1.374 . S
C922 N921 1.376 . S
C922 C923 1.443 . S
C922 C949 1.389 . S
C923 C922 1.443 . S
C923 C924 1.340 . S
C923 H955 0.951 . S
C924 C923 1.340 . S
C924 C925 1.439 . S
C924 H956 0.950 . S
C925 N921 1.374 . S
C925 C924 1.439 . S
C925 C950 1.395 . S
N926 Co915 1.995 . S
N926 C927 1.376 . S
N926 C930 1.383 . S
C927 N926 1.376 . S
C927 C928 1.446 1_554 S
C927 C950 1.391 . S
C928 C927 1.446 1_556 S
C928 C929 1.339 . S
C928 H957 0.949 . S
C929 C928 1.339 . S
C929 C930 1.439 1_556 S
C929 H958 0.950 . S
C930 N926 1.383 . S
C930 C929 1.439 1_554 S
C930 C948 1.392 1_554 S
N931 Co915 2.282 . S
N931 C934 1.332 . S
N931 C936 1.332 . S
C932 C933 1.386 . S
C932 C935 1.388 1_556 S
C933 C932 1.386 . S
C933 C934 1.382 1_556 S
C933 H959 0.950 . S
C934 N931 1.332 . S
C934 C933 1.382 1_554 S
C934 H945 0.952 . S
C935 C932 1.388 1_554 S
C935 C936 1.382 . S
C935 H960 0.950 . S
C936 N931 1.332 . S
C936 C935 1.382 . S
C936 H946 0.948 . S
N937 Co915 2.282 . S
N937 C941 1.332 . S
N937 C942 1.332 . S
C938 C939 1.388 . S
C938 C942 1.382 . S
C938 H961 0.950 . S
C939 C938 1.388 . S
C939 C940 1.386 . S
C940 C939 1.386 . S
C940 C941 1.382 . S
C940 H962 0.950 . S
C941 N937 1.332 . S
C941 C940 1.382 . S
C941 H943 0.952 . S
C942 N937 1.332 . S
C942 C938 1.382 . S
C942 H944 0.948 . S
H943 C941 0.952 . S
H944 C942 0.948 . S
H945 C934 0.952 . S
H946 C936 0.948 . S
C947 C913 1.395 . S
C947 C917 1.391 . S
C948 C910 1.389 1_556 S
C948 C930 1.392 1_556 S
C949 C920 1.392 . S
C949 C922 1.389 . S
C950 C925 1.395 . S
C950 C927 1.391 . S
H951 C911 0.951 1_556 S
H952 C912 0.950 . S
H953 C918 0.949 . S
H954 C919 0.950 . S
H955 C923 0.951 . S
H956 C924 0.950 . S
H957 C928 0.949 . S
H958 C929 0.950 . S
H959 C933 0.950 . S
H960 C935 0.950 . S
H961 C938 0.950 . S
H962 C940 0.950 . S
C963 C964 1.443 . S
C963 N967 1.376 . S
C963 C1001 1.389 . S
C964 C963 1.443 . S
C964 C965 1.340 . S
C964 H1004 0.951 . S
C965 C964 1.340 . S
C965 C966 1.439 . S
C965 H1005 0.950 . S
C966 C965 1.439 . S
C966 N967 1.374 . S
C966 C1000 1.395 . S
N967 C963 1.376 . S
N967 C966 1.374 . S
N967 Co968 2.008 . S
Co968 N967 2.008 . S
Co968 N969 1.995 . S
Co968 N974 2.008 . S
Co968 N979 1.995 . S
Co968 N984 2.282 . S
Co968 N990 2.282 . S
N969 Co968 1.995 . S
N969 C970 1.376 . S
N969 C973 1.383 . S
C970 N969 1.376 . S
C970 C971 1.446 . S
C970 C1000 1.391 . S
C971 C970 1.446 . S
C971 C972 1.339 . S
C971 H1006 0.949 . S
C972 C971 1.339 . S
C972 C973 1.439 . S
C972 H1007 0.950 . S
C973 N969 1.383 . S
C973 C972 1.439 . S
C973 C1002 1.392 . S
N974 Co968 2.008 . S
N974 C975 1.376 . S
N974 C978 1.374 . S
C975 N974 1.376 . S
C975 C976 1.443 . S
C975 C1002 1.389 . S
C976 C975 1.443 . S
C976 C977 1.340 . S
C976 H1008 0.951 . S
C977 C976 1.340 . S
C977 C978 1.439 . S
C977 H1009 0.950 . S
C978 N974 1.374 . S
C978 C977 1.439 . S
C978 C1003 1.395 . S
N979 Co968 1.995 . S
N979 C980 1.376 . S
N979 C983 1.383 . S
C980 N979 1.376 . S
C980 C981 1.446 . S
C980 C1003 1.391 . S
C981 C980 1.446 . S
C981 C982 1.339 . S
C981 H1010 0.949 . S
C982 C981 1.339 . S
C982 C983 1.439 . S
C982 H1011 0.950 . S
C983 N979 1.383 . S
C983 C982 1.439 . S
C983 C1001 1.392 . S
N984 Co968 2.282 . S
N984 C987 1.332 . S
N984 C989 1.332 . S
C985 C986 1.386 . S
C985 C988 1.388 . S
C986 C985 1.386 . S
C986 C987 1.382 . S
C986 H1012 0.950 . S
C987 N984 1.332 . S
C987 C986 1.382 . S
C987 H998 0.952 . S
C988 C985 1.388 . S
C988 C989 1.382 . S
C988 H1013 0.950 . S
C989 N984 1.332 . S
C989 C988 1.382 . S
C989 H999 0.948 . S
N990 Co968 2.282 . S
N990 C994 1.332 . S
N990 C995 1.332 . S
C991 C992 1.388 . S
C991 C995 1.382 . S
C991 H1014 0.950 . S
C992 C991 1.388 . S
C992 C993 1.386 . S
C993 C992 1.386 . S
C993 C994 1.382 . S
C993 H1015 0.950 . S
C994 N990 1.332 . S
C994 C993 1.382 . S
C994 H996 0.952 . S
C995 N990 1.332 . S
C995 C991 1.382 . S
C995 H997 0.948 . S
H996 C994 0.952 . S
H997 C995 0.948 . S
H998 C987 0.952 . S
H999 C989 0.948 . S
C1000 C966 1.395 . S
C1000 C970 1.391 . S
C1001 C963 1.389 . S
C1001 C983 1.392 . S
C1002 C973 1.392 . S
C1002 C975 1.389 . S
C1003 C978 1.395 . S
C1003 C980 1.391 . S
H1004 C964 0.951 . S
H1005 C965 0.950 . S
H1006 C971 0.949 . S
H1007 C972 0.950 . S
H1008 C976 0.951 . S
H1009 C977 0.950 . S
H1010 C981 0.949 . S
H1011 C982 0.950 . S
H1012 C986 0.950 . S
H1013 C988 0.950 . S
H1014 C991 0.950 . S
H1015 C993 0.950 . S
H1016 C1034 0.951 . S
H1017 C1036 0.951 . S
H1018 C1038 0.950 . S
H1019 C1039 0.950 . S
H1020 C1041 0.950 . S
H1021 C1044 0.950 . S
H1022 C1045 0.950 . S
H1023 C1047 0.950 . S
H1024 C1048 0.950 . S
H1025 C1049 0.951 . S
H1026 C1051 0.951 . S
H1027 C1053 0.950 . S
H1028 C1054 0.950 . S
H1029 C1056 0.950 . S
H1030 C1059 0.950 . S
H1031 C1060 0.950 . S
H1032 C1062 0.950 . S
H1033 C1063 0.950 . S
C1034 H1016 0.951 . S
C1034 C1035 1.366 . S
C1034 C1036 1.388 . S
C1035 C1034 1.366 . S
C1035 C1039 1.385 . S
C1036 H1017 0.951 . S
C1036 C1034 1.388 . S
C1036 C1037 1.366 . S
C1037 C1036 1.366 . S
C1037 C1038 1.414 . S
C1037 C1040 1.499 . S
C1038 H1018 0.950 . S
C1038 C1037 1.414 . S
C1038 C1039 1.374 . S
C1039 H1019 0.950 . S
C1039 C1035 1.385 . S
C1039 C1038 1.374 . S
C1040 C1037 1.499 . S
C1040 C1041 1.373 . S
C1040 C1042 1.389 . S
C1041 H1020 0.950 . S
C1041 C1040 1.373 . S
C1041 C1057 1.377 . S
C1042 C1040 1.389 . S
C1042 C1043 1.524 . S
C1042 C1056 1.377 . S
C1043 C1042 1.524 . S
C1043 C1044 1.397 . S
C1043 C1048 1.363 . S
C1044 H1021 0.950 . S
C1044 C1043 1.397 . S
C1044 C1045 1.334 . S
C1045 H1022 0.950 . S
C1045 C1044 1.334 . S
C1045 C1046 1.287 . S
C1046 C1045 1.287 . S
C1046 C1047 1.524 . S
C1046 H1065 0.913 . S
C1047 H1023 0.950 . S
C1047 C1046 1.524 . S
C1047 C1048 1.415 . S
C1048 H1024 0.950 . S
C1048 C1043 1.363 . S
C1048 C1047 1.415 . S
C1049 H1025 0.951 . S
C1049 C1050 1.366 . S
C1049 C1051 1.388 . S
C1050 C1049 1.366 . S
C1050 C1054 1.385 . S
C1051 H1026 0.951 . S
C1051 C1049 1.388 . S
C1051 C1052 1.366 . S
C1052 C1051 1.366 . S
C1052 C1053 1.414 . S
C1052 C1055 1.499 . S
C1053 H1027 0.950 . S
C1053 C1052 1.414 . S
C1053 C1054 1.374 . S
C1054 H1028 0.950 . S
C1054 C1050 1.385 . S
C1054 C1053 1.374 . S
C1055 C1052 1.499 . S
C1055 C1056 1.373 . S
C1055 C1057 1.389 . S
C1056 H1029 0.950 . S
C1056 C1042 1.377 . S
C1056 C1055 1.373 . S
C1057 C1041 1.377 . S
C1057 C1055 1.389 . S
C1057 C1058 1.524 . S
C1058 C1057 1.524 . S
C1058 C1059 1.397 . S
C1058 C1063 1.363 . S
C1059 H1030 0.950 . S
C1059 C1058 1.397 . S
C1059 C1060 1.334 . S
C1060 H1031 0.950 . S
C1060 C1059 1.334 . S
C1060 C1061 1.287 . S
C1061 C1060 1.287 . S
C1061 C1062 1.524 . S
C1061 H1064 0.999 . S
C1062 H1032 0.950 . S
C1062 C1061 1.524 . S
C1062 C1063 1.415 . S
C1063 H1033 0.950 . S
C1063 C1058 1.363 . S
C1063 C1062 1.415 . S
H1064 C1061 0.999 . S
H1065 C1046 0.913 . S
H1066 C1084 0.951 . S
H1067 C1086 0.951 . S
H1068 C1088 0.950 . S
H1069 C1089 0.950 . S
H1070 C1091 0.950 . S
H1071 C1094 0.950 . S
H1072 C1095 0.950 . S
H1073 C1097 0.950 . S
H1074 C1098 0.950 . S
H1075 C1099 0.951 . S
H1076 C1101 0.951 . S
H1077 C1103 0.950 . S
H1078 C1104 0.950 . S
H1079 C1106 0.950 . S
H1080 C1109 0.950 . S
H1081 C1110 0.950 . S
H1082 C1112 0.950 . S
H1083 C1113 0.950 . S
C1084 H1066 0.951 . S
C1084 C1085 1.366 . S
C1084 C1086 1.388 . S
C1085 C1084 1.366 . S
C1085 C1089 1.385 . S
C1086 H1067 0.951 . S
C1086 C1084 1.388 . S
C1086 C1087 1.366 . S
C1087 C1086 1.366 . S
C1087 C1088 1.414 . S
C1087 C1090 1.499 . S
C1088 H1068 0.950 . S
C1088 C1087 1.414 . S
C1088 C1089 1.374 . S
C1089 H1069 0.950 . S
C1089 C1085 1.385 . S
C1089 C1088 1.374 . S
C1090 C1087 1.499 . S
C1090 C1091 1.373 . S
C1090 C1092 1.389 . S
C1091 H1070 0.950 . S
C1091 C1090 1.373 . S
C1091 C1107 1.377 . S
C1092 C1090 1.389 . S
C1092 C1093 1.524 . S
C1092 C1106 1.377 . S
C1093 C1092 1.524 . S
C1093 C1094 1.397 . S
C1093 C1098 1.363 . S
C1094 H1071 0.950 . S
C1094 C1093 1.397 . S
C1094 C1095 1.334 . S
C1095 H1072 0.950 . S
C1095 C1094 1.334 . S
C1095 C1096 1.287 . S
C1096 C1095 1.287 . S
C1096 C1097 1.524 . S
C1096 H1115 0.913 . S
C1097 H1073 0.950 . S
C1097 C1096 1.524 . S
C1097 C1098 1.415 . S
C1098 H1074 0.950 . S
C1098 C1093 1.363 . S
C1098 C1097 1.415 . S
C1099 H1075 0.951 . S
C1099 C1100 1.366 . S
C1099 C1101 1.388 . S
C1100 C1099 1.366 . S
C1100 C1104 1.385 . S
C1101 H1076 0.951 . S
C1101 C1099 1.388 . S
C1101 C1102 1.366 . S
C1102 C1101 1.366 . S
C1102 C1103 1.414 . S
C1102 C1105 1.499 . S
C1103 H1077 0.950 . S
C1103 C1102 1.414 . S
C1103 C1104 1.374 . S
C1104 H1078 0.950 . S
C1104 C1100 1.385 . S
C1104 C1103 1.374 . S
C1105 C1102 1.499 . S
C1105 C1106 1.373 . S
C1105 C1107 1.389 . S
C1106 H1079 0.950 . S
C1106 C1092 1.377 . S
C1106 C1105 1.373 . S
C1107 C1091 1.377 . S
C1107 C1105 1.389 . S
C1107 C1108 1.524 . S
C1108 C1107 1.524 . S
C1108 C1109 1.397 . S
C1108 C1113 1.363 . S
C1109 H1080 0.950 . S
C1109 C1108 1.397 . S
C1109 C1110 1.334 . S
C1110 H1081 0.950 . S
C1110 C1109 1.334 . S
C1110 C1111 1.287 . S
C1111 C1110 1.287 . S
C1111 C1112 1.524 . S
C1111 H1114 0.999 . S
C1112 H1082 0.950 . S
C1112 C1111 1.524 . S
C1112 C1113 1.415 . S
C1113 H1083 0.950 . S
C1113 C1108 1.363 . S
C1113 C1112 1.415 . S
H1114 C1111 0.999 . S
H1115 C1096 0.913 . S
H1116 C1134 0.951 . S
H1117 C1136 0.951 . S
H1118 C1138 0.950 . S
H1119 C1139 0.950 . S
H1120 C1141 0.950 . S
H1121 C1144 0.950 . S
H1122 C1145 0.950 . S
H1123 C1147 0.950 . S
H1124 C1148 0.950 . S
H1125 C1149 0.951 . S
H1126 C1151 0.951 . S
H1127 C1153 0.950 . S
H1128 C1154 0.950 . S
H1129 C1156 0.950 . S
H1130 C1159 0.950 . S
H1131 C1160 0.950 . S
H1132 C1162 0.950 . S
H1133 C1163 0.950 . S
C1134 H1116 0.951 . S
C1134 C1135 1.366 . S
C1134 C1136 1.388 . S
C1135 C1134 1.366 . S
C1135 C1139 1.385 . S
C1136 H1117 0.951 . S
C1136 C1134 1.388 . S
C1136 C1137 1.366 . S
C1137 C1136 1.366 . S
C1137 C1138 1.414 . S
C1137 C1140 1.499 . S
C1138 H1118 0.950 . S
C1138 C1137 1.414 . S
C1138 C1139 1.374 . S
C1139 H1119 0.950 . S
C1139 C1135 1.385 . S
C1139 C1138 1.374 . S
C1140 C1137 1.499 . S
C1140 C1141 1.373 . S
C1140 C1142 1.389 . S
C1141 H1120 0.950 . S
C1141 C1140 1.373 . S
C1141 C1157 1.377 . S
C1142 C1140 1.389 . S
C1142 C1143 1.524 . S
C1142 C1156 1.377 . S
C1143 C1142 1.524 . S
C1143 C1144 1.397 . S
C1143 C1148 1.363 . S
C1144 H1121 0.950 . S
C1144 C1143 1.397 . S
C1144 C1145 1.334 . S
C1145 H1122 0.950 . S
C1145 C1144 1.334 . S
C1145 C1146 1.287 . S
C1146 C1145 1.287 . S
C1146 C1147 1.524 . S
C1146 H1165 0.913 . S
C1147 H1123 0.950 . S
C1147 C1146 1.524 . S
C1147 C1148 1.415 . S
C1148 H1124 0.950 . S
C1148 C1143 1.363 . S
C1148 C1147 1.415 . S
C1149 H1125 0.951 . S
C1149 C1150 1.366 . S
C1149 C1151 1.388 . S
C1150 C1149 1.366 . S
C1150 C1154 1.385 . S
C1151 H1126 0.951 . S
C1151 C1149 1.388 . S
C1151 C1152 1.366 . S
C1152 C1151 1.366 . S
C1152 C1153 1.414 . S
C1152 C1155 1.499 . S
C1153 H1127 0.950 . S
C1153 C1152 1.414 . S
C1153 C1154 1.374 . S
C1154 H1128 0.950 . S
C1154 C1150 1.385 . S
C1154 C1153 1.374 . S
C1155 C1152 1.499 . S
C1155 C1156 1.373 . S
C1155 C1157 1.389 . S
C1156 H1129 0.950 . S
C1156 C1142 1.377 . S
C1156 C1155 1.373 . S
C1157 C1141 1.377 . S
C1157 C1155 1.389 . S
C1157 C1158 1.524 . S
C1158 C1157 1.524 . S
C1158 C1159 1.397 . S
C1158 C1163 1.363 . S
C1159 H1130 0.950 . S
C1159 C1158 1.397 . S
C1159 C1160 1.334 . S
C1160 H1131 0.950 . S
C1160 C1159 1.334 . S
C1160 C1161 1.287 . S
C1161 C1160 1.287 . S
C1161 C1162 1.524 . S
C1161 H1164 0.999 . S
C1162 H1132 0.950 . S
C1162 C1161 1.524 . S
C1162 C1163 1.415 . S
C1163 H1133 0.950 . S
C1163 C1158 1.363 . S
C1163 C1162 1.415 . S
H1164 C1161 0.999 . S
H1165 C1146 0.913 . S
H1166 C1184 0.951 . S
H1167 C1186 0.951 . S
H1168 C1188 0.950 . S
H1169 C1189 0.950 . S
H1170 C1191 0.950 1_565 S
H1171 C1194 0.950 . S
H1172 C1195 0.950 . S
H1173 C1197 0.950 . S
H1174 C1198 0.950 . S
H1175 C1199 0.951 . S
H1176 C1201 0.951 . S
H1177 C1203 0.950 . S
H1178 C1204 0.950 . S
H1179 C1206 0.950 . S
H1180 C1209 0.950 . S
H1181 C1210 0.950 . S
H1182 C1212 0.950 . S
H1183 C1213 0.950 . S
C1184 H1166 0.951 . S
C1184 C1185 1.366 . S
C1184 C1186 1.388 . S
C1185 C1184 1.366 . S
C1185 C1189 1.385 . S
C1186 H1167 0.951 . S
C1186 C1184 1.388 . S
C1186 C1187 1.366 . S
C1187 C1186 1.366 . S
C1187 C1188 1.414 . S
C1187 C1190 1.499 . S
C1188 H1168 0.950 . S
C1188 C1187 1.414 . S
C1188 C1189 1.374 . S
C1189 H1169 0.950 . S
C1189 C1185 1.385 . S
C1189 C1188 1.374 . S
C1190 C1187 1.499 . S
C1190 C1191 1.373 1_565 S
C1190 C1192 1.389 . S
C1191 H1170 0.950 1_545 S
C1191 C1190 1.373 1_545 S
C1191 C1207 1.377 . S
C1192 C1190 1.389 . S
C1192 C1193 1.524 . S
C1192 C1206 1.377 1_565 S
C1193 C1192 1.524 . S
C1193 C1194 1.397 . S
C1193 C1198 1.363 . S
C1194 H1171 0.950 . S
C1194 C1193 1.397 . S
C1194 C1195 1.334 . S
C1195 H1172 0.950 . S
C1195 C1194 1.334 . S
C1195 C1196 1.287 . S
C1196 C1195 1.287 . S
C1196 C1197 1.524 . S
C1196 H1215 0.913 . S
C1197 H1173 0.950 . S
C1197 C1196 1.524 . S
C1197 C1198 1.415 . S
C1198 H1174 0.950 . S
C1198 C1193 1.363 . S
C1198 C1197 1.415 . S
C1199 H1175 0.951 . S
C1199 C1200 1.366 . S
C1199 C1201 1.388 . S
C1200 C1199 1.366 . S
C1200 C1204 1.385 . S
C1201 H1176 0.951 . S
C1201 C1199 1.388 . S
C1201 C1202 1.366 . S
C1202 C1201 1.366 . S
C1202 C1203 1.414 . S
C1202 C1205 1.499 . S
C1203 H1177 0.950 . S
C1203 C1202 1.414 . S
C1203 C1204 1.374 . S
C1204 H1178 0.950 . S
C1204 C1200 1.385 . S
C1204 C1203 1.374 . S
C1205 C1202 1.499 . S
C1205 C1206 1.373 . S
C1205 C1207 1.389 . S
C1206 H1179 0.950 . S
C1206 C1192 1.377 1_545 S
C1206 C1205 1.373 . S
C1207 C1191 1.377 . S
C1207 C1205 1.389 . S
C1207 C1208 1.524 . S
C1208 C1207 1.524 . S
C1208 C1209 1.397 . S
C1208 C1213 1.363 . S
C1209 H1180 0.950 . S
C1209 C1208 1.397 . S
C1209 C1210 1.334 . S
C1210 H1181 0.950 . S
C1210 C1209 1.334 . S
C1210 C1211 1.287 . S
C1211 C1210 1.287 . S
C1211 C1212 1.524 . S
C1211 H1214 0.999 . S
C1212 H1182 0.950 . S
C1212 C1211 1.524 . S
C1212 C1213 1.415 . S
C1213 H1183 0.950 . S
C1213 C1208 1.363 . S
C1213 C1212 1.415 . S
H1214 C1211 0.999 . S
H1215 C1196 0.913 . S
H1216 C1234 0.951 . S
H1217 C1236 0.951 . S
H1218 C1238 0.950 . S
H1219 C1239 0.950 . S
H1220 C1241 0.950 . S
H1221 C1244 0.950 . S
H1222 C1245 0.950 . S
H1223 C1247 0.950 . S
H1224 C1248 0.950 . S
H1225 C1249 0.951 . S
H1226 C1251 0.951 . S
H1227 C1253 0.950 . S
H1228 C1254 0.950 . S
H1229 C1256 0.950 . S
H1230 C1259 0.950 . S
H1231 C1260 0.950 . S
H1232 C1262 0.950 . S
H1233 C1263 0.950 . S
C1234 H1216 0.951 . S
C1234 C1235 1.366 . S
C1234 C1236 1.388 . S
C1235 C1234 1.366 . S
C1235 C1239 1.385 . S
C1236 H1217 0.951 . S
C1236 C1234 1.388 . S
C1236 C1237 1.366 . S
C1237 C1236 1.366 . S
C1237 C1238 1.414 . S
C1237 C1240 1.499 . S
C1238 H1218 0.950 . S
C1238 C1237 1.414 . S
C1238 C1239 1.374 . S
C1239 H1219 0.950 . S
C1239 C1235 1.385 . S
C1239 C1238 1.374 . S
C1240 C1237 1.499 . S
C1240 C1241 1.373 . S
C1240 C1242 1.389 . S
C1241 H1220 0.950 . S
C1241 C1240 1.373 . S
C1241 C1257 1.377 . S
C1242 C1240 1.389 . S
C1242 C1243 1.524 . S
C1242 C1256 1.377 . S
C1243 C1242 1.524 . S
C1243 C1244 1.397 . S
C1243 C1248 1.363 . S
C1244 H1221 0.950 . S
C1244 C1243 1.397 . S
C1244 C1245 1.334 . S
C1245 H1222 0.950 . S
C1245 C1244 1.334 . S
C1245 C1246 1.287 . S
C1246 C1245 1.287 . S
C1246 C1247 1.524 . S
C1246 H1265 0.913 . S
C1247 H1223 0.950 . S
C1247 C1246 1.524 . S
C1247 C1248 1.415 . S
C1248 H1224 0.950 . S
C1248 C1243 1.363 . S
C1248 C1247 1.415 . S
C1249 H1225 0.951 . S
C1249 C1250 1.366 . S
C1249 C1251 1.388 . S
C1250 C1249 1.366 . S
C1250 C1254 1.385 . S
C1251 H1226 0.951 . S
C1251 C1249 1.388 . S
C1251 C1252 1.366 . S
C1252 C1251 1.366 . S
C1252 C1253 1.414 . S
C1252 C1255 1.499 . S
C1253 H1227 0.950 . S
C1253 C1252 1.414 . S
C1253 C1254 1.374 . S
C1254 H1228 0.950 . S
C1254 C1250 1.385 . S
C1254 C1253 1.374 . S
C1255 C1252 1.499 . S
C1255 C1256 1.373 . S
C1255 C1257 1.389 . S
C1256 H1229 0.950 . S
C1256 C1242 1.377 . S
C1256 C1255 1.373 . S
C1257 C1241 1.377 . S
C1257 C1255 1.389 . S
C1257 C1258 1.524 . S
C1258 C1257 1.524 . S
C1258 C1259 1.397 . S
C1258 C1263 1.363 . S
C1259 H1230 0.950 . S
C1259 C1258 1.397 . S
C1259 C1260 1.334 . S
C1260 H1231 0.950 . S
C1260 C1259 1.334 . S
C1260 C1261 1.287 . S
C1261 C1260 1.287 . S
C1261 C1262 1.524 . S
C1261 H1264 0.999 . S
C1262 H1232 0.950 . S
C1262 C1261 1.524 . S
C1262 C1263 1.415 . S
C1263 H1233 0.950 . S
C1263 C1258 1.363 . S
C1263 C1262 1.415 . S
H1264 C1261 0.999 . S
H1265 C1246 0.913 . S
H1266 C1284 0.951 . S
H1267 C1286 0.951 . S
H1268 C1288 0.950 . S
H1269 C1289 0.950 . S
H1270 C1291 0.950 . S
H1271 C1294 0.950 . S
H1272 C1295 0.950 . S
H1273 C1297 0.950 . S
H1274 C1298 0.950 . S
H1275 C1299 0.951 . S
H1276 C1301 0.951 . S
H1277 C1303 0.950 . S
H1278 C1304 0.950 . S
H1279 C1306 0.950 . S
H1280 C1309 0.950 . S
H1281 C1310 0.950 . S
H1282 C1312 0.950 . S
H1283 C1313 0.950 . S
C1284 H1266 0.951 . S
C1284 C1285 1.366 . S
C1284 C1286 1.388 . S
C1285 C1284 1.366 . S
C1285 C1289 1.385 . S
C1286 H1267 0.951 . S
C1286 C1284 1.388 . S
C1286 C1287 1.366 . S
C1287 C1286 1.366 . S
C1287 C1288 1.414 . S
C1287 C1290 1.499 . S
C1288 H1268 0.950 . S
C1288 C1287 1.414 . S
C1288 C1289 1.374 . S
C1289 H1269 0.950 . S
C1289 C1285 1.385 . S
C1289 C1288 1.374 . S
C1290 C1287 1.499 . S
C1290 C1291 1.373 . S
C1290 C1292 1.389 . S
C1291 H1270 0.950 . S
C1291 C1290 1.373 . S
C1291 C1307 1.377 . S
C1292 C1290 1.389 . S
C1292 C1293 1.524 . S
C1292 C1306 1.377 . S
C1293 C1292 1.524 . S
C1293 C1294 1.397 . S
C1293 C1298 1.363 . S
C1294 H1271 0.950 . S
C1294 C1293 1.397 . S
C1294 C1295 1.334 . S
C1295 H1272 0.950 . S
C1295 C1294 1.334 . S
C1295 C1296 1.287 . S
C1296 C1295 1.287 . S
C1296 C1297 1.524 . S
C1296 H1315 0.913 . S
C1297 H1273 0.950 . S
C1297 C1296 1.524 . S
C1297 C1298 1.415 . S
C1298 H1274 0.950 . S
C1298 C1293 1.363 . S
C1298 C1297 1.415 . S
C1299 H1275 0.951 . S
C1299 C1300 1.366 . S
C1299 C1301 1.388 . S
C1300 C1299 1.366 . S
C1300 C1304 1.385 . S
C1301 H1276 0.951 . S
C1301 C1299 1.388 . S
C1301 C1302 1.366 . S
C1302 C1301 1.366 . S
C1302 C1303 1.414 . S
C1302 C1305 1.499 . S
C1303 H1277 0.950 . S
C1303 C1302 1.414 . S
C1303 C1304 1.374 . S
C1304 H1278 0.950 . S
C1304 C1300 1.385 . S
C1304 C1303 1.374 . S
C1305 C1302 1.499 . S
C1305 C1306 1.373 . S
C1305 C1307 1.389 . S
C1306 H1279 0.950 . S
C1306 C1292 1.377 . S
C1306 C1305 1.373 . S
C1307 C1291 1.377 . S
C1307 C1305 1.389 . S
C1307 C1308 1.524 . S
C1308 C1307 1.524 . S
C1308 C1309 1.397 . S
C1308 C1313 1.363 . S
C1309 H1280 0.950 . S
C1309 C1308 1.397 . S
C1309 C1310 1.334 . S
C1310 H1281 0.950 . S
C1310 C1309 1.334 . S
C1310 C1311 1.287 . S
C1311 C1310 1.287 . S
C1311 C1312 1.524 . S
C1311 H1314 0.999 . S
C1312 H1282 0.950 . S
C1312 C1311 1.524 . S
C1312 C1313 1.415 . S
C1313 H1283 0.950 . S
C1313 C1308 1.363 . S
C1313 C1312 1.415 . S
H1314 C1311 0.999 . S
H1315 C1296 0.913 . S
H1316 C1334 0.951 . S
H1317 C1336 0.951 . S
H1318 C1338 0.950 . S
H1319 C1339 0.950 . S
H1320 C1341 0.950 . S
H1321 C1344 0.950 . S
H1322 C1345 0.950 . S
H1323 C1347 0.950 . S
H1324 C1348 0.950 . S
H1325 C1349 0.951 . S
H1326 C1351 0.951 . S
H1327 C1353 0.950 . S
H1328 C1354 0.950 . S
H1329 C1356 0.950 . S
H1330 C1359 0.950 . S
H1331 C1360 0.950 . S
H1332 C1362 0.950 . S
H1333 C1363 0.950 . S
C1334 H1316 0.951 . S
C1334 C1335 1.366 . S
C1334 C1336 1.388 . S
C1335 C1334 1.366 . S
C1335 C1339 1.385 . S
C1336 H1317 0.951 . S
C1336 C1334 1.388 . S
C1336 C1337 1.366 . S
C1337 C1336 1.366 . S
C1337 C1338 1.414 . S
C1337 C1340 1.499 . S
C1338 H1318 0.950 . S
C1338 C1337 1.414 . S
C1338 C1339 1.374 . S
C1339 H1319 0.950 . S
C1339 C1335 1.385 . S
C1339 C1338 1.374 . S
C1340 C1337 1.499 . S
C1340 C1341 1.373 . S
C1340 C1342 1.389 . S
C1341 H1320 0.950 . S
C1341 C1340 1.373 . S
C1341 C1357 1.377 . S
C1342 C1340 1.389 . S
C1342 C1343 1.524 . S
C1342 C1356 1.377 . S
C1343 C1342 1.524 . S
C1343 C1344 1.397 . S
C1343 C1348 1.363 . S
C1344 H1321 0.950 . S
C1344 C1343 1.397 . S
C1344 C1345 1.334 . S
C1345 H1322 0.950 . S
C1345 C1344 1.334 . S
C1345 C1346 1.287 . S
C1346 C1345 1.287 . S
C1346 C1347 1.524 . S
C1346 H1365 0.913 . S
C1347 H1323 0.950 . S
C1347 C1346 1.524 . S
C1347 C1348 1.415 . S
C1348 H1324 0.950 . S
C1348 C1343 1.363 . S
C1348 C1347 1.415 . S
C1349 H1325 0.951 . S
C1349 C1350 1.366 . S
C1349 C1351 1.388 . S
C1350 C1349 1.366 . S
C1350 C1354 1.385 . S
C1351 H1326 0.951 . S
C1351 C1349 1.388 . S
C1351 C1352 1.366 . S
C1352 C1351 1.366 . S
C1352 C1353 1.414 . S
C1352 C1355 1.499 . S
C1353 H1327 0.950 . S
C1353 C1352 1.414 . S
C1353 C1354 1.374 . S
C1354 H1328 0.950 . S
C1354 C1350 1.385 . S
C1354 C1353 1.374 . S
C1355 C1352 1.499 . S
C1355 C1356 1.373 . S
C1355 C1357 1.389 . S
C1356 H1329 0.950 . S
C1356 C1342 1.377 . S
C1356 C1355 1.373 . S
C1357 C1341 1.377 . S
C1357 C1355 1.389 . S
C1357 C1358 1.524 . S
C1358 C1357 1.524 . S
C1358 C1359 1.397 . S
C1358 C1363 1.363 . S
C1359 H1330 0.950 . S
C1359 C1358 1.397 . S
C1359 C1360 1.334 . S
C1360 H1331 0.950 . S
C1360 C1359 1.334 . S
C1360 C1361 1.287 . S
C1361 C1360 1.287 . S
C1361 C1362 1.524 . S
C1361 H1364 0.999 . S
C1362 H1332 0.950 . S
C1362 C1361 1.524 . S
C1362 C1363 1.415 . S
C1363 H1333 0.950 . S
C1363 C1358 1.363 . S
C1363 C1362 1.415 . S
H1364 C1361 0.999 . S
H1365 C1346 0.913 . S
H1366 C1384 0.951 . S
H1367 C1386 0.951 . S
H1368 C1388 0.950 . S
H1369 C1389 0.950 . S
H1370 C1391 0.950 . S
H1371 C1394 0.950 . S
H1372 C1395 0.950 . S
H1373 C1397 0.950 . S
H1374 C1398 0.950 . S
H1375 C1399 0.951 . S
H1376 C1401 0.951 . S
H1377 C1403 0.950 . S
H1378 C1404 0.950 . S
H1379 C1406 0.950 . S
H1380 C1409 0.950 . S
H1381 C1410 0.950 . S
H1382 C1412 0.950 . S
H1383 C1413 0.950 . S
C1384 H1366 0.951 . S
C1384 C1385 1.366 . S
C1384 C1386 1.388 . S
C1385 C1384 1.366 . S
C1385 C1389 1.385 . S
C1386 H1367 0.951 . S
C1386 C1384 1.388 . S
C1386 C1387 1.366 . S
C1387 C1386 1.366 . S
C1387 C1388 1.414 . S
C1387 C1390 1.499 . S
C1388 H1368 0.950 . S
C1388 C1387 1.414 . S
C1388 C1389 1.374 . S
C1389 H1369 0.950 . S
C1389 C1385 1.385 . S
C1389 C1388 1.374 . S
C1390 C1387 1.499 . S
C1390 C1391 1.373 . S
C1390 C1392 1.389 . S
C1391 H1370 0.950 . S
C1391 C1390 1.373 . S
C1391 C1407 1.377 . S
C1392 C1390 1.389 . S
C1392 C1393 1.524 . S
C1392 C1406 1.377 . S
C1393 C1392 1.524 . S
C1393 C1394 1.397 . S
C1393 C1398 1.363 . S
C1394 H1371 0.950 . S
C1394 C1393 1.397 . S
C1394 C1395 1.334 . S
C1395 H1372 0.950 . S
C1395 C1394 1.334 . S
C1395 C1396 1.287 . S
C1396 C1395 1.287 . S
C1396 C1397 1.524 . S
C1396 H1415 0.913 . S
C1397 H1373 0.950 . S
C1397 C1396 1.524 . S
C1397 C1398 1.415 . S
C1398 H1374 0.950 . S
C1398 C1393 1.363 . S
C1398 C1397 1.415 . S
C1399 H1375 0.951 . S
C1399 C1400 1.366 . S
C1399 C1401 1.388 . S
C1400 C1399 1.366 . S
C1400 C1404 1.385 . S
C1401 H1376 0.951 . S
C1401 C1399 1.388 . S
C1401 C1402 1.366 . S
C1402 C1401 1.366 . S
C1402 C1403 1.414 . S
C1402 C1405 1.499 . S
C1403 H1377 0.950 . S
C1403 C1402 1.414 . S
C1403 C1404 1.374 . S
C1404 H1378 0.950 . S
C1404 C1400 1.385 . S
C1404 C1403 1.374 . S
C1405 C1402 1.499 . S
C1405 C1406 1.373 . S
C1405 C1407 1.389 . S
C1406 H1379 0.950 . S
C1406 C1392 1.377 . S
C1406 C1405 1.373 . S
C1407 C1391 1.377 . S
C1407 C1405 1.389 . S
C1407 C1408 1.524 . S
C1408 C1407 1.524 . S
C1408 C1409 1.397 . S
C1408 C1413 1.363 . S
C1409 H1380 0.950 . S
C1409 C1408 1.397 . S
C1409 C1410 1.334 . S
C1410 H1381 0.950 . S
C1410 C1409 1.334 . S
C1410 C1411 1.287 . S
C1411 C1410 1.287 . S
C1411 C1412 1.524 . S
C1411 H1414 0.999 . S
C1412 H1382 0.950 . S
C1412 C1411 1.524 . S
C1412 C1413 1.415 . S
C1413 H1383 0.950 . S
C1413 C1408 1.363 . S
C1413 C1412 1.415 . S
H1414 C1411 0.999 . S
H1415 C1396 0.913 . S
H1416 C1434 0.951 . S
H1417 C1436 0.951 . S
H1418 C1438 0.950 . S
H1419 C1439 0.950 . S
H1420 C1441 0.950 . S
H1421 C1444 0.950 . S
H1422 C1445 0.950 . S
H1423 C1447 0.950 . S
H1424 C1448 0.950 . S
H1425 C1449 0.951 . S
H1426 C1451 0.951 . S
H1427 C1453 0.950 . S
H1428 C1454 0.950 . S
H1429 C1456 0.950 . S
H1430 C1459 0.950 . S
H1431 C1460 0.950 . S
H1432 C1462 0.950 . S
H1433 C1463 0.950 . S
C1434 H1416 0.951 . S
C1434 C1435 1.366 . S
C1434 C1436 1.388 . S
C1435 C1434 1.366 . S
C1435 C1439 1.385 . S
C1436 H1417 0.951 . S
C1436 C1434 1.388 . S
C1436 C1437 1.366 . S
C1437 C1436 1.366 . S
C1437 C1438 1.414 . S
C1437 C1440 1.499 . S
C1438 H1418 0.950 . S
C1438 C1437 1.414 . S
C1438 C1439 1.374 . S
C1439 H1419 0.950 . S
C1439 C1435 1.385 . S
C1439 C1438 1.374 . S
C1440 C1437 1.499 . S
C1440 C1441 1.373 . S
C1440 C1442 1.389 . S
C1441 H1420 0.950 . S
C1441 C1440 1.373 . S
C1441 C1457 1.377 . S
C1442 C1440 1.389 . S
C1442 C1443 1.524 . S
C1442 C1456 1.377 . S
C1443 C1442 1.524 . S
C1443 C1444 1.397 . S
C1443 C1448 1.363 . S
C1444 H1421 0.950 . S
C1444 C1443 1.397 . S
C1444 C1445 1.334 . S
C1445 H1422 0.950 . S
C1445 C1444 1.334 . S
C1445 C1446 1.287 . S
C1446 C1445 1.287 . S
C1446 C1447 1.524 . S
C1446 H1465 0.913 . S
C1447 H1423 0.950 . S
C1447 C1446 1.524 . S
C1447 C1448 1.415 . S
C1448 H1424 0.950 . S
C1448 C1443 1.363 . S
C1448 C1447 1.415 . S
C1449 H1425 0.951 . S
C1449 C1450 1.366 . S
C1449 C1451 1.388 . S
C1450 C1449 1.366 . S
C1450 C1454 1.385 . S
C1451 H1426 0.951 . S
C1451 C1449 1.388 . S
C1451 C1452 1.366 . S
C1452 C1451 1.366 . S
C1452 C1453 1.414 . S
C1452 C1455 1.499 . S
C1453 H1427 0.950 . S
C1453 C1452 1.414 . S
C1453 C1454 1.374 . S
C1454 H1428 0.950 . S
C1454 C1450 1.385 . S
C1454 C1453 1.374 . S
C1455 C1452 1.499 . S
C1455 C1456 1.373 . S
C1455 C1457 1.389 . S
C1456 H1429 0.950 . S
C1456 C1442 1.377 . S
C1456 C1455 1.373 . S
C1457 C1441 1.377 . S
C1457 C1455 1.389 . S
C1457 C1458 1.524 . S
C1458 C1457 1.524 . S
C1458 C1459 1.397 . S
C1458 C1463 1.363 . S
C1459 H1430 0.950 . S
C1459 C1458 1.397 . S
C1459 C1460 1.334 . S
C1460 H1431 0.950 . S
C1460 C1459 1.334 . S
C1460 C1461 1.287 . S
C1461 C1460 1.287 . S
C1461 C1462 1.524 . S
C1461 H1464 0.999 . S
C1462 H1432 0.950 . S
C1462 C1461 1.524 . S
C1462 C1463 1.415 . S
C1463 H1433 0.950 . S
C1463 C1458 1.363 . S
C1463 C1462 1.415 . S
H1464 C1461 0.999 . S
H1465 C1446 0.913 . S
H1466 C1484 0.951 . S
H1467 C1486 0.951 . S
H1468 C1488 0.900 1_545 S
H1469 C1489 0.950 . S
H1470 C1491 0.950 . S
H1471 C1494 0.950 . S
H1472 C1495 0.956 . S
H1473 C1497 0.950 . S
H1474 C1498 0.950 . S
H1475 C1499 0.951 . S
H1476 C1501 0.951 . S
H1477 C1503 0.950 . S
H1478 C1504 0.950 . S
H1479 C1506 0.950 . S
H1480 C1509 0.950 . S
H1481 C1510 0.950 . S
H1482 C1512 0.950 . S
H1483 C1513 0.950 . S
C1484 H1466 0.951 . S
C1484 C1485 1.366 . S
C1484 C1486 1.388 . S
C1485 C1484 1.366 . S
C1485 C1489 1.385 . S
C1486 H1467 0.951 . S
C1486 C1484 1.388 . S
C1486 C1487 1.366 . S
C1487 C1486 1.366 . S
C1487 C1488 1.416 . S
C1487 C1490 1.499 1_565 S
C1488 H1468 0.900 1_565 S
C1488 C1487 1.416 . S
C1488 C1489 1.424 . S
C1489 H1469 0.950 . S
C1489 C1485 1.385 . S
C1489 C1488 1.424 . S
C1490 C1487 1.499 1_545 S
C1490 C1491 1.373 . S
C1490 C1492 1.389 . S
C1491 H1470 0.950 . S
C1491 C1490 1.373 . S
C1491 C1507 1.377 . S
C1492 C1490 1.389 . S
C1492 C1493 1.524 . S
C1492 C1506 1.377 . S
C1493 C1492 1.524 . S
C1493 C1494 1.397 . S
C1493 C1498 1.363 . S
C1494 H1471 0.950 . S
C1494 C1493 1.397 . S
C1494 C1495 1.322 1_545 S
C1495 H1472 0.956 . S
C1495 C1494 1.322 1_565 S
C1495 C1496 1.294 . S
C1496 C1495 1.294 . S
C1496 C1497 1.524 . S
C1496 H1515 0.913 . S
C1497 H1473 0.950 . S
C1497 C1496 1.524 . S
C1497 C1498 1.415 1_565 S
C1498 H1474 0.950 . S
C1498 C1493 1.363 . S
C1498 C1497 1.415 1_545 S
C1499 H1475 0.951 . S
C1499 C1500 1.366 . S
C1499 C1501 1.388 . S
C1500 C1499 1.366 . S
C1500 C1504 1.385 . S
C1501 H1476 0.951 . S
C1501 C1499 1.388 . S
C1501 C1502 1.366 . S
C1502 C1501 1.366 . S
C1502 C1503 1.414 . S
C1502 C1505 1.499 . S
C1503 H1477 0.950 . S
C1503 C1502 1.414 . S
C1503 C1504 1.374 . S
C1504 H1478 0.950 . S
C1504 C1500 1.385 . S
C1504 C1503 1.374 . S
C1505 C1502 1.499 . S
C1505 C1506 1.373 . S
C1505 C1507 1.389 . S
C1506 H1479 0.950 . S
C1506 C1492 1.377 . S
C1506 C1505 1.373 . S
C1507 C1491 1.377 . S
C1507 C1505 1.389 . S
C1507 C1508 1.524 . S
C1508 C1507 1.524 . S
C1508 C1509 1.397 . S
C1508 C1513 1.363 . S
C1509 H1480 0.950 . S
C1509 C1508 1.397 . S
C1509 C1510 1.334 . S
C1510 H1481 0.950 . S
C1510 C1509 1.334 . S
C1510 C1511 1.287 . S
C1511 C1510 1.287 . S
C1511 C1512 1.524 . S
C1511 H1514 0.999 . S
C1512 H1482 0.950 . S
C1512 C1511 1.524 . S
C1512 C1513 1.415 . S
C1513 H1483 0.950 . S
C1513 C1508 1.363 . S
C1513 C1512 1.415 . S
H1514 C1511 0.999 . S
H1515 C1496 0.913 . S
H1516 C1534 0.951 . S
H1517 C1536 0.951 . S
H1518 C1538 0.950 . S
H1519 C1539 0.950 . S
H1520 C1541 0.950 . S
H1521 C1544 0.950 . S
H1522 C1545 0.950 . S
H1523 C1547 0.950 . S
H1524 C1548 0.950 . S
H1525 C1549 0.951 . S
H1526 C1551 0.951 . S
H1527 C1553 0.950 . S
H1528 C1554 0.950 . S
H1529 C1556 0.950 . S
H1530 C1559 0.950 . S
H1531 C1560 0.950 . S
H1532 C1562 0.950 . S
H1533 C1563 0.950 . S
C1534 H1516 0.951 . S
C1534 C1535 1.366 . S
C1534 C1536 1.388 . S
C1535 C1534 1.366 . S
C1535 C1539 1.385 . S
C1536 H1517 0.951 . S
C1536 C1534 1.388 . S
C1536 C1537 1.366 . S
C1537 C1536 1.366 . S
C1537 C1538 1.414 . S
C1537 C1540 1.499 . S
C1538 H1518 0.950 . S
C1538 C1537 1.414 . S
C1538 C1539 1.374 . S
C1539 H1519 0.950 . S
C1539 C1535 1.385 . S
C1539 C1538 1.374 . S
C1540 C1537 1.499 . S
C1540 C1541 1.373 . S
C1540 C1542 1.389 . S
C1541 H1520 0.950 . S
C1541 C1540 1.373 . S
C1541 C1557 1.377 . S
C1542 C1540 1.389 . S
C1542 C1543 1.524 . S
C1542 C1556 1.377 . S
C1543 C1542 1.524 . S
C1543 C1544 1.397 . S
C1543 C1548 1.363 . S
C1544 H1521 0.950 . S
C1544 C1543 1.397 . S
C1544 C1545 1.334 . S
C1545 H1522 0.950 . S
C1545 C1544 1.334 . S
C1545 C1546 1.287 . S
C1546 C1545 1.287 . S
C1546 C1547 1.524 . S
C1546 H1565 0.913 . S
C1547 H1523 0.950 . S
C1547 C1546 1.524 . S
C1547 C1548 1.415 . S
C1548 H1524 0.950 . S
C1548 C1543 1.363 . S
C1548 C1547 1.415 . S
C1549 H1525 0.951 . S
C1549 C1550 1.366 . S
C1549 C1551 1.388 . S
C1550 C1549 1.366 . S
C1550 C1554 1.385 . S
C1551 H1526 0.951 . S
C1551 C1549 1.388 . S
C1551 C1552 1.366 . S
C1552 C1551 1.366 . S
C1552 C1553 1.414 . S
C1552 C1555 1.499 . S
C1553 H1527 0.950 . S
C1553 C1552 1.414 . S
C1553 C1554 1.374 . S
C1554 H1528 0.950 . S
C1554 C1550 1.385 . S
C1554 C1553 1.374 . S
C1555 C1552 1.499 . S
C1555 C1556 1.373 . S
C1555 C1557 1.389 . S
C1556 H1529 0.950 . S
C1556 C1542 1.377 . S
C1556 C1555 1.373 . S
C1557 C1541 1.377 . S
C1557 C1555 1.389 . S
C1557 C1558 1.524 . S
C1558 C1557 1.524 . S
C1558 C1559 1.397 . S
C1558 C1563 1.363 . S
C1559 H1530 0.950 . S
C1559 C1558 1.397 . S
C1559 C1560 1.334 . S
C1560 H1531 0.950 . S
C1560 C1559 1.334 . S
C1560 C1561 1.287 . S
C1561 C1560 1.287 . S
C1561 C1562 1.524 . S
C1561 H1564 0.999 . S
C1562 H1532 0.950 . S
C1562 C1561 1.524 . S
C1562 C1563 1.415 . S
C1563 H1533 0.950 . S
C1563 C1558 1.363 . S
C1563 C1562 1.415 . S
H1564 C1561 0.999 . S
H1565 C1546 0.913 . S
H1566 C1584 0.951 . S
H1567 C1586 0.951 . S
H1568 C1588 0.950 . S
H1569 C1589 0.950 . S
H1570 C1591 0.950 . S
H1571 C1594 0.950 . S
H1572 C1595 0.950 . S
H1573 C1597 0.950 . S
H1574 C1598 0.950 . S
H1575 C1599 0.951 . S
H1576 C1601 0.951 . S
H1577 C1603 0.950 . S
H1578 C1604 0.950 . S
H1579 C1606 0.950 . S
H1580 C1609 0.950 . S
H1581 C1610 0.950 . S
H1582 C1612 0.950 . S
H1583 C1613 0.950 . S
C1584 H1566 0.951 . S
C1584 C1585 1.366 . S
C1584 C1586 1.388 . S
C1585 C1584 1.366 . S
C1585 C1589 1.385 . S
C1586 H1567 0.951 . S
C1586 C1584 1.388 . S
C1586 C1587 1.366 . S
C1587 C1586 1.366 . S
C1587 C1588 1.414 . S
C1587 C1590 1.499 . S
C1588 H1568 0.950 . S
C1588 C1587 1.414 . S
C1588 C1589 1.374 . S
C1589 H1569 0.950 . S
C1589 C1585 1.385 . S
C1589 C1588 1.374 . S
C1590 C1587 1.499 . S
C1590 C1591 1.373 . S
C1590 C1592 1.389 . S
C1591 H1570 0.950 . S
C1591 C1590 1.373 . S
C1591 C1607 1.377 . S
C1592 C1590 1.389 . S
C1592 C1593 1.524 . S
C1592 C1606 1.377 . S
C1593 C1592 1.524 . S
C1593 C1594 1.397 . S
C1593 C1598 1.363 . S
C1594 H1571 0.950 . S
C1594 C1593 1.397 . S
C1594 C1595 1.334 . S
C1595 H1572 0.950 . S
C1595 C1594 1.334 . S
C1595 C1596 1.287 . S
C1596 C1595 1.287 . S
C1596 C1597 1.524 . S
C1596 H1615 0.913 . S
C1597 H1573 0.950 . S
C1597 C1596 1.524 . S
C1597 C1598 1.415 . S
C1598 H1574 0.950 . S
C1598 C1593 1.363 . S
C1598 C1597 1.415 . S
C1599 H1575 0.951 . S
C1599 C1600 1.366 . S
C1599 C1601 1.388 . S
C1600 C1599 1.366 . S
C1600 C1604 1.385 . S
C1601 H1576 0.951 . S
C1601 C1599 1.388 . S
C1601 C1602 1.366 . S
C1602 C1601 1.366 . S
C1602 C1603 1.414 . S
C1602 C1605 1.499 . S
C1603 H1577 0.950 . S
C1603 C1602 1.414 . S
C1603 C1604 1.374 . S
C1604 H1578 0.950 . S
C1604 C1600 1.385 . S
C1604 C1603 1.374 . S
C1605 C1602 1.499 . S
C1605 C1606 1.373 . S
C1605 C1607 1.389 . S
C1606 H1579 0.950 . S
C1606 C1592 1.377 . S
C1606 C1605 1.373 . S
C1607 C1591 1.377 . S
C1607 C1605 1.389 . S
C1607 C1608 1.524 . S
C1608 C1607 1.524 . S
C1608 C1609 1.397 . S
C1608 C1613 1.363 . S
C1609 H1580 0.950 . S
C1609 C1608 1.397 . S
C1609 C1610 1.334 . S
C1610 H1581 0.950 . S
C1610 C1609 1.334 . S
C1610 C1611 1.287 . S
C1611 C1610 1.287 . S
C1611 C1612 1.524 . S
C1611 H1614 0.999 . S
C1612 H1582 0.950 . S
C1612 C1611 1.524 . S
C1612 C1613 1.415 . S
C1613 H1583 0.950 . S
C1613 C1608 1.363 . S
C1613 C1612 1.415 . S
H1614 C1611 0.999 . S
H1615 C1596 0.913 . S
H1616 C1634 0.951 . S
H1617 C1636 0.951 . S
H1618 C1638 0.950 . S
H1619 C1639 0.950 . S
H1620 C1641 0.950 . S
H1621 C1644 0.950 . S
H1622 C1645 0.950 . S
H1623 C1647 0.950 . S
H1624 C1648 0.950 . S
H1625 C1649 0.951 . S
H1626 C1651 0.951 . S
H1627 C1653 0.950 . S
H1628 C1654 0.950 . S
H1629 C1656 0.950 . S
H1630 C1659 0.950 . S
H1631 C1660 0.950 . S
H1632 C1662 0.950 . S
H1633 C1663 0.950 . S
C1634 H1616 0.951 . S
C1634 C1635 1.366 . S
C1634 C1636 1.388 . S
C1635 C1634 1.366 . S
C1635 C1639 1.385 . S
C1636 H1617 0.951 . S
C1636 C1634 1.388 . S
C1636 C1637 1.366 . S
C1637 C1636 1.366 . S
C1637 C1638 1.414 . S
C1637 C1640 1.499 . S
C1638 H1618 0.950 . S
C1638 C1637 1.414 . S
C1638 C1639 1.374 . S
C1639 H1619 0.950 . S
C1639 C1635 1.385 . S
C1639 C1638 1.374 . S
C1640 C1637 1.499 . S
C1640 C1641 1.373 . S
C1640 C1642 1.389 . S
C1641 H1620 0.950 . S
C1641 C1640 1.373 . S
C1641 C1657 1.377 . S
C1642 C1640 1.389 . S
C1642 C1643 1.524 . S
C1642 C1656 1.377 . S
C1643 C1642 1.524 . S
C1643 C1644 1.397 . S
C1643 C1648 1.363 . S
C1644 H1621 0.950 . S
C1644 C1643 1.397 . S
C1644 C1645 1.334 . S
C1645 H1622 0.950 . S
C1645 C1644 1.334 . S
C1645 C1646 1.287 . S
C1646 C1645 1.287 . S
C1646 C1647 1.524 . S
C1646 H1665 0.913 . S
C1647 H1623 0.950 . S
C1647 C1646 1.524 . S
C1647 C1648 1.415 . S
C1648 H1624 0.950 . S
C1648 C1643 1.363 . S
C1648 C1647 1.415 . S
C1649 H1625 0.951 . S
C1649 C1650 1.366 . S
C1649 C1651 1.388 . S
C1650 C1649 1.366 . S
C1650 C1654 1.385 . S
C1651 H1626 0.951 . S
C1651 C1649 1.388 . S
C1651 C1652 1.366 . S
C1652 C1651 1.366 . S
C1652 C1653 1.414 . S
C1652 C1655 1.499 . S
C1653 H1627 0.950 . S
C1653 C1652 1.414 . S
C1653 C1654 1.374 . S
C1654 H1628 0.950 . S
C1654 C1650 1.385 . S
C1654 C1653 1.374 . S
C1655 C1652 1.499 . S
C1655 C1656 1.373 . S
C1655 C1657 1.389 . S
C1656 H1629 0.950 . S
C1656 C1642 1.377 . S
C1656 C1655 1.373 . S
C1657 C1641 1.377 . S
C1657 C1655 1.389 . S
C1657 C1658 1.524 . S
C1658 C1657 1.524 . S
C1658 C1659 1.397 . S
C1658 C1663 1.363 . S
C1659 H1630 0.950 . S
C1659 C1658 1.397 . S
C1659 C1660 1.334 . S
C1660 H1631 0.950 . S
C1660 C1659 1.334 . S
C1660 C1661 1.287 . S
C1661 C1660 1.287 . S
C1661 C1662 1.524 . S
C1661 H1664 0.999 . S
C1662 H1632 0.950 . S
C1662 C1661 1.524 . S
C1662 C1663 1.415 . S
C1663 H1633 0.950 . S
C1663 C1658 1.363 . S
C1663 C1662 1.415 . S
H1664 C1661 0.999 . S
H1665 C1646 0.913 . S
H1666 C1684 0.951 . S
H1667 C1686 0.951 . S
H1668 C1688 0.950 . S
H1669 C1689 0.950 . S
H1670 C1691 0.950 . S
H1671 C1694 0.950 . S
H1672 C1695 0.950 . S
H1673 C1697 0.950 . S
H1674 C1698 0.950 . S
H1675 C1699 0.951 . S
H1676 C1701 0.951 . S
H1677 C1703 0.950 . S
H1678 C1704 0.950 . S
H1679 C1706 0.950 . S
H1680 C1709 0.950 . S
H1681 C1710 0.950 . S
H1682 C1712 0.950 . S
H1683 C1713 0.950 . S
C1684 H1666 0.951 . S
C1684 C1685 1.366 . S
C1684 C1686 1.388 . S
C1685 C1684 1.366 . S
C1685 C1689 1.385 . S
C1686 H1667 0.951 . S
C1686 C1684 1.388 . S
C1686 C1687 1.366 . S
C1687 C1686 1.366 . S
C1687 C1688 1.414 . S
C1687 C1690 1.499 . S
C1688 H1668 0.950 . S
C1688 C1687 1.414 . S
C1688 C1689 1.374 . S
C1689 H1669 0.950 . S
C1689 C1685 1.385 . S
C1689 C1688 1.374 . S
C1690 C1687 1.499 . S
C1690 C1691 1.373 . S
C1690 C1692 1.389 . S
C1691 H1670 0.950 . S
C1691 C1690 1.373 . S
C1691 C1707 1.377 . S
C1692 C1690 1.389 . S
C1692 C1693 1.524 . S
C1692 C1706 1.377 . S
C1693 C1692 1.524 . S
C1693 C1694 1.397 . S
C1693 C1698 1.363 . S
C1694 H1671 0.950 . S
C1694 C1693 1.397 . S
C1694 C1695 1.334 . S
C1695 H1672 0.950 . S
C1695 C1694 1.334 . S
C1695 C1696 1.287 . S
C1696 C1695 1.287 . S
C1696 C1697 1.524 . S
C1696 H1715 0.913 . S
C1697 H1673 0.950 . S
C1697 C1696 1.524 . S
C1697 C1698 1.415 . S
C1698 H1674 0.950 . S
C1698 C1693 1.363 . S
C1698 C1697 1.415 . S
C1699 H1675 0.951 . S
C1699 C1700 1.366 . S
C1699 C1701 1.388 . S
C1700 C1699 1.366 . S
C1700 C1704 1.385 . S
C1701 H1676 0.951 . S
C1701 C1699 1.388 . S
C1701 C1702 1.366 . S
C1702 C1701 1.366 . S
C1702 C1703 1.414 . S
C1702 C1705 1.499 . S
C1703 H1677 0.950 . S
C1703 C1702 1.414 . S
C1703 C1704 1.374 . S
C1704 H1678 0.950 . S
C1704 C1700 1.385 . S
C1704 C1703 1.374 . S
C1705 C1702 1.499 . S
C1705 C1706 1.373 . S
C1705 C1707 1.389 . S
C1706 H1679 0.950 . S
C1706 C1692 1.377 . S
C1706 C1705 1.373 . S
C1707 C1691 1.377 . S
C1707 C1705 1.389 . S
C1707 C1708 1.524 . S
C1708 C1707 1.524 . S
C1708 C1709 1.397 . S
C1708 C1713 1.363 . S
C1709 H1680 0.950 . S
C1709 C1708 1.397 . S
C1709 C1710 1.334 . S
C1710 H1681 0.950 . S
C1710 C1709 1.334 . S
C1710 C1711 1.287 . S
C1711 C1710 1.287 . S
C1711 C1712 1.524 . S
C1711 H1714 0.999 . S
C1712 H1682 0.950 . S
C1712 C1711 1.524 . S
C1712 C1713 1.415 . S
C1713 H1683 0.950 . S
C1713 C1708 1.363 . S
C1713 C1712 1.415 . S
H1714 C1711 0.999 . S
H1715 C1696 0.913 . S
H1716 C1734 0.951 . S
H1717 C1736 0.951 . S
H1718 C1738 0.950 . S
H1719 C1739 0.950 . S
H1720 C1741 0.950 . S
H1721 C1744 0.950 . S
H1722 C1745 0.950 . S
H1723 C1747 0.950 . S
H1724 C1748 0.950 . S
H1725 C1749 0.951 . S
H1726 C1751 0.951 . S
H1727 C1753 0.950 . S
H1728 C1754 0.950 . S
H1729 C1756 0.950 . S
H1730 C1759 0.950 . S
H1731 C1760 0.950 . S
H1732 C1762 0.950 . S
H1733 C1763 0.950 . S
C1734 H1716 0.951 . S
C1734 C1735 1.366 . S
C1734 C1736 1.388 . S
C1735 C1734 1.366 . S
C1735 C1739 1.385 . S
C1736 H1717 0.951 . S
C1736 C1734 1.388 . S
C1736 C1737 1.366 . S
C1737 C1736 1.366 . S
C1737 C1738 1.414 . S
C1737 C1740 1.499 . S
C1738 H1718 0.950 . S
C1738 C1737 1.414 . S
C1738 C1739 1.374 . S
C1739 H1719 0.950 . S
C1739 C1735 1.385 . S
C1739 C1738 1.374 . S
C1740 C1737 1.499 . S
C1740 C1741 1.373 . S
C1740 C1742 1.389 . S
C1741 H1720 0.950 . S
C1741 C1740 1.373 . S
C1741 C1757 1.377 . S
C1742 C1740 1.389 . S
C1742 C1743 1.524 . S
C1742 C1756 1.377 . S
C1743 C1742 1.524 . S
C1743 C1744 1.397 . S
C1743 C1748 1.363 . S
C1744 H1721 0.950 . S
C1744 C1743 1.397 . S
C1744 C1745 1.334 . S
C1745 H1722 0.950 . S
C1745 C1744 1.334 . S
C1745 C1746 1.287 . S
C1746 C1745 1.287 . S
C1746 C1747 1.524 . S
C1746 H1765 0.913 . S
C1747 H1723 0.950 . S
C1747 C1746 1.524 . S
C1747 C1748 1.415 . S
C1748 H1724 0.950 . S
C1748 C1743 1.363 . S
C1748 C1747 1.415 . S
C1749 H1725 0.951 . S
C1749 C1750 1.366 . S
C1749 C1751 1.388 . S
C1750 C1749 1.366 . S
C1750 C1754 1.385 . S
C1751 H1726 0.951 . S
C1751 C1749 1.388 . S
C1751 C1752 1.366 . S
C1752 C1751 1.366 . S
C1752 C1753 1.414 . S
C1752 C1755 1.499 . S
C1753 H1727 0.950 . S
C1753 C1752 1.414 . S
C1753 C1754 1.374 . S
C1754 H1728 0.950 . S
C1754 C1750 1.385 . S
C1754 C1753 1.374 . S
C1755 C1752 1.499 . S
C1755 C1756 1.373 . S
C1755 C1757 1.389 . S
C1756 H1729 0.950 . S
C1756 C1742 1.377 . S
C1756 C1755 1.373 . S
C1757 C1741 1.377 . S
C1757 C1755 1.389 . S
C1757 C1758 1.524 . S
C1758 C1757 1.524 . S
C1758 C1759 1.397 . S
C1758 C1763 1.363 . S
C1759 H1730 0.950 . S
C1759 C1758 1.397 . S
C1759 C1760 1.334 . S
C1760 H1731 0.950 . S
C1760 C1759 1.334 . S
C1760 C1761 1.287 . S
C1761 C1760 1.287 . S
C1761 C1762 1.524 . S
C1761 H1764 0.999 . S
C1762 H1732 0.950 . S
C1762 C1761 1.524 . S
C1762 C1763 1.415 . S
C1763 H1733 0.950 . S
C1763 C1758 1.363 . S
C1763 C1762 1.415 . S
H1764 C1761 0.999 . S
H1765 C1746 0.913 . S
H1766 C1784 0.951 . S
H1767 C1786 0.951 . S
H1768 C1788 0.950 . S
H1769 C1789 0.950 . S
H1770 C1791 0.950 . S
H1771 C1794 0.950 . S
H1772 C1795 0.950 . S
H1773 C1797 0.950 . S
H1774 C1798 0.950 . S
H1775 C1799 0.951 . S
H1776 C1801 0.951 . S
H1777 C1803 0.950 . S
H1778 C1804 0.950 . S
H1779 C1806 0.950 . S
H1780 C1809 0.950 . S
H1781 C1810 0.950 . S
H1782 C1812 0.950 . S
H1783 C1813 0.950 . S
C1784 H1766 0.951 . S
C1784 C1785 1.366 . S
C1784 C1786 1.388 . S
C1785 C1784 1.366 . S
C1785 C1789 1.385 . S
C1786 H1767 0.951 . S
C1786 C1784 1.388 . S
C1786 C1787 1.366 . S
C1787 C1786 1.366 . S
C1787 C1788 1.414 . S
C1787 C1790 1.499 . S
C1788 H1768 0.950 . S
C1788 C1787 1.414 . S
C1788 C1789 1.374 . S
C1789 H1769 0.950 . S
C1789 C1785 1.385 . S
C1789 C1788 1.374 . S
C1790 C1787 1.499 . S
C1790 C1791 1.373 . S
C1790 C1792 1.389 . S
C1791 H1770 0.950 . S
C1791 C1790 1.373 . S
C1791 C1807 1.377 . S
C1792 C1790 1.389 . S
C1792 C1793 1.524 . S
C1792 C1806 1.377 . S
C1793 C1792 1.524 . S
C1793 C1794 1.397 . S
C1793 C1798 1.363 . S
C1794 H1771 0.950 . S
C1794 C1793 1.397 . S
C1794 C1795 1.334 . S
C1795 H1772 0.950 . S
C1795 C1794 1.334 . S
C1795 C1796 1.287 . S
C1796 C1795 1.287 . S
C1796 C1797 1.524 . S
C1796 H1815 0.913 . S
C1797 H1773 0.950 . S
C1797 C1796 1.524 . S
C1797 C1798 1.415 . S
C1798 H1774 0.950 . S
C1798 C1793 1.363 . S
C1798 C1797 1.415 . S
C1799 H1775 0.951 . S
C1799 C1800 1.366 . S
C1799 C1801 1.388 . S
C1800 C1799 1.366 . S
C1800 C1804 1.385 . S
C1801 H1776 0.951 . S
C1801 C1799 1.388 . S
C1801 C1802 1.366 . S
C1802 C1801 1.366 . S
C1802 C1803 1.414 . S
C1802 C1805 1.499 . S
C1803 H1777 0.950 . S
C1803 C1802 1.414 . S
C1803 C1804 1.374 . S
C1804 H1778 0.950 . S
C1804 C1800 1.385 . S
C1804 C1803 1.374 . S
C1805 C1802 1.499 . S
C1805 C1806 1.373 . S
C1805 C1807 1.389 . S
C1806 H1779 0.950 . S
C1806 C1792 1.377 . S
C1806 C1805 1.373 . S
C1807 C1791 1.377 . S
C1807 C1805 1.389 . S
C1807 C1808 1.524 . S
C1808 C1807 1.524 . S
C1808 C1809 1.397 . S
C1808 C1813 1.363 . S
C1809 H1780 0.950 . S
C1809 C1808 1.397 . S
C1809 C1810 1.334 . S
C1810 H1781 0.950 . S
C1810 C1809 1.334 . S
C1810 C1811 1.287 . S
C1811 C1810 1.287 . S
C1811 C1812 1.524 . S
C1811 H1814 0.999 . S
C1812 H1782 0.950 . S
C1812 C1811 1.524 . S
C1812 C1813 1.415 . S
C1813 H1783 0.950 . S
C1813 C1808 1.363 . S
C1813 C1812 1.415 . S
H1814 C1811 0.999 . S
H1815 C1796 0.913 . S
H1816 C1834 0.951 . S
H1817 C1836 0.951 . S
H1818 C1838 0.950 . S
H1819 C1839 0.950 . S
H1820 C1841 0.950 . S
H1821 C1844 0.950 . S
H1822 C1845 0.950 . S
H1823 C1847 0.950 1_554 S
H1824 C1848 0.950 . S
H1825 C1849 0.951 . S
H1826 C1851 0.951 . S
H1827 C1853 0.950 . S
H1828 C1854 0.950 . S
H1829 C1856 0.950 . S
H1830 C1859 0.950 . S
H1831 C1860 0.950 . S
H1832 C1862 0.950 . S
H1833 C1863 0.950 . S
C1834 H1816 0.951 . S
C1834 C1835 1.366 . S
C1834 C1836 1.388 . S
C1835 C1834 1.366 . S
C1835 C1839 1.385 . S
C1836 H1817 0.951 . S
C1836 C1834 1.388 . S
C1836 C1837 1.366 . S
C1837 C1836 1.366 . S
C1837 C1838 1.414 . S
C1837 C1840 1.499 . S
C1838 H1818 0.950 . S
C1838 C1837 1.414 . S
C1838 C1839 1.374 . S
C1839 H1819 0.950 . S
C1839 C1835 1.385 . S
C1839 C1838 1.374 . S
C1840 C1837 1.499 . S
C1840 C1841 1.373 . S
C1840 C1842 1.389 . S
C1841 H1820 0.950 . S
C1841 C1840 1.373 . S
C1841 C1857 1.377 . S
C1842 C1840 1.389 . S
C1842 C1843 1.524 . S
C1842 C1856 1.377 . S
C1843 C1842 1.524 . S
C1843 C1844 1.397 . S
C1843 C1848 1.363 . S
C1844 H1821 0.950 . S
C1844 C1843 1.397 . S
C1844 C1845 1.334 . S
C1845 H1822 0.950 . S
C1845 C1844 1.334 . S
C1845 C1846 1.287 . S
C1846 C1845 1.287 . S
C1846 C1847 1.524 . S
C1846 H1865 0.913 1_556 S
C1847 H1823 0.950 1_556 S
C1847 C1846 1.524 . S
C1847 C1848 1.415 . S
C1848 H1824 0.950 . S
C1848 C1843 1.363 . S
C1848 C1847 1.415 . S
C1849 H1825 0.951 . S
C1849 C1850 1.366 . S
C1849 C1851 1.388 . S
C1850 C1849 1.366 . S
C1850 C1854 1.385 . S
C1851 H1826 0.951 . S
C1851 C1849 1.388 . S
C1851 C1852 1.366 . S
C1852 C1851 1.366 . S
C1852 C1853 1.414 . S
C1852 C1855 1.499 . S
C1853 H1827 0.950 . S
C1853 C1852 1.414 . S
C1853 C1854 1.374 . S
C1854 H1828 0.950 . S
C1854 C1850 1.385 . S
C1854 C1853 1.374 . S
C1855 C1852 1.499 . S
C1855 C1856 1.373 . S
C1855 C1857 1.389 . S
C1856 H1829 0.950 . S
C1856 C1842 1.377 . S
C1856 C1855 1.373 . S
C1857 C1841 1.377 . S
C1857 C1855 1.389 . S
C1857 C1858 1.524 . S
C1858 C1857 1.524 . S
C1858 C1859 1.397 . S
C1858 C1863 1.363 . S
C1859 H1830 0.950 . S
C1859 C1858 1.397 . S
C1859 C1860 1.334 . S
C1860 H1831 0.950 . S
C1860 C1859 1.334 . S
C1860 C1861 1.287 . S
C1861 C1860 1.287 . S
C1861 C1862 1.524 . S
C1861 H1864 0.999 . S
C1862 H1832 0.950 . S
C1862 C1861 1.524 . S
C1862 C1863 1.415 . S
C1863 H1833 0.950 . S
C1863 C1858 1.363 . S
C1863 C1862 1.415 . S
H1864 C1861 0.999 . S
H1865 C1846 0.913 1_554 S
H1866 C1884 0.951 . S
H1867 C1886 0.951 . S
H1868 C1888 0.950 . S
H1869 C1889 0.950 . S
H1870 C1891 0.950 . S
H1871 C1894 0.950 . S
H1872 C1895 0.950 . S
H1873 C1897 0.950 . S
H1874 C1898 0.950 . S
H1875 C1899 0.951 . S
H1876 C1901 0.951 . S
H1877 C1903 0.950 . S
H1878 C1904 0.950 . S
H1879 C1906 0.950 . S
H1880 C1909 0.950 . S
H1881 C1910 0.950 . S
H1882 C1912 0.950 . S
H1883 C1913 0.950 . S
C1884 H1866 0.951 . S
C1884 C1885 1.366 . S
C1884 C1886 1.388 . S
C1885 C1884 1.366 . S
C1885 C1889 1.385 . S
C1886 H1867 0.951 . S
C1886 C1884 1.388 . S
C1886 C1887 1.366 . S
C1887 C1886 1.366 . S
C1887 C1888 1.414 . S
C1887 C1890 1.499 . S
C1888 H1868 0.950 . S
C1888 C1887 1.414 . S
C1888 C1889 1.374 . S
C1889 H1869 0.950 . S
C1889 C1885 1.385 . S
C1889 C1888 1.374 . S
C1890 C1887 1.499 . S
C1890 C1891 1.373 . S
C1890 C1892 1.389 . S
C1891 H1870 0.950 . S
C1891 C1890 1.373 . S
C1891 C1907 1.377 . S
C1892 C1890 1.389 . S
C1892 C1893 1.524 . S
C1892 C1906 1.377 . S
C1893 C1892 1.524 . S
C1893 C1894 1.397 . S
C1893 C1898 1.363 . S
C1894 H1871 0.950 . S
C1894 C1893 1.397 . S
C1894 C1895 1.334 . S
C1895 H1872 0.950 . S
C1895 C1894 1.334 . S
C1895 C1896 1.287 . S
C1896 C1895 1.287 . S
C1896 C1897 1.524 . S
C1896 H1915 0.913 . S
C1897 H1873 0.950 . S
C1897 C1896 1.524 . S
C1897 C1898 1.415 . S
C1898 H1874 0.950 . S
C1898 C1893 1.363 . S
C1898 C1897 1.415 . S
C1899 H1875 0.951 . S
C1899 C1900 1.366 . S
C1899 C1901 1.388 . S
C1900 C1899 1.366 . S
C1900 C1904 1.385 . S
C1901 H1876 0.951 . S
C1901 C1899 1.388 . S
C1901 C1902 1.366 . S
C1902 C1901 1.366 . S
C1902 C1903 1.414 . S
C1902 C1905 1.499 . S
C1903 H1877 0.950 . S
C1903 C1902 1.414 . S
C1903 C1904 1.374 . S
C1904 H1878 0.950 . S
C1904 C1900 1.385 . S
C1904 C1903 1.374 . S
C1905 C1902 1.499 . S
C1905 C1906 1.373 . S
C1905 C1907 1.389 . S
C1906 H1879 0.950 . S
C1906 C1892 1.377 . S
C1906 C1905 1.373 . S
C1907 C1891 1.377 . S
C1907 C1905 1.389 . S
C1907 C1908 1.524 . S
C1908 C1907 1.524 . S
C1908 C1909 1.397 . S
C1908 C1913 1.363 . S
C1909 H1880 0.950 . S
C1909 C1908 1.397 . S
C1909 C1910 1.334 . S
C1910 H1881 0.950 . S
C1910 C1909 1.334 . S
C1910 C1911 1.287 . S
C1911 C1910 1.287 . S
C1911 C1912 1.524 . S
C1911 H1914 0.999 . S
C1912 H1882 0.950 . S
C1912 C1911 1.524 . S
C1912 C1913 1.415 . S
C1913 H1883 0.950 . S
C1913 C1908 1.363 . S
C1913 C1912 1.415 . S
H1914 C1911 0.999 . S
H1915 C1896 0.913 . S
H1916 C1934 0.951 . S
H1917 C1936 0.951 . S
H1918 C1938 0.950 . S
H1919 C1939 0.950 . S
H1920 C1941 0.950 . S
H1921 C1944 0.950 . S
H1922 C1945 0.950 . S
H1923 C1947 0.950 . S
H1924 C1948 0.950 . S
H1925 C1949 0.951 . S
H1926 C1951 0.951 . S
H1927 C1953 0.950 . S
H1928 C1954 0.950 . S
H1929 C1956 0.950 . S
H1930 C1959 0.950 . S
H1931 C1960 0.950 . S
H1932 C1962 0.950 . S
H1933 C1963 0.950 . S
C1934 H1916 0.951 . S
C1934 C1935 1.366 . S
C1934 C1936 1.388 . S
C1935 C1934 1.366 . S
C1935 C1939 1.385 . S
C1936 H1917 0.951 . S
C1936 C1934 1.388 . S
C1936 C1937 1.366 . S
C1937 C1936 1.366 . S
C1937 C1938 1.414 . S
C1937 C1940 1.499 . S
C1938 H1918 0.950 . S
C1938 C1937 1.414 . S
C1938 C1939 1.374 . S
C1939 H1919 0.950 . S
C1939 C1935 1.385 . S
C1939 C1938 1.374 . S
C1940 C1937 1.499 . S
C1940 C1941 1.373 . S
C1940 C1942 1.389 . S
C1941 H1920 0.950 . S
C1941 C1940 1.373 . S
C1941 C1957 1.377 . S
C1942 C1940 1.389 . S
C1942 C1943 1.524 . S
C1942 C1956 1.377 . S
C1943 C1942 1.524 . S
C1943 C1944 1.397 . S
C1943 C1948 1.363 . S
C1944 H1921 0.950 . S
C1944 C1943 1.397 . S
C1944 C1945 1.334 . S
C1945 H1922 0.950 . S
C1945 C1944 1.334 . S
C1945 C1946 1.287 . S
C1946 C1945 1.287 . S
C1946 C1947 1.524 . S
C1946 H1965 0.913 . S
C1947 H1923 0.950 . S
C1947 C1946 1.524 . S
C1947 C1948 1.415 . S
C1948 H1924 0.950 . S
C1948 C1943 1.363 . S
C1948 C1947 1.415 . S
C1949 H1925 0.951 . S
C1949 C1950 1.366 . S
C1949 C1951 1.388 . S
C1950 C1949 1.366 . S
C1950 C1954 1.385 . S
C1951 H1926 0.951 . S
C1951 C1949 1.388 . S
C1951 C1952 1.366 . S
C1952 C1951 1.366 . S
C1952 C1953 1.414 . S
C1952 C1955 1.499 . S
C1953 H1927 0.950 . S
C1953 C1952 1.414 . S
C1953 C1954 1.374 . S
C1954 H1928 0.950 . S
C1954 C1950 1.385 . S
C1954 C1953 1.374 . S
C1955 C1952 1.499 . S
C1955 C1956 1.373 . S
C1955 C1957 1.389 . S
C1956 H1929 0.950 . S
C1956 C1942 1.377 . S
C1956 C1955 1.373 . S
C1957 C1941 1.377 . S
C1957 C1955 1.389 . S
C1957 C1958 1.524 . S
C1958 C1957 1.524 . S
C1958 C1959 1.397 . S
C1958 C1963 1.363 . S
C1959 H1930 0.950 . S
C1959 C1958 1.397 . S
C1959 C1960 1.334 . S
C1960 H1931 0.950 . S
C1960 C1959 1.334 . S
C1960 C1961 1.287 . S
C1961 C1960 1.287 . S
C1961 C1962 1.524 . S
C1961 H1964 0.999 . S
C1962 H1932 0.950 . S
C1962 C1961 1.524 . S
C1962 C1963 1.415 . S
C1963 H1933 0.950 . S
C1963 C1958 1.363 . S
C1963 C1962 1.415 . S
H1964 C1961 0.999 . S
H1965 C1946 0.913 . S
H1966 C1984 0.951 . S
H1967 C1986 0.951 . S
H1968 C1988 0.950 . S
H1969 C1989 0.950 . S
H1970 C1991 0.950 . S
H1971 C1994 0.950 . S
H1972 C1995 0.950 . S
H1973 C1997 0.950 . S
H1974 C1998 0.950 . S
H1975 C1999 0.951 . S
H1976 C2001 0.951 . S
H1977 C2003 0.950 . S
H1978 C2004 0.950 . S
H1979 C2006 0.950 . S
H1980 C2009 0.950 . S
H1981 C2010 0.950 . S
H1982 C2012 0.950 . S
H1983 C2013 0.950 . S
C1984 H1966 0.951 . S
C1984 C1985 1.366 . S
C1984 C1986 1.388 . S
C1985 C1984 1.366 . S
C1985 C1989 1.385 . S
C1986 H1967 0.951 . S
C1986 C1984 1.388 . S
C1986 C1987 1.366 . S
C1987 C1986 1.366 . S
C1987 C1988 1.414 . S
C1987 C1990 1.499 . S
C1988 H1968 0.950 . S
C1988 C1987 1.414 . S
C1988 C1989 1.374 . S
C1989 H1969 0.950 . S
C1989 C1985 1.385 . S
C1989 C1988 1.374 . S
C1990 C1987 1.499 . S
C1990 C1991 1.373 . S
C1990 C1992 1.389 1_556 S
C1991 H1970 0.950 . S
C1991 C1990 1.373 . S
C1991 C2007 1.377 . S
C1992 C1990 1.389 1_554 S
C1992 C1993 1.524 . S
C1992 C2006 1.377 . S
C1993 C1992 1.524 . S
C1993 C1994 1.397 . S
C1993 C1998 1.363 . S
C1994 H1971 0.950 . S
C1994 C1993 1.397 . S
C1994 C1995 1.334 . S
C1995 H1972 0.950 . S
C1995 C1994 1.334 . S
C1995 C1996 1.287 . S
C1996 C1995 1.287 . S
C1996 C1997 1.524 . S
C1996 H2015 0.913 . S
C1997 H1973 0.950 . S
C1997 C1996 1.524 . S
C1997 C1998 1.415 . S
C1998 H1974 0.950 . S
C1998 C1993 1.363 . S
C1998 C1997 1.415 . S
C1999 H1975 0.951 . S
C1999 C2000 1.366 . S
C1999 C2001 1.388 . S
C2000 C1999 1.366 . S
C2000 C2004 1.385 . S
C2001 H1976 0.951 . S
C2001 C1999 1.388 . S
C2001 C2002 1.366 . S
C2002 C2001 1.366 . S
C2002 C2003 1.414 . S
C2002 C2005 1.499 . S
C2003 H1977 0.950 . S
C2003 C2002 1.414 . S
C2003 C2004 1.374 . S
C2004 H1978 0.950 . S
C2004 C2000 1.385 . S
C2004 C2003 1.374 . S
C2005 C2002 1.499 . S
C2005 C2006 1.373 . S
C2005 C2007 1.389 1_554 S
C2006 H1979 0.950 . S
C2006 C1992 1.377 . S
C2006 C2005 1.373 . S
C2007 C1991 1.377 . S
C2007 C2005 1.389 1_556 S
C2007 C2008 1.524 . S
C2008 C2007 1.524 . S
C2008 C2009 1.397 . S
C2008 C2013 1.363 . S
C2009 H1980 0.950 . S
C2009 C2008 1.397 . S
C2009 C2010 1.334 . S
C2010 H1981 0.950 . S
C2010 C2009 1.334 . S
C2010 C2011 1.287 . S
C2011 C2010 1.287 . S
C2011 C2012 1.524 . S
C2011 H2014 0.999 . S
C2012 H1982 0.950 . S
C2012 C2011 1.524 . S
C2012 C2013 1.415 . S
C2013 H1983 0.950 . S
C2013 C2008 1.363 . S
C2013 C2012 1.415 . S
H2014 C2011 0.999 . S
H2015 C1996 0.913 . S
H2016 C2034 0.951 . S
H2017 C2036 0.951 . S
H2018 C2038 0.950 . S
H2019 C2039 0.950 . S
H2020 C2041 0.950 . S
H2021 C2044 0.950 . S
H2022 C2045 0.950 . S
H2023 C2047 0.950 . S
H2024 C2048 0.950 . S
H2025 C2049 0.951 . S
H2026 C2051 0.951 . S
H2027 C2053 0.950 . S
H2028 C2054 0.950 . S
H2029 C2056 0.950 . S
H2030 C2059 0.950 . S
H2031 C2060 0.950 . S
H2032 C2062 0.950 . S
H2033 C2063 0.950 . S
C2034 H2016 0.951 . S
C2034 C2035 1.366 . S
C2034 C2036 1.388 . S
C2035 C2034 1.366 . S
C2035 C2039 1.385 . S
C2036 H2017 0.951 . S
C2036 C2034 1.388 . S
C2036 C2037 1.366 . S
C2037 C2036 1.366 . S
C2037 C2038 1.414 . S
C2037 C2040 1.499 . S
C2038 H2018 0.950 . S
C2038 C2037 1.414 . S
C2038 C2039 1.374 . S
C2039 H2019 0.950 . S
C2039 C2035 1.385 . S
C2039 C2038 1.374 . S
C2040 C2037 1.499 . S
C2040 C2041 1.373 . S
C2040 C2042 1.389 . S
C2041 H2020 0.950 . S
C2041 C2040 1.373 . S
C2041 C2057 1.377 . S
C2042 C2040 1.389 . S
C2042 C2043 1.524 . S
C2042 C2056 1.377 . S
C2043 C2042 1.524 . S
C2043 C2044 1.397 . S
C2043 C2048 1.363 . S
C2044 H2021 0.950 . S
C2044 C2043 1.397 . S
C2044 C2045 1.334 . S
C2045 H2022 0.950 . S
C2045 C2044 1.334 . S
C2045 C2046 1.287 . S
C2046 C2045 1.287 . S
C2046 C2047 1.524 . S
C2046 H2065 0.913 . S
C2047 H2023 0.950 . S
C2047 C2046 1.524 . S
C2047 C2048 1.415 . S
C2048 H2024 0.950 . S
C2048 C2043 1.363 . S
C2048 C2047 1.415 . S
C2049 H2025 0.951 . S
C2049 C2050 1.366 . S
C2049 C2051 1.388 . S
C2050 C2049 1.366 . S
C2050 C2054 1.385 . S
C2051 H2026 0.951 . S
C2051 C2049 1.388 . S
C2051 C2052 1.366 . S
C2052 C2051 1.366 . S
C2052 C2053 1.414 . S
C2052 C2055 1.499 . S
C2053 H2027 0.950 . S
C2053 C2052 1.414 . S
C2053 C2054 1.374 . S
C2054 H2028 0.950 . S
C2054 C2050 1.385 . S
C2054 C2053 1.374 . S
C2055 C2052 1.499 . S
C2055 C2056 1.373 . S
C2055 C2057 1.389 . S
C2056 H2029 0.950 . S
C2056 C2042 1.377 . S
C2056 C2055 1.373 . S
C2057 C2041 1.377 . S
C2057 C2055 1.389 . S
C2057 C2058 1.524 . S
C2058 C2057 1.524 . S
C2058 C2059 1.397 . S
C2058 C2063 1.363 . S
C2059 H2030 0.950 . S
C2059 C2058 1.397 . S
C2059 C2060 1.334 . S
C2060 H2031 0.950 . S
C2060 C2059 1.334 . S
C2060 C2061 1.287 . S
C2061 C2060 1.287 . S
C2061 C2062 1.524 . S
C2061 H2064 0.999 . S
C2062 H2032 0.950 . S
C2062 C2061 1.524 . S
C2062 C2063 1.415 . S
C2063 H2033 0.950 . S
C2063 C2058 1.363 . S
C2063 C2062 1.415 . S
H2064 C2061 0.999 . S
H2065 C2046 0.913 . S
H2066 C2084 0.951 . S
H2067 C2086 0.951 . S
H2068 C2088 0.950 . S
H2069 C2089 0.950 . S
H2070 C2091 0.950 . S
H2071 C2094 0.950 . S
H2072 C2095 0.950 . S
H2073 C2097 0.950 . S
H2074 C2098 0.950 . S
H2075 C2099 0.951 . S
H2076 C2101 0.951 . S
H2077 C2103 0.950 . S
H2078 C2104 0.950 . S
H2079 C2106 0.950 . S
H2080 C2109 0.950 . S
H2081 C2110 0.950 . S
H2082 C2112 0.950 . S
H2083 C2113 0.950 . S
C2084 H2066 0.951 . S
C2084 C2085 1.366 . S
C2084 C2086 1.388 . S
C2085 C2084 1.366 . S
C2085 C2089 1.385 . S
C2086 H2067 0.951 . S
C2086 C2084 1.388 . S
C2086 C2087 1.366 . S
C2087 C2086 1.366 . S
C2087 C2088 1.414 . S
C2087 C2090 1.499 . S
C2088 H2068 0.950 . S
C2088 C2087 1.414 . S
C2088 C2089 1.374 . S
C2089 H2069 0.950 . S
C2089 C2085 1.385 . S
C2089 C2088 1.374 . S
C2090 C2087 1.499 . S
C2090 C2091 1.373 . S
C2090 C2092 1.389 . S
C2091 H2070 0.950 . S
C2091 C2090 1.373 . S
C2091 C2107 1.377 . S
C2092 C2090 1.389 . S
C2092 C2093 1.524 . S
C2092 C2106 1.377 . S
C2093 C2092 1.524 . S
C2093 C2094 1.397 . S
C2093 C2098 1.363 . S
C2094 H2071 0.950 . S
C2094 C2093 1.397 . S
C2094 C2095 1.334 . S
C2095 H2072 0.950 . S
C2095 C2094 1.334 . S
C2095 C2096 1.287 . S
C2096 C2095 1.287 . S
C2096 C2097 1.524 . S
C2096 H2115 0.913 . S
C2097 H2073 0.950 . S
C2097 C2096 1.524 . S
C2097 C2098 1.415 . S
C2098 H2074 0.950 . S
C2098 C2093 1.363 . S
C2098 C2097 1.415 . S
C2099 H2075 0.951 . S
C2099 C2100 1.366 . S
C2099 C2101 1.388 . S
C2100 C2099 1.366 . S
C2100 C2104 1.385 . S
C2101 H2076 0.951 . S
C2101 C2099 1.388 . S
C2101 C2102 1.366 . S
C2102 C2101 1.366 . S
C2102 C2103 1.414 . S
C2102 C2105 1.499 . S
C2103 H2077 0.950 . S
C2103 C2102 1.414 . S
C2103 C2104 1.374 . S
C2104 H2078 0.950 . S
C2104 C2100 1.385 . S
C2104 C2103 1.374 . S
C2105 C2102 1.499 . S
C2105 C2106 1.373 . S
C2105 C2107 1.389 . S
C2106 H2079 0.950 . S
C2106 C2092 1.377 . S
C2106 C2105 1.373 . S
C2107 C2091 1.377 . S
C2107 C2105 1.389 . S
C2107 C2108 1.524 . S
C2108 C2107 1.524 . S
C2108 C2109 1.397 . S
C2108 C2113 1.363 . S
C2109 H2080 0.950 . S
C2109 C2108 1.397 . S
C2109 C2110 1.334 . S
C2110 H2081 0.950 . S
C2110 C2109 1.334 . S
C2110 C2111 1.287 . S
C2111 C2110 1.287 . S
C2111 C2112 1.524 . S
C2111 H2114 0.999 . S
C2112 H2082 0.950 . S
C2112 C2111 1.524 . S
C2112 C2113 1.415 . S
C2113 H2083 0.950 . S
C2113 C2108 1.363 . S
C2113 C2112 1.415 . S
H2114 C2111 0.999 . S
H2115 C2096 0.913 . S
H2116 C2134 0.951 . S
H2117 C2136 0.951 . S
H2118 C2138 0.950 . S
H2119 C2139 0.950 . S
H2120 C2141 0.950 . S
H2121 C2144 0.950 . S
H2122 C2145 0.950 . S
H2123 C2147 0.950 . S
H2124 C2148 0.950 . S
H2125 C2149 0.951 . S
H2126 C2151 0.951 . S
H2127 C2153 0.950 . S
H2128 C2154 0.950 . S
H2129 C2156 0.950 . S
H2130 C2159 0.950 . S
H2131 C2160 0.950 . S
H2132 C2162 0.950 . S
H2133 C2163 0.950 . S
C2134 H2116 0.951 . S
C2134 C2135 1.366 . S
C2134 C2136 1.388 . S
C2135 C2134 1.366 . S
C2135 C2139 1.385 . S
C2136 H2117 0.951 . S
C2136 C2134 1.388 . S
C2136 C2137 1.366 . S
C2137 C2136 1.366 . S
C2137 C2138 1.414 . S
C2137 C2140 1.499 . S
C2138 H2118 0.950 . S
C2138 C2137 1.414 . S
C2138 C2139 1.374 . S
C2139 H2119 0.950 . S
C2139 C2135 1.385 . S
C2139 C2138 1.374 . S
C2140 C2137 1.499 . S
C2140 C2141 1.373 . S
C2140 C2142 1.389 . S
C2141 H2120 0.950 . S
C2141 C2140 1.373 . S
C2141 C2157 1.377 . S
C2142 C2140 1.389 . S
C2142 C2143 1.524 . S
C2142 C2156 1.377 . S
C2143 C2142 1.524 . S
C2143 C2144 1.397 . S
C2143 C2148 1.363 . S
C2144 H2121 0.950 . S
C2144 C2143 1.397 . S
C2144 C2145 1.334 . S
C2145 H2122 0.950 . S
C2145 C2144 1.334 . S
C2145 C2146 1.287 . S
C2146 C2145 1.287 . S
C2146 C2147 1.524 . S
C2146 H2165 0.913 . S
C2147 H2123 0.950 . S
C2147 C2146 1.524 . S
C2147 C2148 1.415 . S
C2148 H2124 0.950 . S
C2148 C2143 1.363 . S
C2148 C2147 1.415 . S
C2149 H2125 0.951 . S
C2149 C2150 1.366 . S
C2149 C2151 1.388 . S
C2150 C2149 1.366 . S
C2150 C2154 1.385 . S
C2151 H2126 0.951 . S
C2151 C2149 1.388 . S
C2151 C2152 1.366 . S
C2152 C2151 1.366 . S
C2152 C2153 1.414 . S
C2152 C2155 1.499 . S
C2153 H2127 0.950 . S
C2153 C2152 1.414 . S
C2153 C2154 1.374 . S
C2154 H2128 0.950 . S
C2154 C2150 1.385 . S
C2154 C2153 1.374 . S
C2155 C2152 1.499 . S
C2155 C2156 1.373 . S
C2155 C2157 1.389 . S
C2156 H2129 0.950 . S
C2156 C2142 1.377 . S
C2156 C2155 1.373 . S
C2157 C2141 1.377 . S
C2157 C2155 1.389 . S
C2157 C2158 1.524 . S
C2158 C2157 1.524 . S
C2158 C2159 1.397 . S
C2158 C2163 1.363 . S
C2159 H2130 0.950 . S
C2159 C2158 1.397 . S
C2159 C2160 1.334 . S
C2160 H2131 0.950 . S
C2160 C2159 1.334 . S
C2160 C2161 1.287 . S
C2161 C2160 1.287 . S
C2161 C2162 1.524 . S
C2161 H2164 0.999 . S
C2162 H2132 0.950 . S
C2162 C2161 1.524 . S
C2162 C2163 1.415 . S
C2163 H2133 0.950 . S
C2163 C2158 1.363 . S
C2163 C2162 1.415 . S
H2164 C2161 0.999 . S
H2165 C2146 0.913 . S
H2166 C2184 0.951 . S
H2167 C2186 0.951 . S
H2168 C2188 0.950 . S
H2169 C2189 0.950 . S
H2170 C2191 0.950 . S
H2171 C2194 0.950 . S
H2172 C2195 0.950 . S
H2173 C2197 0.950 . S
H2174 C2198 0.950 . S
H2175 C2199 0.951 . S
H2176 C2201 0.951 . S
H2177 C2203 0.950 . S
H2178 C2204 0.950 . S
H2179 C2206 0.950 . S
H2180 C2209 0.950 . S
H2181 C2210 0.950 . S
H2182 C2212 0.950 . S
H2183 C2213 0.950 . S
C2184 H2166 0.951 . S
C2184 C2185 1.366 . S
C2184 C2186 1.388 . S
C2185 C2184 1.366 . S
C2185 C2189 1.385 . S
C2186 H2167 0.951 . S
C2186 C2184 1.388 . S
C2186 C2187 1.366 . S
C2187 C2186 1.366 . S
C2187 C2188 1.414 . S
C2187 C2190 1.499 . S
C2188 H2168 0.950 . S
C2188 C2187 1.414 . S
C2188 C2189 1.374 . S
C2189 H2169 0.950 . S
C2189 C2185 1.385 . S
C2189 C2188 1.374 . S
C2190 C2187 1.499 . S
C2190 C2191 1.373 . S
C2190 C2192 1.389 . S
C2191 H2170 0.950 . S
C2191 C2190 1.373 . S
C2191 C2207 1.377 . S
C2192 C2190 1.389 . S
C2192 C2193 1.524 . S
C2192 C2206 1.377 . S
C2193 C2192 1.524 . S
C2193 C2194 1.397 . S
C2193 C2198 1.363 . S
C2194 H2171 0.950 . S
C2194 C2193 1.397 . S
C2194 C2195 1.334 . S
C2195 H2172 0.950 . S
C2195 C2194 1.334 . S
C2195 C2196 1.287 . S
C2196 C2195 1.287 . S
C2196 C2197 1.524 . S
C2196 H2215 0.913 . S
C2197 H2173 0.950 . S
C2197 C2196 1.524 . S
C2197 C2198 1.415 . S
C2198 H2174 0.950 . S
C2198 C2193 1.363 . S
C2198 C2197 1.415 . S
C2199 H2175 0.951 . S
C2199 C2200 1.366 . S
C2199 C2201 1.388 . S
C2200 C2199 1.366 . S
C2200 C2204 1.385 . S
C2201 H2176 0.951 . S
C2201 C2199 1.388 . S
C2201 C2202 1.366 . S
C2202 C2201 1.366 . S
C2202 C2203 1.414 . S
C2202 C2205 1.499 . S
C2203 H2177 0.950 . S
C2203 C2202 1.414 . S
C2203 C2204 1.374 . S
C2204 H2178 0.950 . S
C2204 C2200 1.385 . S
C2204 C2203 1.374 . S
C2205 C2202 1.499 . S
C2205 C2206 1.373 . S
C2205 C2207 1.389 . S
C2206 H2179 0.950 . S
C2206 C2192 1.377 . S
C2206 C2205 1.373 . S
C2207 C2191 1.377 . S
C2207 C2205 1.389 . S
C2207 C2208 1.524 . S
C2208 C2207 1.524 . S
C2208 C2209 1.397 . S
C2208 C2213 1.363 . S
C2209 H2180 0.950 . S
C2209 C2208 1.397 . S
C2209 C2210 1.334 . S
C2210 H2181 0.950 . S
C2210 C2209 1.334 . S
C2210 C2211 1.287 . S
C2211 C2210 1.287 . S
C2211 C2212 1.524 . S
C2211 H2214 0.999 . S
C2212 H2182 0.950 . S
C2212 C2211 1.524 . S
C2212 C2213 1.415 . S
C2213 H2183 0.950 . S
C2213 C2208 1.363 . S
C2213 C2212 1.415 . S
H2214 C2211 0.999 . S
H2215 C2196 0.913 . S
H2216 C2234 0.951 . S
H2217 C2236 0.951 . S
H2218 C2238 0.950 . S
H2219 C2239 0.950 . S
H2220 C2241 0.950 . S
H2221 C2244 0.950 . S
H2222 C2245 0.950 . S
H2223 C2247 0.950 . S
H2224 C2248 0.950 . S
H2225 C2249 0.951 . S
H2226 C2251 0.951 . S
H2227 C2253 0.950 . S
H2228 C2254 0.950 . S
H2229 C2256 0.950 . S
H2230 C2259 0.950 . S
H2231 C2260 0.950 . S
H2232 C2262 0.950 . S
H2233 C2263 0.950 . S
C2234 H2216 0.951 . S
C2234 C2235 1.366 . S
C2234 C2236 1.388 . S
C2235 C2234 1.366 . S
C2235 C2239 1.385 . S
C2236 H2217 0.951 . S
C2236 C2234 1.388 . S
C2236 C2237 1.366 . S
C2237 C2236 1.366 . S
C2237 C2238 1.414 . S
C2237 C2240 1.499 . S
C2238 H2218 0.950 . S
C2238 C2237 1.414 . S
C2238 C2239 1.374 . S
C2239 H2219 0.950 . S
C2239 C2235 1.385 . S
C2239 C2238 1.374 . S
C2240 C2237 1.499 . S
C2240 C2241 1.373 . S
C2240 C2242 1.389 . S
C2241 H2220 0.950 . S
C2241 C2240 1.373 . S
C2241 C2257 1.377 . S
C2242 C2240 1.389 . S
C2242 C2243 1.524 . S
C2242 C2256 1.377 . S
C2243 C2242 1.524 . S
C2243 C2244 1.397 . S
C2243 C2248 1.363 . S
C2244 H2221 0.950 . S
C2244 C2243 1.397 . S
C2244 C2245 1.334 . S
C2245 H2222 0.950 . S
C2245 C2244 1.334 . S
C2245 C2246 1.287 . S
C2246 C2245 1.287 . S
C2246 C2247 1.524 . S
C2246 H2265 0.913 . S
C2247 H2223 0.950 . S
C2247 C2246 1.524 . S
C2247 C2248 1.415 . S
C2248 H2224 0.950 . S
C2248 C2243 1.363 . S
C2248 C2247 1.415 . S
C2249 H2225 0.951 . S
C2249 C2250 1.366 . S
C2249 C2251 1.388 . S
C2250 C2249 1.366 . S
C2250 C2254 1.385 . S
C2251 H2226 0.951 . S
C2251 C2249 1.388 . S
C2251 C2252 1.366 . S
C2252 C2251 1.366 . S
C2252 C2253 1.414 . S
C2252 C2255 1.499 . S
C2253 H2227 0.950 . S
C2253 C2252 1.414 . S
C2253 C2254 1.374 . S
C2254 H2228 0.950 . S
C2254 C2250 1.385 . S
C2254 C2253 1.374 . S
C2255 C2252 1.499 . S
C2255 C2256 1.373 . S
C2255 C2257 1.389 . S
C2256 H2229 0.950 . S
C2256 C2242 1.377 . S
C2256 C2255 1.373 . S
C2257 C2241 1.377 . S
C2257 C2255 1.389 . S
C2257 C2258 1.524 . S
C2258 C2257 1.524 . S
C2258 C2259 1.397 . S
C2258 C2263 1.363 . S
C2259 H2230 0.950 . S
C2259 C2258 1.397 . S
C2259 C2260 1.334 . S
C2260 H2231 0.950 . S
C2260 C2259 1.334 . S
C2260 C2261 1.287 . S
C2261 C2260 1.287 . S
C2261 C2262 1.524 . S
C2261 H2264 0.999 . S
C2262 H2232 0.950 . S
C2262 C2261 1.524 . S
C2262 C2263 1.415 . S
C2263 H2233 0.950 . S
C2263 C2258 1.363 . S
C2263 C2262 1.415 . S
H2264 C2261 0.999 . S
H2265 C2246 0.913 . S
H2266 C2284 0.951 . S
H2267 C2286 0.951 . S
H2268 C2288 0.950 . S
H2269 C2289 0.950 . S
H2270 C2291 0.950 . S
H2271 C2294 0.950 . S
H2272 C2295 0.950 . S
H2273 C2297 0.950 . S
H2274 C2298 0.950 . S
H2275 C2299 0.951 . S
H2276 C2301 0.951 . S
H2277 C2303 0.950 . S
H2278 C2304 0.950 . S
H2279 C2306 0.950 . S
H2280 C2309 0.950 . S
H2281 C2310 0.950 . S
H2282 C2312 0.950 . S
H2283 C2313 0.950 . S
C2284 H2266 0.951 . S
C2284 C2285 1.366 . S
C2284 C2286 1.388 . S
C2285 C2284 1.366 . S
C2285 C2289 1.385 . S
C2286 H2267 0.951 . S
C2286 C2284 1.388 . S
C2286 C2287 1.366 . S
C2287 C2286 1.366 . S
C2287 C2288 1.414 . S
C2287 C2290 1.499 . S
C2288 H2268 0.950 . S
C2288 C2287 1.414 . S
C2288 C2289 1.374 . S
C2289 H2269 0.950 . S
C2289 C2285 1.385 . S
C2289 C2288 1.374 . S
C2290 C2287 1.499 . S
C2290 C2291 1.373 . S
C2290 C2292 1.389 . S
C2291 H2270 0.950 . S
C2291 C2290 1.373 . S
C2291 C2307 1.377 . S
C2292 C2290 1.389 . S
C2292 C2293 1.524 . S
C2292 C2306 1.377 . S
C2293 C2292 1.524 . S
C2293 C2294 1.397 . S
C2293 C2298 1.363 . S
C2294 H2271 0.950 . S
C2294 C2293 1.397 . S
C2294 C2295 1.334 . S
C2295 H2272 0.950 . S
C2295 C2294 1.334 . S
C2295 C2296 1.287 . S
C2296 C2295 1.287 . S
C2296 C2297 1.524 . S
C2296 H2315 0.913 . S
C2297 H2273 0.950 . S
C2297 C2296 1.524 . S
C2297 C2298 1.415 . S
C2298 H2274 0.950 . S
C2298 C2293 1.363 . S
C2298 C2297 1.415 . S
C2299 H2275 0.951 . S
C2299 C2300 1.366 . S
C2299 C2301 1.388 . S
C2300 C2299 1.366 . S
C2300 C2304 1.385 . S
C2301 H2276 0.951 . S
C2301 C2299 1.388 . S
C2301 C2302 1.366 . S
C2302 C2301 1.366 . S
C2302 C2303 1.414 . S
C2302 C2305 1.499 . S
C2303 H2277 0.950 . S
C2303 C2302 1.414 . S
C2303 C2304 1.374 . S
C2304 H2278 0.950 . S
C2304 C2300 1.385 . S
C2304 C2303 1.374 . S
C2305 C2302 1.499 . S
C2305 C2306 1.373 . S
C2305 C2307 1.389 . S
C2306 H2279 0.950 . S
C2306 C2292 1.377 . S
C2306 C2305 1.373 . S
C2307 C2291 1.377 . S
C2307 C2305 1.389 . S
C2307 C2308 1.524 . S
C2308 C2307 1.524 . S
C2308 C2309 1.397 . S
C2308 C2313 1.363 . S
C2309 H2280 0.950 . S
C2309 C2308 1.397 . S
C2309 C2310 1.334 . S
C2310 H2281 0.950 . S
C2310 C2309 1.334 . S
C2310 C2311 1.287 . S
C2311 C2310 1.287 . S
C2311 C2312 1.524 . S
C2311 H2314 0.999 . S
C2312 H2282 0.950 . S
C2312 C2311 1.524 . S
C2312 C2313 1.415 . S
C2313 H2283 0.950 . S
C2313 C2308 1.363 . S
C2313 C2312 1.415 . S
H2314 C2311 0.999 . S
H2315 C2296 0.913 . S
H2316 C2334 0.951 . S
H2317 C2336 0.951 . S
H2318 C2338 0.950 . S
H2319 C2339 0.950 . S
H2320 C2341 0.950 . S
H2321 C2344 0.950 . S
H2322 C2345 0.950 . S
H2323 C2347 0.950 . S
H2324 C2348 0.950 . S
H2325 C2349 0.951 . S
H2326 C2351 0.951 . S
H2327 C2353 0.950 . S
H2328 C2354 0.950 . S
H2329 C2356 0.950 . S
H2330 C2359 0.950 . S
H2331 C2360 0.950 . S
H2332 C2362 0.950 . S
H2333 C2363 0.950 . S
C2334 H2316 0.951 . S
C2334 C2335 1.366 . S
C2334 C2336 1.388 . S
C2335 C2334 1.366 . S
C2335 C2339 1.385 . S
C2336 H2317 0.951 . S
C2336 C2334 1.388 . S
C2336 C2337 1.366 . S
C2337 C2336 1.366 . S
C2337 C2338 1.414 . S
C2337 C2340 1.499 . S
C2338 H2318 0.950 . S
C2338 C2337 1.414 . S
C2338 C2339 1.374 . S
C2339 H2319 0.950 . S
C2339 C2335 1.385 . S
C2339 C2338 1.374 . S
C2340 C2337 1.499 . S
C2340 C2341 1.373 . S
C2340 C2342 1.389 . S
C2341 H2320 0.950 . S
C2341 C2340 1.373 . S
C2341 C2357 1.377 . S
C2342 C2340 1.389 . S
C2342 C2343 1.524 . S
C2342 C2356 1.377 . S
C2343 C2342 1.524 . S
C2343 C2344 1.397 . S
C2343 C2348 1.363 . S
C2344 H2321 0.950 . S
C2344 C2343 1.397 . S
C2344 C2345 1.334 . S
C2345 H2322 0.950 . S
C2345 C2344 1.334 . S
C2345 C2346 1.287 . S
C2346 C2345 1.287 . S
C2346 C2347 1.524 . S
C2346 H2365 0.913 . S
C2347 H2323 0.950 . S
C2347 C2346 1.524 . S
C2347 C2348 1.415 . S
C2348 H2324 0.950 . S
C2348 C2343 1.363 . S
C2348 C2347 1.415 . S
C2349 H2325 0.951 . S
C2349 C2350 1.366 . S
C2349 C2351 1.388 . S
C2350 C2349 1.366 . S
C2350 C2354 1.385 . S
C2351 H2326 0.951 . S
C2351 C2349 1.388 . S
C2351 C2352 1.366 . S
C2352 C2351 1.366 . S
C2352 C2353 1.414 . S
C2352 C2355 1.499 . S
C2353 H2327 0.950 . S
C2353 C2352 1.414 . S
C2353 C2354 1.374 . S
C2354 H2328 0.950 . S
C2354 C2350 1.385 . S
C2354 C2353 1.374 . S
C2355 C2352 1.499 . S
C2355 C2356 1.373 . S
C2355 C2357 1.389 . S
C2356 H2329 0.950 . S
C2356 C2342 1.377 . S
C2356 C2355 1.373 . S
C2357 C2341 1.377 . S
C2357 C2355 1.389 . S
C2357 C2358 1.524 . S
C2358 C2357 1.524 . S
C2358 C2359 1.397 . S
C2358 C2363 1.363 . S
C2359 H2330 0.950 . S
C2359 C2358 1.397 . S
C2359 C2360 1.334 . S
C2360 H2331 0.950 . S
C2360 C2359 1.334 . S
C2360 C2361 1.287 . S
C2361 C2360 1.287 . S
C2361 C2362 1.524 . S
C2361 H2364 0.999 . S
C2362 H2332 0.950 . S
C2362 C2361 1.524 . S
C2362 C2363 1.415 . S
C2363 H2333 0.950 . S
C2363 C2358 1.363 . S
C2363 C2362 1.415 . S
H2364 C2361 0.999 . S
H2365 C2346 0.913 . S
H2366 C2384 0.951 . S
H2367 C2386 0.951 . S
H2368 C2388 0.950 . S
H2369 C2389 0.950 . S
H2370 C2391 0.950 . S
H2371 C2394 0.950 . S
H2372 C2395 0.950 . S
H2373 C2397 0.950 . S
H2374 C2398 0.950 . S
H2375 C2399 0.951 . S
H2376 C2401 0.951 . S
H2377 C2403 0.950 . S
H2378 C2404 0.950 . S
H2379 C2406 0.950 . S
H2380 C2409 0.950 . S
H2381 C2410 0.950 . S
H2382 C2412 0.950 . S
H2383 C2413 0.950 . S
C2384 H2366 0.951 . S
C2384 C2385 1.366 . S
C2384 C2386 1.388 . S
C2385 C2384 1.366 . S
C2385 C2389 1.385 . S
C2386 H2367 0.951 . S
C2386 C2384 1.388 . S
C2386 C2387 1.366 . S
C2387 C2386 1.366 . S
C2387 C2388 1.414 . S
C2387 C2390 1.499 . S
C2388 H2368 0.950 . S
C2388 C2387 1.414 . S
C2388 C2389 1.374 . S
C2389 H2369 0.950 . S
C2389 C2385 1.385 . S
C2389 C2388 1.374 . S
C2390 C2387 1.499 . S
C2390 C2391 1.373 . S
C2390 C2392 1.389 . S
C2391 H2370 0.950 . S
C2391 C2390 1.373 . S
C2391 C2407 1.377 . S
C2392 C2390 1.389 . S
C2392 C2393 1.524 . S
C2392 C2406 1.377 . S
C2393 C2392 1.524 . S
C2393 C2394 1.397 . S
C2393 C2398 1.363 . S
C2394 H2371 0.950 . S
C2394 C2393 1.397 . S
C2394 C2395 1.334 . S
C2395 H2372 0.950 . S
C2395 C2394 1.334 . S
C2395 C2396 1.287 . S
C2396 C2395 1.287 . S
C2396 C2397 1.524 . S
C2396 H2415 0.913 . S
C2397 H2373 0.950 . S
C2397 C2396 1.524 . S
C2397 C2398 1.415 . S
C2398 H2374 0.950 . S
C2398 C2393 1.363 . S
C2398 C2397 1.415 . S
C2399 H2375 0.951 . S
C2399 C2400 1.366 . S
C2399 C2401 1.388 . S
C2400 C2399 1.366 . S
C2400 C2404 1.385 . S
C2401 H2376 0.951 . S
C2401 C2399 1.388 . S
C2401 C2402 1.366 . S
C2402 C2401 1.366 . S
C2402 C2403 1.414 . S
C2402 C2405 1.499 . S
C2403 H2377 0.950 . S
C2403 C2402 1.414 . S
C2403 C2404 1.374 . S
C2404 H2378 0.950 . S
C2404 C2400 1.385 . S
C2404 C2403 1.374 . S
C2405 C2402 1.499 . S
C2405 C2406 1.373 . S
C2405 C2407 1.389 . S
C2406 H2379 0.950 . S
C2406 C2392 1.377 . S
C2406 C2405 1.373 . S
C2407 C2391 1.377 . S
C2407 C2405 1.389 . S
C2407 C2408 1.524 . S
C2408 C2407 1.524 . S
C2408 C2409 1.397 . S
C2408 C2413 1.363 . S
C2409 H2380 0.950 . S
C2409 C2408 1.397 . S
C2409 C2410 1.334 . S
C2410 H2381 0.950 . S
C2410 C2409 1.334 . S
C2410 C2411 1.287 . S
C2411 C2410 1.287 . S
C2411 C2412 1.524 . S
C2411 H2414 0.999 . S
C2412 H2382 0.950 . S
C2412 C2411 1.524 . S
C2412 C2413 1.415 . S
C2413 H2383 0.950 . S
C2413 C2408 1.363 . S
C2413 C2412 1.415 . S
H2414 C2411 0.999 . S
H2415 C2396 0.913 . S
H2416 C2434 0.951 . S
H2417 C2436 0.951 . S
H2418 C2438 0.950 . S
H2419 C2439 0.950 . S
H2420 C2441 0.950 . S
H2421 C2444 0.950 . S
H2422 C2445 0.950 . S
H2423 C2447 0.950 . S
H2424 C2448 0.950 . S
H2425 C2449 0.951 . S
H2426 C2451 0.951 . S
H2427 C2453 0.950 . S
H2428 C2454 0.950 . S
H2429 C2456 0.950 . S
H2430 C2459 0.950 . S
H2431 C2460 0.950 . S
H2432 C2462 0.950 . S
H2433 C2463 0.950 . S
C2434 H2416 0.951 . S
C2434 C2435 1.366 . S
C2434 C2436 1.388 . S
C2435 C2434 1.366 . S
C2435 C2439 1.385 . S
C2436 H2417 0.951 . S
C2436 C2434 1.388 . S
C2436 C2437 1.366 . S
C2437 C2436 1.366 . S
C2437 C2438 1.414 . S
C2437 C2440 1.499 . S
C2438 H2418 0.950 . S
C2438 C2437 1.414 . S
C2438 C2439 1.374 . S
C2439 H2419 0.950 . S
C2439 C2435 1.385 . S
C2439 C2438 1.374 . S
C2440 C2437 1.499 . S
C2440 C2441 1.373 . S
C2440 C2442 1.389 . S
C2441 H2420 0.950 . S
C2441 C2440 1.373 . S
C2441 C2457 1.377 . S
C2442 C2440 1.389 . S
C2442 C2443 1.524 . S
C2442 C2456 1.377 . S
C2443 C2442 1.524 . S
C2443 C2444 1.397 . S
C2443 C2448 1.363 . S
C2444 H2421 0.950 . S
C2444 C2443 1.397 . S
C2444 C2445 1.334 . S
C2445 H2422 0.950 . S
C2445 C2444 1.334 . S
C2445 C2446 1.287 . S
C2446 C2445 1.287 . S
C2446 C2447 1.524 . S
C2446 H2465 0.913 . S
C2447 H2423 0.950 . S
C2447 C2446 1.524 . S
C2447 C2448 1.415 . S
C2448 H2424 0.950 . S
C2448 C2443 1.363 . S
C2448 C2447 1.415 . S
C2449 H2425 0.951 . S
C2449 C2450 1.366 . S
C2449 C2451 1.388 . S
C2450 C2449 1.366 . S
C2450 C2454 1.385 . S
C2451 H2426 0.951 . S
C2451 C2449 1.388 . S
C2451 C2452 1.366 . S
C2452 C2451 1.366 . S
C2452 C2453 1.414 . S
C2452 C2455 1.499 . S
C2453 H2427 0.950 . S
C2453 C2452 1.414 . S
C2453 C2454 1.374 . S
C2454 H2428 0.950 . S
C2454 C2450 1.385 . S
C2454 C2453 1.374 . S
C2455 C2452 1.499 . S
C2455 C2456 1.373 . S
C2455 C2457 1.389 . S
C2456 H2429 0.950 . S
C2456 C2442 1.377 . S
C2456 C2455 1.373 . S
C2457 C2441 1.377 . S
C2457 C2455 1.389 . S
C2457 C2458 1.524 . S
C2458 C2457 1.524 . S
C2458 C2459 1.397 . S
C2458 C2463 1.363 . S
C2459 H2430 0.950 . S
C2459 C2458 1.397 . S
C2459 C2460 1.334 . S
C2460 H2431 0.950 . S
C2460 C2459 1.334 . S
C2460 C2461 1.287 . S
C2461 C2460 1.287 . S
C2461 C2462 1.524 . S
C2461 H2464 0.999 . S
C2462 H2432 0.950 . S
C2462 C2461 1.524 . S
C2462 C2463 1.415 . S
C2463 H2433 0.950 . S
C2463 C2458 1.363 . S
C2463 C2462 1.415 . S
H2464 C2461 0.999 . S
H2465 C2446 0.913 . S
H2466 C2484 0.951 . S
H2467 C2486 0.951 . S
H2468 C2488 0.950 . S
H2469 C2489 0.950 . S
H2470 C2491 0.950 . S
H2471 C2494 0.950 . S
H2472 C2495 0.950 . S
H2473 C2497 0.950 . S
H2474 C2498 0.950 . S
H2475 C2499 0.951 . S
H2476 C2501 0.951 . S
H2477 C2503 0.950 . S
H2478 C2504 0.950 . S
H2479 C2506 0.950 . S
H2480 C2509 0.950 . S
H2481 C2510 0.950 . S
H2482 C2512 0.950 . S
H2483 C2513 0.950 . S
C2484 H2466 0.951 . S
C2484 C2485 1.366 . S
C2484 C2486 1.388 . S
C2485 C2484 1.366 . S
C2485 C2489 1.385 . S
C2486 H2467 0.951 . S
C2486 C2484 1.388 . S
C2486 C2487 1.366 . S
C2487 C2486 1.366 . S
C2487 C2488 1.414 . S
C2487 C2490 1.499 . S
C2488 H2468 0.950 . S
C2488 C2487 1.414 . S
C2488 C2489 1.374 . S
C2489 H2469 0.950 . S
C2489 C2485 1.385 . S
C2489 C2488 1.374 . S
C2490 C2487 1.499 . S
C2490 C2491 1.373 . S
C2490 C2492 1.389 . S
C2491 H2470 0.950 . S
C2491 C2490 1.373 . S
C2491 C2507 1.377 . S
C2492 C2490 1.389 . S
C2492 C2493 1.524 . S
C2492 C2506 1.377 . S
C2493 C2492 1.524 . S
C2493 C2494 1.397 . S
C2493 C2498 1.363 . S
C2494 H2471 0.950 . S
C2494 C2493 1.397 . S
C2494 C2495 1.334 . S
C2495 H2472 0.950 . S
C2495 C2494 1.334 . S
C2495 C2496 1.287 . S
C2496 C2495 1.287 . S
C2496 C2497 1.524 . S
C2496 H2515 0.913 . S
C2497 H2473 0.950 . S
C2497 C2496 1.524 . S
C2497 C2498 1.415 . S
C2498 H2474 0.950 . S
C2498 C2493 1.363 . S
C2498 C2497 1.415 . S
C2499 H2475 0.951 . S
C2499 C2500 1.366 . S
C2499 C2501 1.388 . S
C2500 C2499 1.366 . S
C2500 C2504 1.385 . S
C2501 H2476 0.951 . S
C2501 C2499 1.388 . S
C2501 C2502 1.366 . S
C2502 C2501 1.366 . S
C2502 C2503 1.414 . S
C2502 C2505 1.499 . S
C2503 H2477 0.950 . S
C2503 C2502 1.414 . S
C2503 C2504 1.374 . S
C2504 H2478 0.950 . S
C2504 C2500 1.385 . S
C2504 C2503 1.374 . S
C2505 C2502 1.499 . S
C2505 C2506 1.373 . S
C2505 C2507 1.389 . S
C2506 H2479 0.950 . S
C2506 C2492 1.377 . S
C2506 C2505 1.373 . S
C2507 C2491 1.377 . S
C2507 C2505 1.389 . S
C2507 C2508 1.524 . S
C2508 C2507 1.524 . S
C2508 C2509 1.397 . S
C2508 C2513 1.363 . S
C2509 H2480 0.950 . S
C2509 C2508 1.397 . S
C2509 C2510 1.334 . S
C2510 H2481 0.950 . S
C2510 C2509 1.334 . S
C2510 C2511 1.287 . S
C2511 C2510 1.287 . S
C2511 C2512 1.524 . S
C2511 H2514 0.999 . S
C2512 H2482 0.950 . S
C2512 C2511 1.524 . S
C2512 C2513 1.415 . S
C2513 H2483 0.950 . S
C2513 C2508 1.363 . S
C2513 C2512 1.415 . S
H2514 C2511 0.999 . S
H2515 C2496 0.913 . S
H2516 C2534 0.951 . S
H2517 C2536 0.951 . S
H2518 C2538 0.950 . S
H2519 C2539 0.950 . S
H2520 C2541 0.950 . S
H2521 C2544 0.950 . S
H2522 C2545 0.950 . S
H2523 C2547 0.950 . S
H2524 C2548 0.950 . S
H2525 C2549 0.951 1_554 S
H2526 C2551 0.951 . S
H2527 C2553 0.950 . S
H2528 C2554 0.950 . S
H2529 C2556 0.950 . S
H2530 C2559 0.950 . S
H2531 C2560 0.950 . S
H2532 C2562 0.950 . S
H2533 C2563 0.950 . S
C2534 H2516 0.951 . S
C2534 C2535 1.366 . S
C2534 C2536 1.388 . S
C2535 C2534 1.366 . S
C2535 C2539 1.385 . S
C2536 H2517 0.951 . S
C2536 C2534 1.388 . S
C2536 C2537 1.366 . S
C2537 C2536 1.366 . S
C2537 C2538 1.414 . S
C2537 C2540 1.499 . S
C2538 H2518 0.950 . S
C2538 C2537 1.414 . S
C2538 C2539 1.374 . S
C2539 H2519 0.950 . S
C2539 C2535 1.385 . S
C2539 C2538 1.374 . S
C2540 C2537 1.499 . S
C2540 C2541 1.373 . S
C2540 C2542 1.389 . S
C2541 H2520 0.950 . S
C2541 C2540 1.373 . S
C2541 C2557 1.377 . S
C2542 C2540 1.389 . S
C2542 C2543 1.524 . S
C2542 C2556 1.377 . S
C2543 C2542 1.524 . S
C2543 C2544 1.397 . S
C2543 C2548 1.363 . S
C2544 H2521 0.950 . S
C2544 C2543 1.397 . S
C2544 C2545 1.334 . S
C2545 H2522 0.950 . S
C2545 C2544 1.334 . S
C2545 C2546 1.287 . S
C2546 C2545 1.287 . S
C2546 C2547 1.524 . S
C2546 H2565 0.913 . S
C2547 H2523 0.950 . S
C2547 C2546 1.524 . S
C2547 C2548 1.415 . S
C2548 H2524 0.950 . S
C2548 C2543 1.363 . S
C2548 C2547 1.415 . S
C2549 H2525 0.951 1_556 S
C2549 C2550 1.366 . S
C2549 C2551 1.388 . S
C2550 C2549 1.366 . S
C2550 C2554 1.385 . S
C2551 H2526 0.951 . S
C2551 C2549 1.388 . S
C2551 C2552 1.366 . S
C2552 C2551 1.366 . S
C2552 C2553 1.414 . S
C2552 C2555 1.499 . S
C2553 H2527 0.950 . S
C2553 C2552 1.414 . S
C2553 C2554 1.374 . S
C2554 H2528 0.950 . S
C2554 C2550 1.385 . S
C2554 C2553 1.374 . S
C2555 C2552 1.499 . S
C2555 C2556 1.373 . S
C2555 C2557 1.389 . S
C2556 H2529 0.950 . S
C2556 C2542 1.377 . S
C2556 C2555 1.373 . S
C2557 C2541 1.377 . S
C2557 C2555 1.389 . S
C2557 C2558 1.524 . S
C2558 C2557 1.524 . S
C2558 C2559 1.397 . S
C2558 C2563 1.359 1_556 S
C2559 H2530 0.950 . S
C2559 C2558 1.397 . S
C2559 C2560 1.334 . S
C2560 H2531 0.950 . S
C2560 C2559 1.334 . S
C2560 C2561 1.287 1_556 S
C2561 C2560 1.287 1_554 S
C2561 C2562 1.524 . S
C2561 H2564 0.999 . S
C2562 H2532 0.950 . S
C2562 C2561 1.524 . S
C2562 C2563 1.419 . S
C2563 H2533 0.950 . S
C2563 C2558 1.359 1_554 S
C2563 C2562 1.419 . S
H2564 C2561 0.999 . S
H2565 C2546 0.913 . S
H2566 C2584 0.951 . S
H2567 C2586 0.951 . S
H2568 C2588 0.950 . S
H2569 C2589 0.950 . S
H2570 C2591 0.950 . S
H2571 C2594 0.950 . S
H2572 C2595 0.950 . S
H2573 C2597 0.950 . S
H2574 C2598 0.950 . S
H2575 C2599 0.951 . S
H2576 C2601 0.951 . S
H2577 C2603 0.950 . S
H2578 C2604 0.950 . S
H2579 C2606 0.950 . S
H2580 C2609 0.950 . S
H2581 C2610 0.950 . S
H2582 C2612 0.950 . S
H2583 C2613 0.950 . S
C2584 H2566 0.951 . S
C2584 C2585 1.366 . S
C2584 C2586 1.388 . S
C2585 C2584 1.366 . S
C2585 C2589 1.385 . S
C2586 H2567 0.951 . S
C2586 C2584 1.388 . S
C2586 C2587 1.366 . S
C2587 C2586 1.366 . S
C2587 C2588 1.414 . S
C2587 C2590 1.499 . S
C2588 H2568 0.950 . S
C2588 C2587 1.414 . S
C2588 C2589 1.374 . S
C2589 H2569 0.950 . S
C2589 C2585 1.385 . S
C2589 C2588 1.374 . S
C2590 C2587 1.499 . S
C2590 C2591 1.373 . S
C2590 C2592 1.389 . S
C2591 H2570 0.950 . S
C2591 C2590 1.373 . S
C2591 C2607 1.377 1_556 S
C2592 C2590 1.389 . S
C2592 C2593 1.524 . S
C2592 C2606 1.377 . S
C2593 C2592 1.524 . S
C2593 C2594 1.397 . S
C2593 C2598 1.363 . S
C2594 H2571 0.950 . S
C2594 C2593 1.397 . S
C2594 C2595 1.334 . S
C2595 H2572 0.950 . S
C2595 C2594 1.334 . S
C2595 C2596 1.287 . S
C2596 C2595 1.287 . S
C2596 C2597 1.524 . S
C2596 H2615 0.913 . S
C2597 H2573 0.950 . S
C2597 C2596 1.524 . S
C2597 C2598 1.415 . S
C2598 H2574 0.950 . S
C2598 C2593 1.363 . S
C2598 C2597 1.415 . S
C2599 H2575 0.951 . S
C2599 C2600 1.366 . S
C2599 C2601 1.388 . S
C2600 C2599 1.366 . S
C2600 C2604 1.385 . S
C2601 H2576 0.951 . S
C2601 C2599 1.388 . S
C2601 C2602 1.366 . S
C2602 C2601 1.366 . S
C2602 C2603 1.414 . S
C2602 C2605 1.499 . S
C2603 H2577 0.950 . S
C2603 C2602 1.414 . S
C2603 C2604 1.374 . S
C2604 H2578 0.950 . S
C2604 C2600 1.385 . S
C2604 C2603 1.374 . S
C2605 C2602 1.499 . S
C2605 C2606 1.373 1_554 S
C2605 C2607 1.389 . S
C2606 H2579 0.950 . S
C2606 C2592 1.377 . S
C2606 C2605 1.373 1_556 S
C2607 C2591 1.377 1_554 S
C2607 C2605 1.389 . S
C2607 C2608 1.524 . S
C2608 C2607 1.524 . S
C2608 C2609 1.397 . S
C2608 C2613 1.363 . S
C2609 H2580 0.950 . S
C2609 C2608 1.397 . S
C2609 C2610 1.334 . S
C2610 H2581 0.950 . S
C2610 C2609 1.334 . S
C2610 C2611 1.287 . S
C2611 C2610 1.287 . S
C2611 C2612 1.524 . S
C2611 H2614 0.999 . S
C2612 H2582 0.950 . S
C2612 C2611 1.524 . S
C2612 C2613 1.415 . S
C2613 H2583 0.950 . S
C2613 C2608 1.363 . S
C2613 C2612 1.415 . S
H2614 C2611 0.999 . S
H2615 C2596 0.913 . S
C1050 C621 1.613 . S
C1035 C39 1.580 . S
C1100 C674 1.443 . S
C1085 C125 1.444 . S
C1150 C737 2.299 . S
C1135 C217 2.231 . S
C1200 C780 1.723 . S
C1185 C261 1.651 . S
C1235 C359 1.434 . S
C1250 C736 1.447 . S
C1300 C773 1.134 . S
C1285 C433 1.084 . S
C1350 C614 1.446 . S
C1335 C495 1.459 . S
C1400 C667 1.446 . S
C1385 C587 1.448 . S
C1450 C720 1.776 . S
C1435 C557 1.763 . S
C1500 C789 1.324 . S
C1485 C347 1.328 . S
C1550 C630 1.035 . S
C1535 C421 1.033 . S
C1600 C683 1.827 . S
C1585 C507 1.789 . S
C1650 C631 1.451 . S
C1635 C137 1.449 . S
C1700 C684 1.885 . S
C1685 C187 1.840 . S
C1750 C727 2.644 . S
C1735 C291 2.596 . S
C1800 C790 2.320 . S
C1785 C69 2.323 . S
C1850 C833 1.340 . S
C1835 C581 1.342 . S
C1885 C365 2.269 . S
C1900 C886 2.253 . S
C1935 C439 2.693 . S
C1950 C948 2.688 . S
C1985 C483 1.624 . S
C2000 C1002 1.664 . S
C2035 C113 1.784 . S
C2050 C949 1.802 . S
C2085 C211 1.857 . S
C2100 C1001 1.891 . S
C2135 C273 1.207 . S
C2150 C826 1.233 . S
C2200 C879 1.174 . S
C2185 C51 1.174 . S
C2250 C939 1.387 . S
C2235 C63 1.351 . S
C2285 C143 1.552 . S
C2300 C985 1.553 . S
C2335 C199 1.822 . S
C2350 C842 1.846 . S
C2385 C285 1.031 . S
C2400 C895 1.075 . S
C2450 C843 1.593 . S
C2435 C335 1.574 . S
C2500 C896 1.977 . S
C2485 C409 1.863 . S
C2535 C513 2.057 . S
C2550 C932 2.055 . S
C2600 C992 1.405 . S
C2585 C569 1.402 . S
