# Generated by pormake.
# Topology zzz, (3,6)-cn, num edge types: 1
# Building blocks:
#     Node 0, Type 0, BuildingBlock: BETDIP_clean_linker_0, # of connection points: 3
#     Node 1, Type 0, BuildingBlock: BETDIP_clean_linker_0, # of connection points: 3
#     Node 2, Type 0, BuildingBlock: BETDIP_clean_linker_0, # of connection points: 3
#     Node 3, Type 0, BuildingBlock: BETDIP_clean_linker_0, # of connection points: 3
#     Node 4, Type 0, BuildingBlock: BETDIP_clean_linker_0, # of connection points: 3
#     Node 5, Type 0, BuildingBlock: BETDIP_clean_linker_0, # of connection points: 3
#     Node 6, Type 0, BuildingBlock: BETDIP_clean_linker_0, # of connection points: 3
#     Node 7, Type 0, BuildingBlock: BETDIP_clean_linker_0, # of connection points: 3
#     Node 8, Type 1, BuildingBlock: INOVEN_clean_sbu_0, # of connection points: 6
#     Node 9, Type 1, BuildingBlock: INOVEN_clean_sbu_0, # of connection points: 6
#     Node 10, Type 1, BuildingBlock: INOVEN_clean_sbu_0, # of connection points: 6
#     Node 11, Type 1, BuildingBlock: INOVEN_clean_sbu_0, # of connection points: 6
#     Edge 12, Type (0, 1), BuildingBlock: ZUJKAS_clean_linker_0, # of connection points: 2
#     Edge 13, Type (0, 1), BuildingBlock: ZUJKAS_clean_linker_0, # of connection points: 2
#     Edge 14, Type (0, 1), BuildingBlock: ZUJKAS_clean_linker_0, # of connection points: 2
#     Edge 15, Type (0, 1), BuildingBlock: ZUJKAS_clean_linker_0, # of connection points: 2
#     Edge 16, Type (0, 1), BuildingBlock: ZUJKAS_clean_linker_0, # of connection points: 2
#     Edge 17, Type (0, 1), BuildingBlock: ZUJKAS_clean_linker_0, # of connection points: 2
#     Edge 18, Type (0, 1), BuildingBlock: ZUJKAS_clean_linker_0, # of connection points: 2
#     Edge 19, Type (0, 1), BuildingBlock: ZUJKAS_clean_linker_0, # of connection points: 2
#     Edge 20, Type (0, 1), BuildingBlock: ZUJKAS_clean_linker_0, # of connection points: 2
#     Edge 21, Type (0, 1), BuildingBlock: ZUJKAS_clean_linker_0, # of connection points: 2
#     Edge 22, Type (0, 1), BuildingBlock: ZUJKAS_clean_linker_0, # of connection points: 2
#     Edge 23, Type (0, 1), BuildingBlock: ZUJKAS_clean_linker_0, # of connection points: 2
#     Edge 24, Type (0, 1), BuildingBlock: ZUJKAS_clean_linker_0, # of connection points: 2
#     Edge 25, Type (0, 1), BuildingBlock: ZUJKAS_clean_linker_0, # of connection points: 2
#     Edge 26, Type (0, 1), BuildingBlock: ZUJKAS_clean_linker_0, # of connection points: 2
#     Edge 27, Type (0, 1), BuildingBlock: ZUJKAS_clean_linker_0, # of connection points: 2
#     Edge 28, Type (0, 1), BuildingBlock: ZUJKAS_clean_linker_0, # of connection points: 2
#     Edge 29, Type (0, 1), BuildingBlock: ZUJKAS_clean_linker_0, # of connection points: 2
#     Edge 30, Type (0, 1), BuildingBlock: ZUJKAS_clean_linker_0, # of connection points: 2
#     Edge 31, Type (0, 1), BuildingBlock: ZUJKAS_clean_linker_0, # of connection points: 2
#     Edge 32, Type (0, 1), BuildingBlock: ZUJKAS_clean_linker_0, # of connection points: 2
#     Edge 33, Type (0, 1), BuildingBlock: ZUJKAS_clean_linker_0, # of connection points: 2
#     Edge 34, Type (0, 1), BuildingBlock: ZUJKAS_clean_linker_0, # of connection points: 2
#     Edge 35, Type (0, 1), BuildingBlock: ZUJKAS_clean_linker_0, # of connection points: 2
# Relax obj value: 0.217
# Max RMSD: 0.170
# Mean RMSD: 0.156
data_MOF--net-zzz--node1-INOVEN_clean_sbu_0--node2-BETDIP_clean_linker_0--edge1-ZUJKAS_clean_linker_0
_symmetry_space_group_name_H-M    P1
_symmetry_Int_Tables_number       1
_symmetry_cell_setting            triclinic
loop_
_symmetry_equiv_pos_as_xyz
'x, y, z'
_cell_length_a     68.488352
_cell_length_b     68.569172
_cell_length_c     17.09178
_cell_angle_alpha  90.043068
_cell_angle_beta   90.090655
_cell_angle_gamma 90.085632
loop_
_atom_site_label
_atom_site_type_symbol
_atom_site_fract_x
_atom_site_fract_y
_atom_site_fract_z
_atom_type_partial_charge
H0 H 0.75764 0.52643 0.40135 0.0
H1 H 0.74152 0.52507 0.15748 0.0
H2 H 0.80203 0.5241 0.22359 0.0
H3 H 0.72149 0.55603 0.25491 0.0
C4 C 0.71506 0.54174 0.26506 0.0
C5 C 0.7618 0.52581 0.3403 0.0
C6 C 0.78178 0.52575 0.3193 0.0
C7 C 0.74723 0.52605 0.28141 0.0
C8 C 0.75271 0.52522 0.20244 0.0
C9 C 0.77238 0.52446 0.18121 0.0
C10 C 0.78675 0.52492 0.2398 0.0
N11 N 0.72702 0.52717 0.3002 0.0
H12 H 1.00867 0.75876 0.36935 0.0
H13 H 1.00986 0.74722 0.12115 0.0
H14 H 0.02085 0.80501 0.2062 0.0
H15 H 0.97879 0.72873 0.18512 0.0
C16 C 0.99078 0.72042 0.21029 0.0
C17 C 0.01056 0.76387 0.30989 0.0
C18 C 0.01502 0.78371 0.29551 0.0
C19 C 1.0085 0.75064 0.24666 0.0
C20 C 0.01113 0.75733 0.16966 0.0
C21 C 0.01552 0.77689 0.15484 0.0
C22 C 0.01737 0.78986 0.21782 0.0
N23 N 1.00425 0.73053 0.25957 0.0
H24 H 0.76963 0.01121 0.39412 0.0
H25 H 0.78873 1.0056 0.1546 0.0
H26 H 0.72759 1.00724 0.20687 0.0
H27 H 0.80896 0.97908 0.27112 0.0
C28 C 0.81445 0.99395 0.27359 0.0
C29 C 0.76623 0.01015 0.33236 0.0
C30 C 0.74653 1.00904 0.30739 0.0
C31 C 0.78154 1.00862 0.27698 0.0
C32 C 0.77707 1.00672 0.1972 0.0
C33 C 0.7577 1.00672 0.17197 0.0
C34 C 0.74262 1.00783 0.22696 0.0
N35 N 0.8015 1.00878 0.30029 0.0
H36 H 0.5233 0.76807 0.33721 0.0
H37 H 0.51127 0.7804 0.09458 0.0
H38 H 0.506 0.7219 0.18059 0.0
H39 H 0.54629 0.7975 0.14538 0.0
C40 C 0.5352 0.80624 0.17441 0.0
C41 C 0.5188 0.76312 0.27973 0.0
C42 C 0.51523 0.74307 0.26613 0.0
C43 C 0.51767 0.77661 0.21722 0.0
C44 C 0.51217 0.77008 0.14243 0.0
C45 C 0.50807 0.75039 0.12878 0.0
C46 C 0.50951 0.73711 0.19085 0.0
N47 N 0.52246 0.79666 0.228 0.0
H48 H 0.27073 0.51763 1.00161 0.0
H49 H 0.28587 0.52261 0.2458 0.0
H50 H 0.22569 0.52336 0.17573 0.0
H51 H 0.30795 0.54888 0.14299 0.0
C52 C 0.3137 0.53421 0.13607 0.0
C53 C 0.26633 0.51892 0.06222 0.0
C54 C 0.2463 0.52056 0.08145 0.0
C55 C 0.28068 0.52014 0.12175 0.0
C56 C 0.27489 0.52204 0.20009 0.0
C57 C 0.25513 0.52275 0.21998 0.0
C58 C 0.24102 0.5222 0.16047 0.0
N59 N 0.301 0.51974 0.1041 0.0
H60 H 0.01883 0.26858 0.0299 0.0
H61 H 1.00707 0.27805 0.27459 0.0
H62 H 1.00711 0.21984 0.18107 0.0
H63 H 0.98535 0.30331 0.18129 0.0
C64 C 1.00011 0.30894 0.17443 0.0
C65 C 0.01562 0.26285 0.08751 0.0
C66 C 0.01344 0.24255 0.09852 0.0
C67 C 0.01294 0.27575 0.15113 0.0
C68 C 1.00866 0.26817 0.22551 0.0
C69 C 1.00688 0.24804 0.23732 0.0
C70 C 1.00915 0.23541 0.17332 0.0
N71 N 0.01444 0.29633 0.14135 0.0
H72 H 0.25883 0.02602 0.0353 0.0
H73 H 0.24395 0.9784 0.1891 0.0
H74 H 0.30193 0.98319 0.09482 0.0
H75 H 0.21376 0.98372 0.10106 0.0
C76 C 0.21306 0.99811 0.12769 0.0
C77 C 0.26282 0.01269 0.06521 0.0
C78 C 0.28186 1.00512 0.05744 0.0
C79 C 0.24888 1.00279 0.11156 0.0
C80 C 0.25439 0.98568 0.15151 0.0
C81 C 0.27348 0.97842 0.14602 0.0
C82 C 0.28693 0.98819 0.09807 0.0
N83 N 0.22972 0.01053 0.12172 0.0
H84 H 0.50703 0.2624 0.02986 0.0
H85 H 0.5268 0.25107 0.26526 0.0
H86 H 0.52306 0.30991 0.18141 0.0
H87 H 0.54451 0.22652 0.17318 0.0
C88 C 0.5298 0.22084 0.16527 0.0
C89 C 0.51215 0.26766 0.08604 0.0
C90 C 0.51415 0.28791 0.09945 0.0
C91 C 0.5171 0.25424 0.14571 0.0
C92 C 0.52359 0.26127 0.21861 0.0
C93 C 0.52554 0.28128 0.23242 0.0
C94 C 0.52095 0.29439 0.17228 0.0
N95 N 0.51547 0.23371 0.13367 0.0
Gd96 Gd 0.02611 1.00857 0.76796 0.0
Gd97 Gd 1.00224 0.01731 0.63806 0.0
C98 C 0.01393 0.97336 0.64785 0.0
C99 C 0.04297 0.9916 0.88392 0.0
C100 C 0.05269 0.97252 0.88419 0.0
C101 C 0.06378 0.96654 0.8193 0.0
C102 C 0.04809 0.95899 0.94252 0.0
C103 C 0.06374 0.93319 0.86719 0.0
C104 C 0.0535 0.93949 0.93407 0.0
C105 C 0.06938 0.94708 0.8112 0.0
C106 C 0.04753 0.01915 0.6411 0.0
C107 C 0.01474 0.05259 0.75674 0.0
C108 C 0.98491 0.03442 0.52365 0.0
C109 C 0.97449 0.05309 0.52662 0.0
C110 C 0.96524 0.05891 0.5962 0.0
C111 C 0.9765 0.06644 0.46538 0.0
C112 C 0.96167 0.09181 0.54575 0.0
C113 C 0.97016 0.08565 0.4748 0.0
C114 C 0.95879 0.07806 0.6055 0.0
C115 C 0.98088 1.00693 0.76544 0.0
O116 O 0.01865 0.97823 0.72035 0.0
O117 O 1.00938 0.98709 0.59722 0.0
O118 O 0.05141 1.00533 0.84314 0.0
O119 O 0.02411 0.99079 0.87235 0.0
O120 O 0.05064 0.02531 0.7116 0.0
O121 O 0.03301 1.00777 0.64033 0.0
O122 O 1.00993 0.04762 0.68453 0.0
O123 O 0.01926 0.03895 0.80777 0.0
O124 O 0.97696 0.02006 0.56247 0.0
O125 O 1.00372 0.03582 0.53554 0.0
O126 O 0.97773 1.00072 0.69509 0.0
O127 O 0.99543 0.01827 0.76578 0.0
H128 H 0.06728 0.97665 0.77271 0.0
H129 H 0.03926 0.96325 0.99222 0.0
H130 H 0.04856 0.9292 0.97779 0.0
H131 H 0.07748 0.94281 0.75961 0.0
H132 H 0.96384 0.04891 0.64497 0.0
H133 H 0.98394 0.06232 0.41197 0.0
H134 H 0.97299 0.0959 0.42803 0.0
H135 H 0.95216 0.08225 0.66048 0.0
Gd136 Gd 0.52032 0.02464 0.76108 0.0
Gd137 Gd 0.50565 1.00689 0.60149 0.0
C138 C 0.55177 0.01127 0.62579 0.0
C139 C 0.54043 0.029 0.88632 0.0
C140 C 0.55886 0.01898 0.90354 0.0
C141 C 0.57422 0.02897 0.94001 0.0
C142 C 0.56227 1.00043 0.87114 0.0
C143 C 0.59654 1.00274 0.90513 0.0
C144 C 0.58092 0.99239 0.87195 0.0
C145 C 0.59294 0.02086 0.94115 0.0
C146 C 0.50938 0.05089 0.65135 0.0
C147 C 0.47438 0.01822 0.74116 0.0
C148 C 0.48828 1.00192 0.4703 0.0
C149 C 0.46998 0.99106 0.455 0.0
C150 C 0.47037 0.97327 0.41412 0.0
C151 C 0.45238 0.99717 0.4894 0.0
C152 C 0.43635 0.96729 0.44767 0.0
C153 C 0.43582 0.98541 0.48592 0.0
C154 C 0.45366 0.96149 0.41024 0.0
C155 C 0.50974 0.97805 0.71114 0.0
O156 O 0.54799 0.01416 0.70099 0.0
O157 O 0.53763 0.00994 0.57304 0.0
O158 O 0.54143 0.04133 0.82794 0.0
O159 O 0.52489 0.01783 0.88339 0.0
O160 O 0.5073 0.05355 0.7263 0.0
O161 O 0.51829 0.03506 0.63888 0.0
O162 O 0.47765 0.01462 0.66591 0.0
O163 O 0.48873 0.02093 0.79202 0.0
O164 O 0.50327 0.99123 0.49167 0.0
O165 O 0.48655 0.01802 0.51145 0.0
O166 O 0.50439 0.97493 0.63953 0.0
O167 O 0.51273 0.99603 0.71788 0.0
H168 H 0.57195 0.04342 0.96401 0.0
H169 H 0.55073 0.99256 0.84135 0.0
H170 H 0.58325 0.97835 0.84446 0.0
H171 H 0.60479 0.02923 0.96657 0.0
H172 H 0.48375 0.96818 0.38733 0.0
H173 H 0.45145 0.01082 0.52106 0.0
H174 H 0.42253 0.99055 0.51338 0.0
H175 H 0.45442 0.94765 0.37982 0.0
Gd176 Gd 0.50109 0.52312 0.76706 0.0
Gd177 Gd 0.52611 0.51324 0.64116 0.0
C178 C 0.515 0.55755 0.64647 0.0
C179 C 0.48292 0.54134 0.87633 0.0
C180 C 0.47248 0.55995 0.8689 0.0
C181 C 0.46298 0.56466 0.79839 0.0
C182 C 0.47464 0.57426 0.92662 0.0
C183 C 0.45936 0.59826 0.84094 0.0
C184 C 0.46817 0.59325 0.91281 0.0
C185 C 0.45638 0.5836 0.78474 0.0
C186 C 0.48078 0.51149 0.63842 0.0
C187 C 0.51263 0.47915 0.76436 0.0
C188 C 0.54345 0.49558 0.52753 0.0
C189 C 0.55081 0.47543 0.52305 0.0
C190 C 0.5705 0.4719 0.50499 0.0
C191 C 0.53882 0.45976 0.54554 0.0
C192 C 0.56631 0.43771 0.5374 0.0
C193 C 0.54654 0.4411 0.55286 0.0
C194 C 0.5782 0.45306 0.51152 0.0
C195 C 0.5464 0.52537 0.76873 0.0
O196 O 0.50864 0.55304 0.71712 0.0
O197 O 0.52082 0.54367 0.59862 0.0
O198 O 0.47528 0.52656 0.83891 0.0
O199 O 0.50182 0.54263 0.86693 0.0
O200 O 0.47707 0.50598 0.70918 0.0
O201 O 0.49534 0.52282 0.63842 0.0
O202 O 0.5184 0.48343 0.69256 0.0
O203 O 0.50732 0.49318 0.81239 0.0
O204 O 0.55265 0.50684 0.57698 0.0
O205 O 0.52448 0.49765 0.53108 0.0
O206 O 0.54988 0.5309 0.69765 0.0
O207 O 0.53196 0.51382 0.76977 0.0
H208 H 0.46146 0.55393 0.75219 0.0
H209 H 0.48227 0.57101 0.98065 0.0
H210 H 0.47109 0.60422 0.9569 0.0
H211 H 0.44952 0.58689 0.72918 0.0
H212 H 0.58001 0.48378 0.48779 0.0
H213 H 0.52358 0.46195 0.55978 0.0
H214 H 0.53708 0.42926 0.57113 0.0
H215 H 0.59343 0.45053 0.49792 0.0
Gd216 Gd 1.00886 0.50389 0.77095 0.0
Gd217 Gd 0.02072 0.52406 0.61469 0.0
C218 C 0.97527 0.51704 0.6404 0.0
C219 C 0.98977 0.49349 0.89326 0.0
C220 C 0.96853 0.4949 0.90622 0.0
C221 C 0.95728 0.4778 0.90896 0.0
C222 C 0.95903 0.513 0.90052 0.0
C223 C 0.9277 0.49663 0.88681 0.0
C224 C 0.93883 0.51385 0.8913 0.0
C225 C 0.93705 0.47864 0.8992 0.0
C226 C 0.02075 0.4799 0.65477 0.0
C227 C 0.0537 0.51441 0.75073 0.0
C228 C 0.03929 0.52953 0.48728 0.0
C229 C 0.05898 0.53799 0.4846 0.0
C230 C 0.06501 0.55021 0.54619 0.0
C231 C 0.07302 0.53006 0.43446 0.0
C232 C 0.09896 0.54385 0.51547 0.0
C233 C 0.09287 0.53311 0.44933 0.0
C234 C 0.08478 0.5531 0.56158 0.0
C235 C 0.01627 0.55167 0.72882 0.0
O236 O 0.97981 0.5122 0.71364 0.0
O237 O 0.98885 0.52076 0.58737 0.0
O238 O 0.99482 0.48119 0.83837 0.0
O239 O 0.99948 0.50996 0.88957 0.0
O240 O 0.02522 0.4775 0.72807 0.0
O241 O 1.01 0.49476 0.64689 0.0
O242 O 0.0495 0.5175 0.67597 0.0
O243 O 0.03992 0.51083 0.80304 0.0
O244 O 0.02521 0.54127 0.50972 0.0
O245 O 0.03882 0.51253 0.52227 0.0
O246 O 0.02031 0.55565 0.65658 0.0
O247 O 0.01429 0.5335 0.73406 0.0
H248 H 0.96425 0.46367 0.91364 0.0
H249 H 0.96725 0.52649 0.89778 0.0
H250 H 0.9322 0.52798 0.88179 0.0
H251 H 0.92883 0.46514 0.8989 0.0
H252 H 0.0545 0.55622 0.58673 0.0
H253 H 0.0687 0.52039 0.38731 0.0
H254 H 0.10344 0.52627 0.41113 0.0
H255 H 0.08886 0.56134 0.61315 0.0
H256 H 0.20703 0.02897 0.22991 0.0
H257 H 0.17829 0.03436 0.31348 0.0
H258 H 0.15028 0.98408 0.21103 0.0
H259 H 0.179 0.97837 0.12962 0.0
H260 H 0.13926 0.04094 0.28463 0.0
H261 H 0.14765 0.97066 0.44008 0.0
H262 H 0.1664 0.9804 0.37719 0.0
H263 H 0.14584 0.96754 0.33617 0.0
C264 C 0.19467 0.01917 0.22498 0.0
C265 C 0.1953 1.00316 0.17355 0.0
C266 C 0.17825 0.02224 0.27284 0.0
C267 C 0.16223 1.00935 0.27012 0.0
C268 C 0.16261 0.99391 0.21612 0.0
H269 H 0.05025 0.99685 0.50806 0.0
H270 H 0.07757 0.99564 0.41515 0.0
C271 C 0.17899 0.99076 0.16905 0.0
C272 C 0.14521 0.01173 0.32399 0.0
H273 H 0.1176 0.98739 0.45936 0.0
C274 C 0.13462 0.02928 0.32321 0.0
C275 C 0.1391 0.99656 0.37483 0.0
C276 C 0.15046 0.97781 0.38287 0.0
C277 C 0.11788 0.03184 0.37008 0.0
C278 C 0.11159 0.01651 0.41949 0.0
C279 C 0.12226 0.99906 0.42081 0.0
C280 C 0.09431 0.01839 0.47205 0.0
C281 C 0.1068 0.05079 0.36529 0.0
C282 C 0.09456 0.03161 0.53481 0.0
C283 C 0.07905 0.03224 0.58813 0.0
C284 C 0.06291 0.01968 0.57985 0.0
C285 C 0.06242 1.00678 0.51583 0.0
C286 C 0.07805 1.00604 0.46284 0.0
H287 H 0.11082 0.05932 0.31245 0.0
H288 H 0.09081 0.04809 0.36453 0.0
H289 H 0.11021 0.05977 0.41762 0.0
H290 H 0.10704 0.04106 0.54397 0.0
H291 H 0.07989 0.04229 0.63695 0.0
H292 H 0.49608 0.19835 0.15585 0.0
H293 H 0.48937 0.1677 0.22588 0.0
H294 H 0.54568 0.17164 0.33859 0.0
H295 H 0.55269 0.20141 0.2662 0.0
H296 H 0.54029 0.13631 0.2957 0.0
H297 H 0.47267 0.16002 0.44614 0.0
H298 H 0.47097 0.16083 0.34147 0.0
H299 H 0.48778 0.17672 0.39174 0.0
C300 C 0.50697 0.19259 0.19554 0.0
C301 C 0.52491 0.20227 0.20567 0.0
C302 C 0.50308 0.17515 0.23618 0.0
C303 C 0.51686 0.16738 0.289 0.0
C304 C 0.53476 0.17716 0.29843 0.0
H305 H 0.50207 0.08935 0.67925 0.0
H306 H 0.50271 0.1163 0.58587 0.0
C307 C 0.53875 0.19425 0.25703 0.0
C308 C 0.51321 0.149 0.33409 0.0
H309 H 0.4825 0.12742 0.46608 0.0
C310 C 0.5276 0.13439 0.33282 0.0
C311 C 0.49676 0.14642 0.3833 0.0
C312 C 0.48125 0.16189 0.39154 0.0
C313 C 0.5264 0.11773 0.38063 0.0
C314 C 0.50982 0.11499 0.42902 0.0
C315 C 0.49515 0.12934 0.42876 0.0
C316 C 0.50811 0.09815 0.48442 0.0
C317 C 0.54349 0.10384 0.38152 0.0
C318 C 0.51041 0.07875 0.45897 0.0
C319 C 0.5105 0.06331 0.51285 0.0
C320 C 0.50769 0.06686 0.59305 0.0
C321 C 0.50432 0.08611 0.61789 0.0
C322 C 0.50463 0.10156 0.56434 0.0
H323 H 0.55703 0.11087 0.35943 0.0
H324 H 0.54639 0.09831 0.44144 0.0
H325 H 0.54022 0.09124 0.34287 0.0
H326 H 0.51244 0.07554 0.39753 0.0
H327 H 0.51302 0.04862 0.49183 0.0
H328 H 0.33207 0.49841 0.15585 0.0
H329 H 0.36183 0.49192 0.23286 0.0
H330 H 0.3673 0.55329 0.28307 0.0
H331 H 0.33779 0.55981 0.2069 0.0
H332 H 0.40212 0.50883 0.22206 0.0
H333 H 0.36446 0.52584 0.50119 0.0
H334 H 0.35137 0.52032 0.41206 0.0
H335 H 0.36186 0.54409 0.42649 0.0
C336 C 0.33976 0.5105 0.18262 0.0
C337 C 0.33255 0.52963 0.17557 0.0
C338 C 0.35676 0.50679 0.2266 0.0
C339 C 0.36668 0.5221 0.26459 0.0
C340 C 0.3598 0.54121 0.25521 0.0
H341 H 0.47986 0.5313 0.49837 0.0
H342 H 0.4529 0.53236 0.40343 0.0
C343 C 0.34295 0.54492 0.21138 0.0
C344 C 0.38376 0.5183 0.31674 0.0
H345 H 0.3989 0.52273 0.50663 0.0
C346 C 0.40141 0.51172 0.28437 0.0
C347 C 0.38281 0.52193 0.39819 0.0
C348 C 0.36408 0.52828 0.43694 0.0
C349 C 0.41824 0.50915 0.33103 0.0
C350 C 0.41746 0.51345 0.41211 0.0
C351 C 0.39964 0.51957 0.44451 0.0
C352 C 0.43475 0.51157 0.46515 0.0
C353 C 0.43665 0.50167 0.29329 0.0
C354 C 0.43363 0.49961 0.53169 0.0
C355 C 0.44894 0.49909 0.58603 0.0
C356 C 0.46575 0.5106 0.57556 0.0
C357 C 0.46717 0.52217 0.50787 0.0
C358 C 0.45178 0.52271 0.45335 0.0
H359 H 0.43354 0.49422 0.23686 0.0
H360 H 0.44655 0.51413 0.28127 0.0
H361 H 0.4444 0.49135 0.33253 0.0
H362 H 0.42069 0.49091 0.54239 0.0
H363 H 0.44738 0.49 0.63745 0.0
H364 H 0.97441 0.33416 0.23673 0.0
H365 H 0.98086 0.36432 0.30837 0.0
H366 H 0.04265 0.35701 0.27026 0.0
H367 H 0.03616 0.32674 0.19708 0.0
H368 H 1.00193 0.36735 0.44381 0.0
H369 H 0.03425 0.41466 0.21413 0.0
H370 H 0.02094 0.39261 0.19136 0.0
H371 H 0.04566 0.39126 0.22613 0.0
C372 C 0.98937 0.33912 0.24253 0.0
C373 C 1.00475 0.32811 0.211 0.0
C374 C 0.99305 0.35636 0.28372 0.0
C375 C 0.01222 0.36311 0.29446 0.0
C376 C 0.02769 0.35234 0.26168 0.0
H377 H 0.04069 0.4457 0.6687 0.0
H378 H 0.04044 0.41786 0.57897 0.0
C379 C 0.02398 0.33499 0.22006 0.0
C380 C 0.01577 0.38068 0.3443 0.0
H381 H 0.03361 0.42737 0.34314 0.0
C382 C 1.00893 0.38044 0.42175 0.0
C383 C 0.02471 0.39787 0.31548 0.0
C384 C 0.03169 0.3993 0.23206 0.0
C385 C 0.01068 0.3968 0.4709 0.0
C386 C 0.01988 0.41391 0.44261 0.0
C387 C 0.02672 0.41422 0.3651 0.0
C388 C 0.02197 0.43168 0.49254 0.0
C389 C 1.00216 0.39577 0.5522 0.0
C390 C 0.01242 0.44912 0.47238 0.0
C391 C 0.01266 0.46516 0.52352 0.0
C392 C 0.02248 0.46407 0.59574 0.0
C393 C 0.03284 0.44696 0.61387 0.0
C394 C 0.03264 0.43098 0.56274 0.0
H395 H 0.99152 0.38361 0.55806 0.0
H396 H 0.01409 0.39332 0.59506 0.0
H397 H 0.99472 0.40962 0.56771 0.0
H398 H 1.00417 0.45007 0.41839 0.0
H399 H 1.0046 0.47816 0.50775 0.0
H400 H 0.84115 0.96753 0.22742 0.0
H401 H 0.87117 0.97284 0.15326 0.0
H402 H 0.86076 0.03483 0.15572 0.0
H403 H 0.83049 0.02953 0.23037 0.0
H404 H 0.86945 0.02006 0.00645 0.0
H405 H 0.92428 0.99448 0.22112 0.0
H406 H 0.90482 0.9773 0.20618 0.0
H407 H 0.89962 1.00075 0.24854 0.0
C408 C 0.84542 0.98234 0.21334 0.0
C409 C 0.83353 0.9981 0.23535 0.0
C410 C 0.86265 0.98536 0.17115 0.0
C411 C 0.86847 1.00426 0.14973 0.0
C412 C 0.8567 0.02012 0.17214 0.0
H413 H 0.98067 0.02557 0.90813 0.0
H414 H 0.95392 0.02652 0.00402 0.0
C415 C 0.83944 0.0171 0.21507 0.0
C416 C 0.88612 1.00707 0.09965 0.0
H417 H 0.93481 0.99626 0.08741 0.0
C418 C 0.88378 0.01508 0.02461 0.0
C419 C 0.90493 1.00079 0.12329 0.0
C420 C 0.90866 0.99302 0.20448 0.0
C421 C 0.89948 0.01615 0.97159 0.0
C422 C 0.91802 1.00882 0.99364 0.0
C423 C 0.92058 1.00165 0.06995 0.0
C424 C 0.93464 1.00779 0.93724 0.0
C425 C 0.89601 0.02506 0.89209 0.0
C426 C 0.93297 0.99654 0.86884 0.0
C427 C 0.94822 0.99591 0.8144 0.0
C428 C 0.96556 1.00649 0.82702 0.0
C429 C 0.96749 0.01729 0.89664 0.0
C430 C 0.9522 0.01787 0.95139 0.0
H431 H 0.88308 0.03482 0.89219 0.0
H432 H 0.90894 0.03352 0.87239 0.0
H433 H 0.89328 0.01325 0.84899 0.0
H434 H 0.91979 0.98827 0.8573 0.0
H435 H 0.94628 0.98734 0.7617 0.0
H436 H 0.55775 0.82559 0.07157 0.0
H437 H 0.55238 0.85754 0.01281 0.0
H438 H 0.50047 0.86487 0.15218 0.0
H439 H 0.50569 0.83248 0.21068 0.0
H440 H 0.49388 0.87389 1.00008 0.0
H441 H 0.56094 0.91191 0.09505 0.0
H442 H 0.5666 0.88925 0.04797 0.0
H443 H 0.55307 0.88921 0.1383 0.0
C444 C 0.54534 0.83412 0.0907 0.0
C445 C 0.53223 0.82655 0.14613 0.0
C446 C 0.54235 0.85249 0.05736 0.0
C447 C 0.52623 0.86391 0.07896 0.0
C448 C 0.51313 0.85646 0.13503 0.0
H449 H 0.51567 0.98188 0.8704 0.0
H450 H 0.51853 0.95554 0.96745 0.0
C451 C 0.51615 0.83797 0.16864 0.0
C452 C 0.5225 0.88285 0.03828 0.0
H453 H 0.54478 0.92523 0.98115 0.0
C454 C 0.50491 0.88523 0.99705 0.0
C455 C 0.53668 0.89792 0.03499 0.0
C456 C 0.55528 0.89705 0.08218 0.0
C457 C 0.50159 0.90165 0.94943 0.0
C458 C 0.5164 0.91596 0.94133 0.0
C459 C 0.53352 0.91416 0.9861 0.0
C460 C 0.51486 0.93219 0.88331 0.0
C461 C 0.48224 0.90339 0.90767 0.0
C462 C 0.51229 0.92794 0.80359 0.0
C463 C 0.51078 0.94292 0.74846 0.0
C464 C 0.51201 0.96259 0.77132 0.0
C465 C 0.51489 0.96691 0.8509 0.0
C466 C 0.51642 0.95185 0.90639 0.0
H467 H 0.47057 0.89528 0.93898 0.0
H468 H 0.47773 0.91886 0.90176 0.0
H469 H 0.48356 0.897 0.84823 0.0
H470 H 0.51156 0.91295 0.78373 0.0
H471 H 0.50866 0.93906 0.68756 0.0
H472 H 0.69651 0.5062 0.24122 0.0
H473 H 0.6658 0.50054 0.16944 0.0
H474 H 0.65946 0.56248 0.13497 0.0
H475 H 0.68994 0.56816 0.20619 0.0
H476 H 0.62399 0.54308 0.17831 0.0
H477 H 0.66148 0.50717 0.92813 0.0
H478 H 0.666 0.49714 0.02366 0.0
H479 H 0.67457 0.52121 1.00066 0.0
C480 C 0.68841 0.51859 0.21918 0.0
C481 C 0.69563 0.53765 0.22935 0.0
C482 C 0.67093 0.51534 0.17771 0.0
C483 C 0.66037 0.53109 0.14601 0.0
C484 C 0.66728 0.5501 0.15871 0.0
H485 H 0.58091 0.54499 0.76319 0.0
H486 H 0.60731 0.54507 0.85952 0.0
C487 C 0.68473 0.55332 0.19944 0.0
C488 C 0.64256 0.52802 0.09686 0.0
H489 H 0.62755 0.51153 0.91756 0.0
C490 C 0.6247 0.53596 0.12172 0.0
C491 C 0.64352 0.51895 0.02251 0.0
C492 C 0.6624 0.51072 0.99146 0.0
C493 C 0.6079 0.53532 0.07393 0.0
C494 C 0.60894 0.52646 0.99924 0.0
C495 C 0.62671 0.51823 0.97495 0.0
C496 C 0.59222 0.5268 0.94297 0.0
C497 C 0.58936 0.54481 0.1023 0.0
C498 C 0.57477 0.5166 0.95779 0.0
C499 C 0.55955 0.5165 0.90238 0.0
C500 C 0.56153 0.5266 0.83114 0.0
C501 C 0.57887 0.53706 0.81737 0.0
C502 C 0.59404 0.53708 0.87236 0.0
H503 H 0.59184 0.55385 0.1554 0.0
H504 H 0.58299 0.55416 0.05579 0.0
H505 H 0.57851 0.53334 0.11675 0.0
H506 H 0.57307 0.50838 0.01143 0.0
H507 H 0.54643 0.50822 0.91457 0.0
H508 H 0.96765 0.7007 0.11024 0.0
H509 H 0.9733 0.66914 0.04849 0.0
H510 H 0.02705 0.663 0.17792 0.0
H511 H 0.02157 0.69506 0.23909 0.0
H512 H 0.03234 0.65426 0.0266 0.0
H513 H 0.96701 0.61446 0.12697 0.0
H514 H 0.96026 0.63699 0.08136 0.0
H515 H 0.97453 0.63731 0.17005 0.0
C516 C 0.98055 0.69251 0.12653 0.0
C517 C 0.99408 0.70033 0.17993 0.0
C518 C 0.9837 0.67435 0.09152 0.0
C519 C 1.00039 0.66335 0.10952 0.0
C520 C 0.01394 0.67106 0.16352 0.0
H521 H 0.01089 0.54652 0.88797 0.0
H522 H 1.00844 0.57216 0.98861 0.0
C523 C 0.01079 0.68937 0.19867 0.0
C524 C 1.00419 0.64462 0.06719 0.0
H525 H 0.98231 0.60203 0.00941 0.0
C526 C 0.02152 0.64272 0.02399 0.0
C527 C 0.99031 0.62925 0.06445 0.0
C528 C 0.9721 0.6295 0.11394 0.0
C529 C 0.0248 0.62654 0.97493 0.0
C530 C 1.01019 0.61199 0.96721 0.0
C531 C 0.99339 0.61328 0.01399 0.0
C532 C 0.01152 0.59615 0.90722 0.0
C533 C 0.04389 0.62533 0.93127 0.0
C534 C 0.01358 0.601 0.82788 0.0
C535 C 0.01494 0.58645 0.77083 0.0
C536 C 0.01404 0.56661 0.79124 0.0
C537 C 0.01155 0.56165 0.87041 0.0
C538 C 1.01022 0.57631 0.92791 0.0
H539 H 0.05566 0.63332 0.96263 0.0
H540 H 0.04854 0.60996 0.92297 0.0
H541 H 0.04214 0.63217 0.87286 0.0
H542 H 0.01406 0.61613 0.80981 0.0
H543 H 0.01673 0.59081 0.71035 0.0
H544 H 0.9806 0.26213 0.34475 0.0
H545 H 0.96952 0.24604 0.46455 0.0
H546 H 1.01022 0.19917 0.42238 0.0
H547 H 0.0221 0.21569 0.30669 0.0
H548 H 0.95056 0.21489 0.46844 0.0
H549 H 0.01368 0.19943 0.65107 0.0
H550 H 0.01487 0.21782 0.57552 0.0
H551 H 0.02131 0.19275 0.55483 0.0
C552 C 0.98767 0.24876 0.36283 0.0
C553 C 1.00204 0.24002 0.31562 0.0
C554 C 0.98129 0.23955 0.43127 0.0
C555 C 0.98916 0.22147 0.45359 0.0
C556 C 1.00425 0.21336 0.40848 0.0
H557 H 0.94709 0.11843 0.44229 0.0
H558 H 0.94835 0.15358 0.45408 0.0
C559 C 0.01077 0.22262 0.34095 0.0
C560 C 0.97949 0.20913 0.51355 0.0
H561 H 0.99139 0.17015 0.62661 0.0
C562 C 0.95937 0.20557 0.50558 0.0
C563 C 0.99042 0.19752 0.56608 0.0
C564 C 0.01122 0.20235 0.58788 0.0
C565 C 0.95087 0.18874 0.53728 0.0
C566 C 0.96299 0.17487 0.57448 0.0
C567 C 0.98216 0.18024 0.59473 0.0
C568 C 0.95791 0.1538 0.57527 0.0
C569 C 0.92931 0.18538 0.52547 0.0
C570 C 0.96281 0.14192 0.63924 0.0
C571 C 0.96276 0.12161 0.63146 0.0
C572 C 0.9578 0.11284 0.55954 0.0
C573 C 0.95135 0.12471 0.49793 0.0
C574 C 0.95165 0.14493 0.50535 0.0
H575 H 0.92115 0.19912 0.53603 0.0
H576 H 0.92653 0.18108 0.46382 0.0
H577 H 0.92354 0.17391 0.56503 0.0
H578 H 0.96782 0.14834 0.69365 0.0
H579 H 0.96786 0.11291 0.68018 0.0
H580 H 0.26385 0.97096 0.29962 0.0
H581 H 0.28404 0.95295 0.3924 0.0
H582 H 0.3206 0.93331 0.20286 0.0
H583 H 0.29925 0.94929 0.1094 0.0
H584 H 0.32561 0.9101 0.32262 0.0
H585 H 0.32969 0.98702 0.42985 0.0
H586 H 0.30686 0.97477 0.44372 0.0
H587 H 0.31514 0.98052 0.34633 0.0
C588 C 0.27554 0.96196 0.27713 0.0
C589 C 0.2806 0.9624 0.19734 0.0
C590 C 0.28727 0.95187 0.33058 0.0
C591 C 0.30457 0.94291 0.30511 0.0
C592 C 0.30766 0.94062 0.22447 0.0
H593 H 0.42077 0.94824 0.32167 0.0
H594 H 0.38789 0.93471 0.31128 0.0
C595 C 0.29556 0.95003 0.17094 0.0
C596 C 0.32138 0.93994 0.35881 0.0
H597 H 0.35502 0.96658 0.46059 0.0
C598 C 0.33182 0.9223 0.35457 0.0
C599 C 0.32957 0.95586 0.40085 0.0
C600 C 0.31986 0.97564 0.4053 0.0
C601 C 0.35085 0.92077 0.38483 0.0
C602 C 0.35947 0.93719 0.42089 0.0
C603 C 0.3483 0.95403 0.43272 0.0
C604 C 0.38077 0.93899 0.43352 0.0
C605 C 0.36195 0.90201 0.37426 0.0
C606 C 0.38792 0.94535 0.50614 0.0
C607 C 0.40666 0.95326 0.51197 0.0
C608 C 0.4185 0.95504 0.44515 0.0
C609 C 0.412 0.947 0.37413 0.0
C610 C 0.39324 0.9391 0.36832 0.0
H611 H 0.35187 0.88931 0.37206 0.0
H612 H 0.37 0.90253 0.31799 0.0
H613 H 0.37267 0.89979 0.42223 0.0
H614 H 0.37849 0.94553 0.55698 0.0
H615 H 0.41146 0.959 0.56786 0.0
H616 H 0.51244 0.31295 0.31253 0.0
H617 H 0.52824 0.32925 0.42119 0.0
H618 H 0.56975 0.28214 0.44006 0.0
H619 H 0.55487 0.26644 0.3257 0.0
H620 H 0.53704 0.32326 0.56873 0.0
H621 H 0.60679 0.32533 0.40038 0.0
H622 H 0.58488 0.31589 0.35605 0.0
H623 H 0.59718 0.30221 0.43113 0.0
C624 C 0.52498 0.30603 0.33945 0.0
C625 C 0.53283 0.28879 0.30857 0.0
C626 C 0.53386 0.31523 0.40263 0.0
C627 C 0.55059 0.30723 0.43773 0.0
C628 C 0.55728 0.28894 0.41239 0.0
H629 H 0.57208 0.41678 0.67066 0.0
H630 H 0.57669 0.38131 0.67898 0.0
C631 C 0.54859 0.27986 0.3476 0.0
C632 C 0.56178 0.31968 0.49302 0.0
H633 H 0.60075 0.35062 0.48659 0.0
C634 C 0.55124 0.32901 0.55261 0.0
C635 C 0.58065 0.32667 0.47371 0.0
C636 C 0.59311 0.3171 0.41187 0.0
C637 C 0.55711 0.34724 0.58166 0.0
C638 C 0.5747 0.35562 0.55356 0.0
C639 C 0.58705 0.34436 0.50616 0.0
C640 C 0.57769 0.37707 0.55342 0.0
C641 C 0.54313 0.35825 0.63382 0.0
C642 C 0.57864 0.38666 0.48069 0.0
C643 C 0.57682 0.40685 0.47622 0.0
C644 C 0.57377 0.41773 0.54425 0.0
C645 C 0.57443 0.40849 0.61752 0.0
C646 C 0.57681 0.38826 0.62218 0.0
H647 H 0.52917 0.35028 0.64249 0.0
H648 H 0.54988 0.36051 0.69215 0.0
H649 H 0.53967 0.37273 0.60837 0.0
H650 H 0.57931 0.37844 0.42661 0.0
H651 H 0.57618 0.41376 0.41926 0.0
H652 H 0.22682 0.50215 0.294 0.0
H653 H 0.21148 0.51003 0.41823 0.0
H654 H 0.25434 0.55513 0.45888 0.0
H655 H 0.26942 0.54771 0.33204 0.0
H656 H 0.22042 0.51523 0.57916 0.0
H657 H 0.20429 0.58604 0.43121 0.0
H658 H 0.21541 0.56658 0.37639 0.0
H659 H 0.2291 0.57907 0.45099 0.0
C660 C 0.23318 0.51354 0.32993 0.0
C661 C 0.2489 0.52471 0.30248 0.0
C662 C 0.22458 0.51787 0.40149 0.0
C663 C 0.23154 0.53343 0.44713 0.0
C664 C 0.24855 0.54328 0.4239 0.0
H665 H 0.11996 0.57392 0.58225 0.0
H666 H 0.15471 0.57424 0.61518 0.0
C667 C 0.25717 0.53899 0.35165 0.0
C668 C 0.21846 0.54117 0.50851 0.0
H669 H 0.18047 0.573 0.51164 0.0
C670 C 0.21205 0.5283 0.56696 0.0
C671 C 0.20789 0.55857 0.49475 0.0
C672 C 0.21442 0.57344 0.43511 0.0
C673 C 0.19366 0.53063 0.60173 0.0
C674 C 0.18151 0.54606 0.57639 0.0
C675 C 0.18953 0.56084 0.52953 0.0
C676 C 0.1599 0.5445 0.57812 0.0
C677 C 0.18685 0.51549 0.65952 0.0
C678 C 0.15109 0.52756 0.5481 0.0
C679 C 0.13127 0.52727 0.52999 0.0
C680 C 0.1198 0.54406 0.53978 0.0
C681 C 0.12837 0.56073 0.57362 0.0
C682 C 0.14823 0.56093 0.59281 0.0
H683 H 0.1982 0.51328 0.70516 0.0
H684 H 0.17296 0.51959 0.68834 0.0
H685 H 0.18484 0.50132 0.62902 0.0
H686 H 0.15972 0.51482 0.53403 0.0
H687 H 0.12506 0.51395 0.50665 0.0
H688 H 0.03701 0.75973 0.03756 0.0
H689 H 0.0483 0.77549 0.91695 0.0
H690 H 0.0141 0.82641 0.97416 0.0
H691 H 1.00172 0.81024 0.08978 0.0
H692 H 0.01676 0.82306 0.82226 0.0
H693 H 0.09159 0.81296 0.94573 0.0
H694 H 0.07799 0.79199 0.91417 0.0
H695 H 0.07056 0.80514 1.00027 0.0
C696 C 0.03141 0.77402 0.02261 0.0
C697 C 0.01899 0.78407 0.07428 0.0
C698 C 0.03807 0.7831 0.95421 0.0
C699 C 0.03272 0.80245 0.93792 0.0
C700 C 0.0187 0.81156 0.98547 0.0
H701 H 0.07253 0.90483 0.97403 0.0
H702 H 0.06947 0.86985 0.95602 0.0
C703 C 0.01178 0.8024 0.05238 0.0
C704 C 0.04331 0.81477 0.88044 0.0
H705 H 0.08561 0.84104 0.87489 0.0
C706 C 0.03201 0.82673 0.83152 0.0
C707 C 0.06339 0.81915 0.89066 0.0
C708 C 0.07667 0.80671 0.94048 0.0
C709 C 0.03899 0.8449 0.80626 0.0
C710 C 0.0583 0.85051 0.82623 0.0
C711 C 0.0707 0.83683 0.86154 0.0
C712 C 0.06397 0.87136 0.83117 0.0
C713 C 0.02481 0.8588 0.76806 0.0
C714 C 0.06286 0.8839 0.76659 0.0
C715 C 0.06391 0.9041 0.77732 0.0
C716 C 0.06659 0.91202 0.85273 0.0
C717 C 0.06982 0.89928 0.91568 0.0
C718 C 0.06834 0.8792 0.90514 0.0
H719 H 1.00985 0.8526 0.76334 0.0
H720 H 0.02397 0.87262 0.80176 0.0
H721 H 0.02988 0.86228 0.70828 0.0
H722 H 0.06016 0.87818 0.70871 0.0
H723 H 0.06142 0.91343 0.72723 0.0
H724 H 0.76749 0.97674 0.07504 0.0
H725 H 0.75009 0.96784 0.95464 0.0
H726 H 0.71838 0.02218 0.96556 0.0
H727 H 0.73587 0.03102 0.08378 0.0
H728 H 0.71366 0.961 0.97745 0.0
H729 H 0.71459 0.01323 0.73727 0.0
H730 H 0.73477 0.01155 0.80543 0.0
H731 H 0.7144 0.02762 0.82452 0.0
C732 C 0.75754 0.98714 0.04896 0.0
C733 C 0.75267 1.00438 0.08869 0.0
C734 C 0.74764 0.98209 0.98017 0.0
C735 C 0.73287 0.99428 0.95068 0.0
C736 C 0.72993 0.01263 0.98552 0.0
H737 H 0.62461 1.00141 0.01797 0.0
H738 H 0.65878 0.99207 0.00229 0.0
C739 C 0.73974 0.01762 0.054 0.0
C740 C 0.71684 0.98615 0.90228 0.0
H741 H 0.68041 1.00481 0.78935 0.0
C742 C 0.70678 0.97003 0.93329 0.0
C743 C 0.70788 0.99731 0.84272 0.0
C744 C 0.71869 0.01324 0.80019 0.0
C745 C 0.6869 0.96729 0.91779 0.0
C746 C 0.67708 0.98097 0.87054 0.0
C747 C 0.68789 0.99473 0.828 0.0
C748 C 0.65595 0.98426 0.87995 0.0
C749 C 0.67612 0.95109 0.95889 0.0
C750 C 0.64315 0.983 0.81629 0.0
C751 C 0.62357 0.98829 0.82525 0.0
C752 C 0.61671 0.99531 0.89763 0.0
C753 C 0.62954 0.99619 0.96152 0.0
C754 C 0.64898 0.99068 0.95275 0.0
H755 H 0.68582 0.93834 0.96865 0.0
H756 H 0.67116 0.95635 0.01697 0.0
H757 H 0.66313 0.94634 0.92481 0.0
H758 H 0.64843 0.97827 0.75975 0.0
H759 H 0.61398 0.98754 0.77495 0.0
H760 H 0.52146 0.71819 0.05361 0.0
H761 H 0.50822 0.70316 0.93687 0.0
H762 H 0.4691 0.75189 0.90538 0.0
H763 H 0.48179 0.76661 0.02611 0.0
H764 H 0.44887 0.72136 0.89933 0.0
H765 H 0.50974 0.7048 0.70784 0.0
H766 H 0.51829 0.69772 0.80245 0.0
H767 H 0.51213 0.72297 0.78398 0.0
C768 C 0.51024 0.72587 0.0213 0.0
C769 C 0.5024 0.74337 0.04984 0.0
C770 C 0.50292 0.71746 0.9532 0.0
C771 C 0.48784 0.72651 0.91084 0.0
C772 C 0.48085 0.74469 0.93645 0.0
H773 H 0.46458 0.61747 0.70139 0.0
H774 H 0.46392 0.65264 0.67987 0.0
C775 C 0.48812 0.7531 0.00538 0.0
C776 C 0.47726 0.71493 0.85068 0.0
H777 H 0.48742 0.67557 0.73715 0.0
C778 C 0.45715 0.71182 0.86119 0.0
C779 C 0.48741 0.70313 0.79644 0.0
C780 C 0.50804 0.7076 0.77151 0.0
C781 C 0.44809 0.69505 0.83135 0.0
C782 C 0.45966 0.68078 0.79374 0.0
C783 C 0.47863 0.68588 0.7698 0.0
C784 C 0.45461 0.6597 0.79761 0.0
C785 C 0.42658 0.6921 0.84599 0.0
C786 C 0.44882 0.65176 0.86982 0.0
C787 C 0.44881 0.63168 0.88176 0.0
C788 C 0.45513 0.61901 0.82255 0.0
C789 C 0.45958 0.62679 0.7484 0.0
C790 C 0.45929 0.64696 0.73601 0.0
H791 H 0.41854 0.70581 0.83362 0.0
H792 H 0.42039 0.68024 0.80923 0.0
H793 H 0.42419 0.68861 0.90867 0.0
H794 H 0.44572 0.66105 0.91946 0.0
H795 H 0.44491 0.62616 0.93902 0.0
H796 H 0.75707 0.49981 0.07038 0.0
H797 H 0.77177 0.49148 0.94389 0.0
H798 H 0.81603 0.5354 0.98146 0.0
H799 H 0.80095 0.54431 0.10498 0.0
H800 H 0.80766 0.53013 0.82316 0.0
H801 H 0.82008 0.45852 0.97106 0.0
H802 H 0.79567 0.4665 0.94978 0.0
H803 H 0.80957 0.47841 0.02533 0.0
C804 C 0.76952 0.50812 0.05008 0.0
C805 C 0.77825 0.52233 0.09831 0.0
C806 C 0.77796 0.50327 0.97808 0.0
C807 C 0.7953 0.51244 0.95427 0.0
C808 C 0.80271 0.52803 0.9987 0.0
H809 H 0.9009 0.52401 0.93116 0.0
H810 H 0.86632 0.52493 0.90048 0.0
C811 C 0.79424 0.53296 0.06989 0.0
C812 C 0.80812 0.50403 0.89339 0.0
H813 H 0.8448 0.47055 0.89168 0.0
C814 C 0.81533 0.51664 0.83545 0.0
C815 C 0.81785 0.48613 0.90748 0.0
C816 C 0.81049 0.47153 0.96662 0.0
C817 C 0.83376 0.51353 0.80218 0.0
C818 C 0.845 0.49754 0.82789 0.0
C819 C 0.83622 0.48306 0.87368 0.0
C820 C 0.86651 0.49867 0.83002 0.0
C821 C 0.84199 0.52846 0.74671 0.0
C822 C 0.87812 0.48352 0.8009 0.0
C823 C 0.89809 0.48303 0.81796 0.0
C824 C 0.90665 0.49745 0.86592 0.0
C825 C 0.89496 0.51281 0.89326 0.0
C826 C 0.87515 0.51344 0.87522 0.0
H827 H 0.83022 0.53485 0.71009 0.0
H828 H 0.84878 0.54048 0.78077 0.0
H829 H 0.85328 0.52196 0.70811 0.0
H830 H 0.87163 0.47183 0.76694 0.0
H831 H 0.90677 0.47125 0.79421 0.0
H832 H 0.04502 0.22119 0.05413 0.0
H833 H 0.04464 0.1912 0.97563 0.0
H834 H 0.98353 0.19991 0.92611 0.0
H835 H 0.98396 0.22989 0.00486 0.0
H836 H 0.99101 0.16401 0.99017 0.0
H837 H 0.04139 0.17695 0.74268 0.0
H838 H 0.05182 0.18324 0.83586 0.0
H839 H 0.03107 0.19655 0.79983 0.0
C840 C 0.03176 0.21713 0.02352 0.0
C841 C 0.01465 0.22813 0.03375 0.0
C842 C 0.0315 0.19993 0.97887 0.0
C843 C 0.01409 0.19328 0.94406 0.0
C844 C 0.99718 0.20475 0.95166 0.0
H845 H 1.00568 0.08475 0.66733 0.0
H846 H 1.00482 0.11903 0.70838 0.0
C847 C 0.99747 0.222 0.99595 0.0
C848 C 0.01298 0.17337 0.90836 0.0
H849 H 0.03369 0.14353 0.77092 0.0
C850 C 1.00023 0.15962 0.94172 0.0
C851 C 0.02477 0.16759 0.84441 0.0
C852 C 0.0379 0.18189 0.80299 0.0
C853 C 0.99948 0.1402 0.91509 0.0
C854 C 0.01208 0.13411 0.85415 0.0
C855 C 0.02425 0.14804 0.81846 0.0
C856 C 0.01309 0.11328 0.82832 0.0
C857 C 0.98511 0.12637 0.95246 0.0
C858 C 0.01841 0.09857 0.88148 0.0
C859 C 0.01902 0.07897 0.85818 0.0
C860 C 0.0144 0.07353 0.7809 0.0
C861 C 1.00933 0.08833 0.72734 0.0
C862 C 1.00882 0.10798 0.7507 0.0
H863 H 0.97292 0.13433 0.98099 0.0
H864 H 0.97891 0.11611 0.90865 0.0
H865 H 0.9927 0.11772 0.99811 0.0
H866 H 0.02217 0.10227 0.94126 0.0
H867 H 0.02309 0.06807 0.901 0.0
H868 H 0.29149 0.99776 0.90605 0.0
H869 H 0.32343 1.00392 0.84558 0.0
H870 H 0.34069 0.0377 0.04696 0.0
H871 H 0.30879 0.03146 0.10741 0.0
H872 H 0.34772 0.03842 0.81127 0.0
H873 H 0.37888 0.99046 0.04167 0.0
H874 H 0.353 0.99173 0.02209 0.0
H875 H 0.36484 0.0108 0.07655 0.0
C876 C 0.30178 1.00726 0.93561 0.0
C877 C 0.2975 0.01452 0.01059 0.0
C878 C 0.32012 0.0106 0.90146 0.0
C879 C 0.33461 0.02102 0.9422 0.0
C880 C 0.32984 0.02946 0.01468 0.0
H881 H 0.46092 0.03115 0.88346 0.0
H882 H 0.42713 0.03288 0.92912 0.0
C883 C 0.3115 0.02616 0.04869 0.0
C884 C 0.35513 0.02141 0.91266 0.0
H885 H 0.40109 1.00471 0.95347 0.0
C886 C 0.35941 0.03108 0.84232 0.0
C887 C 0.37041 0.01176 0.95297 0.0
C888 C 0.36663 1.00044 0.02718 0.0
C889 C 0.37857 0.03168 0.8121 0.0
C890 C 0.39386 0.02191 0.85222 0.0
C891 C 0.3895 0.01225 0.92259 0.0
C892 C 0.41444 0.02139 0.82256 0.0
C893 C 0.3823 0.04319 0.73844 0.0
C894 C 0.41879 0.01414 0.74759 0.0
C895 C 0.43815 0.01325 0.72104 0.0
C896 C 0.45374 0.01933 0.76917 0.0
C897 C 0.44937 0.02635 0.84458 0.0
C898 C 0.42999 0.02736 0.87085 0.0
H899 H 0.37085 0.05441 0.72879 0.0
H900 H 0.39675 0.05053 0.74044 0.0
H901 H 0.38207 0.03316 0.68749 0.0
H902 H 0.40723 1.00886 0.70982 0.0
H903 H 0.4409 1.0075 0.66311 0.0
H904 H 0.48576 0.31528 0.10588 0.0
H905 H 0.48472 0.34604 0.03347 0.0
H906 H 0.53307 0.32698 0.89166 0.0
H907 H 0.53403 0.29601 0.96425 0.0
H908 H 0.51817 0.37087 0.03715 0.0
H909 H 0.49621 0.35401 0.73087 0.0
H910 H 0.48999 0.33825 0.81187 0.0
H911 H 0.51449 0.33869 0.77504 0.0
C912 C 0.49561 0.31731 0.05698 0.0
C913 C 0.50976 0.3031 0.03981 0.0
C914 C 0.49513 0.33498 0.01609 0.0
C915 C 0.50877 0.3389 0.95686 0.0
C916 C 0.52217 0.32423 0.93615 0.0
H917 H 0.53343 0.44829 0.70615 0.0
H918 H 0.5331 0.41428 0.75022 0.0
C919 C 0.52265 0.30646 0.97728 0.0
C920 C 0.51039 0.35909 0.92459 0.0
H921 H 0.50502 0.38658 0.75889 0.0
C922 C 0.51524 0.37429 0.97629 0.0
C923 C 0.50694 0.36357 0.84497 0.0
C924 C 0.5015 0.34786 0.78715 0.0
C925 C 0.51661 0.39376 0.95099 0.0
C926 C 0.51241 0.39843 0.87194 0.0
C927 C 0.50803 0.38314 0.81962 0.0
C928 C 0.51222 0.41907 0.84322 0.0
C929 C 0.52297 0.40907 0.00925 0.0
C930 C 0.50041 0.4332 0.87958 0.0
C931 C 0.50066 0.45267 0.85446 0.0
C932 C 0.51243 0.45846 0.79124 0.0
C933 C 0.52396 0.44426 0.75398 0.0
C934 C 0.52385 0.4248 0.77949 0.0
H935 H 0.53158 0.40258 0.0578 0.0
H936 H 0.53192 0.42058 0.98097 0.0
H937 H 0.50986 0.416 0.03524 0.0
H938 H 0.4909 0.42916 0.92747 0.0
H939 H 0.49144 0.46315 0.88405 0.0
H940 H 0.2366 0.49341 0.96868 0.0
H941 H 0.20614 0.49213 0.89176 0.0
H942 H 0.18882 0.54754 0.98863 0.0
H943 H 0.21913 0.54896 0.06358 0.0
H944 H 0.16984 0.49031 0.95218 0.0
H945 H 0.17355 0.55554 0.7638 0.0
H946 H 0.19477 0.54575 0.81258 0.0
H947 H 0.17827 0.56165 0.86411 0.0
C948 C 0.22657 0.50559 0.97123 0.0
C949 C 0.23033 0.52134 0.02179 0.0
C950 C 0.20907 0.50479 0.92785 0.0
C951 C 0.19512 0.51983 0.9335 0.0
C952 C 0.19938 0.53594 0.98139 0.0
H953 H 0.06894 0.51225 0.89973 0.0
H954 H 0.10332 0.51293 0.93905 0.0
C955 C 0.21674 0.53671 0.02465 0.0
C956 C 0.17532 0.51795 0.8966 0.0
H957 H 0.14138 0.54266 0.78777 0.0
C958 C 0.16374 0.50167 0.91545 0.0
C959 C 0.16723 0.53261 0.84785 0.0
C960 C 0.17918 0.54976 0.82021 0.0
C961 C 0.14423 0.50004 0.88984 0.0
C962 C 0.13576 0.51528 0.84527 0.0
C963 C 0.1476 0.53115 0.82342 0.0
C964 C 0.11469 0.51508 0.82125 0.0
C965 C 0.13291 0.48188 0.91058 0.0
C966 C 0.10941 0.51664 0.74203 0.0
C967 C 0.0897 0.51638 0.71936 0.0
C968 C 0.07468 0.5147 0.77539 0.0
C969 C 0.08001 0.51338 0.85479 0.0
C970 C 0.09974 0.51366 0.87739 0.0
H971 H 0.1428 0.46942 0.92289 0.0
H972 H 0.1242 0.48466 0.96412 0.0
H973 H 0.12276 0.47763 0.86274 0.0
H974 H 0.12057 0.51784 0.69748 0.0
H975 H 0.08626 0.51733 0.65765 0.0
H976 H 0.04432 0.81022 0.31321 0.0
H977 H 0.04394 0.8399 0.39081 0.0
H978 H 0.99009 0.82165 0.49918 0.0
H979 H 0.98986 0.79215 0.41699 0.0
H980 H 0.98632 0.85736 0.45484 0.0
H981 H 0.05727 0.8545 0.60569 0.0
H982 H 0.06106 0.85201 0.50276 0.0
H983 H 0.04736 0.83368 0.55514 0.0
C984 C 0.03257 0.81228 0.35477 0.0
C985 C 0.01707 0.79878 0.35851 0.0
C986 C 0.03246 0.82928 0.39997 0.0
C987 C 0.01714 0.83314 0.45228 0.0
C988 C 1.00215 0.81911 0.4596 0.0
H989 H 0.0227 0.94087 0.73615 0.0
H990 H 0.0225 0.90662 0.69467 0.0
C991 C 1.00213 0.80209 0.4133 0.0
C992 C 0.01596 0.85259 0.4926 0.0
H993 H 0.04355 0.88701 0.58741 0.0
C994 C 0.99876 0.86363 0.48517 0.0
C995 C 0.03201 0.86097 0.53324 0.0
C996 C 0.05035 0.84955 0.55038 0.0
C997 C 0.99744 0.88285 0.51404 0.0
C998 C 0.01397 0.8917 0.54941 0.0
C999 C 0.03093 0.88045 0.55947 0.0
C1000 C 0.01405 0.91263 0.57502 0.0
C1001 C 0.97824 0.89345 0.50635 0.0
C1002 C 1.0097 0.92762 0.52165 0.0
C1003 C 1.00964 0.94721 0.54533 0.0
C1004 C 0.01417 0.95244 0.62295 0.0
C1005 C 0.01896 0.93746 0.67606 0.0
C1006 C 0.01892 0.91781 0.65233 0.0
H1007 H 0.9658 0.88308 0.50207 0.0
H1008 H 0.9757 0.90332 0.55683 0.0
H1009 H 0.97839 0.90232 0.45208 0.0
H1010 H 1.00645 0.92418 0.46117 0.0
H1011 H 1.00609 0.95828 0.50246 0.0
H1012 H 0.71827 0.98134 0.31106 0.0
H1013 H 0.68694 0.98243 0.37848 0.0
H1014 H 0.70441 0.0355 0.49485 0.0
H1015 H 0.73587 0.0347 0.42493 0.0
H1016 H 0.67461 0.98206 0.52629 0.0
H1017 H 0.65433 0.0527 0.38981 0.0
H1018 H 0.67553 0.03906 0.35982 0.0
H1019 H 0.6762 0.05342 0.44783 0.0
C1020 C 0.71557 0.99313 0.35186 0.0
C1021 C 0.72953 1.00803 0.3621 0.0
C1022 C 0.69759 0.99375 0.39047 0.0
C1023 C 0.69295 1.00929 0.44056 0.0
C1024 C 0.70735 0.02359 0.45499 0.0
H1025 H 0.58475 0.01484 0.71665 0.0
H1026 H 0.61889 0.01472 0.67476 0.0
C1027 C 0.72547 0.02299 0.41597 0.0
C1028 C 0.67276 0.01059 0.47421 0.0
H1029 H 0.63121 0.03844 0.47447 0.0
C1030 C 0.66524 0.99452 0.51573 0.0
C1031 C 0.66021 0.02661 0.45895 0.0
C1032 C 0.66684 0.04387 0.4111 0.0
C1033 C 0.64574 0.99403 0.54196 0.0
C1034 C 0.63332 0.01008 0.52717 0.0
C1035 C 0.64077 0.0262 0.48624 0.0
C1036 C 0.61244 0.01015 0.55235 0.0
C1037 C 0.63812 0.9759 0.58143 0.0
C1038 C 0.59733 1.00788 0.49733 0.0
C1039 C 0.57768 1.00795 0.521 0.0
C1040 C 0.57267 0.0104 0.60033 0.0
C1041 C 0.58791 0.01275 0.65517 0.0
C1042 C 0.60752 0.01268 0.63139 0.0
H1043 H 0.6498 0.965 0.59212 0.0
H1044 H 0.63121 0.97966 0.63801 0.0
H1045 H 0.62667 0.96916 0.54411 0.0
H1046 H 0.60076 1.00599 0.43594 0.0
H1047 H 0.56643 1.00622 0.47694 0.0
H1048 H 0.53547 0.70929 0.25101 0.0
H1049 H 0.53556 0.68117 0.33771 0.0
H1050 H 0.50196 0.71338 0.50737 0.0
H1051 H 0.50118 0.74162 0.41813 0.0
H1052 H 0.54875 0.67386 0.48007 0.0
H1053 H 0.46786 0.66603 0.48307 0.0
H1054 H 0.48009 0.6829 0.41868 0.0
H1055 H 0.47724 0.68863 0.52072 0.0
C1056 C 0.52815 0.71048 0.30696 0.0
C1057 C 0.51804 0.72764 0.327 0.0
C1058 C 0.52825 0.69434 0.35678 0.0
C1059 C 0.51835 0.69481 0.42861 0.0
C1060 C 0.50924 0.71236 0.45136 0.0
H1061 H 0.50102 0.58982 0.72427 0.0
H1062 H 0.5021 0.624 0.68184 0.0
C1063 C 0.50905 0.72863 0.40088 0.0
C1064 C 0.51743 0.67657 0.47691 0.0
H1065 H 0.48604 0.64157 0.54559 0.0
C1066 C 0.53499 0.66694 0.49489 0.0
C1067 C 0.49952 0.66744 0.4973 0.0
C1068 C 0.48008 0.67665 0.47859 0.0
C1069 C 0.53517 0.6483 0.52931 0.0
C1070 C 0.5173 0.63876 0.54576 0.0
C1071 C 0.49974 0.64878 0.53219 0.0
C1072 C 0.51661 0.61799 0.57219 0.0
C1073 C 0.55456 0.63886 0.54697 0.0
C1074 C 0.52416 0.60312 0.52436 0.0
C1075 C 0.52357 0.58358 0.54832 0.0
C1076 C 0.51537 0.57836 0.62078 0.0
C1077 C 0.50757 0.59326 0.66829 0.0
C1078 C 0.50811 0.61283 0.64406 0.0
H1079 H 0.56637 0.64989 0.55307 0.0
H1080 H 0.55385 0.6301 0.60154 0.0
H1081 H 0.55852 0.62897 0.49808 0.0
H1082 H 0.53044 0.60663 0.46798 0.0
H1083 H 0.52963 0.57257 0.50995 0.0
H1084 H 0.79091 0.49996 0.43729 0.0
H1085 H 0.8218 0.49841 0.51134 0.0
H1086 H 0.84099 0.55152 0.40037 0.0
H1087 H 0.81032 0.55313 0.32756 0.0
H1088 H 0.85837 0.49487 0.44465 0.0
H1089 H 0.8565 0.56164 0.6256 0.0
H1090 H 0.83503 0.5522 0.5771 0.0
H1091 H 0.85236 0.56686 0.52412 0.0
C1092 C 0.80147 0.51162 0.43097 0.0
C1093 C 0.79808 0.52679 0.37733 0.0
C1094 C 0.81921 0.51065 0.47265 0.0
C1095 C 0.83378 0.52495 0.46222 0.0
C1096 C 0.82996 0.54051 0.41104 0.0
H1097 H 0.95964 0.52193 0.49303 0.0
H1098 H 0.9251 0.52285 0.45544 0.0
C1099 C 0.81238 0.54141 0.36927 0.0
C1100 C 0.85361 0.52286 0.49848 0.0
H1101 H 0.88827 0.54734 0.60513 0.0
C1102 C 0.86478 0.50625 0.48055 0.0
C1103 C 0.86212 0.53765 0.5456 0.0
C1104 C 0.8508 0.55549 0.56988 0.0
C1105 C 0.88433 0.50443 0.50555 0.0
C1106 C 0.89306 0.5196 0.54964 0.0
C1107 C 0.88169 0.53582 0.57048 0.0
C1108 C 0.9141 0.51901 0.57296 0.0
C1109 C 0.89563 0.48635 0.48408 0.0
C1110 C 0.91951 0.51672 0.65167 0.0
C1111 C 0.93929 0.51601 0.67325 0.0
C1112 C 0.95419 0.51792 0.61703 0.0
C1113 C 0.94868 0.52044 0.53822 0.0
C1114 C 0.92889 0.52091 0.5165 0.0
H1115 H 0.88591 0.47447 0.46299 0.0
H1116 H 0.90613 0.48993 0.43682 0.0
H1117 H 0.90411 0.48099 0.53513 0.0
H1118 H 0.9084 0.51528 0.69638 0.0
H1119 H 0.94293 0.51398 0.73409 0.0
loop_
_geom_bond_atom_site_label_1
_geom_bond_atom_site_label_2
_geom_bond_distance
_geom_bond_site_symmetry_2
_ccdc_geom_bond_type
H0 C5 0.930 . S
H1 C8 0.930 . S
H2 C10 0.930 . S
H3 C4 1.016 . S
C4 H3 1.016 . S
C4 N11 1.286 . S
C5 H0 0.930 . S
C5 C6 1.397 . S
C5 C7 1.361 . S
C6 C5 1.397 . S
C6 C10 1.390 . S
C7 C5 1.361 . S
C7 C8 1.393 . S
C7 N11 1.413 . S
C8 H1 0.930 . S
C8 C7 1.393 . S
C8 C9 1.399 . S
C9 C8 1.399 . S
C9 C10 1.381 . S
C10 H2 0.930 . S
C10 C6 1.390 . S
C10 C9 1.381 . S
N11 C4 1.286 . S
N11 C7 1.413 . S
H12 C17 0.930 . S
H13 C20 0.930 . S
H14 C22 0.930 . S
H15 C16 1.016 . S
C16 H15 1.016 . S
C16 N23 1.286 1_655 S
C17 H12 0.930 . S
C17 C18 1.387 1_455 S
C17 C19 1.361 . S
C18 C17 1.387 1_655 S
C18 C22 1.398 . S
C19 C17 1.361 . S
C19 C20 1.393 . S
C19 N23 1.413 . S
C20 H13 0.930 . S
C20 C19 1.393 . S
C20 C21 1.399 1_455 S
C21 C20 1.399 1_655 S
C21 C22 1.381 . S
C22 H14 0.930 . S
C22 C18 1.398 . S
C22 C21 1.381 . S
N23 C16 1.286 1_455 S
N23 C19 1.413 . S
H24 C29 0.930 . S
H25 C32 0.935 . S
H26 C34 0.930 . S
H27 C28 1.016 . S
C28 H27 1.016 . S
C28 N35 1.286 1_565 S
C29 H24 0.930 . S
C29 C30 1.397 1_545 S
C29 C31 1.361 . S
C30 C29 1.397 1_565 S
C30 C34 1.390 . S
C31 C29 1.361 . S
C31 C32 1.398 . S
C31 N35 1.413 . S
C32 H25 0.935 . S
C32 C31 1.398 . S
C32 C33 1.392 1_545 S
C33 C32 1.392 1_565 S
C33 C34 1.381 . S
C34 H26 0.930 . S
C34 C30 1.390 . S
C34 C33 1.381 . S
N35 C28 1.286 1_545 S
N35 C31 1.413 . S
H36 C41 0.930 . S
H37 C44 0.930 . S
H38 C46 0.930 . S
H39 C40 1.016 . S
C40 H39 1.016 . S
C40 N47 1.286 . S
C41 H36 0.930 . S
C41 C42 1.397 . S
C41 C43 1.361 . S
C42 C41 1.397 . S
C42 C46 1.390 . S
C43 C41 1.361 . S
C43 C44 1.393 . S
C43 N47 1.413 . S
C44 H37 0.930 . S
C44 C43 1.393 . S
C44 C45 1.399 . S
C45 C44 1.399 . S
C45 C46 1.381 . S
C46 H38 0.930 . S
C46 C42 1.390 . S
C46 C45 1.381 . S
N47 C40 1.286 . S
N47 C43 1.413 . S
H48 C53 0.930 . S
H49 C56 0.930 . S
H50 C58 0.930 1_556 S
H51 C52 1.016 . S
C52 H51 1.016 . S
C52 N59 1.286 . S
C53 H48 0.930 . S
C53 C54 1.397 . S
C53 C55 1.361 1_556 S
C54 C53 1.397 . S
C54 C58 1.384 1_556 S
C55 C53 1.361 1_554 S
C55 C56 1.393 . S
C55 N59 1.413 . S
C56 H49 0.930 . S
C56 C55 1.393 . S
C56 C57 1.399 . S
C57 C56 1.399 . S
C57 C58 1.388 . S
C58 H50 0.930 1_554 S
C58 C54 1.384 1_554 S
C58 C57 1.388 . S
N59 C52 1.286 . S
N59 C55 1.413 . S
H60 C65 0.930 . S
H61 C68 0.930 . S
H62 C70 0.929 1_556 S
H63 C64 1.016 . S
C64 H63 1.016 . S
C64 N71 1.286 . S
C65 H60 0.930 . S
C65 C66 1.397 . S
C65 C67 1.361 1_556 S
C66 C65 1.397 . S
C66 C70 1.381 1_556 S
C67 C65 1.361 1_554 S
C67 C68 1.393 . S
C67 N71 1.413 . S
C68 H61 0.930 . S
C68 C67 1.393 . S
C68 C69 1.399 . S
C69 C68 1.399 . S
C69 C70 1.391 . S
C70 H62 0.929 1_554 S
C70 C66 1.381 1_554 S
C70 C69 1.391 . S
N71 C64 1.286 . S
N71 C67 1.413 . S
H72 C77 0.930 . S
H73 C80 0.930 . S
H74 C82 0.929 1_556 S
H75 C76 1.016 . S
C76 H75 1.016 . S
C76 N83 1.286 . S
C77 H72 0.930 . S
C77 C78 1.397 . S
C77 C79 1.361 1_556 S
C78 C77 1.397 . S
C78 C82 1.381 1_556 S
C79 C77 1.361 1_554 S
C79 C80 1.393 . S
C79 N83 1.413 . S
C80 H73 0.930 . S
C80 C79 1.393 . S
C80 C81 1.399 . S
C81 C80 1.399 . S
C81 C82 1.391 . S
C82 H74 0.929 1_554 S
C82 C78 1.381 1_554 S
C82 C81 1.391 . S
N83 C76 1.286 . S
N83 C79 1.413 . S
H84 C89 0.930 . S
H85 C92 0.930 . S
H86 C94 0.930 1_556 S
H87 C88 1.016 . S
C88 H87 1.016 . S
C88 N95 1.286 . S
C89 H84 0.930 . S
C89 C90 1.397 . S
C89 C91 1.361 1_556 S
C90 C89 1.397 . S
C90 C94 1.384 1_556 S
C91 C89 1.361 1_554 S
C91 C92 1.393 . S
C91 N95 1.413 . S
C92 H85 0.930 . S
C92 C91 1.393 . S
C92 C93 1.399 . S
C93 C92 1.399 . S
C93 C94 1.388 . S
C94 H86 0.930 1_554 S
C94 C90 1.384 1_554 S
C94 C93 1.388 . S
N95 C88 1.286 . S
N95 C91 1.413 . S
Gd96 C99 2.818 . S
Gd96 O116 2.377 . S
Gd96 O118 2.448 . S
Gd96 O119 2.506 . S
Gd96 O120 2.435 . S
Gd96 O121 2.717 1_565 S
Gd96 O123 2.395 1_565 S
Gd96 O127 2.327 1_455 S
Gd97 C108 2.818 . S
Gd97 O117 2.395 1_545 S
Gd97 O121 2.327 1_655 S
Gd97 O122 2.377 . S
Gd97 O124 2.448 . S
Gd97 O125 2.506 1_655 S
Gd97 O126 2.435 . S
Gd97 O127 2.717 1_545 S
C98 O116 1.240 1_655 S
C98 O117 1.240 . S
C99 Gd96 2.818 . S
C99 C100 1.510 . S
C99 O118 1.249 . S
C99 O119 1.252 . S
C100 C99 1.510 . S
C100 C101 1.404 . S
C100 C102 1.352 . S
C101 C100 1.404 . S
C101 C105 1.389 . S
C101 H128 0.930 . S
C102 C100 1.352 . S
C102 C104 1.374 . S
C102 H129 0.931 1_455 S
C103 C104 1.359 . S
C103 C105 1.364 . S
C104 C102 1.374 . S
C104 C103 1.359 . S
C104 H130 0.931 1_455 S
C105 C101 1.389 . S
C105 C103 1.364 . S
C105 H131 0.931 . S
C106 O120 1.256 1_545 S
C106 O121 1.257 . S
C107 O122 1.240 1_455 S
C107 O123 1.240 . S
C108 Gd97 2.818 . S
C108 C109 1.510 . S
C108 O124 1.249 . S
C108 O125 1.252 1_655 S
C109 C108 1.510 . S
C109 C110 1.404 . S
C109 C111 1.352 1_655 S
C110 C109 1.404 . S
C110 C114 1.389 . S
C110 H132 0.930 . S
C111 C109 1.352 1_455 S
C111 C113 1.374 . S
C111 H133 0.931 . S
C112 C113 1.359 1_655 S
C112 C114 1.364 . S
C113 C111 1.374 . S
C113 C112 1.359 1_455 S
C113 H134 0.931 . S
C114 C110 1.389 . S
C114 C112 1.364 . S
C114 H135 0.931 . S
C115 O126 1.256 . S
C115 O127 1.257 1_545 S
O116 Gd96 2.377 . S
O116 C98 1.240 1_455 S
O117 Gd97 2.395 1_565 S
O117 C98 1.240 . S
O118 Gd96 2.448 . S
O118 C99 1.249 . S
O119 Gd96 2.506 . S
O119 C99 1.252 . S
O120 Gd96 2.435 . S
O120 C106 1.256 1_565 S
O121 Gd96 2.717 1_545 S
O121 Gd97 2.327 1_455 S
O121 C106 1.257 . S
O122 Gd97 2.377 . S
O122 C107 1.240 1_655 S
O123 Gd96 2.395 1_545 S
O123 C107 1.240 . S
O124 Gd97 2.448 . S
O124 C108 1.249 . S
O125 Gd97 2.506 1_455 S
O125 C108 1.252 1_455 S
O126 Gd97 2.435 . S
O126 C115 1.256 . S
O127 Gd96 2.327 1_655 S
O127 Gd97 2.717 1_565 S
O127 C115 1.257 1_565 S
H128 C101 0.930 . S
H129 C102 0.931 1_655 S
H130 C104 0.931 1_655 S
H131 C105 0.931 . S
H132 C110 0.930 . S
H133 C111 0.931 . S
H134 C113 0.931 . S
H135 C114 0.931 . S
Gd136 C139 2.818 . S
Gd136 O156 2.377 . S
Gd136 O158 2.448 . S
Gd136 O159 2.506 . S
Gd136 O160 2.435 . S
Gd136 O161 2.717 . S
Gd136 O163 2.395 . S
Gd136 O167 2.327 1_545 S
Gd137 C148 2.818 . S
Gd137 O157 2.395 . S
Gd137 O161 2.327 1_565 S
Gd137 O162 2.377 . S
Gd137 O164 2.448 . S
Gd137 O165 2.506 1_565 S
Gd137 O166 2.435 . S
Gd137 O167 2.717 . S
C138 O156 1.240 1_565 S
C138 O157 1.240 . S
C139 Gd136 2.818 . S
C139 C140 1.510 . S
C139 O158 1.249 . S
C139 O159 1.252 . S
C140 C139 1.510 . S
C140 C141 1.404 . S
C140 C142 1.352 . S
C141 C140 1.404 . S
C141 C145 1.389 . S
C141 H168 0.930 . S
C142 C140 1.352 . S
C142 C144 1.374 . S
C142 H169 0.931 1_545 S
C143 C144 1.359 . S
C143 C145 1.364 . S
C144 C142 1.374 . S
C144 C143 1.359 . S
C144 H170 0.931 1_545 S
C145 C141 1.389 . S
C145 C143 1.364 . S
C145 H171 0.931 . S
C146 O160 1.256 . S
C146 O161 1.257 . S
C147 O162 1.240 1_545 S
C147 O163 1.240 . S
C148 Gd137 2.818 . S
C148 C149 1.510 . S
C148 O164 1.249 . S
C148 O165 1.252 1_565 S
C149 C148 1.510 . S
C149 C150 1.404 . S
C149 C151 1.352 1_565 S
C150 C149 1.404 . S
C150 C154 1.389 . S
C150 H172 0.930 . S
C151 C149 1.352 1_545 S
C151 C153 1.374 . S
C151 H173 0.931 . S
C152 C153 1.359 1_565 S
C152 C154 1.364 . S
C153 C151 1.374 . S
C153 C152 1.359 1_545 S
C153 H174 0.931 . S
C154 C150 1.389 . S
C154 C152 1.364 . S
C154 H175 0.931 . S
C155 O166 1.256 . S
C155 O167 1.257 . S
O156 Gd136 2.377 . S
O156 C138 1.240 1_545 S
O157 Gd137 2.395 . S
O157 C138 1.240 . S
O158 Gd136 2.448 . S
O158 C139 1.249 . S
O159 Gd136 2.506 . S
O159 C139 1.252 . S
O160 Gd136 2.435 . S
O160 C146 1.256 . S
O161 Gd136 2.717 . S
O161 Gd137 2.327 1_545 S
O161 C146 1.257 . S
O162 Gd137 2.377 . S
O162 C147 1.240 1_565 S
O163 Gd136 2.395 . S
O163 C147 1.240 . S
O164 Gd137 2.448 . S
O164 C148 1.249 . S
O165 Gd137 2.506 1_545 S
O165 C148 1.252 1_545 S
O166 Gd137 2.435 . S
O166 C155 1.256 . S
O167 Gd136 2.327 1_565 S
O167 Gd137 2.717 . S
O167 C155 1.257 . S
H168 C141 0.930 . S
H169 C142 0.931 1_565 S
H170 C144 0.931 1_565 S
H171 C145 0.931 . S
H172 C150 0.930 . S
H173 C151 0.931 . S
H174 C153 0.931 . S
H175 C154 0.931 . S
Gd176 C179 2.818 . S
Gd176 O196 2.377 . S
Gd176 O198 2.448 . S
Gd176 O199 2.506 . S
Gd176 O200 2.435 . S
Gd176 O201 2.717 . S
Gd176 O203 2.395 . S
Gd176 O207 2.327 . S
Gd177 C188 2.818 . S
Gd177 O197 2.395 . S
Gd177 O201 2.327 . S
Gd177 O202 2.377 . S
Gd177 O204 2.448 . S
Gd177 O205 2.506 . S
Gd177 O206 2.435 . S
Gd177 O207 2.717 . S
C178 O196 1.240 . S
C178 O197 1.240 . S
C179 Gd176 2.818 . S
C179 C180 1.510 . S
C179 O198 1.249 . S
C179 O199 1.252 . S
C180 C179 1.510 . S
C180 C181 1.404 . S
C180 C182 1.352 . S
C181 C180 1.404 . S
C181 C185 1.389 . S
C181 H208 0.930 . S
C182 C180 1.352 . S
C182 C184 1.374 . S
C182 H209 0.931 . S
C183 C184 1.359 . S
C183 C185 1.364 . S
C184 C182 1.374 . S
C184 C183 1.359 . S
C184 H210 0.931 . S
C185 C181 1.389 . S
C185 C183 1.364 . S
C185 H211 0.931 . S
C186 O200 1.256 . S
C186 O201 1.257 . S
C187 O202 1.240 . S
C187 O203 1.240 . S
C188 Gd177 2.818 . S
C188 C189 1.510 . S
C188 O204 1.249 . S
C188 O205 1.252 . S
C189 C188 1.510 . S
C189 C190 1.404 . S
C189 C191 1.352 . S
C190 C189 1.404 . S
C190 C194 1.389 . S
C190 H212 0.930 . S
C191 C189 1.352 . S
C191 C193 1.374 . S
C191 H213 0.931 . S
C192 C193 1.359 . S
C192 C194 1.364 . S
C193 C191 1.374 . S
C193 C192 1.359 . S
C193 H214 0.931 . S
C194 C190 1.389 . S
C194 C192 1.364 . S
C194 H215 0.931 . S
C195 O206 1.256 . S
C195 O207 1.257 . S
O196 Gd176 2.377 . S
O196 C178 1.240 . S
O197 Gd177 2.395 . S
O197 C178 1.240 . S
O198 Gd176 2.448 . S
O198 C179 1.249 . S
O199 Gd176 2.506 . S
O199 C179 1.252 . S
O200 Gd176 2.435 . S
O200 C186 1.256 . S
O201 Gd176 2.717 . S
O201 Gd177 2.327 . S
O201 C186 1.257 . S
O202 Gd177 2.377 . S
O202 C187 1.240 . S
O203 Gd176 2.395 . S
O203 C187 1.240 . S
O204 Gd177 2.448 . S
O204 C188 1.249 . S
O205 Gd177 2.506 . S
O205 C188 1.252 . S
O206 Gd177 2.435 . S
O206 C195 1.256 . S
O207 Gd176 2.327 . S
O207 Gd177 2.717 . S
O207 C195 1.257 . S
H208 C181 0.930 . S
H209 C182 0.931 . S
H210 C184 0.931 . S
H211 C185 0.931 . S
H212 C190 0.930 . S
H213 C191 0.931 . S
H214 C193 0.931 . S
H215 C194 0.931 . S
Gd216 C219 2.818 . S
Gd216 O236 2.377 . S
Gd216 O238 2.448 . S
Gd216 O239 2.506 . S
Gd216 O240 2.435 . S
Gd216 O241 2.717 1_655 S
Gd216 O243 2.395 1_655 S
Gd216 O247 2.328 . S
Gd217 C228 2.818 . S
Gd217 O237 2.395 1_455 S
Gd217 O241 2.327 . S
Gd217 O242 2.377 . S
Gd217 O244 2.448 . S
Gd217 O245 2.506 . S
Gd217 O246 2.435 . S
Gd217 O247 2.715 1_455 S
C218 O236 1.240 . S
C218 O237 1.240 . S
C219 Gd216 2.818 . S
C219 C220 1.510 . S
C219 O238 1.249 . S
C219 O239 1.252 . S
C220 C219 1.510 . S
C220 C221 1.404 . S
C220 C222 1.352 . S
C221 C220 1.404 . S
C221 C225 1.389 . S
C221 H248 0.930 . S
C222 C220 1.352 . S
C222 C224 1.374 . S
C222 H249 0.931 . S
C223 C224 1.359 . S
C223 C225 1.364 . S
C224 C222 1.374 . S
C224 C223 1.359 . S
C224 H250 0.931 . S
C225 C221 1.389 . S
C225 C223 1.364 . S
C225 H251 0.931 . S
C226 O240 1.256 1_455 S
C226 O241 1.257 . S
C227 O242 1.240 . S
C227 O243 1.240 . S
C228 Gd217 2.818 . S
C228 C229 1.510 . S
C228 O244 1.249 . S
C228 O245 1.252 . S
C229 C228 1.510 . S
C229 C230 1.404 . S
C229 C231 1.352 . S
C230 C229 1.404 . S
C230 C234 1.389 . S
C230 H252 0.930 . S
C231 C229 1.352 . S
C231 C233 1.374 . S
C231 H253 0.931 . S
C232 C233 1.359 . S
C232 C234 1.364 . S
C233 C231 1.374 . S
C233 C232 1.359 . S
C233 H254 0.931 . S
C234 C230 1.389 . S
C234 C232 1.364 . S
C234 H255 0.931 . S
C235 O246 1.256 . S
C235 O247 1.256 1_455 S
O236 Gd216 2.377 . S
O236 C218 1.240 . S
O237 Gd217 2.395 1_655 S
O237 C218 1.240 . S
O238 Gd216 2.448 . S
O238 C219 1.249 . S
O239 Gd216 2.506 . S
O239 C219 1.252 . S
O240 Gd216 2.435 . S
O240 C226 1.256 1_655 S
O241 Gd216 2.717 1_455 S
O241 Gd217 2.327 . S
O241 C226 1.257 . S
O242 Gd217 2.377 . S
O242 C227 1.240 . S
O243 Gd216 2.395 1_455 S
O243 C227 1.240 . S
O244 Gd217 2.448 . S
O244 C228 1.249 . S
O245 Gd217 2.506 . S
O245 C228 1.252 . S
O246 Gd217 2.435 . S
O246 C235 1.256 . S
O247 Gd216 2.328 . S
O247 Gd217 2.715 1_655 S
O247 C235 1.256 1_655 S
H248 C221 0.930 . S
H249 C222 0.931 . S
H250 C224 0.931 . S
H251 C225 0.931 . S
H252 C230 0.930 . S
H253 C231 0.931 . S
H254 C233 0.931 . S
H255 C234 0.931 . S
H256 C264 0.929 . S
H257 C266 0.930 . S
H258 C268 0.930 . S
H259 C271 0.929 . S
H260 C274 0.930 . S
H261 C276 0.960 . S
H262 C276 0.960 . S
H263 C276 0.960 . S
C264 H256 0.929 . S
C264 C265 1.377 . S
C264 C266 1.384 . S
C265 C264 1.377 . S
C265 C271 1.390 1_545 S
C266 H257 0.930 . S
C266 C264 1.384 . S
C266 C267 1.372 . S
C267 C266 1.372 . S
C267 C268 1.400 1_545 S
C267 C272 1.490 . S
C268 H258 0.930 . S
C268 C267 1.400 1_565 S
C268 C271 1.386 . S
H269 C285 0.930 . S
H270 C286 0.931 . S
C271 H259 0.929 . S
C271 C265 1.390 1_565 S
C271 C268 1.386 . S
C272 C267 1.490 . S
C272 C274 1.395 . S
C272 C275 1.403 1_545 S
H273 C279 0.930 . S
C274 H260 0.930 . S
C274 C272 1.395 . S
C274 C277 1.403 . S
C275 C272 1.403 1_565 S
C275 C276 1.524 . S
C275 C279 1.400 . S
C276 H261 0.960 . S
C276 H262 0.960 . S
C276 H263 0.960 . S
C276 C275 1.524 . S
C277 C274 1.403 . S
C277 C278 1.392 . S
C277 C281 1.495 . S
C278 C277 1.392 . S
C278 C279 1.385 1_545 S
C278 C280 1.478 . S
C279 H273 0.930 . S
C279 C275 1.400 . S
C279 C278 1.385 1_565 S
C280 C278 1.478 . S
C280 C282 1.381 . S
C280 C286 1.383 1_545 S
C281 C277 1.495 . S
C281 H287 0.959 . S
C281 H288 0.961 . S
C281 H289 0.960 . S
C282 C280 1.381 . S
C282 C283 1.394 . S
C282 H290 0.930 . S
C283 C282 1.394 . S
C283 C284 1.383 . S
C283 H291 0.929 . S
C284 C283 1.383 . S
C284 C285 1.377 1_545 S
C285 H269 0.930 . S
C285 C284 1.377 1_565 S
C285 C286 1.379 . S
C286 H270 0.931 . S
C286 C280 1.383 1_565 S
C286 C285 1.379 . S
H287 C281 0.959 . S
H288 C281 0.961 . S
H289 C281 0.960 . S
H290 C282 0.930 . S
H291 C283 0.929 . S
H292 C300 0.929 . S
H293 C302 0.930 . S
H294 C304 0.930 . S
H295 C307 0.929 . S
H296 C310 0.930 . S
H297 C312 0.960 . S
H298 C312 0.960 . S
H299 C312 0.960 . S
C300 H292 0.929 . S
C300 C301 1.377 . S
C300 C302 1.384 . S
C301 C300 1.377 . S
C301 C307 1.390 . S
C302 H293 0.930 . S
C302 C300 1.384 . S
C302 C303 1.372 . S
C303 C302 1.372 . S
C303 C304 1.400 . S
C303 C308 1.490 . S
C304 H294 0.930 . S
C304 C303 1.400 . S
C304 C307 1.386 . S
H305 C321 0.930 . S
H306 C322 0.931 . S
C307 H295 0.929 . S
C307 C301 1.390 . S
C307 C304 1.386 . S
C308 C303 1.490 . S
C308 C310 1.395 . S
C308 C311 1.403 . S
H309 C315 0.930 . S
C310 H296 0.930 . S
C310 C308 1.395 . S
C310 C313 1.403 . S
C311 C308 1.403 . S
C311 C312 1.524 . S
C311 C315 1.400 . S
C312 H297 0.960 . S
C312 H298 0.960 . S
C312 H299 0.960 . S
C312 C311 1.524 . S
C313 C310 1.403 . S
C313 C314 1.392 . S
C313 C317 1.495 . S
C314 C313 1.392 . S
C314 C315 1.385 . S
C314 C316 1.478 . S
C315 H309 0.930 . S
C315 C311 1.400 . S
C315 C314 1.385 . S
C316 C314 1.478 . S
C316 C318 1.381 . S
C316 C322 1.383 . S
C317 C313 1.495 . S
C317 H323 0.959 . S
C317 H324 0.961 . S
C317 H325 0.960 . S
C318 C316 1.381 . S
C318 C319 1.394 . S
C318 H326 0.930 . S
C319 C318 1.394 . S
C319 C320 1.383 . S
C319 H327 0.929 . S
C320 C319 1.383 . S
C320 C321 1.377 . S
C321 H305 0.930 . S
C321 C320 1.377 . S
C321 C322 1.379 . S
C322 H306 0.931 . S
C322 C316 1.383 . S
C322 C321 1.379 . S
H323 C317 0.959 . S
H324 C317 0.961 . S
H325 C317 0.960 . S
H326 C318 0.930 . S
H327 C319 0.929 . S
H328 C336 0.929 . S
H329 C338 0.930 . S
H330 C340 0.930 . S
H331 C343 0.929 . S
H332 C346 0.930 . S
H333 C348 0.960 . S
H334 C348 0.960 . S
H335 C348 0.960 . S
C336 H328 0.929 . S
C336 C337 1.377 . S
C336 C338 1.384 . S
C337 C336 1.377 . S
C337 C343 1.390 . S
C338 H329 0.930 . S
C338 C336 1.384 . S
C338 C339 1.372 . S
C339 C338 1.372 . S
C339 C340 1.400 . S
C339 C344 1.490 . S
C340 H330 0.930 . S
C340 C339 1.400 . S
C340 C343 1.386 . S
H341 C357 0.930 . S
H342 C358 0.931 . S
C343 H331 0.929 . S
C343 C337 1.390 . S
C343 C340 1.386 . S
C344 C339 1.490 . S
C344 C346 1.395 . S
C344 C347 1.403 . S
H345 C351 0.930 . S
C346 H332 0.930 . S
C346 C344 1.395 . S
C346 C349 1.403 . S
C347 C344 1.403 . S
C347 C348 1.524 . S
C347 C351 1.400 . S
C348 H333 0.960 . S
C348 H334 0.960 . S
C348 H335 0.960 . S
C348 C347 1.524 . S
C349 C346 1.403 . S
C349 C350 1.392 . S
C349 C353 1.495 . S
C350 C349 1.392 . S
C350 C351 1.385 . S
C350 C352 1.478 . S
C351 H345 0.930 . S
C351 C347 1.400 . S
C351 C350 1.385 . S
C352 C350 1.478 . S
C352 C354 1.381 . S
C352 C358 1.383 . S
C353 C349 1.495 . S
C353 H359 0.959 . S
C353 H360 0.961 . S
C353 H361 0.960 . S
C354 C352 1.381 . S
C354 C355 1.394 . S
C354 H362 0.930 . S
C355 C354 1.394 . S
C355 C356 1.383 . S
C355 H363 0.929 . S
C356 C355 1.383 . S
C356 C357 1.377 . S
C357 H341 0.930 . S
C357 C356 1.377 . S
C357 C358 1.379 . S
C358 H342 0.931 . S
C358 C352 1.383 . S
C358 C357 1.379 . S
H359 C353 0.959 . S
H360 C353 0.961 . S
H361 C353 0.960 . S
H362 C354 0.930 . S
H363 C355 0.929 . S
H364 C372 0.929 . S
H365 C374 0.930 . S
H366 C376 0.930 . S
H367 C379 0.929 . S
H368 C382 0.930 . S
H369 C384 0.960 . S
H370 C384 0.960 . S
H371 C384 0.960 . S
C372 H364 0.929 . S
C372 C373 1.377 1_655 S
C372 C374 1.384 . S
C373 C372 1.377 1_455 S
C373 C379 1.390 . S
C374 H365 0.930 . S
C374 C372 1.384 . S
C374 C375 1.372 1_655 S
C375 C374 1.372 1_455 S
C375 C376 1.400 . S
C375 C380 1.490 . S
C376 H366 0.930 . S
C376 C375 1.400 . S
C376 C379 1.386 . S
H377 C393 0.930 . S
H378 C394 0.931 . S
C379 H367 0.929 . S
C379 C373 1.390 . S
C379 C376 1.386 . S
C380 C375 1.490 . S
C380 C382 1.395 1_455 S
C380 C383 1.403 . S
H381 C387 0.930 . S
C382 H368 0.930 . S
C382 C380 1.395 1_655 S
C382 C385 1.403 . S
C383 C380 1.403 . S
C383 C384 1.524 . S
C383 C387 1.400 . S
C384 H369 0.960 . S
C384 H370 0.960 . S
C384 H371 0.960 . S
C384 C383 1.524 . S
C385 C382 1.403 . S
C385 C386 1.392 1_655 S
C385 C389 1.495 . S
C386 C385 1.392 1_455 S
C386 C387 1.385 . S
C386 C388 1.478 . S
C387 H381 0.930 . S
C387 C383 1.400 . S
C387 C386 1.385 . S
C388 C386 1.478 . S
C388 C390 1.381 1_455 S
C388 C394 1.383 . S
C389 C385 1.495 . S
C389 H395 0.959 . S
C389 H396 0.961 . S
C389 H397 0.960 . S
C390 C388 1.381 1_655 S
C390 C391 1.394 . S
C390 H398 0.930 . S
C391 C390 1.394 . S
C391 C392 1.383 1_655 S
C391 H399 0.929 . S
C392 C391 1.383 1_455 S
C392 C393 1.377 . S
C393 H377 0.930 . S
C393 C392 1.377 . S
C393 C394 1.379 . S
C394 H378 0.931 . S
C394 C388 1.383 . S
C394 C393 1.379 . S
H395 C389 0.959 . S
H396 C389 0.961 . S
H397 C389 0.960 . S
H398 C390 0.930 . S
H399 C391 0.929 . S
H400 C408 0.929 . S
H401 C410 0.930 . S
H402 C412 0.930 . S
H403 C415 0.929 . S
H404 C418 0.930 . S
H405 C420 0.960 . S
H406 C420 0.960 . S
H407 C420 0.960 . S
C408 H400 0.929 . S
C408 C409 1.377 . S
C408 C410 1.384 . S
C409 C408 1.377 . S
C409 C415 1.390 1_565 S
C410 H401 0.930 . S
C410 C408 1.384 . S
C410 C411 1.372 . S
C411 C410 1.372 . S
C411 C412 1.400 1_565 S
C411 C416 1.490 . S
C412 H402 0.930 . S
C412 C411 1.400 1_545 S
C412 C415 1.386 . S
H413 C429 0.930 . S
H414 C430 0.931 . S
C415 H403 0.929 . S
C415 C409 1.390 1_545 S
C415 C412 1.386 . S
C416 C411 1.490 . S
C416 C418 1.395 1_565 S
C416 C419 1.403 . S
H417 C423 0.930 . S
C418 H404 0.930 . S
C418 C416 1.395 1_545 S
C418 C421 1.403 1_554 S
C419 C416 1.403 . S
C419 C420 1.524 . S
C419 C423 1.400 . S
C420 H405 0.960 . S
C420 H406 0.960 . S
C420 H407 0.960 . S
C420 C419 1.524 . S
C421 C418 1.403 1_556 S
C421 C422 1.392 . S
C421 C425 1.495 . S
C422 C421 1.392 . S
C422 C423 1.385 1_546 S
C422 C424 1.478 . S
C423 H417 0.930 . S
C423 C419 1.400 . S
C423 C422 1.385 1_564 S
C424 C422 1.478 . S
C424 C426 1.381 1_545 S
C424 C430 1.383 . S
C425 C421 1.495 . S
C425 H431 0.959 . S
C425 H432 0.961 . S
C425 H433 0.960 . S
C426 C424 1.381 1_565 S
C426 C427 1.394 . S
C426 H434 0.930 . S
C427 C426 1.394 . S
C427 C428 1.383 1_565 S
C427 H435 0.929 . S
C428 C427 1.383 1_545 S
C428 C429 1.377 . S
C429 H413 0.930 . S
C429 C428 1.377 . S
C429 C430 1.379 . S
C430 H414 0.931 . S
C430 C424 1.383 . S
C430 C429 1.379 . S
H431 C425 0.959 . S
H432 C425 0.961 . S
H433 C425 0.960 . S
H434 C426 0.930 . S
H435 C427 0.929 . S
H436 C444 0.929 . S
H437 C446 0.930 . S
H438 C448 0.930 . S
H439 C451 0.929 . S
H440 C454 0.930 . S
H441 C456 0.960 . S
H442 C456 0.960 . S
H443 C456 0.960 . S
C444 H436 0.929 . S
C444 C445 1.377 . S
C444 C446 1.384 . S
C445 C444 1.377 . S
C445 C451 1.390 . S
C446 H437 0.930 . S
C446 C444 1.384 . S
C446 C447 1.372 . S
C447 C446 1.372 . S
C447 C448 1.400 . S
C447 C452 1.490 . S
C448 H438 0.930 . S
C448 C447 1.400 . S
C448 C451 1.386 . S
H449 C465 0.930 . S
H450 C466 0.931 . S
C451 H439 0.929 . S
C451 C445 1.390 . S
C451 C448 1.386 . S
C452 C447 1.490 . S
C452 C454 1.395 . S
C452 C455 1.403 . S
H453 C459 0.930 . S
C454 H440 0.930 . S
C454 C452 1.395 . S
C454 C457 1.403 1_554 S
C455 C452 1.403 . S
C455 C456 1.524 . S
C455 C459 1.400 . S
C456 H441 0.960 . S
C456 H442 0.960 . S
C456 H443 0.960 . S
C456 C455 1.524 . S
C457 C454 1.403 1_556 S
C457 C458 1.392 . S
C457 C461 1.495 . S
C458 C457 1.392 . S
C458 C459 1.385 1_556 S
C458 C460 1.478 . S
C459 H453 0.930 . S
C459 C455 1.400 . S
C459 C458 1.385 1_554 S
C460 C458 1.478 . S
C460 C462 1.381 . S
C460 C466 1.383 . S
C461 C457 1.495 . S
C461 H467 0.959 . S
C461 H468 0.961 . S
C461 H469 0.960 . S
C462 C460 1.381 . S
C462 C463 1.394 . S
C462 H470 0.930 . S
C463 C462 1.394 . S
C463 C464 1.383 . S
C463 H471 0.929 . S
C464 C463 1.383 . S
C464 C465 1.377 . S
C465 H449 0.930 . S
C465 C464 1.377 . S
C465 C466 1.379 . S
C466 H450 0.931 . S
C466 C460 1.383 . S
C466 C465 1.379 . S
H467 C461 0.959 . S
H468 C461 0.961 . S
H469 C461 0.960 . S
H470 C462 0.930 . S
H471 C463 0.929 . S
H472 C480 0.929 . S
H473 C482 0.930 . S
H474 C484 0.930 . S
H475 C487 0.929 . S
H476 C490 0.930 . S
H477 C492 0.960 . S
H478 C492 0.960 1_554 S
H479 C492 0.960 . S
C480 H472 0.929 . S
C480 C481 1.377 . S
C480 C482 1.384 . S
C481 C480 1.377 . S
C481 C487 1.390 . S
C482 H473 0.930 . S
C482 C480 1.384 . S
C482 C483 1.372 . S
C483 C482 1.372 . S
C483 C484 1.400 . S
C483 C488 1.490 . S
C484 H474 0.930 . S
C484 C483 1.400 . S
C484 C487 1.386 . S
H485 C501 0.930 . S
H486 C502 0.931 . S
C487 H475 0.929 . S
C487 C481 1.390 . S
C487 C484 1.386 . S
C488 C483 1.490 . S
C488 C490 1.395 . S
C488 C491 1.403 . S
H489 C495 0.930 . S
C490 H476 0.930 . S
C490 C488 1.395 . S
C490 C493 1.403 . S
C491 C488 1.403 . S
C491 C492 1.524 1_554 S
C491 C495 1.400 1_554 S
C492 H477 0.960 . S
C492 H478 0.960 1_556 S
C492 H479 0.960 . S
C492 C491 1.524 1_556 S
C493 C490 1.403 . S
C493 C494 1.392 1_554 S
C493 C497 1.495 . S
C494 C493 1.392 1_556 S
C494 C495 1.385 . S
C494 C496 1.478 . S
C495 H489 0.930 . S
C495 C491 1.400 1_556 S
C495 C494 1.385 . S
C496 C494 1.478 . S
C496 C498 1.381 . S
C496 C502 1.383 . S
C497 C493 1.495 . S
C497 H503 0.959 . S
C497 H504 0.961 . S
C497 H505 0.960 . S
C498 C496 1.381 . S
C498 C499 1.394 . S
C498 H506 0.930 . S
C499 C498 1.394 . S
C499 C500 1.383 . S
C499 H507 0.929 . S
C500 C499 1.383 . S
C500 C501 1.377 . S
C501 H485 0.930 . S
C501 C500 1.377 . S
C501 C502 1.379 . S
C502 H486 0.931 . S
C502 C496 1.383 . S
C502 C501 1.379 . S
H503 C497 0.959 . S
H504 C497 0.961 . S
H505 C497 0.960 . S
H506 C498 0.930 . S
H507 C499 0.929 . S
H508 C516 0.929 . S
H509 C518 0.930 . S
H510 C520 0.930 . S
H511 C523 0.929 . S
H512 C526 0.930 . S
H513 C528 0.960 . S
H514 C528 0.960 . S
H515 C528 0.960 1_455 S
C516 H508 0.929 . S
C516 C517 1.377 . S
C516 C518 1.384 . S
C517 C516 1.377 . S
C517 C523 1.390 1_655 S
C518 H509 0.930 . S
C518 C516 1.384 . S
C518 C519 1.372 . S
C519 C518 1.372 . S
C519 C520 1.400 1_655 S
C519 C524 1.490 . S
C520 H510 0.930 . S
C520 C519 1.400 1_455 S
C520 C523 1.386 . S
H521 C537 0.930 . S
H522 C538 0.931 . S
C523 H511 0.929 . S
C523 C517 1.390 1_455 S
C523 C520 1.386 . S
C524 C519 1.490 . S
C524 C526 1.395 1_655 S
C524 C527 1.403 . S
H525 C531 0.933 . S
C526 H512 0.930 . S
C526 C524 1.395 1_455 S
C526 C529 1.402 1_554 S
C527 C524 1.403 . S
C527 C528 1.524 . S
C527 C531 1.404 . S
C528 H513 0.960 . S
C528 H514 0.960 . S
C528 H515 0.960 1_655 S
C528 C527 1.524 . S
C529 C526 1.402 1_556 S
C529 C530 1.392 . S
C529 C533 1.500 . S
C530 C529 1.392 . S
C530 C531 1.382 1_456 S
C530 C532 1.478 . S
C531 H525 0.933 . S
C531 C527 1.404 . S
C531 C530 1.382 1_654 S
C532 C530 1.478 . S
C532 C534 1.381 1_455 S
C532 C538 1.383 . S
C533 C529 1.500 . S
C533 H539 0.959 . S
C533 H540 0.961 . S
C533 H541 0.960 1_455 S
C534 C532 1.381 1_655 S
C534 C535 1.394 . S
C534 H542 0.930 . S
C535 C534 1.394 . S
C535 C536 1.383 1_655 S
C535 H543 0.929 . S
C536 C535 1.383 1_455 S
C536 C537 1.377 . S
C537 H521 0.930 . S
C537 C536 1.377 . S
C537 C538 1.379 . S
C538 H522 0.931 . S
C538 C532 1.383 . S
C538 C537 1.379 . S
H539 C533 0.959 . S
H540 C533 0.961 . S
H541 C533 0.960 1_655 S
H542 C534 0.930 . S
H543 C535 0.929 . S
H544 C552 0.929 . S
H545 C554 0.930 . S
H546 C556 0.930 . S
H547 C559 0.929 . S
H548 C562 0.930 . S
H549 C564 0.960 . S
H550 C564 0.960 . S
H551 C564 0.960 . S
C552 H544 0.929 . S
C552 C553 1.377 1_655 S
C552 C554 1.384 . S
C553 C552 1.377 1_455 S
C553 C559 1.390 . S
C554 H545 0.930 . S
C554 C552 1.384 . S
C554 C555 1.372 1_655 S
C555 C554 1.372 1_455 S
C555 C556 1.400 . S
C555 C560 1.490 1_455 S
C556 H546 0.930 . S
C556 C555 1.400 . S
C556 C559 1.386 . S
H557 C573 0.938 . S
H558 C574 0.931 1_455 S
C559 H547 0.929 . S
C559 C553 1.390 . S
C559 C556 1.386 . S
C560 C555 1.490 1_655 S
C560 C562 1.395 . S
C560 C563 1.403 1_655 S
H561 C567 0.930 . S
C562 H548 0.930 . S
C562 C560 1.395 . S
C562 C565 1.403 . S
C563 C560 1.403 1_455 S
C563 C564 1.524 . S
C563 C567 1.400 . S
C564 H549 0.960 . S
C564 H550 0.960 . S
C564 H551 0.960 . S
C564 C563 1.524 . S
C565 C562 1.403 . S
C565 C566 1.392 . S
C565 C569 1.495 . S
C566 C565 1.392 . S
C566 C567 1.385 1_655 S
C566 C568 1.478 . S
C567 H561 0.930 . S
C567 C563 1.400 . S
C567 C566 1.385 1_455 S
C568 C566 1.478 . S
C568 C570 1.381 . S
C568 C574 1.383 . S
C569 C565 1.495 . S
C569 H575 0.959 . S
C569 H576 0.961 . S
C569 H577 0.960 . S
C570 C568 1.381 . S
C570 C571 1.394 . S
C570 H578 0.930 . S
C571 C570 1.394 . S
C571 C572 1.383 . S
C571 H579 0.929 . S
C572 C571 1.383 . S
C572 C573 1.377 . S
C573 H557 0.938 . S
C573 C572 1.377 . S
C573 C574 1.379 . S
C574 H558 0.931 1_655 S
C574 C568 1.383 . S
C574 C573 1.379 . S
H575 C569 0.959 . S
H576 C569 0.961 . S
H577 C569 0.960 . S
H578 C570 0.930 . S
H579 C571 0.929 . S
H580 C588 0.929 . S
H581 C590 0.930 . S
H582 C592 0.930 . S
H583 C595 0.929 1_565 S
H584 C598 0.930 . S
H585 C600 0.960 . S
H586 C600 0.960 . S
H587 C600 0.960 . S
C588 H580 0.929 . S
C588 C589 1.377 . S
C588 C590 1.384 . S
C589 C588 1.377 . S
C589 C595 1.390 . S
C590 H581 0.930 . S
C590 C588 1.384 . S
C590 C591 1.372 . S
C591 C590 1.372 . S
C591 C592 1.400 1_545 S
C591 C596 1.483 1_545 S
C592 H582 0.930 . S
C592 C591 1.400 1_565 S
C592 C595 1.386 1_565 S
H593 C609 0.930 . S
H594 C610 0.931 . S
C595 H583 0.929 1_545 S
C595 C589 1.390 . S
C595 C592 1.386 1_545 S
C596 C591 1.483 1_565 S
C596 C598 1.415 . S
C596 C599 1.390 1_565 S
H597 C603 0.930 . S
C598 H584 0.930 . S
C598 C596 1.415 . S
C598 C601 1.403 . S
C599 C596 1.390 1_545 S
C599 C600 1.524 . S
C599 C603 1.400 . S
C600 H585 0.960 . S
C600 H586 0.960 . S
C600 H587 0.960 . S
C600 C599 1.524 . S
C601 C598 1.403 . S
C601 C602 1.392 . S
C601 C605 1.495 . S
C602 C601 1.392 . S
C602 C603 1.385 1_565 S
C602 C604 1.478 . S
C603 H597 0.930 . S
C603 C599 1.400 . S
C603 C602 1.385 1_545 S
C604 C602 1.478 . S
C604 C606 1.381 . S
C604 C610 1.383 . S
C605 C601 1.495 . S
C605 H611 0.959 . S
C605 H612 0.961 . S
C605 H613 0.960 . S
C606 C604 1.381 . S
C606 C607 1.394 . S
C606 H614 0.937 . S
C607 C606 1.394 . S
C607 C608 1.383 . S
C607 H615 0.929 . S
C608 C607 1.383 . S
C608 C609 1.377 . S
C609 H593 0.930 . S
C609 C608 1.377 . S
C609 C610 1.379 . S
C610 H594 0.931 . S
C610 C604 1.383 . S
C610 C609 1.379 . S
H611 C605 0.959 . S
H612 C605 0.961 . S
H613 C605 0.960 . S
H614 C606 0.937 . S
H615 C607 0.929 . S
H616 C624 0.933 . S
H617 C626 0.930 . S
H618 C628 0.930 . S
H619 C631 0.929 . S
H620 C634 0.930 . S
H621 C636 0.960 . S
H622 C636 0.960 . S
H623 C636 0.960 . S
C624 H616 0.933 . S
C624 C625 1.377 . S
C624 C626 1.384 . S
C625 C624 1.377 . S
C625 C631 1.390 . S
C626 H617 0.930 . S
C626 C624 1.384 . S
C626 C627 1.372 . S
C627 C626 1.372 . S
C627 C628 1.400 . S
C627 C632 1.490 . S
C628 H618 0.930 . S
C628 C627 1.400 . S
C628 C631 1.386 . S
H629 C645 0.930 . S
H630 C646 0.931 . S
C631 H619 0.929 . S
C631 C625 1.390 . S
C631 C628 1.386 . S
C632 C627 1.490 . S
C632 C634 1.395 . S
C632 C635 1.403 . S
H633 C639 0.930 . S
C634 H620 0.930 . S
C634 C632 1.395 . S
C634 C637 1.403 . S
C635 C632 1.403 . S
C635 C636 1.524 . S
C635 C639 1.400 . S
C636 H621 0.960 . S
C636 H622 0.960 . S
C636 H623 0.960 . S
C636 C635 1.524 . S
C637 C634 1.403 . S
C637 C638 1.392 . S
C637 C641 1.495 . S
C638 C637 1.392 . S
C638 C639 1.385 . S
C638 C640 1.478 . S
C639 H633 0.930 . S
C639 C635 1.400 . S
C639 C638 1.385 . S
C640 C638 1.478 . S
C640 C642 1.381 . S
C640 C646 1.383 . S
C641 C637 1.495 . S
C641 H647 0.959 . S
C641 H648 0.961 . S
C641 H649 0.960 . S
C642 C640 1.381 . S
C642 C643 1.394 . S
C642 H650 0.930 . S
C643 C642 1.394 . S
C643 C644 1.383 . S
C643 H651 0.929 . S
C644 C643 1.383 . S
C644 C645 1.377 . S
C645 H629 0.930 . S
C645 C644 1.377 . S
C645 C646 1.379 . S
C646 H630 0.931 . S
C646 C640 1.383 . S
C646 C645 1.379 . S
H647 C641 0.959 . S
H648 C641 0.961 . S
H649 C641 0.960 . S
H650 C642 0.930 . S
H651 C643 0.929 . S
H652 C660 0.929 . S
H653 C662 0.930 . S
H654 C664 0.930 . S
H655 C667 0.929 . S
H656 C670 0.930 . S
H657 C672 0.960 . S
H658 C672 0.960 . S
H659 C672 0.960 . S
C660 H652 0.929 . S
C660 C661 1.377 . S
C660 C662 1.384 . S
C661 C660 1.377 . S
C661 C667 1.390 . S
C662 H653 0.930 . S
C662 C660 1.384 . S
C662 C663 1.372 . S
C663 C662 1.372 . S
C663 C664 1.400 . S
C663 C668 1.490 . S
C664 H654 0.930 . S
C664 C663 1.400 . S
C664 C667 1.386 . S
H665 C681 0.930 . S
H666 C682 0.931 . S
C667 H655 0.929 . S
C667 C661 1.390 . S
C667 C664 1.386 . S
C668 C663 1.490 . S
C668 C670 1.395 . S
C668 C671 1.403 . S
H669 C675 0.930 . S
C670 H656 0.930 . S
C670 C668 1.395 . S
C670 C673 1.403 . S
C671 C668 1.403 . S
C671 C672 1.524 . S
C671 C675 1.400 . S
C672 H657 0.960 . S
C672 H658 0.960 . S
C672 H659 0.960 . S
C672 C671 1.524 . S
C673 C670 1.403 . S
C673 C674 1.392 . S
C673 C677 1.495 . S
C674 C673 1.392 . S
C674 C675 1.385 . S
C674 C676 1.478 . S
C675 H669 0.930 . S
C675 C671 1.400 . S
C675 C674 1.385 . S
C676 C674 1.478 . S
C676 C678 1.381 . S
C676 C682 1.383 . S
C677 C673 1.495 . S
C677 H683 0.959 . S
C677 H684 0.961 . S
C677 H685 0.960 . S
C678 C676 1.381 . S
C678 C679 1.394 . S
C678 H686 0.930 . S
C679 C678 1.394 . S
C679 C680 1.383 . S
C679 H687 0.929 . S
C680 C679 1.383 . S
C680 C681 1.377 . S
C681 H665 0.930 . S
C681 C680 1.377 . S
C681 C682 1.379 . S
C682 H666 0.931 . S
C682 C676 1.383 . S
C682 C681 1.379 . S
H683 C677 0.959 . S
H684 C677 0.961 . S
H685 C677 0.960 . S
H686 C678 0.930 . S
H687 C679 0.929 . S
H688 C696 0.929 . S
H689 C698 0.930 . S
H690 C700 0.930 . S
H691 C703 0.929 . S
H692 C706 0.902 1_655 S
H693 C708 0.960 . S
H694 C708 0.960 . S
H695 C708 0.960 . S
C696 H688 0.929 . S
C696 C697 1.377 1_455 S
C696 C698 1.384 . S
C697 C696 1.377 1_655 S
C697 C703 1.390 . S
C698 H689 0.930 . S
C698 C696 1.384 . S
C698 C699 1.372 . S
C699 C698 1.372 . S
C699 C700 1.400 1_455 S
C699 C704 1.490 . S
C700 H690 0.930 . S
C700 C699 1.400 1_655 S
C700 C703 1.386 . S
H701 C717 0.930 . S
H702 C718 0.931 . S
C703 H691 0.929 . S
C703 C697 1.390 . S
C703 C700 1.386 . S
C704 C699 1.490 . S
C704 C706 1.417 . S
C704 C707 1.403 . S
H705 C711 0.930 . S
C706 H692 0.902 1_455 S
C706 C704 1.417 . S
C706 C709 1.412 . S
C707 C704 1.403 . S
C707 C708 1.524 . S
C707 C711 1.400 . S
C708 H693 0.960 . S
C708 H694 0.960 . S
C708 H695 0.960 . S
C708 C707 1.524 . S
C709 C706 1.412 . S
C709 C710 1.392 . S
C709 C713 1.495 1_454 S
C710 C709 1.392 . S
C710 C711 1.385 . S
C710 C712 1.478 . S
C711 H705 0.930 . S
C711 C707 1.400 . S
C711 C710 1.385 . S
C712 C710 1.478 . S
C712 C714 1.381 1_554 S
C712 C718 1.383 . S
C713 C709 1.495 1_656 S
C713 H719 0.959 . S
C713 H720 0.961 . S
C713 H721 0.960 1_655 S
C714 C712 1.381 1_556 S
C714 C715 1.394 . S
C714 H722 0.930 . S
C715 C714 1.394 . S
C715 C716 1.383 . S
C715 H723 0.929 . S
C716 C715 1.383 . S
C716 C717 1.377 1_556 S
C717 H701 0.930 . S
C717 C716 1.377 1_554 S
C717 C718 1.379 . S
C718 H702 0.931 . S
C718 C712 1.383 . S
C718 C717 1.379 . S
H719 C713 0.959 . S
H720 C713 0.961 . S
H721 C713 0.960 1_455 S
H722 C714 0.930 . S
H723 C715 0.929 . S
H724 C732 0.929 . S
H725 C734 0.930 . S
H726 C736 0.930 . S
H727 C739 0.929 . S
H728 C742 0.930 . S
H729 C744 0.960 . S
H730 C744 0.960 . S
H731 C744 0.960 . S
C732 H724 0.929 . S
C732 C733 1.377 . S
C732 C734 1.384 . S
C733 C732 1.377 . S
C733 C739 1.390 1_565 S
C734 H725 0.930 . S
C734 C732 1.384 . S
C734 C735 1.372 1_565 S
C735 C734 1.372 1_545 S
C735 C736 1.400 . S
C735 C740 1.490 . S
C736 H726 0.930 . S
C736 C735 1.400 . S
C736 C739 1.386 . S
H737 C753 0.930 . S
H738 C754 0.931 . S
C739 H727 0.929 . S
C739 C733 1.390 1_545 S
C739 C736 1.386 . S
C740 C735 1.490 . S
C740 C742 1.395 1_545 S
C740 C743 1.403 . S
H741 C747 0.930 . S
C742 H728 0.930 . S
C742 C740 1.395 1_565 S
C742 C745 1.397 1_565 S
C743 C740 1.403 . S
C743 C744 1.524 . S
C743 C747 1.400 . S
C744 H729 0.960 . S
C744 H730 0.960 . S
C744 H731 0.960 . S
C744 C743 1.524 . S
C745 C742 1.397 1_545 S
C745 C746 1.423 . S
C745 C749 1.474 1_545 S
C746 C745 1.423 . S
C746 C747 1.385 . S
C746 C748 1.478 . S
C747 H741 0.930 . S
C747 C743 1.400 . S
C747 C746 1.385 . S
C748 C746 1.478 . S
C748 C750 1.381 . S
C748 C754 1.383 . S
C749 C745 1.474 1_565 S
C749 H755 0.959 . S
C749 H756 0.961 1_565 S
C749 H757 0.960 . S
C750 C748 1.381 . S
C750 C751 1.394 1_554 S
C750 H758 0.930 1_545 S
C751 C750 1.394 1_556 S
C751 C752 1.383 . S
C751 H759 0.929 1_545 S
C752 C751 1.383 . S
C752 C753 1.377 1_556 S
C753 H737 0.930 . S
C753 C752 1.377 1_554 S
C753 C754 1.379 . S
C754 H738 0.931 . S
C754 C748 1.383 . S
C754 C753 1.379 . S
H755 C749 0.959 . S
H756 C749 0.961 1_545 S
H757 C749 0.960 . S
H758 C750 0.930 1_565 S
H759 C751 0.929 1_565 S
H760 C768 0.929 . S
H761 C770 0.930 . S
H762 C772 0.930 . S
H763 C775 0.929 . S
H764 C778 0.930 . S
H765 C780 0.960 1_556 S
H766 C780 0.960 . S
H767 C780 0.960 . S
C768 H760 0.929 . S
C768 C769 1.377 . S
C768 C770 1.384 . S
C769 C768 1.377 . S
C769 C775 1.390 . S
C770 H761 0.930 . S
C770 C768 1.384 . S
C770 C771 1.372 . S
C771 C770 1.372 . S
C771 C772 1.400 . S
C771 C776 1.490 . S
C772 H762 0.930 . S
C772 C771 1.400 . S
C772 C775 1.386 . S
H773 C789 0.930 . S
H774 C790 0.931 1_556 S
C775 H763 0.929 . S
C775 C769 1.390 . S
C775 C772 1.386 . S
C776 C771 1.490 . S
C776 C778 1.395 . S
C776 C779 1.403 . S
H777 C783 0.930 . S
C778 H764 0.930 . S
C778 C776 1.395 . S
C778 C781 1.403 . S
C779 C776 1.403 . S
C779 C780 1.524 . S
C779 C783 1.400 . S
C780 H765 0.960 1_554 S
C780 H766 0.960 . S
C780 H767 0.960 . S
C780 C779 1.524 . S
C781 C778 1.403 . S
C781 C782 1.392 . S
C781 C785 1.495 . S
C782 C781 1.392 . S
C782 C783 1.385 . S
C782 C784 1.478 . S
C783 H777 0.930 . S
C783 C779 1.400 . S
C783 C782 1.385 . S
C784 C782 1.478 . S
C784 C786 1.381 . S
C784 C790 1.383 . S
C785 C781 1.495 . S
C785 H791 0.959 . S
C785 H792 0.961 . S
C785 H793 0.960 . S
C786 C784 1.381 . S
C786 C787 1.394 . S
C786 H794 0.930 . S
C787 C786 1.394 . S
C787 C788 1.383 1_554 S
C787 H795 0.929 . S
C788 C787 1.383 1_556 S
C788 C789 1.377 . S
C789 H773 0.930 . S
C789 C788 1.377 . S
C789 C790 1.379 1_556 S
C790 H774 0.931 1_554 S
C790 C784 1.383 . S
C790 C789 1.379 1_554 S
H791 C785 0.959 . S
H792 C785 0.961 . S
H793 C785 0.960 . S
H794 C786 0.930 . S
H795 C787 0.929 . S
H796 C804 0.929 . S
H797 C806 0.930 . S
H798 C808 0.930 . S
H799 C811 0.929 . S
H800 C814 0.930 . S
H801 C816 0.960 . S
H802 C816 0.960 . S
H803 C816 0.960 . S
C804 H796 0.929 . S
C804 C805 1.377 . S
C804 C806 1.384 . S
C805 C804 1.377 . S
C805 C811 1.390 . S
C806 H797 0.930 . S
C806 C804 1.384 . S
C806 C807 1.372 . S
C807 C806 1.372 . S
C807 C808 1.400 . S
C807 C812 1.490 . S
C808 H798 0.930 . S
C808 C807 1.400 . S
C808 C811 1.386 . S
H809 C825 0.930 . S
H810 C826 0.931 . S
C811 H799 0.929 . S
C811 C805 1.390 . S
C811 C808 1.386 . S
C812 C807 1.490 . S
C812 C814 1.395 . S
C812 C815 1.403 . S
H813 C819 0.930 . S
C814 H800 0.930 . S
C814 C812 1.395 . S
C814 C817 1.403 . S
C815 C812 1.403 . S
C815 C816 1.524 . S
C815 C819 1.400 . S
C816 H801 0.960 . S
C816 H802 0.960 . S
C816 H803 0.960 . S
C816 C815 1.524 . S
C817 C814 1.403 . S
C817 C818 1.392 . S
C817 C821 1.495 1_554 S
C818 C817 1.392 . S
C818 C819 1.385 . S
C818 C820 1.478 . S
C819 H813 0.930 . S
C819 C815 1.400 . S
C819 C818 1.385 . S
C820 C818 1.478 . S
C820 C822 1.381 1_554 S
C820 C826 1.383 . S
C821 C817 1.495 1_556 S
C821 H827 0.959 . S
C821 H828 0.961 . S
C821 H829 0.960 . S
C822 C820 1.381 1_556 S
C822 C823 1.394 . S
C822 H830 0.930 . S
C823 C822 1.394 . S
C823 C824 1.383 . S
C823 H831 0.929 . S
C824 C823 1.383 . S
C824 C825 1.377 1_556 S
C825 H809 0.930 . S
C825 C824 1.377 1_554 S
C825 C826 1.379 . S
C826 H810 0.931 . S
C826 C820 1.383 . S
C826 C825 1.379 . S
H827 C821 0.959 . S
H828 C821 0.961 . S
H829 C821 0.960 . S
H830 C822 0.930 . S
H831 C823 0.929 . S
H832 C840 0.929 . S
H833 C842 0.930 . S
H834 C844 0.908 1_655 S
H835 C847 0.930 . S
H836 C850 0.930 . S
H837 C852 0.960 . S
H838 C852 0.960 . S
H839 C852 0.960 . S
C840 H832 0.929 . S
C840 C841 1.377 . S
C840 C842 1.384 . S
C841 C840 1.377 . S
C841 C847 1.390 1_455 S
C842 H833 0.930 . S
C842 C840 1.384 . S
C842 C843 1.372 . S
C843 C842 1.372 . S
C843 C844 1.424 . S
C843 C848 1.490 . S
C844 H834 0.908 1_455 S
C844 C843 1.424 . S
C844 C847 1.385 1_455 S
H845 C861 0.926 1_655 S
H846 C862 0.953 . S
C847 H835 0.930 . S
C847 C841 1.390 1_655 S
C847 C844 1.385 1_655 S
C848 C843 1.490 . S
C848 C850 1.395 . S
C848 C851 1.403 . S
H849 C855 0.930 . S
C850 H836 0.930 . S
C850 C848 1.395 . S
C850 C853 1.403 . S
C851 C848 1.403 . S
C851 C852 1.524 . S
C851 C855 1.400 . S
C852 H837 0.960 . S
C852 H838 0.960 . S
C852 H839 0.960 . S
C852 C851 1.524 . S
C853 C850 1.403 . S
C853 C854 1.392 . S
C853 C857 1.504 . S
C854 C853 1.392 . S
C854 C855 1.385 . S
C854 C856 1.478 . S
C855 H849 0.930 . S
C855 C851 1.400 . S
C855 C854 1.385 . S
C856 C854 1.478 . S
C856 C858 1.381 . S
C856 C862 1.363 1_455 S
C857 C853 1.504 . S
C857 H863 0.954 1_456 S
C857 H864 0.939 1_455 S
C857 H865 0.980 . S
C858 C856 1.381 . S
C858 C859 1.394 . S
C858 H866 0.930 . S
C859 C858 1.394 . S
C859 C860 1.383 . S
C859 H867 0.929 . S
C860 C859 1.383 . S
C860 C861 1.380 . S
C861 H845 0.926 1_455 S
C861 C860 1.380 . S
C861 C862 1.379 1_455 S
C862 H846 0.953 . S
C862 C856 1.363 1_655 S
C862 C861 1.379 1_655 S
H863 C857 0.954 1_654 S
H864 C857 0.939 1_655 S
H865 C857 0.980 . S
H866 C858 0.930 . S
H867 C859 0.929 . S
H868 C876 0.929 . S
H869 C878 0.930 . S
H870 C880 0.930 . S
H871 C883 0.929 . S
H872 C886 0.930 . S
H873 C888 0.960 . S
H874 C888 0.960 . S
H875 C888 0.960 . S
C876 H868 0.929 . S
C876 C877 1.377 1_565 S
C876 C878 1.384 . S
C877 C876 1.377 1_545 S
C877 C883 1.390 . S
C878 H869 0.930 . S
C878 C876 1.384 . S
C878 C879 1.372 1_565 S
C879 C878 1.372 1_545 S
C879 C880 1.400 . S
C879 C884 1.490 . S
C880 H870 0.930 . S
C880 C879 1.400 . S
C880 C883 1.386 . S
H881 C897 0.930 . S
H882 C898 0.931 . S
C883 H871 0.929 . S
C883 C877 1.390 . S
C883 C880 1.386 . S
C884 C879 1.490 . S
C884 C886 1.395 1_545 S
C884 C887 1.403 . S
H885 C891 0.930 . S
C886 H872 0.930 . S
C886 C884 1.395 1_565 S
C886 C889 1.403 . S
C887 C884 1.403 . S
C887 C888 1.524 . S
C887 C891 1.400 . S
C888 H873 0.960 . S
C888 H874 0.960 . S
C888 H875 0.960 . S
C888 C887 1.524 . S
C889 C886 1.403 . S
C889 C890 1.392 1_565 S
C889 C893 1.495 . S
C890 C889 1.392 1_545 S
C890 C891 1.385 . S
C890 C892 1.478 . S
C891 H885 0.930 . S
C891 C887 1.400 . S
C891 C890 1.385 . S
C892 C890 1.478 . S
C892 C894 1.381 1_545 S
C892 C898 1.383 . S
C893 C889 1.495 . S
C893 H899 0.959 . S
C893 H900 0.961 . S
C893 H901 0.960 . S
C894 C892 1.381 1_565 S
C894 C895 1.394 . S
C894 H902 0.930 . S
C895 C894 1.394 . S
C895 C896 1.383 1_565 S
C895 H903 0.929 . S
C896 C895 1.383 1_545 S
C896 C897 1.377 . S
C897 H881 0.930 . S
C897 C896 1.377 . S
C897 C898 1.379 . S
C898 H882 0.931 . S
C898 C892 1.383 . S
C898 C897 1.379 . S
H899 C893 0.959 . S
H900 C893 0.961 . S
H901 C893 0.960 . S
H902 C894 0.930 . S
H903 C895 0.929 . S
H904 C912 0.929 . S
H905 C914 0.930 . S
H906 C916 0.930 . S
H907 C919 0.929 . S
H908 C922 0.930 . S
H909 C924 0.960 . S
H910 C924 0.960 . S
H911 C924 0.960 . S
C912 H904 0.929 . S
C912 C913 1.377 . S
C912 C914 1.384 . S
C913 C912 1.377 . S
C913 C919 1.390 . S
C914 H905 0.930 . S
C914 C912 1.384 . S
C914 C915 1.372 . S
C915 C914 1.372 . S
C915 C916 1.400 . S
C915 C920 1.490 . S
C916 H906 0.930 . S
C916 C915 1.400 . S
C916 C919 1.386 . S
H917 C933 0.930 . S
H918 C934 0.931 . S
C919 H907 0.929 . S
C919 C913 1.390 . S
C919 C916 1.386 . S
C920 C915 1.490 . S
C920 C922 1.395 . S
C920 C923 1.403 . S
H921 C927 0.930 . S
C922 H908 0.930 . S
C922 C920 1.395 . S
C922 C925 1.403 . S
C923 C920 1.403 . S
C923 C924 1.524 . S
C923 C927 1.400 . S
C924 H909 0.960 . S
C924 H910 0.960 . S
C924 H911 0.960 . S
C924 C923 1.524 . S
C925 C922 1.403 . S
C925 C926 1.392 . S
C925 C929 1.495 . S
C926 C925 1.392 . S
C926 C927 1.385 . S
C926 C928 1.478 . S
C927 H921 0.930 . S
C927 C923 1.400 . S
C927 C926 1.385 . S
C928 C926 1.478 . S
C928 C930 1.381 . S
C928 C934 1.383 . S
C929 C925 1.495 . S
C929 H935 0.970 . S
C929 H936 0.961 . S
C929 H937 0.960 . S
C930 C928 1.381 . S
C930 C931 1.394 . S
C930 H938 0.930 . S
C931 C930 1.394 . S
C931 C932 1.383 . S
C931 H939 0.929 . S
C932 C931 1.383 . S
C932 C933 1.377 . S
C933 H917 0.930 . S
C933 C932 1.377 . S
C933 C934 1.379 . S
C934 H918 0.931 . S
C934 C928 1.383 . S
C934 C933 1.379 . S
H935 C929 0.970 . S
H936 C929 0.961 . S
H937 C929 0.960 . S
H938 C930 0.930 . S
H939 C931 0.929 . S
H940 C948 0.929 . S
H941 C950 0.930 . S
H942 C952 0.930 . S
H943 C955 0.929 . S
H944 C958 0.930 . S
H945 C960 0.960 . S
H946 C960 0.960 . S
H947 C960 0.960 . S
C948 H940 0.929 . S
C948 C949 1.377 . S
C948 C950 1.384 . S
C949 C948 1.377 . S
C949 C955 1.390 . S
C950 H941 0.930 . S
C950 C948 1.384 . S
C950 C951 1.372 . S
C951 C950 1.372 . S
C951 C952 1.400 . S
C951 C956 1.490 . S
C952 H942 0.930 . S
C952 C951 1.400 . S
C952 C955 1.386 . S
H953 C969 0.930 . S
H954 C970 0.931 . S
C955 H943 0.929 . S
C955 C949 1.390 . S
C955 C952 1.386 . S
C956 C951 1.490 . S
C956 C958 1.395 . S
C956 C959 1.403 . S
H957 C963 0.930 . S
C958 H944 0.930 . S
C958 C956 1.395 . S
C958 C961 1.403 . S
C959 C956 1.403 . S
C959 C960 1.524 . S
C959 C963 1.400 . S
C960 H945 0.960 . S
C960 H946 0.960 . S
C960 H947 0.960 . S
C960 C959 1.524 . S
C961 C958 1.403 . S
C961 C962 1.392 . S
C961 C965 1.495 . S
C962 C961 1.392 . S
C962 C963 1.385 . S
C962 C964 1.478 . S
C963 H957 0.930 . S
C963 C959 1.400 . S
C963 C962 1.385 . S
C964 C962 1.478 . S
C964 C966 1.381 . S
C964 C970 1.383 . S
C965 C961 1.495 . S
C965 H971 0.959 . S
C965 H972 0.961 . S
C965 H973 0.960 . S
C966 C964 1.381 . S
C966 C967 1.394 . S
C966 H974 0.930 . S
C967 C966 1.394 . S
C967 C968 1.383 . S
C967 H975 0.929 . S
C968 C967 1.383 . S
C968 C969 1.377 . S
C969 H953 0.930 . S
C969 C968 1.377 . S
C969 C970 1.379 . S
C970 H954 0.931 . S
C970 C964 1.383 . S
C970 C969 1.379 . S
H971 C965 0.959 . S
H972 C965 0.961 . S
H973 C965 0.960 . S
H974 C966 0.930 . S
H975 C967 0.929 . S
H976 C984 0.929 . S
H977 C986 0.930 . S
H978 C988 0.930 . S
H979 C991 0.929 . S
H980 C994 0.930 . S
H981 C996 0.960 . S
H982 C996 0.960 . S
H983 C996 0.960 1_655 S
C984 H976 0.929 . S
C984 C985 1.377 1_455 S
C984 C986 1.384 . S
C985 C984 1.377 1_655 S
C985 C991 1.390 . S
C986 H977 0.930 . S
C986 C984 1.384 . S
C986 C987 1.372 1_455 S
C987 C986 1.372 1_655 S
C987 C988 1.400 . S
C987 C992 1.490 . S
C988 H978 0.930 . S
C988 C987 1.400 . S
C988 C991 1.386 . S
H989 C1005 0.930 . S
H990 C1006 0.931 . S
C991 H979 0.929 . S
C991 C985 1.390 . S
C991 C988 1.386 . S
C992 C987 1.490 . S
C992 C994 1.395 . S
C992 C995 1.403 1_655 S
H993 C999 0.931 1_455 S
C994 H980 0.930 . S
C994 C992 1.395 . S
C994 C997 1.403 . S
C995 C992 1.403 1_455 S
C995 C996 1.524 . S
C995 C999 1.400 1_455 S
C996 H981 0.960 . S
C996 H982 0.960 . S
C996 H983 0.960 1_455 S
C996 C995 1.524 . S
C997 C994 1.403 . S
C997 C998 1.392 . S
C997 C1001 1.495 . S
C998 C997 1.392 . S
C998 C999 1.384 . S
C998 C1000 1.478 . S
C999 H993 0.931 1_655 S
C999 C995 1.400 1_655 S
C999 C998 1.384 . S
C1000 C998 1.478 . S
C1000 C1002 1.381 1_655 S
C1000 C1006 1.383 . S
C1001 C997 1.495 . S
C1001 H1007 0.959 . S
C1001 H1008 0.961 . S
C1001 H1009 0.960 . S
C1002 C1000 1.381 1_455 S
C1002 C1003 1.394 . S
C1002 H1010 0.930 . S
C1003 C1002 1.394 . S
C1003 C1004 1.383 1_455 S
C1003 H1011 0.929 . S
C1004 C1003 1.383 1_655 S
C1004 C1005 1.377 . S
C1005 H989 0.930 . S
C1005 C1004 1.377 . S
C1005 C1006 1.379 . S
C1006 H990 0.931 . S
C1006 C1000 1.383 . S
C1006 C1005 1.379 . S
H1007 C1001 0.959 . S
H1008 C1001 0.961 . S
H1009 C1001 0.960 . S
H1010 C1002 0.930 . S
H1011 C1003 0.929 . S
H1012 C1020 0.929 . S
H1013 C1022 0.930 . S
H1014 C1024 0.930 . S
H1015 C1027 0.929 . S
H1016 C1030 0.930 . S
H1017 C1032 0.960 . S
H1018 C1032 0.960 . S
H1019 C1032 0.960 . S
C1020 H1012 0.929 . S
C1020 C1021 1.377 . S
C1020 C1022 1.384 . S
C1021 C1020 1.377 . S
C1021 C1027 1.390 1_565 S
C1022 H1013 0.930 . S
C1022 C1020 1.384 . S
C1022 C1023 1.372 . S
C1023 C1022 1.372 . S
C1023 C1024 1.400 1_565 S
C1023 C1028 1.490 . S
C1024 H1014 0.930 . S
C1024 C1023 1.400 1_545 S
C1024 C1027 1.386 . S
H1025 C1041 0.930 . S
H1026 C1042 0.931 . S
C1027 H1015 0.929 . S
C1027 C1021 1.390 1_545 S
C1027 C1024 1.386 . S
C1028 C1023 1.490 . S
C1028 C1030 1.395 . S
C1028 C1031 1.403 1_565 S
H1029 C1035 0.930 . S
C1030 H1016 0.930 . S
C1030 C1028 1.395 . S
C1030 C1033 1.403 . S
C1031 C1028 1.403 1_545 S
C1031 C1032 1.524 . S
C1031 C1035 1.400 . S
C1032 H1017 0.960 . S
C1032 H1018 0.960 . S
C1032 H1019 0.960 . S
C1032 C1031 1.524 . S
C1033 C1030 1.403 . S
C1033 C1034 1.392 . S
C1033 C1037 1.495 . S
C1034 C1033 1.392 . S
C1034 C1035 1.385 1_565 S
C1034 C1036 1.478 . S
C1035 H1029 0.930 . S
C1035 C1031 1.400 . S
C1035 C1034 1.385 1_545 S
C1036 C1034 1.478 . S
C1036 C1038 1.381 . S
C1036 C1042 1.383 1_565 S
C1037 C1033 1.495 . S
C1037 H1043 0.959 . S
C1037 H1044 0.961 . S
C1037 H1045 0.960 . S
C1038 C1036 1.381 . S
C1038 C1039 1.394 . S
C1038 H1046 0.930 . S
C1039 C1038 1.394 . S
C1039 C1040 1.383 . S
C1039 H1047 0.929 . S
C1040 C1039 1.383 . S
C1040 C1041 1.377 1_565 S
C1041 H1025 0.930 . S
C1041 C1040 1.377 1_545 S
C1041 C1042 1.379 . S
C1042 H1026 0.931 . S
C1042 C1036 1.383 1_545 S
C1042 C1041 1.379 . S
H1043 C1037 0.959 . S
H1044 C1037 0.961 . S
H1045 C1037 0.960 . S
H1046 C1038 0.930 . S
H1047 C1039 0.929 . S
H1048 C1056 0.929 . S
H1049 C1058 0.930 . S
H1050 C1060 0.930 . S
H1051 C1063 0.929 . S
H1052 C1066 0.930 . S
H1053 C1068 0.960 . S
H1054 C1068 0.960 . S
H1055 C1068 0.960 . S
C1056 H1048 0.929 . S
C1056 C1057 1.377 . S
C1056 C1058 1.384 . S
C1057 C1056 1.377 . S
C1057 C1063 1.390 . S
C1058 H1049 0.930 . S
C1058 C1056 1.384 . S
C1058 C1059 1.372 . S
C1059 C1058 1.372 . S
C1059 C1060 1.400 . S
C1059 C1064 1.490 . S
C1060 H1050 0.930 . S
C1060 C1059 1.400 . S
C1060 C1063 1.386 . S
H1061 C1077 0.930 . S
H1062 C1078 0.931 . S
C1063 H1051 0.929 . S
C1063 C1057 1.390 . S
C1063 C1060 1.386 . S
C1064 C1059 1.490 . S
C1064 C1066 1.395 . S
C1064 C1067 1.403 . S
H1065 C1071 0.930 . S
C1066 H1052 0.930 . S
C1066 C1064 1.395 . S
C1066 C1069 1.403 . S
C1067 C1064 1.403 . S
C1067 C1068 1.524 . S
C1067 C1071 1.400 . S
C1068 H1053 0.960 . S
C1068 H1054 0.960 . S
C1068 H1055 0.960 . S
C1068 C1067 1.524 . S
C1069 C1066 1.403 . S
C1069 C1070 1.392 . S
C1069 C1073 1.495 . S
C1070 C1069 1.392 . S
C1070 C1071 1.385 . S
C1070 C1072 1.478 . S
C1071 H1065 0.930 . S
C1071 C1067 1.400 . S
C1071 C1070 1.385 . S
C1072 C1070 1.478 . S
C1072 C1074 1.381 . S
C1072 C1078 1.383 . S
C1073 C1069 1.495 . S
C1073 H1079 0.959 . S
C1073 H1080 0.961 . S
C1073 H1081 0.960 . S
C1074 C1072 1.381 . S
C1074 C1075 1.394 . S
C1074 H1082 0.930 . S
C1075 C1074 1.394 . S
C1075 C1076 1.383 . S
C1075 H1083 0.929 . S
C1076 C1075 1.383 . S
C1076 C1077 1.377 . S
C1077 H1061 0.930 . S
C1077 C1076 1.377 . S
C1077 C1078 1.379 . S
C1078 H1062 0.931 . S
C1078 C1072 1.383 . S
C1078 C1077 1.379 . S
H1079 C1073 0.959 . S
H1080 C1073 0.961 . S
H1081 C1073 0.960 . S
H1082 C1074 0.930 . S
H1083 C1075 0.929 . S
H1084 C1092 0.929 . S
H1085 C1094 0.930 . S
H1086 C1096 0.930 . S
H1087 C1099 0.929 . S
H1088 C1102 0.930 . S
H1089 C1104 0.960 . S
H1090 C1104 0.960 . S
H1091 C1104 0.960 . S
C1092 H1084 0.929 . S
C1092 C1093 1.377 . S
C1092 C1094 1.384 . S
C1093 C1092 1.377 . S
C1093 C1099 1.390 . S
C1094 H1085 0.930 . S
C1094 C1092 1.384 . S
C1094 C1095 1.372 . S
C1095 C1094 1.372 . S
C1095 C1096 1.400 . S
C1095 C1100 1.490 . S
C1096 H1086 0.930 . S
C1096 C1095 1.400 . S
C1096 C1099 1.386 . S
H1097 C1113 0.930 . S
H1098 C1114 0.931 . S
C1099 H1087 0.929 . S
C1099 C1093 1.390 . S
C1099 C1096 1.386 . S
C1100 C1095 1.490 . S
C1100 C1102 1.395 . S
C1100 C1103 1.403 . S
H1101 C1107 0.930 . S
C1102 H1088 0.930 . S
C1102 C1100 1.395 . S
C1102 C1105 1.403 . S
C1103 C1100 1.403 . S
C1103 C1104 1.524 . S
C1103 C1107 1.400 . S
C1104 H1089 0.960 . S
C1104 H1090 0.960 . S
C1104 H1091 0.960 . S
C1104 C1103 1.524 . S
C1105 C1102 1.403 . S
C1105 C1106 1.392 . S
C1105 C1109 1.495 . S
C1106 C1105 1.392 . S
C1106 C1107 1.385 . S
C1106 C1108 1.478 . S
C1107 H1101 0.930 . S
C1107 C1103 1.400 . S
C1107 C1106 1.385 . S
C1108 C1106 1.478 . S
C1108 C1110 1.381 . S
C1108 C1114 1.383 . S
C1109 C1105 1.495 . S
C1109 H1115 0.959 . S
C1109 H1116 0.961 . S
C1109 H1117 0.960 . S
C1110 C1108 1.381 . S
C1110 C1111 1.394 . S
C1110 H1118 0.930 . S
C1111 C1110 1.394 . S
C1111 C1112 1.383 . S
C1111 H1119 0.929 . S
C1112 C1111 1.383 . S
C1112 C1113 1.377 . S
C1113 H1097 0.930 . S
C1113 C1112 1.377 . S
C1113 C1114 1.379 . S
C1114 H1098 0.931 . S
C1114 C1108 1.383 . S
C1114 C1113 1.379 . S
H1115 C1109 0.959 . S
H1116 C1109 0.961 . S
H1117 C1109 0.960 . S
H1118 C1110 0.930 . S
H1119 C1111 0.929 . S
C265 C76 1.722 . S
C284 C106 1.834 . S
C320 C146 1.831 . S
C301 C88 1.725 . S
C356 C186 1.834 . S
C337 C52 1.722 . S
C392 C226 1.812 . S
C373 C64 1.733 . S
C428 C115 1.813 . S
C409 C28 1.727 . S
C445 C40 1.730 . S
C464 C155 1.816 . S
C481 C4 1.728 . S
C500 C195 1.832 . S
C517 C16 1.731 . S
C536 C235 1.816 . S
C572 C112 0.417 . S
C553 C69 0.399 . S
C608 C152 0.405 . S
C589 C81 0.390 . S
C644 C192 0.277 . S
C625 C93 0.367 . S
C661 C57 0.387 . S
C680 C232 0.394 . S
C697 C21 0.391 . S
C716 C103 0.312 . S
C752 C143 0.315 . S
C733 C33 0.414 . S
C788 C183 0.379 . S
C769 C45 0.407 . S
C805 C9 0.386 . S
C824 C223 0.334 . S
C841 C66 1.873 . S
C860 C107 2.059 . S
C877 C78 1.867 . S
C896 C147 2.055 . S
C932 C187 2.068 . S
C913 C90 1.878 . S
C968 C227 2.075 . S
C949 C54 1.880 . S
C985 C18 1.879 . S
C1004 C98 2.068 . S
C1040 C138 2.073 . S
C1021 C30 1.868 . S
C1076 C178 2.075 . S
C1057 C42 1.868 . S
C1093 C6 1.878 . S
C1112 C218 2.063 . S
