# Generated by pormake.
# Topology eea, (3,6)-cn, num edge types: 1
# Building blocks:
#     Node 0, Type 0, BuildingBlock: QEWDON_clean_linker_0, # of connection points: 3
#     Node 1, Type 0, BuildingBlock: QEWDON_clean_linker_0, # of connection points: 3
#     Node 2, Type 0, BuildingBlock: QEWDON_clean_linker_0, # of connection points: 3
#     Node 3, Type 0, BuildingBlock: QEWDON_clean_linker_0, # of connection points: 3
#     Node 4, Type 0, BuildingBlock: QEWDON_clean_linker_0, # of connection points: 3
#     Node 5, Type 0, BuildingBlock: QEWDON_clean_linker_0, # of connection points: 3
#     Node 6, Type 0, BuildingBlock: QEWDON_clean_linker_0, # of connection points: 3
#     Node 7, Type 0, BuildingBlock: QEWDON_clean_linker_0, # of connection points: 3
#     Node 8, Type 0, BuildingBlock: QEWDON_clean_linker_0, # of connection points: 3
#     Node 9, Type 0, BuildingBlock: QEWDON_clean_linker_0, # of connection points: 3
#     Node 10, Type 0, BuildingBlock: QEWDON_clean_linker_0, # of connection points: 3
#     Node 11, Type 0, BuildingBlock: QEWDON_clean_linker_0, # of connection points: 3
#     Node 12, Type 0, BuildingBlock: QEWDON_clean_linker_0, # of connection points: 3
#     Node 13, Type 0, BuildingBlock: QEWDON_clean_linker_0, # of connection points: 3
#     Node 14, Type 0, BuildingBlock: QEWDON_clean_linker_0, # of connection points: 3
#     Node 15, Type 0, BuildingBlock: QEWDON_clean_linker_0, # of connection points: 3
#     Node 16, Type 0, BuildingBlock: QEWDON_clean_linker_0, # of connection points: 3
#     Node 17, Type 0, BuildingBlock: QEWDON_clean_linker_0, # of connection points: 3
#     Node 18, Type 1, BuildingBlock: CUWYAW_clean_sbu_0, # of connection points: 6
#     Node 19, Type 1, BuildingBlock: CUWYAW_clean_sbu_0, # of connection points: 6
#     Node 20, Type 1, BuildingBlock: CUWYAW_clean_sbu_0, # of connection points: 6
#     Node 21, Type 1, BuildingBlock: CUWYAW_clean_sbu_0, # of connection points: 6
#     Node 22, Type 1, BuildingBlock: CUWYAW_clean_sbu_0, # of connection points: 6
#     Node 23, Type 1, BuildingBlock: CUWYAW_clean_sbu_0, # of connection points: 6
#     Node 24, Type 1, BuildingBlock: CUWYAW_clean_sbu_0, # of connection points: 6
#     Node 25, Type 1, BuildingBlock: CUWYAW_clean_sbu_0, # of connection points: 6
#     Node 26, Type 1, BuildingBlock: CUWYAW_clean_sbu_0, # of connection points: 6
#     Edge 27, Type (0, 1), BuildingBlock: XUDNAN_clean_linker_2, # of connection points: 2
#     Edge 28, Type (0, 1), BuildingBlock: XUDNAN_clean_linker_2, # of connection points: 2
#     Edge 29, Type (0, 1), BuildingBlock: XUDNAN_clean_linker_2, # of connection points: 2
#     Edge 30, Type (0, 1), BuildingBlock: XUDNAN_clean_linker_2, # of connection points: 2
#     Edge 31, Type (0, 1), BuildingBlock: XUDNAN_clean_linker_2, # of connection points: 2
#     Edge 32, Type (0, 1), BuildingBlock: XUDNAN_clean_linker_2, # of connection points: 2
#     Edge 33, Type (0, 1), BuildingBlock: XUDNAN_clean_linker_2, # of connection points: 2
#     Edge 34, Type (0, 1), BuildingBlock: XUDNAN_clean_linker_2, # of connection points: 2
#     Edge 35, Type (0, 1), BuildingBlock: XUDNAN_clean_linker_2, # of connection points: 2
#     Edge 36, Type (0, 1), BuildingBlock: XUDNAN_clean_linker_2, # of connection points: 2
#     Edge 37, Type (0, 1), BuildingBlock: XUDNAN_clean_linker_2, # of connection points: 2
#     Edge 38, Type (0, 1), BuildingBlock: XUDNAN_clean_linker_2, # of connection points: 2
#     Edge 39, Type (0, 1), BuildingBlock: XUDNAN_clean_linker_2, # of connection points: 2
#     Edge 40, Type (0, 1), BuildingBlock: XUDNAN_clean_linker_2, # of connection points: 2
#     Edge 41, Type (0, 1), BuildingBlock: XUDNAN_clean_linker_2, # of connection points: 2
#     Edge 42, Type (0, 1), BuildingBlock: XUDNAN_clean_linker_2, # of connection points: 2
#     Edge 43, Type (0, 1), BuildingBlock: XUDNAN_clean_linker_2, # of connection points: 2
#     Edge 44, Type (0, 1), BuildingBlock: XUDNAN_clean_linker_2, # of connection points: 2
#     Edge 45, Type (0, 1), BuildingBlock: XUDNAN_clean_linker_2, # of connection points: 2
#     Edge 46, Type (0, 1), BuildingBlock: XUDNAN_clean_linker_2, # of connection points: 2
#     Edge 47, Type (0, 1), BuildingBlock: XUDNAN_clean_linker_2, # of connection points: 2
#     Edge 48, Type (0, 1), BuildingBlock: XUDNAN_clean_linker_2, # of connection points: 2
#     Edge 49, Type (0, 1), BuildingBlock: XUDNAN_clean_linker_2, # of connection points: 2
#     Edge 50, Type (0, 1), BuildingBlock: XUDNAN_clean_linker_2, # of connection points: 2
#     Edge 51, Type (0, 1), BuildingBlock: XUDNAN_clean_linker_2, # of connection points: 2
#     Edge 52, Type (0, 1), BuildingBlock: XUDNAN_clean_linker_2, # of connection points: 2
#     Edge 53, Type (0, 1), BuildingBlock: XUDNAN_clean_linker_2, # of connection points: 2
#     Edge 54, Type (0, 1), BuildingBlock: XUDNAN_clean_linker_2, # of connection points: 2
#     Edge 55, Type (0, 1), BuildingBlock: XUDNAN_clean_linker_2, # of connection points: 2
#     Edge 56, Type (0, 1), BuildingBlock: XUDNAN_clean_linker_2, # of connection points: 2
#     Edge 57, Type (0, 1), BuildingBlock: XUDNAN_clean_linker_2, # of connection points: 2
#     Edge 58, Type (0, 1), BuildingBlock: XUDNAN_clean_linker_2, # of connection points: 2
#     Edge 59, Type (0, 1), BuildingBlock: XUDNAN_clean_linker_2, # of connection points: 2
#     Edge 60, Type (0, 1), BuildingBlock: XUDNAN_clean_linker_2, # of connection points: 2
#     Edge 61, Type (0, 1), BuildingBlock: XUDNAN_clean_linker_2, # of connection points: 2
#     Edge 62, Type (0, 1), BuildingBlock: XUDNAN_clean_linker_2, # of connection points: 2
#     Edge 63, Type (0, 1), BuildingBlock: XUDNAN_clean_linker_2, # of connection points: 2
#     Edge 64, Type (0, 1), BuildingBlock: XUDNAN_clean_linker_2, # of connection points: 2
#     Edge 65, Type (0, 1), BuildingBlock: XUDNAN_clean_linker_2, # of connection points: 2
#     Edge 66, Type (0, 1), BuildingBlock: XUDNAN_clean_linker_2, # of connection points: 2
#     Edge 67, Type (0, 1), BuildingBlock: XUDNAN_clean_linker_2, # of connection points: 2
#     Edge 68, Type (0, 1), BuildingBlock: XUDNAN_clean_linker_2, # of connection points: 2
#     Edge 69, Type (0, 1), BuildingBlock: XUDNAN_clean_linker_2, # of connection points: 2
#     Edge 70, Type (0, 1), BuildingBlock: XUDNAN_clean_linker_2, # of connection points: 2
#     Edge 71, Type (0, 1), BuildingBlock: XUDNAN_clean_linker_2, # of connection points: 2
#     Edge 72, Type (0, 1), BuildingBlock: XUDNAN_clean_linker_2, # of connection points: 2
#     Edge 73, Type (0, 1), BuildingBlock: XUDNAN_clean_linker_2, # of connection points: 2
#     Edge 74, Type (0, 1), BuildingBlock: XUDNAN_clean_linker_2, # of connection points: 2
#     Edge 75, Type (0, 1), BuildingBlock: XUDNAN_clean_linker_2, # of connection points: 2
#     Edge 76, Type (0, 1), BuildingBlock: XUDNAN_clean_linker_2, # of connection points: 2
#     Edge 77, Type (0, 1), BuildingBlock: XUDNAN_clean_linker_2, # of connection points: 2
#     Edge 78, Type (0, 1), BuildingBlock: XUDNAN_clean_linker_2, # of connection points: 2
#     Edge 79, Type (0, 1), BuildingBlock: XUDNAN_clean_linker_2, # of connection points: 2
#     Edge 80, Type (0, 1), BuildingBlock: XUDNAN_clean_linker_2, # of connection points: 2
# Relax obj value: 0.087
# Max RMSD: 0.262
# Mean RMSD: 0.180
data_MOF--net-eea--node1-CUWYAW_clean_sbu_0--node2-QEWDON_clean_linker_0--edge1-XUDNAN_clean_linker_2
_symmetry_space_group_name_H-M    P1
_symmetry_Int_Tables_number       1
_symmetry_cell_setting            triclinic
loop_
_symmetry_equiv_pos_as_xyz
'x, y, z'
_cell_length_a     57.962047
_cell_length_b     57.737412
_cell_length_c     67.268888
_cell_angle_alpha  93.153716
_cell_angle_beta   93.184432
_cell_angle_gamma 119.9076
loop_
_atom_site_label
_atom_site_type_symbol
_atom_site_fract_x
_atom_site_fract_y
_atom_site_fract_z
_atom_type_partial_charge
H0 H 0.2057 0.12783 0.42974 0.0
C1 C 0.20675 0.11058 0.42382 0.0
C2 C 0.22034 0.10095 0.43558 0.0
C3 C 0.19329 0.09713 0.40505 0.0
H4 H 0.23192 0.07103 0.4373 0.0
C5 C 0.2208 0.07793 0.42837 0.0
C6 C 0.20722 0.06383 0.40988 0.0
C7 C 0.19395 0.0739 0.39817 0.0
C8 C 0.17705 0.10612 0.39322 0.0
H9 H 0.18353 0.06323 0.38385 0.0
C10 C 0.18518 0.13364 0.39285 0.0
C11 C 0.16926 0.14166 0.38188 0.0
C12 C 0.15269 0.08687 0.3825 0.0
H13 H 0.14523 0.0656 0.38291 0.0
C14 C 0.13726 0.0947 0.37131 0.0
H15 H 0.20373 0.14875 0.40114 0.0
C16 C 0.14547 0.12177 0.37088 0.0
H17 H 0.13313 0.12709 0.36177 0.0
H18 H 0.11872 0.07965 0.36298 0.0
H19 H 0.90406 0.09915 0.4197 0.0
C20 C 0.91899 0.11837 0.41535 0.0
C21 C 0.92679 0.14175 0.42807 0.0
C22 C 0.93044 0.11954 0.39732 0.0
H23 H 0.95449 0.1843 0.43337 0.0
C24 C 0.94783 0.16647 0.42325 0.0
C25 C 0.95992 0.16816 0.40531 0.0
C26 C 0.95019 0.14468 0.39222 0.0
C27 C 0.92211 0.09469 0.38376 0.0
H28 H 0.9578 0.146 0.37775 0.0
C29 C 0.89555 0.0729 0.38184 0.0
C30 C 0.8878 0.04976 0.36869 0.0
C31 C 0.94094 0.0927 0.37253 0.0
H32 H 0.96172 0.10847 0.37403 0.0
C33 C 0.93335 0.07024 0.35921 0.0
H34 H 0.88092 0.07394 0.39057 0.0
C35 C 0.90703 0.04909 0.35712 0.0
H36 H 0.90183 0.03229 0.34627 0.0
H37 H 0.94797 0.06922 0.35044 0.0
H38 H 0.91854 0.78657 0.44182 0.0
C39 C 0.90511 0.79022 0.43239 0.0
C40 C 0.8774 0.77551 0.43385 0.0
C41 C 0.91578 0.81063 0.41955 0.0
H42 H 0.83916 0.77073 0.42362 0.0
C43 C 0.86038 0.78108 0.42187 0.0
C44 C 0.87089 0.80172 0.4091 0.0
C45 C 0.89867 0.81622 0.4079 0.0
C46 C 0.94491 0.82889 0.42069 0.0
H47 H 0.90718 0.83261 0.39848 0.0
C48 C 0.96124 0.8226 0.4096 0.0
C49 C 0.9891 0.8404 0.411 0.0
C50 C 0.95641 0.85295 0.43317 0.0
H51 H 0.94404 0.85804 0.44179 0.0
C52 C 0.98393 0.87058 0.43466 0.0
H53 H 0.95229 0.80391 0.40005 0.0
C54 C 1.0002 0.86442 0.42366 0.0
H55 H 0.02145 0.87873 0.42482 0.0
H56 H 0.99267 0.88916 0.44428 0.0
H57 H 0.12948 0.22478 0.57633 0.0
C58 C 0.11208 0.22179 0.58357 0.0
C59 C 0.09976 0.23685 0.57886 0.0
C60 C 0.10136 0.20193 0.5969 0.0
H61 H 0.06684 0.24327 0.58459 0.0
C62 C 0.07707 0.23251 0.58848 0.0
C63 C 0.06624 0.21284 0.60202 0.0
C64 C 0.07859 0.19774 0.60611 0.0
C65 C 0.11208 0.18359 0.59972 0.0
H66 H 0.07021 0.18229 0.61633 0.0
C67 C 0.13935 0.19342 0.60567 0.0
C68 C 0.14889 0.17549 0.6088 0.0
C69 C 0.09457 0.15575 0.59645 0.0
H70 H 0.07359 0.14771 0.59169 0.0
C71 C 0.10391 0.138 0.59915 0.0
H72 H 0.15291 0.21489 0.60815 0.0
C73 C 0.13075 0.14769 0.60537 0.0
H74 H 0.13709 0.13329 0.60801 0.0
H75 H 0.09019 0.11658 0.59666 0.0
H76 H 0.81109 0.92537 0.60194 0.0
C77 C 0.80974 0.9073 0.60706 0.0
C78 C 0.79363 0.88272 0.59544 0.0
C79 C 0.82469 0.90884 0.62475 0.0
H80 H 0.78075 0.84061 0.59222 0.0
C81 C 0.79285 0.85942 0.60143 0.0
C82 C 0.80726 0.86029 0.61932 0.0
C83 C 0.82289 0.8851 0.6309 0.0
C84 C 0.84277 0.93527 0.6365 0.0
H85 H 0.8333 0.88587 0.64502 0.0
C86 C 0.83579 0.95547 0.63835 0.0
C87 C 0.85332 0.98055 0.64914 0.0
C88 C 0.86762 0.94067 0.64562 0.0
H89 H 0.87401 0.92599 0.64414 0.0
C90 C 0.88492 0.96535 0.6564 0.0
H91 H 0.81658 0.95159 0.63174 0.0
C92 C 0.87791 0.98516 0.65815 0.0
H93 H 0.89203 1.00433 0.66625 0.0
H94 H 0.90403 0.96927 0.66323 0.0
H95 H 0.09462 0.89872 0.58849 0.0
C96 C 0.1127 0.91401 0.59722 0.0
C97 C 0.13719 0.92635 0.58847 0.0
C98 C 0.11124 0.92205 0.61699 0.0
H99 H 0.17918 0.95664 0.5934 0.0
C100 C 0.16036 0.94664 0.6 0.0
C101 C 0.15932 0.95446 0.61995 0.0
C102 C 0.13473 0.94193 0.62825 0.0
C103 C 0.08511 0.91205 0.62559 0.0
H104 H 0.13365 0.94833 0.64346 0.0
C105 C 0.06628 0.88438 0.62545 0.0
C106 C 0.04259 0.87592 0.63505 0.0
C107 C 0.07939 0.93092 0.63466 0.0
H108 H 0.09321 0.95225 0.6347 0.0
C109 C 0.05586 0.92263 0.64374 0.0
H110 H 0.07044 0.8696 0.61858 0.0
C111 C 0.03768 0.89541 0.64406 0.0
H112 H 0.01949 0.88956 0.65118 0.0
H113 H 0.05173 0.9374 0.65064 0.0
H114 H 0.86721 0.45829 0.75431 0.0
C115 C 0.8702 0.44262 0.74756 0.0
C116 C 0.88484 0.43334 0.75856 0.0
C117 C 0.85809 0.4308 0.72824 0.0
H118 H 0.89839 0.40462 0.75806 0.0
C119 C 0.88814 0.41274 0.74951 0.0
C120 C 0.87693 0.40124 0.72993 0.0
C121 C 0.8617 0.41029 0.71947 0.0
C122 C 0.83895 0.43753 0.71832 0.0
H123 H 0.85246 0.40129 0.7045 0.0
C124 C 0.84594 0.46434 0.71596 0.0
C125 C 0.82678 0.4704 0.7077 0.0
C126 C 0.81278 0.41679 0.71225 0.0
H127 H 0.80687 0.39609 0.71411 0.0
C128 C 0.79368 0.42257 0.70447 0.0
H129 H 0.86632 0.4802 0.72026 0.0
C130 C 0.80044 0.44905 0.70241 0.0
H131 H 0.78473 0.45265 0.69687 0.0
H132 H 0.77339 0.40646 0.70025 0.0
H133 H 0.56887 0.43595 0.76348 0.0
C134 C 0.58404 0.45416 0.75796 0.0
C135 C 0.59063 0.47914 0.76775 0.0
C136 C 0.59717 0.4525 0.74145 0.0
H137 H 0.61597 0.52217 0.76841 0.0
C138 C 0.61092 0.50281 0.76107 0.0
C139 C 0.62443 0.50154 0.74472 0.0
C140 C 0.61745 0.47645 0.73502 0.0
C141 C 0.58959 0.42595 0.73077 0.0
H142 H 0.62736 0.47577 0.72198 0.0
C143 C 0.56273 0.40472 0.72827 0.0
C144 C 0.55555 0.3799 0.71767 0.0
C145 C 0.60927 0.42178 0.72273 0.0
H146 H 0.63016 0.43726 0.72476 0.0
C147 C 0.60232 0.39749 0.71204 0.0
H148 H 0.54743 0.40757 0.73452 0.0
C149 C 0.57575 0.37682 0.70936 0.0
H150 H 0.5711 0.35851 0.70054 0.0
H151 H 0.61763 0.3947 0.70572 0.0
H152 H 0.59928 0.13409 0.77054 0.0
C153 C 0.58026 0.13163 0.76481 0.0
C154 C 0.55789 0.11853 0.77578 0.0
C155 C 0.57856 0.1432 0.74723 0.0
H156 H 0.51612 0.10552 0.77658 0.0
C157 C 0.5336 0.11632 0.76856 0.0
C158 C 0.53163 0.12858 0.75163 0.0
C159 C 0.55397 0.14127 0.74072 0.0
C160 C 0.60284 0.15958 0.73662 0.0
H161 H 0.5525 0.15061 0.72756 0.0
C162 C 0.6222 0.15187 0.73379 0.0
C163 C 0.64455 0.16752 0.72324 0.0
C164 C 0.60677 0.18356 0.72929 0.0
H165 H 0.59298 0.1907 0.73175 0.0
C166 C 0.62878 0.19901 0.71897 0.0
H167 H 0.61963 0.13355 0.73934 0.0
C168 C 0.64746 0.19106 0.71588 0.0
H169 H 0.6646 0.20374 0.70808 0.0
H170 H 0.6315 0.21739 0.71346 0.0
H171 H 0.77902 0.54235 0.90352 0.0
C172 C 0.76544 0.54427 0.91302 0.0
C173 C 0.75251 0.55826 0.90699 0.0
C174 C 0.75949 0.53113 0.93056 0.0
H175 H 0.72417 0.57051 0.91472 0.0
C176 C 0.73401 0.55954 0.9191 0.0
C177 C 0.72855 0.54723 0.93706 0.0
C178 C 0.74128 0.53292 0.94257 0.0
C179 C 0.77011 0.51325 0.93537 0.0
H180 H 0.73656 0.52263 0.95606 0.0
C181 C 0.7978 0.52309 0.93887 0.0
C182 C 0.80738 0.5057 0.94386 0.0
C183 C 0.75211 0.48589 0.93653 0.0
H184 H 0.73075 0.4779 0.93382 0.0
C185 C 0.76144 0.46856 0.94105 0.0
H186 H 0.81172 0.54422 0.93801 0.0
C187 C 0.7888 0.47833 0.94475 0.0
H188 H 0.79534 0.4645 0.9489 0.0
H189 H 0.74738 0.4475 0.94193 0.0
H190 H 0.49555 0.25616 0.9308 0.0
C191 C 0.49325 0.23931 0.93863 0.0
C192 C 0.47932 0.21326 0.92877 0.0
C193 C 0.50619 0.24397 0.95794 0.0
H194 H 0.46678 0.17167 0.9311 0.0
C195 C 0.47736 0.19172 0.93879 0.0
C196 C 0.48957 0.19586 0.95832 0.0
C197 C 0.50423 0.22219 0.9677 0.0
C198 C 0.52463 0.2718 0.96685 0.0
H199 H 0.51424 0.22586 0.9826 0.0
C200 C 0.51579 0.29029 0.97044 0.0
C201 C 0.53402 0.31696 0.97848 0.0
C202 C 0.55173 0.28008 0.97125 0.0
H203 H 0.55895 0.26624 0.96848 0.0
C204 C 0.56991 0.30645 0.97869 0.0
H205 H 0.49475 0.28363 0.96741 0.0
C206 C 0.56126 0.32478 0.98214 0.0
H207 H 0.57612 0.34523 0.98752 0.0
H208 H 0.59086 0.31277 0.98168 0.0
H209 H 0.76755 0.22999 0.91889 0.0
C210 C 0.78545 0.24712 0.92641 0.0
C211 C 0.80951 0.25836 0.9172 0.0
C212 C 0.78394 0.25858 0.94492 0.0
H213 H 0.85082 0.2901 0.92015 0.0
C214 C 0.83242 0.28068 0.92732 0.0
C215 C 0.8316 0.29195 0.94617 0.0
C216 C 0.80712 0.28093 0.95472 0.0
C217 C 0.75763 0.24893 0.95302 0.0
H218 H 0.80605 0.28961 0.9691 0.0
C219 C 0.74042 0.22153 0.95544 0.0
C220 C 0.71506 0.21281 0.9624 0.0
C221 C 0.74924 0.26742 0.9577 0.0
H222 H 0.76195 0.28851 0.95582 0.0
C223 C 0.72415 0.25885 0.96439 0.0
H224 H 0.74676 0.20711 0.95198 0.0
C225 C 0.70714 0.2318 0.96669 0.0
H226 H 0.68797 0.2258 0.97229 0.0
H227 H 0.71786 0.27328 0.96787 0.0
H228 H 0.52699 0.77942 0.09015 0.0
C229 C 0.5302 0.76453 0.08231 0.0
C230 C 0.54221 0.75217 0.09281 0.0
C231 C 0.52164 0.75717 0.06182 0.0
H232 H 0.55457 0.72251 0.09045 0.0
C233 C 0.54577 0.73246 0.08247 0.0
C234 C 0.53777 0.7252 0.06194 0.0
C235 C 0.5259 0.7378 0.05177 0.0
C236 C 0.50649 0.76801 0.05099 0.0
H237 H 0.5193 0.73199 0.03598 0.0
C238 C 0.51473 0.79563 0.05293 0.0
C239 C 0.50029 0.80534 0.04197 0.0
C240 C 0.48339 0.75023 0.03833 0.0
H241 H 0.4762 0.72888 0.03684 0.0
C242 C 0.4692 0.75968 0.02745 0.0
H243 H 0.53236 0.80946 0.06277 0.0
C244 C 0.47764 0.78693 0.02907 0.0
H245 H 0.46651 0.79359 0.01992 0.0
H246 H 0.45165 0.7458 0.01757 0.0
H247 H 0.23647 0.77153 0.0879 0.0
C248 C 0.25261 0.79046 0.08405 0.0
C249 C 0.2624 0.81352 0.09751 0.0
C250 C 0.2645 0.79116 0.06631 0.0
H251 H 0.29099 0.85566 0.10291 0.0
C252 C 0.28361 0.8379 0.09254 0.0
C253 C 0.29634 0.83915 0.075 0.0
C254 C 0.28633 0.8156 0.06189 0.0
C255 C 0.25627 0.7656 0.05393 0.0
H256 H 0.29619 0.8159 0.04863 0.0
C257 C 0.22904 0.7457 0.04972 0.0
C258 C 0.22148 0.72028 0.0399 0.0
C259 C 0.27592 0.76011 0.04768 0.0
H260 H 0.29698 0.77471 0.05099 0.0
C261 C 0.26871 0.73522 0.03794 0.0
H262 H 0.21388 0.75018 0.05409 0.0
C263 C 0.24188 0.71538 0.03431 0.0
H264 H 0.23733 0.69598 0.02749 0.0
H265 H 0.28407 0.73104 0.03358 0.0
H266 H 0.25077 0.45622 0.10927 0.0
C267 C 0.2366 0.46007 0.10104 0.0
C268 C 0.20926 0.44551 0.10412 0.0
C269 C 0.24592 0.48057 0.08813 0.0
H270 H 0.17033 0.44087 0.09643 0.0
C271 C 0.19122 0.45122 0.09362 0.0
C272 C 0.20034 0.47189 0.08089 0.0
C273 C 0.22769 0.48634 0.07818 0.0
C274 C 0.27498 0.49861 0.08704 0.0
H275 H 0.23497 0.50273 0.06871 0.0
C276 C 0.29131 0.48922 0.07935 0.0
C277 C 0.31874 0.50728 0.07776 0.0
C278 C 0.28628 0.52597 0.09339 0.0
H279 H 0.27411 0.53358 0.09937 0.0
C280 C 0.3133 0.54377 0.09208 0.0
H281 H 0.28262 0.4681 0.07444 0.0
C282 C 0.32939 0.53461 0.08425 0.0
H283 H 0.35012 0.54917 0.08287 0.0
H284 H 0.32177 0.56485 0.09692 0.0
H285 H 0.45336 0.87944 0.23897 0.0
C286 C 0.43719 0.8777 0.24731 0.0
C287 C 0.42397 0.89181 0.24245 0.0
C288 C 0.42933 0.8608 0.2627 0.0
H289 H 0.39148 0.89814 0.24868 0.0
C290 C 0.4025 0.88851 0.25333 0.0
C291 C 0.39487 0.87232 0.2695 0.0
C292 C 0.40919 0.85911 0.27414 0.0
C293 C 0.44 0.84256 0.26575 0.0
H294 H 0.40499 0.84715 0.28666 0.0
C295 C 0.46725 0.85238 0.27152 0.0
C296 C 0.47653 0.83442 0.27524 0.0
C297 C 0.42219 0.81475 0.26329 0.0
H298 H 0.40115 0.80681 0.25882 0.0
C299 C 0.4313 0.79694 0.26657 0.0
H300 H 0.48097 0.87385 0.27341 0.0
C301 C 0.45818 0.80662 0.2726 0.0
H302 H 0.4644 0.79224 0.27573 0.0
H303 H 0.41738 0.77553 0.26471 0.0
H304 H 0.14527 0.5886 0.26117 0.0
C305 C 0.14513 0.57158 0.26731 0.0
C306 C 0.12646 0.5456 0.25879 0.0
C307 C 0.16361 0.57564 0.28349 0.0
H308 H 0.11171 0.50354 0.25979 0.0
C309 C 0.12647 0.52346 0.26637 0.0
C310 C 0.14568 0.52682 0.28175 0.0
C311 C 0.16382 0.55307 0.29045 0.0
C312 C 0.18302 0.6034 0.29286 0.0
H313 H 0.17839 0.55603 0.30254 0.0
C314 C 0.1758 0.62345 0.29468 0.0
C315 C 0.19395 0.64944 0.30402 0.0
C316 C 0.20899 0.60998 0.3002 0.0
H317 H 0.21571 0.5956 0.29852 0.0
C318 C 0.22684 0.63536 0.30971 0.0
H319 H 0.15602 0.61879 0.28888 0.0
C320 C 0.21939 0.6548 0.31182 0.0
H321 H 0.23364 0.67399 0.31981 0.0
H322 H 0.2466 0.63997 0.31556 0.0
H323 H 0.43311 0.57248 0.25959 0.0
C324 C 0.45145 0.58768 0.26809 0.0
C325 C 0.47563 0.59992 0.25894 0.0
C326 C 0.45061 0.59559 0.28805 0.0
H327 H 0.51781 0.62981 0.26352 0.0
C328 C 0.49916 0.61987 0.27034 0.0
C329 C 0.49878 0.62736 0.29051 0.0
C330 C 0.47443 0.6151 0.29913 0.0
C331 C 0.42483 0.58546 0.29714 0.0
H332 H 0.47384 0.62127 0.31452 0.0
C333 C 0.40587 0.55779 0.29647 0.0
C334 C 0.38247 0.549 0.30645 0.0
C335 C 0.41954 0.60408 0.3072 0.0
H336 H 0.43347 0.62545 0.30767 0.0
C337 C 0.39627 0.59548 0.3167 0.0
H338 H 0.40973 0.5432 0.28886 0.0
C339 C 0.37794 0.5682 0.31645 0.0
H340 H 0.35996 0.56208 0.32391 0.0
H341 H 0.39245 0.61005 0.32436 0.0
C342 C 0.54308 0.02492 0.07499 0.0
Eu343 Eu 0.52835 0.02535 0.03775 0.0
C344 C 0.52899 0.01399 0.09284 0.0
C345 C 0.50678 0.01631 0.09733 0.0
C346 C 0.49331 1.00526 0.11404 0.0
C347 C 0.50165 0.99153 0.12654 0.0
C348 C 0.52378 0.9891 0.1219 0.0
C349 C 0.53731 1.00026 0.10524 0.0
C350 C 0.51355 0.0591 0.02263 0.0
C351 C 0.46313 0.98331 0.03052 0.0
C352 C 0.48508 0.0077 0.95816 0.0
Eu353 Eu 0.50019 0.00834 0.99555 0.0
C354 C 0.49797 0.02138 0.94066 0.0
C355 C 0.5254 0.03156 0.93916 0.0
C356 C 0.53703 0.04339 0.92203 0.0
C357 C 0.52149 0.04541 0.90613 0.0
C358 C 0.49414 0.03567 0.90793 0.0
C359 C 0.48252 0.02375 0.92501 0.0
C360 C 0.51208 0.97304 0.01103 0.0
C361 C 0.56522 0.05062 1.00356 0.0
O362 O 0.54039 0.00716 0.06073 0.0
O363 O 0.54168 0.045 0.06811 0.0
O364 O 0.53584 0.06744 0.03372 0.0
O365 O 0.50001 0.03387 0.02085 0.0
O366 O 0.48587 0.99372 0.04213 0.0
O367 O 0.46255 0.98809 0.01152 0.0
O368 O 0.48318 0.02253 0.97268 0.0
O369 O 0.49206 0.99092 0.96469 0.0
O370 O 0.49036 0.9661 0.9997 0.0
O371 O 0.52737 0.99824 0.01278 0.0
O372 O 0.54259 0.04254 0.99225 0.0
O373 O 0.56528 0.04291 0.02163 0.0
H374 H 0.49969 0.02649 0.08786 0.0
H375 H 0.47612 0.00715 0.11702 0.0
H376 H 0.53089 0.97889 0.13132 0.0
H377 H 0.5543 0.99812 0.10201 0.0
H378 H 0.53777 0.03009 0.95113 0.0
H379 H 0.5582 0.051 0.92124 0.0
H380 H 0.48153 0.03664 0.89589 0.0
H381 H 0.46135 0.01604 0.92588 0.0
C382 C 0.01179 0.53422 0.06606 0.0
Eu383 Eu 1.00965 0.51545 0.02936 0.0
C384 C 0.0203 0.53218 0.08662 0.0
C385 C 1.00437 0.53082 0.10195 0.0
C386 C 0.01218 0.52954 0.12169 0.0
C387 C 0.0362 0.52974 0.1265 0.0
C388 C 0.05211 0.53098 0.11108 0.0
C389 C 0.04418 0.53208 0.09128 0.0
C390 C 0.97584 0.46334 0.01496 0.0
C391 C 0.05547 0.49859 0.02489 0.0
C392 C 0.01256 0.47808 0.95218 0.0
Eu393 Eu 0.01864 0.49921 0.98867 0.0
C394 C 0.99673 0.47536 0.93333 0.0
C395 C 1.00992 0.48476 0.91618 0.0
C396 C 0.99558 0.48293 0.8982 0.0
C397 C 0.9676 0.47137 0.89691 0.0
C398 C 0.95441 0.462 0.91419 0.0
C399 C 0.96882 0.46408 0.93224 0.0
C400 C 0.05421 0.55071 1.00227 0.0
C401 C 0.97654 0.52084 0.99331 0.0
O402 O 0.03053 0.54639 0.0542 0.0
O403 O 0.99082 0.5129 0.05704 0.0
O404 O 0.96817 0.47815 0.02431 0.0
O405 O 1.00069 0.47638 0.01402 0.0
O406 O 0.04667 0.51203 0.03552 0.0
O407 O 0.04479 0.48749 0.00656 0.0
O408 O 0.99958 0.46431 0.96663 0.0
O409 O 0.03145 0.50242 0.95859 0.0
O410 O 0.05999 0.53522 0.99162 0.0
O411 O 0.02942 0.53905 1.00435 0.0
O412 O 0.98223 0.50442 0.98303 0.0
O413 O 0.98885 0.53219 0.01118 0.0
H414 H 0.98592 0.53095 0.09866 0.0
H415 H 0.99964 0.52889 0.13325 0.0
H416 H 0.07056 0.53084 0.1143 0.0
H417 H 0.05675 0.53295 0.07968 0.0
H418 H 0.03144 0.49373 0.91671 0.0
H419 H 1.00653 0.49086 0.88537 0.0
H420 H 0.93288 0.45268 0.91375 0.0
H421 H 0.95809 0.4568 0.94529 0.0
C422 C 0.49597 0.48518 0.95549 0.0
Eu423 Eu 0.51016 0.50759 0.99216 0.0
C424 C 0.506 0.4886 0.93549 0.0
C425 C 0.49096 0.49099 0.91953 0.0
C426 C 0.49837 0.49164 0.90008 0.0
C427 C 0.5209 0.48962 0.89607 0.0
C428 C 0.53666 0.48835 0.9122 0.0
C429 C 0.52927 0.48782 0.93174 0.0
C430 C 0.52286 0.5581 1.00484 0.0
C431 C 0.57486 0.53276 1.00301 0.0
C432 C 0.54862 0.54765 0.07257 0.0
Eu433 Eu 0.53429 0.52575 0.0357 0.0
C434 C 0.53672 0.5534 0.08962 0.0
C435 C 0.55292 0.57541 0.10365 0.0
C436 C 0.54247 0.58029 0.12062 0.0
C437 C 0.51557 0.56322 0.12387 0.0
C438 C 0.49929 0.54142 0.10958 0.0
C439 C 0.50971 0.53661 0.09257 0.0
C440 C 0.52228 0.47547 0.02253 0.0
C441 C 0.47027 0.5013 0.02453 0.0
O442 O 0.50745 0.47802 0.96921 0.0
O443 O 0.48989 0.5028 0.96261 0.0
O444 O 0.50348 0.54294 0.9913 0.0
O445 O 0.5365 0.54734 0.00928 0.0
O446 O 0.5536 0.51942 0.98985 0.0
O447 O 0.573 0.54003 0.0216 0.0
O448 O 0.55151 0.56144 0.05717 0.0
O449 O 0.54034 0.52236 0.06736 0.0
O450 O 0.54288 0.49166 0.03492 0.0
O451 O 0.50806 0.48586 0.01857 0.0
O452 O 0.49189 0.51818 0.03648 0.0
O453 O 0.47205 0.49026 0.00737 0.0
H454 H 0.47301 0.49173 0.92203 0.0
H455 H 0.4861 0.49322 0.8881 0.0
H456 H 0.55407 0.48665 0.90966 0.0
H457 H 0.54137 0.48606 0.94376 0.0
H458 H 0.57378 0.58866 0.10161 0.0
H459 H 0.55545 0.59743 0.1312 0.0
H460 H 0.4787 0.52762 0.11188 0.0
H461 H 0.49682 0.51947 0.08195 0.0
C462 C 0.19806 0.36435 0.40399 0.0
Eu463 Eu 0.18431 0.35863 0.36565 0.0
C464 C 0.18571 0.35244 0.42228 0.0
C465 C 0.16324 0.35318 0.42838 0.0
C466 C 0.15268 0.34286 0.44619 0.0
C467 C 0.16421 0.33141 0.45824 0.0
C468 C 0.18634 0.3302 0.4519 0.0
C469 C 0.19702 0.34071 0.43417 0.0
C470 C 0.17183 0.38942 0.34371 0.0
C471 C 0.12039 0.31426 0.3562 0.0
C472 C 0.14776 0.32159 0.28446 0.0
Eu473 Eu 0.16128 0.33407 0.32291 0.0
C474 C 0.15409 0.33277 0.265 0.0
C475 C 0.14801 0.31509 0.24787 0.0
C476 C 0.15255 0.32461 0.229 0.0
C477 C 0.16319 0.3521 0.2268 0.0
C478 C 0.16995 0.36995 0.24412 0.0
C479 C 0.16546 0.36036 0.26308 0.0
C480 C 0.17261 0.30358 0.34619 0.0
C481 C 0.22353 0.38274 0.33194 0.0
O482 O 0.20194 0.34901 0.39118 0.0
O483 O 0.18986 0.37901 0.39524 0.0
O484 O 0.19124 0.39914 0.35794 0.0
O485 O 0.15843 0.36407 0.34285 0.0
O486 O 0.1414 0.32736 0.36954 0.0
O487 O 0.12221 0.3154 0.33676 0.0
O488 O 0.13601 0.33039 0.29626 0.0
O489 O 0.1658 0.31808 0.29414 0.0
O490 O 0.15186 0.29411 0.33332 0.0
O491 O 0.18721 0.32858 0.34564 0.0
O492 O 0.20182 0.37022 0.31912 0.0
O493 O 0.22273 0.37893 0.35113 0.0
H494 H 0.15389 0.3619 0.41949 0.0
H495 H 0.13541 0.34378 0.45051 0.0
H496 H 0.19584 0.32173 0.46091 0.0
H497 H 0.21438 0.33994 0.42985 0.0
H498 H 0.13944 0.29377 0.24905 0.0
H499 H 0.14764 0.31034 0.21611 0.0
H500 H 0.17807 0.39121 0.24299 0.0
H501 H 0.17053 0.3744 0.27616 0.0
C502 C 0.69489 0.87829 0.39843 0.0
Eu503 Eu 0.6833 0.84847 0.36486 0.0
C504 C 0.70139 0.87759 0.41975 0.0
C505 C 0.70164 0.8553 0.42685 0.0
C506 C 0.7083 0.85534 0.44722 0.0
C507 C 0.71476 0.87766 0.46078 0.0
C508 C 0.71462 0.89996 0.45343 0.0
C509 C 0.70798 0.89989 0.43314 0.0
C510 C 0.65059 0.79398 0.35666 0.0
C511 C 0.7254 0.82775 0.35544 0.0
C512 C 0.67572 0.80301 0.28394 0.0
Eu513 Eu 0.68586 0.82677 0.31991 0.0
C514 C 0.65535 0.79514 0.26695 0.0
C515 C 0.65047 0.77416 0.25274 0.0
C516 C 0.63325 0.7683 0.23543 0.0
C517 C 0.62071 0.78344 0.23203 0.0
C518 C 0.625 0.80388 0.24667 0.0
C519 C 0.64205 0.80959 0.26403 0.0
C520 C 0.72263 0.87799 0.33314 0.0
C521 C 0.64391 0.84796 0.32888 0.0
O522 O 0.71285 0.88039 0.3865 0.0
O523 O 0.67029 0.86128 0.39091 0.0
O524 O 0.65241 0.80654 0.37383 0.0
O525 O 0.66683 0.81095 0.3464 0.0
O526 O 0.71935 0.84308 0.36684 0.0
O527 O 0.71222 0.81525 0.33783 0.0
O528 O 0.66811 0.78978 0.29979 0.0
O529 O 0.6915 0.82891 0.28836 0.0
O530 O 0.72746 0.86279 0.32116 0.0
O531 O 0.69839 0.86609 0.33661 0.0
O532 O 0.65006 0.83301 0.31708 0.0
O533 O 0.65648 0.85901 0.34687 0.0
H534 H 0.69669 0.83793 0.41666 0.0
H535 H 0.70803 0.83778 0.45239 0.0
H536 H 0.72 0.9177 0.46333 0.0
H537 H 0.70812 0.91736 0.42787 0.0
H538 H 0.66047 0.76272 0.25479 0.0
H539 H 0.63005 0.75217 0.22458 0.0
H540 H 0.6161 0.81623 0.24432 0.0
H541 H 0.64556 0.82592 0.27481 0.0
C542 C 0.17398 0.84733 0.28246 0.0
Eu543 Eu 0.1844 0.85597 0.32127 0.0
C544 C 0.18511 0.84237 0.26467 0.0
C545 C 0.17658 0.84609 0.24584 0.0
C546 C 0.18639 0.84102 0.22861 0.0
C547 C 0.20494 0.83208 0.2299 0.0
C548 C 0.21375 0.82874 0.24891 0.0
C549 C 0.20395 0.83389 0.26616 0.0
C550 C 0.19455 0.90089 0.34378 0.0
C551 C 0.24564 0.87011 0.33485 0.0
C552 C 0.21074 0.86581 0.40439 0.0
Eu553 Eu 0.20206 0.85795 0.36547 0.0
C554 C 0.19961 0.87314 0.42136 0.0
C555 C 0.21695 0.89306 0.43645 0.0
C556 C 0.20692 0.89937 0.4531 0.0
C557 C 0.17926 0.88583 0.45506 0.0
C558 C 0.16192 0.86616 0.43972 0.0
C559 C 0.17195 0.8599 0.42307 0.0
C560 C 0.19127 0.81294 0.34275 0.0
C561 C 0.14051 0.84231 0.35157 0.0
O562 O 0.16432 0.82828 0.29452 0.0
O563 O 0.18773 0.87131 0.29202 0.0
O564 O 0.17679 0.8902 0.32848 0.0
O565 O 0.20774 0.88897 0.3455 0.0
O566 O 0.22597 0.86155 0.32044 0.0
O567 O 0.24233 0.87335 0.35387 0.0
O568 O 0.22407 0.88451 0.39265 0.0
O569 O 0.19543 0.8422 0.39453 0.0
O570 O 0.21 0.8243 0.35739 0.0
O571 O 0.17781 0.82462 0.34156 0.0
O572 O 0.16062 0.85286 0.36581 0.0
O573 O 0.14393 0.83796 0.33278 0.0
H574 H 0.16206 0.85266 0.24443 0.0
H575 H 0.17892 0.84348 0.21423 0.0
H576 H 0.22828 0.8222 0.25045 0.0
H577 H 0.21093 0.83109 0.28062 0.0
H578 H 0.23835 0.9036 0.43545 0.0
H579 H 0.22087 0.91492 0.46442 0.0
H580 H 0.14058 0.85506 0.4408 0.0
H581 H 0.15804 0.84438 0.41171 0.0
C582 C 0.85701 0.68921 0.73473 0.0
Eu583 Eu 0.84323 0.68644 0.69663 0.0
C584 C 0.84471 0.67318 0.75145 0.0
C585 C 0.85414 0.68458 0.77123 0.0
C586 C 0.84135 0.67031 0.78723 0.0
C587 C 0.8187 0.64447 0.78368 0.0
C588 C 0.8097 0.63292 0.76382 0.0
C589 C 0.82262 0.64708 0.74787 0.0
C590 C 0.82888 0.71959 0.67975 0.0
C591 C 0.77969 0.64306 0.6877 0.0
C592 C 0.8001 0.66631 0.61671 0.0
Eu593 Eu 0.8175 0.66891 0.65384 0.0
C594 C 0.80966 0.67452 0.59695 0.0
C595 C 0.80438 0.65476 0.58143 0.0
C596 C 0.81099 0.66174 0.56214 0.0
C597 C 0.82285 0.68867 0.55786 0.0
C598 C 0.82873 0.70854 0.57354 0.0
C599 C 0.8222 0.70156 0.59287 0.0
C600 C 0.82948 0.63389 0.67002 0.0
C601 C 0.88212 0.71249 0.66272 0.0
O602 O 0.86409 0.67807 0.7207 0.0
O603 O 0.84518 0.70157 0.72746 0.0
O604 O 0.85077 0.72821 0.69134 0.0
O605 O 0.81547 0.69437 0.67827 0.0
O606 O 0.80198 0.65045 0.6991 0.0
O607 O 0.78019 0.65174 0.66991 0.0
O608 O 0.80386 0.68512 0.63046 0.0
O609 O 0.80365 0.64762 0.62395 0.0
O610 O 0.80868 0.62694 0.65759 0.0
O611 O 0.8442 0.6592 0.67251 0.0
O612 O 0.86033 0.70086 0.64991 0.0
O613 O 0.88135 0.70825 0.68186 0.0
H614 H 0.87111 0.70474 0.7743 0.0
H615 H 0.84866 0.67983 0.80234 0.0
H616 H 0.79259 0.61292 0.76064 0.0
H617 H 0.81511 0.63776 0.73275 0.0
H618 H 0.79461 0.63376 0.58413 0.0
H619 H 0.80657 0.64597 0.55052 0.0
H620 H 0.83755 0.72944 0.57075 0.0
H621 H 0.82641 0.71729 0.60447 0.0
C622 C 0.3452 0.19358 0.74121 0.0
Eu623 Eu 0.34063 0.17473 0.70417 0.0
C624 C 0.35902 0.19322 0.76018 0.0
C625 C 0.36028 0.17037 0.76459 0.0
C626 C 0.37472 0.17081 0.7821 0.0
C627 C 0.38833 0.19416 0.79555 0.0
C628 C 0.38671 0.2169 0.79117 0.0
C629 C 0.3722 0.21641 0.77364 0.0
C630 C 0.30387 0.12543 0.68667 0.0
C631 C 0.3817 0.1511 0.7007 0.0
C632 C 0.3499 0.14433 0.62634 0.0
Eu633 Eu 0.35241 0.16064 0.66366 0.0
C634 C 0.33576 0.1441 0.60733 0.0
C635 C 0.35068 0.15601 0.59134 0.0
C636 C 0.33802 0.15683 0.57334 0.0
C637 C 0.31012 0.14545 0.57089 0.0
C638 C 0.29512 0.13344 0.58686 0.0
C639 C 0.30785 0.13299 0.60501 0.0
C640 C 0.3893 0.20952 0.68137 0.0
C641 C 0.31147 0.18432 0.66756 0.0
O642 O 0.36071 0.20762 0.7279 0.0
O643 O 0.325 0.17068 0.7333 0.0
O644 O 0.29793 0.14044 0.69779 0.0
O645 O 0.32885 0.13592 0.68666 0.0
O646 O 0.37307 0.16463 0.71142 0.0
O647 O 0.37409 0.14395 0.68139 0.0
O648 O 0.33559 0.12839 0.63941 0.0
O649 O 0.36817 0.16802 0.6346 0.0
O650 O 0.39518 0.19362 0.67137 0.0
O651 O 0.3643 0.19946 0.68101 0.0
O652 O 0.31835 0.16919 0.6568 0.0
O653 O 0.32101 0.19284 0.6864 0.0
H654 H 0.35035 0.15223 0.75441 0.0
H655 H 0.37517 0.1528 0.7851 0.0
H656 H 0.39719 0.23531 0.80102 0.0
H657 H 0.37164 0.23431 0.77043 0.0
H658 H 0.37221 0.16478 0.59282 0.0
H659 H 0.35 0.16593 0.56119 0.0
H660 H 0.27358 0.12464 0.58536 0.0
H661 H 0.29587 0.12407 0.61717 0.0
C662 C 0.83214 0.1721 0.61142 0.0
Eu663 Eu 0.84508 0.1854 0.64969 0.0
C664 C 0.84214 0.16486 0.59363 0.0
C665 C 0.8635 0.18474 0.58438 0.0
C666 C 0.87089 0.17839 0.56634 0.0
C667 C 0.8571 0.15202 0.55702 0.0
C668 C 0.83642 0.13195 0.56668 0.0
C669 C 0.82897 0.13832 0.58471 0.0
C670 C 0.86061 0.23485 0.66739 0.0
C671 C 0.90711 0.19843 0.65934 0.0
C672 C 0.89205 0.2271 0.72986 0.0
Eu673 Eu 0.87375 0.20065 0.69465 0.0
C674 C 0.88121 0.22455 0.74941 0.0
C675 C 0.89555 0.24449 0.76524 0.0
C676 C 0.88409 0.24377 0.78315 0.0
C677 C 0.85796 0.22316 0.78547 0.0
C678 C 0.84398 0.20278 0.7697 0.0
C679 C 0.85551 0.20347 0.75185 0.0
C680 C 0.85287 0.14737 0.68283 0.0
C681 C 0.80809 0.1747 0.68555 0.0
O682 O 0.82223 0.15467 0.62474 0.0
O683 O 0.84631 0.19693 0.61951 0.0
O684 O 0.83878 0.22071 0.65562 0.0
O685 O 0.87359 0.22271 0.6688 0.0
O686 O 0.88421 0.18571 0.64776 0.0
O687 O 0.90945 0.21001 0.6775 0.0
O688 O 0.88009 0.23345 0.7159 0.0
O689 O 0.897 0.2083 0.72339 0.0
O690 O 0.86607 0.15862 0.70021 0.0
O691 O 0.85128 0.16502 0.67377 0.0
O692 O 0.83022 0.18808 0.69805 0.0
O693 O 0.80817 0.16871 0.66623 0.0
H694 H 0.87406 0.20547 0.59072 0.0
H695 H 0.88668 0.19444 0.55928 0.0
H696 H 0.82564 0.11133 0.56012 0.0
H697 H 0.81241 0.12257 0.59141 0.0
H698 H 0.91532 0.26105 0.76354 0.0
H699 H 0.8953 0.25994 0.79488 0.0
H700 H 0.82397 0.18646 0.77106 0.0
H701 H 0.84411 0.18791 0.73976 0.0
H702 H 0.31543 0.85928 0.03887 0.0
H703 H 0.33584 0.87548 0.10329 0.0
H704 H 0.37785 0.91575 0.09828 0.0
H705 H 0.38162 0.87725 0.02756 0.0
H706 H 0.38014 0.89191 1.00489 0.0
H707 H 0.34993 0.86557 0.01325 0.0
H708 H 0.32919 0.89626 0.0127 0.0
H709 H 0.35943 0.92275 1.00442 0.0
H710 H 0.34661 0.92883 0.02671 0.0
H711 H 0.41842 0.95271 0.08708 0.0
H712 H 0.4569 0.98353 0.07009 0.0
H713 H 0.4133 0.94348 0.01243 0.0
C714 C 0.32862 0.87128 0.05196 0.0
C715 C 0.3216 0.8642 0.07155 0.0
C716 C 0.33982 0.88068 0.08815 0.0
C717 C 0.36404 0.90361 0.08548 0.0
C718 C 0.37022 0.90989 0.0661 0.0
C719 C 0.35325 0.89419 0.04958 0.0
C720 C 0.36588 0.90472 0.03039 0.0
C721 C 0.36961 0.8836 0.01831 0.0
C722 C 0.34928 0.91367 0.01781 0.0
C723 C 0.39266 0.92862 0.03881 0.0
C724 C 0.39443 0.93119 0.05948 0.0
C725 C 0.41725 0.95098 0.07091 0.0
C726 C 0.43909 0.96839 0.06105 0.0
C727 C 0.43825 0.96601 0.03988 0.0
C728 C 0.41447 0.94604 0.02859 0.0
H729 H 0.15124 0.44128 0.0588 0.0
H730 H 0.20799 0.52233 0.0844 0.0
H731 H 0.17741 0.53763 0.07211 0.0
H732 H 0.12972 0.46111 0.01375 0.0
H733 H 0.09537 0.43464 0.01302 0.0
H734 H 0.12175 0.42984 0.02363 0.0
H735 H 0.09908 0.41834 0.05662 0.0
H736 H 0.07267 0.42315 0.04613 0.0
H737 H 0.09163 0.4418 0.06934 0.0
H738 H 0.14 0.54371 0.05946 0.0
H739 H 0.09895 0.54123 0.0445 0.0
H740 H 0.06674 0.45717 0.02448 0.0
C741 C 0.15719 0.46225 0.06168 0.0
C742 C 0.18203 0.4807 0.07248 0.0
C743 C 0.18921 0.50798 0.07597 0.0
C744 C 0.17193 0.51682 0.06913 0.0
C745 C 0.14761 0.49821 0.05858 0.0
C746 C 0.14029 0.47157 0.0546 0.0
C747 C 0.113 0.45595 0.0427 0.0
C748 C 0.1151 0.44473 0.02205 0.0
C749 C 0.09291 0.43348 0.0544 0.0
C750 C 0.10603 0.47792 0.0409 0.0
C751 C 0.12628 0.50205 0.05037 0.0
C752 C 0.12415 0.52503 0.05179 0.0
C753 C 0.10072 0.52339 0.04333 0.0
C754 C 0.07984 0.49909 0.03326 0.0
C755 C 0.08261 0.47608 0.03185 0.0
H756 H 0.52717 0.67645 0.07448 0.0
H757 H 0.55497 0.72544 0.02483 0.0
H758 H 0.55694 0.68886 0.00571 0.0
H759 H 0.56796 0.64407 0.06869 0.0
H760 H 0.5419 0.61219 0.07519 0.0
H761 H 0.54444 0.64289 0.08563 0.0
H762 H 0.4953 0.62551 0.07202 0.0
H763 H 0.49275 0.59488 0.06155 0.0
H764 H 0.48527 0.61495 0.04573 0.0
H765 H 0.55217 0.6459 0.99083 0.0
H766 H 0.54231 0.59947 0.98169 0.0
H767 H 0.5193 0.57875 0.04118 0.0
C768 C 0.53424 0.67971 0.05976 0.0
C769 C 0.54089 0.70385 0.05115 0.0
C770 C 0.54949 0.70705 0.03166 0.0
C771 C 0.55084 0.68645 0.02073 0.0
C772 C 0.54374 0.66279 0.02952 0.0
C773 C 0.53578 0.65933 0.04865 0.0
C774 C 0.52808 0.63141 0.05422 0.0
C775 C 0.54672 0.63274 0.07199 0.0
C776 C 0.4986 0.61578 0.05863 0.0
C777 C 0.53253 0.61964 0.03511 0.0
C778 C 0.54163 0.63812 0.02107 0.0
C779 C 0.54553 0.63142 1.00181 0.0
C780 C 0.5399 0.6051 0.99673 0.0
C781 C 0.53078 0.58605 0.01092 0.0
C782 C 0.52715 0.59337 0.03034 0.0
H783 H 0.83695 0.33745 0.96689 0.0
H784 H 0.88237 0.29987 0.94895 0.0
H785 H 0.9238 0.33929 0.96479 0.0
H786 H 0.88628 0.40496 0.95914 0.0
H787 H 0.87964 0.41998 0.98064 0.0
H788 H 0.85347 0.38875 0.96792 0.0
H789 H 0.84658 0.36677 1.00133 0.0
H790 H 0.87285 0.39799 0.01402 0.0
H791 H 0.87462 0.3678 0.01526 0.0
H792 H 0.96057 0.38314 0.98176 0.0
H793 H 0.99006 0.42819 0.99949 0.0
H794 H 0.92109 0.43721 0.00738 0.0
C795 C 0.85555 0.33736 0.96649 0.0
C796 C 0.85633 0.3155 0.95656 0.0
C797 C 0.88123 0.31645 0.95619 0.0
C798 C 0.90489 0.33872 0.96524 0.0
C799 C 0.90346 0.35997 0.97471 0.0
C800 C 0.87945 0.35949 0.97548 0.0
C801 C 0.88357 0.38512 0.98653 0.0
C802 C 0.87524 0.40061 0.97272 0.0
C803 C 0.86851 0.37905 1.00541 0.0
C804 C 0.91362 0.40003 0.99184 0.0
C805 C 0.92468 0.38516 0.9848 0.0
C806 C 0.95212 0.3949 0.98743 0.0
C807 C 0.96871 0.4205 0.9975 0.0
C808 C 0.95785 0.43608 1.00488 0.0
C809 C 0.92991 0.42561 1.00206 0.0
H810 H 0.67722 0.53605 0.92629 0.0
H811 H 0.7365 0.56166 0.97723 0.0
H812 H 0.70442 0.56294 0.99939 0.0
H813 H 0.64661 0.57525 0.94218 0.0
H814 H 0.6132 0.54908 0.93319 0.0
H815 H 0.64136 0.55186 0.92115 0.0
H816 H 0.62637 0.50251 0.92685 0.0
H817 H 0.59824 0.49969 0.93893 0.0
H818 H 0.62148 0.49217 0.95182 0.0
H819 H 0.6656 0.56056 0.01616 0.0
H820 H 0.62222 0.55257 0.02657 0.0
H821 H 0.58757 0.52705 0.9649 0.0
C822 C 0.68351 0.54228 0.94207 0.0
C823 C 0.7094 0.54894 0.95006 0.0
C824 C 0.71675 0.55646 0.97084 0.0
C825 C 0.69871 0.55734 0.98351 0.0
C826 C 0.67326 0.55044 0.97522 0.0
C827 C 0.66558 0.54292 0.955 0.0
C828 C 0.63659 0.53515 0.9501 0.0
C829 C 0.63432 0.55397 0.93581 0.0
C830 C 0.61968 0.50563 0.94142 0.0
C831 C 0.62918 0.53935 0.97073 0.0
C832 C 0.65068 0.54843 0.98498 0.0
C833 C 0.64863 0.55351 1.00512 0.0
C834 C 0.62388 0.54895 0.01089 0.0
C835 C 0.6014 0.53918 0.99662 0.0
C836 C 0.6043 0.53452 0.97625 0.0
H837 H 0.52923 0.19318 0.98114 0.0
H838 H 0.44554 0.1459 0.95824 0.0
H839 H 0.44264 0.10638 0.97281 0.0
H840 H 0.54575 0.14211 0.97272 0.0
H841 H 0.56767 0.15161 0.99546 0.0
H842 H 0.56305 0.17643 0.98367 0.0
H843 H 0.54873 0.18837 0.01676 0.0
H844 H 0.55329 0.16343 0.02849 0.0
H845 H 0.52162 0.16226 0.02832 0.0
H846 H 0.44909 0.0715 0.98831 0.0
H847 H 0.46414 0.04364 1.00493 0.0
H848 H 0.54333 0.11335 0.01887 0.0
C849 C 0.51017 0.17465 0.97947 0.0
C850 C 0.48763 0.17267 0.96842 0.0
C851 C 0.46319 0.14786 0.96636 0.0
C852 C 0.46129 0.12532 0.97468 0.0
C853 C 0.48394 0.12786 0.9852 0.0
C854 C 0.50788 0.1519 0.98777 0.0
C855 C 0.52927 0.14897 0.99952 0.0
C856 C 0.55282 0.15514 0.98708 0.0
C857 C 0.53878 0.16682 0.01946 0.0
C858 C 0.5137 0.11944 1.00287 0.0
C859 C 0.48757 0.10771 0.99448 0.0
C860 C 0.46943 0.0805 0.99508 0.0
C861 C 0.47819 0.06483 1.0045 0.0
C862 C 0.50484 0.07637 0.01324 0.0
C863 C 0.52277 0.10407 0.01248 0.0
H864 H 0.6612 0.18104 0.9513 0.0
H865 H 0.72823 0.18101 0.98323 0.0
H866 H 0.69732 0.13676 0.99458 0.0
H867 H 0.61634 0.15446 0.98672 0.0
H868 H 0.58727 0.13386 0.96933 0.0
H869 H 0.61489 0.16367 0.96169 0.0
H870 H 0.61807 0.13524 0.93186 0.0
H871 H 0.59036 0.10543 0.93962 0.0
H872 H 0.62163 0.10667 0.93652 0.0
H873 H 0.65856 0.09621 0.00662 0.0
H874 H 0.61533 0.06069 0.01626 0.0
H875 H 0.57342 0.08585 0.9753 0.0
C876 C 0.66941 0.17139 0.9603 0.0
C877 C 0.69715 0.18442 0.96635 0.0
C878 C 0.70714 0.17125 0.9782 0.0
C879 C 0.68969 0.14616 0.98478 0.0
C880 C 0.66235 0.13426 0.97906 0.0
C881 C 0.6523 0.1462 0.96675 0.0
C882 C 0.62199 0.12988 0.96361 0.0
C883 C 0.60942 0.14648 0.97078 0.0
C884 C 0.61246 0.11864 0.94159 0.0
C885 C 0.61649 0.10761 0.97686 0.0
C886 C 0.64004 0.11038 0.98552 0.0
C887 C 0.64002 0.09352 0.99959 0.0
C888 C 0.61536 0.07347 1.00505 0.0
C889 C 0.59099 0.07029 0.99639 0.0
C890 C 0.59167 0.08738 0.98187 0.0
H891 H 0.83707 0.482 0.93439 0.0
H892 H 0.84299 0.55211 0.96691 0.0
H893 H 0.88903 0.56607 0.98021 0.0
H894 H 0.86912 0.46648 0.97214 0.0
H895 H 0.88635 0.45571 0.95587 0.0
H896 H 0.85538 0.4532 0.94668 0.0
H897 H 0.87878 0.48141 0.91771 0.0
H898 H 0.90982 0.48399 0.92704 0.0
H899 H 0.90836 0.51394 0.92338 0.0
H900 H 0.93172 0.5692 0.9936 0.0
H901 H 0.96895 0.56242 1.00492 0.0
H902 H 0.93585 0.4904 0.96372 0.0
C903 C 0.8482 0.50053 0.94406 0.0
C904 C 0.83634 0.51601 0.94953 0.0
C905 C 0.85168 0.54014 0.96219 0.0
C906 C 0.87784 0.54817 0.96992 0.0
C907 C 0.88856 0.53202 0.96472 0.0
C908 C 0.87436 0.50885 0.95188 0.0
C909 C 0.88984 0.49415 0.94974 0.0
C910 C 0.87423 0.46571 0.95652 0.0
C911 C 0.89713 0.49334 0.92818 0.0
C912 C 0.91452 0.51215 0.96397 0.0
C913 C 0.91346 0.53401 0.9723 0.0
C914 C 0.93299 0.55244 0.98692 0.0
C915 C 0.95401 0.54834 0.99332 0.0
C916 C 0.95544 0.52601 0.98511 0.0
C917 C 0.93558 0.50793 0.97002 0.0
H918 H 0.55432 0.35739 0.00923 0.0
H919 H 0.49381 0.32206 0.95852 0.0
H920 H 0.4815 0.35676 0.96571 0.0
H921 H 0.51999 0.37943 0.04157 0.0
H922 H 0.55008 0.41027 0.05061 0.0
H923 H 0.55185 0.38092 0.04275 0.0
H924 H 0.58591 0.40774 0.01776 0.0
H925 H 0.58428 0.43716 0.02558 0.0
H926 H 0.57728 0.42461 0.99953 0.0
H927 H 0.477 0.39717 0.97829 0.0
H928 H 0.48286 0.44014 0.99354 0.0
H929 H 0.54945 0.45037 0.03323 0.0
C930 C 0.53856 0.35684 0.99945 0.0
C931 C 0.52516 0.33681 0.98321 0.0
C932 C 0.5042 0.33681 0.97124 0.0
C933 C 0.49714 0.35658 0.97514 0.0
C934 C 0.51129 0.37635 0.991 0.0
C935 C 0.53167 0.37661 1.00286 0.0
C936 C 0.54515 0.40085 0.01813 0.0
C937 C 0.54154 0.39235 0.03953 0.0
C938 C 0.57491 0.41864 0.01505 0.0
C939 C 0.52942 0.41449 0.01293 0.0
C940 C 0.50965 0.39993 0.99748 0.0
C941 C 0.49255 0.40875 0.9903 0.0
C942 C 0.49607 0.4332 0.99897 0.0
C943 C 0.51691 0.44878 0.01428 0.0
C944 C 0.53349 0.43902 0.02143 0.0
H945 H 0.19829 0.67981 0.0089 0.0
H946 H 0.17887 0.71058 0.06195 0.0
H947 H 0.13237 0.67302 0.05615 0.0
H948 H 0.13481 0.65141 0.97911 0.0
H949 H 0.13604 0.62223 0.96974 0.0
H950 H 0.1666 0.65364 0.9764 0.0
H951 H 0.18333 0.63051 1.00061 0.0
H952 H 0.15291 0.59907 0.99395 0.0
H953 H 0.16286 0.61239 0.01981 0.0
H954 H 0.08736 0.63007 0.04474 0.0
H955 H 0.05085 0.58475 0.03101 0.0
H956 H 0.10286 0.58041 0.98895 0.0
C957 C 0.18454 0.67885 0.0195 0.0
C958 C 0.1927 0.69856 0.03591 0.0
C959 C 0.17336 0.69632 0.04897 0.0
C960 C 0.14679 0.67485 0.04588 0.0
C961 C 0.1398 0.65551 0.02982 0.0
C962 C 0.1583 0.65727 0.017 0.0
C963 C 0.14679 0.63281 1.002 0.0
C964 C 0.14602 0.64049 0.98055 0.0
C965 C 0.1624 0.61782 1.00424 0.0
C966 C 0.11896 0.61677 0.00848 0.0
C967 C 0.11494 0.63032 0.02425 0.0
C968 C 0.09045 0.61925 0.03251 0.0
C969 C 0.06985 0.59349 0.02469 0.0
C970 C 0.07424 0.5789 0.00924 0.0
C971 C 0.09899 0.59097 1.00093 0.0
H972 H 0.37127 0.52397 0.08968 0.0
H973 H 0.30648 0.47135 0.04471 0.0
H974 H 0.33746 0.46134 0.0273 0.0
H975 H 0.42087 0.5534 0.05665 0.0
H976 H 0.44734 0.55559 0.07348 0.0
H977 H 0.41938 0.55616 0.08332 0.0
H978 H 0.41074 0.51596 0.10324 0.0
H979 H 0.43826 0.51479 0.09308 0.0
H980 H 0.4055 0.48532 0.09021 0.0
H981 H 0.37699 0.46049 0.01314 0.0
H982 H 0.4208 0.4679 1.0041 0.0
H983 H 0.45944 0.52201 0.05812 0.0
C984 C 0.36345 0.51018 0.07624 0.0
C985 C 0.33634 0.49848 0.06858 0.0
C986 C 0.32701 0.48028 0.05107 0.0
C987 C 0.34454 0.47462 0.04099 0.0
C988 C 0.37132 0.4872 0.04865 0.0
C989 C 0.38065 0.50447 0.06597 0.0
C990 C 0.41049 0.5164 0.07068 0.0
C991 C 0.42538 0.5472 0.07104 0.0
C992 C 0.41658 0.50757 0.09049 0.0
C993 C 0.41672 0.50372 0.05304 0.0
C994 C 0.39388 0.48674 0.04056 0.0
C995 C 0.39493 0.47354 0.02293 0.0
C996 C 0.41995 0.47791 0.0179 0.0
C997 C 0.44365 0.49545 0.0304 0.0
C998 C 0.44178 0.50829 0.04827 0.0
H999 H 0.46811 0.82759 0.04112 0.0
H1000 H 0.55156 0.84918 0.04482 0.0
H1001 H 0.56453 0.89659 0.04186 0.0
H1002 H 0.47192 0.86577 1.00262 0.0
H1003 H 0.44828 0.87487 0.0111 0.0
H1004 H 0.44615 0.84413 0.0176 0.0
H1005 H 0.44923 0.85894 0.05522 0.0
H1006 H 0.4513 0.88978 0.04878 0.0
H1007 H 0.47689 0.89075 0.0659 0.0
H1008 H 0.56778 0.94139 0.03476 0.0
H1009 H 0.56056 0.9774 0.02257 0.0
H1010 H 0.47493 0.92437 0.02071 0.0
C1011 C 0.48919 0.84225 0.04154 0.0
C1012 C 0.50878 0.83448 0.04316 0.0
C1013 C 0.53613 0.85455 0.0439 0.0
C1014 C 0.54369 0.88157 0.04214 0.0
C1015 C 0.5237 0.88825 0.0397 0.0
C1016 C 0.49698 0.86904 0.03946 0.0
C1017 C 0.47904 0.88038 0.03445 0.0
C1018 C 0.46026 0.86541 0.01531 0.0
C1019 C 0.46318 0.87994 0.05214 0.0
C1020 C 0.49974 0.90877 0.03117 0.0
C1021 C 0.52545 0.9133 0.03476 0.0
C1022 C 0.54772 0.93804 0.03205 0.0
C1023 C 0.54349 0.95837 0.02516 0.0
C1024 C 0.51722 0.95346 0.0206 0.0
C1025 C 0.49523 0.92855 0.024 0.0
H1026 H 1.00199 0.1756 0.38382 0.0
H1027 H 0.96978 0.22003 0.41436 0.0
H1028 H 1.00709 0.26226 0.40496 0.0
H1029 H 0.07107 0.22286 0.39462 0.0
H1030 H 0.07954 0.21701 0.37019 0.0
H1031 H 0.05122 0.19059 0.3804 0.0
H1032 H 0.02096 0.18612 0.34883 0.0
H1033 H 0.04936 0.21266 0.33871 0.0
H1034 H 0.01997 0.21524 0.3416 0.0
H1035 H 0.04944 0.30012 0.39306 0.0
H1036 H 0.09144 0.32965 0.3781 0.0
H1037 H 0.09207 0.25974 0.35206 0.0
C1038 C 1.00227 0.19402 0.38834 0.0
C1039 C 0.98259 0.19412 0.39992 0.0
C1040 C 0.98465 0.21912 0.40585 0.0
C1041 C 1.0057 0.2433 0.4004 0.0
C1042 C 0.02437 0.24224 0.38873 0.0
C1043 C 0.02263 0.21817 0.38261 0.0
C1044 C 0.04468 0.22223 0.36964 0.0
C1045 C 0.06268 0.2126 0.37932 0.0
C1046 C 0.03304 0.20824 0.34844 0.0
C1047 C 0.05938 0.25245 0.36958 0.0
C1048 C 0.04754 0.26371 0.38084 0.0
C1049 C 0.05856 0.29147 0.38394 0.0
C1050 C 0.0823 0.30806 0.37539 0.0
C1051 C 0.09434 0.2968 0.36358 0.0
C1052 C 0.08268 0.2687 0.36056 0.0
H1053 H 0.82083 0.77035 0.38848 0.0
H1054 H 0.88094 0.85297 0.40807 0.0
H1055 H 0.85111 0.86816 0.39423 0.0
H1056 H 0.79565 0.78479 0.34173 0.0
H1057 H 0.76139 0.75972 0.34393 0.0
H1058 H 0.78819 0.75515 0.35398 0.0
H1059 H 0.76979 0.74955 0.38869 0.0
H1060 H 0.74303 0.75418 0.37878 0.0
H1061 H 0.76486 0.77547 0.40025 0.0
H1062 H 0.81391 0.87428 0.38209 0.0
H1063 H 0.77176 0.87152 0.36975 0.0
H1064 H 0.73524 0.78544 0.356 0.0
C1065 C 0.82778 0.79164 0.3896 0.0
C1066 C 0.85337 0.81051 0.39917 0.0
C1067 C 0.86171 0.8382 0.40045 0.0
C1068 C 0.84483 0.84703 0.39274 0.0
C1069 C 0.81971 0.82797 0.38361 0.0
C1070 C 0.81121 0.80089 0.38176 0.0
C1071 C 0.78278 0.78471 0.37179 0.0
C1072 C 0.78196 0.77024 0.35166 0.0
C1073 C 0.76401 0.76481 0.38571 0.0
C1074 C 0.7765 0.80694 0.3688 0.0
C1075 C 0.79819 0.83169 0.37581 0.0
C1076 C 0.79695 0.85514 0.37617 0.0
C1077 C 0.7729 0.85334 0.36922 0.0
C1078 C 0.75045 0.82834 0.36174 0.0
C1079 C 0.75233 0.80484 0.36128 0.0
H1080 H 0.20734 0.04333 0.3716 0.0
H1081 H 0.20334 0.02499 0.43357 0.0
H1082 H 0.20185 0.98267 0.42352 0.0
H1083 H 0.1601 0.97549 0.35119 0.0
H1084 H 0.17714 0.97768 0.32915 0.0
H1085 H 0.17936 0.0074 0.3413 0.0
H1086 H 0.23106 0.03064 0.3446 0.0
H1087 H 0.229 1.00093 0.33256 0.0
H1088 H 0.24716 0.01473 0.35688 0.0
H1089 H 0.2002 0.94186 0.40692 0.0
H1090 H 0.19619 0.90454 0.38436 0.0
H1091 H 0.19905 0.94776 0.33315 0.0
C1092 C 0.20599 0.03041 0.38309 0.0
C1093 C 0.20594 0.03796 0.40348 0.0
C1094 C 0.20424 0.02028 0.41793 0.0
C1095 C 0.20316 0.99598 0.41237 0.0
C1096 C 0.20343 0.98931 0.39223 0.0
C1097 C 0.20453 1.00585 0.37777 0.0
C1098 C 0.20354 0.99338 0.35707 0.0
C1099 C 0.17855 0.98817 0.34391 0.0
C1100 C 0.22923 0.01097 0.3472 0.0
C1101 C 0.20175 0.96732 0.36219 0.0
C1102 C 0.20195 0.9655 0.38259 0.0
C1103 C 0.20038 0.94324 0.39095 0.0
C1104 C 0.19855 0.9223 0.37809 0.0
C1105 C 0.19828 0.92376 0.3572 0.0
C1106 C 0.19962 0.94642 0.34915 0.0
H1107 H 0.537 0.67669 0.27986 0.0
H1108 H 0.51598 0.62606 0.32883 0.0
H1109 H 0.55408 0.6624 0.35045 0.0
H1110 H 0.61031 0.71004 0.29164 0.0
H1111 H 0.61579 0.74204 0.28485 0.0
H1112 H 0.58799 0.71148 0.27262 0.0
H1113 H 0.55552 0.72769 0.28274 0.0
H1114 H 0.5833 0.75826 0.29491 0.0
H1115 H 0.55562 0.73734 0.30871 0.0
H1116 H 0.59154 0.70533 0.36774 0.0
H1117 H 0.62786 0.75162 0.37896 0.0
H1118 H 0.62584 0.77421 0.31881 0.0
C1119 C 0.54079 0.67307 0.29499 0.0
C1120 C 0.52343 0.6485 0.30267 0.0
C1121 C 0.5288 0.64477 0.32269 0.0
C1122 C 0.55048 0.66525 0.33506 0.0
C1123 C 0.56682 0.68939 0.3272 0.0
C1124 C 0.56245 0.69337 0.30759 0.0
C1125 C 0.5825 0.72168 0.30317 0.0
C1126 C 0.60019 0.72126 0.28712 0.0
C1127 C 0.56838 0.73714 0.29703 0.0
C1128 C 0.59846 0.733 0.32345 0.0
C1129 C 0.58907 0.71402 0.33709 0.0
C1130 C 0.59942 0.72022 0.35712 0.0
C1131 C 0.61995 0.74651 0.36338 0.0
C1132 C 0.63007 0.76612 0.34961 0.0
C1133 C 0.6192 0.75925 0.32942 0.0
H1134 H 0.37003 0.90363 0.27228 0.0
H1135 H 0.36492 0.83114 0.29322 0.0
H1136 H 0.33123 0.82731 0.31472 0.0
H1137 H 0.35534 0.92939 0.31594 0.0
H1138 H 0.33304 0.93797 0.30289 0.0
H1139 H 0.35974 0.93783 0.29049 0.0
H1140 H 0.3257 0.90438 0.26178 0.0
H1141 H 0.29898 0.90481 0.27393 0.0
H1142 H 0.29766 0.87339 0.26768 0.0
H1143 H 0.2995 0.83209 0.33575 0.0
H1144 H 0.26396 0.83881 0.34862 0.0
H1145 H 0.28148 0.90108 0.30897 0.0
C1146 C 0.362 0.88671 0.28111 0.0
C1147 C 0.37204 0.86867 0.28138 0.0
C1148 C 0.3598 0.84672 0.29333 0.0
C1149 C 0.34002 0.84396 0.30559 0.0
C1150 C 0.3314 0.86245 0.30526 0.0
C1151 C 0.34116 0.88274 0.29276 0.0
C1152 C 0.32592 0.89785 0.29356 0.0
C1153 C 0.34464 0.92752 0.30118 0.0
C1154 C 0.31119 0.89492 0.27302 0.0
C1155 C 0.30641 0.883 0.30869 0.0
C1156 C 0.31052 0.86314 0.31563 0.0
C1157 C 0.29585 0.84736 0.33027 0.0
C1158 C 0.27587 0.85143 0.33758 0.0
C1159 C 0.27014 0.87042 0.32977 0.0
C1160 C 0.28568 0.88653 0.31522 0.0
H1161 H 0.16325 0.51901 0.31899 0.0
H1162 H 0.13299 0.48042 0.25842 0.0
H1163 H 0.13419 0.44087 0.26835 0.0
H1164 H 0.21098 0.49606 0.32449 0.0
H1165 H 0.20758 0.49216 0.35075 0.0
H1166 H 0.20231 0.51694 0.33949 0.0
H1167 H 0.15523 0.49596 0.35215 0.0
H1168 H 0.1603 0.47102 0.36335 0.0
H1169 H 0.13164 0.4608 0.34566 0.0
H1170 H 0.13692 0.40445 0.28492 0.0
H1171 H 0.14662 0.37621 0.30611 0.0
H1172 H 0.18135 0.44025 0.35419 0.0
C1173 C 0.15708 0.5025 0.30765 0.0
C1174 C 0.14728 0.50301 0.28795 0.0
C1175 C 0.13943 0.48051 0.27383 0.0
C1176 C 0.14033 0.45788 0.27924 0.0
C1177 C 0.14984 0.45807 0.29872 0.0
C1178 C 0.15861 0.47997 0.3126 0.0
C1179 C 0.16953 0.47555 0.33218 0.0
C1180 C 0.19937 0.49642 0.337 0.0
C1181 C 0.15319 0.47585 0.34935 0.0
C1182 C 0.1653 0.44769 0.32711 0.0
C1183 C 0.15348 0.43783 0.30782 0.0
C1184 C 0.14648 0.41209 0.29997 0.0
C1185 C 0.15197 0.39611 0.31209 0.0
C1186 C 0.16493 0.40607 0.33159 0.0
C1187 C 0.17169 0.43224 0.33919 0.0
H1188 H 0.35939 0.52265 0.3387 0.0
H1189 H 0.35927 0.51044 0.27453 0.0
H1190 H 0.32059 0.46437 0.27438 0.0
H1191 H 0.33852 0.45275 0.34945 0.0
H1192 H 0.31835 0.45346 0.36867 0.0
H1193 H 0.34787 0.48393 0.36387 0.0
H1194 H 0.31941 0.50663 0.35841 0.0
H1195 H 0.28983 0.47625 0.36304 0.0
H1196 H 0.29081 0.49116 0.34002 0.0
H1197 H 0.278 0.42224 0.28083 0.0
H1198 H 0.2374 0.38637 0.2935 0.0
H1199 H 0.26643 0.42575 0.35371 0.0
C1200 C 0.35155 0.51006 0.32467 0.0
C1201 C 0.3623 0.52007 0.3066 0.0
C1202 C 0.35152 0.50305 0.28855 0.0
C1203 C 0.32949 0.47693 0.28834 0.0
C1204 C 0.31879 0.46802 0.30636 0.0
C1205 C 0.32979 0.48397 0.32424 0.0
C1206 C 0.31381 0.47038 0.34139 0.0
C1207 C 0.33064 0.4648 0.35675 0.0
C1208 C 0.30281 0.4871 0.35128 0.0
C1209 C 0.29157 0.44458 0.33031 0.0
C1210 C 0.2948 0.44353 0.31012 0.0
C1211 C 0.2756 0.42262 0.29666 0.0
C1212 C 0.25255 0.40237 0.304 0.0
C1213 C 0.2489 0.40304 0.32464 0.0
C1214 C 0.26891 0.42431 0.33793 0.0
H1215 H 0.50824 0.81319 0.26572 0.0
H1216 H 0.50847 0.87719 0.30294 0.0
H1217 H 0.55314 0.88994 0.31878 0.0
H1218 H 0.53616 0.79255 0.3035 0.0
H1219 H 0.5556 0.78455 0.28745 0.0
H1220 H 0.52525 0.78258 0.27724 0.0
H1221 H 0.55127 0.81544 0.25122 0.0
H1222 H 0.58139 0.81685 0.26136 0.0
H1223 H 0.5804 0.84741 0.25973 0.0
H1224 H 0.59542 0.89257 0.33312 0.0
H1225 H 0.63303 0.88613 0.34397 0.0
H1226 H 0.60492 0.81987 0.29777 0.0
C1227 C 0.51775 0.83007 0.27706 0.0
C1228 C 0.50477 0.84422 0.28302 0.0
C1229 C 0.51811 0.86631 0.29783 0.0
C1230 C 0.54344 0.8736 0.30703 0.0
C1231 C 0.55525 0.85868 0.3012 0.0
C1232 C 0.54292 0.83749 0.28646 0.0
C1233 C 0.55907 0.82364 0.28382 0.0
C1234 C 0.54306 0.79409 0.28828 0.0
C1235 C 0.5686 0.82601 0.26277 0.0
C1236 C 0.58223 0.84008 0.29962 0.0
C1237 C 0.57968 0.86024 0.30944 0.0
C1238 C 0.59781 0.87708 0.32537 0.0
C1239 C 0.61906 0.87317 0.33148 0.0
C1240 C 0.62206 0.8526 0.32166 0.0
C1241 C 0.60345 0.83603 0.3054 0.0
H1242 H 0.22713 0.70428 0.30436 0.0
H1243 H 0.14419 0.6439 0.30865 0.0
H1244 H 0.13319 0.67973 0.31381 0.0
H1245 H 0.23056 0.74658 0.34486 0.0
H1246 H 0.25293 0.77723 0.33445 0.0
H1247 H 0.2532 0.74689 0.3274 0.0
H1248 H 0.24463 0.75196 0.29006 0.0
H1249 H 0.24416 0.78227 0.29714 0.0
H1250 H 0.21612 0.75496 0.282 0.0
H1251 H 0.13184 0.72291 0.32107 0.0
H1252 H 0.14156 0.7685 0.33355 0.0
H1253 H 0.22581 0.79927 0.32831 0.0
C1254 C 0.20657 0.69832 0.30637 0.0
C1255 C 0.1866 0.67092 0.30596 0.0
C1256 C 0.15992 0.66451 0.30837 0.0
C1257 C 0.15343 0.68481 0.31142 0.0
C1258 C 0.1738 0.71154 0.31218 0.0
C1259 C 0.1999 0.71826 0.3099 0.0
C1260 C 0.21873 0.74827 0.31364 0.0
C1261 C 0.2401 0.75513 0.33113 0.0
C1262 C 0.23166 0.76005 0.29457 0.0
C1263 C 0.19931 0.75735 0.31901 0.0
C1264 C 0.17333 0.73606 0.3175 0.0
C1265 C 0.15209 0.7397 0.32219 0.0
C1266 C 0.15772 0.76561 0.32917 0.0
C1267 C 0.1844 0.78717 0.33186 0.0
C1268 C 0.20526 0.78303 0.32634 0.0
H1269 H 0.87164 0.9962 0.36085 0.0
H1270 H 0.84026 0.04966 0.37202 0.0
H1271 H 0.79444 0.01072 0.3676 0.0
H1272 H 0.82377 0.95733 0.3206 0.0
H1273 H 0.82203 0.92634 0.32614 0.0
H1274 H 0.8523 0.95779 0.33319 0.0
H1275 H 0.85084 0.94638 0.37009 0.0
H1276 H 0.82067 0.91483 0.3629 0.0
H1277 H 0.82115 0.9377 0.38248 0.0
H1278 H 0.75136 0.96534 0.3605 0.0
H1279 H 0.71569 0.91896 0.34826 0.0
H1280 H 0.77607 0.89744 0.33795 0.0
C1281 C 0.8553 1.0 0.36232 0.0
C1282 C 0.85991 0.02629 0.36688 0.0
C1283 C 0.83759 0.02983 0.36899 0.0
C1284 C 0.81136 0.00778 0.36638 0.0
C1285 C 0.80768 0.9823 0.3615 0.0
C1286 C 0.82911 0.97842 0.35931 0.0
C1287 C 0.81998 0.94959 0.35217 0.0
C1288 C 0.83011 0.94766 0.33182 0.0
C1289 C 0.82868 0.93636 0.36786 0.0
C1290 C 0.79003 0.93787 0.35033 0.0
C1291 C 0.7832 0.95681 0.35622 0.0
C1292 C 0.75653 0.9504 0.35581 0.0
C1293 C 0.73644 0.92409 0.34888 0.0
C1294 C 0.74328 0.90488 0.34205 0.0
C1295 C 0.77036 0.91186 0.34298 0.0
H1296 H 0.03838 0.84771 0.4233 0.0
H1297 H 0.97997 0.82052 0.37156 0.0
H1298 H 0.0112 0.81483 0.35098 0.0
H1299 H 0.09521 0.88675 0.39879 0.0
H1300 H 0.11667 0.8781 0.413 0.0
H1301 H 0.08876 0.87748 0.42391 0.0
H1302 H 0.07138 0.8283 0.43104 0.0
H1303 H 0.09863 0.82804 0.41957 0.0
H1304 H 0.06466 0.80337 0.41075 0.0
H1305 H 0.05053 0.81583 0.33548 0.0
H1306 H 0.09416 0.82259 0.32658 0.0
H1307 H 0.12653 0.84975 0.38859 0.0
C1308 C 0.03206 0.84039 0.40767 0.0
C1309 C 1.00673 0.83457 0.39903 0.0
C1310 C 0.99914 0.82478 0.37856 0.0
C1311 C 0.01679 0.82161 0.36674 0.0
C1312 C 0.04185 0.82811 0.37565 0.0
C1313 C 0.04938 0.83711 0.3957 0.0
C1314 C 0.07772 0.84362 0.40156 0.0
C1315 C 0.09563 0.87325 0.40978 0.0
C1316 C 0.07811 0.82471 0.41663 0.0
C1317 C 0.08536 0.83792 0.38151 0.0
C1318 C 0.06434 0.82864 0.36678 0.0
C1319 C 0.06704 0.82284 0.34694 0.0
C1320 C 0.09192 0.82678 0.34202 0.0
C1321 C 0.11381 0.83661 0.35688 0.0
C1322 C 0.11023 0.842 0.37687 0.0
H1323 H 0.13626 0.16292 0.3821 0.0
H1324 H 0.21965 0.18577 0.38055 0.0
H1325 H 0.231 0.23249 0.37631 0.0
H1326 H 0.134 0.19781 0.34319 0.0
H1327 H 0.11151 0.20744 0.35324 0.0
H1328 H 0.11069 0.17746 0.3602 0.0
H1329 H 0.11811 0.19476 0.39742 0.0
H1330 H 0.11986 0.22556 0.39126 0.0
H1331 H 0.14699 0.22664 0.40644 0.0
H1332 H 0.2322 0.27615 0.36861 0.0
H1333 H 0.22249 0.31034 0.35594 0.0
H1334 H 0.13804 0.25687 0.3601 0.0
C1335 C 0.157 0.17771 0.38105 0.0
C1336 C 0.17702 0.1705 0.38161 0.0
C1337 C 0.20394 0.19075 0.38045 0.0
C1338 C 0.21058 0.21737 0.37798 0.0
C1339 C 0.19011 0.2235 0.3768 0.0
C1340 C 0.16385 0.20412 0.37833 0.0
C1341 C 0.14504 0.21479 0.37456 0.0
C1342 C 0.12409 0.19841 0.35675 0.0
C1343 C 0.1317 0.21545 0.39354 0.0
C1344 C 0.16458 0.24284 0.36971 0.0
C1345 C 0.19062 0.24793 0.37166 0.0
C1346 C 0.2119 0.27239 0.36723 0.0
C1347 C 0.20627 0.29173 0.36012 0.0
C1348 C 0.17955 0.28608 0.35707 0.0
C1349 C 0.15865 0.26162 0.36236 0.0
H1350 H 0.67657 0.51625 0.74094 0.0
H1351 H 0.6187 0.54203 0.73076 0.0
H1352 H 0.65216 0.58128 0.71488 0.0
H1353 H 0.73499 0.58386 0.75307 0.0
H1354 H 0.7566 0.57446 0.74109 0.0
H1355 H 0.72792 0.54964 0.75205 0.0
H1356 H 0.71252 0.52078 0.71766 0.0
H1357 H 0.74076 0.54651 0.70684 0.0
H1358 H 0.70733 0.53484 0.69574 0.0
H1359 H 0.6908 0.61531 0.69739 0.0
H1360 H 0.7337 0.64515 0.68375 0.0
H1361 H 0.76758 0.5995 0.70821 0.0
C1362 C 0.67114 0.53038 0.73554 0.0
C1363 C 0.64518 0.52629 0.73702 0.0
C1364 C 0.63861 0.54506 0.72985 0.0
C1365 C 0.65741 0.56726 0.72074 0.0
C1366 C 0.68278 0.57057 0.71925 0.0
C1367 C 0.68982 0.55292 0.7268 0.0
C1368 C 0.71851 0.56123 0.72359 0.0
C1369 C 0.7355 0.56771 0.74366 0.0
C1370 C 0.71984 0.53955 0.71016 0.0
C1371 C 0.72649 0.58625 0.71297 0.0
C1372 C 0.70546 0.59103 0.71028 0.0
C1373 C 0.70754 0.61202 0.69971 0.0
C1374 C 0.73186 0.62875 0.69193 0.0
C1375 C 0.75387 0.62472 0.69516 0.0
C1376 C 0.75112 0.60323 0.70584 0.0
H1377 H 0.50573 0.12535 0.71445 0.0
H1378 H 0.50269 0.13765 0.77838 0.0
H1379 H 0.46272 0.14137 0.77182 0.0
H1380 H 0.48685 0.17352 0.70097 0.0
H1381 H 0.46704 0.15429 0.67817 0.0
H1382 H 0.49474 0.1508 0.68761 0.0
H1383 H 0.4631 0.09952 0.68746 0.0
H1384 H 0.43527 0.10289 0.6781 0.0
H1385 H 0.43368 0.08717 0.70081 0.0
H1386 H 0.42449 0.14533 0.75916 0.0
H1387 H 0.39032 0.15112 0.74073 0.0
H1388 H 0.41715 0.13775 0.68446 0.0
C1389 C 0.4966 0.12875 0.72705 0.0
C1390 C 0.50718 0.13055 0.74698 0.0
C1391 C 0.49464 0.13524 0.763 0.0
C1392 C 0.47195 0.13761 0.75945 0.0
C1393 C 0.46195 0.13548 0.73976 0.0
C1394 C 0.47382 0.13132 0.72377 0.0
C1395 C 0.45932 0.13097 0.70409 0.0
C1396 C 0.47811 0.15375 0.692 0.0
C1397 C 0.44712 0.1035 0.6919 0.0
C1398 C 0.43768 0.13581 0.71163 0.0
C1399 C 0.43965 0.13818 0.73229 0.0
C1400 C 0.42264 0.14341 0.74297 0.0
C1401 C 0.40326 0.14671 0.73231 0.0
C1402 C 0.40092 0.14486 0.71111 0.0
C1403 C 0.4182 0.13896 0.70063 0.0
H1404 H 0.83908 0.35473 0.70751 0.0
H1405 H 0.92213 0.39711 0.73227 0.0
H1406 H 0.92709 0.35919 0.71915 0.0
H1407 H 0.82473 0.28913 0.71762 0.0
H1408 H 0.80354 0.27272 0.69471 0.0
H1409 H 0.80659 0.30335 0.70579 0.0
H1410 H 0.82124 0.32528 0.67273 0.0
H1411 H 0.81808 0.29465 0.66151 0.0
H1412 H 0.84922 0.32582 0.66186 0.0
H1413 H 0.92268 0.31596 0.70396 0.0
H1414 H 0.90944 0.2714 0.68683 0.0
H1415 H 0.82977 0.25796 0.67141 0.0
C1416 C 0.85844 0.35626 0.70993 0.0
C1417 C 0.88021 0.37896 0.72098 0.0
C1418 C 0.90505 0.37983 0.72407 0.0
C1419 C 0.90811 0.35844 0.71661 0.0
C1420 C 0.88618 0.33627 0.70598 0.0
C1421 C 0.86186 0.3351 0.70255 0.0
C1422 C 0.84138 0.30891 0.69079 0.0
C1423 C 0.81766 0.29257 0.70296 0.0
C1424 C 0.83193 0.31398 0.67052 0.0
C1425 C 0.85796 0.29554 0.68815 0.0
C1426 C 0.88373 0.31159 0.69708 0.0
C1427 C 0.90258 0.30328 0.69685 0.0
C1428 C 0.89489 0.27796 0.68715 0.0
C1429 C 0.86863 0.26132 0.67784 0.0
C1430 C 0.85003 0.27032 0.67836 0.0
H1431 H 0.19593 1.00441 0.60924 0.0
H1432 H 0.17668 0.95435 0.65848 0.0
H1433 H 0.21336 0.992 0.68027 0.0
H1434 H 0.26941 0.0418 0.62222 0.0
H1435 H 0.27305 0.07294 0.61495 0.0
H1436 H 0.2467 0.04149 0.60262 0.0
H1437 H 0.21164 0.05471 0.61159 0.0
H1438 H 0.23792 0.08618 0.62387 0.0
H1439 H 0.21039 0.06412 0.63734 0.0
H1440 H 0.24926 0.03587 0.69759 0.0
H1441 H 0.28341 0.08306 0.7089 0.0
H1442 H 0.28038 0.10497 0.6487 0.0
C1443 C 0.19987 1.00123 0.62447 0.0
C1444 C 0.18342 0.97639 0.63216 0.0
C1445 C 0.18888 0.97321 0.65231 0.0
C1446 C 0.20974 0.99446 0.66478 0.0
C1447 C 0.22515 0.01884 0.65691 0.0
C1448 C 0.22067 0.02234 0.63719 0.0
C1449 C 0.23951 0.05103 0.63279 0.0
C1450 C 0.25828 0.05186 0.61723 0.0
C1451 C 0.22392 0.06481 0.62601 0.0
C1452 C 0.25472 0.0632 0.65325 0.0
C1453 C 0.24622 0.0442 0.6669 0.0
C1454 C 0.25635 0.05084 0.68698 0.0
C1455 C 0.27564 0.0776 0.69329 0.0
C1456 C 0.2846 0.09727 0.67956 0.0
C1457 C 0.27412 0.09001 0.65931 0.0
H1458 H 0.05182 0.24716 0.62065 0.0
H1459 H 0.02267 0.16317 0.60233 0.0
H1460 H 0.98005 0.15084 0.6163 0.0
H1461 H 0.02107 0.23626 0.6676 0.0
H1462 H 0.01284 0.26239 0.66585 0.0
H1463 H 0.04139 0.26502 0.65448 0.0
H1464 H 0.02249 0.27033 0.62032 0.0
H1465 H 0.99397 0.26785 0.6316 0.0
H1466 H 0.98917 0.24527 0.61013 0.0
H1467 H 0.94012 0.14739 0.63056 0.0
H1468 H 0.90492 0.15287 0.64532 0.0
H1469 H 0.95938 0.23869 0.65645 0.0
C1470 C 0.0364 0.22621 0.6196 0.0
C1471 C 0.04064 0.20608 0.6105 0.0
C1472 C 0.02003 0.17887 0.60945 0.0
C1473 C 0.99571 0.17168 0.61729 0.0
C1474 C 0.99223 0.19187 0.6263 0.0
C1475 C 0.01196 0.21858 0.62762 0.0
C1476 C 1.00278 0.23616 0.63816 0.0
C1477 C 0.02058 0.25082 0.65768 0.0
C1478 C 1.00206 0.25608 0.62422 0.0
C1479 C 0.97475 0.21514 0.64234 0.0
C1480 C 0.96918 0.18976 0.63525 0.0
C1481 C 0.94432 0.1671 0.63636 0.0
C1482 C 0.92447 0.17041 0.64475 0.0
C1483 C 0.92959 0.1961 0.6522 0.0
C1484 C 0.95518 0.21877 0.65121 0.0
H1485 H 0.84732 0.85461 0.63862 0.0
H1486 H 0.76336 0.80931 0.61604 0.0
H1487 H 0.76032 0.76841 0.62808 0.0
H1488 H 0.86294 0.80215 0.62793 0.0
H1489 H 0.88481 0.81088 0.65059 0.0
H1490 H 0.88087 0.83634 0.63915 0.0
H1491 H 0.86701 0.84848 0.67237 0.0
H1492 H 0.87089 0.82304 0.68388 0.0
H1493 H 0.83957 0.82258 0.68382 0.0
H1494 H 0.76606 0.73242 0.64312 0.0
H1495 H 0.78002 0.70431 0.66073 0.0
H1496 H 0.85951 0.77332 0.6751 0.0
C1497 C 0.82821 0.83617 0.63625 0.0
C1498 C 0.80561 0.83535 0.62621 0.0
C1499 C 0.78114 0.81055 0.62328 0.0
C1500 C 0.77914 0.78717 0.63021 0.0
C1501 C 0.80172 0.78882 0.64016 0.0
C1502 C 0.82578 0.81269 0.64323 0.0
C1503 C 0.84684 0.80919 0.6549 0.0
C1504 C 0.87024 0.81498 0.64239 0.0
C1505 C 0.85665 0.82687 0.67493 0.0
C1506 C 0.83079 0.77966 0.65806 0.0
C1507 C 0.80486 0.76824 0.64928 0.0
C1508 C 0.78629 0.74117 0.65006 0.0
C1509 C 0.7944 0.72536 0.66009 0.0
C1510 C 0.82078 0.73668 0.66932 0.0
C1511 C 0.83916 0.76419 0.66828 0.0
H1512 H 0.019 0.85123 0.66775 0.0
H1513 H 0.01983 0.83586 0.60408 0.0
H1514 H 0.98087 0.79012 0.6047 0.0
H1515 H 0.9973 0.78203 0.6809 0.0
H1516 H 0.97685 0.78393 0.69943 0.0
H1517 H 1.00665 0.81387 0.69424 0.0
H1518 H 0.97862 0.83661 0.68686 0.0
H1519 H 0.94877 0.80674 0.69187 0.0
H1520 H 0.9503 0.82045 0.66823 0.0
H1521 H 0.93773 0.74875 0.61161 0.0
H1522 H 0.89662 0.71401 0.62455 0.0
H1523 H 0.9251 0.75591 0.68403 0.0
C1524 C 0.01134 0.83801 0.65401 0.0
C1525 C 0.02245 0.84706 0.63584 0.0
C1526 C 0.01184 0.82922 0.61818 0.0
C1527 C 0.98963 0.80327 0.6184 0.0
C1528 C 0.97856 0.79535 0.63647 0.0
C1529 C 0.98939 0.81209 0.65402 0.0
C1530 C 0.973 0.79951 0.67125 0.0
C1531 C 0.98944 0.79454 0.68741 0.0
C1532 C 0.96203 0.81686 0.68006 0.0
C1533 C 0.95078 0.77333 0.6606 0.0
C1534 C 0.95431 0.77127 0.64054 0.0
C1535 C 0.93512 0.74992 0.62736 0.0
C1536 C 0.91177 0.73031 0.63485 0.0
C1537 C 0.90784 0.732 0.65537 0.0
C1538 C 0.92784 0.75367 0.66839 0.0
H1539 H 0.18139 0.15503 0.59913 0.0
H1540 H 0.17995 0.21729 0.63741 0.0
H1541 H 0.2241 0.22958 0.65395 0.0
H1542 H 0.20728 0.13245 0.63628 0.0
H1543 H 0.22784 0.12549 0.62071 0.0
H1544 H 0.19818 0.1242 0.60971 0.0
H1545 H 0.22633 0.15869 0.58541 0.0
H1546 H 0.25611 0.16002 0.59639 0.0
H1547 H 0.25474 0.19044 0.59532 0.0
H1548 H 0.26529 0.23132 0.66929 0.0
H1549 H 0.30121 0.2232 0.68174 0.0
H1550 H 0.27596 0.15936 0.63397 0.0
C1551 C 0.19048 0.17151 0.61081 0.0
C1552 C 0.17708 0.18524 0.61687 0.0
C1553 C 0.18988 0.20676 0.63217 0.0
C1554 C 0.21495 0.21381 0.64176 0.0
C1555 C 0.22713 0.1993 0.63584 0.0
C1556 C 0.21545 0.17873 0.62059 0.0
C1557 C 0.23178 0.16496 0.61813 0.0
C1558 C 0.21528 0.13501 0.62141 0.0
C1559 C 0.2429 0.16877 0.59759 0.0
C1560 C 0.25397 0.18043 0.63483 0.0
C1561 C 0.25105 0.20033 0.64471 0.0
C1562 C 0.26802 0.21609 0.66148 0.0
C1563 C 0.28832 0.21124 0.66849 0.0
C1564 C 0.29153 0.19076 0.65878 0.0
C1565 C 0.27433 0.17547 0.64152 0.0
H1566 H 0.86089 0.01416 0.68233 0.0
H1567 H 0.83114 0.99655 0.61955 0.0
H1568 H 0.82429 0.03563 0.62169 0.0
H1569 H 0.81673 0.03823 0.6991 0.0
H1570 H 0.84251 0.06391 0.71681 0.0
H1571 H 0.8425 0.03314 0.71061 0.0
H1572 H 0.89089 0.0604 0.70059 0.0
H1573 H 0.89103 0.09119 0.70671 0.0
H1574 H 0.89814 0.084 0.68212 0.0
H1575 H 0.82488 0.07964 0.63023 0.0
H1576 H 0.83165 0.12326 0.64472 0.0
H1577 H 0.86084 0.11123 0.70166 0.0
C1578 C 0.85271 0.01835 0.66905 0.0
C1579 C 0.84657 1.00228 0.65076 0.0
C1580 C 0.8357 0.00837 0.63378 0.0
C1581 C 0.83186 0.0306 0.63484 0.0
C1582 C 0.83874 0.0464 0.65303 0.0
C1583 C 0.84872 0.04034 0.66986 0.0
C1584 C 0.85576 0.06102 0.68739 0.0
C1585 C 0.83833 0.04831 0.70449 0.0
C1586 C 0.88573 0.07497 0.69461 0.0
C1587 C 0.84876 0.08005 0.67773 0.0
C1588 C 0.83883 0.07129 0.65794 0.0
C1589 C 0.83228 0.08644 0.6458 0.0
C1590 C 0.83615 0.11117 0.65411 0.0
C1591 C 0.84651 0.12047 0.6743 0.0
C1592 C 0.85259 0.1045 0.68622 0.0
H1593 H 0.53739 0.32562 0.71588 0.0
H1594 H 0.50906 0.38241 0.71305 0.0
H1595 H 0.46264 0.34467 0.70715 0.0
H1596 H 0.49429 0.28213 0.67504 0.0
H1597 H 0.48958 0.25203 0.68529 0.0
H1598 H 0.52 0.28337 0.69219 0.0
H1599 H 0.51216 0.27783 0.72964 0.0
H1600 H 0.4816 0.24647 0.72281 0.0
H1601 H 0.48117 0.27288 0.73808 0.0
H1602 H 0.41887 0.29998 0.69975 0.0
H1603 H 0.38303 0.25323 0.68873 0.0
H1604 H 0.44126 0.22708 0.6932 0.0
C1605 C 0.52158 0.33035 0.714 0.0
C1606 C 0.5272 0.35725 0.71505 0.0
C1607 C 0.50552 0.36213 0.71278 0.0
C1608 C 0.47899 0.34076 0.70931 0.0
C1609 C 0.47435 0.31457 0.708 0.0
C1610 C 0.49514 0.30937 0.71014 0.0
C1611 C 0.48529 0.27968 0.70637 0.0
C1612 C 0.49804 0.27398 0.68867 0.0
C1613 C 0.49036 0.26857 0.72536 0.0
C1614 C 0.45576 0.26897 0.7013 0.0
C1615 C 0.44963 0.28924 0.70276 0.0
C1616 C 0.42349 0.28399 0.69858 0.0
C1617 C 0.40328 0.25744 0.69238 0.0
C1618 C 0.40955 0.23677 0.69001 0.0
C1619 C 0.43601 0.24262 0.6948 0.0
H1620 H 0.66763 0.16744 0.68878 0.0
H1621 H 0.66999 0.15293 0.75122 0.0
H1622 H 0.71015 0.14886 0.74754 0.0
H1623 H 0.69207 0.12247 0.67001 0.0
H1624 H 0.71115 0.14513 0.65219 0.0
H1625 H 0.68082 0.14343 0.6592 0.0
H1626 H 0.70695 0.1947 0.66942 0.0
H1627 H 0.73734 0.19652 0.66258 0.0
H1628 H 0.73588 0.20872 0.68746 0.0
H1629 H 0.75382 0.15332 0.73823 0.0
H1630 H 0.79513 0.16195 0.7234 0.0
H1631 H 0.76343 0.17185 0.66662 0.0
C1632 C 0.67627 0.16283 0.70158 0.0
C1633 C 0.66566 0.16044 0.7203 0.0
C1634 C 0.67756 0.15447 0.73669 0.0
C1635 C 0.70046 0.15228 0.73475 0.0
C1636 C 0.71095 0.1557 0.71624 0.0
C1637 C 0.69896 0.16039 0.69985 0.0
C1638 C 0.71495 0.1648 0.68192 0.0
C1639 C 0.69878 0.14263 0.66482 0.0
C1640 C 0.72433 0.19285 0.67495 0.0
C1641 C 0.73828 0.16263 0.69089 0.0
C1642 C 0.73561 0.15737 0.71072 0.0
C1643 C 0.75578 0.15683 0.72262 0.0
C1644 C 0.77924 0.16187 0.71408 0.0
C1645 C 0.78231 0.16715 0.69378 0.0
C1646 C 0.76134 0.16716 0.68202 0.0
H1647 H 0.80515 0.48717 0.67817 0.0
H1648 H 0.86409 0.51808 0.72992 0.0
H1649 H 0.87366 0.564 0.72491 0.0
H1650 H 0.83708 0.54207 0.64842 0.0
H1651 H 0.80624 0.54031 0.63967 0.0
H1652 H 0.80611 0.51044 0.64627 0.0
H1653 H 0.77096 0.50255 0.6713 0.0
H1654 H 0.77089 0.5323 0.6647 0.0
H1655 H 0.77788 0.52887 0.69046 0.0
H1656 H 0.87611 0.6074 0.71389 0.0
H1657 H 0.8687 0.64219 0.69959 0.0
H1658 H 0.80448 0.5807 0.65826 0.0
C1659 C 0.8199 0.50335 0.68872 0.0
C1660 C 0.83374 0.49859 0.70452 0.0
C1661 C 0.85342 0.52091 0.71746 0.0
C1662 C 0.85889 0.54716 0.71482 0.0
C1663 C 0.84436 0.55085 0.69932 0.0
C1664 C 0.82508 0.5294 0.68665 0.0
C1665 C 0.81088 0.53807 0.67192 0.0
C1666 C 0.81536 0.53239 0.65029 0.0
C1667 C 0.78089 0.52466 0.67478 0.0
C1668 C 0.82515 0.56784 0.67821 0.0
C1669 C 0.84468 0.57508 0.69384 0.0
C1670 C 0.86068 0.60181 0.70177 0.0
C1671 C 0.8563 0.62145 0.69364 0.0
C1672 C 0.83574 0.6141 0.67808 0.0
C1673 C 0.82021 0.58696 0.67029 0.0
H1674 H 0.44107 0.88395 0.20649 0.0
H1675 H 0.42666 0.94062 0.2409 0.0
H1676 H 0.44269 0.97119 0.21424 0.0
H1677 H 0.50234 0.93282 0.18984 0.0
H1678 H 0.49652 0.91512 0.16551 0.0
H1679 H 0.48186 0.89675 0.1865 0.0
H1680 H 0.43481 0.87491 0.16715 0.0
H1681 H 0.44934 0.8932 0.14607 0.0
H1682 H 0.42317 0.89604 0.1572 0.0
H1683 H 0.46217 0.99655 0.1843 0.0
H1684 H 0.48426 0.01489 0.15393 0.0
H1685 H 0.4874 0.94233 0.13982 0.0
C1686 C 0.44132 0.9028 0.20853 0.0
C1687 C 0.43249 0.90975 0.2259 0.0
C1688 C 0.43285 0.93453 0.22766 0.0
C1689 C 0.44209 0.95214 0.21263 0.0
C1690 C 0.45097 0.94478 0.19589 0.0
C1691 C 0.45067 0.9207 0.19378 0.0
C1692 C 0.46229 0.91797 0.17474 0.0
C1693 C 0.48723 0.91553 0.17944 0.0
C1694 C 0.44114 0.89412 0.16045 0.0
C1695 C 0.46953 0.94446 0.16659 0.0
C1696 C 0.46261 0.95954 0.17889 0.0
C1697 C 0.46755 0.98485 0.17452 0.0
C1698 C 0.48 0.99505 0.15719 0.0
C1699 C 0.48759 0.98008 0.14448 0.0
C1700 C 0.48209 0.95439 0.1493 0.0
H1701 H 0.1384 0.57027 0.22418 0.0
H1702 H 0.07248 0.51076 0.25357 0.0
H1703 H 0.04187 0.50093 0.22315 0.0
H1704 H 0.10039 0.59482 0.196 0.0
H1705 H 0.11849 0.59894 0.17429 0.0
H1706 H 0.13465 0.60242 0.19883 0.0
H1707 H 0.14608 0.56611 0.18714 0.0
H1708 H 0.12975 0.56231 0.16263 0.0
H1709 H 0.11958 0.53353 0.17661 0.0
H1710 H 0.01892 0.49647 0.18914 0.0
H1711 H 1.00516 0.49765 0.15396 0.0
H1712 H 0.08624 0.55978 0.14665 0.0
C1713 C 0.11741 0.55556 0.22432 0.0
C1714 C 0.1077 0.54137 0.24122 0.0
C1715 C 0.08026 0.5218 0.24072 0.0
C1716 C 0.06276 0.51615 0.22356 0.0
C1717 C 0.07305 0.53018 0.20701 0.0
C1718 C 0.09972 0.54952 0.20726 0.0
C1719 C 0.10594 0.56089 0.18721 0.0
C1720 C 0.11542 0.59106 0.18921 0.0
C1721 C 0.12656 0.55537 0.17785 0.0
C1722 C 0.07866 0.54478 0.1756 0.0
C1723 C 0.05993 0.5273 0.18733 0.0
C1724 C 0.03337 0.51019 0.17985 0.0
C1725 C 0.02573 0.51106 0.15988 0.0
C1726 C 0.04461 0.52881 0.14757 0.0
C1727 C 0.07141 0.54581 0.15562 0.0
H1728 H 0.51535 0.59584 0.24096 0.0
H1729 H 0.43746 0.5881 0.22773 0.0
H1730 H 0.43877 0.57707 0.19203 0.0
H1731 H 0.54334 0.62839 0.19726 0.0
H1732 H 0.56245 0.61185 0.19384 0.0
H1733 H 0.55485 0.61789 0.21852 0.0
H1734 H 0.53304 0.56719 0.22313 0.0
H1735 H 0.54061 0.561 0.19847 0.0
H1736 H 0.50667 0.54303 0.20499 0.0
H1737 H 0.44878 0.56726 0.15746 0.0
H1738 H 0.46716 0.56027 0.12686 0.0
H1739 H 0.53916 0.57621 0.16251 0.0
C1740 C 0.49859 0.59201 0.2306 0.0
C1741 C 0.47621 0.59271 0.23735 0.0
C1742 C 0.45462 0.58718 0.22315 0.0
C1743 C 0.45525 0.58109 0.20276 0.0
C1744 C 0.47768 0.58075 0.19667 0.0
C1745 C 0.49899 0.58613 0.21017 0.0
C1746 C 0.52096 0.58501 0.19972 0.0
C1747 C 0.54693 0.61242 0.2025 0.0
C1748 C 0.52558 0.56273 0.20701 0.0
C1749 C 0.50871 0.5782 0.17821 0.0
C1750 C 0.48368 0.57569 0.17677 0.0
C1751 C 0.46837 0.5692 0.15843 0.0
C1752 C 0.47893 0.56516 0.14114 0.0
C1753 C 0.50464 0.56778 0.14225 0.0
C1754 C 0.51963 0.57443 0.16111 0.0
H1755 H 0.93135 0.44128 0.77869 0.0
H1756 H 0.86083 0.44754 0.78724 0.0
H1757 H 0.87582 0.46087 0.82311 0.0
H1758 H 0.92928 0.41011 0.82278 0.0
H1759 H 0.96508 0.4266 0.82804 0.0
H1760 H 0.95051 0.42073 0.80264 0.0
H1761 H 0.97922 0.4715 0.79844 0.0
H1762 H 0.99391 0.47753 0.82386 0.0
H1763 H 0.97769 0.49557 0.81574 0.0
H1764 H 0.8973 0.47111 0.85862 0.0
H1765 H 0.92323 0.47688 0.89071 0.0
H1766 H 0.97723 0.45983 0.85908 0.0
C1767 C 0.91902 0.44551 0.78802 0.0
C1768 C 0.89495 0.44351 0.77994 0.0
C1769 C 0.87966 0.44951 0.79282 0.0
C1770 C 0.8879 0.45691 0.81332 0.0
C1771 C 0.91139 0.45809 0.82079 0.0
C1772 C 0.92671 0.45252 0.80853 0.0
C1773 C 0.95019 0.45354 0.82043 0.0
C1774 C 0.94866 0.42611 0.81835 0.0
C1775 C 0.97683 0.47587 0.81425 0.0
C1776 C 0.94552 0.46024 0.84135 0.0
C1777 C 0.92322 0.46306 0.84125 0.0
C1778 C 0.9148 0.46893 0.85887 0.0
C1779 C 0.92954 0.47192 0.87706 0.0
C1780 C 0.95232 0.46877 0.87754 0.0
C1781 C 0.96027 0.46287 0.85933 0.0
H1782 H 0.61077 0.50641 0.80522 0.0
H1783 H 0.53664 0.45358 0.7684 0.0
H1784 H 0.51101 0.4523 0.79683 0.0
H1785 H 0.59061 0.47418 0.84969 0.0
H1786 H 0.60736 0.50456 0.86642 0.0
H1787 H 0.62008 0.50314 0.84284 0.0
H1788 H 0.61731 0.54464 0.83341 0.0
H1789 H 0.60472 0.54627 0.85703 0.0
H1790 H 0.58603 0.54419 0.834 0.0
H1791 H 0.49351 0.45474 0.82922 0.0
H1792 H 0.48478 0.46051 0.86398 0.0
H1793 H 0.57005 0.51195 0.88052 0.0
C1794 C 0.58913 0.49497 0.80312 0.0
C1795 C 0.57561 0.48012 0.78463 0.0
C1796 C 0.54732 0.46497 0.78248 0.0
C1797 C 0.53262 0.4642 0.79851 0.0
C1798 C 0.5465 0.47866 0.81663 0.0
C1799 C 0.57409 0.49379 0.81908 0.0
C1800 C 0.58396 0.50641 0.84047 0.0
C1801 C 0.60154 0.49647 0.85044 0.0
C1802 C 0.59888 0.53721 0.84127 0.0
C1803 C 0.55759 0.49574 0.84965 0.0
C1804 C 0.53629 0.47995 0.83554 0.0
C1805 C 0.50999 0.46732 0.84038 0.0
C1806 C 0.50524 0.47087 0.86018 0.0
C1807 C 0.52667 0.48695 0.87502 0.0
C1808 C 0.55322 0.49952 0.86958 0.0
H1809 H 0.53582 0.12345 0.80953 0.0
H1810 H 0.58378 0.09124 0.78687 0.0
H1811 H 0.58285 0.0718 0.81901 0.0
H1812 H 0.56352 0.13833 0.8617 0.0
H1813 H 0.53152 0.12826 0.87086 0.0
H1814 H 0.53867 0.14191 0.84704 0.0
H1815 H 0.4964 0.09946 0.82997 0.0
H1816 H 0.48916 0.08566 0.85368 0.0
H1817 H 0.49244 0.06685 0.83285 0.0
H1818 H 0.57346 0.05306 0.85316 0.0
H1819 H 0.55626 0.03641 0.88537 0.0
H1820 H 0.51331 0.08008 0.8845 0.0
C1821 C 0.54621 0.11234 0.81124 0.0
C1822 C 0.55969 0.10867 0.79554 0.0
C1823 C 0.57346 0.09446 0.79869 0.0
C1824 C 0.57294 0.08329 0.81688 0.0
C1825 C 0.55872 0.08665 0.83179 0.0
C1826 C 0.5457 0.10096 0.82911 0.0
C1827 C 0.53049 0.10052 0.8468 0.0
C1828 C 0.54173 0.12895 0.85722 0.0
C1829 C 0.50034 0.08733 0.84044 0.0
C1830 C 0.53646 0.08324 0.85979 0.0
C1831 C 0.55304 0.07568 0.85105 0.0
C1832 C 0.56066 0.05908 0.86016 0.0
C1833 C 0.55088 0.04981 0.87851 0.0
C1834 C 0.53341 0.05691 0.88748 0.0
C1835 C 0.52645 0.07411 0.87799 0.0
H1836 H 0.11797 0.22993 0.54328 0.0
H1837 H 0.103 0.28604 0.57787 0.0
H1838 H 0.11719 0.31597 0.55067 0.0
H1839 H 0.17762 0.28002 0.52334 0.0
H1840 H 0.16999 0.26085 0.49941 0.0
H1841 H 0.15844 0.24387 0.52154 0.0
H1842 H 0.10979 0.21916 0.50478 0.0
H1843 H 0.12117 0.23617 0.48264 0.0
H1844 H 0.09564 0.23842 0.49527 0.0
H1845 H 0.1325 0.33953 0.51929 0.0
H1846 H 0.14925 0.35559 0.48689 0.0
H1847 H 0.15536 0.2846 0.47338 0.0
C1848 C 0.11805 0.24869 0.54537 0.0
C1849 C 0.10937 0.25558 0.56285 0.0
C1850 C 0.10925 0.28011 0.56459 0.0
C1851 C 0.1174 0.29732 0.54925 0.0
C1852 C 0.12573 0.28982 0.53223 0.0
C1853 C 0.12624 0.26615 0.53027 0.0
C1854 C 0.13609 0.26273 0.51052 0.0
C1855 C 0.16208 0.26182 0.51391 0.0
C1856 C 0.11437 0.23763 0.49754 0.0
C1857 C 0.14108 0.2882 0.50165 0.0
C1858 C 0.13485 0.3035 0.51435 0.0
C1859 C 0.13747 0.32772 0.50925 0.0
C1860 C 0.14685 0.3366 0.49076 0.0
C1861 C 0.15364 0.32138 0.47758 0.0
C1862 C 0.15063 0.29684 0.4832 0.0
H1863 H 0.79122 0.86119 0.55729 0.0
H1864 H 0.75969 0.90234 0.59257 0.0
H1865 H 0.73394 0.9029 0.56225 0.0
H1866 H 0.80031 0.898 0.51504 0.0
H1867 H 0.79102 0.87001 0.49679 0.0
H1868 H 0.80523 0.87076 0.52147 0.0
H1869 H 0.76407 0.82459 0.52591 0.0
H1870 H 0.74972 0.8237 0.50122 0.0
H1871 H 0.73102 0.82023 0.52248 0.0
H1872 H 0.71304 0.90059 0.52824 0.0
H1873 H 0.69942 0.89709 0.49234 0.0
H1874 H 0.74573 0.85897 0.4785 0.0
C1875 C 0.77853 0.86991 0.55861 0.0
C1876 C 0.77728 0.88162 0.57724 0.0
C1877 C 0.76092 0.89333 0.5784 0.0
C1878 C 0.74616 0.89363 0.5613 0.0
C1879 C 0.74804 0.88223 0.54311 0.0
C1880 C 0.76385 0.87064 0.5416 0.0
C1881 C 0.76349 0.86123 0.52001 0.0
C1882 C 0.79169 0.87588 0.51291 0.0
C1883 C 0.75135 0.83062 0.51725 0.0
C1884 C 0.74527 0.86963 0.50964 0.0
C1885 C 0.73641 0.88146 0.5233 0.0
C1886 C 0.71986 0.89138 0.51738 0.0
C1887 C 0.71238 0.88947 0.49692 0.0
C1888 C 0.72162 0.87793 0.48252 0.0
C1889 C 0.73806 0.86762 0.48909 0.0
H1890 H 0.1762 0.91968 0.57181 0.0
H1891 H 0.10109 0.91695 0.55648 0.0
H1892 H 0.10353 0.90619 0.52091 0.0
H1893 H 0.2081 0.95106 0.5288 0.0
H1894 H 0.22496 0.93212 0.52603 0.0
H1895 H 0.21702 0.93896 0.55038 0.0
H1896 H 0.19129 0.88806 0.55466 0.0
H1897 H 0.19925 0.88107 0.53036 0.0
H1898 H 0.16489 0.86533 0.53594 0.0
H1899 H 0.11473 0.89678 0.48672 0.0
H1900 H 0.13321 0.88834 0.45679 0.0
H1901 H 0.20086 0.8968 0.4944 0.0
C1902 C 0.1603 0.91692 0.56098 0.0
C1903 C 0.13838 0.91908 0.56704 0.0
C1904 C 0.11787 0.915 0.55233 0.0
C1905 C 0.11917 0.90907 0.53204 0.0
C1906 C 0.1411 0.90723 0.5266 0.0
C1907 C 0.16125 0.91093 0.54065 0.0
C1908 C 0.18264 0.90784 0.53086 0.0
C1909 C 0.20978 0.93406 0.53422 0.0
C1910 C 0.18462 0.88416 0.5384 0.0
C1911 C 0.17145 0.90195 0.50909 0.0
C1912 C 0.14748 0.9017 0.50695 0.0
C1913 C 0.13342 0.89679 0.48825 0.0
C1914 C 0.14404 0.89186 0.47132 0.0
C1915 C 0.16852 0.8918 0.47312 0.0
C1916 C 0.18232 0.89702 0.49236 0.0
H1917 H 0.58743 0.75835 0.11352 0.0
H1918 H 0.51492 0.76086 0.12174 0.0
H1919 H 0.5272 0.76971 0.15826 0.0
H1920 H 0.58536 0.72345 0.15608 0.0
H1921 H 0.62109 0.74153 0.16212 0.0
H1922 H 0.60729 0.73687 0.13659 0.0
H1923 H 0.6337 0.78832 0.13454 0.0
H1924 H 0.64771 0.79313 0.16002 0.0
H1925 H 0.63 0.81007 0.15274 0.0
H1926 H 0.54699 0.77696 0.19418 0.0
H1927 H 0.573 0.78273 0.22634 0.0
H1928 H 0.63183 0.77446 0.19427 0.0
C1929 C 0.57406 0.76069 0.12297 0.0
C1930 C 0.5502 0.75894 0.11471 0.0
C1931 C 0.5335 0.76251 0.12765 0.0
C1932 C 0.5402 0.76735 0.14843 0.0
C1933 C 0.56367 0.76854 0.15606 0.0
C1934 C 0.58036 0.76539 0.14369 0.0
C1935 C 0.60419 0.7671 0.15559 0.0
C1936 C 0.60448 0.74066 0.15241 0.0
C1937 C 0.63045 0.79109 0.15042 0.0
C1938 C 0.59823 0.77152 0.17663 0.0
C1939 C 0.57484 0.77239 0.17662 0.0
C1940 C 0.56537 0.77637 0.19435 0.0
C1941 C 0.58031 0.7797 0.21253 0.0
C1942 C 0.60439 0.77893 0.21284 0.0
C1943 C 0.6133 0.77471 0.19458 0.0
H1944 H 0.25096 0.84836 0.11882 0.0
H1945 H 0.25253 0.77428 0.12227 0.0
H1946 H 0.23832 0.77119 0.15632 0.0
H1947 H 0.27693 0.87485 0.16985 0.0
H1948 H 0.25606 0.88947 0.17302 0.0
H1949 H 0.26575 0.88568 0.14861 0.0
H1950 H 0.21594 0.85864 0.13448 0.0
H1951 H 0.2061 0.86243 0.15883 0.0
H1952 H 0.19303 0.82941 0.14612 0.0
H1953 H 0.225 0.77648 0.19027 0.0
H1954 H 0.21143 0.78886 0.22139 0.0
H1955 H 0.21908 0.85986 0.19642 0.0
C1956 C 0.24828 0.83148 0.12674 0.0
C1957 C 0.25261 0.81141 0.11773 0.0
C1958 C 0.2488 0.78961 0.12862 0.0
C1959 C 0.24095 0.78779 0.14807 0.0
C1960 C 0.23698 0.80792 0.15652 0.0
C1961 C 0.24038 0.8293 0.14621 0.0
C1962 C 0.23477 0.84821 0.15883 0.0
C1963 C 0.25988 0.87621 0.16281 0.0
C1964 C 0.21105 0.84975 0.14897 0.0
C1965 C 0.22772 0.8341 0.1778 0.0
C1966 C 0.22924 0.81096 0.17616 0.0
C1967 C 0.22375 0.79457 0.19175 0.0
C1968 C 0.21625 0.80188 0.20943 0.0
C1969 C 0.21421 0.82534 0.21141 0.0
C1970 C 0.22019 0.84166 0.19533 0.0
H1971 H 0.23192 0.45204 0.14255 0.0
H1972 H 0.16439 0.39567 0.10094 0.0
H1973 H 0.14592 0.3654 0.1276 0.0
H1974 H 0.23827 0.40185 0.16994 0.0
H1975 H 0.24683 0.4216 0.1937 0.0
H1976 H 0.25553 0.43797 0.17101 0.0
H1977 H 0.23029 0.46305 0.17992 0.0
H1978 H 0.22126 0.44655 0.20252 0.0
H1979 H 0.19562 0.44404 0.18461 0.0
H1980 H 0.1336 0.34247 0.15906 0.0
H1981 H 0.12864 0.32762 0.19298 0.0
H1982 H 0.20452 0.39848 0.21439 0.0
C1983 C 0.21356 0.43304 0.13893 0.0
C1984 C 0.19965 0.42613 0.1196 0.0
C1985 C 0.17533 0.4014 0.11563 0.0
C1986 C 0.16472 0.38406 0.13066 0.0
C1987 C 0.17866 0.39172 0.14963 0.0
C1988 C 0.20262 0.41554 0.1538 0.0
C1989 C 0.21305 0.41941 0.17565 0.0
C1990 C 0.24002 0.42025 0.17769 0.0
C1991 C 0.21517 0.44477 0.1863 0.0
C1992 C 0.19109 0.39416 0.18314 0.0
C1993 C 0.17152 0.37846 0.16785 0.0
C1994 C 0.14896 0.35444 0.1711 0.0
C1995 C 0.14641 0.34611 0.19045 0.0
C1996 C 0.1663 0.36168 0.20641 0.0
C1997 C 0.18888 0.38613 0.2026 0.0
H1998 H 0.80072 0.58872 0.89166 0.0
H1999 H 0.71523 0.55475 0.87832 0.0
H2000 H 0.72286 0.57318 0.84548 0.0
H2001 H 0.82063 0.65018 0.86827 0.0
H2002 H 0.84972 0.65135 0.85895 0.0
H2003 H 0.83754 0.63568 0.88147 0.0
H2004 H 0.83413 0.59186 0.86601 0.0
H2005 H 0.84626 0.60737 0.84342 0.0
H2006 H 0.81483 0.57634 0.84226 0.0
H2007 H 0.73965 0.59378 0.81354 0.0
H2008 H 0.76457 0.61743 0.7856 0.0
H2009 H 0.83929 0.63881 0.81983 0.0
C2010 C 0.78362 0.58517 0.88181 0.0
C2011 C 0.75736 0.57032 0.88757 0.0
C2012 C 0.73553 0.56632 0.87433 0.0
C2013 C 0.73966 0.57657 0.8556 0.0
C2014 C 0.76576 0.59097 0.85034 0.0
C2015 C 0.7874 0.59548 0.86312 0.0
C2016 C 0.81344 0.61182 0.8539 0.0
C2017 C 0.83139 0.63886 0.86639 0.0
C2018 C 0.82801 0.59589 0.85124 0.0
C2019 C 0.80305 0.61564 0.83388 0.0
C2020 C 0.77548 0.60332 0.8321 0.0
C2021 C 0.76125 0.60359 0.81481 0.0
C2022 C 0.77557 0.61693 0.79896 0.0
C2023 C 0.80388 0.62998 0.80052 0.0
C2024 C 0.8177 0.62928 0.81827 0.0
H2025 H 0.44733 0.23053 0.91094 0.0
H2026 H 0.48724 0.18542 0.89855 0.0
H2027 H 0.46907 0.17645 0.86314 0.0
H2028 H 0.38738 0.18715 0.8789 0.0
H2029 H 0.3828 0.21394 0.87077 0.0
H2030 H 0.39972 0.21773 0.89504 0.0
H2031 H 0.44076 0.26136 0.88612 0.0
H2032 H 0.42395 0.2577 0.86181 0.0
H2033 H 0.45646 0.26062 0.86388 0.0
H2034 H 0.4466 0.17215 0.82924 0.0
H2035 H 0.42034 0.17187 0.79904 0.0
H2036 H 0.39339 0.21833 0.8334 0.0
C2037 C 0.45236 0.21896 0.9007 0.0
C2038 C 0.46861 0.20858 0.90746 0.0
C2039 C 0.47459 0.19329 0.89369 0.0
C2040 C 0.46448 0.18821 0.87355 0.0
C2041 C 0.44832 0.19848 0.86738 0.0
C2042 C 0.4422 0.21346 0.88051 0.0
C2043 C 0.42368 0.2214 0.87005 0.0
C2044 C 0.3968 0.20933 0.87924 0.0
C2045 C 0.43702 0.2521 0.87049 0.0
C2046 C 0.42041 0.20857 0.84902 0.0
C2047 C 0.4349 0.19555 0.84782 0.0
C2048 C 0.43505 0.18216 0.83001 0.0
C2049 C 0.41988 0.18194 0.81295 0.0
C2050 C 0.40457 0.19488 0.8138 0.0
C2051 C 0.40503 0.20845 0.83214 0.0
H2052 H 0.85098 0.25491 0.90154 0.0
H2053 H 0.77052 0.23941 0.88556 0.0
H2054 H 0.77305 0.22542 0.8509 0.0
H2055 H 0.87728 0.28481 0.85758 0.0
H2056 H 0.89919 0.2712 0.85562 0.0
H2057 H 0.89006 0.27707 0.87974 0.0
H2058 H 0.87238 0.22735 0.88595 0.0
H2059 H 0.88151 0.22132 0.86185 0.0
H2060 H 0.84763 0.20109 0.86801 0.0
H2061 H 0.78524 0.21589 0.8174 0.0
H2062 H 0.80656 0.21249 0.7875 0.0
H2063 H 0.87976 0.23591 0.82479 0.0
C2064 C 0.8338 0.24851 0.89083 0.0
C2065 C 0.81043 0.24811 0.89652 0.0
C2066 C 0.78843 0.23935 0.88188 0.0
C2067 C 0.78973 0.23152 0.86204 0.0
C2068 C 0.8132 0.23262 0.85694 0.0
C2069 C 0.83486 0.24091 0.8709 0.0
C2070 C 0.8583 0.2418 0.86127 0.0
C2071 C 0.88264 0.27042 0.8637 0.0
C2072 C 0.86536 0.22168 0.86978 0.0
C2073 C 0.8466 0.23317 0.83965 0.0
C2074 C 0.82045 0.22767 0.83752 0.0
C2075 C 0.80562 0.21991 0.81891 0.0
C2076 C 0.81789 0.2179 0.80201 0.0
C2077 C 0.84481 0.22379 0.80376 0.0
C2078 C 0.8592 0.23137 0.82292 0.0
H2079 H 0.21597 0.07665 0.46994 0.0
H2080 H 0.25426 0.15461 0.4468 0.0
H2081 H 0.27898 0.17551 0.48009 0.0
H2082 H 0.21021 0.09982 0.52054 0.0
H2083 H 0.21704 0.07613 0.53205 0.0
H2084 H 0.20065 0.06801 0.50702 0.0
H2085 H 0.23728 0.05927 0.49427 0.0
H2086 H 0.25377 0.06739 0.51921 0.0
H2087 H 0.2719 0.08521 0.49898 0.0
H2088 H 0.30306 0.18677 0.51488 0.0
H2089 H 0.32298 0.18787 0.5487 0.0
H2090 H 0.26796 0.10254 0.54897 0.0
C2091 C 0.22937 0.09817 0.47194 0.0
C2092 C 0.23334 0.11406 0.45583 0.0
C2093 C 0.25084 0.14216 0.45902 0.0
C2094 C 0.26497 0.15414 0.47784 0.0
C2095 C 0.26103 0.13776 0.4933 0.0
C2096 C 0.24341 0.11041 0.49058 0.0
C2097 C 0.2436 0.097 0.50924 0.0
C2098 C 0.21625 0.08451 0.51771 0.0
C2099 C 0.25216 0.07599 0.50518 0.0
C2100 C 0.26462 0.12095 0.52279 0.0
C2101 C 0.27439 0.14431 0.51338 0.0
C2102 C 0.29525 0.16868 0.52249 0.0
C2103 C 0.3065 0.1691 0.54162 0.0
C2104 C 0.29679 0.14534 0.55144 0.0
C2105 C 0.27535 0.1211 0.54196 0.0
H2106 H 0.94699 0.16717 0.46642 0.0
H2107 H 0.87287 0.11274 0.42997 0.0
H2108 H 0.84762 0.10845 0.4591 0.0
H2109 H 0.92891 0.1342 0.51177 0.0
H2110 H 0.94478 0.16496 0.52809 0.0
H2111 H 0.95745 0.16368 0.50444 0.0
H2112 H 0.95231 0.20371 0.49451 0.0
H2113 H 0.93973 0.20517 0.51816 0.0
H2114 H 0.9203 0.20166 0.49516 0.0
H2115 H 0.83008 0.11011 0.49175 0.0
H2116 H 0.82115 0.11876 0.5259 0.0
H2117 H 0.9063 0.17203 0.54181 0.0
C2118 C 0.92545 0.15448 0.46455 0.0
C2119 C 0.91199 0.14006 0.44589 0.0
C2120 C 0.88374 0.12357 0.44415 0.0
C2121 C 0.86916 0.12109 0.4606 0.0
C2122 C 0.88301 0.13529 0.47877 0.0
C2123 C 0.91048 0.15175 0.48089 0.0
C2124 C 0.92027 0.16499 0.50214 0.0
C2125 C 0.93896 0.15643 0.5122 0.0
C2126 C 0.93396 0.1957 0.5025 0.0
C2127 C 0.89397 0.15344 0.51153 0.0
C2128 C 0.87279 0.13629 0.49776 0.0
C2129 C 0.84652 0.12337 0.50273 0.0
C2130 C 0.84167 0.12825 0.52226 0.0
C2131 C 0.86298 0.14591 0.5367 0.0
C2132 C 0.88951 0.15853 0.53116 0.0
H2133 H 0.8975 0.78303 0.47297 0.0
H2134 H 0.83216 0.72569 0.43018 0.0
H2135 H 0.81223 0.69596 0.45698 0.0
H2136 H 0.90264 0.73381 0.50244 0.0
H2137 H 0.90992 0.75425 0.52572 0.0
H2138 H 0.9199 0.76987 0.50284 0.0
H2139 H 0.8941 0.79508 0.50927 0.0
H2140 H 0.88387 0.77941 0.53206 0.0
H2141 H 0.85908 0.7762 0.51299 0.0
H2142 H 0.79817 0.67395 0.48887 0.0
H2143 H 0.79083 0.66124 0.52334 0.0
H2144 H 0.86605 0.73269 0.54511 0.0
C2145 C 0.87935 0.76391 0.4691 0.0
C2146 C 0.8665 0.75653 0.44943 0.0
C2147 C 0.84232 0.73172 0.44515 0.0
C2148 C 0.83093 0.71469 0.46024 0.0
C2149 C 0.84398 0.72276 0.47952 0.0
C2150 C 0.86771 0.74675 0.48396 0.0
C2151 C 0.87704 0.75142 0.50605 0.0
C2152 C 0.90397 0.75238 0.50946 0.0
C2153 C 0.8786 0.77704 0.51565 0.0
C2154 C 0.85464 0.72648 0.51343 0.0
C2155 C 0.83586 0.71013 0.49788 0.0
C2156 C 0.81292 0.68643 0.50112 0.0
C2157 C 0.80901 0.67931 0.52077 0.0
C2158 C 0.82794 0.69584 0.53699 0.0
C2159 C 0.85112 0.71965 0.53311 0.0
loop_
_geom_bond_atom_site_label_1
_geom_bond_atom_site_label_2
_geom_bond_distance
_geom_bond_site_symmetry_2
_ccdc_geom_bond_type
H0 C1 0.949 . S
C1 H0 0.949 . S
C1 C2 1.395 . S
C1 C3 1.391 . S
C2 C1 1.395 . S
C2 C5 1.390 . S
C3 C1 1.391 . S
C3 C7 1.387 . S
C3 C8 1.491 . S
H4 C5 0.950 . S
C5 C2 1.390 . S
C5 H4 0.950 . S
C5 C6 1.378 . S
C6 C5 1.378 . S
C6 C7 1.409 . S
C7 C3 1.387 . S
C7 C6 1.409 . S
C7 H9 0.951 . S
C8 C3 1.491 . S
C8 C10 1.382 . S
C8 C12 1.404 . S
H9 C7 0.951 . S
C10 C8 1.382 . S
C10 C11 1.390 . S
C10 H15 0.949 . S
C11 C10 1.390 . S
C11 C16 1.399 . S
C12 C8 1.404 . S
C12 H13 0.950 . S
C12 C14 1.375 . S
H13 C12 0.950 . S
C14 C12 1.375 . S
C14 C16 1.382 . S
C14 H18 0.950 . S
H15 C10 0.949 . S
C16 C11 1.399 . S
C16 C14 1.382 . S
C16 H17 0.952 . S
H17 C16 0.952 . S
H18 C14 0.950 . S
H19 C20 0.949 . S
C20 H19 0.949 . S
C20 C21 1.395 . S
C20 C22 1.391 . S
C21 C20 1.395 . S
C21 C24 1.390 . S
C22 C20 1.391 . S
C22 C26 1.387 . S
C22 C27 1.491 . S
H23 C24 0.950 . S
C24 C21 1.390 . S
C24 H23 0.950 . S
C24 C25 1.378 . S
C25 C24 1.378 . S
C25 C26 1.409 . S
C26 C22 1.387 . S
C26 C25 1.409 . S
C26 H28 0.951 . S
C27 C22 1.491 . S
C27 C29 1.382 . S
C27 C31 1.404 . S
H28 C26 0.951 . S
C29 C27 1.382 . S
C29 C30 1.390 . S
C29 H34 0.949 . S
C30 C29 1.390 . S
C30 C35 1.399 . S
C31 C27 1.404 . S
C31 H32 0.950 . S
C31 C33 1.375 . S
H32 C31 0.950 . S
C33 C31 1.375 . S
C33 C35 1.382 . S
C33 H37 0.950 . S
H34 C29 0.949 . S
C35 C30 1.399 . S
C35 C33 1.382 . S
C35 H36 0.952 . S
H36 C35 0.952 . S
H37 C33 0.950 . S
H38 C39 0.949 . S
C39 H38 0.949 . S
C39 C40 1.395 . S
C39 C41 1.391 . S
C40 C39 1.395 . S
C40 C43 1.390 . S
C41 C39 1.391 . S
C41 C45 1.387 . S
C41 C46 1.491 . S
H42 C43 0.950 . S
C43 C40 1.390 . S
C43 H42 0.950 . S
C43 C44 1.378 . S
C44 C43 1.378 . S
C44 C45 1.409 . S
C45 C41 1.387 . S
C45 C44 1.409 . S
C45 H47 0.951 . S
C46 C41 1.491 . S
C46 C48 1.382 . S
C46 C50 1.404 . S
H47 C45 0.951 . S
C48 C46 1.382 . S
C48 C49 1.390 . S
C48 H53 0.949 . S
C49 C48 1.390 . S
C49 C54 1.399 . S
C50 C46 1.404 . S
C50 H51 0.950 . S
C50 C52 1.375 . S
H51 C50 0.950 . S
C52 C50 1.375 . S
C52 C54 1.382 . S
C52 H56 0.950 . S
H53 C48 0.949 . S
C54 C49 1.399 . S
C54 C52 1.382 . S
C54 H55 0.952 1_655 S
H55 C54 0.952 1_455 S
H56 C52 0.950 . S
H57 C58 0.949 . S
C58 H57 0.949 . S
C58 C59 1.395 . S
C58 C60 1.391 . S
C59 C58 1.395 . S
C59 C62 1.390 . S
C60 C58 1.391 . S
C60 C64 1.387 . S
C60 C65 1.491 . S
H61 C62 0.950 . S
C62 C59 1.390 . S
C62 H61 0.950 . S
C62 C63 1.378 . S
C63 C62 1.378 . S
C63 C64 1.409 . S
C64 C60 1.387 . S
C64 C63 1.409 . S
C64 H66 0.951 . S
C65 C60 1.491 . S
C65 C67 1.382 . S
C65 C69 1.404 . S
H66 C64 0.951 . S
C67 C65 1.382 . S
C67 C68 1.390 . S
C67 H72 0.949 . S
C68 C67 1.390 . S
C68 C73 1.399 . S
C69 C65 1.404 . S
C69 H70 0.950 . S
C69 C71 1.375 . S
H70 C69 0.950 . S
C71 C69 1.375 . S
C71 C73 1.382 . S
C71 H75 0.950 . S
H72 C67 0.949 . S
C73 C68 1.399 . S
C73 C71 1.382 . S
C73 H74 0.952 . S
H74 C73 0.952 . S
H75 C71 0.950 . S
H76 C77 0.949 . S
C77 H76 0.949 . S
C77 C78 1.395 . S
C77 C79 1.391 . S
C78 C77 1.395 . S
C78 C81 1.390 . S
C79 C77 1.391 . S
C79 C83 1.387 . S
C79 C84 1.491 . S
H80 C81 0.950 . S
C81 C78 1.390 . S
C81 H80 0.950 . S
C81 C82 1.378 . S
C82 C81 1.378 . S
C82 C83 1.409 . S
C83 C79 1.387 . S
C83 C82 1.409 . S
C83 H85 0.951 . S
C84 C79 1.491 . S
C84 C86 1.382 . S
C84 C88 1.404 . S
H85 C83 0.951 . S
C86 C84 1.382 . S
C86 C87 1.390 . S
C86 H91 0.949 . S
C87 C86 1.390 . S
C87 C92 1.399 . S
C88 C84 1.404 . S
C88 H89 0.950 . S
C88 C90 1.375 . S
H89 C88 0.950 . S
C90 C88 1.375 . S
C90 C92 1.382 . S
C90 H94 0.950 . S
H91 C86 0.949 . S
C92 C87 1.399 . S
C92 C90 1.382 . S
C92 H93 0.952 . S
H93 C92 0.952 . S
H94 C90 0.950 . S
H95 C96 0.949 . S
C96 H95 0.949 . S
C96 C97 1.395 . S
C96 C98 1.391 . S
C97 C96 1.395 . S
C97 C100 1.390 . S
C98 C96 1.391 . S
C98 C102 1.387 . S
C98 C103 1.491 . S
H99 C100 0.950 . S
C100 C97 1.390 . S
C100 H99 0.950 . S
C100 C101 1.378 . S
C101 C100 1.378 . S
C101 C102 1.409 . S
C102 C98 1.387 . S
C102 C101 1.409 . S
C102 H104 0.951 . S
C103 C98 1.491 . S
C103 C105 1.382 . S
C103 C107 1.404 . S
H104 C102 0.951 . S
C105 C103 1.382 . S
C105 C106 1.390 . S
C105 H110 0.949 . S
C106 C105 1.390 . S
C106 C111 1.399 . S
C107 C103 1.404 . S
C107 H108 0.950 . S
C107 C109 1.375 . S
H108 C107 0.950 . S
C109 C107 1.375 . S
C109 C111 1.382 . S
C109 H113 0.950 . S
H110 C105 0.949 . S
C111 C106 1.399 . S
C111 C109 1.382 . S
C111 H112 0.952 . S
H112 C111 0.952 . S
H113 C109 0.950 . S
H114 C115 0.949 . S
C115 H114 0.949 . S
C115 C116 1.395 . S
C115 C117 1.391 . S
C116 C115 1.395 . S
C116 C119 1.390 . S
C117 C115 1.391 . S
C117 C121 1.387 . S
C117 C122 1.491 . S
H118 C119 0.950 . S
C119 C116 1.390 . S
C119 H118 0.950 . S
C119 C120 1.378 . S
C120 C119 1.378 . S
C120 C121 1.409 . S
C121 C117 1.387 . S
C121 C120 1.409 . S
C121 H123 0.951 . S
C122 C117 1.491 . S
C122 C124 1.382 . S
C122 C126 1.404 . S
H123 C121 0.951 . S
C124 C122 1.382 . S
C124 C125 1.390 . S
C124 H129 0.949 . S
C125 C124 1.390 . S
C125 C130 1.399 . S
C126 C122 1.404 . S
C126 H127 0.950 . S
C126 C128 1.375 . S
H127 C126 0.950 . S
C128 C126 1.375 . S
C128 C130 1.382 . S
C128 H132 0.950 . S
H129 C124 0.949 . S
C130 C125 1.399 . S
C130 C128 1.382 . S
C130 H131 0.952 . S
H131 C130 0.952 . S
H132 C128 0.950 . S
H133 C134 0.949 . S
C134 H133 0.949 . S
C134 C135 1.395 . S
C134 C136 1.391 . S
C135 C134 1.395 . S
C135 C138 1.390 . S
C136 C134 1.391 . S
C136 C140 1.387 . S
C136 C141 1.491 . S
H137 C138 0.950 . S
C138 C135 1.390 . S
C138 H137 0.950 . S
C138 C139 1.378 . S
C139 C138 1.378 . S
C139 C140 1.409 . S
C140 C136 1.387 . S
C140 C139 1.409 . S
C140 H142 0.951 . S
C141 C136 1.491 . S
C141 C143 1.382 . S
C141 C145 1.404 . S
H142 C140 0.951 . S
C143 C141 1.382 . S
C143 C144 1.390 . S
C143 H148 0.949 . S
C144 C143 1.390 . S
C144 C149 1.399 . S
C145 C141 1.404 . S
C145 H146 0.950 . S
C145 C147 1.375 . S
H146 C145 0.950 . S
C147 C145 1.375 . S
C147 C149 1.382 . S
C147 H151 0.950 . S
H148 C143 0.949 . S
C149 C144 1.399 . S
C149 C147 1.382 . S
C149 H150 0.952 . S
H150 C149 0.952 . S
H151 C147 0.950 . S
H152 C153 0.949 . S
C153 H152 0.949 . S
C153 C154 1.395 . S
C153 C155 1.391 . S
C154 C153 1.395 . S
C154 C157 1.390 . S
C155 C153 1.391 . S
C155 C159 1.387 . S
C155 C160 1.491 . S
H156 C157 0.950 . S
C157 C154 1.390 . S
C157 H156 0.950 . S
C157 C158 1.378 . S
C158 C157 1.378 . S
C158 C159 1.409 . S
C159 C155 1.387 . S
C159 C158 1.409 . S
C159 H161 0.951 . S
C160 C155 1.491 . S
C160 C162 1.382 . S
C160 C164 1.404 . S
H161 C159 0.951 . S
C162 C160 1.382 . S
C162 C163 1.390 . S
C162 H167 0.949 . S
C163 C162 1.390 . S
C163 C168 1.399 . S
C164 C160 1.404 . S
C164 H165 0.950 . S
C164 C166 1.375 . S
H165 C164 0.950 . S
C166 C164 1.375 . S
C166 C168 1.382 . S
C166 H170 0.950 . S
H167 C162 0.949 . S
C168 C163 1.399 . S
C168 C166 1.382 . S
C168 H169 0.952 . S
H169 C168 0.952 . S
H170 C166 0.950 . S
H171 C172 0.949 . S
C172 H171 0.949 . S
C172 C173 1.395 . S
C172 C174 1.391 . S
C173 C172 1.395 . S
C173 C176 1.390 . S
C174 C172 1.391 . S
C174 C178 1.387 . S
C174 C179 1.491 . S
H175 C176 0.950 . S
C176 C173 1.390 . S
C176 H175 0.950 . S
C176 C177 1.378 . S
C177 C176 1.378 . S
C177 C178 1.409 . S
C178 C174 1.387 . S
C178 C177 1.409 . S
C178 H180 0.951 . S
C179 C174 1.491 . S
C179 C181 1.382 . S
C179 C183 1.404 . S
H180 C178 0.951 . S
C181 C179 1.382 . S
C181 C182 1.390 . S
C181 H186 0.949 . S
C182 C181 1.390 . S
C182 C187 1.399 . S
C183 C179 1.404 . S
C183 H184 0.950 . S
C183 C185 1.375 . S
H184 C183 0.950 . S
C185 C183 1.375 . S
C185 C187 1.382 . S
C185 H189 0.950 . S
H186 C181 0.949 . S
C187 C182 1.399 . S
C187 C185 1.382 . S
C187 H188 0.952 . S
H188 C187 0.952 . S
H189 C185 0.950 . S
H190 C191 0.949 . S
C191 H190 0.949 . S
C191 C192 1.395 . S
C191 C193 1.391 . S
C192 C191 1.395 . S
C192 C195 1.390 . S
C193 C191 1.391 . S
C193 C197 1.387 . S
C193 C198 1.491 . S
H194 C195 0.950 . S
C195 C192 1.390 . S
C195 H194 0.950 . S
C195 C196 1.378 . S
C196 C195 1.378 . S
C196 C197 1.409 . S
C197 C193 1.387 . S
C197 C196 1.409 . S
C197 H199 0.951 1_556 S
C198 C193 1.491 . S
C198 C200 1.382 . S
C198 C202 1.404 1_556 S
H199 C197 0.951 1_554 S
C200 C198 1.382 . S
C200 C201 1.390 1_556 S
C200 H205 0.949 . S
C201 C200 1.390 1_554 S
C201 C206 1.399 . S
C202 C198 1.404 1_554 S
C202 H203 0.950 . S
C202 C204 1.375 . S
H203 C202 0.950 . S
C204 C202 1.375 . S
C204 C206 1.382 . S
C204 H208 0.950 . S
H205 C200 0.949 . S
C206 C201 1.399 . S
C206 C204 1.382 . S
C206 H207 0.952 . S
H207 C206 0.952 . S
H208 C204 0.950 . S
H209 C210 0.949 . S
C210 H209 0.949 . S
C210 C211 1.395 . S
C210 C212 1.391 . S
C211 C210 1.395 . S
C211 C214 1.390 . S
C212 C210 1.391 . S
C212 C216 1.387 . S
C212 C217 1.491 . S
H213 C214 0.950 . S
C214 C211 1.390 . S
C214 H213 0.950 . S
C214 C215 1.378 . S
C215 C214 1.378 . S
C215 C216 1.409 . S
C216 C212 1.387 . S
C216 C215 1.409 . S
C216 H218 0.951 . S
C217 C212 1.491 . S
C217 C219 1.382 . S
C217 C221 1.404 . S
H218 C216 0.951 . S
C219 C217 1.382 . S
C219 C220 1.390 . S
C219 H224 0.949 . S
C220 C219 1.390 . S
C220 C225 1.399 . S
C221 C217 1.404 . S
C221 H222 0.950 . S
C221 C223 1.375 . S
H222 C221 0.950 . S
C223 C221 1.375 . S
C223 C225 1.382 . S
C223 H227 0.950 . S
H224 C219 0.949 . S
C225 C220 1.399 . S
C225 C223 1.382 . S
C225 H226 0.952 . S
H226 C225 0.952 . S
H227 C223 0.950 . S
H228 C229 0.949 . S
C229 H228 0.949 . S
C229 C230 1.395 . S
C229 C231 1.391 . S
C230 C229 1.395 . S
C230 C233 1.390 . S
C231 C229 1.391 . S
C231 C235 1.387 . S
C231 C236 1.491 . S
H232 C233 0.950 . S
C233 C230 1.390 . S
C233 H232 0.950 . S
C233 C234 1.378 . S
C234 C233 1.378 . S
C234 C235 1.409 . S
C235 C231 1.387 . S
C235 C234 1.409 . S
C235 H237 0.951 . S
C236 C231 1.491 . S
C236 C238 1.382 . S
C236 C240 1.404 . S
H237 C235 0.951 . S
C238 C236 1.382 . S
C238 C239 1.390 . S
C238 H243 0.949 . S
C239 C238 1.390 . S
C239 C244 1.399 . S
C240 C236 1.404 . S
C240 H241 0.950 . S
C240 C242 1.375 1_554 S
H241 C240 0.950 . S
C242 C240 1.375 1_556 S
C242 C244 1.382 1_556 S
C242 H246 0.950 . S
H243 C238 0.949 . S
C244 C239 1.399 . S
C244 C242 1.382 1_554 S
C244 H245 0.952 1_554 S
H245 C244 0.952 1_556 S
H246 C242 0.950 . S
H247 C248 0.949 . S
C248 H247 0.949 . S
C248 C249 1.395 . S
C248 C250 1.391 . S
C249 C248 1.395 . S
C249 C252 1.390 . S
C250 C248 1.391 . S
C250 C254 1.387 . S
C250 C255 1.491 . S
H251 C252 0.950 . S
C252 C249 1.390 . S
C252 H251 0.950 . S
C252 C253 1.378 . S
C253 C252 1.378 . S
C253 C254 1.409 . S
C254 C250 1.387 . S
C254 C253 1.409 . S
C254 H256 0.951 . S
C255 C250 1.491 . S
C255 C257 1.382 . S
C255 C259 1.404 . S
H256 C254 0.951 . S
C257 C255 1.382 . S
C257 C258 1.390 . S
C257 H262 0.949 . S
C258 C257 1.390 . S
C258 C263 1.399 . S
C259 C255 1.404 . S
C259 H260 0.950 . S
C259 C261 1.375 . S
H260 C259 0.950 . S
C261 C259 1.375 . S
C261 C263 1.382 . S
C261 H265 0.950 . S
H262 C257 0.949 . S
C263 C258 1.399 . S
C263 C261 1.382 . S
C263 H264 0.952 . S
H264 C263 0.952 . S
H265 C261 0.950 . S
H266 C267 0.949 . S
C267 H266 0.949 . S
C267 C268 1.395 . S
C267 C269 1.391 . S
C268 C267 1.395 . S
C268 C271 1.390 . S
C269 C267 1.391 . S
C269 C273 1.387 . S
C269 C274 1.491 . S
H270 C271 0.950 . S
C271 C268 1.390 . S
C271 H270 0.950 . S
C271 C272 1.378 . S
C272 C271 1.378 . S
C272 C273 1.409 . S
C273 C269 1.387 . S
C273 C272 1.409 . S
C273 H275 0.951 . S
C274 C269 1.491 . S
C274 C276 1.382 . S
C274 C278 1.404 . S
H275 C273 0.951 . S
C276 C274 1.382 . S
C276 C277 1.390 . S
C276 H281 0.949 . S
C277 C276 1.390 . S
C277 C282 1.399 . S
C278 C274 1.404 . S
C278 H279 0.950 . S
C278 C280 1.375 . S
H279 C278 0.950 . S
C280 C278 1.375 . S
C280 C282 1.382 . S
C280 H284 0.950 . S
H281 C276 0.949 . S
C282 C277 1.399 . S
C282 C280 1.382 . S
C282 H283 0.952 . S
H283 C282 0.952 . S
H284 C280 0.950 . S
H285 C286 0.949 . S
C286 H285 0.949 . S
C286 C287 1.395 . S
C286 C288 1.391 . S
C287 C286 1.395 . S
C287 C290 1.390 . S
C288 C286 1.391 . S
C288 C292 1.387 . S
C288 C293 1.491 . S
H289 C290 0.950 . S
C290 C287 1.390 . S
C290 H289 0.950 . S
C290 C291 1.378 . S
C291 C290 1.378 . S
C291 C292 1.409 . S
C292 C288 1.387 . S
C292 C291 1.409 . S
C292 H294 0.951 . S
C293 C288 1.491 . S
C293 C295 1.382 . S
C293 C297 1.404 . S
H294 C292 0.951 . S
C295 C293 1.382 . S
C295 C296 1.390 . S
C295 H300 0.949 . S
C296 C295 1.390 . S
C296 C301 1.399 . S
C297 C293 1.404 . S
C297 H298 0.950 . S
C297 C299 1.375 . S
H298 C297 0.950 . S
C299 C297 1.375 . S
C299 C301 1.382 . S
C299 H303 0.950 . S
H300 C295 0.949 . S
C301 C296 1.399 . S
C301 C299 1.382 . S
C301 H302 0.952 . S
H302 C301 0.952 . S
H303 C299 0.950 . S
H304 C305 0.949 . S
C305 H304 0.949 . S
C305 C306 1.395 . S
C305 C307 1.391 . S
C306 C305 1.395 . S
C306 C309 1.390 . S
C307 C305 1.391 . S
C307 C311 1.387 . S
C307 C312 1.491 . S
H308 C309 0.950 . S
C309 C306 1.390 . S
C309 H308 0.950 . S
C309 C310 1.378 . S
C310 C309 1.378 . S
C310 C311 1.409 . S
C311 C307 1.387 . S
C311 C310 1.409 . S
C311 H313 0.951 . S
C312 C307 1.491 . S
C312 C314 1.382 . S
C312 C316 1.404 . S
H313 C311 0.951 . S
C314 C312 1.382 . S
C314 C315 1.390 . S
C314 H319 0.949 . S
C315 C314 1.390 . S
C315 C320 1.399 . S
C316 C312 1.404 . S
C316 H317 0.950 . S
C316 C318 1.375 . S
H317 C316 0.950 . S
C318 C316 1.375 . S
C318 C320 1.382 . S
C318 H322 0.950 . S
H319 C314 0.949 . S
C320 C315 1.399 . S
C320 C318 1.382 . S
C320 H321 0.952 . S
H321 C320 0.952 . S
H322 C318 0.950 . S
H323 C324 0.949 . S
C324 H323 0.949 . S
C324 C325 1.395 . S
C324 C326 1.391 . S
C325 C324 1.395 . S
C325 C328 1.390 . S
C326 C324 1.391 . S
C326 C330 1.387 . S
C326 C331 1.491 . S
H327 C328 0.950 . S
C328 C325 1.390 . S
C328 H327 0.950 . S
C328 C329 1.378 . S
C329 C328 1.378 . S
C329 C330 1.409 . S
C330 C326 1.387 . S
C330 C329 1.409 . S
C330 H332 0.951 . S
C331 C326 1.491 . S
C331 C333 1.382 . S
C331 C335 1.404 . S
H332 C330 0.951 . S
C333 C331 1.382 . S
C333 C334 1.390 . S
C333 H338 0.949 . S
C334 C333 1.390 . S
C334 C339 1.399 . S
C335 C331 1.404 . S
C335 H336 0.950 . S
C335 C337 1.375 . S
H336 C335 0.950 . S
C337 C335 1.375 . S
C337 C339 1.382 . S
C337 H341 0.950 . S
H338 C333 0.949 . S
C339 C334 1.399 . S
C339 C337 1.382 . S
C339 H340 0.952 . S
H340 C339 0.952 . S
H341 C337 0.950 . S
C342 Eu343 2.835 1_565 S
C342 C344 1.500 . S
C342 O362 1.257 . S
C342 O363 1.260 1_565 S
Eu343 C342 2.835 1_545 S
Eu343 O362 2.473 1_545 S
Eu343 O363 2.480 . S
Eu343 O364 2.430 . S
Eu343 O365 2.670 1_554 S
Eu343 O366 2.394 1_545 S
Eu343 O371 2.355 1_545 S
Eu343 O373 2.374 . S
C344 C342 1.500 . S
C344 C345 1.377 . S
C344 C349 1.377 . S
C345 C344 1.377 . S
C345 C346 1.395 . S
C345 H374 0.931 1_565 S
C346 C345 1.395 . S
C346 C347 1.383 . S
C346 H375 0.935 . S
C347 C346 1.383 . S
C347 C348 1.394 . S
C348 C347 1.394 . S
C348 C349 1.378 . S
C348 H376 0.931 . S
C349 C344 1.377 . S
C349 C348 1.378 . S
C349 H377 0.931 . S
C350 O364 1.259 . S
C350 O365 1.270 1_554 S
C351 O366 1.251 . S
C351 O367 1.251 1_554 S
C352 Eu353 2.835 1_545 S
C352 C354 1.500 . S
C352 O368 1.257 . S
C352 O369 1.260 1_545 S
Eu353 C352 2.835 1_565 S
Eu353 O365 2.355 1_565 S
Eu353 O367 2.374 . S
Eu353 O368 2.473 1_565 S
Eu353 O369 2.480 . S
Eu353 O370 2.430 . S
Eu353 O371 2.670 1_556 S
Eu353 O372 2.394 1_565 S
C354 C352 1.500 . S
C354 C355 1.377 . S
C354 C359 1.377 . S
C355 C354 1.377 . S
C355 C356 1.395 . S
C355 H378 0.931 1_545 S
C356 C355 1.395 . S
C356 C357 1.383 . S
C356 H379 0.931 . S
C357 C356 1.383 . S
C357 C358 1.394 . S
C358 C357 1.394 . S
C358 C359 1.378 . S
C358 H380 0.931 . S
C359 C354 1.377 . S
C359 C358 1.378 . S
C359 H381 0.931 . S
C360 O370 1.312 . S
C360 O371 1.245 1_556 S
C361 O372 1.251 . S
C361 O373 1.251 1_556 S
O362 C342 1.257 . S
O362 Eu343 2.473 1_565 S
O363 C342 1.260 1_545 S
O363 Eu343 2.480 . S
O364 Eu343 2.430 . S
O364 C350 1.259 . S
O365 Eu343 2.670 1_556 S
O365 C350 1.270 1_556 S
O365 Eu353 2.355 1_545 S
O366 Eu343 2.394 1_565 S
O366 C351 1.251 . S
O367 C351 1.251 1_556 S
O367 Eu353 2.374 . S
O368 C352 1.257 . S
O368 Eu353 2.473 1_545 S
O369 C352 1.260 1_565 S
O369 Eu353 2.480 . S
O370 Eu353 2.430 . S
O370 C360 1.312 . S
O371 Eu343 2.355 1_565 S
O371 Eu353 2.670 1_554 S
O371 C360 1.245 1_554 S
O372 Eu353 2.394 1_545 S
O372 C361 1.251 . S
O373 Eu343 2.374 . S
O373 C361 1.251 1_554 S
H374 C345 0.931 1_545 S
H375 C346 0.935 . S
H376 C348 0.931 . S
H377 C349 0.931 . S
H378 C355 0.931 1_565 S
H379 C356 0.931 . S
H380 C358 0.931 . S
H381 C359 0.931 . S
C382 Eu383 2.835 1_455 S
C382 C384 1.500 . S
C382 O402 1.257 . S
C382 O403 1.260 1_455 S
Eu383 C382 2.835 1_655 S
Eu383 O402 2.473 1_655 S
Eu383 O403 2.480 . S
Eu383 O404 2.430 . S
Eu383 O405 2.670 1_554 S
Eu383 O406 2.394 1_655 S
Eu383 O411 2.355 1_655 S
Eu383 O413 2.374 . S
C384 C382 1.500 . S
C384 C385 1.377 . S
C384 C389 1.377 . S
C385 C384 1.377 . S
C385 C386 1.395 . S
C385 H414 0.931 1_455 S
C386 C385 1.395 . S
C386 C387 1.383 . S
C386 H415 0.931 . S
C387 C386 1.383 . S
C387 C388 1.394 . S
C388 C387 1.394 . S
C388 C389 1.378 . S
C388 H416 0.931 . S
C389 C384 1.377 . S
C389 C388 1.378 . S
C389 H417 0.931 . S
C390 O404 1.306 . S
C390 O405 1.247 1_554 S
C391 O406 1.251 . S
C391 O407 1.251 1_554 S
C392 Eu393 2.835 1_655 S
C392 C394 1.500 . S
C392 O408 1.257 . S
C392 O409 1.260 1_655 S
Eu393 C392 2.835 1_455 S
Eu393 O405 2.355 1_455 S
Eu393 O407 2.374 . S
Eu393 O408 2.473 1_455 S
Eu393 O409 2.480 . S
Eu393 O410 2.430 . S
Eu393 O411 2.670 1_556 S
Eu393 O412 2.394 1_455 S
C394 C392 1.500 . S
C394 C395 1.377 . S
C394 C399 1.377 . S
C395 C394 1.377 . S
C395 C396 1.395 . S
C395 H418 0.931 1_655 S
C396 C395 1.395 . S
C396 C397 1.383 . S
C396 H419 0.931 . S
C397 C396 1.383 . S
C397 C398 1.394 . S
C398 C397 1.394 . S
C398 C399 1.378 . S
C398 H420 0.931 . S
C399 C394 1.377 . S
C399 C398 1.378 . S
C399 H421 0.931 . S
C400 O410 1.259 1_554 S
C400 O411 1.270 . S
C401 O412 1.251 . S
C401 O413 1.251 1_556 S
O402 C382 1.257 . S
O402 Eu383 2.473 1_455 S
O403 C382 1.260 1_655 S
O403 Eu383 2.480 . S
O404 Eu383 2.430 . S
O404 C390 1.306 . S
O405 Eu383 2.670 1_556 S
O405 C390 1.247 1_556 S
O405 Eu393 2.355 1_655 S
O406 Eu383 2.394 1_455 S
O406 C391 1.251 . S
O407 C391 1.251 1_556 S
O407 Eu393 2.374 . S
O408 C392 1.257 . S
O408 Eu393 2.473 1_655 S
O409 C392 1.260 1_455 S
O409 Eu393 2.480 . S
O410 Eu393 2.430 . S
O410 C400 1.259 1_556 S
O411 Eu383 2.355 1_455 S
O411 Eu393 2.670 1_554 S
O411 C400 1.270 . S
O412 Eu393 2.394 1_655 S
O412 C401 1.251 . S
O413 Eu383 2.374 . S
O413 C401 1.251 1_554 S
H414 C385 0.931 1_655 S
H415 C386 0.931 . S
H416 C388 0.931 . S
H417 C389 0.931 . S
H418 C395 0.931 1_455 S
H419 C396 0.931 . S
H420 C398 0.931 . S
H421 C399 0.931 . S
C422 Eu423 2.835 . S
C422 C424 1.500 . S
C422 O442 1.257 . S
C422 O443 1.260 . S
Eu423 C422 2.835 . S
Eu423 O442 2.473 . S
Eu423 O443 2.480 . S
Eu423 O444 2.430 . S
Eu423 O445 2.670 1_556 S
Eu423 O446 2.394 . S
Eu423 O451 2.355 1_556 S
Eu423 O453 2.374 1_556 S
C424 C422 1.500 . S
C424 C425 1.377 . S
C424 C429 1.377 . S
C425 C424 1.377 . S
C425 C426 1.395 . S
C425 H454 0.931 . S
C426 C425 1.395 . S
C426 C427 1.383 . S
C426 H455 0.931 . S
C427 C426 1.383 . S
C427 C428 1.394 . S
C428 C427 1.394 . S
C428 C429 1.378 . S
C428 H456 0.931 . S
C429 C424 1.377 . S
C429 C428 1.378 . S
C429 H457 0.931 . S
C430 O444 1.259 1_554 S
C430 O445 1.270 . S
C431 O446 1.251 . S
C431 O447 1.251 1_556 S
C432 Eu433 2.835 . S
C432 C434 1.500 . S
C432 O448 1.257 . S
C432 O449 1.260 . S
Eu433 C432 2.835 . S
Eu433 O445 2.355 . S
Eu433 O447 2.374 . S
Eu433 O448 2.473 . S
Eu433 O449 2.480 . S
Eu433 O450 2.430 . S
Eu433 O451 2.670 . S
Eu433 O452 2.394 . S
C434 C432 1.500 . S
C434 C435 1.377 . S
C434 C439 1.377 . S
C435 C434 1.377 . S
C435 C436 1.395 . S
C435 H458 0.931 . S
C436 C435 1.395 . S
C436 C437 1.383 . S
C436 H459 0.931 . S
C437 C436 1.383 . S
C437 C438 1.394 . S
C438 C437 1.394 . S
C438 C439 1.378 . S
C438 H460 0.931 . S
C439 C434 1.377 . S
C439 C438 1.378 . S
C439 H461 0.931 . S
C440 O450 1.259 . S
C440 O451 1.270 . S
C441 O452 1.251 . S
C441 O453 1.251 . S
O442 C422 1.257 . S
O442 Eu423 2.473 . S
O443 C422 1.260 . S
O443 Eu423 2.480 . S
O444 Eu423 2.430 . S
O444 C430 1.259 1_556 S
O445 Eu423 2.670 1_554 S
O445 C430 1.270 . S
O445 Eu433 2.355 . S
O446 Eu423 2.394 . S
O446 C431 1.251 . S
O447 C431 1.251 1_554 S
O447 Eu433 2.374 . S
O448 C432 1.257 . S
O448 Eu433 2.473 . S
O449 C432 1.260 . S
O449 Eu433 2.480 . S
O450 Eu433 2.430 . S
O450 C440 1.259 . S
O451 Eu423 2.355 1_554 S
O451 Eu433 2.670 . S
O451 C440 1.270 . S
O452 Eu433 2.394 . S
O452 C441 1.251 . S
O453 Eu423 2.374 1_554 S
O453 C441 1.251 . S
H454 C425 0.931 . S
H455 C426 0.931 . S
H456 C428 0.931 . S
H457 C429 0.931 . S
H458 C435 0.931 . S
H459 C436 0.931 . S
H460 C438 0.931 . S
H461 C439 0.931 . S
C462 Eu463 2.835 . S
C462 C464 1.500 . S
C462 O482 1.257 . S
C462 O483 1.260 . S
Eu463 C462 2.835 . S
Eu463 O482 2.473 . S
Eu463 O483 2.480 . S
Eu463 O484 2.430 . S
Eu463 O485 2.670 . S
Eu463 O486 2.394 . S
Eu463 O491 2.355 . S
Eu463 O493 2.374 . S
C464 C462 1.500 . S
C464 C465 1.377 . S
C464 C469 1.377 . S
C465 C464 1.377 . S
C465 C466 1.395 . S
C465 H494 0.931 . S
C466 C465 1.395 . S
C466 C467 1.383 . S
C466 H495 0.931 . S
C467 C466 1.383 . S
C467 C468 1.394 . S
C468 C467 1.394 . S
C468 C469 1.378 . S
C468 H496 0.931 . S
C469 C464 1.377 . S
C469 C468 1.378 . S
C469 H497 0.931 . S
C470 O484 1.259 . S
C470 O485 1.270 . S
C471 O486 1.251 . S
C471 O487 1.251 . S
C472 Eu473 2.835 . S
C472 C474 1.500 . S
C472 O488 1.257 . S
C472 O489 1.260 . S
Eu473 C472 2.835 . S
Eu473 O485 2.355 . S
Eu473 O487 2.374 . S
Eu473 O488 2.473 . S
Eu473 O489 2.480 . S
Eu473 O490 2.430 . S
Eu473 O491 2.670 . S
Eu473 O492 2.394 . S
C474 C472 1.500 . S
C474 C475 1.377 . S
C474 C479 1.377 . S
C475 C474 1.377 . S
C475 C476 1.395 . S
C475 H498 0.931 . S
C476 C475 1.395 . S
C476 C477 1.383 . S
C476 H499 0.931 . S
C477 C476 1.383 . S
C477 C478 1.394 . S
C478 C477 1.394 . S
C478 C479 1.378 . S
C478 H500 0.931 . S
C479 C474 1.377 . S
C479 C478 1.378 . S
C479 H501 0.931 . S
C480 O490 1.259 . S
C480 O491 1.270 . S
C481 O492 1.251 . S
C481 O493 1.251 . S
O482 C462 1.257 . S
O482 Eu463 2.473 . S
O483 C462 1.260 . S
O483 Eu463 2.480 . S
O484 Eu463 2.430 . S
O484 C470 1.259 . S
O485 Eu463 2.670 . S
O485 C470 1.270 . S
O485 Eu473 2.355 . S
O486 Eu463 2.394 . S
O486 C471 1.251 . S
O487 C471 1.251 . S
O487 Eu473 2.374 . S
O488 C472 1.257 . S
O488 Eu473 2.473 . S
O489 C472 1.260 . S
O489 Eu473 2.480 . S
O490 Eu473 2.430 . S
O490 C480 1.259 . S
O491 Eu463 2.355 . S
O491 Eu473 2.670 . S
O491 C480 1.270 . S
O492 Eu473 2.394 . S
O492 C481 1.251 . S
O493 Eu463 2.374 . S
O493 C481 1.251 . S
H494 C465 0.931 . S
H495 C466 0.931 . S
H496 C468 0.931 . S
H497 C469 0.931 . S
H498 C475 0.931 . S
H499 C476 0.931 . S
H500 C478 0.931 . S
H501 C479 0.931 . S
C502 Eu503 2.835 . S
C502 C504 1.500 . S
C502 O522 1.257 . S
C502 O523 1.260 . S
Eu503 C502 2.835 . S
Eu503 O522 2.473 . S
Eu503 O523 2.480 . S
Eu503 O524 2.430 . S
Eu503 O525 2.670 . S
Eu503 O526 2.394 . S
Eu503 O531 2.355 . S
Eu503 O533 2.374 . S
C504 C502 1.500 . S
C504 C505 1.377 . S
C504 C509 1.377 . S
C505 C504 1.377 . S
C505 C506 1.395 . S
C505 H534 0.931 . S
C506 C505 1.395 . S
C506 C507 1.383 . S
C506 H535 0.931 . S
C507 C506 1.383 . S
C507 C508 1.394 . S
C508 C507 1.394 . S
C508 C509 1.378 . S
C508 H536 0.931 . S
C509 C504 1.377 . S
C509 C508 1.378 . S
C509 H537 0.931 . S
C510 O524 1.259 . S
C510 O525 1.270 . S
C511 O526 1.251 . S
C511 O527 1.251 . S
C512 Eu513 2.835 . S
C512 C514 1.500 . S
C512 O528 1.257 . S
C512 O529 1.260 . S
Eu513 C512 2.835 . S
Eu513 O525 2.355 . S
Eu513 O527 2.374 . S
Eu513 O528 2.473 . S
Eu513 O529 2.480 . S
Eu513 O530 2.430 . S
Eu513 O531 2.670 . S
Eu513 O532 2.394 . S
C514 C512 1.500 . S
C514 C515 1.377 . S
C514 C519 1.377 . S
C515 C514 1.377 . S
C515 C516 1.395 . S
C515 H538 0.931 . S
C516 C515 1.395 . S
C516 C517 1.383 . S
C516 H539 0.931 . S
C517 C516 1.383 . S
C517 C518 1.394 . S
C518 C517 1.394 . S
C518 C519 1.378 . S
C518 H540 0.931 . S
C519 C514 1.377 . S
C519 C518 1.378 . S
C519 H541 0.931 . S
C520 O530 1.259 . S
C520 O531 1.270 . S
C521 O532 1.251 . S
C521 O533 1.251 . S
O522 C502 1.257 . S
O522 Eu503 2.473 . S
O523 C502 1.260 . S
O523 Eu503 2.480 . S
O524 Eu503 2.430 . S
O524 C510 1.259 . S
O525 Eu503 2.670 . S
O525 C510 1.270 . S
O525 Eu513 2.355 . S
O526 Eu503 2.394 . S
O526 C511 1.251 . S
O527 C511 1.251 . S
O527 Eu513 2.374 . S
O528 C512 1.257 . S
O528 Eu513 2.473 . S
O529 C512 1.260 . S
O529 Eu513 2.480 . S
O530 Eu513 2.430 . S
O530 C520 1.259 . S
O531 Eu503 2.355 . S
O531 Eu513 2.670 . S
O531 C520 1.270 . S
O532 Eu513 2.394 . S
O532 C521 1.251 . S
O533 Eu503 2.374 . S
O533 C521 1.251 . S
H534 C505 0.931 . S
H535 C506 0.931 . S
H536 C508 0.931 . S
H537 C509 0.931 . S
H538 C515 0.931 . S
H539 C516 0.931 . S
H540 C518 0.931 . S
H541 C519 0.931 . S
C542 Eu543 2.835 . S
C542 C544 1.500 . S
C542 O562 1.257 . S
C542 O563 1.260 . S
Eu543 C542 2.835 . S
Eu543 O562 2.473 . S
Eu543 O563 2.480 . S
Eu543 O564 2.430 . S
Eu543 O565 2.670 . S
Eu543 O566 2.394 . S
Eu543 O571 2.355 . S
Eu543 O573 2.374 . S
C544 C542 1.500 . S
C544 C545 1.377 . S
C544 C549 1.377 . S
C545 C544 1.377 . S
C545 C546 1.395 . S
C545 H574 0.931 . S
C546 C545 1.395 . S
C546 C547 1.383 . S
C546 H575 0.931 . S
C547 C546 1.383 . S
C547 C548 1.394 . S
C548 C547 1.394 . S
C548 C549 1.378 . S
C548 H576 0.931 . S
C549 C544 1.377 . S
C549 C548 1.378 . S
C549 H577 0.931 . S
C550 O564 1.259 . S
C550 O565 1.270 . S
C551 O566 1.251 . S
C551 O567 1.251 . S
C552 Eu553 2.835 . S
C552 C554 1.500 . S
C552 O568 1.257 . S
C552 O569 1.260 . S
Eu553 C552 2.835 . S
Eu553 O565 2.355 . S
Eu553 O567 2.374 . S
Eu553 O568 2.473 . S
Eu553 O569 2.480 . S
Eu553 O570 2.430 . S
Eu553 O571 2.670 . S
Eu553 O572 2.394 . S
C554 C552 1.500 . S
C554 C555 1.377 . S
C554 C559 1.377 . S
C555 C554 1.377 . S
C555 C556 1.395 . S
C555 H578 0.931 . S
C556 C555 1.395 . S
C556 C557 1.383 . S
C556 H579 0.931 . S
C557 C556 1.383 . S
C557 C558 1.394 . S
C558 C557 1.394 . S
C558 C559 1.378 . S
C558 H580 0.931 . S
C559 C554 1.377 . S
C559 C558 1.378 . S
C559 H581 0.931 . S
C560 O570 1.259 . S
C560 O571 1.270 . S
C561 O572 1.251 . S
C561 O573 1.251 . S
O562 C542 1.257 . S
O562 Eu543 2.473 . S
O563 C542 1.260 . S
O563 Eu543 2.480 . S
O564 Eu543 2.430 . S
O564 C550 1.259 . S
O565 Eu543 2.670 . S
O565 C550 1.270 . S
O565 Eu553 2.355 . S
O566 Eu543 2.394 . S
O566 C551 1.251 . S
O567 C551 1.251 . S
O567 Eu553 2.374 . S
O568 C552 1.257 . S
O568 Eu553 2.473 . S
O569 C552 1.260 . S
O569 Eu553 2.480 . S
O570 Eu553 2.430 . S
O570 C560 1.259 . S
O571 Eu543 2.355 . S
O571 Eu553 2.670 . S
O571 C560 1.270 . S
O572 Eu553 2.394 . S
O572 C561 1.251 . S
O573 Eu543 2.374 . S
O573 C561 1.251 . S
H574 C545 0.931 . S
H575 C546 0.931 . S
H576 C548 0.931 . S
H577 C549 0.931 . S
H578 C555 0.931 . S
H579 C556 0.931 . S
H580 C558 0.931 . S
H581 C559 0.931 . S
C582 Eu583 2.835 . S
C582 C584 1.500 . S
C582 O602 1.257 . S
C582 O603 1.260 . S
Eu583 C582 2.835 . S
Eu583 O602 2.473 . S
Eu583 O603 2.480 . S
Eu583 O604 2.430 . S
Eu583 O605 2.670 . S
Eu583 O606 2.394 . S
Eu583 O611 2.355 . S
Eu583 O613 2.374 . S
C584 C582 1.500 . S
C584 C585 1.377 . S
C584 C589 1.377 . S
C585 C584 1.377 . S
C585 C586 1.395 . S
C585 H614 0.931 . S
C586 C585 1.395 . S
C586 C587 1.383 . S
C586 H615 0.931 . S
C587 C586 1.383 . S
C587 C588 1.394 . S
C588 C587 1.394 . S
C588 C589 1.378 . S
C588 H616 0.931 . S
C589 C584 1.377 . S
C589 C588 1.378 . S
C589 H617 0.931 . S
C590 O604 1.259 . S
C590 O605 1.270 . S
C591 O606 1.251 . S
C591 O607 1.251 . S
C592 Eu593 2.835 . S
C592 C594 1.500 . S
C592 O608 1.257 . S
C592 O609 1.260 . S
Eu593 C592 2.835 . S
Eu593 O605 2.355 . S
Eu593 O607 2.374 . S
Eu593 O608 2.473 . S
Eu593 O609 2.480 . S
Eu593 O610 2.430 . S
Eu593 O611 2.670 . S
Eu593 O612 2.394 . S
C594 C592 1.500 . S
C594 C595 1.377 . S
C594 C599 1.377 . S
C595 C594 1.377 . S
C595 C596 1.395 . S
C595 H618 0.931 . S
C596 C595 1.395 . S
C596 C597 1.383 . S
C596 H619 0.931 . S
C597 C596 1.383 . S
C597 C598 1.394 . S
C598 C597 1.394 . S
C598 C599 1.378 . S
C598 H620 0.931 . S
C599 C594 1.377 . S
C599 C598 1.378 . S
C599 H621 0.931 . S
C600 O610 1.259 . S
C600 O611 1.270 . S
C601 O612 1.251 . S
C601 O613 1.251 . S
O602 C582 1.257 . S
O602 Eu583 2.473 . S
O603 C582 1.260 . S
O603 Eu583 2.480 . S
O604 Eu583 2.430 . S
O604 C590 1.259 . S
O605 Eu583 2.670 . S
O605 C590 1.270 . S
O605 Eu593 2.355 . S
O606 Eu583 2.394 . S
O606 C591 1.251 . S
O607 C591 1.251 . S
O607 Eu593 2.374 . S
O608 C592 1.257 . S
O608 Eu593 2.473 . S
O609 C592 1.260 . S
O609 Eu593 2.480 . S
O610 Eu593 2.430 . S
O610 C600 1.259 . S
O611 Eu583 2.355 . S
O611 Eu593 2.670 . S
O611 C600 1.270 . S
O612 Eu593 2.394 . S
O612 C601 1.251 . S
O613 Eu583 2.374 . S
O613 C601 1.251 . S
H614 C585 0.931 . S
H615 C586 0.931 . S
H616 C588 0.931 . S
H617 C589 0.931 . S
H618 C595 0.931 . S
H619 C596 0.931 . S
H620 C598 0.931 . S
H621 C599 0.931 . S
C622 Eu623 2.835 . S
C622 C624 1.500 . S
C622 O642 1.257 . S
C622 O643 1.260 . S
Eu623 C622 2.835 . S
Eu623 O642 2.473 . S
Eu623 O643 2.480 . S
Eu623 O644 2.430 . S
Eu623 O645 2.670 . S
Eu623 O646 2.394 . S
Eu623 O651 2.355 . S
Eu623 O653 2.374 . S
C624 C622 1.500 . S
C624 C625 1.377 . S
C624 C629 1.377 . S
C625 C624 1.377 . S
C625 C626 1.395 . S
C625 H654 0.931 . S
C626 C625 1.395 . S
C626 C627 1.383 . S
C626 H655 0.931 . S
C627 C626 1.383 . S
C627 C628 1.394 . S
C628 C627 1.394 . S
C628 C629 1.378 . S
C628 H656 0.931 . S
C629 C624 1.377 . S
C629 C628 1.378 . S
C629 H657 0.931 . S
C630 O644 1.259 . S
C630 O645 1.270 . S
C631 O646 1.251 . S
C631 O647 1.251 . S
C632 Eu633 2.835 . S
C632 C634 1.500 . S
C632 O648 1.257 . S
C632 O649 1.260 . S
Eu633 C632 2.835 . S
Eu633 O645 2.355 . S
Eu633 O647 2.374 . S
Eu633 O648 2.473 . S
Eu633 O649 2.480 . S
Eu633 O650 2.430 . S
Eu633 O651 2.670 . S
Eu633 O652 2.394 . S
C634 C632 1.500 . S
C634 C635 1.377 . S
C634 C639 1.377 . S
C635 C634 1.377 . S
C635 C636 1.395 . S
C635 H658 0.931 . S
C636 C635 1.395 . S
C636 C637 1.383 . S
C636 H659 0.931 . S
C637 C636 1.383 . S
C637 C638 1.394 . S
C638 C637 1.394 . S
C638 C639 1.378 . S
C638 H660 0.931 . S
C639 C634 1.377 . S
C639 C638 1.378 . S
C639 H661 0.931 . S
C640 O650 1.259 . S
C640 O651 1.270 . S
C641 O652 1.251 . S
C641 O653 1.251 . S
O642 C622 1.257 . S
O642 Eu623 2.473 . S
O643 C622 1.260 . S
O643 Eu623 2.480 . S
O644 Eu623 2.430 . S
O644 C630 1.259 . S
O645 Eu623 2.670 . S
O645 C630 1.270 . S
O645 Eu633 2.355 . S
O646 Eu623 2.394 . S
O646 C631 1.251 . S
O647 C631 1.251 . S
O647 Eu633 2.374 . S
O648 C632 1.257 . S
O648 Eu633 2.473 . S
O649 C632 1.260 . S
O649 Eu633 2.480 . S
O650 Eu633 2.430 . S
O650 C640 1.259 . S
O651 Eu623 2.355 . S
O651 Eu633 2.670 . S
O651 C640 1.270 . S
O652 Eu633 2.394 . S
O652 C641 1.251 . S
O653 Eu623 2.374 . S
O653 C641 1.251 . S
H654 C625 0.931 . S
H655 C626 0.931 . S
H656 C628 0.931 . S
H657 C629 0.931 . S
H658 C635 0.931 . S
H659 C636 0.931 . S
H660 C638 0.931 . S
H661 C639 0.931 . S
C662 Eu663 2.835 . S
C662 C664 1.500 . S
C662 O682 1.257 . S
C662 O683 1.260 . S
Eu663 C662 2.835 . S
Eu663 O682 2.473 . S
Eu663 O683 2.480 . S
Eu663 O684 2.430 . S
Eu663 O685 2.670 . S
Eu663 O686 2.394 . S
Eu663 O691 2.355 . S
Eu663 O693 2.374 . S
C664 C662 1.500 . S
C664 C665 1.377 . S
C664 C669 1.377 . S
C665 C664 1.377 . S
C665 C666 1.395 . S
C665 H694 0.931 . S
C666 C665 1.395 . S
C666 C667 1.383 . S
C666 H695 0.931 . S
C667 C666 1.383 . S
C667 C668 1.394 . S
C668 C667 1.394 . S
C668 C669 1.378 . S
C668 H696 0.931 . S
C669 C664 1.377 . S
C669 C668 1.378 . S
C669 H697 0.931 . S
C670 O684 1.259 . S
C670 O685 1.270 . S
C671 O686 1.251 . S
C671 O687 1.251 . S
C672 Eu673 2.835 . S
C672 C674 1.500 . S
C672 O688 1.257 . S
C672 O689 1.260 . S
Eu673 C672 2.835 . S
Eu673 O685 2.355 . S
Eu673 O687 2.374 . S
Eu673 O688 2.473 . S
Eu673 O689 2.480 . S
Eu673 O690 2.430 . S
Eu673 O691 2.670 . S
Eu673 O692 2.394 . S
C674 C672 1.500 . S
C674 C675 1.377 . S
C674 C679 1.377 . S
C675 C674 1.377 . S
C675 C676 1.395 . S
C675 H698 0.931 . S
C676 C675 1.395 . S
C676 C677 1.383 . S
C676 H699 0.931 . S
C677 C676 1.383 . S
C677 C678 1.394 . S
C678 C677 1.394 . S
C678 C679 1.378 . S
C678 H700 0.931 . S
C679 C674 1.377 . S
C679 C678 1.378 . S
C679 H701 0.931 . S
C680 O690 1.259 . S
C680 O691 1.270 . S
C681 O692 1.251 . S
C681 O693 1.251 . S
O682 C662 1.257 . S
O682 Eu663 2.473 . S
O683 C662 1.260 . S
O683 Eu663 2.480 . S
O684 Eu663 2.430 . S
O684 C670 1.259 . S
O685 Eu663 2.670 . S
O685 C670 1.270 . S
O685 Eu673 2.355 . S
O686 Eu663 2.394 . S
O686 C671 1.251 . S
O687 C671 1.251 . S
O687 Eu673 2.374 . S
O688 C672 1.257 . S
O688 Eu673 2.473 . S
O689 C672 1.260 . S
O689 Eu673 2.480 . S
O690 Eu673 2.430 . S
O690 C680 1.259 . S
O691 Eu663 2.355 . S
O691 Eu673 2.670 . S
O691 C680 1.270 . S
O692 Eu673 2.394 . S
O692 C681 1.251 . S
O693 Eu663 2.374 . S
O693 C681 1.251 . S
H694 C665 0.931 . S
H695 C666 0.931 . S
H696 C668 0.931 . S
H697 C669 0.931 . S
H698 C675 0.931 . S
H699 C676 0.931 . S
H700 C678 0.931 . S
H701 C679 0.931 . S
H702 C714 0.930 . S
H703 C716 0.930 . S
H704 C717 0.930 . S
H705 C721 0.959 . S
H706 C721 0.959 . S
H707 C721 0.961 . S
H708 C722 0.960 . S
H709 C722 0.961 . S
H710 C722 0.959 . S
H711 C725 0.929 . S
H712 C726 0.931 . S
H713 C728 0.905 1_556 S
C714 H702 0.930 . S
C714 C715 1.399 . S
C714 C719 1.399 . S
C715 C714 1.399 . S
C715 C716 1.376 . S
C716 H703 0.930 . S
C716 C715 1.376 . S
C716 C717 1.388 . S
C717 H704 0.930 . S
C717 C716 1.388 . S
C717 C718 1.390 . S
C718 C717 1.390 . S
C718 C719 1.394 . S
C718 C724 1.465 . S
C719 C714 1.399 . S
C719 C718 1.394 . S
C719 C720 1.516 . S
C720 C719 1.516 . S
C720 C721 1.502 1_554 S
C720 C722 1.561 . S
C720 C723 1.526 . S
C721 H705 0.959 . S
C721 H706 0.959 . S
C721 H707 0.961 . S
C721 C720 1.502 1_556 S
C722 H708 0.960 . S
C722 H709 0.961 . S
C722 H710 0.959 . S
C722 C720 1.561 . S
C723 C720 1.526 . S
C723 C724 1.396 . S
C723 C728 1.390 . S
C724 C718 1.465 . S
C724 C723 1.396 . S
C724 C725 1.399 . S
C725 H711 0.929 . S
C725 C724 1.399 . S
C725 C726 1.385 . S
C726 H712 0.931 . S
C726 C725 1.385 . S
C726 C727 1.389 . S
C727 C726 1.389 . S
C727 C728 1.387 . S
C728 H713 0.905 1_554 S
C728 C723 1.390 . S
C728 C727 1.387 . S
H729 C741 0.930 . S
H730 C743 0.930 . S
H731 C744 0.930 . S
H732 C748 0.961 . S
H733 C748 0.943 1_556 S
H734 C748 0.955 1_556 S
H735 C749 0.960 . S
H736 C749 0.961 . S
H737 C749 0.959 . S
H738 C752 0.929 . S
H739 C753 0.931 . S
H740 C755 0.930 . S
C741 H729 0.930 . S
C741 C742 1.399 . S
C741 C746 1.399 . S
C742 C741 1.399 . S
C742 C743 1.376 . S
C743 H730 0.930 . S
C743 C742 1.376 . S
C743 C744 1.388 . S
C744 H731 0.930 . S
C744 C743 1.388 . S
C744 C745 1.390 . S
C745 C744 1.390 . S
C745 C746 1.394 . S
C745 C751 1.465 . S
C746 C741 1.399 . S
C746 C745 1.394 . S
C746 C747 1.516 . S
C747 C746 1.516 . S
C747 C748 1.524 . S
C747 C749 1.561 . S
C747 C750 1.526 . S
C748 H732 0.961 . S
C748 H733 0.943 1_554 S
C748 H734 0.955 1_554 S
C748 C747 1.524 . S
C749 H735 0.960 . S
C749 H736 0.961 . S
C749 H737 0.959 . S
C749 C747 1.561 . S
C750 C747 1.526 . S
C750 C751 1.396 . S
C750 C755 1.390 . S
C751 C745 1.465 . S
C751 C750 1.396 . S
C751 C752 1.399 . S
C752 H738 0.929 . S
C752 C751 1.399 . S
C752 C753 1.385 . S
C753 H739 0.931 . S
C753 C752 1.385 . S
C753 C754 1.389 . S
C754 C753 1.389 . S
C754 C755 1.387 . S
C755 H740 0.930 . S
C755 C750 1.390 . S
C755 C754 1.387 . S
H756 C768 0.930 . S
H757 C770 0.930 1_556 S
H758 C771 0.930 . S
H759 C775 0.959 . S
H760 C775 0.959 . S
H761 C775 0.961 . S
H762 C776 0.960 . S
H763 C776 0.961 . S
H764 C776 0.959 . S
H765 C779 0.929 . S
H766 C780 0.931 . S
H767 C782 0.930 . S
C768 H756 0.930 . S
C768 C769 1.399 . S
C768 C773 1.399 . S
C769 C768 1.399 . S
C769 C770 1.376 . S
C770 H757 0.930 1_554 S
C770 C769 1.376 . S
C770 C771 1.388 1_554 S
C771 H758 0.930 . S
C771 C770 1.388 1_556 S
C771 C772 1.390 1_556 S
C772 C771 1.390 1_554 S
C772 C773 1.394 . S
C772 C778 1.465 . S
C773 C768 1.399 . S
C773 C772 1.394 . S
C773 C774 1.516 . S
C774 C773 1.516 . S
C774 C775 1.502 . S
C774 C776 1.561 . S
C774 C777 1.526 . S
C775 H759 0.959 . S
C775 H760 0.959 . S
C775 H761 0.961 . S
C775 C774 1.502 . S
C776 H762 0.960 . S
C776 H763 0.961 . S
C776 H764 0.959 . S
C776 C774 1.561 . S
C777 C774 1.526 . S
C777 C778 1.396 . S
C777 C782 1.390 . S
C778 C772 1.465 . S
C778 C777 1.396 . S
C778 C779 1.399 1_554 S
C779 H765 0.929 . S
C779 C778 1.399 1_556 S
C779 C780 1.385 . S
C780 H766 0.931 . S
C780 C779 1.385 . S
C780 C781 1.389 1_556 S
C781 C780 1.389 1_554 S
C781 C782 1.387 . S
C782 H767 0.930 . S
C782 C777 1.390 . S
C782 C781 1.387 . S
H783 C795 0.930 . S
H784 C797 0.930 . S
H785 C798 0.930 . S
H786 C802 0.967 . S
H787 C802 0.959 . S
H788 C802 0.961 . S
H789 C803 0.960 . S
H790 C803 0.961 . S
H791 C803 0.959 . S
H792 C806 0.929 . S
H793 C807 0.931 . S
H794 C809 0.930 . S
C795 H783 0.930 . S
C795 C796 1.399 . S
C795 C800 1.399 . S
C796 C795 1.399 . S
C796 C797 1.376 . S
C797 H784 0.930 . S
C797 C796 1.376 . S
C797 C798 1.388 . S
C798 H785 0.930 . S
C798 C797 1.388 . S
C798 C799 1.390 . S
C799 C798 1.390 . S
C799 C800 1.394 . S
C799 C805 1.465 . S
C800 C795 1.399 . S
C800 C799 1.394 . S
C800 C801 1.516 1_556 S
C801 C800 1.516 1_554 S
C801 C802 1.502 . S
C801 C803 1.561 . S
C801 C804 1.526 1_554 S
C802 H786 0.967 . S
C802 H787 0.959 . S
C802 H788 0.961 . S
C802 C801 1.502 . S
C803 H789 0.960 . S
C803 H790 0.961 . S
C803 H791 0.959 . S
C803 C801 1.561 . S
C804 C801 1.526 1_556 S
C804 C805 1.396 . S
C804 C809 1.390 1_556 S
C805 C799 1.465 . S
C805 C804 1.396 . S
C805 C806 1.399 . S
C806 H792 0.929 . S
C806 C805 1.399 . S
C806 C807 1.385 . S
C807 H793 0.931 . S
C807 C806 1.385 . S
C807 C808 1.389 . S
C808 C807 1.389 . S
C808 C809 1.387 1_556 S
C809 H794 0.930 . S
C809 C804 1.390 1_554 S
C809 C808 1.387 1_554 S
H810 C822 0.930 . S
H811 C824 0.930 . S
H812 C825 0.930 . S
H813 C829 0.959 1_554 S
H814 C829 0.959 1_554 S
H815 C829 0.961 . S
H816 C830 0.960 . S
H817 C830 0.961 . S
H818 C830 0.959 . S
H819 C833 0.929 . S
H820 C834 0.931 . S
H821 C836 0.930 . S
C822 H810 0.930 . S
C822 C823 1.399 . S
C822 C827 1.399 . S
C823 C822 1.399 . S
C823 C824 1.376 . S
C824 H811 0.930 . S
C824 C823 1.376 . S
C824 C825 1.388 . S
C825 H812 0.930 . S
C825 C824 1.388 . S
C825 C826 1.390 . S
C826 C825 1.390 . S
C826 C827 1.394 . S
C826 C832 1.465 . S
C827 C822 1.399 . S
C827 C826 1.394 . S
C827 C828 1.516 . S
C828 C827 1.516 . S
C828 C829 1.502 . S
C828 C830 1.561 . S
C828 C831 1.526 . S
C829 H813 0.959 1_556 S
C829 H814 0.959 1_556 S
C829 H815 0.961 . S
C829 C828 1.502 . S
C830 H816 0.960 . S
C830 H817 0.961 . S
C830 H818 0.959 . S
C830 C828 1.561 . S
C831 C828 1.526 . S
C831 C832 1.396 . S
C831 C836 1.390 . S
C832 C826 1.465 . S
C832 C831 1.396 . S
C832 C833 1.399 . S
C833 H819 0.929 . S
C833 C832 1.399 . S
C833 C834 1.385 . S
C834 H820 0.931 . S
C834 C833 1.385 . S
C834 C835 1.389 . S
C835 C834 1.389 . S
C835 C836 1.387 . S
C836 H821 0.930 . S
C836 C831 1.390 . S
C836 C835 1.387 . S
H837 C849 0.933 1_554 S
H838 C851 0.930 . S
H839 C852 0.930 . S
H840 C856 0.959 . S
H841 C856 0.959 . S
H842 C856 0.961 . S
H843 C857 0.960 . S
H844 C857 0.961 . S
H845 C857 0.959 . S
H846 C860 0.929 . S
H847 C861 0.931 . S
H848 C863 0.930 . S
C849 H837 0.933 1_556 S
C849 C850 1.396 . S
C849 C854 1.401 . S
C850 C849 1.396 . S
C850 C851 1.376 . S
C851 H838 0.930 . S
C851 C850 1.376 . S
C851 C852 1.388 . S
C852 H839 0.930 . S
C852 C851 1.388 . S
C852 C853 1.390 . S
C853 C852 1.390 . S
C853 C854 1.435 . S
C853 C859 1.465 . S
C854 C849 1.401 . S
C854 C853 1.435 . S
C854 C855 1.479 1_556 S
C855 C854 1.479 1_554 S
C855 C856 1.502 . S
C855 C857 1.561 . S
C855 C858 1.526 . S
C856 H840 0.959 . S
C856 H841 0.959 . S
C856 H842 0.961 . S
C856 C855 1.502 . S
C857 H843 0.960 . S
C857 H844 0.961 . S
C857 H845 0.959 . S
C857 C855 1.561 . S
C858 C855 1.526 . S
C858 C859 1.396 1_554 S
C858 C863 1.390 . S
C859 C853 1.465 . S
C859 C858 1.396 1_556 S
C859 C860 1.399 . S
C860 H846 0.929 . S
C860 C859 1.399 . S
C860 C861 1.385 . S
C861 H847 0.931 . S
C861 C860 1.385 . S
C861 C862 1.389 . S
C862 C861 1.389 . S
C862 C863 1.387 1_556 S
C863 H848 0.930 . S
C863 C858 1.390 . S
C863 C862 1.387 1_554 S
H864 C876 0.930 . S
H865 C878 0.936 . S
H866 C879 0.930 . S
H867 C883 0.959 . S
H868 C883 0.959 . S
H869 C883 0.961 . S
H870 C884 0.960 . S
H871 C884 0.961 . S
H872 C884 0.959 . S
H873 C887 0.929 . S
H874 C888 0.931 . S
H875 C890 0.930 . S
C876 H864 0.930 . S
C876 C877 1.399 . S
C876 C881 1.399 . S
C877 C876 1.399 . S
C877 C878 1.366 1_556 S
C878 H865 0.936 . S
C878 C877 1.366 1_554 S
C878 C879 1.393 . S
C879 H866 0.930 . S
C879 C878 1.393 . S
C879 C880 1.390 1_554 S
C880 C879 1.390 1_556 S
C880 C881 1.394 . S
C880 C886 1.465 . S
C881 C876 1.399 . S
C881 C880 1.394 . S
C881 C882 1.516 . S
C882 C881 1.516 . S
C882 C883 1.502 . S
C882 C884 1.561 . S
C882 C885 1.526 . S
C883 H867 0.959 . S
C883 H868 0.959 . S
C883 H869 0.961 . S
C883 C882 1.502 . S
C884 H870 0.960 . S
C884 H871 0.961 . S
C884 H872 0.959 . S
C884 C882 1.561 . S
C885 C882 1.526 . S
C885 C886 1.396 . S
C885 C890 1.390 . S
C886 C880 1.465 . S
C886 C885 1.396 . S
C886 C887 1.399 1_556 S
C887 H873 0.929 . S
C887 C886 1.399 1_554 S
C887 C888 1.385 . S
C888 H874 0.931 . S
C888 C887 1.385 . S
C888 C889 1.389 1_554 S
C889 C888 1.389 1_556 S
C889 C890 1.387 . S
C890 H875 0.930 . S
C890 C885 1.390 . S
C890 C889 1.387 . S
H891 C903 0.930 . S
H892 C905 0.930 . S
H893 C906 0.930 1_554 S
H894 C910 0.959 . S
H895 C910 0.959 . S
H896 C910 0.961 . S
H897 C911 0.960 . S
H898 C911 0.961 . S
H899 C911 0.959 . S
H900 C914 0.909 1_554 S
H901 C915 0.931 1_554 S
H902 C917 0.930 . S
C903 H891 0.930 . S
C903 C904 1.399 . S
C903 C908 1.399 . S
C904 C903 1.399 . S
C904 C905 1.376 . S
C905 H892 0.930 . S
C905 C904 1.376 . S
C905 C906 1.388 . S
C906 H893 0.930 1_556 S
C906 C905 1.388 . S
C906 C907 1.390 . S
C907 C906 1.390 . S
C907 C908 1.394 . S
C907 C913 1.465 . S
C908 C903 1.399 . S
C908 C907 1.394 . S
C908 C909 1.516 . S
C909 C908 1.516 . S
C909 C910 1.502 . S
C909 C911 1.561 . S
C909 C912 1.526 . S
C910 H894 0.959 . S
C910 H895 0.959 . S
C910 H896 0.961 . S
C910 C909 1.502 . S
C911 H897 0.960 . S
C911 H898 0.961 . S
C911 H899 0.959 . S
C911 C909 1.561 . S
C912 C909 1.526 . S
C912 C913 1.396 . S
C912 C917 1.390 . S
C913 C907 1.465 . S
C913 C912 1.396 . S
C913 C914 1.418 . S
C914 H900 0.909 1_556 S
C914 C913 1.418 . S
C914 C915 1.387 . S
C915 H901 0.931 1_556 S
C915 C914 1.387 . S
C915 C916 1.389 . S
C916 C915 1.389 . S
C916 C917 1.387 . S
C917 H902 0.930 . S
C917 C912 1.390 . S
C917 C916 1.387 . S
H918 C930 0.930 . S
H919 C932 0.930 . S
H920 C933 0.930 . S
H921 C937 0.959 . S
H922 C937 0.959 . S
H923 C937 0.961 . S
H924 C938 0.960 . S
H925 C938 0.961 . S
H926 C938 0.959 . S
H927 C941 0.929 . S
H928 C942 0.931 . S
H929 C944 0.930 . S
C930 H918 0.930 . S
C930 C931 1.398 1_554 S
C930 C935 1.399 . S
C931 C930 1.398 1_556 S
C931 C932 1.377 . S
C932 H919 0.930 . S
C932 C931 1.377 . S
C932 C933 1.388 . S
C933 H920 0.930 . S
C933 C932 1.388 . S
C933 C934 1.390 . S
C934 C933 1.390 . S
C934 C935 1.394 1_556 S
C934 C940 1.465 . S
C935 C930 1.399 . S
C935 C934 1.394 1_554 S
C935 C936 1.516 . S
C936 C935 1.516 . S
C936 C937 1.502 . S
C936 C938 1.561 . S
C936 C939 1.526 . S
C937 H921 0.959 . S
C937 H922 0.959 . S
C937 H923 0.961 . S
C937 C936 1.502 . S
C938 H924 0.960 . S
C938 H925 0.961 . S
C938 H926 0.959 . S
C938 C936 1.561 . S
C939 C936 1.526 . S
C939 C940 1.396 1_554 S
C939 C944 1.390 . S
C940 C934 1.465 . S
C940 C939 1.396 1_556 S
C940 C941 1.399 . S
C941 H927 0.929 . S
C941 C940 1.399 . S
C941 C942 1.385 . S
C942 H928 0.931 . S
C942 C941 1.385 . S
C942 C943 1.389 1_556 S
C943 C942 1.389 1_554 S
C943 C944 1.387 . S
C944 H929 0.930 . S
C944 C939 1.390 . S
C944 C943 1.387 . S
H945 C957 0.930 1_556 S
H946 C959 0.930 . S
H947 C960 0.930 . S
H948 C964 0.959 . S
H949 C964 0.959 . S
H950 C964 0.961 . S
H951 C965 0.960 . S
H952 C965 0.961 . S
H953 C965 0.959 . S
H954 C968 0.929 . S
H955 C969 0.931 . S
H956 C971 0.930 . S
C957 H945 0.930 1_554 S
C957 C958 1.399 . S
C957 C962 1.399 . S
C958 C957 1.399 . S
C958 C959 1.376 . S
C959 H946 0.930 . S
C959 C958 1.376 . S
C959 C960 1.388 . S
C960 H947 0.930 . S
C960 C959 1.388 . S
C960 C961 1.390 . S
C961 C960 1.390 . S
C961 C962 1.394 . S
C961 C967 1.465 . S
C962 C957 1.399 . S
C962 C961 1.394 . S
C962 C963 1.516 1_554 S
C963 C962 1.516 1_556 S
C963 C964 1.502 . S
C963 C965 1.561 . S
C963 C966 1.526 1_556 S
C964 H948 0.959 . S
C964 H949 0.959 . S
C964 H950 0.961 . S
C964 C963 1.502 . S
C965 H951 0.960 . S
C965 H952 0.961 . S
C965 H953 0.959 . S
C965 C963 1.561 . S
C966 C963 1.526 1_554 S
C966 C967 1.396 . S
C966 C971 1.390 1_554 S
C967 C961 1.465 . S
C967 C966 1.396 . S
C967 C968 1.399 . S
C968 H954 0.929 . S
C968 C967 1.399 . S
C968 C969 1.385 . S
C969 H955 0.931 . S
C969 C968 1.385 . S
C969 C970 1.389 . S
C970 C969 1.389 . S
C970 C971 1.387 1_554 S
C971 H956 0.930 . S
C971 C966 1.390 1_556 S
C971 C970 1.387 1_556 S
H972 C984 0.930 . S
H973 C986 0.930 . S
H974 C987 0.930 . S
H975 C991 0.959 . S
H976 C991 0.959 . S
H977 C991 0.961 . S
H978 C992 0.960 . S
H979 C992 0.961 . S
H980 C992 0.959 . S
H981 C995 0.929 . S
H982 C996 0.931 . S
H983 C998 0.930 . S
C984 H972 0.930 . S
C984 C985 1.399 . S
C984 C989 1.399 . S
C985 C984 1.399 . S
C985 C986 1.376 . S
C986 H973 0.930 . S
C986 C985 1.376 . S
C986 C987 1.388 . S
C987 H974 0.930 . S
C987 C986 1.388 . S
C987 C988 1.390 . S
C988 C987 1.390 . S
C988 C989 1.394 . S
C988 C994 1.465 . S
C989 C984 1.399 . S
C989 C988 1.394 . S
C989 C990 1.516 . S
C990 C989 1.516 . S
C990 C991 1.502 . S
C990 C992 1.561 . S
C990 C993 1.526 . S
C991 H975 0.959 . S
C991 H976 0.959 . S
C991 H977 0.961 . S
C991 C990 1.502 . S
C992 H978 0.960 . S
C992 H979 0.961 . S
C992 H980 0.959 . S
C992 C990 1.561 . S
C993 C990 1.526 . S
C993 C994 1.396 . S
C993 C998 1.390 . S
C994 C988 1.465 . S
C994 C993 1.396 . S
C994 C995 1.399 . S
C995 H981 0.929 . S
C995 C994 1.399 . S
C995 C996 1.385 . S
C996 H982 0.931 . S
C996 C995 1.385 . S
C996 C997 1.389 . S
C997 C996 1.389 . S
C997 C998 1.387 . S
C998 H983 0.930 . S
C998 C993 1.390 . S
C998 C997 1.387 . S
H999 C1011 0.930 . S
H1000 C1013 0.930 . S
H1001 C1014 0.930 . S
H1002 C1018 0.959 . S
H1003 C1018 0.959 . S
H1004 C1018 0.961 . S
H1005 C1019 0.960 . S
H1006 C1019 0.961 . S
H1007 C1019 0.959 . S
H1008 C1022 0.929 . S
H1009 C1023 0.931 . S
H1010 C1025 0.930 . S
C1011 H999 0.930 . S
C1011 C1012 1.399 . S
C1011 C1016 1.399 . S
C1012 C1011 1.399 . S
C1012 C1013 1.376 1_554 S
C1013 H1000 0.930 . S
C1013 C1012 1.376 1_556 S
C1013 C1014 1.388 . S
C1014 H1001 0.930 . S
C1014 C1013 1.388 . S
C1014 C1015 1.390 1_556 S
C1015 C1014 1.390 1_554 S
C1015 C1016 1.394 . S
C1015 C1021 1.462 1_554 S
C1016 C1011 1.399 . S
C1016 C1015 1.394 . S
C1016 C1017 1.516 . S
C1017 C1016 1.516 . S
C1017 C1018 1.502 . S
C1017 C1019 1.561 . S
C1017 C1020 1.526 . S
C1018 H1002 0.959 . S
C1018 H1003 0.959 . S
C1018 H1004 0.961 . S
C1018 C1017 1.502 . S
C1019 H1005 0.960 . S
C1019 H1006 0.961 . S
C1019 H1007 0.959 . S
C1019 C1017 1.561 . S
C1020 C1017 1.526 . S
C1020 C1021 1.348 1_554 S
C1020 C1025 1.390 . S
C1021 C1015 1.462 1_556 S
C1021 C1020 1.348 1_556 S
C1021 C1022 1.442 . S
C1022 H1008 0.929 . S
C1022 C1021 1.442 . S
C1022 C1023 1.385 . S
C1023 H1009 0.931 . S
C1023 C1022 1.385 . S
C1023 C1024 1.389 1_556 S
C1024 C1023 1.389 1_554 S
C1024 C1025 1.387 . S
C1025 H1010 0.930 . S
C1025 C1020 1.390 . S
C1025 C1024 1.387 . S
H1026 C1038 0.930 . S
H1027 C1040 0.930 . S
H1028 C1041 0.930 . S
H1029 C1045 0.959 1_455 S
H1030 C1045 0.959 1_455 S
H1031 C1045 0.961 . S
H1032 C1046 0.960 . S
H1033 C1046 0.961 . S
H1034 C1046 0.959 . S
H1035 C1049 0.929 . S
H1036 C1050 0.931 . S
H1037 C1052 0.930 . S
C1038 H1026 0.930 . S
C1038 C1039 1.399 . S
C1038 C1043 1.399 . S
C1039 C1038 1.399 . S
C1039 C1040 1.376 . S
C1040 H1027 0.930 . S
C1040 C1039 1.376 . S
C1040 C1041 1.388 . S
C1041 H1028 0.930 . S
C1041 C1040 1.388 . S
C1041 C1042 1.390 . S
C1042 C1041 1.390 . S
C1042 C1043 1.394 . S
C1042 C1048 1.447 1_655 S
C1043 C1038 1.399 . S
C1043 C1042 1.394 . S
C1043 C1044 1.516 . S
C1044 C1043 1.516 . S
C1044 C1045 1.502 . S
C1044 C1046 1.561 . S
C1044 C1047 1.526 1_655 S
C1045 H1029 0.959 1_655 S
C1045 H1030 0.959 1_655 S
C1045 H1031 0.961 . S
C1045 C1044 1.502 . S
C1046 H1032 0.960 . S
C1046 H1033 0.961 . S
C1046 H1034 0.959 . S
C1046 C1044 1.561 . S
C1047 C1044 1.526 1_455 S
C1047 C1048 1.412 . S
C1047 C1052 1.390 . S
C1048 C1042 1.447 1_455 S
C1048 C1047 1.412 . S
C1048 C1049 1.403 . S
C1049 H1035 0.929 . S
C1049 C1048 1.403 . S
C1049 C1050 1.385 . S
C1050 H1036 0.931 . S
C1050 C1049 1.385 . S
C1050 C1051 1.389 . S
C1051 C1050 1.389 . S
C1051 C1052 1.387 . S
C1052 H1037 0.930 . S
C1052 C1047 1.390 . S
C1052 C1051 1.387 . S
H1053 C1065 0.930 . S
H1054 C1067 0.930 . S
H1055 C1068 0.930 . S
H1056 C1072 0.959 . S
H1057 C1072 0.959 . S
H1058 C1072 0.961 . S
H1059 C1073 0.960 . S
H1060 C1073 0.961 . S
H1061 C1073 0.959 . S
H1062 C1076 0.929 . S
H1063 C1077 0.931 . S
H1064 C1079 0.930 . S
C1065 H1053 0.930 . S
C1065 C1066 1.399 . S
C1065 C1070 1.399 . S
C1066 C1065 1.399 . S
C1066 C1067 1.376 . S
C1067 H1054 0.930 . S
C1067 C1066 1.376 . S
C1067 C1068 1.388 . S
C1068 H1055 0.930 . S
C1068 C1067 1.388 . S
C1068 C1069 1.390 . S
C1069 C1068 1.390 . S
C1069 C1070 1.394 . S
C1069 C1075 1.465 . S
C1070 C1065 1.399 . S
C1070 C1069 1.394 . S
C1070 C1071 1.516 . S
C1071 C1070 1.516 . S
C1071 C1072 1.502 . S
C1071 C1073 1.561 . S
C1071 C1074 1.526 . S
C1072 H1056 0.959 . S
C1072 H1057 0.959 . S
C1072 H1058 0.961 . S
C1072 C1071 1.502 . S
C1073 H1059 0.960 . S
C1073 H1060 0.961 . S
C1073 H1061 0.959 . S
C1073 C1071 1.561 . S
C1074 C1071 1.526 . S
C1074 C1075 1.396 . S
C1074 C1079 1.390 . S
C1075 C1069 1.465 . S
C1075 C1074 1.396 . S
C1075 C1076 1.399 . S
C1076 H1062 0.929 . S
C1076 C1075 1.399 . S
C1076 C1077 1.385 . S
C1077 H1063 0.931 . S
C1077 C1076 1.385 . S
C1077 C1078 1.389 . S
C1078 C1077 1.389 . S
C1078 C1079 1.387 . S
C1079 H1064 0.930 . S
C1079 C1074 1.390 . S
C1079 C1078 1.387 . S
H1080 C1092 0.930 . S
H1081 C1094 0.930 . S
H1082 C1095 0.930 . S
H1083 C1099 0.959 . S
H1084 C1099 0.959 1_565 S
H1085 C1099 0.961 . S
H1086 C1100 0.960 . S
H1087 C1100 0.961 . S
H1088 C1100 0.959 . S
H1089 C1103 0.929 1_545 S
H1090 C1104 0.931 . S
H1091 C1106 0.930 . S
C1092 H1080 0.930 . S
C1092 C1093 1.399 . S
C1092 C1097 1.399 . S
C1093 C1092 1.399 . S
C1093 C1094 1.376 . S
C1094 H1081 0.930 . S
C1094 C1093 1.376 . S
C1094 C1095 1.388 . S
C1095 H1082 0.930 . S
C1095 C1094 1.388 . S
C1095 C1096 1.390 . S
C1096 C1095 1.390 . S
C1096 C1097 1.394 . S
C1096 C1102 1.465 . S
C1097 C1092 1.399 . S
C1097 C1096 1.394 . S
C1097 C1098 1.516 . S
C1098 C1097 1.516 . S
C1098 C1099 1.502 . S
C1098 C1100 1.561 . S
C1098 C1101 1.517 1_545 S
C1099 H1083 0.959 . S
C1099 H1084 0.959 1_545 S
C1099 H1085 0.961 . S
C1099 C1098 1.502 . S
C1100 H1086 0.960 . S
C1100 H1087 0.961 . S
C1100 H1088 0.959 . S
C1100 C1098 1.561 . S
C1101 C1098 1.517 1_565 S
C1101 C1102 1.394 1_565 S
C1101 C1106 1.399 . S
C1102 C1096 1.465 . S
C1102 C1101 1.394 1_545 S
C1102 C1103 1.399 1_545 S
C1103 H1089 0.929 1_565 S
C1103 C1102 1.399 1_565 S
C1103 C1104 1.385 . S
C1104 H1090 0.931 . S
C1104 C1103 1.385 . S
C1104 C1105 1.389 . S
C1105 C1104 1.389 . S
C1105 C1106 1.387 . S
C1106 H1091 0.930 . S
C1106 C1101 1.399 . S
C1106 C1105 1.387 . S
H1107 C1119 0.930 . S
H1108 C1121 0.930 . S
H1109 C1122 0.930 . S
H1110 C1126 0.959 . S
H1111 C1126 0.959 . S
H1112 C1126 0.961 . S
H1113 C1127 0.960 . S
H1114 C1127 0.961 . S
H1115 C1127 0.959 . S
H1116 C1130 0.929 . S
H1117 C1131 0.931 . S
H1118 C1133 0.930 . S
C1119 H1107 0.930 . S
C1119 C1120 1.399 . S
C1119 C1124 1.399 . S
C1120 C1119 1.399 . S
C1120 C1121 1.376 . S
C1121 H1108 0.930 . S
C1121 C1120 1.376 . S
C1121 C1122 1.388 . S
C1122 H1109 0.930 . S
C1122 C1121 1.388 . S
C1122 C1123 1.390 . S
C1123 C1122 1.390 . S
C1123 C1124 1.394 . S
C1123 C1129 1.465 . S
C1124 C1119 1.399 . S
C1124 C1123 1.394 . S
C1124 C1125 1.516 . S
C1125 C1124 1.516 . S
C1125 C1126 1.502 . S
C1125 C1127 1.561 . S
C1125 C1128 1.526 . S
C1126 H1110 0.959 . S
C1126 H1111 0.959 . S
C1126 H1112 0.961 . S
C1126 C1125 1.502 . S
C1127 H1113 0.960 . S
C1127 H1114 0.961 . S
C1127 H1115 0.959 . S
C1127 C1125 1.561 . S
C1128 C1125 1.526 . S
C1128 C1129 1.396 . S
C1128 C1133 1.390 . S
C1129 C1123 1.465 . S
C1129 C1128 1.396 . S
C1129 C1130 1.399 . S
C1130 H1116 0.929 . S
C1130 C1129 1.399 . S
C1130 C1131 1.385 . S
C1131 H1117 0.931 . S
C1131 C1130 1.385 . S
C1131 C1132 1.389 . S
C1132 C1131 1.389 . S
C1132 C1133 1.387 . S
C1133 H1118 0.930 . S
C1133 C1128 1.390 . S
C1133 C1132 1.387 . S
H1134 C1146 0.930 . S
H1135 C1148 0.930 . S
H1136 C1149 0.930 . S
H1137 C1153 0.959 . S
H1138 C1153 0.959 . S
H1139 C1153 0.961 . S
H1140 C1154 0.960 . S
H1141 C1154 0.961 . S
H1142 C1154 0.959 . S
H1143 C1157 0.929 . S
H1144 C1158 0.931 . S
H1145 C1160 0.930 . S
C1146 H1134 0.930 . S
C1146 C1147 1.399 . S
C1146 C1151 1.399 . S
C1147 C1146 1.399 . S
C1147 C1148 1.376 . S
C1148 H1135 0.930 . S
C1148 C1147 1.376 . S
C1148 C1149 1.388 . S
C1149 H1136 0.930 . S
C1149 C1148 1.388 . S
C1149 C1150 1.390 . S
C1150 C1149 1.390 . S
C1150 C1151 1.394 . S
C1150 C1156 1.465 . S
C1151 C1146 1.399 . S
C1151 C1150 1.394 . S
C1151 C1152 1.516 . S
C1152 C1151 1.516 . S
C1152 C1153 1.502 . S
C1152 C1154 1.561 . S
C1152 C1155 1.526 . S
C1153 H1137 0.959 . S
C1153 H1138 0.959 . S
C1153 H1139 0.961 . S
C1153 C1152 1.502 . S
C1154 H1140 0.960 . S
C1154 H1141 0.961 . S
C1154 H1142 0.959 . S
C1154 C1152 1.561 . S
C1155 C1152 1.526 . S
C1155 C1156 1.396 . S
C1155 C1160 1.390 . S
C1156 C1150 1.465 . S
C1156 C1155 1.396 . S
C1156 C1157 1.399 . S
C1157 H1143 0.929 . S
C1157 C1156 1.399 . S
C1157 C1158 1.385 . S
C1158 H1144 0.931 . S
C1158 C1157 1.385 . S
C1158 C1159 1.389 . S
C1159 C1158 1.389 . S
C1159 C1160 1.387 . S
C1160 H1145 0.930 . S
C1160 C1155 1.390 . S
C1160 C1159 1.387 . S
H1161 C1173 0.930 . S
H1162 C1175 0.930 . S
H1163 C1176 0.930 . S
H1164 C1180 0.959 . S
H1165 C1180 0.959 . S
H1166 C1180 0.961 . S
H1167 C1181 0.960 . S
H1168 C1181 0.961 . S
H1169 C1181 0.959 . S
H1170 C1184 0.929 . S
H1171 C1185 0.931 . S
H1172 C1187 0.930 . S
C1173 H1161 0.930 . S
C1173 C1174 1.399 . S
C1173 C1178 1.399 . S
C1174 C1173 1.399 . S
C1174 C1175 1.376 . S
C1175 H1162 0.930 . S
C1175 C1174 1.376 . S
C1175 C1176 1.388 . S
C1176 H1163 0.930 . S
C1176 C1175 1.388 . S
C1176 C1177 1.390 . S
C1177 C1176 1.390 . S
C1177 C1178 1.394 . S
C1177 C1183 1.465 . S
C1178 C1173 1.399 . S
C1178 C1177 1.394 . S
C1178 C1179 1.516 . S
C1179 C1178 1.516 . S
C1179 C1180 1.502 . S
C1179 C1181 1.561 . S
C1179 C1182 1.526 . S
C1180 H1164 0.959 . S
C1180 H1165 0.959 . S
C1180 H1166 0.961 . S
C1180 C1179 1.502 . S
C1181 H1167 0.960 . S
C1181 H1168 0.961 . S
C1181 H1169 0.959 . S
C1181 C1179 1.561 . S
C1182 C1179 1.526 . S
C1182 C1183 1.396 . S
C1182 C1187 1.390 . S
C1183 C1177 1.465 . S
C1183 C1182 1.396 . S
C1183 C1184 1.399 . S
C1184 H1170 0.929 . S
C1184 C1183 1.399 . S
C1184 C1185 1.385 . S
C1185 H1171 0.931 . S
C1185 C1184 1.385 . S
C1185 C1186 1.389 . S
C1186 C1185 1.389 . S
C1186 C1187 1.387 . S
C1187 H1172 0.930 . S
C1187 C1182 1.390 . S
C1187 C1186 1.387 . S
H1188 C1200 0.930 . S
H1189 C1202 0.930 . S
H1190 C1203 0.930 . S
H1191 C1207 0.959 . S
H1192 C1207 0.959 . S
H1193 C1207 0.961 . S
H1194 C1208 0.960 . S
H1195 C1208 0.961 . S
H1196 C1208 0.959 . S
H1197 C1211 0.929 . S
H1198 C1212 0.931 . S
H1199 C1214 0.930 . S
C1200 H1188 0.930 . S
C1200 C1201 1.399 . S
C1200 C1205 1.399 . S
C1201 C1200 1.399 . S
C1201 C1202 1.376 . S
C1202 H1189 0.930 . S
C1202 C1201 1.376 . S
C1202 C1203 1.388 . S
C1203 H1190 0.930 . S
C1203 C1202 1.388 . S
C1203 C1204 1.390 . S
C1204 C1203 1.390 . S
C1204 C1205 1.394 . S
C1204 C1210 1.465 . S
C1205 C1200 1.399 . S
C1205 C1204 1.394 . S
C1205 C1206 1.516 . S
C1206 C1205 1.516 . S
C1206 C1207 1.502 . S
C1206 C1208 1.561 . S
C1206 C1209 1.526 . S
C1207 H1191 0.959 . S
C1207 H1192 0.959 . S
C1207 H1193 0.961 . S
C1207 C1206 1.502 . S
C1208 H1194 0.960 . S
C1208 H1195 0.961 . S
C1208 H1196 0.959 . S
C1208 C1206 1.561 . S
C1209 C1206 1.526 . S
C1209 C1210 1.396 . S
C1209 C1214 1.390 . S
C1210 C1204 1.465 . S
C1210 C1209 1.396 . S
C1210 C1211 1.399 . S
C1211 H1197 0.929 . S
C1211 C1210 1.399 . S
C1211 C1212 1.385 . S
C1212 H1198 0.931 . S
C1212 C1211 1.385 . S
C1212 C1213 1.389 . S
C1213 C1212 1.389 . S
C1213 C1214 1.387 . S
C1214 H1199 0.930 . S
C1214 C1209 1.390 . S
C1214 C1213 1.387 . S
H1215 C1227 0.930 . S
H1216 C1229 0.930 . S
H1217 C1230 0.930 . S
H1218 C1234 0.959 . S
H1219 C1234 0.959 . S
H1220 C1234 0.961 . S
H1221 C1235 0.960 . S
H1222 C1235 0.961 . S
H1223 C1235 0.959 . S
H1224 C1238 0.929 . S
H1225 C1239 0.931 . S
H1226 C1241 0.930 . S
C1227 H1215 0.930 . S
C1227 C1228 1.399 . S
C1227 C1232 1.399 . S
C1228 C1227 1.399 . S
C1228 C1229 1.376 . S
C1229 H1216 0.930 . S
C1229 C1228 1.376 . S
C1229 C1230 1.388 . S
C1230 H1217 0.930 . S
C1230 C1229 1.388 . S
C1230 C1231 1.390 . S
C1231 C1230 1.390 . S
C1231 C1232 1.394 . S
C1231 C1237 1.465 . S
C1232 C1227 1.399 . S
C1232 C1231 1.394 . S
C1232 C1233 1.516 . S
C1233 C1232 1.516 . S
C1233 C1234 1.502 . S
C1233 C1235 1.561 . S
C1233 C1236 1.526 . S
C1234 H1218 0.959 . S
C1234 H1219 0.959 . S
C1234 H1220 0.961 . S
C1234 C1233 1.502 . S
C1235 H1221 0.960 . S
C1235 H1222 0.961 . S
C1235 H1223 0.959 . S
C1235 C1233 1.561 . S
C1236 C1233 1.526 . S
C1236 C1237 1.396 . S
C1236 C1241 1.390 . S
C1237 C1231 1.465 . S
C1237 C1236 1.396 . S
C1237 C1238 1.399 . S
C1238 H1224 0.929 . S
C1238 C1237 1.399 . S
C1238 C1239 1.385 . S
C1239 H1225 0.931 . S
C1239 C1238 1.385 . S
C1239 C1240 1.389 . S
C1240 C1239 1.389 . S
C1240 C1241 1.387 . S
C1241 H1226 0.930 . S
C1241 C1236 1.390 . S
C1241 C1240 1.387 . S
H1242 C1254 0.930 . S
H1243 C1256 0.930 . S
H1244 C1257 0.930 . S
H1245 C1261 0.959 . S
H1246 C1261 0.959 . S
H1247 C1261 0.961 . S
H1248 C1262 0.960 . S
H1249 C1262 0.961 . S
H1250 C1262 0.959 . S
H1251 C1265 0.929 . S
H1252 C1266 0.931 . S
H1253 C1268 0.930 . S
C1254 H1242 0.930 . S
C1254 C1255 1.399 . S
C1254 C1259 1.399 . S
C1255 C1254 1.399 . S
C1255 C1256 1.376 . S
C1256 H1243 0.930 . S
C1256 C1255 1.376 . S
C1256 C1257 1.388 . S
C1257 H1244 0.930 . S
C1257 C1256 1.388 . S
C1257 C1258 1.390 . S
C1258 C1257 1.390 . S
C1258 C1259 1.394 . S
C1258 C1264 1.465 . S
C1259 C1254 1.399 . S
C1259 C1258 1.394 . S
C1259 C1260 1.516 . S
C1260 C1259 1.516 . S
C1260 C1261 1.502 . S
C1260 C1262 1.561 . S
C1260 C1263 1.526 . S
C1261 H1245 0.959 . S
C1261 H1246 0.959 . S
C1261 H1247 0.961 . S
C1261 C1260 1.502 . S
C1262 H1248 0.960 . S
C1262 H1249 0.961 . S
C1262 H1250 0.959 . S
C1262 C1260 1.561 . S
C1263 C1260 1.526 . S
C1263 C1264 1.396 . S
C1263 C1268 1.390 . S
C1264 C1258 1.465 . S
C1264 C1263 1.396 . S
C1264 C1265 1.399 . S
C1265 H1251 0.929 . S
C1265 C1264 1.399 . S
C1265 C1266 1.385 . S
C1266 H1252 0.931 . S
C1266 C1265 1.385 . S
C1266 C1267 1.389 . S
C1267 C1266 1.389 . S
C1267 C1268 1.387 . S
C1268 H1253 0.930 . S
C1268 C1263 1.390 . S
C1268 C1267 1.387 . S
H1269 C1281 0.930 . S
H1270 C1283 0.956 . S
H1271 C1284 0.930 . S
H1272 C1288 0.959 . S
H1273 C1288 0.959 . S
H1274 C1288 0.961 . S
H1275 C1289 0.960 . S
H1276 C1289 0.961 . S
H1277 C1289 0.959 . S
H1278 C1292 0.929 . S
H1279 C1293 0.931 . S
H1280 C1295 0.930 . S
C1281 H1269 0.930 . S
C1281 C1282 1.399 1_565 S
C1281 C1286 1.399 . S
C1282 C1281 1.399 1_545 S
C1282 C1283 1.379 . S
C1283 H1270 0.956 . S
C1283 C1282 1.379 . S
C1283 C1284 1.361 1_545 S
C1284 H1271 0.930 . S
C1284 C1283 1.361 1_565 S
C1284 C1285 1.390 . S
C1285 C1284 1.390 . S
C1285 C1286 1.394 . S
C1285 C1291 1.465 . S
C1286 C1281 1.399 . S
C1286 C1285 1.394 . S
C1286 C1287 1.516 . S
C1287 C1286 1.516 . S
C1287 C1288 1.502 . S
C1287 C1289 1.561 . S
C1287 C1290 1.526 . S
C1288 H1272 0.959 . S
C1288 H1273 0.959 . S
C1288 H1274 0.961 . S
C1288 C1287 1.502 . S
C1289 H1275 0.960 . S
C1289 H1276 0.961 . S
C1289 H1277 0.959 . S
C1289 C1287 1.561 . S
C1290 C1287 1.526 . S
C1290 C1291 1.396 . S
C1290 C1295 1.390 . S
C1291 C1285 1.465 . S
C1291 C1290 1.396 . S
C1291 C1292 1.399 . S
C1292 H1278 0.929 . S
C1292 C1291 1.399 . S
C1292 C1293 1.385 . S
C1293 H1279 0.931 . S
C1293 C1292 1.385 . S
C1293 C1294 1.389 . S
C1294 C1293 1.389 . S
C1294 C1295 1.387 . S
C1295 H1280 0.930 . S
C1295 C1290 1.390 . S
C1295 C1294 1.387 . S
H1296 C1308 0.930 . S
H1297 C1310 0.919 1_655 S
H1298 C1311 0.930 . S
H1299 C1315 0.959 . S
H1300 C1315 0.959 . S
H1301 C1315 0.961 . S
H1302 C1316 0.960 . S
H1303 C1316 0.961 . S
H1304 C1316 0.959 . S
H1305 C1319 0.929 . S
H1306 C1320 0.931 . S
H1307 C1322 0.930 . S
C1308 H1296 0.930 . S
C1308 C1309 1.399 . S
C1308 C1313 1.399 . S
C1309 C1308 1.399 . S
C1309 C1310 1.376 . S
C1310 H1297 0.919 1_455 S
C1310 C1309 1.376 . S
C1310 C1311 1.388 . S
C1311 H1298 0.930 . S
C1311 C1310 1.388 . S
C1311 C1312 1.390 . S
C1312 C1311 1.390 . S
C1312 C1313 1.394 . S
C1312 C1318 1.465 . S
C1313 C1308 1.399 . S
C1313 C1312 1.394 . S
C1313 C1314 1.516 . S
C1314 C1313 1.516 . S
C1314 C1315 1.502 . S
C1314 C1316 1.561 . S
C1314 C1317 1.526 . S
C1315 H1299 0.959 . S
C1315 H1300 0.959 . S
C1315 H1301 0.961 . S
C1315 C1314 1.502 . S
C1316 H1302 0.960 . S
C1316 H1303 0.961 . S
C1316 H1304 0.959 . S
C1316 C1314 1.561 . S
C1317 C1314 1.526 . S
C1317 C1318 1.396 . S
C1317 C1322 1.390 . S
C1318 C1312 1.465 . S
C1318 C1317 1.396 . S
C1318 C1319 1.399 . S
C1319 H1305 0.929 . S
C1319 C1318 1.399 . S
C1319 C1320 1.385 . S
C1320 H1306 0.931 . S
C1320 C1319 1.385 . S
C1320 C1321 1.389 . S
C1321 C1320 1.389 . S
C1321 C1322 1.387 . S
C1322 H1307 0.930 . S
C1322 C1317 1.390 . S
C1322 C1321 1.387 . S
H1323 C1335 0.930 . S
H1324 C1337 0.930 . S
H1325 C1338 0.930 . S
H1326 C1342 0.959 . S
H1327 C1342 0.959 . S
H1328 C1342 0.961 . S
H1329 C1343 0.960 . S
H1330 C1343 0.961 . S
H1331 C1343 0.959 . S
H1332 C1346 0.929 . S
H1333 C1347 0.931 . S
H1334 C1349 0.930 . S
C1335 H1323 0.930 . S
C1335 C1336 1.399 . S
C1335 C1340 1.399 . S
C1336 C1335 1.399 . S
C1336 C1337 1.376 . S
C1337 H1324 0.930 . S
C1337 C1336 1.376 . S
C1337 C1338 1.388 . S
C1338 H1325 0.930 . S
C1338 C1337 1.388 . S
C1338 C1339 1.390 . S
C1339 C1338 1.390 . S
C1339 C1340 1.394 . S
C1339 C1345 1.465 . S
C1340 C1335 1.399 . S
C1340 C1339 1.394 . S
C1340 C1341 1.516 . S
C1341 C1340 1.516 . S
C1341 C1342 1.502 . S
C1341 C1343 1.561 . S
C1341 C1344 1.526 . S
C1342 H1326 0.959 . S
C1342 H1327 0.959 . S
C1342 H1328 0.961 . S
C1342 C1341 1.502 . S
C1343 H1329 0.960 . S
C1343 H1330 0.961 . S
C1343 H1331 0.959 . S
C1343 C1341 1.561 . S
C1344 C1341 1.526 . S
C1344 C1345 1.396 . S
C1344 C1349 1.390 . S
C1345 C1339 1.465 . S
C1345 C1344 1.396 . S
C1345 C1346 1.399 . S
C1346 H1332 0.929 . S
C1346 C1345 1.399 . S
C1346 C1347 1.385 . S
C1347 H1333 0.931 . S
C1347 C1346 1.385 . S
C1347 C1348 1.389 . S
C1348 C1347 1.389 . S
C1348 C1349 1.387 . S
C1349 H1334 0.930 . S
C1349 C1344 1.390 . S
C1349 C1348 1.387 . S
H1350 C1362 0.930 . S
H1351 C1364 0.930 . S
H1352 C1365 0.930 . S
H1353 C1369 0.959 . S
H1354 C1369 0.959 . S
H1355 C1369 0.961 . S
H1356 C1370 0.960 . S
H1357 C1370 0.961 . S
H1358 C1370 0.959 . S
H1359 C1373 0.929 . S
H1360 C1374 0.931 . S
H1361 C1376 0.930 . S
C1362 H1350 0.930 . S
C1362 C1363 1.399 . S
C1362 C1367 1.399 . S
C1363 C1362 1.399 . S
C1363 C1364 1.376 . S
C1364 H1351 0.930 . S
C1364 C1363 1.376 . S
C1364 C1365 1.388 . S
C1365 H1352 0.930 . S
C1365 C1364 1.388 . S
C1365 C1366 1.390 . S
C1366 C1365 1.390 . S
C1366 C1367 1.394 . S
C1366 C1372 1.465 . S
C1367 C1362 1.399 . S
C1367 C1366 1.394 . S
C1367 C1368 1.516 . S
C1368 C1367 1.516 . S
C1368 C1369 1.502 . S
C1368 C1370 1.561 . S
C1368 C1371 1.526 . S
C1369 H1353 0.959 . S
C1369 H1354 0.959 . S
C1369 H1355 0.961 . S
C1369 C1368 1.502 . S
C1370 H1356 0.960 . S
C1370 H1357 0.961 . S
C1370 H1358 0.959 . S
C1370 C1368 1.561 . S
C1371 C1368 1.526 . S
C1371 C1372 1.396 . S
C1371 C1376 1.390 . S
C1372 C1366 1.465 . S
C1372 C1371 1.396 . S
C1372 C1373 1.399 . S
C1373 H1359 0.929 . S
C1373 C1372 1.399 . S
C1373 C1374 1.385 . S
C1374 H1360 0.931 . S
C1374 C1373 1.385 . S
C1374 C1375 1.389 . S
C1375 C1374 1.389 . S
C1375 C1376 1.387 . S
C1376 H1361 0.930 . S
C1376 C1371 1.390 . S
C1376 C1375 1.387 . S
H1377 C1389 0.930 . S
H1378 C1391 0.930 . S
H1379 C1392 0.930 . S
H1380 C1396 0.959 . S
H1381 C1396 0.959 . S
H1382 C1396 0.961 . S
H1383 C1397 0.960 . S
H1384 C1397 0.961 . S
H1385 C1397 0.959 . S
H1386 C1400 0.929 . S
H1387 C1401 0.931 . S
H1388 C1403 0.930 . S
C1389 H1377 0.930 . S
C1389 C1390 1.399 . S
C1389 C1394 1.399 . S
C1390 C1389 1.399 . S
C1390 C1391 1.376 . S
C1391 H1378 0.930 . S
C1391 C1390 1.376 . S
C1391 C1392 1.388 . S
C1392 H1379 0.930 . S
C1392 C1391 1.388 . S
C1392 C1393 1.390 . S
C1393 C1392 1.390 . S
C1393 C1394 1.394 . S
C1393 C1399 1.465 . S
C1394 C1389 1.399 . S
C1394 C1393 1.394 . S
C1394 C1395 1.516 . S
C1395 C1394 1.516 . S
C1395 C1396 1.502 . S
C1395 C1397 1.561 . S
C1395 C1398 1.526 . S
C1396 H1380 0.959 . S
C1396 H1381 0.959 . S
C1396 H1382 0.961 . S
C1396 C1395 1.502 . S
C1397 H1383 0.960 . S
C1397 H1384 0.961 . S
C1397 H1385 0.959 . S
C1397 C1395 1.561 . S
C1398 C1395 1.526 . S
C1398 C1399 1.396 . S
C1398 C1403 1.390 . S
C1399 C1393 1.465 . S
C1399 C1398 1.396 . S
C1399 C1400 1.399 . S
C1400 H1386 0.929 . S
C1400 C1399 1.399 . S
C1400 C1401 1.385 . S
C1401 H1387 0.931 . S
C1401 C1400 1.385 . S
C1401 C1402 1.389 . S
C1402 C1401 1.389 . S
C1402 C1403 1.387 . S
C1403 H1388 0.930 . S
C1403 C1398 1.390 . S
C1403 C1402 1.387 . S
H1404 C1416 0.930 . S
H1405 C1418 0.930 . S
H1406 C1419 0.930 . S
H1407 C1423 0.959 . S
H1408 C1423 0.959 . S
H1409 C1423 0.961 . S
H1410 C1424 0.960 . S
H1411 C1424 0.961 . S
H1412 C1424 0.959 . S
H1413 C1427 0.929 . S
H1414 C1428 0.931 . S
H1415 C1430 0.930 . S
C1416 H1404 0.930 . S
C1416 C1417 1.399 . S
C1416 C1421 1.399 . S
C1417 C1416 1.399 . S
C1417 C1418 1.376 . S
C1418 H1405 0.930 . S
C1418 C1417 1.376 . S
C1418 C1419 1.388 . S
C1419 H1406 0.930 . S
C1419 C1418 1.388 . S
C1419 C1420 1.390 . S
C1420 C1419 1.390 . S
C1420 C1421 1.394 . S
C1420 C1426 1.465 . S
C1421 C1416 1.399 . S
C1421 C1420 1.394 . S
C1421 C1422 1.516 . S
C1422 C1421 1.516 . S
C1422 C1423 1.502 . S
C1422 C1424 1.561 . S
C1422 C1425 1.526 . S
C1423 H1407 0.959 . S
C1423 H1408 0.959 . S
C1423 H1409 0.961 . S
C1423 C1422 1.502 . S
C1424 H1410 0.960 . S
C1424 H1411 0.961 . S
C1424 H1412 0.959 . S
C1424 C1422 1.561 . S
C1425 C1422 1.526 . S
C1425 C1426 1.396 . S
C1425 C1430 1.390 . S
C1426 C1420 1.465 . S
C1426 C1425 1.396 . S
C1426 C1427 1.399 . S
C1427 H1413 0.929 . S
C1427 C1426 1.399 . S
C1427 C1428 1.385 . S
C1428 H1414 0.931 . S
C1428 C1427 1.385 . S
C1428 C1429 1.389 . S
C1429 C1428 1.389 . S
C1429 C1430 1.387 . S
C1430 H1415 0.930 . S
C1430 C1425 1.390 . S
C1430 C1429 1.387 . S
H1431 C1443 0.930 . S
H1432 C1445 0.930 . S
H1433 C1446 0.930 . S
H1434 C1450 0.959 . S
H1435 C1450 0.949 1_545 S
H1436 C1450 0.961 . S
H1437 C1451 0.960 1_565 S
H1438 C1451 0.961 . S
H1439 C1451 0.959 . S
H1440 C1454 0.929 . S
H1441 C1455 0.931 . S
H1442 C1457 0.930 . S
C1443 H1431 0.930 . S
C1443 C1444 1.399 . S
C1443 C1448 1.399 . S
C1444 C1443 1.399 . S
C1444 C1445 1.376 . S
C1445 H1432 0.930 . S
C1445 C1444 1.376 . S
C1445 C1446 1.388 . S
C1446 H1433 0.930 . S
C1446 C1445 1.388 . S
C1446 C1447 1.390 . S
C1447 C1446 1.390 . S
C1447 C1448 1.394 . S
C1447 C1453 1.465 1_565 S
C1448 C1443 1.399 . S
C1448 C1447 1.394 . S
C1448 C1449 1.516 . S
C1449 C1448 1.516 . S
C1449 C1450 1.502 . S
C1449 C1451 1.561 1_565 S
C1449 C1452 1.526 1_565 S
C1450 H1434 0.959 . S
C1450 H1435 0.949 1_565 S
C1450 H1436 0.961 . S
C1450 C1449 1.502 . S
C1451 H1437 0.960 1_545 S
C1451 H1438 0.961 . S
C1451 H1439 0.959 . S
C1451 C1449 1.561 1_545 S
C1452 C1449 1.526 1_545 S
C1452 C1453 1.396 . S
C1452 C1457 1.390 . S
C1453 C1447 1.465 1_545 S
C1453 C1452 1.396 . S
C1453 C1454 1.399 . S
C1454 H1440 0.929 . S
C1454 C1453 1.399 . S
C1454 C1455 1.385 . S
C1455 H1441 0.931 . S
C1455 C1454 1.385 . S
C1455 C1456 1.389 . S
C1456 C1455 1.389 . S
C1456 C1457 1.387 . S
C1457 H1442 0.930 . S
C1457 C1452 1.390 . S
C1457 C1456 1.387 . S
H1458 C1470 0.930 . S
H1459 C1472 0.930 . S
H1460 C1473 0.930 1_655 S
H1461 C1477 0.959 . S
H1462 C1477 0.959 . S
H1463 C1477 0.961 . S
H1464 C1478 0.960 . S
H1465 C1478 0.961 . S
H1466 C1478 0.959 . S
H1467 C1481 0.929 . S
H1468 C1482 0.931 . S
H1469 C1484 0.930 . S
C1470 H1458 0.930 . S
C1470 C1471 1.399 . S
C1470 C1475 1.399 . S
C1471 C1470 1.399 . S
C1471 C1472 1.376 . S
C1472 H1459 0.930 . S
C1472 C1471 1.376 . S
C1472 C1473 1.388 . S
C1473 H1460 0.930 1_455 S
C1473 C1472 1.388 . S
C1473 C1474 1.390 . S
C1474 C1473 1.390 . S
C1474 C1475 1.394 . S
C1474 C1480 1.465 1_455 S
C1475 C1470 1.399 . S
C1475 C1474 1.394 . S
C1475 C1476 1.516 . S
C1476 C1475 1.516 . S
C1476 C1477 1.502 . S
C1476 C1478 1.561 . S
C1476 C1479 1.526 1_455 S
C1477 H1461 0.959 . S
C1477 H1462 0.959 . S
C1477 H1463 0.961 . S
C1477 C1476 1.502 . S
C1478 H1464 0.960 . S
C1478 H1465 0.961 . S
C1478 H1466 0.959 . S
C1478 C1476 1.561 . S
C1479 C1476 1.526 1_655 S
C1479 C1480 1.396 . S
C1479 C1484 1.390 . S
C1480 C1474 1.465 1_655 S
C1480 C1479 1.396 . S
C1480 C1481 1.399 . S
C1481 H1467 0.929 . S
C1481 C1480 1.399 . S
C1481 C1482 1.385 . S
C1482 H1468 0.931 . S
C1482 C1481 1.385 . S
C1482 C1483 1.389 . S
C1483 C1482 1.389 . S
C1483 C1484 1.387 . S
C1484 H1469 0.930 . S
C1484 C1479 1.390 . S
C1484 C1483 1.387 . S
H1485 C1497 0.930 . S
H1486 C1499 0.930 . S
H1487 C1500 0.930 . S
H1488 C1504 0.959 . S
H1489 C1504 0.959 . S
H1490 C1504 0.961 . S
H1491 C1505 0.960 . S
H1492 C1505 0.961 . S
H1493 C1505 0.959 . S
H1494 C1508 0.929 . S
H1495 C1509 0.931 . S
H1496 C1511 0.930 . S
C1497 H1485 0.930 . S
C1497 C1498 1.399 . S
C1497 C1502 1.399 . S
C1498 C1497 1.399 . S
C1498 C1499 1.376 . S
C1499 H1486 0.930 . S
C1499 C1498 1.376 . S
C1499 C1500 1.388 . S
C1500 H1487 0.930 . S
C1500 C1499 1.388 . S
C1500 C1501 1.390 . S
C1501 C1500 1.390 . S
C1501 C1502 1.394 . S
C1501 C1507 1.465 . S
C1502 C1497 1.399 . S
C1502 C1501 1.394 . S
C1502 C1503 1.516 . S
C1503 C1502 1.516 . S
C1503 C1504 1.502 . S
C1503 C1505 1.561 . S
C1503 C1506 1.526 . S
C1504 H1488 0.959 . S
C1504 H1489 0.959 . S
C1504 H1490 0.961 . S
C1504 C1503 1.502 . S
C1505 H1491 0.960 . S
C1505 H1492 0.961 . S
C1505 H1493 0.959 . S
C1505 C1503 1.561 . S
C1506 C1503 1.526 . S
C1506 C1507 1.396 . S
C1506 C1511 1.390 . S
C1507 C1501 1.465 . S
C1507 C1506 1.396 . S
C1507 C1508 1.399 . S
C1508 H1494 0.929 . S
C1508 C1507 1.399 . S
C1508 C1509 1.385 . S
C1509 H1495 0.931 . S
C1509 C1508 1.385 . S
C1509 C1510 1.389 . S
C1510 C1509 1.389 . S
C1510 C1511 1.387 . S
C1511 H1496 0.930 . S
C1511 C1506 1.390 . S
C1511 C1510 1.387 . S
H1512 C1524 0.930 1_455 S
H1513 C1526 0.930 1_455 S
H1514 C1527 0.930 . S
H1515 C1531 0.959 . S
H1516 C1531 0.959 . S
H1517 C1531 0.961 . S
H1518 C1532 0.960 . S
H1519 C1532 0.961 . S
H1520 C1532 0.959 . S
H1521 C1535 0.929 . S
H1522 C1536 0.931 . S
H1523 C1538 0.930 . S
C1524 H1512 0.930 1_655 S
C1524 C1525 1.399 1_655 S
C1524 C1529 1.399 . S
C1525 C1524 1.399 1_455 S
C1525 C1526 1.376 1_455 S
C1526 H1513 0.930 1_655 S
C1526 C1525 1.376 1_655 S
C1526 C1527 1.388 . S
C1527 H1514 0.930 . S
C1527 C1526 1.388 . S
C1527 C1528 1.390 . S
C1528 C1527 1.390 . S
C1528 C1529 1.394 . S
C1528 C1534 1.465 . S
C1529 C1524 1.399 . S
C1529 C1528 1.394 . S
C1529 C1530 1.516 . S
C1530 C1529 1.516 . S
C1530 C1531 1.502 . S
C1530 C1532 1.561 . S
C1530 C1533 1.526 . S
C1531 H1515 0.959 . S
C1531 H1516 0.959 . S
C1531 H1517 0.961 . S
C1531 C1530 1.502 . S
C1532 H1518 0.960 . S
C1532 H1519 0.961 . S
C1532 H1520 0.959 . S
C1532 C1530 1.561 . S
C1533 C1530 1.526 . S
C1533 C1534 1.396 . S
C1533 C1538 1.390 . S
C1534 C1528 1.465 . S
C1534 C1533 1.396 . S
C1534 C1535 1.399 . S
C1535 H1521 0.929 . S
C1535 C1534 1.399 . S
C1535 C1536 1.385 . S
C1536 H1522 0.931 . S
C1536 C1535 1.385 . S
C1536 C1537 1.389 . S
C1537 C1536 1.389 . S
C1537 C1538 1.387 . S
C1538 H1523 0.930 . S
C1538 C1533 1.390 . S
C1538 C1537 1.387 . S
H1539 C1551 0.930 . S
H1540 C1553 0.930 . S
H1541 C1554 0.930 . S
H1542 C1558 0.959 . S
H1543 C1558 0.959 . S
H1544 C1558 0.961 . S
H1545 C1559 0.960 . S
H1546 C1559 0.961 . S
H1547 C1559 0.959 . S
H1548 C1562 0.929 . S
H1549 C1563 0.931 . S
H1550 C1565 0.930 . S
C1551 H1539 0.930 . S
C1551 C1552 1.399 . S
C1551 C1556 1.399 . S
C1552 C1551 1.399 . S
C1552 C1553 1.376 . S
C1553 H1540 0.930 . S
C1553 C1552 1.376 . S
C1553 C1554 1.388 . S
C1554 H1541 0.930 . S
C1554 C1553 1.388 . S
C1554 C1555 1.390 . S
C1555 C1554 1.390 . S
C1555 C1556 1.394 . S
C1555 C1561 1.465 . S
C1556 C1551 1.399 . S
C1556 C1555 1.394 . S
C1556 C1557 1.516 . S
C1557 C1556 1.516 . S
C1557 C1558 1.502 . S
C1557 C1559 1.561 . S
C1557 C1560 1.526 . S
C1558 H1542 0.959 . S
C1558 H1543 0.959 . S
C1558 H1544 0.961 . S
C1558 C1557 1.502 . S
C1559 H1545 0.960 . S
C1559 H1546 0.961 . S
C1559 H1547 0.959 . S
C1559 C1557 1.561 . S
C1560 C1557 1.526 . S
C1560 C1561 1.396 . S
C1560 C1565 1.390 . S
C1561 C1555 1.465 . S
C1561 C1560 1.396 . S
C1561 C1562 1.399 . S
C1562 H1548 0.929 . S
C1562 C1561 1.399 . S
C1562 C1563 1.385 . S
C1563 H1549 0.931 . S
C1563 C1562 1.385 . S
C1563 C1564 1.389 . S
C1564 C1563 1.389 . S
C1564 C1565 1.387 . S
C1565 H1550 0.930 . S
C1565 C1560 1.390 . S
C1565 C1564 1.387 . S
H1566 C1578 0.930 . S
H1567 C1580 0.930 1_565 S
H1568 C1581 0.930 . S
H1569 C1585 0.959 . S
H1570 C1585 0.959 . S
H1571 C1585 0.961 . S
H1572 C1586 0.960 . S
H1573 C1586 0.961 . S
H1574 C1586 0.959 . S
H1575 C1589 0.929 . S
H1576 C1590 0.931 . S
H1577 C1592 0.930 . S
C1578 H1566 0.930 . S
C1578 C1579 1.399 1_545 S
C1578 C1583 1.399 . S
C1579 C1578 1.399 1_565 S
C1579 C1580 1.376 1_565 S
C1580 H1567 0.930 1_545 S
C1580 C1579 1.376 1_545 S
C1580 C1581 1.388 . S
C1581 H1568 0.930 . S
C1581 C1580 1.388 . S
C1581 C1582 1.390 . S
C1582 C1581 1.390 . S
C1582 C1583 1.394 . S
C1582 C1588 1.465 . S
C1583 C1578 1.399 . S
C1583 C1582 1.394 . S
C1583 C1584 1.516 . S
C1584 C1583 1.516 . S
C1584 C1585 1.502 . S
C1584 C1586 1.561 . S
C1584 C1587 1.526 . S
C1585 H1569 0.959 . S
C1585 H1570 0.959 . S
C1585 H1571 0.961 . S
C1585 C1584 1.502 . S
C1586 H1572 0.960 . S
C1586 H1573 0.961 . S
C1586 H1574 0.959 . S
C1586 C1584 1.561 . S
C1587 C1584 1.526 . S
C1587 C1588 1.396 . S
C1587 C1592 1.390 . S
C1588 C1582 1.465 . S
C1588 C1587 1.396 . S
C1588 C1589 1.399 . S
C1589 H1575 0.929 . S
C1589 C1588 1.399 . S
C1589 C1590 1.385 . S
C1590 H1576 0.931 . S
C1590 C1589 1.385 . S
C1590 C1591 1.389 . S
C1591 C1590 1.389 . S
C1591 C1592 1.387 . S
C1592 H1577 0.930 . S
C1592 C1587 1.390 . S
C1592 C1591 1.387 . S
H1593 C1605 0.930 . S
H1594 C1607 0.930 . S
H1595 C1608 0.930 . S
H1596 C1612 0.959 . S
H1597 C1612 0.959 . S
H1598 C1612 0.961 . S
H1599 C1613 0.960 . S
H1600 C1613 0.961 . S
H1601 C1613 0.959 . S
H1602 C1616 0.929 . S
H1603 C1617 0.931 . S
H1604 C1619 0.930 . S
C1605 H1593 0.930 . S
C1605 C1606 1.399 . S
C1605 C1610 1.399 . S
C1606 C1605 1.399 . S
C1606 C1607 1.376 . S
C1607 H1594 0.930 . S
C1607 C1606 1.376 . S
C1607 C1608 1.388 . S
C1608 H1595 0.930 . S
C1608 C1607 1.388 . S
C1608 C1609 1.390 . S
C1609 C1608 1.390 . S
C1609 C1610 1.394 . S
C1609 C1615 1.465 . S
C1610 C1605 1.399 . S
C1610 C1609 1.394 . S
C1610 C1611 1.516 . S
C1611 C1610 1.516 . S
C1611 C1612 1.502 . S
C1611 C1613 1.561 . S
C1611 C1614 1.526 . S
C1612 H1596 0.959 . S
C1612 H1597 0.959 . S
C1612 H1598 0.961 . S
C1612 C1611 1.502 . S
C1613 H1599 0.960 . S
C1613 H1600 0.961 . S
C1613 H1601 0.959 . S
C1613 C1611 1.561 . S
C1614 C1611 1.526 . S
C1614 C1615 1.396 . S
C1614 C1619 1.390 . S
C1615 C1609 1.465 . S
C1615 C1614 1.396 . S
C1615 C1616 1.399 . S
C1616 H1602 0.929 . S
C1616 C1615 1.399 . S
C1616 C1617 1.385 . S
C1617 H1603 0.931 . S
C1617 C1616 1.385 . S
C1617 C1618 1.389 . S
C1618 C1617 1.389 . S
C1618 C1619 1.387 . S
C1619 H1604 0.930 . S
C1619 C1614 1.390 . S
C1619 C1618 1.387 . S
H1620 C1632 0.930 . S
H1621 C1634 0.930 . S
H1622 C1635 0.930 . S
H1623 C1639 0.959 . S
H1624 C1639 0.959 . S
H1625 C1639 0.961 . S
H1626 C1640 0.960 . S
H1627 C1640 0.961 . S
H1628 C1640 0.959 . S
H1629 C1643 0.929 . S
H1630 C1644 0.931 . S
H1631 C1646 0.930 . S
C1632 H1620 0.930 . S
C1632 C1633 1.399 . S
C1632 C1637 1.399 . S
C1633 C1632 1.399 . S
C1633 C1634 1.376 . S
C1634 H1621 0.930 . S
C1634 C1633 1.376 . S
C1634 C1635 1.388 . S
C1635 H1622 0.930 . S
C1635 C1634 1.388 . S
C1635 C1636 1.390 . S
C1636 C1635 1.390 . S
C1636 C1637 1.394 . S
C1636 C1642 1.465 . S
C1637 C1632 1.399 . S
C1637 C1636 1.394 . S
C1637 C1638 1.516 . S
C1638 C1637 1.516 . S
C1638 C1639 1.502 . S
C1638 C1640 1.561 . S
C1638 C1641 1.526 . S
C1639 H1623 0.959 . S
C1639 H1624 0.959 . S
C1639 H1625 0.961 . S
C1639 C1638 1.502 . S
C1640 H1626 0.960 . S
C1640 H1627 0.961 . S
C1640 H1628 0.959 . S
C1640 C1638 1.561 . S
C1641 C1638 1.526 . S
C1641 C1642 1.396 . S
C1641 C1646 1.390 . S
C1642 C1636 1.465 . S
C1642 C1641 1.396 . S
C1642 C1643 1.399 . S
C1643 H1629 0.929 . S
C1643 C1642 1.399 . S
C1643 C1644 1.385 . S
C1644 H1630 0.931 . S
C1644 C1643 1.385 . S
C1644 C1645 1.389 . S
C1645 C1644 1.389 . S
C1645 C1646 1.387 . S
C1646 H1631 0.930 . S
C1646 C1641 1.390 . S
C1646 C1645 1.387 . S
H1647 C1659 0.930 . S
H1648 C1661 0.930 . S
H1649 C1662 0.930 . S
H1650 C1666 0.959 . S
H1651 C1666 0.959 . S
H1652 C1666 0.961 . S
H1653 C1667 0.960 . S
H1654 C1667 0.961 . S
H1655 C1667 0.959 . S
H1656 C1670 0.929 . S
H1657 C1671 0.931 . S
H1658 C1673 0.930 . S
C1659 H1647 0.930 . S
C1659 C1660 1.399 . S
C1659 C1664 1.399 . S
C1660 C1659 1.399 . S
C1660 C1661 1.376 . S
C1661 H1648 0.930 . S
C1661 C1660 1.376 . S
C1661 C1662 1.388 . S
C1662 H1649 0.930 . S
C1662 C1661 1.388 . S
C1662 C1663 1.390 . S
C1663 C1662 1.390 . S
C1663 C1664 1.394 . S
C1663 C1669 1.465 . S
C1664 C1659 1.399 . S
C1664 C1663 1.394 . S
C1664 C1665 1.516 . S
C1665 C1664 1.516 . S
C1665 C1666 1.502 . S
C1665 C1667 1.561 . S
C1665 C1668 1.526 . S
C1666 H1650 0.959 . S
C1666 H1651 0.959 . S
C1666 H1652 0.961 . S
C1666 C1665 1.502 . S
C1667 H1653 0.960 . S
C1667 H1654 0.961 . S
C1667 H1655 0.959 . S
C1667 C1665 1.561 . S
C1668 C1665 1.526 . S
C1668 C1669 1.396 . S
C1668 C1673 1.390 . S
C1669 C1663 1.465 . S
C1669 C1668 1.396 . S
C1669 C1670 1.399 . S
C1670 H1656 0.929 . S
C1670 C1669 1.399 . S
C1670 C1671 1.385 . S
C1671 H1657 0.931 . S
C1671 C1670 1.385 . S
C1671 C1672 1.389 . S
C1672 C1671 1.389 . S
C1672 C1673 1.387 . S
C1673 H1658 0.930 . S
C1673 C1668 1.390 . S
C1673 C1672 1.387 . S
H1674 C1686 0.930 . S
H1675 C1688 0.930 . S
H1676 C1689 0.930 . S
H1677 C1693 0.959 . S
H1678 C1693 0.959 . S
H1679 C1693 0.961 . S
H1680 C1694 0.960 . S
H1681 C1694 0.961 . S
H1682 C1694 0.959 . S
H1683 C1697 0.929 . S
H1684 C1698 0.931 . S
H1685 C1700 0.930 . S
C1686 H1674 0.930 . S
C1686 C1687 1.399 . S
C1686 C1691 1.399 . S
C1687 C1686 1.399 . S
C1687 C1688 1.376 . S
C1688 H1675 0.930 . S
C1688 C1687 1.376 . S
C1688 C1689 1.388 . S
C1689 H1676 0.930 . S
C1689 C1688 1.388 . S
C1689 C1690 1.390 . S
C1690 C1689 1.390 . S
C1690 C1691 1.394 . S
C1690 C1696 1.465 . S
C1691 C1686 1.399 . S
C1691 C1690 1.394 . S
C1691 C1692 1.516 . S
C1692 C1691 1.516 . S
C1692 C1693 1.502 . S
C1692 C1694 1.561 . S
C1692 C1695 1.526 . S
C1693 H1677 0.959 . S
C1693 H1678 0.959 . S
C1693 H1679 0.961 . S
C1693 C1692 1.502 . S
C1694 H1680 0.960 . S
C1694 H1681 0.961 . S
C1694 H1682 0.959 . S
C1694 C1692 1.561 . S
C1695 C1692 1.526 . S
C1695 C1696 1.396 . S
C1695 C1700 1.390 . S
C1696 C1690 1.465 . S
C1696 C1695 1.396 . S
C1696 C1697 1.399 . S
C1697 H1683 0.929 . S
C1697 C1696 1.399 . S
C1697 C1698 1.385 . S
C1698 H1684 0.931 . S
C1698 C1697 1.385 . S
C1698 C1699 1.389 . S
C1699 C1698 1.389 . S
C1699 C1700 1.387 . S
C1700 H1685 0.930 . S
C1700 C1695 1.390 . S
C1700 C1699 1.387 . S
H1701 C1713 0.930 . S
H1702 C1715 0.930 . S
H1703 C1716 0.930 . S
H1704 C1720 0.959 . S
H1705 C1720 0.959 . S
H1706 C1720 0.961 . S
H1707 C1721 0.960 . S
H1708 C1721 0.961 . S
H1709 C1721 0.959 . S
H1710 C1724 0.929 . S
H1711 C1725 0.931 . S
H1712 C1727 0.930 . S
C1713 H1701 0.930 . S
C1713 C1714 1.399 . S
C1713 C1718 1.399 . S
C1714 C1713 1.399 . S
C1714 C1715 1.376 . S
C1715 H1702 0.930 . S
C1715 C1714 1.376 . S
C1715 C1716 1.388 . S
C1716 H1703 0.930 . S
C1716 C1715 1.388 . S
C1716 C1717 1.390 . S
C1717 C1716 1.390 . S
C1717 C1718 1.394 . S
C1717 C1723 1.465 . S
C1718 C1713 1.399 . S
C1718 C1717 1.394 . S
C1718 C1719 1.516 . S
C1719 C1718 1.516 . S
C1719 C1720 1.502 . S
C1719 C1721 1.561 . S
C1719 C1722 1.526 . S
C1720 H1704 0.959 . S
C1720 H1705 0.959 . S
C1720 H1706 0.961 . S
C1720 C1719 1.502 . S
C1721 H1707 0.960 . S
C1721 H1708 0.961 . S
C1721 H1709 0.959 . S
C1721 C1719 1.561 . S
C1722 C1719 1.526 . S
C1722 C1723 1.396 . S
C1722 C1727 1.390 . S
C1723 C1717 1.465 . S
C1723 C1722 1.396 . S
C1723 C1724 1.399 . S
C1724 H1710 0.929 . S
C1724 C1723 1.399 . S
C1724 C1725 1.385 . S
C1725 H1711 0.931 . S
C1725 C1724 1.385 . S
C1725 C1726 1.389 . S
C1726 C1725 1.389 . S
C1726 C1727 1.387 . S
C1727 H1712 0.930 . S
C1727 C1722 1.390 . S
C1727 C1726 1.387 . S
H1728 C1740 0.930 . S
H1729 C1742 0.930 . S
H1730 C1743 0.930 . S
H1731 C1747 0.959 . S
H1732 C1747 0.959 . S
H1733 C1747 0.961 . S
H1734 C1748 0.960 . S
H1735 C1748 0.961 . S
H1736 C1748 0.959 . S
H1737 C1751 0.929 . S
H1738 C1752 0.931 . S
H1739 C1754 0.930 . S
C1740 H1728 0.930 . S
C1740 C1741 1.399 . S
C1740 C1745 1.399 . S
C1741 C1740 1.399 . S
C1741 C1742 1.376 . S
C1742 H1729 0.930 . S
C1742 C1741 1.376 . S
C1742 C1743 1.388 . S
C1743 H1730 0.930 . S
C1743 C1742 1.388 . S
C1743 C1744 1.390 . S
C1744 C1743 1.390 . S
C1744 C1745 1.394 . S
C1744 C1750 1.465 . S
C1745 C1740 1.399 . S
C1745 C1744 1.394 . S
C1745 C1746 1.516 . S
C1746 C1745 1.516 . S
C1746 C1747 1.502 . S
C1746 C1748 1.561 . S
C1746 C1749 1.526 . S
C1747 H1731 0.959 . S
C1747 H1732 0.959 . S
C1747 H1733 0.961 . S
C1747 C1746 1.502 . S
C1748 H1734 0.960 . S
C1748 H1735 0.961 . S
C1748 H1736 0.959 . S
C1748 C1746 1.561 . S
C1749 C1746 1.526 . S
C1749 C1750 1.396 . S
C1749 C1754 1.390 . S
C1750 C1744 1.465 . S
C1750 C1749 1.396 . S
C1750 C1751 1.399 . S
C1751 H1737 0.929 . S
C1751 C1750 1.399 . S
C1751 C1752 1.385 . S
C1752 H1738 0.931 . S
C1752 C1751 1.385 . S
C1752 C1753 1.389 . S
C1753 C1752 1.389 . S
C1753 C1754 1.387 . S
C1754 H1739 0.930 . S
C1754 C1749 1.390 . S
C1754 C1753 1.387 . S
H1755 C1767 0.930 . S
H1756 C1769 0.930 . S
H1757 C1770 0.930 . S
H1758 C1774 0.959 . S
H1759 C1774 0.959 . S
H1760 C1774 0.961 . S
H1761 C1775 0.960 1_455 S
H1762 C1775 0.961 1_455 S
H1763 C1775 0.959 1_455 S
H1764 C1778 0.929 . S
H1765 C1779 0.931 . S
H1766 C1781 0.930 . S
C1767 H1755 0.930 . S
C1767 C1768 1.399 . S
C1767 C1772 1.399 . S
C1768 C1767 1.399 . S
C1768 C1769 1.376 . S
C1769 H1756 0.930 . S
C1769 C1768 1.376 . S
C1769 C1770 1.388 . S
C1770 H1757 0.930 . S
C1770 C1769 1.388 . S
C1770 C1771 1.390 . S
C1771 C1770 1.390 . S
C1771 C1772 1.394 . S
C1771 C1777 1.465 . S
C1772 C1767 1.399 . S
C1772 C1771 1.394 . S
C1772 C1773 1.516 . S
C1773 C1772 1.516 . S
C1773 C1774 1.502 . S
C1773 C1775 1.561 . S
C1773 C1776 1.526 . S
C1774 H1758 0.959 . S
C1774 H1759 0.959 . S
C1774 H1760 0.961 . S
C1774 C1773 1.502 . S
C1775 H1761 0.960 1_655 S
C1775 H1762 0.961 1_655 S
C1775 H1763 0.959 1_655 S
C1775 C1773 1.561 . S
C1776 C1773 1.526 . S
C1776 C1777 1.396 . S
C1776 C1781 1.390 . S
C1777 C1771 1.465 . S
C1777 C1776 1.396 . S
C1777 C1778 1.399 . S
C1778 H1764 0.929 . S
C1778 C1777 1.399 . S
C1778 C1779 1.385 . S
C1779 H1765 0.931 . S
C1779 C1778 1.385 . S
C1779 C1780 1.389 . S
C1780 C1779 1.389 . S
C1780 C1781 1.387 . S
C1781 H1766 0.930 . S
C1781 C1776 1.390 . S
C1781 C1780 1.387 . S
H1782 C1794 0.930 . S
H1783 C1796 0.930 . S
H1784 C1797 0.930 . S
H1785 C1801 0.959 . S
H1786 C1801 0.959 . S
H1787 C1801 0.961 . S
H1788 C1802 0.960 . S
H1789 C1802 0.961 . S
H1790 C1802 0.959 . S
H1791 C1805 0.929 . S
H1792 C1806 0.931 . S
H1793 C1808 0.930 . S
C1794 H1782 0.930 . S
C1794 C1795 1.399 . S
C1794 C1799 1.399 . S
C1795 C1794 1.399 . S
C1795 C1796 1.376 . S
C1796 H1783 0.930 . S
C1796 C1795 1.376 . S
C1796 C1797 1.388 . S
C1797 H1784 0.930 . S
C1797 C1796 1.388 . S
C1797 C1798 1.390 . S
C1798 C1797 1.390 . S
C1798 C1799 1.394 . S
C1798 C1804 1.465 . S
C1799 C1794 1.399 . S
C1799 C1798 1.394 . S
C1799 C1800 1.516 . S
C1800 C1799 1.516 . S
C1800 C1801 1.502 . S
C1800 C1802 1.561 . S
C1800 C1803 1.526 . S
C1801 H1785 0.959 . S
C1801 H1786 0.959 . S
C1801 H1787 0.961 . S
C1801 C1800 1.502 . S
C1802 H1788 0.960 . S
C1802 H1789 0.961 . S
C1802 H1790 0.959 . S
C1802 C1800 1.561 . S
C1803 C1800 1.526 . S
C1803 C1804 1.396 . S
C1803 C1808 1.390 . S
C1804 C1798 1.465 . S
C1804 C1803 1.396 . S
C1804 C1805 1.399 . S
C1805 H1791 0.929 . S
C1805 C1804 1.399 . S
C1805 C1806 1.385 . S
C1806 H1792 0.931 . S
C1806 C1805 1.385 . S
C1806 C1807 1.389 . S
C1807 C1806 1.389 . S
C1807 C1808 1.387 . S
C1808 H1793 0.930 . S
C1808 C1803 1.390 . S
C1808 C1807 1.387 . S
H1809 C1821 0.930 . S
H1810 C1823 0.930 . S
H1811 C1824 0.930 . S
H1812 C1828 0.959 . S
H1813 C1828 0.959 . S
H1814 C1828 0.961 . S
H1815 C1829 0.960 . S
H1816 C1829 0.961 . S
H1817 C1829 0.959 . S
H1818 C1832 0.929 . S
H1819 C1833 0.931 . S
H1820 C1835 0.930 . S
C1821 H1809 0.930 . S
C1821 C1822 1.399 . S
C1821 C1826 1.399 . S
C1822 C1821 1.399 . S
C1822 C1823 1.376 . S
C1823 H1810 0.930 . S
C1823 C1822 1.376 . S
C1823 C1824 1.388 . S
C1824 H1811 0.930 . S
C1824 C1823 1.388 . S
C1824 C1825 1.390 . S
C1825 C1824 1.390 . S
C1825 C1826 1.394 . S
C1825 C1831 1.465 . S
C1826 C1821 1.399 . S
C1826 C1825 1.394 . S
C1826 C1827 1.516 . S
C1827 C1826 1.516 . S
C1827 C1828 1.502 . S
C1827 C1829 1.561 . S
C1827 C1830 1.526 . S
C1828 H1812 0.959 . S
C1828 H1813 0.959 . S
C1828 H1814 0.961 . S
C1828 C1827 1.502 . S
C1829 H1815 0.960 . S
C1829 H1816 0.961 . S
C1829 H1817 0.959 . S
C1829 C1827 1.561 . S
C1830 C1827 1.526 . S
C1830 C1831 1.396 . S
C1830 C1835 1.390 . S
C1831 C1825 1.465 . S
C1831 C1830 1.396 . S
C1831 C1832 1.399 . S
C1832 H1818 0.929 . S
C1832 C1831 1.399 . S
C1832 C1833 1.385 . S
C1833 H1819 0.931 . S
C1833 C1832 1.385 . S
C1833 C1834 1.389 . S
C1834 C1833 1.389 . S
C1834 C1835 1.387 . S
C1835 H1820 0.930 . S
C1835 C1830 1.390 . S
C1835 C1834 1.387 . S
H1836 C1848 0.930 . S
H1837 C1850 0.930 . S
H1838 C1851 0.930 . S
H1839 C1855 0.959 . S
H1840 C1855 0.959 . S
H1841 C1855 0.961 . S
H1842 C1856 0.960 . S
H1843 C1856 0.961 . S
H1844 C1856 0.959 . S
H1845 C1859 0.929 . S
H1846 C1860 0.931 . S
H1847 C1862 0.930 . S
C1848 H1836 0.930 . S
C1848 C1849 1.399 . S
C1848 C1853 1.399 . S
C1849 C1848 1.399 . S
C1849 C1850 1.376 . S
C1850 H1837 0.930 . S
C1850 C1849 1.376 . S
C1850 C1851 1.388 . S
C1851 H1838 0.930 . S
C1851 C1850 1.388 . S
C1851 C1852 1.390 . S
C1852 C1851 1.390 . S
C1852 C1853 1.394 . S
C1852 C1858 1.465 . S
C1853 C1848 1.399 . S
C1853 C1852 1.394 . S
C1853 C1854 1.516 . S
C1854 C1853 1.516 . S
C1854 C1855 1.502 . S
C1854 C1856 1.561 . S
C1854 C1857 1.526 . S
C1855 H1839 0.959 . S
C1855 H1840 0.959 . S
C1855 H1841 0.961 . S
C1855 C1854 1.502 . S
C1856 H1842 0.960 . S
C1856 H1843 0.961 . S
C1856 H1844 0.959 . S
C1856 C1854 1.561 . S
C1857 C1854 1.526 . S
C1857 C1858 1.396 . S
C1857 C1862 1.390 . S
C1858 C1852 1.465 . S
C1858 C1857 1.396 . S
C1858 C1859 1.399 . S
C1859 H1845 0.929 . S
C1859 C1858 1.399 . S
C1859 C1860 1.385 . S
C1860 H1846 0.931 . S
C1860 C1859 1.385 . S
C1860 C1861 1.389 . S
C1861 C1860 1.389 . S
C1861 C1862 1.387 . S
C1862 H1847 0.930 . S
C1862 C1857 1.390 . S
C1862 C1861 1.387 . S
H1863 C1875 0.930 . S
H1864 C1877 0.930 . S
H1865 C1878 0.930 . S
H1866 C1882 0.959 . S
H1867 C1882 0.959 . S
H1868 C1882 0.961 . S
H1869 C1883 0.960 . S
H1870 C1883 0.961 . S
H1871 C1883 0.959 . S
H1872 C1886 0.929 . S
H1873 C1887 0.931 . S
H1874 C1889 0.930 . S
C1875 H1863 0.930 . S
C1875 C1876 1.399 . S
C1875 C1880 1.399 . S
C1876 C1875 1.399 . S
C1876 C1877 1.376 . S
C1877 H1864 0.930 . S
C1877 C1876 1.376 . S
C1877 C1878 1.388 . S
C1878 H1865 0.930 . S
C1878 C1877 1.388 . S
C1878 C1879 1.390 . S
C1879 C1878 1.390 . S
C1879 C1880 1.394 . S
C1879 C1885 1.465 . S
C1880 C1875 1.399 . S
C1880 C1879 1.394 . S
C1880 C1881 1.516 . S
C1881 C1880 1.516 . S
C1881 C1882 1.502 . S
C1881 C1883 1.561 . S
C1881 C1884 1.526 . S
C1882 H1866 0.959 . S
C1882 H1867 0.959 . S
C1882 H1868 0.961 . S
C1882 C1881 1.502 . S
C1883 H1869 0.960 . S
C1883 H1870 0.961 . S
C1883 H1871 0.959 . S
C1883 C1881 1.561 . S
C1884 C1881 1.526 . S
C1884 C1885 1.396 . S
C1884 C1889 1.390 . S
C1885 C1879 1.465 . S
C1885 C1884 1.396 . S
C1885 C1886 1.399 . S
C1886 H1872 0.929 . S
C1886 C1885 1.399 . S
C1886 C1887 1.385 . S
C1887 H1873 0.931 . S
C1887 C1886 1.385 . S
C1887 C1888 1.389 . S
C1888 C1887 1.389 . S
C1888 C1889 1.387 . S
C1889 H1874 0.930 . S
C1889 C1884 1.390 . S
C1889 C1888 1.387 . S
H1890 C1902 0.930 . S
H1891 C1904 0.930 . S
H1892 C1905 0.930 . S
H1893 C1909 0.959 . S
H1894 C1909 0.959 . S
H1895 C1909 0.961 . S
H1896 C1910 0.960 . S
H1897 C1910 0.961 . S
H1898 C1910 0.959 . S
H1899 C1913 0.929 . S
H1900 C1914 0.931 . S
H1901 C1916 0.930 . S
C1902 H1890 0.930 . S
C1902 C1903 1.399 . S
C1902 C1907 1.399 . S
C1903 C1902 1.399 . S
C1903 C1904 1.376 . S
C1904 H1891 0.930 . S
C1904 C1903 1.376 . S
C1904 C1905 1.388 . S
C1905 H1892 0.930 . S
C1905 C1904 1.388 . S
C1905 C1906 1.390 . S
C1906 C1905 1.390 . S
C1906 C1907 1.394 . S
C1906 C1912 1.465 . S
C1907 C1902 1.399 . S
C1907 C1906 1.394 . S
C1907 C1908 1.516 . S
C1908 C1907 1.516 . S
C1908 C1909 1.502 . S
C1908 C1910 1.561 . S
C1908 C1911 1.526 . S
C1909 H1893 0.959 . S
C1909 H1894 0.959 . S
C1909 H1895 0.961 . S
C1909 C1908 1.502 . S
C1910 H1896 0.960 . S
C1910 H1897 0.961 . S
C1910 H1898 0.959 . S
C1910 C1908 1.561 . S
C1911 C1908 1.526 . S
C1911 C1912 1.396 . S
C1911 C1916 1.390 . S
C1912 C1906 1.465 . S
C1912 C1911 1.396 . S
C1912 C1913 1.399 . S
C1913 H1899 0.929 . S
C1913 C1912 1.399 . S
C1913 C1914 1.385 . S
C1914 H1900 0.931 . S
C1914 C1913 1.385 . S
C1914 C1915 1.389 . S
C1915 C1914 1.389 . S
C1915 C1916 1.387 . S
C1916 H1901 0.930 . S
C1916 C1911 1.390 . S
C1916 C1915 1.387 . S
H1917 C1929 0.930 . S
H1918 C1931 0.930 . S
H1919 C1932 0.930 . S
H1920 C1936 0.959 . S
H1921 C1936 0.959 . S
H1922 C1936 0.961 . S
H1923 C1937 0.960 . S
H1924 C1937 0.961 . S
H1925 C1937 0.959 . S
H1926 C1940 0.929 . S
H1927 C1941 0.931 . S
H1928 C1943 0.930 . S
C1929 H1917 0.930 . S
C1929 C1930 1.399 . S
C1929 C1934 1.399 . S
C1930 C1929 1.399 . S
C1930 C1931 1.376 . S
C1931 H1918 0.930 . S
C1931 C1930 1.376 . S
C1931 C1932 1.388 . S
C1932 H1919 0.930 . S
C1932 C1931 1.388 . S
C1932 C1933 1.390 . S
C1933 C1932 1.390 . S
C1933 C1934 1.394 . S
C1933 C1939 1.465 . S
C1934 C1929 1.399 . S
C1934 C1933 1.394 . S
C1934 C1935 1.516 . S
C1935 C1934 1.516 . S
C1935 C1936 1.502 . S
C1935 C1937 1.561 . S
C1935 C1938 1.526 . S
C1936 H1920 0.959 . S
C1936 H1921 0.959 . S
C1936 H1922 0.961 . S
C1936 C1935 1.502 . S
C1937 H1923 0.960 . S
C1937 H1924 0.961 . S
C1937 H1925 0.959 . S
C1937 C1935 1.561 . S
C1938 C1935 1.526 . S
C1938 C1939 1.396 . S
C1938 C1943 1.390 . S
C1939 C1933 1.465 . S
C1939 C1938 1.396 . S
C1939 C1940 1.399 . S
C1940 H1926 0.929 . S
C1940 C1939 1.399 . S
C1940 C1941 1.385 . S
C1941 H1927 0.931 . S
C1941 C1940 1.385 . S
C1941 C1942 1.389 . S
C1942 C1941 1.389 . S
C1942 C1943 1.387 . S
C1943 H1928 0.930 . S
C1943 C1938 1.390 . S
C1943 C1942 1.387 . S
H1944 C1956 0.930 . S
H1945 C1958 0.930 . S
H1946 C1959 0.930 . S
H1947 C1963 0.959 . S
H1948 C1963 0.959 . S
H1949 C1963 0.961 . S
H1950 C1964 0.960 . S
H1951 C1964 0.961 . S
H1952 C1964 0.959 . S
H1953 C1967 0.929 . S
H1954 C1968 0.931 . S
H1955 C1970 0.930 . S
C1956 H1944 0.930 . S
C1956 C1957 1.399 . S
C1956 C1961 1.399 . S
C1957 C1956 1.399 . S
C1957 C1958 1.376 . S
C1958 H1945 0.930 . S
C1958 C1957 1.376 . S
C1958 C1959 1.388 . S
C1959 H1946 0.930 . S
C1959 C1958 1.388 . S
C1959 C1960 1.390 . S
C1960 C1959 1.390 . S
C1960 C1961 1.394 . S
C1960 C1966 1.465 . S
C1961 C1956 1.399 . S
C1961 C1960 1.394 . S
C1961 C1962 1.516 . S
C1962 C1961 1.516 . S
C1962 C1963 1.502 . S
C1962 C1964 1.561 . S
C1962 C1965 1.526 . S
C1963 H1947 0.959 . S
C1963 H1948 0.959 . S
C1963 H1949 0.961 . S
C1963 C1962 1.502 . S
C1964 H1950 0.960 . S
C1964 H1951 0.961 . S
C1964 H1952 0.959 . S
C1964 C1962 1.561 . S
C1965 C1962 1.526 . S
C1965 C1966 1.396 . S
C1965 C1970 1.390 . S
C1966 C1960 1.465 . S
C1966 C1965 1.396 . S
C1966 C1967 1.399 . S
C1967 H1953 0.929 . S
C1967 C1966 1.399 . S
C1967 C1968 1.385 . S
C1968 H1954 0.931 . S
C1968 C1967 1.385 . S
C1968 C1969 1.389 . S
C1969 C1968 1.389 . S
C1969 C1970 1.387 . S
C1970 H1955 0.930 . S
C1970 C1965 1.390 . S
C1970 C1969 1.387 . S
H1971 C1983 0.930 . S
H1972 C1985 0.930 . S
H1973 C1986 0.930 . S
H1974 C1990 0.959 . S
H1975 C1990 0.959 . S
H1976 C1990 0.961 . S
H1977 C1991 0.960 . S
H1978 C1991 0.961 . S
H1979 C1991 0.959 . S
H1980 C1994 0.929 . S
H1981 C1995 0.931 . S
H1982 C1997 0.930 . S
C1983 H1971 0.930 . S
C1983 C1984 1.399 . S
C1983 C1988 1.399 . S
C1984 C1983 1.399 . S
C1984 C1985 1.376 . S
C1985 H1972 0.930 . S
C1985 C1984 1.376 . S
C1985 C1986 1.388 . S
C1986 H1973 0.930 . S
C1986 C1985 1.388 . S
C1986 C1987 1.390 . S
C1987 C1986 1.390 . S
C1987 C1988 1.394 . S
C1987 C1993 1.465 . S
C1988 C1983 1.399 . S
C1988 C1987 1.394 . S
C1988 C1989 1.516 . S
C1989 C1988 1.516 . S
C1989 C1990 1.502 . S
C1989 C1991 1.561 . S
C1989 C1992 1.526 . S
C1990 H1974 0.959 . S
C1990 H1975 0.959 . S
C1990 H1976 0.961 . S
C1990 C1989 1.502 . S
C1991 H1977 0.960 . S
C1991 H1978 0.961 . S
C1991 H1979 0.959 . S
C1991 C1989 1.561 . S
C1992 C1989 1.526 . S
C1992 C1993 1.396 . S
C1992 C1997 1.390 . S
C1993 C1987 1.465 . S
C1993 C1992 1.396 . S
C1993 C1994 1.399 . S
C1994 H1980 0.929 . S
C1994 C1993 1.399 . S
C1994 C1995 1.385 . S
C1995 H1981 0.931 . S
C1995 C1994 1.385 . S
C1995 C1996 1.389 . S
C1996 C1995 1.389 . S
C1996 C1997 1.387 . S
C1997 H1982 0.930 . S
C1997 C1992 1.390 . S
C1997 C1996 1.387 . S
H1998 C2010 0.930 . S
H1999 C2012 0.930 . S
H2000 C2013 0.930 . S
H2001 C2017 0.959 . S
H2002 C2017 0.959 . S
H2003 C2017 0.961 . S
H2004 C2018 0.960 . S
H2005 C2018 0.961 . S
H2006 C2018 0.959 . S
H2007 C2021 0.929 . S
H2008 C2022 0.931 . S
H2009 C2024 0.930 . S
C2010 H1998 0.930 . S
C2010 C2011 1.399 . S
C2010 C2015 1.399 . S
C2011 C2010 1.399 . S
C2011 C2012 1.376 . S
C2012 H1999 0.930 . S
C2012 C2011 1.376 . S
C2012 C2013 1.388 . S
C2013 H2000 0.930 . S
C2013 C2012 1.388 . S
C2013 C2014 1.390 . S
C2014 C2013 1.390 . S
C2014 C2015 1.394 . S
C2014 C2020 1.465 . S
C2015 C2010 1.399 . S
C2015 C2014 1.394 . S
C2015 C2016 1.516 . S
C2016 C2015 1.516 . S
C2016 C2017 1.502 . S
C2016 C2018 1.561 . S
C2016 C2019 1.526 . S
C2017 H2001 0.959 . S
C2017 H2002 0.959 . S
C2017 H2003 0.961 . S
C2017 C2016 1.502 . S
C2018 H2004 0.960 . S
C2018 H2005 0.961 . S
C2018 H2006 0.959 . S
C2018 C2016 1.561 . S
C2019 C2016 1.526 . S
C2019 C2020 1.396 . S
C2019 C2024 1.390 . S
C2020 C2014 1.465 . S
C2020 C2019 1.396 . S
C2020 C2021 1.399 . S
C2021 H2007 0.929 . S
C2021 C2020 1.399 . S
C2021 C2022 1.385 . S
C2022 H2008 0.931 . S
C2022 C2021 1.385 . S
C2022 C2023 1.389 . S
C2023 C2022 1.389 . S
C2023 C2024 1.387 . S
C2024 H2009 0.930 . S
C2024 C2019 1.390 . S
C2024 C2023 1.387 . S
H2025 C2037 0.930 . S
H2026 C2039 0.930 . S
H2027 C2040 0.930 . S
H2028 C2044 0.959 . S
H2029 C2044 0.959 . S
H2030 C2044 0.961 . S
H2031 C2045 0.960 . S
H2032 C2045 0.961 . S
H2033 C2045 0.959 . S
H2034 C2048 0.929 . S
H2035 C2049 0.931 . S
H2036 C2051 0.930 . S
C2037 H2025 0.930 . S
C2037 C2038 1.399 . S
C2037 C2042 1.399 . S
C2038 C2037 1.399 . S
C2038 C2039 1.376 . S
C2039 H2026 0.930 . S
C2039 C2038 1.376 . S
C2039 C2040 1.388 . S
C2040 H2027 0.930 . S
C2040 C2039 1.388 . S
C2040 C2041 1.390 . S
C2041 C2040 1.390 . S
C2041 C2042 1.394 . S
C2041 C2047 1.465 . S
C2042 C2037 1.399 . S
C2042 C2041 1.394 . S
C2042 C2043 1.516 . S
C2043 C2042 1.516 . S
C2043 C2044 1.502 . S
C2043 C2045 1.561 . S
C2043 C2046 1.526 . S
C2044 H2028 0.959 . S
C2044 H2029 0.959 . S
C2044 H2030 0.961 . S
C2044 C2043 1.502 . S
C2045 H2031 0.960 . S
C2045 H2032 0.961 . S
C2045 H2033 0.959 . S
C2045 C2043 1.561 . S
C2046 C2043 1.526 . S
C2046 C2047 1.396 . S
C2046 C2051 1.390 . S
C2047 C2041 1.465 . S
C2047 C2046 1.396 . S
C2047 C2048 1.399 . S
C2048 H2034 0.929 . S
C2048 C2047 1.399 . S
C2048 C2049 1.385 . S
C2049 H2035 0.931 . S
C2049 C2048 1.385 . S
C2049 C2050 1.389 . S
C2050 C2049 1.389 . S
C2050 C2051 1.387 . S
C2051 H2036 0.930 . S
C2051 C2046 1.390 . S
C2051 C2050 1.387 . S
H2052 C2064 0.930 . S
H2053 C2066 0.930 . S
H2054 C2067 0.930 . S
H2055 C2071 0.959 . S
H2056 C2071 0.959 . S
H2057 C2071 0.961 . S
H2058 C2072 0.960 . S
H2059 C2072 0.961 . S
H2060 C2072 0.959 . S
H2061 C2075 0.929 . S
H2062 C2076 0.931 . S
H2063 C2078 0.930 . S
C2064 H2052 0.930 . S
C2064 C2065 1.399 . S
C2064 C2069 1.399 . S
C2065 C2064 1.399 . S
C2065 C2066 1.376 . S
C2066 H2053 0.930 . S
C2066 C2065 1.376 . S
C2066 C2067 1.388 . S
C2067 H2054 0.930 . S
C2067 C2066 1.388 . S
C2067 C2068 1.390 . S
C2068 C2067 1.390 . S
C2068 C2069 1.394 . S
C2068 C2074 1.465 . S
C2069 C2064 1.399 . S
C2069 C2068 1.394 . S
C2069 C2070 1.516 . S
C2070 C2069 1.516 . S
C2070 C2071 1.502 . S
C2070 C2072 1.561 . S
C2070 C2073 1.526 . S
C2071 H2055 0.959 . S
C2071 H2056 0.959 . S
C2071 H2057 0.961 . S
C2071 C2070 1.502 . S
C2072 H2058 0.960 . S
C2072 H2059 0.961 . S
C2072 H2060 0.959 . S
C2072 C2070 1.561 . S
C2073 C2070 1.526 . S
C2073 C2074 1.396 . S
C2073 C2078 1.390 . S
C2074 C2068 1.465 . S
C2074 C2073 1.396 . S
C2074 C2075 1.399 . S
C2075 H2061 0.929 . S
C2075 C2074 1.399 . S
C2075 C2076 1.385 . S
C2076 H2062 0.931 . S
C2076 C2075 1.385 . S
C2076 C2077 1.389 . S
C2077 C2076 1.389 . S
C2077 C2078 1.387 . S
C2078 H2063 0.930 . S
C2078 C2073 1.390 . S
C2078 C2077 1.387 . S
H2079 C2091 0.930 . S
H2080 C2093 0.930 . S
H2081 C2094 0.930 . S
H2082 C2098 0.959 . S
H2083 C2098 0.959 . S
H2084 C2098 0.961 . S
H2085 C2099 0.960 . S
H2086 C2099 0.961 . S
H2087 C2099 0.959 . S
H2088 C2102 0.929 . S
H2089 C2103 0.931 . S
H2090 C2105 0.930 . S
C2091 H2079 0.930 . S
C2091 C2092 1.399 . S
C2091 C2096 1.399 . S
C2092 C2091 1.399 . S
C2092 C2093 1.376 . S
C2093 H2080 0.930 . S
C2093 C2092 1.376 . S
C2093 C2094 1.388 . S
C2094 H2081 0.930 . S
C2094 C2093 1.388 . S
C2094 C2095 1.390 . S
C2095 C2094 1.390 . S
C2095 C2096 1.394 . S
C2095 C2101 1.465 . S
C2096 C2091 1.399 . S
C2096 C2095 1.394 . S
C2096 C2097 1.516 . S
C2097 C2096 1.516 . S
C2097 C2098 1.502 . S
C2097 C2099 1.561 . S
C2097 C2100 1.526 . S
C2098 H2082 0.959 . S
C2098 H2083 0.959 . S
C2098 H2084 0.961 . S
C2098 C2097 1.502 . S
C2099 H2085 0.960 . S
C2099 H2086 0.961 . S
C2099 H2087 0.959 . S
C2099 C2097 1.561 . S
C2100 C2097 1.526 . S
C2100 C2101 1.396 . S
C2100 C2105 1.390 . S
C2101 C2095 1.465 . S
C2101 C2100 1.396 . S
C2101 C2102 1.399 . S
C2102 H2088 0.929 . S
C2102 C2101 1.399 . S
C2102 C2103 1.385 . S
C2103 H2089 0.931 . S
C2103 C2102 1.385 . S
C2103 C2104 1.389 . S
C2104 C2103 1.389 . S
C2104 C2105 1.387 . S
C2105 H2090 0.930 . S
C2105 C2100 1.390 . S
C2105 C2104 1.387 . S
H2106 C2118 0.930 . S
H2107 C2120 0.930 . S
H2108 C2121 0.930 . S
H2109 C2125 0.959 . S
H2110 C2125 0.959 . S
H2111 C2125 0.961 . S
H2112 C2126 0.960 . S
H2113 C2126 0.961 . S
H2114 C2126 0.959 . S
H2115 C2129 0.929 . S
H2116 C2130 0.931 . S
H2117 C2132 0.930 . S
C2118 H2106 0.930 . S
C2118 C2119 1.399 . S
C2118 C2123 1.399 . S
C2119 C2118 1.399 . S
C2119 C2120 1.376 . S
C2120 H2107 0.930 . S
C2120 C2119 1.376 . S
C2120 C2121 1.388 . S
C2121 H2108 0.930 . S
C2121 C2120 1.388 . S
C2121 C2122 1.390 . S
C2122 C2121 1.390 . S
C2122 C2123 1.394 . S
C2122 C2128 1.465 . S
C2123 C2118 1.399 . S
C2123 C2122 1.394 . S
C2123 C2124 1.516 . S
C2124 C2123 1.516 . S
C2124 C2125 1.502 . S
C2124 C2126 1.561 . S
C2124 C2127 1.526 . S
C2125 H2109 0.959 . S
C2125 H2110 0.959 . S
C2125 H2111 0.961 . S
C2125 C2124 1.502 . S
C2126 H2112 0.960 . S
C2126 H2113 0.961 . S
C2126 H2114 0.959 . S
C2126 C2124 1.561 . S
C2127 C2124 1.526 . S
C2127 C2128 1.396 . S
C2127 C2132 1.390 . S
C2128 C2122 1.465 . S
C2128 C2127 1.396 . S
C2128 C2129 1.399 . S
C2129 H2115 0.929 . S
C2129 C2128 1.399 . S
C2129 C2130 1.385 . S
C2130 H2116 0.931 . S
C2130 C2129 1.385 . S
C2130 C2131 1.389 . S
C2131 C2130 1.389 . S
C2131 C2132 1.387 . S
C2132 H2117 0.930 . S
C2132 C2127 1.390 . S
C2132 C2131 1.387 . S
H2133 C2145 0.930 . S
H2134 C2147 0.930 . S
H2135 C2148 0.930 . S
H2136 C2152 0.959 . S
H2137 C2152 0.959 . S
H2138 C2152 0.961 . S
H2139 C2153 0.960 . S
H2140 C2153 0.961 . S
H2141 C2153 0.959 . S
H2142 C2156 0.929 . S
H2143 C2157 0.931 . S
H2144 C2159 0.930 . S
C2145 H2133 0.930 . S
C2145 C2146 1.399 . S
C2145 C2150 1.399 . S
C2146 C2145 1.399 . S
C2146 C2147 1.376 . S
C2147 H2134 0.930 . S
C2147 C2146 1.376 . S
C2147 C2148 1.388 . S
C2148 H2135 0.930 . S
C2148 C2147 1.388 . S
C2148 C2149 1.390 . S
C2149 C2148 1.390 . S
C2149 C2150 1.394 . S
C2149 C2155 1.465 . S
C2150 C2145 1.399 . S
C2150 C2149 1.394 . S
C2150 C2151 1.516 . S
C2151 C2150 1.516 . S
C2151 C2152 1.502 . S
C2151 C2153 1.561 . S
C2151 C2154 1.526 . S
C2152 H2136 0.959 . S
C2152 H2137 0.959 . S
C2152 H2138 0.961 . S
C2152 C2151 1.502 . S
C2153 H2139 0.960 . S
C2153 H2140 0.961 . S
C2153 H2141 0.959 . S
C2153 C2151 1.561 . S
C2154 C2151 1.526 . S
C2154 C2155 1.396 . S
C2154 C2159 1.390 . S
C2155 C2149 1.465 . S
C2155 C2154 1.396 . S
C2155 C2156 1.399 . S
C2156 H2142 0.929 . S
C2156 C2155 1.399 . S
C2156 C2157 1.385 . S
C2157 H2143 0.931 . S
C2157 C2156 1.385 . S
C2157 C2158 1.389 . S
C2158 C2157 1.389 . S
C2158 C2159 1.387 . S
C2159 H2144 0.930 . S
C2159 C2154 1.390 . S
C2159 C2158 1.387 . S
C715 C253 1.694 . S
C727 C351 1.729 . S
C742 C272 1.810 . S
C754 C391 1.832 . S
C769 C234 1.619 . S
C781 C430 1.531 . S
C796 C215 1.468 . S
C808 C390 1.453 1_556 S
C835 C431 1.556 . S
C823 C177 1.546 . S
C850 C196 1.387 . S
C862 C350 1.406 1_556 S
C889 C361 1.642 . S
C877 C220 1.533 . S
C916 C401 1.608 . S
C904 C182 1.523 . S
C931 C201 1.584 1_556 S
C943 C440 1.744 . S
C958 C258 1.401 . S
C970 C400 1.555 . S
C985 C277 1.380 . S
C997 C441 1.397 . S
C1024 C360 1.496 1_554 S
C1012 C239 1.428 . S
C1051 C471 1.716 . S
C1039 C25 1.713 . S
C1066 C44 1.811 . S
C1078 C511 1.829 . S
C1093 C6 1.592 . S
C1105 C550 1.605 . S
C1120 C329 1.489 . S
C1132 C510 1.389 . S
C1147 C291 1.546 . S
C1159 C551 1.556 . S
C1174 C310 1.368 . S
C1186 C470 1.389 . S
C1201 C334 1.509 . S
C1213 C481 1.675 . S
C1228 C296 1.577 . S
C1240 C521 1.588 . S
C1267 C560 1.695 . S
C1255 C315 1.652 . S
C1282 C30 1.470 . S
C1294 C520 1.501 . S
C1321 C561 1.440 . S
C1309 C49 1.281 1_455 S
C1336 C11 1.419 . S
C1348 C480 1.505 . S
C1375 C591 1.711 . S
C1363 C139 1.721 . S
C1390 C158 1.811 . S
C1402 C631 1.829 . S
C1429 C670 1.605 . S
C1417 C120 1.592 . S
C1456 C630 1.392 . S
C1444 C101 1.492 . S
C1483 C671 1.556 . S
C1471 C63 1.546 . S
C1498 C82 1.382 . S
C1510 C590 1.404 . S
C1525 C106 1.559 . S
C1537 C601 1.647 . S
C1552 C68 1.498 . S
C1564 C641 1.625 . S
C1591 C680 1.745 . S
C1579 C87 1.586 . S
C1606 C144 1.491 . S
C1618 C640 1.539 . S
C1633 C163 1.350 . S
C1645 C681 1.432 . S
C1660 C125 1.364 . S
C1672 C600 1.560 . S
C1687 C287 1.567 . S
C1699 C347 1.597 . S
C1726 C387 2.078 . S
C1714 C306 2.034 . S
C1741 C325 1.595 . S
C1753 C437 1.671 . S
C1768 C116 1.853 . S
C1780 C397 1.858 . S
C1795 C135 1.815 . S
C1807 C427 1.782 . S
C1834 C357 1.353 . S
C1822 C154 1.316 . S
C1849 C59 1.562 . S
C1861 C467 1.604 . S
C1876 C78 2.079 . S
C1888 C507 2.040 . S
C1903 C97 1.605 . S
C1915 C557 1.667 . S
C1930 C230 1.811 . S
C1942 C517 1.877 . S
C1969 C547 1.786 . S
C1957 C249 1.813 . S
C1984 C268 1.304 . S
C1996 C477 1.359 . S
C2011 C173 1.605 . S
C2023 C587 1.570 . S
C2038 C192 2.032 . S
C2050 C627 2.080 . S
C2077 C677 1.667 . S
C2065 C211 1.606 . S
C2092 C2 1.854 . S
C2104 C637 1.846 . S
C2119 C21 1.814 . S
C2131 C667 1.782 . S
C2146 C40 1.309 . S
C2158 C597 1.356 . S
