# Generated by pormake.
# Topology zzz, (3,6)-cn, num edge types: 1
# Building blocks:
#     Node 0, Type 0, BuildingBlock: BETDAH_clean_linker_0, # of connection points: 3
#     Node 1, Type 0, BuildingBlock: BETDAH_clean_linker_0, # of connection points: 3
#     Node 2, Type 0, BuildingBlock: BETDAH_clean_linker_0, # of connection points: 3
#     Node 3, Type 0, BuildingBlock: BETDAH_clean_linker_0, # of connection points: 3
#     Node 4, Type 0, BuildingBlock: BETDAH_clean_linker_0, # of connection points: 3
#     Node 5, Type 0, BuildingBlock: BETDAH_clean_linker_0, # of connection points: 3
#     Node 6, Type 0, BuildingBlock: BETDAH_clean_linker_0, # of connection points: 3
#     Node 7, Type 0, BuildingBlock: BETDAH_clean_linker_0, # of connection points: 3
#     Node 8, Type 1, BuildingBlock: MIFKUJ_clean_sbu_0, # of connection points: 6
#     Node 9, Type 1, BuildingBlock: MIFKUJ_clean_sbu_0, # of connection points: 6
#     Node 10, Type 1, BuildingBlock: MIFKUJ_clean_sbu_0, # of connection points: 6
#     Node 11, Type 1, BuildingBlock: MIFKUJ_clean_sbu_0, # of connection points: 6
#     Edge 12, Type (0, 1), BuildingBlock: KIFKEQ_clean_linker_1, # of connection points: 2
#     Edge 13, Type (0, 1), BuildingBlock: KIFKEQ_clean_linker_1, # of connection points: 2
#     Edge 14, Type (0, 1), BuildingBlock: KIFKEQ_clean_linker_1, # of connection points: 2
#     Edge 15, Type (0, 1), BuildingBlock: KIFKEQ_clean_linker_1, # of connection points: 2
#     Edge 16, Type (0, 1), BuildingBlock: KIFKEQ_clean_linker_1, # of connection points: 2
#     Edge 17, Type (0, 1), BuildingBlock: KIFKEQ_clean_linker_1, # of connection points: 2
#     Edge 18, Type (0, 1), BuildingBlock: KIFKEQ_clean_linker_1, # of connection points: 2
#     Edge 19, Type (0, 1), BuildingBlock: KIFKEQ_clean_linker_1, # of connection points: 2
#     Edge 20, Type (0, 1), BuildingBlock: KIFKEQ_clean_linker_1, # of connection points: 2
#     Edge 21, Type (0, 1), BuildingBlock: KIFKEQ_clean_linker_1, # of connection points: 2
#     Edge 22, Type (0, 1), BuildingBlock: KIFKEQ_clean_linker_1, # of connection points: 2
#     Edge 23, Type (0, 1), BuildingBlock: KIFKEQ_clean_linker_1, # of connection points: 2
#     Edge 24, Type (0, 1), BuildingBlock: KIFKEQ_clean_linker_1, # of connection points: 2
#     Edge 25, Type (0, 1), BuildingBlock: KIFKEQ_clean_linker_1, # of connection points: 2
#     Edge 26, Type (0, 1), BuildingBlock: KIFKEQ_clean_linker_1, # of connection points: 2
#     Edge 27, Type (0, 1), BuildingBlock: KIFKEQ_clean_linker_1, # of connection points: 2
#     Edge 28, Type (0, 1), BuildingBlock: KIFKEQ_clean_linker_1, # of connection points: 2
#     Edge 29, Type (0, 1), BuildingBlock: KIFKEQ_clean_linker_1, # of connection points: 2
#     Edge 30, Type (0, 1), BuildingBlock: KIFKEQ_clean_linker_1, # of connection points: 2
#     Edge 31, Type (0, 1), BuildingBlock: KIFKEQ_clean_linker_1, # of connection points: 2
#     Edge 32, Type (0, 1), BuildingBlock: KIFKEQ_clean_linker_1, # of connection points: 2
#     Edge 33, Type (0, 1), BuildingBlock: KIFKEQ_clean_linker_1, # of connection points: 2
#     Edge 34, Type (0, 1), BuildingBlock: KIFKEQ_clean_linker_1, # of connection points: 2
#     Edge 35, Type (0, 1), BuildingBlock: KIFKEQ_clean_linker_1, # of connection points: 2
# Relax obj value: 0.118
# Max RMSD: 0.119
# Mean RMSD: 0.086
data_MOF--net-zzz--node1-MIFKUJ_clean_sbu_0--node2-BETDAH_clean_linker_0--edge1-KIFKEQ_clean_linker_1
_symmetry_space_group_name_H-M    P1
_symmetry_Int_Tables_number       1
_symmetry_cell_setting            triclinic
loop_
_symmetry_equiv_pos_as_xyz
'x, y, z'
_cell_length_a     51.402095
_cell_length_b     51.111938
_cell_length_c     16.484784
_cell_angle_alpha  89.948651
_cell_angle_beta   90.048537
_cell_angle_gamma 89.952901
loop_
_atom_site_label
_atom_site_type_symbol
_atom_site_fract_x
_atom_site_fract_y
_atom_site_fract_z
_atom_type_partial_charge
H0 H 0.82092 0.50185 0.07932 0.0
H1 H 0.74562 0.48643 0.97822 0.0
H2 H 0.7549 0.49486 0.23746 0.0
C3 C 0.80014 0.49919 0.08779 0.0
C4 C 0.7898 0.49935 0.16602 0.0
C5 C 0.78435 0.49424 0.02057 0.0
C6 C 0.75761 0.49032 0.03082 0.0
C7 C 0.7467 0.4911 0.1093 0.0
C8 C 0.76305 0.49499 0.17686 0.0
N9 N 0.71959 0.48773 0.12239 0.0
C10 C 0.70104 0.48807 0.06078 0.0
H11 H 0.9811 0.81254 0.02448 0.0
H12 H 0.9979 0.73351 0.95841 0.0
H13 H 1.00245 0.75697 0.20946 0.0
C14 C 0.98623 0.79282 0.04292 0.0
C15 C 0.99204 0.78757 0.12434 0.0
C16 C 0.98886 0.7736 0.98329 0.0
C17 C 0.99546 0.74808 0.00547 0.0
C18 C 0.99936 0.74173 0.08789 0.0
C19 C 0.99801 0.76164 0.14685 0.0
N20 N 1.00557 0.71579 0.11253 0.0
C21 C 0.0061 0.6948 0.0588 0.0
H22 H 0.69606 0.02197 0.09253 0.0
H23 H 0.77208 0.02506 0.98546 0.0
H24 H 0.7623 0.99732 0.23138 0.0
C25 C 0.71694 0.01915 0.09744 0.0
C26 C 0.72719 0.00881 0.16901 0.0
C27 C 0.73297 0.02542 0.03167 0.0
C28 C 0.75981 0.02074 0.03709 0.0
C29 C 0.77057 0.01068 0.10956 0.0
C30 C 0.75415 0.0051 0.17571 0.0
N31 N 0.79765 0.00569 0.1178 0.0
C32 C 0.8156 0.00765 0.0549 0.0
H33 H 0.50678 0.69862 0.12226 0.0
H34 H 0.51846 0.77075 -0.0067 0.0
H35 H 0.5392 0.76456 0.24677 0.0
C36 C 0.51263 0.71903 0.12168 0.0
C37 C 0.52288 0.72993 0.19226 0.0
C38 C 0.51091 0.73355 0.04984 0.0
C39 C 0.51946 0.75964 0.04919 0.0
C40 C 0.52946 0.77108 0.1207 0.0
C41 C 0.53132 0.75598 0.19191 0.0
N42 N 0.53804 0.79749 0.12299 0.0
C43 C 0.53559 0.81497 0.05868 0.0
H44 H 0.20308 0.52199 0.08542 0.0
H45 H 0.27872 0.52329 0.19581 0.0
H46 H 0.26945 0.49699 0.94822 0.0
C47 C 0.22394 0.51891 0.0812 0.0
C48 C 0.23429 0.50873 0.00966 0.0
C49 C 0.2398 0.52457 0.14791 0.0
C50 C 0.26658 0.51948 0.1434 0.0
C51 C 0.27747 0.50964 0.07091 0.0
C52 C 0.26122 0.50467 0.00383 0.0
N53 N 0.3045 0.50423 0.06378 0.0
C54 C 0.32192 0.50482 0.12847 0.0
H55 H 0.04244 0.19547 0.12637 0.0
H56 H 0.0301 0.27366 0.2102 0.0
H57 H 0.03617 0.25821 0.95343 0.0
C58 C 0.04084 0.2162 0.11291 0.0
C59 C 0.04028 0.2246 0.03215 0.0
C60 C 0.03706 0.23377 0.17669 0.0
C61 C 0.03346 0.26037 0.16026 0.0
C62 C 0.03384 0.26946 0.07949 0.0
C63 C 0.0368 0.2514 0.01568 0.0
N64 N 0.03069 0.29642 0.06052 0.0
C65 C 0.02863 0.31601 0.11882 0.0
H66 H 0.31688 0.98656 0.10438 0.0
H67 H 0.2404 0.98418 0.20847 0.0
H68 H 0.25142 0.01171 0.96284 0.0
C69 C 0.29605 0.98955 0.09863 0.0
C70 C 0.28619 0.99995 0.0266 0.0
C71 C 0.2797 0.98344 0.16378 0.0
C72 C 0.25292 0.98835 0.15728 0.0
C73 C 0.24254 0.99847 0.08435 0.0
C74 C 0.25929 1.00388 0.01884 0.0
N75 N 0.21555 1.0037 0.07504 0.0
C76 C 0.19729 1.00162 0.13705 0.0
H77 H 0.48105 0.31292 0.11653 0.0
H78 H 0.49253 0.23514 0.20613 0.0
H79 H 0.48421 0.24867 0.94861 0.0
C80 C 0.48223 0.29207 0.10472 0.0
C81 C 0.48158 0.28297 0.02478 0.0
C82 C 0.48637 0.27497 0.16959 0.0
C83 C 0.48912 0.24814 0.1553 0.0
C84 C 0.48775 0.23841 0.07533 0.0
C85 C 0.48447 0.256 0.01026 0.0
N86 N 0.49004 0.21123 0.05844 0.0
C87 C 0.49105 0.19207 0.11842 0.0
Zn88 Zn 0.99983 0.03539 0.57237 0.0
Zn89 Zn 0.01304 0.97541 0.61598 0.0
C90 C 0.99857 0.06403 0.71375 0.0
O91 O 0.97436 0.06453 0.68806 0.0
C92 C 0.01794 0.94381 0.4843 0.0
O93 O 0.04069 0.94324 0.52065 0.0
O94 O 0.99396 0.06998 0.51656 0.0
O95 O 0.02683 0.0177 0.50232 0.0
O96 O 0.04685 0.99459 0.59588 0.0
C97 C 0.01423 0.08422 0.52134 0.0
O98 O 0.03558 0.07417 0.55231 0.0
O99 O 0.01449 0.04858 0.67899 0.0
C100 C 0.99949 0.92675 0.66806 0.0
O101 O 0.97812 0.93663 0.63665 0.0
O102 O 0.01948 0.94133 0.6746 0.0
O103 O 0.98414 0.99164 0.68228 0.0
O104 O 0.96528 0.01795 0.59446 0.0
O105 O 1.00116 0.96057 0.50763 0.0
C106 C 0.04742 0.00686 0.52878 0.0
C107 C 0.96412 1.004 0.65816 0.0
Zn108 Zn 0.47984 0.99205 0.5639 0.0
Zn109 Zn 0.53279 0.01686 0.62807 0.0
C110 C 0.44635 0.98704 0.69283 0.0
O111 O 0.45081 0.96293 0.66887 0.0
C112 C 0.56706 0.02178 0.50115 0.0
O113 O 0.56256 0.0459 0.52489 0.0
O114 O 0.44983 0.97725 0.50024 0.0
O115 O 0.49369 0.02133 0.49355 0.0
O116 O 0.5095 0.04632 0.59015 0.0
C117 C 0.43243 0.99465 0.48969 0.0
O118 O 0.4375 0.01883 0.51158 0.0
O119 O 0.45986 0.00538 0.66181 0.0
C120 C 0.57972 0.01424 0.70517 0.0
O121 O 0.57473 0.99006 0.68306 0.0
O122 O 0.56243 0.03167 0.69349 0.0
O123 O 0.51867 0.98745 0.69741 0.0
O124 O 0.5035 0.96261 0.59955 0.0
O125 O 0.55334 1.00348 0.53149 0.0
C126 C 0.49981 0.04389 0.51961 0.0
C127 C 0.5134 0.96486 0.66983 0.0
Zn128 Zn 0.51835 0.4754 0.5678 0.0
Zn129 Zn 0.50178 0.53121 0.63689 0.0
C130 C 0.51914 0.44333 0.70181 0.0
O131 O 0.54331 0.44347 0.67589 0.0
C132 C 0.4994 0.57086 0.52597 0.0
O133 O 0.47573 0.56896 0.55545 0.0
O134 O 0.52596 0.44223 0.50587 0.0
O135 O 0.49184 0.49401 0.49838 0.0
O136 O 0.46953 0.51248 0.59647 0.0
C137 C 0.50588 0.42765 0.50575 0.0
O138 O 0.48393 0.43695 0.53472 0.0
O139 O 0.50305 0.45929 0.66995 0.0
C140 C 0.51034 0.57512 0.72786 0.0
O141 O 0.53361 0.56799 0.70329 0.0
O142 O 0.49112 0.56023 0.71265 0.0
O143 O 0.5303 0.51226 0.69854 0.0
O144 O 0.55168 0.49375 0.59843 0.0
O145 O 0.516 0.55331 0.54443 0.0
C146 C 0.47046 0.50287 0.52546 0.0
C147 C 0.55146 0.50347 0.66935 0.0
Zn148 Zn 0.0392 0.51805 0.55118 0.0
Zn149 Zn 0.98698 0.49379 0.62015 0.0
C150 C 0.07435 0.52294 0.67592 0.0
O151 O 0.07018 0.54701 0.65093 0.0
C152 C 0.95124 0.48738 0.49902 0.0
O153 O 0.95491 0.46392 0.52966 0.0
O154 O 0.0686 0.53199 0.48331 0.0
O155 O 0.02372 0.48877 0.48441 0.0
O156 O 0.00985 0.4638 0.58398 0.0
C157 C 0.08551 0.51424 0.47109 0.0
O158 O 0.08021 0.49017 0.49378 0.0
O159 O 0.06018 0.50473 0.64715 0.0
C160 C 0.93997 0.49884 0.69315 0.0
O161 O 0.94548 0.52212 0.66394 0.0
O162 O 0.95715 0.48092 0.68939 0.0
O163 O 1.00188 0.52336 0.68698 0.0
O164 O 0.01683 0.54815 0.58873 0.0
O165 O 0.96631 0.50583 0.52119 0.0
C166 C 0.01843 0.46617 0.51201 0.0
C167 C 0.00786 0.54586 0.66013 0.0
H168 H 0.14625 0.99844 0.1064 0.0
H169 H 0.20219 1.00287 0.30082 0.0
H170 H 0.11073 0.99907 0.20487 0.0
H171 H 0.16661 1.00386 0.40037 0.0
H172 H 0.09316 0.97952 0.55115 0.0
H173 H 0.13036 0.97723 0.45845 0.0
H174 H 0.09193 0.03133 0.29646 0.0
H175 H 0.05496 0.03344 0.3877 0.0
C176 C 0.15084 0.99945 0.17051 0.0
C177 C 0.17672 1.00064 0.19655 0.0
C178 C 0.13057 0.99998 0.22689 0.0
C179 C 0.13581 1.00176 0.31055 0.0
C180 C 0.16192 1.00232 0.3365 0.0
C181 C 0.18224 1.00186 0.27976 0.0
C182 C 0.09277 0.99103 0.49597 0.0
C183 C 0.07096 0.00648 0.47662 0.0
C184 C 0.1141 0.98976 0.44298 0.0
C185 C 0.11397 1.00384 0.36954 0.0
C186 C 0.09244 0.01979 0.35158 0.0
C187 C 0.07126 0.0211 0.4043 0.0
H188 H 0.45223 0.15914 0.15708 0.0
H189 H 0.53101 0.18021 0.21809 0.0
H190 H 0.45318 0.12437 0.25929 0.0
H191 H 0.5324 0.14511 0.31956 0.0
H192 H 0.51752 0.09403 0.54376 0.0
H193 H 0.51455 0.13106 0.45013 0.0
H194 H 0.47399 0.08233 0.27749 0.0
H195 H 0.47648 0.04566 0.37109 0.0
C196 C 0.46974 0.15622 0.19264 0.0
C197 C 0.49158 0.17204 0.18012 0.0
C198 C 0.47038 0.13629 0.25081 0.0
C199 C 0.49292 0.13184 0.29746 0.0
C200 C 0.51465 0.14816 0.2854 0.0
C201 C 0.51397 0.16809 0.22709 0.0
C202 C 0.5078 0.09131 0.48606 0.0
C203 C 0.49727 0.06685 0.46498 0.0
C204 C 0.50626 0.11248 0.43217 0.0
C205 C 0.49404 0.10969 0.35622 0.0
C206 C 0.48323 0.08531 0.33583 0.0
C207 C 0.48483 0.06419 0.38941 0.0
H208 H 0.33785 0.54523 0.22189 0.0
H209 H 0.34905 0.46288 0.17799 0.0
H210 H 0.37272 0.54441 0.32378 0.0
H211 H 0.38352 0.46172 0.28036 0.0
H212 H 0.46488 0.47796 0.38055 0.0
H213 H 0.42764 0.47833 0.28988 0.0
H214 H 0.38558 0.52722 0.45846 0.0
H215 H 0.42328 0.5272 0.54948 0.0
C216 C 0.34765 0.52693 0.23499 0.0
C217 C 0.34107 0.50414 0.19251 0.0
C218 C 0.36747 0.52638 0.29344 0.0
C219 C 0.38104 0.50302 0.3099 0.0
C220 C 0.37377 0.48011 0.26833 0.0
C221 C 0.35398 0.48069 0.21013 0.0
C222 C 0.44772 0.48879 0.39864 0.0
C223 C 0.44712 0.50259 0.47237 0.0
C224 C 0.42624 0.48882 0.34677 0.0
C225 C 0.40354 0.5027 0.36696 0.0
C226 C 0.40284 0.51648 0.44085 0.0
C227 C 0.42437 0.51633 0.4932 0.0
H228 H 0.04254 0.31434 0.27709 0.0
H229 H 0.01025 0.36445 0.09211 0.0
H230 H 0.03988 0.35019 0.37549 0.0
H231 H 0.00738 0.40032 0.19 0.0
H232 H 0.03568 0.46552 0.35583 0.0
H233 H 0.03781 0.4287 0.26313 0.0
H234 H 0.00777 0.37776 0.44993 0.0
H235 H 1.00577 0.41482 0.54383 0.0
C236 C 0.0347 0.33301 0.25789 0.0
C237 C 0.02656 0.33684 0.17755 0.0
C238 C 0.03308 0.35348 0.31412 0.0
C239 C 0.02349 0.37814 0.29053 0.0
C240 C 0.01517 0.38169 0.20986 0.0
C241 C 0.01668 0.3612 0.15394 0.0
C242 C 0.02951 0.44651 0.3775 0.0
C243 C 0.02043 0.44319 0.45734 0.0
C244 C 0.03061 0.42539 0.32404 0.0
C245 C 0.02274 0.40033 0.34885 0.0
C246 C 0.01409 0.39681 0.42912 0.0
C247 C 0.01288 0.41805 0.48278 0.0
H248 H 0.81016 0.01259 0.89179 0.0
H249 H 0.86673 1.00416 0.08322 0.0
H250 H 0.84522 0.01168 0.79046 0.0
H251 H 0.90175 1.00358 0.98312 0.0
H252 H 0.95421 0.97236 0.78725 0.0
H253 H 0.91745 0.97372 0.87946 0.0
H254 H 0.88354 0.03676 0.74034 0.0
H255 H 0.92047 0.0352 0.64652 0.0
C256 C 0.83015 0.01076 0.91191 0.0
C257 C 0.83597 0.0084 -0.00529 0.0
C258 C 0.85019 0.01033 0.85418 0.0
C259 C 0.87628 0.00735 0.87862 0.0
C260 C 0.88187 0.00544 0.96205 0.0
C261 C 0.8619 0.00594 0.01943 0.0
C262 C 0.93892 0.98649 0.77583 0.0
C263 C 0.94045 1.00383 0.70973 0.0
C264 C 0.91787 0.98735 0.82912 0.0
C265 C 0.89772 0.00561 0.81807 0.0
C266 C 0.89871 0.02241 0.75042 0.0
C267 C 0.91989 0.02155 0.69677 0.0
H268 H 0.57219 0.84962 0.0146 0.0
H269 H 0.49405 0.82416 0.96244 0.0
H270 H 0.56788 0.88472 0.91439 0.0
H271 H 0.48931 0.85957 0.86289 0.0
H272 H 0.49823 0.91405 0.64215 0.0
H273 H 0.50458 0.87621 0.7311 0.0
H274 H 0.54393 0.92548 0.90498 0.0
H275 H 0.53804 0.96296 0.81616 0.0
C276 C 0.55415 0.85155 0.98105 0.0
C277 C 0.53343 0.83445 -0.00435 0.0
C278 C 0.55158 0.87169 0.92415 0.0
C279 C 0.52817 0.8751 0.88096 0.0
C280 C 0.50766 0.85737 0.89447 0.0
C281 C 0.51028 0.83722 0.95156 0.0
C282 C 0.50837 0.91673 0.69917 0.0
C283 C 0.51761 0.94156 0.72198 0.0
C284 C 0.51187 0.89509 0.75033 0.0
C285 C 0.52483 0.89778 0.82511 0.0
C286 C 0.53422 0.92258 0.84734 0.0
C287 C 0.53065 0.94416 0.79655 0.0
H288 H 0.70567 0.49738 0.89949 0.0
H289 H 0.65014 0.48139 0.08892 0.0
H290 H 0.6701 0.50117 0.80071 0.0
H291 H 0.61458 0.48482 0.99085 0.0
H292 H 0.55708 0.52374 0.82105 0.0
H293 H 0.59389 0.51955 0.91253 0.0
H294 H 0.63563 0.47541 0.73113 0.0
H295 H 0.59863 0.47984 0.63836 0.0
C296 C 0.68583 0.49446 0.91958 0.0
C297 C 0.68043 0.48913 0.00129 0.0
C298 C 0.6655 0.49652 0.86318 0.0
C299 C 0.63947 0.49346 0.88796 0.0
C300 C 0.63434 0.4877 0.96995 0.0
C301 C 0.65464 0.48557 0.02601 0.0
C302 C 0.57408 0.51317 0.80025 0.0
C303 C 0.57479 0.50198 0.72236 0.0
C304 C 0.59517 0.51065 0.85306 0.0
C305 C 0.6176 0.49688 0.82959 0.0
C306 C 0.61866 0.48623 0.75094 0.0
C307 C 0.59745 0.48872 0.69787 0.0
H308 H 0.04484 0.68171 0.95651 0.0
H309 H 0.96687 0.6614 0.02873 0.0
H310 H 0.04458 0.64626 0.85639 0.0
H311 H 0.96616 0.62627 0.92785 0.0
H312 H 0.98671 0.54762 0.81155 0.0
H313 H 0.98612 0.58407 0.90599 0.0
H314 H 0.02464 0.6327 0.72852 0.0
H315 H 0.02574 0.59586 0.634 0.0
C316 C 0.02766 0.66958 0.95057 0.0
C317 C 0.00598 0.67387 0.00019 0.0
C318 C 0.02738 0.64948 0.89294 0.0
C319 C 1.00535 0.63337 0.88409 0.0
C320 C 0.98356 0.63803 0.9338 0.0
C321 C 0.98389 0.65813 -0.00868 0.0
C322 C 0.99501 0.56608 0.79234 0.0
C323 C 0.00635 0.56877 0.71515 0.0
C324 C 0.9945 0.58707 0.84646 0.0
C325 C 1.00532 0.61135 0.82496 0.0
C326 C 0.0164 0.61418 0.74736 0.0
C327 C 0.01686 0.59313 0.69297 0.0
H328 H 0.9932 0.2319 0.26755 0.0
H329 H 0.07405 0.20948 0.26546 0.0
H330 H 0.98485 0.2004 0.37658 0.0
H331 H 0.06597 0.17801 0.37318 0.0
H332 H 0.04849 0.12199 0.56482 0.0
H333 H 0.05237 0.16591 0.50897 0.0
H334 H 0.98417 0.15244 0.36132 0.0
H335 H 0.97993 0.10862 0.41889 0.0
C336 C 0.00937 0.22109 0.29327 0.0
C337 C 0.03423 0.22294 0.2588 0.0
C338 C 1.00456 0.20287 0.35474 0.0
C339 C 0.02464 0.18643 0.38248 0.0
C340 C 0.05009 0.19046 0.35372 0.0
C341 C 0.0548 0.2085 0.29211 0.0
C342 C 0.03412 0.12853 0.52111 0.0
C343 C 0.01427 0.1117 0.49445 0.0
C344 C 0.0363 0.15373 0.48951 0.0
C345 C 0.0188 0.16254 0.4301 0.0
C346 C 0.99785 0.14634 0.40764 0.0
C347 C 0.99554 0.12113 0.43987 0.0
H348 H 0.31278 0.94249 0.18255 0.0
H349 H 0.27525 0.00475 0.31464 0.0
H350 H 0.34662 0.94011 0.28489 0.0
H351 H 0.30846 1.00155 0.42024 0.0
H352 H 0.39371 0.02851 0.45179 0.0
H353 H 0.35084 0.01877 0.40035 0.0
H354 H 0.36773 0.93595 0.41261 0.0
H355 H 0.41148 0.94593 0.46257 0.0
C356 C 0.3111 0.95473 0.23595 0.0
C357 C 0.29198 0.97434 0.23977 0.0
C358 C 0.33048 0.95334 0.29496 0.0
C359 C 0.33083 0.97138 0.35921 0.0
C360 C 0.30921 0.98802 0.36979 0.0
C361 C 0.28996 0.98962 0.31004 0.0
C362 C 0.38832 0.00817 0.44407 0.0
C363 C 0.40616 0.988 0.4599 0.0
C364 C 0.36345 1.00253 0.41578 0.0
C365 C 0.35561 0.97652 0.40293 0.0
C366 C 0.37318 0.95621 0.4214 0.0
C367 C 0.39827 0.96191 0.44951 0.0
H368 H 0.44944 0.29753 0.26206 0.0
H369 H 0.53147 0.28035 0.25304 0.0
H370 H 0.45721 0.33042 0.36566 0.0
H371 H 0.53956 0.31323 0.35819 0.0
H372 H 0.54023 0.40495 0.39988 0.0
H373 H 0.5375 0.36087 0.34305 0.0
H374 H 0.47166 0.34424 0.49763 0.0
H375 H 0.47391 0.38839 0.55216 0.0
C376 C 0.46898 0.29995 0.28561 0.0
C377 C 0.48985 0.2865 0.25045 0.0
C378 C 0.47353 0.31884 0.34479 0.0
C379 C 0.4991 0.32472 0.3693 0.0
C380 C 0.51971 0.30937 0.33962 0.0
C381 C 0.51509 0.29032 0.2805 0.0
C382 C 0.52546 0.39169 0.42232 0.0
C383 C 0.50686 0.40024 0.47853 0.0
C384 C 0.52402 0.36636 0.39052 0.0
C385 C 0.50414 0.34914 0.41527 0.0
C386 C 0.48685 0.35719 0.47619 0.0
C387 C 0.4881 0.38251 0.5071 0.0
H388 H 0.24282 0.50227 0.29775 0.0
H389 H 0.20687 0.56568 0.16607 0.0
H390 H 0.20892 0.50522 0.40106 0.0
H391 H 0.17238 0.56789 0.26626 0.0
H392 H 0.10727 0.56262 0.44458 0.0
H393 H 0.15112 0.57193 0.39431 0.0
H394 H 0.1662 0.48885 0.37761 0.0
H395 H 0.12319 0.47974 0.42922 0.0
C396 C 0.22831 0.51758 0.29284 0.0
C397 C 0.22697 0.53331 0.22329 0.0
C398 C 0.20867 0.51905 0.35124 0.0
C399 C 0.18735 0.53605 0.34008 0.0
C400 C 0.18829 0.55441 0.27668 0.0
C401 C 0.20806 0.55312 0.21897 0.0
C402 C 0.12009 0.54643 0.43033 0.0
C403 C 0.11168 0.52045 0.43978 0.0
C404 C 0.14523 0.55174 0.40207 0.0
C405 C 0.16234 0.53116 0.38261 0.0
C406 C 0.15393 0.50525 0.39394 0.0
C407 C 0.129 0.49999 0.42233 0.0
H408 H 0.94827 0.7936 0.89877 0.0
H409 H 0.02997 0.77544 0.8815 0.0
H410 H 0.95292 0.82629 0.7928 0.0
H411 H 0.03484 0.8081 0.77421 0.0
H412 H 0.0355 0.90075 0.76048 0.0
H413 H 0.03369 0.85517 0.80421 0.0
H414 H 0.96427 0.84358 0.66058 0.0
H415 H 0.96573 0.88921 0.61868 0.0
C416 C 0.96689 0.79555 0.86854 0.0
C417 C 0.9888 0.78233 0.8983 0.0
C418 C 0.96967 0.81438 0.80802 0.0
C419 C 0.99445 0.82028 0.7768 0.0
C420 C 0.01563 0.80432 0.7985 0.0
C421 C 0.01279 0.78536 0.85891 0.0
C422 C 0.02008 0.88835 0.73758 0.0
C423 C 1.00035 0.89868 0.68833 0.0
C424 C 0.0192 0.86213 0.76162 0.0
C425 C 0.9987 0.84579 0.73614 0.0
C426 C 0.98007 0.85576 0.68208 0.0
C427 C 0.98083 0.88195 0.65867 0.0
H428 H 0.73697 1.00423 0.88058 0.0
H429 H 0.69945 0.0661 0.01446 0.0
H430 H 0.70344 0.00735 0.77597 0.0
H431 H 0.66532 0.06843 0.91296 0.0
H432 H 0.60057 0.06294 0.73371 0.0
H433 H 0.64422 0.07285 0.78479 0.0
H434 H 0.66103 0.99001 0.79678 0.0
H435 H 0.61825 0.98033 0.74441 0.0
C436 C 0.72219 0.01926 0.88578 0.0
C437 C 0.7203 0.03446 0.95624 0.0
C438 C 0.70275 0.02082 0.8266 0.0
C439 C 0.6811 0.03736 0.83787 0.0
C440 C 0.6815 0.05529 0.9024 0.0
C441 C 0.70105 0.05394 0.96088 0.0
C442 C 0.61373 0.04694 0.747 0.0
C443 C 0.60586 0.02086 0.73614 0.0
C444 C 0.63876 0.0526 0.77575 0.0
C445 C 0.65629 0.03226 0.79429 0.0
C446 C 0.64844 0.00626 0.78125 0.0
C447 C 0.62363 1.00066 0.7524 0.0
H448 H 0.53637 0.7315 0.90505 0.0
H449 H 0.46784 0.70343 0.02837 0.0
H450 H 0.53203 0.69649 0.80536 0.0
H451 H 0.46415 0.66776 0.93178 0.0
H452 H 0.46465 0.60205 0.75079 0.0
H453 H 0.45967 0.64664 0.80275 0.0
H454 H 0.54305 0.65192 0.83335 0.0
H455 H 0.54797 0.60812 0.78019 0.0
C456 C 0.51979 0.71848 0.9089 0.0
C457 C 0.5028 0.7197 0.97528 0.0
C458 C 0.5175 0.69818 0.85262 0.0
C459 C 0.49834 0.67874 0.8625 0.0
C460 C 0.47926 0.6822 0.9225 0.0
C461 C 0.48141 0.70261 0.97815 0.0
C462 C 0.48185 0.61282 0.76882 0.0
C463 C 0.50667 0.60149 0.76237 0.0
C464 C 0.47902 0.6384 0.79798 0.0
C465 C 0.50097 0.65303 0.82136 0.0
C466 C 0.52574 0.64162 0.81389 0.0
C467 C 0.52855 0.61625 0.78458 0.0
H468 H 0.80044 0.53391 0.92564 0.0
H469 H 0.79903 0.44984 0.94391 0.0
H470 H 0.83509 0.53128 0.82573 0.0
H471 H 0.83365 0.44683 0.84222 0.0
H472 H 0.92341 0.46181 0.80191 0.0
H473 H 0.87954 0.45735 0.8577 0.0
H474 H 0.85238 0.5185 0.69714 0.0
H475 H 0.89621 0.52356 0.64422 0.0
C476 C 0.80671 0.51482 0.90474 0.0
C477 C 0.7971 0.49209 0.94128 0.0
C478 C 0.82665 0.51322 0.84774 0.0
C479 C 0.83741 0.4888 0.8268 0.0
C480 C 0.82601 0.46591 0.85803 0.0
C481 C 0.80598 0.46757 0.9151 0.0
C482 C 0.90793 0.47402 0.77819 0.0
C483 C 0.91327 0.49352 0.72076 0.0
C484 C 0.88275 0.47133 0.80934 0.0
C485 C 0.86251 0.48784 0.78249 0.0
C486 C 0.86763 0.50591 0.72041 0.0
C487 C 0.89276 0.50886 0.6904 0.0
H488 H 0.07346 0.18324 0.01414 0.0
H489 H 1.00584 0.21966 0.90724 0.0
H490 H 0.06562 0.14381 0.93427 0.0
H491 H 0.99832 0.18049 0.82574 0.0
H492 H 0.96923 0.09675 0.80535 0.0
H493 H 0.98268 0.13726 0.86988 0.0
H494 H 0.06225 0.12244 0.79952 0.0
H495 H 0.04874 0.08148 0.73495 0.0
C496 C 0.05739 0.18308 0.97159 0.0
C497 C 0.04009 0.2044 0.96749 0.0
C498 C 0.05291 0.1605 0.92583 0.0
C499 C 0.031 0.1588 0.87517 0.0
C500 C 0.01504 0.18101 0.86576 0.0
C501 C 0.01956 0.20361 0.91141 0.0
C502 C 0.98966 0.10191 0.80441 0.0
C503 C 0.0079 0.08587 0.76499 0.0
C504 C 0.99732 0.12534 0.84046 0.0
C505 C 0.02344 0.1334 0.83812 0.0
C506 C 0.04196 0.11681 0.80199 0.0
C507 C 0.03426 0.09326 0.76562 0.0
H508 H 0.32601 0.03464 0.03157 0.0
H509 H 0.28937 0.97737 0.8774 0.0
H510 H 0.3642 0.03497 0.94338 0.0
H511 H 0.32754 0.97773 0.78837 0.0
H512 H 0.41266 0.95155 0.75569 0.0
H513 H 0.37137 0.95955 0.82211 0.0
H514 H 0.38413 0.04286 0.80526 0.0
H515 H 0.42591 0.03485 0.7375 0.0
C516 C 0.3258 0.02289 0.97689 0.0
C517 C 0.30485 0.00597 0.961 0.0
C518 C 0.34765 0.02304 0.92651 0.0
C519 C 0.34905 0.00605 0.85979 0.0
C520 C 0.32713 0.99075 0.84017 0.0
C521 C 0.30517 0.99075 0.89034 0.0
C522 C 0.40685 0.97163 0.7662 0.0
C523 C 0.42268 0.99257 0.74126 0.0
C524 C 0.38295 0.9762 0.80343 0.0
C525 C 0.37422 1.00183 0.81743 0.0
C526 C 0.3903 0.02288 0.79473 0.0
C527 C 0.41426 0.01829 0.75648 0.0
H528 H 0.44774 0.32374 0.00725 0.0
H529 H 0.51444 0.28724 0.89573 0.0
H530 H 0.45433 0.36276 0.92422 0.0
H531 H 0.52073 0.32601 0.81114 0.0
H532 H 0.54929 0.41018 0.78934 0.0
H533 H 0.53656 0.36938 0.85345 0.0
H534 H 0.45642 0.38388 0.78841 0.0
H535 H 0.46923 0.42516 0.72397 0.0
C536 C 0.4633 0.32377 0.96295 0.0
C537 C 0.48077 0.3026 0.95849 0.0
C538 C 0.46706 0.3461 0.91537 0.0
C539 C 0.48841 0.3477 0.86253 0.0
C540 C 0.50443 0.32556 0.85274 0.0
C541 C 0.50063 0.30319 0.90021 0.0
C542 C 0.52889 0.40486 0.78927 0.0
C543 C 0.51028 0.42095 0.75162 0.0
C544 C 0.52164 0.38126 0.82511 0.0
C545 C 0.49557 0.37307 0.82437 0.0
C546 C 0.47669 0.38962 0.7896 0.0
C547 C 0.48399 0.41334 0.75335 0.0
H548 H 0.23135 0.5323 0.86178 0.0
H549 H 0.19504 0.47342 0.01086 0.0
H550 H 0.19336 0.53228 0.77186 0.0
H551 H 0.15699 0.47348 0.92204 0.0
H552 H 0.09485 0.47497 0.71866 0.0
H553 H 0.13678 0.46667 0.78529 0.0
H554 H 0.14966 0.54991 0.80452 0.0
H555 H 0.10825 0.55819 0.73888 0.0
C556 C 0.21568 0.51864 0.87332 0.0
C557 C 0.21602 0.50286 0.94285 0.0
C558 C 0.19379 0.51885 0.8227 0.0
C559 C 0.17197 0.50323 0.84085 0.0
C560 C 0.17345 0.48568 0.90626 0.0
C561 C 0.19524 0.48559 0.95699 0.0
C562 C 0.10657 0.49145 0.73788 0.0
C563 C 0.09816 0.51723 0.72353 0.0
C564 C 0.13063 0.4867 0.77549 0.0
C565 C 0.14677 0.50764 0.79861 0.0
C566 C 0.13805 0.53333 0.78545 0.0
C567 C 0.11408 0.53806 0.74868 0.0
H568 H 0.01121 0.83648 0.0947 0.0
H569 H 0.97761 0.78944 0.28604 0.0
H570 H 0.01209 0.87404 0.1841 0.0
H571 H 0.98008 0.82729 0.37764 0.0
H572 H 0.03067 0.89354 0.51352 0.0
H573 H 0.02058 0.8551 0.43188 0.0
H574 H 0.97775 0.90363 0.26392 0.0
H575 H 0.98735 0.94236 0.34756 0.0
C576 C 1.0036 0.83416 0.15551 0.0
C577 C 0.99371 0.80991 0.18236 0.0
C578 C 1.00421 0.85578 0.20674 0.0
C579 C 0.99568 0.85368 0.28705 0.0
C580 C 0.98651 0.8294 0.31542 0.0
C581 C 0.98534 0.80773 0.2633 0.0
C582 C 0.01894 0.896 0.45939 0.0
C583 C 0.01015 0.92094 0.43572 0.0
C584 C 0.01293 0.87395 0.41337 0.0
C585 C 0.99845 0.87645 0.34177 0.0
C586 C 0.989 0.90128 0.31906 0.0
C587 C 0.99449 0.92337 0.36648 0.0
H588 H 0.68784 0.97358 0.16572 0.0
H589 H 0.72419 0.03156 0.31793 0.0
H590 H 0.64975 0.97321 0.25425 0.0
H591 H 0.68614 0.03114 0.4074 0.0
H592 H 0.60091 0.05717 0.43862 0.0
H593 H 0.64236 0.04905 0.37336 0.0
H594 H 0.62965 0.96577 0.39181 0.0
H595 H 0.58769 0.9739 0.45829 0.0
C596 C 0.68803 0.98546 0.22013 0.0
C597 C 0.70884 1.00262 0.23527 0.0
C598 C 0.66623 0.98529 0.27071 0.0
C599 C 0.66476 1.00249 0.3369 0.0
C600 C 0.68659 0.01797 0.35598 0.0
C601 C 0.7085 0.018 0.30558 0.0
C602 C 0.60677 0.03706 0.42874 0.0
C603 C 0.59089 0.01617 0.45365 0.0
C604 C 0.63077 0.03243 0.39219 0.0
C605 C 0.63955 0.00678 0.37894 0.0
C606 C 0.62344 0.98577 0.40176 0.0
C607 C 0.59937 0.99042 0.43926 0.0
H608 H 0.48381 0.71856 0.29475 0.0
H609 H 0.56431 0.70151 0.24522 0.0
H610 H 0.48151 0.68115 0.38548 0.0
H611 H 0.56258 0.66416 0.33861 0.0
H612 H 0.5343 0.57934 0.40217 0.0
H613 H 0.54377 0.62126 0.33584 0.0
H614 H 0.4934 0.66063 0.50678 0.0
H615 H 0.48306 0.61889 0.56914 0.0
C616 C 0.50135 0.7074 0.30657 0.0
C617 C 0.52433 0.71308 0.26465 0.0
C618 C 0.5001 0.68584 0.35835 0.0
C619 C 0.52186 0.66941 0.36929 0.0
C620 C 0.54537 0.67614 0.33083 0.0
C621 C 0.54655 0.69776 0.27862 0.0
C622 C 0.52543 0.59706 0.42528 0.0
C623 C 0.50744 0.59587 0.48907 0.0
C624 C 0.53099 0.62112 0.38798 0.0
C625 C 0.51903 0.64439 0.41513 0.0
C626 C 0.50237 0.64312 0.48254 0.0
C627 C 0.49644 0.61917 0.51836 0.0
H628 H 0.81975 0.54137 0.20416 0.0
H629 H 0.80235 0.46233 0.27677 0.0
H630 H 0.85731 0.5419 0.2951 0.0
H631 H 0.84052 0.46194 0.36403 0.0
H632 H 0.90451 0.4683 0.54223 0.0
H633 H 0.86268 0.4753 0.47769 0.0
H634 H 0.89948 0.52515 0.29916 0.0
H635 H 0.94126 0.51942 0.36855 0.0
C636 C 0.82371 0.52434 0.24136 0.0
C637 C 0.80808 0.50193 0.23468 0.0
C638 C 0.84548 0.52441 0.29236 0.0
C639 C 0.85238 0.50185 0.33645 0.0
C640 C 0.8358 0.47989 0.33242 0.0
C641 C 0.81379 0.48002 0.2825 0.0
C642 C 0.9036 0.48086 0.4893 0.0
C643 C 0.92613 0.493 0.45933 0.0
C644 C 0.87958 0.4848 0.45194 0.0
C645 C 0.87752 0.50041 0.38197 0.0
C646 C 0.90009 0.5132 0.35336 0.0
C647 C 0.92413 0.50978 0.39242 0.0
loop_
_geom_bond_atom_site_label_1
_geom_bond_atom_site_label_2
_geom_bond_distance
_geom_bond_site_symmetry_2
_ccdc_geom_bond_type
H0 C3 0.929 . S
H1 C6 0.929 . S
H2 C8 0.930 . S
C3 H0 0.929 . S
C3 C4 1.398 . S
C3 C5 1.396 1_554 S
C4 C3 1.398 . S
C4 C8 1.407 . S
C5 C3 1.396 1_556 S
C5 C6 1.394 . S
C6 H1 0.929 . S
C6 C5 1.394 . S
C6 C7 1.382 1_556 S
C7 C6 1.382 1_554 S
C7 C8 1.392 . S
C7 N9 1.420 . S
C8 H2 0.930 . S
C8 C4 1.407 . S
C8 C7 1.392 . S
N9 C7 1.420 . S
N9 C10 1.244 1_554 S
C10 N9 1.244 1_556 S
H11 C14 0.929 . S
H12 C17 0.929 . S
H13 C19 0.930 . S
C14 H11 0.929 . S
C14 C15 1.398 . S
C14 C16 1.396 1_554 S
C15 C14 1.398 . S
C15 C19 1.407 . S
C16 C14 1.396 1_556 S
C16 C17 1.394 . S
C17 H12 0.929 . S
C17 C16 1.394 . S
C17 C18 1.382 1_556 S
C18 C17 1.382 1_554 S
C18 C19 1.392 . S
C18 N20 1.420 . S
C19 H13 0.930 . S
C19 C15 1.407 . S
C19 C18 1.392 . S
N20 C18 1.420 . S
N20 C21 1.244 1_554 S
C21 N20 1.244 1_556 S
H22 C25 0.929 . S
H23 C28 0.929 . S
H24 C30 0.930 . S
C25 H22 0.929 . S
C25 C26 1.395 1_565 S
C25 C27 1.395 1_564 S
C26 C25 1.395 1_545 S
C26 C30 1.414 . S
C27 C25 1.395 1_546 S
C27 C28 1.397 . S
C28 H23 0.929 . S
C28 C27 1.397 . S
C28 C29 1.382 1_556 S
C29 C28 1.382 1_554 S
C29 C30 1.392 . S
C29 N31 1.420 . S
C30 H24 0.930 . S
C30 C26 1.414 . S
C30 C29 1.392 . S
N31 C29 1.420 . S
N31 C32 1.232 1_544 S
C32 N31 1.232 1_566 S
H33 C36 0.929 . S
H34 C39 0.929 . S
H35 C41 0.930 . S
C36 H33 0.929 . S
C36 C37 1.398 . S
C36 C38 1.396 1_554 S
C37 C36 1.398 . S
C37 C41 1.407 . S
C38 C36 1.396 1_556 S
C38 C39 1.394 . S
C39 H34 0.929 . S
C39 C38 1.394 . S
C39 C40 1.382 1_556 S
C40 C39 1.382 1_554 S
C40 C41 1.392 . S
C40 N42 1.420 . S
C41 H35 0.930 . S
C41 C37 1.407 . S
C41 C40 1.392 . S
N42 C40 1.420 . S
N42 C43 1.244 1_554 S
C43 N42 1.244 1_556 S
H44 C47 0.929 . S
H45 C50 0.929 . S
H46 C52 0.930 . S
C47 H44 0.929 . S
C47 C48 1.398 . S
C47 C49 1.396 . S
C48 C47 1.398 . S
C48 C52 1.407 . S
C49 C47 1.396 . S
C49 C50 1.394 . S
C50 H45 0.929 . S
C50 C49 1.394 . S
C50 C51 1.382 . S
C51 C50 1.382 . S
C51 C52 1.392 . S
C51 N53 1.420 . S
C52 H46 0.930 . S
C52 C48 1.407 . S
C52 C51 1.392 . S
N53 C51 1.420 . S
N53 C54 1.244 . S
C54 N53 1.244 . S
H55 C58 0.929 . S
H56 C61 0.929 . S
H57 C63 0.930 . S
C58 H55 0.929 . S
C58 C59 1.398 . S
C58 C60 1.396 . S
C59 C58 1.398 . S
C59 C63 1.407 . S
C60 C58 1.396 . S
C60 C61 1.394 . S
C61 H56 0.929 . S
C61 C60 1.394 . S
C61 C62 1.382 . S
C62 C61 1.382 . S
C62 C63 1.392 . S
C62 N64 1.420 . S
C63 H57 0.930 . S
C63 C59 1.407 . S
C63 C62 1.392 . S
N64 C62 1.420 . S
N64 C65 1.244 . S
C65 N64 1.244 . S
H66 C69 0.929 . S
H67 C72 0.929 . S
H68 C74 0.930 . S
C69 H66 0.929 . S
C69 C70 1.395 1_565 S
C69 C71 1.394 1_565 S
C70 C69 1.395 1_545 S
C70 C74 1.416 . S
C71 C69 1.394 1_545 S
C71 C72 1.398 . S
C72 H67 0.929 . S
C72 C71 1.398 . S
C72 C73 1.382 . S
C73 C72 1.382 . S
C73 C74 1.392 . S
C73 N75 1.420 . S
C74 H68 0.930 . S
C74 C70 1.416 . S
C74 C73 1.392 . S
N75 C73 1.420 . S
N75 C76 1.236 1_545 S
C76 N75 1.236 1_565 S
H77 C80 0.929 . S
H78 C83 0.929 . S
H79 C85 0.930 . S
C80 H77 0.929 . S
C80 C81 1.398 . S
C80 C82 1.396 . S
C81 C80 1.398 . S
C81 C85 1.407 . S
C82 C80 1.396 . S
C82 C83 1.394 . S
C83 H78 0.929 . S
C83 C82 1.394 . S
C83 C84 1.382 . S
C84 C83 1.382 . S
C84 C85 1.392 . S
C84 N86 1.420 . S
C85 H79 0.930 . S
C85 C81 1.407 . S
C85 C84 1.392 . S
N86 C84 1.420 . S
N86 C87 1.244 . S
C87 N86 1.244 . S
Zn88 O94 1.969 1_455 S
Zn88 O95 1.965 . S
Zn88 O99 2.024 . S
Zn88 O104 1.969 1_455 S
Zn89 O96 1.967 . S
Zn89 O102 1.968 . S
Zn89 O103 1.966 1_455 S
Zn89 O105 2.025 1_455 S
C90 O91 1.229 . S
C90 O99 1.058 . S
O91 C90 1.229 . S
C92 O93 1.229 1_655 S
C92 O105 1.058 . S
O93 C92 1.229 1_455 S
O94 Zn88 1.969 1_655 S
O94 C97 1.267 1_655 S
O95 Zn88 1.965 . S
O95 C106 1.260 1_545 S
O96 Zn89 1.967 . S
O96 C106 1.258 . S
C97 O94 1.267 1_455 S
C97 O98 1.228 . S
O98 C97 1.228 . S
O99 Zn88 2.024 . S
O99 C90 1.058 . S
C100 O101 1.228 . S
C100 O102 1.267 1_655 S
O101 C100 1.228 . S
O102 Zn89 1.968 . S
O102 C100 1.267 1_455 S
O103 Zn89 1.966 1_655 S
O103 C107 1.260 1_565 S
O104 Zn88 1.969 1_655 S
O104 C107 1.258 . S
O105 Zn89 2.025 1_655 S
O105 C92 1.058 . S
C106 O95 1.260 1_565 S
C106 O96 1.258 . S
C107 O103 1.260 1_545 S
C107 O104 1.258 . S
Zn108 O114 1.969 . S
Zn108 O115 1.965 1_565 S
Zn108 O119 2.024 1_565 S
Zn108 O124 1.969 . S
Zn109 O116 1.969 . S
Zn109 O122 1.969 . S
Zn109 O123 1.965 1_545 S
Zn109 O125 2.024 1_545 S
C110 O111 1.229 1_545 S
C110 O119 1.058 . S
O111 C110 1.229 1_565 S
C112 O113 1.229 1_565 S
C112 O125 1.058 . S
O113 C112 1.229 1_545 S
O114 Zn108 1.969 . S
O114 C117 1.267 . S
O115 Zn108 1.965 1_545 S
O115 C126 1.260 . S
O116 Zn109 1.969 . S
O116 C126 1.258 . S
C117 O114 1.267 . S
C117 O118 1.228 1_565 S
O118 C117 1.228 1_545 S
O119 Zn108 2.024 1_545 S
O119 C110 1.058 . S
C120 O121 1.228 1_545 S
C120 O122 1.267 . S
O121 C120 1.228 1_565 S
O122 Zn109 1.969 . S
O122 C120 1.267 . S
O123 Zn109 1.965 1_565 S
O123 C127 1.260 . S
O124 Zn108 1.969 . S
O124 C127 1.258 . S
O125 Zn109 2.024 1_565 S
O125 C112 1.058 . S
C126 O115 1.260 . S
C126 O116 1.258 . S
C127 O123 1.260 . S
C127 O124 1.258 . S
Zn128 O134 1.969 . S
Zn128 O135 1.965 . S
Zn128 O139 2.024 . S
Zn128 O144 1.969 . S
Zn129 O136 1.969 . S
Zn129 O142 1.969 . S
Zn129 O143 1.965 . S
Zn129 O145 2.024 . S
C130 O131 1.229 . S
C130 O139 1.058 . S
O131 C130 1.229 . S
C132 O133 1.229 . S
C132 O145 1.058 . S
O133 C132 1.229 . S
O134 Zn128 1.969 . S
O134 C137 1.267 . S
O135 Zn128 1.965 . S
O135 C146 1.260 . S
O136 Zn129 1.969 . S
O136 C146 1.258 . S
C137 O134 1.267 . S
C137 O138 1.228 . S
O138 C137 1.228 . S
O139 Zn128 2.024 . S
O139 C130 1.058 . S
C140 O141 1.228 . S
C140 O142 1.267 . S
O141 C140 1.228 . S
O142 Zn129 1.969 . S
O142 C140 1.267 . S
O143 Zn129 1.965 . S
O143 C147 1.260 . S
O144 Zn128 1.969 . S
O144 C147 1.258 . S
O145 Zn129 2.024 . S
O145 C132 1.058 . S
C146 O135 1.260 . S
C146 O136 1.258 . S
C147 O143 1.260 . S
C147 O144 1.258 . S
Zn148 O154 1.969 . S
Zn148 O155 1.965 . S
Zn148 O159 2.024 . S
Zn148 O164 1.969 . S
Zn149 O156 1.969 . S
Zn149 O162 1.969 . S
Zn149 O163 1.965 . S
Zn149 O165 2.024 . S
C150 O151 1.229 . S
C150 O159 1.058 . S
O151 C150 1.229 . S
C152 O153 1.229 . S
C152 O165 1.058 . S
O153 C152 1.229 . S
O154 Zn148 1.969 . S
O154 C157 1.267 . S
O155 Zn148 1.965 . S
O155 C166 1.260 . S
O156 Zn149 1.969 . S
O156 C166 1.258 1_655 S
C157 O154 1.267 . S
C157 O158 1.228 . S
O158 C157 1.228 . S
O159 Zn148 2.024 . S
O159 C150 1.058 . S
C160 O161 1.228 . S
C160 O162 1.267 . S
O161 C160 1.228 . S
O162 Zn149 1.969 . S
O162 C160 1.267 . S
O163 Zn149 1.965 . S
O163 C167 1.260 1_655 S
O164 Zn148 1.969 . S
O164 C167 1.258 . S
O165 Zn149 2.024 . S
O165 C152 1.058 . S
C166 O155 1.260 . S
C166 O156 1.258 1_455 S
C167 O163 1.260 1_455 S
C167 O164 1.258 . S
H168 C176 0.950 . S
H169 C181 0.950 . S
H170 C178 0.950 . S
H171 C180 0.954 . S
H172 C182 0.950 . S
H173 C184 0.950 . S
H174 C186 0.950 . S
H175 C187 0.950 . S
C176 H168 0.950 . S
C176 C177 1.392 . S
C176 C178 1.391 . S
C177 C176 1.392 . S
C177 C181 1.389 1_565 S
C178 H170 0.950 . S
C178 C176 1.391 . S
C178 C179 1.400 . S
C179 C178 1.400 . S
C179 C180 1.396 1_565 S
C179 C185 1.491 . S
C180 H171 0.954 . S
C180 C179 1.396 1_545 S
C180 C181 1.392 . S
C181 H169 0.950 . S
C181 C177 1.389 1_545 S
C181 C180 1.392 . S
C182 H172 0.950 . S
C182 C183 1.384 1_545 S
C182 C184 1.391 . S
C183 C182 1.384 1_565 S
C183 C187 1.395 . S
C184 H173 0.950 . S
C184 C182 1.391 . S
C184 C185 1.399 1_545 S
C185 C179 1.491 . S
C185 C184 1.399 1_565 S
C185 C186 1.399 . S
C186 H174 0.950 . S
C186 C185 1.399 . S
C186 C187 1.391 . S
C187 H175 0.950 . S
C187 C183 1.395 . S
C187 C186 1.391 . S
H188 C196 0.950 . S
H189 C201 0.950 . S
H190 C198 0.950 . S
H191 C200 0.950 . S
H192 C202 0.950 . S
H193 C204 0.950 . S
H194 C206 0.950 . S
H195 C207 0.950 . S
C196 H188 0.950 . S
C196 C197 1.386 . S
C196 C198 1.391 . S
C197 C196 1.386 . S
C197 C201 1.393 . S
C198 H190 0.950 . S
C198 C196 1.391 . S
C198 C199 1.400 . S
C199 C198 1.400 . S
C199 C200 1.398 . S
C199 C205 1.491 . S
C200 H191 0.950 . S
C200 C199 1.398 . S
C200 C201 1.391 . S
C201 H189 0.950 . S
C201 C197 1.393 . S
C201 C200 1.391 . S
C202 H192 0.950 . S
C202 C203 1.386 . S
C202 C204 1.391 . S
C203 C202 1.386 . S
C203 C207 1.393 . S
C204 H193 0.950 . S
C204 C202 1.391 . S
C204 C205 1.400 . S
C205 C199 1.491 . S
C205 C204 1.400 . S
C205 C206 1.398 . S
C206 H194 0.950 . S
C206 C205 1.398 . S
C206 C207 1.391 . S
C207 H195 0.950 . S
C207 C203 1.393 . S
C207 C206 1.391 . S
H208 C216 0.950 . S
H209 C221 0.950 . S
H210 C218 0.950 . S
H211 C220 0.950 . S
H212 C222 0.950 . S
H213 C224 0.950 . S
H214 C226 0.950 . S
H215 C227 0.950 . S
C216 H208 0.950 . S
C216 C217 1.386 . S
C216 C218 1.391 . S
C217 C216 1.386 . S
C217 C221 1.393 . S
C218 H210 0.950 . S
C218 C216 1.391 . S
C218 C219 1.400 . S
C219 C218 1.400 . S
C219 C220 1.398 . S
C219 C225 1.491 . S
C220 H211 0.950 . S
C220 C219 1.398 . S
C220 C221 1.391 . S
C221 H209 0.950 . S
C221 C217 1.393 . S
C221 C220 1.391 . S
C222 H212 0.950 . S
C222 C223 1.386 . S
C222 C224 1.391 . S
C223 C222 1.386 . S
C223 C227 1.393 . S
C224 H213 0.950 . S
C224 C222 1.391 . S
C224 C225 1.400 . S
C225 C219 1.491 . S
C225 C224 1.400 . S
C225 C226 1.398 . S
C226 H214 0.950 . S
C226 C225 1.398 . S
C226 C227 1.391 . S
C227 H215 0.950 . S
C227 C223 1.393 . S
C227 C226 1.391 . S
H228 C236 0.950 . S
H229 C241 0.950 . S
H230 C238 0.950 . S
H231 C240 0.950 . S
H232 C242 0.950 . S
H233 C244 0.950 . S
H234 C246 0.950 . S
H235 C247 0.950 . S
C236 H228 0.950 . S
C236 C237 1.386 . S
C236 C238 1.391 . S
C237 C236 1.386 . S
C237 C241 1.393 . S
C238 H230 0.950 . S
C238 C236 1.391 . S
C238 C239 1.400 . S
C239 C238 1.400 . S
C239 C240 1.398 . S
C239 C245 1.491 . S
C240 H231 0.950 . S
C240 C239 1.398 . S
C240 C241 1.391 . S
C241 H229 0.950 . S
C241 C237 1.393 . S
C241 C240 1.391 . S
C242 H232 0.950 . S
C242 C243 1.386 . S
C242 C244 1.391 . S
C243 C242 1.386 . S
C243 C247 1.393 . S
C244 H233 0.950 . S
C244 C242 1.391 . S
C244 C245 1.400 . S
C245 C239 1.491 . S
C245 C244 1.400 . S
C245 C246 1.398 . S
C246 H234 0.950 . S
C246 C245 1.398 . S
C246 C247 1.391 . S
C247 H235 0.950 . S
C247 C243 1.393 . S
C247 C246 1.391 . S
H248 C256 0.950 . S
H249 C261 0.950 . S
H250 C258 0.950 . S
H251 C260 0.950 . S
H252 C262 0.950 . S
H253 C264 0.950 . S
H254 C266 0.950 . S
H255 C267 0.950 . S
C256 H248 0.950 . S
C256 C257 1.391 . S
C256 C258 1.391 . S
C257 C256 1.391 . S
C257 C261 1.388 1_545 S
C258 H250 0.950 . S
C258 C256 1.391 . S
C258 C259 1.430 . S
C259 C258 1.430 . S
C259 C260 1.368 1_545 S
C259 C265 1.491 . S
C260 H251 0.950 . S
C260 C259 1.368 1_565 S
C260 C261 1.391 . S
C261 H249 0.950 . S
C261 C257 1.388 1_565 S
C261 C260 1.391 . S
C262 H252 0.950 . S
C262 C263 1.386 1_565 S
C262 C264 1.391 . S
C263 C262 1.386 1_545 S
C263 C267 1.393 . S
C264 H253 0.950 . S
C264 C262 1.391 . S
C264 C265 1.400 1_565 S
C265 C259 1.491 . S
C265 C264 1.400 1_545 S
C265 C266 1.398 . S
C266 H254 0.950 . S
C266 C265 1.398 . S
C266 C267 1.391 . S
C267 H255 0.950 . S
C267 C263 1.393 . S
C267 C266 1.391 . S
H268 C276 0.950 . S
H269 C281 0.950 . S
H270 C278 0.950 . S
H271 C280 0.950 . S
H272 C282 0.950 . S
H273 C284 0.950 . S
H274 C286 0.950 . S
H275 C287 0.950 . S
C276 H268 0.950 . S
C276 C277 1.386 . S
C276 C278 1.391 . S
C277 C276 1.386 . S
C277 C281 1.393 . S
C278 H270 0.950 . S
C278 C276 1.391 . S
C278 C279 1.400 . S
C279 C278 1.400 . S
C279 C280 1.398 . S
C279 C285 1.491 . S
C280 H271 0.950 . S
C280 C279 1.398 . S
C280 C281 1.391 . S
C281 H269 0.950 . S
C281 C277 1.393 . S
C281 C280 1.391 . S
C282 H272 0.950 . S
C282 C283 1.386 . S
C282 C284 1.391 . S
C283 C282 1.386 . S
C283 C287 1.393 . S
C284 H273 0.950 . S
C284 C282 1.391 . S
C284 C285 1.400 . S
C285 C279 1.491 . S
C285 C284 1.400 . S
C285 C286 1.398 . S
C286 H274 0.950 . S
C286 C285 1.398 . S
C286 C287 1.391 . S
C287 H275 0.950 . S
C287 C283 1.393 . S
C287 C286 1.391 . S
H288 C296 0.950 . S
H289 C301 0.950 1_554 S
H290 C298 0.950 . S
H291 C300 0.950 . S
H292 C302 0.950 . S
H293 C304 0.950 . S
H294 C306 0.950 . S
H295 C307 0.950 . S
C296 H288 0.950 . S
C296 C297 1.386 . S
C296 C298 1.391 . S
C297 C296 1.386 . S
C297 C301 1.393 . S
C298 H290 0.950 . S
C298 C296 1.391 . S
C298 C299 1.400 . S
C299 C298 1.400 . S
C299 C300 1.398 . S
C299 C305 1.491 . S
C300 H291 0.950 . S
C300 C299 1.398 . S
C300 C301 1.391 . S
C301 H289 0.950 1_556 S
C301 C297 1.393 . S
C301 C300 1.391 . S
C302 H292 0.950 . S
C302 C303 1.386 . S
C302 C304 1.391 . S
C303 C302 1.386 . S
C303 C307 1.393 . S
C304 H293 0.950 . S
C304 C302 1.391 . S
C304 C305 1.400 . S
C305 C299 1.491 . S
C305 C304 1.400 . S
C305 C306 1.398 . S
C306 H294 0.950 . S
C306 C305 1.398 . S
C306 C307 1.391 . S
C307 H295 0.950 . S
C307 C303 1.393 . S
C307 C306 1.391 . S
H308 C316 0.950 . S
H309 C321 0.950 1_554 S
H310 C318 0.950 . S
H311 C320 0.950 . S
H312 C322 0.950 . S
H313 C324 0.950 . S
H314 C326 0.950 . S
H315 C327 0.950 1_455 S
C316 H308 0.950 . S
C316 C317 1.386 . S
C316 C318 1.391 . S
C317 C316 1.386 . S
C317 C321 1.393 . S
C318 H310 0.950 . S
C318 C316 1.391 . S
C318 C319 1.400 . S
C319 C318 1.400 . S
C319 C320 1.398 . S
C319 C325 1.491 . S
C320 H311 0.950 . S
C320 C319 1.398 . S
C320 C321 1.391 . S
C321 H309 0.950 1_556 S
C321 C317 1.393 . S
C321 C320 1.391 . S
C322 H312 0.950 . S
C322 C323 1.386 . S
C322 C324 1.391 . S
C323 C322 1.386 . S
C323 C327 1.393 . S
C324 H313 0.950 . S
C324 C322 1.391 . S
C324 C325 1.400 . S
C325 C319 1.491 . S
C325 C324 1.400 . S
C325 C326 1.398 . S
C326 H314 0.950 . S
C326 C325 1.398 . S
C326 C327 1.391 . S
C327 H315 0.950 1_655 S
C327 C323 1.393 . S
C327 C326 1.391 . S
H328 C336 0.950 . S
H329 C341 0.950 . S
H330 C338 0.950 . S
H331 C340 0.950 . S
H332 C342 0.950 . S
H333 C344 0.950 . S
H334 C346 0.950 1_655 S
H335 C347 0.950 . S
C336 H328 0.950 . S
C336 C337 1.386 . S
C336 C338 1.391 . S
C337 C336 1.386 . S
C337 C341 1.393 . S
C338 H330 0.950 . S
C338 C336 1.391 . S
C338 C339 1.400 . S
C339 C338 1.400 . S
C339 C340 1.398 . S
C339 C345 1.491 . S
C340 H331 0.950 . S
C340 C339 1.398 . S
C340 C341 1.391 . S
C341 H329 0.950 . S
C341 C337 1.393 . S
C341 C340 1.391 . S
C342 H332 0.950 . S
C342 C343 1.386 . S
C342 C344 1.391 . S
C343 C342 1.386 . S
C343 C347 1.393 1_455 S
C344 H333 0.950 . S
C344 C342 1.391 . S
C344 C345 1.400 . S
C345 C339 1.491 . S
C345 C344 1.400 . S
C345 C346 1.398 . S
C346 H334 0.950 1_455 S
C346 C345 1.398 . S
C346 C347 1.391 1_455 S
C347 H335 0.950 . S
C347 C343 1.393 1_655 S
C347 C346 1.391 1_655 S
H348 C356 0.950 . S
H349 C361 0.950 . S
H350 C358 0.950 . S
H351 C360 0.950 . S
H352 C362 0.950 . S
H353 C364 0.950 . S
H354 C366 0.950 . S
H355 C367 0.950 . S
C356 H348 0.950 . S
C356 C357 1.395 . S
C356 C358 1.391 . S
C357 C356 1.395 . S
C357 C361 1.384 1_565 S
C358 H350 0.950 . S
C358 C356 1.391 . S
C358 C359 1.400 . S
C359 C358 1.400 . S
C359 C360 1.398 1_565 S
C359 C365 1.491 . S
C360 H351 0.950 . S
C360 C359 1.398 1_545 S
C360 C361 1.391 . S
C361 H349 0.950 . S
C361 C357 1.384 1_545 S
C361 C360 1.391 . S
C362 H352 0.950 . S
C362 C363 1.386 1_545 S
C362 C364 1.391 . S
C363 C362 1.386 1_565 S
C363 C367 1.393 . S
C364 H353 0.950 . S
C364 C362 1.391 . S
C364 C365 1.400 1_545 S
C365 C359 1.491 . S
C365 C364 1.400 1_565 S
C365 C366 1.398 . S
C366 H354 0.950 . S
C366 C365 1.398 . S
C366 C367 1.391 . S
C367 H355 0.950 . S
C367 C363 1.393 . S
C367 C366 1.391 . S
H368 C376 0.950 . S
H369 C381 0.950 . S
H370 C378 0.950 . S
H371 C380 0.950 . S
H372 C382 0.950 . S
H373 C384 0.950 . S
H374 C386 0.950 . S
H375 C387 0.950 . S
C376 H368 0.950 . S
C376 C377 1.386 . S
C376 C378 1.391 . S
C377 C376 1.386 . S
C377 C381 1.393 . S
C378 H370 0.950 . S
C378 C376 1.391 . S
C378 C379 1.400 . S
C379 C378 1.400 . S
C379 C380 1.398 . S
C379 C385 1.491 . S
C380 H371 0.950 . S
C380 C379 1.398 . S
C380 C381 1.391 . S
C381 H369 0.950 . S
C381 C377 1.393 . S
C381 C380 1.391 . S
C382 H372 0.950 . S
C382 C383 1.386 . S
C382 C384 1.391 . S
C383 C382 1.386 . S
C383 C387 1.393 . S
C384 H373 0.950 . S
C384 C382 1.391 . S
C384 C385 1.400 . S
C385 C379 1.491 . S
C385 C384 1.400 . S
C385 C386 1.398 . S
C386 H374 0.950 . S
C386 C385 1.398 . S
C386 C387 1.391 . S
C387 H375 0.950 . S
C387 C383 1.393 . S
C387 C386 1.391 . S
H388 C396 0.950 . S
H389 C401 0.950 . S
H390 C398 0.950 . S
H391 C400 0.950 . S
H392 C402 0.950 . S
H393 C404 0.950 . S
H394 C406 0.950 . S
H395 C407 0.950 . S
C396 H388 0.950 . S
C396 C397 1.386 . S
C396 C398 1.391 . S
C397 C396 1.386 . S
C397 C401 1.393 . S
C398 H390 0.950 . S
C398 C396 1.391 . S
C398 C399 1.400 . S
C399 C398 1.400 . S
C399 C400 1.398 . S
C399 C405 1.491 . S
C400 H391 0.950 . S
C400 C399 1.398 . S
C400 C401 1.391 . S
C401 H389 0.950 . S
C401 C397 1.393 . S
C401 C400 1.391 . S
C402 H392 0.950 . S
C402 C403 1.386 . S
C402 C404 1.391 . S
C403 C402 1.386 . S
C403 C407 1.393 . S
C404 H393 0.950 . S
C404 C402 1.391 . S
C404 C405 1.400 . S
C405 C399 1.491 . S
C405 C404 1.400 . S
C405 C406 1.398 . S
C406 H394 0.950 . S
C406 C405 1.398 . S
C406 C407 1.391 . S
C407 H395 0.950 . S
C407 C403 1.393 . S
C407 C406 1.391 . S
H408 C416 0.950 . S
H409 C421 0.950 1_554 S
H410 C418 0.950 . S
H411 C420 0.950 . S
H412 C422 0.950 . S
H413 C424 0.950 . S
H414 C426 0.950 . S
H415 C427 0.950 . S
C416 H408 0.950 . S
C416 C417 1.386 . S
C416 C418 1.391 . S
C417 C416 1.386 . S
C417 C421 1.393 . S
C418 H410 0.950 . S
C418 C416 1.391 . S
C418 C419 1.400 . S
C419 C418 1.400 . S
C419 C420 1.398 . S
C419 C425 1.491 . S
C420 H411 0.950 . S
C420 C419 1.398 . S
C420 C421 1.391 . S
C421 H409 0.950 1_556 S
C421 C417 1.393 . S
C421 C420 1.391 . S
C422 H412 0.950 . S
C422 C423 1.386 . S
C422 C424 1.391 1_455 S
C423 C422 1.386 . S
C423 C427 1.392 1_455 S
C424 H413 0.950 . S
C424 C422 1.391 1_655 S
C424 C425 1.400 . S
C425 C419 1.491 . S
C425 C424 1.400 . S
C425 C426 1.398 . S
C426 H414 0.950 . S
C426 C425 1.398 . S
C426 C427 1.391 . S
C427 H415 0.950 . S
C427 C423 1.392 1_655 S
C427 C426 1.391 . S
H428 C436 0.950 1_554 S
H429 C441 0.950 . S
H430 C438 0.959 . S
H431 C440 0.950 . S
H432 C442 0.950 . S
H433 C444 0.950 . S
H434 C446 0.950 1_565 S
H435 C447 0.950 . S
C436 H428 0.950 1_556 S
C436 C437 1.386 1_565 S
C436 C438 1.395 . S
C437 C436 1.386 1_545 S
C437 C441 1.393 . S
C438 H430 0.959 . S
C438 C436 1.395 . S
C438 C439 1.390 1_565 S
C439 C438 1.390 1_545 S
C439 C440 1.398 . S
C439 C445 1.491 . S
C440 H431 0.950 . S
C440 C439 1.398 . S
C440 C441 1.391 . S
C441 H429 0.950 . S
C441 C437 1.393 . S
C441 C440 1.391 . S
C442 H432 0.950 . S
C442 C443 1.386 . S
C442 C444 1.391 . S
C443 C442 1.386 . S
C443 C447 1.393 . S
C444 H433 0.950 . S
C444 C442 1.391 . S
C444 C445 1.400 . S
C445 C439 1.491 . S
C445 C444 1.400 . S
C445 C446 1.398 . S
C446 H434 0.950 1_545 S
C446 C445 1.398 . S
C446 C447 1.391 . S
C447 H435 0.950 . S
C447 C443 1.393 . S
C447 C446 1.391 . S
H448 C456 0.950 . S
H449 C461 0.950 . S
H450 C458 0.950 . S
H451 C460 0.950 . S
H452 C462 0.950 . S
H453 C464 0.950 . S
H454 C466 0.950 . S
H455 C467 0.950 . S
C456 H448 0.950 . S
C456 C457 1.386 . S
C456 C458 1.391 . S
C457 C456 1.386 . S
C457 C461 1.393 . S
C458 H450 0.950 . S
C458 C456 1.391 . S
C458 C459 1.400 . S
C459 C458 1.400 . S
C459 C460 1.398 . S
C459 C465 1.491 . S
C460 H451 0.950 . S
C460 C459 1.398 . S
C460 C461 1.391 . S
C461 H449 0.950 . S
C461 C457 1.393 . S
C461 C460 1.391 . S
C462 H452 0.950 . S
C462 C463 1.386 . S
C462 C464 1.391 . S
C463 C462 1.386 . S
C463 C467 1.393 . S
C464 H453 0.950 . S
C464 C462 1.391 . S
C464 C465 1.400 . S
C465 C459 1.491 . S
C465 C464 1.400 . S
C465 C466 1.398 . S
C466 H454 0.950 . S
C466 C465 1.398 . S
C466 C467 1.391 . S
C467 H455 0.950 . S
C467 C463 1.393 . S
C467 C466 1.391 . S
H468 C476 0.950 . S
H469 C481 0.950 1_554 S
H470 C478 0.950 . S
H471 C480 0.950 . S
H472 C482 0.950 . S
H473 C484 0.950 . S
H474 C486 0.950 . S
H475 C487 0.950 . S
C476 H468 0.950 . S
C476 C477 1.386 . S
C476 C478 1.391 . S
C477 C476 1.386 . S
C477 C481 1.393 . S
C478 H470 0.950 . S
C478 C476 1.391 . S
C478 C479 1.400 . S
C479 C478 1.400 . S
C479 C480 1.398 . S
C479 C485 1.491 . S
C480 H471 0.950 . S
C480 C479 1.398 . S
C480 C481 1.391 . S
C481 H469 0.950 1_556 S
C481 C477 1.393 . S
C481 C480 1.391 . S
C482 H472 0.950 . S
C482 C483 1.386 . S
C482 C484 1.391 . S
C483 C482 1.386 . S
C483 C487 1.393 . S
C484 H473 0.950 . S
C484 C482 1.391 . S
C484 C485 1.400 . S
C485 C479 1.491 . S
C485 C484 1.400 . S
C485 C486 1.398 . S
C486 H474 0.950 . S
C486 C485 1.398 . S
C486 C487 1.391 . S
C487 H475 0.950 . S
C487 C483 1.393 . S
C487 C486 1.391 . S
H488 C496 0.950 . S
H489 C501 0.950 . S
H490 C498 0.950 . S
H491 C500 0.950 . S
H492 C502 0.950 1_655 S
H493 C504 0.950 1_655 S
H494 C506 0.950 . S
H495 C507 0.950 . S
C496 H488 0.950 . S
C496 C497 1.386 . S
C496 C498 1.391 1_554 S
C497 C496 1.386 . S
C497 C501 1.393 1_554 S
C498 H490 0.950 . S
C498 C496 1.391 1_556 S
C498 C499 1.400 . S
C499 C498 1.400 . S
C499 C500 1.398 . S
C499 C505 1.491 . S
C500 H491 0.950 . S
C500 C499 1.398 . S
C500 C501 1.391 . S
C501 H489 0.950 . S
C501 C497 1.393 1_556 S
C501 C500 1.391 . S
C502 H492 0.950 1_455 S
C502 C503 1.386 . S
C502 C504 1.391 . S
C503 C502 1.386 . S
C503 C507 1.393 . S
C504 H493 0.950 1_455 S
C504 C502 1.391 . S
C504 C505 1.400 . S
C505 C499 1.491 . S
C505 C504 1.400 . S
C505 C506 1.398 . S
C506 H494 0.950 . S
C506 C505 1.398 . S
C506 C507 1.391 . S
C507 H495 0.950 . S
C507 C503 1.393 . S
C507 C506 1.391 . S
H508 C516 0.950 . S
H509 C521 0.950 . S
H510 C518 0.950 . S
H511 C520 0.946 1_554 S
H512 C522 0.950 . S
H513 C524 0.950 . S
H514 C526 0.950 . S
H515 C527 0.950 . S
C516 H508 0.950 . S
C516 C517 1.386 1_556 S
C516 C518 1.391 . S
C517 C516 1.386 1_554 S
C517 C521 1.393 1_545 S
C518 H510 0.950 . S
C518 C516 1.391 . S
C518 C519 1.400 . S
C519 C518 1.400 . S
C519 C520 1.406 1_545 S
C519 C525 1.491 . S
C520 H511 0.946 1_556 S
C520 C519 1.406 1_565 S
C520 C521 1.387 1_556 S
C521 H509 0.950 . S
C521 C517 1.393 1_565 S
C521 C520 1.387 1_554 S
C522 H512 0.950 . S
C522 C523 1.386 1_565 S
C522 C524 1.391 . S
C523 C522 1.386 1_545 S
C523 C527 1.393 . S
C524 H513 0.950 . S
C524 C522 1.391 . S
C524 C525 1.400 1_565 S
C525 C519 1.491 . S
C525 C524 1.400 1_545 S
C525 C526 1.398 . S
C526 H514 0.950 . S
C526 C525 1.398 . S
C526 C527 1.391 . S
C527 H515 0.950 . S
C527 C523 1.393 . S
C527 C526 1.391 . S
H528 C536 0.950 . S
H529 C541 0.950 . S
H530 C538 0.950 . S
H531 C540 0.950 1_554 S
H532 C542 0.950 . S
H533 C544 0.950 . S
H534 C546 0.950 . S
H535 C547 0.950 . S
C536 H528 0.950 . S
C536 C537 1.386 1_556 S
C536 C538 1.391 . S
C537 C536 1.386 1_554 S
C537 C541 1.393 . S
C538 H530 0.950 . S
C538 C536 1.391 . S
C538 C539 1.400 . S
C539 C538 1.400 . S
C539 C540 1.398 . S
C539 C545 1.491 . S
C540 H531 0.950 1_556 S
C540 C539 1.398 . S
C540 C541 1.391 1_556 S
C541 H529 0.950 . S
C541 C537 1.393 . S
C541 C540 1.391 1_554 S
C542 H532 0.950 . S
C542 C543 1.386 . S
C542 C544 1.391 . S
C543 C542 1.386 . S
C543 C547 1.393 . S
C544 H533 0.950 . S
C544 C542 1.391 . S
C544 C545 1.400 . S
C545 C539 1.491 . S
C545 C544 1.400 . S
C545 C546 1.398 . S
C546 H534 0.950 . S
C546 C545 1.398 . S
C546 C547 1.391 . S
C547 H535 0.950 . S
C547 C543 1.393 . S
C547 C546 1.391 . S
H548 C556 0.950 . S
H549 C561 0.950 . S
H550 C558 0.950 . S
H551 C560 0.950 . S
H552 C562 0.950 . S
H553 C564 0.950 . S
H554 C566 0.950 . S
H555 C567 0.950 . S
C556 H548 0.950 . S
C556 C557 1.386 . S
C556 C558 1.391 . S
C557 C556 1.386 . S
C557 C561 1.393 1_554 S
C558 H550 0.950 . S
C558 C556 1.391 . S
C558 C559 1.400 1_554 S
C559 C558 1.400 1_556 S
C559 C560 1.398 . S
C559 C565 1.491 . S
C560 H551 0.950 . S
C560 C559 1.398 . S
C560 C561 1.391 . S
C561 H549 0.950 . S
C561 C557 1.393 1_556 S
C561 C560 1.391 . S
C562 H552 0.950 . S
C562 C563 1.386 . S
C562 C564 1.391 . S
C563 C562 1.386 . S
C563 C567 1.393 . S
C564 H553 0.950 . S
C564 C562 1.391 . S
C564 C565 1.400 . S
C565 C559 1.491 . S
C565 C564 1.400 . S
C565 C566 1.398 . S
C566 H554 0.950 . S
C566 C565 1.398 . S
C566 C567 1.391 . S
C567 H555 0.950 . S
C567 C563 1.393 . S
C567 C566 1.391 . S
H568 C576 0.950 . S
H569 C581 0.950 . S
H570 C578 0.950 . S
H571 C580 0.950 . S
H572 C582 0.950 . S
H573 C584 0.950 . S
H574 C586 0.950 . S
H575 C587 0.950 . S
C576 H568 0.950 . S
C576 C577 1.386 . S
C576 C578 1.391 . S
C577 C576 1.386 . S
C577 C581 1.393 . S
C578 H570 0.950 . S
C578 C576 1.391 . S
C578 C579 1.400 . S
C579 C578 1.400 . S
C579 C580 1.398 . S
C579 C585 1.491 . S
C580 H571 0.950 . S
C580 C579 1.398 . S
C580 C581 1.391 . S
C581 H569 0.950 . S
C581 C577 1.393 . S
C581 C580 1.391 . S
C582 H572 0.950 . S
C582 C583 1.386 . S
C582 C584 1.391 . S
C583 C582 1.386 . S
C583 C587 1.393 . S
C584 H573 0.950 . S
C584 C582 1.391 . S
C584 C585 1.400 . S
C585 C579 1.491 . S
C585 C584 1.400 . S
C585 C586 1.398 . S
C586 H574 0.950 . S
C586 C585 1.398 . S
C586 C587 1.391 . S
C587 H575 0.950 . S
C587 C583 1.393 . S
C587 C586 1.391 . S
H588 C596 0.950 . S
H589 C601 0.950 . S
H590 C598 0.950 . S
H591 C600 0.950 . S
H592 C602 0.950 . S
H593 C604 0.949 . S
H594 C606 0.950 . S
H595 C607 0.950 . S
C596 H588 0.950 . S
C596 C597 1.385 1_565 S
C596 C598 1.391 . S
C597 C596 1.385 1_545 S
C597 C601 1.393 . S
C598 H590 0.950 . S
C598 C596 1.391 . S
C598 C599 1.400 . S
C599 C598 1.400 . S
C599 C600 1.398 1_565 S
C599 C605 1.491 . S
C600 H591 0.950 . S
C600 C599 1.398 1_545 S
C600 C601 1.391 . S
C601 H589 0.950 . S
C601 C597 1.393 . S
C601 C600 1.391 . S
C602 H592 0.950 . S
C602 C603 1.386 . S
C602 C604 1.391 . S
C603 C602 1.386 . S
C603 C607 1.393 . S
C604 H593 0.949 . S
C604 C602 1.391 . S
C604 C605 1.400 . S
C605 C599 1.491 . S
C605 C604 1.400 . S
C605 C606 1.398 . S
C606 H594 0.950 . S
C606 C605 1.398 . S
C606 C607 1.391 . S
C607 H595 0.950 . S
C607 C603 1.393 . S
C607 C606 1.391 . S
H608 C616 0.950 . S
H609 C621 0.950 . S
H610 C618 0.950 . S
H611 C620 0.950 . S
H612 C622 0.950 . S
H613 C624 0.950 . S
H614 C626 0.950 . S
H615 C627 0.950 . S
C616 H608 0.950 . S
C616 C617 1.386 . S
C616 C618 1.391 . S
C617 C616 1.386 . S
C617 C621 1.393 . S
C618 H610 0.950 . S
C618 C616 1.391 . S
C618 C619 1.400 . S
C619 C618 1.400 . S
C619 C620 1.398 . S
C619 C625 1.491 . S
C620 H611 0.950 . S
C620 C619 1.398 . S
C620 C621 1.391 . S
C621 H609 0.950 . S
C621 C617 1.393 . S
C621 C620 1.391 . S
C622 H612 0.950 . S
C622 C623 1.386 . S
C622 C624 1.391 . S
C623 C622 1.386 . S
C623 C627 1.393 . S
C624 H613 0.950 . S
C624 C622 1.391 . S
C624 C625 1.400 . S
C625 C619 1.491 . S
C625 C624 1.400 . S
C625 C626 1.398 . S
C626 H614 0.950 . S
C626 C625 1.398 . S
C626 C627 1.391 . S
C627 H615 0.950 . S
C627 C623 1.393 . S
C627 C626 1.391 . S
H628 C636 0.950 . S
H629 C641 0.950 . S
H630 C638 0.950 . S
H631 C640 0.950 . S
H632 C642 0.950 . S
H633 C644 0.950 . S
H634 C646 0.950 . S
H635 C647 0.950 . S
C636 H628 0.950 . S
C636 C637 1.386 . S
C636 C638 1.391 . S
C637 C636 1.386 . S
C637 C641 1.393 . S
C638 H630 0.950 . S
C638 C636 1.391 . S
C638 C639 1.400 . S
C639 C638 1.400 . S
C639 C640 1.398 . S
C639 C645 1.491 . S
C640 H631 0.950 . S
C640 C639 1.398 . S
C640 C641 1.391 . S
C641 H629 0.950 . S
C641 C637 1.393 . S
C641 C640 1.391 . S
C642 H632 0.950 . S
C642 C643 1.386 . S
C642 C644 1.391 . S
C643 C642 1.386 . S
C643 C647 1.393 . S
C644 H633 0.950 . S
C644 C642 1.391 . S
C644 C645 1.400 . S
C645 C639 1.491 . S
C645 C644 1.400 . S
C645 C646 1.398 . S
C646 H634 0.950 . S
C646 C645 1.398 . S
C646 C647 1.391 . S
C647 H635 0.950 . S
C647 C643 1.393 . S
C647 C646 1.391 . S
C177 C76 1.463 . S
C183 C106 1.475 . S
C203 C126 1.560 . S
C197 C87 1.541 . S
C223 C146 1.455 . S
C217 C54 1.454 . S
C243 C166 1.547 . S
C237 C65 1.538 . S
C263 C107 1.480 . S
C257 C32 1.480 1_545 S
C277 C43 1.528 . S
C283 C127 1.547 . S
C297 C10 1.473 . S
C303 C147 1.477 . S
C317 C21 1.541 . S
C323 C167 1.560 1_655 S
C343 C97 0.854 . S
C337 C60 0.848 . S
C363 C117 0.804 . S
C357 C71 0.813 1_565 S
C383 C137 0.849 . S
C377 C82 0.868 . S
C397 C49 0.856 . S
C403 C157 0.858 . S
C417 C16 0.853 . S
C423 C100 0.860 1_455 S
C443 C120 0.807 . S
C437 C27 0.829 . S
C463 C140 0.828 . S
C457 C38 0.834 . S
C477 C5 0.834 . S
C483 C160 0.841 . S
C497 C59 1.536 . S
C503 C90 1.485 . S
C517 C70 1.492 . S
C523 C110 1.434 . S
C543 C130 1.476 . S
C537 C81 1.532 . S
C563 C150 1.461 . S
C557 C48 1.502 . S
C577 C15 1.553 . S
C583 C92 1.502 . S
C603 C112 1.463 . S
C597 C26 1.503 . S
C623 C132 1.487 . S
C617 C37 1.524 . S
C637 C4 1.505 . S
C643 C152 1.445 . S
