# Generated by pormake.
# Topology the, (3,8)-cn, num edge types: 1
# Building blocks:
#     Node 0, Type 0, BuildingBlock: MIDCAF_clean_linker_0, # of connection points: 3
#     Node 1, Type 0, BuildingBlock: MIDCAF_clean_linker_0, # of connection points: 3
#     Node 2, Type 0, BuildingBlock: MIDCAF_clean_linker_0, # of connection points: 3
#     Node 3, Type 0, BuildingBlock: MIDCAF_clean_linker_0, # of connection points: 3
#     Node 4, Type 0, BuildingBlock: MIDCAF_clean_linker_0, # of connection points: 3
#     Node 5, Type 0, BuildingBlock: MIDCAF_clean_linker_0, # of connection points: 3
#     Node 6, Type 0, BuildingBlock: MIDCAF_clean_linker_0, # of connection points: 3
#     Node 7, Type 0, BuildingBlock: MIDCAF_clean_linker_0, # of connection points: 3
#     Node 8, Type 1, BuildingBlock: GIZVER_clean_sbu_0, # of connection points: 8
#     Node 9, Type 1, BuildingBlock: GIZVER_clean_sbu_0, # of connection points: 8
#     Node 10, Type 1, BuildingBlock: GIZVER_clean_sbu_0, # of connection points: 8
#     Edge 11, Type (0, 1), BuildingBlock: XUDNAN_clean_linker_2, # of connection points: 2
#     Edge 12, Type (0, 1), BuildingBlock: XUDNAN_clean_linker_2, # of connection points: 2
#     Edge 13, Type (0, 1), BuildingBlock: XUDNAN_clean_linker_2, # of connection points: 2
#     Edge 14, Type (0, 1), BuildingBlock: XUDNAN_clean_linker_2, # of connection points: 2
#     Edge 15, Type (0, 1), BuildingBlock: XUDNAN_clean_linker_2, # of connection points: 2
#     Edge 16, Type (0, 1), BuildingBlock: XUDNAN_clean_linker_2, # of connection points: 2
#     Edge 17, Type (0, 1), BuildingBlock: XUDNAN_clean_linker_2, # of connection points: 2
#     Edge 18, Type (0, 1), BuildingBlock: XUDNAN_clean_linker_2, # of connection points: 2
#     Edge 19, Type (0, 1), BuildingBlock: XUDNAN_clean_linker_2, # of connection points: 2
#     Edge 20, Type (0, 1), BuildingBlock: XUDNAN_clean_linker_2, # of connection points: 2
#     Edge 21, Type (0, 1), BuildingBlock: XUDNAN_clean_linker_2, # of connection points: 2
#     Edge 22, Type (0, 1), BuildingBlock: XUDNAN_clean_linker_2, # of connection points: 2
#     Edge 23, Type (0, 1), BuildingBlock: XUDNAN_clean_linker_2, # of connection points: 2
#     Edge 24, Type (0, 1), BuildingBlock: XUDNAN_clean_linker_2, # of connection points: 2
#     Edge 25, Type (0, 1), BuildingBlock: XUDNAN_clean_linker_2, # of connection points: 2
#     Edge 26, Type (0, 1), BuildingBlock: XUDNAN_clean_linker_2, # of connection points: 2
#     Edge 27, Type (0, 1), BuildingBlock: XUDNAN_clean_linker_2, # of connection points: 2
#     Edge 28, Type (0, 1), BuildingBlock: XUDNAN_clean_linker_2, # of connection points: 2
#     Edge 29, Type (0, 1), BuildingBlock: XUDNAN_clean_linker_2, # of connection points: 2
#     Edge 30, Type (0, 1), BuildingBlock: XUDNAN_clean_linker_2, # of connection points: 2
#     Edge 31, Type (0, 1), BuildingBlock: XUDNAN_clean_linker_2, # of connection points: 2
#     Edge 32, Type (0, 1), BuildingBlock: XUDNAN_clean_linker_2, # of connection points: 2
#     Edge 33, Type (0, 1), BuildingBlock: XUDNAN_clean_linker_2, # of connection points: 2
#     Edge 34, Type (0, 1), BuildingBlock: XUDNAN_clean_linker_2, # of connection points: 2
# Relax obj value: 0.045
# Max RMSD: 0.138
# Mean RMSD: 0.067
data_MOF--net-the--node1-GIZVER_clean_sbu_0--node2-MIDCAF_clean_linker_0--edge1-XUDNAN_clean_linker_2
_symmetry_space_group_name_H-M    P1
_symmetry_Int_Tables_number       1
_symmetry_cell_setting            triclinic
loop_
_symmetry_equiv_pos_as_xyz
'x, y, z'
_cell_length_a     50.019004
_cell_length_b     47.117559
_cell_length_c     43.744242
_cell_angle_alpha  86.690027
_cell_angle_beta   94.283781
_cell_angle_gamma 101.7854
loop_
_atom_site_label
_atom_site_type_symbol
_atom_site_fract_x
_atom_site_fract_y
_atom_site_fract_z
_atom_type_partial_charge
C0 C 0.21619 0.35879 0.38887 0.0
C1 C 0.21139 0.35369 0.42003 0.0
C2 C 0.2232 0.33298 0.43742 0.0
C3 C 0.24151 0.31922 0.42426 0.0
H4 H 0.30699 0.27855 0.44807 0.0
H5 H 0.33245 0.24621 0.47834 0.0
H6 H 0.36305 0.22308 0.39556 0.0
H7 H 0.33827 0.25594 0.3652 0.0
H8 H 0.34416 0.31347 0.30928 0.0
H9 H 0.36826 0.34617 0.27003 0.0
H10 H 0.32162 0.41071 0.28654 0.0
H11 H 0.29727 0.37829 0.32511 0.0
H12 H 0.23837 0.35041 0.35188 0.0
H13 H 0.20685 0.37444 0.37504 0.0
H14 H 0.21954 0.32878 0.46152 0.0
H15 H 0.25169 0.30458 0.43857 0.0
N16 N 0.2836 0.29663 0.39661 0.0
N17 N 0.31739 0.30432 0.36075 0.0
N18 N 0.2824 0.3308 0.35587 0.0
C19 C 0.30649 0.29012 0.38632 0.0
C20 C 0.3054 0.32487 0.34551 0.0
C21 C 0.27123 0.31669 0.38116 0.0
C22 C 0.32068 0.26964 0.4043 0.0
C23 C 0.31903 0.26643 0.43632 0.0
C24 C 0.33362 0.24815 0.45365 0.0
C25 C 0.34948 0.23238 0.43907 0.0
C26 C 0.35077 0.23512 0.40709 0.0
C27 C 0.33671 0.25388 0.38983 0.0
C28 C 0.31882 0.34326 0.32029 0.0
C29 C 0.33891 0.33453 0.30432 0.0
C30 C 0.35262 0.35313 0.28189 0.0
C31 C 0.34681 0.3809 0.27562 0.0
C32 C 0.32655 0.38947 0.29124 0.0
C33 C 0.31252 0.37076 0.31316 0.0
C34 C 0.24803 0.3261 0.39359 0.0
C35 C 0.23424 0.34504 0.37571 0.0
C36 C 0.67234 0.23301 0.37868 0.0
C37 C 0.64784 0.21752 0.36472 0.0
C38 C 0.63665 0.22973 0.33785 0.0
C39 C 0.64961 0.25661 0.32528 0.0
H40 H 0.64066 0.31652 0.25596 0.0
H41 H 0.61859 0.33819 0.21177 0.0
H42 H 0.68478 0.41312 0.21337 0.0
H43 H 0.70726 0.39118 0.25727 0.0
H44 H 0.76283 0.38538 0.30102 0.0
H45 H 0.80766 0.40852 0.32328 0.0
H46 H 0.79494 0.35222 0.40449 0.0
H47 H 0.75012 0.32895 0.38233 0.0
H48 H 0.7041 0.27106 0.37762 0.0
H49 H 0.68137 0.2246 0.39966 0.0
H50 H 0.61802 0.21833 0.32622 0.0
H51 H 0.64037 0.26515 0.3045 0.0
N52 N 0.67654 0.31287 0.30052 0.0
N53 N 0.71377 0.35235 0.30062 0.0
N54 N 0.71262 0.31456 0.33825 0.0
C55 C 0.68913 0.33877 0.28782 0.0
C56 C 0.72567 0.34041 0.32589 0.0
C57 C 0.6881 0.30057 0.3257 0.0
C58 C 0.67584 0.35204 0.26042 0.0
C59 C 0.65064 0.33761 0.24695 0.0
C60 C 0.63782 0.35014 0.2216 0.0
C61 C 0.64977 0.37751 0.20891 0.0
C62 C 0.67508 0.39186 0.2222 0.0
C63 C 0.68794 0.37932 0.24759 0.0
C64 C 0.75276 0.35516 0.33975 0.0
C65 C 0.76948 0.37794 0.32366 0.0
C66 C 0.79529 0.39112 0.33636 0.0
C67 C 0.80496 0.38215 0.36564 0.0
C68 C 0.78806 0.35977 0.38198 0.0
C69 C 0.7624 0.34632 0.36914 0.0
C70 C 0.67417 0.27206 0.33919 0.0
C71 C 0.68533 0.25986 0.3661 0.0
C72 C 0.67752 0.64929 0.24986 0.0
C73 C 0.66232 0.66352 0.2279 0.0
C74 C 0.66072 0.69243 0.23226 0.0
C75 C 0.67395 0.7068 0.25805 0.0
H76 H 0.66808 0.77354 0.31695 0.0
H77 H 0.65242 0.8139 0.33764 0.0
H78 H 0.71139 0.81402 0.41505 0.0
H79 H 0.72753 0.77456 0.39408 0.0
H80 H 0.77992 0.74788 0.38206 0.0
H81 H 0.82131 0.73546 0.40676 0.0
H82 H 0.79967 0.6507 0.36828 0.0
H83 H 0.7587 0.66372 0.34238 0.0
H84 H 0.70303 0.65238 0.2917 0.0
H85 H 0.67916 0.62703 0.24702 0.0
H86 H 0.64901 0.70388 0.2158 0.0
H87 H 0.67227 0.72908 0.26066 0.0
N88 N 0.6955 0.73148 0.31708 0.0
N89 N 0.73151 0.73764 0.35511 0.0
N90 N 0.72681 0.70013 0.32094 0.0
C91 C 0.70893 0.74606 0.34151 0.0
C92 C 0.74068 0.71486 0.34505 0.0
C93 C 0.70426 0.70842 0.30671 0.0
C94 C 0.69915 0.77072 0.35372 0.0
C95 C 0.67777 0.78224 0.33833 0.0
C96 C 0.66869 0.80533 0.3503 0.0
C97 C 0.68067 0.8174 0.37803 0.0
C98 C 0.702 0.80579 0.39336 0.0
C99 C 0.71116 0.7829 0.38136 0.0
C100 C 0.76588 0.7068 0.36017 0.0
C101 C 0.78393 0.72655 0.37882 0.0
C102 C 0.8077 0.71934 0.39321 0.0
C103 C 0.81401 0.692 0.38974 0.0
C104 C 0.79587 0.67217 0.37114 0.0
C105 C 0.77221 0.67955 0.35638 0.0
C106 C 0.6896 0.69279 0.27979 0.0
C107 C 0.69127 0.66386 0.27534 0.0
C108 C 0.20447 0.66784 0.36929 0.0
C109 C 0.19334 0.63945 0.36007 0.0
C110 C 0.20995 0.62502 0.34454 0.0
C111 C 0.23657 0.63859 0.33797 0.0
H112 H 0.29388 0.63165 0.28125 0.0
H113 H 0.31449 0.60948 0.24284 0.0
H114 H 0.38897 0.67381 0.25488 0.0
H115 H 0.36836 0.69622 0.29391 0.0
H116 H 0.37045 0.73698 0.35936 0.0
H117 H 0.39363 0.78091 0.38426 0.0
H118 H 0.31589 0.8069 0.38835 0.0
H119 H 0.29274 0.76188 0.36537 0.0
H120 H 0.23914 0.70331 0.37016 0.0
H121 H 0.19233 0.67977 0.38111 0.0
H122 H 0.20258 0.60291 0.33776 0.0
H123 H 0.24851 0.62653 0.32601 0.0
N124 N 0.28963 0.66832 0.32016 0.0
N125 N 0.32865 0.70518 0.3265 0.0
N126 N 0.28922 0.70628 0.35234 0.0
C127 C 0.31572 0.68015 0.31325 0.0
C128 C 0.31551 0.71843 0.34602 0.0
C129 C 0.2762 0.68102 0.33966 0.0
C130 C 0.32929 0.666 0.29073 0.0
C131 C 0.3147 0.64119 0.27597 0.0
C132 C 0.32649 0.62846 0.2537 0.0
C133 C 0.3533 0.64 0.24546 0.0
C134 C 0.3683 0.66429 0.26075 0.0
C135 C 0.3564 0.67722 0.28303 0.0
C136 C 0.32972 0.74582 0.36041 0.0
C137 C 0.35834 0.75211 0.36562 0.0
C138 C 0.37168 0.7776 0.37976 0.0
C139 C 0.35688 0.79801 0.38847 0.0
C140 C 0.32818 0.79173 0.38278 0.0
C141 C 0.31481 0.76589 0.3693 0.0
C142 C 0.2477 0.66699 0.34698 0.0
C143 C 0.23134 0.68142 0.36289 0.0
C144 C 0.22846 0.63897 0.69491 0.0
C145 C 0.21916 0.65418 0.66902 0.0
C146 C 0.23215 0.68309 0.66303 0.0
C147 C 0.25477 0.69613 0.68149 0.0
H148 H 0.30946 0.77937 0.70657 0.0
H149 H 0.33339 0.82441 0.68285 0.0
H150 H 0.40875 0.79202 0.69294 0.0
H151 H 0.38491 0.74811 0.71903 0.0
H152 H 0.32508 0.69914 0.82162 0.0
H153 H 0.34774 0.67637 0.86503 0.0
H154 H 0.38141 0.62766 0.80194 0.0
H155 H 0.35756 0.64965 0.75896 0.0
H156 H 0.25875 0.63937 0.73247 0.0
H157 H 0.21887 0.61659 0.69993 0.0
H158 H 0.22527 0.69541 0.64337 0.0
H159 H 0.26454 0.71823 0.67543 0.0
N160 N 0.30537 0.72026 0.71364 0.0
N161 N 0.3412 0.71748 0.75068 0.0
N162 N 0.30265 0.67923 0.74721 0.0
C163 C 0.33017 0.73218 0.727 0.0
C164 C 0.32738 0.69119 0.76107 0.0
C165 C 0.29146 0.69378 0.72334 0.0
C166 C 0.34533 0.76029 0.71461 0.0
C167 C 0.33124 0.78218 0.70404 0.0
C168 C 0.34502 0.80792 0.69006 0.0
C169 C 0.37316 0.8121 0.68525 0.0
C170 C 0.38729 0.79019 0.69648 0.0
C171 C 0.3736 0.7648 0.71134 0.0
C172 C 0.33949 0.67587 0.78718 0.0
C173 C 0.33704 0.68322 0.81729 0.0
C174 C 0.35029 0.67035 0.84207 0.0
C175 C 0.36666 0.65014 0.83723 0.0
C176 C 0.36869 0.64265 0.80684 0.0
C177 C 0.35517 0.65532 0.78212 0.0
C178 C 0.26528 0.68056 0.70641 0.0
C179 C 0.25139 0.65201 0.7134 0.0
C180 C 0.23857 0.35084 0.66426 0.0
C181 C 0.2357 0.34717 0.63246 0.0
C182 C 0.25253 0.33119 0.61952 0.0
C183 C 0.27235 0.31983 0.63782 0.0
H184 H 0.32949 0.26504 0.63672 0.0
H185 H 0.35497 0.23062 0.61885 0.0
H186 H 0.39234 0.22254 0.71035 0.0
H187 H 0.36781 0.2573 0.72783 0.0
H188 H 0.38495 0.33408 0.7514 0.0
H189 H 0.40555 0.36169 0.7952 0.0
H190 H 0.3252 0.37069 0.81864 0.0
H191 H 0.30503 0.34487 0.77312 0.0
H192 H 0.261 0.34392 0.7068 0.0
H193 H 0.22603 0.36328 0.67478 0.0
H194 H 0.25071 0.32799 0.59506 0.0
H195 H 0.28538 0.30822 0.62692 0.0
N196 N 0.31153 0.29469 0.67806 0.0
N197 N 0.34324 0.30073 0.72065 0.0
N198 N 0.30909 0.32848 0.71478 0.0
C199 C 0.33338 0.287 0.69441 0.0
C200 C 0.33127 0.32144 0.731 0.0
C201 C 0.29916 0.3153 0.68818 0.0
C202 C 0.34694 0.26439 0.68362 0.0
C203 C 0.34305 0.25577 0.65303 0.0
C204 C 0.35754 0.2359 0.6428 0.0
C205 C 0.37609 0.22412 0.663 0.0
C206 C 0.37884 0.23174 0.69389 0.0
C207 C 0.36466 0.25169 0.70398 0.0
C208 C 0.34335 0.33727 0.75876 0.0
C209 C 0.3717 0.34194 0.76597 0.0
C210 C 0.38351 0.35767 0.79144 0.0
C211 C 0.36724 0.36855 0.81109 0.0
C212 C 0.3387 0.36337 0.804 0.0
C213 C 0.32698 0.34829 0.77796 0.0
C214 C 0.27618 0.32468 0.66943 0.0
C215 C 0.25875 0.33994 0.68251 0.0
C216 C 0.6735 0.23928 0.65062 0.0
C217 C 0.65394 0.22061 0.66776 0.0
C218 C 0.64974 0.22835 0.69736 0.0
C219 C 0.66491 0.25407 0.70961 0.0
H220 H 0.65858 0.33278 0.75885 0.0
H221 H 0.64325 0.3621 0.79552 0.0
H222 H 0.72729 0.40259 0.81911 0.0
H223 H 0.74246 0.37414 0.78174 0.0
H224 H 0.79453 0.33558 0.74061 0.0
H225 H 0.83965 0.35428 0.72159 0.0
H226 H 0.80114 0.37492 0.6333 0.0
H227 H 0.75663 0.35345 0.65191 0.0
H228 H 0.70425 0.27823 0.64938 0.0
H229 H 0.67732 0.23386 0.62783 0.0
H230 H 0.63467 0.21448 0.71103 0.0
H231 H 0.66137 0.25923 0.73259 0.0
N232 N 0.6944 0.3118 0.72986 0.0
N233 N 0.73664 0.34466 0.73259 0.0
N234 N 0.728 0.3089 0.69597 0.0
C235 C 0.71121 0.33513 0.74289 0.0
C236 C 0.74506 0.33175 0.70916 0.0
C237 C 0.70277 0.29846 0.70647 0.0
C238 C 0.70177 0.35111 0.76711 0.0
C239 C 0.67381 0.34779 0.77201 0.0
C240 C 0.66501 0.36461 0.79321 0.0
C241 C 0.68396 0.38502 0.81033 0.0
C242 C 0.71197 0.38769 0.80596 0.0
C243 C 0.72072 0.37112 0.78459 0.0
C244 C 0.77231 0.34301 0.6976 0.0
C245 C 0.79601 0.34387 0.71704 0.0
C246 C 0.82188 0.35493 0.70609 0.0
C247 C 0.82461 0.36641 0.67568 0.0
C248 C 0.80048 0.36566 0.65649 0.0
C249 C 0.77475 0.35363 0.66718 0.0
C250 C 0.68504 0.27234 0.69278 0.0
C251 C 0.68902 0.26466 0.66307 0.0
C252 C 0.61323 0.61691 0.69452 0.0
C253 C 0.62794 0.60439 0.7184 0.0
C254 C 0.65428 0.60017 0.71356 0.0
C255 C 0.6664 0.61027 0.68606 0.0
H256 H 0.7393 0.62297 0.6386 0.0
H257 H 0.78483 0.61839 0.62549 0.0
H258 H 0.76898 0.65202 0.53352 0.0
H259 H 0.72352 0.65702 0.54658 0.0
H260 H 0.67587 0.69891 0.53825 0.0
H261 H 0.66201 0.74288 0.51531 0.0
H262 H 0.62942 0.75671 0.60057 0.0
H263 H 0.64253 0.71259 0.62333 0.0
H264 H 0.61368 0.63765 0.64986 0.0
H265 H 0.59268 0.61995 0.69743 0.0
H266 H 0.66607 0.59064 0.73166 0.0
H267 H 0.68723 0.60806 0.68347 0.0
N268 N 0.68918 0.63234 0.62701 0.0
N269 N 0.6918 0.66865 0.58758 0.0
N270 N 0.65649 0.66189 0.62109 0.0
C271 C 0.70192 0.64668 0.60251 0.0
C272 C 0.66923 0.67649 0.59688 0.0
C273 C 0.66611 0.63957 0.63606 0.0
C274 C 0.72794 0.64048 0.59366 0.0
C275 C 0.74535 0.62901 0.61548 0.0
C276 C 0.77144 0.62662 0.60809 0.0
C277 C 0.78032 0.63517 0.57863 0.0
C278 C 0.7625 0.64536 0.55638 0.0
C279 C 0.73659 0.64825 0.56391 0.0
C280 C 0.66009 0.70226 0.5825 0.0
C281 C 0.66565 0.71131 0.55202 0.0
C282 C 0.65781 0.73637 0.53891 0.0
C283 C 0.64497 0.7531 0.55637 0.0
C284 C 0.63959 0.74421 0.58684 0.0
C285 C 0.64683 0.71886 0.5997 0.0
C286 C 0.65234 0.62483 0.66313 0.0
C287 C 0.62531 0.62711 0.66728 0.0
Co288 Co 0.07228 0.48385 0.53165 0.0
Co289 Co 0.03632 0.46921 0.48423 0.0
Co290 Co 0.01444 0.5119 0.52204 0.0
O291 O 0.0331 0.47806 0.52522 0.0
H292 H 0.02339 0.46149 0.53672 0.0
O293 O 0.99614 0.5462 0.51907 0.0
Co294 Co 0.97196 0.55787 0.48559 0.0
Co295 Co 0.9637 0.53517 0.5359 0.0
H296 H 0.00721 0.56272 0.52913 0.0
O297 O 0.04725 0.43519 0.47375 0.0
O298 O 0.07404 0.47712 0.48808 0.0
O299 O 0.02859 0.49697 0.45185 0.0
O300 O 0.03485 0.53145 0.48538 0.0
O301 O 0.98561 0.4881 0.49412 0.0
O302 O 0.95153 0.57122 0.4559 0.0
O303 O 0.97917 0.59672 0.49204 0.0
O304 O 0.96024 0.5193 0.47436 0.0
O305 O 0.99402 0.49247 0.55914 0.0
O306 O 0.95114 0.49497 0.54473 0.0
O307 O 0.94061 0.553 0.51253 0.0
O308 O 0.95686 0.56036 0.56207 0.0
C309 C 0.10057 0.45837 0.54436 0.0
C310 C 0.06919 0.53854 0.54297 0.0
C311 C 0.03606 0.52348 0.45814 0.0
C312 C 0.07134 0.4516 0.4774 0.0
C313 C 0.96095 0.5957 0.4688 0.0
C314 C 0.96535 0.49402 0.47733 0.0
C315 C 0.96819 0.48226 0.55973 0.0
C316 C 0.94112 0.56592 0.53836 0.0
O317 O 0.10803 0.48601 0.53791 0.0
O318 O 0.07453 0.44632 0.54266 0.0
O319 O 0.04433 0.53454 0.55003 0.0
O320 O 0.07547 0.5235 0.52251 0.0
Co321 Co 0.54703 0.96114 0.48522 0.0
Co322 Co 0.54956 0.96064 0.54515 0.0
Co323 Co 0.51428 0.00981 0.5194 0.0
O324 O 0.54534 0.98932 0.51496 0.0
H325 H 0.5623 1.00347 0.51528 0.0
O326 O 0.48414 0.03115 0.52443 0.0
Co327 Co 0.49258 0.06837 0.54283 0.0
Co328 Co 0.47607 0.05078 0.48802 0.0
H329 H 0.46782 0.01868 0.53179 0.0
O330 O 0.5817 0.94604 0.55413 0.0
O331 O 0.54774 0.93123 0.51864 0.0
O332 O 0.52065 0.95002 0.57214 0.0
O333 O 0.49573 0.98166 0.55214 0.0
O334 O 0.53862 0.03393 0.55128 0.0
O335 O 0.49827 0.10159 0.56111 0.0
O336 O 0.45944 0.06753 0.55853 0.0
O337 O 0.52831 0.07396 0.53011 0.0
O338 O 0.53266 0.03775 0.48632 0.0
O339 O 0.50151 0.05574 0.45656 0.0
O340 O 0.48029 0.08696 0.5042 0.0
O341 O 0.44245 0.0607 0.48055 0.0
C342 C 0.5776 0.9473 0.46474 0.0
C343 C 0.48808 0.9607 0.47958 0.0
C344 C 0.49915 0.96046 0.57075 0.0
C345 C 0.56998 0.9274 0.53409 0.0
C346 C 0.47319 0.09234 0.56844 0.0
C347 C 0.54375 0.06163 0.54835 0.0
C348 C 0.52594 0.05258 0.46254 0.0
C349 C 0.45502 0.08443 0.49326 0.0
O350 O 0.55191 0.93641 0.45823 0.0
O351 O 0.5842 0.96799 0.48429 0.0
O352 O 0.4886 0.98627 0.48811 0.0
O353 O 0.50926 0.9498 0.4814 0.0
Co354 Co 0.4838 0.53434 0.08294 0.0
Co355 Co 0.475 0.48104 0.07016 0.0
Co356 Co 0.51388 0.51666 0.0199 0.0
O357 O 0.48244 0.51427 0.04607 0.0
H358 H 0.46605 0.5159 0.03345 0.0
O359 O 0.5452 0.51935 0.99255 0.0
Co360 Co 0.55136 0.49084 0.96416 0.0
Co361 Co 0.53448 0.53344 0.95589 0.0
H362 H 0.56196 0.5312 1.00077 0.0
O363 O 0.44013 0.46522 0.07991 0.0
O364 O 0.47206 0.49713 0.10676 0.0
O365 O 0.50273 0.4588 0.07615 0.0
O366 O 0.53122 0.48589 0.0442 0.0
O367 O 0.48852 0.48681 0.99452 0.0
O368 O 0.55939 0.4653 0.94039 0.0
O369 O 0.58881 0.50034 0.96545 0.0
O370 O 0.51374 0.47655 0.95837 0.0
O371 O 0.49756 0.54843 0.996 0.0
O372 O 0.49684 0.53585 0.94803 0.0
O373 O 0.5498 0.51803 0.92653 0.0
O374 O 0.55769 0.56443 0.94298 0.0
C375 C 0.4568 0.55298 0.10472 0.0
C376 C 0.54016 0.54607 0.07568 0.0
C377 C 0.52578 0.46521 0.06461 0.0
C378 C 0.4484 0.47923 0.10474 0.0
C379 C 0.58432 0.47858 0.94712 0.0
C380 C 0.49097 0.47427 0.97011 0.0
C381 C 0.48695 0.54789 0.96837 0.0
C382 C 0.55949 0.54604 0.92249 0.0
O383 O 0.4817 0.55396 0.11638 0.0
O384 O 0.44898 0.53984 0.07911 0.0
O385 O 0.53806 0.54672 0.04627 0.0
O386 O 0.521 0.53176 0.0913 0.0
H387 H 0.16336 0.33764 0.44852 0.0
H388 H 0.22553 0.41177 0.4226 0.0
H389 H 0.19763 0.44487 0.43918 0.0
H390 H 0.10805 0.36524 0.42064 0.0
H391 H 0.08577 0.35129 0.45093 0.0
H392 H 0.11243 0.33287 0.44285 0.0
H393 H 0.13193 0.33697 0.49923 0.0
H394 H 0.10537 0.35547 0.5079 0.0
H395 H 0.1408 0.37203 0.51581 0.0
H396 H 0.16131 0.4695 0.45055 0.0
H397 H 0.1189 0.48523 0.4606 0.0
H398 H 0.07915 0.39558 0.47878 0.0
C399 C 0.17131 0.36082 0.44739 0.0
C400 C 0.1964 0.37242 0.43449 0.0
C401 C 0.20623 0.40276 0.43252 0.0
C402 C 0.19064 0.42163 0.44195 0.0
C403 C 0.1654 0.4097 0.4534 0.0
C404 C 0.15586 0.38005 0.45664 0.0
C405 C 0.12694 0.37318 0.46707 0.0
C406 C 0.10715 0.35455 0.44398 0.0
C407 C 0.12622 0.35855 0.49942 0.0
C408 C 0.12131 0.40352 0.46737 0.0
C409 C 0.14399 0.42419 0.45991 0.0
C410 C 0.14354 0.45362 0.45699 0.0
C411 C 0.11936 0.4623 0.46255 0.0
C412 C 0.09596 0.44155 0.47046 0.0
C413 C 0.09685 0.41179 0.47272 0.0
H414 H 0.59252 0.19636 0.36902 0.0
H415 H 0.67177 0.17366 0.39132 0.0
H416 H 0.64908 0.12715 0.41539 0.0
H417 H 0.56237 0.1672 0.43731 0.0
H418 H 0.52894 0.15415 0.41905 0.0
H419 H 0.55145 0.18491 0.40232 0.0
H420 H 0.54732 0.1587 0.35116 0.0
H421 H 0.52487 0.12777 0.36784 0.0
H422 H 0.55551 0.12317 0.35116 0.0
H423 H 0.61762 0.08411 0.43998 0.0
H424 H 0.58021 0.04892 0.46338 0.0
H425 H 0.52164 0.09899 0.42291 0.0
C426 C 0.60514 0.18143 0.37843 0.0
C427 C 0.63403 0.18886 0.37822 0.0
C428 C 0.64967 0.16879 0.39149 0.0
C429 C 0.63694 0.14214 0.40501 0.0
C430 C 0.60847 0.13564 0.40495 0.0
C431 C 0.59277 0.15471 0.39191 0.0
C432 C 0.56261 0.14308 0.39591 0.0
C433 C 0.55065 0.16355 0.41477 0.0
C434 C 0.54664 0.13787 0.36465 0.0
C435 C 0.5638 0.11469 0.4136 0.0
C436 C 0.59041 0.1107 0.41852 0.0
C437 C 0.59667 0.08685 0.4359 0.0
C438 C 0.57526 0.06692 0.44907 0.0
C439 C 0.54786 0.07086 0.44474 0.0
C440 C 0.5422 0.09486 0.4262 0.0
H441 H 0.84737 0.65851 0.36858 0.0
H442 H 0.83808 0.70748 0.44688 0.0
H443 H 0.87959 0.69424 0.47279 0.0
H444 H 0.86555 0.59956 0.41228 0.0
H445 H 0.88909 0.59282 0.38562 0.0
H446 H 0.86075 0.60927 0.37207 0.0
H447 H 0.89446 0.65262 0.34804 0.0
H448 H 0.92298 0.63642 0.36192 0.0
H449 H 0.92198 0.67276 0.37189 0.0
H450 H 0.9202 0.67163 0.49233 0.0
H451 H 0.95369 0.6397 0.50411 0.0
H452 H 0.93505 0.60503 0.4136 0.0
C453 C 0.85394 0.66654 0.39116 0.0
C454 C 0.83936 0.68431 0.40542 0.0
C455 C 0.84908 0.69441 0.43499 0.0
C456 C 0.8727 0.68696 0.44999 0.0
C457 C 0.88644 0.66928 0.43528 0.0
C458 C 0.87726 0.6591 0.40657 0.0
C459 C 0.8942 0.63853 0.39664 0.0
C460 C 0.87634 0.60826 0.39136 0.0
C461 C 0.9093 0.65083 0.36792 0.0
C462 C 0.91398 0.63815 0.4245 0.0
C463 C 0.90951 0.65627 0.44648 0.0
C464 C 0.92422 0.65783 0.475 0.0
C465 C 0.94338 0.63979 0.48145 0.0
C466 C 0.94722 0.62017 0.45964 0.0
C467 C 0.93288 0.62014 0.43056 0.0
H468 H 0.40941 0.82958 0.3808 0.0
H469 H 0.33754 0.82912 0.43102 0.0
H470 H 0.36132 0.87386 0.45564 0.0
H471 H 0.45709 0.84992 0.44412 0.0
H472 H 0.48259 0.87141 0.42071 0.0
H473 H 0.45873 0.84115 0.40481 0.0
H474 H 0.44395 0.87521 0.36093 0.0
H475 H 0.46759 0.90565 0.37694 0.0
H476 H 0.43187 0.907 0.37023 0.0
H477 H 0.39445 0.91883 0.47669 0.0
H478 H 0.43466 0.9557 0.49488 0.0
H479 H 0.48482 0.92369 0.43356 0.0
C480 C 0.3985 0.83855 0.39707 0.0
C481 C 0.37124 0.82548 0.40346 0.0
C482 C 0.35805 0.83874 0.4248 0.0
C483 C 0.3715 0.86422 0.43918 0.0
C484 C 0.39835 0.8763 0.43237 0.0
C485 C 0.41174 0.86362 0.41202 0.0
C486 C 0.44116 0.87946 0.41014 0.0
C487 C 0.46106 0.85929 0.42058 0.0
C488 C 0.44644 0.89261 0.37763 0.0
C489 C 0.44236 0.9029 0.43278 0.0
C490 C 0.41742 0.90114 0.44511 0.0
C491 C 0.41402 0.92041 0.46704 0.0
C492 C 0.43687 0.94143 0.4771 0.0
C493 C 0.46279 0.94263 0.46557 0.0
C494 C 0.46523 0.92338 0.44275 0.0
H495 H 0.16667 0.62266 0.67791 0.0
H496 H 0.22475 0.65227 0.6083 0.0
H497 H 0.19123 0.6287 0.5688 0.0
H498 H 0.13772 0.55314 0.6471 0.0
H499 H 0.10308 0.5533 0.65576 0.0
H500 H 0.13134 0.57295 0.67894 0.0
H501 H 0.11227 0.61994 0.6683 0.0
H502 H 0.08403 0.60044 0.64489 0.0
H503 H 0.10583 0.63241 0.62921 0.0
H504 H 0.15414 0.5994 0.53778 0.0
H505 H 0.11376 0.56652 0.51563 0.0
H506 H 0.07615 0.55814 0.60264 0.0
C507 C 0.17217 0.62412 0.65431 0.0
C508 C 0.19827 0.63942 0.64607 0.0
C509 C 0.2048 0.64096 0.61501 0.0
C510 C 0.18592 0.62761 0.59242 0.0
C511 C 0.16035 0.613 0.6011 0.0
C512 C 0.15324 0.61121 0.63116 0.0
C513 C 0.12421 0.59381 0.63383 0.0
C514 C 0.12409 0.56669 0.65517 0.0
C515 C 0.10548 0.61279 0.6447 0.0
C516 C 0.11648 0.58571 0.60067 0.0
C517 C 0.13785 0.5971 0.58241 0.0
C518 C 0.13697 0.591 0.55162 0.0
C519 C 0.11381 0.57253 0.53912 0.0
C520 C 0.09135 0.56078 0.55693 0.0
C521 C 0.09256 0.56771 0.58816 0.0
H522 H 0.36319 0.18028 0.62089 0.0
H523 H 0.43007 0.22647 0.67949 0.0
H524 H 0.46027 0.19593 0.66339 0.0
H525 H 0.38029 0.10918 0.63277 0.0
H526 H 0.37191 0.0991 0.59355 0.0
H527 H 0.35464 0.12415 0.60977 0.0
H528 H 0.3694 0.16205 0.56581 0.0
H529 H 0.38648 0.13695 0.54944 0.0
H530 H 0.40513 0.17274 0.55857 0.0
H531 H 0.48378 0.16209 0.64122 0.0
H532 H 0.50038 0.12674 0.61227 0.0
H533 H 0.41956 0.10094 0.56676 0.0
C534 C 0.38421 0.18399 0.63023 0.0
C535 C 0.39402 0.20556 0.65199 0.0
C536 C 0.42173 0.20968 0.66353 0.0
C537 C 0.43918 0.19254 0.65436 0.0
C538 C 0.42883 0.17131 0.63339 0.0
C539 C 0.40211 0.16695 0.62122 0.0
C540 C 0.39673 0.14277 0.59851 0.0
C541 C 0.37457 0.11729 0.60931 0.0
C542 C 0.38898 0.15433 0.56616 0.0
C543 C 0.42463 0.13436 0.59999 0.0
C544 C 0.44269 0.15128 0.62033 0.0
C545 C 0.46985 0.1486 0.62533 0.0
C546 C 0.47907 0.12841 0.60877 0.0
C547 C 0.46123 0.11088 0.58754 0.0
C548 C 0.43348 0.11362 0.58334 0.0
H549 H 0.84072 0.37122 0.61589 0.0
H550 H 0.87163 0.39318 0.70894 0.0
H551 H 0.9158 0.41717 0.68953 0.0
H552 H 0.90406 0.36394 0.58355 0.0
H553 H 0.89617 0.38279 0.54804 0.0
H554 H 0.86892 0.36203 0.56964 0.0
H555 H 0.84737 0.40719 0.57043 0.0
H556 H 0.87458 0.42902 0.5498 0.0
H557 H 0.86715 0.43999 0.58639 0.0
H558 H 0.95572 0.44352 0.65915 0.0
H559 H 0.98393 0.47434 0.62068 0.0
H560 H 0.92484 0.43905 0.54822 0.0
C561 C 0.85658 0.38087 0.63251 0.0
C562 C 0.85222 0.37969 0.66423 0.0
C563 C 0.87419 0.39269 0.68467 0.0
C564 C 0.89955 0.40661 0.67382 0.0
C565 C 0.90278 0.40779 0.64238 0.0
C566 C 0.88168 0.39553 0.62204 0.0
C567 C 0.88856 0.40351 0.58914 0.0
C568 C 0.88948 0.37645 0.57157 0.0
C569 C 0.86822 0.42094 0.57299 0.0
C570 C 0.91679 0.42227 0.5941 0.0
C571 C 0.925 0.42409 0.62492 0.0
C572 C 0.94965 0.4419 0.63494 0.0
C573 C 0.9657 0.45914 0.61298 0.0
C574 C 0.95667 0.4587 0.58158 0.0
C575 C 0.93241 0.43934 0.5721 0.0
H576 H 0.65886 0.80791 0.57711 0.0
H577 H 0.61029 0.7565 0.50605 0.0
H578 H 0.58934 0.7983 0.4884 0.0
H579 H 0.61036 0.8421 0.59837 0.0
H580 H 0.63194 0.87724 0.60417 0.0
H581 H 0.64652 0.84528 0.60794 0.0
H582 H 0.68097 0.86696 0.56717 0.0
H583 H 0.6667 0.89928 0.56357 0.0
H584 H 0.66845 0.87933 0.53009 0.0
H585 H 0.56745 0.84128 0.48582 0.0
H586 H 0.55019 0.88542 0.49305 0.0
H587 H 0.61502 0.91076 0.56377 0.0
C588 C 0.6444 0.80589 0.55727 0.0
C589 C 0.63609 0.77925 0.54278 0.0
C590 C 0.61701 0.77697 0.51711 0.0
C591 C 0.60505 0.80054 0.50698 0.0
C592 C 0.61301 0.82632 0.52238 0.0
C593 C 0.63273 0.8294 0.5465 0.0
C594 C 0.63629 0.85876 0.56036 0.0
C595 C 0.63094 0.85563 0.59473 0.0
C596 C 0.6648 0.87717 0.55497 0.0
C597 C 0.61422 0.87092 0.54164 0.0
C598 C 0.60124 0.85198 0.51965 0.0
C599 C 0.57822 0.85689 0.50193 0.0
C600 C 0.56842 0.88196 0.50646 0.0
C601 C 0.58156 0.90186 0.52861 0.0
C602 C 0.60491 0.89631 0.54619 0.0
H603 H 0.34254 0.17419 0.43564 0.0
H604 H 0.39175 0.24793 0.48161 0.0
H605 H 0.42226 0.21643 0.50582 0.0
H606 H 0.35083 0.11908 0.49983 0.0
H607 H 0.35151 0.09168 0.47296 0.0
H608 H 0.33161 0.11919 0.46329 0.0
H609 H 0.35735 0.13319 0.41357 0.0
H610 H 0.37749 0.10606 0.42319 0.0
H611 H 0.39418 0.14332 0.41627 0.0
H612 H 0.45125 0.17887 0.51726 0.0
H613 H 0.47442 0.13729 0.51879 0.0
H614 H 0.40421 0.0875 0.46794 0.0
C615 C 0.35935 0.18339 0.45148 0.0
C616 C 0.36504 0.21319 0.45699 0.0
C617 C 0.38718 0.22493 0.4775 0.0
C618 C 0.40452 0.20727 0.49125 0.0
C619 C 0.39889 0.17797 0.48461 0.0
C620 C 0.37647 0.166 0.46575 0.0
C621 C 0.3758 0.13442 0.46074 0.0
C622 C 0.35096 0.11494 0.47507 0.0
C623 C 0.37625 0.12896 0.42642 0.0
C624 C 0.40218 0.13091 0.47823 0.0
C625 C 0.41513 0.15613 0.49208 0.0
C626 C 0.44101 0.15878 0.50713 0.0
C627 C 0.45402 0.13505 0.50784 0.0
C628 C 0.44096 0.10899 0.49386 0.0
C629 C 0.41457 0.10693 0.47927 0.0
H630 H 0.8198 0.4007 0.42433 0.0
H631 H 0.85292 0.39467 0.33662 0.0
H632 H 0.89883 0.41807 0.35771 0.0
H633 H 0.85812 0.4702 0.44116 0.0
H634 H 0.86319 0.46219 0.48173 0.0
H635 H 0.8336 0.44287 0.46035 0.0
H636 H 0.84699 0.39454 0.47968 0.0
H637 H 0.87756 0.41336 0.50002 0.0
H638 H 0.87997 0.3877 0.47199 0.0
H639 H 0.94095 0.44402 0.38773 0.0
H640 H 0.97478 0.47432 0.4229 0.0
H641 H 0.91429 0.46484 0.49054 0.0
C642 C 0.8368 0.40394 0.4097 0.0
C643 C 0.83273 0.39577 0.37879 0.0
C644 C 0.85545 0.40091 0.36027 0.0
C645 C 0.88167 0.41398 0.37213 0.0
C646 C 0.88496 0.42187 0.40263 0.0
C647 C 0.8631 0.41722 0.42112 0.0
C648 C 0.87185 0.4293 0.45255 0.0
C649 C 0.85574 0.45252 0.45932 0.0
C650 C 0.86888 0.40476 0.47753 0.0
C651 C 0.90176 0.44244 0.44847 0.0
C652 C 0.9091 0.43727 0.41975 0.0
C653 C 0.93549 0.44793 0.41036 0.0
C654 C 0.95463 0.46493 0.4305 0.0
C655 C 0.9472 0.47129 0.4595 0.0
C656 C 0.92056 0.45965 0.4687 0.0
H657 H 0.62763 0.8253 0.37835 0.0
H658 H 0.71112 0.86422 0.40827 0.0
H659 H 0.69434 0.90252 0.43286 0.0
H660 H 0.60428 0.89325 0.36094 0.0
H661 H 0.57081 0.87874 0.37438 0.0
H662 H 0.58978 0.85508 0.35853 0.0
H663 H 0.58458 0.82253 0.40792 0.0
H664 H 0.56668 0.84632 0.42521 0.0
H665 H 0.59744 0.8376 0.44427 0.0
H666 H 0.66777 0.93593 0.45605 0.0
H667 H 0.63383 0.96153 0.47459 0.0
H668 H 0.56855 0.9013 0.42749 0.0
C669 C 0.64252 0.84214 0.38952 0.0
C670 C 0.67074 0.84155 0.39135 0.0
C671 C 0.68935 0.86381 0.40689 0.0
C672 C 0.68004 0.88583 0.42078 0.0
C673 C 0.65205 0.88555 0.41875 0.0
C674 C 0.63363 0.86438 0.40328 0.0
C675 C 0.60457 0.86848 0.40494 0.0
C676 C 0.5916 0.87424 0.37278 0.0
C677 C 0.58727 0.84218 0.42159 0.0
C678 C 0.60948 0.89523 0.4238 0.0
C679 C 0.63696 0.90481 0.43164 0.0
C680 C 0.64621 0.92877 0.44976 0.0
C681 C 0.62681 0.94325 0.46011 0.0
C682 C 0.59855 0.93375 0.45221 0.0
C683 C 0.59 0.90949 0.43366 0.0
H684 H 0.16526 0.64235 0.41172 0.0
H685 H 0.15648 0.6023 0.32364 0.0
H686 H 0.11194 0.57297 0.33689 0.0
H687 H 0.13764 0.58224 0.45781 0.0
H688 H 0.12085 0.60367 0.48022 0.0
H689 H 0.1506 0.6207 0.46093 0.0
H690 H 0.11995 0.65652 0.43689 0.0
H691 H 0.09025 0.63577 0.45459 0.0
H692 H 0.08942 0.6423 0.41357 0.0
H693 H 0.07137 0.54364 0.36184 0.0
H694 H 0.03816 0.5161 0.39691 0.0
H695 H 0.07186 0.5756 0.46868 0.0
C696 C 0.15368 0.62801 0.39485 0.0
C697 C 0.16481 0.62447 0.36677 0.0
C698 C 0.14892 0.60506 0.34561 0.0
C699 C 0.12334 0.58848 0.35276 0.0
C700 C 0.11341 0.59186 0.38095 0.0
C701 C 0.12788 0.61143 0.40151 0.0
C702 C 0.11315 0.60972 0.43089 0.0
C703 C 0.1317 0.60361 0.45908 0.0
C704 C 0.10257 0.63775 0.43417 0.0
C705 C 0.08951 0.58431 0.42473 0.0
C706 C 0.08958 0.57505 0.39533 0.0
C707 C 0.07083 0.55097 0.38473 0.0
C708 C 0.05202 0.53541 0.4049 0.0
C709 C 0.05214 0.54366 0.43557 0.0
C710 C 0.07076 0.56899 0.44525 0.0
H711 H 0.42794 0.83993 0.69031 0.0
H712 H 0.35097 0.84406 0.63864 0.0
H713 H 0.37404 0.88643 0.60873 0.0
H714 H 0.45723 0.91746 0.68948 0.0
H715 H 0.49116 0.91237 0.68339 0.0
H716 H 0.46805 0.88472 0.70397 0.0
H717 H 0.47395 0.84662 0.66591 0.0
H718 H 0.49722 0.87407 0.64542 0.0
H719 H 0.4674 0.85347 0.62534 0.0
H720 H 0.40582 0.92719 0.58222 0.0
H721 H 0.44455 0.95925 0.55782 0.0
H722 H 0.50137 0.92568 0.62312 0.0
C723 C 0.41574 0.84956 0.67278 0.0
C724 C 0.38727 0.83851 0.66756 0.0
C725 C 0.37248 0.85233 0.64421 0.0
C726 C 0.38548 0.87645 0.62678 0.0
C727 C 0.41346 0.88653 0.63249 0.0
C728 C 0.42848 0.8733 0.65466 0.0
C729 C 0.45874 0.88663 0.65426 0.0
C730 C 0.46941 0.90116 0.68458 0.0
C731 C 0.47529 0.86384 0.6473 0.0
C732 C 0.4584 0.90901 0.62797 0.0
C733 C 0.43201 0.90906 0.61617 0.0
C734 C 0.42657 0.92745 0.59137 0.0
C735 C 0.44872 0.94571 0.57776 0.0
C736 C 0.47601 0.94507 0.58859 0.0
C737 C 0.48075 0.92678 0.61439 0.0
H738 H 0.18085 0.34667 0.63773 0.0
H739 H 0.2493 0.38268 0.58257 0.0
H740 H 0.22072 0.41199 0.55159 0.0
H741 H 0.12758 0.34398 0.57248 0.0
H742 H 0.1028 0.35309 0.59609 0.0
H743 H 0.12785 0.3331 0.61267 0.0
H744 H 0.14366 0.37196 0.65328 0.0
H745 H 0.11876 0.3921 0.63686 0.0
H746 H 0.15439 0.40946 0.64081 0.0
H747 H 0.18772 0.4424 0.53205 0.0
H748 H 0.15027 0.46882 0.52097 0.0
H749 H 0.10025 0.41011 0.58386 0.0
C750 C 0.18959 0.36043 0.61881 0.0
C751 C 0.21728 0.36241 0.61246 0.0
C752 C 0.22809 0.38063 0.58759 0.0
C753 C 0.21204 0.39741 0.56993 0.0
C754 C 0.18499 0.39532 0.57701 0.0
C755 C 0.17359 0.3769 0.6004 0.0
C756 C 0.14404 0.37933 0.60335 0.0
C757 C 0.12441 0.35067 0.59569 0.0
C758 C 0.13999 0.38878 0.63548 0.0
C759 C 0.14111 0.40297 0.57894 0.0
C760 C 0.1651 0.41182 0.56414 0.0
C761 C 0.1686 0.43517 0.54289 0.0
C762 C 0.14716 0.45003 0.53671 0.0
C763 C 0.12209 0.44104 0.55089 0.0
C764 C 0.11891 0.41692 0.57204 0.0
H765 H 0.62693 0.21237 0.61094 0.0
H766 H 0.64621 0.1662 0.69566 0.0
H767 H 0.62208 0.11981 0.6738 0.0
H768 H 0.55894 0.16951 0.59734 0.0
H769 H 0.56081 0.17106 0.55628 0.0
H770 H 0.58013 0.20018 0.57859 0.0
H771 H 0.62465 0.19354 0.5555 0.0
H772 H 0.60542 0.16421 0.53337 0.0
H773 H 0.63402 0.15847 0.55888 0.0
H774 H 0.59618 0.07793 0.6416 0.0
H775 H 0.56741 0.04545 0.60401 0.0
H776 H 0.56422 0.11974 0.54146 0.0
C777 C 0.62616 0.19247 0.62483 0.0
C778 C 0.63856 0.19286 0.65497 0.0
C779 C 0.63673 0.16641 0.67259 0.0
C780 C 0.62322 0.13995 0.66028 0.0
C781 C 0.61136 0.14028 0.63039 0.0
C782 C 0.61243 0.16595 0.61307 0.0
C783 C 0.59713 0.16067 0.58205 0.0
C784 C 0.57281 0.17628 0.57837 0.0
C785 C 0.61646 0.16976 0.55591 0.0
C786 C 0.58746 0.12803 0.58448 0.0
C787 C 0.596 0.11654 0.61239 0.0
C788 C 0.58936 0.08677 0.61969 0.0
C789 C 0.57313 0.06843 0.59815 0.0
C790 C 0.56351 0.07999 0.5698 0.0
C791 C 0.57118 0.11016 0.56293 0.0
H792 H 0.79643 0.60843 0.53141 0.0
H793 H 0.82721 0.65922 0.61071 0.0
H794 H 0.87422 0.65432 0.6021 0.0
H795 H 0.83526 0.55737 0.54621 0.0
H796 H 0.84178 0.5524 0.50709 0.0
H797 H 0.81164 0.56508 0.51514 0.0
H798 H 0.82587 0.60997 0.47864 0.0
H799 H 0.85669 0.59808 0.47087 0.0
H800 H 0.85874 0.63352 0.48535 0.0
H801 H 0.91553 0.63786 0.59066 0.0
H802 H 0.94875 0.60885 0.57868 0.0
H803 H 0.89217 0.56806 0.50646 0.0
C804 C 0.81328 0.61922 0.54628 0.0
C805 C 0.80847 0.63431 0.5716 0.0
C806 C 0.83068 0.64755 0.59123 0.0
C807 C 0.8574 0.64514 0.58632 0.0
C808 C 0.86149 0.6295 0.5616 0.0
C809 C 0.8401 0.61676 0.54183 0.0
C810 C 0.84963 0.59789 0.51967 0.0
C811 C 0.83364 0.56633 0.52221 0.0
C812 C 0.84759 0.6106 0.48664 0.0
C813 C 0.87922 0.60048 0.53148 0.0
C814 C 0.88577 0.61953 0.55507 0.0
C815 C 0.91088 0.62335 0.57184 0.0
C816 C 0.92951 0.6066 0.56503 0.0
C817 C 0.92287 0.58619 0.54177 0.0
C818 C 0.89782 0.58383 0.52407 0.0
H819 H 0.35343 0.3713 0.21608 0.0
H820 H 0.37439 0.43614 0.28493 0.0
H821 H 0.40069 0.47021 0.24755 0.0
H822 H 0.41673 0.38574 0.18156 0.0
H823 H 0.40183 0.38026 0.14302 0.0
H824 H 0.38404 0.3617 0.17497 0.0
H825 H 0.34149 0.38334 0.15702 0.0
H826 H 0.35925 0.40209 0.12506 0.0
H827 H 0.3451 0.42212 0.15149 0.0
H828 H 0.4277 0.49537 0.20387 0.0
H829 H 0.45186 0.5104 0.15653 0.0
H830 H 0.41025 0.43021 0.11549 0.0
C831 C 0.36355 0.3927 0.22315 0.0
C832 C 0.36212 0.40123 0.25321 0.0
C833 C 0.37531 0.42942 0.26182 0.0
C834 C 0.39022 0.44883 0.24082 0.0
C835 C 0.39129 0.43977 0.21127 0.0
C836 C 0.37809 0.41247 0.20236 0.0
C837 C 0.38262 0.40794 0.16939 0.0
C838 C 0.39718 0.38241 0.16712 0.0
C839 C 0.3555 0.40363 0.14958 0.0
C840 C 0.40101 0.43664 0.16137 0.0
C841 C 0.40581 0.45474 0.18578 0.0
C842 C 0.42373 0.4816 0.1844 0.0
C843 C 0.43733 0.48997 0.15743 0.0
C844 C 0.43257 0.4717 0.13217 0.0
C845 C 0.41387 0.44494 0.13415 0.0
H846 H 0.37865 0.59525 0.84445 0.0
H847 H 0.39099 0.6771 0.88954 0.0
H848 H 0.41842 0.65752 0.93165 0.0
H849 H 0.37683 0.54743 0.91398 0.0
H850 H 0.39567 0.52381 0.89777 0.0
H851 H 0.37396 0.5428 0.87317 0.0
H852 H 0.41497 0.56525 0.84067 0.0
H853 H 0.43664 0.54615 0.865 0.0
H854 H 0.44597 0.58503 0.85939 0.0
H855 H 0.4474 0.62981 0.96773 0.0
H856 H 0.47794 0.59809 0.99143 0.0
H857 H 0.44866 0.53609 0.92096 0.0
C858 C 0.38698 0.60914 0.86315 0.0
C859 C 0.38226 0.63775 0.86353 0.0
C860 C 0.39358 0.6549 0.8888 0.0
C861 C 0.40936 0.644 0.91289 0.0
C862 C 0.41379 0.61586 0.91155 0.0
C863 C 0.40299 0.59872 0.88722 0.0
C864 C 0.41254 0.57011 0.88989 0.0
C865 C 0.3883 0.54453 0.89395 0.0
C866 C 0.42848 0.56644 0.8621 0.0
C867 C 0.43107 0.57421 0.91897 0.0
C868 C 0.43111 0.60041 0.9316 0.0
C869 C 0.44738 0.60915 0.95812 0.0
C870 C 0.46457 0.59097 0.97153 0.0
C871 C 0.46569 0.56471 0.95801 0.0
C872 C 0.44823 0.55608 0.93181 0.0
H873 H 0.41484 0.36379 0.84622 0.0
H874 H 0.34953 0.41267 0.83817 0.0
H875 H 0.37135 0.44108 0.88205 0.0
H876 H 0.42806 0.36397 0.92866 0.0
H877 H 0.46463 0.36955 0.92657 0.0
H878 H 0.44216 0.35053 0.89697 0.0
H879 H 0.46561 0.3869 0.85562 0.0
H880 H 0.48828 0.40581 0.88504 0.0
H881 H 0.46779 0.42524 0.85928 0.0
H882 H 0.40176 0.46598 0.92626 0.0
H883 H 0.44001 0.48774 0.96244 0.0
H884 H 0.48705 0.42586 0.93745 0.0
C885 C 0.40497 0.38049 0.85332 0.0
C886 C 0.38008 0.38549 0.83841 0.0
C887 C 0.36809 0.40754 0.84934 0.0
C888 C 0.38046 0.42405 0.87428 0.0
C889 C 0.40507 0.41864 0.88807 0.0
C890 C 0.41732 0.39759 0.87768 0.0
C891 C 0.44489 0.3976 0.89458 0.0
C892 C 0.44492 0.36869 0.91277 0.0
C893 C 0.468 0.40429 0.8723 0.0
C894 C 0.44644 0.42221 0.91585 0.0
C895 C 0.42305 0.43374 0.91228 0.0
C896 C 0.42008 0.45698 0.92931 0.0
C897 C 0.44181 0.46909 0.94996 0.0
C898 C 0.46638 0.45837 0.95285 0.0
C899 C 0.46843 0.43438 0.93583 0.0
H900 H 0.64042 0.37066 0.84747 0.0
H901 H 0.70591 0.4422 0.82279 0.0
H902 H 0.69037 0.47301 0.85871 0.0
H903 H 0.58995 0.41383 0.85049 0.0
H904 H 0.57356 0.3926 0.88201 0.0
H905 H 0.59125 0.3759 0.85598 0.0
H906 H 0.62103 0.35913 0.90189 0.0
H907 H 0.60359 0.37608 0.92803 0.0
H908 H 0.64034 0.38562 0.92747 0.0
H909 H 0.66603 0.49696 0.89674 0.0
H910 H 0.63361 0.51174 0.93013 0.0
H911 H 0.58396 0.42487 0.92785 0.0
C912 C 0.65153 0.39281 0.84942 0.0
C913 C 0.67463 0.40372 0.83229 0.0
C914 C 0.68855 0.43291 0.83602 0.0
C915 C 0.67978 0.45072 0.85632 0.0
C916 C 0.65697 0.4392 0.87282 0.0
C917 C 0.64298 0.41093 0.86938 0.0
C918 C 0.61829 0.40403 0.88852 0.0
C919 C 0.5917 0.39614 0.86802 0.0
C920 C 0.62099 0.37978 0.91292 0.0
C921 C 0.6204 0.43286 0.90306 0.0
C922 C 0.64295 0.45291 0.89407 0.0
C923 C 0.64845 0.4813 0.90411 0.0
C924 C 0.63009 0.48949 0.92327 0.0
C925 C 0.60644 0.46941 0.93181 0.0
C926 C 0.60197 0.44069 0.92189 0.0
H927 H 0.62507 0.55597 0.7584 0.0
H928 H 0.6066 0.64232 0.74814 0.0
H929 H 0.58777 0.63596 0.79887 0.0
H930 H 0.56437 0.52237 0.797 0.0
H931 H 0.58127 0.49952 0.82297 0.0
H932 H 0.59414 0.5105 0.78582 0.0
H933 H 0.64175 0.53182 0.81168 0.0
H934 H 0.62892 0.52082 0.84885 0.0
H935 H 0.64451 0.5582 0.8406 0.0
H936 H 0.57161 0.62179 0.84932 0.0
H937 H 0.55675 0.59945 0.89866 0.0
H938 H 0.58366 0.52079 0.87855 0.0
C939 C 0.61712 0.57347 0.76702 0.0
C940 C 0.61698 0.59954 0.74922 0.0
C941 C 0.60642 0.622 0.76113 0.0
C942 C 0.59585 0.61869 0.79 0.0
C943 C 0.59596 0.59277 0.80681 0.0
C944 C 0.60619 0.57043 0.79599 0.0
C945 C 0.60314 0.54471 0.8191 0.0
C946 C 0.58462 0.51768 0.8054 0.0
C947 C 0.63126 0.53853 0.83074 0.0
C948 C 0.5895 0.55626 0.84432 0.0
C949 C 0.58591 0.58415 0.83656 0.0
C950 C 0.57428 0.59997 0.85578 0.0
C951 C 0.56602 0.58705 0.88387 0.0
C952 C 0.56916 0.55841 0.89256 0.0
C953 C 0.58094 0.54267 0.87242 0.0
H954 H 0.62683 0.61069 0.22579 0.0
H955 H 0.66586 0.68272 0.16789 0.0
H956 H 0.64181 0.65854 0.12192 0.0
H957 H 0.62607 0.55281 0.17312 0.0
H958 H 0.59269 0.53331 0.1829 0.0
H959 H 0.61472 0.55507 0.21091 0.0
H960 H 0.57667 0.58372 0.21781 0.0
H961 H 0.55453 0.56198 0.18996 0.0
H962 H 0.56193 0.60095 0.18468 0.0
H963 H 0.6124 0.62677 0.08218 0.0
H964 H 0.57716 0.59241 0.05271 0.0
H965 H 0.55594 0.54228 0.13694 0.0
C966 C 0.63059 0.62112 0.20337 0.0
C967 C 0.64837 0.64846 0.20032 0.0
C968 C 0.65231 0.66177 0.17068 0.0
C969 C 0.63886 0.64813 0.14446 0.0
C970 C 0.62132 0.62124 0.14822 0.0
C971 C 0.61698 0.60799 0.17698 0.0
C972 C 0.59563 0.58012 0.17497 0.0
C973 C 0.60803 0.55377 0.18614 0.0
C974 C 0.57072 0.58181 0.19291 0.0
C975 C 0.58843 0.57991 0.14068 0.0
C976 C 0.60376 0.60354 0.12555 0.0
C977 C 0.60034 0.60814 0.09381 0.0
C978 C 0.58033 0.58844 0.07721 0.0
C979 C 0.5637 0.56464 0.09243 0.0
C980 C 0.56826 0.56023 0.12455 0.0
H981 H 0.40526 0.62836 0.24329 0.0
H982 H 0.32755 0.6225 0.19037 0.0
H983 H 0.34545 0.59984 0.14897 0.0
H984 H 0.44838 0.64538 0.17912 0.0
H985 H 0.47257 0.6238 0.19445 0.0
H986 H 0.45376 0.63973 0.22005 0.0
H987 H 0.4359 0.58892 0.24535 0.0
H988 H 0.45467 0.57289 0.21979 0.0
H989 H 0.41834 0.55988 0.22168 0.0
H990 H 0.37148 0.57724 0.11328 0.0
H991 H 0.40407 0.55679 0.08578 0.0
H992 H 0.4652 0.57745 0.16128 0.0
C993 C 0.39211 0.62253 0.22288 0.0
C994 C 0.36489 0.62713 0.22024 0.0
C995 C 0.34829 0.61886 0.19322 0.0
C996 C 0.35833 0.60608 0.16945 0.0
C997 C 0.38508 0.6016 0.17289 0.0
C998 C 0.40178 0.60956 0.19889 0.0
C999 C 0.42966 0.60195 0.19686 0.0
C1000 C 0.45244 0.62935 0.19766 0.0
C1001 C 0.43494 0.57958 0.22244 0.0
C1002 C 0.42606 0.58875 0.16558 0.0
C1003 C 0.40015 0.58867 0.15221 0.0
C1004 C 0.39187 0.57727 0.1235 0.0
C1005 C 0.41055 0.56569 0.10803 0.0
C1006 C 0.43729 0.56561 0.12118 0.0
C1007 C 0.44501 0.57733 0.15041 0.0
H1008 H 0.59463 0.37683 0.19822 0.0
H1009 H 0.67288 0.40932 0.15914 0.0
H1010 H 0.64957 0.43268 0.11584 0.0
H1011 H 0.55466 0.36148 0.12573 0.0
H1012 H 0.5252 0.3727 0.13866 0.0
H1013 H 0.54803 0.35774 0.16586 0.0
H1014 H 0.55502 0.40373 0.19769 0.0
H1015 H 0.53212 0.41871 0.17069 0.0
H1016 H 0.5663 0.43891 0.17923 0.0
H1017 H 0.61727 0.45445 0.07748 0.0
H1018 H 0.57949 0.4735 0.04912 0.0
H1019 H 0.52272 0.42508 0.11291 0.0
C1020 C 0.60691 0.38841 0.18034 0.0
C1021 C 0.63569 0.3911 0.18223 0.0
C1022 C 0.65088 0.40714 0.15854 0.0
C1023 C 0.63778 0.42031 0.13366 0.0
C1024 C 0.60939 0.41722 0.1326 0.0
C1025 C 0.59417 0.40162 0.15536 0.0
C1026 C 0.56408 0.40238 0.14957 0.0
C1027 C 0.54699 0.37175 0.14466 0.0
C1028 C 0.55379 0.4168 0.17585 0.0
C1029 C 0.56472 0.42109 0.12018 0.0
C1030 C 0.59097 0.42939 0.11058 0.0
C1031 C 0.5966 0.44783 0.08468 0.0
C1032 C 0.57496 0.45849 0.06862 0.0
C1033 C 0.54796 0.45072 0.07849 0.0
C1034 C 0.54294 0.43128 0.10434 0.0
loop_
_geom_bond_atom_site_label_1
_geom_bond_atom_site_label_2
_geom_bond_distance
_geom_bond_site_symmetry_2
_ccdc_geom_bond_type
C0 C1 1.384 . S
C0 H13 0.947 . S
C0 C35 1.382 . S
C1 C0 1.384 . S
C1 C2 1.378 . S
C2 C1 1.378 . S
C2 C3 1.378 . S
C2 H14 0.952 . S
C3 C2 1.378 . S
C3 H15 0.950 . S
C3 C34 1.383 . S
H4 C23 0.947 . S
H5 C24 0.946 . S
H6 C26 0.953 . S
H7 C27 0.945 . S
H8 C29 0.952 . S
H9 C30 0.949 . S
H10 C32 0.950 . S
H11 C33 0.948 . S
H12 C35 0.951 . S
H13 C0 0.947 . S
H14 C2 0.952 . S
H15 C3 0.950 . S
N16 C19 1.382 . S
N16 C21 1.363 . S
N17 C19 1.371 . S
N17 C20 1.372 . S
N18 C20 1.361 . S
N18 C21 1.377 . S
C19 N16 1.382 . S
C19 N17 1.371 . S
C19 C22 1.480 . S
C20 N17 1.372 . S
C20 N18 1.361 . S
C20 C28 1.457 . S
C21 N16 1.363 . S
C21 N18 1.377 . S
C21 C34 1.479 . S
C22 C19 1.480 . S
C22 C23 1.383 . S
C22 C27 1.385 . S
C23 H4 0.947 . S
C23 C22 1.383 . S
C23 C24 1.388 . S
C24 H5 0.946 . S
C24 C23 1.388 . S
C24 C25 1.384 . S
C25 C24 1.384 . S
C25 C26 1.377 . S
C26 H6 0.953 . S
C26 C25 1.377 . S
C26 C27 1.369 . S
C27 H7 0.945 . S
C27 C22 1.385 . S
C27 C26 1.369 . S
C28 C20 1.457 . S
C28 C29 1.372 . S
C28 C33 1.364 . S
C29 H8 0.952 . S
C29 C28 1.372 . S
C29 C30 1.389 . S
C30 H9 0.949 . S
C30 C29 1.389 . S
C30 C31 1.387 . S
C31 C30 1.387 . S
C31 C32 1.372 . S
C32 H10 0.950 . S
C32 C31 1.372 . S
C32 C33 1.379 . S
C33 H11 0.948 . S
C33 C28 1.364 . S
C33 C32 1.379 . S
C34 C3 1.383 . S
C34 C21 1.479 . S
C34 C35 1.398 . S
C35 C0 1.382 . S
C35 H12 0.951 . S
C35 C34 1.398 . S
C36 C37 1.384 . S
C36 H49 0.947 . S
C36 C71 1.382 . S
C37 C36 1.384 . S
C37 C38 1.378 . S
C38 C37 1.378 . S
C38 C39 1.378 . S
C38 H50 0.952 . S
C39 C38 1.378 . S
C39 H51 0.950 . S
C39 C70 1.383 . S
H40 C59 0.947 . S
H41 C60 0.946 . S
H42 C62 0.953 . S
H43 C63 0.945 . S
H44 C65 0.952 . S
H45 C66 0.949 . S
H46 C68 0.950 . S
H47 C69 0.948 . S
H48 C71 0.951 . S
H49 C36 0.947 . S
H50 C38 0.952 . S
H51 C39 0.950 . S
N52 C55 1.382 . S
N52 C57 1.363 . S
N53 C55 1.371 . S
N53 C56 1.372 . S
N54 C56 1.361 . S
N54 C57 1.377 . S
C55 N52 1.382 . S
C55 N53 1.371 . S
C55 C58 1.480 . S
C56 N53 1.372 . S
C56 N54 1.361 . S
C56 C64 1.457 . S
C57 N52 1.363 . S
C57 N54 1.377 . S
C57 C70 1.479 . S
C58 C55 1.480 . S
C58 C59 1.383 . S
C58 C63 1.385 . S
C59 H40 0.947 . S
C59 C58 1.383 . S
C59 C60 1.388 . S
C60 H41 0.946 . S
C60 C59 1.388 . S
C60 C61 1.384 . S
C61 C60 1.384 . S
C61 C62 1.377 . S
C62 H42 0.953 . S
C62 C61 1.377 . S
C62 C63 1.369 . S
C63 H43 0.945 . S
C63 C58 1.385 . S
C63 C62 1.369 . S
C64 C56 1.457 . S
C64 C65 1.372 . S
C64 C69 1.364 . S
C65 H44 0.952 . S
C65 C64 1.372 . S
C65 C66 1.389 . S
C66 H45 0.949 . S
C66 C65 1.389 . S
C66 C67 1.387 . S
C67 C66 1.387 . S
C67 C68 1.372 . S
C68 H46 0.950 . S
C68 C67 1.372 . S
C68 C69 1.379 . S
C69 H47 0.948 . S
C69 C64 1.364 . S
C69 C68 1.379 . S
C70 C39 1.383 . S
C70 C57 1.479 . S
C70 C71 1.398 . S
C71 C36 1.382 . S
C71 H48 0.951 . S
C71 C70 1.398 . S
C72 C73 1.384 . S
C72 H85 0.947 . S
C72 C107 1.382 . S
C73 C72 1.384 . S
C73 C74 1.378 . S
C74 C73 1.378 . S
C74 C75 1.378 . S
C74 H86 0.952 . S
C75 C74 1.378 . S
C75 H87 0.950 . S
C75 C106 1.383 . S
H76 C95 0.947 . S
H77 C96 0.946 . S
H78 C98 0.953 . S
H79 C99 0.945 . S
H80 C101 0.952 . S
H81 C102 0.949 . S
H82 C104 0.950 . S
H83 C105 0.948 . S
H84 C107 0.951 . S
H85 C72 0.947 . S
H86 C74 0.952 . S
H87 C75 0.950 . S
N88 C91 1.382 . S
N88 C93 1.363 . S
N89 C91 1.371 . S
N89 C92 1.372 . S
N90 C92 1.361 . S
N90 C93 1.377 . S
C91 N88 1.382 . S
C91 N89 1.371 . S
C91 C94 1.480 . S
C92 N89 1.372 . S
C92 N90 1.361 . S
C92 C100 1.457 . S
C93 N88 1.363 . S
C93 N90 1.377 . S
C93 C106 1.479 . S
C94 C91 1.480 . S
C94 C95 1.383 . S
C94 C99 1.385 . S
C95 H76 0.947 . S
C95 C94 1.383 . S
C95 C96 1.388 . S
C96 H77 0.946 . S
C96 C95 1.388 . S
C96 C97 1.384 . S
C97 C96 1.384 . S
C97 C98 1.377 . S
C98 H78 0.953 . S
C98 C97 1.377 . S
C98 C99 1.369 . S
C99 H79 0.945 . S
C99 C94 1.385 . S
C99 C98 1.369 . S
C100 C92 1.457 . S
C100 C101 1.372 . S
C100 C105 1.364 . S
C101 H80 0.952 . S
C101 C100 1.372 . S
C101 C102 1.389 . S
C102 H81 0.949 . S
C102 C101 1.389 . S
C102 C103 1.387 . S
C103 C102 1.387 . S
C103 C104 1.372 . S
C104 H82 0.950 . S
C104 C103 1.372 . S
C104 C105 1.379 . S
C105 H83 0.948 . S
C105 C100 1.364 . S
C105 C104 1.379 . S
C106 C75 1.383 . S
C106 C93 1.479 . S
C106 C107 1.398 . S
C107 C72 1.382 . S
C107 H84 0.951 . S
C107 C106 1.398 . S
C108 C109 1.384 . S
C108 H121 0.947 . S
C108 C143 1.382 . S
C109 C108 1.384 . S
C109 C110 1.378 . S
C110 C109 1.378 . S
C110 C111 1.378 . S
C110 H122 0.952 . S
C111 C110 1.378 . S
C111 H123 0.950 . S
C111 C142 1.383 . S
H112 C131 0.947 . S
H113 C132 0.946 . S
H114 C134 0.953 . S
H115 C135 0.945 . S
H116 C137 0.952 . S
H117 C138 0.949 . S
H118 C140 0.950 . S
H119 C141 0.948 . S
H120 C143 0.951 . S
H121 C108 0.947 . S
H122 C110 0.952 . S
H123 C111 0.950 . S
N124 C127 1.382 . S
N124 C129 1.363 . S
N125 C127 1.371 . S
N125 C128 1.372 . S
N126 C128 1.361 . S
N126 C129 1.377 . S
C127 N124 1.382 . S
C127 N125 1.371 . S
C127 C130 1.480 . S
C128 N125 1.372 . S
C128 N126 1.361 . S
C128 C136 1.457 . S
C129 N124 1.363 . S
C129 N126 1.377 . S
C129 C142 1.479 . S
C130 C127 1.480 . S
C130 C131 1.383 . S
C130 C135 1.385 . S
C131 H112 0.947 . S
C131 C130 1.383 . S
C131 C132 1.388 . S
C132 H113 0.946 . S
C132 C131 1.388 . S
C132 C133 1.384 . S
C133 C132 1.384 . S
C133 C134 1.377 . S
C134 H114 0.953 . S
C134 C133 1.377 . S
C134 C135 1.369 . S
C135 H115 0.945 . S
C135 C130 1.385 . S
C135 C134 1.369 . S
C136 C128 1.457 . S
C136 C137 1.372 . S
C136 C141 1.364 . S
C137 H116 0.952 . S
C137 C136 1.372 . S
C137 C138 1.389 . S
C138 H117 0.949 . S
C138 C137 1.389 . S
C138 C139 1.387 . S
C139 C138 1.387 . S
C139 C140 1.372 . S
C140 H118 0.950 . S
C140 C139 1.372 . S
C140 C141 1.379 . S
C141 H119 0.948 . S
C141 C136 1.364 . S
C141 C140 1.379 . S
C142 C111 1.383 . S
C142 C129 1.479 . S
C142 C143 1.398 . S
C143 C108 1.382 . S
C143 H120 0.951 . S
C143 C142 1.398 . S
C144 C145 1.384 . S
C144 H157 0.947 . S
C144 C179 1.382 . S
C145 C144 1.384 . S
C145 C146 1.378 . S
C146 C145 1.378 . S
C146 C147 1.378 . S
C146 H158 0.952 . S
C147 C146 1.378 . S
C147 H159 0.950 . S
C147 C178 1.383 . S
H148 C167 0.947 . S
H149 C168 0.946 . S
H150 C170 0.953 . S
H151 C171 0.945 . S
H152 C173 0.952 . S
H153 C174 0.949 . S
H154 C176 0.950 . S
H155 C177 0.948 . S
H156 C179 0.951 . S
H157 C144 0.947 . S
H158 C146 0.952 . S
H159 C147 0.950 . S
N160 C163 1.382 . S
N160 C165 1.363 . S
N161 C163 1.371 . S
N161 C164 1.372 . S
N162 C164 1.361 . S
N162 C165 1.377 . S
C163 N160 1.382 . S
C163 N161 1.371 . S
C163 C166 1.480 . S
C164 N161 1.372 . S
C164 N162 1.361 . S
C164 C172 1.457 . S
C165 N160 1.363 . S
C165 N162 1.377 . S
C165 C178 1.479 . S
C166 C163 1.480 . S
C166 C167 1.383 . S
C166 C171 1.385 . S
C167 H148 0.947 . S
C167 C166 1.383 . S
C167 C168 1.388 . S
C168 H149 0.946 . S
C168 C167 1.388 . S
C168 C169 1.384 . S
C169 C168 1.384 . S
C169 C170 1.377 . S
C170 H150 0.953 . S
C170 C169 1.377 . S
C170 C171 1.369 . S
C171 H151 0.945 . S
C171 C166 1.385 . S
C171 C170 1.369 . S
C172 C164 1.457 . S
C172 C173 1.372 . S
C172 C177 1.364 . S
C173 H152 0.952 . S
C173 C172 1.372 . S
C173 C174 1.389 . S
C174 H153 0.949 . S
C174 C173 1.389 . S
C174 C175 1.387 . S
C175 C174 1.387 . S
C175 C176 1.372 . S
C176 H154 0.950 . S
C176 C175 1.372 . S
C176 C177 1.379 . S
C177 H155 0.948 . S
C177 C172 1.364 . S
C177 C176 1.379 . S
C178 C147 1.383 . S
C178 C165 1.479 . S
C178 C179 1.398 . S
C179 C144 1.382 . S
C179 H156 0.951 . S
C179 C178 1.398 . S
C180 C181 1.384 . S
C180 H193 0.947 . S
C180 C215 1.382 . S
C181 C180 1.384 . S
C181 C182 1.378 . S
C182 C181 1.378 . S
C182 C183 1.378 . S
C182 H194 0.952 . S
C183 C182 1.378 . S
C183 H195 0.950 . S
C183 C214 1.383 . S
H184 C203 0.947 . S
H185 C204 0.946 . S
H186 C206 0.953 . S
H187 C207 0.945 . S
H188 C209 0.952 . S
H189 C210 0.949 . S
H190 C212 0.950 . S
H191 C213 0.948 . S
H192 C215 0.951 . S
H193 C180 0.947 . S
H194 C182 0.952 . S
H195 C183 0.950 . S
N196 C199 1.382 . S
N196 C201 1.363 . S
N197 C199 1.371 . S
N197 C200 1.372 . S
N198 C200 1.361 . S
N198 C201 1.377 . S
C199 N196 1.382 . S
C199 N197 1.371 . S
C199 C202 1.480 . S
C200 N197 1.372 . S
C200 N198 1.361 . S
C200 C208 1.457 . S
C201 N196 1.363 . S
C201 N198 1.377 . S
C201 C214 1.479 . S
C202 C199 1.480 . S
C202 C203 1.383 . S
C202 C207 1.385 . S
C203 H184 0.947 . S
C203 C202 1.383 . S
C203 C204 1.388 . S
C204 H185 0.946 . S
C204 C203 1.388 . S
C204 C205 1.384 . S
C205 C204 1.384 . S
C205 C206 1.377 . S
C206 H186 0.953 . S
C206 C205 1.377 . S
C206 C207 1.369 . S
C207 H187 0.945 . S
C207 C202 1.385 . S
C207 C206 1.369 . S
C208 C200 1.457 . S
C208 C209 1.372 . S
C208 C213 1.364 . S
C209 H188 0.952 . S
C209 C208 1.372 . S
C209 C210 1.389 . S
C210 H189 0.949 . S
C210 C209 1.389 . S
C210 C211 1.387 . S
C211 C210 1.387 . S
C211 C212 1.372 . S
C212 H190 0.950 . S
C212 C211 1.372 . S
C212 C213 1.379 . S
C213 H191 0.948 . S
C213 C208 1.364 . S
C213 C212 1.379 . S
C214 C183 1.383 . S
C214 C201 1.479 . S
C214 C215 1.398 . S
C215 C180 1.382 . S
C215 H192 0.951 . S
C215 C214 1.398 . S
C216 C217 1.384 . S
C216 H229 0.947 . S
C216 C251 1.382 . S
C217 C216 1.384 . S
C217 C218 1.378 . S
C218 C217 1.378 . S
C218 C219 1.378 . S
C218 H230 0.952 . S
C219 C218 1.378 . S
C219 H231 0.950 . S
C219 C250 1.383 . S
H220 C239 0.947 . S
H221 C240 0.946 . S
H222 C242 0.953 . S
H223 C243 0.945 . S
H224 C245 0.952 . S
H225 C246 0.949 . S
H226 C248 0.950 . S
H227 C249 0.948 . S
H228 C251 0.951 . S
H229 C216 0.947 . S
H230 C218 0.952 . S
H231 C219 0.950 . S
N232 C235 1.382 . S
N232 C237 1.363 . S
N233 C235 1.371 . S
N233 C236 1.372 . S
N234 C236 1.361 . S
N234 C237 1.377 . S
C235 N232 1.382 . S
C235 N233 1.371 . S
C235 C238 1.480 . S
C236 N233 1.372 . S
C236 N234 1.361 . S
C236 C244 1.457 . S
C237 N232 1.363 . S
C237 N234 1.377 . S
C237 C250 1.479 . S
C238 C235 1.480 . S
C238 C239 1.383 . S
C238 C243 1.385 . S
C239 H220 0.947 . S
C239 C238 1.383 . S
C239 C240 1.388 . S
C240 H221 0.946 . S
C240 C239 1.388 . S
C240 C241 1.384 . S
C241 C240 1.384 . S
C241 C242 1.377 . S
C242 H222 0.953 . S
C242 C241 1.377 . S
C242 C243 1.369 . S
C243 H223 0.945 . S
C243 C238 1.385 . S
C243 C242 1.369 . S
C244 C236 1.457 . S
C244 C245 1.372 . S
C244 C249 1.364 . S
C245 H224 0.952 . S
C245 C244 1.372 . S
C245 C246 1.389 . S
C246 H225 0.949 . S
C246 C245 1.389 . S
C246 C247 1.387 . S
C247 C246 1.387 . S
C247 C248 1.372 . S
C248 H226 0.950 . S
C248 C247 1.372 . S
C248 C249 1.379 . S
C249 H227 0.948 . S
C249 C244 1.364 . S
C249 C248 1.379 . S
C250 C219 1.383 . S
C250 C237 1.479 . S
C250 C251 1.398 . S
C251 C216 1.382 . S
C251 H228 0.951 . S
C251 C250 1.398 . S
C252 C253 1.384 . S
C252 H265 0.947 . S
C252 C287 1.382 . S
C253 C252 1.384 . S
C253 C254 1.378 . S
C254 C253 1.378 . S
C254 C255 1.378 . S
C254 H266 0.952 . S
C255 C254 1.378 . S
C255 H267 0.950 . S
C255 C286 1.383 . S
H256 C275 0.947 . S
H257 C276 0.946 . S
H258 C278 0.953 . S
H259 C279 0.945 . S
H260 C281 0.952 . S
H261 C282 0.949 . S
H262 C284 0.950 . S
H263 C285 0.948 . S
H264 C287 0.951 . S
H265 C252 0.947 . S
H266 C254 0.952 . S
H267 C255 0.950 . S
N268 C271 1.382 . S
N268 C273 1.363 . S
N269 C271 1.371 . S
N269 C272 1.372 . S
N270 C272 1.361 . S
N270 C273 1.377 . S
C271 N268 1.382 . S
C271 N269 1.371 . S
C271 C274 1.480 . S
C272 N269 1.372 . S
C272 N270 1.361 . S
C272 C280 1.457 . S
C273 N268 1.363 . S
C273 N270 1.377 . S
C273 C286 1.479 . S
C274 C271 1.480 . S
C274 C275 1.383 . S
C274 C279 1.385 . S
C275 H256 0.947 . S
C275 C274 1.383 . S
C275 C276 1.388 . S
C276 H257 0.946 . S
C276 C275 1.388 . S
C276 C277 1.384 . S
C277 C276 1.384 . S
C277 C278 1.377 . S
C278 H258 0.953 . S
C278 C277 1.377 . S
C278 C279 1.369 . S
C279 H259 0.945 . S
C279 C274 1.385 . S
C279 C278 1.369 . S
C280 C272 1.457 . S
C280 C281 1.372 . S
C280 C285 1.364 . S
C281 H260 0.952 . S
C281 C280 1.372 . S
C281 C282 1.389 . S
C282 H261 0.949 . S
C282 C281 1.389 . S
C282 C283 1.387 . S
C283 C282 1.387 . S
C283 C284 1.372 . S
C284 H262 0.950 . S
C284 C283 1.372 . S
C284 C285 1.379 . S
C285 H263 0.948 . S
C285 C280 1.364 . S
C285 C284 1.379 . S
C286 C255 1.383 . S
C286 C273 1.479 . S
C286 C287 1.398 . S
C287 C252 1.382 . S
C287 H264 0.951 . S
C287 C286 1.398 . S
Co288 O291 2.042 . S
Co288 O298 2.264 . S
Co288 O317 2.286 . S
Co288 O318 2.069 . S
Co288 O320 2.015 . S
Co289 O291 2.122 . S
Co289 O297 2.073 . S
Co289 O298 2.327 . S
Co289 O299 1.976 . S
Co290 O291 2.087 . S
Co290 O293 2.087 1_455 S
Co290 O300 2.111 . S
Co290 O301 2.143 1_455 S
Co290 O305 2.111 1_455 S
Co290 O319 2.143 . S
O291 Co288 2.042 . S
O291 Co289 2.122 . S
O291 Co290 2.087 . S
O291 H292 0.980 . S
H292 O291 0.980 . S
O293 Co290 2.087 1_655 S
O293 Co294 2.042 . S
O293 Co295 2.122 . S
O293 H296 0.980 . S
Co294 O293 2.042 . S
Co294 O302 2.286 . S
Co294 O303 2.069 . S
Co294 O304 2.015 . S
Co294 O307 2.264 . S
Co295 O293 2.122 . S
Co295 O306 1.976 . S
Co295 O307 2.327 . S
Co295 O308 2.073 . S
H296 O293 0.980 . S
O297 Co289 2.073 . S
O297 C312 1.245 . S
O298 Co288 2.264 . S
O298 Co289 2.327 . S
O298 C312 1.257 . S
O299 Co289 1.976 . S
O299 C311 1.251 . S
O300 Co290 2.111 . S
O300 C311 1.274 . S
O301 Co290 2.143 1_655 S
O301 C314 1.246 . S
O302 Co294 2.286 . S
O302 C313 1.259 . S
O303 Co294 2.069 . S
O303 C313 1.289 . S
O304 Co294 2.015 . S
O304 C314 1.257 . S
O305 Co290 2.111 1_655 S
O305 C315 1.274 . S
O306 Co295 1.976 . S
O306 C315 1.251 . S
O307 Co294 2.264 . S
O307 Co295 2.327 . S
O307 C316 1.257 . S
O308 Co295 2.073 . S
O308 C316 1.245 . S
C309 O317 1.259 . S
C309 O318 1.289 . S
C310 O319 1.246 . S
C310 O320 1.257 . S
C311 O299 1.251 . S
C311 O300 1.274 . S
C312 O297 1.245 . S
C312 O298 1.257 . S
C313 O302 1.259 . S
C313 O303 1.289 . S
C314 O301 1.246 . S
C314 O304 1.257 . S
C315 O305 1.274 . S
C315 O306 1.251 . S
C316 O307 1.257 . S
C316 O308 1.245 . S
O317 Co288 2.286 . S
O317 C309 1.259 . S
O318 Co288 2.069 . S
O318 C309 1.289 . S
O319 Co290 2.143 . S
O319 C310 1.246 . S
O320 Co288 2.015 . S
O320 C310 1.257 . S
Co321 O324 2.042 . S
Co321 O331 2.264 . S
Co321 O350 2.286 . S
Co321 O351 2.069 . S
Co321 O353 2.015 . S
Co322 O324 2.122 . S
Co322 O330 2.073 . S
Co322 O331 2.327 . S
Co322 O332 1.976 . S
Co323 O324 2.087 1_545 S
Co323 O326 2.087 . S
Co323 O333 2.111 1_545 S
Co323 O334 2.143 . S
Co323 O338 2.111 . S
Co323 O352 2.143 1_545 S
O324 Co321 2.042 . S
O324 Co322 2.122 . S
O324 Co323 2.087 1_565 S
O324 H325 0.980 . S
H325 O324 0.980 . S
O326 Co323 2.087 . S
O326 Co327 2.042 . S
O326 Co328 2.122 . S
O326 H329 0.980 . S
Co327 O326 2.042 . S
Co327 O335 2.286 . S
Co327 O336 2.069 . S
Co327 O337 2.015 . S
Co327 O340 2.264 . S
Co328 O326 2.122 . S
Co328 O339 1.976 . S
Co328 O340 2.327 . S
Co328 O341 2.073 . S
H329 O326 0.980 . S
O330 Co322 2.073 . S
O330 C345 1.245 . S
O331 Co321 2.264 . S
O331 Co322 2.327 . S
O331 C345 1.257 . S
O332 Co322 1.976 . S
O332 C344 1.251 . S
O333 Co323 2.111 1_565 S
O333 C344 1.274 . S
O334 Co323 2.143 . S
O334 C347 1.246 . S
O335 Co327 2.286 . S
O335 C346 1.259 . S
O336 Co327 2.069 . S
O336 C346 1.289 . S
O337 Co327 2.015 . S
O337 C347 1.257 . S
O338 Co323 2.111 . S
O338 C348 1.274 . S
O339 Co328 1.976 . S
O339 C348 1.251 . S
O340 Co327 2.264 . S
O340 Co328 2.327 . S
O340 C349 1.257 . S
O341 Co328 2.073 . S
O341 C349 1.245 . S
C342 O350 1.259 . S
C342 O351 1.289 . S
C343 O352 1.246 . S
C343 O353 1.257 . S
C344 O332 1.251 . S
C344 O333 1.274 . S
C345 O330 1.245 . S
C345 O331 1.257 . S
C346 O335 1.259 . S
C346 O336 1.289 . S
C347 O334 1.246 . S
C347 O337 1.257 . S
C348 O338 1.274 . S
C348 O339 1.251 . S
C349 O340 1.257 . S
C349 O341 1.245 . S
O350 Co321 2.286 . S
O350 C342 1.259 . S
O351 Co321 2.069 . S
O351 C342 1.289 . S
O352 Co323 2.143 1_565 S
O352 C343 1.246 . S
O353 Co321 2.015 . S
O353 C343 1.257 . S
Co354 O357 2.042 . S
Co354 O364 2.264 . S
Co354 O383 2.286 . S
Co354 O384 2.069 . S
Co354 O386 2.015 . S
Co355 O357 2.122 . S
Co355 O363 2.073 . S
Co355 O364 2.327 . S
Co355 O365 1.976 . S
Co356 O357 2.087 . S
Co356 O359 2.087 1_554 S
Co356 O366 2.111 . S
Co356 O367 2.143 1_554 S
Co356 O371 2.111 1_554 S
Co356 O385 2.143 . S
O357 Co354 2.042 . S
O357 Co355 2.122 . S
O357 Co356 2.087 . S
O357 H358 0.980 . S
H358 O357 0.980 . S
O359 Co356 2.087 1_556 S
O359 Co360 2.042 . S
O359 Co361 2.122 . S
O359 H362 0.980 . S
Co360 O359 2.042 . S
Co360 O368 2.286 . S
Co360 O369 2.069 . S
Co360 O370 2.015 . S
Co360 O373 2.264 . S
Co361 O359 2.122 . S
Co361 O372 1.976 . S
Co361 O373 2.327 . S
Co361 O374 2.073 . S
H362 O359 0.980 . S
O363 Co355 2.073 . S
O363 C378 1.245 . S
O364 Co354 2.264 . S
O364 Co355 2.327 . S
O364 C378 1.257 . S
O365 Co355 1.976 . S
O365 C377 1.251 . S
O366 Co356 2.111 . S
O366 C377 1.274 . S
O367 Co356 2.143 1_556 S
O367 C380 1.246 . S
O368 Co360 2.286 . S
O368 C379 1.259 . S
O369 Co360 2.069 . S
O369 C379 1.289 . S
O370 Co360 2.015 . S
O370 C380 1.257 . S
O371 Co356 2.111 1_556 S
O371 C381 1.274 . S
O372 Co361 1.976 . S
O372 C381 1.251 . S
O373 Co360 2.264 . S
O373 Co361 2.327 . S
O373 C382 1.257 . S
O374 Co361 2.073 . S
O374 C382 1.245 . S
C375 O383 1.259 . S
C375 O384 1.289 . S
C376 O385 1.246 . S
C376 O386 1.257 . S
C377 O365 1.251 . S
C377 O366 1.274 . S
C378 O363 1.245 . S
C378 O364 1.257 . S
C379 O368 1.259 . S
C379 O369 1.289 . S
C380 O367 1.246 . S
C380 O370 1.257 . S
C381 O371 1.274 . S
C381 O372 1.251 . S
C382 O373 1.257 . S
C382 O374 1.245 . S
O383 Co354 2.286 . S
O383 C375 1.259 . S
O384 Co354 2.069 . S
O384 C375 1.289 . S
O385 Co356 2.143 . S
O385 C376 1.246 . S
O386 Co354 2.015 . S
O386 C376 1.257 . S
H387 C399 0.930 . S
H388 C401 0.930 . S
H389 C402 0.930 . S
H390 C406 0.959 . S
H391 C406 0.959 . S
H392 C406 0.961 . S
H393 C407 0.960 . S
H394 C407 0.961 . S
H395 C407 0.959 . S
H396 C410 0.929 . S
H397 C411 0.931 . S
H398 C413 0.930 . S
C399 H387 0.930 . S
C399 C400 1.399 . S
C399 C404 1.399 . S
C400 C399 1.399 . S
C400 C401 1.376 . S
C401 H388 0.930 . S
C401 C400 1.376 . S
C401 C402 1.388 . S
C402 H389 0.930 . S
C402 C401 1.388 . S
C402 C403 1.390 . S
C403 C402 1.390 . S
C403 C404 1.394 . S
C403 C409 1.465 . S
C404 C399 1.399 . S
C404 C403 1.394 . S
C404 C405 1.516 . S
C405 C404 1.516 . S
C405 C406 1.502 . S
C405 C407 1.561 . S
C405 C408 1.526 . S
C406 H390 0.959 . S
C406 H391 0.959 . S
C406 H392 0.961 . S
C406 C405 1.502 . S
C407 H393 0.960 . S
C407 H394 0.961 . S
C407 H395 0.959 . S
C407 C405 1.561 . S
C408 C405 1.526 . S
C408 C409 1.396 . S
C408 C413 1.390 . S
C409 C403 1.465 . S
C409 C408 1.396 . S
C409 C410 1.399 . S
C410 H396 0.929 . S
C410 C409 1.399 . S
C410 C411 1.385 . S
C411 H397 0.931 . S
C411 C410 1.385 . S
C411 C412 1.389 . S
C412 C411 1.389 . S
C412 C413 1.387 . S
C413 H398 0.930 . S
C413 C408 1.390 . S
C413 C412 1.387 . S
H414 C426 0.930 . S
H415 C428 0.930 . S
H416 C429 0.930 . S
H417 C433 0.959 . S
H418 C433 0.959 . S
H419 C433 0.961 . S
H420 C434 0.960 . S
H421 C434 0.961 . S
H422 C434 0.959 . S
H423 C437 0.929 . S
H424 C438 0.931 . S
H425 C440 0.930 . S
C426 H414 0.930 . S
C426 C427 1.399 . S
C426 C431 1.399 . S
C427 C426 1.399 . S
C427 C428 1.376 . S
C428 H415 0.930 . S
C428 C427 1.376 . S
C428 C429 1.388 . S
C429 H416 0.930 . S
C429 C428 1.388 . S
C429 C430 1.390 . S
C430 C429 1.390 . S
C430 C431 1.394 . S
C430 C436 1.465 . S
C431 C426 1.399 . S
C431 C430 1.394 . S
C431 C432 1.516 . S
C432 C431 1.516 . S
C432 C433 1.502 . S
C432 C434 1.561 . S
C432 C435 1.526 . S
C433 H417 0.959 . S
C433 H418 0.959 . S
C433 H419 0.961 . S
C433 C432 1.502 . S
C434 H420 0.960 . S
C434 H421 0.961 . S
C434 H422 0.959 . S
C434 C432 1.561 . S
C435 C432 1.526 . S
C435 C436 1.396 . S
C435 C440 1.390 . S
C436 C430 1.465 . S
C436 C435 1.396 . S
C436 C437 1.399 . S
C437 H423 0.929 . S
C437 C436 1.399 . S
C437 C438 1.385 . S
C438 H424 0.931 . S
C438 C437 1.385 . S
C438 C439 1.389 . S
C439 C438 1.389 . S
C439 C440 1.387 . S
C440 H425 0.930 . S
C440 C435 1.390 . S
C440 C439 1.387 . S
H441 C453 0.930 . S
H442 C455 0.930 . S
H443 C456 0.930 . S
H444 C460 0.959 . S
H445 C460 0.959 . S
H446 C460 0.961 . S
H447 C461 0.960 . S
H448 C461 0.961 . S
H449 C461 0.959 . S
H450 C464 0.929 . S
H451 C465 0.931 . S
H452 C467 0.930 . S
C453 H441 0.930 . S
C453 C454 1.399 . S
C453 C458 1.399 . S
C454 C453 1.399 . S
C454 C455 1.376 . S
C455 H442 0.930 . S
C455 C454 1.376 . S
C455 C456 1.388 . S
C456 H443 0.930 . S
C456 C455 1.388 . S
C456 C457 1.390 . S
C457 C456 1.390 . S
C457 C458 1.394 . S
C457 C463 1.465 . S
C458 C453 1.399 . S
C458 C457 1.394 . S
C458 C459 1.516 . S
C459 C458 1.516 . S
C459 C460 1.502 . S
C459 C461 1.561 . S
C459 C462 1.526 . S
C460 H444 0.959 . S
C460 H445 0.959 . S
C460 H446 0.961 . S
C460 C459 1.502 . S
C461 H447 0.960 . S
C461 H448 0.961 . S
C461 H449 0.959 . S
C461 C459 1.561 . S
C462 C459 1.526 . S
C462 C463 1.396 . S
C462 C467 1.390 . S
C463 C457 1.465 . S
C463 C462 1.396 . S
C463 C464 1.399 . S
C464 H450 0.929 . S
C464 C463 1.399 . S
C464 C465 1.385 . S
C465 H451 0.931 . S
C465 C464 1.385 . S
C465 C466 1.389 . S
C466 C465 1.389 . S
C466 C467 1.387 . S
C467 H452 0.930 . S
C467 C462 1.390 . S
C467 C466 1.387 . S
H468 C480 0.930 . S
H469 C482 0.930 . S
H470 C483 0.930 . S
H471 C487 0.959 . S
H472 C487 0.959 . S
H473 C487 0.961 . S
H474 C488 0.960 . S
H475 C488 0.961 . S
H476 C488 0.959 . S
H477 C491 0.929 . S
H478 C492 0.931 . S
H479 C494 0.930 . S
C480 H468 0.930 . S
C480 C481 1.399 . S
C480 C485 1.399 . S
C481 C480 1.399 . S
C481 C482 1.376 . S
C482 H469 0.930 . S
C482 C481 1.376 . S
C482 C483 1.388 . S
C483 H470 0.930 . S
C483 C482 1.388 . S
C483 C484 1.390 . S
C484 C483 1.390 . S
C484 C485 1.394 . S
C484 C490 1.465 . S
C485 C480 1.399 . S
C485 C484 1.394 . S
C485 C486 1.516 . S
C486 C485 1.516 . S
C486 C487 1.502 . S
C486 C488 1.561 . S
C486 C489 1.526 . S
C487 H471 0.959 . S
C487 H472 0.959 . S
C487 H473 0.961 . S
C487 C486 1.502 . S
C488 H474 0.960 . S
C488 H475 0.961 . S
C488 H476 0.959 . S
C488 C486 1.561 . S
C489 C486 1.526 . S
C489 C490 1.396 . S
C489 C494 1.390 . S
C490 C484 1.465 . S
C490 C489 1.396 . S
C490 C491 1.399 . S
C491 H477 0.929 . S
C491 C490 1.399 . S
C491 C492 1.385 . S
C492 H478 0.931 . S
C492 C491 1.385 . S
C492 C493 1.389 . S
C493 C492 1.389 . S
C493 C494 1.387 . S
C494 H479 0.930 . S
C494 C489 1.390 . S
C494 C493 1.387 . S
H495 C507 0.930 . S
H496 C509 0.930 . S
H497 C510 0.930 . S
H498 C514 0.959 . S
H499 C514 0.959 . S
H500 C514 0.961 . S
H501 C515 0.960 . S
H502 C515 0.961 . S
H503 C515 0.959 . S
H504 C518 0.929 . S
H505 C519 0.931 . S
H506 C521 0.930 . S
C507 H495 0.930 . S
C507 C508 1.399 . S
C507 C512 1.399 . S
C508 C507 1.399 . S
C508 C509 1.376 . S
C509 H496 0.930 . S
C509 C508 1.376 . S
C509 C510 1.388 . S
C510 H497 0.930 . S
C510 C509 1.388 . S
C510 C511 1.390 . S
C511 C510 1.390 . S
C511 C512 1.394 . S
C511 C517 1.465 . S
C512 C507 1.399 . S
C512 C511 1.394 . S
C512 C513 1.516 . S
C513 C512 1.516 . S
C513 C514 1.502 . S
C513 C515 1.561 . S
C513 C516 1.526 . S
C514 H498 0.959 . S
C514 H499 0.959 . S
C514 H500 0.961 . S
C514 C513 1.502 . S
C515 H501 0.960 . S
C515 H502 0.961 . S
C515 H503 0.959 . S
C515 C513 1.561 . S
C516 C513 1.526 . S
C516 C517 1.396 . S
C516 C521 1.390 . S
C517 C511 1.465 . S
C517 C516 1.396 . S
C517 C518 1.399 . S
C518 H504 0.929 . S
C518 C517 1.399 . S
C518 C519 1.385 . S
C519 H505 0.931 . S
C519 C518 1.385 . S
C519 C520 1.389 . S
C520 C519 1.389 . S
C520 C521 1.387 . S
C521 H506 0.930 . S
C521 C516 1.390 . S
C521 C520 1.387 . S
H522 C534 0.930 . S
H523 C536 0.930 . S
H524 C537 0.930 . S
H525 C541 0.959 . S
H526 C541 0.959 . S
H527 C541 0.961 . S
H528 C542 0.960 . S
H529 C542 0.961 . S
H530 C542 0.959 . S
H531 C545 0.929 . S
H532 C546 0.931 . S
H533 C548 0.930 . S
C534 H522 0.930 . S
C534 C535 1.399 . S
C534 C539 1.399 . S
C535 C534 1.399 . S
C535 C536 1.376 . S
C536 H523 0.930 . S
C536 C535 1.376 . S
C536 C537 1.388 . S
C537 H524 0.930 . S
C537 C536 1.388 . S
C537 C538 1.390 . S
C538 C537 1.390 . S
C538 C539 1.394 . S
C538 C544 1.465 . S
C539 C534 1.399 . S
C539 C538 1.394 . S
C539 C540 1.516 . S
C540 C539 1.516 . S
C540 C541 1.502 . S
C540 C542 1.561 . S
C540 C543 1.526 . S
C541 H525 0.959 . S
C541 H526 0.959 . S
C541 H527 0.961 . S
C541 C540 1.502 . S
C542 H528 0.960 . S
C542 H529 0.961 . S
C542 H530 0.959 . S
C542 C540 1.561 . S
C543 C540 1.526 . S
C543 C544 1.396 . S
C543 C548 1.390 . S
C544 C538 1.465 . S
C544 C543 1.396 . S
C544 C545 1.399 . S
C545 H531 0.929 . S
C545 C544 1.399 . S
C545 C546 1.385 . S
C546 H532 0.931 . S
C546 C545 1.385 . S
C546 C547 1.389 . S
C547 C546 1.389 . S
C547 C548 1.387 . S
C548 H533 0.930 . S
C548 C543 1.390 . S
C548 C547 1.387 . S
H549 C561 0.930 . S
H550 C563 0.930 . S
H551 C564 0.930 . S
H552 C568 0.959 . S
H553 C568 0.959 . S
H554 C568 0.961 . S
H555 C569 0.960 . S
H556 C569 0.961 . S
H557 C569 0.959 . S
H558 C572 0.929 . S
H559 C573 0.931 . S
H560 C575 0.930 . S
C561 H549 0.930 . S
C561 C562 1.399 . S
C561 C566 1.399 . S
C562 C561 1.399 . S
C562 C563 1.376 . S
C563 H550 0.930 . S
C563 C562 1.376 . S
C563 C564 1.388 . S
C564 H551 0.930 . S
C564 C563 1.388 . S
C564 C565 1.390 . S
C565 C564 1.390 . S
C565 C566 1.394 . S
C565 C571 1.465 . S
C566 C561 1.399 . S
C566 C565 1.394 . S
C566 C567 1.516 . S
C567 C566 1.516 . S
C567 C568 1.502 . S
C567 C569 1.561 . S
C567 C570 1.526 . S
C568 H552 0.959 . S
C568 H553 0.959 . S
C568 H554 0.961 . S
C568 C567 1.502 . S
C569 H555 0.960 . S
C569 H556 0.961 . S
C569 H557 0.959 . S
C569 C567 1.561 . S
C570 C567 1.526 . S
C570 C571 1.396 . S
C570 C575 1.390 . S
C571 C565 1.465 . S
C571 C570 1.396 . S
C571 C572 1.399 . S
C572 H558 0.929 . S
C572 C571 1.399 . S
C572 C573 1.385 . S
C573 H559 0.931 . S
C573 C572 1.385 . S
C573 C574 1.389 . S
C574 C573 1.389 . S
C574 C575 1.387 . S
C575 H560 0.930 . S
C575 C570 1.390 . S
C575 C574 1.387 . S
H576 C588 0.930 . S
H577 C590 0.930 . S
H578 C591 0.930 . S
H579 C595 0.959 . S
H580 C595 0.959 . S
H581 C595 0.961 . S
H582 C596 0.960 . S
H583 C596 0.961 . S
H584 C596 0.959 . S
H585 C599 0.929 . S
H586 C600 0.931 . S
H587 C602 0.930 . S
C588 H576 0.930 . S
C588 C589 1.399 . S
C588 C593 1.399 . S
C589 C588 1.399 . S
C589 C590 1.376 . S
C590 H577 0.930 . S
C590 C589 1.376 . S
C590 C591 1.388 . S
C591 H578 0.930 . S
C591 C590 1.388 . S
C591 C592 1.390 . S
C592 C591 1.390 . S
C592 C593 1.394 . S
C592 C598 1.465 . S
C593 C588 1.399 . S
C593 C592 1.394 . S
C593 C594 1.516 . S
C594 C593 1.516 . S
C594 C595 1.502 . S
C594 C596 1.561 . S
C594 C597 1.526 . S
C595 H579 0.959 . S
C595 H580 0.959 . S
C595 H581 0.961 . S
C595 C594 1.502 . S
C596 H582 0.960 . S
C596 H583 0.961 . S
C596 H584 0.959 . S
C596 C594 1.561 . S
C597 C594 1.526 . S
C597 C598 1.396 . S
C597 C602 1.390 . S
C598 C592 1.465 . S
C598 C597 1.396 . S
C598 C599 1.399 . S
C599 H585 0.929 . S
C599 C598 1.399 . S
C599 C600 1.385 . S
C600 H586 0.931 . S
C600 C599 1.385 . S
C600 C601 1.389 . S
C601 C600 1.389 . S
C601 C602 1.387 . S
C602 H587 0.930 . S
C602 C597 1.390 . S
C602 C601 1.387 . S
H603 C615 0.930 . S
H604 C617 0.930 . S
H605 C618 0.930 . S
H606 C622 0.959 . S
H607 C622 0.959 . S
H608 C622 0.961 . S
H609 C623 0.960 . S
H610 C623 0.961 . S
H611 C623 0.959 . S
H612 C626 0.929 . S
H613 C627 0.931 . S
H614 C629 0.930 . S
C615 H603 0.930 . S
C615 C616 1.399 . S
C615 C620 1.399 . S
C616 C615 1.399 . S
C616 C617 1.376 . S
C617 H604 0.930 . S
C617 C616 1.376 . S
C617 C618 1.388 . S
C618 H605 0.930 . S
C618 C617 1.388 . S
C618 C619 1.390 . S
C619 C618 1.390 . S
C619 C620 1.394 . S
C619 C625 1.465 . S
C620 C615 1.399 . S
C620 C619 1.394 . S
C620 C621 1.516 . S
C621 C620 1.516 . S
C621 C622 1.502 . S
C621 C623 1.561 . S
C621 C624 1.526 . S
C622 H606 0.959 . S
C622 H607 0.959 . S
C622 H608 0.961 . S
C622 C621 1.502 . S
C623 H609 0.960 . S
C623 H610 0.961 . S
C623 H611 0.959 . S
C623 C621 1.561 . S
C624 C621 1.526 . S
C624 C625 1.396 . S
C624 C629 1.390 . S
C625 C619 1.465 . S
C625 C624 1.396 . S
C625 C626 1.399 . S
C626 H612 0.929 . S
C626 C625 1.399 . S
C626 C627 1.385 . S
C627 H613 0.931 . S
C627 C626 1.385 . S
C627 C628 1.389 . S
C628 C627 1.389 . S
C628 C629 1.387 . S
C629 H614 0.930 . S
C629 C624 1.390 . S
C629 C628 1.387 . S
H630 C642 0.930 . S
H631 C644 0.930 . S
H632 C645 0.930 . S
H633 C649 0.959 . S
H634 C649 0.959 . S
H635 C649 0.961 . S
H636 C650 0.960 . S
H637 C650 0.961 . S
H638 C650 0.959 . S
H639 C653 0.929 . S
H640 C654 0.931 . S
H641 C656 0.930 . S
C642 H630 0.930 . S
C642 C643 1.399 . S
C642 C647 1.399 . S
C643 C642 1.399 . S
C643 C644 1.376 . S
C644 H631 0.930 . S
C644 C643 1.376 . S
C644 C645 1.388 . S
C645 H632 0.930 . S
C645 C644 1.388 . S
C645 C646 1.390 . S
C646 C645 1.390 . S
C646 C647 1.394 . S
C646 C652 1.465 . S
C647 C642 1.399 . S
C647 C646 1.394 . S
C647 C648 1.516 . S
C648 C647 1.516 . S
C648 C649 1.502 . S
C648 C650 1.561 . S
C648 C651 1.526 . S
C649 H633 0.959 . S
C649 H634 0.959 . S
C649 H635 0.961 . S
C649 C648 1.502 . S
C650 H636 0.960 . S
C650 H637 0.961 . S
C650 H638 0.959 . S
C650 C648 1.561 . S
C651 C648 1.526 . S
C651 C652 1.396 . S
C651 C656 1.390 . S
C652 C646 1.465 . S
C652 C651 1.396 . S
C652 C653 1.399 . S
C653 H639 0.929 . S
C653 C652 1.399 . S
C653 C654 1.385 . S
C654 H640 0.931 . S
C654 C653 1.385 . S
C654 C655 1.389 . S
C655 C654 1.389 . S
C655 C656 1.387 . S
C656 H641 0.930 . S
C656 C651 1.390 . S
C656 C655 1.387 . S
H657 C669 0.930 . S
H658 C671 0.930 . S
H659 C672 0.930 . S
H660 C676 0.959 . S
H661 C676 0.959 . S
H662 C676 0.961 . S
H663 C677 0.960 . S
H664 C677 0.961 . S
H665 C677 0.959 . S
H666 C680 0.929 . S
H667 C681 0.931 . S
H668 C683 0.930 . S
C669 H657 0.930 . S
C669 C670 1.399 . S
C669 C674 1.399 . S
C670 C669 1.399 . S
C670 C671 1.376 . S
C671 H658 0.930 . S
C671 C670 1.376 . S
C671 C672 1.388 . S
C672 H659 0.930 . S
C672 C671 1.388 . S
C672 C673 1.390 . S
C673 C672 1.390 . S
C673 C674 1.394 . S
C673 C679 1.465 . S
C674 C669 1.399 . S
C674 C673 1.394 . S
C674 C675 1.516 . S
C675 C674 1.516 . S
C675 C676 1.502 . S
C675 C677 1.561 . S
C675 C678 1.526 . S
C676 H660 0.959 . S
C676 H661 0.959 . S
C676 H662 0.961 . S
C676 C675 1.502 . S
C677 H663 0.960 . S
C677 H664 0.961 . S
C677 H665 0.959 . S
C677 C675 1.561 . S
C678 C675 1.526 . S
C678 C679 1.396 . S
C678 C683 1.390 . S
C679 C673 1.465 . S
C679 C678 1.396 . S
C679 C680 1.399 . S
C680 H666 0.929 . S
C680 C679 1.399 . S
C680 C681 1.385 . S
C681 H667 0.931 . S
C681 C680 1.385 . S
C681 C682 1.389 . S
C682 C681 1.389 . S
C682 C683 1.387 . S
C683 H668 0.930 . S
C683 C678 1.390 . S
C683 C682 1.387 . S
H684 C696 0.930 . S
H685 C698 0.930 . S
H686 C699 0.930 . S
H687 C703 0.959 . S
H688 C703 0.959 . S
H689 C703 0.961 . S
H690 C704 0.960 . S
H691 C704 0.961 . S
H692 C704 0.959 . S
H693 C707 0.929 . S
H694 C708 0.931 . S
H695 C710 0.930 . S
C696 H684 0.930 . S
C696 C697 1.399 . S
C696 C701 1.399 . S
C697 C696 1.399 . S
C697 C698 1.376 . S
C698 H685 0.930 . S
C698 C697 1.376 . S
C698 C699 1.388 . S
C699 H686 0.930 . S
C699 C698 1.388 . S
C699 C700 1.390 . S
C700 C699 1.390 . S
C700 C701 1.394 . S
C700 C706 1.465 . S
C701 C696 1.399 . S
C701 C700 1.394 . S
C701 C702 1.516 . S
C702 C701 1.516 . S
C702 C703 1.502 . S
C702 C704 1.561 . S
C702 C705 1.526 . S
C703 H687 0.959 . S
C703 H688 0.959 . S
C703 H689 0.961 . S
C703 C702 1.502 . S
C704 H690 0.960 . S
C704 H691 0.961 . S
C704 H692 0.959 . S
C704 C702 1.561 . S
C705 C702 1.526 . S
C705 C706 1.396 . S
C705 C710 1.390 . S
C706 C700 1.465 . S
C706 C705 1.396 . S
C706 C707 1.399 . S
C707 H693 0.929 . S
C707 C706 1.399 . S
C707 C708 1.385 . S
C708 H694 0.931 . S
C708 C707 1.385 . S
C708 C709 1.389 . S
C709 C708 1.389 . S
C709 C710 1.387 . S
C710 H695 0.930 . S
C710 C705 1.390 . S
C710 C709 1.387 . S
H711 C723 0.930 . S
H712 C725 0.930 . S
H713 C726 0.930 . S
H714 C730 0.959 . S
H715 C730 0.959 . S
H716 C730 0.961 . S
H717 C731 0.960 . S
H718 C731 0.961 . S
H719 C731 0.959 . S
H720 C734 0.929 . S
H721 C735 0.931 . S
H722 C737 0.930 . S
C723 H711 0.930 . S
C723 C724 1.399 . S
C723 C728 1.399 . S
C724 C723 1.399 . S
C724 C725 1.376 . S
C725 H712 0.930 . S
C725 C724 1.376 . S
C725 C726 1.388 . S
C726 H713 0.930 . S
C726 C725 1.388 . S
C726 C727 1.390 . S
C727 C726 1.390 . S
C727 C728 1.394 . S
C727 C733 1.465 . S
C728 C723 1.399 . S
C728 C727 1.394 . S
C728 C729 1.516 . S
C729 C728 1.516 . S
C729 C730 1.502 . S
C729 C731 1.561 . S
C729 C732 1.526 . S
C730 H714 0.959 . S
C730 H715 0.959 . S
C730 H716 0.961 . S
C730 C729 1.502 . S
C731 H717 0.960 . S
C731 H718 0.961 . S
C731 H719 0.959 . S
C731 C729 1.561 . S
C732 C729 1.526 . S
C732 C733 1.396 . S
C732 C737 1.390 . S
C733 C727 1.465 . S
C733 C732 1.396 . S
C733 C734 1.399 . S
C734 H720 0.929 . S
C734 C733 1.399 . S
C734 C735 1.385 . S
C735 H721 0.931 . S
C735 C734 1.385 . S
C735 C736 1.389 . S
C736 C735 1.389 . S
C736 C737 1.387 . S
C737 H722 0.930 . S
C737 C732 1.390 . S
C737 C736 1.387 . S
H738 C750 0.930 . S
H739 C752 0.930 . S
H740 C753 0.930 . S
H741 C757 0.959 . S
H742 C757 0.959 . S
H743 C757 0.961 . S
H744 C758 0.960 . S
H745 C758 0.961 . S
H746 C758 0.959 . S
H747 C761 0.929 . S
H748 C762 0.931 . S
H749 C764 0.930 . S
C750 H738 0.930 . S
C750 C751 1.399 . S
C750 C755 1.399 . S
C751 C750 1.399 . S
C751 C752 1.376 . S
C752 H739 0.930 . S
C752 C751 1.376 . S
C752 C753 1.388 . S
C753 H740 0.930 . S
C753 C752 1.388 . S
C753 C754 1.390 . S
C754 C753 1.390 . S
C754 C755 1.394 . S
C754 C760 1.465 . S
C755 C750 1.399 . S
C755 C754 1.394 . S
C755 C756 1.516 . S
C756 C755 1.516 . S
C756 C757 1.502 . S
C756 C758 1.561 . S
C756 C759 1.526 . S
C757 H741 0.959 . S
C757 H742 0.959 . S
C757 H743 0.961 . S
C757 C756 1.502 . S
C758 H744 0.960 . S
C758 H745 0.961 . S
C758 H746 0.959 . S
C758 C756 1.561 . S
C759 C756 1.526 . S
C759 C760 1.396 . S
C759 C764 1.390 . S
C760 C754 1.465 . S
C760 C759 1.396 . S
C760 C761 1.399 . S
C761 H747 0.929 . S
C761 C760 1.399 . S
C761 C762 1.385 . S
C762 H748 0.931 . S
C762 C761 1.385 . S
C762 C763 1.389 . S
C763 C762 1.389 . S
C763 C764 1.387 . S
C764 H749 0.930 . S
C764 C759 1.390 . S
C764 C763 1.387 . S
H765 C777 0.930 . S
H766 C779 0.930 . S
H767 C780 0.930 . S
H768 C784 0.959 . S
H769 C784 0.959 . S
H770 C784 0.961 . S
H771 C785 0.960 . S
H772 C785 0.961 . S
H773 C785 0.959 . S
H774 C788 0.929 . S
H775 C789 0.931 . S
H776 C791 0.930 . S
C777 H765 0.930 . S
C777 C778 1.399 . S
C777 C782 1.399 . S
C778 C777 1.399 . S
C778 C779 1.376 . S
C779 H766 0.930 . S
C779 C778 1.376 . S
C779 C780 1.388 . S
C780 H767 0.930 . S
C780 C779 1.388 . S
C780 C781 1.390 . S
C781 C780 1.390 . S
C781 C782 1.394 . S
C781 C787 1.465 . S
C782 C777 1.399 . S
C782 C781 1.394 . S
C782 C783 1.516 . S
C783 C782 1.516 . S
C783 C784 1.502 . S
C783 C785 1.561 . S
C783 C786 1.526 . S
C784 H768 0.959 . S
C784 H769 0.959 . S
C784 H770 0.961 . S
C784 C783 1.502 . S
C785 H771 0.960 . S
C785 H772 0.961 . S
C785 H773 0.959 . S
C785 C783 1.561 . S
C786 C783 1.526 . S
C786 C787 1.396 . S
C786 C791 1.390 . S
C787 C781 1.465 . S
C787 C786 1.396 . S
C787 C788 1.399 . S
C788 H774 0.929 . S
C788 C787 1.399 . S
C788 C789 1.385 . S
C789 H775 0.931 . S
C789 C788 1.385 . S
C789 C790 1.389 . S
C790 C789 1.389 . S
C790 C791 1.387 . S
C791 H776 0.930 . S
C791 C786 1.390 . S
C791 C790 1.387 . S
H792 C804 0.930 . S
H793 C806 0.930 . S
H794 C807 0.930 . S
H795 C811 0.959 . S
H796 C811 0.959 . S
H797 C811 0.961 . S
H798 C812 0.960 . S
H799 C812 0.961 . S
H800 C812 0.959 . S
H801 C815 0.929 . S
H802 C816 0.931 . S
H803 C818 0.930 . S
C804 H792 0.930 . S
C804 C805 1.399 . S
C804 C809 1.399 . S
C805 C804 1.399 . S
C805 C806 1.376 . S
C806 H793 0.930 . S
C806 C805 1.376 . S
C806 C807 1.388 . S
C807 H794 0.930 . S
C807 C806 1.388 . S
C807 C808 1.390 . S
C808 C807 1.390 . S
C808 C809 1.394 . S
C808 C814 1.465 . S
C809 C804 1.399 . S
C809 C808 1.394 . S
C809 C810 1.516 . S
C810 C809 1.516 . S
C810 C811 1.502 . S
C810 C812 1.561 . S
C810 C813 1.526 . S
C811 H795 0.959 . S
C811 H796 0.959 . S
C811 H797 0.961 . S
C811 C810 1.502 . S
C812 H798 0.960 . S
C812 H799 0.961 . S
C812 H800 0.959 . S
C812 C810 1.561 . S
C813 C810 1.526 . S
C813 C814 1.396 . S
C813 C818 1.390 . S
C814 C808 1.465 . S
C814 C813 1.396 . S
C814 C815 1.399 . S
C815 H801 0.929 . S
C815 C814 1.399 . S
C815 C816 1.385 . S
C816 H802 0.931 . S
C816 C815 1.385 . S
C816 C817 1.389 . S
C817 C816 1.389 . S
C817 C818 1.387 . S
C818 H803 0.930 . S
C818 C813 1.390 . S
C818 C817 1.387 . S
H819 C831 0.930 . S
H820 C833 0.930 . S
H821 C834 0.930 . S
H822 C838 0.959 . S
H823 C838 0.959 . S
H824 C838 0.961 . S
H825 C839 0.960 . S
H826 C839 0.961 . S
H827 C839 0.959 . S
H828 C842 0.929 . S
H829 C843 0.931 . S
H830 C845 0.930 . S
C831 H819 0.930 . S
C831 C832 1.399 . S
C831 C836 1.399 . S
C832 C831 1.399 . S
C832 C833 1.376 . S
C833 H820 0.930 . S
C833 C832 1.376 . S
C833 C834 1.388 . S
C834 H821 0.930 . S
C834 C833 1.388 . S
C834 C835 1.390 . S
C835 C834 1.390 . S
C835 C836 1.394 . S
C835 C841 1.465 . S
C836 C831 1.399 . S
C836 C835 1.394 . S
C836 C837 1.516 . S
C837 C836 1.516 . S
C837 C838 1.502 . S
C837 C839 1.561 . S
C837 C840 1.526 . S
C838 H822 0.959 . S
C838 H823 0.959 . S
C838 H824 0.961 . S
C838 C837 1.502 . S
C839 H825 0.960 . S
C839 H826 0.961 . S
C839 H827 0.959 . S
C839 C837 1.561 . S
C840 C837 1.526 . S
C840 C841 1.396 . S
C840 C845 1.390 . S
C841 C835 1.465 . S
C841 C840 1.396 . S
C841 C842 1.399 . S
C842 H828 0.929 . S
C842 C841 1.399 . S
C842 C843 1.385 . S
C843 H829 0.931 . S
C843 C842 1.385 . S
C843 C844 1.389 . S
C844 C843 1.389 . S
C844 C845 1.387 . S
C845 H830 0.930 . S
C845 C840 1.390 . S
C845 C844 1.387 . S
H846 C858 0.930 . S
H847 C860 0.930 . S
H848 C861 0.930 . S
H849 C865 0.959 . S
H850 C865 0.959 . S
H851 C865 0.961 . S
H852 C866 0.960 . S
H853 C866 0.961 . S
H854 C866 0.959 . S
H855 C869 0.929 . S
H856 C870 0.931 . S
H857 C872 0.930 . S
C858 H846 0.930 . S
C858 C859 1.399 . S
C858 C863 1.399 . S
C859 C858 1.399 . S
C859 C860 1.376 . S
C860 H847 0.930 . S
C860 C859 1.376 . S
C860 C861 1.388 . S
C861 H848 0.930 . S
C861 C860 1.388 . S
C861 C862 1.390 . S
C862 C861 1.390 . S
C862 C863 1.394 . S
C862 C868 1.465 . S
C863 C858 1.399 . S
C863 C862 1.394 . S
C863 C864 1.516 . S
C864 C863 1.516 . S
C864 C865 1.502 . S
C864 C866 1.561 . S
C864 C867 1.526 . S
C865 H849 0.959 . S
C865 H850 0.959 . S
C865 H851 0.961 . S
C865 C864 1.502 . S
C866 H852 0.960 . S
C866 H853 0.961 . S
C866 H854 0.959 . S
C866 C864 1.561 . S
C867 C864 1.526 . S
C867 C868 1.396 . S
C867 C872 1.390 . S
C868 C862 1.465 . S
C868 C867 1.396 . S
C868 C869 1.399 . S
C869 H855 0.929 . S
C869 C868 1.399 . S
C869 C870 1.385 . S
C870 H856 0.931 . S
C870 C869 1.385 . S
C870 C871 1.389 . S
C871 C870 1.389 . S
C871 C872 1.387 . S
C872 H857 0.930 . S
C872 C867 1.390 . S
C872 C871 1.387 . S
H873 C885 0.930 . S
H874 C887 0.930 . S
H875 C888 0.930 . S
H876 C892 0.959 . S
H877 C892 0.959 . S
H878 C892 0.961 . S
H879 C893 0.960 . S
H880 C893 0.961 . S
H881 C893 0.959 . S
H882 C896 0.929 . S
H883 C897 0.931 . S
H884 C899 0.930 . S
C885 H873 0.930 . S
C885 C886 1.399 . S
C885 C890 1.399 . S
C886 C885 1.399 . S
C886 C887 1.376 . S
C887 H874 0.930 . S
C887 C886 1.376 . S
C887 C888 1.388 . S
C888 H875 0.930 . S
C888 C887 1.388 . S
C888 C889 1.390 . S
C889 C888 1.390 . S
C889 C890 1.394 . S
C889 C895 1.465 . S
C890 C885 1.399 . S
C890 C889 1.394 . S
C890 C891 1.516 . S
C891 C890 1.516 . S
C891 C892 1.502 . S
C891 C893 1.561 . S
C891 C894 1.526 . S
C892 H876 0.959 . S
C892 H877 0.959 . S
C892 H878 0.961 . S
C892 C891 1.502 . S
C893 H879 0.960 . S
C893 H880 0.961 . S
C893 H881 0.959 . S
C893 C891 1.561 . S
C894 C891 1.526 . S
C894 C895 1.396 . S
C894 C899 1.390 . S
C895 C889 1.465 . S
C895 C894 1.396 . S
C895 C896 1.399 . S
C896 H882 0.929 . S
C896 C895 1.399 . S
C896 C897 1.385 . S
C897 H883 0.931 . S
C897 C896 1.385 . S
C897 C898 1.389 . S
C898 C897 1.389 . S
C898 C899 1.387 . S
C899 H884 0.930 . S
C899 C894 1.390 . S
C899 C898 1.387 . S
H900 C912 0.930 . S
H901 C914 0.930 . S
H902 C915 0.930 . S
H903 C919 0.959 . S
H904 C919 0.959 . S
H905 C919 0.961 . S
H906 C920 0.960 . S
H907 C920 0.961 . S
H908 C920 0.959 . S
H909 C923 0.929 . S
H910 C924 0.931 . S
H911 C926 0.930 . S
C912 H900 0.930 . S
C912 C913 1.399 . S
C912 C917 1.399 . S
C913 C912 1.399 . S
C913 C914 1.376 . S
C914 H901 0.930 . S
C914 C913 1.376 . S
C914 C915 1.388 . S
C915 H902 0.930 . S
C915 C914 1.388 . S
C915 C916 1.390 . S
C916 C915 1.390 . S
C916 C917 1.394 . S
C916 C922 1.465 . S
C917 C912 1.399 . S
C917 C916 1.394 . S
C917 C918 1.516 . S
C918 C917 1.516 . S
C918 C919 1.502 . S
C918 C920 1.561 . S
C918 C921 1.526 . S
C919 H903 0.959 . S
C919 H904 0.959 . S
C919 H905 0.961 . S
C919 C918 1.502 . S
C920 H906 0.960 . S
C920 H907 0.961 . S
C920 H908 0.959 . S
C920 C918 1.561 . S
C921 C918 1.526 . S
C921 C922 1.396 . S
C921 C926 1.390 . S
C922 C916 1.465 . S
C922 C921 1.396 . S
C922 C923 1.399 . S
C923 H909 0.929 . S
C923 C922 1.399 . S
C923 C924 1.385 . S
C924 H910 0.931 . S
C924 C923 1.385 . S
C924 C925 1.389 . S
C925 C924 1.389 . S
C925 C926 1.387 . S
C926 H911 0.930 . S
C926 C921 1.390 . S
C926 C925 1.387 . S
H927 C939 0.930 . S
H928 C941 0.930 . S
H929 C942 0.930 . S
H930 C946 0.959 . S
H931 C946 0.959 . S
H932 C946 0.961 . S
H933 C947 0.960 . S
H934 C947 0.961 . S
H935 C947 0.959 . S
H936 C950 0.929 . S
H937 C951 0.931 . S
H938 C953 0.930 . S
C939 H927 0.930 . S
C939 C940 1.399 . S
C939 C944 1.399 . S
C940 C939 1.399 . S
C940 C941 1.376 . S
C941 H928 0.930 . S
C941 C940 1.376 . S
C941 C942 1.388 . S
C942 H929 0.930 . S
C942 C941 1.388 . S
C942 C943 1.390 . S
C943 C942 1.390 . S
C943 C944 1.394 . S
C943 C949 1.465 . S
C944 C939 1.399 . S
C944 C943 1.394 . S
C944 C945 1.516 . S
C945 C944 1.516 . S
C945 C946 1.502 . S
C945 C947 1.561 . S
C945 C948 1.526 . S
C946 H930 0.959 . S
C946 H931 0.959 . S
C946 H932 0.961 . S
C946 C945 1.502 . S
C947 H933 0.960 . S
C947 H934 0.961 . S
C947 H935 0.959 . S
C947 C945 1.561 . S
C948 C945 1.526 . S
C948 C949 1.396 . S
C948 C953 1.390 . S
C949 C943 1.465 . S
C949 C948 1.396 . S
C949 C950 1.399 . S
C950 H936 0.929 . S
C950 C949 1.399 . S
C950 C951 1.385 . S
C951 H937 0.931 . S
C951 C950 1.385 . S
C951 C952 1.389 . S
C952 C951 1.389 . S
C952 C953 1.387 . S
C953 H938 0.930 . S
C953 C948 1.390 . S
C953 C952 1.387 . S
H954 C966 0.930 . S
H955 C968 0.930 . S
H956 C969 0.930 . S
H957 C973 0.959 . S
H958 C973 0.959 . S
H959 C973 0.961 . S
H960 C974 0.960 . S
H961 C974 0.961 . S
H962 C974 0.959 . S
H963 C977 0.929 . S
H964 C978 0.931 . S
H965 C980 0.930 . S
C966 H954 0.930 . S
C966 C967 1.399 . S
C966 C971 1.399 . S
C967 C966 1.399 . S
C967 C968 1.376 . S
C968 H955 0.930 . S
C968 C967 1.376 . S
C968 C969 1.388 . S
C969 H956 0.930 . S
C969 C968 1.388 . S
C969 C970 1.390 . S
C970 C969 1.390 . S
C970 C971 1.394 . S
C970 C976 1.465 . S
C971 C966 1.399 . S
C971 C970 1.394 . S
C971 C972 1.516 . S
C972 C971 1.516 . S
C972 C973 1.502 . S
C972 C974 1.561 . S
C972 C975 1.526 . S
C973 H957 0.959 . S
C973 H958 0.959 . S
C973 H959 0.961 . S
C973 C972 1.502 . S
C974 H960 0.960 . S
C974 H961 0.961 . S
C974 H962 0.959 . S
C974 C972 1.561 . S
C975 C972 1.526 . S
C975 C976 1.396 . S
C975 C980 1.390 . S
C976 C970 1.465 . S
C976 C975 1.396 . S
C976 C977 1.399 . S
C977 H963 0.929 . S
C977 C976 1.399 . S
C977 C978 1.385 . S
C978 H964 0.931 . S
C978 C977 1.385 . S
C978 C979 1.389 . S
C979 C978 1.389 . S
C979 C980 1.387 . S
C980 H965 0.930 . S
C980 C975 1.390 . S
C980 C979 1.387 . S
H981 C993 0.930 . S
H982 C995 0.930 . S
H983 C996 0.930 . S
H984 C1000 0.959 . S
H985 C1000 0.959 . S
H986 C1000 0.961 . S
H987 C1001 0.960 . S
H988 C1001 0.961 . S
H989 C1001 0.959 . S
H990 C1004 0.929 . S
H991 C1005 0.931 . S
H992 C1007 0.930 . S
C993 H981 0.930 . S
C993 C994 1.399 . S
C993 C998 1.399 . S
C994 C993 1.399 . S
C994 C995 1.376 . S
C995 H982 0.930 . S
C995 C994 1.376 . S
C995 C996 1.388 . S
C996 H983 0.930 . S
C996 C995 1.388 . S
C996 C997 1.390 . S
C997 C996 1.390 . S
C997 C998 1.394 . S
C997 C1003 1.465 . S
C998 C993 1.399 . S
C998 C997 1.394 . S
C998 C999 1.516 . S
C999 C998 1.516 . S
C999 C1000 1.502 . S
C999 C1001 1.561 . S
C999 C1002 1.526 . S
C1000 H984 0.959 . S
C1000 H985 0.959 . S
C1000 H986 0.961 . S
C1000 C999 1.502 . S
C1001 H987 0.960 . S
C1001 H988 0.961 . S
C1001 H989 0.959 . S
C1001 C999 1.561 . S
C1002 C999 1.526 . S
C1002 C1003 1.396 . S
C1002 C1007 1.390 . S
C1003 C997 1.465 . S
C1003 C1002 1.396 . S
C1003 C1004 1.399 . S
C1004 H990 0.929 . S
C1004 C1003 1.399 . S
C1004 C1005 1.385 . S
C1005 H991 0.931 . S
C1005 C1004 1.385 . S
C1005 C1006 1.389 . S
C1006 C1005 1.389 . S
C1006 C1007 1.387 . S
C1007 H992 0.930 . S
C1007 C1002 1.390 . S
C1007 C1006 1.387 . S
H1008 C1020 0.930 . S
H1009 C1022 0.930 . S
H1010 C1023 0.930 . S
H1011 C1027 0.959 . S
H1012 C1027 0.959 . S
H1013 C1027 0.961 . S
H1014 C1028 0.960 . S
H1015 C1028 0.961 . S
H1016 C1028 0.959 . S
H1017 C1031 0.929 . S
H1018 C1032 0.931 . S
H1019 C1034 0.930 . S
C1020 H1008 0.930 . S
C1020 C1021 1.399 . S
C1020 C1025 1.399 . S
C1021 C1020 1.399 . S
C1021 C1022 1.376 . S
C1022 H1009 0.930 . S
C1022 C1021 1.376 . S
C1022 C1023 1.388 . S
C1023 H1010 0.930 . S
C1023 C1022 1.388 . S
C1023 C1024 1.390 . S
C1024 C1023 1.390 . S
C1024 C1025 1.394 . S
C1024 C1030 1.465 . S
C1025 C1020 1.399 . S
C1025 C1024 1.394 . S
C1025 C1026 1.516 . S
C1026 C1025 1.516 . S
C1026 C1027 1.502 . S
C1026 C1028 1.561 . S
C1026 C1029 1.526 . S
C1027 H1011 0.959 . S
C1027 H1012 0.959 . S
C1027 H1013 0.961 . S
C1027 C1026 1.502 . S
C1028 H1014 0.960 . S
C1028 H1015 0.961 . S
C1028 H1016 0.959 . S
C1028 C1026 1.561 . S
C1029 C1026 1.526 . S
C1029 C1030 1.396 . S
C1029 C1034 1.390 . S
C1030 C1024 1.465 . S
C1030 C1029 1.396 . S
C1030 C1031 1.399 . S
C1031 H1017 0.929 . S
C1031 C1030 1.399 . S
C1031 C1032 1.385 . S
C1032 H1018 0.931 . S
C1032 C1031 1.385 . S
C1032 C1033 1.389 . S
C1033 C1032 1.389 . S
C1033 C1034 1.387 . S
C1034 H1019 0.930 . S
C1034 C1029 1.390 . S
C1034 C1033 1.387 . S
C412 C312 1.024 . S
C400 C1 1.104 . S
C439 C348 1.677 . S
C427 C37 1.769 . S
C466 C313 1.425 . S
C454 C103 1.425 . S
C493 C343 1.572 . S
C481 C139 1.569 . S
C520 C310 1.438 . S
C508 C145 1.479 . S
C535 C205 1.696 . S
C547 C346 1.706 . S
C562 C247 1.188 . S
C574 C315 1.050 . S
C601 C345 1.473 . S
C589 C283 1.481 . S
C628 C349 1.469 . S
C616 C25 1.429 . S
C655 C314 1.463 . S
C643 C67 1.561 . S
C682 C342 1.696 . S
C670 C97 1.705 . S
C709 C311 1.092 . S
C697 C109 1.232 . S
C736 C344 1.619 . S
C724 C169 1.689 . S
C751 C181 1.394 . S
C763 C309 1.404 . S
C778 C217 1.571 . S
C790 C347 1.535 . S
C817 C316 1.008 . S
C805 C277 1.103 . S
C844 C378 1.680 . S
C832 C31 1.742 . S
C859 C175 1.967 . S
C871 C381 1.855 . S
C898 C380 1.708 . S
C886 C211 1.736 . S
C913 C241 2.034 . S
C925 C379 2.080 . S
C952 C382 1.605 . S
C940 C253 1.751 . S
C967 C73 1.737 . S
C979 C376 1.657 . S
C1006 C375 2.052 . S
C994 C133 2.062 . S
C1021 C61 2.014 . S
C1033 C377 1.926 . S
