# Generated by pormake.
# Topology zzz, (3,6)-cn, num edge types: 1
# Building blocks:
#     Node 0, Type 0, BuildingBlock: CUQRIR_clean_linker_1, # of connection points: 3
#     Node 1, Type 0, BuildingBlock: CUQRIR_clean_linker_1, # of connection points: 3
#     Node 2, Type 0, BuildingBlock: CUQRIR_clean_linker_1, # of connection points: 3
#     Node 3, Type 0, BuildingBlock: CUQRIR_clean_linker_1, # of connection points: 3
#     Node 4, Type 0, BuildingBlock: CUQRIR_clean_linker_1, # of connection points: 3
#     Node 5, Type 0, BuildingBlock: CUQRIR_clean_linker_1, # of connection points: 3
#     Node 6, Type 0, BuildingBlock: CUQRIR_clean_linker_1, # of connection points: 3
#     Node 7, Type 0, BuildingBlock: CUQRIR_clean_linker_1, # of connection points: 3
#     Node 8, Type 1, BuildingBlock: CIFDUS_clean_sbu_1, # of connection points: 6
#     Node 9, Type 1, BuildingBlock: CIFDUS_clean_sbu_1, # of connection points: 6
#     Node 10, Type 1, BuildingBlock: CIFDUS_clean_sbu_1, # of connection points: 6
#     Node 11, Type 1, BuildingBlock: CIFDUS_clean_sbu_1, # of connection points: 6
#     Edge 12, Type (0, 1), BuildingBlock: XIVTED_clean_linker_0, # of connection points: 2
#     Edge 13, Type (0, 1), BuildingBlock: XIVTED_clean_linker_0, # of connection points: 2
#     Edge 14, Type (0, 1), BuildingBlock: XIVTED_clean_linker_0, # of connection points: 2
#     Edge 15, Type (0, 1), BuildingBlock: XIVTED_clean_linker_0, # of connection points: 2
#     Edge 16, Type (0, 1), BuildingBlock: XIVTED_clean_linker_0, # of connection points: 2
#     Edge 17, Type (0, 1), BuildingBlock: XIVTED_clean_linker_0, # of connection points: 2
#     Edge 18, Type (0, 1), BuildingBlock: XIVTED_clean_linker_0, # of connection points: 2
#     Edge 19, Type (0, 1), BuildingBlock: XIVTED_clean_linker_0, # of connection points: 2
#     Edge 20, Type (0, 1), BuildingBlock: XIVTED_clean_linker_0, # of connection points: 2
#     Edge 21, Type (0, 1), BuildingBlock: XIVTED_clean_linker_0, # of connection points: 2
#     Edge 22, Type (0, 1), BuildingBlock: XIVTED_clean_linker_0, # of connection points: 2
#     Edge 23, Type (0, 1), BuildingBlock: XIVTED_clean_linker_0, # of connection points: 2
#     Edge 24, Type (0, 1), BuildingBlock: XIVTED_clean_linker_0, # of connection points: 2
#     Edge 25, Type (0, 1), BuildingBlock: XIVTED_clean_linker_0, # of connection points: 2
#     Edge 26, Type (0, 1), BuildingBlock: XIVTED_clean_linker_0, # of connection points: 2
#     Edge 27, Type (0, 1), BuildingBlock: XIVTED_clean_linker_0, # of connection points: 2
#     Edge 28, Type (0, 1), BuildingBlock: XIVTED_clean_linker_0, # of connection points: 2
#     Edge 29, Type (0, 1), BuildingBlock: XIVTED_clean_linker_0, # of connection points: 2
#     Edge 30, Type (0, 1), BuildingBlock: XIVTED_clean_linker_0, # of connection points: 2
#     Edge 31, Type (0, 1), BuildingBlock: XIVTED_clean_linker_0, # of connection points: 2
#     Edge 32, Type (0, 1), BuildingBlock: XIVTED_clean_linker_0, # of connection points: 2
#     Edge 33, Type (0, 1), BuildingBlock: XIVTED_clean_linker_0, # of connection points: 2
#     Edge 34, Type (0, 1), BuildingBlock: XIVTED_clean_linker_0, # of connection points: 2
#     Edge 35, Type (0, 1), BuildingBlock: XIVTED_clean_linker_0, # of connection points: 2
# Relax obj value: 0.151
# Max RMSD: 0.190
# Mean RMSD: 0.115
data_MOF--net-zzz--node1-CIFDUS_clean_sbu_1--node2-CUQRIR_clean_linker_1--edge1-XIVTED_clean_linker_0
_symmetry_space_group_name_H-M    P1
_symmetry_Int_Tables_number       1
_symmetry_cell_setting            triclinic
loop_
_symmetry_equiv_pos_as_xyz
'x, y, z'
_cell_length_a     47.333028
_cell_length_b     47.246644
_cell_length_c     14.279219
_cell_angle_alpha  90.062879
_cell_angle_beta   90.200149
_cell_angle_gamma 89.928945
loop_
_atom_site_label
_atom_site_type_symbol
_atom_site_fract_x
_atom_site_fract_y
_atom_site_fract_z
_atom_type_partial_charge
C0 C 0.7506 0.55599 0.21818 0.0
N1 N 0.77935 0.55653 0.21662 0.0
N2 N 0.73976 0.55893 0.13019 0.0
C3 C 0.73317 0.55154 0.30428 0.0
C4 C 0.76302 0.56068 0.07539 0.0
N5 N 0.78688 0.55921 0.12757 0.0
C6 C 0.76253 0.55991 0.97017 0.0
H7 H 0.72939 0.52853 0.31323 0.0
H8 H 0.71239 0.56224 0.29703 0.0
H9 H 0.74441 0.55955 0.36728 0.0
H10 H 0.78092 0.5715 0.94138 0.0
H11 H 0.74272 0.5692 0.94202 0.0
H12 H 0.7639 0.53755 0.94673 0.0
C13 C 0.95607 0.7482 0.20714 0.0
N14 N 0.95645 0.77708 0.20481 0.0
N15 N 0.95548 0.73712 0.11855 0.0
C16 C 0.95605 0.73092 0.29504 0.0
C17 C 0.95614 0.7604 0.06302 0.0
N18 N 0.95667 0.78432 0.11501 0.0
C19 C 0.95902 0.75965 0.95801 0.0
H20 H 0.97822 0.72662 0.31608 0.0
H21 H 0.94527 0.71037 0.28324 0.0
H22 H 0.94558 0.74266 0.3527 0.0
H23 H 0.93776 0.757 0.92629 0.0
H24 H 0.97233 0.74149 0.936 0.0
H25 H 0.96834 0.77949 0.93051 0.0
C26 C 0.7618 0.95936 0.21807 0.0
N27 N 0.73315 0.95762 0.21053 0.0
N28 N 0.77466 0.95106 0.13698 0.0
C29 C 0.77697 0.971 0.30192 0.0
C30 C 0.75254 0.94445 0.08027 0.0
N31 N 0.7275 0.94887 0.12397 0.0
C32 C 0.7554 0.93588 0.97895 0.0
H33 H 0.77654 0.99446 0.2986 0.0
H34 H 0.79929 0.96379 0.30344 0.0
H35 H 0.76611 0.96445 0.36715 0.0
H36 H 0.76706 0.91558 0.97432 0.0
H37 H 0.76771 0.95211 0.94055 0.0
H38 H 0.73465 0.93277 0.94432 0.0
C39 C 0.56087 0.75899 0.20889 0.0
N40 N 0.56192 0.73016 0.20482 0.0
N41 N 0.56317 0.77056 0.1218 0.0
C42 C 0.5551 0.77573 0.29593 0.0
C43 C 0.56514 0.74761 0.06527 0.0
N44 N 0.56414 0.72328 0.11491 0.0
C45 C 0.56464 0.74887 0.96003 0.0
H46 H 0.53197 0.77891 0.30252 0.0
H47 H 0.56526 0.79684 0.2916 0.0
H48 H 0.56283 0.76426 0.35881 0.0
H49 H 0.57527 0.76834 0.93484 0.0
H50 H 0.54237 0.74924 0.93551 0.0
H51 H 0.57513 0.72994 0.9298 0.0
C52 C 0.25909 0.45689 0.19618 0.0
N53 N 0.23046 0.45451 0.19067 0.0
N54 N 0.26833 0.45232 0.28557 0.0
C55 C 0.27758 0.46658 0.11739 0.0
C56 C 0.24404 0.44727 0.3332 0.0
N57 N 0.22123 0.44887 0.27628 0.0
C58 C 0.24215 0.44241 0.43706 0.0
H59 H 0.29719 0.45376 0.11504 0.0
H60 H 0.2837 0.48893 0.12983 0.0
H61 H 0.26648 0.46499 0.04903 0.0
H62 H 0.23801 0.46287 0.47267 0.0
H63 H 0.26206 0.43321 0.46488 0.0
H64 H 0.2243 0.42801 0.45297 0.0
C65 C 0.05054 0.2612 0.19493 0.0
N66 N 0.05177 0.23242 0.19875 0.0
N67 N 0.05671 0.273 0.28002 0.0
C68 C 0.04147 0.27752 0.11007 0.0
C69 C 0.06135 0.25009 0.33533 0.0
N70 N 0.05801 0.22564 0.28667 0.0
C71 C 0.06649 0.25159 0.43947 0.0
H72 H 0.04947 0.26712 0.04565 0.0
H73 H 0.04914 0.29968 0.11361 0.0
H74 H 0.01805 0.27768 0.10647 0.0
H75 H 0.04928 0.26382 0.47332 0.0
H76 H 0.08663 0.26279 0.45332 0.0
H77 H 0.06802 0.23033 0.47182 0.0
C78 C 0.25017 0.05736 0.20058 0.0
N79 N 0.27899 0.05908 0.20146 0.0
N80 N 0.23954 0.05829 0.28943 0.0
C81 C 0.23256 0.05289 0.11445 0.0
C82 C 0.26304 0.06049 0.34351 0.0
N83 N 0.28667 0.06077 0.29083 0.0
C84 C 0.26316 0.05968 0.44883 0.0
H85 H 0.2116 0.06313 0.12254 0.0
H86 H 0.22917 0.02986 0.10438 0.0
H87 H 0.24338 0.06145 0.05175 0.0
H88 H 0.26553 0.03742 0.47231 0.0
H89 H 0.24314 0.06832 0.47739 0.0
H90 H 0.28125 0.07198 0.47705 0.0
C91 C 0.45484 0.24978 0.2027 0.0
N92 N 0.45528 0.27856 0.20813 0.0
N93 N 0.45067 0.23797 0.28892 0.0
C94 C 0.46024 0.23337 0.11473 0.0
C95 C 0.44909 0.26078 0.34654 0.0
N96 N 0.45193 0.28517 0.29783 0.0
C97 C 0.44716 0.25908 0.45175 0.0
H98 H 0.45136 0.24475 0.05334 0.0
H99 H 0.45097 0.21186 0.11928 0.0
H100 H 0.48339 0.23138 0.10466 0.0
H101 H 0.46318 0.24399 0.47902 0.0
H102 H 0.42601 0.25105 0.47149 0.0
H103 H 0.45004 0.27996 0.48589 0.0
O104 O 0.00968 0.04292 0.78093 0.0
Mn105 Mn 0.00181 0.0062 0.69693 0.0
O106 O 0.97025 0.06944 0.76525 0.0
Mn107 Mn 0.95055 0.04517 0.6854 0.0
O108 O 0.99343 0.96916 0.61332 0.0
O109 O 0.04583 0.00247 0.6726 0.0
Mn110 Mn 0.04894 0.96783 0.72292 0.0
O111 O -0.00049 0.9811 0.81596 0.0
O112 O 0.03011 0.94136 0.65025 0.0
O113 O 0.00197 0.03225 0.57783 0.0
O114 O 0.95818 0.04875 0.5598 0.0
O115 O 0.08447 0.97524 0.69134 0.0
O116 O 0.04195 0.96542 0.84924 0.0
C117 C 0.93273 0.00903 0.74972 0.0
C118 C 0.99493 0.0654 0.79951 0.0
C119 C 0.00675 0.9452 0.60761 0.0
C120 C 0.07339 -0.00147 0.66027 0.0
C121 C 0.01631 0.96815 0.87091 0.0
C122 C 0.98347 0.04651 0.53164 0.0
O123 O 0.9591 0.01056 0.72228 0.0
O124 O 0.91722 0.03051 0.72646 0.0
O125 O 0.53318 0.00577 0.82573 0.0
Mn126 Mn 0.50602 0.00595 0.7093 0.0
O127 O 0.55017 0.04942 0.84017 0.0
Mn128 Mn 0.54563 0.05648 0.71445 0.0
O129 O 0.47999 0.00743 0.59163 0.0
O130 O 0.50189 0.96228 0.73749 0.0
Mn131 Mn 0.46655 0.95898 0.69347 0.0
O132 O 0.46995 0.01571 0.79495 0.0
O133 O 0.46282 0.96488 0.56694 0.0
O134 O 0.54192 0.99691 0.62339 0.0
O135 O 0.56898 0.03609 0.63405 0.0
O136 O 0.47436 0.92368 0.72848 0.0
O137 O 0.44128 0.97903 0.76672 0.0
C138 C 0.50947 0.07514 0.65379 0.0
C139 C 0.54835 0.02412 0.86892 0.0
C140 C 0.46612 0.99012 0.54073 0.0
C141 C 0.49823 0.93487 0.75353 0.0
C142 C 0.44589 0.00295 0.80487 0.0
C143 C 0.56441 0.01122 0.60227 0.0
O144 O 0.51059 0.04861 0.68071 0.0
O145 O 0.53157 0.09013 0.6738 0.0
O146 O 0.50136 0.53304 0.8225 0.0
Mn147 Mn 0.50413 0.5058 0.70733 0.0
O148 O 0.45774 0.54994 0.82765 0.0
Mn149 Mn 0.45464 0.54487 0.70068 0.0
O150 O 0.50655 0.47894 0.59157 0.0
O151 O 0.54693 0.50195 0.74746 0.0
Mn152 Mn 0.55159 0.46525 0.72101 0.0
O153 O 0.49214 0.47059 0.7934 0.0
O154 O 0.54778 0.45678 0.5962 0.0
O155 O 0.51523 0.54164 0.62236 0.0
O156 O 0.47648 0.5691 0.62978 0.0
O157 O 0.586 0.47515 0.75998 0.0
O158 O 0.5307 0.44315 0.80177 0.0
C159 C 0.43529 0.51004 0.63885 0.0
C160 C 0.48216 0.54768 0.86301 0.0
C161 C 0.5246 0.46201 0.55553 0.0
C162 C 0.57383 0.49944 0.77257 0.0
C163 C 0.5052 0.44827 0.82343 0.0
C164 C 0.50179 0.5649 0.60286 0.0
O165 O 0.46188 0.50944 0.66686 0.0
O166 O 0.42136 0.53324 0.65366 0.0
O167 O 0.04244 0.49799 0.78152 0.0
Mn168 Mn 0.00469 0.50438 0.70316 0.0
O169 O 0.06928 0.53603 0.74727 0.0
Mn170 Mn 0.0438 0.55452 0.66851 0.0
O171 O 0.96695 0.51079 0.62485 0.0
O172 O -0.00067 0.46139 0.69067 0.0
Mn173 Mn 0.9657 0.45438 0.739 0.0
O174 O 0.98101 0.50822 0.82513 0.0
O175 O 0.94001 0.47306 0.66138 0.0
O176 O 0.02828 0.5006 0.58096 0.0
O177 O 0.04519 0.54307 0.5447 0.0
O178 O 0.97925 0.41987 0.70162 0.0
O179 O 0.96468 0.46568 0.86287 0.0
C180 C 0.00896 0.57425 0.73698 0.0
C181 C 0.06557 0.51247 0.7896 0.0
C182 C 0.94367 0.4965 0.61825 0.0
C183 C 0.00021 0.43445 0.66948 0.0
C184 C 0.96778 0.4918 0.88109 0.0
C185 C 0.04164 0.51705 0.52547 0.0
O186 O 0.01007 0.54733 0.7157 0.0
O187 O 0.0299 0.58898 0.70548 0.0
H188 H 0.19077 0.08933 0.27771 0.0
H189 H 0.12548 0.01488 0.71397 0.0
H190 H 0.22502 0.0114 0.38462 0.0
H191 H 0.06794 0.02051 0.4815 0.0
H192 H 0.1638 0.03089 0.61259 0.0
H193 H 0.14637 0.07993 0.36464 0.0
C194 C 0.18867 0.06995 0.31743 0.0
C195 C 0.21155 0.05097 0.32343 0.0
C196 C 0.14253 0.0298 0.58458 0.0
C197 C 0.16159 0.04074 0.42548 0.0
C198 C 0.1205 0.02099 0.64266 0.0
C199 C 0.09291 0.01755 0.60749 0.0
C200 C 0.13722 0.03572 0.48999 0.0
C201 C 0.08824 0.02468 0.51302 0.0
C202 C 0.16348 0.06472 0.36741 0.0
C203 C 0.20794 0.02651 0.37793 0.0
N204 N 0.11015 0.03337 0.45725 0.0
N205 N 0.18382 0.02239 0.42788 0.0
H206 H 0.41284 0.20879 0.39351 0.0
H207 H 0.51519 0.07502 0.46603 0.0
H208 H 0.49322 0.20028 0.25649 0.0
H209 H 0.46191 0.107 0.68552 0.0
H210 H 0.49672 0.11164 0.36039 0.0
H211 H 0.42094 0.16329 0.47283 0.0
C212 C 0.43201 0.19711 0.37901 0.0
C213 C 0.45252 0.20859 0.31898 0.0
C214 C 0.48835 0.11008 0.43068 0.0
C215 C 0.46169 0.15605 0.40819 0.0
C216 C 0.49845 0.0888 0.49057 0.0
C217 C 0.48953 0.08735 0.58427 0.0
C218 C 0.46898 0.13018 0.46425 0.0
C219 C 0.46877 0.10672 0.61326 0.0
C220 C 0.4366 0.17115 0.42426 0.0
C221 C 0.47674 0.19221 0.30144 0.0
N222 N 0.45934 0.12739 0.55386 0.0
N223 N 0.48072 0.16691 0.34611 0.0
H224 H 0.27991 0.48954 0.42392 0.0
H225 H 0.43994 0.49706 0.45266 0.0
H226 H 0.31963 0.42856 0.24263 0.0
H227 H 0.39297 0.47703 0.70117 0.0
H228 H 0.40069 0.47852 0.3566 0.0
H229 H 0.3246 0.49514 0.5089 0.0
C230 C 0.2981 0.4774 0.40175 0.0
C231 C 0.29583 0.45825 0.32685 0.0
C232 C 0.39955 0.4771 0.43219 0.0
C233 C 0.34749 0.46529 0.42236 0.0
C234 C 0.42218 0.48715 0.48719 0.0
C235 C 0.42028 0.48764 0.58554 0.0
C236 C 0.37441 0.46867 0.47598 0.0
C237 C 0.39578 0.47628 0.62596 0.0
C238 C 0.32356 0.48061 0.45025 0.0
C239 C 0.32046 0.44367 0.29952 0.0
N240 N 0.3736 0.46805 0.57133 0.0
N241 N 0.3454 0.44758 0.34696 0.0
H242 H 0.00974 0.30588 0.26368 0.0
H243 H 0.05161 0.40724 0.6826 0.0
H244 H 0.09424 0.30591 0.37567 0.0
H245 H 0.98511 0.42806 0.48844 0.0
H246 H 0.06897 0.37122 0.57172 0.0
H247 H 0.00067 0.35101 0.34403 0.0
C248 C 0.0266 0.31571 0.30342 0.0
C249 C 0.05277 0.30195 0.31296 0.0
C250 C 0.05108 0.38424 0.55205 0.0
C251 C 0.04225 0.35336 0.40854 0.0
C252 C 0.04144 0.40513 0.61489 0.0
C253 C 0.01735 0.42134 0.59373 0.0
C254 C 0.03591 0.37876 0.46882 0.0
C255 C 0.0042 0.41662 0.50659 0.0
C256 C 0.02137 0.3414 0.35008 0.0
C257 C 0.07362 0.31548 0.36757 0.0
N258 N 0.01326 0.39556 0.44846 0.0
N259 N 0.06781 0.34007 0.4143 0.0
H260 H 0.80891 0.9113 0.05879 0.0
H261 H 0.93323 0.01977 0.9351 0.0
H262 H 0.80694 -0.0012 0.1425 0.0
H263 H 0.90271 0.95943 0.73299 0.0
H264 H 0.89791 0.00275 0.04734 0.0
H265 H 0.85331 0.92011 0.97435 0.0
C266 C 0.81802 0.93229 0.06054 0.0
C267 C 0.80384 0.95444 0.10671 0.0
C268 C 0.89958 0.99256 0.97961 0.0
C269 C 0.85527 0.96446 0.01249 0.0
C270 C 0.92012 0.00185 0.91603 0.0
C271 C 0.92154 0.99052 0.82502 0.0
C272 C 0.88036 0.97142 0.95287 0.0
C273 C 0.903 0.96823 0.80301 0.0
C274 C 0.84338 0.93725 0.01248 0.0
C275 C 0.81713 0.98105 0.10859 0.0
N276 N 0.88316 0.95949 0.86615 0.0
N277 N 0.84196 0.98533 0.06196 0.0
H278 H 0.59644 0.8177 0.11863 0.0
H279 H 0.51195 0.88179 0.70325 0.0
H280 H 0.51384 0.78685 0.04552 0.0
H281 H 0.5263 0.94245 0.92268 0.0
H282 H 0.52969 0.84431 0.80552 0.0
H283 H 0.58611 0.86206 0.03165 0.0
C284 C 0.57587 0.82066 0.08674 0.0
C285 C 0.55575 0.79881 0.09027 0.0
C286 C 0.52994 0.866 0.83032 0.0
C287 C 0.54431 0.84858 0.98826 0.0
C288 C 0.52014 0.88752 0.77166 0.0
C289 C 0.51832 0.91565 0.80342 0.0
C290 C 0.53849 0.87235 0.92192 0.0
C291 C 0.52851 0.92144 0.89411 0.0
C292 C 0.57008 0.8458 0.0368 0.0
C293 C 0.52972 0.80331 0.04534 0.0
N294 N 0.53802 0.89996 0.95077 0.0
N295 N 0.52498 0.82733 0.99502 0.0
H296 H 0.70407 0.59958 0.06789 0.0
H297 H 0.62175 0.52386 0.71101 0.0
H298 H 0.71103 0.50981 0.11115 0.0
H299 H 0.56823 0.51823 0.95292 0.0
H300 H 0.66002 0.54198 0.81087 0.0
H301 H 0.65895 0.59189 0.9834 0.0
C302 C 0.69562 0.57837 0.06177 0.0
C303 C 0.71097 0.5553 0.09752 0.0
C304 C 0.63944 0.53805 0.84121 0.0
C305 C 0.6599 0.54638 1.00063 0.0
C306 C 0.61741 0.52819 0.78412 0.0
C307 C 0.59103 0.52105 0.82245 0.0
C308 C 0.63536 0.54051 0.938 0.0
C309 C 0.58748 0.52512 0.91937 0.0
C310 C 0.67009 0.57401 0.01339 0.0
C311 C 0.69953 0.52811 0.08606 0.0
N312 N 0.60948 0.5342 0.97413 0.0
N313 N 0.67483 0.52435 0.03783 0.0
H314 H 0.91927 0.71148 0.99853 0.0
H315 H 0.01938 0.57571 0.92361 0.0
H316 H 0.99453 0.69638 0.16061 0.0
H317 H 0.96109 0.6064 0.71544 0.0
H318 H 0.00234 0.61208 0.03296 0.0
H319 H 0.92647 0.66617 0.91741 0.0
C320 C 0.93703 0.6983 0.01832 0.0
C321 C 0.95638 0.70787 0.08624 0.0
C322 C 0.99262 0.61036 0.96443 0.0
C323 C 0.96493 0.65571 0.993 0.0
C324 C 0.00198 0.58922 0.90244 0.0
C325 C 0.99109 0.58738 0.81084 0.0
C326 C 0.97215 0.63005 0.93494 0.0
C327 C 0.96952 0.60643 0.78601 0.0
C328 C 0.94122 0.67248 0.97167 0.0
C329 C 0.97899 0.6898 0.10933 0.0
N330 N 0.9609 0.62696 0.84722 0.0
N331 N 0.98278 0.6648 0.06235 0.0
H332 H 0.01574 0.21564 0.40524 0.0
H333 H 0.03415 0.04964 0.43766 0.0
H334 H 0.08258 0.17468 0.25268 0.0
H335 H 0.9552 0.09372 0.47401 0.0
H336 H 0.05497 0.09323 0.37437 0.0
H337 H -0.00278 0.16947 0.44946 0.0
C338 C 0.02685 0.19674 0.38314 0.0
C339 C 0.05081 0.19871 0.32665 0.0
C340 C 0.03298 0.09307 0.39504 0.0
C341 C 0.02917 0.14583 0.37285 0.0
C342 C 0.02114 0.06823 0.43092 0.0
C343 C 0.99329 0.06814 0.46423 0.0
C344 C 0.01673 0.11792 0.39379 0.0
C345 C 0.97693 0.09265 0.45088 0.0
C346 C 0.01603 0.17044 0.40661 0.0
C347 C 0.06415 0.17373 0.2972 0.0
N348 N 0.98908 0.11666 0.41882 0.0
N349 N 0.0531 0.1481 0.32056 0.0
H350 H 0.32769 0.0933 0.36755 0.0
H351 H 0.43135 0.96078 0.42165 0.0
H352 H 0.30718 0.00835 0.28339 0.0
H353 H 0.45414 0.04566 0.50427 0.0
H354 H 0.3885 0.97936 0.34966 0.0
H355 H 0.37598 0.07753 0.40679 0.0
C356 C 0.33349 0.07129 0.35862 0.0
C357 C 0.3139 0.05186 0.32353 0.0
C358 C 0.40313 0.99403 0.38206 0.0
C359 C 0.36845 0.03381 0.36513 0.0
C360 C 0.4278 0.98343 0.42232 0.0
C361 C 0.44617 0.00162 0.47067 0.0
C362 C 0.39673 0.02296 0.39073 0.0
C363 C 0.44051 0.03082 0.46855 0.0
C364 C 0.36093 0.06233 0.37966 0.0
C365 C 0.322 0.02366 0.31125 0.0
N366 N 0.41598 0.04055 0.43111 0.0
N367 N 0.34869 0.01543 0.33201 0.0
H368 H 0.42372 0.33448 0.27561 0.0
H369 H 0.55591 0.42107 0.46861 0.0
H370 H 0.49809 0.29722 0.3983 0.0
H371 H 0.47184 0.45635 0.47829 0.0
H372 H 0.53673 0.37854 0.39627 0.0
H373 H 0.44211 0.38192 0.31536 0.0
C374 C 0.44358 0.33645 0.31292 0.0
C375 C 0.45928 0.31228 0.33597 0.0
C376 C 0.52256 0.39587 0.41263 0.0
C377 C 0.48086 0.36562 0.37684 0.0
C378 C 0.53351 0.42033 0.45292 0.0
C379 C 0.51529 0.44209 0.48188 0.0
C380 C 0.49328 0.3933 0.40023 0.0
C381 C 0.48653 0.43997 0.45825 0.0
C382 C 0.45417 0.36329 0.33435 0.0
C383 C 0.48523 0.31551 0.38174 0.0
N384 N 0.47623 0.41569 0.42025 0.0
N385 N 0.49534 0.34173 0.40014 0.0
H386 H 0.20273 0.50159 0.29647 0.0
H387 H 0.05303 0.46067 0.49672 0.0
H388 H 0.17709 0.41465 0.32029 0.0
H389 H 0.07439 0.54395 0.3953 0.0
H390 H 0.09554 0.44188 0.42291 0.0
H391 H 0.15456 0.5167 0.33132 0.0
C392 C 0.18673 0.48578 0.31031 0.0
C393 C 0.19355 0.45703 0.30696 0.0
C394 C 0.09055 0.46413 0.41497 0.0
C395 C 0.13837 0.4738 0.34553 0.0
C396 C 0.06608 0.47489 0.4564 0.0
C397 C 0.06044 0.50414 0.45446 0.0
C398 C 0.10945 0.48281 0.37172 0.0
C399 C 0.07814 0.5214 0.40052 0.0
C400 C 0.15924 0.49427 0.32892 0.0
C401 C 0.17238 0.43704 0.32384 0.0
N402 N 0.10214 0.51058 0.3631 0.0
N403 N 0.14558 0.44581 0.34318 0.0
H404 H 0.9237 0.82016 0.01574 0.0
H405 H 0.04366 0.93895 0.0099 0.0
H406 H 0.00547 0.81122 0.14463 0.0
H407 H 0.9618 0.94968 0.88057 0.0
H408 H 0.02709 0.89504 0.08051 0.0
H409 H 0.93521 0.8696 0.97646 0.0
C410 C 0.94415 0.82873 0.03458 0.0
C411 C 0.96385 0.81207 0.08252 0.0
C412 C 0.01256 0.90728 0.03801 0.0
C413 C 0.97697 0.86803 0.04085 0.0
C414 C 0.02195 0.93253 0.99861 0.0
C415 C 0.00424 0.94786 0.93828 0.0
C416 C 0.98543 0.89716 0.01587 0.0
C417 C 0.97623 0.93859 0.92646 0.0
C418 C 0.95063 0.85685 0.01351 0.0
C419 C 0.98995 0.82373 0.10718 0.0
N420 N 0.96786 0.9135 0.96316 0.0
N421 N 0.99579 0.85104 0.08613 0.0
H422 H 0.71909 0.9852 0.98334 0.0
H423 H 0.55064 0.97788 0.98781 0.0
H424 H 0.67589 0.9267 0.16396 0.0
H425 H 0.60077 0.04644 0.87906 0.0
H426 H 0.59438 0.95504 0.04487 0.0
H427 H 0.67387 0.00213 0.92525 0.0
C428 C 0.69991 0.97544 0.00885 0.0
C429 C 0.70105 0.95442 0.07758 0.0
C430 C 0.59556 0.9752 0.0091 0.0
C431 C 0.64901 0.97481 0.01588 0.0
C432 C 0.5707 0.98813 0.97665 0.0
C433 C 0.57201 0.01376 0.92731 0.0
C434 C 0.62171 0.98804 0.9907 0.0
C435 C 0.59847 0.02677 0.91712 0.0
C436 C 0.67407 0.98543 0.97716 0.0
C437 C 0.67564 0.94292 0.11054 0.0
N438 N 0.62215 0.0136 0.94723 0.0
N439 N 0.65044 0.95349 0.08003 0.0
H440 H 0.59269 0.6747 0.08013 0.0
H441 H 0.45254 0.5945 0.91849 0.0
H442 H 0.51038 0.71322 0.07121 0.0
H443 H 0.53239 0.55191 0.95774 0.0
H444 H 0.47279 0.6372 0.98476 0.0
H445 H 0.57125 0.62892 0.03785 0.0
C446 C 0.57014 0.67337 0.06803 0.0
C447 C 0.55307 0.69731 0.07829 0.0
C448 C 0.48581 0.61838 0.98076 0.0
C449 C 0.52843 0.64572 0.03182 0.0
C450 C 0.47413 0.59375 0.94385 0.0
C451 C 0.491 0.56957 0.93102 0.0
C452 C 0.51452 0.61885 0.00553 0.0
C453 C 0.51883 0.57015 0.96504 0.0
C454 C 0.55787 0.6474 0.04494 0.0
C455 C 0.524 0.69498 0.06282 0.0
N456 N 0.52991 0.59456 0.99941 0.0
N457 N 0.51254 0.66961 0.0403 0.0
H458 H 0.82654 0.59338 0.05154 0.0
H459 H 0.93696 0.46528 0.01724 0.0
H460 H 0.80943 0.50748 0.13231 0.0
H461 H 0.95261 0.54761 0.89737 0.0
H462 H 0.89392 0.48373 0.08788 0.0
H463 H 0.87544 0.57958 0.01241 0.0
C464 C 0.83317 0.57158 0.05962 0.0
C465 C 0.8143 0.55132 0.09371 0.0
C466 C 0.90702 0.49792 0.04734 0.0
C467 C 0.86968 0.53556 0.05282 0.0
C468 C 0.93182 0.48745 0.00789 0.0
C469 C 0.94822 0.50472 0.94966 0.0
C470 C 0.89845 0.5258 0.02804 0.0
C471 C 0.94056 0.5334 0.94098 0.0
C472 C 0.86097 0.56375 0.03862 0.0
C473 C 0.82358 0.52345 0.1052 0.0
N474 N 0.91589 0.54291 0.97799 0.0
N475 N 0.85062 0.51637 0.08498 0.0
H476 H 0.08444 0.20819 0.06508 0.0
H477 H 0.96481 0.09367 0.93109 0.0
H478 H 0.00066 0.20752 0.17965 0.0
H479 H 0.04859 0.08978 0.81497 0.0
H480 H 0.97857 0.13492 0.02315 0.0
H481 H 0.07245 0.16614 0.96981 0.0
C482 C 0.06325 0.19963 0.06792 0.0
C483 C 0.04324 0.21185 0.12822 0.0
C484 C 0.99413 0.12515 0.97803 0.0
C485 C 0.02958 0.16297 0.02249 0.0
C486 C 0.98629 0.10138 0.92547 0.0
C487 C 0.00551 0.08801 0.86486 0.0
C488 C 0.02148 0.1364 0.96986 0.0
C489 C 0.0331 0.09912 0.86126 0.0
C490 C 0.05652 0.17538 0.01471 0.0
C491 C 0.01642 0.19927 0.13213 0.0
N492 N 0.04016 0.12276 0.91223 0.0
N493 N 0.01046 0.17563 0.08061 0.0
H494 H 0.28168 0.01682 0.07114 0.0
H495 H 0.4436 0.04882 0.93202 0.0
H496 H 0.32455 0.09193 0.16505 0.0
H497 H 0.39106 0.98559 0.8001 0.0
H498 H 0.40165 0.06544 0.01992 0.0
H499 H 0.3221 0.0058 0.9703 0.0
C500 C 0.2992 0.03148 0.06833 0.0
C501 C 0.29939 0.05557 0.12575 0.0
C502 C 0.39944 0.048 0.97118 0.0
C503 C 0.34688 0.04238 0.01335 0.0
C504 C 0.42346 0.0385 0.92095 0.0
C505 C 0.42134 0.01544 0.85863 0.0
C506 C 0.37306 0.03441 0.95907 0.0
C507 C 0.39433 0.00309 0.84784 0.0
C508 C 0.32262 0.02498 0.01183 0.0
C509 C 0.32342 0.07321 0.12147 0.0
N510 N 0.37167 0.01255 0.89723 0.0
N511 N 0.34622 0.06616 0.06758 0.0
H512 H 0.50536 0.30497 0.18919 0.0
H513 H 0.45733 0.4155 0.79278 0.0
H514 H 0.42174 0.30109 0.07186 0.0
H515 H 0.52402 0.43051 0.99248 0.0
H516 H 0.44423 0.37228 0.88033 0.0
H517 H 0.51431 0.34829 0.09998 0.0
C518 C 0.4892 0.31283 0.14206 0.0
C519 C 0.46295 0.29915 0.1369 0.0
C520 C 0.46134 0.3854 0.90595 0.0
C521 C 0.47279 0.34932 0.03452 0.0
C522 C 0.46857 0.41028 0.85669 0.0
C523 C 0.49158 0.42696 0.88609 0.0
C524 C 0.4775 0.37694 0.98429 0.0
C525 C 0.50602 0.4185 0.96759 0.0
C526 C 0.4941 0.33783 0.09209 0.0
C527 C 0.44244 0.31068 0.07634 0.0
N528 N 0.49894 0.39418 0.01294 0.0
N529 N 0.44775 0.33505 0.02743 0.0
H530 H 0.22451 0.50432 0.09772 0.0
H531 H 0.076 0.45865 0.86243 0.0
H532 H 0.19092 0.42006 0.11702 0.0
H533 H 0.11101 0.54288 0.85162 0.0
H534 H 0.11813 0.44313 0.9507 0.0
H535 H 0.1843 0.51774 0.99773 0.0
C536 C 0.20918 0.4884 0.07787 0.0
C537 C 0.21141 0.46087 0.11359 0.0
C538 C 0.1165 0.46502 0.92889 0.0
C539 C 0.16449 0.47621 0.00237 0.0
C540 C 0.09233 0.47392 0.87891 0.0
C541 C 0.08976 0.50214 0.84877 0.0
C542 C 0.13829 0.48446 0.94923 0.0
C543 C 0.11189 0.52085 0.87218 0.0
C544 C 0.18591 0.49611 0.02217 0.0
C545 C 0.19021 0.44134 0.08912 0.0
N546 N 0.13499 0.51172 0.92048 0.0
N547 N 0.16763 0.44936 0.03571 0.0
H548 H 0.92211 0.82223 0.23288 0.0
H549 H 0.02793 0.89153 0.60866 0.0
H550 H 0.99582 0.78081 0.34432 0.0
H551 H 0.96056 0.93999 0.4819 0.0
H552 H 0.01297 0.85025 0.52215 0.0
H553 H 0.93193 0.8636 0.3327 0.0
C554 C 0.93995 0.82154 0.28052 0.0
C555 C 0.958 0.79776 0.28073 0.0
C556 C 0.00131 0.86977 0.51269 0.0
C557 C 0.96971 0.8455 0.39493 0.0
C558 C 0.00989 0.89375 0.56241 0.0
C559 C 0.99577 0.91996 0.55302 0.0
C560 C 0.97815 0.87123 0.45157 0.0
C561 C 0.9723 0.92056 0.49189 0.0
C562 C 0.9457 0.84533 0.33679 0.0
C563 C 0.981 0.79827 0.34292 0.0
N564 N 0.96432 0.89665 0.44338 0.0
N565 N 0.98624 0.82169 0.39667 0.0
H566 H 0.70335 0.00649 0.20589 0.0
H567 H 0.5922 0.95921 0.60509 0.0
H568 H 0.71217 0.92877 0.3592 0.0
H569 H 0.5885 0.03817 0.45517 0.0
H570 H 0.63455 0.94607 0.51369 0.0
H571 H 0.66074 0.01769 0.2963 0.0
C572 C 0.69669 0.99219 0.26073 0.0
C573 C 0.71171 0.96701 0.27656 0.0
C574 C 0.62424 0.96612 0.50001 0.0
C575 C 0.66219 0.9792 0.37971 0.0
C576 C 0.59982 0.97346 0.55147 0.0
C577 C 0.58653 -0.00023 0.53742 0.0
C578 C 0.63541 0.98516 0.43359 0.0
C579 C 0.59792 0.01766 0.46844 0.0
C580 C 0.67213 -0.00165 0.31173 0.0
C581 C 0.70157 0.9487 0.34639 0.0
N582 N 0.62147 0.01009 0.41969 0.0
N583 N 0.6775 0.95507 0.39514 0.0
H584 H 0.51588 0.72599 0.31753 0.0
H585 H 0.54975 0.56671 0.48581 0.0
H586 H 0.59487 0.68554 0.25304 0.0
H587 H 0.48379 0.61952 0.59992 0.0
H588 H 0.56677 0.60809 0.39555 0.0
H589 H 0.50366 0.68582 0.41842 0.0
C590 C 0.53097 0.70898 0.3267 0.0
C591 C 0.55662 0.70938 0.278 0.0
C592 C 0.54865 0.61047 0.44096 0.0
C593 C 0.54235 0.66236 0.39066 0.0
C594 C 0.53896 0.58682 0.49263 0.0
C595 C 0.51499 0.5892 0.55028 0.0
C596 C 0.53428 0.63667 0.44698 0.0
C597 C 0.502 0.61609 0.55568 0.0
C598 C 0.5239 0.68577 0.38332 0.0
C599 C 0.57494 0.68609 0.28983 0.0
N600 N 0.51161 0.63837 0.50489 0.0
N601 N 0.56743 0.66349 0.344 0.0
H602 H 0.82339 0.58987 0.26419 0.0
H603 H 0.89507 0.46807 0.57506 0.0
H604 H 0.78295 0.51125 0.33362 0.0
H605 H 0.93574 0.54854 0.52822 0.0
H606 H 0.85418 0.48443 0.48798 0.0
H607 H 0.86385 0.5767 0.36358 0.0
C608 C 0.82274 0.57016 0.30276 0.0
C609 C 0.79954 0.55184 0.29192 0.0
C610 C 0.87191 0.49866 0.49662 0.0
C611 C 0.84617 0.53616 0.40414 0.0
C612 C 0.89555 0.4893 0.54659 0.0
C613 C 0.91924 0.5069 0.56008 0.0
C614 C 0.87146 0.52601 0.45865 0.0
C615 C 0.91816 0.53411 0.51997 0.0
C616 C 0.84595 0.56252 0.3587 0.0
C617 C 0.80001 0.52629 0.34171 0.0
N618 N 0.89471 0.54281 0.47123 0.0
N619 N 0.82297 0.51915 0.39483 0.0
loop_
_geom_bond_atom_site_label_1
_geom_bond_atom_site_label_2
_geom_bond_distance
_geom_bond_site_symmetry_2
_ccdc_geom_bond_type
C0 N1 1.317 . S
C0 N2 1.348 . S
C0 C3 1.485 . S
N1 C0 1.317 . S
N1 N5 1.370 . S
N2 C0 1.348 . S
N2 C4 1.346 . S
C3 C0 1.485 . S
C3 H7 0.960 . S
C3 H8 0.961 . S
C3 H9 0.960 . S
C4 N2 1.346 . S
C4 N5 1.307 . S
C4 C6 1.486 1_554 S
N5 N1 1.370 . S
N5 C4 1.307 . S
C6 C4 1.486 1_556 S
C6 H10 0.960 . S
C6 H11 0.960 . S
C6 H12 0.959 . S
H7 C3 0.960 . S
H8 C3 0.961 . S
H9 C3 0.960 . S
H10 C6 0.960 . S
H11 C6 0.960 . S
H12 C6 0.959 . S
C13 N14 1.317 . S
C13 N15 1.348 . S
C13 C16 1.485 . S
N14 C13 1.317 . S
N14 N18 1.370 . S
N15 C13 1.348 . S
N15 C17 1.346 . S
C16 C13 1.485 . S
C16 H20 0.960 . S
C16 H21 0.961 . S
C16 H22 0.960 . S
C17 N15 1.346 . S
C17 N18 1.307 . S
C17 C19 1.486 1_554 S
N18 N14 1.370 . S
N18 C17 1.307 . S
C19 C17 1.486 1_556 S
C19 H23 0.960 . S
C19 H24 0.960 . S
C19 H25 0.959 . S
H20 C16 0.960 . S
H21 C16 0.961 . S
H22 C16 0.960 . S
H23 C19 0.960 . S
H24 C19 0.960 . S
H25 C19 0.959 . S
C26 N27 1.317 . S
C26 N28 1.348 . S
C26 C29 1.485 . S
N27 C26 1.317 . S
N27 N31 1.370 . S
N28 C26 1.348 . S
N28 C30 1.346 . S
C29 C26 1.485 . S
C29 H33 0.960 . S
C29 H34 0.961 . S
C29 H35 0.960 . S
C30 N28 1.346 . S
C30 N31 1.307 . S
C30 C32 1.486 1_554 S
N31 N27 1.370 . S
N31 C30 1.307 . S
C32 C30 1.486 1_556 S
C32 H36 0.960 . S
C32 H37 0.960 . S
C32 H38 0.959 . S
H33 C29 0.960 . S
H34 C29 0.961 . S
H35 C29 0.960 . S
H36 C32 0.960 . S
H37 C32 0.960 . S
H38 C32 0.959 . S
C39 N40 1.317 . S
C39 N41 1.348 . S
C39 C42 1.485 . S
N40 C39 1.317 . S
N40 N44 1.370 . S
N41 C39 1.348 . S
N41 C43 1.346 . S
C42 C39 1.485 . S
C42 H46 0.960 . S
C42 H47 0.961 . S
C42 H48 0.960 . S
C43 N41 1.346 . S
C43 N44 1.307 . S
C43 C45 1.486 1_554 S
N44 N40 1.370 . S
N44 C43 1.307 . S
C45 C43 1.486 1_556 S
C45 H49 0.960 . S
C45 H50 0.960 . S
C45 H51 0.959 . S
H46 C42 0.960 . S
H47 C42 0.961 . S
H48 C42 0.960 . S
H49 C45 0.960 . S
H50 C45 0.960 . S
H51 C45 0.959 . S
C52 N53 1.317 . S
C52 N54 1.348 . S
C52 C55 1.485 . S
N53 C52 1.317 . S
N53 N57 1.370 . S
N54 C52 1.348 . S
N54 C56 1.346 . S
C55 C52 1.485 . S
C55 H59 0.960 . S
C55 H60 0.961 . S
C55 H61 0.960 . S
C56 N54 1.346 . S
C56 N57 1.307 . S
C56 C58 1.486 . S
N57 N53 1.370 . S
N57 C56 1.307 . S
C58 C56 1.486 . S
C58 H62 0.960 . S
C58 H63 0.960 . S
C58 H64 0.959 . S
H59 C55 0.960 . S
H60 C55 0.961 . S
H61 C55 0.960 . S
H62 C58 0.960 . S
H63 C58 0.960 . S
H64 C58 0.959 . S
C65 N66 1.317 . S
C65 N67 1.348 . S
C65 C68 1.485 . S
N66 C65 1.317 . S
N66 N70 1.370 . S
N67 C65 1.348 . S
N67 C69 1.346 . S
C68 C65 1.485 . S
C68 H72 0.960 . S
C68 H73 0.961 . S
C68 H74 0.960 . S
C69 N67 1.346 . S
C69 N70 1.307 . S
C69 C71 1.486 . S
N70 N66 1.370 . S
N70 C69 1.307 . S
C71 C69 1.486 . S
C71 H75 0.960 . S
C71 H76 0.960 . S
C71 H77 0.959 . S
H72 C68 0.960 . S
H73 C68 0.961 . S
H74 C68 0.960 . S
H75 C71 0.960 . S
H76 C71 0.960 . S
H77 C71 0.959 . S
C78 N79 1.317 . S
C78 N80 1.348 . S
C78 C81 1.485 . S
N79 C78 1.317 . S
N79 N83 1.370 . S
N80 C78 1.348 . S
N80 C82 1.346 . S
C81 C78 1.485 . S
C81 H85 0.960 . S
C81 H86 0.961 . S
C81 H87 0.960 . S
C82 N80 1.346 . S
C82 N83 1.307 . S
C82 C84 1.486 . S
N83 N79 1.370 . S
N83 C82 1.307 . S
C84 C82 1.486 . S
C84 H88 0.960 . S
C84 H89 0.960 . S
C84 H90 0.959 . S
H85 C81 0.960 . S
H86 C81 0.961 . S
H87 C81 0.960 . S
H88 C84 0.960 . S
H89 C84 0.960 . S
H90 C84 0.959 . S
C91 N92 1.317 . S
C91 N93 1.348 . S
C91 C94 1.485 . S
N92 C91 1.317 . S
N92 N96 1.370 . S
N93 C91 1.348 . S
N93 C95 1.346 . S
C94 C91 1.485 . S
C94 H98 0.960 . S
C94 H99 0.961 . S
C94 H100 0.960 . S
C95 N93 1.346 . S
C95 N96 1.307 . S
C95 C97 1.486 . S
N96 N92 1.370 . S
N96 C95 1.307 . S
C97 C95 1.486 . S
C97 H101 0.960 . S
C97 H102 0.960 . S
C97 H103 0.959 . S
H98 C94 0.960 . S
H99 C94 0.961 . S
H100 C94 0.960 . S
H101 C97 0.960 . S
H102 C97 0.960 . S
H103 C97 0.959 . S
O104 Mn105 2.163 . S
O104 C118 1.244 . S
Mn105 O104 2.163 . S
Mn105 O108 2.160 1_445 S
Mn105 O109 2.221 1_545 S
Mn105 O111 2.163 1_545 S
Mn105 O113 2.160 . S
Mn105 O123 2.221 1_455 S
O106 Mn107 2.087 . S
O106 C118 1.256 1_655 S
Mn107 O106 2.087 . S
Mn107 O114 2.089 . S
Mn107 O123 2.290 . S
Mn107 O124 2.251 . S
O108 Mn105 2.160 1_665 S
O108 C119 1.239 . S
O109 Mn105 2.221 1_565 S
O109 Mn110 2.290 . S
O109 C120 1.279 . S
Mn110 O109 2.290 . S
Mn110 O112 2.089 . S
Mn110 O115 2.251 . S
Mn110 O116 2.087 . S
O111 Mn105 2.163 1_565 S
O111 C121 1.244 . S
O112 Mn110 2.089 . S
O112 C119 1.256 1_455 S
O113 Mn105 2.160 . S
O113 C122 1.233 1_455 S
O114 Mn107 2.089 . S
O114 C122 1.267 . S
O115 Mn110 2.251 . S
O115 C120 1.261 . S
O116 Mn110 2.087 . S
O116 C121 1.256 . S
C117 O123 1.278 . S
C117 O124 1.241 . S
C118 O104 1.244 . S
C118 O106 1.256 1_455 S
C119 O108 1.239 . S
C119 O112 1.256 1_655 S
C120 O109 1.279 . S
C120 O115 1.261 . S
C121 O111 1.244 . S
C121 O116 1.256 . S
C122 O113 1.233 1_655 S
C122 O114 1.267 . S
O123 Mn105 2.221 1_655 S
O123 Mn107 2.290 . S
O123 C117 1.278 . S
O124 Mn107 2.251 . S
O124 C117 1.241 . S
O125 Mn126 2.163 . S
O125 C139 1.244 . S
Mn126 O125 2.163 . S
Mn126 O129 2.160 . S
Mn126 O130 2.221 1_545 S
Mn126 O132 2.163 . S
Mn126 O134 2.160 1_545 S
Mn126 O144 2.221 . S
O127 Mn128 2.087 . S
O127 C139 1.256 . S
Mn128 O127 2.087 . S
Mn128 O135 2.089 . S
Mn128 O144 2.290 . S
Mn128 O145 2.251 . S
O129 Mn126 2.160 . S
O129 C140 1.239 1_545 S
O130 Mn126 2.221 1_565 S
O130 Mn131 2.290 . S
O130 C141 1.278 . S
Mn131 O130 2.290 . S
Mn131 O133 2.089 . S
Mn131 O136 2.251 . S
Mn131 O137 2.087 . S
O132 Mn126 2.163 . S
O132 C142 1.244 . S
O133 Mn131 2.089 . S
O133 C140 1.256 . S
O134 Mn126 2.160 1_565 S
O134 C143 1.239 . S
O135 Mn128 2.089 . S
O135 C143 1.256 1_545 S
O136 Mn131 2.251 . S
O136 C141 1.241 . S
O137 Mn131 2.087 . S
O137 C142 1.256 1_565 S
C138 O144 1.278 . S
C138 O145 1.241 . S
C139 O125 1.244 . S
C139 O127 1.256 . S
C140 O129 1.239 1_565 S
C140 O133 1.256 . S
C141 O130 1.278 . S
C141 O136 1.241 . S
C142 O132 1.244 . S
C142 O137 1.256 1_545 S
C143 O134 1.239 . S
C143 O135 1.256 1_565 S
O144 Mn126 2.221 . S
O144 Mn128 2.290 . S
O144 C138 1.278 . S
O145 Mn128 2.251 . S
O145 C138 1.241 . S
O146 Mn147 2.163 . S
O146 C160 1.244 . S
Mn147 O146 2.163 . S
Mn147 O150 2.160 . S
Mn147 O151 2.221 . S
Mn147 O153 2.163 . S
Mn147 O155 2.160 . S
Mn147 O165 2.221 . S
O148 Mn149 2.087 . S
O148 C160 1.256 . S
Mn149 O148 2.087 . S
Mn149 O156 2.089 . S
Mn149 O165 2.290 . S
Mn149 O166 2.251 . S
O150 Mn147 2.160 . S
O150 C161 1.239 . S
O151 Mn147 2.221 . S
O151 Mn152 2.290 . S
O151 C162 1.278 . S
Mn152 O151 2.290 . S
Mn152 O154 2.089 . S
Mn152 O157 2.251 . S
Mn152 O158 2.087 . S
O153 Mn147 2.163 . S
O153 C163 1.244 . S
O154 Mn152 2.089 . S
O154 C161 1.256 . S
O155 Mn147 2.160 . S
O155 C164 1.239 . S
O156 Mn149 2.089 . S
O156 C164 1.256 . S
O157 Mn152 2.251 . S
O157 C162 1.241 . S
O158 Mn152 2.087 . S
O158 C163 1.256 . S
C159 O165 1.278 . S
C159 O166 1.241 . S
C160 O146 1.244 . S
C160 O148 1.256 . S
C161 O150 1.239 . S
C161 O154 1.256 . S
C162 O151 1.278 . S
C162 O157 1.241 . S
C163 O153 1.244 . S
C163 O158 1.256 . S
C164 O155 1.239 . S
C164 O156 1.256 . S
O165 Mn147 2.221 . S
O165 Mn149 2.290 . S
O165 C159 1.278 . S
O166 Mn149 2.251 . S
O166 C159 1.241 . S
O167 Mn168 2.163 . S
O167 C181 1.244 . S
Mn168 O167 2.163 . S
Mn168 O171 2.160 1_455 S
Mn168 O172 2.221 1_455 S
Mn168 O174 2.163 1_455 S
Mn168 O176 2.160 . S
Mn168 O186 2.221 . S
O169 Mn170 2.087 . S
O169 C181 1.256 . S
Mn170 O169 2.087 . S
Mn170 O177 2.089 . S
Mn170 O186 2.290 . S
Mn170 O187 2.251 . S
O171 Mn168 2.160 1_655 S
O171 C182 1.239 . S
O172 Mn168 2.221 1_655 S
O172 Mn173 2.290 . S
O172 C183 1.278 . S
Mn173 O172 2.290 . S
Mn173 O175 2.089 . S
Mn173 O178 2.251 . S
Mn173 O179 2.087 . S
O174 Mn168 2.163 1_655 S
O174 C184 1.244 . S
O175 Mn173 2.089 . S
O175 C182 1.256 . S
O176 Mn168 2.160 . S
O176 C185 1.239 . S
O177 Mn170 2.089 . S
O177 C185 1.256 . S
O178 Mn173 2.251 . S
O178 C183 1.241 . S
O179 Mn173 2.087 . S
O179 C184 1.256 . S
C180 O186 1.278 . S
C180 O187 1.241 . S
C181 O167 1.244 . S
C181 O169 1.256 . S
C182 O171 1.239 . S
C182 O175 1.256 . S
C183 O172 1.278 . S
C183 O178 1.241 . S
C184 O174 1.244 . S
C184 O179 1.256 . S
C185 O176 1.239 . S
C185 O177 1.256 . S
O186 Mn168 2.221 . S
O186 Mn170 2.290 . S
O186 C180 1.278 . S
O187 Mn170 2.251 . S
O187 C180 1.241 . S
H188 C194 0.930 . S
H189 C198 0.930 . S
H190 C203 0.929 . S
H191 C201 0.929 . S
H192 C196 0.929 1_565 S
H193 C202 0.929 . S
C194 H188 0.930 . S
C194 C195 1.367 . S
C194 C202 1.378 . S
C195 C194 1.367 . S
C195 C203 1.433 . S
C196 H192 0.929 1_545 S
C196 C198 1.378 1_545 S
C196 C200 1.350 . S
C197 C200 1.463 . S
C197 C202 1.350 . S
C197 N205 1.427 . S
C198 H189 0.930 . S
C198 C196 1.378 1_565 S
C198 C199 1.367 1_565 S
C199 C198 1.367 1_545 S
C199 C201 1.433 . S
C200 C196 1.350 . S
C200 C197 1.463 . S
C200 N204 1.427 . S
C201 H191 0.929 . S
C201 C199 1.433 . S
C201 N204 1.384 . S
C202 H193 0.929 . S
C202 C194 1.378 . S
C202 C197 1.350 . S
C203 H190 0.929 . S
C203 C195 1.433 . S
C203 N205 1.384 . S
N204 C200 1.427 . S
N204 C201 1.384 . S
N205 C197 1.427 . S
N205 C203 1.384 . S
H206 C212 0.930 . S
H207 C216 0.930 . S
H208 C221 0.929 . S
H209 C219 0.929 . S
H210 C214 0.929 . S
H211 C220 0.929 . S
C212 H206 0.930 . S
C212 C213 1.367 . S
C212 C220 1.378 . S
C213 C212 1.367 . S
C213 C221 1.433 . S
C214 H210 0.929 . S
C214 C216 1.378 . S
C214 C218 1.350 . S
C215 C218 1.463 . S
C215 C220 1.350 . S
C215 N223 1.427 . S
C216 H207 0.930 . S
C216 C214 1.378 . S
C216 C217 1.367 . S
C217 C216 1.367 . S
C217 C219 1.433 . S
C218 C214 1.350 . S
C218 C215 1.463 . S
C218 N222 1.427 . S
C219 H209 0.929 . S
C219 C217 1.433 . S
C219 N222 1.384 . S
C220 H211 0.929 . S
C220 C212 1.378 . S
C220 C215 1.350 . S
C221 H208 0.929 . S
C221 C213 1.433 . S
C221 N223 1.384 . S
N222 C218 1.427 . S
N222 C219 1.384 . S
N223 C215 1.427 . S
N223 C221 1.384 . S
H224 C230 0.930 . S
H225 C234 0.930 . S
H226 C239 0.929 . S
H227 C237 0.929 . S
H228 C232 0.929 . S
H229 C238 0.929 . S
C230 H224 0.930 . S
C230 C231 1.367 . S
C230 C238 1.378 . S
C231 C230 1.367 . S
C231 C239 1.433 . S
C232 H228 0.929 . S
C232 C234 1.378 . S
C232 C236 1.350 . S
C233 C236 1.463 . S
C233 C238 1.350 . S
C233 N241 1.427 . S
C234 H225 0.930 . S
C234 C232 1.378 . S
C234 C235 1.367 . S
C235 C234 1.367 . S
C235 C237 1.433 . S
C236 C232 1.350 . S
C236 C233 1.463 . S
C236 N240 1.427 . S
C237 H227 0.929 . S
C237 C235 1.433 . S
C237 N240 1.384 . S
C238 H229 0.929 . S
C238 C230 1.378 . S
C238 C233 1.350 . S
C239 H226 0.929 . S
C239 C231 1.433 . S
C239 N241 1.384 . S
N240 C236 1.427 . S
N240 C237 1.384 . S
N241 C233 1.427 . S
N241 C239 1.384 . S
H242 C248 0.957 . S
H243 C252 0.930 . S
H244 C257 0.929 . S
H245 C255 0.929 . S
H246 C250 0.929 . S
H247 C256 0.929 1_655 S
C248 H242 0.957 . S
C248 C249 1.367 . S
C248 C256 1.378 . S
C249 C248 1.367 . S
C249 C257 1.433 . S
C250 H246 0.929 . S
C250 C252 1.378 . S
C250 C254 1.350 . S
C251 C254 1.463 . S
C251 C256 1.350 . S
C251 N259 1.427 . S
C252 H243 0.930 . S
C252 C250 1.378 . S
C252 C253 1.367 . S
C253 C252 1.367 . S
C253 C255 1.433 1_455 S
C254 C250 1.350 . S
C254 C251 1.463 . S
C254 N258 1.426 . S
C255 H245 0.929 . S
C255 C253 1.433 1_655 S
C255 N258 1.384 1_655 S
C256 H247 0.929 1_455 S
C256 C248 1.378 . S
C256 C251 1.350 . S
C257 H244 0.929 . S
C257 C249 1.433 . S
C257 N259 1.384 . S
N258 C254 1.426 . S
N258 C255 1.384 1_455 S
N259 C251 1.427 . S
N259 C257 1.384 . S
H260 C266 0.930 . S
H261 C270 0.930 . S
H262 C275 0.929 1_545 S
H263 C273 0.929 . S
H264 C268 0.929 . S
H265 C274 0.929 . S
C266 H260 0.930 . S
C266 C267 1.367 1_556 S
C266 C274 1.378 . S
C267 C266 1.367 1_554 S
C267 C275 1.433 . S
C268 H264 0.929 . S
C268 C270 1.378 . S
C268 C272 1.350 1_545 S
C269 C272 1.463 . S
C269 C274 1.350 . S
C269 N277 1.449 1_556 S
C270 H261 0.930 . S
C270 C268 1.378 . S
C270 C271 1.367 1_545 S
C271 C270 1.367 1_565 S
C271 C273 1.433 . S
C272 C268 1.350 1_565 S
C272 C269 1.463 . S
C272 N276 1.427 . S
C273 H263 0.929 . S
C273 C271 1.433 . S
C273 N276 1.384 . S
C274 H265 0.929 . S
C274 C266 1.378 . S
C274 C269 1.350 . S
C275 H262 0.929 1_565 S
C275 C267 1.433 . S
C275 N277 1.390 . S
N276 C272 1.427 . S
N276 C273 1.384 . S
N277 C269 1.449 1_554 S
N277 C275 1.390 . S
H278 C284 0.930 1_554 S
H279 C288 0.930 . S
H280 C293 0.929 . S
H281 C291 0.929 . S
H282 C286 0.929 . S
H283 C292 0.929 . S
C284 H278 0.930 1_556 S
C284 C285 1.367 1_556 S
C284 C292 1.378 . S
C285 C284 1.367 1_554 S
C285 C293 1.433 . S
C286 H282 0.929 . S
C286 C288 1.378 . S
C286 C290 1.350 . S
C287 C290 1.463 . S
C287 C292 1.350 . S
C287 N295 1.427 . S
C288 H279 0.930 . S
C288 C286 1.378 . S
C288 C289 1.367 . S
C289 C288 1.367 . S
C289 C291 1.433 . S
C290 C286 1.350 . S
C290 C287 1.463 . S
C290 N294 1.427 . S
C291 H281 0.929 . S
C291 C289 1.433 . S
C291 N294 1.384 . S
C292 H283 0.929 . S
C292 C284 1.378 . S
C292 C287 1.350 . S
C293 H280 0.929 . S
C293 C285 1.433 . S
C293 N295 1.384 1_554 S
N294 C290 1.427 . S
N294 C291 1.384 . S
N295 C287 1.427 . S
N295 C293 1.384 1_556 S
H296 C302 0.930 . S
H297 C306 0.930 . S
H298 C311 0.929 . S
H299 C309 0.929 . S
H300 C304 0.929 . S
H301 C310 0.929 . S
C302 H296 0.930 . S
C302 C303 1.367 1_556 S
C302 C310 1.378 . S
C303 C302 1.367 1_554 S
C303 C311 1.433 . S
C304 H300 0.929 . S
C304 C306 1.378 . S
C304 C308 1.350 . S
C305 C308 1.463 . S
C305 C310 1.350 . S
C305 N313 1.427 . S
C306 H297 0.930 . S
C306 C304 1.378 . S
C306 C307 1.367 . S
C307 C306 1.367 . S
C307 C309 1.433 . S
C308 C304 1.350 . S
C308 C305 1.463 . S
C308 N312 1.427 . S
C309 H299 0.929 . S
C309 C307 1.433 . S
C309 N312 1.384 . S
C310 H301 0.929 . S
C310 C302 1.378 . S
C310 C305 1.350 . S
C311 H298 0.929 . S
C311 C303 1.433 . S
C311 N313 1.384 1_554 S
N312 C308 1.427 . S
N312 C309 1.384 . S
N313 C305 1.427 . S
N313 C311 1.384 1_556 S
H314 C320 0.930 . S
H315 C324 0.930 . S
H316 C329 0.915 1_455 S
H317 C327 0.929 . S
H318 C322 0.929 . S
H319 C328 0.929 . S
C320 H314 0.930 . S
C320 C321 1.367 1_556 S
C320 C328 1.378 . S
C321 C320 1.367 1_554 S
C321 C329 1.451 . S
C322 H318 0.929 . S
C322 C324 1.378 . S
C322 C326 1.350 1_455 S
C323 C326 1.463 . S
C323 C328 1.350 . S
C323 N331 1.428 1_655 S
C324 H315 0.930 . S
C324 C322 1.378 . S
C324 C325 1.367 1_455 S
C325 C324 1.367 1_655 S
C325 C327 1.433 . S
C326 C322 1.350 1_655 S
C326 C323 1.463 . S
C326 N330 1.427 . S
C327 H317 0.929 . S
C327 C325 1.433 . S
C327 N330 1.384 . S
C328 H319 0.929 . S
C328 C320 1.378 . S
C328 C323 1.350 . S
C329 H316 0.915 1_655 S
C329 C321 1.451 . S
C329 N331 1.380 1_654 S
N330 C326 1.427 . S
N330 C327 1.384 . S
N331 C323 1.428 1_455 S
N331 C329 1.380 1_456 S
H332 C338 0.930 . S
H333 C342 0.930 . S
H334 C347 0.929 . S
H335 C345 0.947 . S
H336 C340 0.929 . S
H337 C346 0.929 . S
C338 H332 0.930 . S
C338 C339 1.367 . S
C338 C346 1.378 . S
C339 C338 1.367 . S
C339 C347 1.433 . S
C340 H336 0.929 . S
C340 C342 1.378 . S
C340 C344 1.350 . S
C341 C344 1.463 . S
C341 C346 1.350 . S
C341 N349 1.427 . S
C342 H333 0.930 . S
C342 C340 1.378 . S
C342 C343 1.367 . S
C343 C342 1.367 . S
C343 C345 1.428 1_455 S
C344 C340 1.350 . S
C344 C341 1.463 . S
C344 N348 1.427 . S
C345 H335 0.947 . S
C345 C343 1.428 1_655 S
C345 N348 1.372 1_655 S
C346 H337 0.929 . S
C346 C338 1.378 . S
C346 C341 1.350 . S
C347 H334 0.929 . S
C347 C339 1.433 . S
C347 N349 1.384 . S
N348 C344 1.427 . S
N348 C345 1.372 1_455 S
N349 C341 1.427 . S
N349 C347 1.384 . S
H350 C356 0.930 . S
H351 C360 0.930 . S
H352 C365 0.929 . S
H353 C363 0.929 . S
H354 C358 0.929 . S
H355 C364 0.929 . S
C356 H350 0.930 . S
C356 C357 1.367 . S
C356 C364 1.378 . S
C357 C356 1.367 . S
C357 C365 1.433 . S
C358 H354 0.929 . S
C358 C360 1.378 . S
C358 C362 1.350 1_565 S
C359 C362 1.463 . S
C359 C364 1.350 . S
C359 N367 1.427 . S
C360 H351 0.930 . S
C360 C358 1.378 . S
C360 C361 1.367 1_565 S
C361 C360 1.367 1_545 S
C361 C363 1.433 . S
C362 C358 1.350 1_545 S
C362 C359 1.463 . S
C362 N366 1.427 . S
C363 H353 0.929 . S
C363 C361 1.433 . S
C363 N366 1.384 . S
C364 H355 0.929 . S
C364 C356 1.378 . S
C364 C359 1.350 . S
C365 H352 0.929 . S
C365 C357 1.433 . S
C365 N367 1.384 . S
N366 C362 1.427 . S
N366 C363 1.384 . S
N367 C359 1.427 . S
N367 C365 1.384 . S
H368 C374 0.930 . S
H369 C378 0.930 . S
H370 C383 0.929 . S
H371 C381 0.929 . S
H372 C376 0.929 . S
H373 C382 0.929 . S
C374 H368 0.930 . S
C374 C375 1.367 . S
C374 C382 1.378 . S
C375 C374 1.367 . S
C375 C383 1.433 . S
C376 H372 0.929 . S
C376 C378 1.378 . S
C376 C380 1.350 . S
C377 C380 1.463 . S
C377 C382 1.350 . S
C377 N385 1.427 . S
C378 H369 0.930 . S
C378 C376 1.378 . S
C378 C379 1.367 . S
C379 C378 1.367 . S
C379 C381 1.433 . S
C380 C376 1.350 . S
C380 C377 1.463 . S
C380 N384 1.427 . S
C381 H371 0.929 . S
C381 C379 1.433 . S
C381 N384 1.384 . S
C382 H373 0.929 . S
C382 C374 1.378 . S
C382 C377 1.350 . S
C383 H370 0.929 . S
C383 C375 1.433 . S
C383 N385 1.384 . S
N384 C380 1.427 . S
N384 C381 1.384 . S
N385 C377 1.427 . S
N385 C383 1.384 . S
H386 C392 0.930 . S
H387 C396 0.930 . S
H388 C401 0.929 . S
H389 C399 0.929 . S
H390 C394 0.929 . S
H391 C400 0.929 . S
C392 H386 0.930 . S
C392 C393 1.367 . S
C392 C400 1.378 . S
C393 C392 1.367 . S
C393 C401 1.433 . S
C394 H390 0.929 . S
C394 C396 1.378 . S
C394 C398 1.350 . S
C395 C398 1.463 . S
C395 C400 1.350 . S
C395 N403 1.427 . S
C396 H387 0.930 . S
C396 C394 1.378 . S
C396 C397 1.367 . S
C397 C396 1.367 . S
C397 C399 1.433 . S
C398 C394 1.350 . S
C398 C395 1.463 . S
C398 N402 1.427 . S
C399 H389 0.929 . S
C399 C397 1.433 . S
C399 N402 1.384 . S
C400 H391 0.929 . S
C400 C392 1.378 . S
C400 C395 1.350 . S
C401 H388 0.929 . S
C401 C393 1.433 . S
C401 N403 1.384 . S
N402 C398 1.427 . S
N402 C399 1.384 . S
N403 C395 1.427 . S
N403 C401 1.384 . S
H404 C410 0.930 . S
H405 C414 0.930 . S
H406 C419 0.929 . S
H407 C417 0.929 . S
H408 C412 0.929 1_554 S
H409 C418 0.929 . S
C410 H404 0.930 . S
C410 C411 1.367 1_556 S
C410 C418 1.378 . S
C411 C410 1.367 1_554 S
C411 C419 1.433 . S
C412 H408 0.929 1_556 S
C412 C414 1.378 . S
C412 C416 1.350 1_455 S
C413 C416 1.463 . S
C413 C418 1.350 . S
C413 N421 1.427 1_556 S
C414 H405 0.930 . S
C414 C412 1.378 . S
C414 C415 1.367 . S
C415 C414 1.367 . S
C415 C417 1.433 . S
C416 C412 1.350 1_655 S
C416 C413 1.463 . S
C416 N420 1.427 . S
C417 H407 0.929 . S
C417 C415 1.433 . S
C417 N420 1.384 1_455 S
C418 H409 0.929 . S
C418 C410 1.378 . S
C418 C413 1.350 . S
C419 H406 0.929 . S
C419 C411 1.433 . S
C419 N421 1.384 . S
N420 C416 1.427 . S
N420 C417 1.384 1_655 S
N421 C413 1.427 1_554 S
N421 C419 1.384 . S
H422 C428 0.930 . S
H423 C432 0.930 . S
H424 C437 0.929 . S
H425 C435 0.929 . S
H426 C430 0.929 1_554 S
H427 C436 0.929 1_545 S
C428 H422 0.930 . S
C428 C429 1.367 1_556 S
C428 C436 1.378 . S
C429 C428 1.367 1_554 S
C429 C437 1.433 . S
C430 H426 0.929 1_556 S
C430 C432 1.378 . S
C430 C434 1.350 . S
C431 C434 1.463 . S
C431 C436 1.350 . S
C431 N439 1.427 1_556 S
C432 H423 0.930 . S
C432 C430 1.378 . S
C432 C433 1.367 1_565 S
C433 C432 1.367 1_545 S
C433 C435 1.433 . S
C434 C430 1.350 . S
C434 C431 1.463 . S
C434 N438 1.427 1_565 S
C435 H425 0.929 . S
C435 C433 1.433 . S
C435 N438 1.384 . S
C436 H427 0.929 1_565 S
C436 C428 1.378 . S
C436 C431 1.350 . S
C437 H424 0.929 . S
C437 C429 1.433 . S
C437 N439 1.384 . S
N438 C434 1.427 1_545 S
N438 C435 1.384 . S
N439 C431 1.427 1_554 S
N439 C437 1.384 . S
H440 C446 0.930 . S
H441 C450 0.930 . S
H442 C455 0.929 . S
H443 C453 0.929 . S
H444 C448 0.929 . S
H445 C454 0.929 . S
C446 H440 0.930 . S
C446 C447 1.367 . S
C446 C454 1.378 . S
C447 C446 1.367 . S
C447 C455 1.433 1_554 S
C448 H444 0.929 . S
C448 C450 1.378 . S
C448 C452 1.350 . S
C449 C452 1.463 . S
C449 C454 1.350 1_556 S
C449 N457 1.427 . S
C450 H441 0.930 . S
C450 C448 1.378 . S
C450 C451 1.367 . S
C451 C450 1.367 . S
C451 C453 1.433 . S
C452 C448 1.350 . S
C452 C449 1.463 . S
C452 N456 1.427 . S
C453 H443 0.929 . S
C453 C451 1.433 . S
C453 N456 1.384 . S
C454 H445 0.929 . S
C454 C446 1.378 . S
C454 C449 1.350 1_554 S
C455 H442 0.929 . S
C455 C447 1.433 1_556 S
C455 N457 1.384 . S
N456 C452 1.427 . S
N456 C453 1.384 . S
N457 C449 1.427 . S
N457 C455 1.384 . S
H458 C464 0.930 . S
H459 C468 0.930 . S
H460 C473 0.929 . S
H461 C471 0.929 . S
H462 C466 0.929 1_554 S
H463 C472 0.929 . S
C464 H458 0.930 . S
C464 C465 1.367 1_556 S
C464 C472 1.378 . S
C465 C464 1.367 1_554 S
C465 C473 1.433 . S
C466 H462 0.929 1_556 S
C466 C468 1.378 . S
C466 C470 1.350 . S
C467 C470 1.463 . S
C467 C472 1.350 . S
C467 N475 1.427 1_556 S
C468 H459 0.930 . S
C468 C466 1.378 . S
C468 C469 1.367 . S
C469 C468 1.367 . S
C469 C471 1.433 . S
C470 C466 1.350 . S
C470 C467 1.463 . S
C470 N474 1.427 . S
C471 H461 0.929 . S
C471 C469 1.433 . S
C471 N474 1.384 . S
C472 H463 0.929 . S
C472 C464 1.378 . S
C472 C467 1.350 . S
C473 H460 0.929 . S
C473 C465 1.433 . S
C473 N475 1.384 . S
N474 C470 1.427 . S
N474 C471 1.384 . S
N475 C467 1.427 1_554 S
N475 C473 1.384 . S
H476 C482 0.930 . S
H477 C486 0.930 1_655 S
H478 C491 0.929 . S
H479 C489 0.929 . S
H480 C484 0.927 . S
H481 C490 0.929 . S
C482 H476 0.930 . S
C482 C483 1.367 . S
C482 C490 1.378 . S
C483 C482 1.367 . S
C483 C491 1.433 . S
C484 H480 0.927 . S
C484 C486 1.378 1_554 S
C484 C488 1.350 . S
C485 C488 1.463 . S
C485 C490 1.350 . S
C485 N493 1.427 . S
C486 H477 0.930 1_455 S
C486 C484 1.378 1_556 S
C486 C487 1.367 . S
C487 C486 1.367 . S
C487 C489 1.433 . S
C488 C484 1.350 . S
C488 C485 1.463 . S
C488 N492 1.427 1_554 S
C489 H479 0.929 . S
C489 C487 1.433 . S
C489 N492 1.384 . S
C490 H481 0.929 . S
C490 C482 1.378 . S
C490 C485 1.350 . S
C491 H478 0.929 . S
C491 C483 1.433 . S
C491 N493 1.384 . S
N492 C488 1.427 1_556 S
N492 C489 1.384 . S
N493 C485 1.427 . S
N493 C491 1.384 . S
H494 C500 0.930 . S
H495 C504 0.930 . S
H496 C509 0.929 . S
H497 C507 0.929 1_565 S
H498 C502 0.929 . S
H499 C508 0.929 . S
C500 H494 0.930 . S
C500 C501 1.367 . S
C500 C508 1.378 . S
C501 C500 1.367 . S
C501 C509 1.433 . S
C502 H498 0.929 . S
C502 C504 1.378 1_554 S
C502 C506 1.350 . S
C503 C506 1.463 . S
C503 C508 1.350 . S
C503 N511 1.427 . S
C504 H495 0.930 . S
C504 C502 1.378 1_556 S
C504 C505 1.367 . S
C505 C504 1.367 . S
C505 C507 1.433 . S
C506 C502 1.350 . S
C506 C503 1.463 . S
C506 N510 1.427 1_554 S
C507 H497 0.929 1_545 S
C507 C505 1.433 . S
C507 N510 1.384 . S
C508 H499 0.929 . S
C508 C500 1.378 . S
C508 C503 1.350 . S
C509 H496 0.929 . S
C509 C501 1.433 . S
C509 N511 1.384 . S
N510 C506 1.427 1_556 S
N510 C507 1.384 . S
N511 C503 1.427 . S
N511 C509 1.384 . S
H512 C518 0.930 . S
H513 C522 0.930 . S
H514 C527 0.929 . S
H515 C525 0.929 . S
H516 C520 0.929 . S
H517 C526 0.929 . S
C518 H512 0.930 . S
C518 C519 1.367 . S
C518 C526 1.378 . S
C519 C518 1.367 . S
C519 C527 1.433 . S
C520 H516 0.929 . S
C520 C522 1.378 . S
C520 C524 1.350 1_556 S
C521 C524 1.463 . S
C521 C526 1.350 . S
C521 N529 1.427 . S
C522 H513 0.930 . S
C522 C520 1.378 . S
C522 C523 1.367 . S
C523 C522 1.367 . S
C523 C525 1.433 1_556 S
C524 C520 1.350 1_554 S
C524 C521 1.463 . S
C524 N528 1.427 . S
C525 H515 0.929 . S
C525 C523 1.433 1_554 S
C525 N528 1.384 . S
C526 H517 0.929 . S
C526 C518 1.378 . S
C526 C521 1.350 . S
C527 H514 0.929 . S
C527 C519 1.433 . S
C527 N529 1.384 . S
N528 C524 1.427 . S
N528 C525 1.384 . S
N529 C521 1.427 . S
N529 C527 1.384 . S
H530 C536 0.930 . S
H531 C540 0.930 . S
H532 C545 0.929 . S
H533 C543 0.929 . S
H534 C538 0.929 . S
H535 C544 0.929 . S
C536 H530 0.930 . S
C536 C537 1.367 . S
C536 C544 1.378 . S
C537 C536 1.367 . S
C537 C545 1.433 . S
C538 H534 0.929 . S
C538 C540 1.378 . S
C538 C542 1.350 1_556 S
C539 C542 1.463 . S
C539 C544 1.350 . S
C539 N547 1.427 . S
C540 H531 0.930 . S
C540 C538 1.378 . S
C540 C541 1.367 . S
C541 C540 1.367 . S
C541 C543 1.433 . S
C542 C538 1.350 1_554 S
C542 C539 1.463 . S
C542 N546 1.427 . S
C543 H533 0.929 . S
C543 C541 1.433 . S
C543 N546 1.384 1_556 S
C544 H535 0.929 . S
C544 C536 1.378 . S
C544 C539 1.350 . S
C545 H532 0.929 . S
C545 C537 1.433 . S
C545 N547 1.384 . S
N546 C542 1.427 . S
N546 C543 1.384 1_554 S
N547 C539 1.427 . S
N547 C545 1.384 . S
H548 C554 0.930 . S
H549 C558 0.930 . S
H550 C563 0.929 1_455 S
H551 C561 0.929 . S
H552 C556 0.929 . S
H553 C562 0.929 . S
C554 H548 0.930 . S
C554 C555 1.367 . S
C554 C562 1.378 . S
C555 C554 1.367 . S
C555 C563 1.433 . S
C556 H552 0.929 . S
C556 C558 1.378 . S
C556 C560 1.350 1_455 S
C557 C560 1.463 . S
C557 C562 1.350 . S
C557 N565 1.427 . S
C558 H549 0.930 . S
C558 C556 1.378 . S
C558 C559 1.367 1_455 S
C559 C558 1.367 1_655 S
C559 C561 1.433 . S
C560 C556 1.350 1_655 S
C560 C557 1.463 . S
C560 N564 1.427 . S
C561 H551 0.929 . S
C561 C559 1.433 . S
C561 N564 1.384 . S
C562 H553 0.929 . S
C562 C554 1.378 . S
C562 C557 1.350 . S
C563 H550 0.929 1_655 S
C563 C555 1.433 . S
C563 N565 1.384 . S
N564 C560 1.427 . S
N564 C561 1.384 . S
N565 C557 1.427 . S
N565 C563 1.384 . S
H566 C572 0.930 . S
H567 C576 0.930 . S
H568 C581 0.929 . S
H569 C579 0.929 . S
H570 C574 0.929 . S
H571 C580 0.929 . S
C572 H566 0.930 . S
C572 C573 1.367 . S
C572 C580 1.378 . S
C573 C572 1.367 . S
C573 C581 1.433 . S
C574 H570 0.929 . S
C574 C576 1.378 . S
C574 C578 1.350 . S
C575 C578 1.463 . S
C575 C580 1.350 . S
C575 N583 1.427 . S
C576 H567 0.930 . S
C576 C574 1.378 . S
C576 C577 1.367 . S
C577 C576 1.367 . S
C577 C579 1.433 . S
C578 C574 1.350 . S
C578 C575 1.463 . S
C578 N582 1.427 . S
C579 H569 0.929 . S
C579 C577 1.433 . S
C579 N582 1.384 . S
C580 H571 0.929 . S
C580 C572 1.378 . S
C580 C575 1.350 . S
C581 H568 0.929 . S
C581 C573 1.433 . S
C581 N583 1.384 . S
N582 C578 1.427 . S
N582 C579 1.384 . S
N583 C575 1.427 . S
N583 C581 1.384 . S
H584 C590 0.930 . S
H585 C594 0.930 . S
H586 C599 0.929 . S
H587 C597 0.929 . S
H588 C592 0.929 . S
H589 C598 0.929 . S
C590 H584 0.930 . S
C590 C591 1.367 . S
C590 C598 1.378 . S
C591 C590 1.367 . S
C591 C599 1.433 . S
C592 H588 0.929 . S
C592 C594 1.378 . S
C592 C596 1.350 . S
C593 C596 1.463 . S
C593 C598 1.350 . S
C593 N601 1.427 . S
C594 H585 0.930 . S
C594 C592 1.378 . S
C594 C595 1.367 . S
C595 C594 1.367 . S
C595 C597 1.433 . S
C596 C592 1.350 . S
C596 C593 1.463 . S
C596 N600 1.427 . S
C597 H587 0.929 . S
C597 C595 1.433 . S
C597 N600 1.384 . S
C598 H589 0.929 . S
C598 C590 1.378 . S
C598 C593 1.350 . S
C599 H586 0.929 . S
C599 C591 1.433 . S
C599 N601 1.384 . S
N600 C596 1.427 . S
N600 C597 1.384 . S
N601 C593 1.427 . S
N601 C599 1.384 . S
H602 C608 0.930 . S
H603 C612 0.930 . S
H604 C617 0.929 . S
H605 C615 0.929 . S
H606 C610 0.929 . S
H607 C616 0.929 . S
C608 H602 0.930 . S
C608 C609 1.367 . S
C608 C616 1.378 . S
C609 C608 1.367 . S
C609 C617 1.433 . S
C610 H606 0.929 . S
C610 C612 1.378 . S
C610 C614 1.350 . S
C611 C614 1.463 . S
C611 C616 1.350 . S
C611 N619 1.427 . S
C612 H603 0.930 . S
C612 C610 1.378 . S
C612 C613 1.367 . S
C613 C612 1.367 . S
C613 C615 1.433 . S
C614 C610 1.350 . S
C614 C611 1.463 . S
C614 N618 1.427 . S
C615 H605 0.929 . S
C615 C613 1.433 . S
C615 N618 1.384 . S
C616 H607 0.929 . S
C616 C608 1.378 . S
C616 C611 1.350 . S
C617 H604 0.929 . S
C617 C609 1.433 . S
C617 N619 1.384 . S
N618 C614 1.427 . S
N618 C615 1.384 . S
N619 C611 1.427 . S
N619 C617 1.384 . S
C195 N80 1.608 . S
C199 C120 1.407 1_545 S
C217 C138 1.417 . S
C213 N93 1.603 . S
C235 C159 1.430 . S
C231 N54 1.598 . S
C253 C183 1.441 1_455 S
C249 N67 1.602 . S
C271 C117 1.337 1_565 S
C267 N28 1.519 . S
C285 N41 1.521 . S
C289 C141 1.335 . S
C303 N2 1.521 . S
C307 C162 1.336 . S
C321 N15 1.520 . S
C325 C180 1.336 1_655 S
C343 C122 0.657 1_455 S
C339 N70 0.631 . S
C361 C140 0.657 1_545 S
C357 N83 0.642 . S
C379 C161 0.633 . S
C375 N96 0.639 . S
C393 N57 0.629 . S
C397 C185 0.633 . S
C411 N18 0.727 . S
C415 C121 0.737 . S
C433 C139 0.738 . S
C429 N31 0.722 . S
C451 C160 0.716 . S
C447 N44 0.728 . S
C465 N5 0.729 . S
C469 C184 0.734 . S
C483 N66 1.627 . S
C487 C118 1.534 . S
C501 N79 1.623 . S
C505 C142 1.548 . S
C523 C163 1.538 . S
C519 N92 1.621 . S
C541 C181 1.548 . S
C537 N53 1.621 . S
C555 N14 1.502 . S
C559 C119 1.402 . S
C577 C143 1.408 . S
C573 N27 1.501 . S
C595 C164 1.421 . S
C591 N40 1.508 . S
C609 N1 1.503 . S
C613 C182 1.402 . S
