# Generated by pormake.
# Topology pyr, (3,6)-cn, num edge types: 1
# Building blocks:
#     Node 0, Type 0, BuildingBlock: INOVEN_clean_linker_0, # of connection points: 3
#     Node 1, Type 0, BuildingBlock: INOVEN_clean_linker_0, # of connection points: 3
#     Node 2, Type 0, BuildingBlock: INOVEN_clean_linker_0, # of connection points: 3
#     Node 3, Type 0, BuildingBlock: INOVEN_clean_linker_0, # of connection points: 3
#     Node 4, Type 0, BuildingBlock: INOVEN_clean_linker_0, # of connection points: 3
#     Node 5, Type 0, BuildingBlock: INOVEN_clean_linker_0, # of connection points: 3
#     Node 6, Type 0, BuildingBlock: INOVEN_clean_linker_0, # of connection points: 3
#     Node 7, Type 0, BuildingBlock: INOVEN_clean_linker_0, # of connection points: 3
#     Node 8, Type 1, BuildingBlock: VOLQOD_clean_sbu_1, # of connection points: 6
#     Node 9, Type 1, BuildingBlock: VOLQOD_clean_sbu_1, # of connection points: 6
#     Node 10, Type 1, BuildingBlock: VOLQOD_clean_sbu_1, # of connection points: 6
#     Node 11, Type 1, BuildingBlock: VOLQOD_clean_sbu_1, # of connection points: 6
#     Edge 12, Type (0, 1), BuildingBlock: EZIPEK_clean_linker_0, # of connection points: 2
#     Edge 13, Type (0, 1), BuildingBlock: EZIPEK_clean_linker_0, # of connection points: 2
#     Edge 14, Type (0, 1), BuildingBlock: EZIPEK_clean_linker_0, # of connection points: 2
#     Edge 15, Type (0, 1), BuildingBlock: EZIPEK_clean_linker_0, # of connection points: 2
#     Edge 16, Type (0, 1), BuildingBlock: EZIPEK_clean_linker_0, # of connection points: 2
#     Edge 17, Type (0, 1), BuildingBlock: EZIPEK_clean_linker_0, # of connection points: 2
#     Edge 18, Type (0, 1), BuildingBlock: EZIPEK_clean_linker_0, # of connection points: 2
#     Edge 19, Type (0, 1), BuildingBlock: EZIPEK_clean_linker_0, # of connection points: 2
#     Edge 20, Type (0, 1), BuildingBlock: EZIPEK_clean_linker_0, # of connection points: 2
#     Edge 21, Type (0, 1), BuildingBlock: EZIPEK_clean_linker_0, # of connection points: 2
#     Edge 22, Type (0, 1), BuildingBlock: EZIPEK_clean_linker_0, # of connection points: 2
#     Edge 23, Type (0, 1), BuildingBlock: EZIPEK_clean_linker_0, # of connection points: 2
#     Edge 24, Type (0, 1), BuildingBlock: EZIPEK_clean_linker_0, # of connection points: 2
#     Edge 25, Type (0, 1), BuildingBlock: EZIPEK_clean_linker_0, # of connection points: 2
#     Edge 26, Type (0, 1), BuildingBlock: EZIPEK_clean_linker_0, # of connection points: 2
#     Edge 27, Type (0, 1), BuildingBlock: EZIPEK_clean_linker_0, # of connection points: 2
#     Edge 28, Type (0, 1), BuildingBlock: EZIPEK_clean_linker_0, # of connection points: 2
#     Edge 29, Type (0, 1), BuildingBlock: EZIPEK_clean_linker_0, # of connection points: 2
#     Edge 30, Type (0, 1), BuildingBlock: EZIPEK_clean_linker_0, # of connection points: 2
#     Edge 31, Type (0, 1), BuildingBlock: EZIPEK_clean_linker_0, # of connection points: 2
#     Edge 32, Type (0, 1), BuildingBlock: EZIPEK_clean_linker_0, # of connection points: 2
#     Edge 33, Type (0, 1), BuildingBlock: EZIPEK_clean_linker_0, # of connection points: 2
#     Edge 34, Type (0, 1), BuildingBlock: EZIPEK_clean_linker_0, # of connection points: 2
#     Edge 35, Type (0, 1), BuildingBlock: EZIPEK_clean_linker_0, # of connection points: 2
# Relax obj value: 0.106
# Max RMSD: 0.184
# Mean RMSD: 0.144
data_MOF--net-pry--node1-VOLQOD_clean_sbu_1--node2-INOVEN_clean_linker_0--edge1-EZIPEK_clean_linker_0
_symmetry_space_group_name_H-M    P1
_symmetry_Int_Tables_number       1
_symmetry_cell_setting            triclinic
loop_
_symmetry_equiv_pos_as_xyz
'x, y, z'
_cell_length_a     26.533441
_cell_length_b     27.056646
_cell_length_c     28.343988
_cell_angle_alpha  90.488419
_cell_angle_beta   91.09667
_cell_angle_gamma 95.93625
loop_
_atom_site_label
_atom_site_type_symbol
_atom_site_fract_x
_atom_site_fract_y
_atom_site_fract_z
_atom_type_partial_charge
H0 H 0.07074 0.18309 0.20904 0.0
H1 H 0.18708 0.08334 0.21297 0.0
H2 H 0.18015 0.18608 0.09862 0.0
N3 N 0.10038 0.23066 0.1322 0.0
N4 N 0.1164 0.25178 0.09563 0.0
C5 C 0.10282 0.16821 0.19301 0.0
C6 C 0.12592 0.13012 0.21561 0.0
C7 C 0.12206 0.18889 0.15106 0.0
C8 C 0.16433 0.17009 0.1307 0.0
C9 C 0.18763 0.13175 0.15271 0.0
C10 C 0.1684 0.112 0.19526 0.0
H11 H 0.38448 0.85107 0.61965 0.0
H12 H 0.47416 0.84983 0.74784 0.0
H13 H 0.36802 0.95854 0.72929 0.0
N14 N 0.33184 0.92342 0.64384 0.0
N15 N 0.30266 0.95204 0.66047 0.0
C16 C 0.39623 0.86733 0.65373 0.0
C17 C 0.43259 0.8461 0.68121 0.0
C18 C 0.37247 0.90732 0.67083 0.0
C19 C 0.38651 0.92771 0.71553 0.0
C20 C 0.42365 0.90768 0.74325 0.0
C21 C 0.4466 0.8665 0.7261 0.0
H22 H 0.53571 0.36959 0.92867 0.0
H23 H 0.66717 0.36188 0.01822 0.0
H24 H 0.65673 0.48816 0.9297 0.0
N25 N 0.57242 0.44909 0.88315 0.0
N26 N 0.59148 0.48773 0.86405 0.0
C27 C 0.57068 0.38739 0.94423 0.0
C28 C 0.59731 0.36218 0.97794 0.0
C29 C 0.59191 0.43267 0.9264 0.0
C30 C 0.63869 0.45425 0.9447 0.0
C31 C 0.66596 0.4287 0.97748 0.0
C32 C 0.64503 0.38286 0.9946 0.0
H33 H 0.83174 0.57968 0.38286 0.0
H34 H 0.83452 0.69597 0.48772 0.0
H35 H 0.94622 0.7045 0.38037 0.0
N36 N 0.90823 0.62182 0.33341 0.0
N37 N 0.94273 0.64641 0.31196 0.0
C38 C 0.85051 0.61319 0.39919 0.0
C39 C 0.82956 0.63397 0.43895 0.0
C40 C 0.89292 0.63821 0.37799 0.0
C41 C 0.91483 0.68347 0.39749 0.0
C42 C 0.89381 0.70425 0.43676 0.0
C43 C 0.85204 0.67883 0.45835 0.0
H44 H 0.86438 0.99377 0.8529 0.0
H45 H 0.96743 0.8835 0.82832 0.0
H46 H 0.88109 0.88274 0.9548 0.0
N47 N 0.83293 0.96318 0.93257 0.0
N48 N 0.82149 0.95008 0.9734 0.0
C49 C 0.88613 0.96465 0.8644 0.0
C50 C 0.92576 0.94833 0.83757 0.0
C51 C 0.87153 0.94279 0.90705 0.0
C52 C 0.89308 0.90045 0.92214 0.0
C53 C 0.92683 0.87821 0.89321 0.0
C54 C 0.94266 0.90198 0.85091 0.0
H55 H 0.54621 0.15029 0.37906 0.0
H56 H 0.67209 0.06191 0.3697 0.0
H57 H 0.66518 0.1645 0.48337 0.0
N58 N 0.5784 0.20051 0.45354 0.0
N59 N 0.59425 0.22168 0.49103 0.0
C60 C 0.5794 0.13573 0.39379 0.0
C61 C 0.60047 0.09532 0.3721 0.0
C62 C 0.60155 0.16004 0.43405 0.0
C63 C 0.64727 0.14585 0.45247 0.0
C64 C 0.67195 0.10988 0.42904 0.0
C65 C 0.64947 0.08609 0.38849 0.0
H66 H 0.47394 0.67732 0.16146 0.0
H67 H 0.34828 0.69488 0.06792 0.0
H68 H 0.34487 0.56705 0.15704 0.0
N69 N 0.43042 0.60266 0.20678 0.0
N70 N 0.40121 0.58127 0.23577 0.0
C71 C 0.43849 0.66204 0.14485 0.0
C72 C 0.41434 0.6905 0.11218 0.0
C73 C 0.41291 0.61873 0.16268 0.0
C74 C 0.36547 0.60018 0.14297 0.0
C75 C 0.34297 0.62705 0.10744 0.0
C76 C 0.36734 0.67233 0.09269 0.0
H77 H 0.01856 0.38682 0.6127 0.0
H78 H 0.15016 0.37658 0.52879 0.0
H79 H 0.14547 0.49807 0.62632 0.0
N80 N 0.05581 0.46357 0.66285 0.0
N81 N 0.07893 0.49634 0.6885 0.0
C82 C 0.05426 0.40383 0.59946 0.0
C83 C 0.08139 0.37742 0.56773 0.0
C84 C 0.07711 0.44731 0.62084 0.0
C85 C 0.12616 0.46616 0.60779 0.0
C86 C 0.15256 0.44123 0.57415 0.0
C87 C 0.12899 0.39774 0.55269 0.0
O88 O 0.99112 0.14558 0.55902 0.0
Zn89 Zn 0.96058 0.0748 0.55908 0.0
O90 O 0.00124 0.03549 0.51948 0.0
Zn91 Zn 0.96571 0.01701 0.45993 0.0
Zn92 Zn 0.06614 0.072 0.50413 0.0
Zn93 Zn 0.01322 0.97725 0.55593 0.0
O94 O 0.95502 0.94247 0.45432 0.0
O95 O 0.98606 0.916 0.52209 0.0
O96 O 0.88963 0.07539 0.53082 0.0
O97 O 0.89673 0.04226 0.45921 0.0
O98 O 0.00433 0.0443 0.40257 0.0
O99 O 0.07871 0.07374 0.43424 0.0
O100 O 0.12479 0.04444 0.53758 0.0
O101 O 0.95886 0.05077 0.62764 0.0
O102 O 0.08721 0.97579 0.56954 0.0
O103 O 0.98199 0.97494 0.61977 0.0
C104 C 0.03231 0.16679 0.54323 0.0
C105 C 0.96422 0.90762 0.48217 0.0
C106 C 0.04972 0.06415 0.39831 0.0
C107 C 0.87125 0.06301 0.48996 0.0
C108 C 0.12666 0.00524 0.56182 0.0
C109 C 0.96627 0.00875 0.64523 0.0
O110 O 0.06481 0.14303 0.52291 0.0
O111 O 0.49506 0.13474 0.00302 0.0
Zn112 Zn 0.45907 0.06618 0.01187 0.0
O113 O 0.50096 0.02994 0.05467 0.0
Zn114 Zn 0.52601 0.97576 0.01974 0.0
Zn115 Zn 0.55989 0.0716 0.08099 0.0
Zn116 Zn 0.45917 0.00355 0.10631 0.0
O117 O 0.50503 0.91148 0.04976 0.0
O118 O 0.44669 0.92928 0.10081 0.0
O119 O 0.44763 0.03058 0.94733 0.0
O120 O 0.49789 0.96993 0.95371 0.0
O121 O 0.60121 0.9813 0.01701 0.0
O122 O 0.62657 0.04751 0.06144 0.0
O123 O 0.56075 0.07272 0.15245 0.0
O124 O 0.39131 0.07684 0.04172 0.0
O125 O 0.49371 0.02002 0.16936 0.0
O126 O 0.39274 0.03334 0.1079 0.0
C127 C 0.53212 0.15941 0.02475 0.0
C128 C 0.47071 0.89804 0.07891 0.0
C129 C 0.63625 0.01114 0.03552 0.0
C130 C 0.46695 0.9932 0.93003 0.0
C131 C 0.53257 0.04889 0.18224 0.0
C132 C 0.37107 0.06166 0.08017 0.0
O133 O 0.55857 0.14053 0.0565 0.0
O134 O 0.56497 0.55422 0.64913 0.0
Zn135 Zn 0.55309 0.58301 0.58563 0.0
O136 O 0.50289 0.53929 0.55013 0.0
Zn137 Zn 0.53341 0.51009 0.49662 0.0
Zn138 Zn 0.47363 0.48584 0.58978 0.0
Zn139 Zn 0.45072 0.57852 0.52709 0.0
O140 O 0.4962 0.52253 0.43646 0.0
O141 O 0.45335 0.58585 0.4567 0.0
O142 O 0.61878 0.5933 0.55068 0.0
O143 O 0.6042 0.54066 0.48988 0.0
O144 O 0.5375 0.43729 0.50417 0.0
O145 O 0.49534 0.41883 0.56977 0.0
O146 O 0.39763 0.482 0.58744 0.0
O147 O 0.52759 0.64904 0.60034 0.0
O148 O 0.38289 0.54155 0.53716 0.0
O149 O 0.45312 0.64478 0.56233 0.0
C150 C 0.53725 0.52334 0.67351 0.0
C151 C 0.4685 0.55661 0.42574 0.0
C152 C 0.52078 0.40612 0.53481 0.0
C153 C 0.63301 0.57282 0.51325 0.0
C154 C 0.36712 0.5053 0.56303 0.0
C155 C 0.48668 0.66748 0.5898 0.0
O156 O 0.49849 0.4973 0.65626 0.0
O157 O 0.97414 0.55087 0.11065 0.0
Zn158 Zn 0.97488 0.51561 0.04901 0.0
O159 O 0.00753 0.55977 0.00199 0.0
Zn160 Zn 0.96039 0.57338 0.95146 0.0
Zn161 Zn 0.03418 0.62371 0.03017 0.0
Zn162 Zn 0.06199 0.52513 0.97732 0.0
O163 O 0.98459 0.55028 0.88944 0.0
O164 O 0.06009 0.52514 0.90706 0.0
O165 O 0.90261 0.49652 0.0302 0.0
O166 O 0.89138 0.53797 0.96372 0.0
O167 O 0.95579 0.647 0.94301 0.0
O168 O 0.01251 0.68366 0.99404 0.0
O169 O 0.11006 0.62636 0.03776 0.0
O170 O 0.0087 0.4525 0.05921 0.0
O171 O 0.12811 0.55653 0.00275 0.0
O172 O 0.06113 0.45443 0.99915 0.0
C173 C 0.98776 0.59531 0.12383 0.0
C174 C 0.02597 0.5345 0.87726 0.0
C175 C 0.97958 0.68626 0.96094 0.0
C176 C 0.87467 0.50879 0.99623 0.0
C177 C 0.14148 0.59589 0.0265 0.0
C178 C 0.04081 0.43246 0.03457 0.0
O179 O 0.00921 0.62759 0.09631 0.0
C180 C 0.11289 0.14467 0.30209 0.0
C181 C 0.10744 0.11197 0.26249 0.0
C182 C 0.06794 0.04585 0.31287 0.0
C183 C 0.06843 0.08031 0.35104 0.0
N184 N 0.08076 0.16576 0.37811 0.0
N185 N 0.07243 0.03372 0.22816 0.0
C186 C 0.08802 0.13066 0.3446 0.0
C187 C 0.0829 0.06311 0.26729 0.0
N188 N 0.14311 0.18863 0.29962 0.0
N189 N 0.05518 0.99636 0.32046 0.0
H190 H 0.08275 0.04503 0.19429 0.0
H191 H 0.04983 -0.00011 0.22873 0.0
H192 H 0.04485 0.98217 0.35338 0.0
H193 H 0.05926 0.96894 0.29521 0.0
H194 H 0.15261 0.21148 0.32891 0.0
H195 H 0.16287 0.1999 0.26944 0.0
H196 H 0.0897 0.20372 0.373 0.0
H197 H 0.06078 0.15772 0.40892 0.0
C198 C 0.40876 0.9086 0.83068 0.0
C199 C 0.4359 0.92897 0.79141 0.0
C200 C 0.47899 0.99529 0.84229 0.0
C201 C 0.4525 0.97438 0.88166 0.0
N202 N 0.39508 0.91002 0.91529 0.0
N203 N 0.49281 0.99364 0.75761 0.0
C204 C 0.41798 0.93081 0.87628 0.0
C205 C 0.47001 0.97288 0.79667 0.0
N206 N 0.37266 0.86912 0.8238 0.0
N207 N 0.51432 0.0354 0.84916 0.0
H208 H 0.48903 0.97693 0.72425 0.0
H209 H 0.51387 0.02823 0.75731 0.0
H210 H 0.52047 0.05362 0.88168 0.0
H211 H 0.53913 0.04982 0.8236 0.0
H212 H 0.34736 0.85551 0.84932 0.0
H213 H 0.36591 0.851 0.79132 0.0
H214 H 0.37454 0.87515 0.91561 0.0
H215 H 0.39829 0.92702 0.94854 0.0
C216 C 0.55392 0.54002 0.80609 0.0
C217 C 0.57866 0.49765 0.81672 0.0
C218 C 0.57592 0.47213 0.7338 0.0
C219 C 0.55212 0.51522 0.72271 0.0
N220 N 0.52256 0.59313 0.7458 0.0
N221 N 0.6245 0.43032 0.79145 0.0
C222 C 0.54248 0.55029 0.75816 0.0
C223 C 0.59269 0.46548 0.78076 0.0
N224 N 0.5403 0.56926 0.84225 0.0
N225 N 0.58222 0.43749 0.69952 0.0
H226 H 0.63898 0.4258 0.82544 0.0
H227 H 0.64045 0.40884 0.76622 0.0
H228 H 0.57296 0.44222 0.66403 0.0
H229 H 0.59373 0.40262 0.70656 0.0
H230 H 0.51822 0.59858 0.83801 0.0
H231 H 0.5493 0.56231 0.87743 0.0
H232 H 0.51853 0.62224 0.76917 0.0
H233 H 0.51209 0.60083 0.71118 0.0
C234 C 0.98576 0.59513 0.25744 0.0
C235 C 0.9549 0.63366 0.26552 0.0
C236 C 0.94471 0.64664 0.181 0.0
C237 C 0.97781 0.6097 0.1726 0.0
N238 N 0.03694 0.55456 0.20199 0.0
N239 N 0.91229 0.70217 0.23792 0.0
C240 C 0.00028 0.58531 0.21062 0.0
C241 C 0.93681 0.66141 0.22807 0.0
N242 N 0.00092 0.56817 0.29467 0.0
N243 N 0.9189 0.66567 0.14428 0.0
H244 H 0.90492 0.7129 0.27237 0.0
H245 H 0.90271 0.72729 0.21246 0.0
H246 H 0.92285 0.6551 0.10919 0.0
H247 H 0.89033 0.68882 0.14878 0.0
H248 H 0.01911 0.5361 0.29105 0.0
H249 H 0.99255 0.57653 0.32949 0.0
H250 H 0.05812 0.5393 0.22838 0.0
H251 H 0.04929 0.54733 0.16814 0.0
C252 C 0.28263 0.1374 0.14855 0.0
C253 C 0.23457 0.11467 0.13276 0.0
C254 C 0.27606 0.06185 0.07749 0.0
C255 C 0.32403 0.08166 0.09613 0.0
N256 N 0.37396 0.13577 0.15126 0.0
N257 N 0.18446 0.05269 0.08563 0.0
C258 C 0.32754 0.1188 0.13217 0.0
C259 C 0.23099 0.07628 0.09797 0.0
N260 N 0.28524 0.17771 0.17833 0.0
N261 N 0.27376 0.02954 0.03997 0.0
H262 H 0.15076 0.063 0.09921 0.0
H263 H 0.17914 0.02096 0.06438 0.0
H264 H 0.30597 0.01718 0.02516 0.0
H265 H 0.2405 0.01748 0.02138 0.0
H266 H 0.3187 0.19969 0.18703 0.0
H267 H 0.25327 0.19158 0.19207 0.0
H268 H 0.37895 0.15777 0.18162 0.0
H269 H 0.40798 0.12576 0.13815 0.0
C270 C 0.24773 0.01492 0.63749 0.0
C271 C 0.25992 0.96541 0.6343 0.0
C272 C 0.19095 0.94581 0.5766 0.0
C273 C 0.17521 0.9938 0.58354 0.0
N274 N 0.18342 0.07144 0.62748 0.0
N275 N 0.23298 0.88013 0.61218 0.0
C276 C 0.20236 0.02798 0.61562 0.0
C277 C 0.229 0.9297 0.60678 0.0
N278 N 0.28001 0.04952 0.66125 0.0
N279 N 0.16997 0.91577 0.54086 0.0
H280 H 0.25646 0.86633 0.63769 0.0
H281 H 0.20817 0.85258 0.59578 0.0
H282 H 0.14275 0.92681 0.51722 0.0
H283 H 0.18348 0.88221 0.53174 0.0
H284 H 0.2763 0.08747 0.66073 0.0
H285 H 0.31286 0.04046 0.67856 0.0
H286 H 0.19892 0.09508 0.65438 0.0
H287 H 0.1496 0.08202 0.61353 0.0
C288 C 0.75588 0.43151 0.95247 0.0
C289 C 0.72024 0.44541 0.9856 0.0
C290 C 0.78591 0.50174 0.02552 0.0
C291 C 0.82176 0.48644 0.99337 0.0
N292 N 0.84416 0.43003 0.93279 0.0
N293 N 0.70147 0.4869 0.05761 0.0
C294 C 0.8077 0.44934 0.9587 0.0
C295 C 0.73538 0.47837 0.02352 0.0
N296 N 0.73991 0.4025 0.91418 0.0
N297 N 0.79978 0.53991 0.0566 0.0
H298 H 0.66396 0.47088 0.05651 0.0
H299 H 0.71122 0.50667 0.08868 0.0
H300 H 0.83657 0.55766 0.05918 0.0
H301 H 0.77432 0.55643 0.07758 0.0
H302 H 0.76283 0.39649 0.88573 0.0
H303 H 0.70261 0.38689 0.9091 0.0
H304 H 0.83698 0.39899 0.91079 0.0
H305 H 0.88265 0.44236 0.9362 0.0
C306 C 0.77544 0.58479 0.49675 0.0
C307 C 0.77912 0.6142 0.45562 0.0
C308 C 0.6869 0.61481 0.45147 0.0
C309 C 0.68347 0.58828 0.49447 0.0
N310 N 0.72297 0.54992 0.56008 0.0
N311 N 0.74034 0.66101 0.39525 0.0
C312 C 0.72738 0.57384 0.5178 0.0
C313 C 0.73533 0.62991 0.4331 0.0
N314 N 0.81788 0.56651 0.51481 0.0
N315 N 0.64371 0.6254 0.42813 0.0
H316 H 0.77477 0.67089 0.379 0.0
H317 H 0.71102 0.67934 0.38117 0.0
H318 H 0.60764 0.61896 0.44224 0.0
H319 H 0.64298 0.63843 0.39371 0.0
H320 H 0.81764 0.54114 0.54218 0.0
H321 H 0.85354 0.57411 0.50003 0.0
H322 H 0.75364 0.54288 0.5815 0.0
H323 H 0.68816 0.5391 0.57535 0.0
C324 C 0.04392 0.29588 0.06803 0.0
C325 C 0.0964 0.29535 0.0786 0.0
C326 C 0.1113 0.38443 0.06269 0.0
C327 C 0.05924 0.38501 0.05011 0.0
N328 N 0.97692 0.34081 0.03472 0.0
N329 N 0.18133 0.33515 0.07709 0.0
C330 C 0.02559 0.3406 0.05144 0.0
C331 C 0.13041 0.33846 0.0728 0.0
N332 N 0.01207 0.25328 0.0727 0.0
N333 N 0.14194 0.42816 0.06758 0.0
H334 H 0.1962 0.30205 0.0857 0.0
H335 H 0.20874 0.36382 0.06842 0.0
H336 H 0.1292 0.4629 0.06217 0.0
H337 H 0.17878 0.43052 0.08134 0.0
H338 H 0.97274 0.25191 0.07123 0.0
H339 H 0.02518 0.21892 0.07919 0.0
H340 H 0.95145 0.30912 0.03054 0.0
H341 H 0.96261 0.37268 0.02187 0.0
C342 C 0.54413 0.3002 0.02599 0.0
C343 C 0.57923 0.31024 0.98936 0.0
C344 C 0.58381 0.22125 0.97652 0.0
C345 C 0.54669 0.21118 0.01136 0.0
N346 N 0.48597 0.23916 0.065 0.0
N347 N 0.62596 0.28158 0.924 0.0
C348 C 0.5251 0.25015 0.03484 0.0
C349 C 0.59724 0.27109 0.96294 0.0
N350 N 0.53013 0.33845 0.05296 0.0
N351 N 0.60705 0.18319 0.95725 0.0
H352 H 0.63698 0.31768 0.913 0.0
H353 H 0.6355 0.25465 0.90028 0.0
H354 H 0.59683 0.1459 0.96497 0.0
H355 H 0.63875 0.18858 0.93609 0.0
H356 H 0.5089 0.33344 0.08336 0.0
H357 H 0.54266 0.37561 0.0467 0.0
H358 H 0.46503 0.26572 0.07961 0.0
H359 H 0.47188 0.20279 0.07293 0.0
C360 C 0.87907 0.79394 0.44145 0.0
C361 C 0.91119 0.7561 0.45024 0.0
C362 C 0.9805 0.81881 0.47265 0.0
C363 C 0.94644 0.85585 0.46952 0.0
N364 N 0.85993 0.87636 0.4625 0.0
N365 N 0.98961 0.73129 0.48198 0.0
C366 C 0.89471 0.84289 0.45718 0.0
C367 C 0.96113 0.76815 0.46827 0.0
N368 N 0.83463 0.78381 0.41637 0.0
N369 N 0.03147 0.83203 0.47783 0.0
H370 H 0.97626 0.69368 0.47962 0.0
H371 H 0.02445 0.73817 0.49966 0.0
H372 H 0.04738 0.86893 0.47931 0.0
H373 H 0.05831 0.80662 0.47582 0.0
H374 H 0.81267 0.8114 0.40507 0.0
H375 H 0.82232 0.74876 0.40254 0.0
H376 H 0.82102 0.86671 0.45839 0.0
H377 H 0.86908 0.91222 0.47595 0.0
C378 C 0.49142 0.80317 0.63005 0.0
C379 C 0.4519 0.7998 0.66328 0.0
C380 C 0.44006 0.70914 0.65235 0.0
C381 C 0.47528 0.71322 0.61511 0.0
N382 N 0.53273 0.76361 0.56611 0.0
N383 N 0.3854 0.75069 0.70376 0.0
C384 C 0.50087 0.7601 0.60355 0.0
C385 C 0.42558 0.753 0.67406 0.0
N386 N 0.52008 0.84759 0.62429 0.0
N387 N 0.42161 0.6632 0.66797 0.0
H388 H 0.37486 0.7816 0.72187 0.0
H389 H 0.36053 0.7188 0.7083 0.0
H390 H 0.43093 0.63015 0.65282 0.0
H391 H 0.40046 0.65764 0.69838 0.0
H392 H 0.55246 0.85199 0.60397 0.0
H393 H 0.51377 0.87962 0.64311 0.0
H394 H 0.54861 0.79715 0.5525 0.0
H395 H 0.54074 0.73277 0.54634 0.0
C396 C 0.99163 0.96654 0.77224 0.0
C397 C 0.94548 0.97607 0.79352 0.0
C398 C 0.91923 0.01596 0.72149 0.0
C399 C 0.96082 -8e-05 0.69708 0.0
N400 N 0.0434 0.96921 0.70221 0.0
N401 N 0.90193 0.05008 0.79653 0.0
C402 C -0.00075 0.97792 0.72339 0.0
C403 C 0.91844 0.01223 0.77108 0.0
N404 N 0.0305 0.95382 0.80042 0.0
N405 N 0.87994 0.03445 0.69819 0.0
H406 H 0.91335 0.05654 0.83171 0.0
H407 H 0.88515 0.07915 0.78066 0.0
H408 H 0.87667 0.03539 0.66152 0.0
H409 H 0.84821 0.04409 0.71598 0.0
H410 H 0.0665 0.9487 0.78872 0.0
H411 H 0.02819 0.95404 0.83714 0.0
H412 H 0.06937 0.94691 0.71648 0.0
H413 H 0.05451 0.98461 0.66999 0.0
C414 C 0.59867 0.0346 0.30105 0.0
C415 C 0.5744 0.06837 0.32913 0.0
C416 C 0.51311 0.07579 0.26444 0.0
C417 C 0.54574 0.05373 0.23323 0.0
N418 N 0.6186 0.00824 0.22251 0.0
N419 N 0.48834 0.08217 0.34566 0.0
C420 C 0.58831 0.03196 0.25169 0.0
C421 C 0.52527 0.07802 0.31348 0.0
N422 N 0.62334 -0.00125 0.32228 0.0
N423 N 0.4716 0.09628 0.24735 0.0
H424 H 0.49479 0.07636 0.38156 0.0
H425 H 0.45052 0.08461 0.33626 0.0
H426 H 0.46136 0.09563 0.21162 0.0
H427 H 0.44978 0.11724 0.26837 0.0
H428 H 0.63798 0.97024 0.30368 0.0
H429 H 0.62183 0.99341 0.35871 0.0
H430 H 0.65286 0.99634 0.23403 0.0
H431 H 0.61096 0.00305 0.18646 0.0
C432 C 0.44241 0.61588 0.30883 0.0
C433 C 0.41814 0.57476 0.28288 0.0
C434 C 0.42262 0.52229 0.3523 0.0
C435 C 0.45257 0.56193 0.37605 0.0
N436 N 0.49941 0.64323 0.3735 0.0
N437 N 0.38775 0.48839 0.27744 0.0
C438 C 0.46504 0.6078 0.35328 0.0
C439 C 0.40892 0.52777 0.30401 0.0
N440 N 0.44082 0.66306 0.29247 0.0
N441 N 0.40532 0.48055 0.37639 0.0
H442 H 0.37646 0.49218 0.24228 0.0
H443 H 0.38465 0.45181 0.28904 0.0
H444 H 0.41359 0.47553 0.41203 0.0
H445 H 0.37933 0.45265 0.3622 0.0
H446 H 0.45398 0.69467 0.31211 0.0
H447 H 0.4208 0.67093 0.26191 0.0
H448 H 0.51356 0.67527 0.35599 0.0
H449 H 0.51757 0.63838 0.40585 0.0
C450 C 0.05645 0.46624 0.76725 0.0
C451 C 0.06199 0.50556 0.73442 0.0
C452 C 0.04353 0.56496 0.79549 0.0
C453 C 0.03428 0.52481 0.82716 0.0
N454 N 0.02073 0.4366 0.84085 0.0
N455 N 0.05674 0.59067 0.71425 0.0
C456 C 0.03712 0.47518 0.81224 0.0
C457 C 0.05427 0.55454 0.74772 0.0
N458 N 0.07322 0.42142 0.75668 0.0
N459 N 0.04417 0.61283 0.81155 0.0
H460 H 0.06549 0.58357 0.67924 0.0
H461 H 0.04686 0.62641 0.72018 0.0
H462 H 0.03606 0.62176 0.84627 0.0
H463 H 0.05575 0.64379 0.79143 0.0
H464 H 0.07469 0.39306 0.78113 0.0
H465 H 0.09099 0.41436 0.72521 0.0
H466 H 0.0172 0.39959 0.82971 0.0
H467 H 0.00599 0.44183 0.87419 0.0
C468 C 0.74945 0.93809 0.0256 0.0
C469 C 0.78136 0.97012 0.99739 0.0
C470 C 0.72244 0.03388 0.00165 0.0
C471 C 0.68923 0.00087 0.02815 0.0
N472 N 0.67676 0.92806 0.07667 0.0
N473 N 0.8084 0.05427 0.97527 0.0
C474 C 0.70468 0.95498 0.04387 0.0
C475 C 0.77103 0.01997 0.99047 0.0
N476 N 0.76097 0.89065 0.0328 0.0
N477 N 0.70683 0.07722 0.98518 0.0
H478 H 0.84545 0.0457 0.97063 0.0
H479 H 0.80438 0.09208 0.97305 0.0
H480 H 0.67169 0.08899 0.99295 0.0
H481 H 0.72734 0.0998 0.96117 0.0
H482 H 0.73657 0.86318 0.04836 0.0
H483 H 0.79448 0.87816 0.02087 0.0
H484 H 0.68809 0.89636 0.09255 0.0
H485 H 0.64425 0.94007 0.09125 0.0
C486 C 0.76672 0.12901 0.43143 0.0
C487 C 0.72302 0.09856 0.44582 0.0
C488 C 0.7763 0.04785 0.49326 0.0
C489 C 0.82011 0.07622 0.47631 0.0
N490 N 0.85852 0.1417 0.42744 0.0
N491 N 0.68506 0.0269 0.48683 0.0
C492 C 0.8157 0.11628 0.44489 0.0
C493 C 0.7275 0.05743 0.47589 0.0
N494 N 0.7612 0.17065 0.40554 0.0
N495 N 0.78149 0.01205 0.52629 0.0
H496 H 0.64862 0.0338 0.47617 0.0
H497 H 0.68578 0.9932 0.50409 0.0
H498 H 0.81666 0.00273 0.53831 0.0
H499 H 0.75133 0.99353 0.54405 0.0
H500 H 0.79074 0.19773 0.39839 0.0
H501 H 0.72616 0.17999 0.39324 0.0
H502 H 0.85841 0.16712 0.40013 0.0
H503 H 0.89503 0.13571 0.43873 0.0
C504 C 0.24868 0.61677 0.11714 0.0
C505 C 0.29123 0.61209 0.08854 0.0
C506 C 0.23585 0.60093 0.01834 0.0
C507 C 0.19313 0.60207 0.04748 0.0
N508 N 0.15873 0.5959 0.12599 0.0
N509 N 0.32501 0.58923 0.01407 0.0
C510 C 0.19941 0.6055 0.09733 0.0
C511 C 0.28462 0.60066 0.03974 0.0
N512 N 0.25499 0.63422 0.1625 0.0
N513 N 0.23014 0.60232 0.97035 0.0
H514 H 0.36117 0.58833 0.02899 0.0
H515 H 0.32169 0.5761 0.97938 0.0
H516 H 0.19508 0.60384 0.95344 0.0
H517 H 0.26054 0.60663 0.94753 0.0
H518 H 0.22496 0.64356 0.1828 0.0
H519 H 0.29037 0.64364 0.17858 0.0
H520 H 0.16233 0.59308 0.16253 0.0
H521 H 0.12204 0.58536 0.11325 0.0
C522 C 0.24402 0.42275 0.57532 0.0
C523 C 0.2074 0.45679 0.56751 0.0
C524 C 0.27584 0.52414 0.56279 0.0
C525 C 0.31206 0.48887 0.56352 0.0
N526 N 0.32684 0.40239 0.55411 0.0
N527 N 0.19 0.53809 0.54105 0.0
C528 C 0.29512 0.43743 0.5647 0.0
C529 C 0.22379 0.50696 0.55698 0.0
N530 N 0.23122 0.37762 0.59543 0.0
N531 N 0.29025 0.57354 0.5705 0.0
H532 H 0.15177 0.52623 0.5347 0.0
H533 H 0.20118 0.57393 0.52938 0.0
H534 H 0.32729 0.58761 0.57939 0.0
H535 H 0.26419 0.5996 0.57395 0.0
H536 H 0.25816 0.35382 0.60489 0.0
H537 H 0.19528 0.36668 0.60808 0.0
H538 H 0.31425 0.36463 0.5514 0.0
H539 H 0.36352 0.4113 0.54209 0.0
C540 C 0.99343 0.8215 0.91807 0.0
C541 C 0.94219 0.82824 0.90673 0.0
C542 C 0.9158 0.74488 0.93678 0.0
C543 C 0.9673 0.73579 0.94319 0.0
N544 N 0.05543 0.76259 0.92892 0.0
N545 N 0.85652 0.79052 0.89368 0.0
C546 C 0.00631 0.77331 0.93075 0.0
C547 C 0.90401 0.78803 0.91243 0.0
N548 N 0.02959 0.86128 0.91859 0.0
N549 N 0.87795 0.71384 0.95611 0.0
H550 H 0.84682 0.82074 0.8741 0.0
H551 H 0.82865 0.76038 0.89313 0.0
H552 H 0.88478 0.68361 0.977 0.0
H553 H 0.84028 0.72158 0.95612 0.0
H554 H 0.06642 0.85938 0.93137 0.0
H555 H 0.02165 0.89718 0.91037 0.0
H556 H 0.08445 0.78715 0.91564 0.0
H557 H 0.06636 0.72742 0.93586 0.0
C558 C 0.44473 0.75904 0.05796 0.0
C559 C 0.4334 0.7429 0.10427 0.0
C560 C 0.4554 0.82722 0.13447 0.0
C561 C 0.45877 0.84457 0.08752 0.0
N562 N 0.44595 0.82746 0.00383 0.0
N563 N 0.4156 0.76439 0.1851 0.0
C564 C 0.45078 0.81064 0.04887 0.0
C565 C 0.43536 0.77765 0.14228 0.0
N566 N 0.44996 0.72517 0.02282 0.0
N567 N 0.47272 0.85731 0.17156 0.0
H568 H 0.39755 0.72921 0.19199 0.0
H569 H 0.41211 0.79004 0.21219 0.0
H570 H 0.49009 0.89332 0.16731 0.0
H571 H 0.47505 0.84444 0.20602 0.0
H572 H 0.4628 0.73523 0.98938 0.0
H573 H 0.44626 0.68692 0.02855 0.0
H574 H 0.43527 0.80401 0.97521 0.0
H575 H 0.44702 0.86501 0.99562 0.0
C576 C 0.08249 0.2908 0.59666 0.0
C577 C 0.06711 0.32355 0.56137 0.0
C578 C 0.02489 0.25326 0.5161 0.0
C579 C 0.0435 0.22064 0.54967 0.0
N580 N 0.095 0.20641 0.61819 0.0
N581 N 0.02838 0.3373 0.4858 0.0
C582 C 0.07368 0.23885 0.58894 0.0
C583 C 0.03954 0.30517 0.52054 0.0
N584 N 0.10457 0.30934 0.63806 0.0
N585 N 0.99278 0.23449 0.48048 0.0
H586 H 0.03734 0.37568 0.48883 0.0
H587 H 0.01304 0.32603 0.45291 0.0
H588 H 0.98254 0.1965 0.47546 0.0
H589 H 0.97374 0.25637 0.45759 0.0
H590 H 0.11054 0.28758 0.66734 0.0
H591 H 0.11396 0.3471 0.64486 0.0
H592 H 0.12262 0.21736 0.64382 0.0
H593 H 0.08784 0.16788 0.61479 0.0
C594 C 0.60614 0.30271 0.52998 0.0
C595 C 0.57287 0.26391 0.50944 0.0
C596 C 0.50244 0.31573 0.51279 0.0
C597 C 0.53628 0.35525 0.5317 0.0
N598 N 0.61658 0.3835 0.569 0.0
N599 N 0.48698 0.22698 0.49768 0.0
C600 C 0.58702 0.34771 0.54386 0.0
C601 C 0.52012 0.26839 0.50557 0.0
N602 N 0.65663 0.29706 0.53398 0.0
N603 N 0.45398 0.32385 0.50042 0.0
H604 H 0.49874 0.19139 0.49641 0.0
H605 H 0.44775 0.22712 0.49814 0.0
H606 H 0.4394 0.35762 0.50672 0.0
H607 H 0.42931 0.2982 0.4815 0.0
H608 H 0.68433 0.32564 0.54349 0.0
H609 H 0.6712 0.26381 0.52533 0.0
H610 H 0.65238 0.3787 0.58274 0.0
H611 H 0.60357 0.41691 0.57956 0.0
loop_
_geom_bond_atom_site_label_1
_geom_bond_atom_site_label_2
_geom_bond_distance
_geom_bond_site_symmetry_2
_ccdc_geom_bond_type
H0 C5 0.929 . S
H1 C10 0.931 . S
H2 C8 0.930 . S
N3 N4 1.234 . S
N3 C7 1.453 . S
N4 N3 1.234 . S
C5 H0 0.929 . S
C5 C6 1.373 . S
C5 C7 1.368 . S
C6 C5 1.373 . S
C6 C10 1.397 . S
C7 N3 1.453 . S
C7 C5 1.368 . S
C7 C8 1.373 . S
C8 H2 0.930 . S
C8 C7 1.373 . S
C8 C9 1.371 . S
C9 C8 1.371 . S
C9 C10 1.383 . S
C10 H1 0.931 . S
C10 C6 1.397 . S
C10 C9 1.383 . S
H11 C16 0.929 . S
H12 C21 0.931 . S
H13 C19 0.930 . S
N14 N15 1.234 . S
N14 C18 1.453 . S
N15 N14 1.234 . S
C16 H11 0.929 . S
C16 C17 1.373 . S
C16 C18 1.368 . S
C17 C16 1.373 . S
C17 C21 1.397 . S
C18 N14 1.453 . S
C18 C16 1.368 . S
C18 C19 1.373 . S
C19 H13 0.930 . S
C19 C18 1.373 . S
C19 C20 1.371 . S
C20 C19 1.371 . S
C20 C21 1.383 . S
C21 H12 0.931 . S
C21 C17 1.397 . S
C21 C20 1.383 . S
H22 C27 0.929 . S
H23 C32 0.931 . S
H24 C30 0.930 . S
N25 N26 1.234 . S
N25 C29 1.453 . S
N26 N25 1.234 . S
C27 H22 0.929 . S
C27 C28 1.373 . S
C27 C29 1.368 . S
C28 C27 1.373 . S
C28 C32 1.397 . S
C29 N25 1.453 . S
C29 C27 1.368 . S
C29 C30 1.373 . S
C30 H24 0.930 . S
C30 C29 1.373 . S
C30 C31 1.371 . S
C31 C30 1.371 . S
C31 C32 1.383 . S
C32 H23 0.931 . S
C32 C28 1.397 . S
C32 C31 1.383 . S
H33 C38 0.929 . S
H34 C43 0.931 . S
H35 C41 0.930 . S
N36 N37 1.234 . S
N36 C40 1.453 . S
N37 N36 1.234 . S
C38 H33 0.929 . S
C38 C39 1.373 . S
C38 C40 1.368 . S
C39 C38 1.373 . S
C39 C43 1.397 . S
C40 N36 1.453 . S
C40 C38 1.368 . S
C40 C41 1.373 . S
C41 H35 0.930 . S
C41 C40 1.373 . S
C41 C42 1.371 . S
C42 C41 1.371 . S
C42 C43 1.383 . S
C43 H34 0.931 . S
C43 C39 1.397 . S
C43 C42 1.383 . S
H44 C49 0.929 . S
H45 C54 0.931 . S
H46 C52 0.930 . S
N47 N48 1.234 1_545 S
N47 C51 1.453 1_545 S
N48 N47 1.234 1_565 S
C49 H44 0.929 . S
C49 C50 1.373 1_545 S
C49 C51 1.368 1_545 S
C50 C49 1.373 1_565 S
C50 C54 1.397 . S
C51 N47 1.453 1_565 S
C51 C49 1.368 1_565 S
C51 C52 1.373 . S
C52 H46 0.930 . S
C52 C51 1.373 . S
C52 C53 1.371 . S
C53 C52 1.371 . S
C53 C54 1.383 . S
C54 H45 0.931 . S
C54 C50 1.397 . S
C54 C53 1.383 . S
H55 C60 0.929 . S
H56 C65 0.931 . S
H57 C63 0.930 . S
N58 N59 1.234 . S
N58 C62 1.453 . S
N59 N58 1.234 . S
C60 H55 0.929 . S
C60 C61 1.373 . S
C60 C62 1.368 . S
C61 C60 1.373 . S
C61 C65 1.397 . S
C62 N58 1.453 . S
C62 C60 1.368 . S
C62 C63 1.373 . S
C63 H57 0.930 . S
C63 C62 1.373 . S
C63 C64 1.371 . S
C64 C63 1.371 . S
C64 C65 1.383 . S
C65 H56 0.931 . S
C65 C61 1.397 . S
C65 C64 1.383 . S
H66 C71 0.929 . S
H67 C76 0.931 . S
H68 C74 0.930 . S
N69 N70 1.234 . S
N69 C73 1.453 . S
N70 N69 1.234 . S
C71 H66 0.929 . S
C71 C72 1.373 . S
C71 C73 1.368 . S
C72 C71 1.373 . S
C72 C76 1.397 . S
C73 N69 1.453 . S
C73 C71 1.368 . S
C73 C74 1.373 . S
C74 H68 0.930 . S
C74 C73 1.373 . S
C74 C75 1.371 . S
C75 C74 1.371 . S
C75 C76 1.383 . S
C76 H67 0.931 . S
C76 C72 1.397 . S
C76 C75 1.383 . S
H77 C82 0.929 . S
H78 C87 0.931 . S
H79 C85 0.930 . S
N80 N81 1.234 . S
N80 C84 1.453 . S
N81 N80 1.234 . S
C82 H77 0.929 . S
C82 C83 1.373 . S
C82 C84 1.368 . S
C83 C82 1.373 . S
C83 C87 1.397 . S
C84 N80 1.453 . S
C84 C82 1.368 . S
C84 C85 1.373 . S
C85 H79 0.930 . S
C85 C84 1.373 . S
C85 C86 1.371 . S
C86 C85 1.371 . S
C86 C87 1.383 . S
C87 H78 0.931 . S
C87 C83 1.397 . S
C87 C86 1.383 . S
O88 Zn89 1.953 . S
O88 C104 1.225 1_655 S
Zn89 O88 1.953 . S
Zn89 O90 1.949 1_655 S
Zn89 O96 1.919 . S
Zn89 O101 1.924 . S
O90 Zn89 1.949 1_455 S
O90 Zn91 1.923 1_455 S
O90 Zn92 1.950 . S
O90 Zn93 1.945 1_545 S
Zn91 O90 1.923 1_655 S
Zn91 O94 1.933 1_545 S
Zn91 O97 1.941 . S
Zn91 O98 1.965 1_655 S
Zn92 O90 1.950 . S
Zn92 O99 1.938 . S
Zn92 O100 1.906 . S
Zn92 O110 1.953 . S
Zn93 O90 1.945 1_565 S
Zn93 O95 1.932 1_455 S
Zn93 O102 1.977 . S
Zn93 O103 1.910 1_455 S
O94 Zn91 1.933 1_565 S
O94 C105 1.226 . S
O95 Zn93 1.932 1_655 S
O95 C105 1.307 . S
O96 Zn89 1.919 . S
O96 C107 1.253 . S
O97 Zn91 1.941 . S
O97 C107 1.283 . S
O98 Zn91 1.965 1_455 S
O98 C106 1.303 . S
O99 Zn92 1.938 . S
O99 C106 1.247 . S
O100 Zn92 1.906 . S
O100 C108 1.304 1_545 S
O101 Zn89 1.924 . S
O101 C109 1.311 . S
O102 Zn93 1.977 . S
O102 C108 1.272 . S
O103 Zn93 1.910 1_655 S
O103 C109 1.231 1_565 S
C104 O88 1.225 1_455 S
C104 O110 1.298 . S
C105 O94 1.226 . S
C105 O95 1.307 . S
C106 O98 1.303 . S
C106 O99 1.247 . S
C107 O96 1.253 . S
C107 O97 1.283 . S
C108 O100 1.304 1_565 S
C108 O102 1.272 . S
C109 O101 1.311 . S
C109 O103 1.231 1_545 S
O110 Zn92 1.953 . S
O110 C104 1.298 . S
O111 Zn112 1.953 1_556 S
O111 C127 1.225 1_556 S
Zn112 O111 1.953 1_554 S
Zn112 O113 1.949 . S
Zn112 O119 1.919 1_554 S
Zn112 O124 1.924 . S
O113 Zn112 1.949 . S
O113 Zn114 1.923 1_545 S
O113 Zn115 1.950 . S
O113 Zn116 1.945 . S
Zn114 O113 1.923 1_565 S
Zn114 O117 1.933 . S
Zn114 O120 1.941 1_554 S
Zn114 O121 1.965 . S
Zn115 O113 1.950 . S
Zn115 O122 1.938 . S
Zn115 O123 1.906 . S
Zn115 O133 1.953 . S
Zn116 O113 1.945 . S
Zn116 O118 1.932 1_545 S
Zn116 O125 1.977 . S
Zn116 O126 1.910 . S
O117 Zn114 1.933 . S
O117 C128 1.226 . S
O118 Zn116 1.932 1_565 S
O118 C128 1.307 . S
O119 Zn112 1.919 1_556 S
O119 C130 1.253 1_545 S
O120 Zn114 1.941 1_556 S
O120 C130 1.283 . S
O121 Zn114 1.965 . S
O121 C129 1.303 1_565 S
O122 Zn115 1.938 . S
O122 C129 1.247 . S
O123 Zn115 1.906 . S
O123 C131 1.304 . S
O124 Zn112 1.924 . S
O124 C132 1.311 . S
O125 Zn116 1.977 . S
O125 C131 1.272 . S
O126 Zn116 1.910 . S
O126 C132 1.231 . S
C127 O111 1.225 1_554 S
C127 O133 1.298 . S
C128 O117 1.226 . S
C128 O118 1.307 . S
C129 O121 1.303 1_545 S
C129 O122 1.247 . S
C130 O119 1.253 1_565 S
C130 O120 1.283 . S
C131 O123 1.304 . S
C131 O125 1.272 . S
C132 O124 1.311 . S
C132 O126 1.231 . S
O133 Zn115 1.953 . S
O133 C127 1.298 . S
O134 Zn135 1.953 . S
O134 C150 1.225 . S
Zn135 O134 1.953 . S
Zn135 O136 1.949 . S
Zn135 O142 1.919 . S
Zn135 O147 1.924 . S
O136 Zn135 1.949 . S
O136 Zn137 1.923 . S
O136 Zn138 1.950 . S
O136 Zn139 1.945 . S
Zn137 O136 1.923 . S
Zn137 O140 1.933 . S
Zn137 O143 1.941 . S
Zn137 O144 1.965 . S
Zn138 O136 1.950 . S
Zn138 O145 1.938 . S
Zn138 O146 1.906 . S
Zn138 O156 1.953 . S
Zn139 O136 1.945 . S
Zn139 O141 1.932 . S
Zn139 O148 1.977 . S
Zn139 O149 1.910 . S
O140 Zn137 1.933 . S
O140 C151 1.226 . S
O141 Zn139 1.932 . S
O141 C151 1.307 . S
O142 Zn135 1.919 . S
O142 C153 1.253 . S
O143 Zn137 1.941 . S
O143 C153 1.283 . S
O144 Zn137 1.965 . S
O144 C152 1.303 . S
O145 Zn138 1.938 . S
O145 C152 1.247 . S
O146 Zn138 1.906 . S
O146 C154 1.304 . S
O147 Zn135 1.924 . S
O147 C155 1.311 . S
O148 Zn139 1.977 . S
O148 C154 1.272 . S
O149 Zn139 1.910 . S
O149 C155 1.231 . S
C150 O134 1.225 . S
C150 O156 1.298 . S
C151 O140 1.226 . S
C151 O141 1.307 . S
C152 O144 1.303 . S
C152 O145 1.247 . S
C153 O142 1.253 . S
C153 O143 1.283 . S
C154 O146 1.304 . S
C154 O148 1.272 . S
C155 O147 1.311 . S
C155 O149 1.231 . S
O156 Zn138 1.953 . S
O156 C150 1.298 . S
O157 Zn158 1.953 . S
O157 C173 1.225 . S
Zn158 O157 1.953 . S
Zn158 O159 1.949 1_655 S
Zn158 O165 1.919 . S
Zn158 O170 1.924 . S
O159 Zn158 1.949 1_455 S
O159 Zn160 1.923 1_454 S
O159 Zn161 1.950 . S
O159 Zn162 1.945 1_554 S
Zn160 O159 1.923 1_656 S
Zn160 O163 1.933 1_655 S
Zn160 O166 1.941 . S
Zn160 O167 1.965 . S
Zn161 O159 1.950 . S
Zn161 O168 1.938 . S
Zn161 O169 1.906 . S
Zn161 O179 1.953 . S
Zn162 O159 1.945 1_556 S
Zn162 O164 1.932 . S
Zn162 O171 1.977 1_556 S
Zn162 O172 1.910 1_556 S
O163 Zn160 1.933 1_455 S
O163 C174 1.226 . S
O164 Zn162 1.932 . S
O164 C174 1.307 . S
O165 Zn158 1.919 . S
O165 C176 1.253 1_554 S
O166 Zn160 1.941 . S
O166 C176 1.283 . S
O167 Zn160 1.965 . S
O167 C175 1.303 . S
O168 Zn161 1.938 . S
O168 C175 1.247 1_454 S
O169 Zn161 1.906 . S
O169 C177 1.304 . S
O170 Zn158 1.924 . S
O170 C178 1.311 1_655 S
O171 Zn162 1.977 1_554 S
O171 C177 1.272 . S
O172 Zn162 1.910 1_554 S
O172 C178 1.231 . S
C173 O157 1.225 . S
C173 O179 1.298 1_655 S
C174 O163 1.226 . S
C174 O164 1.307 . S
C175 O167 1.303 . S
C175 O168 1.247 1_656 S
C176 O165 1.253 1_556 S
C176 O166 1.283 . S
C177 O169 1.304 . S
C177 O171 1.272 . S
C178 O170 1.311 1_455 S
C178 O172 1.231 . S
O179 Zn161 1.953 . S
O179 C173 1.298 1_455 S
C180 C181 1.363 . S
C180 C186 1.379 . S
C180 N188 1.356 . S
C181 C180 1.363 . S
C181 C187 1.363 . S
C182 C183 1.363 . S
C182 C187 1.379 . S
C182 N189 1.356 . S
C183 C182 1.363 . S
C183 C186 1.363 . S
N184 C186 1.356 . S
N184 H196 0.984 . S
N184 H197 0.985 . S
N185 C187 1.356 . S
N185 H190 0.984 . S
N185 H191 0.985 . S
C186 C180 1.379 . S
C186 C183 1.363 . S
C186 N184 1.356 . S
C187 C181 1.363 . S
C187 C182 1.379 . S
C187 N185 1.356 . S
N188 C180 1.356 . S
N188 H194 0.984 . S
N188 H195 0.984 . S
N189 C182 1.356 . S
N189 H192 0.984 . S
N189 H193 0.985 1_455 S
H190 N185 0.984 . S
H191 N185 0.985 . S
H192 N189 0.984 . S
H193 N189 0.985 1_655 S
H194 N188 0.984 . S
H195 N188 0.984 . S
H196 N184 0.984 . S
H197 N184 0.985 . S
C198 C199 1.363 . S
C198 C204 1.379 . S
C198 N206 1.356 . S
C199 C198 1.363 . S
C199 C205 1.363 . S
C200 C201 1.363 . S
C200 C205 1.379 . S
C200 N207 1.356 1_565 S
C201 C200 1.363 . S
C201 C204 1.363 . S
N202 C204 1.356 . S
N202 H214 0.984 . S
N202 H215 0.985 . S
N203 C205 1.356 . S
N203 H208 0.984 . S
N203 H209 0.985 1_565 S
C204 C198 1.379 . S
C204 C201 1.363 . S
C204 N202 1.356 . S
C205 C199 1.363 . S
C205 C200 1.379 . S
C205 N203 1.356 . S
N206 C198 1.356 . S
N206 H212 0.984 . S
N206 H213 0.984 . S
N207 C200 1.356 1_545 S
N207 H210 0.984 . S
N207 H211 0.985 . S
H208 N203 0.984 . S
H209 N203 0.985 1_545 S
H210 N207 0.984 . S
H211 N207 0.985 . S
H212 N206 0.984 . S
H213 N206 0.984 . S
H214 N202 0.984 . S
H215 N202 0.985 . S
C216 C217 1.363 . S
C216 C222 1.379 . S
C216 N224 1.356 . S
C217 C216 1.363 . S
C217 C223 1.363 . S
C218 C219 1.363 . S
C218 C223 1.379 . S
C218 N225 1.356 . S
C219 C218 1.363 . S
C219 C222 1.363 . S
N220 C222 1.356 . S
N220 H232 0.984 . S
N220 H233 0.985 . S
N221 C223 1.356 . S
N221 H226 0.984 . S
N221 H227 0.985 . S
C222 C216 1.379 . S
C222 C219 1.363 . S
C222 N220 1.356 . S
C223 C217 1.363 . S
C223 C218 1.379 . S
C223 N221 1.356 . S
N224 C216 1.356 . S
N224 H230 0.984 . S
N224 H231 0.984 . S
N225 C218 1.356 . S
N225 H228 0.984 . S
N225 H229 0.985 . S
H226 N221 0.984 . S
H227 N221 0.985 . S
H228 N225 0.984 . S
H229 N225 0.985 . S
H230 N224 0.984 . S
H231 N224 0.984 . S
H232 N220 0.984 . S
H233 N220 0.985 . S
C234 C235 1.363 . S
C234 C240 1.379 . S
C234 N242 1.356 . S
C235 C234 1.363 . S
C235 C241 1.363 . S
C236 C237 1.363 . S
C236 C241 1.379 . S
C236 N243 1.356 . S
C237 C236 1.363 . S
C237 C240 1.363 . S
N238 C240 1.356 1_455 S
N238 H250 0.984 . S
N238 H251 0.985 . S
N239 C241 1.356 . S
N239 H244 0.984 . S
N239 H245 0.985 . S
C240 C234 1.379 . S
C240 C237 1.363 . S
C240 N238 1.356 1_655 S
C241 C235 1.363 . S
C241 C236 1.379 . S
C241 N239 1.356 . S
N242 C234 1.356 . S
N242 H248 0.984 . S
N242 H249 0.984 . S
N243 C236 1.356 . S
N243 H246 0.984 . S
N243 H247 0.985 . S
H244 N239 0.984 . S
H245 N239 0.985 . S
H246 N243 0.984 . S
H247 N243 0.985 . S
H248 N242 0.984 . S
H249 N242 0.984 . S
H250 N238 0.984 . S
H251 N238 0.985 . S
C252 C253 1.363 . S
C252 C258 1.379 . S
C252 N260 1.356 . S
C253 C252 1.363 . S
C253 C259 1.363 . S
C254 C255 1.363 . S
C254 C259 1.379 . S
C254 N261 1.356 . S
C255 C254 1.363 . S
C255 C258 1.363 . S
N256 C258 1.356 . S
N256 H268 0.984 . S
N256 H269 0.985 . S
N257 C259 1.356 . S
N257 H262 0.984 . S
N257 H263 0.985 . S
C258 C252 1.379 . S
C258 C255 1.363 . S
C258 N256 1.356 . S
C259 C253 1.363 . S
C259 C254 1.379 . S
C259 N257 1.356 . S
N260 C252 1.356 . S
N260 H266 0.984 . S
N260 H267 0.984 . S
N261 C254 1.356 . S
N261 H264 0.984 . S
N261 H265 0.985 1_554 S
H262 N257 0.984 . S
H263 N257 0.985 . S
H264 N261 0.984 . S
H265 N261 0.985 1_556 S
H266 N260 0.984 . S
H267 N260 0.984 . S
H268 N256 0.984 . S
H269 N256 0.985 . S
C270 C271 1.363 . S
C270 C276 1.379 . S
C270 N278 1.356 1_565 S
C271 C270 1.363 . S
C271 C277 1.363 . S
C272 C273 1.363 . S
C272 C277 1.379 . S
C272 N279 1.356 . S
C273 C272 1.363 . S
C273 C276 1.363 . S
N274 C276 1.356 1_545 S
N274 H286 0.984 . S
N274 H287 0.985 . S
N275 C277 1.356 . S
N275 H280 0.984 . S
N275 H281 0.985 . S
C276 C270 1.379 . S
C276 C273 1.363 . S
C276 N274 1.356 1_565 S
C277 C271 1.363 . S
C277 C272 1.379 . S
C277 N275 1.356 . S
N278 C270 1.356 1_545 S
N278 H284 0.984 . S
N278 H285 0.978 1_545 S
N279 C272 1.356 . S
N279 H282 0.984 . S
N279 H283 0.985 . S
H280 N275 0.984 . S
H281 N275 0.985 . S
H282 N279 0.984 . S
H283 N279 0.985 . S
H284 N278 0.984 . S
H285 N278 0.978 1_565 S
H286 N274 0.984 . S
H287 N274 0.985 . S
C288 C289 1.363 . S
C288 C294 1.379 . S
C288 N296 1.356 . S
C289 C288 1.363 . S
C289 C295 1.363 . S
C290 C291 1.363 . S
C290 C295 1.379 . S
C290 N297 1.356 1_556 S
C291 C290 1.363 . S
C291 C294 1.363 . S
N292 C294 1.356 . S
N292 H304 0.984 . S
N292 H305 0.985 . S
N293 C295 1.356 1_554 S
N293 H298 0.984 . S
N293 H299 0.985 . S
C294 C288 1.379 . S
C294 C291 1.363 . S
C294 N292 1.356 . S
C295 C289 1.363 . S
C295 C290 1.379 . S
C295 N293 1.356 1_556 S
N296 C288 1.356 . S
N296 H302 0.984 . S
N296 H303 0.984 . S
N297 C290 1.356 1_554 S
N297 H300 0.984 1_554 S
N297 H301 0.985 . S
H298 N293 0.984 . S
H299 N293 0.985 . S
H300 N297 0.984 1_556 S
H301 N297 0.985 . S
H302 N296 0.984 . S
H303 N296 0.984 . S
H304 N292 0.984 . S
H305 N292 0.985 . S
C306 C307 1.363 . S
C306 C312 1.379 . S
C306 N314 1.356 . S
C307 C306 1.363 . S
C307 C313 1.363 . S
C308 C309 1.363 . S
C308 C313 1.379 . S
C308 N315 1.356 . S
C309 C308 1.363 . S
C309 C312 1.363 . S
N310 C312 1.356 . S
N310 H322 0.984 . S
N310 H323 0.985 . S
N311 C313 1.356 . S
N311 H316 0.984 . S
N311 H317 0.985 . S
C312 C306 1.379 . S
C312 C309 1.363 . S
C312 N310 1.356 . S
C313 C307 1.363 . S
C313 C308 1.379 . S
C313 N311 1.356 . S
N314 C306 1.356 . S
N314 H320 0.984 . S
N314 H321 0.984 . S
N315 C308 1.356 . S
N315 H318 0.984 . S
N315 H319 0.985 . S
H316 N311 0.984 . S
H317 N311 0.985 . S
H318 N315 0.984 . S
H319 N315 0.985 . S
H320 N314 0.984 . S
H321 N314 0.984 . S
H322 N310 0.984 . S
H323 N310 0.985 . S
C324 C325 1.363 . S
C324 C330 1.379 . S
C324 N332 1.356 . S
C325 C324 1.363 . S
C325 C331 1.363 . S
C326 C327 1.363 . S
C326 C331 1.379 . S
C326 N333 1.356 . S
C327 C326 1.363 . S
C327 C330 1.363 . S
N328 C330 1.356 1_655 S
N328 H340 0.984 . S
N328 H341 0.985 . S
N329 C331 1.356 . S
N329 H334 0.984 . S
N329 H335 0.985 . S
C330 C324 1.379 . S
C330 C327 1.363 . S
C330 N328 1.356 1_455 S
C331 C325 1.363 . S
C331 C326 1.379 . S
C331 N329 1.356 . S
N332 C324 1.356 . S
N332 H338 0.984 1_455 S
N332 H339 0.984 . S
N333 C326 1.356 . S
N333 H336 0.984 . S
N333 H337 0.985 . S
H334 N329 0.984 . S
H335 N329 0.985 . S
H336 N333 0.984 . S
H337 N333 0.985 . S
H338 N332 0.984 1_655 S
H339 N332 0.984 . S
H340 N328 0.984 . S
H341 N328 0.985 . S
C342 C343 1.363 . S
C342 C348 1.379 . S
C342 N350 1.356 . S
C343 C342 1.363 . S
C343 C349 1.363 . S
C344 C345 1.363 . S
C344 C349 1.379 . S
C344 N351 1.356 1_556 S
C345 C344 1.363 . S
C345 C348 1.363 . S
N346 C348 1.356 . S
N346 H358 0.984 . S
N346 H359 0.985 1_556 S
N347 C349 1.356 . S
N347 H352 0.984 . S
N347 H353 0.985 . S
C348 C342 1.379 . S
C348 C345 1.363 . S
C348 N346 1.356 . S
C349 C343 1.363 . S
C349 C344 1.379 . S
C349 N347 1.356 . S
N350 C342 1.356 . S
N350 H356 0.984 . S
N350 H357 0.984 . S
N351 C344 1.356 1_554 S
N351 H354 0.984 . S
N351 H355 0.985 . S
H352 N347 0.984 . S
H353 N347 0.985 . S
H354 N351 0.984 . S
H355 N351 0.985 . S
H356 N350 0.984 . S
H357 N350 0.984 . S
H358 N346 0.984 . S
H359 N346 0.985 1_554 S
C360 C361 1.363 . S
C360 C366 1.379 . S
C360 N368 1.356 . S
C361 C360 1.363 . S
C361 C367 1.363 . S
C362 C363 1.363 . S
C362 C367 1.379 . S
C362 N369 1.356 . S
C363 C362 1.363 . S
C363 C366 1.363 . S
N364 C366 1.356 . S
N364 H376 0.984 . S
N364 H377 0.985 . S
N365 C367 1.356 . S
N365 H370 0.984 . S
N365 H371 0.985 . S
C366 C360 1.379 . S
C366 C363 1.363 . S
C366 N364 1.356 . S
C367 C361 1.363 . S
C367 C362 1.379 . S
C367 N365 1.356 . S
N368 C360 1.356 . S
N368 H374 0.984 . S
N368 H375 0.984 . S
N369 C362 1.356 . S
N369 H372 0.984 . S
N369 H373 0.985 . S
H370 N365 0.984 . S
H371 N365 0.985 . S
H372 N369 0.984 . S
H373 N369 0.985 . S
H374 N368 0.984 . S
H375 N368 0.984 . S
H376 N364 0.984 . S
H377 N364 0.985 . S
C378 C379 1.363 . S
C378 C384 1.379 . S
C378 N386 1.356 . S
C379 C378 1.363 . S
C379 C385 1.363 . S
C380 C381 1.363 . S
C380 C385 1.379 . S
C380 N387 1.356 . S
C381 C380 1.363 . S
C381 C384 1.363 . S
N382 C384 1.356 . S
N382 H394 0.984 . S
N382 H395 0.985 . S
N383 C385 1.356 . S
N383 H388 0.984 . S
N383 H389 0.985 . S
C384 C378 1.379 . S
C384 C381 1.363 . S
C384 N382 1.356 . S
C385 C379 1.363 . S
C385 C380 1.379 . S
C385 N383 1.356 . S
N386 C378 1.356 . S
N386 H392 0.984 . S
N386 H393 0.984 . S
N387 C380 1.356 . S
N387 H390 0.984 . S
N387 H391 0.985 . S
H388 N383 0.984 . S
H389 N383 0.985 . S
H390 N387 0.984 . S
H391 N387 0.985 . S
H392 N386 0.984 . S
H393 N386 0.984 . S
H394 N382 0.984 . S
H395 N382 0.985 . S
C396 C397 1.363 . S
C396 C402 1.379 . S
C396 N404 1.356 1_655 S
C397 C396 1.363 . S
C397 C403 1.363 1_565 S
C398 C399 1.363 . S
C398 C403 1.379 . S
C398 N405 1.356 . S
C399 C398 1.363 . S
C399 C402 1.363 1_545 S
N400 C402 1.356 1_455 S
N400 H412 0.984 . S
N400 H413 0.985 . S
N401 C403 1.356 . S
N401 H406 0.984 . S
N401 H407 0.985 . S
C402 C396 1.379 . S
C402 C399 1.363 1_565 S
C402 N400 1.356 1_655 S
C403 C397 1.363 1_545 S
C403 C398 1.379 . S
C403 N401 1.356 . S
N404 C396 1.356 1_455 S
N404 H410 0.984 . S
N404 H411 0.984 . S
N405 C398 1.356 . S
N405 H408 0.984 . S
N405 H409 0.985 . S
H406 N401 0.984 . S
H407 N401 0.985 . S
H408 N405 0.984 . S
H409 N405 0.985 . S
H410 N404 0.984 . S
H411 N404 0.984 . S
H412 N400 0.984 . S
H413 N400 0.985 . S
C414 C415 1.363 . S
C414 C420 1.379 . S
C414 N422 1.360 . S
C415 C414 1.363 . S
C415 C421 1.363 . S
C416 C417 1.363 . S
C416 C421 1.379 . S
C416 N423 1.356 . S
C417 C416 1.363 . S
C417 C420 1.363 . S
N418 C420 1.356 1_565 S
N418 H430 0.984 . S
N418 H431 0.985 . S
N419 C421 1.356 . S
N419 H424 0.984 . S
N419 H425 0.985 . S
C420 C414 1.379 . S
C420 C417 1.363 . S
C420 N418 1.356 1_545 S
C421 C415 1.363 . S
C421 C416 1.379 . S
C421 N419 1.356 . S
N422 C414 1.360 . S
N422 H428 0.979 1_545 S
N422 H429 0.986 . S
N423 C416 1.356 . S
N423 H426 0.984 . S
N423 H427 0.985 . S
H424 N419 0.984 . S
H425 N419 0.985 . S
H426 N423 0.984 . S
H427 N423 0.985 . S
H428 N422 0.979 1_565 S
H429 N422 0.986 . S
H430 N418 0.984 . S
H431 N418 0.985 . S
C432 C433 1.363 . S
C432 C438 1.379 . S
C432 N440 1.356 . S
C433 C432 1.363 . S
C433 C439 1.363 . S
C434 C435 1.363 . S
C434 C439 1.379 . S
C434 N441 1.356 . S
C435 C434 1.363 . S
C435 C438 1.363 . S
N436 C438 1.356 . S
N436 H448 0.984 . S
N436 H449 0.985 . S
N437 C439 1.356 . S
N437 H442 0.984 . S
N437 H443 0.985 . S
C438 C432 1.379 . S
C438 C435 1.363 . S
C438 N436 1.356 . S
C439 C433 1.363 . S
C439 C434 1.379 . S
C439 N437 1.356 . S
N440 C432 1.356 . S
N440 H446 0.984 . S
N440 H447 0.984 . S
N441 C434 1.356 . S
N441 H444 0.984 . S
N441 H445 0.985 . S
H442 N437 0.984 . S
H443 N437 0.985 . S
H444 N441 0.984 . S
H445 N441 0.985 . S
H446 N440 0.984 . S
H447 N440 0.984 . S
H448 N436 0.984 . S
H449 N436 0.985 . S
C450 C451 1.363 . S
C450 C456 1.379 . S
C450 N458 1.356 . S
C451 C450 1.363 . S
C451 C457 1.363 . S
C452 C453 1.363 . S
C452 C457 1.379 . S
C452 N459 1.356 . S
C453 C452 1.363 . S
C453 C456 1.363 . S
N454 C456 1.356 . S
N454 H466 0.984 . S
N454 H467 0.985 . S
N455 C457 1.356 . S
N455 H460 0.984 . S
N455 H461 0.985 . S
C456 C450 1.379 . S
C456 C453 1.363 . S
C456 N454 1.356 . S
C457 C451 1.363 . S
C457 C452 1.379 . S
C457 N455 1.356 . S
N458 C450 1.356 . S
N458 H464 0.984 . S
N458 H465 0.984 . S
N459 C452 1.356 . S
N459 H462 0.984 . S
N459 H463 0.985 . S
H460 N455 0.984 . S
H461 N455 0.985 . S
H462 N459 0.984 . S
H463 N459 0.985 . S
H464 N458 0.984 . S
H465 N458 0.984 . S
H466 N454 0.984 . S
H467 N454 0.985 . S
C468 C469 1.363 1_565 S
C468 C474 1.379 . S
C468 N476 1.356 . S
C469 C468 1.363 1_545 S
C469 C475 1.363 1_556 S
C470 C471 1.363 . S
C470 C475 1.379 . S
C470 N477 1.356 . S
C471 C470 1.363 . S
C471 C474 1.363 1_544 S
N472 C474 1.356 . S
N472 H484 0.984 . S
N472 H485 0.985 . S
N473 C475 1.356 . S
N473 H478 0.984 1_554 S
N473 H479 0.985 . S
C474 C468 1.379 . S
C474 C471 1.363 1_566 S
C474 N472 1.356 . S
C475 C469 1.363 1_554 S
C475 C470 1.379 . S
C475 N473 1.356 . S
N476 C468 1.356 . S
N476 H482 0.984 . S
N476 H483 0.984 . S
N477 C470 1.356 . S
N477 H480 0.984 . S
N477 H481 0.985 . S
H478 N473 0.984 1_556 S
H479 N473 0.985 . S
H480 N477 0.984 . S
H481 N477 0.985 . S
H482 N476 0.984 . S
H483 N476 0.984 . S
H484 N472 0.984 . S
H485 N472 0.985 . S
C486 C487 1.363 . S
C486 C492 1.379 . S
C486 N494 1.356 . S
C487 C486 1.363 . S
C487 C493 1.363 . S
C488 C489 1.363 . S
C488 C493 1.379 . S
C488 N495 1.356 . S
C489 C488 1.363 . S
C489 C492 1.363 . S
N490 C492 1.356 . S
N490 H502 0.984 . S
N490 H503 0.985 . S
N491 C493 1.356 . S
N491 H496 0.984 . S
N491 H497 0.985 . S
C492 C486 1.379 . S
C492 C489 1.363 . S
C492 N490 1.356 . S
C493 C487 1.363 . S
C493 C488 1.379 . S
C493 N491 1.356 . S
N494 C486 1.356 . S
N494 H500 0.984 . S
N494 H501 0.984 . S
N495 C488 1.356 . S
N495 H498 0.984 . S
N495 H499 0.985 . S
H496 N491 0.984 . S
H497 N491 0.985 . S
H498 N495 0.984 . S
H499 N495 0.985 . S
H500 N494 0.984 . S
H501 N494 0.984 . S
H502 N490 0.984 . S
H503 N490 0.985 . S
C504 C505 1.363 . S
C504 C510 1.379 . S
C504 N512 1.356 . S
C505 C504 1.363 . S
C505 C511 1.363 . S
C506 C507 1.363 . S
C506 C511 1.379 . S
C506 N513 1.356 1_554 S
C507 C506 1.363 . S
C507 C510 1.363 . S
N508 C510 1.356 . S
N508 H520 0.984 . S
N508 H521 0.985 . S
N509 C511 1.356 . S
N509 H514 0.984 . S
N509 H515 0.985 . S
C510 C504 1.379 . S
C510 C507 1.363 . S
C510 N508 1.356 . S
C511 C505 1.363 . S
C511 C506 1.379 . S
C511 N509 1.356 . S
N512 C504 1.356 . S
N512 H518 0.984 . S
N512 H519 0.984 . S
N513 C506 1.356 1_556 S
N513 H516 0.984 . S
N513 H517 0.985 . S
H514 N509 0.984 . S
H515 N509 0.985 . S
H516 N513 0.984 . S
H517 N513 0.985 . S
H518 N512 0.984 . S
H519 N512 0.984 . S
H520 N508 0.984 . S
H521 N508 0.985 . S
C522 C523 1.363 . S
C522 C528 1.379 . S
C522 N530 1.356 . S
C523 C522 1.363 . S
C523 C529 1.363 . S
C524 C525 1.363 . S
C524 C529 1.379 . S
C524 N531 1.356 . S
C525 C524 1.363 . S
C525 C528 1.363 . S
N526 C528 1.356 . S
N526 H538 0.984 . S
N526 H539 0.985 . S
N527 C529 1.356 . S
N527 H532 0.984 . S
N527 H533 0.985 . S
C528 C522 1.379 . S
C528 C525 1.363 . S
C528 N526 1.356 . S
C529 C523 1.363 . S
C529 C524 1.379 . S
C529 N527 1.356 . S
N530 C522 1.356 . S
N530 H536 0.984 . S
N530 H537 0.984 . S
N531 C524 1.356 . S
N531 H534 0.984 . S
N531 H535 0.985 . S
H532 N527 0.984 . S
H533 N527 0.985 . S
H534 N531 0.984 . S
H535 N531 0.985 . S
H536 N530 0.984 . S
H537 N530 0.984 . S
H538 N526 0.984 . S
H539 N526 0.985 . S
C540 C541 1.363 . S
C540 C546 1.379 1_556 S
C540 N548 1.356 1_656 S
C541 C540 1.363 . S
C541 C547 1.363 . S
C542 C543 1.363 . S
C542 C547 1.379 . S
C542 N549 1.356 . S
C543 C542 1.363 . S
C543 C546 1.363 1_556 S
N544 C546 1.356 1_455 S
N544 H556 0.984 . S
N544 H557 0.985 . S
N545 C547 1.356 . S
N545 H550 0.984 . S
N545 H551 0.985 . S
C546 C540 1.379 1_554 S
C546 C543 1.363 1_554 S
C546 N544 1.356 1_655 S
C547 C541 1.363 . S
C547 C542 1.379 . S
C547 N545 1.356 . S
N548 C540 1.356 1_454 S
N548 H554 0.984 . S
N548 H555 0.984 1_454 S
N549 C542 1.356 . S
N549 H552 0.984 . S
N549 H553 0.985 . S
H550 N545 0.984 . S
H551 N545 0.985 . S
H552 N549 0.984 . S
H553 N549 0.985 . S
H554 N548 0.984 . S
H555 N548 0.984 1_656 S
H556 N544 0.984 . S
H557 N544 0.985 . S
C558 C559 1.363 . S
C558 C564 1.379 . S
C558 N566 1.356 . S
C559 C558 1.363 . S
C559 C565 1.363 . S
C560 C561 1.363 . S
C560 C565 1.379 . S
C560 N567 1.356 . S
C561 C560 1.363 . S
C561 C564 1.363 . S
N562 C564 1.356 . S
N562 H574 0.984 . S
N562 H575 0.985 . S
N563 C565 1.356 . S
N563 H568 0.984 . S
N563 H569 0.985 . S
C564 C558 1.379 . S
C564 C561 1.363 . S
C564 N562 1.356 . S
C565 C559 1.363 . S
C565 C560 1.379 . S
C565 N563 1.356 . S
N566 C558 1.356 . S
N566 H572 0.984 . S
N566 H573 0.984 . S
N567 C560 1.356 . S
N567 H570 0.984 . S
N567 H571 0.985 . S
H568 N563 0.984 . S
H569 N563 0.985 . S
H570 N567 0.984 . S
H571 N567 0.985 . S
H572 N566 0.984 . S
H573 N566 0.984 . S
H574 N562 0.984 . S
H575 N562 0.985 . S
C576 C577 1.363 . S
C576 C582 1.379 . S
C576 N584 1.356 . S
C577 C576 1.363 . S
C577 C583 1.363 . S
C578 C579 1.363 . S
C578 C583 1.379 . S
C578 N585 1.356 . S
C579 C578 1.363 . S
C579 C582 1.363 . S
N580 C582 1.356 . S
N580 H592 0.984 . S
N580 H593 0.985 . S
N581 C583 1.356 . S
N581 H586 0.984 . S
N581 H587 0.985 . S
C582 C576 1.379 . S
C582 C579 1.363 . S
C582 N580 1.356 . S
C583 C577 1.363 . S
C583 C578 1.379 . S
C583 N581 1.356 . S
N584 C576 1.356 . S
N584 H590 0.984 . S
N584 H591 0.984 . S
N585 C578 1.356 . S
N585 H588 0.984 . S
N585 H589 0.985 1_455 S
H586 N581 0.984 . S
H587 N581 0.985 . S
H588 N585 0.984 . S
H589 N585 0.985 1_655 S
H590 N584 0.984 . S
H591 N584 0.984 . S
H592 N580 0.984 . S
H593 N580 0.985 . S
C594 C595 1.363 . S
C594 C600 1.379 . S
C594 N602 1.356 . S
C595 C594 1.363 . S
C595 C601 1.363 . S
C596 C597 1.363 . S
C596 C601 1.379 . S
C596 N603 1.356 . S
C597 C596 1.363 . S
C597 C600 1.363 . S
N598 C600 1.356 . S
N598 H610 0.984 . S
N598 H611 0.985 . S
N599 C601 1.356 . S
N599 H604 0.984 . S
N599 H605 0.985 . S
C600 C594 1.379 . S
C600 C597 1.363 . S
C600 N598 1.356 . S
C601 C595 1.363 . S
C601 C596 1.379 . S
C601 N599 1.356 . S
N602 C594 1.356 . S
N602 H608 0.984 . S
N602 H609 0.984 . S
N603 C596 1.356 . S
N603 H606 0.984 . S
N603 H607 0.985 . S
H604 N599 0.984 . S
H605 N599 0.985 . S
H606 N603 0.984 . S
H607 N603 0.985 . S
H608 N602 0.984 . S
H609 N602 0.984 . S
H610 N598 0.984 . S
H611 N598 0.985 . S
C181 C6 1.725 . S
C183 C106 1.685 . S
C199 C20 1.854 . S
C201 C130 1.790 . S
C219 C150 1.167 . S
C217 N26 1.152 . S
C235 N37 1.354 . S
C237 C173 1.385 . S
C255 C132 1.955 . S
C253 C9 1.992 . S
C273 C108 1.429 . S
C271 N15 1.514 . S
C291 C176 1.506 . S
C289 C31 1.568 . S
C309 C153 1.437 . S
C307 C39 1.475 . S
C325 N4 1.531 . S
C327 C178 1.473 . S
C345 C127 1.672 1_556 S
C343 C28 1.645 . S
C361 C42 1.406 . S
C363 C105 1.417 . S
C379 C17 1.598 . S
C381 C155 1.556 . S
C399 C109 1.860 . S
C397 C50 1.847 . S
C415 C61 1.639 . S
C417 C131 1.672 . S
C433 N70 1.564 . S
C435 C151 1.600 . S
C451 N81 1.429 . S
C453 C174 1.477 . S
C469 N48 1.414 1_545 S
C471 C129 1.419 . S
C489 C107 1.829 . S
C487 C64 1.811 . S
C507 C177 1.409 . S
C505 C75 1.471 . S
C525 C154 1.419 . S
C523 C86 1.429 . S
C541 C53 1.957 . S
C543 C175 1.921 . S
C561 C128 1.343 . S
C559 C72 1.326 . S
C579 C104 1.609 . S
C577 C83 1.590 . S
C595 N59 1.689 . S
C597 C152 1.675 . S
