# Generated by pormake.
# Topology ssa, (4,4)-cn, num edge types: 1
# Building blocks:
#     Node 0, Type 0, BuildingBlock: KOZSID_clean_sbu_0, # of connection points: 4
#     Node 1, Type 0, BuildingBlock: KOZSID_clean_sbu_0, # of connection points: 4
#     Node 2, Type 0, BuildingBlock: KOZSID_clean_sbu_0, # of connection points: 4
#     Node 3, Type 0, BuildingBlock: KOZSID_clean_sbu_0, # of connection points: 4
#     Node 4, Type 0, BuildingBlock: KOZSID_clean_sbu_0, # of connection points: 4
#     Node 5, Type 0, BuildingBlock: KOZSID_clean_sbu_0, # of connection points: 4
#     Node 6, Type 1, BuildingBlock: NAHDIM_clean_linker_0, # of connection points: 4
#     Node 7, Type 1, BuildingBlock: NAHDIM_clean_linker_0, # of connection points: 4
#     Node 8, Type 1, BuildingBlock: NAHDIM_clean_linker_0, # of connection points: 4
#     Node 9, Type 1, BuildingBlock: NAHDIM_clean_linker_0, # of connection points: 4
#     Node 10, Type 1, BuildingBlock: NAHDIM_clean_linker_0, # of connection points: 4
#     Node 11, Type 1, BuildingBlock: NAHDIM_clean_linker_0, # of connection points: 4
#     Edge 12, Type (0, 1), BuildingBlock: AJUNOK_clean_linker_0, # of connection points: 2
#     Edge 13, Type (0, 1), BuildingBlock: AJUNOK_clean_linker_0, # of connection points: 2
#     Edge 14, Type (0, 1), BuildingBlock: AJUNOK_clean_linker_0, # of connection points: 2
#     Edge 15, Type (0, 1), BuildingBlock: AJUNOK_clean_linker_0, # of connection points: 2
#     Edge 16, Type (0, 1), BuildingBlock: AJUNOK_clean_linker_0, # of connection points: 2
#     Edge 17, Type (0, 1), BuildingBlock: AJUNOK_clean_linker_0, # of connection points: 2
#     Edge 18, Type (0, 1), BuildingBlock: AJUNOK_clean_linker_0, # of connection points: 2
#     Edge 19, Type (0, 1), BuildingBlock: AJUNOK_clean_linker_0, # of connection points: 2
#     Edge 20, Type (0, 1), BuildingBlock: AJUNOK_clean_linker_0, # of connection points: 2
#     Edge 21, Type (0, 1), BuildingBlock: AJUNOK_clean_linker_0, # of connection points: 2
#     Edge 22, Type (0, 1), BuildingBlock: AJUNOK_clean_linker_0, # of connection points: 2
#     Edge 23, Type (0, 1), BuildingBlock: AJUNOK_clean_linker_0, # of connection points: 2
#     Edge 24, Type (0, 1), BuildingBlock: AJUNOK_clean_linker_0, # of connection points: 2
#     Edge 25, Type (0, 1), BuildingBlock: AJUNOK_clean_linker_0, # of connection points: 2
#     Edge 26, Type (0, 1), BuildingBlock: AJUNOK_clean_linker_0, # of connection points: 2
#     Edge 27, Type (0, 1), BuildingBlock: AJUNOK_clean_linker_0, # of connection points: 2
#     Edge 28, Type (0, 1), BuildingBlock: AJUNOK_clean_linker_0, # of connection points: 2
#     Edge 29, Type (0, 1), BuildingBlock: AJUNOK_clean_linker_0, # of connection points: 2
#     Edge 30, Type (0, 1), BuildingBlock: AJUNOK_clean_linker_0, # of connection points: 2
#     Edge 31, Type (0, 1), BuildingBlock: AJUNOK_clean_linker_0, # of connection points: 2
#     Edge 32, Type (0, 1), BuildingBlock: AJUNOK_clean_linker_0, # of connection points: 2
#     Edge 33, Type (0, 1), BuildingBlock: AJUNOK_clean_linker_0, # of connection points: 2
#     Edge 34, Type (0, 1), BuildingBlock: AJUNOK_clean_linker_0, # of connection points: 2
#     Edge 35, Type (0, 1), BuildingBlock: AJUNOK_clean_linker_0, # of connection points: 2
# Relax obj value: 0.013
# Max RMSD: 0.051
# Mean RMSD: 0.032
data_MOF--net-ssa--node1-KOZSID_clean_sbu_0--node2-NAHDIM_clean_linker_0--edge1-AJUNOK_clean_linker_0
_symmetry_space_group_name_H-M    P1
_symmetry_Int_Tables_number       1
_symmetry_cell_setting            triclinic
loop_
_symmetry_equiv_pos_as_xyz
'x, y, z'
_cell_length_a     54.325093
_cell_length_b     55.603847
_cell_length_c     47.546711
_cell_angle_alpha  87.301898
_cell_angle_beta   90.461005
_cell_angle_gamma 122.5116
loop_
_atom_site_label
_atom_site_type_symbol
_atom_site_fract_x
_atom_site_fract_y
_atom_site_fract_z
_atom_type_partial_charge
C0 C 0.97497 0.52509 0.99711 0.0
C1 C 0.9493 0.5201 0.0092 0.0
C2 C 0.94248 0.50124 0.03159 0.0
C3 C 0.96443 0.49607 0.0322 0.0
N4 N 0.98487 0.51038 0.01146 0.0
Co5 Co 0.02212 0.51146 0.00664 0.0
N6 N 0.01222 0.48419 0.04008 0.0
C7 C 0.98717 0.47067 0.05566 0.0
C8 C 0.98618 0.45238 0.07661 0.0
C9 C 0.01221 0.45437 0.07438 0.0
C10 C 0.0277 0.47402 0.05221 0.0
N11 N 0.05995 0.51346 0.00259 0.0
C12 C 0.0715 0.50156 0.01913 0.0
C13 C 0.09905 0.50946 0.00955 0.0
C14 C 0.10518 0.52705 0.98612 0.0
C15 C 0.0812 0.52898 0.98284 0.0
N16 N 0.03142 0.53786 0.97253 0.0
C17 C 0.05493 0.54871 0.95502 0.0
C18 C 0.05481 0.56513 0.93268 0.0
C19 C 0.02973 0.56482 0.9361 0.0
C20 C 0.0161 0.5484 0.96062 0.0
N21 N 0.04177 0.54446 0.0312 0.0
C22 C 0.06884 0.59138 0.06589 0.0
C23 C 0.08001 0.59339 0.03895 0.0
C24 C 0.06636 0.56976 0.02213 0.0
C25 C 0.04422 0.56547 0.07535 0.0
C26 C 0.03102 0.54253 0.05776 0.0
N27 N 0.00247 0.47829 0.98216 0.0
C28 C 0.004 0.45242 0.94332 0.0
C29 C 0.97599 0.42914 0.95026 0.0
C30 C 0.96105 0.43136 0.97272 0.0
C31 C 0.97449 0.45593 0.98813 0.0
C32 C 0.01672 0.47655 0.95942 0.0
H33 H 0.96187 0.45609 0.005 0.0
H34 H 0.03819 0.49339 0.95315 0.0
H35 H 0.07604 0.57247 0.00186 0.0
H36 H 0.01202 0.52352 0.06608 0.0
C37 C 0.96612 0.47748 0.05168 0.0
C38 C 0.98896 0.54388 0.972 0.0
C39 C 0.05738 0.483 0.0442 0.0
C40 C 0.0776 0.54452 0.96108 0.0
H41 H 0.93675 0.52921 0.0027 0.0
H42 H 0.92382 0.49245 0.04582 0.0
H43 H 0.9689 0.43967 0.09209 0.0
H44 H 0.01923 0.44301 0.08786 0.0
H45 H 0.11324 0.50318 0.01862 0.0
H46 H 0.12479 0.53723 0.97304 0.0
H47 H 0.07121 0.57634 0.9161 0.0
H48 H 0.02247 0.57573 0.92228 0.0
H49 H 0.0993 0.61306 0.03095 0.0
H50 H 0.03479 0.56308 0.09609 0.0
H51 H 0.01612 0.45206 0.92554 0.0
H52 H 0.93922 0.41393 0.97885 0.0
C53 C 0.53812 0.00689 0.56368 0.0
C54 C 0.53844 0.99249 0.58827 0.0
C55 C 0.51824 0.96398 0.58525 0.0
C56 C 0.50668 0.9625 0.55915 0.0
N57 N 0.51811 0.98835 0.54585 0.0
Co58 Co 0.50859 0.99545 0.50746 0.0
N59 N 0.47105 0.95825 0.509 0.0
C60 C 0.46587 0.93502 0.52435 0.0
C61 C 0.44103 0.91052 0.51649 0.0
C62 C 0.43 0.91913 0.49495 0.0
C63 C 0.44796 0.94873 0.49183 0.0
N64 N 0.4991 0.00212 0.4689 0.0
C65 C 0.47323 0.98803 0.45574 0.0
C66 C 0.4776 0.99338 0.42678 0.0
C67 C 0.50685 0.01347 0.42223 0.0
C68 C 0.51892 0.0181 0.44844 0.0
N69 N 0.54631 0.0325 0.50563 0.0
C70 C 0.56069 0.04754 0.48183 0.0
C71 C 0.58675 0.0722 0.48705 0.0
C72 C 0.58894 0.07236 0.51587 0.0
C73 C 0.56411 0.04755 0.52667 0.0
N74 N 0.52776 0.97722 0.49218 0.0
C75 C 0.55413 0.94959 0.47231 0.0
C76 C 0.52721 0.9433 0.46207 0.0
C77 C 0.51453 0.95751 0.47206 0.0
C78 C 0.56779 0.97016 0.49243 0.0
C79 C 0.55422 0.98364 0.50215 0.0
N80 N 0.48967 0.01358 0.52291 0.0
C81 C 0.48451 0.05388 0.52468 0.0
C82 C 0.46647 0.04158 0.5488 0.0
C83 C 0.45967 0.01461 0.5591 0.0
C84 C 0.47139 0.00098 0.54586 0.0
C85 C 0.49579 0.03946 0.51198 0.0
H86 H 0.46616 0.98045 0.55454 0.0
H87 H 0.51002 0.0495 0.49371 0.0
H88 H 0.49385 0.95228 0.46365 0.0
H89 H 0.56504 0.99897 0.51808 0.0
C90 C 0.48332 0.93794 0.54751 0.0
C91 C 0.55962 0.03726 0.55643 0.0
C92 C 0.44528 0.96721 0.4703 0.0
C93 C 0.54764 0.03907 0.45543 0.0
H94 H 0.55247 0.00148 0.60612 0.0
H95 H 0.51254 0.94652 0.60039 0.0
H96 H 0.43207 0.88899 0.52519 0.0
H97 H 0.41144 0.90501 0.48245 0.0
H98 H 0.46141 0.98368 0.41064 0.0
H99 H 0.51785 0.0235 0.40225 0.0
H100 H 0.60215 0.08833 0.47181 0.0
H101 H 0.60711 0.08849 0.5275 0.0
H102 H 0.5161 0.92769 0.44627 0.0
H103 H 0.58836 0.97525 0.50131 0.0
H104 H 0.49055 0.0748 0.51616 0.0
H105 H 0.44552 0.00416 0.57746 0.0
C106 C 0.56225 0.53764 0.96793 0.0
C107 C 0.56798 0.55414 0.94309 0.0
C108 C 0.54366 0.55476 0.93768 0.0
C109 C 0.52445 0.53847 0.95924 0.0
N110 N 0.53491 0.52735 0.97813 0.0
Co111 Co 0.51352 0.50122 0.01186 0.0
N112 N 0.47824 0.5033 0.00452 0.0
C113 C 0.47484 0.51809 0.98308 0.0
C114 C 0.44803 0.51484 0.9829 0.0
C115 C 0.43342 0.49714 0.00577 0.0
C116 C 0.45242 0.49087 0.01891 0.0
N117 N 0.49188 0.47461 0.04531 0.0
C118 C 0.46492 0.46517 0.05611 0.0
C119 C 0.45881 0.44764 0.08023 0.0
C120 C 0.4824 0.4455 0.08456 0.0
C121 C 0.50167 0.46197 0.06312 0.0
N122 N 0.54911 0.49971 0.01959 0.0
C123 C 0.55262 0.48508 0.04113 0.0
C124 C 0.57984 0.48921 0.04185 0.0
C125 C 0.59473 0.50767 0.01949 0.0
C126 C 0.57556 0.51356 0.00618 0.0
N127 N 0.52915 0.53455 0.03586 0.0
C128 C 0.54872 0.58017 0.07164 0.0
C129 C 0.5482 0.55564 0.08045 0.0
C130 C 0.53851 0.53337 0.06242 0.0
C131 C 0.54022 0.58203 0.04423 0.0
C132 C 0.5304 0.55899 0.0268 0.0
N133 N 0.49767 0.46763 0.98795 0.0
C134 C 0.48771 0.4204 0.98064 0.0
C135 C 0.47267 0.41847 0.95612 0.0
C136 C 0.47067 0.44168 0.94747 0.0
C137 C 0.48343 0.46596 0.96345 0.0
C138 C 0.49994 0.44491 0.99605 0.0
H139 H 0.48125 0.48296 0.95563 0.0
H140 H 0.51069 0.44467 0.01469 0.0
H141 H 0.53865 0.51535 0.0706 0.0
H142 H 0.52369 0.56128 0.0062 0.0
C143 C 0.49675 0.53383 0.9627 0.0
C144 C 0.58361 0.53265 0.98106 0.0
C145 C 0.44478 0.47278 0.04473 0.0
C146 C 0.52994 0.46769 0.06043 0.0
H147 H 0.58776 0.56477 0.93024 0.0
H148 H 0.54041 0.56588 0.92018 0.0
H149 H 0.43989 0.52389 0.96768 0.0
H150 H 0.41113 0.48947 0.01174 0.0
H151 H 0.43955 0.43772 0.09367 0.0
H152 H 0.48545 0.43392 0.10173 0.0
H153 H 0.58796 0.48008 0.05699 0.0
H154 H 0.61726 0.51597 0.01379 0.0
H155 H 0.55535 0.55363 0.10128 0.0
H156 H 0.5406 0.60086 0.0365 0.0
H157 H 0.48923 0.40272 0.98867 0.0
H158 H 0.4594 0.44122 0.92842 0.0
C159 C 0.95506 0.44023 0.51898 0.0
C160 C 0.92849 0.42169 0.50669 0.0
C161 C 0.9255 0.43673 0.48497 0.0
C162 C 0.95044 0.46337 0.4849 0.0
N163 N 0.96925 0.46637 0.50532 0.0
Co164 Co 0.00914 0.50094 0.51114 0.0
N165 N 0.00512 0.52255 0.47827 0.0
C166 C 0.98203 0.51295 0.46109 0.0
C167 C 0.98566 0.53233 0.44004 0.0
C168 C 0.01264 0.55588 0.44407 0.0
C169 C 0.02385 0.54953 0.4676 0.0
N170 N 0.04913 0.5355 0.51693 0.0
C171 C 0.06354 0.56144 0.50289 0.0
C172 C 0.0906 0.57973 0.51445 0.0
C173 C 0.09353 0.5648 0.53636 0.0
C174 C 0.06816 0.53843 0.5371 0.0
N175 N 0.01316 0.47934 0.54409 0.0
C176 C 0.03619 0.48905 0.56142 0.0
C177 C 0.03266 0.46955 0.58226 0.0
C178 C 0.00587 0.44585 0.57794 0.0
C179 C 0.99459 0.45219 0.55449 0.0
N180 N 0.02631 0.486 0.48582 0.0
C181 C 0.05065 0.46386 0.45108 0.0
C182 C 0.06215 0.47397 0.47739 0.0
C183 C 0.04996 0.48501 0.49409 0.0
C184 C 0.02681 0.46526 0.44228 0.0
C185 C 0.01494 0.47616 0.45993 0.0
N186 N 0.99206 0.51591 0.53654 0.0
C187 C 0.99355 0.53739 0.58006 0.0
C188 C 0.96924 0.53836 0.57264 0.0
C189 C 0.95629 0.52778 0.54687 0.0
C190 C 0.96789 0.51653 0.5293 0.0
C191 C 0.00455 0.52634 0.56186 0.0
H192 H 0.95702 0.50852 0.50999 0.0
H193 H 0.02334 0.5267 0.56879 0.0
H194 H 0.06005 0.49247 0.5137 0.0
H195 H 0.99663 0.47641 0.45219 0.0
C196 C 0.95735 0.4855 0.46511 0.0
C197 C 0.96622 0.43175 0.54297 0.0
C198 C 0.05224 0.56999 0.4791 0.0
C199 C 0.06114 0.51642 0.5572 0.0
H200 H 0.91304 0.39937 0.51229 0.0
H201 H 0.9076 0.42895 0.47049 0.0
H202 H 0.97051 0.52963 0.4237 0.0
H203 H 0.02286 0.57556 0.43116 0.0
H204 H 0.10649 0.60174 0.50801 0.0
H205 H 0.11177 0.57244 0.5504 0.0
H206 H 0.04784 0.47219 0.59855 0.0
H207 H 0.99589 0.42618 0.59067 0.0
H208 H 0.08044 0.47313 0.48534 0.0
H209 H 0.01747 0.45826 0.4218 0.0
H210 H 0.00444 0.54562 0.59973 0.0
H211 H 0.9372 0.52793 0.54044 0.0
C212 C 0.48387 0.01379 0.06772 0.0
C213 C 0.48827 0.03284 0.088 0.0
C214 C 0.51451 0.05735 0.08168 0.0
C215 C 0.52459 0.05189 0.05803 0.0
N216 N 0.50628 0.02547 0.04866 0.0
Co217 Co 0.51307 0.00838 0.01568 0.0
N218 N 0.5516 0.04454 0.00635 0.0
C219 C 0.56332 0.06956 0.01909 0.0
C220 C 0.58957 0.09092 0.00754 0.0
C221 C 0.59499 0.07887 0.98608 0.0
C222 C 0.5717 0.05067 0.98592 0.0
N223 N 0.52052 0.99077 0.98357 0.0
C224 C 0.54413 0.00159 0.96608 0.0
C225 C 0.5411 0.98156 0.94764 0.0
C226 C 0.5146 0.95724 0.95362 0.0
C227 C 0.5031 0.9637 0.97539 0.0
N228 N 0.47387 0.97266 0.02418 0.0
C229 C 0.46071 0.94866 0.00952 0.0
C230 C 0.43366 0.92787 0.02004 0.0
C231 C 0.42919 0.93924 0.04277 0.0
C232 C 0.45392 0.96643 0.04481 0.0
N233 N 0.49392 0.02255 0.99008 0.0
C234 C 0.46912 0.04355 0.95182 0.0
C235 C 0.46528 0.01692 0.94883 0.0
C236 C 0.47765 0.00687 0.96806 0.0
C237 C 0.48478 0.05918 0.97474 0.0
C238 C 0.49702 0.04842 0.99342 0.0
N239 N 0.53234 0.99427 0.04104 0.0
C240 C 0.53697 0.95568 0.05957 0.0
C241 C 0.56223 0.97467 0.07374 0.0
C242 C 0.57183 0.00357 0.07193 0.0
C243 C 0.55646 0.01279 0.0559 0.0
C244 C 0.52258 0.96583 0.04337 0.0
H245 H 0.56481 0.0351 0.05546 0.0
H246 H 0.50377 0.95024 0.03271 0.0
H247 H 0.47382 0.9864 0.96453 0.0
H248 H 0.50908 0.06155 0.01023 0.0
C249 C 0.55033 0.07161 0.04328 0.0
C250 C 0.45784 0.98506 0.06728 0.0
C251 C 0.56987 0.03052 0.96618 0.0
C252 C 0.47545 0.94533 0.98765 0.0
H253 H 0.47389 0.02946 0.10545 0.0
H254 H 0.52485 0.07691 0.0928 0.0
H255 H 0.60341 0.11252 0.01429 0.0
H256 H 0.61409 0.08955 0.97228 0.0
H257 H 0.55644 0.98427 0.9315 0.0
H258 H 0.5048 0.93728 0.94323 0.0
H259 H 0.41924 0.90669 0.01254 0.0
H260 H 0.41012 0.92854 0.0566 0.0
H261 H 0.45265 0.00377 0.93173 0.0
H262 H 0.48806 0.07987 0.97791 0.0
H263 H 0.52816 0.93297 0.06082 0.0
H264 H 0.59157 0.01932 0.08198 0.0
C265 C 0.53031 0.57219 0.49409 0.0
C266 C 0.52069 0.58975 0.50149 0.0
C267 C 0.49467 0.57272 0.51579 0.0
C268 C 0.49001 0.5459 0.51677 0.0
N269 N 0.51168 0.54505 0.50425 0.0
Co270 Co 0.51446 0.511 0.50244 0.0
N271 N 0.48488 0.49041 0.53323 0.0
C272 C 0.46583 0.4969 0.54234 0.0
C273 C 0.44789 0.47872 0.5639 0.0
C274 C 0.45599 0.45943 0.56849 0.0
C275 C 0.47851 0.46697 0.54935 0.0
N276 N 0.51687 0.47676 0.50035 0.0
C277 C 0.50751 0.45427 0.51904 0.0
C278 C 0.51305 0.43456 0.50895 0.0
C279 C 0.52606 0.44505 0.48288 0.0
C280 C 0.52777 0.47049 0.47854 0.0
N281 N 0.54413 0.53164 0.4717 0.0
C282 C 0.55225 0.51963 0.45296 0.0
C283 C 0.57255 0.5391 0.43351 0.0
C284 C 0.57732 0.56495 0.44027 0.0
C285 C 0.55964 0.55978 0.46365 0.0
N286 N 0.54538 0.52651 0.53013 0.0
C287 C 0.58933 0.54818 0.57005 0.0
C288 C 0.59158 0.53554 0.54628 0.0
C289 C 0.5695 0.5251 0.52643 0.0
C290 C 0.5647 0.54974 0.57353 0.0
C291 C 0.54288 0.53861 0.55345 0.0
N292 N 0.4835 0.49537 0.47469 0.0
C293 C 0.43895 0.45571 0.4575 0.0
C294 C 0.4401 0.4725 0.43404 0.0
C295 C 0.4634 0.50103 0.43147 0.0
C296 C 0.48457 0.51214 0.45217 0.0
C297 C 0.46092 0.46744 0.47739 0.0
H298 H 0.50203 0.53426 0.44968 0.0
H299 H 0.45963 0.45378 0.49491 0.0
H300 H 0.57192 0.51581 0.5081 0.0
H301 H 0.52394 0.53969 0.55686 0.0
C302 C 0.4687 0.52259 0.53342 0.0
C303 C 0.55581 0.58145 0.47565 0.0
C304 C 0.49119 0.44982 0.5452 0.0
C305 C 0.54331 0.4909 0.45664 0.0
H306 H 0.53123 0.61249 0.49706 0.0
H307 H 0.48144 0.5794 0.52542 0.0
H308 H 0.43154 0.47988 0.57554 0.0
H309 H 0.44619 0.44163 0.58391 0.0
H310 H 0.50793 0.41455 0.51923 0.0
H311 H 0.53413 0.43567 0.46917 0.0
H312 H 0.58311 0.53511 0.41678 0.0
H313 H 0.59172 0.58518 0.42895 0.0
H314 H 0.61041 0.53405 0.54293 0.0
H315 H 0.56214 0.55912 0.59186 0.0
H316 H 0.42117 0.43369 0.46076 0.0
H317 H 0.46596 0.51472 0.41337 0.0
C318 C 0.09836 0.38622 0.4144 0.0
C319 C 0.10645 0.41291 0.39596 0.0
C320 C 0.12011 0.40991 0.34897 0.0
C321 C 0.14407 0.4374 0.34211 0.0
C322 C 0.16713 0.44147 0.32512 0.0
C323 C 0.16625 0.41743 0.31514 0.0
C324 C 0.14128 0.38973 0.32084 0.0
C325 C 0.11828 0.38635 0.33751 0.0
C326 C 0.19299 0.47137 0.31888 0.0
C327 C 0.13954 0.36366 0.31041 0.0
C328 C 0.36502 0.43848 0.40572 0.0
C329 C 0.33791 0.42435 0.38889 0.0
C330 C 0.30494 0.43647 0.36656 0.0
C331 C 0.28685 0.41028 0.35403 0.0
C332 C 0.26539 0.4068 0.33498 0.0
C333 C 0.26259 0.4302 0.32774 0.0
C334 C 0.28102 0.45665 0.34016 0.0
C335 C 0.30163 0.45925 0.35976 0.0
C336 C 0.24556 0.37807 0.32275 0.0
C337 C 0.27891 0.48218 0.33288 0.0
C338 C 0.33344 0.44683 0.14945 0.0
C339 C 0.30708 0.42001 0.1516 0.0
C340 C 0.28233 0.41661 0.16487 0.0
C341 C 0.28375 0.44058 0.17574 0.0
C342 C 0.31019 0.46766 0.17339 0.0
C343 C 0.33482 0.4703 0.16065 0.0
C344 C 0.25461 0.38736 0.16721 0.0
C345 C 0.31237 0.49382 0.18416 0.0
C346 C 0.07797 0.41087 0.13857 0.0
C347 C 0.10499 0.43769 0.12542 0.0
C348 C 0.14606 0.43211 0.1297 0.0
C349 C 0.1476 0.40787 0.13292 0.0
C350 C 0.16887 0.4079 0.1499 0.0
C351 C 0.18944 0.43308 0.16329 0.0
C352 C 0.18895 0.45816 0.15871 0.0
C353 C 0.16712 0.45735 0.14203 0.0
C354 C 0.16893 0.38087 0.15411 0.0
C355 C 0.21111 0.48564 0.17189 0.0
C356 C 0.19257 0.42108 0.30134 0.0
C357 C 0.2142 0.42277 0.31882 0.0
C358 C 0.24004 0.427 0.30768 0.0
C359 C 0.24445 0.42928 0.27815 0.0
C360 C 0.27008 0.43332 0.26618 0.0
C361 C 0.27419 0.43548 0.23711 0.0
C362 C 0.25318 0.43446 0.21886 0.0
C363 C 0.25745 0.43728 0.18926 0.0
C364 C 0.2363 0.43666 0.17178 0.0
C365 C 0.21069 0.43292 0.18301 0.0
C366 C 0.20578 0.42952 0.21251 0.0
C367 C 0.17999 0.42519 0.2245 0.0
C368 C 0.17558 0.42237 0.25357 0.0
C369 C 0.19669 0.42362 0.27177 0.0
C370 C 0.22273 0.42769 0.26015 0.0
C371 C 0.22723 0.43054 0.23048 0.0
C372 C 0.3866 0.44548 0.10214 0.0
C373 C 0.3586 0.43248 0.11853 0.0
O374 O 0.09971 0.40575 0.36817 0.0
O375 O 0.12391 0.43063 0.11488 0.0
O376 O 0.35781 0.45095 0.13661 0.0
O377 O 0.32572 0.44068 0.38531 0.0
H378 H 0.1305 0.42786 0.39798 0.0
H379 H 0.11174 0.37774 0.40783 0.0
H380 H 0.07501 0.36915 0.41238 0.0
H381 H 0.10281 0.39156 0.43685 0.0
H382 H 0.14503 0.45556 0.35079 0.0
H383 H 0.09951 0.36521 0.34289 0.0
H384 H 0.21183 0.47458 0.33125 0.0
H385 H 0.18841 0.48781 0.3244 0.0
H386 H 0.19936 0.47456 0.29623 0.0
H387 H 0.11832 0.34369 0.31603 0.0
H388 H 0.1574 0.3619 0.3196 0.0
H389 H 0.14262 0.36581 0.28717 0.0
H390 H 0.32163 0.40166 0.39562 0.0
H391 H 0.35947 0.42431 0.4254 0.0
H392 H 0.36548 0.45623 0.41672 0.0
H393 H 0.39741 0.44577 0.37704 0.0
H394 H 0.28906 0.39241 0.35934 0.0
H395 H 0.31567 0.47933 0.36959 0.0
H396 H 0.22238 0.37117 0.3259 0.0
H397 H 0.24879 0.3614 0.33238 0.0
H398 H 0.24982 0.37978 0.29973 0.0
H399 H 0.29749 0.50213 0.34113 0.0
H400 H 0.25836 0.47843 0.3421 0.0
H401 H 0.27823 0.48521 0.30969 0.0
H402 H 0.35072 0.41099 0.12866 0.0
H403 H 0.3057 0.40161 0.14315 0.0
H404 H 0.3552 0.4909 0.15885 0.0
H405 H 0.24606 0.38214 0.18927 0.0
H406 H 0.25792 0.37041 0.16048 0.0
H407 H 0.23776 0.38726 0.15378 0.0
H408 H 0.33356 0.51371 0.17826 0.0
H409 H 0.31001 0.49169 0.20746 0.0
H410 H 0.29439 0.49581 0.17571 0.0
H411 H 0.11553 0.45295 0.14248 0.0
H412 H 0.06251 0.41619 0.14695 0.0
H413 H 0.08453 0.40188 0.15629 0.0
H414 H 0.06665 0.3943 0.12285 0.0
H415 H 0.13141 0.38863 0.12292 0.0
H416 H 0.16641 0.47637 0.13865 0.0
H417 H 0.16775 0.37505 0.17694 0.0
H418 H 0.18966 0.3845 0.14551 0.0
H419 H 0.15041 0.36265 0.14355 0.0
H420 H 0.20989 0.50399 0.16361 0.0
H421 H 0.23351 0.49051 0.168 0.0
H422 H 0.20725 0.48323 0.19503 0.0
H423 H 0.21103 0.42114 0.34151 0.0
H424 H 0.28722 0.4347 0.27917 0.0
H425 H 0.29422 0.43827 0.22913 0.0
H426 H 0.23983 0.43913 0.14912 0.0
H427 H 0.16293 0.42399 0.21154 0.0
H428 H 0.15542 0.41925 0.26161 0.0
H429 H 0.3743 0.4469 0.06059 0.0
H430 H 0.39608 0.43259 0.10924 0.0
H431 H 0.40316 0.46516 0.11317 0.0
C432 C 0.90437 0.29736 0.92065 0.0
C433 C 0.91748 0.3197 0.89592 0.0
C434 C 0.8785 0.29512 0.86128 0.0
C435 C 0.88385 0.27375 0.85531 0.0
C436 C 0.86467 0.2511 0.83854 0.0
C437 C 0.8399 0.24999 0.82733 0.0
C438 C 0.83494 0.27188 0.83268 0.0
C439 C 0.85439 0.29418 0.84952 0.0
C440 C 0.87068 0.22823 0.83294 0.0
C441 C 0.80884 0.2715 0.82095 0.0
C442 C 0.66127 0.04419 0.86844 0.0
C443 C 0.66745 0.06859 0.88702 0.0
C444 C 0.69701 0.11267 0.85693 0.0
C445 C 0.69673 0.13531 0.84331 0.0
C446 C 0.72138 0.15742 0.82849 0.0
C447 C 0.74688 0.15654 0.82679 0.0
C448 C 0.74746 0.13376 0.84063 0.0
C449 C 0.72257 0.1121 0.85572 0.0
C450 C 0.72003 0.18165 0.81456 0.0
C451 C 0.7743 0.1322 0.83922 0.0
C452 C 0.69872 0.12501 0.64665 0.0
C453 C 0.69856 0.14716 0.65943 0.0
C454 C 0.72313 0.16797 0.67353 0.0
C455 C 0.7484 0.16658 0.67487 0.0
C456 C 0.749 0.14489 0.66111 0.0
C457 C 0.72417 0.12451 0.64689 0.0
C458 C 0.72203 0.19135 0.68718 0.0
C459 C 0.77567 0.14299 0.66188 0.0
C460 C 0.93772 0.36906 0.59574 0.0
C461 C 0.92289 0.3402 0.61039 0.0
C462 C 0.8834 0.31118 0.64503 0.0
C463 C 0.86114 0.31011 0.6606 0.0
C464 C 0.83983 0.28489 0.67522 0.0
C465 C 0.84148 0.26033 0.67504 0.0
C466 C 0.86401 0.26123 0.65934 0.0
C467 C 0.8846 0.28657 0.64424 0.0
C468 C 0.81557 0.28459 0.69086 0.0
C469 C 0.86646 0.23548 0.6587 0.0
C470 C 0.81867 0.22565 0.81054 0.0
C471 C 0.79514 0.20194 0.8249 0.0
C472 C 0.77277 0.17944 0.81034 0.0
C473 C 0.77398 0.18033 0.78057 0.0
C474 C 0.75196 0.158 0.76525 0.0
C475 C 0.75219 0.16002 0.73597 0.0
C476 C 0.77449 0.18442 0.72087 0.0
C477 C 0.77383 0.18754 0.69122 0.0
C478 C 0.79638 0.21207 0.67688 0.0
C479 C 0.81966 0.23382 0.69137 0.0
C480 C 0.82066 0.23107 0.72105 0.0
C481 C 0.84372 0.25249 0.73633 0.0
C482 C 0.84339 0.25057 0.76564 0.0
C483 C 0.82015 0.22699 0.78077 0.0
C484 C 0.79748 0.20443 0.76575 0.0
C485 C 0.79772 0.20649 0.73585 0.0
C486 C 0.64103 0.06433 0.66325 0.0
C487 C 0.64646 0.08962 0.64394 0.0
O488 O 0.89561 0.3168 0.87836 0.0
O489 O 0.90316 0.33629 0.6312 0.0
O490 O 0.67497 0.10424 0.63344 0.0
O491 O 0.67207 0.09197 0.87061 0.0
H492 H 0.93306 0.31695 0.88363 0.0
H493 H 0.89316 0.2754 0.91309 0.0
H494 H 0.88826 0.29948 0.93273 0.0
H495 H 0.92185 0.30012 0.93502 0.0
H496 H 0.90274 0.27443 0.86375 0.0
H497 H 0.85057 0.31086 0.85403 0.0
H498 H 0.85235 0.20724 0.84154 0.0
H499 H 0.89129 0.2325 0.84252 0.0
H500 H 0.87203 0.22662 0.80988 0.0
H501 H 0.80826 0.29029 0.82684 0.0
H502 H 0.78846 0.25178 0.82884 0.0
H503 H 0.8092 0.2712 0.79762 0.0
H504 H 0.6872 0.07477 0.8996 0.0
H505 H 0.65716 0.02538 0.88177 0.0
H506 H 0.68027 0.05085 0.85431 0.0
H507 H 0.64197 0.03778 0.85518 0.0
H508 H 0.67698 0.13561 0.84441 0.0
H509 H 0.72326 0.09479 0.86617 0.0
H510 H 0.72004 0.1803 0.79135 0.0
H511 H 0.73952 0.20251 0.81985 0.0
H512 H 0.70011 0.1811 0.82098 0.0
H513 H 0.77073 0.11223 0.84963 0.0
H514 H 0.79263 0.1507 0.84961 0.0
H515 H 0.78097 0.13351 0.8169 0.0
H516 H 0.64279 0.1037 0.65664 0.0
H517 H 0.67947 0.14855 0.65811 0.0
H518 H 0.72426 0.10761 0.63651 0.0
H519 H 0.72298 0.1889 0.7104 0.0
H520 H 0.70183 0.19095 0.68209 0.0
H521 H 0.74123 0.21255 0.68026 0.0
H522 H 0.77243 0.12441 0.65072 0.0
H523 H 0.78125 0.1412 0.68409 0.0
H524 H 0.79456 0.16282 0.652 0.0
H525 H 0.93778 0.33314 0.61739 0.0
H526 H 0.96137 0.37907 0.60104 0.0
H527 H 0.93427 0.3831 0.60935 0.0
H528 H 0.92271 0.36046 0.55456 0.0
H529 H 0.8603 0.32914 0.66093 0.0
H530 H 0.90171 0.28707 0.63222 0.0
H531 H 0.81904 0.28415 0.71386 0.0
H532 H 0.79413 0.26517 0.68641 0.0
H533 H 0.81469 0.30371 0.68512 0.0
H534 H 0.88664 0.24033 0.64754 0.0
H535 H 0.84731 0.2182 0.64791 0.0
H536 H 0.86629 0.2273 0.68051 0.0
H537 H 0.7937 0.20146 0.84769 0.0
H538 H 0.73405 0.13888 0.77575 0.0
H539 H 0.73443 0.14236 0.72532 0.0
H540 H 0.79534 0.21464 0.65422 0.0
H541 H 0.86205 0.27125 0.72582 0.0
H542 H 0.86143 0.26796 0.77631 0.0
H543 H 0.61827 0.0523 0.67181 0.0
H544 H 0.65614 0.07217 0.68123 0.0
H545 H 0.64475 0.04966 0.65159 0.0
C546 C 0.63711 0.72212 0.45251 0.0
C547 C 0.61424 0.7005 0.43274 0.0
C548 C 0.62109 0.72067 0.38509 0.0
C549 C 0.59268 0.71297 0.37826 0.0
C550 C 0.58789 0.72973 0.35879 0.0
C551 C 0.61207 0.75477 0.34596 0.0
C552 C 0.64076 0.76181 0.35181 0.0
C553 C 0.64488 0.74437 0.37108 0.0
C554 C 0.557 0.72117 0.35258 0.0
C555 C 0.66704 0.78836 0.33857 0.0
C556 C 0.5819 0.92095 0.42035 0.0
C557 C 0.59589 0.90821 0.40533 0.0
C558 C 0.58263 0.86842 0.37534 0.0
C559 C 0.61112 0.87437 0.37197 0.0
C560 C 0.6164 0.85652 0.35666 0.0
C561 C 0.59269 0.83191 0.34502 0.0
C562 C 0.5639 0.8254 0.34916 0.0
C563 C 0.55936 0.84402 0.3639 0.0
C564 C 0.64737 0.86411 0.35274 0.0
C565 C 0.53791 0.79885 0.33796 0.0
C566 C 0.57826 0.87261 0.16181 0.0
C567 C 0.60592 0.88264 0.17315 0.0
C568 C 0.61189 0.86386 0.18781 0.0
C569 C 0.58937 0.83472 0.19225 0.0
C570 C 0.56151 0.82462 0.1808 0.0
C571 C 0.55654 0.84366 0.16528 0.0
C572 C 0.64226 0.87526 0.19859 0.0
C573 C 0.53684 0.79379 0.18515 0.0
C574 C 0.6263 0.66827 0.16296 0.0
C575 C 0.59901 0.66803 0.15423 0.0
C576 C 0.60548 0.71422 0.15984 0.0
C577 C 0.63002 0.74185 0.16135 0.0
C578 C 0.62953 0.76186 0.1779 0.0
C579 C 0.60354 0.75414 0.19265 0.0
C580 C 0.5783 0.72644 0.19035 0.0
C581 C 0.57961 0.70672 0.17407 0.0
C582 C 0.65677 0.79121 0.1797 0.0
C583 C 0.54987 0.71777 0.20483 0.0
C584 C 0.60735 0.77484 0.32861 0.0
C585 C 0.60303 0.79375 0.34288 0.0
C586 C 0.59799 0.81308 0.32833 0.0
C587 C 0.59751 0.81386 0.29855 0.0
C588 C 0.59286 0.83327 0.28321 0.0
C589 C 0.59169 0.83345 0.25399 0.0
C590 C 0.59572 0.81464 0.23888 0.0
C591 C 0.59475 0.81483 0.20912 0.0
C592 C 0.59802 0.79529 0.19484 0.0
C593 C 0.60226 0.77539 0.20939 0.0
C594 C 0.60403 0.77534 0.23912 0.0
C595 C 0.60898 0.75611 0.25447 0.0
C596 C 0.61013 0.75591 0.28377 0.0
C597 C 0.60647 0.77498 0.29884 0.0
C598 C 0.60161 0.79465 0.28378 0.0
C599 C 0.60059 0.79496 0.2539 0.0
C600 C 0.57458 0.9323 0.12875 0.0
C601 C 0.58636 0.9194 0.14847 0.0
O602 O 0.626 0.70604 0.40567 0.0
O603 O 0.60715 0.69524 0.14432 0.0
O604 O 0.57172 0.88998 0.14719 0.0
O605 O 0.57662 0.88556 0.38927 0.0
H606 H 0.59609 0.70431 0.43351 0.0
H607 H 0.64002 0.74331 0.44805 0.0
H608 H 0.65871 0.72493 0.44908 0.0
H609 H 0.62992 0.71548 0.47488 0.0
H610 H 0.57425 0.69407 0.38848 0.0
H611 H 0.66673 0.74992 0.37628 0.0
H612 H 0.55267 0.7366 0.36171 0.0
H613 H 0.54066 0.69942 0.36151 0.0
H614 H 0.55403 0.72184 0.32948 0.0
H615 H 0.6879 0.79087 0.34532 0.0
H616 H 0.66701 0.80747 0.34434 0.0
H617 H 0.66594 0.78761 0.31528 0.0
H618 H 0.61662 0.92411 0.39382 0.0
H619 H 0.59273 0.94349 0.41117 0.0
H620 H 0.58498 0.91151 0.46278 0.0
H621 H 0.56039 0.91338 0.40993 0.0
H622 H 0.62938 0.89305 0.3809 0.0
H623 H 0.53745 0.83947 0.36677 0.0
H624 H 0.64999 0.84773 0.36408 0.0
H625 H 0.6636 0.88532 0.3608 0.0
H626 H 0.65222 0.86418 0.33008 0.0
H627 H 0.51693 0.79465 0.34661 0.0
H628 H 0.53937 0.77997 0.34317 0.0
H629 H 0.53772 0.80133 0.31469 0.0
H630 H 0.58933 0.92638 0.17053 0.0
H631 H 0.62305 0.90497 0.17032 0.0
H632 H 0.53533 0.83611 0.15629 0.0
H633 H 0.64222 0.87704 0.22173 0.0
H634 H 0.65841 0.8967 0.18889 0.0
H635 H 0.64945 0.86046 0.19429 0.0
H636 H 0.51563 0.79022 0.17809 0.0
H637 H 0.53468 0.78675 0.20774 0.0
H638 H 0.54169 0.78016 0.17306 0.0
H639 H 0.58488 0.66159 0.17345 0.0
H640 H 0.62027 0.64664 0.171 0.0
H641 H 0.6374 0.68332 0.18 0.0
H642 H 0.64187 0.67519 0.14485 0.0
H643 H 0.64979 0.74749 0.14998 0.0
H644 H 0.56033 0.68557 0.17209 0.0
H645 H 0.66185 0.79652 0.20209 0.0
H646 H 0.65305 0.80731 0.16942 0.0
H647 H 0.67594 0.79295 0.16931 0.0
H648 H 0.53165 0.69636 0.19898 0.0
H649 H 0.54395 0.73366 0.19938 0.0
H650 H 0.5524 0.71734 0.228 0.0
H651 H 0.60334 0.79325 0.36572 0.0
H652 H 0.5899 0.84846 0.29361 0.0
H653 H 0.58759 0.84859 0.24342 0.0
H654 H 0.59678 0.79526 0.17205 0.0
H655 H 0.61198 0.74098 0.24397 0.0
H656 H 0.61385 0.74056 0.2945 0.0
H657 H 0.60935 0.95779 0.10064 0.0
H658 H 0.56515 0.94131 0.14272 0.0
H659 H 0.55268 0.91432 0.12179 0.0
C660 C 0.72248 0.59241 0.95609 0.0
C661 C 0.70164 0.58762 0.93194 0.0
C662 C 0.72521 0.57724 0.89431 0.0
C663 C 0.74852 0.60546 0.88808 0.0
C664 C 0.77136 0.61123 0.86962 0.0
C665 C 0.77106 0.58837 0.85738 0.0
C666 C 0.74758 0.55998 0.86355 0.0
C667 C 0.72479 0.55488 0.88163 0.0
C668 C 0.79594 0.64177 0.86331 0.0
C669 C 0.74674 0.53496 0.8514 0.0
C670 C 0.92485 0.61413 0.95508 0.0
C671 C 0.92454 0.59525 0.93238 0.0
C672 C 0.9128 0.60796 0.88715 0.0
C673 C 0.88991 0.58124 0.87894 0.0
C674 C 0.86803 0.57901 0.86128 0.0
C675 C 0.86924 0.60407 0.85148 0.0
C676 C 0.89323 0.63114 0.85844 0.0
C677 C 0.91494 0.63274 0.87603 0.0
C678 C 0.84311 0.54983 0.85381 0.0
C679 C 0.89534 0.65826 0.84812 0.0
C680 C 0.90269 0.60292 0.66355 0.0
C681 C 0.88267 0.57741 0.67858 0.0
C682 C 0.86105 0.57579 0.69604 0.0
C683 C 0.85973 0.60034 0.69872 0.0
C684 C 0.87966 0.62597 0.68317 0.0
C685 C 0.90066 0.62678 0.66544 0.0
C686 C 0.83949 0.54778 0.71143 0.0
C687 C 0.87886 0.65252 0.68541 0.0
C688 C 0.66364 0.59062 0.68433 0.0
C689 C 0.67827 0.59063 0.65687 0.0
C690 C 0.71359 0.57895 0.67492 0.0
C691 C 0.71767 0.55644 0.68036 0.0
C692 C 0.74182 0.56035 0.69534 0.0
C693 C 0.76281 0.58774 0.7046 0.0
C694 C 0.75917 0.61082 0.69875 0.0
C695 C 0.73443 0.60615 0.68426 0.0
C696 C 0.74488 0.53518 0.70128 0.0
C697 C 0.78149 0.64048 0.70769 0.0
C698 C 0.79574 0.59399 0.83888 0.0
C699 C 0.82078 0.59791 0.85177 0.0
C700 C 0.84428 0.60172 0.83588 0.0
C701 C 0.84297 0.60176 0.80616 0.0
C702 C 0.86607 0.60529 0.78952 0.0
C703 C 0.86429 0.6047 0.7603 0.0
C704 C 0.83926 0.60036 0.74662 0.0
C705 C 0.83686 0.5989 0.71699 0.0
C706 C 0.81189 0.5951 0.70409 0.0
C707 C 0.78883 0.59228 0.71992 0.0
C708 C 0.79056 0.59315 0.7496 0.0
C709 C 0.76751 0.58975 0.76626 0.0
C710 C 0.76932 0.59041 0.79546 0.0
C711 C 0.79409 0.59415 0.80917 0.0
C712 C 0.81772 0.59788 0.79278 0.0
C713 C 0.8159 0.59727 0.76297 0.0
C714 C 0.97256 0.62247 0.66065 0.0
C715 C 0.94254 0.5962 0.65479 0.0
O716 O 0.70285 0.57046 0.91243 0.0
O717 O 0.68937 0.57334 0.66061 0.0
O718 O 0.92381 0.60491 0.64672 0.0
O719 O 0.93242 0.61021 0.90644 0.0
H720 H 0.70787 0.60848 0.92143 0.0
H721 H 0.72151 0.60596 0.97193 0.0
H722 H 0.71659 0.57166 0.9666 0.0
H723 H 0.74533 0.60346 0.94804 0.0
H724 H 0.74913 0.6231 0.89749 0.0
H725 H 0.70672 0.53321 0.88649 0.0
H726 H 0.81648 0.64511 0.87212 0.0
H727 H 0.7917 0.65729 0.87239 0.0
H728 H 0.79934 0.64626 0.84018 0.0
H729 H 0.72823 0.51414 0.86013 0.0
H730 H 0.76745 0.53609 0.85574 0.0
H731 H 0.74463 0.53582 0.8282 0.0
H732 H 0.90148 0.57676 0.93235 0.0
H733 H 0.92294 0.60421 0.97646 0.0
H734 H 0.90599 0.6166 0.95223 0.0
H735 H 0.9449 0.63586 0.95352 0.0
H736 H 0.8889 0.56211 0.88674 0.0
H737 H 0.93296 0.65329 0.8822 0.0
H738 H 0.84025 0.5491 0.83065 0.0
H739 H 0.82255 0.54553 0.86361 0.0
H740 H 0.8466 0.53263 0.86113 0.0
H741 H 0.91586 0.67767 0.85458 0.0
H742 H 0.8765 0.65853 0.85658 0.0
H743 H 0.89424 0.659 0.82479 0.0
H744 H 0.93465 0.58284 0.67483 0.0
H745 H 0.88368 0.55866 0.67631 0.0
H746 H 0.91604 0.64627 0.65342 0.0
H747 H 0.84301 0.54992 0.73444 0.0
H748 H 0.84166 0.53005 0.70496 0.0
H749 H 0.81683 0.54209 0.70752 0.0
H750 H 0.8976 0.67143 0.67413 0.0
H751 H 0.87904 0.65723 0.70788 0.0
H752 H 0.85832 0.64892 0.67632 0.0
H753 H 0.69624 0.61275 0.6506 0.0
H754 H 0.65466 0.6044 0.68163 0.0
H755 H 0.67973 0.59904 0.70146 0.0
H756 H 0.64562 0.56857 0.69081 0.0
H757 H 0.70156 0.53556 0.67306 0.0
H758 H 0.73177 0.62392 0.68026 0.0
H759 H 0.74882 0.53337 0.72402 0.0
H760 H 0.76403 0.5385 0.68932 0.0
H761 H 0.72522 0.51476 0.69525 0.0
H762 H 0.77705 0.65668 0.69907 0.0
H763 H 0.80369 0.64672 0.70063 0.0
H764 H 0.78144 0.64072 0.73102 0.0
H765 H 0.82175 0.59743 0.87459 0.0
H766 H 0.88576 0.60846 0.79894 0.0
H767 H 0.88274 0.60752 0.74856 0.0
H768 H 0.81022 0.59401 0.68137 0.0
H769 H 0.74776 0.58647 0.75692 0.0
H770 H 0.75094 0.58776 0.80718 0.0
H771 H 0.98789 0.61594 0.66729 0.0
H772 H 0.9706 0.63419 0.6779 0.0
H773 H 0.98175 0.63717 0.64162 0.0
C774 C 0.13793 0.70698 0.45465 0.0
C775 C 0.12044 0.68752 0.43077 0.0
C776 C 0.1562 0.71334 0.39175 0.0
C777 C 0.15096 0.73533 0.38674 0.0
C778 C 0.1694 0.75906 0.3686 0.0
C779 C 0.19383 0.76111 0.35554 0.0
C780 C 0.19907 0.73894 0.36048 0.0
C781 C 0.17987 0.71514 0.37815 0.0
C782 C 0.16286 0.78206 0.36352 0.0
C783 C 0.2252 0.74054 0.34747 0.0
C784 C 0.31897 0.9536 0.43063 0.0
C785 C 0.33084 0.9348 0.42458 0.0
C786 C 0.31466 0.91023 0.38127 0.0
C787 C 0.3226 0.89122 0.37397 0.0
C788 C 0.30351 0.86698 0.35896 0.0
C789 C 0.27608 0.86204 0.35081 0.0
C790 C 0.26823 0.88155 0.3579 0.0
C791 C 0.28767 0.90548 0.37309 0.0
C792 C 0.31256 0.84662 0.35186 0.0
C793 C 0.23931 0.87711 0.34935 0.0
C794 C 0.32411 0.90883 0.16697 0.0
C795 C 0.33048 0.88926 0.17891 0.0
C796 C 0.30914 0.86476 0.19454 0.0
C797 C 0.28093 0.85984 0.19831 0.0
C798 C 0.27421 0.87906 0.18544 0.0
C799 C 0.29586 0.90316 0.16962 0.0
C800 C 0.31676 0.84422 0.20718 0.0
C801 C 0.24429 0.87432 0.18872 0.0
C802 C 0.08604 0.67458 0.16308 0.0
C803 C 0.11172 0.68476 0.14236 0.0
C804 C 0.15509 0.71341 0.17127 0.0
C805 C 0.17925 0.71469 0.18343 0.0
C806 C 0.19949 0.73813 0.19875 0.0
C807 C 0.19514 0.76071 0.20241 0.0
C808 C 0.17067 0.75956 0.1903 0.0
C809 C 0.15107 0.73611 0.17466 0.0
C810 C 0.22559 0.73885 0.21094 0.0
C811 C 0.16527 0.7832 0.19384 0.0
C812 C 0.2144 0.7868 0.33742 0.0
C813 C 0.23485 0.81161 0.35071 0.0
C814 C 0.25546 0.83635 0.33514 0.0
C815 C 0.25613 0.83631 0.30539 0.0
C816 C 0.27686 0.86061 0.28906 0.0
C817 C 0.27765 0.86024 0.25983 0.0
C818 C 0.25769 0.83557 0.24577 0.0
C819 C 0.25862 0.83488 0.2161 0.0
C820 C 0.23814 0.81016 0.20277 0.0
C821 C 0.21652 0.78591 0.21824 0.0
C822 C 0.21541 0.78612 0.24797 0.0
C823 C 0.19398 0.76218 0.26425 0.0
C824 C 0.19344 0.76241 0.29351 0.0
C825 C 0.21428 0.78661 0.30766 0.0
C826 C 0.23552 0.81131 0.29163 0.0
C827 C 0.23621 0.811 0.26177 0.0
C828 C 0.37759 0.9785 0.1704 0.0
C829 C 0.37336 0.951 0.15974 0.0
O830 O 0.1393 0.6902 0.40956 0.0
O831 O 0.13636 0.68996 0.1567 0.0
O832 O 0.34447 0.93302 0.15231 0.0
O833 O 0.33336 0.93343 0.39579 0.0
H834 H 0.10529 0.69349 0.42206 0.0
H835 H 0.15059 0.72968 0.44682 0.0
H836 H 0.15339 0.7014 0.46333 0.0
H837 H 0.12309 0.70484 0.47188 0.0
H838 H 0.13256 0.73418 0.39682 0.0
H839 H 0.1837 0.69806 0.38203 0.0
H840 H 0.17971 0.8017 0.37368 0.0
H841 H 0.14109 0.77561 0.37217 0.0
H842 H 0.16371 0.78742 0.3406 0.0
H843 H 0.22812 0.72333 0.35612 0.0
H844 H 0.24538 0.76152 0.35109 0.0
H845 H 0.22247 0.73857 0.32438 0.0
H846 H 0.31478 0.91303 0.434 0.0
H847 H 0.31917 0.95655 0.4536 0.0
H848 H 0.29606 0.94317 0.42364 0.0
H849 H 0.33198 0.97484 0.41935 0.0
H850 H 0.34367 0.89528 0.38032 0.0
H851 H 0.28194 0.9206 0.37847 0.0
H852 H 0.313 0.84533 0.32865 0.0
H853 H 0.2963 0.82488 0.36082 0.0
H854 H 0.33443 0.85325 0.36005 0.0
H855 H 0.23673 0.89457 0.35589 0.0
H856 H 0.22123 0.85654 0.35899 0.0
H857 H 0.23725 0.87579 0.32614 0.0
H858 H 0.37906 0.94117 0.17746 0.0
H859 H 0.35198 0.8929 0.17577 0.0
H860 H 0.29105 0.91815 0.15984 0.0
H861 H 0.31603 0.84428 0.2305 0.0
H862 H 0.33884 0.84983 0.20042 0.0
H863 H 0.30043 0.82218 0.20109 0.0
H864 H 0.24309 0.89216 0.17883 0.0
H865 H 0.23824 0.87185 0.2114 0.0
H866 H 0.22794 0.85427 0.17883 0.0
H867 H 0.11649 0.70477 0.13096 0.0
H868 H 0.06622 0.66991 0.15146 0.0
H869 H 0.08122 0.65499 0.17541 0.0
H870 H 0.09102 0.6912 0.17812 0.0
H871 H 0.18232 0.69721 0.1807 0.0
H872 H 0.13269 0.73579 0.16534 0.0
H873 H 0.22457 0.73867 0.23426 0.0
H874 H 0.24599 0.7589 0.20363 0.0
H875 H 0.22672 0.72039 0.20493 0.0
H876 H 0.14388 0.77794 0.18541 0.0
H877 H 0.1828 0.80304 0.18263 0.0
H878 H 0.16597 0.78763 0.21646 0.0
H879 H 0.23476 0.81164 0.37353 0.0
H880 H 0.29283 0.88017 0.2987 0.0
H881 H 0.29418 0.87956 0.24841 0.0
H882 H 0.23897 0.80984 0.18001 0.0
H883 H 0.17747 0.74292 0.25454 0.0
H884 H 0.17651 0.74333 0.30494 0.0
H885 H 0.40064 0.99323 0.17645 0.0
H886 H 0.36335 0.97339 0.18925 0.0
H887 H 0.37183 0.98947 0.15401 0.0
C888 C 0.38699 0.06526 0.6262 0.0
C889 C 0.41449 0.09167 0.61283 0.0
C890 C 0.43201 0.12923 0.64741 0.0
C891 C 0.45671 0.14854 0.66215 0.0
C892 C 0.4575 0.17016 0.67705 0.0
C893 C 0.43232 0.17162 0.67842 0.0
C894 C 0.40697 0.15179 0.66401 0.0
C895 C 0.40732 0.13131 0.64803 0.0
C896 C 0.48548 0.19179 0.69081 0.0
C897 C 0.37948 0.15223 0.66553 0.0
C898 C 0.42144 0.34929 0.63967 0.0
C899 C 0.43704 0.34442 0.61591 0.0
C900 C 0.45243 0.31468 0.64038 0.0
C901 C 0.42435 0.28985 0.6441 0.0
C902 C 0.42009 0.26579 0.65968 0.0
C903 C 0.44438 0.26637 0.67144 0.0
C904 C 0.47277 0.29082 0.66675 0.0
C905 C 0.47637 0.31471 0.65138 0.0
C906 C 0.38953 0.23992 0.66409 0.0
C907 C 0.49923 0.29196 0.67853 0.0
C908 C 0.45171 0.31631 0.85197 0.0
C909 C 0.42293 0.29425 0.84646 0.0
C910 C 0.41736 0.27012 0.83244 0.0
C911 C 0.44097 0.26807 0.82368 0.0
C912 C 0.46992 0.29028 0.82915 0.0
C913 C 0.47487 0.31409 0.84323 0.0
C914 C 0.38624 0.24681 0.82695 0.0
C915 C 0.49565 0.28886 0.8201 0.0
C916 C 0.3828 0.05203 0.8652 0.0
C917 C 0.41222 0.0793 0.87039 0.0
C918 C 0.4128 0.12312 0.86492 0.0
C919 C 0.39043 0.1282 0.86136 0.0
C920 C 0.3947 0.1515 0.84431 0.0
C921 C 0.42239 0.17061 0.83134 0.0
C922 C 0.44558 0.16634 0.8362 0.0
C923 C 0.44039 0.14236 0.85268 0.0
C924 C 0.36952 0.15544 0.83986 0.0
C925 C 0.47576 0.18696 0.82389 0.0
C926 C 0.43313 0.19493 0.69348 0.0
C927 C 0.43764 0.21869 0.6773 0.0
C928 C 0.43989 0.24198 0.68989 0.0
C929 C 0.43805 0.24199 0.71954 0.0
C930 C 0.44064 0.26529 0.73288 0.0
C931 C 0.43973 0.26554 0.76208 0.0
C932 C 0.43582 0.24234 0.77911 0.0
C933 C 0.43553 0.2427 0.80884 0.0
C934 C 0.43112 0.21906 0.82514 0.0
C935 C 0.42698 0.1949 0.8126 0.0
C936 C 0.42752 0.19429 0.78286 0.0
C937 C 0.42346 0.1704 0.76944 0.0
C938 C 0.42514 0.17047 0.7402 0.0
C939 C 0.43059 0.19428 0.7232 0.0
C940 C 0.43355 0.21812 0.73626 0.0
C941 C 0.43222 0.21821 0.7661 0.0
C942 C 0.45194 0.37033 0.89529 0.0
C943 C 0.43839 0.34585 0.87633 0.0
O944 O 0.43301 0.10891 0.63344 0.0
O945 O 0.40733 0.0995 0.88023 0.0
O946 O 0.45816 0.33988 0.86574 0.0
O947 O 0.4575 0.3391 0.62683 0.0
H948 H 0.40795 0.10407 0.59923 0.0
H949 H 0.37422 0.07125 0.6388 0.0
H950 H 0.39287 0.05269 0.64035 0.0
H951 H 0.37264 0.05141 0.60948 0.0
H952 H 0.47575 0.147 0.66139 0.0
H953 H 0.38816 0.11699 0.63636 0.0
H954 H 0.49187 0.21373 0.68359 0.0
H955 H 0.50373 0.18899 0.68597 0.0
H956 H 0.48208 0.18984 0.71399 0.0
H957 H 0.36055 0.1332 0.65634 0.0
H958 H 0.38306 0.17167 0.65391 0.0
H959 H 0.37404 0.1531 0.68779 0.0
H960 H 0.4207 0.32585 0.60403 0.0
H961 H 0.40926 0.32997 0.65398 0.0
H962 H 0.40553 0.35415 0.63073 0.0
H963 H 0.43744 0.36734 0.65231 0.0
H964 H 0.40554 0.28912 0.63536 0.0
H965 H 0.49797 0.3338 0.64822 0.0
H966 H 0.3881 0.22118 0.65503 0.0
H967 H 0.37281 0.24307 0.65419 0.0
H968 H 0.38439 0.23486 0.68699 0.0
H969 H 0.51997 0.31126 0.67054 0.0
H970 H 0.49907 0.27267 0.67307 0.0
H971 H 0.49857 0.29208 0.70185 0.0
H972 H 0.42411 0.3466 0.85977 0.0
H973 H 0.40476 0.29568 0.85306 0.0
H974 H 0.49697 0.33117 0.84756 0.0
H975 H 0.3834 0.2433 0.80404 0.0
H976 H 0.37028 0.2519 0.83437 0.0
H977 H 0.38127 0.2265 0.83779 0.0
H978 H 0.51678 0.30751 0.82662 0.0
H979 H 0.49603 0.28801 0.79683 0.0
H980 H 0.49343 0.26903 0.8293 0.0
H981 H 0.42434 0.08701 0.84982 0.0
H982 H 0.3861 0.03559 0.85689 0.0
H983 H 0.37055 0.05674 0.84944 0.0
H984 H 0.36951 0.04335 0.88501 0.0
H985 H 0.36931 0.1133 0.87127 0.0
H986 H 0.45785 0.13866 0.85619 0.0
H987 H 0.36664 0.15806 0.817 0.0
H988 H 0.37435 0.17516 0.8498 0.0
H989 H 0.3487 0.13715 0.84906 0.0
H990 H 0.49226 0.18312 0.8332 0.0
H991 H 0.48253 0.20931 0.82735 0.0
H992 H 0.4756 0.18464 0.80083 0.0
H993 H 0.43959 0.21914 0.65455 0.0
H994 H 0.4437 0.28379 0.72091 0.0
H995 H 0.44215 0.28418 0.77114 0.0
H996 H 0.43109 0.21953 0.84793 0.0
H997 H 0.41923 0.15146 0.78141 0.0
H998 H 0.42216 0.15162 0.73105 0.0
H999 H 0.44972 0.38729 0.88396 0.0
H1000 H 0.47629 0.38201 0.89174 0.0
H1001 H 0.43175 0.35141 0.93427 0.0
C1002 C 0.08346 0.48608 0.08853 0.0
C1003 C 0.07326 0.4737 0.06254 0.0
C1004 C 0.0947 0.475 0.10811 0.0
C1005 C 0.09622 0.45121 0.10231 0.0
H1006 H 0.08175 0.50381 0.09411 0.0
H1007 H 0.10144 0.48461 0.1283 0.0
S1008 S 0.07253 0.41161 0.03666 0.0
N1009 N 0.06557 0.43697 0.03154 0.0
N1010 N 0.0869 0.41604 0.06822 0.0
C1011 C 0.08669 0.43914 0.07594 0.0
C1012 C 0.0752 0.45045 0.05606 0.0
C1013 C 0.60959 0.05584 0.57504 0.0
C1014 C 0.58269 0.05374 0.57707 0.0
C1015 C 0.63037 0.06819 0.59612 0.0
C1016 C 0.62502 0.07897 0.61998 0.0
H1017 H 0.61416 0.04705 0.55743 0.0
H1018 H 0.65046 0.06863 0.59409 0.0
S1019 S 0.55717 0.07725 0.63541 0.0
N1020 N 0.55132 0.06258 0.60467 0.0
N1021 N 0.59025 0.08583 0.64452 0.0
C1022 C 0.59807 0.07689 0.62212 0.0
C1023 C 0.57696 0.0643 0.60061 0.0
C1024 C 0.58204 0.63126 0.084 0.0
C1025 C 0.55844 0.60349 0.0913 0.0
C1026 C 0.59421 0.65238 0.10395 0.0
C1027 C 0.583 0.64653 0.13181 0.0
H1028 H 0.59202 0.63629 0.06316 0.0
H1029 H 0.6132 0.67312 0.09786 0.0
S1030 S 0.5194 0.57782 0.16041 0.0
N1031 N 0.52283 0.57186 0.12742 0.0
N1032 N 0.54569 0.6113 0.16491 0.0
C1033 C 0.55854 0.61915 0.13886 0.0
C1034 C 0.54624 0.59774 0.11861 0.0
C1035 C 0.95306 0.54149 0.62056 0.0
C1036 C 0.9582 0.55081 0.59199 0.0
C1037 C 0.94668 0.55543 0.64025 0.0
C1038 C 0.94513 0.57926 0.63216 0.0
H1039 H 0.95482 0.52374 0.62791 0.0
H1040 H 0.94388 0.54807 0.66218 0.0
S1041 S 0.95648 0.61185 0.55968 0.0
N1042 N 0.96085 0.58492 0.55635 0.0
N1043 N 0.94885 0.61127 0.59336 0.0
C1044 C 0.94942 0.58831 0.60345 0.0
C1045 C 0.95584 0.57399 0.58335 0.0
C1046 C 0.44015 0.96675 0.11673 0.0
C1047 C 0.43524 0.97484 0.08992 0.0
C1048 C 0.41975 0.95842 0.13881 0.0
C1049 C 0.39367 0.95774 0.13476 0.0
H1050 H 0.46011 0.96729 0.12072 0.0
H1051 H 0.42465 0.95288 0.15933 0.0
S1052 S 0.37109 0.97734 0.06809 0.0
N1053 N 0.40295 0.98192 0.06023 0.0
N1054 N 0.36438 0.96618 0.10161 0.0
C1055 C 0.38855 0.96567 0.10781 0.0
C1056 C 0.40938 0.97418 0.08541 0.0
C1057 C 0.49148 0.42087 0.58696 0.0
C1058 C 0.47868 0.42235 0.56176 0.0
C1059 C 0.47843 0.39549 0.60387 0.0
C1060 C 0.45219 0.37077 0.59606 0.0
H1061 H 0.51132 0.43959 0.59386 0.0
H1062 H 0.48859 0.39534 0.62352 0.0
S1063 S 0.41012 0.3645 0.5319 0.0
N1064 N 0.43867 0.39766 0.52964 0.0
N1065 N 0.41387 0.34993 0.56138 0.0
C1066 C 0.43937 0.3722 0.5707 0.0
C1067 C 0.45273 0.39798 0.55353 0.0
C1068 C 0.54391 0.89639 0.45649 0.0
C1069 C 0.56744 0.93427 0.46254 0.0
C1070 C 0.55918 0.87664 0.44413 0.0
C1071 C 0.59856 0.89939 0.43278 0.0
H1072 H 0.52063 0.88547 0.46033 0.0
H1073 H 0.54531 0.85467 0.43847 0.0
S1074 S 0.65739 0.98443 0.45045 0.0
N1075 N 0.62606 0.9809 0.46131 0.0
N1076 N 0.6523 0.95345 0.44022 0.0
C1077 C 0.62368 0.93549 0.44607 0.0
C1078 C 0.60667 0.95295 0.45826 0.0
C1079 C 0.62301 0.53064 0.95629 0.0
C1080 C 0.61359 0.54689 0.96858 0.0
C1081 C 0.65119 0.54368 0.94446 0.0
C1082 C 0.67069 0.57361 0.94375 0.0
H1083 H 0.60853 0.50764 0.95605 0.0
H1084 H 0.65765 0.53016 0.93585 0.0
S1085 S 0.65639 0.62538 0.97403 0.0
N1086 N 0.62591 0.59403 0.9804 0.0
N1087 N 0.67852 0.61885 0.95722 0.0
C1088 C 0.66136 0.58998 0.95612 0.0
C1089 C 0.63289 0.5766 0.96863 0.0
C1090 C 0.09577 0.60998 0.45223 0.0
C1091 C 0.06934 0.59983 0.46685 0.0
C1092 C 0.11212 0.63804 0.44055 0.0
C1093 C 0.10216 0.65672 0.44239 0.0
H1094 H 0.10394 0.59616 0.45003 0.0
H1095 H 0.1327 0.64507 0.43006 0.0
S1096 S 0.03441 0.64019 0.47927 0.0
N1097 N 0.03431 0.61049 0.4835 0.0
N1098 N 0.0643 0.6629 0.46065 0.0
C1099 C 0.07566 0.64661 0.45706 0.0
C1100 C 0.05938 0.61826 0.46939 0.0
C1101 C 0.43806 0.0633 0.94012 0.0
C1102 C 0.45668 0.05473 0.9311 0.0
C1103 C 0.42439 0.07191 0.92061 0.0
C1104 C 0.42935 0.07285 0.89141 0.0
H1105 H 0.43328 0.06242 0.96236 0.0
H1106 H 0.40938 0.07732 0.92844 0.0
S1107 S 0.47742 0.05383 0.85724 0.0
N1108 N 0.48023 0.04865 0.89129 0.0
N1109 N 0.45467 0.06488 0.85463 0.0
C1110 C 0.44843 0.06487 0.88226 0.0
C1111 C 0.46212 0.0559 0.90208 0.0
C1112 C 0.39813 0.42177 0.40762 0.0
C1113 C 0.41735 0.46006 0.41241 0.0
C1114 C 0.36919 0.40518 0.38229 0.0
C1115 C 0.35738 0.42886 0.36686 0.0
H1116 H 0.40387 0.40865 0.4198 0.0
H1117 H 0.35602 0.38223 0.38093 0.0
S1118 S 0.40185 0.51747 0.36938 0.0
N1119 N 0.42141 0.51106 0.39278 0.0
N1120 N 0.37621 0.4877 0.35392 0.0
C1121 C 0.38161 0.46848 0.36537 0.0
C1122 C 0.4096 0.48289 0.39076 0.0
C1123 C 0.93301 0.38909 0.92656 0.0
C1124 C 0.96233 0.40249 0.93459 0.0
C1125 C 0.91896 0.36297 0.9135 0.0
C1126 C 0.9338 0.34934 0.90749 0.0
H1127 H 0.92066 0.39872 0.93069 0.0
H1128 H 0.89613 0.35316 0.90851 0.0
S1129 S 0.01037 0.37478 0.92543 0.0
N1130 N 0.00543 0.39961 0.93656 0.0
N1131 N 0.9792 0.35081 0.91142 0.0
C1132 C 0.96316 0.36256 0.91533 0.0
C1133 C 0.97742 0.38909 0.92884 0.0
C1134 C 0.94745 0.54176 0.94639 0.0
C1135 C 0.97514 0.55823 0.95818 0.0
C1136 C 0.93203 0.55421 0.93718 0.0
C1137 C 0.94382 0.58366 0.93917 0.0
H1138 H 0.93713 0.51887 0.94545 0.0
H1139 H 0.91022 0.54044 0.92934 0.0
S1140 S 0.01824 0.63674 0.96353 0.0
N1141 N 0.01526 0.60569 0.96861 0.0
N1142 N 0.98719 0.62957 0.94956 0.0
C1143 C 0.97274 0.60074 0.9485 0.0
C1144 C 0.98814 0.58788 0.95852 0.0
C1145 C 0.38951 0.9394 0.47329 0.0
C1146 C 0.41604 0.96252 0.46142 0.0
C1147 C 0.36248 0.93082 0.46144 0.0
C1148 C 0.36031 0.94587 0.43805 0.0
H1149 H 0.38896 0.92751 0.49206 0.0
H1150 H 0.34307 0.91208 0.47067 0.0
S1151 S 0.41989 0.01662 0.40904 0.0
N1152 N 0.43583 0.00695 0.43259 0.0
N1153 N 0.38549 0.98982 0.40889 0.0
C1154 C 0.38572 0.97162 0.42884 0.0
C1155 C 0.41333 0.98048 0.44115 0.0
C1156 C 0.42271 0.38021 0.9252 0.0
C1157 C 0.45798 0.39194 0.94061 0.0
C1158 C 0.40284 0.34692 0.90743 0.0
C1159 C 0.42408 0.32997 0.90137 0.0
H1160 H 0.41324 0.39293 0.92691 0.0
H1161 H 0.38302 0.34083 0.89629 0.0
S1162 S 0.50137 0.3491 0.94005 0.0
N1163 N 0.49944 0.37669 0.95032 0.0
N1164 N 0.4719 0.32567 0.92193 0.0
C1165 C 0.45567 0.33719 0.9233 0.0
C1166 C 0.47347 0.37012 0.94025 0.0
C1167 C 0.0945 0.46601 0.4317 0.0
C1168 C 0.06391 0.45206 0.43347 0.0
C1169 C 0.10785 0.45376 0.4186 0.0
C1170 C 0.09122 0.42716 0.40636 0.0
H1171 H 0.10834 0.48632 0.4412 0.0
H1172 H 0.13145 0.46491 0.41878 0.0
S1173 S 0.01042 0.383 0.40279 0.0
N1174 N 0.01731 0.41075 0.4205 0.0
N1175 N 0.04256 0.38834 0.39469 0.0
C1176 C 0.06065 0.41374 0.40643 0.0
C1177 C 0.04697 0.42605 0.4202 0.0
C1178 C 0.62024 0.04256 0.9546 0.0
C1179 C 0.59419 0.03981 0.94568 0.0
C1180 C 0.64363 0.05178 0.93561 0.0
C1181 C 0.64182 0.0588 0.90712 0.0
H1182 H 0.62249 0.03757 0.9764 0.0
H1183 H 0.66332 0.05354 0.9433 0.0
S1184 S 0.57758 0.05438 0.87361 0.0
N1185 N 0.56741 0.04425 0.90693 0.0
N1186 N 0.6112 0.06151 0.871 0.0
C1187 C 0.61555 0.05574 0.89802 0.0
C1188 C 0.59181 0.04634 0.91738 0.0
C1189 C 0.55759 0.62095 0.44629 0.0
C1190 C 0.5722 0.61111 0.46292 0.0
C1191 C 0.57177 0.64949 0.43635 0.0
C1192 C 0.60132 0.66928 0.44209 0.0
H1193 H 0.53471 0.60664 0.44171 0.0
H1194 H 0.55919 0.65629 0.42464 0.0
S1195 S 0.65078 0.65181 0.47935 0.0
N1196 N 0.61843 0.62172 0.48161 0.0
N1197 N 0.64595 0.67507 0.46138 0.0
C1198 C 0.61691 0.65882 0.45641 0.0
C1199 C 0.60212 0.6298 0.4672 0.0
C1200 C 0.45756 0.05816 0.59342 0.0
C1201 C 0.4553 0.05679 0.56396 0.0
C1202 C 0.44542 0.0704 0.6087 0.0
C1203 C 0.43046 0.08183 0.5952 0.0
H1204 H 0.46852 0.04935 0.60486 0.0
H1205 H 0.4471 0.07026 0.63142 0.0
S1206 S 0.41904 0.08418 0.51829 0.0
N1207 N 0.43754 0.06847 0.52172 0.0
N1208 N 0.41462 0.09147 0.55045 0.0
C1209 C 0.42861 0.08119 0.56565 0.0
C1210 C 0.44113 0.06879 0.55004 0.0
C1211 C 0.4053 0.48567 0.06816 0.0
C1212 C 0.41584 0.46112 0.05844 0.0
C1213 C 0.36912 0.47226 0.08259 0.0
C1214 C 0.34733 0.43291 0.09192 0.0
H1215 H 0.42059 0.50844 0.06504 0.0
H1216 H 0.36319 0.48652 0.09028 0.0
S1217 S 0.36389 0.37264 0.06448 0.0
N1218 N 0.39552 0.40287 0.05418 0.0
N1219 N 0.33974 0.37911 0.07864 0.0
C1220 C 0.35454 0.40769 0.07523 0.0
C1221 C 0.39038 0.42294 0.06117 0.0
C1222 C 0.96495 0.38017 0.55174 0.0
C1223 C 0.94934 0.40181 0.55457 0.0
C1224 C 0.94441 0.34284 0.56377 0.0
C1225 C 0.91004 0.33126 0.58402 0.0
H1226 H 0.98657 0.38955 0.54258 0.0
H1227 H 0.9543 0.33035 0.56435 0.0
S1228 S 0.86706 0.3748 0.58645 0.0
N1229 N 0.89884 0.40063 0.57082 0.0
N1230 N 0.86521 0.34367 0.59192 0.0
C1231 C 0.89062 0.35041 0.58002 0.0
C1232 C 0.91253 0.38673 0.56772 0.0
C1233 C 0.57651 0.93242 0.07775 0.0
C1234 C 0.57867 0.96426 0.08938 0.0
C1235 C 0.59541 0.91806 0.09643 0.0
C1236 C 0.6112 0.93457 0.13063 0.0
H1237 H 0.56411 0.92196 0.05942 0.0
H1238 H 0.59269 0.8981 0.09098 0.0
S1239 S 0.62396 0.01035 0.15846 0.0
N1240 N 0.60364 0.00641 0.12997 0.0
N1241 N 0.63236 0.98525 0.16171 0.0
C1242 C 0.62058 0.97103 0.13827 0.0
C1243 C 0.60126 0.98358 0.11863 0.0
C1244 C 0.61932 0.54109 0.60559 0.0
C1245 C 0.61245 0.55941 0.59135 0.0
C1246 C 0.64047 0.55109 0.62653 0.0
C1247 C 0.65615 0.58001 0.63342 0.0
H1248 H 0.60779 0.51874 0.60091 0.0
H1249 H 0.64442 0.53597 0.63743 0.0
S1250 S 0.64626 0.63651 0.60178 0.0
N1251 N 0.62262 0.60753 0.58542 0.0
N1252 N 0.66291 0.62662 0.62428 0.0
C1253 C 0.64944 0.59848 0.61911 0.0
C1254 C 0.62756 0.58815 0.59816 0.0
C1255 C 0.09023 0.6136 0.1116 0.0
C1256 C 0.08215 0.61621 0.084 0.0
C1257 C 0.10084 0.63612 0.12981 0.0
C1258 C 0.10349 0.66203 0.1212 0.0
H1259 H 0.088 0.59385 0.11927 0.0
H1260 H 0.1063 0.63299 0.15106 0.0
S1261 S 0.08473 0.67926 0.05099 0.0
N1262 N 0.0775 0.64653 0.04881 0.0
N1263 N 0.09697 0.68876 0.08306 0.0
C1264 C 0.09571 0.66493 0.09349 0.0
C1265 C 0.08523 0.64209 0.07488 0.0
loop_
_geom_bond_atom_site_label_1
_geom_bond_atom_site_label_2
_geom_bond_distance
_geom_bond_site_symmetry_2
_ccdc_geom_bond_type
C0 C1 1.443 . S
C0 N4 1.376 1_556 S
C0 C38 1.389 . S
C1 C0 1.443 . S
C1 C2 1.340 1_556 S
C1 H41 0.951 . S
C2 C1 1.340 1_554 S
C2 C3 1.439 . S
C2 H42 0.950 . S
C3 C2 1.439 . S
C3 N4 1.374 . S
C3 C37 1.395 . S
N4 C0 1.376 1_554 S
N4 C3 1.374 . S
N4 Co5 2.010 1_655 S
Co5 N4 2.010 1_455 S
Co5 N6 2.026 . S
Co5 N11 2.007 1_554 S
Co5 N16 1.964 1_554 S
Co5 N21 2.308 . S
Co5 N27 2.258 1_554 S
N6 Co5 2.026 . S
N6 C7 1.376 1_455 S
N6 C10 1.383 . S
C7 N6 1.376 1_655 S
C7 C8 1.446 . S
C7 C37 1.391 . S
C8 C7 1.446 . S
C8 C9 1.339 1_655 S
C8 H43 0.949 . S
C9 C8 1.339 1_455 S
C9 C10 1.439 . S
C9 H44 0.950 . S
C10 N6 1.383 . S
C10 C9 1.439 . S
C10 C39 1.392 . S
N11 Co5 2.007 1_556 S
N11 C12 1.365 1_556 S
N11 C15 1.384 . S
C12 N11 1.365 1_554 S
C12 C13 1.443 . S
C12 C39 1.389 . S
C13 C12 1.443 . S
C13 C14 1.340 1_554 S
C13 H45 0.951 . S
C14 C13 1.340 1_556 S
C14 C15 1.439 . S
C14 H46 0.950 . S
C15 N11 1.384 . S
C15 C14 1.439 . S
C15 C40 1.395 . S
N16 Co5 1.964 1_556 S
N16 C17 1.376 . S
N16 C20 1.383 . S
C17 N16 1.376 . S
C17 C18 1.446 . S
C17 C40 1.391 . S
C18 C17 1.446 . S
C18 C19 1.339 . S
C18 H47 0.949 . S
C19 C18 1.339 . S
C19 C20 1.439 . S
C19 H48 0.950 . S
C20 N16 1.383 . S
C20 C19 1.439 . S
C20 C38 1.392 1_455 S
N21 Co5 2.308 . S
N21 C24 1.332 . S
N21 C26 1.332 . S
C22 C23 1.386 . S
C22 C25 1.388 . S
C23 C22 1.386 . S
C23 C24 1.382 . S
C23 H49 0.950 . S
C24 N21 1.332 . S
C24 C23 1.382 . S
C24 H35 0.952 . S
C25 C22 1.388 . S
C25 C26 1.382 . S
C25 H50 0.950 . S
C26 N21 1.332 . S
C26 C25 1.382 . S
C26 H36 0.948 . S
N27 Co5 2.258 1_556 S
N27 C31 1.332 1_455 S
N27 C32 1.332 . S
C28 C29 1.388 . S
C28 C32 1.382 1_655 S
C28 H51 0.950 1_655 S
C29 C28 1.388 . S
C29 C30 1.386 . S
C30 C29 1.386 . S
C30 C31 1.382 . S
C30 H52 0.950 . S
C31 N27 1.332 1_655 S
C31 C30 1.382 . S
C31 H33 0.966 . S
C32 N27 1.332 . S
C32 C28 1.382 1_455 S
C32 H34 0.948 . S
H33 C31 0.966 . S
H34 C32 0.948 . S
H35 C24 0.952 . S
H36 C26 0.948 . S
C37 C3 1.395 . S
C37 C7 1.391 . S
C38 C0 1.389 . S
C38 C20 1.392 1_655 S
C39 C10 1.392 . S
C39 C12 1.389 . S
C40 C15 1.395 . S
C40 C17 1.391 . S
H41 C1 0.951 . S
H42 C2 0.950 . S
H43 C8 0.949 . S
H44 C9 0.950 . S
H45 C13 0.951 . S
H46 C14 0.950 . S
H47 C18 0.949 . S
H48 C19 0.950 . S
H49 C23 0.950 . S
H50 C25 0.950 . S
H51 C28 0.950 1_455 S
H52 C30 0.950 . S
C53 C54 1.443 . S
C53 N57 1.376 1_545 S
C53 C91 1.389 . S
C54 C53 1.443 . S
C54 C55 1.340 1_545 S
C54 H94 0.951 . S
C55 C54 1.340 1_565 S
C55 C56 1.439 . S
C55 H95 0.950 . S
C56 C55 1.439 . S
C56 N57 1.374 . S
C56 C90 1.395 . S
N57 C53 1.376 1_565 S
N57 C56 1.374 . S
N57 Co58 2.008 1_565 S
Co58 N57 2.008 1_545 S
Co58 N59 1.995 1_545 S
Co58 N64 2.008 . S
Co58 N69 1.995 . S
Co58 N74 2.282 1_545 S
Co58 N80 2.282 . S
N59 Co58 1.995 1_565 S
N59 C60 1.376 . S
N59 C63 1.383 . S
C60 N59 1.376 . S
C60 C61 1.446 . S
C60 C90 1.391 . S
C61 C60 1.446 . S
C61 C62 1.339 . S
C61 H96 0.949 . S
C62 C61 1.339 . S
C62 C63 1.439 . S
C62 H97 0.950 . S
C63 N59 1.383 . S
C63 C62 1.439 . S
C63 C92 1.392 . S
N64 Co58 2.008 . S
N64 C65 1.376 1_545 S
N64 C68 1.374 . S
C65 N64 1.376 1_565 S
C65 C66 1.443 1_565 S
C65 C92 1.389 . S
C66 C65 1.443 1_545 S
C66 C67 1.340 . S
C66 H98 0.953 . S
C67 C66 1.340 . S
C67 C68 1.439 . S
C67 H99 0.950 . S
C68 N64 1.374 . S
C68 C67 1.439 . S
C68 C93 1.395 . S
N69 Co58 1.995 . S
N69 C70 1.376 . S
N69 C73 1.383 . S
C70 N69 1.376 . S
C70 C71 1.446 . S
C70 C93 1.391 . S
C71 C70 1.446 . S
C71 C72 1.339 . S
C71 H100 0.949 . S
C72 C71 1.339 . S
C72 C73 1.439 . S
C72 H101 0.950 . S
C73 N69 1.383 . S
C73 C72 1.439 . S
C73 C91 1.392 . S
N74 Co58 2.282 1_565 S
N74 C77 1.332 . S
N74 C79 1.332 . S
C75 C76 1.386 . S
C75 C78 1.388 . S
C76 C75 1.386 . S
C76 C77 1.382 . S
C76 H102 0.950 . S
C77 N74 1.332 . S
C77 C76 1.382 . S
C77 H88 0.952 1_565 S
C78 C75 1.388 . S
C78 C79 1.382 . S
C78 H103 0.950 . S
C79 N74 1.332 . S
C79 C78 1.382 . S
C79 H89 0.948 . S
N80 Co58 2.282 . S
N80 C84 1.332 . S
N80 C85 1.332 . S
C81 C82 1.388 . S
C81 C85 1.382 . S
C81 H104 0.950 . S
C82 C81 1.388 . S
C82 C83 1.386 . S
C83 C82 1.386 . S
C83 C84 1.382 . S
C83 H105 0.950 . S
C84 N80 1.332 . S
C84 C83 1.382 . S
C84 H86 0.952 1_545 S
C85 N80 1.332 . S
C85 C81 1.382 . S
C85 H87 0.948 . S
H86 C84 0.952 1_565 S
H87 C85 0.948 . S
H88 C77 0.952 1_545 S
H89 C79 0.948 . S
C90 C56 1.395 . S
C90 C60 1.391 . S
C91 C53 1.389 . S
C91 C73 1.392 . S
C92 C63 1.392 . S
C92 C65 1.389 . S
C93 C68 1.395 . S
C93 C70 1.391 . S
H94 C54 0.951 . S
H95 C55 0.950 . S
H96 C61 0.949 . S
H97 C62 0.950 . S
H98 C66 0.953 . S
H99 C67 0.950 . S
H100 C71 0.949 . S
H101 C72 0.950 . S
H102 C76 0.950 . S
H103 C78 0.950 . S
H104 C81 0.950 . S
H105 C83 0.950 . S
C106 C107 1.443 . S
C106 N110 1.376 . S
C106 C144 1.389 . S
C107 C106 1.443 . S
C107 C108 1.340 . S
C107 H147 0.951 . S
C108 C107 1.340 . S
C108 C109 1.439 . S
C108 H148 0.950 . S
C109 C108 1.439 . S
C109 N110 1.374 . S
C109 C143 1.395 . S
N110 C106 1.376 . S
N110 C109 1.374 . S
N110 Co111 2.008 1_556 S
Co111 N110 2.008 1_554 S
Co111 N112 1.995 . S
Co111 N117 2.008 . S
Co111 N122 1.995 . S
Co111 N127 2.282 . S
Co111 N133 2.282 1_554 S
N112 Co111 1.995 . S
N112 C113 1.376 1_554 S
N112 C116 1.383 . S
C113 N112 1.376 1_556 S
C113 C114 1.446 . S
C113 C143 1.391 . S
C114 C113 1.446 . S
C114 C115 1.339 1_556 S
C114 H149 0.949 . S
C115 C114 1.339 1_554 S
C115 C116 1.439 . S
C115 H150 0.950 . S
C116 N112 1.383 . S
C116 C115 1.439 . S
C116 C145 1.392 . S
N117 Co111 2.008 . S
N117 C118 1.376 . S
N117 C121 1.374 . S
C118 N117 1.376 . S
C118 C119 1.443 . S
C118 C145 1.389 . S
C119 C118 1.443 . S
C119 C120 1.340 . S
C119 H151 0.951 . S
C120 C119 1.340 . S
C120 C121 1.439 . S
C120 H152 0.950 . S
C121 N117 1.374 . S
C121 C120 1.439 . S
C121 C146 1.395 . S
N122 Co111 1.995 . S
N122 C123 1.376 . S
N122 C126 1.383 1_554 S
C123 N122 1.376 . S
C123 C124 1.446 . S
C123 C146 1.391 . S
C124 C123 1.446 . S
C124 C125 1.339 . S
C124 H153 0.949 . S
C125 C124 1.339 . S
C125 C126 1.439 1_554 S
C125 H154 0.950 1_554 S
C126 N122 1.383 1_556 S
C126 C125 1.439 1_556 S
C126 C144 1.392 . S
N127 Co111 2.282 . S
N127 C130 1.332 . S
N127 C132 1.332 . S
C128 C129 1.386 . S
C128 C131 1.388 . S
C129 C128 1.386 . S
C129 C130 1.382 . S
C129 H155 0.950 . S
C130 N127 1.332 . S
C130 C129 1.382 . S
C130 H141 0.952 . S
C131 C128 1.388 . S
C131 C132 1.382 . S
C131 H156 0.950 . S
C132 N127 1.332 . S
C132 C131 1.382 . S
C132 H142 0.948 . S
N133 Co111 2.282 1_556 S
N133 C137 1.332 . S
N133 C138 1.332 . S
C134 C135 1.388 . S
C134 C138 1.382 . S
C134 H157 0.950 . S
C135 C134 1.388 . S
C135 C136 1.386 . S
C136 C135 1.386 . S
C136 C137 1.382 . S
C136 H158 0.950 . S
C137 N133 1.332 . S
C137 C136 1.382 . S
C137 H139 0.952 . S
C138 N133 1.332 . S
C138 C134 1.382 . S
C138 H140 0.948 1_556 S
H139 C137 0.952 . S
H140 C138 0.948 1_554 S
H141 C130 0.952 . S
H142 C132 0.948 . S
C143 C109 1.395 . S
C143 C113 1.391 . S
C144 C106 1.389 . S
C144 C126 1.392 . S
C145 C116 1.392 . S
C145 C118 1.389 . S
C146 C121 1.395 . S
C146 C123 1.391 . S
H147 C107 0.951 . S
H148 C108 0.950 . S
H149 C114 0.949 . S
H150 C115 0.950 . S
H151 C119 0.951 . S
H152 C120 0.950 . S
H153 C124 0.949 . S
H154 C125 0.950 1_556 S
H155 C129 0.950 . S
H156 C131 0.950 . S
H157 C134 0.950 . S
H158 C136 0.950 . S
C159 C160 1.443 . S
C159 N163 1.376 . S
C159 C197 1.389 . S
C160 C159 1.443 . S
C160 C161 1.340 . S
C160 H200 0.951 . S
C161 C160 1.340 . S
C161 C162 1.439 . S
C161 H201 0.950 . S
C162 C161 1.439 . S
C162 N163 1.374 . S
C162 C196 1.395 . S
N163 C159 1.376 . S
N163 C162 1.374 . S
N163 Co164 2.008 1_655 S
Co164 N163 2.008 1_455 S
Co164 N165 1.995 1_455 S
Co164 N170 2.008 . S
Co164 N175 1.995 . S
Co164 N180 2.282 . S
Co164 N186 2.282 1_455 S
N165 Co164 1.995 1_655 S
N165 C166 1.376 . S
N165 C169 1.383 1_655 S
C166 N165 1.376 . S
C166 C167 1.446 . S
C166 C196 1.391 . S
C167 C166 1.446 . S
C167 C168 1.327 1_655 S
C167 H202 0.949 . S
C168 C167 1.327 1_455 S
C168 C169 1.449 . S
C168 H203 0.951 . S
C169 N165 1.383 1_455 S
C169 C168 1.449 . S
C169 C198 1.392 . S
N170 Co164 2.008 . S
N170 C171 1.376 . S
N170 C174 1.374 . S
C171 N170 1.376 . S
C171 C172 1.443 . S
C171 C198 1.389 . S
C172 C171 1.443 . S
C172 C173 1.340 . S
C172 H204 0.951 . S
C173 C172 1.340 . S
C173 C174 1.439 . S
C173 H205 0.950 . S
C174 N170 1.374 . S
C174 C173 1.439 . S
C174 C199 1.395 . S
N175 Co164 1.995 . S
N175 C176 1.376 . S
N175 C179 1.383 1_455 S
C176 N175 1.376 . S
C176 C177 1.446 . S
C176 C199 1.391 . S
C177 C176 1.446 . S
C177 C178 1.339 . S
C177 H206 0.949 . S
C178 C177 1.339 . S
C178 C179 1.439 1_455 S
C178 H207 0.950 1_455 S
C179 N175 1.383 1_655 S
C179 C178 1.439 1_655 S
C179 C197 1.392 . S
N180 Co164 2.282 . S
N180 C183 1.332 . S
N180 C185 1.332 . S
C181 C182 1.386 . S
C181 C184 1.388 . S
C182 C181 1.386 . S
C182 C183 1.382 . S
C182 H208 0.950 . S
C183 N180 1.332 . S
C183 C182 1.382 . S
C183 H194 0.952 . S
C184 C181 1.388 . S
C184 C185 1.382 . S
C184 H209 0.950 . S
C185 N180 1.332 . S
C185 C184 1.382 . S
C185 H195 0.948 1_455 S
N186 Co164 2.282 1_655 S
N186 C190 1.332 . S
N186 C191 1.332 . S
C187 C188 1.388 . S
C187 C191 1.382 . S
C187 H210 0.950 . S
C188 C187 1.388 . S
C188 C189 1.386 . S
C189 C188 1.386 . S
C189 C190 1.382 . S
C189 H211 0.950 . S
C190 N186 1.332 . S
C190 C189 1.382 . S
C190 H192 0.952 . S
C191 N186 1.332 . S
C191 C187 1.382 . S
C191 H193 0.948 1_655 S
H192 C190 0.952 . S
H193 C191 0.948 1_455 S
H194 C183 0.952 . S
H195 C185 0.948 1_655 S
C196 C162 1.395 . S
C196 C166 1.391 . S
C197 C159 1.389 . S
C197 C179 1.392 . S
C198 C169 1.392 . S
C198 C171 1.389 . S
C199 C174 1.395 . S
C199 C176 1.391 . S
H200 C160 0.951 . S
H201 C161 0.950 . S
H202 C167 0.949 . S
H203 C168 0.951 . S
H204 C172 0.951 . S
H205 C173 0.950 . S
H206 C177 0.949 . S
H207 C178 0.950 1_655 S
H208 C182 0.950 . S
H209 C184 0.950 . S
H210 C187 0.950 . S
H211 C189 0.950 . S
C212 C213 1.443 1_565 S
C212 N216 1.376 1_565 S
C212 C250 1.389 . S
C213 C212 1.443 1_545 S
C213 C214 1.340 . S
C213 H253 0.951 . S
C214 C213 1.340 . S
C214 C215 1.439 . S
C214 H254 0.950 . S
C215 C214 1.439 . S
C215 N216 1.374 . S
C215 C249 1.395 . S
N216 C212 1.376 1_545 S
N216 C215 1.374 . S
N216 Co217 2.008 . S
Co217 N216 2.008 . S
Co217 N218 1.995 . S
Co217 N223 1.992 1_544 S
Co217 N228 1.995 1_545 S
Co217 N233 2.282 1_554 S
Co217 N239 2.282 1_545 S
N218 Co217 1.995 . S
N218 C219 1.376 . S
N218 C222 1.383 1_554 S
C219 N218 1.376 . S
C219 C220 1.446 . S
C219 C249 1.391 . S
C220 C219 1.446 . S
C220 C221 1.339 1_554 S
C220 H255 0.949 . S
C221 C220 1.339 1_556 S
C221 C222 1.439 . S
C221 H256 0.950 . S
C222 N218 1.383 1_556 S
C222 C221 1.439 . S
C222 C251 1.392 . S
N223 Co217 1.992 1_566 S
N223 C224 1.368 1_565 S
N223 C227 1.397 . S
C224 N223 1.368 1_545 S
C224 C225 1.443 . S
C224 C251 1.389 . S
C225 C224 1.443 . S
C225 C226 1.340 1_545 S
C225 H257 0.951 . S
C226 C225 1.340 1_565 S
C226 C227 1.439 . S
C226 H258 0.950 . S
C227 N223 1.397 . S
C227 C226 1.439 . S
C227 C252 1.395 . S
N228 Co217 1.995 1_565 S
N228 C229 1.376 1_554 S
N228 C232 1.383 . S
C229 N228 1.376 1_556 S
C229 C230 1.446 1_556 S
C229 C252 1.391 . S
C230 C229 1.446 1_554 S
C230 C231 1.339 . S
C230 H259 0.949 1_554 S
C231 C230 1.339 . S
C231 C232 1.439 . S
C231 H260 0.950 . S
C232 N228 1.383 . S
C232 C231 1.439 . S
C232 C250 1.392 . S
N233 Co217 2.282 1_556 S
N233 C236 1.332 . S
N233 C238 1.332 . S
C234 C235 1.386 . S
C234 C237 1.388 . S
C235 C234 1.386 . S
C235 C236 1.382 . S
C235 H261 0.950 . S
C236 N233 1.332 . S
C236 C235 1.382 . S
C236 H247 0.952 1_545 S
C237 C234 1.388 . S
C237 C238 1.382 . S
C237 H262 0.950 . S
C238 N233 1.332 . S
C238 C237 1.382 . S
C238 H248 0.931 1_556 S
N239 Co217 2.282 1_565 S
N239 C243 1.332 . S
N239 C244 1.332 . S
C240 C241 1.388 . S
C240 C244 1.382 . S
C240 H263 0.950 . S
C241 C240 1.388 . S
C241 C242 1.386 . S
C242 C241 1.386 . S
C242 C243 1.382 . S
C242 H264 0.950 . S
C243 N239 1.332 . S
C243 C242 1.382 . S
C243 H245 0.952 1_565 S
C244 N239 1.332 . S
C244 C240 1.382 . S
C244 H246 0.948 . S
H245 C243 0.952 1_545 S
H246 C244 0.948 . S
H247 C236 0.952 1_565 S
H248 C238 0.931 1_554 S
C249 C215 1.395 . S
C249 C219 1.391 . S
C250 C212 1.389 . S
C250 C232 1.392 . S
C251 C222 1.392 . S
C251 C224 1.389 . S
C252 C227 1.395 . S
C252 C229 1.391 . S
H253 C213 0.951 . S
H254 C214 0.950 . S
H255 C220 0.949 . S
H256 C221 0.950 . S
H257 C225 0.951 . S
H258 C226 0.950 . S
H259 C230 0.949 1_556 S
H260 C231 0.950 . S
H261 C235 0.950 . S
H262 C237 0.950 . S
H263 C240 0.950 . S
H264 C242 0.950 . S
C265 C266 1.443 . S
C265 N269 1.376 . S
C265 C303 1.389 . S
C266 C265 1.443 . S
C266 C267 1.340 . S
C266 H306 0.951 . S
C267 C266 1.340 . S
C267 C268 1.439 . S
C267 H307 0.950 . S
C268 C267 1.439 . S
C268 N269 1.374 . S
C268 C302 1.395 . S
N269 C265 1.376 . S
N269 C268 1.374 . S
N269 Co270 2.008 . S
Co270 N269 2.008 . S
Co270 N271 1.995 . S
Co270 N276 2.008 . S
Co270 N281 1.995 . S
Co270 N286 2.282 . S
Co270 N292 2.282 . S
N271 Co270 1.995 . S
N271 C272 1.376 . S
N271 C275 1.383 . S
C272 N271 1.376 . S
C272 C273 1.446 . S
C272 C302 1.391 . S
C273 C272 1.446 . S
C273 C274 1.339 . S
C273 H308 0.949 . S
C274 C273 1.339 . S
C274 C275 1.439 . S
C274 H309 0.950 . S
C275 N271 1.383 . S
C275 C274 1.439 . S
C275 C304 1.392 . S
N276 Co270 2.008 . S
N276 C277 1.376 . S
N276 C280 1.374 . S
C277 N276 1.376 . S
C277 C278 1.443 . S
C277 C304 1.389 . S
C278 C277 1.443 . S
C278 C279 1.340 . S
C278 H310 0.951 . S
C279 C278 1.340 . S
C279 C280 1.439 . S
C279 H311 0.950 . S
C280 N276 1.374 . S
C280 C279 1.439 . S
C280 C305 1.395 . S
N281 Co270 1.995 . S
N281 C282 1.376 . S
N281 C285 1.383 . S
C282 N281 1.376 . S
C282 C283 1.446 . S
C282 C305 1.391 . S
C283 C282 1.446 . S
C283 C284 1.339 . S
C283 H312 0.949 . S
C284 C283 1.339 . S
C284 C285 1.439 . S
C284 H313 0.950 . S
C285 N281 1.383 . S
C285 C284 1.439 . S
C285 C303 1.392 . S
N286 Co270 2.282 . S
N286 C289 1.332 . S
N286 C291 1.332 . S
C287 C288 1.386 . S
C287 C290 1.388 . S
C288 C287 1.386 . S
C288 C289 1.382 . S
C288 H314 0.950 . S
C289 N286 1.332 . S
C289 C288 1.382 . S
C289 H300 0.952 . S
C290 C287 1.388 . S
C290 C291 1.382 . S
C290 H315 0.950 . S
C291 N286 1.332 . S
C291 C290 1.382 . S
C291 H301 0.948 . S
N292 Co270 2.282 . S
N292 C296 1.332 . S
N292 C297 1.332 . S
C293 C294 1.388 . S
C293 C297 1.382 . S
C293 H316 0.950 . S
C294 C293 1.388 . S
C294 C295 1.386 . S
C295 C294 1.386 . S
C295 C296 1.382 . S
C295 H317 0.950 . S
C296 N292 1.332 . S
C296 C295 1.382 . S
C296 H298 0.952 . S
C297 N292 1.332 . S
C297 C293 1.382 . S
C297 H299 0.948 . S
H298 C296 0.952 . S
H299 C297 0.948 . S
H300 C289 0.952 . S
H301 C291 0.948 . S
C302 C268 1.395 . S
C302 C272 1.391 . S
C303 C265 1.389 . S
C303 C285 1.392 . S
C304 C275 1.392 . S
C304 C277 1.389 . S
C305 C280 1.395 . S
C305 C282 1.391 . S
H306 C266 0.951 . S
H307 C267 0.950 . S
H308 C273 0.949 . S
H309 C274 0.950 . S
H310 C278 0.951 . S
H311 C279 0.950 . S
H312 C283 0.949 . S
H313 C284 0.950 . S
H314 C288 0.950 . S
H315 C290 0.950 . S
H316 C293 0.950 . S
H317 C295 0.950 . S
C318 C319 1.560 . S
C318 H379 0.959 . S
C318 H380 0.959 . S
C318 H381 0.960 . S
C319 C318 1.560 . S
C319 O374 1.426 . S
C319 H378 0.980 . S
C320 C321 1.407 . S
C320 C325 1.418 . S
C320 O374 1.334 . S
C321 C320 1.407 . S
C321 C322 1.360 . S
C321 H382 0.929 . S
C322 C321 1.360 . S
C322 C323 1.401 . S
C322 C326 1.527 . S
C323 C322 1.401 . S
C323 C324 1.405 . S
C323 C356 1.587 . S
C324 C323 1.405 . S
C324 C325 1.332 . S
C324 C327 1.496 . S
C325 C320 1.418 . S
C325 C324 1.332 . S
C325 H383 0.929 . S
C326 C322 1.527 . S
C326 H384 0.959 . S
C326 H385 0.961 . S
C326 H386 0.961 . S
C327 C324 1.496 . S
C327 H387 0.960 . S
C327 H388 0.960 . S
C327 H389 0.961 . S
C328 C329 1.517 . S
C328 H391 0.961 . S
C328 H392 0.960 . S
C328 H393 0.959 . S
C329 C328 1.517 . S
C329 O377 1.468 . S
C329 H390 0.980 . S
C330 C331 1.349 . S
C330 C335 1.367 . S
C330 O377 1.408 . S
C331 C330 1.349 . S
C331 C332 1.407 . S
C331 H394 0.930 . S
C332 C331 1.407 . S
C332 C333 1.449 . S
C332 C336 1.535 . S
C333 C332 1.449 . S
C333 C334 1.384 . S
C333 C358 1.553 . S
C334 C333 1.384 . S
C334 C335 1.364 . S
C334 C337 1.450 . S
C335 C330 1.367 . S
C335 C334 1.364 . S
C335 H395 0.931 . S
C336 C332 1.535 . S
C336 H396 0.959 . S
C336 H397 0.961 . S
C336 H398 0.959 . S
C337 C334 1.450 . S
C337 H399 0.960 . S
C337 H400 0.960 . S
C337 H401 0.960 . S
C338 C339 1.309 . S
C338 C343 1.304 . S
C338 O376 1.435 . S
C339 C338 1.309 . S
C339 C340 1.476 . S
C339 H403 0.930 . S
C340 C339 1.476 . S
C340 C341 1.400 . S
C340 C344 1.567 . S
C341 C340 1.400 . S
C341 C342 1.373 . S
C341 C363 1.432 . S
C342 C341 1.373 . S
C342 C343 1.339 . S
C342 C345 1.530 . S
C343 C338 1.304 . S
C343 C342 1.339 . S
C343 H404 0.930 . S
C344 C340 1.567 . S
C344 H405 0.961 . S
C344 H406 0.960 . S
C344 H407 0.958 . S
C345 C342 1.530 . S
C345 H408 0.961 . S
C345 H409 0.960 . S
C345 H410 0.960 . S
C346 C347 1.530 . S
C346 H412 0.961 . S
C346 H413 0.961 . S
C346 H414 0.959 . S
C347 C346 1.530 . S
C347 O375 1.412 . S
C347 H411 0.980 . S
C348 C349 1.288 . S
C348 C353 1.377 . S
C348 O375 1.393 . S
C349 C348 1.288 . S
C349 C350 1.369 . S
C349 H415 0.932 . S
C350 C349 1.369 . S
C350 C351 1.398 . S
C350 C354 1.527 . S
C351 C350 1.398 . S
C351 C352 1.380 . S
C351 C365 1.497 . S
C352 C351 1.380 . S
C352 C353 1.383 . S
C352 C355 1.603 . S
C353 C348 1.377 . S
C353 C352 1.383 . S
C353 H416 0.929 . S
C354 C350 1.527 . S
C354 H417 0.961 . S
C354 H418 0.959 . S
C354 H419 0.959 . S
C355 C352 1.603 . S
C355 H420 0.960 . S
C355 H421 0.962 . S
C355 H422 0.961 . S
C356 C323 1.587 . S
C356 C357 1.360 . S
C356 C369 1.412 . S
C357 C356 1.360 . S
C357 C358 1.365 . S
C357 H423 0.929 . S
C358 C333 1.553 . S
C358 C357 1.365 . S
C358 C359 1.404 . S
C359 C358 1.404 . S
C359 C360 1.395 . S
C359 C370 1.451 . S
C360 C359 1.395 . S
C360 C361 1.322 . S
C360 H424 0.930 . S
C361 C360 1.322 . S
C361 C362 1.459 . S
C361 H425 0.929 . S
C362 C361 1.459 . S
C362 C363 1.445 . S
C362 C371 1.395 . S
C363 C341 1.432 . S
C363 C362 1.445 . S
C363 C364 1.370 . S
C364 C363 1.370 . S
C364 C365 1.438 . S
C364 H426 0.930 . S
C365 C351 1.497 . S
C365 C364 1.438 . S
C365 C366 1.360 . S
C366 C365 1.360 . S
C366 C367 1.401 . S
C366 C371 1.446 . S
C367 C366 1.401 . S
C367 C368 1.347 . S
C367 H427 0.929 . S
C368 C367 1.347 . S
C368 C369 1.455 . S
C368 H428 0.930 . S
C369 C356 1.412 . S
C369 C368 1.455 . S
C369 C370 1.331 . S
C370 C359 1.451 . S
C370 C369 1.331 . S
C370 C371 1.497 . S
C371 C362 1.395 . S
C371 C366 1.446 . S
C371 C370 1.497 . S
C372 C373 1.582 . S
C372 H429 0.962 . S
C372 H430 0.959 . S
C372 H431 0.958 . S
C373 C372 1.582 . S
C373 O376 1.458 . S
C373 H402 0.980 . S
O374 C319 1.426 . S
O374 C320 1.334 . S
O375 C347 1.412 . S
O375 C348 1.393 . S
O376 C338 1.435 . S
O376 C373 1.458 . S
O377 C329 1.468 . S
O377 C330 1.408 . S
H378 C319 0.980 . S
H379 C318 0.959 . S
H380 C318 0.959 . S
H381 C318 0.960 . S
H382 C321 0.929 . S
H383 C325 0.929 . S
H384 C326 0.959 . S
H385 C326 0.961 . S
H386 C326 0.961 . S
H387 C327 0.960 . S
H388 C327 0.960 . S
H389 C327 0.961 . S
H390 C329 0.980 . S
H391 C328 0.961 . S
H392 C328 0.960 . S
H393 C328 0.959 . S
H394 C331 0.930 . S
H395 C335 0.931 . S
H396 C336 0.959 . S
H397 C336 0.961 . S
H398 C336 0.959 . S
H399 C337 0.960 . S
H400 C337 0.960 . S
H401 C337 0.960 . S
H402 C373 0.980 . S
H403 C339 0.930 . S
H404 C343 0.930 . S
H405 C344 0.961 . S
H406 C344 0.960 . S
H407 C344 0.958 . S
H408 C345 0.961 . S
H409 C345 0.960 . S
H410 C345 0.960 . S
H411 C347 0.980 . S
H412 C346 0.961 . S
H413 C346 0.961 . S
H414 C346 0.959 . S
H415 C349 0.932 . S
H416 C353 0.929 . S
H417 C354 0.961 . S
H418 C354 0.959 . S
H419 C354 0.959 . S
H420 C355 0.960 . S
H421 C355 0.962 . S
H422 C355 0.961 . S
H423 C357 0.929 . S
H424 C360 0.930 . S
H425 C361 0.929 . S
H426 C364 0.930 . S
H427 C367 0.929 . S
H428 C368 0.930 . S
H429 C372 0.962 . S
H430 C372 0.959 . S
H431 C372 0.958 . S
C432 C433 1.560 . S
C432 H493 0.959 . S
C432 H494 0.959 . S
C432 H495 0.960 . S
C433 C432 1.560 . S
C433 O488 1.426 . S
C433 H492 0.980 . S
C434 C435 1.407 . S
C434 C439 1.418 . S
C434 O488 1.334 . S
C435 C434 1.407 . S
C435 C436 1.360 . S
C435 H496 0.929 . S
C436 C435 1.360 . S
C436 C437 1.401 . S
C436 C440 1.527 . S
C437 C436 1.401 . S
C437 C438 1.405 . S
C437 C470 1.587 . S
C438 C437 1.405 . S
C438 C439 1.332 . S
C438 C441 1.496 . S
C439 C434 1.418 . S
C439 C438 1.332 . S
C439 H497 0.929 . S
C440 C436 1.527 . S
C440 H498 0.959 . S
C440 H499 0.961 . S
C440 H500 0.961 . S
C441 C438 1.496 . S
C441 H501 0.960 . S
C441 H502 0.960 . S
C441 H503 0.961 . S
C442 C443 1.517 . S
C442 H505 0.961 . S
C442 H506 0.960 . S
C442 H507 0.959 . S
C443 C442 1.517 . S
C443 O491 1.468 . S
C443 H504 0.980 . S
C444 C445 1.349 . S
C444 C449 1.367 . S
C444 O491 1.408 . S
C445 C444 1.349 . S
C445 C446 1.407 . S
C445 H508 0.930 . S
C446 C445 1.407 . S
C446 C447 1.449 . S
C446 C450 1.535 . S
C447 C446 1.449 . S
C447 C448 1.384 . S
C447 C472 1.553 . S
C448 C447 1.384 . S
C448 C449 1.364 . S
C448 C451 1.450 . S
C449 C444 1.367 . S
C449 C448 1.364 . S
C449 H509 0.931 . S
C450 C446 1.535 . S
C450 H510 0.959 . S
C450 H511 0.961 . S
C450 H512 0.959 . S
C451 C448 1.450 . S
C451 H513 0.960 . S
C451 H514 0.960 . S
C451 H515 0.960 . S
C452 C453 1.309 . S
C452 C457 1.304 . S
C452 O490 1.435 . S
C453 C452 1.309 . S
C453 C454 1.476 . S
C453 H517 0.930 . S
C454 C453 1.476 . S
C454 C455 1.400 . S
C454 C458 1.567 . S
C455 C454 1.400 . S
C455 C456 1.373 . S
C455 C477 1.432 . S
C456 C455 1.373 . S
C456 C457 1.339 . S
C456 C459 1.530 . S
C457 C452 1.304 . S
C457 C456 1.339 . S
C457 H518 0.930 . S
C458 C454 1.567 . S
C458 H519 0.961 . S
C458 H520 0.960 . S
C458 H521 0.958 . S
C459 C456 1.530 . S
C459 H522 0.961 . S
C459 H523 0.960 . S
C459 H524 0.960 . S
C460 C461 1.530 . S
C460 H526 0.961 . S
C460 H527 0.961 . S
C460 H528 0.959 . S
C461 C460 1.530 . S
C461 O489 1.412 . S
C461 H525 0.980 . S
C462 C463 1.288 . S
C462 C467 1.377 . S
C462 O489 1.393 . S
C463 C462 1.288 . S
C463 C464 1.369 . S
C463 H529 0.932 . S
C464 C463 1.369 . S
C464 C465 1.398 . S
C464 C468 1.527 . S
C465 C464 1.398 . S
C465 C466 1.380 . S
C465 C479 1.497 . S
C466 C465 1.380 . S
C466 C467 1.383 . S
C466 C469 1.603 . S
C467 C462 1.377 . S
C467 C466 1.383 . S
C467 H530 0.929 . S
C468 C464 1.527 . S
C468 H531 0.961 . S
C468 H532 0.959 . S
C468 H533 0.959 . S
C469 C466 1.603 . S
C469 H534 0.960 . S
C469 H535 0.962 . S
C469 H536 0.961 . S
C470 C437 1.587 . S
C470 C471 1.360 . S
C470 C483 1.412 . S
C471 C470 1.360 . S
C471 C472 1.365 . S
C471 H537 0.929 . S
C472 C447 1.553 . S
C472 C471 1.365 . S
C472 C473 1.404 . S
C473 C472 1.404 . S
C473 C474 1.395 . S
C473 C484 1.451 . S
C474 C473 1.395 . S
C474 C475 1.322 . S
C474 H538 0.930 . S
C475 C474 1.322 . S
C475 C476 1.459 . S
C475 H539 0.929 . S
C476 C475 1.459 . S
C476 C477 1.445 . S
C476 C485 1.395 . S
C477 C455 1.432 . S
C477 C476 1.445 . S
C477 C478 1.370 . S
C478 C477 1.370 . S
C478 C479 1.438 . S
C478 H540 0.930 . S
C479 C465 1.497 . S
C479 C478 1.438 . S
C479 C480 1.360 . S
C480 C479 1.360 . S
C480 C481 1.401 . S
C480 C485 1.446 . S
C481 C480 1.401 . S
C481 C482 1.347 . S
C481 H541 0.929 . S
C482 C481 1.347 . S
C482 C483 1.455 . S
C482 H542 0.930 . S
C483 C470 1.412 . S
C483 C482 1.455 . S
C483 C484 1.331 . S
C484 C473 1.451 . S
C484 C483 1.331 . S
C484 C485 1.497 . S
C485 C476 1.395 . S
C485 C480 1.446 . S
C485 C484 1.497 . S
C486 C487 1.582 . S
C486 H543 0.962 . S
C486 H544 0.959 . S
C486 H545 0.958 . S
C487 C486 1.582 . S
C487 O490 1.458 . S
C487 H516 0.980 . S
O488 C433 1.426 . S
O488 C434 1.334 . S
O489 C461 1.412 . S
O489 C462 1.393 . S
O490 C452 1.435 . S
O490 C487 1.458 . S
O491 C443 1.468 . S
O491 C444 1.408 . S
H492 C433 0.980 . S
H493 C432 0.959 . S
H494 C432 0.959 . S
H495 C432 0.960 . S
H496 C435 0.929 . S
H497 C439 0.929 . S
H498 C440 0.959 . S
H499 C440 0.961 . S
H500 C440 0.961 . S
H501 C441 0.960 . S
H502 C441 0.960 . S
H503 C441 0.961 . S
H504 C443 0.980 . S
H505 C442 0.961 . S
H506 C442 0.960 . S
H507 C442 0.959 . S
H508 C445 0.930 . S
H509 C449 0.931 . S
H510 C450 0.959 . S
H511 C450 0.961 . S
H512 C450 0.959 . S
H513 C451 0.960 . S
H514 C451 0.960 . S
H515 C451 0.960 . S
H516 C487 0.980 . S
H517 C453 0.930 . S
H518 C457 0.930 . S
H519 C458 0.961 . S
H520 C458 0.960 . S
H521 C458 0.958 . S
H522 C459 0.961 . S
H523 C459 0.960 . S
H524 C459 0.960 . S
H525 C461 0.980 . S
H526 C460 0.961 . S
H527 C460 0.961 . S
H528 C460 0.959 . S
H529 C463 0.932 . S
H530 C467 0.929 . S
H531 C468 0.961 . S
H532 C468 0.959 . S
H533 C468 0.959 . S
H534 C469 0.960 . S
H535 C469 0.962 . S
H536 C469 0.961 . S
H537 C471 0.929 . S
H538 C474 0.930 . S
H539 C475 0.929 . S
H540 C478 0.930 . S
H541 C481 0.929 . S
H542 C482 0.930 . S
H543 C486 0.962 . S
H544 C486 0.959 . S
H545 C486 0.958 . S
C546 C547 1.560 . S
C546 H607 0.959 . S
C546 H608 0.959 . S
C546 H609 0.960 . S
C547 C546 1.560 . S
C547 O602 1.426 . S
C547 H606 0.980 . S
C548 C549 1.407 . S
C548 C553 1.418 . S
C548 O602 1.334 . S
C549 C548 1.407 . S
C549 C550 1.360 . S
C549 H610 0.929 . S
C550 C549 1.360 . S
C550 C551 1.401 . S
C550 C554 1.527 . S
C551 C550 1.401 . S
C551 C552 1.405 . S
C551 C584 1.587 . S
C552 C551 1.405 . S
C552 C553 1.332 . S
C552 C555 1.496 . S
C553 C548 1.418 . S
C553 C552 1.332 . S
C553 H611 0.929 . S
C554 C550 1.527 . S
C554 H612 0.959 . S
C554 H613 0.961 . S
C554 H614 0.961 . S
C555 C552 1.496 . S
C555 H615 0.960 . S
C555 H616 0.960 . S
C555 H617 0.961 . S
C556 C557 1.517 . S
C556 H619 0.961 . S
C556 H620 0.960 . S
C556 H621 0.959 . S
C557 C556 1.517 . S
C557 O605 1.468 . S
C557 H618 0.980 . S
C558 C559 1.349 . S
C558 C563 1.367 . S
C558 O605 1.408 . S
C559 C558 1.349 . S
C559 C560 1.407 . S
C559 H622 0.930 . S
C560 C559 1.407 . S
C560 C561 1.449 . S
C560 C564 1.535 . S
C561 C560 1.449 . S
C561 C562 1.384 . S
C561 C586 1.553 . S
C562 C561 1.384 . S
C562 C563 1.364 . S
C562 C565 1.450 . S
C563 C558 1.367 . S
C563 C562 1.364 . S
C563 H623 0.931 . S
C564 C560 1.535 . S
C564 H624 0.959 . S
C564 H625 0.961 . S
C564 H626 0.959 . S
C565 C562 1.450 . S
C565 H627 0.960 . S
C565 H628 0.960 . S
C565 H629 0.960 . S
C566 C567 1.309 . S
C566 C571 1.304 . S
C566 O604 1.435 . S
C567 C566 1.309 . S
C567 C568 1.476 . S
C567 H631 0.930 . S
C568 C567 1.476 . S
C568 C569 1.400 . S
C568 C572 1.567 . S
C569 C568 1.400 . S
C569 C570 1.373 . S
C569 C591 1.432 . S
C570 C569 1.373 . S
C570 C571 1.339 . S
C570 C573 1.530 . S
C571 C566 1.304 . S
C571 C570 1.339 . S
C571 H632 0.930 . S
C572 C568 1.567 . S
C572 H633 0.961 . S
C572 H634 0.960 . S
C572 H635 0.958 . S
C573 C570 1.530 . S
C573 H636 0.961 . S
C573 H637 0.960 . S
C573 H638 0.960 . S
C574 C575 1.530 . S
C574 H640 0.961 . S
C574 H641 0.961 . S
C574 H642 0.959 . S
C575 C574 1.530 . S
C575 O603 1.412 . S
C575 H639 0.980 . S
C576 C577 1.288 . S
C576 C581 1.377 . S
C576 O603 1.393 . S
C577 C576 1.288 . S
C577 C578 1.369 . S
C577 H643 0.932 . S
C578 C577 1.369 . S
C578 C579 1.398 . S
C578 C582 1.527 . S
C579 C578 1.398 . S
C579 C580 1.380 . S
C579 C593 1.497 . S
C580 C579 1.380 . S
C580 C581 1.383 . S
C580 C583 1.603 . S
C581 C576 1.377 . S
C581 C580 1.383 . S
C581 H644 0.929 . S
C582 C578 1.527 . S
C582 H645 0.961 . S
C582 H646 0.959 . S
C582 H647 0.959 . S
C583 C580 1.603 . S
C583 H648 0.960 . S
C583 H649 0.962 . S
C583 H650 0.961 . S
C584 C551 1.587 . S
C584 C585 1.360 . S
C584 C597 1.412 . S
C585 C584 1.360 . S
C585 C586 1.365 . S
C585 H651 0.929 . S
C586 C561 1.553 . S
C586 C585 1.365 . S
C586 C587 1.404 . S
C587 C586 1.404 . S
C587 C588 1.395 . S
C587 C598 1.451 . S
C588 C587 1.395 . S
C588 C589 1.322 . S
C588 H652 0.930 . S
C589 C588 1.322 . S
C589 C590 1.459 . S
C589 H653 0.929 . S
C590 C589 1.459 . S
C590 C591 1.445 . S
C590 C599 1.395 . S
C591 C569 1.432 . S
C591 C590 1.445 . S
C591 C592 1.370 . S
C592 C591 1.370 . S
C592 C593 1.438 . S
C592 H654 0.930 . S
C593 C579 1.497 . S
C593 C592 1.438 . S
C593 C594 1.360 . S
C594 C593 1.360 . S
C594 C595 1.401 . S
C594 C599 1.446 . S
C595 C594 1.401 . S
C595 C596 1.347 . S
C595 H655 0.929 . S
C596 C595 1.347 . S
C596 C597 1.455 . S
C596 H656 0.930 . S
C597 C584 1.412 . S
C597 C596 1.455 . S
C597 C598 1.331 . S
C598 C587 1.451 . S
C598 C597 1.331 . S
C598 C599 1.497 . S
C599 C590 1.395 . S
C599 C594 1.446 . S
C599 C598 1.497 . S
C600 C601 1.582 . S
C600 H657 0.962 . S
C600 H658 0.959 . S
C600 H659 0.958 . S
C601 C600 1.582 . S
C601 O604 1.458 . S
C601 H630 0.980 . S
O602 C547 1.426 . S
O602 C548 1.334 . S
O603 C575 1.412 . S
O603 C576 1.393 . S
O604 C566 1.435 . S
O604 C601 1.458 . S
O605 C557 1.468 . S
O605 C558 1.408 . S
H606 C547 0.980 . S
H607 C546 0.959 . S
H608 C546 0.959 . S
H609 C546 0.960 . S
H610 C549 0.929 . S
H611 C553 0.929 . S
H612 C554 0.959 . S
H613 C554 0.961 . S
H614 C554 0.961 . S
H615 C555 0.960 . S
H616 C555 0.960 . S
H617 C555 0.961 . S
H618 C557 0.980 . S
H619 C556 0.961 . S
H620 C556 0.960 . S
H621 C556 0.959 . S
H622 C559 0.930 . S
H623 C563 0.931 . S
H624 C564 0.959 . S
H625 C564 0.961 . S
H626 C564 0.959 . S
H627 C565 0.960 . S
H628 C565 0.960 . S
H629 C565 0.960 . S
H630 C601 0.980 . S
H631 C567 0.930 . S
H632 C571 0.930 . S
H633 C572 0.961 . S
H634 C572 0.960 . S
H635 C572 0.958 . S
H636 C573 0.961 . S
H637 C573 0.960 . S
H638 C573 0.960 . S
H639 C575 0.980 . S
H640 C574 0.961 . S
H641 C574 0.961 . S
H642 C574 0.959 . S
H643 C577 0.932 . S
H644 C581 0.929 . S
H645 C582 0.961 . S
H646 C582 0.959 . S
H647 C582 0.959 . S
H648 C583 0.960 . S
H649 C583 0.962 . S
H650 C583 0.961 . S
H651 C585 0.929 . S
H652 C588 0.930 . S
H653 C589 0.929 . S
H654 C592 0.930 . S
H655 C595 0.929 . S
H656 C596 0.930 . S
H657 C600 0.962 . S
H658 C600 0.959 . S
H659 C600 0.958 . S
C660 C661 1.560 . S
C660 H721 0.959 . S
C660 H722 0.959 . S
C660 H723 0.960 . S
C661 C660 1.560 . S
C661 O716 1.426 . S
C661 H720 0.980 . S
C662 C663 1.407 . S
C662 C667 1.418 . S
C662 O716 1.334 . S
C663 C662 1.407 . S
C663 C664 1.360 . S
C663 H724 0.929 . S
C664 C663 1.360 . S
C664 C665 1.401 . S
C664 C668 1.527 . S
C665 C664 1.401 . S
C665 C666 1.405 . S
C665 C698 1.587 . S
C666 C665 1.405 . S
C666 C667 1.332 . S
C666 C669 1.496 . S
C667 C662 1.418 . S
C667 C666 1.332 . S
C667 H725 0.929 . S
C668 C664 1.527 . S
C668 H726 0.959 . S
C668 H727 0.961 . S
C668 H728 0.961 . S
C669 C666 1.496 . S
C669 H729 0.960 . S
C669 H730 0.960 . S
C669 H731 0.961 . S
C670 C671 1.517 . S
C670 H733 0.961 . S
C670 H734 0.960 . S
C670 H735 0.959 . S
C671 C670 1.517 . S
C671 O719 1.468 . S
C671 H732 0.980 . S
C672 C673 1.349 . S
C672 C677 1.367 . S
C672 O719 1.408 . S
C673 C672 1.349 . S
C673 C674 1.407 . S
C673 H736 0.930 . S
C674 C673 1.407 . S
C674 C675 1.449 . S
C674 C678 1.535 . S
C675 C674 1.449 . S
C675 C676 1.384 . S
C675 C700 1.553 . S
C676 C675 1.384 . S
C676 C677 1.364 . S
C676 C679 1.450 . S
C677 C672 1.367 . S
C677 C676 1.364 . S
C677 H737 0.931 . S
C678 C674 1.535 . S
C678 H738 0.959 . S
C678 H739 0.961 . S
C678 H740 0.959 . S
C679 C676 1.450 . S
C679 H741 0.960 . S
C679 H742 0.960 . S
C679 H743 0.960 . S
C680 C681 1.309 . S
C680 C685 1.304 . S
C680 O718 1.435 . S
C681 C680 1.309 . S
C681 C682 1.476 . S
C681 H745 0.930 . S
C682 C681 1.476 . S
C682 C683 1.400 . S
C682 C686 1.567 . S
C683 C682 1.400 . S
C683 C684 1.373 . S
C683 C705 1.432 . S
C684 C683 1.373 . S
C684 C685 1.339 . S
C684 C687 1.530 . S
C685 C680 1.304 . S
C685 C684 1.339 . S
C685 H746 0.930 . S
C686 C682 1.567 . S
C686 H747 0.961 . S
C686 H748 0.960 . S
C686 H749 0.958 . S
C687 C684 1.530 . S
C687 H750 0.961 . S
C687 H751 0.960 . S
C687 H752 0.960 . S
C688 C689 1.530 . S
C688 H754 0.961 . S
C688 H755 0.961 . S
C688 H756 0.959 . S
C689 C688 1.530 . S
C689 O717 1.412 . S
C689 H753 0.980 . S
C690 C691 1.288 . S
C690 C695 1.377 . S
C690 O717 1.393 . S
C691 C690 1.288 . S
C691 C692 1.369 . S
C691 H757 0.932 . S
C692 C691 1.369 . S
C692 C693 1.398 . S
C692 C696 1.527 . S
C693 C692 1.398 . S
C693 C694 1.380 . S
C693 C707 1.497 . S
C694 C693 1.380 . S
C694 C695 1.383 . S
C694 C697 1.603 . S
C695 C690 1.377 . S
C695 C694 1.383 . S
C695 H758 0.929 . S
C696 C692 1.527 . S
C696 H759 0.961 . S
C696 H760 0.959 . S
C696 H761 0.959 . S
C697 C694 1.603 . S
C697 H762 0.960 . S
C697 H763 0.962 . S
C697 H764 0.961 . S
C698 C665 1.587 . S
C698 C699 1.360 . S
C698 C711 1.412 . S
C699 C698 1.360 . S
C699 C700 1.365 . S
C699 H765 0.929 . S
C700 C675 1.553 . S
C700 C699 1.365 . S
C700 C701 1.404 . S
C701 C700 1.404 . S
C701 C702 1.395 . S
C701 C712 1.451 . S
C702 C701 1.395 . S
C702 C703 1.322 . S
C702 H766 0.930 . S
C703 C702 1.322 . S
C703 C704 1.459 . S
C703 H767 0.929 . S
C704 C703 1.459 . S
C704 C705 1.445 . S
C704 C713 1.395 . S
C705 C683 1.432 . S
C705 C704 1.445 . S
C705 C706 1.370 . S
C706 C705 1.370 . S
C706 C707 1.438 . S
C706 H768 0.930 . S
C707 C693 1.497 . S
C707 C706 1.438 . S
C707 C708 1.360 . S
C708 C707 1.360 . S
C708 C709 1.401 . S
C708 C713 1.446 . S
C709 C708 1.401 . S
C709 C710 1.347 . S
C709 H769 0.929 . S
C710 C709 1.347 . S
C710 C711 1.455 . S
C710 H770 0.930 . S
C711 C698 1.412 . S
C711 C710 1.455 . S
C711 C712 1.331 . S
C712 C701 1.451 . S
C712 C711 1.331 . S
C712 C713 1.497 . S
C713 C704 1.395 . S
C713 C708 1.446 . S
C713 C712 1.497 . S
C714 C715 1.582 . S
C714 H771 0.962 . S
C714 H772 0.959 . S
C714 H773 0.958 . S
C715 C714 1.582 . S
C715 O718 1.458 . S
C715 H744 0.980 . S
O716 C661 1.426 . S
O716 C662 1.334 . S
O717 C689 1.412 . S
O717 C690 1.393 . S
O718 C680 1.435 . S
O718 C715 1.458 . S
O719 C671 1.468 . S
O719 C672 1.408 . S
H720 C661 0.980 . S
H721 C660 0.959 . S
H722 C660 0.959 . S
H723 C660 0.960 . S
H724 C663 0.929 . S
H725 C667 0.929 . S
H726 C668 0.959 . S
H727 C668 0.961 . S
H728 C668 0.961 . S
H729 C669 0.960 . S
H730 C669 0.960 . S
H731 C669 0.961 . S
H732 C671 0.980 . S
H733 C670 0.961 . S
H734 C670 0.960 . S
H735 C670 0.959 . S
H736 C673 0.930 . S
H737 C677 0.931 . S
H738 C678 0.959 . S
H739 C678 0.961 . S
H740 C678 0.959 . S
H741 C679 0.960 . S
H742 C679 0.960 . S
H743 C679 0.960 . S
H744 C715 0.980 . S
H745 C681 0.930 . S
H746 C685 0.930 . S
H747 C686 0.961 . S
H748 C686 0.960 . S
H749 C686 0.958 . S
H750 C687 0.961 . S
H751 C687 0.960 . S
H752 C687 0.960 . S
H753 C689 0.980 . S
H754 C688 0.961 . S
H755 C688 0.961 . S
H756 C688 0.959 . S
H757 C691 0.932 . S
H758 C695 0.929 . S
H759 C696 0.961 . S
H760 C696 0.959 . S
H761 C696 0.959 . S
H762 C697 0.960 . S
H763 C697 0.962 . S
H764 C697 0.961 . S
H765 C699 0.929 . S
H766 C702 0.930 . S
H767 C703 0.929 . S
H768 C706 0.930 . S
H769 C709 0.929 . S
H770 C710 0.930 . S
H771 C714 0.962 . S
H772 C714 0.959 . S
H773 C714 0.958 . S
C774 C775 1.560 . S
C774 H835 0.959 . S
C774 H836 0.959 . S
C774 H837 0.960 . S
C775 C774 1.560 . S
C775 O830 1.426 . S
C775 H834 0.980 . S
C776 C777 1.407 . S
C776 C781 1.418 . S
C776 O830 1.334 . S
C777 C776 1.407 . S
C777 C778 1.360 . S
C777 H838 0.929 . S
C778 C777 1.360 . S
C778 C779 1.401 . S
C778 C782 1.527 . S
C779 C778 1.401 . S
C779 C780 1.405 . S
C779 C812 1.587 . S
C780 C779 1.405 . S
C780 C781 1.332 . S
C780 C783 1.496 . S
C781 C776 1.418 . S
C781 C780 1.332 . S
C781 H839 0.929 . S
C782 C778 1.527 . S
C782 H840 0.959 . S
C782 H841 0.961 . S
C782 H842 0.961 . S
C783 C780 1.496 . S
C783 H843 0.960 . S
C783 H844 0.960 . S
C783 H845 0.961 . S
C784 C785 1.517 . S
C784 H847 0.961 . S
C784 H848 0.960 . S
C784 H849 0.959 . S
C785 C784 1.517 . S
C785 O833 1.468 . S
C785 H846 0.980 . S
C786 C787 1.349 . S
C786 C791 1.367 . S
C786 O833 1.408 . S
C787 C786 1.349 . S
C787 C788 1.407 . S
C787 H850 0.930 . S
C788 C787 1.407 . S
C788 C789 1.449 . S
C788 C792 1.535 . S
C789 C788 1.449 . S
C789 C790 1.384 . S
C789 C814 1.553 . S
C790 C789 1.384 . S
C790 C791 1.364 . S
C790 C793 1.450 . S
C791 C786 1.367 . S
C791 C790 1.364 . S
C791 H851 0.931 . S
C792 C788 1.535 . S
C792 H852 0.959 . S
C792 H853 0.961 . S
C792 H854 0.959 . S
C793 C790 1.450 . S
C793 H855 0.960 . S
C793 H856 0.960 . S
C793 H857 0.960 . S
C794 C795 1.309 . S
C794 C799 1.304 . S
C794 O832 1.435 . S
C795 C794 1.309 . S
C795 C796 1.476 . S
C795 H859 0.930 . S
C796 C795 1.476 . S
C796 C797 1.400 . S
C796 C800 1.567 . S
C797 C796 1.400 . S
C797 C798 1.373 . S
C797 C819 1.432 . S
C798 C797 1.373 . S
C798 C799 1.339 . S
C798 C801 1.530 . S
C799 C794 1.304 . S
C799 C798 1.339 . S
C799 H860 0.930 . S
C800 C796 1.567 . S
C800 H861 0.961 . S
C800 H862 0.960 . S
C800 H863 0.958 . S
C801 C798 1.530 . S
C801 H864 0.961 . S
C801 H865 0.960 . S
C801 H866 0.960 . S
C802 C803 1.530 . S
C802 H868 0.961 . S
C802 H869 0.961 . S
C802 H870 0.959 . S
C803 C802 1.530 . S
C803 O831 1.412 . S
C803 H867 0.980 . S
C804 C805 1.288 . S
C804 C809 1.377 . S
C804 O831 1.393 . S
C805 C804 1.288 . S
C805 C806 1.369 . S
C805 H871 0.932 . S
C806 C805 1.369 . S
C806 C807 1.398 . S
C806 C810 1.527 . S
C807 C806 1.398 . S
C807 C808 1.380 . S
C807 C821 1.497 . S
C808 C807 1.380 . S
C808 C809 1.383 . S
C808 C811 1.603 . S
C809 C804 1.377 . S
C809 C808 1.383 . S
C809 H872 0.929 . S
C810 C806 1.527 . S
C810 H873 0.961 . S
C810 H874 0.959 . S
C810 H875 0.959 . S
C811 C808 1.603 . S
C811 H876 0.960 . S
C811 H877 0.962 . S
C811 H878 0.961 . S
C812 C779 1.587 . S
C812 C813 1.360 . S
C812 C825 1.412 . S
C813 C812 1.360 . S
C813 C814 1.365 . S
C813 H879 0.929 . S
C814 C789 1.553 . S
C814 C813 1.365 . S
C814 C815 1.404 . S
C815 C814 1.404 . S
C815 C816 1.395 . S
C815 C826 1.451 . S
C816 C815 1.395 . S
C816 C817 1.322 . S
C816 H880 0.930 . S
C817 C816 1.322 . S
C817 C818 1.459 . S
C817 H881 0.929 . S
C818 C817 1.459 . S
C818 C819 1.445 . S
C818 C827 1.395 . S
C819 C797 1.432 . S
C819 C818 1.445 . S
C819 C820 1.370 . S
C820 C819 1.370 . S
C820 C821 1.438 . S
C820 H882 0.930 . S
C821 C807 1.497 . S
C821 C820 1.438 . S
C821 C822 1.360 . S
C822 C821 1.360 . S
C822 C823 1.401 . S
C822 C827 1.446 . S
C823 C822 1.401 . S
C823 C824 1.347 . S
C823 H883 0.929 . S
C824 C823 1.347 . S
C824 C825 1.455 . S
C824 H884 0.930 . S
C825 C812 1.412 . S
C825 C824 1.455 . S
C825 C826 1.331 . S
C826 C815 1.451 . S
C826 C825 1.331 . S
C826 C827 1.497 . S
C827 C818 1.395 . S
C827 C822 1.446 . S
C827 C826 1.497 . S
C828 C829 1.582 . S
C828 H885 0.962 . S
C828 H886 0.959 . S
C828 H887 0.958 . S
C829 C828 1.582 . S
C829 O832 1.458 . S
C829 H858 0.980 . S
O830 C775 1.426 . S
O830 C776 1.334 . S
O831 C803 1.412 . S
O831 C804 1.393 . S
O832 C794 1.435 . S
O832 C829 1.458 . S
O833 C785 1.468 . S
O833 C786 1.408 . S
H834 C775 0.980 . S
H835 C774 0.959 . S
H836 C774 0.959 . S
H837 C774 0.960 . S
H838 C777 0.929 . S
H839 C781 0.929 . S
H840 C782 0.959 . S
H841 C782 0.961 . S
H842 C782 0.961 . S
H843 C783 0.960 . S
H844 C783 0.960 . S
H845 C783 0.961 . S
H846 C785 0.980 . S
H847 C784 0.961 . S
H848 C784 0.960 . S
H849 C784 0.959 . S
H850 C787 0.930 . S
H851 C791 0.931 . S
H852 C792 0.959 . S
H853 C792 0.961 . S
H854 C792 0.959 . S
H855 C793 0.960 . S
H856 C793 0.960 . S
H857 C793 0.960 . S
H858 C829 0.980 . S
H859 C795 0.930 . S
H860 C799 0.930 . S
H861 C800 0.961 . S
H862 C800 0.960 . S
H863 C800 0.958 . S
H864 C801 0.961 . S
H865 C801 0.960 . S
H866 C801 0.960 . S
H867 C803 0.980 . S
H868 C802 0.961 . S
H869 C802 0.961 . S
H870 C802 0.959 . S
H871 C805 0.932 . S
H872 C809 0.929 . S
H873 C810 0.961 . S
H874 C810 0.959 . S
H875 C810 0.959 . S
H876 C811 0.960 . S
H877 C811 0.962 . S
H878 C811 0.961 . S
H879 C813 0.929 . S
H880 C816 0.930 . S
H881 C817 0.929 . S
H882 C820 0.930 . S
H883 C823 0.929 . S
H884 C824 0.930 . S
H885 C828 0.962 . S
H886 C828 0.959 . S
H887 C828 0.958 . S
C888 C889 1.560 . S
C888 H949 0.959 . S
C888 H950 0.959 . S
C888 H951 0.960 . S
C889 C888 1.560 . S
C889 O944 1.426 . S
C889 H948 0.980 . S
C890 C891 1.407 . S
C890 C895 1.418 . S
C890 O944 1.334 . S
C891 C890 1.407 . S
C891 C892 1.360 . S
C891 H952 0.929 . S
C892 C891 1.360 . S
C892 C893 1.401 . S
C892 C896 1.527 . S
C893 C892 1.401 . S
C893 C894 1.405 . S
C893 C926 1.587 . S
C894 C893 1.405 . S
C894 C895 1.332 . S
C894 C897 1.496 . S
C895 C890 1.418 . S
C895 C894 1.332 . S
C895 H953 0.929 . S
C896 C892 1.527 . S
C896 H954 0.959 . S
C896 H955 0.961 . S
C896 H956 0.961 . S
C897 C894 1.496 . S
C897 H957 0.960 . S
C897 H958 0.960 . S
C897 H959 0.961 . S
C898 C899 1.517 . S
C898 H961 0.961 . S
C898 H962 0.960 . S
C898 H963 0.959 . S
C899 C898 1.517 . S
C899 O947 1.468 . S
C899 H960 0.980 . S
C900 C901 1.349 . S
C900 C905 1.367 . S
C900 O947 1.408 . S
C901 C900 1.349 . S
C901 C902 1.407 . S
C901 H964 0.930 . S
C902 C901 1.407 . S
C902 C903 1.449 . S
C902 C906 1.535 . S
C903 C902 1.449 . S
C903 C904 1.384 . S
C903 C928 1.553 . S
C904 C903 1.384 . S
C904 C905 1.364 . S
C904 C907 1.450 . S
C905 C900 1.367 . S
C905 C904 1.364 . S
C905 H965 0.931 . S
C906 C902 1.535 . S
C906 H966 0.959 . S
C906 H967 0.961 . S
C906 H968 0.959 . S
C907 C904 1.450 . S
C907 H969 0.960 . S
C907 H970 0.960 . S
C907 H971 0.960 . S
C908 C909 1.309 . S
C908 C913 1.304 . S
C908 O946 1.435 . S
C909 C908 1.309 . S
C909 C910 1.476 . S
C909 H973 0.930 . S
C910 C909 1.476 . S
C910 C911 1.400 . S
C910 C914 1.567 . S
C911 C910 1.400 . S
C911 C912 1.373 . S
C911 C933 1.432 . S
C912 C911 1.373 . S
C912 C913 1.339 . S
C912 C915 1.530 . S
C913 C908 1.304 . S
C913 C912 1.339 . S
C913 H974 0.930 . S
C914 C910 1.567 . S
C914 H975 0.961 . S
C914 H976 0.960 . S
C914 H977 0.958 . S
C915 C912 1.530 . S
C915 H978 0.961 . S
C915 H979 0.960 . S
C915 H980 0.960 . S
C916 C917 1.530 . S
C916 H982 0.961 . S
C916 H983 0.961 . S
C916 H984 0.959 . S
C917 C916 1.530 . S
C917 O945 1.412 . S
C917 H981 0.980 . S
C918 C919 1.288 . S
C918 C923 1.377 . S
C918 O945 1.393 . S
C919 C918 1.288 . S
C919 C920 1.369 . S
C919 H985 0.932 . S
C920 C919 1.369 . S
C920 C921 1.398 . S
C920 C924 1.527 . S
C921 C920 1.398 . S
C921 C922 1.380 . S
C921 C935 1.497 . S
C922 C921 1.380 . S
C922 C923 1.383 . S
C922 C925 1.603 . S
C923 C918 1.377 . S
C923 C922 1.383 . S
C923 H986 0.929 . S
C924 C920 1.527 . S
C924 H987 0.961 . S
C924 H988 0.959 . S
C924 H989 0.959 . S
C925 C922 1.603 . S
C925 H990 0.960 . S
C925 H991 0.962 . S
C925 H992 0.961 . S
C926 C893 1.587 . S
C926 C927 1.360 . S
C926 C939 1.412 . S
C927 C926 1.360 . S
C927 C928 1.365 . S
C927 H993 0.929 . S
C928 C903 1.553 . S
C928 C927 1.365 . S
C928 C929 1.404 . S
C929 C928 1.404 . S
C929 C930 1.395 . S
C929 C940 1.451 . S
C930 C929 1.395 . S
C930 C931 1.322 . S
C930 H994 0.930 . S
C931 C930 1.322 . S
C931 C932 1.459 . S
C931 H995 0.929 . S
C932 C931 1.459 . S
C932 C933 1.445 . S
C932 C941 1.395 . S
C933 C911 1.432 . S
C933 C932 1.445 . S
C933 C934 1.370 . S
C934 C933 1.370 . S
C934 C935 1.438 . S
C934 H996 0.930 . S
C935 C921 1.497 . S
C935 C934 1.438 . S
C935 C936 1.360 . S
C936 C935 1.360 . S
C936 C937 1.401 . S
C936 C941 1.446 . S
C937 C936 1.401 . S
C937 C938 1.347 . S
C937 H997 0.929 . S
C938 C937 1.347 . S
C938 C939 1.455 . S
C938 H998 0.930 . S
C939 C926 1.412 . S
C939 C938 1.455 . S
C939 C940 1.331 . S
C940 C929 1.451 . S
C940 C939 1.331 . S
C940 C941 1.497 . S
C941 C932 1.395 . S
C941 C936 1.446 . S
C941 C940 1.497 . S
C942 C943 1.582 . S
C942 H999 0.962 . S
C942 H1000 0.959 . S
C942 H1001 0.958 . S
C943 C942 1.582 . S
C943 O946 1.458 . S
C943 H972 0.980 . S
O944 C889 1.426 . S
O944 C890 1.334 . S
O945 C917 1.412 . S
O945 C918 1.393 . S
O946 C908 1.435 . S
O946 C943 1.458 . S
O947 C899 1.468 . S
O947 C900 1.408 . S
H948 C889 0.980 . S
H949 C888 0.959 . S
H950 C888 0.959 . S
H951 C888 0.960 . S
H952 C891 0.929 . S
H953 C895 0.929 . S
H954 C896 0.959 . S
H955 C896 0.961 . S
H956 C896 0.961 . S
H957 C897 0.960 . S
H958 C897 0.960 . S
H959 C897 0.961 . S
H960 C899 0.980 . S
H961 C898 0.961 . S
H962 C898 0.960 . S
H963 C898 0.959 . S
H964 C901 0.930 . S
H965 C905 0.931 . S
H966 C906 0.959 . S
H967 C906 0.961 . S
H968 C906 0.959 . S
H969 C907 0.960 . S
H970 C907 0.960 . S
H971 C907 0.960 . S
H972 C943 0.980 . S
H973 C909 0.930 . S
H974 C913 0.930 . S
H975 C914 0.961 . S
H976 C914 0.960 . S
H977 C914 0.958 . S
H978 C915 0.961 . S
H979 C915 0.960 . S
H980 C915 0.960 . S
H981 C917 0.980 . S
H982 C916 0.961 . S
H983 C916 0.961 . S
H984 C916 0.959 . S
H985 C919 0.932 . S
H986 C923 0.929 . S
H987 C924 0.961 . S
H988 C924 0.959 . S
H989 C924 0.959 . S
H990 C925 0.960 . S
H991 C925 0.962 . S
H992 C925 0.961 . S
H993 C927 0.929 . S
H994 C930 0.930 . S
H995 C931 0.929 . S
H996 C934 0.930 . S
H997 C937 0.929 . S
H998 C938 0.930 . S
H999 C942 0.962 . S
H1000 C942 0.959 . S
H1001 C942 0.958 . S
C1002 C1003 1.369 . S
C1002 C1004 1.419 . S
C1002 H1006 0.930 . S
C1003 C1002 1.369 . S
C1003 C1012 1.429 . S
C1004 C1002 1.419 . S
C1004 C1005 1.363 . S
C1004 H1007 0.929 . S
C1005 C1004 1.363 . S
C1005 C1011 1.428 . S
H1006 C1002 0.930 . S
H1007 C1004 0.929 . S
S1008 N1009 1.613 . S
S1008 N1010 1.610 . S
N1009 S1008 1.613 . S
N1009 C1012 1.350 . S
N1010 S1008 1.610 . S
N1010 C1011 1.351 . S
C1011 C1005 1.428 . S
C1011 N1010 1.351 . S
C1011 C1012 1.434 . S
C1012 C1003 1.429 . S
C1012 N1009 1.350 . S
C1012 C1011 1.434 . S
C1013 C1014 1.369 . S
C1013 C1015 1.419 . S
C1013 H1017 0.930 . S
C1014 C1013 1.369 . S
C1014 C1023 1.429 . S
C1015 C1013 1.419 . S
C1015 C1016 1.363 . S
C1015 H1018 0.929 . S
C1016 C1015 1.363 . S
C1016 C1022 1.428 . S
H1017 C1013 0.930 . S
H1018 C1015 0.929 . S
S1019 N1020 1.613 . S
S1019 N1021 1.610 . S
N1020 S1019 1.613 . S
N1020 C1023 1.350 . S
N1021 S1019 1.610 . S
N1021 C1022 1.351 . S
C1022 C1016 1.428 . S
C1022 N1021 1.351 . S
C1022 C1023 1.434 . S
C1023 C1014 1.429 . S
C1023 N1020 1.350 . S
C1023 C1022 1.434 . S
C1024 C1025 1.369 . S
C1024 C1026 1.419 . S
C1024 H1028 0.930 . S
C1025 C1024 1.369 . S
C1025 C1034 1.429 . S
C1026 C1024 1.419 . S
C1026 C1027 1.363 . S
C1026 H1029 0.929 . S
C1027 C1026 1.363 . S
C1027 C1033 1.428 . S
H1028 C1024 0.930 . S
H1029 C1026 0.929 . S
S1030 N1031 1.613 . S
S1030 N1032 1.610 . S
N1031 S1030 1.613 . S
N1031 C1034 1.350 . S
N1032 S1030 1.610 . S
N1032 C1033 1.351 . S
C1033 C1027 1.428 . S
C1033 N1032 1.351 . S
C1033 C1034 1.434 . S
C1034 C1025 1.429 . S
C1034 N1031 1.350 . S
C1034 C1033 1.434 . S
C1035 C1036 1.369 . S
C1035 C1037 1.419 . S
C1035 H1039 0.930 . S
C1036 C1035 1.369 . S
C1036 C1045 1.429 . S
C1037 C1035 1.419 . S
C1037 C1038 1.363 . S
C1037 H1040 0.929 . S
C1038 C1037 1.363 . S
C1038 C1044 1.428 . S
H1039 C1035 0.930 . S
H1040 C1037 0.929 . S
S1041 N1042 1.613 . S
S1041 N1043 1.610 . S
N1042 S1041 1.613 . S
N1042 C1045 1.350 . S
N1043 S1041 1.610 . S
N1043 C1044 1.351 . S
C1044 C1038 1.428 . S
C1044 N1043 1.351 . S
C1044 C1045 1.434 . S
C1045 C1036 1.429 . S
C1045 N1042 1.350 . S
C1045 C1044 1.434 . S
C1046 C1047 1.369 . S
C1046 C1048 1.419 . S
C1046 H1050 0.930 . S
C1047 C1046 1.369 . S
C1047 C1056 1.429 . S
C1048 C1046 1.419 . S
C1048 C1049 1.363 . S
C1048 H1051 0.929 . S
C1049 C1048 1.363 . S
C1049 C1055 1.428 . S
H1050 C1046 0.930 . S
H1051 C1048 0.929 . S
S1052 N1053 1.613 . S
S1052 N1054 1.610 . S
N1053 S1052 1.613 . S
N1053 C1056 1.350 . S
N1054 S1052 1.610 . S
N1054 C1055 1.351 . S
C1055 C1049 1.428 . S
C1055 N1054 1.351 . S
C1055 C1056 1.434 . S
C1056 C1047 1.429 . S
C1056 N1053 1.350 . S
C1056 C1055 1.434 . S
C1057 C1058 1.369 . S
C1057 C1059 1.419 . S
C1057 H1061 0.930 . S
C1058 C1057 1.369 . S
C1058 C1067 1.429 . S
C1059 C1057 1.419 . S
C1059 C1060 1.363 . S
C1059 H1062 0.929 . S
C1060 C1059 1.363 . S
C1060 C1066 1.428 . S
H1061 C1057 0.930 . S
H1062 C1059 0.929 . S
S1063 N1064 1.613 . S
S1063 N1065 1.610 . S
N1064 S1063 1.613 . S
N1064 C1067 1.350 . S
N1065 S1063 1.610 . S
N1065 C1066 1.351 . S
C1066 C1060 1.428 . S
C1066 N1065 1.351 . S
C1066 C1067 1.434 . S
C1067 C1058 1.429 . S
C1067 N1064 1.350 . S
C1067 C1066 1.434 . S
C1068 C1069 1.369 . S
C1068 C1070 1.419 . S
C1068 H1072 0.930 . S
C1069 C1068 1.369 . S
C1069 C1078 1.429 . S
C1070 C1068 1.419 . S
C1070 C1071 1.363 . S
C1070 H1073 0.929 . S
C1071 C1070 1.363 . S
C1071 C1077 1.428 . S
H1072 C1068 0.930 . S
H1073 C1070 0.929 . S
S1074 N1075 1.613 . S
S1074 N1076 1.610 . S
N1075 S1074 1.613 . S
N1075 C1078 1.350 . S
N1076 S1074 1.610 . S
N1076 C1077 1.351 . S
C1077 C1071 1.428 . S
C1077 N1076 1.351 . S
C1077 C1078 1.434 . S
C1078 C1069 1.429 . S
C1078 N1075 1.350 . S
C1078 C1077 1.434 . S
C1079 C1080 1.369 . S
C1079 C1081 1.419 . S
C1079 H1083 0.930 . S
C1080 C1079 1.369 . S
C1080 C1089 1.429 . S
C1081 C1079 1.419 . S
C1081 C1082 1.363 . S
C1081 H1084 0.929 . S
C1082 C1081 1.363 . S
C1082 C1088 1.428 . S
H1083 C1079 0.930 . S
H1084 C1081 0.929 . S
S1085 N1086 1.613 . S
S1085 N1087 1.610 . S
N1086 S1085 1.613 . S
N1086 C1089 1.350 . S
N1087 S1085 1.610 . S
N1087 C1088 1.351 . S
C1088 C1082 1.428 . S
C1088 N1087 1.351 . S
C1088 C1089 1.434 . S
C1089 C1080 1.429 . S
C1089 N1086 1.350 . S
C1089 C1088 1.434 . S
C1090 C1091 1.369 . S
C1090 C1092 1.419 . S
C1090 H1094 0.930 . S
C1091 C1090 1.369 . S
C1091 C1100 1.429 . S
C1092 C1090 1.419 . S
C1092 C1093 1.363 . S
C1092 H1095 0.929 . S
C1093 C1092 1.363 . S
C1093 C1099 1.428 . S
H1094 C1090 0.930 . S
H1095 C1092 0.929 . S
S1096 N1097 1.613 . S
S1096 N1098 1.610 . S
N1097 S1096 1.613 . S
N1097 C1100 1.350 . S
N1098 S1096 1.610 . S
N1098 C1099 1.351 . S
C1099 C1093 1.428 . S
C1099 N1098 1.351 . S
C1099 C1100 1.434 . S
C1100 C1091 1.429 . S
C1100 N1097 1.350 . S
C1100 C1099 1.434 . S
C1101 C1102 1.369 . S
C1101 C1103 1.419 . S
C1101 H1105 0.930 . S
C1102 C1101 1.369 . S
C1102 C1111 1.429 . S
C1103 C1101 1.419 . S
C1103 C1104 1.363 . S
C1103 H1106 0.929 . S
C1104 C1103 1.363 . S
C1104 C1110 1.428 . S
H1105 C1101 0.930 . S
H1106 C1103 0.929 . S
S1107 N1108 1.613 . S
S1107 N1109 1.610 . S
N1108 S1107 1.613 . S
N1108 C1111 1.350 . S
N1109 S1107 1.610 . S
N1109 C1110 1.351 . S
C1110 C1104 1.428 . S
C1110 N1109 1.351 . S
C1110 C1111 1.434 . S
C1111 C1102 1.429 . S
C1111 N1108 1.350 . S
C1111 C1110 1.434 . S
C1112 C1113 1.369 . S
C1112 C1114 1.419 . S
C1112 H1116 0.930 . S
C1113 C1112 1.369 . S
C1113 C1122 1.429 . S
C1114 C1112 1.419 . S
C1114 C1115 1.363 . S
C1114 H1117 0.929 . S
C1115 C1114 1.363 . S
C1115 C1121 1.428 . S
H1116 C1112 0.930 . S
H1117 C1114 0.929 . S
S1118 N1119 1.613 . S
S1118 N1120 1.610 . S
N1119 S1118 1.613 . S
N1119 C1122 1.350 . S
N1120 S1118 1.610 . S
N1120 C1121 1.351 . S
C1121 C1115 1.428 . S
C1121 N1120 1.351 . S
C1121 C1122 1.434 . S
C1122 C1113 1.429 . S
C1122 N1119 1.350 . S
C1122 C1121 1.434 . S
C1123 C1124 1.369 . S
C1123 C1125 1.419 . S
C1123 H1127 0.930 . S
C1124 C1123 1.369 . S
C1124 C1133 1.429 . S
C1125 C1123 1.419 . S
C1125 C1126 1.363 . S
C1125 H1128 0.929 . S
C1126 C1125 1.363 . S
C1126 C1132 1.428 . S
H1127 C1123 0.930 . S
H1128 C1125 0.929 . S
S1129 N1130 1.613 . S
S1129 N1131 1.610 1_455 S
N1130 S1129 1.613 . S
N1130 C1133 1.350 1_455 S
N1131 S1129 1.610 1_655 S
N1131 C1132 1.351 . S
C1132 C1126 1.428 . S
C1132 N1131 1.351 . S
C1132 C1133 1.434 . S
C1133 C1124 1.429 . S
C1133 N1130 1.350 1_655 S
C1133 C1132 1.434 . S
C1134 C1135 1.369 . S
C1134 C1136 1.419 . S
C1134 H1138 0.930 . S
C1135 C1134 1.369 . S
C1135 C1144 1.429 . S
C1136 C1134 1.419 . S
C1136 C1137 1.363 . S
C1136 H1139 0.929 . S
C1137 C1136 1.363 . S
C1137 C1143 1.428 . S
H1138 C1134 0.930 . S
H1139 C1136 0.929 . S
S1140 N1141 1.613 . S
S1140 N1142 1.610 . S
N1141 S1140 1.613 . S
N1141 C1144 1.350 1_455 S
N1142 S1140 1.610 . S
N1142 C1143 1.351 1_455 S
C1143 C1137 1.428 . S
C1143 N1142 1.351 1_655 S
C1143 C1144 1.434 . S
C1144 C1135 1.429 . S
C1144 N1141 1.350 1_655 S
C1144 C1143 1.434 . S
C1145 C1146 1.369 . S
C1145 C1147 1.419 . S
C1145 H1149 0.930 . S
C1146 C1145 1.369 . S
C1146 C1155 1.429 . S
C1147 C1145 1.419 . S
C1147 C1148 1.363 . S
C1147 H1150 0.929 . S
C1148 C1147 1.363 . S
C1148 C1154 1.428 . S
H1149 C1145 0.930 . S
H1150 C1147 0.929 . S
S1151 N1152 1.613 1_545 S
S1151 N1153 1.610 1_545 S
N1152 S1151 1.613 1_565 S
N1152 C1155 1.350 . S
N1153 S1151 1.610 1_565 S
N1153 C1154 1.351 . S
C1154 C1148 1.428 . S
C1154 N1153 1.351 . S
C1154 C1155 1.434 . S
C1155 C1146 1.429 . S
C1155 N1152 1.350 . S
C1155 C1154 1.434 . S
C1156 C1157 1.369 . S
C1156 C1158 1.419 . S
C1156 H1160 0.930 . S
C1157 C1156 1.369 . S
C1157 C1166 1.429 . S
C1158 C1156 1.419 . S
C1158 C1159 1.363 . S
C1158 H1161 0.929 . S
C1159 C1158 1.363 . S
C1159 C1165 1.428 . S
H1160 C1156 0.930 . S
H1161 C1158 0.929 . S
S1162 N1163 1.613 . S
S1162 N1164 1.610 . S
N1163 S1162 1.613 . S
N1163 C1166 1.350 . S
N1164 S1162 1.610 . S
N1164 C1165 1.351 . S
C1165 C1159 1.428 . S
C1165 N1164 1.351 . S
C1165 C1166 1.434 . S
C1166 C1157 1.429 . S
C1166 N1163 1.350 . S
C1166 C1165 1.434 . S
C1167 C1168 1.369 . S
C1167 C1169 1.419 . S
C1167 H1171 0.930 . S
C1168 C1167 1.369 . S
C1168 C1177 1.429 . S
C1169 C1167 1.419 . S
C1169 C1170 1.363 . S
C1169 H1172 0.929 . S
C1170 C1169 1.363 . S
C1170 C1176 1.428 . S
H1171 C1167 0.930 . S
H1172 C1169 0.929 . S
S1173 N1174 1.613 . S
S1173 N1175 1.610 . S
N1174 S1173 1.613 . S
N1174 C1177 1.350 . S
N1175 S1173 1.610 . S
N1175 C1176 1.351 . S
C1176 C1170 1.428 . S
C1176 N1175 1.351 . S
C1176 C1177 1.434 . S
C1177 C1168 1.429 . S
C1177 N1174 1.350 . S
C1177 C1176 1.434 . S
C1178 C1179 1.369 . S
C1178 C1180 1.419 . S
C1178 H1182 0.930 . S
C1179 C1178 1.369 . S
C1179 C1188 1.429 . S
C1180 C1178 1.419 . S
C1180 C1181 1.363 . S
C1180 H1183 0.929 . S
C1181 C1180 1.363 . S
C1181 C1187 1.428 . S
H1182 C1178 0.930 . S
H1183 C1180 0.929 . S
S1184 N1185 1.613 . S
S1184 N1186 1.610 . S
N1185 S1184 1.613 . S
N1185 C1188 1.350 . S
N1186 S1184 1.610 . S
N1186 C1187 1.351 . S
C1187 C1181 1.428 . S
C1187 N1186 1.351 . S
C1187 C1188 1.434 . S
C1188 C1179 1.429 . S
C1188 N1185 1.350 . S
C1188 C1187 1.434 . S
C1189 C1190 1.369 . S
C1189 C1191 1.419 . S
C1189 H1193 0.930 . S
C1190 C1189 1.369 . S
C1190 C1199 1.429 . S
C1191 C1189 1.419 . S
C1191 C1192 1.363 . S
C1191 H1194 0.929 . S
C1192 C1191 1.363 . S
C1192 C1198 1.428 . S
H1193 C1189 0.930 . S
H1194 C1191 0.929 . S
S1195 N1196 1.613 . S
S1195 N1197 1.610 . S
N1196 S1195 1.613 . S
N1196 C1199 1.350 . S
N1197 S1195 1.610 . S
N1197 C1198 1.351 . S
C1198 C1192 1.428 . S
C1198 N1197 1.351 . S
C1198 C1199 1.434 . S
C1199 C1190 1.429 . S
C1199 N1196 1.350 . S
C1199 C1198 1.434 . S
C1200 C1201 1.369 . S
C1200 C1202 1.419 . S
C1200 H1204 0.930 . S
C1201 C1200 1.369 . S
C1201 C1210 1.429 . S
C1202 C1200 1.419 . S
C1202 C1203 1.363 . S
C1202 H1205 0.929 . S
C1203 C1202 1.363 . S
C1203 C1209 1.428 . S
H1204 C1200 0.930 . S
H1205 C1202 0.929 . S
S1206 N1207 1.613 . S
S1206 N1208 1.610 . S
N1207 S1206 1.613 . S
N1207 C1210 1.350 . S
N1208 S1206 1.610 . S
N1208 C1209 1.351 . S
C1209 C1203 1.428 . S
C1209 N1208 1.351 . S
C1209 C1210 1.434 . S
C1210 C1201 1.429 . S
C1210 N1207 1.350 . S
C1210 C1209 1.434 . S
C1211 C1212 1.369 . S
C1211 C1213 1.419 . S
C1211 H1215 0.930 . S
C1212 C1211 1.369 . S
C1212 C1221 1.429 . S
C1213 C1211 1.419 . S
C1213 C1214 1.363 . S
C1213 H1216 0.929 . S
C1214 C1213 1.363 . S
C1214 C1220 1.428 . S
H1215 C1211 0.930 . S
H1216 C1213 0.929 . S
S1217 N1218 1.613 . S
S1217 N1219 1.610 . S
N1218 S1217 1.613 . S
N1218 C1221 1.350 . S
N1219 S1217 1.610 . S
N1219 C1220 1.351 . S
C1220 C1214 1.428 . S
C1220 N1219 1.351 . S
C1220 C1221 1.434 . S
C1221 C1212 1.429 . S
C1221 N1218 1.350 . S
C1221 C1220 1.434 . S
C1222 C1223 1.369 . S
C1222 C1224 1.419 . S
C1222 H1226 0.930 . S
C1223 C1222 1.369 . S
C1223 C1232 1.429 . S
C1224 C1222 1.419 . S
C1224 C1225 1.363 . S
C1224 H1227 0.929 . S
C1225 C1224 1.363 . S
C1225 C1231 1.428 . S
H1226 C1222 0.930 . S
H1227 C1224 0.929 . S
S1228 N1229 1.613 . S
S1228 N1230 1.610 . S
N1229 S1228 1.613 . S
N1229 C1232 1.350 . S
N1230 S1228 1.610 . S
N1230 C1231 1.351 . S
C1231 C1225 1.428 . S
C1231 N1230 1.351 . S
C1231 C1232 1.434 . S
C1232 C1223 1.429 . S
C1232 N1229 1.350 . S
C1232 C1231 1.434 . S
C1233 C1234 1.369 . S
C1233 C1235 1.419 . S
C1233 H1237 0.930 . S
C1234 C1233 1.369 . S
C1234 C1243 1.429 . S
C1235 C1233 1.419 . S
C1235 C1236 1.363 . S
C1235 H1238 0.929 . S
C1236 C1235 1.363 . S
C1236 C1242 1.428 . S
H1237 C1233 0.930 . S
H1238 C1235 0.929 . S
S1239 N1240 1.613 . S
S1239 N1241 1.610 . S
N1240 S1239 1.613 . S
N1240 C1243 1.350 . S
N1241 S1239 1.610 . S
N1241 C1242 1.351 . S
C1242 C1236 1.428 . S
C1242 N1241 1.351 . S
C1242 C1243 1.434 . S
C1243 C1234 1.429 . S
C1243 N1240 1.350 . S
C1243 C1242 1.434 . S
C1244 C1245 1.369 . S
C1244 C1246 1.419 . S
C1244 H1248 0.930 . S
C1245 C1244 1.369 . S
C1245 C1254 1.429 . S
C1246 C1244 1.419 . S
C1246 C1247 1.363 . S
C1246 H1249 0.929 . S
C1247 C1246 1.363 . S
C1247 C1253 1.428 . S
H1248 C1244 0.930 . S
H1249 C1246 0.929 . S
S1250 N1251 1.613 . S
S1250 N1252 1.610 . S
N1251 S1250 1.613 . S
N1251 C1254 1.350 . S
N1252 S1250 1.610 . S
N1252 C1253 1.351 . S
C1253 C1247 1.428 . S
C1253 N1252 1.351 . S
C1253 C1254 1.434 . S
C1254 C1245 1.429 . S
C1254 N1251 1.350 . S
C1254 C1253 1.434 . S
C1255 C1256 1.369 . S
C1255 C1257 1.419 . S
C1255 H1259 0.930 . S
C1256 C1255 1.369 . S
C1256 C1265 1.429 . S
C1257 C1255 1.419 . S
C1257 C1258 1.363 . S
C1257 H1260 0.929 . S
C1258 C1257 1.363 . S
C1258 C1264 1.428 . S
H1259 C1255 0.930 . S
H1260 C1257 0.929 . S
S1261 N1262 1.613 . S
S1261 N1263 1.610 . S
N1262 S1261 1.613 . S
N1262 C1265 1.350 . S
N1263 S1261 1.610 . S
N1263 C1264 1.351 . S
C1264 C1258 1.428 . S
C1264 N1263 1.351 . S
C1264 C1265 1.434 . S
C1265 C1256 1.429 . S
C1265 N1262 1.350 . S
C1265 C1264 1.434 . S
C1003 C39 1.961 . S
C1005 C347 1.810 . S
C1014 C91 1.938 . S
C1016 C487 1.756 . S
C1027 C575 1.615 . S
C1025 C128 1.751 . S
C1038 C715 1.642 . S
C1036 C188 1.768 . S
C1049 C829 1.684 . S
C1047 C250 1.855 . S
C1060 C899 0.999 . S
C1058 C304 1.953 . S
C1069 C75 1.817 . S
C1071 C557 0.995 . S
C1080 C144 1.853 . S
C1082 C661 1.385 . S
C1093 C775 1.333 . S
C1091 C198 1.810 . S
C1104 C917 1.576 . S
C1102 C234 1.714 . S
C1113 C294 1.817 . S
C1115 C329 0.833 . S
C1126 C433 1.166 . S
C1124 C29 1.595 . S
C1137 C671 1.711 . S
C1135 C38 2.057 . S
C1146 C92 2.037 . S
C1148 C785 1.639 . S
C1159 C943 1.231 . S
C1157 C135 2.014 . S
C1168 C181 1.747 . S
C1170 C319 1.543 . S
C1179 C251 2.126 . S
C1181 C443 1.640 . S
C1190 C303 1.976 . S
C1192 C547 1.839 . S
C1201 C82 1.911 . S
C1203 C889 1.770 . S
C1214 C373 1.227 . S
C1212 C145 2.055 . S
C1223 C197 1.983 . S
C1225 C461 1.288 . S
C1234 C241 1.904 . S
C1236 C601 1.073 . S
C1245 C287 1.753 . S
C1247 C689 1.213 . S
C1256 C22 1.836 . S
C1258 C803 1.285 . S
