# Generated by pormake.
# Topology eea, (3,6)-cn, num edge types: 1
# Building blocks:
#     Node 0, Type 0, BuildingBlock: VETTIZ_charged_linker_0, # of connection points: 3
#     Node 1, Type 0, BuildingBlock: VETTIZ_charged_linker_0, # of connection points: 3
#     Node 2, Type 0, BuildingBlock: VETTIZ_charged_linker_0, # of connection points: 3
#     Node 3, Type 0, BuildingBlock: VETTIZ_charged_linker_0, # of connection points: 3
#     Node 4, Type 0, BuildingBlock: VETTIZ_charged_linker_0, # of connection points: 3
#     Node 5, Type 0, BuildingBlock: VETTIZ_charged_linker_0, # of connection points: 3
#     Node 6, Type 0, BuildingBlock: VETTIZ_charged_linker_0, # of connection points: 3
#     Node 7, Type 0, BuildingBlock: VETTIZ_charged_linker_0, # of connection points: 3
#     Node 8, Type 0, BuildingBlock: VETTIZ_charged_linker_0, # of connection points: 3
#     Node 9, Type 0, BuildingBlock: VETTIZ_charged_linker_0, # of connection points: 3
#     Node 10, Type 0, BuildingBlock: VETTIZ_charged_linker_0, # of connection points: 3
#     Node 11, Type 0, BuildingBlock: VETTIZ_charged_linker_0, # of connection points: 3
#     Node 12, Type 0, BuildingBlock: VETTIZ_charged_linker_0, # of connection points: 3
#     Node 13, Type 0, BuildingBlock: VETTIZ_charged_linker_0, # of connection points: 3
#     Node 14, Type 0, BuildingBlock: VETTIZ_charged_linker_0, # of connection points: 3
#     Node 15, Type 0, BuildingBlock: VETTIZ_charged_linker_0, # of connection points: 3
#     Node 16, Type 0, BuildingBlock: VETTIZ_charged_linker_0, # of connection points: 3
#     Node 17, Type 0, BuildingBlock: VETTIZ_charged_linker_0, # of connection points: 3
#     Node 18, Type 1, BuildingBlock: NUHQIS_clean_sbu_0, # of connection points: 6
#     Node 19, Type 1, BuildingBlock: NUHQIS_clean_sbu_0, # of connection points: 6
#     Node 20, Type 1, BuildingBlock: NUHQIS_clean_sbu_0, # of connection points: 6
#     Node 21, Type 1, BuildingBlock: NUHQIS_clean_sbu_0, # of connection points: 6
#     Node 22, Type 1, BuildingBlock: NUHQIS_clean_sbu_0, # of connection points: 6
#     Node 23, Type 1, BuildingBlock: NUHQIS_clean_sbu_0, # of connection points: 6
#     Node 24, Type 1, BuildingBlock: NUHQIS_clean_sbu_0, # of connection points: 6
#     Node 25, Type 1, BuildingBlock: NUHQIS_clean_sbu_0, # of connection points: 6
#     Node 26, Type 1, BuildingBlock: NUHQIS_clean_sbu_0, # of connection points: 6
#     Edge 27, Type (0, 1), BuildingBlock: XUDNAN_clean_linker_2, # of connection points: 2
#     Edge 28, Type (0, 1), BuildingBlock: XUDNAN_clean_linker_2, # of connection points: 2
#     Edge 29, Type (0, 1), BuildingBlock: XUDNAN_clean_linker_2, # of connection points: 2
#     Edge 30, Type (0, 1), BuildingBlock: XUDNAN_clean_linker_2, # of connection points: 2
#     Edge 31, Type (0, 1), BuildingBlock: XUDNAN_clean_linker_2, # of connection points: 2
#     Edge 32, Type (0, 1), BuildingBlock: XUDNAN_clean_linker_2, # of connection points: 2
#     Edge 33, Type (0, 1), BuildingBlock: XUDNAN_clean_linker_2, # of connection points: 2
#     Edge 34, Type (0, 1), BuildingBlock: XUDNAN_clean_linker_2, # of connection points: 2
#     Edge 35, Type (0, 1), BuildingBlock: XUDNAN_clean_linker_2, # of connection points: 2
#     Edge 36, Type (0, 1), BuildingBlock: XUDNAN_clean_linker_2, # of connection points: 2
#     Edge 37, Type (0, 1), BuildingBlock: XUDNAN_clean_linker_2, # of connection points: 2
#     Edge 38, Type (0, 1), BuildingBlock: XUDNAN_clean_linker_2, # of connection points: 2
#     Edge 39, Type (0, 1), BuildingBlock: XUDNAN_clean_linker_2, # of connection points: 2
#     Edge 40, Type (0, 1), BuildingBlock: XUDNAN_clean_linker_2, # of connection points: 2
#     Edge 41, Type (0, 1), BuildingBlock: XUDNAN_clean_linker_2, # of connection points: 2
#     Edge 42, Type (0, 1), BuildingBlock: XUDNAN_clean_linker_2, # of connection points: 2
#     Edge 43, Type (0, 1), BuildingBlock: XUDNAN_clean_linker_2, # of connection points: 2
#     Edge 44, Type (0, 1), BuildingBlock: XUDNAN_clean_linker_2, # of connection points: 2
#     Edge 45, Type (0, 1), BuildingBlock: XUDNAN_clean_linker_2, # of connection points: 2
#     Edge 46, Type (0, 1), BuildingBlock: XUDNAN_clean_linker_2, # of connection points: 2
#     Edge 47, Type (0, 1), BuildingBlock: XUDNAN_clean_linker_2, # of connection points: 2
#     Edge 48, Type (0, 1), BuildingBlock: XUDNAN_clean_linker_2, # of connection points: 2
#     Edge 49, Type (0, 1), BuildingBlock: XUDNAN_clean_linker_2, # of connection points: 2
#     Edge 50, Type (0, 1), BuildingBlock: XUDNAN_clean_linker_2, # of connection points: 2
#     Edge 51, Type (0, 1), BuildingBlock: XUDNAN_clean_linker_2, # of connection points: 2
#     Edge 52, Type (0, 1), BuildingBlock: XUDNAN_clean_linker_2, # of connection points: 2
#     Edge 53, Type (0, 1), BuildingBlock: XUDNAN_clean_linker_2, # of connection points: 2
#     Edge 54, Type (0, 1), BuildingBlock: XUDNAN_clean_linker_2, # of connection points: 2
#     Edge 55, Type (0, 1), BuildingBlock: XUDNAN_clean_linker_2, # of connection points: 2
#     Edge 56, Type (0, 1), BuildingBlock: XUDNAN_clean_linker_2, # of connection points: 2
#     Edge 57, Type (0, 1), BuildingBlock: XUDNAN_clean_linker_2, # of connection points: 2
#     Edge 58, Type (0, 1), BuildingBlock: XUDNAN_clean_linker_2, # of connection points: 2
#     Edge 59, Type (0, 1), BuildingBlock: XUDNAN_clean_linker_2, # of connection points: 2
#     Edge 60, Type (0, 1), BuildingBlock: XUDNAN_clean_linker_2, # of connection points: 2
#     Edge 61, Type (0, 1), BuildingBlock: XUDNAN_clean_linker_2, # of connection points: 2
#     Edge 62, Type (0, 1), BuildingBlock: XUDNAN_clean_linker_2, # of connection points: 2
#     Edge 63, Type (0, 1), BuildingBlock: XUDNAN_clean_linker_2, # of connection points: 2
#     Edge 64, Type (0, 1), BuildingBlock: XUDNAN_clean_linker_2, # of connection points: 2
#     Edge 65, Type (0, 1), BuildingBlock: XUDNAN_clean_linker_2, # of connection points: 2
#     Edge 66, Type (0, 1), BuildingBlock: XUDNAN_clean_linker_2, # of connection points: 2
#     Edge 67, Type (0, 1), BuildingBlock: XUDNAN_clean_linker_2, # of connection points: 2
#     Edge 68, Type (0, 1), BuildingBlock: XUDNAN_clean_linker_2, # of connection points: 2
#     Edge 69, Type (0, 1), BuildingBlock: XUDNAN_clean_linker_2, # of connection points: 2
#     Edge 70, Type (0, 1), BuildingBlock: XUDNAN_clean_linker_2, # of connection points: 2
#     Edge 71, Type (0, 1), BuildingBlock: XUDNAN_clean_linker_2, # of connection points: 2
#     Edge 72, Type (0, 1), BuildingBlock: XUDNAN_clean_linker_2, # of connection points: 2
#     Edge 73, Type (0, 1), BuildingBlock: XUDNAN_clean_linker_2, # of connection points: 2
#     Edge 74, Type (0, 1), BuildingBlock: XUDNAN_clean_linker_2, # of connection points: 2
#     Edge 75, Type (0, 1), BuildingBlock: XUDNAN_clean_linker_2, # of connection points: 2
#     Edge 76, Type (0, 1), BuildingBlock: XUDNAN_clean_linker_2, # of connection points: 2
#     Edge 77, Type (0, 1), BuildingBlock: XUDNAN_clean_linker_2, # of connection points: 2
#     Edge 78, Type (0, 1), BuildingBlock: XUDNAN_clean_linker_2, # of connection points: 2
#     Edge 79, Type (0, 1), BuildingBlock: XUDNAN_clean_linker_2, # of connection points: 2
#     Edge 80, Type (0, 1), BuildingBlock: XUDNAN_clean_linker_2, # of connection points: 2
# Relax obj value: 0.035
# Max RMSD: 0.134
# Mean RMSD: 0.075
data_MOF--net-eea--node1-NUHQIS_clean_sbu_0--node2-VETTIZ_charged_linker_0--edge1-XUDNAN_clean_linker_2
_symmetry_space_group_name_H-M    P1
_symmetry_Int_Tables_number       1
_symmetry_cell_setting            triclinic
loop_
_symmetry_equiv_pos_as_xyz
'x, y, z'
_cell_length_a     61.83558
_cell_length_b     62.133083
_cell_length_c     90.31437
_cell_angle_alpha  93.430506
_cell_angle_beta   93.222909
_cell_angle_gamma 119.9427
loop_
_atom_site_label
_atom_site_type_symbol
_atom_site_fract_x
_atom_site_fract_y
_atom_site_fract_z
_atom_type_partial_charge
C0 C 0.24758 0.18453 0.38447 0.0
C1 C 0.24166 0.2022 0.39044 0.0
C2 C 0.24398 0.20711 0.40613 0.0
C3 C 0.25745 0.17694 0.40933 0.0
C4 C 0.25482 0.17188 0.39403 0.0
C5 C 0.25899 0.15077 0.38932 0.0
H6 H 0.27828 0.05766 0.40769 0.0
C7 C 0.26461 0.15993 0.41601 0.0
C8 C 0.26508 0.14429 0.40432 0.0
H9 H 0.26122 0.07363 0.36397 0.0
H10 H 0.26301 0.11077 0.37467 0.0
H11 H 0.32003 0.11459 0.41898 0.0
H12 H 0.24158 0.0711 0.42505 0.0
H13 H 0.25839 0.08714 0.44235 0.0
H14 H 0.26498 0.06495 0.43303 0.0
H15 H 0.30907 0.09289 0.43278 0.0
H16 H 0.31651 0.12485 0.43672 0.0
C17 C 0.28175 0.16099 0.37998 0.0
C18 C 0.23412 0.12922 0.38098 0.0
C19 C 0.2879 0.16944 0.47186 0.0
C20 C 0.29666 0.1573 0.48104 0.0
C21 C 0.29821 0.13689 0.47463 0.0
C22 C 0.29169 0.1291 0.45934 0.0
C23 C 0.28356 0.14182 0.45029 0.0
C24 C 0.28164 0.16154 0.45659 0.0
C25 C 0.27289 0.17302 0.4452 0.0
C26 C 0.27084 0.15754 0.43097 0.0
C27 C 0.27687 0.13912 0.43405 0.0
C28 C 0.29342 0.20074 0.44522 0.0
C29 C 0.24702 0.16901 0.44887 0.0
C30 C 0.27493 0.0692 0.40046 0.0
C31 C 0.26954 0.06259 0.38494 0.0
C32 C 0.26573 0.07836 0.3759 0.0
C33 C 0.26645 0.09984 0.38217 0.0
C34 C 0.27084 0.10566 0.39769 0.0
C35 C 0.27552 0.09081 0.40657 0.0
C36 C 0.28033 0.10044 0.42284 0.0
C37 C 0.27639 0.12267 0.42223 0.0
C38 C 0.27081 0.12551 0.40747 0.0
C39 C 0.30781 0.1085 0.42825 0.0
C40 C 0.26044 0.07989 0.43139 0.0
H41 H 0.25329 0.19925 0.42735 0.0
H42 H 0.2464 0.18027 0.37256 0.0
H43 H 0.21753 0.13007 0.38441 0.0
H44 H 0.23036 0.11055 0.38355 0.0
H45 H 0.23402 0.13002 0.36873 0.0
H46 H 0.29664 0.17999 0.3848 0.0
H47 H 0.2762 0.16238 0.36832 0.0
H48 H 0.29092 0.14963 0.37985 0.0
H49 H 0.28608 0.18491 0.47644 0.0
H50 H 0.30514 0.12735 0.48136 0.0
H51 H 0.29351 0.11362 0.45513 0.0
H52 H 0.3123 0.20263 0.44542 0.0
H53 H 0.29343 0.21211 0.4552 0.0
H54 H 0.29138 0.20912 0.4352 0.0
H55 H 0.23653 0.15182 0.45457 0.0
H56 H 0.23455 0.1661 0.43876 0.0
H57 H 0.24913 0.18496 0.45633 0.0
H58 H 0.23906 0.22009 0.41122 0.0
C59 C 0.252 0.19474 0.41556 0.0
C60 C 0.95848 0.1759 0.39659 0.0
C61 C 0.98048 0.19837 0.40202 0.0
C62 C 0.98174 0.20909 0.41653 0.0
C63 C 0.94008 0.17506 0.41978 0.0
C64 C 0.93888 0.16452 0.40562 0.0
C65 C 0.91521 0.13977 0.40173 0.0
H66 H 0.80491 0.04914 0.42169 0.0
C67 C 0.91652 0.15826 0.42625 0.0
C68 C 0.90196 0.13751 0.41567 0.0
H69 H 0.84043 0.04786 0.38197 0.0
H70 H 0.87399 0.09005 0.38947 0.0
H71 H 0.85396 0.07139 0.44333 0.0
H72 H 0.81621 0.10523 0.42209 0.0
H73 H 0.82832 0.12174 0.43982 0.0
H74 H 0.80555 0.08875 0.43821 0.0
H75 H 0.82516 0.06815 0.4489 0.0
H76 H 0.85521 0.09373 0.45671 0.0
C77 C 0.92247 0.1193 0.39945 0.0
C78 C 0.90054 0.14181 0.38794 0.0
C79 C 0.90068 0.17985 0.4786 0.0
C80 C 0.88003 0.16778 0.48703 0.0
C81 C 0.85854 0.14572 0.48053 0.0
C82 C 0.85766 0.13561 0.46611 0.0
C83 C 0.87851 0.14749 0.45796 0.0
C84 C 0.89943 0.16948 0.46407 0.0
C85 C 0.91945 0.17968 0.45343 0.0
C86 C 0.90719 0.15991 0.4401 0.0
C87 C 0.88333 0.14103 0.44297 0.0
C88 C 0.94324 0.1807 0.46072 0.0
C89 C 0.92345 0.20528 0.4496 0.0
C90 C 0.81995 0.05778 0.41459 0.0
C91 C 0.82 0.04484 0.40127 0.0
C92 C 0.83972 0.05729 0.39225 0.0
C93 C 0.85939 0.08174 0.39672 0.0
C94 C 0.85957 0.09388 0.41043 0.0
C95 C 0.8399 0.08191 0.41901 0.0
C96 C 0.84351 0.09704 0.4335 0.0
C97 C 0.86887 0.11995 0.43237 0.0
C98 C 0.87813 0.11813 0.41881 0.0
C99 C 0.84437 0.08191 0.44637 0.0
C100 C 0.82229 0.10347 0.43357 0.0
H101 H 0.96393 0.20667 0.43632 0.0
H102 H 0.9564 0.16711 0.38548 0.0
H103 H 0.90073 0.15984 0.38903 0.0
H104 H 0.88055 0.12715 0.38657 0.0
H105 H 0.90906 0.14097 0.37758 0.0
H106 H 0.94043 0.12464 0.4061 0.0
H107 H 0.92483 0.11606 0.38757 0.0
H108 H 0.9087 0.10139 0.40334 0.0
H109 H 0.91738 0.19697 0.4832 0.0
H110 H 0.84252 0.1358 0.48677 0.0
H111 H 0.84082 0.11864 0.46196 0.0
H112 H 0.93812 0.16409 0.46689 0.0
H113 H 0.95415 0.1976 0.46878 0.0
H114 H 0.9556 0.18028 0.45251 0.0
H115 H 0.90521 0.20478 0.44816 0.0
H116 H 0.93171 0.21069 0.43898 0.0
H117 H 0.93552 0.22021 0.45864 0.0
H118 H 0.99845 0.2261 0.42124 0.0
C119 C 0.96169 0.19765 0.42538 0.0
C120 C 0.96635 0.80207 0.40456 0.0
C121 C 0.98525 0.79627 0.40794 0.0
C122 C 0.98504 0.78544 0.42129 0.0
C123 C 0.94656 0.78469 0.42678 0.0
C124 C 0.94721 0.79586 0.41391 0.0
C125 C 0.92492 0.79917 0.41105 0.0
H126 H 0.81102 0.7759 0.42856 0.0
C127 C 0.9232 0.77943 0.43348 0.0
C128 C 0.91042 0.78773 0.42416 0.0
H129 H 0.85269 0.81779 0.3933 0.0
H130 H 0.88682 0.81162 0.40115 0.0
H131 H 0.82642 0.73354 0.42691 0.0
H132 H 0.85659 0.8044 0.45287 0.0
H133 H 0.8611 0.78519 0.46457 0.0
H134 H 0.82964 0.77693 0.45771 0.0
H135 H 0.81092 0.73929 0.44156 0.0
H136 H 0.8335 0.72951 0.44532 0.0
C137 C 0.91043 0.78406 0.39599 0.0
C138 C 0.93437 0.82752 0.41164 0.0
C139 C 0.90223 0.73931 0.48244 0.0
C140 C 0.8814 0.73172 0.49081 0.0
C141 C 0.86117 0.73429 0.48512 0.0
C142 C 0.86178 0.74462 0.47169 0.0
C143 C 0.88279 0.75247 0.46364 0.0
C144 C 0.90249 0.74956 0.46892 0.0
C145 C 0.92282 0.75829 0.45845 0.0
C146 C 0.91248 0.76785 0.44642 0.0
C147 C 0.88895 0.76424 0.44956 0.0
C148 C 0.92451 0.73542 0.45232 0.0
C149 C 0.94746 0.77951 0.46694 0.0
C150 C 0.8275 0.78404 0.42254 0.0
C151 C 0.82868 0.79716 0.4101 0.0
C152 C 0.85067 0.80704 0.40265 0.0
C153 C 0.87073 0.80366 0.40733 0.0
C154 C 0.86909 0.79045 0.41972 0.0
C155 C 0.8479 0.78129 0.42724 0.0
C156 C 0.8501 0.76927 0.44078 0.0
C157 C 0.87589 0.77219 0.43994 0.0
C158 C 0.88676 0.78425 0.42747 0.0
C159 C 0.8291 0.74146 0.43869 0.0
C160 C 0.84916 0.78448 0.45476 0.0
H161 H 0.96658 0.77122 0.44062 0.0
H162 H 0.96611 0.81094 0.39464 0.0
H163 H 0.95174 0.83854 0.4194 0.0
H164 H 0.92085 0.8324 0.416 0.0
H165 H 0.93872 0.8343 0.40048 0.0
H166 H 0.90972 0.76578 0.39487 0.0
H167 H 0.9197 0.79431 0.38645 0.0
H168 H 0.89067 0.77937 0.39485 0.0
H169 H 0.91812 0.73762 0.48638 0.0
H170 H 0.84454 0.72799 0.49096 0.0
H171 H 0.84574 0.746 0.46808 0.0
H172 H 0.90566 0.71826 0.4508 0.0
H173 H 0.93674 0.73191 0.46009 0.0
H174 H 0.93136 0.73734 0.44117 0.0
H175 H 0.94381 0.79279 0.47363 0.0
H176 H 0.96146 0.7908 0.45945 0.0
H177 H 0.95597 0.77194 0.4747 0.0
H178 H 0.99924 0.78066 0.42421 0.0
C179 C 0.96588 0.7797 0.43073 0.0
C180 C 0.16714 0.21577 0.61418 0.0
C181 C 0.19074 0.22041 0.61036 0.0
C182 C 0.1981 0.22883 0.59633 0.0
C183 C 0.15884 0.22795 0.59041 0.0
C184 C 0.15167 0.21971 0.60414 0.0
C185 C 0.1263 0.21602 0.60672 0.0
H186 H 0.02351 0.22093 0.58291 0.0
C187 C 0.13837 0.23025 0.5827 0.0
C188 C 0.11931 0.22331 0.59224 0.0
H189 H 0.04118 0.2017 0.62545 0.0
H190 H 0.0796 0.2069 0.61736 0.0
H191 H 0.07935 0.26775 0.58114 0.0
H192 H 0.04454 0.19103 0.56213 0.0
H193 H 0.06072 0.21085 0.54859 0.0
H194 H 0.03476 0.21204 0.55588 0.0
H195 H 0.05449 0.25495 0.56624 0.0
H196 H 0.08673 0.26717 0.56264 0.0
C197 C 0.12959 0.23424 0.62033 0.0
C198 C 0.10861 0.18802 0.60854 0.0
C199 C 0.14656 0.25804 0.53051 0.0
C200 C 0.13086 0.26155 0.52026 0.0
C201 C 0.10773 0.2578 0.52459 0.0
C202 C 0.10021 0.2502 0.53871 0.0
C203 C 0.116 0.24636 0.5487 0.0
C204 C 0.13882 0.25046 0.54452 0.0
C205 C 0.15333 0.24556 0.55645 0.0
C206 C 0.13545 0.23764 0.56847 0.0
C207 C 0.11353 0.2381 0.56394 0.0
C208 C 0.17802 0.27036 0.5615 0.0
C209 C 0.15709 0.22403 0.55015 0.0
C210 C 0.03568 0.21793 0.59053 0.0
C211 C 0.02897 0.21075 0.6049 0.0
C212 C 0.04538 0.20673 0.61427 0.0
C213 C 0.06797 0.21007 0.60959 0.0
C214 C 0.0746 0.21774 0.5954 0.0
C215 C 0.05856 0.22146 0.58608 0.0
C216 C 0.06913 0.2301 0.57149 0.0
C217 C 0.09421 0.23106 0.57368 0.0
C218 C 0.09716 0.22372 0.58772 0.0
C219 C 0.07253 0.2563 0.57015 0.0
C220 C 0.0514 0.21014 0.55876 0.0
H221 H 0.18908 0.23912 0.5759 0.0
H222 H 0.16064 0.20896 0.62475 0.0
H223 H 0.11278 0.176 0.60102 0.0
H224 H 0.08865 0.18167 0.60542 0.0
H225 H 0.11085 0.18392 0.62015 0.0
H226 H 0.14825 0.2516 0.6212 0.0
H227 H 0.12811 0.2256 0.63091 0.0
H228 H 0.116 0.24085 0.61949 0.0
H229 H 0.16465 0.26116 0.52773 0.0
H230 H 0.09515 0.2602 0.51693 0.0
H231 H 0.0823 0.24741 0.54127 0.0
H232 H 0.17504 0.28658 0.56124 0.0
H233 H 0.1928 0.27333 0.55408 0.0
H234 H 0.18524 0.27139 0.57314 0.0
H235 H 0.14018 0.20978 0.54287 0.0
H236 H 0.15975 0.21367 0.55889 0.0
H237 H 0.17329 0.23108 0.54336 0.0
H238 H 0.21627 0.23287 0.59312 0.0
C239 C 0.18232 0.23261 0.58636 0.0
C240 C 0.75335 0.81896 0.62286 0.0
C241 C 0.74664 0.79428 0.61806 0.0
C242 C 0.7338 0.78394 0.60371 0.0
C243 C 0.73453 0.82254 0.59953 0.0
C244 C 0.74688 0.83246 0.6136 0.0
C245 C 0.7515 0.85828 0.61763 0.0
H246 H 0.73858 0.95566 0.60031 0.0
C247 C 0.73058 0.8417 0.59289 0.0
C248 C 0.7403 0.86252 0.60353 0.0
H249 H 0.76961 0.94564 0.64168 0.0
H250 H 0.76307 0.90622 0.63112 0.0
H251 H 0.76579 0.93456 0.57871 0.0
H252 H 0.69234 0.89939 0.59423 0.0
H253 H 0.68893 0.88952 0.57516 0.0
H254 H 0.70174 0.92218 0.58102 0.0
H255 H 0.7415 0.93982 0.57124 0.0
H256 H 0.7446 0.91396 0.56383 0.0
C257 C 0.78024 0.87632 0.62029 0.0
C258 C 0.73689 0.85752 0.63123 0.0
C259 C 0.68992 0.82546 0.53981 0.0
C260 C 0.68451 0.84004 0.53063 0.0
C261 C 0.69064 0.86425 0.53635 0.0
C262 C 0.7019 0.87377 0.55094 0.0
C263 C 0.70714 0.85897 0.55997 0.0
C264 C 0.70126 0.83528 0.55435 0.0
C265 C 0.70849 0.82236 0.56551 0.0
C266 C 0.7198 0.84225 0.5787 0.0
C267 C 0.71883 0.86362 0.57541 0.0
C268 C 0.72822 0.81701 0.55909 0.0
C269 C 0.68434 0.79877 0.56899 0.0
C270 C 0.74406 0.94493 0.60699 0.0
C271 C 0.75433 0.95353 0.62189 0.0
C272 C 0.76124 0.93914 0.63027 0.0
C273 C 0.75746 0.91624 0.6241 0.0
C274 C 0.74647 0.90743 0.60938 0.0
C275 C 0.74013 0.92174 0.601 0.0
C276 C 0.72837 0.90897 0.5856 0.0
C277 C 0.72825 0.8845 0.58631 0.0
C278 C 0.73896 0.88387 0.60025 0.0
C279 C 0.74573 0.92511 0.57415 0.0
C280 C 0.70147 0.90485 0.58375 0.0
H281 H 0.718 0.78906 0.58366 0.0
H282 H 0.7636 0.82784 0.63365 0.0
H283 H 0.72042 0.83859 0.63174 0.0
H284 H 0.72875 0.86981 0.63068 0.0
H285 H 0.74899 0.8626 0.64188 0.0
H286 H 0.79014 0.87108 0.61219 0.0
H287 H 0.78764 0.87578 0.63168 0.0
H288 H 0.78585 0.89583 0.61863 0.0
H289 H 0.68573 0.80691 0.5357 0.0
H290 H 0.68642 0.87576 0.52959 0.0
H291 H 0.706 0.89227 0.55463 0.0
H292 H 0.74192 0.83318 0.55353 0.0
H293 H 0.71916 0.80042 0.55069 0.0
H294 H 0.73959 0.81411 0.56773 0.0
H295 H 0.66815 0.80196 0.56861 0.0
H296 H 0.6858 0.79362 0.58034 0.0
H297 H 0.67939 0.78259 0.56076 0.0
H298 H 0.72805 0.76489 0.59972 0.0
C299 C 0.7278 0.79796 0.59442 0.0
C300 C 0.04452 0.81612 0.61424 0.0
C301 C 0.02329 0.79394 0.60786 0.0
C302 C 0.02378 0.78354 0.59367 0.0
C303 C 0.0657 0.81817 0.59198 0.0
C304 C 0.06534 0.82803 0.60607 0.0
C305 C 0.08821 0.85323 0.61047 0.0
H306 H 0.19459 0.95155 0.59177 0.0
C307 C 0.08924 0.83618 0.586 0.0
C308 C 0.10246 0.85678 0.59681 0.0
H309 H 0.15776 0.94554 0.63181 0.0
H310 H 0.12734 0.90241 0.62374 0.0
H311 H 0.18878 0.89571 0.5902 0.0
H312 H 0.1458 0.92541 0.57024 0.0
H313 H 0.14665 0.90483 0.55643 0.0
H314 H 0.17555 0.93182 0.56443 0.0
H315 H 0.19868 0.91433 0.57484 0.0
H316 H 0.17825 0.88086 0.57197 0.0
C317 C 0.1026 0.85123 0.62442 0.0
C318 C 0.07961 0.87269 0.61276 0.0
C319 C 0.10743 0.81893 0.5335 0.0
C320 C 0.12737 0.83287 0.52495 0.0
C321 C 0.14761 0.85592 0.53143 0.0
C322 C 0.14787 0.86517 0.54599 0.0
C323 C 0.1276 0.85139 0.55426 0.0
C324 C 0.10793 0.82855 0.54808 0.0
C325 C 0.08802 0.81667 0.55863 0.0
C326 C 0.0991 0.83611 0.57212 0.0
C327 C 0.1222 0.85647 0.5694 0.0
C328 C 0.08607 0.79173 0.56216 0.0
C329 C 0.06335 0.81393 0.55136 0.0
C330 C 0.18024 0.94068 0.59888 0.0
C331 C 0.17845 0.95177 0.61241 0.0
C332 C 0.15934 0.93729 0.62131 0.0
C333 C 0.14165 0.91231 0.61656 0.0
C334 C 0.14278 0.90178 0.60263 0.0
C335 C 0.16208 0.91578 0.59415 0.0
C336 C 0.15962 0.90182 0.57937 0.0
C337 C 0.13545 0.87737 0.58028 0.0
C338 C 0.1257 0.87745 0.59393 0.0
C339 C 0.18253 0.89804 0.57891 0.0
C340 C 0.15692 0.91665 0.56688 0.0
H341 H 0.04403 0.78673 0.57493 0.0
H342 H 0.04433 0.82479 0.62496 0.0
H343 H 0.06177 0.86684 0.6058 0.0
H344 H 0.09298 0.89107 0.60921 0.0
H345 H 0.07643 0.87518 0.62456 0.0
H346 H 0.10276 0.83337 0.62337 0.0
H347 H 0.09362 0.85172 0.63465 0.0
H348 H 0.12253 0.86605 0.626 0.0
H349 H 0.09155 0.8012 0.52884 0.0
H350 H 0.16344 0.8668 0.52525 0.0
H351 H 0.1638 0.88286 0.55019 0.0
H352 H 0.10502 0.7938 0.56365 0.0
H353 H 0.07492 0.77677 0.55296 0.0
H354 H 0.0778 0.7854 0.57269 0.0
H355 H 0.06729 0.8298 0.54471 0.0
H356 H 0.05105 0.81441 0.55961 0.0
H357 H 0.05274 0.79643 0.54374 0.0
H358 H 0.00745 0.76654 0.58854 0.0
C359 C 0.04494 0.79539 0.58576 0.0
C360 C 0.91567 0.52187 0.72052 0.0
C361 C 0.90971 0.53921 0.72695 0.0
C362 C 0.91228 0.54355 0.74269 0.0
C363 C 0.92512 0.51273 0.745 0.0
C364 C 0.9226 0.50852 0.72965 0.0
C365 C 0.92594 0.4871 0.72436 0.0
H366 H 0.94253 0.39144 0.7404 0.0
C367 C 0.93137 0.49474 0.75115 0.0
C368 C 0.9315 0.47949 0.73907 0.0
H369 H 0.92506 0.40858 0.69723 0.0
H370 H 0.92767 0.44612 0.70857 0.0
H371 H 0.98489 0.44958 0.75323 0.0
H372 H 0.90614 0.40186 0.75674 0.0
H373 H 0.9192 0.41892 0.77423 0.0
H374 H 0.92966 0.39832 0.76703 0.0
H375 H 0.97306 0.4242 0.76468 0.0
H376 H 0.97972 0.45495 0.77166 0.0
C377 C 0.94872 0.49718 0.71506 0.0
C378 C 0.90083 0.4664 0.71576 0.0
C379 C 0.94789 0.4962 0.80724 0.0
C380 C 0.95272 0.4807 0.81585 0.0
C381 C 0.95491 0.46122 0.80875 0.0
C382 C 0.95216 0.45701 0.7932 0.0
C383 C 0.94677 0.47222 0.78465 0.0
C384 C 0.94479 0.49151 0.79164 0.0
C385 C 0.93787 0.50494 0.78066 0.0
C386 C 0.93666 0.4909 0.76596 0.0
C387 C 0.9418 0.47172 0.76843 0.0
C388 C 0.95921 0.5325 0.78201 0.0
C389 C 0.91192 0.50139 0.78373 0.0
C390 C 0.9397 0.40356 0.73339 0.0
C391 C 0.9336 0.3972 0.71793 0.0
C392 C 0.9296 0.41311 0.70918 0.0
C393 C 0.93104 0.43481 0.7158 0.0
C394 C 0.93607 0.44039 0.73137 0.0
C395 C 0.94062 0.42505 0.73987 0.0
C396 C 0.94472 0.43338 0.75627 0.0
C397 C 0.94128 0.45593 0.75622 0.0
C398 C 0.93632 0.45994 0.74163 0.0
C399 C 0.97191 0.4408 0.7619 0.0
C400 C 0.92407 0.41209 0.7641 0.0
H401 H 0.92158 0.53461 0.76355 0.0
H402 H 0.91449 0.51815 0.70856 0.0
H403 H 0.88457 0.46794 0.7191 0.0
H404 H 0.8962 0.44739 0.71817 0.0
H405 H 0.90112 0.4675 0.70354 0.0
H406 H 0.96434 0.51535 0.72047 0.0
H407 H 0.94362 0.50023 0.7037 0.0
H408 H 0.95663 0.48473 0.71406 0.0
H409 H 0.94581 0.51109 0.81254 0.0
H410 H 0.95864 0.44915 0.81529 0.0
H411 H 0.95393 0.44179 0.78847 0.0
H412 H 0.97779 0.53369 0.78239 0.0
H413 H 0.95886 0.54284 0.79238 0.0
H414 H 0.95837 0.54238 0.77245 0.0
H415 H 0.90028 0.48351 0.78857 0.0
H416 H 0.90056 0.50006 0.77345 0.0
H417 H 0.91393 0.51674 0.79171 0.0
H418 H 0.90748 0.55638 0.74813 0.0
C419 C 0.92019 0.53062 0.7517 0.0
C420 C 0.62243 0.51032 0.73161 0.0
C421 C 0.64074 0.53553 0.73555 0.0
C422 C 0.63978 0.54737 0.74916 0.0
C423 C 0.60243 0.50932 0.75417 0.0
C424 C 0.60349 0.49783 0.74087 0.0
C425 C 0.58208 0.4715 0.73761 0.0
H426 H 0.47659 0.37466 0.7578 0.0
C427 C 0.58001 0.49093 0.761 0.0
C428 C 0.568 0.46885 0.7512 0.0
H429 H 0.51303 0.3781 0.71778 0.0
H430 H 0.54458 0.42081 0.72571 0.0
H431 H 0.52595 0.40115 0.77966 0.0
H432 H 0.48295 0.42955 0.75817 0.0
H433 H 0.49201 0.44395 0.77654 0.0
H434 H 0.47251 0.41045 0.7733 0.0
H435 H 0.49711 0.39649 0.78604 0.0
H436 H 0.52687 0.4238 0.79264 0.0
C437 C 0.59304 0.45386 0.73694 0.0
C438 C 0.56648 0.46992 0.72308 0.0
C439 C 0.55974 0.51249 0.81198 0.0
C440 C 0.54044 0.4986 0.82097 0.0
C441 C 0.52205 0.4739 0.81564 0.0
C442 C 0.52282 0.46315 0.80177 0.0
C443 C 0.5422 0.47712 0.79298 0.0
C444 C 0.56029 0.50136 0.79808 0.0
C445 C 0.57946 0.51319 0.78709 0.0
C446 C 0.56993 0.49196 0.77466 0.0
C447 C 0.54801 0.47094 0.77821 0.0
C448 C 0.60542 0.5199 0.79467 0.0
C449 C 0.57814 0.53581 0.78185 0.0
C450 C 0.49141 0.38457 0.75075 0.0
C451 C 0.49226 0.37287 0.73712 0.0
C452 C 0.5117 0.38667 0.72823 0.0
C453 C 0.53015 0.41147 0.73292 0.0
C454 C 0.52924 0.42273 0.74667 0.0
C455 C 0.51 0.40932 0.75529 0.0
C456 C 0.51213 0.42419 0.76962 0.0
C457 C 0.5358 0.44879 0.76818 0.0
C458 C 0.54572 0.4478 0.75475 0.0
C459 C 0.51552 0.41079 0.78275 0.0
C460 C 0.48868 0.42716 0.76957 0.0
H461 H 0.62099 0.54447 0.76862 0.0
H462 H 0.62267 0.50029 0.72146 0.0
H463 H 0.56708 0.48792 0.72185 0.0
H464 H 0.54631 0.45608 0.72294 0.0
H465 H 0.57378 0.46552 0.71309 0.0
H466 H 0.6094 0.46066 0.74544 0.0
H467 H 0.59953 0.45281 0.72584 0.0
H468 H 0.57966 0.43479 0.73951 0.0
H469 H 0.57423 0.53148 0.81574 0.0
H470 H 0.50671 0.46291 0.82213 0.0
H471 H 0.50817 0.44432 0.79842 0.0
H472 H 0.60383 0.50457 0.80113 0.0
H473 H 0.61335 0.53714 0.80251 0.0
H474 H 0.61908 0.52246 0.78663 0.0
H475 H 0.55841 0.53176 0.78068 0.0
H476 H 0.58474 0.54037 0.77074 0.0
H477 H 0.58913 0.55259 0.78999 0.0
H478 H 0.65338 0.56683 0.75248 0.0
C479 C 0.6208 0.5344 0.75848 0.0
C480 C 0.63327 0.11269 0.73585 0.0
C481 C 0.65419 0.11355 0.74359 0.0
C482 C 0.65339 0.10997 0.75892 0.0
C483 C 0.61144 0.10386 0.75827 0.0
C484 C 0.61236 0.10811 0.74342 0.0
C485 C 0.58919 0.10786 0.73706 0.0
H486 H 0.48158 0.10714 0.7483 0.0
C487 C 0.5871 0.0997 0.76282 0.0
C488 C 0.57405 0.10225 0.75047 0.0
H489 H 0.51834 0.11702 0.70783 0.0
H490 H 0.54852 0.10848 0.71974 0.0
H491 H 0.4861 0.05774 0.75506 0.0
H492 H 0.53078 0.13543 0.77201 0.0
H493 H 0.52386 0.11665 0.78696 0.0
H494 H 0.49867 0.11586 0.77555 0.0
H495 H 0.47598 0.07137 0.76916 0.0
H496 H 0.49619 0.05902 0.77382 0.0
C497 C 0.576 0.08651 0.7242 0.0
C498 C 0.59739 0.13426 0.73236 0.0
C499 C 0.56477 0.07822 0.81533 0.0
C500 C 0.54374 0.07319 0.82293 0.0
C501 C 0.52357 0.07388 0.8153 0.0
C502 C 0.52451 0.0798 0.80047 0.0
C503 C 0.5458 0.085 0.79311 0.0
C504 C 0.56538 0.08397 0.80054 0.0
C505 C 0.58644 0.08979 0.791 0.0
C506 C 0.57612 0.094 0.77651 0.0
C507 C 0.55239 0.09142 0.77781 0.0
C508 C 0.58957 0.06657 0.78919 0.0
C509 C 0.61018 0.11388 0.79829 0.0
C510 C 0.496 0.1072 0.742 0.0
C511 C 0.49802 0.11361 0.72723 0.0
C512 C 0.51683 0.11302 0.71936 0.0
C513 C 0.53441 0.10805 0.7263 0.0
C514 C 0.53333 0.10351 0.74133 0.0
C515 C 0.51384 0.10217 0.74882 0.0
C516 C 0.51525 0.09569 0.76456 0.0
C517 C 0.53958 0.09501 0.76546 0.0
C518 C 0.55015 0.09987 0.75182 0.0
C519 C 0.49216 0.06971 0.76587 0.0
C520 C 0.51711 0.11688 0.77544 0.0
H521 H 0.63286 0.10226 0.77781 0.0
H522 H 0.63294 0.11529 0.72411 0.0
H523 H 0.6126 0.14892 0.74047 0.0
H524 H 0.58232 0.13885 0.73219 0.0
H525 H 0.60463 0.13647 0.72124 0.0
H526 H 0.57877 0.07057 0.72641 0.0
H527 H 0.58356 0.09298 0.71344 0.0
H528 H 0.55542 0.07837 0.7229 0.0
H529 H 0.58047 0.07754 0.82075 0.0
H530 H 0.50723 0.07031 0.8209 0.0
H531 H 0.50873 0.08034 0.79535 0.0
H532 H 0.57094 0.04918 0.78719 0.0
H533 H 0.59953 0.06522 0.7994 0.0
H534 H 0.59969 0.06637 0.77955 0.0
H535 H 0.60517 0.12605 0.80503 0.0
H536 H 0.62178 0.12578 0.78997 0.0
H537 H 0.62192 0.10942 0.80582 0.0
H538 H 0.66932 0.11131 0.76544 0.0
C539 C 0.63219 0.10495 0.76621 0.0
C540 C 0.83499 0.54979 0.94507 0.0
C541 C 0.85911 0.55703 0.94091 0.0
C542 C 0.86557 0.56656 0.92705 0.0
C543 C 0.82503 0.56322 0.92219 0.0
C544 C 0.81836 0.55325 0.9356 0.0
C545 C 0.79254 0.54809 0.93859 0.0
H546 H 0.6908 0.55825 0.91919 0.0
C547 C 0.80422 0.56579 0.91535 0.0
C548 C 0.78509 0.55698 0.92489 0.0
H549 H 0.70351 0.52445 0.9568 0.0
H550 H 0.74327 0.53331 0.94877 0.0
H551 H 0.74837 0.60487 0.91927 0.0
H552 H 0.70944 0.53105 0.89546 0.0
H553 H 0.72755 0.5526 0.88321 0.0
H554 H 0.70237 0.55478 0.89096 0.0
H555 H 0.72245 0.59503 0.90534 0.0
H556 H 0.7539 0.60698 0.90032 0.0
C557 C 0.79517 0.5642 0.95309 0.0
C558 C 0.77554 0.5196 0.93919 0.0
C559 C 0.81484 0.60565 0.86685 0.0
C560 C 0.8001 0.61231 0.85797 0.0
C561 C 0.77612 0.60608 0.86208 0.0
C562 C 0.76742 0.59422 0.87508 0.0
C563 C 0.7828 0.58837 0.88406 0.0
C564 C 0.80594 0.59387 0.87971 0.0
C565 C 0.82004 0.58665 0.89048 0.0
C566 C 0.80161 0.57581 0.90207 0.0
C567 C 0.77981 0.57689 0.89837 0.0
C568 C 0.84455 0.61075 0.89696 0.0
C569 C 0.8241 0.56658 0.88217 0.0
C570 C 0.70195 0.55251 0.92569 0.0
C571 C 0.69376 0.54079 0.93883 0.0
C572 C 0.70933 0.53403 0.94689 0.0
C573 C 0.73243 0.53898 0.94212 0.0
C574 C 0.74027 0.55073 0.92905 0.0
C575 C 0.72497 0.55702 0.92095 0.0
C576 C 0.7359 0.56834 0.90695 0.0
C577 C 0.76043 0.56815 0.90812 0.0
C578 C 0.76297 0.55802 0.9212 0.0
C579 C 0.74033 0.5952 0.90787 0.0
C580 C 0.71792 0.551 0.89336 0.0
H581 H 0.85496 0.57718 0.90737 0.0
H582 H 0.82958 0.54252 0.9557 0.0
H583 H 0.7813 0.50889 0.93168 0.0
H584 H 0.75574 0.51275 0.9352 0.0
H585 H 0.77655 0.51434 0.95064 0.0
H586 H 0.81191 0.58319 0.95344 0.0
H587 H 0.79743 0.55567 0.9631 0.0
H588 H 0.7792 0.56729 0.95406 0.0
H589 H 0.83318 0.60977 0.86394 0.0
H590 H 0.7644 0.61106 0.85549 0.0
H591 H 0.74922 0.59039 0.87777 0.0
H592 H 0.84192 0.62723 0.89755 0.0
H593 H 0.86009 0.61483 0.88995 0.0
H594 H 0.8506 0.60999 0.90857 0.0
H595 H 0.80761 0.55391 0.87409 0.0
H596 H 0.82604 0.55411 0.88968 0.0
H597 H 0.84081 0.5753 0.87583 0.0
H598 H 0.88392 0.57198 0.92354 0.0
C599 C 0.84869 0.56958 0.91767 0.0
C600 C 0.43004 0.15719 0.95827 0.0
C601 C 0.42984 0.13529 0.95299 0.0
C602 C 0.41803 0.12378 0.9386 0.0
C603 C 0.40801 0.15624 0.93493 0.0
C604 C 0.41931 0.1674 0.94905 0.0
C605 C 0.41983 0.19165 0.95252 0.0
H606 H 0.39767 0.28066 0.92889 0.0
C607 C 0.39975 0.17218 0.92797 0.0
C608 C 0.40664 0.19298 0.93821 0.0
H609 H 0.43734 0.28251 0.97043 0.0
H610 H 0.42722 0.24011 0.96397 0.0
H611 H 0.42223 0.25774 0.90925 0.0
H612 H 0.35143 0.22276 0.92798 0.0
H613 H 0.34634 0.20791 0.9099 0.0
H614 H 0.35677 0.24082 0.9124 0.0
H615 H 0.39618 0.26076 0.90235 0.0
H616 H 0.39996 0.23512 0.89552 0.0
C617 C 0.44765 0.21296 0.95511 0.0
C618 C 0.4045 0.18906 0.96595 0.0
C619 C 0.359 0.14834 0.87465 0.0
C620 C 0.35027 0.1599 0.865 0.0
C621 C 0.35076 0.18191 0.87043 0.0
C622 C 0.36035 0.19256 0.88512 0.0
C623 C 0.36976 0.18123 0.89448 0.0
C624 C 0.3686 0.15927 0.88927 0.0
C625 C 0.37948 0.14987 0.90077 0.0
C626 C 0.38754 0.16991 0.9137 0.0
C627 C 0.38197 0.18832 0.90991 0.0
C628 C 0.40219 0.14938 0.89464 0.0
C629 C 0.35827 0.1242 0.90446 0.0
C630 C 0.40423 0.272 0.93662 0.0
C631 C 0.4186 0.28521 0.95013 0.0
C632 C 0.42613 0.27285 0.95999 0.0
C633 C 0.4205 0.24828 0.95614 0.0
C634 C 0.40749 0.23596 0.94219 0.0
C635 C 0.39921 0.24768 0.93281 0.0
C636 C 0.38664 0.23225 0.91817 0.0
C637 C 0.38916 0.20951 0.92019 0.0
C638 C 0.40132 0.21176 0.93429 0.0
C639 C 0.40178 0.24712 0.90557 0.0
C640 C 0.35886 0.22563 0.91688 0.0
H641 H 0.39862 0.1245 0.91875 0.0
H642 H 0.43866 0.16647 0.96929 0.0
H643 H 0.38711 0.17043 0.96489 0.0
H644 H 0.3981 0.20276 0.96675 0.0
H645 H 0.41554 0.19097 0.97659 0.0
H646 H 0.45995 0.20824 0.94883 0.0
H647 H 0.45478 0.21657 0.96709 0.0
H648 H 0.45067 0.23056 0.95101 0.0
H649 H 0.35911 0.13155 0.8708 0.0
H650 H 0.34376 0.19095 0.8633 0.0
H651 H 0.36039 0.20942 0.88854 0.0
H652 H 0.41194 0.16469 0.88743 0.0
H653 H 0.39615 0.13146 0.88784 0.0
H654 H 0.41684 0.15257 0.90349 0.0
H655 H 0.34016 0.12397 0.90448 0.0
H656 H 0.3616 0.11967 0.9157 0.0
H657 H 0.3555 0.10898 0.89608 0.0
H658 H 0.41792 0.1072 0.93405 0.0
C659 C 0.40701 0.13402 0.92962 0.0
C660 C 0.7176 0.15866 0.94379 0.0
C661 C 0.69429 0.13727 0.93894 0.0
C662 C 0.69037 0.12709 0.9239 0.0
C663 C 0.73188 0.15997 0.91914 0.0
C664 C 0.73548 0.16996 0.93376 0.0
C665 C 0.75927 0.1946 0.93707 0.0
H666 H 0.86305 0.28885 0.9138 0.0
C667 C 0.75426 0.17702 0.91168 0.0
C668 C 0.77 0.1975 0.92219 0.0
H669 H 0.83336 0.2851 0.95645 0.0
H670 H 0.80036 0.24305 0.9489 0.0
H671 H 0.85593 0.23535 0.9114 0.0
H672 H 0.81 0.26342 0.89391 0.0
H673 H 0.81072 0.24335 0.87962 0.0
H674 H 0.83958 0.27045 0.8875 0.0
H675 H 0.8612 0.24923 0.89417 0.0
H676 H 0.84023 0.21617 0.89481 0.0
C677 C 0.77606 0.19199 0.94938 0.0
C678 C 0.75225 0.21486 0.94119 0.0
C679 C 0.76691 0.15498 0.85838 0.0
C680 C 0.78702 0.16725 0.84955 0.0
C681 C 0.80769 0.19051 0.85533 0.0
C682 C 0.80868 0.20128 0.86955 0.0
C683 C 0.78877 0.18885 0.87828 0.0
C684 C 0.7683 0.16604 0.87278 0.0
C685 C 0.74913 0.15577 0.88399 0.0
C686 C 0.76195 0.17586 0.89716 0.0
C687 C 0.785 0.19531 0.89353 0.0
C688 C 0.74577 0.13044 0.88778 0.0
C689 C 0.7247 0.15414 0.87735 0.0
C690 C 0.84931 0.27906 0.92147 0.0
C691 C 0.85087 0.29054 0.93573 0.0
C692 C 0.83288 0.27677 0.94546 0.0
C693 C 0.81344 0.25237 0.94098 0.0
C694 C 0.81165 0.24152 0.92652 0.0
C695 C 0.82958 0.2547 0.91712 0.0
C696 C 0.82469 0.24009 0.9022 0.0
C697 C 0.80026 0.21638 0.90402 0.0
C698 C 0.79282 0.21736 0.91828 0.0
C699 C 0.84662 0.235 0.90041 0.0
C700 C 0.82119 0.25502 0.89007 0.0
H701 H 0.70491 0.12962 0.9028 0.0
H702 H 0.72207 0.16703 0.9552 0.0
H703 H 0.73285 0.20908 0.93656 0.0
H704 H 0.76417 0.23259 0.93643 0.0
H705 H 0.75331 0.21865 0.95347 0.0
H706 H 0.77531 0.17377 0.94742 0.0
H707 H 0.76973 0.1929 0.96055 0.0
H708 H 0.79608 0.20631 0.94964 0.0
H709 H 0.75073 0.13711 0.85426 0.0
H710 H 0.82314 0.20068 0.84873 0.0
H711 H 0.82497 0.21901 0.87315 0.0
H712 H 0.76436 0.13199 0.89024 0.0
H713 H 0.73543 0.11584 0.87828 0.0
H714 H 0.7357 0.12391 0.89773 0.0
H715 H 0.72898 0.17046 0.87107 0.0
H716 H 0.71297 0.1546 0.88598 0.0
H717 H 0.71347 0.13697 0.86953 0.0
H718 H 0.67268 0.11089 0.91955 0.0
C719 C 0.70907 0.13816 0.91406 0.0
C720 C 0.58889 0.85572 0.05799 0.0
C721 C 0.59039 0.8781 0.06352 0.0
C722 C 0.59859 0.88683 0.07871 0.0
C723 C 0.60328 0.851 0.08251 0.0
C724 C 0.59542 0.8426 0.0676 0.0
C725 C 0.59453 0.8184 0.06342 0.0
H726 H 0.6074 0.72239 0.08402 0.0
C727 C 0.60833 0.83275 0.08942 0.0
C728 C 0.60333 0.81369 0.07824 0.0
H729 H 0.58374 0.73255 0.04029 0.0
H730 H 0.58954 0.77237 0.04973 0.0
H731 H 0.6532 0.77803 0.09134 0.0
H732 H 0.57686 0.74225 0.10217 0.0
H733 H 0.59605 0.76074 0.11827 0.0
H734 H 0.59982 0.73567 0.11032 0.0
H735 H 0.64291 0.75806 0.10607 0.0
H736 H 0.65403 0.79108 0.10929 0.0
C737 C 0.6133 0.82291 0.05165 0.0
C738 C 0.56694 0.79836 0.05811 0.0
C739 C 0.63482 0.84427 0.14508 0.0
C740 C 0.64067 0.83019 0.15445 0.0
C741 C 0.64046 0.80876 0.14816 0.0
C742 C 0.63405 0.80116 0.13288 0.0
C743 C 0.62771 0.81507 0.12372 0.0
C744 C 0.62854 0.83645 0.12978 0.0
C745 C 0.6218 0.84915 0.11819 0.0
C746 C 0.61636 0.83158 0.10426 0.0
C747 C 0.61967 0.81157 0.10763 0.0
C748 C 0.64494 0.87527 0.11728 0.0
C749 C 0.59809 0.84962 0.12239 0.0
C750 C 0.60379 0.73335 0.07644 0.0
C751 C 0.59499 0.72425 0.0614 0.0
C752 C 0.59019 0.73897 0.05197 0.0
C753 C 0.59366 0.76216 0.05747 0.0
C754 C 0.60196 0.77075 0.07259 0.0
C755 C 0.60709 0.75652 0.08177 0.0
C756 C 0.61557 0.76854 0.09754 0.0
C757 C 0.61448 0.79226 0.09634 0.0
C758 C 0.60644 0.79338 0.08172 0.0
C759 C 0.64276 0.77414 0.10141 0.0
C760 C 0.59629 0.75097 0.10773 0.0
H761 H 0.61112 0.88102 0.09965 0.0
H762 H 0.5823 0.84823 0.04645 0.0
H763 H 0.55368 0.8016 0.0644 0.0
H764 H 0.56242 0.77927 0.06011 0.0
H765 H 0.56242 0.79876 0.04609 0.0
H766 H 0.6301 0.84193 0.05386 0.0
H767 H 0.60458 0.8213 0.04024 0.0
H768 H 0.62083 0.81011 0.05185 0.0
H769 H 0.63513 0.86099 0.14955 0.0
H770 H 0.64464 0.79746 0.15514 0.0
H771 H 0.63395 0.78453 0.12884 0.0
H772 H 0.66266 0.87487 0.11925 0.0
H773 H 0.64557 0.88929 0.12579 0.0
H774 H 0.64562 0.88192 0.10615 0.0
H775 H 0.58459 0.83173 0.12661 0.0
H776 H 0.58757 0.85162 0.11281 0.0
H777 H 0.60298 0.86492 0.13128 0.0
H778 H 0.60019 0.90417 0.08324 0.0
C779 C 0.60506 0.87343 0.08822 0.0
C780 C 0.30191 0.83843 0.06447 0.0
C781 C 0.32305 0.86172 0.06963 0.0
C782 C 0.32352 0.87302 0.0838 0.0
C783 C 0.28266 0.83792 0.08726 0.0
C784 C 0.2823 0.82685 0.07345 0.0
C785 C 0.25951 0.8014 0.06981 0.0
H786 H 0.14926 0.71002 0.08894 0.0
C787 C 0.25929 0.82073 0.09372 0.0
C788 C 0.24578 0.79926 0.08351 0.0
H789 H 0.18815 0.70818 0.0509 0.0
H790 H 0.22084 0.75052 0.05841 0.0
H791 H 0.19641 0.73232 0.11151 0.0
H792 H 0.16068 0.76645 0.08843 0.0
H793 H 0.17016 0.78164 0.1066 0.0
H794 H 0.14806 0.7485 0.1038 0.0
H795 H 0.16844 0.73095 0.11715 0.0
H796 H 0.19924 0.75619 0.12423 0.0
C797 C 0.26821 0.78191 0.06841 0.0
C798 C 0.24459 0.80183 0.05559 0.0
C799 C 0.24009 0.84383 0.14465 0.0
C800 C 0.21958 0.83111 0.15306 0.0
C801 C 0.1991 0.808 0.14688 0.0
C802 C 0.19919 0.79738 0.13283 0.0
C803 C 0.21999 0.80988 0.12474 0.0
C804 C 0.2399 0.83284 0.13053 0.0
C805 C 0.26021 0.84327 0.12008 0.0
C806 C 0.24922 0.82259 0.10723 0.0
C807 C 0.22571 0.8031 0.11014 0.0
C808 C 0.28453 0.84634 0.12807 0.0
C809 C 0.26271 0.86783 0.11528 0.0
C810 C 0.16487 0.71849 0.08225 0.0
C811 C 0.16592 0.70541 0.06928 0.0
C812 C 0.18649 0.71771 0.06082 0.0
C813 C 0.20571 0.7423 0.0653 0.0
C814 C 0.20465 0.75474 0.07852 0.0
C815 C 0.18447 0.74277 0.08673 0.0
C816 C 0.18704 0.75822 0.10088 0.0
C817 C 0.21223 0.78141 0.09987 0.0
C818 C 0.2223 0.77942 0.08669 0.0
C819 C 0.18766 0.74378 0.11421 0.0
C820 C 0.16533 0.76396 0.10005 0.0
H821 H 0.305 0.87081 0.10326 0.0
H822 H 0.30046 0.8292 0.05361 0.0
H823 H 0.24361 0.81926 0.05611 0.0
H824 H 0.22494 0.78639 0.05415 0.0
H825 H 0.25371 0.8011 0.04547 0.0
H826 H 0.28666 0.78875 0.07492 0.0
H827 H 0.27024 0.77761 0.05663 0.0
H828 H 0.25539 0.76433 0.07304 0.0
H829 H 0.2561 0.86164 0.14907 0.0
H830 H 0.1828 0.7981 0.15291 0.0
H831 H 0.18303 0.77972 0.12888 0.0
H832 H 0.2802 0.83064 0.13495 0.0
H833 H 0.29463 0.86399 0.1356 0.0
H834 H 0.29741 0.84587 0.12025 0.0
H835 H 0.2439 0.86588 0.11307 0.0
H836 H 0.27158 0.87311 0.10483 0.0
H837 H 0.27357 0.88348 0.12417 0.0
H838 H 0.33961 0.89072 0.08826 0.0
C839 C 0.30344 0.86132 0.09258 0.0
C840 C 0.30083 0.45573 0.06947 0.0
C841 C 0.32045 0.45353 0.07655 0.0
C842 C 0.31931 0.44851 0.09164 0.0
C843 C 0.27883 0.4458 0.09183 0.0
C844 C 0.28042 0.45198 0.07733 0.0
C845 C 0.25811 0.45372 0.0715 0.0
H846 H 0.14298 0.43751 0.0802 0.0
C847 C 0.25465 0.44188 0.09655 0.0
C848 C 0.24257 0.44682 0.08474 0.0
H849 H 0.18732 0.46422 0.04301 0.0
H850 H 0.22098 0.46188 0.05591 0.0
H851 H 0.15689 0.39535 0.08629 0.0
H852 H 0.19023 0.47122 0.10638 0.0
H853 H 0.18677 0.45177 0.12054 0.0
H854 H 0.1593 0.4473 0.10957 0.0
H855 H 0.14113 0.40488 0.09894 0.0
H856 H 0.16299 0.39556 0.10555 0.0
C857 C 0.24468 0.4341 0.05779 0.0
C858 C 0.26747 0.48106 0.06821 0.0
C859 C 0.22697 0.40785 0.14619 0.0
C860 C 0.20475 0.40006 0.15315 0.0
C861 C 0.1857 0.40331 0.14618 0.0
C862 C 0.18846 0.41346 0.13242 0.0
C863 C 0.21047 0.42037 0.12543 0.0
C864 C 0.22934 0.4177 0.13241 0.0
C865 C 0.25131 0.42566 0.12334 0.0
C866 C 0.24249 0.43334 0.10966 0.0
C867 C 0.21852 0.43023 0.11091 0.0
C868 C 0.25418 0.40262 0.11952 0.0
C869 C 0.27466 0.44809 0.13227 0.0
C870 C 0.16007 0.44309 0.07494 0.0
C871 C 0.16229 0.45073 0.06044 0.0
C872 C 0.18485 0.45776 0.054 0.0
C873 C 0.20451 0.45651 0.06155 0.0
C874 C 0.20177 0.4481 0.07578 0.0
C875 C 0.18001 0.44188 0.08237 0.0
C876 C 0.1807 0.43337 0.0976 0.0
C877 C 0.20646 0.43568 0.09902 0.0
C878 C 0.21856 0.44413 0.08611 0.0
C879 C 0.15927 0.40592 0.09723 0.0
C880 C 0.179 0.45167 0.10922 0.0
H881 H 0.29893 0.44051 0.11062 0.0
H882 H 0.30094 0.45966 0.05795 0.0
H883 H 0.28501 0.49441 0.07533 0.0
H884 H 0.25403 0.48726 0.0708 0.0
H885 H 0.27147 0.48364 0.05641 0.0
H886 H 0.24398 0.41629 0.05985 0.0
H887 H 0.25473 0.44079 0.04774 0.0
H888 H 0.22496 0.42903 0.05523 0.0
H889 H 0.24226 0.40617 0.15129 0.0
H890 H 0.1683 0.39737 0.15114 0.0
H891 H 0.17317 0.41515 0.12764 0.0
H892 H 0.2355 0.3856 0.11646 0.0
H893 H 0.26342 0.39906 0.12921 0.0
H894 H 0.26481 0.40429 0.10984 0.0
H895 H 0.26924 0.45945 0.13947 0.0
H896 H 0.28772 0.46134 0.12499 0.0
H897 H 0.28492 0.44172 0.13961 0.0
H898 H 0.33441 0.44755 0.09765 0.0
C899 C 0.29869 0.44458 0.09925 0.0
C900 C 0.50041 0.87892 0.27584 0.0
C901 C 0.52191 0.88203 0.26941 0.0
C902 C 0.52801 0.89376 0.25615 0.0
C903 C 0.49034 0.89659 0.25504 0.0
C904 C 0.48491 0.88633 0.26845 0.0
C905 C 0.46075 0.88359 0.27325 0.0
H906 H 0.35473 0.88793 0.25681 0.0
C907 C 0.46976 0.90065 0.24965 0.0
C908 C 0.45245 0.89339 0.26033 0.0
H909 H 0.37674 0.86574 0.29678 0.0
H910 H 0.4165 0.87648 0.28768 0.0
H911 H 0.40935 0.9377 0.25499 0.0
H912 H 0.37628 0.86265 0.23338 0.0
H913 H 0.38923 0.88433 0.22014 0.0
H914 H 0.36389 0.88274 0.22975 0.0
H915 H 0.3843 0.92573 0.24025 0.0
H916 H 0.41663 0.93936 0.2364 0.0
C917 C 0.46691 0.90038 0.28805 0.0
C918 C 0.44233 0.8555 0.27426 0.0
C919 C 0.46877 0.92694 0.19764 0.0
C920 C 0.45209 0.93129 0.18892 0.0
C921 C 0.4312 0.93001 0.19525 0.0
C922 C 0.42649 0.92341 0.20989 0.0
C923 C 0.44295 0.91822 0.2183 0.0
C924 C 0.46398 0.92066 0.2122 0.0
C925 C 0.47995 0.91525 0.22271 0.0
C926 C 0.46487 0.90862 0.23608 0.0
C927 C 0.44302 0.91006 0.23346 0.0
C928 C 0.50583 0.93947 0.22634 0.0
C929 C 0.48107 0.89267 0.21535 0.0
C930 C 0.36809 0.8853 0.26358 0.0
C931 C 0.36239 0.87571 0.2775 0.0
C932 C 0.38061 0.87318 0.28608 0.0
C933 C 0.40365 0.87924 0.28071 0.0
C934 C 0.40867 0.88793 0.26657 0.0
C935 C 0.39124 0.89131 0.25837 0.0
C936 C 0.40007 0.90124 0.2437 0.0
C937 C 0.42547 0.90285 0.24434 0.0
C938 C 0.43028 0.89479 0.25775 0.0
C939 C 0.40262 0.92731 0.24368 0.0
C940 C 0.38142 0.8819 0.23099 0.0
H941 H 0.518 0.90939 0.23879 0.0
H942 H 0.49526 0.87009 0.28605 0.0
H943 H 0.44332 0.84397 0.26471 0.0
H944 H 0.42254 0.85068 0.27371 0.0
H945 H 0.44697 0.84938 0.28469 0.0
H946 H 0.4859 0.91726 0.28862 0.0
H947 H 0.46656 0.89022 0.29783 0.0
H948 H 0.45408 0.90779 0.28924 0.0
H949 H 0.4852 0.92819 0.19314 0.0
H950 H 0.41812 0.93335 0.18872 0.0
H951 H 0.41003 0.92224 0.21402 0.0
H952 H 0.50436 0.95645 0.2252 0.0
H953 H 0.51955 0.94002 0.21872 0.0
H954 H 0.5137 0.9418 0.23802 0.0
H955 H 0.46248 0.87849 0.20954 0.0
H956 H 0.48565 0.88255 0.22341 0.0
H957 H 0.4949 0.89859 0.20695 0.0
H958 H 0.54478 0.897 0.25116 0.0
C959 C 0.51244 0.90105 0.24898 0.0
C960 C 0.0951 0.49258 0.28967 0.0
C961 C 0.09711 0.47244 0.28343 0.0
C962 C 0.08898 0.46406 0.2682 0.0
C963 C 0.07844 0.49651 0.26566 0.0
C964 C 0.0861 0.50443 0.28061 0.0
C965 C 0.08472 0.52722 0.28541 0.0
H966 H 0.06526 0.62065 0.26772 0.0
C967 C 0.0712 0.51372 0.25934 0.0
C968 C 0.07507 0.53184 0.27084 0.0
H969 H 0.08866 0.60789 0.31075 0.0
H970 H 0.08509 0.56976 0.30016 0.0
H971 H 0.09736 0.60308 0.24787 0.0
H972 H 0.02123 0.56334 0.25933 0.0
H973 H 0.02106 0.55263 0.24088 0.0
H974 H 0.03048 0.585 0.24547 0.0
H975 H 0.07359 0.60953 0.24094 0.0
H976 H 0.07747 0.58532 0.23173 0.0
C977 C 0.11167 0.54858 0.29099 0.0
C978 C 0.06552 0.52027 0.29716 0.0
C979 C 0.03727 0.49877 0.20495 0.0
C980 C 0.02884 0.51133 0.19594 0.0
C981 C 0.03046 0.53358 0.20205 0.0
C982 C 0.03983 0.54285 0.21697 0.0
C983 C 0.04771 0.52978 0.2259 0.0
C984 C 0.04651 0.50822 0.21981 0.0
C985 C 0.05586 0.49685 0.23088 0.0
C986 C 0.06214 0.51469 0.24475 0.0
C987 C 0.05745 0.53403 0.24178 0.0
C988 C 0.07954 0.49762 0.2254 0.0
C989 C 0.03412 0.47031 0.23271 0.0
C990 C 0.06967 0.60959 0.27478 0.0
C991 C 0.07728 0.61727 0.29008 0.0
C992 C 0.08251 0.60224 0.29898 0.0
C993 C 0.0806 0.58016 0.29278 0.0
C994 C 0.0734 0.57288 0.27747 0.0
C995 C 0.06765 0.58722 0.26875 0.0
C996 C 0.05929 0.57574 0.25281 0.0
C997 C 0.06183 0.55267 0.25338 0.0
C998 C 0.07028 0.5513 0.26785 0.0
C999 C 0.0777 0.59433 0.24269 0.0
C1000 C 0.03164 0.56891 0.24929 0.0
H1001 H 0.07399 0.46887 0.24776 0.0
H1002 H 0.10074 0.49931 0.30136 0.0
H1003 H 0.05023 0.50044 0.29492 0.0
H1004 H 0.05578 0.5311 0.29697 0.0
H1005 H 0.07464 0.52273 0.30858 0.0
H1006 H 0.1258 0.5472 0.28452 0.0
H1007 H 0.11645 0.5478 0.30291 0.0
H1008 H 0.11466 0.56734 0.2895 0.0
H1009 H 0.03673 0.48189 0.20053 0.0
H1010 H 0.02396 0.54353 0.19538 0.0
H1011 H 0.04041 0.55974 0.221 0.0
H1012 H 0.09004 0.51394 0.21901 0.0
H1013 H 0.07448 0.48053 0.21799 0.0
H1014 H 0.09325 0.49998 0.23467 0.0
H1015 H 0.01612 0.47023 0.23306 0.0
H1016 H 0.03666 0.46327 0.24321 0.0
H1017 H 0.03173 0.45681 0.22323 0.0
H1018 H 0.09051 0.44876 0.26303 0.0
C1019 C 0.0796 0.47594 0.2593 0.0
C1020 C 0.38025 0.48374 0.278 0.0
C1021 C 0.358 0.46296 0.27126 0.0
C1022 C 0.35706 0.45414 0.25636 0.0
C1023 C 0.39985 0.48736 0.2549 0.0
C1024 C 0.40075 0.49579 0.2696 0.0
C1025 C 0.42485 0.51963 0.27461 0.0
H1026 H 0.53598 0.61422 0.25834 0.0
C1027 C 0.42372 0.50505 0.24905 0.0
C1028 C 0.43834 0.52407 0.26058 0.0
H1029 H 0.50271 0.60525 0.30004 0.0
H1030 H 0.46738 0.5658 0.2896 0.0
H1031 H 0.52419 0.55826 0.25279 0.0
H1032 H 0.48557 0.59522 0.23709 0.0
H1033 H 0.48513 0.57595 0.22188 0.0
H1034 H 0.51477 0.6007 0.2308 0.0
H1035 H 0.5345 0.57796 0.23794 0.0
H1036 H 0.51172 0.54504 0.23444 0.0
C1037 C 0.43872 0.51454 0.28752 0.0
C1038 C 0.41845 0.54028 0.27875 0.0
C1039 C 0.43998 0.49104 0.19535 0.0
C1040 C 0.4605 0.50459 0.18706 0.0
C1041 C 0.48151 0.52659 0.19409 0.0
C1042 C 0.48218 0.53498 0.20894 0.0
C1043 C 0.46159 0.52138 0.21702 0.0
C1044 C 0.44097 0.49972 0.21028 0.0
C1045 C 0.42087 0.48783 0.22074 0.0
C1046 C 0.433 0.50581 0.23486 0.0
C1047 C 0.45677 0.52553 0.23251 0.0
C1048 C 0.41683 0.46164 0.22301 0.0
C1049 C 0.39712 0.48766 0.21413 0.0
C1050 C 0.52123 0.60368 0.26529 0.0
C1051 C 0.52218 0.61304 0.28005 0.0
C1052 C 0.50232 0.59874 0.28858 0.0
C1053 C 0.48185 0.57572 0.28251 0.0
C1054 C 0.48104 0.56682 0.26768 0.0
C1055 C 0.50063 0.58068 0.25939 0.0
C1056 C 0.4967 0.56831 0.24386 0.0
C1057 C 0.47133 0.5449 0.24412 0.0
C1058 C 0.46222 0.54414 0.25808 0.0
C1059 C 0.51788 0.56215 0.242 0.0
C1060 C 0.49563 0.58588 0.23272 0.0
H1061 H 0.37595 0.4586 0.23685 0.0
H1062 H 0.38121 0.49125 0.28931 0.0
H1063 H 0.40161 0.53723 0.27172 0.0
H1064 H 0.43337 0.5591 0.27673 0.0
H1065 H 0.41445 0.5405 0.29058 0.0
H1066 H 0.43667 0.49575 0.28537 0.0
H1067 H 0.43098 0.51511 0.29825 0.0
H1068 H 0.45914 0.52772 0.28883 0.0
H1069 H 0.42357 0.47399 0.19038 0.0
H1070 H 0.49738 0.53772 0.18799 0.0
H1071 H 0.4987 0.55194 0.2135 0.0
H1072 H 0.43513 0.46224 0.22432 0.0
H1073 H 0.40537 0.44801 0.21327 0.0
H1074 H 0.40783 0.45438 0.2332 0.0
H1075 H 0.40226 0.50462 0.2083 0.0
H1076 H 0.38533 0.48814 0.22272 0.0
H1077 H 0.38561 0.47111 0.2059 0.0
H1078 H 0.33994 0.43828 0.25094 0.0
C1079 C 0.37791 0.46606 0.24819 0.0
Tb1080 Tb 0.50081 0.99104 0.98918 0.0
Eu1081 Eu 0.51692 0.01799 0.02415 0.0
C1082 C 0.52471 0.97284 0.01358 0.0
C1083 C 0.46426 0.96916 0.01367 0.0
C1084 C 0.49578 0.98651 0.9482 0.0
C1085 C 0.49596 0.98455 0.92123 0.0
C1086 C 0.48856 0.97255 0.93422 0.0
C1087 C 0.5101 0.01265 0.94902 0.0
C1088 C 0.51761 0.02463 0.93608 0.0
C1089 C 0.51089 0.01074 0.92202 0.0
C1090 C 0.48974 0.97392 0.96197 0.0
O1091 O 0.48576 0.01614 0.99198 0.0
O1092 O 0.51381 0.04526 0.0105 0.0
O1093 O 0.55255 0.03674 0.01255 0.0
O1094 O 0.53488 0.02618 0.98809 0.0
C1095 C 0.49698 0.03871 0.99911 0.0
O1096 O 0.50856 0.03501 0.04317 0.0
O1097 O 0.53935 0.02781 0.04564 0.0
O1098 O 0.51667 0.98187 0.02398 0.0
O1099 O 0.52437 0.97817 0.99973 0.0
O1100 O 0.47397 0.96369 1.00248 0.0
O1101 O 0.47516 0.99184 0.02049 0.0
C1102 C 0.55417 0.03881 0.99814 0.0
O1103 O 0.50896 0.97633 0.97017 0.0
O1104 O 0.47482 0.97757 0.97005 0.0
C1105 C 0.51456 0.02061 0.06571 0.0
C1106 C 0.49614 0.9947 0.091 0.0
C1107 C 0.51361 0.02051 0.09261 0.0
C1108 C 0.52278 0.03332 0.08007 0.0
C1109 C 0.4967 0.99501 0.06402 0.0
C1110 C 0.48759 0.9822 0.07652 0.0
C1111 C 0.52473 0.03378 0.05249 0.0
H1112 H 0.49065 0.97327 0.91061 0.0
H1113 H 0.47763 0.95235 0.93338 0.0
H1114 H 0.51582 0.0238 0.95971 0.0
H1115 H 0.52877 0.04482 0.93711 0.0
H1116 H 0.52075 0.03065 0.10359 0.0
H1117 H 0.53653 0.05308 0.08159 0.0
H1118 H 0.48998 0.98488 0.05301 0.0
H1119 H 0.4739 0.96244 0.07484 0.0
Tb1120 Tb 0.01899 0.50919 0.99052 0.0
Eu1121 Eu 0.98538 0.48641 0.01861 0.0
C1122 C 0.03703 0.53984 0.02199 0.0
C1123 C 0.03384 0.48201 0.01428 0.0
C1124 C 0.02888 0.5224 0.95201 0.0
C1125 C 0.03071 0.52098 0.92521 0.0
C1126 C 0.04245 0.52518 0.93966 0.0
C1127 C 0.00366 0.51607 0.94982 0.0
C1128 C 0.99193 0.51183 0.93543 0.0
C1129 C 0.00516 0.51375 0.92295 0.0
C1130 C 0.04004 0.52374 0.96706 0.0
O1131 O 0.98257 0.47848 0.98122 0.0
O1132 O 0.97349 0.45477 1.00074 0.0
O1133 O 0.96327 0.49692 1.00279 0.0
O1134 O 0.99752 0.52784 0.99351 0.0
C1135 C 0.97085 0.4567 0.98647 0.0
O1136 O 0.96732 0.4568 0.03313 0.0
O1137 O 0.96305 0.48937 0.03561 0.0
O1138 O 0.01448 0.52632 0.02628 0.0
O1139 O 0.04382 0.53395 0.00955 0.0
O1140 O 0.03137 0.48527 1.00015 0.0
O1141 O 0.02115 0.48605 0.02414 0.0
C1142 C 0.97377 0.51713 0.99582 0.0
O1143 O 0.03826 0.53841 0.97723 0.0
O1144 O 0.03386 0.50216 0.97172 0.0
C1145 C 0.96449 0.47079 0.0573 0.0
C1146 C 0.9746 0.47329 0.08836 0.0
C1147 C 0.95008 0.45798 0.08139 0.0
C1148 C 0.94509 0.45676 0.06599 0.0
C1149 C 0.98897 0.48624 0.06415 0.0
C1150 C 0.99398 0.48753 0.07958 0.0
C1151 C 0.95907 0.46889 0.04111 0.0
H1152 H 0.04132 0.52236 0.91582 0.0
H1153 H 0.06187 0.52983 0.94116 0.0
H1154 H 0.99284 0.51374 0.95924 0.0
H1155 H 0.97234 0.50661 0.93407 0.0
H1156 H 0.93469 0.44706 0.08786 0.0
H1157 H 0.92609 0.44478 0.06085 0.0
H1158 H 0.00419 0.49714 0.05755 0.0
H1159 H 0.01309 0.49928 0.08458 0.0
Tb1160 Tb 0.51586 0.49676 0.01806 0.0
Eu1161 Eu 0.49419 0.51527 0.9899 0.0
C1162 C 0.48566 0.46038 0.98922 0.0
C1163 C 0.54592 0.51289 0.98982 0.0
C1164 C 0.51788 0.48196 0.05685 0.0
C1165 C 0.52221 0.49931 0.08253 0.0
C1166 C 0.53213 0.50005 0.06887 0.0
C1167 C 0.49373 0.4626 0.059 0.0
C1168 C 0.48381 0.46185 0.07265 0.0
C1169 C 0.49778 0.48037 0.08457 0.0
C1170 C 0.52776 0.48433 0.042 0.0
O1171 O 0.5382 0.53718 0.01861 0.0
O1172 O 0.50792 0.54476 0.00924 0.0
O1173 O 0.46149 0.49494 1.00353 0.0
O1174 O 0.48536 0.50111 0.02548 0.0
C1175 C 0.52904 0.55209 0.01741 0.0
O1176 O 0.49956 0.54532 0.97649 0.0
O1177 O 0.46727 0.50829 0.97089 0.0
O1178 O 0.49165 0.47948 0.98157 0.0
O1179 O 0.48871 0.46297 1.00387 0.0
O1180 O 0.54077 0.49921 1.00116 0.0
O1181 O 0.53316 0.52371 0.98577 0.0
C1182 C 0.46371 0.49419 0.01802 0.0
O1183 O 0.51276 0.46839 0.03096 0.0
O1184 O 0.53972 0.50681 0.03794 0.0
C1185 C 0.48775 0.53113 0.95072 0.0
C1186 C 0.50244 0.53221 0.92141 0.0
C1187 C 0.51465 0.55366 0.93172 0.0
C1188 C 0.50733 0.55315 0.94615 0.0
C1189 C 0.47519 0.5098 0.94033 0.0
C1190 C 0.48245 0.51034 0.92588 0.0
C1191 C 0.48131 0.53031 0.96639 0.0
H1192 H 0.53348 0.51405 0.09135 0.0
H1193 H 0.55079 0.51518 0.06759 0.0
H1194 H 0.48225 0.44818 0.05006 0.0
H1195 H 0.46512 0.44672 0.07385 0.0
H1196 H 0.53027 0.57078 0.92877 0.0
H1197 H 0.51736 0.56995 0.95382 0.0
H1198 H 0.45988 0.49255 0.94339 0.0
H1199 H 0.47228 0.4936 0.91818 0.0
Tb1200 Tb 0.15808 0.32407 0.32087 0.0
Eu1201 Eu 0.181 0.35191 0.35543 0.0
C1202 C 0.18538 0.30583 0.3429 0.0
C1203 C 0.1257 0.30329 0.34759 0.0
C1204 C 0.15199 0.31688 0.27935 0.0
C1205 C 0.18413 0.33357 0.26207 0.0
C1206 C 0.17671 0.3252 0.27595 0.0
C1207 C 0.13511 0.31784 0.26868 0.0
C1208 C 0.14263 0.32646 0.25481 0.0
C1209 C 0.16713 0.33404 0.25126 0.0
C1210 C 0.14354 0.30683 0.29377 0.0
O1211 O 0.14231 0.34778 0.32646 0.0
O1212 O 0.17402 0.3781 0.34287 0.0
O1213 O 0.21384 0.36931 0.3412 0.0
O1214 O 0.19081 0.35955 0.31834 0.0
C1215 C 0.1549 0.37085 0.33286 0.0
O1216 O 0.17751 0.37 0.37592 0.0
O1217 O 0.20821 0.36266 0.37492 0.0
O1218 O 0.17958 0.31539 0.3542 0.0
O1219 O 0.18302 0.31107 0.32923 0.0
O1220 O 0.13218 0.29766 0.33494 0.0
O1221 O 0.1393 0.32527 0.3553 0.0
C1222 C 0.21202 0.37224 0.32692 0.0
O1223 O 0.15878 0.30283 0.30212 0.0
O1224 O 0.13343 0.31702 0.30168 0.0
C1225 C 0.18962 0.35716 0.39779 0.0
C1226 C 0.17841 0.33272 0.42424 0.0
C1227 C 0.16051 0.33643 0.4163 0.0
C1228 C 0.16601 0.34844 0.4032 0.0
C1229 C 0.2077 0.35401 0.40596 0.0
C1230 C 0.20215 0.34188 0.41897 0.0
C1231 C 0.19544 0.36883 0.38352 0.0
H1232 H 0.20324 0.33963 0.25978 0.0
H1233 H 0.19033 0.32503 0.28395 0.0
H1234 H 0.11599 0.31161 0.27101 0.0
H1235 H 0.12906 0.32648 0.24669 0.0
H1236 H 0.142 0.32945 0.41998 0.0
H1237 H 0.15158 0.35051 0.39722 0.0
H1238 H 0.2261 0.36067 0.40217 0.0
H1239 H 0.21651 0.33968 0.42492 0.0
Tb1240 Tb 0.68459 0.83781 0.32965 0.0
Eu1241 Eu 0.64464 0.8205 0.3553 0.0
C1242 C 0.69414 0.87408 0.35848 0.0
C1243 C 0.69705 0.81972 0.3591 0.0
C1244 C 0.70306 0.84788 0.29185 0.0
C1245 C 0.7123 0.86072 0.26702 0.0
C1246 C 0.72042 0.86157 0.28195 0.0
C1247 C 0.67762 0.83278 0.2866 0.0
C1248 C 0.66946 0.83221 0.27179 0.0
C1249 C 0.68665 0.84648 0.26191 0.0
C1250 C 0.71077 0.85132 0.3079 0.0
O1251 O 0.66353 0.79711 0.32694 0.0
O1252 O 0.62712 0.79002 0.3363 0.0
O1253 O 0.63376 0.84127 0.33964 0.0
O1254 O 0.64906 0.83174 0.31945 0.0
C1255 C 0.6395 0.78251 0.32816 0.0
O1256 O 0.61887 0.79163 0.36833 0.0
O1257 O 0.62408 0.82887 0.3713 0.0
O1258 O 0.67913 0.85518 0.36552 0.0
O1259 O 0.69456 0.8718 0.34394 0.0
O1260 O 0.70595 0.83375 0.34811 0.0
O1261 O 0.6736 0.81005 0.36218 0.0
C1262 C 0.63442 0.83895 0.32518 0.0
O1263 O 0.70467 0.86547 0.31566 0.0
O1264 O 0.70541 0.83116 0.31422 0.0
C1265 C 0.61903 0.80747 0.39258 0.0
C1266 C 0.62758 0.80741 0.42354 0.0
C1267 C 0.60297 0.79615 0.41652 0.0
C1268 C 0.59875 0.7962 0.40115 0.0
C1269 C 0.6436 0.81872 0.39949 0.0
C1270 C 0.64785 0.81873 0.41484 0.0
C1271 C 0.61467 0.80706 0.3764 0.0
H1272 H 0.7259 0.87194 0.25962 0.0
H1273 H 0.7401 0.87347 0.28585 0.0
H1274 H 0.66397 0.82199 0.29408 0.0
H1275 H 0.64964 0.82083 0.26809 0.0
H1276 H 0.58699 0.78752 0.42294 0.0
H1277 H 0.57967 0.78741 0.39595 0.0
H1278 H 0.65949 0.82737 0.39298 0.0
H1279 H 0.667 0.82725 0.41986 0.0
Tb1280 Tb 0.18068 0.83497 0.35402 0.0
Eu1281 Eu 0.16119 0.84521 0.32155 0.0
C1282 C 0.14612 0.79118 0.32965 0.0
C1283 C 0.21162 0.84195 0.32595 0.0
C1284 C 0.18088 0.822 0.39363 0.0
C1285 C 0.17537 0.80302 0.41694 0.0
C1286 C 0.18556 0.80755 0.40322 0.0
C1287 C 0.16531 0.83134 0.39778 0.0
C1288 C 0.15528 0.82698 0.4115 0.0
C1289 C 0.16042 0.81301 0.42133 0.0
C1290 C 0.19318 0.82819 0.3797 0.0
O1291 O 0.20478 0.87393 0.35069 0.0
O1292 O 0.17563 0.87951 0.33761 0.0
O1293 O 0.1283 0.83139 0.33509 0.0
O1294 O 0.14907 0.8402 0.35859 0.0
C1295 C 0.19648 0.8884 0.34631 0.0
O1296 O 0.16575 0.87175 0.30556 0.0
O1297 O 0.13656 0.83302 0.30076 0.0
O1298 O 0.15518 0.80636 0.31928 0.0
O1299 O 0.14926 0.79978 0.34371 0.0
O1300 O 0.20528 0.83159 0.33853 0.0
O1301 O 0.19983 0.85187 0.31926 0.0
C1302 C 0.12871 0.83384 0.34968 0.0
O1303 O 0.18361 0.81087 0.36849 0.0
O1304 O 0.1988 0.84992 0.37549 0.0
C1305 C 0.1575 0.85466 0.28069 0.0
C1306 C 0.17692 0.85788 0.25285 0.0
C1307 C 0.16277 0.86932 0.2561 0.0
C1308 C 0.15315 0.86772 0.2699 0.0
C1309 C 0.17145 0.84308 0.27751 0.0
C1310 C 0.18103 0.84461 0.2637 0.0
C1311 C 0.14898 0.85468 0.29556 0.0
H1312 H 0.1799 0.7924 0.42431 0.0
H1313 H 0.19754 0.8002 0.40025 0.0
H1314 H 0.16133 0.84248 0.39055 0.0
H1315 H 0.14363 0.83471 0.41448 0.0
H1316 H 0.15899 0.8794 0.24793 0.0
H1317 H 0.14257 0.87692 0.27222 0.0
H1318 H 0.17524 0.83318 0.28579 0.0
H1319 H 0.19208 0.83583 0.26163 0.0
Tb1320 Tb 0.82295 0.65683 0.65647 0.0
Eu1321 Eu 0.84451 0.68749 0.6907 0.0
C1322 C 0.85085 0.64183 0.68026 0.0
C1323 C 0.78961 0.63679 0.6832 0.0
C1324 C 0.82199 0.64689 0.61534 0.0
C1325 C 0.85625 0.66191 0.59944 0.0
C1326 C 0.84675 0.65343 0.61295 0.0
C1327 C 0.80709 0.64924 0.60396 0.0
C1328 C 0.81666 0.65792 0.59049 0.0
C1329 C 0.84133 0.66424 0.58803 0.0
C1330 C 0.81153 0.63784 0.62958 0.0
O1331 O 0.80316 0.67692 0.66053 0.0
O1332 O 0.83185 0.70933 0.67744 0.0
O1333 O 0.87709 0.70447 0.67632 0.0
O1334 O 0.85332 0.69372 0.65378 0.0
C1335 C 0.81258 0.69954 0.66725 0.0
O1336 O 0.84052 0.70761 0.71003 0.0
O1337 O 0.87179 0.70102 0.71035 0.0
O1338 O 0.84459 0.65175 0.69115 0.0
O1339 O 0.84922 0.64673 0.66643 0.0
O1340 O 0.79533 0.63137 0.67018 0.0
O1341 O 0.80408 0.65793 0.69162 0.0
C1342 C 0.87475 0.70697 0.66204 0.0
O1343 O 0.82531 0.63397 0.63926 0.0
O1344 O 0.80094 0.64895 0.63603 0.0
C1345 C 0.85438 0.70042 0.73311 0.0
C1346 C 0.84607 0.68511 0.76218 0.0
C1347 C 0.86044 0.71058 0.75997 0.0
C1348 C 0.86456 0.71811 0.74561 0.0
C1349 C 0.83953 0.67501 0.73515 0.0
C1350 C 0.83539 0.66741 0.74956 0.0
C1351 C 0.85933 0.70878 0.71809 0.0
H1352 H 0.87542 0.66691 0.59798 0.0
H1353 H 0.85886 0.65205 0.62152 0.0
H1354 H 0.78796 0.64432 0.60548 0.0
H1355 H 0.80459 0.65926 0.58188 0.0
H1356 H 0.86854 0.72479 0.76937 0.0
H1357 H 0.87584 0.7378 0.74427 0.0
H1358 H 0.83138 0.66105 0.7256 0.0
H1359 H 0.82437 0.64767 0.75081 0.0
Tb1360 Tb 0.35167 0.17252 0.65763 0.0
Eu1361 Eu 0.32169 0.15022 0.68719 0.0
C1362 C 0.36977 0.20442 0.68949 0.0
C1363 C 0.37268 0.15042 0.68136 0.0
C1364 C 0.36572 0.1876 0.6187 0.0
C1365 C 0.37628 0.20288 0.59454 0.0
C1366 C 0.38338 0.20322 0.60954 0.0
C1367 C 0.34086 0.17133 0.61267 0.0
C1368 C 0.33374 0.17088 0.59761 0.0
C1369 C 0.35135 0.18687 0.58842 0.0
C1370 C 0.37336 0.18941 0.63463 0.0
O1371 O 0.32626 0.13236 0.65151 0.0
O1372 O 0.29632 0.12653 0.66713 0.0
O1373 O 0.30895 0.17565 0.67802 0.0
O1374 O 0.31638 0.17172 0.65375 0.0
C1375 C 0.30317 0.11968 0.65516 0.0
O1376 O 0.30113 0.11863 0.70009 0.0
O1377 O 0.30488 0.15457 0.70682 0.0
O1378 O 0.35754 0.18417 0.6962 0.0
O1379 O 0.36638 0.20432 0.67492 0.0
O1380 O 0.37749 0.16744 0.67211 0.0
O1381 O 0.35048 0.13777 0.68629 0.0
C1382 C 0.30526 0.17765 0.66381 0.0
O1383 O 0.36588 0.20114 0.64352 0.0
O1384 O 0.37049 0.16907 0.63978 0.0
C1385 C 0.30237 0.12929 0.72576 0.0
C1386 C 0.31112 0.12617 0.75627 0.0
C1387 C 0.28697 0.11145 0.74872 0.0
C1388 C 0.28266 0.11305 0.73359 0.0
C1389 C 0.32665 0.14357 0.7331 0.0
C1390 C 0.33098 0.14206 0.74826 0.0
C1391 C 0.29708 0.13185 0.71015 0.0
H1392 H 0.39035 0.21516 0.58771 0.0
H1393 H 0.40263 0.21591 0.61404 0.0
H1394 H 0.32694 0.15926 0.61966 0.0
H1395 H 0.31437 0.15849 0.59324 0.0
H1396 H 0.27125 0.09927 0.75461 0.0
H1397 H 0.2638 0.10195 0.72807 0.0
H1398 H 0.34212 0.15614 0.72716 0.0
H1399 H 0.34983 0.15341 0.75374 0.0
Tb1400 Tb 0.85407 0.16962 0.6853 0.0
Eu1401 Eu 0.82652 0.17911 0.65589 0.0
C1402 C 0.81716 0.12602 0.66209 0.0
C1403 C 0.88081 0.18295 0.6557 0.0
C1404 C 0.85917 0.15547 0.72392 0.0
C1405 C 0.85916 0.16685 0.7502 0.0
C1406 C 0.87119 0.17126 0.73712 0.0
C1407 C 0.83518 0.1345 0.72423 0.0
C1408 C 0.82308 0.13007 0.73733 0.0
C1409 C 0.83473 0.14646 0.75044 0.0
C1410 C 0.87065 0.16298 0.70976 0.0
O1411 O 0.87544 0.20878 0.68199 0.0
O1412 O 0.84332 0.21351 0.67238 0.0
O1413 O 0.79647 0.16322 0.67166 0.0
O1414 O 0.82358 0.17411 0.69292 0.0
C1415 C 0.86578 0.22293 0.67947 0.0
O1416 O 0.82354 0.20462 0.64144 0.0
O1417 O 0.80118 0.16481 0.63527 0.0
O1418 O 0.82398 0.14174 0.65193 0.0
O1419 O 0.8221 0.13412 0.67627 0.0
O1420 O 0.87698 0.17004 0.66738 0.0
O1421 O 0.86597 0.1913 0.65137 0.0
C1422 C 0.80091 0.16554 0.68625 0.0
O1423 O 0.86159 0.14639 0.69813 0.0
O1424 O 0.87441 0.18456 0.70631 0.0
C1425 C 0.82033 0.19013 0.61601 0.0
C1426 C 0.84121 0.19251 0.58856 0.0
C1427 C 0.81588 0.17496 0.58988 0.0
C1428 C 0.80557 0.17384 0.60344 0.0
C1429 C 0.84546 0.20802 0.61464 0.0
C1430 C 0.85571 0.20927 0.60109 0.0
C1431 C 0.81013 0.18696 0.63072 0.0
H1432 H 0.86866 0.18011 0.75996 0.0
H1433 H 0.88959 0.18767 0.73717 0.0
H1434 H 0.82539 0.12195 0.71423 0.0
H1435 H 0.80444 0.114 0.73711 0.0
H1436 H 0.80418 0.16151 0.58057 0.0
H1437 H 0.78623 0.15974 0.60422 0.0
H1438 H 0.85748 0.2208 0.62412 0.0
H1439 H 0.87511 0.22332 0.60049 0.0
H1440 H 0.35463 0.91219 0.0674 0.0
H1441 H 0.34059 0.83878 0.0507 0.0
H1442 H 0.37363 0.85816 0.03392 0.0
H1443 H 0.3686 0.94069 0.03376 0.0
H1444 H 0.39393 0.97035 0.04223 0.0
H1445 H 0.36877 0.95087 0.05291 0.0
H1446 H 0.40082 0.9516 0.07301 0.0
H1447 H 0.42613 0.97124 0.06246 0.0
H1448 H 0.42274 0.9422 0.06758 0.0
H1449 H 0.40728 0.88526 0.01823 0.0
H1450 H 0.4421 0.91862 0.00658 0.0
H1451 H 0.4364 0.97442 0.03471 0.0
C1452 C 0.35863 0.90011 0.0604 0.0
C1453 C 0.34441 0.87379 0.06025 0.0
C1454 C 0.35044 0.85888 0.05076 0.0
C1455 C 0.3694 0.86973 0.04123 0.0
C1456 C 0.38263 0.8956 0.04147 0.0
C1457 C 0.37785 0.91064 0.05099 0.0
C1458 C 0.39545 0.93802 0.04937 0.0
C1459 C 0.3808 0.95072 0.04426 0.0
C1460 C 0.41228 0.95156 0.06397 0.0
C1461 C 0.41049 0.93592 0.03727 0.0
C1462 C 0.40273 0.91129 0.03282 0.0
C1463 C 0.41363 0.90465 0.02167 0.0
C1464 C 0.43331 0.92374 0.01505 0.0
C1465 C 0.44199 0.94915 0.01969 0.0
C1466 C 0.43022 0.9552 0.03088 0.0
H1467 H 0.13121 0.46801 0.06968 0.0
H1468 H 0.14569 0.43347 0.03123 0.0
H1469 H 0.11328 0.43621 0.01572 0.0
H1470 H 0.06279 0.43786 0.06004 0.0
H1471 H 0.06166 0.46523 0.06661 0.0
H1472 H 0.08506 0.45931 0.07504 0.0
H1473 H 0.12001 0.50293 0.06945 0.0
H1474 H 0.09674 0.50891 0.06094 0.0
H1475 H 0.12178 0.51122 0.05058 0.0
H1476 H 0.08191 0.44527 1.0039 0.0
H1477 H 0.05175 0.45859 0.99658 0.0
H1478 H 0.05585 0.4862 0.04258 0.0
C1479 C 0.12722 0.46064 0.05807 0.0
C1480 C 0.14117 0.45071 0.05165 0.0
C1481 C 0.13557 0.44152 0.03635 0.0
C1482 C 0.11707 0.44285 0.02745 0.0
C1483 C 0.10409 0.45323 0.03401 0.0
C1484 C 0.10869 0.4618 0.04897 0.0
C1485 C 0.09246 0.47284 0.05301 0.0
C1486 C 0.07442 0.45791 0.06435 0.0
C1487 C 0.10872 0.50062 0.05884 0.0
C1488 C 0.07839 0.46946 0.03792 0.0
C1489 C 0.08543 0.45808 0.02715 0.0
C1490 C 0.07601 0.45395 0.01225 0.0
C1491 C 0.05895 0.46169 0.00819 0.0
C1492 C 0.05131 0.47332 0.019 0.0
C1493 C 0.06106 0.47706 0.03409 0.0
H1494 H 0.55464 0.68854 0.04291 0.0
H1495 H 0.62405 0.70323 0.06716 0.0
H1496 H 0.61491 0.66081 0.05836 0.0
H1497 H 0.51785 0.62518 0.05007 0.0
H1498 H 0.50047 0.61485 0.0319 0.0
H1499 H 0.51278 0.64654 0.0398 0.0
H1500 H 0.53639 0.66286 0.01648 0.0
H1501 H 0.52406 0.6312 0.00846 0.0
H1502 H 0.55745 0.6525 0.01074 0.0
H1503 H 0.59777 0.6166 0.04729 0.0
H1504 H 0.57408 0.57382 0.03461 0.0
H1505 H 0.51612 0.58842 0.01737 0.0
C1506 C 0.56812 0.68299 0.0462 0.0
C1507 C 0.59009 0.69919 0.05569 0.0
C1508 C 0.60699 0.69102 0.05999 0.0
C1509 C 0.60202 0.66703 0.055 0.0
C1510 C 0.5801 0.6515 0.04572 0.0
C1511 C 0.56346 0.65916 0.04133 0.0
C1512 C 0.54105 0.63873 0.0315 0.0
C1513 C 0.5166 0.63087 0.03876 0.0
C1514 C 0.53967 0.64681 0.01587 0.0
C1515 C 0.54765 0.61832 0.03108 0.0
C1516 C 0.57025 0.62606 0.03934 0.0
C1517 C 0.58009 0.61035 0.04075 0.0
C1518 C 0.56646 0.58607 0.03351 0.0
C1519 C 0.54325 0.57776 0.02496 0.0
C1520 C 0.53382 0.59419 0.02378 0.0
H1521 H 0.87697 0.31139 0.96337 0.0
H1522 H 0.86878 0.32979 0.91853 0.0
H1523 H 0.89963 0.37406 0.9264 0.0
H1524 H 0.88021 0.36507 0.98214 0.0
H1525 H 0.90284 0.36874 0.99702 0.0
H1526 H 0.88143 0.33824 0.98762 0.0
H1527 H 0.91889 0.33275 0.98131 0.0
H1528 H 0.94042 0.36322 0.99074 0.0
H1529 H 0.94333 0.35588 0.9716 0.0
H1530 H 0.93017 0.41666 0.93942 0.0
H1531 H 0.95829 0.45428 0.95657 0.0
H1532 H 0.94528 0.40807 0.99305 0.0
C1533 C 0.8816 0.32468 0.95518 0.0
C1534 C 0.87046 0.317 0.94029 0.0
C1535 C 0.87735 0.33506 0.92992 0.0
C1536 C 0.89474 0.36031 0.93431 0.0
C1537 C 0.90507 0.36724 0.94911 0.0
C1538 C 0.89879 0.34995 0.95938 0.0
C1539 C 0.912 0.36233 0.9747 0.0
C1540 C 0.89298 0.35836 0.98603 0.0
C1541 C 0.92971 0.35299 0.97989 0.0
C1542 C 0.92651 0.38934 0.97148 0.0
C1543 C 0.92237 0.39178 0.95664 0.0
C1544 C 0.9336 0.41497 0.95105 0.0
C1545 C 0.94953 0.43624 0.9609 0.0
C1546 C 0.95397 0.43416 0.97618 0.0
C1547 C 0.94226 0.41033 0.98146 0.0
H1548 H 0.68059 0.54013 0.96781 0.0
H1549 H 0.65014 0.52807 0.92153 0.0
H1550 H 0.60961 0.51947 0.92975 0.0
H1551 H 0.62401 0.48971 0.98035 0.0
H1552 H 0.62789 0.50646 0.99821 0.0
H1553 H 0.65499 0.51239 0.9888 0.0
H1554 H 0.66924 0.55943 0.99027 0.0
H1555 H 0.64219 0.55366 0.99967 0.0
H1556 H 0.64801 0.56894 0.98279 0.0
H1557 H 0.57293 0.51385 0.94276 0.0
H1558 H 0.54146 0.50934 0.95979 0.0
H1559 H 0.59362 0.521 0.99778 0.0
C1560 C 0.66539 0.53537 0.95934 0.0
C1561 C 0.66896 0.53513 0.94394 0.0
C1562 C 0.6484 0.52912 0.93337 0.0
C1563 C 0.62511 0.52392 0.93793 0.0
C1564 C 0.62236 0.52439 0.95312 0.0
C1565 C 0.64182 0.52971 0.96369 0.0
C1566 C 0.63365 0.52865 0.97933 0.0
C1567 C 0.63523 0.50807 0.98713 0.0
C1568 C 0.6492 0.55419 0.98856 0.0
C1569 C 0.6066 0.52208 0.97589 0.0
C1570 C 0.60064 0.51993 0.96067 0.0
C1571 C 0.57729 0.51523 0.95467 0.0
C1572 C 0.55958 0.51277 0.96444 0.0
C1573 C 0.56507 0.51465 0.98007 0.0
C1574 C 0.58883 0.5191 0.98587 0.0
H1575 H 0.41604 0.08594 0.95473 0.0
H1576 H 0.47351 0.16154 0.97167 0.0
H1577 H 0.49565 0.14483 0.9862 0.0
H1578 H 0.41608 0.05597 0.98771 0.0
H1579 H 0.41236 0.02837 0.97742 0.0
H1580 H 0.39989 0.04612 0.9692 0.0
H1581 H 0.42517 0.05073 0.94647 0.0
H1582 H 0.43771 0.03301 0.95462 0.0
H1583 H 0.45864 0.06376 0.94947 0.0
H1584 H 0.51219 0.12013 0.99843 0.0
H1585 H 0.52276 0.08913 0.00681 0.0
H1586 H 0.45609 0.02992 0.98056 0.0
C1587 C 0.43332 0.09907 0.96143 0.0
C1588 C 0.4428 0.12511 0.96211 0.0
C1589 C 0.46541 0.1415 0.9712 0.0
C1590 C 0.47828 0.13221 0.97942 0.0
C1591 C 0.46849 0.1065 0.97836 0.0
C1592 C 0.44661 0.09016 0.96953 0.0
C1593 C 0.44072 0.06344 0.96981 0.0
C1594 C 0.41578 0.04754 0.97643 0.0
C1595 C 0.44056 0.05207 0.95416 0.0
C1596 C 0.46281 0.06734 0.98012 0.0
C1597 C 0.47847 0.0923 0.98503 0.0
C1598 C 0.50007 0.10053 0.99467 0.0
C1599 C 0.50588 0.08277 0.99938 0.0
C1600 C 0.49025 0.05711 0.99433 0.0
C1601 C 0.46845 0.04939 0.98458 0.0
H1602 H 0.65477 0.08817 0.93871 0.0
H1603 H 0.68718 0.16174 0.96322 0.0
H1604 H 0.65763 0.14384 0.9819 0.0
H1605 H 0.59065 0.07214 0.9445 0.0
H1606 H 0.5802 0.03956 0.94549 0.0
H1607 H 0.60531 0.05777 0.93444 0.0
H1608 H 0.63378 0.04505 0.94908 0.0
H1609 H 0.60885 0.02709 0.96031 0.0
H1610 H 0.63896 0.05119 0.96911 0.0
H1611 H 0.62558 0.11766 0.99894 0.0
H1612 H 0.58846 0.08632 0.01033 0.0
H1613 H 0.57317 0.03162 0.97314 0.0
C1614 C 0.65568 0.10074 0.94786 0.0
C1615 C 0.67443 0.12639 0.94956 0.0
C1616 C 0.67428 0.14182 0.96183 0.0
C1617 C 0.65724 0.13189 0.97254 0.0
C1618 C 0.63964 0.10655 0.9707 0.0
C1619 C 0.6382 0.09132 0.95843 0.0
C1620 C 0.61615 0.06509 0.95854 0.0
C1621 C 0.59695 0.05825 0.94494 0.0
C1622 C 0.62498 0.04598 0.95931 0.0
C1623 C 0.60578 0.06798 0.97288 0.0
C1624 C 0.61985 0.09194 0.97987 0.0
C1625 C 0.61426 0.09887 0.9935 0.0
C1626 C 0.59333 0.08097 0.99996 0.0
C1627 C 0.57806 0.05669 0.9926 0.0
C1628 C 0.58455 0.05014 0.97897 0.0
H1629 H 0.85522 0.51737 0.95528 0.0
H1630 H 0.90645 0.59494 0.94932 0.0
H1631 H 0.94008 0.59378 0.96462 0.0
H1632 H 0.88029 0.51924 0.99397 0.0
H1633 H 0.87654 0.48858 0.99087 0.0
H1634 H 0.85556 0.49596 0.98067 0.0
H1635 H 0.86672 0.48284 0.95578 0.0
H1636 H 0.88772 0.47547 0.96589 0.0
H1637 H 0.89911 0.49728 0.95203 0.0
H1638 H 0.96893 0.58373 0.97844 0.0
H1639 H 0.99184 0.5653 0.99026 0.0
H1640 H 0.92268 0.49393 0.98784 0.0
C1641 C 0.8734 0.53419 0.95749 0.0
C1642 C 0.87829 0.55628 0.95115 0.0
C1643 C 0.9024 0.57782 0.95401 0.0
C1644 C 0.92157 0.57738 0.96275 0.0
C1645 C 0.91637 0.55524 0.96859 0.0
C1646 C 0.89292 0.53402 0.96615 0.0
C1647 C 0.893 0.51228 0.97298 0.0
C1648 C 0.87529 0.5035 0.98536 0.0
C1649 C 0.88624 0.4907 0.96095 0.0
C1650 C 0.92026 0.52454 0.97934 0.0
C1651 C 0.93326 0.54938 0.97674 0.0
C1652 C 0.95892 0.56439 0.98073 0.0
C1653 C 0.97179 0.55371 0.9874 0.0
C1654 C 0.95903 0.52824 0.99008 0.0
C1655 C 0.93283 0.51357 0.98619 0.0
H1656 H 0.4247 0.31185 0.97726 0.0
H1657 H 0.43358 0.32021 0.93018 0.0
H1658 H 0.44986 0.36523 0.93513 0.0
H1659 H 0.40716 0.35899 0.98464 0.0
H1660 H 0.42484 0.3702 1.00272 0.0
H1661 H 0.41213 0.3381 0.99545 0.0
H1662 H 0.45648 0.34341 0.99893 0.0
H1663 H 0.46932 0.37552 0.00618 0.0
H1664 H 0.48181 0.36788 0.99044 0.0
H1665 H 0.46641 0.40915 0.94494 0.0
H1666 H 0.48291 0.45006 0.95919 0.0
H1667 H 0.46537 0.41439 1.00028 0.0
C1668 C 0.43003 0.32311 0.96798 0.0
C1669 C 0.42745 0.31227 0.95328 0.0
C1670 C 0.43464 0.32779 0.94147 0.0
C1671 C 0.44414 0.35349 0.94418 0.0
C1672 C 0.44655 0.36352 0.95877 0.0
C1673 C 0.43977 0.34892 0.9705 0.0
C1674 C 0.44521 0.36473 0.98519 0.0
C1675 C 0.42088 0.35758 0.99242 0.0
C1676 C 0.46434 0.36276 0.99581 0.0
C1677 C 0.45631 0.39049 0.97984 0.0
C1678 C 0.4567 0.38923 0.96454 0.0
C1679 C 0.46615 0.41042 0.95693 0.0
C1680 C 0.47548 0.4336 0.96516 0.0
C1681 C 0.47544 0.43549 0.98088 0.0
C1682 C 0.4657 0.41358 0.98829 0.0
H1683 H 0.14706 0.68105 0.0409 0.0
H1684 H 0.13984 0.66921 0.08776 0.0
H1685 H 0.1061 0.62592 0.0807 0.0
H1686 H 0.08265 0.64344 0.02751 0.0
H1687 H 0.08827 0.63087 0.01061 0.0
H1688 H 0.11156 0.66133 0.01927 0.0
H1689 H 0.14474 0.64745 0.02041 0.0
H1690 H 0.12156 0.61696 0.01171 0.0
H1691 H 0.13847 0.62002 0.02937 0.0
H1692 H 0.07179 0.58446 0.06867 0.0
H1693 H 0.0414 0.54656 0.0523 0.0
H1694 H 0.0737 0.58387 0.01344 0.0
C1695 C 0.1387 0.66937 0.04973 0.0
C1696 C 0.14603 0.67891 0.06492 0.0
C1697 C 0.1342 0.66279 0.07603 0.0
C1698 C 0.11512 0.63801 0.07215 0.0
C1699 C 0.10831 0.62936 0.05711 0.0
C1700 C 0.11994 0.64441 0.04607 0.0
C1701 C 0.10941 0.63029 0.03073 0.0
C1702 C 0.09725 0.64219 0.02149 0.0
C1703 C 0.12976 0.62858 0.02258 0.0
C1704 C 0.08991 0.60502 0.0349 0.0
C1705 C 0.08943 0.60497 0.05018 0.0
C1706 C 0.07217 0.58416 0.05669 0.0
C1707 C 0.05496 0.56279 0.04733 0.0
C1708 C 0.05544 0.56233 0.03167 0.0
C1709 C 0.07325 0.58366 0.02541 0.0
H1710 H 0.34383 0.48406 0.05432 0.0
H1711 H 0.34491 0.4272 0.07966 0.0
H1712 H 0.38055 0.43108 0.06693 0.0
H1713 H 0.35833 0.46309 0.01946 0.0
H1714 H 0.37753 0.49429 0.01436 0.0
H1715 H 0.35197 0.48739 0.0255 0.0
H1716 H 0.3826 0.52254 0.04575 0.0
H1717 H 0.40824 0.52954 0.03469 0.0
H1718 H 0.40992 0.52226 0.05359 0.0
H1719 H 0.4173 0.44239 0.05282 0.0
H1720 H 0.45201 0.459 0.03681 0.0
H1721 H 0.42605 0.50612 0.0187 0.0
C1722 C 0.3513 0.47217 0.05708 0.0
C1723 C 0.3416 0.45559 0.06826 0.0
C1724 C 0.35228 0.4406 0.07153 0.0
C1725 C 0.37243 0.44245 0.06422 0.0
C1726 C 0.38161 0.45907 0.05344 0.0
C1727 C 0.37132 0.47351 0.04972 0.0
C1728 C 0.38494 0.48988 0.03764 0.0
C1729 C 0.36713 0.48326 0.0234 0.0
C1730 C 0.39715 0.5177 0.04326 0.0
C1731 C 0.40462 0.48249 0.03529 0.0
C1732 C 0.40233 0.46478 0.04464 0.0
C1733 C 0.41906 0.45596 0.04529 0.0
C1734 C 0.43873 0.46555 0.0362 0.0
C1735 C 0.44146 0.48354 0.02645 0.0
C1736 C 0.42401 0.49196 0.02585 0.0
H1737 H 0.56332 0.901 0.06981 0.0
H1738 H 0.60055 0.88634 0.03454 0.0
H1739 H 0.58665 0.90775 0.01756 0.0
H1740 H 0.51001 0.89242 0.04684 0.0
H1741 H 0.50836 0.91732 0.05704 0.0
H1742 H 0.52107 0.90067 0.06638 0.0
H1743 H 0.56219 0.94234 0.07482 0.0
H1744 H 0.54948 0.9591 0.06559 0.0
H1745 H 0.57906 0.9627 0.06106 0.0
H1746 H 0.56848 0.93077 1.00438 0.0
H1747 H 0.54892 0.95509 0.99643 0.0
H1748 H 0.52445 0.95506 0.04059 0.0
C1749 C 0.56882 0.90253 0.05857 0.0
C1750 C 0.58297 0.89192 0.0535 0.0
C1751 C 0.58942 0.89402 0.03862 0.0
C1752 C 0.5817 0.90622 0.0289 0.0
C1753 C 0.56758 0.91627 0.03424 0.0
C1754 C 0.56132 0.91466 0.04875 0.0
C1755 C 0.54617 0.92719 0.05177 0.0
C1756 C 0.51984 0.90826 0.05574 0.0
C1757 C 0.56006 0.94914 0.06403 0.0
C1758 C 0.54501 0.93619 0.03671 0.0
C1759 C 0.55734 0.92963 0.02671 0.0
C1760 C 0.55878 0.93603 0.01212 0.0
C1761 C 0.54755 0.94978 0.00769 0.0
C1762 C 0.53518 0.95702 0.01787 0.0
C1763 C 0.53379 0.94989 0.03251 0.0
H1764 H 0.01491 0.24874 0.40105 0.0
H1765 H 0.99563 0.1747 0.38189 0.0
H1766 H 0.02937 0.19358 0.36552 0.0
H1767 H 0.032 0.27998 0.36824 0.0
H1768 H 0.0584 0.30818 0.37748 0.0
H1769 H 0.03221 0.28909 0.3876 0.0
H1770 H 0.0621 0.28576 0.40742 0.0
H1771 H 0.08841 0.30499 0.39742 0.0
H1772 H 0.08249 0.27462 0.40159 0.0
H1773 H 0.0643 0.22023 0.35053 0.0
H1774 H 0.10058 0.25293 0.33956 0.0
H1775 H 0.09977 0.30963 0.36969 0.0
C1776 C 0.01787 0.23638 0.39357 0.0
C1777 C 1.002 0.21009 0.39267 0.0
C1778 C 0.00674 0.19486 0.38256 0.0
C1779 C 0.0261 0.2054 0.37326 0.0
C1780 C 0.04104 0.23127 0.37431 0.0
C1781 C 0.03747 0.24658 0.38436 0.0
C1782 C 0.05678 0.27383 0.38352 0.0
C1783 C 0.04408 0.28864 0.37894 0.0
C1784 C 0.07343 0.28548 0.39837 0.0
C1785 C 0.07152 0.27138 0.37131 0.0
C1786 C 0.06198 0.24666 0.36609 0.0
C1787 C 0.07205 0.23966 0.3546 0.0
C1788 C 0.0926 0.25841 0.34838 0.0
C1789 C 0.10309 0.28387 0.35374 0.0
C1790 C 0.09228 0.29034 0.36536 0.0
H1791 H 0.81307 0.80092 0.38142 0.0
H1792 H 0.79571 0.80223 0.42736 0.0
H1793 H 0.7597 0.80661 0.4191 0.0
H1794 H 0.79936 0.84905 0.37199 0.0
H1795 H 0.78674 0.83502 0.35318 0.0
H1796 H 0.81054 0.83064 0.36256 0.0
H1797 H 0.78148 0.78268 0.35764 0.0
H1798 H 0.75753 0.7869 0.34832 0.0
H1799 H 0.7505 0.76827 0.36382 0.0
H1800 H 0.72456 0.80942 0.40586 0.0
H1801 H 0.69521 0.81459 0.38879 0.0
H1802 H 0.73783 0.8161 0.35191 0.0
C1803 C 0.80201 0.80244 0.38984 0.0
C1804 C 0.80729 0.80077 0.40509 0.0
C1805 C 0.79186 0.8026 0.41557 0.0
C1806 C 0.77139 0.80535 0.41102 0.0
C1807 C 0.76672 0.80673 0.39595 0.0
C1808 C 0.7818 0.80573 0.38555 0.0
C1809 C 0.7732 0.80865 0.37011 0.0
C1810 C 0.79368 0.83225 0.36411 0.0
C1811 C 0.7652 0.78523 0.35934 0.0
C1812 C 0.75086 0.81132 0.37347 0.0
C1813 C 0.74727 0.80982 0.38842 0.0
C1814 C 0.72731 0.81083 0.39415 0.0
C1815 C 0.71068 0.81365 0.38436 0.0
C1816 C 0.71434 0.81585 0.36907 0.0
C1817 C 0.73475 0.81472 0.36358 0.0
H1818 H 0.24489 0.0168 0.39563 0.0
H1819 H 0.28526 0.05392 0.35862 0.0
H1820 H 0.27305 0.01303 0.34532 0.0
H1821 H 0.25979 0.96532 0.39287 0.0
H1822 H 0.22928 0.9429 0.39785 0.0
H1823 H 0.24371 0.97522 0.40515 0.0
H1824 H 0.20439 0.97616 0.3946 0.0
H1825 H 0.19 0.94404 0.38707 0.0
H1826 H 0.19397 0.96756 0.37499 0.0
H1827 H 0.25178 0.96839 0.33467 0.0
H1828 H 0.22584 0.92254 0.3284 0.0
H1829 H 0.20122 0.91441 0.37272 0.0
C1830 C 0.2519 0.0164 0.38496 0.0
C1831 C 0.26596 0.03856 0.37814 0.0
C1832 C 0.27422 0.03716 0.36398 0.0
C1833 C 0.2675 0.01404 0.35637 0.0
C1834 C 0.25283 0.99252 0.36317 0.0
C1835 C 0.2455 0.99348 0.37726 0.0
C1836 C 0.22863 0.96753 0.3817 0.0
C1837 C 0.2411 0.96245 0.39519 0.0
C1838 C 0.20272 0.96361 0.38476 0.0
C1839 C 0.22694 0.95187 0.36771 0.0
C1840 C 0.2411 0.96666 0.35717 0.0
C1841 C 0.24104 0.95658 0.34294 0.0
C1842 C 0.22623 0.93067 0.33944 0.0
C1843 C 0.21194 0.91535 0.35016 0.0
C1844 C 0.21238 0.92596 0.36447 0.0
H1845 H 0.52092 0.64964 0.29811 0.0
H1846 H 0.5721 0.63232 0.27643 0.0
H1847 H 0.60758 0.67365 0.28637 0.0
H1848 H 0.55117 0.71408 0.292 0.0
H1849 H 0.54574 0.72415 0.30984 0.0
H1850 H 0.52436 0.69311 0.30113 0.0
H1851 H 0.53099 0.67444 0.3247 0.0
H1852 H 0.55234 0.70544 0.3335 0.0
H1853 H 0.56234 0.68275 0.33173 0.0
H1854 H 0.63744 0.71716 0.29837 0.0
H1855 H 0.65961 0.75939 0.31185 0.0
H1856 H 0.58905 0.74796 0.32619 0.0
C1857 C 0.53961 0.65437 0.29559 0.0
C1858 C 0.54366 0.63768 0.28643 0.0
C1859 C 0.56843 0.64487 0.28323 0.0
C1860 C 0.58874 0.66827 0.2889 0.0
C1861 C 0.58404 0.68428 0.29781 0.0
C1862 C 0.5601 0.67763 0.30118 0.0
C1863 C 0.56012 0.69836 0.31092 0.0
C1864 C 0.54442 0.70799 0.303 0.0
C1865 C 0.55091 0.68973 0.32611 0.0
C1866 C 0.58781 0.71774 0.31249 0.0
C1867 C 0.60127 0.70926 0.30482 0.0
C1868 C 0.62711 0.72397 0.30446 0.0
C1869 C 0.63953 0.74797 0.31215 0.0
C1870 C 0.62614 0.75705 0.32014 0.0
C1871 C 0.5999 0.7416 0.32027 0.0
H1872 H 0.35057 0.88267 0.30587 0.0
H1873 H 0.31695 0.84916 0.26092 0.0
H1874 H 0.27492 0.83428 0.26921 0.0
H1875 H 0.30233 0.83398 0.32533 0.0
H1876 H 0.30335 0.85561 0.33996 0.0
H1877 H 0.33103 0.86306 0.33076 0.0
H1878 H 0.33438 0.90448 0.32399 0.0
H1879 H 0.30686 0.89724 0.33326 0.0
H1880 H 0.30786 0.90373 0.31405 0.0
H1881 H 0.23685 0.82424 0.28183 0.0
H1882 H 0.20473 0.82136 0.29788 0.0
H1883 H 0.26187 0.86053 0.33505 0.0
C1884 C 0.33434 0.87199 0.29781 0.0
C1885 C 0.33713 0.86716 0.2827 0.0
C1886 C 0.31539 0.85343 0.27248 0.0
C1887 C 0.2914 0.84468 0.27712 0.0
C1888 C 0.28932 0.84972 0.29204 0.0
C1889 C 0.31014 0.86314 0.30226 0.0
C1890 C 0.30253 0.86681 0.31751 0.0
C1891 C 0.31027 0.8541 0.32907 0.0
C1892 C 0.31356 0.89472 0.32249 0.0
C1893 C 0.27419 0.85354 0.31422 0.0
C1894 C 0.26708 0.8437 0.29945 0.0
C1895 C 0.24215 0.83164 0.29343 0.0
C1896 C 0.22405 0.83007 0.30263 0.0
C1897 C 0.23082 0.8404 0.3177 0.0
C1898 C 0.25617 0.85192 0.32367 0.0
H1899 H 0.08372 0.42276 0.28285 0.0
H1900 H 0.13701 0.49646 0.30486 0.0
H1901 H 0.15571 0.478 0.32073 0.0
H1902 H 0.07504 0.38853 0.31489 0.0
H1903 H 0.07392 0.36207 0.30472 0.0
H1904 H 0.06376 0.38078 0.29537 0.0
H1905 H 0.09519 0.38835 0.27573 0.0
H1906 H 0.10532 0.36953 0.28496 0.0
H1907 H 0.12792 0.40107 0.28184 0.0
H1908 H 0.16909 0.45206 0.33404 0.0
H1909 H 0.17786 0.42032 0.34307 0.0
H1910 H 0.11719 0.36348 0.31186 0.0
C1911 C 0.0994 0.43506 0.29094 0.0
C1912 C 0.10859 0.46106 0.29272 0.0
C1913 C 0.12912 0.47642 0.30352 0.0
C1914 C 0.14003 0.46614 0.31254 0.0
C1915 C 0.13038 0.44048 0.31058 0.0
C1916 C 0.1107 0.42513 0.29998 0.0
C1917 C 0.10454 0.39825 0.29986 0.0
C1918 C 0.07772 0.38142 0.30396 0.0
C1919 C 0.10848 0.38875 0.2847 0.0
C1920 C 0.12389 0.40098 0.31202 0.0
C1921 C 0.13848 0.42548 0.31811 0.0
C1922 C 0.15779 0.43277 0.32938 0.0
C1923 C 0.16258 0.41457 0.33446 0.0
C1924 C 0.14819 0.38937 0.32822 0.0
C1925 C 0.12845 0.38253 0.31693 0.0
H1926 H 0.34804 0.43804 0.29661 0.0
H1927 H 0.31604 0.46435 0.2633 0.0
H1928 H 0.2772 0.44783 0.27589 0.0
H1929 H 0.29123 0.38034 0.29897 0.0
H1930 H 0.29663 0.37973 0.31872 0.0
H1931 H 0.32281 0.39548 0.30792 0.0
H1932 H 0.33936 0.43604 0.3256 0.0
H1933 H 0.31306 0.42043 0.33638 0.0
H1934 H 0.31921 0.44879 0.32861 0.0
H1935 H 0.24187 0.42779 0.29113 0.0
H1936 H 0.20949 0.40131 0.30681 0.0
H1937 H 0.2624 0.3856 0.33037 0.0
C1938 C 0.33285 0.44042 0.29212 0.0
C1939 C 0.33491 0.45252 0.27904 0.0
C1940 C 0.31468 0.45508 0.27328 0.0
C1941 C 0.29267 0.44592 0.28042 0.0
C1942 C 0.2911 0.43405 0.29326 0.0
C1943 C 0.31043 0.43094 0.29901 0.0
C1944 C 0.30286 0.41571 0.31233 0.0
C1945 C 0.30341 0.39137 0.3093 0.0
C1946 C 0.31963 0.43117 0.32657 0.0
C1947 C 0.27617 0.41054 0.31302 0.0
C1948 C 0.27009 0.42171 0.302 0.0
C1949 C 0.24641 0.41904 0.29983 0.0
C1950 C 0.22814 0.40394 0.30882 0.0
C1951 C 0.23343 0.39148 0.31985 0.0
C1952 C 0.25799 0.3953 0.32224 0.0
H1953 H 0.53909 0.88516 0.29895 0.0
H1954 H 0.53964 0.85599 0.25415 0.0
H1955 H 0.56751 0.84135 0.26379 0.0
H1956 H 0.60318 0.90697 0.31098 0.0
H1957 H 0.59784 0.89816 0.32967 0.0
H1958 H 0.57692 0.90562 0.31952 0.0
H1959 H 0.53911 0.86261 0.32349 0.0
H1960 H 0.55991 0.85506 0.33373 0.0
H1961 H 0.5396 0.83455 0.3178 0.0
H1962 H 0.59668 0.83178 0.27761 0.0
H1963 H 0.62459 0.82596 0.29521 0.0
H1964 H 0.60532 0.86013 0.33165 0.0
C1965 C 0.54484 0.8754 0.29124 0.0
C1966 C 0.5374 0.87198 0.27576 0.0
C1967 C 0.54546 0.85926 0.266 0.0
C1968 C 0.56119 0.85073 0.27137 0.0
C1969 C 0.56861 0.85484 0.28659 0.0
C1970 C 0.56064 0.86668 0.29644 0.0
C1971 C 0.57199 0.86901 0.31224 0.0
C1972 C 0.58846 0.89658 0.31846 0.0
C1973 C 0.55143 0.85444 0.32242 0.0
C1974 C 0.58773 0.85687 0.30963 0.0
C1975 C 0.5854 0.84887 0.29472 0.0
C1976 C 0.59853 0.83777 0.28935 0.0
C1977 C 0.61447 0.83465 0.29947 0.0
C1978 C 0.6172 0.84253 0.31487 0.0
C1979 C 0.60352 0.85373 0.31999 0.0
H1980 H 0.1024 0.66331 0.27974 0.0
H1981 H 0.06074 0.62517 0.31609 0.0
H1982 H 0.07155 0.66567 0.32939 0.0
H1983 H 0.15231 0.71295 0.30165 0.0
H1984 H 0.15679 0.73658 0.28954 0.0
H1985 H 0.14328 0.7046 0.2819 0.0
H1986 H 0.1043 0.70508 0.27022 0.0
H1987 H 0.11784 0.73722 0.27769 0.0
H1988 H 0.08699 0.71427 0.28191 0.0
H1989 H 0.09063 0.70993 0.33995 0.0
H1990 H 0.11495 0.75547 0.34661 0.0
H1991 H 0.14385 0.76532 0.30328 0.0
C1992 C 0.09495 0.6635 0.29029 0.0
C1993 C 0.0807 0.64117 0.2969 0.0
C1994 C 0.07178 0.64212 0.31089 0.0
C1995 C 0.07774 0.665 0.31849 0.0
C1996 C 0.0925 0.68674 0.31191 0.0
C1997 C 0.10078 0.68623 0.29805 0.0
C1998 C 0.11774 0.71243 0.29395 0.0
C1999 C 0.14408 0.71689 0.29163 0.0
C2000 C 0.10601 0.71755 0.28012 0.0
C2001 C 0.11821 0.72767 0.30783 0.0
C2002 C 0.10341 0.71246 0.318 0.0
C2003 C 0.10198 0.72208 0.332 0.0
C2004 C 0.11599 0.74797 0.3357 0.0
C2005 C 0.1312 0.76395 0.32544 0.0
C2006 C 0.13214 0.7536 0.31128 0.0
H2007 H 0.79724 0.01983 0.37334 0.0
H2008 H 0.79867 0.00883 0.42039 0.0
H2009 H 0.76595 0.96486 0.41445 0.0
H2010 H 0.73088 0.97878 0.36372 0.0
H2011 H 0.73431 0.96663 0.34593 0.0
H2012 H 0.75739 0.99776 0.35376 0.0
H2013 H 0.79246 0.98676 0.35175 0.0
H2014 H 0.7695 0.95562 0.34387 0.0
H2015 H 0.78987 0.96017 0.36029 0.0
H2016 H 0.73322 0.92231 0.40378 0.0
H2017 H 0.70358 0.88285 0.38876 0.0
H2018 H 0.72423 0.92002 0.34832 0.0
C2019 C 0.79079 0.00818 0.3824 0.0
C2020 C 0.80036 0.01809 0.39739 0.0
C2021 C 0.79124 0.00205 0.40886 0.0
C2022 C 0.77275 0.97691 0.40561 0.0
C2023 C 0.76364 0.96786 0.39079 0.0
C2024 C 0.77242 0.98286 0.37934 0.0
C2025 C 0.75976 0.96807 0.36434 0.0
C2026 C 0.74469 0.97843 0.35648 0.0
C2027 C 0.77905 0.96763 0.35448 0.0
C2028 C 0.74255 0.94246 0.3692 0.0
C2029 C 0.74504 0.94289 0.38453 0.0
C2030 C 0.73111 0.92169 0.39176 0.0
C2031 C 0.71424 0.89935 0.3831 0.0
C2032 C 0.7115 0.89826 0.36733 0.0
C2033 C 0.72589 0.9202 0.36033 0.0
H2034 H 0.03603 0.81201 0.41358 0.0
H2035 H 0.97694 0.78911 0.37753 0.0
H2036 H 0.00738 0.79743 0.35924 0.0
H2037 H 0.08568 0.86117 0.3965 0.0
H2038 H 0.10944 0.85424 0.40299 0.0
H2039 H 0.08319 0.84685 0.41359 0.0
H2040 H 0.07269 0.80093 0.41251 0.0
H2041 H 0.09873 0.808 0.40178 0.0
H2042 H 0.06762 0.78358 0.39469 0.0
H2043 H 0.04362 0.80879 0.3447 0.0
H2044 H 0.08357 0.82026 0.33452 0.0
H2045 H 0.11993 0.83443 0.3795 0.0
C2046 C 0.02945 0.80857 0.40185 0.0
C2047 C 0.00403 0.80037 0.39709 0.0
C2048 C 0.99634 0.79611 0.38157 0.0
C2049 C 0.01348 0.80059 0.37104 0.0
C2050 C 0.03835 0.80907 0.37608 0.0
C2051 C 0.04638 0.81278 0.39108 0.0
C2052 C 0.07422 0.8215 0.39334 0.0
C2053 C 0.089 0.84749 0.40212 0.0
C2054 C 0.07856 0.80236 0.40104 0.0
C2055 C 0.08049 0.82239 0.37727 0.0
C2056 C 0.05943 0.81513 0.36755 0.0
C2057 C 0.06026 0.81444 0.35218 0.0
C2058 C 0.08315 0.82107 0.34651 0.0
C2059 C 0.10508 0.82832 0.35616 0.0
C2060 C 0.10363 0.82907 0.37178 0.0
H2061 H 0.24793 0.24951 0.39504 0.0
H2062 H 0.21385 0.18349 0.36296 0.0
H2063 H 0.19969 0.20461 0.34617 0.0
H2064 H 0.19665 0.26043 0.39029 0.0
H2065 H 0.21624 0.29393 0.39297 0.0
H2066 H 0.22616 0.27462 0.40174 0.0
H2067 H 0.26766 0.29606 0.38924 0.0
H2068 H 0.2577 0.31526 0.3803 0.0
H2069 H 0.2665 0.29623 0.36926 0.0
H2070 H 0.18856 0.23293 0.33276 0.0
H2071 H 0.177 0.2641 0.32556 0.0
H2072 H 0.21433 0.30902 0.36753 0.0
C2073 C 0.23738 0.23927 0.38456 0.0
C2074 C 0.23259 0.21486 0.38035 0.0
C2075 C 0.21873 0.20249 0.36638 0.0
C2076 C 0.21036 0.21427 0.35673 0.0
C2077 C 0.21554 0.2383 0.36126 0.0
C2078 C 0.22834 0.25048 0.37496 0.0
C2079 C 0.22969 0.27539 0.37772 0.0
C2080 C 0.21639 0.27612 0.39149 0.0
C2081 C 0.25702 0.29701 0.37921 0.0
C2082 C 0.21545 0.27519 0.36348 0.0
C2083 C 0.20785 0.25389 0.35397 0.0
C2084 C 0.19438 0.24967 0.34013 0.0
C2085 C 0.18801 0.26746 0.33609 0.0
C2086 C 0.19471 0.28877 0.34602 0.0
C2087 C 0.20888 0.29277 0.35976 0.0
H2088 H 0.69057 0.57252 0.74267 0.0
H2089 H 0.63516 0.53007 0.70494 0.0
H2090 H 0.66749 0.55002 0.68781 0.0
H2091 H 0.72242 0.62986 0.72464 0.0
H2092 H 0.75305 0.63836 0.73317 0.0
H2093 H 0.72568 0.62016 0.74265 0.0
H2094 H 0.73806 0.58621 0.74461 0.0
H2095 H 0.76534 0.60424 0.73502 0.0
H2096 H 0.74294 0.57244 0.72792 0.0
H2097 H 0.70591 0.57306 0.67464 0.0
H2098 H 0.74721 0.6014 0.66618 0.0
H2099 H 0.77718 0.63162 0.71204 0.0
C2100 C 0.6851 0.56758 0.73082 0.0
C2101 C 0.66025 0.54919 0.72527 0.0
C2102 C 0.65412 0.54339 0.7096 0.0
C2103 C 0.67235 0.55478 0.69972 0.0
C2104 C 0.69665 0.57236 0.70557 0.0
C2105 C 0.70302 0.57909 0.72072 0.0
C2106 C 0.73042 0.59919 0.72399 0.0
C2107 C 0.73303 0.62332 0.73156 0.0
C2108 C 0.74505 0.58995 0.73344 0.0
C2109 C 0.73837 0.60252 0.7083 0.0
C2110 C 0.71864 0.58664 0.69787 0.0
C2111 C 0.72148 0.58575 0.68269 0.0
C2112 C 0.74503 0.60181 0.67799 0.0
C2113 C 0.76536 0.61878 0.68842 0.0
C2114 C 0.76192 0.619 0.70378 0.0
H2115 H 0.44665 0.09515 0.72745 0.0
H2116 H 0.51395 0.15349 0.71121 0.0
H2117 H 0.48892 0.1683 0.69798 0.0
H2118 H 0.4053 0.08168 0.69443 0.0
H2119 H 0.37879 0.07721 0.70401 0.0
H2120 H 0.40176 0.07099 0.71274 0.0
H2121 H 0.40884 0.10168 0.73566 0.0
H2122 H 0.38576 0.10787 0.72704 0.0
H2123 H 0.41698 0.13329 0.73301 0.0
H2124 H 0.45766 0.17602 0.68567 0.0
H2125 H 0.42136 0.17838 0.67582 0.0
H2126 H 0.37273 0.11631 0.70016 0.0
C2127 C 0.45607 0.11117 0.72122 0.0
C2128 C 0.48227 0.12286 0.72016 0.0
C2129 C 0.49389 0.1438 0.71189 0.0
C2130 C 0.47985 0.15249 0.7044 0.0
C2131 C 0.45413 0.14027 0.70535 0.0
C2132 C 0.44224 0.12026 0.71363 0.0
C2133 C 0.41417 0.11073 0.71259 0.0
C2134 C 0.39912 0.08354 0.70552 0.0
C2135 C 0.40596 0.11357 0.72799 0.0
C2136 C 0.41232 0.12842 0.70232 0.0
C2137 C 0.43571 0.1452 0.69833 0.0
C2138 C 0.43922 0.16311 0.68877 0.0
C2139 C 0.41831 0.16419 0.68318 0.0
C2140 C 0.39399 0.14753 0.68716 0.0
C2141 C 0.39101 0.12933 0.69689 0.0
H2142 H 0.89303 0.36155 0.69981 0.0
H2143 H 0.9649 0.37838 0.72147 0.0
H2144 H 0.95642 0.33635 0.7122 0.0
H2145 H 0.85951 0.30023 0.70891 0.0
H2146 H 0.83937 0.28762 0.69168 0.0
H2147 H 0.85226 0.31995 0.69836 0.0
H2148 H 0.87163 0.33326 0.67345 0.0
H2149 H 0.85862 0.30091 0.66663 0.0
H2150 H 0.89181 0.32235 0.66686 0.0
H2151 H 0.939 0.29207 0.70236 0.0
H2152 H 0.91373 0.24777 0.69281 0.0
H2153 H 0.85238 0.25901 0.67782 0.0
C2154 C 0.90723 0.35656 0.70224 0.0
C2155 C 0.92974 0.37316 0.71118 0.0
C2156 C 0.9476 0.36585 0.71457 0.0
C2157 C 0.94298 0.34212 0.70932 0.0
C2158 C 0.92039 0.32599 0.70076 0.0
C2159 C 0.9028 0.33286 0.6972 0.0
C2160 C 0.87923 0.31132 0.68881 0.0
C2161 C 0.85625 0.30437 0.69746 0.0
C2162 C 0.87509 0.31732 0.673 0.0
C2163 C 0.88613 0.29111 0.68847 0.0
C2164 C 0.91006 0.30011 0.69528 0.0
C2165 C 0.92033 0.28484 0.69688 0.0
C2166 C 0.90573 0.25964 0.69144 0.0
C2167 C 0.88102 0.24986 0.68455 0.0
C2168 C 0.87122 0.26593 0.68295 0.0
H2169 H 0.23008 0.97942 0.61693 0.0
H2170 H 0.16296 0.98498 0.61743 0.0
H2171 H 0.18887 0.03016 0.62521 0.0
H2172 H 0.26131 0.01977 0.64962 0.0
H2173 H 0.29226 0.03397 0.64342 0.0
H2174 H 0.26888 0.00275 0.63601 0.0
H2175 H 0.27503 0.01601 0.60921 0.0
H2176 H 0.2984 0.04736 0.61656 0.0
H2177 H 0.27162 0.042 0.60447 0.0
H2178 H 0.22067 0.07298 0.63481 0.0
H2179 H 0.25685 0.11135 0.64747 0.0
H2180 H 0.30455 0.07946 0.64143 0.0
C2181 C 0.22102 0.99036 0.61845 0.0
C2182 C 0.1946 0.97892 0.61656 0.0
C2183 C 0.18319 0.99352 0.61889 0.0
C2184 C 0.19775 0.01917 0.62318 0.0
C2185 C 0.22371 0.02993 0.62513 0.0
C2186 C 0.23535 0.01609 0.62294 0.0
C2187 C 0.26346 0.03203 0.6272 0.0
C2188 C 0.27197 0.0215 0.63981 0.0
C2189 C 0.27798 0.03449 0.61355 0.0
C2190 C 0.26561 0.05675 0.63252 0.0
C2191 C 0.24242 0.05508 0.63094 0.0
C2192 C 0.23898 0.07467 0.63593 0.0
C2193 C 0.25961 0.09634 0.64313 0.0
C2194 C 0.2834 0.09832 0.64529 0.0
C2195 C 0.28664 0.07855 0.63958 0.0
H2196 H 0.99735 0.17774 0.62379 0.0
H2197 H 0.00828 0.23986 0.59913 0.0
H2198 H 0.97151 0.23841 0.60916 0.0
H2199 H 0.92926 0.14466 0.62027 0.0
H2200 H 0.92693 0.13543 0.63893 0.0
H2201 H 0.95334 0.14013 0.62916 0.0
H2202 H 0.98366 0.17196 0.65091 0.0
H2203 H 0.95736 0.16744 0.66072 0.0
H2204 H 0.98044 0.19835 0.65684 0.0
H2205 H 0.93478 0.23143 0.62206 0.0
H2206 H 0.89958 0.21943 0.63711 0.0
H2207 H 0.91232 0.16274 0.65488 0.0
C2208 C 0.99211 0.19111 0.6205 0.0
C2209 C 0.00581 0.20882 0.61049 0.0
C2210 C 0.99795 0.22572 0.60643 0.0
C2211 C 0.97715 0.22522 0.61221 0.0
C2212 C 0.96438 0.2078 0.62212 0.0
C2213 C 0.97146 0.19103 0.62628 0.0
C2214 C 0.95467 0.17467 0.63745 0.0
C2215 C 0.94019 0.14708 0.63107 0.0
C2216 C 0.96995 0.17833 0.65237 0.0
C2217 C 0.93717 0.18505 0.639 0.0
C2218 C 0.94318 0.20405 0.62994 0.0
C2219 C 0.92988 0.21658 0.62919 0.0
C2220 C 0.90979 0.2095 0.63782 0.0
C2221 C 0.90299 0.19003 0.64724 0.0
C2222 C 0.91707 0.17775 0.64789 0.0
H2223 H 0.76051 0.7595 0.61024 0.0
H2224 H 0.74765 0.79584 0.64861 0.0
H2225 H 0.76298 0.77548 0.66532 0.0
H2226 H 0.73937 0.69996 0.62632 0.0
H2227 H 0.76218 0.69459 0.61783 0.0
H2228 H 0.74991 0.7119 0.60881 0.0
H2229 H 0.79518 0.74877 0.60821 0.0
H2230 H 0.80756 0.73169 0.61735 0.0
H2231 H 0.81545 0.76231 0.62536 0.0
H2232 H 0.78362 0.75454 0.67793 0.0
H2233 H 0.80292 0.72968 0.68548 0.0
H2234 H 0.79769 0.70333 0.63915 0.0
C2235 C 0.76037 0.76283 0.62213 0.0
C2236 C 0.75329 0.77976 0.62804 0.0
C2237 C 0.75371 0.78364 0.64373 0.0
C2238 C 0.76219 0.77198 0.65336 0.0
C2239 C 0.76964 0.75598 0.64717 0.0
C2240 C 0.76829 0.75094 0.63192 0.0
C2241 C 0.77721 0.73276 0.62816 0.0
C2242 C 0.75589 0.70835 0.61979 0.0
C2243 C 0.80022 0.7446 0.61925 0.0
C2244 C 0.78416 0.72874 0.64368 0.0
C2245 C 0.77993 0.74254 0.65449 0.0
C2246 C 0.78657 0.74325 0.6696 0.0
C2247 C 0.7976 0.72925 0.67378 0.0
C2248 C 0.80134 0.71444 0.66289 0.0
C2249 C 0.79447 0.71414 0.64768 0.0
H2250 H 0.01291 0.77334 0.63468 0.0
H2251 H 0.98042 0.79122 0.59695 0.0
H2252 H 0.9405 0.77483 0.60837 0.0
H2253 H 0.95755 0.71501 0.63852 0.0
H2254 H 0.96191 0.7178 0.65859 0.0
H2255 H 0.98867 0.73281 0.64813 0.0
H2256 H 1.00221 0.77521 0.66307 0.0
H2257 H 0.97533 0.76034 0.67349 0.0
H2258 H 0.98048 0.78655 0.66355 0.0
H2259 H 0.90434 0.75591 0.62303 0.0
H2260 H 0.87159 0.73127 0.639 0.0
H2261 H 0.92562 0.7232 0.6674 0.0
C2262 C 0.99735 0.7739 0.62896 0.0
C2263 C 0.99959 0.78357 0.61497 0.0
C2264 C 0.97892 0.7838 0.60764 0.0
C2265 C 0.95629 0.7747 0.61409 0.0
C2266 C 0.95457 0.76525 0.62785 0.0
C2267 C 0.97435 0.76444 0.63516 0.0
C2268 C 0.96661 0.7515 0.64932 0.0
C2269 C 0.96881 0.72788 0.64859 0.0
C2270 C 0.98208 0.76948 0.66318 0.0
C2271 C 0.93936 0.74501 0.6487 0.0
C2272 C 0.9331 0.75353 0.63628 0.0
C2273 C 0.909 0.74921 0.63281 0.0
C2274 C 0.89052 0.73516 0.64198 0.0
C2275 C 0.89603 0.72534 0.65448 0.0
C2276 C 0.92097 0.73085 0.65809 0.0
H2277 H 0.22086 0.20076 0.60403 0.0
H2278 H 0.19866 0.23125 0.6408 0.0
H2279 H 0.22524 0.22347 0.65852 0.0
H2280 H 0.2226 0.15244 0.62254 0.0
H2281 H 0.24981 0.15569 0.61427 0.0
H2282 H 0.22906 0.16369 0.60445 0.0
H2283 H 0.26643 0.20803 0.60236 0.0
H2284 H 0.28729 0.20009 0.61212 0.0
H2285 H 0.28562 0.227 0.61902 0.0
H2286 H 0.25377 0.21154 0.67236 0.0
H2287 H 0.28301 0.19759 0.68105 0.0
H2288 H 0.28742 0.1763 0.63512 0.0
C2289 C 0.2218 0.20611 0.61578 0.0
C2290 C 0.2075 0.21651 0.62099 0.0
C2291 C 0.20906 0.22286 0.63652 0.0
C2292 C 0.22424 0.21866 0.64669 0.0
C2293 C 0.2379 0.20821 0.64118 0.0
C2294 C 0.23693 0.20214 0.62608 0.0
C2295 C 0.25344 0.19111 0.62305 0.0
C2296 C 0.23779 0.16413 0.61564 0.0
C2297 C 0.27444 0.20754 0.61358 0.0
C2298 C 0.2638 0.1919 0.63879 0.0
C2299 C 0.25458 0.20174 0.64911 0.0
C2300 C 0.2612 0.20391 0.66437 0.0
C2301 C 0.27778 0.19589 0.66921 0.0
C2302 C 0.28761 0.18595 0.65879 0.0
C2303 C 0.28042 0.18398 0.64339 0.0
H2304 H 0.77664 0.99964 0.61133 0.0
H2305 H 0.73984 0.96056 0.64873 0.0
H2306 H 0.74923 1.00042 0.66224 0.0
H2307 H 0.82643 0.05133 0.63235 0.0
H2308 H 0.82821 0.07422 0.62036 0.0
H2309 H 0.81608 0.04243 0.61275 0.0
H2310 H 0.77494 0.04004 0.60234 0.0
H2311 H 0.78705 0.07196 0.60982 0.0
H2312 H 0.75738 0.04769 0.61475 0.0
H2313 H 0.76628 0.04411 0.67272 0.0
H2314 H 0.78868 0.08961 0.67934 0.0
H2315 H 0.81411 0.10114 0.63512 0.0
C2316 C 0.77003 0.9995 0.6222 0.0
C2317 C 0.75754 0.97712 0.62903 0.0
C2318 C 0.74959 0.97759 0.64338 0.0
C2319 C 0.75472 1.00008 0.65109 0.0
C2320 C 0.76769 0.02192 0.64426 0.0
C2321 C 0.77508 0.02188 0.63009 0.0
C2322 C 0.79021 0.04825 0.62577 0.0
C2323 C 0.8168 0.05441 0.62263 0.0
C2324 C 0.77657 0.05221 0.61238 0.0
C2325 C 0.79069 0.06306 0.63987 0.0
C2326 C 0.77744 0.04743 0.65033 0.0
C2327 C 0.77641 0.05658 0.66456 0.0
C2328 C 0.78932 0.08245 0.66824 0.0
C2329 C 0.80303 0.09887 0.65772 0.0
C2330 C 0.80349 0.08901 0.6433 0.0
H2331 H 0.46883 0.35059 0.70898 0.0
H2332 H 0.4736 0.33456 0.75482 0.0
H2333 H 0.44277 0.29021 0.74748 0.0
H2334 H 0.40268 0.30747 0.70021 0.0
H2335 H 0.40563 0.29825 0.68147 0.0
H2336 H 0.42793 0.32898 0.69026 0.0
H2337 H 0.46435 0.32101 0.68537 0.0
H2338 H 0.44215 0.29025 0.67656 0.0
H2339 H 0.464 0.29403 0.69197 0.0
H2340 H 0.41199 0.24793 0.73544 0.0
H2341 H 0.38263 0.2097 0.71943 0.0
H2342 H 0.39775 0.25217 0.68096 0.0
C2343 C 0.4635 0.33773 0.71746 0.0
C2344 C 0.47355 0.34615 0.73252 0.0
C2345 C 0.46586 0.32871 0.74328 0.0
C2346 C 0.44848 0.30342 0.7392 0.0
C2347 C 0.43896 0.29578 0.7243 0.0
C2348 C 0.44614 0.31233 0.71357 0.0
C2349 C 0.43297 0.29905 0.69833 0.0
C2350 C 0.41631 0.30904 0.69221 0.0
C2351 C 0.45201 0.30121 0.68741 0.0
C2352 C 0.4173 0.27245 0.70221 0.0
C2353 C 0.42111 0.2711 0.71727 0.0
C2354 C 0.40883 0.24872 0.72363 0.0
C2355 C 0.39213 0.22707 0.71438 0.0
C2356 C 0.38777 0.22782 0.69887 0.0
C2357 C 0.40064 0.25091 0.69274 0.0
H2358 H 0.67438 0.14226 0.72009 0.0
H2359 H 0.68514 0.09446 0.74929 0.0
H2360 H 0.72346 0.10333 0.73792 0.0
H2361 H 0.69449 0.122 0.68739 0.0
H2362 H 0.70944 0.15243 0.6807 0.0
H2363 H 0.68292 0.14301 0.69137 0.0
H2364 H 0.7092 0.18228 0.71015 0.0
H2365 H 0.73584 0.19176 0.69959 0.0
H2366 H 0.73865 0.18802 0.71911 0.0
H2367 H 0.7615 0.1186 0.72458 0.0
H2368 H 0.79553 0.13662 0.70821 0.0
H2369 H 0.75904 0.17131 0.68556 0.0
C2370 C 0.6845 0.13331 0.72399 0.0
C2371 C 0.67671 0.11799 0.7359 0.0
C2372 C 0.69089 0.10694 0.74061 0.0
C2373 C 0.71266 0.11164 0.7341 0.0
C2374 C 0.71989 0.12702 0.72261 0.0
C2375 C 0.70611 0.1374 0.71739 0.0
C2376 C 0.71796 0.15283 0.70461 0.0
C2377 C 0.70014 0.14191 0.69016 0.0
C2378 C 0.72588 0.18035 0.70861 0.0
C2379 C 0.74066 0.14963 0.70359 0.0
C2380 C 0.74142 0.13485 0.71424 0.0
C2381 C 0.761 0.13001 0.71611 0.0
C2382 C 0.78033 0.14045 0.70684 0.0
C2383 C 0.7799 0.15531 0.69568 0.0
C2384 C 0.75967 0.15981 0.69393 0.0
H2385 H 0.91439 0.58587 0.73238 0.0
H2386 H 0.88162 0.52079 0.69958 0.0
H2387 H 0.8666 0.54169 0.68328 0.0
H2388 H 0.86156 0.59492 0.72798 0.0
H2389 H 0.8803 0.62847 0.73102 0.0
H2390 H 0.89099 0.60954 0.73954 0.0
H2391 H 0.93259 0.63251 0.72728 0.0
H2392 H 0.92191 0.65138 0.71863 0.0
H2393 H 0.93158 0.63336 0.70735 0.0
H2394 H 0.85519 0.56971 0.67022 0.0
H2395 H 0.84331 0.60058 0.66307 0.0
H2396 H 0.87852 0.64455 0.70558 0.0
C2397 C 0.90395 0.57579 0.72185 0.0
C2398 C 0.89995 0.55178 0.71725 0.0
C2399 C 0.88608 0.53956 0.70326 0.0
C2400 C 0.87717 0.55119 0.69389 0.0
C2401 C 0.88166 0.57484 0.69875 0.0
C2402 C 0.89426 0.58679 0.71252 0.0
C2403 C 0.89477 0.61127 0.71558 0.0
C2404 C 0.88108 0.61102 0.72934 0.0
C2405 C 0.92182 0.63344 0.71731 0.0
C2406 C 0.88042 0.6111 0.7014 0.0
C2407 C 0.87346 0.59017 0.69169 0.0
C2408 C 0.8604 0.58612 0.67775 0.0
C2409 C 0.85384 0.60375 0.67375 0.0
C2410 C 0.85991 0.62473 0.68382 0.0
C2411 C 0.87352 0.62851 0.69774 0.0
H2412 H 0.45573 0.97065 0.1743 0.0
H2413 H 0.45813 0.90218 0.16792 0.0
H2414 H 0.46766 0.91007 0.14194 0.0
H2415 H 0.42842 0.96762 0.1364 0.0
H2416 H 0.44731 1.00078 0.1354 0.0
H2417 H 0.4387 0.98885 0.15316 0.0
H2418 H 0.48559 0.01205 0.16342 0.0
H2419 H 0.49434 0.02394 0.14569 0.0
H2420 H 0.50735 0.0065 0.15375 0.0
H2421 H 0.47847 0.92589 0.11711 0.0
H2422 H 0.49103 0.94921 0.09504 0.0
H2423 H 0.48285 0.00832 0.11723 0.0
C2424 C 0.45787 0.95718 0.16731 0.0
C2425 C 0.45607 0.93571 0.17305 0.0
C2426 C 0.45946 0.91872 0.1637 0.0
C2427 C 0.4648 0.92301 0.14894 0.0
C2428 C 0.46686 0.9445 0.14365 0.0
C2429 C 0.46356 0.96136 0.15252 0.0
C2430 C 0.46816 0.98363 0.14424 0.0
C2431 C 0.44422 0.98531 0.14218 0.0
C2432 C 0.49017 0.00796 0.15225 0.0
C2433 C 0.47482 0.97674 0.12944 0.0
C2434 C 0.47367 0.95395 0.12933 0.0
C2435 C 0.47926 0.94367 0.11702 0.0
C2436 C 0.48626 0.95703 0.10449 0.0
C2437 C 0.48781 0.98056 0.10431 0.0
C2438 C 0.48196 0.99046 0.11702 0.0
H2439 H 0.03666 0.53656 0.17094 0.0
H2440 H 0.9962 0.46247 0.18572 0.0
H2441 H 0.97827 0.44475 0.15985 0.0
H2442 H 0.98776 0.5284 0.14344 0.0
H2443 H 0.00925 0.54624 0.13037 0.0
H2444 H 0.01902 0.55312 0.15007 0.0
H2445 H 0.05686 0.54713 0.14575 0.0
H2446 H 0.04715 0.54015 0.12605 0.0
H2447 H 0.05145 0.51827 0.13624 0.0
H2448 H 0.96463 0.43503 0.13249 0.0
H2449 H 0.95629 0.43392 0.10533 0.0
H2450 H 0.00499 0.51438 0.1083 0.0
C2451 C 0.02388 0.51664 0.16875 0.0
C2452 C 0.01791 0.50089 0.18035 0.0
C2453 C 1.00133 0.47486 0.17699 0.0
C2454 C 0.99094 0.46463 0.16234 0.0
C2455 C 0.99729 0.48066 0.15117 0.0
C2456 C 0.01336 0.50609 0.15417 0.0
C2457 C 0.01716 0.51914 0.14009 0.0
C2458 C 0.00773 0.53782 0.14106 0.0
C2459 C 0.0448 0.53192 0.13684 0.0
C2460 C 1.0007 0.49704 0.12871 0.0
C2461 C 0.98939 0.47504 0.13535 0.0
C2462 C 0.9733 0.45215 0.12716 0.0
C2463 C 0.96857 0.45173 0.11176 0.0
C2464 C 0.9799 0.47406 0.10469 0.0
C2465 C 0.99623 0.49697 0.11334 0.0
H2466 H 0.49931 0.50617 0.17265 0.0
H2467 H 0.42096 0.48509 0.16513 0.0
H2468 H 0.42131 0.47471 0.13832 0.0
H2469 H 0.5183 0.53616 0.13979 0.0
H2470 H 0.54025 0.52575 0.13648 0.0
H2471 H 0.53328 0.52968 0.1552 0.0
H2472 H 0.52049 0.48385 0.15863 0.0
H2473 H 0.52753 0.4798 0.13992 0.0
H2474 H 0.49693 0.45902 0.14551 0.0
H2475 H 0.43117 0.46924 0.1119 0.0
H2476 H 0.44927 0.46828 0.08837 0.0
H2477 H 0.52119 0.49283 0.11328 0.0
C2478 C 0.48217 0.49933 0.1654 0.0
C2479 C 0.46009 0.49648 0.17108 0.0
C2480 C 0.43803 0.48714 0.16115 0.0
C2481 C 0.43809 0.48133 0.14587 0.0
C2482 C 0.46032 0.48482 0.14064 0.0
C2483 C 0.48191 0.49346 0.15015 0.0
C2484 C 0.50355 0.49628 0.1417 0.0
C2485 C 0.52511 0.52359 0.14339 0.0
C2486 C 0.51265 0.47868 0.14674 0.0
C2487 C 0.49091 0.48826 0.1259 0.0
C2488 C 0.46594 0.4816 0.12552 0.0
C2489 C 0.45063 0.47415 0.11211 0.0
C2490 C 0.46108 0.47353 0.09878 0.0
C2491 C 0.48669 0.48033 0.09888 0.0
C2492 C 0.50164 0.48768 0.11272 0.0
H2493 H 0.98998 0.51877 0.83483 0.0
H2494 H 0.91989 0.44883 0.83351 0.0
H2495 H 0.92424 0.45139 0.86107 0.0
H2496 H 0.02176 0.50624 0.86348 0.0
H2497 H 0.03931 0.53777 0.87233 0.0
H2498 H 0.02931 0.53216 0.85268 0.0
H2499 H 0.00668 0.55743 0.85629 0.0
H2500 H 0.01676 0.56328 0.87596 0.0
H2501 H 0.9839 0.549 0.86968 0.0
H2502 H 0.93745 0.45998 0.88833 0.0
H2503 H 0.95909 0.47339 0.91376 0.0
H2504 H 0.02147 0.53746 0.89762 0.0
C2505 C 0.97535 0.50439 0.84045 0.0
C2506 C 0.95441 0.48379 0.83224 0.0
C2507 C 0.93588 0.46483 0.83976 0.0
C2508 C 0.93821 0.46617 0.85535 0.0
C2509 C 0.95928 0.48651 0.86319 0.0
C2510 C 0.97757 0.50529 0.85603 0.0
C2511 C 0.99925 0.52405 0.86705 0.0
C2512 C 0.02386 0.5251 0.86368 0.0
C2513 C 1.00178 0.54998 0.86726 0.0
C2514 C 0.99047 0.51265 0.88146 0.0
C2515 C 0.96723 0.49118 0.87898 0.0
C2516 C 0.95552 0.47693 0.89046 0.0
C2517 C 0.96792 0.48476 0.90488 0.0
C2518 C 0.99188 0.50658 0.90771 0.0
C2519 C 1.0032 0.5207 0.8958 0.0
H2520 H 0.52841 0.4761 0.84693 0.0
H2521 H 0.54851 0.5458 0.82839 0.0
H2522 H 0.54256 0.56269 0.85234 0.0
H2523 H 0.47971 0.47324 0.86693 0.0
H2524 H 0.48651 0.46029 0.88266 0.0
H2525 H 0.49417 0.45442 0.86448 0.0
H2526 H 0.54046 0.4723 0.87496 0.0
H2527 H 0.53291 0.47808 0.89321 0.0
H2528 H 0.55756 0.50322 0.88472 0.0
H2529 H 0.53153 0.57082 0.87792 0.0
H2530 H 0.5179 0.57014 0.90315 0.0
H2531 H 0.50544 0.49514 0.90493 0.0
C2532 C 0.53165 0.49496 0.8479 0.0
C2533 C 0.5389 0.50961 0.83573 0.0
C2534 C 0.54324 0.53431 0.83757 0.0
C2535 C 0.53976 0.54401 0.85112 0.0
C2536 C 0.5321 0.52885 0.86276 0.0
C2537 C 0.5283 0.50492 0.86131 0.0
C2538 C 0.51953 0.49219 0.87535 0.0
C2539 C 0.49343 0.46864 0.87216 0.0
C2540 C 0.53876 0.4861 0.88248 0.0
C2541 C 0.51851 0.51252 0.88486 0.0
C2542 C 0.52592 0.53356 0.87744 0.0
C2543 C 0.52595 0.55453 0.88388 0.0
C2544 C 0.51827 0.55399 0.89827 0.0
C2545 C 0.51062 0.53263 0.90613 0.0
C2546 C 0.51087 0.51169 0.89924 0.0
H2547 H 0.50425 0.0374 0.83645 0.0
H2548 H 0.58201 0.09655 0.84536 0.0
H2549 H 0.58193 0.087 0.87148 0.0
H2550 H 0.48465 0.04737 0.87212 0.0
H2551 H 0.46384 0.01458 0.87342 0.0
H2552 H 0.46988 0.02621 0.85541 0.0
H2553 H 0.48413 0.99467 0.84787 0.0
H2554 H 0.47824 0.98302 0.86587 0.0
H2555 H 0.50876 0.99438 0.85937 0.0
H2556 H 0.57369 0.07098 0.89656 0.0
H2557 H 0.55785 0.04945 0.91896 0.0
H2558 H 0.48519 0.00088 0.89411 0.0
C2559 C 0.52118 0.0485 0.84393 0.0
C2560 C 0.54318 0.06769 0.8388 0.0
C2561 C 0.56503 0.08155 0.84894 0.0
C2562 C 0.56514 0.07636 0.86383 0.0
C2563 C 0.54324 0.05723 0.86848 0.0
C2564 C 0.52165 0.04351 0.85887 0.0
C2565 C 0.50075 0.02375 0.86672 0.0
C2566 C 0.47846 0.02826 0.86693 0.0
C2567 C 0.49249 0.99739 0.85953 0.0
C2568 C 0.514 0.0285 0.88224 0.0
C2569 C 0.53848 0.04795 0.883 0.0
C2570 C 0.55451 0.05581 0.89612 0.0
C2571 C 0.54528 0.04354 0.90882 0.0
C2572 C 0.52022 0.02355 0.90837 0.0
C2573 C 0.50447 0.01596 0.89483 0.0
H2574 H 0.12547 0.29511 0.50373 0.0
H2575 H 0.15342 0.24339 0.50221 0.0
H2576 H 0.16782 0.25552 0.47757 0.0
H2577 H 0.10332 0.28442 0.46414 0.0
H2578 H 0.11251 0.31662 0.46265 0.0
H2579 H 0.10382 0.30356 0.48011 0.0
H2580 H 0.14646 0.33852 0.4933 0.0
H2581 H 0.15529 0.35164 0.47588 0.0
H2582 H 0.17514 0.34322 0.48638 0.0
H2583 H 0.18035 0.27389 0.45346 0.0
H2584 H 0.18956 0.29688 0.43116 0.0
H2585 H 0.15321 0.33657 0.44774 0.0
C2586 C 0.13434 0.28612 0.49814 0.0
C2587 C 0.13846 0.26839 0.50504 0.0
C2588 C 0.15043 0.25732 0.49735 0.0
C2589 C 0.15854 0.26396 0.48327 0.0
C2590 C 0.1545 0.28167 0.47689 0.0
C2591 C 0.14259 0.29255 0.48401 0.0
C2592 C 0.141 0.31139 0.47471 0.0
C2593 C 0.11353 0.30352 0.47013 0.0
C2594 C 0.15533 0.33775 0.48307 0.0
C2595 C 0.154 0.30949 0.46133 0.0
C2596 C 0.16161 0.2922 0.46285 0.0
C2597 C 0.17446 0.28745 0.45213 0.0
C2598 C 0.17975 0.30075 0.43954 0.0
C2599 C 0.17224 0.31864 0.43768 0.0
C2600 C 0.15902 0.32287 0.44874 0.0
H2601 H 0.69637 0.86464 0.50547 0.0
H2602 H 0.64566 0.79309 0.52084 0.0
H2603 H 0.62559 0.77677 0.49509 0.0
H2604 H 0.65152 0.86562 0.47886 0.0
H2605 H 0.67381 0.8801 0.46547 0.0
H2606 H 0.68431 0.88593 0.48507 0.0
H2607 H 0.71586 0.87103 0.48005 0.0
H2608 H 0.70543 0.86512 0.46045 0.0
H2609 H 0.70463 0.84052 0.47044 0.0
H2610 H 0.61067 0.76854 0.46768 0.0
H2611 H 0.60274 0.76871 0.44056 0.0
H2612 H 0.66286 0.84592 0.44337 0.0
C2613 C 0.68092 0.84559 0.50345 0.0
C2614 C 0.67256 0.83014 0.51516 0.0
C2615 C 0.65255 0.80518 0.512 0.0
C2616 C 0.64096 0.79579 0.49744 0.0
C2617 C 0.64963 0.81158 0.48617 0.0
C2618 C 0.6692 0.83593 0.489 0.0
C2619 C 0.67503 0.84902 0.47492 0.0
C2620 C 0.67091 0.87149 0.47616 0.0
C2621 C 0.70183 0.85687 0.47125 0.0
C2622 C 0.65563 0.82826 0.46372 0.0
C2623 C 0.64112 0.80683 0.47042 0.0
C2624 C 0.62189 0.78523 0.46232 0.0
C2625 C 0.61743 0.78556 0.44695 0.0
C2626 C 0.63217 0.80732 0.43985 0.0
C2627 C 0.65147 0.8289 0.44843 0.0
H2628 H 0.14067 0.8599 0.50081 0.0
H2629 H 0.11448 0.78538 0.51381 0.0
H2630 H 0.11764 0.77127 0.48821 0.0
H2631 H 0.1094 0.84089 0.46284 0.0
H2632 H 0.13516 0.86643 0.45529 0.0
H2633 H 0.12896 0.86998 0.47427 0.0
H2634 H 0.17458 0.88247 0.48346 0.0
H2635 H 0.18089 0.87894 0.46453 0.0
H2636 H 0.18615 0.86183 0.47834 0.0
H2637 H 0.12699 0.76635 0.46156 0.0
H2638 H 0.1402 0.77066 0.43602 0.0
H2639 H 0.16037 0.84853 0.44082 0.0
C2640 C 0.13549 0.84057 0.49827 0.0
C2641 C 0.12739 0.82375 0.50933 0.0
C2642 C 0.1205 0.79854 0.50549 0.0
C2643 C 0.12233 0.79039 0.49099 0.0
C2644 C 0.13085 0.80762 0.48044 0.0
C2645 C 0.1371 0.83214 0.48389 0.0
C2646 C 0.14651 0.84721 0.47074 0.0
C2647 C 0.12896 0.85668 0.46547 0.0
C2648 C 0.17364 0.86888 0.4745 0.0
C2649 C 0.14513 0.8275 0.45941 0.0
C2650 C 0.13595 0.80474 0.46517 0.0
C2651 C 0.13398 0.78403 0.45692 0.0
C2652 C 0.14167 0.78669 0.44246 0.0
C2653 C 0.1512 0.80988 0.43638 0.0
C2654 C 0.15272 0.83042 0.44501 0.0
H2655 H 0.67772 0.83096 0.17308 0.0
H2656 H 0.61511 0.84417 0.17275 0.0
H2657 H 0.62148 0.85194 0.20024 0.0
H2658 H 0.66474 0.79787 0.20479 0.0
H2659 H 0.69708 0.81094 0.21195 0.0
H2660 H 0.6889 0.80838 0.19223 0.0
H2661 H 0.7195 0.85582 0.19192 0.0
H2662 H 0.72788 0.85852 0.21166 0.0
H2663 H 0.71641 0.87773 0.20436 0.0
H2664 H 0.63223 0.85449 0.22773 0.0
H2665 H 0.64829 0.85422 0.25337 0.0
H2666 H 0.70438 0.84006 0.23582 0.0
C2667 C 0.66549 0.83569 0.17879 0.0
C2668 C 0.64593 0.837 0.1708 0.0
C2669 C 0.6304 0.84339 0.17865 0.0
C2670 C 0.6338 0.8477 0.19425 0.0
C2671 C 0.65296 0.84579 0.20181 0.0
C2672 C 0.66873 0.84021 0.19434 0.0
C2673 C 0.68743 0.8386 0.20512 0.0
C2674 C 0.68434 0.81239 0.20342 0.0
C2675 C 0.7144 0.85888 0.20315 0.0
C2676 C 0.67938 0.84363 0.21983 0.0
C2677 C 0.65947 0.84774 0.21767 0.0
C2678 C 0.64799 0.85158 0.22957 0.0
C2679 C 0.65712 0.85124 0.24406 0.0
C2680 C 0.67759 0.8472 0.24652 0.0
C2681 C 0.68894 0.84354 0.23424 0.0
H2682 H 0.20419 0.80591 0.1777 0.0
H2683 H 0.23312 0.87947 0.16257 0.0
H2684 H 0.22776 0.89525 0.18713 0.0
H2685 H 0.15653 0.80595 0.19682 0.0
H2686 H 0.15952 0.78941 0.2118 0.0
H2687 H 0.16811 0.78474 0.19369 0.0
H2688 H 0.21253 0.79704 0.20537 0.0
H2689 H 0.20402 0.80164 0.22356 0.0
H2690 H 0.23119 0.82652 0.2166 0.0
H2691 H 0.21559 0.90179 0.21269 0.0
H2692 H 0.19942 0.8991 0.23735 0.0
H2693 H 0.17774 0.82084 0.2352 0.0
C2694 C 0.20959 0.8254 0.17957 0.0
C2695 C 0.219 0.84147 0.1682 0.0
C2696 C 0.22611 0.86691 0.17117 0.0
C2697 C 0.22302 0.87598 0.18505 0.0
C2698 C 0.21301 0.85941 0.19586 0.0
C2699 C 0.20663 0.8347 0.1933 0.0
C2700 C 0.19523 0.82038 0.20644 0.0
C2701 C 0.16825 0.79886 0.20191 0.0
C2702 C 0.21173 0.81084 0.2134 0.0
C2703 C 0.19565 0.84074 0.21672 0.0
C2704 C 0.20608 0.86315 0.21048 0.0
C2705 C 0.20757 0.88438 0.21771 0.0
C2706 C 0.19816 0.88261 0.23166 0.0
C2707 C 0.18734 0.85977 0.23823 0.0
C2708 C 0.18626 0.83867 0.23062 0.0
H2709 H 0.18128 0.40451 0.17751 0.0
H2710 H 0.21974 0.36708 0.16071 0.0
H2711 H 0.21462 0.34684 0.18388 0.0
H2712 H 0.2063 0.41515 0.21591 0.0
H2713 H 0.17751 0.40906 0.2233 0.0
H2714 H 0.18446 0.42111 0.20545 0.0
H2715 H 0.14235 0.38386 0.19324 0.0
H2716 H 0.13525 0.3717 0.21106 0.0
H2717 H 0.13536 0.35242 0.19537 0.0
H2718 H 0.20581 0.33077 0.20885 0.0
H2719 H 0.19276 0.31901 0.23382 0.0
H2720 H 0.15865 0.36543 0.23448 0.0
C2721 C 0.18847 0.39193 0.17863 0.0
C2722 C 0.2012 0.3877 0.16724 0.0
C2723 C 0.21046 0.37118 0.16932 0.0
C2724 C 0.20748 0.3594 0.18243 0.0
C2725 C 0.19502 0.36409 0.19342 0.0
C2726 C 0.18556 0.37986 0.19167 0.0
C2727 C 0.17276 0.38147 0.20523 0.0
C2728 C 0.18606 0.40829 0.21293 0.0
C2729 C 0.14477 0.37178 0.20096 0.0
C2730 C 0.17647 0.36409 0.21482 0.0
C2731 C 0.18949 0.3544 0.20779 0.0
C2732 C 0.19559 0.33823 0.21446 0.0
C2733 C 0.18821 0.33176 0.22869 0.0
C2734 C 0.17475 0.34133 0.23615 0.0
C2735 C 0.16874 0.35764 0.22903 0.0
H2736 H 0.77678 0.60577 0.82952 0.0
H2737 H 0.84722 0.65177 0.85711 0.0
H2738 H 0.86607 0.6749 0.83576 0.0
H2739 H 0.80366 0.60142 0.79604 0.0
H2740 H 0.78092 0.60334 0.78365 0.0
H2741 H 0.77235 0.59049 0.80117 0.0
H2742 H 0.75864 0.62255 0.8084 0.0
H2743 H 0.76705 0.63539 0.79086 0.0
H2744 H 0.78049 0.6554 0.80809 0.0
H2745 H 0.87795 0.69247 0.81159 0.0
H2746 H 0.88199 0.70424 0.78594 0.0
H2747 H 0.80393 0.64792 0.77343 0.0
C2748 C 0.79608 0.62088 0.83108 0.0
C2749 C 0.81057 0.62678 0.84501 0.0
C2750 C 0.83584 0.64658 0.84653 0.0
C2751 C 0.84671 0.65995 0.83447 0.0
C2752 C 0.83213 0.65343 0.82088 0.0
C2753 C 0.80735 0.63447 0.81906 0.0
C2754 C 0.79611 0.63122 0.8031 0.0
C2755 C 0.78777 0.60506 0.79555 0.0
C2756 C 0.77428 0.63646 0.80259 0.0
C2757 C 0.8185 0.65126 0.79628 0.0
C2758 C 0.83902 0.66381 0.80679 0.0
C2759 C 0.86195 0.68293 0.80328 0.0
C2760 C 0.864 0.68959 0.78866 0.0
C2761 C 0.84325 0.67727 0.77762 0.0
C2762 C 0.82021 0.65768 0.78155 0.0
H2763 H 0.36076 0.18575 0.84037 0.0
H2764 H 0.32038 0.11077 0.85388 0.0
H2765 H 0.30694 0.0937 0.82743 0.0
H2766 H 0.3154 0.17663 0.81034 0.0
H2767 H 0.33875 0.19595 0.79858 0.0
H2768 H 0.34531 0.20201 0.81855 0.0
H2769 H 0.38514 0.19846 0.81681 0.0
H2770 H 0.3786 0.1922 0.79684 0.0
H2771 H 0.38242 0.17056 0.80757 0.0
H2772 H 0.29751 0.08498 0.79948 0.0
H2773 H 0.29249 0.08532 0.77215 0.0
H2774 H 0.33868 0.16612 0.77721 0.0
C2775 C 0.34887 0.16575 0.83779 0.0
C2776 C 0.34156 0.14958 0.84918 0.0
C2777 C 0.32638 0.12348 0.84532 0.0
C2778 C 0.3186 0.11363 0.83035 0.0
C2779 C 0.32622 0.13013 0.8194 0.0
C2780 C 0.34099 0.15563 0.82294 0.0
C2781 C 0.34655 0.16935 0.80911 0.0
C2782 C 0.33586 0.18702 0.80915 0.0
C2783 C 0.37486 0.18347 0.80749 0.0
C2784 C 0.33248 0.1476 0.79721 0.0
C2785 C 0.32091 0.12512 0.80335 0.0
C2786 C 0.3065 0.10247 0.79454 0.0
C2787 C 0.30368 0.10285 0.77906 0.0
C2788 C 0.31524 0.12573 0.77256 0.0
C2789 C 0.32994 0.14831 0.78181 0.0
H2790 H 0.82589 0.16583 0.83738 0.0
H2791 H 0.74833 0.14561 0.827 0.0
H2792 H 0.75068 0.13406 0.80062 0.0
H2793 H 0.84803 0.19536 0.8057 0.0
H2794 H 0.8703 0.18505 0.80335 0.0
H2795 H 0.86136 0.1882 0.8216 0.0
H2796 H 0.84776 0.14209 0.82475 0.0
H2797 H 0.85686 0.13882 0.80652 0.0
H2798 H 0.82547 0.11776 0.8109 0.0
H2799 H 0.76351 0.12964 0.7747 0.0
H2800 H 0.78491 0.13165 0.7521 0.0
H2801 H 0.85401 0.15459 0.77981 0.0
C2802 C 0.80925 0.15861 0.82962 0.0
C2803 C 0.78691 0.15666 0.83426 0.0
C2804 C 0.76554 0.14699 0.82375 0.0
C2805 C 0.76677 0.14051 0.80873 0.0
C2806 C 0.78941 0.14354 0.80444 0.0
C2807 C 0.81017 0.15211 0.81466 0.0
C2808 C 0.83278 0.15529 0.80719 0.0
C2809 C 0.85438 0.18259 0.8096 0.0
C2810 C 0.84121 0.13742 0.81267 0.0
C2811 C 0.82179 0.14791 0.79107 0.0
C2812 C 0.7967 0.14094 0.78967 0.0
C2813 C 0.78303 0.13465 0.77572 0.0
C2814 C 0.79536 0.13573 0.76292 0.0
C2815 C 0.8212 0.14316 0.76409 0.0
C2816 C 0.83432 0.14895 0.77844 0.0
H2817 H 0.28961 0.1297 0.505 0.0
H2818 H 0.32369 0.20591 0.49333 0.0
H2819 H 0.33944 0.22157 0.51968 0.0
H2820 H 0.27155 0.14085 0.54105 0.0
H2821 H 0.27893 0.11965 0.54978 0.0
H2822 H 0.269 0.11431 0.53011 0.0
H2823 H 0.30937 0.11382 0.52443 0.0
H2824 H 0.31941 0.11914 0.54407 0.0
H2825 H 0.33954 0.14006 0.53149 0.0
H2826 H 0.35331 0.22908 0.54695 0.0
H2827 H 0.36408 0.22792 0.57351 0.0
H2828 H 0.3218 0.14691 0.56755 0.0
C2829 C 0.30036 0.14968 0.50797 0.0
C2830 C 0.30524 0.16656 0.49706 0.0
C2831 C 0.31926 0.19259 0.50148 0.0
C2832 C 0.32843 0.20168 0.51642 0.0
C2833 C 0.32342 0.18455 0.52684 0.0
C2834 C 0.30968 0.1591 0.52285 0.0
C2835 C 0.30761 0.14473 0.53619 0.0
C2836 C 0.28014 0.12896 0.53948 0.0
C2837 C 0.31971 0.12848 0.5339 0.0
C2838 C 0.32263 0.16609 0.54827 0.0
C2839 C 0.3315 0.18889 0.54263 0.0
C2840 C 0.34641 0.21134 0.55151 0.0
C2841 C 0.35255 0.21049 0.56656 0.0
C2842 C 0.34384 0.18734 0.57259 0.0
C2843 C 0.32849 0.16488 0.5633 0.0
H2844 H 0.84262 0.17045 0.50057 0.0
H2845 H 0.91891 0.1855 0.50915 0.0
H2846 H 0.91828 0.19605 0.53591 0.0
H2847 H 0.84791 0.21918 0.52834 0.0
H2848 H 0.81646 0.19981 0.53324 0.0
H2849 H 0.82399 0.196 0.51463 0.0
H2850 H 0.80732 0.14909 0.51713 0.0
H2851 H 0.79995 0.15278 0.53577 0.0
H2852 H 0.82015 0.1402 0.53243 0.0
H2853 H 0.90763 0.2007 0.56209 0.0
H2854 H 0.88882 0.20116 0.58536 0.0
H2855 H 0.81962 0.18383 0.55958 0.0
C2856 C 0.85932 0.17623 0.50804 0.0
C2857 C 0.88084 0.17715 0.50274 0.0
C2858 C 0.90233 0.18497 0.51289 0.0
C2859 C 0.90208 0.19085 0.52813 0.0
C2860 C 0.88029 0.18905 0.53303 0.0
C2861 C 0.85939 0.1822 0.52325 0.0
C2862 C 0.83796 0.18065 0.53139 0.0
C2863 C 0.83119 0.20007 0.52662 0.0
C2864 C 0.815 0.15411 0.52904 0.0
C2865 C 0.84982 0.1871 0.54735 0.0
C2866 C 0.87428 0.19201 0.54806 0.0
C2867 C 0.88865 0.19732 0.56164 0.0
C2868 C 0.87778 0.19767 0.57483 0.0
C2869 C 0.85273 0.19278 0.57441 0.0
C2870 C 0.83873 0.18754 0.56039 0.0
H2871 H 0.86111 0.73819 0.51594 0.0
H2872 H 0.89873 0.70029 0.49854 0.0
H2873 H 0.89454 0.68059 0.52199 0.0
H2874 H 0.88632 0.74856 0.55462 0.0
H2875 H 0.85734 0.74263 0.56167 0.0
H2876 H 0.86516 0.75525 0.54403 0.0
H2877 H 0.82306 0.71869 0.53123 0.0
H2878 H 0.81514 0.70593 0.54881 0.0
H2879 H 0.81551 0.687 0.53301 0.0
H2880 H 0.8844 0.66346 0.5471 0.0
H2881 H 0.86877 0.65003 0.57144 0.0
H2882 H 0.83634 0.69791 0.57181 0.0
C2883 C 0.86845 0.72571 0.51697 0.0
C2884 C 0.88027 0.72086 0.50528 0.0
C2885 C 0.88995 0.70469 0.50734 0.0
C2886 C 0.88751 0.69326 0.52061 0.0
C2887 C 0.87533 0.69814 0.53175 0.0
C2888 C 0.86599 0.71401 0.53005 0.0
C2889 C 0.85281 0.71543 0.54341 0.0
C2890 C 0.86621 0.74205 0.5514 0.0
C2891 C 0.82498 0.70621 0.53884 0.0
C2892 C 0.85584 0.69757 0.55284 0.0
C2893 C 0.86911 0.68798 0.546 0.0
C2894 C 0.8741 0.67097 0.55257 0.0
C2895 C 0.86522 0.66352 0.56642 0.0
C2896 C 0.85131 0.67289 0.57355 0.0
C2897 C 0.8467 0.69022 0.56661 0.0
loop_
_geom_bond_atom_site_label_1
_geom_bond_atom_site_label_2
_geom_bond_distance
_geom_bond_site_symmetry_2
_ccdc_geom_bond_type
C0 C1 1.391 . S
C0 C4 1.391 . S
C0 H42 0.948 . S
C1 C0 1.391 . S
C1 C2 1.391 . S
C2 C1 1.391 . S
C2 H58 0.947 . S
C2 C59 1.392 . S
C3 C4 1.391 . S
C3 C7 1.397 . S
C3 C59 1.419 . S
C4 C0 1.391 . S
C4 C3 1.391 . S
C4 C5 1.399 . S
C5 C4 1.399 . S
C5 C8 1.396 . S
C5 C17 1.453 . S
C5 C18 1.684 . S
H6 C30 0.948 . S
C7 C3 1.397 . S
C7 C8 1.394 . S
C7 C26 1.723 . S
C8 C5 1.396 . S
C8 C7 1.394 . S
C8 C38 1.723 . S
H9 C32 0.947 . S
H10 C33 0.948 . S
H11 C39 0.982 . S
H12 C40 0.979 . S
H13 C40 0.980 . S
H14 C40 0.983 . S
H15 C39 0.979 . S
H16 C39 0.977 . S
C17 C5 1.453 . S
C17 H46 0.982 . S
C17 H47 0.979 . S
C17 H48 0.977 . S
C18 C5 1.684 . S
C18 H43 0.979 . S
C18 H44 0.980 . S
C18 H45 0.983 . S
C19 C20 1.391 . S
C19 C24 1.391 . S
C19 H49 0.948 . S
C20 C19 1.391 . S
C20 C21 1.391 . S
C21 C20 1.391 . S
C21 C22 1.392 . S
C21 H50 0.947 . S
C22 C21 1.392 . S
C22 C23 1.419 . S
C22 H51 0.948 . S
C23 C22 1.419 . S
C23 C24 1.391 . S
C23 C27 1.397 . S
C24 C19 1.391 . S
C24 C23 1.391 . S
C24 C25 1.399 . S
C25 C24 1.399 . S
C25 C26 1.396 . S
C25 C28 1.453 . S
C25 C29 1.684 . S
C26 C7 1.723 . S
C26 C25 1.396 . S
C26 C27 1.394 . S
C27 C23 1.397 . S
C27 C26 1.394 . S
C27 C37 1.723 . S
C28 C25 1.453 . S
C28 H52 0.982 . S
C28 H53 0.979 . S
C28 H54 0.977 . S
C29 C25 1.684 . S
C29 H55 0.979 . S
C29 H56 0.980 . S
C29 H57 0.983 . S
C30 H6 0.948 . S
C30 C31 1.391 . S
C30 C35 1.391 . S
C31 C30 1.391 . S
C31 C32 1.391 . S
C32 H9 0.947 . S
C32 C31 1.391 . S
C32 C33 1.392 . S
C33 H10 0.948 . S
C33 C32 1.392 . S
C33 C34 1.419 . S
C34 C33 1.419 . S
C34 C35 1.391 . S
C34 C38 1.397 . S
C35 C30 1.391 . S
C35 C34 1.391 . S
C35 C36 1.399 . S
C36 C35 1.399 . S
C36 C37 1.396 . S
C36 C39 1.453 . S
C36 C40 1.684 . S
C37 C27 1.723 . S
C37 C36 1.396 . S
C37 C38 1.394 . S
C38 C8 1.723 . S
C38 C34 1.397 . S
C38 C37 1.394 . S
C39 H11 0.982 . S
C39 H15 0.979 . S
C39 H16 0.977 . S
C39 C36 1.453 . S
C40 H12 0.979 . S
C40 H13 0.980 . S
C40 H14 0.983 . S
C40 C36 1.684 . S
H41 C59 0.948 . S
H42 C0 0.948 . S
H43 C18 0.979 . S
H44 C18 0.980 . S
H45 C18 0.983 . S
H46 C17 0.982 . S
H47 C17 0.979 . S
H48 C17 0.977 . S
H49 C19 0.948 . S
H50 C21 0.947 . S
H51 C22 0.948 . S
H52 C28 0.982 . S
H53 C28 0.979 . S
H54 C28 0.977 . S
H55 C29 0.979 . S
H56 C29 0.980 . S
H57 C29 0.983 . S
H58 C2 0.947 . S
C59 C2 1.392 . S
C59 C3 1.419 . S
C59 H41 0.948 . S
C60 C61 1.391 . S
C60 C64 1.391 . S
C60 H102 0.948 . S
C61 C60 1.391 . S
C61 C62 1.391 . S
C62 C61 1.391 . S
C62 H118 0.947 . S
C62 C119 1.392 . S
C63 C64 1.391 . S
C63 C67 1.397 . S
C63 C119 1.419 . S
C64 C60 1.391 . S
C64 C63 1.391 . S
C64 C65 1.399 . S
C65 C64 1.399 . S
C65 C68 1.396 . S
C65 C77 1.453 . S
C65 C78 1.684 . S
H66 C90 0.948 . S
C67 C63 1.397 . S
C67 C68 1.394 . S
C67 C86 1.723 . S
C68 C65 1.396 . S
C68 C67 1.394 . S
C68 C98 1.723 . S
H69 C92 0.947 . S
H70 C93 0.948 . S
H71 C99 0.982 . S
H72 C100 0.979 . S
H73 C100 0.980 . S
H74 C100 0.983 . S
H75 C99 0.979 . S
H76 C99 0.977 . S
C77 C65 1.453 . S
C77 H106 0.982 . S
C77 H107 0.979 . S
C77 H108 0.977 . S
C78 C65 1.684 . S
C78 H103 0.979 . S
C78 H104 0.980 . S
C78 H105 0.983 . S
C79 C80 1.391 . S
C79 C84 1.391 . S
C79 H109 0.948 . S
C80 C79 1.391 . S
C80 C81 1.391 . S
C81 C80 1.391 . S
C81 C82 1.392 . S
C81 H110 0.947 . S
C82 C81 1.392 . S
C82 C83 1.419 . S
C82 H111 0.948 . S
C83 C82 1.419 . S
C83 C84 1.391 . S
C83 C87 1.397 . S
C84 C79 1.391 . S
C84 C83 1.391 . S
C84 C85 1.399 . S
C85 C84 1.399 . S
C85 C86 1.396 . S
C85 C88 1.453 . S
C85 C89 1.684 . S
C86 C67 1.723 . S
C86 C85 1.396 . S
C86 C87 1.394 . S
C87 C83 1.397 . S
C87 C86 1.394 . S
C87 C97 1.723 . S
C88 C85 1.453 . S
C88 H112 0.982 . S
C88 H113 0.979 . S
C88 H114 0.977 . S
C89 C85 1.684 . S
C89 H115 0.979 . S
C89 H116 0.980 . S
C89 H117 0.983 . S
C90 H66 0.948 . S
C90 C91 1.391 . S
C90 C95 1.391 . S
C91 C90 1.391 . S
C91 C92 1.391 . S
C92 H69 0.947 . S
C92 C91 1.391 . S
C92 C93 1.392 . S
C93 H70 0.948 . S
C93 C92 1.392 . S
C93 C94 1.419 . S
C94 C93 1.419 . S
C94 C95 1.391 . S
C94 C98 1.397 . S
C95 C90 1.391 . S
C95 C94 1.391 . S
C95 C96 1.399 . S
C96 C95 1.399 . S
C96 C97 1.396 . S
C96 C99 1.453 . S
C96 C100 1.684 . S
C97 C87 1.723 . S
C97 C96 1.396 . S
C97 C98 1.394 . S
C98 C68 1.723 . S
C98 C94 1.397 . S
C98 C97 1.394 . S
C99 H71 0.982 . S
C99 H75 0.979 . S
C99 H76 0.977 . S
C99 C96 1.453 . S
C100 H72 0.979 . S
C100 H73 0.980 . S
C100 H74 0.983 . S
C100 C96 1.684 . S
H101 C119 0.948 . S
H102 C60 0.948 . S
H103 C78 0.979 . S
H104 C78 0.980 . S
H105 C78 0.983 . S
H106 C77 0.982 . S
H107 C77 0.979 . S
H108 C77 0.977 . S
H109 C79 0.948 . S
H110 C81 0.947 . S
H111 C82 0.948 . S
H112 C88 0.982 . S
H113 C88 0.979 . S
H114 C88 0.977 . S
H115 C89 0.979 . S
H116 C89 0.980 . S
H117 C89 0.983 . S
H118 C62 0.947 . S
C119 C62 1.392 . S
C119 C63 1.419 . S
C119 H101 0.948 . S
C120 C121 1.391 . S
C120 C124 1.391 . S
C120 H162 0.948 . S
C121 C120 1.391 . S
C121 C122 1.391 . S
C122 C121 1.391 . S
C122 H178 0.947 . S
C122 C179 1.392 . S
C123 C124 1.391 . S
C123 C127 1.397 . S
C123 C179 1.419 . S
C124 C120 1.391 . S
C124 C123 1.391 . S
C124 C125 1.399 . S
C125 C124 1.399 . S
C125 C128 1.396 . S
C125 C137 1.453 . S
C125 C138 1.684 . S
H126 C150 0.948 . S
C127 C123 1.397 . S
C127 C128 1.394 . S
C127 C146 1.723 . S
C128 C125 1.396 . S
C128 C127 1.394 . S
C128 C158 1.723 . S
H129 C152 0.947 . S
H130 C153 0.948 . S
H131 C159 0.982 . S
H132 C160 0.979 . S
H133 C160 0.980 . S
H134 C160 0.983 . S
H135 C159 0.979 . S
H136 C159 0.977 . S
C137 C125 1.453 . S
C137 H166 0.982 . S
C137 H167 0.979 . S
C137 H168 0.977 . S
C138 C125 1.684 . S
C138 H163 0.979 . S
C138 H164 0.980 . S
C138 H165 0.983 . S
C139 C140 1.391 . S
C139 C144 1.391 . S
C139 H169 0.948 . S
C140 C139 1.391 . S
C140 C141 1.391 . S
C141 C140 1.391 . S
C141 C142 1.392 . S
C141 H170 0.947 . S
C142 C141 1.392 . S
C142 C143 1.419 . S
C142 H171 0.948 . S
C143 C142 1.419 . S
C143 C144 1.391 . S
C143 C147 1.397 . S
C144 C139 1.391 . S
C144 C143 1.391 . S
C144 C145 1.399 . S
C145 C144 1.399 . S
C145 C146 1.396 . S
C145 C148 1.453 . S
C145 C149 1.684 . S
C146 C127 1.723 . S
C146 C145 1.396 . S
C146 C147 1.394 . S
C147 C143 1.397 . S
C147 C146 1.394 . S
C147 C157 1.723 . S
C148 C145 1.453 . S
C148 H172 0.982 . S
C148 H173 0.979 . S
C148 H174 0.977 . S
C149 C145 1.684 . S
C149 H175 0.979 . S
C149 H176 0.980 . S
C149 H177 0.983 . S
C150 H126 0.948 . S
C150 C151 1.391 . S
C150 C155 1.391 . S
C151 C150 1.391 . S
C151 C152 1.391 . S
C152 H129 0.947 . S
C152 C151 1.391 . S
C152 C153 1.392 . S
C153 H130 0.948 . S
C153 C152 1.392 . S
C153 C154 1.419 . S
C154 C153 1.419 . S
C154 C155 1.391 . S
C154 C158 1.397 . S
C155 C150 1.391 . S
C155 C154 1.391 . S
C155 C156 1.399 . S
C156 C155 1.399 . S
C156 C157 1.396 . S
C156 C159 1.453 . S
C156 C160 1.684 . S
C157 C147 1.723 . S
C157 C156 1.396 . S
C157 C158 1.394 . S
C158 C128 1.723 . S
C158 C154 1.397 . S
C158 C157 1.394 . S
C159 H131 0.982 . S
C159 H135 0.979 . S
C159 H136 0.977 . S
C159 C156 1.453 . S
C160 H132 0.979 . S
C160 H133 0.980 . S
C160 H134 0.983 . S
C160 C156 1.684 . S
H161 C179 0.948 . S
H162 C120 0.948 . S
H163 C138 0.979 . S
H164 C138 0.980 . S
H165 C138 0.983 . S
H166 C137 0.982 . S
H167 C137 0.979 . S
H168 C137 0.977 . S
H169 C139 0.948 . S
H170 C141 0.947 . S
H171 C142 0.948 . S
H172 C148 0.982 . S
H173 C148 0.979 . S
H174 C148 0.977 . S
H175 C149 0.979 . S
H176 C149 0.980 . S
H177 C149 0.983 . S
H178 C122 0.947 . S
C179 C122 1.392 . S
C179 C123 1.419 . S
C179 H161 0.948 . S
C180 C181 1.391 . S
C180 C184 1.391 . S
C180 H222 0.948 . S
C181 C180 1.391 . S
C181 C182 1.391 . S
C182 C181 1.391 . S
C182 H238 0.947 . S
C182 C239 1.392 . S
C183 C184 1.391 . S
C183 C187 1.397 . S
C183 C239 1.419 . S
C184 C180 1.391 . S
C184 C183 1.391 . S
C184 C185 1.399 . S
C185 C184 1.399 . S
C185 C188 1.396 . S
C185 C197 1.453 . S
C185 C198 1.684 . S
H186 C210 0.948 . S
C187 C183 1.397 . S
C187 C188 1.394 . S
C187 C206 1.723 . S
C188 C185 1.396 . S
C188 C187 1.394 . S
C188 C218 1.723 . S
H189 C212 0.947 . S
H190 C213 0.948 . S
H191 C219 0.982 . S
H192 C220 0.979 . S
H193 C220 0.980 . S
H194 C220 0.983 . S
H195 C219 0.979 . S
H196 C219 0.977 . S
C197 C185 1.453 . S
C197 H226 0.982 . S
C197 H227 0.979 . S
C197 H228 0.977 . S
C198 C185 1.684 . S
C198 H223 0.979 . S
C198 H224 0.980 . S
C198 H225 0.983 . S
C199 C200 1.391 . S
C199 C204 1.391 . S
C199 H229 0.948 . S
C200 C199 1.391 . S
C200 C201 1.391 . S
C201 C200 1.391 . S
C201 C202 1.392 . S
C201 H230 0.947 . S
C202 C201 1.392 . S
C202 C203 1.419 . S
C202 H231 0.948 . S
C203 C202 1.419 . S
C203 C204 1.391 . S
C203 C207 1.397 . S
C204 C199 1.391 . S
C204 C203 1.391 . S
C204 C205 1.399 . S
C205 C204 1.399 . S
C205 C206 1.396 . S
C205 C208 1.453 . S
C205 C209 1.684 . S
C206 C187 1.723 . S
C206 C205 1.396 . S
C206 C207 1.394 . S
C207 C203 1.397 . S
C207 C206 1.394 . S
C207 C217 1.723 . S
C208 C205 1.453 . S
C208 H232 0.982 . S
C208 H233 0.979 . S
C208 H234 0.977 . S
C209 C205 1.684 . S
C209 H235 0.979 . S
C209 H236 0.980 . S
C209 H237 0.983 . S
C210 H186 0.948 . S
C210 C211 1.391 . S
C210 C215 1.391 . S
C211 C210 1.391 . S
C211 C212 1.391 . S
C212 H189 0.947 . S
C212 C211 1.391 . S
C212 C213 1.392 . S
C213 H190 0.948 . S
C213 C212 1.392 . S
C213 C214 1.419 . S
C214 C213 1.419 . S
C214 C215 1.391 . S
C214 C218 1.397 . S
C215 C210 1.391 . S
C215 C214 1.391 . S
C215 C216 1.399 . S
C216 C215 1.399 . S
C216 C217 1.396 . S
C216 C219 1.453 . S
C216 C220 1.684 . S
C217 C207 1.723 . S
C217 C216 1.396 . S
C217 C218 1.394 . S
C218 C188 1.723 . S
C218 C214 1.397 . S
C218 C217 1.394 . S
C219 H191 0.982 . S
C219 H195 0.979 . S
C219 H196 0.977 . S
C219 C216 1.453 . S
C220 H192 0.979 . S
C220 H193 0.980 . S
C220 H194 0.983 . S
C220 C216 1.684 . S
H221 C239 0.948 . S
H222 C180 0.948 . S
H223 C198 0.979 . S
H224 C198 0.980 . S
H225 C198 0.983 . S
H226 C197 0.982 . S
H227 C197 0.979 . S
H228 C197 0.977 . S
H229 C199 0.948 . S
H230 C201 0.947 . S
H231 C202 0.948 . S
H232 C208 0.982 . S
H233 C208 0.979 . S
H234 C208 0.977 . S
H235 C209 0.979 . S
H236 C209 0.980 . S
H237 C209 0.983 . S
H238 C182 0.947 . S
C239 C182 1.392 . S
C239 C183 1.419 . S
C239 H221 0.948 . S
C240 C241 1.391 . S
C240 C244 1.391 . S
C240 H282 0.948 . S
C241 C240 1.391 . S
C241 C242 1.391 . S
C242 C241 1.391 . S
C242 H298 0.947 . S
C242 C299 1.392 . S
C243 C244 1.391 . S
C243 C247 1.397 . S
C243 C299 1.419 . S
C244 C240 1.391 . S
C244 C243 1.391 . S
C244 C245 1.399 . S
C245 C244 1.399 . S
C245 C248 1.396 . S
C245 C257 1.453 . S
C245 C258 1.684 . S
H246 C270 0.948 . S
C247 C243 1.397 . S
C247 C248 1.394 . S
C247 C266 1.723 . S
C248 C245 1.396 . S
C248 C247 1.394 . S
C248 C278 1.723 . S
H249 C272 0.947 . S
H250 C273 0.948 . S
H251 C279 0.982 . S
H252 C280 0.979 . S
H253 C280 0.980 . S
H254 C280 0.983 . S
H255 C279 0.979 . S
H256 C279 0.977 . S
C257 C245 1.453 . S
C257 H286 0.982 . S
C257 H287 0.979 . S
C257 H288 0.977 . S
C258 C245 1.684 . S
C258 H283 0.979 . S
C258 H284 0.980 . S
C258 H285 0.983 . S
C259 C260 1.391 . S
C259 C264 1.391 . S
C259 H289 0.948 . S
C260 C259 1.391 . S
C260 C261 1.391 . S
C261 C260 1.391 . S
C261 C262 1.392 . S
C261 H290 0.947 . S
C262 C261 1.392 . S
C262 C263 1.419 . S
C262 H291 0.948 . S
C263 C262 1.419 . S
C263 C264 1.391 . S
C263 C267 1.397 . S
C264 C259 1.391 . S
C264 C263 1.391 . S
C264 C265 1.399 . S
C265 C264 1.399 . S
C265 C266 1.396 . S
C265 C268 1.453 . S
C265 C269 1.684 . S
C266 C247 1.723 . S
C266 C265 1.396 . S
C266 C267 1.394 . S
C267 C263 1.397 . S
C267 C266 1.394 . S
C267 C277 1.723 . S
C268 C265 1.453 . S
C268 H292 0.982 . S
C268 H293 0.979 . S
C268 H294 0.977 . S
C269 C265 1.684 . S
C269 H295 0.979 . S
C269 H296 0.980 . S
C269 H297 0.983 . S
C270 H246 0.948 . S
C270 C271 1.391 . S
C270 C275 1.391 . S
C271 C270 1.391 . S
C271 C272 1.391 . S
C272 H249 0.947 . S
C272 C271 1.391 . S
C272 C273 1.392 . S
C273 H250 0.948 . S
C273 C272 1.392 . S
C273 C274 1.419 . S
C274 C273 1.419 . S
C274 C275 1.391 . S
C274 C278 1.397 . S
C275 C270 1.391 . S
C275 C274 1.391 . S
C275 C276 1.399 . S
C276 C275 1.399 . S
C276 C277 1.396 . S
C276 C279 1.453 . S
C276 C280 1.684 . S
C277 C267 1.723 . S
C277 C276 1.396 . S
C277 C278 1.394 . S
C278 C248 1.723 . S
C278 C274 1.397 . S
C278 C277 1.394 . S
C279 H251 0.982 . S
C279 H255 0.979 . S
C279 H256 0.977 . S
C279 C276 1.453 . S
C280 H252 0.979 . S
C280 H253 0.980 . S
C280 H254 0.983 . S
C280 C276 1.684 . S
H281 C299 0.948 . S
H282 C240 0.948 . S
H283 C258 0.979 . S
H284 C258 0.980 . S
H285 C258 0.983 . S
H286 C257 0.982 . S
H287 C257 0.979 . S
H288 C257 0.977 . S
H289 C259 0.948 . S
H290 C261 0.947 . S
H291 C262 0.948 . S
H292 C268 0.982 . S
H293 C268 0.979 . S
H294 C268 0.977 . S
H295 C269 0.979 . S
H296 C269 0.980 . S
H297 C269 0.983 . S
H298 C242 0.947 . S
C299 C242 1.392 . S
C299 C243 1.419 . S
C299 H281 0.948 . S
C300 C301 1.391 . S
C300 C304 1.391 . S
C300 H342 0.948 . S
C301 C300 1.391 . S
C301 C302 1.391 . S
C302 C301 1.391 . S
C302 H358 0.947 . S
C302 C359 1.392 . S
C303 C304 1.391 . S
C303 C307 1.397 . S
C303 C359 1.419 . S
C304 C300 1.391 . S
C304 C303 1.391 . S
C304 C305 1.399 . S
C305 C304 1.399 . S
C305 C308 1.396 . S
C305 C317 1.453 . S
C305 C318 1.684 . S
H306 C330 0.948 . S
C307 C303 1.397 . S
C307 C308 1.394 . S
C307 C326 1.723 . S
C308 C305 1.396 . S
C308 C307 1.394 . S
C308 C338 1.723 . S
H309 C332 0.947 . S
H310 C333 0.948 . S
H311 C339 0.982 . S
H312 C340 0.979 . S
H313 C340 0.980 . S
H314 C340 0.983 . S
H315 C339 0.979 . S
H316 C339 0.977 . S
C317 C305 1.453 . S
C317 H346 0.982 . S
C317 H347 0.979 . S
C317 H348 0.977 . S
C318 C305 1.684 . S
C318 H343 0.979 . S
C318 H344 0.980 . S
C318 H345 0.983 . S
C319 C320 1.391 . S
C319 C324 1.391 . S
C319 H349 0.948 . S
C320 C319 1.391 . S
C320 C321 1.391 . S
C321 C320 1.391 . S
C321 C322 1.392 . S
C321 H350 0.947 . S
C322 C321 1.392 . S
C322 C323 1.419 . S
C322 H351 0.948 . S
C323 C322 1.419 . S
C323 C324 1.391 . S
C323 C327 1.397 . S
C324 C319 1.391 . S
C324 C323 1.391 . S
C324 C325 1.399 . S
C325 C324 1.399 . S
C325 C326 1.396 . S
C325 C328 1.453 . S
C325 C329 1.684 . S
C326 C307 1.723 . S
C326 C325 1.396 . S
C326 C327 1.394 . S
C327 C323 1.397 . S
C327 C326 1.394 . S
C327 C337 1.723 . S
C328 C325 1.453 . S
C328 H352 0.982 . S
C328 H353 0.979 . S
C328 H354 0.977 . S
C329 C325 1.684 . S
C329 H355 0.979 . S
C329 H356 0.980 . S
C329 H357 0.983 . S
C330 H306 0.948 . S
C330 C331 1.391 . S
C330 C335 1.391 . S
C331 C330 1.391 . S
C331 C332 1.391 . S
C332 H309 0.947 . S
C332 C331 1.391 . S
C332 C333 1.392 . S
C333 H310 0.948 . S
C333 C332 1.392 . S
C333 C334 1.419 . S
C334 C333 1.419 . S
C334 C335 1.391 . S
C334 C338 1.397 . S
C335 C330 1.391 . S
C335 C334 1.391 . S
C335 C336 1.399 . S
C336 C335 1.399 . S
C336 C337 1.396 . S
C336 C339 1.453 . S
C336 C340 1.684 . S
C337 C327 1.723 . S
C337 C336 1.396 . S
C337 C338 1.394 . S
C338 C308 1.723 . S
C338 C334 1.397 . S
C338 C337 1.394 . S
C339 H311 0.982 . S
C339 H315 0.979 . S
C339 H316 0.977 . S
C339 C336 1.453 . S
C340 H312 0.979 . S
C340 H313 0.980 . S
C340 H314 0.983 . S
C340 C336 1.684 . S
H341 C359 0.948 . S
H342 C300 0.948 . S
H343 C318 0.979 . S
H344 C318 0.980 . S
H345 C318 0.983 . S
H346 C317 0.982 . S
H347 C317 0.979 . S
H348 C317 0.977 . S
H349 C319 0.948 . S
H350 C321 0.947 . S
H351 C322 0.948 . S
H352 C328 0.982 . S
H353 C328 0.979 . S
H354 C328 0.977 . S
H355 C329 0.979 . S
H356 C329 0.980 . S
H357 C329 0.983 . S
H358 C302 0.947 . S
C359 C302 1.392 . S
C359 C303 1.419 . S
C359 H341 0.948 . S
C360 C361 1.391 . S
C360 C364 1.391 . S
C360 H402 0.948 . S
C361 C360 1.391 . S
C361 C362 1.391 . S
C362 C361 1.391 . S
C362 H418 0.947 . S
C362 C419 1.392 . S
C363 C364 1.391 . S
C363 C367 1.397 . S
C363 C419 1.419 . S
C364 C360 1.391 . S
C364 C363 1.391 . S
C364 C365 1.399 . S
C365 C364 1.399 . S
C365 C368 1.396 . S
C365 C377 1.453 . S
C365 C378 1.684 . S
H366 C390 0.948 . S
C367 C363 1.397 . S
C367 C368 1.394 . S
C367 C386 1.723 . S
C368 C365 1.396 . S
C368 C367 1.394 . S
C368 C398 1.723 . S
H369 C392 0.947 . S
H370 C393 0.948 . S
H371 C399 0.982 . S
H372 C400 0.979 . S
H373 C400 0.980 . S
H374 C400 0.983 . S
H375 C399 0.979 . S
H376 C399 0.977 . S
C377 C365 1.453 . S
C377 H406 0.982 . S
C377 H407 0.979 . S
C377 H408 0.977 . S
C378 C365 1.684 . S
C378 H403 0.979 . S
C378 H404 0.980 . S
C378 H405 0.983 . S
C379 C380 1.391 . S
C379 C384 1.391 . S
C379 H409 0.948 . S
C380 C379 1.391 . S
C380 C381 1.391 . S
C381 C380 1.391 . S
C381 C382 1.392 . S
C381 H410 0.947 . S
C382 C381 1.392 . S
C382 C383 1.419 . S
C382 H411 0.948 . S
C383 C382 1.419 . S
C383 C384 1.391 . S
C383 C387 1.397 . S
C384 C379 1.391 . S
C384 C383 1.391 . S
C384 C385 1.399 . S
C385 C384 1.399 . S
C385 C386 1.396 . S
C385 C388 1.453 . S
C385 C389 1.684 . S
C386 C367 1.723 . S
C386 C385 1.396 . S
C386 C387 1.394 . S
C387 C383 1.397 . S
C387 C386 1.394 . S
C387 C397 1.723 . S
C388 C385 1.453 . S
C388 H412 0.982 1_655 S
C388 H413 0.979 . S
C388 H414 0.977 . S
C389 C385 1.684 . S
C389 H415 0.979 . S
C389 H416 0.980 . S
C389 H417 0.983 . S
C390 H366 0.948 . S
C390 C391 1.391 . S
C390 C395 1.391 . S
C391 C390 1.391 . S
C391 C392 1.391 . S
C392 H369 0.947 . S
C392 C391 1.391 . S
C392 C393 1.392 . S
C393 H370 0.948 . S
C393 C392 1.392 . S
C393 C394 1.419 . S
C394 C393 1.419 . S
C394 C395 1.391 . S
C394 C398 1.397 . S
C395 C390 1.391 . S
C395 C394 1.391 . S
C395 C396 1.399 . S
C396 C395 1.399 . S
C396 C397 1.396 . S
C396 C399 1.453 . S
C396 C400 1.684 . S
C397 C387 1.723 . S
C397 C396 1.396 . S
C397 C398 1.394 . S
C398 C368 1.723 . S
C398 C394 1.397 . S
C398 C397 1.394 . S
C399 H371 0.982 . S
C399 H375 0.979 . S
C399 H376 0.977 . S
C399 C396 1.453 . S
C400 H372 0.979 . S
C400 H373 0.980 . S
C400 H374 0.983 . S
C400 C396 1.684 . S
H401 C419 0.948 . S
H402 C360 0.948 . S
H403 C378 0.979 . S
H404 C378 0.980 . S
H405 C378 0.983 . S
H406 C377 0.982 . S
H407 C377 0.979 . S
H408 C377 0.977 . S
H409 C379 0.948 . S
H410 C381 0.947 . S
H411 C382 0.948 . S
H412 C388 0.982 1_455 S
H413 C388 0.979 . S
H414 C388 0.977 . S
H415 C389 0.979 . S
H416 C389 0.980 . S
H417 C389 0.983 . S
H418 C362 0.947 . S
C419 C362 1.392 . S
C419 C363 1.419 . S
C419 H401 0.948 . S
C420 C421 1.391 . S
C420 C424 1.391 . S
C420 H462 0.948 . S
C421 C420 1.391 . S
C421 C422 1.391 . S
C422 C421 1.391 . S
C422 H478 0.947 . S
C422 C479 1.392 . S
C423 C424 1.391 . S
C423 C427 1.397 . S
C423 C479 1.419 . S
C424 C420 1.391 . S
C424 C423 1.391 . S
C424 C425 1.399 . S
C425 C424 1.399 . S
C425 C428 1.396 . S
C425 C437 1.453 . S
C425 C438 1.684 . S
H426 C450 0.948 . S
C427 C423 1.397 . S
C427 C428 1.394 . S
C427 C446 1.723 . S
C428 C425 1.396 . S
C428 C427 1.394 . S
C428 C458 1.723 . S
H429 C452 0.947 . S
H430 C453 0.948 . S
H431 C459 0.982 . S
H432 C460 0.979 . S
H433 C460 0.980 . S
H434 C460 0.983 . S
H435 C459 0.979 . S
H436 C459 0.977 . S
C437 C425 1.453 . S
C437 H466 0.982 . S
C437 H467 0.979 . S
C437 H468 0.977 . S
C438 C425 1.684 . S
C438 H463 0.979 . S
C438 H464 0.980 . S
C438 H465 0.983 . S
C439 C440 1.391 . S
C439 C444 1.391 . S
C439 H469 0.948 . S
C440 C439 1.391 . S
C440 C441 1.391 . S
C441 C440 1.391 . S
C441 C442 1.392 . S
C441 H470 0.947 . S
C442 C441 1.392 . S
C442 C443 1.419 . S
C442 H471 0.948 . S
C443 C442 1.419 . S
C443 C444 1.391 . S
C443 C447 1.397 . S
C444 C439 1.391 . S
C444 C443 1.391 . S
C444 C445 1.399 . S
C445 C444 1.399 . S
C445 C446 1.396 . S
C445 C448 1.453 . S
C445 C449 1.684 . S
C446 C427 1.723 . S
C446 C445 1.396 . S
C446 C447 1.394 . S
C447 C443 1.397 . S
C447 C446 1.394 . S
C447 C457 1.723 . S
C448 C445 1.453 . S
C448 H472 0.982 . S
C448 H473 0.979 . S
C448 H474 0.977 . S
C449 C445 1.684 . S
C449 H475 0.979 . S
C449 H476 0.980 . S
C449 H477 0.983 . S
C450 H426 0.948 . S
C450 C451 1.391 . S
C450 C455 1.391 . S
C451 C450 1.391 . S
C451 C452 1.391 . S
C452 H429 0.947 . S
C452 C451 1.391 . S
C452 C453 1.392 . S
C453 H430 0.948 . S
C453 C452 1.392 . S
C453 C454 1.419 . S
C454 C453 1.419 . S
C454 C455 1.391 . S
C454 C458 1.397 . S
C455 C450 1.391 . S
C455 C454 1.391 . S
C455 C456 1.399 . S
C456 C455 1.399 . S
C456 C457 1.396 . S
C456 C459 1.453 . S
C456 C460 1.684 . S
C457 C447 1.723 . S
C457 C456 1.396 . S
C457 C458 1.394 . S
C458 C428 1.723 . S
C458 C454 1.397 . S
C458 C457 1.394 . S
C459 H431 0.982 . S
C459 H435 0.979 . S
C459 H436 0.977 . S
C459 C456 1.453 . S
C460 H432 0.979 . S
C460 H433 0.980 . S
C460 H434 0.983 . S
C460 C456 1.684 . S
H461 C479 0.948 . S
H462 C420 0.948 . S
H463 C438 0.979 . S
H464 C438 0.980 . S
H465 C438 0.983 . S
H466 C437 0.982 . S
H467 C437 0.979 . S
H468 C437 0.977 . S
H469 C439 0.948 . S
H470 C441 0.947 . S
H471 C442 0.948 . S
H472 C448 0.982 . S
H473 C448 0.979 . S
H474 C448 0.977 . S
H475 C449 0.979 . S
H476 C449 0.980 . S
H477 C449 0.983 . S
H478 C422 0.947 . S
C479 C422 1.392 . S
C479 C423 1.419 . S
C479 H461 0.948 . S
C480 C481 1.391 . S
C480 C484 1.391 . S
C480 H522 0.948 . S
C481 C480 1.391 . S
C481 C482 1.391 . S
C482 C481 1.391 . S
C482 H538 0.947 . S
C482 C539 1.392 . S
C483 C484 1.391 . S
C483 C487 1.397 . S
C483 C539 1.419 . S
C484 C480 1.391 . S
C484 C483 1.391 . S
C484 C485 1.399 . S
C485 C484 1.399 . S
C485 C488 1.396 . S
C485 C497 1.453 . S
C485 C498 1.684 . S
H486 C510 0.948 . S
C487 C483 1.397 . S
C487 C488 1.394 . S
C487 C506 1.723 . S
C488 C485 1.396 . S
C488 C487 1.394 . S
C488 C518 1.723 . S
H489 C512 0.947 . S
H490 C513 0.948 . S
H491 C519 0.982 . S
H492 C520 0.979 . S
H493 C520 0.980 . S
H494 C520 0.983 . S
H495 C519 0.979 . S
H496 C519 0.977 . S
C497 C485 1.453 . S
C497 H526 0.982 . S
C497 H527 0.979 . S
C497 H528 0.977 . S
C498 C485 1.684 . S
C498 H523 0.979 . S
C498 H524 0.980 . S
C498 H525 0.983 . S
C499 C500 1.391 . S
C499 C504 1.391 . S
C499 H529 0.948 . S
C500 C499 1.391 . S
C500 C501 1.391 . S
C501 C500 1.391 . S
C501 C502 1.392 . S
C501 H530 0.947 . S
C502 C501 1.392 . S
C502 C503 1.419 . S
C502 H531 0.948 . S
C503 C502 1.419 . S
C503 C504 1.391 . S
C503 C507 1.397 . S
C504 C499 1.391 . S
C504 C503 1.391 . S
C504 C505 1.399 . S
C505 C504 1.399 . S
C505 C506 1.396 . S
C505 C508 1.453 . S
C505 C509 1.684 . S
C506 C487 1.723 . S
C506 C505 1.396 . S
C506 C507 1.394 . S
C507 C503 1.397 . S
C507 C506 1.394 . S
C507 C517 1.723 . S
C508 C505 1.453 . S
C508 H532 0.982 . S
C508 H533 0.979 . S
C508 H534 0.977 . S
C509 C505 1.684 . S
C509 H535 0.979 . S
C509 H536 0.980 . S
C509 H537 0.983 . S
C510 H486 0.948 . S
C510 C511 1.391 . S
C510 C515 1.391 . S
C511 C510 1.391 . S
C511 C512 1.391 . S
C512 H489 0.947 . S
C512 C511 1.391 . S
C512 C513 1.392 . S
C513 H490 0.948 . S
C513 C512 1.392 . S
C513 C514 1.419 . S
C514 C513 1.419 . S
C514 C515 1.391 . S
C514 C518 1.397 . S
C515 C510 1.391 . S
C515 C514 1.391 . S
C515 C516 1.399 . S
C516 C515 1.399 . S
C516 C517 1.396 . S
C516 C519 1.453 . S
C516 C520 1.684 . S
C517 C507 1.723 . S
C517 C516 1.396 . S
C517 C518 1.394 . S
C518 C488 1.723 . S
C518 C514 1.397 . S
C518 C517 1.394 . S
C519 H491 0.982 . S
C519 H495 0.979 . S
C519 H496 0.977 . S
C519 C516 1.453 . S
C520 H492 0.979 . S
C520 H493 0.980 . S
C520 H494 0.983 . S
C520 C516 1.684 . S
H521 C539 0.948 . S
H522 C480 0.948 . S
H523 C498 0.979 . S
H524 C498 0.980 . S
H525 C498 0.983 . S
H526 C497 0.982 . S
H527 C497 0.979 . S
H528 C497 0.977 . S
H529 C499 0.948 . S
H530 C501 0.947 . S
H531 C502 0.948 . S
H532 C508 0.982 . S
H533 C508 0.979 . S
H534 C508 0.977 . S
H535 C509 0.979 . S
H536 C509 0.980 . S
H537 C509 0.983 . S
H538 C482 0.947 . S
C539 C482 1.392 . S
C539 C483 1.419 . S
C539 H521 0.948 . S
C540 C541 1.391 . S
C540 C544 1.391 . S
C540 H582 0.948 . S
C541 C540 1.391 . S
C541 C542 1.391 . S
C542 C541 1.391 . S
C542 H598 0.947 . S
C542 C599 1.392 . S
C543 C544 1.391 . S
C543 C547 1.397 . S
C543 C599 1.419 . S
C544 C540 1.391 . S
C544 C543 1.391 . S
C544 C545 1.399 . S
C545 C544 1.399 . S
C545 C548 1.396 . S
C545 C557 1.453 . S
C545 C558 1.684 . S
H546 C570 0.948 . S
C547 C543 1.397 . S
C547 C548 1.394 . S
C547 C566 1.723 . S
C548 C545 1.396 . S
C548 C547 1.394 . S
C548 C578 1.723 . S
H549 C572 0.947 . S
H550 C573 0.948 . S
H551 C579 0.982 . S
H552 C580 0.979 . S
H553 C580 0.980 . S
H554 C580 0.983 . S
H555 C579 0.979 . S
H556 C579 0.977 . S
C557 C545 1.453 . S
C557 H586 0.982 . S
C557 H587 0.979 . S
C557 H588 0.977 . S
C558 C545 1.684 . S
C558 H583 0.979 . S
C558 H584 0.980 . S
C558 H585 0.983 . S
C559 C560 1.391 . S
C559 C564 1.391 . S
C559 H589 0.948 . S
C560 C559 1.391 . S
C560 C561 1.391 . S
C561 C560 1.391 . S
C561 C562 1.392 . S
C561 H590 0.947 . S
C562 C561 1.392 . S
C562 C563 1.419 . S
C562 H591 0.948 . S
C563 C562 1.419 . S
C563 C564 1.391 . S
C563 C567 1.397 . S
C564 C559 1.391 . S
C564 C563 1.391 . S
C564 C565 1.399 . S
C565 C564 1.399 . S
C565 C566 1.396 . S
C565 C568 1.453 . S
C565 C569 1.684 . S
C566 C547 1.723 . S
C566 C565 1.396 . S
C566 C567 1.394 . S
C567 C563 1.397 . S
C567 C566 1.394 . S
C567 C577 1.723 . S
C568 C565 1.453 . S
C568 H592 0.982 . S
C568 H593 0.979 . S
C568 H594 0.977 . S
C569 C565 1.684 . S
C569 H595 0.979 . S
C569 H596 0.980 . S
C569 H597 0.983 . S
C570 H546 0.948 . S
C570 C571 1.391 . S
C570 C575 1.391 . S
C571 C570 1.391 . S
C571 C572 1.391 . S
C572 H549 0.947 . S
C572 C571 1.391 . S
C572 C573 1.392 . S
C573 H550 0.948 . S
C573 C572 1.392 . S
C573 C574 1.419 . S
C574 C573 1.419 . S
C574 C575 1.391 . S
C574 C578 1.397 . S
C575 C570 1.391 . S
C575 C574 1.391 . S
C575 C576 1.399 . S
C576 C575 1.399 . S
C576 C577 1.396 . S
C576 C579 1.453 . S
C576 C580 1.684 . S
C577 C567 1.723 . S
C577 C576 1.396 . S
C577 C578 1.394 . S
C578 C548 1.723 . S
C578 C574 1.397 . S
C578 C577 1.394 . S
C579 H551 0.982 . S
C579 H555 0.979 . S
C579 H556 0.977 . S
C579 C576 1.453 . S
C580 H552 0.979 . S
C580 H553 0.980 . S
C580 H554 0.983 . S
C580 C576 1.684 . S
H581 C599 0.948 . S
H582 C540 0.948 . S
H583 C558 0.979 . S
H584 C558 0.980 . S
H585 C558 0.983 . S
H586 C557 0.982 . S
H587 C557 0.979 . S
H588 C557 0.977 . S
H589 C559 0.948 . S
H590 C561 0.947 . S
H591 C562 0.948 . S
H592 C568 0.982 . S
H593 C568 0.979 . S
H594 C568 0.977 . S
H595 C569 0.979 . S
H596 C569 0.980 . S
H597 C569 0.983 . S
H598 C542 0.947 . S
C599 C542 1.392 . S
C599 C543 1.419 . S
C599 H581 0.948 . S
C600 C601 1.391 . S
C600 C604 1.391 . S
C600 H642 0.948 . S
C601 C600 1.391 . S
C601 C602 1.391 . S
C602 C601 1.391 . S
C602 H658 0.947 . S
C602 C659 1.392 . S
C603 C604 1.391 . S
C603 C607 1.397 . S
C603 C659 1.419 . S
C604 C600 1.391 . S
C604 C603 1.391 . S
C604 C605 1.399 . S
C605 C604 1.399 . S
C605 C608 1.396 . S
C605 C617 1.453 . S
C605 C618 1.684 . S
H606 C630 0.948 . S
C607 C603 1.397 . S
C607 C608 1.394 . S
C607 C626 1.723 . S
C608 C605 1.396 . S
C608 C607 1.394 . S
C608 C638 1.723 . S
H609 C632 0.947 . S
H610 C633 0.948 . S
H611 C639 0.982 . S
H612 C640 0.979 . S
H613 C640 0.980 . S
H614 C640 0.983 . S
H615 C639 0.979 . S
H616 C639 0.977 . S
C617 C605 1.453 . S
C617 H646 0.982 . S
C617 H647 0.979 . S
C617 H648 0.977 . S
C618 C605 1.684 . S
C618 H643 0.979 . S
C618 H644 0.980 . S
C618 H645 0.983 . S
C619 C620 1.391 . S
C619 C624 1.391 . S
C619 H649 0.948 . S
C620 C619 1.391 . S
C620 C621 1.391 . S
C621 C620 1.391 . S
C621 C622 1.392 . S
C621 H650 0.947 . S
C622 C621 1.392 . S
C622 C623 1.419 . S
C622 H651 0.948 . S
C623 C622 1.419 . S
C623 C624 1.391 . S
C623 C627 1.397 . S
C624 C619 1.391 . S
C624 C623 1.391 . S
C624 C625 1.399 . S
C625 C624 1.399 . S
C625 C626 1.396 . S
C625 C628 1.453 . S
C625 C629 1.684 . S
C626 C607 1.723 . S
C626 C625 1.396 . S
C626 C627 1.394 . S
C627 C623 1.397 . S
C627 C626 1.394 . S
C627 C637 1.723 . S
C628 C625 1.453 . S
C628 H652 0.982 . S
C628 H653 0.979 . S
C628 H654 0.977 . S
C629 C625 1.684 . S
C629 H655 0.979 . S
C629 H656 0.980 . S
C629 H657 0.983 . S
C630 H606 0.948 . S
C630 C631 1.391 . S
C630 C635 1.391 . S
C631 C630 1.391 . S
C631 C632 1.391 . S
C632 H609 0.947 . S
C632 C631 1.391 . S
C632 C633 1.392 . S
C633 H610 0.948 . S
C633 C632 1.392 . S
C633 C634 1.419 . S
C634 C633 1.419 . S
C634 C635 1.391 . S
C634 C638 1.397 . S
C635 C630 1.391 . S
C635 C634 1.391 . S
C635 C636 1.399 . S
C636 C635 1.399 . S
C636 C637 1.396 . S
C636 C639 1.453 . S
C636 C640 1.684 . S
C637 C627 1.723 . S
C637 C636 1.396 . S
C637 C638 1.394 . S
C638 C608 1.723 . S
C638 C634 1.397 . S
C638 C637 1.394 . S
C639 H611 0.982 . S
C639 H615 0.979 . S
C639 H616 0.977 . S
C639 C636 1.453 . S
C640 H612 0.979 . S
C640 H613 0.980 . S
C640 H614 0.983 . S
C640 C636 1.684 . S
H641 C659 0.948 . S
H642 C600 0.948 . S
H643 C618 0.979 . S
H644 C618 0.980 . S
H645 C618 0.983 . S
H646 C617 0.982 . S
H647 C617 0.979 . S
H648 C617 0.977 . S
H649 C619 0.948 . S
H650 C621 0.947 . S
H651 C622 0.948 . S
H652 C628 0.982 . S
H653 C628 0.979 . S
H654 C628 0.977 . S
H655 C629 0.979 . S
H656 C629 0.980 . S
H657 C629 0.983 . S
H658 C602 0.947 . S
C659 C602 1.392 . S
C659 C603 1.419 . S
C659 H641 0.948 . S
C660 C661 1.391 . S
C660 C664 1.391 . S
C660 H702 0.948 . S
C661 C660 1.391 . S
C661 C662 1.391 . S
C662 C661 1.391 . S
C662 H718 0.947 . S
C662 C719 1.392 . S
C663 C664 1.391 . S
C663 C667 1.397 . S
C663 C719 1.419 . S
C664 C660 1.391 . S
C664 C663 1.391 . S
C664 C665 1.399 . S
C665 C664 1.399 . S
C665 C668 1.396 . S
C665 C677 1.453 . S
C665 C678 1.684 . S
H666 C690 0.948 . S
C667 C663 1.397 . S
C667 C668 1.394 . S
C667 C686 1.723 . S
C668 C665 1.396 . S
C668 C667 1.394 . S
C668 C698 1.723 . S
H669 C692 0.947 . S
H670 C693 0.948 . S
H671 C699 0.982 . S
H672 C700 0.979 . S
H673 C700 0.980 . S
H674 C700 0.983 . S
H675 C699 0.979 . S
H676 C699 0.977 . S
C677 C665 1.453 . S
C677 H706 0.982 . S
C677 H707 0.979 . S
C677 H708 0.977 . S
C678 C665 1.684 . S
C678 H703 0.979 . S
C678 H704 0.980 . S
C678 H705 0.983 . S
C679 C680 1.391 . S
C679 C684 1.391 . S
C679 H709 0.948 . S
C680 C679 1.391 . S
C680 C681 1.391 . S
C681 C680 1.391 . S
C681 C682 1.392 . S
C681 H710 0.947 . S
C682 C681 1.392 . S
C682 C683 1.419 . S
C682 H711 0.948 . S
C683 C682 1.419 . S
C683 C684 1.391 . S
C683 C687 1.397 . S
C684 C679 1.391 . S
C684 C683 1.391 . S
C684 C685 1.399 . S
C685 C684 1.399 . S
C685 C686 1.396 . S
C685 C688 1.453 . S
C685 C689 1.684 . S
C686 C667 1.723 . S
C686 C685 1.396 . S
C686 C687 1.394 . S
C687 C683 1.397 . S
C687 C686 1.394 . S
C687 C697 1.723 . S
C688 C685 1.453 . S
C688 H712 0.982 . S
C688 H713 0.979 . S
C688 H714 0.977 . S
C689 C685 1.684 . S
C689 H715 0.979 . S
C689 H716 0.980 . S
C689 H717 0.983 . S
C690 H666 0.948 . S
C690 C691 1.391 . S
C690 C695 1.391 . S
C691 C690 1.391 . S
C691 C692 1.391 . S
C692 H669 0.947 . S
C692 C691 1.391 . S
C692 C693 1.392 . S
C693 H670 0.948 . S
C693 C692 1.392 . S
C693 C694 1.419 . S
C694 C693 1.419 . S
C694 C695 1.391 . S
C694 C698 1.397 . S
C695 C690 1.391 . S
C695 C694 1.391 . S
C695 C696 1.399 . S
C696 C695 1.399 . S
C696 C697 1.396 . S
C696 C699 1.453 . S
C696 C700 1.684 . S
C697 C687 1.723 . S
C697 C696 1.396 . S
C697 C698 1.394 . S
C698 C668 1.723 . S
C698 C694 1.397 . S
C698 C697 1.394 . S
C699 H671 0.982 . S
C699 H675 0.979 . S
C699 H676 0.977 . S
C699 C696 1.453 . S
C700 H672 0.979 . S
C700 H673 0.980 . S
C700 H674 0.983 . S
C700 C696 1.684 . S
H701 C719 0.948 . S
H702 C660 0.948 . S
H703 C678 0.979 . S
H704 C678 0.980 . S
H705 C678 0.983 . S
H706 C677 0.982 . S
H707 C677 0.979 . S
H708 C677 0.977 . S
H709 C679 0.948 . S
H710 C681 0.947 . S
H711 C682 0.948 . S
H712 C688 0.982 . S
H713 C688 0.979 . S
H714 C688 0.977 . S
H715 C689 0.979 . S
H716 C689 0.980 . S
H717 C689 0.983 . S
H718 C662 0.947 . S
C719 C662 1.392 . S
C719 C663 1.419 . S
C719 H701 0.948 . S
C720 C721 1.391 . S
C720 C724 1.391 . S
C720 H762 0.948 . S
C721 C720 1.391 . S
C721 C722 1.391 . S
C722 C721 1.391 . S
C722 H778 0.947 . S
C722 C779 1.392 . S
C723 C724 1.391 . S
C723 C727 1.397 . S
C723 C779 1.419 . S
C724 C720 1.391 . S
C724 C723 1.391 . S
C724 C725 1.399 . S
C725 C724 1.399 . S
C725 C728 1.396 . S
C725 C737 1.453 . S
C725 C738 1.684 . S
H726 C750 0.948 . S
C727 C723 1.397 . S
C727 C728 1.394 . S
C727 C746 1.723 . S
C728 C725 1.396 . S
C728 C727 1.394 . S
C728 C758 1.723 . S
H729 C752 0.947 . S
H730 C753 0.948 . S
H731 C759 0.982 . S
H732 C760 0.979 . S
H733 C760 0.980 . S
H734 C760 0.983 . S
H735 C759 0.979 . S
H736 C759 0.977 . S
C737 C725 1.453 . S
C737 H766 0.982 . S
C737 H767 0.979 . S
C737 H768 0.977 . S
C738 C725 1.684 . S
C738 H763 0.979 . S
C738 H764 0.980 . S
C738 H765 0.983 . S
C739 C740 1.391 . S
C739 C744 1.391 . S
C739 H769 0.948 . S
C740 C739 1.391 . S
C740 C741 1.391 . S
C741 C740 1.391 . S
C741 C742 1.392 . S
C741 H770 0.947 . S
C742 C741 1.392 . S
C742 C743 1.419 . S
C742 H771 0.948 . S
C743 C742 1.419 . S
C743 C744 1.391 . S
C743 C747 1.397 . S
C744 C739 1.391 . S
C744 C743 1.391 . S
C744 C745 1.399 . S
C745 C744 1.399 . S
C745 C746 1.396 . S
C745 C748 1.453 . S
C745 C749 1.684 . S
C746 C727 1.723 . S
C746 C745 1.396 . S
C746 C747 1.394 . S
C747 C743 1.397 . S
C747 C746 1.394 . S
C747 C757 1.723 . S
C748 C745 1.453 . S
C748 H772 0.982 . S
C748 H773 0.979 . S
C748 H774 0.977 . S
C749 C745 1.684 . S
C749 H775 0.979 . S
C749 H776 0.980 . S
C749 H777 0.983 . S
C750 H726 0.948 . S
C750 C751 1.391 . S
C750 C755 1.391 . S
C751 C750 1.391 . S
C751 C752 1.391 . S
C752 H729 0.947 . S
C752 C751 1.391 . S
C752 C753 1.392 . S
C753 H730 0.948 . S
C753 C752 1.392 . S
C753 C754 1.419 . S
C754 C753 1.419 . S
C754 C755 1.391 . S
C754 C758 1.397 . S
C755 C750 1.391 . S
C755 C754 1.391 . S
C755 C756 1.399 . S
C756 C755 1.399 . S
C756 C757 1.396 . S
C756 C759 1.453 . S
C756 C760 1.684 . S
C757 C747 1.723 . S
C757 C756 1.396 . S
C757 C758 1.394 . S
C758 C728 1.723 . S
C758 C754 1.397 . S
C758 C757 1.394 . S
C759 H731 0.982 . S
C759 H735 0.979 . S
C759 H736 0.977 . S
C759 C756 1.453 . S
C760 H732 0.979 . S
C760 H733 0.980 . S
C760 H734 0.983 . S
C760 C756 1.684 . S
H761 C779 0.948 . S
H762 C720 0.948 . S
H763 C738 0.979 . S
H764 C738 0.980 . S
H765 C738 0.983 . S
H766 C737 0.982 . S
H767 C737 0.979 . S
H768 C737 0.977 . S
H769 C739 0.948 . S
H770 C741 0.947 . S
H771 C742 0.948 . S
H772 C748 0.982 . S
H773 C748 0.979 . S
H774 C748 0.977 . S
H775 C749 0.979 . S
H776 C749 0.980 . S
H777 C749 0.983 . S
H778 C722 0.947 . S
C779 C722 1.392 . S
C779 C723 1.419 . S
C779 H761 0.948 . S
C780 C781 1.391 . S
C780 C784 1.391 . S
C780 H822 0.948 . S
C781 C780 1.391 . S
C781 C782 1.391 . S
C782 C781 1.391 . S
C782 H838 0.947 . S
C782 C839 1.392 . S
C783 C784 1.391 . S
C783 C787 1.397 . S
C783 C839 1.419 . S
C784 C780 1.391 . S
C784 C783 1.391 . S
C784 C785 1.399 . S
C785 C784 1.399 . S
C785 C788 1.396 . S
C785 C797 1.453 . S
C785 C798 1.684 . S
H786 C810 0.948 . S
C787 C783 1.397 . S
C787 C788 1.394 . S
C787 C806 1.723 . S
C788 C785 1.396 . S
C788 C787 1.394 . S
C788 C818 1.723 . S
H789 C812 0.947 . S
H790 C813 0.948 . S
H791 C819 0.982 . S
H792 C820 0.979 . S
H793 C820 0.980 . S
H794 C820 0.983 . S
H795 C819 0.979 . S
H796 C819 0.977 . S
C797 C785 1.453 . S
C797 H826 0.982 . S
C797 H827 0.979 . S
C797 H828 0.977 . S
C798 C785 1.684 . S
C798 H823 0.979 . S
C798 H824 0.980 . S
C798 H825 0.983 . S
C799 C800 1.391 . S
C799 C804 1.391 . S
C799 H829 0.948 . S
C800 C799 1.391 . S
C800 C801 1.391 . S
C801 C800 1.391 . S
C801 C802 1.392 . S
C801 H830 0.947 . S
C802 C801 1.392 . S
C802 C803 1.419 . S
C802 H831 0.948 . S
C803 C802 1.419 . S
C803 C804 1.391 . S
C803 C807 1.397 . S
C804 C799 1.391 . S
C804 C803 1.391 . S
C804 C805 1.399 . S
C805 C804 1.399 . S
C805 C806 1.396 . S
C805 C808 1.453 . S
C805 C809 1.684 . S
C806 C787 1.723 . S
C806 C805 1.396 . S
C806 C807 1.394 . S
C807 C803 1.397 . S
C807 C806 1.394 . S
C807 C817 1.723 . S
C808 C805 1.453 . S
C808 H832 0.982 . S
C808 H833 0.979 . S
C808 H834 0.977 . S
C809 C805 1.684 . S
C809 H835 0.979 . S
C809 H836 0.980 . S
C809 H837 0.983 . S
C810 H786 0.948 . S
C810 C811 1.391 . S
C810 C815 1.391 . S
C811 C810 1.391 . S
C811 C812 1.391 . S
C812 H789 0.947 . S
C812 C811 1.391 . S
C812 C813 1.392 . S
C813 H790 0.948 . S
C813 C812 1.392 . S
C813 C814 1.419 . S
C814 C813 1.419 . S
C814 C815 1.391 . S
C814 C818 1.397 . S
C815 C810 1.391 . S
C815 C814 1.391 . S
C815 C816 1.399 . S
C816 C815 1.399 . S
C816 C817 1.396 . S
C816 C819 1.453 . S
C816 C820 1.684 . S
C817 C807 1.723 . S
C817 C816 1.396 . S
C817 C818 1.394 . S
C818 C788 1.723 . S
C818 C814 1.397 . S
C818 C817 1.394 . S
C819 H791 0.982 . S
C819 H795 0.979 . S
C819 H796 0.977 . S
C819 C816 1.453 . S
C820 H792 0.979 . S
C820 H793 0.980 . S
C820 H794 0.983 . S
C820 C816 1.684 . S
H821 C839 0.948 . S
H822 C780 0.948 . S
H823 C798 0.979 . S
H824 C798 0.980 . S
H825 C798 0.983 . S
H826 C797 0.982 . S
H827 C797 0.979 . S
H828 C797 0.977 . S
H829 C799 0.948 . S
H830 C801 0.947 . S
H831 C802 0.948 . S
H832 C808 0.982 . S
H833 C808 0.979 . S
H834 C808 0.977 . S
H835 C809 0.979 . S
H836 C809 0.980 . S
H837 C809 0.983 . S
H838 C782 0.947 . S
C839 C782 1.392 . S
C839 C783 1.419 . S
C839 H821 0.948 . S
C840 C841 1.391 . S
C840 C844 1.391 . S
C840 H882 0.948 . S
C841 C840 1.391 . S
C841 C842 1.391 . S
C842 C841 1.391 . S
C842 H898 0.947 . S
C842 C899 1.392 . S
C843 C844 1.391 . S
C843 C847 1.397 . S
C843 C899 1.419 . S
C844 C840 1.391 . S
C844 C843 1.391 . S
C844 C845 1.399 . S
C845 C844 1.399 . S
C845 C848 1.396 . S
C845 C857 1.453 . S
C845 C858 1.684 . S
H846 C870 0.948 . S
C847 C843 1.397 . S
C847 C848 1.394 . S
C847 C866 1.723 . S
C848 C845 1.396 . S
C848 C847 1.394 . S
C848 C878 1.723 . S
H849 C872 0.947 . S
H850 C873 0.948 . S
H851 C879 0.982 . S
H852 C880 0.979 . S
H853 C880 0.980 . S
H854 C880 0.983 . S
H855 C879 0.979 . S
H856 C879 0.977 . S
C857 C845 1.453 . S
C857 H886 0.982 . S
C857 H887 0.979 . S
C857 H888 0.977 . S
C858 C845 1.684 . S
C858 H883 0.979 . S
C858 H884 0.980 . S
C858 H885 0.983 . S
C859 C860 1.391 . S
C859 C864 1.391 . S
C859 H889 0.948 . S
C860 C859 1.391 . S
C860 C861 1.391 . S
C861 C860 1.391 . S
C861 C862 1.392 . S
C861 H890 0.947 . S
C862 C861 1.392 . S
C862 C863 1.419 . S
C862 H891 0.948 . S
C863 C862 1.419 . S
C863 C864 1.391 . S
C863 C867 1.397 . S
C864 C859 1.391 . S
C864 C863 1.391 . S
C864 C865 1.399 . S
C865 C864 1.399 . S
C865 C866 1.396 . S
C865 C868 1.453 . S
C865 C869 1.684 . S
C866 C847 1.723 . S
C866 C865 1.396 . S
C866 C867 1.394 . S
C867 C863 1.397 . S
C867 C866 1.394 . S
C867 C877 1.723 . S
C868 C865 1.453 . S
C868 H892 0.982 . S
C868 H893 0.979 . S
C868 H894 0.977 . S
C869 C865 1.684 . S
C869 H895 0.979 . S
C869 H896 0.980 . S
C869 H897 0.983 . S
C870 H846 0.948 . S
C870 C871 1.391 . S
C870 C875 1.391 . S
C871 C870 1.391 . S
C871 C872 1.391 . S
C872 H849 0.947 . S
C872 C871 1.391 . S
C872 C873 1.392 . S
C873 H850 0.948 . S
C873 C872 1.392 . S
C873 C874 1.419 . S
C874 C873 1.419 . S
C874 C875 1.391 . S
C874 C878 1.397 . S
C875 C870 1.391 . S
C875 C874 1.391 . S
C875 C876 1.399 . S
C876 C875 1.399 . S
C876 C877 1.396 . S
C876 C879 1.453 . S
C876 C880 1.684 . S
C877 C867 1.723 . S
C877 C876 1.396 . S
C877 C878 1.394 . S
C878 C848 1.723 . S
C878 C874 1.397 . S
C878 C877 1.394 . S
C879 H851 0.982 . S
C879 H855 0.979 . S
C879 H856 0.977 . S
C879 C876 1.453 . S
C880 H852 0.979 . S
C880 H853 0.980 . S
C880 H854 0.983 . S
C880 C876 1.684 . S
H881 C899 0.948 . S
H882 C840 0.948 . S
H883 C858 0.979 . S
H884 C858 0.980 . S
H885 C858 0.983 . S
H886 C857 0.982 . S
H887 C857 0.979 . S
H888 C857 0.977 . S
H889 C859 0.948 . S
H890 C861 0.947 . S
H891 C862 0.948 . S
H892 C868 0.982 . S
H893 C868 0.979 . S
H894 C868 0.977 . S
H895 C869 0.979 . S
H896 C869 0.980 . S
H897 C869 0.983 . S
H898 C842 0.947 . S
C899 C842 1.392 . S
C899 C843 1.419 . S
C899 H881 0.948 . S
C900 C901 1.391 . S
C900 C904 1.391 . S
C900 H942 0.948 . S
C901 C900 1.391 . S
C901 C902 1.391 . S
C902 C901 1.391 . S
C902 H958 0.947 . S
C902 C959 1.392 . S
C903 C904 1.391 . S
C903 C907 1.397 . S
C903 C959 1.419 . S
C904 C900 1.391 . S
C904 C903 1.391 . S
C904 C905 1.399 . S
C905 C904 1.399 . S
C905 C908 1.396 . S
C905 C917 1.453 . S
C905 C918 1.684 . S
H906 C930 0.948 . S
C907 C903 1.397 . S
C907 C908 1.394 . S
C907 C926 1.723 . S
C908 C905 1.396 . S
C908 C907 1.394 . S
C908 C938 1.723 . S
H909 C932 0.947 . S
H910 C933 0.948 . S
H911 C939 0.982 . S
H912 C940 0.979 . S
H913 C940 0.980 . S
H914 C940 0.983 . S
H915 C939 0.979 . S
H916 C939 0.977 . S
C917 C905 1.453 . S
C917 H946 0.982 . S
C917 H947 0.979 . S
C917 H948 0.977 . S
C918 C905 1.684 . S
C918 H943 0.979 . S
C918 H944 0.980 . S
C918 H945 0.983 . S
C919 C920 1.391 . S
C919 C924 1.391 . S
C919 H949 0.948 . S
C920 C919 1.391 . S
C920 C921 1.391 . S
C921 C920 1.391 . S
C921 C922 1.392 . S
C921 H950 0.947 . S
C922 C921 1.392 . S
C922 C923 1.419 . S
C922 H951 0.948 . S
C923 C922 1.419 . S
C923 C924 1.391 . S
C923 C927 1.397 . S
C924 C919 1.391 . S
C924 C923 1.391 . S
C924 C925 1.399 . S
C925 C924 1.399 . S
C925 C926 1.396 . S
C925 C928 1.453 . S
C925 C929 1.684 . S
C926 C907 1.723 . S
C926 C925 1.396 . S
C926 C927 1.394 . S
C927 C923 1.397 . S
C927 C926 1.394 . S
C927 C937 1.723 . S
C928 C925 1.453 . S
C928 H952 0.982 . S
C928 H953 0.979 . S
C928 H954 0.977 . S
C929 C925 1.684 . S
C929 H955 0.979 . S
C929 H956 0.980 . S
C929 H957 0.983 . S
C930 H906 0.948 . S
C930 C931 1.391 . S
C930 C935 1.391 . S
C931 C930 1.391 . S
C931 C932 1.391 . S
C932 H909 0.947 . S
C932 C931 1.391 . S
C932 C933 1.392 . S
C933 H910 0.948 . S
C933 C932 1.392 . S
C933 C934 1.419 . S
C934 C933 1.419 . S
C934 C935 1.391 . S
C934 C938 1.397 . S
C935 C930 1.391 . S
C935 C934 1.391 . S
C935 C936 1.399 . S
C936 C935 1.399 . S
C936 C937 1.396 . S
C936 C939 1.453 . S
C936 C940 1.684 . S
C937 C927 1.723 . S
C937 C936 1.396 . S
C937 C938 1.394 . S
C938 C908 1.723 . S
C938 C934 1.397 . S
C938 C937 1.394 . S
C939 H911 0.982 . S
C939 H915 0.979 . S
C939 H916 0.977 . S
C939 C936 1.453 . S
C940 H912 0.979 . S
C940 H913 0.980 . S
C940 H914 0.983 . S
C940 C936 1.684 . S
H941 C959 0.948 . S
H942 C900 0.948 . S
H943 C918 0.979 . S
H944 C918 0.980 . S
H945 C918 0.983 . S
H946 C917 0.982 . S
H947 C917 0.979 . S
H948 C917 0.977 . S
H949 C919 0.948 . S
H950 C921 0.947 . S
H951 C922 0.948 . S
H952 C928 0.982 . S
H953 C928 0.979 . S
H954 C928 0.977 . S
H955 C929 0.979 . S
H956 C929 0.980 . S
H957 C929 0.983 . S
H958 C902 0.947 . S
C959 C902 1.392 . S
C959 C903 1.419 . S
C959 H941 0.948 . S
C960 C961 1.391 . S
C960 C964 1.391 . S
C960 H1002 0.948 . S
C961 C960 1.391 . S
C961 C962 1.391 . S
C962 C961 1.391 . S
C962 H1018 0.947 . S
C962 C1019 1.392 . S
C963 C964 1.391 . S
C963 C967 1.397 . S
C963 C1019 1.419 . S
C964 C960 1.391 . S
C964 C963 1.391 . S
C964 C965 1.399 . S
C965 C964 1.399 . S
C965 C968 1.396 . S
C965 C977 1.453 . S
C965 C978 1.684 . S
H966 C990 0.948 . S
C967 C963 1.397 . S
C967 C968 1.394 . S
C967 C986 1.723 . S
C968 C965 1.396 . S
C968 C967 1.394 . S
C968 C998 1.723 . S
H969 C992 0.947 . S
H970 C993 0.948 . S
H971 C999 0.982 . S
H972 C1000 0.979 1_655 S
H973 C1000 0.980 . S
H974 C1000 0.983 . S
H975 C999 0.979 . S
H976 C999 0.977 . S
C977 C965 1.453 . S
C977 H1006 0.982 . S
C977 H1007 0.979 . S
C977 H1008 0.977 . S
C978 C965 1.684 . S
C978 H1003 0.979 . S
C978 H1004 0.980 . S
C978 H1005 0.983 . S
C979 C980 1.391 . S
C979 C984 1.391 . S
C979 H1009 0.948 . S
C980 C979 1.391 . S
C980 C981 1.391 . S
C981 C980 1.391 . S
C981 C982 1.392 . S
C981 H1010 0.947 . S
C982 C981 1.392 . S
C982 C983 1.419 . S
C982 H1011 0.948 . S
C983 C982 1.419 . S
C983 C984 1.391 . S
C983 C987 1.397 . S
C984 C979 1.391 . S
C984 C983 1.391 . S
C984 C985 1.399 . S
C985 C984 1.399 . S
C985 C986 1.396 . S
C985 C988 1.453 . S
C985 C989 1.684 . S
C986 C967 1.723 . S
C986 C985 1.396 . S
C986 C987 1.394 . S
C987 C983 1.397 . S
C987 C986 1.394 . S
C987 C997 1.723 . S
C988 C985 1.453 . S
C988 H1012 0.982 . S
C988 H1013 0.979 . S
C988 H1014 0.977 . S
C989 C985 1.684 . S
C989 H1015 0.979 1_455 S
C989 H1016 0.980 . S
C989 H1017 0.983 . S
C990 H966 0.948 . S
C990 C991 1.391 . S
C990 C995 1.391 . S
C991 C990 1.391 . S
C991 C992 1.391 . S
C992 H969 0.947 . S
C992 C991 1.391 . S
C992 C993 1.392 . S
C993 H970 0.948 . S
C993 C992 1.392 . S
C993 C994 1.419 . S
C994 C993 1.419 . S
C994 C995 1.391 . S
C994 C998 1.397 . S
C995 C990 1.391 . S
C995 C994 1.391 . S
C995 C996 1.399 . S
C996 C995 1.399 . S
C996 C997 1.396 . S
C996 C999 1.453 . S
C996 C1000 1.684 . S
C997 C987 1.723 . S
C997 C996 1.396 . S
C997 C998 1.394 . S
C998 C968 1.723 . S
C998 C994 1.397 . S
C998 C997 1.394 . S
C999 H971 0.982 . S
C999 H975 0.979 . S
C999 H976 0.977 . S
C999 C996 1.453 . S
C1000 H972 0.979 1_455 S
C1000 H973 0.980 . S
C1000 H974 0.983 . S
C1000 C996 1.684 . S
H1001 C1019 0.948 . S
H1002 C960 0.948 . S
H1003 C978 0.979 . S
H1004 C978 0.980 . S
H1005 C978 0.983 . S
H1006 C977 0.982 . S
H1007 C977 0.979 . S
H1008 C977 0.977 . S
H1009 C979 0.948 . S
H1010 C981 0.947 . S
H1011 C982 0.948 . S
H1012 C988 0.982 . S
H1013 C988 0.979 . S
H1014 C988 0.977 . S
H1015 C989 0.979 1_655 S
H1016 C989 0.980 . S
H1017 C989 0.983 . S
H1018 C962 0.947 . S
C1019 C962 1.392 . S
C1019 C963 1.419 . S
C1019 H1001 0.948 . S
C1020 C1021 1.391 . S
C1020 C1024 1.391 . S
C1020 H1062 0.948 . S
C1021 C1020 1.391 . S
C1021 C1022 1.391 . S
C1022 C1021 1.391 . S
C1022 H1078 0.947 . S
C1022 C1079 1.392 . S
C1023 C1024 1.391 . S
C1023 C1027 1.397 . S
C1023 C1079 1.419 . S
C1024 C1020 1.391 . S
C1024 C1023 1.391 . S
C1024 C1025 1.399 . S
C1025 C1024 1.399 . S
C1025 C1028 1.396 . S
C1025 C1037 1.453 . S
C1025 C1038 1.684 . S
H1026 C1050 0.948 . S
C1027 C1023 1.397 . S
C1027 C1028 1.394 . S
C1027 C1046 1.723 . S
C1028 C1025 1.396 . S
C1028 C1027 1.394 . S
C1028 C1058 1.723 . S
H1029 C1052 0.947 . S
H1030 C1053 0.948 . S
H1031 C1059 0.982 . S
H1032 C1060 0.979 . S
H1033 C1060 0.980 . S
H1034 C1060 0.983 . S
H1035 C1059 0.979 . S
H1036 C1059 0.977 . S
C1037 C1025 1.453 . S
C1037 H1066 0.982 . S
C1037 H1067 0.979 . S
C1037 H1068 0.977 . S
C1038 C1025 1.684 . S
C1038 H1063 0.979 . S
C1038 H1064 0.980 . S
C1038 H1065 0.983 . S
C1039 C1040 1.391 . S
C1039 C1044 1.391 . S
C1039 H1069 0.948 . S
C1040 C1039 1.391 . S
C1040 C1041 1.391 . S
C1041 C1040 1.391 . S
C1041 C1042 1.392 . S
C1041 H1070 0.947 . S
C1042 C1041 1.392 . S
C1042 C1043 1.419 . S
C1042 H1071 0.948 . S
C1043 C1042 1.419 . S
C1043 C1044 1.391 . S
C1043 C1047 1.397 . S
C1044 C1039 1.391 . S
C1044 C1043 1.391 . S
C1044 C1045 1.399 . S
C1045 C1044 1.399 . S
C1045 C1046 1.396 . S
C1045 C1048 1.453 . S
C1045 C1049 1.684 . S
C1046 C1027 1.723 . S
C1046 C1045 1.396 . S
C1046 C1047 1.394 . S
C1047 C1043 1.397 . S
C1047 C1046 1.394 . S
C1047 C1057 1.723 . S
C1048 C1045 1.453 . S
C1048 H1072 0.982 . S
C1048 H1073 0.979 . S
C1048 H1074 0.977 . S
C1049 C1045 1.684 . S
C1049 H1075 0.979 . S
C1049 H1076 0.980 . S
C1049 H1077 0.983 . S
C1050 H1026 0.948 . S
C1050 C1051 1.391 . S
C1050 C1055 1.391 . S
C1051 C1050 1.391 . S
C1051 C1052 1.391 . S
C1052 H1029 0.947 . S
C1052 C1051 1.391 . S
C1052 C1053 1.392 . S
C1053 H1030 0.948 . S
C1053 C1052 1.392 . S
C1053 C1054 1.419 . S
C1054 C1053 1.419 . S
C1054 C1055 1.391 . S
C1054 C1058 1.397 . S
C1055 C1050 1.391 . S
C1055 C1054 1.391 . S
C1055 C1056 1.399 . S
C1056 C1055 1.399 . S
C1056 C1057 1.396 . S
C1056 C1059 1.453 . S
C1056 C1060 1.684 . S
C1057 C1047 1.723 . S
C1057 C1056 1.396 . S
C1057 C1058 1.394 . S
C1058 C1028 1.723 . S
C1058 C1054 1.397 . S
C1058 C1057 1.394 . S
C1059 H1031 0.982 . S
C1059 H1035 0.979 . S
C1059 H1036 0.977 . S
C1059 C1056 1.453 . S
C1060 H1032 0.979 . S
C1060 H1033 0.980 . S
C1060 H1034 0.983 . S
C1060 C1056 1.684 . S
H1061 C1079 0.948 . S
H1062 C1020 0.948 . S
H1063 C1038 0.979 . S
H1064 C1038 0.980 . S
H1065 C1038 0.983 . S
H1066 C1037 0.982 . S
H1067 C1037 0.979 . S
H1068 C1037 0.977 . S
H1069 C1039 0.948 . S
H1070 C1041 0.947 . S
H1071 C1042 0.948 . S
H1072 C1048 0.982 . S
H1073 C1048 0.979 . S
H1074 C1048 0.977 . S
H1075 C1049 0.979 . S
H1076 C1049 0.980 . S
H1077 C1049 0.983 . S
H1078 C1022 0.947 . S
C1079 C1022 1.392 . S
C1079 C1023 1.419 . S
C1079 H1061 0.948 . S
Tb1080 C1090 2.825 . S
Tb1080 O1091 2.347 1_565 S
Tb1080 O1094 2.366 1_565 S
Tb1080 O1099 2.418 . S
Tb1080 O1100 2.384 . S
Tb1080 O1103 2.479 . S
Tb1080 O1104 2.459 1_565 S
Eu1081 O1092 2.418 . S
Eu1081 O1093 2.384 . S
Eu1081 O1096 2.479 . S
Eu1081 O1097 2.465 1_545 S
Eu1081 O1098 2.347 1_545 S
Eu1081 O1101 2.366 1_545 S
Eu1081 C1111 2.825 . S
C1082 O1098 1.259 . S
C1082 O1099 1.265 1_554 S
C1083 O1100 1.255 1_554 S
C1083 O1101 1.265 . S
C1084 C1086 1.380 . S
C1084 C1087 1.374 1_565 S
C1084 C1090 1.507 . S
C1085 C1086 1.384 . S
C1085 C1089 1.387 1_565 S
C1085 H1112 0.930 . S
C1086 C1084 1.380 . S
C1086 C1085 1.384 . S
C1086 H1113 0.931 . S
C1087 C1084 1.374 1_545 S
C1087 C1088 1.390 . S
C1087 H1114 0.930 . S
C1088 C1087 1.390 . S
C1088 C1089 1.391 . S
C1088 H1115 0.930 . S
C1089 C1085 1.387 1_545 S
C1089 C1088 1.391 . S
C1090 Tb1080 2.825 . S
C1090 C1084 1.507 . S
C1090 O1103 1.238 . S
C1090 O1104 1.228 1_565 S
O1091 Tb1080 2.347 1_545 S
O1091 C1095 1.259 . S
O1092 Eu1081 2.418 . S
O1092 C1095 1.265 1_554 S
O1093 Eu1081 2.384 . S
O1093 C1102 1.255 1_554 S
O1094 Tb1080 2.366 1_545 S
O1094 C1102 1.265 . S
C1095 O1091 1.259 . S
C1095 O1092 1.265 1_556 S
O1096 Eu1081 2.479 . S
O1096 C1111 1.238 . S
O1097 Eu1081 2.465 1_565 S
O1097 C1111 1.238 1_565 S
O1098 Eu1081 2.347 1_565 S
O1098 C1082 1.259 . S
O1099 Tb1080 2.418 . S
O1099 C1082 1.265 1_556 S
O1100 Tb1080 2.384 . S
O1100 C1083 1.255 1_556 S
O1101 Eu1081 2.366 1_565 S
O1101 C1083 1.265 . S
C1102 O1093 1.255 1_556 S
C1102 O1094 1.265 . S
O1103 Tb1080 2.479 . S
O1103 C1090 1.238 . S
O1104 Tb1080 2.459 1_545 S
O1104 C1090 1.228 1_545 S
C1105 C1108 1.380 . S
C1105 C1109 1.374 1_545 S
C1105 C1111 1.507 . S
C1106 C1107 1.387 1_565 S
C1106 C1110 1.391 . S
C1107 C1106 1.387 1_545 S
C1107 C1108 1.384 . S
C1107 H1116 0.930 . S
C1108 C1105 1.380 . S
C1108 C1107 1.384 . S
C1108 H1117 0.931 . S
C1109 C1105 1.374 1_565 S
C1109 C1110 1.390 . S
C1109 H1118 0.930 . S
C1110 C1106 1.391 . S
C1110 C1109 1.390 . S
C1110 H1119 0.930 . S
C1111 Eu1081 2.825 . S
C1111 O1096 1.238 . S
C1111 O1097 1.238 1_545 S
C1111 C1105 1.507 . S
H1112 C1085 0.930 . S
H1113 C1086 0.931 . S
H1114 C1087 0.930 . S
H1115 C1088 0.930 . S
H1116 C1107 0.930 . S
H1117 C1108 0.931 . S
H1118 C1109 0.930 . S
H1119 C1110 0.930 . S
Tb1120 C1130 2.825 . S
Tb1120 O1131 2.347 1_455 S
Tb1120 O1134 2.366 1_455 S
Tb1120 O1139 2.418 . S
Tb1120 O1140 2.384 1_556 S
Tb1120 O1143 2.479 . S
Tb1120 O1144 2.471 1_455 S
Eu1121 O1132 2.418 . S
Eu1121 O1133 2.384 1_554 S
Eu1121 O1136 2.479 . S
Eu1121 O1137 2.471 1_655 S
Eu1121 O1138 2.347 1_655 S
Eu1121 O1141 2.366 1_655 S
Eu1121 C1151 2.825 . S
C1122 O1138 1.259 . S
C1122 O1139 1.265 1_554 S
C1123 O1140 1.255 . S
C1123 O1141 1.265 . S
C1124 C1126 1.380 . S
C1124 C1127 1.374 1_455 S
C1124 C1130 1.507 . S
C1125 C1126 1.384 . S
C1125 C1129 1.387 1_455 S
C1125 H1152 0.930 . S
C1126 C1124 1.380 . S
C1126 C1125 1.384 . S
C1126 H1153 0.931 . S
C1127 C1124 1.374 1_655 S
C1127 C1128 1.390 . S
C1127 H1154 0.930 . S
C1128 C1127 1.390 . S
C1128 C1129 1.391 . S
C1128 H1155 0.930 . S
C1129 C1125 1.387 1_655 S
C1129 C1128 1.391 . S
C1130 Tb1120 2.825 . S
C1130 C1124 1.507 . S
C1130 O1143 1.238 . S
C1130 O1144 1.247 1_455 S
O1131 Tb1120 2.347 1_655 S
O1131 C1135 1.259 . S
O1132 Eu1121 2.418 . S
O1132 C1135 1.265 1_554 S
O1133 Eu1121 2.384 1_556 S
O1133 C1142 1.255 . S
O1134 Tb1120 2.366 1_655 S
O1134 C1142 1.265 . S
C1135 O1131 1.259 . S
C1135 O1132 1.265 1_556 S
O1136 Eu1121 2.479 . S
O1136 C1151 1.238 . S
O1137 Eu1121 2.471 1_455 S
O1137 C1151 1.247 1_455 S
O1138 Eu1121 2.347 1_455 S
O1138 C1122 1.259 . S
O1139 Tb1120 2.418 . S
O1139 C1122 1.265 1_556 S
O1140 Tb1120 2.384 1_554 S
O1140 C1123 1.255 . S
O1141 Eu1121 2.366 1_455 S
O1141 C1123 1.265 . S
C1142 O1133 1.255 . S
C1142 O1134 1.265 . S
O1143 Tb1120 2.479 . S
O1143 C1130 1.238 . S
O1144 Tb1120 2.471 1_655 S
O1144 C1130 1.247 1_655 S
C1145 C1148 1.380 . S
C1145 C1149 1.374 1_655 S
C1145 C1151 1.507 . S
C1146 C1147 1.387 1_455 S
C1146 C1150 1.391 . S
C1147 C1146 1.387 1_655 S
C1147 C1148 1.384 . S
C1147 H1156 0.930 . S
C1148 C1145 1.380 . S
C1148 C1147 1.384 . S
C1148 H1157 0.931 . S
C1149 C1145 1.374 1_455 S
C1149 C1150 1.390 . S
C1149 H1158 0.930 . S
C1150 C1146 1.391 . S
C1150 C1149 1.390 . S
C1150 H1159 0.930 . S
C1151 Eu1121 2.825 . S
C1151 O1136 1.238 . S
C1151 O1137 1.247 1_655 S
C1151 C1145 1.507 . S
H1152 C1125 0.930 . S
H1153 C1126 0.931 . S
H1154 C1127 0.930 . S
H1155 C1128 0.930 . S
H1156 C1147 0.930 . S
H1157 C1148 0.931 . S
H1158 C1149 0.930 . S
H1159 C1150 0.930 . S
Tb1160 C1170 2.825 . S
Tb1160 O1171 2.347 . S
Tb1160 O1174 2.366 . S
Tb1160 O1179 2.418 . S
Tb1160 O1180 2.410 . S
Tb1160 O1183 2.479 . S
Tb1160 O1184 2.471 . S
Eu1161 O1172 2.418 . S
Eu1161 O1173 2.384 1_556 S
Eu1161 O1176 2.479 . S
Eu1161 O1177 2.471 . S
Eu1161 O1178 2.347 . S
Eu1161 O1181 2.366 . S
Eu1161 C1191 2.825 . S
C1162 O1178 1.259 . S
C1162 O1179 1.265 1_556 S
C1163 O1180 1.225 1_556 S
C1163 O1181 1.265 . S
C1164 C1166 1.380 . S
C1164 C1167 1.374 . S
C1164 C1170 1.507 . S
C1165 C1166 1.384 . S
C1165 C1169 1.387 . S
C1165 H1192 0.930 . S
C1166 C1164 1.380 . S
C1166 C1165 1.384 . S
C1166 H1193 0.931 . S
C1167 C1164 1.374 . S
C1167 C1168 1.390 . S
C1167 H1194 0.930 . S
C1168 C1167 1.390 . S
C1168 C1169 1.391 . S
C1168 H1195 0.930 . S
C1169 C1165 1.387 . S
C1169 C1168 1.391 . S
C1170 Tb1160 2.825 . S
C1170 C1164 1.507 . S
C1170 O1183 1.238 . S
C1170 O1184 1.247 . S
O1171 Tb1160 2.347 . S
O1171 C1175 1.259 . S
O1172 Eu1161 2.418 . S
O1172 C1175 1.265 1_556 S
O1173 Eu1161 2.384 1_554 S
O1173 C1182 1.255 . S
O1174 Tb1160 2.366 . S
O1174 C1182 1.265 . S
C1175 O1171 1.259 . S
C1175 O1172 1.265 1_554 S
O1176 Eu1161 2.479 . S
O1176 C1191 1.238 . S
O1177 Eu1161 2.471 . S
O1177 C1191 1.247 . S
O1178 Eu1161 2.347 . S
O1178 C1162 1.259 . S
O1179 Tb1160 2.418 . S
O1179 C1162 1.265 1_554 S
O1180 Tb1160 2.410 . S
O1180 C1163 1.225 1_554 S
O1181 Eu1161 2.366 . S
O1181 C1163 1.265 . S
C1182 O1173 1.255 . S
C1182 O1174 1.265 . S
O1183 Tb1160 2.479 . S
O1183 C1170 1.238 . S
O1184 Tb1160 2.471 . S
O1184 C1170 1.247 . S
C1185 C1188 1.380 . S
C1185 C1189 1.374 . S
C1185 C1191 1.507 . S
C1186 C1187 1.387 . S
C1186 C1190 1.391 . S
C1187 C1186 1.387 . S
C1187 C1188 1.384 . S
C1187 H1196 0.930 . S
C1188 C1185 1.380 . S
C1188 C1187 1.384 . S
C1188 H1197 0.931 . S
C1189 C1185 1.374 . S
C1189 C1190 1.390 . S
C1189 H1198 0.930 . S
C1190 C1186 1.391 . S
C1190 C1189 1.390 . S
C1190 H1199 0.930 . S
C1191 Eu1161 2.825 . S
C1191 O1176 1.238 . S
C1191 O1177 1.247 . S
C1191 C1185 1.507 . S
H1192 C1165 0.930 . S
H1193 C1166 0.931 . S
H1194 C1167 0.930 . S
H1195 C1168 0.930 . S
H1196 C1187 0.930 . S
H1197 C1188 0.931 . S
H1198 C1189 0.930 . S
H1199 C1190 0.930 . S
Tb1200 C1210 2.825 . S
Tb1200 O1211 2.347 . S
Tb1200 O1214 2.366 . S
Tb1200 O1219 2.418 . S
Tb1200 O1220 2.384 . S
Tb1200 O1223 2.479 . S
Tb1200 O1224 2.471 . S
Eu1201 O1212 2.418 . S
Eu1201 O1213 2.384 . S
Eu1201 O1216 2.479 . S
Eu1201 O1217 2.471 . S
Eu1201 O1218 2.347 . S
Eu1201 O1221 2.366 . S
Eu1201 C1231 2.825 . S
C1202 O1218 1.259 . S
C1202 O1219 1.265 . S
C1203 O1220 1.255 . S
C1203 O1221 1.265 . S
C1204 C1206 1.380 . S
C1204 C1207 1.374 . S
C1204 C1210 1.507 . S
C1205 C1206 1.384 . S
C1205 C1209 1.387 . S
C1205 H1232 0.930 . S
C1206 C1204 1.380 . S
C1206 C1205 1.384 . S
C1206 H1233 0.931 . S
C1207 C1204 1.374 . S
C1207 C1208 1.390 . S
C1207 H1234 0.930 . S
C1208 C1207 1.390 . S
C1208 C1209 1.391 . S
C1208 H1235 0.930 . S
C1209 C1205 1.387 . S
C1209 C1208 1.391 . S
C1210 Tb1200 2.825 . S
C1210 C1204 1.507 . S
C1210 O1223 1.238 . S
C1210 O1224 1.247 . S
O1211 Tb1200 2.347 . S
O1211 C1215 1.259 . S
O1212 Eu1201 2.418 . S
O1212 C1215 1.265 . S
O1213 Eu1201 2.384 . S
O1213 C1222 1.255 . S
O1214 Tb1200 2.366 . S
O1214 C1222 1.265 . S
C1215 O1211 1.259 . S
C1215 O1212 1.265 . S
O1216 Eu1201 2.479 . S
O1216 C1231 1.238 . S
O1217 Eu1201 2.471 . S
O1217 C1231 1.247 . S
O1218 Eu1201 2.347 . S
O1218 C1202 1.259 . S
O1219 Tb1200 2.418 . S
O1219 C1202 1.265 . S
O1220 Tb1200 2.384 . S
O1220 C1203 1.255 . S
O1221 Eu1201 2.366 . S
O1221 C1203 1.265 . S
C1222 O1213 1.255 . S
C1222 O1214 1.265 . S
O1223 Tb1200 2.479 . S
O1223 C1210 1.238 . S
O1224 Tb1200 2.471 . S
O1224 C1210 1.247 . S
C1225 C1228 1.380 . S
C1225 C1229 1.374 . S
C1225 C1231 1.507 . S
C1226 C1227 1.387 . S
C1226 C1230 1.391 . S
C1227 C1226 1.387 . S
C1227 C1228 1.384 . S
C1227 H1236 0.930 . S
C1228 C1225 1.380 . S
C1228 C1227 1.384 . S
C1228 H1237 0.931 . S
C1229 C1225 1.374 . S
C1229 C1230 1.390 . S
C1229 H1238 0.930 . S
C1230 C1226 1.391 . S
C1230 C1229 1.390 . S
C1230 H1239 0.930 . S
C1231 Eu1201 2.825 . S
C1231 O1216 1.238 . S
C1231 O1217 1.247 . S
C1231 C1225 1.507 . S
H1232 C1205 0.930 . S
H1233 C1206 0.931 . S
H1234 C1207 0.930 . S
H1235 C1208 0.930 . S
H1236 C1227 0.930 . S
H1237 C1228 0.931 . S
H1238 C1229 0.930 . S
H1239 C1230 0.930 . S
Tb1240 C1250 2.825 . S
Tb1240 O1251 2.347 . S
Tb1240 O1254 2.366 . S
Tb1240 O1259 2.418 . S
Tb1240 O1260 2.384 . S
Tb1240 O1263 2.479 . S
Tb1240 O1264 2.471 . S
Eu1241 O1252 2.418 . S
Eu1241 O1253 2.384 . S
Eu1241 O1256 2.479 . S
Eu1241 O1257 2.471 . S
Eu1241 O1258 2.347 . S
Eu1241 O1261 2.366 . S
Eu1241 C1271 2.825 . S
C1242 O1258 1.259 . S
C1242 O1259 1.265 . S
C1243 O1260 1.255 . S
C1243 O1261 1.265 . S
C1244 C1246 1.380 . S
C1244 C1247 1.374 . S
C1244 C1250 1.507 . S
C1245 C1246 1.384 . S
C1245 C1249 1.387 . S
C1245 H1272 0.930 . S
C1246 C1244 1.380 . S
C1246 C1245 1.384 . S
C1246 H1273 0.931 . S
C1247 C1244 1.374 . S
C1247 C1248 1.390 . S
C1247 H1274 0.930 . S
C1248 C1247 1.390 . S
C1248 C1249 1.391 . S
C1248 H1275 0.930 . S
C1249 C1245 1.387 . S
C1249 C1248 1.391 . S
C1250 Tb1240 2.825 . S
C1250 C1244 1.507 . S
C1250 O1263 1.238 . S
C1250 O1264 1.247 . S
O1251 Tb1240 2.347 . S
O1251 C1255 1.259 . S
O1252 Eu1241 2.418 . S
O1252 C1255 1.265 . S
O1253 Eu1241 2.384 . S
O1253 C1262 1.255 . S
O1254 Tb1240 2.366 . S
O1254 C1262 1.265 . S
C1255 O1251 1.259 . S
C1255 O1252 1.265 . S
O1256 Eu1241 2.479 . S
O1256 C1271 1.238 . S
O1257 Eu1241 2.471 . S
O1257 C1271 1.247 . S
O1258 Eu1241 2.347 . S
O1258 C1242 1.259 . S
O1259 Tb1240 2.418 . S
O1259 C1242 1.265 . S
O1260 Tb1240 2.384 . S
O1260 C1243 1.255 . S
O1261 Eu1241 2.366 . S
O1261 C1243 1.265 . S
C1262 O1253 1.255 . S
C1262 O1254 1.265 . S
O1263 Tb1240 2.479 . S
O1263 C1250 1.238 . S
O1264 Tb1240 2.471 . S
O1264 C1250 1.247 . S
C1265 C1268 1.380 . S
C1265 C1269 1.374 . S
C1265 C1271 1.507 . S
C1266 C1267 1.387 . S
C1266 C1270 1.391 . S
C1267 C1266 1.387 . S
C1267 C1268 1.384 . S
C1267 H1276 0.930 . S
C1268 C1265 1.380 . S
C1268 C1267 1.384 . S
C1268 H1277 0.931 . S
C1269 C1265 1.374 . S
C1269 C1270 1.390 . S
C1269 H1278 0.930 . S
C1270 C1266 1.391 . S
C1270 C1269 1.390 . S
C1270 H1279 0.930 . S
C1271 Eu1241 2.825 . S
C1271 O1256 1.238 . S
C1271 O1257 1.247 . S
C1271 C1265 1.507 . S
H1272 C1245 0.930 . S
H1273 C1246 0.931 . S
H1274 C1247 0.930 . S
H1275 C1248 0.930 . S
H1276 C1267 0.930 . S
H1277 C1268 0.931 . S
H1278 C1269 0.930 . S
H1279 C1270 0.930 . S
Tb1280 C1290 2.825 . S
Tb1280 O1291 2.347 . S
Tb1280 O1294 2.366 . S
Tb1280 O1299 2.418 . S
Tb1280 O1300 2.384 . S
Tb1280 O1303 2.479 . S
Tb1280 O1304 2.471 . S
Eu1281 O1292 2.418 . S
Eu1281 O1293 2.384 . S
Eu1281 O1296 2.479 . S
Eu1281 O1297 2.471 . S
Eu1281 O1298 2.347 . S
Eu1281 O1301 2.366 . S
Eu1281 C1311 2.825 . S
C1282 O1298 1.259 . S
C1282 O1299 1.265 . S
C1283 O1300 1.255 . S
C1283 O1301 1.265 . S
C1284 C1286 1.380 . S
C1284 C1287 1.374 . S
C1284 C1290 1.507 . S
C1285 C1286 1.384 . S
C1285 C1289 1.387 . S
C1285 H1312 0.930 . S
C1286 C1284 1.380 . S
C1286 C1285 1.384 . S
C1286 H1313 0.931 . S
C1287 C1284 1.374 . S
C1287 C1288 1.390 . S
C1287 H1314 0.930 . S
C1288 C1287 1.390 . S
C1288 C1289 1.391 . S
C1288 H1315 0.930 . S
C1289 C1285 1.387 . S
C1289 C1288 1.391 . S
C1290 Tb1280 2.825 . S
C1290 C1284 1.507 . S
C1290 O1303 1.238 . S
C1290 O1304 1.247 . S
O1291 Tb1280 2.347 . S
O1291 C1295 1.259 . S
O1292 Eu1281 2.418 . S
O1292 C1295 1.265 . S
O1293 Eu1281 2.384 . S
O1293 C1302 1.255 . S
O1294 Tb1280 2.366 . S
O1294 C1302 1.265 . S
C1295 O1291 1.259 . S
C1295 O1292 1.265 . S
O1296 Eu1281 2.479 . S
O1296 C1311 1.238 . S
O1297 Eu1281 2.471 . S
O1297 C1311 1.247 . S
O1298 Eu1281 2.347 . S
O1298 C1282 1.259 . S
O1299 Tb1280 2.418 . S
O1299 C1282 1.265 . S
O1300 Tb1280 2.384 . S
O1300 C1283 1.255 . S
O1301 Eu1281 2.366 . S
O1301 C1283 1.265 . S
C1302 O1293 1.255 . S
C1302 O1294 1.265 . S
O1303 Tb1280 2.479 . S
O1303 C1290 1.238 . S
O1304 Tb1280 2.471 . S
O1304 C1290 1.247 . S
C1305 C1308 1.380 . S
C1305 C1309 1.374 . S
C1305 C1311 1.507 . S
C1306 C1307 1.387 . S
C1306 C1310 1.391 . S
C1307 C1306 1.387 . S
C1307 C1308 1.384 . S
C1307 H1316 0.930 . S
C1308 C1305 1.380 . S
C1308 C1307 1.384 . S
C1308 H1317 0.931 . S
C1309 C1305 1.374 . S
C1309 C1310 1.390 . S
C1309 H1318 0.930 . S
C1310 C1306 1.391 . S
C1310 C1309 1.390 . S
C1310 H1319 0.930 . S
C1311 Eu1281 2.825 . S
C1311 O1296 1.238 . S
C1311 O1297 1.247 . S
C1311 C1305 1.507 . S
H1312 C1285 0.930 . S
H1313 C1286 0.931 . S
H1314 C1287 0.930 . S
H1315 C1288 0.930 . S
H1316 C1307 0.930 . S
H1317 C1308 0.931 . S
H1318 C1309 0.930 . S
H1319 C1310 0.930 . S
Tb1320 C1330 2.825 . S
Tb1320 O1331 2.347 . S
Tb1320 O1334 2.366 . S
Tb1320 O1339 2.418 . S
Tb1320 O1340 2.384 . S
Tb1320 O1343 2.479 . S
Tb1320 O1344 2.471 . S
Eu1321 O1332 2.418 . S
Eu1321 O1333 2.384 . S
Eu1321 O1336 2.479 . S
Eu1321 O1337 2.471 . S
Eu1321 O1338 2.347 . S
Eu1321 O1341 2.366 . S
Eu1321 C1351 2.825 . S
C1322 O1338 1.259 . S
C1322 O1339 1.265 . S
C1323 O1340 1.255 . S
C1323 O1341 1.265 . S
C1324 C1326 1.380 . S
C1324 C1327 1.374 . S
C1324 C1330 1.507 . S
C1325 C1326 1.384 . S
C1325 C1329 1.387 . S
C1325 H1352 0.930 . S
C1326 C1324 1.380 . S
C1326 C1325 1.384 . S
C1326 H1353 0.931 . S
C1327 C1324 1.374 . S
C1327 C1328 1.390 . S
C1327 H1354 0.930 . S
C1328 C1327 1.390 . S
C1328 C1329 1.391 . S
C1328 H1355 0.930 . S
C1329 C1325 1.387 . S
C1329 C1328 1.391 . S
C1330 Tb1320 2.825 . S
C1330 C1324 1.507 . S
C1330 O1343 1.238 . S
C1330 O1344 1.247 . S
O1331 Tb1320 2.347 . S
O1331 C1335 1.259 . S
O1332 Eu1321 2.418 . S
O1332 C1335 1.265 . S
O1333 Eu1321 2.384 . S
O1333 C1342 1.255 . S
O1334 Tb1320 2.366 . S
O1334 C1342 1.265 . S
C1335 O1331 1.259 . S
C1335 O1332 1.265 . S
O1336 Eu1321 2.479 . S
O1336 C1351 1.238 . S
O1337 Eu1321 2.471 . S
O1337 C1351 1.247 . S
O1338 Eu1321 2.347 . S
O1338 C1322 1.259 . S
O1339 Tb1320 2.418 . S
O1339 C1322 1.265 . S
O1340 Tb1320 2.384 . S
O1340 C1323 1.255 . S
O1341 Eu1321 2.366 . S
O1341 C1323 1.265 . S
C1342 O1333 1.255 . S
C1342 O1334 1.265 . S
O1343 Tb1320 2.479 . S
O1343 C1330 1.238 . S
O1344 Tb1320 2.471 . S
O1344 C1330 1.247 . S
C1345 C1348 1.380 . S
C1345 C1349 1.374 . S
C1345 C1351 1.507 . S
C1346 C1347 1.387 . S
C1346 C1350 1.391 . S
C1347 C1346 1.387 . S
C1347 C1348 1.384 . S
C1347 H1356 0.930 . S
C1348 C1345 1.380 . S
C1348 C1347 1.384 . S
C1348 H1357 0.931 . S
C1349 C1345 1.374 . S
C1349 C1350 1.390 . S
C1349 H1358 0.930 . S
C1350 C1346 1.391 . S
C1350 C1349 1.390 . S
C1350 H1359 0.930 . S
C1351 Eu1321 2.825 . S
C1351 O1336 1.238 . S
C1351 O1337 1.247 . S
C1351 C1345 1.507 . S
H1352 C1325 0.930 . S
H1353 C1326 0.931 . S
H1354 C1327 0.930 . S
H1355 C1328 0.930 . S
H1356 C1347 0.930 . S
H1357 C1348 0.931 . S
H1358 C1349 0.930 . S
H1359 C1350 0.930 . S
Tb1360 C1370 2.825 . S
Tb1360 O1371 2.347 . S
Tb1360 O1374 2.366 . S
Tb1360 O1379 2.418 . S
Tb1360 O1380 2.384 . S
Tb1360 O1383 2.479 . S
Tb1360 O1384 2.471 . S
Eu1361 O1372 2.418 . S
Eu1361 O1373 2.384 . S
Eu1361 O1376 2.479 . S
Eu1361 O1377 2.471 . S
Eu1361 O1378 2.347 . S
Eu1361 O1381 2.366 . S
Eu1361 C1391 2.825 . S
C1362 O1378 1.259 . S
C1362 O1379 1.265 . S
C1363 O1380 1.255 . S
C1363 O1381 1.265 . S
C1364 C1366 1.380 . S
C1364 C1367 1.374 . S
C1364 C1370 1.507 . S
C1365 C1366 1.384 . S
C1365 C1369 1.387 . S
C1365 H1392 0.930 . S
C1366 C1364 1.380 . S
C1366 C1365 1.384 . S
C1366 H1393 0.931 . S
C1367 C1364 1.374 . S
C1367 C1368 1.390 . S
C1367 H1394 0.930 . S
C1368 C1367 1.390 . S
C1368 C1369 1.391 . S
C1368 H1395 0.930 . S
C1369 C1365 1.387 . S
C1369 C1368 1.391 . S
C1370 Tb1360 2.825 . S
C1370 C1364 1.507 . S
C1370 O1383 1.238 . S
C1370 O1384 1.247 . S
O1371 Tb1360 2.347 . S
O1371 C1375 1.259 . S
O1372 Eu1361 2.418 . S
O1372 C1375 1.265 . S
O1373 Eu1361 2.384 . S
O1373 C1382 1.255 . S
O1374 Tb1360 2.366 . S
O1374 C1382 1.265 . S
C1375 O1371 1.259 . S
C1375 O1372 1.265 . S
O1376 Eu1361 2.479 . S
O1376 C1391 1.238 . S
O1377 Eu1361 2.471 . S
O1377 C1391 1.247 . S
O1378 Eu1361 2.347 . S
O1378 C1362 1.259 . S
O1379 Tb1360 2.418 . S
O1379 C1362 1.265 . S
O1380 Tb1360 2.384 . S
O1380 C1363 1.255 . S
O1381 Eu1361 2.366 . S
O1381 C1363 1.265 . S
C1382 O1373 1.255 . S
C1382 O1374 1.265 . S
O1383 Tb1360 2.479 . S
O1383 C1370 1.238 . S
O1384 Tb1360 2.471 . S
O1384 C1370 1.247 . S
C1385 C1388 1.380 . S
C1385 C1389 1.374 . S
C1385 C1391 1.507 . S
C1386 C1387 1.387 . S
C1386 C1390 1.391 . S
C1387 C1386 1.387 . S
C1387 C1388 1.384 . S
C1387 H1396 0.930 . S
C1388 C1385 1.380 . S
C1388 C1387 1.384 . S
C1388 H1397 0.931 . S
C1389 C1385 1.374 . S
C1389 C1390 1.390 . S
C1389 H1398 0.930 . S
C1390 C1386 1.391 . S
C1390 C1389 1.390 . S
C1390 H1399 0.930 . S
C1391 Eu1361 2.825 . S
C1391 O1376 1.238 . S
C1391 O1377 1.247 . S
C1391 C1385 1.507 . S
H1392 C1365 0.930 . S
H1393 C1366 0.931 . S
H1394 C1367 0.930 . S
H1395 C1368 0.930 . S
H1396 C1387 0.930 . S
H1397 C1388 0.931 . S
H1398 C1389 0.930 . S
H1399 C1390 0.930 . S
Tb1400 C1410 2.825 . S
Tb1400 O1411 2.347 . S
Tb1400 O1414 2.366 . S
Tb1400 O1419 2.418 . S
Tb1400 O1420 2.384 . S
Tb1400 O1423 2.479 . S
Tb1400 O1424 2.471 . S
Eu1401 O1412 2.418 . S
Eu1401 O1413 2.384 . S
Eu1401 O1416 2.479 . S
Eu1401 O1417 2.471 . S
Eu1401 O1418 2.347 . S
Eu1401 O1421 2.366 . S
Eu1401 C1431 2.825 . S
C1402 O1418 1.259 . S
C1402 O1419 1.265 . S
C1403 O1420 1.255 . S
C1403 O1421 1.265 . S
C1404 C1406 1.380 . S
C1404 C1407 1.374 . S
C1404 C1410 1.507 . S
C1405 C1406 1.384 . S
C1405 C1409 1.387 . S
C1405 H1432 0.930 . S
C1406 C1404 1.380 . S
C1406 C1405 1.384 . S
C1406 H1433 0.931 . S
C1407 C1404 1.374 . S
C1407 C1408 1.390 . S
C1407 H1434 0.930 . S
C1408 C1407 1.390 . S
C1408 C1409 1.391 . S
C1408 H1435 0.930 . S
C1409 C1405 1.387 . S
C1409 C1408 1.391 . S
C1410 Tb1400 2.825 . S
C1410 C1404 1.507 . S
C1410 O1423 1.238 . S
C1410 O1424 1.247 . S
O1411 Tb1400 2.347 . S
O1411 C1415 1.259 . S
O1412 Eu1401 2.418 . S
O1412 C1415 1.265 . S
O1413 Eu1401 2.384 . S
O1413 C1422 1.255 . S
O1414 Tb1400 2.366 . S
O1414 C1422 1.265 . S
C1415 O1411 1.259 . S
C1415 O1412 1.265 . S
O1416 Eu1401 2.479 . S
O1416 C1431 1.238 . S
O1417 Eu1401 2.471 . S
O1417 C1431 1.247 . S
O1418 Eu1401 2.347 . S
O1418 C1402 1.259 . S
O1419 Tb1400 2.418 . S
O1419 C1402 1.265 . S
O1420 Tb1400 2.384 . S
O1420 C1403 1.255 . S
O1421 Eu1401 2.366 . S
O1421 C1403 1.265 . S
C1422 O1413 1.255 . S
C1422 O1414 1.265 . S
O1423 Tb1400 2.479 . S
O1423 C1410 1.238 . S
O1424 Tb1400 2.471 . S
O1424 C1410 1.247 . S
C1425 C1428 1.380 . S
C1425 C1429 1.374 . S
C1425 C1431 1.507 . S
C1426 C1427 1.387 . S
C1426 C1430 1.391 . S
C1427 C1426 1.387 . S
C1427 C1428 1.384 . S
C1427 H1436 0.930 . S
C1428 C1425 1.380 . S
C1428 C1427 1.384 . S
C1428 H1437 0.931 . S
C1429 C1425 1.374 . S
C1429 C1430 1.390 . S
C1429 H1438 0.930 . S
C1430 C1426 1.391 . S
C1430 C1429 1.390 . S
C1430 H1439 0.930 . S
C1431 Eu1401 2.825 . S
C1431 O1416 1.238 . S
C1431 O1417 1.247 . S
C1431 C1425 1.507 . S
H1432 C1405 0.930 . S
H1433 C1406 0.931 . S
H1434 C1407 0.930 . S
H1435 C1408 0.930 . S
H1436 C1427 0.930 . S
H1437 C1428 0.931 . S
H1438 C1429 0.930 . S
H1439 C1430 0.930 . S
H1440 C1452 0.930 . S
H1441 C1454 0.930 . S
H1442 C1455 0.930 . S
H1443 C1459 0.959 . S
H1444 C1459 0.959 1_556 S
H1445 C1459 0.961 . S
H1446 C1460 0.964 . S
H1447 C1460 0.985 . S
H1448 C1460 0.954 1_554 S
H1449 C1463 0.929 . S
H1450 C1464 0.931 . S
H1451 C1466 0.930 . S
C1452 H1440 0.930 . S
C1452 C1453 1.399 . S
C1452 C1457 1.399 . S
C1453 C1452 1.399 . S
C1453 C1454 1.376 . S
C1454 H1441 0.930 . S
C1454 C1453 1.376 . S
C1454 C1455 1.388 . S
C1455 H1442 0.930 . S
C1455 C1454 1.388 . S
C1455 C1456 1.390 . S
C1456 C1455 1.390 . S
C1456 C1457 1.394 . S
C1456 C1462 1.465 . S
C1457 C1452 1.399 . S
C1457 C1456 1.394 . S
C1457 C1458 1.516 . S
C1458 C1457 1.516 . S
C1458 C1459 1.502 . S
C1458 C1460 1.539 1_554 S
C1458 C1461 1.526 . S
C1459 H1443 0.959 . S
C1459 H1444 0.959 1_554 S
C1459 H1445 0.961 . S
C1459 C1458 1.502 . S
C1460 H1446 0.964 . S
C1460 H1447 0.985 . S
C1460 H1448 0.954 1_556 S
C1460 C1458 1.539 1_556 S
C1461 C1458 1.526 . S
C1461 C1462 1.396 . S
C1461 C1466 1.390 . S
C1462 C1456 1.465 . S
C1462 C1461 1.396 . S
C1462 C1463 1.399 . S
C1463 H1449 0.929 . S
C1463 C1462 1.399 . S
C1463 C1464 1.385 . S
C1464 H1450 0.931 . S
C1464 C1463 1.385 . S
C1464 C1465 1.389 . S
C1465 C1464 1.389 . S
C1465 C1466 1.387 . S
C1466 H1451 0.930 . S
C1466 C1461 1.390 . S
C1466 C1465 1.387 . S
H1467 C1479 0.930 . S
H1468 C1481 0.930 . S
H1469 C1482 0.930 . S
H1470 C1486 0.959 . S
H1471 C1486 0.959 . S
H1472 C1486 0.961 . S
H1473 C1487 0.960 . S
H1474 C1487 0.961 . S
H1475 C1487 0.959 . S
H1476 C1490 0.929 . S
H1477 C1491 0.935 . S
H1478 C1493 0.930 . S
C1479 H1467 0.930 . S
C1479 C1480 1.399 . S
C1479 C1484 1.399 . S
C1480 C1479 1.399 . S
C1480 C1481 1.376 . S
C1481 H1468 0.930 . S
C1481 C1480 1.376 . S
C1481 C1482 1.388 . S
C1482 H1469 0.930 . S
C1482 C1481 1.388 . S
C1482 C1483 1.390 . S
C1483 C1482 1.390 . S
C1483 C1484 1.394 . S
C1483 C1489 1.465 . S
C1484 C1479 1.399 . S
C1484 C1483 1.394 . S
C1484 C1485 1.516 . S
C1485 C1484 1.516 . S
C1485 C1486 1.502 . S
C1485 C1487 1.561 . S
C1485 C1488 1.526 . S
C1486 H1470 0.959 . S
C1486 H1471 0.959 . S
C1486 H1472 0.961 . S
C1486 C1485 1.502 . S
C1487 H1473 0.960 . S
C1487 H1474 0.961 . S
C1487 H1475 0.959 . S
C1487 C1485 1.561 . S
C1488 C1485 1.526 . S
C1488 C1489 1.396 . S
C1488 C1493 1.390 . S
C1489 C1483 1.465 . S
C1489 C1488 1.396 . S
C1489 C1490 1.399 . S
C1490 H1476 0.929 . S
C1490 C1489 1.399 . S
C1490 C1491 1.385 . S
C1491 H1477 0.935 . S
C1491 C1490 1.385 . S
C1491 C1492 1.389 . S
C1492 C1491 1.389 . S
C1492 C1493 1.387 . S
C1493 H1478 0.930 . S
C1493 C1488 1.390 . S
C1493 C1492 1.387 . S
H1494 C1506 0.930 . S
H1495 C1508 0.930 . S
H1496 C1509 0.930 . S
H1497 C1513 0.959 1_554 S
H1498 C1513 0.959 . S
H1499 C1513 0.961 . S
H1500 C1514 0.960 . S
H1501 C1514 0.961 . S
H1502 C1514 0.959 . S
H1503 C1517 0.929 . S
H1504 C1518 0.931 . S
H1505 C1520 0.930 1_556 S
C1506 H1494 0.930 . S
C1506 C1507 1.399 . S
C1506 C1511 1.399 . S
C1507 C1506 1.399 . S
C1507 C1508 1.376 . S
C1508 H1495 0.930 . S
C1508 C1507 1.376 . S
C1508 C1509 1.388 . S
C1509 H1496 0.930 . S
C1509 C1508 1.388 . S
C1509 C1510 1.390 . S
C1510 C1509 1.390 . S
C1510 C1511 1.394 . S
C1510 C1516 1.465 . S
C1511 C1506 1.399 . S
C1511 C1510 1.394 . S
C1511 C1512 1.516 . S
C1512 C1511 1.516 . S
C1512 C1513 1.502 1_554 S
C1512 C1514 1.561 1_554 S
C1512 C1515 1.526 . S
C1513 H1497 0.959 1_556 S
C1513 H1498 0.959 . S
C1513 H1499 0.961 . S
C1513 C1512 1.502 1_556 S
C1514 H1500 0.960 . S
C1514 H1501 0.961 . S
C1514 H1502 0.959 . S
C1514 C1512 1.561 1_556 S
C1515 C1512 1.526 . S
C1515 C1516 1.396 . S
C1515 C1520 1.390 . S
C1516 C1510 1.465 . S
C1516 C1515 1.396 . S
C1516 C1517 1.399 . S
C1517 H1503 0.929 . S
C1517 C1516 1.399 . S
C1517 C1518 1.385 . S
C1518 H1504 0.931 . S
C1518 C1517 1.385 . S
C1518 C1519 1.389 . S
C1519 C1518 1.389 . S
C1519 C1520 1.387 . S
C1520 H1505 0.930 1_554 S
C1520 C1515 1.390 . S
C1520 C1519 1.387 . S
H1521 C1533 0.930 . S
H1522 C1535 0.930 . S
H1523 C1536 0.930 . S
H1524 C1540 0.959 . S
H1525 C1540 0.959 . S
H1526 C1540 0.961 . S
H1527 C1541 0.960 . S
H1528 C1541 0.961 . S
H1529 C1541 0.959 1_556 S
H1530 C1544 0.929 . S
H1531 C1545 0.931 . S
H1532 C1547 0.930 1_554 S
C1533 H1521 0.930 . S
C1533 C1534 1.399 . S
C1533 C1538 1.399 . S
C1534 C1533 1.399 . S
C1534 C1535 1.376 . S
C1535 H1522 0.930 . S
C1535 C1534 1.376 . S
C1535 C1536 1.388 . S
C1536 H1523 0.930 . S
C1536 C1535 1.388 . S
C1536 C1537 1.390 . S
C1537 C1536 1.390 . S
C1537 C1538 1.394 . S
C1537 C1543 1.465 . S
C1538 C1533 1.399 . S
C1538 C1537 1.394 . S
C1538 C1539 1.516 . S
C1539 C1538 1.516 . S
C1539 C1540 1.502 1_556 S
C1539 C1541 1.561 1_556 S
C1539 C1542 1.526 . S
C1540 H1524 0.959 . S
C1540 H1525 0.959 . S
C1540 H1526 0.961 . S
C1540 C1539 1.502 1_554 S
C1541 H1527 0.960 . S
C1541 H1528 0.961 . S
C1541 H1529 0.959 1_554 S
C1541 C1539 1.561 1_554 S
C1542 C1539 1.526 . S
C1542 C1543 1.396 . S
C1542 C1547 1.390 . S
C1543 C1537 1.465 . S
C1543 C1542 1.396 . S
C1543 C1544 1.399 . S
C1544 H1530 0.929 . S
C1544 C1543 1.399 . S
C1544 C1545 1.385 . S
C1545 H1531 0.931 . S
C1545 C1544 1.385 . S
C1545 C1546 1.389 . S
C1546 C1545 1.389 . S
C1546 C1547 1.387 . S
C1547 H1532 0.930 1_556 S
C1547 C1542 1.390 . S
C1547 C1546 1.387 . S
H1548 C1560 0.930 . S
H1549 C1562 0.930 . S
H1550 C1563 0.930 . S
H1551 C1567 0.959 . S
H1552 C1567 0.959 1_554 S
H1553 C1567 0.961 . S
H1554 C1568 0.960 . S
H1555 C1568 0.961 . S
H1556 C1568 0.959 . S
H1557 C1571 0.929 . S
H1558 C1572 0.931 . S
H1559 C1574 0.930 . S
C1560 H1548 0.930 . S
C1560 C1561 1.399 . S
C1560 C1565 1.399 . S
C1561 C1560 1.399 . S
C1561 C1562 1.376 . S
C1562 H1549 0.930 . S
C1562 C1561 1.376 . S
C1562 C1563 1.388 . S
C1563 H1550 0.930 . S
C1563 C1562 1.388 . S
C1563 C1564 1.390 . S
C1564 C1563 1.390 . S
C1564 C1565 1.394 . S
C1564 C1570 1.465 . S
C1565 C1560 1.399 . S
C1565 C1564 1.394 . S
C1565 C1566 1.516 . S
C1566 C1565 1.516 . S
C1566 C1567 1.502 . S
C1566 C1568 1.561 . S
C1566 C1569 1.526 . S
C1567 H1551 0.959 . S
C1567 H1552 0.959 1_556 S
C1567 H1553 0.961 . S
C1567 C1566 1.502 . S
C1568 H1554 0.960 . S
C1568 H1555 0.961 . S
C1568 H1556 0.959 . S
C1568 C1566 1.561 . S
C1569 C1566 1.526 . S
C1569 C1570 1.396 . S
C1569 C1574 1.390 . S
C1570 C1564 1.465 . S
C1570 C1569 1.396 . S
C1570 C1571 1.399 . S
C1571 H1557 0.929 . S
C1571 C1570 1.399 . S
C1571 C1572 1.385 . S
C1572 H1558 0.931 . S
C1572 C1571 1.385 . S
C1572 C1573 1.389 . S
C1573 C1572 1.389 . S
C1573 C1574 1.387 . S
C1574 H1559 0.930 . S
C1574 C1569 1.390 . S
C1574 C1573 1.387 . S
H1575 C1587 0.930 . S
H1576 C1589 0.930 . S
H1577 C1590 0.917 1_554 S
H1578 C1594 0.959 . S
H1579 C1594 0.959 . S
H1580 C1594 0.961 . S
H1581 C1595 0.960 . S
H1582 C1595 0.961 . S
H1583 C1595 0.959 . S
H1584 C1598 0.929 . S
H1585 C1599 0.931 . S
H1586 C1601 0.930 . S
C1587 H1575 0.930 . S
C1587 C1588 1.399 . S
C1587 C1592 1.399 . S
C1588 C1587 1.399 . S
C1588 C1589 1.376 . S
C1589 H1576 0.930 . S
C1589 C1588 1.376 . S
C1589 C1590 1.388 . S
C1590 H1577 0.917 1_556 S
C1590 C1589 1.388 . S
C1590 C1591 1.390 . S
C1591 C1590 1.390 . S
C1591 C1592 1.394 . S
C1591 C1597 1.465 . S
C1592 C1587 1.399 . S
C1592 C1591 1.394 . S
C1592 C1593 1.516 . S
C1593 C1592 1.516 . S
C1593 C1594 1.502 . S
C1593 C1595 1.561 . S
C1593 C1596 1.526 . S
C1594 H1578 0.959 . S
C1594 H1579 0.959 . S
C1594 H1580 0.961 . S
C1594 C1593 1.502 . S
C1595 H1581 0.960 . S
C1595 H1582 0.961 . S
C1595 H1583 0.959 . S
C1595 C1593 1.561 . S
C1596 C1593 1.526 . S
C1596 C1597 1.396 . S
C1596 C1601 1.390 . S
C1597 C1591 1.465 . S
C1597 C1596 1.396 . S
C1597 C1598 1.399 1_556 S
C1598 H1584 0.929 . S
C1598 C1597 1.399 1_554 S
C1598 C1599 1.385 . S
C1599 H1585 0.931 . S
C1599 C1598 1.385 . S
C1599 C1600 1.389 1_554 S
C1600 C1599 1.389 1_556 S
C1600 C1601 1.387 . S
C1601 H1586 0.930 . S
C1601 C1596 1.390 . S
C1601 C1600 1.387 . S
H1602 C1614 0.930 . S
H1603 C1616 0.930 . S
H1604 C1617 0.930 . S
H1605 C1621 0.959 . S
H1606 C1621 0.959 . S
H1607 C1621 0.961 . S
H1608 C1622 0.960 . S
H1609 C1622 0.961 . S
H1610 C1622 0.959 . S
H1611 C1625 0.920 1_554 S
H1612 C1626 0.931 1_554 S
H1613 C1628 0.930 . S
C1614 H1602 0.930 . S
C1614 C1615 1.399 . S
C1614 C1619 1.399 . S
C1615 C1614 1.399 . S
C1615 C1616 1.376 . S
C1616 H1603 0.930 . S
C1616 C1615 1.376 . S
C1616 C1617 1.388 . S
C1617 H1604 0.930 . S
C1617 C1616 1.388 . S
C1617 C1618 1.390 . S
C1618 C1617 1.390 . S
C1618 C1619 1.394 . S
C1618 C1624 1.465 . S
C1619 C1614 1.399 . S
C1619 C1618 1.394 . S
C1619 C1620 1.516 . S
C1620 C1619 1.516 . S
C1620 C1621 1.502 . S
C1620 C1622 1.561 . S
C1620 C1623 1.526 . S
C1621 H1605 0.959 . S
C1621 H1606 0.959 . S
C1621 H1607 0.961 . S
C1621 C1620 1.502 . S
C1622 H1608 0.960 . S
C1622 H1609 0.961 . S
C1622 H1610 0.959 . S
C1622 C1620 1.561 . S
C1623 C1620 1.526 . S
C1623 C1624 1.396 . S
C1623 C1628 1.390 . S
C1624 C1618 1.465 . S
C1624 C1623 1.396 . S
C1624 C1625 1.399 . S
C1625 H1611 0.920 1_556 S
C1625 C1624 1.399 . S
C1625 C1626 1.385 . S
C1626 H1612 0.931 1_556 S
C1626 C1625 1.385 . S
C1626 C1627 1.389 . S
C1627 C1626 1.389 . S
C1627 C1628 1.387 . S
C1628 H1613 0.930 . S
C1628 C1623 1.390 . S
C1628 C1627 1.387 . S
H1629 C1641 0.930 . S
H1630 C1643 0.930 . S
H1631 C1644 0.930 . S
H1632 C1648 0.959 . S
H1633 C1648 0.959 . S
H1634 C1648 0.961 . S
H1635 C1649 0.960 . S
H1636 C1649 0.961 . S
H1637 C1649 0.959 . S
H1638 C1652 0.929 . S
H1639 C1653 0.931 . S
H1640 C1655 0.930 . S
C1641 H1629 0.930 . S
C1641 C1642 1.399 . S
C1641 C1646 1.399 . S
C1642 C1641 1.399 . S
C1642 C1643 1.376 . S
C1643 H1630 0.930 . S
C1643 C1642 1.376 . S
C1643 C1644 1.388 . S
C1644 H1631 0.930 . S
C1644 C1643 1.388 . S
C1644 C1645 1.390 . S
C1645 C1644 1.390 . S
C1645 C1646 1.394 . S
C1645 C1651 1.465 . S
C1646 C1641 1.399 . S
C1646 C1645 1.394 . S
C1646 C1647 1.516 . S
C1647 C1646 1.516 . S
C1647 C1648 1.502 . S
C1647 C1649 1.561 . S
C1647 C1650 1.526 . S
C1648 H1632 0.959 . S
C1648 H1633 0.959 . S
C1648 H1634 0.961 . S
C1648 C1647 1.502 . S
C1649 H1635 0.960 . S
C1649 H1636 0.961 . S
C1649 H1637 0.959 . S
C1649 C1647 1.561 . S
C1650 C1647 1.526 . S
C1650 C1651 1.396 . S
C1650 C1655 1.390 . S
C1651 C1645 1.465 . S
C1651 C1650 1.396 . S
C1651 C1652 1.399 . S
C1652 H1638 0.929 . S
C1652 C1651 1.399 . S
C1652 C1653 1.385 . S
C1653 H1639 0.931 . S
C1653 C1652 1.385 . S
C1653 C1654 1.389 . S
C1654 C1653 1.389 . S
C1654 C1655 1.387 . S
C1655 H1640 0.930 . S
C1655 C1650 1.390 . S
C1655 C1654 1.387 . S
H1656 C1668 0.930 . S
H1657 C1670 0.930 . S
H1658 C1671 0.930 . S
H1659 C1675 0.959 1_556 S
H1660 C1675 0.959 . S
H1661 C1675 0.961 . S
H1662 C1676 0.960 . S
H1663 C1676 0.961 . S
H1664 C1676 0.959 . S
H1665 C1679 0.929 . S
H1666 C1680 0.931 . S
H1667 C1682 0.930 1_554 S
C1668 H1656 0.930 . S
C1668 C1669 1.399 . S
C1668 C1673 1.399 . S
C1669 C1668 1.399 . S
C1669 C1670 1.376 . S
C1670 H1657 0.930 . S
C1670 C1669 1.376 . S
C1670 C1671 1.388 . S
C1671 H1658 0.930 . S
C1671 C1670 1.388 . S
C1671 C1672 1.390 . S
C1672 C1671 1.390 . S
C1672 C1673 1.394 . S
C1672 C1678 1.465 . S
C1673 C1668 1.399 . S
C1673 C1672 1.394 . S
C1673 C1674 1.516 . S
C1674 C1673 1.516 . S
C1674 C1675 1.502 1_556 S
C1674 C1676 1.561 1_556 S
C1674 C1677 1.526 . S
C1675 H1659 0.959 1_554 S
C1675 H1660 0.959 . S
C1675 H1661 0.961 . S
C1675 C1674 1.502 1_554 S
C1676 H1662 0.960 . S
C1676 H1663 0.961 . S
C1676 H1664 0.959 . S
C1676 C1674 1.561 1_554 S
C1677 C1674 1.526 . S
C1677 C1678 1.396 . S
C1677 C1682 1.390 . S
C1678 C1672 1.465 . S
C1678 C1677 1.396 . S
C1678 C1679 1.399 . S
C1679 H1665 0.929 . S
C1679 C1678 1.399 . S
C1679 C1680 1.385 . S
C1680 H1666 0.931 . S
C1680 C1679 1.385 . S
C1680 C1681 1.389 . S
C1681 C1680 1.389 . S
C1681 C1682 1.387 . S
C1682 H1667 0.930 1_556 S
C1682 C1677 1.390 . S
C1682 C1681 1.387 . S
H1683 C1695 0.930 . S
H1684 C1697 0.930 . S
H1685 C1698 0.930 . S
H1686 C1702 0.959 1_554 S
H1687 C1702 0.959 . S
H1688 C1702 0.961 . S
H1689 C1703 0.960 . S
H1690 C1703 0.961 . S
H1691 C1703 0.959 1_554 S
H1692 C1706 0.929 . S
H1693 C1707 0.931 . S
H1694 C1709 0.930 1_556 S
C1695 H1683 0.930 . S
C1695 C1696 1.399 . S
C1695 C1700 1.399 . S
C1696 C1695 1.399 . S
C1696 C1697 1.376 . S
C1697 H1684 0.930 . S
C1697 C1696 1.376 . S
C1697 C1698 1.388 . S
C1698 H1685 0.930 . S
C1698 C1697 1.388 . S
C1698 C1699 1.390 . S
C1699 C1698 1.390 . S
C1699 C1700 1.394 . S
C1699 C1705 1.465 . S
C1700 C1695 1.399 . S
C1700 C1699 1.394 . S
C1700 C1701 1.516 . S
C1701 C1700 1.516 . S
C1701 C1702 1.502 1_554 S
C1701 C1703 1.561 1_554 S
C1701 C1704 1.526 . S
C1702 H1686 0.959 1_556 S
C1702 H1687 0.959 . S
C1702 H1688 0.961 . S
C1702 C1701 1.502 1_556 S
C1703 H1689 0.960 . S
C1703 H1690 0.961 . S
C1703 H1691 0.959 1_556 S
C1703 C1701 1.561 1_556 S
C1704 C1701 1.526 . S
C1704 C1705 1.396 . S
C1704 C1709 1.390 . S
C1705 C1699 1.465 . S
C1705 C1704 1.396 . S
C1705 C1706 1.399 . S
C1706 H1692 0.929 . S
C1706 C1705 1.399 . S
C1706 C1707 1.385 . S
C1707 H1693 0.931 . S
C1707 C1706 1.385 . S
C1707 C1708 1.389 . S
C1708 C1707 1.389 . S
C1708 C1709 1.387 . S
C1709 H1694 0.930 1_554 S
C1709 C1704 1.390 . S
C1709 C1708 1.387 . S
H1710 C1722 0.930 . S
H1711 C1724 0.930 . S
H1712 C1725 0.930 . S
H1713 C1729 0.959 . S
H1714 C1729 0.959 . S
H1715 C1729 0.961 . S
H1716 C1730 0.960 . S
H1717 C1730 0.961 . S
H1718 C1730 0.959 . S
H1719 C1733 0.929 . S
H1720 C1734 0.931 . S
H1721 C1736 0.930 . S
C1722 H1710 0.930 . S
C1722 C1723 1.399 . S
C1722 C1727 1.399 . S
C1723 C1722 1.399 . S
C1723 C1724 1.376 . S
C1724 H1711 0.930 . S
C1724 C1723 1.376 . S
C1724 C1725 1.388 . S
C1725 H1712 0.930 . S
C1725 C1724 1.388 . S
C1725 C1726 1.390 . S
C1726 C1725 1.390 . S
C1726 C1727 1.394 . S
C1726 C1732 1.465 . S
C1727 C1722 1.399 . S
C1727 C1726 1.394 . S
C1727 C1728 1.516 . S
C1728 C1727 1.516 . S
C1728 C1729 1.502 . S
C1728 C1730 1.561 . S
C1728 C1731 1.526 . S
C1729 H1713 0.959 . S
C1729 H1714 0.959 . S
C1729 H1715 0.961 . S
C1729 C1728 1.502 . S
C1730 H1716 0.960 . S
C1730 H1717 0.961 . S
C1730 H1718 0.959 . S
C1730 C1728 1.561 . S
C1731 C1728 1.526 . S
C1731 C1732 1.396 . S
C1731 C1736 1.390 . S
C1732 C1726 1.465 . S
C1732 C1731 1.396 . S
C1732 C1733 1.399 . S
C1733 H1719 0.929 . S
C1733 C1732 1.399 . S
C1733 C1734 1.385 . S
C1734 H1720 0.931 . S
C1734 C1733 1.385 . S
C1734 C1735 1.389 . S
C1735 C1734 1.389 . S
C1735 C1736 1.387 . S
C1736 H1721 0.930 . S
C1736 C1731 1.390 . S
C1736 C1735 1.387 . S
H1737 C1749 0.930 . S
H1738 C1751 0.930 . S
H1739 C1752 0.930 . S
H1740 C1756 0.964 . S
H1741 C1756 0.961 . S
H1742 C1756 0.961 1_554 S
H1743 C1757 0.960 . S
H1744 C1757 0.961 . S
H1745 C1757 0.959 . S
H1746 C1760 0.929 . S
H1747 C1761 0.931 . S
H1748 C1763 0.930 . S
C1749 H1737 0.930 . S
C1749 C1750 1.399 . S
C1749 C1754 1.399 . S
C1750 C1749 1.399 . S
C1750 C1751 1.376 . S
C1751 H1738 0.930 . S
C1751 C1750 1.376 . S
C1751 C1752 1.388 . S
C1752 H1739 0.930 . S
C1752 C1751 1.388 . S
C1752 C1753 1.390 . S
C1753 C1752 1.390 . S
C1753 C1754 1.394 . S
C1753 C1759 1.465 . S
C1754 C1749 1.399 . S
C1754 C1753 1.394 . S
C1754 C1755 1.516 . S
C1755 C1754 1.516 . S
C1755 C1756 1.496 1_554 S
C1755 C1757 1.561 . S
C1755 C1758 1.526 . S
C1756 H1740 0.964 . S
C1756 H1741 0.961 . S
C1756 H1742 0.961 1_556 S
C1756 C1755 1.496 1_556 S
C1757 H1743 0.960 . S
C1757 H1744 0.961 . S
C1757 H1745 0.959 . S
C1757 C1755 1.561 . S
C1758 C1755 1.526 . S
C1758 C1759 1.396 . S
C1758 C1763 1.390 . S
C1759 C1753 1.465 . S
C1759 C1758 1.396 . S
C1759 C1760 1.399 . S
C1760 H1746 0.929 . S
C1760 C1759 1.399 . S
C1760 C1761 1.385 . S
C1761 H1747 0.931 . S
C1761 C1760 1.385 . S
C1761 C1762 1.389 . S
C1762 C1761 1.389 . S
C1762 C1763 1.387 . S
C1763 H1748 0.930 . S
C1763 C1758 1.390 . S
C1763 C1762 1.387 . S
H1764 C1776 0.930 . S
H1765 C1778 0.930 . S
H1766 C1779 0.930 . S
H1767 C1783 0.959 . S
H1768 C1783 0.959 . S
H1769 C1783 0.961 . S
H1770 C1784 0.960 . S
H1771 C1784 0.961 . S
H1772 C1784 0.959 . S
H1773 C1787 0.929 . S
H1774 C1788 0.931 . S
H1775 C1790 0.930 . S
C1776 H1764 0.930 . S
C1776 C1777 1.399 . S
C1776 C1781 1.399 1_655 S
C1777 C1776 1.399 . S
C1777 C1778 1.376 . S
C1778 H1765 0.930 . S
C1778 C1777 1.376 . S
C1778 C1779 1.388 . S
C1779 H1766 0.930 . S
C1779 C1778 1.388 . S
C1779 C1780 1.390 1_655 S
C1780 C1779 1.390 1_455 S
C1780 C1781 1.394 . S
C1780 C1786 1.465 . S
C1781 C1776 1.399 1_455 S
C1781 C1780 1.394 . S
C1781 C1782 1.516 . S
C1782 C1781 1.516 . S
C1782 C1783 1.502 . S
C1782 C1784 1.561 . S
C1782 C1785 1.526 . S
C1783 H1767 0.959 . S
C1783 H1768 0.959 . S
C1783 H1769 0.961 . S
C1783 C1782 1.502 . S
C1784 H1770 0.960 . S
C1784 H1771 0.961 . S
C1784 H1772 0.959 . S
C1784 C1782 1.561 . S
C1785 C1782 1.526 . S
C1785 C1786 1.396 . S
C1785 C1790 1.390 . S
C1786 C1780 1.465 . S
C1786 C1785 1.396 . S
C1786 C1787 1.399 . S
C1787 H1773 0.929 . S
C1787 C1786 1.399 . S
C1787 C1788 1.385 . S
C1788 H1774 0.931 . S
C1788 C1787 1.385 . S
C1788 C1789 1.389 . S
C1789 C1788 1.389 . S
C1789 C1790 1.387 . S
C1790 H1775 0.930 . S
C1790 C1785 1.390 . S
C1790 C1789 1.387 . S
H1791 C1803 0.930 . S
H1792 C1805 0.930 . S
H1793 C1806 0.930 . S
H1794 C1810 0.959 . S
H1795 C1810 0.959 . S
H1796 C1810 0.961 . S
H1797 C1811 0.960 . S
H1798 C1811 0.961 . S
H1799 C1811 0.959 . S
H1800 C1814 0.929 . S
H1801 C1815 0.931 . S
H1802 C1817 0.930 . S
C1803 H1791 0.930 . S
C1803 C1804 1.399 . S
C1803 C1808 1.399 . S
C1804 C1803 1.399 . S
C1804 C1805 1.376 . S
C1805 H1792 0.930 . S
C1805 C1804 1.376 . S
C1805 C1806 1.388 . S
C1806 H1793 0.930 . S
C1806 C1805 1.388 . S
C1806 C1807 1.390 . S
C1807 C1806 1.390 . S
C1807 C1808 1.394 . S
C1807 C1813 1.465 . S
C1808 C1803 1.399 . S
C1808 C1807 1.394 . S
C1808 C1809 1.516 . S
C1809 C1808 1.516 . S
C1809 C1810 1.502 . S
C1809 C1811 1.561 . S
C1809 C1812 1.526 . S
C1810 H1794 0.959 . S
C1810 H1795 0.959 . S
C1810 H1796 0.961 . S
C1810 C1809 1.502 . S
C1811 H1797 0.960 . S
C1811 H1798 0.961 . S
C1811 H1799 0.959 . S
C1811 C1809 1.561 . S
C1812 C1809 1.526 . S
C1812 C1813 1.396 . S
C1812 C1817 1.390 . S
C1813 C1807 1.465 . S
C1813 C1812 1.396 . S
C1813 C1814 1.399 . S
C1814 H1800 0.929 . S
C1814 C1813 1.399 . S
C1814 C1815 1.385 . S
C1815 H1801 0.931 . S
C1815 C1814 1.385 . S
C1815 C1816 1.389 . S
C1816 C1815 1.389 . S
C1816 C1817 1.387 . S
C1817 H1802 0.930 . S
C1817 C1812 1.390 . S
C1817 C1816 1.387 . S
H1818 C1830 0.930 . S
H1819 C1832 0.930 . S
H1820 C1833 0.930 . S
H1821 C1837 0.959 . S
H1822 C1837 0.959 . S
H1823 C1837 0.961 . S
H1824 C1838 0.960 . S
H1825 C1838 0.961 . S
H1826 C1838 0.959 . S
H1827 C1841 0.929 . S
H1828 C1842 0.931 . S
H1829 C1844 0.930 . S
C1830 H1818 0.930 . S
C1830 C1831 1.399 . S
C1830 C1835 1.399 1_545 S
C1831 C1830 1.399 . S
C1831 C1832 1.376 . S
C1832 H1819 0.930 . S
C1832 C1831 1.376 . S
C1832 C1833 1.388 . S
C1833 H1820 0.930 . S
C1833 C1832 1.388 . S
C1833 C1834 1.390 1_545 S
C1834 C1833 1.390 1_565 S
C1834 C1835 1.394 . S
C1834 C1840 1.465 . S
C1835 C1830 1.399 1_565 S
C1835 C1834 1.394 . S
C1835 C1836 1.516 . S
C1836 C1835 1.516 . S
C1836 C1837 1.502 . S
C1836 C1838 1.561 . S
C1836 C1839 1.526 . S
C1837 H1821 0.959 . S
C1837 H1822 0.959 . S
C1837 H1823 0.961 . S
C1837 C1836 1.502 . S
C1838 H1824 0.960 . S
C1838 H1825 0.961 . S
C1838 H1826 0.959 . S
C1838 C1836 1.561 . S
C1839 C1836 1.526 . S
C1839 C1840 1.396 . S
C1839 C1844 1.390 . S
C1840 C1834 1.465 . S
C1840 C1839 1.396 . S
C1840 C1841 1.399 . S
C1841 H1827 0.929 . S
C1841 C1840 1.399 . S
C1841 C1842 1.385 . S
C1842 H1828 0.931 . S
C1842 C1841 1.385 . S
C1842 C1843 1.389 . S
C1843 C1842 1.389 . S
C1843 C1844 1.387 . S
C1844 H1829 0.930 . S
C1844 C1839 1.390 . S
C1844 C1843 1.387 . S
H1845 C1857 0.930 . S
H1846 C1859 0.930 . S
H1847 C1860 0.930 . S
H1848 C1864 0.959 . S
H1849 C1864 0.959 . S
H1850 C1864 0.961 . S
H1851 C1865 0.960 . S
H1852 C1865 0.961 . S
H1853 C1865 0.959 . S
H1854 C1868 0.929 . S
H1855 C1869 0.931 . S
H1856 C1871 0.930 . S
C1857 H1845 0.930 . S
C1857 C1858 1.399 . S
C1857 C1862 1.399 . S
C1858 C1857 1.399 . S
C1858 C1859 1.376 . S
C1859 H1846 0.930 . S
C1859 C1858 1.376 . S
C1859 C1860 1.388 . S
C1860 H1847 0.930 . S
C1860 C1859 1.388 . S
C1860 C1861 1.390 . S
C1861 C1860 1.390 . S
C1861 C1862 1.394 . S
C1861 C1867 1.465 . S
C1862 C1857 1.399 . S
C1862 C1861 1.394 . S
C1862 C1863 1.516 . S
C1863 C1862 1.516 . S
C1863 C1864 1.502 . S
C1863 C1865 1.561 . S
C1863 C1866 1.526 . S
C1864 H1848 0.959 . S
C1864 H1849 0.959 . S
C1864 H1850 0.961 . S
C1864 C1863 1.502 . S
C1865 H1851 0.960 . S
C1865 H1852 0.961 . S
C1865 H1853 0.959 . S
C1865 C1863 1.561 . S
C1866 C1863 1.526 . S
C1866 C1867 1.396 . S
C1866 C1871 1.390 . S
C1867 C1861 1.465 . S
C1867 C1866 1.396 . S
C1867 C1868 1.399 . S
C1868 H1854 0.929 . S
C1868 C1867 1.399 . S
C1868 C1869 1.385 . S
C1869 H1855 0.931 . S
C1869 C1868 1.385 . S
C1869 C1870 1.389 . S
C1870 C1869 1.389 . S
C1870 C1871 1.387 . S
C1871 H1856 0.930 . S
C1871 C1866 1.390 . S
C1871 C1870 1.387 . S
H1872 C1884 0.930 . S
H1873 C1886 0.930 . S
H1874 C1887 0.930 . S
H1875 C1891 0.959 . S
H1876 C1891 0.959 . S
H1877 C1891 0.961 . S
H1878 C1892 0.960 . S
H1879 C1892 0.961 . S
H1880 C1892 0.959 . S
H1881 C1895 0.929 . S
H1882 C1896 0.931 . S
H1883 C1898 0.930 . S
C1884 H1872 0.930 . S
C1884 C1885 1.399 . S
C1884 C1889 1.399 . S
C1885 C1884 1.399 . S
C1885 C1886 1.376 . S
C1886 H1873 0.930 . S
C1886 C1885 1.376 . S
C1886 C1887 1.388 . S
C1887 H1874 0.930 . S
C1887 C1886 1.388 . S
C1887 C1888 1.390 . S
C1888 C1887 1.390 . S
C1888 C1889 1.394 . S
C1888 C1894 1.465 . S
C1889 C1884 1.399 . S
C1889 C1888 1.394 . S
C1889 C1890 1.516 . S
C1890 C1889 1.516 . S
C1890 C1891 1.502 . S
C1890 C1892 1.561 . S
C1890 C1893 1.526 . S
C1891 H1875 0.959 . S
C1891 H1876 0.959 . S
C1891 H1877 0.961 . S
C1891 C1890 1.502 . S
C1892 H1878 0.960 . S
C1892 H1879 0.961 . S
C1892 H1880 0.959 . S
C1892 C1890 1.561 . S
C1893 C1890 1.526 . S
C1893 C1894 1.396 . S
C1893 C1898 1.390 . S
C1894 C1888 1.465 . S
C1894 C1893 1.396 . S
C1894 C1895 1.399 . S
C1895 H1881 0.929 . S
C1895 C1894 1.399 . S
C1895 C1896 1.385 . S
C1896 H1882 0.931 . S
C1896 C1895 1.385 . S
C1896 C1897 1.389 . S
C1897 C1896 1.389 . S
C1897 C1898 1.387 . S
C1898 H1883 0.930 . S
C1898 C1893 1.390 . S
C1898 C1897 1.387 . S
H1899 C1911 0.930 . S
H1900 C1913 0.930 . S
H1901 C1914 0.930 . S
H1902 C1918 0.959 . S
H1903 C1918 0.959 . S
H1904 C1918 0.961 . S
H1905 C1919 0.960 . S
H1906 C1919 0.961 . S
H1907 C1919 0.959 . S
H1908 C1922 0.929 . S
H1909 C1923 0.931 . S
H1910 C1925 0.930 . S
C1911 H1899 0.930 . S
C1911 C1912 1.399 . S
C1911 C1916 1.399 . S
C1912 C1911 1.399 . S
C1912 C1913 1.376 . S
C1913 H1900 0.930 . S
C1913 C1912 1.376 . S
C1913 C1914 1.388 . S
C1914 H1901 0.930 . S
C1914 C1913 1.388 . S
C1914 C1915 1.390 . S
C1915 C1914 1.390 . S
C1915 C1916 1.394 . S
C1915 C1921 1.465 . S
C1916 C1911 1.399 . S
C1916 C1915 1.394 . S
C1916 C1917 1.516 . S
C1917 C1916 1.516 . S
C1917 C1918 1.502 . S
C1917 C1919 1.561 . S
C1917 C1920 1.526 . S
C1918 H1902 0.959 . S
C1918 H1903 0.959 . S
C1918 H1904 0.961 . S
C1918 C1917 1.502 . S
C1919 H1905 0.960 . S
C1919 H1906 0.961 . S
C1919 H1907 0.959 . S
C1919 C1917 1.561 . S
C1920 C1917 1.526 . S
C1920 C1921 1.396 . S
C1920 C1925 1.390 . S
C1921 C1915 1.465 . S
C1921 C1920 1.396 . S
C1921 C1922 1.399 . S
C1922 H1908 0.929 . S
C1922 C1921 1.399 . S
C1922 C1923 1.385 . S
C1923 H1909 0.931 . S
C1923 C1922 1.385 . S
C1923 C1924 1.389 . S
C1924 C1923 1.389 . S
C1924 C1925 1.387 . S
C1925 H1910 0.930 . S
C1925 C1920 1.390 . S
C1925 C1924 1.387 . S
H1926 C1938 0.930 . S
H1927 C1940 0.930 . S
H1928 C1941 0.930 . S
H1929 C1945 0.959 . S
H1930 C1945 0.959 . S
H1931 C1945 0.961 . S
H1932 C1946 0.960 . S
H1933 C1946 0.961 . S
H1934 C1946 0.959 . S
H1935 C1949 0.929 . S
H1936 C1950 0.931 . S
H1937 C1952 0.930 . S
C1938 H1926 0.930 . S
C1938 C1939 1.399 . S
C1938 C1943 1.399 . S
C1939 C1938 1.399 . S
C1939 C1940 1.376 . S
C1940 H1927 0.930 . S
C1940 C1939 1.376 . S
C1940 C1941 1.388 . S
C1941 H1928 0.930 . S
C1941 C1940 1.388 . S
C1941 C1942 1.390 . S
C1942 C1941 1.390 . S
C1942 C1943 1.394 . S
C1942 C1948 1.465 . S
C1943 C1938 1.399 . S
C1943 C1942 1.394 . S
C1943 C1944 1.516 . S
C1944 C1943 1.516 . S
C1944 C1945 1.502 . S
C1944 C1946 1.561 . S
C1944 C1947 1.526 . S
C1945 H1929 0.959 . S
C1945 H1930 0.959 . S
C1945 H1931 0.961 . S
C1945 C1944 1.502 . S
C1946 H1932 0.960 . S
C1946 H1933 0.961 . S
C1946 H1934 0.959 . S
C1946 C1944 1.561 . S
C1947 C1944 1.526 . S
C1947 C1948 1.396 . S
C1947 C1952 1.390 . S
C1948 C1942 1.465 . S
C1948 C1947 1.396 . S
C1948 C1949 1.399 . S
C1949 H1935 0.929 . S
C1949 C1948 1.399 . S
C1949 C1950 1.385 . S
C1950 H1936 0.931 . S
C1950 C1949 1.385 . S
C1950 C1951 1.389 . S
C1951 C1950 1.389 . S
C1951 C1952 1.387 . S
C1952 H1937 0.930 . S
C1952 C1947 1.390 . S
C1952 C1951 1.387 . S
H1953 C1965 0.930 . S
H1954 C1967 0.930 . S
H1955 C1968 0.930 . S
H1956 C1972 0.959 . S
H1957 C1972 0.959 . S
H1958 C1972 0.961 . S
H1959 C1973 0.960 . S
H1960 C1973 0.961 . S
H1961 C1973 0.959 . S
H1962 C1976 0.929 . S
H1963 C1977 0.931 . S
H1964 C1979 0.930 . S
C1965 H1953 0.930 . S
C1965 C1966 1.399 . S
C1965 C1970 1.399 . S
C1966 C1965 1.399 . S
C1966 C1967 1.376 . S
C1967 H1954 0.930 . S
C1967 C1966 1.376 . S
C1967 C1968 1.388 . S
C1968 H1955 0.930 . S
C1968 C1967 1.388 . S
C1968 C1969 1.390 . S
C1969 C1968 1.390 . S
C1969 C1970 1.394 . S
C1969 C1975 1.465 . S
C1970 C1965 1.399 . S
C1970 C1969 1.394 . S
C1970 C1971 1.516 . S
C1971 C1970 1.516 . S
C1971 C1972 1.502 . S
C1971 C1973 1.561 . S
C1971 C1974 1.526 . S
C1972 H1956 0.959 . S
C1972 H1957 0.959 . S
C1972 H1958 0.961 . S
C1972 C1971 1.502 . S
C1973 H1959 0.960 . S
C1973 H1960 0.961 . S
C1973 H1961 0.959 . S
C1973 C1971 1.561 . S
C1974 C1971 1.526 . S
C1974 C1975 1.396 . S
C1974 C1979 1.390 . S
C1975 C1969 1.465 . S
C1975 C1974 1.396 . S
C1975 C1976 1.399 . S
C1976 H1962 0.929 . S
C1976 C1975 1.399 . S
C1976 C1977 1.385 . S
C1977 H1963 0.931 . S
C1977 C1976 1.385 . S
C1977 C1978 1.389 . S
C1978 C1977 1.389 . S
C1978 C1979 1.387 . S
C1979 H1964 0.930 . S
C1979 C1974 1.390 . S
C1979 C1978 1.387 . S
H1980 C1992 0.930 . S
H1981 C1994 0.930 . S
H1982 C1995 0.930 . S
H1983 C1999 0.959 . S
H1984 C1999 0.959 . S
H1985 C1999 0.961 . S
H1986 C2000 0.960 . S
H1987 C2000 0.961 . S
H1988 C2000 0.959 . S
H1989 C2003 0.929 . S
H1990 C2004 0.931 . S
H1991 C2006 0.930 . S
C1992 H1980 0.930 . S
C1992 C1993 1.399 . S
C1992 C1997 1.399 . S
C1993 C1992 1.399 . S
C1993 C1994 1.376 . S
C1994 H1981 0.930 . S
C1994 C1993 1.376 . S
C1994 C1995 1.388 . S
C1995 H1982 0.930 . S
C1995 C1994 1.388 . S
C1995 C1996 1.390 . S
C1996 C1995 1.390 . S
C1996 C1997 1.394 . S
C1996 C2002 1.465 . S
C1997 C1992 1.399 . S
C1997 C1996 1.394 . S
C1997 C1998 1.516 . S
C1998 C1997 1.516 . S
C1998 C1999 1.502 . S
C1998 C2000 1.561 . S
C1998 C2001 1.526 . S
C1999 H1983 0.959 . S
C1999 H1984 0.959 . S
C1999 H1985 0.961 . S
C1999 C1998 1.502 . S
C2000 H1986 0.960 . S
C2000 H1987 0.961 . S
C2000 H1988 0.959 . S
C2000 C1998 1.561 . S
C2001 C1998 1.526 . S
C2001 C2002 1.396 . S
C2001 C2006 1.390 . S
C2002 C1996 1.465 . S
C2002 C2001 1.396 . S
C2002 C2003 1.399 . S
C2003 H1989 0.929 . S
C2003 C2002 1.399 . S
C2003 C2004 1.385 . S
C2004 H1990 0.931 . S
C2004 C2003 1.385 . S
C2004 C2005 1.389 . S
C2005 C2004 1.389 . S
C2005 C2006 1.387 . S
C2006 H1991 0.930 . S
C2006 C2001 1.390 . S
C2006 C2005 1.387 . S
H2007 C2019 0.930 . S
H2008 C2021 0.930 . S
H2009 C2022 0.930 . S
H2010 C2026 0.959 . S
H2011 C2026 0.959 . S
H2012 C2026 0.961 . S
H2013 C2027 0.960 . S
H2014 C2027 0.961 . S
H2015 C2027 0.959 . S
H2016 C2030 0.929 . S
H2017 C2031 0.931 . S
H2018 C2033 0.930 . S
C2019 H2007 0.930 . S
C2019 C2020 1.399 . S
C2019 C2024 1.399 1_545 S
C2020 C2019 1.399 . S
C2020 C2021 1.376 . S
C2021 H2008 0.930 . S
C2021 C2020 1.376 . S
C2021 C2022 1.388 1_545 S
C2022 H2009 0.930 . S
C2022 C2021 1.388 1_565 S
C2022 C2023 1.390 . S
C2023 C2022 1.390 . S
C2023 C2024 1.394 . S
C2023 C2029 1.465 . S
C2024 C2019 1.399 1_565 S
C2024 C2023 1.394 . S
C2024 C2025 1.516 . S
C2025 C2024 1.516 . S
C2025 C2026 1.502 . S
C2025 C2027 1.561 . S
C2025 C2028 1.526 . S
C2026 H2010 0.959 . S
C2026 H2011 0.959 . S
C2026 H2012 0.961 . S
C2026 C2025 1.502 . S
C2027 H2013 0.960 . S
C2027 H2014 0.961 . S
C2027 H2015 0.959 . S
C2027 C2025 1.561 . S
C2028 C2025 1.526 . S
C2028 C2029 1.396 . S
C2028 C2033 1.390 . S
C2029 C2023 1.465 . S
C2029 C2028 1.396 . S
C2029 C2030 1.399 . S
C2030 H2016 0.929 . S
C2030 C2029 1.399 . S
C2030 C2031 1.385 . S
C2031 H2017 0.931 . S
C2031 C2030 1.385 . S
C2031 C2032 1.389 . S
C2032 C2031 1.389 . S
C2032 C2033 1.387 . S
C2033 H2018 0.930 . S
C2033 C2028 1.390 . S
C2033 C2032 1.387 . S
H2034 C2046 0.930 . S
H2035 C2048 0.930 . S
H2036 C2049 0.930 1_655 S
H2037 C2053 0.959 . S
H2038 C2053 0.959 . S
H2039 C2053 0.961 . S
H2040 C2054 0.960 . S
H2041 C2054 0.961 . S
H2042 C2054 0.959 . S
H2043 C2057 0.929 . S
H2044 C2058 0.931 . S
H2045 C2060 0.930 . S
C2046 H2034 0.930 . S
C2046 C2047 1.399 1_455 S
C2046 C2051 1.399 . S
C2047 C2046 1.399 1_655 S
C2047 C2048 1.376 . S
C2048 H2035 0.930 . S
C2048 C2047 1.376 . S
C2048 C2049 1.388 1_655 S
C2049 H2036 0.930 1_455 S
C2049 C2048 1.388 1_455 S
C2049 C2050 1.390 . S
C2050 C2049 1.390 . S
C2050 C2051 1.394 . S
C2050 C2056 1.465 . S
C2051 C2046 1.399 . S
C2051 C2050 1.394 . S
C2051 C2052 1.516 . S
C2052 C2051 1.516 . S
C2052 C2053 1.502 . S
C2052 C2054 1.561 . S
C2052 C2055 1.526 . S
C2053 H2037 0.959 . S
C2053 H2038 0.959 . S
C2053 H2039 0.961 . S
C2053 C2052 1.502 . S
C2054 H2040 0.960 . S
C2054 H2041 0.961 . S
C2054 H2042 0.959 . S
C2054 C2052 1.561 . S
C2055 C2052 1.526 . S
C2055 C2056 1.396 . S
C2055 C2060 1.390 . S
C2056 C2050 1.465 . S
C2056 C2055 1.396 . S
C2056 C2057 1.399 . S
C2057 H2043 0.929 . S
C2057 C2056 1.399 . S
C2057 C2058 1.385 . S
C2058 H2044 0.931 . S
C2058 C2057 1.385 . S
C2058 C2059 1.389 . S
C2059 C2058 1.389 . S
C2059 C2060 1.387 . S
C2060 H2045 0.930 . S
C2060 C2055 1.390 . S
C2060 C2059 1.387 . S
H2061 C2073 0.930 . S
H2062 C2075 0.930 . S
H2063 C2076 0.930 . S
H2064 C2080 0.959 . S
H2065 C2080 0.959 . S
H2066 C2080 0.961 . S
H2067 C2081 0.960 . S
H2068 C2081 0.961 . S
H2069 C2081 0.959 . S
H2070 C2084 0.929 . S
H2071 C2085 0.931 . S
H2072 C2087 0.930 . S
C2073 H2061 0.930 . S
C2073 C2074 1.399 . S
C2073 C2078 1.399 . S
C2074 C2073 1.399 . S
C2074 C2075 1.376 . S
C2075 H2062 0.930 . S
C2075 C2074 1.376 . S
C2075 C2076 1.388 . S
C2076 H2063 0.930 . S
C2076 C2075 1.388 . S
C2076 C2077 1.390 . S
C2077 C2076 1.390 . S
C2077 C2078 1.394 . S
C2077 C2083 1.465 . S
C2078 C2073 1.399 . S
C2078 C2077 1.394 . S
C2078 C2079 1.516 . S
C2079 C2078 1.516 . S
C2079 C2080 1.502 . S
C2079 C2081 1.561 . S
C2079 C2082 1.526 . S
C2080 H2064 0.959 . S
C2080 H2065 0.959 . S
C2080 H2066 0.961 . S
C2080 C2079 1.502 . S
C2081 H2067 0.960 . S
C2081 H2068 0.961 . S
C2081 H2069 0.959 . S
C2081 C2079 1.561 . S
C2082 C2079 1.526 . S
C2082 C2083 1.396 . S
C2082 C2087 1.390 . S
C2083 C2077 1.465 . S
C2083 C2082 1.396 . S
C2083 C2084 1.399 . S
C2084 H2070 0.929 . S
C2084 C2083 1.399 . S
C2084 C2085 1.385 . S
C2085 H2071 0.931 . S
C2085 C2084 1.385 . S
C2085 C2086 1.389 . S
C2086 C2085 1.389 . S
C2086 C2087 1.387 . S
C2087 H2072 0.930 . S
C2087 C2082 1.390 . S
C2087 C2086 1.387 . S
H2088 C2100 0.930 . S
H2089 C2102 0.930 . S
H2090 C2103 0.930 . S
H2091 C2107 0.959 . S
H2092 C2107 0.959 . S
H2093 C2107 0.961 . S
H2094 C2108 0.960 . S
H2095 C2108 0.961 . S
H2096 C2108 0.959 . S
H2097 C2111 0.929 . S
H2098 C2112 0.931 . S
H2099 C2114 0.930 . S
C2100 H2088 0.930 . S
C2100 C2101 1.399 . S
C2100 C2105 1.399 . S
C2101 C2100 1.399 . S
C2101 C2102 1.376 . S
C2102 H2089 0.930 . S
C2102 C2101 1.376 . S
C2102 C2103 1.388 . S
C2103 H2090 0.930 . S
C2103 C2102 1.388 . S
C2103 C2104 1.390 . S
C2104 C2103 1.390 . S
C2104 C2105 1.394 . S
C2104 C2110 1.465 . S
C2105 C2100 1.399 . S
C2105 C2104 1.394 . S
C2105 C2106 1.516 . S
C2106 C2105 1.516 . S
C2106 C2107 1.502 . S
C2106 C2108 1.561 . S
C2106 C2109 1.526 . S
C2107 H2091 0.959 . S
C2107 H2092 0.959 . S
C2107 H2093 0.961 . S
C2107 C2106 1.502 . S
C2108 H2094 0.960 . S
C2108 H2095 0.961 . S
C2108 H2096 0.959 . S
C2108 C2106 1.561 . S
C2109 C2106 1.526 . S
C2109 C2110 1.396 . S
C2109 C2114 1.390 . S
C2110 C2104 1.465 . S
C2110 C2109 1.396 . S
C2110 C2111 1.399 . S
C2111 H2097 0.929 . S
C2111 C2110 1.399 . S
C2111 C2112 1.385 . S
C2112 H2098 0.931 . S
C2112 C2111 1.385 . S
C2112 C2113 1.389 . S
C2113 C2112 1.389 . S
C2113 C2114 1.387 . S
C2114 H2099 0.930 . S
C2114 C2109 1.390 . S
C2114 C2113 1.387 . S
H2115 C2127 0.930 . S
H2116 C2129 0.930 . S
H2117 C2130 0.930 . S
H2118 C2134 0.959 . S
H2119 C2134 0.959 . S
H2120 C2134 0.961 . S
H2121 C2135 0.960 . S
H2122 C2135 0.961 . S
H2123 C2135 0.959 . S
H2124 C2138 0.929 . S
H2125 C2139 0.931 . S
H2126 C2141 0.930 . S
C2127 H2115 0.930 . S
C2127 C2128 1.399 . S
C2127 C2132 1.399 . S
C2128 C2127 1.399 . S
C2128 C2129 1.376 . S
C2129 H2116 0.930 . S
C2129 C2128 1.376 . S
C2129 C2130 1.388 . S
C2130 H2117 0.930 . S
C2130 C2129 1.388 . S
C2130 C2131 1.390 . S
C2131 C2130 1.390 . S
C2131 C2132 1.394 . S
C2131 C2137 1.465 . S
C2132 C2127 1.399 . S
C2132 C2131 1.394 . S
C2132 C2133 1.516 . S
C2133 C2132 1.516 . S
C2133 C2134 1.502 . S
C2133 C2135 1.561 . S
C2133 C2136 1.526 . S
C2134 H2118 0.959 . S
C2134 H2119 0.959 . S
C2134 H2120 0.961 . S
C2134 C2133 1.502 . S
C2135 H2121 0.960 . S
C2135 H2122 0.961 . S
C2135 H2123 0.959 . S
C2135 C2133 1.561 . S
C2136 C2133 1.526 . S
C2136 C2137 1.396 . S
C2136 C2141 1.390 . S
C2137 C2131 1.465 . S
C2137 C2136 1.396 . S
C2137 C2138 1.399 . S
C2138 H2124 0.929 . S
C2138 C2137 1.399 . S
C2138 C2139 1.385 . S
C2139 H2125 0.931 . S
C2139 C2138 1.385 . S
C2139 C2140 1.389 . S
C2140 C2139 1.389 . S
C2140 C2141 1.387 . S
C2141 H2126 0.930 . S
C2141 C2136 1.390 . S
C2141 C2140 1.387 . S
H2142 C2154 0.930 . S
H2143 C2156 0.930 . S
H2144 C2157 0.930 . S
H2145 C2161 0.959 . S
H2146 C2161 0.959 . S
H2147 C2161 0.961 . S
H2148 C2162 0.960 . S
H2149 C2162 0.961 . S
H2150 C2162 0.959 . S
H2151 C2165 0.929 . S
H2152 C2166 0.931 . S
H2153 C2168 0.930 . S
C2154 H2142 0.930 . S
C2154 C2155 1.399 . S
C2154 C2159 1.399 . S
C2155 C2154 1.399 . S
C2155 C2156 1.376 . S
C2156 H2143 0.930 . S
C2156 C2155 1.376 . S
C2156 C2157 1.388 . S
C2157 H2144 0.930 . S
C2157 C2156 1.388 . S
C2157 C2158 1.390 . S
C2158 C2157 1.390 . S
C2158 C2159 1.394 . S
C2158 C2164 1.465 . S
C2159 C2154 1.399 . S
C2159 C2158 1.394 . S
C2159 C2160 1.516 . S
C2160 C2159 1.516 . S
C2160 C2161 1.502 . S
C2160 C2162 1.561 . S
C2160 C2163 1.526 . S
C2161 H2145 0.959 . S
C2161 H2146 0.959 . S
C2161 H2147 0.961 . S
C2161 C2160 1.502 . S
C2162 H2148 0.960 . S
C2162 H2149 0.961 . S
C2162 H2150 0.959 . S
C2162 C2160 1.561 . S
C2163 C2160 1.526 . S
C2163 C2164 1.396 . S
C2163 C2168 1.390 . S
C2164 C2158 1.465 . S
C2164 C2163 1.396 . S
C2164 C2165 1.399 . S
C2165 H2151 0.929 . S
C2165 C2164 1.399 . S
C2165 C2166 1.385 . S
C2166 H2152 0.931 . S
C2166 C2165 1.385 . S
C2166 C2167 1.389 . S
C2167 C2166 1.389 . S
C2167 C2168 1.387 . S
C2168 H2153 0.930 . S
C2168 C2163 1.390 . S
C2168 C2167 1.387 . S
H2169 C2181 0.930 . S
H2170 C2183 0.930 . S
H2171 C2184 0.892 1_545 S
H2172 C2188 0.959 . S
H2173 C2188 0.959 . S
H2174 C2188 0.961 . S
H2175 C2189 0.960 . S
H2176 C2189 0.961 . S
H2177 C2189 0.959 . S
H2178 C2192 0.929 . S
H2179 C2193 0.931 . S
H2180 C2195 0.930 . S
C2181 H2169 0.930 . S
C2181 C2182 1.399 . S
C2181 C2186 1.399 1_565 S
C2182 C2181 1.399 . S
C2182 C2183 1.376 . S
C2183 H2170 0.930 . S
C2183 C2182 1.376 . S
C2183 C2184 1.435 . S
C2184 H2171 0.892 1_565 S
C2184 C2183 1.435 . S
C2184 C2185 1.384 1_565 S
C2185 C2184 1.384 1_545 S
C2185 C2186 1.394 . S
C2185 C2191 1.465 . S
C2186 C2181 1.399 1_545 S
C2186 C2185 1.394 . S
C2186 C2187 1.516 . S
C2187 C2186 1.516 . S
C2187 C2188 1.502 . S
C2187 C2189 1.561 . S
C2187 C2190 1.526 . S
C2188 H2172 0.959 . S
C2188 H2173 0.959 . S
C2188 H2174 0.961 . S
C2188 C2187 1.502 . S
C2189 H2175 0.960 . S
C2189 H2176 0.961 . S
C2189 H2177 0.959 . S
C2189 C2187 1.561 . S
C2190 C2187 1.526 . S
C2190 C2191 1.396 . S
C2190 C2195 1.390 . S
C2191 C2185 1.465 . S
C2191 C2190 1.396 . S
C2191 C2192 1.399 . S
C2192 H2178 0.929 . S
C2192 C2191 1.399 . S
C2192 C2193 1.385 . S
C2193 H2179 0.931 . S
C2193 C2192 1.385 . S
C2193 C2194 1.389 . S
C2194 C2193 1.389 . S
C2194 C2195 1.387 . S
C2195 H2180 0.930 . S
C2195 C2190 1.390 . S
C2195 C2194 1.387 . S
H2196 C2208 0.929 . S
H2197 C2210 0.930 1_455 S
H2198 C2211 0.930 . S
H2199 C2215 0.959 . S
H2200 C2215 0.959 . S
H2201 C2215 0.961 . S
H2202 C2216 0.960 . S
H2203 C2216 0.961 . S
H2204 C2216 0.959 . S
H2205 C2219 0.929 . S
H2206 C2220 0.931 . S
H2207 C2222 0.930 . S
C2208 H2196 0.929 . S
C2208 C2209 1.399 . S
C2208 C2213 1.400 1_455 S
C2209 C2208 1.399 . S
C2209 C2210 1.376 1_455 S
C2210 H2197 0.930 1_655 S
C2210 C2209 1.376 1_655 S
C2210 C2211 1.388 . S
C2211 H2198 0.930 . S
C2211 C2210 1.388 . S
C2211 C2212 1.390 . S
C2212 C2211 1.390 . S
C2212 C2213 1.394 . S
C2212 C2218 1.465 . S
C2213 C2208 1.400 1_655 S
C2213 C2212 1.394 . S
C2213 C2214 1.516 . S
C2214 C2213 1.516 . S
C2214 C2215 1.502 . S
C2214 C2216 1.561 . S
C2214 C2217 1.526 . S
C2215 H2199 0.959 . S
C2215 H2200 0.959 . S
C2215 H2201 0.961 . S
C2215 C2214 1.502 . S
C2216 H2202 0.960 . S
C2216 H2203 0.961 . S
C2216 H2204 0.959 . S
C2216 C2214 1.561 . S
C2217 C2214 1.526 . S
C2217 C2218 1.396 . S
C2217 C2222 1.390 . S
C2218 C2212 1.465 . S
C2218 C2217 1.396 . S
C2218 C2219 1.399 . S
C2219 H2205 0.929 . S
C2219 C2218 1.399 . S
C2219 C2220 1.385 . S
C2220 H2206 0.931 . S
C2220 C2219 1.385 . S
C2220 C2221 1.389 . S
C2221 C2220 1.389 . S
C2221 C2222 1.387 . S
C2222 H2207 0.930 . S
C2222 C2217 1.390 . S
C2222 C2221 1.387 . S
H2223 C2235 0.930 . S
H2224 C2237 0.930 . S
H2225 C2238 0.930 . S
H2226 C2242 0.959 . S
H2227 C2242 0.959 . S
H2228 C2242 0.961 . S
H2229 C2243 0.960 . S
H2230 C2243 0.961 . S
H2231 C2243 0.959 . S
H2232 C2246 0.929 . S
H2233 C2247 0.931 . S
H2234 C2249 0.930 . S
C2235 H2223 0.930 . S
C2235 C2236 1.399 . S
C2235 C2240 1.399 . S
C2236 C2235 1.399 . S
C2236 C2237 1.376 . S
C2237 H2224 0.930 . S
C2237 C2236 1.376 . S
C2237 C2238 1.388 . S
C2238 H2225 0.930 . S
C2238 C2237 1.388 . S
C2238 C2239 1.390 . S
C2239 C2238 1.390 . S
C2239 C2240 1.394 . S
C2239 C2245 1.465 . S
C2240 C2235 1.399 . S
C2240 C2239 1.394 . S
C2240 C2241 1.516 . S
C2241 C2240 1.516 . S
C2241 C2242 1.502 . S
C2241 C2243 1.561 . S
C2241 C2244 1.526 . S
C2242 H2226 0.959 . S
C2242 H2227 0.959 . S
C2242 H2228 0.961 . S
C2242 C2241 1.502 . S
C2243 H2229 0.960 . S
C2243 H2230 0.961 . S
C2243 H2231 0.959 . S
C2243 C2241 1.561 . S
C2244 C2241 1.526 . S
C2244 C2245 1.396 . S
C2244 C2249 1.390 . S
C2245 C2239 1.465 . S
C2245 C2244 1.396 . S
C2245 C2246 1.399 . S
C2246 H2232 0.929 . S
C2246 C2245 1.399 . S
C2246 C2247 1.385 . S
C2247 H2233 0.931 . S
C2247 C2246 1.385 . S
C2247 C2248 1.389 . S
C2248 C2247 1.389 . S
C2248 C2249 1.387 . S
C2249 H2234 0.930 . S
C2249 C2244 1.390 . S
C2249 C2248 1.387 . S
H2250 C2262 0.930 . S
H2251 C2264 0.930 . S
H2252 C2265 0.930 . S
H2253 C2269 0.959 . S
H2254 C2269 0.959 . S
H2255 C2269 0.961 . S
H2256 C2270 0.960 1_455 S
H2257 C2270 0.961 . S
H2258 C2270 0.959 . S
H2259 C2273 0.929 . S
H2260 C2274 0.931 . S
H2261 C2276 0.930 . S
C2262 H2250 0.930 . S
C2262 C2263 1.399 . S
C2262 C2267 1.399 1_455 S
C2263 C2262 1.399 . S
C2263 C2264 1.376 . S
C2264 H2251 0.930 . S
C2264 C2263 1.376 . S
C2264 C2265 1.388 1_455 S
C2265 H2252 0.930 . S
C2265 C2264 1.388 1_655 S
C2265 C2266 1.390 . S
C2266 C2265 1.390 . S
C2266 C2267 1.394 . S
C2266 C2272 1.465 . S
C2267 C2262 1.399 1_655 S
C2267 C2266 1.394 . S
C2267 C2268 1.516 . S
C2268 C2267 1.516 . S
C2268 C2269 1.502 . S
C2268 C2270 1.561 . S
C2268 C2271 1.526 . S
C2269 H2253 0.959 . S
C2269 H2254 0.959 . S
C2269 H2255 0.961 . S
C2269 C2268 1.502 . S
C2270 H2256 0.960 1_655 S
C2270 H2257 0.961 . S
C2270 H2258 0.959 . S
C2270 C2268 1.561 . S
C2271 C2268 1.526 . S
C2271 C2272 1.396 . S
C2271 C2276 1.390 . S
C2272 C2266 1.465 . S
C2272 C2271 1.396 . S
C2272 C2273 1.399 . S
C2273 H2259 0.929 . S
C2273 C2272 1.399 . S
C2273 C2274 1.385 . S
C2274 H2260 0.931 . S
C2274 C2273 1.385 . S
C2274 C2275 1.389 . S
C2275 C2274 1.389 . S
C2275 C2276 1.387 . S
C2276 H2261 0.930 . S
C2276 C2271 1.390 . S
C2276 C2275 1.387 . S
H2277 C2289 0.930 . S
H2278 C2291 0.930 . S
H2279 C2292 0.930 . S
H2280 C2296 0.959 . S
H2281 C2296 0.959 . S
H2282 C2296 0.961 . S
H2283 C2297 0.960 . S
H2284 C2297 0.961 . S
H2285 C2297 0.959 . S
H2286 C2300 0.929 . S
H2287 C2301 0.931 . S
H2288 C2303 0.930 . S
C2289 H2277 0.930 . S
C2289 C2290 1.399 . S
C2289 C2294 1.399 . S
C2290 C2289 1.399 . S
C2290 C2291 1.376 . S
C2291 H2278 0.930 . S
C2291 C2290 1.376 . S
C2291 C2292 1.388 . S
C2292 H2279 0.930 . S
C2292 C2291 1.388 . S
C2292 C2293 1.390 . S
C2293 C2292 1.390 . S
C2293 C2294 1.394 . S
C2293 C2299 1.465 . S
C2294 C2289 1.399 . S
C2294 C2293 1.394 . S
C2294 C2295 1.516 . S
C2295 C2294 1.516 . S
C2295 C2296 1.502 . S
C2295 C2297 1.561 . S
C2295 C2298 1.526 . S
C2296 H2280 0.959 . S
C2296 H2281 0.959 . S
C2296 H2282 0.961 . S
C2296 C2295 1.502 . S
C2297 H2283 0.960 . S
C2297 H2284 0.961 . S
C2297 H2285 0.959 . S
C2297 C2295 1.561 . S
C2298 C2295 1.526 . S
C2298 C2299 1.396 . S
C2298 C2303 1.390 . S
C2299 C2293 1.465 . S
C2299 C2298 1.396 . S
C2299 C2300 1.399 . S
C2300 H2286 0.929 . S
C2300 C2299 1.399 . S
C2300 C2301 1.385 . S
C2301 H2287 0.931 . S
C2301 C2300 1.385 . S
C2301 C2302 1.389 . S
C2302 C2301 1.389 . S
C2302 C2303 1.387 . S
C2303 H2288 0.930 . S
C2303 C2298 1.390 . S
C2303 C2302 1.387 . S
H2304 C2316 0.930 . S
H2305 C2318 0.930 . S
H2306 C2319 0.930 . S
H2307 C2323 0.959 . S
H2308 C2323 0.959 . S
H2309 C2323 0.961 . S
H2310 C2324 0.960 . S
H2311 C2324 0.961 . S
H2312 C2324 0.959 . S
H2313 C2327 0.929 . S
H2314 C2328 0.931 . S
H2315 C2330 0.930 . S
C2316 H2304 0.930 . S
C2316 C2317 1.399 . S
C2316 C2321 1.399 1_565 S
C2317 C2316 1.399 . S
C2317 C2318 1.376 . S
C2318 H2305 0.930 . S
C2318 C2317 1.376 . S
C2318 C2319 1.388 . S
C2319 H2306 0.930 . S
C2319 C2318 1.388 . S
C2319 C2320 1.390 1_565 S
C2320 C2319 1.390 1_545 S
C2320 C2321 1.394 . S
C2320 C2326 1.465 . S
C2321 C2316 1.399 1_545 S
C2321 C2320 1.394 . S
C2321 C2322 1.516 . S
C2322 C2321 1.516 . S
C2322 C2323 1.502 . S
C2322 C2324 1.561 . S
C2322 C2325 1.526 . S
C2323 H2307 0.959 . S
C2323 H2308 0.959 . S
C2323 H2309 0.961 . S
C2323 C2322 1.502 . S
C2324 H2310 0.960 . S
C2324 H2311 0.961 . S
C2324 H2312 0.959 . S
C2324 C2322 1.561 . S
C2325 C2322 1.526 . S
C2325 C2326 1.396 . S
C2325 C2330 1.390 . S
C2326 C2320 1.465 . S
C2326 C2325 1.396 . S
C2326 C2327 1.399 . S
C2327 H2313 0.929 . S
C2327 C2326 1.399 . S
C2327 C2328 1.385 . S
C2328 H2314 0.931 . S
C2328 C2327 1.385 . S
C2328 C2329 1.389 . S
C2329 C2328 1.389 . S
C2329 C2330 1.387 . S
C2330 H2315 0.930 . S
C2330 C2325 1.390 . S
C2330 C2329 1.387 . S
H2331 C2343 0.930 . S
H2332 C2345 0.930 . S
H2333 C2346 0.930 . S
H2334 C2350 0.959 . S
H2335 C2350 0.959 . S
H2336 C2350 0.961 . S
H2337 C2351 0.960 . S
H2338 C2351 0.961 . S
H2339 C2351 0.959 . S
H2340 C2354 0.929 . S
H2341 C2355 0.931 . S
H2342 C2357 0.930 . S
C2343 H2331 0.930 . S
C2343 C2344 1.399 . S
C2343 C2348 1.399 . S
C2344 C2343 1.399 . S
C2344 C2345 1.376 . S
C2345 H2332 0.930 . S
C2345 C2344 1.376 . S
C2345 C2346 1.388 . S
C2346 H2333 0.930 . S
C2346 C2345 1.388 . S
C2346 C2347 1.390 . S
C2347 C2346 1.390 . S
C2347 C2348 1.394 . S
C2347 C2353 1.465 . S
C2348 C2343 1.399 . S
C2348 C2347 1.394 . S
C2348 C2349 1.516 . S
C2349 C2348 1.516 . S
C2349 C2350 1.502 . S
C2349 C2351 1.561 . S
C2349 C2352 1.526 . S
C2350 H2334 0.959 . S
C2350 H2335 0.959 . S
C2350 H2336 0.961 . S
C2350 C2349 1.502 . S
C2351 H2337 0.960 . S
C2351 H2338 0.961 . S
C2351 H2339 0.959 . S
C2351 C2349 1.561 . S
C2352 C2349 1.526 . S
C2352 C2353 1.396 . S
C2352 C2357 1.390 . S
C2353 C2347 1.465 . S
C2353 C2352 1.396 . S
C2353 C2354 1.399 . S
C2354 H2340 0.929 . S
C2354 C2353 1.399 . S
C2354 C2355 1.385 . S
C2355 H2341 0.931 . S
C2355 C2354 1.385 . S
C2355 C2356 1.389 . S
C2356 C2355 1.389 . S
C2356 C2357 1.387 . S
C2357 H2342 0.930 . S
C2357 C2352 1.390 . S
C2357 C2356 1.387 . S
H2358 C2370 0.930 . S
H2359 C2372 0.930 . S
H2360 C2373 0.930 . S
H2361 C2377 0.959 . S
H2362 C2377 0.959 . S
H2363 C2377 0.961 . S
H2364 C2378 0.960 . S
H2365 C2378 0.961 . S
H2366 C2378 0.959 . S
H2367 C2381 0.929 . S
H2368 C2382 0.931 . S
H2369 C2384 0.930 . S
C2370 H2358 0.930 . S
C2370 C2371 1.399 . S
C2370 C2375 1.399 . S
C2371 C2370 1.399 . S
C2371 C2372 1.376 . S
C2372 H2359 0.930 . S
C2372 C2371 1.376 . S
C2372 C2373 1.388 . S
C2373 H2360 0.930 . S
C2373 C2372 1.388 . S
C2373 C2374 1.390 . S
C2374 C2373 1.390 . S
C2374 C2375 1.394 . S
C2374 C2380 1.465 . S
C2375 C2370 1.399 . S
C2375 C2374 1.394 . S
C2375 C2376 1.516 . S
C2376 C2375 1.516 . S
C2376 C2377 1.502 . S
C2376 C2378 1.561 . S
C2376 C2379 1.526 . S
C2377 H2361 0.959 . S
C2377 H2362 0.959 . S
C2377 H2363 0.961 . S
C2377 C2376 1.502 . S
C2378 H2364 0.960 . S
C2378 H2365 0.961 . S
C2378 H2366 0.959 . S
C2378 C2376 1.561 . S
C2379 C2376 1.526 . S
C2379 C2380 1.396 . S
C2379 C2384 1.390 . S
C2380 C2374 1.465 . S
C2380 C2379 1.396 . S
C2380 C2381 1.399 . S
C2381 H2367 0.929 . S
C2381 C2380 1.399 . S
C2381 C2382 1.385 . S
C2382 H2368 0.931 . S
C2382 C2381 1.385 . S
C2382 C2383 1.389 . S
C2383 C2382 1.389 . S
C2383 C2384 1.387 . S
C2384 H2369 0.930 . S
C2384 C2379 1.390 . S
C2384 C2383 1.387 . S
H2385 C2397 0.930 . S
H2386 C2399 0.930 . S
H2387 C2400 0.930 . S
H2388 C2404 0.959 . S
H2389 C2404 0.959 . S
H2390 C2404 0.961 . S
H2391 C2405 0.960 . S
H2392 C2405 0.961 . S
H2393 C2405 0.959 . S
H2394 C2408 0.929 . S
H2395 C2409 0.931 . S
H2396 C2411 0.930 . S
C2397 H2385 0.930 . S
C2397 C2398 1.399 . S
C2397 C2402 1.399 . S
C2398 C2397 1.399 . S
C2398 C2399 1.376 . S
C2399 H2386 0.930 . S
C2399 C2398 1.376 . S
C2399 C2400 1.388 . S
C2400 H2387 0.930 . S
C2400 C2399 1.388 . S
C2400 C2401 1.390 . S
C2401 C2400 1.390 . S
C2401 C2402 1.394 . S
C2401 C2407 1.465 . S
C2402 C2397 1.399 . S
C2402 C2401 1.394 . S
C2402 C2403 1.516 . S
C2403 C2402 1.516 . S
C2403 C2404 1.502 . S
C2403 C2405 1.561 . S
C2403 C2406 1.526 . S
C2404 H2388 0.959 . S
C2404 H2389 0.959 . S
C2404 H2390 0.961 . S
C2404 C2403 1.502 . S
C2405 H2391 0.960 . S
C2405 H2392 0.961 . S
C2405 H2393 0.959 . S
C2405 C2403 1.561 . S
C2406 C2403 1.526 . S
C2406 C2407 1.396 . S
C2406 C2411 1.390 . S
C2407 C2401 1.465 . S
C2407 C2406 1.396 . S
C2407 C2408 1.399 . S
C2408 H2394 0.929 . S
C2408 C2407 1.399 . S
C2408 C2409 1.385 . S
C2409 H2395 0.931 . S
C2409 C2408 1.385 . S
C2409 C2410 1.389 . S
C2410 C2409 1.389 . S
C2410 C2411 1.387 . S
C2411 H2396 0.930 . S
C2411 C2406 1.390 . S
C2411 C2410 1.387 . S
H2412 C2424 0.930 . S
H2413 C2426 0.930 . S
H2414 C2427 0.930 . S
H2415 C2431 0.959 . S
H2416 C2431 0.959 1_545 S
H2417 C2431 0.961 1_545 S
H2418 C2432 0.960 . S
H2419 C2432 0.961 . S
H2420 C2432 0.959 . S
H2421 C2435 0.929 . S
H2422 C2436 0.931 . S
H2423 C2438 0.930 1_545 S
C2424 H2412 0.930 . S
C2424 C2425 1.399 . S
C2424 C2429 1.399 . S
C2425 C2424 1.399 . S
C2425 C2426 1.376 . S
C2426 H2413 0.930 . S
C2426 C2425 1.376 . S
C2426 C2427 1.388 . S
C2427 H2414 0.930 . S
C2427 C2426 1.388 . S
C2427 C2428 1.390 . S
C2428 C2427 1.390 . S
C2428 C2429 1.394 . S
C2428 C2434 1.465 . S
C2429 C2424 1.399 . S
C2429 C2428 1.394 . S
C2429 C2430 1.552 . S
C2430 C2429 1.552 . S
C2430 C2431 1.481 . S
C2430 C2432 1.532 1_565 S
C2430 C2433 1.544 . S
C2431 H2415 0.959 . S
C2431 H2416 0.959 1_565 S
C2431 H2417 0.961 1_565 S
C2431 C2430 1.481 . S
C2432 H2418 0.960 . S
C2432 H2419 0.961 . S
C2432 H2420 0.959 . S
C2432 C2430 1.532 1_545 S
C2433 C2430 1.544 . S
C2433 C2434 1.396 . S
C2433 C2438 1.390 . S
C2434 C2428 1.465 . S
C2434 C2433 1.396 . S
C2434 C2435 1.399 . S
C2435 H2421 0.929 . S
C2435 C2434 1.399 . S
C2435 C2436 1.385 . S
C2436 H2422 0.931 . S
C2436 C2435 1.385 . S
C2436 C2437 1.389 . S
C2437 C2436 1.389 . S
C2437 C2438 1.387 . S
C2438 H2423 0.930 1_565 S
C2438 C2433 1.390 . S
C2438 C2437 1.387 . S
H2439 C2451 0.930 . S
H2440 C2453 0.930 . S
H2441 C2454 0.930 . S
H2442 C2458 0.959 . S
H2443 C2458 0.959 . S
H2444 C2458 0.961 . S
H2445 C2459 0.960 . S
H2446 C2459 0.961 . S
H2447 C2459 0.959 . S
H2448 C2462 0.929 . S
H2449 C2463 0.931 . S
H2450 C2465 0.930 . S
C2451 H2439 0.930 . S
C2451 C2452 1.399 . S
C2451 C2456 1.399 . S
C2452 C2451 1.399 . S
C2452 C2453 1.376 . S
C2453 H2440 0.930 . S
C2453 C2452 1.376 . S
C2453 C2454 1.388 . S
C2454 H2441 0.930 . S
C2454 C2453 1.388 . S
C2454 C2455 1.390 . S
C2455 C2454 1.390 . S
C2455 C2456 1.394 . S
C2455 C2461 1.465 . S
C2456 C2451 1.399 . S
C2456 C2455 1.394 . S
C2456 C2457 1.516 . S
C2457 C2456 1.516 . S
C2457 C2458 1.502 1_455 S
C2457 C2459 1.561 . S
C2457 C2460 1.526 . S
C2458 H2442 0.959 . S
C2458 H2443 0.959 . S
C2458 H2444 0.961 . S
C2458 C2457 1.502 1_655 S
C2459 H2445 0.960 . S
C2459 H2446 0.961 . S
C2459 H2447 0.959 . S
C2459 C2457 1.561 . S
C2460 C2457 1.526 . S
C2460 C2461 1.396 . S
C2460 C2465 1.390 . S
C2461 C2455 1.465 . S
C2461 C2460 1.396 . S
C2461 C2462 1.399 . S
C2462 H2448 0.929 . S
C2462 C2461 1.399 . S
C2462 C2463 1.385 . S
C2463 H2449 0.931 . S
C2463 C2462 1.385 . S
C2463 C2464 1.389 . S
C2464 C2463 1.389 . S
C2464 C2465 1.387 . S
C2465 H2450 0.930 . S
C2465 C2460 1.390 . S
C2465 C2464 1.387 . S
H2466 C2478 0.930 . S
H2467 C2480 0.930 . S
H2468 C2481 0.930 . S
H2469 C2485 0.959 . S
H2470 C2485 0.959 . S
H2471 C2485 0.961 . S
H2472 C2486 0.960 . S
H2473 C2486 0.961 . S
H2474 C2486 0.959 . S
H2475 C2489 0.929 . S
H2476 C2490 0.931 . S
H2477 C2492 0.930 . S
C2478 H2466 0.930 . S
C2478 C2479 1.399 . S
C2478 C2483 1.399 . S
C2479 C2478 1.399 . S
C2479 C2480 1.376 . S
C2480 H2467 0.930 . S
C2480 C2479 1.376 . S
C2480 C2481 1.388 . S
C2481 H2468 0.930 . S
C2481 C2480 1.388 . S
C2481 C2482 1.390 . S
C2482 C2481 1.390 . S
C2482 C2483 1.394 . S
C2482 C2488 1.465 . S
C2483 C2478 1.399 . S
C2483 C2482 1.394 . S
C2483 C2484 1.516 . S
C2484 C2483 1.516 . S
C2484 C2485 1.502 . S
C2484 C2486 1.561 . S
C2484 C2487 1.526 . S
C2485 H2469 0.959 . S
C2485 H2470 0.959 . S
C2485 H2471 0.961 . S
C2485 C2484 1.502 . S
C2486 H2472 0.960 . S
C2486 H2473 0.961 . S
C2486 H2474 0.959 . S
C2486 C2484 1.561 . S
C2487 C2484 1.526 . S
C2487 C2488 1.396 . S
C2487 C2492 1.390 . S
C2488 C2482 1.465 . S
C2488 C2487 1.396 . S
C2488 C2489 1.399 . S
C2489 H2475 0.929 . S
C2489 C2488 1.399 . S
C2489 C2490 1.385 . S
C2490 H2476 0.931 . S
C2490 C2489 1.385 . S
C2490 C2491 1.389 . S
C2491 C2490 1.389 . S
C2491 C2492 1.387 . S
C2492 H2477 0.930 . S
C2492 C2487 1.390 . S
C2492 C2491 1.387 . S
H2493 C2505 0.930 . S
H2494 C2507 0.930 . S
H2495 C2508 0.930 . S
H2496 C2512 0.959 . S
H2497 C2512 0.959 . S
H2498 C2512 0.961 . S
H2499 C2513 0.960 . S
H2500 C2513 0.961 . S
H2501 C2513 0.959 . S
H2502 C2516 0.929 . S
H2503 C2517 0.931 . S
H2504 C2519 0.930 1_455 S
C2505 H2493 0.930 . S
C2505 C2506 1.399 1_455 S
C2505 C2510 1.399 1_455 S
C2506 C2505 1.399 1_655 S
C2506 C2507 1.376 . S
C2507 H2494 0.930 . S
C2507 C2506 1.376 . S
C2507 C2508 1.388 . S
C2508 H2495 0.930 . S
C2508 C2507 1.388 . S
C2508 C2509 1.390 . S
C2509 C2508 1.390 . S
C2509 C2510 1.394 . S
C2509 C2515 1.465 . S
C2510 C2505 1.399 1_655 S
C2510 C2509 1.394 . S
C2510 C2511 1.516 1_655 S
C2511 C2510 1.516 1_455 S
C2511 C2512 1.502 . S
C2511 C2513 1.561 1_455 S
C2511 C2514 1.526 1_455 S
C2512 H2496 0.959 . S
C2512 H2497 0.959 . S
C2512 H2498 0.961 . S
C2512 C2511 1.502 . S
C2513 H2499 0.960 . S
C2513 H2500 0.961 . S
C2513 H2501 0.959 . S
C2513 C2511 1.561 1_655 S
C2514 C2511 1.526 1_655 S
C2514 C2515 1.396 . S
C2514 C2519 1.390 . S
C2515 C2509 1.465 . S
C2515 C2514 1.396 . S
C2515 C2516 1.399 . S
C2516 H2502 0.929 . S
C2516 C2515 1.399 . S
C2516 C2517 1.385 . S
C2517 H2503 0.931 . S
C2517 C2516 1.385 . S
C2517 C2518 1.389 . S
C2518 C2517 1.389 . S
C2518 C2519 1.387 . S
C2519 H2504 0.930 1_655 S
C2519 C2514 1.390 . S
C2519 C2518 1.387 . S
H2520 C2532 0.930 . S
H2521 C2534 0.930 . S
H2522 C2535 0.930 . S
H2523 C2539 0.959 . S
H2524 C2539 0.959 . S
H2525 C2539 0.961 . S
H2526 C2540 0.960 . S
H2527 C2540 0.961 . S
H2528 C2540 0.959 . S
H2529 C2543 0.929 . S
H2530 C2544 0.931 . S
H2531 C2546 0.930 . S
C2532 H2520 0.930 . S
C2532 C2533 1.399 . S
C2532 C2537 1.399 . S
C2533 C2532 1.399 . S
C2533 C2534 1.376 . S
C2534 H2521 0.930 . S
C2534 C2533 1.376 . S
C2534 C2535 1.388 . S
C2535 H2522 0.930 . S
C2535 C2534 1.388 . S
C2535 C2536 1.390 . S
C2536 C2535 1.390 . S
C2536 C2537 1.394 . S
C2536 C2542 1.465 . S
C2537 C2532 1.399 . S
C2537 C2536 1.394 . S
C2537 C2538 1.516 . S
C2538 C2537 1.516 . S
C2538 C2539 1.502 . S
C2538 C2540 1.561 . S
C2538 C2541 1.526 . S
C2539 H2523 0.959 . S
C2539 H2524 0.959 . S
C2539 H2525 0.961 . S
C2539 C2538 1.502 . S
C2540 H2526 0.960 . S
C2540 H2527 0.961 . S
C2540 H2528 0.959 . S
C2540 C2538 1.561 . S
C2541 C2538 1.526 . S
C2541 C2542 1.396 . S
C2541 C2546 1.390 . S
C2542 C2536 1.465 . S
C2542 C2541 1.396 . S
C2542 C2543 1.399 . S
C2543 H2529 0.929 . S
C2543 C2542 1.399 . S
C2543 C2544 1.385 . S
C2544 H2530 0.931 . S
C2544 C2543 1.385 . S
C2544 C2545 1.389 . S
C2545 C2544 1.389 . S
C2545 C2546 1.387 . S
C2546 H2531 0.930 . S
C2546 C2541 1.390 . S
C2546 C2545 1.387 . S
H2547 C2559 0.930 . S
H2548 C2561 0.930 . S
H2549 C2562 0.930 . S
H2550 C2566 0.959 1_545 S
H2551 C2566 0.959 . S
H2552 C2566 0.961 . S
H2553 C2567 0.960 . S
H2554 C2567 0.961 . S
H2555 C2567 0.959 . S
H2556 C2570 0.929 . S
H2557 C2571 0.931 . S
H2558 C2573 0.930 . S
C2559 H2547 0.930 . S
C2559 C2560 1.399 . S
C2559 C2564 1.399 . S
C2560 C2559 1.399 . S
C2560 C2561 1.376 . S
C2561 H2548 0.930 . S
C2561 C2560 1.376 . S
C2561 C2562 1.388 . S
C2562 H2549 0.930 . S
C2562 C2561 1.388 . S
C2562 C2563 1.390 . S
C2563 C2562 1.390 . S
C2563 C2564 1.394 . S
C2563 C2569 1.465 . S
C2564 C2559 1.399 . S
C2564 C2563 1.394 . S
C2564 C2565 1.516 1_545 S
C2565 C2564 1.516 1_565 S
C2565 C2566 1.502 . S
C2565 C2567 1.561 . S
C2565 C2568 1.526 1_565 S
C2566 H2550 0.959 1_565 S
C2566 H2551 0.959 . S
C2566 H2552 0.961 . S
C2566 C2565 1.502 . S
C2567 H2553 0.960 . S
C2567 H2554 0.961 . S
C2567 H2555 0.959 . S
C2567 C2565 1.561 . S
C2568 C2565 1.526 1_545 S
C2568 C2569 1.396 . S
C2568 C2573 1.390 1_545 S
C2569 C2563 1.465 . S
C2569 C2568 1.396 . S
C2569 C2570 1.399 . S
C2570 H2556 0.929 . S
C2570 C2569 1.399 . S
C2570 C2571 1.385 . S
C2571 H2557 0.931 . S
C2571 C2570 1.385 . S
C2571 C2572 1.389 . S
C2572 C2571 1.389 . S
C2572 C2573 1.387 1_545 S
C2573 H2558 0.930 . S
C2573 C2568 1.390 1_565 S
C2573 C2572 1.387 1_565 S
H2574 C2586 0.930 . S
H2575 C2588 0.930 . S
H2576 C2589 0.930 . S
H2577 C2593 0.959 . S
H2578 C2593 0.959 . S
H2579 C2593 0.961 . S
H2580 C2594 0.960 . S
H2581 C2594 0.961 . S
H2582 C2594 0.959 . S
H2583 C2597 0.929 . S
H2584 C2598 0.931 . S
H2585 C2600 0.930 . S
C2586 H2574 0.930 . S
C2586 C2587 1.399 . S
C2586 C2591 1.399 . S
C2587 C2586 1.399 . S
C2587 C2588 1.376 . S
C2588 H2575 0.930 . S
C2588 C2587 1.376 . S
C2588 C2589 1.388 . S
C2589 H2576 0.930 . S
C2589 C2588 1.388 . S
C2589 C2590 1.390 . S
C2590 C2589 1.390 . S
C2590 C2591 1.394 . S
C2590 C2596 1.465 . S
C2591 C2586 1.399 . S
C2591 C2590 1.394 . S
C2591 C2592 1.516 . S
C2592 C2591 1.516 . S
C2592 C2593 1.502 . S
C2592 C2594 1.561 . S
C2592 C2595 1.526 . S
C2593 H2577 0.959 . S
C2593 H2578 0.959 . S
C2593 H2579 0.961 . S
C2593 C2592 1.502 . S
C2594 H2580 0.960 . S
C2594 H2581 0.961 . S
C2594 H2582 0.959 . S
C2594 C2592 1.561 . S
C2595 C2592 1.526 . S
C2595 C2596 1.396 . S
C2595 C2600 1.390 . S
C2596 C2590 1.465 . S
C2596 C2595 1.396 . S
C2596 C2597 1.399 . S
C2597 H2583 0.929 . S
C2597 C2596 1.399 . S
C2597 C2598 1.385 . S
C2598 H2584 0.931 . S
C2598 C2597 1.385 . S
C2598 C2599 1.389 . S
C2599 C2598 1.389 . S
C2599 C2600 1.387 . S
C2600 H2585 0.930 . S
C2600 C2595 1.390 . S
C2600 C2599 1.387 . S
H2601 C2613 0.930 . S
H2602 C2615 0.930 . S
H2603 C2616 0.930 . S
H2604 C2620 0.959 . S
H2605 C2620 0.959 . S
H2606 C2620 0.961 . S
H2607 C2621 0.960 . S
H2608 C2621 0.961 . S
H2609 C2621 0.959 . S
H2610 C2624 0.929 . S
H2611 C2625 0.931 . S
H2612 C2627 0.930 . S
C2613 H2601 0.930 . S
C2613 C2614 1.399 . S
C2613 C2618 1.399 . S
C2614 C2613 1.399 . S
C2614 C2615 1.376 . S
C2615 H2602 0.930 . S
C2615 C2614 1.376 . S
C2615 C2616 1.388 . S
C2616 H2603 0.930 . S
C2616 C2615 1.388 . S
C2616 C2617 1.390 . S
C2617 C2616 1.390 . S
C2617 C2618 1.394 . S
C2617 C2623 1.465 . S
C2618 C2613 1.399 . S
C2618 C2617 1.394 . S
C2618 C2619 1.516 . S
C2619 C2618 1.516 . S
C2619 C2620 1.502 . S
C2619 C2621 1.561 . S
C2619 C2622 1.526 . S
C2620 H2604 0.959 . S
C2620 H2605 0.959 . S
C2620 H2606 0.961 . S
C2620 C2619 1.502 . S
C2621 H2607 0.960 . S
C2621 H2608 0.961 . S
C2621 H2609 0.959 . S
C2621 C2619 1.561 . S
C2622 C2619 1.526 . S
C2622 C2623 1.396 . S
C2622 C2627 1.390 . S
C2623 C2617 1.465 . S
C2623 C2622 1.396 . S
C2623 C2624 1.399 . S
C2624 H2610 0.929 . S
C2624 C2623 1.399 . S
C2624 C2625 1.385 . S
C2625 H2611 0.931 . S
C2625 C2624 1.385 . S
C2625 C2626 1.389 . S
C2626 C2625 1.389 . S
C2626 C2627 1.387 . S
C2627 H2612 0.930 . S
C2627 C2622 1.390 . S
C2627 C2626 1.387 . S
H2628 C2640 0.930 . S
H2629 C2642 0.930 . S
H2630 C2643 0.930 . S
H2631 C2647 0.959 . S
H2632 C2647 0.959 . S
H2633 C2647 0.961 . S
H2634 C2648 0.960 . S
H2635 C2648 0.961 . S
H2636 C2648 0.959 . S
H2637 C2651 0.929 . S
H2638 C2652 0.931 . S
H2639 C2654 0.930 . S
C2640 H2628 0.930 . S
C2640 C2641 1.399 . S
C2640 C2645 1.399 . S
C2641 C2640 1.399 . S
C2641 C2642 1.376 . S
C2642 H2629 0.930 . S
C2642 C2641 1.376 . S
C2642 C2643 1.388 . S
C2643 H2630 0.930 . S
C2643 C2642 1.388 . S
C2643 C2644 1.390 . S
C2644 C2643 1.390 . S
C2644 C2645 1.394 . S
C2644 C2650 1.465 . S
C2645 C2640 1.399 . S
C2645 C2644 1.394 . S
C2645 C2646 1.516 . S
C2646 C2645 1.516 . S
C2646 C2647 1.502 . S
C2646 C2648 1.561 . S
C2646 C2649 1.526 . S
C2647 H2631 0.959 . S
C2647 H2632 0.959 . S
C2647 H2633 0.961 . S
C2647 C2646 1.502 . S
C2648 H2634 0.960 . S
C2648 H2635 0.961 . S
C2648 H2636 0.959 . S
C2648 C2646 1.561 . S
C2649 C2646 1.526 . S
C2649 C2650 1.396 . S
C2649 C2654 1.390 . S
C2650 C2644 1.465 . S
C2650 C2649 1.396 . S
C2650 C2651 1.399 . S
C2651 H2637 0.929 . S
C2651 C2650 1.399 . S
C2651 C2652 1.385 . S
C2652 H2638 0.931 . S
C2652 C2651 1.385 . S
C2652 C2653 1.389 . S
C2653 C2652 1.389 . S
C2653 C2654 1.387 . S
C2654 H2639 0.930 . S
C2654 C2649 1.390 . S
C2654 C2653 1.387 . S
H2655 C2667 0.930 . S
H2656 C2669 0.930 . S
H2657 C2670 0.930 . S
H2658 C2674 0.959 . S
H2659 C2674 0.959 . S
H2660 C2674 0.961 . S
H2661 C2675 0.960 . S
H2662 C2675 0.961 . S
H2663 C2675 0.959 . S
H2664 C2678 0.929 . S
H2665 C2679 0.931 . S
H2666 C2681 0.930 . S
C2667 H2655 0.930 . S
C2667 C2668 1.399 . S
C2667 C2672 1.399 . S
C2668 C2667 1.399 . S
C2668 C2669 1.376 . S
C2669 H2656 0.930 . S
C2669 C2668 1.376 . S
C2669 C2670 1.388 . S
C2670 H2657 0.930 . S
C2670 C2669 1.388 . S
C2670 C2671 1.390 . S
C2671 C2670 1.390 . S
C2671 C2672 1.394 . S
C2671 C2677 1.465 . S
C2672 C2667 1.399 . S
C2672 C2671 1.394 . S
C2672 C2673 1.516 . S
C2673 C2672 1.516 . S
C2673 C2674 1.502 . S
C2673 C2675 1.561 . S
C2673 C2676 1.526 . S
C2674 H2658 0.959 . S
C2674 H2659 0.959 . S
C2674 H2660 0.961 . S
C2674 C2673 1.502 . S
C2675 H2661 0.960 . S
C2675 H2662 0.961 . S
C2675 H2663 0.959 . S
C2675 C2673 1.561 . S
C2676 C2673 1.526 . S
C2676 C2677 1.396 . S
C2676 C2681 1.390 . S
C2677 C2671 1.465 . S
C2677 C2676 1.396 . S
C2677 C2678 1.399 . S
C2678 H2664 0.929 . S
C2678 C2677 1.399 . S
C2678 C2679 1.385 . S
C2679 H2665 0.931 . S
C2679 C2678 1.385 . S
C2679 C2680 1.389 . S
C2680 C2679 1.389 . S
C2680 C2681 1.387 . S
C2681 H2666 0.930 . S
C2681 C2676 1.390 . S
C2681 C2680 1.387 . S
H2682 C2694 0.930 . S
H2683 C2696 0.930 . S
H2684 C2697 0.930 . S
H2685 C2701 0.959 . S
H2686 C2701 0.959 . S
H2687 C2701 0.961 . S
H2688 C2702 0.960 . S
H2689 C2702 0.961 . S
H2690 C2702 0.959 . S
H2691 C2705 0.929 . S
H2692 C2706 0.931 . S
H2693 C2708 0.930 . S
C2694 H2682 0.930 . S
C2694 C2695 1.399 . S
C2694 C2699 1.399 . S
C2695 C2694 1.399 . S
C2695 C2696 1.376 . S
C2696 H2683 0.930 . S
C2696 C2695 1.376 . S
C2696 C2697 1.388 . S
C2697 H2684 0.930 . S
C2697 C2696 1.388 . S
C2697 C2698 1.390 . S
C2698 C2697 1.390 . S
C2698 C2699 1.394 . S
C2698 C2704 1.465 . S
C2699 C2694 1.399 . S
C2699 C2698 1.394 . S
C2699 C2700 1.516 . S
C2700 C2699 1.516 . S
C2700 C2701 1.502 . S
C2700 C2702 1.561 . S
C2700 C2703 1.526 . S
C2701 H2685 0.959 . S
C2701 H2686 0.959 . S
C2701 H2687 0.961 . S
C2701 C2700 1.502 . S
C2702 H2688 0.960 . S
C2702 H2689 0.961 . S
C2702 H2690 0.959 . S
C2702 C2700 1.561 . S
C2703 C2700 1.526 . S
C2703 C2704 1.396 . S
C2703 C2708 1.390 . S
C2704 C2698 1.465 . S
C2704 C2703 1.396 . S
C2704 C2705 1.399 . S
C2705 H2691 0.929 . S
C2705 C2704 1.399 . S
C2705 C2706 1.385 . S
C2706 H2692 0.931 . S
C2706 C2705 1.385 . S
C2706 C2707 1.389 . S
C2707 C2706 1.389 . S
C2707 C2708 1.387 . S
C2708 H2693 0.930 . S
C2708 C2703 1.390 . S
C2708 C2707 1.387 . S
H2709 C2721 0.930 . S
H2710 C2723 0.930 . S
H2711 C2724 0.930 . S
H2712 C2728 0.959 . S
H2713 C2728 0.959 . S
H2714 C2728 0.961 . S
H2715 C2729 0.960 . S
H2716 C2729 0.961 . S
H2717 C2729 0.959 . S
H2718 C2732 0.929 . S
H2719 C2733 0.931 . S
H2720 C2735 0.930 . S
C2721 H2709 0.930 . S
C2721 C2722 1.399 . S
C2721 C2726 1.399 . S
C2722 C2721 1.399 . S
C2722 C2723 1.376 . S
C2723 H2710 0.930 . S
C2723 C2722 1.376 . S
C2723 C2724 1.388 . S
C2724 H2711 0.930 . S
C2724 C2723 1.388 . S
C2724 C2725 1.390 . S
C2725 C2724 1.390 . S
C2725 C2726 1.394 . S
C2725 C2731 1.465 . S
C2726 C2721 1.399 . S
C2726 C2725 1.394 . S
C2726 C2727 1.516 . S
C2727 C2726 1.516 . S
C2727 C2728 1.502 . S
C2727 C2729 1.561 . S
C2727 C2730 1.526 . S
C2728 H2712 0.959 . S
C2728 H2713 0.959 . S
C2728 H2714 0.961 . S
C2728 C2727 1.502 . S
C2729 H2715 0.960 . S
C2729 H2716 0.961 . S
C2729 H2717 0.959 . S
C2729 C2727 1.561 . S
C2730 C2727 1.526 . S
C2730 C2731 1.396 . S
C2730 C2735 1.390 . S
C2731 C2725 1.465 . S
C2731 C2730 1.396 . S
C2731 C2732 1.399 . S
C2732 H2718 0.929 . S
C2732 C2731 1.399 . S
C2732 C2733 1.385 . S
C2733 H2719 0.931 . S
C2733 C2732 1.385 . S
C2733 C2734 1.389 . S
C2734 C2733 1.389 . S
C2734 C2735 1.387 . S
C2735 H2720 0.930 . S
C2735 C2730 1.390 . S
C2735 C2734 1.387 . S
H2736 C2748 0.930 . S
H2737 C2750 0.930 . S
H2738 C2751 0.930 . S
H2739 C2755 0.959 . S
H2740 C2755 0.959 . S
H2741 C2755 0.961 . S
H2742 C2756 0.960 . S
H2743 C2756 0.961 . S
H2744 C2756 0.959 . S
H2745 C2759 0.929 . S
H2746 C2760 0.931 . S
H2747 C2762 0.930 . S
C2748 H2736 0.930 . S
C2748 C2749 1.399 . S
C2748 C2753 1.399 . S
C2749 C2748 1.399 . S
C2749 C2750 1.376 . S
C2750 H2737 0.930 . S
C2750 C2749 1.376 . S
C2750 C2751 1.388 . S
C2751 H2738 0.930 . S
C2751 C2750 1.388 . S
C2751 C2752 1.390 . S
C2752 C2751 1.390 . S
C2752 C2753 1.394 . S
C2752 C2758 1.465 . S
C2753 C2748 1.399 . S
C2753 C2752 1.394 . S
C2753 C2754 1.516 . S
C2754 C2753 1.516 . S
C2754 C2755 1.502 . S
C2754 C2756 1.561 . S
C2754 C2757 1.526 . S
C2755 H2739 0.959 . S
C2755 H2740 0.959 . S
C2755 H2741 0.961 . S
C2755 C2754 1.502 . S
C2756 H2742 0.960 . S
C2756 H2743 0.961 . S
C2756 H2744 0.959 . S
C2756 C2754 1.561 . S
C2757 C2754 1.526 . S
C2757 C2758 1.396 . S
C2757 C2762 1.390 . S
C2758 C2752 1.465 . S
C2758 C2757 1.396 . S
C2758 C2759 1.399 . S
C2759 H2745 0.929 . S
C2759 C2758 1.399 . S
C2759 C2760 1.385 . S
C2760 H2746 0.931 . S
C2760 C2759 1.385 . S
C2760 C2761 1.389 . S
C2761 C2760 1.389 . S
C2761 C2762 1.387 . S
C2762 H2747 0.930 . S
C2762 C2757 1.390 . S
C2762 C2761 1.387 . S
H2763 C2775 0.930 . S
H2764 C2777 0.930 . S
H2765 C2778 0.930 . S
H2766 C2782 0.959 . S
H2767 C2782 0.959 . S
H2768 C2782 0.961 . S
H2769 C2783 0.960 . S
H2770 C2783 0.961 . S
H2771 C2783 0.959 . S
H2772 C2786 0.929 . S
H2773 C2787 0.931 . S
H2774 C2789 0.930 . S
C2775 H2763 0.930 . S
C2775 C2776 1.399 . S
C2775 C2780 1.399 . S
C2776 C2775 1.399 . S
C2776 C2777 1.376 . S
C2777 H2764 0.930 . S
C2777 C2776 1.376 . S
C2777 C2778 1.388 . S
C2778 H2765 0.930 . S
C2778 C2777 1.388 . S
C2778 C2779 1.390 . S
C2779 C2778 1.390 . S
C2779 C2780 1.394 . S
C2779 C2785 1.465 . S
C2780 C2775 1.399 . S
C2780 C2779 1.394 . S
C2780 C2781 1.516 . S
C2781 C2780 1.516 . S
C2781 C2782 1.502 . S
C2781 C2783 1.561 . S
C2781 C2784 1.526 . S
C2782 H2766 0.959 . S
C2782 H2767 0.959 . S
C2782 H2768 0.961 . S
C2782 C2781 1.502 . S
C2783 H2769 0.960 . S
C2783 H2770 0.961 . S
C2783 H2771 0.959 . S
C2783 C2781 1.561 . S
C2784 C2781 1.526 . S
C2784 C2785 1.396 . S
C2784 C2789 1.390 . S
C2785 C2779 1.465 . S
C2785 C2784 1.396 . S
C2785 C2786 1.399 . S
C2786 H2772 0.929 . S
C2786 C2785 1.399 . S
C2786 C2787 1.385 . S
C2787 H2773 0.931 . S
C2787 C2786 1.385 . S
C2787 C2788 1.389 . S
C2788 C2787 1.389 . S
C2788 C2789 1.387 . S
C2789 H2774 0.930 . S
C2789 C2784 1.390 . S
C2789 C2788 1.387 . S
H2790 C2802 0.930 . S
H2791 C2804 0.930 . S
H2792 C2805 0.930 . S
H2793 C2809 0.959 . S
H2794 C2809 0.959 . S
H2795 C2809 0.961 . S
H2796 C2810 0.960 . S
H2797 C2810 0.961 . S
H2798 C2810 0.959 . S
H2799 C2813 0.929 . S
H2800 C2814 0.931 . S
H2801 C2816 0.930 . S
C2802 H2790 0.930 . S
C2802 C2803 1.399 . S
C2802 C2807 1.399 . S
C2803 C2802 1.399 . S
C2803 C2804 1.376 . S
C2804 H2791 0.930 . S
C2804 C2803 1.376 . S
C2804 C2805 1.388 . S
C2805 H2792 0.930 . S
C2805 C2804 1.388 . S
C2805 C2806 1.390 . S
C2806 C2805 1.390 . S
C2806 C2807 1.394 . S
C2806 C2812 1.465 . S
C2807 C2802 1.399 . S
C2807 C2806 1.394 . S
C2807 C2808 1.516 . S
C2808 C2807 1.516 . S
C2808 C2809 1.502 . S
C2808 C2810 1.561 . S
C2808 C2811 1.526 . S
C2809 H2793 0.959 . S
C2809 H2794 0.959 . S
C2809 H2795 0.961 . S
C2809 C2808 1.502 . S
C2810 H2796 0.960 . S
C2810 H2797 0.961 . S
C2810 H2798 0.959 . S
C2810 C2808 1.561 . S
C2811 C2808 1.526 . S
C2811 C2812 1.396 . S
C2811 C2816 1.390 . S
C2812 C2806 1.465 . S
C2812 C2811 1.396 . S
C2812 C2813 1.399 . S
C2813 H2799 0.929 . S
C2813 C2812 1.399 . S
C2813 C2814 1.385 . S
C2814 H2800 0.931 . S
C2814 C2813 1.385 . S
C2814 C2815 1.389 . S
C2815 C2814 1.389 . S
C2815 C2816 1.387 . S
C2816 H2801 0.930 . S
C2816 C2811 1.390 . S
C2816 C2815 1.387 . S
H2817 C2829 0.930 . S
H2818 C2831 0.930 . S
H2819 C2832 0.930 . S
H2820 C2836 0.959 . S
H2821 C2836 0.959 . S
H2822 C2836 0.961 . S
H2823 C2837 0.960 . S
H2824 C2837 0.961 . S
H2825 C2837 0.959 . S
H2826 C2840 0.929 . S
H2827 C2841 0.931 . S
H2828 C2843 0.930 . S
C2829 H2817 0.930 . S
C2829 C2830 1.399 . S
C2829 C2834 1.399 . S
C2830 C2829 1.399 . S
C2830 C2831 1.376 . S
C2831 H2818 0.930 . S
C2831 C2830 1.376 . S
C2831 C2832 1.388 . S
C2832 H2819 0.930 . S
C2832 C2831 1.388 . S
C2832 C2833 1.390 . S
C2833 C2832 1.390 . S
C2833 C2834 1.394 . S
C2833 C2839 1.465 . S
C2834 C2829 1.399 . S
C2834 C2833 1.394 . S
C2834 C2835 1.516 . S
C2835 C2834 1.516 . S
C2835 C2836 1.502 . S
C2835 C2837 1.561 . S
C2835 C2838 1.526 . S
C2836 H2820 0.959 . S
C2836 H2821 0.959 . S
C2836 H2822 0.961 . S
C2836 C2835 1.502 . S
C2837 H2823 0.960 . S
C2837 H2824 0.961 . S
C2837 H2825 0.959 . S
C2837 C2835 1.561 . S
C2838 C2835 1.526 . S
C2838 C2839 1.396 . S
C2838 C2843 1.390 . S
C2839 C2833 1.465 . S
C2839 C2838 1.396 . S
C2839 C2840 1.399 . S
C2840 H2826 0.929 . S
C2840 C2839 1.399 . S
C2840 C2841 1.385 . S
C2841 H2827 0.931 . S
C2841 C2840 1.385 . S
C2841 C2842 1.389 . S
C2842 C2841 1.389 . S
C2842 C2843 1.387 . S
C2843 H2828 0.930 . S
C2843 C2838 1.390 . S
C2843 C2842 1.387 . S
H2844 C2856 0.930 . S
H2845 C2858 0.930 . S
H2846 C2859 0.930 . S
H2847 C2863 0.959 . S
H2848 C2863 0.959 . S
H2849 C2863 0.961 . S
H2850 C2864 0.960 . S
H2851 C2864 0.961 . S
H2852 C2864 0.959 . S
H2853 C2867 0.929 . S
H2854 C2868 0.931 . S
H2855 C2870 0.930 . S
C2856 H2844 0.930 . S
C2856 C2857 1.399 . S
C2856 C2861 1.399 . S
C2857 C2856 1.399 . S
C2857 C2858 1.376 . S
C2858 H2845 0.930 . S
C2858 C2857 1.376 . S
C2858 C2859 1.388 . S
C2859 H2846 0.930 . S
C2859 C2858 1.388 . S
C2859 C2860 1.390 . S
C2860 C2859 1.390 . S
C2860 C2861 1.394 . S
C2860 C2866 1.465 . S
C2861 C2856 1.399 . S
C2861 C2860 1.394 . S
C2861 C2862 1.516 . S
C2862 C2861 1.516 . S
C2862 C2863 1.502 . S
C2862 C2864 1.561 . S
C2862 C2865 1.526 . S
C2863 H2847 0.959 . S
C2863 H2848 0.959 . S
C2863 H2849 0.961 . S
C2863 C2862 1.502 . S
C2864 H2850 0.960 . S
C2864 H2851 0.961 . S
C2864 H2852 0.959 . S
C2864 C2862 1.561 . S
C2865 C2862 1.526 . S
C2865 C2866 1.396 . S
C2865 C2870 1.390 . S
C2866 C2860 1.465 . S
C2866 C2865 1.396 . S
C2866 C2867 1.399 . S
C2867 H2853 0.929 . S
C2867 C2866 1.399 . S
C2867 C2868 1.385 . S
C2868 H2854 0.931 . S
C2868 C2867 1.385 . S
C2868 C2869 1.389 . S
C2869 C2868 1.389 . S
C2869 C2870 1.387 . S
C2870 H2855 0.930 . S
C2870 C2865 1.390 . S
C2870 C2869 1.387 . S
H2871 C2883 0.930 . S
H2872 C2885 0.930 . S
H2873 C2886 0.930 . S
H2874 C2890 0.959 . S
H2875 C2890 0.959 . S
H2876 C2890 0.961 . S
H2877 C2891 0.960 . S
H2878 C2891 0.961 . S
H2879 C2891 0.959 . S
H2880 C2894 0.929 . S
H2881 C2895 0.931 . S
H2882 C2897 0.930 . S
C2883 H2871 0.930 . S
C2883 C2884 1.399 . S
C2883 C2888 1.399 . S
C2884 C2883 1.399 . S
C2884 C2885 1.376 . S
C2885 H2872 0.930 . S
C2885 C2884 1.376 . S
C2885 C2886 1.388 . S
C2886 H2873 0.930 . S
C2886 C2885 1.388 . S
C2886 C2887 1.390 . S
C2887 C2886 1.390 . S
C2887 C2888 1.394 . S
C2887 C2893 1.465 . S
C2888 C2883 1.399 . S
C2888 C2887 1.394 . S
C2888 C2889 1.516 . S
C2889 C2888 1.516 . S
C2889 C2890 1.502 . S
C2889 C2891 1.561 . S
C2889 C2892 1.526 . S
C2890 H2874 0.959 . S
C2890 H2875 0.959 . S
C2890 H2876 0.961 . S
C2890 C2889 1.502 . S
C2891 H2877 0.960 . S
C2891 H2878 0.961 . S
C2891 H2879 0.959 . S
C2891 C2889 1.561 . S
C2892 C2889 1.526 . S
C2892 C2893 1.396 . S
C2892 C2897 1.390 . S
C2893 C2887 1.465 . S
C2893 C2892 1.396 . S
C2893 C2894 1.399 . S
C2894 H2880 0.929 . S
C2894 C2893 1.399 . S
C2894 C2895 1.385 . S
C2895 H2881 0.931 . S
C2895 C2894 1.385 . S
C2895 C2896 1.389 . S
C2896 C2895 1.389 . S
C2896 C2897 1.387 . S
C2897 H2882 0.930 . S
C2897 C2892 1.390 . S
C2897 C2896 1.387 . S
C1453 C781 1.669 . S
C1465 C1083 1.684 . S
C1480 C871 1.731 . S
C1492 C1123 1.778 . S
C1507 C751 1.717 . S
C1519 C1175 1.776 . S
C1534 C691 1.538 . S
C1546 C1135 1.595 . S
C1573 C1163 1.478 . S
C1561 C571 1.416 . S
C1588 C601 1.429 . S
C1600 C1095 1.421 . S
C1627 C1102 1.690 . S
C1615 C661 1.641 . S
C1654 C1142 1.793 . S
C1642 C541 1.719 . S
C1669 C631 1.758 . S
C1681 C1162 1.774 . S
C1696 C811 1.579 . S
C1708 C1122 1.592 . S
C1723 C841 1.419 . S
C1735 C1182 1.463 . S
C1762 C1082 1.444 . S
C1750 C721 1.340 . S
C1789 C1203 1.698 . S
C1777 C61 1.681 . S
C1804 C151 1.740 . S
C1816 C1243 1.805 . S
C1831 C31 1.676 . S
C1843 C1295 1.727 . S
C1858 C1051 1.554 . S
C1870 C1255 1.592 . S
C1885 C931 1.415 . S
C1897 C1283 1.478 . S
C1912 C961 1.386 . S
C1924 C1215 1.458 . S
C1939 C1021 1.571 . S
C1951 C1222 1.701 . S
C1966 C901 1.702 . S
C1978 C1262 1.805 . S
C2005 C1282 1.726 . S
C1993 C991 1.790 . S
C2020 C91 1.577 . S
C2032 C1242 1.590 . S
C2059 C1302 1.467 . S
C2047 C121 1.466 . S
C2074 C1 1.387 . S
C2086 C1202 1.421 . S
C2113 C1323 1.691 . S
C2101 C421 1.689 . S
C2128 C511 1.718 . S
C2140 C1363 1.794 . S
C2167 C1415 1.775 . S
C2155 C391 1.719 . S
C2194 C1375 1.575 . S
C2182 C331 1.494 . S
C2221 C1403 1.460 . S
C2209 C211 1.450 . S
C2236 C241 1.430 . S
C2248 C1335 1.424 . S
C2263 C301 1.576 . S
C2275 C1342 1.705 . S
C2290 C181 1.743 . S
C2302 C1382 1.783 . S
C2329 C1402 1.730 . S
C2317 C271 1.793 . S
C2344 C451 1.573 . S
C2356 C1362 1.586 . S
C2371 C481 1.420 . S
C2383 C1422 1.462 . S
C2398 C361 1.390 . S
C2410 C1322 1.419 . S
C2425 C920 1.315 . S
C2437 C1106 1.297 . S
C2464 C1146 1.865 . S
C2452 C980 1.871 . S
C2479 C1040 1.476 . S
C2491 C1169 1.576 . S
C2506 C380 1.764 . S
C2518 C1129 1.853 . S
C2533 C440 1.559 . S
C2545 C1186 1.559 . S
C2572 C1089 1.325 . S
C2560 C500 1.305 . S
C2587 C200 1.306 . S
C2599 C1226 1.301 . S
C2614 C260 1.870 . S
C2626 C1266 1.866 . S
C2641 C320 1.545 . S
C2653 C1289 1.564 . S
C2668 C740 1.771 . S
C2680 C1249 1.865 . S
C2707 C1306 1.571 . S
C2695 C800 1.576 . S
C2722 C860 1.296 . S
C2734 C1209 1.303 . S
C2749 C560 1.322 . S
C2761 C1346 1.301 . S
C2776 C620 1.870 . S
C2788 C1386 1.865 . S
C2815 C1409 1.577 . S
C2803 C680 1.477 . S
C2830 C20 1.832 . S
C2842 C1369 1.840 . S
C2857 C80 1.522 . S
C2869 C1426 1.566 . S
C2884 C140 1.291 . S
C2896 C1329 1.300 . S
