# Generated by pormake.
# Topology dag, (6,3)-cn, num edge types: 1
# Building blocks:
#     Node 0, Type 0, BuildingBlock: MIDCAF_clean_sbu_0, # of connection points: 6
#     Node 1, Type 0, BuildingBlock: MIDCAF_clean_sbu_0, # of connection points: 6
#     Node 2, Type 0, BuildingBlock: MIDCAF_clean_sbu_0, # of connection points: 6
#     Node 3, Type 0, BuildingBlock: MIDCAF_clean_sbu_0, # of connection points: 6
#     Node 4, Type 1, BuildingBlock: BETDAH_clean_linker_0, # of connection points: 3
#     Node 5, Type 1, BuildingBlock: BETDAH_clean_linker_0, # of connection points: 3
#     Node 6, Type 1, BuildingBlock: BETDAH_clean_linker_0, # of connection points: 3
#     Node 7, Type 1, BuildingBlock: BETDAH_clean_linker_0, # of connection points: 3
#     Node 8, Type 1, BuildingBlock: BETDAH_clean_linker_0, # of connection points: 3
#     Node 9, Type 1, BuildingBlock: BETDAH_clean_linker_0, # of connection points: 3
#     Node 10, Type 1, BuildingBlock: BETDAH_clean_linker_0, # of connection points: 3
#     Node 11, Type 1, BuildingBlock: BETDAH_clean_linker_0, # of connection points: 3
#     Edge 12, Type (0, 1), BuildingBlock: AJUNOK_clean_linker_0, # of connection points: 2
#     Edge 13, Type (0, 1), BuildingBlock: AJUNOK_clean_linker_0, # of connection points: 2
#     Edge 14, Type (0, 1), BuildingBlock: AJUNOK_clean_linker_0, # of connection points: 2
#     Edge 15, Type (0, 1), BuildingBlock: AJUNOK_clean_linker_0, # of connection points: 2
#     Edge 16, Type (0, 1), BuildingBlock: AJUNOK_clean_linker_0, # of connection points: 2
#     Edge 17, Type (0, 1), BuildingBlock: AJUNOK_clean_linker_0, # of connection points: 2
#     Edge 18, Type (0, 1), BuildingBlock: AJUNOK_clean_linker_0, # of connection points: 2
#     Edge 19, Type (0, 1), BuildingBlock: AJUNOK_clean_linker_0, # of connection points: 2
#     Edge 20, Type (0, 1), BuildingBlock: AJUNOK_clean_linker_0, # of connection points: 2
#     Edge 21, Type (0, 1), BuildingBlock: AJUNOK_clean_linker_0, # of connection points: 2
#     Edge 22, Type (0, 1), BuildingBlock: AJUNOK_clean_linker_0, # of connection points: 2
#     Edge 23, Type (0, 1), BuildingBlock: AJUNOK_clean_linker_0, # of connection points: 2
#     Edge 24, Type (0, 1), BuildingBlock: AJUNOK_clean_linker_0, # of connection points: 2
#     Edge 25, Type (0, 1), BuildingBlock: AJUNOK_clean_linker_0, # of connection points: 2
#     Edge 26, Type (0, 1), BuildingBlock: AJUNOK_clean_linker_0, # of connection points: 2
#     Edge 27, Type (0, 1), BuildingBlock: AJUNOK_clean_linker_0, # of connection points: 2
#     Edge 28, Type (0, 1), BuildingBlock: AJUNOK_clean_linker_0, # of connection points: 2
#     Edge 29, Type (0, 1), BuildingBlock: AJUNOK_clean_linker_0, # of connection points: 2
#     Edge 30, Type (0, 1), BuildingBlock: AJUNOK_clean_linker_0, # of connection points: 2
#     Edge 31, Type (0, 1), BuildingBlock: AJUNOK_clean_linker_0, # of connection points: 2
#     Edge 32, Type (0, 1), BuildingBlock: AJUNOK_clean_linker_0, # of connection points: 2
#     Edge 33, Type (0, 1), BuildingBlock: AJUNOK_clean_linker_0, # of connection points: 2
#     Edge 34, Type (0, 1), BuildingBlock: AJUNOK_clean_linker_0, # of connection points: 2
#     Edge 35, Type (0, 1), BuildingBlock: AJUNOK_clean_linker_0, # of connection points: 2
# Relax obj value: 0.130
# Max RMSD: 0.142
# Mean RMSD: 0.115
data_MOF--net-dag--node1-MIDCAF_clean_sbu_0--node2-BETDAH_clean_linker_0--edge1-AJUNOK_clean_linker_0
_symmetry_space_group_name_H-M    P1
_symmetry_Int_Tables_number       1
_symmetry_cell_setting            triclinic
loop_
_symmetry_equiv_pos_as_xyz
'x, y, z'
_cell_length_a     29.130363
_cell_length_b     30.645255
_cell_length_c     23.515447
_cell_angle_alpha  92.852855
_cell_angle_beta   90.247652
_cell_angle_gamma 90.038255
loop_
_atom_site_label
_atom_site_type_symbol
_atom_site_fract_x
_atom_site_fract_y
_atom_site_fract_z
_atom_type_partial_charge
Zn0 Zn 0.12816 0.83936 0.2368 0.0
Zn1 Zn 0.14302 0.86524 0.97066 0.0
Zn2 Zn 0.14002 0.85521 0.06283 0.0
C3 C 0.13988 0.94662 0.00806 0.0
C4 C 0.06613 0.81617 0.98311 0.0
O5 O 0.18527 0.80125 0.08076 0.0
O6 O 0.1573 0.82689 0.15988 0.0
C7 C 0.16793 0.91244 0.15741 0.0
O8 O 0.15602 0.92515 0.0493 0.0
O9 O 0.12153 0.92606 0.96608 0.0
O10 O 0.10035 0.81727 0.95065 0.0
O11 O 0.06932 0.83591 0.03273 0.0
O12 O 0.15247 0.87721 0.17547 0.0
O13 O 0.16714 0.91515 0.10353 0.0
O14 O 0.07213 0.84294 0.10735 0.0
O15 O 0.06403 0.83294 0.20267 0.0
C16 C 0.04761 0.8356 0.15223 0.0
O17 O 0.19425 0.8118 0.02413 0.0
O18 O 0.20708 0.85256 0.95101 0.0
C19 C 0.17887 0.79642 0.1336 0.0
C20 C 0.21855 0.82106 0.98047 0.0
Zn21 Zn 0.62384 0.64731 0.388 0.0
Zn22 Zn 0.69331 0.6343 0.65357 0.0
Zn23 Zn 0.62911 0.64575 0.48662 0.0
C24 C 0.66102 0.56967 0.54897 0.0
C25 C 0.59613 0.66048 0.63077 0.0
O26 O 0.66823 0.70192 0.45444 0.0
O27 O 0.62728 0.7102 0.3768 0.0
C28 C 0.678 0.57978 0.39534 0.0
O29 O 0.64539 0.57628 0.49908 0.0
O30 O 0.6738 0.60376 0.57742 0.0
O31 O 0.62752 0.65589 0.66866 0.0
O32 O 0.60447 0.65561 0.5768 0.0
O33 O 0.67714 0.61115 0.36272 0.0
O34 O 0.65616 0.58384 0.443 0.0
O35 O 0.5573 0.6589 0.4601 0.0
O36 O 0.56172 0.62305 0.37742 0.0
C37 C 0.53742 0.64204 0.4154 0.0
O38 O 0.68495 0.69195 0.50515 0.0
O39 O 0.69714 0.64526 0.56949 0.0
C40 C 0.6567 0.72478 0.41216 0.0
C41 C 0.70783 0.68095 0.54861 0.0
Zn42 Zn 0.83388 0.1632 0.82641 0.0
Zn43 Zn 0.86652 0.13297 0.08376 0.0
Zn44 Zn 0.86854 0.14482 0.98671 0.0
C45 C 0.95504 0.13304 0.06326 0.0
C46 C 0.81542 0.06682 0.03054 0.0
O47 O 0.81641 0.19377 0.97248 0.0
O48 O 0.79903 0.15039 0.90042 0.0
C49 C 0.91096 0.19127 0.87799 0.0
O50 O 0.93689 0.15525 0.02456 0.0
O51 O 0.92958 0.11045 0.0935 0.0
O52 O 0.81609 0.09077 0.0757 0.0
O53 O 0.84038 0.07755 0.98847 0.0
O54 O 0.89597 0.19919 0.82897 0.0
O55 O 0.88351 0.17272 0.91066 0.0
O56 O 0.86202 0.08493 0.92952 0.0
O57 O 0.84791 0.09865 0.8369 0.0
C58 C 0.85723 0.07267 0.87609 0.0
O59 O 0.82137 0.19076 0.0329 0.0
O60 O 0.84892 0.19024 0.12011 0.0
C61 C 0.79124 0.18563 0.92837 0.0
C62 C 0.82197 0.20642 0.0847 0.0
Zn63 Zn 0.39257 0.34255 0.68798 0.0
Zn64 Zn 0.32476 0.29273 0.40005 0.0
Zn65 Zn 0.36228 0.3411 0.55123 0.0
C66 C 0.42515 0.32197 0.43786 0.0
C67 C 0.30308 0.37468 0.44115 0.0
O68 O 0.3188 0.30422 0.61087 0.0
O69 O 0.338 0.3093 0.70348 0.0
C70 C 0.45806 0.3042 0.5995 0.0
O71 O 0.42032 0.32961 0.49234 0.0
O72 O 0.39254 0.30959 0.40447 0.0
O73 O 0.28974 0.35179 0.39776 0.0
O74 O 0.32538 0.35582 0.4792 0.0
O75 O 0.44242 0.31045 0.64937 0.0
O76 O 0.43584 0.31774 0.55575 0.0
O77 O 0.34696 0.41042 0.56519 0.0
O78 O 0.36946 0.38874 0.64514 0.0
C79 C 0.35435 0.41913 0.61746 0.0
O80 O 0.31026 0.29086 0.55228 0.0
O81 O 0.3458 0.27031 0.47559 0.0
C82 C 0.31116 0.29656 0.66357 0.0
C83 C 0.31309 0.26433 0.5089 0.0
H84 H 0.15725 0.07864 0.1495 0.0
H85 H 0.17918 0.1015 0.32914 0.0
H86 H 0.0938 0.18843 0.23892 0.0
C87 C 0.15379 0.09992 0.18757 0.0
C88 C 0.12324 0.13522 0.18712 0.0
C89 C 0.1718 0.08611 0.23903 0.0
C90 C 0.16669 0.11273 0.28896 0.0
C91 C 0.14105 0.15164 0.28766 0.0
C92 C 0.11808 0.16166 0.23736 0.0
N93 N 0.13244 0.17795 0.33787 0.0
C94 C 0.16529 0.18666 0.37996 0.0
H95 H 0.41554 0.58901 0.6726 0.0
H96 H 0.41741 0.69349 0.80176 0.0
H97 H 0.32202 0.58694 0.81012 0.0
C98 C 0.39943 0.60715 0.70772 0.0
C99 C 0.36273 0.58722 0.73367 0.0
C100 C 0.41812 0.64693 0.72911 0.0
C101 C 0.40209 0.66428 0.78203 0.0
C102 C 0.36874 0.6415 0.81206 0.0
C103 C 0.34805 0.60395 0.78698 0.0
N104 N 0.36047 0.65212 0.87024 0.0
C105 C 0.34226 0.69188 0.88905 0.0
H106 H 0.85574 0.89883 0.08783 0.0
H107 H 0.84421 0.85553 0.25648 0.0
H108 H 0.73004 0.91937 0.18113 0.0
C109 C 0.83364 0.89259 0.12318 0.0
C110 C 0.78903 0.91029 0.12591 0.0
C111 C 0.85321 0.87145 0.16885 0.0
C112 C 0.82809 0.86834 0.2192 0.0
C113 C 0.78414 0.88691 0.22344 0.0
C114 C 0.76402 0.90549 0.17623 0.0
N115 N 0.76404 0.89583 0.27728 0.0
C116 C 0.74993 0.86324 0.31172 0.0
H117 H 0.60857 0.37557 0.59733 0.0
H118 H 0.6824 0.27369 0.67689 0.0
H119 H 0.74504 0.39966 0.66121 0.0
C120 C 0.6398 0.36413 0.61695 0.0
C121 C 0.67613 0.39319 0.62731 0.0
C122 C 0.64257 0.32057 0.63211 0.0
C123 C 0.68074 0.30684 0.66313 0.0
C124 C 0.71741 0.33613 0.67443 0.0
C125 C 0.71569 0.3783 0.65436 0.0
N126 N 0.75679 0.32429 0.70538 0.0
C127 C 0.75449 0.30027 0.75364 0.0
H128 H 0.61569 0.40982 0.38011 0.0
H129 H 0.69884 0.39647 0.22934 0.0
H130 H 0.56673 0.33573 0.23205 0.0
C131 C 0.62118 0.39632 0.33729 0.0
C132 C 0.5877 0.36855 0.31175 0.0
C133 C 0.66015 0.40901 0.30681 0.0
C134 C 0.66794 0.38921 0.25251 0.0
C135 C 0.63387 0.36308 0.22571 0.0
C136 C 0.59341 0.35426 0.25453 0.0
N137 N 0.63881 0.34689 0.16873 0.0
C138 C 0.67897 0.32669 0.1505 0.0
H139 H 0.09986 0.15521 0.00387 0.0
H140 H 0.12076 0.20147 0.83626 0.0
H141 H 0.2078 0.10247 0.89889 0.0
C142 C 0.12124 0.15768 0.96656 0.0
C143 C 0.15575 0.12648 0.95707 0.0
C144 C 0.10584 0.18264 0.92162 0.0
C145 C 0.13288 0.18391 0.87224 0.0
C146 C 0.17118 0.15618 0.86537 0.0
C147 C 0.18216 0.12753 0.90771 0.0
N148 N 0.19364 0.15003 0.81239 0.0
C149 C 0.19797 0.18232 0.77372 0.0
H150 H 0.35222 0.58087 0.45946 0.0
H151 H 0.32239 0.65756 0.31594 0.0
H152 H 0.24064 0.54535 0.34595 0.0
C153 C 0.32934 0.58851 0.42482 0.0
C154 C 0.29416 0.55906 0.40839 0.0
C155 C 0.34091 0.62303 0.39053 0.0
C156 C 0.31249 0.63228 0.34411 0.0
C157 C 0.27465 0.6051 0.33016 0.0
C158 C 0.26651 0.56841 0.36155 0.0
N159 N 0.24814 0.60943 0.28009 0.0
C160 C 0.24145 0.64816 0.25326 0.0
H161 H 0.91628 0.88272 0.88719 0.0
H162 H 0.91655 0.76891 0.77251 0.0
H163 H 0.86362 0.89083 0.71764 0.0
C164 C 0.90658 0.86656 0.84692 0.0
C165 C 0.887 0.89154 0.80495 0.0
C166 C 0.91686 0.82214 0.83658 0.0
C167 C 0.9069 0.80255 0.78254 0.0
C168 C 0.88697 0.82728 0.74008 0.0
C169 C 0.87702 0.87159 0.75141 0.0
N170 N 0.88374 0.80975 0.68354 0.0
C171 C 0.8458 0.78621 0.6637 0.0
C172 C 0.13912 0.9693 0.22676 0.0
C173 C 0.17577 0.95149 0.19492 0.0
C174 C 0.14124 0.01233 0.24965 0.0
C175 C 0.17997 0.03872 0.24111 0.0
H176 H 0.10716 0.95141 0.22946 0.0
H177 H 0.11044 0.0266 0.2684 0.0
S178 S 0.28985 0.00206 0.17661 0.0
N179 N 0.25536 0.95942 0.16704 0.0
N180 N 0.2591 0.04087 0.20963 0.0
C181 C 0.21879 0.01934 0.21559 0.0
C182 C 0.21667 0.97549 0.19234 0.0
C183 C 0.54066 0.68289 0.70771 0.0
C184 C 0.54855 0.6678 0.65099 0.0
C185 C 0.4969 0.68072 0.732 0.0
C186 C 0.45909 0.66469 0.69982 0.0
H187 H 0.56908 0.69346 0.73491 0.0
H188 H 0.4939 0.68813 0.7773 0.0
S189 S 0.46031 0.62567 0.54847 0.0
N190 N 0.51442 0.63704 0.56361 0.0
N191 N 0.43106 0.64197 0.60526 0.0
C192 C 0.46557 0.65582 0.64089 0.0
C193 C 0.51057 0.65472 0.61747 0.0
C194 C 0.75918 0.02103 0.07839 0.0
C195 C 0.7912 0.0244 0.03407 0.0
C196 C 0.75196 0.98142 0.1038 0.0
C197 C 0.77498 0.94324 0.08396 0.0
H198 H 0.74444 0.05017 0.09895 0.0
H199 H 0.73304 0.98286 0.14324 0.0
S200 S 0.84031 0.93069 0.94988 0.0
N201 N 0.83353 0.98399 0.96018 0.0
N202 N 0.8124 0.90812 1.00161 0.0
C203 C 0.79617 0.9444 0.0303 0.0
C204 C 0.80655 0.98541 0.00687 0.0
C205 C 0.52644 0.27653 0.65112 0.0
C206 C 0.50649 0.28766 0.59846 0.0
C207 C 0.57378 0.27993 0.66087 0.0
C208 C 0.60279 0.29227 0.61739 0.0
H209 H 0.50518 0.27051 0.6876 0.0
H210 H 0.58662 0.2784 0.70404 0.0
S211 S 0.57227 0.30131 0.46636 0.0
N212 N 0.52229 0.29593 0.49838 0.0
N213 N 0.61184 0.29894 0.51621 0.0
C214 C 0.58491 0.2925 0.56199 0.0
C215 C 0.53646 0.29117 0.55247 0.0
C216 C 0.69675 0.50115 0.40838 0.0
C217 C 0.69413 0.53638 0.37268 0.0
C218 C 0.69223 0.458 0.38622 0.0
C219 C 0.68581 0.44896 0.32734 0.0
H220 H 0.69906 0.5072 0.45381 0.0
H221 H 0.68949 0.4321 0.41575 0.0
S222 S 0.69834 0.52916 0.21476 0.0
N223 N 0.70103 0.55875 0.27518 0.0
N224 N 0.69208 0.47826 0.23307 0.0
C225 C 0.69297 0.48345 0.29081 0.0
C226 C 0.69746 0.52721 0.31362 0.0
C227 C 0.97948 0.1582 0.91695 0.0
C228 C 0.95996 0.1943 0.89238 0.0
C229 C 0.02565 0.15728 0.93074 0.0
C230 C 0.05568 0.19127 0.91745 0.0
H231 H 0.95898 0.12952 0.92449 0.0
H232 H 0.03774 0.12821 0.94964 0.0
S233 S 0.0213 0.29415 0.85245 0.0
N234 N 0.97288 0.26622 0.85622 0.0
N235 N 0.06188 0.26332 0.87906 0.0
C236 C 0.03669 0.22805 0.89255 0.0
C237 C 0.98849 0.22962 0.88012 0.0
C238 C 0.33859 0.44755 0.44311 0.0
C239 C 0.29852 0.42232 0.44334 0.0
C240 C 0.33656 0.49242 0.43581 0.0
C241 C 0.29418 0.51401 0.4296 0.0
H242 H 0.37197 0.43203 0.44506 0.0
H243 H 0.36877 0.50949 0.43118 0.0
S244 S 0.179 0.46262 0.43758 0.0
N245 N 0.21531 0.42154 0.44246 0.0
N246 N 0.21087 0.50687 0.43241 0.0
C247 C 0.25362 0.48931 0.43447 0.0
C248 C 0.25591 0.4432 0.44029 0.0
C249 C 0.02537 0.78126 0.89915 0.0
C250 C 0.02257 0.80008 0.95534 0.0
C251 C 0.98817 0.78235 0.86133 0.0
C252 C 0.94621 0.80064 0.879 0.0
H253 H 0.058 0.77021 0.88183 0.0
H254 H 0.99418 0.77362 0.81678 0.0
S255 S 0.91456 0.83433 0.0265 0.0
N256 N 0.97035 0.82514 0.02999 0.0
N257 N 0.89915 0.82279 0.96 0.0
C258 C 0.94017 0.81009 0.9376 0.0
C259 C 0.97867 0.81104 0.97563 0.0
C260 C 0.90696 0.00714 0.86502 0.0
C261 C 0.86408 0.02679 0.85752 0.0
C262 C 0.91482 0.96404 0.84489 0.0
C263 C 0.87978 0.93894 0.81748 0.0
H264 H 0.93459 0.02525 0.88629 0.0
H265 H 0.94831 0.94988 0.85195 0.0
S266 S 0.76147 0.97631 0.78785 0.0
N267 N 0.78669 0.01926 0.81969 0.0
N268 N 0.80073 0.93741 0.78387 0.0
C269 C 0.83706 0.9588 0.80867 0.0
C270 C 0.82936 0.00294 0.82837 0.0
C271 C 0.48731 0.37423 0.41578 0.0
C272 C 0.46841 0.33214 0.40947 0.0
C273 C 0.52524 0.38602 0.38331 0.0
C274 C 0.54625 0.35583 0.34421 0.0
H275 H 0.47178 0.39857 0.44464 0.0
H276 H 0.53769 0.41928 0.38848 0.0
S277 S 0.51047 0.24028 0.31561 0.0
N278 N 0.47266 0.2602 0.36205 0.0
N279 N 0.54599 0.28086 0.30415 0.0
C280 C 0.52754 0.31336 0.33822 0.0
C281 C 0.48815 0.30191 0.37006 0.0
C282 C 0.10625 0.01634 0.98221 0.0
C283 C 0.14243 0.99447 0.00785 0.0
C284 C 0.11045 0.05989 0.96941 0.0
C285 C 0.15045 0.08391 0.98296 0.0
H286 H 0.07538 -0.00108 0.96862 0.0
H287 H 0.08357 0.07352 0.94424 0.0
S288 S 0.25536 0.04185 0.04965 0.0
N289 N 0.21989 -0.00037 0.04656 0.0
N290 N 0.22709 0.08292 0.02314 0.0
C291 C 0.1864 0.06309 0.01053 0.0
C292 C 0.18235 0.01811 0.02337 0.0
C293 C 0.4674 0.61049 0.36895 0.0
C294 C 0.48687 0.64276 0.40641 0.0
C295 C 0.42004 0.60721 0.36105 0.0
C296 C 0.38985 0.63572 0.39057 0.0
H297 H 0.48879 0.58628 0.34685 0.0
H298 H 0.40671 0.58045 0.3339 0.0
S299 S 0.42248 0.72955 0.48768 0.0
N300 N 0.47209 0.70767 0.46758 0.0
N301 N 0.38208 0.69935 0.45549 0.0
C302 C 0.40837 0.66966 0.42585 0.0
C303 C 0.45716 0.67384 0.43281 0.0
C304 C 0.33769 0.4998 0.61908 0.0
C305 C 0.3459 0.4617 0.64817 0.0
C306 C 0.33806 0.54081 0.64852 0.0
C307 C 0.3468 0.54489 0.70774 0.0
H308 H 0.3337 0.49823 0.57319 0.0
H309 H 0.33485 0.56981 0.62423 0.0
S310 S 0.36422 0.45471 0.80454 0.0
N311 N 0.35694 0.43044 0.74103 0.0
N312 N 0.35975 0.50741 0.79471 0.0
C313 C 0.35125 0.50692 0.73775 0.0
C314 C 0.35039 0.46533 0.70828 0.0
C315 C 0.98076 0.88396 0.1444 0.0
C316 C 0.9977 0.84158 0.15025 0.0
C317 C 0.93422 0.89334 0.15253 0.0
C318 C 0.90277 0.86059 0.16628 0.0
H319 H 0.00391 0.91034 0.13504 0.0
H320 H 0.92264 0.92656 0.14774 0.0
S321 S 0.93021 0.74426 0.18588 0.0
N322 N 0.98023 0.76669 0.17159 0.0
N323 N 0.89187 0.78398 0.18476 0.0
C324 C 0.91933 0.81805 0.17253 0.0
C325 C 0.96704 0.80863 0.16496 0.0
C326 C 0.64545 0.48961 0.53949 0.0
C327 C 0.66335 0.52554 0.57179 0.0
C328 C 0.65079 0.44706 0.55708 0.0
C329 C 0.672 0.43878 0.60938 0.0
H330 H 0.62809 0.49416 0.4994 0.0
H331 H 0.6384 0.42044 0.52906 0.0
S332 S 0.7161 0.52221 0.71568 0.0
N333 N 0.69915 0.55039 0.66142 0.0
N334 N 0.70518 0.47063 0.69702 0.0
C335 C 0.6871 0.47464 0.64414 0.0
C336 C 0.68331 0.51796 0.62506 0.0
C337 C 0.02592 0.09598 0.09138 0.0
C338 C 0.00436 0.13491 0.07736 0.0
C339 C 0.06685 0.09653 0.12237 0.0
C340 C 0.088 0.13619 0.14091 0.0
H341 H 0.00915 0.06482 0.08214 0.0
H342 H 0.07946 0.0655 0.13607 0.0
S343 S 0.05027 0.24683 0.1037 0.0
N344 N 0.01031 0.21386 0.07579 0.0
N345 N 0.0882 0.21515 0.13395 0.0
C346 C 0.06928 0.17525 0.12177 0.0
C347 C 0.02731 0.17456 0.08979 0.0
C348 C 0.23421 0.73514 0.1466 0.0
C349 C 0.1936 0.7571 0.16271 0.0
C350 C 0.25062 0.70006 0.17709 0.0
C351 C 0.22638 0.68574 0.22407 0.0
H352 H 0.25362 0.74537 0.11075 0.0
H353 H 0.28213 0.68396 0.16363 0.0
S354 S 0.11412 0.72624 0.27711 0.0
N355 N 0.12644 0.75736 0.22395 0.0
N356 N 0.15791 0.69242 0.28197 0.0
C357 C 0.18483 0.70586 0.23909 0.0
C358 C 0.16814 0.74132 0.20809 0.0
C359 C 0.7872 0.69427 0.58194 0.0
C360 C 0.74196 0.70951 0.57724 0.0
C361 C 0.82075 0.71952 0.61088 0.0
C362 C 0.80974 0.76029 0.6369 0.0
H363 H 0.79675 0.66273 0.56267 0.0
H364 H 0.85554 0.70713 0.61272 0.0
S365 S 0.69528 0.81282 0.64122 0.0
N366 N 0.68714 0.76658 0.60322 0.0
N367 N 0.75031 0.81401 0.65886 0.0
C368 C 0.76443 0.7755 0.63375 0.0
C369 C 0.73036 0.75002 0.60351 0.0
C370 C 0.76921 0.26798 0.0638 0.0
C371 C 0.78902 0.24069 0.10364 0.0
C372 C 0.73437 0.29756 0.07975 0.0
C373 C 0.71845 0.3006 0.13591 0.0
H374 H 0.78006 0.26607 0.01983 0.0
H375 H 0.71897 0.3172 0.04769 0.0
S376 S 0.7588 0.2378 0.25675 0.0
N377 N 0.79033 0.21975 0.20234 0.0
N378 N 0.72479 0.27551 0.23173 0.0
C379 C 0.73857 0.27475 0.17652 0.0
C380 C 0.77405 0.24473 0.16054 0.0
C381 C 0.26393 0.22939 0.65726 0.0
C382 C 0.27058 0.27219 0.67959 0.0
C383 C 0.23554 0.20067 0.68548 0.0
C384 C 0.21298 0.21452 0.73584 0.0
H385 H 0.28411 0.21685 0.62147 0.0
H386 H 0.23443 0.16663 0.67062 0.0
S387 S 0.21215 0.32589 0.80399 0.0
N388 N 0.24712 0.32908 0.74921 0.0
N389 N 0.1935 0.27488 0.80204 0.0
C390 C 0.21533 0.25843 0.75471 0.0
C391 C 0.2443 0.28751 0.72637 0.0
C392 C 0.72912 0.76492 0.39652 0.0
C393 C 0.68093 0.76484 0.39952 0.0
C394 C 0.75221 0.79817 0.3693 0.0
C395 C 0.72747 0.83206 0.34549 0.0
H396 H 0.74869 0.73768 0.41153 0.0
H397 H 0.78918 0.7964 0.36481 0.0
S398 S 0.60176 0.84914 0.34877 0.0
N399 N 0.60985 0.80314 0.38114 0.0
N400 N 0.65337 0.86598 0.33087 0.0
C401 C 0.67977 0.83381 0.35167 0.0
C402 C 0.65637 0.80001 0.37871 0.0
C403 C 0.79763 0.26024 0.89161 0.0
C404 C 0.77277 0.22122 0.89561 0.0
C405 C 0.78956 0.28746 0.84641 0.0
C406 C 0.75648 0.27631 0.80454 0.0
H407 H 0.82593 0.2679 0.92046 0.0
H408 H 0.8111 0.31598 0.8424 0.0
S409 S 0.67884 0.18069 0.8 0.0
N410 N 0.71082 0.1752 0.85737 0.0
N411 N 0.696 0.22645 0.77243 0.0
C412 C 0.72915 0.23936 0.81047 0.0
C413 C 0.73715 0.21181 0.85634 0.0
C414 C 0.22848 0.25673 0.49019 0.0
C415 C 0.2731 0.23941 0.48636 0.0
C416 C 0.19248 0.23783 0.45734 0.0
C417 C 0.20017 0.201 0.4205 0.0
H418 H 0.22201 0.28651 0.51564 0.0
H419 H 0.15905 0.25331 0.45875 0.0
S420 S 0.30928 0.14064 0.40053 0.0
N421 N 0.32187 0.18127 0.44678 0.0
N422 N 0.25416 0.14591 0.38561 0.0
C423 C 0.24372 0.18189 0.41916 0.0
C424 C 0.28025 0.20108 0.45214 0.0
C425 C 0.2505 0.77612 0.90023 0.0
C426 C 0.25398 0.7913 0.95754 0.0
C427 C 0.28125 0.74515 0.87719 0.0
C428 C 0.31656 0.72895 0.91067 0.0
H429 H 0.22273 0.78703 0.87361 0.0
H430 H 0.27633 0.73265 0.83364 0.0
S431 S 0.3454 0.76406 0.05944 0.0
N432 N 0.2991 0.79261 0.04457 0.0
N433 N 0.35665 0.73313 1.00155 0.0
C434 C 0.3222 0.74566 0.96686 0.0
C435 C 0.29083 0.77728 0.99035 0.0
loop_
_geom_bond_atom_site_label_1
_geom_bond_atom_site_label_2
_geom_bond_distance
_geom_bond_site_symmetry_2
_ccdc_geom_bond_type
Zn0 O6 1.920 . S
Zn0 O12 1.898 . S
Zn0 O15 1.905 . S
Zn1 O9 1.905 . S
Zn1 O10 1.898 . S
Zn1 O18 1.920 . S
Zn2 O5 2.080 . S
Zn2 O8 2.114 1_554 S
Zn2 O11 2.120 1_554 S
Zn2 O13 2.120 . S
Zn2 O14 2.114 . S
Zn2 O17 2.080 1_554 S
C3 O8 1.166 . S
C3 O9 1.182 . S
C4 O10 1.167 . S
C4 O11 1.299 . S
O5 Zn2 2.080 . S
O5 C19 1.305 . S
O6 Zn0 1.920 . S
O6 C19 1.234 . S
C7 O12 1.167 . S
C7 O13 1.299 . S
O8 Zn2 2.114 1_556 S
O8 C3 1.166 . S
O9 Zn1 1.905 . S
O9 C3 1.182 . S
O10 Zn1 1.898 . S
O10 C4 1.167 . S
O11 Zn2 2.120 1_556 S
O11 C4 1.299 . S
O12 Zn0 1.898 . S
O12 C7 1.167 . S
O13 Zn2 2.120 . S
O13 C7 1.299 . S
O14 Zn2 2.114 . S
O14 C16 1.166 . S
O15 Zn0 1.905 . S
O15 C16 1.182 . S
C16 O14 1.166 . S
C16 O15 1.182 . S
O17 Zn2 2.080 1_556 S
O17 C20 1.305 . S
O18 Zn1 1.920 . S
O18 C20 1.234 . S
C19 O5 1.305 . S
C19 O6 1.234 . S
C20 O17 1.305 . S
C20 O18 1.234 . S
Zn21 O27 1.920 . S
Zn21 O33 1.898 . S
Zn21 O36 1.905 . S
Zn22 O30 1.905 . S
Zn22 O31 1.898 . S
Zn22 O39 1.920 . S
Zn23 O26 2.080 . S
Zn23 O29 2.114 . S
Zn23 O32 2.120 . S
Zn23 O34 2.120 . S
Zn23 O35 2.114 . S
Zn23 O38 2.080 . S
C24 O29 1.166 . S
C24 O30 1.182 . S
C25 O31 1.167 . S
C25 O32 1.299 . S
O26 Zn23 2.080 . S
O26 C40 1.305 . S
O27 Zn21 1.920 . S
O27 C40 1.234 . S
C28 O33 1.167 . S
C28 O34 1.299 . S
O29 Zn23 2.114 . S
O29 C24 1.166 . S
O30 Zn22 1.905 . S
O30 C24 1.182 . S
O31 Zn22 1.898 . S
O31 C25 1.167 . S
O32 Zn23 2.120 . S
O32 C25 1.299 . S
O33 Zn21 1.898 . S
O33 C28 1.167 . S
O34 Zn23 2.120 . S
O34 C28 1.299 . S
O35 Zn23 2.114 . S
O35 C37 1.166 . S
O36 Zn21 1.905 . S
O36 C37 1.182 . S
C37 O35 1.166 . S
C37 O36 1.182 . S
O38 Zn23 2.080 . S
O38 C41 1.305 . S
O39 Zn22 1.920 . S
O39 C41 1.234 . S
C40 O26 1.305 . S
C40 O27 1.234 . S
C41 O38 1.305 . S
C41 O39 1.234 . S
Zn42 O48 1.920 . S
Zn42 O54 1.898 . S
Zn42 O57 1.905 . S
Zn43 O51 1.905 . S
Zn43 O52 1.898 . S
Zn43 O60 1.920 . S
Zn44 O47 2.080 1_554 S
Zn44 O50 2.114 . S
Zn44 O53 2.120 . S
Zn44 O55 2.120 1_554 S
Zn44 O56 2.114 1_554 S
Zn44 O59 2.081 . S
C45 O50 1.166 . S
C45 O51 1.182 . S
C46 O52 1.167 . S
C46 O53 1.299 . S
O47 Zn44 2.080 1_556 S
O47 C61 1.305 . S
O48 Zn42 1.920 . S
O48 C61 1.234 . S
C49 O54 1.167 . S
C49 O55 1.299 . S
O50 Zn44 2.114 . S
O50 C45 1.166 . S
O51 Zn43 1.905 . S
O51 C45 1.182 . S
O52 Zn43 1.898 . S
O52 C46 1.167 . S
O53 Zn44 2.120 . S
O53 C46 1.299 . S
O54 Zn42 1.898 . S
O54 C49 1.167 . S
O55 Zn44 2.120 1_556 S
O55 C49 1.299 . S
O56 Zn44 2.114 1_556 S
O56 C58 1.166 . S
O57 Zn42 1.905 . S
O57 C58 1.182 . S
C58 O56 1.166 . S
C58 O57 1.182 . S
O59 Zn44 2.081 . S
O59 C62 1.305 . S
O60 Zn43 1.920 . S
O60 C62 1.234 . S
C61 O47 1.305 . S
C61 O48 1.234 . S
C62 O59 1.305 . S
C62 O60 1.234 . S
Zn63 O69 1.920 . S
Zn63 O75 1.898 . S
Zn63 O78 1.905 . S
Zn64 O72 1.905 . S
Zn64 O73 1.898 . S
Zn64 O81 1.920 . S
Zn65 O68 2.080 . S
Zn65 O71 2.114 . S
Zn65 O74 2.120 . S
Zn65 O76 2.120 . S
Zn65 O77 2.114 . S
Zn65 O80 2.080 . S
C66 O71 1.166 . S
C66 O72 1.182 . S
C67 O73 1.167 . S
C67 O74 1.299 . S
O68 Zn65 2.080 . S
O68 C82 1.305 . S
O69 Zn63 1.920 . S
O69 C82 1.234 . S
C70 O75 1.167 . S
C70 O76 1.299 . S
O71 Zn65 2.114 . S
O71 C66 1.166 . S
O72 Zn64 1.905 . S
O72 C66 1.182 . S
O73 Zn64 1.898 . S
O73 C67 1.167 . S
O74 Zn65 2.120 . S
O74 C67 1.299 . S
O75 Zn63 1.898 . S
O75 C70 1.167 . S
O76 Zn65 2.120 . S
O76 C70 1.299 . S
O77 Zn65 2.114 . S
O77 C79 1.166 . S
O78 Zn63 1.905 . S
O78 C79 1.182 . S
C79 O77 1.166 . S
C79 O78 1.182 . S
O80 Zn65 2.080 . S
O80 C83 1.305 . S
O81 Zn64 1.920 . S
O81 C83 1.234 . S
C82 O68 1.305 . S
C82 O69 1.234 . S
C83 O80 1.305 . S
C83 O81 1.234 . S
H84 C87 0.929 . S
H85 C90 0.929 . S
H86 C92 0.930 . S
C87 H84 0.929 . S
C87 C88 1.398 . S
C87 C89 1.396 . S
C88 C87 1.398 . S
C88 C92 1.407 . S
C89 C87 1.396 . S
C89 C90 1.394 . S
C90 H85 0.929 . S
C90 C89 1.394 . S
C90 C91 1.382 . S
C91 C90 1.382 . S
C91 C92 1.392 . S
C91 N93 1.420 . S
C92 H86 0.930 . S
C92 C88 1.407 . S
C92 C91 1.392 . S
N93 C91 1.420 . S
N93 C94 1.244 . S
C94 N93 1.244 . S
H95 C98 0.929 . S
H96 C101 0.929 . S
H97 C103 0.930 . S
C98 H95 0.929 . S
C98 C99 1.398 . S
C98 C100 1.396 . S
C99 C98 1.398 . S
C99 C103 1.407 . S
C100 C98 1.396 . S
C100 C101 1.394 . S
C101 H96 0.929 . S
C101 C100 1.394 . S
C101 C102 1.382 . S
C102 C101 1.382 . S
C102 C103 1.392 . S
C102 N104 1.420 . S
C103 H97 0.930 . S
C103 C99 1.407 . S
C103 C102 1.392 . S
N104 C102 1.420 . S
N104 C105 1.244 . S
C105 N104 1.244 . S
H106 C109 0.929 . S
H107 C112 0.929 . S
H108 C114 0.930 . S
C109 H106 0.929 . S
C109 C110 1.398 . S
C109 C111 1.396 . S
C110 C109 1.398 . S
C110 C114 1.407 . S
C111 C109 1.396 . S
C111 C112 1.394 . S
C112 H107 0.929 . S
C112 C111 1.394 . S
C112 C113 1.382 . S
C113 C112 1.382 . S
C113 C114 1.392 . S
C113 N115 1.420 . S
C114 H108 0.930 . S
C114 C110 1.407 . S
C114 C113 1.392 . S
N115 C113 1.420 . S
N115 C116 1.244 . S
C116 N115 1.244 . S
H117 C120 0.929 . S
H118 C123 0.929 . S
H119 C125 0.930 . S
C120 H117 0.929 . S
C120 C121 1.398 . S
C120 C122 1.396 . S
C121 C120 1.398 . S
C121 C125 1.407 . S
C122 C120 1.396 . S
C122 C123 1.394 . S
C123 H118 0.929 . S
C123 C122 1.394 . S
C123 C124 1.382 . S
C124 C123 1.382 . S
C124 C125 1.392 . S
C124 N126 1.420 . S
C125 H119 0.930 . S
C125 C121 1.407 . S
C125 C124 1.392 . S
N126 C124 1.420 . S
N126 C127 1.244 . S
C127 N126 1.244 . S
H128 C131 0.929 . S
H129 C134 0.929 . S
H130 C136 0.930 . S
C131 H128 0.929 . S
C131 C132 1.398 . S
C131 C133 1.396 . S
C132 C131 1.398 . S
C132 C136 1.407 . S
C133 C131 1.396 . S
C133 C134 1.394 . S
C134 H129 0.929 . S
C134 C133 1.394 . S
C134 C135 1.382 . S
C135 C134 1.382 . S
C135 C136 1.392 . S
C135 N137 1.420 . S
C136 H130 0.930 . S
C136 C132 1.407 . S
C136 C135 1.392 . S
N137 C135 1.420 . S
N137 C138 1.244 . S
C138 N137 1.244 . S
H139 C142 0.929 . S
H140 C145 0.929 . S
H141 C147 0.930 . S
C142 H139 0.929 . S
C142 C143 1.398 . S
C142 C144 1.396 . S
C143 C142 1.398 . S
C143 C147 1.407 . S
C144 C142 1.396 . S
C144 C145 1.394 . S
C145 H140 0.929 . S
C145 C144 1.394 . S
C145 C146 1.382 . S
C146 C145 1.382 . S
C146 C147 1.392 . S
C146 N148 1.420 . S
C147 H141 0.930 . S
C147 C143 1.407 . S
C147 C146 1.392 . S
N148 C146 1.420 . S
N148 C149 1.244 . S
C149 N148 1.244 . S
H150 C153 0.929 . S
H151 C156 0.929 . S
H152 C158 0.930 . S
C153 H150 0.929 . S
C153 C154 1.398 . S
C153 C155 1.396 . S
C154 C153 1.398 . S
C154 C158 1.407 . S
C155 C153 1.396 . S
C155 C156 1.394 . S
C156 H151 0.929 . S
C156 C155 1.394 . S
C156 C157 1.382 . S
C157 C156 1.382 . S
C157 C158 1.392 . S
C157 N159 1.420 . S
C158 H152 0.930 . S
C158 C154 1.407 . S
C158 C157 1.392 . S
N159 C157 1.420 . S
N159 C160 1.244 . S
C160 N159 1.244 . S
H161 C164 0.929 . S
H162 C167 0.929 . S
H163 C169 0.930 . S
C164 H161 0.929 . S
C164 C165 1.398 . S
C164 C166 1.396 . S
C165 C164 1.398 . S
C165 C169 1.407 . S
C166 C164 1.396 . S
C166 C167 1.394 . S
C167 H162 0.929 . S
C167 C166 1.394 . S
C167 C168 1.382 . S
C168 C167 1.382 . S
C168 C169 1.392 . S
C168 N170 1.420 . S
C169 H163 0.930 . S
C169 C165 1.407 . S
C169 C168 1.392 . S
N170 C168 1.420 . S
N170 C171 1.244 . S
C171 N170 1.244 . S
C172 C173 1.369 . S
C172 C174 1.419 1_565 S
C172 H176 0.930 . S
C173 C172 1.369 . S
C173 C182 1.429 . S
C174 C172 1.419 1_545 S
C174 C175 1.363 . S
C174 H177 0.929 . S
C175 C174 1.363 . S
C175 C181 1.428 . S
H176 C172 0.930 . S
H177 C174 0.929 . S
S178 N179 1.613 . S
S178 N180 1.610 1_565 S
N179 S178 1.613 . S
N179 C182 1.350 . S
N180 S178 1.610 1_545 S
N180 C181 1.351 . S
C181 C175 1.428 . S
C181 N180 1.351 . S
C181 C182 1.434 1_545 S
C182 C173 1.429 . S
C182 N179 1.350 . S
C182 C181 1.434 1_565 S
C183 C184 1.369 . S
C183 C185 1.419 . S
C183 H187 0.930 . S
C184 C183 1.369 . S
C184 C193 1.429 . S
C185 C183 1.419 . S
C185 C186 1.363 . S
C185 H188 0.929 . S
C186 C185 1.363 . S
C186 C192 1.428 . S
H187 C183 0.930 . S
H188 C185 0.929 . S
S189 N190 1.613 . S
S189 N191 1.610 . S
N190 S189 1.613 . S
N190 C193 1.350 . S
N191 S189 1.610 . S
N191 C192 1.351 . S
C192 C186 1.428 . S
C192 N191 1.351 . S
C192 C193 1.434 . S
C193 C184 1.429 . S
C193 N190 1.350 . S
C193 C192 1.434 . S
C194 C195 1.369 . S
C194 C196 1.419 . S
C194 H198 0.930 . S
C195 C194 1.369 . S
C195 C204 1.429 1_545 S
C196 C194 1.419 . S
C196 C197 1.363 1_545 S
C196 H199 0.929 . S
C197 C196 1.363 1_565 S
C197 C203 1.428 . S
H198 C194 0.930 . S
H199 C196 0.929 . S
S200 N201 1.613 . S
S200 N202 1.610 . S
N201 S200 1.613 . S
N201 C204 1.350 . S
N202 S200 1.610 . S
N202 C203 1.351 . S
C203 C197 1.428 . S
C203 N202 1.351 . S
C203 C204 1.434 . S
C204 C195 1.429 1_565 S
C204 N201 1.350 . S
C204 C203 1.434 . S
C205 C206 1.369 . S
C205 C207 1.419 . S
C205 H209 0.930 . S
C206 C205 1.369 . S
C206 C215 1.429 . S
C207 C205 1.419 . S
C207 C208 1.363 . S
C207 H210 0.929 . S
C208 C207 1.363 . S
C208 C214 1.428 . S
H209 C205 0.930 . S
H210 C207 0.929 . S
S211 N212 1.613 . S
S211 N213 1.610 . S
N212 S211 1.613 . S
N212 C215 1.350 . S
N213 S211 1.610 . S
N213 C214 1.351 . S
C214 C208 1.428 . S
C214 N213 1.351 . S
C214 C215 1.434 . S
C215 C206 1.429 . S
C215 N212 1.350 . S
C215 C214 1.434 . S
C216 C217 1.369 . S
C216 C218 1.419 . S
C216 H220 0.930 . S
C217 C216 1.369 . S
C217 C226 1.429 . S
C218 C216 1.419 . S
C218 C219 1.363 . S
C218 H221 0.929 . S
C219 C218 1.363 . S
C219 C225 1.428 . S
H220 C216 0.930 . S
H221 C218 0.929 . S
S222 N223 1.613 . S
S222 N224 1.610 . S
N223 S222 1.613 . S
N223 C226 1.350 . S
N224 S222 1.610 . S
N224 C225 1.351 . S
C225 C219 1.428 . S
C225 N224 1.351 . S
C225 C226 1.434 . S
C226 C217 1.429 . S
C226 N223 1.350 . S
C226 C225 1.434 . S
C227 C228 1.369 1_455 S
C227 C229 1.419 . S
C227 H231 0.930 . S
C228 C227 1.369 1_655 S
C228 C237 1.429 . S
C229 C227 1.419 . S
C229 C230 1.363 . S
C229 H232 0.929 . S
C230 C229 1.363 . S
C230 C236 1.428 . S
H231 C227 0.930 . S
H232 C229 0.929 . S
S233 N234 1.613 . S
S233 N235 1.610 1_655 S
N234 S233 1.613 . S
N234 C237 1.350 . S
N235 S233 1.610 1_455 S
N235 C236 1.351 . S
C236 C230 1.428 . S
C236 N235 1.351 . S
C236 C237 1.434 1_455 S
C237 C228 1.429 . S
C237 N234 1.350 . S
C237 C236 1.434 1_655 S
C238 C239 1.369 . S
C238 C240 1.419 . S
C238 H242 0.930 . S
C239 C238 1.369 . S
C239 C248 1.429 . S
C240 C238 1.419 . S
C240 C241 1.363 . S
C240 H243 0.929 . S
C241 C240 1.363 . S
C241 C247 1.428 . S
H242 C238 0.930 . S
H243 C240 0.929 . S
S244 N245 1.613 . S
S244 N246 1.610 . S
N245 S244 1.613 . S
N245 C248 1.350 . S
N246 S244 1.610 . S
N246 C247 1.351 . S
C247 C241 1.428 . S
C247 N246 1.351 . S
C247 C248 1.434 . S
C248 C239 1.429 . S
C248 N245 1.350 . S
C248 C247 1.434 . S
C249 C250 1.369 . S
C249 C251 1.419 . S
C249 H253 0.930 . S
C250 C249 1.369 . S
C250 C259 1.429 1_455 S
C251 C249 1.419 . S
C251 C252 1.363 1_455 S
C251 H254 0.929 . S
C252 C251 1.363 1_655 S
C252 C258 1.428 . S
H253 C249 0.930 . S
H254 C251 0.929 . S
S255 N256 1.613 . S
S255 N257 1.610 . S
N256 S255 1.613 . S
N256 C259 1.350 . S
N257 S255 1.610 . S
N257 C258 1.351 . S
C258 C252 1.428 . S
C258 N257 1.351 . S
C258 C259 1.434 . S
C259 C250 1.429 1_655 S
C259 N256 1.350 . S
C259 C258 1.434 . S
C260 C261 1.369 . S
C260 C262 1.419 1_545 S
C260 H264 0.930 . S
C261 C260 1.369 . S
C261 C270 1.429 1_545 S
C262 C260 1.419 1_565 S
C262 C263 1.363 . S
C262 H265 0.929 . S
C263 C262 1.363 . S
C263 C269 1.428 . S
H264 C260 0.930 . S
H265 C262 0.929 . S
S266 N267 1.613 . S
S266 N268 1.610 . S
N267 S266 1.613 . S
N267 C270 1.350 . S
N268 S266 1.610 . S
N268 C269 1.351 . S
C269 C263 1.428 . S
C269 N268 1.351 . S
C269 C270 1.434 . S
C270 C261 1.429 1_565 S
C270 N267 1.350 . S
C270 C269 1.434 . S
C271 C272 1.369 . S
C271 C273 1.419 . S
C271 H275 0.930 . S
C272 C271 1.369 . S
C272 C281 1.429 . S
C273 C271 1.419 . S
C273 C274 1.363 . S
C273 H276 0.929 . S
C274 C273 1.363 . S
C274 C280 1.428 . S
H275 C271 0.930 . S
H276 C273 0.929 . S
S277 N278 1.613 . S
S277 N279 1.610 . S
N278 S277 1.613 . S
N278 C281 1.350 . S
N279 S277 1.610 . S
N279 C280 1.351 . S
C280 C274 1.428 . S
C280 N279 1.351 . S
C280 C281 1.434 . S
C281 C272 1.429 . S
C281 N278 1.350 . S
C281 C280 1.434 . S
C282 C283 1.369 1_545 S
C282 C284 1.419 . S
C282 H286 0.930 . S
C283 C282 1.369 1_565 S
C283 C292 1.429 1_565 S
C284 C282 1.419 . S
C284 C285 1.363 . S
C284 H287 0.929 . S
C285 C284 1.363 . S
C285 C291 1.428 . S
H286 C282 0.930 . S
H287 C284 0.929 . S
S288 N289 1.605 1_544 S
S288 N290 1.603 1_554 S
N289 S288 1.605 1_566 S
N289 C292 1.345 1_565 S
N290 S288 1.603 1_556 S
N290 C291 1.351 . S
C291 C285 1.428 . S
C291 N290 1.351 . S
C291 C292 1.434 . S
C292 C283 1.429 1_545 S
C292 N289 1.345 1_545 S
C292 C291 1.434 . S
C293 C294 1.369 . S
C293 C295 1.419 . S
C293 H297 0.930 . S
C294 C293 1.369 . S
C294 C303 1.429 . S
C295 C293 1.419 . S
C295 C296 1.363 . S
C295 H298 0.929 . S
C296 C295 1.363 . S
C296 C302 1.428 . S
H297 C293 0.930 . S
H298 C295 0.929 . S
S299 N300 1.613 . S
S299 N301 1.610 . S
N300 S299 1.613 . S
N300 C303 1.350 . S
N301 S299 1.610 . S
N301 C302 1.351 . S
C302 C296 1.428 . S
C302 N301 1.351 . S
C302 C303 1.434 . S
C303 C294 1.429 . S
C303 N300 1.350 . S
C303 C302 1.434 . S
C304 C305 1.369 . S
C304 C306 1.419 . S
C304 H308 0.930 . S
C305 C304 1.369 . S
C305 C314 1.429 . S
C306 C304 1.419 . S
C306 C307 1.363 . S
C306 H309 0.929 . S
C307 C306 1.363 . S
C307 C313 1.428 . S
H308 C304 0.930 . S
H309 C306 0.929 . S
S310 N311 1.613 . S
S310 N312 1.610 . S
N311 S310 1.613 . S
N311 C314 1.350 . S
N312 S310 1.610 . S
N312 C313 1.351 . S
C313 C307 1.428 . S
C313 N312 1.351 . S
C313 C314 1.434 . S
C314 C305 1.429 . S
C314 N311 1.350 . S
C314 C313 1.434 . S
C315 C316 1.369 . S
C315 C317 1.419 . S
C315 H319 0.930 . S
C316 C315 1.369 . S
C316 C325 1.429 . S
C317 C315 1.419 . S
C317 C318 1.363 . S
C317 H320 0.929 . S
C318 C317 1.363 . S
C318 C324 1.428 . S
H319 C315 0.930 . S
H320 C317 0.929 . S
S321 N322 1.613 . S
S321 N323 1.610 . S
N322 S321 1.613 . S
N322 C325 1.350 . S
N323 S321 1.610 . S
N323 C324 1.351 . S
C324 C318 1.428 . S
C324 N323 1.351 . S
C324 C325 1.434 . S
C325 C316 1.429 . S
C325 N322 1.350 . S
C325 C324 1.434 . S
C326 C327 1.369 . S
C326 C328 1.419 . S
C326 H330 0.930 . S
C327 C326 1.369 . S
C327 C336 1.429 . S
C328 C326 1.419 . S
C328 C329 1.363 . S
C328 H331 0.929 . S
C329 C328 1.363 . S
C329 C335 1.428 . S
H330 C326 0.930 . S
H331 C328 0.929 . S
S332 N333 1.613 . S
S332 N334 1.610 . S
N333 S332 1.613 . S
N333 C336 1.350 . S
N334 S332 1.610 . S
N334 C335 1.351 . S
C335 C329 1.428 . S
C335 N334 1.351 . S
C335 C336 1.434 . S
C336 C327 1.429 . S
C336 N333 1.350 . S
C336 C335 1.434 . S
C337 C338 1.369 1_455 S
C337 C339 1.419 . S
C337 H341 0.930 . S
C338 C337 1.369 1_655 S
C338 C347 1.429 1_655 S
C339 C337 1.419 . S
C339 C340 1.363 . S
C339 H342 0.929 . S
C340 C339 1.363 . S
C340 C346 1.428 . S
H341 C337 0.930 . S
H342 C339 0.929 . S
S343 N344 1.613 1_455 S
S343 N345 1.610 . S
N344 S343 1.613 1_655 S
N344 C347 1.350 1_655 S
N345 S343 1.610 . S
N345 C346 1.351 . S
C346 C340 1.428 . S
C346 N345 1.351 . S
C346 C347 1.434 . S
C347 C338 1.429 1_455 S
C347 N344 1.350 1_455 S
C347 C346 1.434 . S
C348 C349 1.369 . S
C348 C350 1.419 . S
C348 H352 0.930 . S
C349 C348 1.369 . S
C349 C358 1.429 . S
C350 C348 1.419 . S
C350 C351 1.363 . S
C350 H353 0.929 . S
C351 C350 1.363 . S
C351 C357 1.428 . S
H352 C348 0.930 . S
H353 C350 0.929 . S
S354 N355 1.613 . S
S354 N356 1.610 . S
N355 S354 1.613 . S
N355 C358 1.350 . S
N356 S354 1.610 . S
N356 C357 1.351 . S
C357 C351 1.428 . S
C357 N356 1.351 . S
C357 C358 1.434 . S
C358 C349 1.429 . S
C358 N355 1.350 . S
C358 C357 1.434 . S
C359 C360 1.369 . S
C359 C361 1.419 . S
C359 H363 0.930 . S
C360 C359 1.369 . S
C360 C369 1.429 . S
C361 C359 1.419 . S
C361 C362 1.363 . S
C361 H364 0.929 . S
C362 C361 1.363 . S
C362 C368 1.428 . S
H363 C359 0.930 . S
H364 C361 0.929 . S
S365 N366 1.613 . S
S365 N367 1.610 . S
N366 S365 1.613 . S
N366 C369 1.350 . S
N367 S365 1.610 . S
N367 C368 1.351 . S
C368 C362 1.428 . S
C368 N367 1.351 . S
C368 C369 1.434 . S
C369 C360 1.429 . S
C369 N366 1.350 . S
C369 C368 1.434 . S
C370 C371 1.369 . S
C370 C372 1.419 . S
C370 H374 0.930 . S
C371 C370 1.369 . S
C371 C380 1.429 . S
C372 C370 1.419 . S
C372 C373 1.363 . S
C372 H375 0.929 . S
C373 C372 1.363 . S
C373 C379 1.428 . S
H374 C370 0.930 . S
H375 C372 0.929 . S
S376 N377 1.613 . S
S376 N378 1.610 . S
N377 S376 1.613 . S
N377 C380 1.350 . S
N378 S376 1.610 . S
N378 C379 1.351 . S
C379 C373 1.428 . S
C379 N378 1.351 . S
C379 C380 1.434 . S
C380 C371 1.429 . S
C380 N377 1.350 . S
C380 C379 1.434 . S
C381 C382 1.369 . S
C381 C383 1.419 . S
C381 H385 0.930 . S
C382 C381 1.369 . S
C382 C391 1.429 . S
C383 C381 1.419 . S
C383 C384 1.363 . S
C383 H386 0.929 . S
C384 C383 1.363 . S
C384 C390 1.428 . S
H385 C381 0.930 . S
H386 C383 0.929 . S
S387 N388 1.613 . S
S387 N389 1.610 . S
N388 S387 1.613 . S
N388 C391 1.350 . S
N389 S387 1.610 . S
N389 C390 1.351 . S
C390 C384 1.428 . S
C390 N389 1.351 . S
C390 C391 1.434 . S
C391 C382 1.429 . S
C391 N388 1.350 . S
C391 C390 1.434 . S
C392 C393 1.369 . S
C392 C394 1.419 . S
C392 H396 0.930 . S
C393 C392 1.369 . S
C393 C402 1.429 . S
C394 C392 1.419 . S
C394 C395 1.363 . S
C394 H397 0.929 . S
C395 C394 1.363 . S
C395 C401 1.428 . S
H396 C392 0.930 . S
H397 C394 0.929 . S
S398 N399 1.613 . S
S398 N400 1.610 . S
N399 S398 1.613 . S
N399 C402 1.350 . S
N400 S398 1.610 . S
N400 C401 1.351 . S
C401 C395 1.428 . S
C401 N400 1.351 . S
C401 C402 1.434 . S
C402 C393 1.429 . S
C402 N399 1.350 . S
C402 C401 1.434 . S
C403 C404 1.369 . S
C403 C405 1.419 . S
C403 H407 0.930 . S
C404 C403 1.369 . S
C404 C413 1.429 . S
C405 C403 1.419 . S
C405 C406 1.363 . S
C405 H408 0.929 . S
C406 C405 1.363 . S
C406 C412 1.428 . S
H407 C403 0.930 . S
H408 C405 0.929 . S
S409 N410 1.613 . S
S409 N411 1.610 . S
N410 S409 1.613 . S
N410 C413 1.350 . S
N411 S409 1.610 . S
N411 C412 1.351 . S
C412 C406 1.428 . S
C412 N411 1.351 . S
C412 C413 1.434 . S
C413 C404 1.429 . S
C413 N410 1.350 . S
C413 C412 1.434 . S
C414 C415 1.369 . S
C414 C416 1.419 . S
C414 H418 0.930 . S
C415 C414 1.369 . S
C415 C424 1.429 . S
C416 C414 1.419 . S
C416 C417 1.363 . S
C416 H419 0.929 . S
C417 C416 1.363 . S
C417 C423 1.428 . S
H418 C414 0.930 . S
H419 C416 0.929 . S
S420 N421 1.613 . S
S420 N422 1.610 . S
N421 S420 1.613 . S
N421 C424 1.350 . S
N422 S420 1.610 . S
N422 C423 1.351 . S
C423 C417 1.428 . S
C423 N422 1.351 . S
C423 C424 1.434 . S
C424 C415 1.429 . S
C424 N421 1.350 . S
C424 C423 1.434 . S
C425 C426 1.369 . S
C425 C427 1.419 . S
C425 H429 0.930 . S
C426 C425 1.369 . S
C426 C435 1.429 . S
C427 C425 1.419 . S
C427 C428 1.363 . S
C427 H430 0.929 . S
C428 C427 1.363 . S
C428 C434 1.428 . S
H429 C425 0.930 . S
H430 C427 0.929 . S
S431 N432 1.613 . S
S431 N433 1.610 1_554 S
N432 S431 1.613 . S
N432 C435 1.350 1_554 S
N433 S431 1.610 1_556 S
N433 C434 1.351 . S
C434 C428 1.428 . S
C434 N433 1.351 . S
C434 C435 1.434 . S
C435 C426 1.429 . S
C435 N432 1.350 1_556 S
C435 C434 1.434 . S
C173 C7 0.976 . S
C175 C89 1.003 . S
C184 C25 1.014 . S
C186 C100 1.038 . S
C195 C46 1.034 . S
C197 C110 1.047 . S
C208 C122 0.945 . S
C206 C70 0.949 . S
C219 C133 1.003 . S
C217 C28 0.971 . S
C228 C49 0.937 . S
C230 C144 0.953 . S
C239 C67 1.024 . S
C241 C154 1.057 . S
C250 C4 1.018 . S
C252 C166 1.044 . S
C261 C58 1.516 . S
C263 C165 1.609 . S
C274 C132 1.528 . S
C272 C66 1.447 . S
C285 C143 1.629 . S
C283 C3 1.585 . S
C294 C37 1.656 . S
C296 C155 1.704 . S
C307 C99 1.612 . S
C305 C79 1.505 . S
C316 C16 1.654 1_655 S
C318 C111 1.706 . S
C329 C121 1.628 . S
C327 C24 1.578 . S
C340 C88 1.530 . S
C338 C45 1.443 . S
C351 C160 1.492 . S
C349 C19 1.314 . S
C362 C171 1.494 . S
C360 C41 1.354 . S
C371 C62 1.293 . S
C373 C138 1.406 . S
C384 C149 1.387 . S
C382 C82 1.220 . S
C395 C116 1.493 . S
C393 C40 1.319 . S
C404 C61 1.222 . S
C406 C127 1.386 . S
C417 C94 1.407 . S
C415 C83 1.298 . S
C428 C105 1.496 . S
C426 C20 1.364 . S
