# Generated by pormake.
# Topology anh, (6,3)-cn, num edge types: 1
# Building blocks:
#     Node 0, Type 0, BuildingBlock: BETDAH_clean_sbu_0, # of connection points: 6
#     Node 1, Type 0, BuildingBlock: BETDAH_clean_sbu_0, # of connection points: 6
#     Node 2, Type 0, BuildingBlock: BETDAH_clean_sbu_0, # of connection points: 6
#     Node 3, Type 1, BuildingBlock: CUQRIR_clean_linker_1, # of connection points: 3
#     Node 4, Type 1, BuildingBlock: CUQRIR_clean_linker_1, # of connection points: 3
#     Node 5, Type 1, BuildingBlock: CUQRIR_clean_linker_1, # of connection points: 3
#     Node 6, Type 1, BuildingBlock: CUQRIR_clean_linker_1, # of connection points: 3
#     Node 7, Type 1, BuildingBlock: CUQRIR_clean_linker_1, # of connection points: 3
#     Node 8, Type 1, BuildingBlock: CUQRIR_clean_linker_1, # of connection points: 3
#     Edge 9, Type (0, 1), BuildingBlock: XIVTED_clean_linker_0, # of connection points: 2
#     Edge 10, Type (0, 1), BuildingBlock: XIVTED_clean_linker_0, # of connection points: 2
#     Edge 11, Type (0, 1), BuildingBlock: XIVTED_clean_linker_0, # of connection points: 2
#     Edge 12, Type (0, 1), BuildingBlock: XIVTED_clean_linker_0, # of connection points: 2
#     Edge 13, Type (0, 1), BuildingBlock: XIVTED_clean_linker_0, # of connection points: 2
#     Edge 14, Type (0, 1), BuildingBlock: XIVTED_clean_linker_0, # of connection points: 2
#     Edge 15, Type (0, 1), BuildingBlock: XIVTED_clean_linker_0, # of connection points: 2
#     Edge 16, Type (0, 1), BuildingBlock: XIVTED_clean_linker_0, # of connection points: 2
#     Edge 17, Type (0, 1), BuildingBlock: XIVTED_clean_linker_0, # of connection points: 2
#     Edge 18, Type (0, 1), BuildingBlock: XIVTED_clean_linker_0, # of connection points: 2
#     Edge 19, Type (0, 1), BuildingBlock: XIVTED_clean_linker_0, # of connection points: 2
#     Edge 20, Type (0, 1), BuildingBlock: XIVTED_clean_linker_0, # of connection points: 2
#     Edge 21, Type (0, 1), BuildingBlock: XIVTED_clean_linker_0, # of connection points: 2
#     Edge 22, Type (0, 1), BuildingBlock: XIVTED_clean_linker_0, # of connection points: 2
#     Edge 23, Type (0, 1), BuildingBlock: XIVTED_clean_linker_0, # of connection points: 2
#     Edge 24, Type (0, 1), BuildingBlock: XIVTED_clean_linker_0, # of connection points: 2
#     Edge 25, Type (0, 1), BuildingBlock: XIVTED_clean_linker_0, # of connection points: 2
#     Edge 26, Type (0, 1), BuildingBlock: XIVTED_clean_linker_0, # of connection points: 2
# Relax obj value: 0.204
# Max RMSD: 0.217
# Mean RMSD: 0.165
data_MOF--net-anh--node1-BETDAH_clean_sbu_0--node2-CUQRIR_clean_linker_1--edge1-XIVTED_clean_linker_0
_symmetry_space_group_name_H-M    P1
_symmetry_Int_Tables_number       1
_symmetry_cell_setting            triclinic
loop_
_symmetry_equiv_pos_as_xyz
'x, y, z'
_cell_length_a     29.562079
_cell_length_b     35.370573
_cell_length_c     46.826916
_cell_angle_alpha  88.198748
_cell_angle_beta   90.432569
_cell_angle_gamma 130.18959
loop_
_atom_site_label
_atom_site_type_symbol
_atom_site_fract_x
_atom_site_fract_y
_atom_site_fract_z
_atom_type_partial_charge
Ho0 Ho 0.12614 0.4662 0.14972 0.0
Ho1 Ho 1.06098 0.4967 0.14379 0.0
C2 C 0.19435 0.58367 0.15339 0.0
C3 C 0.20544 0.45677 0.15262 0.0
C4 C 0.25333 0.47773 0.17316 0.0
C5 C 0.27788 0.52236 0.1864 0.0
C6 C 0.32226 0.54128 0.20662 0.0
C7 C 0.3419 0.51535 0.21426 0.0
C8 C 0.31531 0.46965 0.20172 0.0
C9 C 0.27148 0.45109 0.18135 0.0
C10 C 0.08269 0.46554 0.20099 0.0
C11 C 0.99219 0.3791 0.14302 0.0
C12 C 0.98093 0.50541 0.14154 0.0
C13 C 0.92586 0.47846 0.12536 0.0
C14 C 0.88612 0.42645 0.12453 0.0
C15 C 0.83472 0.40174 0.10842 0.0
C16 C 0.82277 0.4287 0.0926 0.0
C17 C 0.86371 0.48079 0.09281 0.0
C18 C 0.91465 0.50536 0.10908 0.0
C19 C 0.10815 0.50048 0.09303 0.0
O20 O 0.19834 0.55055 0.14494 0.0
O21 O 0.14174 0.56888 0.15992 0.0
O22 O 0.15252 0.42423 0.16372 0.0
O23 O 0.20959 0.48818 0.13489 0.0
O24 O 0.08277 0.4313 0.19263 0.0
O25 O 0.10628 0.49933 0.1819 0.0
O26 O 0.98958 0.41323 0.1507 0.0
O27 O 1.04377 0.39293 0.13527 0.0
O28 O 1.02929 0.53284 0.12601 0.0
O29 O 0.98293 0.48061 0.16201 0.0
O30 O 0.10992 0.53514 0.10258 0.0
O31 O 0.08185 0.46461 0.11106 0.0
H32 H 0.26323 0.54287 0.18093 0.0
H33 H 0.34214 0.57662 0.21577 0.0
H34 H 0.33037 0.44925 0.20655 0.0
H35 H 0.25221 0.41617 0.17175 0.0
H36 H 0.89431 0.40482 0.13652 0.0
H37 H 0.80379 0.36163 0.10878 0.0
H38 H 0.8551 0.50268 0.08144 0.0
H39 H 0.94508 0.54547 0.10917 0.0
Ho40 Ho 0.71625 0.06033 0.46884 0.0
Ho41 Ho 0.63779 0.08414 0.45382 0.0
C42 C 0.57492 0.9706 0.45831 0.0
C43 C 0.76551 0.0282 0.49302 0.0
C44 C 0.74992 0.98112 0.50288 0.0
C45 C 0.69773 0.93544 0.49425 0.0
C46 C 0.68487 0.89125 0.50333 0.0
C47 C 0.72421 0.89209 0.52107 0.0
C48 C 0.77601 0.93806 0.52991 0.0
C49 C 0.78865 0.9821 0.52092 0.0
C50 C 0.71075 0.07493 0.41236 0.0
C51 C 0.78089 0.17483 0.45993 0.0
C52 C 0.58948 0.11941 0.43359 0.0
C53 C 0.59748 0.16395 0.43946 0.0
C54 C 0.6434 0.20023 0.45704 0.0
C55 C 0.64809 0.24056 0.46453 0.0
C56 C 0.60668 0.24517 0.45473 0.0
C57 C 0.56147 0.20918 0.4366 0.0
C58 C 0.55695 0.1689 0.42904 0.0
C59 C 0.64421 0.07022 0.51031 0.0
O60 O 0.62285 0.98471 0.47208 0.0
O61 O 0.57453 1.00356 0.4445 0.0
O62 O 0.76576 0.03504 0.46541 0.0
O63 O 0.7416 0.04278 0.50725 0.0
O64 O 0.75829 0.08856 0.42491 0.0
O65 O 0.66791 0.05172 0.42994 0.0
O66 O 0.72941 0.15971 0.45043 0.0
O67 O 0.78623 0.14316 0.47126 0.0
O68 O 0.5668 0.08676 0.45476 0.0
O69 O 0.63421 0.12682 0.42115 0.0
O70 O 0.59665 0.05611 0.49779 0.0
O71 O 0.68689 0.09372 0.49266 0.0
H72 H 0.66746 0.93404 0.48022 0.0
H73 H 0.64491 0.85654 0.49589 0.0
H74 H 0.8068 0.94003 0.54388 0.0
H75 H 0.82903 0.01705 0.52788 0.0
H76 H 0.67472 0.1967 0.46557 0.0
H77 H 0.68291 0.26716 0.47884 0.0
H78 H 0.52927 0.21192 0.42844 0.0
H79 H 0.52113 0.14112 0.41552 0.0
Ho80 Ho 0.62529 0.60596 0.83298 0.0
Ho81 Ho 0.54135 0.4984 0.84668 0.0
C82 C 0.47979 0.54982 0.84383 0.0
C83 C 0.67883 0.69214 0.80819 0.0
C84 C 0.66825 0.72687 0.80128 0.0
C85 C 0.61258 0.71023 0.7926 0.0
C86 C 0.60478 0.74429 0.78488 0.0
C87 C 0.65245 0.79563 0.78573 0.0
C88 C 0.70777 0.8119 0.79495 0.0
C89 C 0.71552 0.77788 0.80258 0.0
C90 C 0.61368 0.58323 0.88902 0.0
C91 C 0.68758 0.55493 0.84015 0.0
C92 C 0.49005 0.40948 0.86582 0.0
C93 C 0.50218 0.37548 0.86099 0.0
C94 C 0.55727 0.38884 0.86758 0.0
C95 C 0.57063 0.35917 0.85957 0.0
C96 C 0.52913 0.31529 0.84493 0.0
C97 C 0.47314 0.30096 0.83945 0.0
C98 C 0.45987 0.33072 0.84739 0.0
C99 C 0.55525 0.52282 0.79042 0.0
O100 O 0.53348 0.58914 0.83323 0.0
O101 O 0.47342 0.51049 0.8535 0.0
O102 O 0.68509 0.68601 0.83516 0.0
O103 O 0.64731 0.65066 0.79458 0.0
O104 O 0.66328 0.62013 0.87667 0.0
O105 O 0.57188 0.56202 0.87149 0.0
O106 O 0.63232 0.51466 0.84805 0.0
O107 O 0.69583 0.59549 0.83129 0.0
O108 O 0.47186 0.41921 0.84351 0.0
O109 O 0.52886 0.44898 0.88046 0.0
O110 O 0.50503 0.48678 0.80248 0.0
O111 O 0.59587 0.54243 0.80846 0.0
H112 H 0.57532 0.67099 0.79144 0.0
H113 H 0.56169 0.73035 0.7777 0.0
H114 H 0.74517 0.85102 0.79646 0.0
H115 H 0.75876 0.7915 0.80933 0.0
H116 H 0.59067 0.42283 0.87831 0.0
H117 H 0.61379 0.37093 0.8646 0.0
H118 H 0.44025 0.26769 0.82801 0.0
H119 H 0.41709 0.31953 0.84205 0.0
C120 C 0.59623 0.98224 0.1652 0.0
N121 N 0.63303 0.0207 0.18284 0.0
N122 N 0.551 0.94079 0.18032 0.0
C123 C 0.60224 0.98583 0.13324 0.0
C124 C 0.56176 0.95539 0.20766 0.0
N125 N 0.61084 1.00365 0.2092 0.0
C126 C 0.52607 0.92141 0.23311 0.0
H127 H 0.61931 0.02279 0.12503 0.0
H128 H 0.5592 0.95652 0.12326 0.0
H129 H 0.63442 0.98106 0.12709 0.0
H130 H 0.55478 0.93172 0.25182 0.0
H131 H 0.50292 0.88226 0.22831 0.0
H132 H 0.49235 0.92464 0.23881 0.0
C133 C 0.65078 0.55378 0.53845 0.0
N134 N 0.64591 0.57523 0.56034 0.0
N135 N 0.62905 0.50753 0.54634 0.0
C136 C 0.67264 0.57642 0.5088 0.0
C137 C 0.61073 0.50157 0.57376 0.0
N138 N 0.6204 0.54249 0.58217 0.0
C139 C 0.58757 0.45728 0.59295 0.0
H140 H 0.65338 0.54743 0.49273 0.0
H141 H 0.72154 0.59984 0.50791 0.0
H142 H 0.66136 0.60019 0.50328 0.0
H143 H 0.60384 0.43827 0.58576 0.0
H144 H 0.53848 0.43079 0.5924 0.0
H145 H 0.6011 0.46831 0.61536 0.0
C146 C 0.08428 0.55142 0.8446 0.0
N147 N 0.11492 0.54165 0.86184 0.0
N148 N 1.03659 0.54302 0.8587 0.0
C149 C 0.09943 0.56734 0.81378 0.0
C150 C 1.04093 0.52867 0.88514 0.0
N151 N 0.08604 0.52729 0.88691 0.0
C152 C 1.00312 0.51932 0.91042 0.0
H153 H 0.1372 0.60777 0.81226 0.0
H154 H 1.06124 0.55954 0.80242 0.0
H155 H 0.1133 0.5483 0.80353 0.0
H156 H 0.96467 0.4791 0.9125 0.0
H157 H 0.98642 0.53968 0.90779 0.0
H158 H 1.02829 0.5308 0.93055 0.0
C159 C 0.17843 0.57123 0.4468 0.0
N160 N 0.13829 0.53538 0.42853 0.0
N161 N 0.21782 0.61558 0.43254 0.0
C162 C 0.17713 0.56379 0.4786 0.0
C163 C 0.20044 0.60537 0.40506 0.0
N164 N 0.15198 0.55711 0.40264 0.0
C165 C 0.23389 0.64196 0.38026 0.0
H166 H 0.13086 0.53571 0.48669 0.0
H167 H 0.1991 0.59909 0.48953 0.0
H168 H 0.20124 0.55019 0.48379 0.0
H169 H 0.28122 0.67151 0.38538 0.0
H170 H 0.21415 0.65946 0.3754 0.0
H171 H 0.23113 0.62326 0.36092 0.0
C172 C 0.61325 0.07688 0.76465 0.0
N173 N 0.6241 0.05869 0.74316 0.0
N174 N 0.61783 0.11581 0.75505 0.0
C175 C 0.60236 0.05908 0.79541 0.0
C176 C 0.63212 0.1208 0.72697 0.0
N177 N 0.63661 0.08649 0.71981 0.0
C178 C 0.6363 0.15615 0.70602 0.0
H179 H 0.61661 0.08911 0.80992 0.0
H180 H 0.62634 0.04543 0.8008 0.0
H181 H 0.55427 0.02811 0.79895 0.0
H182 H 0.68329 0.19045 0.70383 0.0
H183 H 0.60976 0.16613 0.71344 0.0
H184 H 0.62074 0.13991 0.68465 0.0
C185 C 0.58917 0.49025 0.13801 0.0
N186 N 0.58227 0.48436 0.10946 0.0
N187 N 0.58592 0.5249 0.14604 0.0
C188 C 0.60526 0.466 0.15752 0.0
C189 C 0.57677 0.53982 0.12118 0.0
N190 N 0.57556 0.51572 0.09895 0.0
C191 C 0.56361 0.57441 0.11879 0.0
H192 H 0.63589 0.46305 0.14645 0.0
H193 H 0.5645 0.42798 0.16358 0.0
H194 H 0.62654 0.48714 0.17719 0.0
H195 H 0.60585 0.6132 0.11872 0.0
H196 H 0.536 0.56842 0.13721 0.0
H197 H 0.54008 0.56902 0.09875 0.0
H198 H 0.44613 0.61072 0.2089 0.0
H199 H 0.52306 0.46104 0.19081 0.0
H200 H 0.36396 0.47441 0.25727 0.0
H201 H 0.64207 0.61629 0.16684 0.0
H202 H 0.49402 0.47856 0.23324 0.0
H203 H 0.54151 0.63181 0.21462 0.0
C204 C 0.44838 0.58613 0.22191 0.0
C205 C 0.39666 0.53896 0.23078 0.0
C206 C 0.52777 0.50938 0.21927 0.0
C207 C 0.50502 0.56153 0.23592 0.0
C208 C 0.54453 0.49919 0.19496 0.0
C209 C 0.58267 0.53699 0.1746 0.0
C210 C 0.54634 0.55705 0.22213 0.0
C211 C 0.60974 0.58577 0.1813 0.0
C212 C 0.5032 0.59807 0.22507 0.0
C213 C 0.40271 0.50974 0.24842 0.0
N214 N 0.58935 0.59431 0.20396 0.0
N215 N 0.45578 0.52046 0.24947 0.0
H216 H 0.78572 0.25026 0.43801 0.0
H217 H 0.13641 0.46638 0.45736 0.0
H218 H 0.89693 0.22332 0.47536 0.0
H219 H 1.02414 0.48746 0.41499 0.0
H220 H 1.04951 0.37854 0.46669 0.0
H221 H 0.87207 0.3378 0.43186 0.0
C222 C 0.82824 0.26262 0.44504 0.0
C223 C 0.83365 0.22886 0.4572 0.0
C224 C 1.04377 0.40237 0.45543 0.0
C225 C 0.93378 0.3302 0.45009 0.0
C226 C 0.0933 0.45251 0.45029 0.0
C227 C 0.08733 0.48414 0.43542 0.0
C228 C 0.98773 0.3837 0.44572 0.0
C229 C 1.03065 0.46421 0.42634 0.0
C230 C 0.87778 0.3129 0.44146 0.0
C231 C 0.89035 0.24771 0.46586 0.0
N232 N 0.98325 0.41548 0.4316 0.0
N233 N 0.93807 0.29696 0.4621 0.0
H234 H 0.55702 0.79069 0.79576 0.0
H235 H 0.71306 0.06071 0.72674 0.0
H236 H 0.73054 0.88421 0.75565 0.0
H237 H 0.5382 0.96583 0.76469 0.0
H238 H 0.71811 0.99453 0.73451 0.0
H239 H 0.54706 0.85231 0.78231 0.0
C240 C 0.59288 0.82395 0.78394 0.0
C241 C 0.64488 0.83221 0.77702 0.0
C242 C 0.67844 0.98797 0.74103 0.0
C243 C 0.63397 0.90344 0.76178 0.0
C244 C 0.67552 0.02561 0.73641 0.0
C245 C 0.6254 0.01862 0.74534 0.0
C246 C 0.63079 0.94302 0.75469 0.0
C247 C 0.57795 0.97272 0.75796 0.0
C248 C 0.58727 0.8593 0.77638 0.0
C249 C 0.69008 0.87648 0.76196 0.0
N250 N 0.58191 0.93677 0.76243 0.0
N251 N 0.68365 0.91039 0.75495 0.0
H252 H 0.71437 0.35347 0.1162 0.0
H253 H 0.52036 0.38572 0.11404 0.0
H254 H 0.79717 0.44789 0.0404 0.0
H255 H 0.66366 0.51839 0.06774 0.0
H256 H 0.5516 0.34197 0.0945 0.0
H257 H 0.62559 0.3414 0.10634 0.0
C258 C 0.71286 0.36977 0.09663 0.0
C259 C 0.76409 0.40379 0.07986 0.0
C260 C 0.57561 0.38039 0.08817 0.0
C261 C 0.66281 0.39118 0.06867 0.0
C262 C 0.55766 0.40512 0.09923 0.0
C263 C 0.59076 0.45577 0.09301 0.0
C264 C 0.62773 0.40721 0.07138 0.0
C265 C 0.63761 0.47942 0.07324 0.0
C266 C 0.66172 0.36291 0.09092 0.0
C267 C 0.75924 0.4232 0.0546 0.0
N268 N 0.65547 0.45517 0.06354 0.0
N269 N 0.71019 0.41816 0.0503 0.0
H270 H 0.46676 0.93112 0.4368 0.0
H271 H 0.31777 0.64589 0.45945 0.0
H272 H 0.55849 0.88766 0.47839 0.0
H273 H 0.22653 0.69602 0.42837 0.0
H274 H 0.40526 0.73253 0.46885 0.0
H275 H 0.3784 0.84447 0.43486 0.0
C276 C 0.46853 0.90339 0.44555 0.0
C277 C 0.52075 0.91714 0.45762 0.0
C278 C 0.3658 0.7245 0.46036 0.0
C279 C 0.41834 0.81653 0.45544 0.0
C280 C 0.31585 0.67511 0.45527 0.0
C281 C 0.26505 0.66406 0.44322 0.0
C282 C 0.36479 0.76295 0.45317 0.0
C283 C 0.2649 0.70316 0.4377 0.0
C284 C 0.41766 0.85362 0.44451 0.0
C285 C 0.51953 0.87902 0.46875 0.0
N286 N 0.31394 0.75066 0.44247 0.0
N287 N 0.46935 0.8305 0.46724 0.0
H288 H 0.63453 0.34944 0.82091 0.0
H289 H 0.51945 0.07959 0.78572 0.0
H290 H 0.45989 0.21388 0.8441 0.0
H291 H 0.69037 0.21521 0.75926 0.0
H292 H 0.49902 0.12777 0.81006 0.0
H293 H 0.65821 0.30081 0.80121 0.0
C294 C 0.60131 0.30943 0.82218 0.0
C295 C 0.54501 0.28582 0.8342 0.0
C296 C 0.54114 0.1471 0.79906 0.0
C297 C 0.57172 0.22973 0.81121 0.0
C298 C 0.55281 0.11958 0.78534 0.0
C299 C 0.60657 0.14365 0.77056 0.0
C300 C 0.58365 0.19912 0.79797 0.0
C301 C 0.64825 0.1955 0.77032 0.0
C302 C 0.61477 0.28165 0.81071 0.0
C303 C 0.50357 0.23379 0.83472 0.0
N304 N 0.63591 0.22155 0.78375 0.0
N305 N 0.5177 0.20756 0.82336 0.0
H306 H 0.6185 0.80219 0.53819 0.0
H307 H 0.75161 0.66413 0.54707 0.0
H308 H 0.80297 0.87568 0.5234 0.0
H309 H 0.57168 0.59315 0.57072 0.0
H310 H 0.77202 0.74291 0.53986 0.0
H311 H 0.60032 0.72569 0.55107 0.0
C312 C 0.65516 0.80225 0.53762 0.0
C313 C 0.71236 0.84549 0.52966 0.0
C314 C 0.72814 0.71031 0.54688 0.0
C315 C 0.69193 0.75809 0.54455 0.0
C316 C 0.71668 0.66554 0.55097 0.0
C317 C 0.65999 0.62254 0.55935 0.0
C318 C 0.68232 0.7119 0.55097 0.0
C319 C 0.61601 0.62584 0.56437 0.0
C320 C 0.64483 0.75864 0.54516 0.0
C321 C 0.7583 0.84348 0.52969 0.0
N322 N 0.62789 0.6697 0.55985 0.0
N323 N 0.74703 0.80054 0.53686 0.0
H324 H 0.68759 0.47631 0.85422 0.0
H325 H 1.04512 0.62319 0.8379 0.0
H326 H 0.81258 0.6303 0.82845 0.0
H327 H 0.91454 0.46921 0.8626 0.0
H328 H 0.96449 0.62735 0.83276 0.0
H329 H 0.76909 0.47398 0.85633 0.0
C330 C 0.73186 0.51005 0.84898 0.0
C331 C 0.74057 0.55364 0.84118 0.0
C332 C 0.95294 0.5923 0.83901 0.0
C333 C 0.83902 0.55109 0.84359 0.0
C334 C 0.99977 0.58974 0.84165 0.0
C335 C 0.98863 0.54534 0.85021 0.0
C336 C 0.89245 0.55035 0.84507 0.0
C337 C 0.92723 0.50436 0.85552 0.0
C338 C 0.77941 0.50858 0.85018 0.0
C339 C 0.80125 0.59533 0.83464 0.0
N340 N 0.88314 0.50793 0.85296 0.0
N341 N 0.84665 0.59296 0.83602 0.0
H342 H 0.31132 0.62855 0.14204 0.0
H343 H 0.43645 0.89916 0.18523 0.0
H344 H 0.20116 0.66143 0.16909 0.0
H345 H 0.54965 0.87164 0.15527 0.0
H346 H 0.34966 0.81275 0.17696 0.0
H347 H 0.39862 0.71672 0.1451 0.0
C348 C 0.30533 0.65418 0.14861 0.0
C349 C 0.24841 0.63714 0.15535 0.0
C350 C 0.39326 0.82545 0.1718 0.0
C351 C 0.3487 0.73868 0.15882 0.0
C352 C 0.44272 0.87491 0.17633 0.0
C353 C 0.50012 0.8926 0.17063 0.0
C354 C 0.40089 0.79278 0.16173 0.0
C355 C 0.50605 0.85954 0.15954 0.0
C356 C 0.35533 0.70465 0.15029 0.0
C357 C 0.24385 0.67244 0.16372 0.0
N358 N 0.45717 0.81117 0.15566 0.0
N359 N 0.29302 0.72116 0.16523 0.0
H360 H 0.514 0.23991 0.47129 0.0
H361 H 0.71944 0.52158 0.51926 0.0
H362 H 0.70434 0.34303 0.46127 0.0
H363 H 0.53171 0.41393 0.53594 0.0
H364 H 0.71411 0.45925 0.4936 0.0
H365 H 0.51871 0.30568 0.49052 0.0
C366 C 0.55677 0.27655 0.47279 0.0
C367 C 0.60888 0.28585 0.46469 0.0
C368 C 0.67398 0.44926 0.50272 0.0
C369 C 0.61467 0.36136 0.48715 0.0
C370 C 0.67708 0.48483 0.51718 0.0
C371 C 0.62596 0.47246 0.52968 0.0
C372 C 0.61926 0.40109 0.50075 0.0
C373 C 0.57204 0.42446 0.52673 0.0
C374 C 0.55946 0.31405 0.48399 0.0
C375 C 0.66311 0.33397 0.46759 0.0
N376 N 0.57008 0.39043 0.51265 0.0
N377 N 0.66461 0.36986 0.47865 0.0
H378 H 0.47104 0.62288 0.82566 0.0
H379 H 0.12423 0.47018 0.87604 0.0
H380 H 0.36168 0.47717 0.86546 0.0
H381 H 0.22717 0.61463 0.835 0.0
H382 H 0.20941 0.47311 0.87179 0.0
H383 H 0.38641 0.62172 0.82825 0.0
C384 C 0.42967 0.59035 0.83502 0.0
C385 C 0.42607 0.55005 0.84531 0.0
C386 C 0.21404 0.50439 0.8635 0.0
C387 C 0.32454 0.54849 0.84846 0.0
C388 C 0.16443 0.50282 0.86599 0.0
C389 C 0.16588 0.54208 0.85597 0.0
C390 C 0.26864 0.54581 0.85081 0.0
C391 C 0.22137 0.58268 0.84294 0.0
C392 C 0.3804 0.58978 0.83649 0.0
C393 C 0.36903 0.50962 0.85707 0.0
N394 N 0.26915 0.58337 0.84093 0.0
N395 N 0.32224 0.51007 0.85825 0.0
H396 H 0.97764 0.29668 0.128 0.0
H397 H 0.64948 0.10226 0.19707 0.0
H398 H 0.88286 0.33827 0.16516 0.0
H399 H 0.73126 0.05619 0.15115 0.0
H400 H 0.73575 0.18896 0.18581 0.0
H401 H 0.88961 0.20904 0.13603 0.0
C402 C 0.93833 0.28755 0.13762 0.0
C403 C 0.93803 0.32536 0.14576 0.0
C404 C 0.73503 0.16007 0.17803 0.0
C405 C 0.83683 0.22461 0.15536 0.0
C406 C 0.68577 0.11054 0.18457 0.0
C407 C 0.68316 0.07196 0.17505 0.0
C408 C 0.78279 0.17162 0.16191 0.0
C409 C 0.73127 0.0848 0.15869 0.0
C410 C 0.88799 0.23738 0.14225 0.0
C411 C 0.88552 0.31084 0.15828 0.0
N412 N 0.77915 0.13342 0.15276 0.0
N413 N 0.83756 0.26198 0.16278 0.0
H414 H 1.05028 0.41928 0.05887 0.0
H415 H 0.18612 0.5926 0.91605 0.0
H416 H 0.18558 0.57825 0.05705 0.0
H417 H 1.02352 0.4416 0.91828 0.0
H418 H 0.20256 0.58226 0.96621 0.0
H419 H 1.05513 0.42152 0.00624 0.0
C420 C 0.08197 0.45444 0.04743 0.0
C421 C 0.11729 0.4987 0.06222 0.0
C422 C 0.16385 0.55097 0.9556 0.0
C423 C 0.12308 0.50164 0.00231 0.0
C424 C 0.15496 0.55683 0.92695 0.0
C425 C 0.1035 0.51791 0.91327 0.0
C426 C 0.12081 0.50584 0.97064 0.0
C427 C 1.06374 0.47235 0.9283 0.0
C428 C 0.08449 0.45578 0.01744 0.0
C429 C 0.15726 0.54333 0.0464 0.0
N430 N 0.07277 0.46768 0.95629 0.0
N431 N 0.15879 0.54371 0.01739 0.0
H432 H 0.79636 0.1137 0.37086 0.0
H433 H 0.71936 0.0448 0.22894 0.0
H434 H 0.61108 0.03933 0.38273 0.0
H435 H 0.56001 0.01976 0.24891 0.0
H436 H 0.75397 0.07284 0.27745 0.0
H437 H 0.78333 0.1099 0.31915 0.0
C438 C 0.75288 0.09649 0.36251 0.0
C439 C 0.70452 0.07608 0.38107 0.0
C440 C 0.71223 0.06277 0.27123 0.0
C441 C 0.68862 0.07039 0.32181 0.0
C442 C 0.69268 0.04682 0.24345 0.0
C443 C 0.63691 0.02995 0.23522 0.0
C444 C 0.67544 0.06173 0.29084 0.0
C445 C 0.60318 0.03232 0.25472 0.0
C446 C 0.74525 0.09391 0.3329 0.0
C447 C 0.6494 0.05496 0.36918 0.0
N448 N 0.62256 0.04717 0.28172 0.0
N449 N 0.64292 0.05242 0.34035 0.0
H450 H 0.4708 0.4806 0.74977 0.0
H451 H 0.70237 0.61213 0.61818 0.0
H452 H 0.65988 0.58866 0.76031 0.0
H453 H 0.51608 0.48988 0.61046 0.0
H454 H 0.6867 0.61487 0.66941 0.0
H455 H 0.48558 0.49354 0.69803 0.0
C456 C 0.51548 0.50729 0.74115 0.0
C457 C 0.56423 0.53322 0.75927 0.0
C458 C 0.64907 0.58792 0.65644 0.0
C459 C 0.58162 0.54829 0.7 0.0
C460 C 0.65801 0.58673 0.62729 0.0
C461 C 0.61036 0.55064 0.61047 0.0
C462 C 0.59201 0.55277 0.66862 0.0
C463 C 0.55373 0.51803 0.62299 0.0
C464 C 0.52392 0.51471 0.71159 0.0
C465 C 0.62113 0.56769 0.74701 0.0
N466 N 0.54614 0.51957 0.65137 0.0
N467 N 0.62833 0.57399 0.71808 0.0
H468 H 0.74403 0.1244 0.54312 0.0
H469 H 0.55878 1.00372 0.69056 0.0
H470 H 0.5543 1.00904 0.54849 0.0
H471 H 0.73055 0.14876 0.68422 0.0
H472 H 0.56467 0.99396 0.6393 0.0
H473 H 0.74736 0.12318 0.59567 0.0
C474 C 0.70326 0.09845 0.55537 0.0
C475 C 0.64872 0.06717 0.54159 0.0
C476 C 0.60151 0.02765 0.64919 0.0
C477 C 0.65221 0.06517 0.60133 0.0
C478 C 0.59827 0.03294 0.67837 0.0
C479 C 0.64417 0.07708 0.69129 0.0
C480 C 0.65124 0.06677 0.63295 0.0
C481 C 0.69432 0.11431 0.67475 0.0
C482 C 0.70514 0.09784 0.58527 0.0
C483 C 0.59717 0.03415 0.55836 0.0
N484 N 0.69645 0.10851 0.64634 0.0
N485 N 0.60013 0.03408 0.58732 0.0
H486 H 0.6951 0.63902 0.92982 0.0
H487 H 0.49944 0.44993 0.05976 0.0
H488 H 0.5147 0.50553 0.91878 0.0
H489 H 0.65036 0.60343 0.07055 0.0
H490 H 0.50559 0.46625 0.00782 0.0
H491 H 0.68207 0.62329 0.98146 0.0
C492 C 0.65271 0.60635 0.93832 0.0
C493 C 0.60586 0.57351 0.92012 0.0
C494 C 0.53686 0.49647 0.0216 0.0
C495 C 0.59069 0.55514 0.97911 0.0
C496 C 0.53328 0.48714 0.05105 0.0
C497 C 0.57426 0.52557 0.06909 0.0
C498 C 0.58239 0.54439 0.0103 0.0
C499 C 0.61767 0.57317 0.05715 0.0
C500 C 0.6452 0.59751 0.96778 0.0
C501 C 0.55186 0.53174 0.93219 0.0
N502 N 0.621 0.5812 0.02844 0.0
N503 N 0.54579 0.52352 0.96101 0.0
H504 H 0.09196 0.54013 0.22451 0.0
H505 H 0.13384 0.47807 0.38159 0.0
H506 H 1.0632 0.40668 0.24666 0.0
H507 H 0.10797 0.58295 0.36354 0.0
H508 H 0.10324 0.44826 0.33282 0.0
H509 H 0.09463 0.55506 0.27552 0.0
C510 C 0.08558 0.51374 0.24014 0.0
C511 C 0.07794 0.47242 0.23143 0.0
C512 C 0.1033 0.47727 0.33963 0.0
C513 C 0.08152 0.48937 0.28967 0.0
C514 C 0.12037 0.49394 0.36746 0.0
C515 C 0.12387 0.53321 0.37625 0.0
C516 C 0.09053 0.50064 0.32048 0.0
C517 C 0.10657 0.55305 0.35722 0.0
C518 C 0.08699 0.52217 0.26922 0.0
C519 C 0.06963 0.43922 0.25249 0.0
N520 N 0.09157 0.53715 0.33006 0.0
N521 N 0.07244 0.44875 0.28063 0.0
loop_
_geom_bond_atom_site_label_1
_geom_bond_atom_site_label_2
_geom_bond_distance
_geom_bond_site_symmetry_2
_ccdc_geom_bond_type
Ho0 C3 2.811 . S
Ho0 O20 2.322 . S
Ho0 O22 2.378 . S
Ho0 O23 2.524 . S
Ho0 O24 2.381 . S
Ho0 O25 2.669 1_455 S
Ho0 O27 2.346 1_455 S
Ho0 O31 2.305 . S
Ho1 C12 2.811 . S
Ho1 O21 2.346 1_655 S
Ho1 O25 2.305 . S
Ho1 O26 2.322 . S
Ho1 O28 2.378 . S
Ho1 O29 2.524 . S
Ho1 O30 2.381 . S
Ho1 O31 2.669 1_655 S
C2 O20 1.259 . S
C2 O21 1.268 . S
C3 Ho0 2.811 . S
C3 C4 1.488 . S
C3 O22 1.215 . S
C3 O23 1.289 . S
C4 C3 1.488 . S
C4 C5 1.348 . S
C4 C9 1.413 . S
C5 C4 1.348 . S
C5 C6 1.442 . S
C5 H32 0.930 . S
C6 C5 1.442 . S
C6 C7 1.381 . S
C6 H33 0.931 . S
C7 C6 1.381 . S
C7 C8 1.321 . S
C8 C7 1.321 . S
C8 C9 1.403 . S
C8 H34 0.934 . S
C9 C4 1.413 . S
C9 C8 1.403 . S
C9 H35 0.930 . S
C10 O24 1.275 . S
C10 O25 1.256 1_455 S
C11 O26 1.259 . S
C11 O27 1.268 . S
C12 Ho1 2.811 . S
C12 C13 1.488 . S
C12 O28 1.215 . S
C12 O29 1.289 . S
C13 C12 1.488 . S
C13 C14 1.348 . S
C13 C18 1.413 . S
C14 C13 1.348 . S
C14 C15 1.442 . S
C14 H36 0.930 . S
C15 C14 1.442 . S
C15 C16 1.381 . S
C15 H37 0.931 . S
C16 C15 1.381 . S
C16 C17 1.321 . S
C17 C16 1.321 . S
C17 C18 1.403 . S
C17 H38 0.934 . S
C18 C13 1.413 . S
C18 C17 1.403 . S
C18 H39 0.930 . S
C19 O30 1.275 1_455 S
C19 O31 1.256 . S
O20 Ho0 2.322 . S
O20 C2 1.259 . S
O21 Ho1 2.346 1_455 S
O21 C2 1.268 . S
O22 Ho0 2.378 . S
O22 C3 1.215 . S
O23 Ho0 2.524 . S
O23 C3 1.289 . S
O24 Ho0 2.381 . S
O24 C10 1.275 . S
O25 Ho0 2.669 1_655 S
O25 Ho1 2.305 . S
O25 C10 1.256 1_655 S
O26 Ho1 2.322 . S
O26 C11 1.259 . S
O27 Ho0 2.346 1_655 S
O27 C11 1.268 . S
O28 Ho1 2.378 . S
O28 C12 1.215 . S
O29 Ho1 2.524 . S
O29 C12 1.289 . S
O30 Ho1 2.381 . S
O30 C19 1.275 1_655 S
O31 Ho0 2.305 . S
O31 Ho1 2.669 1_455 S
O31 C19 1.256 . S
H32 C5 0.930 . S
H33 C6 0.931 . S
H34 C8 0.934 . S
H35 C9 0.930 . S
H36 C14 0.930 . S
H37 C15 0.931 . S
H38 C17 0.934 . S
H39 C18 0.930 . S
Ho40 C43 2.811 1_545 S
Ho40 O60 2.322 1_545 S
Ho40 O62 2.378 1_545 S
Ho40 O63 2.524 1_545 S
Ho40 O64 2.381 . S
Ho40 O65 2.669 . S
Ho40 O67 2.346 . S
Ho40 O71 2.305 . S
Ho41 C52 2.811 . S
Ho41 O61 2.346 1_545 S
Ho41 O65 2.305 . S
Ho41 O66 2.322 . S
Ho41 O68 2.378 . S
Ho41 O69 2.524 . S
Ho41 O70 2.381 . S
Ho41 O71 2.669 . S
C42 O60 1.259 . S
C42 O61 1.268 . S
C43 Ho40 2.811 1_565 S
C43 C44 1.488 . S
C43 O62 1.215 . S
C43 O63 1.289 . S
C44 C43 1.488 . S
C44 C45 1.348 . S
C44 C49 1.413 . S
C45 C44 1.348 . S
C45 C46 1.442 . S
C45 H72 0.930 . S
C46 C45 1.442 . S
C46 C47 1.381 . S
C46 H73 0.931 . S
C47 C46 1.381 . S
C47 C48 1.321 . S
C48 C47 1.321 . S
C48 C49 1.403 . S
C48 H74 0.934 . S
C49 C44 1.413 . S
C49 C48 1.403 . S
C49 H75 0.930 . S
C50 O64 1.275 . S
C50 O65 1.256 . S
C51 O66 1.259 . S
C51 O67 1.268 . S
C52 Ho41 2.811 . S
C52 C53 1.488 . S
C52 O68 1.215 . S
C52 O69 1.289 . S
C53 C52 1.488 . S
C53 C54 1.348 . S
C53 C58 1.413 . S
C54 C53 1.348 . S
C54 C55 1.442 . S
C54 H76 0.930 . S
C55 C54 1.442 . S
C55 C56 1.381 . S
C55 H77 0.931 . S
C56 C55 1.381 . S
C56 C57 1.321 . S
C57 C56 1.321 . S
C57 C58 1.403 . S
C57 H78 0.934 . S
C58 C53 1.413 . S
C58 C57 1.403 . S
C58 H79 0.930 . S
C59 O70 1.275 . S
C59 O71 1.256 . S
O60 Ho40 2.322 1_565 S
O60 C42 1.259 . S
O61 Ho41 2.346 1_565 S
O61 C42 1.268 . S
O62 Ho40 2.378 1_565 S
O62 C43 1.215 . S
O63 Ho40 2.524 1_565 S
O63 C43 1.289 . S
O64 Ho40 2.381 . S
O64 C50 1.275 . S
O65 Ho40 2.669 . S
O65 Ho41 2.305 . S
O65 C50 1.256 . S
O66 Ho41 2.322 . S
O66 C51 1.259 . S
O67 Ho40 2.346 . S
O67 C51 1.268 . S
O68 Ho41 2.378 . S
O68 C52 1.215 . S
O69 Ho41 2.524 . S
O69 C52 1.289 . S
O70 Ho41 2.381 . S
O70 C59 1.275 . S
O71 Ho40 2.305 . S
O71 Ho41 2.669 . S
O71 C59 1.256 . S
H72 C45 0.930 . S
H73 C46 0.931 . S
H74 C48 0.934 . S
H75 C49 0.930 . S
H76 C54 0.930 . S
H77 C55 0.931 . S
H78 C57 0.934 . S
H79 C58 0.930 . S
Ho80 C83 2.811 . S
Ho80 O100 2.322 . S
Ho80 O102 2.378 . S
Ho80 O103 2.524 . S
Ho80 O104 2.381 . S
Ho80 O105 2.669 . S
Ho80 O107 2.346 . S
Ho80 O111 2.305 . S
Ho81 C92 2.811 . S
Ho81 O101 2.346 . S
Ho81 O105 2.305 . S
Ho81 O106 2.322 . S
Ho81 O108 2.378 . S
Ho81 O109 2.524 . S
Ho81 O110 2.381 . S
Ho81 O111 2.669 . S
C82 O100 1.259 . S
C82 O101 1.268 . S
C83 Ho80 2.811 . S
C83 C84 1.488 . S
C83 O102 1.215 . S
C83 O103 1.289 . S
C84 C83 1.488 . S
C84 C85 1.348 . S
C84 C89 1.413 . S
C85 C84 1.348 . S
C85 C86 1.442 . S
C85 H112 0.930 . S
C86 C85 1.442 . S
C86 C87 1.381 . S
C86 H113 0.931 . S
C87 C86 1.381 . S
C87 C88 1.321 . S
C88 C87 1.321 . S
C88 C89 1.403 . S
C88 H114 0.934 . S
C89 C84 1.413 . S
C89 C88 1.403 . S
C89 H115 0.930 . S
C90 O104 1.275 . S
C90 O105 1.256 . S
C91 O106 1.259 . S
C91 O107 1.268 . S
C92 Ho81 2.811 . S
C92 C93 1.488 . S
C92 O108 1.215 . S
C92 O109 1.289 . S
C93 C92 1.488 . S
C93 C94 1.348 . S
C93 C98 1.413 . S
C94 C93 1.348 . S
C94 C95 1.442 . S
C94 H116 0.930 . S
C95 C94 1.442 . S
C95 C96 1.381 . S
C95 H117 0.931 . S
C96 C95 1.381 . S
C96 C97 1.321 . S
C97 C96 1.321 . S
C97 C98 1.403 . S
C97 H118 0.934 . S
C98 C93 1.413 . S
C98 C97 1.403 . S
C98 H119 0.930 . S
C99 O110 1.275 . S
C99 O111 1.256 . S
O100 Ho80 2.322 . S
O100 C82 1.259 . S
O101 Ho81 2.346 . S
O101 C82 1.268 . S
O102 Ho80 2.378 . S
O102 C83 1.215 . S
O103 Ho80 2.524 . S
O103 C83 1.289 . S
O104 Ho80 2.381 . S
O104 C90 1.275 . S
O105 Ho80 2.669 . S
O105 Ho81 2.305 . S
O105 C90 1.256 . S
O106 Ho81 2.322 . S
O106 C91 1.259 . S
O107 Ho80 2.346 . S
O107 C91 1.268 . S
O108 Ho81 2.378 . S
O108 C92 1.215 . S
O109 Ho81 2.524 . S
O109 C92 1.289 . S
O110 Ho81 2.381 . S
O110 C99 1.275 . S
O111 Ho80 2.305 . S
O111 Ho81 2.669 . S
O111 C99 1.256 . S
H112 C85 0.930 . S
H113 C86 0.931 . S
H114 C88 0.934 . S
H115 C89 0.930 . S
H116 C94 0.930 . S
H117 C95 0.931 . S
H118 C97 0.934 . S
H119 C98 0.930 . S
C120 N121 1.317 1_565 S
C120 N122 1.348 . S
C120 C123 1.485 1_565 S
N121 C120 1.317 1_545 S
N121 N125 1.370 . S
N122 C120 1.348 . S
N122 C124 1.346 . S
C123 C120 1.485 1_545 S
C123 H127 0.960 . S
C123 H128 0.961 1_545 S
C123 H129 0.960 . S
C124 N122 1.346 . S
C124 N125 1.307 1_565 S
C124 C126 1.486 . S
N125 N121 1.370 . S
N125 C124 1.307 1_545 S
C126 C124 1.486 . S
C126 H130 0.960 . S
C126 H131 0.960 . S
C126 H132 0.959 . S
H127 C123 0.960 . S
H128 C123 0.961 1_565 S
H129 C123 0.960 . S
H130 C126 0.960 . S
H131 C126 0.960 . S
H132 C126 0.959 . S
C133 N134 1.317 . S
C133 N135 1.348 . S
C133 C136 1.485 . S
N134 C133 1.317 . S
N134 N138 1.370 . S
N135 C133 1.348 . S
N135 C137 1.346 . S
C136 C133 1.485 . S
C136 H140 0.960 . S
C136 H141 0.961 . S
C136 H142 0.960 . S
C137 N135 1.346 . S
C137 N138 1.307 . S
C137 C139 1.486 . S
N138 N134 1.370 . S
N138 C137 1.307 . S
C139 C137 1.486 . S
C139 H143 0.960 . S
C139 H144 0.960 . S
C139 H145 0.959 . S
H140 C136 0.960 . S
H141 C136 0.961 . S
H142 C136 0.960 . S
H143 C139 0.960 . S
H144 C139 0.960 . S
H145 C139 0.959 . S
C146 N147 1.317 . S
C146 N148 1.348 . S
C146 C149 1.485 . S
N147 C146 1.317 . S
N147 N151 1.370 . S
N148 C146 1.348 . S
N148 C150 1.346 . S
C149 C146 1.485 . S
C149 H153 0.960 . S
C149 H154 0.961 . S
C149 H155 0.960 . S
C150 N148 1.346 . S
C150 N151 1.307 . S
C150 C152 1.486 1_455 S
N151 N147 1.370 . S
N151 C150 1.307 . S
C152 C150 1.486 1_655 S
C152 H156 0.960 . S
C152 H157 0.960 . S
C152 H158 0.949 1_655 S
H153 C149 0.960 . S
H154 C149 0.961 . S
H155 C149 0.960 . S
H156 C152 0.960 . S
H157 C152 0.960 . S
H158 C152 0.949 1_455 S
C159 N160 1.317 . S
C159 N161 1.348 . S
C159 C162 1.485 . S
N160 C159 1.317 . S
N160 N164 1.370 . S
N161 C159 1.348 . S
N161 C163 1.346 . S
C162 C159 1.485 . S
C162 H166 0.960 . S
C162 H167 0.961 . S
C162 H168 0.960 . S
C163 N161 1.346 . S
C163 N164 1.307 . S
C163 C165 1.486 . S
N164 N160 1.370 . S
N164 C163 1.307 . S
C165 C163 1.486 . S
C165 H169 0.960 . S
C165 H170 0.960 . S
C165 H171 0.959 . S
H166 C162 0.960 . S
H167 C162 0.961 . S
H168 C162 0.960 . S
H169 C165 0.960 . S
H170 C165 0.960 . S
H171 C165 0.959 . S
C172 N173 1.317 . S
C172 N174 1.348 . S
C172 C175 1.485 . S
N173 C172 1.317 . S
N173 N177 1.370 . S
N174 C172 1.348 . S
N174 C176 1.346 . S
C175 C172 1.485 . S
C175 H179 0.960 . S
C175 H180 0.961 . S
C175 H181 0.960 . S
C176 N174 1.346 . S
C176 N177 1.307 . S
C176 C178 1.486 . S
N177 N173 1.370 . S
N177 C176 1.307 . S
C178 C176 1.486 . S
C178 H182 0.960 . S
C178 H183 0.960 . S
C178 H184 0.959 . S
H179 C175 0.960 . S
H180 C175 0.961 . S
H181 C175 0.960 . S
H182 C178 0.960 . S
H183 C178 0.960 . S
H184 C178 0.959 . S
C185 N186 1.317 . S
C185 N187 1.348 . S
C185 C188 1.485 . S
N186 C185 1.317 . S
N186 N190 1.370 . S
N187 C185 1.348 . S
N187 C189 1.346 . S
C188 C185 1.485 . S
C188 H192 0.960 . S
C188 H193 0.961 . S
C188 H194 0.960 . S
C189 N187 1.346 . S
C189 N190 1.307 . S
C189 C191 1.486 . S
N190 N186 1.370 . S
N190 C189 1.307 . S
C191 C189 1.486 . S
C191 H195 0.960 . S
C191 H196 0.960 . S
C191 H197 0.959 . S
H192 C188 0.960 . S
H193 C188 0.961 . S
H194 C188 0.960 . S
H195 C191 0.960 . S
H196 C191 0.960 . S
H197 C191 0.959 . S
H198 C204 0.930 . S
H199 C208 0.930 . S
H200 C213 0.929 . S
H201 C211 0.929 . S
H202 C206 0.929 . S
H203 C212 0.929 . S
C204 H198 0.930 . S
C204 C205 1.367 . S
C204 C212 1.378 . S
C205 C204 1.367 . S
C205 C213 1.433 . S
C206 H202 0.929 . S
C206 C208 1.378 . S
C206 C210 1.350 . S
C207 C210 1.463 . S
C207 C212 1.350 . S
C207 N215 1.427 . S
C208 H199 0.930 . S
C208 C206 1.378 . S
C208 C209 1.367 . S
C209 C208 1.367 . S
C209 C211 1.433 . S
C210 C206 1.350 . S
C210 C207 1.463 . S
C210 N214 1.427 . S
C211 H201 0.929 . S
C211 C209 1.433 . S
C211 N214 1.384 . S
C212 H203 0.929 . S
C212 C204 1.378 . S
C212 C207 1.350 . S
C213 H200 0.929 . S
C213 C205 1.433 . S
C213 N215 1.384 . S
N214 C210 1.427 . S
N214 C211 1.384 . S
N215 C207 1.427 . S
N215 C213 1.384 . S
H216 C222 0.930 . S
H217 C226 0.930 . S
H218 C231 0.929 . S
H219 C229 0.929 . S
H220 C224 0.929 . S
H221 C230 0.929 . S
C222 H216 0.930 . S
C222 C223 1.367 . S
C222 C230 1.378 . S
C223 C222 1.367 . S
C223 C231 1.433 . S
C224 H220 0.929 . S
C224 C226 1.378 . S
C224 C228 1.350 . S
C225 C228 1.463 . S
C225 C230 1.350 . S
C225 N233 1.427 . S
C226 H217 0.930 . S
C226 C224 1.378 . S
C226 C227 1.367 . S
C227 C226 1.367 . S
C227 C229 1.433 . S
C228 C224 1.350 . S
C228 C225 1.463 . S
C228 N232 1.427 . S
C229 H219 0.929 . S
C229 C227 1.433 . S
C229 N232 1.384 . S
C230 H221 0.929 . S
C230 C222 1.378 . S
C230 C225 1.350 . S
C231 H218 0.929 . S
C231 C223 1.433 . S
C231 N233 1.384 . S
N232 C228 1.427 . S
N232 C229 1.384 . S
N233 C225 1.427 . S
N233 C231 1.384 . S
H234 C240 0.930 . S
H235 C244 0.930 . S
H236 C249 0.929 . S
H237 C247 0.929 . S
H238 C242 0.929 1_545 S
H239 C248 0.929 . S
C240 H234 0.930 . S
C240 C241 1.367 . S
C240 C248 1.378 . S
C241 C240 1.367 . S
C241 C249 1.433 . S
C242 H238 0.929 1_565 S
C242 C244 1.378 1_565 S
C242 C246 1.350 . S
C243 C246 1.463 . S
C243 C248 1.350 . S
C243 N251 1.427 . S
C244 H235 0.930 . S
C244 C242 1.378 1_545 S
C244 C245 1.367 1_545 S
C245 C244 1.367 1_565 S
C245 C247 1.433 . S
C246 C242 1.350 . S
C246 C243 1.463 . S
C246 N250 1.427 . S
C247 H237 0.929 . S
C247 C245 1.433 . S
C247 N250 1.384 . S
C248 H239 0.929 . S
C248 C240 1.378 . S
C248 C243 1.350 . S
C249 H236 0.929 . S
C249 C241 1.433 . S
C249 N251 1.384 . S
N250 C246 1.427 . S
N250 C247 1.384 . S
N251 C243 1.427 . S
N251 C249 1.384 . S
H252 C258 0.930 . S
H253 C262 0.930 . S
H254 C267 0.929 . S
H255 C265 0.929 . S
H256 C260 0.929 . S
H257 C266 0.929 . S
C258 H252 0.930 . S
C258 C259 1.367 . S
C258 C266 1.378 . S
C259 C258 1.367 . S
C259 C267 1.433 . S
C260 H256 0.929 . S
C260 C262 1.378 . S
C260 C264 1.350 . S
C261 C264 1.463 . S
C261 C266 1.350 . S
C261 N269 1.427 . S
C262 H253 0.930 . S
C262 C260 1.378 . S
C262 C263 1.367 . S
C263 C262 1.367 . S
C263 C265 1.433 . S
C264 C260 1.350 . S
C264 C261 1.463 . S
C264 N268 1.427 . S
C265 H255 0.929 . S
C265 C263 1.433 . S
C265 N268 1.384 . S
C266 H257 0.929 . S
C266 C258 1.378 . S
C266 C261 1.350 . S
C267 H254 0.929 . S
C267 C259 1.433 . S
C267 N269 1.384 . S
N268 C264 1.427 . S
N268 C265 1.384 . S
N269 C261 1.427 . S
N269 C267 1.384 . S
H270 C276 0.930 . S
H271 C280 0.930 . S
H272 C285 0.929 . S
H273 C283 0.929 . S
H274 C278 0.929 . S
H275 C284 0.929 . S
C276 H270 0.930 . S
C276 C277 1.367 . S
C276 C284 1.378 . S
C277 C276 1.367 . S
C277 C285 1.433 . S
C278 H274 0.929 . S
C278 C280 1.378 . S
C278 C282 1.350 . S
C279 C282 1.463 . S
C279 C284 1.350 . S
C279 N287 1.427 . S
C280 H271 0.930 . S
C280 C278 1.378 . S
C280 C281 1.367 . S
C281 C280 1.367 . S
C281 C283 1.433 . S
C282 C278 1.350 . S
C282 C279 1.463 . S
C282 N286 1.427 . S
C283 H273 0.929 . S
C283 C281 1.433 . S
C283 N286 1.384 . S
C284 H275 0.929 . S
C284 C276 1.378 . S
C284 C279 1.350 . S
C285 H272 0.929 . S
C285 C277 1.433 . S
C285 N287 1.384 . S
N286 C282 1.427 . S
N286 C283 1.384 . S
N287 C279 1.427 . S
N287 C285 1.384 . S
H288 C294 0.930 . S
H289 C298 0.930 . S
H290 C303 0.929 . S
H291 C301 0.929 . S
H292 C296 0.929 . S
H293 C302 0.929 . S
C294 H288 0.930 . S
C294 C295 1.367 . S
C294 C302 1.378 . S
C295 C294 1.367 . S
C295 C303 1.433 . S
C296 H292 0.929 . S
C296 C298 1.378 . S
C296 C300 1.350 . S
C297 C300 1.463 . S
C297 C302 1.350 . S
C297 N305 1.427 . S
C298 H289 0.930 . S
C298 C296 1.378 . S
C298 C299 1.367 . S
C299 C298 1.367 . S
C299 C301 1.433 . S
C300 C296 1.350 . S
C300 C297 1.463 . S
C300 N304 1.427 . S
C301 H291 0.929 . S
C301 C299 1.433 . S
C301 N304 1.384 . S
C302 H293 0.929 . S
C302 C294 1.378 . S
C302 C297 1.350 . S
C303 H290 0.929 . S
C303 C295 1.433 . S
C303 N305 1.384 . S
N304 C300 1.427 . S
N304 C301 1.384 . S
N305 C297 1.427 . S
N305 C303 1.384 . S
H306 C312 0.930 . S
H307 C316 0.930 . S
H308 C321 0.929 . S
H309 C319 0.929 . S
H310 C314 0.929 . S
H311 C320 0.929 . S
C312 H306 0.930 . S
C312 C313 1.367 . S
C312 C320 1.378 . S
C313 C312 1.367 . S
C313 C321 1.433 . S
C314 H310 0.929 . S
C314 C316 1.378 . S
C314 C318 1.350 . S
C315 C318 1.463 . S
C315 C320 1.350 . S
C315 N323 1.427 . S
C316 H307 0.930 . S
C316 C314 1.378 . S
C316 C317 1.367 . S
C317 C316 1.367 . S
C317 C319 1.433 . S
C318 C314 1.350 . S
C318 C315 1.463 . S
C318 N322 1.427 . S
C319 H309 0.929 . S
C319 C317 1.433 . S
C319 N322 1.384 . S
C320 H311 0.929 . S
C320 C312 1.378 . S
C320 C315 1.350 . S
C321 H308 0.929 . S
C321 C313 1.433 . S
C321 N323 1.384 . S
N322 C318 1.427 . S
N322 C319 1.384 . S
N323 C315 1.427 . S
N323 C321 1.384 . S
H324 C330 0.930 . S
H325 C334 0.930 1_455 S
H326 C339 0.929 . S
H327 C337 0.929 . S
H328 C332 0.929 . S
H329 C338 0.929 . S
C330 H324 0.930 . S
C330 C331 1.367 . S
C330 C338 1.378 . S
C331 C330 1.367 . S
C331 C339 1.433 . S
C332 H328 0.929 . S
C332 C334 1.378 . S
C332 C336 1.350 . S
C333 C336 1.463 . S
C333 C338 1.350 . S
C333 N341 1.427 . S
C334 H325 0.930 1_655 S
C334 C332 1.378 . S
C334 C335 1.367 . S
C335 C334 1.367 . S
C335 C337 1.433 . S
C336 C332 1.350 . S
C336 C333 1.463 . S
C336 N340 1.427 . S
C337 H327 0.929 . S
C337 C335 1.433 . S
C337 N340 1.384 . S
C338 H329 0.929 . S
C338 C330 1.378 . S
C338 C333 1.350 . S
C339 H326 0.929 . S
C339 C331 1.433 . S
C339 N341 1.384 . S
N340 C336 1.427 . S
N340 C337 1.384 . S
N341 C333 1.427 . S
N341 C339 1.384 . S
H342 C348 0.930 . S
H343 C352 0.930 . S
H344 C357 0.929 . S
H345 C355 0.929 . S
H346 C350 0.929 . S
H347 C356 0.929 . S
C348 H342 0.930 . S
C348 C349 1.367 . S
C348 C356 1.378 . S
C349 C348 1.367 . S
C349 C357 1.433 . S
C350 H346 0.929 . S
C350 C352 1.378 . S
C350 C354 1.350 . S
C351 C354 1.463 . S
C351 C356 1.350 . S
C351 N359 1.427 . S
C352 H343 0.930 . S
C352 C350 1.378 . S
C352 C353 1.367 . S
C353 C352 1.367 . S
C353 C355 1.433 . S
C354 C350 1.350 . S
C354 C351 1.463 . S
C354 N358 1.427 . S
C355 H345 0.929 . S
C355 C353 1.433 . S
C355 N358 1.384 . S
C356 H347 0.929 . S
C356 C348 1.378 . S
C356 C351 1.350 . S
C357 H344 0.929 . S
C357 C349 1.433 . S
C357 N359 1.384 . S
N358 C354 1.427 . S
N358 C355 1.384 . S
N359 C351 1.427 . S
N359 C357 1.384 . S
H360 C366 0.930 . S
H361 C370 0.930 . S
H362 C375 0.929 . S
H363 C373 0.929 . S
H364 C368 0.929 . S
H365 C374 0.929 . S
C366 H360 0.930 . S
C366 C367 1.367 . S
C366 C374 1.378 . S
C367 C366 1.367 . S
C367 C375 1.433 . S
C368 H364 0.929 . S
C368 C370 1.378 . S
C368 C372 1.350 . S
C369 C372 1.463 . S
C369 C374 1.350 . S
C369 N377 1.427 . S
C370 H361 0.930 . S
C370 C368 1.378 . S
C370 C371 1.367 . S
C371 C370 1.367 . S
C371 C373 1.433 . S
C372 C368 1.350 . S
C372 C369 1.463 . S
C372 N376 1.427 . S
C373 H363 0.929 . S
C373 C371 1.433 . S
C373 N376 1.384 . S
C374 H365 0.929 . S
C374 C366 1.378 . S
C374 C369 1.350 . S
C375 H362 0.929 . S
C375 C367 1.433 . S
C375 N377 1.384 . S
N376 C372 1.427 . S
N376 C373 1.384 . S
N377 C369 1.427 . S
N377 C375 1.384 . S
H378 C384 0.930 . S
H379 C388 0.930 . S
H380 C393 0.929 . S
H381 C391 0.929 . S
H382 C386 0.929 . S
H383 C392 0.929 . S
C384 H378 0.930 . S
C384 C385 1.367 . S
C384 C392 1.378 . S
C385 C384 1.367 . S
C385 C393 1.433 . S
C386 H382 0.929 . S
C386 C388 1.378 . S
C386 C390 1.350 . S
C387 C390 1.463 . S
C387 C392 1.350 . S
C387 N395 1.427 . S
C388 H379 0.930 . S
C388 C386 1.378 . S
C388 C389 1.367 . S
C389 C388 1.367 . S
C389 C391 1.433 . S
C390 C386 1.350 . S
C390 C387 1.463 . S
C390 N394 1.427 . S
C391 H381 0.929 . S
C391 C389 1.433 . S
C391 N394 1.384 . S
C392 H383 0.929 . S
C392 C384 1.378 . S
C392 C387 1.350 . S
C393 H380 0.929 . S
C393 C385 1.433 . S
C393 N395 1.384 . S
N394 C390 1.427 . S
N394 C391 1.384 . S
N395 C387 1.427 . S
N395 C393 1.384 . S
H396 C402 0.930 . S
H397 C406 0.930 . S
H398 C411 0.929 . S
H399 C409 0.929 . S
H400 C404 0.929 . S
H401 C410 0.929 . S
C402 H396 0.930 . S
C402 C403 1.367 . S
C402 C410 1.378 . S
C403 C402 1.367 . S
C403 C411 1.433 . S
C404 H400 0.929 . S
C404 C406 1.378 . S
C404 C408 1.350 . S
C405 C408 1.463 . S
C405 C410 1.350 . S
C405 N413 1.427 . S
C406 H397 0.930 . S
C406 C404 1.378 . S
C406 C407 1.367 . S
C407 C406 1.367 . S
C407 C409 1.433 . S
C408 C404 1.350 . S
C408 C405 1.463 . S
C408 N412 1.427 . S
C409 H399 0.929 . S
C409 C407 1.433 . S
C409 N412 1.384 . S
C410 H401 0.929 . S
C410 C402 1.378 . S
C410 C405 1.350 . S
C411 H398 0.929 . S
C411 C403 1.433 . S
C411 N413 1.384 . S
N412 C408 1.427 . S
N412 C409 1.384 . S
N413 C405 1.427 . S
N413 C411 1.384 . S
H414 C420 0.930 . S
H415 C424 0.930 . S
H416 C429 0.929 . S
H417 C427 0.929 1_655 S
H418 C422 0.929 . S
H419 C428 0.929 . S
C420 H414 0.930 . S
C420 C421 1.367 1_655 S
C420 C428 1.378 . S
C421 C420 1.367 1_455 S
C421 C429 1.433 . S
C422 H418 0.929 . S
C422 C424 1.378 . S
C422 C426 1.350 . S
C423 C426 1.463 1_554 S
C423 C428 1.350 1_455 S
C423 N431 1.427 . S
C424 H415 0.930 . S
C424 C422 1.378 . S
C424 C425 1.367 . S
C425 C424 1.367 . S
C425 C427 1.433 . S
C426 C422 1.350 . S
C426 C423 1.463 1_556 S
C426 N430 1.431 . S
C427 H417 0.929 1_455 S
C427 C425 1.433 . S
C427 N430 1.384 . S
C428 H419 0.929 . S
C428 C420 1.378 . S
C428 C423 1.350 1_655 S
C429 H416 0.929 . S
C429 C421 1.433 . S
C429 N431 1.384 . S
N430 C426 1.431 . S
N430 C427 1.384 . S
N431 C423 1.427 . S
N431 C429 1.384 . S
H432 C438 0.930 . S
H433 C442 0.930 . S
H434 C447 0.929 . S
H435 C445 0.929 . S
H436 C440 0.929 . S
H437 C446 0.929 . S
C438 H432 0.930 . S
C438 C439 1.367 . S
C438 C446 1.378 . S
C439 C438 1.367 . S
C439 C447 1.433 1_545 S
C440 H436 0.929 . S
C440 C442 1.378 . S
C440 C444 1.350 1_565 S
C441 C444 1.463 . S
C441 C446 1.350 . S
C441 N449 1.427 1_545 S
C442 H433 0.930 . S
C442 C440 1.378 . S
C442 C443 1.367 1_565 S
C443 C442 1.367 1_545 S
C443 C445 1.433 . S
C444 C440 1.350 1_545 S
C444 C441 1.463 . S
C444 N448 1.427 . S
C445 H435 0.929 . S
C445 C443 1.433 . S
C445 N448 1.384 . S
C446 H437 0.929 . S
C446 C438 1.378 . S
C446 C441 1.350 . S
C447 H434 0.929 . S
C447 C439 1.433 1_565 S
C447 N449 1.384 . S
N448 C444 1.427 . S
N448 C445 1.384 . S
N449 C441 1.427 1_565 S
N449 C447 1.384 . S
H450 C456 0.930 . S
H451 C460 0.930 . S
H452 C465 0.929 . S
H453 C463 0.929 . S
H454 C458 0.929 . S
H455 C464 0.929 . S
C456 H450 0.930 . S
C456 C457 1.367 . S
C456 C464 1.378 . S
C457 C456 1.367 . S
C457 C465 1.433 . S
C458 H454 0.929 . S
C458 C460 1.378 . S
C458 C462 1.350 . S
C459 C462 1.463 . S
C459 C464 1.350 . S
C459 N467 1.427 . S
C460 H451 0.930 . S
C460 C458 1.378 . S
C460 C461 1.367 . S
C461 C460 1.367 . S
C461 C463 1.433 . S
C462 C458 1.350 . S
C462 C459 1.463 . S
C462 N466 1.427 . S
C463 H453 0.929 . S
C463 C461 1.433 . S
C463 N466 1.384 . S
C464 H455 0.929 . S
C464 C456 1.378 . S
C464 C459 1.350 . S
C465 H452 0.929 . S
C465 C457 1.433 . S
C465 N467 1.384 . S
N466 C462 1.427 . S
N466 C463 1.384 . S
N467 C459 1.427 . S
N467 C465 1.384 . S
H468 C474 0.930 . S
H469 C478 0.930 . S
H470 C483 0.929 . S
H471 C481 0.929 1_565 S
H472 C476 0.929 . S
H473 C482 0.952 . S
C474 H468 0.930 . S
C474 C475 1.367 1_565 S
C474 C482 1.383 . S
C475 C474 1.367 1_545 S
C475 C483 1.433 . S
C476 H472 0.929 . S
C476 C478 1.378 . S
C476 C480 1.350 . S
C477 C480 1.463 . S
C477 C482 1.322 1_545 S
C477 N485 1.427 . S
C478 H469 0.930 . S
C478 C476 1.378 . S
C478 C479 1.367 . S
C479 C478 1.367 . S
C479 C481 1.433 . S
C480 C476 1.350 . S
C480 C477 1.463 . S
C480 N484 1.427 . S
C481 H471 0.929 1_545 S
C481 C479 1.433 . S
C481 N484 1.384 . S
C482 H473 0.952 . S
C482 C474 1.383 . S
C482 C477 1.322 1_565 S
C483 H470 0.929 . S
C483 C475 1.433 . S
C483 N485 1.384 . S
N484 C480 1.427 . S
N484 C481 1.384 . S
N485 C477 1.427 . S
N485 C483 1.384 . S
H486 C492 0.930 . S
H487 C496 0.930 . S
H488 C501 0.929 . S
H489 C499 0.929 . S
H490 C494 0.929 1_556 S
H491 C500 0.929 . S
C492 H486 0.930 . S
C492 C493 1.367 . S
C492 C500 1.378 . S
C493 C492 1.367 . S
C493 C501 1.433 . S
C494 H490 0.929 1_554 S
C494 C496 1.378 . S
C494 C498 1.350 1_554 S
C495 C498 1.463 . S
C495 C500 1.350 . S
C495 N503 1.427 . S
C496 H487 0.930 . S
C496 C494 1.378 . S
C496 C497 1.367 . S
C497 C496 1.367 . S
C497 C499 1.433 . S
C498 C494 1.350 1_556 S
C498 C495 1.463 . S
C498 N502 1.427 1_556 S
C499 H489 0.929 . S
C499 C497 1.433 . S
C499 N502 1.384 . S
C500 H491 0.929 . S
C500 C492 1.378 . S
C500 C495 1.350 . S
C501 H488 0.929 . S
C501 C493 1.433 . S
C501 N503 1.384 . S
N502 C498 1.427 1_554 S
N502 C499 1.384 . S
N503 C495 1.427 . S
N503 C501 1.384 . S
H504 C510 0.930 . S
H505 C514 0.930 . S
H506 C519 0.929 . S
H507 C517 0.929 . S
H508 C512 0.929 . S
H509 C518 0.929 . S
C510 H504 0.930 . S
C510 C511 1.367 1_455 S
C510 C518 1.378 . S
C511 C510 1.367 1_655 S
C511 C519 1.433 . S
C512 H508 0.929 . S
C512 C514 1.378 . S
C512 C516 1.350 1_655 S
C513 C516 1.463 . S
C513 C518 1.350 . S
C513 N521 1.427 1_455 S
C514 H505 0.930 . S
C514 C512 1.378 . S
C514 C515 1.367 1_655 S
C515 C514 1.367 1_455 S
C515 C517 1.433 . S
C516 C512 1.350 1_455 S
C516 C513 1.463 . S
C516 N520 1.427 . S
C517 H507 0.929 . S
C517 C515 1.433 . S
C517 N520 1.384 . S
C518 H509 0.929 . S
C518 C510 1.378 . S
C518 C513 1.350 . S
C519 H506 0.929 . S
C519 C511 1.433 . S
C519 N521 1.384 . S
N520 C516 1.427 . S
N520 C517 1.384 . S
N521 C513 1.427 1_655 S
N521 C519 1.384 . S
C205 C7 0.396 . S
C209 N187 0.357 . S
C223 C51 1.814 . S
C227 N160 1.811 1_655 S
C241 C87 1.168 . S
C245 N173 1.164 1_565 S
C259 C16 0.724 . S
C263 N186 0.731 . S
C281 N161 1.989 . S
C277 C42 1.982 . S
C299 N174 1.370 . S
C295 C96 1.345 . S
C313 C47 1.084 . S
C317 N134 1.084 . S
C331 C91 2.843 . S
C335 N148 2.799 1_655 S
C349 C2 2.008 . S
C353 N122 2.021 . S
C371 N135 1.424 . S
C367 C56 1.382 . S
C389 N147 3.286 . S
C385 C82 3.245 . S
C403 C11 1.808 . S
C407 N121 1.825 . S
C425 N151 1.742 . S
C421 C19 1.731 . S
C439 C50 1.469 . S
C443 N125 1.470 . S
C457 C99 1.502 . S
C461 N138 1.579 . S
C479 N177 1.534 . S
C475 C59 1.485 . S
C497 N190 1.251 . S
C493 C90 1.262 . S
C511 C10 1.438 1_655 S
C515 N164 1.463 . S
