# Generated by pormake.
# Topology anh, (6,3)-cn, num edge types: 1
# Building blocks:
#     Node 0, Type 0, BuildingBlock: PAMTOO_clean_sbu_0, # of connection points: 6
#     Node 1, Type 0, BuildingBlock: PAMTOO_clean_sbu_0, # of connection points: 6
#     Node 2, Type 0, BuildingBlock: PAMTOO_clean_sbu_0, # of connection points: 6
#     Node 3, Type 1, BuildingBlock: BETDIP_clean_linker_0, # of connection points: 3
#     Node 4, Type 1, BuildingBlock: BETDIP_clean_linker_0, # of connection points: 3
#     Node 5, Type 1, BuildingBlock: BETDIP_clean_linker_0, # of connection points: 3
#     Node 6, Type 1, BuildingBlock: BETDIP_clean_linker_0, # of connection points: 3
#     Node 7, Type 1, BuildingBlock: BETDIP_clean_linker_0, # of connection points: 3
#     Node 8, Type 1, BuildingBlock: BETDIP_clean_linker_0, # of connection points: 3
#     Edge 9, Type (0, 1), BuildingBlock: XUDNAN_clean_linker_2, # of connection points: 2
#     Edge 10, Type (0, 1), BuildingBlock: XUDNAN_clean_linker_2, # of connection points: 2
#     Edge 11, Type (0, 1), BuildingBlock: XUDNAN_clean_linker_2, # of connection points: 2
#     Edge 12, Type (0, 1), BuildingBlock: XUDNAN_clean_linker_2, # of connection points: 2
#     Edge 13, Type (0, 1), BuildingBlock: XUDNAN_clean_linker_2, # of connection points: 2
#     Edge 14, Type (0, 1), BuildingBlock: XUDNAN_clean_linker_2, # of connection points: 2
#     Edge 15, Type (0, 1), BuildingBlock: XUDNAN_clean_linker_2, # of connection points: 2
#     Edge 16, Type (0, 1), BuildingBlock: XUDNAN_clean_linker_2, # of connection points: 2
#     Edge 17, Type (0, 1), BuildingBlock: XUDNAN_clean_linker_2, # of connection points: 2
#     Edge 18, Type (0, 1), BuildingBlock: XUDNAN_clean_linker_2, # of connection points: 2
#     Edge 19, Type (0, 1), BuildingBlock: XUDNAN_clean_linker_2, # of connection points: 2
#     Edge 20, Type (0, 1), BuildingBlock: XUDNAN_clean_linker_2, # of connection points: 2
#     Edge 21, Type (0, 1), BuildingBlock: XUDNAN_clean_linker_2, # of connection points: 2
#     Edge 22, Type (0, 1), BuildingBlock: XUDNAN_clean_linker_2, # of connection points: 2
#     Edge 23, Type (0, 1), BuildingBlock: XUDNAN_clean_linker_2, # of connection points: 2
#     Edge 24, Type (0, 1), BuildingBlock: XUDNAN_clean_linker_2, # of connection points: 2
#     Edge 25, Type (0, 1), BuildingBlock: XUDNAN_clean_linker_2, # of connection points: 2
#     Edge 26, Type (0, 1), BuildingBlock: XUDNAN_clean_linker_2, # of connection points: 2
# Relax obj value: 0.159
# Max RMSD: 0.208
# Mean RMSD: 0.127
data_MOF--net-anh--node1-PAMTOO_clean_sbu_0--node2-BETDIP_clean_linker_0--edge1-XUDNAN_clean_linker_2
_symmetry_space_group_name_H-M    P1
_symmetry_Int_Tables_number       1
_symmetry_cell_setting            triclinic
loop_
_symmetry_equiv_pos_as_xyz
'x, y, z'
_cell_length_a     30.35022
_cell_length_b     29.66152
_cell_length_c     49.664335
_cell_angle_alpha  94.262751
_cell_angle_beta   95.749984
_cell_angle_gamma 102.13019
loop_
_atom_site_label
_atom_site_type_symbol
_atom_site_fract_x
_atom_site_fract_y
_atom_site_fract_z
_atom_type_partial_charge
Dy0 Dy 0.10222 0.60964 0.14789 0.0
Dy1 Dy 1.07329 0.49761 0.13101 0.0
C2 C 1.07487 0.56917 0.08816 0.0
O3 O 1.02784 0.59479 0.15468 0.0
O4 O 1.00691 0.51879 0.13568 0.0
O5 O 0.12161 0.67501 0.13149 0.0
O6 O 0.11923 0.67331 0.17486 0.0
O7 O 1.07005 0.50648 0.17571 0.0
O8 O 0.11634 0.57893 0.18643 0.0
O9 O 0.14894 0.51101 0.14174 0.0
O10 O 0.16689 0.58882 0.13698 0.0
O11 O 1.08019 0.42741 0.13527 0.0
O12 O 1.03023 0.44081 0.10448 0.0
C13 C 0.99645 0.5566 0.14659 0.0
O14 O 1.06123 0.59272 0.10761 0.0
O15 O 0.09143 0.53319 0.09389 0.0
C16 C 0.17892 0.72868 0.16023 0.0
C17 C 0.26799 0.78429 0.16926 0.0
C18 C 0.24789 0.76703 0.14278 0.0
C19 C 0.20389 0.73972 0.1383 0.0
C20 C 0.19874 0.74647 0.18671 0.0
C21 C 0.24283 0.77392 0.19118 0.0
C22 C 0.1328 0.69827 0.15541 0.0
C23 C 0.09493 0.5392 0.1935 0.0
C24 C 0.17932 0.5492 0.13994 0.0
C25 C 1.00828 0.37808 0.12996 0.0
C26 C 0.94358 0.31911 0.15572 0.0
C27 C 0.95463 0.36712 0.16322 0.0
C28 C 0.98665 0.39621 0.15053 0.0
C29 C 0.99665 0.33038 0.12176 0.0
C30 C 0.96424 0.301 0.1345 0.0
C31 C 1.04397 0.40957 0.11831 0.0
H32 H 0.26599 0.77507 0.12541 0.0
H33 H 0.18958 0.72713 0.11757 0.0
H34 H 0.18033 0.73883 0.20401 0.0
H35 H 0.25746 0.78644 0.21186 0.0
H36 H 0.93871 0.38226 0.17912 0.0
H37 H 0.99511 0.43295 0.15711 0.0
H38 H 1.01308 0.31584 0.10591 0.0
H39 H 0.95634 0.26412 0.12835 0.0
Dy40 Dy 0.56352 0.03781 0.52288 0.0
Dy41 Dy 0.67498 0.05714 0.52682 0.0
C42 C 0.62349 0.04417 0.57849 0.0
O43 O 0.58331 0.11422 0.52073 0.0
O44 O 0.66036 0.12768 0.53442 0.0
O45 O 0.503 0.01634 0.54209 0.0
O46 O 0.49773 0.03541 0.50084 0.0
O47 O 0.65037 0.07869 0.48726 0.0
O48 O 0.58238 0.02641 0.48076 0.0
O49 O 0.65071 0.98224 0.51133 0.0
O50 O 0.58097 0.96884 0.52705 0.0
O51 O 0.73679 0.05085 0.51038 0.0
O52 O 0.73947 0.08428 0.55116 0.0
C53 C 0.62308 0.14246 0.52786 0.0
O54 O 0.59229 0.06221 0.56594 0.0
O55 O 0.65325 0.02932 0.56491 0.0
C56 C 0.43998 0.9761 0.51228 0.0
C57 C 0.37028 0.89593 0.49951 0.0
C58 C 0.4161 0.89279 0.50148 0.0
C59 C 0.45069 0.9326 0.50779 0.0
C60 C 0.39451 0.97955 0.50997 0.0
C61 C 0.35989 0.93981 0.50361 0.0
C62 C 0.47589 0.01779 0.52026 0.0
C63 C 0.61491 0.0551 0.47121 0.0
C64 C 0.6148 0.95367 0.51776 0.0
C65 C 0.79676 0.11576 0.52515 0.0
C66 C 0.86052 0.19504 0.51569 0.0
C67 C 0.82227 0.17686 0.49664 0.0
C68 C 0.79048 0.13776 0.50141 0.0
C69 C 0.83508 0.13365 0.5441 0.0
C70 C 0.86664 0.17313 0.53948 0.0
C71 C 0.76243 0.07601 0.53118 0.0
H72 H 0.42523 0.85949 0.49873 0.0
H73 H 0.48574 0.92938 0.50957 0.0
H74 H 0.38576 0.01295 0.51332 0.0
H75 H 0.32499 0.94346 0.50183 0.0
H76 H 0.81649 0.19346 0.4783 0.0
H77 H 0.76075 0.12512 0.48669 0.0
H78 H 0.84029 0.11738 0.56263 0.0
H79 H 0.896 0.18633 0.55439 0.0
Dy80 Dy 0.64398 0.51435 0.84725 0.0
Dy81 Dy 0.53354 0.48706 0.83247 0.0
C82 C 0.59897 0.49974 0.78724 0.0
O83 O 0.62463 0.58237 0.84166 0.0
O84 O 0.54618 0.56424 0.83662 0.0
O85 O 0.7074 0.55556 0.83895 0.0
O86 O 0.70681 0.50463 0.86825 0.0
O87 O 0.54769 0.4931 0.8782 0.0
O88 O 0.61814 0.54182 0.88353 0.0
O89 O 0.55777 0.42094 0.82933 0.0
O90 O 0.62187 0.44277 0.85959 0.0
O91 O 0.46566 0.47816 0.8437 0.0
O92 O 0.47624 0.45533 0.80287 0.0
C93 C 0.58516 0.5945 0.83922 0.0
O94 O 0.62705 0.4847 0.80421 0.0
O95 O 0.56365 0.51273 0.7957 0.0
C96 C 0.77017 0.52152 0.84321 0.0
C97 C 0.84455 0.50215 0.81865 0.0
C98 C 0.80626 0.46656 0.81982 0.0
C99 C 0.7689 0.47633 0.83182 0.0
C100 C 0.80858 0.55659 0.84235 0.0
C101 C 0.84534 0.54708 0.83024 0.0
C102 C 0.73155 0.53451 0.85479 0.0
C103 C 0.58019 0.52422 0.89297 0.0
C104 C 0.58993 0.41029 0.84565 0.0
C105 C 0.4142 0.48983 0.80829 0.0
C106 C 0.35619 0.55016 0.79769 0.0
C107 C 0.39979 0.55926 0.78941 0.0
C108 C 0.42879 0.52939 0.79486 0.0
C109 C 0.36971 0.47915 0.81492 0.0
C110 C 0.34085 0.5092 0.8097 0.0
C111 C 0.44688 0.46374 0.81895 0.0
H112 H 0.80516 0.43158 0.81133 0.0
H113 H 0.73916 0.44887 0.83211 0.0
H114 H 0.81008 0.59162 0.85098 0.0
H115 H 0.87489 0.57496 0.83038 0.0
H116 H 0.41249 0.591 0.78051 0.0
H117 H 0.46335 0.53851 0.78994 0.0
H118 H 0.35813 0.44898 0.82548 0.0
H119 H 0.3073 0.50166 0.81625 0.0
H120 H 0.58612 0.02801 0.19335 0.0
H121 H 0.65689 0.09861 0.26893 0.0
H122 H 0.53333 0.99691 0.2689 0.0
H123 H 0.66279 0.15904 0.24113 0.0
C124 C 0.67707 0.14205 0.22503 0.0
C125 C 0.58878 0.03335 0.21533 0.0
C126 C 0.55565 0.00765 0.22949 0.0
C127 C 0.6243 0.0676 0.22939 0.0
C128 C 0.62794 0.07425 0.25792 0.0
C129 C 0.595 0.04953 0.2724 0.0
C130 C 0.55901 0.01619 0.25797 0.0
N131 N 0.65599 0.09561 0.21484 0.0
H132 H 0.59995 0.50223 0.51266 0.0
H133 H 0.60067 0.58415 0.58837 0.0
H134 H 0.61169 0.44245 0.58863 0.0
H135 H 0.55103 0.61659 0.55828 0.0
C136 C 0.57449 0.62274 0.5431 0.0
C137 C 0.60083 0.50519 0.53459 0.0
C138 C 0.60454 0.46678 0.54902 0.0
C139 C 0.59764 0.54736 0.54855 0.0
C140 C 0.60044 0.55132 0.57718 0.0
C141 C 0.60625 0.51371 0.59158 0.0
C142 C 0.60716 0.4715 0.57739 0.0
N143 N 0.59479 0.58624 0.53375 0.0
H144 H 0.13255 0.69036 0.83157 0.0
H145 H 0.15138 0.74619 0.9152 0.0
H146 H 0.1002 0.60035 0.89419 0.0
H147 H 0.17732 0.81253 0.83326 0.0
C148 C 0.18178 0.7812 0.84213 0.0
C149 C 0.13207 0.68496 0.85285 0.0
C150 C 0.11635 0.64005 0.86031 0.0
C151 C 0.14539 0.72324 0.87269 0.0
C152 C 0.14216 0.7165 0.90007 0.0
C153 C 0.12694 0.67194 0.90798 0.0
C154 C 0.11478 0.63405 0.88807 0.0
N155 N 0.15995 0.76921 0.86553 0.0
H156 H 0.13834 0.57246 0.47154 0.0
H157 H 0.08403 0.48446 0.39823 0.0
H158 H 0.17578 0.61486 0.39439 0.0
H159 H 1.07827 0.42843 0.42524 0.0
C160 C 1.07018 0.44326 0.44428 0.0
C161 C 0.13613 0.56595 0.44962 0.0
C162 C 0.15951 0.59932 0.43443 0.0
C163 C 0.11034 0.52373 0.43689 0.0
C164 C 0.10663 0.5154 0.40844 0.0
C165 C 0.13066 0.54762 0.39284 0.0
C166 C 0.15725 0.58952 0.40611 0.0
N167 N 0.08755 0.49094 0.45316 0.0
H168 H 0.56693 0.04216 0.84849 0.0
H169 H 0.57281 0.95455 0.77652 0.0
H170 H 0.58747 0.10099 0.77276 0.0
H171 H 0.51324 0.90568 0.80092 0.0
C172 C 0.53948 0.90922 0.81801 0.0
C173 C 0.5703 0.03808 0.82698 0.0
C174 C 0.57588 0.077 0.81194 0.0
C175 C 0.56784 0.99357 0.8141 0.0
C176 C 0.57316 0.9885 0.78634 0.0
C177 C 0.58048 0.02711 0.77135 0.0
C178 C 0.58095 0.07097 0.78416 0.0
N179 N 0.56276 0.95448 0.82945 0.0
H180 H 0.54691 0.55615 0.16203 0.0
H181 H 0.62231 0.57852 0.09326 0.0
H182 H 0.47946 0.5726 0.08358 0.0
H183 H 0.67649 0.62402 0.13202 0.0
C184 C 0.67571 0.59155 0.14096 0.0
C185 C 0.54804 0.56223 0.14086 0.0
C186 C 0.50742 0.5655 0.12446 0.0
C187 C 0.59044 0.56827 0.12986 0.0
C188 C 0.5909 0.57558 0.10231 0.0
C189 C 0.55108 0.57658 0.08577 0.0
C190 C 0.50992 0.57186 0.09682 0.0
N191 N 0.63205 0.56485 0.14559 0.0
H192 H 0.25319 0.61001 0.12298 0.0
H193 H 0.21858 0.48267 0.16141 0.0
H194 H 0.29871 0.47659 0.16521 0.0
H195 H 0.33352 0.57224 0.08291 0.0
H196 H 0.37195 0.62816 0.08594 0.0
H197 H 0.31236 0.62433 0.08787 0.0
H198 H 0.33141 0.67328 0.13457 0.0
H199 H 0.39109 0.67703 0.13282 0.0
H200 H 0.36535 0.65458 0.16164 0.0
H201 H 0.38438 0.48356 0.16455 0.0
H202 H 0.46463 0.49905 0.15507 0.0
H203 H 0.44425 0.61976 0.11555 0.0
C204 C 0.26248 0.58103 0.13239 0.0
C205 C 0.22888 0.54691 0.14199 0.0
C206 C 0.24304 0.50932 0.1538 0.0
C207 C 0.28882 0.50563 0.1562 0.0
C208 C 0.32094 0.53957 0.14653 0.0
C209 C 0.30829 0.57637 0.13459 0.0
C210 C 0.3492 0.60666 0.12444 0.0
C211 C 0.34128 0.60791 0.09345 0.0
C212 C 0.35988 0.6558 0.13925 0.0
C213 C 0.38653 0.58099 0.13228 0.0
C214 C 0.36971 0.54275 0.1454 0.0
C215 C 0.39778 0.51352 0.15431 0.0
C216 C 0.44364 0.52279 0.14905 0.0
C217 C 0.46136 0.56066 0.13463 0.0
C218 C 0.43213 0.59046 0.12665 0.0
H219 H 0.89919 0.21191 0.46911 0.0
H220 H 0.89659 0.27234 0.55102 0.0
H221 H 0.95072 0.34308 0.54208 0.0
H222 H 1.01822 0.25679 0.46583 0.0
H223 H 1.01019 0.26651 0.43045 0.0
H224 H 0.97142 0.22099 0.4435 0.0
H225 H 0.90385 0.25601 0.42586 0.0
H226 H 0.9424 0.30167 0.41278 0.0
H227 H 0.90446 0.31574 0.43618 0.0
H228 H 1.00305 0.40835 0.52328 0.0
H229 H 1.05244 0.46123 0.49693 0.0
H230 H 1.02208 0.35635 0.42804 0.0
C231 C 0.90994 0.24012 0.48512 0.0
C232 C 0.89374 0.2369 0.51071 0.0
C233 C 0.90896 0.27415 0.53132 0.0
C234 C 0.93947 0.31445 0.52639 0.0
C235 C 0.95463 0.31661 0.50084 0.0
C236 C 0.94063 0.28026 0.48064 0.0
C237 C 0.96227 0.29089 0.45505 0.0
C238 C 0.99231 0.25677 0.44833 0.0
C239 C 0.92608 0.2911 0.43106 0.0
C240 C 0.99044 0.33907 0.46391 0.0
C241 C 0.98546 0.35348 0.49033 0.0
C242 C 1.00743 0.39732 0.50264 0.0
C243 C 1.03531 0.42711 0.48753 0.0
C244 C 1.04106 0.4126 0.46054 0.0
C245 C 1.01841 0.36806 0.44872 0.0
H246 H 0.51871 0.63576 0.81673 0.0
H247 H 0.65155 0.66652 0.86399 0.0
H248 H 0.65216 0.75008 0.86622 0.0
H249 H 0.54186 0.7312 0.77657 0.0
H250 H 0.48547 0.74209 0.77516 0.0
H251 H 0.49401 0.68451 0.77887 0.0
H252 H 0.45369 0.68211 0.82239 0.0
H253 H 0.44515 0.73981 0.81897 0.0
H254 H 0.474 0.72699 0.85004 0.0
H255 H 0.63875 0.83056 0.86319 0.0
H256 H 0.61508 0.90235 0.85169 0.0
H257 H 0.49296 0.82006 0.80441 0.0
C258 C 0.54774 0.6601 0.82773 0.0
C259 C 0.58505 0.64459 0.84028 0.0
C260 C 0.62269 0.67758 0.85412 0.0
C261 C 0.62324 0.72512 0.85565 0.0
C262 C 0.58606 0.73932 0.84301 0.0
C263 C 0.54919 0.70785 0.82907 0.0
C264 C 0.51484 0.73247 0.8159 0.0
C265 C 0.50871 0.72194 0.78478 0.0
C266 C 0.46923 0.71957 0.82753 0.0
C267 C 0.53831 0.78267 0.82452 0.0
C268 C 0.57905 0.78582 0.84047 0.0
C269 C 0.6069 0.82855 0.85073 0.0
C270 C 0.59313 0.86916 0.84417 0.0
C271 C 0.55216 0.86672 0.82723 0.0
C272 C 0.52437 0.82287 0.8175 0.0
H273 H 0.94774 0.62705 0.14395 0.0
H274 H 0.93196 0.4811 0.15482 0.0
H275 H 0.84999 0.47435 0.15712 0.0
H276 H 0.86295 0.65133 0.18741 0.0
H277 H 0.84227 0.68943 0.16506 0.0
H278 H 0.90037 0.68371 0.16623 0.0
H279 H 0.88883 0.66117 0.11425 0.0
H280 H 0.83076 0.66685 0.11293 0.0
H281 H 0.8435 0.61332 0.09985 0.0
H282 H 0.76715 0.48312 0.15759 0.0
H283 H 0.69272 0.50602 0.15319 0.0
H284 H 0.76071 0.64472 0.13957 0.0
C285 C 0.92718 0.59385 0.14724 0.0
C286 C 0.947 0.5547 0.1495 0.0
C287 C 0.91815 0.51173 0.1531 0.0
C288 C 0.87127 0.50753 0.1545 0.0
C289 C 0.8527 0.54647 0.15193 0.0
C290 C 0.87978 0.5888 0.14817 0.0
C291 C 0.85081 0.62459 0.14436 0.0
C292 C 0.86495 0.66464 0.16712 0.0
C293 C 0.85365 0.64253 0.11617 0.0
C294 C 0.80347 0.59595 0.14657 0.0
C295 C 0.80524 0.55103 0.15124 0.0
C296 C 0.7656 0.5183 0.15395 0.0
C297 C 0.72328 0.53161 0.15153 0.0
C298 C 0.72049 0.57722 0.14616 0.0
C299 C 0.76148 0.60959 0.14381 0.0
H300 H 0.36571 0.82063 0.46274 0.0
H301 H 0.2916 0.8754 0.52312 0.0
H302 H 0.22992 0.80538 0.51319 0.0
H303 H 0.26962 0.76834 0.41464 0.0
H304 H 0.29152 0.71833 0.40492 0.0
H305 H 0.33004 0.77267 0.41685 0.0
H306 H 0.36927 0.7329 0.45418 0.0
H307 H 0.33096 0.67839 0.44232 0.0
H308 H 0.33562 0.70121 0.4774 0.0
H309 H 0.17623 0.72981 0.49659 0.0
H310 H 0.13375 0.65393 0.47413 0.0
H311 H 0.24382 0.64746 0.42547 0.0
C312 C 0.33671 0.81774 0.47405 0.0
C313 C 0.33342 0.85359 0.49364 0.0
C314 C 0.29457 0.8487 0.50773 0.0
C315 C 0.2595 0.80894 0.50237 0.0
C316 C 0.26381 0.77435 0.48291 0.0
C317 C 0.30141 0.7783 0.46897 0.0
C318 C 0.2975 0.73622 0.44892 0.0
C319 C 0.29714 0.74971 0.4196 0.0
C320 C 0.3356 0.71067 0.45615 0.0
C321 C 0.25172 0.70808 0.45369 0.0
C322 C 0.23292 0.73065 0.47342 0.0
C323 C 0.19068 0.71166 0.48121 0.0
C324 C 0.16695 0.66844 0.46845 0.0
C325 C 0.18551 0.64467 0.44811 0.0
C326 C 0.22853 0.66492 0.44075 0.0
H327 H 0.54177 0.33562 0.8115 0.0
H328 H 0.64106 0.37267 0.88316 0.0
H329 H 0.64372 0.29006 0.88483 0.0
H330 H 0.48145 0.22528 0.8306 0.0
H331 H 0.47348 0.19767 0.79636 0.0
H332 H 0.47704 0.25909 0.80215 0.0
H333 H 0.5431 0.27485 0.77242 0.0
H334 H 0.53965 0.21356 0.76648 0.0
H335 H 0.59266 0.2517 0.78055 0.0
H336 H 0.63705 0.20253 0.87742 0.0
H337 H 0.62585 0.12002 0.85969 0.0
H338 H 0.53224 0.1419 0.7926 0.0
C339 C 0.56369 0.32643 0.8278 0.0
C340 C 0.59095 0.36071 0.84734 0.0
C341 C 0.61975 0.34708 0.868 0.0
C342 C 0.62135 0.30019 0.86917 0.0
C343 C 0.59411 0.26731 0.84948 0.0
C344 C 0.56602 0.28 0.8291 0.0
C345 C 0.5422 0.23867 0.80938 0.0
C346 C 0.49048 0.22966 0.80965 0.0
C347 C 0.5552 0.24509 0.78051 0.0
C348 C 0.56158 0.20072 0.8216 0.0
C349 C 0.59104 0.21765 0.84492 0.0
C350 C 0.61384 0.18894 0.85927 0.0
C351 C 0.60709 0.14207 0.84916 0.0
C352 C 0.57819 0.12455 0.82479 0.0
C353 C 0.55464 0.1543 0.81125 0.0
H354 H 0.55534 0.88591 0.53871 0.0
H355 H 0.67131 0.90691 0.4929 0.0
H356 H 0.67088 0.82335 0.49178 0.0
H357 H 0.59171 0.80656 0.58053 0.0
H358 H 0.53567 0.77156 0.58132 0.0
H359 H 0.54282 0.83209 0.57649 0.0
H360 H 0.48761 0.81142 0.53187 0.0
H361 H 0.48015 0.75074 0.5366 0.0
H362 H 0.49853 0.77153 0.50548 0.0
H363 H 0.65947 0.73733 0.49733 0.0
H364 H 0.63982 0.65735 0.51059 0.0
H365 H 0.53302 0.69366 0.55386 0.0
C366 C 0.58032 0.87295 0.5281 0.0
C367 C 0.61325 0.9031 0.51577 0.0
C368 C 0.64569 0.8846 0.50247 0.0
C369 C 0.64564 0.83711 0.50166 0.0
C370 C 0.61302 0.80849 0.5143 0.0
C371 C 0.58101 0.82579 0.5273 0.0
C372 C 0.55113 0.78835 0.54058 0.0
C373 C 0.55563 0.80037 0.57156 0.0
C374 C 0.50142 0.78002 0.52787 0.0
C375 C 0.57174 0.74737 0.53339 0.0
C376 C 0.60705 0.75947 0.51794 0.0
C377 C 0.63173 0.72745 0.50931 0.0
C378 C 0.62031 0.68208 0.5169 0.0
C379 C 0.58481 0.66934 0.53317 0.0
C380 C 0.56018 0.70244 0.54129 0.0
H381 H 0.891 0.55114 0.78308 0.0
H382 H 0.89206 0.43638 0.83147 0.0
H383 H 0.97404 0.44553 0.82952 0.0
H384 H 1.00745 0.54644 0.75013 0.0
H385 H 1.02092 0.60889 0.75403 0.0
H386 H 0.96304 0.57769 0.74427 0.0
H387 H 0.93803 0.62243 0.78461 0.0
H388 H 0.99503 0.65314 0.79436 0.0
H389 H 0.96451 0.62067 0.81862 0.0
H390 H 1.05365 0.48408 0.83892 0.0
H391 H 0.11528 0.54689 0.86143 0.0
H392 H 1.06421 0.64434 0.81289 0.0
C393 C 0.9085 0.52637 0.79173 0.0
C394 C 0.88582 0.4935 0.80756 0.0
C395 C 0.90887 0.46155 0.819 0.0
C396 C 0.95566 0.46668 0.81795 0.0
C397 C 0.97872 0.50391 0.80545 0.0
C398 C 0.95551 0.53283 0.79192 0.0
C399 C 0.9874 0.57751 0.78723 0.0
C400 C 0.99517 0.57761 0.75713 0.0
C401 C 0.97024 0.62086 0.79686 0.0
C402 C 1.02996 0.57294 0.8045 0.0
C403 C 1.0256 0.52876 0.81277 0.0
C404 C 1.05762 0.5184 0.83215 0.0
C405 C 0.09233 0.55455 0.84513 0.0
C406 C 0.09363 0.60093 0.83957 0.0
C407 C 1.06441 0.60934 0.81746 0.0
H408 H 0.30003 0.8629 0.20439 0.0
H409 H 0.34202 0.77123 0.14463 0.0
H410 H 0.4196 0.82037 0.15177 0.0
H411 H 0.36736 0.9696 0.18745 0.0
H412 H 0.38074 0.99473 0.22225 0.0
H413 H 0.32832 0.95295 0.21188 0.0
H414 H 0.349 0.90196 0.24933 0.0
H415 H 0.40134 0.94369 0.25989 0.0
H416 H 0.4023 0.88403 0.25058 0.0
H417 H 0.49332 0.87936 0.16621 0.0
H418 H 0.55741 0.94152 0.18807 0.0
H419 H 0.46629 0.9938 0.23809 0.0
C420 C 0.32557 0.85292 0.19293 0.0
C421 C 0.31487 0.8133 0.17387 0.0
C422 C 0.34924 0.80182 0.15905 0.0
C423 C 0.39344 0.82941 0.16303 0.0
C424 C 0.40274 0.86837 0.18189 0.0
C425 C 0.36977 0.88 0.19664 0.0
C426 C 0.38858 0.9231 0.21603 0.0
C427 C 0.36483 0.96242 0.20896 0.0
C428 C 0.3851 0.91254 0.24571 0.0
C429 C 0.43738 0.93373 0.21007 0.0
C430 C 0.44494 0.90198 0.19023 0.0
C431 C 0.48774 0.90451 0.1817 0.0
C432 C 0.52385 0.94005 0.1941 0.0
C433 C 0.5169 0.97235 0.21485 0.0
C434 C 0.47286 0.9693 0.22254 0.0
H435 H 0.55936 0.19276 0.53841 0.0
H436 H 0.69496 0.20588 0.51493 0.0
H437 H 0.70045 0.28959 0.51145 0.0
H438 H 0.52328 0.27813 0.49697 0.0
H439 H 0.4939 0.30038 0.52297 0.0
H440 H 0.49874 0.24072 0.52109 0.0
H441 H 0.53581 0.25236 0.57119 0.0
H442 H 0.53034 0.3117 0.57329 0.0
H443 H 0.58515 0.29843 0.58139 0.0
H444 H 0.69185 0.37266 0.51169 0.0
H445 H 0.67456 0.44961 0.5225 0.0
H446 H 0.54672 0.38296 0.54823 0.0
C447 C 0.59001 0.21324 0.5323 0.0
C448 C 0.62664 0.19286 0.52679 0.0
C449 C 0.66656 0.22088 0.51935 0.0
C450 C 0.66981 0.26835 0.51706 0.0
C451 C 0.63302 0.28744 0.52254 0.0
C452 C 0.59418 0.26088 0.53047 0.0
C453 C 0.56129 0.29056 0.53774 0.0
C454 C 0.51666 0.2766 0.51854 0.0
C455 C 0.55267 0.28812 0.56768 0.0
C456 C 0.58787 0.33801 0.533 0.0
C457 C 0.62873 0.3354 0.52363 0.0
C458 C 0.65978 0.37506 0.51879 0.0
C459 C 0.64956 0.41857 0.5247 0.0
C460 C 0.60902 0.42194 0.53566 0.0
C461 C 0.57744 0.38109 0.53923 0.0
H462 H 0.32439 0.58663 0.84113 0.0
H463 H 0.33047 0.59646 0.75491 0.0
H464 H 0.28865 0.66007 0.75677 0.0
H465 H 0.21309 0.60933 0.84403 0.0
H466 H 0.22857 0.64261 0.87671 0.0
H467 H 0.25707 0.59717 0.86776 0.0
H468 H 0.33471 0.65605 0.87757 0.0
H469 H 0.30634 0.70174 0.88624 0.0
H470 H 0.34387 0.70785 0.86017 0.0
H471 H 0.24284 0.72063 0.7686 0.0
H472 H 0.19925 0.77335 0.78945 0.0
H473 H 0.23302 0.72813 0.86844 0.0
C474 C 0.31635 0.60178 0.82256 0.0
C475 C 0.32967 0.58642 0.79777 0.0
C476 C 0.31993 0.60776 0.77401 0.0
C477 C 0.29636 0.64378 0.77492 0.0
C478 C 0.28377 0.65826 0.79985 0.0
C479 C 0.29376 0.638 0.82324 0.0
C480 C 0.27789 0.66034 0.84767 0.0
C481 C 0.24204 0.62527 0.85974 0.0
C482 C 0.31811 0.68284 0.86917 0.0
C483 C 0.25711 0.69629 0.83444 0.0
C484 C 0.26019 0.69438 0.80682 0.0
C485 C 0.24056 0.72259 0.79025 0.0
C486 C 0.21611 0.75247 0.80221 0.0
C487 C 0.21181 0.75372 0.83033 0.0
C488 C 0.23437 0.72681 0.84672 0.0
H489 H 0.87071 0.248 0.13528 0.0
H490 H 0.94416 0.3222 0.21056 0.0
H491 H 0.88692 0.27908 0.23639 0.0
H492 H 0.76206 0.24799 0.15194 0.0
H493 H 0.73563 0.19047 0.1365 0.0
H494 H 0.78493 0.22288 0.12377 0.0
H495 H 0.8265 0.15617 0.13112 0.0
H496 H 0.77714 0.12332 0.14373 0.0
H497 H 0.83154 0.13515 0.16418 0.0
H498 H 0.81808 0.23748 0.2534 0.0
H499 H 0.74252 0.19424 0.26138 0.0
H500 H 0.71369 0.14187 0.17618 0.0
C501 C 0.87525 0.25418 0.15725 0.0
C502 C 0.9117 0.28867 0.17093 0.0
C503 C 0.91618 0.2964 0.19966 0.0
C504 C 0.88402 0.27187 0.21453 0.0
C505 C 0.84777 0.23921 0.20044 0.0
C506 C 0.84334 0.22972 0.17251 0.0
C507 C 0.79944 0.19473 0.16247 0.0
C508 C 0.76871 0.21526 0.1425 0.0
C509 C 0.80925 0.14966 0.14962 0.0
C510 C 0.77939 0.18733 0.18903 0.0
C511 C 0.80811 0.21338 0.21062 0.0
C512 C 0.79573 0.21603 0.23683 0.0
C513 C 0.75278 0.19158 0.24114 0.0
C514 C 0.72297 0.16432 0.21951 0.0
C515 C 0.73655 0.16158 0.19316 0.0
H516 H 0.11383 0.54056 0.04348 0.0
H517 H 1.03823 0.64017 0.07211 0.0
H518 H 1.04563 0.6778 0.03 0.0
H519 H 0.19244 0.61914 0.011 0.0
H520 H 0.19339 0.57885 0.98216 0.0
H521 H 0.18136 0.55779 0.01433 0.0
H522 H 0.10562 0.50528 0.99142 0.0
H523 H 0.11769 0.52576 0.95912 0.0
H524 H 1.06526 0.53059 0.97201 0.0
H525 H 1.06375 0.70763 0.98643 0.0
H526 H 0.0852 0.72305 0.94087 0.0
H527 H 0.14805 0.60436 0.93897 0.0
C528 C 0.09833 0.56985 0.04068 0.0
C529 C 1.07561 0.58741 0.06122 0.0
C530 C 1.05599 0.62604 0.05681 0.0
C531 C 1.06005 0.64786 0.03293 0.0
C532 C 1.08355 0.63058 0.01344 0.0
C533 C 0.10184 0.59211 0.01673 0.0
C534 C 0.12519 0.58084 0.99225 0.0
C535 C 0.17612 0.58438 0.00044 0.0
C536 C 0.10205 0.53276 0.97785 0.0
C537 C 0.11731 0.61917 0.97496 0.0
C538 C 0.09349 0.64758 0.98775 0.0
C539 C 1.08235 0.68562 0.97611 0.0
C540 C 0.09507 0.69438 0.95035 0.0
C541 C 0.11849 0.66512 0.93646 0.0
C542 C 0.13007 0.62726 0.94912 0.0
H543 H 0.57988 0.99188 0.42697 0.0
H544 H 0.64272 0.13669 0.45054 0.0
H545 H 0.64016 0.15157 0.40225 0.0
H546 H 0.64259 0.98069 0.37095 0.0
H547 H 0.59668 0.94169 0.34959 0.0
H548 H 0.59915 0.94299 0.38601 0.0
H549 H 0.51832 0.95931 0.3836 0.0
H550 H 0.51561 0.95806 0.34713 0.0
H551 H 0.50647 0.00807 0.36686 0.0
H552 H 0.63182 0.15094 0.35201 0.0
H553 H 0.62339 0.13408 0.30232 0.0
H554 H 0.57245 0.98808 0.31074 0.0
C555 C 0.59238 0.02677 0.42184 0.0
C556 C 0.61113 0.06329 0.44231 0.0
C557 C 0.62822 0.10833 0.43504 0.0
C558 C 0.62672 0.11715 0.40772 0.0
C559 C 0.60857 0.0804 0.38795 0.0
C560 C 0.59206 0.03601 0.39456 0.0
C561 C 0.57758 1.00223 0.3692 0.0
C562 C 0.60569 0.9647 0.36893 0.0
C563 C 0.52645 0.98065 0.36655 0.0
C564 C 0.58879 0.0346 0.34742 0.0
C565 C 0.60599 0.07959 0.35873 0.0
C566 C 0.61873 0.11577 0.34287 0.0
C567 C 0.61422 0.10569 0.31463 0.0
C568 C 0.59787 0.0596 0.30244 0.0
C569 C 0.5847 0.02373 0.31923 0.0
H570 H 0.54526 0.52184 0.7442 0.0
H571 H 0.67542 0.48696 0.7662 0.0
H572 H 0.69339 0.49398 0.71933 0.0
H573 H 0.5221 0.45804 0.67909 0.0
H574 H 0.49593 0.49964 0.66268 0.0
H575 H 0.49419 0.49507 0.69851 0.0
H576 H 0.53113 0.58255 0.70855 0.0
H577 H 0.53325 0.58734 0.6727 0.0
H578 H 0.5844 0.60531 0.69616 0.0
H579 H 0.69635 0.5004 0.67039 0.0
H580 H 0.68242 0.50263 0.62074 0.0
H581 H 0.55093 0.53381 0.62929 0.0
C582 C 0.57764 0.51599 0.73917 0.0
C583 C 0.60891 0.50383 0.75889 0.0
C584 C 0.6508 0.49615 0.75147 0.0
C585 C 0.66151 0.50033 0.72492 0.0
C586 C 0.63005 0.5123 0.70599 0.0
C587 C 0.5889 0.51989 0.71262 0.0
C588 C 0.56036 0.53 0.68786 0.0
C589 C 0.5155 0.4935 0.68168 0.0
C590 C 0.55179 0.57924 0.69155 0.0
C591 C 0.59161 0.52591 0.66624 0.0
C592 C 0.63181 0.51617 0.67733 0.0
C593 C 0.66527 0.50847 0.66146 0.0
C594 C 0.6571 0.50978 0.63337 0.0
C595 C 0.61586 0.5187 0.62147 0.0
C596 C 0.58302 0.52774 0.63811 0.0
H597 H 0.57268 0.07752 0.61509 0.0
H598 H 0.67392 0.99466 0.60785 0.0
H599 H 0.67232 0.98001 0.65592 0.0
H600 H 0.61636 0.13048 0.68305 0.0
H601 H 0.56101 0.1297 0.69345 0.0
H602 H 0.56969 0.13353 0.65827 0.0
H603 H 0.50497 0.06077 0.64444 0.0
H604 H 0.49621 0.05659 0.67959 0.0
H605 H 0.50752 0.0079 0.65964 0.0
H606 H 0.65921 0.97303 0.7043 0.0
H607 H 0.6385 0.97806 0.75105 0.0
H608 H 0.54651 0.06608 0.72749 0.0
C609 C 0.59456 0.05637 0.62363 0.0
C610 C 0.62338 0.03721 0.60766 0.0
C611 C 0.65163 0.00986 0.61965 0.0
C612 C 0.65088 1.00117 0.64694 0.0
C613 C 0.62192 0.02027 0.66205 0.0
C614 C 0.59452 0.0476 0.65096 0.0
C615 C 0.5671 0.06452 0.6719 0.0
C616 C 0.57929 0.11771 0.67696 0.0
C617 C 0.51592 0.04635 0.66338 0.0
C618 C 0.58337 0.04233 0.69642 0.0
C619 C 0.61477 0.01674 0.69021 0.0
C620 C 0.63462 0.99291 0.70944 0.0
C621 C 0.62239 0.99569 0.73587 0.0
C622 C 0.59076 0.02226 0.74285 0.0
C623 C 0.57094 0.04569 0.72276 0.0
H624 H 0.5252 0.48188 0.92935 0.0
H625 H 0.6227 0.6076 0.91911 0.0
H626 H 0.61885 0.63786 0.96596 0.0
H627 H 0.45741 0.53784 0.97487 0.0
H628 H 0.44895 0.49012 -0.00438 0.0
H629 H 0.45488 0.47986 0.96006 0.0
H630 H 0.52137 0.44001 0.97254 0.0
H631 H 0.51561 0.45011 0.00806 0.0
H632 H 0.56946 0.47088 -0.00415 0.0
H633 H 0.61184 0.65156 0.01459 0.0
H634 H 0.60107 0.64755 0.06311 0.0
H635 H 0.50719 0.51462 0.04307 0.0
C636 C 0.54499 0.51609 0.93689 0.0
C637 C 0.57438 0.54226 0.92063 0.0
C638 C 0.60029 0.58666 0.93127 0.0
C639 C 0.59811 0.6044 0.95782 0.0
C640 C 0.56971 0.57751 0.97356 0.0
C641 C 0.54343 0.5344 0.9636 0.0
C642 C 0.51847 0.51145 0.9857 0.0
C643 C 0.46685 0.50441 0.97864 0.0
C644 C 0.53206 0.4654 0.99084 0.0
C645 C 0.53597 0.54785 0.00965 0.0
C646 C 0.56513 0.58585 0.00202 0.0
C647 C 0.58841 0.62246 0.02079 0.0
C648 C 0.58222 0.61992 0.04822 0.0
C649 C 0.55289 0.5812 0.05652 0.0
C650 C 0.52891 0.54508 0.03697 0.0
H651 H 0.11119 0.60385 0.23756 0.0
H652 H 0.08822 0.45598 0.21465 0.0
H653 H 0.09775 0.44235 0.26321 0.0
H654 H 0.19469 0.61102 0.29533 0.0
H655 H 0.17301 0.6526 0.31551 0.0
H656 H 0.16608 0.65095 0.27898 0.0
H657 H 1.07907 0.64044 0.27881 0.0
H658 H 0.08577 0.64239 0.31535 0.0
H659 H 1.04829 0.59358 0.29529 0.0
H660 H 0.11271 0.44538 0.31402 0.0
H661 H 0.12389 0.46338 0.36373 0.0
H662 H 0.12974 0.60873 0.35346 0.0
C663 C 0.1084 0.56863 0.24279 0.0
C664 C 0.09938 0.53094 0.22244 0.0
C665 C 0.09513 0.48529 0.23 0.0
C666 C 0.1007 0.47726 0.25747 0.0
C667 C 0.1098 0.51522 0.27705 0.0
C668 C 0.11295 0.55993 0.27009 0.0
C669 C 0.12071 0.59437 0.2951 0.0
C670 C 0.16634 0.62929 0.29629 0.0
C671 C 1.0811 0.61914 0.2962 0.0
C672 C 0.12171 0.56205 0.31724 0.0
C673 C 0.11592 0.51666 0.30638 0.0
C674 C 0.11661 0.48071 0.32277 0.0
C675 C 0.12263 0.49133 0.35104 0.0
C676 C 0.12706 0.53745 0.36275 0.0
C677 C 0.1269 0.57319 0.3454 0.0
loop_
_geom_bond_atom_site_label_1
_geom_bond_atom_site_label_2
_geom_bond_distance
_geom_bond_site_symmetry_2
_ccdc_geom_bond_type
Dy0 O3 2.307 1_455 S
Dy0 O5 2.395 . S
Dy0 O6 2.379 . S
Dy0 O8 2.339 . S
Dy0 O10 2.298 . S
Dy0 O14 2.275 . S
Dy0 C22 2.738 . S
Dy1 O4 2.298 1_455 S
Dy1 O7 2.275 . S
Dy1 O9 2.307 . S
Dy1 O11 2.395 1_455 S
Dy1 O12 2.379 1_455 S
Dy1 O15 2.339 . S
Dy1 C31 2.738 1_455 S
C2 O14 1.254 . S
C2 O15 1.257 . S
O3 Dy0 2.307 1_655 S
O3 C13 1.266 . S
O4 Dy1 2.298 1_655 S
O4 C13 1.236 . S
O5 Dy0 2.395 . S
O5 C22 1.255 . S
O6 Dy0 2.379 . S
O6 C22 1.249 . S
O7 Dy1 2.275 . S
O7 C23 1.254 . S
O8 Dy0 2.339 . S
O8 C23 1.257 . S
O9 Dy1 2.307 . S
O9 C24 1.266 . S
O10 Dy0 2.298 . S
O10 C24 1.236 . S
O11 Dy1 2.395 1_655 S
O11 C31 1.255 . S
O12 Dy1 2.379 1_655 S
O12 C31 1.249 . S
C13 O3 1.266 . S
C13 O4 1.236 . S
O14 Dy0 2.275 . S
O14 C2 1.254 . S
O15 Dy1 2.339 . S
O15 C2 1.257 . S
C16 C19 1.344 . S
C16 C20 1.328 . S
C16 C22 1.516 . S
C17 C18 1.304 . S
C17 C21 1.323 . S
C18 C17 1.304 . S
C18 C19 1.371 . S
C18 H32 0.930 . S
C19 C16 1.344 . S
C19 C18 1.371 . S
C19 H33 0.931 . S
C20 C16 1.328 . S
C20 C21 1.433 . S
C20 H34 0.931 . S
C21 C17 1.323 . S
C21 C20 1.433 . S
C21 H35 0.933 . S
C22 Dy0 2.738 . S
C22 O5 1.255 . S
C22 O6 1.249 . S
C22 C16 1.516 . S
C23 O7 1.254 . S
C23 O8 1.257 . S
C24 O9 1.266 . S
C24 O10 1.236 . S
C25 C28 1.344 . S
C25 C29 1.328 . S
C25 C31 1.516 . S
C26 C27 1.304 . S
C26 C30 1.323 . S
C27 C26 1.304 . S
C27 C28 1.371 . S
C27 H36 0.930 . S
C28 C25 1.344 . S
C28 C27 1.371 . S
C28 H37 0.931 . S
C29 C25 1.328 . S
C29 C30 1.433 . S
C29 H38 0.931 . S
C30 C26 1.323 . S
C30 C29 1.433 . S
C30 H39 0.933 . S
C31 Dy1 2.738 1_655 S
C31 O11 1.255 . S
C31 O12 1.249 . S
C31 C25 1.516 . S
H32 C18 0.930 . S
H33 C19 0.931 . S
H34 C20 0.931 . S
H35 C21 0.933 . S
H36 C27 0.930 . S
H37 C28 0.931 . S
H38 C29 0.931 . S
H39 C30 0.933 . S
Dy40 O43 2.307 . S
Dy40 O45 2.395 1_545 S
Dy40 O46 2.379 1_545 S
Dy40 O48 2.339 . S
Dy40 O50 2.298 1_545 S
Dy40 O54 2.275 . S
Dy40 C62 2.738 1_545 S
Dy41 O44 2.298 . S
Dy41 O47 2.275 . S
Dy41 O49 2.307 1_545 S
Dy41 O51 2.395 . S
Dy41 O52 2.379 . S
Dy41 O55 2.339 . S
Dy41 C71 2.738 . S
C42 O54 1.254 . S
C42 O55 1.257 . S
O43 Dy40 2.307 . S
O43 C53 1.266 . S
O44 Dy41 2.298 . S
O44 C53 1.236 . S
O45 Dy40 2.395 1_565 S
O45 C62 1.255 . S
O46 Dy40 2.379 1_565 S
O46 C62 1.249 . S
O47 Dy41 2.275 . S
O47 C63 1.254 . S
O48 Dy40 2.339 . S
O48 C63 1.257 . S
O49 Dy41 2.307 1_565 S
O49 C64 1.266 . S
O50 Dy40 2.298 1_565 S
O50 C64 1.236 . S
O51 Dy41 2.395 . S
O51 C71 1.255 . S
O52 Dy41 2.379 . S
O52 C71 1.249 . S
C53 O43 1.266 . S
C53 O44 1.236 . S
O54 Dy40 2.275 . S
O54 C42 1.254 . S
O55 Dy41 2.339 . S
O55 C42 1.257 . S
C56 C59 1.344 . S
C56 C60 1.328 . S
C56 C62 1.516 . S
C57 C58 1.304 . S
C57 C61 1.323 . S
C58 C57 1.304 . S
C58 C59 1.371 . S
C58 H72 0.930 . S
C59 C56 1.344 . S
C59 C58 1.371 . S
C59 H73 0.931 . S
C60 C56 1.328 . S
C60 C61 1.433 . S
C60 H74 0.931 . S
C61 C57 1.323 . S
C61 C60 1.433 . S
C61 H75 0.933 . S
C62 Dy40 2.738 1_565 S
C62 O45 1.255 . S
C62 O46 1.249 . S
C62 C56 1.516 . S
C63 O47 1.254 . S
C63 O48 1.257 . S
C64 O49 1.266 . S
C64 O50 1.236 . S
C65 C68 1.344 . S
C65 C69 1.328 . S
C65 C71 1.516 . S
C66 C67 1.304 . S
C66 C70 1.323 . S
C67 C66 1.304 . S
C67 C68 1.371 . S
C67 H76 0.930 . S
C68 C65 1.344 . S
C68 C67 1.371 . S
C68 H77 0.931 . S
C69 C65 1.328 . S
C69 C70 1.433 . S
C69 H78 0.931 . S
C70 C66 1.323 . S
C70 C69 1.433 . S
C70 H79 0.933 . S
C71 Dy41 2.738 . S
C71 O51 1.255 . S
C71 O52 1.249 . S
C71 C65 1.516 . S
H72 C58 0.930 . S
H73 C59 0.931 . S
H74 C60 0.931 . S
H75 C61 0.933 . S
H76 C67 0.930 . S
H77 C68 0.931 . S
H78 C69 0.931 . S
H79 C70 0.933 . S
Dy80 O83 2.307 . S
Dy80 O85 2.395 . S
Dy80 O86 2.379 . S
Dy80 O88 2.339 . S
Dy80 O90 2.298 . S
Dy80 O94 2.275 . S
Dy80 C102 2.738 . S
Dy81 O84 2.298 . S
Dy81 O87 2.275 . S
Dy81 O89 2.307 . S
Dy81 O91 2.395 . S
Dy81 O92 2.379 . S
Dy81 O95 2.339 . S
Dy81 C111 2.738 . S
C82 O94 1.254 . S
C82 O95 1.257 . S
O83 Dy80 2.307 . S
O83 C93 1.266 . S
O84 Dy81 2.298 . S
O84 C93 1.236 . S
O85 Dy80 2.395 . S
O85 C102 1.255 . S
O86 Dy80 2.379 . S
O86 C102 1.249 . S
O87 Dy81 2.275 . S
O87 C103 1.254 . S
O88 Dy80 2.339 . S
O88 C103 1.257 . S
O89 Dy81 2.307 . S
O89 C104 1.266 . S
O90 Dy80 2.298 . S
O90 C104 1.236 . S
O91 Dy81 2.395 . S
O91 C111 1.255 . S
O92 Dy81 2.379 . S
O92 C111 1.249 . S
C93 O83 1.266 . S
C93 O84 1.236 . S
O94 Dy80 2.275 . S
O94 C82 1.254 . S
O95 Dy81 2.339 . S
O95 C82 1.257 . S
C96 C99 1.344 . S
C96 C100 1.328 . S
C96 C102 1.516 . S
C97 C98 1.304 . S
C97 C101 1.323 . S
C98 C97 1.304 . S
C98 C99 1.371 . S
C98 H112 0.930 . S
C99 C96 1.344 . S
C99 C98 1.371 . S
C99 H113 0.931 . S
C100 C96 1.328 . S
C100 C101 1.433 . S
C100 H114 0.931 . S
C101 C97 1.323 . S
C101 C100 1.433 . S
C101 H115 0.933 . S
C102 Dy80 2.738 . S
C102 O85 1.255 . S
C102 O86 1.249 . S
C102 C96 1.516 . S
C103 O87 1.254 . S
C103 O88 1.257 . S
C104 O89 1.266 . S
C104 O90 1.236 . S
C105 C108 1.344 . S
C105 C109 1.328 . S
C105 C111 1.516 . S
C106 C107 1.304 . S
C106 C110 1.323 . S
C107 C106 1.304 . S
C107 C108 1.371 . S
C107 H116 0.930 . S
C108 C105 1.344 . S
C108 C107 1.371 . S
C108 H117 0.931 . S
C109 C105 1.328 . S
C109 C110 1.433 . S
C109 H118 0.931 . S
C110 C106 1.323 . S
C110 C109 1.433 . S
C110 H119 0.933 . S
C111 Dy81 2.738 . S
C111 O91 1.255 . S
C111 O92 1.249 . S
C111 C105 1.516 . S
H112 C98 0.930 . S
H113 C99 0.931 . S
H114 C100 0.931 . S
H115 C101 0.933 . S
H116 C107 0.930 . S
H117 C108 0.931 . S
H118 C109 0.931 . S
H119 C110 0.933 . S
H120 C125 0.930 . S
H121 C128 0.930 . S
H122 C130 0.930 . S
H123 C124 1.016 . S
C124 H123 1.016 . S
C124 N131 1.286 . S
C125 H120 0.930 . S
C125 C126 1.397 . S
C125 C127 1.361 . S
C126 C125 1.397 . S
C126 C130 1.390 . S
C127 C125 1.361 . S
C127 C128 1.393 . S
C127 N131 1.413 . S
C128 H121 0.930 . S
C128 C127 1.393 . S
C128 C129 1.399 . S
C129 C128 1.399 . S
C129 C130 1.381 . S
C130 H122 0.930 . S
C130 C126 1.390 . S
C130 C129 1.381 . S
N131 C124 1.286 . S
N131 C127 1.413 . S
H132 C137 0.930 . S
H133 C140 0.930 . S
H134 C142 0.930 . S
H135 C136 1.016 . S
C136 H135 1.016 . S
C136 N143 1.286 . S
C137 H132 0.930 . S
C137 C138 1.397 . S
C137 C139 1.361 . S
C138 C137 1.397 . S
C138 C142 1.390 . S
C139 C137 1.361 . S
C139 C140 1.393 . S
C139 N143 1.413 . S
C140 H133 0.930 . S
C140 C139 1.393 . S
C140 C141 1.399 . S
C141 C140 1.399 . S
C141 C142 1.381 . S
C142 H134 0.930 . S
C142 C138 1.390 . S
C142 C141 1.381 . S
N143 C136 1.286 . S
N143 C139 1.413 . S
H144 C149 0.928 1_655 S
H145 C152 0.930 . S
H146 C154 0.930 . S
H147 C148 1.016 . S
C148 H147 1.016 . S
C148 N155 1.286 . S
C149 H144 0.928 1_455 S
C149 C150 1.371 1_455 S
C149 C151 1.389 . S
C150 C149 1.371 1_655 S
C150 C154 1.390 . S
C151 C149 1.389 . S
C151 C152 1.393 . S
C151 N155 1.413 . S
C152 H145 0.930 . S
C152 C151 1.393 . S
C152 C153 1.399 . S
C153 C152 1.399 . S
C153 C154 1.381 1_455 S
C154 H146 0.930 . S
C154 C150 1.390 . S
C154 C153 1.381 1_655 S
N155 C148 1.286 . S
N155 C151 1.413 . S
H156 C161 0.930 . S
H157 C164 0.930 . S
H158 C166 0.930 . S
H159 C160 1.016 . S
C160 H159 1.016 . S
C160 N167 1.286 . S
C161 H156 0.930 . S
C161 C162 1.397 . S
C161 C163 1.361 . S
C162 C161 1.397 . S
C162 C166 1.390 . S
C163 C161 1.361 . S
C163 C164 1.393 1_455 S
C163 N167 1.413 1_455 S
C164 H157 0.930 . S
C164 C163 1.393 1_655 S
C164 C165 1.399 1_655 S
C165 C164 1.399 1_455 S
C165 C166 1.381 . S
C166 H158 0.930 . S
C166 C162 1.390 . S
C166 C165 1.381 . S
N167 C160 1.286 . S
N167 C163 1.413 1_655 S
H168 C173 0.930 . S
H169 C176 0.930 . S
H170 C178 0.930 . S
H171 C172 1.016 . S
C172 H171 1.016 . S
C172 N179 1.286 . S
C173 H168 0.930 . S
C173 C174 1.397 . S
C173 C175 1.361 1_545 S
C174 C173 1.397 . S
C174 C178 1.390 . S
C175 C173 1.361 1_565 S
C175 C176 1.393 . S
C175 N179 1.413 . S
C176 H169 0.930 . S
C176 C175 1.393 . S
C176 C177 1.399 1_565 S
C177 C176 1.399 1_545 S
C177 C178 1.381 . S
C178 H170 0.930 . S
C178 C174 1.390 . S
C178 C177 1.381 . S
N179 C172 1.286 . S
N179 C175 1.413 . S
H180 C185 0.930 . S
H181 C188 0.930 . S
H182 C190 0.930 . S
H183 C184 1.016 . S
C184 H183 1.016 . S
C184 N191 1.286 . S
C185 H180 0.930 . S
C185 C186 1.397 . S
C185 C187 1.361 . S
C186 C185 1.397 . S
C186 C190 1.390 . S
C187 C185 1.361 . S
C187 C188 1.393 . S
C187 N191 1.413 . S
C188 H181 0.930 . S
C188 C187 1.393 . S
C188 C189 1.399 . S
C189 C188 1.399 . S
C189 C190 1.381 . S
C190 H182 0.930 . S
C190 C186 1.390 . S
C190 C189 1.381 . S
N191 C184 1.286 . S
N191 C187 1.413 . S
H192 C204 0.930 . S
H193 C206 0.930 . S
H194 C207 0.930 . S
H195 C211 0.959 . S
H196 C211 0.959 . S
H197 C211 0.961 . S
H198 C212 0.960 . S
H199 C212 0.961 . S
H200 C212 0.959 . S
H201 C215 0.929 . S
H202 C216 0.931 . S
H203 C218 0.930 . S
C204 H192 0.930 . S
C204 C205 1.399 . S
C204 C209 1.399 . S
C205 C204 1.399 . S
C205 C206 1.376 . S
C206 H193 0.930 . S
C206 C205 1.376 . S
C206 C207 1.388 . S
C207 H194 0.930 . S
C207 C206 1.388 . S
C207 C208 1.390 . S
C208 C207 1.390 . S
C208 C209 1.394 . S
C208 C214 1.465 . S
C209 C204 1.399 . S
C209 C208 1.394 . S
C209 C210 1.516 . S
C210 C209 1.516 . S
C210 C211 1.502 . S
C210 C212 1.561 . S
C210 C213 1.526 . S
C211 H195 0.959 . S
C211 H196 0.959 . S
C211 H197 0.961 . S
C211 C210 1.502 . S
C212 H198 0.960 . S
C212 H199 0.961 . S
C212 H200 0.959 . S
C212 C210 1.561 . S
C213 C210 1.526 . S
C213 C214 1.396 . S
C213 C218 1.390 . S
C214 C208 1.465 . S
C214 C213 1.396 . S
C214 C215 1.399 . S
C215 H201 0.929 . S
C215 C214 1.399 . S
C215 C216 1.385 . S
C216 H202 0.931 . S
C216 C215 1.385 . S
C216 C217 1.389 . S
C217 C216 1.389 . S
C217 C218 1.387 . S
C218 H203 0.930 . S
C218 C213 1.390 . S
C218 C217 1.387 . S
H219 C231 0.930 . S
H220 C233 0.930 . S
H221 C234 0.930 . S
H222 C238 0.959 . S
H223 C238 0.959 . S
H224 C238 0.961 . S
H225 C239 0.960 . S
H226 C239 0.961 . S
H227 C239 0.959 . S
H228 C242 0.929 . S
H229 C243 0.931 . S
H230 C245 0.930 . S
C231 H219 0.930 . S
C231 C232 1.399 . S
C231 C236 1.399 . S
C232 C231 1.399 . S
C232 C233 1.376 . S
C233 H220 0.930 . S
C233 C232 1.376 . S
C233 C234 1.388 . S
C234 H221 0.930 . S
C234 C233 1.388 . S
C234 C235 1.390 . S
C235 C234 1.390 . S
C235 C236 1.394 . S
C235 C241 1.465 . S
C236 C231 1.399 . S
C236 C235 1.394 . S
C236 C237 1.516 . S
C237 C236 1.516 . S
C237 C238 1.502 . S
C237 C239 1.561 . S
C237 C240 1.526 . S
C238 H222 0.959 . S
C238 H223 0.959 . S
C238 H224 0.961 . S
C238 C237 1.502 . S
C239 H225 0.960 . S
C239 H226 0.961 . S
C239 H227 0.959 . S
C239 C237 1.561 . S
C240 C237 1.526 . S
C240 C241 1.396 . S
C240 C245 1.390 . S
C241 C235 1.465 . S
C241 C240 1.396 . S
C241 C242 1.399 . S
C242 H228 0.929 . S
C242 C241 1.399 . S
C242 C243 1.385 . S
C243 H229 0.931 . S
C243 C242 1.385 . S
C243 C244 1.389 . S
C244 C243 1.389 . S
C244 C245 1.387 . S
C245 H230 0.930 . S
C245 C240 1.390 . S
C245 C244 1.387 . S
H246 C258 0.930 . S
H247 C260 0.930 . S
H248 C261 0.930 . S
H249 C265 0.959 . S
H250 C265 0.959 . S
H251 C265 0.961 . S
H252 C266 0.960 . S
H253 C266 0.961 . S
H254 C266 0.959 . S
H255 C269 0.929 . S
H256 C270 0.931 . S
H257 C272 0.930 . S
C258 H246 0.930 . S
C258 C259 1.399 . S
C258 C263 1.399 . S
C259 C258 1.399 . S
C259 C260 1.376 . S
C260 H247 0.930 . S
C260 C259 1.376 . S
C260 C261 1.388 . S
C261 H248 0.930 . S
C261 C260 1.388 . S
C261 C262 1.390 . S
C262 C261 1.390 . S
C262 C263 1.394 . S
C262 C268 1.465 . S
C263 C258 1.399 . S
C263 C262 1.394 . S
C263 C264 1.516 . S
C264 C263 1.516 . S
C264 C265 1.502 . S
C264 C266 1.561 . S
C264 C267 1.526 . S
C265 H249 0.959 . S
C265 H250 0.959 . S
C265 H251 0.961 . S
C265 C264 1.502 . S
C266 H252 0.960 . S
C266 H253 0.961 . S
C266 H254 0.959 . S
C266 C264 1.561 . S
C267 C264 1.526 . S
C267 C268 1.396 . S
C267 C272 1.390 . S
C268 C262 1.465 . S
C268 C267 1.396 . S
C268 C269 1.399 . S
C269 H255 0.929 . S
C269 C268 1.399 . S
C269 C270 1.385 . S
C270 H256 0.931 . S
C270 C269 1.385 . S
C270 C271 1.389 . S
C271 C270 1.389 . S
C271 C272 1.387 . S
C272 H257 0.930 . S
C272 C267 1.390 . S
C272 C271 1.387 . S
H273 C285 0.930 . S
H274 C287 0.930 . S
H275 C288 0.930 . S
H276 C292 0.959 . S
H277 C292 0.959 . S
H278 C292 0.961 . S
H279 C293 0.960 . S
H280 C293 0.961 . S
H281 C293 0.959 . S
H282 C296 0.929 . S
H283 C297 0.931 . S
H284 C299 0.930 . S
C285 H273 0.930 . S
C285 C286 1.399 . S
C285 C290 1.399 . S
C286 C285 1.399 . S
C286 C287 1.376 . S
C287 H274 0.930 . S
C287 C286 1.376 . S
C287 C288 1.388 . S
C288 H275 0.930 . S
C288 C287 1.388 . S
C288 C289 1.390 . S
C289 C288 1.390 . S
C289 C290 1.394 . S
C289 C295 1.465 . S
C290 C285 1.399 . S
C290 C289 1.394 . S
C290 C291 1.516 . S
C291 C290 1.516 . S
C291 C292 1.502 . S
C291 C293 1.561 . S
C291 C294 1.526 . S
C292 H276 0.959 . S
C292 H277 0.959 . S
C292 H278 0.961 . S
C292 C291 1.502 . S
C293 H279 0.960 . S
C293 H280 0.961 . S
C293 H281 0.959 . S
C293 C291 1.561 . S
C294 C291 1.526 . S
C294 C295 1.396 . S
C294 C299 1.390 . S
C295 C289 1.465 . S
C295 C294 1.396 . S
C295 C296 1.399 . S
C296 H282 0.929 . S
C296 C295 1.399 . S
C296 C297 1.385 . S
C297 H283 0.931 . S
C297 C296 1.385 . S
C297 C298 1.389 . S
C298 C297 1.389 . S
C298 C299 1.387 . S
C299 H284 0.930 . S
C299 C294 1.390 . S
C299 C298 1.387 . S
H300 C312 0.930 . S
H301 C314 0.930 . S
H302 C315 0.930 . S
H303 C319 0.959 . S
H304 C319 0.959 . S
H305 C319 0.961 . S
H306 C320 0.960 . S
H307 C320 0.961 . S
H308 C320 0.959 . S
H309 C323 0.929 . S
H310 C324 0.931 . S
H311 C326 0.930 . S
C312 H300 0.930 . S
C312 C313 1.399 . S
C312 C317 1.399 . S
C313 C312 1.399 . S
C313 C314 1.376 . S
C314 H301 0.930 . S
C314 C313 1.376 . S
C314 C315 1.388 . S
C315 H302 0.930 . S
C315 C314 1.388 . S
C315 C316 1.390 . S
C316 C315 1.390 . S
C316 C317 1.394 . S
C316 C322 1.465 . S
C317 C312 1.399 . S
C317 C316 1.394 . S
C317 C318 1.516 . S
C318 C317 1.516 . S
C318 C319 1.502 . S
C318 C320 1.561 . S
C318 C321 1.526 . S
C319 H303 0.959 . S
C319 H304 0.959 . S
C319 H305 0.961 . S
C319 C318 1.502 . S
C320 H306 0.960 . S
C320 H307 0.961 . S
C320 H308 0.959 . S
C320 C318 1.561 . S
C321 C318 1.526 . S
C321 C322 1.396 . S
C321 C326 1.390 . S
C322 C316 1.465 . S
C322 C321 1.396 . S
C322 C323 1.399 . S
C323 H309 0.929 . S
C323 C322 1.399 . S
C323 C324 1.385 . S
C324 H310 0.931 . S
C324 C323 1.385 . S
C324 C325 1.389 . S
C325 C324 1.389 . S
C325 C326 1.387 . S
C326 H311 0.930 . S
C326 C321 1.390 . S
C326 C325 1.387 . S
H327 C339 0.930 . S
H328 C341 0.930 . S
H329 C342 0.930 . S
H330 C346 0.959 . S
H331 C346 0.959 . S
H332 C346 0.961 . S
H333 C347 0.960 . S
H334 C347 0.961 . S
H335 C347 0.959 . S
H336 C350 0.929 . S
H337 C351 0.931 . S
H338 C353 0.930 . S
C339 H327 0.930 . S
C339 C340 1.399 . S
C339 C344 1.399 . S
C340 C339 1.399 . S
C340 C341 1.376 . S
C341 H328 0.930 . S
C341 C340 1.376 . S
C341 C342 1.388 . S
C342 H329 0.930 . S
C342 C341 1.388 . S
C342 C343 1.390 . S
C343 C342 1.390 . S
C343 C344 1.394 . S
C343 C349 1.465 . S
C344 C339 1.399 . S
C344 C343 1.394 . S
C344 C345 1.516 . S
C345 C344 1.516 . S
C345 C346 1.502 . S
C345 C347 1.561 . S
C345 C348 1.526 . S
C346 H330 0.959 . S
C346 H331 0.959 . S
C346 H332 0.961 . S
C346 C345 1.502 . S
C347 H333 0.960 . S
C347 H334 0.961 . S
C347 H335 0.959 . S
C347 C345 1.561 . S
C348 C345 1.526 . S
C348 C349 1.396 . S
C348 C353 1.390 . S
C349 C343 1.465 . S
C349 C348 1.396 . S
C349 C350 1.399 . S
C350 H336 0.929 . S
C350 C349 1.399 . S
C350 C351 1.385 . S
C351 H337 0.931 . S
C351 C350 1.385 . S
C351 C352 1.389 . S
C352 C351 1.389 . S
C352 C353 1.387 . S
C353 H338 0.930 . S
C353 C348 1.390 . S
C353 C352 1.387 . S
H354 C366 0.930 . S
H355 C368 0.930 . S
H356 C369 0.930 . S
H357 C373 0.959 . S
H358 C373 0.959 . S
H359 C373 0.961 . S
H360 C374 0.960 . S
H361 C374 0.961 . S
H362 C374 0.959 . S
H363 C377 0.929 . S
H364 C378 0.931 . S
H365 C380 0.930 . S
C366 H354 0.930 . S
C366 C367 1.399 . S
C366 C371 1.399 . S
C367 C366 1.399 . S
C367 C368 1.376 . S
C368 H355 0.930 . S
C368 C367 1.376 . S
C368 C369 1.388 . S
C369 H356 0.930 . S
C369 C368 1.388 . S
C369 C370 1.390 . S
C370 C369 1.390 . S
C370 C371 1.394 . S
C370 C376 1.465 . S
C371 C366 1.399 . S
C371 C370 1.394 . S
C371 C372 1.516 . S
C372 C371 1.516 . S
C372 C373 1.502 . S
C372 C374 1.561 . S
C372 C375 1.526 . S
C373 H357 0.959 . S
C373 H358 0.959 . S
C373 H359 0.961 . S
C373 C372 1.502 . S
C374 H360 0.960 . S
C374 H361 0.961 . S
C374 H362 0.959 . S
C374 C372 1.561 . S
C375 C372 1.526 . S
C375 C376 1.396 . S
C375 C380 1.390 . S
C376 C370 1.465 . S
C376 C375 1.396 . S
C376 C377 1.399 . S
C377 H363 0.929 . S
C377 C376 1.399 . S
C377 C378 1.385 . S
C378 H364 0.931 . S
C378 C377 1.385 . S
C378 C379 1.389 . S
C379 C378 1.389 . S
C379 C380 1.387 . S
C380 H365 0.930 . S
C380 C375 1.390 . S
C380 C379 1.387 . S
H381 C393 0.930 . S
H382 C395 0.930 . S
H383 C396 0.930 . S
H384 C400 0.959 . S
H385 C400 0.959 . S
H386 C400 0.961 . S
H387 C401 0.960 . S
H388 C401 0.961 . S
H389 C401 0.959 . S
H390 C404 0.929 . S
H391 C405 0.931 . S
H392 C407 0.930 . S
C393 H381 0.930 . S
C393 C394 1.399 . S
C393 C398 1.399 . S
C394 C393 1.399 . S
C394 C395 1.376 . S
C395 H382 0.930 . S
C395 C394 1.376 . S
C395 C396 1.388 . S
C396 H383 0.930 . S
C396 C395 1.388 . S
C396 C397 1.390 . S
C397 C396 1.390 . S
C397 C398 1.394 . S
C397 C403 1.465 . S
C398 C393 1.399 . S
C398 C397 1.394 . S
C398 C399 1.516 . S
C399 C398 1.516 . S
C399 C400 1.502 . S
C399 C401 1.561 . S
C399 C402 1.526 . S
C400 H384 0.959 . S
C400 H385 0.959 . S
C400 H386 0.961 . S
C400 C399 1.502 . S
C401 H387 0.960 . S
C401 H388 0.961 . S
C401 H389 0.959 . S
C401 C399 1.561 . S
C402 C399 1.526 . S
C402 C403 1.396 . S
C402 C407 1.390 . S
C403 C397 1.465 . S
C403 C402 1.396 . S
C403 C404 1.399 . S
C404 H390 0.929 . S
C404 C403 1.399 . S
C404 C405 1.385 . S
C405 H391 0.931 . S
C405 C404 1.385 . S
C405 C406 1.389 . S
C406 C405 1.389 . S
C406 C407 1.387 . S
C407 H392 0.930 . S
C407 C402 1.390 . S
C407 C406 1.387 . S
H408 C420 0.930 . S
H409 C422 0.930 . S
H410 C423 0.930 . S
H411 C427 0.959 . S
H412 C427 0.959 . S
H413 C427 0.961 . S
H414 C428 0.960 . S
H415 C428 0.961 1_545 S
H416 C428 0.959 . S
H417 C431 0.929 . S
H418 C432 0.931 . S
H419 C434 0.930 . S
C420 H408 0.930 . S
C420 C421 1.399 . S
C420 C425 1.399 . S
C421 C420 1.399 . S
C421 C422 1.376 . S
C422 H409 0.930 . S
C422 C421 1.376 . S
C422 C423 1.388 . S
C423 H410 0.930 . S
C423 C422 1.388 . S
C423 C424 1.390 . S
C424 C423 1.390 . S
C424 C425 1.394 . S
C424 C430 1.465 . S
C425 C420 1.399 . S
C425 C424 1.394 . S
C425 C426 1.516 . S
C426 C425 1.516 . S
C426 C427 1.502 1_565 S
C426 C428 1.561 . S
C426 C429 1.526 . S
C427 H411 0.959 . S
C427 H412 0.959 . S
C427 H413 0.961 . S
C427 C426 1.502 1_545 S
C428 H414 0.960 . S
C428 H415 0.961 1_565 S
C428 H416 0.959 . S
C428 C426 1.561 . S
C429 C426 1.526 . S
C429 C430 1.396 . S
C429 C434 1.390 1_565 S
C430 C424 1.465 . S
C430 C429 1.396 . S
C430 C431 1.399 . S
C431 H417 0.929 . S
C431 C430 1.399 . S
C431 C432 1.385 . S
C432 H418 0.931 . S
C432 C431 1.385 . S
C432 C433 1.389 1_565 S
C433 C432 1.389 1_545 S
C433 C434 1.387 . S
C434 H419 0.930 . S
C434 C429 1.390 1_545 S
C434 C433 1.387 . S
H435 C447 0.930 . S
H436 C449 0.930 . S
H437 C450 0.930 . S
H438 C454 0.959 . S
H439 C454 0.959 . S
H440 C454 0.961 . S
H441 C455 0.960 . S
H442 C455 0.961 . S
H443 C455 0.959 . S
H444 C458 0.929 . S
H445 C459 0.931 . S
H446 C461 0.930 . S
C447 H435 0.930 . S
C447 C448 1.399 . S
C447 C452 1.399 . S
C448 C447 1.399 . S
C448 C449 1.376 . S
C449 H436 0.930 . S
C449 C448 1.376 . S
C449 C450 1.388 . S
C450 H437 0.930 . S
C450 C449 1.388 . S
C450 C451 1.390 . S
C451 C450 1.390 . S
C451 C452 1.394 . S
C451 C457 1.465 . S
C452 C447 1.399 . S
C452 C451 1.394 . S
C452 C453 1.516 . S
C453 C452 1.516 . S
C453 C454 1.502 . S
C453 C455 1.561 . S
C453 C456 1.526 . S
C454 H438 0.959 . S
C454 H439 0.959 . S
C454 H440 0.961 . S
C454 C453 1.502 . S
C455 H441 0.960 . S
C455 H442 0.961 . S
C455 H443 0.959 . S
C455 C453 1.561 . S
C456 C453 1.526 . S
C456 C457 1.396 . S
C456 C461 1.390 . S
C457 C451 1.465 . S
C457 C456 1.396 . S
C457 C458 1.399 . S
C458 H444 0.929 . S
C458 C457 1.399 . S
C458 C459 1.385 . S
C459 H445 0.931 . S
C459 C458 1.385 . S
C459 C460 1.389 . S
C460 C459 1.389 . S
C460 C461 1.387 . S
C461 H446 0.930 . S
C461 C456 1.390 . S
C461 C460 1.387 . S
H462 C474 0.930 . S
H463 C476 0.930 . S
H464 C477 0.930 . S
H465 C481 0.959 . S
H466 C481 0.959 . S
H467 C481 0.961 . S
H468 C482 0.960 . S
H469 C482 0.961 . S
H470 C482 0.959 . S
H471 C485 0.929 . S
H472 C486 0.931 . S
H473 C488 0.930 . S
C474 H462 0.930 . S
C474 C475 1.399 . S
C474 C479 1.399 . S
C475 C474 1.399 . S
C475 C476 1.376 . S
C476 H463 0.930 . S
C476 C475 1.376 . S
C476 C477 1.388 . S
C477 H464 0.930 . S
C477 C476 1.388 . S
C477 C478 1.390 . S
C478 C477 1.390 . S
C478 C479 1.394 . S
C478 C484 1.465 . S
C479 C474 1.399 . S
C479 C478 1.394 . S
C479 C480 1.516 . S
C480 C479 1.516 . S
C480 C481 1.502 . S
C480 C482 1.561 . S
C480 C483 1.526 . S
C481 H465 0.959 . S
C481 H466 0.959 . S
C481 H467 0.961 . S
C481 C480 1.502 . S
C482 H468 0.960 . S
C482 H469 0.961 . S
C482 H470 0.959 . S
C482 C480 1.561 . S
C483 C480 1.526 . S
C483 C484 1.396 . S
C483 C488 1.390 . S
C484 C478 1.465 . S
C484 C483 1.396 . S
C484 C485 1.399 . S
C485 H471 0.929 . S
C485 C484 1.399 . S
C485 C486 1.385 . S
C486 H472 0.931 . S
C486 C485 1.385 . S
C486 C487 1.389 . S
C487 C486 1.389 . S
C487 C488 1.387 . S
C488 H473 0.930 . S
C488 C483 1.390 . S
C488 C487 1.387 . S
H489 C501 0.930 . S
H490 C503 0.930 . S
H491 C504 0.930 . S
H492 C508 0.959 . S
H493 C508 0.959 . S
H494 C508 0.961 . S
H495 C509 0.960 . S
H496 C509 0.961 . S
H497 C509 0.959 . S
H498 C512 0.929 . S
H499 C513 0.931 . S
H500 C515 0.930 . S
C501 H489 0.930 . S
C501 C502 1.399 . S
C501 C506 1.399 . S
C502 C501 1.399 . S
C502 C503 1.376 . S
C503 H490 0.930 . S
C503 C502 1.376 . S
C503 C504 1.388 . S
C504 H491 0.930 . S
C504 C503 1.388 . S
C504 C505 1.390 . S
C505 C504 1.390 . S
C505 C506 1.394 . S
C505 C511 1.465 . S
C506 C501 1.399 . S
C506 C505 1.394 . S
C506 C507 1.516 . S
C507 C506 1.516 . S
C507 C508 1.502 . S
C507 C509 1.561 . S
C507 C510 1.526 . S
C508 H492 0.959 . S
C508 H493 0.959 . S
C508 H494 0.961 . S
C508 C507 1.502 . S
C509 H495 0.960 . S
C509 H496 0.961 . S
C509 H497 0.959 . S
C509 C507 1.561 . S
C510 C507 1.526 . S
C510 C511 1.396 . S
C510 C515 1.390 . S
C511 C505 1.465 . S
C511 C510 1.396 . S
C511 C512 1.399 . S
C512 H498 0.929 . S
C512 C511 1.399 . S
C512 C513 1.385 . S
C513 H499 0.931 . S
C513 C512 1.385 . S
C513 C514 1.389 . S
C514 C513 1.389 . S
C514 C515 1.387 . S
C515 H500 0.930 . S
C515 C510 1.390 . S
C515 C514 1.387 . S
H516 C528 0.930 . S
H517 C530 0.930 . S
H518 C531 0.930 . S
H519 C535 0.959 . S
H520 C535 0.959 . S
H521 C535 0.961 . S
H522 C536 0.960 . S
H523 C536 0.961 . S
H524 C536 0.959 . S
H525 C539 0.929 . S
H526 C540 0.931 . S
H527 C542 0.930 . S
C528 H516 0.930 . S
C528 C529 1.399 . S
C528 C533 1.399 . S
C529 C528 1.399 . S
C529 C530 1.376 . S
C530 H517 0.930 . S
C530 C529 1.376 . S
C530 C531 1.388 . S
C531 H518 0.930 . S
C531 C530 1.388 . S
C531 C532 1.390 . S
C532 C531 1.390 . S
C532 C533 1.394 . S
C532 C538 1.465 . S
C533 C528 1.399 . S
C533 C532 1.394 . S
C533 C534 1.516 . S
C534 C533 1.516 . S
C534 C535 1.502 . S
C534 C536 1.561 1_455 S
C534 C537 1.526 1_554 S
C535 H519 0.959 . S
C535 H520 0.959 . S
C535 H521 0.961 . S
C535 C534 1.502 . S
C536 H522 0.960 . S
C536 H523 0.961 . S
C536 H524 0.959 . S
C536 C534 1.561 1_655 S
C537 C534 1.526 1_556 S
C537 C538 1.396 1_556 S
C537 C542 1.390 . S
C538 C532 1.465 . S
C538 C537 1.396 1_554 S
C538 C539 1.399 1_554 S
C539 H525 0.929 . S
C539 C538 1.399 1_556 S
C539 C540 1.385 . S
C540 H526 0.931 . S
C540 C539 1.385 . S
C540 C541 1.389 . S
C541 C540 1.389 . S
C541 C542 1.387 . S
C542 H527 0.930 . S
C542 C537 1.390 . S
C542 C541 1.387 . S
H543 C555 0.930 1_565 S
H544 C557 0.930 . S
H545 C558 0.930 . S
H546 C562 0.959 . S
H547 C562 0.959 . S
H548 C562 0.961 . S
H549 C563 0.960 . S
H550 C563 0.961 . S
H551 C563 0.959 . S
H552 C566 0.929 . S
H553 C567 0.931 . S
H554 C569 0.930 . S
C555 H543 0.930 1_545 S
C555 C556 1.399 . S
C555 C560 1.399 . S
C556 C555 1.399 . S
C556 C557 1.376 . S
C557 H544 0.930 . S
C557 C556 1.376 . S
C557 C558 1.388 . S
C558 H545 0.930 . S
C558 C557 1.388 . S
C558 C559 1.390 . S
C559 C558 1.390 . S
C559 C560 1.394 . S
C559 C565 1.465 . S
C560 C555 1.399 . S
C560 C559 1.394 . S
C560 C561 1.516 . S
C561 C560 1.516 . S
C561 C562 1.502 1_545 S
C561 C563 1.561 1_545 S
C561 C564 1.526 . S
C562 H546 0.959 . S
C562 H547 0.959 . S
C562 H548 0.961 . S
C562 C561 1.502 1_565 S
C563 H549 0.960 . S
C563 H550 0.961 . S
C563 H551 0.959 . S
C563 C561 1.561 1_565 S
C564 C561 1.526 . S
C564 C565 1.396 . S
C564 C569 1.390 . S
C565 C559 1.465 . S
C565 C564 1.396 . S
C565 C566 1.399 . S
C566 H552 0.929 . S
C566 C565 1.399 . S
C566 C567 1.385 . S
C567 H553 0.931 . S
C567 C566 1.385 . S
C567 C568 1.389 . S
C568 C567 1.389 . S
C568 C569 1.387 . S
C569 H554 0.930 . S
C569 C564 1.390 . S
C569 C568 1.387 . S
H570 C582 0.930 . S
H571 C584 0.930 . S
H572 C585 0.930 . S
H573 C589 0.959 . S
H574 C589 0.959 . S
H575 C589 0.961 . S
H576 C590 0.960 . S
H577 C590 0.961 . S
H578 C590 0.959 . S
H579 C593 0.929 . S
H580 C594 0.931 . S
H581 C596 0.930 . S
C582 H570 0.930 . S
C582 C583 1.399 . S
C582 C587 1.399 . S
C583 C582 1.399 . S
C583 C584 1.376 . S
C584 H571 0.930 . S
C584 C583 1.376 . S
C584 C585 1.388 . S
C585 H572 0.930 . S
C585 C584 1.388 . S
C585 C586 1.390 . S
C586 C585 1.390 . S
C586 C587 1.394 . S
C586 C592 1.465 . S
C587 C582 1.399 . S
C587 C586 1.394 . S
C587 C588 1.516 . S
C588 C587 1.516 . S
C588 C589 1.502 . S
C588 C590 1.561 . S
C588 C591 1.526 . S
C589 H573 0.959 . S
C589 H574 0.959 . S
C589 H575 0.961 . S
C589 C588 1.502 . S
C590 H576 0.960 . S
C590 H577 0.961 . S
C590 H578 0.959 . S
C590 C588 1.561 . S
C591 C588 1.526 . S
C591 C592 1.396 . S
C591 C596 1.390 . S
C592 C586 1.465 . S
C592 C591 1.396 . S
C592 C593 1.399 . S
C593 H579 0.929 . S
C593 C592 1.399 . S
C593 C594 1.385 . S
C594 H580 0.931 . S
C594 C593 1.385 . S
C594 C595 1.389 . S
C595 C594 1.389 . S
C595 C596 1.387 . S
C596 H581 0.930 . S
C596 C591 1.390 . S
C596 C595 1.387 . S
H597 C609 0.930 1_565 S
H598 C611 0.930 . S
H599 C612 0.930 . S
H600 C616 0.948 1_545 S
H601 C616 0.959 . S
H602 C616 0.961 . S
H603 C617 0.960 . S
H604 C617 0.961 . S
H605 C617 0.959 . S
H606 C620 0.929 . S
H607 C621 0.931 . S
H608 C623 0.930 . S
C609 H597 0.930 1_545 S
C609 C610 1.399 . S
C609 C614 1.399 . S
C610 C609 1.399 . S
C610 C611 1.376 . S
C611 H598 0.930 . S
C611 C610 1.376 . S
C611 C612 1.388 . S
C612 H599 0.930 . S
C612 C611 1.388 . S
C612 C613 1.390 . S
C613 C612 1.390 . S
C613 C614 1.394 . S
C613 C619 1.465 . S
C614 C609 1.399 . S
C614 C613 1.394 . S
C614 C615 1.516 1_545 S
C615 C614 1.516 1_565 S
C615 C616 1.502 . S
C615 C617 1.561 . S
C615 C618 1.526 1_565 S
C616 H600 0.948 1_565 S
C616 H601 0.959 . S
C616 H602 0.961 . S
C616 C615 1.502 . S
C617 H603 0.960 . S
C617 H604 0.961 . S
C617 H605 0.959 . S
C617 C615 1.561 . S
C618 C615 1.526 1_545 S
C618 C619 1.396 . S
C618 C623 1.390 1_545 S
C619 C613 1.465 . S
C619 C618 1.396 . S
C619 C620 1.399 . S
C620 H606 0.929 . S
C620 C619 1.399 . S
C620 C621 1.385 . S
C621 H607 0.931 . S
C621 C620 1.385 . S
C621 C622 1.389 . S
C622 C621 1.389 . S
C622 C623 1.387 1_545 S
C623 H608 0.930 . S
C623 C618 1.390 1_565 S
C623 C622 1.387 1_565 S
H624 C636 0.930 . S
H625 C638 0.930 . S
H626 C639 0.930 . S
H627 C643 0.959 . S
H628 C643 0.959 . S
H629 C643 0.961 . S
H630 C644 0.960 . S
H631 C644 0.961 1_554 S
H632 C644 0.959 . S
H633 C647 0.929 . S
H634 C648 0.931 . S
H635 C650 0.930 . S
C636 H624 0.930 . S
C636 C637 1.399 . S
C636 C641 1.399 . S
C637 C636 1.399 . S
C637 C638 1.376 . S
C638 H625 0.930 . S
C638 C637 1.376 . S
C638 C639 1.388 . S
C639 H626 0.930 . S
C639 C638 1.388 . S
C639 C640 1.390 . S
C640 C639 1.390 . S
C640 C641 1.394 . S
C640 C646 1.465 1_556 S
C641 C636 1.399 . S
C641 C640 1.394 . S
C641 C642 1.516 . S
C642 C641 1.516 . S
C642 C643 1.502 . S
C642 C644 1.561 . S
C642 C645 1.526 1_556 S
C643 H627 0.959 . S
C643 H628 0.959 . S
C643 H629 0.961 . S
C643 C642 1.502 . S
C644 H630 0.960 . S
C644 H631 0.961 1_556 S
C644 H632 0.959 . S
C644 C642 1.561 . S
C645 C642 1.526 1_554 S
C645 C646 1.396 . S
C645 C650 1.390 . S
C646 C640 1.465 1_554 S
C646 C645 1.396 . S
C646 C647 1.399 . S
C647 H633 0.929 . S
C647 C646 1.399 . S
C647 C648 1.385 . S
C648 H634 0.931 . S
C648 C647 1.385 . S
C648 C649 1.389 . S
C649 C648 1.389 . S
C649 C650 1.387 . S
C650 H635 0.930 . S
C650 C645 1.390 . S
C650 C649 1.387 . S
H651 C663 0.930 . S
H652 C665 0.930 . S
H653 C666 0.930 . S
H654 C670 0.959 . S
H655 C670 0.959 . S
H656 C670 0.961 . S
H657 C671 0.960 . S
H658 C671 0.961 . S
H659 C671 0.959 . S
H660 C674 0.929 . S
H661 C675 0.931 . S
H662 C677 0.930 . S
C663 H651 0.930 . S
C663 C664 1.399 . S
C663 C668 1.399 . S
C664 C663 1.399 . S
C664 C665 1.376 1_455 S
C665 H652 0.930 . S
C665 C664 1.376 1_655 S
C665 C666 1.388 . S
C666 H653 0.930 . S
C666 C665 1.388 . S
C666 C667 1.390 1_655 S
C667 C666 1.390 1_455 S
C667 C668 1.394 . S
C667 C673 1.465 . S
C668 C663 1.399 . S
C668 C667 1.394 . S
C668 C669 1.516 . S
C669 C668 1.516 . S
C669 C670 1.502 . S
C669 C671 1.561 . S
C669 C672 1.526 . S
C670 H654 0.959 . S
C670 H655 0.959 . S
C670 H656 0.961 . S
C670 C669 1.502 . S
C671 H657 0.960 . S
C671 H658 0.961 . S
C671 H659 0.959 . S
C671 C669 1.561 . S
C672 C669 1.526 . S
C672 C673 1.396 . S
C672 C677 1.390 . S
C673 C667 1.465 . S
C673 C672 1.396 . S
C673 C674 1.399 1_455 S
C674 H660 0.929 . S
C674 C673 1.399 1_655 S
C674 C675 1.385 . S
C675 H661 0.931 . S
C675 C674 1.385 . S
C675 C676 1.389 1_655 S
C676 C675 1.389 1_455 S
C676 C677 1.387 . S
C677 H662 0.930 . S
C677 C672 1.390 . S
C677 C676 1.387 . S
C205 C24 3.228 . S
C217 C186 3.219 . S
C232 C66 1.190 . S
C244 C160 1.206 . S
C259 C93 1.847 . S
C271 C172 1.809 . S
C286 C13 2.843 . S
C298 C184 2.746 . S
C325 C162 1.070 . S
C313 C57 1.093 . S
C352 C174 1.821 . S
C340 C104 1.848 . S
C367 C64 1.981 . S
C379 C136 1.872 . S
C394 C97 0.669 . S
C406 C150 0.743 . S
C421 C17 1.148 . S
C433 C126 1.206 . S
C460 C138 1.695 . S
C448 C53 1.709 . S
C487 C148 0.328 . S
C475 C106 0.320 . S
C502 C26 1.205 . S
C514 C124 1.200 . S
C541 C153 1.215 . S
C529 C2 1.195 . S
C556 C63 1.481 . S
C568 C129 1.500 . S
C583 C82 1.474 . S
C595 C141 1.461 . S
C622 C177 1.443 . S
C610 C42 1.394 . S
C649 C189 1.799 . S
C637 C103 1.742 . S
C664 C23 1.533 . S
C676 C165 1.538 . S
