# Generated by pormake.
# Topology cml, (3,6)-cn, num edge types: 1
# Building blocks:
#     Node 0, Type 0, BuildingBlock: QEWDON_clean_linker_0, # of connection points: 3
#     Node 1, Type 0, BuildingBlock: QEWDON_clean_linker_0, # of connection points: 3
#     Node 2, Type 0, BuildingBlock: QEWDON_clean_linker_0, # of connection points: 3
#     Node 3, Type 0, BuildingBlock: QEWDON_clean_linker_0, # of connection points: 3
#     Node 4, Type 0, BuildingBlock: QEWDON_clean_linker_0, # of connection points: 3
#     Node 5, Type 0, BuildingBlock: QEWDON_clean_linker_0, # of connection points: 3
#     Node 6, Type 0, BuildingBlock: QEWDON_clean_linker_0, # of connection points: 3
#     Node 7, Type 0, BuildingBlock: QEWDON_clean_linker_0, # of connection points: 3
#     Node 8, Type 1, BuildingBlock: OJICUG_clean_sbu_0, # of connection points: 6
#     Node 9, Type 1, BuildingBlock: OJICUG_clean_sbu_0, # of connection points: 6
#     Node 10, Type 1, BuildingBlock: OJICUG_clean_sbu_0, # of connection points: 6
#     Node 11, Type 1, BuildingBlock: OJICUG_clean_sbu_0, # of connection points: 6
#     Edge 12, Type (0, 1), BuildingBlock: TEMPAE_clean_linker_10, # of connection points: 2
#     Edge 13, Type (0, 1), BuildingBlock: TEMPAE_clean_linker_10, # of connection points: 2
#     Edge 14, Type (0, 1), BuildingBlock: TEMPAE_clean_linker_10, # of connection points: 2
#     Edge 15, Type (0, 1), BuildingBlock: TEMPAE_clean_linker_10, # of connection points: 2
#     Edge 16, Type (0, 1), BuildingBlock: TEMPAE_clean_linker_10, # of connection points: 2
#     Edge 17, Type (0, 1), BuildingBlock: TEMPAE_clean_linker_10, # of connection points: 2
#     Edge 18, Type (0, 1), BuildingBlock: TEMPAE_clean_linker_10, # of connection points: 2
#     Edge 19, Type (0, 1), BuildingBlock: TEMPAE_clean_linker_10, # of connection points: 2
#     Edge 20, Type (0, 1), BuildingBlock: TEMPAE_clean_linker_10, # of connection points: 2
#     Edge 21, Type (0, 1), BuildingBlock: TEMPAE_clean_linker_10, # of connection points: 2
#     Edge 22, Type (0, 1), BuildingBlock: TEMPAE_clean_linker_10, # of connection points: 2
#     Edge 23, Type (0, 1), BuildingBlock: TEMPAE_clean_linker_10, # of connection points: 2
#     Edge 24, Type (0, 1), BuildingBlock: TEMPAE_clean_linker_10, # of connection points: 2
#     Edge 25, Type (0, 1), BuildingBlock: TEMPAE_clean_linker_10, # of connection points: 2
#     Edge 26, Type (0, 1), BuildingBlock: TEMPAE_clean_linker_10, # of connection points: 2
#     Edge 27, Type (0, 1), BuildingBlock: TEMPAE_clean_linker_10, # of connection points: 2
#     Edge 28, Type (0, 1), BuildingBlock: TEMPAE_clean_linker_10, # of connection points: 2
#     Edge 29, Type (0, 1), BuildingBlock: TEMPAE_clean_linker_10, # of connection points: 2
#     Edge 30, Type (0, 1), BuildingBlock: TEMPAE_clean_linker_10, # of connection points: 2
#     Edge 31, Type (0, 1), BuildingBlock: TEMPAE_clean_linker_10, # of connection points: 2
#     Edge 32, Type (0, 1), BuildingBlock: TEMPAE_clean_linker_10, # of connection points: 2
#     Edge 33, Type (0, 1), BuildingBlock: TEMPAE_clean_linker_10, # of connection points: 2
#     Edge 34, Type (0, 1), BuildingBlock: TEMPAE_clean_linker_10, # of connection points: 2
#     Edge 35, Type (0, 1), BuildingBlock: TEMPAE_clean_linker_10, # of connection points: 2
# Relax obj value: 0.005
# Max RMSD: 0.109
# Mean RMSD: 0.080
data_MOF--net-cml--node1-OJICUG_clean_sbu_0--node2-QEWDON_clean_linker_0--edge1-TEMPAE_clean_linker_10
_symmetry_space_group_name_H-M    P1
_symmetry_Int_Tables_number       1
_symmetry_cell_setting            triclinic
loop_
_symmetry_equiv_pos_as_xyz
'x, y, z'
_cell_length_a     43.387862
_cell_length_b     41.059982
_cell_length_c     36.135231
_cell_angle_alpha  90.006498
_cell_angle_beta   90.002889
_cell_angle_gamma 90.029589
loop_
_atom_site_label
_atom_site_type_symbol
_atom_site_fract_x
_atom_site_fract_y
_atom_site_fract_z
_atom_type_partial_charge
H0 H 0.26688 0.42621 0.96856 0.0
C1 C 0.27884 0.41429 0.99114 0.0
C2 C 0.31097 0.41743 0.99469 0.0
C3 C 0.26195 0.39634 0.01726 0.0
H4 H 0.35025 0.4064 0.02889 0.0
C5 C 0.32579 0.40244 0.02477 0.0
C6 C 0.30914 0.38453 0.05117 0.0
C7 C 0.27711 0.38141 0.04703 0.0
C8 C 0.22806 0.39586 0.01584 0.0
H9 H 0.26381 0.3681 0.06744 0.0
C10 C 0.21228 0.37031 -0.00175 0.0
C11 C 0.17979 0.36907 -0.0011 0.0
C12 C 0.21146 0.42047 0.0338 0.0
H13 H 0.22339 0.44021 0.04762 0.0
C14 C 0.17936 0.41947 0.03457 0.0
H15 H 0.22539 0.35164 0.98408 0.0
C16 C 0.1636 0.39392 0.01751 0.0
H17 H 0.1387 0.39342 0.01946 0.0
H18 H 0.16664 0.43837 0.04881 0.0
H19 H 0.73459 0.57524 0.46864 0.0
C20 C 0.72268 0.5873 0.49116 0.0
C21 C 0.69055 0.58422 0.49481 0.0
C22 C 0.73964 0.60539 0.51711 0.0
H23 H 0.65134 0.5955 0.52901 0.0
C24 C 0.67581 0.5994 0.52481 0.0
C25 C 0.69251 0.61744 0.55105 0.0
C26 C 0.72454 0.62051 0.54683 0.0
C27 C 0.77352 0.60584 0.51556 0.0
H28 H 0.73789 0.6339 0.56713 0.0
C29 C 0.78928 0.63153 0.49823 0.0
C30 C 0.82178 0.63267 0.49864 0.0
C31 C 0.79015 0.581 0.53306 0.0
H32 H 0.77823 0.56114 0.54668 0.0
C33 C 0.82226 0.58192 0.53365 0.0
H34 H 0.77615 0.65038 0.48438 0.0
C35 C 0.838 0.6076 0.51682 0.0
H36 H 0.86291 0.608 0.51859 0.0
H37 H 0.835 0.56284 0.54754 0.0
H38 H 0.69521 0.36352 0.93685 0.0
C39 C 0.68982 0.36554 0.96606 0.0
C40 C 0.6773 0.39457 0.98002 0.0
C41 C 0.69338 0.33842 0.9894 0.0
H42 H 0.65785 0.41846 0.0276 0.0
C43 C 0.66865 0.39641 0.0173 0.0
C44 C 0.6712 0.3692 0.04051 0.0
C45 C 0.68414 0.34043 0.02657 0.0
C46 C 0.70272 0.3066 0.97421 0.0
H47 H 0.68533 0.31895 0.04398 0.0
C48 C 0.73309 0.30107 0.96231 0.0
C49 C 0.7421 0.26993 0.94991 0.0
C50 C 0.68118 0.28114 0.97309 0.0
H51 H 0.65769 0.28502 0.98227 0.0
C52 C 0.68978 0.25046 0.96026 0.0
H53 H 0.74968 0.3208 0.96327 0.0
C54 C 0.72003 0.24478 0.94891 0.0
H55 H 0.72628 0.22043 0.94016 0.0
H56 H 0.67307 0.23089 0.9596 0.0
H57 H 0.30539 0.63715 0.43633 0.0
C58 C 0.31088 0.63548 0.46553 0.0
C59 C 0.32313 0.60648 0.47995 0.0
C60 C 0.30767 0.66295 0.4884 0.0
H61 H 0.34245 0.58306 0.52792 0.0
C62 C 0.33185 0.60507 0.51724 0.0
C63 C 0.32967 0.63265 0.53996 0.0
C64 C 0.31701 0.66137 0.52556 0.0
C65 C 0.29852 0.69463 0.47267 0.0
H66 H 0.3161 0.68311 0.54258 0.0
C67 C 0.26808 0.70034 0.46116 0.0
C68 C 0.25928 0.73136 0.44819 0.0
C69 C 0.32034 0.71979 0.47062 0.0
H70 H 0.34388 0.71576 0.4795 0.0
C71 C 0.31192 0.75033 0.45723 0.0
H72 H 0.2513 0.68083 0.46284 0.0
C73 C 0.28162 0.7562 0.44625 0.0
H74 H 0.27553 0.78046 0.43704 0.0
H75 H 0.32885 0.76968 0.45584 0.0
H76 H 0.76594 0.92123 0.96441 0.0
C77 C 0.7794 0.91221 0.98751 0.0
C78 C 0.81162 0.91576 0.98754 0.0
C79 C 0.76443 0.89809 0.018 0.0
H80 H 0.85342 0.90676 0.01784 0.0
C81 C 0.82859 0.90413 0.01789 0.0
C82 C 0.81387 0.89096 0.04913 0.0
C83 C 0.78163 0.88794 0.04879 0.0
C84 C 0.73056 0.89586 0.01927 0.0
H85 H 0.76963 0.87857 0.07285 0.0
C86 C 0.71488 0.87223 -0.00162 0.0
C87 C 0.68277 0.86814 0.00228 0.0
C88 C 0.71406 0.91601 0.04351 0.0
H89 H 0.7259 0.93417 0.05998 0.0
C90 C 0.68223 0.9126 0.04695 0.0
H91 H 0.72783 0.85676 0.97971 0.0
C92 C 0.66667 0.88874 0.02675 0.0
H93 H 0.64211 0.88594 0.03106 0.0
H94 H 0.66962 0.92811 0.06586 0.0
H95 H 0.23513 0.08057 0.46454 0.0
C96 C 0.22166 0.08954 0.48765 0.0
C97 C 0.18943 0.08604 0.48761 0.0
C98 C 0.23661 0.10356 0.51821 0.0
H99 H 0.1476 0.09503 0.51789 0.0
C100 C 0.17244 0.09762 0.51798 0.0
C101 C 0.18715 0.11072 0.54928 0.0
C102 C 0.2194 0.11367 0.549 0.0
C103 C 0.27049 0.10572 0.51955 0.0
H104 H 0.23139 0.12297 0.57311 0.0
C105 C 0.28623 0.12928 0.49864 0.0
C106 C 0.31834 0.13333 0.50261 0.0
C107 C 0.28692 0.08559 0.54386 0.0
H108 H 0.27502 0.06748 0.56035 0.0
C109 C 0.31875 0.08894 0.54737 0.0
H110 H 0.27333 0.14474 0.47991 0.0
C111 C 0.33438 0.11275 0.52716 0.0
H112 H 0.35893 0.11551 0.53151 0.0
H113 H 0.3313 0.07345 0.56634 0.0
H114 H 0.19228 0.87468 0.93983 0.0
C115 C 0.19 0.872 0.96955 0.0
C116 C 0.17625 0.89689 0.99051 0.0
C117 C 0.19812 0.8424 0.98645 0.0
H118 H 0.16057 0.9112 0.0447 0.0
C119 C 0.17203 0.89242 0.02867 0.0
C120 C 0.17945 0.86276 0.04558 0.0
C121 C 0.19261 0.83781 0.02436 0.0
C122 C 0.20709 0.81422 0.9637 0.0
H123 H 0.19712 0.81429 0.0369 0.0
C124 C 0.23823 0.80728 0.95653 0.0
C125 C 0.24651 0.77886 0.93691 0.0
C126 C 0.18411 0.79307 0.95087 0.0
H127 H 0.16002 0.79807 0.95644 0.0
C128 C 0.19204 0.76504 0.93139 0.0
H129 H 0.25578 0.82397 0.96632 0.0
C130 C 0.22293 0.75779 0.92467 0.0
H131 H 0.2283 0.73528 0.91047 0.0
H132 H 0.17419 0.7486 0.92191 0.0
H133 H 0.80935 0.12761 0.43963 0.0
C134 C 0.81171 0.13014 0.46937 0.0
C135 C 0.8255 0.10513 0.49011 0.0
C136 C 0.80365 0.15966 0.48649 0.0
H137 H 0.84128 0.09054 0.54416 0.0
C138 C 0.8298 0.1094 0.52829 0.0
C139 C 0.82242 0.13898 0.54543 0.0
C140 C 0.80924 0.16405 0.52442 0.0
C141 C 0.7946 0.18797 0.464 0.0
H142 H 0.80476 0.1875 0.53715 0.0
C143 C 0.76347 0.19463 0.45652 0.0
C144 C 0.75507 0.22321 0.43728 0.0
C145 C 0.81748 0.20953 0.45182 0.0
H146 H 0.84156 0.20475 0.45764 0.0
C147 C 0.80944 0.2377 0.43267 0.0
H148 H 0.746 0.17764 0.46583 0.0
C149 C 0.77853 0.24469 0.42568 0.0
H150 H 0.77306 0.26731 0.41178 0.0
H151 H 0.8272 0.25446 0.42369 0.0
Sc152 Sc 0.99961 0.82153 0.31943 0.0
Sc153 Sc 0.99617 0.90659 0.31134 0.0
Sc154 Sc 0.99858 0.87056 0.39924 0.0
O155 O 0.99805 0.8662 0.34337 0.0
C156 C 0.95512 0.80812 0.38704 0.0
C157 C 0.95114 0.85961 0.26848 0.0
C158 C 0.95079 0.92551 0.37813 0.0
C159 C 0.04297 0.86123 0.26601 0.0
C160 C 0.04739 0.81428 0.38654 0.0
C161 C 0.04245 0.92956 0.37337 0.0
O162 O 0.96259 0.80369 0.35339 0.0
O163 O 0.95772 0.88775 0.2808 0.0
O164 O 0.95907 0.90249 0.39951 0.0
O165 O 0.03693 0.83526 0.28364 0.0
O166 O 0.03833 0.83952 0.40379 0.0
O167 O 0.03443 0.92883 0.33953 0.0
O168 O 0.03403 0.8037 0.35758 0.0
O169 O 0.02846 0.88777 0.27113 0.0
O170 O 0.02991 0.91165 0.39793 0.0
O171 O 0.96582 0.834 0.27759 0.0
O172 O 0.96758 0.82978 0.40738 0.0
O173 O 0.96365 0.93081 0.34709 0.0
Sc174 Sc 0.00164 0.18021 0.81979 0.0
Sc175 Sc 0.00521 0.09515 0.81192 0.0
Sc176 Sc 0.00274 0.13137 0.89974 0.0
O177 O 0.00327 0.13561 0.84385 0.0
C178 C 0.04618 0.19378 0.88734 0.0
C179 C 0.05017 0.14208 0.76894 0.0
C180 C 0.05055 0.07636 0.87881 0.0
C181 C 0.95838 0.14033 0.76643 0.0
C182 C 0.9539 0.18762 0.88692 0.0
C183 C 0.95885 0.07234 0.87395 0.0
O184 O 0.03862 0.19819 0.85372 0.0
O185 O 0.04366 0.11397 0.78136 0.0
O186 O 0.04222 0.0994 0.90014 0.0
O187 O 0.96434 0.16634 0.78403 0.0
O188 O 0.96303 0.16247 0.90427 0.0
O189 O 0.96696 0.07296 0.84015 0.0
O190 O 0.96718 0.19809 0.85787 0.0
O191 O 0.97294 0.11384 0.77163 0.0
O192 O 0.97135 0.09031 0.89851 0.0
O193 O 0.03544 0.16768 0.77798 0.0
O194 O 0.03379 0.17213 0.90774 0.0
O195 O 0.03773 0.07103 0.84774 0.0
Sc196 Sc 0.49504 0.32217 0.31968 0.0
Sc197 Sc 0.49523 0.40785 0.31513 0.0
Sc198 Sc 0.49546 0.36885 0.40193 0.0
O199 O 0.49512 0.36627 0.34561 0.0
C200 C 0.45063 0.30804 0.38813 0.0
C201 C 0.44926 0.3626 0.26848 0.0
C202 C 0.448 0.42514 0.3801 0.0
C203 C 0.54141 0.36334 0.26914 0.0
C204 C 0.5432 0.31142 0.38562 0.0
C205 C 0.5403 0.42786 0.38108 0.0
O206 O 0.46022 0.30244 0.35555 0.0
O207 O 0.46067 0.38996 0.27763 0.0
O208 O 0.4588 0.40454 0.40307 0.0
O209 O 0.52991 0.33662 0.2804 0.0
O210 O 0.53275 0.33433 0.40575 0.0
O211 O 0.53017 0.431 0.34832 0.0
O212 O 0.53158 0.30381 0.35446 0.0
O213 O 0.5317 0.39098 0.27983 0.0
O214 O 0.52978 0.40675 0.40346 0.0
O215 O 0.45867 0.33579 0.28199 0.0
O216 O 0.46133 0.33086 0.40819 0.0
O217 O 0.45866 0.42888 0.34757 0.0
Sc218 Sc 0.50622 0.67948 0.81915 0.0
Sc219 Sc 0.50582 0.5938 0.81416 0.0
Sc220 Sc 0.5059 0.63249 0.90113 0.0
O221 O 0.5061 0.63527 0.84484 0.0
C222 C 0.55073 0.69334 0.88757 0.0
C223 C 0.55192 0.6391 0.76776 0.0
C224 C 0.55315 0.57612 0.87895 0.0
C225 C 0.45974 0.63865 0.7684 0.0
C226 C 0.45815 0.69 0.88524 0.0
C227 C 0.46087 0.57363 0.88011 0.0
O228 O 0.54115 0.69902 0.855 0.0
O229 O 0.54049 0.61172 0.7768 0.0
O230 O 0.54261 0.59685 0.90195 0.0
O231 O 0.47126 0.6653 0.77985 0.0
O232 O 0.46857 0.66696 0.9052 0.0
O233 O 0.47077 0.57069 0.84722 0.0
O234 O 0.46978 0.69777 0.85413 0.0
O235 O 0.46943 0.61095 0.77889 0.0
O236 O 0.47162 0.59453 0.90259 0.0
O237 O 0.54251 0.66589 0.78133 0.0
O238 O 0.54 0.67049 0.90755 0.0
O239 O 0.54226 0.57242 0.84652 0.0
C240 C 0.17405 0.30985 0.98182 0.0
C241 C 0.16265 0.34186 0.98084 0.0
C242 C 0.15742 0.28396 0.96601 0.0
C243 C 0.12842 0.2901 0.94949 0.0
C244 C 0.11692 0.32232 0.94809 0.0
C245 C 0.13431 0.34779 0.96333 0.0
C246 C 0.17068 0.25 0.96743 0.0
C247 C 0.08595 0.32986 0.93098 0.0
C248 C 0.09089 0.23194 0.88133 0.0
C249 C 0.06927 0.21602 0.90384 0.0
C250 C 0.11134 0.25501 0.89617 0.0
C251 C 0.10962 0.2629 0.93425 0.0
C252 C 0.08838 0.2463 0.95729 0.0
C253 C 0.06869 0.2228 0.94187 0.0
C254 C 0.13417 0.2716 0.87089 0.0
C255 C 0.08548 0.25441 0.99791 0.0
H256 H 0.19569 0.30482 0.99563 0.0
H257 H 0.12557 0.37245 0.96157 0.0
H258 H 0.15576 0.23413 0.98465 0.0
H259 H 0.17128 0.23929 0.93923 0.0
H260 H 0.19437 0.24961 0.97909 0.0
H261 H 0.08014 0.35617 0.93253 0.0
H262 H 0.08575 0.32231 0.90152 0.0
H263 H 0.06763 0.31583 0.94532 0.0
H264 H 0.09167 0.22654 0.85198 0.0
H265 H 0.05192 0.21071 0.95938 0.0
H266 H 0.15768 0.27039 0.88289 0.0
H267 H 0.12812 0.29773 0.86803 0.0
H268 H 0.13463 0.26048 0.84286 0.0
H269 H 0.10823 0.25247 0.01172 0.0
H270 H 0.06893 0.23817 0.0124 0.0
H271 H 0.07757 0.27996 0.00109 0.0
C272 C 0.8276 0.692 0.48208 0.0
C273 C 0.8389 0.65996 0.48071 0.0
C274 C 0.84419 0.71793 0.46632 0.0
C275 C 0.87305 0.71181 0.44944 0.0
C276 C 0.88446 0.67957 0.44767 0.0
C277 C 0.8671 0.65405 0.46288 0.0
C278 C 0.83103 0.75193 0.46814 0.0
C279 C 0.91527 0.67204 0.43018 0.0
C280 C 0.91023 0.77018 0.38126 0.0
C281 C 0.93207 0.78591 0.40364 0.0
C282 C 0.88982 0.74711 0.39617 0.0
C283 C 0.8918 0.73904 0.43419 0.0
C284 C 0.91326 0.75545 0.4571 0.0
C285 C 0.93291 0.77896 0.44162 0.0
C286 C 0.86674 0.73073 0.37103 0.0
C287 C 0.91645 0.74713 0.49763 0.0
H288 H 0.80607 0.697 0.49614 0.0
H289 H 0.87576 0.62937 0.46081 0.0
H290 H 0.84614 0.76766 0.48528 0.0
H291 H 0.83021 0.76278 0.44003 0.0
H292 H 0.80745 0.75232 0.48011 0.0
H293 H 0.92104 0.6457 0.4315 0.0
H294 H 0.91526 0.67971 0.40075 0.0
H295 H 0.93373 0.68596 0.44439 0.0
H296 H 0.90926 0.77572 0.35195 0.0
H297 H 0.94984 0.79091 0.45902 0.0
H298 H 0.84333 0.73193 0.38332 0.0
H299 H 0.8727 0.70461 0.36791 0.0
H300 H 0.86608 0.74201 0.3431 0.0
H301 H 0.89381 0.74905 0.51171 0.0
H302 H 0.93315 0.76326 0.51205 0.0
H303 H 0.92434 0.72155 0.50055 0.0
C304 C 0.7811 0.24263 0.90928 0.0
C305 C 0.77459 0.26294 0.93951 0.0
C306 C 0.81136 0.23297 0.90131 0.0
C307 C 0.83584 0.24416 0.92389 0.0
C308 C 0.82965 0.26576 0.9535 0.0
C309 C 0.79906 0.27481 0.96106 0.0
C310 C 0.81701 0.20994 0.86942 0.0
C311 C 0.85519 0.27842 0.97796 0.0
C312 C 0.90615 0.18932 0.92586 0.0
C313 C 0.92528 0.2041 0.89942 0.0
C314 C 0.87739 0.20272 0.93496 0.0
C315 C 0.8676 0.23178 0.91747 0.0
C316 C 0.88734 0.24764 0.89203 0.0
C317 C 0.91588 0.23355 0.88319 0.0
C318 C 0.85692 0.18498 0.96212 0.0
C319 C 0.87784 0.27887 0.87315 0.0
H320 H 0.76238 0.23385 0.89209 0.0
H321 H 0.79424 0.29025 0.98468 0.0
H322 H 0.83418 0.22048 0.85009 0.0
H323 H 0.82669 0.18672 0.87998 0.0
H324 H 0.79561 0.20444 0.85373 0.0
H325 H 0.84692 0.2972 0.99773 0.0
H326 H 0.86533 0.258 0.99395 0.0
H327 H 0.87391 0.28905 0.96087 0.0
H328 H 0.91311 0.16657 0.93858 0.0
H329 H 0.93055 0.24533 0.86293 0.0
H330 H 0.83589 0.17622 0.94775 0.0
H331 H 0.84937 0.20174 0.98442 0.0
H332 H 0.86865 0.16374 0.97493 0.0
H333 H 0.85819 0.27403 0.85429 0.0
H334 H 0.89692 0.28974 0.85678 0.0
H335 H 0.86994 0.29695 0.8939 0.0
C336 C 0.22009 0.75839 0.40759 0.0
C337 C 0.22674 0.73856 0.43818 0.0
C338 C 0.18982 0.76819 0.39986 0.0
C339 C 0.16549 0.75764 0.42306 0.0
C340 C 0.17182 0.73654 0.45308 0.0
C341 C 0.20241 0.72734 0.46038 0.0
C342 C 0.18401 0.79068 0.36751 0.0
C343 C 0.14644 0.72457 0.47821 0.0
C344 C 0.09553 0.81298 0.42479 0.0
C345 C 0.07603 0.79784 0.39899 0.0
C346 C 0.12432 0.79958 0.43374 0.0
C347 C 0.13375 0.77014 0.41678 0.0
C348 C 0.11365 0.75394 0.39203 0.0
C349 C 0.0851 0.76806 0.38329 0.0
C350 C 0.14518 0.81768 0.46015 0.0
C351 C 0.12276 0.72231 0.37376 0.0
H352 H 0.23869 0.76666 0.38991 0.0
H353 H 0.20736 0.71228 0.48429 0.0
H354 H 0.16659 0.77991 0.34866 0.0
H355 H 0.17458 0.81416 0.37765 0.0
H356 H 0.2053 0.79572 0.35141 0.0
H357 H 0.15478 0.70613 0.49836 0.0
H358 H 0.13658 0.74538 0.4938 0.0
H359 H 0.12749 0.71373 0.46166 0.0
H360 H 0.08884 0.83601 0.43706 0.0
H361 H 0.07014 0.75601 0.36354 0.0
H362 H 0.16612 0.82601 0.44525 0.0
H363 H 0.15286 0.8013 0.48274 0.0
H364 H 0.13373 0.83925 0.47261 0.0
H365 H 0.14226 0.72665 0.35452 0.0
H366 H 0.10346 0.71129 0.3579 0.0
H367 H 0.13074 0.70455 0.39482 0.0
C368 C 0.63616 0.84692 0.96885 0.0
C369 C 0.66611 0.8417 0.98227 0.0
C370 C 0.61915 0.8216 0.95266 0.0
C371 C 0.63259 0.79035 0.94908 0.0
C372 C 0.66317 0.78512 0.96132 0.0
C373 C 0.67948 0.81077 0.97804 0.0
C374 C 0.58653 0.82814 0.9401 0.0
C375 C 0.67843 0.75225 0.95745 0.0
C376 C 0.5764 0.71967 0.94192 0.0
C377 C 0.57409 0.71564 0.90348 0.0
C378 C 0.59599 0.74335 0.9572 0.0
C379 C 0.61412 0.76304 0.93349 0.0
C380 C 0.61302 0.75799 0.89477 0.0
C381 C 0.59281 0.73456 0.88021 0.0
C382 C 0.59624 0.74826 -0.00138 0.0
C383 C 0.63249 0.77801 0.86864 0.0
H384 H 0.62583 0.87085 0.97127 0.0
H385 H 0.70243 0.80628 0.9887 0.0
H386 H 0.58412 0.82249 0.91023 0.0
H387 H 0.57033 0.81204 0.95529 0.0
H388 H 0.57952 0.85384 0.94471 0.0
H389 H 0.70305 0.7528 0.96585 0.0
H390 H 0.66621 0.73412 0.97485 0.0
H391 H 0.67694 0.74369 0.92838 0.0
H392 H 0.56192 0.70526 0.96008 0.0
H393 H 0.59139 0.73134 0.85047 0.0
H394 H 0.58719 0.77284 0.00532 0.0
H395 H 0.62016 0.74701 0.00935 0.0
H396 H 0.58204 0.72984 0.01334 0.0
H397 H 0.62469 0.80373 0.86917 0.0
H398 H 0.63114 0.769 0.83969 0.0
H399 H 0.65695 0.77772 0.87759 0.0
C400 C 0.36503 0.15445 0.46927 0.0
C401 C 0.33506 0.15972 0.48261 0.0
C402 C 0.38209 0.17973 0.45309 0.0
C403 C 0.3687 0.21099 0.44945 0.0
C404 C 0.3381 0.21627 0.46159 0.0
C405 C 0.32173 0.19066 0.47829 0.0
C406 C 0.41474 0.17314 0.44064 0.0
C407 C 0.32288 0.24915 0.45765 0.0
C408 C 0.42492 0.28164 0.44242 0.0
C409 C 0.42728 0.28568 0.40399 0.0
C410 C 0.40531 0.25797 0.45765 0.0
C411 C 0.38722 0.23827 0.43389 0.0
C412 C 0.38839 0.24331 0.39517 0.0
C413 C 0.40862 0.26674 0.38066 0.0
C414 C 0.40499 0.25307 0.49907 0.0
C415 C 0.36897 0.22328 0.369 0.0
H416 H 0.37533 0.13051 0.47174 0.0
H417 H 0.29877 0.19519 0.48889 0.0
H418 H 0.41721 0.17877 0.41077 0.0
H419 H 0.43092 0.18922 0.45587 0.0
H420 H 0.4217 0.14743 0.44527 0.0
H421 H 0.29824 0.24864 0.46597 0.0
H422 H 0.33508 0.26728 0.47508 0.0
H423 H 0.32445 0.25769 0.42857 0.0
H424 H 0.43936 0.29607 0.46062 0.0
H425 H 0.41008 0.26996 0.35094 0.0
H426 H 0.41398 0.22847 0.5058 0.0
H427 H 0.38105 0.25436 0.50974 0.0
H428 H 0.4192 0.27147 0.51382 0.0
H429 H 0.37674 0.19755 0.36959 0.0
H430 H 0.3704 0.23225 0.34004 0.0
H431 H 0.34449 0.22361 0.37786 0.0
C432 C 0.28798 0.75466 0.89698 0.0
C433 C 0.27945 0.77042 0.92993 0.0
C434 C 0.3182 0.74372 0.89127 0.0
C435 C 0.34086 0.74949 0.91868 0.0
C436 C 0.3329 0.76676 0.9512 0.0
C437 C 0.30223 0.77668 0.95666 0.0
C438 C 0.32564 0.72506 0.85635 0.0
C439 C 0.3566 0.77401 0.98066 0.0
C440 C 0.40801 0.69033 0.9191 0.0
C441 C 0.42973 0.70685 0.89732 0.0
C442 C 0.37929 0.70433 0.92713 0.0
C443 C 0.37241 0.73594 0.91381 0.0
C444 C 0.39488 0.75342 0.89347 0.0
C445 C 0.42313 0.73848 0.88501 0.0
C446 C 0.35575 0.6846 0.94825 0.0
C447 C 0.38871 0.7875 0.87966 0.0
H448 H 0.27087 0.75045 0.87567 0.0
H449 H 0.29599 0.78852 0.98238 0.0
H450 H 0.34452 0.73731 0.84104 0.0
H451 H 0.33381 0.70025 0.86355 0.0
H452 H 0.30542 0.72278 0.83767 0.0
H453 H 0.3475 0.79048 0.00246 0.0
H454 H 0.36411 0.75098 0.99393 0.0
H455 H 0.37732 0.78539 0.96811 0.0
H456 H 0.41287 0.66577 0.92843 0.0
H457 H 0.43995 0.75144 0.86841 0.0
H458 H 0.3356 0.67958 0.93019 0.0
H459 H 0.34724 0.69853 0.97247 0.0
H460 H 0.3652 0.66101 0.95812 0.0
H461 H 0.37075 0.78682 0.85783 0.0
H462 H 0.40971 0.79909 0.86798 0.0
H463 H 0.37982 0.80298 0.90246 0.0
C464 C 0.71365 0.24755 0.39739 0.0
C465 C 0.7221 0.23142 0.43013 0.0
C466 C 0.68338 0.25835 0.39163 0.0
C467 C 0.66062 0.25205 0.41874 0.0
C468 C 0.66851 0.23438 0.45101 0.0
C469 C 0.69921 0.22461 0.45654 0.0
C470 C 0.67602 0.27743 0.35699 0.0
C471 C 0.64469 0.22656 0.48015 0.0
C472 C 0.59321 0.31085 0.41979 0.0
C473 C 0.57165 0.29454 0.39757 0.0
C474 C 0.62195 0.29688 0.42776 0.0
C475 C 0.62903 0.2655 0.41391 0.0
C476 C 0.60673 0.24819 0.3931 0.0
C477 C 0.57845 0.26311 0.38475 0.0
C478 C 0.6453 0.31642 0.44942 0.0
C479 C 0.61312 0.21435 0.3787 0.0
H480 H 0.73085 0.25219 0.3763 0.0
H481 H 0.70538 0.21248 0.48211 0.0
H482 H 0.65726 0.26531 0.34134 0.0
H483 H 0.66772 0.30211 0.36457 0.0
H484 H 0.69631 0.28006 0.33848 0.0
H485 H 0.65376 0.20979 0.50167 0.0
H486 H 0.63703 0.24934 0.49383 0.0
H487 H 0.62408 0.21528 0.46722 0.0
H488 H 0.5882 0.33526 0.42955 0.0
H489 H 0.56176 0.25029 0.36781 0.0
H490 H 0.66551 0.32179 0.4316 0.0
H491 H 0.65375 0.30219 0.47344 0.0
H492 H 0.6357 0.33982 0.45965 0.0
H493 H 0.63117 0.21543 0.35701 0.0
H494 H 0.59223 0.20282 0.36667 0.0
H495 H 0.62198 0.1986 0.40127 0.0
C496 C 0.35882 0.4289 0.95822 0.0
C497 C 0.32922 0.43853 0.96938 0.0
C498 C 0.37861 0.45058 0.93995 0.0
C499 C 0.36842 0.48259 0.93215 0.0
C500 C 0.33782 0.49174 0.94094 0.0
C501 C 0.31859 0.46964 0.95963 0.0
C502 C 0.41107 0.43982 0.93108 0.0
C503 C 0.32596 0.5255 0.93255 0.0
C504 C 0.43041 0.54779 0.93108 0.0
C505 C 0.4362 0.55134 0.8931 0.0
C506 C 0.40809 0.52585 0.944 0.0
C507 C 0.39079 0.50725 0.91835 0.0
C508 C 0.3959 0.51129 0.87994 0.0
C509 C 0.4187 0.53312 0.86776 0.0
C510 C 0.40356 0.52202 0.98523 0.0
C511 C 0.37757 0.49225 0.85177 0.0
H512 H 0.36696 0.40467 0.96505 0.0
H513 H 0.29584 0.47738 0.96832 0.0
H514 H 0.4167 0.44519 0.90178 0.0
H515 H 0.42762 0.4536 0.94851 0.0
H516 H 0.41456 0.41338 0.9361 0.0
H517 H 0.30062 0.52736 0.93644 0.0
H518 H 0.33729 0.54334 0.95118 0.0
H519 H 0.33168 0.53252 0.90371 0.0
H520 H 0.44382 0.56167 0.95088 0.0
H521 H 0.42281 0.5359 0.83834 0.0
H522 H 0.40883 0.49661 0.99355 0.0
H523 H 0.37917 0.52679 0.99264 0.0
H524 H 0.41847 0.53875 0.00148 0.0
H525 H 0.38255 0.46588 0.85469 0.0
H526 H 0.38294 0.49973 0.82293 0.0
H527 H 0.35253 0.49557 0.85668 0.0
C528 C 0.64262 0.57264 0.45855 0.0
C529 C 0.67223 0.56302 0.46968 0.0
C530 C 0.62276 0.5509 0.44047 0.0
C531 C 0.6329 0.51885 0.43281 0.0
C532 C 0.66352 0.5097 0.44156 0.0
C533 C 0.6828 0.53186 0.46008 0.0
C534 C 0.5903 0.56166 0.43164 0.0
C535 C 0.67533 0.4759 0.4333 0.0
C536 C 0.57085 0.45372 0.43197 0.0
C537 C 0.565 0.45013 0.39401 0.0
C538 C 0.5932 0.47565 0.44482 0.0
C539 C 0.6105 0.49418 0.4191 0.0
C540 C 0.60535 0.49009 0.38071 0.0
C541 C 0.58249 0.46829 0.36861 0.0
C542 C 0.59778 0.47956 0.48603 0.0
C543 C 0.62368 0.50904 0.35247 0.0
H544 H 0.63452 0.59691 0.46526 0.0
H545 H 0.70557 0.52414 0.46874 0.0
H546 H 0.58463 0.55625 0.40236 0.0
H547 H 0.57376 0.54792 0.44912 0.0
H548 H 0.58682 0.58811 0.43662 0.0
H549 H 0.70067 0.47402 0.43716 0.0
H550 H 0.664 0.45813 0.452 0.0
H551 H 0.66957 0.46879 0.40449 0.0
H552 H 0.55743 0.4399 0.45181 0.0
H553 H 0.57835 0.46545 0.3392 0.0
H554 H 0.59254 0.505 0.4943 0.0
H555 H 0.62217 0.47478 0.49342 0.0
H556 H 0.58287 0.46289 0.50234 0.0
H557 H 0.61874 0.53542 0.35533 0.0
H558 H 0.61828 0.5015 0.32366 0.0
H559 H 0.64872 0.50569 0.35737 0.0
C560 C 0.68069 0.45196 0.95786 0.0
C561 C 0.66732 0.42102 0.95522 0.0
C562 C 0.66652 0.4791 0.94139 0.0
C563 C 0.63781 0.47517 0.92324 0.0
C564 C 0.62516 0.44357 0.91893 0.0
C565 C 0.6403 0.4168 0.93468 0.0
C566 C 0.68127 0.51219 0.94548 0.0
C567 C 0.59432 0.43831 0.90047 0.0
C568 C 0.5787 0.54305 0.92802 0.0
C569 C 0.57761 0.55348 0.89114 0.0
C570 C 0.59889 0.5182 0.93903 0.0
C571 C 0.61911 0.5041 0.91272 0.0
C572 C 0.61945 0.51596 0.87595 0.0
C573 C 0.59832 0.54017 0.86543 0.0
C574 C 0.59738 0.50584 0.97837 0.0
C575 C 0.64136 0.50232 0.84745 0.0
H576 H 0.70145 0.45512 0.97419 0.0
H577 H 0.62978 0.39285 0.93338 0.0
H578 H 0.68 0.52594 0.91909 0.0
H579 H 0.66866 0.52645 0.96671 0.0
H580 H 0.70578 0.51035 0.95412 0.0
H581 H 0.58883 0.41206 0.89695 0.0
H582 H 0.57592 0.44967 0.91747 0.0
H583 H 0.59383 0.45017 0.87291 0.0
H584 H 0.56259 0.55312 0.9479 0.0
H585 H 0.59773 0.54841 0.83693 0.0
H586 H 0.62049 0.50697 0.99141 0.0
H587 H 0.59004 0.47994 0.97843 0.0
H588 H 0.58099 0.52002 0.99565 0.0
H589 H 0.6651 0.50119 0.8588 0.0
H590 H 0.64163 0.5171 0.8217 0.0
H591 H 0.63444 0.4771 0.84024 0.0
C592 C 0.32055 0.54826 0.46058 0.0
C593 C 0.3327 0.57954 0.45557 0.0
C594 C 0.33478 0.52104 0.44437 0.0
C595 C 0.36239 0.52529 0.424 0.0
C596 C 0.37367 0.55714 0.41721 0.0
C597 C 0.35842 0.58394 0.43278 0.0
C598 C 0.32143 0.48763 0.45113 0.0
C599 C 0.40334 0.56278 0.39631 0.0
C600 C 0.42373 0.45965 0.4287 0.0
C601 C 0.42351 0.44762 0.39245 0.0
C602 C 0.40338 0.4844 0.43955 0.0
C603 C 0.38162 0.49666 0.41381 0.0
C604 C 0.38006 0.48317 0.37781 0.0
C605 C 0.40143 0.45919 0.36733 0.0
C606 C 0.40627 0.4986 0.47797 0.0
C607 C 0.35648 0.49475 0.35007 0.0
H608 H 0.30078 0.54497 0.47856 0.0
H609 H 0.36805 0.60817 0.42957 0.0
H610 H 0.32199 0.47285 0.42543 0.0
H611 H 0.33546 0.47476 0.4722 0.0
H612 H 0.29729 0.48893 0.46129 0.0
H613 H 0.40761 0.58903 0.39093 0.0
H614 H 0.42294 0.55298 0.41262 0.0
H615 H 0.403 0.54969 0.36949 0.0
H616 H 0.44095 0.45093 0.44806 0.0
H617 H 0.40109 0.44969 0.33933 0.0
H618 H 0.38389 0.49707 0.49268 0.0
H619 H 0.41252 0.52477 0.47608 0.0
H620 H 0.42402 0.48594 0.49482 0.0
H621 H 0.33325 0.49553 0.36288 0.0
H622 H 0.35559 0.47886 0.32521 0.0
H623 H 0.36219 0.51985 0.34105 0.0
C624 C 0.85665 0.92505 0.94556 0.0
C625 C 0.82782 0.9352 0.95882 0.0
C626 C 0.87601 0.94659 0.92641 0.0
C627 C 0.86615 0.97897 0.92004 0.0
C628 C 0.8359 0.98837 0.93018 0.0
C629 C 0.81709 0.96637 0.94958 0.0
C630 C 0.908 0.93547 0.91592 0.0
C631 C 0.82433 0.02251 0.92335 0.0
C632 C 0.92878 0.04341 0.92312 0.0
C633 C 0.93426 0.04928 0.88545 0.0
C634 C 0.90645 0.02087 0.93458 0.0
C635 C 0.88885 0.00392 0.90775 0.0
C636 C 0.89373 0.01015 0.86969 0.0
C637 C 0.91649 0.03264 0.85897 0.0
C638 C 0.90208 0.01478 0.97549 0.0
C639 C 0.87516 0.99283 0.84035 0.0
H640 H 0.86483 0.90078 0.95216 0.0
H641 H 0.7949 0.97445 0.95986 0.0
H642 H 0.9136 0.94287 0.88718 0.0
H643 H 0.92509 0.94724 0.93446 0.0
H644 H 0.91065 0.90864 0.9183 0.0
H645 H 0.79897 0.02433 0.92704 0.0
H646 H 0.83555 0.03946 0.94311 0.0
H647 H 0.83033 0.03071 0.895 0.0
H648 H 0.94235 0.05603 0.94383 0.0
H649 H 0.92036 0.03714 0.82978 0.0
H650 H 0.90692 0.98885 0.9819 0.0
H651 H 0.87782 0.01964 0.98344 0.0
H652 H 0.91738 0.03024 0.99279 0.0
H653 H 0.87975 0.96627 0.84158 0.0
H654 H 0.88065 0.00164 0.81204 0.0
H655 H 0.85017 0.99629 0.84548 0.0
C656 C 0.18401 0.03557 0.44938 0.0
C657 C 0.17324 0.06669 0.45879 0.0
C658 C 0.16523 0.01363 0.42983 0.0
C659 C 0.13498 0.02305 0.41971 0.0
C660 C 0.12509 0.05539 0.42625 0.0
C661 C 0.14442 0.07687 0.44555 0.0
C662 C 0.17684 0.97954 0.42284 0.0
C663 C 0.09309 0.06652 0.41578 0.0
C664 C 0.08472 0.96942 0.35847 0.0
C665 C 0.067 0.95267 0.3849 0.0
C666 C 0.10742 0.99194 0.36925 0.0
C667 C 0.1123 0.99811 0.40733 0.0
C668 C 0.09474 0.98106 0.43411 0.0
C669 C 0.07246 0.9585 0.42259 0.0
C670 C 0.12595 0.00938 0.33996 0.0
C671 C 0.0991 0.98707 0.47504 0.0
H672 H 0.20619 0.02747 0.45965 0.0
H673 H 0.13621 0.1011 0.45226 0.0
H674 H 0.16563 0.9625 0.44252 0.0
H675 H 0.17084 0.97143 0.39445 0.0
H676 H 0.2022 0.97773 0.42652 0.0
H677 H 0.09044 0.09334 0.41824 0.0
H678 H 0.0875 0.05919 0.38701 0.0
H679 H 0.076 0.0547 0.43427 0.0
H680 H 0.08085 0.96497 0.32927 0.0
H681 H 0.05892 0.9458 0.44327 0.0
H682 H 0.15095 0.00593 0.34505 0.0
H683 H 0.12133 0.03592 0.34131 0.0
H684 H 0.12045 1.00065 0.31162 0.0
H685 H 0.12337 0.98221 0.48298 0.0
H686 H 0.08383 0.97155 0.4923 0.0
H687 H 0.09424 0.01298 0.48153 0.0
C688 C 0.13035 0.9316 0.97919 0.0
C689 C 0.16152 0.92515 0.97219 0.0
C690 C 0.11532 0.95785 0.96239 0.0
C691 C 0.13192 0.97842 0.9381 0.0
C692 C 0.16349 0.97214 0.93091 0.0
C693 C 0.17791 0.94528 0.94784 0.0
C694 C 0.08151 0.96327 0.97034 0.0
C695 C 0.18195 0.99379 0.90547 0.0
C696 C 0.07987 0.02418 0.87212 0.0
C697 C 0.07478 0.05337 0.89147 0.0
C698 C 0.0999 1.0003 0.88591 0.0
C699 C 0.11553 0.0058 0.91969 0.0
C700 C 0.11209 0.03601 0.93814 0.0
C701 C 0.09161 0.05938 0.92394 0.0
C702 C 0.10268 0.9683 0.86554 0.0
C703 C 0.12874 0.04296 0.97396 0.0
H704 H 0.11751 0.91568 0.99752 0.0
H705 H 0.20202 0.94023 0.94246 0.0
H706 H 0.07798 0.98788 0.98228 0.0
H707 H 0.06811 0.96208 0.94421 0.0
H708 H 0.072 0.94497 0.9899 0.0
H709 H 0.20645 0.98612 0.90355 0.0
H710 H 0.17177 0.99348 0.87732 0.0
H711 H 0.18107 0.01933 0.91546 0.0
H712 H 0.06716 0.01926 0.8469 0.0
H713 H 0.08818 0.08198 0.93887 0.0
H714 H 0.09127 0.94882 0.88184 0.0
H715 H 0.12723 0.96135 0.86232 0.0
H716 H 0.09183 0.96921 0.8377 0.0
H717 H 0.11863 0.02796 0.99643 0.0
H718 H 0.12706 0.06901 0.98205 0.0
H719 H 0.15344 0.03626 0.97163 0.0
C720 C 0.87137 0.0705 0.47838 0.0
C721 C 0.84017 0.07696 0.47157 0.0
C722 C 0.88632 0.04426 0.46147 0.0
C723 C 0.86962 0.0237 0.43726 0.0
C724 C 0.83803 0.03002 0.43022 0.0
C725 C 0.82369 0.05688 0.44725 0.0
C726 C 0.92016 0.0388 0.46927 0.0
C727 C 0.81947 0.00839 0.40486 0.0
C728 C 0.92148 0.97769 0.37129 0.0
C729 C 0.92657 0.94855 0.39072 0.0
C730 C 0.90149 0.00163 0.38503 0.0
C731 C 0.8859 0.99624 0.41886 0.0
C732 C 0.88933 0.96607 0.4374 0.0
C733 C 0.90976 0.94264 0.42323 0.0
C734 C 0.89872 0.03358 0.36457 0.0
C735 C 0.87272 0.95923 0.47328 0.0
H736 H 0.88427 0.08639 0.49669 0.0
H737 H 0.79956 0.06193 0.44202 0.0
H738 H 0.92368 0.01422 0.48128 0.0
H739 H 0.93347 0.03989 0.44308 0.0
H740 H 0.92976 0.05713 0.48873 0.0
H741 H 0.79501 0.01618 0.40291 0.0
H742 H 0.82965 0.00855 0.3767 0.0
H743 H 0.82024 0.98288 0.41494 0.0
H744 H 0.93416 0.98253 0.34604 0.0
H745 H 0.91319 0.92007 0.43824 0.0
H746 H 0.91025 0.05307 0.38075 0.0
H747 H 0.87418 0.0406 0.36146 0.0
H748 H 0.90946 0.03256 0.33668 0.0
H749 H 0.88291 0.97427 0.49568 0.0
H750 H 0.87437 0.93321 0.48143 0.0
H751 H 0.84804 0.96599 0.471 0.0
C752 C 0.31259 0.37726 0.11997 0.0
C753 C 0.32522 0.37218 0.08468 0.0
C754 C 0.32998 0.37123 0.15201 0.0
C755 C 0.36077 0.36024 0.1486 0.0
C756 C 0.37281 0.35283 0.11319 0.0
C757 C 0.35481 0.35869 0.08168 0.0
C758 C 0.31615 0.37894 0.18933 0.0
C759 C 0.40554 0.34107 0.10831 0.0
C760 C 0.41932 0.39019 0.21846 0.0
C761 C 0.42502 0.36211 0.23951 0.0
C762 C 0.39807 0.38991 0.18931 0.0
C763 C 0.38173 0.36094 0.18114 0.0
C764 C 0.38655 0.33276 0.20294 0.0
C765 C 0.40833 0.33359 0.23175 0.0
C766 C 0.39376 0.42046 0.16656 0.0
C767 C 0.36916 0.30162 0.19537 0.0
H768 H 0.28981 0.38782 0.12259 0.0
H769 H 0.36445 0.35409 0.0545 0.0
H770 H 0.3216 0.35948 0.20959 0.0
H771 H 0.3262 0.40196 0.19997 0.0
H772 H 0.29072 0.38187 0.1878 0.0
H773 H 0.41021 0.33292 0.07954 0.0
H774 H 0.42173 0.36114 0.11513 0.0
H775 H 0.41051 0.32065 0.12748 0.0
H776 H 0.43208 0.41234 0.2241 0.0
H777 H 0.4124 0.31184 0.24801 0.0
H778 H 0.36917 0.42785 0.16667 0.0
H779 H 0.40032 0.41569 0.13737 0.0
H780 H 0.40781 0.44114 0.177 0.0
H781 H 0.34401 0.30646 0.1944 0.0
H782 H 0.3737 0.2827 0.21666 0.0
H783 H 0.37589 0.29182 0.16794 0.0
C784 C 0.68904 0.62479 0.61982 0.0
C785 C 0.67648 0.62993 0.58451 0.0
C786 C 0.67159 0.63078 0.65182 0.0
C787 C 0.64082 0.64182 0.64834 0.0
C788 C 0.62887 0.64936 0.61291 0.0
C789 C 0.64693 0.64351 0.58145 0.0
C790 C 0.68532 0.62296 0.68916 0.0
C791 C 0.59618 0.66118 0.60795 0.0
C792 C 0.582 0.61166 0.71775 0.0
C793 C 0.57624 0.63967 0.7389 0.0
C794 C 0.60337 0.61203 0.68871 0.0
C795 C 0.61976 0.64101 0.68078 0.0
C796 C 0.61488 0.66911 0.70269 0.0
C797 C 0.59299 0.66819 0.73137 0.0
C798 C 0.60773 0.58155 0.66584 0.0
C799 C 0.63232 0.70027 0.69538 0.0
H800 H 0.71179 0.61417 0.62247 0.0
H801 H 0.63736 0.64815 0.55424 0.0
H802 H 0.67979 0.64233 0.7095 0.0
H803 H 0.67526 0.59989 0.69965 0.0
H804 H 0.71075 0.62006 0.68772 0.0
H805 H 0.59161 0.66948 0.57921 0.0
H806 H 0.57994 0.6411 0.61456 0.0
H807 H 0.59116 0.68151 0.62723 0.0
H808 H 0.5692 0.5895 0.72321 0.0
H809 H 0.58888 0.68989 0.74772 0.0
H810 H 0.63232 0.57416 0.66603 0.0
H811 H 0.60127 0.58643 0.63664 0.0
H812 H 0.59364 0.56084 0.67611 0.0
H813 H 0.65747 0.69541 0.69447 0.0
H814 H 0.62774 0.7191 0.71676 0.0
H815 H 0.62566 0.71019 0.66797 0.0
C816 C 0.67117 0.35743 0.1087 0.0
C817 C 0.65605 0.36934 0.07721 0.0
C818 C 0.65597 0.35606 0.14302 0.0
C819 C 0.62487 0.36628 0.1455 0.0
C820 C 0.60964 0.37847 0.11376 0.0
C821 C 0.62546 0.37996 0.08008 0.0
C822 C 0.67301 0.3434 0.17646 0.0
C823 C 0.57635 0.38924 0.11511 0.0
C824 C 0.56985 0.33476 0.21848 0.0
C825 C 0.56597 0.36244 0.24074 0.0
C826 C 0.5903 0.33506 0.18842 0.0
C827 C 0.60756 0.36355 0.18081 0.0
C828 C 0.60526 0.39079 0.20463 0.0
C829 C 0.5843 0.39001 0.23417 0.0
C830 C 0.5919 0.30562 0.16343 0.0
C831 C 0.62369 0.4214 0.19779 0.0
H832 H 0.69484 0.34923 0.10643 0.0
H833 H 0.61355 0.38859 0.05559 0.0
H834 H 0.67194 0.36148 0.19925 0.0
H835 H 0.66183 0.32081 0.18662 0.0
H836 H 0.69758 0.33803 0.17032 0.0
H837 H 0.56801 0.39833 0.08794 0.0
H838 H 0.56152 0.36858 0.12379 0.0
H839 H 0.57346 0.40887 0.1359 0.0
H840 H 0.55582 0.31335 0.2234 0.0
H841 H 0.58177 0.41133 0.2516 0.0
H842 H 0.61621 0.29861 0.15834 0.0
H843 H 0.58149 0.31164 0.13622 0.0
H844 H 0.57947 0.28435 0.17519 0.0
H845 H 0.64821 0.41538 0.19239 0.0
H846 H 0.6225 0.43855 0.22153 0.0
H847 H 0.61468 0.43398 0.17286 0.0
C848 C 0.37544 0.62197 0.5795 0.0
C849 C 0.34493 0.63283 0.5766 0.0
C850 C 0.39133 0.6236 0.61313 0.0
C851 C 0.37625 0.63617 0.64478 0.0
C852 C 0.34524 0.6467 0.64225 0.0
C853 C 0.32998 0.64519 0.60797 0.0
C854 C 0.42452 0.6125 0.61453 0.0
C855 C 0.32836 0.65978 0.6756 0.0
C856 C 0.41659 0.61234 0.73356 0.0
C857 C 0.43519 0.63973 0.74 0.0
C858 C 0.39561 0.61169 0.70404 0.0
C859 C 0.39359 0.63885 0.68008 0.0
C860 C 0.41115 0.66718 0.68754 0.0
C861 C 0.43159 0.66736 0.71761 0.0
C862 C 0.37685 0.58127 0.69735 0.0
C863 C 0.40987 0.69652 0.66239 0.0
H864 H 0.38723 0.61299 0.55509 0.0
H865 H 0.30637 0.65358 0.60566 0.0
H866 H 0.43954 0.63304 0.62313 0.0
H867 H 0.42724 0.59291 0.6354 0.0
H868 H 0.43278 0.60324 0.5874 0.0
H869 H 0.30388 0.66552 0.66939 0.0
H870 H 0.32915 0.64176 0.69846 0.0
H871 H 0.33986 0.68222 0.68568 0.0
H872 H 0.41891 0.59106 0.7511 0.0
H873 H 0.44586 0.68863 0.72243 0.0
H874 H 0.38572 0.56849 0.67248 0.0
H875 H 0.3524 0.58756 0.69195 0.0
H876 H 0.37788 0.5642 0.72118 0.0
H877 H 0.42024 0.69026 0.63523 0.0
H878 H 0.42251 0.7177 0.67405 0.0
H879 H 0.38564 0.70378 0.65723 0.0
C880 C 0.82393 0.85608 0.10537 0.0
C881 C 0.83209 0.8826 0.08282 0.0
C882 C 0.84075 0.84875 0.13757 0.0
C883 C 0.86679 0.86783 0.14684 0.0
C884 C 0.87536 0.89432 0.12403 0.0
C885 C 0.8576 0.90174 0.09283 0.0
C886 C 0.83049 0.82086 0.16184 0.0
C887 C 0.90327 0.91504 0.13263 0.0
C888 C 0.90064 0.87714 0.24263 0.0
C889 C 0.92681 0.8573 0.24018 0.0
C890 C 0.87939 0.87868 0.21346 0.0
C891 C 0.88512 0.86084 0.18064 0.0
C892 C 0.91079 0.8396 0.17876 0.0
C893 C 0.93114 0.83773 0.20887 0.0
C894 C 0.85177 0.90082 0.217 0.0
C895 C 0.91815 0.82083 0.14393 0.0
H896 H 0.80447 0.84093 0.09785 0.0
H897 H 0.86364 0.92294 0.07653 0.0
H898 H 0.84908 0.80243 0.16393 0.0
H899 H 0.82589 0.82984 0.19028 0.0
H900 H 0.80935 0.8088 0.15118 0.0
H901 H 0.90795 0.93337 0.11072 0.0
H902 H 0.89979 0.92805 0.1592 0.0
H903 H 0.92396 0.89942 0.13581 0.0
H904 H 0.89718 0.89204 0.26706 0.0
H905 H 0.95154 0.82257 0.20693 0.0
H906 H 0.83064 0.88839 0.207 0.0
H907 H 0.85522 0.92278 0.19959 0.0
H908 H 0.84802 0.90883 0.24602 0.0
H909 H 0.89742 0.80794 0.13356 0.0
H910 H 0.93684 0.80276 0.14831 0.0
H911 H 0.92555 0.83809 0.12201 0.0
C912 C 0.14335 0.1 0.59291 0.0
C913 C 0.16892 0.11908 0.58296 0.0
C914 C 0.12562 0.1074 0.62413 0.0
C915 C 0.13426 0.13382 0.64702 0.0
C916 C 0.16034 0.15286 0.63779 0.0
C917 C 0.17713 0.14555 0.60557 0.0
C918 C 0.09767 0.08673 0.6327 0.0
C919 C 0.17066 0.18068 0.66213 0.0
C920 C 0.07009 0.16398 0.7093 0.0
C921 C 0.07444 0.14436 0.74057 0.0
C922 C 0.09036 0.16208 0.67912 0.0
C923 C 0.11599 0.14077 0.68088 0.0
C924 C 0.12174 0.12287 0.71365 0.0
C925 C 0.10057 0.12445 0.74289 0.0
C926 C 0.08298 0.18092 0.64435 0.0
C927 C 0.14931 0.10064 0.71705 0.0
H928 H 0.13726 0.07885 0.57655 0.0
H929 H 0.19663 0.16066 0.59808 0.0
H930 H 0.10114 0.07365 0.65923 0.0
H931 H 0.07702 0.10239 0.63595 0.0
H932 H 0.09294 0.06846 0.61073 0.0
H933 H 0.19179 0.19274 0.65146 0.0
H934 H 0.15209 0.19913 0.66433 0.0
H935 H 0.17531 0.17162 0.69052 0.0
H936 H 0.04973 0.17919 0.70744 0.0
H937 H 0.10405 0.10951 0.76729 0.0
H938 H 0.07551 0.16372 0.62241 0.0
H939 H 0.10372 0.19379 0.63396 0.0
H940 H 0.06433 0.19903 0.64882 0.0
H941 H 0.14579 0.07875 0.69956 0.0
H942 H 0.15308 0.09254 0.74603 0.0
H943 H 0.17046 0.11305 0.70706 0.0
C944 C 0.1747 0.87774 0.1123 0.0
C945 C 0.16775 0.85638 0.08327 0.0
C946 C 0.15835 0.87631 0.14578 0.0
C947 C 0.13396 0.85362 0.14965 0.0
C948 C 0.12822 0.83068 0.1212 0.0
C949 C 0.14544 0.83216 0.08842 0.0
C950 C 0.16576 0.90054 0.17591 0.0
C951 C 0.1021 0.80648 0.12392 0.0
C952 C 0.09249 0.83924 0.24085 0.0
C953 C 0.06719 0.86028 0.23735 0.0
C954 C 0.11514 0.83761 0.21315 0.0
C955 C 0.11182 0.85673 0.18081 0.0
C956 C 0.08638 0.87813 0.17731 0.0
C957 C 0.06461 0.87997 0.20587 0.0
C958 C 0.14243 0.81527 0.21831 0.0
C959 C 0.08165 0.89847 0.14292 0.0
H960 H 0.19197 0.89649 0.10817 0.0
H961 H 0.1398 0.81595 0.0657 0.0
H962 H 0.14779 0.91974 0.17652 0.0
H963 H 0.16584 0.8885 0.2034 0.0
H964 H 0.18846 0.91242 0.17141 0.0
H965 H 0.10276 0.78818 0.10128 0.0
H966 H 0.10276 0.79352 0.15082 0.0
H967 H 0.07979 0.81963 0.12243 0.0
H968 H 0.09467 0.82423 0.2654 0.0
H969 H 0.04497 0.89609 0.203 0.0
H970 H 0.16421 0.82892 0.21396 0.0
H971 H 0.14172 0.79551 0.1974 0.0
H972 H 0.1429 0.80409 0.2463 0.0
H973 H 0.10174 0.91472 0.13852 0.0
H974 H 0.06053 0.9137 0.1445 0.0
H975 H 0.07985 0.88239 0.11832 0.0
C976 C 0.82716 0.12365 0.61205 0.0
C977 C 0.83413 0.14515 0.58316 0.0
C978 C 0.84342 0.12499 0.64559 0.0
C979 C 0.86774 0.14772 0.64968 0.0
C980 C 0.87354 0.17077 0.62135 0.0
C981 C 0.8564 0.16938 0.58851 0.0
C982 C 0.83597 0.10065 0.67558 0.0
C983 C 0.8996 0.19502 0.6243 0.0
C984 C 0.90884 0.16211 0.74113 0.0
C985 C 0.93422 0.14118 0.7377 0.0
C986 C 0.88626 0.16368 0.71332 0.0
C987 C 0.88976 0.14461 0.68096 0.0
C988 C 0.91528 0.1233 0.67755 0.0
C989 C 0.93696 0.12152 0.70621 0.0
C990 C 0.85889 0.1859 0.71838 0.0
C991 C 0.9202 0.10303 0.64314 0.0
H992 H 0.80991 0.1049 0.60776 0.0
H993 H 0.86205 0.18569 0.5659 0.0
H994 H 0.854 0.08151 0.67623 0.0
H995 H 0.83574 0.11261 0.70312 0.0
H996 H 0.81332 0.0887 0.67091 0.0
H997 H 0.89902 0.21334 0.60169 0.0
H998 H 0.89878 0.20794 0.65122 0.0
H999 H 0.92194 0.18191 0.62297 0.0
H1000 H 0.90654 0.17709 0.76569 0.0
H1001 H 0.95668 0.10549 0.70341 0.0
H1002 H 0.83716 0.17219 0.71385 0.0
H1003 H 0.85962 0.20572 0.69755 0.0
H1004 H 0.85826 0.19701 0.74641 0.0
H1005 H 0.90016 0.08675 0.63857 0.0
H1006 H 0.94135 0.08786 0.64481 0.0
H1007 H 0.92208 0.11916 0.6186 0.0
loop_
_geom_bond_atom_site_label_1
_geom_bond_atom_site_label_2
_geom_bond_distance
_geom_bond_site_symmetry_2
_ccdc_geom_bond_type
H0 C1 0.949 . S
C1 H0 0.949 . S
C1 C2 1.395 . S
C1 C3 1.391 1_556 S
C2 C1 1.395 . S
C2 C5 1.390 1_556 S
C3 C1 1.391 1_554 S
C3 C7 1.387 . S
C3 C8 1.491 . S
H4 C5 0.950 . S
C5 C2 1.390 1_554 S
C5 H4 0.950 . S
C5 C6 1.378 . S
C6 C5 1.378 . S
C6 C7 1.409 . S
C7 C3 1.387 . S
C7 C6 1.409 . S
C7 H9 0.951 . S
C8 C3 1.491 . S
C8 C10 1.382 1_554 S
C8 C12 1.404 . S
H9 C7 0.951 . S
C10 C8 1.382 1_556 S
C10 C11 1.390 . S
C10 H15 0.949 . S
C11 C10 1.390 . S
C11 C16 1.399 1_556 S
C12 C8 1.404 . S
C12 H13 0.950 . S
C12 C14 1.375 . S
H13 C12 0.950 . S
C14 C12 1.375 . S
C14 C16 1.382 . S
C14 H18 0.950 . S
H15 C10 0.949 . S
C16 C11 1.399 1_554 S
C16 C14 1.382 . S
C16 H17 0.952 . S
H17 C16 0.952 . S
H18 C14 0.950 . S
H19 C20 0.949 . S
C20 H19 0.949 . S
C20 C21 1.395 . S
C20 C22 1.391 . S
C21 C20 1.395 . S
C21 C24 1.390 . S
C22 C20 1.391 . S
C22 C26 1.387 . S
C22 C27 1.491 . S
H23 C24 0.950 . S
C24 C21 1.390 . S
C24 H23 0.950 . S
C24 C25 1.378 . S
C25 C24 1.378 . S
C25 C26 1.409 . S
C26 C22 1.387 . S
C26 C25 1.409 . S
C26 H28 0.951 . S
C27 C22 1.491 . S
C27 C29 1.382 . S
C27 C31 1.404 . S
H28 C26 0.951 . S
C29 C27 1.382 . S
C29 C30 1.390 . S
C29 H34 0.949 . S
C30 C29 1.390 . S
C30 C35 1.399 . S
C31 C27 1.404 . S
C31 H32 0.950 . S
C31 C33 1.375 . S
H32 C31 0.950 . S
C33 C31 1.375 . S
C33 C35 1.382 . S
C33 H37 0.950 . S
H34 C29 0.949 . S
C35 C30 1.399 . S
C35 C33 1.382 . S
C35 H36 0.952 . S
H36 C35 0.952 . S
H37 C33 0.950 . S
H38 C39 0.949 . S
C39 H38 0.949 . S
C39 C40 1.395 . S
C39 C41 1.391 1_556 S
C40 C39 1.395 . S
C40 C43 1.390 1_556 S
C41 C39 1.391 1_554 S
C41 C45 1.387 . S
C41 C46 1.491 . S
H42 C43 0.950 . S
C43 C40 1.390 1_554 S
C43 H42 0.950 . S
C43 C44 1.378 . S
C44 C43 1.378 . S
C44 C45 1.409 . S
C45 C41 1.387 . S
C45 C44 1.409 . S
C45 H47 0.951 . S
C46 C41 1.491 . S
C46 C48 1.382 1_554 S
C46 C50 1.404 . S
H47 C45 0.951 . S
C48 C46 1.382 1_556 S
C48 C49 1.390 . S
C48 H53 0.949 . S
C49 C48 1.390 . S
C49 C54 1.399 . S
C50 C46 1.404 . S
C50 H51 0.950 . S
C50 C52 1.375 . S
H51 C50 0.950 . S
C52 C50 1.375 . S
C52 C54 1.382 1_554 S
C52 H56 0.950 . S
H53 C48 0.949 . S
C54 C49 1.399 . S
C54 C52 1.382 1_556 S
C54 H55 0.952 . S
H55 C54 0.952 . S
H56 C52 0.950 . S
H57 C58 0.949 . S
C58 H57 0.949 . S
C58 C59 1.395 . S
C58 C60 1.391 . S
C59 C58 1.395 . S
C59 C62 1.390 . S
C60 C58 1.391 . S
C60 C64 1.387 . S
C60 C65 1.491 . S
H61 C62 0.950 . S
C62 C59 1.390 . S
C62 H61 0.950 . S
C62 C63 1.378 . S
C63 C62 1.378 . S
C63 C64 1.409 . S
C64 C60 1.387 . S
C64 C63 1.409 . S
C64 H66 0.951 . S
C65 C60 1.491 . S
C65 C67 1.382 . S
C65 C69 1.404 . S
H66 C64 0.951 . S
C67 C65 1.382 . S
C67 C68 1.390 . S
C67 H72 0.949 . S
C68 C67 1.390 . S
C68 C73 1.399 . S
C69 C65 1.404 . S
C69 H70 0.950 . S
C69 C71 1.375 . S
H70 C69 0.950 . S
C71 C69 1.375 . S
C71 C73 1.382 . S
C71 H75 0.950 . S
H72 C67 0.949 . S
C73 C68 1.399 . S
C73 C71 1.382 . S
C73 H74 0.952 . S
H74 C73 0.952 . S
H75 C71 0.950 . S
H76 C77 0.949 . S
C77 H76 0.949 . S
C77 C78 1.395 . S
C77 C79 1.391 1_556 S
C78 C77 1.395 . S
C78 C81 1.390 1_556 S
C79 C77 1.391 1_554 S
C79 C83 1.387 . S
C79 C84 1.491 . S
H80 C81 0.950 . S
C81 C78 1.390 1_554 S
C81 H80 0.950 . S
C81 C82 1.378 . S
C82 C81 1.378 . S
C82 C83 1.409 . S
C83 C79 1.387 . S
C83 C82 1.409 . S
C83 H85 0.951 . S
C84 C79 1.491 . S
C84 C86 1.382 1_554 S
C84 C88 1.404 . S
H85 C83 0.951 . S
C86 C84 1.382 1_556 S
C86 C87 1.390 . S
C86 H91 0.949 . S
C87 C86 1.390 . S
C87 C92 1.399 1_556 S
C88 C84 1.404 . S
C88 H89 0.950 . S
C88 C90 1.375 . S
H89 C88 0.950 . S
C90 C88 1.375 . S
C90 C92 1.382 . S
C90 H94 0.950 . S
H91 C86 0.949 . S
C92 C87 1.399 1_554 S
C92 C90 1.382 . S
C92 H93 0.952 . S
H93 C92 0.952 . S
H94 C90 0.950 . S
H95 C96 0.949 . S
C96 H95 0.949 . S
C96 C97 1.395 . S
C96 C98 1.391 . S
C97 C96 1.395 . S
C97 C100 1.390 . S
C98 C96 1.391 . S
C98 C102 1.387 . S
C98 C103 1.491 . S
H99 C100 0.950 . S
C100 C97 1.390 . S
C100 H99 0.950 . S
C100 C101 1.378 . S
C101 C100 1.378 . S
C101 C102 1.409 . S
C102 C98 1.387 . S
C102 C101 1.409 . S
C102 H104 0.951 . S
C103 C98 1.491 . S
C103 C105 1.382 . S
C103 C107 1.404 . S
H104 C102 0.951 . S
C105 C103 1.382 . S
C105 C106 1.390 . S
C105 H110 0.949 . S
C106 C105 1.390 . S
C106 C111 1.399 . S
C107 C103 1.404 . S
C107 H108 0.950 . S
C107 C109 1.375 . S
H108 C107 0.950 . S
C109 C107 1.375 . S
C109 C111 1.382 . S
C109 H113 0.950 . S
H110 C105 0.949 . S
C111 C106 1.399 . S
C111 C109 1.382 . S
C111 H112 0.952 . S
H112 C111 0.952 . S
H113 C109 0.950 . S
H114 C115 0.949 . S
C115 H114 0.949 . S
C115 C116 1.395 . S
C115 C117 1.391 1_556 S
C116 C115 1.395 . S
C116 C119 1.390 1_556 S
C117 C115 1.391 1_554 S
C117 C121 1.387 . S
C117 C122 1.491 . S
H118 C119 0.950 . S
C119 C116 1.390 1_554 S
C119 H118 0.950 . S
C119 C120 1.378 . S
C120 C119 1.378 . S
C120 C121 1.409 . S
C121 C117 1.387 . S
C121 C120 1.409 . S
C121 H123 0.951 . S
C122 C117 1.491 . S
C122 C124 1.382 1_554 S
C122 C126 1.404 . S
H123 C121 0.951 . S
C124 C122 1.382 1_556 S
C124 C125 1.390 . S
C124 H129 0.949 . S
C125 C124 1.390 . S
C125 C130 1.399 . S
C126 C122 1.404 . S
C126 H127 0.950 . S
C126 C128 1.375 . S
H127 C126 0.950 . S
C128 C126 1.375 . S
C128 C130 1.382 1_554 S
C128 H132 0.950 . S
H129 C124 0.949 . S
C130 C125 1.399 . S
C130 C128 1.382 1_556 S
C130 H131 0.952 . S
H131 C130 0.952 . S
H132 C128 0.950 . S
H133 C134 0.949 . S
C134 H133 0.949 . S
C134 C135 1.395 . S
C134 C136 1.391 . S
C135 C134 1.395 . S
C135 C138 1.390 . S
C136 C134 1.391 . S
C136 C140 1.387 . S
C136 C141 1.491 . S
H137 C138 0.950 . S
C138 C135 1.390 . S
C138 H137 0.950 . S
C138 C139 1.378 . S
C139 C138 1.378 . S
C139 C140 1.409 . S
C140 C136 1.387 . S
C140 C139 1.409 . S
C140 H142 0.951 . S
C141 C136 1.491 . S
C141 C143 1.382 . S
C141 C145 1.404 . S
H142 C140 0.951 . S
C143 C141 1.382 . S
C143 C144 1.390 . S
C143 H148 0.949 . S
C144 C143 1.390 . S
C144 C149 1.399 . S
C145 C141 1.404 . S
C145 H146 0.950 . S
C145 C147 1.375 . S
H146 C145 0.950 . S
C147 C145 1.375 . S
C147 C149 1.382 . S
C147 H151 0.950 . S
H148 C143 0.949 . S
C149 C144 1.399 . S
C149 C147 1.382 . S
C149 H150 0.952 . S
H150 C149 0.952 . S
H151 C147 0.950 . S
Sc152 O155 2.025 . S
Sc152 O162 2.105 1_455 S
Sc152 O165 2.105 . S
Sc152 O168 2.105 . S
Sc152 O171 2.105 1_455 S
Sc153 O155 2.025 . S
Sc153 O163 2.105 1_455 S
Sc153 O167 2.105 . S
Sc153 O169 2.105 . S
Sc153 O173 2.105 1_455 S
Sc154 O155 2.025 . S
Sc154 O164 2.105 1_455 S
Sc154 O166 2.105 . S
Sc154 O170 2.105 . S
Sc154 O172 2.105 1_455 S
O155 Sc152 2.025 . S
O155 Sc153 2.025 . S
O155 Sc154 2.025 . S
C156 O162 1.268 . S
C156 O172 1.268 . S
C157 O163 1.268 . S
C157 O171 1.268 . S
C158 O164 1.268 . S
C158 O173 1.268 . S
C159 O165 1.268 . S
C159 O169 1.268 . S
C160 O166 1.268 . S
C160 O168 1.268 . S
C161 O167 1.268 . S
C161 O170 1.268 . S
O162 Sc152 2.105 1_655 S
O162 C156 1.268 . S
O163 Sc153 2.105 1_655 S
O163 C157 1.268 . S
O164 Sc154 2.105 1_655 S
O164 C158 1.268 . S
O165 Sc152 2.105 . S
O165 C159 1.268 . S
O166 Sc154 2.105 . S
O166 C160 1.268 . S
O167 Sc153 2.105 . S
O167 C161 1.268 . S
O168 Sc152 2.105 . S
O168 C160 1.268 . S
O169 Sc153 2.105 . S
O169 C159 1.268 . S
O170 Sc154 2.105 . S
O170 C161 1.268 . S
O171 Sc152 2.105 1_655 S
O171 C157 1.268 . S
O172 Sc154 2.105 1_655 S
O172 C156 1.268 . S
O173 Sc153 2.105 1_655 S
O173 C158 1.268 . S
Sc174 O177 2.025 . S
Sc174 O184 2.105 . S
Sc174 O187 2.105 1_455 S
Sc174 O190 2.105 1_455 S
Sc174 O193 2.105 . S
Sc175 O177 2.025 . S
Sc175 O185 2.105 . S
Sc175 O189 2.105 1_455 S
Sc175 O191 2.105 1_455 S
Sc175 O195 2.105 . S
Sc176 O177 2.025 . S
Sc176 O186 2.105 . S
Sc176 O188 2.105 1_455 S
Sc176 O192 2.105 1_455 S
Sc176 O194 2.105 . S
O177 Sc174 2.025 . S
O177 Sc175 2.025 . S
O177 Sc176 2.025 . S
C178 O184 1.268 . S
C178 O194 1.268 . S
C179 O185 1.268 . S
C179 O193 1.268 . S
C180 O186 1.268 . S
C180 O195 1.268 . S
C181 O187 1.268 . S
C181 O191 1.268 . S
C182 O188 1.268 . S
C182 O190 1.268 . S
C183 O189 1.268 . S
C183 O192 1.268 . S
O184 Sc174 2.105 . S
O184 C178 1.268 . S
O185 Sc175 2.105 . S
O185 C179 1.268 . S
O186 Sc176 2.105 . S
O186 C180 1.268 . S
O187 Sc174 2.105 1_655 S
O187 C181 1.268 . S
O188 Sc176 2.105 1_655 S
O188 C182 1.268 . S
O189 Sc175 2.105 1_655 S
O189 C183 1.268 . S
O190 Sc174 2.105 1_655 S
O190 C182 1.268 . S
O191 Sc175 2.105 1_655 S
O191 C181 1.268 . S
O192 Sc176 2.105 1_655 S
O192 C183 1.268 . S
O193 Sc174 2.105 . S
O193 C179 1.268 . S
O194 Sc176 2.105 . S
O194 C178 1.268 . S
O195 Sc175 2.105 . S
O195 C180 1.268 . S
Sc196 O199 2.025 . S
Sc196 O206 2.105 . S
Sc196 O209 2.105 . S
Sc196 O212 2.105 . S
Sc196 O215 2.105 . S
Sc197 O199 2.025 . S
Sc197 O207 2.105 . S
Sc197 O211 2.105 . S
Sc197 O213 2.105 . S
Sc197 O217 2.105 . S
Sc198 O199 2.025 . S
Sc198 O208 2.105 . S
Sc198 O210 2.105 . S
Sc198 O214 2.105 . S
Sc198 O216 2.105 . S
O199 Sc196 2.025 . S
O199 Sc197 2.025 . S
O199 Sc198 2.025 . S
C200 O206 1.268 . S
C200 O216 1.268 . S
C201 O207 1.268 . S
C201 O215 1.268 . S
C202 O208 1.268 . S
C202 O217 1.268 . S
C203 O209 1.268 . S
C203 O213 1.268 . S
C204 O210 1.268 . S
C204 O212 1.268 . S
C205 O211 1.268 . S
C205 O214 1.268 . S
O206 Sc196 2.105 . S
O206 C200 1.268 . S
O207 Sc197 2.105 . S
O207 C201 1.268 . S
O208 Sc198 2.105 . S
O208 C202 1.268 . S
O209 Sc196 2.105 . S
O209 C203 1.268 . S
O210 Sc198 2.105 . S
O210 C204 1.268 . S
O211 Sc197 2.105 . S
O211 C205 1.268 . S
O212 Sc196 2.105 . S
O212 C204 1.268 . S
O213 Sc197 2.105 . S
O213 C203 1.268 . S
O214 Sc198 2.105 . S
O214 C205 1.268 . S
O215 Sc196 2.105 . S
O215 C201 1.268 . S
O216 Sc198 2.105 . S
O216 C200 1.268 . S
O217 Sc197 2.105 . S
O217 C202 1.268 . S
Sc218 O221 2.025 . S
Sc218 O228 2.105 . S
Sc218 O231 2.105 . S
Sc218 O234 2.105 . S
Sc218 O237 2.105 . S
Sc219 O221 2.025 . S
Sc219 O229 2.105 . S
Sc219 O233 2.105 . S
Sc219 O235 2.105 . S
Sc219 O239 2.105 . S
Sc220 O221 2.025 . S
Sc220 O230 2.105 . S
Sc220 O232 2.105 . S
Sc220 O236 2.105 . S
Sc220 O238 2.105 . S
O221 Sc218 2.025 . S
O221 Sc219 2.025 . S
O221 Sc220 2.025 . S
C222 O228 1.268 . S
C222 O238 1.268 . S
C223 O229 1.268 . S
C223 O237 1.268 . S
C224 O230 1.268 . S
C224 O239 1.268 . S
C225 O231 1.268 . S
C225 O235 1.268 . S
C226 O232 1.268 . S
C226 O234 1.268 . S
C227 O233 1.268 . S
C227 O236 1.268 . S
O228 Sc218 2.105 . S
O228 C222 1.268 . S
O229 Sc219 2.105 . S
O229 C223 1.268 . S
O230 Sc220 2.105 . S
O230 C224 1.268 . S
O231 Sc218 2.105 . S
O231 C225 1.268 . S
O232 Sc220 2.105 . S
O232 C226 1.268 . S
O233 Sc219 2.105 . S
O233 C227 1.268 . S
O234 Sc218 2.105 . S
O234 C226 1.268 . S
O235 Sc219 2.105 . S
O235 C225 1.268 . S
O236 Sc220 2.105 . S
O236 C227 1.268 . S
O237 Sc218 2.105 . S
O237 C223 1.268 . S
O238 Sc220 2.105 . S
O238 C222 1.268 . S
O239 Sc219 2.105 . S
O239 C224 1.268 . S
C240 C241 1.391 . S
C240 C242 1.394 . S
C240 H256 0.931 . S
C241 C240 1.391 . S
C241 C245 1.376 . S
C242 C240 1.394 . S
C242 C243 1.369 . S
C242 C246 1.531 . S
C243 C242 1.369 . S
C243 C244 1.410 . S
C243 C251 1.503 . S
C244 C243 1.410 . S
C244 C245 1.392 . S
C244 C247 1.511 . S
C245 C241 1.376 . S
C245 C244 1.392 . S
C245 H257 0.929 . S
C246 C242 1.531 . S
C246 H258 0.960 . S
C246 H259 0.962 . S
C246 H260 0.960 . S
C247 C244 1.511 . S
C247 H261 0.961 . S
C247 H262 0.961 . S
C247 H263 0.961 1_556 S
C248 C249 1.370 . S
C248 C250 1.363 . S
C248 H264 0.931 . S
C249 C248 1.370 . S
C249 C253 1.408 . S
C250 C248 1.363 . S
C250 C251 1.370 . S
C250 C254 1.524 . S
C251 C243 1.503 . S
C251 C250 1.370 . S
C251 C252 1.403 . S
C252 C251 1.403 . S
C252 C253 1.404 . S
C252 C255 1.539 . S
C253 C249 1.408 . S
C253 C252 1.404 . S
C253 H265 0.930 . S
C254 C250 1.524 . S
C254 H266 0.956 . S
C254 H267 0.961 . S
C254 H268 0.961 . S
C255 C252 1.539 . S
C255 H269 0.958 . S
C255 H270 0.961 . S
C255 H271 0.960 . S
H256 C240 0.931 . S
H257 C245 0.929 . S
H258 C246 0.960 . S
H259 C246 0.962 . S
H260 C246 0.960 . S
H261 C247 0.961 . S
H262 C247 0.961 . S
H263 C247 0.961 1_554 S
H264 C248 0.931 . S
H265 C253 0.930 . S
H266 C254 0.956 . S
H267 C254 0.961 . S
H268 C254 0.961 . S
H269 C255 0.958 . S
H270 C255 0.961 . S
H271 C255 0.960 . S
C272 C273 1.391 . S
C272 C274 1.394 . S
C272 H288 0.931 . S
C273 C272 1.391 . S
C273 C277 1.376 . S
C274 C272 1.394 . S
C274 C275 1.369 . S
C274 C278 1.531 . S
C275 C274 1.369 . S
C275 C276 1.410 . S
C275 C283 1.503 . S
C276 C275 1.410 . S
C276 C277 1.392 . S
C276 C279 1.511 . S
C277 C273 1.376 . S
C277 C276 1.392 . S
C277 H289 0.929 . S
C278 C274 1.531 . S
C278 H290 0.960 . S
C278 H291 0.962 . S
C278 H292 0.960 . S
C279 C276 1.511 . S
C279 H293 0.961 . S
C279 H294 0.961 . S
C279 H295 0.961 . S
C280 C281 1.370 . S
C280 C282 1.363 . S
C280 H296 0.931 . S
C281 C280 1.370 . S
C281 C285 1.408 . S
C282 C280 1.363 . S
C282 C283 1.370 . S
C282 C286 1.524 . S
C283 C275 1.503 . S
C283 C282 1.370 . S
C283 C284 1.403 . S
C284 C283 1.403 . S
C284 C285 1.404 . S
C284 C287 1.539 . S
C285 C281 1.408 . S
C285 C284 1.404 . S
C285 H297 0.930 . S
C286 C282 1.524 . S
C286 H298 0.956 . S
C286 H299 0.961 . S
C286 H300 0.961 . S
C287 C284 1.539 . S
C287 H301 0.958 . S
C287 H302 0.961 . S
C287 H303 0.960 . S
H288 C272 0.931 . S
H289 C277 0.929 . S
H290 C278 0.960 . S
H291 C278 0.962 . S
H292 C278 0.960 . S
H293 C279 0.961 . S
H294 C279 0.961 . S
H295 C279 0.961 . S
H296 C280 0.931 . S
H297 C285 0.930 . S
H298 C286 0.956 . S
H299 C286 0.961 . S
H300 C286 0.961 . S
H301 C287 0.958 . S
H302 C287 0.961 . S
H303 C287 0.960 . S
C304 C305 1.391 . S
C304 C306 1.394 . S
C304 H320 0.931 . S
C305 C304 1.391 . S
C305 C309 1.376 . S
C306 C304 1.394 . S
C306 C307 1.369 . S
C306 C310 1.531 . S
C307 C306 1.369 . S
C307 C308 1.410 . S
C307 C315 1.503 . S
C308 C307 1.410 . S
C308 C309 1.392 . S
C308 C311 1.511 . S
C309 C305 1.376 . S
C309 C308 1.392 . S
C309 H321 0.929 . S
C310 C306 1.531 . S
C310 H322 0.960 . S
C310 H323 0.962 . S
C310 H324 0.960 . S
C311 C308 1.511 . S
C311 H325 0.961 . S
C311 H326 0.961 . S
C311 H327 0.961 . S
C312 C313 1.370 . S
C312 C314 1.363 . S
C312 H328 0.931 . S
C313 C312 1.370 . S
C313 C317 1.408 . S
C314 C312 1.363 . S
C314 C315 1.370 . S
C314 C318 1.524 . S
C315 C307 1.503 . S
C315 C314 1.370 . S
C315 C316 1.403 . S
C316 C315 1.403 . S
C316 C317 1.404 . S
C316 C319 1.539 . S
C317 C313 1.408 . S
C317 C316 1.404 . S
C317 H329 0.930 . S
C318 C314 1.524 . S
C318 H330 0.956 . S
C318 H331 0.961 . S
C318 H332 0.961 . S
C319 C316 1.539 . S
C319 H333 0.958 . S
C319 H334 0.961 . S
C319 H335 0.960 . S
H320 C304 0.931 . S
H321 C309 0.929 . S
H322 C310 0.960 . S
H323 C310 0.962 . S
H324 C310 0.960 . S
H325 C311 0.961 . S
H326 C311 0.961 . S
H327 C311 0.961 . S
H328 C312 0.931 . S
H329 C317 0.930 . S
H330 C318 0.956 . S
H331 C318 0.961 . S
H332 C318 0.961 . S
H333 C319 0.958 . S
H334 C319 0.961 . S
H335 C319 0.960 . S
C336 C337 1.391 . S
C336 C338 1.394 . S
C336 H352 0.931 . S
C337 C336 1.391 . S
C337 C341 1.376 . S
C338 C336 1.394 . S
C338 C339 1.369 . S
C338 C342 1.531 . S
C339 C338 1.369 . S
C339 C340 1.410 . S
C339 C347 1.503 . S
C340 C339 1.410 . S
C340 C341 1.392 . S
C340 C343 1.511 . S
C341 C337 1.376 . S
C341 C340 1.392 . S
C341 H353 0.929 . S
C342 C338 1.531 . S
C342 H354 0.960 . S
C342 H355 0.962 . S
C342 H356 0.960 . S
C343 C340 1.511 . S
C343 H357 0.961 . S
C343 H358 0.961 . S
C343 H359 0.961 . S
C344 C345 1.370 . S
C344 C346 1.363 . S
C344 H360 0.931 . S
C345 C344 1.370 . S
C345 C349 1.408 . S
C346 C344 1.363 . S
C346 C347 1.370 . S
C346 C350 1.524 . S
C347 C339 1.503 . S
C347 C346 1.370 . S
C347 C348 1.403 . S
C348 C347 1.403 . S
C348 C349 1.404 . S
C348 C351 1.539 . S
C349 C345 1.408 . S
C349 C348 1.404 . S
C349 H361 0.930 . S
C350 C346 1.524 . S
C350 H362 0.956 . S
C350 H363 0.961 . S
C350 H364 0.961 . S
C351 C348 1.539 . S
C351 H365 0.958 . S
C351 H366 0.961 . S
C351 H367 0.960 . S
H352 C336 0.931 . S
H353 C341 0.929 . S
H354 C342 0.960 . S
H355 C342 0.962 . S
H356 C342 0.960 . S
H357 C343 0.961 . S
H358 C343 0.961 . S
H359 C343 0.961 . S
H360 C344 0.931 . S
H361 C349 0.930 . S
H362 C350 0.956 . S
H363 C350 0.961 . S
H364 C350 0.961 . S
H365 C351 0.958 . S
H366 C351 0.961 . S
H367 C351 0.960 . S
C368 C369 1.391 . S
C368 C370 1.394 . S
C368 H384 0.931 . S
C369 C368 1.391 . S
C369 C373 1.376 . S
C370 C368 1.394 . S
C370 C371 1.369 . S
C370 C374 1.531 . S
C371 C370 1.369 . S
C371 C372 1.410 . S
C371 C379 1.503 . S
C372 C371 1.410 . S
C372 C373 1.392 . S
C372 C375 1.511 . S
C373 C369 1.376 . S
C373 C372 1.392 . S
C373 H385 0.929 . S
C374 C370 1.531 . S
C374 H386 0.960 . S
C374 H387 0.962 . S
C374 H388 0.960 . S
C375 C372 1.511 . S
C375 H389 0.961 . S
C375 H390 0.961 . S
C375 H391 0.961 . S
C376 C377 1.370 . S
C376 C378 1.363 . S
C376 H392 0.931 . S
C377 C376 1.370 . S
C377 C381 1.408 . S
C378 C376 1.363 . S
C378 C379 1.370 . S
C378 C382 1.524 . S
C379 C371 1.503 . S
C379 C378 1.370 . S
C379 C380 1.403 . S
C380 C379 1.403 . S
C380 C381 1.404 . S
C380 C383 1.539 . S
C381 C377 1.408 . S
C381 C380 1.404 . S
C381 H393 0.930 . S
C382 C378 1.524 . S
C382 H394 0.956 . S
C382 H395 0.961 . S
C382 H396 0.961 . S
C383 C380 1.539 . S
C383 H397 0.958 . S
C383 H398 0.961 . S
C383 H399 0.960 . S
H384 C368 0.931 . S
H385 C373 0.929 . S
H386 C374 0.960 . S
H387 C374 0.962 . S
H388 C374 0.960 . S
H389 C375 0.961 . S
H390 C375 0.961 . S
H391 C375 0.961 . S
H392 C376 0.931 . S
H393 C381 0.930 . S
H394 C382 0.956 . S
H395 C382 0.961 . S
H396 C382 0.961 . S
H397 C383 0.958 . S
H398 C383 0.961 . S
H399 C383 0.960 . S
C400 C401 1.391 . S
C400 C402 1.394 . S
C400 H416 0.931 . S
C401 C400 1.391 . S
C401 C405 1.376 . S
C402 C400 1.394 . S
C402 C403 1.369 . S
C402 C406 1.531 . S
C403 C402 1.369 . S
C403 C404 1.410 . S
C403 C411 1.503 . S
C404 C403 1.410 . S
C404 C405 1.392 . S
C404 C407 1.511 . S
C405 C401 1.376 . S
C405 C404 1.392 . S
C405 H417 0.929 . S
C406 C402 1.531 . S
C406 H418 0.960 . S
C406 H419 0.962 . S
C406 H420 0.960 . S
C407 C404 1.511 . S
C407 H421 0.961 . S
C407 H422 0.961 . S
C407 H423 0.961 . S
C408 C409 1.370 . S
C408 C410 1.363 . S
C408 H424 0.931 . S
C409 C408 1.370 . S
C409 C413 1.408 . S
C410 C408 1.363 . S
C410 C411 1.370 . S
C410 C414 1.524 . S
C411 C403 1.503 . S
C411 C410 1.370 . S
C411 C412 1.403 . S
C412 C411 1.403 . S
C412 C413 1.404 . S
C412 C415 1.539 . S
C413 C409 1.408 . S
C413 C412 1.404 . S
C413 H425 0.930 . S
C414 C410 1.524 . S
C414 H426 0.956 . S
C414 H427 0.961 . S
C414 H428 0.961 . S
C415 C412 1.539 . S
C415 H429 0.958 . S
C415 H430 0.961 . S
C415 H431 0.960 . S
H416 C400 0.931 . S
H417 C405 0.929 . S
H418 C406 0.960 . S
H419 C406 0.962 . S
H420 C406 0.960 . S
H421 C407 0.961 . S
H422 C407 0.961 . S
H423 C407 0.961 . S
H424 C408 0.931 . S
H425 C413 0.930 . S
H426 C414 0.956 . S
H427 C414 0.961 . S
H428 C414 0.961 . S
H429 C415 0.958 . S
H430 C415 0.961 . S
H431 C415 0.960 . S
C432 C433 1.391 . S
C432 C434 1.394 . S
C432 H448 0.931 . S
C433 C432 1.391 . S
C433 C437 1.376 . S
C434 C432 1.394 . S
C434 C435 1.369 . S
C434 C438 1.531 . S
C435 C434 1.369 . S
C435 C436 1.410 . S
C435 C443 1.503 . S
C436 C435 1.410 . S
C436 C437 1.392 . S
C436 C439 1.511 . S
C437 C433 1.376 . S
C437 C436 1.392 . S
C437 H449 0.929 . S
C438 C434 1.531 . S
C438 H450 0.960 . S
C438 H451 0.962 . S
C438 H452 0.960 . S
C439 C436 1.511 . S
C439 H453 0.961 . S
C439 H454 0.961 . S
C439 H455 0.961 . S
C440 C441 1.370 . S
C440 C442 1.363 . S
C440 H456 0.931 . S
C441 C440 1.370 . S
C441 C445 1.408 . S
C442 C440 1.363 . S
C442 C443 1.370 . S
C442 C446 1.524 . S
C443 C435 1.503 . S
C443 C442 1.370 . S
C443 C444 1.403 . S
C444 C443 1.403 . S
C444 C445 1.404 . S
C444 C447 1.539 . S
C445 C441 1.408 . S
C445 C444 1.404 . S
C445 H457 0.930 . S
C446 C442 1.524 . S
C446 H458 0.956 . S
C446 H459 0.961 . S
C446 H460 0.961 . S
C447 C444 1.539 . S
C447 H461 0.958 . S
C447 H462 0.961 . S
C447 H463 0.960 . S
H448 C432 0.931 . S
H449 C437 0.929 . S
H450 C438 0.960 . S
H451 C438 0.962 . S
H452 C438 0.960 . S
H453 C439 0.961 . S
H454 C439 0.961 . S
H455 C439 0.961 . S
H456 C440 0.931 . S
H457 C445 0.930 . S
H458 C446 0.956 . S
H459 C446 0.961 . S
H460 C446 0.961 . S
H461 C447 0.958 . S
H462 C447 0.961 . S
H463 C447 0.960 . S
C464 C465 1.391 . S
C464 C466 1.394 . S
C464 H480 0.931 . S
C465 C464 1.391 . S
C465 C469 1.376 . S
C466 C464 1.394 . S
C466 C467 1.369 . S
C466 C470 1.531 . S
C467 C466 1.369 . S
C467 C468 1.410 . S
C467 C475 1.503 . S
C468 C467 1.410 . S
C468 C469 1.392 . S
C468 C471 1.511 . S
C469 C465 1.376 . S
C469 C468 1.392 . S
C469 H481 0.929 . S
C470 C466 1.531 . S
C470 H482 0.960 . S
C470 H483 0.962 . S
C470 H484 0.960 . S
C471 C468 1.511 . S
C471 H485 0.961 . S
C471 H486 0.961 . S
C471 H487 0.961 . S
C472 C473 1.370 . S
C472 C474 1.363 . S
C472 H488 0.931 . S
C473 C472 1.370 . S
C473 C477 1.408 . S
C474 C472 1.363 . S
C474 C475 1.370 . S
C474 C478 1.524 . S
C475 C467 1.503 . S
C475 C474 1.370 . S
C475 C476 1.403 . S
C476 C475 1.403 . S
C476 C477 1.404 . S
C476 C479 1.539 . S
C477 C473 1.408 . S
C477 C476 1.404 . S
C477 H489 0.930 . S
C478 C474 1.524 . S
C478 H490 0.956 . S
C478 H491 0.961 . S
C478 H492 0.961 . S
C479 C476 1.539 . S
C479 H493 0.958 . S
C479 H494 0.961 . S
C479 H495 0.960 . S
H480 C464 0.931 . S
H481 C469 0.929 . S
H482 C470 0.960 . S
H483 C470 0.962 . S
H484 C470 0.960 . S
H485 C471 0.961 . S
H486 C471 0.961 . S
H487 C471 0.961 . S
H488 C472 0.931 . S
H489 C477 0.930 . S
H490 C478 0.956 . S
H491 C478 0.961 . S
H492 C478 0.961 . S
H493 C479 0.958 . S
H494 C479 0.961 . S
H495 C479 0.960 . S
C496 C497 1.391 . S
C496 C498 1.394 . S
C496 H512 0.931 . S
C497 C496 1.391 . S
C497 C501 1.376 . S
C498 C496 1.394 . S
C498 C499 1.369 . S
C498 C502 1.531 . S
C499 C498 1.369 . S
C499 C500 1.410 . S
C499 C507 1.503 . S
C500 C499 1.410 . S
C500 C501 1.392 . S
C500 C503 1.511 . S
C501 C497 1.376 . S
C501 C500 1.392 . S
C501 H513 0.929 . S
C502 C498 1.531 . S
C502 H514 0.960 . S
C502 H515 0.962 . S
C502 H516 0.960 . S
C503 C500 1.511 . S
C503 H517 0.961 . S
C503 H518 0.961 . S
C503 H519 0.961 . S
C504 C505 1.370 . S
C504 C506 1.363 . S
C504 H520 0.931 . S
C505 C504 1.370 . S
C505 C509 1.408 . S
C506 C504 1.363 . S
C506 C507 1.370 . S
C506 C510 1.524 . S
C507 C499 1.503 . S
C507 C506 1.370 . S
C507 C508 1.403 . S
C508 C507 1.403 . S
C508 C509 1.404 . S
C508 C511 1.539 . S
C509 C505 1.408 . S
C509 C508 1.404 . S
C509 H521 0.930 . S
C510 C506 1.524 . S
C510 H522 0.956 . S
C510 H523 0.961 . S
C510 H524 0.961 . S
C511 C508 1.539 . S
C511 H525 0.958 . S
C511 H526 0.961 . S
C511 H527 0.960 . S
H512 C496 0.931 . S
H513 C501 0.929 . S
H514 C502 0.960 . S
H515 C502 0.962 . S
H516 C502 0.960 . S
H517 C503 0.961 . S
H518 C503 0.961 . S
H519 C503 0.961 . S
H520 C504 0.931 . S
H521 C509 0.930 . S
H522 C510 0.956 . S
H523 C510 0.961 . S
H524 C510 0.961 . S
H525 C511 0.958 . S
H526 C511 0.961 . S
H527 C511 0.960 . S
C528 C529 1.391 . S
C528 C530 1.394 . S
C528 H544 0.931 . S
C529 C528 1.391 . S
C529 C533 1.376 . S
C530 C528 1.394 . S
C530 C531 1.369 . S
C530 C534 1.531 . S
C531 C530 1.369 . S
C531 C532 1.410 . S
C531 C539 1.503 . S
C532 C531 1.410 . S
C532 C533 1.392 . S
C532 C535 1.511 . S
C533 C529 1.376 . S
C533 C532 1.392 . S
C533 H545 0.929 . S
C534 C530 1.531 . S
C534 H546 0.960 . S
C534 H547 0.962 . S
C534 H548 0.960 . S
C535 C532 1.511 . S
C535 H549 0.961 . S
C535 H550 0.961 . S
C535 H551 0.961 . S
C536 C537 1.370 . S
C536 C538 1.363 . S
C536 H552 0.931 . S
C537 C536 1.370 . S
C537 C541 1.408 . S
C538 C536 1.363 . S
C538 C539 1.370 . S
C538 C542 1.524 . S
C539 C531 1.503 . S
C539 C538 1.370 . S
C539 C540 1.403 . S
C540 C539 1.403 . S
C540 C541 1.404 . S
C540 C543 1.539 . S
C541 C537 1.408 . S
C541 C540 1.404 . S
C541 H553 0.930 . S
C542 C538 1.524 . S
C542 H554 0.956 . S
C542 H555 0.961 . S
C542 H556 0.961 . S
C543 C540 1.539 . S
C543 H557 0.958 . S
C543 H558 0.961 . S
C543 H559 0.960 . S
H544 C528 0.931 . S
H545 C533 0.929 . S
H546 C534 0.960 . S
H547 C534 0.962 . S
H548 C534 0.960 . S
H549 C535 0.961 . S
H550 C535 0.961 . S
H551 C535 0.961 . S
H552 C536 0.931 . S
H553 C541 0.930 . S
H554 C542 0.956 . S
H555 C542 0.961 . S
H556 C542 0.961 . S
H557 C543 0.958 . S
H558 C543 0.961 . S
H559 C543 0.960 . S
C560 C561 1.391 . S
C560 C562 1.394 . S
C560 H576 0.931 . S
C561 C560 1.391 . S
C561 C565 1.376 . S
C562 C560 1.394 . S
C562 C563 1.369 . S
C562 C566 1.531 . S
C563 C562 1.369 . S
C563 C564 1.410 . S
C563 C571 1.503 . S
C564 C563 1.410 . S
C564 C565 1.392 . S
C564 C567 1.511 . S
C565 C561 1.376 . S
C565 C564 1.392 . S
C565 H577 0.929 1_556 S
C566 C562 1.531 . S
C566 H578 0.960 . S
C566 H579 0.962 . S
C566 H580 0.960 . S
C567 C564 1.511 . S
C567 H581 0.961 1_556 S
C567 H582 0.961 . S
C567 H583 0.961 . S
C568 C569 1.370 . S
C568 C570 1.363 . S
C568 H584 0.931 . S
C569 C568 1.370 . S
C569 C573 1.408 . S
C570 C568 1.363 . S
C570 C571 1.370 . S
C570 C574 1.524 . S
C571 C563 1.503 . S
C571 C570 1.370 . S
C571 C572 1.403 . S
C572 C571 1.403 . S
C572 C573 1.404 . S
C572 C575 1.539 . S
C573 C569 1.408 . S
C573 C572 1.404 . S
C573 H585 0.930 . S
C574 C570 1.524 . S
C574 H586 0.956 . S
C574 H587 0.961 . S
C574 H588 0.961 . S
C575 C572 1.539 . S
C575 H589 0.958 . S
C575 H590 0.961 . S
C575 H591 0.960 . S
H576 C560 0.931 . S
H577 C565 0.929 1_554 S
H578 C566 0.960 . S
H579 C566 0.962 . S
H580 C566 0.960 . S
H581 C567 0.961 1_554 S
H582 C567 0.961 . S
H583 C567 0.961 . S
H584 C568 0.931 . S
H585 C573 0.930 . S
H586 C574 0.956 . S
H587 C574 0.961 . S
H588 C574 0.961 . S
H589 C575 0.958 . S
H590 C575 0.961 . S
H591 C575 0.960 . S
C592 C593 1.391 . S
C592 C594 1.394 . S
C592 H608 0.931 . S
C593 C592 1.391 . S
C593 C597 1.376 . S
C594 C592 1.394 . S
C594 C595 1.369 . S
C594 C598 1.531 . S
C595 C594 1.369 . S
C595 C596 1.410 . S
C595 C603 1.503 . S
C596 C595 1.410 . S
C596 C597 1.392 . S
C596 C599 1.511 . S
C597 C593 1.376 . S
C597 C596 1.392 . S
C597 H609 0.929 . S
C598 C594 1.531 . S
C598 H610 0.960 . S
C598 H611 0.962 . S
C598 H612 0.960 . S
C599 C596 1.511 . S
C599 H613 0.961 . S
C599 H614 0.961 . S
C599 H615 0.961 . S
C600 C601 1.370 . S
C600 C602 1.363 . S
C600 H616 0.931 . S
C601 C600 1.370 . S
C601 C605 1.408 . S
C602 C600 1.363 . S
C602 C603 1.370 . S
C602 C606 1.524 . S
C603 C595 1.503 . S
C603 C602 1.370 . S
C603 C604 1.403 . S
C604 C603 1.403 . S
C604 C605 1.404 . S
C604 C607 1.539 . S
C605 C601 1.408 . S
C605 C604 1.404 . S
C605 H617 0.930 . S
C606 C602 1.524 . S
C606 H618 0.956 . S
C606 H619 0.961 . S
C606 H620 0.961 . S
C607 C604 1.539 . S
C607 H621 0.958 . S
C607 H622 0.961 . S
C607 H623 0.960 . S
H608 C592 0.931 . S
H609 C597 0.929 . S
H610 C598 0.960 . S
H611 C598 0.962 . S
H612 C598 0.960 . S
H613 C599 0.961 . S
H614 C599 0.961 . S
H615 C599 0.961 . S
H616 C600 0.931 . S
H617 C605 0.930 . S
H618 C606 0.956 . S
H619 C606 0.961 . S
H620 C606 0.961 . S
H621 C607 0.958 . S
H622 C607 0.961 . S
H623 C607 0.960 . S
C624 C625 1.391 . S
C624 C626 1.394 . S
C624 H640 0.931 . S
C625 C624 1.391 . S
C625 C629 1.376 . S
C626 C624 1.394 . S
C626 C627 1.369 . S
C626 C630 1.531 . S
C627 C626 1.369 . S
C627 C628 1.410 . S
C627 C635 1.503 . S
C628 C627 1.410 . S
C628 C629 1.392 . S
C628 C631 1.511 1_565 S
C629 C625 1.376 . S
C629 C628 1.392 . S
C629 H641 0.929 1_556 S
C630 C626 1.531 . S
C630 H642 0.960 . S
C630 H643 0.962 . S
C630 H644 0.960 . S
C631 C628 1.511 1_545 S
C631 H645 0.961 1_556 S
C631 H646 0.961 . S
C631 H647 0.961 . S
C632 C633 1.370 . S
C632 C634 1.363 1_545 S
C632 H648 0.931 . S
C633 C632 1.370 . S
C633 C637 1.408 . S
C634 C632 1.363 1_565 S
C634 C635 1.370 . S
C634 C638 1.524 . S
C635 C627 1.503 . S
C635 C634 1.370 . S
C635 C636 1.403 1_565 S
C636 C635 1.403 1_545 S
C636 C637 1.404 . S
C636 C639 1.539 . S
C637 C633 1.408 . S
C637 C636 1.404 . S
C637 H649 0.930 . S
C638 C634 1.524 . S
C638 H650 0.956 . S
C638 H651 0.961 . S
C638 H652 0.961 . S
C639 C636 1.539 . S
C639 H653 0.958 . S
C639 H654 0.961 . S
C639 H655 0.960 . S
H640 C624 0.931 . S
H641 C629 0.929 1_554 S
H642 C630 0.960 . S
H643 C630 0.962 . S
H644 C630 0.960 . S
H645 C631 0.961 1_554 S
H646 C631 0.961 . S
H647 C631 0.961 . S
H648 C632 0.931 . S
H649 C637 0.930 . S
H650 C638 0.956 . S
H651 C638 0.961 . S
H652 C638 0.961 . S
H653 C639 0.958 . S
H654 C639 0.961 . S
H655 C639 0.960 . S
C656 C657 1.391 . S
C656 C658 1.394 . S
C656 H672 0.931 . S
C657 C656 1.391 . S
C657 C661 1.376 . S
C658 C656 1.394 . S
C658 C659 1.369 . S
C658 C662 1.531 1_545 S
C659 C658 1.369 . S
C659 C660 1.410 . S
C659 C667 1.515 . S
C660 C659 1.410 . S
C660 C661 1.392 . S
C660 C663 1.511 . S
C661 C657 1.376 . S
C661 C660 1.392 . S
C661 H673 0.929 . S
C662 C658 1.531 1_565 S
C662 H674 0.960 . S
C662 H675 0.962 . S
C662 H676 0.960 . S
C663 C660 1.511 . S
C663 H677 0.961 . S
C663 H678 0.961 . S
C663 H679 0.961 . S
C664 C665 1.370 . S
C664 C666 1.363 1_565 S
C664 H680 0.931 . S
C665 C664 1.370 . S
C665 C669 1.408 . S
C666 C664 1.363 1_545 S
C666 C667 1.376 . S
C666 C670 1.524 . S
C667 C659 1.515 . S
C667 C666 1.376 . S
C667 C668 1.385 1_545 S
C668 C667 1.385 1_565 S
C668 C669 1.404 . S
C668 C671 1.539 . S
C669 C665 1.408 . S
C669 C668 1.404 . S
C669 H681 0.930 . S
C670 C666 1.524 . S
C670 H682 0.956 . S
C670 H683 0.961 . S
C670 H684 0.961 . S
C671 C668 1.539 . S
C671 H685 0.958 . S
C671 H686 0.961 . S
C671 H687 0.960 . S
H672 C656 0.931 . S
H673 C661 0.929 . S
H674 C662 0.960 . S
H675 C662 0.962 . S
H676 C662 0.960 . S
H677 C663 0.961 . S
H678 C663 0.961 . S
H679 C663 0.961 . S
H680 C664 0.931 . S
H681 C669 0.930 . S
H682 C670 0.956 . S
H683 C670 0.961 . S
H684 C670 0.961 . S
H685 C671 0.958 . S
H686 C671 0.961 . S
H687 C671 0.960 . S
C688 C689 1.391 . S
C688 C690 1.394 . S
C688 H704 0.931 1_556 S
C689 C688 1.391 . S
C689 C693 1.376 . S
C690 C688 1.394 . S
C690 C691 1.369 . S
C690 C694 1.531 . S
C691 C690 1.369 . S
C691 C692 1.410 . S
C691 C699 1.514 . S
C692 C691 1.410 . S
C692 C693 1.392 . S
C692 C695 1.511 1_565 S
C693 C689 1.376 . S
C693 C692 1.392 . S
C693 H705 0.929 . S
C694 C690 1.531 . S
C694 H706 0.960 . S
C694 H707 0.962 . S
C694 H708 0.960 1_556 S
C695 C692 1.511 1_545 S
C695 H709 0.961 . S
C695 H710 0.961 . S
C695 H711 0.961 . S
C696 C697 1.370 . S
C696 C698 1.363 1_545 S
C696 H712 0.931 1_545 S
C697 C696 1.370 . S
C697 C701 1.408 . S
C698 C696 1.363 1_565 S
C698 C699 1.377 . S
C698 C702 1.524 . S
C699 C691 1.514 . S
C699 C698 1.377 . S
C699 C700 1.386 1_565 S
C700 C699 1.386 1_545 S
C700 C701 1.404 . S
C700 C703 1.539 . S
C701 C697 1.408 . S
C701 C700 1.404 . S
C701 H713 0.930 . S
C702 C698 1.524 . S
C702 H714 0.956 . S
C702 H715 0.961 . S
C702 H716 0.961 . S
C703 C700 1.539 . S
C703 H717 0.950 1_556 S
C703 H718 0.961 . S
C703 H719 0.960 . S
H704 C688 0.931 1_554 S
H705 C693 0.929 . S
H706 C694 0.960 . S
H707 C694 0.962 . S
H708 C694 0.960 1_554 S
H709 C695 0.961 . S
H710 C695 0.961 . S
H711 C695 0.961 . S
H712 C696 0.931 1_565 S
H713 C701 0.930 . S
H714 C702 0.956 . S
H715 C702 0.961 . S
H716 C702 0.961 . S
H717 C703 0.950 1_554 S
H718 C703 0.961 . S
H719 C703 0.960 . S
C720 C721 1.391 . S
C720 C722 1.394 . S
C720 H736 0.931 . S
C721 C720 1.391 . S
C721 C725 1.376 . S
C722 C720 1.394 . S
C722 C723 1.369 . S
C722 C726 1.531 . S
C723 C722 1.369 . S
C723 C724 1.410 . S
C723 C731 1.494 1_545 S
C724 C723 1.410 . S
C724 C725 1.392 . S
C724 C727 1.511 . S
C725 C721 1.376 . S
C725 C724 1.392 . S
C725 H737 0.929 . S
C726 C722 1.531 . S
C726 H738 0.960 1_545 S
C726 H739 0.962 . S
C726 H740 0.960 . S
C727 C724 1.511 . S
C727 H741 0.961 . S
C727 H742 0.961 . S
C727 H743 0.961 1_545 S
C728 C729 1.370 . S
C728 C730 1.363 1_565 S
C728 H744 0.931 1_565 S
C729 C728 1.370 . S
C729 C733 1.408 . S
C730 C728 1.363 1_545 S
C730 C731 1.361 1_545 S
C730 C734 1.524 . S
C731 C723 1.494 1_565 S
C731 C730 1.361 1_565 S
C731 C732 1.421 . S
C732 C731 1.421 . S
C732 C733 1.404 . S
C732 C735 1.539 . S
C733 C729 1.408 . S
C733 C732 1.404 . S
C733 H745 0.930 . S
C734 C730 1.524 . S
C734 H746 0.956 . S
C734 H747 0.961 . S
C734 H748 0.961 . S
C735 C732 1.539 . S
C735 H749 0.958 . S
C735 H750 0.961 . S
C735 H751 0.960 . S
H736 C720 0.931 . S
H737 C725 0.929 . S
H738 C726 0.960 1_565 S
H739 C726 0.962 . S
H740 C726 0.960 . S
H741 C727 0.961 . S
H742 C727 0.961 . S
H743 C727 0.961 1_565 S
H744 C728 0.931 1_545 S
H745 C733 0.930 . S
H746 C734 0.956 . S
H747 C734 0.961 . S
H748 C734 0.961 . S
H749 C735 0.958 . S
H750 C735 0.961 . S
H751 C735 0.960 . S
C752 C753 1.391 . S
C752 C754 1.394 . S
C752 H768 0.931 . S
C753 C752 1.391 . S
C753 C757 1.376 . S
C754 C752 1.394 . S
C754 C755 1.369 . S
C754 C758 1.531 . S
C755 C754 1.369 . S
C755 C756 1.410 . S
C755 C763 1.503 . S
C756 C755 1.410 . S
C756 C757 1.392 . S
C756 C759 1.511 . S
C757 C753 1.376 . S
C757 C756 1.392 . S
C757 H769 0.929 . S
C758 C754 1.531 . S
C758 H770 0.960 . S
C758 H771 0.962 . S
C758 H772 0.960 . S
C759 C756 1.511 . S
C759 H773 0.961 . S
C759 H774 0.961 . S
C759 H775 0.961 . S
C760 C761 1.370 . S
C760 C762 1.363 . S
C760 H776 0.931 . S
C761 C760 1.370 . S
C761 C765 1.408 . S
C762 C760 1.363 . S
C762 C763 1.370 . S
C762 C766 1.524 . S
C763 C755 1.503 . S
C763 C762 1.370 . S
C763 C764 1.403 . S
C764 C763 1.403 . S
C764 C765 1.404 . S
C764 C767 1.539 . S
C765 C761 1.408 . S
C765 C764 1.404 . S
C765 H777 0.930 . S
C766 C762 1.524 . S
C766 H778 0.956 . S
C766 H779 0.961 . S
C766 H780 0.961 . S
C767 C764 1.539 . S
C767 H781 0.958 . S
C767 H782 0.961 . S
C767 H783 0.960 . S
H768 C752 0.931 . S
H769 C757 0.929 . S
H770 C758 0.960 . S
H771 C758 0.962 . S
H772 C758 0.960 . S
H773 C759 0.961 . S
H774 C759 0.961 . S
H775 C759 0.961 . S
H776 C760 0.931 . S
H777 C765 0.930 . S
H778 C766 0.956 . S
H779 C766 0.961 . S
H780 C766 0.961 . S
H781 C767 0.958 . S
H782 C767 0.961 . S
H783 C767 0.960 . S
C784 C785 1.391 . S
C784 C786 1.394 . S
C784 H800 0.931 . S
C785 C784 1.391 . S
C785 C789 1.376 . S
C786 C784 1.394 . S
C786 C787 1.369 . S
C786 C790 1.531 . S
C787 C786 1.369 . S
C787 C788 1.410 . S
C787 C795 1.503 . S
C788 C787 1.410 . S
C788 C789 1.392 . S
C788 C791 1.511 . S
C789 C785 1.376 . S
C789 C788 1.392 . S
C789 H801 0.929 . S
C790 C786 1.531 . S
C790 H802 0.960 . S
C790 H803 0.962 . S
C790 H804 0.960 . S
C791 C788 1.511 . S
C791 H805 0.961 . S
C791 H806 0.961 . S
C791 H807 0.961 . S
C792 C793 1.370 . S
C792 C794 1.363 . S
C792 H808 0.931 . S
C793 C792 1.370 . S
C793 C797 1.408 . S
C794 C792 1.363 . S
C794 C795 1.370 . S
C794 C798 1.524 . S
C795 C787 1.503 . S
C795 C794 1.370 . S
C795 C796 1.403 . S
C796 C795 1.403 . S
C796 C797 1.404 . S
C796 C799 1.539 . S
C797 C793 1.408 . S
C797 C796 1.404 . S
C797 H809 0.930 . S
C798 C794 1.524 . S
C798 H810 0.956 . S
C798 H811 0.961 . S
C798 H812 0.961 . S
C799 C796 1.539 . S
C799 H813 0.958 . S
C799 H814 0.961 . S
C799 H815 0.960 . S
H800 C784 0.931 . S
H801 C789 0.929 . S
H802 C790 0.960 . S
H803 C790 0.962 . S
H804 C790 0.960 . S
H805 C791 0.961 . S
H806 C791 0.961 . S
H807 C791 0.961 . S
H808 C792 0.931 . S
H809 C797 0.930 . S
H810 C798 0.956 . S
H811 C798 0.961 . S
H812 C798 0.961 . S
H813 C799 0.958 . S
H814 C799 0.961 . S
H815 C799 0.960 . S
C816 C817 1.391 . S
C816 C818 1.394 . S
C816 H832 0.931 . S
C817 C816 1.391 . S
C817 C821 1.376 . S
C818 C816 1.394 . S
C818 C819 1.369 . S
C818 C822 1.531 . S
C819 C818 1.369 . S
C819 C820 1.410 . S
C819 C827 1.503 . S
C820 C819 1.410 . S
C820 C821 1.392 . S
C820 C823 1.511 . S
C821 C817 1.376 . S
C821 C820 1.392 . S
C821 H833 0.929 . S
C822 C818 1.531 . S
C822 H834 0.960 . S
C822 H835 0.962 . S
C822 H836 0.960 . S
C823 C820 1.511 . S
C823 H837 0.961 . S
C823 H838 0.961 . S
C823 H839 0.961 . S
C824 C825 1.370 . S
C824 C826 1.363 . S
C824 H840 0.931 . S
C825 C824 1.370 . S
C825 C829 1.408 . S
C826 C824 1.363 . S
C826 C827 1.370 . S
C826 C830 1.524 . S
C827 C819 1.503 . S
C827 C826 1.370 . S
C827 C828 1.403 . S
C828 C827 1.403 . S
C828 C829 1.404 . S
C828 C831 1.539 . S
C829 C825 1.408 . S
C829 C828 1.404 . S
C829 H841 0.930 . S
C830 C826 1.524 . S
C830 H842 0.956 . S
C830 H843 0.961 . S
C830 H844 0.961 . S
C831 C828 1.539 . S
C831 H845 0.958 . S
C831 H846 0.961 . S
C831 H847 0.960 . S
H832 C816 0.931 . S
H833 C821 0.929 . S
H834 C822 0.960 . S
H835 C822 0.962 . S
H836 C822 0.960 . S
H837 C823 0.961 . S
H838 C823 0.961 . S
H839 C823 0.961 . S
H840 C824 0.931 . S
H841 C829 0.930 . S
H842 C830 0.956 . S
H843 C830 0.961 . S
H844 C830 0.961 . S
H845 C831 0.958 . S
H846 C831 0.961 . S
H847 C831 0.960 . S
C848 C849 1.391 . S
C848 C850 1.394 . S
C848 H864 0.931 . S
C849 C848 1.391 . S
C849 C853 1.376 . S
C850 C848 1.394 . S
C850 C851 1.369 . S
C850 C854 1.531 . S
C851 C850 1.369 . S
C851 C852 1.410 . S
C851 C859 1.503 . S
C852 C851 1.410 . S
C852 C853 1.392 . S
C852 C855 1.511 . S
C853 C849 1.376 . S
C853 C852 1.392 . S
C853 H865 0.929 . S
C854 C850 1.531 . S
C854 H866 0.960 . S
C854 H867 0.962 . S
C854 H868 0.960 . S
C855 C852 1.511 . S
C855 H869 0.961 . S
C855 H870 0.961 . S
C855 H871 0.961 . S
C856 C857 1.370 . S
C856 C858 1.363 . S
C856 H872 0.931 . S
C857 C856 1.370 . S
C857 C861 1.408 . S
C858 C856 1.363 . S
C858 C859 1.370 . S
C858 C862 1.524 . S
C859 C851 1.503 . S
C859 C858 1.370 . S
C859 C860 1.403 . S
C860 C859 1.403 . S
C860 C861 1.404 . S
C860 C863 1.539 . S
C861 C857 1.408 . S
C861 C860 1.404 . S
C861 H873 0.930 . S
C862 C858 1.524 . S
C862 H874 0.956 . S
C862 H875 0.961 . S
C862 H876 0.961 . S
C863 C860 1.539 . S
C863 H877 0.958 . S
C863 H878 0.961 . S
C863 H879 0.960 . S
H864 C848 0.931 . S
H865 C853 0.929 . S
H866 C854 0.960 . S
H867 C854 0.962 . S
H868 C854 0.960 . S
H869 C855 0.961 . S
H870 C855 0.961 . S
H871 C855 0.961 . S
H872 C856 0.931 . S
H873 C861 0.930 . S
H874 C862 0.956 . S
H875 C862 0.961 . S
H876 C862 0.961 . S
H877 C863 0.958 . S
H878 C863 0.961 . S
H879 C863 0.960 . S
C880 C881 1.391 . S
C880 C882 1.394 . S
C880 H896 0.931 . S
C881 C880 1.391 . S
C881 C885 1.376 . S
C882 C880 1.394 . S
C882 C883 1.369 . S
C882 C886 1.531 . S
C883 C882 1.369 . S
C883 C884 1.410 . S
C883 C891 1.503 . S
C884 C883 1.410 . S
C884 C885 1.392 . S
C884 C887 1.511 . S
C885 C881 1.376 . S
C885 C884 1.392 . S
C885 H897 0.929 . S
C886 C882 1.531 . S
C886 H898 0.960 . S
C886 H899 0.962 . S
C886 H900 0.960 . S
C887 C884 1.511 . S
C887 H901 0.961 . S
C887 H902 0.961 . S
C887 H903 0.961 . S
C888 C889 1.370 . S
C888 C890 1.363 . S
C888 H904 0.931 . S
C889 C888 1.370 . S
C889 C893 1.408 . S
C890 C888 1.363 . S
C890 C891 1.370 . S
C890 C894 1.524 . S
C891 C883 1.503 . S
C891 C890 1.370 . S
C891 C892 1.403 . S
C892 C891 1.403 . S
C892 C893 1.404 . S
C892 C895 1.539 . S
C893 C889 1.408 . S
C893 C892 1.404 . S
C893 H905 0.930 . S
C894 C890 1.524 . S
C894 H906 0.956 . S
C894 H907 0.961 . S
C894 H908 0.961 . S
C895 C892 1.539 . S
C895 H909 0.958 . S
C895 H910 0.961 . S
C895 H911 0.960 . S
H896 C880 0.931 . S
H897 C885 0.929 . S
H898 C886 0.960 . S
H899 C886 0.962 . S
H900 C886 0.960 . S
H901 C887 0.961 . S
H902 C887 0.961 . S
H903 C887 0.961 . S
H904 C888 0.931 . S
H905 C893 0.930 . S
H906 C894 0.956 . S
H907 C894 0.961 . S
H908 C894 0.961 . S
H909 C895 0.958 . S
H910 C895 0.961 . S
H911 C895 0.960 . S
C912 C913 1.391 . S
C912 C914 1.394 . S
C912 H928 0.931 . S
C913 C912 1.391 . S
C913 C917 1.376 . S
C914 C912 1.394 . S
C914 C915 1.369 . S
C914 C918 1.531 . S
C915 C914 1.369 . S
C915 C916 1.410 . S
C915 C923 1.503 . S
C916 C915 1.410 . S
C916 C917 1.392 . S
C916 C919 1.511 . S
C917 C913 1.376 . S
C917 C916 1.392 . S
C917 H929 0.929 . S
C918 C914 1.531 . S
C918 H930 0.960 . S
C918 H931 0.962 . S
C918 H932 0.960 . S
C919 C916 1.511 . S
C919 H933 0.961 . S
C919 H934 0.961 . S
C919 H935 0.961 . S
C920 C921 1.370 . S
C920 C922 1.363 . S
C920 H936 0.931 . S
C921 C920 1.370 . S
C921 C925 1.408 . S
C922 C920 1.363 . S
C922 C923 1.370 . S
C922 C926 1.524 . S
C923 C915 1.503 . S
C923 C922 1.370 . S
C923 C924 1.403 . S
C924 C923 1.403 . S
C924 C925 1.404 . S
C924 C927 1.539 . S
C925 C921 1.408 . S
C925 C924 1.404 . S
C925 H937 0.930 . S
C926 C922 1.524 . S
C926 H938 0.956 . S
C926 H939 0.961 . S
C926 H940 0.961 . S
C927 C924 1.539 . S
C927 H941 0.958 . S
C927 H942 0.961 . S
C927 H943 0.960 . S
H928 C912 0.931 . S
H929 C917 0.929 . S
H930 C918 0.960 . S
H931 C918 0.962 . S
H932 C918 0.960 . S
H933 C919 0.961 . S
H934 C919 0.961 . S
H935 C919 0.961 . S
H936 C920 0.931 . S
H937 C925 0.930 . S
H938 C926 0.956 . S
H939 C926 0.961 . S
H940 C926 0.961 . S
H941 C927 0.958 . S
H942 C927 0.961 . S
H943 C927 0.960 . S
C944 C945 1.391 . S
C944 C946 1.394 . S
C944 H960 0.931 . S
C945 C944 1.391 . S
C945 C949 1.376 . S
C946 C944 1.394 . S
C946 C947 1.369 . S
C946 C950 1.531 . S
C947 C946 1.369 . S
C947 C948 1.410 . S
C947 C955 1.503 . S
C948 C947 1.410 . S
C948 C949 1.392 . S
C948 C951 1.511 . S
C949 C945 1.376 . S
C949 C948 1.392 . S
C949 H961 0.929 . S
C950 C946 1.531 . S
C950 H962 0.960 . S
C950 H963 0.962 . S
C950 H964 0.960 . S
C951 C948 1.511 . S
C951 H965 0.961 . S
C951 H966 0.961 . S
C951 H967 0.961 . S
C952 C953 1.370 . S
C952 C954 1.363 . S
C952 H968 0.931 . S
C953 C952 1.370 . S
C953 C957 1.408 . S
C954 C952 1.363 . S
C954 C955 1.370 . S
C954 C958 1.524 . S
C955 C947 1.503 . S
C955 C954 1.370 . S
C955 C956 1.403 . S
C956 C955 1.403 . S
C956 C957 1.404 . S
C956 C959 1.539 . S
C957 C953 1.408 . S
C957 C956 1.404 . S
C957 H969 0.930 . S
C958 C954 1.524 . S
C958 H970 0.956 . S
C958 H971 0.961 . S
C958 H972 0.961 . S
C959 C956 1.539 . S
C959 H973 0.958 . S
C959 H974 0.961 . S
C959 H975 0.960 . S
H960 C944 0.931 . S
H961 C949 0.929 . S
H962 C950 0.960 . S
H963 C950 0.962 . S
H964 C950 0.960 . S
H965 C951 0.961 . S
H966 C951 0.961 . S
H967 C951 0.961 . S
H968 C952 0.931 . S
H969 C957 0.930 . S
H970 C958 0.956 . S
H971 C958 0.961 . S
H972 C958 0.961 . S
H973 C959 0.958 . S
H974 C959 0.961 . S
H975 C959 0.960 . S
C976 C977 1.391 . S
C976 C978 1.394 . S
C976 H992 0.931 . S
C977 C976 1.391 . S
C977 C981 1.376 . S
C978 C976 1.394 . S
C978 C979 1.369 . S
C978 C982 1.531 . S
C979 C978 1.369 . S
C979 C980 1.410 . S
C979 C987 1.503 . S
C980 C979 1.410 . S
C980 C981 1.392 . S
C980 C983 1.511 . S
C981 C977 1.376 . S
C981 C980 1.392 . S
C981 H993 0.929 . S
C982 C978 1.531 . S
C982 H994 0.960 . S
C982 H995 0.962 . S
C982 H996 0.960 . S
C983 C980 1.511 . S
C983 H997 0.961 . S
C983 H998 0.961 . S
C983 H999 0.961 . S
C984 C985 1.370 . S
C984 C986 1.363 . S
C984 H1000 0.931 . S
C985 C984 1.370 . S
C985 C989 1.408 . S
C986 C984 1.363 . S
C986 C987 1.370 . S
C986 C990 1.524 . S
C987 C979 1.503 . S
C987 C986 1.370 . S
C987 C988 1.403 . S
C988 C987 1.403 . S
C988 C989 1.404 . S
C988 C991 1.539 . S
C989 C985 1.408 . S
C989 C988 1.404 . S
C989 H1001 0.930 . S
C990 C986 1.524 . S
C990 H1002 0.956 . S
C990 H1003 0.961 . S
C990 H1004 0.961 . S
C991 C988 1.539 . S
C991 H1005 0.958 . S
C991 H1006 0.961 . S
C991 H1007 0.960 . S
H992 C976 0.931 . S
H993 C981 0.929 . S
H994 C982 0.960 . S
H995 C982 0.962 . S
H996 C982 0.960 . S
H997 C983 0.961 . S
H998 C983 0.961 . S
H999 C983 0.961 . S
H1000 C984 0.931 . S
H1001 C989 0.930 . S
H1002 C990 0.956 . S
H1003 C990 0.961 . S
H1004 C990 0.961 . S
H1005 C991 0.958 . S
H1006 C991 0.961 . S
H1007 C991 0.960 . S
C241 C11 1.449 . S
C249 C178 1.542 . S
C281 C156 1.530 . S
C273 C30 1.442 . S
C313 C182 1.539 . S
C305 C49 1.419 . S
C345 C160 1.534 . S
C337 C68 1.433 . S
C377 C222 1.547 . S
C369 C87 1.504 . S
C409 C200 1.539 . S
C401 C106 1.500 . S
C433 C125 1.438 . S
C441 C226 1.532 . S
C473 C204 1.544 . S
C465 C144 1.386 . S
C497 C2 1.561 . S
C505 C227 1.582 . S
C537 C205 1.574 . S
C529 C21 1.528 . S
C561 C40 1.520 . S
C569 C224 1.571 . S
C593 C59 1.560 . S
C601 C202 1.582 . S
C633 C183 1.582 . S
C625 C78 1.562 . S
C657 C97 1.520 . S
C665 C161 1.572 . S
C697 C180 1.576 . S
C689 C116 1.522 . S
C729 C158 1.580 . S
C721 C135 1.542 . S
C761 C201 1.521 . S
C753 C6 1.532 . S
C793 C223 1.511 . S
C785 C25 1.517 . S
C817 C44 1.521 . S
C825 C203 1.515 . S
C857 C225 1.514 . S
C849 C63 1.512 . S
C889 C157 1.507 . S
C881 C82 1.510 . S
C913 C101 1.531 . S
C921 C179 1.520 . S
C945 C120 1.503 . S
C953 C159 1.505 . S
C977 C139 1.508 . S
C985 C181 1.510 . S
