# Generated by pormake.
# Topology eea, (3,6)-cn, num edge types: 1
# Building blocks:
#     Node 0, Type 0, BuildingBlock: QEWDON_clean_linker_0, # of connection points: 3
#     Node 1, Type 0, BuildingBlock: QEWDON_clean_linker_0, # of connection points: 3
#     Node 2, Type 0, BuildingBlock: QEWDON_clean_linker_0, # of connection points: 3
#     Node 3, Type 0, BuildingBlock: QEWDON_clean_linker_0, # of connection points: 3
#     Node 4, Type 0, BuildingBlock: QEWDON_clean_linker_0, # of connection points: 3
#     Node 5, Type 0, BuildingBlock: QEWDON_clean_linker_0, # of connection points: 3
#     Node 6, Type 0, BuildingBlock: QEWDON_clean_linker_0, # of connection points: 3
#     Node 7, Type 0, BuildingBlock: QEWDON_clean_linker_0, # of connection points: 3
#     Node 8, Type 0, BuildingBlock: QEWDON_clean_linker_0, # of connection points: 3
#     Node 9, Type 0, BuildingBlock: QEWDON_clean_linker_0, # of connection points: 3
#     Node 10, Type 0, BuildingBlock: QEWDON_clean_linker_0, # of connection points: 3
#     Node 11, Type 0, BuildingBlock: QEWDON_clean_linker_0, # of connection points: 3
#     Node 12, Type 0, BuildingBlock: QEWDON_clean_linker_0, # of connection points: 3
#     Node 13, Type 0, BuildingBlock: QEWDON_clean_linker_0, # of connection points: 3
#     Node 14, Type 0, BuildingBlock: QEWDON_clean_linker_0, # of connection points: 3
#     Node 15, Type 0, BuildingBlock: QEWDON_clean_linker_0, # of connection points: 3
#     Node 16, Type 0, BuildingBlock: QEWDON_clean_linker_0, # of connection points: 3
#     Node 17, Type 0, BuildingBlock: QEWDON_clean_linker_0, # of connection points: 3
#     Node 18, Type 1, BuildingBlock: KUMJIN_clean_sbu_0, # of connection points: 6
#     Node 19, Type 1, BuildingBlock: KUMJIN_clean_sbu_0, # of connection points: 6
#     Node 20, Type 1, BuildingBlock: KUMJIN_clean_sbu_0, # of connection points: 6
#     Node 21, Type 1, BuildingBlock: KUMJIN_clean_sbu_0, # of connection points: 6
#     Node 22, Type 1, BuildingBlock: KUMJIN_clean_sbu_0, # of connection points: 6
#     Node 23, Type 1, BuildingBlock: KUMJIN_clean_sbu_0, # of connection points: 6
#     Node 24, Type 1, BuildingBlock: KUMJIN_clean_sbu_0, # of connection points: 6
#     Node 25, Type 1, BuildingBlock: KUMJIN_clean_sbu_0, # of connection points: 6
#     Node 26, Type 1, BuildingBlock: KUMJIN_clean_sbu_0, # of connection points: 6
#     Edge 27, Type (0, 1), BuildingBlock: KIFKEQ_clean_linker_1, # of connection points: 2
#     Edge 28, Type (0, 1), BuildingBlock: KIFKEQ_clean_linker_1, # of connection points: 2
#     Edge 29, Type (0, 1), BuildingBlock: KIFKEQ_clean_linker_1, # of connection points: 2
#     Edge 30, Type (0, 1), BuildingBlock: KIFKEQ_clean_linker_1, # of connection points: 2
#     Edge 31, Type (0, 1), BuildingBlock: KIFKEQ_clean_linker_1, # of connection points: 2
#     Edge 32, Type (0, 1), BuildingBlock: KIFKEQ_clean_linker_1, # of connection points: 2
#     Edge 33, Type (0, 1), BuildingBlock: KIFKEQ_clean_linker_1, # of connection points: 2
#     Edge 34, Type (0, 1), BuildingBlock: KIFKEQ_clean_linker_1, # of connection points: 2
#     Edge 35, Type (0, 1), BuildingBlock: KIFKEQ_clean_linker_1, # of connection points: 2
#     Edge 36, Type (0, 1), BuildingBlock: KIFKEQ_clean_linker_1, # of connection points: 2
#     Edge 37, Type (0, 1), BuildingBlock: KIFKEQ_clean_linker_1, # of connection points: 2
#     Edge 38, Type (0, 1), BuildingBlock: KIFKEQ_clean_linker_1, # of connection points: 2
#     Edge 39, Type (0, 1), BuildingBlock: KIFKEQ_clean_linker_1, # of connection points: 2
#     Edge 40, Type (0, 1), BuildingBlock: KIFKEQ_clean_linker_1, # of connection points: 2
#     Edge 41, Type (0, 1), BuildingBlock: KIFKEQ_clean_linker_1, # of connection points: 2
#     Edge 42, Type (0, 1), BuildingBlock: KIFKEQ_clean_linker_1, # of connection points: 2
#     Edge 43, Type (0, 1), BuildingBlock: KIFKEQ_clean_linker_1, # of connection points: 2
#     Edge 44, Type (0, 1), BuildingBlock: KIFKEQ_clean_linker_1, # of connection points: 2
#     Edge 45, Type (0, 1), BuildingBlock: KIFKEQ_clean_linker_1, # of connection points: 2
#     Edge 46, Type (0, 1), BuildingBlock: KIFKEQ_clean_linker_1, # of connection points: 2
#     Edge 47, Type (0, 1), BuildingBlock: KIFKEQ_clean_linker_1, # of connection points: 2
#     Edge 48, Type (0, 1), BuildingBlock: KIFKEQ_clean_linker_1, # of connection points: 2
#     Edge 49, Type (0, 1), BuildingBlock: KIFKEQ_clean_linker_1, # of connection points: 2
#     Edge 50, Type (0, 1), BuildingBlock: KIFKEQ_clean_linker_1, # of connection points: 2
#     Edge 51, Type (0, 1), BuildingBlock: KIFKEQ_clean_linker_1, # of connection points: 2
#     Edge 52, Type (0, 1), BuildingBlock: KIFKEQ_clean_linker_1, # of connection points: 2
#     Edge 53, Type (0, 1), BuildingBlock: KIFKEQ_clean_linker_1, # of connection points: 2
#     Edge 54, Type (0, 1), BuildingBlock: KIFKEQ_clean_linker_1, # of connection points: 2
#     Edge 55, Type (0, 1), BuildingBlock: KIFKEQ_clean_linker_1, # of connection points: 2
#     Edge 56, Type (0, 1), BuildingBlock: KIFKEQ_clean_linker_1, # of connection points: 2
#     Edge 57, Type (0, 1), BuildingBlock: KIFKEQ_clean_linker_1, # of connection points: 2
#     Edge 58, Type (0, 1), BuildingBlock: KIFKEQ_clean_linker_1, # of connection points: 2
#     Edge 59, Type (0, 1), BuildingBlock: KIFKEQ_clean_linker_1, # of connection points: 2
#     Edge 60, Type (0, 1), BuildingBlock: KIFKEQ_clean_linker_1, # of connection points: 2
#     Edge 61, Type (0, 1), BuildingBlock: KIFKEQ_clean_linker_1, # of connection points: 2
#     Edge 62, Type (0, 1), BuildingBlock: KIFKEQ_clean_linker_1, # of connection points: 2
#     Edge 63, Type (0, 1), BuildingBlock: KIFKEQ_clean_linker_1, # of connection points: 2
#     Edge 64, Type (0, 1), BuildingBlock: KIFKEQ_clean_linker_1, # of connection points: 2
#     Edge 65, Type (0, 1), BuildingBlock: KIFKEQ_clean_linker_1, # of connection points: 2
#     Edge 66, Type (0, 1), BuildingBlock: KIFKEQ_clean_linker_1, # of connection points: 2
#     Edge 67, Type (0, 1), BuildingBlock: KIFKEQ_clean_linker_1, # of connection points: 2
#     Edge 68, Type (0, 1), BuildingBlock: KIFKEQ_clean_linker_1, # of connection points: 2
#     Edge 69, Type (0, 1), BuildingBlock: KIFKEQ_clean_linker_1, # of connection points: 2
#     Edge 70, Type (0, 1), BuildingBlock: KIFKEQ_clean_linker_1, # of connection points: 2
#     Edge 71, Type (0, 1), BuildingBlock: KIFKEQ_clean_linker_1, # of connection points: 2
#     Edge 72, Type (0, 1), BuildingBlock: KIFKEQ_clean_linker_1, # of connection points: 2
#     Edge 73, Type (0, 1), BuildingBlock: KIFKEQ_clean_linker_1, # of connection points: 2
#     Edge 74, Type (0, 1), BuildingBlock: KIFKEQ_clean_linker_1, # of connection points: 2
#     Edge 75, Type (0, 1), BuildingBlock: KIFKEQ_clean_linker_1, # of connection points: 2
#     Edge 76, Type (0, 1), BuildingBlock: KIFKEQ_clean_linker_1, # of connection points: 2
#     Edge 77, Type (0, 1), BuildingBlock: KIFKEQ_clean_linker_1, # of connection points: 2
#     Edge 78, Type (0, 1), BuildingBlock: KIFKEQ_clean_linker_1, # of connection points: 2
#     Edge 79, Type (0, 1), BuildingBlock: KIFKEQ_clean_linker_1, # of connection points: 2
#     Edge 80, Type (0, 1), BuildingBlock: KIFKEQ_clean_linker_1, # of connection points: 2
# Relax obj value: 0.044
# Max RMSD: 0.209
# Mean RMSD: 0.149
data_MOF--net-eea--node1-KUMJIN_clean_sbu_0--node2-QEWDON_clean_linker_0--edge1-KIFKEQ_clean_linker_1
_symmetry_space_group_name_H-M    P1
_symmetry_Int_Tables_number       1
_symmetry_cell_setting            triclinic
loop_
_symmetry_equiv_pos_as_xyz
'x, y, z'
_cell_length_a     58.456294
_cell_length_b     60.070175
_cell_length_c     64.386271
_cell_angle_alpha  90.021159
_cell_angle_beta   89.955926
_cell_angle_gamma 119.94978
loop_
_atom_site_label
_atom_site_type_symbol
_atom_site_fract_x
_atom_site_fract_y
_atom_site_fract_z
_atom_type_partial_charge
H0 H 0.22074 0.12341 0.43334 0.0
C1 C 0.22167 0.10771 0.42586 0.0
C2 C 0.24023 0.10095 0.4327 0.0
C3 C 0.20388 0.09379 0.40981 0.0
H4 H 0.25473 0.0745 0.42901 0.0
C5 C 0.24078 0.08005 0.42347 0.0
C6 C 0.22296 0.06568 0.40769 0.0
C7 C 0.20492 0.07298 0.40069 0.0
C8 C 0.18306 0.09973 0.40334 0.0
H9 H 0.19109 0.06193 0.38852 0.0
C10 C 0.18863 0.12529 0.40063 0.0
C11 C 0.1687 0.1305 0.39414 0.0
C12 C 0.15722 0.0795 0.39978 0.0
H13 H 0.15211 0.0597 0.40217 0.0
C14 C 0.13754 0.08451 0.39325 0.0
H15 H 0.20841 0.14102 0.4035 0.0
C16 C 0.1432 0.10972 0.39031 0.0
H17 H 0.12755 0.11286 0.38477 0.0
H18 H 0.11779 0.06875 0.39038 0.0
H19 H 0.9041 0.10303 0.43059 0.0
C20 C 0.91943 0.11967 0.42258 0.0
C21 C 0.92784 0.1446 0.43025 0.0
C22 C 0.93189 0.1159 0.40534 0.0
H23 H 0.95509 0.18515 0.42528 0.0
C24 C 0.94849 0.16581 0.41986 0.0
C25 C 0.96152 0.16231 0.40295 0.0
C26 C 0.95305 0.13736 0.39576 0.0
C27 C 0.92418 0.08955 0.39806 0.0
H28 H 0.96304 0.13468 0.38261 0.0
C29 C 0.89746 0.07073 0.39481 0.0
C30 C 0.89093 0.04651 0.38659 0.0
C31 C 0.94397 0.08338 0.3938 0.0
H32 H 0.96458 0.09725 0.39651 0.0
C33 C 0.93746 0.05927 0.38606 0.0
H34 H 0.88196 0.07521 0.39785 0.0
C35 C 0.91117 0.04102 0.38231 0.0
H36 H 0.90659 0.02248 0.3761 0.0
H37 H 0.95287 0.05477 0.38281 0.0
H38 H 0.92631 0.80394 0.42966 0.0
C39 C 0.90964 0.80286 0.4214 0.0
C40 C 0.88412 0.78903 0.43014 0.0
C41 C 0.91396 0.81701 0.40289 0.0
H42 H 0.84304 0.7779 0.42606 0.0
C43 C 0.86277 0.78854 0.4196 0.0
C44 C 0.86666 0.80264 0.40134 0.0
C45 C 0.8922 0.8167 0.39303 0.0
C46 C 0.94131 0.83462 0.39508 0.0
H47 H 0.89512 0.82773 0.37897 0.0
C48 C 0.96093 0.82731 0.39407 0.0
C49 C 0.98669 0.84492 0.38689 0.0
C50 C 0.94797 0.85961 0.38885 0.0
H51 H 0.93374 0.8661 0.38986 0.0
C52 C 0.97316 0.87678 0.38158 0.0
H53 H 0.95626 0.80823 0.3989 0.0
C54 C 0.99233 0.86955 0.38056 0.0
H55 H 1.0117 0.88333 0.37468 0.0
H56 H 0.9779 0.89588 0.37678 0.0
H57 H 0.13675 0.21745 0.6104 0.0
C58 C 0.11983 0.21789 0.61673 0.0
C59 C 0.10817 0.22973 0.60535 0.0
C60 C 0.10939 0.20605 0.636 0.0
H61 H 0.07523 0.2363 0.60399 0.0
C62 C 0.08537 0.22903 0.61341 0.0
C63 C 0.075 0.21822 0.63301 0.0
C64 C 0.08774 0.20744 0.64431 0.0
C65 C 0.11919 0.1901 0.64662 0.0
H66 H 0.08065 0.1998 0.65967 0.0
C67 C 0.14602 0.19621 0.64589 0.0
C68 C 0.15381 0.17949 0.65485 0.0
C69 C 0.10077 0.16728 0.65673 0.0
H70 H 0.07997 0.16131 0.65711 0.0
C71 C 0.10859 0.15123 0.666 0.0
H72 H 0.16066 0.21352 0.63816 0.0
C73 C 0.1348 0.15719 0.66504 0.0
H74 H 0.14026 0.1442 0.67223 0.0
H75 H 0.09413 0.13381 0.6737 0.0
H76 H 0.81594 0.92226 0.60077 0.0
C77 C 0.81408 0.90552 0.60869 0.0
C78 C 0.79572 0.88091 0.60147 0.0
C79 C 0.83041 0.90857 0.62573 0.0
H80 H 0.77976 0.84023 0.6055 0.0
C81 C 0.79378 0.85919 0.61129 0.0
C82 C 0.81037 0.86178 0.62802 0.0
C83 C 0.82829 0.88654 0.63535 0.0
C84 C 0.85071 0.93467 0.63281 0.0
H85 H 0.84115 0.88872 0.64823 0.0
C86 C 0.84506 0.9549 0.63413 0.0
C87 C 0.86452 0.97957 0.64076 0.0
C88 C 0.87612 0.9395 0.63811 0.0
H89 H 0.88131 0.92458 0.63685 0.0
C90 C 0.89534 0.96376 0.64484 0.0
H91 H 0.82559 0.95145 0.63 0.0
C92 C 0.88963 0.98361 0.64625 0.0
H93 H 0.90487 1.00212 0.65188 0.0
H94 H 0.91478 0.96719 0.649 0.0
H95 H 0.10166 0.88466 0.60568 0.0
C96 C 0.11829 0.90099 0.61295 0.0
C97 C 0.14385 0.91014 0.60491 0.0
C98 C 0.1141 0.91338 0.6299 0.0
H99 H 0.18484 0.93917 0.60747 0.0
C100 C 0.16524 0.93192 0.61388 0.0
C101 C 0.16153 0.94495 0.6305 0.0
C102 C 0.13597 0.93515 0.63868 0.0
C103 C 0.08681 0.90527 0.63736 0.0
H104 H 0.13292 0.94508 0.65149 0.0
C105 C 0.06722 0.87907 0.63956 0.0
C106 C 0.0415 0.87218 0.64637 0.0
C107 C 0.08017 0.92424 0.64202 0.0
H108 H 0.09438 0.94445 0.64002 0.0
C109 C 0.05501 0.91751 0.64903 0.0
H110 H 0.07189 0.86418 0.63589 0.0
C111 C 0.03587 0.89178 0.65125 0.0
H112 H 0.01655 0.88721 0.65692 0.0
H113 H 0.05028 0.93235 0.65268 0.0
H114 H 0.88606 0.45704 0.76836 0.0
C115 C 0.88608 0.44103 0.7606 0.0
C116 C 0.90373 0.43291 0.76703 0.0
C117 C 0.86772 0.42792 0.74475 0.0
H118 H 0.91599 0.40482 0.76258 0.0
C119 C 0.90318 0.41179 0.7571 0.0
C120 C 0.88501 0.39851 0.74116 0.0
C121 C 0.86745 0.40684 0.73503 0.0
C122 C 0.84742 0.43486 0.73932 0.0
H123 H 0.85338 0.39683 0.72269 0.0
C124 C 0.8544 0.46039 0.7346 0.0
C125 C 0.83485 0.46646 0.72891 0.0
C126 C 0.82071 0.4156 0.73879 0.0
H127 H 0.81484 0.39589 0.74259 0.0
C128 C 0.80128 0.42161 0.73363 0.0
H129 H 0.87501 0.47525 0.73464 0.0
C130 C 0.80824 0.4468 0.7287 0.0
H131 H 0.79271 0.45092 0.7248 0.0
H132 H 0.78074 0.40667 0.73342 0.0
H133 H 0.5733 0.43382 0.76409 0.0
C134 C 0.58878 0.45043 0.75614 0.0
C135 C 0.59615 0.47518 0.76344 0.0
C136 C 0.60179 0.44704 0.73909 0.0
H137 H 0.62288 0.51583 0.75944 0.0
C138 C 0.61666 0.49676 0.75347 0.0
C139 C 0.63039 0.49375 0.7368 0.0
C140 C 0.62264 0.46891 0.72957 0.0
C141 C 0.59492 0.42075 0.73206 0.0
H142 H 0.63302 0.46671 0.71649 0.0
C143 C 0.56844 0.40042 0.73114 0.0
C144 C 0.56249 0.3756 0.72472 0.0
C145 C 0.61525 0.4158 0.7265 0.0
H146 H 0.63578 0.43069 0.72748 0.0
C147 C 0.60945 0.39147 0.71989 0.0
H148 H 0.55255 0.40386 0.73545 0.0
C149 C 0.58337 0.37157 0.71893 0.0
H150 H 0.57956 0.35298 0.71343 0.0
H151 H 0.62528 0.388 0.71552 0.0
H152 H 0.59378 0.13678 0.7613 0.0
C153 C 0.57661 0.13564 0.75386 0.0
C154 C 0.55196 0.12262 0.76394 0.0
C155 C 0.57946 0.1488 0.73502 0.0
H156 H 0.51085 0.11122 0.76207 0.0
C157 C 0.52995 0.12207 0.75464 0.0
C158 C 0.53221 0.13558 0.73625 0.0
C159 C 0.55696 0.14834 0.72629 0.0
C160 C 0.60626 0.16555 0.72569 0.0
H161 H 0.55895 0.15877 0.71208 0.0
C162 C 0.62613 0.1585 0.72544 0.0
C163 C 0.65155 0.17553 0.71732 0.0
C164 C 0.6124 0.1897 0.7176 0.0
H165 H 0.59819 0.19625 0.71807 0.0
C166 C 0.63717 0.20617 0.70923 0.0
H167 H 0.62203 0.14014 0.73172 0.0
C168 C 0.65656 0.19921 0.70908 0.0
H169 H 0.67567 0.21249 0.70249 0.0
H170 H 0.64148 0.22461 0.70303 0.0
H171 H 0.80083 0.54735 0.94038 0.0
C172 C 0.78488 0.54826 0.94814 0.0
C173 C 0.7749 0.56346 0.93975 0.0
C174 C 0.7731 0.53267 0.96569 0.0
H175 H 0.74574 0.57534 0.9439 0.0
C176 C 0.75346 0.56352 0.94982 0.0
C177 C 0.74104 0.54768 0.96703 0.0
C178 C 0.751 0.5324 0.97488 0.0
C179 C 0.78189 0.51459 0.97324 0.0
H180 H 0.7414 0.52015 0.98816 0.0
C181 C 0.80889 0.52229 0.97631 0.0
C182 C 0.81621 0.50466 0.98414 0.0
C183 C 0.76264 0.48897 0.97742 0.0
H184 H 0.7419 0.48229 0.97482 0.0
C185 C 0.7698 0.4715 0.98469 0.0
H186 H 0.82396 0.54199 0.97326 0.0
C187 C 0.79624 0.47921 0.98807 0.0
H188 H 0.8011 0.46504 0.99358 0.0
H189 H 0.75474 0.45181 0.98771 0.0
H190 H 0.48315 0.25273 0.93244 0.0
C191 C 0.4813 0.23639 0.94101 0.0
C192 C 0.46367 0.21124 0.93412 0.0
C193 C 0.49777 0.24072 0.95822 0.0
H194 H 0.44943 0.17091 0.93974 0.0
C195 C 0.46273 0.19036 0.94488 0.0
C196 C 0.47942 0.19433 0.96187 0.0
C197 C 0.49647 0.21955 0.96863 0.0
C198 C 0.5177 0.26728 0.96457 0.0
H199 H 0.50895 0.22274 0.98203 0.0
C200 C 0.51137 0.28706 0.96571 0.0
C201 C 0.53054 0.31208 0.97191 0.0
C202 C 0.54349 0.27291 0.96949 0.0
H203 H 0.54912 0.25829 0.96838 0.0
C204 C 0.56242 0.29752 0.9757 0.0
H205 H 0.4916 0.28296 0.96185 0.0
C206 C 0.55605 0.31692 0.97702 0.0
H207 H 0.57109 0.33569 0.98235 0.0
H208 H 0.58215 0.30156 0.97959 0.0
H209 H 0.76798 0.21651 0.93994 0.0
C210 C 0.78449 0.2328 0.94735 0.0
C211 C 0.81014 0.24215 0.93945 0.0
C212 C 0.78006 0.24495 0.96436 0.0
H213 H 0.85105 0.27126 0.9423 0.0
C214 C 0.83138 0.26387 0.94861 0.0
C215 C 0.82744 0.27668 0.96527 0.0
C216 C 0.80179 0.2667 0.97332 0.0
C217 C 0.75268 0.2366 0.97172 0.0
H218 H 0.79857 0.27644 0.98618 0.0
C219 C 0.73318 0.21034 0.97367 0.0
C220 C 0.70736 0.20322 0.98039 0.0
C221 C 0.74586 0.25541 0.97653 0.0
H222 H 0.75999 0.27566 0.97471 0.0
C223 C 0.7206 0.24845 0.98345 0.0
H224 H 0.73798 0.19558 0.96988 0.0
C225 C 0.70155 0.22266 0.98544 0.0
H226 H 0.68215 0.21791 0.99105 0.0
H227 H 0.71573 0.26316 0.98722 0.0
H228 H 0.55369 0.78891 0.10164 0.0
C229 C 0.55382 0.77296 0.09385 0.0
C230 C 0.5722 0.76557 0.09977 0.0
C231 C 0.53485 0.75915 0.07853 0.0
H232 H 0.5857 0.73855 0.0946 0.0
C233 C 0.57176 0.7445 0.08989 0.0
C234 C 0.55282 0.73034 0.07465 0.0
C235 C 0.53452 0.73793 0.06896 0.0
C236 C 0.51379 0.7653 0.07395 0.0
H237 H 0.51942 0.72683 0.05756 0.0
C238 C 0.5199 0.79037 0.06842 0.0
C239 C 0.49958 0.79593 0.0642 0.0
C240 C 0.48724 0.74588 0.07548 0.0
H241 H 0.48209 0.72652 0.0799 0.0
C242 C 0.46709 0.75135 0.07178 0.0
H243 H 0.54039 0.80523 0.06684 0.0
C244 C 0.47313 0.77614 0.06625 0.0
H245 H 0.457 0.7798 0.06371 0.0
H246 H 0.44668 0.73633 0.07325 0.0
H247 H 0.23794 0.76636 0.09789 0.0
C248 C 0.25384 0.7827 0.08998 0.0
C249 C 0.26162 0.80774 0.0968 0.0
C250 C 0.26709 0.77864 0.07349 0.0
H251 H 0.28892 0.84815 0.09213 0.0
C252 C 0.28247 0.82885 0.08662 0.0
C253 C 0.29626 0.82514 0.07035 0.0
C254 C 0.28843 0.8 0.06388 0.0
C255 C 0.26004 0.75214 0.06719 0.0
H256 H 0.29899 0.79706 0.05131 0.0
C257 C 0.2336 0.73301 0.06332 0.0
C258 C 0.22757 0.70825 0.05666 0.0
C259 C 0.28016 0.74599 0.0649 0.0
H260 H 0.30055 0.76016 0.06806 0.0
C261 C 0.27421 0.72143 0.05879 0.0
H262 H 0.21798 0.73764 0.06477 0.0
C263 C 0.24819 0.70273 0.05464 0.0
H264 H 0.24418 0.68379 0.04996 0.0
H265 H 0.28986 0.71689 0.0572 0.0
H266 H 0.25923 0.4654 0.09381 0.0
C267 C 0.24291 0.46602 0.08642 0.0
C268 C 0.21711 0.45076 0.09426 0.0
C269 C 0.2478 0.48277 0.06955 0.0
H270 H 0.17632 0.44088 0.09103 0.0
C271 C 0.19611 0.45204 0.08477 0.0
C272 C 0.20055 0.46883 0.06815 0.0
C273 C 0.22641 0.4841 0.06064 0.0
C274 C 0.27534 0.50061 0.06231 0.0
H275 H 0.22985 0.49708 0.0478 0.0
C276 C 0.29386 0.49231 0.05859 0.0
C277 C 0.31945 0.50975 0.05095 0.0
C278 C 0.28314 0.52658 0.05897 0.0
H279 H 0.2697 0.53368 0.06208 0.0
C280 C 0.30842 0.54384 0.05189 0.0
H281 H 0.28814 0.47235 0.06097 0.0
C282 C 0.32637 0.53556 0.04785 0.0
H283 H 0.34593 0.54955 0.04248 0.0
H284 H 0.31415 0.56379 0.04951 0.0
H285 H 0.46772 0.87879 0.27545 0.0
C286 C 0.45117 0.87939 0.28245 0.0
C287 C 0.4409 0.89351 0.27279 0.0
C288 C 0.43974 0.86561 0.30082 0.0
H289 H 0.41024 0.90314 0.27302 0.0
C290 C 0.41871 0.89335 0.28138 0.0
C291 C 0.40687 0.87991 0.29986 0.0
C292 C 0.41806 0.86654 0.30962 0.0
C293 C 0.44873 0.8484 0.30999 0.0
H294 H 0.40989 0.85664 0.32413 0.0
C295 C 0.47581 0.85591 0.31202 0.0
C296 C 0.48338 0.83899 0.32096 0.0
C297 C 0.42957 0.82364 0.31652 0.0
H298 H 0.40871 0.81701 0.31475 0.0
C299 C 0.43694 0.80685 0.32499 0.0
H300 H 0.49082 0.87495 0.30719 0.0
C301 C 0.4635 0.81438 0.32721 0.0
H302 H 0.46849 0.80067 0.33361 0.0
H303 H 0.42193 0.78779 0.32978 0.0
H304 H 0.14997 0.58712 0.26591 0.0
C305 C 0.14933 0.57115 0.27428 0.0
C306 C 0.13154 0.5459 0.26802 0.0
C307 C 0.16674 0.5759 0.29088 0.0
H308 H 0.11793 0.50581 0.27325 0.0
C309 C 0.13109 0.52523 0.27858 0.0
C310 C 0.14865 0.52959 0.29504 0.0
C311 C 0.16623 0.55502 0.30119 0.0
C312 C 0.18647 0.60267 0.2967 0.0
H313 H 0.17956 0.55863 0.31407 0.0
C314 C 0.17915 0.62164 0.2989 0.0
C315 C 0.19816 0.64713 0.3039 0.0
C316 C 0.213 0.60948 0.29967 0.0
H317 H 0.21923 0.59537 0.29786 0.0
C318 C 0.23188 0.6347 0.30459 0.0
H319 H 0.15873 0.61657 0.29671 0.0
C320 C 0.22458 0.65344 0.30666 0.0
H321 H 0.23957 0.67281 0.31075 0.0
H322 H 0.25226 0.63976 0.3068 0.0
H323 H 0.43524 0.55437 0.26978 0.0
C324 C 0.45155 0.56946 0.27837 0.0
C325 C 0.47729 0.58109 0.27003 0.0
C326 C 0.44655 0.57867 0.29697 0.0
H327 H 0.51791 0.61062 0.27456 0.0
C328 C 0.4981 0.60146 0.28091 0.0
C329 C 0.49353 0.61097 0.29939 0.0
C330 C 0.46778 0.59922 0.30744 0.0
C331 C 0.41902 0.56926 0.30438 0.0
H332 H 0.46418 0.60646 0.32176 0.0
C333 C 0.39983 0.54281 0.30515 0.0
C334 C 0.37391 0.53486 0.31214 0.0
C335 C 0.41182 0.5874 0.31056 0.0
H336 H 0.42581 0.60781 0.30974 0.0
C337 C 0.38643 0.5796 0.31764 0.0
H338 H 0.40499 0.52859 0.30032 0.0
C339 C 0.36766 0.55361 0.31849 0.0
H340 H 0.34815 0.54815 0.32429 0.0
H341 H 0.38125 0.59379 0.32245 0.0
Eu342 Eu 0.49795 0.99499 0.99025 0.0
C343 C 0.55223 0.07459 0.06092 0.0
C344 C 0.59821 0.08643 0.05764 0.0
C345 C 0.58663 0.11761 0.07044 0.0
C346 C 0.57116 0.06829 0.05539 0.0
C347 C 0.55972 0.09908 0.06905 0.0
C348 C 0.60584 0.11131 0.0647 0.0
C349 C 0.5136 0.08426 0.07571 0.0
N350 N 0.52645 0.05619 0.05955 0.0
C351 C 0.50717 0.06024 0.06759 0.0
C352 C 0.53996 0.10391 0.07616 0.0
Eu353 Eu 0.51705 0.01644 0.04481 0.0
N354 N 0.56311 0.04403 0.04878 0.0
C355 C 0.58102 0.03608 0.04558 0.0
C356 C 0.61675 0.07881 0.05324 0.0
C357 C 0.60808 0.05341 0.0475 0.0
H358 H 0.48676 0.04509 0.06711 0.0
H359 H 0.62223 0.04719 0.04443 0.0
H360 H 0.62654 0.1256 0.06631 0.0
H361 H 0.49823 0.08763 0.08157 0.0
H362 H 0.57458 0.01657 0.04096 0.0
H363 H 0.39189 0.96077 0.98983 0.0
H364 H 0.63772 0.0922 0.05469 0.0
H365 H 0.53022 0.97005 0.96572 0.0
H366 H 0.43902 0.99235 0.9942 0.0
H367 H 0.52062 0.92954 0.94831 0.0
H368 H 0.59278 0.13664 0.07643 0.0
H369 H 0.37816 0.91675 0.97779 0.0
H370 H 0.3912 0.88537 0.96432 0.0
H371 H 0.5449 0.12248 0.08253 0.0
H372 H 0.4263 0.87686 0.95287 0.0
N373 N 0.45212 0.96632 0.98554 0.0
C374 C 0.43346 0.97326 0.98895 0.0
C375 C 0.39895 0.93052 0.97977 0.0
C376 C 0.41825 0.92406 0.97493 0.0
C377 C 0.40662 0.95537 0.9865 0.0
C378 C 0.44503 0.94267 0.97792 0.0
H379 H 0.47461 0.89347 0.94631 0.0
N380 N 0.49015 0.95675 0.97363 0.0
C381 C 0.50472 0.93153 0.95495 0.0
C382 C 0.46469 0.93776 0.97169 0.0
C383 C 0.51009 0.95442 0.96477 0.0
C384 C 0.47873 0.91118 0.95392 0.0
C385 C 0.45826 0.91428 0.96203 0.0
O386 O 0.51954 0.00984 0.96104 0.0
O387 O 0.52852 0.02332 0.01152 0.0
O388 O 0.51193 0.04689 0.02825 0.0
O389 O 0.48487 0.0234 1.00052 0.0
O390 O 0.5424 0.01123 0.98732 0.0
O391 O 0.48514 0.01331 0.96733 0.0
O392 O 0.49488 1.00237 0.0738 0.0
O393 O 0.48625 0.98766 0.02373 0.0
O394 O 0.50282 0.96408 1.00613 0.0
O395 O 0.5276 0.9857 0.03555 0.0
O396 O 0.4731 1.00137 0.04765 0.0
O397 O 0.53046 1.00039 0.0693 0.0
C398 C 0.54937 0.02669 1.00293 0.0
C399 C 0.49372 0.00815 0.9323 0.0
C400 C 0.49612 0.0174 0.89512 0.0
C401 C 0.50568 0.02511 0.91549 0.0
C402 C 0.47495 0.99239 0.89178 0.0
C403 C 0.47259 0.98335 0.92854 0.0
C404 C 0.46339 0.97549 0.90839 0.0
C405 C 0.49594 0.04403 0.01264 0.0
C406 C 0.50305 0.01648 0.95369 0.0
C407 C 0.43165 0.89515 0.96002 0.0
C408 C 0.41166 0.90001 0.96652 0.0
C409 C 0.46576 0.98534 0.03239 0.0
C410 C 0.5196 0.00572 0.10371 0.0
C411 C 0.50785 0.98861 0.12045 0.0
C412 C 0.51409 0.9975 0.14106 0.0
C413 C 0.53232 0.02353 0.14471 0.0
C414 C 0.53809 0.03154 0.10773 0.0
C415 C 0.54439 0.04036 0.12812 0.0
C416 C 0.5172 0.96577 0.02261 0.0
C417 C 0.51167 0.99679 0.0822 0.0
H418 H 0.52183 0.0444 0.91832 0.0
H419 H 0.46734 0.98592 0.87628 0.0
H420 H 0.46303 0.97012 0.94118 0.0
H421 H 0.44707 0.95631 0.90566 0.0
H422 H 0.49349 0.96863 0.11748 0.0
H423 H 0.53737 0.03076 0.16044 0.0
H424 H 0.54754 0.04491 0.09513 0.0
H425 H 0.55856 0.06036 0.13109 0.0
Eu426 Eu 0.02911 0.50116 0.99187 0.0
C427 C 0.94243 0.47193 0.0594 0.0
C428 C 0.92962 0.50441 0.0561 0.0
C429 C 0.89767 0.46154 0.06804 0.0
C430 C 0.94868 0.49667 0.05413 0.0
C431 C 0.91708 0.4543 0.06695 0.0
C432 C 0.90393 0.48654 0.06261 0.0
C433 C 0.93276 0.42462 0.07381 0.0
N434 N 0.9617 0.46564 0.05842 0.0
C435 C 0.95764 0.44282 0.0663 0.0
C436 C 0.91227 0.43023 0.07386 0.0
Eu437 Eu 1.00303 0.49721 0.04508 0.0
N438 N 0.97374 0.51353 0.04802 0.0
C439 C 0.98153 0.53883 0.045 0.0
C440 C 0.93713 0.53002 0.05194 0.0
C441 C 0.96329 0.54738 0.04665 0.0
H442 H 0.97346 0.43843 0.06619 0.0
H443 H 0.96941 0.56733 0.04373 0.0
H444 H 0.88895 0.49205 0.06399 0.0
H445 H 0.92941 0.40629 0.07954 0.0
H446 H 1.00163 0.5524 0.04077 0.0
H447 H 0.06194 0.43026 0.99465 0.0
H448 H 0.92305 0.53669 0.05317 0.0
H449 H 0.0579 0.55753 0.96736 0.0
H450 H 0.03012 0.44553 0.99696 0.0
H451 H 0.10153 0.58868 0.95266 0.0
H452 H 0.87798 0.44817 0.07359 0.0
H453 H 0.10835 0.46031 0.98498 0.0
H454 H 0.14254 0.5044 0.97309 0.0
H455 H 0.89304 0.41614 0.07977 0.0
H456 H 0.15343 0.54772 0.96171 0.0
N457 N 0.05819 0.48432 0.98935 0.0
C458 C 0.0502 0.45899 0.99268 0.0
C459 C 0.09443 0.4672 0.98599 0.0
C460 C 0.1021 0.49271 0.98125 0.0
C461 C 0.06825 0.45018 0.9914 0.0
C462 C 0.08323 0.50073 0.98295 0.0
H463 H 0.13811 0.57915 0.95362 0.0
N464 N 0.07015 0.53135 0.97715 0.0
C465 C 0.09847 0.57094 0.95951 0.0
C466 C 0.08942 0.52508 0.97668 0.0
C467 C 0.07383 0.5533 0.96779 0.0
C468 C 0.11909 0.56554 0.96015 0.0
C469 C 0.11455 0.54211 0.96839 0.0
O470 O 0.01684 0.50813 0.96162 0.0
O471 O 0.99806 0.50178 0.0114 0.0
O472 O 0.97273 0.46214 0.02751 0.0
O473 O 0.99893 0.45986 1.00121 0.0
O474 O 1.0117 0.52738 0.98711 0.0
O475 O 1.01205 0.47079 0.96853 0.0
O476 O 0.01578 0.48946 0.07475 0.0
O477 O 0.03487 0.49741 0.02574 0.0
O478 O 0.05832 0.53801 0.00798 0.0
O479 O 0.03447 0.53868 0.03711 0.0
O480 O 0.01943 0.4703 0.04916 0.0
O481 O 0.01691 0.52569 0.07003 0.0
C482 C 0.9949 0.51856 1.00215 0.0
C483 C 0.02094 0.48501 0.93373 0.0
C484 C 0.01547 0.48187 0.89603 0.0
C485 C 1.00582 0.48234 0.916 0.0
C486 C 0.04064 0.48436 0.89415 0.0
C487 C 0.04592 0.48738 0.93149 0.0
C488 C 0.05572 0.48713 0.91179 0.0
C489 C 0.97687 0.44968 0.01236 0.0
C490 C 1.01049 0.48552 0.95439 0.0
C491 C 0.1339 0.53478 0.96778 0.0
C492 C 0.12769 0.51011 0.97424 0.0
C493 C 0.03716 0.47997 0.03481 0.0
C494 C 1.00937 0.50889 0.10419 0.0
C495 C 0.02588 0.51405 0.12149 0.0
C496 C 0.01555 0.51051 0.14174 0.0
C497 C 0.98855 0.50189 0.14447 0.0
C498 C 0.98257 0.50077 0.10722 0.0
C499 C 0.97223 0.49725 0.12727 0.0
C500 C 0.05501 0.54963 0.02427 0.0
C501 C 0.02015 0.51096 0.08319 0.0
H502 H 0.98664 0.4808 0.91779 0.0
H503 H 0.04849 0.48366 0.87908 0.0
H504 H 0.05778 0.48927 0.94492 0.0
H505 H 0.07498 0.48887 0.91018 0.0
H506 H 0.0466 0.52027 0.11922 0.0
H507 H 0.98019 0.49909 0.15992 0.0
H508 H 0.96963 0.49702 0.09415 0.0
H509 H 0.9515 0.49084 0.12949 0.0
Eu510 Eu 0.53423 0.51254 0.04274 0.0
C511 C 0.47942 0.54214 0.97431 0.0
C512 C 0.43333 0.50932 0.97677 0.0
C513 C 0.44531 0.55244 0.96558 0.0
C514 C 0.46032 0.51722 0.97906 0.0
C515 C 0.47216 0.55986 0.96698 0.0
C516 C 0.42592 0.52723 0.97048 0.0
C517 C 0.51842 0.59005 0.9611 0.0
N518 N 0.50516 0.54858 0.97563 0.0
C519 C 0.52461 0.57175 0.96835 0.0
C520 C 0.4921 0.58421 0.96068 0.0
Eu521 Eu 0.51415 0.51702 0.98896 0.0
N522 N 0.46816 0.50038 0.98499 0.0
C523 C 0.45009 0.47494 0.98749 0.0
C524 C 0.41463 0.48354 0.98041 0.0
C525 C 0.42309 0.46621 0.9855 0.0
H526 H 0.54499 0.57633 0.96878 0.0
H527 H 0.40881 0.44614 0.98801 0.0
H528 H 0.40528 0.52159 0.96888 0.0
H529 H 0.53393 0.60863 0.95585 0.0
H530 H 0.45636 0.46139 0.99158 0.0
H531 H 0.63969 0.5831 0.04554 0.0
H532 H 0.3937 0.47674 0.97892 0.0
H533 H 0.50245 0.45249 0.06127 0.0
H534 H 0.59243 0.56812 0.04086 0.0
H535 H 0.5129 0.41988 0.07448 0.0
H536 H 0.43932 0.56587 0.9602 0.0
H537 H 0.65424 0.55239 0.05562 0.0
H538 H 0.64211 0.50747 0.06593 0.0
H539 H 0.48734 0.59838 0.95497 0.0
H540 H 0.60766 0.46309 0.0738 0.0
N541 N 0.58008 0.52904 0.04769 0.0
C542 C 0.59836 0.55444 0.04531 0.0
C543 C 0.63339 0.54565 0.05358 0.0
C544 C 0.61448 0.51989 0.05703 0.0
C545 C 0.62525 0.56306 0.04794 0.0
C546 C 0.58761 0.5121 0.05404 0.0
H547 H 0.55945 0.43035 0.07727 0.0
N548 N 0.54263 0.4807 0.05625 0.0
C549 C 0.52866 0.4387 0.06995 0.0
C550 C 0.56828 0.48716 0.05846 0.0
C551 C 0.52281 0.45718 0.06255 0.0
C552 C 0.55496 0.44466 0.07146 0.0
C553 C 0.57518 0.46926 0.06598 0.0
O554 O 0.51347 0.5038 0.07251 0.0
O555 O 0.50296 0.51146 0.0224 0.0
O556 O 0.51848 0.55132 1.00687 0.0
O557 O 0.54658 0.55387 0.03366 0.0
O558 O 0.48985 0.48507 0.04603 0.0
O559 O 0.54633 0.54198 0.06677 0.0
O560 O 0.53571 0.52519 0.95964 0.0
O561 O 0.54565 0.51829 0.00926 0.0
O562 O 0.53188 0.47962 0.02433 0.0
O563 O 0.50313 0.47564 0.99762 0.0
O564 O 0.55826 0.54476 0.98555 0.0
O565 O 0.50032 0.48844 0.96405 0.0
C566 C 0.48238 0.4941 0.03098 0.0
C567 C 0.53903 0.52699 0.10143 0.0
C568 C 0.53755 0.53366 0.13876 0.0
C569 C 0.52765 0.53242 0.11857 0.0
C570 C 0.55861 0.52893 0.14154 0.0
C571 C 0.56 0.52234 0.10462 0.0
C572 C 0.56965 0.52322 0.12458 0.0
C573 C 0.53486 0.56376 0.02233 0.0
C574 C 0.5291 0.52647 0.08032 0.0
C575 C 0.60195 0.47663 0.06822 0.0
C576 C 0.62156 0.5019 0.06374 0.0
C577 C 0.56603 0.53599 1.0006 0.0
C578 C 0.51017 0.50539 0.92991 0.0
C579 C 0.52119 0.4999 0.91259 0.0
C580 C 0.51431 0.50305 0.89219 0.0
C581 C 0.49623 0.5119 0.88965 0.0
C582 C 0.49181 0.5136 0.92687 0.0
C583 C 0.48496 0.51689 0.90685 0.0
C584 C 0.51591 0.46671 0.00883 0.0
C585 C 0.51871 0.50351 0.95104 0.0
H586 H 0.51158 0.53624 0.11614 0.0
H587 H 0.56648 0.52954 0.1569 0.0
H588 H 0.56901 0.51818 0.0917 0.0
H589 H 0.58585 0.5196 0.12689 0.0
H590 H 0.53497 0.49307 0.9151 0.0
H591 H 0.49097 0.51537 0.87436 0.0
H592 H 0.48292 0.51764 0.93992 0.0
H593 H 0.47103 0.52358 0.90466 0.0
Eu594 Eu 0.16344 0.32801 0.32263 0.0
C595 C 0.22216 0.40794 0.39339 0.0
C596 C 0.26761 0.41844 0.38922 0.0
C597 C 0.25772 0.45044 0.40284 0.0
C598 C 0.24033 0.40095 0.38728 0.0
C599 C 0.2306 0.43256 0.40169 0.0
C600 C 0.27621 0.4434 0.39659 0.0
C601 C 0.18489 0.4193 0.40857 0.0
N602 N 0.19617 0.39019 0.39215 0.0
C603 C 0.17753 0.39512 0.40027 0.0
C604 C 0.21153 0.43823 0.40905 0.0
Eu605 Eu 0.1849 0.35016 0.37687 0.0
N606 N 0.23133 0.37665 0.38032 0.0
C607 C 0.24857 0.36801 0.37651 0.0
C608 C 0.28541 0.41011 0.38418 0.0
C609 C 0.27581 0.38466 0.37811 0.0
H610 H 0.15689 0.38056 0.39973 0.0
H611 H 0.28939 0.37788 0.37456 0.0
H612 H 0.29708 0.45718 0.39799 0.0
H613 H 0.17002 0.42333 0.41454 0.0
H614 H 0.24156 0.34849 0.37168 0.0
H615 H 0.05834 0.29774 0.32183 0.0
H616 H 0.30652 0.42297 0.38538 0.0
H617 H 0.19391 0.29844 0.30229 0.0
H618 H 0.10588 0.32809 0.32589 0.0
H619 H 0.18244 0.25567 0.28835 0.0
H620 H 0.26461 0.46955 0.40898 0.0
H621 H 0.04282 0.25284 0.31127 0.0
H622 H 0.05395 0.21932 0.29995 0.0
H623 H 0.2172 0.45693 0.41553 0.0
H624 H 0.08768 0.20785 0.29084 0.0
N625 N 0.11739 0.3006 0.31824 0.0
C626 C 0.09951 0.30863 0.32122 0.0
C627 C 0.06378 0.2661 0.31303 0.0
C628 C 0.08228 0.25835 0.30894 0.0
C629 C 0.07247 0.29144 0.31895 0.0
C630 C 0.10932 0.27633 0.31159 0.0
H631 H 0.13562 0.22136 0.28622 0.0
N632 N 0.15406 0.28802 0.30837 0.0
C633 C 0.16701 0.25937 0.29348 0.0
C634 C 0.12824 0.26984 0.3065 0.0
C635 C 0.17344 0.28353 0.30129 0.0
C636 C 0.14056 0.24004 0.29235 0.0
C637 C 0.12076 0.24525 0.29859 0.0
O638 O 0.1838 0.33992 0.29269 0.0
O639 O 0.19504 0.35637 0.34328 0.0
O640 O 0.17975 0.38077 0.36051 0.0
O641 O 0.15216 0.35777 0.33277 0.0
O642 O 0.2077 0.34342 0.31884 0.0
O643 O 0.15122 0.34629 0.2992 0.0
O644 O 0.16574 0.33923 0.40738 0.0
O645 O 0.15275 0.32241 0.35625 0.0
O646 O 0.16552 0.29651 0.33999 0.0
O647 O 0.19527 0.31969 0.36638 0.0
O648 O 0.14112 0.33605 0.38101 0.0
O649 O 0.19499 0.32885 0.39893 0.0
C650 C 0.21543 0.35919 0.33427 0.0
C651 C 0.15769 0.33859 0.26423 0.0
C652 C 0.15819 0.34644 0.22685 0.0
C653 C 0.16859 0.355 0.24694 0.0
C654 C 0.13716 0.32114 0.22438 0.0
C655 C 0.13666 0.31355 0.26127 0.0
C656 C 0.12655 0.30487 0.24146 0.0
C657 C 0.16367 0.37825 0.34504 0.0
C658 C 0.16814 0.34761 0.2853 0.0
C659 C 0.09384 0.22693 0.29671 0.0
C660 C 0.07464 0.23347 0.30188 0.0
C661 C 0.13279 0.32053 0.36541 0.0
C662 C 0.19117 0.33597 0.43454 0.0
C663 C 0.17793 0.32001 0.45162 0.0
C664 C 0.18957 0.32583 0.47153 0.0
C665 C 0.21438 0.34802 0.4741 0.0
C666 C 0.21578 0.35812 0.43755 0.0
C667 C 0.22726 0.36409 0.45724 0.0
C668 C 0.18183 0.29858 0.35505 0.0
C669 C 0.1796 0.32895 0.41358 0.0
H670 H 0.18471 0.37446 0.24919 0.0
H671 H 0.12899 0.31384 0.20915 0.0
H672 H 0.12798 0.30071 0.27426 0.0
H673 H 0.11037 0.28546 0.23935 0.0
H674 H 0.15894 0.30282 0.44935 0.0
H675 H 0.22368 0.35309 0.48924 0.0
H676 H 0.22624 0.37066 0.42466 0.0
H677 H 0.2463 0.38119 0.45944 0.0
Eu678 Eu 0.69587 0.8339 0.32428 0.0
C679 C 0.61012 0.80695 0.39274 0.0
C680 C 0.59678 0.83895 0.38879 0.0
C681 C 0.56555 0.79656 0.4021 0.0
C682 C 0.61591 0.83132 0.38676 0.0
C683 C 0.58509 0.7895 0.40097 0.0
C684 C 0.57139 0.82125 0.39603 0.0
C685 C 0.60142 0.76046 0.40836 0.0
N686 N 0.62956 0.80091 0.39179 0.0
C687 C 0.62597 0.77849 0.4002 0.0
C688 C 0.58076 0.76583 0.40848 0.0
Eu689 Eu 0.6704 0.83212 0.37741 0.0
N690 N 0.64072 0.84804 0.38006 0.0
C691 C 0.6482 0.87317 0.37645 0.0
C692 C 0.60395 0.86434 0.38403 0.0
C693 C 0.62988 0.88161 0.37809 0.0
H694 H 0.64189 0.77426 0.40006 0.0
H695 H 0.63575 0.9014 0.37471 0.0
H696 H 0.55636 0.82668 0.3975 0.0
H697 H 0.59845 0.74245 0.41454 0.0
H698 H 0.66815 0.88669 0.37178 0.0
H699 H 0.73005 0.76418 0.32619 0.0
H700 H 0.5898 0.87093 0.38529 0.0
H701 H 0.72518 0.89259 0.30311 0.0
H702 H 0.69769 0.7789 0.32903 0.0
H703 H 0.76906 0.92474 0.28948 0.0
H704 H 0.54612 0.78333 0.40818 0.0
H705 H 0.77624 0.79481 0.31632 0.0
H706 H 0.81004 0.83932 0.30496 0.0
H707 H 0.5618 0.75189 0.41492 0.0
H708 H 0.82068 0.88301 0.29497 0.0
N709 N 0.72535 0.81775 0.32144 0.0
C710 C 0.71773 0.79251 0.32468 0.0
C711 C 0.76211 0.80142 0.31756 0.0
C712 C 0.76945 0.82694 0.31315 0.0
C713 C 0.73604 0.78406 0.32309 0.0
C714 C 0.75032 0.83459 0.31513 0.0
H715 H 0.80543 0.9149 0.28885 0.0
N716 N 0.737 0.86534 0.31054 0.0
C717 C 0.76578 0.90641 0.29514 0.0
C718 C 0.75633 0.85914 0.30949 0.0
C719 C 0.74099 0.88819 0.30279 0.0
C720 C 0.78627 0.9008 0.29486 0.0
C721 C 0.78159 0.87678 0.30177 0.0
O722 O 0.68434 0.84073 0.29371 0.0
O723 O 0.66515 0.83547 0.34355 0.0
O724 O 0.63998 0.79632 0.36062 0.0
O725 O 0.6656 0.79291 0.33428 0.0
O726 O 0.67876 0.8603 0.31879 0.0
O727 O 0.67947 0.8034 0.30102 0.0
O728 O 0.68414 0.82644 0.40742 0.0
O729 O 0.70105 0.83026 0.35815 0.0
O730 O 0.72661 0.8684 0.34178 0.0
O731 O 0.70116 0.87323 0.36738 0.0
O732 O 0.68669 0.80521 0.38286 0.0
O733 O 0.68569 0.8625 0.40085 0.0
C734 C 0.66205 0.85201 0.33389 0.0
C735 C 0.68916 0.81755 0.26618 0.0
C736 C 0.6845 0.81346 0.22846 0.0
C737 C 0.67418 0.81391 0.24815 0.0
C738 C 0.7102 0.81712 0.22713 0.0
C739 C 0.71459 0.82089 0.26446 0.0
C740 C 0.72508 0.82079 0.24504 0.0
C741 C 0.64378 0.78326 0.34573 0.0
C742 C 0.67818 0.81807 0.28664 0.0
C743 C 0.80107 0.86965 0.30067 0.0
C744 C 0.79501 0.84477 0.30636 0.0
C745 C 0.70348 0.81329 0.3678 0.0
C746 C 0.67841 0.84798 0.43567 0.0
C747 C 0.69462 0.85285 0.45313 0.0
C748 C 0.68429 0.85059 0.47326 0.0
C749 C 0.65765 0.84358 0.47574 0.0
C750 C 0.65197 0.84145 0.43844 0.0
C751 C 0.64167 0.83924 0.45838 0.0
C752 C 0.72325 0.88205 0.35635 0.0
C753 C 0.68893 0.84856 0.4148 0.0
H754 H 0.65437 0.81096 0.24951 0.0
H755 H 0.71886 0.81729 0.21222 0.0
H756 H 0.72634 0.82348 0.27808 0.0
H757 H 0.74479 0.82352 0.24386 0.0
H758 H 0.71505 0.85782 0.45109 0.0
H759 H 0.64932 0.84175 0.4911 0.0
H760 H 0.63928 0.83794 0.42525 0.0
H761 H 0.62121 0.83404 0.46038 0.0
Eu762 Eu 0.19891 0.84331 0.3769 0.0
C763 C 0.14811 0.87888 0.30938 0.0
C764 C 0.10178 0.84649 0.31071 0.0
C765 C 0.11474 0.89033 0.30099 0.0
C766 C 0.1286 0.85384 0.31325 0.0
C767 C 0.14145 0.89726 0.30266 0.0
C768 C 0.09494 0.865 0.30505 0.0
C769 C 0.188 0.92721 0.29788 0.0
N770 N 0.17369 0.88488 0.31097 0.0
C771 C 0.1936 0.90829 0.30454 0.0
C772 C 0.16182 0.92179 0.29721 0.0
Eu773 Eu 0.18163 0.8522 0.32316 0.0
N774 N 0.13589 0.83639 0.31855 0.0
C775 C 0.11746 0.81093 0.32009 0.0
C776 C 0.08268 0.82063 0.31343 0.0
C777 C 0.0906 0.80272 0.31783 0.0
H778 H 0.21386 0.91253 0.30517 0.0
H779 H 0.07602 0.7826 0.3196 0.0
H780 H 0.07443 0.85977 0.30324 0.0
H781 H 0.20385 0.94595 0.29329 0.0
H782 H 0.12331 0.79693 0.32366 0.0
H783 H 0.30429 0.91408 0.38207 0.0
H784 H 0.06186 0.81422 0.31171 0.0
H785 H 0.16813 0.78468 0.39784 0.0
H786 H 0.257 0.89927 0.37816 0.0
H787 H 0.17868 0.75181 0.41027 0.0
H788 H 0.10921 0.90425 0.29608 0.0
H789 H 0.3192 0.88267 0.38816 0.0
H790 H 0.30731 0.83705 0.39555 0.0
H791 H 0.15752 0.93646 0.29197 0.0
H792 H 0.27293 0.79262 0.4034 0.0
N793 N 0.24491 0.85962 0.38148 0.0
C794 C 0.26303 0.88526 0.38091 0.0
C795 C 0.29833 0.87601 0.38646 0.0
C796 C 0.27954 0.84997 0.38855 0.0
C797 C 0.28998 0.8938 0.38312 0.0
C798 C 0.25261 0.84233 0.38616 0.0
H799 H 0.22487 0.76083 0.40956 0.0
N800 N 0.2078 0.81151 0.3898 0.0
C801 C 0.19425 0.77012 0.40461 0.0
C802 C 0.23338 0.81741 0.39049 0.0
C803 C 0.18835 0.78876 0.39766 0.0
C804 C 0.22033 0.77524 0.40408 0.0
C805 C 0.24038 0.79934 0.39742 0.0
O806 O 0.17725 0.83319 0.40633 0.0
O807 O 0.16898 0.84433 0.35625 0.0
O808 O 0.18572 0.88541 0.34229 0.0
O809 O 0.21172 0.88538 0.3698 0.0
O810 O 0.15434 0.8165 0.37881 0.0
O811 O 0.2103 0.87144 0.40194 0.0
O812 O 0.20474 0.86228 0.2945 0.0
O813 O 0.21163 0.85076 0.34367 0.0
O814 O 0.19266 0.80861 0.35853 0.0
O815 O 0.16992 0.81027 0.32909 0.0
O816 O 0.22584 0.8798 0.32183 0.0
O817 O 0.16852 0.82578 0.29674 0.0
C818 C 0.14784 0.82671 0.36401 0.0
C819 C 0.20246 0.85452 0.43592 0.0
C820 C 0.20152 0.85999 0.47351 0.0
C821 C 0.19184 0.86012 0.45347 0.0
C822 C 0.2216 0.85371 0.47567 0.0
C823 C 0.22253 0.84845 0.4385 0.0
C824 C 0.23195 0.84795 0.45828 0.0
C825 C 0.20119 0.89648 0.35849 0.0
C826 C 0.19279 0.85531 0.41498 0.0
C827 C 0.26715 0.80633 0.39841 0.0
C828 C 0.28672 0.83163 0.39394 0.0
C829 C 0.23249 0.86923 0.33625 0.0
C830 C 0.18096 0.8451 0.26352 0.0
C831 C 0.19206 0.83947 0.24632 0.0
C832 C 0.18679 0.84435 0.22599 0.0
C833 C 0.17012 0.8547 0.22311 0.0
C834 C 0.16404 0.85502 0.26026 0.0
C835 C 0.1587 0.85981 0.24016 0.0
C836 C 0.17882 0.7985 0.34135 0.0
C837 C 0.18792 0.84147 0.28473 0.0
H838 H 0.17652 0.8651 0.45148 0.0
H839 H 0.22922 0.85309 0.49086 0.0
H840 H 0.23102 0.84423 0.42525 0.0
H841 H 0.24741 0.84318 0.46013 0.0
H842 H 0.20519 0.83184 0.24875 0.0
H843 H 0.16567 0.85853 0.20763 0.0
H844 H 0.15508 0.85918 0.27322 0.0
H845 H 0.14571 0.86759 0.23779 0.0
Eu846 Eu 0.83187 0.66386 0.65788 0.0
C847 C 0.88586 0.74543 0.72748 0.0
C848 C 0.93195 0.75754 0.72449 0.0
C849 C 0.92 0.78876 0.73651 0.0
C850 C 0.90494 0.73919 0.72231 0.0
C851 C 0.89315 0.77006 0.73519 0.0
C852 C 0.93937 0.78253 0.73113 0.0
C853 C 0.84694 0.75509 0.74159 0.0
N854 N 0.86012 0.72687 0.7262 0.0
C855 C 0.84072 0.73093 0.73392 0.0
C856 C 0.87324 0.77487 0.74195 0.0
Eu857 Eu 0.8511 0.68686 0.71224 0.0
N858 N 0.8971 0.71483 0.71608 0.0
C859 C 0.91517 0.70703 0.71321 0.0
C860 C 0.95064 0.75003 0.72042 0.0
C861 C 0.94219 0.72456 0.71507 0.0
H862 H 0.82036 0.71566 0.73353 0.0
H863 H 0.95647 0.71844 0.71226 0.0
H864 H 0.96002 0.79696 0.73268 0.0
H865 H 0.83146 0.75845 0.7472 0.0
H866 H 0.90891 0.68746 0.70889 0.0
H867 H 0.72584 0.63028 0.65778 0.0
H868 H 0.97158 0.76357 0.72183 0.0
H869 H 0.86318 0.63801 0.63337 0.0
H870 H 0.77302 0.66171 0.66159 0.0
H871 H 0.85309 0.59678 0.61701 0.0
H872 H 0.926 0.80789 0.74217 0.0
H873 H 0.71163 0.58579 0.64682 0.0
H874 H 0.72417 0.5537 0.63426 0.0
H875 H 0.87803 0.79355 0.74797 0.0
H876 H 0.7589 0.5445 0.62311 0.0
N877 N 0.78584 0.63524 0.65363 0.0
C878 C 0.76732 0.64245 0.65678 0.0
C879 C 0.73248 0.59952 0.64854 0.0
C880 C 0.75158 0.59271 0.64395 0.0
C881 C 0.74042 0.62463 0.65465 0.0
C882 C 0.77844 0.61129 0.64657 0.0
H883 H 0.80704 0.56066 0.61613 0.0
N884 N 0.82338 0.625 0.64196 0.0
C885 C 0.83738 0.59904 0.6237 0.0
C886 C 0.79788 0.606 0.64052 0.0
C887 C 0.84302 0.62234 0.6329 0.0
C888 C 0.81138 0.57867 0.62331 0.0
C889 C 0.79115 0.58216 0.6314 0.0
O890 O 0.85318 0.67781 0.62845 0.0
O891 O 0.86235 0.69283 0.67887 0.0
O892 O 0.84563 0.71673 0.69502 0.0
O893 O 0.81856 0.69224 0.66766 0.0
O894 O 0.87634 0.68048 0.65487 0.0
O895 O 0.81931 0.68211 0.63468 0.0
O896 O 0.82892 0.67335 0.74129 0.0
O897 O 0.82049 0.65725 0.69148 0.0
O898 O 0.83866 0.63422 0.674 0.0
O899 O 0.86206 0.65624 0.70389 0.0
O900 O 0.80708 0.67133 0.71498 0.0
O901 O 0.86479 0.67178 0.7373 0.0
C902 C 0.88324 0.6962 0.67031 0.0
C903 C 0.82727 0.67603 0.59972 0.0
C904 C 0.82857 0.68476 0.56248 0.0
C905 C 0.83847 0.69288 0.58273 0.0
C906 C 0.8078 0.65945 0.55948 0.0
C907 C 0.80651 0.65095 0.59628 0.0
C908 C 0.79696 0.6427 0.57627 0.0
C909 C 0.82944 0.71318 0.6794 0.0
C910 C 0.83695 0.68472 0.621 0.0
C911 C 0.76447 0.56306 0.62983 0.0
C912 C 0.7447 0.56832 0.63615 0.0
C913 C 0.79993 0.65487 0.70004 0.0
C914 C 0.8535 0.67746 0.7715 0.0
C915 C 0.84228 0.66039 0.78834 0.0
C916 C 0.84819 0.66953 0.80892 0.0
C917 C 0.86561 0.6958 0.81242 0.0
C918 C 0.87117 0.70353 0.77538 0.0
C919 C 0.87717 0.71261 0.79573 0.0
C920 C 0.85287 0.63653 0.69076 0.0
C921 C 0.84584 0.66818 0.75002 0.0
H922 H 0.85434 0.71238 0.58534 0.0
H923 H 0.79996 0.6526 0.54409 0.0
H924 H 0.79754 0.6378 0.60907 0.0
H925 H 0.78095 0.62329 0.57378 0.0
H926 H 0.82854 0.64022 0.78547 0.0
H927 H 0.87043 0.70325 0.82811 0.0
H928 H 0.8802 0.71688 0.76271 0.0
H929 H 0.89071 0.73279 0.79859 0.0
Eu930 Eu 0.36408 0.16995 0.65732 0.0
C931 C 0.27655 0.13992 0.72442 0.0
C932 C 0.26377 0.17241 0.72118 0.0
C933 C 0.23165 0.12938 0.73267 0.0
C934 C 0.28284 0.16468 0.71929 0.0
C935 C 0.25108 0.12217 0.73171 0.0
C936 C 0.23797 0.15445 0.72739 0.0
C937 C 0.26671 0.09244 0.73849 0.0
N938 N 0.29586 0.1337 0.72354 0.0
C939 C 0.29168 0.11075 0.73123 0.0
C940 C 0.2462 0.09803 0.73846 0.0
Eu941 Eu 0.33732 0.16529 0.71036 0.0
N942 N 0.30801 0.1816 0.7135 0.0
C943 C 0.31591 0.20699 0.71085 0.0
C944 C 0.2714 0.19811 0.7173 0.0
C945 C 0.29769 0.21555 0.71244 0.0
H946 H 0.30749 0.10635 0.73116 0.0
H947 H 0.30391 0.23557 0.70979 0.0
H948 H 0.22297 0.15994 0.72869 0.0
H949 H 0.26329 0.07403 0.74408 0.0
H950 H 0.33613 0.22062 0.70695 0.0
H951 H 0.39677 0.09906 0.65639 0.0
H952 H 0.25732 0.2048 0.71849 0.0
H953 H 0.395 0.23003 0.63877 0.0
H954 H 0.36477 0.11415 0.65956 0.0
H955 H 0.4397 0.2627 0.62698 0.0
H956 H 0.21188 0.11593 0.73802 0.0
H957 H 0.44352 0.12986 0.64821 0.0
H958 H 0.47826 0.17493 0.63904 0.0
H959 H 0.2269 0.08385 0.74417 0.0
H960 H 0.48996 0.21945 0.63103 0.0
N961 N 0.3931 0.15334 0.65371 0.0
C962 C 0.38503 0.12785 0.6559 0.0
C963 C 0.42953 0.13663 0.64955 0.0
C964 C 0.43738 0.16249 0.64623 0.0
C965 C 0.40315 0.11918 0.65413 0.0
C966 C 0.41841 0.17033 0.64831 0.0
H967 H 0.47564 0.25225 0.6262 0.0
N968 N 0.40592 0.20184 0.64501 0.0
C969 C 0.43586 0.24387 0.63176 0.0
C970 C 0.42503 0.19536 0.64382 0.0
C971 C 0.41061 0.22536 0.63835 0.0
C972 C 0.45611 0.23791 0.63139 0.0
C973 C 0.45074 0.21329 0.63714 0.0
O974 O 0.35361 0.17902 0.62719 0.0
O975 O 0.33303 0.17076 0.67672 0.0
O976 O 0.30713 0.1305 0.69238 0.0
O977 O 0.33319 0.12851 0.66569 0.0
O978 O 0.3479 0.19733 0.65319 0.0
O979 O 0.34794 0.14102 0.6328 0.0
O980 O 0.35023 0.1577 0.74002 0.0
O981 O 0.36816 0.16409 0.69093 0.0
O982 O 0.3947 0.20288 0.67622 0.0
O983 O 0.36888 0.20684 0.70197 0.0
O984 O 0.35295 0.13763 0.71461 0.0
O985 O 0.35212 0.1942 0.735 0.0
C986 C 0.33062 0.18818 0.66787 0.0
C987 C 0.35835 0.15724 0.59858 0.0
C988 C 0.35335 0.15329 0.56089 0.0
C989 C 0.34289 0.15281 0.58071 0.0
C990 C 0.37963 0.15863 0.55926 0.0
C991 C 0.3844 0.16232 0.59659 0.0
C992 C 0.39499 0.1631 0.57702 0.0
C993 C 0.31119 0.11826 0.67695 0.0
C994 C 0.34717 0.15671 0.61916 0.0
C995 C 0.47001 0.20588 0.63593 0.0
C996 C 0.46335 0.18053 0.64048 0.0
C997 C 0.37012 0.1464 0.69981 0.0
C998 C 0.34442 0.17779 0.76927 0.0
C999 C 0.36089 0.18295 0.78661 0.0
C1000 C 0.35055 0.17968 0.80682 0.0
C1001 C 0.32363 0.1714 0.80951 0.0
C1002 C 0.31768 0.16995 0.77224 0.0
C1003 C 0.30736 0.16678 0.79228 0.0
C1004 C 0.3913 0.21585 0.69134 0.0
C1005 C 0.35509 0.17943 0.74828 0.0
H1006 H 0.32263 0.14855 0.5823 0.0
H1007 H 0.38838 0.1595 0.54423 0.0
H1008 H 0.39653 0.16564 0.6101 0.0
H1009 H 0.41516 0.16714 0.57561 0.0
H1010 H 0.38156 0.18889 0.78438 0.0
H1011 H 0.31527 0.16877 0.82495 0.0
H1012 H 0.30476 0.16613 0.75913 0.0
H1013 H 0.28667 0.16058 0.79445 0.0
Eu1014 Eu 0.86753 0.1798 0.71095 0.0
C1015 C 0.81237 0.20974 0.64287 0.0
C1016 C 0.76642 0.17666 0.64553 0.0
C1017 C 0.77793 0.21969 0.63442 0.0
C1018 C 0.79348 0.18478 0.64767 0.0
C1019 C 0.80485 0.22731 0.63566 0.0
C1020 C 0.75874 0.19441 0.63938 0.0
C1021 C 0.85099 0.25778 0.6296 0.0
N1022 N 0.83817 0.21637 0.64405 0.0
C1023 C 0.85744 0.23963 0.63677 0.0
C1024 C 0.8246 0.25173 0.62931 0.0
Eu1025 Eu 0.84765 0.1851 0.65726 0.0
N1026 N 0.80158 0.16808 0.65341 0.0
C1027 C 0.78373 0.14257 0.65579 0.0
C1028 C 0.74793 0.1508 0.64912 0.0
C1029 C 0.75665 0.13361 0.65395 0.0
H1030 H 0.87787 0.24439 0.63711 0.0
H1031 H 0.74254 0.11348 0.65638 0.0
H1032 H 0.73804 0.18861 0.63788 0.0
H1033 H 0.86636 0.27642 0.62433 0.0
H1034 H 0.7902 0.12913 0.65968 0.0
H1035 H 0.97248 0.25158 0.71519 0.0
H1036 H 0.72695 0.14382 0.64774 0.0
H1037 H 0.83677 0.11925 0.72853 0.0
H1038 H 0.92497 0.23608 0.71117 0.0
H1039 H 0.84805 0.08649 0.73983 0.0
H1040 H 0.77175 0.23299 0.62913 0.0
H1041 H 0.98793 0.22077 0.72229 0.0
H1042 H 0.97668 0.17542 0.73009 0.0
H1043 H 0.81964 0.26579 0.62367 0.0
H1044 H 0.94281 0.13051 0.737 0.0
N1045 N 0.91348 0.19675 0.71557 0.0
C1046 C 0.93134 0.2224 0.7144 0.0
C1047 C 0.967 0.21384 0.72058 0.0
C1048 C 0.94846 0.18775 0.72298 0.0
C1049 C 0.95835 0.23129 0.71665 0.0
C1050 C 0.92147 0.17973 0.72054 0.0
H1051 H 0.8948 0.09728 0.74104 0.0
N1052 N 0.87668 0.14788 0.72309 0.0
C1053 C 0.86354 0.10552 0.73549 0.0
C1054 C 0.90247 0.15452 0.72451 0.0
C1055 C 0.85722 0.12408 0.72919 0.0
C1056 C 0.88995 0.11167 0.7361 0.0
C1057 C 0.90984 0.13654 0.73088 0.0
O1058 O 0.84674 0.16963 0.74071 0.0
O1059 O 0.83627 0.17879 0.69066 0.0
O1060 O 0.85171 0.21909 0.6754 0.0
O1061 O 0.87883 0.22123 0.70294 0.0
O1062 O 0.82318 0.15185 0.71384 0.0
O1063 O 0.87936 0.20817 0.73584 0.0
O1064 O 0.86946 0.19371 0.62803 0.0
O1065 O 0.87922 0.18681 0.67762 0.0
O1066 O 0.86638 0.148 0.69172 0.0
O1067 O 0.83712 0.14372 0.6654 0.0
O1068 O 0.89169 0.21365 0.65425 0.0
O1069 O 0.83433 0.1567 0.63224 0.0
C1070 C 0.81568 0.16112 0.69899 0.0
C1071 C 0.87231 0.19157 0.76998 0.0
C1072 C 0.87108 0.19644 0.80763 0.0
C1073 C 0.86127 0.19649 0.78762 0.0
C1074 C 0.89175 0.19098 0.80966 0.0
C1075 C 0.89296 0.18628 0.77244 0.0
C1076 C 0.90254 0.18592 0.79218 0.0
C1077 C 0.86744 0.23122 0.69128 0.0
C1078 C 0.86225 0.19197 0.74911 0.0
C1079 C 0.93673 0.14411 0.73234 0.0
C1080 C 0.95601 0.16968 0.72838 0.0
C1081 C 0.89952 0.20506 0.66939 0.0
C1082 C 0.84415 0.17389 0.59822 0.0
C1083 C 0.85584 0.16926 0.58089 0.0
C1084 C 0.84911 0.17278 0.56064 0.0
C1085 C 0.83043 0.18074 0.55794 0.0
C1086 C 0.82521 0.1814 0.59517 0.0
C1087 C 0.81842 0.18482 0.57513 0.0
C1088 C 0.85045 0.13509 0.67622 0.0
C1089 C 0.8527 0.17201 0.61933 0.0
H1090 H 0.84547 0.20081 0.78572 0.0
H1091 H 0.89948 0.19044 0.82482 0.0
H1092 H 0.90171 0.1825 0.75914 0.0
H1093 H 0.91843 0.18175 0.79394 0.0
H1094 H 0.87056 0.16352 0.58314 0.0
H1095 H 0.82496 0.18356 0.54249 0.0
H1096 H 0.81579 0.18478 0.60824 0.0
H1097 H 0.8039 0.19076 0.57292 0.0
H1098 H 0.30052 0.86927 0.05447 0.0
H1099 H 0.34549 0.8314 0.06568 0.0
H1100 H 0.34004 0.90686 0.04121 0.0
H1101 H 0.3854 0.86934 0.05364 0.0
H1102 H 0.45334 0.93603 0.02217 0.0
H1103 H 0.4112 0.89668 0.0274 0.0
H1104 H 0.37852 0.94155 0.05281 0.0
H1105 H 0.41995 0.98066 0.04605 0.0
C1106 C 0.31895 0.86908 0.05412 0.0
C1107 C 0.31996 0.84746 0.06114 0.0
C1108 C 0.34172 0.8907 0.04665 0.0
C1109 C 0.36626 0.89151 0.04647 0.0
C1110 C 0.36698 0.86951 0.05312 0.0
C1111 C 0.34409 0.84772 0.06019 0.0
C1112 C 0.43685 0.93743 0.02827 0.0
C1113 C 0.43975 0.96146 0.03328 0.0
C1114 C 0.41273 0.91481 0.03163 0.0
C1115 C 0.39117 0.91563 0.04069 0.0
C1116 C 0.39422 0.93987 0.04542 0.0
C1117 C 0.41812 0.96241 0.04172 0.0
H1118 H 0.19674 0.51224 0.06488 0.0
H1119 H 0.15374 0.43086 0.05273 0.0
H1120 H 0.15809 0.5154 0.0552 0.0
H1121 H 0.11556 0.43397 0.0417 0.0
H1122 H 0.04166 0.43993 0.04872 0.0
H1123 H 0.08149 0.43785 0.05498 0.0
H1124 H 0.12858 0.5152 0.03128 0.0
H1125 H 0.0884 0.51764 0.02652 0.0
C1126 C 0.17914 0.49512 0.05964 0.0
C1127 C 0.17819 0.47129 0.05967 0.0
C1128 C 0.15691 0.49689 0.05397 0.0
C1129 C 0.13323 0.4749 0.04782 0.0
C1130 C 0.13293 0.45127 0.04692 0.0
C1131 C 0.15495 0.44945 0.05302 0.0
C1132 C 0.06055 0.45643 0.04476 0.0
C1133 C 0.06182 0.4787 0.03666 0.0
C1134 C 0.08354 0.4552 0.04814 0.0
C1135 C 0.10864 0.47622 0.04345 0.0
C1136 C 0.10983 0.49862 0.03534 0.0
C1137 C 0.08674 0.49995 0.03227 0.0
H1138 H 0.54463 0.71407 0.03404 0.0
H1139 H 0.55671 0.69277 0.09541 0.0
H1140 H 0.5418 0.67494 0.01992 0.0
H1141 H 0.55385 0.65389 0.08141 0.0
H1142 H 0.57239 0.59875 0.04854 0.0
H1143 H 0.57796 0.63985 0.05977 0.0
H1144 H 0.51302 0.62831 0.02052 0.0
H1145 H 0.50762 0.58729 0.00905 0.0
C1146 C 0.5466 0.70101 0.04451 0.0
C1147 C 0.55114 0.70667 0.06581 0.0
C1148 C 0.54497 0.6786 0.03643 0.0
C1149 C 0.54782 0.66136 0.0495 0.0
C1150 C 0.55218 0.66701 0.07081 0.0
C1151 C 0.55381 0.68933 0.07885 0.0
C1152 C 0.55941 0.60502 0.04216 0.0
C1153 C 0.53955 0.58966 0.02789 0.0
C1154 C 0.56252 0.62856 0.04869 0.0
C1155 C 0.54579 0.6373 0.0412 0.0
C1156 C 0.52642 0.6223 0.02645 0.0
C1157 C 0.52332 0.59874 0.01989 0.0
H1158 H 0.83894 0.29393 1.00574 0.0
H1159 H 0.86648 0.3159 0.94272 0.0
H1160 H 0.8752 0.33493 0.01818 0.0
H1161 H 0.9027 0.35641 0.95516 0.0
H1162 H 0.97919 0.4156 0.98534 0.0
H1163 H 0.94364 0.37335 0.97512 0.0
H1164 H 0.89037 0.38157 0.01674 0.0
H1165 H 0.9259 0.42394 0.02697 0.0
C1166 C 0.85264 0.30745 0.99453 0.0
C1167 C 0.84982 0.3014 0.97322 0.0
C1168 C 0.87345 0.33095 1.00167 0.0
C1169 C 0.892 0.34891 0.98769 0.0
C1170 C 0.88913 0.34284 0.96642 0.0
C1171 C 0.86833 0.3195 0.95929 0.0
C1172 C 0.95997 0.40842 0.99244 0.0
C1173 C 0.95554 0.42325 0.00708 0.0
C1174 C 0.93952 0.38418 0.98649 0.0
C1175 C 0.91409 0.37407 0.99504 0.0
C1176 C 0.90978 0.38862 0.01002 0.0
C1177 C 0.93021 0.41296 0.0159 0.0
H1178 H 0.69274 0.50469 0.97157 0.0
H1179 H 0.73375 0.58651 0.98159 0.0
H1180 H 0.65131 0.50196 0.98183 0.0
H1181 H 0.69278 0.58389 0.9933 0.0
H1182 H 0.61176 0.57697 0.98787 0.0
H1183 H 0.6541 0.57974 0.9818 0.0
H1184 H 0.62269 0.50255 1.00567 0.0
H1185 H 0.57976 0.49935 0.00994 0.0
C1186 C 0.69293 0.52203 0.97648 0.0
C1187 C 0.71646 0.54582 0.9757 0.0
C1188 C 0.66912 0.52052 0.98252 0.0
C1189 C 0.66821 0.54272 0.98836 0.0
C1190 C 0.69219 0.56638 0.9884 0.0
C1191 C 0.71586 0.56793 0.98189 0.0
C1192 C 0.61404 0.5607 0.99199 0.0
C1193 C 0.59251 0.53818 0.99985 0.0
C1194 C 0.63851 0.56231 0.98869 0.0
C1195 C 0.64235 0.54143 0.99327 0.0
C1196 C 0.62076 0.51899 1.00155 0.0
C1197 C 0.5961 0.51726 1.00444 0.0
H1198 H 0.52313 0.19227 0.9739 0.0
H1199 H 0.43805 0.14648 0.97173 0.0
H1200 H 0.52538 0.15595 0.98816 0.0
H1201 H 0.44031 0.10994 0.98604 0.0
H1202 H 0.45991 0.0439 0.98539 0.0
H1203 H 0.45475 0.08011 0.97499 0.0
H1204 H 0.51547 0.12886 0.01853 0.0
H1205 H 0.52125 0.09289 0.02847 0.0
C1206 C 0.50484 0.17457 0.97681 0.0
C1207 C 0.48039 0.17235 0.97169 0.0
C1208 C 0.50614 0.15371 0.98501 0.0
C1209 C 0.48303 0.13 0.98829 0.0
C1210 C 0.45852 0.12783 0.98346 0.0
C1211 C 0.45721 0.14877 0.97526 0.0
C1212 C 0.47204 0.06228 0.99289 0.0
C1213 C 0.49101 0.06542 0.00779 0.0
C1214 C 0.46893 0.08303 0.98701 0.0
C1215 C 0.48475 0.10745 0.99586 0.0
C1216 C 0.50318 0.1104 0.01121 0.0
C1217 C 0.5063 0.08966 0.01708 0.0
H1218 H 0.70977 0.16228 0.9975 0.0
H1219 H 0.6564 0.18217 0.96745 0.0
H1220 H 0.6727 0.1188 1.00409 0.0
H1221 H 0.61974 0.13926 0.97412 0.0
H1222 H 0.5561 0.07435 0.01068 0.0
H1223 H 0.59559 0.11579 1.00559 0.0
H1224 H 0.6382 0.07787 0.98599 0.0
H1225 H 0.59833 0.03597 0.99159 0.0
C1226 C 0.69027 0.15729 0.99204 0.0
C1227 C 0.686 0.17583 0.98222 0.0
C1228 C 0.66904 0.13244 0.99588 0.0
C1229 C 0.64318 0.12574 0.99001 0.0
C1230 C 0.63925 0.14397 0.97936 0.0
C1231 C 0.66032 0.16858 0.97548 0.0
C1232 C 0.57395 0.07472 1.00576 0.0
C1233 C 0.57419 0.05183 1.00194 0.0
C1234 C 0.59658 0.09855 1.00257 0.0
C1235 C 0.62003 0.10018 0.99519 0.0
C1236 C 0.62052 0.07728 0.99181 0.0
C1237 C 0.59772 0.05334 0.99494 0.0
H1238 H 0.83564 0.49261 0.01821 0.0
H1239 H 0.86033 0.53275 0.95967 0.0
H1240 H 0.87934 0.49782 0.02306 0.0
H1241 H 0.90447 0.53815 0.96462 0.0
H1242 H 0.98752 0.55801 0.99003 0.0
H1243 H 0.94566 0.55793 0.98633 0.0
H1244 H 0.9033 0.4787 1.00614 0.0
H1245 H 0.94484 0.47882 0.00955 0.0
C1246 C 0.85049 0.50272 1.00639 0.0
C1247 C 0.84427 0.51189 0.98836 0.0
C1248 C 0.87557 0.50565 0.00917 0.0
C1249 C 0.89534 0.51796 0.99406 0.0
C1250 C 0.88972 0.52855 0.97658 0.0
C1251 C 0.86444 0.52553 0.97375 0.0
C1252 C 0.9692 0.54067 0.9937 0.0
C1253 C 0.96957 0.51869 1.00078 0.0
C1254 C 0.94524 0.54057 0.99149 0.0
C1255 C 0.92107 0.51842 0.99619 0.0
C1256 C 0.92152 0.49629 1.00281 0.0
C1257 C 0.9454 0.49636 1.00487 0.0
H1258 H 0.48526 0.30987 0.98696 0.0
H1259 H 0.56179 0.36239 0.96087 0.0
H1260 H 0.47831 0.3462 0.99423 0.0
H1261 H 0.55512 0.39838 0.9689 0.0
H1262 H 0.54923 0.4497 0.02038 0.0
H1263 H 0.54934 0.41123 0.00908 0.0
H1264 H 0.47947 0.38901 0.97244 0.0
H1265 H 0.47939 0.42822 0.98355 0.0
C1266 C 0.50035 0.329 0.9824 0.0
C1267 C 0.52431 0.33324 0.97368 0.0
C1268 C 0.49635 0.34974 0.98662 0.0
C1269 C 0.51632 0.37498 0.98231 0.0
C1270 C 0.53956 0.37907 0.97256 0.0
C1271 C 0.54341 0.35846 0.96812 0.0
C1272 C 0.53364 0.43663 0.01009 0.0
C1273 C 0.51427 0.44211 1.00287 0.0
C1274 C 0.53385 0.41464 1.00354 0.0
C1275 C 0.51453 0.39734 0.98983 0.0
C1276 C 0.49456 0.40215 0.98305 0.0
C1277 C 0.49458 0.42455 0.98936 0.0
H1278 H 0.21155 0.67675 0.02292 0.0
H1279 H 0.18156 0.69389 0.07829 0.0
H1280 H 0.168 0.64074 0.01553 0.0
H1281 H 0.13731 0.65796 0.07053 0.0
H1282 H 0.07409 0.57013 0.06256 0.0
H1283 H 0.11406 0.6109 0.07031 0.0
H1284 H 0.12429 0.62922 1.00487 0.0
H1285 H 0.08462 0.58861 0.99734 0.0
C1286 C 0.19553 0.67293 0.03345 0.0
C1287 C 0.20011 0.68805 0.05131 0.0
C1288 C 0.17041 0.6524 0.02909 0.0
C1289 C 0.14901 0.64636 0.04242 0.0
C1290 C 0.15337 0.66191 0.06003 0.0
C1291 C 0.17865 0.68264 0.06437 0.0
C1292 C 0.08469 0.58312 0.0499 0.0
C1293 C 0.07664 0.57587 0.02924 0.0
C1294 C 0.10759 0.60652 0.05433 0.0
C1295 C 0.12276 0.62321 0.03819 0.0
C1296 C 0.1136 0.61656 0.01766 0.0
C1297 C 0.09089 0.59318 0.01328 0.0
H1298 H 0.33397 0.4803 0.07434 0.0
H1299 H 0.35067 0.52188 0.01652 0.0
H1300 H 0.37198 0.47415 0.06854 0.0
H1301 H 0.38838 0.51583 0.01076 0.0
H1302 H 0.47319 0.53393 0.02393 0.0
H1303 H 0.4319 0.53415 0.02743 0.0
H1304 H 0.39251 0.45453 0.0462 0.0
H1305 H 0.43424 0.45435 0.0424 0.0
C1306 C 0.34537 0.48764 0.06021 0.0
C1307 C 0.33949 0.50193 0.04607 0.0
C1308 C 0.3672 0.48418 0.05688 0.0
C1309 C 0.38359 0.49494 0.03936 0.0
C1310 C 0.37665 0.50784 0.02467 0.0
C1311 C 0.35493 0.51124 0.02796 0.0
C1312 C 0.45569 0.51631 0.02836 0.0
C1313 C 0.45685 0.49387 0.03219 0.0
C1314 C 0.43192 0.51643 0.03047 0.0
C1315 C 0.40869 0.49426 0.03688 0.0
C1316 C 0.40997 0.47194 0.04122 0.0
C1317 C 0.43381 0.47178 0.03894 0.0
H1318 H 0.47333 0.80772 0.0351 0.0
H1319 H 0.53939 0.84328 0.07741 0.0
H1320 H 0.48046 0.84952 0.02529 0.0
H1321 H 0.54781 0.88565 0.06639 0.0
H1322 H 0.53257 0.95442 0.05961 0.0
H1323 H 0.53099 0.91439 0.06917 0.0
H1324 H 0.50756 0.88633 1.00652 0.0
H1325 H 0.50743 0.92525 0.99757 0.0
C1326 C 0.4895 0.8245 0.04229 0.0
C1327 C 0.50555 0.82199 0.05727 0.0
C1328 C 0.49393 0.84865 0.03635 0.0
C1329 C 0.51487 0.87118 0.0449 0.0
C1330 C 0.53133 0.86877 0.05961 0.0
C1331 C 0.52671 0.84446 0.06574 0.0
C1332 C 0.52737 0.9398 0.04782 0.0
C1333 C 0.52003 0.94315 0.02775 0.0
C1334 C 0.52657 0.91682 0.05329 0.0
C1335 C 0.51875 0.89681 0.03873 0.0
C1336 C 0.51294 0.90089 0.01838 0.0
C1337 C 0.51322 0.92353 0.01309 0.0
H1338 H 1.01028 0.16785 0.39807 0.0
H1339 H 0.96643 0.20703 0.38772 0.0
H1340 H 0.05048 0.20554 0.3863 0.0
H1341 H 1.00629 0.24446 0.37461 0.0
H1342 H 0.08749 0.31739 0.37886 0.0
H1343 H 0.04538 0.27887 0.38562 0.0
H1344 H 0.07625 0.2324 0.36027 0.0
H1345 H 0.11887 0.2709 0.35533 0.0
C1346 C 1.00921 0.18443 0.39279 0.0
C1347 C 0.9853 0.18459 0.39387 0.0
C1348 C 0.03226 0.20609 0.38586 0.0
C1349 C 0.03195 0.22838 0.37944 0.0
C1350 C 1.00765 0.22804 0.37983 0.0
C1351 C 0.98469 0.20652 0.3872 0.0
C1352 C 0.08507 0.2989 0.37454 0.0
C1353 C 0.10633 0.29724 0.36615 0.0
C1354 C 0.0608 0.27671 0.37825 0.0
C1355 C 0.05708 0.2522 0.37357 0.0
C1356 C 0.07827 0.25073 0.36452 0.0
C1357 C 0.1027 0.27292 0.36124 0.0
H1358 H 0.86278 0.84562 0.39643 0.0
H1359 H 0.81985 0.76377 0.38662 0.0
H1360 H 0.824 0.84825 0.38653 0.0
H1361 H 0.78141 0.76628 0.37518 0.0
H1362 H 0.70752 0.7729 0.38158 0.0
H1363 H 0.74726 0.77048 0.38757 0.0
H1364 H 0.79445 0.84738 0.36296 0.0
H1365 H 0.75462 0.85025 0.35875 0.0
C1366 C 0.84515 0.82827 0.39156 0.0
C1367 C 0.84427 0.8045 0.39231 0.0
C1368 C 0.82282 0.82972 0.38576 0.0
C1369 C 0.7991 0.80745 0.38013 0.0
C1370 C 0.79884 0.78382 0.37994 0.0
C1371 C 0.82099 0.78233 0.38624 0.0
C1372 C 0.72644 0.78919 0.37734 0.0
C1373 C 0.72784 0.81147 0.36915 0.0
C1374 C 0.74936 0.78777 0.38057 0.0
C1375 C 0.77448 0.80864 0.37562 0.0
C1376 C 0.77574 0.83095 0.36729 0.0
C1377 C 0.75277 0.8325 0.36446 0.0
H1378 H 0.21749 0.04917 0.36727 0.0
H1379 H 0.22584 0.02845 0.4299 0.0
H1380 H 0.21416 0.00935 0.35446 0.0
H1381 H 0.22249 0.9888 0.41716 0.0
H1382 H 0.23801 0.92989 0.38613 0.0
H1383 H 0.24534 0.97187 0.39694 0.0
H1384 H 0.18312 0.96342 0.35581 0.0
H1385 H 0.17592 0.92168 0.3449 0.0
C1386 C 0.21859 0.03611 0.37829 0.0
C1387 C 0.22202 0.04203 0.39959 0.0
C1388 C 0.21668 0.0133 0.37096 0.0
C1389 C 0.2181 0.99589 0.38478 0.0
C1390 C 0.22181 1.00198 0.40604 0.0
C1391 C 0.22373 0.02474 0.41334 0.0
C1392 C 0.22599 0.93704 0.3793 0.0
C1393 C 0.20649 0.92244 0.36453 0.0
C1394 C 0.23013 0.96108 0.38556 0.0
C1395 C 0.21482 0.97103 0.37725 0.0
C1396 C 0.19557 0.95656 0.36228 0.0
C1397 C 0.19143 0.93255 0.35603 0.0
H1398 H 0.49166 0.65292 0.31354 0.0
H1399 H 0.54462 0.62282 0.30678 0.0
H1400 H 0.52793 0.69337 0.3262 0.0
H1401 H 0.58097 0.66317 0.31991 0.0
H1402 H 0.64454 0.7486 0.31841 0.0
H1403 H 0.60836 0.70638 0.30909 0.0
H1404 H 0.55796 0.71512 0.35353 0.0
H1405 H 0.59373 0.75787 0.36208 0.0
C1406 C 0.51097 0.65475 0.3152 0.0
C1407 C 0.51523 0.63463 0.30913 0.0
C1408 C 0.53184 0.678 0.32249 0.0
C1409 C 0.55755 0.68173 0.32405 0.0
C1410 C 0.56161 0.66126 0.31856 0.0
C1411 C 0.54075 0.63806 0.31112 0.0
C1412 C 0.62579 0.74152 0.32629 0.0
C1413 C 0.62221 0.75672 0.34111 0.0
C1414 C 0.60502 0.71712 0.32104 0.0
C1415 C 0.58011 0.70716 0.33054 0.0
C1416 C 0.57671 0.72219 0.34567 0.0
C1417 C 0.59741 0.74667 0.3508 0.0
H1418 H 0.39133 0.91636 0.29616 0.0
H1419 H 0.36608 0.84171 0.32316 0.0
H1420 H 0.35021 0.91315 0.30599 0.0
H1421 H 0.32637 0.84017 0.33576 0.0
H1422 H 0.2433 0.82977 0.33621 0.0
H1423 H 0.28555 0.83253 0.32918 0.0
H1424 H 0.32302 0.9156 0.32832 0.0
H1425 H 0.28023 0.91219 0.33319 0.0
C1426 C 0.37719 0.89923 0.30434 0.0
C1427 C 0.38238 0.87912 0.30834 0.0
C1428 C 0.35348 0.89766 0.31059 0.0
C1429 C 0.33429 0.87634 0.32188 0.0
C1430 C 0.33999 0.85671 0.32672 0.0
C1431 C 0.36337 0.85789 0.31982 0.0
C1432 C 0.26073 0.84856 0.33464 0.0
C1433 C 0.25857 0.87079 0.33537 0.0
C1434 C 0.2852 0.85028 0.3307 0.0
C1435 C 0.30831 0.87436 0.32779 0.0
C1436 C 0.30597 0.89657 0.32956 0.0
C1437 C 0.2814 0.89475 0.33271 0.0
H1438 H 0.1073 0.4823 0.3059 0.0
H1439 H 0.19249 0.5272 0.30634 0.0
H1440 H 0.10942 0.44571 0.32017 0.0
H1441 H 0.19459 0.49077 0.32061 0.0
H1442 H 0.19018 0.42716 0.3608 0.0
H1443 H 0.18508 0.46365 0.35113 0.0
H1444 H 0.12294 0.41548 0.30837 0.0
H1445 H 0.12749 0.37884 0.31842 0.0
C1446 C 0.12647 0.48438 0.30905 0.0
C1447 C 0.14971 0.50771 0.30495 0.0
C1448 C 0.12768 0.46341 0.31723 0.0
C1449 C 0.15217 0.46528 0.32153 0.0
C1450 C 0.17538 0.48877 0.31783 0.0
C1451 C 0.17417 0.5097 0.30963 0.0
C1452 C 0.17509 0.4242 0.34962 0.0
C1453 C 0.15922 0.39999 0.34044 0.0
C1454 C 0.17235 0.44522 0.34392 0.0
C1455 C 0.15368 0.44255 0.32889 0.0
C1456 C 0.13732 0.41818 0.32015 0.0
C1457 C 0.14007 0.39717 0.32583 0.0
H1458 H 0.37667 0.49362 0.3281 0.0
H1459 H 0.32333 0.51388 0.29852 0.0
H1460 H 0.33958 0.44997 0.33432 0.0
H1461 H 0.28666 0.47082 0.30481 0.0
H1462 H 0.22375 0.40719 0.34293 0.0
H1463 H 0.26361 0.44816 0.33741 0.0
H1464 H 0.30394 0.40888 0.31568 0.0
H1465 H 0.26363 0.36736 0.32163 0.0
C1466 C 0.35719 0.48863 0.32259 0.0
C1467 C 0.35287 0.50731 0.31308 0.0
C1468 C 0.33597 0.46372 0.32623 0.0
C1469 C 0.31011 0.45715 0.32046 0.0
C1470 C 0.3062 0.47546 0.30994 0.0
C1471 C 0.32725 0.50012 0.30626 0.0
C1472 C 0.24116 0.40712 0.33742 0.0
C1473 C 0.24061 0.38396 0.33305 0.0
C1474 C 0.26401 0.43069 0.33401 0.0
C1475 C 0.28688 0.4318 0.32589 0.0
C1476 C 0.28667 0.40864 0.32203 0.0
C1477 C 0.26362 0.38494 0.32536 0.0
H1478 H 0.52525 0.86419 0.2938 0.0
H1479 H 0.50557 0.82976 0.35479 0.0
H1480 H 0.56958 0.86952 0.29706 0.0
H1481 H 0.54931 0.83462 0.35781 0.0
H1482 H 0.6122 0.81276 0.34234 0.0
H1483 H 0.57075 0.81292 0.33971 0.0
H1484 H 0.61275 0.89125 0.31776 0.0
H1485 H 0.65462 0.89113 0.32076 0.0
C1486 C 0.53049 0.85819 0.30802 0.0
C1487 C 0.51163 0.84613 0.32386 0.0
C1488 C 0.55585 0.86116 0.30987 0.0
C1489 C 0.56281 0.85203 0.32754 0.0
C1490 C 0.54443 0.84132 0.3438 0.0
C1491 C 0.51931 0.83854 0.34204 0.0
C1492 C 0.61273 0.83017 0.33731 0.0
C1493 C 0.63681 0.85225 0.33251 0.0
C1494 C 0.58891 0.83024 0.3357 0.0
C1495 C 0.58843 0.85223 0.32879 0.0
C1496 C 0.61244 0.87405 0.32319 0.0
C1497 C 0.63638 0.87402 0.325 0.0
H1498 H 0.15666 0.64386 0.32613 0.0
H1499 H 0.22295 0.69581 0.28819 0.0
H1500 H 0.14708 0.67838 0.33347 0.0
H1501 H 0.21365 0.73031 0.29571 0.0
H1502 H 0.18055 0.78364 0.30172 0.0
H1503 H 0.18102 0.74494 0.29053 0.0
H1504 H 0.17014 0.71869 0.35413 0.0
H1505 H 0.16896 0.75694 0.36506 0.0
C1506 C 0.16892 0.66254 0.31911 0.0
C1507 C 0.19066 0.6672 0.3067 0.0
C1508 C 0.16356 0.68233 0.32343 0.0
C1509 C 0.17966 0.70709 0.31522 0.0
C1510 C 0.20072 0.71141 0.30212 0.0
C1511 C 0.20621 0.69172 0.29797 0.0
C1512 C 0.17772 0.76933 0.31322 0.0
C1513 C 0.17523 0.77351 0.33436 0.0
C1514 C 0.17822 0.74729 0.30685 0.0
C1515 C 0.17589 0.72888 0.32147 0.0
C1516 C 0.17192 0.73246 0.34246 0.0
C1517 C 0.17166 0.75457 0.34881 0.0
H1518 H 0.84874 0.02259 0.41312 0.0
H1519 H 0.8714 0.02553 0.34901 0.0
H1520 H 0.806 0.98419 0.4057 0.0
H1521 H 0.82873 0.98798 0.34134 0.0
H1522 H 0.77383 0.90192 0.34283 0.0
H1523 H 0.81149 0.94364 0.34974 0.0
H1524 H 0.76297 0.96335 0.38739 0.0
H1525 H 0.72462 0.92083 0.38044 0.0
C1526 C 0.84422 0.01542 0.39734 0.0
C1527 C 0.86335 0.02678 0.38165 0.0
C1528 C 0.81978 0.99347 0.39306 0.0
C1529 C 0.81411 0.98266 0.373 0.0
C1530 C 0.83267 0.99533 0.35708 0.0
C1531 C 0.85703 0.01696 0.3614 0.0
C1532 C 0.77086 0.91514 0.35231 0.0
C1533 C 0.74595 0.90804 0.36076 0.0
C1534 C 0.79261 0.93925 0.35627 0.0
C1535 C 0.79028 0.95714 0.36886 0.0
C1536 C 0.76546 0.95004 0.37761 0.0
C1537 C 0.74349 0.92572 0.37358 0.0
H1538 H 0.98572 0.80237 0.36962 0.0
H1539 H 0.03685 0.87351 0.40131 0.0
H1540 H 0.02375 0.79634 0.36307 0.0
H1541 H 0.07446 0.86756 0.39494 0.0
H1542 H 0.14059 0.86808 0.35914 0.0
H1543 H 0.10049 0.86997 0.36468 0.0
H1544 H 0.05832 0.78906 0.37952 0.0
H1545 H 0.09875 0.78713 0.37334 0.0
C1546 C 1.00493 0.81642 0.37554 0.0
C1547 C 1.00831 0.83855 0.3858 0.0
C1548 C 0.02674 0.81305 0.37172 0.0
C1549 C 0.05232 0.83176 0.37807 0.0
C1550 C 0.05526 0.85312 0.38928 0.0
C1551 C 0.03363 0.85645 0.39308 0.0
C1552 C 0.12272 0.85056 0.36311 0.0
C1553 C 0.12278 0.82734 0.36536 0.0
C1554 C 0.0997 0.85169 0.3666 0.0
C1555 C 0.07613 0.82971 0.37278 0.0
C1556 C 0.07603 0.80632 0.37465 0.0
C1557 C 0.09918 0.80522 0.37119 0.0
H1558 H 0.21318 0.17188 0.37757 0.0
H1559 H 0.13649 0.15003 0.4034 0.0
H1560 H 0.21933 0.2143 0.3689 0.0
H1561 H 0.14231 0.19175 0.39384 0.0
H1562 H 0.14762 0.24927 0.3436 0.0
H1563 H 0.14735 0.21041 0.35449 0.0
H1564 H 0.21883 0.25569 0.38951 0.0
H1565 H 0.21907 0.29512 0.37886 0.0
C1566 C 0.19783 0.17616 0.38168 0.0
C1567 C 0.17412 0.15729 0.39087 0.0
C1568 C 0.20135 0.2004 0.37664 0.0
C1569 C 0.18113 0.20603 0.38048 0.0
C1570 C 0.15802 0.18768 0.39046 0.0
C1571 C 0.15466 0.16372 0.39578 0.0
C1572 C 0.16352 0.25115 0.35343 0.0
C1573 C 0.18338 0.27538 0.36038 0.0
C1574 C 0.16323 0.22883 0.35974 0.0
C1575 C 0.18297 0.23013 0.37291 0.0
C1576 C 0.20342 0.25428 0.37932 0.0
C1577 C 0.20349 0.27676 0.37326 0.0
H1578 H 0.6797 0.50035 0.73257 0.0
H1579 H 0.63467 0.53818 0.72152 0.0
H1580 H 0.71971 0.53855 0.72115 0.0
H1581 H 0.67431 0.57606 0.70873 0.0
H1582 H 0.75393 0.64998 0.71348 0.0
H1583 H 0.71257 0.61077 0.7202 0.0
H1584 H 0.74595 0.56614 0.69552 0.0
H1585 H 0.78803 0.60559 0.69049 0.0
C1586 C 0.67834 0.51675 0.72724 0.0
C1587 C 0.65414 0.51638 0.72803 0.0
C1588 C 0.70129 0.5387 0.72051 0.0
C1589 C 0.70059 0.56075 0.714 0.0
C1590 C 0.676 0.55986 0.71407 0.0
C1591 C 0.65315 0.53808 0.72125 0.0
C1592 C 0.75227 0.63174 0.70935 0.0
C1593 C 0.77405 0.63088 0.70113 0.0
C1594 C 0.72841 0.60915 0.713 0.0
C1595 C 0.72555 0.58495 0.70842 0.0
C1596 C 0.74731 0.58422 0.69966 0.0
C1597 C 0.77139 0.60689 0.69639 0.0
H1598 H 0.49456 0.13873 0.75954 0.0
H1599 H 0.51727 0.138 0.69567 0.0
H1600 H 0.45585 0.14021 0.74779 0.0
H1601 H 0.47887 0.14111 0.68411 0.0
H1602 H 0.42169 0.18396 0.69279 0.0
H1603 H 0.46158 0.18107 0.69862 0.0
H1604 H 0.41342 0.10234 0.71811 0.0
H1605 H 0.37345 0.10484 0.71147 0.0
C1606 C 0.49131 0.13863 0.74298 0.0
C1607 C 0.50903 0.13765 0.72861 0.0
C1608 C 0.46919 0.13977 0.73631 0.0
C1609 C 0.46438 0.14061 0.71511 0.0
C1610 C 0.48224 0.14045 0.70058 0.0
C1611 C 0.50428 0.1388 0.70726 0.0
C1612 C 0.41956 0.16579 0.69761 0.0
C1613 C 0.39437 0.14439 0.70109 0.0
C1614 C 0.4424 0.1642 0.70104 0.0
C1615 C 0.44047 0.14139 0.70857 0.0
C1616 C 0.41536 0.12002 0.71204 0.0
C1617 C 0.39256 0.12148 0.70829 0.0
H1618 H 0.84048 0.35323 0.73153 0.0
H1619 H 0.92562 0.39035 0.73018 0.0
H1620 H 0.83746 0.31399 0.71807 0.0
H1621 H 0.92256 0.35089 0.7168 0.0
H1622 H 0.90363 0.26611 0.71851 0.0
H1623 H 0.90862 0.30726 0.72915 0.0
H1624 H 0.84612 0.29593 0.68714 0.0
H1625 H 0.84058 0.25454 0.67693 0.0
C1626 C 0.85858 0.35317 0.72804 0.0
C1627 C 0.8833 0.37499 0.73191 0.0
C1628 C 0.85684 0.33063 0.72034 0.0
C1629 C 0.87977 0.32929 0.71636 0.0
C1630 C 0.90452 0.35119 0.71997 0.0
C1631 C 0.90626 0.37379 0.72763 0.0
C1632 C 0.89104 0.27244 0.71145 0.0
C1633 C 0.87177 0.257 0.69679 0.0
C1634 C 0.89403 0.29613 0.71746 0.0
C1635 C 0.87774 0.30488 0.70902 0.0
C1636 C 0.85879 0.28964 0.6941 0.0
C1637 C 0.85583 0.266 0.68808 0.0
H1638 H 0.17342 0.96248 0.67086 0.0
H1639 H 0.20048 0.98392 0.60768 0.0
H1640 H 0.20974 1.00358 0.68304 0.0
H1641 H 0.23674 0.02458 0.61985 0.0
H1642 H 0.31334 0.08434 0.64965 0.0
H1643 H 0.27782 0.04204 0.63952 0.0
H1644 H 0.22475 0.05004 0.68152 0.0
H1645 H 0.26026 0.09245 0.69167 0.0
C1646 C 0.18703 0.97591 0.65956 0.0
C1647 C 0.18404 0.96968 0.63828 0.0
C1648 C 0.20787 0.99948 0.66655 0.0
C1649 C 0.22628 0.01736 0.65244 0.0
C1650 C 0.22328 0.0111 0.63121 0.0
C1651 C 0.20244 0.98767 0.62423 0.0
C1652 C 0.29416 0.07711 0.65684 0.0
C1653 C 0.2898 0.09188 0.67159 0.0
C1654 C 0.27373 0.05283 0.65095 0.0
C1655 C 0.24836 0.04262 0.65964 0.0
C1656 C 0.2441 0.05716 0.67469 0.0
C1657 C 0.26453 0.08152 0.68052 0.0
H1658 H 0.0572 0.25248 0.62602 0.0
H1659 H 0.03618 0.18201 0.65881 0.0
H1660 H 0.01594 0.24907 0.63629 0.0
H1661 H 0.99635 0.18037 0.67132 0.0
H1662 H 0.912 0.16678 0.67081 0.0
H1663 H 0.9546 0.17043 0.66385 0.0
H1664 H 0.98985 0.25309 0.65964 0.0
H1665 H 0.9466 0.24875 0.66496 0.0
C1666 C 0.04397 0.23627 0.63556 0.0
C1667 C 0.05036 0.21737 0.64119 0.0
C1668 C 0.02024 0.23461 0.64196 0.0
C1669 C 1.00224 0.2144 0.65481 0.0
C1670 C 1.00909 0.19599 0.6611 0.0
C1671 C 0.03251 0.19726 0.65421 0.0
C1672 C 0.92898 0.18571 0.6687 0.0
C1673 C 0.92604 0.20751 0.66867 0.0
C1674 C 0.95365 0.18793 0.66473 0.0
C1675 C 0.9762 0.21211 0.66086 0.0
C1676 C 0.97317 0.23399 0.66178 0.0
C1677 C 0.94837 0.23164 0.66516 0.0
H1678 H 0.8142 0.85105 0.66899 0.0
H1679 H 0.80707 0.82079 0.60697 0.0
H1680 H 0.8168 0.81452 0.68293 0.0
H1681 H 0.80949 0.78441 0.62085 0.0
H1682 H 0.79201 0.71094 0.65268 0.0
H1683 H 0.78513 0.7459 0.64173 0.0
H1684 H 0.8476 0.79782 0.6827 0.0
H1685 H 0.85442 0.76278 0.69383 0.0
C1686 C 0.81316 0.83662 0.65834 0.0
C1687 C 0.81033 0.83884 0.63686 0.0
C1688 C 0.81466 0.8157 0.66633 0.0
C1689 C 0.81329 0.79649 0.65302 0.0
C1690 C 0.81011 0.79858 0.6316 0.0
C1691 C 0.80868 0.81946 0.62362 0.0
C1692 C 0.80417 0.72973 0.65952 0.0
C1693 C 0.8238 0.734 0.67415 0.0
C1694 C 0.80028 0.74983 0.65315 0.0
C1695 C 0.81594 0.77472 0.6612 0.0
C1696 C 0.83501 0.77883 0.67633 0.0
C1697 C 0.83892 0.75871 0.68271 0.0
H1698 H 0.04375 0.83141 0.66399 0.0
H1699 H 0.99051 0.85117 0.63354 0.0
H1700 H 1.00657 0.78812 0.671 0.0
H1701 H 0.95374 0.80843 0.64058 0.0
H1702 H 0.8899 0.74397 0.67734 0.0
H1703 H 0.92943 0.78534 0.67198 0.0
H1704 H 0.97209 0.74706 0.65344 0.0
H1705 H 0.93221 0.70528 0.65935 0.0
C1706 C 0.02425 0.82642 0.65853 0.0
C1707 C 0.02005 0.84487 0.64847 0.0
C1708 C 1.00295 0.80169 0.66261 0.0
C1709 C 0.9771 0.795 0.65672 0.0
C1710 C 0.97324 0.81314 0.64584 0.0
C1711 C 0.99438 0.83764 0.64174 0.0
C1712 C 0.90778 0.74427 0.6726 0.0
C1713 C 0.90804 0.72132 0.66918 0.0
C1714 C 0.93043 0.76805 0.66925 0.0
C1715 C 0.9539 0.76954 0.66208 0.0
C1716 C 0.95439 0.74659 0.65909 0.0
C1717 C 0.93158 0.7227 0.66239 0.0
H1718 H 0.20028 0.22202 0.66711 0.0
H1719 H 0.16915 0.14673 0.64004 0.0
H1720 H 0.24385 0.22545 0.67018 0.0
H1721 H 0.21234 0.15021 0.64261 0.0
H1722 H 0.28037 0.14845 0.674 0.0
H1723 H 0.23909 0.14855 0.66994 0.0
H1724 H 0.28234 0.22848 0.65196 0.0
H1725 H 0.32397 0.22843 0.65676 0.0
C1726 C 0.20293 0.20651 0.66137 0.0
C1727 C 0.18129 0.18406 0.65345 0.0
C1728 C 0.22784 0.2084 0.66317 0.0
C1729 C 0.23158 0.18789 0.65701 0.0
C1730 C 0.21015 0.1661 0.64806 0.0
C1731 C 0.1854 0.16419 0.64638 0.0
C1732 C 0.28115 0.16616 0.66951 0.0
C1733 C 0.30548 0.1886 0.66621 0.0
C1734 C 0.2574 0.16616 0.66686 0.0
C1735 C 0.25723 0.1885 0.66046 0.0
C1736 C 0.28165 0.211 0.6571 0.0
C1737 C 0.30549 0.21096 0.65975 0.0
H1738 H 0.89709 0.02981 0.63018 0.0
H1739 H 0.81941 0.97842 0.65493 0.0
H1740 H 0.89102 0.06633 0.6374 0.0
H1741 H 0.81312 0.01525 0.66149 0.0
H1742 H 0.81336 0.09565 0.65193 0.0
H1743 H 0.81382 0.05654 0.64104 0.0
H1744 H 0.88605 0.08148 0.67522 0.0
H1745 H 0.88563 0.11985 0.68618 0.0
C1746 C 0.87863 0.02625 0.63701 0.0
C1747 C 0.85897 1.00118 0.64238 0.0
C1748 C 0.87511 0.04716 0.64099 0.0
C1749 C 0.85172 0.04356 0.65015 0.0
C1750 C 0.8313 0.01847 0.65432 0.0
C1751 C 0.83492 0.99743 0.65054 0.0
C1752 C 0.82921 0.09263 0.65717 0.0
C1753 C 0.84939 0.11085 0.66997 0.0
C1754 C 0.82941 0.07029 0.651 0.0
C1755 C 0.85009 0.0662 0.65718 0.0
C1756 C 0.87002 0.0843 0.67008 0.0
C1757 C 0.86962 0.10623 0.67647 0.0
H1758 H 0.51779 0.37532 0.71045 0.0
H1759 H 0.54443 0.32602 0.73672 0.0
H1760 H 0.47412 0.33755 0.70421 0.0
H1761 H 0.50138 0.28864 0.72991 0.0
H1762 H 0.44258 0.23278 0.68153 0.0
H1763 H 0.48148 0.27229 0.69197 0.0
H1764 H 0.43273 0.2956 0.72509 0.0
H1765 H 0.39304 0.25531 0.71474 0.0
C1766 C 0.51423 0.35658 0.71526 0.0
C1767 C 0.53482 0.35367 0.7237 0.0
C1768 C 0.48926 0.335 0.71166 0.0
C1769 C 0.48457 0.31021 0.71633 0.0
C1770 C 0.50461 0.30752 0.7259 0.0
C1771 C 0.52932 0.32895 0.72967 0.0
C1772 C 0.43988 0.24626 0.69089 0.0
C1773 C 0.41456 0.2408 0.69726 0.0
C1774 C 0.46229 0.26889 0.69698 0.0
C1775 C 0.46011 0.2869 0.70944 0.0
C1776 C 0.43487 0.28197 0.71546 0.0
C1777 C 0.41225 0.25893 0.7096 0.0
H1778 H 0.65195 0.1325 0.70268 0.0
H1779 H 0.70127 0.20593 0.73185 0.0
H1780 H 0.6908 0.1273 0.69781 0.0
H1781 H 0.73967 0.20076 0.72728 0.0
H1782 H 0.807 0.20141 0.69306 0.0
H1783 H 0.7663 0.20233 0.69796 0.0
H1784 H 0.72612 0.12218 0.71528 0.0
H1785 H 0.76721 0.12121 0.70973 0.0
C1786 C 0.67094 0.14723 0.70845 0.0
C1787 C 0.67359 0.16973 0.71747 0.0
C1788 C 0.69322 0.14433 0.7056 0.0
C1789 C 0.71853 0.16387 0.71175 0.0
C1790 C 0.72071 0.18564 0.7218 0.0
C1791 C 0.69862 0.18852 0.72459 0.0
C1792 C 0.78946 0.18384 0.69752 0.0
C1793 C 0.79027 0.1611 0.70056 0.0
C1794 C 0.76609 0.18443 0.70063 0.0
C1795 C 0.74286 0.16238 0.70723 0.0
C1796 C 0.74354 0.13947 0.71007 0.0
C1797 C 0.76708 0.13893 0.70697 0.0
H1798 H 0.87031 0.51224 0.74731 0.0
H1799 H 0.81519 0.4806 0.69637 0.0
H1800 H 0.87959 0.55547 0.73777 0.0
H1801 H 0.82362 0.52326 0.68736 0.0
H1802 H 0.85667 0.60292 0.66442 0.0
H1803 H 0.85644 0.56352 0.67318 0.0
H1804 H 0.85737 0.58087 0.73841 0.0
H1805 H 0.85796 0.62066 0.72943 0.0
C1806 C 0.86034 0.51453 0.73401 0.0
C1807 C 0.84187 0.49297 0.72269 0.0
C1808 C 0.86546 0.53924 0.72867 0.0
C1809 C 0.85237 0.54287 0.7118 0.0
C1810 C 0.83437 0.5213 0.70026 0.0
C1811 C 0.82925 0.49674 0.7056 0.0
C1812 C 0.85689 0.59842 0.68057 0.0
C1813 C 0.85679 0.6147 0.69614 0.0
C1814 C 0.85679 0.57579 0.68566 0.0
C1815 C 0.85638 0.56873 0.70653 0.0
C1816 C 0.8578 0.58574 0.72217 0.0
C1817 C 0.8581 0.60855 0.71702 0.0
H1818 H 0.45 0.87595 0.23618 0.0
H1819 H 0.45821 0.944 0.26565 0.0
H1820 H 0.4661 0.89948 0.2035 0.0
H1821 H 0.47568 0.96805 0.2336 0.0
H1822 H 0.48201 1.00043 0.17 0.0
H1823 H 0.46378 0.97428 0.20106 0.0
H1824 H 0.5015 0.93047 0.18435 0.0
H1825 H 0.51824 0.9559 0.15256 0.0
C1826 C 0.4557 0.8961 0.2357 0.0
C1827 C 0.45276 0.90815 0.25337 0.0
C1828 C 0.46502 0.90967 0.21699 0.0
C1829 C 0.47203 0.93576 0.21563 0.0
C1830 C 0.4698 0.94787 0.23366 0.0
C1831 C 0.46004 0.93419 0.25218 0.0
C1832 C 0.48605 0.98496 0.17293 0.0
C1833 C 0.50144 0.9801 0.15896 0.0
C1834 C 0.4759 0.97011 0.19088 0.0
C1835 C 0.48144 0.95037 0.19562 0.0
C1836 C 0.49648 0.94523 0.18127 0.0
C1837 C 0.50619 0.95982 0.16306 0.0
H1838 H 0.14677 0.56519 0.22909 0.0
H1839 H 0.07806 0.51565 0.26565 0.0
H1840 H 0.11917 0.5562 0.19839 0.0
H1841 H 0.04997 0.50768 0.23534 0.0
H1842 H 1.00863 0.47807 0.17367 0.0
H1843 H 0.03685 0.48639 0.2039 0.0
H1844 H 0.08872 0.56369 0.18169 0.0
H1845 H 0.06115 0.55453 0.15092 0.0
C1846 C 0.12562 0.55266 0.23055 0.0
C1847 C 0.11447 0.54112 0.24966 0.0
C1848 C 0.10972 0.54758 0.21299 0.0
C1849 C 0.08217 0.5312 0.21423 0.0
C1850 C 0.07108 0.51994 0.23356 0.0
C1851 C 0.0871 0.52464 0.25101 0.0
C1852 C 0.02615 0.49678 0.17533 0.0
C1853 C 0.03281 0.51566 0.16002 0.0
C1854 C 0.04226 0.50169 0.19273 0.0
C1855 C 0.06516 0.52581 0.19546 0.0
C1856 C 0.07163 0.54471 0.18006 0.0
C1857 C 0.05578 0.53958 0.16244 0.0
H1858 H 0.50832 0.61264 0.23896 0.0
H1859 H 0.45802 0.53239 0.25396 0.0
H1860 H 0.52091 0.60084 0.20657 0.0
H1861 H 0.47038 0.52056 0.22103 0.0
H1862 H 0.48562 0.5137 0.1501 0.0
H1863 H 0.46839 0.52445 0.18104 0.0
H1864 H 0.548 0.57982 0.19922 0.0
H1865 H 0.56506 0.56917 0.16852 0.0
C1866 C 0.49997 0.59243 0.23537 0.0
C1867 C 0.48262 0.57344 0.24933 0.0
C1868 C 0.50712 0.5857 0.21674 0.0
C1869 C 0.49693 0.55979 0.21139 0.0
C1870 C 0.47851 0.5407 0.22475 0.0
C1871 C 0.47145 0.54747 0.24358 0.0
C1872 C 0.49934 0.52828 0.16068 0.0
C1873 C 0.52668 0.54058 0.15694 0.0
C1874 C 0.48951 0.53427 0.17843 0.0
C1875 C 0.50685 0.553 0.19252 0.0
C1876 C 0.53413 0.56547 0.18856 0.0
C1877 C 0.54391 0.55926 0.17106 0.0
H1878 H 0.9557 0.4466 0.77087 0.0
H1879 H 0.89124 0.44572 0.8044 0.0
H1880 H 0.98287 0.46116 0.80213 0.0
H1881 H 0.91864 0.46092 0.83555 0.0
H1882 H 0.96231 0.44949 0.89128 0.0
H1883 H 0.93601 0.44137 0.85993 0.0
H1884 H 1.00527 0.49717 0.82669 0.0
H1885 H 0.03162 0.50555 0.85814 0.0
C1886 C 0.94747 0.44985 0.78486 0.0
C1887 C 0.9213 0.4449 0.78521 0.0
C1888 C 0.9631 0.45839 0.80272 0.0
C1889 C 0.95285 0.46205 0.82135 0.0
C1890 C 0.92699 0.45799 0.82149 0.0
C1891 C 0.9114 0.44957 0.80359 0.0
C1892 C 0.97187 0.4604 0.87741 0.0
C1893 C 0.99912 0.47809 0.87723 0.0
C1894 C 0.95677 0.45573 0.85942 0.0
C1895 C 0.96857 0.46859 0.8408 0.0
C1896 C 0.99569 0.4867 0.84072 0.0
C1897 C 1.01078 0.49145 0.85873 0.0
H1898 H 0.57226 0.50403 0.76779 0.0
H1899 H 0.59216 0.45401 0.8016 0.0
H1900 H 0.55204 0.50984 0.79924 0.0
H1901 H 0.57252 0.46031 0.83316 0.0
H1902 H 0.56436 0.50975 0.88756 0.0
H1903 H 0.58353 0.50181 0.85669 0.0
H1904 H 0.51097 0.47746 0.82325 0.0
H1905 H 0.49103 0.48376 0.85428 0.0
C1906 C 0.57231 0.49434 0.78197 0.0
C1907 C 0.5836 0.47848 0.7823 0.0
C1908 C 0.56072 0.49759 0.79989 0.0
C1909 C 0.56079 0.48553 0.81858 0.0
C1910 C 0.57233 0.46988 0.81896 0.0
C1911 C 0.58338 0.46617 0.80093 0.0
C1912 C 0.55219 0.50219 0.87383 0.0
C1913 C 0.52607 0.49758 0.87357 0.0
C1914 C 0.56331 0.49783 0.8561 0.0
C1915 C 0.54877 0.48925 0.8376 0.0
C1916 C 0.52271 0.48444 0.83727 0.0
C1917 C 0.51139 0.48825 0.85507 0.0
H1918 H 0.52576 0.12717 0.79712 0.0
H1919 H 0.57124 0.09185 0.77838 0.0
H1920 H 0.51503 0.10386 0.82984 0.0
H1921 H 0.56069 0.0686 0.81162 0.0
H1922 H 0.54802 0.04668 0.88311 0.0
H1923 H 0.56521 0.07454 0.85229 0.0
H1924 H 0.48594 0.05612 0.83635 0.0
H1925 H 0.46895 0.02846 0.86679 0.0
C1926 C 0.53358 0.11447 0.80003 0.0
C1927 C 0.54883 0.11088 0.78491 0.0
C1928 C 0.52748 0.10119 0.81882 0.0
C1929 C 0.53666 0.0841 0.82316 0.0
C1930 C 0.55335 0.08167 0.80868 0.0
C1931 C 0.55937 0.09495 0.78968 0.0
C1932 C 0.53441 0.04883 0.87304 0.0
C1933 C 0.50716 0.03542 0.87729 0.0
C1934 C 0.54419 0.06456 0.85538 0.0
C1935 C 0.52693 0.06754 0.84196 0.0
C1936 C 0.49978 0.05441 0.84649 0.0
C1937 C 0.49002 0.03847 0.86385 0.0
H1938 H 0.13177 0.21565 0.57473 0.0
H1939 H 0.11007 0.273 0.5892 0.0
H1940 H 0.15054 0.23725 0.54179 0.0
H1941 H 0.12767 0.29363 0.55587 0.0
H1942 H 0.1389 0.30793 0.48501 0.0
H1943 H 0.11824 0.28334 0.51672 0.0
H1944 H 0.18942 0.28145 0.53079 0.0
H1945 H 0.21011 0.30621 0.49929 0.0
C1946 C 0.13103 0.23285 0.57104 0.0
C1947 C 0.11932 0.24247 0.58486 0.0
C1948 C 0.14164 0.24511 0.55204 0.0
C1949 C 0.14043 0.26704 0.54619 0.0
C1950 C 0.12853 0.27653 0.5598 0.0
C1951 C 0.11834 0.26458 0.57892 0.0
C1952 C 0.14998 0.30199 0.49478 0.0
C1953 C 0.17613 0.30905 0.48973 0.0
C1954 C 0.13825 0.28809 0.51297 0.0
C1955 C 0.15225 0.28054 0.52627 0.0
C1956 C 0.17809 0.28686 0.52082 0.0
C1957 C 0.18997 0.30115 0.50286 0.0
H1958 H 0.74218 0.85364 0.59833 0.0
H1959 H 0.81281 0.90081 0.56293 0.0
H1960 H 0.71534 0.84725 0.56752 0.0
H1961 H 0.78639 0.8933 0.53169 0.0
H1962 H 0.73086 0.89357 0.48252 0.0
H1963 H 0.7575 0.90208 0.51382 0.0
H1964 H 0.70259 0.82568 0.53625 0.0
H1965 H 0.67537 0.81811 0.50552 0.0
C1966 C 0.75189 0.8625 0.58384 0.0
C1967 C 0.77945 0.87777 0.58293 0.0
C1968 C 0.73659 0.85868 0.56609 0.0
C1969 C 0.74858 0.86957 0.5469 0.0
C1970 C 0.77629 0.88495 0.54616 0.0
C1971 C 0.79152 0.88919 0.56402 0.0
C1972 C 0.72464 0.8787 0.49422 0.0
C1973 C 0.70111 0.85526 0.49174 0.0
C1974 C 0.73994 0.88345 0.51213 0.0
C1975 C 0.73229 0.86463 0.52776 0.0
C1976 C 0.70889 0.84094 0.52492 0.0
C1977 C 0.69335 0.83644 0.50723 0.0
H1978 H 0.11807 0.89886 0.56754 0.0
H1979 H 0.1807 0.89546 0.60012 0.0
H1980 H 0.13052 0.8858 0.53542 0.0
H1981 H 0.19275 0.88175 0.56835 0.0
H1982 H 0.23011 0.89187 0.50514 0.0
H1983 H 0.21405 0.90156 0.53674 0.0
H1984 H 0.13363 0.85285 0.51623 0.0
H1985 H 0.14994 0.84355 0.4842 0.0
C1986 C 0.13409 0.89471 0.56792 0.0
C1987 C 0.14856 0.89836 0.58627 0.0
C1988 C 0.14127 0.88725 0.54952 0.0
C1989 C 0.16298 0.88313 0.54914 0.0
C1990 C 0.17643 0.88545 0.56786 0.0
C1991 C 0.16941 0.8931 0.58613 0.0
C1992 C 0.20899 0.88314 0.50739 0.0
C1993 C 0.1913 0.86675 0.49224 0.0
C1994 C 0.19973 0.88858 0.52559 0.0
C1995 C 0.17248 0.87765 0.52929 0.0
C1996 C 0.15474 0.8617 0.5139 0.0
C1997 C 0.16406 0.85637 0.49554 0.0
H1998 H 0.62479 0.78142 0.10197 0.0
H1999 H 0.56033 0.77722 0.13785 0.0
H2000 H 0.65288 0.79576 0.13272 0.0
H2001 H 0.58828 0.79124 0.16873 0.0
H2002 H 0.65278 0.83334 0.21785 0.0
H2003 H 0.62698 0.82553 0.18604 0.0
H2004 H 0.65422 0.7747 0.16426 0.0
H2005 H 0.6799 0.78254 0.19583 0.0
C2006 C 0.61672 0.7838 0.11642 0.0
C2007 C 0.59033 0.77803 0.11755 0.0
C2008 C 0.63275 0.79189 0.13405 0.0
C2009 C 0.62271 0.79426 0.15327 0.0
C2010 C 0.5967 0.78978 0.15415 0.0
C2011 C 0.58068 0.78178 0.13646 0.0
C2012 C 0.65312 0.82042 0.20628 0.0
C2013 C 0.66851 0.80868 0.20931 0.0
C2014 C 0.63839 0.81598 0.18805 0.0
C2015 C 0.63874 0.79969 0.1725 0.0
C2016 C 0.654 0.78785 0.17566 0.0
C2017 C 0.66869 0.7923 0.19381 0.0
H2018 H 0.25539 0.78589 0.13497 0.0
H2019 H 0.2408 0.83933 0.1009 0.0
H2020 H 0.23832 0.79486 0.16648 0.0
H2021 H 0.22229 0.84742 0.13203 0.0
H2022 H 0.21496 0.87703 0.19465 0.0
H2023 H 0.23305 0.86794 0.16382 0.0
H2024 H 0.20169 0.7895 0.1846 0.0
H2025 H 0.18499 0.79932 0.216 0.0
C2026 C 0.24803 0.79923 0.13419 0.0
C2027 C 0.24938 0.81191 0.11552 0.0
C2028 C 0.23812 0.80434 0.15225 0.0
C2029 C 0.22889 0.82199 0.15202 0.0
C2030 C 0.22974 0.8342 0.13309 0.0
C2031 C 0.24012 0.82942 0.11514 0.0
C2032 C 0.21212 0.8579 0.1926 0.0
C2033 C 0.19861 0.83888 0.20767 0.0
C2034 C 0.22226 0.85256 0.17481 0.0
C2035 C 0.2187 0.82785 0.17141 0.0
C2036 C 0.20527 0.80886 0.18668 0.0
C2037 C 0.19557 0.8144 0.20469 0.0
H2038 H 0.17805 0.40117 0.10026 0.0
H2039 H 0.24388 0.46429 0.1313 0.0
H2040 H 0.16562 0.37668 0.13249 0.0
H2041 H 0.23117 0.43997 0.16383 0.0
H2042 H 0.20999 0.37836 0.21543 0.0
H2043 H 0.22639 0.40322 0.18325 0.0
H2044 H 0.14613 0.37809 0.16459 0.0
H2045 H 0.12996 0.35316 0.19635 0.0
C2046 C 0.18994 0.40976 0.114 0.0
C2047 C 0.21184 0.43472 0.11325 0.0
C2048 C 0.18273 0.3958 0.13254 0.0
C2049 C 0.19706 0.40649 0.15095 0.0
C2050 C 0.21971 0.43105 0.14999 0.0
C2051 C 0.22704 0.44499 0.13133 0.0
C2052 C 0.19594 0.37841 0.2045 0.0
C2053 C 0.16866 0.36354 0.20833 0.0
C2054 C 0.20531 0.39262 0.18604 0.0
C2055 C 0.18759 0.39234 0.17107 0.0
C2056 C 0.16038 0.3782 0.17539 0.0
C2057 C 0.15107 0.36397 0.19369 0.0
H2058 H 0.74775 0.57184 0.90867 0.0
H2059 H 0.82629 0.58781 0.92507 0.0
H2060 H 0.76503 0.59658 0.87691 0.0
H2061 H 0.84311 0.61138 0.89247 0.0
H2062 H 0.85261 0.62785 0.81991 0.0
H2063 H 0.83517 0.60135 0.85139 0.0
H2064 H 0.79896 0.64574 0.86978 0.0
H2065 H 0.81693 0.67252 0.83871 0.0
C2066 C 0.76873 0.58074 0.90571 0.0
C2067 C 0.78561 0.57804 0.91985 0.0
C2068 C 0.77854 0.59472 0.88732 0.0
C2069 C 0.80539 0.60592 0.88224 0.0
C2070 C 0.82226 0.60276 0.89594 0.0
C2071 C 0.81254 0.58916 0.91461 0.0
C2072 C 0.84075 0.63173 0.83066 0.0
C2073 C 0.836 0.65212 0.82693 0.0
C2074 C 0.83097 0.61675 0.84869 0.0
C2075 C 0.81576 0.62154 0.86302 0.0
C2076 C 0.81053 0.64156 0.85897 0.0
C2077 C 0.82079 0.65686 0.84124 0.0
H2078 H 0.44965 0.17381 0.90426 0.0
H2079 H 0.4404 0.23878 0.9206 0.0
H2080 H 0.42211 0.16616 0.87374 0.0
H2081 H 0.41418 0.23182 0.88922 0.0
H2082 H 0.39608 0.22359 0.81667 0.0
H2083 H 0.42368 0.23174 0.84765 0.0
H2084 H 0.37124 0.1544 0.86884 0.0
H2085 H 0.34333 0.14649 0.83819 0.0
C2086 C 0.44166 0.18638 0.90154 0.0
C2087 C 0.44717 0.20682 0.91517 0.0
C2088 C 0.42607 0.18207 0.8839 0.0
C2089 C 0.41612 0.19842 0.87919 0.0
C2090 C 0.42186 0.21908 0.89248 0.0
C2091 C 0.43699 0.22309 0.91039 0.0
C2092 C 0.39055 0.2084 0.82798 0.0
C2093 C 0.36765 0.18445 0.82515 0.0
C2094 C 0.4062 0.21308 0.84568 0.0
C2095 C 0.3995 0.19367 0.86055 0.0
C2096 C 0.37682 0.16961 0.85754 0.0
C2097 C 0.36087 0.16513 0.8401 0.0
H2098 H 0.84725 0.22781 0.93468 0.0
H2099 H 0.78476 0.23127 0.90192 0.0
H2100 H 0.86004 0.21504 0.90278 0.0
H2101 H 0.79792 0.21908 0.86968 0.0
H2102 H 0.81912 0.17861 0.81802 0.0
H2103 H 0.80191 0.18666 0.85013 0.0
H2104 H 0.88175 0.23622 0.87151 0.0
H2105 H 0.89873 0.22787 0.83979 0.0
C2106 C 0.83613 0.22563 0.92063 0.0
C2107 C 0.81513 0.23068 0.92075 0.0
C2108 C 0.84357 0.21852 0.90229 0.0
C2109 C 0.83038 0.21652 0.8835 0.0
C2110 C 0.80848 0.22033 0.88384 0.0
C2111 C 0.80089 0.22728 0.90231 0.0
C2112 C 0.83292 0.19136 0.82956 0.0
C2113 C 0.86029 0.20238 0.82645 0.0
C2114 C 0.82308 0.19596 0.84797 0.0
C2115 C 0.84041 0.21178 0.86361 0.0
C2116 C 0.86776 0.22333 0.86014 0.0
C2117 C 0.87754 0.21864 0.84187 0.0
H2118 H 0.29323 0.11967 0.43482 0.0
H2119 H 0.22712 0.11153 0.47074 0.0
H2120 H 0.32126 0.13511 0.46555 0.0
H2121 H 0.255 0.12653 0.50171 0.0
H2122 H 0.31918 0.17055 0.55096 0.0
H2123 H 0.29276 0.16166 0.51936 0.0
H2124 H 0.32387 0.11433 0.4967 0.0
H2125 H 0.35019 0.1233 0.52802 0.0
C2126 C 0.2848 0.12145 0.44929 0.0
C2127 C 0.25799 0.11422 0.45047 0.0
C2128 C 0.30077 0.13014 0.46692 0.0
C2129 C 0.29025 0.1316 0.48619 0.0
C2130 C 0.26376 0.12574 0.4871 0.0
C2131 C 0.24779 0.11718 0.46938 0.0
C2132 C 0.32024 0.15816 0.53923 0.0
C2133 C 0.33691 0.14777 0.54192 0.0
C2134 C 0.30514 0.1531 0.52113 0.0
C2135 C 0.30642 0.13752 0.50538 0.0
C2136 C 0.32291 0.12695 0.50825 0.0
C2137 C 0.33797 0.13203 0.52625 0.0
H2138 H 0.95291 0.18098 0.46071 0.0
H2139 H 0.87648 0.11676 0.44446 0.0
H2140 H 0.93407 0.18772 0.49216 0.0
H2141 H 0.85825 0.1228 0.47676 0.0
H2142 H 0.84931 0.12899 0.54963 0.0
H2143 H 0.8681 0.12154 0.51798 0.0
H2144 H 0.89619 0.19984 0.49887 0.0
H2145 H 0.87684 0.20705 0.53016 0.0
C2146 C 0.93207 0.1684 0.46363 0.0
C2147 C 0.91623 0.14846 0.44971 0.0
C2148 C 0.92139 0.17217 0.48183 0.0
C2149 C 0.89477 0.15577 0.48685 0.0
C2150 C 0.87893 0.13557 0.47328 0.0
C2151 C 0.88946 0.1321 0.45482 0.0
C2152 C 0.85961 0.14457 0.53866 0.0
C2153 C 0.86169 0.16858 0.54224 0.0
C2154 C 0.87018 0.14028 0.52056 0.0
C2155 C 0.88351 0.16012 0.50603 0.0
C2156 C 0.88606 0.18427 0.50988 0.0
C2157 C 0.87499 0.18837 0.5277 0.0
H2158 H 0.90472 0.76008 0.44617 0.0
H2159 H 0.85355 0.79033 0.46161 0.0
H2160 H 0.89368 0.73701 0.47945 0.0
H2161 H 0.84235 0.76715 0.49437 0.0
H2162 H 0.8002 0.69352 0.53354 0.0
H2163 H 0.81619 0.72039 0.50264 0.0
H2164 H 0.89644 0.74304 0.5193 0.0
H2165 H 0.88024 0.71582 0.55048 0.0
C2166 C 0.89137 0.76203 0.4567 0.0
C2167 C 0.87956 0.77659 0.45098 0.0
C2168 C 0.88508 0.74886 0.47576 0.0
C2169 C 0.86682 0.74995 0.48939 0.0
C2170 C 0.85602 0.76545 0.48403 0.0
C2171 C 0.86238 0.77865 0.46517 0.0
C2172 C 0.82127 0.70426 0.53066 0.0
C2173 C 0.83895 0.70252 0.54441 0.0
C2174 C 0.83046 0.71979 0.51302 0.0
C2175 C 0.8576 0.73388 0.50852 0.0
C2176 C 0.87541 0.73229 0.5223 0.0
C2177 C 0.86618 0.71693 0.5402 0.0
loop_
_geom_bond_atom_site_label_1
_geom_bond_atom_site_label_2
_geom_bond_distance
_geom_bond_site_symmetry_2
_ccdc_geom_bond_type
H0 C1 0.949 . S
C1 H0 0.949 . S
C1 C2 1.395 . S
C1 C3 1.391 . S
C2 C1 1.395 . S
C2 C5 1.390 . S
C3 C1 1.391 . S
C3 C7 1.387 . S
C3 C8 1.491 . S
H4 C5 0.950 . S
C5 C2 1.390 . S
C5 H4 0.950 . S
C5 C6 1.378 . S
C6 C5 1.378 . S
C6 C7 1.409 . S
C7 C3 1.387 . S
C7 C6 1.409 . S
C7 H9 0.951 . S
C8 C3 1.491 . S
C8 C10 1.382 . S
C8 C12 1.404 . S
H9 C7 0.951 . S
C10 C8 1.382 . S
C10 C11 1.390 . S
C10 H15 0.949 . S
C11 C10 1.390 . S
C11 C16 1.399 . S
C12 C8 1.404 . S
C12 H13 0.950 . S
C12 C14 1.375 . S
H13 C12 0.950 . S
C14 C12 1.375 . S
C14 C16 1.382 . S
C14 H18 0.950 . S
H15 C10 0.949 . S
C16 C11 1.399 . S
C16 C14 1.382 . S
C16 H17 0.952 . S
H17 C16 0.952 . S
H18 C14 0.950 . S
H19 C20 0.949 . S
C20 H19 0.949 . S
C20 C21 1.395 . S
C20 C22 1.391 . S
C21 C20 1.395 . S
C21 C24 1.390 . S
C22 C20 1.391 . S
C22 C26 1.387 . S
C22 C27 1.491 . S
H23 C24 0.950 . S
C24 C21 1.390 . S
C24 H23 0.950 . S
C24 C25 1.378 . S
C25 C24 1.378 . S
C25 C26 1.409 . S
C26 C22 1.387 . S
C26 C25 1.409 . S
C26 H28 0.951 . S
C27 C22 1.491 . S
C27 C29 1.382 . S
C27 C31 1.404 . S
H28 C26 0.951 . S
C29 C27 1.382 . S
C29 C30 1.390 . S
C29 H34 0.949 . S
C30 C29 1.390 . S
C30 C35 1.399 . S
C31 C27 1.404 . S
C31 H32 0.950 . S
C31 C33 1.375 . S
H32 C31 0.950 . S
C33 C31 1.375 . S
C33 C35 1.382 . S
C33 H37 0.950 . S
H34 C29 0.949 . S
C35 C30 1.399 . S
C35 C33 1.382 . S
C35 H36 0.952 1_545 S
H36 C35 0.952 1_565 S
H37 C33 0.950 . S
H38 C39 0.949 . S
C39 H38 0.949 . S
C39 C40 1.395 . S
C39 C41 1.391 . S
C40 C39 1.395 . S
C40 C43 1.390 . S
C41 C39 1.391 . S
C41 C45 1.387 . S
C41 C46 1.491 . S
H42 C43 0.950 . S
C43 C40 1.390 . S
C43 H42 0.950 . S
C43 C44 1.378 . S
C44 C43 1.378 . S
C44 C45 1.409 . S
C45 C41 1.387 . S
C45 C44 1.409 . S
C45 H47 0.951 . S
C46 C41 1.491 . S
C46 C48 1.382 . S
C46 C50 1.404 . S
H47 C45 0.951 . S
C48 C46 1.382 . S
C48 C49 1.390 . S
C48 H53 0.949 . S
C49 C48 1.390 . S
C49 C54 1.399 1_655 S
C50 C46 1.404 . S
C50 H51 0.950 . S
C50 C52 1.375 . S
H51 C50 0.950 . S
C52 C50 1.375 . S
C52 C54 1.382 1_655 S
C52 H56 0.950 . S
H53 C48 0.949 . S
C54 C49 1.399 1_455 S
C54 C52 1.382 1_455 S
C54 H55 0.952 . S
H55 C54 0.952 . S
H56 C52 0.950 . S
H57 C58 0.949 . S
C58 H57 0.949 . S
C58 C59 1.395 . S
C58 C60 1.391 . S
C59 C58 1.395 . S
C59 C62 1.390 . S
C60 C58 1.391 . S
C60 C64 1.387 . S
C60 C65 1.491 . S
H61 C62 0.950 . S
C62 C59 1.390 . S
C62 H61 0.950 . S
C62 C63 1.378 . S
C63 C62 1.378 . S
C63 C64 1.409 . S
C64 C60 1.387 . S
C64 C63 1.409 . S
C64 H66 0.951 . S
C65 C60 1.491 . S
C65 C67 1.382 . S
C65 C69 1.404 . S
H66 C64 0.951 . S
C67 C65 1.382 . S
C67 C68 1.390 . S
C67 H72 0.949 . S
C68 C67 1.390 . S
C68 C73 1.399 . S
C69 C65 1.404 . S
C69 H70 0.950 . S
C69 C71 1.375 . S
H70 C69 0.950 . S
C71 C69 1.375 . S
C71 C73 1.382 . S
C71 H75 0.950 . S
H72 C67 0.949 . S
C73 C68 1.399 . S
C73 C71 1.382 . S
C73 H74 0.952 . S
H74 C73 0.952 . S
H75 C71 0.950 . S
H76 C77 0.949 . S
C77 H76 0.949 . S
C77 C78 1.395 . S
C77 C79 1.391 . S
C78 C77 1.395 . S
C78 C81 1.390 . S
C79 C77 1.391 . S
C79 C83 1.387 . S
C79 C84 1.491 . S
H80 C81 0.950 . S
C81 C78 1.390 . S
C81 H80 0.950 . S
C81 C82 1.378 . S
C82 C81 1.378 . S
C82 C83 1.409 . S
C83 C79 1.387 . S
C83 C82 1.409 . S
C83 H85 0.951 . S
C84 C79 1.491 . S
C84 C86 1.382 . S
C84 C88 1.404 . S
H85 C83 0.951 . S
C86 C84 1.382 . S
C86 C87 1.390 . S
C86 H91 0.949 . S
C87 C86 1.390 . S
C87 C92 1.399 . S
C88 C84 1.404 . S
C88 H89 0.950 . S
C88 C90 1.375 . S
H89 C88 0.950 . S
C90 C88 1.375 . S
C90 C92 1.382 . S
C90 H94 0.950 . S
H91 C86 0.949 . S
C92 C87 1.399 . S
C92 C90 1.382 . S
C92 H93 0.952 1_565 S
H93 C92 0.952 1_545 S
H94 C90 0.950 . S
H95 C96 0.949 . S
C96 H95 0.949 . S
C96 C97 1.395 . S
C96 C98 1.391 . S
C97 C96 1.395 . S
C97 C100 1.390 . S
C98 C96 1.391 . S
C98 C102 1.387 . S
C98 C103 1.491 . S
H99 C100 0.950 . S
C100 C97 1.390 . S
C100 H99 0.950 . S
C100 C101 1.378 . S
C101 C100 1.378 . S
C101 C102 1.409 . S
C102 C98 1.387 . S
C102 C101 1.409 . S
C102 H104 0.951 . S
C103 C98 1.491 . S
C103 C105 1.382 . S
C103 C107 1.404 . S
H104 C102 0.951 . S
C105 C103 1.382 . S
C105 C106 1.390 . S
C105 H110 0.949 . S
C106 C105 1.390 . S
C106 C111 1.399 . S
C107 C103 1.404 . S
C107 H108 0.950 . S
C107 C109 1.375 . S
H108 C107 0.950 . S
C109 C107 1.375 . S
C109 C111 1.382 . S
C109 H113 0.950 . S
H110 C105 0.949 . S
C111 C106 1.399 . S
C111 C109 1.382 . S
C111 H112 0.952 1_455 S
H112 C111 0.952 1_655 S
H113 C109 0.950 . S
H114 C115 0.949 . S
C115 H114 0.949 . S
C115 C116 1.395 . S
C115 C117 1.391 . S
C116 C115 1.395 . S
C116 C119 1.390 . S
C117 C115 1.391 . S
C117 C121 1.387 . S
C117 C122 1.491 . S
H118 C119 0.950 . S
C119 C116 1.390 . S
C119 H118 0.950 . S
C119 C120 1.378 . S
C120 C119 1.378 . S
C120 C121 1.409 . S
C121 C117 1.387 . S
C121 C120 1.409 . S
C121 H123 0.951 . S
C122 C117 1.491 . S
C122 C124 1.382 . S
C122 C126 1.404 . S
H123 C121 0.951 . S
C124 C122 1.382 . S
C124 C125 1.390 . S
C124 H129 0.949 . S
C125 C124 1.390 . S
C125 C130 1.399 . S
C126 C122 1.404 . S
C126 H127 0.950 . S
C126 C128 1.375 . S
H127 C126 0.950 . S
C128 C126 1.375 . S
C128 C130 1.382 . S
C128 H132 0.950 . S
H129 C124 0.949 . S
C130 C125 1.399 . S
C130 C128 1.382 . S
C130 H131 0.952 . S
H131 C130 0.952 . S
H132 C128 0.950 . S
H133 C134 0.949 . S
C134 H133 0.949 . S
C134 C135 1.395 . S
C134 C136 1.391 . S
C135 C134 1.395 . S
C135 C138 1.390 . S
C136 C134 1.391 . S
C136 C140 1.387 . S
C136 C141 1.491 . S
H137 C138 0.950 . S
C138 C135 1.390 . S
C138 H137 0.950 . S
C138 C139 1.378 . S
C139 C138 1.378 . S
C139 C140 1.409 . S
C140 C136 1.387 . S
C140 C139 1.409 . S
C140 H142 0.951 . S
C141 C136 1.491 . S
C141 C143 1.382 . S
C141 C145 1.404 . S
H142 C140 0.951 . S
C143 C141 1.382 . S
C143 C144 1.390 . S
C143 H148 0.949 . S
C144 C143 1.390 . S
C144 C149 1.399 . S
C145 C141 1.404 . S
C145 H146 0.950 . S
C145 C147 1.375 . S
H146 C145 0.950 . S
C147 C145 1.375 . S
C147 C149 1.382 . S
C147 H151 0.950 . S
H148 C143 0.949 . S
C149 C144 1.399 . S
C149 C147 1.382 . S
C149 H150 0.952 . S
H150 C149 0.952 . S
H151 C147 0.950 . S
H152 C153 0.949 . S
C153 H152 0.949 . S
C153 C154 1.395 . S
C153 C155 1.391 . S
C154 C153 1.395 . S
C154 C157 1.390 . S
C155 C153 1.391 . S
C155 C159 1.387 . S
C155 C160 1.491 . S
H156 C157 0.950 . S
C157 C154 1.390 . S
C157 H156 0.950 . S
C157 C158 1.378 . S
C158 C157 1.378 . S
C158 C159 1.409 . S
C159 C155 1.387 . S
C159 C158 1.409 . S
C159 H161 0.951 . S
C160 C155 1.491 . S
C160 C162 1.382 . S
C160 C164 1.404 . S
H161 C159 0.951 . S
C162 C160 1.382 . S
C162 C163 1.390 . S
C162 H167 0.949 . S
C163 C162 1.390 . S
C163 C168 1.399 . S
C164 C160 1.404 . S
C164 H165 0.950 . S
C164 C166 1.375 . S
H165 C164 0.950 . S
C166 C164 1.375 . S
C166 C168 1.382 . S
C166 H170 0.950 . S
H167 C162 0.949 . S
C168 C163 1.399 . S
C168 C166 1.382 . S
C168 H169 0.952 . S
H169 C168 0.952 . S
H170 C166 0.950 . S
H171 C172 0.949 . S
C172 H171 0.949 . S
C172 C173 1.395 . S
C172 C174 1.391 . S
C173 C172 1.395 . S
C173 C176 1.390 . S
C174 C172 1.391 . S
C174 C178 1.387 . S
C174 C179 1.491 . S
H175 C176 0.950 . S
C176 C173 1.390 . S
C176 H175 0.950 . S
C176 C177 1.378 . S
C177 C176 1.378 . S
C177 C178 1.409 . S
C178 C174 1.387 . S
C178 C177 1.409 . S
C178 H180 0.951 . S
C179 C174 1.491 . S
C179 C181 1.382 . S
C179 C183 1.404 . S
H180 C178 0.951 . S
C181 C179 1.382 . S
C181 C182 1.390 . S
C181 H186 0.949 . S
C182 C181 1.390 . S
C182 C187 1.399 . S
C183 C179 1.404 . S
C183 H184 0.950 . S
C183 C185 1.375 . S
H184 C183 0.950 . S
C185 C183 1.375 . S
C185 C187 1.382 . S
C185 H189 0.950 . S
H186 C181 0.949 . S
C187 C182 1.399 . S
C187 C185 1.382 . S
C187 H188 0.952 . S
H188 C187 0.952 . S
H189 C185 0.950 . S
H190 C191 0.949 . S
C191 H190 0.949 . S
C191 C192 1.395 . S
C191 C193 1.391 . S
C192 C191 1.395 . S
C192 C195 1.390 . S
C193 C191 1.391 . S
C193 C197 1.387 . S
C193 C198 1.491 . S
H194 C195 0.950 . S
C195 C192 1.390 . S
C195 H194 0.950 . S
C195 C196 1.378 . S
C196 C195 1.378 . S
C196 C197 1.409 . S
C197 C193 1.387 . S
C197 C196 1.409 . S
C197 H199 0.951 . S
C198 C193 1.491 . S
C198 C200 1.382 . S
C198 C202 1.404 . S
H199 C197 0.951 . S
C200 C198 1.382 . S
C200 C201 1.390 . S
C200 H205 0.949 . S
C201 C200 1.390 . S
C201 C206 1.399 . S
C202 C198 1.404 . S
C202 H203 0.950 . S
C202 C204 1.375 . S
H203 C202 0.950 . S
C204 C202 1.375 . S
C204 C206 1.382 . S
C204 H208 0.950 1_556 S
H205 C200 0.949 . S
C206 C201 1.399 . S
C206 C204 1.382 . S
C206 H207 0.932 1_556 S
H207 C206 0.932 1_554 S
H208 C204 0.950 1_554 S
H209 C210 0.949 . S
C210 H209 0.949 . S
C210 C211 1.395 . S
C210 C212 1.391 . S
C211 C210 1.395 . S
C211 C214 1.390 . S
C212 C210 1.391 . S
C212 C216 1.387 . S
C212 C217 1.491 . S
H213 C214 0.950 . S
C214 C211 1.390 . S
C214 H213 0.950 . S
C214 C215 1.378 . S
C215 C214 1.378 . S
C215 C216 1.409 . S
C216 C212 1.387 . S
C216 C215 1.409 . S
C216 H218 0.951 . S
C217 C212 1.491 . S
C217 C219 1.382 . S
C217 C221 1.404 . S
H218 C216 0.951 . S
C219 C217 1.382 . S
C219 C220 1.390 . S
C219 H224 0.949 . S
C220 C219 1.390 . S
C220 C225 1.399 . S
C221 C217 1.404 . S
C221 H222 0.950 . S
C221 C223 1.375 . S
H222 C221 0.950 . S
C223 C221 1.375 . S
C223 C225 1.382 . S
C223 H227 0.950 . S
H224 C219 0.949 . S
C225 C220 1.399 . S
C225 C223 1.382 . S
C225 H226 0.952 . S
H226 C225 0.952 . S
H227 C223 0.950 . S
H228 C229 0.949 . S
C229 H228 0.949 . S
C229 C230 1.395 . S
C229 C231 1.391 . S
C230 C229 1.395 . S
C230 C233 1.390 . S
C231 C229 1.391 . S
C231 C235 1.387 . S
C231 C236 1.491 . S
H232 C233 0.950 . S
C233 C230 1.390 . S
C233 H232 0.950 . S
C233 C234 1.378 . S
C234 C233 1.378 . S
C234 C235 1.409 . S
C235 C231 1.387 . S
C235 C234 1.409 . S
C235 H237 0.951 . S
C236 C231 1.491 . S
C236 C238 1.382 . S
C236 C240 1.404 . S
H237 C235 0.951 . S
C238 C236 1.382 . S
C238 C239 1.390 . S
C238 H243 0.949 . S
C239 C238 1.390 . S
C239 C244 1.399 . S
C240 C236 1.404 . S
C240 H241 0.950 . S
C240 C242 1.375 . S
H241 C240 0.950 . S
C242 C240 1.375 . S
C242 C244 1.382 . S
C242 H246 0.950 . S
H243 C238 0.949 . S
C244 C239 1.399 . S
C244 C242 1.382 . S
C244 H245 0.952 . S
H245 C244 0.952 . S
H246 C242 0.950 . S
H247 C248 0.949 . S
C248 H247 0.949 . S
C248 C249 1.395 . S
C248 C250 1.391 . S
C249 C248 1.395 . S
C249 C252 1.390 . S
C250 C248 1.391 . S
C250 C254 1.387 . S
C250 C255 1.491 . S
H251 C252 0.950 . S
C252 C249 1.390 . S
C252 H251 0.950 . S
C252 C253 1.378 . S
C253 C252 1.378 . S
C253 C254 1.409 . S
C254 C250 1.387 . S
C254 C253 1.409 . S
C254 H256 0.951 . S
C255 C250 1.491 . S
C255 C257 1.382 . S
C255 C259 1.404 . S
H256 C254 0.951 . S
C257 C255 1.382 . S
C257 C258 1.390 . S
C257 H262 0.949 . S
C258 C257 1.390 . S
C258 C263 1.399 . S
C259 C255 1.404 . S
C259 H260 0.950 . S
C259 C261 1.375 . S
H260 C259 0.950 . S
C261 C259 1.375 . S
C261 C263 1.382 . S
C261 H265 0.950 . S
H262 C257 0.949 . S
C263 C258 1.399 . S
C263 C261 1.382 . S
C263 H264 0.952 . S
H264 C263 0.952 . S
H265 C261 0.950 . S
H266 C267 0.949 . S
C267 H266 0.949 . S
C267 C268 1.395 . S
C267 C269 1.391 . S
C268 C267 1.395 . S
C268 C271 1.390 . S
C269 C267 1.391 . S
C269 C273 1.387 . S
C269 C274 1.491 . S
H270 C271 0.950 . S
C271 C268 1.390 . S
C271 H270 0.950 . S
C271 C272 1.378 . S
C272 C271 1.378 . S
C272 C273 1.409 . S
C273 C269 1.387 . S
C273 C272 1.409 . S
C273 H275 0.951 . S
C274 C269 1.491 . S
C274 C276 1.382 . S
C274 C278 1.404 . S
H275 C273 0.951 . S
C276 C274 1.382 . S
C276 C277 1.390 . S
C276 H281 0.949 . S
C277 C276 1.390 . S
C277 C282 1.399 . S
C278 C274 1.404 . S
C278 H279 0.950 . S
C278 C280 1.375 . S
H279 C278 0.950 . S
C280 C278 1.375 . S
C280 C282 1.382 . S
C280 H284 0.950 . S
H281 C276 0.949 . S
C282 C277 1.399 . S
C282 C280 1.382 . S
C282 H283 0.952 . S
H283 C282 0.952 . S
H284 C280 0.950 . S
H285 C286 0.949 . S
C286 H285 0.949 . S
C286 C287 1.395 . S
C286 C288 1.391 . S
C287 C286 1.395 . S
C287 C290 1.390 . S
C288 C286 1.391 . S
C288 C292 1.387 . S
C288 C293 1.491 . S
H289 C290 0.950 . S
C290 C287 1.390 . S
C290 H289 0.950 . S
C290 C291 1.378 . S
C291 C290 1.378 . S
C291 C292 1.409 . S
C292 C288 1.387 . S
C292 C291 1.409 . S
C292 H294 0.951 . S
C293 C288 1.491 . S
C293 C295 1.382 . S
C293 C297 1.404 . S
H294 C292 0.951 . S
C295 C293 1.382 . S
C295 C296 1.390 . S
C295 H300 0.949 . S
C296 C295 1.390 . S
C296 C301 1.399 . S
C297 C293 1.404 . S
C297 H298 0.950 . S
C297 C299 1.375 . S
H298 C297 0.950 . S
C299 C297 1.375 . S
C299 C301 1.382 . S
C299 H303 0.950 . S
H300 C295 0.949 . S
C301 C296 1.399 . S
C301 C299 1.382 . S
C301 H302 0.952 . S
H302 C301 0.952 . S
H303 C299 0.950 . S
H304 C305 0.949 . S
C305 H304 0.949 . S
C305 C306 1.395 . S
C305 C307 1.391 . S
C306 C305 1.395 . S
C306 C309 1.390 . S
C307 C305 1.391 . S
C307 C311 1.387 . S
C307 C312 1.491 . S
H308 C309 0.950 . S
C309 C306 1.390 . S
C309 H308 0.950 . S
C309 C310 1.378 . S
C310 C309 1.378 . S
C310 C311 1.409 . S
C311 C307 1.387 . S
C311 C310 1.409 . S
C311 H313 0.951 . S
C312 C307 1.491 . S
C312 C314 1.382 . S
C312 C316 1.404 . S
H313 C311 0.951 . S
C314 C312 1.382 . S
C314 C315 1.390 . S
C314 H319 0.949 . S
C315 C314 1.390 . S
C315 C320 1.399 . S
C316 C312 1.404 . S
C316 H317 0.950 . S
C316 C318 1.375 . S
H317 C316 0.950 . S
C318 C316 1.375 . S
C318 C320 1.382 . S
C318 H322 0.950 . S
H319 C314 0.949 . S
C320 C315 1.399 . S
C320 C318 1.382 . S
C320 H321 0.952 . S
H321 C320 0.952 . S
H322 C318 0.950 . S
H323 C324 0.949 . S
C324 H323 0.949 . S
C324 C325 1.395 . S
C324 C326 1.391 . S
C325 C324 1.395 . S
C325 C328 1.390 . S
C326 C324 1.391 . S
C326 C330 1.387 . S
C326 C331 1.491 . S
H327 C328 0.950 . S
C328 C325 1.390 . S
C328 H327 0.950 . S
C328 C329 1.378 . S
C329 C328 1.378 . S
C329 C330 1.409 . S
C330 C326 1.387 . S
C330 C329 1.409 . S
C330 H332 0.951 . S
C331 C326 1.491 . S
C331 C333 1.382 . S
C331 C335 1.404 . S
H332 C330 0.951 . S
C333 C331 1.382 . S
C333 C334 1.390 . S
C333 H338 0.949 . S
C334 C333 1.390 . S
C334 C339 1.399 . S
C335 C331 1.404 . S
C335 H336 0.950 . S
C335 C337 1.375 . S
H336 C335 0.950 . S
C337 C335 1.375 . S
C337 C339 1.382 . S
C337 H341 0.950 . S
H338 C333 0.949 . S
C339 C334 1.399 . S
C339 C337 1.382 . S
C339 H340 0.952 . S
H340 C339 0.952 . S
H341 C337 0.950 . S
Eu342 N373 2.657 . S
Eu342 N380 2.609 . S
Eu342 O386 2.558 . S
Eu342 O387 2.612 1_566 S
Eu342 O389 2.339 1_565 S
Eu342 O390 2.563 1_565 S
Eu342 O391 2.419 1_565 S
Eu342 O393 2.380 1_556 S
Eu342 O394 2.432 . S
Eu342 C406 2.848 1_565 S
C343 C346 1.429 . S
C343 C347 1.411 . S
C343 N350 1.377 . S
C344 C346 1.420 . S
C344 C348 1.423 . S
C344 C356 1.392 . S
C345 C347 1.420 . S
C345 C348 1.351 . S
C345 H368 0.931 . S
C346 C343 1.429 . S
C346 C344 1.420 . S
C346 N354 1.362 . S
C347 C343 1.411 . S
C347 C345 1.420 . S
C347 C352 1.395 . S
C348 C344 1.423 . S
C348 C345 1.351 . S
C348 H360 0.930 . S
C349 C351 1.400 . S
C349 C352 1.386 . S
C349 H361 0.930 . S
N350 C343 1.377 . S
N350 C351 1.321 . S
N350 Eu353 2.609 . S
C351 C349 1.400 . S
C351 N350 1.321 . S
C351 H358 0.930 . S
C352 C347 1.395 . S
C352 C349 1.386 . S
C352 H371 0.930 . S
Eu353 N350 2.609 . S
Eu353 N354 2.657 . S
Eu353 O387 2.380 . S
Eu353 O388 2.432 . S
Eu353 O392 2.558 . S
Eu353 O393 2.612 1_545 S
Eu353 O395 2.339 1_545 S
Eu353 O396 2.563 1_545 S
Eu353 O397 2.419 1_545 S
Eu353 C417 2.847 1_545 S
N354 C346 1.362 . S
N354 Eu353 2.657 . S
N354 C355 1.334 . S
C355 N354 1.334 . S
C355 C357 1.413 . S
C355 H362 0.929 . S
C356 C344 1.392 . S
C356 C357 1.367 . S
C356 H364 0.930 . S
C357 C355 1.413 . S
C357 C356 1.367 . S
C357 H359 0.930 . S
H358 C351 0.930 . S
H359 C357 0.930 . S
H360 C348 0.930 . S
H361 C349 0.930 . S
H362 C355 0.929 . S
H363 C377 0.930 . S
H364 C356 0.930 . S
H365 C383 0.930 . S
H366 C374 0.914 1_545 S
H367 C381 0.930 . S
H368 C345 0.931 . S
H369 C375 0.930 . S
H370 C408 0.930 . S
H371 C352 0.930 . S
H372 C407 0.931 . S
N373 Eu342 2.657 . S
N373 C374 1.334 . S
N373 C378 1.362 . S
C374 H366 0.914 1_565 S
C374 N373 1.334 . S
C374 C377 1.413 . S
C375 H369 0.930 . S
C375 C376 1.392 . S
C375 C377 1.367 . S
C376 C375 1.392 . S
C376 C378 1.420 . S
C376 C408 1.423 . S
C377 H363 0.930 . S
C377 C374 1.413 . S
C377 C375 1.367 . S
C378 N373 1.362 . S
C378 C376 1.420 . S
C378 C382 1.429 . S
H379 C384 0.930 . S
N380 Eu342 2.609 . S
N380 C382 1.377 . S
N380 C383 1.321 . S
C381 H367 0.930 . S
C381 C383 1.400 . S
C381 C384 1.386 . S
C382 C378 1.429 . S
C382 N380 1.377 . S
C382 C385 1.411 . S
C383 H365 0.930 . S
C383 N380 1.321 . S
C383 C381 1.400 . S
C384 H379 0.930 . S
C384 C381 1.386 . S
C384 C385 1.395 . S
C385 C382 1.411 . S
C385 C384 1.395 . S
C385 C407 1.420 . S
O386 Eu342 2.558 . S
O386 C406 1.257 1_565 S
O387 Eu342 2.612 1_544 S
O387 Eu353 2.380 . S
O387 C398 1.276 1_554 S
O388 Eu353 2.432 . S
O388 C405 1.264 . S
O389 Eu342 2.339 1_545 S
O389 C405 1.254 1_556 S
O390 Eu342 2.563 1_545 S
O390 C398 1.235 . S
O391 Eu342 2.419 1_545 S
O391 C406 1.249 . S
O392 Eu353 2.558 . S
O392 C417 1.251 1_545 S
O393 Eu342 2.380 1_554 S
O393 Eu353 2.612 1_565 S
O393 C409 1.276 . S
O394 Eu342 2.432 . S
O394 C416 1.264 1_556 S
O395 Eu353 2.339 1_565 S
O395 C416 1.254 . S
O396 Eu353 2.563 1_565 S
O396 C409 1.235 . S
O397 Eu353 2.419 1_565 S
O397 C417 1.254 . S
C398 O387 1.276 1_556 S
C398 O390 1.235 . S
C399 C401 1.393 . S
C399 C403 1.395 1_545 S
C399 C406 1.492 . S
C400 C401 1.392 . S
C400 C402 1.386 . S
C401 C399 1.393 . S
C401 C400 1.392 . S
C401 H418 0.930 . S
C402 C400 1.386 . S
C402 C404 1.395 . S
C402 H419 0.930 . S
C403 C399 1.395 1_565 S
C403 C404 1.379 1_565 S
C403 H420 0.930 . S
C404 C402 1.395 . S
C404 C403 1.379 1_545 S
C404 H421 0.930 1_545 S
C405 O388 1.264 . S
C405 O389 1.254 1_554 S
C406 Eu342 2.848 1_545 S
C406 O386 1.257 1_545 S
C406 O391 1.249 . S
C406 C399 1.492 . S
C407 H372 0.931 . S
C407 C385 1.420 . S
C407 C408 1.351 . S
C408 H370 0.930 . S
C408 C376 1.423 . S
C408 C407 1.351 . S
C409 O393 1.276 . S
C409 O396 1.235 . S
C410 C411 1.393 . S
C410 C414 1.395 1_565 S
C410 C417 1.493 . S
C411 C410 1.393 . S
C411 C412 1.392 . S
C411 H422 0.930 . S
C412 C411 1.392 . S
C412 C413 1.386 . S
C413 C412 1.386 . S
C413 C415 1.395 . S
C413 H423 0.930 . S
C414 C410 1.395 1_545 S
C414 C415 1.379 1_545 S
C414 H424 0.930 . S
C415 C413 1.395 . S
C415 C414 1.379 1_565 S
C415 H425 0.930 1_565 S
C416 O394 1.264 1_554 S
C416 O395 1.254 . S
C417 Eu353 2.847 1_565 S
C417 O392 1.251 1_565 S
C417 O397 1.254 . S
C417 C410 1.493 . S
H418 C401 0.930 . S
H419 C402 0.930 . S
H420 C403 0.930 . S
H421 C404 0.930 1_565 S
H422 C411 0.930 . S
H423 C413 0.930 . S
H424 C414 0.930 . S
H425 C415 0.930 1_545 S
Eu426 N457 2.657 . S
Eu426 N464 2.609 . S
Eu426 O470 2.558 . S
Eu426 O471 2.612 1_456 S
Eu426 O473 2.339 1_455 S
Eu426 O474 2.563 1_455 S
Eu426 O475 2.419 1_455 S
Eu426 O477 2.380 1_556 S
Eu426 O478 2.432 . S
Eu426 C490 2.848 . S
C427 C430 1.429 . S
C427 C431 1.411 . S
C427 N434 1.377 . S
C428 C430 1.420 . S
C428 C432 1.423 . S
C428 C440 1.392 . S
C429 C431 1.420 . S
C429 C432 1.351 . S
C429 H452 0.931 . S
C430 C427 1.429 . S
C430 C428 1.420 . S
C430 N438 1.362 . S
C431 C427 1.411 . S
C431 C429 1.420 . S
C431 C436 1.395 . S
C432 C428 1.423 . S
C432 C429 1.351 . S
C432 H444 0.930 . S
C433 C435 1.400 . S
C433 C436 1.386 . S
C433 H445 0.930 . S
N434 C427 1.377 . S
N434 C435 1.321 . S
N434 Eu437 2.609 . S
C435 C433 1.400 . S
C435 N434 1.321 . S
C435 H442 0.930 . S
C436 C431 1.395 . S
C436 C433 1.386 . S
C436 H455 0.930 . S
Eu437 N434 2.609 . S
Eu437 N438 2.657 . S
Eu437 O471 2.380 . S
Eu437 O472 2.432 . S
Eu437 O476 2.558 . S
Eu437 O477 2.612 1_655 S
Eu437 O479 2.339 1_655 S
Eu437 O480 2.563 1_655 S
Eu437 O481 2.419 1_655 S
Eu437 C501 2.848 1_655 S
N438 C430 1.362 . S
N438 Eu437 2.657 . S
N438 C439 1.334 . S
C439 N438 1.334 . S
C439 C441 1.413 . S
C439 H446 0.929 1_655 S
C440 C428 1.392 . S
C440 C441 1.367 . S
C440 H448 0.930 . S
C441 C439 1.413 . S
C441 C440 1.367 . S
C441 H443 0.930 . S
H442 C435 0.930 . S
H443 C441 0.930 . S
H444 C432 0.930 . S
H445 C433 0.930 . S
H446 C439 0.929 1_455 S
H447 C461 0.930 . S
H448 C440 0.930 . S
H449 C467 0.930 . S
H450 C458 0.929 . S
H451 C465 0.930 . S
H452 C429 0.931 . S
H453 C459 0.930 . S
H454 C492 0.930 . S
H455 C436 0.930 . S
H456 C491 0.931 . S
N457 Eu426 2.657 . S
N457 C458 1.334 . S
N457 C462 1.362 . S
C458 H450 0.929 . S
C458 N457 1.334 . S
C458 C461 1.413 . S
C459 H453 0.930 . S
C459 C460 1.392 . S
C459 C461 1.367 . S
C460 C459 1.392 . S
C460 C462 1.420 . S
C460 C492 1.423 . S
C461 H447 0.930 . S
C461 C458 1.413 . S
C461 C459 1.367 . S
C462 N457 1.362 . S
C462 C460 1.420 . S
C462 C466 1.429 . S
H463 C468 0.930 . S
N464 Eu426 2.609 . S
N464 C466 1.377 . S
N464 C467 1.321 . S
C465 H451 0.930 . S
C465 C467 1.400 . S
C465 C468 1.386 . S
C466 C462 1.429 . S
C466 N464 1.377 . S
C466 C469 1.411 . S
C467 H449 0.930 . S
C467 N464 1.321 . S
C467 C465 1.400 . S
C468 H463 0.930 . S
C468 C465 1.386 . S
C468 C469 1.395 . S
C469 C466 1.411 . S
C469 C468 1.395 . S
C469 C491 1.420 . S
O470 Eu426 2.558 . S
O470 C490 1.257 . S
O471 Eu426 2.612 1_654 S
O471 Eu437 2.380 . S
O471 C482 1.276 1_554 S
O472 Eu437 2.432 . S
O472 C489 1.264 . S
O473 Eu426 2.339 1_655 S
O473 C489 1.254 1_556 S
O474 Eu426 2.563 1_655 S
O474 C482 1.235 . S
O475 Eu426 2.419 1_655 S
O475 C490 1.249 1_655 S
O476 Eu437 2.558 . S
O476 C501 1.257 1_655 S
O477 Eu426 2.380 1_554 S
O477 Eu437 2.612 1_455 S
O477 C493 1.276 . S
O478 Eu426 2.432 . S
O478 C500 1.264 1_556 S
O479 Eu437 2.339 1_455 S
O479 C500 1.254 . S
O480 Eu437 2.563 1_455 S
O480 C493 1.235 . S
O481 Eu437 2.419 1_455 S
O481 C501 1.249 . S
C482 O471 1.276 1_556 S
C482 O474 1.235 . S
C483 C485 1.393 . S
C483 C487 1.395 1_655 S
C483 C490 1.492 1_655 S
C484 C485 1.392 . S
C484 C486 1.386 . S
C485 C483 1.393 . S
C485 C484 1.392 . S
C485 H502 0.930 . S
C486 C484 1.386 . S
C486 C488 1.395 1_655 S
C486 H503 0.930 . S
C487 C483 1.395 1_455 S
C487 C488 1.379 . S
C487 H504 0.930 . S
C488 C486 1.395 1_455 S
C488 C487 1.379 . S
C488 H505 0.930 . S
C489 O472 1.264 . S
C489 O473 1.254 1_554 S
C490 Eu426 2.848 . S
C490 O470 1.257 . S
C490 O475 1.249 1_455 S
C490 C483 1.492 1_455 S
C491 H456 0.931 . S
C491 C469 1.420 . S
C491 C492 1.351 . S
C492 H454 0.930 . S
C492 C460 1.423 . S
C492 C491 1.351 . S
C493 O477 1.276 . S
C493 O480 1.235 . S
C494 C495 1.393 . S
C494 C498 1.395 1_455 S
C494 C501 1.492 . S
C495 C494 1.393 . S
C495 C496 1.392 . S
C495 H506 0.930 . S
C496 C495 1.392 . S
C496 C497 1.386 . S
C497 C496 1.386 . S
C497 C499 1.395 . S
C497 H507 0.930 . S
C498 C494 1.395 1_655 S
C498 C499 1.379 1_655 S
C498 H508 0.930 . S
C499 C497 1.395 . S
C499 C498 1.379 1_455 S
C499 H509 0.930 1_455 S
C500 O478 1.264 1_554 S
C500 O479 1.254 . S
C501 Eu437 2.848 1_455 S
C501 O476 1.257 1_455 S
C501 O481 1.249 . S
C501 C494 1.492 . S
H502 C485 0.930 . S
H503 C486 0.930 . S
H504 C487 0.930 . S
H505 C488 0.930 . S
H506 C495 0.930 . S
H507 C497 0.930 . S
H508 C498 0.930 . S
H509 C499 0.930 1_655 S
Eu510 N541 2.657 . S
Eu510 N548 2.609 . S
Eu510 O554 2.558 . S
Eu510 O555 2.612 . S
Eu510 O557 2.339 . S
Eu510 O558 2.563 . S
Eu510 O559 2.419 . S
Eu510 O561 2.380 . S
Eu510 O562 2.432 . S
Eu510 C574 2.848 . S
C511 C514 1.429 . S
C511 C515 1.411 . S
C511 N518 1.377 . S
C512 C514 1.420 . S
C512 C516 1.423 . S
C512 C524 1.392 . S
C513 C515 1.420 . S
C513 C516 1.351 . S
C513 H536 0.931 . S
C514 C511 1.429 . S
C514 C512 1.420 . S
C514 N522 1.362 . S
C515 C511 1.411 . S
C515 C513 1.420 . S
C515 C520 1.395 . S
C516 C512 1.423 . S
C516 C513 1.351 . S
C516 H528 0.930 . S
C517 C519 1.400 . S
C517 C520 1.386 . S
C517 H529 0.930 . S
N518 C511 1.377 . S
N518 C519 1.321 . S
N518 Eu521 2.609 . S
C519 C517 1.400 . S
C519 N518 1.321 . S
C519 H526 0.930 . S
C520 C515 1.395 . S
C520 C517 1.386 . S
C520 H539 0.930 . S
Eu521 N518 2.609 . S
Eu521 N522 2.657 . S
Eu521 O555 2.380 1_556 S
Eu521 O556 2.456 . S
Eu521 O560 2.558 . S
Eu521 O561 2.612 1_556 S
Eu521 O563 2.339 . S
Eu521 O564 2.563 . S
Eu521 O565 2.419 . S
Eu521 C585 2.848 . S
N522 C514 1.362 . S
N522 Eu521 2.657 . S
N522 C523 1.334 . S
C523 N522 1.334 . S
C523 C525 1.413 . S
C523 H530 0.929 . S
C524 C512 1.392 . S
C524 C525 1.367 . S
C524 H532 0.930 . S
C525 C523 1.413 . S
C525 C524 1.367 . S
C525 H527 0.930 . S
H526 C519 0.930 . S
H527 C525 0.930 . S
H528 C516 0.930 . S
H529 C517 0.930 . S
H530 C523 0.929 . S
H531 C545 0.930 . S
H532 C524 0.930 . S
H533 C551 0.930 . S
H534 C542 0.929 . S
H535 C549 0.930 . S
H536 C513 0.931 . S
H537 C543 0.930 . S
H538 C576 0.930 . S
H539 C520 0.930 . S
H540 C575 0.931 . S
N541 Eu510 2.657 . S
N541 C542 1.334 . S
N541 C546 1.362 . S
C542 H534 0.929 . S
C542 N541 1.334 . S
C542 C545 1.413 . S
C543 H537 0.930 . S
C543 C544 1.392 . S
C543 C545 1.367 . S
C544 C543 1.392 . S
C544 C546 1.420 . S
C544 C576 1.423 . S
C545 H531 0.930 . S
C545 C542 1.413 . S
C545 C543 1.367 . S
C546 N541 1.362 . S
C546 C544 1.420 . S
C546 C550 1.429 . S
H547 C552 0.930 . S
N548 Eu510 2.609 . S
N548 C550 1.377 . S
N548 C551 1.321 . S
C549 H535 0.930 . S
C549 C551 1.400 . S
C549 C552 1.386 . S
C550 C546 1.429 . S
C550 N548 1.377 . S
C550 C553 1.411 . S
C551 H533 0.930 . S
C551 N548 1.321 . S
C551 C549 1.400 . S
C552 H547 0.930 . S
C552 C549 1.386 . S
C552 C553 1.395 . S
C553 C550 1.411 . S
C553 C552 1.395 . S
C553 C575 1.420 . S
O554 Eu510 2.558 . S
O554 C574 1.257 . S
O555 Eu510 2.612 . S
O555 Eu521 2.380 1_554 S
O555 C566 1.276 . S
O556 Eu521 2.456 . S
O556 C573 1.214 1_556 S
O557 Eu510 2.339 . S
O557 C573 1.254 . S
O558 Eu510 2.563 . S
O558 C566 1.235 . S
O559 Eu510 2.419 . S
O559 C574 1.249 . S
O560 Eu521 2.558 . S
O560 C585 1.257 . S
O561 Eu510 2.380 . S
O561 Eu521 2.612 1_554 S
O561 C577 1.276 1_554 S
O562 Eu510 2.432 . S
O562 C584 1.264 . S
O563 Eu521 2.339 . S
O563 C584 1.254 1_556 S
O564 Eu521 2.563 . S
O564 C577 1.235 . S
O565 Eu521 2.419 . S
O565 C585 1.249 . S
C566 O555 1.276 . S
C566 O558 1.235 . S
C567 C569 1.393 . S
C567 C571 1.395 . S
C567 C574 1.492 . S
C568 C569 1.392 . S
C568 C570 1.386 . S
C569 C567 1.393 . S
C569 C568 1.392 . S
C569 H586 0.930 . S
C570 C568 1.386 . S
C570 C572 1.395 . S
C570 H587 0.930 . S
C571 C567 1.395 . S
C571 C572 1.379 . S
C571 H588 0.930 . S
C572 C570 1.395 . S
C572 C571 1.379 . S
C572 H589 0.930 . S
C573 O556 1.214 1_554 S
C573 O557 1.254 . S
C574 Eu510 2.848 . S
C574 O554 1.257 . S
C574 O559 1.249 . S
C574 C567 1.492 . S
C575 H540 0.931 . S
C575 C553 1.420 . S
C575 C576 1.351 . S
C576 H538 0.930 . S
C576 C544 1.423 . S
C576 C575 1.351 . S
C577 O561 1.276 1_556 S
C577 O564 1.235 . S
C578 C579 1.393 . S
C578 C582 1.395 . S
C578 C585 1.492 . S
C579 C578 1.393 . S
C579 C580 1.392 . S
C579 H590 0.930 . S
C580 C579 1.392 . S
C580 C581 1.386 . S
C581 C580 1.386 . S
C581 C583 1.395 . S
C581 H591 0.930 . S
C582 C578 1.395 . S
C582 C583 1.379 . S
C582 H592 0.930 . S
C583 C581 1.395 . S
C583 C582 1.379 . S
C583 H593 0.930 . S
C584 O562 1.264 . S
C584 O563 1.254 1_554 S
C585 Eu521 2.848 . S
C585 O560 1.257 . S
C585 O565 1.249 . S
C585 C578 1.492 . S
H586 C569 0.930 . S
H587 C570 0.930 . S
H588 C571 0.930 . S
H589 C572 0.930 . S
H590 C579 0.930 . S
H591 C581 0.930 . S
H592 C582 0.930 . S
H593 C583 0.930 . S
Eu594 N625 2.657 . S
Eu594 N632 2.609 . S
Eu594 O638 2.558 . S
Eu594 O639 2.612 . S
Eu594 O641 2.339 . S
Eu594 O642 2.563 . S
Eu594 O643 2.419 . S
Eu594 O645 2.380 . S
Eu594 O646 2.432 . S
Eu594 C658 2.848 . S
C595 C598 1.429 . S
C595 C599 1.411 . S
C595 N602 1.377 . S
C596 C598 1.420 . S
C596 C600 1.423 . S
C596 C608 1.392 . S
C597 C599 1.420 . S
C597 C600 1.351 . S
C597 H620 0.931 . S
C598 C595 1.429 . S
C598 C596 1.420 . S
C598 N606 1.362 . S
C599 C595 1.411 . S
C599 C597 1.420 . S
C599 C604 1.395 . S
C600 C596 1.423 . S
C600 C597 1.351 . S
C600 H612 0.930 . S
C601 C603 1.400 . S
C601 C604 1.386 . S
C601 H613 0.930 . S
N602 C595 1.377 . S
N602 C603 1.321 . S
N602 Eu605 2.609 . S
C603 C601 1.400 . S
C603 N602 1.321 . S
C603 H610 0.930 . S
C604 C599 1.395 . S
C604 C601 1.386 . S
C604 H623 0.930 . S
Eu605 N602 2.609 . S
Eu605 N606 2.657 . S
Eu605 O639 2.380 . S
Eu605 O640 2.432 . S
Eu605 O644 2.558 . S
Eu605 O645 2.612 . S
Eu605 O647 2.339 . S
Eu605 O648 2.563 . S
Eu605 O649 2.419 . S
Eu605 C669 2.848 . S
N606 C598 1.362 . S
N606 Eu605 2.657 . S
N606 C607 1.334 . S
C607 N606 1.334 . S
C607 C609 1.413 . S
C607 H614 0.929 . S
C608 C596 1.392 . S
C608 C609 1.367 . S
C608 H616 0.930 . S
C609 C607 1.413 . S
C609 C608 1.367 . S
C609 H611 0.930 . S
H610 C603 0.930 . S
H611 C609 0.930 . S
H612 C600 0.930 . S
H613 C601 0.930 . S
H614 C607 0.929 . S
H615 C629 0.930 . S
H616 C608 0.930 . S
H617 C635 0.930 . S
H618 C626 0.929 . S
H619 C633 0.930 . S
H620 C597 0.931 . S
H621 C627 0.930 1_655 S
H622 C660 0.930 1_655 S
H623 C604 0.930 . S
H624 C659 0.931 . S
N625 Eu594 2.657 . S
N625 C626 1.334 . S
N625 C630 1.362 . S
C626 H618 0.929 . S
C626 N625 1.334 . S
C626 C629 1.413 . S
C627 H621 0.930 1_455 S
C627 C628 1.392 . S
C627 C629 1.367 . S
C628 C627 1.392 . S
C628 C630 1.420 . S
C628 C660 1.423 . S
C629 H615 0.930 . S
C629 C626 1.413 . S
C629 C627 1.367 . S
C630 N625 1.362 . S
C630 C628 1.420 . S
C630 C634 1.429 . S
H631 C636 0.930 . S
N632 Eu594 2.609 . S
N632 C634 1.377 . S
N632 C635 1.321 . S
C633 H619 0.930 . S
C633 C635 1.400 . S
C633 C636 1.386 . S
C634 C630 1.429 . S
C634 N632 1.377 . S
C634 C637 1.411 . S
C635 H617 0.930 . S
C635 N632 1.321 . S
C635 C633 1.400 . S
C636 H631 0.930 . S
C636 C633 1.386 . S
C636 C637 1.395 . S
C637 C634 1.411 . S
C637 C636 1.395 . S
C637 C659 1.420 . S
O638 Eu594 2.558 . S
O638 C658 1.257 . S
O639 Eu594 2.612 . S
O639 Eu605 2.380 . S
O639 C650 1.276 . S
O640 Eu605 2.432 . S
O640 C657 1.264 . S
O641 Eu594 2.339 . S
O641 C657 1.254 . S
O642 Eu594 2.563 . S
O642 C650 1.235 . S
O643 Eu594 2.419 . S
O643 C658 1.249 . S
O644 Eu605 2.558 . S
O644 C669 1.257 . S
O645 Eu594 2.380 . S
O645 Eu605 2.612 . S
O645 C661 1.276 . S
O646 Eu594 2.432 . S
O646 C668 1.264 . S
O647 Eu605 2.339 . S
O647 C668 1.254 . S
O648 Eu605 2.563 . S
O648 C661 1.235 . S
O649 Eu605 2.419 . S
O649 C669 1.249 . S
C650 O639 1.276 . S
C650 O642 1.235 . S
C651 C653 1.393 . S
C651 C655 1.395 . S
C651 C658 1.492 . S
C652 C653 1.392 . S
C652 C654 1.386 . S
C653 C651 1.393 . S
C653 C652 1.392 . S
C653 H670 0.930 . S
C654 C652 1.386 . S
C654 C656 1.395 . S
C654 H671 0.930 . S
C655 C651 1.395 . S
C655 C656 1.379 . S
C655 H672 0.930 . S
C656 C654 1.395 . S
C656 C655 1.379 . S
C656 H673 0.930 . S
C657 O640 1.264 . S
C657 O641 1.254 . S
C658 Eu594 2.848 . S
C658 O638 1.257 . S
C658 O643 1.249 . S
C658 C651 1.492 . S
C659 H624 0.931 . S
C659 C637 1.420 . S
C659 C660 1.351 . S
C660 H622 0.930 1_455 S
C660 C628 1.423 . S
C660 C659 1.351 . S
C661 O645 1.276 . S
C661 O648 1.235 . S
C662 C663 1.393 . S
C662 C666 1.395 . S
C662 C669 1.492 . S
C663 C662 1.393 . S
C663 C664 1.392 . S
C663 H674 0.930 . S
C664 C663 1.392 . S
C664 C665 1.386 . S
C665 C664 1.386 . S
C665 C667 1.395 . S
C665 H675 0.930 . S
C666 C662 1.395 . S
C666 C667 1.379 . S
C666 H676 0.930 . S
C667 C665 1.395 . S
C667 C666 1.379 . S
C667 H677 0.930 . S
C668 O646 1.264 . S
C668 O647 1.254 . S
C669 Eu605 2.848 . S
C669 O644 1.257 . S
C669 O649 1.249 . S
C669 C662 1.492 . S
H670 C653 0.930 . S
H671 C654 0.930 . S
H672 C655 0.930 . S
H673 C656 0.930 . S
H674 C663 0.930 . S
H675 C665 0.930 . S
H676 C666 0.930 . S
H677 C667 0.930 . S
Eu678 N709 2.657 . S
Eu678 N716 2.609 . S
Eu678 O722 2.558 . S
Eu678 O723 2.612 . S
Eu678 O725 2.339 . S
Eu678 O726 2.563 . S
Eu678 O727 2.419 . S
Eu678 O729 2.380 . S
Eu678 O730 2.432 . S
Eu678 C742 2.848 . S
C679 C682 1.429 . S
C679 C683 1.411 . S
C679 N686 1.377 . S
C680 C682 1.420 . S
C680 C684 1.423 . S
C680 C692 1.392 . S
C681 C683 1.420 . S
C681 C684 1.351 . S
C681 H704 0.931 . S
C682 C679 1.429 . S
C682 C680 1.420 . S
C682 N690 1.362 . S
C683 C679 1.411 . S
C683 C681 1.420 . S
C683 C688 1.395 . S
C684 C680 1.423 . S
C684 C681 1.351 . S
C684 H696 0.930 . S
C685 C687 1.400 . S
C685 C688 1.386 . S
C685 H697 0.930 . S
N686 C679 1.377 . S
N686 C687 1.321 . S
N686 Eu689 2.609 . S
C687 C685 1.400 . S
C687 N686 1.321 . S
C687 H694 0.930 . S
C688 C683 1.395 . S
C688 C685 1.386 . S
C688 H707 0.930 . S
Eu689 N686 2.609 . S
Eu689 N690 2.657 . S
Eu689 O723 2.380 . S
Eu689 O724 2.432 . S
Eu689 O728 2.558 . S
Eu689 O729 2.612 . S
Eu689 O731 2.339 . S
Eu689 O732 2.563 . S
Eu689 O733 2.419 . S
Eu689 C753 2.848 . S
N690 C682 1.362 . S
N690 Eu689 2.657 . S
N690 C691 1.334 . S
C691 N690 1.334 . S
C691 C693 1.413 . S
C691 H698 0.929 . S
C692 C680 1.392 . S
C692 C693 1.367 . S
C692 H700 0.930 . S
C693 C691 1.413 . S
C693 C692 1.367 . S
C693 H695 0.930 . S
H694 C687 0.930 . S
H695 C693 0.930 . S
H696 C684 0.930 . S
H697 C685 0.930 . S
H698 C691 0.929 . S
H699 C713 0.930 . S
H700 C692 0.930 . S
H701 C719 0.930 . S
H702 C710 0.929 . S
H703 C717 0.930 . S
H704 C681 0.931 . S
H705 C711 0.930 . S
H706 C744 0.930 . S
H707 C688 0.930 . S
H708 C743 0.931 . S
N709 Eu678 2.657 . S
N709 C710 1.334 . S
N709 C714 1.362 . S
C710 H702 0.929 . S
C710 N709 1.334 . S
C710 C713 1.413 . S
C711 H705 0.930 . S
C711 C712 1.392 . S
C711 C713 1.367 . S
C712 C711 1.392 . S
C712 C714 1.420 . S
C712 C744 1.423 . S
C713 H699 0.930 . S
C713 C710 1.413 . S
C713 C711 1.367 . S
C714 N709 1.362 . S
C714 C712 1.420 . S
C714 C718 1.429 . S
H715 C720 0.930 . S
N716 Eu678 2.609 . S
N716 C718 1.377 . S
N716 C719 1.321 . S
C717 H703 0.930 . S
C717 C719 1.400 . S
C717 C720 1.386 . S
C718 C714 1.429 . S
C718 N716 1.377 . S
C718 C721 1.411 . S
C719 H701 0.930 . S
C719 N716 1.321 . S
C719 C717 1.400 . S
C720 H715 0.930 . S
C720 C717 1.386 . S
C720 C721 1.395 . S
C721 C718 1.411 . S
C721 C720 1.395 . S
C721 C743 1.420 . S
O722 Eu678 2.558 . S
O722 C742 1.257 . S
O723 Eu678 2.612 . S
O723 Eu689 2.380 . S
O723 C734 1.276 . S
O724 Eu689 2.432 . S
O724 C741 1.264 . S
O725 Eu678 2.339 . S
O725 C741 1.254 . S
O726 Eu678 2.563 . S
O726 C734 1.235 . S
O727 Eu678 2.419 . S
O727 C742 1.249 . S
O728 Eu689 2.558 . S
O728 C753 1.257 . S
O729 Eu678 2.380 . S
O729 Eu689 2.612 . S
O729 C745 1.276 . S
O730 Eu678 2.432 . S
O730 C752 1.264 . S
O731 Eu689 2.339 . S
O731 C752 1.254 . S
O732 Eu689 2.563 . S
O732 C745 1.235 . S
O733 Eu689 2.419 . S
O733 C753 1.249 . S
C734 O723 1.276 . S
C734 O726 1.235 . S
C735 C737 1.393 . S
C735 C739 1.395 . S
C735 C742 1.492 . S
C736 C737 1.392 . S
C736 C738 1.386 . S
C737 C735 1.393 . S
C737 C736 1.392 . S
C737 H754 0.930 . S
C738 C736 1.386 . S
C738 C740 1.395 . S
C738 H755 0.930 . S
C739 C735 1.395 . S
C739 C740 1.379 . S
C739 H756 0.930 . S
C740 C738 1.395 . S
C740 C739 1.379 . S
C740 H757 0.930 . S
C741 O724 1.264 . S
C741 O725 1.254 . S
C742 Eu678 2.848 . S
C742 O722 1.257 . S
C742 O727 1.249 . S
C742 C735 1.492 . S
C743 H708 0.931 . S
C743 C721 1.420 . S
C743 C744 1.351 . S
C744 H706 0.930 . S
C744 C712 1.423 . S
C744 C743 1.351 . S
C745 O729 1.276 . S
C745 O732 1.235 . S
C746 C747 1.393 . S
C746 C750 1.395 . S
C746 C753 1.492 . S
C747 C746 1.393 . S
C747 C748 1.392 . S
C747 H758 0.930 . S
C748 C747 1.392 . S
C748 C749 1.386 . S
C749 C748 1.386 . S
C749 C751 1.395 . S
C749 H759 0.930 . S
C750 C746 1.395 . S
C750 C751 1.379 . S
C750 H760 0.930 . S
C751 C749 1.395 . S
C751 C750 1.379 . S
C751 H761 0.930 . S
C752 O730 1.264 . S
C752 O731 1.254 . S
C753 Eu689 2.848 . S
C753 O728 1.257 . S
C753 O733 1.249 . S
C753 C746 1.492 . S
H754 C737 0.930 . S
H755 C738 0.930 . S
H756 C739 0.930 . S
H757 C740 0.930 . S
H758 C747 0.930 . S
H759 C749 0.930 . S
H760 C750 0.930 . S
H761 C751 0.930 . S
Eu762 N793 2.657 . S
Eu762 N800 2.609 . S
Eu762 O806 2.558 . S
Eu762 O807 2.612 . S
Eu762 O809 2.339 . S
Eu762 O810 2.563 . S
Eu762 O811 2.419 . S
Eu762 O813 2.380 . S
Eu762 O814 2.432 . S
Eu762 C826 2.848 . S
C763 C766 1.429 . S
C763 C767 1.411 . S
C763 N770 1.377 . S
C764 C766 1.420 . S
C764 C768 1.423 . S
C764 C776 1.392 . S
C765 C767 1.420 . S
C765 C768 1.351 . S
C765 H788 0.931 . S
C766 C763 1.429 . S
C766 C764 1.420 . S
C766 N774 1.362 . S
C767 C763 1.411 . S
C767 C765 1.420 . S
C767 C772 1.395 . S
C768 C764 1.423 . S
C768 C765 1.351 . S
C768 H780 0.930 . S
C769 C771 1.400 . S
C769 C772 1.386 . S
C769 H781 0.930 . S
N770 C763 1.377 . S
N770 C771 1.321 . S
N770 Eu773 2.609 . S
C771 C769 1.400 . S
C771 N770 1.321 . S
C771 H778 0.930 . S
C772 C767 1.395 . S
C772 C769 1.386 . S
C772 H791 0.930 . S
Eu773 N770 2.609 . S
Eu773 N774 2.657 . S
Eu773 O807 2.380 . S
Eu773 O808 2.432 . S
Eu773 O812 2.558 . S
Eu773 O813 2.612 . S
Eu773 O815 2.339 . S
Eu773 O816 2.563 . S
Eu773 O817 2.419 . S
Eu773 C837 2.848 . S
N774 C766 1.362 . S
N774 Eu773 2.657 . S
N774 C775 1.334 . S
C775 N774 1.334 . S
C775 C777 1.413 . S
C775 H782 0.929 . S
C776 C764 1.392 . S
C776 C777 1.367 . S
C776 H784 0.930 . S
C777 C775 1.413 . S
C777 C776 1.367 . S
C777 H779 0.930 . S
H778 C771 0.930 . S
H779 C777 0.930 . S
H780 C768 0.930 . S
H781 C769 0.930 . S
H782 C775 0.929 . S
H783 C797 0.930 . S
H784 C776 0.930 . S
H785 C803 0.930 . S
H786 C794 0.929 . S
H787 C801 0.930 . S
H788 C765 0.931 . S
H789 C795 0.930 . S
H790 C828 0.930 . S
H791 C772 0.930 . S
H792 C827 0.931 . S
N793 Eu762 2.657 . S
N793 C794 1.334 . S
N793 C798 1.362 . S
C794 H786 0.929 . S
C794 N793 1.334 . S
C794 C797 1.413 . S
C795 H789 0.930 . S
C795 C796 1.392 . S
C795 C797 1.367 . S
C796 C795 1.392 . S
C796 C798 1.420 . S
C796 C828 1.423 . S
C797 H783 0.930 . S
C797 C794 1.413 . S
C797 C795 1.367 . S
C798 N793 1.362 . S
C798 C796 1.420 . S
C798 C802 1.429 . S
H799 C804 0.930 . S
N800 Eu762 2.609 . S
N800 C802 1.377 . S
N800 C803 1.321 . S
C801 H787 0.930 . S
C801 C803 1.400 . S
C801 C804 1.386 . S
C802 C798 1.429 . S
C802 N800 1.377 . S
C802 C805 1.411 . S
C803 H785 0.930 . S
C803 N800 1.321 . S
C803 C801 1.400 . S
C804 H799 0.930 . S
C804 C801 1.386 . S
C804 C805 1.395 . S
C805 C802 1.411 . S
C805 C804 1.395 . S
C805 C827 1.420 . S
O806 Eu762 2.558 . S
O806 C826 1.257 . S
O807 Eu762 2.612 . S
O807 Eu773 2.380 . S
O807 C818 1.276 . S
O808 Eu773 2.432 . S
O808 C825 1.264 . S
O809 Eu762 2.339 . S
O809 C825 1.254 . S
O810 Eu762 2.563 . S
O810 C818 1.235 . S
O811 Eu762 2.419 . S
O811 C826 1.249 . S
O812 Eu773 2.558 . S
O812 C837 1.257 . S
O813 Eu762 2.380 . S
O813 Eu773 2.612 . S
O813 C829 1.276 . S
O814 Eu762 2.432 . S
O814 C836 1.264 . S
O815 Eu773 2.339 . S
O815 C836 1.254 . S
O816 Eu773 2.563 . S
O816 C829 1.235 . S
O817 Eu773 2.419 . S
O817 C837 1.249 . S
C818 O807 1.276 . S
C818 O810 1.235 . S
C819 C821 1.393 . S
C819 C823 1.395 . S
C819 C826 1.492 . S
C820 C821 1.392 . S
C820 C822 1.386 . S
C821 C819 1.393 . S
C821 C820 1.392 . S
C821 H838 0.930 . S
C822 C820 1.386 . S
C822 C824 1.395 . S
C822 H839 0.930 . S
C823 C819 1.395 . S
C823 C824 1.379 . S
C823 H840 0.930 . S
C824 C822 1.395 . S
C824 C823 1.379 . S
C824 H841 0.930 . S
C825 O808 1.264 . S
C825 O809 1.254 . S
C826 Eu762 2.848 . S
C826 O806 1.257 . S
C826 O811 1.249 . S
C826 C819 1.492 . S
C827 H792 0.931 . S
C827 C805 1.420 . S
C827 C828 1.351 . S
C828 H790 0.930 . S
C828 C796 1.423 . S
C828 C827 1.351 . S
C829 O813 1.276 . S
C829 O816 1.235 . S
C830 C831 1.393 . S
C830 C834 1.395 . S
C830 C837 1.492 . S
C831 C830 1.393 . S
C831 C832 1.392 . S
C831 H842 0.930 . S
C832 C831 1.392 . S
C832 C833 1.386 . S
C833 C832 1.386 . S
C833 C835 1.395 . S
C833 H843 0.930 . S
C834 C830 1.395 . S
C834 C835 1.379 . S
C834 H844 0.930 . S
C835 C833 1.395 . S
C835 C834 1.379 . S
C835 H845 0.930 . S
C836 O814 1.264 . S
C836 O815 1.254 . S
C837 Eu773 2.848 . S
C837 O812 1.257 . S
C837 O817 1.249 . S
C837 C830 1.492 . S
H838 C821 0.930 . S
H839 C822 0.930 . S
H840 C823 0.930 . S
H841 C824 0.930 . S
H842 C831 0.930 . S
H843 C833 0.930 . S
H844 C834 0.930 . S
H845 C835 0.930 . S
Eu846 N877 2.657 . S
Eu846 N884 2.609 . S
Eu846 O890 2.558 . S
Eu846 O891 2.612 . S
Eu846 O893 2.339 . S
Eu846 O894 2.563 . S
Eu846 O895 2.419 . S
Eu846 O897 2.380 . S
Eu846 O898 2.432 . S
Eu846 C910 2.848 . S
C847 C850 1.429 . S
C847 C851 1.411 . S
C847 N854 1.377 . S
C848 C850 1.420 . S
C848 C852 1.423 . S
C848 C860 1.392 . S
C849 C851 1.420 . S
C849 C852 1.351 . S
C849 H872 0.931 . S
C850 C847 1.429 . S
C850 C848 1.420 . S
C850 N858 1.362 . S
C851 C847 1.411 . S
C851 C849 1.420 . S
C851 C856 1.395 . S
C852 C848 1.423 . S
C852 C849 1.351 . S
C852 H864 0.930 . S
C853 C855 1.400 . S
C853 C856 1.386 . S
C853 H865 0.930 . S
N854 C847 1.377 . S
N854 C855 1.321 . S
N854 Eu857 2.609 . S
C855 C853 1.400 . S
C855 N854 1.321 . S
C855 H862 0.930 . S
C856 C851 1.395 . S
C856 C853 1.386 . S
C856 H875 0.930 . S
Eu857 N854 2.609 . S
Eu857 N858 2.657 . S
Eu857 O891 2.380 . S
Eu857 O892 2.432 . S
Eu857 O896 2.558 . S
Eu857 O897 2.612 . S
Eu857 O899 2.339 . S
Eu857 O900 2.563 . S
Eu857 O901 2.419 . S
Eu857 C921 2.848 . S
N858 C850 1.362 . S
N858 Eu857 2.657 . S
N858 C859 1.334 . S
C859 N858 1.334 . S
C859 C861 1.413 . S
C859 H866 0.929 . S
C860 C848 1.392 . S
C860 C861 1.367 . S
C860 H868 0.930 . S
C861 C859 1.413 . S
C861 C860 1.367 . S
C861 H863 0.930 . S
H862 C855 0.930 . S
H863 C861 0.930 . S
H864 C852 0.930 . S
H865 C853 0.930 . S
H866 C859 0.929 . S
H867 C881 0.930 . S
H868 C860 0.930 . S
H869 C887 0.930 . S
H870 C878 0.929 . S
H871 C885 0.930 . S
H872 C849 0.931 . S
H873 C879 0.930 . S
H874 C912 0.930 . S
H875 C856 0.930 . S
H876 C911 0.931 . S
N877 Eu846 2.657 . S
N877 C878 1.334 . S
N877 C882 1.362 . S
C878 H870 0.929 . S
C878 N877 1.334 . S
C878 C881 1.413 . S
C879 H873 0.930 . S
C879 C880 1.392 . S
C879 C881 1.367 . S
C880 C879 1.392 . S
C880 C882 1.420 . S
C880 C912 1.423 . S
C881 H867 0.930 . S
C881 C878 1.413 . S
C881 C879 1.367 . S
C882 N877 1.362 . S
C882 C880 1.420 . S
C882 C886 1.429 . S
H883 C888 0.930 . S
N884 Eu846 2.609 . S
N884 C886 1.377 . S
N884 C887 1.321 . S
C885 H871 0.930 . S
C885 C887 1.400 . S
C885 C888 1.386 . S
C886 C882 1.429 . S
C886 N884 1.377 . S
C886 C889 1.411 . S
C887 H869 0.930 . S
C887 N884 1.321 . S
C887 C885 1.400 . S
C888 H883 0.930 . S
C888 C885 1.386 . S
C888 C889 1.395 . S
C889 C886 1.411 . S
C889 C888 1.395 . S
C889 C911 1.420 . S
O890 Eu846 2.558 . S
O890 C910 1.257 . S
O891 Eu846 2.612 . S
O891 Eu857 2.380 . S
O891 C902 1.276 . S
O892 Eu857 2.432 . S
O892 C909 1.264 . S
O893 Eu846 2.339 . S
O893 C909 1.254 . S
O894 Eu846 2.563 . S
O894 C902 1.235 . S
O895 Eu846 2.419 . S
O895 C910 1.249 . S
O896 Eu857 2.558 . S
O896 C921 1.257 . S
O897 Eu846 2.380 . S
O897 Eu857 2.612 . S
O897 C913 1.276 . S
O898 Eu846 2.432 . S
O898 C920 1.264 . S
O899 Eu857 2.339 . S
O899 C920 1.254 . S
O900 Eu857 2.563 . S
O900 C913 1.235 . S
O901 Eu857 2.419 . S
O901 C921 1.249 . S
C902 O891 1.276 . S
C902 O894 1.235 . S
C903 C905 1.393 . S
C903 C907 1.395 . S
C903 C910 1.492 . S
C904 C905 1.392 . S
C904 C906 1.386 . S
C905 C903 1.393 . S
C905 C904 1.392 . S
C905 H922 0.930 . S
C906 C904 1.386 . S
C906 C908 1.395 . S
C906 H923 0.930 . S
C907 C903 1.395 . S
C907 C908 1.379 . S
C907 H924 0.930 . S
C908 C906 1.395 . S
C908 C907 1.379 . S
C908 H925 0.930 . S
C909 O892 1.264 . S
C909 O893 1.254 . S
C910 Eu846 2.848 . S
C910 O890 1.257 . S
C910 O895 1.249 . S
C910 C903 1.492 . S
C911 H876 0.931 . S
C911 C889 1.420 . S
C911 C912 1.351 . S
C912 H874 0.930 . S
C912 C880 1.423 . S
C912 C911 1.351 . S
C913 O897 1.276 . S
C913 O900 1.235 . S
C914 C915 1.393 . S
C914 C918 1.395 . S
C914 C921 1.492 . S
C915 C914 1.393 . S
C915 C916 1.392 . S
C915 H926 0.930 . S
C916 C915 1.392 . S
C916 C917 1.386 . S
C917 C916 1.386 . S
C917 C919 1.395 . S
C917 H927 0.930 . S
C918 C914 1.395 . S
C918 C919 1.379 . S
C918 H928 0.930 . S
C919 C917 1.395 . S
C919 C918 1.379 . S
C919 H929 0.930 . S
C920 O898 1.264 . S
C920 O899 1.254 . S
C921 Eu857 2.848 . S
C921 O896 1.257 . S
C921 O901 1.249 . S
C921 C914 1.492 . S
H922 C905 0.930 . S
H923 C906 0.930 . S
H924 C907 0.930 . S
H925 C908 0.930 . S
H926 C915 0.930 . S
H927 C917 0.930 . S
H928 C918 0.930 . S
H929 C919 0.930 . S
Eu930 N961 2.657 . S
Eu930 N968 2.609 . S
Eu930 O974 2.558 . S
Eu930 O975 2.612 . S
Eu930 O977 2.339 . S
Eu930 O978 2.563 . S
Eu930 O979 2.419 . S
Eu930 O981 2.380 . S
Eu930 O982 2.432 . S
Eu930 C994 2.848 . S
C931 C934 1.429 . S
C931 C935 1.411 . S
C931 N938 1.377 . S
C932 C934 1.420 . S
C932 C936 1.423 . S
C932 C944 1.392 . S
C933 C935 1.420 . S
C933 C936 1.351 . S
C933 H956 0.931 . S
C934 C931 1.429 . S
C934 C932 1.420 . S
C934 N942 1.362 . S
C935 C931 1.411 . S
C935 C933 1.420 . S
C935 C940 1.395 . S
C936 C932 1.423 . S
C936 C933 1.351 . S
C936 H948 0.930 . S
C937 C939 1.400 . S
C937 C940 1.386 . S
C937 H949 0.930 . S
N938 C931 1.377 . S
N938 C939 1.321 . S
N938 Eu941 2.609 . S
C939 C937 1.400 . S
C939 N938 1.321 . S
C939 H946 0.930 . S
C940 C935 1.395 . S
C940 C937 1.386 . S
C940 H959 0.930 . S
Eu941 N938 2.609 . S
Eu941 N942 2.657 . S
Eu941 O975 2.380 . S
Eu941 O976 2.432 . S
Eu941 O980 2.558 . S
Eu941 O981 2.612 . S
Eu941 O983 2.339 . S
Eu941 O984 2.563 . S
Eu941 O985 2.419 . S
Eu941 C1005 2.848 . S
N942 C934 1.362 . S
N942 Eu941 2.657 . S
N942 C943 1.334 . S
C943 N942 1.334 . S
C943 C945 1.413 . S
C943 H950 0.929 . S
C944 C932 1.392 . S
C944 C945 1.367 . S
C944 H952 0.930 . S
C945 C943 1.413 . S
C945 C944 1.367 . S
C945 H947 0.930 . S
H946 C939 0.930 . S
H947 C945 0.930 . S
H948 C936 0.930 . S
H949 C937 0.930 . S
H950 C943 0.929 . S
H951 C965 0.930 . S
H952 C944 0.930 . S
H953 C971 0.930 . S
H954 C962 0.929 . S
H955 C969 0.930 . S
H956 C933 0.931 . S
H957 C963 0.930 . S
H958 C996 0.930 . S
H959 C940 0.930 . S
H960 C995 0.931 . S
N961 Eu930 2.657 . S
N961 C962 1.334 . S
N961 C966 1.362 . S
C962 H954 0.929 . S
C962 N961 1.334 . S
C962 C965 1.413 . S
C963 H957 0.930 . S
C963 C964 1.392 . S
C963 C965 1.367 . S
C964 C963 1.392 . S
C964 C966 1.420 . S
C964 C996 1.423 . S
C965 H951 0.930 . S
C965 C962 1.413 . S
C965 C963 1.367 . S
C966 N961 1.362 . S
C966 C964 1.420 . S
C966 C970 1.429 . S
H967 C972 0.930 . S
N968 Eu930 2.609 . S
N968 C970 1.377 . S
N968 C971 1.321 . S
C969 H955 0.930 . S
C969 C971 1.400 . S
C969 C972 1.386 . S
C970 C966 1.429 . S
C970 N968 1.377 . S
C970 C973 1.411 . S
C971 H953 0.930 . S
C971 N968 1.321 . S
C971 C969 1.400 . S
C972 H967 0.930 . S
C972 C969 1.386 . S
C972 C973 1.395 . S
C973 C970 1.411 . S
C973 C972 1.395 . S
C973 C995 1.420 . S
O974 Eu930 2.558 . S
O974 C994 1.257 . S
O975 Eu930 2.612 . S
O975 Eu941 2.380 . S
O975 C986 1.276 . S
O976 Eu941 2.432 . S
O976 C993 1.264 . S
O977 Eu930 2.339 . S
O977 C993 1.254 . S
O978 Eu930 2.563 . S
O978 C986 1.235 . S
O979 Eu930 2.419 . S
O979 C994 1.249 . S
O980 Eu941 2.558 . S
O980 C1005 1.257 . S
O981 Eu930 2.380 . S
O981 Eu941 2.612 . S
O981 C997 1.276 . S
O982 Eu930 2.432 . S
O982 C1004 1.264 . S
O983 Eu941 2.339 . S
O983 C1004 1.254 . S
O984 Eu941 2.563 . S
O984 C997 1.235 . S
O985 Eu941 2.419 . S
O985 C1005 1.249 . S
C986 O975 1.276 . S
C986 O978 1.235 . S
C987 C989 1.393 . S
C987 C991 1.395 . S
C987 C994 1.492 . S
C988 C989 1.392 . S
C988 C990 1.386 . S
C989 C987 1.393 . S
C989 C988 1.392 . S
C989 H1006 0.930 . S
C990 C988 1.386 . S
C990 C992 1.395 . S
C990 H1007 0.930 . S
C991 C987 1.395 . S
C991 C992 1.379 . S
C991 H1008 0.930 . S
C992 C990 1.395 . S
C992 C991 1.379 . S
C992 H1009 0.930 . S
C993 O976 1.264 . S
C993 O977 1.254 . S
C994 Eu930 2.848 . S
C994 O974 1.257 . S
C994 O979 1.249 . S
C994 C987 1.492 . S
C995 H960 0.931 . S
C995 C973 1.420 . S
C995 C996 1.351 . S
C996 H958 0.930 . S
C996 C964 1.423 . S
C996 C995 1.351 . S
C997 O981 1.276 . S
C997 O984 1.235 . S
C998 C999 1.393 . S
C998 C1002 1.395 . S
C998 C1005 1.492 . S
C999 C998 1.393 . S
C999 C1000 1.392 . S
C999 H1010 0.930 . S
C1000 C999 1.392 . S
C1000 C1001 1.386 . S
C1001 C1000 1.386 . S
C1001 C1003 1.395 . S
C1001 H1011 0.930 . S
C1002 C998 1.395 . S
C1002 C1003 1.379 . S
C1002 H1012 0.930 . S
C1003 C1001 1.395 . S
C1003 C1002 1.379 . S
C1003 H1013 0.930 . S
C1004 O982 1.264 . S
C1004 O983 1.254 . S
C1005 Eu941 2.848 . S
C1005 O980 1.257 . S
C1005 O985 1.249 . S
C1005 C998 1.492 . S
H1006 C989 0.930 . S
H1007 C990 0.930 . S
H1008 C991 0.930 . S
H1009 C992 0.930 . S
H1010 C999 0.930 . S
H1011 C1001 0.930 . S
H1012 C1002 0.930 . S
H1013 C1003 0.930 . S
Eu1014 N1045 2.657 . S
Eu1014 N1052 2.609 . S
Eu1014 O1058 2.558 . S
Eu1014 O1059 2.612 . S
Eu1014 O1061 2.339 . S
Eu1014 O1062 2.563 . S
Eu1014 O1063 2.419 . S
Eu1014 O1065 2.380 . S
Eu1014 O1066 2.432 . S
Eu1014 C1078 2.848 . S
C1015 C1018 1.429 . S
C1015 C1019 1.411 . S
C1015 N1022 1.377 . S
C1016 C1018 1.420 . S
C1016 C1020 1.423 . S
C1016 C1028 1.392 . S
C1017 C1019 1.420 . S
C1017 C1020 1.351 . S
C1017 H1040 0.931 . S
C1018 C1015 1.429 . S
C1018 C1016 1.420 . S
C1018 N1026 1.362 . S
C1019 C1015 1.411 . S
C1019 C1017 1.420 . S
C1019 C1024 1.395 . S
C1020 C1016 1.423 . S
C1020 C1017 1.351 . S
C1020 H1032 0.930 . S
C1021 C1023 1.400 . S
C1021 C1024 1.386 . S
C1021 H1033 0.930 . S
N1022 C1015 1.377 . S
N1022 C1023 1.321 . S
N1022 Eu1025 2.609 . S
C1023 C1021 1.400 . S
C1023 N1022 1.321 . S
C1023 H1030 0.930 . S
C1024 C1019 1.395 . S
C1024 C1021 1.386 . S
C1024 H1043 0.930 . S
Eu1025 N1022 2.609 . S
Eu1025 N1026 2.657 . S
Eu1025 O1059 2.380 . S
Eu1025 O1060 2.432 . S
Eu1025 O1064 2.558 . S
Eu1025 O1065 2.612 . S
Eu1025 O1067 2.339 . S
Eu1025 O1068 2.563 . S
Eu1025 O1069 2.419 . S
Eu1025 C1089 2.848 . S
N1026 C1018 1.362 . S
N1026 Eu1025 2.657 . S
N1026 C1027 1.334 . S
C1027 N1026 1.334 . S
C1027 C1029 1.413 . S
C1027 H1034 0.929 . S
C1028 C1016 1.392 . S
C1028 C1029 1.367 . S
C1028 H1036 0.930 . S
C1029 C1027 1.413 . S
C1029 C1028 1.367 . S
C1029 H1031 0.930 . S
H1030 C1023 0.930 . S
H1031 C1029 0.930 . S
H1032 C1020 0.930 . S
H1033 C1021 0.930 . S
H1034 C1027 0.929 . S
H1035 C1049 0.930 . S
H1036 C1028 0.930 . S
H1037 C1055 0.930 . S
H1038 C1046 0.929 . S
H1039 C1053 0.930 . S
H1040 C1017 0.931 . S
H1041 C1047 0.930 1_455 S
H1042 C1080 0.930 1_455 S
H1043 C1024 0.930 . S
H1044 C1079 0.931 . S
N1045 Eu1014 2.657 . S
N1045 C1046 1.334 . S
N1045 C1050 1.362 . S
C1046 H1038 0.929 . S
C1046 N1045 1.334 . S
C1046 C1049 1.413 . S
C1047 H1041 0.930 1_655 S
C1047 C1048 1.392 . S
C1047 C1049 1.367 . S
C1048 C1047 1.392 . S
C1048 C1050 1.420 . S
C1048 C1080 1.423 . S
C1049 H1035 0.930 . S
C1049 C1046 1.413 . S
C1049 C1047 1.367 . S
C1050 N1045 1.362 . S
C1050 C1048 1.420 . S
C1050 C1054 1.429 . S
H1051 C1056 0.930 . S
N1052 Eu1014 2.609 . S
N1052 C1054 1.377 . S
N1052 C1055 1.321 . S
C1053 H1039 0.930 . S
C1053 C1055 1.400 . S
C1053 C1056 1.386 . S
C1054 C1050 1.429 . S
C1054 N1052 1.377 . S
C1054 C1057 1.411 . S
C1055 H1037 0.930 . S
C1055 N1052 1.321 . S
C1055 C1053 1.400 . S
C1056 H1051 0.930 . S
C1056 C1053 1.386 . S
C1056 C1057 1.395 . S
C1057 C1054 1.411 . S
C1057 C1056 1.395 . S
C1057 C1079 1.420 . S
O1058 Eu1014 2.558 . S
O1058 C1078 1.257 . S
O1059 Eu1014 2.612 . S
O1059 Eu1025 2.380 . S
O1059 C1070 1.276 . S
O1060 Eu1025 2.432 . S
O1060 C1077 1.264 . S
O1061 Eu1014 2.339 . S
O1061 C1077 1.254 . S
O1062 Eu1014 2.563 . S
O1062 C1070 1.235 . S
O1063 Eu1014 2.419 . S
O1063 C1078 1.249 . S
O1064 Eu1025 2.558 . S
O1064 C1089 1.257 . S
O1065 Eu1014 2.380 . S
O1065 Eu1025 2.612 . S
O1065 C1081 1.276 . S
O1066 Eu1014 2.432 . S
O1066 C1088 1.264 . S
O1067 Eu1025 2.339 . S
O1067 C1088 1.254 . S
O1068 Eu1025 2.563 . S
O1068 C1081 1.235 . S
O1069 Eu1025 2.419 . S
O1069 C1089 1.249 . S
C1070 O1059 1.276 . S
C1070 O1062 1.235 . S
C1071 C1073 1.393 . S
C1071 C1075 1.395 . S
C1071 C1078 1.492 . S
C1072 C1073 1.392 . S
C1072 C1074 1.386 . S
C1073 C1071 1.393 . S
C1073 C1072 1.392 . S
C1073 H1090 0.930 . S
C1074 C1072 1.386 . S
C1074 C1076 1.395 . S
C1074 H1091 0.930 . S
C1075 C1071 1.395 . S
C1075 C1076 1.379 . S
C1075 H1092 0.930 . S
C1076 C1074 1.395 . S
C1076 C1075 1.379 . S
C1076 H1093 0.930 . S
C1077 O1060 1.264 . S
C1077 O1061 1.254 . S
C1078 Eu1014 2.848 . S
C1078 O1058 1.257 . S
C1078 O1063 1.249 . S
C1078 C1071 1.492 . S
C1079 H1044 0.931 . S
C1079 C1057 1.420 . S
C1079 C1080 1.351 . S
C1080 H1042 0.930 1_655 S
C1080 C1048 1.423 . S
C1080 C1079 1.351 . S
C1081 O1065 1.276 . S
C1081 O1068 1.235 . S
C1082 C1083 1.393 . S
C1082 C1086 1.395 . S
C1082 C1089 1.492 . S
C1083 C1082 1.393 . S
C1083 C1084 1.392 . S
C1083 H1094 0.930 . S
C1084 C1083 1.392 . S
C1084 C1085 1.386 . S
C1085 C1084 1.386 . S
C1085 C1087 1.395 . S
C1085 H1095 0.930 . S
C1086 C1082 1.395 . S
C1086 C1087 1.379 . S
C1086 H1096 0.930 . S
C1087 C1085 1.395 . S
C1087 C1086 1.379 . S
C1087 H1097 0.930 . S
C1088 O1066 1.264 . S
C1088 O1067 1.254 . S
C1089 Eu1025 2.848 . S
C1089 O1064 1.257 . S
C1089 O1069 1.249 . S
C1089 C1082 1.492 . S
H1090 C1073 0.930 . S
H1091 C1074 0.930 . S
H1092 C1075 0.930 . S
H1093 C1076 0.930 . S
H1094 C1083 0.930 . S
H1095 C1085 0.930 . S
H1096 C1086 0.930 . S
H1097 C1087 0.930 . S
H1098 C1106 0.950 . S
H1099 C1111 0.950 . S
H1100 C1108 0.950 . S
H1101 C1110 0.950 . S
H1102 C1112 0.950 . S
H1103 C1114 0.950 . S
H1104 C1116 0.950 . S
H1105 C1117 0.950 1_556 S
C1106 H1098 0.950 . S
C1106 C1107 1.386 . S
C1106 C1108 1.391 . S
C1107 C1106 1.386 . S
C1107 C1111 1.393 . S
C1108 H1100 0.950 . S
C1108 C1106 1.391 . S
C1108 C1109 1.400 . S
C1109 C1108 1.400 . S
C1109 C1110 1.398 . S
C1109 C1115 1.491 . S
C1110 H1101 0.950 . S
C1110 C1109 1.398 . S
C1110 C1111 1.391 . S
C1111 H1099 0.950 . S
C1111 C1107 1.393 . S
C1111 C1110 1.391 . S
C1112 H1102 0.950 . S
C1112 C1113 1.386 . S
C1112 C1114 1.391 . S
C1113 C1112 1.386 . S
C1113 C1117 1.393 . S
C1114 H1103 0.950 . S
C1114 C1112 1.391 . S
C1114 C1115 1.400 . S
C1115 C1109 1.491 . S
C1115 C1114 1.400 . S
C1115 C1116 1.398 . S
C1116 H1104 0.950 . S
C1116 C1115 1.398 . S
C1116 C1117 1.391 . S
C1117 H1105 0.950 1_554 S
C1117 C1113 1.393 . S
C1117 C1116 1.391 . S
H1118 C1126 0.950 . S
H1119 C1131 0.950 . S
H1120 C1128 0.950 . S
H1121 C1130 0.950 . S
H1122 C1132 0.950 . S
H1123 C1134 0.950 . S
H1124 C1136 0.950 . S
H1125 C1137 0.950 . S
C1126 H1118 0.950 . S
C1126 C1127 1.386 . S
C1126 C1128 1.391 . S
C1127 C1126 1.386 . S
C1127 C1131 1.393 . S
C1128 H1120 0.950 . S
C1128 C1126 1.391 . S
C1128 C1129 1.400 . S
C1129 C1128 1.400 . S
C1129 C1130 1.398 . S
C1129 C1135 1.491 . S
C1130 H1121 0.950 . S
C1130 C1129 1.398 . S
C1130 C1131 1.391 . S
C1131 H1119 0.950 . S
C1131 C1127 1.393 . S
C1131 C1130 1.391 . S
C1132 H1122 0.950 . S
C1132 C1133 1.386 . S
C1132 C1134 1.391 . S
C1133 C1132 1.386 . S
C1133 C1137 1.393 . S
C1134 H1123 0.950 . S
C1134 C1132 1.391 . S
C1134 C1135 1.400 . S
C1135 C1129 1.491 . S
C1135 C1134 1.400 . S
C1135 C1136 1.398 . S
C1136 H1124 0.950 . S
C1136 C1135 1.398 . S
C1136 C1137 1.391 . S
C1137 H1125 0.950 . S
C1137 C1133 1.393 . S
C1137 C1136 1.391 . S
H1138 C1146 0.950 . S
H1139 C1151 0.950 . S
H1140 C1148 0.950 . S
H1141 C1150 0.950 . S
H1142 C1152 0.950 . S
H1143 C1154 0.950 . S
H1144 C1156 0.950 . S
H1145 C1157 0.950 1_556 S
C1146 H1138 0.950 . S
C1146 C1147 1.386 . S
C1146 C1148 1.391 . S
C1147 C1146 1.386 . S
C1147 C1151 1.393 . S
C1148 H1140 0.950 . S
C1148 C1146 1.391 . S
C1148 C1149 1.400 . S
C1149 C1148 1.400 . S
C1149 C1150 1.398 . S
C1149 C1155 1.491 . S
C1150 H1141 0.950 . S
C1150 C1149 1.398 . S
C1150 C1151 1.391 . S
C1151 H1139 0.950 . S
C1151 C1147 1.393 . S
C1151 C1150 1.391 . S
C1152 H1142 0.950 . S
C1152 C1153 1.386 . S
C1152 C1154 1.391 . S
C1153 C1152 1.386 . S
C1153 C1157 1.393 . S
C1154 H1143 0.950 . S
C1154 C1152 1.391 . S
C1154 C1155 1.400 . S
C1155 C1149 1.491 . S
C1155 C1154 1.400 . S
C1155 C1156 1.398 . S
C1156 H1144 0.950 . S
C1156 C1155 1.398 . S
C1156 C1157 1.391 . S
C1157 H1145 0.950 1_554 S
C1157 C1153 1.393 . S
C1157 C1156 1.391 . S
H1158 C1166 0.950 . S
H1159 C1171 0.950 . S
H1160 C1168 0.950 1_554 S
H1161 C1170 0.950 . S
H1162 C1172 0.950 . S
H1163 C1174 0.950 . S
H1164 C1176 0.950 . S
H1165 C1177 0.950 . S
C1166 H1158 0.950 . S
C1166 C1167 1.386 . S
C1166 C1168 1.391 . S
C1167 C1166 1.386 . S
C1167 C1171 1.393 . S
C1168 H1160 0.950 1_556 S
C1168 C1166 1.391 . S
C1168 C1169 1.400 . S
C1169 C1168 1.400 . S
C1169 C1170 1.398 . S
C1169 C1175 1.491 . S
C1170 H1161 0.950 . S
C1170 C1169 1.398 . S
C1170 C1171 1.391 . S
C1171 H1159 0.950 . S
C1171 C1167 1.393 . S
C1171 C1170 1.391 . S
C1172 H1162 0.950 . S
C1172 C1173 1.386 . S
C1172 C1174 1.391 . S
C1173 C1172 1.386 . S
C1173 C1177 1.393 1_556 S
C1174 H1163 0.950 . S
C1174 C1172 1.391 . S
C1174 C1175 1.400 . S
C1175 C1169 1.491 . S
C1175 C1174 1.400 . S
C1175 C1176 1.398 1_556 S
C1176 H1164 0.950 . S
C1176 C1175 1.398 1_554 S
C1176 C1177 1.391 . S
C1177 H1165 0.950 . S
C1177 C1173 1.393 1_554 S
C1177 C1176 1.391 . S
H1178 C1186 0.950 . S
H1179 C1191 0.950 . S
H1180 C1188 0.950 . S
H1181 C1190 0.950 1_554 S
H1182 C1192 0.950 . S
H1183 C1194 0.950 . S
H1184 C1196 0.950 . S
H1185 C1197 0.950 . S
C1186 H1178 0.950 . S
C1186 C1187 1.386 . S
C1186 C1188 1.391 . S
C1187 C1186 1.386 . S
C1187 C1191 1.393 . S
C1188 H1180 0.950 . S
C1188 C1186 1.391 . S
C1188 C1189 1.400 . S
C1189 C1188 1.400 . S
C1189 C1190 1.398 . S
C1189 C1195 1.491 . S
C1190 H1181 0.950 1_556 S
C1190 C1189 1.398 . S
C1190 C1191 1.391 . S
C1191 H1179 0.950 . S
C1191 C1187 1.393 . S
C1191 C1190 1.391 . S
C1192 H1182 0.950 . S
C1192 C1193 1.386 1_554 S
C1192 C1194 1.391 . S
C1193 C1192 1.386 1_556 S
C1193 C1197 1.393 . S
C1194 H1183 0.950 . S
C1194 C1192 1.391 . S
C1194 C1195 1.400 1_554 S
C1195 C1189 1.491 . S
C1195 C1194 1.400 1_556 S
C1195 C1196 1.398 . S
C1196 H1184 0.950 . S
C1196 C1195 1.398 . S
C1196 C1197 1.391 . S
C1197 H1185 0.950 . S
C1197 C1193 1.393 . S
C1197 C1196 1.391 . S
H1198 C1206 0.950 . S
H1199 C1211 0.950 . S
H1200 C1208 0.950 . S
H1201 C1210 0.950 . S
H1202 C1212 0.950 . S
H1203 C1214 0.950 . S
H1204 C1216 0.941 1_554 S
H1205 C1217 0.950 . S
C1206 H1198 0.950 . S
C1206 C1207 1.386 . S
C1206 C1208 1.391 . S
C1207 C1206 1.386 . S
C1207 C1211 1.393 . S
C1208 H1200 0.950 . S
C1208 C1206 1.391 . S
C1208 C1209 1.400 . S
C1209 C1208 1.400 . S
C1209 C1210 1.398 . S
C1209 C1215 1.491 . S
C1210 H1201 0.950 . S
C1210 C1209 1.398 . S
C1210 C1211 1.391 . S
C1211 H1199 0.950 . S
C1211 C1207 1.393 . S
C1211 C1210 1.391 . S
C1212 H1202 0.950 . S
C1212 C1213 1.386 . S
C1212 C1214 1.391 . S
C1213 C1212 1.386 . S
C1213 C1217 1.393 1_556 S
C1214 H1203 0.950 . S
C1214 C1212 1.391 . S
C1214 C1215 1.400 . S
C1215 C1209 1.491 . S
C1215 C1214 1.400 . S
C1215 C1216 1.417 . S
C1216 H1204 0.941 1_556 S
C1216 C1215 1.417 . S
C1216 C1217 1.382 1_556 S
C1217 H1205 0.950 . S
C1217 C1213 1.393 1_554 S
C1217 C1216 1.382 1_554 S
H1218 C1226 0.943 1_554 S
H1219 C1231 0.950 . S
H1220 C1228 0.950 1_554 S
H1221 C1230 0.950 . S
H1222 C1232 0.950 . S
H1223 C1234 0.950 . S
H1224 C1236 0.950 . S
H1225 C1237 0.950 . S
C1226 H1218 0.943 1_556 S
C1226 C1227 1.386 . S
C1226 C1228 1.391 . S
C1227 C1226 1.386 . S
C1227 C1231 1.393 . S
C1228 H1220 0.950 1_556 S
C1228 C1226 1.391 . S
C1228 C1229 1.400 . S
C1229 C1228 1.400 . S
C1229 C1230 1.398 . S
C1229 C1235 1.491 . S
C1230 H1221 0.950 . S
C1230 C1229 1.398 . S
C1230 C1231 1.391 . S
C1231 H1219 0.950 . S
C1231 C1227 1.393 . S
C1231 C1230 1.391 . S
C1232 H1222 0.950 . S
C1232 C1233 1.386 . S
C1232 C1234 1.391 . S
C1233 C1232 1.386 . S
C1233 C1237 1.393 1_556 S
C1234 H1223 0.950 . S
C1234 C1232 1.391 . S
C1234 C1235 1.400 . S
C1235 C1229 1.491 . S
C1235 C1234 1.400 . S
C1235 C1236 1.398 1_556 S
C1236 H1224 0.950 . S
C1236 C1235 1.398 1_554 S
C1236 C1237 1.391 . S
C1237 H1225 0.950 . S
C1237 C1233 1.393 1_554 S
C1237 C1236 1.391 . S
H1238 C1246 0.950 1_554 S
H1239 C1251 0.950 . S
H1240 C1248 0.950 1_554 S
H1241 C1250 0.950 . S
H1242 C1252 0.950 . S
H1243 C1254 0.950 . S
H1244 C1256 0.950 . S
H1245 C1257 0.950 . S
C1246 H1238 0.950 1_556 S
C1246 C1247 1.386 . S
C1246 C1248 1.391 . S
C1247 C1246 1.386 . S
C1247 C1251 1.393 . S
C1248 H1240 0.950 1_556 S
C1248 C1246 1.391 . S
C1248 C1249 1.400 . S
C1249 C1248 1.400 . S
C1249 C1250 1.398 . S
C1249 C1255 1.491 . S
C1250 H1241 0.950 . S
C1250 C1249 1.398 . S
C1250 C1251 1.391 . S
C1251 H1239 0.950 . S
C1251 C1247 1.393 . S
C1251 C1250 1.391 . S
C1252 H1242 0.950 . S
C1252 C1253 1.386 . S
C1252 C1254 1.391 . S
C1253 C1252 1.386 . S
C1253 C1257 1.393 1_556 S
C1254 H1243 0.950 . S
C1254 C1252 1.391 . S
C1254 C1255 1.400 . S
C1255 C1249 1.491 . S
C1255 C1254 1.400 . S
C1255 C1256 1.398 1_556 S
C1256 H1244 0.950 . S
C1256 C1255 1.398 1_554 S
C1256 C1257 1.391 . S
C1257 H1245 0.950 . S
C1257 C1253 1.393 1_554 S
C1257 C1256 1.391 . S
H1258 C1266 0.950 . S
H1259 C1271 0.950 . S
H1260 C1268 0.950 . S
H1261 C1270 0.950 . S
H1262 C1272 0.952 . S
H1263 C1274 0.950 . S
H1264 C1276 0.950 . S
H1265 C1277 0.950 . S
C1266 H1258 0.950 . S
C1266 C1267 1.386 . S
C1266 C1268 1.391 . S
C1267 C1266 1.386 . S
C1267 C1271 1.393 . S
C1268 H1260 0.950 . S
C1268 C1266 1.391 . S
C1268 C1269 1.400 . S
C1269 C1268 1.400 . S
C1269 C1270 1.398 . S
C1269 C1275 1.491 . S
C1270 H1261 0.950 . S
C1270 C1269 1.398 . S
C1270 C1271 1.391 . S
C1271 H1259 0.950 . S
C1271 C1267 1.393 . S
C1271 C1270 1.391 . S
C1272 H1262 0.952 . S
C1272 C1273 1.389 . S
C1272 C1274 1.391 . S
C1273 C1272 1.389 . S
C1273 C1277 1.398 . S
C1274 H1263 0.950 . S
C1274 C1272 1.391 . S
C1274 C1275 1.400 . S
C1275 C1269 1.491 . S
C1275 C1274 1.400 . S
C1275 C1276 1.398 . S
C1276 H1264 0.950 . S
C1276 C1275 1.398 . S
C1276 C1277 1.391 . S
C1277 H1265 0.950 . S
C1277 C1273 1.398 . S
C1277 C1276 1.391 . S
H1278 C1286 0.950 . S
H1279 C1291 0.950 . S
H1280 C1288 0.950 . S
H1281 C1290 0.950 . S
H1282 C1292 0.950 . S
H1283 C1294 0.950 . S
H1284 C1296 0.950 . S
H1285 C1297 0.950 . S
C1286 H1278 0.950 . S
C1286 C1287 1.386 . S
C1286 C1288 1.391 . S
C1287 C1286 1.386 . S
C1287 C1291 1.393 . S
C1288 H1280 0.950 . S
C1288 C1286 1.391 . S
C1288 C1289 1.400 . S
C1289 C1288 1.400 . S
C1289 C1290 1.398 . S
C1289 C1295 1.491 . S
C1290 H1281 0.950 . S
C1290 C1289 1.398 . S
C1290 C1291 1.391 . S
C1291 H1279 0.950 . S
C1291 C1287 1.393 . S
C1291 C1290 1.391 . S
C1292 H1282 0.950 . S
C1292 C1293 1.386 . S
C1292 C1294 1.391 . S
C1293 C1292 1.386 . S
C1293 C1297 1.393 . S
C1294 H1283 0.950 . S
C1294 C1292 1.391 . S
C1294 C1295 1.400 . S
C1295 C1289 1.491 . S
C1295 C1294 1.400 . S
C1295 C1296 1.398 . S
C1296 H1284 0.950 . S
C1296 C1295 1.398 . S
C1296 C1297 1.391 . S
C1297 H1285 0.950 . S
C1297 C1293 1.393 . S
C1297 C1296 1.391 . S
H1298 C1306 0.950 . S
H1299 C1311 0.950 . S
H1300 C1308 0.950 . S
H1301 C1310 0.950 . S
H1302 C1312 0.950 1_556 S
H1303 C1314 0.950 . S
H1304 C1316 0.950 . S
H1305 C1317 0.950 . S
C1306 H1298 0.950 . S
C1306 C1307 1.386 . S
C1306 C1308 1.391 . S
C1307 C1306 1.386 . S
C1307 C1311 1.393 . S
C1308 H1300 0.950 . S
C1308 C1306 1.391 . S
C1308 C1309 1.400 . S
C1309 C1308 1.400 . S
C1309 C1310 1.398 . S
C1309 C1315 1.491 . S
C1310 H1301 0.950 . S
C1310 C1309 1.398 . S
C1310 C1311 1.391 . S
C1311 H1299 0.950 . S
C1311 C1307 1.393 . S
C1311 C1310 1.391 . S
C1312 H1302 0.950 1_554 S
C1312 C1313 1.386 . S
C1312 C1314 1.391 . S
C1313 C1312 1.386 . S
C1313 C1317 1.393 . S
C1314 H1303 0.950 . S
C1314 C1312 1.391 . S
C1314 C1315 1.400 . S
C1315 C1309 1.491 . S
C1315 C1314 1.400 . S
C1315 C1316 1.398 . S
C1316 H1304 0.950 . S
C1316 C1315 1.398 . S
C1316 C1317 1.391 . S
C1317 H1305 0.950 . S
C1317 C1313 1.393 . S
C1317 C1316 1.391 . S
H1318 C1326 0.950 . S
H1319 C1331 0.950 . S
H1320 C1328 0.950 . S
H1321 C1330 0.950 . S
H1322 C1332 0.950 . S
H1323 C1334 0.950 . S
H1324 C1336 0.950 . S
H1325 C1337 0.950 . S
C1326 H1318 0.950 . S
C1326 C1327 1.386 . S
C1326 C1328 1.391 . S
C1327 C1326 1.386 . S
C1327 C1331 1.393 . S
C1328 H1320 0.950 . S
C1328 C1326 1.391 . S
C1328 C1329 1.400 . S
C1329 C1328 1.400 . S
C1329 C1330 1.398 . S
C1329 C1335 1.491 . S
C1330 H1321 0.950 . S
C1330 C1329 1.398 . S
C1330 C1331 1.391 . S
C1331 H1319 0.950 . S
C1331 C1327 1.393 . S
C1331 C1330 1.391 . S
C1332 H1322 0.950 . S
C1332 C1333 1.386 . S
C1332 C1334 1.391 . S
C1333 C1332 1.386 . S
C1333 C1337 1.393 . S
C1334 H1323 0.950 . S
C1334 C1332 1.391 . S
C1334 C1335 1.400 . S
C1335 C1329 1.491 . S
C1335 C1334 1.400 . S
C1335 C1336 1.398 . S
C1336 H1324 0.950 . S
C1336 C1335 1.398 . S
C1336 C1337 1.391 . S
C1337 H1325 0.950 . S
C1337 C1333 1.393 . S
C1337 C1336 1.391 . S
H1338 C1346 0.950 . S
H1339 C1351 0.950 . S
H1340 C1348 0.950 . S
H1341 C1350 0.950 . S
H1342 C1352 0.950 . S
H1343 C1354 0.950 . S
H1344 C1356 0.950 . S
H1345 C1357 0.950 . S
C1346 H1338 0.950 . S
C1346 C1347 1.386 . S
C1346 C1348 1.391 . S
C1347 C1346 1.386 . S
C1347 C1351 1.393 . S
C1348 H1340 0.950 . S
C1348 C1346 1.391 . S
C1348 C1349 1.400 . S
C1349 C1348 1.400 . S
C1349 C1350 1.398 . S
C1349 C1355 1.491 1_655 S
C1350 H1341 0.950 . S
C1350 C1349 1.398 . S
C1350 C1351 1.391 . S
C1351 H1339 0.950 . S
C1351 C1347 1.393 . S
C1351 C1350 1.391 . S
C1352 H1342 0.950 . S
C1352 C1353 1.386 . S
C1352 C1354 1.391 . S
C1353 C1352 1.386 . S
C1353 C1357 1.393 . S
C1354 H1343 0.950 . S
C1354 C1352 1.391 . S
C1354 C1355 1.400 . S
C1355 C1349 1.491 1_455 S
C1355 C1354 1.400 . S
C1355 C1356 1.398 . S
C1356 H1344 0.950 . S
C1356 C1355 1.398 . S
C1356 C1357 1.391 . S
C1357 H1345 0.950 . S
C1357 C1353 1.393 . S
C1357 C1356 1.391 . S
H1358 C1366 0.950 . S
H1359 C1371 0.950 . S
H1360 C1368 0.950 . S
H1361 C1370 0.950 . S
H1362 C1372 0.950 . S
H1363 C1374 0.950 . S
H1364 C1376 0.950 . S
H1365 C1377 0.950 . S
C1366 H1358 0.950 . S
C1366 C1367 1.386 . S
C1366 C1368 1.391 . S
C1367 C1366 1.386 . S
C1367 C1371 1.393 . S
C1368 H1360 0.950 . S
C1368 C1366 1.391 . S
C1368 C1369 1.400 . S
C1369 C1368 1.400 . S
C1369 C1370 1.398 . S
C1369 C1375 1.491 . S
C1370 H1361 0.950 . S
C1370 C1369 1.398 . S
C1370 C1371 1.391 . S
C1371 H1359 0.950 . S
C1371 C1367 1.393 . S
C1371 C1370 1.391 . S
C1372 H1362 0.950 . S
C1372 C1373 1.386 . S
C1372 C1374 1.391 . S
C1373 C1372 1.386 . S
C1373 C1377 1.393 . S
C1374 H1363 0.950 . S
C1374 C1372 1.391 . S
C1374 C1375 1.400 . S
C1375 C1369 1.491 . S
C1375 C1374 1.400 . S
C1375 C1376 1.398 . S
C1376 H1364 0.950 . S
C1376 C1375 1.398 . S
C1376 C1377 1.391 . S
C1377 H1365 0.950 . S
C1377 C1373 1.393 . S
C1377 C1376 1.391 . S
H1378 C1386 0.950 . S
H1379 C1391 0.950 . S
H1380 C1388 0.950 . S
H1381 C1390 0.950 . S
H1382 C1392 0.950 . S
H1383 C1394 0.950 . S
H1384 C1396 0.950 1_545 S
H1385 C1397 0.950 . S
C1386 H1378 0.950 . S
C1386 C1387 1.386 . S
C1386 C1388 1.391 . S
C1387 C1386 1.386 . S
C1387 C1391 1.393 . S
C1388 H1380 0.950 . S
C1388 C1386 1.391 . S
C1388 C1389 1.400 . S
C1389 C1388 1.400 . S
C1389 C1390 1.398 . S
C1389 C1395 1.491 1_545 S
C1390 H1381 0.950 . S
C1390 C1389 1.398 . S
C1390 C1391 1.391 . S
C1391 H1379 0.950 . S
C1391 C1387 1.393 . S
C1391 C1390 1.391 . S
C1392 H1382 0.950 . S
C1392 C1393 1.386 . S
C1392 C1394 1.391 . S
C1393 C1392 1.386 . S
C1393 C1397 1.393 . S
C1394 H1383 0.950 . S
C1394 C1392 1.391 . S
C1394 C1395 1.400 . S
C1395 C1389 1.491 1_565 S
C1395 C1394 1.400 . S
C1395 C1396 1.398 . S
C1396 H1384 0.950 1_565 S
C1396 C1395 1.398 . S
C1396 C1397 1.391 . S
C1397 H1385 0.950 . S
C1397 C1393 1.393 . S
C1397 C1396 1.391 . S
H1398 C1406 0.950 . S
H1399 C1411 0.950 . S
H1400 C1408 0.950 . S
H1401 C1410 0.950 . S
H1402 C1412 0.950 . S
H1403 C1414 0.950 . S
H1404 C1416 0.950 . S
H1405 C1417 0.950 . S
C1406 H1398 0.950 . S
C1406 C1407 1.386 . S
C1406 C1408 1.391 . S
C1407 C1406 1.386 . S
C1407 C1411 1.393 . S
C1408 H1400 0.950 . S
C1408 C1406 1.391 . S
C1408 C1409 1.400 . S
C1409 C1408 1.400 . S
C1409 C1410 1.398 . S
C1409 C1415 1.491 . S
C1410 H1401 0.950 . S
C1410 C1409 1.398 . S
C1410 C1411 1.391 . S
C1411 H1399 0.950 . S
C1411 C1407 1.393 . S
C1411 C1410 1.391 . S
C1412 H1402 0.950 . S
C1412 C1413 1.386 . S
C1412 C1414 1.391 . S
C1413 C1412 1.386 . S
C1413 C1417 1.393 . S
C1414 H1403 0.950 . S
C1414 C1412 1.391 . S
C1414 C1415 1.400 . S
C1415 C1409 1.491 . S
C1415 C1414 1.400 . S
C1415 C1416 1.398 . S
C1416 H1404 0.950 . S
C1416 C1415 1.398 . S
C1416 C1417 1.391 . S
C1417 H1405 0.950 . S
C1417 C1413 1.393 . S
C1417 C1416 1.391 . S
H1418 C1426 0.950 . S
H1419 C1431 0.950 . S
H1420 C1428 0.950 . S
H1421 C1430 0.950 . S
H1422 C1432 0.950 . S
H1423 C1434 0.950 . S
H1424 C1436 0.950 . S
H1425 C1437 0.950 . S
C1426 H1418 0.950 . S
C1426 C1427 1.386 . S
C1426 C1428 1.391 . S
C1427 C1426 1.386 . S
C1427 C1431 1.393 . S
C1428 H1420 0.950 . S
C1428 C1426 1.391 . S
C1428 C1429 1.400 . S
C1429 C1428 1.400 . S
C1429 C1430 1.398 . S
C1429 C1435 1.491 . S
C1430 H1421 0.950 . S
C1430 C1429 1.398 . S
C1430 C1431 1.391 . S
C1431 H1419 0.950 . S
C1431 C1427 1.393 . S
C1431 C1430 1.391 . S
C1432 H1422 0.950 . S
C1432 C1433 1.386 . S
C1432 C1434 1.391 . S
C1433 C1432 1.386 . S
C1433 C1437 1.393 . S
C1434 H1423 0.950 . S
C1434 C1432 1.391 . S
C1434 C1435 1.400 . S
C1435 C1429 1.491 . S
C1435 C1434 1.400 . S
C1435 C1436 1.398 . S
C1436 H1424 0.950 . S
C1436 C1435 1.398 . S
C1436 C1437 1.391 . S
C1437 H1425 0.950 . S
C1437 C1433 1.393 . S
C1437 C1436 1.391 . S
H1438 C1446 0.950 . S
H1439 C1451 0.950 . S
H1440 C1448 0.950 . S
H1441 C1450 0.950 . S
H1442 C1452 0.950 . S
H1443 C1454 0.950 . S
H1444 C1456 0.950 . S
H1445 C1457 0.950 . S
C1446 H1438 0.950 . S
C1446 C1447 1.386 . S
C1446 C1448 1.391 . S
C1447 C1446 1.386 . S
C1447 C1451 1.393 . S
C1448 H1440 0.950 . S
C1448 C1446 1.391 . S
C1448 C1449 1.400 . S
C1449 C1448 1.400 . S
C1449 C1450 1.398 . S
C1449 C1455 1.491 . S
C1450 H1441 0.950 . S
C1450 C1449 1.398 . S
C1450 C1451 1.391 . S
C1451 H1439 0.950 . S
C1451 C1447 1.393 . S
C1451 C1450 1.391 . S
C1452 H1442 0.950 . S
C1452 C1453 1.386 . S
C1452 C1454 1.391 . S
C1453 C1452 1.386 . S
C1453 C1457 1.393 . S
C1454 H1443 0.950 . S
C1454 C1452 1.391 . S
C1454 C1455 1.400 . S
C1455 C1449 1.491 . S
C1455 C1454 1.400 . S
C1455 C1456 1.398 . S
C1456 H1444 0.950 . S
C1456 C1455 1.398 . S
C1456 C1457 1.391 . S
C1457 H1445 0.950 . S
C1457 C1453 1.393 . S
C1457 C1456 1.391 . S
H1458 C1466 0.950 . S
H1459 C1471 0.950 . S
H1460 C1468 0.950 . S
H1461 C1470 0.950 . S
H1462 C1472 0.950 . S
H1463 C1474 0.950 . S
H1464 C1476 0.950 . S
H1465 C1477 0.950 . S
C1466 H1458 0.950 . S
C1466 C1467 1.386 . S
C1466 C1468 1.391 . S
C1467 C1466 1.386 . S
C1467 C1471 1.393 . S
C1468 H1460 0.950 . S
C1468 C1466 1.391 . S
C1468 C1469 1.400 . S
C1469 C1468 1.400 . S
C1469 C1470 1.398 . S
C1469 C1475 1.491 . S
C1470 H1461 0.950 . S
C1470 C1469 1.398 . S
C1470 C1471 1.391 . S
C1471 H1459 0.950 . S
C1471 C1467 1.393 . S
C1471 C1470 1.391 . S
C1472 H1462 0.950 . S
C1472 C1473 1.386 . S
C1472 C1474 1.391 . S
C1473 C1472 1.386 . S
C1473 C1477 1.393 . S
C1474 H1463 0.950 . S
C1474 C1472 1.391 . S
C1474 C1475 1.400 . S
C1475 C1469 1.491 . S
C1475 C1474 1.400 . S
C1475 C1476 1.398 . S
C1476 H1464 0.950 . S
C1476 C1475 1.398 . S
C1476 C1477 1.391 . S
C1477 H1465 0.950 . S
C1477 C1473 1.393 . S
C1477 C1476 1.391 . S
H1478 C1486 0.950 . S
H1479 C1491 0.950 . S
H1480 C1488 0.950 . S
H1481 C1490 0.950 . S
H1482 C1492 0.950 . S
H1483 C1494 0.950 . S
H1484 C1496 0.950 . S
H1485 C1497 0.950 . S
C1486 H1478 0.950 . S
C1486 C1487 1.386 . S
C1486 C1488 1.391 . S
C1487 C1486 1.386 . S
C1487 C1491 1.393 . S
C1488 H1480 0.950 . S
C1488 C1486 1.391 . S
C1488 C1489 1.400 . S
C1489 C1488 1.400 . S
C1489 C1490 1.398 . S
C1489 C1495 1.491 . S
C1490 H1481 0.950 . S
C1490 C1489 1.398 . S
C1490 C1491 1.391 . S
C1491 H1479 0.950 . S
C1491 C1487 1.393 . S
C1491 C1490 1.391 . S
C1492 H1482 0.950 . S
C1492 C1493 1.386 . S
C1492 C1494 1.391 . S
C1493 C1492 1.386 . S
C1493 C1497 1.393 . S
C1494 H1483 0.950 . S
C1494 C1492 1.391 . S
C1494 C1495 1.400 . S
C1495 C1489 1.491 . S
C1495 C1494 1.400 . S
C1495 C1496 1.398 . S
C1496 H1484 0.950 . S
C1496 C1495 1.398 . S
C1496 C1497 1.391 . S
C1497 H1485 0.950 . S
C1497 C1493 1.393 . S
C1497 C1496 1.391 . S
H1498 C1506 0.950 . S
H1499 C1511 0.950 . S
H1500 C1508 0.950 . S
H1501 C1510 0.950 . S
H1502 C1512 0.950 . S
H1503 C1514 0.950 . S
H1504 C1516 0.950 . S
H1505 C1517 0.950 . S
C1506 H1498 0.950 . S
C1506 C1507 1.386 . S
C1506 C1508 1.391 . S
C1507 C1506 1.386 . S
C1507 C1511 1.393 . S
C1508 H1500 0.950 . S
C1508 C1506 1.391 . S
C1508 C1509 1.400 . S
C1509 C1508 1.400 . S
C1509 C1510 1.398 . S
C1509 C1515 1.491 . S
C1510 H1501 0.950 . S
C1510 C1509 1.398 . S
C1510 C1511 1.391 . S
C1511 H1499 0.950 . S
C1511 C1507 1.393 . S
C1511 C1510 1.391 . S
C1512 H1502 0.950 . S
C1512 C1513 1.386 . S
C1512 C1514 1.391 . S
C1513 C1512 1.386 . S
C1513 C1517 1.393 . S
C1514 H1503 0.950 . S
C1514 C1512 1.391 . S
C1514 C1515 1.400 . S
C1515 C1509 1.491 . S
C1515 C1514 1.400 . S
C1515 C1516 1.398 . S
C1516 H1504 0.950 . S
C1516 C1515 1.398 . S
C1516 C1517 1.391 . S
C1517 H1505 0.950 . S
C1517 C1513 1.393 . S
C1517 C1516 1.391 . S
H1518 C1526 0.950 . S
H1519 C1531 0.950 . S
H1520 C1528 0.950 . S
H1521 C1530 0.950 . S
H1522 C1532 0.950 . S
H1523 C1534 0.950 . S
H1524 C1536 0.950 . S
H1525 C1537 0.950 . S
C1526 H1518 0.950 . S
C1526 C1527 1.386 . S
C1526 C1528 1.391 . S
C1527 C1526 1.386 . S
C1527 C1531 1.393 . S
C1528 H1520 0.950 . S
C1528 C1526 1.391 . S
C1528 C1529 1.400 . S
C1529 C1528 1.400 . S
C1529 C1530 1.398 . S
C1529 C1535 1.491 . S
C1530 H1521 0.950 . S
C1530 C1529 1.398 . S
C1530 C1531 1.391 . S
C1531 H1519 0.950 . S
C1531 C1527 1.393 . S
C1531 C1530 1.391 . S
C1532 H1522 0.950 . S
C1532 C1533 1.386 . S
C1532 C1534 1.391 . S
C1533 C1532 1.386 . S
C1533 C1537 1.393 . S
C1534 H1523 0.950 . S
C1534 C1532 1.391 . S
C1534 C1535 1.400 . S
C1535 C1529 1.491 . S
C1535 C1534 1.400 . S
C1535 C1536 1.398 . S
C1536 H1524 0.950 . S
C1536 C1535 1.398 . S
C1536 C1537 1.391 . S
C1537 H1525 0.950 . S
C1537 C1533 1.393 . S
C1537 C1536 1.391 . S
H1538 C1546 0.950 . S
H1539 C1551 0.950 . S
H1540 C1548 0.950 . S
H1541 C1550 0.950 . S
H1542 C1552 0.950 . S
H1543 C1554 0.950 . S
H1544 C1556 0.950 . S
H1545 C1557 0.950 . S
C1546 H1538 0.950 . S
C1546 C1547 1.386 . S
C1546 C1548 1.391 . S
C1547 C1546 1.386 . S
C1547 C1551 1.393 . S
C1548 H1540 0.950 . S
C1548 C1546 1.391 . S
C1548 C1549 1.400 . S
C1549 C1548 1.400 . S
C1549 C1550 1.398 . S
C1549 C1555 1.491 . S
C1550 H1541 0.950 . S
C1550 C1549 1.398 . S
C1550 C1551 1.391 . S
C1551 H1539 0.950 . S
C1551 C1547 1.393 . S
C1551 C1550 1.391 . S
C1552 H1542 0.950 . S
C1552 C1553 1.386 . S
C1552 C1554 1.391 . S
C1553 C1552 1.386 . S
C1553 C1557 1.393 . S
C1554 H1543 0.950 . S
C1554 C1552 1.391 . S
C1554 C1555 1.400 . S
C1555 C1549 1.491 . S
C1555 C1554 1.400 . S
C1555 C1556 1.398 . S
C1556 H1544 0.950 . S
C1556 C1555 1.398 . S
C1556 C1557 1.391 . S
C1557 H1545 0.950 . S
C1557 C1553 1.393 . S
C1557 C1556 1.391 . S
H1558 C1566 0.950 . S
H1559 C1571 0.950 . S
H1560 C1568 0.950 . S
H1561 C1570 0.950 . S
H1562 C1572 0.950 . S
H1563 C1574 0.950 . S
H1564 C1576 0.950 . S
H1565 C1577 0.950 . S
C1566 H1558 0.950 . S
C1566 C1567 1.386 . S
C1566 C1568 1.391 . S
C1567 C1566 1.386 . S
C1567 C1571 1.393 . S
C1568 H1560 0.950 . S
C1568 C1566 1.391 . S
C1568 C1569 1.400 . S
C1569 C1568 1.400 . S
C1569 C1570 1.398 . S
C1569 C1575 1.491 . S
C1570 H1561 0.950 . S
C1570 C1569 1.398 . S
C1570 C1571 1.391 . S
C1571 H1559 0.950 . S
C1571 C1567 1.393 . S
C1571 C1570 1.391 . S
C1572 H1562 0.950 . S
C1572 C1573 1.386 . S
C1572 C1574 1.391 . S
C1573 C1572 1.386 . S
C1573 C1577 1.393 . S
C1574 H1563 0.950 . S
C1574 C1572 1.391 . S
C1574 C1575 1.400 . S
C1575 C1569 1.491 . S
C1575 C1574 1.400 . S
C1575 C1576 1.398 . S
C1576 H1564 0.950 . S
C1576 C1575 1.398 . S
C1576 C1577 1.391 . S
C1577 H1565 0.950 . S
C1577 C1573 1.393 . S
C1577 C1576 1.391 . S
H1578 C1586 0.950 . S
H1579 C1591 0.950 . S
H1580 C1588 0.950 . S
H1581 C1590 0.950 . S
H1582 C1592 0.950 . S
H1583 C1594 0.950 . S
H1584 C1596 0.950 . S
H1585 C1597 0.950 . S
C1586 H1578 0.950 . S
C1586 C1587 1.386 . S
C1586 C1588 1.391 . S
C1587 C1586 1.386 . S
C1587 C1591 1.393 . S
C1588 H1580 0.950 . S
C1588 C1586 1.391 . S
C1588 C1589 1.400 . S
C1589 C1588 1.400 . S
C1589 C1590 1.398 . S
C1589 C1595 1.491 . S
C1590 H1581 0.950 . S
C1590 C1589 1.398 . S
C1590 C1591 1.391 . S
C1591 H1579 0.950 . S
C1591 C1587 1.393 . S
C1591 C1590 1.391 . S
C1592 H1582 0.950 . S
C1592 C1593 1.386 . S
C1592 C1594 1.391 . S
C1593 C1592 1.386 . S
C1593 C1597 1.393 . S
C1594 H1583 0.950 . S
C1594 C1592 1.391 . S
C1594 C1595 1.400 . S
C1595 C1589 1.491 . S
C1595 C1594 1.400 . S
C1595 C1596 1.398 . S
C1596 H1584 0.950 . S
C1596 C1595 1.398 . S
C1596 C1597 1.391 . S
C1597 H1585 0.950 . S
C1597 C1593 1.393 . S
C1597 C1596 1.391 . S
H1598 C1606 0.950 . S
H1599 C1611 0.950 . S
H1600 C1608 0.950 . S
H1601 C1610 0.950 . S
H1602 C1612 0.950 . S
H1603 C1614 0.950 . S
H1604 C1616 0.950 . S
H1605 C1617 0.950 . S
C1606 H1598 0.950 . S
C1606 C1607 1.386 . S
C1606 C1608 1.391 . S
C1607 C1606 1.386 . S
C1607 C1611 1.393 . S
C1608 H1600 0.950 . S
C1608 C1606 1.391 . S
C1608 C1609 1.400 . S
C1609 C1608 1.400 . S
C1609 C1610 1.398 . S
C1609 C1615 1.491 . S
C1610 H1601 0.950 . S
C1610 C1609 1.398 . S
C1610 C1611 1.391 . S
C1611 H1599 0.950 . S
C1611 C1607 1.393 . S
C1611 C1610 1.391 . S
C1612 H1602 0.950 . S
C1612 C1613 1.386 . S
C1612 C1614 1.391 . S
C1613 C1612 1.386 . S
C1613 C1617 1.393 . S
C1614 H1603 0.950 . S
C1614 C1612 1.391 . S
C1614 C1615 1.400 . S
C1615 C1609 1.491 . S
C1615 C1614 1.400 . S
C1615 C1616 1.398 . S
C1616 H1604 0.950 . S
C1616 C1615 1.398 . S
C1616 C1617 1.391 . S
C1617 H1605 0.950 . S
C1617 C1613 1.393 . S
C1617 C1616 1.391 . S
H1618 C1626 0.950 . S
H1619 C1631 0.950 . S
H1620 C1628 0.950 . S
H1621 C1630 0.950 . S
H1622 C1632 0.950 . S
H1623 C1634 0.950 . S
H1624 C1636 0.950 . S
H1625 C1637 0.950 . S
C1626 H1618 0.950 . S
C1626 C1627 1.386 . S
C1626 C1628 1.391 . S
C1627 C1626 1.386 . S
C1627 C1631 1.393 . S
C1628 H1620 0.950 . S
C1628 C1626 1.391 . S
C1628 C1629 1.400 . S
C1629 C1628 1.400 . S
C1629 C1630 1.398 . S
C1629 C1635 1.491 . S
C1630 H1621 0.950 . S
C1630 C1629 1.398 . S
C1630 C1631 1.391 . S
C1631 H1619 0.950 . S
C1631 C1627 1.393 . S
C1631 C1630 1.391 . S
C1632 H1622 0.950 . S
C1632 C1633 1.386 . S
C1632 C1634 1.391 . S
C1633 C1632 1.386 . S
C1633 C1637 1.393 . S
C1634 H1623 0.950 . S
C1634 C1632 1.391 . S
C1634 C1635 1.400 . S
C1635 C1629 1.491 . S
C1635 C1634 1.400 . S
C1635 C1636 1.398 . S
C1636 H1624 0.950 . S
C1636 C1635 1.398 . S
C1636 C1637 1.391 . S
C1637 H1625 0.950 . S
C1637 C1633 1.393 . S
C1637 C1636 1.391 . S
H1638 C1646 0.950 . S
H1639 C1651 0.950 . S
H1640 C1648 0.950 . S
H1641 C1650 0.950 . S
H1642 C1652 0.950 . S
H1643 C1654 0.950 . S
H1644 C1656 0.950 . S
H1645 C1657 0.950 . S
C1646 H1638 0.950 . S
C1646 C1647 1.386 . S
C1646 C1648 1.391 . S
C1647 C1646 1.386 . S
C1647 C1651 1.393 . S
C1648 H1640 0.950 . S
C1648 C1646 1.391 . S
C1648 C1649 1.400 . S
C1649 C1648 1.400 . S
C1649 C1650 1.398 . S
C1649 C1655 1.491 1_565 S
C1650 H1641 0.950 . S
C1650 C1649 1.398 . S
C1650 C1651 1.391 . S
C1651 H1639 0.950 . S
C1651 C1647 1.393 . S
C1651 C1650 1.391 . S
C1652 H1642 0.950 . S
C1652 C1653 1.386 . S
C1652 C1654 1.391 . S
C1653 C1652 1.386 . S
C1653 C1657 1.393 . S
C1654 H1643 0.950 . S
C1654 C1652 1.391 . S
C1654 C1655 1.400 . S
C1655 C1649 1.491 1_545 S
C1655 C1654 1.400 . S
C1655 C1656 1.398 . S
C1656 H1644 0.950 . S
C1656 C1655 1.398 . S
C1656 C1657 1.391 . S
C1657 H1645 0.950 . S
C1657 C1653 1.393 . S
C1657 C1656 1.391 . S
H1658 C1666 0.950 . S
H1659 C1671 0.950 . S
H1660 C1668 0.950 . S
H1661 C1670 0.950 . S
H1662 C1672 0.950 . S
H1663 C1674 0.950 . S
H1664 C1676 0.950 . S
H1665 C1677 0.950 . S
C1666 H1658 0.950 . S
C1666 C1667 1.386 . S
C1666 C1668 1.391 . S
C1667 C1666 1.386 . S
C1667 C1671 1.393 . S
C1668 H1660 0.950 . S
C1668 C1666 1.391 . S
C1668 C1669 1.400 . S
C1669 C1668 1.400 . S
C1669 C1670 1.398 . S
C1669 C1675 1.491 1_455 S
C1670 H1661 0.950 . S
C1670 C1669 1.398 . S
C1670 C1671 1.391 . S
C1671 H1659 0.950 . S
C1671 C1667 1.393 . S
C1671 C1670 1.391 . S
C1672 H1662 0.950 . S
C1672 C1673 1.386 . S
C1672 C1674 1.391 . S
C1673 C1672 1.386 . S
C1673 C1677 1.393 . S
C1674 H1663 0.950 . S
C1674 C1672 1.391 . S
C1674 C1675 1.400 . S
C1675 C1669 1.491 1_655 S
C1675 C1674 1.400 . S
C1675 C1676 1.398 . S
C1676 H1664 0.950 . S
C1676 C1675 1.398 . S
C1676 C1677 1.391 . S
C1677 H1665 0.950 . S
C1677 C1673 1.393 . S
C1677 C1676 1.391 . S
H1678 C1686 0.950 . S
H1679 C1691 0.950 . S
H1680 C1688 0.950 . S
H1681 C1690 0.950 . S
H1682 C1692 0.950 . S
H1683 C1694 0.950 . S
H1684 C1696 0.950 . S
H1685 C1697 0.950 . S
C1686 H1678 0.950 . S
C1686 C1687 1.386 . S
C1686 C1688 1.391 . S
C1687 C1686 1.386 . S
C1687 C1691 1.393 . S
C1688 H1680 0.950 . S
C1688 C1686 1.391 . S
C1688 C1689 1.400 . S
C1689 C1688 1.400 . S
C1689 C1690 1.398 . S
C1689 C1695 1.491 . S
C1690 H1681 0.950 . S
C1690 C1689 1.398 . S
C1690 C1691 1.391 . S
C1691 H1679 0.950 . S
C1691 C1687 1.393 . S
C1691 C1690 1.391 . S
C1692 H1682 0.950 . S
C1692 C1693 1.386 . S
C1692 C1694 1.391 . S
C1693 C1692 1.386 . S
C1693 C1697 1.393 . S
C1694 H1683 0.950 . S
C1694 C1692 1.391 . S
C1694 C1695 1.400 . S
C1695 C1689 1.491 . S
C1695 C1694 1.400 . S
C1695 C1696 1.398 . S
C1696 H1684 0.950 . S
C1696 C1695 1.398 . S
C1696 C1697 1.391 . S
C1697 H1685 0.950 . S
C1697 C1693 1.393 . S
C1697 C1696 1.391 . S
H1698 C1706 0.950 . S
H1699 C1711 0.950 . S
H1700 C1708 0.950 . S
H1701 C1710 0.950 . S
H1702 C1712 0.950 . S
H1703 C1714 0.950 . S
H1704 C1716 0.950 . S
H1705 C1717 0.950 . S
C1706 H1698 0.950 . S
C1706 C1707 1.386 . S
C1706 C1708 1.391 . S
C1707 C1706 1.386 . S
C1707 C1711 1.393 . S
C1708 H1700 0.950 . S
C1708 C1706 1.391 . S
C1708 C1709 1.400 . S
C1709 C1708 1.400 . S
C1709 C1710 1.398 . S
C1709 C1715 1.491 . S
C1710 H1701 0.950 . S
C1710 C1709 1.398 . S
C1710 C1711 1.391 . S
C1711 H1699 0.950 . S
C1711 C1707 1.393 . S
C1711 C1710 1.391 . S
C1712 H1702 0.950 . S
C1712 C1713 1.386 . S
C1712 C1714 1.391 . S
C1713 C1712 1.386 . S
C1713 C1717 1.393 . S
C1714 H1703 0.950 . S
C1714 C1712 1.391 . S
C1714 C1715 1.400 . S
C1715 C1709 1.491 . S
C1715 C1714 1.400 . S
C1715 C1716 1.398 . S
C1716 H1704 0.950 . S
C1716 C1715 1.398 . S
C1716 C1717 1.391 . S
C1717 H1705 0.950 . S
C1717 C1713 1.393 . S
C1717 C1716 1.391 . S
H1718 C1726 0.950 . S
H1719 C1731 0.950 . S
H1720 C1728 0.950 . S
H1721 C1730 0.950 . S
H1722 C1732 0.950 . S
H1723 C1734 0.950 . S
H1724 C1736 0.950 . S
H1725 C1737 0.950 . S
C1726 H1718 0.950 . S
C1726 C1727 1.386 . S
C1726 C1728 1.391 . S
C1727 C1726 1.386 . S
C1727 C1731 1.393 . S
C1728 H1720 0.950 . S
C1728 C1726 1.391 . S
C1728 C1729 1.400 . S
C1729 C1728 1.400 . S
C1729 C1730 1.398 . S
C1729 C1735 1.491 . S
C1730 H1721 0.950 . S
C1730 C1729 1.398 . S
C1730 C1731 1.391 . S
C1731 H1719 0.950 . S
C1731 C1727 1.393 . S
C1731 C1730 1.391 . S
C1732 H1722 0.950 . S
C1732 C1733 1.386 . S
C1732 C1734 1.391 . S
C1733 C1732 1.386 . S
C1733 C1737 1.393 . S
C1734 H1723 0.950 . S
C1734 C1732 1.391 . S
C1734 C1735 1.400 . S
C1735 C1729 1.491 . S
C1735 C1734 1.400 . S
C1735 C1736 1.398 . S
C1736 H1724 0.950 . S
C1736 C1735 1.398 . S
C1736 C1737 1.391 . S
C1737 H1725 0.950 . S
C1737 C1733 1.393 . S
C1737 C1736 1.391 . S
H1738 C1746 0.950 . S
H1739 C1751 0.950 . S
H1740 C1748 0.950 . S
H1741 C1750 0.950 . S
H1742 C1752 0.950 . S
H1743 C1754 0.950 . S
H1744 C1756 0.950 . S
H1745 C1757 0.950 . S
C1746 H1738 0.950 . S
C1746 C1747 1.386 . S
C1746 C1748 1.391 . S
C1747 C1746 1.386 . S
C1747 C1751 1.393 . S
C1748 H1740 0.950 . S
C1748 C1746 1.391 . S
C1748 C1749 1.400 . S
C1749 C1748 1.400 . S
C1749 C1750 1.398 . S
C1749 C1755 1.491 . S
C1750 H1741 0.950 . S
C1750 C1749 1.398 . S
C1750 C1751 1.391 . S
C1751 H1739 0.950 . S
C1751 C1747 1.393 . S
C1751 C1750 1.391 . S
C1752 H1742 0.950 . S
C1752 C1753 1.386 . S
C1752 C1754 1.391 . S
C1753 C1752 1.386 . S
C1753 C1757 1.393 . S
C1754 H1743 0.950 . S
C1754 C1752 1.391 . S
C1754 C1755 1.400 . S
C1755 C1749 1.491 . S
C1755 C1754 1.400 . S
C1755 C1756 1.398 . S
C1756 H1744 0.950 . S
C1756 C1755 1.398 . S
C1756 C1757 1.391 . S
C1757 H1745 0.950 . S
C1757 C1753 1.393 . S
C1757 C1756 1.391 . S
H1758 C1766 0.950 . S
H1759 C1771 0.950 . S
H1760 C1768 0.950 . S
H1761 C1770 0.950 . S
H1762 C1772 0.950 . S
H1763 C1774 0.950 . S
H1764 C1776 0.950 . S
H1765 C1777 0.950 . S
C1766 H1758 0.950 . S
C1766 C1767 1.386 . S
C1766 C1768 1.391 . S
C1767 C1766 1.386 . S
C1767 C1771 1.393 . S
C1768 H1760 0.950 . S
C1768 C1766 1.391 . S
C1768 C1769 1.400 . S
C1769 C1768 1.400 . S
C1769 C1770 1.398 . S
C1769 C1775 1.491 . S
C1770 H1761 0.950 . S
C1770 C1769 1.398 . S
C1770 C1771 1.391 . S
C1771 H1759 0.950 . S
C1771 C1767 1.393 . S
C1771 C1770 1.391 . S
C1772 H1762 0.950 . S
C1772 C1773 1.386 . S
C1772 C1774 1.391 . S
C1773 C1772 1.386 . S
C1773 C1777 1.393 . S
C1774 H1763 0.950 . S
C1774 C1772 1.391 . S
C1774 C1775 1.400 . S
C1775 C1769 1.491 . S
C1775 C1774 1.400 . S
C1775 C1776 1.398 . S
C1776 H1764 0.950 . S
C1776 C1775 1.398 . S
C1776 C1777 1.391 . S
C1777 H1765 0.950 . S
C1777 C1773 1.393 . S
C1777 C1776 1.391 . S
H1778 C1786 0.950 . S
H1779 C1791 0.950 . S
H1780 C1788 0.950 . S
H1781 C1790 0.950 . S
H1782 C1792 0.950 . S
H1783 C1794 0.950 . S
H1784 C1796 0.950 . S
H1785 C1797 0.950 . S
C1786 H1778 0.950 . S
C1786 C1787 1.386 . S
C1786 C1788 1.391 . S
C1787 C1786 1.386 . S
C1787 C1791 1.393 . S
C1788 H1780 0.950 . S
C1788 C1786 1.391 . S
C1788 C1789 1.400 . S
C1789 C1788 1.400 . S
C1789 C1790 1.398 . S
C1789 C1795 1.491 . S
C1790 H1781 0.950 . S
C1790 C1789 1.398 . S
C1790 C1791 1.391 . S
C1791 H1779 0.950 . S
C1791 C1787 1.393 . S
C1791 C1790 1.391 . S
C1792 H1782 0.950 . S
C1792 C1793 1.386 . S
C1792 C1794 1.391 . S
C1793 C1792 1.386 . S
C1793 C1797 1.393 . S
C1794 H1783 0.950 . S
C1794 C1792 1.391 . S
C1794 C1795 1.400 . S
C1795 C1789 1.491 . S
C1795 C1794 1.400 . S
C1795 C1796 1.398 . S
C1796 H1784 0.950 . S
C1796 C1795 1.398 . S
C1796 C1797 1.391 . S
C1797 H1785 0.950 . S
C1797 C1793 1.393 . S
C1797 C1796 1.391 . S
H1798 C1806 0.950 . S
H1799 C1811 0.950 . S
H1800 C1808 0.950 . S
H1801 C1810 0.950 . S
H1802 C1812 0.950 . S
H1803 C1814 0.950 . S
H1804 C1816 0.950 . S
H1805 C1817 0.950 . S
C1806 H1798 0.950 . S
C1806 C1807 1.386 . S
C1806 C1808 1.391 . S
C1807 C1806 1.386 . S
C1807 C1811 1.393 . S
C1808 H1800 0.950 . S
C1808 C1806 1.391 . S
C1808 C1809 1.400 . S
C1809 C1808 1.400 . S
C1809 C1810 1.398 . S
C1809 C1815 1.491 . S
C1810 H1801 0.950 . S
C1810 C1809 1.398 . S
C1810 C1811 1.391 . S
C1811 H1799 0.950 . S
C1811 C1807 1.393 . S
C1811 C1810 1.391 . S
C1812 H1802 0.950 . S
C1812 C1813 1.386 . S
C1812 C1814 1.391 . S
C1813 C1812 1.386 . S
C1813 C1817 1.393 . S
C1814 H1803 0.950 . S
C1814 C1812 1.391 . S
C1814 C1815 1.400 . S
C1815 C1809 1.491 . S
C1815 C1814 1.400 . S
C1815 C1816 1.398 . S
C1816 H1804 0.950 . S
C1816 C1815 1.398 . S
C1816 C1817 1.391 . S
C1817 H1805 0.950 . S
C1817 C1813 1.393 . S
C1817 C1816 1.391 . S
H1818 C1826 0.950 . S
H1819 C1831 0.950 . S
H1820 C1828 0.950 . S
H1821 C1830 0.950 . S
H1822 C1832 0.950 . S
H1823 C1834 0.950 . S
H1824 C1836 0.950 . S
H1825 C1837 0.950 . S
C1826 H1818 0.950 . S
C1826 C1827 1.386 . S
C1826 C1828 1.391 . S
C1827 C1826 1.386 . S
C1827 C1831 1.393 . S
C1828 H1820 0.950 . S
C1828 C1826 1.391 . S
C1828 C1829 1.400 . S
C1829 C1828 1.400 . S
C1829 C1830 1.398 . S
C1829 C1835 1.491 . S
C1830 H1821 0.950 . S
C1830 C1829 1.398 . S
C1830 C1831 1.391 . S
C1831 H1819 0.950 . S
C1831 C1827 1.393 . S
C1831 C1830 1.391 . S
C1832 H1822 0.950 . S
C1832 C1833 1.386 . S
C1832 C1834 1.391 . S
C1833 C1832 1.386 . S
C1833 C1837 1.393 . S
C1834 H1823 0.950 . S
C1834 C1832 1.391 . S
C1834 C1835 1.400 . S
C1835 C1829 1.491 . S
C1835 C1834 1.400 . S
C1835 C1836 1.398 . S
C1836 H1824 0.950 . S
C1836 C1835 1.398 . S
C1836 C1837 1.391 . S
C1837 H1825 0.950 . S
C1837 C1833 1.393 . S
C1837 C1836 1.391 . S
H1838 C1846 0.950 . S
H1839 C1851 0.950 . S
H1840 C1848 0.950 . S
H1841 C1850 0.950 . S
H1842 C1852 0.950 . S
H1843 C1854 0.950 . S
H1844 C1856 0.950 . S
H1845 C1857 0.950 . S
C1846 H1838 0.950 . S
C1846 C1847 1.386 . S
C1846 C1848 1.391 . S
C1847 C1846 1.386 . S
C1847 C1851 1.393 . S
C1848 H1840 0.950 . S
C1848 C1846 1.391 . S
C1848 C1849 1.400 . S
C1849 C1848 1.400 . S
C1849 C1850 1.398 . S
C1849 C1855 1.491 . S
C1850 H1841 0.950 . S
C1850 C1849 1.398 . S
C1850 C1851 1.391 . S
C1851 H1839 0.950 . S
C1851 C1847 1.393 . S
C1851 C1850 1.391 . S
C1852 H1842 0.950 . S
C1852 C1853 1.386 . S
C1852 C1854 1.391 . S
C1853 C1852 1.386 . S
C1853 C1857 1.393 . S
C1854 H1843 0.950 . S
C1854 C1852 1.391 . S
C1854 C1855 1.400 . S
C1855 C1849 1.491 . S
C1855 C1854 1.400 . S
C1855 C1856 1.398 . S
C1856 H1844 0.950 . S
C1856 C1855 1.398 . S
C1856 C1857 1.391 . S
C1857 H1845 0.950 . S
C1857 C1853 1.393 . S
C1857 C1856 1.391 . S
H1858 C1866 0.950 . S
H1859 C1871 0.950 . S
H1860 C1868 0.950 . S
H1861 C1870 0.950 . S
H1862 C1872 0.950 . S
H1863 C1874 0.950 . S
H1864 C1876 0.950 . S
H1865 C1877 0.950 . S
C1866 H1858 0.950 . S
C1866 C1867 1.386 . S
C1866 C1868 1.391 . S
C1867 C1866 1.386 . S
C1867 C1871 1.393 . S
C1868 H1860 0.950 . S
C1868 C1866 1.391 . S
C1868 C1869 1.400 . S
C1869 C1868 1.400 . S
C1869 C1870 1.398 . S
C1869 C1875 1.491 . S
C1870 H1861 0.950 . S
C1870 C1869 1.398 . S
C1870 C1871 1.391 . S
C1871 H1859 0.950 . S
C1871 C1867 1.393 . S
C1871 C1870 1.391 . S
C1872 H1862 0.950 . S
C1872 C1873 1.386 . S
C1872 C1874 1.391 . S
C1873 C1872 1.386 . S
C1873 C1877 1.393 . S
C1874 H1863 0.950 . S
C1874 C1872 1.391 . S
C1874 C1875 1.400 . S
C1875 C1869 1.491 . S
C1875 C1874 1.400 . S
C1875 C1876 1.398 . S
C1876 H1864 0.950 . S
C1876 C1875 1.398 . S
C1876 C1877 1.391 . S
C1877 H1865 0.950 . S
C1877 C1873 1.393 . S
C1877 C1876 1.391 . S
H1878 C1886 0.950 . S
H1879 C1891 0.950 . S
H1880 C1888 0.950 . S
H1881 C1890 0.950 . S
H1882 C1892 0.950 . S
H1883 C1894 0.950 . S
H1884 C1896 0.950 . S
H1885 C1897 0.950 . S
C1886 H1878 0.950 . S
C1886 C1887 1.386 . S
C1886 C1888 1.391 . S
C1887 C1886 1.386 . S
C1887 C1891 1.393 . S
C1888 H1880 0.950 . S
C1888 C1886 1.391 . S
C1888 C1889 1.400 . S
C1889 C1888 1.400 . S
C1889 C1890 1.398 . S
C1889 C1895 1.491 . S
C1890 H1881 0.950 . S
C1890 C1889 1.398 . S
C1890 C1891 1.391 . S
C1891 H1879 0.950 . S
C1891 C1887 1.393 . S
C1891 C1890 1.391 . S
C1892 H1882 0.950 . S
C1892 C1893 1.386 . S
C1892 C1894 1.391 . S
C1893 C1892 1.386 . S
C1893 C1897 1.393 . S
C1894 H1883 0.950 . S
C1894 C1892 1.391 . S
C1894 C1895 1.400 . S
C1895 C1889 1.491 . S
C1895 C1894 1.400 . S
C1895 C1896 1.398 . S
C1896 H1884 0.950 . S
C1896 C1895 1.398 . S
C1896 C1897 1.391 . S
C1897 H1885 0.950 . S
C1897 C1893 1.393 . S
C1897 C1896 1.391 . S
H1898 C1906 0.950 . S
H1899 C1911 0.950 . S
H1900 C1908 0.950 . S
H1901 C1910 0.950 . S
H1902 C1912 0.950 . S
H1903 C1914 0.950 . S
H1904 C1916 0.950 . S
H1905 C1917 0.950 . S
C1906 H1898 0.950 . S
C1906 C1907 1.386 . S
C1906 C1908 1.391 . S
C1907 C1906 1.386 . S
C1907 C1911 1.393 . S
C1908 H1900 0.950 . S
C1908 C1906 1.391 . S
C1908 C1909 1.400 . S
C1909 C1908 1.400 . S
C1909 C1910 1.398 . S
C1909 C1915 1.491 . S
C1910 H1901 0.950 . S
C1910 C1909 1.398 . S
C1910 C1911 1.391 . S
C1911 H1899 0.950 . S
C1911 C1907 1.393 . S
C1911 C1910 1.391 . S
C1912 H1902 0.950 . S
C1912 C1913 1.386 . S
C1912 C1914 1.391 . S
C1913 C1912 1.386 . S
C1913 C1917 1.393 . S
C1914 H1903 0.950 . S
C1914 C1912 1.391 . S
C1914 C1915 1.400 . S
C1915 C1909 1.491 . S
C1915 C1914 1.400 . S
C1915 C1916 1.398 . S
C1916 H1904 0.950 . S
C1916 C1915 1.398 . S
C1916 C1917 1.391 . S
C1917 H1905 0.950 . S
C1917 C1913 1.393 . S
C1917 C1916 1.391 . S
H1918 C1926 0.950 . S
H1919 C1931 0.950 . S
H1920 C1928 0.950 . S
H1921 C1930 0.950 . S
H1922 C1932 0.950 . S
H1923 C1934 0.950 . S
H1924 C1936 0.950 . S
H1925 C1937 0.950 . S
C1926 H1918 0.950 . S
C1926 C1927 1.386 . S
C1926 C1928 1.391 . S
C1927 C1926 1.386 . S
C1927 C1931 1.393 . S
C1928 H1920 0.950 . S
C1928 C1926 1.391 . S
C1928 C1929 1.400 . S
C1929 C1928 1.400 . S
C1929 C1930 1.398 . S
C1929 C1935 1.491 . S
C1930 H1921 0.950 . S
C1930 C1929 1.398 . S
C1930 C1931 1.391 . S
C1931 H1919 0.950 . S
C1931 C1927 1.393 . S
C1931 C1930 1.391 . S
C1932 H1922 0.950 . S
C1932 C1933 1.386 . S
C1932 C1934 1.391 . S
C1933 C1932 1.386 . S
C1933 C1937 1.393 . S
C1934 H1923 0.950 . S
C1934 C1932 1.391 . S
C1934 C1935 1.400 . S
C1935 C1929 1.491 . S
C1935 C1934 1.400 . S
C1935 C1936 1.398 . S
C1936 H1924 0.950 . S
C1936 C1935 1.398 . S
C1936 C1937 1.391 . S
C1937 H1925 0.950 . S
C1937 C1933 1.393 . S
C1937 C1936 1.391 . S
H1938 C1946 0.950 . S
H1939 C1951 0.950 . S
H1940 C1948 0.950 . S
H1941 C1950 0.950 . S
H1942 C1952 0.950 . S
H1943 C1954 0.950 . S
H1944 C1956 0.950 . S
H1945 C1957 0.950 . S
C1946 H1938 0.950 . S
C1946 C1947 1.386 . S
C1946 C1948 1.391 . S
C1947 C1946 1.386 . S
C1947 C1951 1.393 . S
C1948 H1940 0.950 . S
C1948 C1946 1.391 . S
C1948 C1949 1.400 . S
C1949 C1948 1.400 . S
C1949 C1950 1.398 . S
C1949 C1955 1.491 . S
C1950 H1941 0.950 . S
C1950 C1949 1.398 . S
C1950 C1951 1.391 . S
C1951 H1939 0.950 . S
C1951 C1947 1.393 . S
C1951 C1950 1.391 . S
C1952 H1942 0.950 . S
C1952 C1953 1.386 . S
C1952 C1954 1.391 . S
C1953 C1952 1.386 . S
C1953 C1957 1.393 . S
C1954 H1943 0.950 . S
C1954 C1952 1.391 . S
C1954 C1955 1.400 . S
C1955 C1949 1.491 . S
C1955 C1954 1.400 . S
C1955 C1956 1.398 . S
C1956 H1944 0.950 . S
C1956 C1955 1.398 . S
C1956 C1957 1.391 . S
C1957 H1945 0.950 . S
C1957 C1953 1.393 . S
C1957 C1956 1.391 . S
H1958 C1966 0.950 . S
H1959 C1971 0.950 . S
H1960 C1968 0.950 . S
H1961 C1970 0.950 . S
H1962 C1972 0.950 . S
H1963 C1974 0.950 . S
H1964 C1976 0.950 . S
H1965 C1977 0.950 . S
C1966 H1958 0.950 . S
C1966 C1967 1.386 . S
C1966 C1968 1.391 . S
C1967 C1966 1.386 . S
C1967 C1971 1.393 . S
C1968 H1960 0.950 . S
C1968 C1966 1.391 . S
C1968 C1969 1.400 . S
C1969 C1968 1.400 . S
C1969 C1970 1.398 . S
C1969 C1975 1.491 . S
C1970 H1961 0.950 . S
C1970 C1969 1.398 . S
C1970 C1971 1.391 . S
C1971 H1959 0.950 . S
C1971 C1967 1.393 . S
C1971 C1970 1.391 . S
C1972 H1962 0.950 . S
C1972 C1973 1.386 . S
C1972 C1974 1.391 . S
C1973 C1972 1.386 . S
C1973 C1977 1.393 . S
C1974 H1963 0.950 . S
C1974 C1972 1.391 . S
C1974 C1975 1.400 . S
C1975 C1969 1.491 . S
C1975 C1974 1.400 . S
C1975 C1976 1.398 . S
C1976 H1964 0.950 . S
C1976 C1975 1.398 . S
C1976 C1977 1.391 . S
C1977 H1965 0.950 . S
C1977 C1973 1.393 . S
C1977 C1976 1.391 . S
H1978 C1986 0.950 . S
H1979 C1991 0.950 . S
H1980 C1988 0.950 . S
H1981 C1990 0.950 . S
H1982 C1992 0.950 . S
H1983 C1994 0.950 . S
H1984 C1996 0.950 . S
H1985 C1997 0.950 . S
C1986 H1978 0.950 . S
C1986 C1987 1.386 . S
C1986 C1988 1.391 . S
C1987 C1986 1.386 . S
C1987 C1991 1.393 . S
C1988 H1980 0.950 . S
C1988 C1986 1.391 . S
C1988 C1989 1.400 . S
C1989 C1988 1.400 . S
C1989 C1990 1.398 . S
C1989 C1995 1.491 . S
C1990 H1981 0.950 . S
C1990 C1989 1.398 . S
C1990 C1991 1.391 . S
C1991 H1979 0.950 . S
C1991 C1987 1.393 . S
C1991 C1990 1.391 . S
C1992 H1982 0.950 . S
C1992 C1993 1.386 . S
C1992 C1994 1.391 . S
C1993 C1992 1.386 . S
C1993 C1997 1.393 . S
C1994 H1983 0.950 . S
C1994 C1992 1.391 . S
C1994 C1995 1.400 . S
C1995 C1989 1.491 . S
C1995 C1994 1.400 . S
C1995 C1996 1.398 . S
C1996 H1984 0.950 . S
C1996 C1995 1.398 . S
C1996 C1997 1.391 . S
C1997 H1985 0.950 . S
C1997 C1993 1.393 . S
C1997 C1996 1.391 . S
H1998 C2006 0.950 . S
H1999 C2011 0.950 . S
H2000 C2008 0.950 . S
H2001 C2010 0.950 . S
H2002 C2012 0.950 . S
H2003 C2014 0.950 . S
H2004 C2016 0.950 . S
H2005 C2017 0.950 . S
C2006 H1998 0.950 . S
C2006 C2007 1.386 . S
C2006 C2008 1.391 . S
C2007 C2006 1.386 . S
C2007 C2011 1.393 . S
C2008 H2000 0.950 . S
C2008 C2006 1.391 . S
C2008 C2009 1.400 . S
C2009 C2008 1.400 . S
C2009 C2010 1.398 . S
C2009 C2015 1.491 . S
C2010 H2001 0.950 . S
C2010 C2009 1.398 . S
C2010 C2011 1.391 . S
C2011 H1999 0.950 . S
C2011 C2007 1.393 . S
C2011 C2010 1.391 . S
C2012 H2002 0.950 . S
C2012 C2013 1.386 . S
C2012 C2014 1.391 . S
C2013 C2012 1.386 . S
C2013 C2017 1.393 . S
C2014 H2003 0.950 . S
C2014 C2012 1.391 . S
C2014 C2015 1.400 . S
C2015 C2009 1.491 . S
C2015 C2014 1.400 . S
C2015 C2016 1.398 . S
C2016 H2004 0.950 . S
C2016 C2015 1.398 . S
C2016 C2017 1.391 . S
C2017 H2005 0.950 . S
C2017 C2013 1.393 . S
C2017 C2016 1.391 . S
H2018 C2026 0.950 . S
H2019 C2031 0.950 . S
H2020 C2028 0.950 . S
H2021 C2030 0.950 . S
H2022 C2032 0.950 . S
H2023 C2034 0.950 . S
H2024 C2036 0.950 . S
H2025 C2037 0.950 . S
C2026 H2018 0.950 . S
C2026 C2027 1.386 . S
C2026 C2028 1.391 . S
C2027 C2026 1.386 . S
C2027 C2031 1.393 . S
C2028 H2020 0.950 . S
C2028 C2026 1.391 . S
C2028 C2029 1.400 . S
C2029 C2028 1.400 . S
C2029 C2030 1.398 . S
C2029 C2035 1.491 . S
C2030 H2021 0.950 . S
C2030 C2029 1.398 . S
C2030 C2031 1.391 . S
C2031 H2019 0.950 . S
C2031 C2027 1.393 . S
C2031 C2030 1.391 . S
C2032 H2022 0.950 . S
C2032 C2033 1.386 . S
C2032 C2034 1.391 . S
C2033 C2032 1.386 . S
C2033 C2037 1.393 . S
C2034 H2023 0.950 . S
C2034 C2032 1.391 . S
C2034 C2035 1.400 . S
C2035 C2029 1.491 . S
C2035 C2034 1.400 . S
C2035 C2036 1.398 . S
C2036 H2024 0.950 . S
C2036 C2035 1.398 . S
C2036 C2037 1.391 . S
C2037 H2025 0.950 . S
C2037 C2033 1.393 . S
C2037 C2036 1.391 . S
H2038 C2046 0.950 . S
H2039 C2051 0.950 . S
H2040 C2048 0.950 . S
H2041 C2050 0.950 . S
H2042 C2052 0.950 . S
H2043 C2054 0.950 . S
H2044 C2056 0.950 . S
H2045 C2057 0.950 . S
C2046 H2038 0.950 . S
C2046 C2047 1.386 . S
C2046 C2048 1.391 . S
C2047 C2046 1.386 . S
C2047 C2051 1.393 . S
C2048 H2040 0.950 . S
C2048 C2046 1.391 . S
C2048 C2049 1.400 . S
C2049 C2048 1.400 . S
C2049 C2050 1.398 . S
C2049 C2055 1.491 . S
C2050 H2041 0.950 . S
C2050 C2049 1.398 . S
C2050 C2051 1.391 . S
C2051 H2039 0.950 . S
C2051 C2047 1.393 . S
C2051 C2050 1.391 . S
C2052 H2042 0.950 . S
C2052 C2053 1.386 . S
C2052 C2054 1.391 . S
C2053 C2052 1.386 . S
C2053 C2057 1.393 . S
C2054 H2043 0.950 . S
C2054 C2052 1.391 . S
C2054 C2055 1.400 . S
C2055 C2049 1.491 . S
C2055 C2054 1.400 . S
C2055 C2056 1.398 . S
C2056 H2044 0.950 . S
C2056 C2055 1.398 . S
C2056 C2057 1.391 . S
C2057 H2045 0.950 . S
C2057 C2053 1.393 . S
C2057 C2056 1.391 . S
H2058 C2066 0.950 . S
H2059 C2071 0.950 . S
H2060 C2068 0.950 . S
H2061 C2070 0.950 . S
H2062 C2072 0.950 . S
H2063 C2074 0.950 . S
H2064 C2076 0.950 . S
H2065 C2077 0.950 . S
C2066 H2058 0.950 . S
C2066 C2067 1.386 . S
C2066 C2068 1.391 . S
C2067 C2066 1.386 . S
C2067 C2071 1.393 . S
C2068 H2060 0.950 . S
C2068 C2066 1.391 . S
C2068 C2069 1.400 . S
C2069 C2068 1.400 . S
C2069 C2070 1.398 . S
C2069 C2075 1.491 . S
C2070 H2061 0.950 . S
C2070 C2069 1.398 . S
C2070 C2071 1.391 . S
C2071 H2059 0.950 . S
C2071 C2067 1.393 . S
C2071 C2070 1.391 . S
C2072 H2062 0.950 . S
C2072 C2073 1.386 . S
C2072 C2074 1.391 . S
C2073 C2072 1.386 . S
C2073 C2077 1.393 . S
C2074 H2063 0.950 . S
C2074 C2072 1.391 . S
C2074 C2075 1.400 . S
C2075 C2069 1.491 . S
C2075 C2074 1.400 . S
C2075 C2076 1.398 . S
C2076 H2064 0.950 . S
C2076 C2075 1.398 . S
C2076 C2077 1.391 . S
C2077 H2065 0.950 . S
C2077 C2073 1.393 . S
C2077 C2076 1.391 . S
H2078 C2086 0.950 . S
H2079 C2091 0.950 . S
H2080 C2088 0.950 . S
H2081 C2090 0.950 . S
H2082 C2092 0.950 . S
H2083 C2094 0.950 . S
H2084 C2096 0.950 . S
H2085 C2097 0.950 . S
C2086 H2078 0.950 . S
C2086 C2087 1.386 . S
C2086 C2088 1.391 . S
C2087 C2086 1.386 . S
C2087 C2091 1.393 . S
C2088 H2080 0.950 . S
C2088 C2086 1.391 . S
C2088 C2089 1.400 . S
C2089 C2088 1.400 . S
C2089 C2090 1.398 . S
C2089 C2095 1.491 . S
C2090 H2081 0.950 . S
C2090 C2089 1.398 . S
C2090 C2091 1.391 . S
C2091 H2079 0.950 . S
C2091 C2087 1.393 . S
C2091 C2090 1.391 . S
C2092 H2082 0.950 . S
C2092 C2093 1.386 . S
C2092 C2094 1.391 . S
C2093 C2092 1.386 . S
C2093 C2097 1.393 . S
C2094 H2083 0.950 . S
C2094 C2092 1.391 . S
C2094 C2095 1.400 . S
C2095 C2089 1.491 . S
C2095 C2094 1.400 . S
C2095 C2096 1.398 . S
C2096 H2084 0.950 . S
C2096 C2095 1.398 . S
C2096 C2097 1.391 . S
C2097 H2085 0.950 . S
C2097 C2093 1.393 . S
C2097 C2096 1.391 . S
H2098 C2106 0.950 . S
H2099 C2111 0.950 . S
H2100 C2108 0.950 . S
H2101 C2110 0.950 . S
H2102 C2112 0.950 . S
H2103 C2114 0.950 . S
H2104 C2116 0.950 . S
H2105 C2117 0.950 . S
C2106 H2098 0.950 . S
C2106 C2107 1.386 . S
C2106 C2108 1.391 . S
C2107 C2106 1.386 . S
C2107 C2111 1.393 . S
C2108 H2100 0.950 . S
C2108 C2106 1.391 . S
C2108 C2109 1.400 . S
C2109 C2108 1.400 . S
C2109 C2110 1.398 . S
C2109 C2115 1.491 . S
C2110 H2101 0.950 . S
C2110 C2109 1.398 . S
C2110 C2111 1.391 . S
C2111 H2099 0.950 . S
C2111 C2107 1.393 . S
C2111 C2110 1.391 . S
C2112 H2102 0.950 . S
C2112 C2113 1.386 . S
C2112 C2114 1.391 . S
C2113 C2112 1.386 . S
C2113 C2117 1.393 . S
C2114 H2103 0.950 . S
C2114 C2112 1.391 . S
C2114 C2115 1.400 . S
C2115 C2109 1.491 . S
C2115 C2114 1.400 . S
C2115 C2116 1.398 . S
C2116 H2104 0.950 . S
C2116 C2115 1.398 . S
C2116 C2117 1.391 . S
C2117 H2105 0.950 . S
C2117 C2113 1.393 . S
C2117 C2116 1.391 . S
H2118 C2126 0.950 . S
H2119 C2131 0.950 . S
H2120 C2128 0.950 . S
H2121 C2130 0.950 . S
H2122 C2132 0.950 . S
H2123 C2134 0.950 . S
H2124 C2136 0.950 . S
H2125 C2137 0.950 . S
C2126 H2118 0.950 . S
C2126 C2127 1.386 . S
C2126 C2128 1.391 . S
C2127 C2126 1.386 . S
C2127 C2131 1.393 . S
C2128 H2120 0.950 . S
C2128 C2126 1.391 . S
C2128 C2129 1.400 . S
C2129 C2128 1.400 . S
C2129 C2130 1.398 . S
C2129 C2135 1.491 . S
C2130 H2121 0.950 . S
C2130 C2129 1.398 . S
C2130 C2131 1.391 . S
C2131 H2119 0.950 . S
C2131 C2127 1.393 . S
C2131 C2130 1.391 . S
C2132 H2122 0.950 . S
C2132 C2133 1.386 . S
C2132 C2134 1.391 . S
C2133 C2132 1.386 . S
C2133 C2137 1.393 . S
C2134 H2123 0.950 . S
C2134 C2132 1.391 . S
C2134 C2135 1.400 . S
C2135 C2129 1.491 . S
C2135 C2134 1.400 . S
C2135 C2136 1.398 . S
C2136 H2124 0.950 . S
C2136 C2135 1.398 . S
C2136 C2137 1.391 . S
C2137 H2125 0.950 . S
C2137 C2133 1.393 . S
C2137 C2136 1.391 . S
H2138 C2146 0.950 . S
H2139 C2151 0.950 . S
H2140 C2148 0.950 . S
H2141 C2150 0.950 . S
H2142 C2152 0.950 . S
H2143 C2154 0.950 . S
H2144 C2156 0.950 . S
H2145 C2157 0.950 . S
C2146 H2138 0.950 . S
C2146 C2147 1.386 . S
C2146 C2148 1.391 . S
C2147 C2146 1.386 . S
C2147 C2151 1.393 . S
C2148 H2140 0.950 . S
C2148 C2146 1.391 . S
C2148 C2149 1.400 . S
C2149 C2148 1.400 . S
C2149 C2150 1.398 . S
C2149 C2155 1.491 . S
C2150 H2141 0.950 . S
C2150 C2149 1.398 . S
C2150 C2151 1.391 . S
C2151 H2139 0.950 . S
C2151 C2147 1.393 . S
C2151 C2150 1.391 . S
C2152 H2142 0.950 . S
C2152 C2153 1.386 . S
C2152 C2154 1.391 . S
C2153 C2152 1.386 . S
C2153 C2157 1.393 . S
C2154 H2143 0.950 . S
C2154 C2152 1.391 . S
C2154 C2155 1.400 . S
C2155 C2149 1.491 . S
C2155 C2154 1.400 . S
C2155 C2156 1.398 . S
C2156 H2144 0.950 . S
C2156 C2155 1.398 . S
C2156 C2157 1.391 . S
C2157 H2145 0.950 . S
C2157 C2153 1.393 . S
C2157 C2156 1.391 . S
H2158 C2166 0.950 . S
H2159 C2171 0.950 . S
H2160 C2168 0.950 . S
H2161 C2170 0.950 . S
H2162 C2172 0.950 . S
H2163 C2174 0.950 . S
H2164 C2176 0.950 . S
H2165 C2177 0.950 . S
C2166 H2158 0.950 . S
C2166 C2167 1.386 . S
C2166 C2168 1.391 . S
C2167 C2166 1.386 . S
C2167 C2171 1.393 . S
C2168 H2160 0.950 . S
C2168 C2166 1.391 . S
C2168 C2169 1.400 . S
C2169 C2168 1.400 . S
C2169 C2170 1.398 . S
C2169 C2175 1.491 . S
C2170 H2161 0.950 . S
C2170 C2169 1.398 . S
C2170 C2171 1.391 . S
C2171 H2159 0.950 . S
C2171 C2167 1.393 . S
C2171 C2170 1.391 . S
C2172 H2162 0.950 . S
C2172 C2173 1.386 . S
C2172 C2174 1.391 . S
C2173 C2172 1.386 . S
C2173 C2177 1.393 . S
C2174 H2163 0.950 . S
C2174 C2172 1.391 . S
C2174 C2175 1.400 . S
C2175 C2169 1.491 . S
C2175 C2174 1.400 . S
C2175 C2176 1.398 . S
C2176 H2164 0.950 . S
C2176 C2175 1.398 . S
C2176 C2177 1.391 . S
C2177 H2165 0.950 . S
C2177 C2173 1.393 . S
C2177 C2176 1.391 . S
C1107 C253 1.460 . S
C1113 C409 1.417 . S
C1127 C272 1.503 . S
C1133 C493 1.434 . S
C1147 C234 1.449 . S
C1153 C573 1.462 . S
C1167 C215 1.439 . S
C1173 C489 1.452 1_556 S
C1193 C577 1.394 . S
C1187 C177 1.463 . S
C1207 C196 1.418 . S
C1213 C405 1.424 1_556 S
C1233 C398 1.476 . S
C1227 C220 1.449 . S
C1253 C482 1.515 . S
C1247 C182 1.480 . S
C1267 C201 1.471 . S
C1273 C584 1.509 1_556 S
C1287 C258 1.435 . S
C1293 C500 1.483 . S
C1307 C277 1.451 . S
C1313 C566 1.464 . S
C1333 C416 1.464 . S
C1327 C239 1.414 . S
C1353 C661 1.402 . S
C1347 C25 1.466 . S
C1367 C44 1.502 . S
C1373 C745 1.441 . S
C1387 C6 1.448 . S
C1393 C825 1.461 . S
C1407 C329 1.444 . S
C1413 C741 1.452 . S
C1427 C291 1.460 . S
C1433 C829 1.408 . S
C1447 C310 1.411 . S
C1453 C657 1.416 . S
C1467 C334 1.457 . S
C1473 C650 1.478 . S
C1487 C296 1.496 . S
C1493 C734 1.512 . S
C1513 C836 1.508 . S
C1507 C315 1.460 . S
C1527 C30 1.463 1_565 S
C1533 C752 1.499 . S
C1553 C818 1.448 . S
C1547 C49 1.430 1_455 S
C1567 C11 1.421 . S
C1573 C668 1.471 . S
C1593 C913 1.398 . S
C1587 C139 1.469 . S
C1607 C158 1.498 . S
C1613 C997 1.452 . S
C1633 C1077 1.463 . S
C1627 C120 1.454 . S
C1653 C993 1.451 . S
C1647 C101 1.439 . S
C1673 C1081 1.408 . S
C1667 C63 1.460 . S
C1687 C82 1.409 . S
C1693 C909 1.422 . S
C1707 C106 1.447 1_655 S
C1713 C902 1.481 . S
C1727 C68 1.477 . S
C1733 C986 1.500 . S
C1753 C1088 1.512 . S
C1747 C87 1.480 1_545 S
C1767 C144 1.436 . S
C1773 C1004 1.485 . S
C1787 C163 1.439 . S
C1793 C1070 1.453 . S
C1807 C125 1.442 . S
C1813 C920 1.474 . S
C1827 C287 1.648 . S
C1833 C412 1.526 . S
C1853 C496 1.569 . S
C1847 C306 1.719 . S
C1867 C325 1.656 . S
C1873 C568 1.477 . S
C1887 C116 1.689 . S
C1893 C484 1.469 . S
C1907 C135 1.684 . S
C1913 C580 1.541 . S
C1933 C400 1.446 . S
C1927 C154 1.609 . S
C1947 C59 1.647 . S
C1953 C664 1.527 . S
C1967 C78 1.727 . S
C1973 C748 1.600 . S
C1987 C97 1.650 . S
C1993 C820 1.437 . S
C2007 C230 1.689 . S
C2013 C736 1.488 . S
C2033 C832 1.533 . S
C2027 C249 1.669 . S
C2047 C268 1.620 . S
C2053 C652 1.432 . S
C2067 C173 1.647 . S
C2073 C916 1.556 . S
C2087 C192 1.724 . S
C2093 C1000 1.603 . S
C2113 C1072 1.475 . S
C2107 C211 1.665 . S
C2127 C2 1.690 . S
C2133 C988 1.482 . S
C2147 C21 1.669 . S
C2153 C1084 1.561 . S
C2167 C40 1.612 . S
C2173 C904 1.408 . S
