# Generated by pormake.
# Topology eea, (3,6)-cn, num edge types: 1
# Building blocks:
#     Node 0, Type 0, BuildingBlock: MIDCAF_clean_linker_0, # of connection points: 3
#     Node 1, Type 0, BuildingBlock: MIDCAF_clean_linker_0, # of connection points: 3
#     Node 2, Type 0, BuildingBlock: MIDCAF_clean_linker_0, # of connection points: 3
#     Node 3, Type 0, BuildingBlock: MIDCAF_clean_linker_0, # of connection points: 3
#     Node 4, Type 0, BuildingBlock: MIDCAF_clean_linker_0, # of connection points: 3
#     Node 5, Type 0, BuildingBlock: MIDCAF_clean_linker_0, # of connection points: 3
#     Node 6, Type 0, BuildingBlock: MIDCAF_clean_linker_0, # of connection points: 3
#     Node 7, Type 0, BuildingBlock: MIDCAF_clean_linker_0, # of connection points: 3
#     Node 8, Type 0, BuildingBlock: MIDCAF_clean_linker_0, # of connection points: 3
#     Node 9, Type 0, BuildingBlock: MIDCAF_clean_linker_0, # of connection points: 3
#     Node 10, Type 0, BuildingBlock: MIDCAF_clean_linker_0, # of connection points: 3
#     Node 11, Type 0, BuildingBlock: MIDCAF_clean_linker_0, # of connection points: 3
#     Node 12, Type 0, BuildingBlock: MIDCAF_clean_linker_0, # of connection points: 3
#     Node 13, Type 0, BuildingBlock: MIDCAF_clean_linker_0, # of connection points: 3
#     Node 14, Type 0, BuildingBlock: MIDCAF_clean_linker_0, # of connection points: 3
#     Node 15, Type 0, BuildingBlock: MIDCAF_clean_linker_0, # of connection points: 3
#     Node 16, Type 0, BuildingBlock: MIDCAF_clean_linker_0, # of connection points: 3
#     Node 17, Type 0, BuildingBlock: MIDCAF_clean_linker_0, # of connection points: 3
#     Node 18, Type 1, BuildingBlock: KUMBOL_clean_sbu_0, # of connection points: 6
#     Node 19, Type 1, BuildingBlock: KUMBOL_clean_sbu_0, # of connection points: 6
#     Node 20, Type 1, BuildingBlock: KUMBOL_clean_sbu_0, # of connection points: 6
#     Node 21, Type 1, BuildingBlock: KUMBOL_clean_sbu_0, # of connection points: 6
#     Node 22, Type 1, BuildingBlock: KUMBOL_clean_sbu_0, # of connection points: 6
#     Node 23, Type 1, BuildingBlock: KUMBOL_clean_sbu_0, # of connection points: 6
#     Node 24, Type 1, BuildingBlock: KUMBOL_clean_sbu_0, # of connection points: 6
#     Node 25, Type 1, BuildingBlock: KUMBOL_clean_sbu_0, # of connection points: 6
#     Node 26, Type 1, BuildingBlock: KUMBOL_clean_sbu_0, # of connection points: 6
#     Edge 27, Type (0, 1), BuildingBlock: MIFKUJ_clean_linker_0, # of connection points: 2
#     Edge 28, Type (0, 1), BuildingBlock: MIFKUJ_clean_linker_0, # of connection points: 2
#     Edge 29, Type (0, 1), BuildingBlock: MIFKUJ_clean_linker_0, # of connection points: 2
#     Edge 30, Type (0, 1), BuildingBlock: MIFKUJ_clean_linker_0, # of connection points: 2
#     Edge 31, Type (0, 1), BuildingBlock: MIFKUJ_clean_linker_0, # of connection points: 2
#     Edge 32, Type (0, 1), BuildingBlock: MIFKUJ_clean_linker_0, # of connection points: 2
#     Edge 33, Type (0, 1), BuildingBlock: MIFKUJ_clean_linker_0, # of connection points: 2
#     Edge 34, Type (0, 1), BuildingBlock: MIFKUJ_clean_linker_0, # of connection points: 2
#     Edge 35, Type (0, 1), BuildingBlock: MIFKUJ_clean_linker_0, # of connection points: 2
#     Edge 36, Type (0, 1), BuildingBlock: MIFKUJ_clean_linker_0, # of connection points: 2
#     Edge 37, Type (0, 1), BuildingBlock: MIFKUJ_clean_linker_0, # of connection points: 2
#     Edge 38, Type (0, 1), BuildingBlock: MIFKUJ_clean_linker_0, # of connection points: 2
#     Edge 39, Type (0, 1), BuildingBlock: MIFKUJ_clean_linker_0, # of connection points: 2
#     Edge 40, Type (0, 1), BuildingBlock: MIFKUJ_clean_linker_0, # of connection points: 2
#     Edge 41, Type (0, 1), BuildingBlock: MIFKUJ_clean_linker_0, # of connection points: 2
#     Edge 42, Type (0, 1), BuildingBlock: MIFKUJ_clean_linker_0, # of connection points: 2
#     Edge 43, Type (0, 1), BuildingBlock: MIFKUJ_clean_linker_0, # of connection points: 2
#     Edge 44, Type (0, 1), BuildingBlock: MIFKUJ_clean_linker_0, # of connection points: 2
#     Edge 45, Type (0, 1), BuildingBlock: MIFKUJ_clean_linker_0, # of connection points: 2
#     Edge 46, Type (0, 1), BuildingBlock: MIFKUJ_clean_linker_0, # of connection points: 2
#     Edge 47, Type (0, 1), BuildingBlock: MIFKUJ_clean_linker_0, # of connection points: 2
#     Edge 48, Type (0, 1), BuildingBlock: MIFKUJ_clean_linker_0, # of connection points: 2
#     Edge 49, Type (0, 1), BuildingBlock: MIFKUJ_clean_linker_0, # of connection points: 2
#     Edge 50, Type (0, 1), BuildingBlock: MIFKUJ_clean_linker_0, # of connection points: 2
#     Edge 51, Type (0, 1), BuildingBlock: MIFKUJ_clean_linker_0, # of connection points: 2
#     Edge 52, Type (0, 1), BuildingBlock: MIFKUJ_clean_linker_0, # of connection points: 2
#     Edge 53, Type (0, 1), BuildingBlock: MIFKUJ_clean_linker_0, # of connection points: 2
#     Edge 54, Type (0, 1), BuildingBlock: MIFKUJ_clean_linker_0, # of connection points: 2
#     Edge 55, Type (0, 1), BuildingBlock: MIFKUJ_clean_linker_0, # of connection points: 2
#     Edge 56, Type (0, 1), BuildingBlock: MIFKUJ_clean_linker_0, # of connection points: 2
#     Edge 57, Type (0, 1), BuildingBlock: MIFKUJ_clean_linker_0, # of connection points: 2
#     Edge 58, Type (0, 1), BuildingBlock: MIFKUJ_clean_linker_0, # of connection points: 2
#     Edge 59, Type (0, 1), BuildingBlock: MIFKUJ_clean_linker_0, # of connection points: 2
#     Edge 60, Type (0, 1), BuildingBlock: MIFKUJ_clean_linker_0, # of connection points: 2
#     Edge 61, Type (0, 1), BuildingBlock: MIFKUJ_clean_linker_0, # of connection points: 2
#     Edge 62, Type (0, 1), BuildingBlock: MIFKUJ_clean_linker_0, # of connection points: 2
#     Edge 63, Type (0, 1), BuildingBlock: MIFKUJ_clean_linker_0, # of connection points: 2
#     Edge 64, Type (0, 1), BuildingBlock: MIFKUJ_clean_linker_0, # of connection points: 2
#     Edge 65, Type (0, 1), BuildingBlock: MIFKUJ_clean_linker_0, # of connection points: 2
#     Edge 66, Type (0, 1), BuildingBlock: MIFKUJ_clean_linker_0, # of connection points: 2
#     Edge 67, Type (0, 1), BuildingBlock: MIFKUJ_clean_linker_0, # of connection points: 2
#     Edge 68, Type (0, 1), BuildingBlock: MIFKUJ_clean_linker_0, # of connection points: 2
#     Edge 69, Type (0, 1), BuildingBlock: MIFKUJ_clean_linker_0, # of connection points: 2
#     Edge 70, Type (0, 1), BuildingBlock: MIFKUJ_clean_linker_0, # of connection points: 2
#     Edge 71, Type (0, 1), BuildingBlock: MIFKUJ_clean_linker_0, # of connection points: 2
#     Edge 72, Type (0, 1), BuildingBlock: MIFKUJ_clean_linker_0, # of connection points: 2
#     Edge 73, Type (0, 1), BuildingBlock: MIFKUJ_clean_linker_0, # of connection points: 2
#     Edge 74, Type (0, 1), BuildingBlock: MIFKUJ_clean_linker_0, # of connection points: 2
#     Edge 75, Type (0, 1), BuildingBlock: MIFKUJ_clean_linker_0, # of connection points: 2
#     Edge 76, Type (0, 1), BuildingBlock: MIFKUJ_clean_linker_0, # of connection points: 2
#     Edge 77, Type (0, 1), BuildingBlock: MIFKUJ_clean_linker_0, # of connection points: 2
#     Edge 78, Type (0, 1), BuildingBlock: MIFKUJ_clean_linker_0, # of connection points: 2
#     Edge 79, Type (0, 1), BuildingBlock: MIFKUJ_clean_linker_0, # of connection points: 2
#     Edge 80, Type (0, 1), BuildingBlock: MIFKUJ_clean_linker_0, # of connection points: 2
# Relax obj value: 0.010
# Max RMSD: 0.098
# Mean RMSD: 0.055
data_MOF--net-eea--node1-KUMBOL_clean_sbu_0--node2-MIDCAF_clean_linker_0--edge1-MIFKUJ_clean_linker_0
_symmetry_space_group_name_H-M    P1
_symmetry_Int_Tables_number       1
_symmetry_cell_setting            triclinic
loop_
_symmetry_equiv_pos_as_xyz
'x, y, z'
_cell_length_a     78.055495
_cell_length_b     79.333368
_cell_length_c     107.17196
_cell_angle_alpha  90.302093
_cell_angle_beta   90.227574
_cell_angle_gamma 120.00989
loop_
_atom_site_label
_atom_site_type_symbol
_atom_site_fract_x
_atom_site_fract_y
_atom_site_fract_z
_atom_type_partial_charge
C0 C 0.23669 0.05628 0.41815 0.0
C1 C 0.23247 0.05361 0.40531 0.0
C2 C 0.23255 0.06868 0.39845 0.0
C3 C 0.2367 0.08608 0.40434 0.0
H4 H 0.23185 0.13432 0.39926 0.0
H5 H 0.22418 0.15673 0.38859 0.0
H6 H 0.24274 0.19414 0.42119 0.0
H7 H 0.25081 0.17194 0.43184 0.0
H8 H 0.26995 0.16185 0.45468 0.0
H9 H 0.28482 0.16915 0.47546 0.0
H10 H 0.27855 0.11193 0.477 0.0
H11 H 0.2641 0.10471 0.45618 0.0
H12 H 0.24426 0.07533 0.43394 0.0
H13 H 0.23689 0.04494 0.42363 0.0
H14 H 0.22916 0.06693 0.38856 0.0
H15 H 0.2366 0.09738 0.39877 0.0
N16 N 0.2421 0.12037 0.41741 0.0
N17 N 0.25378 0.14125 0.4348 0.0
N18 N 0.25312 0.11139 0.43516 0.0
C19 C 0.24613 0.13735 0.42304 0.0
C20 C 0.25734 0.12835 0.44092 0.0
C21 C 0.24553 0.10731 0.4234 0.0
C22 C 0.24191 0.15126 0.41645 0.0
C23 C 0.23437 0.14733 0.40418 0.0
C24 C 0.22987 0.16013 0.39806 0.0
C25 C 0.23278 0.17716 0.40406 0.0
C26 C 0.24054 0.18124 0.41626 0.0
C27 C 0.24506 0.16844 0.42239 0.0
C28 C 0.26589 0.13271 0.4537 0.0
C29 C 0.27171 0.1508 0.45944 0.0
C30 C 0.28016 0.15497 0.47138 0.0
C31 C 0.28296 0.14116 0.47785 0.0
C32 C 0.27692 0.12301 0.47217 0.0
C33 C 0.26852 0.11885 0.46024 0.0
C34 C 0.24104 0.08883 0.41719 0.0
C35 C 0.24103 0.07374 0.42402 0.0
C36 C 0.95651 0.17753 0.41514 0.0
C37 C 0.9608 0.17229 0.4035 0.0
C38 C 0.94784 0.15364 0.39863 0.0
C39 C 0.93095 0.14058 0.40519 0.0
H40 H 0.87943 0.08843 0.40113 0.0
H41 H 0.85465 0.05827 0.39118 0.0
H42 H 0.81942 0.04277 0.42461 0.0
H43 H 0.84395 0.07304 0.43452 0.0
H44 H 0.86331 0.09811 0.4592 0.0
H45 H 0.85728 0.10546 0.48029 0.0
H46 H 0.90129 0.16589 0.47535 0.0
H47 H 0.90744 0.15862 0.45419 0.0
H48 H 0.93688 0.16899 0.43069 0.0
H49 H 0.96631 0.19172 0.41921 0.0
H50 H 0.9506 0.14923 0.38962 0.0
H51 H 0.92129 0.12638 0.40109 0.0
N52 N 0.89512 0.11472 0.41842 0.0
N53 N 0.87588 0.1062 0.4365 0.0
N54 N 0.90555 0.13607 0.43562 0.0
C55 C 0.87866 0.10182 0.42468 0.0
C56 C 0.88922 0.12326 0.44205 0.0
C57 C 0.90866 0.13187 0.42381 0.0
C58 C 0.86375 0.08327 0.41865 0.0
C59 C 0.86642 0.07863 0.40639 0.0
C60 C 0.85225 0.06126 0.40069 0.0
C61 C 0.83504 0.0481 0.40709 0.0
C62 C 0.83238 0.0527 0.41935 0.0
C63 C 0.84655 0.07005 0.42506 0.0
C64 C 0.88585 0.12778 0.45496 0.0
C65 C 0.87175 0.11298 0.46258 0.0
C66 C 0.86836 0.11715 0.4747 0.0
C67 C 0.87882 0.13624 0.47947 0.0
C68 C 0.89291 0.15106 0.47188 0.0
C69 C 0.89649 0.14686 0.45979 0.0
C70 C 0.92663 0.1458 0.41684 0.0
C71 C 0.93967 0.16443 0.42175 0.0
C72 C 0.83205 0.78511 0.41514 0.0
C73 C 0.83459 0.79119 0.40265 0.0
C74 C 0.85131 0.79352 0.39623 0.0
C75 C 0.86519 0.78993 0.40218 0.0
H76 H 0.92085 0.79589 0.39795 0.0
H77 H 0.95055 0.80099 0.38719 0.0
H78 H 0.96487 0.77566 0.41822 0.0
H79 H 0.93517 0.77034 0.42894 0.0
H80 H 0.91093 0.76162 0.45403 0.0
H81 H 0.90437 0.74898 0.47522 0.0
H82 H 0.8484 0.74767 0.47459 0.0
H83 H 0.85472 0.76 0.45338 0.0
H84 H 0.84329 0.77675 0.43069 0.0
H85 H 0.81921 0.78288 0.42033 0.0
H86 H 0.85383 0.79836 0.38664 0.0
H87 H 0.8779 0.79195 0.39694 0.0
N88 N 0.89396 0.783 0.41512 0.0
N89 N 0.90376 0.77251 0.43281 0.0
N90 N 0.87403 0.77309 0.43294 0.0
C91 C 0.9073 0.77934 0.42092 0.0
C92 C 0.88717 0.76936 0.4389 0.0
C93 C 0.87727 0.77991 0.42106 0.0
C94 C 0.9255 0.78265 0.41434 0.0
C95 C 0.93029 0.79137 0.4025 0.0
C96 C 0.9474 0.79442 0.39634 0.0
C97 C 0.96008 0.78869 0.40182 0.0
C98 C 0.95531 0.78 0.41365 0.0
C99 C 0.93829 0.77706 0.41984 0.0
C100 C 0.88336 0.76184 0.45191 0.0
C101 C 0.8972 0.75865 0.45838 0.0
C102 C 0.89351 0.7515 0.47059 0.0
C103 C 0.87584 0.74726 0.47662 0.0
C104 C 0.86204 0.7505 0.47017 0.0
C105 C 0.86575 0.75771 0.458 0.0
C106 C 0.86264 0.78384 0.41469 0.0
C107 C 0.84586 0.78146 0.42107 0.0
C108 C 0.04642 0.21523 0.5944 0.0
C109 C 0.04162 0.2062 0.60613 0.0
C110 C 0.05408 0.20001 0.61135 0.0
C111 C 0.07107 0.20299 0.60506 0.0
H112 H 0.1213 0.1978 0.60907 0.0
H113 H 0.14562 0.19157 0.61915 0.0
H114 H 0.18519 0.21797 0.58813 0.0
H115 H 0.1608 0.22374 0.57791 0.0
H116 H 0.14737 0.23678 0.55461 0.0
H117 H 0.15438 0.25069 0.53383 0.0
H118 H 0.09869 0.24996 0.53346 0.0
H119 H 0.09143 0.23572 0.55423 0.0
H120 H 0.06652 0.22518 0.5791 0.0
H121 H 0.03701 0.21996 0.59004 0.0
H122 H 0.05092 0.19317 0.62041 0.0
H123 H 0.0804 0.19817 0.60943 0.0
N124 N 0.10746 0.21173 0.59237 0.0
N125 N 0.12776 0.22279 0.57475 0.0
N126 N 0.09796 0.22319 0.57503 0.0
C127 C 0.12431 0.21526 0.58644 0.0
C128 C 0.11469 0.22676 0.56895 0.0
C129 C 0.09419 0.21567 0.58674 0.0
C130 C 0.139 0.21128 0.59265 0.0
C131 C 0.13516 0.20224 0.60437 0.0
C132 C 0.14918 0.19875 0.6102 0.0
C133 C 0.16742 0.20424 0.60448 0.0
C134 C 0.1712 0.21323 0.59274 0.0
C135 C 0.1572 0.21666 0.58691 0.0
C136 C 0.11882 0.23512 0.55618 0.0
C137 C 0.13655 0.23952 0.55013 0.0
C138 C 0.14065 0.24762 0.53821 0.0
C139 C 0.12714 0.25153 0.53198 0.0
C140 C 0.10933 0.24696 0.53794 0.0
C141 C 0.10523 0.23889 0.5499 0.0
C142 C 0.07596 0.21215 0.59336 0.0
C143 C 0.06333 0.21812 0.58809 0.0
C144 C 0.76351 0.82138 0.5947 0.0
C145 C 0.76852 0.824 0.60745 0.0
C146 C 0.76876 0.8396 0.6139 0.0
C147 C 0.76444 0.85247 0.60768 0.0
H148 H 0.77267 0.90753 0.61084 0.0
H149 H 0.78104 0.93853 0.62056 0.0
H150 H 0.76237 0.95538 0.5872 0.0
H151 H 0.75365 0.92429 0.57749 0.0
H152 H 0.74905 0.89907 0.55214 0.0
H153 H 0.73588 0.89207 0.53099 0.0
H154 H 0.70953 0.83038 0.53789 0.0
H155 H 0.72357 0.83749 0.55888 0.0
H156 H 0.75552 0.83182 0.57864 0.0
H157 H 0.76347 0.8097 0.5894 0.0
H158 H 0.77222 0.84184 0.62378 0.0
H159 H 0.76489 0.86439 0.61293 0.0
N160 N 0.76027 0.88125 0.59363 0.0
N161 N 0.75004 0.89039 0.57558 0.0
N162 N 0.7483 0.86005 0.57639 0.0
C163 C 0.75742 0.89452 0.58739 0.0
C164 C 0.74538 0.87317 0.57004 0.0
C165 C 0.7558 0.86401 0.58819 0.0
C166 C 0.76248 0.91336 0.59336 0.0
C167 C 0.7703 0.9178 0.60555 0.0
C168 C 0.77522 0.93562 0.61112 0.0
C169 C 0.77239 0.9494 0.60464 0.0
C170 C 0.7645 0.94496 0.59248 0.0
C171 C 0.75961 0.92715 0.5869 0.0
C172 C 0.73732 0.86884 0.55719 0.0
C173 C 0.74045 0.88401 0.54914 0.0
C174 C 0.73278 0.87997 0.53701 0.0
C175 C 0.7215 0.86063 0.53271 0.0
C176 C 0.7184 0.84545 0.54079 0.0
C177 C 0.72635 0.84952 0.55286 0.0
C178 C 0.75964 0.84996 0.5949 0.0
C179 C 0.75904 0.83415 0.5885 0.0
C180 C 0.16773 0.94647 0.59086 0.0
C181 C 0.16339 0.95194 0.6024 0.0
C182 C 0.14494 0.9396 0.60788 0.0
C183 C 0.13117 0.92227 0.60194 0.0
H184 H 0.08529 0.86406 0.60918 0.0
H185 H 0.05567 0.84043 0.62021 0.0
H186 H 0.02572 0.81735 0.58502 0.0
H187 H 0.05544 0.84079 0.5739 0.0
H188 H 0.09147 0.84451 0.55243 0.0
H189 H 0.09841 0.83856 0.53116 0.0
H190 H 0.1446 0.89864 0.52847 0.0
H191 H 0.13773 0.90469 0.54966 0.0
H192 H 0.15785 0.92554 0.57601 0.0
H193 H 0.18192 0.9554 0.58647 0.0
H194 H 0.14098 0.94345 0.61668 0.0
H195 H 0.11708 0.91321 0.6064 0.0
N196 N 0.10425 0.88535 0.58989 0.0
N197 N 0.09385 0.86548 0.57196 0.0
N198 N 0.12371 0.89524 0.5719 0.0
C199 C 0.09071 0.86873 0.58399 0.0
C200 C 0.11037 0.87869 0.56585 0.0
C201 C 0.12078 0.89871 0.5839 0.0
C202 C 0.07273 0.85431 0.59065 0.0
C203 C 0.07241 0.85396 0.60377 0.0
C204 C 0.0555 0.84039 0.6101 0.0
C205 C 0.03844 0.82711 0.60345 0.0
C206 C 0.03866 0.82752 0.59035 0.0
C207 C 0.05571 0.84086 0.58401 0.0
C208 C 0.11406 0.87507 0.5528 0.0
C209 C 0.10304 0.85649 0.5473 0.0
C210 C 0.10708 0.85304 0.53514 0.0
C211 C 0.12206 0.86814 0.52816 0.0
C212 C 0.13285 0.88676 0.53358 0.0
C213 C 0.12897 0.89018 0.54576 0.0
C214 C 0.13546 0.91692 0.59034 0.0
C215 C 0.15393 0.92924 0.58488 0.0
C216 C 0.90458 0.39173 0.75075 0.0
C217 C 0.89297 0.38557 0.73981 0.0
C218 C 0.88619 0.3975 0.73474 0.0
C219 C 0.89088 0.41516 0.74048 0.0
H220 H 0.89178 0.4665 0.73416 0.0
H221 H 0.8834 0.48874 0.72396 0.0
H222 H 0.90106 0.52499 0.75709 0.0
H223 H 0.90994 0.50302 0.76724 0.0
H224 H 0.93196 0.49444 0.78895 0.0
H225 H 0.9477 0.50212 0.80947 0.0
H226 H 0.94612 0.4469 0.80965 0.0
H227 H 0.93079 0.43934 0.78908 0.0
H228 H 0.9182 0.41359 0.76492 0.0
H229 H 0.91033 0.38305 0.75479 0.0
H230 H 0.87701 0.39307 0.72641 0.0
H231 H 0.8853 0.42391 0.73634 0.0
N232 N 0.90252 0.45238 0.75207 0.0
N233 N 0.91569 0.47383 0.76913 0.0
N234 N 0.91615 0.44452 0.76904 0.0
C235 C 0.90674 0.46941 0.75773 0.0
C236 C 0.92045 0.46146 0.77485 0.0
C237 C 0.90718 0.43986 0.75766 0.0
C238 C 0.90156 0.48294 0.75154 0.0
C239 C 0.8939 0.4792 0.7393 0.0
C240 C 0.88898 0.49191 0.73345 0.0
C241 C 0.89153 0.50863 0.73971 0.0
C242 C 0.89918 0.51238 0.75195 0.0
C243 C 0.90417 0.4997 0.75779 0.0
C244 C 0.93009 0.46626 0.78732 0.0
C245 C 0.93499 0.48393 0.79333 0.0
C246 C 0.94394 0.48831 0.80514 0.0
C247 C 0.94819 0.47513 0.81118 0.0
C248 C 0.94332 0.4575 0.80517 0.0
C249 C 0.9344 0.45312 0.79338 0.0
C250 C 0.90239 0.42126 0.75147 0.0
C251 C 0.90919 0.40933 0.75652 0.0
C252 C 0.62739 0.50835 0.75005 0.0
C253 C 0.62951 0.50523 0.73737 0.0
C254 C 0.61469 0.48827 0.73148 0.0
C255 C 0.59812 0.47477 0.7381 0.0
H256 H 0.54602 0.4229 0.73369 0.0
H257 H 0.52142 0.39258 0.72369 0.0
H258 H 0.49253 0.37162 0.75911 0.0
H259 H 0.51709 0.40176 0.76916 0.0
H260 H 0.52936 0.42962 0.7917 0.0
H261 H 0.52232 0.4364 0.81256 0.0
H262 H 0.57267 0.49458 0.81083 0.0
H263 H 0.58006 0.48771 0.78992 0.0
H264 H 0.60957 0.49782 0.76642 0.0
H265 H 0.63845 0.52137 0.75482 0.0
H266 H 0.616 0.4853 0.72176 0.0
H267 H 0.58705 0.46188 0.73321 0.0
N268 N 0.56464 0.44657 0.75214 0.0
N269 N 0.54567 0.43718 0.77033 0.0
N270 N 0.57515 0.46723 0.76971 0.0
C271 C 0.54838 0.43329 0.75838 0.0
C272 C 0.55891 0.45408 0.77607 0.0
C273 C 0.57815 0.46355 0.75774 0.0
C274 C 0.53359 0.41482 0.75225 0.0
C275 C 0.53447 0.41183 0.73937 0.0
C276 C 0.5203 0.3945 0.73361 0.0
C277 C 0.50504 0.37973 0.74062 0.0
C278 C 0.50422 0.38266 0.75349 0.0
C279 C 0.51827 0.40001 0.75923 0.0
C280 C 0.55524 0.45816 0.78904 0.0
C281 C 0.53902 0.44388 0.79572 0.0
C282 C 0.53489 0.44779 0.8077 0.0
C283 C 0.5468 0.4661 0.81333 0.0
C284 C 0.56328 0.48028 0.80679 0.0
C285 C 0.56745 0.47636 0.79477 0.0
C286 C 0.59588 0.47791 0.75077 0.0
C287 C 0.61075 0.49488 0.75667 0.0
C288 C 0.49737 0.11626 0.74895 0.0
C289 C 0.50202 0.12663 0.73771 0.0
C290 C 0.52115 0.13408 0.73284 0.0
C291 C 0.53525 0.1311 0.73903 0.0
H292 H 0.58697 0.12894 0.73305 0.0
H293 H 0.61779 0.13622 0.72289 0.0
H294 H 0.63977 0.12661 0.75758 0.0
H295 H 0.60903 0.11943 0.76782 0.0
H296 H 0.57709 0.0961 0.78944 0.0
H297 H 0.56942 0.08208 0.81025 0.0
H298 H 0.51627 0.08617 0.81047 0.0
H299 H 0.52361 0.09968 0.7896 0.0
H300 H 0.50732 0.10538 0.76384 0.0
H301 H 0.48284 0.1105 0.75302 0.0
H302 H 0.52514 0.142 0.72414 0.0
H303 H 0.54981 0.13699 0.73498 0.0
N304 N 0.5629 0.12191 0.75142 0.0
N305 N 0.5726 0.11158 0.76924 0.0
N306 N 0.5419 0.11022 0.7687 0.0
C307 C 0.57653 0.11895 0.75748 0.0
C308 C 0.55531 0.10718 0.77492 0.0
C309 C 0.54554 0.11759 0.75696 0.0
C310 C 0.59542 0.12356 0.75129 0.0
C311 C 0.59835 0.1284 0.73855 0.0
C312 C 0.616 0.13248 0.73269 0.0
C313 C 0.63125 0.13199 0.73941 0.0
C314 C 0.62841 0.12731 0.75215 0.0
C315 C 0.6107 0.12307 0.75801 0.0
C316 C 0.55096 0.099 0.78775 0.0
C317 C 0.56376 0.09403 0.79391 0.0
C318 C 0.55942 0.08607 0.80591 0.0
C319 C 0.54218 0.08291 0.81207 0.0
C320 C 0.5295 0.08805 0.80595 0.0
C321 C 0.53379 0.09594 0.79396 0.0
C322 C 0.53062 0.12075 0.7503 0.0
C323 C 0.51149 0.11342 0.75519 0.0
C324 C 0.7105 0.5412 0.92646 0.0
C325 C 0.7082 0.53678 0.93925 0.0
C326 C 0.72369 0.53631 0.94569 0.0
C327 C 0.74105 0.54018 0.9395 0.0
H328 H 0.7885 0.52701 0.93951 0.0
H329 H 0.81355 0.5212 0.94913 0.0
H330 H 0.8575 0.56231 0.92402 0.0
H331 H 0.83254 0.56802 0.9143 0.0
H332 H 0.81594 0.57395 0.8883 0.0
H333 H 0.82214 0.58744 0.8674 0.0
H334 H 0.76423 0.58191 0.86657 0.0
H335 H 0.7578 0.56808 0.88746 0.0
H336 H 0.72913 0.54871 0.91047 0.0
H337 H 0.69896 0.54189 0.92125 0.0
H338 H 0.72232 0.53279 0.95552 0.0
H339 H 0.75266 0.53972 0.94478 0.0
N340 N 0.77603 0.54656 0.92586 0.0
N341 N 0.79642 0.55878 0.90832 0.0
N342 N 0.76552 0.55697 0.90846 0.0
C343 C 0.79325 0.55119 0.91998 0.0
C344 C 0.78264 0.56167 0.90245 0.0
C345 C 0.76209 0.54947 0.92017 0.0
C346 C 0.80847 0.54796 0.92611 0.0
C347 C 0.80351 0.53486 0.93606 0.0
C348 C 0.81781 0.53143 0.94152 0.0
C349 C 0.83747 0.54129 0.93731 0.0
C350 C 0.8425 0.55459 0.92751 0.0
C351 C 0.82815 0.55777 0.92191 0.0
C352 C 0.78635 0.56991 0.88964 0.0
C353 C 0.80446 0.57555 0.8837 0.0
C354 C 0.80809 0.58342 0.87171 0.0
C355 C 0.79372 0.58583 0.8653 0.0
C356 C 0.77555 0.58007 0.87118 0.0
C357 C 0.77192 0.57224 0.88321 0.0
C358 C 0.74344 0.54481 0.92673 0.0
C359 C 0.7279 0.54523 0.9203 0.0
C360 C 0.43993 0.15921 0.92603 0.0
C361 C 0.44794 0.16335 0.93816 0.0
C362 C 0.45167 0.18078 0.944 0.0
C363 C 0.44757 0.19383 0.93781 0.0
H364 H 0.45078 0.24683 0.94188 0.0
H365 H 0.45839 0.27764 0.95156 0.0
H366 H 0.44322 0.29549 0.9172 0.0
H367 H 0.43517 0.26456 0.90756 0.0
H368 H 0.42417 0.23728 0.88367 0.0
H369 H 0.40892 0.22947 0.86308 0.0
H370 H 0.38674 0.1683 0.86971 0.0
H371 H 0.40273 0.17621 0.89016 0.0
H372 H 0.42975 0.16859 0.91047 0.0
H373 H 0.43712 0.14603 0.92121 0.0
H374 H 0.45758 0.18426 0.95341 0.0
H375 H 0.45064 0.20712 0.9426 0.0
N376 N 0.44049 0.22118 0.92426 0.0
N377 N 0.42889 0.22962 0.90652 0.0
N378 N 0.4272 0.19932 0.90741 0.0
C379 C 0.43716 0.2342 0.91809 0.0
C380 C 0.42383 0.21221 0.90113 0.0
C381 C 0.4356 0.20372 0.91896 0.0
C382 C 0.44231 0.25314 0.92393 0.0
C383 C 0.4491 0.25732 0.93636 0.0
C384 C 0.45357 0.27504 0.9419 0.0
C385 C 0.45141 0.28902 0.93515 0.0
C386 C 0.44477 0.28492 0.92271 0.0
C387 C 0.44025 0.26719 0.91717 0.0
C388 C 0.41464 0.20737 0.88857 0.0
C389 C 0.41605 0.22215 0.88074 0.0
C390 C 0.40719 0.21766 0.86895 0.0
C391 C 0.39645 0.19823 0.86475 0.0
C392 C 0.39511 0.18344 0.87257 0.0
C393 C 0.4042 0.18797 0.88432 0.0
C394 C 0.43962 0.18974 0.92564 0.0
C395 C 0.43579 0.17223 0.91984 0.0
C396 C 0.83094 0.28414 0.92184 0.0
C397 C 0.82915 0.28839 0.93436 0.0
C398 C 0.81266 0.27477 0.94115 0.0
C399 C 0.7984 0.25731 0.93559 0.0
H400 H 0.74159 0.21094 0.94031 0.0
H401 H 0.71217 0.18844 0.9518 0.0
H402 H 0.69939 0.14362 0.92425 0.0
H403 H 0.72844 0.16627 0.91255 0.0
H404 H 0.7539 0.17703 0.88796 0.0
H405 H 0.75984 0.16844 0.86719 0.0
H406 H 0.80984 0.22637 0.86306 0.0
H407 H 0.80388 0.23511 0.88375 0.0
H408 H 0.81866 0.26392 0.90663 0.0
H409 H 0.84328 0.29441 0.91626 0.0
H410 H 0.81093 0.27742 0.95086 0.0
H411 H 0.78601 0.24713 0.94117 0.0
N412 N 0.7689 0.22156 0.92362 0.0
N413 N 0.75861 0.19953 0.9068 0.0
N414 N 0.78829 0.22932 0.90562 0.0
C415 C 0.75541 0.2042 0.91845 0.0
C416 C 0.77498 0.21202 0.9003 0.0
C417 C 0.7854 0.2342 0.91728 0.0
C418 C 0.73745 0.19047 0.92548 0.0
C419 C 0.73251 0.1963 0.93668 0.0
C420 C 0.71566 0.18334 0.94332 0.0
C421 C 0.70336 0.16416 0.93899 0.0
C422 C 0.7083 0.15835 0.92778 0.0
C423 C 0.72508 0.17134 0.92109 0.0
C424 C 0.77841 0.20678 0.88759 0.0
C425 C 0.76613 0.18799 0.88263 0.0
C426 C 0.76959 0.18301 0.87074 0.0
C427 C 0.7853 0.19672 0.86348 0.0
C428 C 0.79746 0.21554 0.86837 0.0
C429 C 0.79411 0.2205 0.88028 0.0
C430 C 0.80029 0.25297 0.9231 0.0
C431 C 0.81672 0.26666 0.91629 0.0
C432 C 0.57572 0.72718 0.08201 0.0
C433 C 0.56832 0.72359 0.06972 0.0
C434 C 0.5655 0.73772 0.0637 0.0
C435 C 0.56965 0.75489 0.06989 0.0
H436 H 0.56338 0.80222 0.06618 0.0
H437 H 0.55243 0.82298 0.05667 0.0
H438 H 0.56714 0.8573 0.09057 0.0
H439 H 0.57855 0.83679 0.10006 0.0
H440 H 0.60323 0.82942 0.12113 0.0
H441 H 0.61746 0.83612 0.1421 0.0
H442 H 0.61487 0.78046 0.14221 0.0
H443 H 0.60047 0.77358 0.12133 0.0
H444 H 0.58536 0.74654 0.09773 0.0
H445 H 0.57783 0.71649 0.08697 0.0
H446 H 0.56013 0.73555 0.05416 0.0
H447 H 0.56719 0.76538 0.06496 0.0
N448 N 0.57526 0.78858 0.08365 0.0
N449 N 0.58643 0.8088 0.10136 0.0
N450 N 0.5887 0.78042 0.10056 0.0
C451 C 0.57815 0.80484 0.08976 0.0
C452 C 0.59179 0.79667 0.10681 0.0
C453 C 0.58049 0.7763 0.08895 0.0
C454 C 0.57184 0.81778 0.08392 0.0
C455 C 0.56433 0.81419 0.07164 0.0
C456 C 0.55792 0.82603 0.06619 0.0
C457 C 0.5588 0.84172 0.07288 0.0
C458 C 0.56645 0.84544 0.08512 0.0
C459 C 0.57292 0.83361 0.09058 0.0
C460 C 0.60066 0.80093 0.11951 0.0
C461 C 0.60567 0.81858 0.12561 0.0
C462 C 0.61393 0.82249 0.1376 0.0
C463 C 0.61724 0.80881 0.1438 0.0
C464 C 0.61227 0.79119 0.13772 0.0
C465 C 0.60412 0.78732 0.12571 0.0
C466 C 0.57678 0.75838 0.08226 0.0
C467 C 0.57993 0.74439 0.08821 0.0
C468 C 0.29011 0.84489 0.08452 0.0
C469 C 0.295 0.83964 0.07309 0.0
C470 C 0.28248 0.82086 0.06825 0.0
C471 C 0.26533 0.80773 0.0746 0.0
H472 H 0.21595 0.75265 0.07176 0.0
H473 H 0.19178 0.72214 0.06187 0.0
H474 H 0.1495 0.71379 0.09052 0.0
H475 H 0.17381 0.7439 0.10062 0.0
H476 H 0.19178 0.76768 0.12628 0.0
H477 H 0.18454 0.77585 0.14672 0.0
H478 H 0.23309 0.83474 0.14299 0.0
H479 H 0.24077 0.82642 0.12265 0.0
H480 H 0.26975 0.83636 0.09966 0.0
H481 H 0.29957 0.85917 0.08858 0.0
H482 H 0.28571 0.81642 0.0594 0.0
H483 H 0.25597 0.79346 0.07051 0.0
N484 N 0.22862 0.78198 0.0872 0.0
N485 N 0.20798 0.77423 0.10459 0.0
N486 N 0.23798 0.8038 0.10411 0.0
C487 C 0.21159 0.76942 0.0931 0.0
C488 C 0.22109 0.79135 0.11019 0.0
C489 C 0.2419 0.79922 0.09262 0.0
C490 C 0.1969 0.75079 0.08703 0.0
C491 C 0.20151 0.7443 0.07597 0.0
C492 C 0.18758 0.72683 0.07024 0.0
C493 C 0.16862 0.71543 0.07536 0.0
C494 C 0.16403 0.72196 0.0864 0.0
C495 C 0.17799 0.73935 0.09218 0.0
C496 C 0.21685 0.79639 0.12275 0.0
C497 C 0.20097 0.78239 0.12979 0.0
C498 C 0.19672 0.78711 0.14152 0.0
C499 C 0.20813 0.80601 0.14652 0.0
C500 C 0.22412 0.81998 0.13953 0.0
C501 C 0.22846 0.81522 0.12781 0.0
C502 C 0.26034 0.81302 0.08599 0.0
C503 C 0.27304 0.83174 0.09091 0.0
C504 C 0.16999 0.46017 0.08623 0.0
C505 C 0.17189 0.46518 0.07353 0.0
C506 C 0.18801 0.46644 0.06691 0.0
C507 C 0.20187 0.4628 0.07282 0.0
H508 H 0.25277 0.45912 0.06649 0.0
H509 H 0.28256 0.46454 0.05582 0.0
H510 H 0.30719 0.45976 0.09093 0.0
H511 H 0.27712 0.45359 0.10149 0.0
H512 H 0.23787 0.42033 0.12044 0.0
H513 H 0.23061 0.4063 0.14134 0.0
H514 H 0.19469 0.43252 0.14847 0.0
H515 H 0.20155 0.44626 0.12746 0.0
H516 H 0.18169 0.45253 0.10189 0.0
H517 H 0.15764 0.45882 0.09158 0.0
H518 H 0.19004 0.47045 0.05715 0.0
H519 H 0.21407 0.46393 0.0674 0.0
N520 N 0.23095 0.45631 0.08573 0.0
N521 N 0.2406 0.44533 0.10325 0.0
N522 N 0.21123 0.44662 0.10367 0.0
C523 C 0.24418 0.45237 0.09142 0.0
C524 C 0.22418 0.44241 0.10943 0.0
C525 C 0.21443 0.45349 0.09179 0.0
C526 C 0.26244 0.45585 0.08486 0.0
C527 C 0.26452 0.45921 0.07194 0.0
C528 C 0.28173 0.46246 0.06582 0.0
C529 C 0.29743 0.46264 0.07247 0.0
C530 C 0.29535 0.45939 0.08541 0.0
C531 C 0.27808 0.45595 0.09151 0.0
C532 C 0.22025 0.43439 0.12226 0.0
C533 C 0.22847 0.42317 0.12646 0.0
C534 C 0.22427 0.41506 0.1384 0.0
C535 C 0.21211 0.41834 0.14651 0.0
C536 C 0.2042 0.42986 0.14243 0.0
C537 C 0.20805 0.43763 0.13038 0.0
C538 C 0.19991 0.45768 0.08551 0.0
C539 C 0.18377 0.45643 0.09212 0.0
C540 C 0.37508 0.87218 0.25689 0.0
C541 C 0.37236 0.86824 0.26972 0.0
C542 C 0.38755 0.86788 0.2766 0.0
C543 C 0.40499 0.8712 0.27075 0.0
H544 H 0.45828 0.87099 0.27658 0.0
H545 H 0.48272 0.86509 0.28697 0.0
H546 H 0.51176 0.87089 0.25176 0.0
H547 H 0.48744 0.87666 0.24136 0.0
H548 H 0.47658 0.89319 0.21836 0.0
H549 H 0.48376 0.90631 0.19737 0.0
H550 H 0.43304 0.91444 0.19856 0.0
H551 H 0.42551 0.90085 0.21948 0.0
H552 H 0.39404 0.87865 0.24116 0.0
H553 H 0.36378 0.87281 0.25135 0.0
H554 H 0.38585 0.86476 0.28649 0.0
H555 H 0.41633 0.87072 0.27632 0.0
N556 N 0.43952 0.87524 0.25756 0.0
N557 N 0.45949 0.88474 0.23974 0.0
N558 N 0.42978 0.8853 0.23964 0.0
C559 C 0.45622 0.87818 0.25168 0.0
C560 C 0.44642 0.8884 0.23366 0.0
C561 C 0.42616 0.87869 0.25157 0.0
C562 C 0.47083 0.87432 0.25811 0.0
C563 C 0.46983 0.87094 0.27104 0.0
C564 C 0.48389 0.86766 0.27701 0.0
C565 C 0.49915 0.86747 0.27018 0.0
C566 C 0.50006 0.8707 0.25727 0.0
C567 C 0.48615 0.87415 0.25132 0.0
C568 C 0.45048 0.89599 0.22069 0.0
C569 C 0.46688 0.89771 0.21417 0.0
C570 C 0.47108 0.90535 0.20212 0.0
C571 C 0.45906 0.91155 0.19626 0.0
C572 C 0.4425 0.9096 0.20271 0.0
C573 C 0.43825 0.90189 0.21476 0.0
C574 C 0.40772 0.87516 0.25789 0.0
C575 C 0.39254 0.87566 0.25106 0.0
C576 C 0.09628 0.48673 0.26475 0.0
C577 C 0.10069 0.48914 0.27758 0.0
C578 C 0.10061 0.50459 0.28399 0.0
C579 C 0.09643 0.51749 0.27768 0.0
H580 H 0.09907 0.56991 0.28175 0.0
H581 H 0.10483 0.5998 0.29195 0.0
H582 H 0.08699 0.61675 0.25828 0.0
H583 H 0.08093 0.58677 0.24807 0.0
H584 H 0.07246 0.56192 0.22375 0.0
H585 H 0.0635 0.55641 0.20173 0.0
H586 H 0.06774 0.50417 0.20226 0.0
H587 H 0.07634 0.50939 0.22434 0.0
H588 H 0.08895 0.49736 0.24852 0.0
H589 H 0.0965 0.47513 0.2595 0.0
H590 H 0.1037 0.50668 0.29392 0.0
H591 H 0.09658 0.52928 0.28291 0.0
N592 N 0.09015 0.54515 0.2639 0.0
N593 N 0.08208 0.55515 0.24534 0.0
N594 N 0.08343 0.52632 0.24571 0.0
C595 C 0.08702 0.55821 0.25764 0.0
C596 C 0.08025 0.53923 0.2393 0.0
C597 C 0.08836 0.52915 0.25801 0.0
C598 C 0.08963 0.57594 0.26404 0.0
C599 C 0.09624 0.57991 0.27651 0.0
C600 C 0.09964 0.59709 0.28236 0.0
C601 C 0.09643 0.61063 0.27589 0.0
C602 C 0.0894 0.60649 0.26353 0.0
C603 C 0.08605 0.58934 0.25766 0.0
C604 C 0.07507 0.53607 0.22586 0.0
C605 C 0.07152 0.54926 0.2192 0.0
C606 C 0.06652 0.54619 0.20655 0.0
C607 C 0.06496 0.52988 0.20027 0.0
C608 C 0.06862 0.51676 0.20689 0.0
C609 C 0.07362 0.51981 0.21954 0.0
C610 C 0.09221 0.51519 0.26481 0.0
C611 C 0.09206 0.49957 0.25844 0.0
C612 C 0.49784 0.6162 0.25473 0.0
C613 C 0.49768 0.61901 0.26768 0.0
C614 C 0.48277 0.60418 0.27484 0.0
C615 C 0.46832 0.58691 0.26919 0.0
H616 H 0.41596 0.53639 0.27614 0.0
H617 H 0.38676 0.51356 0.28765 0.0
H618 H 0.36072 0.48082 0.25371 0.0
H619 H 0.39018 0.50329 0.24225 0.0
H620 H 0.42218 0.50931 0.22031 0.0
H621 H 0.42846 0.50143 0.19938 0.0
H622 H 0.47618 0.56056 0.19517 0.0
H623 H 0.46992 0.56855 0.216 0.0
H624 H 0.48418 0.59717 0.2391 0.0
H625 H 0.50925 0.6273 0.24899 0.0
H626 H 0.48216 0.60601 0.28482 0.0
H627 H 0.45707 0.57579 0.275 0.0
N628 N 0.43719 0.5526 0.25665 0.0
N629 N 0.42611 0.53154 0.2393 0.0
N630 N 0.45592 0.56124 0.23833 0.0
C631 C 0.42338 0.53561 0.25122 0.0
C632 C 0.44236 0.54427 0.23279 0.0
C633 C 0.45349 0.56552 0.25026 0.0
C634 C 0.4055 0.52171 0.25825 0.0
C635 C 0.40402 0.52433 0.27111 0.0
C636 C 0.38718 0.51128 0.27772 0.0
C637 C 0.3713 0.49533 0.27163 0.0
C638 C 0.37276 0.49275 0.25876 0.0
C639 C 0.38966 0.50572 0.25216 0.0
C640 C 0.44557 0.53957 0.21989 0.0
C641 C 0.43393 0.52069 0.21491 0.0
C642 C 0.43759 0.51612 0.20294 0.0
C643 C 0.45282 0.53037 0.19564 0.0
C644 C 0.4642 0.54931 0.20052 0.0
C645 C 0.46068 0.55384 0.21251 0.0
C646 C 0.46858 0.58399 0.25624 0.0
C647 C 0.48352 0.59886 0.24909 0.0
Gd648 Gd 0.50772 0.01287 0.0196 0.0
Gd649 Gd 0.49102 0.98519 0.98982 0.0
C650 C 0.43232 0.92862 0.98469 0.0
C651 C 0.44301 0.90486 0.98188 0.0
C652 C 0.46724 0.9391 0.98496 0.0
C653 C 0.45224 0.94343 0.98604 0.0
C654 C 0.46285 0.91981 0.9827 0.0
C655 C 0.42777 0.90927 0.98283 0.0
C656 C 0.41763 0.9338 0.98489 0.0
C657 C 0.42299 0.95335 0.98623 0.0
N658 N 0.45716 0.96228 0.98779 0.0
C659 C 0.44294 0.96749 0.98756 0.0
H660 H 0.44687 0.98254 0.98858 0.0
C661 C 0.50155 0.95067 0.9834 0.0
N662 N 0.4862 0.95394 0.9856 0.0
C663 C 0.49796 0.93176 0.98128 0.0
C664 C 0.47853 0.91622 0.98105 0.0
H665 H 0.51662 0.96258 0.98363 0.0
H666 H 0.41254 0.89767 0.98189 0.0
H667 H 0.5514 0.01425 0.02069 0.0
H668 H 0.4022 0.92287 0.9837 0.0
H669 H 0.41179 0.95758 0.98621 0.0
H670 H 0.43931 0.88993 0.98023 0.0
H671 H 0.48331 0.03652 0.02593 0.0
H672 H 0.59708 0.07317 0.02663 0.0
H673 H 0.58656 0.03834 0.02353 0.0
H674 H 0.56166 0.10777 0.03026 0.0
H675 H 0.51018 0.92919 0.97981 0.0
H676 H 0.47578 0.9016 0.97935 0.0
H677 H 0.58775 0.09907 0.02861 0.0
H678 H 0.49068 0.07014 0.03014 0.0
N679 N 0.54181 0.03507 0.02178 0.0
C680 C 0.58158 0.06263 0.02519 0.0
C681 C 0.5757 0.04301 0.02352 0.0
C682 C 0.56731 0.06836 0.02537 0.0
C683 C 0.54727 0.05401 0.02377 0.0
C684 C 0.55565 0.02933 0.02193 0.0
N685 N 0.51353 0.04442 0.024 0.0
C686 C 0.53265 0.05887 0.02482 0.0
C687 C 0.50263 0.06719 0.02863 0.0
C688 C 0.52226 0.08234 0.02905 0.0
C689 C 0.49852 0.04816 0.02627 0.0
C690 C 0.53758 0.07825 0.02734 0.0
H691 H 0.52542 0.09705 0.03097 0.0
O692 O 0.49323 0.00856 0.03753 0.0
O693 O 0.48367 0.9876 0.00947 0.0
O694 O 0.48141 0.00785 0.99185 0.0
O695 O 0.50438 0.03171 0.00535 0.0
O696 O 0.47499 0.00214 0.02147 0.0
O697 O 0.51726 0.00256 0.03541 0.0
O698 O 0.50572 0.99008 0.97193 0.0
O699 O 0.51488 0.01057 0.99993 0.0
O700 O 0.51715 0.99015 0.0174 0.0
O701 O 0.49388 0.96616 0.00417 0.0
O702 O 0.52387 0.99643 0.98786 0.0
O703 O 0.48046 0.99425 0.97387 0.0
C704 C 0.46871 0.98751 0.01393 0.0
C705 C 0.55756 0.09277 0.02841 0.0
C706 C 0.57241 0.08782 0.02746 0.0
C707 C 0.50486 0.00353 0.04308 0.0
C708 C 0.51296 0.01266 0.05528 0.0
C709 C 0.52688 0.03255 0.05622 0.0
C710 C 0.50689 0.00126 0.0661 0.0
C711 C 0.51478 0.00965 0.07786 0.0
C712 C 0.53471 0.04099 0.06783 0.0
C713 C 0.52875 0.02966 0.07859 0.0
C714 C 0.49089 0.02591 0.99637 0.0
C715 C 0.52997 0.01103 0.9954 0.0
C716 C 0.49342 0.99414 0.96627 0.0
C717 C 0.48592 0.98483 0.95403 0.0
C718 C 0.47212 0.96491 0.95309 0.0
C719 C 0.49258 0.99607 0.94314 0.0
C720 C 0.48539 0.98749 0.93132 0.0
C721 C 0.46498 0.95629 0.94142 0.0
C722 C 0.47152 0.96745 0.9306 0.0
C723 C 0.50733 0.97197 0.01317 0.0
H724 H 0.5317 0.04153 0.048 0.0
H725 H 0.49628 0.98583 0.06533 0.0
H726 H 0.54543 0.05637 0.06849 0.0
H727 H 0.5349 0.03662 0.0875 0.0
H728 H 0.46685 0.95605 0.96136 0.0
H729 H 0.50311 0.01152 0.94392 0.0
H730 H 0.45435 0.94088 0.94075 0.0
H731 H 0.46589 0.96033 0.92166 0.0
Gd732 Gd 0.986 0.49302 0.01971 0.0
Gd733 Gd 0.01805 0.50551 0.99206 0.0
C734 C 0.07397 0.50076 0.99508 0.0
C735 C 0.09995 0.53446 0.99286 0.0
C736 C 0.06536 0.52576 0.99172 0.0
C737 C 0.05964 0.50651 0.99374 0.0
C738 C 0.08557 0.53987 0.99078 0.0
C739 C 0.09415 0.51493 0.99504 0.0
C740 C 0.06759 0.4809 0.99598 0.0
C741 C 0.04743 0.46735 0.99497 0.0
N742 N 0.04003 0.49325 0.99354 0.0
C743 C 0.0338 0.47379 0.99356 0.0
H744 H 0.01829 0.4631 0.9929 0.0
C745 C 0.05588 0.54832 0.98521 0.0
N746 N 0.05108 0.53035 0.98957 0.0
C747 C 0.07572 0.56289 0.98419 0.0
C748 C 0.09065 0.55875 0.98723 0.0
H749 H 0.04433 0.55157 0.98297 0.0
H750 H 0.10537 0.51083 0.99625 0.0
H751 H 0.98125 0.53259 0.01831 0.0
H752 H 0.07811 0.47588 0.99709 0.0
H753 H 0.04236 0.45193 0.99536 0.0
H754 H 0.11556 0.54514 0.99236 0.0
H755 H 0.96429 0.44495 0.02471 0.0
H756 H 0.92054 0.5152 0.02428 0.0
H757 H 0.95498 0.54101 0.02035 0.0
H758 H 0.88989 0.44638 0.03032 0.0
H759 H 0.07947 0.57729 0.9811 0.0
H760 H 0.106 0.57003 0.98637 0.0
H761 H 0.89682 0.48006 0.02901 0.0
H762 H 0.93099 0.41743 0.02891 0.0
N763 N 0.96164 0.5021 0.01987 0.0
C764 C 0.93191 0.51133 0.02298 0.0
C765 C 0.95134 0.52595 0.02081 0.0
C766 C 0.92749 0.49197 0.0238 0.0
C767 C 0.94281 0.48771 0.022 0.0
C768 C 0.96617 0.5211 0.01956 0.0
N769 N 0.95459 0.46556 0.02269 0.0
C770 C 0.93914 0.46883 0.02335 0.0
C771 C 0.93306 0.4318 0.02735 0.0
C772 C 0.91699 0.43489 0.02797 0.0
C773 C 0.95193 0.44745 0.02496 0.0
C774 C 0.91997 0.45363 0.02622 0.0
H775 H 0.90246 0.42282 0.03012 0.0
O776 O 0.99069 0.4839 0.03782 0.0
O777 O 0.01393 0.49676 0.01189 0.0
O778 O 0.99396 0.47333 0.99254 0.0
O779 O 0.96836 0.47141 0.00471 0.0
O780 O 0.99781 0.47254 0.02269 0.0
O781 O 0.99008 0.51088 0.03609 0.0
O782 O 0.01657 0.51597 0.97362 0.0
O783 O 0.99073 0.50268 1.00012 0.0
O784 O 0.00854 0.52546 0.01935 0.0
O785 O 0.03419 0.53008 0.00593 0.0
O786 O 0.00593 0.52582 0.98844 0.0
O787 O 0.01224 0.48696 0.9758 0.0
C788 C 0.01405 0.48232 0.01665 0.0
C789 C 0.90463 0.45777 0.02787 0.0
C790 C 0.9085 0.47695 0.02694 0.0
C791 C 0.99133 0.49867 0.04363 0.0
C792 C 0.98009 0.49419 0.05524 0.0
C793 C 0.95943 0.48555 0.05519 0.0
C794 C 0.99032 0.49803 0.06659 0.0
C795 C 0.98002 0.49309 0.07791 0.0
C796 C 0.94908 0.48055 0.06642 0.0
C797 C 0.95928 0.4842 0.07775 0.0
C798 C 0.97515 0.46436 0.99606 0.0
C799 C 0.99029 0.51683 0.99518 0.0
C800 C 0.01428 0.50039 0.96799 0.0
C801 C 0.02719 0.50361 0.95728 0.0
C802 C 0.04697 0.50852 0.95898 0.0
C803 C 0.01961 0.50187 0.94517 0.0
C804 C 0.03174 0.50515 0.93472 0.0
C805 C 0.05913 0.51189 0.94869 0.0
C806 C 0.05162 0.51026 0.93663 0.0
C807 C 0.02685 0.53587 0.01506 0.0
H808 H 0.95131 0.48261 0.04655 0.0
H809 H 0.0063 0.50458 0.06661 0.0
H810 H 0.93312 0.47383 0.06633 0.0
H811 H 0.95104 0.48033 0.08637 0.0
H812 H 0.05301 0.50973 0.96822 0.0
H813 H 0.0042 0.4977 0.94392 0.0
H814 H 0.07442 0.51579 0.95008 0.0
H815 H 0.06143 0.51318 0.9288 0.0
Gd816 Gd 0.49364 0.50756 0.9911 0.0
Gd817 Gd 0.51334 0.4973 0.01974 0.0
C818 C 0.57275 0.49908 0.01994 0.0
C819 C 0.56276 0.46507 0.0231 0.0
C820 C 0.5381 0.47524 0.02245 0.0
C821 C 0.55274 0.49422 0.02043 0.0
C822 C 0.54295 0.46049 0.02408 0.0
C823 C 0.57764 0.48434 0.02101 0.0
C824 C 0.58726 0.51865 0.01865 0.0
C825 C 0.58168 0.53284 0.01834 0.0
N826 N 0.54747 0.50807 0.01948 0.0
C827 C 0.56164 0.52729 0.01894 0.0
H828 H 0.55758 0.53842 0.01859 0.0
C829 C 0.50445 0.45329 0.02676 0.0
N830 N 0.51916 0.47136 0.02337 0.0
C831 C 0.50849 0.43814 0.02843 0.0
C832 C 0.52779 0.44169 0.02694 0.0
H833 H 0.48948 0.45043 0.02783 0.0
H834 H 0.59291 0.48775 0.02051 0.0
H835 H 0.44897 0.46729 0.99141 0.0
H836 H 0.60279 0.52298 0.01816 0.0
H837 H 0.5928 0.54806 0.01757 0.0
H838 H 0.56677 0.45391 0.0242 0.0
H839 H 0.51952 0.55495 0.98404 0.0
H840 H 0.40507 0.48413 0.98804 0.0
H841 H 0.41399 0.45839 0.99023 0.0
H842 H 0.44292 0.55318 0.98318 0.0
H843 H 0.49672 0.42374 0.03084 0.0
H844 H 0.53089 0.42994 0.02826 0.0
H845 H 0.41585 0.51945 0.98586 0.0
H846 H 0.51349 0.58222 0.98033 0.0
N847 N 0.45984 0.49777 0.99032 0.0
C848 C 0.42042 0.48807 0.98874 0.0
C849 C 0.42542 0.47354 0.9899 0.0
C850 C 0.43534 0.50754 0.98803 0.0
C851 C 0.45519 0.51197 0.98872 0.0
C852 C 0.44532 0.47867 0.99054 0.0
N853 N 0.48918 0.53426 0.98707 0.0
C854 C 0.47035 0.53083 0.98707 0.0
C855 C 0.50121 0.56784 0.98224 0.0
C856 C 0.48194 0.56468 0.98264 0.0
C857 C 0.50457 0.55234 0.98431 0.0
C858 C 0.46618 0.54594 0.9849 0.0
H859 H 0.47936 0.57669 0.98096 0.0
O860 O 0.50658 0.51579 0.97268 0.0
O861 O 0.51822 0.50544 0.99983 0.0
O862 O 0.52288 0.52937 0.01766 0.0
O863 O 0.49865 0.53039 0.00542 0.0
O864 O 0.52625 0.52804 0.98771 0.0
O865 O 0.48119 0.48712 0.97565 0.0
O866 O 0.5003 0.48871 0.0381 0.0
O867 O 0.48853 0.49922 0.01103 0.0
O868 O 0.4833 0.47537 0.99344 0.0
O869 O 0.50732 0.47391 0.00564 0.0
O870 O 0.48076 0.47666 0.02325 0.0
O871 O 0.52665 0.51685 0.03557 0.0
C872 C 0.53289 0.51941 0.9947 0.0
C873 C 0.44644 0.54176 0.98475 0.0
C874 C 0.43103 0.52257 0.98629 0.0
C875 C 0.49351 0.49936 0.96756 0.0
C876 C 0.48499 0.5007 0.95565 0.0
C877 C 0.46999 0.50552 0.95526 0.0
C878 C 0.49201 0.49708 0.94451 0.0
C879 C 0.48411 0.49824 0.93293 0.0
C880 C 0.46206 0.50667 0.94382 0.0
C881 C 0.46904 0.50307 0.93271 0.0
C882 C 0.51318 0.53815 0.01376 0.0
C883 C 0.47395 0.48507 0.01617 0.0
C884 C 0.51407 0.50447 0.0435 0.0
C885 C 0.52227 0.50167 0.05513 0.0
C886 C 0.53714 0.49667 0.055 0.0
C887 C 0.51469 0.5036 0.06655 0.0
C888 C 0.52185 0.50055 0.07789 0.0
C889 C 0.54433 0.4936 0.06621 0.0
C890 C 0.53674 0.49549 0.07759 0.0
C891 C 0.49293 0.46646 0.99721 0.0
H892 H 0.46444 0.50836 0.96376 0.0
H893 H 0.50346 0.49316 0.94488 0.0
H894 H 0.45052 0.51045 0.94355 0.0
H895 H 0.46283 0.50435 0.92395 0.0
H896 H 0.54314 0.49511 0.04628 0.0
H897 H 0.50298 0.50718 0.06657 0.0
H898 H 0.55582 0.48977 0.06607 0.0
H899 H 0.5427 0.49323 0.08616 0.0
Gd900 Gd 0.17563 0.34707 0.35393 0.0
Gd901 Gd 0.16099 0.31945 0.32405 0.0
C902 C 0.1037 0.26183 0.31806 0.0
C903 C 0.11567 0.23899 0.31568 0.0
C904 C 0.13885 0.27342 0.31916 0.0
C905 C 0.12334 0.27709 0.31978 0.0
C906 C 0.13524 0.25439 0.31686 0.0
C907 C 0.09992 0.24271 0.31625 0.0
C908 C 0.08852 0.26633 0.31783 0.0
C909 C 0.09313 0.28568 0.31914 0.0
N910 N 0.12751 0.29572 0.32148 0.0
C911 C 0.11282 0.30028 0.32085 0.0
H912 H 0.11617 0.31517 0.32182 0.0
C913 C 0.17342 0.28612 0.3181 0.0
N914 N 0.15757 0.28867 0.32015 0.0
C915 C 0.17059 0.26752 0.31588 0.0
C916 C 0.15143 0.25152 0.31544 0.0
H917 H 0.18829 0.29838 0.31844 0.0
H918 H 0.08492 0.23078 0.31502 0.0
H919 H 0.22055 0.35139 0.3557 0.0
H920 H 0.07329 0.25505 0.31634 0.0
H921 H 0.08159 0.28942 0.31877 0.0
H922 H 0.11257 0.22425 0.314 0.0
H923 H 0.14873 0.36812 0.36065 0.0
H924 H 0.2636 0.4117 0.35966 0.0
H925 H 0.25538 0.37737 0.35768 0.0
H926 H 0.22452 0.4425 0.36321 0.0
H927 H 0.18318 0.26556 0.31445 0.0
H928 H 0.14929 0.23713 0.31366 0.0
H929 H 0.25214 0.436 0.36132 0.0
H930 H 0.15394 0.40104 0.36458 0.0
N931 N 0.20923 0.37085 0.35606 0.0
C932 C 0.24837 0.40037 0.35863 0.0
C933 C 0.24373 0.381 0.35761 0.0
C934 C 0.23319 0.40485 0.3588 0.0
C935 C 0.2135 0.38954 0.3576 0.0
C936 C 0.22394 0.3663 0.3565 0.0
N937 N 0.17933 0.37786 0.35824 0.0
C938 C 0.19804 0.39318 0.35871 0.0
C939 C 0.16648 0.39905 0.3629 0.0
C940 C 0.18563 0.41509 0.36289 0.0
C941 C 0.16359 0.3804 0.3607 0.0
C942 C 0.20174 0.41224 0.36097 0.0
H943 H 0.18784 0.42951 0.36464 0.0
O944 O 0.16021 0.34126 0.37161 0.0
O945 O 0.15259 0.32141 0.34352 0.0
O946 O 0.15023 0.34129 0.32562 0.0
O947 O 0.17165 0.36539 0.33962 0.0
O948 O 0.14265 0.33505 0.35539 0.0
O949 O 0.18651 0.33877 0.3701 0.0
O950 O 0.17823 0.32752 0.30707 0.0
O951 O 0.18381 0.34537 0.33438 0.0
O952 O 0.18638 0.32526 0.35216 0.0
O953 O 0.16438 0.30093 0.33854 0.0
O954 O 0.19399 0.3314 0.32297 0.0
O955 O 0.14934 0.325 0.30699 0.0
C956 C 0.13717 0.32067 0.34774 0.0
C957 C 0.22135 0.42771 0.36159 0.0
C958 C 0.23707 0.42402 0.36051 0.0
C959 C 0.17303 0.33822 0.37751 0.0
C960 C 0.18001 0.34808 0.38966 0.0
C961 C 0.19261 0.36829 0.39035 0.0
C962 C 0.17402 0.33717 0.4007 0.0
C963 C 0.18061 0.34639 0.41243 0.0
C964 C 0.19913 0.37754 0.40191 0.0
C965 C 0.19319 0.36673 0.41288 0.0
C966 C 0.15854 0.35917 0.33039 0.0
C967 C 0.19931 0.34611 0.33033 0.0
C968 C 0.16458 0.32806 0.30036 0.0
C969 C 0.16062 0.31831 0.28809 0.0
C970 C 0.15457 0.29848 0.28724 0.0
C971 C 0.16425 0.32922 0.27712 0.0
C972 C 0.16247 0.32055 0.26525 0.0
C973 C 0.15267 0.28973 0.27562 0.0
C974 C 0.1568 0.30065 0.26474 0.0
C975 C 0.17768 0.30722 0.34766 0.0
H976 H 0.19738 0.37689 0.38198 0.0
H977 H 0.16446 0.32152 0.40012 0.0
H978 H 0.20878 0.39317 0.40237 0.0
H979 H 0.19826 0.37435 0.42173 0.0
H980 H 0.1517 0.28984 0.29553 0.0
H981 H 0.16854 0.34444 0.27791 0.0
H982 H 0.14831 0.27447 0.27506 0.0
H983 H 0.15589 0.29344 0.25597 0.0
Gd984 Gd 0.65083 0.8262 0.35129 0.0
Gd985 Gd 0.68513 0.83836 0.32472 0.0
C986 C 0.74128 0.83426 0.32792 0.0
C987 C 0.76706 0.86828 0.32714 0.0
C988 C 0.73243 0.85927 0.32546 0.0
C989 C 0.72684 0.83988 0.32671 0.0
C990 C 0.75261 0.87368 0.32533 0.0
C991 C 0.7614 0.84859 0.32844 0.0
C992 C 0.73508 0.81439 0.32826 0.0
C993 C 0.71499 0.80073 0.32698 0.0
N994 N 0.70729 0.82645 0.32613 0.0
C995 C 0.70123 0.80705 0.32576 0.0
H996 H 0.68574 0.79634 0.32489 0.0
C997 C 0.72291 0.88251 0.32069 0.0
N998 N 0.7181 0.86392 0.32364 0.0
C999 C 0.74272 0.89734 0.32051 0.0
C1000 C 0.75764 0.89297 0.32303 0.0
H1001 H 0.71141 0.88597 0.31884 0.0
H1002 H 0.7727 0.84457 0.32954 0.0
H1003 H 0.64805 0.86682 0.35114 0.0
H1004 H 0.74569 0.80946 0.32924 0.0
H1005 H 0.71006 0.78532 0.32701 0.0
H1006 H 0.78264 0.87915 0.32722 0.0
H1007 H 0.62696 0.77818 0.35619 0.0
H1008 H 0.5871 0.85127 0.35144 0.0
H1009 H 0.62253 0.87646 0.35125 0.0
H1010 H 0.5533 0.78196 0.35572 0.0
H1011 H 0.74645 0.9121 0.31842 0.0
H1012 H 0.77298 0.90448 0.32285 0.0
H1013 H 0.56136 0.81596 0.35321 0.0
H1014 H 0.59287 0.75141 0.35902 0.0
N1015 N 0.62736 0.83647 0.35046 0.0
C1016 C 0.59824 0.84694 0.35119 0.0
C1017 C 0.61822 0.8612 0.35113 0.0
C1018 C 0.59293 0.8273 0.35151 0.0
C1019 C 0.60802 0.82246 0.3511 0.0
C1020 C 0.63266 0.85566 0.35098 0.0
N1021 N 0.61855 0.79952 0.35301 0.0
C1022 C 0.60347 0.80336 0.35252 0.0
C1023 C 0.59558 0.76588 0.35706 0.0
C1024 C 0.57986 0.76951 0.35635 0.0
C1025 C 0.61494 0.78115 0.3555 0.0
C1026 C 0.58371 0.7885 0.35429 0.0
H1027 H 0.56488 0.75768 0.35772 0.0
O1028 O 0.65221 0.81585 0.36976 0.0
O1029 O 0.67833 0.8282 0.34417 0.0
O1030 O 0.66056 0.80635 0.32484 0.0
O1031 O 0.6342 0.80558 0.33555 0.0
O1032 O 0.66137 0.80476 0.35526 0.0
O1033 O 0.65587 0.84467 0.36748 0.0
O1034 O 0.68455 0.84943 0.30636 0.0
O1035 O 0.65783 0.83663 0.33188 0.0
O1036 O 0.67448 0.85843 0.35107 0.0
O1037 O 0.70108 0.86009 0.34011 0.0
O1038 O 0.67465 0.85987 0.32075 0.0
O1039 O 0.68057 0.82047 0.30827 0.0
C1040 C 0.67764 0.81356 0.34915 0.0
C1041 C 0.56857 0.79317 0.35439 0.0
C1042 C 0.57315 0.81251 0.35291 0.0
C1043 C 0.65426 0.83142 0.37531 0.0
C1044 C 0.64174 0.82817 0.38623 0.0
C1045 C 0.62187 0.82316 0.38493 0.0
C1046 C 0.64986 0.82996 0.39817 0.0
C1047 C 0.63829 0.82689 0.40885 0.0
C1048 C 0.61022 0.81994 0.39548 0.0
C1049 C 0.61834 0.82178 0.40739 0.0
C1050 C 0.6414 0.79808 0.32747 0.0
C1051 C 0.65842 0.85128 0.32696 0.0
C1052 C 0.68265 0.83407 0.3006 0.0
C1053 C 0.69581 0.83781 0.28996 0.0
C1054 C 0.71602 0.84446 0.29173 0.0
C1055 C 0.68809 0.83523 0.27783 0.0
C1056 C 0.70049 0.83947 0.26744 0.0
C1057 C 0.72842 0.84869 0.28146 0.0
C1058 C 0.72076 0.8463 0.26936 0.0
C1059 C 0.69359 0.86722 0.34825 0.0
H1060 H 0.61538 0.82179 0.37583 0.0
H1061 H 0.66518 0.8336 0.39911 0.0
H1062 H 0.5949 0.81612 0.39442 0.0
H1063 H 0.60911 0.81955 0.41543 0.0
H1064 H 0.72221 0.84647 0.301 0.0
H1065 H 0.6725 0.83027 0.27649 0.0
H1066 H 0.74401 0.85386 0.28287 0.0
H1067 H 0.7306 0.84956 0.26151 0.0
Gd1068 Gd 0.15768 0.84147 0.3235 0.0
Gd1069 Gd 0.18109 0.83032 0.34981 0.0
C1070 C 0.24196 0.83628 0.34525 0.0
C1071 C 0.23424 0.80265 0.34651 0.0
C1072 C 0.20809 0.81069 0.34875 0.0
C1073 C 0.22179 0.83032 0.34706 0.0
C1074 C 0.21434 0.79677 0.34879 0.0
C1075 C 0.248 0.82234 0.34472 0.0
C1076 C 0.2556 0.85614 0.34418 0.0
C1077 C 0.24918 0.86959 0.34533 0.0
N1078 N 0.21558 0.84361 0.34749 0.0
C1079 C 0.22911 0.8631 0.34717 0.0
H1080 H 0.22478 0.87393 0.34798 0.0
C1081 C 0.17548 0.78646 0.35398 0.0
N1082 N 0.18886 0.80526 0.35085 0.0
C1083 C 0.18104 0.77224 0.35414 0.0
C1084 C 0.20048 0.77735 0.35137 0.0
H1085 H 0.16023 0.78219 0.35568 0.0
H1086 H 0.26337 0.82668 0.34318 0.0
H1087 H 0.11312 0.80078 0.32492 0.0
H1088 H 0.27116 0.86125 0.34271 0.0
H1089 H 0.25969 0.88501 0.34476 0.0
H1090 H 0.23922 0.79212 0.34636 0.0
H1091 H 0.18201 0.88901 0.31732 0.0
H1092 H 0.06879 0.81717 0.32784 0.0
H1093 H 0.07814 0.79165 0.32689 0.0
H1094 H 0.10571 0.88665 0.32417 0.0
H1095 H 0.17028 0.75732 0.35628 0.0
H1096 H 0.20473 0.76627 0.35147 0.0
H1097 H 0.07926 0.8527 0.32708 0.0
H1098 H 0.1753 0.9162 0.31602 0.0
N1099 N 0.12377 0.83128 0.32509 0.0
C1100 C 0.08423 0.82129 0.32701 0.0
C1101 C 0.08944 0.80685 0.32643 0.0
C1102 C 0.09896 0.84086 0.32619 0.0
C1103 C 0.11883 0.84542 0.3251 0.0
C1104 C 0.10936 0.81212 0.32531 0.0
N1105 N 0.15239 0.86807 0.32192 0.0
C1106 C 0.13363 0.86445 0.32347 0.0
C1107 C 0.16347 0.90178 0.31825 0.0
C1108 C 0.14441 0.89847 0.32042 0.0
C1109 C 0.1672 0.88631 0.31892 0.0
C1110 C 0.12911 0.87956 0.32289 0.0
H1111 H 0.14157 0.91049 0.31989 0.0
O1112 O 0.16898 0.8515 0.3049 0.0
O1113 O 0.18326 0.83889 0.33006 0.0
O1114 O 0.19131 0.86257 0.3485 0.0
O1115 O 0.16491 0.86344 0.33886 0.0
O1116 O 0.18984 0.86193 0.3186 0.0
O1117 O 0.14317 0.82291 0.30744 0.0
O1118 O 0.17267 0.84013 0.36658 0.0
O1119 O 0.15483 0.83113 0.34304 0.0
O1120 O 0.14748 0.80924 0.32373 0.0
O1121 O 0.17086 0.80607 0.33561 0.0
O1122 O 0.14933 0.8076 0.354 0.0
O1123 O 0.19234 0.82864 0.36807 0.0
C1124 C 0.19722 0.85288 0.32447 0.0
C1125 C 0.10947 0.87523 0.32447 0.0
C1126 C 0.09441 0.8559 0.32612 0.0
C1127 C 0.15511 0.83583 0.29949 0.0
C1128 C 0.14615 0.83873 0.28826 0.0
C1129 C 0.13022 0.84216 0.28898 0.0
C1130 C 0.15376 0.83796 0.27657 0.0
C1131 C 0.14538 0.8403 0.26555 0.0
C1132 C 0.12185 0.84458 0.27807 0.0
C1133 C 0.12929 0.84357 0.26641 0.0
C1134 C 0.18078 0.87117 0.34616 0.0
C1135 C 0.14124 0.81615 0.3482 0.0
C1136 C 0.18172 0.83435 0.3741 0.0
C1137 C 0.17002 0.82198 0.38455 0.0
C1138 C 0.15879 0.80172 0.38298 0.0
C1139 C 0.17017 0.8303 0.3962 0.0
C1140 C 0.15939 0.81836 0.40628 0.0
C1141 C 0.14808 0.78986 0.39286 0.0
C1142 C 0.14844 0.79806 0.40445 0.0
C1143 C 0.15633 0.79951 0.32729 0.0
H1144 H 0.12425 0.84289 0.29794 0.0
H1145 H 0.16599 0.83514 0.27606 0.0
H1146 H 0.10954 0.8472 0.27865 0.0
H1147 H 0.12261 0.84553 0.25808 0.0
H1148 H 0.15835 0.79502 0.37414 0.0
H1149 H 0.17889 0.84595 0.39745 0.0
H1150 H 0.13946 0.77424 0.39154 0.0
H1151 H 0.1398 0.78845 0.41192 0.0
Gd1152 Gd 0.83961 0.68084 0.6865 0.0
Gd1153 Gd 0.82797 0.6544 0.65632 0.0
C1154 C 0.77185 0.59679 0.64784 0.0
C1155 C 0.78454 0.57451 0.6456 0.0
C1156 C 0.80685 0.60863 0.65058 0.0
C1157 C 0.79111 0.61201 0.65068 0.0
C1158 C 0.80379 0.58989 0.64793 0.0
C1159 C 0.76864 0.578 0.64543 0.0
C1160 C 0.75658 0.60111 0.647 0.0
C1161 C 0.76071 0.62021 0.64884 0.0
N1162 N 0.79485 0.63044 0.65269 0.0
C1163 C 0.78009 0.63483 0.65151 0.0
H1164 H 0.78313 0.64958 0.65274 0.0
C1165 C 0.84152 0.62179 0.65101 0.0
N1166 N 0.82532 0.62399 0.65232 0.0
C1167 C 0.83922 0.60343 0.64863 0.0
C1168 C 0.82026 0.58735 0.64721 0.0
H1169 H 0.85625 0.63413 0.65206 0.0
H1170 H 0.75403 0.56618 0.64308 0.0
H1171 H 0.88521 0.68745 0.68911 0.0
H1172 H 0.74169 0.58998 0.64455 0.0
H1173 H 0.74903 0.62373 0.64804 0.0
H1174 H 0.78187 0.56001 0.64352 0.0
H1175 H 0.81008 0.69962 0.69161 0.0
H1176 H 0.92563 0.74782 0.69623 0.0
H1177 H 0.91928 0.7143 0.69283 0.0
H1178 H 0.88311 0.775 0.69981 0.0
H1179 H 0.85208 0.60174 0.64777 0.0
H1180 H 0.81854 0.57317 0.64522 0.0
H1181 H 0.91177 0.77016 0.6994 0.0
H1182 H 0.81316 0.73145 0.69626 0.0
N1183 N 0.87254 0.70573 0.68954 0.0
C1184 C 0.91069 0.73614 0.69437 0.0
C1185 C 0.90715 0.71724 0.69249 0.0
C1186 C 0.89479 0.73962 0.69424 0.0
C1187 C 0.87565 0.72392 0.69171 0.0
C1188 C 0.88783 0.70206 0.69033 0.0
N1189 N 0.84118 0.71072 0.69084 0.0
C1190 C 0.85944 0.72652 0.69235 0.0
C1191 C 0.8263 0.73028 0.69517 0.0
C1192 C 0.84501 0.74675 0.69648 0.0
C1193 C 0.82463 0.71223 0.69253 0.0
C1194 C 0.86187 0.74494 0.69529 0.0
H1195 H 0.84627 0.76067 0.69869 0.0
O1196 O 0.823 0.67373 0.70378 0.0
O1197 O 0.81777 0.65523 0.67543 0.0
O1198 O 0.81668 0.6759 0.6575 0.0
O1199 O 0.83705 0.69971 0.67196 0.0
O1200 O 0.80642 0.66804 0.68683 0.0
O1201 O 0.85039 0.67312 0.70299 0.0
O1202 O 0.84496 0.66059 0.63924 0.0
O1203 O 0.84969 0.67999 0.66733 0.0
O1204 O 0.85115 0.65959 0.68523 0.0
O1205 O 0.83021 0.63557 0.67109 0.0
O1206 O 0.86114 0.66691 0.65632 0.0
O1207 O 0.81868 0.66324 0.63964 0.0
C1208 C 0.80185 0.65402 0.67902 0.0
C1209 C 0.88094 0.76076 0.69745 0.0
C1210 C 0.89732 0.75804 0.69708 0.0
C1211 C 0.83605 0.67146 0.71003 0.0
C1212 C 0.84184 0.68108 0.72235 0.0
C1213 C 0.85286 0.70142 0.72329 0.0
C1214 C 0.83637 0.66985 0.73327 0.0
C1215 C 0.842 0.67892 0.74512 0.0
C1216 C 0.85837 0.7105 0.73496 0.0
C1217 C 0.853 0.69939 0.74579 0.0
C1218 C 0.8246 0.69368 0.66238 0.0
C1219 C 0.86566 0.6812 0.66389 0.0
C1220 C 0.8328 0.66395 0.63279 0.0
C1221 C 0.82692 0.65454 0.62042 0.0
C1222 C 0.81573 0.63423 0.61934 0.0
C1223 C 0.83245 0.66595 0.60956 0.0
C1224 C 0.82673 0.65709 0.59766 0.0
C1225 C 0.81009 0.62535 0.60762 0.0
C1226 C 0.81553 0.63664 0.59686 0.0
C1227 C 0.84278 0.64163 0.68061 0.0
H1228 H 0.8572 0.71028 0.71504 0.0
H1229 H 0.82802 0.65411 0.73253 0.0
H1230 H 0.8668 0.72623 0.7356 0.0
H1231 H 0.85726 0.70686 0.75473 0.0
H1232 H 0.81137 0.62523 0.62754 0.0
H1233 H 0.84095 0.68167 0.61041 0.0
H1234 H 0.80151 0.60964 0.60687 0.0
H1235 H 0.81116 0.62932 0.58788 0.0
Gd1236 Gd 0.31846 0.16032 0.6849 0.0
Gd1237 Gd 0.35188 0.17089 0.65793 0.0
C1238 C 0.40685 0.16475 0.66106 0.0
C1239 C 0.43338 0.19842 0.65995 0.0
C1240 C 0.39905 0.19048 0.65846 0.0
C1241 C 0.39285 0.17096 0.65985 0.0
C1242 C 0.41938 0.20441 0.65821 0.0
C1243 C 0.42712 0.17862 0.66138 0.0
C1244 C 0.40005 0.14477 0.66167 0.0
C1245 C 0.3798 0.13155 0.66068 0.0
N1246 N 0.37315 0.15795 0.6595 0.0
C1247 C 0.3665 0.13842 0.65944 0.0
H1248 H 0.3509 0.12802 0.65878 0.0
C1249 C 0.39053 0.21448 0.65372 0.0
N1250 N 0.38514 0.19574 0.65671 0.0
C1251 C 0.41052 0.22886 0.65347 0.0
C1252 C 0.42501 0.22385 0.65588 0.0
H1253 H 0.37933 0.21839 0.65194 0.0
H1254 H 0.43808 0.17415 0.66245 0.0
H1255 H 0.31721 0.20186 0.68314 0.0
H1256 H 0.41031 0.13941 0.66267 0.0
H1257 H 0.37441 0.11606 0.66095 0.0
H1258 H 0.44907 0.20892 0.65991 0.0
H1259 H 0.2935 0.11401 0.69394 0.0
H1260 H 0.25681 0.18809 0.68314 0.0
H1261 H 0.29261 0.21248 0.68264 0.0
H1262 H 0.22087 0.11895 0.68792 0.0
H1263 H 0.41472 0.24378 0.65143 0.0
H1264 H 0.44048 0.235 0.65563 0.0
H1265 H 0.23012 0.15309 0.68435 0.0
H1266 H 0.25884 0.08788 0.69665 0.0
N1267 N 0.29581 0.17166 0.6836 0.0
C1268 C 0.26762 0.18335 0.68315 0.0
C1269 C 0.28776 0.19713 0.68294 0.0
C1270 C 0.26164 0.16359 0.68391 0.0
C1271 C 0.2763 0.15816 0.68432 0.0
C1272 C 0.30172 0.19102 0.68327 0.0
N1273 N 0.28581 0.13489 0.68795 0.0
C1274 C 0.27111 0.13908 0.68643 0.0
C1275 C 0.26206 0.10218 0.69369 0.0
C1276 C 0.24668 0.10597 0.69144 0.0
C1277 C 0.28167 0.11702 0.69214 0.0
C1278 C 0.25111 0.12473 0.68806 0.0
H1279 H 0.23151 0.09453 0.69279 0.0
O1280 O 0.32137 0.15154 0.70357 0.0
O1281 O 0.3455 0.16163 0.67755 0.0
O1282 O 0.32711 0.13926 0.65781 0.0
O1283 O 0.30166 0.13627 0.6709 0.0
O1284 O 0.32897 0.13904 0.68938 0.0
O1285 O 0.32439 0.1799 0.7006 0.0
O1286 O 0.35235 0.18237 0.63953 0.0
O1287 O 0.32431 0.16914 0.66499 0.0
O1288 O 0.34237 0.1924 0.68372 0.0
O1289 O 0.36848 0.19274 0.67307 0.0
O1290 O 0.34176 0.19248 0.65376 0.0
O1291 O 0.34694 0.15286 0.64153 0.0
C1292 C 0.34493 0.14728 0.6829 0.0
C1293 C 0.23634 0.12979 0.68684 0.0
C1294 C 0.2416 0.14923 0.68481 0.0
C1295 C 0.3234 0.16732 0.70875 0.0
C1296 C 0.31119 0.1645 0.71975 0.0
C1297 C 0.29133 0.1596 0.71858 0.0
C1298 C 0.31952 0.16642 0.73163 0.0
C1299 C 0.30812 0.16345 0.74238 0.0
C1300 C 0.27988 0.15652 0.72921 0.0
C1301 C 0.28818 0.1584 0.74106 0.0
C1302 C 0.30869 0.12976 0.66201 0.0
C1303 C 0.32529 0.1838 0.65973 0.0
C1304 C 0.34985 0.16672 0.63383 0.0
C1305 C 0.36302 0.16983 0.6233 0.0
C1306 C 0.38258 0.17413 0.62519 0.0
C1307 C 0.35586 0.16859 0.61113 0.0
C1308 C 0.36813 0.17167 0.6008 0.0
C1309 C 0.39488 0.17725 0.61501 0.0
C1310 C 0.38775 0.17604 0.60287 0.0
C1311 C 0.36144 0.20054 0.68099 0.0
H1312 H 0.28469 0.15816 0.70951 0.0
H1313 H 0.33484 0.17002 0.73248 0.0
H1314 H 0.26455 0.15275 0.72825 0.0
H1315 H 0.2791 0.15623 0.74918 0.0
H1316 H 0.38833 0.17506 0.63449 0.0
H1317 H 0.34061 0.16494 0.60973 0.0
H1318 H 0.41 0.18063 0.61653 0.0
H1319 H 0.39762 0.17869 0.59512 0.0
Gd1320 Gd 0.82729 0.17517 0.65817 0.0
Gd1321 Gd 0.84432 0.16111 0.68653 0.0
C1322 C 0.90292 0.16192 0.6904 0.0
C1323 C 0.89214 0.12746 0.69181 0.0
C1324 C 0.86799 0.13808 0.68953 0.0
C1325 C 0.88304 0.15726 0.68913 0.0
C1326 C 0.87233 0.12297 0.69107 0.0
C1327 C 0.90741 0.14691 0.69151 0.0
C1328 C 0.91766 0.18153 0.69087 0.0
C1329 C 0.91239 0.19592 0.69016 0.0
N1330 N 0.8782 0.17142 0.68808 0.0
C1331 C 0.89249 0.19059 0.68887 0.0
H1332 H 0.8887 0.2019 0.68838 0.0
C1333 C 0.83364 0.11581 0.69075 0.0
N1334 N 0.84903 0.13429 0.68902 0.0
C1335 C 0.83718 0.10029 0.69213 0.0
C1336 C 0.85661 0.10385 0.69216 0.0
H1337 H 0.8186 0.11299 0.69073 0.0
H1338 H 0.92262 0.1502 0.69239 0.0
H1339 H 0.78274 0.13394 0.65813 0.0
H1340 H 0.93305 0.18567 0.6921 0.0
H1341 H 0.9236 0.21114 0.69071 0.0
H1342 H 0.89579 0.11604 0.69291 0.0
H1343 H 0.85038 0.22137 0.64906 0.0
H1344 H 0.73773 0.14949 0.66022 0.0
H1345 H 0.74761 0.12434 0.65953 0.0
H1346 H 0.77386 0.21881 0.6553 0.0
H1347 H 0.82494 0.08562 0.6932 0.0
H1348 H 0.85933 0.09183 0.69333 0.0
H1349 H 0.74772 0.18491 0.65887 0.0
H1350 H 0.84329 0.24829 0.64654 0.0
N1351 N 0.79303 0.1644 0.65833 0.0
C1352 C 0.75324 0.15383 0.65956 0.0
C1353 C 0.75876 0.1396 0.65914 0.0
C1354 C 0.76778 0.17345 0.65867 0.0
C1355 C 0.78776 0.17828 0.65792 0.0
C1356 C 0.77879 0.14515 0.65833 0.0
N1357 N 0.82112 0.2009 0.65458 0.0
C1358 C 0.80234 0.19722 0.656 0.0
C1359 C 0.83163 0.23401 0.64928 0.0
C1360 C 0.81259 0.23074 0.65151 0.0
C1361 C 0.83558 0.21874 0.65067 0.0
C1362 C 0.79755 0.21206 0.65468 0.0
H1363 H 0.80955 0.24256 0.6504 0.0
O1364 O 0.84128 0.18509 0.64012 0.0
O1365 O 0.85109 0.17187 0.66715 0.0
O1366 O 0.85455 0.19345 0.68669 0.0
O1367 O 0.83563 0.19937 0.6721 0.0
O1368 O 0.86017 0.19565 0.65582 0.0
O1369 O 0.81565 0.15632 0.6419 0.0
O1370 O 0.82862 0.1494 0.70384 0.0
O1371 O 0.82116 0.16571 0.67787 0.0
O1372 O 0.81695 0.14279 0.65907 0.0
O1373 O 0.84029 0.14009 0.67113 0.0
O1374 O 0.8114 0.14077 0.68817 0.0
O1375 O 0.85542 0.17768 0.70375 0.0
C1376 C 0.8662 0.1864 0.66275 0.0
C1377 C 0.77783 0.20758 0.65611 0.0
C1378 C 0.76295 0.18829 0.65813 0.0
C1379 C 0.82838 0.1693 0.63433 0.0
C1380 C 0.82045 0.17195 0.62255 0.0
C1381 C 0.80499 0.17611 0.6224 0.0
C1382 C 0.8284 0.17004 0.61128 0.0
C1383 C 0.82081 0.17193 0.59976 0.0
C1384 C 0.79744 0.17816 0.61104 0.0
C1385 C 0.80519 0.176 0.59979 0.0
C1386 C 0.84795 0.20448 0.68175 0.0
C1387 C 0.80587 0.15125 0.68212 0.0
C1388 C 0.84146 0.16418 0.71049 0.0
C1389 C 0.84747 0.15951 0.72237 0.0
C1390 C 0.86126 0.15313 0.72281 0.0
C1391 C 0.83893 0.16123 0.73344 0.0
C1392 C 0.84416 0.15674 0.74502 0.0
C1393 C 0.86648 0.14854 0.73424 0.0
C1394 C 0.85803 0.15033 0.74529 0.0
C1395 C 0.82638 0.1335 0.6624 0.0
H1396 H 0.79871 0.17765 0.63102 0.0
H1397 H 0.84059 0.16717 0.61155 0.0
H1398 H 0.78541 0.18124 0.61094 0.0
H1399 H 0.79869 0.1772 0.59113 0.0
H1400 H 0.86797 0.15171 0.71436 0.0
H1401 H 0.82808 0.16593 0.73299 0.0
H1402 H 0.8772 0.14368 0.73455 0.0
H1403 H 0.86263 0.14702 0.75404 0.0
H1404 H 0.32216 0.83318 0.06102 0.0
H1405 H 0.35099 0.85653 0.04911 0.0
H1406 H 0.33713 0.90157 0.05758 0.0
H1407 H 0.30813 0.87826 0.06928 0.0
H1408 H 0.34536 0.9014 0.03319 0.0
H1409 H 0.37486 0.90023 0.07234 0.0
H1410 H 0.38317 0.88577 0.09001 0.0
H1411 H 0.41085 0.86432 0.06498 0.0
H1412 H 0.40246 0.87842 0.04712 0.0
H1413 H 0.43497 0.98725 0.01955 0.0
H1414 H 0.40421 0.95996 0.02708 0.0
H1415 H 0.42719 0.92128 0.02039 0.0
H1416 H 0.45849 0.94891 0.01357 0.0
H1417 H 0.41371 0.91595 0.04254 0.0
H1418 H 0.38325 0.91639 0.00327 0.0
H1419 H 0.37448 0.93072 0.98564 0.0
H1420 H 0.34914 0.95399 0.01113 0.0
H1421 H 0.35755 0.93963 0.02883 0.0
C1422 C 0.32522 0.84804 0.06031 0.0
C1423 C 0.31285 0.85386 0.06612 0.0
C1424 C 0.3418 0.86141 0.05358 0.0
C1425 C 0.34631 0.88084 0.05252 0.0
C1426 C 0.33397 0.88666 0.05829 0.0
C1427 C 0.31748 0.87335 0.06506 0.0
C1428 C 0.3636 0.89506 0.04516 0.0
C1429 C 0.36034 0.90469 0.03529 0.0
C1430 C 0.38308 0.89898 0.04767 0.0
C1431 C 0.38778 0.89015 0.05837 0.0
C1432 C 0.3825 0.89223 0.07058 0.0
C1433 C 0.38728 0.88415 0.08063 0.0
C1434 C 0.39746 0.87406 0.07861 0.0
C1435 C 0.40292 0.87208 0.06653 0.0
C1436 C 0.39815 0.88012 0.05644 0.0
C1437 C 0.43325 0.97282 0.0194 0.0
C1438 C 0.44901 0.97018 0.01577 0.0
C1439 C 0.41556 0.95714 0.02361 0.0
C1440 C 0.41312 0.93837 0.02417 0.0
C1441 C 0.42861 0.93557 0.02002 0.0
C1442 C 0.44645 0.95135 0.01597 0.0
C1443 C 0.39554 0.92238 0.0305 0.0
C1444 C 0.39872 0.91245 0.04026 0.0
C1445 C 0.37598 0.91818 0.0279 0.0
C1446 C 0.37124 0.92714 0.01734 0.0
C1447 C 0.37597 0.92472 0.00508 0.0
C1448 C 0.37098 0.93276 0.99509 0.0
C1449 C 0.3614 0.94337 0.99728 0.0
C1450 C 0.35661 0.94582 0.00945 0.0
C1451 C 0.36139 0.93765 0.01945 0.0
H1452 H 0.35762 0.94963 0.98954 0.0
H1453 H 0.40116 0.86784 0.08641 0.0
H1454 H 0.15523 0.45311 0.05027 0.0
H1455 H 0.13024 0.45856 0.04023 0.0
H1456 H 0.12983 0.49109 0.07249 0.0
H1457 H 0.15472 0.48557 0.08261 0.0
H1458 H 0.09356 0.46751 0.06546 0.0
H1459 H 0.15231 0.51344 0.04467 0.0
H1460 H 0.18312 0.52517 0.03276 0.0
H1461 H 0.15031 0.48774 0.00205 0.0
H1462 H 0.11931 0.47555 0.01385 0.0
H1463 H 0.05156 0.51341 0.02001 0.0
H1464 H 0.08023 0.51287 0.02904 0.0
H1465 H 0.04509 0.45058 0.03306 0.0
H1466 H 0.01658 0.45103 0.0238 0.0
H1467 H 0.10062 0.49294 0.02244 0.0
H1468 H 0.05594 0.44043 0.06252 0.0
H1469 H 0.0259 0.43169 0.07471 0.0
H1470 H 0.0329 0.48808 0.06794 0.0
H1471 H 0.06319 0.49732 0.05596 0.0
C1472 C 0.14999 0.46162 0.05517 0.0
C1473 C 0.15702 0.46891 0.06725 0.0
C1474 C 0.13568 0.46473 0.04941 0.0
C1475 C 0.12824 0.47543 0.05552 0.0
C1476 C 0.13527 0.48276 0.06757 0.0
C1477 C 0.14949 0.47955 0.07337 0.0
C1478 C 0.11274 0.4785 0.04952 0.0
C1479 C 0.09519 0.4731 0.05606 0.0
C1480 C 0.11489 0.48616 0.03732 0.0
C1481 C 0.13351 0.49343 0.03021 0.0
C1482 C 0.15168 0.50758 0.03542 0.0
C1483 C 0.16917 0.51433 0.02868 0.0
C1484 C 0.16868 0.50716 0.01667 0.0
C1485 C 0.15067 0.49325 0.01136 0.0
C1486 C 0.13313 0.48643 0.01807 0.0
C1487 C 0.05011 0.49958 0.02256 0.0
C1488 C 0.03199 0.48219 0.02096 0.0
C1489 C 0.06646 0.49929 0.02775 0.0
C1490 C 0.06475 0.48169 0.03176 0.0
C1491 C 0.0467 0.46432 0.03007 0.0
C1492 C 0.03046 0.46459 0.02478 0.0
C1493 C 0.08145 0.48146 0.03828 0.0
C1494 C 0.09914 0.48739 0.03184 0.0
C1495 C 0.07962 0.47469 0.05067 0.0
C1496 C 0.06172 0.46946 0.0582 0.0
C1497 C 0.05113 0.451 0.06369 0.0
C1498 C 0.03404 0.44595 0.07055 0.0
C1499 C 0.02741 0.45926 0.07201 0.0
C1500 C 0.03796 0.47773 0.06671 0.0
C1501 C 0.0551 0.48288 0.05989 0.0
H1502 H 0.01419 0.45533 0.07733 0.0
H1503 H 0.18224 0.51242 0.01146 0.0
H1504 H 0.53604 0.70124 0.05491 0.0
H1505 H 0.52715 0.67039 0.04461 0.0
H1506 H 0.57936 0.67254 0.06002 0.0
H1507 H 0.58878 0.70384 0.06998 0.0
H1508 H 0.57389 0.661 0.03593 0.0
H1509 H 0.53425 0.64381 0.0729 0.0
H1510 H 0.51067 0.64482 0.08771 0.0
H1511 H 0.46605 0.62435 0.059 0.0
H1512 H 0.48947 0.62347 0.04396 0.0
H1513 H 0.54568 0.56163 0.02807 0.0
H1514 H 0.55508 0.59363 0.03675 0.0
H1515 H 0.50353 0.59088 0.01976 0.0
H1516 H 0.49378 0.55868 0.0112 0.0
H1517 H 0.50845 0.60289 0.04412 0.0
H1518 H 0.54801 0.61905 0.0073 0.0
H1519 H 0.57154 0.6174 0.99276 0.0
H1520 H 0.61634 0.63937 0.02138 0.0
H1521 H 0.59297 0.64087 0.03616 0.0
C1522 C 0.54579 0.6953 0.05598 0.0
C1523 C 0.56311 0.70498 0.06329 0.0
C1524 C 0.54057 0.67756 0.05019 0.0
C1525 C 0.55246 0.66905 0.05169 0.0
C1526 C 0.56994 0.67883 0.05878 0.0
C1527 C 0.5752 0.69661 0.06456 0.0
C1528 C 0.54652 0.64984 0.04597 0.0
C1529 C 0.55968 0.64824 0.03783 0.0
C1530 C 0.5278 0.6333 0.04825 0.0
C1531 C 0.51368 0.63377 0.05728 0.0
C1532 C 0.51946 0.63968 0.06972 0.0
C1533 C 0.50611 0.64019 0.07816 0.0
C1534 C 0.48689 0.6347 0.07429 0.0
C1535 C 0.48096 0.62863 0.06198 0.0
C1536 C 0.49425 0.6281 0.0535 0.0
C1537 C 0.53633 0.56781 0.02615 0.0
C1538 C 0.51905 0.55765 0.01886 0.0
C1539 C 0.54179 0.58615 0.03107 0.0
C1540 C 0.53011 0.59469 0.02878 0.0
C1541 C 0.51278 0.58454 0.0216 0.0
C1542 C 0.50731 0.5662 0.01665 0.0
C1543 C 0.53583 0.61406 0.0341 0.0
C1544 C 0.52263 0.61568 0.04218 0.0
C1545 C 0.55452 0.63058 0.03179 0.0
C1546 C 0.56868 0.62991 0.02287 0.0
C1547 C 0.56284 0.6234 0.01052 0.0
C1548 C 0.57615 0.62251 0.00223 0.0
C1549 C 0.59541 0.62824 0.00615 0.0
C1550 C 0.60141 0.63492 0.01836 0.0
C1551 C 0.58814 0.63581 0.0267 0.0
H1552 H 0.60569 0.62753 0.99972 0.0
H1553 H 0.47658 0.63511 0.08083 0.0
H1554 H 0.86941 0.30658 0.93158 0.0
H1555 H 0.8946 0.33664 0.94155 0.0
H1556 H 0.84912 0.34171 0.96105 0.0
H1557 H 0.82376 0.31206 0.95071 0.0
H1558 H 0.87642 0.37629 0.95244 0.0
H1559 H 0.87695 0.32493 0.97566 0.0
H1560 H 0.87912 0.29524 0.97857 0.0
H1561 H 0.93754 0.32387 0.9631 0.0
H1562 H 0.93561 0.35367 0.95994 0.0
H1563 H 0.93499 0.44396 0.99881 0.0
H1564 H 0.91119 0.41407 0.9882 0.0
H1565 H 0.95852 0.41299 0.96825 0.0
H1566 H 0.98269 0.44282 0.97912 0.0
H1567 H 0.93109 0.37683 0.97659 0.0
H1568 H 0.93064 0.42844 0.95374 0.0
H1569 H 0.92888 0.45849 0.95176 0.0
H1570 H 0.87047 0.42957 0.96723 0.0
H1571 H 0.87196 0.39936 0.96942 0.0
C1572 C 0.86472 0.31419 0.93786 0.0
C1573 C 0.84452 0.30683 0.94036 0.0
C1574 C 0.87917 0.33129 0.94367 0.0
C1575 C 0.87378 0.34131 0.95219 0.0
C1576 C 0.85364 0.33419 0.95455 0.0
C1577 C 0.83917 0.31712 0.94872 0.0
C1578 C 0.88914 0.35913 0.95871 0.0
C1579 C 0.88823 0.37633 0.95783 0.0
C1580 C 0.90484 0.35935 0.96553 0.0
C1581 C 0.90605 0.34146 0.96745 0.0
C1582 C 0.8902 0.32485 0.97279 0.0
C1583 C 0.8914 0.30801 0.9745 0.0
C1584 C 0.90844 0.30765 0.97099 0.0
C1585 C 0.92434 0.32416 0.9658 0.0
C1586 C 0.92321 0.34103 0.96405 0.0
C1587 C 0.94047 0.43732 0.99229 0.0
C1588 C 0.96082 0.44582 0.98985 0.0
C1589 C 0.92677 0.42027 0.98615 0.0
C1590 C 0.93305 0.41144 0.97731 0.0
C1591 C 0.95336 0.41961 0.97502 0.0
C1592 C 0.96714 0.43669 0.98121 0.0
C1593 C 0.9183 0.39388 0.97033 0.0
C1594 C 0.91932 0.37677 0.97114 0.0
C1595 C 0.90269 0.39373 0.96347 0.0
C1596 C 0.90145 0.41167 0.9618 0.0
C1597 C 0.91743 0.4285 0.95675 0.0
C1598 C 0.91649 0.44556 0.95559 0.0
C1599 C 0.89958 0.44594 0.95937 0.0
C1600 C 0.88355 0.42924 0.96429 0.0
C1601 C 0.88442 0.41212 0.96547 0.0
H1602 H 0.89889 0.45916 0.95845 0.0
H1603 H 0.90934 0.2946 0.97233 0.0
H1604 H 0.7049 0.55038 0.96217 0.0
H1605 H 0.67477 0.54502 0.97257 0.0
H1606 H 0.63971 0.509 0.94169 0.0
H1607 H 0.66984 0.51457 0.93117 0.0
H1608 H 0.62682 0.53204 0.94766 0.0
H1609 H 0.64193 0.48993 0.97072 0.0
H1610 H 0.66223 0.48034 0.98319 0.0
H1611 H 0.66852 0.52092 0.01199 0.0
H1612 H 0.64849 0.53098 0.99961 0.0
H1613 H 0.54031 0.489 0.99361 0.0
H1614 H 0.57009 0.48984 0.98563 0.0
H1615 H 0.59658 0.55149 0.97925 0.0
H1616 H 0.56704 0.55081 0.98757 0.0
H1617 H 0.61149 0.51182 0.99185 0.0
H1618 H 0.61515 0.55853 0.94941 0.0
H1619 H 0.59228 0.56421 0.93651 0.0
H1620 H 0.54451 0.50728 0.94541 0.0
H1621 H 0.56714 0.50115 0.95818 0.0
C1622 C 0.69076 0.54113 0.95766 0.0
C1623 C 0.68979 0.53291 0.94583 0.0
C1624 C 0.6735 0.53804 0.96363 0.0
C1625 C 0.65485 0.52641 0.958 0.0
C1626 C 0.65387 0.51807 0.94623 0.0
C1627 C 0.67113 0.52129 0.94021 0.0
C1628 C 0.63645 0.52353 0.96415 0.0
C1629 C 0.62354 0.52759 0.95732 0.0
C1630 C 0.63179 0.51733 0.9767 0.0
C1631 C 0.64387 0.51135 0.98417 0.0
C1632 C 0.64778 0.49694 0.97966 0.0
C1633 C 0.65922 0.49139 0.98673 0.0
C1634 C 0.66671 0.50005 0.99836 0.0
C1635 C 0.66274 0.51425 0.00297 0.0
C1636 C 0.65133 0.51986 0.99593 0.0
C1637 C 0.5527 0.50282 0.99088 0.0
C1638 C 0.55154 0.51994 0.99146 0.0
C1639 C 0.56968 0.50326 0.98626 0.0
C1640 C 0.5855 0.52071 0.98181 0.0
C1641 C 0.58451 0.53787 0.98262 0.0
C1642 C 0.56767 0.53747 0.98737 0.0
C1643 C 0.60241 0.52084 0.97543 0.0
C1644 C 0.61493 0.51626 0.9822 0.0
C1645 C 0.60646 0.52604 0.96273 0.0
C1646 C 0.59282 0.52948 0.95486 0.0
C1647 C 0.59979 0.5472 0.94857 0.0
C1648 C 0.58686 0.5505 0.94128 0.0
C1649 C 0.56695 0.53615 0.94017 0.0
C1650 C 0.55992 0.51842 0.94631 0.0
C1651 C 0.57279 0.51504 0.95359 0.0
H1652 H 0.55697 0.53875 0.93454 0.0
H1653 H 0.67555 0.49573 0.00382 0.0
H1654 H 0.42571 0.1236 0.9385 0.0
H1655 H 0.43344 0.1009 0.94893 0.0
H1656 H 0.48774 0.14906 0.96328 0.0
H1657 H 0.48047 0.17187 0.95247 0.0
H1658 H 0.49369 0.12066 0.95447 0.0
H1659 H 0.4478 0.12484 0.98202 0.0
H1660 H 0.41681 0.12384 0.98794 0.0
H1661 H 0.38339 0.06396 0.97631 0.0
H1662 H 0.41418 0.06468 0.97016 0.0
H1663 H 0.51171 0.06545 0.99927 0.0
H1664 H 0.50435 0.08922 0.99001 0.0
H1665 H 0.4523 0.04277 0.97223 0.0
H1666 H 0.45942 0.01884 0.9815 0.0
H1667 H 0.44581 0.07097 0.98345 0.0
H1668 H 0.49178 0.06728 0.95535 0.0
H1669 H 0.52288 0.06801 0.95013 0.0
H1670 H 0.55632 0.12708 0.9633 0.0
H1671 H 0.52539 0.12661 0.96879 0.0
C1672 C 0.43939 0.12937 0.94378 0.0
C1673 C 0.45246 0.14955 0.94468 0.0
C1674 C 0.44369 0.11638 0.94984 0.0
C1675 C 0.46105 0.12331 0.957 0.0
C1676 C 0.47422 0.14342 0.95784 0.0
C1677 C 0.46995 0.15643 0.95175 0.0
C1678 C 0.46549 0.10952 0.96354 0.0
C1679 C 0.48335 0.10999 0.96095 0.0
C1680 C 0.45183 0.09537 0.97182 0.0
C1681 C 0.43329 0.09487 0.97552 0.0
C1682 C 0.43383 0.1115 0.98063 0.0
C1683 C 0.4163 0.11098 0.98405 0.0
C1684 C 0.39814 0.09386 0.98247 0.0
C1685 C 0.39747 0.07722 0.97751 0.0
C1686 C 0.41496 0.07767 0.97407 0.0
C1687 C 0.4986 0.06025 0.99348 0.0
C1688 C 0.48614 0.04025 0.99111 0.0
C1689 C 0.49448 0.07387 0.98815 0.0
C1690 C 0.47787 0.06771 0.98038 0.0
C1691 C 0.46519 0.04776 0.97821 0.0
C1692 C 0.46935 0.03414 0.98347 0.0
C1693 C 0.47389 0.08209 0.97431 0.0
C1694 C 0.45614 0.08171 0.977 0.0
C1695 C 0.48766 0.09635 0.96616 0.0
C1696 C 0.50627 0.09684 0.9626 0.0
C1697 C 0.50577 0.08039 0.95721 0.0
C1698 C 0.52336 0.08076 0.9542 0.0
C1699 C 0.54156 0.09755 0.95643 0.0
C1700 C 0.5422 0.11407 0.96161 0.0
C1701 C 0.52464 0.11377 0.96466 0.0
H1702 H 0.55515 0.09777 0.95414 0.0
H1703 H 0.38459 0.09348 0.98513 0.0
H1704 H 0.66697 0.13642 0.92995 0.0
H1705 H 0.63849 0.11271 0.94179 0.0
H1706 H 0.6706 0.13702 0.97619 0.0
H1707 H 0.69952 0.16011 0.9644 0.0
H1708 H 0.65297 0.09961 0.97735 0.0
H1709 H 0.63237 0.14488 0.96621 0.0
H1710 H 0.6252 0.16544 0.95245 0.0
H1711 H 0.58222 0.11468 0.93238 0.0
H1712 H 0.58933 0.09384 0.94591 0.0
H1713 H 0.53964 0.04941 0.99698 0.0
H1714 H 0.57075 0.07785 0.99098 0.0
H1715 H 0.59419 0.04041 0.98136 0.0
H1716 H 0.56376 0.01226 0.98846 0.0
H1717 H 0.58494 0.08743 0.96995 0.0
H1718 H 0.64027 0.06066 0.97878 0.0
H1719 H 0.64843 0.0434 0.99475 0.0
H1720 H 0.62381 0.06312 0.02318 0.0
H1721 H 0.61535 0.08035 0.0073 0.0
C1722 C 0.66807 0.13666 0.94003 0.0
C1723 C 0.68562 0.15021 0.9462 0.0
C1724 C 0.65163 0.12323 0.94681 0.0
C1725 C 0.65226 0.1232 0.95991 0.0
C1726 C 0.6697 0.13678 0.96609 0.0
C1727 C 0.68619 0.15012 0.95933 0.0
C1728 C 0.63504 0.10851 0.96713 0.0
C1729 C 0.6381 0.09703 0.97578 0.0
C1730 C 0.61566 0.10531 0.96529 0.0
C1731 C 0.61153 0.11782 0.95701 0.0
C1732 C 0.62153 0.13812 0.95879 0.0
C1733 C 0.61744 0.14982 0.95105 0.0
C1734 C 0.6033 0.14137 0.94153 0.0
C1735 C 0.59321 0.12121 0.93973 0.0
C1736 C 0.59725 0.10944 0.94744 0.0
C1737 C 0.55175 0.04736 0.99415 0.0
C1738 C 0.54946 0.02865 0.99356 0.0
C1739 C 0.5695 0.06363 0.99052 0.0
C1740 C 0.58511 0.06148 0.98581 0.0
C1741 C 0.58281 0.04274 0.98533 0.0
C1742 C 0.56528 0.02657 0.98928 0.0
C1743 C 0.60279 0.07836 0.98017 0.0
C1744 C 0.59981 0.09015 0.97169 0.0
C1745 C 0.62234 0.08221 0.98241 0.0
C1746 C 0.62695 0.07153 0.99189 0.0
C1747 C 0.63653 0.06123 0.98844 0.0
C1748 C 0.64116 0.05142 0.99745 0.0
C1749 C 0.63649 0.05204 0.00996 0.0
C1750 C 0.6272 0.06247 0.01347 0.0
C1751 C 0.62237 0.07215 0.00447 0.0
H1752 H 0.64016 0.04451 0.01694 0.0
H1753 H 0.60013 0.15045 0.93556 0.0
H1754 H 0.8745 0.56816 0.94552 0.0
H1755 H 0.89931 0.5622 0.95532 0.0
H1756 H 0.85984 0.50025 0.95149 0.0
H1757 H 0.83473 0.50623 0.94214 0.0
H1758 H 0.87511 0.5065 0.97293 0.0
H1759 H 0.90302 0.52741 0.9328 0.0
H1760 H 0.91504 0.5486 0.91437 0.0
H1761 H 0.95909 0.59508 0.93696 0.0
H1762 H 0.94716 0.57425 0.95557 0.0
H1763 H 0.95306 0.48634 0.99007 0.0
H1764 H 0.92559 0.48819 0.98064 0.0
H1765 H 0.95916 0.55088 0.98338 0.0
H1766 H 0.98717 0.54898 0.99206 0.0
H1767 H 0.94584 0.54141 0.96116 0.0
H1768 H 0.90023 0.51971 0.001 0.0
H1769 H 0.88102 0.49641 0.01755 0.0
H1770 H 0.86971 0.44863 0.99326 0.0
H1771 H 0.88793 0.47171 0.97639 0.0
C1772 C 0.8712 0.55328 0.94672 0.0
C1773 C 0.85268 0.53766 0.94307 0.0
C1774 C 0.88544 0.54986 0.95225 0.0
C1775 C 0.88169 0.53075 0.95399 0.0
C1776 C 0.86318 0.51513 0.95028 0.0
C1777 C 0.8488 0.51855 0.94495 0.0
C1778 C 0.89663 0.52702 0.96021 0.0
C1779 C 0.89055 0.51399 0.9702 0.0
C1780 C 0.91683 0.53673 0.95678 0.0
C1781 C 0.92407 0.54931 0.94561 0.0
C1782 C 0.91517 0.5422 0.93386 0.0
C1783 C 0.92199 0.55414 0.92338 0.0
C1784 C 0.93779 0.57319 0.9245 0.0
C1785 C 0.94684 0.58032 0.93611 0.0
C1786 C 0.94007 0.56845 0.94663 0.0
C1787 C 0.95435 0.50048 0.98903 0.0
C1788 C 0.97219 0.51754 0.99197 0.0
C1789 C 0.93847 0.50154 0.98369 0.0
C1790 C 0.93994 0.51968 0.98144 0.0
C1791 C 0.95751 0.53667 0.98497 0.0
C1792 C 0.97352 0.53562 0.98999 0.0
C1793 C 0.92443 0.52133 0.97417 0.0
C1794 C 0.93041 0.53394 0.96387 0.0
C1795 C 0.90405 0.5109 0.9771 0.0
C1796 C 0.896 0.49737 0.98765 0.0
C1797 C 0.89395 0.50424 0.99931 0.0
C1798 C 0.88292 0.49108 0.00864 0.0
C1799 C 0.87424 0.47104 0.00648 0.0
C1800 C 0.87651 0.46414 0.99495 0.0
C1801 C 0.88707 0.47724 0.98548 0.0
H1802 H 0.86575 0.46088 0.01375 0.0
H1803 H 0.94304 0.58241 0.91638 0.0
H1804 H 0.48235 0.31217 0.95071 0.0
H1805 H 0.48893 0.34233 0.96112 0.0
H1806 H 0.43741 0.33854 0.94337 0.0
H1807 H 0.43054 0.3082 0.93304 0.0
H1808 H 0.46958 0.37578 0.94293 0.0
H1809 H 0.43463 0.3253 0.97287 0.0
H1810 H 0.42815 0.29698 0.98565 0.0
H1811 H 0.48469 0.33052 0.00371 0.0
H1812 H 0.49164 0.35898 0.9909 0.0
H1813 H 0.46165 0.44409 0.98169 0.0
H1814 H 0.45428 0.41382 0.97115 0.0
H1815 H 0.50496 0.41583 0.98894 0.0
H1816 H 0.51248 0.44608 0.99954 0.0
H1817 H 0.47274 0.37947 0.9892 0.0
H1818 H 0.50761 0.4302 0.95939 0.0
H1819 H 0.51369 0.45877 0.94701 0.0
H1820 H 0.45729 0.4251 0.92881 0.0
H1821 H 0.45071 0.3964 0.94125 0.0
C1822 C 0.47234 0.31767 0.94908 0.0
C1823 C 0.45585 0.30771 0.94111 0.0
C1824 C 0.47617 0.33495 0.95499 0.0
C1825 C 0.46355 0.34254 0.95309 0.0
C1826 C 0.44735 0.33292 0.94492 0.0
C1827 C 0.44348 0.31562 0.93902 0.0
C1828 C 0.46698 0.36025 0.9599 0.0
C1829 C 0.47003 0.37654 0.95304 0.0
C1830 C 0.4679 0.36128 0.97308 0.0
C1831 C 0.46373 0.34421 0.98084 0.0
C1832 C 0.44575 0.32659 0.9795 0.0
C1833 C 0.44198 0.31052 0.98676 0.0
C1834 C 0.45602 0.31194 0.99546 0.0
C1835 C 0.47384 0.32944 0.99695 0.0
C1836 C 0.4777 0.34555 0.9897 0.0
C1837 C 0.47119 0.43807 0.98342 0.0
C1838 C 0.48766 0.44751 0.99146 0.0
C1839 C 0.46698 0.4208 0.97736 0.0
C1840 C 0.47923 0.41276 0.97916 0.0
C1841 C 0.49534 0.42184 0.98743 0.0
C1842 C 0.49958 0.43911 0.9935 0.0
C1843 C 0.47544 0.39504 0.97225 0.0
C1844 C 0.4723 0.37873 0.97908 0.0
C1845 C 0.47446 0.39404 0.95905 0.0
C1846 C 0.47858 0.41117 0.95134 0.0
C1847 C 0.49644 0.42891 0.95281 0.0
C1848 C 0.49998 0.44513 0.94578 0.0
C1849 C 0.48587 0.44377 0.93715 0.0
C1850 C 0.46821 0.42615 0.93551 0.0
C1851 C 0.46456 0.40989 0.94254 0.0
H1852 H 0.48863 0.45634 0.93172 0.0
H1853 H 0.45307 0.29948 0.00108 0.0
H1854 H 0.14163 0.68127 0.08649 0.0
H1855 H 0.11674 0.65119 0.07644 0.0
H1856 H 0.13727 0.67693 0.04029 0.0
H1857 H 0.16152 0.70745 0.05028 0.0
H1858 H 0.09855 0.65742 0.04026 0.0
H1859 H 0.14903 0.64351 0.05295 0.0
H1860 H 0.1722 0.64105 0.06753 0.0
H1861 H 0.12346 0.60034 0.08975 0.0
H1862 H 0.1 0.60276 0.07539 0.0
H1863 H 0.05533 0.56958 0.00448 0.0
H1864 H 0.07855 0.6 0.01503 0.0
H1865 H 0.05125 0.57548 0.0503 0.0
H1866 H 0.02812 0.54485 0.03973 0.0
H1867 H 0.09271 0.594 0.05102 0.0
H1868 H 0.04229 0.60765 0.03735 0.0
H1869 H 0.01984 0.60976 0.022 0.0
H1870 H 0.06969 0.65083 1.00069 0.0
H1871 H 0.09245 0.64874 0.01582 0.0
C1872 C 0.14074 0.68066 0.0764 0.0
C1873 C 0.15367 0.69687 0.06922 0.0
C1874 C 0.12662 0.66332 0.07065 0.0
C1875 C 0.12528 0.66164 0.05759 0.0
C1876 C 0.13805 0.67781 0.05038 0.0
C1877 C 0.15208 0.69522 0.05613 0.0
C1878 C 0.11045 0.6431 0.05143 0.0
C1879 C 0.09747 0.6436 0.04251 0.0
C1880 C 0.10871 0.62496 0.05451 0.0
C1881 C 0.12278 0.62348 0.06317 0.0
C1882 C 0.14326 0.63415 0.061 0.0
C1883 C 0.15644 0.63274 0.06922 0.0
C1884 C 0.14931 0.62059 0.07958 0.0
C1885 C 0.12897 0.60978 0.08173 0.0
C1886 C 0.11572 0.61115 0.07356 0.0
C1887 C 0.05439 0.57058 0.01447 0.0
C1888 C 0.04007 0.55475 0.02127 0.0
C1889 C 0.06753 0.58805 0.02049 0.0
C1890 C 0.06661 0.59002 0.03345 0.0
C1891 C 0.05221 0.57427 0.04028 0.0
C1892 C 0.03894 0.55684 0.03422 0.0
C1893 C 0.08093 0.6084 0.03988 0.0
C1894 C 0.09381 0.60785 0.04883 0.0
C1895 C 0.08271 0.6265 0.03673 0.0
C1896 C 0.06907 0.6279 0.02766 0.0
C1897 C 0.04846 0.61701 0.02934 0.0
C1898 C 0.03569 0.61823 0.02068 0.0
C1899 C 0.04333 0.63039 0.01036 0.0
C1900 C 0.06379 0.6414 0.00868 0.0
C1901 C 0.07663 0.64022 0.0173 0.0
H1902 H 0.03342 0.63131 0.00367 0.0
H1903 H 0.15954 0.61951 0.08592 0.0
H1904 H 0.32042 0.44603 0.07725 0.0
H1905 H 0.35036 0.45166 0.06654 0.0
H1906 H 0.34591 0.49205 0.04188 0.0
H1907 H 0.31632 0.48708 0.05279 0.0
H1908 H 0.35207 0.46512 0.02931 0.0
H1909 H 0.38046 0.50898 0.06403 0.0
H1910 H 0.386 0.51891 0.08618 0.0
H1911 H 0.4065 0.4787 0.09325 0.0
H1912 H 0.40078 0.46829 0.07117 0.0
H1913 H 0.46295 0.51313 0.01585 0.0
H1914 H 0.43125 0.50944 0.02267 0.0
H1915 H 0.40978 0.44888 0.03031 0.0
H1916 H 0.44086 0.45219 0.02279 0.0
H1917 H 0.41669 0.48762 0.05037 0.0
H1918 H 0.38261 0.44004 0.01634 0.0
H1919 H 0.3731 0.42783 0.99481 0.0
H1920 H 0.36078 0.47374 0.98693 0.0
H1921 H 0.37101 0.48668 0.00833 0.0
C1922 C 0.32593 0.45639 0.0697 0.0
C1923 C 0.31583 0.46611 0.06594 0.0
C1924 C 0.34306 0.45953 0.06355 0.0
C1925 C 0.35047 0.47238 0.05346 0.0
C1926 C 0.34045 0.48205 0.04963 0.0
C1927 C 0.32342 0.47907 0.05585 0.0
C1928 C 0.36824 0.47517 0.04661 0.0
C1929 C 0.36628 0.47029 0.03388 0.0
C1930 C 0.38669 0.48158 0.05263 0.0
C1931 C 0.38999 0.48771 0.06595 0.0
C1932 C 0.38595 0.5021 0.07033 0.0
C1933 C 0.38917 0.50785 0.08287 0.0
C1934 C 0.39655 0.49941 0.09113 0.0
C1935 C 0.40075 0.48521 0.08685 0.0
C1936 C 0.39754 0.47939 0.07432 0.0
C1937 C 0.45114 0.49885 0.01843 0.0
C1938 C 0.45417 0.4828 0.01842 0.0
C1939 C 0.43306 0.49676 0.02238 0.0
C1940 C 0.41788 0.47872 0.02663 0.0
C1941 C 0.42091 0.46273 0.0266 0.0
C1942 C 0.43877 0.4647 0.02241 0.0
C1943 C 0.40043 0.47734 0.03309 0.0
C1944 C 0.40251 0.48258 0.04578 0.0
C1945 C 0.38203 0.47108 0.02706 0.0
C1946 C 0.37828 0.46474 0.01382 0.0
C1947 C 0.37862 0.44798 0.00991 0.0
C1948 C 0.37284 0.44077 0.99776 0.0
C1949 C 0.36643 0.45005 0.98948 0.0
C1950 C 0.36582 0.4666 0.99333 0.0
C1951 C 0.37177 0.47397 0.00543 0.0
H1952 H 0.36188 0.4444 0.9801 0.0
H1953 H 0.39907 0.5039 0.10084 0.0
H1954 H 0.57588 0.88138 0.0743 0.0
H1955 H 0.56457 0.90181 0.06443 0.0
H1956 H 0.51479 0.85079 0.0483 0.0
H1957 H 0.52587 0.83021 0.05827 0.0
H1958 H 0.53274 0.87899 0.03125 0.0
H1959 H 0.50793 0.87397 0.07239 0.0
H1960 H 0.5083 0.87554 0.09538 0.0
H1961 H 0.55045 0.93673 0.09436 0.0
H1962 H 0.55059 0.93548 0.07136 0.0
H1963 H 0.48642 0.9323 0.01051 0.0
H1964 H 0.49302 0.90861 0.02071 0.0
H1965 H 0.54445 0.95536 0.03886 0.0
H1966 H 0.53784 0.97908 0.0289 0.0
H1967 H 0.52246 0.92706 0.05495 0.0
H1968 H 0.54828 0.93087 0.01336 0.0
H1969 H 0.54536 0.9291 0.99041 0.0
H1970 H 0.49904 0.86942 0.99247 0.0
H1971 H 0.50149 0.87091 0.01546 0.0
C1972 C 0.56238 0.87447 0.06879 0.0
C1973 C 0.55177 0.85416 0.06708 0.0
C1974 C 0.55595 0.88617 0.06314 0.0
C1975 C 0.53874 0.87779 0.05572 0.0
C1976 C 0.52813 0.85754 0.05398 0.0
C1977 C 0.53453 0.84582 0.05964 0.0
C1978 C 0.5322 0.89027 0.04951 0.0
C1979 C 0.53021 0.88931 0.03645 0.0
C1980 C 0.5291 0.90386 0.05629 0.0
C1981 C 0.52943 0.90458 0.07014 0.0
C1982 C 0.51746 0.88772 0.07707 0.0
C1983 C 0.51753 0.88856 0.0901 0.0
C1984 C 0.52942 0.90621 0.09633 0.0
C1985 C 0.54127 0.92306 0.08953 0.0
C1986 C 0.54127 0.92229 0.07649 0.0
C1987 C 0.49923 0.93755 0.01659 0.0
C1988 C 0.51167 0.95759 0.01885 0.0
C1989 C 0.50297 0.92399 0.02241 0.0
C1990 C 0.51931 0.93026 0.03046 0.0
C1991 C 0.53174 0.95023 0.0327 0.0
C1992 C 0.52796 0.96377 0.02695 0.0
C1993 C 0.52349 0.9161 0.03672 0.0
C1994 C 0.52496 0.9167 0.04978 0.0
C1995 C 0.526 0.90213 0.02996 0.0
C1996 C 0.52496 0.90105 0.01613 0.0
C1997 C 0.53742 0.91739 0.00892 0.0
C1998 C 0.53586 0.91644 0.9959 0.0
C1999 C 0.522 0.89917 0.98999 0.0
C2000 C 0.50975 0.88279 0.99707 0.0
C2001 C 0.51124 0.88367 0.01009 0.0
H2002 H 0.52076 0.89848 0.97991 0.0
H2003 H 0.52943 0.90684 0.10642 0.0
H2004 H 0.98702 0.16504 0.39096 0.0
H2005 H 0.01608 0.18806 0.37911 0.0
H2006 H 0.00404 0.23412 0.38826 0.0
H2007 H 0.97479 0.21113 0.39993 0.0
H2008 H 0.01274 0.23409 0.36354 0.0
H2009 H 0.04024 0.23085 0.40326 0.0
H2010 H 0.04645 0.21439 0.42069 0.0
H2011 H 0.07342 0.19234 0.39554 0.0
H2012 H 0.06713 0.20846 0.37792 0.0
H2013 H 0.10285 0.31977 0.35214 0.0
H2014 H 0.07169 0.29209 0.35871 0.0
H2015 H 0.09579 0.2541 0.35306 0.0
H2016 H 0.12756 0.28223 0.34731 0.0
H2017 H 0.08017 0.24714 0.37429 0.0
H2018 H 0.0521 0.24885 0.33452 0.0
H2019 H 0.04451 0.26348 0.31654 0.0
H2020 H 0.01846 0.28719 0.34112 0.0
H2021 H 0.0257 0.2725 0.35918 0.0
C2022 C 0.9905 0.18005 0.39039 0.0
C2023 C 0.97861 0.18627 0.39642 0.0
C2024 C 0.00719 0.19321 0.38369 0.0
C2025 C 0.01231 0.21284 0.38287 0.0
C2026 C 1.00038 0.21905 0.38878 0.0
C2027 C 0.98377 0.20593 0.39554 0.0
C2028 C 0.03003 0.22696 0.37581 0.0
C2029 C 0.02752 0.23707 0.36594 0.0
C2030 C 0.04923 0.23037 0.37867 0.0
C2031 C 0.053 0.22067 0.38925 0.0
C2032 C 0.04733 0.22234 0.40143 0.0
C2033 C 0.0509 0.21311 0.41135 0.0
C2034 C 0.06027 0.20227 0.40922 0.0
C2035 C 0.06613 0.2007 0.39717 0.0
C2036 C 0.06258 0.20989 0.38722 0.0
C2037 C 0.10132 0.30542 0.35202 0.0
C2038 C 0.1175 0.30311 0.34899 0.0
C2039 C 0.08338 0.2895 0.35566 0.0
C2040 C 0.08108 0.27078 0.35621 0.0
C2041 C 0.09707 0.26833 0.35268 0.0
C2042 C 0.11519 0.28438 0.34924 0.0
C2043 C 0.06301 0.25449 0.36195 0.0
C2044 C 0.06541 0.244 0.37168 0.0
C2045 C 0.04367 0.25059 0.3589 0.0
C2046 C 0.03968 0.25981 0.34816 0.0
C2047 C 0.04494 0.25736 0.33606 0.0
C2048 C 0.04059 0.26555 0.32587 0.0
C2049 C 0.03115 0.27638 0.3277 0.0
C2050 C 0.02583 0.27886 0.33971 0.0
C2051 C 0.02995 0.27051 0.34992 0.0
H2052 H 0.02788 0.28277 0.3198 0.0
H2053 H 0.06303 0.19514 0.41691 0.0
H2054 H 0.81955 0.78123 0.37883 0.0
H2055 H 0.79433 0.78654 0.36895 0.0
H2056 H 0.79083 0.81505 0.40243 0.0
H2057 H 0.81598 0.80978 0.41235 0.0
H2058 H 0.75513 0.79027 0.39453 0.0
H2059 H 0.81398 0.84045 0.37583 0.0
H2060 H 0.84529 0.85471 0.36421 0.0
H2061 H 0.8144 0.82065 0.33188 0.0
H2062 H 0.78293 0.80595 0.34337 0.0
H2063 H 0.7156 0.84309 0.35337 0.0
H2064 H 0.74345 0.84033 0.36143 0.0
H2065 H 0.70626 0.77789 0.36277 0.0
H2066 H 0.67838 0.78064 0.35456 0.0
H2067 H 0.76306 0.8215 0.35332 0.0
H2068 H 0.71737 0.76262 0.38986 0.0
H2069 H 0.687 0.75156 0.4022 0.0
H2070 H 0.69394 0.80871 0.4004 0.0
H2071 H 0.72449 0.82018 0.38823 0.0
C2072 C 0.81359 0.78884 0.38404 0.0
C2073 C 0.81977 0.79503 0.39641 0.0
C2074 C 0.79915 0.79187 0.37837 0.0
C2075 C 0.79072 0.80131 0.38491 0.0
C2076 C 0.79701 0.80765 0.39721 0.0
C2077 C 0.81137 0.80457 0.40288 0.0
C2078 C 0.77488 0.80403 0.37913 0.0
C2079 C 0.75692 0.79707 0.38551 0.0
C2080 C 0.7772 0.81318 0.36743 0.0
C2081 C 0.79613 0.82191 0.36052 0.0
C2082 C 0.81389 0.83585 0.36628 0.0
C2083 C 0.83166 0.84404 0.35971 0.0
C2084 C 0.83185 0.83854 0.34733 0.0
C2085 C 0.81424 0.82486 0.34148 0.0
C2086 C 0.79643 0.8166 0.34802 0.0
C2087 C 0.71348 0.82876 0.35511 0.0
C2088 C 0.69498 0.81202 0.35304 0.0
C2089 C 0.72939 0.82721 0.35977 0.0
C2090 C 0.72694 0.80891 0.36273 0.0
C2091 C 0.70847 0.79216 0.3606 0.0
C2092 C 0.69259 0.79373 0.3559 0.0
C2093 C 0.74336 0.80742 0.36865 0.0
C2094 C 0.76135 0.8146 0.36231 0.0
C2095 C 0.74126 0.79885 0.3805 0.0
C2096 C 0.7231 0.79218 0.38802 0.0
C2097 C 0.71245 0.77284 0.39215 0.0
C2098 C 0.69521 0.7665 0.39911 0.0
C2099 C 0.68851 0.7794 0.40205 0.0
C2100 C 0.6991 0.79871 0.39808 0.0
C2101 C 0.71637 0.80513 0.39114 0.0
H2102 H 0.67515 0.77446 0.40742 0.0
H2103 H 0.84562 0.84491 0.34225 0.0
H2104 H 0.20747 0.0166 0.41316 0.0
H2105 H 0.19999 0.98612 0.40276 0.0
H2106 H 0.24008 0.01855 0.3731 0.0
H2107 H 0.24733 0.04906 0.38336 0.0
H2108 H 0.20767 0.98989 0.36363 0.0
H2109 H 0.25279 0.99621 0.39604 0.0
H2110 H 0.26574 0.00092 0.41757 0.0
H2111 H 0.21336 0.94889 0.4289 0.0
H2112 H 0.19996 0.94402 0.40746 0.0
H2113 H 0.21597 0.89569 0.35786 0.0
H2114 H 0.22623 0.92749 0.36718 0.0
H2115 H 0.16982 0.92158 0.35729 0.0
H2116 H 0.15965 0.89004 0.34766 0.0
H2117 H 0.213 0.93806 0.38597 0.0
H2118 H 0.17395 0.96463 0.35182 0.0
H2119 H 0.16473 0.9617 0.32954 0.0
H2120 H 0.21185 0.95085 0.32031 0.0
H2121 H 0.22139 0.95378 0.34253 0.0
C2122 C 0.21476 0.01719 0.40446 0.0
C2123 C 0.22801 0.03516 0.39907 0.0
C2124 C 0.2105 -0.00021 0.39854 0.0
C2125 C 0.21967 6e-05 0.38723 0.0
C2126 C 0.23282 0.018 0.3818 0.0
C2127 C 0.23694 0.03541 0.38766 0.0
C2128 C 0.21536 0.98163 0.38098 0.0
C2129 C 0.20887 0.97857 0.36851 0.0
C2130 C 0.21726 0.967 0.38727 0.0
C2131 C 0.2253 0.96985 0.40017 0.0
C2132 C 0.24397 0.98585 0.40314 0.0
C2133 C 0.2514 0.98854 0.41533 0.0
C2134 C 0.24036 0.97524 0.4246 0.0
C2135 C 0.22189 0.9592 0.4217 0.0
C2136 C 0.21437 0.95645 0.40954 0.0
C2137 C 0.20579 0.90119 0.35758 0.0
C2138 C 0.18708 0.8904 0.35188 0.0
C2139 C 0.21166 0.91936 0.36295 0.0
C2140 C 0.19891 0.92705 0.36279 0.0
C2141 C 0.1801 0.91617 0.35728 0.0
C2142 C 0.17429 0.89809 0.3518 0.0
C2143 C 0.20511 0.94624 0.36866 0.0
C2144 C 0.21187 0.94941 0.38107 0.0
C2145 C 0.20396 0.96118 0.36222 0.0
C2146 C 0.19829 0.9593 0.34884 0.0
C2147 C 0.18237 0.96167 0.34503 0.0
C2148 C 0.17708 0.95999 0.33242 0.0
C2149 C 0.18771 0.95611 0.32352 0.0
C2150 C 0.20363 0.95385 0.32722 0.0
C2151 C 0.20893 0.95544 0.33982 0.0
H2152 H 0.18359 0.95481 0.31376 0.0
H2153 H 0.24614 0.97735 0.43403 0.0
H2154 H 0.51149 0.65641 0.25996 0.0
H2155 H 0.53675 0.68649 0.26999 0.0
H2156 H 0.54415 0.65293 0.2989 0.0
H2157 H 0.51864 0.62287 0.28902 0.0
H2158 H 0.54319 0.6821 0.30902 0.0
H2159 H 0.57832 0.67489 0.27485 0.0
H2160 H 0.58449 0.67039 0.25286 0.0
H2161 H 0.58636 0.72374 0.24321 0.0
H2162 H 0.57992 0.72843 0.26511 0.0
H2163 H 0.64966 0.77352 0.31404 0.0
H2164 H 0.62605 0.7426 0.30407 0.0
H2165 H 0.57774 0.75013 0.31643 0.0
H2166 H 0.6011 0.78073 0.32659 0.0
H2167 H 0.60058 0.73309 0.28595 0.0
H2168 H 0.53773 0.70861 0.32188 0.0
H2169 H 0.5333 0.71086 0.34451 0.0
H2170 H 0.59051 0.71741 0.35165 0.0
H2171 H 0.59528 0.71525 0.32908 0.0
C2172 C 0.51861 0.65547 0.26841 0.0
C2173 C 0.5131 0.63728 0.2737 0.0
C2174 C 0.53308 0.67266 0.27412 0.0
C2175 C 0.54257 0.672 0.28513 0.0
C2176 C 0.53704 0.65384 0.29043 0.0
C2177 C 0.52244 0.63667 0.28479 0.0
C2178 C 0.55795 0.69022 0.29128 0.0
C2179 C 0.55573 0.69322 0.30395 0.0
C2180 C 0.57454 0.70466 0.28477 0.0
C2181 C 0.57846 0.70191 0.2716 0.0
C2182 C 0.5799 0.68559 0.26802 0.0
C2183 C 0.58347 0.68301 0.25558 0.0
C2184 C 0.58576 0.69674 0.24664 0.0
C2185 C 0.58455 0.71311 0.25014 0.0
C2186 C 0.58096 0.71574 0.26257 0.0
C2187 C 0.634 0.76857 0.31465 0.0
C2188 C 0.62728 0.77951 0.32123 0.0
C2189 C 0.62052 0.7509 0.30893 0.0
C2190 C 0.60007 0.74386 0.30964 0.0
C2191 C 0.59339 0.755 0.31597 0.0
C2192 C 0.60681 0.77255 0.32177 0.0
C2193 C 0.58571 0.725 0.30365 0.0
C2194 C 0.58805 0.72193 0.291 0.0
C2195 C 0.56949 0.71026 0.31025 0.0
C2196 C 0.56688 0.71187 0.32381 0.0
C2197 C 0.54934 0.71051 0.32829 0.0
C2198 C 0.54678 0.7118 0.3411 0.0
C2199 C 0.5616 0.71424 0.34951 0.0
C2200 C 0.57904 0.71551 0.34512 0.0
C2201 C 0.58172 0.71436 0.33233 0.0
H2202 H 0.55958 0.7152 0.35942 0.0
H2203 H 0.58853 0.69473 0.23701 0.0
H2204 H 0.36818 0.8828 0.29205 0.0
H2205 H 0.33759 0.87776 0.30164 0.0
H2206 H 0.30382 0.8403 0.27091 0.0
H2207 H 0.33438 0.84555 0.26121 0.0
H2208 H 0.29059 0.86347 0.27567 0.0
H2209 H 0.30538 0.82274 0.30053 0.0
H2210 H 0.32522 0.81383 0.31402 0.0
H2211 H 0.32946 0.85502 0.34177 0.0
H2212 H 0.30991 0.86441 0.32836 0.0
H2213 H 0.20341 0.82201 0.32177 0.0
H2214 H 0.2324 0.82229 0.31284 0.0
H2215 H 0.25926 0.88394 0.30634 0.0
H2216 H 0.23057 0.88385 0.31573 0.0
H2217 H 0.27356 0.84485 0.31994 0.0
H2218 H 0.27896 0.88935 0.27557 0.0
H2219 H 0.2568 0.89402 0.26133 0.0
H2220 H 0.20823 0.83839 0.27165 0.0
H2221 H 0.23018 0.83313 0.2857 0.0
C2222 C 0.35421 0.87332 0.28741 0.0
C2223 C 0.35372 0.86459 0.27585 0.0
C2224 C 0.33671 0.87042 0.29291 0.0
C2225 C 0.3183 0.85848 0.28708 0.0
C2226 C 0.3178 0.84963 0.27559 0.0
C2227 C 0.33529 0.85266 0.27004 0.0
C2228 C 0.29963 0.85573 0.29272 0.0
C2229 C 0.28693 0.8594 0.28535 0.0
C2230 C 0.2945 0.84998 0.30529 0.0
C2231 C 0.30637 0.84444 0.31336 0.0
C2232 C 0.31071 0.83004 0.30945 0.0
C2233 C 0.32187 0.82488 0.3171 0.0
C2234 C 0.32865 0.8339 0.32873 0.0
C2235 C 0.32424 0.84807 0.33275 0.0
C2236 C 0.31311 0.85331 0.32513 0.0
C2237 C 0.2157 0.83569 0.31872 0.0
C2238 C 0.21506 0.85304 0.31979 0.0
C2239 C 0.23217 0.8358 0.31354 0.0
C2240 C 0.24795 0.85313 0.30894 0.0
C2241 C 0.24722 0.87042 0.30985 0.0
C2242 C 0.2309 0.87037 0.31521 0.0
C2243 C 0.26505 0.85315 0.30297 0.0
C2244 C 0.27737 0.84896 0.31027 0.0
C2245 C 0.26958 0.85794 0.29026 0.0
C2246 C 0.25621 0.86099 0.28184 0.0
C2247 C 0.26357 0.87809 0.27479 0.0
C2248 C 0.25104 0.88082 0.26672 0.0
C2249 C 0.23111 0.86653 0.26561 0.0
C2250 C 0.22366 0.84948 0.27256 0.0
C2251 C 0.23614 0.84662 0.28058 0.0
H2252 H 0.22147 0.86866 0.25934 0.0
H2253 H 0.33728 0.82987 0.33464 0.0
H2254 H 0.08312 0.44962 0.27494 0.0
H2255 H 0.09279 0.42798 0.28488 0.0
H2256 H 0.13901 0.47671 0.30523 0.0
H2257 H 0.12993 0.49859 0.29495 0.0
H2258 H 0.15249 0.45481 0.29508 0.0
H2259 H 0.09672 0.44338 0.31975 0.0
H2260 H 0.06236 0.43543 0.32359 0.0
H2261 H 0.04074 0.37937 0.30631 0.0
H2262 H 0.07497 0.38709 0.3022 0.0
H2263 H 0.17526 0.39814 0.33522 0.0
H2264 H 0.1647 0.42029 0.32737 0.0
H2265 H 0.11816 0.37339 0.30598 0.0
H2266 H 0.12813 0.35089 0.31417 0.0
H2267 H 0.10504 0.39499 0.3175 0.0
H2268 H 0.16083 0.40702 0.29217 0.0
H2269 H 0.19522 0.4148 0.28862 0.0
H2270 H 0.21679 0.46978 0.30738 0.0
H2271 H 0.18251 0.46221 0.31119 0.0
C2272 C 0.0954 0.45575 0.28149 0.0
C2273 C 0.10578 0.47582 0.28415 0.0
C2274 C 0.10077 0.44333 0.28726 0.0
C2275 C 0.11648 0.45072 0.29589 0.0
C2276 C 0.12679 0.47072 0.29863 0.0
C2277 C 0.12147 0.48317 0.29283 0.0
C2278 C 0.1226 0.43766 0.3017 0.0
C2279 C 0.1422 0.44189 0.30015 0.0
C2280 C 0.10903 0.4206 0.30807 0.0
C2281 C 0.08842 0.41589 0.31057 0.0
C2282 C 0.08464 0.42941 0.31668 0.0
C2283 C 0.06518 0.42494 0.31892 0.0
C2284 C 0.04938 0.40693 0.31517 0.0
C2285 C 0.05299 0.39333 0.3092 0.0
C2286 C 0.07242 0.39774 0.30692 0.0
C2287 C 0.16263 0.39244 0.32897 0.0
C2288 C 0.15243 0.37269 0.32541 0.0
C2289 C 0.15673 0.40518 0.3244 0.0
C2290 C 0.14077 0.3985 0.316 0.0
C2291 C 0.13051 0.3788 0.31246 0.0
C2292 C 0.13631 0.366 0.3171 0.0
C2293 C 0.13487 0.4121 0.31081 0.0
C2294 C 0.11533 0.40796 0.31247 0.0
C2295 C 0.14848 0.42925 0.30454 0.0
C2296 C 0.1691 0.43397 0.30206 0.0
C2297 C 0.17291 0.42072 0.2956 0.0
C2298 C 0.19238 0.4251 0.29354 0.0
C2299 C 0.20818 0.44275 0.2978 0.0
C2300 C 0.20453 0.4561 0.30409 0.0
C2301 C 0.18509 0.45179 0.3062 0.0
H2302 H 0.22324 0.4461 0.29621 0.0
H2303 H 0.03432 0.4035 0.31691 0.0
H2304 H 0.34926 0.45563 0.26882 0.0
H2305 H 0.32001 0.43283 0.28049 0.0
H2306 H 0.32369 0.48032 0.30235 0.0
H2307 H 0.35269 0.50336 0.29052 0.0
H2308 H 0.31827 0.44972 0.31688 0.0
H2309 H 0.28864 0.45942 0.28053 0.0
H2310 H 0.28283 0.46087 0.25803 0.0
H2311 H 0.26468 0.40033 0.25396 0.0
H2312 H 0.27069 0.39858 0.2764 0.0
H2313 H 0.2076 0.38413 0.32995 0.0
H2314 H 0.23854 0.4125 0.32317 0.0
H2315 H 0.26457 0.37616 0.3183 0.0
H2316 H 0.23409 0.34801 0.32562 0.0
H2317 H 0.2544 0.40372 0.29646 0.0
H2318 H 0.29159 0.39708 0.33211 0.0
H2319 H 0.30063 0.39745 0.3542 0.0
H2320 H 0.30547 0.45342 0.35925 0.0
H2321 H 0.2959 0.45307 0.33722 0.0
C2322 C 0.34371 0.46132 0.27597 0.0
C2323 C 0.35337 0.48139 0.27869 0.0
C2324 C 0.327 0.44822 0.28266 0.0
C2325 C 0.31958 0.45489 0.29222 0.0
C2326 C 0.32919 0.47486 0.29502 0.0
C2327 C 0.34584 0.488 0.28828 0.0
C2328 C 0.3021 0.4409 0.29949 0.0
C2329 C 0.30422 0.43983 0.31243 0.0
C2330 C 0.28383 0.42789 0.29367 0.0
C2331 C 0.2803 0.42892 0.28014 0.0
C2332 C 0.28359 0.44646 0.27482 0.0
C2333 C 0.28023 0.44732 0.26208 0.0
C2334 C 0.27343 0.43071 0.25456 0.0
C2335 C 0.26997 0.41319 0.25978 0.0
C2336 C 0.27334 0.41225 0.27252 0.0
C2337 C 0.22021 0.38239 0.32799 0.0
C2338 C 0.21861 0.36395 0.32857 0.0
C2339 C 0.23786 0.39859 0.32409 0.0
C2340 C 0.25401 0.39651 0.32055 0.0
C2341 C 0.25255 0.37822 0.32141 0.0
C2342 C 0.23508 0.36213 0.32547 0.0
C2343 C 0.27077 0.41229 0.31376 0.0
C2344 C 0.26842 0.41374 0.30089 0.0
C2345 C 0.28885 0.42556 0.31963 0.0
C2346 C 0.29251 0.4248 0.33311 0.0
C2347 C 0.294 0.40918 0.33801 0.0
C2348 C 0.29944 0.4095 0.35049 0.0
C2349 C 0.30367 0.42547 0.35812 0.0
C2350 C 0.30223 0.44107 0.35333 0.0
C2351 C 0.29667 0.44076 0.34087 0.0
H2352 H 0.30797 0.42572 0.36777 0.0
H2353 H 0.27082 0.43141 0.2447 0.0
H2354 H 0.51892 0.88339 0.29216 0.0
H2355 H 0.54497 0.87915 0.30187 0.0
H2356 H 0.53986 0.84016 0.27205 0.0
H2357 H 0.51365 0.84415 0.26236 0.0
H2358 H 0.54322 0.82677 0.29503 0.0
H2359 H 0.57667 0.88581 0.27158 0.0
H2360 H 0.58426 0.91862 0.26516 0.0
H2361 H 0.60225 0.93977 0.30262 0.0
H2362 H 0.5945 0.907 0.30931 0.0
H2363 H 0.63037 0.82424 0.31171 0.0
H2364 H 0.60403 0.82619 0.3008 0.0
H2365 H 0.61967 0.87957 0.32079 0.0
H2366 H 0.64863 0.87956 0.32938 0.0
H2367 H 0.60963 0.88453 0.30155 0.0
H2368 H 0.5751 0.82258 0.32496 0.0
H2369 H 0.56791 0.78911 0.32946 0.0
H2370 H 0.55115 0.77245 0.29134 0.0
H2371 H 0.55888 0.80582 0.28641 0.0
C2372 C 0.52318 0.87374 0.28775 0.0
C2373 C 0.51428 0.86418 0.27645 0.0
C2374 C 0.53816 0.87143 0.29326 0.0
C2375 C 0.54449 0.85948 0.28762 0.0
C2376 C 0.53525 0.84949 0.27655 0.0
C2377 C 0.52038 0.8519 0.27098 0.0
C2378 C 0.56109 0.85776 0.29309 0.0
C2379 C 0.55779 0.83936 0.29652 0.0
C2380 C 0.58005 0.87417 0.295 0.0
C2381 C 0.58481 0.89391 0.29097 0.0
C2382 C 0.58209 0.89742 0.27847 0.0
C2383 C 0.58645 0.91602 0.27478 0.0
C2384 C 0.59368 0.93126 0.28348 0.0
C2385 C 0.59662 0.92795 0.2959 0.0
C2386 C 0.59226 0.90937 0.29964 0.0
C2387 C 0.62794 0.83625 0.31383 0.0
C2388 C 0.64079 0.85122 0.32196 0.0
C2389 C 0.61259 0.83724 0.30772 0.0
C2390 C 0.6087 0.85243 0.31037 0.0
C2391 C 0.62185 0.86747 0.3185 0.0
C2392 C 0.63824 0.86731 0.3237 0.0
C2393 C 0.59179 0.85346 0.30434 0.0
C2394 C 0.59504 0.87182 0.30054 0.0
C2395 C 0.57274 0.8369 0.30213 0.0
C2396 C 0.56767 0.81675 0.30532 0.0
C2397 C 0.5699 0.81178 0.31755 0.0
C2398 C 0.56579 0.79286 0.32017 0.0
C2399 C 0.559 0.7787 0.31075 0.0
C2400 C 0.55639 0.78342 0.29864 0.0
C2401 C 0.5607 0.80234 0.29591 0.0
H2402 H 0.55573 0.76407 0.31285 0.0
H2403 H 0.59705 0.94565 0.28061 0.0
H2404 H 0.07447 0.62878 0.27535 0.0
H2405 H 0.08308 0.66042 0.28447 0.0
H2406 H 0.13756 0.66637 0.29888 0.0
H2407 H 0.12902 0.63477 0.28983 0.0
H2408 H 0.12022 0.67752 0.31593 0.0
H2409 H 0.13694 0.68979 0.27249 0.0
H2410 H 0.13073 0.68522 0.24981 0.0
H2411 H 0.08569 0.70096 0.25304 0.0
H2412 H 0.09144 0.70536 0.27579 0.0
H2413 H 0.17561 0.77882 0.32701 0.0
H2414 H 0.16357 0.74607 0.31873 0.0
H2415 H 0.1094 0.7434 0.30679 0.0
H2416 H 0.12129 0.77618 0.31515 0.0
H2417 H 0.12461 0.73012 0.28889 0.0
H2418 H 0.10961 0.71963 0.33247 0.0
H2419 H 0.11703 0.72509 0.355 0.0
H2420 H 0.16001 0.7067 0.35136 0.0
H2421 H 0.15307 0.70142 0.32876 0.0
C2422 C 0.08829 0.63687 0.28045 0.0
C2423 C 0.10111 0.62935 0.28185 0.0
C2424 C 0.09318 0.65491 0.28565 0.0
C2425 C 0.11106 0.66582 0.29223 0.0
C2426 C 0.12367 0.65815 0.29386 0.0
C2427 C 0.11875 0.64009 0.28871 0.0
C2428 C 0.11687 0.68539 0.29723 0.0
C2429 C 0.12136 0.68908 0.31 0.0
C2430 C 0.11793 0.70032 0.28953 0.0
C2431 C 0.11446 0.69769 0.27586 0.0
C2432 C 0.12559 0.69212 0.26838 0.0
C2433 C 0.12218 0.68959 0.25551 0.0
C2434 C 0.10778 0.69274 0.24999 0.0
C2435 C 0.09681 0.69849 0.25733 0.0
C2436 C 0.10014 0.70101 0.27021 0.0
C2437 C 0.16102 0.77118 0.32278 0.0
C2438 C 0.14923 0.77993 0.32196 0.0
C2439 C 0.1542 0.75251 0.31801 0.0
C2440 C 0.13547 0.74223 0.31234 0.0
C2441 C 0.12386 0.75109 0.3112 0.0
C2442 C 0.13067 0.7698 0.31599 0.0
C2443 C 0.12809 0.72226 0.30754 0.0
C2444 C 0.12332 0.71851 0.29483 0.0
C2445 C 0.12686 0.70731 0.31528 0.0
C2446 C 0.1309 0.71024 0.3289 0.0
C2447 C 0.12073 0.71686 0.33646 0.0
C2448 C 0.12483 0.7199 0.34924 0.0
C2449 C 0.13896 0.71622 0.35461 0.0
C2450 C 0.14904 0.70951 0.34719 0.0
C2451 C 0.14501 0.70647 0.3344 0.0
H2452 H 0.14213 0.7186 0.36451 0.0
H2453 H 0.10517 0.69079 0.24003 0.0
H2454 H 0.79468 0.03126 0.40793 0.0
H2455 H 0.76989 0.00081 0.39805 0.0
H2456 H 0.8163 0.99282 0.38259 0.0
H2457 H 0.84117 0.02322 0.39246 0.0
H2458 H 0.78833 0.98536 0.36544 0.0
H2459 H 0.78976 0.96691 0.40789 0.0
H2460 H 0.78786 0.96892 0.43077 0.0
H2461 H 0.72828 0.95792 0.4275 0.0
H2462 H 0.72993 0.95612 0.40457 0.0
H2463 H 0.73397 0.88607 0.3485 0.0
H2464 H 0.75679 0.91714 0.35833 0.0
H2465 H 0.70757 0.922 0.3721 0.0
H2466 H 0.68446 0.89074 0.36222 0.0
H2467 H 0.73574 0.93159 0.38992 0.0
H2468 H 0.73405 0.94891 0.34739 0.0
H2469 H 0.73612 0.94677 0.32454 0.0
H2470 H 0.79629 0.9596 0.32799 0.0
H2471 H 0.79451 0.96156 0.35089 0.0
C2472 C 0.79961 0.02293 0.40252 0.0
C2473 C 0.81992 0.02965 0.40102 0.0
C2474 C 0.78542 0.00554 0.39686 0.0
C2475 C 0.79122 0.99442 0.38968 0.0
C2476 C 0.81147 0.00118 0.38807 0.0
C2477 C 0.82568 0.01859 0.39369 0.0
C2478 C 0.77623 0.9758 0.38376 0.0
C2479 C 0.77697 0.97352 0.37082 0.0
C2480 C 0.76108 0.96053 0.39073 0.0
C2481 C 0.76005 0.96159 0.40451 0.0
C2482 C 0.77631 0.96508 0.41204 0.0
C2483 C 0.77527 0.96616 0.42502 0.0
C2484 C 0.75798 0.96361 0.43058 0.0
C2485 C 0.74168 0.95993 0.42317 0.0
C2486 C 0.74265 0.95887 0.41019 0.0
C2487 C 0.72792 0.8938 0.35348 0.0
C2488 C 0.70735 0.88603 0.35439 0.0
C2489 C 0.74103 0.91158 0.35913 0.0
C2490 C 0.7339 0.92206 0.36579 0.0
C2491 C 0.71338 0.91419 0.36695 0.0
C2492 C 0.70021 0.89635 0.36128 0.0
C2493 C 0.74796 0.94111 0.37162 0.0
C2494 C 0.74704 0.94347 0.38454 0.0
C2495 C 0.76298 0.95645 0.36464 0.0
C2496 C 0.7641 0.95527 0.35087 0.0
C2497 C 0.74768 0.95115 0.34329 0.0
C2498 C 0.74882 0.95001 0.33032 0.0
C2499 C 0.76634 0.9531 0.32482 0.0
C2500 C 0.78275 0.95727 0.33226 0.0
C2501 C 0.78169 0.95842 0.34524 0.0
H2502 H 0.76719 0.95221 0.31478 0.0
H2503 H 0.7572 0.96444 0.44063 0.0
H2504 H 0.98703 0.8208 0.38886 0.0
H2505 H 0.01736 0.826 0.37875 0.0
H2506 H 0.00443 0.76862 0.3898 0.0
H2507 H 0.97422 0.76341 0.39997 0.0
H2508 H 0.04151 0.79393 0.39479 0.0
H2509 H 0.99881 0.78028 0.3592 0.0
H2510 H 0.97647 0.78463 0.34495 0.0
H2511 H 0.02257 0.84291 0.33719 0.0
H2512 H 0.04511 0.83902 0.35155 0.0
H2513 H 0.10887 0.78286 0.35556 0.0
H2514 H 0.07808 0.77911 0.3642 0.0
H2515 H 0.10003 0.84045 0.35927 0.0
H2516 H 0.13112 0.84439 0.35115 0.0
H2517 H 0.05922 0.81466 0.35091 0.0
H2518 H 0.10165 0.82853 0.38621 0.0
H2519 H 0.12379 0.82536 0.40123 0.0
H2520 H 0.07816 0.7672 0.40971 0.0
H2521 H 0.05583 0.76985 0.3945 0.0
C2522 C 0.99054 0.8092 0.38901 0.0
C2523 C 0.97821 0.7917 0.39526 0.0
C2524 C 0.00789 0.81219 0.38321 0.0
C2525 C 0.01316 0.79764 0.3834 0.0
C2526 C 1.00075 0.7801 0.38954 0.0
C2527 C 0.9835 0.77716 0.3954 0.0
C2528 C 0.03194 0.80088 0.37768 0.0
C2529 C 0.04518 0.79813 0.38513 0.0
C2530 C 0.03714 0.80705 0.36518 0.0
C2531 C 0.02357 0.80944 0.35658 0.0
C2532 C 0.00413 0.7941 0.35456 0.0
C2533 C 0.99144 0.79647 0.34644 0.0
C2534 C 0.99807 0.81406 0.34021 0.0
C2535 C 0.01743 0.82931 0.34205 0.0
C2536 C 0.03017 0.82703 0.35018 0.0
C2537 C 0.10702 0.79549 0.35623 0.0
C2538 C 0.12213 0.8138 0.35234 0.0
C2539 C 0.08948 0.79335 0.36118 0.0
C2540 C 0.08676 0.80949 0.36232 0.0
C2541 C 0.10178 0.82779 0.35838 0.0
C2542 C 0.11947 0.82999 0.35365 0.0
C2543 C 0.06842 0.80729 0.36797 0.0
C2544 C 0.05539 0.81033 0.36054 0.0
C2545 C 0.06337 0.80138 0.38048 0.0
C2546 C 0.07713 0.79932 0.3891 0.0
C2547 C 0.09644 0.81493 0.3911 0.0
C2548 C 0.109 0.81326 0.3997 0.0
C2549 C 0.10237 0.79611 0.40646 0.0
C2550 C 0.08326 0.78048 0.40448 0.0
C2551 C 0.07065 0.78205 0.39586 0.0
H2552 H 0.11195 0.79498 0.4133 0.0
H2553 H 0.98823 0.81586 0.33392 0.0
H2554 H 0.25361 0.21698 0.40379 0.0
H2555 H 0.24423 0.2388 0.39371 0.0
H2556 H 0.19065 0.18927 0.37978 0.0
H2557 H 0.19985 0.16735 0.3899 0.0
H2558 H 0.20875 0.21695 0.36199 0.0
H2559 H 0.18908 0.21427 0.40473 0.0
H2560 H 0.19386 0.2168 0.42756 0.0
H2561 H 0.23845 0.27698 0.42426 0.0
H2562 H 0.23413 0.27474 0.40138 0.0
H2563 H 0.15851 0.26759 0.34515 0.0
H2564 H 0.16807 0.24527 0.35417 0.0
H2565 H 0.21982 0.29388 0.37074 0.0
H2566 H 0.21013 0.31623 0.36202 0.0
H2567 H 0.20228 0.26617 0.38711 0.0
H2568 H 0.22275 0.26901 0.3445 0.0
H2569 H 0.21838 0.26676 0.32163 0.0
H2570 H 0.17273 0.20693 0.32461 0.0
H2571 H 0.17676 0.20886 0.34752 0.0
C2572 C 0.23977 0.21074 0.39865 0.0
C2573 C 0.22743 0.19045 0.39768 0.0
C2574 C 0.23446 0.22321 0.39287 0.0
C2575 C 0.21665 0.21563 0.38612 0.0
C2576 C 0.20447 0.1954 0.38494 0.0
C2577 C 0.20978 0.18291 0.3907 0.0
C2578 C 0.21059 0.2288 0.38041 0.0
C2579 C 0.2071 0.22757 0.36749 0.0
C2580 C 0.20884 0.24288 0.38757 0.0
C2581 C 0.21141 0.24428 0.40133 0.0
C2582 C 0.20001 0.228 0.40886 0.0
C2583 C 0.20262 0.22939 0.42181 0.0
C2584 C 0.21648 0.24702 0.42736 0.0
C2585 C 0.22773 0.26332 0.41995 0.0
C2586 C 0.2252 0.262 0.40699 0.0
C2587 C 0.172 0.27354 0.35064 0.0
C2588 C 0.1836 0.29368 0.35284 0.0
C2589 C 0.17748 0.26076 0.35576 0.0
C2590 C 0.1948 0.26793 0.36301 0.0
C2591 C 0.2064 0.28803 0.36518 0.0
C2592 C 0.20084 0.30079 0.36018 0.0
C2593 C 0.20059 0.25448 0.36865 0.0
C2594 C 0.20397 0.2556 0.38158 0.0
C2595 C 0.20231 0.24036 0.36149 0.0
C2596 C 0.19996 0.23912 0.34772 0.0
C2597 C 0.21172 0.2554 0.34028 0.0
C2598 C 0.20934 0.25417 0.32731 0.0
C2599 C 0.19528 0.23671 0.32167 0.0
C2600 C 0.18362 0.22043 0.32899 0.0
C2601 C 0.18598 0.22157 0.34196 0.0
H2602 H 0.19341 0.23581 0.31164 0.0
H2603 H 0.21848 0.24807 0.43739 0.0
H2604 H 0.66843 0.52452 0.74478 0.0
H2605 H 0.6971 0.54822 0.73294 0.0
H2606 H 0.6588 0.54225 0.70204 0.0
H2607 H 0.63015 0.51852 0.71379 0.0
H2608 H 0.6907 0.54253 0.69369 0.0
H2609 H 0.67759 0.58168 0.72225 0.0
H2610 H 0.67252 0.59242 0.74285 0.0
H2611 H 0.73081 0.6059 0.75437 0.0
H2612 H 0.73612 0.59499 0.73388 0.0
H2613 H 0.76664 0.65214 0.68097 0.0
H2614 H 0.73557 0.62437 0.68789 0.0
H2615 H 0.76208 0.588 0.68659 0.0
H2616 H 0.79332 0.61589 0.6797 0.0
H2617 H 0.73623 0.60847 0.71072 0.0
H2618 H 0.73252 0.54849 0.68266 0.0
H2619 H 0.73115 0.53551 0.66143 0.0
H2620 H 0.70107 0.56482 0.64803 0.0
H2621 H 0.70273 0.57829 0.66912 0.0
C2622 C 0.66611 0.52837 0.73549 0.0
C2623 C 0.647 0.51966 0.73023 0.0
C2624 C 0.68252 0.54189 0.72873 0.0
C2625 C 0.68011 0.54715 0.71662 0.0
C2626 C 0.66106 0.53837 0.71133 0.0
C2627 C 0.64468 0.52478 0.71806 0.0
C2628 C 0.69735 0.56187 0.70946 0.0
C2629 C 0.70068 0.55693 0.69747 0.0
C2630 C 0.71032 0.58075 0.71427 0.0
C2631 C 0.70716 0.58732 0.72658 0.0
C2632 C 0.68926 0.58679 0.72921 0.0
C2633 C 0.68636 0.59293 0.74086 0.0
C2634 C 0.70131 0.59979 0.74993 0.0
C2635 C 0.71922 0.60056 0.74735 0.0
C2636 C 0.72219 0.59441 0.73572 0.0
C2637 C 0.76563 0.63805 0.68175 0.0
C2638 C 0.78234 0.63615 0.67976 0.0
C2639 C 0.74788 0.62221 0.68571 0.0
C2640 C 0.7465 0.60412 0.6878 0.0
C2641 C 0.76273 0.60176 0.6849 0.0
C2642 C 0.78059 0.6177 0.68094 0.0
C2643 C 0.72951 0.58911 0.69497 0.0
C2644 C 0.72632 0.59401 0.70702 0.0
C2645 C 0.71651 0.57033 0.69018 0.0
C2646 C 0.71799 0.56455 0.67733 0.0
C2647 C 0.72595 0.5524 0.6751 0.0
C2648 C 0.72503 0.54489 0.66313 0.0
C2649 C 0.71593 0.54925 0.6534 0.0
C2650 C 0.70806 0.56142 0.65558 0.0
C2651 C 0.7092 0.56917 0.66749 0.0
H2652 H 0.71506 0.54329 0.64417 0.0
H2653 H 0.69903 0.60454 0.75894 0.0
H2654 H 0.46306 0.09984 0.73345 0.0
H2655 H 0.43802 0.10471 0.72294 0.0
H2656 H 0.48156 0.16477 0.71642 0.0
H2657 H 0.5067 0.16004 0.72707 0.0
H2658 H 0.44629 0.16041 0.72529 0.0
H2659 H 0.46728 0.13332 0.6928 0.0
H2660 H 0.47494 0.1096 0.68315 0.0
H2661 H 0.41467 0.06423 0.68782 0.0
H2662 H 0.40671 0.08763 0.69767 0.0
H2663 H 0.38321 0.17687 0.68607 0.0
H2664 H 0.41139 0.17443 0.69357 0.0
H2665 H 0.37371 0.11237 0.69766 0.0
H2666 H 0.34566 0.11471 0.68937 0.0
H2667 H 0.40802 0.11961 0.689 0.0
H2668 H 0.38741 0.14584 0.72284 0.0
H2669 H 0.37921 0.16941 0.73216 0.0
H2670 H 0.43813 0.21597 0.72508 0.0
H2671 H 0.44661 0.19269 0.71558 0.0
C2672 C 0.4673 0.11411 0.72983 0.0
C2673 C 0.48689 0.12955 0.73109 0.0
C2674 C 0.453 0.11684 0.72374 0.0
C2675 C 0.45794 0.13507 0.7188 0.0
C2676 C 0.47743 0.15057 0.72013 0.0
C2677 C 0.49181 0.1478 0.72613 0.0
C2678 C 0.44264 0.13791 0.7124 0.0
C2679 C 0.43811 0.15169 0.71725 0.0
C2680 C 0.43172 0.1263 0.70203 0.0
C2681 C 0.43645 0.1122 0.69608 0.0
C2682 C 0.4557 0.11825 0.69187 0.0
C2683 C 0.46009 0.10487 0.68634 0.0
C2684 C 0.44532 0.08541 0.6849 0.0
C2685 C 0.42611 0.0793 0.68895 0.0
C2686 C 0.42164 0.09262 0.6945 0.0
C2687 C 0.38102 0.16265 0.68824 0.0
C2688 C 0.36237 0.14589 0.68676 0.0
C2689 C 0.39711 0.1613 0.69274 0.0
C2690 C 0.39469 0.14324 0.69637 0.0
C2691 C 0.37602 0.12647 0.69489 0.0
C2692 C 0.35999 0.1278 0.6902 0.0
C2693 C 0.41137 0.14184 0.70204 0.0
C2694 C 0.41621 0.12837 0.69703 0.0
C2695 C 0.42248 0.15364 0.71232 0.0
C2696 C 0.4176 0.16755 0.71842 0.0
C2697 C 0.3986 0.16111 0.72325 0.0
C2698 C 0.3939 0.17442 0.72855 0.0
C2699 C 0.40813 0.19418 0.72919 0.0
C2700 C 0.42712 0.20066 0.72457 0.0
C2701 C 0.4319 0.18741 0.71924 0.0
H2702 H 0.40445 0.20447 0.73327 0.0
H2703 H 0.44874 0.07507 0.68061 0.0
H2704 H 0.88266 0.35092 0.75107 0.0
H2705 H 0.87552 0.3203 0.74111 0.0
H2706 H 0.88436 0.34681 0.70492 0.0
H2707 H 0.89192 0.37765 0.71481 0.0
H2708 H 0.85096 0.30998 0.70581 0.0
H2709 H 0.91991 0.34097 0.71704 0.0
H2710 H 0.94863 0.35705 0.7313 0.0
H2711 H 0.92394 0.30614 0.75427 0.0
H2712 H 0.89492 0.28985 0.74023 0.0
H2713 H 0.85787 0.23875 0.67041 0.0
H2714 H 0.86605 0.26963 0.68037 0.0
H2715 H 0.86115 0.24405 0.71657 0.0
H2716 H 0.85303 0.21307 0.70654 0.0
H2717 H 0.89226 0.28033 0.71576 0.0
H2718 H 0.8235 0.249 0.70462 0.0
H2719 H 0.79521 0.23226 0.69008 0.0
H2720 H 0.81913 0.28314 0.66713 0.0
H2721 H 0.84777 0.30007 0.68141 0.0
C2722 C 0.88326 0.35031 0.741 0.0
C2723 C 0.888 0.36678 0.73374 0.0
C2724 C 0.87908 0.33278 0.73532 0.0
C2725 C 0.87958 0.33138 0.72229 0.0
C2726 C 0.88386 0.34762 0.71499 0.0
C2727 C 0.88812 0.3652 0.72066 0.0
C2728 C 0.87597 0.31303 0.71631 0.0
C2729 C 0.86011 0.30359 0.70787 0.0
C2730 C 0.88768 0.30454 0.71922 0.0
C2731 C 0.90515 0.31427 0.72765 0.0
C2732 C 0.92053 0.33326 0.72519 0.0
C2733 C 0.93687 0.3424 0.73322 0.0
C2734 C 0.93809 0.33264 0.7437 0.0
C2735 C 0.92297 0.31369 0.74615 0.0
C2736 C 0.90658 0.3045 0.73816 0.0
C2737 C 0.8583 0.23965 0.68046 0.0
C2738 C 0.85435 0.22346 0.6877 0.0
C2739 C 0.86312 0.25733 0.68616 0.0
C2740 C 0.86377 0.259 0.69922 0.0
C2741 C 0.86061 0.24303 0.70648 0.0
C2742 C 0.85598 0.22538 0.70075 0.0
C2743 C 0.86725 0.27726 0.70527 0.0
C2744 C 0.88307 0.28668 0.71373 0.0
C2745 C 0.85543 0.28567 0.70241 0.0
C2746 C 0.83786 0.27577 0.69405 0.0
C2747 C 0.82276 0.2566 0.69645 0.0
C2748 C 0.80667 0.24707 0.68825 0.0
C2749 C 0.80538 0.25664 0.67769 0.0
C2750 C 0.82015 0.27576 0.67532 0.0
C2751 C 0.83631 0.28534 0.68347 0.0
H2752 H 0.79292 0.24924 0.67136 0.0
H2753 H 0.95076 0.33974 0.74991 0.0
H2754 H 0.18796 0.98717 0.59159 0.0
H2755 H 0.21286 0.01717 0.60179 0.0
H2756 H 0.19672 0.98901 0.63756 0.0
H2757 H 0.1721 0.95872 0.62742 0.0
H2758 H 0.20121 0.02645 0.6377 0.0
H2759 H 0.23711 0.99482 0.62425 0.0
H2760 H 0.24824 0.97907 0.60895 0.0
H2761 H 0.27478 0.03104 0.58697 0.0
H2762 H 0.26356 0.04702 0.60206 0.0
H2763 H 0.28263 0.09562 0.67307 0.0
H2764 H 0.25816 0.06544 0.66288 0.0
H2765 H 0.27955 0.09152 0.62688 0.0
H2766 H 0.30424 0.12176 0.63718 0.0
H2767 H 0.27205 0.05523 0.62666 0.0
H2768 H 0.23707 0.08738 0.6396 0.0
H2769 H 0.22647 0.10399 0.65459 0.0
H2770 H 0.19807 0.05231 0.67677 0.0
H2771 H 0.20882 0.03548 0.66203 0.0
C2772 C 0.18981 0.98724 0.60162 0.0
C2773 C 0.17809 0.97043 0.60867 0.0
C2774 C 0.20398 0.00445 0.60743 0.0
C2775 C 0.20672 0.00525 0.62041 0.0
C2776 C 0.19479 0.98869 0.62753 0.0
C2777 C 0.18067 0.97141 0.62171 0.0
C2778 C 0.2223 0.02328 0.62652 0.0
C2779 C 0.21673 0.03264 0.63541 0.0
C2780 C 0.24247 0.03159 0.62326 0.0
C2781 C 0.24932 0.02204 0.61422 0.0
C2782 C 0.24518 0.00283 0.6161 0.0
C2783 C 0.25153 0.99388 0.60748 0.0
C2784 C 0.26217 0.00403 0.59698 0.0
C2785 C 0.26652 0.02318 0.5951 0.0
C2786 C 0.26018 0.0322 0.60369 0.0
C2787 C 0.2819 0.09499 0.66302 0.0
C2788 C 0.29491 0.11112 0.65591 0.0
C2789 C 0.26801 0.07771 0.65718 0.0
C2790 C 0.26668 0.07636 0.6441 0.0
C2791 C 0.28021 0.09226 0.63698 0.0
C2792 C 0.29428 0.1095 0.64285 0.0
C2793 C 0.25101 0.05845 0.63789 0.0
C2794 C 0.25654 0.0491 0.62895 0.0
C2795 C 0.23078 0.05028 0.64101 0.0
C2796 C 0.22387 0.0602 0.64974 0.0
C2797 C 0.22864 0.07958 0.6477 0.0
C2798 C 0.22261 0.08904 0.65615 0.0
C2799 C 0.21159 0.0792 0.66661 0.0
C2800 C 0.20659 0.05989 0.66865 0.0
C2801 C 0.21264 0.05038 0.66025 0.0
H2802 H 0.20691 0.08654 0.67314 0.0
H2803 H 0.26707 0.99707 0.59031 0.0
H2804 H 0.01444 0.17417 0.61903 0.0
H2805 H 0.98537 0.17007 0.63032 0.0
H2806 H 0.99934 0.22795 0.61981 0.0
H2807 H 0.02858 0.23228 0.60872 0.0
H2808 H 0.98996 0.22125 0.64432 0.0
H2809 H 0.96237 0.1884 0.60527 0.0
H2810 H 0.9557 0.16459 0.58841 0.0
H2811 H 0.92749 0.11773 0.61447 0.0
H2812 H 0.93424 0.1413 0.63153 0.0
H2813 H 0.90015 0.21911 0.65716 0.0
H2814 H 0.93081 0.22186 0.64958 0.0
H2815 H 0.90722 0.16041 0.65562 0.0
H2816 H 0.87588 0.15744 0.66223 0.0
H2817 H 0.92217 0.16777 0.6344 0.0
H2818 H 0.9524 0.19988 0.67364 0.0
H2819 H 0.96067 0.22332 0.69108 0.0
H2820 H 0.98416 0.27062 0.66515 0.0
H2821 H 0.97623 0.24744 0.64764 0.0
C2822 C 0.01138 0.18606 0.61918 0.0
C2823 C 0.02382 0.20354 0.61294 0.0
C2824 C 0.99467 0.18363 0.62555 0.0
C2825 C 0.99006 0.19864 0.62582 0.0
C2826 C 0.00255 0.21615 0.6197 0.0
C2827 C 0.01919 0.21854 0.61328 0.0
C2828 C 0.97238 0.19625 0.6326 0.0
C2829 C 0.9751 0.20965 0.64208 0.0
C2830 C 0.95305 0.18081 0.62995 0.0
C2831 C 0.94901 0.16663 0.6197 0.0
C2832 C 0.95491 0.17303 0.60743 0.0
C2833 C 0.95108 0.15957 0.59783 0.0
C2834 C 0.94124 0.13966 0.60037 0.0
C2835 C 0.93515 0.13316 0.61252 0.0
C2836 C 0.93896 0.14656 0.62216 0.0
C2837 C 0.90168 0.20626 0.65711 0.0
C2838 C 0.88575 0.18815 0.66058 0.0
C2839 C 0.91936 0.20788 0.65289 0.0
C2840 C 0.92171 0.19144 0.65222 0.0
C2841 C 0.90595 0.17338 0.65608 0.0
C2842 C 0.88806 0.1717 0.66003 0.0
C2843 C 0.93964 0.19275 0.64625 0.0
C2844 C 0.937 0.17923 0.63682 0.0
C2845 C 0.9591 0.208 0.64899 0.0
C2846 C 0.96343 0.22194 0.65939 0.0
C2847 C 0.9591 0.21527 0.67171 0.0
C2848 C 0.96385 0.2285 0.68158 0.0
C2849 C 0.97276 0.24842 0.67921 0.0
C2850 C 0.97717 0.25518 0.66697 0.0
C2851 C 0.97266 0.24201 0.65708 0.0
H2852 H 0.97635 0.25863 0.68686 0.0
H2853 H 0.93828 0.12926 0.59293 0.0
H2854 H 0.75155 0.78449 0.60453 0.0
H2855 H 0.76128 0.76297 0.61451 0.0
H2856 H 0.80662 0.81162 0.63541 0.0
H2857 H 0.79769 0.83345 0.62495 0.0
H2858 H 0.82084 0.79024 0.62654 0.0
H2859 H 0.76291 0.77739 0.64909 0.0
H2860 H 0.72821 0.76903 0.65191 0.0
H2861 H 0.7083 0.71357 0.63417 0.0
H2862 H 0.7429 0.7217 0.63109 0.0
H2863 H 0.8403 0.73235 0.66789 0.0
H2864 H 0.83023 0.75462 0.65957 0.0
H2865 H 0.78647 0.70856 0.63624 0.0
H2866 H 0.7959 0.68591 0.64489 0.0
H2867 H 0.77178 0.72933 0.64728 0.0
H2868 H 0.83074 0.74348 0.62436 0.0
H2869 H 0.86565 0.75185 0.62286 0.0
H2870 H 0.88381 0.80541 0.64269 0.0
H2871 H 0.84897 0.79725 0.64443 0.0
C2872 C 0.7637 0.79067 0.61117 0.0
C2873 C 0.77383 0.81072 0.61393 0.0
C2874 C 0.76909 0.77829 0.61698 0.0
C2875 C 0.7845 0.78564 0.62584 0.0
C2876 C 0.79463 0.80562 0.62864 0.0
C2877 C 0.78936 0.81805 0.62275 0.0
C2878 C 0.79033 0.77252 0.63194 0.0
C2879 C 0.81016 0.77707 0.63123 0.0
C2880 C 0.77635 0.75519 0.63791 0.0
C2881 C 0.75551 0.75024 0.63976 0.0
C2882 C 0.75113 0.76347 0.6457 0.0
C2883 C 0.73148 0.75876 0.64736 0.0
C2884 C 0.71606 0.7408 0.64319 0.0
C2885 C 0.72026 0.72749 0.63738 0.0
C2886 C 0.73989 0.73213 0.63569 0.0
C2887 C 0.82838 0.72685 0.6611 0.0
C2888 C 0.8188 0.70729 0.65713 0.0
C2889 C 0.82277 0.73967 0.65627 0.0
C2890 C 0.80774 0.73328 0.6472 0.0
C2891 C 0.7981 0.71377 0.64324 0.0
C2892 C 0.8036 0.70088 0.64815 0.0
C2893 C 0.80217 0.74697 0.64175 0.0
C2894 C 0.78243 0.74253 0.6426 0.0
C2895 C 0.81624 0.76447 0.63601 0.0
C2896 C 0.83724 0.76969 0.6346 0.0
C2897 C 0.84218 0.75702 0.62843 0.0
C2898 C 0.86195 0.76172 0.62754 0.0
C2899 C 0.87693 0.77914 0.6327 0.0
C2900 C 0.87218 0.79193 0.6387 0.0
C2901 C 0.85243 0.78729 0.63962 0.0
H2902 H 0.89222 0.78274 0.63202 0.0
H2903 H 0.70085 0.73718 0.64449 0.0
H2904 H 0.03592 0.80242 0.62186 0.0
H2905 H 0.00628 0.77896 0.63314 0.0
H2906 H 0.97101 0.79655 0.61179 0.0
H2907 H 1.0006 0.81983 0.6003 0.0
H2908 H 0.96557 0.7943 0.63929 0.0
H2909 H 0.96566 0.75664 0.60385 0.0
H2910 H 0.98051 0.74328 0.58944 0.0
H2911 H 0.99084 0.71448 0.61992 0.0
H2912 H 0.9763 0.72792 0.63455 0.0
H2913 H 0.87074 0.71667 0.65753 0.0
H2914 H 0.90056 0.74358 0.6487 0.0
H2915 H 0.93285 0.71395 0.65737 0.0
H2916 H 0.90246 0.68629 0.66517 0.0
H2917 H 0.93956 0.72326 0.63541 0.0
H2918 H 0.9492 0.76671 0.67101 0.0
H2919 H 0.93976 0.78331 0.68671 0.0
H2920 H 0.91301 0.80047 0.65808 0.0
H2921 H 0.92354 0.78499 0.64211 0.0
C2922 C 0.02184 0.80127 0.61959 0.0
C2923 C 0.0205 0.81288 0.61021 0.0
C2924 C 0.00495 0.78787 0.626 0.0
C2925 C 0.9865 0.78605 0.62326 0.0
C2926 C 0.98514 0.79777 0.61401 0.0
C2927 C 0.00198 0.81094 0.60743 0.0
C2928 C 0.96866 0.77181 0.63009 0.0
C2929 C 0.95967 0.77872 0.63836 0.0
C2930 C 0.96139 0.75159 0.6291 0.0
C2931 C 0.97007 0.74345 0.62031 0.0
C2932 C 0.97126 0.74761 0.6075 0.0
C2933 C 0.97959 0.73999 0.59929 0.0
C2934 C 0.98666 0.72808 0.60377 0.0
C2935 C 0.98538 0.72373 0.61647 0.0
C2936 C 0.97708 0.73133 0.62472 0.0
C2937 C 0.88438 0.71624 0.65792 0.0
C2938 C 0.88441 0.69952 0.66211 0.0
C2939 C 0.90156 0.73174 0.65291 0.0
C2940 C 0.91922 0.73104 0.65236 0.0
C2941 C 0.91947 0.71488 0.65752 0.0
C2942 C 0.90217 0.69914 0.66209 0.0
C2943 C 0.93655 0.74562 0.64505 0.0
C2944 C 0.94539 0.73879 0.63651 0.0
C2945 C 0.94393 0.76593 0.64596 0.0
C2946 C 0.93683 0.77447 0.65546 0.0
C2947 C 0.9412 0.77393 0.66811 0.0
C2948 C 0.93579 0.78326 0.67703 0.0
C2949 C 0.92546 0.79266 0.67344 0.0
C2950 C 0.92091 0.7931 0.66086 0.0
C2951 C 0.92682 0.78428 0.65185 0.0
H2952 H 0.92112 0.79971 0.6804 0.0
H2953 H 0.9931 0.72219 0.5974 0.0
H2954 H 0.19205 0.19287 0.59384 0.0
H2955 H 0.21796 0.18906 0.60399 0.0
H2956 H 0.20272 0.2036 0.63952 0.0
H2957 H 0.17737 0.2083 0.62935 0.0
H2958 H 0.24116 0.22239 0.63703 0.0
H2959 H 0.18993 0.15609 0.63154 0.0
H2960 H 0.16505 0.12721 0.61989 0.0
H2961 H 0.21064 0.12905 0.59665 0.0
H2962 H 0.23577 0.15812 0.60806 0.0
H2963 H 0.2858 0.15606 0.65901 0.0
H2964 H 0.25831 0.15996 0.65175 0.0
H2965 H 0.29981 0.21913 0.64123 0.0
H2966 H 0.32671 0.21597 0.65021 0.0
H2967 H 0.24693 0.1633 0.63186 0.0
H2968 H 0.28385 0.2455 0.63448 0.0
H2969 H 0.30555 0.27371 0.64791 0.0
H2970 H 0.28314 0.238 0.68044 0.0
H2971 H 0.26144 0.20959 0.66708 0.0
C2972 C 0.19427 0.19539 0.6038 0.0
C2973 C 0.18258 0.20093 0.61075 0.0
C2974 C 0.20897 0.19297 0.60963 0.0
C2975 C 0.2122 0.19583 0.62256 0.0
C2976 C 0.2005 0.20126 0.62954 0.0
C2977 C 0.18585 0.20376 0.62371 0.0
C2978 C 0.22818 0.19379 0.62877 0.0
C2979 C 0.24235 0.2094 0.63597 0.0
C2980 C 0.22977 0.17686 0.62747 0.0
C2981 C 0.2147 0.15939 0.62058 0.0
C2982 C 0.19463 0.15043 0.62388 0.0
C2983 C 0.18048 0.13401 0.61733 0.0
C2984 C 0.18625 0.12633 0.60752 0.0
C2985 C 0.20619 0.13503 0.60425 0.0
C2986 C 0.22039 0.15147 0.61076 0.0
C2987 C 0.28886 0.17016 0.65572 0.0
C2988 C 0.30828 0.18599 0.65579 0.0
C2989 C 0.27316 0.17234 0.6513 0.0
C2990 C 0.2766 0.1901 0.64618 0.0
C2991 C 0.29624 0.20562 0.64574 0.0
C2992 C 0.31178 0.2037 0.6507 0.0
C2993 C 0.25992 0.1918 0.64048 0.0
C2994 C 0.2457 0.17622 0.63316 0.0
C2995 C 0.25801 0.2086 0.64189 0.0
C2996 C 0.27146 0.22539 0.64985 0.0
C2997 C 0.28371 0.24368 0.6445 0.0
C2998 C 0.29601 0.25968 0.65207 0.0
C2999 C 0.29589 0.25759 0.66501 0.0
C3000 C 0.28344 0.23952 0.6704 0.0
C3001 C 0.27128 0.22344 0.66284 0.0
H3002 H 0.30533 0.27001 0.67088 0.0
H3003 H 0.17528 0.11361 0.60246 0.0
H3004 H 0.80553 0.97318 0.61835 0.0
H3005 H 0.81437 0.00449 0.62803 0.0
H3006 H 0.76043 -3e-05 0.6138 0.0
H3007 H 0.75146 0.9686 0.60412 0.0
H3008 H 0.79157 0.03576 0.61024 0.0
H3009 H 0.76453 0.99129 0.64424 0.0
H3010 H 0.76107 0.96536 0.65837 0.0
H3011 H 0.82129 0.00116 0.6706 0.0
H3012 H 0.8252 0.02722 0.6564 0.0
H3013 H 0.79411 0.11139 0.64754 0.0
H3014 H 0.78505 0.08044 0.63733 0.0
H3015 H 0.83734 0.08259 0.65265 0.0
H3016 H 0.8463 0.11335 0.66311 0.0
H3017 H 0.80657 0.04782 0.6555 0.0
H3018 H 0.83309 0.09279 0.62126 0.0
H3019 H 0.836 0.11792 0.60657 0.0
H3020 H 0.77585 0.08081 0.59463 0.0
H3021 H 0.77249 0.05558 0.60935 0.0
C3022 C 0.79546 0.97876 0.61739 0.0
C3023 C 0.77776 0.96839 0.61052 0.0
C3024 C 0.80054 0.99666 0.6229 0.0
C3025 C 0.78795 0.00444 0.62174 0.0
C3026 C 0.77036 0.99422 0.6148 0.0
C3027 C 0.76529 0.97634 0.60925 0.0
C3028 C 0.79321 0.02333 0.62769 0.0
C3029 C 0.7946 0.03837 0.62016 0.0
C3030 C 0.79754 0.02676 0.64059 0.0
C3031 C 0.79522 0.01113 0.64916 0.0
C3032 C 0.77709 0.99357 0.64987 0.0
C3033 C 0.77503 0.97886 0.6579 0.0
C3034 C 0.79097 0.98159 0.66535 0.0
C3035 C 0.80897 0.99906 0.66481 0.0
C3036 C 0.81111 0.01381 0.65678 0.0
C3037 C 0.80372 0.10531 0.64872 0.0
C3038 C 0.82089 0.1148 0.65618 0.0
C3039 C 0.79858 0.08767 0.64281 0.0
C3040 C 0.81066 0.07933 0.64408 0.0
C3041 C 0.82781 0.08877 0.65153 0.0
C3042 C 0.83288 0.10634 0.65752 0.0
C3043 C 0.80509 0.0604 0.63804 0.0
C3044 C 0.80359 0.04529 0.64556 0.0
C3045 C 0.80057 0.05691 0.62513 0.0
C3046 C 0.80249 0.07235 0.6165 0.0
C3047 C 0.82042 0.09007 0.6156 0.0
C3048 C 0.82216 0.10432 0.60723 0.0
C3049 C 0.80611 0.10096 0.59967 0.0
C3050 C 0.78827 0.08339 0.60048 0.0
C3051 C 0.78645 0.06911 0.60883 0.0
H3052 H 0.80747 0.11191 0.59314 0.0
H3053 H 0.78935 0.97018 0.67157 0.0
H3054 H 0.49076 0.34259 0.74897 0.0
H3055 H 0.46614 0.31222 0.73892 0.0
H3056 H 0.46045 0.34483 0.70868 0.0
H3057 H 0.48526 0.37523 0.71862 0.0
H3058 H 0.42863 0.29749 0.73311 0.0
H3059 H 0.45086 0.31929 0.68166 0.0
H3060 H 0.48062 0.34081 0.6695 0.0
H3061 H 0.51753 0.3376 0.69811 0.0
H3062 H 0.488 0.31587 0.71036 0.0
H3063 H 0.35391 0.22668 0.69312 0.0
H3064 H 0.37798 0.25728 0.70327 0.0
H3065 H 0.42512 0.2464 0.69327 0.0
H3066 H 0.40137 0.21625 0.68287 0.0
H3067 H 0.43656 0.28251 0.68924 0.0
H3068 H 0.40517 0.23875 0.72336 0.0
H3069 H 0.37697 0.21564 0.73613 0.0
H3070 H 0.36163 0.25969 0.7435 0.0
H3071 H 0.38952 0.28296 0.73062 0.0
C3072 C 0.48419 0.34328 0.7402 0.0
C3073 C 0.49002 0.36129 0.73455 0.0
C3074 C 0.47012 0.32592 0.73447 0.0
C3075 C 0.46157 0.3262 0.72298 0.0
C3076 C 0.46711 0.3442 0.71742 0.0
C3077 C 0.4813 0.36157 0.7231 0.0
C3078 C 0.44699 0.30766 0.71679 0.0
C3079 C 0.43035 0.29422 0.72352 0.0
C3080 C 0.44936 0.30322 0.70433 0.0
C3081 C 0.46722 0.31613 0.69698 0.0
C3082 C 0.46533 0.32313 0.68533 0.0
C3083 C 0.48215 0.33537 0.67843 0.0
C3084 C 0.50096 0.34062 0.68305 0.0
C3085 C 0.50297 0.33359 0.69457 0.0
C3086 C 0.48619 0.32133 0.7015 0.0
C3087 C 0.36941 0.23085 0.69308 0.0
C3088 C 0.37573 0.21909 0.68715 0.0
C3089 C 0.38315 0.24829 0.69893 0.0
C3090 C 0.40337 0.25407 0.69915 0.0
C3091 C 0.40964 0.24233 0.69319 0.0
C3092 C 0.396 0.22506 0.68724 0.0
C3093 C 0.41811 0.27236 0.70553 0.0
C3094 C 0.43478 0.28579 0.69883 0.0
C3095 C 0.41601 0.27653 0.71811 0.0
C3096 C 0.39933 0.26255 0.72593 0.0
C3097 C 0.3957 0.24347 0.72764 0.0
C3098 C 0.37978 0.23034 0.7349 0.0
C3099 C 0.36751 0.2362 0.7406 0.0
C3100 C 0.37114 0.25518 0.73907 0.0
C3101 C 0.387 0.26834 0.73179 0.0
H3102 H 0.35519 0.22607 0.74622 0.0
H3103 H 0.51396 0.35011 0.6777 0.0
H3104 H 0.66929 0.15437 0.74808 0.0
H3105 H 0.69997 0.16112 0.73776 0.0
H3106 H 0.66621 0.12545 0.70639 0.0
H3107 H 0.63557 0.11895 0.71658 0.0
H3108 H 0.71463 0.13967 0.73127 0.0
H3109 H 0.69187 0.14122 0.67953 0.0
H3110 H 0.67102 0.15076 0.6676 0.0
H3111 H 0.67624 0.18994 0.69709 0.0
H3112 H 0.69736 0.18086 0.70912 0.0
H3113 H 0.77124 0.12039 0.68914 0.0
H3114 H 0.74269 0.12064 0.69832 0.0
H3115 H 0.7714 0.1828 0.6935 0.0
H3116 H 0.80032 0.18271 0.68462 0.0
H3117 H 0.7287 0.16068 0.68712 0.0
H3118 H 0.77328 0.173 0.72123 0.0
H3119 H 0.79716 0.16777 0.7333 0.0
H3120 H 0.75248 0.10838 0.73965 0.0
H3121 H 0.72825 0.11336 0.7277 0.0
C3122 C 0.66841 0.14796 0.73898 0.0
C3123 C 0.64997 0.13619 0.73313 0.0
C3124 C 0.68598 0.15185 0.73308 0.0
C3125 C 0.68551 0.14404 0.7212 0.0
C3126 C 0.66708 0.13207 0.71541 0.0
C3127 C 0.64953 0.12833 0.72126 0.0
C3128 C 0.70422 0.14794 0.715 0.0
C3129 C 0.71763 0.14434 0.72163 0.0
C3130 C 0.7086 0.15451 0.70249 0.0
C3131 C 0.69603 0.16019 0.69528 0.0
C3132 C 0.68863 0.15192 0.68345 0.0
C3133 C 0.67676 0.15725 0.67667 0.0
C3134 C 0.67225 0.1709 0.6816 0.0
C3135 C 0.67967 0.17931 0.6933 0.0
C3136 C 0.69157 0.17406 0.70011 0.0
C3137 C 0.77134 0.13407 0.68989 0.0
C3138 C 0.78784 0.15147 0.686 0.0
C3139 C 0.75507 0.13419 0.69513 0.0
C3140 C 0.75498 0.15173 0.69661 0.0
C3141 C 0.77117 0.16911 0.69238 0.0
C3142 C 0.78761 0.16902 0.68726 0.0
C3143 C 0.73845 0.15182 0.7033 0.0
C3144 C 0.72555 0.15613 0.69677 0.0
C3145 C 0.7348 0.1465 0.71599 0.0
C3146 C 0.74902 0.14351 0.72353 0.0
C3147 C 0.76857 0.15882 0.72519 0.0
C3148 C 0.78217 0.1559 0.73201 0.0
C3149 C 0.7764 0.1377 0.73715 0.0
C3150 C 0.75695 0.12244 0.7356 0.0
C3151 C 0.74324 0.12534 0.72889 0.0
H3152 H 0.78697 0.13547 0.74241 0.0
H3153 H 0.66304 0.17499 0.67635 0.0
H3154 H 0.91186 0.54846 0.74039 0.0
H3155 H 0.90293 0.57057 0.73027 0.0
H3156 H 0.85059 0.52149 0.71469 0.0
H3157 H 0.85923 0.49925 0.72493 0.0
H3158 H 0.87065 0.54992 0.69742 0.0
H3159 H 0.84646 0.5455 0.73904 0.0
H3160 H 0.84851 0.54696 0.76202 0.0
H3161 H 0.89337 0.60729 0.76059 0.0
H3162 H 0.89179 0.60611 0.73758 0.0
H3163 H 0.82356 0.6021 0.67763 0.0
H3164 H 0.8316 0.57921 0.68746 0.0
H3165 H 0.88166 0.62689 0.70607 0.0
H3166 H 0.87345 0.64985 0.69653 0.0
H3167 H 0.86202 0.59846 0.7218 0.0
H3168 H 0.88719 0.60282 0.68028 0.0
H3169 H 0.88531 0.60158 0.65729 0.0
H3170 H 0.83886 0.54185 0.6585 0.0
H3171 H 0.84039 0.54278 0.68152 0.0
C3172 C 0.89833 0.54236 0.73492 0.0
C3173 C 0.88621 0.52209 0.7335 0.0
C3174 C 0.89329 0.55501 0.72912 0.0
C3175 C 0.87602 0.54764 0.72182 0.0
C3176 C 0.864 0.52745 0.72026 0.0
C3177 C 0.869 0.51478 0.72609 0.0
C3178 C 0.87054 0.56103 0.71578 0.0
C3179 C 0.86851 0.56038 0.70275 0.0
C3180 C 0.86816 0.57491 0.72274 0.0
C3181 C 0.86914 0.57566 0.73658 0.0
C3182 C 0.85689 0.55903 0.74362 0.0
C3183 C 0.85794 0.55982 0.75666 0.0
C3184 C 0.8711 0.57719 0.76276 0.0
C3185 C 0.8832 0.59383 0.75585 0.0
C3186 C 0.88222 0.59312 0.74281 0.0
C3187 C 0.83637 0.60774 0.68375 0.0
C3188 C 0.84792 0.6278 0.68627 0.0
C3189 C 0.84097 0.59463 0.68934 0.0
C3190 C 0.85739 0.60136 0.69738 0.0
C3191 C 0.86893 0.62138 0.6999 0.0
C3192 C 0.86423 0.63448 0.69441 0.0
C3193 C 0.86231 0.58752 0.7034 0.0
C3194 C 0.86419 0.58804 0.71645 0.0
C3195 C 0.86462 0.57357 0.69645 0.0
C3196 C 0.86381 0.57291 0.68262 0.0
C3197 C 0.87652 0.58945 0.67565 0.0
C3198 C 0.87555 0.58878 0.66261 0.0
C3199 C 0.86196 0.57165 0.65644 0.0
C3200 C 0.84938 0.55511 0.6633 0.0
C3201 C 0.85033 0.55568 0.67633 0.0
H3202 H 0.86118 0.57119 0.64635 0.0
H3203 H 0.87189 0.57778 0.77285 0.0
H3204 H 0.49576 0.93676 0.18698 0.0
H3205 H 0.50404 0.95161 0.16641 0.0
H3206 H 0.44214 0.92213 0.15638 0.0
H3207 H 0.43374 0.90653 0.17684 0.0
H3208 H 0.46407 0.92122 0.13725 0.0
H3209 H 0.46624 0.97011 0.16469 0.0
H3210 H 0.47625 0.99127 0.18338 0.0
H3211 H 0.53717 0.01762 0.17259 0.0
H3212 H 0.52754 0.99642 0.15392 0.0
H3213 H 0.47725 0.98194 0.0846 0.0
H3214 H 0.46689 0.96366 0.1041 0.0
H3215 H 0.52766 0.99208 0.11664 0.0
H3216 H 0.53807 0.01041 0.09723 0.0
H3217 H 0.50471 0.9931 0.13437 0.0
H3218 H 0.5025 0.94319 0.10728 0.0
H3219 H 0.49231 0.92202 0.08857 0.0
H3220 H 0.43126 0.89807 0.09848 0.0
H3221 H 0.44111 0.91915 0.11722 0.0
C3222 C 0.48389 0.93318 0.18037 0.0
C3223 C 0.46406 0.92044 0.18361 0.0
C3224 C 0.48864 0.94187 0.16863 0.0
C3225 C 0.4737 0.93822 0.15989 0.0
C3226 C 0.45392 0.92524 0.16298 0.0
C3227 C 0.44914 0.91648 0.17473 0.0
C3228 C 0.47879 0.9482 0.14762 0.0
C3229 C 0.47273 0.93695 0.13661 0.0
C3230 C 0.49035 0.96872 0.14676 0.0
C3231 C 0.49618 0.98155 0.15796 0.0
C3232 C 0.48178 0.98031 0.16635 0.0
C3233 C 0.48739 0.99233 0.17693 0.0
C3234 C 0.50734 0.00575 0.17919 0.0
C3235 C 0.52172 0.00721 0.17084 0.0
C3236 C 0.5162 0.99521 0.16025 0.0
C3237 C 0.48842 0.98408 0.09145 0.0
C3238 C 0.50848 0.9977 0.08938 0.0
C3239 C 0.48248 0.97361 0.10259 0.0
C3240 C 0.4965 0.97639 0.11183 0.0
C3241 C 0.51656 0.98974 0.10969 0.0
C3242 C 0.52248 0.00025 0.0986 0.0
C3243 C 0.4903 0.96613 0.12398 0.0
C3244 C 0.49606 0.97736 0.13499 0.0
C3245 C 0.47846 0.94563 0.12481 0.0
C3246 C 0.47253 0.93287 0.11359 0.0
C3247 C 0.4869 0.93349 0.10542 0.0
C3248 C 0.48119 0.92148 0.09483 0.0
C3249 C 0.46114 0.90875 0.09231 0.0
C3250 C 0.44678 0.90794 0.10043 0.0
C3251 C 0.45242 0.91988 0.11105 0.0
H3252 H 0.45673 0.89949 0.0841 0.0
H3253 H 0.51164 0.01504 0.18738 0.0
H3254 H 0.07772 0.55638 0.18138 0.0
H3255 H 0.06624 0.5508 0.15967 0.0
H3256 H 0.02748 0.4899 0.16734 0.0
H3257 H 0.03878 0.49537 0.18906 0.0
H3258 H 0.04607 0.4955 0.14481 0.0
H3259 H 0.00946 0.52025 0.16699 0.0
H3260 H 0.00576 0.54373 0.18024 0.0
H3261 H 0.03745 0.58874 0.15346 0.0
H3262 H 0.04159 0.56558 0.14013 0.0
H3263 H 0.97277 0.46834 0.09727 0.0
H3264 H 0.99085 0.47555 0.11715 0.0
H3265 H 0.02991 0.53446 0.10524 0.0
H3266 H 0.01195 0.5273 0.08532 0.0
H3267 H 0.01364 0.53149 0.12909 0.0
H3268 H 0.04941 0.50705 0.10656 0.0
H3269 H 0.05385 0.48411 0.09325 0.0
H3270 H 0.02372 0.43893 0.12018 0.0
H3271 H 0.01919 0.46168 0.1337 0.0
C3272 C 0.06674 0.54181 0.17843 0.0
C3273 C 0.05903 0.52634 0.18694 0.0
C3274 C 0.06027 0.53864 0.16604 0.0
C3275 C 0.04587 0.51999 0.16197 0.0
C3276 C 0.03864 0.50439 0.17031 0.0
C3277 C 0.04513 0.50754 0.18271 0.0
C3278 C 0.03761 0.51687 0.14918 0.0
C3279 C 0.03882 0.50323 0.1414 0.0
C3280 C 0.0286 0.52733 0.14466 0.0
C3281 C 0.02602 0.54124 0.15263 0.0
C3282 C 0.01578 0.5352 0.16398 0.0
C3283 C 0.01358 0.54843 0.1715 0.0
C3284 C 0.02142 0.56772 0.16771 0.0
C3285 C 0.03142 0.5738 0.15639 0.0
C3286 C 0.03369 0.56062 0.14884 0.0
C3287 C 0.98522 0.48281 0.09892 0.0
C3288 C 0.99098 0.4973 0.08983 0.0
C3289 C 0.9956 0.48685 0.11019 0.0
C3290 C 0.01175 0.50549 0.11257 0.0
C3291 C 0.01752 0.51999 0.10351 0.0
C3292 C 0.00731 0.51587 0.09217 0.0
C3293 C 0.02197 0.51003 0.12478 0.0
C3294 C 0.02105 0.52389 0.13246 0.0
C3295 C 0.03126 0.49981 0.12918 0.0
C3296 C 0.0338 0.48601 0.12108 0.0
C3297 C 0.04359 0.49218 0.10959 0.0
C3298 C 0.04617 0.47923 0.10203 0.0
C3299 C 0.03896 0.46003 0.10582 0.0
C3300 C 0.02927 0.4538 0.11724 0.0
C3301 C 0.02676 0.46673 0.12488 0.0
H3302 H 0.04095 0.45002 0.09994 0.0
H3303 H 0.01969 0.57795 0.17355 0.0
H3304 H 0.46055 0.55127 0.17411 0.0
H3305 H 0.47 0.54412 0.15386 0.0
H3306 H 0.46466 0.49124 0.16864 0.0
H3307 H 0.45544 0.49844 0.18896 0.0
H3308 H 0.49938 0.51287 0.15643 0.0
H3309 H 0.43078 0.48915 0.14857 0.0
H3310 H 0.39964 0.48991 0.14729 0.0
H3311 H 0.42576 0.53648 0.12089 0.0
H3312 H 0.45721 0.53628 0.12219 0.0
H3313 H 0.51179 0.47686 0.09827 0.0
H3314 H 0.49841 0.48035 0.1181 0.0
H3315 H 0.50014 0.53232 0.10461 0.0
H3316 H 0.51348 0.52889 0.08477 0.0
H3317 H 0.46603 0.50945 0.11623 0.0
H3318 H 0.5351 0.53471 0.12512 0.0
H3319 H 0.56621 0.53382 0.12603 0.0
H3320 H 0.53912 0.48446 0.1503 0.0
H3321 H 0.50775 0.4849 0.1494 0.0
C3322 C 0.46134 0.5381 0.17302 0.0
C3323 C 0.45728 0.52543 0.18313 0.0
C3324 C 0.46658 0.53395 0.16143 0.0
C3325 C 0.4679 0.51708 0.15972 0.0
C3326 C 0.46366 0.5043 0.16975 0.0
C3327 C 0.45827 0.50837 0.18132 0.0
C3328 C 0.47473 0.51332 0.14766 0.0
C3329 C 0.4919 0.51181 0.14766 0.0
C3330 C 0.46524 0.51242 0.13619 0.0
C3331 C 0.44646 0.51285 0.13559 0.0
C3332 C 0.42999 0.49973 0.14261 0.0
C3333 C 0.41225 0.50003 0.14186 0.0
C3334 C 0.41074 0.51327 0.13405 0.0
C3335 C 0.42696 0.52626 0.12697 0.0
C3336 C 0.44475 0.52606 0.12771 0.0
C3337 C 0.50948 0.48912 0.09957 0.0
C3338 C 0.51376 0.50264 0.08996 0.0
C3339 C 0.50179 0.49108 0.11089 0.0
C3340 C 0.49845 0.50672 0.11289 0.0
C3341 C 0.50255 0.52012 0.10327 0.0
C3342 C 0.51014 0.51813 0.09193 0.0
C3343 C 0.49075 0.50917 0.125 0.0
C3344 C 0.47345 0.51045 0.12502 0.0
C3345 C 0.50014 0.50994 0.13649 0.0
C3346 C 0.51902 0.50971 0.13709 0.0
C3347 C 0.53573 0.52357 0.13058 0.0
C3348 C 0.55342 0.52316 0.1311 0.0
C3349 C 0.55462 0.50906 0.13819 0.0
C3350 C 0.53815 0.49536 0.1448 0.0
C3351 C 0.52042 0.49569 0.14429 0.0
H3352 H 0.56833 0.50877 0.13859 0.0
H3353 H 0.39698 0.51344 0.13345 0.0
H3354 H 0.97753 0.46882 0.81974 0.0
H3355 H 0.99176 0.47476 0.84074 0.0
H3356 H 0.95439 0.49769 0.85208 0.0
H3357 H 0.9399 0.4916 0.83109 0.0
H3358 H 0.99243 0.51997 0.86074 0.0
H3359 H 0.94231 0.45248 0.86005 0.0
H3360 H 0.92488 0.41885 0.85183 0.0
H3361 H 0.97745 0.41502 0.85674 0.0
H3362 H 0.99529 0.44875 0.86483 0.0
H3363 H 0.00598 0.51652 0.9261 0.0
H3364 H 0.9919 0.51209 0.90514 0.0
H3365 H 0.02553 0.4853 0.89321 0.0
H3366 H 0.03893 0.48882 0.9143 0.0
H3367 H 0.98874 0.46509 0.88491 0.0
H3368 H 0.03907 0.53267 0.88541 0.0
H3369 H 0.05662 0.56637 0.89352 0.0
H3370 H 0.00397 0.57015 0.88895 0.0
H3371 H 0.98602 0.53637 0.88096 0.0
C3372 C 0.97225 0.47502 0.82671 0.0
C3373 C 0.95748 0.47959 0.82378 0.0
C3374 C 0.98043 0.47845 0.8387 0.0
C3375 C 0.97394 0.48644 0.84799 0.0
C3376 C 0.95959 0.49151 0.84502 0.0
C3377 C 0.95138 0.48807 0.83303 0.0
C3378 C 0.98193 0.48919 0.86086 0.0
C3379 C 0.99141 0.50795 0.86611 0.0
C3380 C 0.98091 0.47353 0.86773 0.0
C3381 C 0.97018 0.45321 0.86293 0.0
C3382 C 0.9502 0.44452 0.85928 0.0
C3383 C 0.94024 0.42543 0.85466 0.0
C3384 C 0.95006 0.41482 0.85373 0.0
C3385 C 0.96986 0.42326 0.85745 0.0
C3386 C 0.9799 0.44236 0.86207 0.0
C3387 C 0.01026 0.50953 0.91905 0.0
C3388 C 0.02361 0.50304 0.92188 0.0
C3389 C 0.00237 0.50722 0.90703 0.0
C3390 C 0.00787 0.49859 0.89756 0.0
C3391 C 0.02115 0.49207 0.90036 0.0
C3392 C 0.02895 0.49427 0.91239 0.0
C3393 C 0.99944 0.49594 0.8848 0.0
C3394 C 0.9898 0.47715 0.87957 0.0
C3395 C 1.00035 0.51158 0.87796 0.0
C3396 C 0.01115 0.53193 0.8827 0.0
C3397 C 0.03119 0.54064 0.88622 0.0
C3398 C 0.04122 0.55976 0.89078 0.0
C3399 C 0.0314 0.57038 0.89178 0.0
C3400 C 0.01155 0.5619 0.88819 0.0
C3401 C 0.00144 0.54278 0.88363 0.0
H3402 H 0.0392 0.58518 0.89531 0.0
H3403 H 0.94232 0.40005 0.85015 0.0
H3404 H 0.57185 0.48607 0.83288 0.0
H3405 H 0.56299 0.49269 0.85351 0.0
H3406 H 0.50134 0.46206 0.84279 0.0
H3407 H 0.51011 0.45598 0.8221 0.0
H3408 H 0.5106 0.49514 0.85464 0.0
H3409 H 0.52135 0.44108 0.86149 0.0
H3410 H 0.54043 0.42398 0.86108 0.0
H3411 H 0.58501 0.46826 0.88465 0.0
H3412 H 0.56631 0.48577 0.88506 0.0
H3413 H 0.4627 0.47761 0.91247 0.0
H3414 H 0.47519 0.47314 0.89259 0.0
H3415 H 0.535 0.50595 0.90671 0.0
H3416 H 0.52259 0.51056 0.92664 0.0
H3417 H 0.52906 0.47406 0.89346 0.0
H3418 H 0.51752 0.52729 0.88744 0.0
H3419 H 0.4983 0.54423 0.888 0.0
H3420 H 0.4553 0.50162 0.86286 0.0
H3421 H 0.47412 0.48425 0.86229 0.0
C3422 C 0.55643 0.4809 0.83489 0.0
C3423 C 0.54168 0.47038 0.82586 0.0
C3424 C 0.55137 0.48453 0.84672 0.0
C3425 C 0.53147 0.47766 0.84975 0.0
C3426 C 0.51678 0.46743 0.84069 0.0
C3427 C 0.52181 0.46382 0.82889 0.0
C3428 C 0.52579 0.48113 0.86231 0.0
C3429 C 0.51448 0.49035 0.86311 0.0
C3430 C 0.53131 0.47538 0.87341 0.0
C3431 C 0.54254 0.46485 0.87319 0.0
C3432 C 0.5353 0.44725 0.8665 0.0
C3433 C 0.54603 0.43747 0.86629 0.0
C3434 C 0.56395 0.44506 0.87281 0.0
C3435 C 0.57114 0.46242 0.87959 0.0
C3436 C 0.56048 0.47227 0.87982 0.0
C3437 C 0.47852 0.48397 0.91133 0.0
C3438 C 0.49166 0.49465 0.92109 0.0
C3439 C 0.48563 0.48136 0.89998 0.0
C3440 C 0.50605 0.4895 0.8981 0.0
C3441 C 0.51919 0.4996 0.90795 0.0
C3442 C 0.51207 0.50219 0.91934 0.0
C3443 C 0.51359 0.48776 0.88574 0.0
C3444 C 0.52529 0.47894 0.88499 0.0
C3445 C 0.50844 0.49388 0.87467 0.0
C3446 C 0.49716 0.50438 0.87491 0.0
C3447 C 0.5039 0.52145 0.8821 0.0
C3448 C 0.49308 0.53114 0.88241 0.0
C3449 C 0.47556 0.52398 0.87549 0.0
C3450 C 0.46886 0.50714 0.86822 0.0
C3451 C 0.47961 0.49738 0.86789 0.0
H3452 H 0.46721 0.5315 0.87574 0.0
H3453 H 0.57223 0.43746 0.87263 0.0
H3454 H 0.56751 0.08966 0.83182 0.0
H3455 H 0.55933 0.07519 0.8526 0.0
H3456 H 0.49773 0.04218 0.84202 0.0
H3457 H 0.50578 0.05631 0.8212 0.0
H3458 H 0.50249 0.05882 0.86494 0.0
H3459 H 0.5259 0.02071 0.84348 0.0
H3460 H 0.54982 0.0156 0.83146 0.0
H3461 H 0.59269 0.04204 0.86099 0.0
H3462 H 0.56909 0.04756 0.87312 0.0
H3463 H 0.4631 0.98612 0.91116 0.0
H3464 H 0.4744 0.00436 0.89175 0.0
H3465 H 0.53437 0.03402 0.90579 0.0
H3466 H 0.5232 0.01545 0.92518 0.0
H3467 H 0.53254 0.02143 0.88197 0.0
H3468 H 0.50885 0.05784 0.90406 0.0
H3469 H 0.48521 0.06312 0.91626 0.0
H3470 H 0.44345 0.04057 0.88589 0.0
H3471 H 0.46674 0.03488 0.87357 0.0
C3472 C 0.55224 0.07917 0.83386 0.0
C3473 C 0.53732 0.07417 0.82478 0.0
C3474 C 0.54758 0.07096 0.84577 0.0
C3475 C 0.52792 0.0575 0.84886 0.0
C3476 C 0.51299 0.0526 0.83988 0.0
C3477 C 0.51763 0.06075 0.82797 0.0
C3478 C 0.52282 0.04847 0.86144 0.0
C3479 C 0.50891 0.05048 0.86861 0.0
C3480 C 0.53163 0.03808 0.86641 0.0
C3481 C 0.54581 0.03474 0.85914 0.0
C3482 C 0.54048 0.02558 0.84736 0.0
C3483 C 0.55397 0.02259 0.84054 0.0
C3484 C 0.57278 0.02855 0.84544 0.0
C3485 C 0.57812 0.03747 0.8572 0.0
C3486 C 0.5647 0.04052 0.86405 0.0
C3487 C 0.47871 0.99647 0.91011 0.0
C3488 C 0.49225 0.99928 0.91972 0.0
C3489 C 0.48513 0.00703 0.89905 0.0
C3490 C 0.50522 0.0207 0.89733 0.0
C3491 C 0.5188 0.02359 0.90691 0.0
C3492 C 0.51236 0.01308 0.91802 0.0
C3493 C 0.512 0.03155 0.8854 0.0
C3494 C 0.52623 0.02989 0.87835 0.0
C3495 C 0.50354 0.04233 0.88056 0.0
C3496 C 0.48949 0.04577 0.88793 0.0
C3497 C 0.49456 0.05385 0.90002 0.0
C3498 C 0.48124 0.05695 0.90695 0.0
C3499 C 0.46282 0.05214 0.90186 0.0
C3500 C 0.45771 0.04427 0.88982 0.0
C3501 C 0.47098 0.04112 0.88285 0.0
H3502 H 0.45252 0.05455 0.90724 0.0
H3503 H 0.5832 0.02621 0.84015 0.0
H3504 H 0.10227 0.24243 0.51173 0.0
H3505 H 0.11011 0.25748 0.4911 0.0
H3506 H 0.17038 0.29575 0.503 0.0
H3507 H 0.16254 0.28117 0.52371 0.0
H3508 H 0.1561 0.3154 0.49061 0.0
H3509 H 0.15806 0.25632 0.48417 0.0
H3510 H 0.14495 0.22087 0.48451 0.0
H3511 H 0.09743 0.21198 0.46 0.0
H3512 H 0.11012 0.24739 0.45965 0.0
H3513 H 0.2033 0.35094 0.43308 0.0
H3514 H 0.1928 0.33376 0.45288 0.0
H3515 H 0.13353 0.29871 0.43833 0.0
H3516 H 0.1439 0.31601 0.41846 0.0
H3517 H 0.14532 0.27694 0.45176 0.0
H3518 H 0.14385 0.33598 0.45767 0.0
H3519 H 0.15702 0.37143 0.45718 0.0
H3520 H 0.20342 0.38032 0.48269 0.0
H3521 H 0.19069 0.34492 0.48319 0.0
C3522 C 0.11716 0.25414 0.50998 0.0
C3523 C 0.13179 0.26054 0.51938 0.0
C3524 C 0.12166 0.26261 0.49814 0.0
C3525 C 0.1409 0.27762 0.49545 0.0
C3526 C 0.15546 0.28415 0.50484 0.0
C3527 C 0.15098 0.27568 0.51666 0.0
C3528 C 0.14588 0.28677 0.48291 0.0
C3529 C 0.15395 0.307 0.48214 0.0
C3530 C 0.14256 0.27577 0.4718 0.0
C3531 C 0.13491 0.25448 0.472 0.0
C3532 C 0.14472 0.24679 0.47894 0.0
C3533 C 0.13738 0.22671 0.47912 0.0
C3534 C 0.12034 0.21418 0.47231 0.0
C3535 C 0.11062 0.22171 0.46529 0.0
C3536 C 0.11788 0.24178 0.46509 0.0
C3537 C 0.18799 0.33965 0.43409 0.0
C3538 C 0.1744 0.33502 0.42421 0.0
C3539 C 0.18203 0.3298 0.44542 0.0
C3540 C 0.16231 0.31515 0.44717 0.0
C3541 C 0.14882 0.31 0.4372 0.0
C3542 C 0.15478 0.31987 0.42584 0.0
C3543 C 0.15579 0.30558 0.4595 0.0
C3544 C 0.1474 0.2853 0.46024 0.0
C3545 C 0.15878 0.31652 0.47059 0.0
C3546 C 0.16641 0.33781 0.47038 0.0
C3547 C 0.15695 0.34551 0.4631 0.0
C3548 C 0.16432 0.36559 0.46283 0.0
C3549 C 0.18107 0.37813 0.46988 0.0
C3550 C 0.19046 0.3706 0.47723 0.0
C3551 C 0.18316 0.35052 0.47752 0.0
H3552 H 0.18676 0.39367 0.46965 0.0
H3553 H 0.11468 0.19864 0.47246 0.0
H3554 H 0.71697 0.83159 0.51656 0.0
H3555 H 0.70236 0.82454 0.49568 0.0
H3556 H 0.69298 0.8736 0.49861 0.0
H3557 H 0.70617 0.87987 0.51979 0.0
H3558 H 0.66233 0.84519 0.48848 0.0
H3559 H 0.73238 0.87467 0.48163 0.0
H3560 H 0.7655 0.87825 0.48392 0.0
H3561 H 0.74397 0.82137 0.4679 0.0
H3562 H 0.71065 0.81737 0.46566 0.0
H3563 H 0.67464 0.85546 0.41694 0.0
H3564 H 0.68889 0.86001 0.43786 0.0
H3565 H 0.63626 0.80861 0.45025 0.0
H3566 H 0.62193 0.80386 0.42929 0.0
H3567 H 0.69812 0.83817 0.45248 0.0
H3568 H 0.62661 0.81706 0.48001 0.0
H3569 H 0.59525 0.81717 0.47728 0.0
H3570 H 0.6231 0.86408 0.45123 0.0
H3571 H 0.65467 0.86444 0.45394 0.0
C3572 C 0.71154 0.84072 0.51286 0.0
C3573 C 0.71286 0.85637 0.51989 0.0
C3574 C 0.70342 0.83682 0.50083 0.0
C3575 C 0.69686 0.84873 0.49548 0.0
C3576 C 0.69802 0.86424 0.50251 0.0
C3577 C 0.70582 0.86797 0.51459 0.0
C3578 C 0.68865 0.84506 0.4826 0.0
C3579 C 0.67017 0.84361 0.48063 0.0
C3580 C 0.69895 0.84323 0.4723 0.0
C3581 C 0.71899 0.84565 0.47359 0.0
C3582 C 0.73468 0.86288 0.47868 0.0
C3583 C 0.75349 0.86499 0.47995 0.0
C3584 C 0.75682 0.85003 0.47609 0.0
C3585 C 0.74136 0.83294 0.47091 0.0
C3586 C 0.72252 0.83075 0.46962 0.0
C3587 C 0.66619 0.84498 0.42407 0.0
C3588 C 0.64712 0.82934 0.42148 0.0
C3589 C 0.67435 0.84762 0.43602 0.0
C3590 C 0.66357 0.83475 0.44562 0.0
C3591 C 0.6447 0.81887 0.44301 0.0
C3592 C 0.63652 0.81623 0.43106 0.0
C3593 C 0.67187 0.8383 0.45843 0.0
C3594 C 0.6903 0.83965 0.46037 0.0
C3595 C 0.66179 0.84056 0.46866 0.0
C3596 C 0.64292 0.8406 0.46707 0.0
C3597 C 0.62604 0.82743 0.47373 0.0
C3598 C 0.60823 0.82741 0.47218 0.0
C3599 C 0.60716 0.84057 0.46405 0.0
C3600 C 0.62392 0.85384 0.45748 0.0
C3601 C 0.64177 0.85394 0.45901 0.0
H3602 H 0.59336 0.84052 0.46286 0.0
H3603 H 0.77139 0.85168 0.47709 0.0
H3604 H 0.12834 0.89024 0.50734 0.0
H3605 H 0.13673 0.88444 0.48634 0.0
H3606 H 0.13473 0.83202 0.49909 0.0
H3607 H 0.12646 0.8378 0.52012 0.0
H3608 H 0.16811 0.85556 0.48481 0.0
H3609 H 0.09733 0.82839 0.48257 0.0
H3610 H 0.06623 0.82909 0.48456 0.0
H3611 H 0.08687 0.87528 0.45788 0.0
H3612 H 0.11823 0.87503 0.45586 0.0
H3613 H 0.16095 0.80457 0.42933 0.0
H3614 H 0.15686 0.81613 0.44958 0.0
H3615 H 0.15359 0.86308 0.43175 0.0
H3616 H 0.15695 0.8511 0.41132 0.0
H3617 H 0.12478 0.84571 0.44825 0.0
H3618 H 0.19444 0.87162 0.4491 0.0
H3619 H 0.22582 0.8715 0.44702 0.0
H3620 H 0.20827 0.82911 0.47609 0.0
H3621 H 0.17664 0.82876 0.47824 0.0
C3622 C 0.12975 0.87751 0.50566 0.0
C3623 C 0.1267 0.86444 0.51536 0.0
C3624 C 0.13444 0.87417 0.49366 0.0
C3625 C 0.13627 0.85776 0.49116 0.0
C3626 C 0.13338 0.84477 0.50084 0.0
C3627 C 0.1285 0.848 0.51281 0.0
C3628 C 0.14119 0.85408 0.47845 0.0
C3629 C 0.15856 0.85323 0.47682 0.0
C3630 C 0.12906 0.8517 0.46798 0.0
C3631 C 0.11021 0.85185 0.46918 0.0
C3632 C 0.09531 0.83882 0.47721 0.0
C3633 C 0.07762 0.83911 0.47833 0.0
C3634 C 0.0746 0.85226 0.47138 0.0
C3635 C 0.08924 0.86512 0.46328 0.0
C3636 C 0.10697 0.8649 0.46214 0.0
C3637 C 0.15936 0.81736 0.42969 0.0
C3638 C 0.1591 0.8268 0.41867 0.0
C3639 C 0.15724 0.82409 0.44131 0.0
C3640 C 0.15509 0.84059 0.44222 0.0
C3641 C 0.15528 0.85035 0.43128 0.0
C3642 C 0.15737 0.84358 0.41961 0.0
C3643 C 0.15161 0.84691 0.45458 0.0
C3644 C 0.13449 0.84826 0.45617 0.0
C3645 C 0.16406 0.84988 0.465 0.0
C3646 C 0.18309 0.85006 0.46376 0.0
C3647 C 0.1972 0.86216 0.45499 0.0
C3648 C 0.21505 0.8622 0.45381 0.0
C3649 C 0.21902 0.85028 0.4614 0.0
C3650 C 0.20516 0.83832 0.47021 0.0
C3651 C 0.18728 0.83822 0.47143 0.0
H3652 H 0.23285 0.85033 0.46047 0.0
H3653 H 0.06089 0.85246 0.47226 0.0
H3654 H 0.60533 0.78407 0.16362 0.0
H3655 H 0.6198 0.79047 0.18459 0.0
H3656 H 0.66273 0.84898 0.17393 0.0
H3657 H 0.64853 0.84256 0.15283 0.0
H3658 H 0.67949 0.83071 0.18666 0.0
H3659 H 0.62474 0.84164 0.19173 0.0
H3660 H 0.58989 0.83347 0.19019 0.0
H3661 H 0.57251 0.78373 0.21351 0.0
H3662 H 0.60724 0.79144 0.21506 0.0
H3663 H 0.71519 0.86487 0.24802 0.0
H3664 H 0.70123 0.86066 0.22699 0.0
H3665 H 0.65344 0.80384 0.23694 0.0
H3666 H 0.66712 0.8082 0.25805 0.0
H3667 H 0.63944 0.82253 0.22436 0.0
H3668 H 0.69332 0.81031 0.21878 0.0
H3669 H 0.7279 0.81757 0.22023 0.0
H3670 H 0.74663 0.86846 0.1978 0.0
H3671 H 0.71217 0.86164 0.19636 0.0
C3672 C 0.61792 0.79827 0.16572 0.0
C3673 C 0.62581 0.81282 0.15658 0.0
C3674 C 0.62606 0.80195 0.17773 0.0
C3675 C 0.64222 0.82025 0.18083 0.0
C3676 C 0.65022 0.83478 0.17172 0.0
C3677 C 0.64201 0.83114 0.15972 0.0
C3678 C 0.65093 0.82409 0.19355 0.0
C3679 C 0.67084 0.82922 0.19491 0.0
C3680 C 0.63947 0.82165 0.20429 0.0
C3681 C 0.61858 0.81702 0.20341 0.0
C3682 C 0.61347 0.82887 0.19645 0.0
C3683 C 0.59374 0.82433 0.19559 0.0
C3684 C 0.57898 0.80806 0.20172 0.0
C3685 C 0.58394 0.79631 0.20876 0.0
C3686 C 0.60365 0.80077 0.20964 0.0
C3687 C 0.70178 0.85144 0.24568 0.0
C3688 C 0.69226 0.83683 0.25464 0.0
C3689 C 0.69383 0.84903 0.23366 0.0
C3690 C 0.67642 0.83182 0.23032 0.0
C3691 C 0.66687 0.81725 0.2393 0.0
C3692 C 0.67468 0.81975 0.25135 0.0
C3693 C 0.66802 0.82901 0.21753 0.0
C3694 C 0.64815 0.82408 0.21613 0.0
C3695 C 0.67949 0.83149 0.20676 0.0
C3696 C 0.7002 0.83557 0.20757 0.0
C3697 C 0.70484 0.82313 0.21423 0.0
C3698 C 0.72441 0.82715 0.21504 0.0
C3699 C 0.73946 0.8435 0.20914 0.0
C3700 C 0.73496 0.85582 0.20238 0.0
C3701 C 0.71541 0.85187 0.20156 0.0
H3702 H 0.7546 0.84659 0.20977 0.0
H3703 H 0.56372 0.80458 0.20105 0.0
H3704 H 0.17131 0.79396 0.1561 0.0
H3705 H 0.16299 0.80192 0.17634 0.0
H3706 H 0.22502 0.83834 0.18505 0.0
H3707 H 0.23353 0.82963 0.165 0.0
H3708 H 0.2061 0.81777 0.20485 0.0
H3709 H 0.19618 0.85813 0.17644 0.0
H3710 H 0.18348 0.86609 0.15761 0.0
H3711 H 0.12382 0.82843 0.16959 0.0
H3712 H 0.13615 0.82002 0.18843 0.0
H3713 H 0.18404 0.85747 0.2583 0.0
H3714 H 0.19688 0.85437 0.23813 0.0
H3715 H 0.1372 0.81652 0.22491 0.0
H3716 H 0.12434 0.81997 0.24495 0.0
H3717 H 0.15804 0.84127 0.2074 0.0
H3718 H 0.16908 0.79916 0.23515 0.0
H3719 H 0.18259 0.79258 0.25419 0.0
H3720 H 0.24138 0.83575 0.2436 0.0
H3721 H 0.22819 0.84265 0.22453 0.0
C3722 C 0.18324 0.80347 0.16235 0.0
C3723 C 0.20312 0.81113 0.15887 0.0
C3724 C 0.17844 0.80822 0.17389 0.0
C3725 C 0.19337 0.821 0.18216 0.0
C3726 C 0.21324 0.82854 0.1788 0.0
C3727 C 0.21807 0.82369 0.16727 0.0
C3728 C 0.18811 0.8263 0.19433 0.0
C3729 C 0.19582 0.8232 0.20539 0.0
C3730 C 0.17459 0.83326 0.1951 0.0
C3731 C 0.1671 0.83833 0.1838 0.0
C3732 C 0.18035 0.85144 0.17502 0.0
C3733 C 0.17322 0.85605 0.16435 0.0
C3734 C 0.15286 0.84774 0.16239 0.0
C3735 C 0.13958 0.83484 0.17112 0.0
C3736 C 0.14664 0.83017 0.1818 0.0
C3737 C 0.17369 0.84847 0.25108 0.0
C3738 C 0.15319 0.83891 0.2532 0.0
C3739 C 0.18103 0.84667 0.23956 0.0
C3740 C 0.16803 0.83495 0.23003 0.0
C3741 C 0.14754 0.82565 0.2321 0.0
C3742 C 0.1402 0.82764 0.24355 0.0
C3743 C 0.17559 0.83223 0.21791 0.0
C3744 C 0.16838 0.83592 0.20685 0.0
C3745 C 0.18968 0.82598 0.21716 0.0
C3746 C 0.19764 0.82148 0.22846 0.0
C3747 C 0.18488 0.80726 0.2369 0.0
C3748 C 0.19248 0.80346 0.24768 0.0
C3749 C 0.21283 0.81371 0.25008 0.0
C3750 C 0.22563 0.82777 0.2417 0.0
C3751 C 0.21811 0.83161 0.23089 0.0
H3752 H 0.21868 0.8108 0.25845 0.0
H3753 H 0.14736 0.85133 0.15413 0.0
H3754 H 0.21612 0.43641 0.16902 0.0
H3755 H 0.20809 0.42141 0.18978 0.0
H3756 H 0.18882 0.36518 0.173 0.0
H3757 H 0.1973 0.38015 0.15229 0.0
H3758 H 0.16151 0.36929 0.19143 0.0
H3759 H 0.22908 0.38277 0.18566 0.0
H3760 H 0.26466 0.40429 0.18174 0.0
H3761 H 0.26929 0.43883 0.21393 0.0
H3762 H 0.23363 0.41771 0.21791 0.0
H3763 H 0.14617 0.30777 0.2418 0.0
H3764 H 0.15522 0.3256 0.22245 0.0
H3765 H 0.1961 0.37808 0.24234 0.0
H3766 H 0.18895 0.35976 0.26161 0.0
H3767 H 0.21263 0.37853 0.22266 0.0
H3768 H 0.14768 0.3673 0.2297 0.0
H3769 H 0.11202 0.34867 0.23433 0.0
H3770 H 0.1017 0.31425 0.20113 0.0
H3771 H 0.13734 0.3325 0.19638 0.0
C3772 C 0.2102 0.42086 0.16979 0.0
C3773 C 0.20736 0.40942 0.15908 0.0
C3774 C 0.20568 0.41234 0.18163 0.0
C3775 C 0.19789 0.39221 0.1829 0.0
C3776 C 0.19484 0.38074 0.1722 0.0
C3777 C 0.19975 0.3893 0.16041 0.0
C3778 C 0.19267 0.38299 0.19536 0.0
C3779 C 0.17263 0.37112 0.19826 0.0
C3780 C 0.20721 0.38611 0.20441 0.0
C3781 C 0.22862 0.39882 0.20197 0.0
C3782 C 0.23762 0.3951 0.19181 0.0
C3783 C 0.25782 0.40719 0.1896 0.0
C3784 C 0.26921 0.42297 0.19755 0.0
C3785 C 0.26044 0.42664 0.20776 0.0
C3786 C 0.24023 0.41462 0.20999 0.0
C3787 C 0.15739 0.32301 0.24215 0.0
C3788 C 0.16686 0.33211 0.25346 0.0
C3789 C 0.16223 0.33339 0.231 0.0
C3790 C 0.17603 0.35342 0.23084 0.0
C3791 C 0.18532 0.36267 0.24212 0.0
C3792 C 0.18094 0.35215 0.25325 0.0
C3793 C 0.18126 0.36444 0.21885 0.0
C3794 C 0.20134 0.37672 0.21598 0.0
C3795 C 0.16669 0.36215 0.20995 0.0
C3796 C 0.14522 0.35118 0.21274 0.0
C3797 C 0.13783 0.35568 0.22343 0.0
C3798 C 0.11761 0.34519 0.22607 0.0
C3799 C 0.10461 0.33026 0.21804 0.0
C3800 C 0.11179 0.32581 0.20734 0.0
C3801 C 0.13199 0.33624 0.20466 0.0
H3802 H 0.08897 0.32216 0.22011 0.0
H3803 H 0.28485 0.4323 0.19583 0.0
H3804 H 0.76871 0.57455 0.84498 0.0
H3805 H 0.77563 0.58903 0.82418 0.0
H3806 H 0.83496 0.63091 0.83598 0.0
H3807 H 0.82799 0.61688 0.85685 0.0
H3808 H 0.81851 0.64816 0.82316 0.0
H3809 H 0.82559 0.59173 0.8176 0.0
H3810 H 0.81498 0.5568 0.81836 0.0
H3811 H 0.76639 0.54379 0.79365 0.0
H3812 H 0.77656 0.57864 0.79288 0.0
H3813 H 0.86506 0.6849 0.76578 0.0
H3814 H 0.8554 0.66769 0.7856 0.0
H3815 H 0.79691 0.62932 0.77085 0.0
H3816 H 0.80647 0.64663 0.75093 0.0
H3817 H 0.81073 0.60958 0.7848 0.0
H3818 H 0.80434 0.66613 0.78978 0.0
H3819 H 0.81515 0.7011 0.78886 0.0
H3820 H 0.86237 0.71385 0.81471 0.0
H3821 H 0.85202 0.67896 0.81564 0.0
C3822 C 0.78319 0.58694 0.84318 0.0
C3823 C 0.79782 0.59451 0.85259 0.0
C3824 C 0.78718 0.59508 0.83124 0.0
C3825 C 0.8059 0.61094 0.82846 0.0
C3826 C 0.82044 0.61864 0.83788 0.0
C3827 C 0.81648 0.6105 0.84979 0.0
C3828 C 0.81033 0.61978 0.81582 0.0
C3829 C 0.81702 0.63975 0.8148 0.0
C3830 C 0.80785 0.60872 0.80484 0.0
C3831 C 0.80171 0.58777 0.8053 0.0
C3832 C 0.81254 0.5814 0.81242 0.0
C3833 C 0.80663 0.56162 0.81283 0.0
C3834 C 0.78999 0.54808 0.80609 0.0
C3835 C 0.77926 0.55429 0.79889 0.0
C3836 C 0.7851 0.57406 0.79845 0.0
C3837 C 0.8501 0.67284 0.76674 0.0
C3838 C 0.83646 0.66732 0.7568 0.0
C3839 C 0.84462 0.66298 0.77808 0.0
C3840 C 0.82532 0.64743 0.77979 0.0
C3841 C 0.81186 0.64133 0.76975 0.0
C3842 C 0.81736 0.6512 0.75836 0.0
C3843 C 0.81919 0.638 0.7922 0.0
C3844 C 0.81214 0.61795 0.79317 0.0
C3845 C 0.82131 0.64896 0.80316 0.0
C3846 C 0.8275 0.66994 0.80269 0.0
C3847 C 0.81712 0.6764 0.7952 0.0
C3848 C 0.82315 0.69621 0.79469 0.0
C3849 C 0.83947 0.70969 0.8017 0.0
C3850 C 0.84975 0.70339 0.80927 0.0
C3851 C 0.84379 0.6836 0.8098 0.0
H3852 H 0.84412 0.72502 0.80129 0.0
H3853 H 0.78543 0.53277 0.80642 0.0
H3854 H 0.3929 0.17034 0.84796 0.0
H3855 H 0.377 0.16295 0.82744 0.0
H3856 H 0.36293 0.20867 0.83248 0.0
H3857 H 0.37759 0.21528 0.8533 0.0
H3858 H 0.33312 0.17922 0.82221 0.0
H3859 H 0.40284 0.21452 0.81446 0.0
H3860 H 0.43736 0.22159 0.81587 0.0
H3861 H 0.42081 0.16666 0.79837 0.0
H3862 H 0.38612 0.15915 0.797 0.0
H3863 H 0.34436 0.19224 0.75026 0.0
H3864 H 0.35891 0.19718 0.77109 0.0
H3865 H 0.30725 0.14486 0.78357 0.0
H3866 H 0.29242 0.14016 0.76277 0.0
H3867 H 0.37 0.1777 0.78503 0.0
H3868 H 0.29824 0.14984 0.8138 0.0
H3869 H 0.2655 0.14731 0.81197 0.0
H3870 H 0.28937 0.19556 0.78677 0.0
H3871 H 0.32228 0.19854 0.78857 0.0
C3872 C 0.38615 0.17863 0.8448 0.0
C3873 C 0.38666 0.19351 0.85228 0.0
C3874 C 0.37728 0.17454 0.83299 0.0
C3875 C 0.36906 0.18548 0.82833 0.0
C3876 C 0.36925 0.20009 0.83585 0.0
C3877 C 0.37787 0.20402 0.84771 0.0
C3878 C 0.36039 0.18187 0.81559 0.0
C3879 C 0.34118 0.17884 0.81409 0.0
C3880 C 0.37101 0.18171 0.80495 0.0
C3881 C 0.39186 0.18619 0.80575 0.0
C3882 C 0.40654 0.20389 0.811 0.0
C3883 C 0.42614 0.20798 0.81178 0.0
C3884 C 0.43127 0.19456 0.80725 0.0
C3885 C 0.41681 0.17703 0.8019 0.0
C3886 C 0.39718 0.17285 0.80111 0.0
C3887 C 0.33613 0.18179 0.75744 0.0
C3888 C 0.31716 0.16596 0.75493 0.0
C3889 C 0.34447 0.18459 0.76933 0.0
C3890 C 0.33407 0.17153 0.77894 0.0
C3891 C 0.31536 0.15536 0.77637 0.0
C3892 C 0.3069 0.15269 0.7645 0.0
C3893 C 0.34274 0.17505 0.79167 0.0
C3894 C 0.36192 0.17798 0.79316 0.0
C3895 C 0.33234 0.17578 0.80226 0.0
C3896 C 0.31266 0.17426 0.80122 0.0
C3897 C 0.2965 0.15994 0.8079 0.0
C3898 C 0.27792 0.15843 0.80687 0.0
C3899 C 0.27534 0.17122 0.79923 0.0
C3900 C 0.29136 0.18561 0.79264 0.0
C3901 C 0.30998 0.18721 0.79366 0.0
H3902 H 0.26094 0.17001 0.79843 0.0
H3903 H 0.44645 0.19776 0.80785 0.0
H3904 H 0.78498 0.16331 0.85656 0.0
H3905 H 0.79258 0.15501 0.83609 0.0
H3906 H 0.80242 0.20975 0.8216 0.0
H3907 H 0.7945 0.21801 0.84201 0.0
H3908 H 0.78091 0.17893 0.8052 0.0
H3909 H 0.84101 0.20515 0.82948 0.0
H3910 H 0.86146 0.20745 0.84772 0.0
H3911 H 0.84818 0.14861 0.84141 0.0
H3912 H 0.82741 0.14588 0.82323 0.0
H3913 H 0.83682 0.18604 0.75134 0.0
H3914 H 0.82394 0.19067 0.77098 0.0
H3915 H 0.81915 0.13768 0.78511 0.0
H3916 H 0.83189 0.13284 0.76541 0.0
H3917 H 0.837 0.16646 0.80171 0.0
H3918 H 0.7761 0.13903 0.77845 0.0
H3919 H 0.75443 0.13528 0.76059 0.0
H3920 H 0.76899 0.19486 0.76468 0.0
H3921 H 0.79041 0.19883 0.78278 0.0
C3922 C 0.78853 0.17348 0.84898 0.0
C3923 C 0.78922 0.19136 0.85092 0.0
C3924 C 0.793 0.16878 0.83731 0.0
C3925 C 0.79825 0.18185 0.82735 0.0
C3926 C 0.79845 0.19947 0.82916 0.0
C3927 C 0.79409 0.20424 0.84085 0.0
C3928 C 0.8041 0.17738 0.81516 0.0
C3929 C 0.7933 0.17641 0.80441 0.0
C3930 C 0.81996 0.17361 0.81417 0.0
C3931 C 0.83249 0.17525 0.82508 0.0
C3932 C 0.84232 0.19265 0.83205 0.0
C3933 C 0.85399 0.19404 0.84236 0.0
C3934 C 0.85607 0.17817 0.84575 0.0
C3935 C 0.84652 0.16089 0.83879 0.0
C3936 C 0.83481 0.15941 0.82848 0.0
C3937 C 0.83271 0.17517 0.75853 0.0
C3938 C 0.83546 0.15909 0.75679 0.0
C3939 C 0.82533 0.17785 0.76977 0.0
C3940 C 0.82042 0.16444 0.7795 0.0
C3941 C 0.82288 0.14823 0.77774 0.0
C3942 C 0.83027 0.14555 0.7665 0.0
C3943 C 0.81379 0.16795 0.79173 0.0
C3944 C 0.82451 0.16884 0.80249 0.0
C3945 C 0.7978 0.17151 0.79273 0.0
C3946 C 0.78497 0.16927 0.78188 0.0
C3947 C 0.77474 0.15135 0.7755 0.0
C3948 C 0.76247 0.14918 0.76535 0.0
C3949 C 0.76049 0.16487 0.7614 0.0
C3950 C 0.77058 0.18273 0.76772 0.0
C3951 C 0.78268 0.18491 0.77798 0.0
H3952 H 0.75108 0.16317 0.75349 0.0
H3953 H 0.86511 0.17927 0.85373 0.0
H3954 H 0.31048 0.13258 0.48684 0.0
H3955 H 0.32492 0.13879 0.50778 0.0
H3956 H 0.29132 0.16628 0.51821 0.0
H3957 H 0.27659 0.15992 0.49728 0.0
H3958 H 0.32984 0.18688 0.52647 0.0
H3959 H 0.27621 0.12114 0.5276 0.0
H3960 H 0.25614 0.08713 0.52035 0.0
H3961 H 0.3059 0.07861 0.52532 0.0
H3962 H 0.32637 0.11269 0.53243 0.0
H3963 H 0.34426 0.18516 0.59202 0.0
H3964 H 0.3301 0.18098 0.57109 0.0
H3965 H 0.36056 0.15081 0.55947 0.0
H3966 H 0.37418 0.15428 0.58052 0.0
H3967 H 0.32276 0.13176 0.55199 0.0
H3968 H 0.37652 0.19785 0.55068 0.0
H3969 H 0.3964 0.23189 0.55793 0.0
H3970 H 0.34615 0.23974 0.55342 0.0
H3971 H 0.32588 0.20565 0.54631 0.0
C3972 C 0.30603 0.13981 0.49362 0.0
C3973 C 0.29224 0.1456 0.49044 0.0
C3974 C 0.31435 0.1434 0.50555 0.0
C3975 C 0.30899 0.15277 0.51457 0.0
C3976 C 0.29562 0.15902 0.51137 0.0
C3977 C 0.28727 0.15542 0.49941 0.0
C3978 C 0.31721 0.15579 0.52739 0.0
C3979 C 0.32808 0.17483 0.53213 0.0
C3980 C 0.31517 0.14006 0.53465 0.0
C3981 C 0.30288 0.11952 0.53043 0.0
C3982 C 0.28292 0.11206 0.52705 0.0
C3983 C 0.27147 0.09276 0.52298 0.0
C3984 C 0.27975 0.08073 0.52235 0.0
C3985 C 0.29951 0.08796 0.52581 0.0
C3986 C 0.31104 0.10726 0.52986 0.0
C3987 C 0.34787 0.17755 0.58503 0.0
C3988 C 0.36032 0.17002 0.58793 0.0
C3989 C 0.33993 0.17535 0.57303 0.0
C3990 C 0.34443 0.16575 0.56369 0.0
C3991 C 0.35694 0.15832 0.56654 0.0
C3992 C 0.36485 0.16047 0.57854 0.0
C3993 C 0.33562 0.16289 0.55105 0.0
C3994 C 0.32455 0.14384 0.54634 0.0
C3995 C 0.33746 0.17862 0.54384 0.0
C3996 C 0.34964 0.19914 0.54808 0.0
C3997 C 0.36967 0.20679 0.55133 0.0
C3998 C 0.38101 0.2261 0.5554 0.0
C3999 C 0.37253 0.23796 0.55617 0.0
C4000 C 0.35269 0.23054 0.55284 0.0
C4001 C 0.34128 0.21123 0.54878 0.0
H4002 H 0.38133 0.25291 0.55932 0.0
H4003 H 0.27086 0.06579 0.5192 0.0
H4004 H 0.87278 0.16589 0.48679 0.0
H4005 H 0.8648 0.17239 0.50765 0.0
H4006 H 0.86795 0.12321 0.5219 0.0
H4007 H 0.87542 0.11638 0.50094 0.0
H4008 H 0.83723 0.12267 0.53112 0.0
H4009 H 0.90503 0.17173 0.52765 0.0
H4010 H 0.93448 0.19903 0.51812 0.0
H4011 H 0.90725 0.23446 0.52009 0.0
H4012 H 0.8775 0.20727 0.52948 0.0
H4013 H 0.83382 0.14628 0.59458 0.0
H4014 H 0.84598 0.14115 0.57483 0.0
H4015 H 0.83782 0.18585 0.55787 0.0
H4016 H 0.82636 0.19164 0.57776 0.0
H4017 H 0.87232 0.18836 0.55069 0.0
H4018 H 0.80364 0.13725 0.55367 0.0
H4019 H 0.7757 0.10992 0.56436 0.0
H4020 H 0.80694 0.07817 0.56446 0.0
H4021 H 0.83516 0.10541 0.55387 0.0
C4022 C 0.87196 0.15659 0.4944 0.0
C4023 C 0.87477 0.14066 0.49224 0.0
C4024 C 0.86744 0.16034 0.50634 0.0
C4025 C 0.86604 0.14847 0.51643 0.0
C4026 C 0.86893 0.13258 0.51429 0.0
C4027 C 0.8732 0.12869 0.50231 0.0
C4028 C 0.86098 0.15228 0.52913 0.0
C4029 C 0.84513 0.13699 0.53545 0.0
C4030 C 0.87108 0.17099 0.5348 0.0
C4031 C 0.88895 0.1874 0.52916 0.0
C4032 C 0.90525 0.18529 0.52596 0.0
C4033 C 0.92201 0.20075 0.5206 0.0
C4034 C 0.92271 0.21845 0.51847 0.0
C4035 C 0.90667 0.22073 0.52173 0.0
C4036 C 0.88986 0.20531 0.52708 0.0
C4037 C 0.8348 0.1552 0.58672 0.0
C4038 C 0.82884 0.16922 0.58778 0.0
C4039 C 0.84162 0.15213 0.57538 0.0
C4040 C 0.8425 0.16289 0.56481 0.0
C4041 C 0.83714 0.17728 0.56589 0.0
C4042 C 0.83037 0.18041 0.57725 0.0
C4043 C 0.84852 0.15883 0.55253 0.0
C4044 C 0.86453 0.17407 0.54632 0.0
C4045 C 0.83876 0.14002 0.54704 0.0
C4046 C 0.82155 0.12341 0.55305 0.0
C4047 C 0.80456 0.12446 0.556 0.0
C4048 C 0.78868 0.10899 0.56204 0.0
C4049 C 0.78955 0.09233 0.56509 0.0
C4050 C 0.80628 0.09108 0.56208 0.0
C4051 C 0.82221 0.10651 0.55604 0.0
H4052 H 0.77725 0.08038 0.56978 0.0
H4053 H 0.9357 0.2304 0.51432 0.0
H4054 H 0.84087 0.71826 0.48594 0.0
H4055 H 0.83394 0.70556 0.50715 0.0
H4056 H 0.89443 0.7455 0.51786 0.0
H4057 H 0.90149 0.75828 0.4966 0.0
H4058 H 0.88274 0.71042 0.52724 0.0
H4059 H 0.85666 0.75349 0.52655 0.0
H4060 H 0.83686 0.76748 0.5185 0.0
H4061 H 0.78362 0.71254 0.52317 0.0
H4062 H 0.80313 0.69814 0.53109 0.0
H4063 H 0.86245 0.68923 0.59198 0.0
H4064 H 0.87205 0.70718 0.57231 0.0
H4065 H 0.81361 0.66926 0.55731 0.0
H4066 H 0.80378 0.6517 0.57701 0.0
H4067 H 0.82629 0.70621 0.55096 0.0
H4068 H 0.85297 0.66282 0.55021 0.0
H4069 H 0.87292 0.64899 0.55826 0.0
H4070 H 0.92538 0.7052 0.55643 0.0
H4071 H 0.90567 0.71941 0.54851 0.0
C4072 C 0.85268 0.7245 0.49283 0.0
C4073 C 0.87172 0.7394 0.48956 0.0
C4074 C 0.84869 0.71721 0.50497 0.0
C4075 C 0.86358 0.72476 0.51419 0.0
C4076 C 0.88268 0.73944 0.51093 0.0
C4077 C 0.88671 0.7467 0.49875 0.0
C4078 C 0.8592 0.71714 0.52717 0.0
C4079 C 0.87061 0.70982 0.5325 0.0
C4080 C 0.84319 0.71606 0.53402 0.0
C4081 C 0.83138 0.72469 0.52932 0.0
C4082 C 0.84074 0.74435 0.52578 0.0
C4083 C 0.82957 0.75236 0.52125 0.0
C4084 C 0.809 0.7409 0.5203 0.0
C4085 C 0.79956 0.7214 0.5239 0.0
C4086 C 0.81066 0.71331 0.52843 0.0
C4087 C 0.85157 0.6849 0.58455 0.0
C4088 C 0.83239 0.6689 0.58604 0.0
C4089 C 0.85713 0.69506 0.57327 0.0
C4090 C 0.84365 0.6894 0.56324 0.0
C4091 C 0.82432 0.67386 0.56487 0.0
C4092 C 0.81877 0.66372 0.57612 0.0
C4093 C 0.84964 0.69924 0.55093 0.0
C4094 C 0.83853 0.70699 0.54573 0.0
C4095 C 0.86595 0.70076 0.54422 0.0
C4096 C 0.87782 0.69221 0.5489 0.0
C4097 C 0.86873 0.67225 0.55161 0.0
C4098 C 0.88 0.66434 0.55614 0.0
C4099 C 0.90039 0.67622 0.55789 0.0
C4100 C 0.90957 0.69602 0.55509 0.0
C4101 C 0.89837 0.70401 0.55057 0.0
H4102 H 0.90909 0.67006 0.5614 0.0
H4103 H 0.80038 0.74713 0.51679 0.0
loop_
_geom_bond_atom_site_label_1
_geom_bond_atom_site_label_2
_geom_bond_distance
_geom_bond_site_symmetry_2
_ccdc_geom_bond_type
C0 C1 1.384 . S
C0 H13 0.947 . S
C0 C35 1.382 . S
C1 C0 1.384 . S
C1 C2 1.378 . S
C2 C1 1.378 . S
C2 C3 1.378 . S
C2 H14 0.952 . S
C3 C2 1.378 . S
C3 H15 0.950 . S
C3 C34 1.383 . S
H4 C23 0.947 . S
H5 C24 0.946 . S
H6 C26 0.953 . S
H7 C27 0.945 . S
H8 C29 0.952 . S
H9 C30 0.949 . S
H10 C32 0.950 . S
H11 C33 0.948 . S
H12 C35 0.951 . S
H13 C0 0.947 . S
H14 C2 0.952 . S
H15 C3 0.950 . S
N16 C19 1.382 . S
N16 C21 1.363 . S
N17 C19 1.371 . S
N17 C20 1.372 . S
N18 C20 1.361 . S
N18 C21 1.377 . S
C19 N16 1.382 . S
C19 N17 1.371 . S
C19 C22 1.480 . S
C20 N17 1.372 . S
C20 N18 1.361 . S
C20 C28 1.457 . S
C21 N16 1.363 . S
C21 N18 1.377 . S
C21 C34 1.479 . S
C22 C19 1.480 . S
C22 C23 1.383 . S
C22 C27 1.385 . S
C23 H4 0.947 . S
C23 C22 1.383 . S
C23 C24 1.388 . S
C24 H5 0.946 . S
C24 C23 1.388 . S
C24 C25 1.384 . S
C25 C24 1.384 . S
C25 C26 1.377 . S
C26 H6 0.953 . S
C26 C25 1.377 . S
C26 C27 1.369 . S
C27 H7 0.945 . S
C27 C22 1.385 . S
C27 C26 1.369 . S
C28 C20 1.457 . S
C28 C29 1.372 . S
C28 C33 1.364 . S
C29 H8 0.952 . S
C29 C28 1.372 . S
C29 C30 1.389 . S
C30 H9 0.949 . S
C30 C29 1.389 . S
C30 C31 1.387 . S
C31 C30 1.387 . S
C31 C32 1.372 . S
C32 H10 0.950 . S
C32 C31 1.372 . S
C32 C33 1.379 . S
C33 H11 0.948 . S
C33 C28 1.364 . S
C33 C32 1.379 . S
C34 C3 1.383 . S
C34 C21 1.479 . S
C34 C35 1.398 . S
C35 C0 1.382 . S
C35 H12 0.951 . S
C35 C34 1.398 . S
C36 C37 1.384 . S
C36 H49 0.947 . S
C36 C71 1.382 . S
C37 C36 1.384 . S
C37 C38 1.378 . S
C38 C37 1.378 . S
C38 C39 1.378 . S
C38 H50 0.952 . S
C39 C38 1.378 . S
C39 H51 0.950 . S
C39 C70 1.383 . S
H40 C59 0.947 . S
H41 C60 0.946 . S
H42 C62 0.953 . S
H43 C63 0.945 . S
H44 C65 0.952 . S
H45 C66 0.949 . S
H46 C68 0.950 . S
H47 C69 0.948 . S
H48 C71 0.951 . S
H49 C36 0.947 . S
H50 C38 0.952 . S
H51 C39 0.950 . S
N52 C55 1.382 . S
N52 C57 1.363 . S
N53 C55 1.371 . S
N53 C56 1.372 . S
N54 C56 1.361 . S
N54 C57 1.377 . S
C55 N52 1.382 . S
C55 N53 1.371 . S
C55 C58 1.480 . S
C56 N53 1.372 . S
C56 N54 1.361 . S
C56 C64 1.457 . S
C57 N52 1.363 . S
C57 N54 1.377 . S
C57 C70 1.479 . S
C58 C55 1.480 . S
C58 C59 1.383 . S
C58 C63 1.385 . S
C59 H40 0.947 . S
C59 C58 1.383 . S
C59 C60 1.388 . S
C60 H41 0.946 . S
C60 C59 1.388 . S
C60 C61 1.384 . S
C61 C60 1.384 . S
C61 C62 1.377 . S
C62 H42 0.953 . S
C62 C61 1.377 . S
C62 C63 1.369 . S
C63 H43 0.945 . S
C63 C58 1.385 . S
C63 C62 1.369 . S
C64 C56 1.457 . S
C64 C65 1.372 . S
C64 C69 1.364 . S
C65 H44 0.952 . S
C65 C64 1.372 . S
C65 C66 1.389 . S
C66 H45 0.949 . S
C66 C65 1.389 . S
C66 C67 1.387 . S
C67 C66 1.387 . S
C67 C68 1.372 . S
C68 H46 0.950 . S
C68 C67 1.372 . S
C68 C69 1.379 . S
C69 H47 0.948 . S
C69 C64 1.364 . S
C69 C68 1.379 . S
C70 C39 1.383 . S
C70 C57 1.479 . S
C70 C71 1.398 . S
C71 C36 1.382 . S
C71 H48 0.951 . S
C71 C70 1.398 . S
C72 C73 1.384 . S
C72 H85 0.947 . S
C72 C107 1.382 . S
C73 C72 1.384 . S
C73 C74 1.378 . S
C74 C73 1.378 . S
C74 C75 1.378 . S
C74 H86 0.952 . S
C75 C74 1.378 . S
C75 H87 0.950 . S
C75 C106 1.383 . S
H76 C95 0.947 . S
H77 C96 0.946 . S
H78 C98 0.953 . S
H79 C99 0.945 . S
H80 C101 0.952 . S
H81 C102 0.949 . S
H82 C104 0.950 . S
H83 C105 0.948 . S
H84 C107 0.951 . S
H85 C72 0.947 . S
H86 C74 0.952 . S
H87 C75 0.950 . S
N88 C91 1.382 . S
N88 C93 1.363 . S
N89 C91 1.371 . S
N89 C92 1.372 . S
N90 C92 1.361 . S
N90 C93 1.377 . S
C91 N88 1.382 . S
C91 N89 1.371 . S
C91 C94 1.480 . S
C92 N89 1.372 . S
C92 N90 1.361 . S
C92 C100 1.457 . S
C93 N88 1.363 . S
C93 N90 1.377 . S
C93 C106 1.479 . S
C94 C91 1.480 . S
C94 C95 1.383 . S
C94 C99 1.385 . S
C95 H76 0.947 . S
C95 C94 1.383 . S
C95 C96 1.388 . S
C96 H77 0.946 . S
C96 C95 1.388 . S
C96 C97 1.384 . S
C97 C96 1.384 . S
C97 C98 1.377 . S
C98 H78 0.953 . S
C98 C97 1.377 . S
C98 C99 1.369 . S
C99 H79 0.945 . S
C99 C94 1.385 . S
C99 C98 1.369 . S
C100 C92 1.457 . S
C100 C101 1.372 . S
C100 C105 1.364 . S
C101 H80 0.952 . S
C101 C100 1.372 . S
C101 C102 1.389 . S
C102 H81 0.949 . S
C102 C101 1.389 . S
C102 C103 1.387 . S
C103 C102 1.387 . S
C103 C104 1.372 . S
C104 H82 0.950 . S
C104 C103 1.372 . S
C104 C105 1.379 . S
C105 H83 0.948 . S
C105 C100 1.364 . S
C105 C104 1.379 . S
C106 C75 1.383 . S
C106 C93 1.479 . S
C106 C107 1.398 . S
C107 C72 1.382 . S
C107 H84 0.951 . S
C107 C106 1.398 . S
C108 C109 1.384 . S
C108 H121 0.947 . S
C108 C143 1.382 . S
C109 C108 1.384 . S
C109 C110 1.378 . S
C110 C109 1.378 . S
C110 C111 1.378 . S
C110 H122 0.952 . S
C111 C110 1.378 . S
C111 H123 0.950 . S
C111 C142 1.383 . S
H112 C131 0.947 . S
H113 C132 0.946 . S
H114 C134 0.953 . S
H115 C135 0.945 . S
H116 C137 0.952 . S
H117 C138 0.949 . S
H118 C140 0.950 . S
H119 C141 0.948 . S
H120 C143 0.951 . S
H121 C108 0.947 . S
H122 C110 0.952 . S
H123 C111 0.950 . S
N124 C127 1.382 . S
N124 C129 1.363 . S
N125 C127 1.371 . S
N125 C128 1.372 . S
N126 C128 1.361 . S
N126 C129 1.377 . S
C127 N124 1.382 . S
C127 N125 1.371 . S
C127 C130 1.480 . S
C128 N125 1.372 . S
C128 N126 1.361 . S
C128 C136 1.457 . S
C129 N124 1.363 . S
C129 N126 1.377 . S
C129 C142 1.479 . S
C130 C127 1.480 . S
C130 C131 1.383 . S
C130 C135 1.385 . S
C131 H112 0.947 . S
C131 C130 1.383 . S
C131 C132 1.388 . S
C132 H113 0.946 . S
C132 C131 1.388 . S
C132 C133 1.384 . S
C133 C132 1.384 . S
C133 C134 1.377 . S
C134 H114 0.953 . S
C134 C133 1.377 . S
C134 C135 1.369 . S
C135 H115 0.945 . S
C135 C130 1.385 . S
C135 C134 1.369 . S
C136 C128 1.457 . S
C136 C137 1.372 . S
C136 C141 1.364 . S
C137 H116 0.952 . S
C137 C136 1.372 . S
C137 C138 1.389 . S
C138 H117 0.949 . S
C138 C137 1.389 . S
C138 C139 1.387 . S
C139 C138 1.387 . S
C139 C140 1.372 . S
C140 H118 0.950 . S
C140 C139 1.372 . S
C140 C141 1.379 . S
C141 H119 0.948 . S
C141 C136 1.364 . S
C141 C140 1.379 . S
C142 C111 1.383 . S
C142 C129 1.479 . S
C142 C143 1.398 . S
C143 C108 1.382 . S
C143 H120 0.951 . S
C143 C142 1.398 . S
C144 C145 1.384 . S
C144 H157 0.947 . S
C144 C179 1.382 . S
C145 C144 1.384 . S
C145 C146 1.378 . S
C146 C145 1.378 . S
C146 C147 1.378 . S
C146 H158 0.952 . S
C147 C146 1.378 . S
C147 H159 0.950 . S
C147 C178 1.383 . S
H148 C167 0.947 . S
H149 C168 0.946 . S
H150 C170 0.953 . S
H151 C171 0.945 . S
H152 C173 0.952 . S
H153 C174 0.949 . S
H154 C176 0.950 . S
H155 C177 0.948 . S
H156 C179 0.951 . S
H157 C144 0.947 . S
H158 C146 0.952 . S
H159 C147 0.950 . S
N160 C163 1.382 . S
N160 C165 1.363 . S
N161 C163 1.371 . S
N161 C164 1.372 . S
N162 C164 1.361 . S
N162 C165 1.377 . S
C163 N160 1.382 . S
C163 N161 1.371 . S
C163 C166 1.480 . S
C164 N161 1.372 . S
C164 N162 1.361 . S
C164 C172 1.457 . S
C165 N160 1.363 . S
C165 N162 1.377 . S
C165 C178 1.479 . S
C166 C163 1.480 . S
C166 C167 1.383 . S
C166 C171 1.385 . S
C167 H148 0.947 . S
C167 C166 1.383 . S
C167 C168 1.388 . S
C168 H149 0.946 . S
C168 C167 1.388 . S
C168 C169 1.384 . S
C169 C168 1.384 . S
C169 C170 1.377 . S
C170 H150 0.953 . S
C170 C169 1.377 . S
C170 C171 1.369 . S
C171 H151 0.945 . S
C171 C166 1.385 . S
C171 C170 1.369 . S
C172 C164 1.457 . S
C172 C173 1.372 . S
C172 C177 1.364 . S
C173 H152 0.952 . S
C173 C172 1.372 . S
C173 C174 1.389 . S
C174 H153 0.949 . S
C174 C173 1.389 . S
C174 C175 1.387 . S
C175 C174 1.387 . S
C175 C176 1.372 . S
C176 H154 0.950 . S
C176 C175 1.372 . S
C176 C177 1.379 . S
C177 H155 0.948 . S
C177 C172 1.364 . S
C177 C176 1.379 . S
C178 C147 1.383 . S
C178 C165 1.479 . S
C178 C179 1.398 . S
C179 C144 1.382 . S
C179 H156 0.951 . S
C179 C178 1.398 . S
C180 C181 1.384 . S
C180 H193 0.947 . S
C180 C215 1.382 . S
C181 C180 1.384 . S
C181 C182 1.378 . S
C182 C181 1.378 . S
C182 C183 1.378 . S
C182 H194 0.952 . S
C183 C182 1.378 . S
C183 H195 0.950 . S
C183 C214 1.383 . S
H184 C203 0.947 . S
H185 C204 0.946 . S
H186 C206 0.953 . S
H187 C207 0.945 . S
H188 C209 0.952 . S
H189 C210 0.949 . S
H190 C212 0.950 . S
H191 C213 0.948 . S
H192 C215 0.951 . S
H193 C180 0.947 . S
H194 C182 0.952 . S
H195 C183 0.950 . S
N196 C199 1.382 . S
N196 C201 1.363 . S
N197 C199 1.371 . S
N197 C200 1.372 . S
N198 C200 1.361 . S
N198 C201 1.377 . S
C199 N196 1.382 . S
C199 N197 1.371 . S
C199 C202 1.480 . S
C200 N197 1.372 . S
C200 N198 1.361 . S
C200 C208 1.457 . S
C201 N196 1.363 . S
C201 N198 1.377 . S
C201 C214 1.479 . S
C202 C199 1.480 . S
C202 C203 1.383 . S
C202 C207 1.385 . S
C203 H184 0.947 . S
C203 C202 1.383 . S
C203 C204 1.388 . S
C204 H185 0.946 . S
C204 C203 1.388 . S
C204 C205 1.384 . S
C205 C204 1.384 . S
C205 C206 1.377 . S
C206 H186 0.953 . S
C206 C205 1.377 . S
C206 C207 1.369 . S
C207 H187 0.945 . S
C207 C202 1.385 . S
C207 C206 1.369 . S
C208 C200 1.457 . S
C208 C209 1.372 . S
C208 C213 1.364 . S
C209 H188 0.952 . S
C209 C208 1.372 . S
C209 C210 1.389 . S
C210 H189 0.949 . S
C210 C209 1.389 . S
C210 C211 1.387 . S
C211 C210 1.387 . S
C211 C212 1.372 . S
C212 H190 0.950 . S
C212 C211 1.372 . S
C212 C213 1.379 . S
C213 H191 0.948 . S
C213 C208 1.364 . S
C213 C212 1.379 . S
C214 C183 1.383 . S
C214 C201 1.479 . S
C214 C215 1.398 . S
C215 C180 1.382 . S
C215 H192 0.951 . S
C215 C214 1.398 . S
C216 C217 1.384 . S
C216 H229 0.947 . S
C216 C251 1.382 . S
C217 C216 1.384 . S
C217 C218 1.378 . S
C218 C217 1.378 . S
C218 C219 1.378 . S
C218 H230 0.952 . S
C219 C218 1.378 . S
C219 H231 0.950 . S
C219 C250 1.383 . S
H220 C239 0.947 . S
H221 C240 0.946 . S
H222 C242 0.953 . S
H223 C243 0.945 . S
H224 C245 0.952 . S
H225 C246 0.949 . S
H226 C248 0.950 . S
H227 C249 0.948 . S
H228 C251 0.951 . S
H229 C216 0.947 . S
H230 C218 0.952 . S
H231 C219 0.950 . S
N232 C235 1.382 . S
N232 C237 1.363 . S
N233 C235 1.371 . S
N233 C236 1.372 . S
N234 C236 1.361 . S
N234 C237 1.377 . S
C235 N232 1.382 . S
C235 N233 1.371 . S
C235 C238 1.480 . S
C236 N233 1.372 . S
C236 N234 1.361 . S
C236 C244 1.457 . S
C237 N232 1.363 . S
C237 N234 1.377 . S
C237 C250 1.479 . S
C238 C235 1.480 . S
C238 C239 1.383 . S
C238 C243 1.385 . S
C239 H220 0.947 . S
C239 C238 1.383 . S
C239 C240 1.388 . S
C240 H221 0.946 . S
C240 C239 1.388 . S
C240 C241 1.384 . S
C241 C240 1.384 . S
C241 C242 1.377 . S
C242 H222 0.953 . S
C242 C241 1.377 . S
C242 C243 1.369 . S
C243 H223 0.945 . S
C243 C238 1.385 . S
C243 C242 1.369 . S
C244 C236 1.457 . S
C244 C245 1.372 . S
C244 C249 1.364 . S
C245 H224 0.952 . S
C245 C244 1.372 . S
C245 C246 1.389 . S
C246 H225 0.949 . S
C246 C245 1.389 . S
C246 C247 1.387 . S
C247 C246 1.387 . S
C247 C248 1.372 . S
C248 H226 0.950 . S
C248 C247 1.372 . S
C248 C249 1.379 . S
C249 H227 0.948 . S
C249 C244 1.364 . S
C249 C248 1.379 . S
C250 C219 1.383 . S
C250 C237 1.479 . S
C250 C251 1.398 . S
C251 C216 1.382 . S
C251 H228 0.951 . S
C251 C250 1.398 . S
C252 C253 1.384 . S
C252 H265 0.947 . S
C252 C287 1.382 . S
C253 C252 1.384 . S
C253 C254 1.378 . S
C254 C253 1.378 . S
C254 C255 1.378 . S
C254 H266 0.952 . S
C255 C254 1.378 . S
C255 H267 0.950 . S
C255 C286 1.383 . S
H256 C275 0.947 . S
H257 C276 0.946 . S
H258 C278 0.953 . S
H259 C279 0.945 . S
H260 C281 0.952 . S
H261 C282 0.949 . S
H262 C284 0.950 . S
H263 C285 0.948 . S
H264 C287 0.951 . S
H265 C252 0.947 . S
H266 C254 0.952 . S
H267 C255 0.950 . S
N268 C271 1.382 . S
N268 C273 1.363 . S
N269 C271 1.371 . S
N269 C272 1.372 . S
N270 C272 1.361 . S
N270 C273 1.377 . S
C271 N268 1.382 . S
C271 N269 1.371 . S
C271 C274 1.480 . S
C272 N269 1.372 . S
C272 N270 1.361 . S
C272 C280 1.457 . S
C273 N268 1.363 . S
C273 N270 1.377 . S
C273 C286 1.479 . S
C274 C271 1.480 . S
C274 C275 1.383 . S
C274 C279 1.385 . S
C275 H256 0.947 . S
C275 C274 1.383 . S
C275 C276 1.388 . S
C276 H257 0.946 . S
C276 C275 1.388 . S
C276 C277 1.384 . S
C277 C276 1.384 . S
C277 C278 1.377 . S
C278 H258 0.953 . S
C278 C277 1.377 . S
C278 C279 1.369 . S
C279 H259 0.945 . S
C279 C274 1.385 . S
C279 C278 1.369 . S
C280 C272 1.457 . S
C280 C281 1.372 . S
C280 C285 1.364 . S
C281 H260 0.952 . S
C281 C280 1.372 . S
C281 C282 1.389 . S
C282 H261 0.949 . S
C282 C281 1.389 . S
C282 C283 1.387 . S
C283 C282 1.387 . S
C283 C284 1.372 . S
C284 H262 0.950 . S
C284 C283 1.372 . S
C284 C285 1.379 . S
C285 H263 0.948 . S
C285 C280 1.364 . S
C285 C284 1.379 . S
C286 C255 1.383 . S
C286 C273 1.479 . S
C286 C287 1.398 . S
C287 C252 1.382 . S
C287 H264 0.951 . S
C287 C286 1.398 . S
C288 C289 1.384 . S
C288 H301 0.947 . S
C288 C323 1.382 . S
C289 C288 1.384 . S
C289 C290 1.378 . S
C290 C289 1.378 . S
C290 C291 1.378 . S
C290 H302 0.952 . S
C291 C290 1.378 . S
C291 H303 0.950 . S
C291 C322 1.383 . S
H292 C311 0.947 . S
H293 C312 0.946 . S
H294 C314 0.953 . S
H295 C315 0.945 . S
H296 C317 0.952 . S
H297 C318 0.949 . S
H298 C320 0.950 . S
H299 C321 0.948 . S
H300 C323 0.951 . S
H301 C288 0.947 . S
H302 C290 0.952 . S
H303 C291 0.950 . S
N304 C307 1.382 . S
N304 C309 1.363 . S
N305 C307 1.371 . S
N305 C308 1.372 . S
N306 C308 1.361 . S
N306 C309 1.377 . S
C307 N304 1.382 . S
C307 N305 1.371 . S
C307 C310 1.480 . S
C308 N305 1.372 . S
C308 N306 1.361 . S
C308 C316 1.457 . S
C309 N304 1.363 . S
C309 N306 1.377 . S
C309 C322 1.479 . S
C310 C307 1.480 . S
C310 C311 1.383 . S
C310 C315 1.385 . S
C311 H292 0.947 . S
C311 C310 1.383 . S
C311 C312 1.388 . S
C312 H293 0.946 . S
C312 C311 1.388 . S
C312 C313 1.384 . S
C313 C312 1.384 . S
C313 C314 1.377 . S
C314 H294 0.953 . S
C314 C313 1.377 . S
C314 C315 1.369 . S
C315 H295 0.945 . S
C315 C310 1.385 . S
C315 C314 1.369 . S
C316 C308 1.457 . S
C316 C317 1.372 . S
C316 C321 1.364 . S
C317 H296 0.952 . S
C317 C316 1.372 . S
C317 C318 1.389 . S
C318 H297 0.949 . S
C318 C317 1.389 . S
C318 C319 1.387 . S
C319 C318 1.387 . S
C319 C320 1.372 . S
C320 H298 0.950 . S
C320 C319 1.372 . S
C320 C321 1.379 . S
C321 H299 0.948 . S
C321 C316 1.364 . S
C321 C320 1.379 . S
C322 C291 1.383 . S
C322 C309 1.479 . S
C322 C323 1.398 . S
C323 C288 1.382 . S
C323 H300 0.951 . S
C323 C322 1.398 . S
C324 C325 1.384 . S
C324 H337 0.947 . S
C324 C359 1.382 . S
C325 C324 1.384 . S
C325 C326 1.378 . S
C326 C325 1.378 . S
C326 C327 1.378 . S
C326 H338 0.952 . S
C327 C326 1.378 . S
C327 H339 0.950 . S
C327 C358 1.383 . S
H328 C347 0.947 . S
H329 C348 0.946 . S
H330 C350 0.953 . S
H331 C351 0.945 . S
H332 C353 0.952 . S
H333 C354 0.949 . S
H334 C356 0.950 . S
H335 C357 0.948 . S
H336 C359 0.951 . S
H337 C324 0.947 . S
H338 C326 0.952 . S
H339 C327 0.950 . S
N340 C343 1.382 . S
N340 C345 1.363 . S
N341 C343 1.371 . S
N341 C344 1.372 . S
N342 C344 1.361 . S
N342 C345 1.377 . S
C343 N340 1.382 . S
C343 N341 1.371 . S
C343 C346 1.480 . S
C344 N341 1.372 . S
C344 N342 1.361 . S
C344 C352 1.457 . S
C345 N340 1.363 . S
C345 N342 1.377 . S
C345 C358 1.479 . S
C346 C343 1.480 . S
C346 C347 1.383 . S
C346 C351 1.385 . S
C347 H328 0.947 . S
C347 C346 1.383 . S
C347 C348 1.388 . S
C348 H329 0.946 . S
C348 C347 1.388 . S
C348 C349 1.384 . S
C349 C348 1.384 . S
C349 C350 1.377 . S
C350 H330 0.953 . S
C350 C349 1.377 . S
C350 C351 1.369 . S
C351 H331 0.945 . S
C351 C346 1.385 . S
C351 C350 1.369 . S
C352 C344 1.457 . S
C352 C353 1.372 . S
C352 C357 1.364 . S
C353 H332 0.952 . S
C353 C352 1.372 . S
C353 C354 1.389 . S
C354 H333 0.949 . S
C354 C353 1.389 . S
C354 C355 1.387 . S
C355 C354 1.387 . S
C355 C356 1.372 . S
C356 H334 0.950 . S
C356 C355 1.372 . S
C356 C357 1.379 . S
C357 H335 0.948 . S
C357 C352 1.364 . S
C357 C356 1.379 . S
C358 C327 1.383 . S
C358 C345 1.479 . S
C358 C359 1.398 . S
C359 C324 1.382 . S
C359 H336 0.951 . S
C359 C358 1.398 . S
C360 C361 1.384 . S
C360 H373 0.947 . S
C360 C395 1.382 . S
C361 C360 1.384 . S
C361 C362 1.378 . S
C362 C361 1.378 . S
C362 C363 1.378 . S
C362 H374 0.952 . S
C363 C362 1.378 . S
C363 H375 0.950 . S
C363 C394 1.383 . S
H364 C383 0.947 . S
H365 C384 0.946 . S
H366 C386 0.953 . S
H367 C387 0.945 . S
H368 C389 0.952 . S
H369 C390 0.949 . S
H370 C392 0.950 . S
H371 C393 0.948 . S
H372 C395 0.951 . S
H373 C360 0.947 . S
H374 C362 0.952 . S
H375 C363 0.950 . S
N376 C379 1.382 . S
N376 C381 1.363 . S
N377 C379 1.371 . S
N377 C380 1.372 . S
N378 C380 1.361 . S
N378 C381 1.377 . S
C379 N376 1.382 . S
C379 N377 1.371 . S
C379 C382 1.480 . S
C380 N377 1.372 . S
C380 N378 1.361 . S
C380 C388 1.457 . S
C381 N376 1.363 . S
C381 N378 1.377 . S
C381 C394 1.479 . S
C382 C379 1.480 . S
C382 C383 1.383 . S
C382 C387 1.385 . S
C383 H364 0.947 . S
C383 C382 1.383 . S
C383 C384 1.388 . S
C384 H365 0.946 . S
C384 C383 1.388 . S
C384 C385 1.384 . S
C385 C384 1.384 . S
C385 C386 1.377 . S
C386 H366 0.953 . S
C386 C385 1.377 . S
C386 C387 1.369 . S
C387 H367 0.945 . S
C387 C382 1.385 . S
C387 C386 1.369 . S
C388 C380 1.457 . S
C388 C389 1.372 . S
C388 C393 1.364 . S
C389 H368 0.952 . S
C389 C388 1.372 . S
C389 C390 1.389 . S
C390 H369 0.949 . S
C390 C389 1.389 . S
C390 C391 1.387 . S
C391 C390 1.387 . S
C391 C392 1.372 . S
C392 H370 0.950 . S
C392 C391 1.372 . S
C392 C393 1.379 . S
C393 H371 0.948 . S
C393 C388 1.364 . S
C393 C392 1.379 . S
C394 C363 1.383 . S
C394 C381 1.479 . S
C394 C395 1.398 . S
C395 C360 1.382 . S
C395 H372 0.951 . S
C395 C394 1.398 . S
C396 C397 1.384 . S
C396 H409 0.947 . S
C396 C431 1.382 . S
C397 C396 1.384 . S
C397 C398 1.378 . S
C398 C397 1.378 . S
C398 C399 1.378 . S
C398 H410 0.952 . S
C399 C398 1.378 . S
C399 H411 0.950 . S
C399 C430 1.383 . S
H400 C419 0.947 . S
H401 C420 0.946 . S
H402 C422 0.953 . S
H403 C423 0.945 . S
H404 C425 0.952 . S
H405 C426 0.949 . S
H406 C428 0.950 . S
H407 C429 0.948 . S
H408 C431 0.951 . S
H409 C396 0.947 . S
H410 C398 0.952 . S
H411 C399 0.950 . S
N412 C415 1.382 . S
N412 C417 1.363 . S
N413 C415 1.371 . S
N413 C416 1.372 . S
N414 C416 1.361 . S
N414 C417 1.377 . S
C415 N412 1.382 . S
C415 N413 1.371 . S
C415 C418 1.480 . S
C416 N413 1.372 . S
C416 N414 1.361 . S
C416 C424 1.457 . S
C417 N412 1.363 . S
C417 N414 1.377 . S
C417 C430 1.479 . S
C418 C415 1.480 . S
C418 C419 1.383 . S
C418 C423 1.385 . S
C419 H400 0.947 . S
C419 C418 1.383 . S
C419 C420 1.388 . S
C420 H401 0.946 . S
C420 C419 1.388 . S
C420 C421 1.384 . S
C421 C420 1.384 . S
C421 C422 1.377 . S
C422 H402 0.953 . S
C422 C421 1.377 . S
C422 C423 1.369 . S
C423 H403 0.945 . S
C423 C418 1.385 . S
C423 C422 1.369 . S
C424 C416 1.457 . S
C424 C425 1.372 . S
C424 C429 1.364 . S
C425 H404 0.952 . S
C425 C424 1.372 . S
C425 C426 1.389 . S
C426 H405 0.949 . S
C426 C425 1.389 . S
C426 C427 1.387 . S
C427 C426 1.387 . S
C427 C428 1.372 . S
C428 H406 0.950 . S
C428 C427 1.372 . S
C428 C429 1.379 . S
C429 H407 0.948 . S
C429 C424 1.364 . S
C429 C428 1.379 . S
C430 C399 1.383 . S
C430 C417 1.479 . S
C430 C431 1.398 . S
C431 C396 1.382 . S
C431 H408 0.951 . S
C431 C430 1.398 . S
C432 C433 1.384 . S
C432 H445 0.947 . S
C432 C467 1.382 . S
C433 C432 1.384 . S
C433 C434 1.378 . S
C434 C433 1.378 . S
C434 C435 1.378 . S
C434 H446 0.952 . S
C435 C434 1.378 . S
C435 H447 0.950 . S
C435 C466 1.383 . S
H436 C455 0.947 . S
H437 C456 0.946 . S
H438 C458 0.953 . S
H439 C459 0.945 . S
H440 C461 0.952 . S
H441 C462 0.949 . S
H442 C464 0.950 . S
H443 C465 0.948 . S
H444 C467 0.951 . S
H445 C432 0.947 . S
H446 C434 0.952 . S
H447 C435 0.950 . S
N448 C451 1.382 . S
N448 C453 1.363 . S
N449 C451 1.371 . S
N449 C452 1.372 . S
N450 C452 1.361 . S
N450 C453 1.377 . S
C451 N448 1.382 . S
C451 N449 1.371 . S
C451 C454 1.480 . S
C452 N449 1.372 . S
C452 N450 1.361 . S
C452 C460 1.457 . S
C453 N448 1.363 . S
C453 N450 1.377 . S
C453 C466 1.479 . S
C454 C451 1.480 . S
C454 C455 1.383 . S
C454 C459 1.385 . S
C455 H436 0.947 . S
C455 C454 1.383 . S
C455 C456 1.388 . S
C456 H437 0.946 . S
C456 C455 1.388 . S
C456 C457 1.384 . S
C457 C456 1.384 . S
C457 C458 1.377 . S
C458 H438 0.953 . S
C458 C457 1.377 . S
C458 C459 1.369 . S
C459 H439 0.945 . S
C459 C454 1.385 . S
C459 C458 1.369 . S
C460 C452 1.457 . S
C460 C461 1.372 . S
C460 C465 1.364 . S
C461 H440 0.952 . S
C461 C460 1.372 . S
C461 C462 1.389 . S
C462 H441 0.949 . S
C462 C461 1.389 . S
C462 C463 1.387 . S
C463 C462 1.387 . S
C463 C464 1.372 . S
C464 H442 0.950 . S
C464 C463 1.372 . S
C464 C465 1.379 . S
C465 H443 0.948 . S
C465 C460 1.364 . S
C465 C464 1.379 . S
C466 C435 1.383 . S
C466 C453 1.479 . S
C466 C467 1.398 . S
C467 C432 1.382 . S
C467 H444 0.951 . S
C467 C466 1.398 . S
C468 C469 1.384 . S
C468 H481 0.947 . S
C468 C503 1.382 . S
C469 C468 1.384 . S
C469 C470 1.378 . S
C470 C469 1.378 . S
C470 C471 1.378 . S
C470 H482 0.952 . S
C471 C470 1.378 . S
C471 H483 0.950 . S
C471 C502 1.383 . S
H472 C491 0.947 . S
H473 C492 0.946 . S
H474 C494 0.953 . S
H475 C495 0.945 . S
H476 C497 0.952 . S
H477 C498 0.949 . S
H478 C500 0.950 . S
H479 C501 0.948 . S
H480 C503 0.951 . S
H481 C468 0.947 . S
H482 C470 0.952 . S
H483 C471 0.950 . S
N484 C487 1.382 . S
N484 C489 1.363 . S
N485 C487 1.371 . S
N485 C488 1.372 . S
N486 C488 1.361 . S
N486 C489 1.377 . S
C487 N484 1.382 . S
C487 N485 1.371 . S
C487 C490 1.480 . S
C488 N485 1.372 . S
C488 N486 1.361 . S
C488 C496 1.457 . S
C489 N484 1.363 . S
C489 N486 1.377 . S
C489 C502 1.479 . S
C490 C487 1.480 . S
C490 C491 1.383 . S
C490 C495 1.385 . S
C491 H472 0.947 . S
C491 C490 1.383 . S
C491 C492 1.388 . S
C492 H473 0.946 . S
C492 C491 1.388 . S
C492 C493 1.384 . S
C493 C492 1.384 . S
C493 C494 1.377 . S
C494 H474 0.953 . S
C494 C493 1.377 . S
C494 C495 1.369 . S
C495 H475 0.945 . S
C495 C490 1.385 . S
C495 C494 1.369 . S
C496 C488 1.457 . S
C496 C497 1.372 . S
C496 C501 1.364 . S
C497 H476 0.952 . S
C497 C496 1.372 . S
C497 C498 1.389 . S
C498 H477 0.949 . S
C498 C497 1.389 . S
C498 C499 1.387 . S
C499 C498 1.387 . S
C499 C500 1.372 . S
C500 H478 0.950 . S
C500 C499 1.372 . S
C500 C501 1.379 . S
C501 H479 0.948 . S
C501 C496 1.364 . S
C501 C500 1.379 . S
C502 C471 1.383 . S
C502 C489 1.479 . S
C502 C503 1.398 . S
C503 C468 1.382 . S
C503 H480 0.951 . S
C503 C502 1.398 . S
C504 C505 1.384 . S
C504 H517 0.947 . S
C504 C539 1.382 . S
C505 C504 1.384 . S
C505 C506 1.378 . S
C506 C505 1.378 . S
C506 C507 1.378 . S
C506 H518 0.952 . S
C507 C506 1.378 . S
C507 H519 0.950 . S
C507 C538 1.383 . S
H508 C527 0.947 . S
H509 C528 0.946 . S
H510 C530 0.953 . S
H511 C531 0.945 . S
H512 C533 0.952 . S
H513 C534 0.949 . S
H514 C536 0.950 . S
H515 C537 0.948 . S
H516 C539 0.951 . S
H517 C504 0.947 . S
H518 C506 0.952 . S
H519 C507 0.950 . S
N520 C523 1.382 . S
N520 C525 1.363 . S
N521 C523 1.371 . S
N521 C524 1.372 . S
N522 C524 1.361 . S
N522 C525 1.377 . S
C523 N520 1.382 . S
C523 N521 1.371 . S
C523 C526 1.480 . S
C524 N521 1.372 . S
C524 N522 1.361 . S
C524 C532 1.457 . S
C525 N520 1.363 . S
C525 N522 1.377 . S
C525 C538 1.479 . S
C526 C523 1.480 . S
C526 C527 1.383 . S
C526 C531 1.385 . S
C527 H508 0.947 . S
C527 C526 1.383 . S
C527 C528 1.388 . S
C528 H509 0.946 . S
C528 C527 1.388 . S
C528 C529 1.384 . S
C529 C528 1.384 . S
C529 C530 1.377 . S
C530 H510 0.953 . S
C530 C529 1.377 . S
C530 C531 1.369 . S
C531 H511 0.945 . S
C531 C526 1.385 . S
C531 C530 1.369 . S
C532 C524 1.457 . S
C532 C533 1.372 . S
C532 C537 1.364 . S
C533 H512 0.952 . S
C533 C532 1.372 . S
C533 C534 1.389 . S
C534 H513 0.949 . S
C534 C533 1.389 . S
C534 C535 1.387 . S
C535 C534 1.387 . S
C535 C536 1.372 . S
C536 H514 0.950 . S
C536 C535 1.372 . S
C536 C537 1.379 . S
C537 H515 0.948 . S
C537 C532 1.364 . S
C537 C536 1.379 . S
C538 C507 1.383 . S
C538 C525 1.479 . S
C538 C539 1.398 . S
C539 C504 1.382 . S
C539 H516 0.951 . S
C539 C538 1.398 . S
C540 C541 1.384 . S
C540 H553 0.947 . S
C540 C575 1.382 . S
C541 C540 1.384 . S
C541 C542 1.378 . S
C542 C541 1.378 . S
C542 C543 1.378 . S
C542 H554 0.952 . S
C543 C542 1.378 . S
C543 H555 0.950 . S
C543 C574 1.383 . S
H544 C563 0.947 . S
H545 C564 0.946 . S
H546 C566 0.953 . S
H547 C567 0.945 . S
H548 C569 0.952 . S
H549 C570 0.949 . S
H550 C572 0.950 . S
H551 C573 0.948 . S
H552 C575 0.951 . S
H553 C540 0.947 . S
H554 C542 0.952 . S
H555 C543 0.950 . S
N556 C559 1.382 . S
N556 C561 1.363 . S
N557 C559 1.371 . S
N557 C560 1.372 . S
N558 C560 1.361 . S
N558 C561 1.377 . S
C559 N556 1.382 . S
C559 N557 1.371 . S
C559 C562 1.480 . S
C560 N557 1.372 . S
C560 N558 1.361 . S
C560 C568 1.457 . S
C561 N556 1.363 . S
C561 N558 1.377 . S
C561 C574 1.479 . S
C562 C559 1.480 . S
C562 C563 1.383 . S
C562 C567 1.385 . S
C563 H544 0.947 . S
C563 C562 1.383 . S
C563 C564 1.388 . S
C564 H545 0.946 . S
C564 C563 1.388 . S
C564 C565 1.384 . S
C565 C564 1.384 . S
C565 C566 1.377 . S
C566 H546 0.953 . S
C566 C565 1.377 . S
C566 C567 1.369 . S
C567 H547 0.945 . S
C567 C562 1.385 . S
C567 C566 1.369 . S
C568 C560 1.457 . S
C568 C569 1.372 . S
C568 C573 1.364 . S
C569 H548 0.952 . S
C569 C568 1.372 . S
C569 C570 1.389 . S
C570 H549 0.949 . S
C570 C569 1.389 . S
C570 C571 1.387 . S
C571 C570 1.387 . S
C571 C572 1.372 . S
C572 H550 0.950 . S
C572 C571 1.372 . S
C572 C573 1.379 . S
C573 H551 0.948 . S
C573 C568 1.364 . S
C573 C572 1.379 . S
C574 C543 1.383 . S
C574 C561 1.479 . S
C574 C575 1.398 . S
C575 C540 1.382 . S
C575 H552 0.951 . S
C575 C574 1.398 . S
C576 C577 1.384 . S
C576 H589 0.947 . S
C576 C611 1.382 . S
C577 C576 1.384 . S
C577 C578 1.378 . S
C578 C577 1.378 . S
C578 C579 1.378 . S
C578 H590 0.952 . S
C579 C578 1.378 . S
C579 H591 0.950 . S
C579 C610 1.383 . S
H580 C599 0.947 . S
H581 C600 0.946 . S
H582 C602 0.953 . S
H583 C603 0.945 . S
H584 C605 0.952 . S
H585 C606 0.949 . S
H586 C608 0.950 . S
H587 C609 0.948 . S
H588 C611 0.951 . S
H589 C576 0.947 . S
H590 C578 0.952 . S
H591 C579 0.950 . S
N592 C595 1.382 . S
N592 C597 1.363 . S
N593 C595 1.371 . S
N593 C596 1.372 . S
N594 C596 1.361 . S
N594 C597 1.377 . S
C595 N592 1.382 . S
C595 N593 1.371 . S
C595 C598 1.480 . S
C596 N593 1.372 . S
C596 N594 1.361 . S
C596 C604 1.457 . S
C597 N592 1.363 . S
C597 N594 1.377 . S
C597 C610 1.479 . S
C598 C595 1.480 . S
C598 C599 1.383 . S
C598 C603 1.385 . S
C599 H580 0.947 . S
C599 C598 1.383 . S
C599 C600 1.388 . S
C600 H581 0.946 . S
C600 C599 1.388 . S
C600 C601 1.384 . S
C601 C600 1.384 . S
C601 C602 1.377 . S
C602 H582 0.953 . S
C602 C601 1.377 . S
C602 C603 1.369 . S
C603 H583 0.945 . S
C603 C598 1.385 . S
C603 C602 1.369 . S
C604 C596 1.457 . S
C604 C605 1.372 . S
C604 C609 1.364 . S
C605 H584 0.952 . S
C605 C604 1.372 . S
C605 C606 1.389 . S
C606 H585 0.949 . S
C606 C605 1.389 . S
C606 C607 1.387 . S
C607 C606 1.387 . S
C607 C608 1.372 . S
C608 H586 0.950 . S
C608 C607 1.372 . S
C608 C609 1.379 . S
C609 H587 0.948 . S
C609 C604 1.364 . S
C609 C608 1.379 . S
C610 C579 1.383 . S
C610 C597 1.479 . S
C610 C611 1.398 . S
C611 C576 1.382 . S
C611 H588 0.951 . S
C611 C610 1.398 . S
C612 C613 1.384 . S
C612 H625 0.947 . S
C612 C647 1.382 . S
C613 C612 1.384 . S
C613 C614 1.378 . S
C614 C613 1.378 . S
C614 C615 1.378 . S
C614 H626 0.952 . S
C615 C614 1.378 . S
C615 H627 0.950 . S
C615 C646 1.383 . S
H616 C635 0.947 . S
H617 C636 0.946 . S
H618 C638 0.953 . S
H619 C639 0.945 . S
H620 C641 0.952 . S
H621 C642 0.949 . S
H622 C644 0.950 . S
H623 C645 0.948 . S
H624 C647 0.951 . S
H625 C612 0.947 . S
H626 C614 0.952 . S
H627 C615 0.950 . S
N628 C631 1.382 . S
N628 C633 1.363 . S
N629 C631 1.371 . S
N629 C632 1.372 . S
N630 C632 1.361 . S
N630 C633 1.377 . S
C631 N628 1.382 . S
C631 N629 1.371 . S
C631 C634 1.480 . S
C632 N629 1.372 . S
C632 N630 1.361 . S
C632 C640 1.457 . S
C633 N628 1.363 . S
C633 N630 1.377 . S
C633 C646 1.479 . S
C634 C631 1.480 . S
C634 C635 1.383 . S
C634 C639 1.385 . S
C635 H616 0.947 . S
C635 C634 1.383 . S
C635 C636 1.388 . S
C636 H617 0.946 . S
C636 C635 1.388 . S
C636 C637 1.384 . S
C637 C636 1.384 . S
C637 C638 1.377 . S
C638 H618 0.953 . S
C638 C637 1.377 . S
C638 C639 1.369 . S
C639 H619 0.945 . S
C639 C634 1.385 . S
C639 C638 1.369 . S
C640 C632 1.457 . S
C640 C641 1.372 . S
C640 C645 1.364 . S
C641 H620 0.952 . S
C641 C640 1.372 . S
C641 C642 1.389 . S
C642 H621 0.949 . S
C642 C641 1.389 . S
C642 C643 1.387 . S
C643 C642 1.387 . S
C643 C644 1.372 . S
C644 H622 0.950 . S
C644 C643 1.372 . S
C644 C645 1.379 . S
C645 H623 0.948 . S
C645 C640 1.364 . S
C645 C644 1.379 . S
C646 C615 1.383 . S
C646 C633 1.479 . S
C646 C647 1.398 . S
C647 C612 1.382 . S
C647 H624 0.951 . S
C647 C646 1.398 . S
Gd648 N679 2.661 . S
Gd648 N685 2.601 . S
Gd648 O692 2.545 . S
Gd648 O693 2.606 1_545 S
Gd648 O695 2.429 . S
Gd648 O696 2.545 1_545 S
Gd648 O697 2.412 . S
Gd648 O699 2.424 . S
Gd648 O700 2.324 1_545 S
Gd648 C707 2.828 . S
Gd649 N658 2.661 . S
Gd649 N662 2.601 . S
Gd649 O693 2.362 1_556 S
Gd649 O694 2.324 1_565 S
Gd649 O698 2.545 . S
Gd649 O699 2.569 1_566 S
Gd649 O701 2.444 . S
Gd649 O702 2.545 1_565 S
Gd649 O703 2.412 . S
Gd649 C716 2.828 . S
C650 C653 1.417 . S
C650 C655 1.431 . S
C650 C656 1.412 . S
C651 C654 1.437 . S
C651 C655 1.317 . S
C651 H670 0.929 . S
C652 C653 1.426 . S
C652 C654 1.413 . S
C652 N662 1.359 . S
C653 C650 1.417 . S
C653 C652 1.426 . S
C653 N658 1.350 . S
C654 C651 1.437 . S
C654 C652 1.413 . S
C654 C664 1.391 . S
C655 C650 1.431 . S
C655 C651 1.317 . S
C655 H666 0.930 . S
C656 C650 1.412 . S
C656 C657 1.355 . S
C656 H668 0.930 . S
C657 C656 1.355 . S
C657 C659 1.402 . S
C657 H669 0.930 . S
N658 Gd649 2.661 . S
N658 C653 1.350 . S
N658 C659 1.307 . S
C659 C657 1.402 . S
C659 N658 1.307 . S
C659 H660 0.930 . S
H660 C659 0.930 . S
C661 N662 1.334 . S
C661 C663 1.394 . S
C661 H665 0.930 . S
N662 Gd649 2.601 . S
N662 C652 1.359 . S
N662 C661 1.334 . S
C663 C661 1.394 . S
C663 C664 1.359 . S
C663 H675 0.930 . S
C664 C654 1.391 . S
C664 C663 1.359 . S
C664 H676 0.929 . S
H665 C661 0.930 . S
H666 C655 0.930 . S
H667 C684 0.930 . S
H668 C656 0.930 . S
H669 C657 0.930 . S
H670 C651 0.929 . S
H671 C689 0.930 . S
H672 C680 0.930 . S
H673 C681 0.930 . S
H674 C705 0.929 . S
H675 C663 0.930 . S
H676 C664 0.929 . S
H677 C706 0.930 . S
H678 C687 0.930 . S
N679 Gd648 2.661 . S
N679 C683 1.350 . S
N679 C684 1.307 . S
C680 H672 0.930 . S
C680 C681 1.355 . S
C680 C682 1.412 . S
C681 H673 0.930 . S
C681 C680 1.355 . S
C681 C684 1.402 . S
C682 C680 1.412 . S
C682 C683 1.417 . S
C682 C706 1.431 . S
C683 N679 1.350 . S
C683 C682 1.417 . S
C683 C686 1.426 . S
C684 H667 0.930 . S
C684 N679 1.307 . S
C684 C681 1.402 . S
N685 Gd648 2.601 . S
N685 C686 1.359 . S
N685 C689 1.334 . S
C686 C683 1.426 . S
C686 N685 1.359 . S
C686 C690 1.413 . S
C687 H678 0.930 . S
C687 C688 1.359 . S
C687 C689 1.394 . S
C688 C687 1.359 . S
C688 C690 1.391 . S
C688 H691 0.929 . S
C689 H671 0.930 . S
C689 N685 1.334 . S
C689 C687 1.394 . S
C690 C686 1.413 . S
C690 C688 1.391 . S
C690 C705 1.437 . S
H691 C688 0.929 . S
O692 Gd648 2.545 . S
O692 C707 1.258 . S
O693 Gd648 2.606 1_565 S
O693 Gd649 2.362 1_554 S
O693 C704 1.284 . S
O694 Gd649 2.324 1_545 S
O694 C714 1.254 . S
O695 Gd648 2.429 . S
O695 C714 1.268 1_554 S
O696 Gd648 2.545 1_565 S
O696 C704 1.250 . S
O697 Gd648 2.412 . S
O697 C707 1.252 . S
O698 Gd649 2.545 . S
O698 C716 1.258 . S
O699 Gd648 2.424 . S
O699 Gd649 2.569 1_544 S
O699 C715 1.235 1_554 S
O700 Gd648 2.324 1_565 S
O700 C723 1.254 . S
O701 Gd649 2.444 . S
O701 C723 1.242 1_556 S
O702 Gd649 2.545 1_545 S
O702 C715 1.250 . S
O703 Gd649 2.412 . S
O703 C716 1.252 . S
C704 O693 1.284 . S
C704 O696 1.250 . S
C705 H674 0.929 . S
C705 C690 1.437 . S
C705 C706 1.317 . S
C706 H677 0.930 . S
C706 C682 1.431 . S
C706 C705 1.317 . S
C707 Gd648 2.828 . S
C707 O692 1.258 . S
C707 O697 1.252 . S
C707 C708 1.497 . S
C708 C707 1.497 . S
C708 C709 1.395 . S
C708 C710 1.380 1_545 S
C709 C708 1.395 . S
C709 C712 1.398 . S
C709 H724 0.930 . S
C710 C708 1.380 1_565 S
C710 C711 1.391 . S
C710 H725 0.930 . S
C711 C710 1.391 . S
C711 C713 1.387 1_565 S
C712 C709 1.398 . S
C712 C713 1.380 . S
C712 H726 0.930 . S
C713 C711 1.387 1_545 S
C713 C712 1.380 . S
C713 H727 0.930 . S
C714 O694 1.254 . S
C714 O695 1.268 1_556 S
C715 O699 1.235 1_556 S
C715 O702 1.250 . S
C716 Gd649 2.828 . S
C716 O698 1.258 . S
C716 O703 1.252 . S
C716 C717 1.497 . S
C717 C716 1.497 . S
C717 C718 1.395 . S
C717 C719 1.380 1_565 S
C718 C717 1.395 . S
C718 C721 1.398 . S
C718 H728 0.930 . S
C719 C717 1.380 1_545 S
C719 C720 1.391 . S
C719 H729 0.930 . S
C720 C719 1.391 . S
C720 C722 1.387 1_545 S
C721 C718 1.398 . S
C721 C722 1.380 . S
C721 H730 0.930 . S
C722 C720 1.387 1_565 S
C722 C721 1.380 . S
C722 H731 0.930 . S
C723 O700 1.254 . S
C723 O701 1.242 1_554 S
H724 C709 0.930 . S
H725 C710 0.930 . S
H726 C712 0.930 . S
H727 C713 0.930 . S
H728 C718 0.930 . S
H729 C719 0.930 . S
H730 C721 0.930 . S
H731 C722 0.930 . S
Gd732 N763 2.661 . S
Gd732 N769 2.601 . S
Gd732 O776 2.545 . S
Gd732 O777 2.606 1_655 S
Gd732 O779 2.429 . S
Gd732 O780 2.545 1_655 S
Gd732 O781 2.412 . S
Gd732 O783 2.385 . S
Gd732 O784 2.324 1_655 S
Gd732 C791 2.828 . S
Gd733 N742 2.661 . S
Gd733 N746 2.601 . S
Gd733 O777 2.362 1_556 S
Gd733 O778 2.324 1_455 S
Gd733 O782 2.545 . S
Gd733 O783 2.592 1_456 S
Gd733 O785 2.420 1_556 S
Gd733 O786 2.545 1_455 S
Gd733 O787 2.412 . S
Gd733 C800 2.828 . S
C734 C737 1.417 . S
C734 C739 1.431 . S
C734 C740 1.412 . S
C735 C738 1.437 . S
C735 C739 1.317 . S
C735 H754 0.929 . S
C736 C737 1.426 . S
C736 C738 1.413 . S
C736 N746 1.359 . S
C737 C734 1.417 . S
C737 C736 1.426 . S
C737 N742 1.350 . S
C738 C735 1.437 . S
C738 C736 1.413 . S
C738 C748 1.391 . S
C739 C734 1.431 . S
C739 C735 1.317 . S
C739 H750 0.930 . S
C740 C734 1.412 . S
C740 C741 1.355 . S
C740 H752 0.930 . S
C741 C740 1.355 . S
C741 C743 1.402 . S
C741 H753 0.930 . S
N742 Gd733 2.661 . S
N742 C737 1.350 . S
N742 C743 1.307 . S
C743 C741 1.402 . S
C743 N742 1.307 . S
C743 H744 0.930 . S
H744 C743 0.930 . S
C745 N746 1.334 . S
C745 C747 1.394 . S
C745 H749 0.930 . S
N746 Gd733 2.601 . S
N746 C736 1.359 . S
N746 C745 1.334 . S
C747 C745 1.394 . S
C747 C748 1.359 . S
C747 H759 0.930 . S
C748 C738 1.391 . S
C748 C747 1.359 . S
C748 H760 0.929 . S
H749 C745 0.930 . S
H750 C739 0.930 . S
H751 C768 0.930 . S
H752 C740 0.930 . S
H753 C741 0.930 . S
H754 C735 0.929 . S
H755 C773 0.930 . S
H756 C764 0.930 . S
H757 C765 0.930 . S
H758 C789 0.929 . S
H759 C747 0.930 . S
H760 C748 0.929 . S
H761 C790 0.930 . S
H762 C771 0.930 . S
N763 Gd732 2.661 . S
N763 C767 1.350 . S
N763 C768 1.307 . S
C764 H756 0.930 . S
C764 C765 1.355 . S
C764 C766 1.412 . S
C765 H757 0.930 . S
C765 C764 1.355 . S
C765 C768 1.402 . S
C766 C764 1.412 . S
C766 C767 1.417 . S
C766 C790 1.431 . S
C767 N763 1.350 . S
C767 C766 1.417 . S
C767 C770 1.426 . S
C768 H751 0.930 . S
C768 N763 1.307 . S
C768 C765 1.402 . S
N769 Gd732 2.601 . S
N769 C770 1.359 . S
N769 C773 1.334 . S
C770 C767 1.426 . S
C770 N769 1.359 . S
C770 C774 1.413 . S
C771 H762 0.930 . S
C771 C772 1.359 . S
C771 C773 1.394 . S
C772 C771 1.359 . S
C772 C774 1.391 . S
C772 H775 0.929 . S
C773 H755 0.930 . S
C773 N769 1.334 . S
C773 C771 1.394 . S
C774 C770 1.413 . S
C774 C772 1.391 . S
C774 C789 1.437 . S
H775 C772 0.929 . S
O776 Gd732 2.545 . S
O776 C791 1.258 . S
O777 Gd732 2.606 1_455 S
O777 Gd733 2.362 1_554 S
O777 C788 1.284 . S
O778 Gd733 2.324 1_655 S
O778 C798 1.254 . S
O779 Gd732 2.429 . S
O779 C798 1.268 1_554 S
O780 Gd732 2.545 1_455 S
O780 C788 1.250 . S
O781 Gd732 2.412 . S
O781 C791 1.252 . S
O782 Gd733 2.545 . S
O782 C800 1.258 . S
O783 Gd732 2.385 . S
O783 Gd733 2.592 1_654 S
O783 C799 1.265 1_554 S
O784 Gd732 2.324 1_455 S
O784 C807 1.254 . S
O785 Gd733 2.420 1_554 S
O785 C807 1.283 . S
O786 Gd733 2.545 1_655 S
O786 C799 1.250 . S
O787 Gd733 2.412 . S
O787 C800 1.252 . S
C788 O777 1.284 . S
C788 O780 1.250 . S
C789 H758 0.929 . S
C789 C774 1.437 . S
C789 C790 1.317 . S
C790 H761 0.930 . S
C790 C766 1.431 . S
C790 C789 1.317 . S
C791 Gd732 2.828 . S
C791 O776 1.258 . S
C791 O781 1.252 . S
C791 C792 1.497 . S
C792 C791 1.497 . S
C792 C793 1.395 . S
C792 C794 1.380 1_655 S
C793 C792 1.395 . S
C793 C796 1.398 . S
C793 H808 0.930 . S
C794 C792 1.380 1_455 S
C794 C795 1.391 . S
C794 H809 0.930 . S
C795 C794 1.391 . S
C795 C797 1.387 1_455 S
C796 C793 1.398 . S
C796 C797 1.380 . S
C796 H810 0.930 . S
C797 C795 1.387 1_655 S
C797 C796 1.380 . S
C797 H811 0.930 . S
C798 O778 1.254 . S
C798 O779 1.268 1_556 S
C799 O783 1.265 1_556 S
C799 O786 1.250 . S
C800 Gd733 2.828 . S
C800 O782 1.258 . S
C800 O787 1.252 . S
C800 C801 1.497 . S
C801 C800 1.497 . S
C801 C802 1.395 . S
C801 C803 1.380 1_455 S
C802 C801 1.395 . S
C802 C805 1.398 . S
C802 H812 0.930 . S
C803 C801 1.380 1_655 S
C803 C804 1.391 . S
C803 H813 0.930 . S
C804 C803 1.391 . S
C804 C806 1.387 1_655 S
C805 C802 1.398 . S
C805 C806 1.380 . S
C805 H814 0.930 . S
C806 C804 1.387 1_455 S
C806 C805 1.380 . S
C806 H815 0.930 . S
C807 O784 1.254 . S
C807 O785 1.283 . S
H808 C793 0.930 . S
H809 C794 0.930 . S
H810 C796 0.930 . S
H811 C797 0.930 . S
H812 C802 0.930 . S
H813 C803 0.930 . S
H814 C805 0.930 . S
H815 C806 0.930 . S
Gd816 N847 2.661 . S
Gd816 N853 2.601 . S
Gd816 O860 2.545 . S
Gd816 O861 2.582 1_556 S
Gd816 O863 2.427 . S
Gd816 O864 2.545 . S
Gd816 O865 2.412 . S
Gd816 O867 2.362 1_556 S
Gd816 O868 2.324 . S
Gd816 C875 2.828 . S
Gd817 N826 2.661 . S
Gd817 N830 2.601 . S
Gd817 O861 2.404 . S
Gd817 O862 2.324 . S
Gd817 O866 2.545 . S
Gd817 O867 2.606 . S
Gd817 O869 2.429 . S
Gd817 O870 2.545 . S
Gd817 O871 2.412 . S
Gd817 C884 2.828 . S
C818 C821 1.417 . S
C818 C823 1.431 . S
C818 C824 1.412 . S
C819 C822 1.437 . S
C819 C823 1.317 . S
C819 H838 0.929 . S
C820 C821 1.426 . S
C820 C822 1.413 . S
C820 N830 1.359 . S
C821 C818 1.417 . S
C821 C820 1.426 . S
C821 N826 1.350 . S
C822 C819 1.437 . S
C822 C820 1.413 . S
C822 C832 1.391 . S
C823 C818 1.431 . S
C823 C819 1.317 . S
C823 H834 0.930 . S
C824 C818 1.412 . S
C824 C825 1.355 . S
C824 H836 0.930 . S
C825 C824 1.355 . S
C825 C827 1.402 . S
C825 H837 0.930 . S
N826 Gd817 2.661 . S
N826 C821 1.350 . S
N826 C827 1.307 . S
C827 C825 1.402 . S
C827 N826 1.307 . S
C827 H828 0.930 . S
H828 C827 0.930 . S
C829 N830 1.334 . S
C829 C831 1.394 . S
C829 H833 0.930 . S
N830 Gd817 2.601 . S
N830 C820 1.359 . S
N830 C829 1.334 . S
C831 C829 1.394 . S
C831 C832 1.359 . S
C831 H843 0.930 . S
C832 C822 1.391 . S
C832 C831 1.359 . S
C832 H844 0.929 . S
H833 C829 0.930 . S
H834 C823 0.930 . S
H835 C852 0.930 . S
H836 C824 0.930 . S
H837 C825 0.930 . S
H838 C819 0.929 . S
H839 C857 0.930 . S
H840 C848 0.930 . S
H841 C849 0.930 . S
H842 C873 0.929 . S
H843 C831 0.930 . S
H844 C832 0.929 . S
H845 C874 0.930 . S
H846 C855 0.930 . S
N847 Gd816 2.661 . S
N847 C851 1.350 . S
N847 C852 1.307 . S
C848 H840 0.930 . S
C848 C849 1.355 . S
C848 C850 1.412 . S
C849 H841 0.930 . S
C849 C848 1.355 . S
C849 C852 1.402 . S
C850 C848 1.412 . S
C850 C851 1.417 . S
C850 C874 1.431 . S
C851 N847 1.350 . S
C851 C850 1.417 . S
C851 C854 1.426 . S
C852 H835 0.930 . S
C852 N847 1.307 . S
C852 C849 1.402 . S
N853 Gd816 2.601 . S
N853 C854 1.359 . S
N853 C857 1.334 . S
C854 C851 1.426 . S
C854 N853 1.359 . S
C854 C858 1.413 . S
C855 H846 0.930 . S
C855 C856 1.359 . S
C855 C857 1.394 . S
C856 C855 1.359 . S
C856 C858 1.391 . S
C856 H859 0.929 . S
C857 H839 0.930 . S
C857 N853 1.334 . S
C857 C855 1.394 . S
C858 C854 1.413 . S
C858 C856 1.391 . S
C858 C873 1.437 . S
H859 C856 0.929 . S
O860 Gd816 2.545 . S
O860 C875 1.258 . S
O861 Gd816 2.582 1_554 S
O861 Gd817 2.404 . S
O861 C872 1.251 1_554 S
O862 Gd817 2.324 . S
O862 C882 1.254 . S
O863 Gd816 2.427 . S
O863 C882 1.272 1_556 S
O864 Gd816 2.545 . S
O864 C872 1.250 . S
O865 Gd816 2.412 . S
O865 C875 1.252 . S
O866 Gd817 2.545 . S
O866 C884 1.258 . S
O867 Gd816 2.362 1_554 S
O867 Gd817 2.606 . S
O867 C883 1.284 . S
O868 Gd816 2.324 . S
O868 C891 1.254 . S
O869 Gd817 2.429 . S
O869 C891 1.268 1_554 S
O870 Gd817 2.545 . S
O870 C883 1.250 . S
O871 Gd817 2.412 . S
O871 C884 1.252 . S
C872 O861 1.251 1_556 S
C872 O864 1.250 . S
C873 H842 0.929 . S
C873 C858 1.437 . S
C873 C874 1.317 . S
C874 H845 0.930 . S
C874 C850 1.431 . S
C874 C873 1.317 . S
C875 Gd816 2.828 . S
C875 O860 1.258 . S
C875 O865 1.252 . S
C875 C876 1.497 . S
C876 C875 1.497 . S
C876 C877 1.395 . S
C876 C878 1.380 . S
C877 C876 1.395 . S
C877 C880 1.398 . S
C877 H892 0.930 . S
C878 C876 1.380 . S
C878 C879 1.391 . S
C878 H893 0.930 . S
C879 C878 1.391 . S
C879 C881 1.387 . S
C880 C877 1.398 . S
C880 C881 1.380 . S
C880 H894 0.930 . S
C881 C879 1.387 . S
C881 C880 1.380 . S
C881 H895 0.930 . S
C882 O862 1.254 . S
C882 O863 1.272 1_554 S
C883 O867 1.284 . S
C883 O870 1.250 . S
C884 Gd817 2.828 . S
C884 O866 1.258 . S
C884 O871 1.252 . S
C884 C885 1.497 . S
C885 C884 1.497 . S
C885 C886 1.395 . S
C885 C887 1.380 . S
C886 C885 1.395 . S
C886 C889 1.398 . S
C886 H896 0.930 . S
C887 C885 1.380 . S
C887 C888 1.391 . S
C887 H897 0.930 . S
C888 C887 1.391 . S
C888 C890 1.387 . S
C889 C886 1.398 . S
C889 C890 1.380 . S
C889 H898 0.930 . S
C890 C888 1.387 . S
C890 C889 1.380 . S
C890 H899 0.930 . S
C891 O868 1.254 . S
C891 O869 1.268 1_556 S
H892 C877 0.930 . S
H893 C878 0.930 . S
H894 C880 0.930 . S
H895 C881 0.930 . S
H896 C886 0.930 . S
H897 C887 0.930 . S
H898 C889 0.930 . S
H899 C890 0.930 . S
Gd900 N931 2.661 . S
Gd900 N937 2.601 . S
Gd900 O944 2.545 . S
Gd900 O945 2.606 . S
Gd900 O947 2.429 . S
Gd900 O948 2.545 . S
Gd900 O949 2.412 . S
Gd900 O951 2.362 . S
Gd900 O952 2.324 . S
Gd900 C959 2.828 . S
Gd901 N910 2.661 . S
Gd901 N914 2.601 . S
Gd901 O945 2.362 . S
Gd901 O946 2.324 . S
Gd901 O950 2.545 . S
Gd901 O951 2.606 . S
Gd901 O953 2.429 . S
Gd901 O954 2.545 . S
Gd901 O955 2.412 . S
Gd901 C968 2.828 . S
C902 C905 1.417 . S
C902 C907 1.431 . S
C902 C908 1.412 . S
C903 C906 1.437 . S
C903 C907 1.317 . S
C903 H922 0.929 . S
C904 C905 1.426 . S
C904 C906 1.413 . S
C904 N914 1.359 . S
C905 C902 1.417 . S
C905 C904 1.426 . S
C905 N910 1.350 . S
C906 C903 1.437 . S
C906 C904 1.413 . S
C906 C916 1.391 . S
C907 C902 1.431 . S
C907 C903 1.317 . S
C907 H918 0.930 . S
C908 C902 1.412 . S
C908 C909 1.355 . S
C908 H920 0.930 . S
C909 C908 1.355 . S
C909 C911 1.402 . S
C909 H921 0.930 . S
N910 Gd901 2.661 . S
N910 C905 1.350 . S
N910 C911 1.307 . S
C911 C909 1.402 . S
C911 N910 1.307 . S
C911 H912 0.930 . S
H912 C911 0.930 . S
C913 N914 1.334 . S
C913 C915 1.394 . S
C913 H917 0.930 . S
N914 Gd901 2.601 . S
N914 C904 1.359 . S
N914 C913 1.334 . S
C915 C913 1.394 . S
C915 C916 1.359 . S
C915 H927 0.930 . S
C916 C906 1.391 . S
C916 C915 1.359 . S
C916 H928 0.929 . S
H917 C913 0.930 . S
H918 C907 0.930 . S
H919 C936 0.930 . S
H920 C908 0.930 . S
H921 C909 0.930 . S
H922 C903 0.929 . S
H923 C941 0.930 . S
H924 C932 0.930 . S
H925 C933 0.930 . S
H926 C957 0.929 . S
H927 C915 0.930 . S
H928 C916 0.929 . S
H929 C958 0.930 . S
H930 C939 0.930 . S
N931 Gd900 2.661 . S
N931 C935 1.350 . S
N931 C936 1.307 . S
C932 H924 0.930 . S
C932 C933 1.355 . S
C932 C934 1.412 . S
C933 H925 0.930 . S
C933 C932 1.355 . S
C933 C936 1.402 . S
C934 C932 1.412 . S
C934 C935 1.417 . S
C934 C958 1.431 . S
C935 N931 1.350 . S
C935 C934 1.417 . S
C935 C938 1.426 . S
C936 H919 0.930 . S
C936 N931 1.307 . S
C936 C933 1.402 . S
N937 Gd900 2.601 . S
N937 C938 1.359 . S
N937 C941 1.334 . S
C938 C935 1.426 . S
C938 N937 1.359 . S
C938 C942 1.413 . S
C939 H930 0.930 . S
C939 C940 1.359 . S
C939 C941 1.394 . S
C940 C939 1.359 . S
C940 C942 1.391 . S
C940 H943 0.929 . S
C941 H923 0.930 . S
C941 N937 1.334 . S
C941 C939 1.394 . S
C942 C938 1.413 . S
C942 C940 1.391 . S
C942 C957 1.437 . S
H943 C940 0.929 . S
O944 Gd900 2.545 . S
O944 C959 1.258 . S
O945 Gd900 2.606 . S
O945 Gd901 2.362 . S
O945 C956 1.284 . S
O946 Gd901 2.324 . S
O946 C966 1.254 . S
O947 Gd900 2.429 . S
O947 C966 1.268 . S
O948 Gd900 2.545 . S
O948 C956 1.250 . S
O949 Gd900 2.412 . S
O949 C959 1.252 . S
O950 Gd901 2.545 . S
O950 C968 1.258 . S
O951 Gd900 2.362 . S
O951 Gd901 2.606 . S
O951 C967 1.284 . S
O952 Gd900 2.324 . S
O952 C975 1.254 . S
O953 Gd901 2.429 . S
O953 C975 1.268 . S
O954 Gd901 2.545 . S
O954 C967 1.250 . S
O955 Gd901 2.412 . S
O955 C968 1.252 . S
C956 O945 1.284 . S
C956 O948 1.250 . S
C957 H926 0.929 . S
C957 C942 1.437 . S
C957 C958 1.317 . S
C958 H929 0.930 . S
C958 C934 1.431 . S
C958 C957 1.317 . S
C959 Gd900 2.828 . S
C959 O944 1.258 . S
C959 O949 1.252 . S
C959 C960 1.497 . S
C960 C959 1.497 . S
C960 C961 1.395 . S
C960 C962 1.380 . S
C961 C960 1.395 . S
C961 C964 1.398 . S
C961 H976 0.930 . S
C962 C960 1.380 . S
C962 C963 1.391 . S
C962 H977 0.930 . S
C963 C962 1.391 . S
C963 C965 1.387 . S
C964 C961 1.398 . S
C964 C965 1.380 . S
C964 H978 0.930 . S
C965 C963 1.387 . S
C965 C964 1.380 . S
C965 H979 0.930 . S
C966 O946 1.254 . S
C966 O947 1.268 . S
C967 O951 1.284 . S
C967 O954 1.250 . S
C968 Gd901 2.828 . S
C968 O950 1.258 . S
C968 O955 1.252 . S
C968 C969 1.497 . S
C969 C968 1.497 . S
C969 C970 1.395 . S
C969 C971 1.380 . S
C970 C969 1.395 . S
C970 C973 1.398 . S
C970 H980 0.930 . S
C971 C969 1.380 . S
C971 C972 1.391 . S
C971 H981 0.930 . S
C972 C971 1.391 . S
C972 C974 1.387 . S
C973 C970 1.398 . S
C973 C974 1.380 . S
C973 H982 0.930 . S
C974 C972 1.387 . S
C974 C973 1.380 . S
C974 H983 0.930 . S
C975 O952 1.254 . S
C975 O953 1.268 . S
H976 C961 0.930 . S
H977 C962 0.930 . S
H978 C964 0.930 . S
H979 C965 0.930 . S
H980 C970 0.930 . S
H981 C971 0.930 . S
H982 C973 0.930 . S
H983 C974 0.930 . S
Gd984 N1015 2.661 . S
Gd984 N1021 2.601 . S
Gd984 O1028 2.545 . S
Gd984 O1029 2.606 . S
Gd984 O1031 2.429 . S
Gd984 O1032 2.545 . S
Gd984 O1033 2.412 . S
Gd984 O1035 2.362 . S
Gd984 O1036 2.324 . S
Gd984 C1043 2.828 . S
Gd985 N994 2.661 . S
Gd985 N998 2.601 . S
Gd985 O1029 2.362 . S
Gd985 O1030 2.324 . S
Gd985 O1034 2.545 . S
Gd985 O1035 2.606 . S
Gd985 O1037 2.429 . S
Gd985 O1038 2.545 . S
Gd985 O1039 2.412 . S
Gd985 C1052 2.828 . S
C986 C989 1.417 . S
C986 C991 1.431 . S
C986 C992 1.412 . S
C987 C990 1.437 . S
C987 C991 1.317 . S
C987 H1006 0.929 . S
C988 C989 1.426 . S
C988 C990 1.413 . S
C988 N998 1.359 . S
C989 C986 1.417 . S
C989 C988 1.426 . S
C989 N994 1.350 . S
C990 C987 1.437 . S
C990 C988 1.413 . S
C990 C1000 1.391 . S
C991 C986 1.431 . S
C991 C987 1.317 . S
C991 H1002 0.930 . S
C992 C986 1.412 . S
C992 C993 1.355 . S
C992 H1004 0.930 . S
C993 C992 1.355 . S
C993 C995 1.402 . S
C993 H1005 0.930 . S
N994 Gd985 2.661 . S
N994 C989 1.350 . S
N994 C995 1.307 . S
C995 C993 1.402 . S
C995 N994 1.307 . S
C995 H996 0.930 . S
H996 C995 0.930 . S
C997 N998 1.334 . S
C997 C999 1.394 . S
C997 H1001 0.930 . S
N998 Gd985 2.601 . S
N998 C988 1.359 . S
N998 C997 1.334 . S
C999 C997 1.394 . S
C999 C1000 1.359 . S
C999 H1011 0.930 . S
C1000 C990 1.391 . S
C1000 C999 1.359 . S
C1000 H1012 0.929 . S
H1001 C997 0.930 . S
H1002 C991 0.930 . S
H1003 C1020 0.930 . S
H1004 C992 0.930 . S
H1005 C993 0.930 . S
H1006 C987 0.929 . S
H1007 C1025 0.930 . S
H1008 C1016 0.930 . S
H1009 C1017 0.930 . S
H1010 C1041 0.929 . S
H1011 C999 0.930 . S
H1012 C1000 0.929 . S
H1013 C1042 0.930 . S
H1014 C1023 0.930 . S
N1015 Gd984 2.661 . S
N1015 C1019 1.350 . S
N1015 C1020 1.307 . S
C1016 H1008 0.930 . S
C1016 C1017 1.355 . S
C1016 C1018 1.412 . S
C1017 H1009 0.930 . S
C1017 C1016 1.355 . S
C1017 C1020 1.402 . S
C1018 C1016 1.412 . S
C1018 C1019 1.417 . S
C1018 C1042 1.431 . S
C1019 N1015 1.350 . S
C1019 C1018 1.417 . S
C1019 C1022 1.426 . S
C1020 H1003 0.930 . S
C1020 N1015 1.307 . S
C1020 C1017 1.402 . S
N1021 Gd984 2.601 . S
N1021 C1022 1.359 . S
N1021 C1025 1.334 . S
C1022 C1019 1.426 . S
C1022 N1021 1.359 . S
C1022 C1026 1.413 . S
C1023 H1014 0.930 . S
C1023 C1024 1.359 . S
C1023 C1025 1.394 . S
C1024 C1023 1.359 . S
C1024 C1026 1.391 . S
C1024 H1027 0.929 . S
C1025 H1007 0.930 . S
C1025 N1021 1.334 . S
C1025 C1023 1.394 . S
C1026 C1022 1.413 . S
C1026 C1024 1.391 . S
C1026 C1041 1.437 . S
H1027 C1024 0.929 . S
O1028 Gd984 2.545 . S
O1028 C1043 1.258 . S
O1029 Gd984 2.606 . S
O1029 Gd985 2.362 . S
O1029 C1040 1.284 . S
O1030 Gd985 2.324 . S
O1030 C1050 1.254 . S
O1031 Gd984 2.429 . S
O1031 C1050 1.268 . S
O1032 Gd984 2.545 . S
O1032 C1040 1.250 . S
O1033 Gd984 2.412 . S
O1033 C1043 1.252 . S
O1034 Gd985 2.545 . S
O1034 C1052 1.258 . S
O1035 Gd984 2.362 . S
O1035 Gd985 2.606 . S
O1035 C1051 1.284 . S
O1036 Gd984 2.324 . S
O1036 C1059 1.254 . S
O1037 Gd985 2.429 . S
O1037 C1059 1.268 . S
O1038 Gd985 2.545 . S
O1038 C1051 1.250 . S
O1039 Gd985 2.412 . S
O1039 C1052 1.252 . S
C1040 O1029 1.284 . S
C1040 O1032 1.250 . S
C1041 H1010 0.929 . S
C1041 C1026 1.437 . S
C1041 C1042 1.317 . S
C1042 H1013 0.930 . S
C1042 C1018 1.431 . S
C1042 C1041 1.317 . S
C1043 Gd984 2.828 . S
C1043 O1028 1.258 . S
C1043 O1033 1.252 . S
C1043 C1044 1.497 . S
C1044 C1043 1.497 . S
C1044 C1045 1.395 . S
C1044 C1046 1.380 . S
C1045 C1044 1.395 . S
C1045 C1048 1.398 . S
C1045 H1060 0.930 . S
C1046 C1044 1.380 . S
C1046 C1047 1.391 . S
C1046 H1061 0.930 . S
C1047 C1046 1.391 . S
C1047 C1049 1.387 . S
C1048 C1045 1.398 . S
C1048 C1049 1.380 . S
C1048 H1062 0.930 . S
C1049 C1047 1.387 . S
C1049 C1048 1.380 . S
C1049 H1063 0.930 . S
C1050 O1030 1.254 . S
C1050 O1031 1.268 . S
C1051 O1035 1.284 . S
C1051 O1038 1.250 . S
C1052 Gd985 2.828 . S
C1052 O1034 1.258 . S
C1052 O1039 1.252 . S
C1052 C1053 1.497 . S
C1053 C1052 1.497 . S
C1053 C1054 1.395 . S
C1053 C1055 1.380 . S
C1054 C1053 1.395 . S
C1054 C1057 1.398 . S
C1054 H1064 0.930 . S
C1055 C1053 1.380 . S
C1055 C1056 1.391 . S
C1055 H1065 0.930 . S
C1056 C1055 1.391 . S
C1056 C1058 1.387 . S
C1057 C1054 1.398 . S
C1057 C1058 1.380 . S
C1057 H1066 0.930 . S
C1058 C1056 1.387 . S
C1058 C1057 1.380 . S
C1058 H1067 0.930 . S
C1059 O1036 1.254 . S
C1059 O1037 1.268 . S
H1060 C1045 0.930 . S
H1061 C1046 0.930 . S
H1062 C1048 0.930 . S
H1063 C1049 0.930 . S
H1064 C1054 0.930 . S
H1065 C1055 0.930 . S
H1066 C1057 0.930 . S
H1067 C1058 0.930 . S
Gd1068 N1099 2.661 . S
Gd1068 N1105 2.601 . S
Gd1068 O1112 2.545 . S
Gd1068 O1113 2.606 . S
Gd1068 O1115 2.429 . S
Gd1068 O1116 2.545 . S
Gd1068 O1117 2.412 . S
Gd1068 O1119 2.362 . S
Gd1068 O1120 2.324 . S
Gd1068 C1127 2.828 . S
Gd1069 N1078 2.661 . S
Gd1069 N1082 2.601 . S
Gd1069 O1113 2.362 . S
Gd1069 O1114 2.324 . S
Gd1069 O1118 2.545 . S
Gd1069 O1119 2.606 . S
Gd1069 O1121 2.429 . S
Gd1069 O1122 2.545 . S
Gd1069 O1123 2.412 . S
Gd1069 C1136 2.828 . S
C1070 C1073 1.417 . S
C1070 C1075 1.431 . S
C1070 C1076 1.412 . S
C1071 C1074 1.437 . S
C1071 C1075 1.317 . S
C1071 H1090 0.929 . S
C1072 C1073 1.426 . S
C1072 C1074 1.413 . S
C1072 N1082 1.359 . S
C1073 C1070 1.417 . S
C1073 C1072 1.426 . S
C1073 N1078 1.350 . S
C1074 C1071 1.437 . S
C1074 C1072 1.413 . S
C1074 C1084 1.391 . S
C1075 C1070 1.431 . S
C1075 C1071 1.317 . S
C1075 H1086 0.930 . S
C1076 C1070 1.412 . S
C1076 C1077 1.355 . S
C1076 H1088 0.930 . S
C1077 C1076 1.355 . S
C1077 C1079 1.402 . S
C1077 H1089 0.930 . S
N1078 Gd1069 2.661 . S
N1078 C1073 1.350 . S
N1078 C1079 1.307 . S
C1079 C1077 1.402 . S
C1079 N1078 1.307 . S
C1079 H1080 0.930 . S
H1080 C1079 0.930 . S
C1081 N1082 1.334 . S
C1081 C1083 1.394 . S
C1081 H1085 0.930 . S
N1082 Gd1069 2.601 . S
N1082 C1072 1.359 . S
N1082 C1081 1.334 . S
C1083 C1081 1.394 . S
C1083 C1084 1.359 . S
C1083 H1095 0.930 . S
C1084 C1074 1.391 . S
C1084 C1083 1.359 . S
C1084 H1096 0.929 . S
H1085 C1081 0.930 . S
H1086 C1075 0.930 . S
H1087 C1104 0.930 . S
H1088 C1076 0.930 . S
H1089 C1077 0.930 . S
H1090 C1071 0.929 . S
H1091 C1109 0.930 . S
H1092 C1100 0.930 . S
H1093 C1101 0.930 . S
H1094 C1125 0.929 . S
H1095 C1083 0.930 . S
H1096 C1084 0.929 . S
H1097 C1126 0.930 . S
H1098 C1107 0.930 . S
N1099 Gd1068 2.661 . S
N1099 C1103 1.350 . S
N1099 C1104 1.307 . S
C1100 H1092 0.930 . S
C1100 C1101 1.355 . S
C1100 C1102 1.412 . S
C1101 H1093 0.930 . S
C1101 C1100 1.355 . S
C1101 C1104 1.402 . S
C1102 C1100 1.412 . S
C1102 C1103 1.417 . S
C1102 C1126 1.431 . S
C1103 N1099 1.350 . S
C1103 C1102 1.417 . S
C1103 C1106 1.426 . S
C1104 H1087 0.930 . S
C1104 N1099 1.307 . S
C1104 C1101 1.402 . S
N1105 Gd1068 2.601 . S
N1105 C1106 1.359 . S
N1105 C1109 1.334 . S
C1106 C1103 1.426 . S
C1106 N1105 1.359 . S
C1106 C1110 1.413 . S
C1107 H1098 0.930 . S
C1107 C1108 1.359 . S
C1107 C1109 1.394 . S
C1108 C1107 1.359 . S
C1108 C1110 1.391 . S
C1108 H1111 0.929 . S
C1109 H1091 0.930 . S
C1109 N1105 1.334 . S
C1109 C1107 1.394 . S
C1110 C1106 1.413 . S
C1110 C1108 1.391 . S
C1110 C1125 1.437 . S
H1111 C1108 0.929 . S
O1112 Gd1068 2.545 . S
O1112 C1127 1.258 . S
O1113 Gd1068 2.606 . S
O1113 Gd1069 2.362 . S
O1113 C1124 1.284 . S
O1114 Gd1069 2.324 . S
O1114 C1134 1.254 . S
O1115 Gd1068 2.429 . S
O1115 C1134 1.268 . S
O1116 Gd1068 2.545 . S
O1116 C1124 1.250 . S
O1117 Gd1068 2.412 . S
O1117 C1127 1.252 . S
O1118 Gd1069 2.545 . S
O1118 C1136 1.258 . S
O1119 Gd1068 2.362 . S
O1119 Gd1069 2.606 . S
O1119 C1135 1.284 . S
O1120 Gd1068 2.324 . S
O1120 C1143 1.254 . S
O1121 Gd1069 2.429 . S
O1121 C1143 1.268 . S
O1122 Gd1069 2.545 . S
O1122 C1135 1.250 . S
O1123 Gd1069 2.412 . S
O1123 C1136 1.252 . S
C1124 O1113 1.284 . S
C1124 O1116 1.250 . S
C1125 H1094 0.929 . S
C1125 C1110 1.437 . S
C1125 C1126 1.317 . S
C1126 H1097 0.930 . S
C1126 C1102 1.431 . S
C1126 C1125 1.317 . S
C1127 Gd1068 2.828 . S
C1127 O1112 1.258 . S
C1127 O1117 1.252 . S
C1127 C1128 1.497 . S
C1128 C1127 1.497 . S
C1128 C1129 1.395 . S
C1128 C1130 1.380 . S
C1129 C1128 1.395 . S
C1129 C1132 1.398 . S
C1129 H1144 0.930 . S
C1130 C1128 1.380 . S
C1130 C1131 1.391 . S
C1130 H1145 0.930 . S
C1131 C1130 1.391 . S
C1131 C1133 1.387 . S
C1132 C1129 1.398 . S
C1132 C1133 1.380 . S
C1132 H1146 0.930 . S
C1133 C1131 1.387 . S
C1133 C1132 1.380 . S
C1133 H1147 0.930 . S
C1134 O1114 1.254 . S
C1134 O1115 1.268 . S
C1135 O1119 1.284 . S
C1135 O1122 1.250 . S
C1136 Gd1069 2.828 . S
C1136 O1118 1.258 . S
C1136 O1123 1.252 . S
C1136 C1137 1.497 . S
C1137 C1136 1.497 . S
C1137 C1138 1.395 . S
C1137 C1139 1.380 . S
C1138 C1137 1.395 . S
C1138 C1141 1.398 . S
C1138 H1148 0.930 . S
C1139 C1137 1.380 . S
C1139 C1140 1.391 . S
C1139 H1149 0.930 . S
C1140 C1139 1.391 . S
C1140 C1142 1.387 . S
C1141 C1138 1.398 . S
C1141 C1142 1.380 . S
C1141 H1150 0.930 . S
C1142 C1140 1.387 . S
C1142 C1141 1.380 . S
C1142 H1151 0.930 . S
C1143 O1120 1.254 . S
C1143 O1121 1.268 . S
H1144 C1129 0.930 . S
H1145 C1130 0.930 . S
H1146 C1132 0.930 . S
H1147 C1133 0.930 . S
H1148 C1138 0.930 . S
H1149 C1139 0.930 . S
H1150 C1141 0.930 . S
H1151 C1142 0.930 . S
Gd1152 N1183 2.661 . S
Gd1152 N1189 2.601 . S
Gd1152 O1196 2.545 . S
Gd1152 O1197 2.606 . S
Gd1152 O1199 2.429 . S
Gd1152 O1200 2.545 . S
Gd1152 O1201 2.412 . S
Gd1152 O1203 2.362 . S
Gd1152 O1204 2.324 . S
Gd1152 C1211 2.828 . S
Gd1153 N1162 2.661 . S
Gd1153 N1166 2.601 . S
Gd1153 O1197 2.362 . S
Gd1153 O1198 2.324 . S
Gd1153 O1202 2.545 . S
Gd1153 O1203 2.606 . S
Gd1153 O1205 2.429 . S
Gd1153 O1206 2.545 . S
Gd1153 O1207 2.412 . S
Gd1153 C1220 2.828 . S
C1154 C1157 1.417 . S
C1154 C1159 1.431 . S
C1154 C1160 1.412 . S
C1155 C1158 1.437 . S
C1155 C1159 1.317 . S
C1155 H1174 0.929 . S
C1156 C1157 1.426 . S
C1156 C1158 1.413 . S
C1156 N1166 1.359 . S
C1157 C1154 1.417 . S
C1157 C1156 1.426 . S
C1157 N1162 1.350 . S
C1158 C1155 1.437 . S
C1158 C1156 1.413 . S
C1158 C1168 1.391 . S
C1159 C1154 1.431 . S
C1159 C1155 1.317 . S
C1159 H1170 0.930 . S
C1160 C1154 1.412 . S
C1160 C1161 1.355 . S
C1160 H1172 0.930 . S
C1161 C1160 1.355 . S
C1161 C1163 1.402 . S
C1161 H1173 0.930 . S
N1162 Gd1153 2.661 . S
N1162 C1157 1.350 . S
N1162 C1163 1.307 . S
C1163 C1161 1.402 . S
C1163 N1162 1.307 . S
C1163 H1164 0.930 . S
H1164 C1163 0.930 . S
C1165 N1166 1.334 . S
C1165 C1167 1.394 . S
C1165 H1169 0.930 . S
N1166 Gd1153 2.601 . S
N1166 C1156 1.359 . S
N1166 C1165 1.334 . S
C1167 C1165 1.394 . S
C1167 C1168 1.359 . S
C1167 H1179 0.930 . S
C1168 C1158 1.391 . S
C1168 C1167 1.359 . S
C1168 H1180 0.929 . S
H1169 C1165 0.930 . S
H1170 C1159 0.930 . S
H1171 C1188 0.930 . S
H1172 C1160 0.930 . S
H1173 C1161 0.930 . S
H1174 C1155 0.929 . S
H1175 C1193 0.930 . S
H1176 C1184 0.930 . S
H1177 C1185 0.930 . S
H1178 C1209 0.929 . S
H1179 C1167 0.930 . S
H1180 C1168 0.929 . S
H1181 C1210 0.930 . S
H1182 C1191 0.930 . S
N1183 Gd1152 2.661 . S
N1183 C1187 1.350 . S
N1183 C1188 1.307 . S
C1184 H1176 0.930 . S
C1184 C1185 1.355 . S
C1184 C1186 1.412 . S
C1185 H1177 0.930 . S
C1185 C1184 1.355 . S
C1185 C1188 1.402 . S
C1186 C1184 1.412 . S
C1186 C1187 1.417 . S
C1186 C1210 1.431 . S
C1187 N1183 1.350 . S
C1187 C1186 1.417 . S
C1187 C1190 1.426 . S
C1188 H1171 0.930 . S
C1188 N1183 1.307 . S
C1188 C1185 1.402 . S
N1189 Gd1152 2.601 . S
N1189 C1190 1.359 . S
N1189 C1193 1.334 . S
C1190 C1187 1.426 . S
C1190 N1189 1.359 . S
C1190 C1194 1.413 . S
C1191 H1182 0.930 . S
C1191 C1192 1.359 . S
C1191 C1193 1.394 . S
C1192 C1191 1.359 . S
C1192 C1194 1.391 . S
C1192 H1195 0.929 . S
C1193 H1175 0.930 . S
C1193 N1189 1.334 . S
C1193 C1191 1.394 . S
C1194 C1190 1.413 . S
C1194 C1192 1.391 . S
C1194 C1209 1.437 . S
H1195 C1192 0.929 . S
O1196 Gd1152 2.545 . S
O1196 C1211 1.258 . S
O1197 Gd1152 2.606 . S
O1197 Gd1153 2.362 . S
O1197 C1208 1.284 . S
O1198 Gd1153 2.324 . S
O1198 C1218 1.254 . S
O1199 Gd1152 2.429 . S
O1199 C1218 1.268 . S
O1200 Gd1152 2.545 . S
O1200 C1208 1.250 . S
O1201 Gd1152 2.412 . S
O1201 C1211 1.252 . S
O1202 Gd1153 2.545 . S
O1202 C1220 1.258 . S
O1203 Gd1152 2.362 . S
O1203 Gd1153 2.606 . S
O1203 C1219 1.284 . S
O1204 Gd1152 2.324 . S
O1204 C1227 1.254 . S
O1205 Gd1153 2.429 . S
O1205 C1227 1.268 . S
O1206 Gd1153 2.545 . S
O1206 C1219 1.250 . S
O1207 Gd1153 2.412 . S
O1207 C1220 1.252 . S
C1208 O1197 1.284 . S
C1208 O1200 1.250 . S
C1209 H1178 0.929 . S
C1209 C1194 1.437 . S
C1209 C1210 1.317 . S
C1210 H1181 0.930 . S
C1210 C1186 1.431 . S
C1210 C1209 1.317 . S
C1211 Gd1152 2.828 . S
C1211 O1196 1.258 . S
C1211 O1201 1.252 . S
C1211 C1212 1.497 . S
C1212 C1211 1.497 . S
C1212 C1213 1.395 . S
C1212 C1214 1.380 . S
C1213 C1212 1.395 . S
C1213 C1216 1.398 . S
C1213 H1228 0.930 . S
C1214 C1212 1.380 . S
C1214 C1215 1.391 . S
C1214 H1229 0.930 . S
C1215 C1214 1.391 . S
C1215 C1217 1.387 . S
C1216 C1213 1.398 . S
C1216 C1217 1.380 . S
C1216 H1230 0.930 . S
C1217 C1215 1.387 . S
C1217 C1216 1.380 . S
C1217 H1231 0.930 . S
C1218 O1198 1.254 . S
C1218 O1199 1.268 . S
C1219 O1203 1.284 . S
C1219 O1206 1.250 . S
C1220 Gd1153 2.828 . S
C1220 O1202 1.258 . S
C1220 O1207 1.252 . S
C1220 C1221 1.497 . S
C1221 C1220 1.497 . S
C1221 C1222 1.395 . S
C1221 C1223 1.380 . S
C1222 C1221 1.395 . S
C1222 C1225 1.398 . S
C1222 H1232 0.930 . S
C1223 C1221 1.380 . S
C1223 C1224 1.391 . S
C1223 H1233 0.930 . S
C1224 C1223 1.391 . S
C1224 C1226 1.387 . S
C1225 C1222 1.398 . S
C1225 C1226 1.380 . S
C1225 H1234 0.930 . S
C1226 C1224 1.387 . S
C1226 C1225 1.380 . S
C1226 H1235 0.930 . S
C1227 O1204 1.254 . S
C1227 O1205 1.268 . S
H1228 C1213 0.930 . S
H1229 C1214 0.930 . S
H1230 C1216 0.930 . S
H1231 C1217 0.930 . S
H1232 C1222 0.930 . S
H1233 C1223 0.930 . S
H1234 C1225 0.930 . S
H1235 C1226 0.930 . S
Gd1236 N1267 2.661 . S
Gd1236 N1273 2.601 . S
Gd1236 O1280 2.545 . S
Gd1236 O1281 2.606 . S
Gd1236 O1283 2.429 . S
Gd1236 O1284 2.545 . S
Gd1236 O1285 2.412 . S
Gd1236 O1287 2.362 . S
Gd1236 O1288 2.324 . S
Gd1236 C1295 2.828 . S
Gd1237 N1246 2.661 . S
Gd1237 N1250 2.601 . S
Gd1237 O1281 2.362 . S
Gd1237 O1282 2.324 . S
Gd1237 O1286 2.545 . S
Gd1237 O1287 2.606 . S
Gd1237 O1289 2.429 . S
Gd1237 O1290 2.545 . S
Gd1237 O1291 2.412 . S
Gd1237 C1304 2.828 . S
C1238 C1241 1.417 . S
C1238 C1243 1.431 . S
C1238 C1244 1.412 . S
C1239 C1242 1.437 . S
C1239 C1243 1.317 . S
C1239 H1258 0.929 . S
C1240 C1241 1.426 . S
C1240 C1242 1.413 . S
C1240 N1250 1.359 . S
C1241 C1238 1.417 . S
C1241 C1240 1.426 . S
C1241 N1246 1.350 . S
C1242 C1239 1.437 . S
C1242 C1240 1.413 . S
C1242 C1252 1.391 . S
C1243 C1238 1.431 . S
C1243 C1239 1.317 . S
C1243 H1254 0.930 . S
C1244 C1238 1.412 . S
C1244 C1245 1.355 . S
C1244 H1256 0.930 . S
C1245 C1244 1.355 . S
C1245 C1247 1.402 . S
C1245 H1257 0.930 . S
N1246 Gd1237 2.661 . S
N1246 C1241 1.350 . S
N1246 C1247 1.307 . S
C1247 C1245 1.402 . S
C1247 N1246 1.307 . S
C1247 H1248 0.930 . S
H1248 C1247 0.930 . S
C1249 N1250 1.334 . S
C1249 C1251 1.394 . S
C1249 H1253 0.930 . S
N1250 Gd1237 2.601 . S
N1250 C1240 1.359 . S
N1250 C1249 1.334 . S
C1251 C1249 1.394 . S
C1251 C1252 1.359 . S
C1251 H1263 0.930 . S
C1252 C1242 1.391 . S
C1252 C1251 1.359 . S
C1252 H1264 0.929 . S
H1253 C1249 0.930 . S
H1254 C1243 0.930 . S
H1255 C1272 0.930 . S
H1256 C1244 0.930 . S
H1257 C1245 0.930 . S
H1258 C1239 0.929 . S
H1259 C1277 0.930 . S
H1260 C1268 0.930 . S
H1261 C1269 0.930 . S
H1262 C1293 0.929 . S
H1263 C1251 0.930 . S
H1264 C1252 0.929 . S
H1265 C1294 0.930 . S
H1266 C1275 0.930 . S
N1267 Gd1236 2.661 . S
N1267 C1271 1.350 . S
N1267 C1272 1.307 . S
C1268 H1260 0.930 . S
C1268 C1269 1.355 . S
C1268 C1270 1.412 . S
C1269 H1261 0.930 . S
C1269 C1268 1.355 . S
C1269 C1272 1.402 . S
C1270 C1268 1.412 . S
C1270 C1271 1.417 . S
C1270 C1294 1.431 . S
C1271 N1267 1.350 . S
C1271 C1270 1.417 . S
C1271 C1274 1.426 . S
C1272 H1255 0.930 . S
C1272 N1267 1.307 . S
C1272 C1269 1.402 . S
N1273 Gd1236 2.601 . S
N1273 C1274 1.359 . S
N1273 C1277 1.334 . S
C1274 C1271 1.426 . S
C1274 N1273 1.359 . S
C1274 C1278 1.413 . S
C1275 H1266 0.930 . S
C1275 C1276 1.359 . S
C1275 C1277 1.394 . S
C1276 C1275 1.359 . S
C1276 C1278 1.391 . S
C1276 H1279 0.929 . S
C1277 H1259 0.930 . S
C1277 N1273 1.334 . S
C1277 C1275 1.394 . S
C1278 C1274 1.413 . S
C1278 C1276 1.391 . S
C1278 C1293 1.437 . S
H1279 C1276 0.929 . S
O1280 Gd1236 2.545 . S
O1280 C1295 1.258 . S
O1281 Gd1236 2.606 . S
O1281 Gd1237 2.362 . S
O1281 C1292 1.284 . S
O1282 Gd1237 2.324 . S
O1282 C1302 1.254 . S
O1283 Gd1236 2.429 . S
O1283 C1302 1.268 . S
O1284 Gd1236 2.545 . S
O1284 C1292 1.250 . S
O1285 Gd1236 2.412 . S
O1285 C1295 1.252 . S
O1286 Gd1237 2.545 . S
O1286 C1304 1.258 . S
O1287 Gd1236 2.362 . S
O1287 Gd1237 2.606 . S
O1287 C1303 1.284 . S
O1288 Gd1236 2.324 . S
O1288 C1311 1.254 . S
O1289 Gd1237 2.429 . S
O1289 C1311 1.268 . S
O1290 Gd1237 2.545 . S
O1290 C1303 1.250 . S
O1291 Gd1237 2.412 . S
O1291 C1304 1.252 . S
C1292 O1281 1.284 . S
C1292 O1284 1.250 . S
C1293 H1262 0.929 . S
C1293 C1278 1.437 . S
C1293 C1294 1.317 . S
C1294 H1265 0.930 . S
C1294 C1270 1.431 . S
C1294 C1293 1.317 . S
C1295 Gd1236 2.828 . S
C1295 O1280 1.258 . S
C1295 O1285 1.252 . S
C1295 C1296 1.497 . S
C1296 C1295 1.497 . S
C1296 C1297 1.395 . S
C1296 C1298 1.380 . S
C1297 C1296 1.395 . S
C1297 C1300 1.398 . S
C1297 H1312 0.930 . S
C1298 C1296 1.380 . S
C1298 C1299 1.391 . S
C1298 H1313 0.930 . S
C1299 C1298 1.391 . S
C1299 C1301 1.387 . S
C1300 C1297 1.398 . S
C1300 C1301 1.380 . S
C1300 H1314 0.930 . S
C1301 C1299 1.387 . S
C1301 C1300 1.380 . S
C1301 H1315 0.930 . S
C1302 O1282 1.254 . S
C1302 O1283 1.268 . S
C1303 O1287 1.284 . S
C1303 O1290 1.250 . S
C1304 Gd1237 2.828 . S
C1304 O1286 1.258 . S
C1304 O1291 1.252 . S
C1304 C1305 1.497 . S
C1305 C1304 1.497 . S
C1305 C1306 1.395 . S
C1305 C1307 1.380 . S
C1306 C1305 1.395 . S
C1306 C1309 1.398 . S
C1306 H1316 0.930 . S
C1307 C1305 1.380 . S
C1307 C1308 1.391 . S
C1307 H1317 0.930 . S
C1308 C1307 1.391 . S
C1308 C1310 1.387 . S
C1309 C1306 1.398 . S
C1309 C1310 1.380 . S
C1309 H1318 0.930 . S
C1310 C1308 1.387 . S
C1310 C1309 1.380 . S
C1310 H1319 0.930 . S
C1311 O1288 1.254 . S
C1311 O1289 1.268 . S
H1312 C1297 0.930 . S
H1313 C1298 0.930 . S
H1314 C1300 0.930 . S
H1315 C1301 0.930 . S
H1316 C1306 0.930 . S
H1317 C1307 0.930 . S
H1318 C1309 0.930 . S
H1319 C1310 0.930 . S
Gd1320 N1351 2.661 . S
Gd1320 N1357 2.601 . S
Gd1320 O1364 2.545 . S
Gd1320 O1365 2.606 . S
Gd1320 O1367 2.429 . S
Gd1320 O1368 2.545 . S
Gd1320 O1369 2.412 . S
Gd1320 O1371 2.362 . S
Gd1320 O1372 2.324 . S
Gd1320 C1379 2.828 . S
Gd1321 N1330 2.661 . S
Gd1321 N1334 2.601 . S
Gd1321 O1365 2.362 . S
Gd1321 O1366 2.324 . S
Gd1321 O1370 2.545 . S
Gd1321 O1371 2.606 . S
Gd1321 O1373 2.429 . S
Gd1321 O1374 2.545 . S
Gd1321 O1375 2.412 . S
Gd1321 C1388 2.828 . S
C1322 C1325 1.417 . S
C1322 C1327 1.431 . S
C1322 C1328 1.412 . S
C1323 C1326 1.437 . S
C1323 C1327 1.317 . S
C1323 H1342 0.929 . S
C1324 C1325 1.426 . S
C1324 C1326 1.413 . S
C1324 N1334 1.359 . S
C1325 C1322 1.417 . S
C1325 C1324 1.426 . S
C1325 N1330 1.350 . S
C1326 C1323 1.437 . S
C1326 C1324 1.413 . S
C1326 C1336 1.391 . S
C1327 C1322 1.431 . S
C1327 C1323 1.317 . S
C1327 H1338 0.930 . S
C1328 C1322 1.412 . S
C1328 C1329 1.355 . S
C1328 H1340 0.930 . S
C1329 C1328 1.355 . S
C1329 C1331 1.402 . S
C1329 H1341 0.930 . S
N1330 Gd1321 2.661 . S
N1330 C1325 1.350 . S
N1330 C1331 1.307 . S
C1331 C1329 1.402 . S
C1331 N1330 1.307 . S
C1331 H1332 0.930 . S
H1332 C1331 0.930 . S
C1333 N1334 1.334 . S
C1333 C1335 1.394 . S
C1333 H1337 0.930 . S
N1334 Gd1321 2.601 . S
N1334 C1324 1.359 . S
N1334 C1333 1.334 . S
C1335 C1333 1.394 . S
C1335 C1336 1.359 . S
C1335 H1347 0.930 . S
C1336 C1326 1.391 . S
C1336 C1335 1.359 . S
C1336 H1348 0.929 . S
H1337 C1333 0.930 . S
H1338 C1327 0.930 . S
H1339 C1356 0.930 . S
H1340 C1328 0.930 . S
H1341 C1329 0.930 . S
H1342 C1323 0.929 . S
H1343 C1361 0.930 . S
H1344 C1352 0.930 . S
H1345 C1353 0.930 . S
H1346 C1377 0.929 . S
H1347 C1335 0.930 . S
H1348 C1336 0.929 . S
H1349 C1378 0.930 . S
H1350 C1359 0.930 . S
N1351 Gd1320 2.661 . S
N1351 C1355 1.350 . S
N1351 C1356 1.307 . S
C1352 H1344 0.930 . S
C1352 C1353 1.355 . S
C1352 C1354 1.412 . S
C1353 H1345 0.930 . S
C1353 C1352 1.355 . S
C1353 C1356 1.402 . S
C1354 C1352 1.412 . S
C1354 C1355 1.417 . S
C1354 C1378 1.431 . S
C1355 N1351 1.350 . S
C1355 C1354 1.417 . S
C1355 C1358 1.426 . S
C1356 H1339 0.930 . S
C1356 N1351 1.307 . S
C1356 C1353 1.402 . S
N1357 Gd1320 2.601 . S
N1357 C1358 1.359 . S
N1357 C1361 1.334 . S
C1358 C1355 1.426 . S
C1358 N1357 1.359 . S
C1358 C1362 1.413 . S
C1359 H1350 0.930 . S
C1359 C1360 1.359 . S
C1359 C1361 1.394 . S
C1360 C1359 1.359 . S
C1360 C1362 1.391 . S
C1360 H1363 0.929 . S
C1361 H1343 0.930 . S
C1361 N1357 1.334 . S
C1361 C1359 1.394 . S
C1362 C1358 1.413 . S
C1362 C1360 1.391 . S
C1362 C1377 1.437 . S
H1363 C1360 0.929 . S
O1364 Gd1320 2.545 . S
O1364 C1379 1.258 . S
O1365 Gd1320 2.606 . S
O1365 Gd1321 2.362 . S
O1365 C1376 1.284 . S
O1366 Gd1321 2.324 . S
O1366 C1386 1.254 . S
O1367 Gd1320 2.429 . S
O1367 C1386 1.268 . S
O1368 Gd1320 2.545 . S
O1368 C1376 1.250 . S
O1369 Gd1320 2.412 . S
O1369 C1379 1.252 . S
O1370 Gd1321 2.545 . S
O1370 C1388 1.258 . S
O1371 Gd1320 2.362 . S
O1371 Gd1321 2.606 . S
O1371 C1387 1.284 . S
O1372 Gd1320 2.324 . S
O1372 C1395 1.254 . S
O1373 Gd1321 2.429 . S
O1373 C1395 1.268 . S
O1374 Gd1321 2.545 . S
O1374 C1387 1.250 . S
O1375 Gd1321 2.412 . S
O1375 C1388 1.252 . S
C1376 O1365 1.284 . S
C1376 O1368 1.250 . S
C1377 H1346 0.929 . S
C1377 C1362 1.437 . S
C1377 C1378 1.317 . S
C1378 H1349 0.930 . S
C1378 C1354 1.431 . S
C1378 C1377 1.317 . S
C1379 Gd1320 2.828 . S
C1379 O1364 1.258 . S
C1379 O1369 1.252 . S
C1379 C1380 1.497 . S
C1380 C1379 1.497 . S
C1380 C1381 1.395 . S
C1380 C1382 1.380 . S
C1381 C1380 1.395 . S
C1381 C1384 1.398 . S
C1381 H1396 0.930 . S
C1382 C1380 1.380 . S
C1382 C1383 1.391 . S
C1382 H1397 0.930 . S
C1383 C1382 1.391 . S
C1383 C1385 1.387 . S
C1384 C1381 1.398 . S
C1384 C1385 1.380 . S
C1384 H1398 0.930 . S
C1385 C1383 1.387 . S
C1385 C1384 1.380 . S
C1385 H1399 0.930 . S
C1386 O1366 1.254 . S
C1386 O1367 1.268 . S
C1387 O1371 1.284 . S
C1387 O1374 1.250 . S
C1388 Gd1321 2.828 . S
C1388 O1370 1.258 . S
C1388 O1375 1.252 . S
C1388 C1389 1.497 . S
C1389 C1388 1.497 . S
C1389 C1390 1.395 . S
C1389 C1391 1.380 . S
C1390 C1389 1.395 . S
C1390 C1393 1.398 . S
C1390 H1400 0.930 . S
C1391 C1389 1.380 . S
C1391 C1392 1.391 . S
C1391 H1401 0.930 . S
C1392 C1391 1.391 . S
C1392 C1394 1.387 . S
C1393 C1390 1.398 . S
C1393 C1394 1.380 . S
C1393 H1402 0.930 . S
C1394 C1392 1.387 . S
C1394 C1393 1.380 . S
C1394 H1403 0.930 . S
C1395 O1372 1.254 . S
C1395 O1373 1.268 . S
H1396 C1381 0.930 . S
H1397 C1382 0.930 . S
H1398 C1384 0.930 . S
H1399 C1385 0.930 . S
H1400 C1390 0.930 . S
H1401 C1391 0.930 . S
H1402 C1393 0.930 . S
H1403 C1394 0.930 . S
H1404 C1422 0.951 . S
H1405 C1424 0.951 . S
H1406 C1426 0.950 . S
H1407 C1427 0.950 . S
H1408 C1429 0.950 . S
H1409 C1432 0.950 . S
H1410 C1433 0.950 . S
H1411 C1435 0.950 . S
H1412 C1436 0.950 . S
H1413 C1437 0.951 . S
H1414 C1439 0.951 . S
H1415 C1441 0.950 . S
H1416 C1442 0.950 . S
H1417 C1444 0.950 . S
H1418 C1447 0.950 . S
H1419 C1448 0.950 1_556 S
H1420 C1450 0.950 . S
H1421 C1451 0.950 . S
C1422 H1404 0.951 . S
C1422 C1423 1.366 . S
C1422 C1424 1.388 . S
C1423 C1422 1.366 . S
C1423 C1427 1.385 . S
C1424 H1405 0.951 . S
C1424 C1422 1.388 . S
C1424 C1425 1.366 . S
C1425 C1424 1.366 . S
C1425 C1426 1.414 . S
C1425 C1428 1.499 . S
C1426 H1406 0.950 . S
C1426 C1425 1.414 . S
C1426 C1427 1.374 . S
C1427 H1407 0.950 . S
C1427 C1423 1.385 . S
C1427 C1426 1.374 . S
C1428 C1425 1.499 . S
C1428 C1429 1.373 . S
C1428 C1430 1.389 . S
C1429 H1408 0.950 . S
C1429 C1428 1.373 . S
C1429 C1445 1.377 . S
C1430 C1428 1.389 . S
C1430 C1431 1.524 . S
C1430 C1444 1.377 . S
C1431 C1430 1.524 . S
C1431 C1432 1.397 . S
C1431 C1436 1.363 . S
C1432 H1409 0.950 . S
C1432 C1431 1.397 . S
C1432 C1433 1.334 . S
C1433 H1410 0.950 . S
C1433 C1432 1.334 . S
C1433 C1434 1.287 . S
C1434 C1433 1.287 . S
C1434 C1435 1.524 . S
C1434 H1453 0.913 . S
C1435 H1411 0.950 . S
C1435 C1434 1.524 . S
C1435 C1436 1.415 . S
C1436 H1412 0.950 . S
C1436 C1431 1.363 . S
C1436 C1435 1.415 . S
C1437 H1413 0.951 . S
C1437 C1438 1.366 . S
C1437 C1439 1.388 . S
C1438 C1437 1.366 . S
C1438 C1442 1.385 . S
C1439 H1414 0.951 . S
C1439 C1437 1.388 . S
C1439 C1440 1.366 . S
C1440 C1439 1.366 . S
C1440 C1441 1.414 . S
C1440 C1443 1.499 . S
C1441 H1415 0.950 . S
C1441 C1440 1.414 . S
C1441 C1442 1.374 . S
C1442 H1416 0.950 . S
C1442 C1438 1.385 . S
C1442 C1441 1.374 . S
C1443 C1440 1.499 . S
C1443 C1444 1.373 . S
C1443 C1445 1.389 . S
C1444 H1417 0.950 . S
C1444 C1430 1.377 . S
C1444 C1443 1.373 . S
C1445 C1429 1.377 . S
C1445 C1443 1.389 . S
C1445 C1446 1.524 . S
C1446 C1445 1.524 . S
C1446 C1447 1.397 . S
C1446 C1451 1.363 . S
C1447 H1418 0.950 . S
C1447 C1446 1.397 . S
C1447 C1448 1.334 . S
C1448 H1419 0.950 1_554 S
C1448 C1447 1.334 . S
C1448 C1449 1.287 . S
C1449 C1448 1.287 . S
C1449 C1450 1.524 . S
C1449 H1452 1.037 . S
C1450 H1420 0.950 . S
C1450 C1449 1.524 . S
C1450 C1451 1.415 . S
C1451 H1421 0.950 . S
C1451 C1446 1.363 . S
C1451 C1450 1.415 . S
H1452 C1449 1.037 . S
H1453 C1434 0.913 . S
H1454 C1472 0.951 . S
H1455 C1474 0.951 . S
H1456 C1476 0.950 . S
H1457 C1477 0.950 . S
H1458 C1479 0.950 . S
H1459 C1482 0.950 . S
H1460 C1483 0.950 . S
H1461 C1485 0.950 . S
H1462 C1486 0.950 . S
H1463 C1487 0.951 . S
H1464 C1489 0.951 . S
H1465 C1491 0.950 . S
H1466 C1492 0.950 . S
H1467 C1494 0.950 . S
H1468 C1497 0.950 . S
H1469 C1498 0.950 . S
H1470 C1500 0.950 . S
H1471 C1501 0.950 . S
C1472 H1454 0.951 . S
C1472 C1473 1.366 . S
C1472 C1474 1.388 . S
C1473 C1472 1.366 . S
C1473 C1477 1.385 . S
C1474 H1455 0.951 . S
C1474 C1472 1.388 . S
C1474 C1475 1.366 . S
C1475 C1474 1.366 . S
C1475 C1476 1.414 . S
C1475 C1478 1.499 . S
C1476 H1456 0.950 . S
C1476 C1475 1.414 . S
C1476 C1477 1.374 . S
C1477 H1457 0.950 . S
C1477 C1473 1.385 . S
C1477 C1476 1.374 . S
C1478 C1475 1.499 . S
C1478 C1479 1.373 . S
C1478 C1480 1.389 . S
C1479 H1458 0.950 . S
C1479 C1478 1.373 . S
C1479 C1495 1.377 . S
C1480 C1478 1.389 . S
C1480 C1481 1.524 . S
C1480 C1494 1.377 . S
C1481 C1480 1.524 . S
C1481 C1482 1.397 . S
C1481 C1486 1.363 . S
C1482 H1459 0.950 . S
C1482 C1481 1.397 . S
C1482 C1483 1.334 . S
C1483 H1460 0.950 . S
C1483 C1482 1.334 . S
C1483 C1484 1.287 . S
C1484 C1483 1.287 . S
C1484 C1485 1.524 . S
C1484 H1503 0.913 . S
C1485 H1461 0.950 . S
C1485 C1484 1.524 . S
C1485 C1486 1.415 . S
C1486 H1462 0.950 . S
C1486 C1481 1.363 . S
C1486 C1485 1.415 . S
C1487 H1463 0.951 . S
C1487 C1488 1.366 . S
C1487 C1489 1.388 . S
C1488 C1487 1.366 . S
C1488 C1492 1.385 . S
C1489 H1464 0.951 . S
C1489 C1487 1.388 . S
C1489 C1490 1.366 . S
C1490 C1489 1.366 . S
C1490 C1491 1.414 . S
C1490 C1493 1.499 . S
C1491 H1465 0.950 . S
C1491 C1490 1.414 . S
C1491 C1492 1.374 . S
C1492 H1466 0.950 . S
C1492 C1488 1.385 . S
C1492 C1491 1.374 . S
C1493 C1490 1.499 . S
C1493 C1494 1.373 . S
C1493 C1495 1.389 . S
C1494 H1467 0.950 . S
C1494 C1480 1.377 . S
C1494 C1493 1.373 . S
C1495 C1479 1.377 . S
C1495 C1493 1.389 . S
C1495 C1496 1.524 . S
C1496 C1495 1.524 . S
C1496 C1497 1.397 . S
C1496 C1501 1.363 . S
C1497 H1468 0.950 . S
C1497 C1496 1.397 . S
C1497 C1498 1.334 . S
C1498 H1469 0.950 . S
C1498 C1497 1.334 . S
C1498 C1499 1.287 . S
C1499 C1498 1.287 . S
C1499 C1500 1.524 . S
C1499 H1502 0.999 . S
C1500 H1470 0.950 . S
C1500 C1499 1.524 . S
C1500 C1501 1.415 . S
C1501 H1471 0.950 . S
C1501 C1496 1.363 . S
C1501 C1500 1.415 . S
H1502 C1499 0.999 . S
H1503 C1484 0.913 . S
H1504 C1522 0.951 . S
H1505 C1524 0.951 . S
H1506 C1526 0.950 . S
H1507 C1527 0.950 . S
H1508 C1529 0.950 . S
H1509 C1532 0.950 . S
H1510 C1533 0.950 . S
H1511 C1535 0.950 . S
H1512 C1536 0.950 . S
H1513 C1537 0.951 . S
H1514 C1539 0.951 . S
H1515 C1541 0.950 . S
H1516 C1542 0.950 . S
H1517 C1544 0.950 . S
H1518 C1547 0.950 . S
H1519 C1548 0.946 . S
H1520 C1550 0.950 . S
H1521 C1551 0.950 . S
C1522 H1504 0.951 . S
C1522 C1523 1.366 . S
C1522 C1524 1.388 . S
C1523 C1522 1.366 . S
C1523 C1527 1.385 . S
C1524 H1505 0.951 . S
C1524 C1522 1.388 . S
C1524 C1525 1.366 . S
C1525 C1524 1.366 . S
C1525 C1526 1.414 . S
C1525 C1528 1.499 . S
C1526 H1506 0.950 . S
C1526 C1525 1.414 . S
C1526 C1527 1.374 . S
C1527 H1507 0.950 . S
C1527 C1523 1.385 . S
C1527 C1526 1.374 . S
C1528 C1525 1.499 . S
C1528 C1529 1.373 . S
C1528 C1530 1.389 . S
C1529 H1508 0.950 . S
C1529 C1528 1.373 . S
C1529 C1545 1.377 . S
C1530 C1528 1.389 . S
C1530 C1531 1.524 . S
C1530 C1544 1.377 . S
C1531 C1530 1.524 . S
C1531 C1532 1.397 . S
C1531 C1536 1.363 . S
C1532 H1509 0.950 . S
C1532 C1531 1.397 . S
C1532 C1533 1.334 . S
C1533 H1510 0.950 . S
C1533 C1532 1.334 . S
C1533 C1534 1.287 . S
C1534 C1533 1.287 . S
C1534 C1535 1.524 . S
C1534 H1553 0.913 . S
C1535 H1511 0.950 . S
C1535 C1534 1.524 . S
C1535 C1536 1.415 . S
C1536 H1512 0.950 . S
C1536 C1531 1.363 . S
C1536 C1535 1.415 . S
C1537 H1513 0.951 . S
C1537 C1538 1.366 . S
C1537 C1539 1.388 . S
C1538 C1537 1.366 . S
C1538 C1542 1.385 . S
C1539 H1514 0.951 . S
C1539 C1537 1.388 . S
C1539 C1540 1.366 . S
C1540 C1539 1.366 . S
C1540 C1541 1.414 . S
C1540 C1543 1.499 . S
C1541 H1515 0.950 . S
C1541 C1540 1.414 . S
C1541 C1542 1.374 . S
C1542 H1516 0.950 . S
C1542 C1538 1.385 . S
C1542 C1541 1.374 . S
C1543 C1540 1.499 . S
C1543 C1544 1.373 . S
C1543 C1545 1.389 . S
C1544 H1517 0.950 . S
C1544 C1530 1.377 . S
C1544 C1543 1.373 . S
C1545 C1529 1.377 . S
C1545 C1543 1.389 . S
C1545 C1546 1.524 . S
C1546 C1545 1.524 . S
C1546 C1547 1.397 . S
C1546 C1551 1.363 . S
C1547 H1518 0.950 . S
C1547 C1546 1.397 . S
C1547 C1548 1.334 . S
C1548 H1519 0.946 . S
C1548 C1547 1.334 . S
C1548 C1549 1.287 . S
C1549 C1548 1.287 . S
C1549 C1550 1.524 . S
C1549 H1552 0.999 . S
C1550 H1520 0.950 . S
C1550 C1549 1.524 . S
C1550 C1551 1.415 . S
C1551 H1521 0.950 . S
C1551 C1546 1.363 . S
C1551 C1550 1.415 . S
H1552 C1549 0.999 . S
H1553 C1534 0.913 . S
H1554 C1572 0.951 . S
H1555 C1574 0.951 . S
H1556 C1576 0.950 . S
H1557 C1577 0.950 . S
H1558 C1579 0.950 . S
H1559 C1582 0.950 . S
H1560 C1583 0.950 . S
H1561 C1585 0.950 . S
H1562 C1586 0.950 . S
H1563 C1587 0.950 . S
H1564 C1589 0.951 . S
H1565 C1591 0.950 . S
H1566 C1592 0.950 . S
H1567 C1594 0.950 . S
H1568 C1597 0.950 . S
H1569 C1598 0.950 . S
H1570 C1600 0.950 . S
H1571 C1601 0.950 . S
C1572 H1554 0.951 . S
C1572 C1573 1.366 . S
C1572 C1574 1.388 . S
C1573 C1572 1.366 . S
C1573 C1577 1.385 . S
C1574 H1555 0.951 . S
C1574 C1572 1.388 . S
C1574 C1575 1.366 . S
C1575 C1574 1.366 . S
C1575 C1576 1.414 . S
C1575 C1578 1.499 . S
C1576 H1556 0.950 . S
C1576 C1575 1.414 . S
C1576 C1577 1.374 . S
C1577 H1557 0.950 . S
C1577 C1573 1.385 . S
C1577 C1576 1.374 . S
C1578 C1575 1.499 . S
C1578 C1579 1.373 . S
C1578 C1580 1.389 . S
C1579 H1558 0.950 . S
C1579 C1578 1.373 . S
C1579 C1595 1.377 . S
C1580 C1578 1.389 . S
C1580 C1581 1.524 . S
C1580 C1594 1.377 . S
C1581 C1580 1.524 . S
C1581 C1582 1.397 . S
C1581 C1586 1.363 . S
C1582 H1559 0.950 . S
C1582 C1581 1.397 . S
C1582 C1583 1.334 . S
C1583 H1560 0.950 . S
C1583 C1582 1.334 . S
C1583 C1584 1.287 . S
C1584 C1583 1.287 . S
C1584 C1585 1.524 . S
C1584 H1603 0.913 . S
C1585 H1561 0.950 . S
C1585 C1584 1.524 . S
C1585 C1586 1.415 . S
C1586 H1562 0.950 . S
C1586 C1581 1.363 . S
C1586 C1585 1.415 . S
C1587 H1563 0.950 . S
C1587 C1588 1.366 . S
C1587 C1589 1.388 . S
C1588 C1587 1.366 . S
C1588 C1592 1.385 . S
C1589 H1564 0.951 . S
C1589 C1587 1.388 . S
C1589 C1590 1.366 . S
C1590 C1589 1.366 . S
C1590 C1591 1.414 . S
C1590 C1593 1.499 . S
C1591 H1565 0.950 . S
C1591 C1590 1.414 . S
C1591 C1592 1.374 . S
C1592 H1566 0.950 . S
C1592 C1588 1.385 . S
C1592 C1591 1.374 . S
C1593 C1590 1.499 . S
C1593 C1594 1.373 . S
C1593 C1595 1.389 . S
C1594 H1567 0.950 . S
C1594 C1580 1.377 . S
C1594 C1593 1.373 . S
C1595 C1579 1.377 . S
C1595 C1593 1.389 . S
C1595 C1596 1.524 . S
C1596 C1595 1.524 . S
C1596 C1597 1.397 . S
C1596 C1601 1.363 . S
C1597 H1568 0.950 . S
C1597 C1596 1.397 . S
C1597 C1598 1.334 . S
C1598 H1569 0.950 . S
C1598 C1597 1.334 . S
C1598 C1599 1.287 . S
C1599 C1598 1.287 . S
C1599 C1600 1.524 . S
C1599 H1602 0.999 . S
C1600 H1570 0.950 . S
C1600 C1599 1.524 . S
C1600 C1601 1.415 . S
C1601 H1571 0.950 . S
C1601 C1596 1.363 . S
C1601 C1600 1.415 . S
H1602 C1599 0.999 . S
H1603 C1584 0.913 . S
H1604 C1622 0.951 . S
H1605 C1624 0.951 . S
H1606 C1626 0.950 . S
H1607 C1627 0.950 . S
H1608 C1629 0.950 . S
H1609 C1632 0.950 . S
H1610 C1633 0.950 . S
H1611 C1635 0.950 1_554 S
H1612 C1636 0.950 . S
H1613 C1637 0.951 . S
H1614 C1639 0.951 . S
H1615 C1641 0.950 . S
H1616 C1642 0.950 1_554 S
H1617 C1644 0.950 . S
H1618 C1647 0.950 . S
H1619 C1648 0.950 . S
H1620 C1650 0.950 . S
H1621 C1651 0.950 . S
C1622 H1604 0.951 . S
C1622 C1623 1.366 . S
C1622 C1624 1.388 . S
C1623 C1622 1.366 . S
C1623 C1627 1.385 . S
C1624 H1605 0.951 . S
C1624 C1622 1.388 . S
C1624 C1625 1.366 . S
C1625 C1624 1.366 . S
C1625 C1626 1.414 . S
C1625 C1628 1.499 . S
C1626 H1606 0.950 . S
C1626 C1625 1.414 . S
C1626 C1627 1.374 . S
C1627 H1607 0.950 . S
C1627 C1623 1.385 . S
C1627 C1626 1.374 . S
C1628 C1625 1.499 . S
C1628 C1629 1.373 . S
C1628 C1630 1.389 . S
C1629 H1608 0.950 . S
C1629 C1628 1.373 . S
C1629 C1645 1.377 . S
C1630 C1628 1.389 . S
C1630 C1631 1.524 . S
C1630 C1644 1.377 . S
C1631 C1630 1.524 . S
C1631 C1632 1.397 . S
C1631 C1636 1.363 . S
C1632 H1609 0.950 . S
C1632 C1631 1.397 . S
C1632 C1633 1.334 . S
C1633 H1610 0.950 . S
C1633 C1632 1.334 . S
C1633 C1634 1.287 . S
C1634 C1633 1.287 . S
C1634 C1635 1.524 . S
C1634 H1653 0.913 . S
C1635 H1611 0.950 1_556 S
C1635 C1634 1.524 . S
C1635 C1636 1.415 . S
C1636 H1612 0.950 . S
C1636 C1631 1.363 . S
C1636 C1635 1.415 . S
C1637 H1613 0.951 . S
C1637 C1638 1.366 . S
C1637 C1639 1.388 . S
C1638 C1637 1.366 . S
C1638 C1642 1.385 . S
C1639 H1614 0.951 . S
C1639 C1637 1.388 . S
C1639 C1640 1.366 . S
C1640 C1639 1.366 . S
C1640 C1641 1.414 . S
C1640 C1643 1.499 . S
C1641 H1615 0.950 . S
C1641 C1640 1.414 . S
C1641 C1642 1.374 . S
C1642 H1616 0.950 1_556 S
C1642 C1638 1.385 . S
C1642 C1641 1.374 . S
C1643 C1640 1.499 . S
C1643 C1644 1.373 . S
C1643 C1645 1.389 . S
C1644 H1617 0.950 . S
C1644 C1630 1.377 . S
C1644 C1643 1.373 . S
C1645 C1629 1.377 . S
C1645 C1643 1.389 . S
C1645 C1646 1.524 . S
C1646 C1645 1.524 . S
C1646 C1647 1.397 . S
C1646 C1651 1.363 . S
C1647 H1618 0.950 . S
C1647 C1646 1.397 . S
C1647 C1648 1.334 . S
C1648 H1619 0.950 . S
C1648 C1647 1.334 . S
C1648 C1649 1.287 . S
C1649 C1648 1.287 . S
C1649 C1650 1.524 . S
C1649 H1652 0.999 . S
C1650 H1620 0.950 . S
C1650 C1649 1.524 . S
C1650 C1651 1.415 . S
C1651 H1621 0.950 . S
C1651 C1646 1.363 . S
C1651 C1650 1.415 . S
H1652 C1649 0.999 . S
H1653 C1634 0.913 . S
H1654 C1672 0.951 . S
H1655 C1674 0.951 . S
H1656 C1676 0.950 . S
H1657 C1677 0.950 . S
H1658 C1679 0.950 . S
H1659 C1682 0.950 . S
H1660 C1683 0.959 . S
H1661 C1685 0.950 . S
H1662 C1686 0.950 . S
H1663 C1687 0.951 . S
H1664 C1689 0.951 . S
H1665 C1691 0.950 . S
H1666 C1692 0.950 . S
H1667 C1694 0.950 . S
H1668 C1697 0.950 . S
H1669 C1698 0.950 . S
H1670 C1700 0.950 . S
H1671 C1701 0.950 . S
C1672 H1654 0.951 . S
C1672 C1673 1.366 . S
C1672 C1674 1.388 . S
C1673 C1672 1.366 . S
C1673 C1677 1.385 . S
C1674 H1655 0.951 . S
C1674 C1672 1.388 . S
C1674 C1675 1.366 . S
C1675 C1674 1.366 . S
C1675 C1676 1.414 . S
C1675 C1678 1.499 . S
C1676 H1656 0.950 . S
C1676 C1675 1.414 . S
C1676 C1677 1.374 . S
C1677 H1657 0.950 . S
C1677 C1673 1.385 . S
C1677 C1676 1.374 . S
C1678 C1675 1.499 . S
C1678 C1679 1.373 . S
C1678 C1680 1.389 . S
C1679 H1658 0.950 . S
C1679 C1678 1.373 . S
C1679 C1695 1.377 . S
C1680 C1678 1.389 . S
C1680 C1681 1.524 . S
C1680 C1694 1.377 . S
C1681 C1680 1.524 . S
C1681 C1682 1.397 . S
C1681 C1686 1.363 . S
C1682 H1659 0.950 . S
C1682 C1681 1.397 . S
C1682 C1683 1.334 . S
C1683 H1660 0.959 . S
C1683 C1682 1.334 . S
C1683 C1684 1.306 . S
C1684 C1683 1.306 . S
C1684 C1685 1.552 . S
C1684 H1703 0.874 1_556 S
C1685 H1661 0.950 . S
C1685 C1684 1.552 . S
C1685 C1686 1.415 . S
C1686 H1662 0.950 . S
C1686 C1681 1.363 . S
C1686 C1685 1.415 . S
C1687 H1663 0.951 . S
C1687 C1688 1.366 . S
C1687 C1689 1.388 . S
C1688 C1687 1.366 . S
C1688 C1692 1.385 . S
C1689 H1664 0.951 . S
C1689 C1687 1.388 . S
C1689 C1690 1.366 . S
C1690 C1689 1.366 . S
C1690 C1691 1.414 . S
C1690 C1693 1.499 . S
C1691 H1665 0.950 . S
C1691 C1690 1.414 . S
C1691 C1692 1.374 . S
C1692 H1666 0.950 . S
C1692 C1688 1.385 . S
C1692 C1691 1.374 . S
C1693 C1690 1.499 . S
C1693 C1694 1.373 . S
C1693 C1695 1.389 . S
C1694 H1667 0.950 . S
C1694 C1680 1.377 . S
C1694 C1693 1.373 . S
C1695 C1679 1.377 . S
C1695 C1693 1.389 . S
C1695 C1696 1.524 . S
C1696 C1695 1.524 . S
C1696 C1697 1.397 . S
C1696 C1701 1.363 . S
C1697 H1668 0.950 . S
C1697 C1696 1.397 . S
C1697 C1698 1.334 . S
C1698 H1669 0.950 . S
C1698 C1697 1.334 . S
C1698 C1699 1.287 . S
C1699 C1698 1.287 . S
C1699 C1700 1.524 . S
C1699 H1702 0.999 . S
C1700 H1670 0.950 . S
C1700 C1699 1.524 . S
C1700 C1701 1.415 . S
C1701 H1671 0.950 . S
C1701 C1696 1.363 . S
C1701 C1700 1.415 . S
H1702 C1699 0.999 . S
H1703 C1684 0.874 1_554 S
H1704 C1722 0.951 . S
H1705 C1724 0.951 . S
H1706 C1726 0.950 . S
H1707 C1727 0.950 . S
H1708 C1729 0.950 . S
H1709 C1732 0.950 . S
H1710 C1733 0.950 . S
H1711 C1735 0.950 . S
H1712 C1736 0.950 . S
H1713 C1737 0.951 1_554 S
H1714 C1739 0.951 . S
H1715 C1741 0.950 . S
H1716 C1742 0.950 . S
H1717 C1744 0.950 . S
H1718 C1747 0.950 . S
H1719 C1748 0.950 . S
H1720 C1750 0.950 . S
H1721 C1751 0.950 . S
C1722 H1704 0.951 . S
C1722 C1723 1.366 . S
C1722 C1724 1.388 . S
C1723 C1722 1.366 . S
C1723 C1727 1.385 . S
C1724 H1705 0.951 . S
C1724 C1722 1.388 . S
C1724 C1725 1.366 . S
C1725 C1724 1.366 . S
C1725 C1726 1.414 . S
C1725 C1728 1.499 . S
C1726 H1706 0.950 . S
C1726 C1725 1.414 . S
C1726 C1727 1.374 . S
C1727 H1707 0.950 . S
C1727 C1723 1.385 . S
C1727 C1726 1.374 . S
C1728 C1725 1.499 . S
C1728 C1729 1.373 . S
C1728 C1730 1.389 . S
C1729 H1708 0.950 . S
C1729 C1728 1.373 . S
C1729 C1745 1.377 . S
C1730 C1728 1.389 . S
C1730 C1731 1.524 . S
C1730 C1744 1.377 . S
C1731 C1730 1.524 . S
C1731 C1732 1.397 . S
C1731 C1736 1.363 . S
C1732 H1709 0.950 . S
C1732 C1731 1.397 . S
C1732 C1733 1.334 . S
C1733 H1710 0.950 . S
C1733 C1732 1.334 . S
C1733 C1734 1.287 . S
C1734 C1733 1.287 . S
C1734 C1735 1.524 . S
C1734 H1753 0.913 . S
C1735 H1711 0.950 . S
C1735 C1734 1.524 . S
C1735 C1736 1.415 . S
C1736 H1712 0.950 . S
C1736 C1731 1.363 . S
C1736 C1735 1.415 . S
C1737 H1713 0.951 1_556 S
C1737 C1738 1.366 . S
C1737 C1739 1.388 . S
C1738 C1737 1.366 . S
C1738 C1742 1.385 . S
C1739 H1714 0.951 . S
C1739 C1737 1.388 . S
C1739 C1740 1.366 . S
C1740 C1739 1.366 . S
C1740 C1741 1.414 . S
C1740 C1743 1.499 . S
C1741 H1715 0.950 . S
C1741 C1740 1.414 . S
C1741 C1742 1.374 . S
C1742 H1716 0.950 . S
C1742 C1738 1.385 . S
C1742 C1741 1.374 . S
C1743 C1740 1.499 . S
C1743 C1744 1.373 . S
C1743 C1745 1.389 . S
C1744 H1717 0.950 . S
C1744 C1730 1.377 . S
C1744 C1743 1.373 . S
C1745 C1729 1.377 . S
C1745 C1743 1.389 . S
C1745 C1746 1.524 . S
C1746 C1745 1.524 . S
C1746 C1747 1.397 . S
C1746 C1751 1.363 1_556 S
C1747 H1718 0.950 . S
C1747 C1746 1.397 . S
C1747 C1748 1.334 1_556 S
C1748 H1719 0.950 . S
C1748 C1747 1.334 1_554 S
C1748 C1749 1.287 . S
C1749 C1748 1.287 . S
C1749 C1750 1.524 . S
C1749 H1752 0.999 . S
C1750 H1720 0.950 . S
C1750 C1749 1.524 . S
C1750 C1751 1.415 . S
C1751 H1721 0.950 . S
C1751 C1746 1.363 1_554 S
C1751 C1750 1.415 . S
H1752 C1749 0.999 . S
H1753 C1734 0.913 . S
H1754 C1772 0.951 . S
H1755 C1774 0.951 . S
H1756 C1776 0.950 . S
H1757 C1777 0.950 . S
H1758 C1779 0.950 . S
H1759 C1782 0.950 . S
H1760 C1783 0.950 . S
H1761 C1785 0.950 . S
H1762 C1786 0.950 . S
H1763 C1787 0.951 . S
H1764 C1789 0.951 . S
H1765 C1791 0.950 . S
H1766 C1792 0.950 . S
H1767 C1794 0.950 . S
H1768 C1797 0.978 . S
H1769 C1798 0.950 . S
H1770 C1800 0.950 . S
H1771 C1801 0.950 . S
C1772 H1754 0.951 . S
C1772 C1773 1.366 . S
C1772 C1774 1.388 . S
C1773 C1772 1.366 . S
C1773 C1777 1.385 . S
C1774 H1755 0.951 . S
C1774 C1772 1.388 . S
C1774 C1775 1.366 . S
C1775 C1774 1.366 . S
C1775 C1776 1.414 . S
C1775 C1778 1.499 . S
C1776 H1756 0.950 . S
C1776 C1775 1.414 . S
C1776 C1777 1.374 . S
C1777 H1757 0.950 . S
C1777 C1773 1.385 . S
C1777 C1776 1.374 . S
C1778 C1775 1.499 . S
C1778 C1779 1.373 . S
C1778 C1780 1.389 . S
C1779 H1758 0.950 . S
C1779 C1778 1.373 . S
C1779 C1795 1.377 . S
C1780 C1778 1.389 . S
C1780 C1781 1.524 . S
C1780 C1794 1.377 . S
C1781 C1780 1.524 . S
C1781 C1782 1.397 . S
C1781 C1786 1.363 . S
C1782 H1759 0.950 . S
C1782 C1781 1.397 . S
C1782 C1783 1.334 . S
C1783 H1760 0.950 . S
C1783 C1782 1.334 . S
C1783 C1784 1.287 . S
C1784 C1783 1.287 . S
C1784 C1785 1.524 . S
C1784 H1803 0.913 . S
C1785 H1761 0.950 . S
C1785 C1784 1.524 . S
C1785 C1786 1.415 . S
C1786 H1762 0.950 . S
C1786 C1781 1.363 . S
C1786 C1785 1.415 . S
C1787 H1763 0.951 . S
C1787 C1788 1.366 . S
C1787 C1789 1.388 . S
C1788 C1787 1.366 . S
C1788 C1792 1.385 . S
C1789 H1764 0.951 . S
C1789 C1787 1.388 . S
C1789 C1790 1.366 . S
C1790 C1789 1.366 . S
C1790 C1791 1.414 . S
C1790 C1793 1.499 . S
C1791 H1765 0.950 . S
C1791 C1790 1.414 . S
C1791 C1792 1.374 . S
C1792 H1766 0.950 . S
C1792 C1788 1.385 . S
C1792 C1791 1.374 . S
C1793 C1790 1.499 . S
C1793 C1794 1.373 . S
C1793 C1795 1.389 . S
C1794 H1767 0.950 . S
C1794 C1780 1.377 . S
C1794 C1793 1.373 . S
C1795 C1779 1.377 . S
C1795 C1793 1.389 . S
C1795 C1796 1.524 . S
C1796 C1795 1.524 . S
C1796 C1797 1.397 . S
C1796 C1801 1.363 . S
C1797 H1768 0.978 . S
C1797 C1796 1.397 . S
C1797 C1798 1.334 1_556 S
C1798 H1769 0.950 . S
C1798 C1797 1.334 1_554 S
C1798 C1799 1.287 . S
C1799 C1798 1.287 . S
C1799 C1800 1.524 1_554 S
C1799 H1802 0.999 . S
C1800 H1770 0.950 . S
C1800 C1799 1.524 1_556 S
C1800 C1801 1.415 . S
C1801 H1771 0.950 . S
C1801 C1796 1.363 . S
C1801 C1800 1.415 . S
H1802 C1799 0.999 . S
H1803 C1784 0.913 . S
H1804 C1822 0.951 . S
H1805 C1824 0.951 . S
H1806 C1826 0.950 . S
H1807 C1827 0.950 . S
H1808 C1829 0.950 . S
H1809 C1832 0.950 . S
H1810 C1833 0.950 . S
H1811 C1835 0.950 . S
H1812 C1836 0.950 . S
H1813 C1837 0.951 . S
H1814 C1839 0.951 . S
H1815 C1841 0.950 . S
H1816 C1842 0.950 1_554 S
H1817 C1844 0.950 . S
H1818 C1847 0.950 . S
H1819 C1848 0.950 . S
H1820 C1850 0.950 . S
H1821 C1851 0.950 . S
C1822 H1804 0.951 . S
C1822 C1823 1.366 . S
C1822 C1824 1.388 . S
C1823 C1822 1.366 . S
C1823 C1827 1.385 . S
C1824 H1805 0.951 . S
C1824 C1822 1.388 . S
C1824 C1825 1.366 . S
C1825 C1824 1.366 . S
C1825 C1826 1.414 . S
C1825 C1828 1.499 . S
C1826 H1806 0.950 . S
C1826 C1825 1.414 . S
C1826 C1827 1.374 . S
C1827 H1807 0.950 . S
C1827 C1823 1.385 . S
C1827 C1826 1.374 . S
C1828 C1825 1.499 . S
C1828 C1829 1.373 . S
C1828 C1830 1.389 . S
C1829 H1808 0.950 . S
C1829 C1828 1.373 . S
C1829 C1845 1.377 . S
C1830 C1828 1.389 . S
C1830 C1831 1.524 . S
C1830 C1844 1.377 . S
C1831 C1830 1.524 . S
C1831 C1832 1.397 . S
C1831 C1836 1.365 1_556 S
C1832 H1809 0.950 . S
C1832 C1831 1.397 . S
C1832 C1833 1.334 . S
C1833 H1810 0.950 . S
C1833 C1832 1.334 . S
C1833 C1834 1.287 1_556 S
C1834 C1833 1.287 1_554 S
C1834 C1835 1.524 . S
C1834 H1853 0.913 . S
C1835 H1811 0.950 . S
C1835 C1834 1.524 . S
C1835 C1836 1.413 . S
C1836 H1812 0.950 . S
C1836 C1831 1.365 1_554 S
C1836 C1835 1.413 . S
C1837 H1813 0.951 . S
C1837 C1838 1.366 . S
C1837 C1839 1.388 . S
C1838 C1837 1.366 . S
C1838 C1842 1.385 . S
C1839 H1814 0.951 . S
C1839 C1837 1.388 . S
C1839 C1840 1.366 . S
C1840 C1839 1.366 . S
C1840 C1841 1.414 . S
C1840 C1843 1.499 . S
C1841 H1815 0.950 . S
C1841 C1840 1.414 . S
C1841 C1842 1.374 . S
C1842 H1816 0.950 1_556 S
C1842 C1838 1.385 . S
C1842 C1841 1.374 . S
C1843 C1840 1.499 . S
C1843 C1844 1.373 . S
C1843 C1845 1.389 . S
C1844 H1817 0.950 . S
C1844 C1830 1.377 . S
C1844 C1843 1.373 . S
C1845 C1829 1.377 . S
C1845 C1843 1.389 . S
C1845 C1846 1.524 . S
C1846 C1845 1.524 . S
C1846 C1847 1.397 . S
C1846 C1851 1.363 . S
C1847 H1818 0.950 . S
C1847 C1846 1.397 . S
C1847 C1848 1.334 . S
C1848 H1819 0.950 . S
C1848 C1847 1.334 . S
C1848 C1849 1.287 . S
C1849 C1848 1.287 . S
C1849 C1850 1.524 . S
C1849 H1852 0.999 . S
C1850 H1820 0.950 . S
C1850 C1849 1.524 . S
C1850 C1851 1.415 . S
C1851 H1821 0.950 . S
C1851 C1846 1.363 . S
C1851 C1850 1.415 . S
H1852 C1849 0.999 . S
H1853 C1834 0.913 . S
H1854 C1872 0.951 . S
H1855 C1874 0.951 . S
H1856 C1876 0.950 . S
H1857 C1877 0.950 . S
H1858 C1879 0.950 . S
H1859 C1882 0.950 . S
H1860 C1883 0.950 . S
H1861 C1885 0.950 . S
H1862 C1886 0.950 . S
H1863 C1887 0.951 . S
H1864 C1889 0.951 . S
H1865 C1891 0.950 . S
H1866 C1892 0.950 . S
H1867 C1894 0.950 . S
H1868 C1897 0.950 . S
H1869 C1898 0.950 . S
H1870 C1900 0.950 . S
H1871 C1901 0.950 . S
C1872 H1854 0.951 . S
C1872 C1873 1.366 . S
C1872 C1874 1.388 . S
C1873 C1872 1.366 . S
C1873 C1877 1.385 . S
C1874 H1855 0.951 . S
C1874 C1872 1.388 . S
C1874 C1875 1.366 . S
C1875 C1874 1.366 . S
C1875 C1876 1.414 . S
C1875 C1878 1.499 . S
C1876 H1856 0.950 . S
C1876 C1875 1.414 . S
C1876 C1877 1.374 . S
C1877 H1857 0.950 . S
C1877 C1873 1.385 . S
C1877 C1876 1.374 . S
C1878 C1875 1.499 . S
C1878 C1879 1.373 . S
C1878 C1880 1.389 . S
C1879 H1858 0.950 . S
C1879 C1878 1.373 . S
C1879 C1895 1.377 . S
C1880 C1878 1.389 . S
C1880 C1881 1.524 . S
C1880 C1894 1.377 . S
C1881 C1880 1.524 . S
C1881 C1882 1.397 . S
C1881 C1886 1.363 . S
C1882 H1859 0.950 . S
C1882 C1881 1.397 . S
C1882 C1883 1.334 . S
C1883 H1860 0.950 . S
C1883 C1882 1.334 . S
C1883 C1884 1.287 . S
C1884 C1883 1.287 . S
C1884 C1885 1.524 . S
C1884 H1903 0.913 . S
C1885 H1861 0.950 . S
C1885 C1884 1.524 . S
C1885 C1886 1.415 . S
C1886 H1862 0.950 . S
C1886 C1881 1.363 . S
C1886 C1885 1.415 . S
C1887 H1863 0.951 . S
C1887 C1888 1.366 . S
C1887 C1889 1.388 . S
C1888 C1887 1.366 . S
C1888 C1892 1.385 . S
C1889 H1864 0.951 . S
C1889 C1887 1.388 . S
C1889 C1890 1.366 . S
C1890 C1889 1.366 . S
C1890 C1891 1.414 . S
C1890 C1893 1.499 . S
C1891 H1865 0.950 . S
C1891 C1890 1.414 . S
C1891 C1892 1.374 . S
C1892 H1866 0.950 . S
C1892 C1888 1.385 . S
C1892 C1891 1.374 . S
C1893 C1890 1.499 . S
C1893 C1894 1.373 . S
C1893 C1895 1.389 . S
C1894 H1867 0.950 . S
C1894 C1880 1.377 . S
C1894 C1893 1.373 . S
C1895 C1879 1.377 . S
C1895 C1893 1.389 . S
C1895 C1896 1.524 . S
C1896 C1895 1.524 . S
C1896 C1897 1.397 . S
C1896 C1901 1.363 . S
C1897 H1868 0.950 . S
C1897 C1896 1.397 . S
C1897 C1898 1.334 . S
C1898 H1869 0.950 . S
C1898 C1897 1.334 . S
C1898 C1899 1.287 . S
C1899 C1898 1.287 . S
C1899 C1900 1.524 . S
C1899 H1902 0.999 . S
C1900 H1870 0.950 . S
C1900 C1899 1.524 . S
C1900 C1901 1.415 . S
C1901 H1871 0.950 . S
C1901 C1896 1.363 . S
C1901 C1900 1.415 . S
H1902 C1899 0.999 . S
H1903 C1884 0.913 . S
H1904 C1922 0.951 . S
H1905 C1924 0.951 . S
H1906 C1926 0.950 . S
H1907 C1927 0.950 . S
H1908 C1929 0.950 . S
H1909 C1932 0.950 . S
H1910 C1933 0.950 . S
H1911 C1935 0.950 . S
H1912 C1936 0.950 . S
H1913 C1937 0.951 . S
H1914 C1939 0.951 . S
H1915 C1941 0.950 . S
H1916 C1942 0.950 . S
H1917 C1944 0.950 . S
H1918 C1947 0.950 . S
H1919 C1948 0.950 . S
H1920 C1950 0.950 . S
H1921 C1951 0.950 . S
C1922 H1904 0.951 . S
C1922 C1923 1.366 . S
C1922 C1924 1.388 . S
C1923 C1922 1.366 . S
C1923 C1927 1.385 . S
C1924 H1905 0.951 . S
C1924 C1922 1.388 . S
C1924 C1925 1.366 . S
C1925 C1924 1.366 . S
C1925 C1926 1.414 . S
C1925 C1928 1.499 . S
C1926 H1906 0.950 . S
C1926 C1925 1.414 . S
C1926 C1927 1.374 . S
C1927 H1907 0.950 . S
C1927 C1923 1.385 . S
C1927 C1926 1.374 . S
C1928 C1925 1.499 . S
C1928 C1929 1.373 . S
C1928 C1930 1.389 . S
C1929 H1908 0.950 . S
C1929 C1928 1.373 . S
C1929 C1945 1.377 . S
C1930 C1928 1.389 . S
C1930 C1931 1.524 . S
C1930 C1944 1.377 . S
C1931 C1930 1.524 . S
C1931 C1932 1.397 . S
C1931 C1936 1.363 . S
C1932 H1909 0.950 . S
C1932 C1931 1.397 . S
C1932 C1933 1.334 . S
C1933 H1910 0.950 . S
C1933 C1932 1.334 . S
C1933 C1934 1.287 . S
C1934 C1933 1.287 . S
C1934 C1935 1.524 . S
C1934 H1953 0.913 . S
C1935 H1911 0.950 . S
C1935 C1934 1.524 . S
C1935 C1936 1.415 . S
C1936 H1912 0.950 . S
C1936 C1931 1.363 . S
C1936 C1935 1.415 . S
C1937 H1913 0.951 . S
C1937 C1938 1.366 . S
C1937 C1939 1.388 . S
C1938 C1937 1.366 . S
C1938 C1942 1.385 . S
C1939 H1914 0.951 . S
C1939 C1937 1.388 . S
C1939 C1940 1.366 . S
C1940 C1939 1.366 . S
C1940 C1941 1.414 . S
C1940 C1943 1.499 . S
C1941 H1915 0.950 . S
C1941 C1940 1.414 . S
C1941 C1942 1.374 . S
C1942 H1916 0.950 . S
C1942 C1938 1.385 . S
C1942 C1941 1.374 . S
C1943 C1940 1.499 . S
C1943 C1944 1.373 . S
C1943 C1945 1.389 . S
C1944 H1917 0.950 . S
C1944 C1930 1.377 . S
C1944 C1943 1.373 . S
C1945 C1929 1.377 . S
C1945 C1943 1.389 . S
C1945 C1946 1.524 . S
C1946 C1945 1.524 . S
C1946 C1947 1.397 . S
C1946 C1951 1.363 . S
C1947 H1918 0.950 . S
C1947 C1946 1.397 . S
C1947 C1948 1.334 1_554 S
C1948 H1919 0.950 . S
C1948 C1947 1.334 1_556 S
C1948 C1949 1.287 . S
C1949 C1948 1.287 . S
C1949 C1950 1.524 . S
C1949 H1952 0.999 . S
C1950 H1920 0.950 . S
C1950 C1949 1.524 . S
C1950 C1951 1.415 1_556 S
C1951 H1921 0.950 . S
C1951 C1946 1.363 . S
C1951 C1950 1.415 1_554 S
H1952 C1949 0.999 . S
H1953 C1934 0.913 . S
H1954 C1972 0.951 . S
H1955 C1974 0.951 . S
H1956 C1976 0.950 . S
H1957 C1977 0.950 . S
H1958 C1979 0.950 . S
H1959 C1982 0.950 . S
H1960 C1983 0.950 . S
H1961 C1985 0.950 . S
H1962 C1986 0.950 . S
H1963 C1987 0.951 . S
H1964 C1989 0.951 . S
H1965 C1991 0.950 . S
H1966 C1992 0.950 . S
H1967 C1994 0.950 . S
H1968 C1997 0.950 . S
H1969 C1998 0.997 . S
H1970 C2000 0.950 . S
H1971 C2001 0.950 . S
C1972 H1954 0.951 . S
C1972 C1973 1.366 . S
C1972 C1974 1.388 . S
C1973 C1972 1.366 . S
C1973 C1977 1.385 . S
C1974 H1955 0.951 . S
C1974 C1972 1.388 . S
C1974 C1975 1.366 . S
C1975 C1974 1.366 . S
C1975 C1976 1.414 . S
C1975 C1978 1.499 . S
C1976 H1956 0.950 . S
C1976 C1975 1.414 . S
C1976 C1977 1.374 . S
C1977 H1957 0.950 . S
C1977 C1973 1.385 . S
C1977 C1976 1.374 . S
C1978 C1975 1.499 . S
C1978 C1979 1.373 . S
C1978 C1980 1.389 . S
C1979 H1958 0.950 . S
C1979 C1978 1.373 . S
C1979 C1995 1.377 . S
C1980 C1978 1.389 . S
C1980 C1981 1.524 . S
C1980 C1994 1.377 . S
C1981 C1980 1.524 . S
C1981 C1982 1.397 . S
C1981 C1986 1.363 . S
C1982 H1959 0.950 . S
C1982 C1981 1.397 . S
C1982 C1983 1.334 . S
C1983 H1960 0.950 . S
C1983 C1982 1.334 . S
C1983 C1984 1.287 . S
C1984 C1983 1.287 . S
C1984 C1985 1.524 . S
C1984 H2003 0.913 . S
C1985 H1961 0.950 . S
C1985 C1984 1.524 . S
C1985 C1986 1.415 . S
C1986 H1962 0.950 . S
C1986 C1981 1.363 . S
C1986 C1985 1.415 . S
C1987 H1963 0.951 . S
C1987 C1988 1.366 . S
C1987 C1989 1.388 . S
C1988 C1987 1.366 . S
C1988 C1992 1.385 . S
C1989 H1964 0.951 . S
C1989 C1987 1.388 . S
C1989 C1990 1.366 . S
C1990 C1989 1.366 . S
C1990 C1991 1.414 . S
C1990 C1993 1.499 . S
C1991 H1965 0.950 . S
C1991 C1990 1.414 . S
C1991 C1992 1.374 . S
C1992 H1966 0.950 . S
C1992 C1988 1.385 . S
C1992 C1991 1.374 . S
C1993 C1990 1.499 . S
C1993 C1994 1.373 . S
C1993 C1995 1.389 . S
C1994 H1967 0.950 . S
C1994 C1980 1.377 . S
C1994 C1993 1.373 . S
C1995 C1979 1.377 . S
C1995 C1993 1.389 . S
C1995 C1996 1.524 . S
C1996 C1995 1.524 . S
C1996 C1997 1.397 . S
C1996 C2001 1.363 . S
C1997 H1968 0.950 . S
C1997 C1996 1.397 . S
C1997 C1998 1.300 1_554 S
C1998 H1969 0.997 . S
C1998 C1997 1.300 1_556 S
C1998 C1999 1.274 1_556 S
C1999 C1998 1.274 1_554 S
C1999 C2000 1.524 . S
C1999 H2002 0.999 1_554 S
C2000 H1970 0.950 . S
C2000 C1999 1.524 . S
C2000 C2001 1.415 . S
C2001 H1971 0.950 . S
C2001 C1996 1.363 . S
C2001 C2000 1.415 . S
H2002 C1999 0.999 1_556 S
H2003 C1984 0.913 . S
H2004 C2022 0.951 . S
H2005 C2024 0.951 . S
H2006 C2026 0.939 1_455 S
H2007 C2027 0.950 . S
H2008 C2029 0.950 . S
H2009 C2032 0.950 . S
H2010 C2033 0.950 . S
H2011 C2035 0.950 . S
H2012 C2036 0.950 . S
H2013 C2037 0.951 . S
H2014 C2039 0.951 . S
H2015 C2041 0.950 . S
H2016 C2042 0.950 . S
H2017 C2044 0.950 . S
H2018 C2047 0.950 . S
H2019 C2048 0.950 . S
H2020 C2050 0.950 . S
H2021 C2051 0.950 . S
C2022 H2004 0.951 . S
C2022 C2023 1.366 . S
C2022 C2024 1.388 . S
C2023 C2022 1.366 . S
C2023 C2027 1.385 . S
C2024 H2005 0.951 . S
C2024 C2022 1.388 . S
C2024 C2025 1.366 1_655 S
C2025 C2024 1.366 1_455 S
C2025 C2026 1.390 1_455 S
C2025 C2028 1.499 . S
C2026 H2006 0.939 1_655 S
C2026 C2025 1.390 1_655 S
C2026 C2027 1.412 . S
C2027 H2007 0.950 . S
C2027 C2023 1.385 . S
C2027 C2026 1.412 . S
C2028 C2025 1.499 . S
C2028 C2029 1.373 . S
C2028 C2030 1.389 . S
C2029 H2008 0.950 . S
C2029 C2028 1.373 . S
C2029 C2045 1.377 . S
C2030 C2028 1.389 . S
C2030 C2031 1.524 . S
C2030 C2044 1.377 . S
C2031 C2030 1.524 . S
C2031 C2032 1.397 . S
C2031 C2036 1.363 . S
C2032 H2009 0.950 . S
C2032 C2031 1.397 . S
C2032 C2033 1.334 . S
C2033 H2010 0.950 . S
C2033 C2032 1.334 . S
C2033 C2034 1.287 . S
C2034 C2033 1.287 . S
C2034 C2035 1.524 . S
C2034 H2053 0.913 . S
C2035 H2011 0.950 . S
C2035 C2034 1.524 . S
C2035 C2036 1.415 . S
C2036 H2012 0.950 . S
C2036 C2031 1.363 . S
C2036 C2035 1.415 . S
C2037 H2013 0.951 . S
C2037 C2038 1.366 . S
C2037 C2039 1.388 . S
C2038 C2037 1.366 . S
C2038 C2042 1.385 . S
C2039 H2014 0.951 . S
C2039 C2037 1.388 . S
C2039 C2040 1.366 . S
C2040 C2039 1.366 . S
C2040 C2041 1.414 . S
C2040 C2043 1.499 . S
C2041 H2015 0.950 . S
C2041 C2040 1.414 . S
C2041 C2042 1.374 . S
C2042 H2016 0.950 . S
C2042 C2038 1.385 . S
C2042 C2041 1.374 . S
C2043 C2040 1.499 . S
C2043 C2044 1.373 . S
C2043 C2045 1.389 . S
C2044 H2017 0.950 . S
C2044 C2030 1.377 . S
C2044 C2043 1.373 . S
C2045 C2029 1.377 . S
C2045 C2043 1.389 . S
C2045 C2046 1.524 . S
C2046 C2045 1.524 . S
C2046 C2047 1.397 . S
C2046 C2051 1.363 . S
C2047 H2018 0.950 . S
C2047 C2046 1.397 . S
C2047 C2048 1.334 . S
C2048 H2019 0.950 . S
C2048 C2047 1.334 . S
C2048 C2049 1.287 . S
C2049 C2048 1.287 . S
C2049 C2050 1.524 . S
C2049 H2052 0.999 . S
C2050 H2020 0.950 . S
C2050 C2049 1.524 . S
C2050 C2051 1.415 . S
C2051 H2021 0.950 . S
C2051 C2046 1.363 . S
C2051 C2050 1.415 . S
H2052 C2049 0.999 . S
H2053 C2034 0.913 . S
H2054 C2072 0.951 . S
H2055 C2074 0.951 . S
H2056 C2076 0.950 . S
H2057 C2077 0.950 . S
H2058 C2079 0.950 . S
H2059 C2082 0.950 . S
H2060 C2083 0.950 . S
H2061 C2085 0.950 . S
H2062 C2086 0.950 . S
H2063 C2087 0.951 . S
H2064 C2089 0.951 . S
H2065 C2091 0.950 . S
H2066 C2092 0.950 . S
H2067 C2094 0.950 . S
H2068 C2097 0.950 . S
H2069 C2098 0.950 . S
H2070 C2100 0.950 . S
H2071 C2101 0.950 . S
C2072 H2054 0.951 . S
C2072 C2073 1.366 . S
C2072 C2074 1.388 . S
C2073 C2072 1.366 . S
C2073 C2077 1.385 . S
C2074 H2055 0.951 . S
C2074 C2072 1.388 . S
C2074 C2075 1.366 . S
C2075 C2074 1.366 . S
C2075 C2076 1.414 . S
C2075 C2078 1.499 . S
C2076 H2056 0.950 . S
C2076 C2075 1.414 . S
C2076 C2077 1.374 . S
C2077 H2057 0.950 . S
C2077 C2073 1.385 . S
C2077 C2076 1.374 . S
C2078 C2075 1.499 . S
C2078 C2079 1.373 . S
C2078 C2080 1.389 . S
C2079 H2058 0.950 . S
C2079 C2078 1.373 . S
C2079 C2095 1.377 . S
C2080 C2078 1.389 . S
C2080 C2081 1.524 . S
C2080 C2094 1.377 . S
C2081 C2080 1.524 . S
C2081 C2082 1.397 . S
C2081 C2086 1.363 . S
C2082 H2059 0.950 . S
C2082 C2081 1.397 . S
C2082 C2083 1.334 . S
C2083 H2060 0.950 . S
C2083 C2082 1.334 . S
C2083 C2084 1.287 . S
C2084 C2083 1.287 . S
C2084 C2085 1.524 . S
C2084 H2103 0.913 . S
C2085 H2061 0.950 . S
C2085 C2084 1.524 . S
C2085 C2086 1.415 . S
C2086 H2062 0.950 . S
C2086 C2081 1.363 . S
C2086 C2085 1.415 . S
C2087 H2063 0.951 . S
C2087 C2088 1.366 . S
C2087 C2089 1.388 . S
C2088 C2087 1.366 . S
C2088 C2092 1.385 . S
C2089 H2064 0.951 . S
C2089 C2087 1.388 . S
C2089 C2090 1.366 . S
C2090 C2089 1.366 . S
C2090 C2091 1.414 . S
C2090 C2093 1.499 . S
C2091 H2065 0.950 . S
C2091 C2090 1.414 . S
C2091 C2092 1.374 . S
C2092 H2066 0.950 . S
C2092 C2088 1.385 . S
C2092 C2091 1.374 . S
C2093 C2090 1.499 . S
C2093 C2094 1.373 . S
C2093 C2095 1.389 . S
C2094 H2067 0.950 . S
C2094 C2080 1.377 . S
C2094 C2093 1.373 . S
C2095 C2079 1.377 . S
C2095 C2093 1.389 . S
C2095 C2096 1.524 . S
C2096 C2095 1.524 . S
C2096 C2097 1.397 . S
C2096 C2101 1.363 . S
C2097 H2068 0.950 . S
C2097 C2096 1.397 . S
C2097 C2098 1.334 . S
C2098 H2069 0.950 . S
C2098 C2097 1.334 . S
C2098 C2099 1.287 . S
C2099 C2098 1.287 . S
C2099 C2100 1.524 . S
C2099 H2102 0.999 . S
C2100 H2070 0.950 . S
C2100 C2099 1.524 . S
C2100 C2101 1.415 . S
C2101 H2071 0.950 . S
C2101 C2096 1.363 . S
C2101 C2100 1.415 . S
H2102 C2099 0.999 . S
H2103 C2084 0.913 . S
H2104 C2122 0.951 . S
H2105 C2124 0.951 1_565 S
H2106 C2126 0.950 . S
H2107 C2127 0.950 . S
H2108 C2129 0.950 . S
H2109 C2132 0.950 . S
H2110 C2133 0.950 . S
H2111 C2135 0.950 . S
H2112 C2136 0.950 . S
H2113 C2137 0.951 . S
H2114 C2139 0.951 . S
H2115 C2141 0.950 . S
H2116 C2142 0.950 . S
H2117 C2144 0.950 . S
H2118 C2147 0.950 . S
H2119 C2148 0.950 . S
H2120 C2150 0.950 . S
H2121 C2151 0.950 . S
C2122 H2104 0.951 . S
C2122 C2123 1.366 . S
C2122 C2124 1.388 . S
C2123 C2122 1.366 . S
C2123 C2127 1.385 . S
C2124 H2105 0.951 1_545 S
C2124 C2122 1.388 . S
C2124 C2125 1.366 . S
C2125 C2124 1.366 . S
C2125 C2126 1.414 . S
C2125 C2128 1.499 1_545 S
C2126 H2106 0.950 . S
C2126 C2125 1.414 . S
C2126 C2127 1.374 . S
C2127 H2107 0.950 . S
C2127 C2123 1.385 . S
C2127 C2126 1.374 . S
C2128 C2125 1.499 1_565 S
C2128 C2129 1.373 . S
C2128 C2130 1.389 . S
C2129 H2108 0.950 . S
C2129 C2128 1.373 . S
C2129 C2145 1.377 . S
C2130 C2128 1.389 . S
C2130 C2131 1.524 . S
C2130 C2144 1.377 . S
C2131 C2130 1.524 . S
C2131 C2132 1.397 . S
C2131 C2136 1.363 . S
C2132 H2109 0.950 . S
C2132 C2131 1.397 . S
C2132 C2133 1.334 . S
C2133 H2110 0.950 . S
C2133 C2132 1.334 . S
C2133 C2134 1.287 . S
C2134 C2133 1.287 . S
C2134 C2135 1.524 . S
C2134 H2153 0.913 . S
C2135 H2111 0.950 . S
C2135 C2134 1.524 . S
C2135 C2136 1.415 . S
C2136 H2112 0.950 . S
C2136 C2131 1.363 . S
C2136 C2135 1.415 . S
C2137 H2113 0.951 . S
C2137 C2138 1.366 . S
C2137 C2139 1.388 . S
C2138 C2137 1.366 . S
C2138 C2142 1.385 . S
C2139 H2114 0.951 . S
C2139 C2137 1.388 . S
C2139 C2140 1.366 . S
C2140 C2139 1.366 . S
C2140 C2141 1.414 . S
C2140 C2143 1.499 . S
C2141 H2115 0.950 . S
C2141 C2140 1.414 . S
C2141 C2142 1.374 . S
C2142 H2116 0.950 . S
C2142 C2138 1.385 . S
C2142 C2141 1.374 . S
C2143 C2140 1.499 . S
C2143 C2144 1.373 . S
C2143 C2145 1.389 . S
C2144 H2117 0.950 . S
C2144 C2130 1.377 . S
C2144 C2143 1.373 . S
C2145 C2129 1.377 . S
C2145 C2143 1.389 . S
C2145 C2146 1.524 . S
C2146 C2145 1.524 . S
C2146 C2147 1.397 . S
C2146 C2151 1.363 . S
C2147 H2118 0.950 . S
C2147 C2146 1.397 . S
C2147 C2148 1.334 . S
C2148 H2119 0.950 . S
C2148 C2147 1.334 . S
C2148 C2149 1.287 . S
C2149 C2148 1.287 . S
C2149 C2150 1.524 . S
C2149 H2152 0.999 . S
C2150 H2120 0.950 . S
C2150 C2149 1.524 . S
C2150 C2151 1.415 . S
C2151 H2121 0.950 . S
C2151 C2146 1.363 . S
C2151 C2150 1.415 . S
H2152 C2149 0.999 . S
H2153 C2134 0.913 . S
H2154 C2172 0.951 . S
H2155 C2174 0.951 . S
H2156 C2176 0.950 . S
H2157 C2177 0.950 . S
H2158 C2179 0.950 . S
H2159 C2182 0.950 . S
H2160 C2183 0.950 . S
H2161 C2185 0.950 . S
H2162 C2186 0.950 . S
H2163 C2187 0.951 . S
H2164 C2189 0.951 . S
H2165 C2191 0.950 . S
H2166 C2192 0.950 . S
H2167 C2194 0.950 . S
H2168 C2197 0.950 . S
H2169 C2198 0.950 . S
H2170 C2200 0.950 . S
H2171 C2201 0.950 . S
C2172 H2154 0.951 . S
C2172 C2173 1.366 . S
C2172 C2174 1.388 . S
C2173 C2172 1.366 . S
C2173 C2177 1.385 . S
C2174 H2155 0.951 . S
C2174 C2172 1.388 . S
C2174 C2175 1.366 . S
C2175 C2174 1.366 . S
C2175 C2176 1.414 . S
C2175 C2178 1.499 . S
C2176 H2156 0.950 . S
C2176 C2175 1.414 . S
C2176 C2177 1.374 . S
C2177 H2157 0.950 . S
C2177 C2173 1.385 . S
C2177 C2176 1.374 . S
C2178 C2175 1.499 . S
C2178 C2179 1.373 . S
C2178 C2180 1.389 . S
C2179 H2158 0.950 . S
C2179 C2178 1.373 . S
C2179 C2195 1.377 . S
C2180 C2178 1.389 . S
C2180 C2181 1.524 . S
C2180 C2194 1.377 . S
C2181 C2180 1.524 . S
C2181 C2182 1.397 . S
C2181 C2186 1.363 . S
C2182 H2159 0.950 . S
C2182 C2181 1.397 . S
C2182 C2183 1.334 . S
C2183 H2160 0.950 . S
C2183 C2182 1.334 . S
C2183 C2184 1.287 . S
C2184 C2183 1.287 . S
C2184 C2185 1.524 . S
C2184 H2203 0.913 . S
C2185 H2161 0.950 . S
C2185 C2184 1.524 . S
C2185 C2186 1.415 . S
C2186 H2162 0.950 . S
C2186 C2181 1.363 . S
C2186 C2185 1.415 . S
C2187 H2163 0.951 . S
C2187 C2188 1.366 . S
C2187 C2189 1.388 . S
C2188 C2187 1.366 . S
C2188 C2192 1.385 . S
C2189 H2164 0.951 . S
C2189 C2187 1.388 . S
C2189 C2190 1.366 . S
C2190 C2189 1.366 . S
C2190 C2191 1.414 . S
C2190 C2193 1.499 . S
C2191 H2165 0.950 . S
C2191 C2190 1.414 . S
C2191 C2192 1.374 . S
C2192 H2166 0.950 . S
C2192 C2188 1.385 . S
C2192 C2191 1.374 . S
C2193 C2190 1.499 . S
C2193 C2194 1.373 . S
C2193 C2195 1.389 . S
C2194 H2167 0.950 . S
C2194 C2180 1.377 . S
C2194 C2193 1.373 . S
C2195 C2179 1.377 . S
C2195 C2193 1.389 . S
C2195 C2196 1.524 . S
C2196 C2195 1.524 . S
C2196 C2197 1.397 . S
C2196 C2201 1.363 . S
C2197 H2168 0.950 . S
C2197 C2196 1.397 . S
C2197 C2198 1.334 . S
C2198 H2169 0.950 . S
C2198 C2197 1.334 . S
C2198 C2199 1.287 . S
C2199 C2198 1.287 . S
C2199 C2200 1.524 . S
C2199 H2202 0.999 . S
C2200 H2170 0.950 . S
C2200 C2199 1.524 . S
C2200 C2201 1.415 . S
C2201 H2171 0.950 . S
C2201 C2196 1.363 . S
C2201 C2200 1.415 . S
H2202 C2199 0.999 . S
H2203 C2184 0.913 . S
H2204 C2222 0.951 . S
H2205 C2224 0.951 . S
H2206 C2226 0.950 . S
H2207 C2227 0.950 . S
H2208 C2229 0.950 . S
H2209 C2232 0.950 . S
H2210 C2233 0.950 . S
H2211 C2235 0.950 . S
H2212 C2236 0.950 . S
H2213 C2237 0.951 . S
H2214 C2239 0.951 . S
H2215 C2241 0.950 . S
H2216 C2242 0.950 . S
H2217 C2244 0.950 . S
H2218 C2247 0.950 . S
H2219 C2248 0.950 . S
H2220 C2250 0.950 . S
H2221 C2251 0.950 . S
C2222 H2204 0.951 . S
C2222 C2223 1.366 . S
C2222 C2224 1.388 . S
C2223 C2222 1.366 . S
C2223 C2227 1.385 . S
C2224 H2205 0.951 . S
C2224 C2222 1.388 . S
C2224 C2225 1.366 . S
C2225 C2224 1.366 . S
C2225 C2226 1.414 . S
C2225 C2228 1.499 . S
C2226 H2206 0.950 . S
C2226 C2225 1.414 . S
C2226 C2227 1.374 . S
C2227 H2207 0.950 . S
C2227 C2223 1.385 . S
C2227 C2226 1.374 . S
C2228 C2225 1.499 . S
C2228 C2229 1.373 . S
C2228 C2230 1.389 . S
C2229 H2208 0.950 . S
C2229 C2228 1.373 . S
C2229 C2245 1.377 . S
C2230 C2228 1.389 . S
C2230 C2231 1.524 . S
C2230 C2244 1.377 . S
C2231 C2230 1.524 . S
C2231 C2232 1.397 . S
C2231 C2236 1.363 . S
C2232 H2209 0.950 . S
C2232 C2231 1.397 . S
C2232 C2233 1.334 . S
C2233 H2210 0.950 . S
C2233 C2232 1.334 . S
C2233 C2234 1.287 . S
C2234 C2233 1.287 . S
C2234 C2235 1.524 . S
C2234 H2253 0.913 . S
C2235 H2211 0.950 . S
C2235 C2234 1.524 . S
C2235 C2236 1.415 . S
C2236 H2212 0.950 . S
C2236 C2231 1.363 . S
C2236 C2235 1.415 . S
C2237 H2213 0.951 . S
C2237 C2238 1.366 . S
C2237 C2239 1.388 . S
C2238 C2237 1.366 . S
C2238 C2242 1.385 . S
C2239 H2214 0.951 . S
C2239 C2237 1.388 . S
C2239 C2240 1.366 . S
C2240 C2239 1.366 . S
C2240 C2241 1.414 . S
C2240 C2243 1.499 . S
C2241 H2215 0.950 . S
C2241 C2240 1.414 . S
C2241 C2242 1.374 . S
C2242 H2216 0.950 . S
C2242 C2238 1.385 . S
C2242 C2241 1.374 . S
C2243 C2240 1.499 . S
C2243 C2244 1.373 . S
C2243 C2245 1.389 . S
C2244 H2217 0.950 . S
C2244 C2230 1.377 . S
C2244 C2243 1.373 . S
C2245 C2229 1.377 . S
C2245 C2243 1.389 . S
C2245 C2246 1.524 . S
C2246 C2245 1.524 . S
C2246 C2247 1.397 . S
C2246 C2251 1.363 . S
C2247 H2218 0.950 . S
C2247 C2246 1.397 . S
C2247 C2248 1.334 . S
C2248 H2219 0.950 . S
C2248 C2247 1.334 . S
C2248 C2249 1.287 . S
C2249 C2248 1.287 . S
C2249 C2250 1.524 . S
C2249 H2252 0.999 . S
C2250 H2220 0.950 . S
C2250 C2249 1.524 . S
C2250 C2251 1.415 . S
C2251 H2221 0.950 . S
C2251 C2246 1.363 . S
C2251 C2250 1.415 . S
H2252 C2249 0.999 . S
H2253 C2234 0.913 . S
H2254 C2272 0.951 . S
H2255 C2274 0.951 . S
H2256 C2276 0.950 . S
H2257 C2277 0.950 . S
H2258 C2279 0.950 . S
H2259 C2282 0.950 . S
H2260 C2283 0.950 . S
H2261 C2285 0.950 . S
H2262 C2286 0.950 . S
H2263 C2287 0.951 . S
H2264 C2289 0.951 . S
H2265 C2291 0.950 . S
H2266 C2292 0.950 . S
H2267 C2294 0.950 . S
H2268 C2297 0.950 . S
H2269 C2298 0.950 . S
H2270 C2300 0.950 . S
H2271 C2301 0.950 . S
C2272 H2254 0.951 . S
C2272 C2273 1.366 . S
C2272 C2274 1.388 . S
C2273 C2272 1.366 . S
C2273 C2277 1.385 . S
C2274 H2255 0.951 . S
C2274 C2272 1.388 . S
C2274 C2275 1.366 . S
C2275 C2274 1.366 . S
C2275 C2276 1.414 . S
C2275 C2278 1.499 . S
C2276 H2256 0.950 . S
C2276 C2275 1.414 . S
C2276 C2277 1.374 . S
C2277 H2257 0.950 . S
C2277 C2273 1.385 . S
C2277 C2276 1.374 . S
C2278 C2275 1.499 . S
C2278 C2279 1.373 . S
C2278 C2280 1.389 . S
C2279 H2258 0.950 . S
C2279 C2278 1.373 . S
C2279 C2295 1.377 . S
C2280 C2278 1.389 . S
C2280 C2281 1.524 . S
C2280 C2294 1.377 . S
C2281 C2280 1.524 . S
C2281 C2282 1.397 . S
C2281 C2286 1.363 . S
C2282 H2259 0.950 . S
C2282 C2281 1.397 . S
C2282 C2283 1.334 . S
C2283 H2260 0.950 . S
C2283 C2282 1.334 . S
C2283 C2284 1.287 . S
C2284 C2283 1.287 . S
C2284 C2285 1.524 . S
C2284 H2303 0.913 . S
C2285 H2261 0.950 . S
C2285 C2284 1.524 . S
C2285 C2286 1.415 . S
C2286 H2262 0.950 . S
C2286 C2281 1.363 . S
C2286 C2285 1.415 . S
C2287 H2263 0.951 . S
C2287 C2288 1.366 . S
C2287 C2289 1.388 . S
C2288 C2287 1.366 . S
C2288 C2292 1.385 . S
C2289 H2264 0.951 . S
C2289 C2287 1.388 . S
C2289 C2290 1.366 . S
C2290 C2289 1.366 . S
C2290 C2291 1.414 . S
C2290 C2293 1.499 . S
C2291 H2265 0.950 . S
C2291 C2290 1.414 . S
C2291 C2292 1.374 . S
C2292 H2266 0.950 . S
C2292 C2288 1.385 . S
C2292 C2291 1.374 . S
C2293 C2290 1.499 . S
C2293 C2294 1.373 . S
C2293 C2295 1.389 . S
C2294 H2267 0.950 . S
C2294 C2280 1.377 . S
C2294 C2293 1.373 . S
C2295 C2279 1.377 . S
C2295 C2293 1.389 . S
C2295 C2296 1.524 . S
C2296 C2295 1.524 . S
C2296 C2297 1.397 . S
C2296 C2301 1.363 . S
C2297 H2268 0.950 . S
C2297 C2296 1.397 . S
C2297 C2298 1.334 . S
C2298 H2269 0.950 . S
C2298 C2297 1.334 . S
C2298 C2299 1.287 . S
C2299 C2298 1.287 . S
C2299 C2300 1.524 . S
C2299 H2302 0.999 . S
C2300 H2270 0.950 . S
C2300 C2299 1.524 . S
C2300 C2301 1.415 . S
C2301 H2271 0.950 . S
C2301 C2296 1.363 . S
C2301 C2300 1.415 . S
H2302 C2299 0.999 . S
H2303 C2284 0.913 . S
H2304 C2322 0.951 . S
H2305 C2324 0.951 . S
H2306 C2326 0.950 . S
H2307 C2327 0.950 . S
H2308 C2329 0.950 . S
H2309 C2332 0.950 . S
H2310 C2333 0.950 . S
H2311 C2335 0.950 . S
H2312 C2336 0.950 . S
H2313 C2337 0.951 . S
H2314 C2339 0.951 . S
H2315 C2341 0.950 . S
H2316 C2342 0.950 . S
H2317 C2344 0.950 . S
H2318 C2347 0.950 . S
H2319 C2348 0.950 . S
H2320 C2350 0.950 . S
H2321 C2351 0.950 . S
C2322 H2304 0.951 . S
C2322 C2323 1.366 . S
C2322 C2324 1.388 . S
C2323 C2322 1.366 . S
C2323 C2327 1.385 . S
C2324 H2305 0.951 . S
C2324 C2322 1.388 . S
C2324 C2325 1.366 . S
C2325 C2324 1.366 . S
C2325 C2326 1.414 . S
C2325 C2328 1.499 . S
C2326 H2306 0.950 . S
C2326 C2325 1.414 . S
C2326 C2327 1.374 . S
C2327 H2307 0.950 . S
C2327 C2323 1.385 . S
C2327 C2326 1.374 . S
C2328 C2325 1.499 . S
C2328 C2329 1.373 . S
C2328 C2330 1.389 . S
C2329 H2308 0.950 . S
C2329 C2328 1.373 . S
C2329 C2345 1.377 . S
C2330 C2328 1.389 . S
C2330 C2331 1.524 . S
C2330 C2344 1.377 . S
C2331 C2330 1.524 . S
C2331 C2332 1.397 . S
C2331 C2336 1.363 . S
C2332 H2309 0.950 . S
C2332 C2331 1.397 . S
C2332 C2333 1.334 . S
C2333 H2310 0.950 . S
C2333 C2332 1.334 . S
C2333 C2334 1.287 . S
C2334 C2333 1.287 . S
C2334 C2335 1.524 . S
C2334 H2353 0.913 . S
C2335 H2311 0.950 . S
C2335 C2334 1.524 . S
C2335 C2336 1.415 . S
C2336 H2312 0.950 . S
C2336 C2331 1.363 . S
C2336 C2335 1.415 . S
C2337 H2313 0.951 . S
C2337 C2338 1.366 . S
C2337 C2339 1.388 . S
C2338 C2337 1.366 . S
C2338 C2342 1.385 . S
C2339 H2314 0.951 . S
C2339 C2337 1.388 . S
C2339 C2340 1.366 . S
C2340 C2339 1.366 . S
C2340 C2341 1.414 . S
C2340 C2343 1.499 . S
C2341 H2315 0.950 . S
C2341 C2340 1.414 . S
C2341 C2342 1.374 . S
C2342 H2316 0.950 . S
C2342 C2338 1.385 . S
C2342 C2341 1.374 . S
C2343 C2340 1.499 . S
C2343 C2344 1.373 . S
C2343 C2345 1.389 . S
C2344 H2317 0.950 . S
C2344 C2330 1.377 . S
C2344 C2343 1.373 . S
C2345 C2329 1.377 . S
C2345 C2343 1.389 . S
C2345 C2346 1.524 . S
C2346 C2345 1.524 . S
C2346 C2347 1.397 . S
C2346 C2351 1.363 . S
C2347 H2318 0.950 . S
C2347 C2346 1.397 . S
C2347 C2348 1.334 . S
C2348 H2319 0.950 . S
C2348 C2347 1.334 . S
C2348 C2349 1.287 . S
C2349 C2348 1.287 . S
C2349 C2350 1.524 . S
C2349 H2352 0.999 . S
C2350 H2320 0.950 . S
C2350 C2349 1.524 . S
C2350 C2351 1.415 . S
C2351 H2321 0.950 . S
C2351 C2346 1.363 . S
C2351 C2350 1.415 . S
H2352 C2349 0.999 . S
H2353 C2334 0.913 . S
H2354 C2372 0.951 . S
H2355 C2374 0.951 . S
H2356 C2376 0.950 . S
H2357 C2377 0.950 . S
H2358 C2379 0.950 . S
H2359 C2382 0.950 . S
H2360 C2383 0.950 . S
H2361 C2385 0.950 . S
H2362 C2386 0.950 . S
H2363 C2387 0.951 . S
H2364 C2389 0.951 . S
H2365 C2391 0.950 . S
H2366 C2392 0.950 . S
H2367 C2394 0.950 . S
H2368 C2397 0.950 . S
H2369 C2398 0.950 . S
H2370 C2400 0.950 . S
H2371 C2401 0.950 . S
C2372 H2354 0.951 . S
C2372 C2373 1.366 . S
C2372 C2374 1.388 . S
C2373 C2372 1.366 . S
C2373 C2377 1.385 . S
C2374 H2355 0.951 . S
C2374 C2372 1.388 . S
C2374 C2375 1.366 . S
C2375 C2374 1.366 . S
C2375 C2376 1.414 . S
C2375 C2378 1.499 . S
C2376 H2356 0.950 . S
C2376 C2375 1.414 . S
C2376 C2377 1.374 . S
C2377 H2357 0.950 . S
C2377 C2373 1.385 . S
C2377 C2376 1.374 . S
C2378 C2375 1.499 . S
C2378 C2379 1.373 . S
C2378 C2380 1.389 . S
C2379 H2358 0.950 . S
C2379 C2378 1.373 . S
C2379 C2395 1.377 . S
C2380 C2378 1.389 . S
C2380 C2381 1.524 . S
C2380 C2394 1.377 . S
C2381 C2380 1.524 . S
C2381 C2382 1.397 . S
C2381 C2386 1.363 . S
C2382 H2359 0.950 . S
C2382 C2381 1.397 . S
C2382 C2383 1.334 . S
C2383 H2360 0.950 . S
C2383 C2382 1.334 . S
C2383 C2384 1.287 . S
C2384 C2383 1.287 . S
C2384 C2385 1.524 . S
C2384 H2403 0.913 . S
C2385 H2361 0.950 . S
C2385 C2384 1.524 . S
C2385 C2386 1.415 . S
C2386 H2362 0.950 . S
C2386 C2381 1.363 . S
C2386 C2385 1.415 . S
C2387 H2363 0.951 . S
C2387 C2388 1.366 . S
C2387 C2389 1.388 . S
C2388 C2387 1.366 . S
C2388 C2392 1.385 . S
C2389 H2364 0.951 . S
C2389 C2387 1.388 . S
C2389 C2390 1.366 . S
C2390 C2389 1.366 . S
C2390 C2391 1.414 . S
C2390 C2393 1.499 . S
C2391 H2365 0.950 . S
C2391 C2390 1.414 . S
C2391 C2392 1.374 . S
C2392 H2366 0.950 . S
C2392 C2388 1.385 . S
C2392 C2391 1.374 . S
C2393 C2390 1.499 . S
C2393 C2394 1.373 . S
C2393 C2395 1.389 . S
C2394 H2367 0.950 . S
C2394 C2380 1.377 . S
C2394 C2393 1.373 . S
C2395 C2379 1.377 . S
C2395 C2393 1.389 . S
C2395 C2396 1.524 . S
C2396 C2395 1.524 . S
C2396 C2397 1.397 . S
C2396 C2401 1.363 . S
C2397 H2368 0.950 . S
C2397 C2396 1.397 . S
C2397 C2398 1.334 . S
C2398 H2369 0.950 . S
C2398 C2397 1.334 . S
C2398 C2399 1.287 . S
C2399 C2398 1.287 . S
C2399 C2400 1.524 . S
C2399 H2402 0.999 . S
C2400 H2370 0.950 . S
C2400 C2399 1.524 . S
C2400 C2401 1.415 . S
C2401 H2371 0.950 . S
C2401 C2396 1.363 . S
C2401 C2400 1.415 . S
H2402 C2399 0.999 . S
H2403 C2384 0.913 . S
H2404 C2422 0.951 . S
H2405 C2424 0.951 . S
H2406 C2426 0.950 . S
H2407 C2427 0.950 . S
H2408 C2429 0.950 . S
H2409 C2432 0.950 . S
H2410 C2433 0.950 . S
H2411 C2435 0.950 . S
H2412 C2436 0.950 . S
H2413 C2437 0.951 . S
H2414 C2439 0.951 . S
H2415 C2441 0.950 . S
H2416 C2442 0.950 . S
H2417 C2444 0.950 . S
H2418 C2447 0.950 . S
H2419 C2448 0.950 . S
H2420 C2450 0.950 . S
H2421 C2451 0.950 . S
C2422 H2404 0.951 . S
C2422 C2423 1.366 . S
C2422 C2424 1.388 . S
C2423 C2422 1.366 . S
C2423 C2427 1.385 . S
C2424 H2405 0.951 . S
C2424 C2422 1.388 . S
C2424 C2425 1.366 . S
C2425 C2424 1.366 . S
C2425 C2426 1.414 . S
C2425 C2428 1.499 . S
C2426 H2406 0.950 . S
C2426 C2425 1.414 . S
C2426 C2427 1.374 . S
C2427 H2407 0.950 . S
C2427 C2423 1.385 . S
C2427 C2426 1.374 . S
C2428 C2425 1.499 . S
C2428 C2429 1.373 . S
C2428 C2430 1.389 . S
C2429 H2408 0.950 . S
C2429 C2428 1.373 . S
C2429 C2445 1.377 . S
C2430 C2428 1.389 . S
C2430 C2431 1.524 . S
C2430 C2444 1.377 . S
C2431 C2430 1.524 . S
C2431 C2432 1.397 . S
C2431 C2436 1.363 . S
C2432 H2409 0.950 . S
C2432 C2431 1.397 . S
C2432 C2433 1.334 . S
C2433 H2410 0.950 . S
C2433 C2432 1.334 . S
C2433 C2434 1.287 . S
C2434 C2433 1.287 . S
C2434 C2435 1.524 . S
C2434 H2453 0.913 . S
C2435 H2411 0.950 . S
C2435 C2434 1.524 . S
C2435 C2436 1.415 . S
C2436 H2412 0.950 . S
C2436 C2431 1.363 . S
C2436 C2435 1.415 . S
C2437 H2413 0.951 . S
C2437 C2438 1.366 . S
C2437 C2439 1.388 . S
C2438 C2437 1.366 . S
C2438 C2442 1.385 . S
C2439 H2414 0.951 . S
C2439 C2437 1.388 . S
C2439 C2440 1.366 . S
C2440 C2439 1.366 . S
C2440 C2441 1.414 . S
C2440 C2443 1.499 . S
C2441 H2415 0.950 . S
C2441 C2440 1.414 . S
C2441 C2442 1.374 . S
C2442 H2416 0.950 . S
C2442 C2438 1.385 . S
C2442 C2441 1.374 . S
C2443 C2440 1.499 . S
C2443 C2444 1.373 . S
C2443 C2445 1.389 . S
C2444 H2417 0.950 . S
C2444 C2430 1.377 . S
C2444 C2443 1.373 . S
C2445 C2429 1.377 . S
C2445 C2443 1.389 . S
C2445 C2446 1.524 . S
C2446 C2445 1.524 . S
C2446 C2447 1.397 . S
C2446 C2451 1.363 . S
C2447 H2418 0.950 . S
C2447 C2446 1.397 . S
C2447 C2448 1.334 . S
C2448 H2419 0.950 . S
C2448 C2447 1.334 . S
C2448 C2449 1.287 . S
C2449 C2448 1.287 . S
C2449 C2450 1.524 . S
C2449 H2452 0.999 . S
C2450 H2420 0.950 . S
C2450 C2449 1.524 . S
C2450 C2451 1.415 . S
C2451 H2421 0.950 . S
C2451 C2446 1.363 . S
C2451 C2450 1.415 . S
H2452 C2449 0.999 . S
H2453 C2434 0.913 . S
H2454 C2472 0.951 . S
H2455 C2474 0.951 . S
H2456 C2476 0.998 . S
H2457 C2477 0.950 . S
H2458 C2479 0.950 . S
H2459 C2482 0.950 . S
H2460 C2483 0.950 . S
H2461 C2485 0.950 . S
H2462 C2486 0.950 . S
H2463 C2487 0.951 . S
H2464 C2489 0.951 . S
H2465 C2491 0.950 . S
H2466 C2492 0.950 . S
H2467 C2494 0.950 . S
H2468 C2497 0.950 . S
H2469 C2498 0.950 . S
H2470 C2500 0.950 . S
H2471 C2501 0.950 . S
C2472 H2454 0.951 . S
C2472 C2473 1.366 . S
C2472 C2474 1.388 . S
C2473 C2472 1.366 . S
C2473 C2477 1.385 . S
C2474 H2455 0.951 . S
C2474 C2472 1.388 . S
C2474 C2475 1.331 1_545 S
C2475 C2474 1.331 1_565 S
C2475 C2476 1.419 1_565 S
C2475 C2478 1.529 . S
C2476 H2456 0.998 . S
C2476 C2475 1.419 1_545 S
C2476 C2477 1.374 . S
C2477 H2457 0.950 . S
C2477 C2473 1.385 . S
C2477 C2476 1.374 . S
C2478 C2475 1.529 . S
C2478 C2479 1.373 . S
C2478 C2480 1.389 . S
C2479 H2458 0.950 . S
C2479 C2478 1.373 . S
C2479 C2495 1.377 . S
C2480 C2478 1.389 . S
C2480 C2481 1.524 . S
C2480 C2494 1.377 . S
C2481 C2480 1.524 . S
C2481 C2482 1.397 . S
C2481 C2486 1.363 . S
C2482 H2459 0.950 . S
C2482 C2481 1.397 . S
C2482 C2483 1.334 . S
C2483 H2460 0.950 . S
C2483 C2482 1.334 . S
C2483 C2484 1.287 . S
C2484 C2483 1.287 . S
C2484 C2485 1.524 . S
C2484 H2503 0.913 . S
C2485 H2461 0.950 . S
C2485 C2484 1.524 . S
C2485 C2486 1.415 . S
C2486 H2462 0.950 . S
C2486 C2481 1.363 . S
C2486 C2485 1.415 . S
C2487 H2463 0.951 . S
C2487 C2488 1.366 . S
C2487 C2489 1.388 . S
C2488 C2487 1.366 . S
C2488 C2492 1.385 . S
C2489 H2464 0.951 . S
C2489 C2487 1.388 . S
C2489 C2490 1.366 . S
C2490 C2489 1.366 . S
C2490 C2491 1.414 . S
C2490 C2493 1.499 . S
C2491 H2465 0.950 . S
C2491 C2490 1.414 . S
C2491 C2492 1.374 . S
C2492 H2466 0.950 . S
C2492 C2488 1.385 . S
C2492 C2491 1.374 . S
C2493 C2490 1.499 . S
C2493 C2494 1.373 . S
C2493 C2495 1.389 . S
C2494 H2467 0.950 . S
C2494 C2480 1.377 . S
C2494 C2493 1.373 . S
C2495 C2479 1.377 . S
C2495 C2493 1.389 . S
C2495 C2496 1.524 . S
C2496 C2495 1.524 . S
C2496 C2497 1.397 . S
C2496 C2501 1.363 . S
C2497 H2468 0.950 . S
C2497 C2496 1.397 . S
C2497 C2498 1.334 . S
C2498 H2469 0.950 . S
C2498 C2497 1.334 . S
C2498 C2499 1.287 . S
C2499 C2498 1.287 . S
C2499 C2500 1.524 . S
C2499 H2502 0.999 . S
C2500 H2470 0.950 . S
C2500 C2499 1.524 . S
C2500 C2501 1.415 . S
C2501 H2471 0.950 . S
C2501 C2496 1.363 . S
C2501 C2500 1.415 . S
H2502 C2499 0.999 . S
H2503 C2484 0.913 . S
H2504 C2522 0.951 . S
H2505 C2524 0.951 . S
H2506 C2526 0.950 . S
H2507 C2527 0.950 . S
H2508 C2529 0.950 . S
H2509 C2532 0.950 . S
H2510 C2533 0.950 . S
H2511 C2535 0.950 . S
H2512 C2536 0.950 . S
H2513 C2537 0.951 . S
H2514 C2539 0.951 . S
H2515 C2541 0.950 . S
H2516 C2542 0.950 . S
H2517 C2544 0.950 . S
H2518 C2547 0.950 . S
H2519 C2548 0.950 . S
H2520 C2550 0.950 . S
H2521 C2551 0.950 . S
C2522 H2504 0.951 . S
C2522 C2523 1.366 . S
C2522 C2524 1.388 1_655 S
C2523 C2522 1.366 . S
C2523 C2527 1.385 . S
C2524 H2505 0.951 . S
C2524 C2522 1.388 1_455 S
C2524 C2525 1.366 . S
C2525 C2524 1.366 . S
C2525 C2526 1.414 1_455 S
C2525 C2528 1.499 . S
C2526 H2506 0.950 . S
C2526 C2525 1.414 1_655 S
C2526 C2527 1.374 . S
C2527 H2507 0.950 . S
C2527 C2523 1.385 . S
C2527 C2526 1.374 . S
C2528 C2525 1.499 . S
C2528 C2529 1.373 . S
C2528 C2530 1.389 . S
C2529 H2508 0.950 . S
C2529 C2528 1.373 . S
C2529 C2545 1.377 . S
C2530 C2528 1.389 . S
C2530 C2531 1.524 . S
C2530 C2544 1.377 . S
C2531 C2530 1.524 . S
C2531 C2532 1.397 . S
C2531 C2536 1.363 . S
C2532 H2509 0.950 . S
C2532 C2531 1.397 . S
C2532 C2533 1.334 1_455 S
C2533 H2510 0.950 . S
C2533 C2532 1.334 1_655 S
C2533 C2534 1.287 1_655 S
C2534 C2533 1.287 1_455 S
C2534 C2535 1.524 . S
C2534 H2553 0.913 1_455 S
C2535 H2511 0.950 . S
C2535 C2534 1.524 . S
C2535 C2536 1.415 . S
C2536 H2512 0.950 . S
C2536 C2531 1.363 . S
C2536 C2535 1.415 . S
C2537 H2513 0.951 . S
C2537 C2538 1.366 . S
C2537 C2539 1.388 . S
C2538 C2537 1.366 . S
C2538 C2542 1.385 . S
C2539 H2514 0.951 . S
C2539 C2537 1.388 . S
C2539 C2540 1.366 . S
C2540 C2539 1.366 . S
C2540 C2541 1.414 . S
C2540 C2543 1.499 . S
C2541 H2515 0.950 . S
C2541 C2540 1.414 . S
C2541 C2542 1.374 . S
C2542 H2516 0.950 . S
C2542 C2538 1.385 . S
C2542 C2541 1.374 . S
C2543 C2540 1.499 . S
C2543 C2544 1.373 . S
C2543 C2545 1.389 . S
C2544 H2517 0.950 . S
C2544 C2530 1.377 . S
C2544 C2543 1.373 . S
C2545 C2529 1.377 . S
C2545 C2543 1.389 . S
C2545 C2546 1.524 . S
C2546 C2545 1.524 . S
C2546 C2547 1.397 . S
C2546 C2551 1.363 . S
C2547 H2518 0.950 . S
C2547 C2546 1.397 . S
C2547 C2548 1.334 . S
C2548 H2519 0.950 . S
C2548 C2547 1.334 . S
C2548 C2549 1.287 . S
C2549 C2548 1.287 . S
C2549 C2550 1.524 . S
C2549 H2552 0.999 . S
C2550 H2520 0.950 . S
C2550 C2549 1.524 . S
C2550 C2551 1.415 . S
C2551 H2521 0.950 . S
C2551 C2546 1.363 . S
C2551 C2550 1.415 . S
H2552 C2549 0.999 . S
H2553 C2534 0.913 1_655 S
H2554 C2572 0.951 . S
H2555 C2574 0.951 . S
H2556 C2576 0.950 . S
H2557 C2577 0.950 . S
H2558 C2579 0.950 . S
H2559 C2582 0.950 . S
H2560 C2583 0.950 . S
H2561 C2585 0.950 . S
H2562 C2586 0.950 . S
H2563 C2587 0.951 . S
H2564 C2589 0.951 . S
H2565 C2591 0.950 . S
H2566 C2592 0.950 . S
H2567 C2594 0.950 . S
H2568 C2597 0.950 . S
H2569 C2598 0.950 . S
H2570 C2600 0.950 . S
H2571 C2601 0.950 . S
C2572 H2554 0.951 . S
C2572 C2573 1.366 . S
C2572 C2574 1.388 . S
C2573 C2572 1.366 . S
C2573 C2577 1.385 . S
C2574 H2555 0.951 . S
C2574 C2572 1.388 . S
C2574 C2575 1.366 . S
C2575 C2574 1.366 . S
C2575 C2576 1.414 . S
C2575 C2578 1.499 . S
C2576 H2556 0.950 . S
C2576 C2575 1.414 . S
C2576 C2577 1.374 . S
C2577 H2557 0.950 . S
C2577 C2573 1.385 . S
C2577 C2576 1.374 . S
C2578 C2575 1.499 . S
C2578 C2579 1.373 . S
C2578 C2580 1.389 . S
C2579 H2558 0.950 . S
C2579 C2578 1.373 . S
C2579 C2595 1.377 . S
C2580 C2578 1.389 . S
C2580 C2581 1.524 . S
C2580 C2594 1.377 . S
C2581 C2580 1.524 . S
C2581 C2582 1.397 . S
C2581 C2586 1.363 . S
C2582 H2559 0.950 . S
C2582 C2581 1.397 . S
C2582 C2583 1.334 . S
C2583 H2560 0.950 . S
C2583 C2582 1.334 . S
C2583 C2584 1.287 . S
C2584 C2583 1.287 . S
C2584 C2585 1.524 . S
C2584 H2603 0.913 . S
C2585 H2561 0.950 . S
C2585 C2584 1.524 . S
C2585 C2586 1.415 . S
C2586 H2562 0.950 . S
C2586 C2581 1.363 . S
C2586 C2585 1.415 . S
C2587 H2563 0.951 . S
C2587 C2588 1.366 . S
C2587 C2589 1.388 . S
C2588 C2587 1.366 . S
C2588 C2592 1.385 . S
C2589 H2564 0.951 . S
C2589 C2587 1.388 . S
C2589 C2590 1.366 . S
C2590 C2589 1.366 . S
C2590 C2591 1.414 . S
C2590 C2593 1.499 . S
C2591 H2565 0.950 . S
C2591 C2590 1.414 . S
C2591 C2592 1.374 . S
C2592 H2566 0.950 . S
C2592 C2588 1.385 . S
C2592 C2591 1.374 . S
C2593 C2590 1.499 . S
C2593 C2594 1.373 . S
C2593 C2595 1.389 . S
C2594 H2567 0.950 . S
C2594 C2580 1.377 . S
C2594 C2593 1.373 . S
C2595 C2579 1.377 . S
C2595 C2593 1.389 . S
C2595 C2596 1.524 . S
C2596 C2595 1.524 . S
C2596 C2597 1.397 . S
C2596 C2601 1.363 . S
C2597 H2568 0.950 . S
C2597 C2596 1.397 . S
C2597 C2598 1.334 . S
C2598 H2569 0.950 . S
C2598 C2597 1.334 . S
C2598 C2599 1.287 . S
C2599 C2598 1.287 . S
C2599 C2600 1.524 . S
C2599 H2602 0.999 . S
C2600 H2570 0.950 . S
C2600 C2599 1.524 . S
C2600 C2601 1.415 . S
C2601 H2571 0.950 . S
C2601 C2596 1.363 . S
C2601 C2600 1.415 . S
H2602 C2599 0.999 . S
H2603 C2584 0.913 . S
H2604 C2622 0.951 . S
H2605 C2624 0.951 . S
H2606 C2626 0.950 . S
H2607 C2627 0.950 . S
H2608 C2629 0.950 . S
H2609 C2632 0.950 . S
H2610 C2633 0.950 . S
H2611 C2635 0.950 . S
H2612 C2636 0.950 . S
H2613 C2637 0.951 . S
H2614 C2639 0.951 . S
H2615 C2641 0.950 . S
H2616 C2642 0.950 . S
H2617 C2644 0.950 . S
H2618 C2647 0.950 . S
H2619 C2648 0.950 . S
H2620 C2650 0.950 . S
H2621 C2651 0.950 . S
C2622 H2604 0.951 . S
C2622 C2623 1.366 . S
C2622 C2624 1.388 . S
C2623 C2622 1.366 . S
C2623 C2627 1.385 . S
C2624 H2605 0.951 . S
C2624 C2622 1.388 . S
C2624 C2625 1.366 . S
C2625 C2624 1.366 . S
C2625 C2626 1.414 . S
C2625 C2628 1.499 . S
C2626 H2606 0.950 . S
C2626 C2625 1.414 . S
C2626 C2627 1.374 . S
C2627 H2607 0.950 . S
C2627 C2623 1.385 . S
C2627 C2626 1.374 . S
C2628 C2625 1.499 . S
C2628 C2629 1.373 . S
C2628 C2630 1.389 . S
C2629 H2608 0.950 . S
C2629 C2628 1.373 . S
C2629 C2645 1.377 . S
C2630 C2628 1.389 . S
C2630 C2631 1.524 . S
C2630 C2644 1.377 . S
C2631 C2630 1.524 . S
C2631 C2632 1.397 . S
C2631 C2636 1.363 . S
C2632 H2609 0.950 . S
C2632 C2631 1.397 . S
C2632 C2633 1.334 . S
C2633 H2610 0.950 . S
C2633 C2632 1.334 . S
C2633 C2634 1.287 . S
C2634 C2633 1.287 . S
C2634 C2635 1.524 . S
C2634 H2653 0.913 . S
C2635 H2611 0.950 . S
C2635 C2634 1.524 . S
C2635 C2636 1.415 . S
C2636 H2612 0.950 . S
C2636 C2631 1.363 . S
C2636 C2635 1.415 . S
C2637 H2613 0.951 . S
C2637 C2638 1.366 . S
C2637 C2639 1.388 . S
C2638 C2637 1.366 . S
C2638 C2642 1.385 . S
C2639 H2614 0.951 . S
C2639 C2637 1.388 . S
C2639 C2640 1.366 . S
C2640 C2639 1.366 . S
C2640 C2641 1.414 . S
C2640 C2643 1.499 . S
C2641 H2615 0.950 . S
C2641 C2640 1.414 . S
C2641 C2642 1.374 . S
C2642 H2616 0.950 . S
C2642 C2638 1.385 . S
C2642 C2641 1.374 . S
C2643 C2640 1.499 . S
C2643 C2644 1.373 . S
C2643 C2645 1.389 . S
C2644 H2617 0.950 . S
C2644 C2630 1.377 . S
C2644 C2643 1.373 . S
C2645 C2629 1.377 . S
C2645 C2643 1.389 . S
C2645 C2646 1.524 . S
C2646 C2645 1.524 . S
C2646 C2647 1.397 . S
C2646 C2651 1.363 . S
C2647 H2618 0.950 . S
C2647 C2646 1.397 . S
C2647 C2648 1.334 . S
C2648 H2619 0.950 . S
C2648 C2647 1.334 . S
C2648 C2649 1.287 . S
C2649 C2648 1.287 . S
C2649 C2650 1.524 . S
C2649 H2652 0.999 . S
C2650 H2620 0.950 . S
C2650 C2649 1.524 . S
C2650 C2651 1.415 . S
C2651 H2621 0.950 . S
C2651 C2646 1.363 . S
C2651 C2650 1.415 . S
H2652 C2649 0.999 . S
H2653 C2634 0.913 . S
H2654 C2672 0.951 . S
H2655 C2674 0.951 . S
H2656 C2676 0.950 . S
H2657 C2677 0.950 . S
H2658 C2679 0.950 . S
H2659 C2682 0.950 . S
H2660 C2683 0.950 . S
H2661 C2685 0.950 . S
H2662 C2686 0.950 . S
H2663 C2687 0.951 . S
H2664 C2689 0.951 . S
H2665 C2691 0.950 . S
H2666 C2692 0.950 . S
H2667 C2694 0.950 . S
H2668 C2697 0.950 . S
H2669 C2698 0.950 . S
H2670 C2700 0.950 . S
H2671 C2701 0.950 . S
C2672 H2654 0.951 . S
C2672 C2673 1.366 . S
C2672 C2674 1.388 . S
C2673 C2672 1.366 . S
C2673 C2677 1.385 . S
C2674 H2655 0.951 . S
C2674 C2672 1.388 . S
C2674 C2675 1.366 . S
C2675 C2674 1.366 . S
C2675 C2676 1.414 . S
C2675 C2678 1.499 . S
C2676 H2656 0.950 . S
C2676 C2675 1.414 . S
C2676 C2677 1.374 . S
C2677 H2657 0.950 . S
C2677 C2673 1.385 . S
C2677 C2676 1.374 . S
C2678 C2675 1.499 . S
C2678 C2679 1.373 . S
C2678 C2680 1.389 . S
C2679 H2658 0.950 . S
C2679 C2678 1.373 . S
C2679 C2695 1.377 . S
C2680 C2678 1.389 . S
C2680 C2681 1.524 . S
C2680 C2694 1.377 . S
C2681 C2680 1.524 . S
C2681 C2682 1.397 . S
C2681 C2686 1.363 . S
C2682 H2659 0.950 . S
C2682 C2681 1.397 . S
C2682 C2683 1.334 . S
C2683 H2660 0.950 . S
C2683 C2682 1.334 . S
C2683 C2684 1.287 . S
C2684 C2683 1.287 . S
C2684 C2685 1.524 . S
C2684 H2703 0.913 . S
C2685 H2661 0.950 . S
C2685 C2684 1.524 . S
C2685 C2686 1.415 . S
C2686 H2662 0.950 . S
C2686 C2681 1.363 . S
C2686 C2685 1.415 . S
C2687 H2663 0.951 . S
C2687 C2688 1.366 . S
C2687 C2689 1.388 . S
C2688 C2687 1.366 . S
C2688 C2692 1.385 . S
C2689 H2664 0.951 . S
C2689 C2687 1.388 . S
C2689 C2690 1.366 . S
C2690 C2689 1.366 . S
C2690 C2691 1.414 . S
C2690 C2693 1.499 . S
C2691 H2665 0.950 . S
C2691 C2690 1.414 . S
C2691 C2692 1.374 . S
C2692 H2666 0.950 . S
C2692 C2688 1.385 . S
C2692 C2691 1.374 . S
C2693 C2690 1.499 . S
C2693 C2694 1.373 . S
C2693 C2695 1.389 . S
C2694 H2667 0.950 . S
C2694 C2680 1.377 . S
C2694 C2693 1.373 . S
C2695 C2679 1.377 . S
C2695 C2693 1.389 . S
C2695 C2696 1.524 . S
C2696 C2695 1.524 . S
C2696 C2697 1.397 . S
C2696 C2701 1.363 . S
C2697 H2668 0.950 . S
C2697 C2696 1.397 . S
C2697 C2698 1.334 . S
C2698 H2669 0.950 . S
C2698 C2697 1.334 . S
C2698 C2699 1.287 . S
C2699 C2698 1.287 . S
C2699 C2700 1.524 . S
C2699 H2702 0.999 . S
C2700 H2670 0.950 . S
C2700 C2699 1.524 . S
C2700 C2701 1.415 . S
C2701 H2671 0.950 . S
C2701 C2696 1.363 . S
C2701 C2700 1.415 . S
H2702 C2699 0.999 . S
H2703 C2684 0.913 . S
H2704 C2722 0.951 . S
H2705 C2724 0.951 . S
H2706 C2726 0.950 . S
H2707 C2727 0.950 . S
H2708 C2729 0.950 . S
H2709 C2732 0.950 . S
H2710 C2733 0.950 . S
H2711 C2735 0.950 . S
H2712 C2736 0.950 . S
H2713 C2737 0.951 . S
H2714 C2739 0.951 . S
H2715 C2741 0.950 . S
H2716 C2742 0.950 . S
H2717 C2744 0.950 . S
H2718 C2747 0.950 . S
H2719 C2748 0.950 . S
H2720 C2750 0.950 . S
H2721 C2751 0.950 . S
C2722 H2704 0.951 . S
C2722 C2723 1.366 . S
C2722 C2724 1.388 . S
C2723 C2722 1.366 . S
C2723 C2727 1.385 . S
C2724 H2705 0.951 . S
C2724 C2722 1.388 . S
C2724 C2725 1.366 . S
C2725 C2724 1.366 . S
C2725 C2726 1.414 . S
C2725 C2728 1.499 . S
C2726 H2706 0.950 . S
C2726 C2725 1.414 . S
C2726 C2727 1.374 . S
C2727 H2707 0.950 . S
C2727 C2723 1.385 . S
C2727 C2726 1.374 . S
C2728 C2725 1.499 . S
C2728 C2729 1.373 . S
C2728 C2730 1.389 . S
C2729 H2708 0.950 . S
C2729 C2728 1.373 . S
C2729 C2745 1.377 . S
C2730 C2728 1.389 . S
C2730 C2731 1.524 . S
C2730 C2744 1.377 . S
C2731 C2730 1.524 . S
C2731 C2732 1.397 . S
C2731 C2736 1.363 . S
C2732 H2709 0.950 . S
C2732 C2731 1.397 . S
C2732 C2733 1.334 . S
C2733 H2710 0.950 . S
C2733 C2732 1.334 . S
C2733 C2734 1.287 . S
C2734 C2733 1.287 . S
C2734 C2735 1.524 . S
C2734 H2753 0.913 . S
C2735 H2711 0.950 . S
C2735 C2734 1.524 . S
C2735 C2736 1.415 . S
C2736 H2712 0.950 . S
C2736 C2731 1.363 . S
C2736 C2735 1.415 . S
C2737 H2713 0.951 . S
C2737 C2738 1.366 . S
C2737 C2739 1.388 . S
C2738 C2737 1.366 . S
C2738 C2742 1.385 . S
C2739 H2714 0.951 . S
C2739 C2737 1.388 . S
C2739 C2740 1.366 . S
C2740 C2739 1.366 . S
C2740 C2741 1.414 . S
C2740 C2743 1.499 . S
C2741 H2715 0.950 . S
C2741 C2740 1.414 . S
C2741 C2742 1.374 . S
C2742 H2716 0.950 . S
C2742 C2738 1.385 . S
C2742 C2741 1.374 . S
C2743 C2740 1.499 . S
C2743 C2744 1.373 . S
C2743 C2745 1.389 . S
C2744 H2717 0.950 . S
C2744 C2730 1.377 . S
C2744 C2743 1.373 . S
C2745 C2729 1.377 . S
C2745 C2743 1.389 . S
C2745 C2746 1.524 . S
C2746 C2745 1.524 . S
C2746 C2747 1.397 . S
C2746 C2751 1.363 . S
C2747 H2718 0.950 . S
C2747 C2746 1.397 . S
C2747 C2748 1.334 . S
C2748 H2719 0.950 . S
C2748 C2747 1.334 . S
C2748 C2749 1.287 . S
C2749 C2748 1.287 . S
C2749 C2750 1.524 . S
C2749 H2752 0.999 . S
C2750 H2720 0.950 . S
C2750 C2749 1.524 . S
C2750 C2751 1.415 . S
C2751 H2721 0.950 . S
C2751 C2746 1.363 . S
C2751 C2750 1.415 . S
H2752 C2749 0.999 . S
H2753 C2734 0.913 . S
H2754 C2772 0.951 . S
H2755 C2774 0.909 1_545 S
H2756 C2776 0.950 . S
H2757 C2777 0.950 . S
H2758 C2779 0.950 . S
H2759 C2782 0.950 . S
H2760 C2783 0.950 . S
H2761 C2785 0.950 . S
H2762 C2786 0.950 . S
H2763 C2787 0.951 . S
H2764 C2789 0.951 . S
H2765 C2791 0.950 . S
H2766 C2792 0.950 . S
H2767 C2794 0.950 . S
H2768 C2797 0.950 . S
H2769 C2798 0.950 . S
H2770 C2800 0.950 . S
H2771 C2801 0.950 . S
C2772 H2754 0.951 . S
C2772 C2773 1.366 . S
C2772 C2774 1.419 . S
C2773 C2772 1.366 . S
C2773 C2777 1.385 . S
C2774 H2755 0.909 1_565 S
C2774 C2772 1.419 . S
C2774 C2775 1.377 1_565 S
C2775 C2774 1.377 1_545 S
C2775 C2776 1.414 1_545 S
C2775 C2778 1.499 . S
C2776 H2756 0.950 . S
C2776 C2775 1.414 1_565 S
C2776 C2777 1.374 . S
C2777 H2757 0.950 . S
C2777 C2773 1.385 . S
C2777 C2776 1.374 . S
C2778 C2775 1.499 . S
C2778 C2779 1.373 . S
C2778 C2780 1.389 . S
C2779 H2758 0.950 . S
C2779 C2778 1.373 . S
C2779 C2795 1.377 . S
C2780 C2778 1.389 . S
C2780 C2781 1.524 . S
C2780 C2794 1.377 . S
C2781 C2780 1.524 . S
C2781 C2782 1.397 . S
C2781 C2786 1.363 . S
C2782 H2759 0.950 . S
C2782 C2781 1.397 . S
C2782 C2783 1.334 . S
C2783 H2760 0.950 . S
C2783 C2782 1.334 . S
C2783 C2784 1.287 . S
C2784 C2783 1.287 . S
C2784 C2785 1.524 . S
C2784 H2803 0.913 . S
C2785 H2761 0.950 . S
C2785 C2784 1.524 . S
C2785 C2786 1.415 . S
C2786 H2762 0.950 . S
C2786 C2781 1.363 . S
C2786 C2785 1.415 . S
C2787 H2763 0.951 . S
C2787 C2788 1.366 . S
C2787 C2789 1.388 . S
C2788 C2787 1.366 . S
C2788 C2792 1.385 . S
C2789 H2764 0.951 . S
C2789 C2787 1.388 . S
C2789 C2790 1.366 . S
C2790 C2789 1.366 . S
C2790 C2791 1.414 . S
C2790 C2793 1.499 . S
C2791 H2765 0.950 . S
C2791 C2790 1.414 . S
C2791 C2792 1.374 . S
C2792 H2766 0.950 . S
C2792 C2788 1.385 . S
C2792 C2791 1.374 . S
C2793 C2790 1.499 . S
C2793 C2794 1.373 . S
C2793 C2795 1.389 . S
C2794 H2767 0.950 . S
C2794 C2780 1.377 . S
C2794 C2793 1.373 . S
C2795 C2779 1.377 . S
C2795 C2793 1.389 . S
C2795 C2796 1.524 . S
C2796 C2795 1.524 . S
C2796 C2797 1.397 . S
C2796 C2801 1.363 . S
C2797 H2768 0.950 . S
C2797 C2796 1.397 . S
C2797 C2798 1.334 . S
C2798 H2769 0.950 . S
C2798 C2797 1.334 . S
C2798 C2799 1.287 . S
C2799 C2798 1.287 . S
C2799 C2800 1.524 . S
C2799 H2802 0.999 . S
C2800 H2770 0.950 . S
C2800 C2799 1.524 . S
C2800 C2801 1.415 . S
C2801 H2771 0.950 . S
C2801 C2796 1.363 . S
C2801 C2800 1.415 . S
H2802 C2799 0.999 . S
H2803 C2784 0.913 . S
H2804 C2822 0.951 . S
H2805 C2824 0.951 . S
H2806 C2826 0.950 . S
H2807 C2827 0.950 . S
H2808 C2829 0.950 . S
H2809 C2832 0.950 . S
H2810 C2833 0.950 . S
H2811 C2835 0.950 . S
H2812 C2836 0.950 . S
H2813 C2837 0.951 . S
H2814 C2839 0.951 . S
H2815 C2841 0.950 . S
H2816 C2842 0.950 . S
H2817 C2844 0.950 . S
H2818 C2847 0.950 . S
H2819 C2848 0.950 . S
H2820 C2850 0.950 . S
H2821 C2851 0.950 . S
C2822 H2804 0.951 . S
C2822 C2823 1.366 . S
C2822 C2824 1.388 . S
C2823 C2822 1.366 . S
C2823 C2827 1.385 . S
C2824 H2805 0.951 . S
C2824 C2822 1.388 . S
C2824 C2825 1.366 1_455 S
C2825 C2824 1.366 1_655 S
C2825 C2826 1.414 . S
C2825 C2828 1.499 . S
C2826 H2806 0.950 . S
C2826 C2825 1.414 . S
C2826 C2827 1.374 1_655 S
C2827 H2807 0.950 . S
C2827 C2823 1.385 . S
C2827 C2826 1.374 1_455 S
C2828 C2825 1.499 . S
C2828 C2829 1.373 . S
C2828 C2830 1.389 . S
C2829 H2808 0.950 . S
C2829 C2828 1.373 . S
C2829 C2845 1.377 . S
C2830 C2828 1.389 . S
C2830 C2831 1.524 . S
C2830 C2844 1.377 . S
C2831 C2830 1.524 . S
C2831 C2832 1.397 . S
C2831 C2836 1.363 . S
C2832 H2809 0.950 . S
C2832 C2831 1.397 . S
C2832 C2833 1.334 . S
C2833 H2810 0.950 . S
C2833 C2832 1.334 . S
C2833 C2834 1.287 . S
C2834 C2833 1.287 . S
C2834 C2835 1.524 . S
C2834 H2853 0.913 . S
C2835 H2811 0.950 . S
C2835 C2834 1.524 . S
C2835 C2836 1.415 . S
C2836 H2812 0.950 . S
C2836 C2831 1.363 . S
C2836 C2835 1.415 . S
C2837 H2813 0.951 . S
C2837 C2838 1.366 . S
C2837 C2839 1.388 . S
C2838 C2837 1.366 . S
C2838 C2842 1.385 . S
C2839 H2814 0.951 . S
C2839 C2837 1.388 . S
C2839 C2840 1.366 . S
C2840 C2839 1.366 . S
C2840 C2841 1.414 . S
C2840 C2843 1.499 . S
C2841 H2815 0.950 . S
C2841 C2840 1.414 . S
C2841 C2842 1.374 . S
C2842 H2816 0.950 . S
C2842 C2838 1.385 . S
C2842 C2841 1.374 . S
C2843 C2840 1.499 . S
C2843 C2844 1.373 . S
C2843 C2845 1.389 . S
C2844 H2817 0.950 . S
C2844 C2830 1.377 . S
C2844 C2843 1.373 . S
C2845 C2829 1.377 . S
C2845 C2843 1.389 . S
C2845 C2846 1.524 . S
C2846 C2845 1.524 . S
C2846 C2847 1.397 . S
C2846 C2851 1.363 . S
C2847 H2818 0.950 . S
C2847 C2846 1.397 . S
C2847 C2848 1.334 . S
C2848 H2819 0.950 . S
C2848 C2847 1.334 . S
C2848 C2849 1.287 . S
C2849 C2848 1.287 . S
C2849 C2850 1.524 . S
C2849 H2852 0.999 . S
C2850 H2820 0.950 . S
C2850 C2849 1.524 . S
C2850 C2851 1.415 . S
C2851 H2821 0.950 . S
C2851 C2846 1.363 . S
C2851 C2850 1.415 . S
H2852 C2849 0.999 . S
H2853 C2834 0.913 . S
H2854 C2872 0.951 . S
H2855 C2874 0.951 . S
H2856 C2876 0.950 . S
H2857 C2877 0.950 . S
H2858 C2879 0.950 . S
H2859 C2882 0.950 . S
H2860 C2883 0.950 . S
H2861 C2885 0.950 . S
H2862 C2886 0.950 . S
H2863 C2887 0.951 . S
H2864 C2889 0.951 . S
H2865 C2891 0.950 . S
H2866 C2892 0.950 . S
H2867 C2894 0.950 . S
H2868 C2897 0.950 . S
H2869 C2898 0.950 . S
H2870 C2900 0.950 . S
H2871 C2901 0.950 . S
C2872 H2854 0.951 . S
C2872 C2873 1.366 . S
C2872 C2874 1.388 . S
C2873 C2872 1.366 . S
C2873 C2877 1.385 . S
C2874 H2855 0.951 . S
C2874 C2872 1.388 . S
C2874 C2875 1.366 . S
C2875 C2874 1.366 . S
C2875 C2876 1.414 . S
C2875 C2878 1.499 . S
C2876 H2856 0.950 . S
C2876 C2875 1.414 . S
C2876 C2877 1.374 . S
C2877 H2857 0.950 . S
C2877 C2873 1.385 . S
C2877 C2876 1.374 . S
C2878 C2875 1.499 . S
C2878 C2879 1.373 . S
C2878 C2880 1.389 . S
C2879 H2858 0.950 . S
C2879 C2878 1.373 . S
C2879 C2895 1.377 . S
C2880 C2878 1.389 . S
C2880 C2881 1.524 . S
C2880 C2894 1.377 . S
C2881 C2880 1.524 . S
C2881 C2882 1.397 . S
C2881 C2886 1.363 . S
C2882 H2859 0.950 . S
C2882 C2881 1.397 . S
C2882 C2883 1.334 . S
C2883 H2860 0.950 . S
C2883 C2882 1.334 . S
C2883 C2884 1.287 . S
C2884 C2883 1.287 . S
C2884 C2885 1.524 . S
C2884 H2903 0.913 . S
C2885 H2861 0.950 . S
C2885 C2884 1.524 . S
C2885 C2886 1.415 . S
C2886 H2862 0.950 . S
C2886 C2881 1.363 . S
C2886 C2885 1.415 . S
C2887 H2863 0.951 . S
C2887 C2888 1.366 . S
C2887 C2889 1.388 . S
C2888 C2887 1.366 . S
C2888 C2892 1.385 . S
C2889 H2864 0.951 . S
C2889 C2887 1.388 . S
C2889 C2890 1.366 . S
C2890 C2889 1.366 . S
C2890 C2891 1.414 . S
C2890 C2893 1.499 . S
C2891 H2865 0.950 . S
C2891 C2890 1.414 . S
C2891 C2892 1.374 . S
C2892 H2866 0.950 . S
C2892 C2888 1.385 . S
C2892 C2891 1.374 . S
C2893 C2890 1.499 . S
C2893 C2894 1.373 . S
C2893 C2895 1.389 . S
C2894 H2867 0.950 . S
C2894 C2880 1.377 . S
C2894 C2893 1.373 . S
C2895 C2879 1.377 . S
C2895 C2893 1.389 . S
C2895 C2896 1.524 . S
C2896 C2895 1.524 . S
C2896 C2897 1.397 . S
C2896 C2901 1.363 . S
C2897 H2868 0.950 . S
C2897 C2896 1.397 . S
C2897 C2898 1.334 . S
C2898 H2869 0.950 . S
C2898 C2897 1.334 . S
C2898 C2899 1.287 . S
C2899 C2898 1.287 . S
C2899 C2900 1.524 . S
C2899 H2902 0.999 . S
C2900 H2870 0.950 . S
C2900 C2899 1.524 . S
C2900 C2901 1.415 . S
C2901 H2871 0.950 . S
C2901 C2896 1.363 . S
C2901 C2900 1.415 . S
H2902 C2899 0.999 . S
H2903 C2884 0.913 . S
H2904 C2922 0.951 . S
H2905 C2924 0.951 . S
H2906 C2926 0.950 . S
H2907 C2927 0.950 . S
H2908 C2929 0.950 . S
H2909 C2932 0.950 . S
H2910 C2933 0.950 . S
H2911 C2935 0.950 . S
H2912 C2936 0.950 . S
H2913 C2937 0.951 . S
H2914 C2939 0.951 . S
H2915 C2941 0.950 . S
H2916 C2942 0.950 . S
H2917 C2944 0.950 . S
H2918 C2947 0.950 . S
H2919 C2948 0.950 . S
H2920 C2950 0.950 . S
H2921 C2951 0.950 . S
C2922 H2904 0.951 . S
C2922 C2923 1.366 . S
C2922 C2924 1.388 . S
C2923 C2922 1.366 . S
C2923 C2927 1.385 . S
C2924 H2905 0.951 . S
C2924 C2922 1.388 . S
C2924 C2925 1.366 1_455 S
C2925 C2924 1.366 1_655 S
C2925 C2926 1.414 . S
C2925 C2928 1.499 . S
C2926 H2906 0.950 . S
C2926 C2925 1.414 . S
C2926 C2927 1.374 1_655 S
C2927 H2907 0.950 . S
C2927 C2923 1.385 . S
C2927 C2926 1.374 1_455 S
C2928 C2925 1.499 . S
C2928 C2929 1.373 . S
C2928 C2930 1.389 . S
C2929 H2908 0.950 . S
C2929 C2928 1.373 . S
C2929 C2945 1.377 . S
C2930 C2928 1.389 . S
C2930 C2931 1.524 . S
C2930 C2944 1.377 . S
C2931 C2930 1.524 . S
C2931 C2932 1.397 . S
C2931 C2936 1.363 . S
C2932 H2909 0.950 . S
C2932 C2931 1.397 . S
C2932 C2933 1.334 1_655 S
C2933 H2910 0.950 . S
C2933 C2932 1.334 1_455 S
C2933 C2934 1.287 . S
C2934 C2933 1.287 . S
C2934 C2935 1.524 . S
C2934 H2953 0.913 . S
C2935 H2911 0.950 . S
C2935 C2934 1.524 . S
C2935 C2936 1.415 1_455 S
C2936 H2912 0.950 . S
C2936 C2931 1.363 . S
C2936 C2935 1.415 1_655 S
C2937 H2913 0.951 . S
C2937 C2938 1.366 . S
C2937 C2939 1.388 . S
C2938 C2937 1.366 . S
C2938 C2942 1.385 . S
C2939 H2914 0.951 . S
C2939 C2937 1.388 . S
C2939 C2940 1.366 . S
C2940 C2939 1.366 . S
C2940 C2941 1.414 . S
C2940 C2943 1.499 . S
C2941 H2915 0.950 . S
C2941 C2940 1.414 . S
C2941 C2942 1.374 . S
C2942 H2916 0.950 . S
C2942 C2938 1.385 . S
C2942 C2941 1.374 . S
C2943 C2940 1.499 . S
C2943 C2944 1.373 . S
C2943 C2945 1.389 . S
C2944 H2917 0.950 . S
C2944 C2930 1.377 . S
C2944 C2943 1.373 . S
C2945 C2929 1.377 . S
C2945 C2943 1.389 . S
C2945 C2946 1.524 . S
C2946 C2945 1.524 . S
C2946 C2947 1.397 . S
C2946 C2951 1.363 . S
C2947 H2918 0.950 . S
C2947 C2946 1.397 . S
C2947 C2948 1.334 . S
C2948 H2919 0.950 . S
C2948 C2947 1.334 . S
C2948 C2949 1.287 . S
C2949 C2948 1.287 . S
C2949 C2950 1.524 . S
C2949 H2952 0.999 . S
C2950 H2920 0.950 . S
C2950 C2949 1.524 . S
C2950 C2951 1.415 . S
C2951 H2921 0.950 . S
C2951 C2946 1.363 . S
C2951 C2950 1.415 . S
H2952 C2949 0.999 . S
H2953 C2934 0.913 . S
H2954 C2972 0.951 . S
H2955 C2974 0.951 . S
H2956 C2976 0.950 . S
H2957 C2977 0.950 . S
H2958 C2979 0.950 . S
H2959 C2982 0.950 . S
H2960 C2983 0.950 . S
H2961 C2985 0.950 . S
H2962 C2986 0.950 . S
H2963 C2987 0.951 . S
H2964 C2989 0.951 . S
H2965 C2991 0.950 . S
H2966 C2992 0.950 . S
H2967 C2994 0.950 . S
H2968 C2997 0.950 . S
H2969 C2998 0.950 . S
H2970 C3000 0.950 . S
H2971 C3001 0.950 . S
C2972 H2954 0.951 . S
C2972 C2973 1.366 . S
C2972 C2974 1.388 . S
C2973 C2972 1.366 . S
C2973 C2977 1.385 . S
C2974 H2955 0.951 . S
C2974 C2972 1.388 . S
C2974 C2975 1.366 . S
C2975 C2974 1.366 . S
C2975 C2976 1.414 . S
C2975 C2978 1.499 . S
C2976 H2956 0.950 . S
C2976 C2975 1.414 . S
C2976 C2977 1.374 . S
C2977 H2957 0.950 . S
C2977 C2973 1.385 . S
C2977 C2976 1.374 . S
C2978 C2975 1.499 . S
C2978 C2979 1.373 . S
C2978 C2980 1.389 . S
C2979 H2958 0.950 . S
C2979 C2978 1.373 . S
C2979 C2995 1.377 . S
C2980 C2978 1.389 . S
C2980 C2981 1.524 . S
C2980 C2994 1.377 . S
C2981 C2980 1.524 . S
C2981 C2982 1.397 . S
C2981 C2986 1.363 . S
C2982 H2959 0.950 . S
C2982 C2981 1.397 . S
C2982 C2983 1.334 . S
C2983 H2960 0.950 . S
C2983 C2982 1.334 . S
C2983 C2984 1.287 . S
C2984 C2983 1.287 . S
C2984 C2985 1.524 . S
C2984 H3003 0.913 . S
C2985 H2961 0.950 . S
C2985 C2984 1.524 . S
C2985 C2986 1.415 . S
C2986 H2962 0.950 . S
C2986 C2981 1.363 . S
C2986 C2985 1.415 . S
C2987 H2963 0.951 . S
C2987 C2988 1.366 . S
C2987 C2989 1.388 . S
C2988 C2987 1.366 . S
C2988 C2992 1.385 . S
C2989 H2964 0.951 . S
C2989 C2987 1.388 . S
C2989 C2990 1.366 . S
C2990 C2989 1.366 . S
C2990 C2991 1.414 . S
C2990 C2993 1.499 . S
C2991 H2965 0.950 . S
C2991 C2990 1.414 . S
C2991 C2992 1.374 . S
C2992 H2966 0.950 . S
C2992 C2988 1.385 . S
C2992 C2991 1.374 . S
C2993 C2990 1.499 . S
C2993 C2994 1.373 . S
C2993 C2995 1.389 . S
C2994 H2967 0.950 . S
C2994 C2980 1.377 . S
C2994 C2993 1.373 . S
C2995 C2979 1.377 . S
C2995 C2993 1.389 . S
C2995 C2996 1.524 . S
C2996 C2995 1.524 . S
C2996 C2997 1.397 . S
C2996 C3001 1.363 . S
C2997 H2968 0.950 . S
C2997 C2996 1.397 . S
C2997 C2998 1.334 . S
C2998 H2969 0.950 . S
C2998 C2997 1.334 . S
C2998 C2999 1.287 . S
C2999 C2998 1.287 . S
C2999 C3000 1.524 . S
C2999 H3002 0.999 . S
C3000 H2970 0.950 . S
C3000 C2999 1.524 . S
C3000 C3001 1.415 . S
C3001 H2971 0.950 . S
C3001 C2996 1.363 . S
C3001 C3000 1.415 . S
H3002 C2999 0.999 . S
H3003 C2984 0.913 . S
H3004 C3022 0.951 . S
H3005 C3024 0.951 1_545 S
H3006 C3026 0.950 . S
H3007 C3027 0.950 . S
H3008 C3029 0.950 . S
H3009 C3032 0.941 . S
H3010 C3033 0.950 . S
H3011 C3035 0.950 . S
H3012 C3036 0.950 . S
H3013 C3037 0.951 . S
H3014 C3039 0.951 . S
H3015 C3041 0.950 . S
H3016 C3042 0.950 . S
H3017 C3044 0.950 . S
H3018 C3047 0.950 . S
H3019 C3048 0.950 . S
H3020 C3050 0.950 . S
H3021 C3051 0.950 . S
C3022 H3004 0.951 . S
C3022 C3023 1.366 . S
C3022 C3024 1.388 . S
C3023 C3022 1.366 . S
C3023 C3027 1.385 . S
C3024 H3005 0.951 1_565 S
C3024 C3022 1.388 . S
C3024 C3025 1.400 . S
C3025 C3024 1.400 . S
C3025 C3026 1.424 . S
C3025 C3028 1.455 1_565 S
C3026 H3006 0.950 . S
C3026 C3025 1.424 . S
C3026 C3027 1.374 . S
C3027 H3007 0.950 . S
C3027 C3023 1.385 . S
C3027 C3026 1.374 . S
C3028 C3025 1.455 1_545 S
C3028 C3029 1.373 . S
C3028 C3030 1.389 . S
C3029 H3008 0.950 . S
C3029 C3028 1.373 . S
C3029 C3045 1.377 . S
C3030 C3028 1.389 . S
C3030 C3031 1.524 . S
C3030 C3044 1.377 . S
C3031 C3030 1.524 . S
C3031 C3032 1.368 1_545 S
C3031 C3036 1.363 . S
C3032 H3009 0.941 . S
C3032 C3031 1.368 1_565 S
C3032 C3033 1.373 . S
C3033 H3010 0.950 . S
C3033 C3032 1.373 . S
C3033 C3034 1.287 . S
C3034 C3033 1.287 . S
C3034 C3035 1.524 1_565 S
C3034 H3053 0.913 . S
C3035 H3011 0.950 . S
C3035 C3034 1.524 1_545 S
C3035 C3036 1.415 . S
C3036 H3012 0.950 . S
C3036 C3031 1.363 . S
C3036 C3035 1.415 . S
C3037 H3013 0.951 . S
C3037 C3038 1.366 . S
C3037 C3039 1.388 . S
C3038 C3037 1.366 . S
C3038 C3042 1.385 . S
C3039 H3014 0.951 . S
C3039 C3037 1.388 . S
C3039 C3040 1.366 . S
C3040 C3039 1.366 . S
C3040 C3041 1.414 . S
C3040 C3043 1.499 . S
C3041 H3015 0.950 . S
C3041 C3040 1.414 . S
C3041 C3042 1.374 . S
C3042 H3016 0.950 . S
C3042 C3038 1.385 . S
C3042 C3041 1.374 . S
C3043 C3040 1.499 . S
C3043 C3044 1.373 . S
C3043 C3045 1.389 . S
C3044 H3017 0.950 . S
C3044 C3030 1.377 . S
C3044 C3043 1.373 . S
C3045 C3029 1.377 . S
C3045 C3043 1.389 . S
C3045 C3046 1.524 . S
C3046 C3045 1.524 . S
C3046 C3047 1.397 . S
C3046 C3051 1.363 . S
C3047 H3018 0.950 . S
C3047 C3046 1.397 . S
C3047 C3048 1.334 . S
C3048 H3019 0.950 . S
C3048 C3047 1.334 . S
C3048 C3049 1.287 . S
C3049 C3048 1.287 . S
C3049 C3050 1.524 . S
C3049 H3052 0.999 . S
C3050 H3020 0.950 . S
C3050 C3049 1.524 . S
C3050 C3051 1.415 . S
C3051 H3021 0.950 . S
C3051 C3046 1.363 . S
C3051 C3050 1.415 . S
H3052 C3049 0.999 . S
H3053 C3034 0.913 . S
H3054 C3072 0.951 . S
H3055 C3074 0.951 . S
H3056 C3076 0.950 . S
H3057 C3077 0.950 . S
H3058 C3079 0.950 . S
H3059 C3082 0.950 . S
H3060 C3083 0.950 . S
H3061 C3085 0.950 . S
H3062 C3086 0.950 . S
H3063 C3087 0.951 . S
H3064 C3089 0.951 . S
H3065 C3091 0.950 . S
H3066 C3092 0.950 . S
H3067 C3094 0.950 . S
H3068 C3097 0.950 . S
H3069 C3098 0.950 . S
H3070 C3100 0.950 . S
H3071 C3101 0.950 . S
C3072 H3054 0.951 . S
C3072 C3073 1.366 . S
C3072 C3074 1.388 . S
C3073 C3072 1.366 . S
C3073 C3077 1.385 . S
C3074 H3055 0.951 . S
C3074 C3072 1.388 . S
C3074 C3075 1.366 . S
C3075 C3074 1.366 . S
C3075 C3076 1.414 . S
C3075 C3078 1.499 . S
C3076 H3056 0.950 . S
C3076 C3075 1.414 . S
C3076 C3077 1.374 . S
C3077 H3057 0.950 . S
C3077 C3073 1.385 . S
C3077 C3076 1.374 . S
C3078 C3075 1.499 . S
C3078 C3079 1.373 . S
C3078 C3080 1.389 . S
C3079 H3058 0.950 . S
C3079 C3078 1.373 . S
C3079 C3095 1.377 . S
C3080 C3078 1.389 . S
C3080 C3081 1.524 . S
C3080 C3094 1.377 . S
C3081 C3080 1.524 . S
C3081 C3082 1.397 . S
C3081 C3086 1.363 . S
C3082 H3059 0.950 . S
C3082 C3081 1.397 . S
C3082 C3083 1.334 . S
C3083 H3060 0.950 . S
C3083 C3082 1.334 . S
C3083 C3084 1.287 . S
C3084 C3083 1.287 . S
C3084 C3085 1.524 . S
C3084 H3103 0.913 . S
C3085 H3061 0.950 . S
C3085 C3084 1.524 . S
C3085 C3086 1.415 . S
C3086 H3062 0.950 . S
C3086 C3081 1.363 . S
C3086 C3085 1.415 . S
C3087 H3063 0.951 . S
C3087 C3088 1.366 . S
C3087 C3089 1.388 . S
C3088 C3087 1.366 . S
C3088 C3092 1.385 . S
C3089 H3064 0.951 . S
C3089 C3087 1.388 . S
C3089 C3090 1.366 . S
C3090 C3089 1.366 . S
C3090 C3091 1.414 . S
C3090 C3093 1.499 . S
C3091 H3065 0.950 . S
C3091 C3090 1.414 . S
C3091 C3092 1.374 . S
C3092 H3066 0.950 . S
C3092 C3088 1.385 . S
C3092 C3091 1.374 . S
C3093 C3090 1.499 . S
C3093 C3094 1.373 . S
C3093 C3095 1.389 . S
C3094 H3067 0.950 . S
C3094 C3080 1.377 . S
C3094 C3093 1.373 . S
C3095 C3079 1.377 . S
C3095 C3093 1.389 . S
C3095 C3096 1.524 . S
C3096 C3095 1.524 . S
C3096 C3097 1.397 . S
C3096 C3101 1.363 . S
C3097 H3068 0.950 . S
C3097 C3096 1.397 . S
C3097 C3098 1.334 . S
C3098 H3069 0.950 . S
C3098 C3097 1.334 . S
C3098 C3099 1.287 . S
C3099 C3098 1.287 . S
C3099 C3100 1.524 . S
C3099 H3102 0.999 . S
C3100 H3070 0.950 . S
C3100 C3099 1.524 . S
C3100 C3101 1.415 . S
C3101 H3071 0.950 . S
C3101 C3096 1.363 . S
C3101 C3100 1.415 . S
H3102 C3099 0.999 . S
H3103 C3084 0.913 . S
H3104 C3122 0.951 . S
H3105 C3124 0.951 . S
H3106 C3126 0.950 . S
H3107 C3127 0.950 . S
H3108 C3129 0.950 . S
H3109 C3132 0.950 . S
H3110 C3133 0.950 . S
H3111 C3135 0.950 . S
H3112 C3136 0.950 . S
H3113 C3137 0.951 . S
H3114 C3139 0.951 . S
H3115 C3141 0.950 . S
H3116 C3142 0.950 . S
H3117 C3144 0.950 . S
H3118 C3147 0.950 . S
H3119 C3148 0.950 . S
H3120 C3150 0.950 . S
H3121 C3151 0.950 . S
C3122 H3104 0.951 . S
C3122 C3123 1.366 . S
C3122 C3124 1.388 . S
C3123 C3122 1.366 . S
C3123 C3127 1.385 . S
C3124 H3105 0.951 . S
C3124 C3122 1.388 . S
C3124 C3125 1.366 . S
C3125 C3124 1.366 . S
C3125 C3126 1.414 . S
C3125 C3128 1.499 . S
C3126 H3106 0.950 . S
C3126 C3125 1.414 . S
C3126 C3127 1.374 . S
C3127 H3107 0.950 . S
C3127 C3123 1.385 . S
C3127 C3126 1.374 . S
C3128 C3125 1.499 . S
C3128 C3129 1.373 . S
C3128 C3130 1.389 . S
C3129 H3108 0.950 . S
C3129 C3128 1.373 . S
C3129 C3145 1.377 . S
C3130 C3128 1.389 . S
C3130 C3131 1.524 . S
C3130 C3144 1.377 . S
C3131 C3130 1.524 . S
C3131 C3132 1.397 . S
C3131 C3136 1.363 . S
C3132 H3109 0.950 . S
C3132 C3131 1.397 . S
C3132 C3133 1.334 . S
C3133 H3110 0.950 . S
C3133 C3132 1.334 . S
C3133 C3134 1.287 . S
C3134 C3133 1.287 . S
C3134 C3135 1.524 . S
C3134 H3153 0.913 . S
C3135 H3111 0.950 . S
C3135 C3134 1.524 . S
C3135 C3136 1.415 . S
C3136 H3112 0.950 . S
C3136 C3131 1.363 . S
C3136 C3135 1.415 . S
C3137 H3113 0.951 . S
C3137 C3138 1.366 . S
C3137 C3139 1.388 . S
C3138 C3137 1.366 . S
C3138 C3142 1.385 . S
C3139 H3114 0.951 . S
C3139 C3137 1.388 . S
C3139 C3140 1.366 . S
C3140 C3139 1.366 . S
C3140 C3141 1.414 . S
C3140 C3143 1.499 . S
C3141 H3115 0.950 . S
C3141 C3140 1.414 . S
C3141 C3142 1.374 . S
C3142 H3116 0.950 . S
C3142 C3138 1.385 . S
C3142 C3141 1.374 . S
C3143 C3140 1.499 . S
C3143 C3144 1.373 . S
C3143 C3145 1.389 . S
C3144 H3117 0.950 . S
C3144 C3130 1.377 . S
C3144 C3143 1.373 . S
C3145 C3129 1.377 . S
C3145 C3143 1.389 . S
C3145 C3146 1.524 . S
C3146 C3145 1.524 . S
C3146 C3147 1.397 . S
C3146 C3151 1.363 . S
C3147 H3118 0.950 . S
C3147 C3146 1.397 . S
C3147 C3148 1.334 . S
C3148 H3119 0.950 . S
C3148 C3147 1.334 . S
C3148 C3149 1.287 . S
C3149 C3148 1.287 . S
C3149 C3150 1.524 . S
C3149 H3152 0.999 . S
C3150 H3120 0.950 . S
C3150 C3149 1.524 . S
C3150 C3151 1.415 . S
C3151 H3121 0.950 . S
C3151 C3146 1.363 . S
C3151 C3150 1.415 . S
H3152 C3149 0.999 . S
H3153 C3134 0.913 . S
H3154 C3172 0.951 . S
H3155 C3174 0.951 . S
H3156 C3176 0.950 . S
H3157 C3177 0.950 . S
H3158 C3179 0.950 . S
H3159 C3182 0.950 . S
H3160 C3183 0.950 . S
H3161 C3185 0.950 . S
H3162 C3186 0.950 . S
H3163 C3187 0.951 . S
H3164 C3189 0.951 . S
H3165 C3191 0.950 . S
H3166 C3192 0.950 . S
H3167 C3194 0.950 . S
H3168 C3197 0.950 . S
H3169 C3198 0.950 . S
H3170 C3200 0.950 . S
H3171 C3201 0.950 . S
C3172 H3154 0.951 . S
C3172 C3173 1.366 . S
C3172 C3174 1.388 . S
C3173 C3172 1.366 . S
C3173 C3177 1.385 . S
C3174 H3155 0.951 . S
C3174 C3172 1.388 . S
C3174 C3175 1.366 . S
C3175 C3174 1.366 . S
C3175 C3176 1.414 . S
C3175 C3178 1.499 . S
C3176 H3156 0.950 . S
C3176 C3175 1.414 . S
C3176 C3177 1.374 . S
C3177 H3157 0.950 . S
C3177 C3173 1.385 . S
C3177 C3176 1.374 . S
C3178 C3175 1.499 . S
C3178 C3179 1.373 . S
C3178 C3180 1.389 . S
C3179 H3158 0.950 . S
C3179 C3178 1.373 . S
C3179 C3195 1.377 . S
C3180 C3178 1.389 . S
C3180 C3181 1.524 . S
C3180 C3194 1.377 . S
C3181 C3180 1.524 . S
C3181 C3182 1.397 . S
C3181 C3186 1.363 . S
C3182 H3159 0.950 . S
C3182 C3181 1.397 . S
C3182 C3183 1.334 . S
C3183 H3160 0.950 . S
C3183 C3182 1.334 . S
C3183 C3184 1.287 . S
C3184 C3183 1.287 . S
C3184 C3185 1.524 . S
C3184 H3203 0.913 . S
C3185 H3161 0.950 . S
C3185 C3184 1.524 . S
C3185 C3186 1.415 . S
C3186 H3162 0.950 . S
C3186 C3181 1.363 . S
C3186 C3185 1.415 . S
C3187 H3163 0.951 . S
C3187 C3188 1.366 . S
C3187 C3189 1.388 . S
C3188 C3187 1.366 . S
C3188 C3192 1.385 . S
C3189 H3164 0.951 . S
C3189 C3187 1.388 . S
C3189 C3190 1.366 . S
C3190 C3189 1.366 . S
C3190 C3191 1.414 . S
C3190 C3193 1.499 . S
C3191 H3165 0.950 . S
C3191 C3190 1.414 . S
C3191 C3192 1.374 . S
C3192 H3166 0.950 . S
C3192 C3188 1.385 . S
C3192 C3191 1.374 . S
C3193 C3190 1.499 . S
C3193 C3194 1.373 . S
C3193 C3195 1.389 . S
C3194 H3167 0.950 . S
C3194 C3180 1.377 . S
C3194 C3193 1.373 . S
C3195 C3179 1.377 . S
C3195 C3193 1.389 . S
C3195 C3196 1.524 . S
C3196 C3195 1.524 . S
C3196 C3197 1.397 . S
C3196 C3201 1.363 . S
C3197 H3168 0.950 . S
C3197 C3196 1.397 . S
C3197 C3198 1.334 . S
C3198 H3169 0.950 . S
C3198 C3197 1.334 . S
C3198 C3199 1.287 . S
C3199 C3198 1.287 . S
C3199 C3200 1.524 . S
C3199 H3202 0.999 . S
C3200 H3170 0.950 . S
C3200 C3199 1.524 . S
C3200 C3201 1.415 . S
C3201 H3171 0.950 . S
C3201 C3196 1.363 . S
C3201 C3200 1.415 . S
H3202 C3199 0.999 . S
H3203 C3184 0.913 . S
H3204 C3222 0.951 . S
H3205 C3224 0.951 . S
H3206 C3226 0.950 . S
H3207 C3227 0.950 . S
H3208 C3229 0.950 . S
H3209 C3232 0.950 . S
H3210 C3233 0.962 . S
H3211 C3235 0.950 . S
H3212 C3236 0.942 . S
H3213 C3237 0.951 . S
H3214 C3239 0.951 . S
H3215 C3241 0.950 . S
H3216 C3242 0.950 . S
H3217 C3244 0.950 . S
H3218 C3247 0.950 . S
H3219 C3248 0.950 . S
H3220 C3250 0.950 . S
H3221 C3251 0.950 . S
C3222 H3204 0.951 . S
C3222 C3223 1.366 . S
C3222 C3224 1.388 . S
C3223 C3222 1.366 . S
C3223 C3227 1.385 . S
C3224 H3205 0.951 . S
C3224 C3222 1.388 . S
C3224 C3225 1.366 . S
C3225 C3224 1.366 . S
C3225 C3226 1.414 . S
C3225 C3228 1.499 . S
C3226 H3206 0.950 . S
C3226 C3225 1.414 . S
C3226 C3227 1.374 . S
C3227 H3207 0.950 . S
C3227 C3223 1.385 . S
C3227 C3226 1.374 . S
C3228 C3225 1.499 . S
C3228 C3229 1.373 . S
C3228 C3230 1.389 . S
C3229 H3208 0.950 . S
C3229 C3228 1.373 . S
C3229 C3245 1.377 . S
C3230 C3228 1.389 . S
C3230 C3231 1.524 . S
C3230 C3244 1.377 . S
C3231 C3230 1.524 . S
C3231 C3232 1.397 . S
C3231 C3236 1.362 . S
C3232 H3209 0.950 . S
C3232 C3231 1.397 . S
C3232 C3233 1.357 . S
C3233 H3210 0.962 . S
C3233 C3232 1.357 . S
C3233 C3234 1.276 1_565 S
C3234 C3233 1.276 1_545 S
C3234 C3235 1.524 . S
C3234 H3253 0.913 . S
C3235 H3211 0.950 . S
C3235 C3234 1.524 . S
C3235 C3236 1.417 1_545 S
C3236 H3212 0.942 . S
C3236 C3231 1.362 . S
C3236 C3235 1.417 1_565 S
C3237 H3213 0.951 . S
C3237 C3238 1.366 . S
C3237 C3239 1.388 . S
C3238 C3237 1.366 . S
C3238 C3242 1.385 . S
C3239 H3214 0.951 . S
C3239 C3237 1.388 . S
C3239 C3240 1.366 . S
C3240 C3239 1.366 . S
C3240 C3241 1.414 . S
C3240 C3243 1.499 . S
C3241 H3215 0.950 . S
C3241 C3240 1.414 . S
C3241 C3242 1.374 . S
C3242 H3216 0.950 . S
C3242 C3238 1.385 . S
C3242 C3241 1.374 . S
C3243 C3240 1.499 . S
C3243 C3244 1.373 . S
C3243 C3245 1.389 . S
C3244 H3217 0.950 . S
C3244 C3230 1.377 . S
C3244 C3243 1.373 . S
C3245 C3229 1.377 . S
C3245 C3243 1.389 . S
C3245 C3246 1.524 . S
C3246 C3245 1.524 . S
C3246 C3247 1.397 . S
C3246 C3251 1.363 . S
C3247 H3218 0.950 . S
C3247 C3246 1.397 . S
C3247 C3248 1.334 . S
C3248 H3219 0.950 . S
C3248 C3247 1.334 . S
C3248 C3249 1.287 . S
C3249 C3248 1.287 . S
C3249 C3250 1.524 . S
C3249 H3252 0.999 . S
C3250 H3220 0.950 . S
C3250 C3249 1.524 . S
C3250 C3251 1.415 . S
C3251 H3221 0.950 . S
C3251 C3246 1.363 . S
C3251 C3250 1.415 . S
H3252 C3249 0.999 . S
H3253 C3234 0.913 . S
H3254 C3272 0.951 . S
H3255 C3274 0.951 . S
H3256 C3276 0.950 . S
H3257 C3277 0.950 . S
H3258 C3279 0.950 . S
H3259 C3282 0.950 . S
H3260 C3283 0.950 . S
H3261 C3285 0.950 . S
H3262 C3286 0.950 . S
H3263 C3287 0.951 . S
H3264 C3289 0.951 . S
H3265 C3291 0.950 . S
H3266 C3292 0.950 . S
H3267 C3294 0.950 . S
H3268 C3297 0.950 . S
H3269 C3298 0.950 . S
H3270 C3300 0.950 . S
H3271 C3301 0.950 . S
C3272 H3254 0.951 . S
C3272 C3273 1.366 . S
C3272 C3274 1.388 . S
C3273 C3272 1.366 . S
C3273 C3277 1.385 . S
C3274 H3255 0.951 . S
C3274 C3272 1.388 . S
C3274 C3275 1.366 . S
C3275 C3274 1.366 . S
C3275 C3276 1.414 . S
C3275 C3278 1.499 . S
C3276 H3256 0.950 . S
C3276 C3275 1.414 . S
C3276 C3277 1.374 . S
C3277 H3257 0.950 . S
C3277 C3273 1.385 . S
C3277 C3276 1.374 . S
C3278 C3275 1.499 . S
C3278 C3279 1.373 . S
C3278 C3280 1.389 . S
C3279 H3258 0.950 . S
C3279 C3278 1.373 . S
C3279 C3295 1.377 . S
C3280 C3278 1.389 . S
C3280 C3281 1.524 . S
C3280 C3294 1.377 . S
C3281 C3280 1.524 . S
C3281 C3282 1.397 . S
C3281 C3286 1.363 . S
C3282 H3259 0.950 . S
C3282 C3281 1.397 . S
C3282 C3283 1.334 1_455 S
C3283 H3260 0.950 . S
C3283 C3282 1.334 1_655 S
C3283 C3284 1.262 . S
C3284 C3283 1.262 . S
C3284 C3285 1.506 1_655 S
C3284 H3303 0.960 . S
C3285 H3261 0.950 . S
C3285 C3284 1.506 1_455 S
C3285 C3286 1.415 . S
C3286 H3262 0.950 . S
C3286 C3281 1.363 . S
C3286 C3285 1.415 . S
C3287 H3263 0.951 . S
C3287 C3288 1.366 . S
C3287 C3289 1.388 . S
C3288 C3287 1.366 . S
C3288 C3292 1.385 . S
C3289 H3264 0.951 . S
C3289 C3287 1.388 . S
C3289 C3290 1.366 . S
C3290 C3289 1.366 . S
C3290 C3291 1.414 . S
C3290 C3293 1.499 . S
C3291 H3265 0.950 . S
C3291 C3290 1.414 . S
C3291 C3292 1.374 . S
C3292 H3266 0.950 . S
C3292 C3288 1.385 . S
C3292 C3291 1.374 . S
C3293 C3290 1.499 . S
C3293 C3294 1.373 . S
C3293 C3295 1.389 . S
C3294 H3267 0.950 . S
C3294 C3280 1.377 . S
C3294 C3293 1.373 . S
C3295 C3279 1.377 . S
C3295 C3293 1.389 . S
C3295 C3296 1.524 . S
C3296 C3295 1.524 . S
C3296 C3297 1.397 . S
C3296 C3301 1.363 . S
C3297 H3268 0.950 . S
C3297 C3296 1.397 . S
C3297 C3298 1.334 . S
C3298 H3269 0.950 . S
C3298 C3297 1.334 . S
C3298 C3299 1.287 . S
C3299 C3298 1.287 . S
C3299 C3300 1.524 . S
C3299 H3302 0.999 . S
C3300 H3270 0.950 . S
C3300 C3299 1.524 . S
C3300 C3301 1.415 . S
C3301 H3271 0.950 . S
C3301 C3296 1.363 . S
C3301 C3300 1.415 . S
H3302 C3299 0.999 . S
H3303 C3284 0.960 . S
H3304 C3322 0.951 . S
H3305 C3324 0.951 . S
H3306 C3326 0.950 . S
H3307 C3327 0.950 . S
H3308 C3329 0.950 . S
H3309 C3332 0.950 . S
H3310 C3333 0.950 . S
H3311 C3335 0.950 . S
H3312 C3336 0.950 . S
H3313 C3337 0.951 . S
H3314 C3339 0.951 . S
H3315 C3341 0.950 . S
H3316 C3342 0.950 . S
H3317 C3344 0.950 . S
H3318 C3347 0.950 . S
H3319 C3348 0.950 . S
H3320 C3350 0.950 . S
H3321 C3351 0.950 . S
C3322 H3304 0.951 . S
C3322 C3323 1.366 . S
C3322 C3324 1.388 . S
C3323 C3322 1.366 . S
C3323 C3327 1.385 . S
C3324 H3305 0.951 . S
C3324 C3322 1.388 . S
C3324 C3325 1.366 . S
C3325 C3324 1.366 . S
C3325 C3326 1.414 . S
C3325 C3328 1.499 . S
C3326 H3306 0.950 . S
C3326 C3325 1.414 . S
C3326 C3327 1.374 . S
C3327 H3307 0.950 . S
C3327 C3323 1.385 . S
C3327 C3326 1.374 . S
C3328 C3325 1.499 . S
C3328 C3329 1.373 . S
C3328 C3330 1.389 . S
C3329 H3308 0.950 . S
C3329 C3328 1.373 . S
C3329 C3345 1.377 . S
C3330 C3328 1.389 . S
C3330 C3331 1.524 . S
C3330 C3344 1.377 . S
C3331 C3330 1.524 . S
C3331 C3332 1.397 . S
C3331 C3336 1.363 . S
C3332 H3309 0.950 . S
C3332 C3331 1.397 . S
C3332 C3333 1.334 . S
C3333 H3310 0.950 . S
C3333 C3332 1.334 . S
C3333 C3334 1.287 . S
C3334 C3333 1.287 . S
C3334 C3335 1.524 . S
C3334 H3353 0.913 . S
C3335 H3311 0.950 . S
C3335 C3334 1.524 . S
C3335 C3336 1.415 . S
C3336 H3312 0.950 . S
C3336 C3331 1.363 . S
C3336 C3335 1.415 . S
C3337 H3313 0.951 . S
C3337 C3338 1.366 . S
C3337 C3339 1.388 . S
C3338 C3337 1.366 . S
C3338 C3342 1.385 . S
C3339 H3314 0.951 . S
C3339 C3337 1.388 . S
C3339 C3340 1.366 . S
C3340 C3339 1.366 . S
C3340 C3341 1.414 . S
C3340 C3343 1.499 . S
C3341 H3315 0.950 . S
C3341 C3340 1.414 . S
C3341 C3342 1.374 . S
C3342 H3316 0.950 . S
C3342 C3338 1.385 . S
C3342 C3341 1.374 . S
C3343 C3340 1.499 . S
C3343 C3344 1.373 . S
C3343 C3345 1.389 . S
C3344 H3317 0.950 . S
C3344 C3330 1.377 . S
C3344 C3343 1.373 . S
C3345 C3329 1.377 . S
C3345 C3343 1.389 . S
C3345 C3346 1.524 . S
C3346 C3345 1.524 . S
C3346 C3347 1.397 . S
C3346 C3351 1.363 . S
C3347 H3318 0.950 . S
C3347 C3346 1.397 . S
C3347 C3348 1.334 . S
C3348 H3319 0.950 . S
C3348 C3347 1.334 . S
C3348 C3349 1.287 . S
C3349 C3348 1.287 . S
C3349 C3350 1.524 . S
C3349 H3352 0.999 . S
C3350 H3320 0.950 . S
C3350 C3349 1.524 . S
C3350 C3351 1.415 . S
C3351 H3321 0.950 . S
C3351 C3346 1.363 . S
C3351 C3350 1.415 . S
H3352 C3349 0.999 . S
H3353 C3334 0.913 . S
H3354 C3372 0.951 . S
H3355 C3374 0.951 . S
H3356 C3376 0.950 . S
H3357 C3377 0.950 . S
H3358 C3379 0.950 . S
H3359 C3382 0.950 . S
H3360 C3383 0.950 . S
H3361 C3385 0.950 . S
H3362 C3386 0.950 . S
H3363 C3387 0.951 . S
H3364 C3389 0.951 . S
H3365 C3391 0.950 . S
H3366 C3392 0.950 1_455 S
H3367 C3394 0.950 . S
H3368 C3397 0.950 . S
H3369 C3398 0.950 1_455 S
H3370 C3400 0.950 . S
H3371 C3401 0.950 . S
C3372 H3354 0.951 . S
C3372 C3373 1.366 . S
C3372 C3374 1.388 . S
C3373 C3372 1.366 . S
C3373 C3377 1.385 . S
C3374 H3355 0.951 . S
C3374 C3372 1.388 . S
C3374 C3375 1.366 . S
C3375 C3374 1.366 . S
C3375 C3376 1.414 . S
C3375 C3378 1.499 . S
C3376 H3356 0.950 . S
C3376 C3375 1.414 . S
C3376 C3377 1.374 . S
C3377 H3357 0.950 . S
C3377 C3373 1.385 . S
C3377 C3376 1.374 . S
C3378 C3375 1.499 . S
C3378 C3379 1.373 . S
C3378 C3380 1.389 . S
C3379 H3358 0.950 . S
C3379 C3378 1.373 . S
C3379 C3395 1.377 . S
C3380 C3378 1.389 . S
C3380 C3381 1.524 . S
C3380 C3394 1.377 . S
C3381 C3380 1.524 . S
C3381 C3382 1.397 . S
C3381 C3386 1.363 . S
C3382 H3359 0.950 . S
C3382 C3381 1.397 . S
C3382 C3383 1.334 . S
C3383 H3360 0.950 . S
C3383 C3382 1.334 . S
C3383 C3384 1.287 . S
C3384 C3383 1.287 . S
C3384 C3385 1.524 . S
C3384 H3403 0.913 . S
C3385 H3361 0.950 . S
C3385 C3384 1.524 . S
C3385 C3386 1.415 . S
C3386 H3362 0.950 . S
C3386 C3381 1.363 . S
C3386 C3385 1.415 . S
C3387 H3363 0.951 . S
C3387 C3388 1.366 . S
C3387 C3389 1.388 . S
C3388 C3387 1.366 . S
C3388 C3392 1.385 . S
C3389 H3364 0.951 . S
C3389 C3387 1.388 . S
C3389 C3390 1.366 . S
C3390 C3389 1.366 . S
C3390 C3391 1.414 . S
C3390 C3393 1.499 . S
C3391 H3365 0.950 . S
C3391 C3390 1.414 . S
C3391 C3392 1.374 . S
C3392 H3366 0.950 1_655 S
C3392 C3388 1.385 . S
C3392 C3391 1.374 . S
C3393 C3390 1.499 . S
C3393 C3394 1.373 . S
C3393 C3395 1.389 . S
C3394 H3367 0.950 . S
C3394 C3380 1.377 . S
C3394 C3393 1.373 . S
C3395 C3379 1.377 . S
C3395 C3393 1.389 . S
C3395 C3396 1.524 . S
C3396 C3395 1.524 . S
C3396 C3397 1.397 . S
C3396 C3401 1.363 . S
C3397 H3368 0.950 . S
C3397 C3396 1.397 . S
C3397 C3398 1.334 . S
C3398 H3369 0.950 1_655 S
C3398 C3397 1.334 . S
C3398 C3399 1.287 . S
C3399 C3398 1.287 . S
C3399 C3400 1.524 . S
C3399 H3402 0.999 . S
C3400 H3370 0.950 . S
C3400 C3399 1.524 . S
C3400 C3401 1.415 . S
C3401 H3371 0.950 . S
C3401 C3396 1.363 . S
C3401 C3400 1.415 . S
H3402 C3399 0.999 . S
H3403 C3384 0.913 . S
H3404 C3422 0.951 . S
H3405 C3424 0.951 . S
H3406 C3426 0.950 . S
H3407 C3427 0.950 . S
H3408 C3429 0.950 . S
H3409 C3432 0.950 . S
H3410 C3433 0.950 . S
H3411 C3435 0.950 . S
H3412 C3436 0.950 . S
H3413 C3437 0.951 . S
H3414 C3439 0.951 . S
H3415 C3441 0.950 . S
H3416 C3442 0.950 . S
H3417 C3444 0.950 . S
H3418 C3447 0.950 . S
H3419 C3448 0.950 . S
H3420 C3450 0.950 . S
H3421 C3451 0.950 . S
C3422 H3404 0.951 . S
C3422 C3423 1.366 . S
C3422 C3424 1.388 . S
C3423 C3422 1.366 . S
C3423 C3427 1.385 . S
C3424 H3405 0.951 . S
C3424 C3422 1.388 . S
C3424 C3425 1.366 . S
C3425 C3424 1.366 . S
C3425 C3426 1.414 . S
C3425 C3428 1.499 . S
C3426 H3406 0.950 . S
C3426 C3425 1.414 . S
C3426 C3427 1.374 . S
C3427 H3407 0.950 . S
C3427 C3423 1.385 . S
C3427 C3426 1.374 . S
C3428 C3425 1.499 . S
C3428 C3429 1.373 . S
C3428 C3430 1.389 . S
C3429 H3408 0.950 . S
C3429 C3428 1.373 . S
C3429 C3445 1.377 . S
C3430 C3428 1.389 . S
C3430 C3431 1.524 . S
C3430 C3444 1.377 . S
C3431 C3430 1.524 . S
C3431 C3432 1.397 . S
C3431 C3436 1.363 . S
C3432 H3409 0.950 . S
C3432 C3431 1.397 . S
C3432 C3433 1.334 . S
C3433 H3410 0.950 . S
C3433 C3432 1.334 . S
C3433 C3434 1.287 . S
C3434 C3433 1.287 . S
C3434 C3435 1.524 . S
C3434 H3453 0.913 . S
C3435 H3411 0.950 . S
C3435 C3434 1.524 . S
C3435 C3436 1.415 . S
C3436 H3412 0.950 . S
C3436 C3431 1.363 . S
C3436 C3435 1.415 . S
C3437 H3413 0.951 . S
C3437 C3438 1.366 . S
C3437 C3439 1.388 . S
C3438 C3437 1.366 . S
C3438 C3442 1.385 . S
C3439 H3414 0.951 . S
C3439 C3437 1.388 . S
C3439 C3440 1.366 . S
C3440 C3439 1.366 . S
C3440 C3441 1.414 . S
C3440 C3443 1.499 . S
C3441 H3415 0.950 . S
C3441 C3440 1.414 . S
C3441 C3442 1.374 . S
C3442 H3416 0.950 . S
C3442 C3438 1.385 . S
C3442 C3441 1.374 . S
C3443 C3440 1.499 . S
C3443 C3444 1.373 . S
C3443 C3445 1.389 . S
C3444 H3417 0.950 . S
C3444 C3430 1.377 . S
C3444 C3443 1.373 . S
C3445 C3429 1.377 . S
C3445 C3443 1.389 . S
C3445 C3446 1.524 . S
C3446 C3445 1.524 . S
C3446 C3447 1.397 . S
C3446 C3451 1.363 . S
C3447 H3418 0.950 . S
C3447 C3446 1.397 . S
C3447 C3448 1.334 . S
C3448 H3419 0.950 . S
C3448 C3447 1.334 . S
C3448 C3449 1.287 . S
C3449 C3448 1.287 . S
C3449 C3450 1.524 . S
C3449 H3452 0.999 . S
C3450 H3420 0.950 . S
C3450 C3449 1.524 . S
C3450 C3451 1.415 . S
C3451 H3421 0.950 . S
C3451 C3446 1.363 . S
C3451 C3450 1.415 . S
H3452 C3449 0.999 . S
H3453 C3434 0.913 . S
H3454 C3472 0.951 . S
H3455 C3474 0.951 . S
H3456 C3476 0.950 . S
H3457 C3477 0.950 . S
H3458 C3479 0.950 . S
H3459 C3482 0.950 . S
H3460 C3483 0.950 . S
H3461 C3485 0.950 . S
H3462 C3486 0.950 . S
H3463 C3487 0.951 . S
H3464 C3489 0.951 . S
H3465 C3491 0.950 . S
H3466 C3492 0.950 . S
H3467 C3494 0.950 . S
H3468 C3497 0.950 . S
H3469 C3498 0.950 . S
H3470 C3500 0.950 . S
H3471 C3501 0.950 . S
C3472 H3454 0.951 . S
C3472 C3473 1.366 . S
C3472 C3474 1.388 . S
C3473 C3472 1.366 . S
C3473 C3477 1.385 . S
C3474 H3455 0.951 . S
C3474 C3472 1.388 . S
C3474 C3475 1.366 . S
C3475 C3474 1.366 . S
C3475 C3476 1.414 . S
C3475 C3478 1.499 . S
C3476 H3456 0.950 . S
C3476 C3475 1.414 . S
C3476 C3477 1.374 . S
C3477 H3457 0.950 . S
C3477 C3473 1.385 . S
C3477 C3476 1.374 . S
C3478 C3475 1.499 . S
C3478 C3479 1.373 . S
C3478 C3480 1.389 . S
C3479 H3458 0.950 . S
C3479 C3478 1.373 . S
C3479 C3495 1.377 . S
C3480 C3478 1.389 . S
C3480 C3481 1.524 . S
C3480 C3494 1.377 . S
C3481 C3480 1.524 . S
C3481 C3482 1.397 . S
C3481 C3486 1.363 . S
C3482 H3459 0.950 . S
C3482 C3481 1.397 . S
C3482 C3483 1.334 . S
C3483 H3460 0.950 . S
C3483 C3482 1.334 . S
C3483 C3484 1.287 . S
C3484 C3483 1.287 . S
C3484 C3485 1.524 . S
C3484 H3503 0.913 . S
C3485 H3461 0.950 . S
C3485 C3484 1.524 . S
C3485 C3486 1.415 . S
C3486 H3462 0.950 . S
C3486 C3481 1.363 . S
C3486 C3485 1.415 . S
C3487 H3463 0.951 . S
C3487 C3488 1.366 . S
C3487 C3489 1.388 . S
C3488 C3487 1.366 . S
C3488 C3492 1.385 . S
C3489 H3464 0.951 . S
C3489 C3487 1.388 . S
C3489 C3490 1.366 . S
C3490 C3489 1.366 . S
C3490 C3491 1.414 . S
C3490 C3493 1.499 . S
C3491 H3465 0.950 . S
C3491 C3490 1.414 . S
C3491 C3492 1.374 . S
C3492 H3466 0.950 . S
C3492 C3488 1.385 . S
C3492 C3491 1.374 . S
C3493 C3490 1.499 . S
C3493 C3494 1.373 . S
C3493 C3495 1.389 . S
C3494 H3467 0.950 . S
C3494 C3480 1.377 . S
C3494 C3493 1.373 . S
C3495 C3479 1.377 . S
C3495 C3493 1.389 . S
C3495 C3496 1.524 . S
C3496 C3495 1.524 . S
C3496 C3497 1.397 . S
C3496 C3501 1.363 . S
C3497 H3468 0.950 . S
C3497 C3496 1.397 . S
C3497 C3498 1.334 . S
C3498 H3469 0.950 . S
C3498 C3497 1.334 . S
C3498 C3499 1.287 . S
C3499 C3498 1.287 . S
C3499 C3500 1.524 . S
C3499 H3502 0.999 . S
C3500 H3470 0.950 . S
C3500 C3499 1.524 . S
C3500 C3501 1.415 . S
C3501 H3471 0.950 . S
C3501 C3496 1.363 . S
C3501 C3500 1.415 . S
H3502 C3499 0.999 . S
H3503 C3484 0.913 . S
H3504 C3522 0.951 . S
H3505 C3524 0.951 . S
H3506 C3526 0.950 . S
H3507 C3527 0.950 . S
H3508 C3529 0.950 . S
H3509 C3532 0.950 . S
H3510 C3533 0.950 . S
H3511 C3535 0.950 . S
H3512 C3536 0.950 . S
H3513 C3537 0.951 . S
H3514 C3539 0.951 . S
H3515 C3541 0.950 . S
H3516 C3542 0.950 . S
H3517 C3544 0.950 . S
H3518 C3547 0.950 . S
H3519 C3548 0.950 . S
H3520 C3550 0.950 . S
H3521 C3551 0.950 . S
C3522 H3504 0.951 . S
C3522 C3523 1.366 . S
C3522 C3524 1.388 . S
C3523 C3522 1.366 . S
C3523 C3527 1.385 . S
C3524 H3505 0.951 . S
C3524 C3522 1.388 . S
C3524 C3525 1.366 . S
C3525 C3524 1.366 . S
C3525 C3526 1.414 . S
C3525 C3528 1.499 . S
C3526 H3506 0.950 . S
C3526 C3525 1.414 . S
C3526 C3527 1.374 . S
C3527 H3507 0.950 . S
C3527 C3523 1.385 . S
C3527 C3526 1.374 . S
C3528 C3525 1.499 . S
C3528 C3529 1.373 . S
C3528 C3530 1.389 . S
C3529 H3508 0.950 . S
C3529 C3528 1.373 . S
C3529 C3545 1.377 . S
C3530 C3528 1.389 . S
C3530 C3531 1.524 . S
C3530 C3544 1.377 . S
C3531 C3530 1.524 . S
C3531 C3532 1.397 . S
C3531 C3536 1.363 . S
C3532 H3509 0.950 . S
C3532 C3531 1.397 . S
C3532 C3533 1.334 . S
C3533 H3510 0.950 . S
C3533 C3532 1.334 . S
C3533 C3534 1.287 . S
C3534 C3533 1.287 . S
C3534 C3535 1.524 . S
C3534 H3553 0.913 . S
C3535 H3511 0.950 . S
C3535 C3534 1.524 . S
C3535 C3536 1.415 . S
C3536 H3512 0.950 . S
C3536 C3531 1.363 . S
C3536 C3535 1.415 . S
C3537 H3513 0.951 . S
C3537 C3538 1.366 . S
C3537 C3539 1.388 . S
C3538 C3537 1.366 . S
C3538 C3542 1.385 . S
C3539 H3514 0.951 . S
C3539 C3537 1.388 . S
C3539 C3540 1.366 . S
C3540 C3539 1.366 . S
C3540 C3541 1.414 . S
C3540 C3543 1.499 . S
C3541 H3515 0.950 . S
C3541 C3540 1.414 . S
C3541 C3542 1.374 . S
C3542 H3516 0.950 . S
C3542 C3538 1.385 . S
C3542 C3541 1.374 . S
C3543 C3540 1.499 . S
C3543 C3544 1.373 . S
C3543 C3545 1.389 . S
C3544 H3517 0.950 . S
C3544 C3530 1.377 . S
C3544 C3543 1.373 . S
C3545 C3529 1.377 . S
C3545 C3543 1.389 . S
C3545 C3546 1.524 . S
C3546 C3545 1.524 . S
C3546 C3547 1.397 . S
C3546 C3551 1.363 . S
C3547 H3518 0.950 . S
C3547 C3546 1.397 . S
C3547 C3548 1.334 . S
C3548 H3519 0.950 . S
C3548 C3547 1.334 . S
C3548 C3549 1.287 . S
C3549 C3548 1.287 . S
C3549 C3550 1.524 . S
C3549 H3552 0.999 . S
C3550 H3520 0.950 . S
C3550 C3549 1.524 . S
C3550 C3551 1.415 . S
C3551 H3521 0.950 . S
C3551 C3546 1.363 . S
C3551 C3550 1.415 . S
H3552 C3549 0.999 . S
H3553 C3534 0.913 . S
H3554 C3572 0.951 . S
H3555 C3574 0.951 . S
H3556 C3576 0.950 . S
H3557 C3577 0.950 . S
H3558 C3579 0.950 . S
H3559 C3582 0.950 . S
H3560 C3583 0.950 . S
H3561 C3585 0.950 . S
H3562 C3586 0.950 . S
H3563 C3587 0.951 . S
H3564 C3589 0.951 . S
H3565 C3591 0.950 . S
H3566 C3592 0.950 . S
H3567 C3594 0.950 . S
H3568 C3597 0.950 . S
H3569 C3598 0.950 . S
H3570 C3600 0.950 . S
H3571 C3601 0.950 . S
C3572 H3554 0.951 . S
C3572 C3573 1.366 . S
C3572 C3574 1.388 . S
C3573 C3572 1.366 . S
C3573 C3577 1.385 . S
C3574 H3555 0.951 . S
C3574 C3572 1.388 . S
C3574 C3575 1.366 . S
C3575 C3574 1.366 . S
C3575 C3576 1.414 . S
C3575 C3578 1.499 . S
C3576 H3556 0.950 . S
C3576 C3575 1.414 . S
C3576 C3577 1.374 . S
C3577 H3557 0.950 . S
C3577 C3573 1.385 . S
C3577 C3576 1.374 . S
C3578 C3575 1.499 . S
C3578 C3579 1.373 . S
C3578 C3580 1.389 . S
C3579 H3558 0.950 . S
C3579 C3578 1.373 . S
C3579 C3595 1.377 . S
C3580 C3578 1.389 . S
C3580 C3581 1.524 . S
C3580 C3594 1.377 . S
C3581 C3580 1.524 . S
C3581 C3582 1.397 . S
C3581 C3586 1.363 . S
C3582 H3559 0.950 . S
C3582 C3581 1.397 . S
C3582 C3583 1.334 . S
C3583 H3560 0.950 . S
C3583 C3582 1.334 . S
C3583 C3584 1.287 . S
C3584 C3583 1.287 . S
C3584 C3585 1.524 . S
C3584 H3603 0.913 . S
C3585 H3561 0.950 . S
C3585 C3584 1.524 . S
C3585 C3586 1.415 . S
C3586 H3562 0.950 . S
C3586 C3581 1.363 . S
C3586 C3585 1.415 . S
C3587 H3563 0.951 . S
C3587 C3588 1.366 . S
C3587 C3589 1.388 . S
C3588 C3587 1.366 . S
C3588 C3592 1.385 . S
C3589 H3564 0.951 . S
C3589 C3587 1.388 . S
C3589 C3590 1.366 . S
C3590 C3589 1.366 . S
C3590 C3591 1.414 . S
C3590 C3593 1.499 . S
C3591 H3565 0.950 . S
C3591 C3590 1.414 . S
C3591 C3592 1.374 . S
C3592 H3566 0.950 . S
C3592 C3588 1.385 . S
C3592 C3591 1.374 . S
C3593 C3590 1.499 . S
C3593 C3594 1.373 . S
C3593 C3595 1.389 . S
C3594 H3567 0.950 . S
C3594 C3580 1.377 . S
C3594 C3593 1.373 . S
C3595 C3579 1.377 . S
C3595 C3593 1.389 . S
C3595 C3596 1.524 . S
C3596 C3595 1.524 . S
C3596 C3597 1.397 . S
C3596 C3601 1.363 . S
C3597 H3568 0.950 . S
C3597 C3596 1.397 . S
C3597 C3598 1.334 . S
C3598 H3569 0.950 . S
C3598 C3597 1.334 . S
C3598 C3599 1.287 . S
C3599 C3598 1.287 . S
C3599 C3600 1.524 . S
C3599 H3602 0.999 . S
C3600 H3570 0.950 . S
C3600 C3599 1.524 . S
C3600 C3601 1.415 . S
C3601 H3571 0.950 . S
C3601 C3596 1.363 . S
C3601 C3600 1.415 . S
H3602 C3599 0.999 . S
H3603 C3584 0.913 . S
H3604 C3622 0.951 . S
H3605 C3624 0.951 . S
H3606 C3626 0.950 . S
H3607 C3627 0.950 . S
H3608 C3629 0.950 . S
H3609 C3632 0.950 . S
H3610 C3633 0.950 . S
H3611 C3635 0.950 . S
H3612 C3636 0.950 . S
H3613 C3637 0.951 . S
H3614 C3639 0.951 . S
H3615 C3641 0.950 . S
H3616 C3642 0.950 . S
H3617 C3644 0.950 . S
H3618 C3647 0.950 . S
H3619 C3648 0.950 . S
H3620 C3650 0.950 . S
H3621 C3651 0.950 . S
C3622 H3604 0.951 . S
C3622 C3623 1.366 . S
C3622 C3624 1.388 . S
C3623 C3622 1.366 . S
C3623 C3627 1.385 . S
C3624 H3605 0.951 . S
C3624 C3622 1.388 . S
C3624 C3625 1.366 . S
C3625 C3624 1.366 . S
C3625 C3626 1.414 . S
C3625 C3628 1.499 . S
C3626 H3606 0.950 . S
C3626 C3625 1.414 . S
C3626 C3627 1.374 . S
C3627 H3607 0.950 . S
C3627 C3623 1.385 . S
C3627 C3626 1.374 . S
C3628 C3625 1.499 . S
C3628 C3629 1.373 . S
C3628 C3630 1.389 . S
C3629 H3608 0.950 . S
C3629 C3628 1.373 . S
C3629 C3645 1.377 . S
C3630 C3628 1.389 . S
C3630 C3631 1.524 . S
C3630 C3644 1.377 . S
C3631 C3630 1.524 . S
C3631 C3632 1.397 . S
C3631 C3636 1.363 . S
C3632 H3609 0.950 . S
C3632 C3631 1.397 . S
C3632 C3633 1.334 . S
C3633 H3610 0.950 . S
C3633 C3632 1.334 . S
C3633 C3634 1.287 . S
C3634 C3633 1.287 . S
C3634 C3635 1.524 . S
C3634 H3653 0.913 . S
C3635 H3611 0.950 . S
C3635 C3634 1.524 . S
C3635 C3636 1.415 . S
C3636 H3612 0.950 . S
C3636 C3631 1.363 . S
C3636 C3635 1.415 . S
C3637 H3613 0.951 . S
C3637 C3638 1.366 . S
C3637 C3639 1.388 . S
C3638 C3637 1.366 . S
C3638 C3642 1.385 . S
C3639 H3614 0.951 . S
C3639 C3637 1.388 . S
C3639 C3640 1.366 . S
C3640 C3639 1.366 . S
C3640 C3641 1.414 . S
C3640 C3643 1.499 . S
C3641 H3615 0.950 . S
C3641 C3640 1.414 . S
C3641 C3642 1.374 . S
C3642 H3616 0.950 . S
C3642 C3638 1.385 . S
C3642 C3641 1.374 . S
C3643 C3640 1.499 . S
C3643 C3644 1.373 . S
C3643 C3645 1.389 . S
C3644 H3617 0.950 . S
C3644 C3630 1.377 . S
C3644 C3643 1.373 . S
C3645 C3629 1.377 . S
C3645 C3643 1.389 . S
C3645 C3646 1.524 . S
C3646 C3645 1.524 . S
C3646 C3647 1.397 . S
C3646 C3651 1.363 . S
C3647 H3618 0.950 . S
C3647 C3646 1.397 . S
C3647 C3648 1.334 . S
C3648 H3619 0.950 . S
C3648 C3647 1.334 . S
C3648 C3649 1.287 . S
C3649 C3648 1.287 . S
C3649 C3650 1.524 . S
C3649 H3652 0.999 . S
C3650 H3620 0.950 . S
C3650 C3649 1.524 . S
C3650 C3651 1.415 . S
C3651 H3621 0.950 . S
C3651 C3646 1.363 . S
C3651 C3650 1.415 . S
H3652 C3649 0.999 . S
H3653 C3634 0.913 . S
H3654 C3672 0.951 . S
H3655 C3674 0.951 . S
H3656 C3676 0.950 . S
H3657 C3677 0.950 . S
H3658 C3679 0.950 . S
H3659 C3682 0.950 . S
H3660 C3683 0.950 . S
H3661 C3685 0.950 . S
H3662 C3686 0.950 . S
H3663 C3687 0.951 . S
H3664 C3689 0.951 . S
H3665 C3691 0.950 . S
H3666 C3692 0.950 . S
H3667 C3694 0.950 . S
H3668 C3697 0.950 . S
H3669 C3698 0.950 . S
H3670 C3700 0.950 . S
H3671 C3701 0.950 . S
C3672 H3654 0.951 . S
C3672 C3673 1.366 . S
C3672 C3674 1.388 . S
C3673 C3672 1.366 . S
C3673 C3677 1.385 . S
C3674 H3655 0.951 . S
C3674 C3672 1.388 . S
C3674 C3675 1.366 . S
C3675 C3674 1.366 . S
C3675 C3676 1.414 . S
C3675 C3678 1.499 . S
C3676 H3656 0.950 . S
C3676 C3675 1.414 . S
C3676 C3677 1.374 . S
C3677 H3657 0.950 . S
C3677 C3673 1.385 . S
C3677 C3676 1.374 . S
C3678 C3675 1.499 . S
C3678 C3679 1.373 . S
C3678 C3680 1.389 . S
C3679 H3658 0.950 . S
C3679 C3678 1.373 . S
C3679 C3695 1.377 . S
C3680 C3678 1.389 . S
C3680 C3681 1.524 . S
C3680 C3694 1.377 . S
C3681 C3680 1.524 . S
C3681 C3682 1.397 . S
C3681 C3686 1.363 . S
C3682 H3659 0.950 . S
C3682 C3681 1.397 . S
C3682 C3683 1.334 . S
C3683 H3660 0.950 . S
C3683 C3682 1.334 . S
C3683 C3684 1.287 . S
C3684 C3683 1.287 . S
C3684 C3685 1.524 . S
C3684 H3703 0.913 . S
C3685 H3661 0.950 . S
C3685 C3684 1.524 . S
C3685 C3686 1.415 . S
C3686 H3662 0.950 . S
C3686 C3681 1.363 . S
C3686 C3685 1.415 . S
C3687 H3663 0.951 . S
C3687 C3688 1.366 . S
C3687 C3689 1.388 . S
C3688 C3687 1.366 . S
C3688 C3692 1.385 . S
C3689 H3664 0.951 . S
C3689 C3687 1.388 . S
C3689 C3690 1.366 . S
C3690 C3689 1.366 . S
C3690 C3691 1.414 . S
C3690 C3693 1.499 . S
C3691 H3665 0.950 . S
C3691 C3690 1.414 . S
C3691 C3692 1.374 . S
C3692 H3666 0.950 . S
C3692 C3688 1.385 . S
C3692 C3691 1.374 . S
C3693 C3690 1.499 . S
C3693 C3694 1.373 . S
C3693 C3695 1.389 . S
C3694 H3667 0.950 . S
C3694 C3680 1.377 . S
C3694 C3693 1.373 . S
C3695 C3679 1.377 . S
C3695 C3693 1.389 . S
C3695 C3696 1.524 . S
C3696 C3695 1.524 . S
C3696 C3697 1.397 . S
C3696 C3701 1.363 . S
C3697 H3668 0.950 . S
C3697 C3696 1.397 . S
C3697 C3698 1.334 . S
C3698 H3669 0.950 . S
C3698 C3697 1.334 . S
C3698 C3699 1.287 . S
C3699 C3698 1.287 . S
C3699 C3700 1.524 . S
C3699 H3702 0.999 . S
C3700 H3670 0.950 . S
C3700 C3699 1.524 . S
C3700 C3701 1.415 . S
C3701 H3671 0.950 . S
C3701 C3696 1.363 . S
C3701 C3700 1.415 . S
H3702 C3699 0.999 . S
H3703 C3684 0.913 . S
H3704 C3722 0.951 . S
H3705 C3724 0.951 . S
H3706 C3726 0.950 . S
H3707 C3727 0.950 . S
H3708 C3729 0.950 . S
H3709 C3732 0.950 . S
H3710 C3733 0.950 . S
H3711 C3735 0.950 . S
H3712 C3736 0.950 . S
H3713 C3737 0.951 . S
H3714 C3739 0.951 . S
H3715 C3741 0.950 . S
H3716 C3742 0.950 . S
H3717 C3744 0.950 . S
H3718 C3747 0.950 . S
H3719 C3748 0.950 . S
H3720 C3750 0.950 . S
H3721 C3751 0.950 . S
C3722 H3704 0.951 . S
C3722 C3723 1.366 . S
C3722 C3724 1.388 . S
C3723 C3722 1.366 . S
C3723 C3727 1.385 . S
C3724 H3705 0.951 . S
C3724 C3722 1.388 . S
C3724 C3725 1.366 . S
C3725 C3724 1.366 . S
C3725 C3726 1.414 . S
C3725 C3728 1.499 . S
C3726 H3706 0.950 . S
C3726 C3725 1.414 . S
C3726 C3727 1.374 . S
C3727 H3707 0.950 . S
C3727 C3723 1.385 . S
C3727 C3726 1.374 . S
C3728 C3725 1.499 . S
C3728 C3729 1.373 . S
C3728 C3730 1.389 . S
C3729 H3708 0.950 . S
C3729 C3728 1.373 . S
C3729 C3745 1.377 . S
C3730 C3728 1.389 . S
C3730 C3731 1.524 . S
C3730 C3744 1.377 . S
C3731 C3730 1.524 . S
C3731 C3732 1.397 . S
C3731 C3736 1.363 . S
C3732 H3709 0.950 . S
C3732 C3731 1.397 . S
C3732 C3733 1.334 . S
C3733 H3710 0.950 . S
C3733 C3732 1.334 . S
C3733 C3734 1.287 . S
C3734 C3733 1.287 . S
C3734 C3735 1.524 . S
C3734 H3753 0.913 . S
C3735 H3711 0.950 . S
C3735 C3734 1.524 . S
C3735 C3736 1.415 . S
C3736 H3712 0.950 . S
C3736 C3731 1.363 . S
C3736 C3735 1.415 . S
C3737 H3713 0.951 . S
C3737 C3738 1.366 . S
C3737 C3739 1.388 . S
C3738 C3737 1.366 . S
C3738 C3742 1.385 . S
C3739 H3714 0.951 . S
C3739 C3737 1.388 . S
C3739 C3740 1.366 . S
C3740 C3739 1.366 . S
C3740 C3741 1.414 . S
C3740 C3743 1.499 . S
C3741 H3715 0.950 . S
C3741 C3740 1.414 . S
C3741 C3742 1.374 . S
C3742 H3716 0.950 . S
C3742 C3738 1.385 . S
C3742 C3741 1.374 . S
C3743 C3740 1.499 . S
C3743 C3744 1.373 . S
C3743 C3745 1.389 . S
C3744 H3717 0.950 . S
C3744 C3730 1.377 . S
C3744 C3743 1.373 . S
C3745 C3729 1.377 . S
C3745 C3743 1.389 . S
C3745 C3746 1.524 . S
C3746 C3745 1.524 . S
C3746 C3747 1.397 . S
C3746 C3751 1.363 . S
C3747 H3718 0.950 . S
C3747 C3746 1.397 . S
C3747 C3748 1.334 . S
C3748 H3719 0.950 . S
C3748 C3747 1.334 . S
C3748 C3749 1.287 . S
C3749 C3748 1.287 . S
C3749 C3750 1.524 . S
C3749 H3752 0.999 . S
C3750 H3720 0.950 . S
C3750 C3749 1.524 . S
C3750 C3751 1.415 . S
C3751 H3721 0.950 . S
C3751 C3746 1.363 . S
C3751 C3750 1.415 . S
H3752 C3749 0.999 . S
H3753 C3734 0.913 . S
H3754 C3772 0.951 . S
H3755 C3774 0.951 . S
H3756 C3776 0.950 . S
H3757 C3777 0.950 . S
H3758 C3779 0.950 . S
H3759 C3782 0.950 . S
H3760 C3783 0.950 . S
H3761 C3785 0.950 . S
H3762 C3786 0.950 . S
H3763 C3787 0.951 . S
H3764 C3789 0.951 . S
H3765 C3791 0.950 . S
H3766 C3792 0.950 . S
H3767 C3794 0.950 . S
H3768 C3797 0.950 . S
H3769 C3798 0.950 . S
H3770 C3800 0.950 . S
H3771 C3801 0.950 . S
C3772 H3754 0.951 . S
C3772 C3773 1.366 . S
C3772 C3774 1.388 . S
C3773 C3772 1.366 . S
C3773 C3777 1.385 . S
C3774 H3755 0.951 . S
C3774 C3772 1.388 . S
C3774 C3775 1.366 . S
C3775 C3774 1.366 . S
C3775 C3776 1.414 . S
C3775 C3778 1.499 . S
C3776 H3756 0.950 . S
C3776 C3775 1.414 . S
C3776 C3777 1.374 . S
C3777 H3757 0.950 . S
C3777 C3773 1.385 . S
C3777 C3776 1.374 . S
C3778 C3775 1.499 . S
C3778 C3779 1.373 . S
C3778 C3780 1.389 . S
C3779 H3758 0.950 . S
C3779 C3778 1.373 . S
C3779 C3795 1.377 . S
C3780 C3778 1.389 . S
C3780 C3781 1.524 . S
C3780 C3794 1.377 . S
C3781 C3780 1.524 . S
C3781 C3782 1.397 . S
C3781 C3786 1.363 . S
C3782 H3759 0.950 . S
C3782 C3781 1.397 . S
C3782 C3783 1.334 . S
C3783 H3760 0.950 . S
C3783 C3782 1.334 . S
C3783 C3784 1.287 . S
C3784 C3783 1.287 . S
C3784 C3785 1.524 . S
C3784 H3803 0.913 . S
C3785 H3761 0.950 . S
C3785 C3784 1.524 . S
C3785 C3786 1.415 . S
C3786 H3762 0.950 . S
C3786 C3781 1.363 . S
C3786 C3785 1.415 . S
C3787 H3763 0.951 . S
C3787 C3788 1.366 . S
C3787 C3789 1.388 . S
C3788 C3787 1.366 . S
C3788 C3792 1.385 . S
C3789 H3764 0.951 . S
C3789 C3787 1.388 . S
C3789 C3790 1.366 . S
C3790 C3789 1.366 . S
C3790 C3791 1.414 . S
C3790 C3793 1.499 . S
C3791 H3765 0.950 . S
C3791 C3790 1.414 . S
C3791 C3792 1.374 . S
C3792 H3766 0.950 . S
C3792 C3788 1.385 . S
C3792 C3791 1.374 . S
C3793 C3790 1.499 . S
C3793 C3794 1.373 . S
C3793 C3795 1.389 . S
C3794 H3767 0.950 . S
C3794 C3780 1.377 . S
C3794 C3793 1.373 . S
C3795 C3779 1.377 . S
C3795 C3793 1.389 . S
C3795 C3796 1.524 . S
C3796 C3795 1.524 . S
C3796 C3797 1.397 . S
C3796 C3801 1.363 . S
C3797 H3768 0.950 . S
C3797 C3796 1.397 . S
C3797 C3798 1.334 . S
C3798 H3769 0.950 . S
C3798 C3797 1.334 . S
C3798 C3799 1.287 . S
C3799 C3798 1.287 . S
C3799 C3800 1.524 . S
C3799 H3802 0.999 . S
C3800 H3770 0.950 . S
C3800 C3799 1.524 . S
C3800 C3801 1.415 . S
C3801 H3771 0.950 . S
C3801 C3796 1.363 . S
C3801 C3800 1.415 . S
H3802 C3799 0.999 . S
H3803 C3784 0.913 . S
H3804 C3822 0.951 . S
H3805 C3824 0.951 . S
H3806 C3826 0.950 . S
H3807 C3827 0.950 . S
H3808 C3829 0.950 . S
H3809 C3832 0.950 . S
H3810 C3833 0.950 . S
H3811 C3835 0.950 . S
H3812 C3836 0.950 . S
H3813 C3837 0.951 . S
H3814 C3839 0.951 . S
H3815 C3841 0.950 . S
H3816 C3842 0.950 . S
H3817 C3844 0.950 . S
H3818 C3847 0.950 . S
H3819 C3848 0.950 . S
H3820 C3850 0.950 . S
H3821 C3851 0.950 . S
C3822 H3804 0.951 . S
C3822 C3823 1.366 . S
C3822 C3824 1.388 . S
C3823 C3822 1.366 . S
C3823 C3827 1.385 . S
C3824 H3805 0.951 . S
C3824 C3822 1.388 . S
C3824 C3825 1.366 . S
C3825 C3824 1.366 . S
C3825 C3826 1.414 . S
C3825 C3828 1.499 . S
C3826 H3806 0.950 . S
C3826 C3825 1.414 . S
C3826 C3827 1.374 . S
C3827 H3807 0.950 . S
C3827 C3823 1.385 . S
C3827 C3826 1.374 . S
C3828 C3825 1.499 . S
C3828 C3829 1.373 . S
C3828 C3830 1.389 . S
C3829 H3808 0.950 . S
C3829 C3828 1.373 . S
C3829 C3845 1.377 . S
C3830 C3828 1.389 . S
C3830 C3831 1.524 . S
C3830 C3844 1.377 . S
C3831 C3830 1.524 . S
C3831 C3832 1.397 . S
C3831 C3836 1.363 . S
C3832 H3809 0.950 . S
C3832 C3831 1.397 . S
C3832 C3833 1.334 . S
C3833 H3810 0.950 . S
C3833 C3832 1.334 . S
C3833 C3834 1.287 . S
C3834 C3833 1.287 . S
C3834 C3835 1.524 . S
C3834 H3853 0.913 . S
C3835 H3811 0.950 . S
C3835 C3834 1.524 . S
C3835 C3836 1.415 . S
C3836 H3812 0.950 . S
C3836 C3831 1.363 . S
C3836 C3835 1.415 . S
C3837 H3813 0.951 . S
C3837 C3838 1.366 . S
C3837 C3839 1.388 . S
C3838 C3837 1.366 . S
C3838 C3842 1.385 . S
C3839 H3814 0.951 . S
C3839 C3837 1.388 . S
C3839 C3840 1.366 . S
C3840 C3839 1.366 . S
C3840 C3841 1.414 . S
C3840 C3843 1.499 . S
C3841 H3815 0.950 . S
C3841 C3840 1.414 . S
C3841 C3842 1.374 . S
C3842 H3816 0.950 . S
C3842 C3838 1.385 . S
C3842 C3841 1.374 . S
C3843 C3840 1.499 . S
C3843 C3844 1.373 . S
C3843 C3845 1.389 . S
C3844 H3817 0.950 . S
C3844 C3830 1.377 . S
C3844 C3843 1.373 . S
C3845 C3829 1.377 . S
C3845 C3843 1.389 . S
C3845 C3846 1.524 . S
C3846 C3845 1.524 . S
C3846 C3847 1.397 . S
C3846 C3851 1.363 . S
C3847 H3818 0.950 . S
C3847 C3846 1.397 . S
C3847 C3848 1.334 . S
C3848 H3819 0.950 . S
C3848 C3847 1.334 . S
C3848 C3849 1.287 . S
C3849 C3848 1.287 . S
C3849 C3850 1.524 . S
C3849 H3852 0.999 . S
C3850 H3820 0.950 . S
C3850 C3849 1.524 . S
C3850 C3851 1.415 . S
C3851 H3821 0.950 . S
C3851 C3846 1.363 . S
C3851 C3850 1.415 . S
H3852 C3849 0.999 . S
H3853 C3834 0.913 . S
H3854 C3872 0.951 . S
H3855 C3874 0.951 . S
H3856 C3876 0.950 . S
H3857 C3877 0.950 . S
H3858 C3879 0.950 . S
H3859 C3882 0.950 . S
H3860 C3883 0.950 . S
H3861 C3885 0.950 . S
H3862 C3886 0.950 . S
H3863 C3887 0.951 . S
H3864 C3889 0.951 . S
H3865 C3891 0.950 . S
H3866 C3892 0.950 . S
H3867 C3894 0.950 . S
H3868 C3897 0.950 . S
H3869 C3898 0.950 . S
H3870 C3900 0.950 . S
H3871 C3901 0.950 . S
C3872 H3854 0.951 . S
C3872 C3873 1.366 . S
C3872 C3874 1.388 . S
C3873 C3872 1.366 . S
C3873 C3877 1.385 . S
C3874 H3855 0.951 . S
C3874 C3872 1.388 . S
C3874 C3875 1.366 . S
C3875 C3874 1.366 . S
C3875 C3876 1.414 . S
C3875 C3878 1.499 . S
C3876 H3856 0.950 . S
C3876 C3875 1.414 . S
C3876 C3877 1.374 . S
C3877 H3857 0.950 . S
C3877 C3873 1.385 . S
C3877 C3876 1.374 . S
C3878 C3875 1.499 . S
C3878 C3879 1.373 . S
C3878 C3880 1.389 . S
C3879 H3858 0.950 . S
C3879 C3878 1.373 . S
C3879 C3895 1.377 . S
C3880 C3878 1.389 . S
C3880 C3881 1.524 . S
C3880 C3894 1.377 . S
C3881 C3880 1.524 . S
C3881 C3882 1.397 . S
C3881 C3886 1.363 . S
C3882 H3859 0.950 . S
C3882 C3881 1.397 . S
C3882 C3883 1.334 . S
C3883 H3860 0.950 . S
C3883 C3882 1.334 . S
C3883 C3884 1.287 . S
C3884 C3883 1.287 . S
C3884 C3885 1.524 . S
C3884 H3903 0.913 . S
C3885 H3861 0.950 . S
C3885 C3884 1.524 . S
C3885 C3886 1.415 . S
C3886 H3862 0.950 . S
C3886 C3881 1.363 . S
C3886 C3885 1.415 . S
C3887 H3863 0.951 . S
C3887 C3888 1.366 . S
C3887 C3889 1.388 . S
C3888 C3887 1.366 . S
C3888 C3892 1.385 . S
C3889 H3864 0.951 . S
C3889 C3887 1.388 . S
C3889 C3890 1.366 . S
C3890 C3889 1.366 . S
C3890 C3891 1.414 . S
C3890 C3893 1.499 . S
C3891 H3865 0.950 . S
C3891 C3890 1.414 . S
C3891 C3892 1.374 . S
C3892 H3866 0.950 . S
C3892 C3888 1.385 . S
C3892 C3891 1.374 . S
C3893 C3890 1.499 . S
C3893 C3894 1.373 . S
C3893 C3895 1.389 . S
C3894 H3867 0.950 . S
C3894 C3880 1.377 . S
C3894 C3893 1.373 . S
C3895 C3879 1.377 . S
C3895 C3893 1.389 . S
C3895 C3896 1.524 . S
C3896 C3895 1.524 . S
C3896 C3897 1.397 . S
C3896 C3901 1.363 . S
C3897 H3868 0.950 . S
C3897 C3896 1.397 . S
C3897 C3898 1.334 . S
C3898 H3869 0.950 . S
C3898 C3897 1.334 . S
C3898 C3899 1.287 . S
C3899 C3898 1.287 . S
C3899 C3900 1.524 . S
C3899 H3902 0.999 . S
C3900 H3870 0.950 . S
C3900 C3899 1.524 . S
C3900 C3901 1.415 . S
C3901 H3871 0.950 . S
C3901 C3896 1.363 . S
C3901 C3900 1.415 . S
H3902 C3899 0.999 . S
H3903 C3884 0.913 . S
H3904 C3922 0.951 . S
H3905 C3924 0.951 . S
H3906 C3926 0.950 . S
H3907 C3927 0.950 . S
H3908 C3929 0.950 . S
H3909 C3932 0.950 . S
H3910 C3933 0.950 . S
H3911 C3935 0.950 . S
H3912 C3936 0.950 . S
H3913 C3937 0.951 . S
H3914 C3939 0.951 . S
H3915 C3941 0.950 . S
H3916 C3942 0.950 . S
H3917 C3944 0.950 . S
H3918 C3947 0.950 . S
H3919 C3948 0.950 . S
H3920 C3950 0.950 . S
H3921 C3951 0.950 . S
C3922 H3904 0.951 . S
C3922 C3923 1.366 . S
C3922 C3924 1.388 . S
C3923 C3922 1.366 . S
C3923 C3927 1.385 . S
C3924 H3905 0.951 . S
C3924 C3922 1.388 . S
C3924 C3925 1.366 . S
C3925 C3924 1.366 . S
C3925 C3926 1.414 . S
C3925 C3928 1.499 . S
C3926 H3906 0.950 . S
C3926 C3925 1.414 . S
C3926 C3927 1.374 . S
C3927 H3907 0.950 . S
C3927 C3923 1.385 . S
C3927 C3926 1.374 . S
C3928 C3925 1.499 . S
C3928 C3929 1.373 . S
C3928 C3930 1.389 . S
C3929 H3908 0.950 . S
C3929 C3928 1.373 . S
C3929 C3945 1.377 . S
C3930 C3928 1.389 . S
C3930 C3931 1.524 . S
C3930 C3944 1.377 . S
C3931 C3930 1.524 . S
C3931 C3932 1.397 . S
C3931 C3936 1.363 . S
C3932 H3909 0.950 . S
C3932 C3931 1.397 . S
C3932 C3933 1.334 . S
C3933 H3910 0.950 . S
C3933 C3932 1.334 . S
C3933 C3934 1.287 . S
C3934 C3933 1.287 . S
C3934 C3935 1.524 . S
C3934 H3953 0.913 . S
C3935 H3911 0.950 . S
C3935 C3934 1.524 . S
C3935 C3936 1.415 . S
C3936 H3912 0.950 . S
C3936 C3931 1.363 . S
C3936 C3935 1.415 . S
C3937 H3913 0.951 . S
C3937 C3938 1.366 . S
C3937 C3939 1.388 . S
C3938 C3937 1.366 . S
C3938 C3942 1.385 . S
C3939 H3914 0.951 . S
C3939 C3937 1.388 . S
C3939 C3940 1.366 . S
C3940 C3939 1.366 . S
C3940 C3941 1.414 . S
C3940 C3943 1.499 . S
C3941 H3915 0.950 . S
C3941 C3940 1.414 . S
C3941 C3942 1.374 . S
C3942 H3916 0.950 . S
C3942 C3938 1.385 . S
C3942 C3941 1.374 . S
C3943 C3940 1.499 . S
C3943 C3944 1.373 . S
C3943 C3945 1.389 . S
C3944 H3917 0.950 . S
C3944 C3930 1.377 . S
C3944 C3943 1.373 . S
C3945 C3929 1.377 . S
C3945 C3943 1.389 . S
C3945 C3946 1.524 . S
C3946 C3945 1.524 . S
C3946 C3947 1.397 . S
C3946 C3951 1.363 . S
C3947 H3918 0.950 . S
C3947 C3946 1.397 . S
C3947 C3948 1.334 . S
C3948 H3919 0.950 . S
C3948 C3947 1.334 . S
C3948 C3949 1.287 . S
C3949 C3948 1.287 . S
C3949 C3950 1.524 . S
C3949 H3952 0.999 . S
C3950 H3920 0.950 . S
C3950 C3949 1.524 . S
C3950 C3951 1.415 . S
C3951 H3921 0.950 . S
C3951 C3946 1.363 . S
C3951 C3950 1.415 . S
H3952 C3949 0.999 . S
H3953 C3934 0.913 . S
H3954 C3972 0.951 . S
H3955 C3974 0.951 . S
H3956 C3976 0.950 . S
H3957 C3977 0.950 . S
H3958 C3979 0.950 . S
H3959 C3982 0.950 . S
H3960 C3983 0.950 . S
H3961 C3985 0.950 . S
H3962 C3986 0.950 . S
H3963 C3987 0.951 . S
H3964 C3989 0.951 . S
H3965 C3991 0.950 . S
H3966 C3992 0.950 . S
H3967 C3994 0.950 . S
H3968 C3997 0.950 . S
H3969 C3998 0.950 . S
H3970 C4000 0.950 . S
H3971 C4001 0.950 . S
C3972 H3954 0.951 . S
C3972 C3973 1.366 . S
C3972 C3974 1.388 . S
C3973 C3972 1.366 . S
C3973 C3977 1.385 . S
C3974 H3955 0.951 . S
C3974 C3972 1.388 . S
C3974 C3975 1.366 . S
C3975 C3974 1.366 . S
C3975 C3976 1.414 . S
C3975 C3978 1.499 . S
C3976 H3956 0.950 . S
C3976 C3975 1.414 . S
C3976 C3977 1.374 . S
C3977 H3957 0.950 . S
C3977 C3973 1.385 . S
C3977 C3976 1.374 . S
C3978 C3975 1.499 . S
C3978 C3979 1.373 . S
C3978 C3980 1.389 . S
C3979 H3958 0.950 . S
C3979 C3978 1.373 . S
C3979 C3995 1.377 . S
C3980 C3978 1.389 . S
C3980 C3981 1.524 . S
C3980 C3994 1.377 . S
C3981 C3980 1.524 . S
C3981 C3982 1.397 . S
C3981 C3986 1.363 . S
C3982 H3959 0.950 . S
C3982 C3981 1.397 . S
C3982 C3983 1.334 . S
C3983 H3960 0.950 . S
C3983 C3982 1.334 . S
C3983 C3984 1.287 . S
C3984 C3983 1.287 . S
C3984 C3985 1.524 . S
C3984 H4003 0.913 . S
C3985 H3961 0.950 . S
C3985 C3984 1.524 . S
C3985 C3986 1.415 . S
C3986 H3962 0.950 . S
C3986 C3981 1.363 . S
C3986 C3985 1.415 . S
C3987 H3963 0.951 . S
C3987 C3988 1.366 . S
C3987 C3989 1.388 . S
C3988 C3987 1.366 . S
C3988 C3992 1.385 . S
C3989 H3964 0.951 . S
C3989 C3987 1.388 . S
C3989 C3990 1.366 . S
C3990 C3989 1.366 . S
C3990 C3991 1.414 . S
C3990 C3993 1.499 . S
C3991 H3965 0.950 . S
C3991 C3990 1.414 . S
C3991 C3992 1.374 . S
C3992 H3966 0.950 . S
C3992 C3988 1.385 . S
C3992 C3991 1.374 . S
C3993 C3990 1.499 . S
C3993 C3994 1.373 . S
C3993 C3995 1.389 . S
C3994 H3967 0.950 . S
C3994 C3980 1.377 . S
C3994 C3993 1.373 . S
C3995 C3979 1.377 . S
C3995 C3993 1.389 . S
C3995 C3996 1.524 . S
C3996 C3995 1.524 . S
C3996 C3997 1.397 . S
C3996 C4001 1.363 . S
C3997 H3968 0.950 . S
C3997 C3996 1.397 . S
C3997 C3998 1.334 . S
C3998 H3969 0.950 . S
C3998 C3997 1.334 . S
C3998 C3999 1.287 . S
C3999 C3998 1.287 . S
C3999 C4000 1.524 . S
C3999 H4002 0.999 . S
C4000 H3970 0.950 . S
C4000 C3999 1.524 . S
C4000 C4001 1.415 . S
C4001 H3971 0.950 . S
C4001 C3996 1.363 . S
C4001 C4000 1.415 . S
H4002 C3999 0.999 . S
H4003 C3984 0.913 . S
H4004 C4022 0.951 . S
H4005 C4024 0.951 . S
H4006 C4026 0.950 . S
H4007 C4027 0.950 . S
H4008 C4029 0.950 . S
H4009 C4032 0.950 . S
H4010 C4033 0.950 . S
H4011 C4035 0.950 . S
H4012 C4036 0.950 . S
H4013 C4037 0.951 . S
H4014 C4039 0.951 . S
H4015 C4041 0.950 . S
H4016 C4042 0.950 . S
H4017 C4044 0.950 . S
H4018 C4047 0.950 . S
H4019 C4048 0.950 . S
H4020 C4050 0.950 . S
H4021 C4051 0.950 . S
C4022 H4004 0.951 . S
C4022 C4023 1.366 . S
C4022 C4024 1.388 . S
C4023 C4022 1.366 . S
C4023 C4027 1.385 . S
C4024 H4005 0.951 . S
C4024 C4022 1.388 . S
C4024 C4025 1.366 . S
C4025 C4024 1.366 . S
C4025 C4026 1.414 . S
C4025 C4028 1.499 . S
C4026 H4006 0.950 . S
C4026 C4025 1.414 . S
C4026 C4027 1.374 . S
C4027 H4007 0.950 . S
C4027 C4023 1.385 . S
C4027 C4026 1.374 . S
C4028 C4025 1.499 . S
C4028 C4029 1.373 . S
C4028 C4030 1.389 . S
C4029 H4008 0.950 . S
C4029 C4028 1.373 . S
C4029 C4045 1.377 . S
C4030 C4028 1.389 . S
C4030 C4031 1.524 . S
C4030 C4044 1.377 . S
C4031 C4030 1.524 . S
C4031 C4032 1.397 . S
C4031 C4036 1.363 . S
C4032 H4009 0.950 . S
C4032 C4031 1.397 . S
C4032 C4033 1.334 . S
C4033 H4010 0.950 . S
C4033 C4032 1.334 . S
C4033 C4034 1.287 . S
C4034 C4033 1.287 . S
C4034 C4035 1.524 . S
C4034 H4053 0.913 . S
C4035 H4011 0.950 . S
C4035 C4034 1.524 . S
C4035 C4036 1.415 . S
C4036 H4012 0.950 . S
C4036 C4031 1.363 . S
C4036 C4035 1.415 . S
C4037 H4013 0.951 . S
C4037 C4038 1.366 . S
C4037 C4039 1.388 . S
C4038 C4037 1.366 . S
C4038 C4042 1.385 . S
C4039 H4014 0.951 . S
C4039 C4037 1.388 . S
C4039 C4040 1.366 . S
C4040 C4039 1.366 . S
C4040 C4041 1.414 . S
C4040 C4043 1.499 . S
C4041 H4015 0.950 . S
C4041 C4040 1.414 . S
C4041 C4042 1.374 . S
C4042 H4016 0.950 . S
C4042 C4038 1.385 . S
C4042 C4041 1.374 . S
C4043 C4040 1.499 . S
C4043 C4044 1.373 . S
C4043 C4045 1.389 . S
C4044 H4017 0.950 . S
C4044 C4030 1.377 . S
C4044 C4043 1.373 . S
C4045 C4029 1.377 . S
C4045 C4043 1.389 . S
C4045 C4046 1.524 . S
C4046 C4045 1.524 . S
C4046 C4047 1.397 . S
C4046 C4051 1.363 . S
C4047 H4018 0.950 . S
C4047 C4046 1.397 . S
C4047 C4048 1.334 . S
C4048 H4019 0.950 . S
C4048 C4047 1.334 . S
C4048 C4049 1.287 . S
C4049 C4048 1.287 . S
C4049 C4050 1.524 . S
C4049 H4052 0.999 . S
C4050 H4020 0.950 . S
C4050 C4049 1.524 . S
C4050 C4051 1.415 . S
C4051 H4021 0.950 . S
C4051 C4046 1.363 . S
C4051 C4050 1.415 . S
H4052 C4049 0.999 . S
H4053 C4034 0.913 . S
H4054 C4072 0.951 . S
H4055 C4074 0.951 . S
H4056 C4076 0.950 . S
H4057 C4077 0.950 . S
H4058 C4079 0.950 . S
H4059 C4082 0.950 . S
H4060 C4083 0.950 . S
H4061 C4085 0.950 . S
H4062 C4086 0.950 . S
H4063 C4087 0.951 . S
H4064 C4089 0.951 . S
H4065 C4091 0.950 . S
H4066 C4092 0.950 . S
H4067 C4094 0.950 . S
H4068 C4097 0.950 . S
H4069 C4098 0.950 . S
H4070 C4100 0.950 . S
H4071 C4101 0.950 . S
C4072 H4054 0.951 . S
C4072 C4073 1.366 . S
C4072 C4074 1.388 . S
C4073 C4072 1.366 . S
C4073 C4077 1.385 . S
C4074 H4055 0.951 . S
C4074 C4072 1.388 . S
C4074 C4075 1.366 . S
C4075 C4074 1.366 . S
C4075 C4076 1.414 . S
C4075 C4078 1.499 . S
C4076 H4056 0.950 . S
C4076 C4075 1.414 . S
C4076 C4077 1.374 . S
C4077 H4057 0.950 . S
C4077 C4073 1.385 . S
C4077 C4076 1.374 . S
C4078 C4075 1.499 . S
C4078 C4079 1.373 . S
C4078 C4080 1.389 . S
C4079 H4058 0.950 . S
C4079 C4078 1.373 . S
C4079 C4095 1.377 . S
C4080 C4078 1.389 . S
C4080 C4081 1.524 . S
C4080 C4094 1.377 . S
C4081 C4080 1.524 . S
C4081 C4082 1.397 . S
C4081 C4086 1.363 . S
C4082 H4059 0.950 . S
C4082 C4081 1.397 . S
C4082 C4083 1.334 . S
C4083 H4060 0.950 . S
C4083 C4082 1.334 . S
C4083 C4084 1.287 . S
C4084 C4083 1.287 . S
C4084 C4085 1.524 . S
C4084 H4103 0.913 . S
C4085 H4061 0.950 . S
C4085 C4084 1.524 . S
C4085 C4086 1.415 . S
C4086 H4062 0.950 . S
C4086 C4081 1.363 . S
C4086 C4085 1.415 . S
C4087 H4063 0.951 . S
C4087 C4088 1.366 . S
C4087 C4089 1.388 . S
C4088 C4087 1.366 . S
C4088 C4092 1.385 . S
C4089 H4064 0.951 . S
C4089 C4087 1.388 . S
C4089 C4090 1.366 . S
C4090 C4089 1.366 . S
C4090 C4091 1.414 . S
C4090 C4093 1.499 . S
C4091 H4065 0.950 . S
C4091 C4090 1.414 . S
C4091 C4092 1.374 . S
C4092 H4066 0.950 . S
C4092 C4088 1.385 . S
C4092 C4091 1.374 . S
C4093 C4090 1.499 . S
C4093 C4094 1.373 . S
C4093 C4095 1.389 . S
C4094 H4067 0.950 . S
C4094 C4080 1.377 . S
C4094 C4093 1.373 . S
C4095 C4079 1.377 . S
C4095 C4093 1.389 . S
C4095 C4096 1.524 . S
C4096 C4095 1.524 . S
C4096 C4097 1.397 . S
C4096 C4101 1.363 . S
C4097 H4068 0.950 . S
C4097 C4096 1.397 . S
C4097 C4098 1.334 . S
C4098 H4069 0.950 . S
C4098 C4097 1.334 . S
C4098 C4099 1.287 . S
C4099 C4098 1.287 . S
C4099 C4100 1.524 . S
C4099 H4102 0.999 . S
C4100 H4070 0.950 . S
C4100 C4099 1.524 . S
C4100 C4101 1.415 . S
C4101 H4071 0.950 . S
C4101 C4096 1.363 . S
C4101 C4100 1.415 . S
H4102 C4099 0.999 . S
H4103 C4084 0.913 . S
C1423 C469 1.414 . S
C1438 C704 1.335 . S
C1473 C505 1.445 . S
C1488 C788 1.371 . S
C1523 C433 1.450 . S
C1538 C882 1.408 . S
C1573 C397 1.406 . S
C1588 C798 1.366 . S
C1638 C872 1.299 . S
C1623 C325 1.374 . S
C1673 C361 1.383 . S
C1688 C714 1.341 . S
C1738 C715 1.336 . S
C1723 C421 1.414 . S
C1788 C799 1.371 . S
C1773 C349 1.444 . S
C1823 C385 1.450 . S
C1838 C891 1.409 . S
C1873 C493 1.404 . S
C1888 C807 1.368 . S
C1923 C529 1.373 . S
C1938 C883 1.299 . S
C1988 C723 1.341 . S
C1973 C457 1.381 . S
C2038 C956 1.336 . S
C2023 C37 1.414 . S
C2073 C73 1.446 . S
C2088 C1040 1.372 . S
C2123 C1 1.451 . S
C2138 C1134 1.407 . S
C2173 C613 1.405 . S
C2188 C1050 1.367 . S
C2223 C541 1.373 . S
C2238 C1124 1.299 . S
C2273 C577 1.382 . S
C2288 C966 1.340 . S
C2323 C637 1.414 . S
C2338 C967 1.336 . S
C2373 C565 1.444 . S
C2388 C1051 1.371 . S
C2438 C1143 1.408 . S
C2423 C601 1.449 . S
C2473 C61 1.404 . S
C2488 C1059 1.368 . S
C2538 C1135 1.300 . S
C2523 C97 1.373 . S
C2573 C25 1.381 . S
C2588 C975 1.341 . S
C2638 C1208 1.335 . S
C2623 C253 1.414 . S
C2673 C289 1.445 . S
C2688 C1292 1.371 . S
C2738 C1386 1.407 . S
C2723 C217 1.450 . S
C2788 C1302 1.367 . S
C2773 C181 1.405 . S
C2838 C1376 1.299 . S
C2823 C109 1.374 . S
C2873 C145 1.383 . S
C2888 C1218 1.341 . S
C2923 C205 1.414 . S
C2938 C1219 1.336 . S
C2973 C133 1.443 . S
C2988 C1303 1.371 . S
C3038 C1395 1.409 . S
C3023 C169 1.450 . S
C3073 C277 1.404 . S
C3088 C1311 1.368 . S
C3123 C313 1.373 . S
C3138 C1387 1.300 . S
C3173 C241 1.381 . S
C3188 C1227 1.341 . S
C3223 C571 1.419 . S
C3238 C711 1.303 . S
C3288 C795 1.351 . S
C3273 C607 1.495 . S
C3323 C643 1.453 . S
C3338 C888 1.323 . S
C3373 C247 1.495 . S
C3388 C804 1.353 . S
C3423 C283 1.455 . S
C3438 C879 1.325 . S
C3488 C720 1.304 . S
C3473 C319 1.419 . S
C3523 C139 1.418 . S
C3538 C963 1.305 . S
C3573 C175 1.495 . S
C3588 C1047 1.353 . S
C3623 C211 1.454 . S
C3638 C1140 1.323 . S
C3673 C463 1.495 . S
C3688 C1056 1.353 . S
C3738 C1131 1.322 . S
C3723 C499 1.454 . S
C3773 C535 1.419 . S
C3788 C972 1.305 . S
C3823 C355 1.418 . S
C3838 C1215 1.305 . S
C3873 C391 1.495 . S
C3888 C1299 1.352 . S
C3938 C1392 1.322 . S
C3923 C427 1.453 . S
C3973 C31 1.495 . S
C3988 C1308 1.353 . S
C4023 C67 1.455 . S
C4038 C1383 1.324 . S
C4073 C103 1.419 . S
C4088 C1224 1.305 . S
