# Generated by pormake.
# Topology the, (3,8)-cn, num edge types: 1
# Building blocks:
#     Node 0, Type 0, BuildingBlock: QEWDON_clean_linker_0, # of connection points: 3
#     Node 1, Type 0, BuildingBlock: QEWDON_clean_linker_0, # of connection points: 3
#     Node 2, Type 0, BuildingBlock: QEWDON_clean_linker_0, # of connection points: 3
#     Node 3, Type 0, BuildingBlock: QEWDON_clean_linker_0, # of connection points: 3
#     Node 4, Type 0, BuildingBlock: QEWDON_clean_linker_0, # of connection points: 3
#     Node 5, Type 0, BuildingBlock: QEWDON_clean_linker_0, # of connection points: 3
#     Node 6, Type 0, BuildingBlock: QEWDON_clean_linker_0, # of connection points: 3
#     Node 7, Type 0, BuildingBlock: QEWDON_clean_linker_0, # of connection points: 3
#     Node 8, Type 1, BuildingBlock: GIZVER_clean_sbu_0, # of connection points: 8
#     Node 9, Type 1, BuildingBlock: GIZVER_clean_sbu_0, # of connection points: 8
#     Node 10, Type 1, BuildingBlock: GIZVER_clean_sbu_0, # of connection points: 8
#     Edge 11, Type (0, 1), BuildingBlock: AJUNOK_clean_linker_0, # of connection points: 2
#     Edge 12, Type (0, 1), BuildingBlock: AJUNOK_clean_linker_0, # of connection points: 2
#     Edge 13, Type (0, 1), BuildingBlock: AJUNOK_clean_linker_0, # of connection points: 2
#     Edge 14, Type (0, 1), BuildingBlock: AJUNOK_clean_linker_0, # of connection points: 2
#     Edge 15, Type (0, 1), BuildingBlock: AJUNOK_clean_linker_0, # of connection points: 2
#     Edge 16, Type (0, 1), BuildingBlock: AJUNOK_clean_linker_0, # of connection points: 2
#     Edge 17, Type (0, 1), BuildingBlock: AJUNOK_clean_linker_0, # of connection points: 2
#     Edge 18, Type (0, 1), BuildingBlock: AJUNOK_clean_linker_0, # of connection points: 2
#     Edge 19, Type (0, 1), BuildingBlock: AJUNOK_clean_linker_0, # of connection points: 2
#     Edge 20, Type (0, 1), BuildingBlock: AJUNOK_clean_linker_0, # of connection points: 2
#     Edge 21, Type (0, 1), BuildingBlock: AJUNOK_clean_linker_0, # of connection points: 2
#     Edge 22, Type (0, 1), BuildingBlock: AJUNOK_clean_linker_0, # of connection points: 2
#     Edge 23, Type (0, 1), BuildingBlock: AJUNOK_clean_linker_0, # of connection points: 2
#     Edge 24, Type (0, 1), BuildingBlock: AJUNOK_clean_linker_0, # of connection points: 2
#     Edge 25, Type (0, 1), BuildingBlock: AJUNOK_clean_linker_0, # of connection points: 2
#     Edge 26, Type (0, 1), BuildingBlock: AJUNOK_clean_linker_0, # of connection points: 2
#     Edge 27, Type (0, 1), BuildingBlock: AJUNOK_clean_linker_0, # of connection points: 2
#     Edge 28, Type (0, 1), BuildingBlock: AJUNOK_clean_linker_0, # of connection points: 2
#     Edge 29, Type (0, 1), BuildingBlock: AJUNOK_clean_linker_0, # of connection points: 2
#     Edge 30, Type (0, 1), BuildingBlock: AJUNOK_clean_linker_0, # of connection points: 2
#     Edge 31, Type (0, 1), BuildingBlock: AJUNOK_clean_linker_0, # of connection points: 2
#     Edge 32, Type (0, 1), BuildingBlock: AJUNOK_clean_linker_0, # of connection points: 2
#     Edge 33, Type (0, 1), BuildingBlock: AJUNOK_clean_linker_0, # of connection points: 2
#     Edge 34, Type (0, 1), BuildingBlock: AJUNOK_clean_linker_0, # of connection points: 2
# Relax obj value: 0.103
# Max RMSD: 0.272
# Mean RMSD: 0.173
data_MOF--net-the--node1-GIZVER_clean_sbu_0--node2-QEWDON_clean_linker_0--edge1-AJUNOK_clean_linker_0
_symmetry_space_group_name_H-M    P1
_symmetry_Int_Tables_number       1
_symmetry_cell_setting            triclinic
loop_
_symmetry_equiv_pos_as_xyz
'x, y, z'
_cell_length_a     31.647108
_cell_length_b     29.538817
_cell_length_c     27.774797
_cell_angle_alpha  87.089063
_cell_angle_beta   95.93927
_cell_angle_gamma 115.6073
loop_
_atom_site_label
_atom_site_type_symbol
_atom_site_fract_x
_atom_site_fract_y
_atom_site_fract_z
_atom_type_partial_charge
H0 H 0.34903 0.21434 0.45325 0.0
C1 C 0.36342 0.23944 0.42318 0.0
C2 C 0.40678 0.2464 0.40849 0.0
C3 C 0.33739 0.26269 0.39847 0.0
H4 H 0.45731 0.28179 0.3559 0.0
C5 C 0.42464 0.2779 0.36859 0.0
C6 C 0.39837 0.30125 0.34293 0.0
C7 C 0.3551 0.29413 0.35882 0.0
C8 C 0.2897 0.24973 0.4118 0.0
H9 H 0.3344 0.31151 0.3393 0.0
C10 C 0.27878 0.28613 0.43064 0.0
C11 C 0.23366 0.27275 0.44534 0.0
C12 C 0.25552 0.19981 0.4078 0.0
H13 H 0.26359 0.17124 0.39358 0.0
C14 C 0.21071 0.1864 0.42213 0.0
H15 H 0.30569 0.32433 0.4349 0.0
C16 C 0.19975 0.22256 0.44078 0.0
H17 H 0.1645 0.21138 0.45109 0.0
H18 H 0.1844 0.1479 0.41873 0.0
H19 H 0.85479 0.3639 0.34286 0.0
C20 C 0.82435 0.33047 0.35232 0.0
C21 C 0.82968 0.3007 0.391 0.0
C22 C 0.77973 0.32226 0.33054 0.0
H23 H 0.79407 0.23698 0.43622 0.0
C24 C 0.79019 0.25848 0.40466 0.0
C25 C 0.74537 0.24617 0.38006 0.0
C26 C 0.74053 0.27843 0.34265 0.0
C27 C 0.77458 0.36408 0.30209 0.0
H28 H 0.70615 0.27093 0.32476 0.0
C29 C 0.74236 0.35562 0.26073 0.0
C30 C 0.73925 0.39659 0.23494 0.0
C31 C 0.80202 0.41392 0.31793 0.0
H32 H 0.82557 0.42202 0.35079 0.0
C33 C 0.79899 0.45424 0.29234 0.0
H34 H 0.72018 0.3177 0.24841 0.0
C35 C 0.76794 0.44575 0.25105 0.0
H36 H 0.7652 0.47769 0.23252 0.0
H37 H 0.82026 0.49218 0.30503 0.0
H38 H 0.8525 0.71093 0.41618 0.0
C39 C 0.82953 0.69823 0.3831 0.0
C40 C 0.83775 0.66788 0.35176 0.0
C41 C 0.78966 0.70806 0.37545 0.0
H42 H 0.8125 0.62519 0.28581 0.0
C43 C 0.80742 0.65036 0.30919 0.0
C44 C 0.769 0.66272 0.29826 0.0
C45 C 0.76021 0.6914 0.33213 0.0
C46 C 0.77708 0.72965 0.41652 0.0
H47 H 0.72931 0.69862 0.32586 0.0
C48 C 0.75931 0.76641 0.41024 0.0
C49 C 0.75281 0.78857 0.45127 0.0
C50 C 0.78476 0.71355 0.46403 0.0
H51 H 0.79598 0.68376 0.47054 0.0
C52 C 0.77874 0.73573 0.50407 0.0
H53 H 0.75185 0.77856 0.37423 0.0
C54 C 0.7636 0.77341 0.49773 0.0
H55 H 0.75916 0.7901 0.52933 0.0
H56 H 0.78575 0.72356 0.54021 0.0
H57 H 0.42698 0.78533 0.33356 0.0
C58 C 0.39362 0.75887 0.34583 0.0
C59 C 0.38114 0.76528 0.39129 0.0
C60 C 0.36436 0.71706 0.31714 0.0
H61 H 0.32851 0.7343 0.44246 0.0
C62 C 0.33819 0.73016 0.40718 0.0
C63 C 0.30814 0.68908 0.37809 0.0
C64 C 0.3217 0.68224 0.3335 0.0
C65 C 0.37843 0.71012 0.26992 0.0
H66 H 0.2991 0.64979 0.31163 0.0
C67 C 0.38879 0.66934 0.26205 0.0
C68 C 0.40397 0.66432 0.21741 0.0
C69 C 0.38247 0.74527 0.23272 0.0
H70 H 0.37475 0.77688 0.23818 0.0
C71 C 0.39617 0.7397 0.18809 0.0
H72 H 0.38579 0.64224 0.29085 0.0
C73 C 0.40693 0.69967 0.18044 0.0
H74 H 0.41883 0.69712 0.14591 0.0
H75 H 0.39908 0.76692 0.1595 0.0
H76 H 0.45265 0.7414 0.77456 0.0
C77 C 0.41794 0.73029 0.75595 0.0
C78 C 0.40968 0.76337 0.72157 0.0
C79 C 0.38215 0.68202 0.76431 0.0
H80 H 0.36003 0.76837 0.66395 0.0
C81 C 0.36564 0.74635 0.6942 0.0
C82 C 0.32924 0.69963 0.70394 0.0
C83 C 0.337 0.66936 0.74076 0.0
C84 C 0.39188 0.6421 0.79229 0.0
H85 H 0.3082 0.63351 0.7479 0.0
C86 C 0.42755 0.65312 0.83109 0.0
C87 C 0.43507 0.61393 0.85595 0.0
C88 C 0.36578 0.59136 0.77824 0.0
H89 H 0.34031 0.5808 0.7469 0.0
C90 C 0.37271 0.55291 0.80344 0.0
H91 H 0.44921 0.69152 0.84221 0.0
C92 C 0.40688 0.56399 0.84216 0.0
H93 H 0.41261 0.53347 0.86028 0.0
H94 H 0.35214 0.51435 0.79218 0.0
H95 H 0.37611 0.31752 0.80907 0.0
C96 C 0.39104 0.29699 0.79087 0.0
C97 C 0.4379 0.30476 0.80394 0.0
C98 C 0.36331 0.26281 0.75428 0.0
H99 H 0.49295 0.28404 0.78859 0.0
C100 C 0.45689 0.27819 0.77898 0.0
C101 C 0.42932 0.24345 0.74234 0.0
C102 C 0.38272 0.23651 0.73034 0.0
C103 C 0.31327 0.25246 0.7415 0.0
H104 H 0.36147 0.21116 0.70134 0.0
C105 C 0.29994 0.29074 0.72471 0.0
C106 C 0.25251 0.279 0.70849 0.0
C107 C 0.27868 0.20276 0.7434 0.0
H108 H 0.28811 0.17276 0.75617 0.0
C109 C 0.23176 0.19117 0.7286 0.0
H110 H 0.32652 0.32915 0.72345 0.0
C111 C 0.21874 0.22879 0.71099 0.0
H112 H 0.18221 0.21832 0.69837 0.0
H113 H 0.20543 0.15268 0.73005 0.0
H114 H 0.89811 0.36288 0.7951 0.0
C115 C 0.87018 0.33349 0.77339 0.0
C116 C 0.87344 0.33138 0.7238 0.0
C117 C 0.82999 0.30017 0.7947 0.0
H118 H 0.83959 0.292 0.6573 0.0
C119 C 0.83696 0.29371 0.69571 0.0
C120 C 0.7962 0.25983 0.71665 0.0
C121 C 0.79293 0.26344 0.76638 0.0
C122 C 0.82534 0.30915 0.84508 0.0
H123 H 0.76111 0.23885 0.78269 0.0
C124 C 0.79877 0.33492 0.85412 0.0
C125 C 0.80212 0.35419 0.9004 0.0
C126 C 0.85348 0.30002 0.88306 0.0
H127 H 0.87493 0.28108 0.87636 0.0
C128 C 0.85515 0.31672 0.92964 0.0
H129 H 0.77693 0.34145 0.82449 0.0
C130 C 0.83012 0.34412 0.93826 0.0
H131 H 0.83366 0.35847 0.97429 0.0
H132 H 0.87709 0.30979 0.95886 0.0
H133 H 0.85653 0.69713 0.61045 0.0
C134 C 0.84307 0.68636 0.64566 0.0
C135 C 0.84703 0.64555 0.66986 0.0
C136 C 0.82583 0.7159 0.6677 0.0
H137 H 0.83328 0.59995 0.73479 0.0
C138 C 0.82989 0.63128 0.71562 0.0
C139 C 0.80963 0.65844 0.73723 0.0
C140 C 0.80827 0.70114 0.7133 0.0
C141 C 0.83132 0.76455 0.64459 0.0
H142 H 0.79465 0.7234 0.73077 0.0
C143 C 0.79659 0.78249 0.64469 0.0
C144 C 0.8034 0.82878 0.62227 0.0
C145 C 0.87277 0.79384 0.62219 0.0
H146 H 0.90093 0.78223 0.62272 0.0
C147 C 0.87901 0.83893 0.59931 0.0
H148 H 0.76483 0.76096 0.66235 0.0
C149 C 0.84467 0.85631 0.59929 0.0
H150 H 0.85066 0.89178 0.58159 0.0
H151 H 0.91088 0.86081 0.58199 0.0
Co152 Co 0.15611 0.46426 0.58065 0.0
Co153 Co 0.11446 0.44198 0.49401 0.0
Co154 Co 0.07746 0.51123 0.53706 0.0
O155 O 0.09674 0.45598 0.55028 0.0
H156 H 0.07147 0.42586 0.56135 0.0
O157 O 0.05499 0.56503 0.52411 0.0
Co158 Co 0.99119 0.5468 0.49588 0.0
Co159 Co 0.03446 0.57691 0.57997 0.0
H160 H 0.07815 0.59545 0.51083 0.0
O161 O 0.10929 0.37935 0.48385 0.0
O162 O 0.17202 0.44557 0.51901 0.0
O163 O 0.12838 0.49017 0.44215 0.0
O164 O 0.12483 0.54747 0.4881 0.0
O165 O 0.02992 0.46778 0.48629 0.0
O166 O 0.9352 0.5357 0.46622 0.0
O167 O 1.0003 0.60875 0.47271 0.0
O168 O 0.97234 0.47863 0.51391 0.0
O169 O 0.03153 0.47579 0.58695 0.0
O170 O 0.03515 0.53495 0.63505 0.0
O171 O 0.97153 0.55939 0.55837 0.0
O172 O 0.02576 0.63269 0.59135 0.0
C173 C 0.18223 0.41879 0.61837 0.0
C174 C 0.1701 0.56327 0.58603 0.0
C175 C 0.13934 0.53554 0.45168 0.0
C176 C 0.1532 0.40051 0.50072 0.0
C177 C 0.95666 0.58304 0.45513 0.0
C178 C 0.98649 0.45176 0.49203 0.0
C179 C 0.02243 0.4891 0.62608 0.0
C180 C 0.98212 0.60132 0.58066 0.0
O181 O 0.2096 0.46584 0.61068 0.0
O182 O 0.13787 0.40051 0.60221 0.0
O183 O 0.12671 0.55367 0.58746 0.0
O184 O 0.18205 0.53397 0.56437 0.0
Co185 Co 0.61737 0.93413 0.5266 0.0
Co186 Co 0.64209 0.9715 0.61291 0.0
Co187 Co 0.5765 0.01736 0.56166 0.0
O188 O 0.62794 0.99672 0.55466 0.0
H189 H 0.65596 0.02428 0.54446 0.0
O190 O 0.52603 0.03988 0.56897 0.0
Co191 Co 0.54129 0.10613 0.59347 0.0
Co192 Co 0.5117 0.06407 0.51057 0.0
H193 H 0.49821 0.01375 0.58118 0.0
O194 O 0.70053 0.97606 0.62839 0.0
O195 O 0.63825 0.91184 0.59056 0.0
O196 O 0.60013 0.95469 0.66224 0.0
O197 O 0.54504 0.96451 0.61255 0.0
O198 O 0.61891 0.06683 0.61172 0.0
O199 O 0.55067 0.16441 0.61883 0.0
O200 O 0.4841 0.09288 0.61402 0.0
O201 O 0.60447 0.12896 0.57877 0.0
O202 O 0.60737 0.06917 0.51015 0.0
O203 O 0.55021 0.07227 0.4587 0.0
O204 O 0.52247 0.12809 0.52818 0.0
O205 O 0.45518 0.06511 0.49606 0.0
C206 C 0.65624 0.9064 0.49227 0.0
C207 C 0.52581 0.92088 0.51418 0.0
C208 C 0.5576 0.94599 0.651 0.0
C209 C 0.6814 0.93073 0.61125 0.0
C210 C 0.5073 0.13934 0.62891 0.0
C211 C 0.63089 0.11379 0.60581 0.0
C212 C 0.59324 0.0829 0.46972 0.0
C213 C 0.48036 0.11255 0.50527 0.0
O214 O 0.61225 0.87871 0.49871 0.0
O215 O 0.67596 0.95278 0.50759 0.0
O216 O 0.53439 0.9674 0.51145 0.0
O217 O 0.55337 0.90663 0.54058 0.0
Co218 Co 0.53287 0.51345 0.13581 0.0
Co219 Co 0.51196 0.42503 0.10647 0.0
Co220 Co 0.5932 0.50881 0.04296 0.0
O221 O 0.53297 0.48649 0.07487 0.0
H222 H 0.50789 0.48665 0.05197 0.0
O223 O 0.65359 0.53157 1.01147 0.0
Co224 Co 0.65541 0.497 0.95644 0.0
Co225 Co 0.67247 0.58746 0.97157 0.0
H226 H 0.67928 0.53578 1.0356 0.0
O227 O 0.45028 0.38638 0.12305 0.0
O228 O 0.50903 0.4465 0.16752 0.0
O229 O 0.55644 0.3966 0.11328 0.0
O230 O 0.61506 0.46179 0.08174 0.0
O231 O 0.55597 0.45365 0.99322 0.0
O232 O 0.66217 0.46278 0.90885 0.0
O233 O 0.71189 0.49865 0.97466 0.0
O234 O 0.59621 0.49079 0.93154 0.0
O235 O 0.57137 0.55613 1.00376 0.0
O236 O 0.62469 0.61094 0.95711 0.0
O237 O 0.681 0.5592 0.91697 0.0
O238 O 0.73498 0.62687 0.95673 0.0
C239 C 0.48838 0.53567 0.16601 0.0
C240 C 0.62882 0.55475 0.13935 0.0
C241 C 0.59921 0.41966 0.10439 0.0
C242 C 0.46795 0.40841 0.16443 0.0
C243 C 0.70037 0.4704 0.93658 0.0
C244 C 0.56003 0.4566 0.94764 0.0
C245 C 0.58439 0.59278 0.97327 0.0
C246 C 0.72171 0.59785 0.91921 0.0
O247 O 0.52789 0.54057 0.18948 0.0
O248 O 0.47517 0.51221 0.12463 0.0
O249 O 0.63063 0.56275 0.09365 0.0
O250 O 0.59319 0.51911 0.15494 0.0
C251 C 0.19491 0.29918 0.50515 0.0
C252 C 0.22093 0.31073 0.4644 0.0
C253 C 0.17551 0.33051 0.51903 0.0
C254 C 0.18246 0.37487 0.49333 0.0
H255 H 0.18783 0.26461 0.5252 0.0
H256 H 0.15335 0.31895 0.54876 0.0
S257 S 0.24932 0.42375 0.38594 0.0
N258 N 0.2538 0.37084 0.39971 0.0
N259 N 0.21805 0.43012 0.42691 0.0
C260 C 0.21048 0.38845 0.45446 0.0
C261 C 0.22977 0.35634 0.43981 0.0
C262 C 0.70679 0.1575 0.41145 0.0
C263 C 0.70362 0.20264 0.39754 0.0
C264 C 0.67028 0.11799 0.43327 0.0
C265 C 0.62861 0.1215 0.44082 0.0
H266 H 0.73831 0.15309 0.40649 0.0
H267 H 0.67496 0.08477 0.44501 0.0
S268 S 0.60251 0.23145 0.41289 0.0
N269 N 0.65549 0.24869 0.39509 0.0
N270 N 0.58612 0.17346 0.43342 0.0
C271 C 0.62422 0.16562 0.42594 0.0
C272 C 0.66182 0.20636 0.40487 0.0
C273 C 0.85766 0.59572 0.37376 0.0
C274 C 0.8727 0.64787 0.36924 0.0
C275 C 0.88572 0.57549 0.40038 0.0
C276 C 0.9302 0.60648 0.42367 0.0
H277 H 0.82274 0.57024 0.35901 0.0
H278 H 0.8716 0.53502 0.40383 0.0
S279 S 0.98805 0.7457 0.41825 0.0
N280 N 0.93669 0.7302 0.38656 0.0
N281 N 0.98936 0.69228 0.43683 0.0
C282 C 0.9468 0.65871 0.41713 0.0
C283 C 0.91811 0.67932 0.38994 0.0
C284 C 0.43125 0.79474 0.46934 0.0
C285 C 0.41475 0.80639 0.42363 0.0
C286 C 0.46632 0.83223 0.49881 0.0
C287 C 0.48567 0.88299 0.48412 0.0
H288 H 0.41808 0.75608 0.48171 0.0
H289 H 0.47879 0.82121 0.53317 0.0
S290 S 0.4521 0.93333 0.36877 0.0
N291 N 0.41881 0.87222 0.36573 0.0
N292 N 0.48404 0.94297 0.42142 0.0
C293 C 0.4681 0.89533 0.43921 0.0
C294 C 0.43293 0.85696 0.40886 0.0
C295 C 0.2911 0.66456 0.62322 0.0
C296 C 0.2864 0.67668 0.67004 0.0
C297 C 0.25243 0.62989 0.59494 0.0
C298 C 0.20758 0.60676 0.61223 0.0
H299 H 0.32556 0.67891 0.60986 0.0
H300 H 0.25816 0.61936 0.56022 0.0
S301 S 0.17593 0.63078 0.73008 0.0
N302 N 0.23308 0.66651 0.73083 0.0
N303 N 0.15987 0.60224 0.67716 0.0
C304 C 0.20168 0.62178 0.65732 0.0
C305 C 0.24128 0.65649 0.68643 0.0
C306 C 0.49267 0.24107 0.69578 0.0
C307 C 0.44904 0.21539 0.71513 0.0
C308 C 0.51057 0.21622 0.66762 0.0
C309 C 0.48579 0.16439 0.6575 0.0
H310 H 0.51285 0.28102 0.70162 0.0
H311 H 0.54426 0.23815 0.65354 0.0
S312 S 0.37103 0.07903 0.70214 0.0
N313 N 0.38232 0.13446 0.72397 0.0
N314 N 0.41565 0.08804 0.67083 0.0
C315 C 0.44227 0.13811 0.67706 0.0
C316 C 0.42405 0.16346 0.70586 0.0
C317 C 0.94204 0.36095 0.67365 0.0
C318 C 0.91274 0.37196 0.70091 0.0
C319 C 0.97893 0.3994 0.65134 0.0
C320 C 0.98768 0.45015 0.65547 0.0
H321 H 0.93628 0.32239 0.66944 0.0
H322 H 1.00022 0.38918 0.62998 0.0
S323 S 0.91815 0.49771 0.72044 0.0
N324 N 0.8932 0.4364 0.72933 0.0
N325 N 0.96233 0.50871 0.68776 0.0
C326 C 0.95845 0.46144 0.68291 0.0
C327 C 0.92097 0.42232 0.70544 0.0
C328 C 0.78647 0.90106 0.63757 0.0
C329 C 0.76933 0.85074 0.62372 0.0
C330 C 0.75746 0.92583 0.63385 0.0
C331 C 0.70978 0.90148 0.61601 0.0
H332 H 0.82313 0.92195 0.65063 0.0
H333 H 0.77315 0.96491 0.64432 0.0
S334 S 0.64665 0.76836 0.57757 0.0
N335 N 0.70102 0.77612 0.59393 0.0
N336 N 0.64607 0.82297 0.58637 0.0
C337 C 0.69158 0.85049 0.60339 0.0
C338 C 0.72136 0.825 0.60759 0.0
C339 C 0.40244 0.16223 0.43006 0.0
C340 C 0.42879 0.21453 0.43144 0.0
C341 C 0.41913 0.13017 0.45504 0.0
C342 C 0.46309 0.14888 0.48263 0.0
H343 H 0.36822 0.14589 0.40969 0.0
H344 H 0.39714 0.09018 0.45228 0.0
S345 S 0.54513 0.2837 0.49905 0.0
N346 N 0.50038 0.28427 0.46303 0.0
N347 N 0.53242 0.22396 0.51037 0.0
C348 C 0.4899 0.20142 0.48449 0.0
C349 C 0.4727 0.23423 0.45866 0.0
C350 C 0.86992 0.33929 0.4694 0.0
C351 C 0.87331 0.32315 0.42385 0.0
C352 C 0.90827 0.37866 0.49324 0.0
C353 C 0.95143 0.4028 0.47259 0.0
H354 H 0.83617 0.32528 0.48428 0.0
H355 H 0.90305 0.39251 0.52647 0.0
S356 S 0.98103 0.36652 0.35935 0.0
N357 N 0.92494 0.32818 0.3629 0.0
N358 N 0.99762 0.40188 0.4082 0.0
C359 C 0.95698 0.3827 0.43019 0.0
C360 C 0.9177 0.34282 0.40568 0.0
C361 C 0.68355 0.80835 0.43597 0.0
C362 C 0.73208 0.8253 0.44826 0.0
C363 C 0.65983 0.83647 0.44772 0.0
C364 C 0.68376 0.8828 0.47203 0.0
H365 H 0.66316 0.77137 0.42055 0.0
H366 H 0.62198 0.82045 0.4398 0.0
S367 S 0.81212 0.94595 0.50743 0.0
N368 N 0.804 0.89285 0.48256 0.0
N369 N 0.75979 0.94611 0.50398 0.0
C370 C 0.73292 0.90178 0.4813 0.0
C371 C 0.75694 0.8729 0.46966 0.0
C372 C 0.22175 0.65399 0.38883 0.0
C373 C 0.26484 0.65028 0.39647 0.0
C374 C 0.18055 0.61658 0.40631 0.0
C375 C 0.18137 0.57416 0.43097 0.0
H376 H 0.22003 0.686 0.36945 0.0
H377 H 0.148 0.62068 0.40036 0.0
S378 S 0.28658 0.55004 0.46381 0.0
N379 N 0.30653 0.60314 0.4327 0.0
N380 N 0.22964 0.53288 0.46503 0.0
C381 C 0.22457 0.57083 0.43928 0.0
C382 C 0.26621 0.60889 0.42207 0.0
C383 C 0.49414 0.81744 0.70693 0.0
C384 C 0.44837 0.81308 0.70978 0.0
C385 C 0.52985 0.86184 0.69079 0.0
C386 C 0.52126 0.90364 0.6759 0.0
H387 H 0.50214 0.7856 0.71501 0.0
H388 H 0.56383 0.86228 0.68738 0.0
S389 S 0.40967 0.91459 0.68175 0.0
N390 N 0.39819 0.85712 0.70152 0.0
N391 N 0.46492 0.93952 0.66848 0.0
C392 C 0.47639 0.90076 0.6802 0.0
C393 C 0.44014 0.85584 0.69777 0.0
C394 C 0.19517 0.31765 0.69985 0.0
C395 C 0.23744 0.31789 0.68755 0.0
C396 C 0.17756 0.35045 0.67744 0.0
C397 C 0.20207 0.38562 0.64269 0.0
H398 H 0.17515 0.29143 0.72672 0.0
H399 H 0.14462 0.34841 0.68756 0.0
S400 S 0.31246 0.40024 0.59505 0.0
N401 N 0.30182 0.35495 0.63593 0.0
N402 N 0.26977 0.41811 0.59567 0.0
C403 C 0.24456 0.38695 0.63037 0.0
C404 C 0.26204 0.35282 0.6524 0.0
C405 C 0.73483 0.17197 0.70046 0.0
C406 C 0.75573 0.22275 0.68628 0.0
C407 C 0.69533 0.13668 0.67346 0.0
C408 C 0.67476 0.151 0.63164 0.0
H409 H 0.74907 0.15945 0.73282 0.0
H410 H 0.68014 0.09814 0.6862 0.0
S411 S 0.71687 0.27939 0.57854 0.0
N412 N 0.75344 0.28552 0.6273 0.0
N413 N 0.67946 0.21944 0.57647 0.0
C414 C 0.69584 0.20161 0.61666 0.0
C415 C 0.73624 0.23739 0.64396 0.0
C416 C 0.92045 0.63374 0.67409 0.0
C417 C 0.87639 0.62462 0.64974 0.0
C418 C 0.95429 0.62612 0.65121 0.0
C419 C 0.94507 0.60828 0.60341 0.0
H420 H 0.92978 0.6495 0.71015 0.0
H421 H 0.98814 0.63462 0.67107 0.0
S422 S 0.83403 0.57595 0.52496 0.0
N423 N 0.82469 0.59551 0.5758 0.0
N424 N 0.88768 0.5791 0.53352 0.0
C425 C 0.90032 0.59664 0.57952 0.0
C426 C 0.86617 0.60543 0.60247 0.0
C427 C 0.45932 0.36983 0.29729 0.0
C428 C 0.41425 0.32995 0.29752 0.0
C429 C 0.47533 0.39645 0.25451 0.0
C430 C 0.44724 0.38368 0.20993 0.0
H431 H 0.48247 0.38043 0.33044 0.0
H432 H 0.51071 0.4263 0.25631 0.0
S433 S 0.32584 0.28248 0.19158 0.0
N434 N 0.34121 0.27943 0.24987 0.0
N435 N 0.37133 0.32901 0.16944 0.0
C436 C 0.40169 0.34434 0.20996 0.0
C437 C 0.38523 0.31761 0.25369 0.0
C438 C 0.52092 0.64473 0.87903 0.0
C439 C 0.47492 0.62326 0.89311 0.0
C440 C 0.55734 0.63833 0.90741 0.0
C441 C 0.54893 0.61002 0.95082 0.0
H442 H 0.52794 0.66272 0.84389 0.0
H443 H 0.59138 0.65251 0.89321 0.0
S444 S 0.43621 0.55586 1.00811 0.0
N445 N 0.4242 0.57972 0.95631 0.0
N446 N 0.49247 0.5682 1.01025 0.0
C447 C 0.50405 0.5932 0.96765 0.0
C448 C 0.46708 0.59967 0.93863 0.0
C449 C 0.51178 0.3798 0.83159 0.0
C450 C 0.46772 0.34234 0.84202 0.0
C451 C 0.54035 0.41643 0.86573 0.0
C452 C 0.52676 0.41721 0.91254 0.0
H453 H 0.52413 0.38131 0.79632 0.0
H454 H 0.57382 0.44425 0.85508 0.0
S455 S 0.41471 0.32648 0.95858 0.0
N456 N 0.41161 0.30776 0.90272 0.0
N457 N 0.46572 0.37628 0.96726 0.0
C458 C 0.48276 0.3797 0.92365 0.0
C459 C 0.45321 0.34252 0.88839 0.0
C460 C 0.75497 0.37901 0.95185 0.0
C461 C 0.77746 0.38567 0.9091 0.0
C462 C 0.73122 0.40777 0.96088 0.0
C463 C 0.72839 0.44361 0.92718 0.0
H464 H 0.75496 0.35073 0.97825 0.0
H465 H 0.71376 0.40088 0.99385 0.0
S466 S 0.78394 0.47916 0.81181 0.0
N467 N 0.79842 0.43451 0.83461 0.0
N468 N 0.75106 0.48601 0.85069 0.0
C469 C 0.75078 0.45118 0.88464 0.0
C470 C 0.77601 0.42284 0.87581 0.0
C471 C 0.75259 0.59558 0.79045 0.0
C472 C 0.79047 0.64272 0.78514 0.0
C473 C 0.73149 0.58126 0.83419 0.0
C474 C 0.74804 0.61294 0.87497 0.0
H475 H 0.73819 0.57016 0.76004 0.0
H476 H 0.70133 0.54518 0.83563 0.0
S477 S 0.84898 0.73932 0.88027 0.0
N478 N 0.84513 0.72049 0.82433 0.0
N479 N 0.80661 0.69329 0.90707 0.0
C480 C 0.78714 0.65966 0.87044 0.0
C481 C 0.80803 0.67458 0.82547 0.0
C482 C 0.68612 0.61564 0.26117 0.0
C483 C 0.73446 0.63979 0.25512 0.0
C484 C 0.65287 0.58995 0.22304 0.0
C485 C 0.66594 0.58728 0.17653 0.0
H486 H 0.67379 0.61494 0.29627 0.0
H487 H 0.61635 0.57117 0.23061 0.0
S488 S 0.78783 0.64614 0.14036 0.0
N489 N 0.79379 0.66103 0.19804 0.0
N490 N 0.73089 0.61263 0.12628 0.0
C491 C 0.71399 0.6125 0.16929 0.0
C492 C 0.74824 0.63851 0.20854 0.0
C493 C 0.40486 0.59726 0.16587 0.0
C494 C 0.41963 0.62457 0.20937 0.0
C495 C 0.425 0.56583 0.15362 0.0
C496 C 0.4611 0.5607 0.18415 0.0
H497 H 0.37862 0.60161 0.14024 0.0
H498 H 0.41371 0.54742 0.1188 0.0
S499 S 0.50923 0.62032 0.30453 0.0
N500 N 0.47016 0.64161 0.28464 0.0
N501 N 0.50767 0.5823 0.26213 0.0
C502 C 0.47411 0.5854 0.22918 0.0
C503 C 0.45348 0.61733 0.24165 0.0
C504 C 0.65553 0.36349 0.20127 0.0
C505 C 0.70339 0.38954 0.19386 0.0
C506 C 0.62108 0.36955 0.1692 0.0
C507 C 0.6335 0.40213 0.12884 0.0
H508 H 0.64496 0.34186 0.23417 0.0
H509 H 0.58504 0.35185 0.17852 0.0
S510 S 0.75348 0.46917 0.08803 0.0
N511 N 0.76093 0.44159 0.13929 0.0
N512 N 0.69644 0.45317 0.07885 0.0
C513 C 0.68083 0.42365 0.11828 0.0
C514 C 0.71574 0.41734 0.15088 0.0
loop_
_geom_bond_atom_site_label_1
_geom_bond_atom_site_label_2
_geom_bond_distance
_geom_bond_site_symmetry_2
_ccdc_geom_bond_type
H0 C1 0.949 . S
C1 H0 0.949 . S
C1 C2 1.395 . S
C1 C3 1.391 . S
C2 C1 1.395 . S
C2 C5 1.390 . S
C3 C1 1.391 . S
C3 C7 1.387 . S
C3 C8 1.491 . S
H4 C5 0.950 . S
C5 C2 1.390 . S
C5 H4 0.950 . S
C5 C6 1.378 . S
C6 C5 1.378 . S
C6 C7 1.409 . S
C7 C3 1.387 . S
C7 C6 1.409 . S
C7 H9 0.951 . S
C8 C3 1.491 . S
C8 C10 1.382 . S
C8 C12 1.404 . S
H9 C7 0.951 . S
C10 C8 1.382 . S
C10 C11 1.390 . S
C10 H15 0.949 . S
C11 C10 1.390 . S
C11 C16 1.399 . S
C12 C8 1.404 . S
C12 H13 0.950 . S
C12 C14 1.375 . S
H13 C12 0.950 . S
C14 C12 1.375 . S
C14 C16 1.382 . S
C14 H18 0.950 . S
H15 C10 0.949 . S
C16 C11 1.399 . S
C16 C14 1.382 . S
C16 H17 0.952 . S
H17 C16 0.952 . S
H18 C14 0.950 . S
H19 C20 0.949 . S
C20 H19 0.949 . S
C20 C21 1.395 . S
C20 C22 1.391 . S
C21 C20 1.395 . S
C21 C24 1.390 . S
C22 C20 1.391 . S
C22 C26 1.387 . S
C22 C27 1.491 . S
H23 C24 0.950 . S
C24 C21 1.390 . S
C24 H23 0.950 . S
C24 C25 1.378 . S
C25 C24 1.378 . S
C25 C26 1.409 . S
C26 C22 1.387 . S
C26 C25 1.409 . S
C26 H28 0.951 . S
C27 C22 1.491 . S
C27 C29 1.382 . S
C27 C31 1.404 . S
H28 C26 0.951 . S
C29 C27 1.382 . S
C29 C30 1.390 . S
C29 H34 0.949 . S
C30 C29 1.390 . S
C30 C35 1.399 . S
C31 C27 1.404 . S
C31 H32 0.950 . S
C31 C33 1.375 . S
H32 C31 0.950 . S
C33 C31 1.375 . S
C33 C35 1.382 . S
C33 H37 0.950 . S
H34 C29 0.949 . S
C35 C30 1.399 . S
C35 C33 1.382 . S
C35 H36 0.952 . S
H36 C35 0.952 . S
H37 C33 0.950 . S
H38 C39 0.949 . S
C39 H38 0.949 . S
C39 C40 1.395 . S
C39 C41 1.391 . S
C40 C39 1.395 . S
C40 C43 1.390 . S
C41 C39 1.391 . S
C41 C45 1.387 . S
C41 C46 1.491 . S
H42 C43 0.950 . S
C43 C40 1.390 . S
C43 H42 0.950 . S
C43 C44 1.378 . S
C44 C43 1.378 . S
C44 C45 1.409 . S
C45 C41 1.387 . S
C45 C44 1.409 . S
C45 H47 0.951 . S
C46 C41 1.491 . S
C46 C48 1.382 . S
C46 C50 1.404 . S
H47 C45 0.951 . S
C48 C46 1.382 . S
C48 C49 1.390 . S
C48 H53 0.949 . S
C49 C48 1.390 . S
C49 C54 1.399 . S
C50 C46 1.404 . S
C50 H51 0.950 . S
C50 C52 1.375 . S
H51 C50 0.950 . S
C52 C50 1.375 . S
C52 C54 1.382 . S
C52 H56 0.950 . S
H53 C48 0.949 . S
C54 C49 1.399 . S
C54 C52 1.382 . S
C54 H55 0.952 . S
H55 C54 0.952 . S
H56 C52 0.950 . S
H57 C58 0.949 . S
C58 H57 0.949 . S
C58 C59 1.395 . S
C58 C60 1.391 . S
C59 C58 1.395 . S
C59 C62 1.390 . S
C60 C58 1.391 . S
C60 C64 1.387 . S
C60 C65 1.491 . S
H61 C62 0.950 . S
C62 C59 1.390 . S
C62 H61 0.950 . S
C62 C63 1.378 . S
C63 C62 1.378 . S
C63 C64 1.409 . S
C64 C60 1.387 . S
C64 C63 1.409 . S
C64 H66 0.951 . S
C65 C60 1.491 . S
C65 C67 1.382 . S
C65 C69 1.404 . S
H66 C64 0.951 . S
C67 C65 1.382 . S
C67 C68 1.390 . S
C67 H72 0.949 . S
C68 C67 1.390 . S
C68 C73 1.399 . S
C69 C65 1.404 . S
C69 H70 0.950 . S
C69 C71 1.375 . S
H70 C69 0.950 . S
C71 C69 1.375 . S
C71 C73 1.382 . S
C71 H75 0.950 . S
H72 C67 0.949 . S
C73 C68 1.399 . S
C73 C71 1.382 . S
C73 H74 0.952 . S
H74 C73 0.952 . S
H75 C71 0.950 . S
H76 C77 0.949 . S
C77 H76 0.949 . S
C77 C78 1.395 . S
C77 C79 1.391 . S
C78 C77 1.395 . S
C78 C81 1.390 . S
C79 C77 1.391 . S
C79 C83 1.387 . S
C79 C84 1.491 . S
H80 C81 0.950 . S
C81 C78 1.390 . S
C81 H80 0.950 . S
C81 C82 1.378 . S
C82 C81 1.378 . S
C82 C83 1.409 . S
C83 C79 1.387 . S
C83 C82 1.409 . S
C83 H85 0.951 . S
C84 C79 1.491 . S
C84 C86 1.382 . S
C84 C88 1.404 . S
H85 C83 0.951 . S
C86 C84 1.382 . S
C86 C87 1.390 . S
C86 H91 0.949 . S
C87 C86 1.390 . S
C87 C92 1.399 . S
C88 C84 1.404 . S
C88 H89 0.950 . S
C88 C90 1.375 . S
H89 C88 0.950 . S
C90 C88 1.375 . S
C90 C92 1.382 . S
C90 H94 0.950 . S
H91 C86 0.949 . S
C92 C87 1.399 . S
C92 C90 1.382 . S
C92 H93 0.952 . S
H93 C92 0.952 . S
H94 C90 0.950 . S
H95 C96 0.949 . S
C96 H95 0.949 . S
C96 C97 1.395 . S
C96 C98 1.391 . S
C97 C96 1.395 . S
C97 C100 1.390 . S
C98 C96 1.391 . S
C98 C102 1.387 . S
C98 C103 1.491 . S
H99 C100 0.950 . S
C100 C97 1.390 . S
C100 H99 0.950 . S
C100 C101 1.378 . S
C101 C100 1.378 . S
C101 C102 1.409 . S
C102 C98 1.387 . S
C102 C101 1.409 . S
C102 H104 0.951 . S
C103 C98 1.491 . S
C103 C105 1.382 . S
C103 C107 1.404 . S
H104 C102 0.951 . S
C105 C103 1.382 . S
C105 C106 1.390 . S
C105 H110 0.949 . S
C106 C105 1.390 . S
C106 C111 1.399 . S
C107 C103 1.404 . S
C107 H108 0.950 . S
C107 C109 1.375 . S
H108 C107 0.950 . S
C109 C107 1.375 . S
C109 C111 1.382 . S
C109 H113 0.950 . S
H110 C105 0.949 . S
C111 C106 1.399 . S
C111 C109 1.382 . S
C111 H112 0.952 . S
H112 C111 0.952 . S
H113 C109 0.950 . S
H114 C115 0.949 . S
C115 H114 0.949 . S
C115 C116 1.395 . S
C115 C117 1.391 . S
C116 C115 1.395 . S
C116 C119 1.390 . S
C117 C115 1.391 . S
C117 C121 1.387 . S
C117 C122 1.491 . S
H118 C119 0.950 . S
C119 C116 1.390 . S
C119 H118 0.950 . S
C119 C120 1.378 . S
C120 C119 1.378 . S
C120 C121 1.409 . S
C121 C117 1.387 . S
C121 C120 1.409 . S
C121 H123 0.951 . S
C122 C117 1.491 . S
C122 C124 1.382 . S
C122 C126 1.404 . S
H123 C121 0.951 . S
C124 C122 1.382 . S
C124 C125 1.390 . S
C124 H129 0.949 . S
C125 C124 1.390 . S
C125 C130 1.399 . S
C126 C122 1.404 . S
C126 H127 0.950 . S
C126 C128 1.375 . S
H127 C126 0.950 . S
C128 C126 1.375 . S
C128 C130 1.382 . S
C128 H132 0.950 . S
H129 C124 0.949 . S
C130 C125 1.399 . S
C130 C128 1.382 . S
C130 H131 0.952 . S
H131 C130 0.952 . S
H132 C128 0.950 . S
H133 C134 0.949 . S
C134 H133 0.949 . S
C134 C135 1.395 . S
C134 C136 1.391 . S
C135 C134 1.395 . S
C135 C138 1.390 . S
C136 C134 1.391 . S
C136 C140 1.387 . S
C136 C141 1.491 . S
H137 C138 0.950 . S
C138 C135 1.390 . S
C138 H137 0.950 . S
C138 C139 1.378 . S
C139 C138 1.378 . S
C139 C140 1.409 . S
C140 C136 1.387 . S
C140 C139 1.409 . S
C140 H142 0.951 . S
C141 C136 1.491 . S
C141 C143 1.382 . S
C141 C145 1.404 . S
H142 C140 0.951 . S
C143 C141 1.382 . S
C143 C144 1.390 . S
C143 H148 0.949 . S
C144 C143 1.390 . S
C144 C149 1.399 . S
C145 C141 1.404 . S
C145 H146 0.950 . S
C145 C147 1.375 . S
H146 C145 0.950 . S
C147 C145 1.375 . S
C147 C149 1.382 . S
C147 H151 0.950 . S
H148 C143 0.949 . S
C149 C144 1.399 . S
C149 C147 1.382 . S
C149 H150 0.952 . S
H150 C149 0.952 . S
H151 C147 0.950 . S
Co152 O155 2.042 . S
Co152 O162 2.264 . S
Co152 O181 2.286 . S
Co152 O182 2.069 . S
Co152 O184 2.015 . S
Co153 O155 2.122 . S
Co153 O161 2.073 . S
Co153 O162 2.327 . S
Co153 O163 1.976 . S
Co154 O155 2.087 . S
Co154 O157 2.087 . S
Co154 O164 2.111 . S
Co154 O165 2.143 1_455 S
Co154 O169 2.111 1_455 S
Co154 O183 2.143 . S
O155 Co152 2.042 . S
O155 Co153 2.122 . S
O155 Co154 2.087 . S
O155 H156 0.980 . S
H156 O155 0.980 . S
O157 Co154 2.087 . S
O157 Co158 2.042 1_455 S
O157 Co159 2.122 1_455 S
O157 H160 0.980 . S
Co158 O157 2.042 1_655 S
Co158 O166 2.286 . S
Co158 O167 2.069 . S
Co158 O168 2.015 . S
Co158 O171 2.264 . S
Co159 O157 2.122 1_655 S
Co159 O170 1.976 . S
Co159 O171 2.327 . S
Co159 O172 2.073 . S
H160 O157 0.980 . S
O161 Co153 2.073 . S
O161 C176 1.245 . S
O162 Co152 2.264 . S
O162 Co153 2.327 . S
O162 C176 1.257 . S
O163 Co153 1.976 . S
O163 C175 1.251 . S
O164 Co154 2.111 . S
O164 C175 1.274 . S
O165 Co154 2.143 1_655 S
O165 C178 1.246 . S
O166 Co158 2.286 . S
O166 C177 1.259 . S
O167 Co158 2.069 . S
O167 C177 1.289 . S
O168 Co158 2.015 . S
O168 C178 1.257 . S
O169 Co154 2.111 1_655 S
O169 C179 1.274 . S
O170 Co159 1.976 . S
O170 C179 1.251 . S
O171 Co158 2.264 . S
O171 Co159 2.327 . S
O171 C180 1.257 . S
O172 Co159 2.073 . S
O172 C180 1.245 . S
C173 O181 1.259 . S
C173 O182 1.289 . S
C174 O183 1.246 . S
C174 O184 1.257 . S
C175 O163 1.251 . S
C175 O164 1.274 . S
C176 O161 1.245 . S
C176 O162 1.257 . S
C177 O166 1.259 . S
C177 O167 1.289 . S
C178 O165 1.246 . S
C178 O168 1.257 . S
C179 O169 1.274 . S
C179 O170 1.251 . S
C180 O171 1.257 . S
C180 O172 1.245 . S
O181 Co152 2.286 . S
O181 C173 1.259 . S
O182 Co152 2.069 . S
O182 C173 1.289 . S
O183 Co154 2.143 . S
O183 C174 1.246 . S
O184 Co152 2.015 . S
O184 C174 1.257 . S
Co185 O188 2.042 . S
Co185 O195 2.264 . S
Co185 O214 2.286 . S
Co185 O215 2.069 . S
Co185 O217 2.015 . S
Co186 O188 2.122 . S
Co186 O194 2.073 . S
Co186 O195 2.327 . S
Co186 O196 1.976 . S
Co187 O188 2.087 1_545 S
Co187 O190 2.087 . S
Co187 O197 2.111 1_545 S
Co187 O198 2.143 . S
Co187 O202 2.111 . S
Co187 O216 2.143 1_545 S
O188 Co185 2.042 . S
O188 Co186 2.122 . S
O188 Co187 2.087 1_565 S
O188 H189 0.980 1_565 S
H189 O188 0.980 1_545 S
O190 Co187 2.087 . S
O190 Co191 2.042 . S
O190 Co192 2.122 . S
O190 H193 0.980 . S
Co191 O190 2.042 . S
Co191 O199 2.286 . S
Co191 O200 2.069 . S
Co191 O201 2.015 . S
Co191 O204 2.264 . S
Co192 O190 2.122 . S
Co192 O203 1.976 . S
Co192 O204 2.327 . S
Co192 O205 2.073 . S
H193 O190 0.980 . S
O194 Co186 2.073 . S
O194 C209 1.245 . S
O195 Co185 2.264 . S
O195 Co186 2.327 . S
O195 C209 1.257 . S
O196 Co186 1.976 . S
O196 C208 1.251 . S
O197 Co187 2.111 1_565 S
O197 C208 1.274 . S
O198 Co187 2.143 . S
O198 C211 1.246 . S
O199 Co191 2.286 . S
O199 C210 1.259 . S
O200 Co191 2.069 . S
O200 C210 1.289 . S
O201 Co191 2.015 . S
O201 C211 1.257 . S
O202 Co187 2.111 . S
O202 C212 1.274 . S
O203 Co192 1.976 . S
O203 C212 1.251 . S
O204 Co191 2.264 . S
O204 Co192 2.327 . S
O204 C213 1.257 . S
O205 Co192 2.073 . S
O205 C213 1.245 . S
C206 O214 1.259 . S
C206 O215 1.289 . S
C207 O216 1.246 . S
C207 O217 1.257 . S
C208 O196 1.251 . S
C208 O197 1.274 . S
C209 O194 1.245 . S
C209 O195 1.257 . S
C210 O199 1.259 . S
C210 O200 1.289 . S
C211 O198 1.246 . S
C211 O201 1.257 . S
C212 O202 1.274 . S
C212 O203 1.251 . S
C213 O204 1.257 . S
C213 O205 1.245 . S
O214 Co185 2.286 . S
O214 C206 1.259 . S
O215 Co185 2.069 . S
O215 C206 1.289 . S
O216 Co187 2.143 1_565 S
O216 C207 1.246 . S
O217 Co185 2.015 . S
O217 C207 1.257 . S
Co218 O221 2.042 . S
Co218 O228 2.264 . S
Co218 O247 2.286 . S
Co218 O248 2.069 . S
Co218 O250 2.015 . S
Co219 O221 2.122 . S
Co219 O227 2.073 . S
Co219 O228 2.327 . S
Co219 O229 1.976 . S
Co220 O221 2.087 . S
Co220 O223 2.087 1_554 S
Co220 O230 2.111 . S
Co220 O231 2.143 1_554 S
Co220 O235 2.111 1_554 S
Co220 O249 2.143 . S
O221 Co218 2.042 . S
O221 Co219 2.122 . S
O221 Co220 2.087 . S
O221 H222 0.980 . S
H222 O221 0.980 . S
O223 Co220 2.087 1_556 S
O223 Co224 2.042 . S
O223 Co225 2.122 . S
O223 H226 0.980 . S
Co224 O223 2.042 . S
Co224 O232 2.286 . S
Co224 O233 2.069 . S
Co224 O234 2.015 . S
Co224 O237 2.264 . S
Co225 O223 2.122 . S
Co225 O236 1.976 . S
Co225 O237 2.327 . S
Co225 O238 2.073 . S
H226 O223 0.980 . S
O227 Co219 2.073 . S
O227 C242 1.245 . S
O228 Co218 2.264 . S
O228 Co219 2.327 . S
O228 C242 1.257 . S
O229 Co219 1.976 . S
O229 C241 1.251 . S
O230 Co220 2.111 . S
O230 C241 1.274 . S
O231 Co220 2.143 1_556 S
O231 C244 1.246 . S
O232 Co224 2.286 . S
O232 C243 1.259 . S
O233 Co224 2.069 . S
O233 C243 1.289 . S
O234 Co224 2.015 . S
O234 C244 1.257 . S
O235 Co220 2.111 1_556 S
O235 C245 1.274 . S
O236 Co225 1.976 . S
O236 C245 1.251 . S
O237 Co224 2.264 . S
O237 Co225 2.327 . S
O237 C246 1.257 . S
O238 Co225 2.073 . S
O238 C246 1.245 . S
C239 O247 1.259 . S
C239 O248 1.289 . S
C240 O249 1.246 . S
C240 O250 1.257 . S
C241 O229 1.251 . S
C241 O230 1.274 . S
C242 O227 1.245 . S
C242 O228 1.257 . S
C243 O232 1.259 . S
C243 O233 1.289 . S
C244 O231 1.246 . S
C244 O234 1.257 . S
C245 O235 1.274 . S
C245 O236 1.251 . S
C246 O237 1.257 . S
C246 O238 1.245 . S
O247 Co218 2.286 . S
O247 C239 1.259 . S
O248 Co218 2.069 . S
O248 C239 1.289 . S
O249 Co220 2.143 . S
O249 C240 1.246 . S
O250 Co218 2.015 . S
O250 C240 1.257 . S
C251 C252 1.369 . S
C251 C253 1.419 . S
C251 H255 0.930 . S
C252 C251 1.369 . S
C252 C261 1.429 . S
C253 C251 1.419 . S
C253 C254 1.363 . S
C253 H256 0.929 . S
C254 C253 1.363 . S
C254 C260 1.428 . S
H255 C251 0.930 . S
H256 C253 0.929 . S
S257 N258 1.613 . S
S257 N259 1.610 . S
N258 S257 1.613 . S
N258 C261 1.350 . S
N259 S257 1.610 . S
N259 C260 1.351 . S
C260 C254 1.428 . S
C260 N259 1.351 . S
C260 C261 1.434 . S
C261 C252 1.429 . S
C261 N258 1.350 . S
C261 C260 1.434 . S
C262 C263 1.369 . S
C262 C264 1.419 . S
C262 H266 0.930 . S
C263 C262 1.369 . S
C263 C272 1.429 . S
C264 C262 1.419 . S
C264 C265 1.363 . S
C264 H267 0.929 . S
C265 C264 1.363 . S
C265 C271 1.428 . S
H266 C262 0.930 . S
H267 C264 0.929 . S
S268 N269 1.613 . S
S268 N270 1.610 . S
N269 S268 1.613 . S
N269 C272 1.350 . S
N270 S268 1.610 . S
N270 C271 1.351 . S
C271 C265 1.428 . S
C271 N270 1.351 . S
C271 C272 1.434 . S
C272 C263 1.429 . S
C272 N269 1.350 . S
C272 C271 1.434 . S
C273 C274 1.369 . S
C273 C275 1.419 . S
C273 H277 0.930 . S
C274 C273 1.369 . S
C274 C283 1.429 . S
C275 C273 1.419 . S
C275 C276 1.363 . S
C275 H278 0.929 . S
C276 C275 1.363 . S
C276 C282 1.428 . S
H277 C273 0.930 . S
H278 C275 0.929 . S
S279 N280 1.613 1_455 S
S279 N281 1.610 . S
N280 S279 1.613 1_655 S
N280 C283 1.350 . S
N281 S279 1.610 . S
N281 C282 1.351 1_455 S
C282 C276 1.428 . S
C282 N281 1.351 1_655 S
C282 C283 1.434 . S
C283 C274 1.429 . S
C283 N280 1.350 . S
C283 C282 1.434 . S
C284 C285 1.369 . S
C284 C286 1.419 . S
C284 H288 0.930 . S
C285 C284 1.369 . S
C285 C294 1.429 . S
C286 C284 1.419 . S
C286 C287 1.363 . S
C286 H289 0.929 . S
C287 C286 1.363 . S
C287 C293 1.428 . S
H288 C284 0.930 . S
H289 C286 0.929 . S
S290 N291 1.613 . S
S290 N292 1.610 . S
N291 S290 1.613 . S
N291 C294 1.350 . S
N292 S290 1.610 . S
N292 C293 1.351 . S
C293 C287 1.428 . S
C293 N292 1.351 . S
C293 C294 1.434 . S
C294 C285 1.429 . S
C294 N291 1.350 . S
C294 C293 1.434 . S
C295 C296 1.369 . S
C295 C297 1.419 . S
C295 H299 0.930 . S
C296 C295 1.369 . S
C296 C305 1.429 . S
C297 C295 1.419 . S
C297 C298 1.363 . S
C297 H300 0.929 . S
C298 C297 1.363 . S
C298 C304 1.428 . S
H299 C295 0.930 . S
H300 C297 0.929 . S
S301 N302 1.613 . S
S301 N303 1.610 . S
N302 S301 1.613 . S
N302 C305 1.350 . S
N303 S301 1.610 . S
N303 C304 1.351 . S
C304 C298 1.428 . S
C304 N303 1.351 . S
C304 C305 1.434 . S
C305 C296 1.429 . S
C305 N302 1.350 . S
C305 C304 1.434 . S
C306 C307 1.369 . S
C306 C308 1.419 . S
C306 H310 0.930 . S
C307 C306 1.369 . S
C307 C316 1.429 . S
C308 C306 1.419 . S
C308 C309 1.363 . S
C308 H311 0.929 . S
C309 C308 1.363 . S
C309 C315 1.428 . S
H310 C306 0.930 . S
H311 C308 0.929 . S
S312 N313 1.613 . S
S312 N314 1.610 . S
N313 S312 1.613 . S
N313 C316 1.350 . S
N314 S312 1.610 . S
N314 C315 1.351 . S
C315 C309 1.428 . S
C315 N314 1.351 . S
C315 C316 1.434 . S
C316 C307 1.429 . S
C316 N313 1.350 . S
C316 C315 1.434 . S
C317 C318 1.369 . S
C317 C319 1.419 . S
C317 H321 0.930 . S
C318 C317 1.369 . S
C318 C327 1.429 . S
C319 C317 1.419 . S
C319 C320 1.363 . S
C319 H322 0.929 . S
C320 C319 1.363 . S
C320 C326 1.428 . S
H321 C317 0.930 . S
H322 C319 0.929 . S
S323 N324 1.613 . S
S323 N325 1.610 . S
N324 S323 1.613 . S
N324 C327 1.350 . S
N325 S323 1.610 . S
N325 C326 1.351 . S
C326 C320 1.428 . S
C326 N325 1.351 . S
C326 C327 1.434 . S
C327 C318 1.429 . S
C327 N324 1.350 . S
C327 C326 1.434 . S
C328 C329 1.369 . S
C328 C330 1.419 . S
C328 H332 0.930 . S
C329 C328 1.369 . S
C329 C338 1.429 . S
C330 C328 1.419 . S
C330 C331 1.363 . S
C330 H333 0.929 . S
C331 C330 1.363 . S
C331 C337 1.428 . S
H332 C328 0.930 . S
H333 C330 0.929 . S
S334 N335 1.613 . S
S334 N336 1.610 . S
N335 S334 1.613 . S
N335 C338 1.350 . S
N336 S334 1.610 . S
N336 C337 1.351 . S
C337 C331 1.428 . S
C337 N336 1.351 . S
C337 C338 1.434 . S
C338 C329 1.429 . S
C338 N335 1.350 . S
C338 C337 1.434 . S
C339 C340 1.369 . S
C339 C341 1.419 . S
C339 H343 0.930 . S
C340 C339 1.369 . S
C340 C349 1.429 . S
C341 C339 1.419 . S
C341 C342 1.363 . S
C341 H344 0.929 . S
C342 C341 1.363 . S
C342 C348 1.428 . S
H343 C339 0.930 . S
H344 C341 0.929 . S
S345 N346 1.613 . S
S345 N347 1.610 . S
N346 S345 1.613 . S
N346 C349 1.350 . S
N347 S345 1.610 . S
N347 C348 1.351 . S
C348 C342 1.428 . S
C348 N347 1.351 . S
C348 C349 1.434 . S
C349 C340 1.429 . S
C349 N346 1.350 . S
C349 C348 1.434 . S
C350 C351 1.369 . S
C350 C352 1.419 . S
C350 H354 0.930 . S
C351 C350 1.369 . S
C351 C360 1.429 . S
C352 C350 1.419 . S
C352 C353 1.363 . S
C352 H355 0.929 . S
C353 C352 1.363 . S
C353 C359 1.428 . S
H354 C350 0.930 . S
H355 C352 0.929 . S
S356 N357 1.613 . S
S356 N358 1.610 . S
N357 S356 1.613 . S
N357 C360 1.350 . S
N358 S356 1.610 . S
N358 C359 1.351 . S
C359 C353 1.428 . S
C359 N358 1.351 . S
C359 C360 1.434 . S
C360 C351 1.429 . S
C360 N357 1.350 . S
C360 C359 1.434 . S
C361 C362 1.369 . S
C361 C363 1.419 . S
C361 H365 0.930 . S
C362 C361 1.369 . S
C362 C371 1.429 . S
C363 C361 1.419 . S
C363 C364 1.363 . S
C363 H366 0.929 . S
C364 C363 1.363 . S
C364 C370 1.428 . S
H365 C361 0.930 . S
H366 C363 0.929 . S
S367 N368 1.613 . S
S367 N369 1.610 . S
N368 S367 1.613 . S
N368 C371 1.350 . S
N369 S367 1.610 . S
N369 C370 1.351 . S
C370 C364 1.428 . S
C370 N369 1.351 . S
C370 C371 1.434 . S
C371 C362 1.429 . S
C371 N368 1.350 . S
C371 C370 1.434 . S
C372 C373 1.369 . S
C372 C374 1.419 . S
C372 H376 0.930 . S
C373 C372 1.369 . S
C373 C382 1.429 . S
C374 C372 1.419 . S
C374 C375 1.363 . S
C374 H377 0.929 . S
C375 C374 1.363 . S
C375 C381 1.428 . S
H376 C372 0.930 . S
H377 C374 0.929 . S
S378 N379 1.613 . S
S378 N380 1.610 . S
N379 S378 1.613 . S
N379 C382 1.350 . S
N380 S378 1.610 . S
N380 C381 1.351 . S
C381 C375 1.428 . S
C381 N380 1.351 . S
C381 C382 1.434 . S
C382 C373 1.429 . S
C382 N379 1.350 . S
C382 C381 1.434 . S
C383 C384 1.369 . S
C383 C385 1.419 . S
C383 H387 0.930 . S
C384 C383 1.369 . S
C384 C393 1.429 . S
C385 C383 1.419 . S
C385 C386 1.363 . S
C385 H388 0.929 . S
C386 C385 1.363 . S
C386 C392 1.428 . S
H387 C383 0.930 . S
H388 C385 0.929 . S
S389 N390 1.613 . S
S389 N391 1.610 . S
N390 S389 1.613 . S
N390 C393 1.350 . S
N391 S389 1.610 . S
N391 C392 1.351 . S
C392 C386 1.428 . S
C392 N391 1.351 . S
C392 C393 1.434 . S
C393 C384 1.429 . S
C393 N390 1.350 . S
C393 C392 1.434 . S
C394 C395 1.369 . S
C394 C396 1.419 . S
C394 H398 0.930 . S
C395 C394 1.369 . S
C395 C404 1.429 . S
C396 C394 1.419 . S
C396 C397 1.363 . S
C396 H399 0.929 . S
C397 C396 1.363 . S
C397 C403 1.428 . S
H398 C394 0.930 . S
H399 C396 0.929 . S
S400 N401 1.613 . S
S400 N402 1.610 . S
N401 S400 1.613 . S
N401 C404 1.350 . S
N402 S400 1.610 . S
N402 C403 1.351 . S
C403 C397 1.428 . S
C403 N402 1.351 . S
C403 C404 1.434 . S
C404 C395 1.429 . S
C404 N401 1.350 . S
C404 C403 1.434 . S
C405 C406 1.369 . S
C405 C407 1.419 . S
C405 H409 0.930 . S
C406 C405 1.369 . S
C406 C415 1.429 . S
C407 C405 1.419 . S
C407 C408 1.363 . S
C407 H410 0.929 . S
C408 C407 1.363 . S
C408 C414 1.428 . S
H409 C405 0.930 . S
H410 C407 0.929 . S
S411 N412 1.613 . S
S411 N413 1.610 . S
N412 S411 1.613 . S
N412 C415 1.350 . S
N413 S411 1.610 . S
N413 C414 1.351 . S
C414 C408 1.428 . S
C414 N413 1.351 . S
C414 C415 1.434 . S
C415 C406 1.429 . S
C415 N412 1.350 . S
C415 C414 1.434 . S
C416 C417 1.369 . S
C416 C418 1.419 . S
C416 H420 0.930 . S
C417 C416 1.369 . S
C417 C426 1.429 . S
C418 C416 1.419 . S
C418 C419 1.363 . S
C418 H421 0.929 1_655 S
C419 C418 1.363 . S
C419 C425 1.428 . S
H420 C416 0.930 . S
H421 C418 0.929 1_455 S
S422 N423 1.613 . S
S422 N424 1.610 . S
N423 S422 1.613 . S
N423 C426 1.350 . S
N424 S422 1.610 . S
N424 C425 1.351 . S
C425 C419 1.428 . S
C425 N424 1.351 . S
C425 C426 1.434 . S
C426 C417 1.429 . S
C426 N423 1.350 . S
C426 C425 1.434 . S
C427 C428 1.369 . S
C427 C429 1.419 . S
C427 H431 0.930 . S
C428 C427 1.369 . S
C428 C437 1.429 . S
C429 C427 1.419 . S
C429 C430 1.363 . S
C429 H432 0.929 . S
C430 C429 1.363 . S
C430 C436 1.428 . S
H431 C427 0.930 . S
H432 C429 0.929 . S
S433 N434 1.613 . S
S433 N435 1.610 . S
N434 S433 1.613 . S
N434 C437 1.350 . S
N435 S433 1.610 . S
N435 C436 1.351 . S
C436 C430 1.428 . S
C436 N435 1.351 . S
C436 C437 1.434 . S
C437 C428 1.429 . S
C437 N434 1.350 . S
C437 C436 1.434 . S
C438 C439 1.369 . S
C438 C440 1.419 . S
C438 H442 0.930 . S
C439 C438 1.369 . S
C439 C448 1.429 . S
C440 C438 1.419 . S
C440 C441 1.363 . S
C440 H443 0.929 . S
C441 C440 1.363 . S
C441 C447 1.428 . S
H442 C438 0.930 . S
H443 C440 0.929 . S
S444 N445 1.613 . S
S444 N446 1.610 . S
N445 S444 1.613 . S
N445 C448 1.350 . S
N446 S444 1.610 . S
N446 C447 1.351 . S
C447 C441 1.428 . S
C447 N446 1.351 . S
C447 C448 1.434 . S
C448 C439 1.429 . S
C448 N445 1.350 . S
C448 C447 1.434 . S
C449 C450 1.369 . S
C449 C451 1.419 . S
C449 H453 0.930 . S
C450 C449 1.369 . S
C450 C459 1.429 . S
C451 C449 1.419 . S
C451 C452 1.363 . S
C451 H454 0.929 . S
C452 C451 1.363 . S
C452 C458 1.428 . S
H453 C449 0.930 . S
H454 C451 0.929 . S
S455 N456 1.613 . S
S455 N457 1.610 . S
N456 S455 1.613 . S
N456 C459 1.350 . S
N457 S455 1.610 . S
N457 C458 1.351 . S
C458 C452 1.428 . S
C458 N457 1.351 . S
C458 C459 1.434 . S
C459 C450 1.429 . S
C459 N456 1.350 . S
C459 C458 1.434 . S
C460 C461 1.369 . S
C460 C462 1.419 . S
C460 H464 0.930 . S
C461 C460 1.369 . S
C461 C470 1.429 . S
C462 C460 1.419 . S
C462 C463 1.363 . S
C462 H465 0.929 . S
C463 C462 1.363 . S
C463 C469 1.428 . S
H464 C460 0.930 . S
H465 C462 0.929 . S
S466 N467 1.613 . S
S466 N468 1.610 . S
N467 S466 1.613 . S
N467 C470 1.350 . S
N468 S466 1.610 . S
N468 C469 1.351 . S
C469 C463 1.428 . S
C469 N468 1.351 . S
C469 C470 1.434 . S
C470 C461 1.429 . S
C470 N467 1.350 . S
C470 C469 1.434 . S
C471 C472 1.369 . S
C471 C473 1.419 . S
C471 H475 0.930 . S
C472 C471 1.369 . S
C472 C481 1.429 . S
C473 C471 1.419 . S
C473 C474 1.363 . S
C473 H476 0.929 . S
C474 C473 1.363 . S
C474 C480 1.428 . S
H475 C471 0.930 . S
H476 C473 0.929 . S
S477 N478 1.613 . S
S477 N479 1.610 . S
N478 S477 1.613 . S
N478 C481 1.350 . S
N479 S477 1.610 . S
N479 C480 1.351 . S
C480 C474 1.428 . S
C480 N479 1.351 . S
C480 C481 1.434 . S
C481 C472 1.429 . S
C481 N478 1.350 . S
C481 C480 1.434 . S
C482 C483 1.369 . S
C482 C484 1.419 . S
C482 H486 0.930 . S
C483 C482 1.369 . S
C483 C492 1.429 . S
C484 C482 1.419 . S
C484 C485 1.363 . S
C484 H487 0.929 . S
C485 C484 1.363 . S
C485 C491 1.428 . S
H486 C482 0.930 . S
H487 C484 0.929 . S
S488 N489 1.613 . S
S488 N490 1.610 . S
N489 S488 1.613 . S
N489 C492 1.350 . S
N490 S488 1.610 . S
N490 C491 1.351 . S
C491 C485 1.428 . S
C491 N490 1.351 . S
C491 C492 1.434 . S
C492 C483 1.429 . S
C492 N489 1.350 . S
C492 C491 1.434 . S
C493 C494 1.369 . S
C493 C495 1.419 . S
C493 H497 0.930 . S
C494 C493 1.369 . S
C494 C503 1.429 . S
C495 C493 1.419 . S
C495 C496 1.363 . S
C495 H498 0.929 . S
C496 C495 1.363 . S
C496 C502 1.428 . S
H497 C493 0.930 . S
H498 C495 0.929 . S
S499 N500 1.613 . S
S499 N501 1.610 . S
N500 S499 1.613 . S
N500 C503 1.350 . S
N501 S499 1.610 . S
N501 C502 1.351 . S
C502 C496 1.428 . S
C502 N501 1.351 . S
C502 C503 1.434 . S
C503 C494 1.429 . S
C503 N500 1.350 . S
C503 C502 1.434 . S
C504 C505 1.369 . S
C504 C506 1.419 . S
C504 H508 0.930 . S
C505 C504 1.369 . S
C505 C514 1.429 . S
C506 C504 1.419 . S
C506 C507 1.363 . S
C506 H509 0.929 . S
C507 C506 1.363 . S
C507 C513 1.428 . S
H508 C504 0.930 . S
H509 C506 0.929 . S
S510 N511 1.613 . S
S510 N512 1.610 . S
N511 S510 1.613 . S
N511 C514 1.350 . S
N512 S510 1.610 . S
N512 C513 1.351 . S
C513 C507 1.428 . S
C513 N512 1.351 . S
C513 C514 1.434 . S
C514 C505 1.429 . S
C514 N511 1.350 . S
C514 C513 1.434 . S
C254 C176 1.513 . S
C252 C11 1.458 . S
C265 C212 1.343 . S
C263 C25 1.386 . S
C276 C177 1.756 . S
C274 C40 1.768 . S
C287 C207 1.610 . S
C285 C59 1.669 . S
C298 C174 1.460 . S
C296 C82 1.516 . S
C307 C101 2.011 . S
C309 C210 2.014 . S
C318 C116 0.650 . S
C320 C179 0.705 . S
C331 C209 1.595 . S
C329 C144 1.394 . S
C342 C213 1.880 . S
C340 C2 1.915 . S
C353 C178 1.124 . S
C351 C21 1.128 . S
C364 C206 1.652 . S
C362 C49 1.354 . S
C375 C175 1.244 . S
C373 C63 1.394 . S
C386 C208 1.812 . S
C384 C78 1.932 . S
C395 C106 1.313 . S
C397 C173 1.345 . S
C406 C120 1.184 . S
C408 C211 1.206 . S
C419 C180 1.654 . S
C417 C135 1.757 . S
C430 C242 1.863 . S
C428 C6 1.973 . S
C439 C87 1.714 . S
C441 C245 1.776 . S
C452 C244 2.103 . S
C450 C97 2.153 . S
C461 C125 1.039 . S
C463 C243 1.097 . S
C474 C246 1.942 . S
C472 C139 2.057 . S
C483 C44 1.949 . S
C485 C240 1.918 . S
C496 C239 1.919 . S
C494 C68 1.869 . S
C505 C30 0.892 . S
C507 C241 0.971 . S
