# Generated by pormake.
# Topology pyr, (3,6)-cn, num edge types: 1
# Building blocks:
#     Node 0, Type 0, BuildingBlock: BETDIP_clean_linker_0, # of connection points: 3
#     Node 1, Type 0, BuildingBlock: BETDIP_clean_linker_0, # of connection points: 3
#     Node 2, Type 0, BuildingBlock: BETDIP_clean_linker_0, # of connection points: 3
#     Node 3, Type 0, BuildingBlock: BETDIP_clean_linker_0, # of connection points: 3
#     Node 4, Type 0, BuildingBlock: BETDIP_clean_linker_0, # of connection points: 3
#     Node 5, Type 0, BuildingBlock: BETDIP_clean_linker_0, # of connection points: 3
#     Node 6, Type 0, BuildingBlock: BETDIP_clean_linker_0, # of connection points: 3
#     Node 7, Type 0, BuildingBlock: BETDIP_clean_linker_0, # of connection points: 3
#     Node 8, Type 1, BuildingBlock: LEVNOQ01_clean_sbu_1, # of connection points: 6
#     Node 9, Type 1, BuildingBlock: LEVNOQ01_clean_sbu_1, # of connection points: 6
#     Node 10, Type 1, BuildingBlock: LEVNOQ01_clean_sbu_1, # of connection points: 6
#     Node 11, Type 1, BuildingBlock: LEVNOQ01_clean_sbu_1, # of connection points: 6
#     Edge 12, Type (0, 1), BuildingBlock: ZUJKAS_clean_linker_0, # of connection points: 2
#     Edge 13, Type (0, 1), BuildingBlock: ZUJKAS_clean_linker_0, # of connection points: 2
#     Edge 14, Type (0, 1), BuildingBlock: ZUJKAS_clean_linker_0, # of connection points: 2
#     Edge 15, Type (0, 1), BuildingBlock: ZUJKAS_clean_linker_0, # of connection points: 2
#     Edge 16, Type (0, 1), BuildingBlock: ZUJKAS_clean_linker_0, # of connection points: 2
#     Edge 17, Type (0, 1), BuildingBlock: ZUJKAS_clean_linker_0, # of connection points: 2
#     Edge 18, Type (0, 1), BuildingBlock: ZUJKAS_clean_linker_0, # of connection points: 2
#     Edge 19, Type (0, 1), BuildingBlock: ZUJKAS_clean_linker_0, # of connection points: 2
#     Edge 20, Type (0, 1), BuildingBlock: ZUJKAS_clean_linker_0, # of connection points: 2
#     Edge 21, Type (0, 1), BuildingBlock: ZUJKAS_clean_linker_0, # of connection points: 2
#     Edge 22, Type (0, 1), BuildingBlock: ZUJKAS_clean_linker_0, # of connection points: 2
#     Edge 23, Type (0, 1), BuildingBlock: ZUJKAS_clean_linker_0, # of connection points: 2
#     Edge 24, Type (0, 1), BuildingBlock: ZUJKAS_clean_linker_0, # of connection points: 2
#     Edge 25, Type (0, 1), BuildingBlock: ZUJKAS_clean_linker_0, # of connection points: 2
#     Edge 26, Type (0, 1), BuildingBlock: ZUJKAS_clean_linker_0, # of connection points: 2
#     Edge 27, Type (0, 1), BuildingBlock: ZUJKAS_clean_linker_0, # of connection points: 2
#     Edge 28, Type (0, 1), BuildingBlock: ZUJKAS_clean_linker_0, # of connection points: 2
#     Edge 29, Type (0, 1), BuildingBlock: ZUJKAS_clean_linker_0, # of connection points: 2
#     Edge 30, Type (0, 1), BuildingBlock: ZUJKAS_clean_linker_0, # of connection points: 2
#     Edge 31, Type (0, 1), BuildingBlock: ZUJKAS_clean_linker_0, # of connection points: 2
#     Edge 32, Type (0, 1), BuildingBlock: ZUJKAS_clean_linker_0, # of connection points: 2
#     Edge 33, Type (0, 1), BuildingBlock: ZUJKAS_clean_linker_0, # of connection points: 2
#     Edge 34, Type (0, 1), BuildingBlock: ZUJKAS_clean_linker_0, # of connection points: 2
#     Edge 35, Type (0, 1), BuildingBlock: ZUJKAS_clean_linker_0, # of connection points: 2
# Relax obj value: 0.081
# Max RMSD: 0.174
# Mean RMSD: 0.137
data_MOF--net-pry--node1-LEVNOQ01_clean_sbu_1--node2-BETDIP_clean_linker_0--edge1-ZUJKAS_clean_linker_0
_symmetry_space_group_name_H-M    P1
_symmetry_Int_Tables_number       1
_symmetry_cell_setting            triclinic
loop_
_symmetry_equiv_pos_as_xyz
'x, y, z'
_cell_length_a     47.43797
_cell_length_b     45.29565
_cell_length_c     47.403796
_cell_angle_alpha  95.433484
_cell_angle_beta   86.957592
_cell_angle_gamma 100.11035
loop_
_atom_site_label
_atom_site_type_symbol
_atom_site_fract_x
_atom_site_fract_y
_atom_site_fract_z
_atom_type_partial_charge
H0 H 0.11856 0.16719 0.18459 0.0
H1 H 0.17628 0.16127 0.11218 0.0
H2 H 0.18051 0.10825 0.18223 0.0
H3 H 0.14171 0.17887 0.0905 0.0
C4 C 0.13425 0.19487 0.10644 0.0
C5 C 0.13601 0.15763 0.17377 0.0
C6 C 0.14778 0.1358 0.18626 0.0
C7 C 0.14592 0.16677 0.147 0.0
C8 C 0.16849 0.15419 0.13272 0.0
C9 C 0.18133 0.13284 0.14507 0.0
C10 C 0.17057 0.12387 0.17188 0.0
N11 N 0.13335 0.18936 0.13564 0.0
H12 H 0.3635 0.92502 0.6668 0.0
H13 H 0.36577 0.8558 0.59851 0.0
H14 H 0.41968 0.86045 0.66931 0.0
H15 H 0.32139 0.86012 0.5933 0.0
C16 C 0.31912 0.88325 0.59967 0.0
C17 C 0.37219 0.90574 0.6571 0.0
C18 C 0.39348 0.89493 0.67069 0.0
C19 C 0.361 0.89091 0.63173 0.0
C20 C 0.37266 0.86615 0.61903 0.0
C21 C 0.39369 0.85474 0.63241 0.0
C22 C 0.40383 0.86922 0.65842 0.0
N23 N 0.33773 0.90098 0.61984 0.0
H24 H 0.65953 0.45633 0.88282 0.0
H25 H 0.59463 0.37758 0.86949 0.0
H26 H 0.66301 0.37715 0.92495 0.0
H27 H 0.57102 0.40835 0.84904 0.0
C28 C 0.58863 0.42293 0.83909 0.0
C29 C 0.64999 0.43381 0.88788 0.0
C30 C 0.6637 0.41875 0.90611 0.0
C31 C 0.6248 0.4195 0.87494 0.0
C32 C 0.61323 0.38967 0.88037 0.0
C33 C 0.62698 0.37437 0.89839 0.0
C34 C 0.65193 0.38918 0.91156 0.0
N35 N 0.61389 0.43441 0.85403 0.0
H36 H 0.85796 0.54567 0.39977 0.0
H37 H 0.92972 0.61828 0.40012 0.0
H38 H 0.8554 0.62635 0.45423 0.0
H39 H 0.95107 0.587 0.36924 0.0
C40 C 0.93234 0.57519 0.3582 0.0
C41 C 0.86831 0.56774 0.40828 0.0
C42 C 0.85424 0.58415 0.42931 0.0
C43 C 0.89532 0.58002 0.39738 0.0
C44 C 0.90868 0.60885 0.40817 0.0
C45 C 0.89468 0.62577 0.42913 0.0
C46 C 0.86731 0.61316 0.4393 0.0
N47 N 0.90701 0.56398 0.37377 0.0
H48 H 0.8324 0.87543 0.92569 0.0
H49 H 0.89423 0.86652 0.85723 0.0
H50 H 0.83537 0.92829 0.85437 0.0
H51 H 0.92 0.85497 0.89442 0.0
C52 C 0.90332 0.8403 0.90549 0.0
C53 C 0.84202 0.88237 0.9056 0.0
C54 C 0.83085 0.9036 0.89156 0.0
C55 C 0.86532 0.8695 0.89382 0.0
C56 C 0.87722 0.87745 0.86712 0.0
C57 C 0.86614 0.89824 0.85237 0.0
C58 C 0.84333 0.9115 0.86509 0.0
N59 N 0.87516 0.84742 0.9086 0.0
H60 H 0.65088 0.1044 0.36688 0.0
H61 H 0.65191 0.17403 0.43504 0.0
H62 H 0.59315 0.16829 0.36797 0.0
H63 H 0.70355 0.16999 0.42415 0.0
C64 C 0.70055 0.14592 0.42618 0.0
C65 C 0.64204 0.12341 0.37698 0.0
C66 C 0.6205 0.13446 0.36389 0.0
C67 C 0.65375 0.13782 0.40225 0.0
C68 C 0.64309 0.16298 0.41537 0.0
C69 C 0.62124 0.17408 0.40301 0.0
C70 C 0.61016 0.15979 0.3773 0.0
N71 N 0.67653 0.1268 0.41381 0.0
H72 H 0.35517 0.59895 0.16445 0.0
H73 H 0.41625 0.6805 0.17725 0.0
H74 H 0.35375 0.6723 0.11342 0.0
H75 H 0.41175 0.66844 0.22181 0.0
C76 C 0.4093 0.64408 0.22063 0.0
C77 C 0.36418 0.62122 0.15833 0.0
C78 C 0.35182 0.63346 0.13687 0.0
C79 C 0.38705 0.63821 0.17323 0.0
C80 C 0.39855 0.66727 0.1658 0.0
C81 C 0.38659 0.67984 0.14431 0.0
C82 C 0.36348 0.66258 0.12967 0.0
N83 N 0.39673 0.6262 0.19678 0.0
H84 H 0.05935 0.3831 0.63866 0.0
H85 H 0.13338 0.45324 0.64389 0.0
H86 H 0.13327 0.37654 0.58359 0.0
H87 H 0.10961 0.47493 0.67819 0.0
C88 C 0.09348 0.45751 0.68644 0.0
C89 C 0.08063 0.39258 0.63095 0.0
C90 C 0.09437 0.37699 0.60893 0.0
C91 C 0.09445 0.41991 0.64393 0.0
C92 C 0.12225 0.4322 0.63419 0.0
C93 C 0.13619 0.41694 0.61196 0.0
C94 C 0.12209 0.3893 0.59962 0.0
N95 N 0.08071 0.43264 0.66828 0.0
O96 O 0.00452 0.01674 0.59444 0.0
Mg97 Mg 0.03638 0.0413 0.56966 0.0
O98 O 0.98404 0.98683 0.55849 0.0
Mg99 Mg 0.00454 0.00467 0.51435 0.0
O100 O 0.01984 0.05153 0.53428 0.0
O101 O 0.03959 0.08678 0.56653 0.0
O102 O 0.02558 0.02244 0.47026 0.0
O103 O 0.9614 0.02249 0.50793 0.0
Mg104 Mg 0.97099 0.97165 0.46131 0.0
O105 O 0.98815 0.95683 0.49475 0.0
O106 O 0.00329 0.99352 0.43491 0.0
O107 O 0.9363 0.9934 0.47447 0.0
O108 O 0.96548 0.92595 0.46037 0.0
C109 C 0.07032 0.99757 0.53741 0.0
C110 C 0.98643 0.99436 0.58522 0.0
C111 C 0.02726 0.07961 0.54265 0.0
C112 C 0.02286 0.01469 0.44361 0.0
C113 C 0.93879 0.01515 0.49351 0.0
C114 C 0.97892 0.9298 0.48374 0.0
O115 O 0.07023 0.01931 0.55632 0.0
O116 O 0.04876 0.98828 0.52162 0.0
O117 O 0.46428 0.06646 0.05761 0.0
Mg118 Mg 0.50635 0.07439 0.04038 0.0
O119 O 0.45782 0.02714 0.02666 0.0
Mg120 Mg 0.50665 0.02256 0.01511 0.0
O121 O 0.51905 0.0714 0.99814 0.0
O122 O 0.50864 0.11323 0.02301 0.0
O123 O 0.55516 0.01679 1.00213 0.0
O124 O 0.49127 0.01102 0.96731 0.0
Mg125 Mg 0.50975 0.95802 0.99132 0.0
O126 O 0.49348 0.97433 0.02915 0.0
O127 O 0.55439 0.96889 0.98648 0.0
O128 O 0.48526 0.9617 0.95715 0.0
O129 O 0.49358 0.92528 0.01671 0.0
C130 C 0.53507 0.05533 0.07904 0.0
C131 C 0.44757 0.04512 0.04518 0.0
C132 C 0.51765 0.09999 0.99994 0.0
C133 C 0.56809 0.99517 0.99224 0.0
C134 C 0.48285 0.98752 0.95063 0.0
C135 C 0.48711 0.94639 0.03482 0.0
O136 O 0.53809 0.08053 0.06915 0.0
O137 O 0.52203 0.03217 0.06435 0.0
O138 O 0.50366 0.57671 0.57237 0.0
Mg139 Mg 0.49176 0.53181 0.58009 0.0
O140 O 0.48909 0.55995 0.5297 0.0
Mg141 Mg 0.49815 0.50954 0.52063 0.0
O142 O 0.51875 0.50427 0.56287 0.0
O143 O 0.51553 0.51941 0.60931 0.0
O144 O 0.50716 0.45972 0.50939 0.0
O145 O 0.54579 0.5311 0.51006 0.0
Mg146 Mg 0.51717 0.50826 0.46789 0.0
O147 O 0.47555 0.51276 0.47793 0.0
O148 O 0.53288 0.46819 0.47031 0.0
O149 O 0.54723 0.54794 0.46828 0.0
O150 O 0.49321 0.50216 0.43377 0.0
C151 C 0.43699 0.49476 0.55809 0.0
C152 C 0.49541 0.58173 0.54874 0.0
C153 C 0.5271 0.50461 0.58856 0.0
C154 C 0.52346 0.45082 0.48924 0.0
C155 C 0.55915 0.54706 0.49123 0.0
C156 C 0.47256 0.5087 0.45063 0.0
O157 O 0.44813 0.51165 0.5789 0.0
O158 O 0.45181 0.48982 0.53541 0.0
O159 O 0.99633 0.44622 0.04516 0.0
Mg160 Mg 0.00782 0.49172 0.05973 0.0
O161 O 0.02582 0.46835 0.01407 0.0
Mg162 Mg 0.01122 0.51683 0.01145 0.0
O163 O 0.98254 0.52243 0.0536 0.0
O164 O 0.98227 0.49891 0.09348 0.0
O165 O 0.99957 0.56556 0.00564 0.0
O166 O 0.96996 0.49482 0.98959 0.0
Mg167 Mg 0.01555 0.53673 0.94674 0.0
O168 O 0.03625 0.51349 0.97043 0.0
O169 O 0.0195 0.58121 0.96506 0.0
O170 O 0.97294 0.5109 0.94627 0.0
O171 O 0.05017 0.5201 0.92612 0.0
C172 C 0.06469 0.53165 0.05323 0.0
C173 C 0.01528 0.44441 0.02588 0.0
C174 C 0.97259 0.51753 0.07916 0.0
C175 C 0.0065 0.5863 0.98856 0.0
C176 C 0.95923 0.49589 0.96565 0.0
C177 C 0.0524 0.50728 0.94885 0.0
O178 O 0.05147 0.51069 0.06736 0.0
O179 O 0.053 0.53971 0.03232 0.0
H180 H 0.13363 0.16982 0.23443 0.0
H181 H 0.11605 0.15244 0.28062 0.0
H182 H 0.11758 0.0607 0.24753 0.0
H183 H 0.13567 0.07798 0.2016 0.0
H184 H 0.06858 0.11623 0.29745 0.0
H185 H 0.16173 0.06389 0.3176 0.0
H186 H 0.16208 0.08768 0.2891 0.0
H187 H 0.14541 0.04868 0.28491 0.0
C188 C 0.13021 0.14593 0.237 0.0
C189 C 0.1364 0.12534 0.21434 0.0
C190 C 0.12021 0.13601 0.26348 0.0
C191 C 0.1161 0.10526 0.26796 0.0
C192 C 0.12147 0.08461 0.24508 0.0
H193 H 0.04046 0.98914 0.39341 0.0
H194 H 0.06504 0.01385 0.35328 0.0
C195 C 0.13172 0.09453 0.21872 0.0
C196 C 0.10571 0.09474 0.2963 0.0
H197 H 0.11995 0.05161 0.34761 0.0
C198 C 0.08005 0.10246 0.30859 0.0
C199 C 0.12062 0.07678 0.31104 0.0
C200 C 0.14913 0.06902 0.30013 0.0
C201 C 0.06842 0.09183 0.33447 0.0
C202 C 0.08295 0.07323 0.34875 0.0
C203 C 0.10886 0.06598 0.33678 0.0
C204 C 0.07024 0.0587 0.3746 0.0
C205 C 0.04003 0.09952 0.34579 0.0
C206 C 0.06575 0.07554 0.40051 0.0
C207 C 0.05188 0.06128 0.42389 0.0
C208 C 0.04201 0.03002 0.42154 0.0
C209 C 0.04764 0.01328 0.39592 0.0
C210 C 0.06171 0.02738 0.37288 0.0
H211 H 0.02934 0.11006 0.33004 0.0
H212 H 0.02543 0.079 0.35199 0.0
H213 H 0.04351 0.11554 0.36499 0.0
H214 H 0.07249 0.09973 0.40247 0.0
H215 H 0.0477 0.07481 0.44324 0.0
H216 H 0.41745 0.95385 0.68361 0.0
H217 H 0.43636 0.97733 0.72923 0.0
H218 H 0.41047 0.89266 0.76592 0.0
H219 H 0.39296 0.86902 0.72018 0.0
H220 H 0.41282 0.98687 0.78 0.0
H221 H 0.49095 0.91169 0.78954 0.0
H222 H 0.47275 0.91184 0.75712 0.0
H223 H 0.45581 0.89009 0.78528 0.0
C224 C 0.416 0.94033 0.70147 0.0
C225 C 0.40408 0.90958 0.69838 0.0
C226 C 0.42679 0.95372 0.7275 0.0
C227 C 0.42559 0.93663 0.75094 0.0
C228 C 0.41272 0.90612 0.74798 0.0
H229 H 0.43857 0.94968 0.92682 0.0
H230 H 0.42603 0.94361 0.87711 0.0
C231 C 0.40248 0.89265 0.7219 0.0
C232 C 0.43699 0.95061 0.77874 0.0
H233 H 0.47681 0.93835 0.83312 0.0
C234 C 0.42726 0.97658 0.79136 0.0
C235 C 0.45628 0.93762 0.79353 0.0
C236 C 0.46978 0.91149 0.78048 0.0
C237 C 0.43476 0.98855 0.81901 0.0
C238 C 0.45219 0.97409 0.83442 0.0
C239 C 0.46317 0.94921 0.8213 0.0
C240 C 0.45673 0.98194 0.86512 0.0
C241 C 0.42305 0.0157 0.83221 0.0
C242 C 0.47749 0.00628 0.8751 0.0
C243 C 0.48454 0.01004 0.90383 0.0
C244 C 0.47113 0.98922 0.92265 0.0
C245 C 0.44923 0.96605 0.91278 0.0
C246 C 0.44209 0.9625 0.88438 0.0
H247 H 0.40999 0.02466 0.81734 0.0
H248 H 0.40961 0.00971 0.85141 0.0
H249 H 0.44102 0.03373 0.83904 0.0
H250 H 0.48918 0.02139 0.86046 0.0
H251 H 0.50178 0.02781 0.91082 0.0
H252 H 0.54572 0.3999 0.80384 0.0
H253 H 0.54377 0.40653 0.7533 0.0
H254 H 0.62661 0.46387 0.7561 0.0
H255 H 0.62885 0.45709 0.80642 0.0
H256 H 0.54603 0.4616 0.73125 0.0
H257 H 0.63506 0.40492 0.68565 0.0
H258 H 0.6191 0.39898 0.72057 0.0
H259 H 0.64423 0.43266 0.71488 0.0
C260 C 0.56351 0.41383 0.7936 0.0
C261 C 0.58735 0.42797 0.80896 0.0
C262 C 0.56247 0.41745 0.76479 0.0
C263 C 0.58534 0.43514 0.75092 0.0
C264 C 0.60912 0.44947 0.76627 0.0
H265 H 0.58018 0.52673 0.60621 0.0
H266 H 0.60262 0.50333 0.64141 0.0
C267 C 0.61019 0.44584 0.79509 0.0
C268 C 0.58306 0.44067 0.72102 0.0
H269 H 0.61407 0.43274 0.65456 0.0
C270 C 0.56073 0.45504 0.71446 0.0
C271 C 0.60251 0.43225 0.6993 0.0
C272 C 0.62647 0.41612 0.70531 0.0
C273 C 0.55739 0.46154 0.68675 0.0
C274 C 0.5768 0.4532 0.66499 0.0
C275 C 0.5992 0.43882 0.67139 0.0
C276 C 0.57391 0.4607 0.63589 0.0
C277 C 0.5333 0.47772 0.68091 0.0
C278 C 0.55229 0.44333 0.61938 0.0
C279 C 0.53963 0.45662 0.59904 0.0
C280 C 0.54856 0.48724 0.59544 0.0
C281 C 0.57322 0.50296 0.6086 0.0
C282 C 0.58602 0.48963 0.62873 0.0
H283 H 0.52086 0.48369 0.7005 0.0
H284 H 0.54201 0.49871 0.67079 0.0
H285 H 0.51841 0.46325 0.66598 0.0
H286 H 0.54264 0.421 0.62484 0.0
H287 H 0.52037 0.44431 0.58932 0.0
H288 H 0.97612 0.59663 0.32259 0.0
H289 H 0.97559 0.59657 0.27083 0.0
H290 H 0.88725 0.55259 0.27223 0.0
H291 H 0.88756 0.55252 0.32372 0.0
H292 H 0.96179 0.54222 0.23414 0.0
H293 H 0.88939 0.62386 0.22147 0.0
H294 H 0.90798 0.62348 0.25372 0.0
H295 H 0.87687 0.59572 0.24572 0.0
C296 C 0.95661 0.58704 0.31179 0.0
C297 C 0.932 0.57448 0.32707 0.0
C298 C 0.95627 0.58721 0.28238 0.0
C299 C 0.9312 0.57513 0.26794 0.0
C300 C 0.90656 0.56265 0.28315 0.0
H301 H 0.91979 0.49708 0.10053 0.0
H302 H 0.90186 0.51846 0.14572 0.0
C303 C 0.90693 0.56233 0.31252 0.0
C304 C 0.93165 0.57282 0.23671 0.0
H305 H 0.9024 0.59512 0.17957 0.0
C306 C 0.94903 0.55398 0.22219 0.0
C307 C 0.91476 0.58811 0.22138 0.0
C308 C 0.89631 0.60914 0.23627 0.0
C309 C 0.94973 0.54962 0.19262 0.0
C310 C 0.93255 0.56454 0.17722 0.0
C311 C 0.91538 0.58372 0.1916 0.0
C312 C 0.93277 0.55967 0.14609 0.0
C313 C 0.96858 0.52871 0.17799 0.0
C314 C 0.95404 0.57725 0.13024 0.0
C315 C 0.96401 0.56521 0.10414 0.0
C316 C 0.9529 0.53551 0.09422 0.0
C317 C 0.92845 0.52014 0.1078 0.0
C318 C 0.91826 0.5323 0.13366 0.0
H319 H 0.98249 0.52111 0.19298 0.0
H320 H 0.95498 0.50852 0.16771 0.0
H321 H 0.98243 0.54001 0.16118 0.0
H322 H 0.96553 0.59837 0.13969 0.0
H323 H 0.98313 0.57724 0.09411 0.0
H324 H 0.22418 0.16075 0.10972 0.0
H325 H 0.26511 0.14098 0.08725 0.0
H326 H 0.23872 0.05845 0.12727 0.0
H327 H 0.19616 0.07665 0.1474 0.0
H328 H 0.30873 0.12811 0.10851 0.0
H329 H 0.25674 0.0221 0.05156 0.0
H330 H 0.23643 0.04992 0.06742 0.0
H331 H 0.24709 0.023 0.08862 0.0
C332 C 0.22636 0.13798 0.11311 0.0
C333 C 0.20635 0.12046 0.13053 0.0
C334 C 0.25018 0.12679 0.10042 0.0
C335 C 0.25503 0.09789 0.10501 0.0
C336 C 0.23526 0.08041 0.1225 0.0
H337 H 0.42047 0.04363 0.09669 0.0
H338 H 0.37215 0.05394 0.10909 0.0
C339 C 0.21106 0.09127 0.13464 0.0
C340 C 0.28168 0.08702 0.0931 0.0
H341 H 0.30732 0.02671 0.05827 0.0
C342 C 0.30822 0.10604 0.09727 0.0
C343 C 0.28139 0.05829 0.07806 0.0
C344 C 0.25384 0.03733 0.07089 0.0
C345 C 0.33418 0.09695 0.08769 0.0
C346 C 0.3339 0.06774 0.07406 0.0
C347 C 0.30751 0.04895 0.06906 0.0
C348 C 0.36108 0.05641 0.06582 0.0
C349 C 0.36187 0.11873 0.09212 0.0
C350 C 0.37037 0.05277 0.03723 0.0
C351 C 0.39791 0.04625 0.03005 0.0
C352 C 0.41648 0.04343 0.05141 0.0
C353 C 0.40646 0.04542 0.07983 0.0
C354 C 0.37897 0.05154 0.08694 0.0
H355 H 0.35816 0.14208 0.09817 0.0
H356 H 0.37357 0.1117 0.10929 0.0
H357 H 0.3758 0.11865 0.07253 0.0
H358 H 0.35695 0.05655 0.0206 0.0
H359 H 0.40538 0.04555 0.00804 0.0
H360 H 0.28186 0.85365 0.56125 0.0
H361 H 0.2401 0.87011 0.54353 0.0
H362 H 0.25862 0.9536 0.59626 0.0
H363 H 0.30067 0.9374 0.61383 0.0
H364 H 0.19222 0.88587 0.57537 0.0
H365 H 0.2494 0.98096 0.51747 0.0
H366 H 0.26725 0.95211 0.5285 0.0
H367 H 0.25926 0.98205 0.55366 0.0
C368 C 0.27711 0.87561 0.56892 0.0
C369 C 0.29453 0.89428 0.58882 0.0
C370 C 0.25325 0.88494 0.55881 0.0
C371 C 0.24645 0.91319 0.5683 0.0
C372 C 0.26381 0.93193 0.58824 0.0
H373 H 0.12124 0.0204 0.5605 0.0
H374 H 0.16231 0.99639 0.56351 0.0
C375 C 0.28775 0.92261 0.59835 0.0
C376 C 0.2207 0.92265 0.55799 0.0
H377 H 0.199 0.97778 0.52458 0.0
C378 C 0.19361 0.90576 0.56395 0.0
C379 C 0.22268 0.94844 0.54292 0.0
C380 C 0.25121 0.96683 0.53499 0.0
C381 C 0.16832 0.91499 0.55671 0.0
C382 C 0.17027 0.94139 0.54244 0.0
C383 C 0.19747 0.95745 0.53537 0.0
C384 C 0.14482 0.95543 0.53855 0.0
C385 C 0.13981 0.89736 0.56583 0.0
C386 C 0.1211 0.94062 0.52302 0.0
C387 C 0.09686 0.95437 0.52148 0.0
C388 C 0.09624 0.98313 0.53534 0.0
C389 C 0.12061 0.9981 0.54976 0.0
C390 C 0.14438 0.98443 0.55144 0.0
H391 H 0.14219 0.88088 0.5811 0.0
H392 H 0.12555 0.9127 0.57579 0.0
H393 H 0.12921 0.88475 0.54694 0.0
H394 H 0.12119 0.9184 0.51239 0.0
H395 H 0.07848 0.94227 0.51018 0.0
H396 H 0.71066 0.43904 0.87409 0.0
H397 H 0.75992 0.45329 0.88942 0.0
H398 H 0.73053 0.44272 0.97624 0.0
H399 H 0.68115 0.42715 0.96065 0.0
H400 H 0.78713 0.49738 0.92517 0.0
H401 H 0.78754 0.3862 0.96595 0.0
H402 H 0.7587 0.39318 0.9456 0.0
H403 H 0.76112 0.40678 0.98243 0.0
C404 C 0.71472 0.44025 0.89649 0.0
C405 C 0.69235 0.43196 0.91625 0.0
C406 C 0.74281 0.44826 0.90522 0.0
C407 C 0.74892 0.44836 0.93387 0.0
C408 C 0.72634 0.4419 0.95393 0.0
H409 H 0.91793 0.48029 0.00649 0.0
H410 H 0.86625 0.46754 1.00027 0.0
C411 C 0.69822 0.43332 0.9451 0.0
C412 C 0.77912 0.45412 0.94216 0.0
H413 H 0.83041 0.4214 0.96887 0.0
C414 C 0.79656 0.48083 0.93485 0.0
C415 C 0.79131 0.43248 0.9549 0.0
C416 C 0.7738 0.40294 0.96249 0.0
C417 C 0.826 0.4863 0.9394 0.0
C418 C 0.83833 0.46424 0.95121 0.0
C419 C 0.8208 0.43804 0.95954 0.0
C420 C 0.86952 0.46799 0.95462 0.0
C421 C 0.84364 0.51566 0.93147 0.0
C422 C 0.88837 0.47096 0.93085 0.0
C423 C 0.91784 0.47846 0.93429 0.0
C424 C 0.92889 0.48262 0.96156 0.0
C425 C 0.91005 0.47727 0.98519 0.0
C426 C 0.88053 0.47008 0.98172 0.0
H427 H 0.83012 0.53314 0.93013 0.0
H428 H 0.86044 0.52431 0.94706 0.0
H429 H 0.85435 0.51197 0.91036 0.0
H430 H 0.8802 0.46855 0.90969 0.0
H431 H 0.93187 0.48201 0.91569 0.0
H432 H 0.83443 0.583 0.48403 0.0
H433 H 0.7843 0.5735 0.50091 0.0
H434 H 0.75784 0.55062 0.41476 0.0
H435 H 0.80801 0.56007 0.39774 0.0
H436 H 0.74667 0.6089 0.48243 0.0
H437 H 0.70634 0.48656 0.45998 0.0
H438 H 0.74408 0.50194 0.46198 0.0
H439 H 0.72525 0.50463 0.43068 0.0
C440 C 0.81791 0.57525 0.4688 0.0
C441 C 0.82491 0.57247 0.43963 0.0
C442 C 0.7894 0.5698 0.47844 0.0
C443 C 0.76754 0.56135 0.45906 0.0
C444 C 0.77453 0.55668 0.43004 0.0
H445 H 0.5941 0.58223 0.45542 0.0
H446 H 0.64644 0.58959 0.45244 0.0
C447 C 0.80312 0.56208 0.42036 0.0
C448 C 0.73759 0.56153 0.46877 0.0
H449 H 0.67125 0.51822 0.47091 0.0
C450 C 0.7302 0.58901 0.48027 0.0
C451 C 0.71633 0.53552 0.46581 0.0
C452 C 0.72335 0.5054 0.45416 0.0
C453 C 0.70178 0.59133 0.48818 0.0
C454 C 0.68048 0.56555 0.48448 0.0
C455 C 0.68789 0.53789 0.47372 0.0
C456 C 0.65 0.56698 0.48994 0.0
C457 C 0.69452 0.62128 0.50002 0.0
C458 C 0.6351 0.55294 0.51269 0.0
C459 C 0.60528 0.54891 0.51462 0.0
C460 C 0.59006 0.55835 0.49343 0.0
C461 C 0.60526 0.57453 0.47191 0.0
C462 C 0.6351 0.57879 0.47018 0.0
H463 H 0.71397 0.63799 0.50548 0.0
H464 H 0.68281 0.63033 0.48406 0.0
H465 H 0.68024 0.61847 0.51927 0.0
H466 H 0.64646 0.54374 0.52808 0.0
H467 H 0.59418 0.53649 0.53155 0.0
H468 H 0.12472 0.20437 0.05235 0.0
H469 H 0.10584 0.2464 0.03545 0.0
H470 H 0.0988 0.28551 0.12143 0.0
H471 H 0.11748 0.2434 0.13856 0.0
H472 H 0.04609 0.27201 0.06938 0.0
H473 H 0.15182 0.34641 0.05617 0.0
H474 H 0.14853 0.30598 0.05013 0.0
H475 H 0.14469 0.32305 0.08544 0.0
C476 C 0.11911 0.22191 0.06767 0.0
C477 C 0.12253 0.22049 0.09678 0.0
C478 C 0.10832 0.24587 0.05797 0.0
C479 C 0.10095 0.26906 0.07717 0.0
C480 C 0.10432 0.26779 0.10627 0.0
H481 H 0.05818 0.44383 0.0603 0.0
H482 H 0.07905 0.40056 0.07057 0.0
C483 C 0.11497 0.2437 0.11602 0.0
C484 C 0.08979 0.29461 0.06674 0.0
H485 H 0.11101 0.36503 0.0447 0.0
C486 C 0.0602 0.29236 0.06387 0.0
C487 C 0.10826 0.32112 0.05977 0.0
C488 C 0.14016 0.3246 0.06293 0.0
C489 C 0.04849 0.31617 0.05466 0.0
C490 C 0.06701 0.34274 0.04724 0.0
C491 C 0.09671 0.34474 0.05002 0.0
C492 C 0.05599 0.36954 0.03866 0.0
C493 C 0.01631 0.31295 0.05411 0.0
C494 C 0.03675 0.36716 0.01652 0.0
C495 C 0.02449 0.392 0.01087 0.0
C496 C 0.03198 0.41986 0.02663 0.0
C497 C 0.05244 0.42269 0.04751 0.0
C498 C 0.06427 0.39787 0.05348 0.0
H499 H 0.00537 0.29536 0.06768 0.0
H500 H 0.00905 0.33449 0.06141 0.0
H501 H 0.00941 0.30617 0.03209 0.0
H502 H 0.03062 0.34591 0.00409 0.0
H503 H 0.00851 0.38921 0.99489 0.0
H504 H 0.57324 0.34689 0.91369 0.0
H505 H 0.5573 0.2933 0.92003 0.0
H506 H 0.64183 0.27561 0.89438 0.0
H507 H 0.65802 0.32922 0.889 0.0
H508 H 0.55565 0.2423 0.88364 0.0
H509 H 0.62999 0.24152 0.9704 0.0
H510 H 0.62393 0.27591 0.95737 0.0
H511 H 0.64711 0.2533 0.9377 0.0
C512 C 0.58833 0.33147 0.90947 0.0
C513 C 0.61691 0.34206 0.90138 0.0
C514 C 0.57924 0.30095 0.91298 0.0
C515 C 0.59855 0.28061 0.90816 0.0
C516 C 0.62682 0.29104 0.89895 0.0
H517 H 0.56382 0.09749 0.96308 0.0
H518 H 0.58504 0.13677 0.93194 0.0
C519 C 0.63601 0.32159 0.89587 0.0
C520 C 0.5892 0.2487 0.91368 0.0
H521 H 0.5999 0.19607 0.95707 0.0
C522 C 0.56553 0.23205 0.89946 0.0
C523 C 0.60228 0.23532 0.93418 0.0
C524 C 0.62707 0.25244 0.95099 0.0
C525 C 0.55385 0.20275 0.90602 0.0
C526 C 0.56613 0.18995 0.9274 0.0
C527 C 0.59077 0.2059 0.94044 0.0
C528 C 0.55097 0.16291 0.94036 0.0
C529 C 0.5279 0.18614 0.89073 0.0
C530 C 0.52463 0.16439 0.95476 0.0
C531 C 0.51281 0.14241 0.97257 0.0
C532 C 0.52704 0.11846 0.97624 0.0
C533 C 0.55236 0.11564 0.96029 0.0
C534 C 0.56448 0.13803 0.94264 0.0
H535 H 0.52725 0.19379 0.86922 0.0
H536 H 0.52754 0.16145 0.88877 0.0
H537 H 0.50826 0.19078 0.90285 0.0
H538 H 0.51417 0.18369 0.95384 0.0
H539 H 0.49325 0.14503 0.98471 0.0
H540 H 0.88904 0.65427 0.48247 0.0
H541 H 0.90668 0.70645 0.49845 0.0
H542 H 0.95073 0.71955 0.41743 0.0
H543 H 0.93036 0.66849 0.4 0.0
H544 H 0.95634 0.73695 0.50729 0.0
H545 H 0.91074 0.78891 0.42306 0.0
H546 H 0.90186 0.74919 0.42718 0.0
H547 H 0.93437 0.76429 0.4082 0.0
C548 C 0.90186 0.66834 0.46767 0.0
C549 C 0.90777 0.65698 0.43968 0.0
C550 C 0.91231 0.69817 0.47706 0.0
C551 C 0.92954 0.71721 0.45898 0.0
C552 C 0.9367 0.70564 0.43151 0.0
H553 H 0.02038 0.89651 0.47177 0.0
H554 H 0.01187 0.84183 0.47332 0.0
C555 C 0.92549 0.67606 0.42177 0.0
C556 C 0.94012 0.74905 0.46905 0.0
H557 H 0.94534 0.82122 0.45157 0.0
C558 C 0.95376 0.75536 0.49515 0.0
C559 C 0.93637 0.77319 0.45346 0.0
C560 C 0.91976 0.76856 0.42661 0.0
C561 C 0.96426 0.78506 0.50569 0.0
C562 C 0.96157 0.80877 0.48946 0.0
C563 C 0.94771 0.80267 0.46365 0.0
C564 C 0.97244 0.84051 0.49858 0.0
C565 C 0.97815 0.79116 0.53398 0.0
C566 C 0.95406 0.85774 0.51394 0.0
C567 C 0.95904 0.88899 0.51324 0.0
C568 C 0.98233 0.903 0.49708 0.0
C569 C 0.00264 0.88612 0.48484 0.0
C570 C 0.99769 0.85491 0.48556 0.0
H571 H 0.97892 0.77012 0.54399 0.0
H572 H 1.00029 0.80373 0.53129 0.0
H573 H 0.96604 0.80558 0.54846 0.0
H574 H 0.93428 0.84687 0.52375 0.0
H575 H 0.94281 0.90161 0.52224 0.0
H576 H 0.44866 0.84274 0.63064 0.0
H577 H 0.4656 0.79701 0.61008 0.0
H578 H 0.38038 0.75924 0.58356 0.0
H579 H 0.36291 0.80425 0.60486 0.0
H580 H 0.43209 0.73115 0.6255 0.0
H581 H 0.44473 0.75479 0.51179 0.0
H582 H 0.44963 0.78487 0.53995 0.0
H583 H 0.41443 0.76447 0.53307 0.0
C584 C 0.43344 0.82467 0.62062 0.0
C585 C 0.4044 0.8273 0.61941 0.0
C586 C 0.44323 0.7987 0.60865 0.0
C587 C 0.42426 0.77505 0.59504 0.0
C588 C 0.39537 0.77752 0.59362 0.0
H589 H 0.45101 0.59666 0.52141 0.0
H590 H 0.4331 0.6447 0.52941 0.0
C591 C 0.38551 0.80334 0.60574 0.0
C592 C 0.43431 0.74694 0.58395 0.0
H593 H 0.45678 0.70909 0.52346 0.0
C594 C 0.43747 0.72627 0.60321 0.0
C595 C 0.44078 0.74056 0.5548 0.0
C596 C 0.43734 0.76224 0.53351 0.0
C597 C 0.44738 0.69943 0.59415 0.0
C598 C 0.45504 0.69352 0.56513 0.0
C599 C 0.45113 0.71383 0.54569 0.0
C600 C 0.46823 0.66684 0.55528 0.0
C601 C 0.44948 0.67752 0.61574 0.0
C602 C 0.49462 0.6641 0.56579 0.0
C603 C 0.50473 0.63688 0.56139 0.0
C604 C 0.48883 0.61198 0.54604 0.0
C605 C 0.46377 0.61558 0.53314 0.0
C606 C 0.45346 0.64291 0.53784 0.0
H607 H 0.43578 0.68137 0.63503 0.0
H608 H 0.44308 0.65391 0.60668 0.0
H609 H 0.47198 0.68046 0.62229 0.0
H610 H 0.50658 0.6825 0.57887 0.0
H611 H 0.52419 0.63476 0.57143 0.0
H612 H 0.83576 0.90558 0.80665 0.0
H613 H 0.85396 0.91758 0.75918 0.0
H614 H 0.94027 0.91903 0.78417 0.0
H615 H 0.92223 0.90721 0.83193 0.0
H616 H 0.89179 0.96717 0.74233 0.0
H617 H 0.93573 0.86251 0.71155 0.0
H618 H 0.91174 0.86625 0.74206 0.0
H619 H 0.94906 0.88256 0.74398 0.0
C620 C 0.85866 0.90864 0.8022 0.0
C621 C 0.8775 0.90541 0.82327 0.0
C622 C 0.86902 0.91535 0.77492 0.0
C623 C 0.89845 0.91878 0.76786 0.0
C624 C 0.9174 0.9158 0.78884 0.0
H625 H 0.00989 0.97238 0.62719 0.0
H626 H 0.98599 0.95134 0.66942 0.0
C627 C 0.90705 0.90906 0.8162 0.0
C628 C 0.90919 0.92613 0.73874 0.0
H629 H 0.94695 0.90144 0.6804 0.0
C630 C 0.90362 0.95265 0.72867 0.0
C631 C 0.92465 0.90722 0.72089 0.0
C632 C 0.93047 0.8779 0.73 0.0
C633 C 0.91384 0.96127 0.70171 0.0
C634 C 0.92949 0.94247 0.6839 0.0
C635 C 0.93471 0.91572 0.69385 0.0
C636 C 0.9431 0.95165 0.65622 0.0
C637 C 0.90886 0.9911 0.69305 0.0
C638 C 0.92697 0.95769 0.63393 0.0
C639 C 0.94074 0.9696 0.60939 0.0
C640 C 0.9708 0.97564 0.60695 0.0
C641 C 0.98667 0.96792 0.62853 0.0
C642 C 0.97302 0.95593 0.65274 0.0
H643 H 0.90203 0.00569 0.71139 0.0
H644 H 0.92858 0.00338 0.68296 0.0
H645 H 0.89173 0.98709 0.67739 0.0
H646 H 0.9038 0.95406 0.63588 0.0
H647 H 0.92803 0.97562 0.5932 0.0
H648 H 0.6113 0.07447 0.34369 0.0
H649 H 0.59782 0.05281 0.29596 0.0
H650 H 0.59085 0.14092 0.2728 0.0
H651 H 0.60578 0.16296 0.31963 0.0
H652 H 0.55023 0.05162 0.26421 0.0
H653 H 0.64633 0.11451 0.21205 0.0
H654 H 0.64301 0.11246 0.24994 0.0
H655 H 0.62652 0.1391 0.23354 0.0
C656 C 0.6072 0.08933 0.32837 0.0
C657 C 0.61 0.1206 0.33561 0.0
C658 C 0.59923 0.07682 0.30114 0.0
C659 C 0.59394 0.09529 0.28055 0.0
C660 C 0.5955 0.12627 0.28807 0.0
H661 H 0.53683 0.10137 0.11955 0.0
H662 H 0.55106 0.10425 0.16816 0.0
C663 C 0.60367 0.13881 0.31512 0.0
C664 C 0.58732 0.0826 0.25101 0.0
H665 H 0.60741 0.09331 0.18198 0.0
C666 C 0.563 0.06029 0.2462 0.0
C667 C 0.60422 0.09355 0.22747 0.0
C668 C 0.63164 0.11598 0.23099 0.0
C669 C 0.55409 0.05029 0.21847 0.0
C670 C 0.57 0.0628 0.1951 0.0
C671 C 0.59518 0.08375 0.19993 0.0
C672 C 0.55888 0.05851 0.16599 0.0
C673 C 0.52689 0.02777 0.2143 0.0
C674 C 0.55796 0.03142 0.14851 0.0
C675 C 0.54954 0.02955 0.1202 0.0
C676 C 0.54248 0.05493 0.10907 0.0
C677 C 0.54274 0.08153 0.12709 0.0
C678 C 0.55074 0.08324 0.15507 0.0
H679 H 0.51643 0.02086 0.23474 0.0
H680 H 0.51158 0.0375 0.20254 0.0
H681 H 0.53174 0.00743 0.20133 0.0
H682 H 0.56438 0.01209 0.15651 0.0
H683 H 0.5494 0.00874 0.10688 0.0
H684 H 0.42046 0.67228 0.27275 0.0
H685 H 0.4243 0.64898 0.3168 0.0
H686 H 0.41118 0.56123 0.27065 0.0
H687 H 0.40725 0.58422 0.22669 0.0
H688 H 0.3793 0.59994 0.33996 0.0
H689 H 0.4874 0.56998 0.31602 0.0
H690 H 0.47487 0.59925 0.29933 0.0
H691 H 0.46252 0.56042 0.28789 0.0
C692 C 0.41857 0.64804 0.27207 0.0
C693 C 0.41344 0.63001 0.24648 0.0
C694 C 0.42062 0.63483 0.29715 0.0
C695 C 0.41791 0.60351 0.29677 0.0
C696 C 0.41333 0.58549 0.27118 0.0
H697 H 0.44211 0.4767 0.40814 0.0
H698 H 0.41923 0.49953 0.3729 0.0
C699 C 0.41108 0.59864 0.24616 0.0
C700 C 0.41979 0.58938 0.32313 0.0
H701 H 0.46113 0.54935 0.35538 0.0
C702 C 0.39719 0.58896 0.34354 0.0
C703 C 0.44328 0.57537 0.32753 0.0
C704 C 0.46856 0.57638 0.3067 0.0
C705 C 0.39714 0.57387 0.3681 0.0
C706 C 0.42028 0.55915 0.37206 0.0
C707 C 0.44315 0.56027 0.35191 0.0
C708 C 0.42217 0.54282 0.39713 0.0
C709 C 0.37226 0.57311 0.38929 0.0
C710 C 0.42906 0.55895 0.42332 0.0
C711 C 0.44167 0.54569 0.44374 0.0
C712 C 0.44791 0.51655 0.43766 0.0
C713 C 0.43738 0.4992 0.41318 0.0
C714 C 0.42444 0.51226 0.39303 0.0
H715 H 0.35395 0.58144 0.38092 0.0
H716 H 0.3649 0.54983 0.39534 0.0
H717 H 0.37927 0.5875 0.40878 0.0
H718 H 0.42774 0.58267 0.42668 0.0
H719 H 0.44996 0.55954 0.46239 0.0
H720 H 0.04995 0.42445 0.71631 0.0
H721 H 0.04621 0.42071 0.76771 0.0
H722 H 0.12639 0.4821 0.777 0.0
H723 H 0.12958 0.48683 0.72593 0.0
H724 H 0.0808 0.40159 0.80419 0.0
H725 H 0.07379 0.52152 0.83175 0.0
H726 H 0.07024 0.50419 0.796 0.0
H727 H 0.1052 0.51757 0.81001 0.0
C728 C 0.0666 0.43734 0.72943 0.0
C729 C 0.08995 0.45621 0.71736 0.0
C730 C 0.06453 0.43502 0.75869 0.0
C731 C 0.08587 0.45135 0.77616 0.0
C732 C 0.10938 0.46981 0.76397 0.0
H733 H 0.10936 0.50471 0.94444 0.0
H734 H 0.12402 0.47486 0.9027 0.0
C735 C 0.11119 0.47254 0.73486 0.0
C736 C 0.08352 0.44982 0.80724 0.0
H737 H 0.08462 0.49451 0.8691 0.0
C738 C 0.08167 0.42185 0.8185 0.0
C739 C 0.08386 0.47616 0.82578 0.0
C740 C 0.08303 0.50647 0.81527 0.0
C741 C 0.08148 0.41985 0.84798 0.0
C742 C 0.08358 0.4465 0.86631 0.0
C743 C 0.08433 0.47418 0.85494 0.0
C744 C 0.0823 0.44709 0.89762 0.0
C745 C 0.07906 0.38949 0.85928 0.0
C746 C 0.05567 0.43772 0.91122 0.0
C747 C 0.04782 0.45398 0.93607 0.0
C748 C 0.06595 0.4805 0.94591 0.0
C749 C 0.09481 0.48473 0.93672 0.0
C750 C 0.10311 0.46775 0.91258 0.0
H751 H 0.08466 0.37225 0.84268 0.0
H752 H 0.09312 0.39071 0.8775 0.0
H753 H 0.05662 0.38207 0.86688 0.0
H754 H 0.03929 0.42163 0.90034 0.0
H755 H 0.02554 0.44988 0.94336 0.0
H756 H 0.78521 0.91533 0.86387 0.0
H757 H 0.74424 0.93717 0.8838 0.0
H758 H 0.77727 0.94258 0.96746 0.0
H759 H 0.81907 0.92179 0.9475 0.0
H760 H 0.70353 0.91457 0.92205 0.0
H761 H 0.75882 0.02661 0.96563 0.0
H762 H 0.7764 0.00208 0.94111 0.0
H763 H 0.77168 0.99529 0.97796 0.0
C764 C 0.78414 0.92166 0.88646 0.0
C765 C 0.80572 0.91694 0.90399 0.0
C766 C 0.76051 0.93398 0.89788 0.0
C767 C 0.75777 0.94203 0.92712 0.0
C768 C 0.77912 0.93722 0.94477 0.0
H769 H 0.61133 0.99477 0.02785 0.0
H770 H 0.65958 0.98478 0.01319 0.0
C771 C 0.80287 0.9249 0.93334 0.0
C772 C 0.73179 0.95399 0.939 0.0
H773 H 0.70884 0.0145 0.97628 0.0
C774 C 0.70477 0.93646 0.93383 0.0
C775 C 0.73328 0.98251 0.95457 0.0
C776 C 0.76157 0.00288 0.95999 0.0
C777 C 0.67935 0.94655 0.9437 0.0
C778 C 0.68079 0.97521 0.95889 0.0
C779 C 0.70776 0.99261 0.96455 0.0
C780 C 0.65426 0.98726 0.96848 0.0
C781 C 0.65103 0.92629 0.93798 0.0
C782 C 0.63584 0.99348 0.94843 0.0
C783 C 0.60852 -0.00051 0.95681 0.0
C784 C 0.5992 -0.00024 0.98544 0.0
C785 C 0.61833 0.9956 0.00577 0.0
C786 C 0.64577 0.98959 0.99736 0.0
H787 H 0.65371 0.90263 0.93181 0.0
H788 H 0.63627 0.92672 0.95694 0.0
H789 H 0.64084 0.93441 0.92034 0.0
H790 H 0.64197 0.99195 0.92607 0.0
H791 H 0.59391 0.00181 0.94067 0.0
H792 H 0.75664 0.17139 0.42698 0.0
H793 H 0.7968 0.1502 0.44234 0.0
H794 H 0.73794 0.07178 0.46615 0.0
H795 H 0.69805 0.09214 0.44907 0.0
H796 H 0.81071 0.13624 0.49091 0.0
H797 H 0.79354 0.03078 0.41987 0.0
H798 H 0.77407 0.06096 0.41656 0.0
H799 H 0.76303 0.03465 0.44292 0.0
C800 C 0.75239 0.14951 0.43531 0.0
C801 C 0.72439 0.13319 0.43648 0.0
C802 C 0.77531 0.13744 0.44415 0.0
C803 C 0.77063 0.109 0.45485 0.0
C804 C 0.74238 0.0932 0.45702 0.0
H805 H 0.88354 0.99556 0.50899 0.0
H806 H 0.84271 0.02077 0.50382 0.0
C807 C 0.71954 0.10494 0.44747 0.0
C808 C 0.7953 0.09625 0.46395 0.0
H809 H 0.82798 0.03438 0.45489 0.0
C810 C 0.8145 0.11397 0.48297 0.0
C811 C 0.80042 0.0672 0.4536 0.0
C812 C 0.78184 0.04744 0.4319 0.0
C813 C 0.83832 0.10337 0.4922 0.0
C814 C 0.84328 0.07428 0.48197 0.0
C815 C 0.82407 0.05657 0.463 0.0
C816 C 0.8684 0.06161 0.48999 0.0
C817 C 0.85759 0.12333 0.51315 0.0
C818 C 0.89661 0.07651 0.48498 0.0
C819 C 0.92001 0.06241 0.48882 0.0
C820 C 0.91551 0.03294 0.49707 0.0
C821 C 0.88748 0.01848 0.50304 0.0
C822 C 0.86418 0.03279 0.49984 0.0
H823 H 0.84621 0.14008 0.52546 0.0
H824 H 0.86601 0.10996 0.5282 0.0
H825 H 0.87601 0.13596 0.50144 0.0
H826 H 0.90053 0.09832 0.47658 0.0
H827 H 0.94143 0.07363 0.48334 0.0
H828 H 0.30475 0.60535 0.16512 0.0
H829 H 0.25718 0.58717 0.14667 0.0
H830 H 0.28884 0.60987 0.06311 0.0
H831 H 0.33685 0.62747 0.0813 0.0
H832 H 0.22737 0.62651 0.12165 0.0
H833 H 0.23953 0.52525 0.0489 0.0
H834 H 0.26456 0.54023 0.07623 0.0
H835 H 0.26563 0.55851 0.04412 0.0
C836 C 0.30185 0.60557 0.14263 0.0
C837 C 0.32452 0.61785 0.12463 0.0
C838 C 0.27461 0.59542 0.13219 0.0
C839 C 0.26958 0.59718 0.10357 0.0
C840 C 0.2924 0.60806 0.08521 0.0
H841 H 0.10515 0.5641 0.01977 0.0
H842 H 0.15546 0.58331 0.03049 0.0
C843 C 0.31972 0.61826 0.09566 0.0
C844 C 0.23993 0.59029 0.09376 0.0
H845 H 0.19476 0.54161 0.05034 0.0
C846 C 0.22023 0.60799 0.10601 0.0
C847 C 0.23089 0.56632 0.07316 0.0
C848 C 0.25113 0.54628 0.05991 0.0
C849 C 0.19149 0.60198 0.09856 0.0
C850 C 0.1823 0.57758 0.07854 0.0
C851 C 0.20209 0.56039 0.06564 0.0
C852 C 0.15176 0.56796 0.07256 0.0
C853 C 0.17099 0.62148 0.11229 0.0
C854 C 0.13328 0.55325 0.09282 0.0
C855 C 0.10476 0.54206 0.08673 0.0
C856 C 0.09423 0.54562 0.06033 0.0
C857 C 0.11265 0.56116 0.04034 0.0
C858 C 0.14133 0.57204 0.04635 0.0
H859 H 0.1824 0.64268 0.12318 0.0
H860 H 0.15705 0.62717 0.09623 0.0
H861 H 0.15696 0.60892 0.12822 0.0
H862 H 0.14112 0.54982 0.11311 0.0
H863 H 0.09107 0.53029 0.10259 0.0
H864 H 0.15982 0.41614 0.558 0.0
H865 H 0.21068 0.42671 0.544 0.0
H866 H 0.23136 0.45516 0.63097 0.0
H867 H 0.1808 0.44308 0.64542 0.0
H868 H 0.2529 0.47644 0.5486 0.0
H869 H 0.27736 0.3879 0.61177 0.0
H870 H 0.24116 0.39176 0.60501 0.0
H871 H 0.26049 0.41538 0.63284 0.0
C872 C 0.17521 0.42462 0.57416 0.0
C873 C 0.1663 0.4282 0.60291 0.0
C874 C 0.20421 0.43082 0.56609 0.0
C875 C 0.22477 0.44087 0.58658 0.0
C876 C 0.21582 0.4466 0.61496 0.0
H877 H 0.40031 0.50144 0.60336 0.0
H878 H 0.34872 0.485 0.60599 0.0
C879 C 0.18685 0.4401 0.62312 0.0
C880 C 0.25563 0.44422 0.57854 0.0
H881 H 0.31756 0.42235 0.59501 0.0
C882 C 0.26703 0.46433 0.55841 0.0
C883 C 0.27384 0.4279 0.59099 0.0
C884 C 0.26255 0.40428 0.61112 0.0
C885 C 0.29656 0.46994 0.55173 0.0
C886 C 0.31488 0.45495 0.56551 0.0
C887 C 0.30333 0.43383 0.5846 0.0
C888 C 0.34629 0.4636 0.56324 0.0
C889 C 0.30822 0.49287 0.53108 0.0
C890 C 0.36199 0.45651 0.53836 0.0
C891 C 0.39173 0.46589 0.53671 0.0
C892 C 0.40602 0.48245 0.55997 0.0
C893 C 0.39009 0.48877 0.58502 0.0
C894 C 0.36056 0.47942 0.5866 0.0
H895 H 0.29126 0.50403 0.52365 0.0
H896 H 0.325 0.51033 0.54112 0.0
H897 H 0.31836 0.48166 0.51236 0.0
H898 H 0.35123 0.44397 0.52024 0.0
H899 H 0.4034 0.46065 0.51715 0.0
H900 H 0.86793 0.79313 0.92908 0.0
H901 H 0.88235 0.75095 0.95048 0.0
H902 H 0.97118 0.78816 0.93452 0.0
H903 H 0.95692 0.83008 0.91289 0.0
H904 H 0.91801 0.70906 0.92306 0.0
H905 H 0.9658 0.77187 0.0202 0.0
H906 H 0.94072 0.78599 0.9998 0.0
H907 H 0.97755 0.78862 0.98775 0.0
C908 C 0.89052 0.79243 0.93034 0.0
C909 C 0.91134 0.81501 0.91941 0.0
C910 C 0.89873 0.76829 0.94253 0.0
C911 C 0.92786 0.76657 0.94447 0.0
C912 C 0.9486 0.78921 0.93369 0.0
H913 H 0.03462 0.64158 0.97706 0.0
H914 H 0.01318 0.6857 0.97047 0.0
C915 C 0.94042 0.81308 0.92122 0.0
C916 C 0.93677 0.74056 0.95657 0.0
H917 H 0.97595 0.72228 0.00893 0.0
C918 C 0.93027 0.71183 0.94209 0.0
C919 C 0.95288 0.7442 0.98135 0.0
C920 C 0.9595 0.77426 0.99839 0.0
C921 C 0.94039 0.68696 0.95108 0.0
C922 C 0.95708 0.69076 0.97548 0.0
C923 C 0.96303 0.71934 0.99034 0.0
C924 C 0.97048 0.66583 0.98425 0.0
C925 C 0.9343 0.65702 0.93372 0.0
C926 C 0.95387 0.64047 0.99552 0.0
C927 C 0.96627 0.61535 0.99992 0.0
C928 C 0.99539 0.61511 0.99274 0.0
C929 C 0.01221 0.64124 0.98308 0.0
C930 C 0.99995 0.66641 0.97913 0.0
H931 H 0.92397 0.65864 0.91356 0.0
H932 H 0.95449 0.64803 0.92869 0.0
H933 H 0.91986 0.64063 0.94619 0.0
H934 H 0.93108 0.6396 0.99972 0.0
H935 H 0.95265 0.59535 0.00682 0.0
H936 H 0.44184 0.71051 0.14318 0.0
H937 H 0.458 0.76372 0.13663 0.0
H938 H 0.37082 0.77417 0.12489 0.0
H939 H 0.35426 0.72168 0.13346 0.0
H940 H 0.45447 0.79137 0.09129 0.0
H941 H 0.39522 0.84603 0.17913 0.0
H942 H 0.39787 0.8066 0.17707 0.0
H943 H 0.37175 0.8193 0.15705 0.0
C944 C 0.42603 0.72426 0.13976 0.0
C945 C 0.39674 0.71178 0.13889 0.0
C946 C 0.43531 0.75464 0.13592 0.0
C947 C 0.41554 0.7731 0.13096 0.0
C948 C 0.38637 0.76062 0.12959 0.0
H949 H 0.43076 0.92659 0.04285 0.0
H950 H 0.41158 0.88853 0.07535 0.0
C951 C 0.37702 0.73037 0.13384 0.0
C952 C 0.42569 0.80473 0.12485 0.0
H953 H 0.4147 0.87704 0.14164 0.0
C954 C 0.44615 0.81013 0.10267 0.0
C955 C 0.41472 0.82919 0.13969 0.0
C956 C 0.39389 0.82503 0.16475 0.0
C957 C 0.45522 0.83913 0.09422 0.0
C958 C 0.4436 0.86341 0.10844 0.0
C959 C 0.42357 0.85829 0.13098 0.0
C960 C 0.45071 0.89355 0.09806 0.0
C961 C 0.47645 0.84351 0.06943 0.0
C962 C 0.47822 0.91046 0.10175 0.0
C963 C 0.4891 0.93237 0.08332 0.0
C964 C 0.47245 0.93742 0.06127 0.0
C965 C 0.44368 0.92341 0.06014 0.0
C966 C 0.43279 0.90157 0.07858 0.0
H967 H 0.48119 0.82182 0.05898 0.0
H968 H 0.46815 0.85582 0.05339 0.0
H969 H 0.49684 0.85726 0.0769 0.0
H970 H 0.49234 0.90434 0.11662 0.0
H971 H 0.51153 0.94253 0.08409 0.0
H972 H 0.09346 0.35592 0.55316 0.0
H973 H 0.07532 0.30488 0.53313 0.0
H974 H 0.04634 0.27926 0.61656 0.0
H975 H 0.06543 0.33009 0.63696 0.0
H976 H 0.07852 0.24078 0.58738 0.0
H977 H 0.99334 0.26203 0.52012 0.0
H978 H 0.02738 0.28554 0.51417 0.0
H979 H 0.00878 0.28895 0.54807 0.0
C980 C 0.08304 0.33946 0.56721 0.0
C981 C 0.08075 0.34699 0.59659 0.0
C982 C 0.07241 0.31045 0.5557 0.0
C983 C 0.05903 0.28856 0.5733 0.0
C984 C 0.05631 0.29604 0.60261 0.0
H985 H 0.98083 0.10646 0.54702 0.0
H986 H 0.98599 0.16099 0.54638 0.0
C987 C 0.06702 0.32509 0.61419 0.0
C988 C 0.04994 0.25728 0.56131 0.0
H989 H 0.00742 0.21368 0.51194 0.0
C990 C 0.06292 0.23483 0.57096 0.0
C991 C 0.0294 0.24967 0.54008 0.0
C992 C 0.01368 0.27276 0.53017 0.0
C993 C 0.05623 0.20492 0.55963 0.0
C994 C 0.03655 0.19749 0.53756 0.0
C995 C 0.02308 0.21976 0.52828 0.0
C996 C 0.02825 0.16599 0.52604 0.0
C997 C 0.06993 0.1814 0.57176 0.0
C998 C 0.04899 0.15077 0.51202 0.0
C999 C 0.04598 0.11961 0.51232 0.0
C1000 C 0.0222 0.10381 0.52651 0.0
C1001 C 0.99921 0.11836 0.53578 0.0
C1002 C 0.00226 0.14953 0.53562 0.0
H1003 H 0.08012 0.18991 0.5922 0.0
H1004 H 0.05384 0.16098 0.57526 0.0
H1005 H 0.08675 0.17468 0.55655 0.0
H1006 H 0.0691 0.16324 0.50434 0.0
H1007 H 0.06405 0.10874 0.50532 0.0
H1008 H 0.61691 0.22501 0.37858 0.0
H1009 H 0.59803 0.26917 0.40002 0.0
H1010 H 0.58071 0.22759 0.47879 0.0
H1011 H 0.60081 0.18386 0.4576 0.0
H1012 H 0.54604 0.27354 0.41944 0.0
H1013 H 0.61958 0.30904 0.50843 0.0
H1014 H 0.62611 0.28098 0.4804 0.0
H1015 H 0.60045 0.27122 0.50878 0.0
C1016 C 0.60926 0.22544 0.40054 0.0
C1017 C 0.61035 0.20108 0.41646 0.0
C1018 C 0.59846 0.25066 0.4128 0.0
C1019 C 0.5882 0.25202 0.4412 0.0
C1020 C 0.58917 0.22757 0.45713 0.0
H1021 H 0.50526 0.40286 0.5221 0.0
H1022 H 0.51816 0.3521 0.51435 0.0
C1023 C 0.60048 0.2025 0.44497 0.0
C1024 C 0.5755 0.27856 0.45334 0.0
H1025 H 0.58224 0.33683 0.50549 0.0
C1026 C 0.55386 0.28715 0.43841 0.0
C1027 C 0.58549 0.2964 0.47824 0.0
C1028 C 0.60935 0.28916 0.49478 0.0
C1029 C 0.54272 0.31343 0.44701 0.0
C1030 C 0.55329 0.33165 0.47131 0.0
C1031 C 0.57398 0.32255 0.48705 0.0
C1032 C 0.54628 0.36226 0.4778 0.0
C1033 C 0.52047 0.32225 0.4294 0.0
C1034 C 0.55822 0.38466 0.46021 0.0
C1035 C 0.55101 0.41327 0.46452 0.0
C1036 C 0.53159 0.42038 0.48661 0.0
C1037 C 0.52015 0.39811 0.50485 0.0
C1038 C 0.52751 0.36918 0.50047 0.0
H1039 H 0.50991 0.30291 0.41532 0.0
H1040 H 0.50384 0.33149 0.44318 0.0
H1041 H 0.53096 0.34006 0.41587 0.0
H1042 H 0.57292 0.37985 0.44278 0.0
H1043 H 0.56056 0.42976 0.45013 0.0
loop_
_geom_bond_atom_site_label_1
_geom_bond_atom_site_label_2
_geom_bond_distance
_geom_bond_site_symmetry_2
_ccdc_geom_bond_type
H0 C5 0.930 . S
H1 C8 0.930 . S
H2 C10 0.930 . S
H3 C4 1.016 . S
C4 H3 1.016 . S
C4 N11 1.286 . S
C5 H0 0.930 . S
C5 C6 1.397 . S
C5 C7 1.361 . S
C6 C5 1.397 . S
C6 C10 1.390 . S
C7 C5 1.361 . S
C7 C8 1.393 . S
C7 N11 1.413 . S
C8 H1 0.930 . S
C8 C7 1.393 . S
C8 C9 1.399 . S
C9 C8 1.399 . S
C9 C10 1.381 . S
C10 H2 0.930 . S
C10 C6 1.390 . S
C10 C9 1.381 . S
N11 C4 1.286 . S
N11 C7 1.413 . S
H12 C17 0.930 . S
H13 C20 0.930 . S
H14 C22 0.930 . S
H15 C16 1.016 . S
C16 H15 1.016 . S
C16 N23 1.286 . S
C17 H12 0.930 . S
C17 C18 1.397 . S
C17 C19 1.361 . S
C18 C17 1.397 . S
C18 C22 1.390 . S
C19 C17 1.361 . S
C19 C20 1.393 . S
C19 N23 1.413 . S
C20 H13 0.930 . S
C20 C19 1.393 . S
C20 C21 1.399 . S
C21 C20 1.399 . S
C21 C22 1.381 . S
C22 H14 0.930 . S
C22 C18 1.390 . S
C22 C21 1.381 . S
N23 C16 1.286 . S
N23 C19 1.413 . S
H24 C29 0.930 . S
H25 C32 0.930 . S
H26 C34 0.930 . S
H27 C28 1.016 . S
C28 H27 1.016 . S
C28 N35 1.286 . S
C29 H24 0.930 . S
C29 C30 1.397 . S
C29 C31 1.361 . S
C30 C29 1.397 . S
C30 C34 1.390 . S
C31 C29 1.361 . S
C31 C32 1.393 . S
C31 N35 1.413 . S
C32 H25 0.930 . S
C32 C31 1.393 . S
C32 C33 1.399 . S
C33 C32 1.399 . S
C33 C34 1.381 . S
C34 H26 0.930 . S
C34 C30 1.390 . S
C34 C33 1.381 . S
N35 C28 1.286 . S
N35 C31 1.413 . S
H36 C41 0.930 . S
H37 C44 0.930 . S
H38 C46 0.930 . S
H39 C40 1.016 . S
C40 H39 1.016 . S
C40 N47 1.286 . S
C41 H36 0.930 . S
C41 C42 1.397 . S
C41 C43 1.361 . S
C42 C41 1.397 . S
C42 C46 1.390 . S
C43 C41 1.361 . S
C43 C44 1.393 . S
C43 N47 1.413 . S
C44 H37 0.930 . S
C44 C43 1.393 . S
C44 C45 1.399 . S
C45 C44 1.399 . S
C45 C46 1.381 . S
C46 H38 0.930 . S
C46 C42 1.390 . S
C46 C45 1.381 . S
N47 C40 1.286 . S
N47 C43 1.413 . S
H48 C53 0.930 . S
H49 C56 0.930 . S
H50 C58 0.930 . S
H51 C52 1.016 . S
C52 H51 1.016 . S
C52 N59 1.286 . S
C53 H48 0.930 . S
C53 C54 1.397 . S
C53 C55 1.361 . S
C54 C53 1.397 . S
C54 C58 1.390 . S
C55 C53 1.361 . S
C55 C56 1.393 . S
C55 N59 1.413 . S
C56 H49 0.930 . S
C56 C55 1.393 . S
C56 C57 1.399 . S
C57 C56 1.399 . S
C57 C58 1.381 . S
C58 H50 0.930 . S
C58 C54 1.390 . S
C58 C57 1.381 . S
N59 C52 1.286 . S
N59 C55 1.413 . S
H60 C65 0.930 . S
H61 C68 0.930 . S
H62 C70 0.930 . S
H63 C64 1.016 . S
C64 H63 1.016 . S
C64 N71 1.286 . S
C65 H60 0.930 . S
C65 C66 1.397 . S
C65 C67 1.361 . S
C66 C65 1.397 . S
C66 C70 1.390 . S
C67 C65 1.361 . S
C67 C68 1.393 . S
C67 N71 1.413 . S
C68 H61 0.930 . S
C68 C67 1.393 . S
C68 C69 1.399 . S
C69 C68 1.399 . S
C69 C70 1.381 . S
C70 H62 0.930 . S
C70 C66 1.390 . S
C70 C69 1.381 . S
N71 C64 1.286 . S
N71 C67 1.413 . S
H72 C77 0.930 . S
H73 C80 0.930 . S
H74 C82 0.930 . S
H75 C76 1.016 . S
C76 H75 1.016 . S
C76 N83 1.286 . S
C77 H72 0.930 . S
C77 C78 1.397 . S
C77 C79 1.361 . S
C78 C77 1.397 . S
C78 C82 1.390 . S
C79 C77 1.361 . S
C79 C80 1.393 . S
C79 N83 1.413 . S
C80 H73 0.930 . S
C80 C79 1.393 . S
C80 C81 1.399 . S
C81 C80 1.399 . S
C81 C82 1.381 . S
C82 H74 0.930 . S
C82 C78 1.390 . S
C82 C81 1.381 . S
N83 C76 1.286 . S
N83 C79 1.413 . S
H84 C89 0.930 . S
H85 C92 0.930 . S
H86 C94 0.930 . S
H87 C88 1.016 . S
C88 H87 1.016 . S
C88 N95 1.286 . S
C89 H84 0.930 . S
C89 C90 1.397 . S
C89 C91 1.361 . S
C90 C89 1.397 . S
C90 C94 1.390 . S
C91 C89 1.361 . S
C91 C92 1.393 . S
C91 N95 1.413 . S
C92 H85 0.930 . S
C92 C91 1.393 . S
C92 C93 1.399 . S
C93 C92 1.399 . S
C93 C94 1.381 . S
C94 H86 0.930 . S
C94 C90 1.390 . S
C94 C93 1.381 . S
N95 C88 1.286 . S
N95 C91 1.413 . S
O96 Mg97 1.990 . S
O96 C110 1.253 1_445 S
Mg97 O96 1.990 . S
Mg97 O100 2.180 . S
Mg97 O101 2.117 . S
Mg97 O115 2.030 . S
O98 Mg99 2.072 1_665 S
O98 C110 1.260 . S
Mg99 O98 2.072 1_445 S
Mg99 O100 2.099 . S
Mg99 O102 2.079 . S
Mg99 O103 2.072 1_455 S
Mg99 O105 2.099 1_445 S
Mg99 O116 2.079 1_545 S
O100 Mg97 2.180 . S
O100 Mg99 2.099 . S
O100 C111 1.279 . S
O101 Mg97 2.117 . S
O101 C111 1.250 . S
O102 Mg99 2.079 . S
O102 C112 1.264 . S
O103 Mg99 2.072 1_655 S
O103 C113 1.260 . S
Mg104 O105 2.180 . S
Mg104 O106 2.030 1_565 S
Mg104 O107 1.998 . S
Mg104 O108 2.117 . S
O105 Mg99 2.099 1_665 S
O105 Mg104 2.180 . S
O105 C114 1.279 . S
O106 Mg104 2.030 1_545 S
O106 C112 1.248 1_655 S
O107 Mg104 1.998 . S
O107 C113 1.245 1_565 S
O108 Mg104 2.117 . S
O108 C114 1.250 . S
C109 O115 1.248 1_565 S
C109 O116 1.264 . S
C110 O96 1.253 1_665 S
C110 O98 1.260 . S
C111 O100 1.279 . S
C111 O101 1.250 . S
C112 O102 1.264 . S
C112 O106 1.248 1_455 S
C113 O103 1.260 . S
C113 O107 1.245 1_545 S
C114 O105 1.279 . S
C114 O108 1.250 . S
O115 Mg97 2.030 . S
O115 C109 1.248 1_545 S
O116 Mg99 2.079 1_565 S
O116 C109 1.264 . S
O117 Mg118 1.990 . S
O117 C131 1.253 . S
Mg118 O117 1.990 . S
Mg118 O121 2.180 . S
Mg118 O122 2.117 . S
Mg118 O136 2.030 . S
O119 Mg120 2.072 . S
O119 C131 1.260 . S
Mg120 O119 2.072 . S
Mg120 O121 2.099 . S
Mg120 O123 2.079 . S
Mg120 O124 2.072 1_554 S
Mg120 O126 2.099 1_545 S
Mg120 O137 2.079 . S
O121 Mg118 2.180 . S
O121 Mg120 2.099 . S
O121 C132 1.279 1_554 S
O122 Mg118 2.117 . S
O122 C132 1.250 1_554 S
O123 Mg120 2.079 . S
O123 C133 1.264 1_544 S
O124 Mg120 2.072 1_556 S
O124 C134 1.260 1_545 S
Mg125 O126 2.180 1_556 S
Mg125 O127 2.030 . S
Mg125 O128 1.990 . S
Mg125 O129 2.117 1_556 S
O126 Mg120 2.099 1_565 S
O126 Mg125 2.180 1_554 S
O126 C135 1.279 . S
O127 Mg125 2.030 . S
O127 C133 1.248 . S
O128 Mg125 1.990 . S
O128 C134 1.253 . S
O129 Mg125 2.117 1_554 S
O129 C135 1.250 . S
C130 O136 1.248 . S
C130 O137 1.264 . S
C131 O117 1.253 . S
C131 O119 1.260 . S
C132 O121 1.279 1_556 S
C132 O122 1.250 1_556 S
C133 O123 1.264 1_566 S
C133 O127 1.248 . S
C134 O124 1.260 1_565 S
C134 O128 1.253 . S
C135 O126 1.279 . S
C135 O129 1.250 . S
O136 Mg118 2.030 . S
O136 C130 1.248 . S
O137 Mg120 2.079 . S
O137 C130 1.264 . S
O138 Mg139 1.990 . S
O138 C152 1.253 . S
Mg139 O138 1.990 . S
Mg139 O142 2.180 . S
Mg139 O143 2.117 . S
Mg139 O157 2.030 . S
O140 Mg141 2.072 . S
O140 C152 1.260 . S
Mg141 O140 2.072 . S
Mg141 O142 2.099 . S
Mg141 O144 2.079 . S
Mg141 O145 2.072 . S
Mg141 O147 2.099 . S
Mg141 O158 2.079 . S
O142 Mg139 2.180 . S
O142 Mg141 2.099 . S
O142 C153 1.279 . S
O143 Mg139 2.117 . S
O143 C153 1.250 . S
O144 Mg141 2.079 . S
O144 C154 1.264 . S
O145 Mg141 2.072 . S
O145 C155 1.260 . S
Mg146 O147 2.180 . S
Mg146 O148 2.030 . S
Mg146 O149 1.990 . S
Mg146 O150 2.117 . S
O147 Mg141 2.099 . S
O147 Mg146 2.180 . S
O147 C156 1.279 . S
O148 Mg146 2.030 . S
O148 C154 1.248 . S
O149 Mg146 1.990 . S
O149 C155 1.253 . S
O150 Mg146 2.117 . S
O150 C156 1.250 . S
C151 O157 1.248 . S
C151 O158 1.264 . S
C152 O138 1.253 . S
C152 O140 1.260 . S
C153 O142 1.279 . S
C153 O143 1.250 . S
C154 O144 1.264 . S
C154 O148 1.248 . S
C155 O145 1.260 . S
C155 O149 1.253 . S
C156 O147 1.279 . S
C156 O150 1.250 . S
O157 Mg139 2.030 . S
O157 C151 1.248 . S
O158 Mg141 2.079 . S
O158 C151 1.264 . S
O159 Mg160 1.990 . S
O159 C173 1.253 . S
Mg160 O159 1.990 . S
Mg160 O163 2.180 . S
Mg160 O164 2.117 1_455 S
Mg160 O178 2.030 . S
O161 Mg162 2.072 . S
O161 C173 1.260 . S
Mg162 O161 2.072 . S
Mg162 O163 2.099 . S
Mg162 O165 2.079 . S
Mg162 O166 2.072 1_455 S
Mg162 O168 2.099 1_554 S
Mg162 O179 2.079 . S
O163 Mg160 2.180 . S
O163 Mg162 2.099 . S
O163 C174 1.279 1_455 S
O164 Mg160 2.117 1_655 S
O164 C174 1.250 . S
O165 Mg162 2.079 . S
O165 C175 1.264 1_454 S
O166 Mg162 2.072 1_655 S
O166 C176 1.260 1_554 S
Mg167 O168 2.180 1_655 S
Mg167 O169 2.030 . S
Mg167 O170 1.990 . S
Mg167 O171 2.117 1_655 S
O168 Mg162 2.099 1_556 S
O168 Mg167 2.180 1_455 S
O168 C177 1.279 . S
O169 Mg167 2.030 . S
O169 C175 1.248 . S
O170 Mg167 1.990 . S
O170 C176 1.253 . S
O171 Mg167 2.117 1_455 S
O171 C177 1.250 . S
C172 O178 1.248 . S
C172 O179 1.264 . S
C173 O159 1.253 . S
C173 O161 1.260 . S
C174 O163 1.279 1_655 S
C174 O164 1.250 . S
C175 O165 1.264 1_656 S
C175 O169 1.248 . S
C176 O166 1.260 1_556 S
C176 O170 1.253 . S
C177 O168 1.279 . S
C177 O171 1.250 . S
O178 Mg160 2.030 . S
O178 C172 1.248 . S
O179 Mg162 2.079 . S
O179 C172 1.264 . S
H180 C188 0.929 . S
H181 C190 0.930 . S
H182 C192 0.930 . S
H183 C195 0.929 . S
H184 C198 0.930 . S
H185 C200 0.960 . S
H186 C200 0.960 . S
H187 C200 0.960 . S
C188 H180 0.929 . S
C188 C189 1.377 . S
C188 C190 1.384 . S
C189 C188 1.377 . S
C189 C195 1.390 . S
C190 H181 0.930 . S
C190 C188 1.384 . S
C190 C191 1.372 . S
C191 C190 1.372 . S
C191 C192 1.400 . S
C191 C196 1.490 . S
C192 H182 0.930 . S
C192 C191 1.400 . S
C192 C195 1.386 . S
H193 C209 0.957 . S
H194 C210 0.931 . S
C195 H183 0.929 . S
C195 C189 1.390 . S
C195 C192 1.386 . S
C196 C191 1.490 . S
C196 C198 1.395 . S
C196 C199 1.403 . S
H197 C203 0.930 . S
C198 H184 0.930 . S
C198 C196 1.395 . S
C198 C201 1.403 . S
C199 C196 1.403 . S
C199 C200 1.524 . S
C199 C203 1.400 . S
C200 H185 0.960 . S
C200 H186 0.960 . S
C200 H187 0.960 . S
C200 C199 1.524 . S
C201 C198 1.403 . S
C201 C202 1.392 . S
C201 C205 1.495 . S
C202 C201 1.392 . S
C202 C203 1.385 . S
C202 C204 1.478 . S
C203 H197 0.930 . S
C203 C199 1.400 . S
C203 C202 1.385 . S
C204 C202 1.478 . S
C204 C206 1.381 . S
C204 C210 1.383 . S
C205 C201 1.495 . S
C205 H211 0.959 . S
C205 H212 0.961 . S
C205 H213 0.960 . S
C206 C204 1.381 . S
C206 C207 1.394 . S
C206 H214 0.930 . S
C207 C206 1.394 . S
C207 C208 1.383 . S
C207 H215 0.929 . S
C208 C207 1.383 . S
C208 C209 1.377 . S
C209 H193 0.957 . S
C209 C208 1.377 . S
C209 C210 1.379 . S
C210 H194 0.931 . S
C210 C204 1.383 . S
C210 C209 1.379 . S
H211 C205 0.959 . S
H212 C205 0.961 . S
H213 C205 0.960 . S
H214 C206 0.930 . S
H215 C207 0.929 . S
H216 C224 0.929 . S
H217 C226 0.930 . S
H218 C228 0.930 . S
H219 C231 0.929 . S
H220 C234 0.930 . S
H221 C236 0.960 . S
H222 C236 0.960 . S
H223 C236 0.960 . S
C224 H216 0.929 . S
C224 C225 1.377 . S
C224 C226 1.384 . S
C225 C224 1.377 . S
C225 C231 1.390 . S
C226 H217 0.930 . S
C226 C224 1.384 . S
C226 C227 1.372 . S
C227 C226 1.372 . S
C227 C228 1.400 . S
C227 C232 1.490 . S
C228 H218 0.930 . S
C228 C227 1.400 . S
C228 C231 1.386 . S
H229 C245 0.930 . S
H230 C246 0.931 . S
C231 H219 0.929 . S
C231 C225 1.390 . S
C231 C228 1.386 . S
C232 C227 1.490 . S
C232 C234 1.395 . S
C232 C235 1.403 . S
H233 C239 0.930 . S
C234 H220 0.930 . S
C234 C232 1.395 . S
C234 C237 1.403 . S
C235 C232 1.403 . S
C235 C236 1.524 . S
C235 C239 1.400 . S
C236 H221 0.960 . S
C236 H222 0.960 . S
C236 H223 0.960 . S
C236 C235 1.524 . S
C237 C234 1.403 . S
C237 C238 1.392 . S
C237 C241 1.495 1_565 S
C238 C237 1.392 . S
C238 C239 1.385 . S
C238 C240 1.478 . S
C239 H233 0.930 . S
C239 C235 1.400 . S
C239 C238 1.385 . S
C240 C238 1.478 . S
C240 C242 1.381 1_565 S
C240 C246 1.383 . S
C241 C237 1.495 1_545 S
C241 H247 0.959 . S
C241 H248 0.961 . S
C241 H249 0.960 . S
C242 C240 1.381 1_545 S
C242 C243 1.394 . S
C242 H250 0.930 . S
C243 C242 1.394 . S
C243 C244 1.383 1_545 S
C243 H251 0.929 . S
C244 C243 1.383 1_565 S
C244 C245 1.377 . S
C245 H229 0.930 . S
C245 C244 1.377 . S
C245 C246 1.379 . S
C246 H230 0.931 . S
C246 C240 1.383 . S
C246 C245 1.379 . S
H247 C241 0.959 . S
H248 C241 0.961 . S
H249 C241 0.960 . S
H250 C242 0.930 . S
H251 C243 0.929 . S
H252 C260 0.929 . S
H253 C262 0.930 . S
H254 C264 0.930 . S
H255 C267 0.929 . S
H256 C270 0.930 . S
H257 C272 0.960 . S
H258 C272 0.960 . S
H259 C272 0.960 . S
C260 H252 0.929 . S
C260 C261 1.377 . S
C260 C262 1.384 . S
C261 C260 1.377 . S
C261 C267 1.390 . S
C262 H253 0.930 . S
C262 C260 1.384 . S
C262 C263 1.372 . S
C263 C262 1.372 . S
C263 C264 1.400 . S
C263 C268 1.490 . S
C264 H254 0.930 . S
C264 C263 1.400 . S
C264 C267 1.386 . S
H265 C281 0.930 . S
H266 C282 0.931 . S
C267 H255 0.929 . S
C267 C261 1.390 . S
C267 C264 1.386 . S
C268 C263 1.490 . S
C268 C270 1.395 . S
C268 C271 1.403 . S
H269 C275 0.930 . S
C270 H256 0.930 . S
C270 C268 1.395 . S
C270 C273 1.403 . S
C271 C268 1.403 . S
C271 C272 1.524 . S
C271 C275 1.400 . S
C272 H257 0.960 . S
C272 H258 0.960 . S
C272 H259 0.960 . S
C272 C271 1.524 . S
C273 C270 1.403 . S
C273 C274 1.392 . S
C273 C277 1.495 . S
C274 C273 1.392 . S
C274 C275 1.385 . S
C274 C276 1.478 . S
C275 H269 0.930 . S
C275 C271 1.400 . S
C275 C274 1.385 . S
C276 C274 1.478 . S
C276 C278 1.381 . S
C276 C282 1.383 . S
C277 C273 1.495 . S
C277 H283 0.959 . S
C277 H284 0.961 . S
C277 H285 0.960 . S
C278 C276 1.381 . S
C278 C279 1.394 . S
C278 H286 0.930 . S
C279 C278 1.394 . S
C279 C280 1.383 . S
C279 H287 0.929 . S
C280 C279 1.383 . S
C280 C281 1.377 . S
C281 H265 0.930 . S
C281 C280 1.377 . S
C281 C282 1.379 . S
C282 H266 0.931 . S
C282 C276 1.383 . S
C282 C281 1.379 . S
H283 C277 0.959 . S
H284 C277 0.961 . S
H285 C277 0.960 . S
H286 C278 0.930 . S
H287 C279 0.929 . S
H288 C296 0.929 . S
H289 C298 0.930 . S
H290 C300 0.930 . S
H291 C303 0.929 . S
H292 C306 0.930 . S
H293 C308 0.960 . S
H294 C308 0.960 . S
H295 C308 0.960 . S
C296 H288 0.929 . S
C296 C297 1.377 . S
C296 C298 1.384 . S
C297 C296 1.377 . S
C297 C303 1.390 . S
C298 H289 0.930 . S
C298 C296 1.384 . S
C298 C299 1.372 . S
C299 C298 1.372 . S
C299 C300 1.400 . S
C299 C304 1.490 . S
C300 H290 0.930 . S
C300 C299 1.400 . S
C300 C303 1.386 . S
H301 C317 0.930 . S
H302 C318 0.931 . S
C303 H291 0.929 . S
C303 C297 1.390 . S
C303 C300 1.386 . S
C304 C299 1.490 . S
C304 C306 1.395 . S
C304 C307 1.403 . S
H305 C311 0.930 . S
C306 H292 0.930 . S
C306 C304 1.395 . S
C306 C309 1.403 . S
C307 C304 1.403 . S
C307 C308 1.524 . S
C307 C311 1.400 . S
C308 H293 0.960 . S
C308 H294 0.960 . S
C308 H295 0.960 . S
C308 C307 1.524 . S
C309 C306 1.403 . S
C309 C310 1.392 . S
C309 C313 1.495 . S
C310 C309 1.392 . S
C310 C311 1.385 . S
C310 C312 1.478 . S
C311 H305 0.930 . S
C311 C307 1.400 . S
C311 C310 1.385 . S
C312 C310 1.478 . S
C312 C314 1.381 . S
C312 C318 1.383 . S
C313 C309 1.495 . S
C313 H319 0.959 . S
C313 H320 0.961 . S
C313 H321 0.960 . S
C314 C312 1.381 . S
C314 C315 1.394 . S
C314 H322 0.936 . S
C315 C314 1.394 . S
C315 C316 1.383 . S
C315 H323 0.929 1_655 S
C316 C315 1.383 . S
C316 C317 1.377 . S
C317 H301 0.930 . S
C317 C316 1.377 . S
C317 C318 1.379 . S
C318 H302 0.931 . S
C318 C312 1.383 . S
C318 C317 1.379 . S
H319 C313 0.959 . S
H320 C313 0.961 . S
H321 C313 0.960 . S
H322 C314 0.936 . S
H323 C315 0.929 1_455 S
H324 C332 0.929 . S
H325 C334 0.930 . S
H326 C336 0.930 . S
H327 C339 0.929 . S
H328 C342 0.930 . S
H329 C344 0.960 . S
H330 C344 0.960 . S
H331 C344 0.960 . S
C332 H324 0.929 . S
C332 C333 1.377 . S
C332 C334 1.384 . S
C333 C332 1.377 . S
C333 C339 1.390 . S
C334 H325 0.930 . S
C334 C332 1.384 . S
C334 C335 1.372 . S
C335 C334 1.372 . S
C335 C336 1.400 . S
C335 C340 1.490 . S
C336 H326 0.930 . S
C336 C335 1.400 . S
C336 C339 1.386 . S
H337 C353 0.930 . S
H338 C354 0.931 . S
C339 H327 0.929 . S
C339 C333 1.390 . S
C339 C336 1.386 . S
C340 C335 1.490 . S
C340 C342 1.395 . S
C340 C343 1.403 . S
H341 C347 0.930 . S
C342 H328 0.930 . S
C342 C340 1.395 . S
C342 C345 1.403 . S
C343 C340 1.403 . S
C343 C344 1.524 . S
C343 C347 1.400 . S
C344 H329 0.960 . S
C344 H330 0.960 . S
C344 H331 0.960 . S
C344 C343 1.524 . S
C345 C342 1.403 . S
C345 C346 1.392 . S
C345 C349 1.495 . S
C346 C345 1.392 . S
C346 C347 1.385 . S
C346 C348 1.478 . S
C347 H341 0.930 . S
C347 C343 1.400 . S
C347 C346 1.385 . S
C348 C346 1.478 . S
C348 C350 1.381 . S
C348 C354 1.383 . S
C349 C345 1.495 . S
C349 H355 0.959 . S
C349 H356 0.961 . S
C349 H357 0.960 . S
C350 C348 1.381 . S
C350 C351 1.394 . S
C350 H358 0.930 . S
C351 C350 1.394 . S
C351 C352 1.383 . S
C351 H359 0.929 . S
C352 C351 1.383 . S
C352 C353 1.377 . S
C353 H337 0.930 . S
C353 C352 1.377 . S
C353 C354 1.379 . S
C354 H338 0.931 . S
C354 C348 1.383 . S
C354 C353 1.379 . S
H355 C349 0.959 . S
H356 C349 0.961 . S
H357 C349 0.960 . S
H358 C350 0.930 . S
H359 C351 0.929 . S
H360 C368 0.929 . S
H361 C370 0.930 . S
H362 C372 0.930 . S
H363 C375 0.929 . S
H364 C378 0.930 . S
H365 C380 0.960 1_545 S
H366 C380 0.960 . S
H367 C380 0.960 . S
C368 H360 0.929 . S
C368 C369 1.377 . S
C368 C370 1.384 . S
C369 C368 1.377 . S
C369 C375 1.390 . S
C370 H361 0.930 . S
C370 C368 1.384 . S
C370 C371 1.372 . S
C371 C370 1.372 . S
C371 C372 1.400 . S
C371 C376 1.490 . S
C372 H362 0.930 . S
C372 C371 1.400 . S
C372 C375 1.386 . S
H373 C389 0.930 1_545 S
H374 C390 0.931 . S
C375 H363 0.929 . S
C375 C369 1.390 . S
C375 C372 1.386 . S
C376 C371 1.490 . S
C376 C378 1.395 . S
C376 C379 1.403 . S
H377 C383 0.930 . S
C378 H364 0.930 . S
C378 C376 1.395 . S
C378 C381 1.403 . S
C379 C376 1.403 . S
C379 C380 1.524 . S
C379 C383 1.400 . S
C380 H365 0.960 1_565 S
C380 H366 0.960 . S
C380 H367 0.960 . S
C380 C379 1.524 . S
C381 C378 1.403 . S
C381 C382 1.392 . S
C381 C385 1.495 . S
C382 C381 1.392 . S
C382 C383 1.385 . S
C382 C384 1.478 . S
C383 H377 0.930 . S
C383 C379 1.400 . S
C383 C382 1.385 . S
C384 C382 1.478 . S
C384 C386 1.381 . S
C384 C390 1.383 . S
C385 C381 1.495 . S
C385 H391 0.959 . S
C385 H392 0.961 . S
C385 H393 0.960 . S
C386 C384 1.381 . S
C386 C387 1.394 . S
C386 H394 0.930 . S
C387 C386 1.394 . S
C387 C388 1.383 . S
C387 H395 0.929 . S
C388 C387 1.383 . S
C388 C389 1.377 . S
C389 H373 0.930 1_565 S
C389 C388 1.377 . S
C389 C390 1.379 . S
C390 H374 0.931 . S
C390 C384 1.383 . S
C390 C389 1.379 . S
H391 C385 0.959 . S
H392 C385 0.961 . S
H393 C385 0.960 . S
H394 C386 0.930 . S
H395 C387 0.929 . S
H396 C404 0.929 . S
H397 C406 0.930 . S
H398 C408 0.930 . S
H399 C411 0.929 . S
H400 C414 0.930 . S
H401 C416 0.960 . S
H402 C416 0.960 . S
H403 C416 0.960 . S
C404 H396 0.929 . S
C404 C405 1.377 . S
C404 C406 1.384 . S
C405 C404 1.377 . S
C405 C411 1.390 . S
C406 H397 0.930 . S
C406 C404 1.384 . S
C406 C407 1.372 . S
C407 C406 1.372 . S
C407 C408 1.400 . S
C407 C412 1.490 . S
C408 H398 0.930 . S
C408 C407 1.400 . S
C408 C411 1.386 . S
H409 C425 0.930 . S
H410 C426 0.931 1_554 S
C411 H399 0.929 . S
C411 C405 1.390 . S
C411 C408 1.386 . S
C412 C407 1.490 . S
C412 C414 1.395 . S
C412 C415 1.403 . S
H413 C419 0.930 . S
C414 H400 0.930 . S
C414 C412 1.395 . S
C414 C417 1.403 . S
C415 C412 1.403 . S
C415 C416 1.524 . S
C415 C419 1.400 . S
C416 H401 0.960 . S
C416 H402 0.960 . S
C416 H403 0.960 . S
C416 C415 1.524 . S
C417 C414 1.403 . S
C417 C418 1.392 . S
C417 C421 1.495 . S
C418 C417 1.392 . S
C418 C419 1.385 . S
C418 C420 1.478 . S
C419 H413 0.930 . S
C419 C415 1.400 . S
C419 C418 1.385 . S
C420 C418 1.478 . S
C420 C422 1.381 . S
C420 C426 1.383 . S
C421 C417 1.495 . S
C421 H427 0.959 . S
C421 H428 0.961 . S
C421 H429 0.960 . S
C422 C420 1.381 . S
C422 C423 1.394 . S
C422 H430 0.930 . S
C423 C422 1.394 . S
C423 C424 1.383 . S
C423 H431 0.929 . S
C424 C423 1.383 . S
C424 C425 1.377 1_556 S
C425 H409 0.930 . S
C425 C424 1.377 1_554 S
C425 C426 1.379 1_554 S
C426 H410 0.931 1_556 S
C426 C420 1.383 . S
C426 C425 1.379 1_556 S
H427 C421 0.959 . S
H428 C421 0.961 . S
H429 C421 0.960 . S
H430 C422 0.930 . S
H431 C423 0.929 . S
H432 C440 0.929 . S
H433 C442 0.930 . S
H434 C444 0.930 . S
H435 C447 0.929 . S
H436 C450 0.930 . S
H437 C452 0.960 . S
H438 C452 0.960 . S
H439 C452 0.960 . S
C440 H432 0.929 . S
C440 C441 1.377 . S
C440 C442 1.384 . S
C441 C440 1.377 . S
C441 C447 1.390 . S
C442 H433 0.930 . S
C442 C440 1.384 . S
C442 C443 1.372 . S
C443 C442 1.372 . S
C443 C444 1.400 . S
C443 C448 1.490 . S
C444 H434 0.930 . S
C444 C443 1.400 . S
C444 C447 1.386 . S
H445 C461 0.930 . S
H446 C462 0.931 . S
C447 H435 0.929 . S
C447 C441 1.390 . S
C447 C444 1.386 . S
C448 C443 1.490 . S
C448 C450 1.395 . S
C448 C451 1.403 . S
H449 C455 0.930 . S
C450 H436 0.930 . S
C450 C448 1.395 . S
C450 C453 1.403 . S
C451 C448 1.403 . S
C451 C452 1.524 . S
C451 C455 1.400 . S
C452 H437 0.960 . S
C452 H438 0.960 . S
C452 H439 0.960 . S
C452 C451 1.524 . S
C453 C450 1.403 . S
C453 C454 1.392 . S
C453 C457 1.495 . S
C454 C453 1.392 . S
C454 C455 1.385 . S
C454 C456 1.478 . S
C455 H449 0.930 . S
C455 C451 1.400 . S
C455 C454 1.385 . S
C456 C454 1.478 . S
C456 C458 1.381 . S
C456 C462 1.383 . S
C457 C453 1.495 . S
C457 H463 0.959 . S
C457 H464 0.961 . S
C457 H465 0.960 . S
C458 C456 1.381 . S
C458 C459 1.394 . S
C458 H466 0.930 . S
C459 C458 1.394 . S
C459 C460 1.383 . S
C459 H467 0.929 . S
C460 C459 1.383 . S
C460 C461 1.377 . S
C461 H445 0.930 . S
C461 C460 1.377 . S
C461 C462 1.379 . S
C462 H446 0.931 . S
C462 C456 1.383 . S
C462 C461 1.379 . S
H463 C457 0.959 . S
H464 C457 0.961 . S
H465 C457 0.960 . S
H466 C458 0.930 . S
H467 C459 0.929 . S
H468 C476 0.929 . S
H469 C478 0.930 . S
H470 C480 0.930 . S
H471 C483 0.929 . S
H472 C486 0.930 . S
H473 C488 0.960 . S
H474 C488 0.960 . S
H475 C488 0.960 . S
C476 H468 0.929 . S
C476 C477 1.377 . S
C476 C478 1.384 . S
C477 C476 1.377 . S
C477 C483 1.390 . S
C478 H469 0.930 . S
C478 C476 1.384 . S
C478 C479 1.372 . S
C479 C478 1.372 . S
C479 C480 1.400 . S
C479 C484 1.490 . S
C480 H470 0.930 . S
C480 C479 1.400 . S
C480 C483 1.386 . S
H481 C497 0.930 . S
H482 C498 0.931 . S
C483 H471 0.929 . S
C483 C477 1.390 . S
C483 C480 1.386 . S
C484 C479 1.490 . S
C484 C486 1.395 . S
C484 C487 1.403 . S
H485 C491 0.930 . S
C486 H472 0.930 . S
C486 C484 1.395 . S
C486 C489 1.403 . S
C487 C484 1.403 . S
C487 C488 1.524 . S
C487 C491 1.400 . S
C488 H473 0.960 . S
C488 H474 0.960 . S
C488 H475 0.960 . S
C488 C487 1.524 . S
C489 C486 1.403 . S
C489 C490 1.392 . S
C489 C493 1.495 . S
C490 C489 1.392 . S
C490 C491 1.385 . S
C490 C492 1.478 . S
C491 H485 0.930 . S
C491 C487 1.400 . S
C491 C490 1.385 . S
C492 C490 1.478 . S
C492 C494 1.381 . S
C492 C498 1.383 . S
C493 C489 1.495 . S
C493 H499 0.959 1_455 S
C493 H500 0.961 . S
C493 H501 0.960 . S
C494 C492 1.381 . S
C494 C495 1.394 . S
C494 H502 0.930 . S
C495 C494 1.394 . S
C495 C496 1.383 . S
C495 H503 0.929 1_554 S
C496 C495 1.383 . S
C496 C497 1.377 . S
C497 H481 0.930 . S
C497 C496 1.377 . S
C497 C498 1.379 . S
C498 H482 0.931 . S
C498 C492 1.383 . S
C498 C497 1.379 . S
H499 C493 0.959 1_655 S
H500 C493 0.961 . S
H501 C493 0.960 . S
H502 C494 0.930 . S
H503 C495 0.929 1_556 S
H504 C512 0.929 . S
H505 C514 0.930 . S
H506 C516 0.930 . S
H507 C519 0.929 . S
H508 C522 0.930 . S
H509 C524 0.960 . S
H510 C524 0.960 . S
H511 C524 0.960 . S
C512 H504 0.929 . S
C512 C513 1.377 . S
C512 C514 1.384 . S
C513 C512 1.377 . S
C513 C519 1.390 . S
C514 H505 0.930 . S
C514 C512 1.384 . S
C514 C515 1.372 . S
C515 C514 1.372 . S
C515 C516 1.400 . S
C515 C520 1.490 . S
C516 H506 0.930 . S
C516 C515 1.400 . S
C516 C519 1.386 . S
H517 C533 0.930 . S
H518 C534 0.931 . S
C519 H507 0.929 . S
C519 C513 1.390 . S
C519 C516 1.386 . S
C520 C515 1.490 . S
C520 C522 1.395 . S
C520 C523 1.403 . S
H521 C527 0.930 . S
C522 H508 0.930 . S
C522 C520 1.395 . S
C522 C525 1.403 . S
C523 C520 1.403 . S
C523 C524 1.524 . S
C523 C527 1.400 . S
C524 H509 0.960 . S
C524 H510 0.960 . S
C524 H511 0.960 . S
C524 C523 1.524 . S
C525 C522 1.403 . S
C525 C526 1.392 . S
C525 C529 1.495 . S
C526 C525 1.392 . S
C526 C527 1.385 . S
C526 C528 1.478 . S
C527 H521 0.930 . S
C527 C523 1.400 . S
C527 C526 1.385 . S
C528 C526 1.478 . S
C528 C530 1.381 . S
C528 C534 1.383 . S
C529 C525 1.495 . S
C529 H535 0.959 . S
C529 H536 0.961 . S
C529 H537 0.960 . S
C530 C528 1.381 . S
C530 C531 1.394 . S
C530 H538 0.930 . S
C531 C530 1.394 . S
C531 C532 1.383 . S
C531 H539 0.929 . S
C532 C531 1.383 . S
C532 C533 1.377 . S
C533 H517 0.930 . S
C533 C532 1.377 . S
C533 C534 1.379 . S
C534 H518 0.931 . S
C534 C528 1.383 . S
C534 C533 1.379 . S
H535 C529 0.959 . S
H536 C529 0.961 . S
H537 C529 0.960 . S
H538 C530 0.930 . S
H539 C531 0.929 . S
H540 C548 0.929 . S
H541 C550 0.930 . S
H542 C552 0.930 . S
H543 C555 0.929 . S
H544 C558 0.930 . S
H545 C560 0.960 . S
H546 C560 0.960 . S
H547 C560 0.960 . S
C548 H540 0.929 . S
C548 C549 1.377 . S
C548 C550 1.384 . S
C549 C548 1.377 . S
C549 C555 1.390 . S
C550 H541 0.930 . S
C550 C548 1.384 . S
C550 C551 1.372 . S
C551 C550 1.372 . S
C551 C552 1.400 . S
C551 C556 1.490 . S
C552 H542 0.930 . S
C552 C551 1.400 . S
C552 C555 1.386 . S
H553 C569 0.930 1_455 S
H554 C570 0.931 . S
C555 H543 0.929 . S
C555 C549 1.390 . S
C555 C552 1.386 . S
C556 C551 1.490 . S
C556 C558 1.395 . S
C556 C559 1.403 . S
H557 C563 0.930 . S
C558 H544 0.930 . S
C558 C556 1.395 . S
C558 C561 1.403 . S
C559 C556 1.403 . S
C559 C560 1.524 . S
C559 C563 1.400 . S
C560 H545 0.960 . S
C560 H546 0.960 . S
C560 H547 0.960 . S
C560 C559 1.524 . S
C561 C558 1.403 . S
C561 C562 1.392 . S
C561 C565 1.495 . S
C562 C561 1.392 . S
C562 C563 1.385 . S
C562 C564 1.478 . S
C563 H557 0.930 . S
C563 C559 1.400 . S
C563 C562 1.385 . S
C564 C562 1.478 . S
C564 C566 1.381 . S
C564 C570 1.383 . S
C565 C561 1.495 . S
C565 H571 0.959 . S
C565 H572 0.961 . S
C565 H573 0.960 . S
C566 C564 1.381 . S
C566 C567 1.394 . S
C566 H574 0.930 . S
C567 C566 1.394 . S
C567 C568 1.383 . S
C567 H575 0.929 . S
C568 C567 1.383 . S
C568 C569 1.377 . S
C569 H553 0.930 1_655 S
C569 C568 1.377 . S
C569 C570 1.379 . S
C570 H554 0.931 . S
C570 C564 1.383 . S
C570 C569 1.379 . S
H571 C565 0.959 . S
H572 C565 0.961 . S
H573 C565 0.960 . S
H574 C566 0.930 . S
H575 C567 0.929 . S
H576 C584 0.929 . S
H577 C586 0.930 . S
H578 C588 0.930 . S
H579 C591 0.929 . S
H580 C594 0.930 . S
H581 C596 0.960 . S
H582 C596 0.960 . S
H583 C596 0.960 . S
C584 H576 0.929 . S
C584 C585 1.377 . S
C584 C586 1.384 . S
C585 C584 1.377 . S
C585 C591 1.390 . S
C586 H577 0.930 . S
C586 C584 1.384 . S
C586 C587 1.372 . S
C587 C586 1.372 . S
C587 C588 1.400 . S
C587 C592 1.490 . S
C588 H578 0.930 . S
C588 C587 1.400 . S
C588 C591 1.386 . S
H589 C605 0.930 . S
H590 C606 0.931 . S
C591 H579 0.929 . S
C591 C585 1.390 . S
C591 C588 1.386 . S
C592 C587 1.490 . S
C592 C594 1.395 . S
C592 C595 1.403 . S
H593 C599 0.930 . S
C594 H580 0.930 . S
C594 C592 1.395 . S
C594 C597 1.403 . S
C595 C592 1.403 . S
C595 C596 1.524 . S
C595 C599 1.400 . S
C596 H581 0.960 . S
C596 H582 0.960 . S
C596 H583 0.960 . S
C596 C595 1.524 . S
C597 C594 1.403 . S
C597 C598 1.392 . S
C597 C601 1.495 . S
C598 C597 1.392 . S
C598 C599 1.385 . S
C598 C600 1.478 . S
C599 H593 0.930 . S
C599 C595 1.400 . S
C599 C598 1.385 . S
C600 C598 1.478 . S
C600 C602 1.381 . S
C600 C606 1.383 . S
C601 C597 1.495 . S
C601 H607 0.959 . S
C601 H608 0.961 . S
C601 H609 0.960 . S
C602 C600 1.381 . S
C602 C603 1.394 . S
C602 H610 0.930 . S
C603 C602 1.394 . S
C603 C604 1.383 . S
C603 H611 0.929 . S
C604 C603 1.383 . S
C604 C605 1.377 . S
C605 H589 0.930 . S
C605 C604 1.377 . S
C605 C606 1.379 . S
C606 H590 0.931 . S
C606 C600 1.383 . S
C606 C605 1.379 . S
H607 C601 0.959 . S
H608 C601 0.961 . S
H609 C601 0.960 . S
H610 C602 0.930 . S
H611 C603 0.929 . S
H612 C620 0.929 . S
H613 C622 0.930 . S
H614 C624 0.930 . S
H615 C627 0.929 . S
H616 C630 0.930 . S
H617 C632 0.960 . S
H618 C632 0.960 . S
H619 C632 0.960 . S
C620 H612 0.929 . S
C620 C621 1.377 . S
C620 C622 1.384 . S
C621 C620 1.377 . S
C621 C627 1.390 . S
C622 H613 0.930 . S
C622 C620 1.384 . S
C622 C623 1.372 . S
C623 C622 1.372 . S
C623 C624 1.400 . S
C623 C628 1.490 . S
C624 H614 0.930 . S
C624 C623 1.400 . S
C624 C627 1.386 . S
H625 C641 0.930 1_455 S
H626 C642 0.931 . S
C627 H615 0.929 . S
C627 C621 1.390 . S
C627 C624 1.386 . S
C628 C623 1.490 . S
C628 C630 1.395 . S
C628 C631 1.403 . S
H629 C635 0.930 . S
C630 H616 0.930 . S
C630 C628 1.395 . S
C630 C633 1.403 . S
C631 C628 1.403 . S
C631 C632 1.524 . S
C631 C635 1.400 . S
C632 H617 0.960 . S
C632 H618 0.960 . S
C632 H619 0.960 . S
C632 C631 1.524 . S
C633 C630 1.403 . S
C633 C634 1.392 . S
C633 C637 1.512 . S
C634 C633 1.392 . S
C634 C635 1.385 . S
C634 C636 1.478 . S
C635 H629 0.930 . S
C635 C631 1.400 . S
C635 C634 1.385 . S
C636 C634 1.478 . S
C636 C638 1.381 . S
C636 C642 1.383 . S
C637 C633 1.512 . S
C637 H643 0.951 1_565 S
C637 H644 0.951 1_565 S
C637 H645 0.961 . S
C638 C636 1.381 . S
C638 C639 1.394 . S
C638 H646 0.930 . S
C639 C638 1.394 . S
C639 C640 1.383 . S
C639 H647 0.929 . S
C640 C639 1.383 . S
C640 C641 1.377 . S
C641 H625 0.930 1_655 S
C641 C640 1.377 . S
C641 C642 1.379 . S
C642 H626 0.931 . S
C642 C636 1.383 . S
C642 C641 1.379 . S
H643 C637 0.951 1_545 S
H644 C637 0.951 1_545 S
H645 C637 0.961 . S
H646 C638 0.930 . S
H647 C639 0.929 . S
H648 C656 0.929 . S
H649 C658 0.930 . S
H650 C660 0.930 . S
H651 C663 0.929 . S
H652 C666 0.930 . S
H653 C668 0.960 . S
H654 C668 0.960 . S
H655 C668 0.960 . S
C656 H648 0.929 . S
C656 C657 1.377 . S
C656 C658 1.384 . S
C657 C656 1.377 . S
C657 C663 1.390 . S
C658 H649 0.930 . S
C658 C656 1.384 . S
C658 C659 1.372 . S
C659 C658 1.372 . S
C659 C660 1.400 . S
C659 C664 1.490 . S
C660 H650 0.930 . S
C660 C659 1.400 . S
C660 C663 1.386 . S
H661 C677 0.930 . S
H662 C678 0.931 . S
C663 H651 0.929 . S
C663 C657 1.390 . S
C663 C660 1.386 . S
C664 C659 1.490 . S
C664 C666 1.395 . S
C664 C667 1.403 . S
H665 C671 0.930 . S
C666 H652 0.930 . S
C666 C664 1.395 . S
C666 C669 1.403 . S
C667 C664 1.403 . S
C667 C668 1.524 . S
C667 C671 1.400 . S
C668 H653 0.960 . S
C668 H654 0.960 . S
C668 H655 0.960 . S
C668 C667 1.524 . S
C669 C666 1.403 . S
C669 C670 1.392 . S
C669 C673 1.495 . S
C670 C669 1.392 . S
C670 C671 1.385 . S
C670 C672 1.478 . S
C671 H665 0.930 . S
C671 C667 1.400 . S
C671 C670 1.385 . S
C672 C670 1.478 . S
C672 C674 1.381 . S
C672 C678 1.383 . S
C673 C669 1.495 . S
C673 H679 0.959 . S
C673 H680 0.961 . S
C673 H681 0.960 . S
C674 C672 1.381 . S
C674 C675 1.394 . S
C674 H682 0.930 . S
C675 C674 1.394 . S
C675 C676 1.383 . S
C675 H683 0.929 . S
C676 C675 1.383 . S
C676 C677 1.377 . S
C677 H661 0.930 . S
C677 C676 1.377 . S
C677 C678 1.379 . S
C678 H662 0.931 . S
C678 C672 1.383 . S
C678 C677 1.379 . S
H679 C673 0.959 . S
H680 C673 0.961 . S
H681 C673 0.960 . S
H682 C674 0.930 . S
H683 C675 0.929 . S
H684 C692 0.929 . S
H685 C694 0.930 . S
H686 C696 0.930 . S
H687 C699 0.929 . S
H688 C702 0.930 . S
H689 C704 0.960 . S
H690 C704 0.960 . S
H691 C704 0.960 . S
C692 H684 0.929 . S
C692 C693 1.377 . S
C692 C694 1.384 . S
C693 C692 1.377 . S
C693 C699 1.390 . S
C694 H685 0.930 . S
C694 C692 1.384 . S
C694 C695 1.372 . S
C695 C694 1.372 . S
C695 C696 1.400 . S
C695 C700 1.490 . S
C696 H686 0.930 . S
C696 C695 1.400 . S
C696 C699 1.386 . S
H697 C713 0.930 . S
H698 C714 0.931 . S
C699 H687 0.929 . S
C699 C693 1.390 . S
C699 C696 1.386 . S
C700 C695 1.490 . S
C700 C702 1.395 . S
C700 C703 1.403 . S
H701 C707 0.930 . S
C702 H688 0.930 . S
C702 C700 1.395 . S
C702 C705 1.403 . S
C703 C700 1.403 . S
C703 C704 1.524 . S
C703 C707 1.400 . S
C704 H689 0.960 . S
C704 H690 0.960 . S
C704 H691 0.960 . S
C704 C703 1.524 . S
C705 C702 1.403 . S
C705 C706 1.392 . S
C705 C709 1.495 . S
C706 C705 1.392 . S
C706 C707 1.385 . S
C706 C708 1.478 . S
C707 H701 0.930 . S
C707 C703 1.400 . S
C707 C706 1.385 . S
C708 C706 1.478 . S
C708 C710 1.381 . S
C708 C714 1.383 . S
C709 C705 1.495 . S
C709 H715 0.959 . S
C709 H716 0.961 . S
C709 H717 0.960 . S
C710 C708 1.381 . S
C710 C711 1.394 . S
C710 H718 0.930 . S
C711 C710 1.394 . S
C711 C712 1.383 . S
C711 H719 0.929 . S
C712 C711 1.383 . S
C712 C713 1.377 . S
C713 H697 0.930 . S
C713 C712 1.377 . S
C713 C714 1.379 . S
C714 H698 0.931 . S
C714 C708 1.383 . S
C714 C713 1.379 . S
H715 C709 0.959 . S
H716 C709 0.961 . S
H717 C709 0.960 . S
H718 C710 0.930 . S
H719 C711 0.929 . S
H720 C728 0.929 . S
H721 C730 0.930 . S
H722 C732 0.930 . S
H723 C735 0.929 . S
H724 C738 0.930 . S
H725 C740 0.960 . S
H726 C740 0.960 . S
H727 C740 0.960 . S
C728 H720 0.929 . S
C728 C729 1.377 . S
C728 C730 1.384 . S
C729 C728 1.377 . S
C729 C735 1.390 . S
C730 H721 0.930 . S
C730 C728 1.384 . S
C730 C731 1.372 . S
C731 C730 1.372 . S
C731 C732 1.400 . S
C731 C736 1.490 . S
C732 H722 0.930 . S
C732 C731 1.400 . S
C732 C735 1.386 . S
H733 C749 0.930 . S
H734 C750 0.931 . S
C735 H723 0.929 . S
C735 C729 1.390 . S
C735 C732 1.386 . S
C736 C731 1.490 . S
C736 C738 1.395 . S
C736 C739 1.403 . S
H737 C743 0.930 . S
C738 H724 0.930 . S
C738 C736 1.395 . S
C738 C741 1.403 . S
C739 C736 1.403 . S
C739 C740 1.524 . S
C739 C743 1.400 . S
C740 H725 0.960 . S
C740 H726 0.960 . S
C740 H727 0.960 . S
C740 C739 1.524 . S
C741 C738 1.403 . S
C741 C742 1.392 . S
C741 C745 1.495 . S
C742 C741 1.392 . S
C742 C743 1.385 . S
C742 C744 1.478 . S
C743 H737 0.930 . S
C743 C739 1.400 . S
C743 C742 1.385 . S
C744 C742 1.478 . S
C744 C746 1.381 . S
C744 C750 1.383 . S
C745 C741 1.495 . S
C745 H751 0.959 . S
C745 H752 0.961 . S
C745 H753 0.960 . S
C746 C744 1.381 . S
C746 C747 1.394 . S
C746 H754 0.930 . S
C747 C746 1.394 . S
C747 C748 1.383 . S
C747 H755 0.918 1_455 S
C748 C747 1.383 . S
C748 C749 1.377 . S
C749 H733 0.930 . S
C749 C748 1.377 . S
C749 C750 1.379 . S
C750 H734 0.931 . S
C750 C744 1.383 . S
C750 C749 1.379 . S
H751 C745 0.959 . S
H752 C745 0.961 . S
H753 C745 0.960 . S
H754 C746 0.930 . S
H755 C747 0.918 1_655 S
H756 C764 0.929 . S
H757 C766 0.930 . S
H758 C768 0.930 . S
H759 C771 0.929 . S
H760 C774 0.930 . S
H761 C776 0.960 . S
H762 C776 0.960 . S
H763 C776 0.960 1_565 S
C764 H756 0.929 . S
C764 C765 1.377 . S
C764 C766 1.384 . S
C765 C764 1.377 . S
C765 C771 1.390 . S
C766 H757 0.930 . S
C766 C764 1.384 . S
C766 C767 1.372 . S
C767 C766 1.372 . S
C767 C768 1.400 . S
C767 C772 1.490 . S
C768 H758 0.930 . S
C768 C767 1.400 . S
C768 C771 1.386 . S
H769 C785 0.930 1_554 S
H770 C786 0.931 . S
C771 H759 0.929 . S
C771 C765 1.390 . S
C771 C768 1.386 . S
C772 C767 1.490 . S
C772 C774 1.395 . S
C772 C775 1.403 . S
H773 C779 0.930 1_545 S
C774 H760 0.930 . S
C774 C772 1.395 . S
C774 C777 1.403 . S
C775 C772 1.403 . S
C775 C776 1.524 1_565 S
C775 C779 1.400 . S
C776 H761 0.960 . S
C776 H762 0.960 . S
C776 H763 0.960 1_545 S
C776 C775 1.524 1_545 S
C777 C774 1.403 . S
C777 C778 1.392 . S
C777 C781 1.495 . S
C778 C777 1.392 . S
C778 C779 1.385 . S
C778 C780 1.478 . S
C779 H773 0.930 1_565 S
C779 C775 1.400 . S
C779 C778 1.385 . S
C780 C778 1.478 . S
C780 C782 1.381 . S
C780 C786 1.383 . S
C781 C777 1.495 . S
C781 H787 0.959 . S
C781 H788 0.961 . S
C781 H789 0.960 . S
C782 C780 1.381 . S
C782 C783 1.394 . S
C782 H790 0.930 . S
C783 C782 1.394 . S
C783 C784 1.383 . S
C783 H791 0.929 . S
C784 C783 1.383 . S
C784 C785 1.377 . S
C785 H769 0.930 1_556 S
C785 C784 1.377 . S
C785 C786 1.379 . S
C786 H770 0.931 . S
C786 C780 1.383 . S
C786 C785 1.379 . S
H787 C781 0.959 . S
H788 C781 0.961 . S
H789 C781 0.960 . S
H790 C782 0.930 . S
H791 C783 0.929 . S
H792 C800 0.929 . S
H793 C802 0.930 . S
H794 C804 0.930 . S
H795 C807 0.929 . S
H796 C810 0.930 . S
H797 C812 0.960 . S
H798 C812 0.960 . S
H799 C812 0.960 . S
C800 H792 0.929 . S
C800 C801 1.377 . S
C800 C802 1.384 . S
C801 C800 1.377 . S
C801 C807 1.390 . S
C802 H793 0.930 . S
C802 C800 1.384 . S
C802 C803 1.372 . S
C803 C802 1.372 . S
C803 C804 1.400 . S
C803 C808 1.490 . S
C804 H794 0.930 . S
C804 C803 1.400 . S
C804 C807 1.386 . S
H805 C821 0.930 . S
H806 C822 0.931 . S
C807 H795 0.929 . S
C807 C801 1.390 . S
C807 C804 1.386 . S
C808 C803 1.490 . S
C808 C810 1.395 . S
C808 C811 1.403 . S
H809 C815 0.930 . S
C810 H796 0.930 . S
C810 C808 1.395 . S
C810 C813 1.403 . S
C811 C808 1.403 . S
C811 C812 1.524 . S
C811 C815 1.400 . S
C812 H797 0.960 . S
C812 H798 0.960 . S
C812 H799 0.960 . S
C812 C811 1.524 . S
C813 C810 1.403 . S
C813 C814 1.392 . S
C813 C817 1.495 . S
C814 C813 1.392 . S
C814 C815 1.385 . S
C814 C816 1.478 . S
C815 H809 0.930 . S
C815 C811 1.400 . S
C815 C814 1.385 . S
C816 C814 1.478 . S
C816 C818 1.381 . S
C816 C822 1.383 . S
C817 C813 1.495 . S
C817 H823 0.959 . S
C817 H824 0.961 . S
C817 H825 0.960 . S
C818 C816 1.381 . S
C818 C819 1.394 . S
C818 H826 0.930 . S
C819 C818 1.394 . S
C819 C820 1.383 . S
C819 H827 0.929 . S
C820 C819 1.383 . S
C820 C821 1.377 . S
C821 H805 0.930 . S
C821 C820 1.377 . S
C821 C822 1.379 . S
C822 H806 0.931 . S
C822 C816 1.383 . S
C822 C821 1.379 . S
H823 C817 0.959 . S
H824 C817 0.961 . S
H825 C817 0.960 . S
H826 C818 0.930 . S
H827 C819 0.929 . S
H828 C836 0.929 . S
H829 C838 0.930 . S
H830 C840 0.930 . S
H831 C843 0.929 . S
H832 C846 0.930 . S
H833 C848 0.960 . S
H834 C848 0.960 . S
H835 C848 0.960 . S
C836 H828 0.929 . S
C836 C837 1.377 . S
C836 C838 1.384 . S
C837 C836 1.377 . S
C837 C843 1.390 . S
C838 H829 0.930 . S
C838 C836 1.384 . S
C838 C839 1.372 . S
C839 C838 1.372 . S
C839 C840 1.400 . S
C839 C844 1.490 . S
C840 H830 0.930 . S
C840 C839 1.400 . S
C840 C843 1.386 . S
H841 C857 0.930 . S
H842 C858 0.931 . S
C843 H831 0.929 . S
C843 C837 1.390 . S
C843 C840 1.386 . S
C844 C839 1.490 . S
C844 C846 1.395 . S
C844 C847 1.403 . S
H845 C851 0.930 . S
C846 H832 0.930 . S
C846 C844 1.395 . S
C846 C849 1.403 . S
C847 C844 1.403 . S
C847 C848 1.524 . S
C847 C851 1.400 . S
C848 H833 0.960 . S
C848 H834 0.960 . S
C848 H835 0.960 . S
C848 C847 1.524 . S
C849 C846 1.403 . S
C849 C850 1.392 . S
C849 C853 1.495 . S
C850 C849 1.392 . S
C850 C851 1.385 . S
C850 C852 1.478 . S
C851 H845 0.930 . S
C851 C847 1.400 . S
C851 C850 1.385 . S
C852 C850 1.478 . S
C852 C854 1.381 . S
C852 C858 1.383 . S
C853 C849 1.495 . S
C853 H859 0.959 . S
C853 H860 0.961 . S
C853 H861 0.960 . S
C854 C852 1.381 . S
C854 C855 1.394 . S
C854 H862 0.930 . S
C855 C854 1.394 . S
C855 C856 1.383 . S
C855 H863 0.929 . S
C856 C855 1.383 . S
C856 C857 1.377 . S
C857 H841 0.930 . S
C857 C856 1.377 . S
C857 C858 1.379 . S
C858 H842 0.931 . S
C858 C852 1.383 . S
C858 C857 1.379 . S
H859 C853 0.959 . S
H860 C853 0.961 . S
H861 C853 0.960 . S
H862 C854 0.930 . S
H863 C855 0.929 . S
H864 C872 0.929 . S
H865 C874 0.930 . S
H866 C876 0.930 . S
H867 C879 0.929 . S
H868 C882 0.930 . S
H869 C884 0.960 . S
H870 C884 0.960 . S
H871 C884 0.960 . S
C872 H864 0.929 . S
C872 C873 1.377 . S
C872 C874 1.384 . S
C873 C872 1.377 . S
C873 C879 1.390 . S
C874 H865 0.930 . S
C874 C872 1.384 . S
C874 C875 1.372 . S
C875 C874 1.372 . S
C875 C876 1.400 . S
C875 C880 1.490 . S
C876 H866 0.930 . S
C876 C875 1.400 . S
C876 C879 1.386 . S
H877 C893 0.930 . S
H878 C894 0.931 . S
C879 H867 0.929 . S
C879 C873 1.390 . S
C879 C876 1.386 . S
C880 C875 1.490 . S
C880 C882 1.395 . S
C880 C883 1.403 . S
H881 C887 0.930 . S
C882 H868 0.930 . S
C882 C880 1.395 . S
C882 C885 1.403 . S
C883 C880 1.403 . S
C883 C884 1.524 . S
C883 C887 1.400 . S
C884 H869 0.960 . S
C884 H870 0.960 . S
C884 H871 0.960 . S
C884 C883 1.524 . S
C885 C882 1.403 . S
C885 C886 1.392 . S
C885 C889 1.495 . S
C886 C885 1.392 . S
C886 C887 1.385 . S
C886 C888 1.478 . S
C887 H881 0.930 . S
C887 C883 1.400 . S
C887 C886 1.385 . S
C888 C886 1.478 . S
C888 C890 1.381 . S
C888 C894 1.383 . S
C889 C885 1.495 . S
C889 H895 0.959 . S
C889 H896 0.961 . S
C889 H897 0.960 . S
C890 C888 1.381 . S
C890 C891 1.394 . S
C890 H898 0.930 . S
C891 C890 1.394 . S
C891 C892 1.383 . S
C891 H899 0.929 . S
C892 C891 1.383 . S
C892 C893 1.377 . S
C893 H877 0.930 . S
C893 C892 1.377 . S
C893 C894 1.379 . S
C894 H878 0.931 . S
C894 C888 1.383 . S
C894 C893 1.379 . S
H895 C889 0.959 . S
H896 C889 0.961 . S
H897 C889 0.960 . S
H898 C890 0.930 . S
H899 C891 0.929 . S
H900 C908 0.929 . S
H901 C910 0.930 . S
H902 C912 0.930 . S
H903 C915 0.929 . S
H904 C918 0.930 . S
H905 C920 0.960 1_554 S
H906 C920 0.966 . S
H907 C920 0.960 . S
C908 H900 0.929 . S
C908 C909 1.377 . S
C908 C910 1.384 . S
C909 C908 1.377 . S
C909 C915 1.390 . S
C910 H901 0.930 . S
C910 C908 1.384 . S
C910 C911 1.372 . S
C911 C910 1.372 . S
C911 C912 1.400 . S
C911 C916 1.490 . S
C912 H902 0.930 . S
C912 C911 1.400 . S
C912 C915 1.386 . S
H913 C929 0.930 . S
H914 C930 0.931 1_455 S
C915 H903 0.929 . S
C915 C909 1.390 . S
C915 C912 1.386 . S
C916 C911 1.490 . S
C916 C918 1.395 . S
C916 C919 1.403 . S
H917 C923 0.930 . S
C918 H904 0.930 . S
C918 C916 1.395 . S
C918 C921 1.403 . S
C919 C916 1.403 . S
C919 C920 1.524 . S
C919 C923 1.400 . S
C920 H905 0.960 1_556 S
C920 H906 0.966 . S
C920 H907 0.960 . S
C920 C919 1.524 . S
C921 C918 1.403 . S
C921 C922 1.392 . S
C921 C925 1.495 . S
C922 C921 1.392 . S
C922 C923 1.385 . S
C922 C924 1.478 . S
C923 H917 0.930 . S
C923 C919 1.400 . S
C923 C922 1.385 . S
C924 C922 1.478 . S
C924 C926 1.381 . S
C924 C930 1.383 . S
C925 C921 1.495 . S
C925 H931 0.959 . S
C925 H932 0.961 . S
C925 H933 0.960 . S
C926 C924 1.381 . S
C926 C927 1.394 . S
C926 H934 0.930 . S
C927 C926 1.394 . S
C927 C928 1.383 . S
C927 H935 0.929 . S
C928 C927 1.383 . S
C928 C929 1.377 1_655 S
C929 H913 0.930 . S
C929 C928 1.377 1_455 S
C929 C930 1.379 1_455 S
C930 H914 0.931 1_655 S
C930 C924 1.383 . S
C930 C929 1.379 1_655 S
H931 C925 0.959 . S
H932 C925 0.961 . S
H933 C925 0.960 . S
H934 C926 0.930 . S
H935 C927 0.929 . S
H936 C944 0.929 . S
H937 C946 0.930 . S
H938 C948 0.930 . S
H939 C951 0.929 . S
H940 C954 0.930 . S
H941 C956 0.960 . S
H942 C956 0.960 . S
H943 C956 0.960 . S
C944 H936 0.929 . S
C944 C945 1.377 . S
C944 C946 1.384 . S
C945 C944 1.377 . S
C945 C951 1.390 . S
C946 H937 0.930 . S
C946 C944 1.384 . S
C946 C947 1.372 . S
C947 C946 1.372 . S
C947 C948 1.400 . S
C947 C952 1.490 . S
C948 H938 0.930 . S
C948 C947 1.400 . S
C948 C951 1.386 . S
H949 C965 0.930 . S
H950 C966 0.931 . S
C951 H939 0.929 . S
C951 C945 1.390 . S
C951 C948 1.386 . S
C952 C947 1.490 . S
C952 C954 1.395 . S
C952 C955 1.403 . S
H953 C959 0.930 . S
C954 H940 0.930 . S
C954 C952 1.395 . S
C954 C957 1.403 . S
C955 C952 1.403 . S
C955 C956 1.524 . S
C955 C959 1.400 . S
C956 H941 0.960 . S
C956 H942 0.960 . S
C956 H943 0.960 . S
C956 C955 1.524 . S
C957 C954 1.403 . S
C957 C958 1.392 . S
C957 C961 1.495 . S
C958 C957 1.392 . S
C958 C959 1.385 . S
C958 C960 1.478 . S
C959 H953 0.930 . S
C959 C955 1.400 . S
C959 C958 1.385 . S
C960 C958 1.478 . S
C960 C962 1.381 . S
C960 C966 1.383 . S
C961 C957 1.495 . S
C961 H967 0.959 . S
C961 H968 0.961 . S
C961 H969 0.960 . S
C962 C960 1.381 . S
C962 C963 1.394 . S
C962 H970 0.930 . S
C963 C962 1.394 . S
C963 C964 1.383 . S
C963 H971 0.929 . S
C964 C963 1.383 . S
C964 C965 1.377 . S
C965 H949 0.930 . S
C965 C964 1.377 . S
C965 C966 1.379 . S
C966 H950 0.931 . S
C966 C960 1.383 . S
C966 C965 1.379 . S
H967 C961 0.959 . S
H968 C961 0.961 . S
H969 C961 0.960 . S
H970 C962 0.930 . S
H971 C963 0.929 . S
H972 C980 0.929 . S
H973 C982 0.930 . S
H974 C984 0.930 . S
H975 C987 0.929 . S
H976 C990 0.930 . S
H977 C992 0.960 . S
H978 C992 0.960 . S
H979 C992 0.960 . S
C980 H972 0.929 . S
C980 C981 1.377 . S
C980 C982 1.384 . S
C981 C980 1.377 . S
C981 C987 1.390 . S
C982 H973 0.930 . S
C982 C980 1.384 . S
C982 C983 1.372 . S
C983 C982 1.372 . S
C983 C984 1.400 . S
C983 C988 1.490 . S
C984 H974 0.930 . S
C984 C983 1.400 . S
C984 C987 1.386 . S
H985 C1001 0.930 1_655 S
H986 C1002 0.931 . S
C987 H975 0.929 . S
C987 C981 1.390 . S
C987 C984 1.386 . S
C988 C983 1.490 . S
C988 C990 1.395 . S
C988 C991 1.403 . S
H989 C995 0.930 . S
C990 H976 0.930 . S
C990 C988 1.395 . S
C990 C993 1.403 . S
C991 C988 1.403 . S
C991 C992 1.524 . S
C991 C995 1.400 . S
C992 H977 0.960 . S
C992 H978 0.960 . S
C992 H979 0.960 . S
C992 C991 1.524 . S
C993 C990 1.403 . S
C993 C994 1.392 . S
C993 C997 1.495 . S
C994 C993 1.392 . S
C994 C995 1.385 . S
C994 C996 1.478 . S
C995 H989 0.930 . S
C995 C991 1.400 . S
C995 C994 1.385 . S
C996 C994 1.478 . S
C996 C998 1.381 . S
C996 C1002 1.383 . S
C997 C993 1.495 . S
C997 H1003 0.959 . S
C997 H1004 0.961 . S
C997 H1005 0.960 . S
C998 C996 1.381 . S
C998 C999 1.394 . S
C998 H1006 0.930 . S
C999 C998 1.394 . S
C999 C1000 1.383 . S
C999 H1007 0.929 . S
C1000 C999 1.383 . S
C1000 C1001 1.377 . S
C1001 H985 0.930 1_455 S
C1001 C1000 1.377 . S
C1001 C1002 1.379 . S
C1002 H986 0.931 . S
C1002 C996 1.383 . S
C1002 C1001 1.379 . S
H1003 C997 0.959 . S
H1004 C997 0.961 . S
H1005 C997 0.960 . S
H1006 C998 0.930 . S
H1007 C999 0.929 . S
H1008 C1016 0.929 . S
H1009 C1018 0.930 . S
H1010 C1020 0.930 . S
H1011 C1023 0.929 . S
H1012 C1026 0.930 . S
H1013 C1028 0.960 . S
H1014 C1028 0.960 . S
H1015 C1028 0.960 . S
C1016 H1008 0.929 . S
C1016 C1017 1.377 . S
C1016 C1018 1.384 . S
C1017 C1016 1.377 . S
C1017 C1023 1.390 . S
C1018 H1009 0.930 . S
C1018 C1016 1.384 . S
C1018 C1019 1.372 . S
C1019 C1018 1.372 . S
C1019 C1020 1.400 . S
C1019 C1024 1.490 . S
C1020 H1010 0.930 . S
C1020 C1019 1.400 . S
C1020 C1023 1.386 . S
H1021 C1037 0.930 . S
H1022 C1038 0.931 . S
C1023 H1011 0.929 . S
C1023 C1017 1.390 . S
C1023 C1020 1.386 . S
C1024 C1019 1.490 . S
C1024 C1026 1.395 . S
C1024 C1027 1.403 . S
H1025 C1031 0.930 . S
C1026 H1012 0.930 . S
C1026 C1024 1.395 . S
C1026 C1029 1.403 . S
C1027 C1024 1.403 . S
C1027 C1028 1.524 . S
C1027 C1031 1.400 . S
C1028 H1013 0.960 . S
C1028 H1014 0.960 . S
C1028 H1015 0.960 . S
C1028 C1027 1.524 . S
C1029 C1026 1.403 . S
C1029 C1030 1.392 . S
C1029 C1033 1.495 . S
C1030 C1029 1.392 . S
C1030 C1031 1.385 . S
C1030 C1032 1.478 . S
C1031 H1025 0.930 . S
C1031 C1027 1.400 . S
C1031 C1030 1.385 . S
C1032 C1030 1.478 . S
C1032 C1034 1.381 . S
C1032 C1038 1.383 . S
C1033 C1029 1.495 . S
C1033 H1039 0.959 . S
C1033 H1040 0.961 . S
C1033 H1041 0.960 . S
C1034 C1032 1.381 . S
C1034 C1035 1.394 . S
C1034 H1042 0.930 . S
C1035 C1034 1.394 . S
C1035 C1036 1.383 . S
C1035 H1043 0.929 . S
C1036 C1035 1.383 . S
C1036 C1037 1.377 . S
C1037 H1021 0.930 . S
C1037 C1036 1.377 . S
C1037 C1038 1.379 . S
C1038 H1022 0.931 . S
C1038 C1032 1.383 . S
C1038 C1037 1.379 . S
H1039 C1033 0.959 . S
H1040 C1033 0.961 . S
H1041 C1033 0.960 . S
H1042 C1034 0.930 . S
H1043 C1035 0.929 . S
C189 C6 1.793 . S
C208 C112 1.727 . S
C225 C18 1.799 . S
C244 C134 1.758 . S
C280 C153 1.186 . S
C261 C28 1.443 . S
C297 C40 1.186 . S
C316 C174 0.929 . S
C352 C131 2.045 . S
C333 C9 2.140 . S
C388 C109 1.664 . S
C369 C16 1.716 . S
C424 C176 1.207 . S
C405 C30 1.301 . S
C460 C155 1.023 . S
C441 C42 1.049 . S
C477 C4 1.713 . S
C496 C173 1.649 . S
C532 C132 1.410 . S
C513 C33 1.669 . S
C549 C45 1.385 . S
C568 C114 1.257 . S
C585 C21 1.749 . S
C604 C152 1.696 . S
C640 C110 1.762 . S
C621 C57 1.866 . S
C657 C66 1.621 . S
C676 C130 1.585 . S
C693 C76 1.554 . S
C712 C156 1.378 . S
C729 C88 1.027 . S
C748 C177 0.903 . S
C765 C54 2.048 . S
C784 C133 1.964 . S
C820 C113 1.805 . S
C801 C64 1.840 . S
C856 C172 1.022 . S
C837 C78 1.085 . S
C892 C151 1.172 . S
C873 C93 1.192 . S
C909 C52 1.473 . S
C928 C175 1.391 . S
C964 C135 1.300 . S
C945 C81 1.580 . S
C1000 C111 0.964 . S
C981 C90 1.169 . S
C1017 C69 1.722 . S
C1036 C154 1.671 . S
