# Generated by pormake.
# Topology csq, (4,8)-cn, num edge types: 1
# Building blocks:
#     Node 0, Type 0, BuildingBlock: NAWXER_clean_linker_0, # of connection points: 4
#     Node 1, Type 0, BuildingBlock: NAWXER_clean_linker_0, # of connection points: 4
#     Node 2, Type 0, BuildingBlock: NAWXER_clean_linker_0, # of connection points: 4
#     Node 3, Type 0, BuildingBlock: NAWXER_clean_linker_0, # of connection points: 4
#     Node 4, Type 0, BuildingBlock: NAWXER_clean_linker_0, # of connection points: 4
#     Node 5, Type 0, BuildingBlock: NAWXER_clean_linker_0, # of connection points: 4
#     Node 6, Type 1, BuildingBlock: TAGTUT_clean_sbu_3, # of connection points: 8
#     Node 7, Type 1, BuildingBlock: TAGTUT_clean_sbu_3, # of connection points: 8
#     Node 8, Type 1, BuildingBlock: TAGTUT_clean_sbu_3, # of connection points: 8
#     Edge 9, Type (0, 1), BuildingBlock: CIFDUS_clean_linker_0, # of connection points: 2
#     Edge 10, Type (0, 1), BuildingBlock: CIFDUS_clean_linker_0, # of connection points: 2
#     Edge 11, Type (0, 1), BuildingBlock: CIFDUS_clean_linker_0, # of connection points: 2
#     Edge 12, Type (0, 1), BuildingBlock: CIFDUS_clean_linker_0, # of connection points: 2
#     Edge 13, Type (0, 1), BuildingBlock: CIFDUS_clean_linker_0, # of connection points: 2
#     Edge 14, Type (0, 1), BuildingBlock: CIFDUS_clean_linker_0, # of connection points: 2
#     Edge 15, Type (0, 1), BuildingBlock: CIFDUS_clean_linker_0, # of connection points: 2
#     Edge 16, Type (0, 1), BuildingBlock: CIFDUS_clean_linker_0, # of connection points: 2
#     Edge 17, Type (0, 1), BuildingBlock: CIFDUS_clean_linker_0, # of connection points: 2
#     Edge 18, Type (0, 1), BuildingBlock: CIFDUS_clean_linker_0, # of connection points: 2
#     Edge 19, Type (0, 1), BuildingBlock: CIFDUS_clean_linker_0, # of connection points: 2
#     Edge 20, Type (0, 1), BuildingBlock: CIFDUS_clean_linker_0, # of connection points: 2
#     Edge 21, Type (0, 1), BuildingBlock: CIFDUS_clean_linker_0, # of connection points: 2
#     Edge 22, Type (0, 1), BuildingBlock: CIFDUS_clean_linker_0, # of connection points: 2
#     Edge 23, Type (0, 1), BuildingBlock: CIFDUS_clean_linker_0, # of connection points: 2
#     Edge 24, Type (0, 1), BuildingBlock: CIFDUS_clean_linker_0, # of connection points: 2
#     Edge 25, Type (0, 1), BuildingBlock: CIFDUS_clean_linker_0, # of connection points: 2
#     Edge 26, Type (0, 1), BuildingBlock: CIFDUS_clean_linker_0, # of connection points: 2
#     Edge 27, Type (0, 1), BuildingBlock: CIFDUS_clean_linker_0, # of connection points: 2
#     Edge 28, Type (0, 1), BuildingBlock: CIFDUS_clean_linker_0, # of connection points: 2
#     Edge 29, Type (0, 1), BuildingBlock: CIFDUS_clean_linker_0, # of connection points: 2
#     Edge 30, Type (0, 1), BuildingBlock: CIFDUS_clean_linker_0, # of connection points: 2
#     Edge 31, Type (0, 1), BuildingBlock: CIFDUS_clean_linker_0, # of connection points: 2
#     Edge 32, Type (0, 1), BuildingBlock: CIFDUS_clean_linker_0, # of connection points: 2
# Relax obj value: 0.028
# Max RMSD: 0.109
# Mean RMSD: 0.041
data_MOF--net-csq--node1-TAGTUT_clean_sbu_3--node2-NAWXER_clean_linker_0--edge1-CIFDUS_clean_linker_0
_symmetry_space_group_name_H-M    P1
_symmetry_Int_Tables_number       1
_symmetry_cell_setting            triclinic
loop_
_symmetry_equiv_pos_as_xyz
'x, y, z'
_cell_length_a     56.243337
_cell_length_b     55.341555
_cell_length_c     19.752902
_cell_angle_alpha  92.065271
_cell_angle_beta   92.819825
_cell_angle_gamma 119.99804
loop_
_atom_site_label
_atom_site_type_symbol
_atom_site_fract_x
_atom_site_fract_y
_atom_site_fract_z
_atom_type_partial_charge
C0 C 0.333 0.5225 0.07933 0.0
C1 C 0.32996 0.50363 0.02552 0.0
C2 C 0.30997 0.51958 0.11019 0.0
C3 C 0.28342 0.49758 0.08841 0.0
C4 C 0.30325 0.4823 0.00196 0.0
C5 C 0.2802 0.47939 0.03295 0.0
C6 C 0.25926 0.49309 0.12507 0.0
C7 C 0.30279 0.46354 0.25897 0.0
C8 C 0.32015 0.48352 0.3107 0.0
C9 C 0.28319 0.4671 0.22223 0.0
C10 C 0.2806 0.49065 0.23675 0.0
C11 C 0.31751 0.50707 0.32561 0.0
C12 C 0.29754 0.51045 0.28921 0.0
C13 C 0.25984 0.49383 0.19646 0.0
C14 C 0.14498 0.45827 0.26463 0.0
C15 C 0.14991 0.48019 0.31214 0.0
C16 C 0.16577 0.46049 0.22469 0.0
C17 C 0.19181 0.48483 0.2308 0.0
C18 C 0.17604 0.50448 0.3181 0.0
C19 C 0.19679 0.50668 0.27813 0.0
C20 C 0.21461 0.48717 0.19175 0.0
C21 C 0.14743 0.47671 0.03869 0.0
C22 C 0.13846 0.4533 0.99252 0.0
C23 C 0.17175 0.48682 0.08016 0.0
C24 C 0.18724 0.4734 0.07671 0.0
C25 C 0.15424 0.4402 0.9885 0.0
C26 C 0.17845 0.45021 0.03022 0.0
C27 C 0.21288 0.48327 0.12003 0.0
H28 H 0.35322 0.53912 0.09875 0.0
H29 H 0.31296 0.53433 0.15187 0.0
H30 H 0.30016 0.46777 0.95966 0.0
H31 H 0.25995 0.46243 0.01482 0.0
H32 H 0.30454 0.44528 0.24662 0.0
H33 H 0.26996 0.45141 0.18236 0.0
H34 H 0.3306 0.52256 0.36593 0.0
H35 H 0.2956 0.52862 0.30116 0.0
H36 H 0.12505 0.43933 0.25845 0.0
H37 H 0.16161 0.44305 0.18975 0.0
H38 H 0.18072 0.52154 0.35492 0.0
H39 H 0.21685 0.52548 0.2844 0.0
H40 H 0.13595 0.4876 0.04164 0.0
H41 H 0.17855 0.50519 0.11439 0.0
H42 H 0.14779 0.42215 0.9534 0.0
H43 H 0.19021 0.43962 0.02667 0.0
N44 N 0.23548 0.48693 0.08932 0.0
N45 N 0.23793 0.49173 0.22741 0.0
C46 C 0.70921 0.1691 0.28188 0.0
C47 C 0.70028 0.1416 0.25693 0.0
C48 C 0.7263 0.19159 0.24484 0.0
C49 C 0.7348 0.18686 0.18263 0.0
C50 C 0.70977 0.13687 0.19641 0.0
C51 C 0.72741 0.1594 0.16023 0.0
C52 C 0.75062 0.21065 0.14087 0.0
C53 C 0.70332 0.14934 0.9415 0.0
C54 C 0.67643 0.138 0.96188 0.0
C55 C 0.72501 0.17307 0.97649 0.0
C56 C 0.72026 0.18564 0.03304 0.0
C57 C 0.67156 0.151 0.01765 0.0
C58 C 0.69336 0.17469 0.05305 0.0
C59 C 0.74373 0.20998 0.07089 0.0
C60 C 0.84218 0.30392 0.9689 0.0
C61 C 0.83008 0.31499 0.92537 0.0
C62 C 0.82687 0.28549 0.01678 0.0
C63 C 0.79918 0.27772 0.02139 0.0
C64 C 0.8026 0.30779 0.93124 0.0
C65 C 0.78713 0.28895 0.97836 0.0
C66 C 0.78201 0.25579 0.06595 0.0
C67 C 0.83879 0.33219 0.19963 0.0
C68 C 0.85586 0.32878 0.24797 0.0
C69 C 0.81664 0.30897 0.16404 0.0
C70 C 0.81155 0.28188 0.17483 0.0
C71 C 0.85011 0.30169 0.26099 0.0
C72 C 0.82814 0.27844 0.22462 0.0
C73 C 0.78842 0.25702 0.13659 0.0
H74 H 0.7021 0.17309 0.3287 0.0
H75 H 0.73205 0.21259 0.26358 0.0
H76 H 0.70339 0.11577 0.17703 0.0
H77 H 0.7347 0.15529 0.11392 0.0
H78 H 0.70753 0.14004 0.89786 0.0
H79 H 0.74562 0.18136 0.96012 0.0
H80 H 0.65098 0.14269 0.03417 0.0
H81 H 0.68929 0.18436 0.09617 0.0
H82 H 0.86344 0.30937 0.96544 0.0
H83 H 0.83638 0.27667 0.04875 0.0
H84 H 0.79289 0.31604 0.898 0.0
H85 H 0.76568 0.28292 0.98082 0.0
H86 H 0.84249 0.35287 0.18972 0.0
H87 H 0.80344 0.31225 0.12844 0.0
H88 H 0.86299 0.29856 0.29805 0.0
H89 H 0.8244 0.25775 0.23463 0.0
N90 N 0.7725 0.23429 0.17128 0.0
N91 N 0.75985 0.2324 0.03599 0.0
C92 C 0.59598 0.72154 0.94988 0.0
C93 C 0.586 0.7177 0.88124 0.0
C94 C 0.59372 0.74019 0.99481 0.0
C95 C 0.58011 0.75434 0.97318 0.0
C96 C 0.57539 0.73443 0.85814 0.0
C97 C 0.57205 0.75211 0.90367 0.0
C98 C 0.57471 0.77217 0.02062 0.0
C99 C 0.53633 0.69561 0.15755 0.0
C100 C 0.55526 0.69962 0.21245 0.0
C101 C 0.54206 0.7169 0.11357 0.0
C102 C 0.56668 0.74266 0.12384 0.0
C103 C 0.5806 0.725 0.21971 0.0
C104 C 0.58598 0.74641 0.1768 0.0
C105 C 0.56979 0.76728 0.08969 0.0
C106 C 0.52407 0.82215 0.22445 0.0
C107 C 0.54537 0.84387 0.26733 0.0
C108 C 0.53005 0.81192 0.16602 0.0
C109 C 0.55736 0.82298 0.14985 0.0
C110 C 0.5727 0.8553 0.24958 0.0
C111 C 0.57865 0.84446 0.19237 0.0
C112 C 0.56406 0.80705 0.10173 0.0
C113 C 0.56673 0.878 0.98741 0.0
C114 C 0.5569 0.87189 0.91825 0.0
C115 C 0.57073 0.85903 0.02433 0.0
C116 C 0.56379 0.83263 0.99458 0.0
C117 C 0.55087 0.84584 0.88783 0.0
C118 C 0.554 0.82651 0.92548 0.0
C119 C 0.56757 0.81149 0.03191 0.0
H120 H 0.60453 0.70938 0.97017 0.0
H121 H 0.60246 0.7431 0.04637 0.0
H122 H 0.56868 0.73322 0.8052 0.0
H123 H 0.56242 0.76349 0.88436 0.0
H124 H 0.5165 0.6766 0.15037 0.0
H125 H 0.52658 0.71387 0.07403 0.0
H126 H 0.59613 0.72874 0.25974 0.0
H127 H 0.60494 0.76627 0.18614 0.0
H128 H 0.50285 0.81238 0.23694 0.0
H129 H 0.5135 0.79433 0.13546 0.0
H130 H 0.58964 0.87248 0.2801 0.0
H131 H 0.59995 0.85244 0.18193 0.0
H132 H 0.57138 0.89749 0.01388 0.0
H133 H 0.57994 0.86573 0.07548 0.0
H134 H 0.54399 0.84028 0.83454 0.0
H135 H 0.54875 0.80662 0.89996 0.0
N136 N 0.57307 0.79387 0.9949 0.0
N137 N 0.56511 0.78518 0.12715 0.0
C138 C 0.85379 0.55329 0.9219 0.0
C139 C 0.84285 0.53529 0.86277 0.0
C140 C 0.83634 0.55419 0.96853 0.0
C141 C 0.80767 0.53623 0.95822 0.0
C142 C 0.81418 0.51862 0.85021 0.0
C143 C 0.79672 0.51901 0.89775 0.0
C144 C 0.78905 0.5352 0.01019 0.0
C145 C 0.84659 0.51012 0.09918 0.0
C146 C 0.8651 0.52949 0.15077 0.0
C147 C 0.82275 0.51052 0.07814 0.0
C148 C 0.81745 0.53075 0.10717 0.0
C149 C 0.85879 0.5486 0.18232 0.0
C150 C 0.8352 0.54924 0.16061 0.0
C151 C 0.79415 0.53362 0.08036 0.0
C152 C 0.68852 0.51252 0.18823 0.0
C153 C 0.69454 0.53672 0.22842 0.0
C154 C 0.70859 0.51179 0.15091 0.0
C155 C 0.73519 0.53507 0.15365 0.0
C156 C 0.72176 0.5594 0.23442 0.0
C157 C 0.742 0.5585 0.19749 0.0
C158 C 0.75438 0.53613 0.10388 0.0
C159 C 0.69855 0.5622 0.00204 0.0
C160 C 0.67989 0.542 0.95203 0.0
C161 C 0.72098 0.56051 0.02911 0.0
C162 C 0.72491 0.53847 0.00697 0.0
C163 C 0.68378 0.51981 0.93053 0.0
C164 C 0.70623 0.51816 0.95759 0.0
C165 C 0.74887 0.53686 0.03389 0.0
H166 H 0.87585 0.56672 0.93182 0.0
H167 H 0.8453 0.56857 0.01325 0.0
H168 H 0.80536 0.50475 0.80456 0.0
H169 H 0.77468 0.50532 0.88809 0.0
H170 H 0.85074 0.49501 0.07427 0.0
H171 H 0.80884 0.49554 0.03791 0.0
H172 H 0.87208 0.56313 0.22397 0.0
H173 H 0.83123 0.5647 0.18435 0.0
H174 H 0.668 0.49437 0.18387 0.0
H175 H 0.70302 0.49347 0.11756 0.0
H176 H 0.7271 0.57837 0.26471 0.0
H177 H 0.76244 0.57673 0.19982 0.0
H178 H 0.69603 0.57953 0.01932 0.0
H179 H 0.73556 0.57671 0.06625 0.0
H180 H 0.67002 0.50428 0.89104 0.0
H181 H 0.70909 0.50111 0.93975 0.0
N182 N 0.76629 0.53632 0.98952 0.0
N183 N 0.77683 0.5345 0.1249 0.0
C184 C 0.28655 0.86584 0.98789 0.0
C185 C 0.2907 0.85476 0.92747 0.0
C186 C 0.26903 0.84801 0.03392 0.0
C187 C 0.25567 0.81887 0.02038 0.0
C188 C 0.27589 0.8257 0.91212 0.0
C189 C 0.25849 0.80794 0.95808 0.0
C190 C 0.23866 0.79942 0.07016 0.0
C191 C 0.32441 0.84161 0.17685 0.0
C192 C 0.32758 0.85997 0.23193 0.0
C193 C 0.29825 0.8235 0.14495 0.0
C194 C 0.27497 0.82332 0.16842 0.0
C195 C 0.30427 0.85997 0.25456 0.0
C196 C 0.27813 0.84155 0.22354 0.0
C197 C 0.24713 0.80237 0.1397 0.0
C198 C 0.16901 0.69227 0.24365 0.0
C199 C 0.16737 0.70165 0.30957 0.0
C200 C 0.18083 0.71113 0.19372 0.0
C201 C 0.19046 0.73972 0.20777 0.0
C202 C 0.17741 0.73036 0.32374 0.0
C203 C 0.18877 0.74913 0.27338 0.0
C204 C 0.20558 0.7605 0.15813 0.0
C205 C 0.12329 0.70113 0.03915 0.0
C206 C 0.12651 0.68731 0.98203 0.0
C207 C 0.14631 0.72363 0.0751 0.0
C208 C 0.17279 0.73253 0.0544 0.0
C209 C 0.15317 0.6963 0.96225 0.0
C210 C 0.17596 0.71876 0.99764 0.0
C211 C 0.1975 0.75709 0.08785 0.0
H212 H 0.29776 0.88817 0.00098 0.0
H213 H 0.26638 0.85698 0.08058 0.0
H214 H 0.27845 0.81666 0.86541 0.0
H215 H 0.24801 0.78555 0.94597 0.0
H216 H 0.34211 0.84122 0.15882 0.0
H217 H 0.29607 0.80913 0.10319 0.0
H218 H 0.3062 0.87371 0.29759 0.0
H219 H 0.26035 0.84139 0.24285 0.0
H220 H 0.16117 0.6703 0.23031 0.0
H221 H 0.18304 0.70331 0.14484 0.0
H222 H 0.17697 0.73848 0.37406 0.0
H223 H 0.19666 0.77118 0.28606 0.0
H224 H 0.10302 0.69482 0.05546 0.0
H225 H 0.14341 0.73431 0.11816 0.0
H226 H 0.15656 0.68574 0.9198 0.0
H227 H 0.19624 0.72528 0.98089 0.0
N228 N 0.21434 0.77676 0.04695 0.0
N229 N 0.23013 0.7831 0.18109 0.0
C230 C 0.49125 0.17348 0.05898 0.0
C231 C 0.47841 0.16865 0.99292 0.0
C232 C 0.49026 0.19232 0.10623 0.0
C233 C 0.47517 0.20555 0.08957 0.0
C234 C 0.46501 0.18348 0.97532 0.0
C235 C 0.46298 0.2012 0.02321 0.0
C236 C 0.47314 0.2255 0.13766 0.0
C237 C 0.44683 0.14864 0.25389 0.0
C238 C 0.46575 0.15275 0.30876 0.0
C239 C 0.44832 0.17139 0.22172 0.0
C240 C 0.46883 0.19877 0.24352 0.0
C241 C 0.48543 0.18031 0.3325 0.0
C242 C 0.48681 0.20309 0.30043 0.0
C243 C 0.47114 0.22297 0.2084 0.0
C244 C 0.43523 0.29913 0.31057 0.0
C245 C 0.45516 0.31435 0.36482 0.0
C246 C 0.44014 0.28398 0.26062 0.0
C247 C 0.46483 0.28352 0.26477 0.0
C248 C 0.47983 0.3136 0.3684 0.0
C249 C 0.48442 0.29803 0.31933 0.0
C250 C 0.46878 0.26485 0.21836 0.0
C251 C 0.48539 0.33868 0.09134 0.0
C252 C 0.47426 0.3319 0.02306 0.0
C253 C 0.48334 0.31789 0.13342 0.0
C254 C 0.46942 0.28961 0.10896 0.0
C255 C 0.45989 0.30352 0.99947 0.0
C256 C 0.45735 0.2828 0.0418 0.0
C257 C 0.47014 0.26718 0.14745 0.0
H258 H 0.5018 0.16256 0.07483 0.0
H259 H 0.50139 0.19645 0.15541 0.0
H260 H 0.45591 0.18146 0.92438 0.0
H261 H 0.45178 0.21159 0.00792 0.0
H262 H 0.431 0.12775 0.2352 0.0
H263 H 0.43367 0.1676 0.17924 0.0
H264 H 0.50042 0.18428 0.37424 0.0
H265 H 0.50252 0.22409 0.31875 0.0
H266 H 0.41585 0.29889 0.30664 0.0
H267 H 0.42445 0.2721 0.21977 0.0
H268 H 0.49598 0.32556 0.40818 0.0
H269 H 0.50339 0.29741 0.32372 0.0
H270 H 0.49622 0.36016 0.11225 0.0
H271 H 0.49374 0.32427 0.18381 0.0
H272 H 0.45141 0.29716 0.94732 0.0
H273 H 0.44661 0.26129 0.02085 0.0
N274 N 0.47248 0.24741 0.11073 0.0
N275 N 0.46942 0.24298 0.24586 0.0
C276 C 0.0422 0.48813 0.54993 0.0
C277 C 0.0122 0.44557 0.79022 0.0
C278 C 0.93583 0.43914 0.72564 0.0
Mg279 Mg 0.02049 0.52285 0.46691 0.0
Mg280 Mg -0.00226 0.56072 0.54277 0.0
O281 O 0.99434 0.5254 0.52899 0.0
Mg282 Mg 9e-05 0.50682 0.60772 0.0
O283 O 0.00626 0.48639 0.68085 0.0
Mg284 Mg 0.98876 0.44791 0.63307 0.0
Mg285 Mg 0.99213 0.48796 0.76364 0.0
C286 C 0.95772 0.52818 0.65712 0.0
O287 O 0.02735 0.54765 0.67572 0.0
O288 O 0.00124 0.5379 0.38441 0.0
O289 O 0.01305 0.5331 0.77912 0.0
O290 O 0.05433 0.56853 0.49403 0.0
O291 O 0.98603 0.56336 0.43966 0.0
O292 O 0.04045 0.59185 0.56002 0.0
O293 O 0.97246 0.46462 0.54723 0.0
O294 O 0.98646 0.47765 0.44413 0.0
C295 C 0.97118 0.4589 0.48317 0.0
C296 C 0.98962 0.55282 0.38497 0.0
O297 O 0.96459 0.50919 0.65632 0.0
O298 O 0.00739 0.43705 0.72685 0.0
O299 O 0.96885 0.54963 0.62154 0.0
O300 O 0.94806 0.43107 0.68558 0.0
O301 O 0.0074 0.46438 0.81456 0.0
O302 O 0.94828 0.46353 0.75553 0.0
O303 O 0.03561 0.50714 0.5559 0.0
O304 O 0.02876 0.46501 0.57812 0.0
C305 C 0.05918 0.59072 0.52858 0.0
C306 C 0.02695 0.55257 0.73985 0.0
C307 C 0.49001 0.04113 0.49889 0.0
C308 C 0.56971 0.02327 0.41852 0.0
C309 C 0.517 0.94168 0.49283 0.0
Mg310 Mg 0.45138 0.01271 0.62498 0.0
Mg311 Mg 0.47667 0.99393 0.75349 0.0
O312 O 0.46676 0.98914 0.65963 0.0
Mg313 Mg 0.49726 -0.00015 0.60055 0.0
O314 O 0.52668 0.01072 0.53733 0.0
Mg315 Mg 0.5029 0.99201 0.45098 0.0
Mg316 Mg 0.55267 -0.00024 0.5601 0.0
C317 C 0.50593 0.96049 0.70955 0.0
O318 O 0.53111 0.02898 0.68238 0.0
O319 O 0.41539 0.98688 0.69364 0.0
O320 O 0.56522 0.02007 0.66208 0.0
O321 O 0.47287 0.04632 0.71222 0.0
O322 O 0.4348 0.97399 0.77731 0.0
O323 O 0.49656 0.03701 0.78992 0.0
O324 O 0.46544 0.97171 0.51463 0.0
O325 O 0.43161 0.98034 0.53604 0.0
C326 C 0.44171 0.96879 0.49901 0.0
C327 C 0.41395 0.97375 0.74725 0.0
O328 O 0.50388 0.96502 0.64657 0.0
O329 O 0.54438 0.01473 0.3989 0.0
O330 O 0.49919 0.97162 0.75747 0.0
O331 O 0.50651 0.95307 0.45649 0.0
O332 O 0.57708 0.01938 0.4777 0.0
O333 O 0.53457 0.95524 0.54277 0.0
O334 O 0.48943 0.03423 0.56061 0.0
O335 O 0.49678 0.02969 0.45172 0.0
C336 C 0.48888 0.05329 0.76623 0.0
C337 C 0.55482 0.0317 0.69825 0.0
C338 C 0.52467 0.56833 0.70432 0.0
C339 C 0.43944 0.48665 0.82145 0.0
C340 C 0.47274 0.43695 0.7556 0.0
Mg341 Mg 0.55532 0.56344 0.57458 0.0
Mg342 Mg 0.51986 0.51504 0.45329 0.0
O343 O 0.53128 0.52257 0.54586 0.0
Mg344 Mg 0.50301 0.51055 0.61451 0.0
O345 O 0.47699 0.50064 0.68808 0.0
Mg346 Mg 0.50271 0.508 0.77039 0.0
Mg347 Mg 0.44576 0.4647 0.67923 0.0
C348 C 0.47984 0.45583 0.51017 0.0
O349 O 0.46861 0.50742 0.54238 0.0
O350 O 0.58639 0.56276 0.50014 0.0
O351 O 0.4318 0.46916 0.57775 0.0
O352 O 0.53766 0.57892 0.48803 0.0
O353 O 0.5601 0.52769 0.42092 0.0
O354 O 0.50834 0.54384 0.41507 0.0
O355 O 0.53441 0.5121 0.69399 0.0
O356 O 0.57231 0.54888 0.66146 0.0
C357 C 0.56025 0.52952 0.70209 0.0
C358 C 0.58367 0.54731 0.44653 0.0
O359 O 0.48602 0.46497 0.57312 0.0
O360 O 0.46579 0.50189 0.8333 0.0
O361 O 0.48881 0.47172 0.4606 0.0
O362 O 0.48906 0.4616 0.78228 0.0
O363 O 0.42792 0.47116 0.76646 0.0
O364 O 0.45545 0.43274 0.70579 0.0
O365 O 0.52076 0.55657 0.64489 0.0
O366 O 0.51793 0.55439 0.75737 0.0
C367 C 0.52079 0.56968 0.43505 0.0
C368 C 0.443 0.48842 0.53584 0.0
H369 H 0.13652 0.5197 0.34976 0.0
H370 H 0.11478 0.43417 0.37656 0.0
H371 H 0.07985 0.42927 0.45209 0.0
H372 H 0.05577 0.44917 0.51143 0.0
H373 H 0.07743 0.53479 0.4863 0.0
H374 H 0.11234 0.53983 0.41007 0.0
C375 C 0.12426 0.50005 0.37247 0.0
C376 C 0.12827 0.47731 0.35716 0.0
C377 C 0.10426 0.4974 0.41642 0.0
C378 C 0.1119 0.45188 0.38643 0.0
C379 C 0.09203 0.44911 0.43011 0.0
C380 C 0.06814 0.46901 0.48955 0.0
C381 C 0.0639 0.49157 0.50477 0.0
C382 C 0.08807 0.47172 0.44555 0.0
C383 C 0.08013 0.51704 0.47548 0.0
C384 C 0.10013 0.51994 0.43183 0.0
H385 H 0.64916 0.10188 0.20819 0.0
H386 H 0.70626 0.12936 0.38593 0.0
H387 H 0.67126 0.09277 0.44946 0.0
H388 H 0.62391 0.05587 0.45665 0.0
H389 H 0.56505 0.03044 0.28244 0.0
H390 H 0.60139 0.06326 0.21468 0.0
C391 C 0.6539 0.09944 0.26054 0.0
C392 C 0.68006 0.11797 0.29273 0.0
C393 C 0.63342 0.07897 0.29715 0.0
C394 C 0.68614 0.11517 0.36064 0.0
C395 C 0.66618 0.09435 0.39676 0.0
C396 C 0.61897 0.05712 0.40358 0.0
C397 C 0.59175 0.04071 0.37467 0.0
C398 C 0.63964 0.07652 0.36587 0.0
C399 C 0.5858 0.04289 0.30598 0.0
C400 C 0.60655 0.06167 0.26729 0.0
H401 H 0.52402 0.64214 0.19316 0.0
H402 H 0.57004 0.70876 0.34951 0.0
H403 H 0.56159 0.67466 0.43277 0.0
H404 H 0.54358 0.62603 0.46062 0.0
H405 H 0.49558 0.55919 0.30643 0.0
H406 H 0.50137 0.59329 0.22434 0.0
C407 C 0.53188 0.64933 0.24556 0.0
C408 C 0.54833 0.67824 0.26393 0.0
C409 C 0.52637 0.62951 0.29419 0.0
C410 C 0.55824 0.68681 0.33257 0.0
C411 C 0.55312 0.66726 0.3808 0.0
C412 C 0.53397 0.61883 0.40939 0.0
C413 C 0.51944 0.58999 0.38986 0.0
C414 C 0.5376 0.63856 0.36202 0.0
C415 C 0.50697 0.5812 0.3232 0.0
C416 C 0.51045 0.60073 0.27587 0.0
H417 H 0.91553 0.57451 0.18527 0.0
H418 H 0.87173 0.48422 0.16796 0.0
H419 H 0.91115 0.48428 0.2254 0.0
H420 H 0.95365 0.50959 0.30034 0.0
H421 H 0.99342 0.59922 0.33336 0.0
H422 H 0.96029 0.60005 0.24974 0.0
C423 C 0.91466 0.55484 0.19379 0.0
C424 C 0.8905 0.52942 0.17399 0.0
C425 C 0.93673 0.555 0.23003 0.0
C426 C 0.89004 0.50411 0.18297 0.0
C427 C 0.9125 0.50411 0.21629 0.0
C428 C 0.95555 0.52932 0.2871 0.0
C429 C 0.97574 0.55432 0.32215 0.0
C430 C 0.93538 0.52937 0.24276 0.0
C431 C 0.97794 0.57981 0.30632 0.0
C432 C 0.95891 0.58023 0.25914 0.0
H433 H 0.35183 0.91557 0.2582 0.0
H434 H 0.36379 0.84553 0.28762 0.0
H435 H 0.40425 0.87485 0.36663 0.0
H436 H 0.43146 0.91867 0.4407 0.0
H437 H 0.4171 0.9874 0.41276 0.0
H438 H 0.38279 0.96068 0.31912 0.0
C439 C 0.36365 0.90694 0.28111 0.0
C440 C 0.3548 0.87852 0.26829 0.0
C441 C 0.38634 0.92368 0.32712 0.0
C442 C 0.37033 0.86746 0.29715 0.0
C443 C 0.39331 0.88415 0.34257 0.0
C444 C 0.42127 0.9279 0.41272 0.0
C445 C 0.42629 0.95464 0.43393 0.0
C446 C 0.40087 0.91204 0.35995 0.0
C447 C 0.4131 0.96658 0.39768 0.0
C448 C 0.39347 0.95134 0.34431 0.0
H449 H 0.43109 0.34525 0.33789 0.0
H450 H 0.47193 0.32656 0.50126 0.0
H451 H 0.4784 0.36731 0.56977 0.0
H452 H 0.48124 0.41337 0.57166 0.0
H453 H 0.44095 0.43138 0.406 0.0
H454 H 0.42422 0.38496 0.35145 0.0
C455 C 0.44043 0.34927 0.38941 0.0
C456 C 0.4519 0.33344 0.4133 0.0
C457 C 0.44433 0.37279 0.42809 0.0
C458 C 0.46389 0.33912 0.48049 0.0
C459 C 0.46749 0.36234 0.51989 0.0
C460 C 0.46796 0.40664 0.52494 0.0
C461 C 0.46293 0.42577 0.49161 0.0
C462 C 0.45922 0.38023 0.49254 0.0
C463 C 0.44555 0.417 0.43146 0.0
C464 C 0.43608 0.39056 0.40015 0.0
H465 H 0.52016 0.86168 0.80749 0.0
H466 H 0.58547 0.92951 0.93716 0.0
H467 H 0.57621 0.96267 0.88189 0.0
H468 H 0.54766 0.97243 0.80195 0.0
H469 H 0.48616 0.90621 0.66358 0.0
H470 H 0.49681 0.87261 0.715 0.0
C471 C 0.53296 0.8837 0.82306 0.0
C472 C 0.55301 0.89255 0.87864 0.0
C473 C 0.52836 0.90312 0.78895 0.0
C474 C 0.56902 0.92147 0.89716 0.0
C475 C 0.56404 0.94071 0.86479 0.0
C476 C 0.53701 0.95071 0.78229 0.0
C477 C 0.51607 0.94163 0.72958 0.0
C478 C 0.54342 0.93171 0.81163 0.0
C479 C 0.50246 0.91359 0.70397 0.0
C480 C 0.50839 0.89439 0.73381 0.0
H481 H 0.62644 0.50203 0.92055 0.0
H482 H 0.68464 0.58959 0.90493 0.0
H483 H 0.65106 0.59398 0.83168 0.0
H484 H 0.60772 0.57182 0.7614 0.0
H485 H 0.54949 0.48405 0.77317 0.0
H486 H 0.58049 0.48083 0.85914 0.0
C487 C 0.63158 0.52209 0.90155 0.0
C488 C 0.658 0.54537 0.91734 0.0
C489 C 0.61237 0.52435 0.85836 0.0
C490 C 0.66436 0.57141 0.89369 0.0
C491 C 0.64528 0.57389 0.85135 0.0
C492 C 0.60173 0.55201 0.7831 0.0
C493 C 0.57676 0.52807 0.7601 0.0
C494 C 0.61964 0.55031 0.83167 0.0
C495 C 0.56881 0.50271 0.78982 0.0
C496 C 0.58655 0.50084 0.83868 0.0
H497 H 0.11788 0.6749 0.84512 0.0
H498 H 0.08129 0.64477 0.03364 0.0
H499 H 0.04517 0.60176 0.97293 0.0
H500 H 0.02718 0.5708 0.86936 0.0
H501 H 0.06623 0.59899 0.68259 0.0
H502 H 0.09825 0.64471 0.73973 0.0
C503 C 0.10202 0.65892 0.87302 0.0
C504 C 0.10257 0.66293 0.94407 0.0
C505 C 0.08189 0.63383 0.83819 0.0
C506 C 0.08136 0.64236 0.97901 0.0
C507 C 0.06082 0.61763 0.9444 0.0
C508 C 0.04254 0.58695 0.84076 0.0
C509 C 0.04435 0.58132 0.77167 0.0
C510 C 0.06138 0.61285 0.87441 0.0
C511 C 0.06422 0.6027 0.73556 0.0
C512 C 0.08268 0.62882 0.76839 0.0
H513 H 0.51766 0.15326 0.97933 0.0
H514 H 0.43783 0.13593 0.8939 0.0
H515 H 0.43701 0.1026 0.81021 0.0
H516 H 0.4567 0.07595 0.76582 0.0
H517 H 0.53155 0.08537 0.86261 0.0
H518 H 0.53642 0.12405 0.93803 0.0
C519 C 0.49989 0.14201 0.94313 0.0
C520 C 0.47812 0.14778 0.94275 0.0
C521 C 0.49864 0.12143 0.89705 0.0
C522 C 0.45547 0.13299 0.89447 0.0
C523 C 0.45473 0.11354 0.84677 0.0
C524 C 0.4744 0.08675 0.80256 0.0
C525 C 0.49413 0.07834 0.80764 0.0
C526 C 0.47606 0.10749 0.84798 0.0
C527 C 0.51644 0.09194 0.85691 0.0
C528 C 0.51905 0.11383 0.90033 0.0
H529 H 0.33892 0.46127 0.98916 0.0
H530 H 0.37644 0.55104 0.99367 0.0
H531 H 0.41598 0.55425 0.93935 0.0
H532 H 0.43807 0.53098 0.88136 0.0
H533 H 0.39837 0.44104 0.87073 0.0
H534 H 0.3617 0.43841 0.93692 0.0
C535 C 0.35567 0.48155 0.97796 0.0
C536 C 0.35453 0.50582 0.99476 0.0
C537 C 0.37808 0.48319 0.94585 0.0
C538 C 0.37679 0.53199 0.98145 0.0
C539 C 0.39939 0.53385 0.95017 0.0
C540 C 0.42171 0.51095 0.89517 0.0
C541 C 0.42089 0.48624 0.87196 0.0
C542 C 0.40009 0.50954 0.93119 0.0
C543 C 0.39936 0.46029 0.8886 0.0
C544 C 0.37834 0.45877 0.92598 0.0
H545 H 0.83919 0.36706 0.90445 0.0
H546 H 0.8568 0.304 0.82948 0.0
H547 H 0.8873 0.33586 0.74978 0.0
H548 H 0.91317 0.38302 0.71256 0.0
H549 H 0.89947 0.44796 0.79505 0.0
H550 H 0.86254 0.41382 0.85903 0.0
C551 C 0.84941 0.36028 0.86976 0.0
C552 C 0.84612 0.33347 0.87296 0.0
C553 C 0.86753 0.37901 0.8255 0.0
C554 C 0.85944 0.32476 0.82825 0.0
C555 C 0.87675 0.3429 0.78265 0.0
C556 C 0.90168 0.38966 0.7431 0.0
C557 C 0.90924 0.41804 0.7495 0.0
C558 C 0.88156 0.37031 0.78229 0.0
C559 C 0.89414 0.42623 0.78957 0.0
C560 C 0.87318 0.40677 0.82658 0.0
H561 H 0.88124 0.52042 0.88845 0.0
H562 H 0.84572 0.54678 0.72987 0.0
H563 H 0.87803 0.54653 0.6513 0.0
H564 H 0.91737 0.54019 0.62929 0.0
H565 H 0.95157 0.51185 0.78641 0.0
H566 H 0.9186 0.51103 0.86399 0.0
C567 C 0.88064 0.52601 0.83656 0.0
C568 C 0.86146 0.53385 0.81471 0.0
C569 C 0.8989 0.52531 0.79162 0.0
C570 C 0.86042 0.54072 0.74739 0.0
C571 C 0.87888 0.54062 0.7027 0.0
C572 C 0.91743 0.5337 0.68045 0.0
C573 C 0.93667 0.52592 0.7022 0.0
C574 C 0.89834 0.53317 0.72444 0.0
C575 C 0.93656 0.51739 0.7683 0.0
C576 C 0.91791 0.5172 0.8128 0.0
H577 H 0.3018 0.90528 0.88189 0.0
H578 H 0.32938 0.8451 0.87853 0.0
H579 H 0.3686 0.87608 0.81726 0.0
H580 H 0.39697 0.92126 0.77307 0.0
H581 H 0.3711 0.98253 0.77396 0.0
H582 H 0.32902 0.95007 0.82748 0.0
C583 C 0.31635 0.89899 0.86717 0.0
C584 C 0.31273 0.87297 0.88463 0.0
C585 C 0.3391 0.91706 0.83203 0.0
C586 C 0.33152 0.86485 0.86491 0.0
C587 C 0.35406 0.88261 0.83031 0.0
C588 C 0.38197 0.92741 0.78461 0.0
C589 C 0.38704 0.95417 0.77094 0.0
C590 C 0.35828 0.90887 0.81487 0.0
C591 C 0.36743 0.96192 0.78451 0.0
C592 C 0.34357 0.94346 0.81529 0.0
H593 H 0.44002 0.32922 0.91444 0.0
H594 H 0.51883 0.38517 0.02301 0.0
H595 H 0.52602 0.42154 0.94736 0.0
H596 H 0.50961 0.43821 0.85252 0.0
H597 H 0.43212 0.38174 0.73989 0.0
H598 H 0.42563 0.34449 0.81287 0.0
C599 C 0.45905 0.34912 0.92125 0.0
C600 C 0.47862 0.3542 0.97574 0.0
C601 C 0.46356 0.36987 0.87602 0.0
C602 C 0.50288 0.38057 0.9834 0.0
C603 C 0.50725 0.40141 0.93937 0.0
C604 C 0.49144 0.41765 0.84317 0.0
C605 C 0.4713 0.41295 0.79082 0.0
C606 C 0.48766 0.39638 0.88583 0.0
C607 C 0.44803 0.38604 0.77946 0.0
C608 C 0.44417 0.36476 0.8217 0.0
H609 H 0.08901 0.44509 0.02587 0.0
H610 H 0.13192 0.43967 0.85615 0.0
H611 H 0.09291 0.43047 0.77771 0.0
H612 H 0.05029 0.43197 0.75665 0.0
H613 H 0.00924 0.44101 0.92632 0.0
H614 H 0.04347 0.44021 0.00562 0.0
C615 C 0.08964 0.4416 0.97174 0.0
C616 C 0.11339 0.44355 0.94658 0.0
C617 C 0.06748 0.43702 0.92698 0.0
C618 C 0.11382 0.43834 0.87662 0.0
C619 C 0.09159 0.43322 0.83174 0.0
C620 C 0.04836 0.43282 0.81094 0.0
C621 C 0.02757 0.43687 0.83581 0.0
C622 C 0.06877 0.43356 0.85617 0.0
C623 C 0.02532 0.43815 0.90621 0.0
C624 C 0.04495 0.43788 0.95152 0.0
H625 H 0.62716 0.13121 0.91542 0.0
H626 H 0.67476 0.08968 0.92067 0.0
H627 H 0.63953 0.0513 0.84444 0.0
H628 H 0.59751 0.03192 0.76846 0.0
H629 H 0.55096 0.07455 0.7588 0.0
H630 H 0.58317 0.10986 0.84582 0.0
C631 C 0.6295 0.11347 0.90087 0.0
C632 C 0.65354 0.1133 0.92295 0.0
C633 C 0.60942 0.09176 0.85621 0.0
C634 C 0.65654 0.09037 0.90338 0.0
C635 C 0.63642 0.06844 0.85999 0.0
C636 C 0.59424 0.04877 0.78597 0.0
C637 C 0.57192 0.05066 0.75723 0.0
C638 C 0.61315 0.0693 0.83474 0.0
C639 C 0.56779 0.07244 0.78079 0.0
C640 C 0.58633 0.09277 0.83009 0.0
H641 H 0.54642 0.68709 0.77894 0.0
H642 H 0.61968 0.6946 0.88234 0.0
H643 H 0.60829 0.64916 0.83023 0.0
H644 H 0.57362 0.60446 0.76942 0.0
H645 H 0.50272 0.59898 0.66013 0.0
H646 H 0.51787 0.64744 0.69852 0.0
C647 C 0.56069 0.67963 0.78848 0.0
C648 C 0.58344 0.69409 0.83672 0.0
C649 C 0.55437 0.6538 0.75742 0.0
C650 C 0.60134 0.6835 0.8479 0.0
C651 C 0.59499 0.65757 0.8177 0.0
C652 C 0.56203 0.61431 0.75276 0.0
C653 C 0.53707 0.59857 0.71314 0.0
C654 C 0.5709 0.64204 0.77485 0.0
C655 C 0.52203 0.61107 0.69086 0.0
C656 C 0.53058 0.63859 0.71311 0.0
H657 H 0.47449 0.14457 0.44249 0.0
H658 H 0.45877 0.10626 0.23847 0.0
H659 H 0.46224 0.06745 0.2811 0.0
H660 H 0.47268 0.04586 0.37357 0.0
H661 H 0.49019 0.08344 0.5783 0.0
H662 H 0.48284 0.12096 0.5382 0.0
C663 C 0.47181 0.1277 0.40745 0.0
C664 C 0.46629 0.12842 0.3372 0.0
C665 C 0.47422 0.10538 0.43232 0.0
C666 C 0.46255 0.10617 0.29273 0.0
C667 C 0.46475 0.084 0.317 0.0
C668 C 0.47486 0.0622 0.40977 0.0
C669 C 0.48243 0.06211 0.4787 0.0
C670 C 0.47097 0.08362 0.38632 0.0
C671 C 0.48449 0.08309 0.52493 0.0
C672 C 0.48044 0.10459 0.50189 0.0
H673 H 0.37469 0.52021 0.33431 0.0
H674 H 0.31104 0.43716 0.37308 0.0
H675 H 0.34442 0.43019 0.44061 0.0
H676 H 0.39073 0.4488 0.49422 0.0
H677 H 0.45469 0.53212 0.45692 0.0
H678 H 0.42228 0.53764 0.3816 0.0
C679 C 0.36827 0.50066 0.35774 0.0
C680 C 0.34059 0.47933 0.34976 0.0
C681 C 0.38756 0.49678 0.39611 0.0
C682 C 0.33235 0.45383 0.37893 0.0
C683 C 0.35137 0.44985 0.41742 0.0
C684 C 0.39769 0.4681 0.4692 0.0
C685 C 0.42495 0.49014 0.48196 0.0
C686 C 0.37891 0.47133 0.42707 0.0
C687 C 0.43377 0.51482 0.44815 0.0
C688 C 0.4152 0.5181 0.40548 0.0
H689 H 0.87062 0.33954 0.38411 0.0
H690 H 0.89511 0.37355 0.18984 0.0
H691 H 0.93408 0.41581 0.24591 0.0
H692 H 0.95967 0.44376 0.34892 0.0
H693 H 0.93488 0.41184 0.54513 0.0
H694 H 0.89767 0.3678 0.48942 0.0
C695 C 0.8847 0.35616 0.35431 0.0
C696 C 0.88001 0.35361 0.28307 0.0
C697 C 0.90689 0.38065 0.38707 0.0
C698 C 0.89819 0.37527 0.24477 0.0
C699 C 0.92049 0.39934 0.27675 0.0
C700 C 0.94636 0.42717 0.37991 0.0
C701 C 0.95008 0.43118 0.45124 0.0
C702 C 0.92481 0.40237 0.34775 0.0
C703 C 0.93248 0.40935 0.49016 0.0
C704 C 0.91116 0.3842 0.45831 0.0
H705 H 0.50034 0.84903 0.28499 0.0
H706 H 0.57634 0.8642 0.38973 0.0
H707 H 0.57112 0.892 0.47992 0.0
H708 H 0.54951 0.91899 0.51621 0.0
H709 H 0.47315 0.90258 0.41152 0.0
H710 H 0.47316 0.86672 0.33655 0.0
C711 C 0.51536 0.85749 0.32845 0.0
C712 C 0.53926 0.85539 0.3289 0.0
C713 C 0.51213 0.87318 0.3805 0.0
C714 C 0.55836 0.86658 0.38625 0.0
C715 C 0.55527 0.88225 0.43836 0.0
C716 C 0.53236 0.90683 0.47868 0.0
C717 C 0.5119 0.91403 0.4677 0.0
C718 C 0.53292 0.88683 0.43419 0.0
C719 C 0.48955 0.89785 0.41966 0.0
C720 C 0.48962 0.87749 0.37642 0.0
H721 H 0.6955 0.5605 0.35406 0.0
H722 H 0.64274 0.51812 0.17167 0.0
H723 H 0.60455 0.51882 0.22216 0.0
H724 H 0.58544 0.52969 0.31857 0.0
H725 H 0.63739 0.57317 0.50094 0.0
H726 H 0.67674 0.57451 0.44919 0.0
C727 C 0.67573 0.55167 0.32516 0.0
C728 C 0.67193 0.53869 0.25964 0.0
C729 C 0.65372 0.55245 0.35428 0.0
C730 C 0.64612 0.52743 0.22295 0.0
C731 C 0.62426 0.52805 0.25151 0.0
C732 C 0.60538 0.53959 0.34712 0.0
C733 C 0.60837 0.55106 0.4138 0.0
C734 C 0.62773 0.54015 0.31733 0.0
C735 C 0.6345 0.56419 0.44948 0.0
C736 C 0.65697 0.56481 0.42004 0.0
H737 H 0.13561 0.70298 0.40849 0.0
H738 H 0.1707 0.65467 0.33088 0.0
H739 H 0.14371 0.61755 0.40413 0.0
H740 H 0.10513 0.59607 0.47609 0.0
H741 H 0.07028 0.64446 0.55406 0.0
H742 H 0.1036 0.68499 0.49809 0.0
C743 C 0.13805 0.68476 0.40879 0.0
C744 C 0.15457 0.68135 0.3624 0.0
C745 C 0.12264 0.66353 0.45154 0.0
C746 C 0.15733 0.65745 0.36396 0.0
C747 C 0.14212 0.63629 0.4064 0.0
C748 C 0.1053 0.61571 0.48249 0.0
C749 C 0.08472 0.61696 0.51751 0.0
C750 C 0.12389 0.63865 0.4483 0.0
C751 C 0.08565 0.64275 0.52668 0.0
C752 C 0.10451 0.66589 0.49393 0.0
loop_
_geom_bond_atom_site_label_1
_geom_bond_atom_site_label_2
_geom_bond_distance
_geom_bond_site_symmetry_2
_ccdc_geom_bond_type
C0 C1 1.384 . S
C0 C2 1.384 . S
C0 H28 0.931 . S
C1 C0 1.384 . S
C1 C4 1.382 . S
C2 C0 1.384 . S
C2 C3 1.381 . S
C2 H29 0.930 . S
C3 C2 1.381 . S
C3 C5 1.381 . S
C3 C6 1.487 . S
C4 C1 1.382 . S
C4 C5 1.387 . S
C4 H30 0.930 1_554 S
C5 C3 1.381 . S
C5 C4 1.387 . S
C5 H31 0.931 . S
C6 C3 1.487 . S
C6 C13 1.399 . S
C6 N44 1.343 . S
C7 C8 1.384 . S
C7 C9 1.384 . S
C7 H32 0.931 . S
C8 C7 1.384 . S
C8 C11 1.382 . S
C9 C7 1.384 . S
C9 C10 1.381 . S
C9 H33 0.930 . S
C10 C9 1.381 . S
C10 C12 1.381 . S
C10 C13 1.487 . S
C11 C8 1.382 . S
C11 C12 1.387 . S
C11 H34 0.930 . S
C12 C10 1.381 . S
C12 C11 1.387 . S
C12 H35 0.931 . S
C13 C6 1.399 . S
C13 C10 1.487 . S
C13 N45 1.343 . S
C14 C15 1.384 . S
C14 C16 1.384 . S
C14 H36 0.931 . S
C15 C14 1.384 . S
C15 C18 1.382 . S
C16 C14 1.384 . S
C16 C17 1.381 . S
C16 H37 0.930 . S
C17 C16 1.381 . S
C17 C19 1.381 . S
C17 C20 1.487 . S
C18 C15 1.382 . S
C18 C19 1.387 . S
C18 H38 0.930 . S
C19 C17 1.381 . S
C19 C18 1.387 . S
C19 H39 0.931 . S
C20 C17 1.487 . S
C20 C27 1.399 . S
C20 N45 1.343 . S
C21 C22 1.384 . S
C21 C23 1.384 . S
C21 H40 0.931 . S
C22 C21 1.384 . S
C22 C25 1.382 . S
C23 C21 1.384 . S
C23 C24 1.381 . S
C23 H41 0.930 . S
C24 C23 1.381 . S
C24 C26 1.381 . S
C24 C27 1.487 . S
C25 C22 1.382 . S
C25 C26 1.387 . S
C25 H42 0.930 1_554 S
C26 C24 1.381 . S
C26 C25 1.387 . S
C26 H43 0.931 . S
C27 C20 1.399 . S
C27 C24 1.487 . S
C27 N44 1.343 . S
H28 C0 0.931 . S
H29 C2 0.930 . S
H30 C4 0.930 1_556 S
H31 C5 0.931 . S
H32 C7 0.931 . S
H33 C9 0.930 . S
H34 C11 0.930 . S
H35 C12 0.931 . S
H36 C14 0.931 . S
H37 C16 0.930 . S
H38 C18 0.930 . S
H39 C19 0.931 . S
H40 C21 0.931 . S
H41 C23 0.930 . S
H42 C25 0.930 1_556 S
H43 C26 0.931 . S
N44 C6 1.343 . S
N44 C27 1.343 . S
N45 C13 1.343 . S
N45 C20 1.343 . S
C46 C47 1.384 . S
C46 C48 1.384 . S
C46 H74 0.931 . S
C47 C46 1.384 . S
C47 C50 1.382 . S
C48 C46 1.384 . S
C48 C49 1.381 . S
C48 H75 0.930 . S
C49 C48 1.381 . S
C49 C51 1.381 . S
C49 C52 1.487 . S
C50 C47 1.382 . S
C50 C51 1.387 . S
C50 H76 0.930 . S
C51 C49 1.381 . S
C51 C50 1.387 . S
C51 H77 0.931 . S
C52 C49 1.487 . S
C52 C59 1.399 . S
C52 N90 1.343 . S
C53 C54 1.384 . S
C53 C55 1.384 1_556 S
C53 H78 0.931 . S
C54 C53 1.384 . S
C54 C57 1.382 . S
C55 C53 1.384 1_554 S
C55 C56 1.381 . S
C55 H79 0.930 . S
C56 C55 1.381 . S
C56 C58 1.381 1_554 S
C56 C59 1.487 . S
C57 C54 1.382 . S
C57 C58 1.387 . S
C57 H80 0.930 . S
C58 C56 1.381 1_556 S
C58 C57 1.387 . S
C58 H81 0.931 . S
C59 C52 1.399 . S
C59 C56 1.487 . S
C59 N91 1.343 . S
C60 C61 1.384 . S
C60 C62 1.384 1_556 S
C60 H82 0.931 1_556 S
C61 C60 1.384 . S
C61 C64 1.382 . S
C62 C60 1.384 1_554 S
C62 C63 1.381 . S
C62 H83 0.930 . S
C63 C62 1.381 . S
C63 C65 1.381 1_554 S
C63 C66 1.487 . S
C64 C61 1.382 . S
C64 C65 1.387 . S
C64 H84 0.930 . S
C65 C63 1.381 1_556 S
C65 C64 1.387 . S
C65 H85 0.931 . S
C66 C63 1.487 . S
C66 C73 1.399 . S
C66 N91 1.343 . S
C67 C68 1.384 . S
C67 C69 1.384 . S
C67 H86 0.931 . S
C68 C67 1.384 . S
C68 C71 1.382 . S
C69 C67 1.384 . S
C69 C70 1.381 . S
C69 H87 0.930 . S
C70 C69 1.381 . S
C70 C72 1.381 . S
C70 C73 1.487 . S
C71 C68 1.382 . S
C71 C72 1.387 . S
C71 H88 0.930 . S
C72 C70 1.381 . S
C72 C71 1.387 . S
C72 H89 0.931 . S
C73 C66 1.399 . S
C73 C70 1.487 . S
C73 N90 1.343 . S
H74 C46 0.931 . S
H75 C48 0.930 . S
H76 C50 0.930 . S
H77 C51 0.931 . S
H78 C53 0.931 . S
H79 C55 0.930 . S
H80 C57 0.930 . S
H81 C58 0.931 . S
H82 C60 0.931 1_554 S
H83 C62 0.930 . S
H84 C64 0.930 . S
H85 C65 0.931 . S
H86 C67 0.931 . S
H87 C69 0.930 . S
H88 C71 0.930 . S
H89 C72 0.931 . S
N90 C52 1.343 . S
N90 C73 1.343 . S
N91 C59 1.343 . S
N91 C66 1.343 . S
C92 C93 1.384 . S
C92 C94 1.384 . S
C92 H120 0.931 . S
C93 C92 1.384 . S
C93 C96 1.382 . S
C94 C92 1.384 . S
C94 C95 1.381 . S
C94 H121 0.930 1_556 S
C95 C94 1.381 . S
C95 C97 1.381 . S
C95 C98 1.487 1_556 S
C96 C93 1.382 . S
C96 C97 1.387 . S
C96 H122 0.930 . S
C97 C95 1.381 . S
C97 C96 1.387 . S
C97 H123 0.931 . S
C98 C95 1.487 1_554 S
C98 C105 1.399 . S
C98 N136 1.343 1_554 S
C99 C100 1.384 . S
C99 C101 1.384 . S
C99 H124 0.931 . S
C100 C99 1.384 . S
C100 C103 1.382 . S
C101 C99 1.384 . S
C101 C102 1.381 . S
C101 H125 0.930 . S
C102 C101 1.381 . S
C102 C104 1.381 . S
C102 C105 1.487 . S
C103 C100 1.382 . S
C103 C104 1.387 . S
C103 H126 0.930 . S
C104 C102 1.381 . S
C104 C103 1.387 . S
C104 H127 0.931 . S
C105 C98 1.399 . S
C105 C102 1.487 . S
C105 N137 1.343 . S
C106 C107 1.384 . S
C106 C108 1.384 . S
C106 H128 0.931 . S
C107 C106 1.384 . S
C107 C110 1.382 . S
C108 C106 1.384 . S
C108 C109 1.381 . S
C108 H129 0.930 . S
C109 C108 1.381 . S
C109 C111 1.381 . S
C109 C112 1.487 . S
C110 C107 1.382 . S
C110 C111 1.387 . S
C110 H130 0.930 . S
C111 C109 1.381 . S
C111 C110 1.387 . S
C111 H131 0.931 . S
C112 C109 1.487 . S
C112 C119 1.399 . S
C112 N137 1.343 . S
C113 C114 1.384 . S
C113 C115 1.384 . S
C113 H132 0.931 . S
C114 C113 1.384 . S
C114 C117 1.382 . S
C115 C113 1.384 . S
C115 C116 1.381 . S
C115 H133 0.930 1_556 S
C116 C115 1.381 . S
C116 C118 1.381 . S
C116 C119 1.487 1_556 S
C117 C114 1.382 . S
C117 C118 1.387 . S
C117 H134 0.930 . S
C118 C116 1.381 . S
C118 C117 1.387 . S
C118 H135 0.931 . S
C119 C112 1.399 . S
C119 C116 1.487 1_554 S
C119 N136 1.343 1_554 S
H120 C92 0.931 . S
H121 C94 0.930 1_554 S
H122 C96 0.930 . S
H123 C97 0.931 . S
H124 C99 0.931 . S
H125 C101 0.930 . S
H126 C103 0.930 . S
H127 C104 0.931 . S
H128 C106 0.931 . S
H129 C108 0.930 . S
H130 C110 0.930 . S
H131 C111 0.931 . S
H132 C113 0.931 . S
H133 C115 0.930 1_554 S
H134 C117 0.930 . S
H135 C118 0.931 . S
N136 C98 1.343 1_556 S
N136 C119 1.343 1_556 S
N137 C105 1.343 . S
N137 C112 1.343 . S
C138 C139 1.384 . S
C138 C140 1.384 . S
C138 H166 0.931 . S
C139 C138 1.384 . S
C139 C142 1.382 . S
C140 C138 1.384 . S
C140 C141 1.381 . S
C140 H167 0.930 . S
C141 C140 1.381 . S
C141 C143 1.381 . S
C141 C144 1.487 . S
C142 C139 1.382 . S
C142 C143 1.387 . S
C142 H168 0.930 . S
C143 C141 1.381 . S
C143 C142 1.387 . S
C143 H169 0.931 . S
C144 C141 1.487 . S
C144 C151 1.399 1_556 S
C144 N182 1.343 . S
C145 C146 1.384 . S
C145 C147 1.384 . S
C145 H170 0.931 . S
C146 C145 1.384 . S
C146 C149 1.382 . S
C147 C145 1.384 . S
C147 C148 1.381 . S
C147 H171 0.930 . S
C148 C147 1.381 . S
C148 C150 1.381 . S
C148 C151 1.487 . S
C149 C146 1.382 . S
C149 C150 1.387 . S
C149 H172 0.930 . S
C150 C148 1.381 . S
C150 C149 1.387 . S
C150 H173 0.931 . S
C151 C144 1.399 1_554 S
C151 C148 1.487 . S
C151 N183 1.343 . S
C152 C153 1.384 . S
C152 C154 1.384 . S
C152 H174 0.931 . S
C153 C152 1.384 . S
C153 C156 1.382 . S
C154 C152 1.384 . S
C154 C155 1.381 . S
C154 H175 0.930 . S
C155 C154 1.381 . S
C155 C157 1.381 . S
C155 C158 1.487 . S
C156 C153 1.382 . S
C156 C157 1.387 . S
C156 H176 0.930 . S
C157 C155 1.381 . S
C157 C156 1.387 . S
C157 H177 0.931 . S
C158 C155 1.487 . S
C158 C165 1.399 1_554 S
C158 N183 1.343 . S
C159 C160 1.384 . S
C159 C161 1.384 . S
C159 H178 0.931 . S
C160 C159 1.384 . S
C160 C163 1.382 . S
C161 C159 1.384 . S
C161 C162 1.381 . S
C161 H179 0.930 . S
C162 C161 1.381 . S
C162 C164 1.381 . S
C162 C165 1.487 . S
C163 C160 1.382 . S
C163 C164 1.387 . S
C163 H180 0.930 . S
C164 C162 1.381 . S
C164 C163 1.387 . S
C164 H181 0.931 . S
C165 C158 1.399 1_556 S
C165 C162 1.487 . S
C165 N182 1.343 . S
H166 C138 0.931 . S
H167 C140 0.930 . S
H168 C142 0.930 . S
H169 C143 0.931 . S
H170 C145 0.931 . S
H171 C147 0.930 . S
H172 C149 0.930 . S
H173 C150 0.931 . S
H174 C152 0.931 . S
H175 C154 0.930 . S
H176 C156 0.930 . S
H177 C157 0.931 . S
H178 C159 0.931 . S
H179 C161 0.930 . S
H180 C163 0.930 . S
H181 C164 0.931 . S
N182 C144 1.343 . S
N182 C165 1.343 . S
N183 C151 1.343 . S
N183 C158 1.343 . S
C184 C185 1.384 1_554 S
C184 C186 1.384 . S
C184 H212 0.931 . S
C185 C184 1.384 1_556 S
C185 C188 1.382 . S
C186 C184 1.384 . S
C186 C187 1.381 . S
C186 H213 0.930 . S
C187 C186 1.381 . S
C187 C189 1.381 1_554 S
C187 C190 1.487 . S
C188 C185 1.382 . S
C188 C189 1.387 . S
C188 H214 0.930 . S
C189 C187 1.381 1_556 S
C189 C188 1.387 . S
C189 H215 0.931 . S
C190 C187 1.487 . S
C190 C197 1.399 . S
C190 N228 1.343 . S
C191 C192 1.384 . S
C191 C193 1.384 . S
C191 H216 0.931 . S
C192 C191 1.384 . S
C192 C195 1.382 . S
C193 C191 1.384 . S
C193 C194 1.381 . S
C193 H217 0.930 . S
C194 C193 1.381 . S
C194 C196 1.381 . S
C194 C197 1.487 . S
C195 C192 1.382 . S
C195 C196 1.387 . S
C195 H218 0.930 . S
C196 C194 1.381 . S
C196 C195 1.387 . S
C196 H219 0.931 . S
C197 C190 1.399 . S
C197 C194 1.487 . S
C197 N229 1.343 . S
C198 C199 1.384 . S
C198 C200 1.384 . S
C198 H220 0.931 . S
C199 C198 1.384 . S
C199 C202 1.382 . S
C200 C198 1.384 . S
C200 C201 1.381 . S
C200 H221 0.930 . S
C201 C200 1.381 . S
C201 C203 1.381 . S
C201 C204 1.487 . S
C202 C199 1.382 . S
C202 C203 1.387 . S
C202 H222 0.930 . S
C203 C201 1.381 . S
C203 C202 1.387 . S
C203 H223 0.931 . S
C204 C201 1.487 . S
C204 C211 1.399 . S
C204 N229 1.343 . S
C205 C206 1.384 . S
C205 C207 1.384 1_556 S
C205 H224 0.931 1_556 S
C206 C205 1.384 . S
C206 C209 1.382 . S
C207 C205 1.384 1_554 S
C207 C208 1.381 . S
C207 H225 0.930 . S
C208 C207 1.381 . S
C208 C210 1.381 1_554 S
C208 C211 1.487 . S
C209 C206 1.382 . S
C209 C210 1.387 . S
C209 H226 0.930 . S
C210 C208 1.381 1_556 S
C210 C209 1.387 . S
C210 H227 0.931 . S
C211 C204 1.399 . S
C211 C208 1.487 . S
C211 N228 1.343 . S
H212 C184 0.931 . S
H213 C186 0.930 . S
H214 C188 0.930 . S
H215 C189 0.931 . S
H216 C191 0.931 . S
H217 C193 0.930 . S
H218 C195 0.930 . S
H219 C196 0.931 . S
H220 C198 0.931 . S
H221 C200 0.930 . S
H222 C202 0.930 . S
H223 C203 0.931 . S
H224 C205 0.931 1_554 S
H225 C207 0.930 . S
H226 C209 0.930 . S
H227 C210 0.931 . S
N228 C190 1.343 . S
N228 C211 1.343 . S
N229 C197 1.343 . S
N229 C204 1.343 . S
C230 C231 1.384 . S
C230 C232 1.384 . S
C230 H258 0.931 . S
C231 C230 1.384 . S
C231 C234 1.382 1_554 S
C232 C230 1.384 . S
C232 C233 1.381 . S
C232 H259 0.930 . S
C233 C232 1.381 . S
C233 C235 1.381 . S
C233 C236 1.487 . S
C234 C231 1.382 1_556 S
C234 C235 1.387 1_556 S
C234 H260 0.930 . S
C235 C233 1.381 . S
C235 C234 1.387 1_554 S
C235 H261 0.931 . S
C236 C233 1.487 . S
C236 C243 1.399 . S
C236 N274 1.343 . S
C237 C238 1.384 . S
C237 C239 1.384 . S
C237 H262 0.931 . S
C238 C237 1.384 . S
C238 C241 1.382 . S
C239 C237 1.384 . S
C239 C240 1.381 . S
C239 H263 0.930 . S
C240 C239 1.381 . S
C240 C242 1.381 . S
C240 C243 1.487 . S
C241 C238 1.382 . S
C241 C242 1.387 . S
C241 H264 0.930 . S
C242 C240 1.381 . S
C242 C241 1.387 . S
C242 H265 0.931 . S
C243 C236 1.399 . S
C243 C240 1.487 . S
C243 N275 1.343 . S
C244 C245 1.384 . S
C244 C246 1.384 . S
C244 H266 0.931 . S
C245 C244 1.384 . S
C245 C248 1.382 . S
C246 C244 1.384 . S
C246 C247 1.381 . S
C246 H267 0.930 . S
C247 C246 1.381 . S
C247 C249 1.381 . S
C247 C250 1.487 . S
C248 C245 1.382 . S
C248 C249 1.387 . S
C248 H268 0.930 . S
C249 C247 1.381 . S
C249 C248 1.387 . S
C249 H269 0.931 . S
C250 C247 1.487 . S
C250 C257 1.399 . S
C250 N275 1.343 . S
C251 C252 1.384 . S
C251 C253 1.384 . S
C251 H270 0.931 . S
C252 C251 1.384 . S
C252 C255 1.382 . S
C253 C251 1.384 . S
C253 C254 1.381 . S
C253 H271 0.930 . S
C254 C253 1.381 . S
C254 C256 1.381 . S
C254 C257 1.487 . S
C255 C252 1.382 . S
C255 C256 1.387 . S
C255 H272 0.930 1_554 S
C256 C254 1.381 . S
C256 C255 1.387 . S
C256 H273 0.931 . S
C257 C250 1.399 . S
C257 C254 1.487 . S
C257 N274 1.343 . S
H258 C230 0.931 . S
H259 C232 0.930 . S
H260 C234 0.930 . S
H261 C235 0.931 . S
H262 C237 0.931 . S
H263 C239 0.930 . S
H264 C241 0.930 . S
H265 C242 0.931 . S
H266 C244 0.931 . S
H267 C246 0.930 . S
H268 C248 0.930 . S
H269 C249 0.931 . S
H270 C251 0.931 . S
H271 C253 0.930 . S
H272 C255 0.930 1_556 S
H273 C256 0.931 . S
N274 C236 1.343 . S
N274 C257 1.343 . S
N275 C243 1.343 . S
N275 C250 1.343 . S
C276 O303 1.312 . S
C276 O304 1.208 . S
C277 O298 1.331 . S
C277 O301 1.244 . S
C278 O300 1.264 . S
C278 O302 1.273 . S
Mg279 O281 1.936 1_455 S
Mg279 O288 2.081 1_455 S
Mg279 O290 2.023 . S
Mg279 O294 2.031 1_455 S
Mg279 O303 2.291 . S
Mg280 O281 1.963 . S
Mg280 O291 1.942 . S
Mg280 O292 1.955 1_655 S
Mg280 O299 1.986 . S
O281 Mg279 1.936 1_655 S
O281 Mg280 1.963 . S
O281 Mg282 1.915 1_655 S
Mg282 O281 1.915 1_455 S
Mg282 O283 1.915 . S
Mg282 O287 2.013 . S
Mg282 O293 2.114 1_455 S
Mg282 O297 2.013 1_455 S
Mg282 O303 2.114 . S
O283 Mg282 1.915 . S
O283 Mg284 1.936 . S
O283 Mg285 1.963 . S
Mg284 O283 1.936 . S
Mg284 O293 2.291 1_455 S
Mg284 O298 2.081 . S
Mg284 O300 2.023 1_455 S
Mg284 O304 2.031 . S
Mg285 O283 1.963 . S
Mg285 O289 1.986 . S
Mg285 O301 1.942 . S
Mg285 O302 1.955 1_455 S
C286 O297 1.191 . S
C286 O299 1.307 . S
O287 Mg282 2.013 . S
O287 C306 1.191 . S
O288 Mg279 2.081 1_655 S
O288 C296 1.331 . S
O289 Mg285 1.986 . S
O289 C306 1.307 . S
O290 Mg279 2.023 . S
O290 C305 1.264 . S
O291 Mg280 1.942 . S
O291 C296 1.244 . S
O292 Mg280 1.955 1_455 S
O292 C305 1.273 . S
O293 Mg282 2.114 1_655 S
O293 Mg284 2.291 1_655 S
O293 C295 1.312 . S
O294 Mg279 2.031 1_655 S
O294 C295 1.208 . S
C295 O293 1.312 . S
C295 O294 1.208 . S
C296 O288 1.331 . S
C296 O291 1.244 . S
O297 Mg282 2.013 1_655 S
O297 C286 1.191 . S
O298 C277 1.331 . S
O298 Mg284 2.081 . S
O299 Mg280 1.986 . S
O299 C286 1.307 . S
O300 C278 1.264 . S
O300 Mg284 2.023 1_655 S
O301 C277 1.244 . S
O301 Mg285 1.942 . S
O302 C278 1.273 . S
O302 Mg285 1.955 1_655 S
O303 C276 1.312 . S
O303 Mg279 2.291 . S
O303 Mg282 2.114 . S
O304 C276 1.208 . S
O304 Mg284 2.031 . S
C305 O290 1.264 . S
C305 O292 1.273 . S
C306 O287 1.191 . S
C306 O289 1.307 . S
C307 O334 1.312 . S
C307 O335 1.208 . S
C308 O329 1.331 . S
C308 O332 1.244 . S
C309 O331 1.264 . S
C309 O333 1.273 . S
Mg310 O312 1.902 1_545 S
Mg310 O319 2.081 1_545 S
Mg310 O321 2.023 . S
Mg310 O325 2.031 1_545 S
Mg310 O334 2.291 . S
Mg311 O312 1.973 1_545 S
Mg311 O322 1.941 1_545 S
Mg311 O323 1.961 . S
Mg311 O330 1.980 1_545 S
O312 Mg310 1.902 1_565 S
O312 Mg311 1.973 1_565 S
O312 Mg313 1.919 1_565 S
Mg313 O312 1.919 1_545 S
Mg313 O314 1.915 . S
Mg313 O318 2.013 . S
Mg313 O324 2.114 1_545 S
Mg313 O328 2.013 1_545 S
Mg313 O334 2.114 . S
O314 Mg313 1.915 . S
O314 Mg315 1.936 . S
O314 Mg316 1.963 . S
Mg315 O314 1.936 . S
Mg315 O324 2.291 1_545 S
Mg315 O329 2.081 . S
Mg315 O331 2.023 1_545 S
Mg315 O335 2.031 . S
Mg316 O314 1.963 . S
Mg316 O320 1.986 . S
Mg316 O332 1.942 . S
Mg316 O333 1.955 1_545 S
C317 O328 1.191 . S
C317 O330 1.307 . S
O318 Mg313 2.013 . S
O318 C337 1.191 . S
O319 Mg310 2.081 1_565 S
O319 C327 1.331 . S
O320 Mg316 1.986 . S
O320 C337 1.307 . S
O321 Mg310 2.023 . S
O321 C336 1.264 . S
O322 Mg311 1.941 1_565 S
O322 C327 1.244 . S
O323 Mg311 1.961 . S
O323 C336 1.273 . S
O324 Mg313 2.114 1_565 S
O324 Mg315 2.291 1_565 S
O324 C326 1.312 . S
O325 Mg310 2.031 1_565 S
O325 C326 1.208 . S
C326 O324 1.312 . S
C326 O325 1.208 . S
C327 O319 1.331 . S
C327 O322 1.244 . S
O328 Mg313 2.013 1_565 S
O328 C317 1.191 . S
O329 C308 1.331 . S
O329 Mg315 2.081 . S
O330 Mg311 1.980 1_565 S
O330 C317 1.307 . S
O331 C309 1.264 . S
O331 Mg315 2.023 1_565 S
O332 C308 1.244 . S
O332 Mg316 1.942 . S
O333 C309 1.273 . S
O333 Mg316 1.955 1_565 S
O334 C307 1.312 . S
O334 Mg310 2.291 . S
O334 Mg313 2.114 . S
O335 C307 1.208 . S
O335 Mg315 2.031 . S
C336 O321 1.264 . S
C336 O323 1.273 . S
C337 O318 1.191 . S
C337 O320 1.307 . S
C338 O365 1.312 . S
C338 O366 1.208 . S
C339 O360 1.331 . S
C339 O363 1.244 . S
C340 O362 1.264 . S
C340 O364 1.273 . S
Mg341 O343 1.936 . S
Mg341 O350 2.081 . S
Mg341 O352 2.023 . S
Mg341 O356 2.031 . S
Mg341 O365 2.291 . S
Mg342 O343 1.963 . S
Mg342 O353 1.942 . S
Mg342 O354 1.955 . S
Mg342 O361 1.986 . S
O343 Mg341 1.936 . S
O343 Mg342 1.963 . S
O343 Mg344 1.915 . S
Mg344 O343 1.915 . S
Mg344 O345 1.915 . S
Mg344 O349 2.013 . S
Mg344 O355 2.114 . S
Mg344 O359 2.013 . S
Mg344 O365 2.114 . S
O345 Mg344 1.915 . S
O345 Mg346 1.936 . S
O345 Mg347 1.963 . S
Mg346 O345 1.936 . S
Mg346 O355 2.291 . S
Mg346 O360 2.081 . S
Mg346 O362 2.023 . S
Mg346 O366 2.031 . S
Mg347 O345 1.963 . S
Mg347 O351 1.986 . S
Mg347 O363 1.942 . S
Mg347 O364 1.955 . S
C348 O359 1.191 . S
C348 O361 1.307 . S
O349 Mg344 2.013 . S
O349 C368 1.191 . S
O350 Mg341 2.081 . S
O350 C358 1.331 . S
O351 Mg347 1.986 . S
O351 C368 1.307 . S
O352 Mg341 2.023 . S
O352 C367 1.264 . S
O353 Mg342 1.942 . S
O353 C358 1.244 . S
O354 Mg342 1.955 . S
O354 C367 1.273 . S
O355 Mg344 2.114 . S
O355 Mg346 2.291 . S
O355 C357 1.312 . S
O356 Mg341 2.031 . S
O356 C357 1.208 . S
C357 O355 1.312 . S
C357 O356 1.208 . S
C358 O350 1.331 . S
C358 O353 1.244 . S
O359 Mg344 2.013 . S
O359 C348 1.191 . S
O360 C339 1.331 . S
O360 Mg346 2.081 . S
O361 Mg342 1.986 . S
O361 C348 1.307 . S
O362 C340 1.264 . S
O362 Mg346 2.023 . S
O363 C339 1.244 . S
O363 Mg347 1.942 . S
O364 C340 1.273 . S
O364 Mg347 1.955 . S
O365 C338 1.312 . S
O365 Mg341 2.291 . S
O365 Mg344 2.114 . S
O366 C338 1.208 . S
O366 Mg346 2.031 . S
C367 O352 1.264 . S
C367 O354 1.273 . S
C368 O349 1.191 . S
C368 O351 1.307 . S
H369 C375 0.930 . S
H370 C378 0.930 . S
H371 C379 0.930 . S
H372 C380 0.930 . S
H373 C383 0.930 . S
H374 C384 0.930 . S
C375 H369 0.930 . S
C375 C376 1.355 . S
C375 C377 1.415 . S
C376 C375 1.355 . S
C376 C378 1.419 . S
C377 C375 1.415 . S
C377 C382 1.425 . S
C377 C384 1.409 . S
C378 H370 0.930 . S
C378 C376 1.419 . S
C378 C379 1.362 . S
C379 H371 0.930 . S
C379 C378 1.362 . S
C379 C382 1.409 . S
C380 H372 0.930 . S
C380 C381 1.355 . S
C380 C382 1.415 . S
C381 C380 1.355 . S
C381 C383 1.419 . S
C382 C377 1.425 . S
C382 C379 1.409 . S
C382 C380 1.415 . S
C383 H373 0.930 . S
C383 C381 1.419 . S
C383 C384 1.362 . S
C384 H374 0.930 . S
C384 C377 1.409 . S
C384 C383 1.362 . S
H385 C391 0.930 . S
H386 C394 0.930 . S
H387 C395 0.930 . S
H388 C396 0.930 . S
H389 C399 0.930 . S
H390 C400 0.930 . S
C391 H385 0.930 . S
C391 C392 1.355 . S
C391 C393 1.415 . S
C392 C391 1.355 . S
C392 C394 1.419 . S
C393 C391 1.415 . S
C393 C398 1.425 . S
C393 C400 1.409 . S
C394 H386 0.930 . S
C394 C392 1.419 . S
C394 C395 1.362 . S
C395 H387 0.930 . S
C395 C394 1.362 . S
C395 C398 1.409 . S
C396 H388 0.930 . S
C396 C397 1.355 . S
C396 C398 1.415 . S
C397 C396 1.355 . S
C397 C399 1.419 . S
C398 C393 1.425 . S
C398 C395 1.409 . S
C398 C396 1.415 . S
C399 H389 0.930 . S
C399 C397 1.419 . S
C399 C400 1.362 . S
C400 H390 0.930 . S
C400 C393 1.409 . S
C400 C399 1.362 . S
H401 C407 0.930 . S
H402 C410 0.930 . S
H403 C411 0.930 . S
H404 C412 0.930 . S
H405 C415 0.930 . S
H406 C416 0.930 . S
C407 H401 0.930 . S
C407 C408 1.355 . S
C407 C409 1.415 . S
C408 C407 1.355 . S
C408 C410 1.419 . S
C409 C407 1.415 . S
C409 C414 1.425 . S
C409 C416 1.409 . S
C410 H402 0.930 . S
C410 C408 1.419 . S
C410 C411 1.362 . S
C411 H403 0.930 . S
C411 C410 1.362 . S
C411 C414 1.409 . S
C412 H404 0.930 . S
C412 C413 1.355 . S
C412 C414 1.415 . S
C413 C412 1.355 . S
C413 C415 1.419 . S
C414 C409 1.425 . S
C414 C411 1.409 . S
C414 C412 1.415 . S
C415 H405 0.930 . S
C415 C413 1.419 . S
C415 C416 1.362 . S
C416 H406 0.930 . S
C416 C409 1.409 . S
C416 C415 1.362 . S
H417 C423 0.930 . S
H418 C426 0.930 . S
H419 C427 0.930 . S
H420 C428 0.930 . S
H421 C431 0.930 . S
H422 C432 0.930 . S
C423 H417 0.930 . S
C423 C424 1.355 . S
C423 C425 1.415 . S
C424 C423 1.355 . S
C424 C426 1.419 . S
C425 C423 1.415 . S
C425 C430 1.425 . S
C425 C432 1.409 . S
C426 H418 0.930 . S
C426 C424 1.419 . S
C426 C427 1.362 . S
C427 H419 0.930 . S
C427 C426 1.362 . S
C427 C430 1.409 . S
C428 H420 0.930 . S
C428 C429 1.355 . S
C428 C430 1.415 . S
C429 C428 1.355 . S
C429 C431 1.419 . S
C430 C425 1.425 . S
C430 C427 1.409 . S
C430 C428 1.415 . S
C431 H421 0.930 . S
C431 C429 1.419 . S
C431 C432 1.362 . S
C432 H422 0.930 . S
C432 C425 1.409 . S
C432 C431 1.362 . S
H433 C439 0.930 . S
H434 C442 0.930 . S
H435 C443 0.930 . S
H436 C444 0.930 . S
H437 C447 0.930 . S
H438 C448 0.930 . S
C439 H433 0.930 . S
C439 C440 1.355 . S
C439 C441 1.415 . S
C440 C439 1.355 . S
C440 C442 1.419 . S
C441 C439 1.415 . S
C441 C446 1.425 . S
C441 C448 1.409 . S
C442 H434 0.930 . S
C442 C440 1.419 . S
C442 C443 1.362 . S
C443 H435 0.930 . S
C443 C442 1.362 . S
C443 C446 1.409 . S
C444 H436 0.930 . S
C444 C445 1.355 . S
C444 C446 1.415 . S
C445 C444 1.355 . S
C445 C447 1.419 . S
C446 C441 1.425 . S
C446 C443 1.409 . S
C446 C444 1.415 . S
C447 H437 0.930 . S
C447 C445 1.419 . S
C447 C448 1.362 . S
C448 H438 0.930 . S
C448 C441 1.409 . S
C448 C447 1.362 . S
H449 C455 0.930 . S
H450 C458 0.930 . S
H451 C459 0.930 . S
H452 C460 0.930 . S
H453 C463 0.930 . S
H454 C464 0.930 . S
C455 H449 0.930 . S
C455 C456 1.355 . S
C455 C457 1.415 . S
C456 C455 1.355 . S
C456 C458 1.419 . S
C457 C455 1.415 . S
C457 C462 1.425 . S
C457 C464 1.409 . S
C458 H450 0.930 . S
C458 C456 1.419 . S
C458 C459 1.362 . S
C459 H451 0.930 . S
C459 C458 1.362 . S
C459 C462 1.409 . S
C460 H452 0.930 . S
C460 C461 1.355 . S
C460 C462 1.415 . S
C461 C460 1.355 . S
C461 C463 1.419 . S
C462 C457 1.425 . S
C462 C459 1.409 . S
C462 C460 1.415 . S
C463 H453 0.930 . S
C463 C461 1.419 . S
C463 C464 1.362 . S
C464 H454 0.930 . S
C464 C457 1.409 . S
C464 C463 1.362 . S
H465 C471 0.930 . S
H466 C474 0.930 . S
H467 C475 0.930 . S
H468 C476 0.930 . S
H469 C479 0.930 . S
H470 C480 0.930 . S
C471 H465 0.930 . S
C471 C472 1.355 . S
C471 C473 1.415 . S
C472 C471 1.355 . S
C472 C474 1.419 . S
C473 C471 1.415 . S
C473 C478 1.425 . S
C473 C480 1.409 . S
C474 H466 0.930 . S
C474 C472 1.419 . S
C474 C475 1.362 . S
C475 H467 0.930 . S
C475 C474 1.362 . S
C475 C478 1.409 . S
C476 H468 0.930 . S
C476 C477 1.355 . S
C476 C478 1.415 . S
C477 C476 1.355 . S
C477 C479 1.419 . S
C478 C473 1.425 . S
C478 C475 1.409 . S
C478 C476 1.415 . S
C479 H469 0.930 . S
C479 C477 1.419 . S
C479 C480 1.362 . S
C480 H470 0.930 . S
C480 C473 1.409 . S
C480 C479 1.362 . S
H481 C487 0.930 . S
H482 C490 0.930 . S
H483 C491 0.930 . S
H484 C492 0.930 . S
H485 C495 0.930 . S
H486 C496 0.930 . S
C487 H481 0.930 . S
C487 C488 1.355 . S
C487 C489 1.415 . S
C488 C487 1.355 . S
C488 C490 1.419 . S
C489 C487 1.415 . S
C489 C494 1.425 . S
C489 C496 1.409 . S
C490 H482 0.930 . S
C490 C488 1.419 . S
C490 C491 1.362 . S
C491 H483 0.930 . S
C491 C490 1.362 . S
C491 C494 1.409 . S
C492 H484 0.930 . S
C492 C493 1.355 . S
C492 C494 1.415 . S
C493 C492 1.355 . S
C493 C495 1.419 . S
C494 C489 1.425 . S
C494 C491 1.409 . S
C494 C492 1.415 . S
C495 H485 0.930 . S
C495 C493 1.419 . S
C495 C496 1.362 . S
C496 H486 0.930 . S
C496 C489 1.409 . S
C496 C495 1.362 . S
H497 C503 0.930 . S
H498 C506 0.930 . S
H499 C507 0.930 . S
H500 C508 0.930 . S
H501 C511 0.930 . S
H502 C512 0.930 . S
C503 H497 0.930 . S
C503 C504 1.355 . S
C503 C505 1.415 . S
C504 C503 1.355 . S
C504 C506 1.419 . S
C505 C503 1.415 . S
C505 C510 1.425 . S
C505 C512 1.409 . S
C506 H498 0.930 . S
C506 C504 1.419 . S
C506 C507 1.362 . S
C507 H499 0.930 . S
C507 C506 1.362 . S
C507 C510 1.409 . S
C508 H500 0.930 . S
C508 C509 1.355 . S
C508 C510 1.415 . S
C509 C508 1.355 . S
C509 C511 1.419 . S
C510 C505 1.425 . S
C510 C507 1.409 . S
C510 C508 1.415 . S
C511 H501 0.930 . S
C511 C509 1.419 . S
C511 C512 1.362 . S
C512 H502 0.930 . S
C512 C505 1.409 . S
C512 C511 1.362 . S
H513 C519 0.930 . S
H514 C522 0.930 . S
H515 C523 0.930 . S
H516 C524 0.930 . S
H517 C527 0.930 . S
H518 C528 0.930 . S
C519 H513 0.930 . S
C519 C520 1.355 . S
C519 C521 1.415 . S
C520 C519 1.355 . S
C520 C522 1.419 . S
C521 C519 1.415 . S
C521 C526 1.425 . S
C521 C528 1.409 . S
C522 H514 0.930 . S
C522 C520 1.419 . S
C522 C523 1.362 . S
C523 H515 0.930 . S
C523 C522 1.362 . S
C523 C526 1.409 . S
C524 H516 0.930 . S
C524 C525 1.355 . S
C524 C526 1.415 . S
C525 C524 1.355 . S
C525 C527 1.419 . S
C526 C521 1.425 . S
C526 C523 1.409 . S
C526 C524 1.415 . S
C527 H517 0.930 . S
C527 C525 1.419 . S
C527 C528 1.362 . S
C528 H518 0.930 . S
C528 C521 1.409 . S
C528 C527 1.362 . S
H529 C535 0.930 . S
H530 C538 0.930 . S
H531 C539 0.930 . S
H532 C540 0.930 . S
H533 C543 0.930 . S
H534 C544 0.930 . S
C535 H529 0.930 . S
C535 C536 1.355 . S
C535 C537 1.415 . S
C536 C535 1.355 . S
C536 C538 1.419 . S
C537 C535 1.415 . S
C537 C542 1.425 . S
C537 C544 1.409 . S
C538 H530 0.930 . S
C538 C536 1.419 . S
C538 C539 1.362 . S
C539 H531 0.930 . S
C539 C538 1.362 . S
C539 C542 1.409 . S
C540 H532 0.930 . S
C540 C541 1.355 . S
C540 C542 1.415 . S
C541 C540 1.355 . S
C541 C543 1.419 . S
C542 C537 1.425 . S
C542 C539 1.409 . S
C542 C540 1.415 . S
C543 H533 0.930 . S
C543 C541 1.419 . S
C543 C544 1.362 . S
C544 H534 0.930 . S
C544 C537 1.409 . S
C544 C543 1.362 . S
H545 C551 0.930 . S
H546 C554 0.930 . S
H547 C555 0.930 . S
H548 C556 0.930 . S
H549 C559 0.930 . S
H550 C560 0.930 . S
C551 H545 0.930 . S
C551 C552 1.355 . S
C551 C553 1.415 . S
C552 C551 1.355 . S
C552 C554 1.419 . S
C553 C551 1.415 . S
C553 C558 1.425 . S
C553 C560 1.409 . S
C554 H546 0.930 . S
C554 C552 1.419 . S
C554 C555 1.362 . S
C555 H547 0.930 . S
C555 C554 1.362 . S
C555 C558 1.409 . S
C556 H548 0.930 . S
C556 C557 1.355 . S
C556 C558 1.415 . S
C557 C556 1.355 . S
C557 C559 1.419 . S
C558 C553 1.425 . S
C558 C555 1.409 . S
C558 C556 1.415 . S
C559 H549 0.930 . S
C559 C557 1.419 . S
C559 C560 1.362 . S
C560 H550 0.930 . S
C560 C553 1.409 . S
C560 C559 1.362 . S
H561 C567 0.930 . S
H562 C570 0.930 . S
H563 C571 0.930 . S
H564 C572 0.930 . S
H565 C575 0.930 . S
H566 C576 0.930 . S
C567 H561 0.930 . S
C567 C568 1.355 . S
C567 C569 1.415 . S
C568 C567 1.355 . S
C568 C570 1.419 . S
C569 C567 1.415 . S
C569 C574 1.425 . S
C569 C576 1.409 . S
C570 H562 0.930 . S
C570 C568 1.419 . S
C570 C571 1.362 . S
C571 H563 0.930 . S
C571 C570 1.362 . S
C571 C574 1.409 . S
C572 H564 0.930 . S
C572 C573 1.355 . S
C572 C574 1.415 . S
C573 C572 1.355 . S
C573 C575 1.419 . S
C574 C569 1.425 . S
C574 C571 1.409 . S
C574 C572 1.415 . S
C575 H565 0.930 . S
C575 C573 1.419 . S
C575 C576 1.362 . S
C576 H566 0.930 . S
C576 C569 1.409 . S
C576 C575 1.362 . S
H577 C583 0.930 . S
H578 C586 0.930 . S
H579 C587 0.930 . S
H580 C588 0.930 . S
H581 C591 0.930 . S
H582 C592 0.930 . S
C583 H577 0.930 . S
C583 C584 1.355 . S
C583 C585 1.415 . S
C584 C583 1.355 . S
C584 C586 1.419 . S
C585 C583 1.415 . S
C585 C590 1.425 . S
C585 C592 1.409 . S
C586 H578 0.930 . S
C586 C584 1.419 . S
C586 C587 1.362 . S
C587 H579 0.930 . S
C587 C586 1.362 . S
C587 C590 1.409 . S
C588 H580 0.930 . S
C588 C589 1.355 . S
C588 C590 1.415 . S
C589 C588 1.355 . S
C589 C591 1.419 . S
C590 C585 1.425 . S
C590 C587 1.409 . S
C590 C588 1.415 . S
C591 H581 0.930 . S
C591 C589 1.419 . S
C591 C592 1.362 . S
C592 H582 0.930 . S
C592 C585 1.409 . S
C592 C591 1.362 . S
H593 C599 0.930 . S
H594 C602 0.930 . S
H595 C603 0.930 . S
H596 C604 0.930 . S
H597 C607 0.930 . S
H598 C608 0.930 . S
C599 H593 0.930 . S
C599 C600 1.355 . S
C599 C601 1.415 . S
C600 C599 1.355 . S
C600 C602 1.419 . S
C601 C599 1.415 . S
C601 C606 1.425 . S
C601 C608 1.409 . S
C602 H594 0.930 . S
C602 C600 1.419 . S
C602 C603 1.362 . S
C603 H595 0.930 . S
C603 C602 1.362 . S
C603 C606 1.409 . S
C604 H596 0.930 . S
C604 C605 1.355 . S
C604 C606 1.415 . S
C605 C604 1.355 . S
C605 C607 1.419 . S
C606 C601 1.425 . S
C606 C603 1.409 . S
C606 C604 1.415 . S
C607 H597 0.930 . S
C607 C605 1.419 . S
C607 C608 1.362 . S
C608 H598 0.930 . S
C608 C601 1.409 . S
C608 C607 1.362 . S
H609 C615 0.930 1_554 S
H610 C618 0.930 . S
H611 C619 0.930 . S
H612 C620 0.930 . S
H613 C623 0.930 . S
H614 C624 0.930 . S
C615 H609 0.930 1_556 S
C615 C616 1.355 . S
C615 C617 1.415 . S
C616 C615 1.355 . S
C616 C618 1.419 . S
C617 C615 1.415 . S
C617 C622 1.425 . S
C617 C624 1.409 . S
C618 H610 0.930 . S
C618 C616 1.419 . S
C618 C619 1.362 . S
C619 H611 0.930 . S
C619 C618 1.362 . S
C619 C622 1.409 . S
C620 H612 0.930 . S
C620 C621 1.355 . S
C620 C622 1.415 . S
C621 C620 1.355 . S
C621 C623 1.419 . S
C622 C617 1.425 . S
C622 C619 1.409 . S
C622 C620 1.415 . S
C623 H613 0.930 . S
C623 C621 1.419 . S
C623 C624 1.362 . S
C624 H614 0.930 . S
C624 C617 1.409 . S
C624 C623 1.362 . S
H625 C631 0.930 . S
H626 C634 0.930 . S
H627 C635 0.930 . S
H628 C636 0.930 . S
H629 C639 0.930 . S
H630 C640 0.930 . S
C631 H625 0.930 . S
C631 C632 1.355 . S
C631 C633 1.415 . S
C632 C631 1.355 . S
C632 C634 1.419 . S
C633 C631 1.415 . S
C633 C638 1.425 . S
C633 C640 1.409 . S
C634 H626 0.930 . S
C634 C632 1.419 . S
C634 C635 1.362 . S
C635 H627 0.930 . S
C635 C634 1.362 . S
C635 C638 1.409 . S
C636 H628 0.930 . S
C636 C637 1.355 . S
C636 C638 1.415 . S
C637 C636 1.355 . S
C637 C639 1.419 . S
C638 C633 1.425 . S
C638 C635 1.409 . S
C638 C636 1.415 . S
C639 H629 0.930 . S
C639 C637 1.419 . S
C639 C640 1.362 . S
C640 H630 0.930 . S
C640 C633 1.409 . S
C640 C639 1.362 . S
H641 C647 0.930 . S
H642 C650 0.930 . S
H643 C651 0.930 . S
H644 C652 0.930 . S
H645 C655 0.930 . S
H646 C656 0.930 . S
C647 H641 0.930 . S
C647 C648 1.355 . S
C647 C649 1.415 . S
C648 C647 1.355 . S
C648 C650 1.419 . S
C649 C647 1.415 . S
C649 C654 1.425 . S
C649 C656 1.409 . S
C650 H642 0.930 . S
C650 C648 1.419 . S
C650 C651 1.362 . S
C651 H643 0.930 . S
C651 C650 1.362 . S
C651 C654 1.409 . S
C652 H644 0.930 . S
C652 C653 1.355 . S
C652 C654 1.415 . S
C653 C652 1.355 . S
C653 C655 1.419 . S
C654 C649 1.425 . S
C654 C651 1.409 . S
C654 C652 1.415 . S
C655 H645 0.930 . S
C655 C653 1.419 . S
C655 C656 1.362 . S
C656 H646 0.930 . S
C656 C649 1.409 . S
C656 C655 1.362 . S
H657 C663 0.930 . S
H658 C666 0.930 . S
H659 C667 0.930 . S
H660 C668 0.930 . S
H661 C671 0.930 . S
H662 C672 0.930 . S
C663 H657 0.930 . S
C663 C664 1.355 . S
C663 C665 1.415 . S
C664 C663 1.355 . S
C664 C666 1.419 . S
C665 C663 1.415 . S
C665 C670 1.425 . S
C665 C672 1.409 . S
C666 H658 0.930 . S
C666 C664 1.419 . S
C666 C667 1.362 . S
C667 H659 0.930 . S
C667 C666 1.362 . S
C667 C670 1.409 . S
C668 H660 0.930 . S
C668 C669 1.355 . S
C668 C670 1.415 . S
C669 C668 1.355 . S
C669 C671 1.419 . S
C670 C665 1.425 . S
C670 C667 1.409 . S
C670 C668 1.415 . S
C671 H661 0.930 . S
C671 C669 1.419 . S
C671 C672 1.362 . S
C672 H662 0.930 . S
C672 C665 1.409 . S
C672 C671 1.362 . S
H673 C679 0.930 . S
H674 C682 0.930 . S
H675 C683 0.930 . S
H676 C684 0.930 . S
H677 C687 0.930 . S
H678 C688 0.930 . S
C679 H673 0.930 . S
C679 C680 1.355 . S
C679 C681 1.415 . S
C680 C679 1.355 . S
C680 C682 1.419 . S
C681 C679 1.415 . S
C681 C686 1.425 . S
C681 C688 1.409 . S
C682 H674 0.930 . S
C682 C680 1.419 . S
C682 C683 1.362 . S
C683 H675 0.930 . S
C683 C682 1.362 . S
C683 C686 1.409 . S
C684 H676 0.930 . S
C684 C685 1.355 . S
C684 C686 1.415 . S
C685 C684 1.355 . S
C685 C687 1.419 . S
C686 C681 1.425 . S
C686 C683 1.409 . S
C686 C684 1.415 . S
C687 H677 0.930 . S
C687 C685 1.419 . S
C687 C688 1.362 . S
C688 H678 0.930 . S
C688 C681 1.409 . S
C688 C687 1.362 . S
H689 C695 0.930 . S
H690 C698 0.930 . S
H691 C699 0.930 . S
H692 C700 0.930 . S
H693 C703 0.930 . S
H694 C704 0.930 . S
C695 H689 0.930 . S
C695 C696 1.355 . S
C695 C697 1.415 . S
C696 C695 1.355 . S
C696 C698 1.419 . S
C697 C695 1.415 . S
C697 C702 1.425 . S
C697 C704 1.409 . S
C698 H690 0.930 . S
C698 C696 1.419 . S
C698 C699 1.362 . S
C699 H691 0.930 . S
C699 C698 1.362 . S
C699 C702 1.409 . S
C700 H692 0.930 . S
C700 C701 1.355 . S
C700 C702 1.415 . S
C701 C700 1.355 . S
C701 C703 1.419 . S
C702 C697 1.425 . S
C702 C699 1.409 . S
C702 C700 1.415 . S
C703 H693 0.930 . S
C703 C701 1.419 . S
C703 C704 1.362 . S
C704 H694 0.930 . S
C704 C697 1.409 . S
C704 C703 1.362 . S
H705 C711 0.930 . S
H706 C714 0.930 . S
H707 C715 0.930 . S
H708 C716 0.930 . S
H709 C719 0.930 . S
H710 C720 0.930 . S
C711 H705 0.930 . S
C711 C712 1.355 . S
C711 C713 1.415 . S
C712 C711 1.355 . S
C712 C714 1.419 . S
C713 C711 1.415 . S
C713 C718 1.425 . S
C713 C720 1.409 . S
C714 H706 0.930 . S
C714 C712 1.419 . S
C714 C715 1.362 . S
C715 H707 0.930 . S
C715 C714 1.362 . S
C715 C718 1.409 . S
C716 H708 0.930 . S
C716 C717 1.355 . S
C716 C718 1.415 . S
C717 C716 1.355 . S
C717 C719 1.419 . S
C718 C713 1.425 . S
C718 C715 1.409 . S
C718 C716 1.415 . S
C719 H709 0.930 . S
C719 C717 1.419 . S
C719 C720 1.362 . S
C720 H710 0.930 . S
C720 C713 1.409 . S
C720 C719 1.362 . S
H721 C727 0.930 . S
H722 C730 0.930 . S
H723 C731 0.930 . S
H724 C732 0.930 . S
H725 C735 0.930 . S
H726 C736 0.930 . S
C727 H721 0.930 . S
C727 C728 1.355 . S
C727 C729 1.415 . S
C728 C727 1.355 . S
C728 C730 1.419 . S
C729 C727 1.415 . S
C729 C734 1.425 . S
C729 C736 1.409 . S
C730 H722 0.930 . S
C730 C728 1.419 . S
C730 C731 1.362 . S
C731 H723 0.930 . S
C731 C730 1.362 . S
C731 C734 1.409 . S
C732 H724 0.930 . S
C732 C733 1.355 . S
C732 C734 1.415 . S
C733 C732 1.355 . S
C733 C735 1.419 . S
C734 C729 1.425 . S
C734 C731 1.409 . S
C734 C732 1.415 . S
C735 H725 0.930 . S
C735 C733 1.419 . S
C735 C736 1.362 . S
C736 H726 0.930 . S
C736 C729 1.409 . S
C736 C735 1.362 . S
H737 C743 0.930 . S
H738 C746 0.930 . S
H739 C747 0.930 . S
H740 C748 0.930 . S
H741 C751 0.930 . S
H742 C752 0.930 . S
C743 H737 0.930 . S
C743 C744 1.355 . S
C743 C745 1.415 . S
C744 C743 1.355 . S
C744 C746 1.419 . S
C745 C743 1.415 . S
C745 C750 1.425 . S
C745 C752 1.409 . S
C746 H738 0.930 . S
C746 C744 1.419 . S
C746 C747 1.362 . S
C747 H739 0.930 . S
C747 C746 1.362 . S
C747 C750 1.409 . S
C748 H740 0.930 . S
C748 C749 1.355 . S
C748 C750 1.415 . S
C749 C748 1.355 . S
C749 C751 1.419 . S
C750 C745 1.425 . S
C750 C747 1.409 . S
C750 C748 1.415 . S
C751 H741 0.930 . S
C751 C749 1.419 . S
C751 C752 1.362 . S
C752 H742 0.930 . S
C752 C745 1.409 . S
C752 C751 1.362 . S
C376 C15 1.787 . S
C381 C276 1.690 . S
C392 C47 1.541 . S
C397 C308 1.496 . S
C413 C367 1.838 . S
C408 C100 1.912 . S
C429 C296 1.386 . S
C424 C146 1.447 . S
C440 C192 1.689 . S
C445 C326 1.558 . S
C461 C348 1.251 . S
C456 C245 1.266 . S
C477 C317 1.724 . S
C472 C114 1.731 . S
C488 C160 1.393 . S
C493 C357 1.354 . S
C509 C306 1.632 . S
C504 C206 1.616 . S
C520 C231 1.543 1_556 S
C525 C336 1.511 . S
C536 C1 1.828 1_556 S
C541 C339 1.757 . S
C557 C278 1.619 . S
C552 C61 1.637 . S
C573 C286 1.680 . S
C568 C139 1.718 . S
C589 C327 1.482 . S
C584 C185 1.515 . S
C605 C340 1.842 . S
C600 C252 1.921 1_556 S
C621 C277 1.416 . S
C616 C22 1.479 1_556 S
C637 C337 1.559 . S
C632 C54 1.605 . S
C648 C93 1.325 . S
C653 C338 1.303 . S
C669 C307 1.687 . S
C664 C238 1.697 . S
C685 C368 1.290 . S
C680 C8 1.306 . S
C701 C295 1.608 . S
C696 C68 1.649 . S
C717 C309 1.514 . S
C712 C107 1.567 . S
C728 C153 1.843 . S
C733 C358 1.807 . S
C744 C199 1.627 . S
C749 C305 1.576 . S
