# Generated by pormake.
# Topology rtl, (3,6)-cn, num edge types: 1
# Building blocks:
#     Node 0, Type 0, BuildingBlock: MIDCAF_clean_linker_0, # of connection points: 3
#     Node 1, Type 0, BuildingBlock: MIDCAF_clean_linker_0, # of connection points: 3
#     Node 2, Type 0, BuildingBlock: MIDCAF_clean_linker_0, # of connection points: 3
#     Node 3, Type 0, BuildingBlock: MIDCAF_clean_linker_0, # of connection points: 3
#     Node 4, Type 1, BuildingBlock: FUNLAD_clean_sbu_0, # of connection points: 6
#     Node 5, Type 1, BuildingBlock: FUNLAD_clean_sbu_0, # of connection points: 6
#     Edge 6, Type (0, 1), BuildingBlock: UVAHIK_clean_linker_0, # of connection points: 2
#     Edge 7, Type (0, 1), BuildingBlock: UVAHIK_clean_linker_0, # of connection points: 2
#     Edge 8, Type (0, 1), BuildingBlock: UVAHIK_clean_linker_0, # of connection points: 2
#     Edge 9, Type (0, 1), BuildingBlock: UVAHIK_clean_linker_0, # of connection points: 2
#     Edge 10, Type (0, 1), BuildingBlock: UVAHIK_clean_linker_0, # of connection points: 2
#     Edge 11, Type (0, 1), BuildingBlock: UVAHIK_clean_linker_0, # of connection points: 2
#     Edge 12, Type (0, 1), BuildingBlock: UVAHIK_clean_linker_0, # of connection points: 2
#     Edge 13, Type (0, 1), BuildingBlock: UVAHIK_clean_linker_0, # of connection points: 2
#     Edge 14, Type (0, 1), BuildingBlock: UVAHIK_clean_linker_0, # of connection points: 2
#     Edge 15, Type (0, 1), BuildingBlock: UVAHIK_clean_linker_0, # of connection points: 2
#     Edge 16, Type (0, 1), BuildingBlock: UVAHIK_clean_linker_0, # of connection points: 2
#     Edge 17, Type (0, 1), BuildingBlock: UVAHIK_clean_linker_0, # of connection points: 2
# Relax obj value: 0.029
# Max RMSD: 0.086
# Mean RMSD: 0.074
data_MOF--net-rtl--node1-FUNLAD_clean_sbu_0--node2-MIDCAF_clean_linker_0--edge1-UVAHIK_clean_linker_0
_symmetry_space_group_name_H-M    P1
_symmetry_Int_Tables_number       1
_symmetry_cell_setting            triclinic
loop_
_symmetry_equiv_pos_as_xyz
'x, y, z'
_cell_length_a     59.084475
_cell_length_b     48.517413
_cell_length_c     35.056108
_cell_angle_alpha  89.753228
_cell_angle_beta   90.954553
_cell_angle_gamma 90.660826
loop_
_atom_site_label
_atom_site_type_symbol
_atom_site_fract_x
_atom_site_fract_y
_atom_site_fract_z
_atom_type_partial_charge
C0 C 0.06953 0.78839 0.11647 0.0
C1 C 0.08232 0.7859 0.15042 0.0
C2 C 0.10238 0.77062 0.15017 0.0
C3 C 0.10978 0.75864 0.11643 0.0
H4 H 0.15642 0.70429 0.07274 0.0
H5 H 0.19064 0.67675 0.07168 0.0
H6 H 0.18919 0.67898 0.9485 0.0
H7 H 0.15525 0.70681 0.94934 0.0
H8 H 0.12241 0.74666 0.90629 0.0
H9 H 0.10897 0.76864 0.84766 0.0
H10 H 0.05442 0.80562 0.90912 0.0
H11 H 0.06758 0.78349 0.96768 0.0
H12 H 0.06692 0.77948 0.05694 0.0
H13 H 0.05411 0.80025 0.11566 0.0
H14 H 0.11247 0.76814 0.17601 0.0
H15 H 0.12553 0.74744 0.11709 0.0
N16 N 0.12418 0.73435 0.04519 0.0
N17 N 0.1235 0.73505 0.97826 0.0
N18 N 0.0969 0.76022 0.01202 0.0
C19 C 0.1329 0.72591 0.01158 0.0
C20 C 0.10547 0.75215 0.97822 0.0
C21 C 0.10611 0.75144 0.04562 0.0
C22 C 0.15308 0.70798 0.01114 0.0
C23 C 0.16331 0.69885 0.04539 0.0
C24 C 0.18288 0.68292 0.04482 0.0
C25 C 0.19269 0.6758 0.01001 0.0
C26 C 0.18224 0.68448 0.9758 0.0
C27 C 0.16268 0.70034 0.97633 0.0
C28 C 0.09621 0.76345 0.94188 0.0
C29 C 0.1074 0.75922 0.90732 0.0
C30 C 0.09978 0.77193 0.8737 0.0
C31 C 0.08072 0.78899 0.87383 0.0
C32 C 0.06904 0.79241 0.90803 0.0
C33 C 0.07671 0.77984 0.94168 0.0
C34 C 0.09736 0.76192 0.08215 0.0
C35 C 0.07699 0.77661 0.08272 0.0
C36 C 0.5612 0.72012 0.40608 0.0
C37 C 0.57334 0.7242 0.37237 0.0
C38 C 0.59205 0.74235 0.37284 0.0
C39 C 0.59896 0.75539 0.40662 0.0
H40 H 0.64635 0.80922 0.45068 0.0
H41 H 0.68157 0.83571 0.45171 0.0
H42 H 0.68186 0.83493 0.57492 0.0
H43 H 0.64684 0.80805 0.57411 0.0
H44 H 0.61393 0.76816 0.61697 0.0
H45 H 0.60129 0.74607 0.67555 0.0
H46 H 0.54582 0.70741 0.61351 0.0
H47 H 0.5582 0.72963 0.55497 0.0
H48 H 0.55873 0.7288 0.46555 0.0
H49 H 0.54682 0.70609 0.40671 0.0
H50 H 0.60157 0.74617 0.34717 0.0
H51 H 0.61377 0.76873 0.4061 0.0
N52 N 0.61419 0.77934 0.47812 0.0
N53 N 0.61414 0.77934 0.54499 0.0
N54 N 0.58715 0.75315 0.5109 0.0
C55 C 0.62325 0.78834 0.51178 0.0
C56 C 0.59603 0.76183 0.54481 0.0
C57 C 0.59609 0.76182 0.47742 0.0
C58 C 0.64377 0.80626 0.51232 0.0
C59 C 0.65379 0.81481 0.47805 0.0
C60 C 0.67395 0.83016 0.4786 0.0
C61 C 0.68458 0.83729 0.51339 0.0
C62 C 0.67427 0.82939 0.54764 0.0
C63 C 0.65409 0.81409 0.54713 0.0
C64 C 0.5872 0.75053 0.58109 0.0
C65 C 0.59888 0.75521 0.6158 0.0
C66 C 0.59173 0.74244 0.64938 0.0
C67 C 0.57266 0.72487 0.64908 0.0
C68 C 0.56048 0.72101 0.61472 0.0
C69 C 0.56769 0.73364 0.5811 0.0
C70 C 0.58738 0.75041 0.44076 0.0
C71 C 0.56815 0.73304 0.4399 0.0
C72 C 0.93745 0.22081 0.89192 0.0
C73 C 0.92505 0.22524 0.85796 0.0
C74 C 0.90606 0.24241 0.85866 0.0
C75 C 0.89923 0.25423 0.89286 0.0
H76 H 0.85456 0.30871 0.93844 0.0
H77 H 0.82067 0.33663 0.93939 0.0
H78 H 0.82085 0.33261 0.06248 0.0
H79 H 0.855 0.30496 0.06178 0.0
H80 H 0.89835 0.27322 0.10545 0.0
H81 H 0.91008 0.24856 0.16366 0.0
H82 H 0.93641 0.18294 0.09527 0.0
H83 H 0.92521 0.20742 0.03739 0.0
H84 H 0.94023 0.22797 0.95186 0.0
H85 H 0.95202 0.20746 0.89239 0.0
H86 H 0.89631 0.24642 0.83283 0.0
H87 H 0.88423 0.26686 0.89256 0.0
N88 N 0.88566 0.27744 0.96532 0.0
N89 N 0.8857 0.2746 0.03221 0.0
N90 N 0.91101 0.24827 0.99722 0.0
C91 C 0.87711 0.28549 -0.00074 0.0
C92 C 0.90268 0.25595 0.03135 0.0
C93 C 0.90272 0.25897 0.9641 0.0
C94 C 0.8575 0.30433 4e-05 0.0
C95 C 0.84755 0.3139 0.9658 0.0
C96 C 0.82802 0.32981 0.96629 0.0
C97 C 0.81796 0.33662 0.00098 0.0
C98 C 0.82828 0.32787 0.03528 0.0
C99 C 0.84782 0.31187 0.03483 0.0
C100 C 0.91079 0.24227 0.06677 0.0
C101 C 0.9068 0.25363 0.10287 0.0
C102 C 0.91355 0.23964 0.13612 0.0
C103 C 0.92397 0.21385 0.13374 0.0
C104 C 0.92824 0.20272 0.09776 0.0
C105 C 0.92191 0.21686 0.06465 0.0
C106 C 0.91114 0.2489 0.92713 0.0
C107 C 0.93055 0.23243 0.9261 0.0
C108 C 0.44716 0.28545 0.60564 0.0
C109 C 0.43476 0.28448 0.63951 0.0
C110 C 0.41482 0.26841 0.64047 0.0
C111 C 0.40704 0.25446 0.60792 0.0
H112 H 0.35809 0.20055 0.56917 0.0
H113 H 0.32275 0.1744 0.57102 0.0
H114 H 0.32181 0.16928 0.44804 0.0
H115 H 0.35736 0.19506 0.446 0.0
H116 H 0.38976 0.23503 0.3995 0.0
H117 H 0.40242 0.25536 0.33966 0.0
H118 H 0.46053 0.29104 0.39816 0.0
H119 H 0.44815 0.27058 0.45781 0.0
H120 H 0.44911 0.27334 0.54729 0.0
H121 H 0.46284 0.29716 0.60415 0.0
H122 H 0.40474 0.2674 0.66597 0.0
H123 H 0.39127 0.24293 0.60941 0.0
N124 N 0.39102 0.22726 0.53894 0.0
N125 N 0.39046 0.22482 0.47212 0.0
N126 N 0.41841 0.2511 0.50381 0.0
C127 C 0.38145 0.2174 0.50614 0.0
C128 C 0.40901 0.24159 0.47073 0.0
C129 C 0.40956 0.24404 0.53802 0.0
C130 C 0.36059 0.20011 0.5074 0.0
C131 C 0.35049 0.19374 0.54247 0.0
C132 C 0.33014 0.17885 0.54357 0.0
C133 C 0.31941 0.16992 0.50968 0.0
C134 C 0.32976 0.17566 0.47468 0.0
C135 C 0.3501 0.1906 0.47354 0.0
C136 C 0.41782 0.25136 0.43362 0.0
C137 C 0.4054 0.24689 0.39957 0.0
C138 C 0.41257 0.25866 0.36529 0.0
C139 C 0.43238 0.27493 0.36426 0.0
C140 C 0.44529 0.27841 0.39795 0.0
C141 C 0.43808 0.26681 0.43223 0.0
C142 C 0.41896 0.25639 0.5736 0.0
C143 C 0.43933 0.27164 0.57306 0.0
C144 C 0.01419 0.96503 0.45206 0.0
N145 N 0.05166 0.02786 0.50661 0.0
C146 C 0.06938 0.01019 0.50694 0.0
C147 C 0.09159 0.0203 0.50738 0.0
C148 C 0.09563 0.04888 0.50763 0.0
C149 C 0.07701 0.06664 0.5073 0.0
C150 C 0.05507 0.05564 0.50672 0.0
Zn151 Zn 0.01941 0.01225 0.50614 0.0
C152 C 0.99001 0.03954 0.44812 0.0
N153 N 0.9523 0.97888 0.50502 0.0
C154 C 0.94888 0.95115 0.50731 0.0
C155 C 0.93458 0.99653 0.50292 0.0
C156 C 0.91237 0.98644 0.50322 0.0
C157 C 0.90832 0.95792 0.50583 0.0
C158 C 0.92694 0.94019 0.50781 0.0
Zn159 Zn 0.98455 0.99448 0.50537 0.0
O160 O 0.02833 0.98303 0.46421 0.0
C161 C 0.01398 0.96713 0.56338 0.0
O162 O 0.99418 0.96484 0.4648 0.0
H163 H 0.93768 0.01851 0.50127 0.0
H164 H 0.06629 0.98817 0.50699 0.0
H165 H 0.96321 0.93749 0.50884 0.0
O166 O 0.02843 0.98391 0.54972 0.0
O167 O 0.99377 0.96724 0.55037 0.0
H168 H 0.04074 0.06931 0.50633 0.0
O169 O 0.97533 0.02445 0.54587 0.0
O170 O 0.01 0.04111 0.54804 0.0
O171 O 0.97588 0.0218 0.4604 0.0
O172 O 0.00988 0.04049 0.46253 0.0
C173 C 0.98968 0.04171 0.55932 0.0
H174 H 0.10545 0.00588 0.50809 0.0
H175 H 0.07936 0.08881 0.50701 0.0
H176 H 0.89852 0.00086 0.5021 0.0
H177 H 0.92458 0.91804 0.50938 0.0
C178 C 0.49222 0.46444 0.95258 0.0
N179 N 0.55384 0.48028 0.00983 0.0
C180 C 0.55728 0.45264 0.00804 0.0
C181 C 0.5792 0.4423 0.00741 0.0
C182 C 0.59782 0.46055 0.0088 0.0
C183 C 0.59379 0.48897 0.01103 0.0
C184 C 0.57155 0.49844 0.01139 0.0
Zn185 Zn 0.52136 0.49439 0.00966 0.0
C186 C 0.51451 0.54041 0.95492 0.0
N187 N 0.45323 0.52291 0.00901 0.0
C188 C 0.43535 0.50497 0.00907 0.0
C189 C 0.45003 0.55064 0.00866 0.0
C190 C 0.42821 0.56131 0.00804 0.0
C191 C 0.40943 0.54332 0.00795 0.0
C192 C 0.41319 0.51478 0.00867 0.0
Zn193 Zn 0.48566 0.50865 0.00928 0.0
O194 O 0.51232 0.46625 0.96588 0.0
C195 C 0.4925 0.46251 0.06382 0.0
O196 O 0.47709 0.48007 0.96566 0.0
H197 H 0.46446 0.56456 0.00884 0.0
H198 H 0.54297 0.43854 0.00701 0.0
H199 H 0.43828 0.483 0.00927 0.0
O200 O 0.51256 0.46461 0.05147 0.0
O201 O 0.47741 0.47876 0.05107 0.0
H202 H 0.56844 0.52034 0.01268 0.0
O203 O 0.49476 0.53702 0.05305 0.0
O204 O 0.52987 0.5228 0.05321 0.0
O205 O 0.49446 0.53824 0.96722 0.0
O206 O 0.52966 0.52436 0.96794 0.0
C207 C 0.51489 0.53863 0.06626 0.0
H208 H 0.58156 0.42022 0.00619 0.0
H209 H 0.60767 0.50375 0.01179 0.0
H210 H 0.42608 0.58346 0.00806 0.0
H211 H 0.39917 0.5002 0.00829 0.0
C212 C 0.2924 0.13286 0.48693 0.0
C213 C 0.29712 0.15551 0.51076 0.0
C214 C 0.27114 0.1199 0.48727 0.0
C215 C 0.21961 0.11202 0.54529 0.0
H216 H 0.19118 0.09135 0.44894 0.0
C217 C 0.12498 0.08256 0.53184 0.0
C218 C 0.11911 0.0601 0.50836 0.0
C219 C 0.14708 0.09311 0.53257 0.0
C220 C 0.199 0.0967 0.47611 0.0
H221 H 0.28314 0.18246 0.55335 0.0
H222 H 0.24611 0.15997 0.55386 0.0
H223 H 0.22919 0.11148 0.44961 0.0
H224 H 0.1318 0.03124 0.46697 0.0
H225 H 0.17047 0.04949 0.46857 0.0
H226 H 0.1893 0.09752 0.57172 0.0
C227 C 0.25894 0.15187 0.53541 0.0
C228 C 0.22079 0.10821 0.47651 0.0
C229 C 0.28017 0.16478 0.53511 0.0
C230 C 0.13584 0.04841 0.48562 0.0
C231 C 0.15793 0.05903 0.48625 0.0
C232 C 0.19781 0.10058 0.54488 0.0
C233 C 0.25413 0.12934 0.5114 0.0
C234 C 0.2313 0.11616 0.51109 0.0
C235 C 0.1638 0.08149 0.50975 0.0
C236 C 0.18721 0.09294 0.51026 0.0
H237 H 0.3052 0.12502 0.4682 0.0
H238 H 0.2681 0.10235 0.46883 0.0
H239 H 0.22737 0.11748 0.57247 0.0
H240 H 0.11254 0.09184 0.54996 0.0
H241 H 0.15102 0.1106 0.55069 0.0
C242 C 0.23128 0.66756 0.98398 0.0
C243 C 0.21408 0.66001 0.00931 0.0
C244 C 0.25153 0.65302 0.98341 0.0
C245 C 0.28738 0.60688 0.04191 0.0
H246 H 0.31625 0.59321 0.94537 0.0
C247 C 0.36925 0.54312 0.03042 0.0
C248 C 0.3861 0.5544 0.007 0.0
C249 C 0.3475 0.55422 0.03027 0.0
C250 C 0.30846 0.59703 0.97257 0.0
H251 H 0.20454 0.63101 0.05361 0.0
H252 H 0.23991 0.60548 0.05251 0.0
H253 H 0.27961 0.61575 0.94603 0.0
H254 H 0.39319 0.58567 0.96432 0.0
H255 H 0.35537 0.60518 0.96431 0.0
H256 H 0.31635 0.58823 0.06841 0.0
C257 C 0.23785 0.62292 0.03344 0.0
C258 C 0.28748 0.60998 0.97297 0.0
C259 C 0.21758 0.63753 0.03407 0.0
C260 C 0.38065 0.57671 0.983 0.0
C261 C 0.35891 0.5877 0.98269 0.0
C262 C 0.30835 0.59384 0.0415 0.0
C263 C 0.25507 0.63051 0.0081 0.0
C264 C 0.27681 0.61537 0.00766 0.0
C265 C 0.34212 0.57669 0.00646 0.0
C266 C 0.31925 0.58906 0.00684 0.0
H267 H 0.22929 0.68508 0.96502 0.0
H268 H 0.26459 0.65978 0.96406 0.0
H269 H 0.27977 0.61102 0.06916 0.0
H270 H 0.37298 0.52604 0.04942 0.0
H271 H 0.33487 0.54516 0.04868 0.0
C272 C 0.71112 0.8737 0.48836 0.0
C273 C 0.70678 0.85196 0.51394 0.0
C274 C 0.73235 0.88674 0.48807 0.0
C275 C 0.78468 0.89691 0.54625 0.0
H276 H 0.81184 0.91356 0.44875 0.0
C277 C 0.87919 0.92531 0.53213 0.0
C278 C 0.88484 0.94677 0.50683 0.0
C279 C 0.85707 0.91492 0.53329 0.0
C280 C 0.80438 0.90935 0.47621 0.0
H281 H 0.72137 0.82673 0.55904 0.0
H282 H 0.75834 0.84937 0.55847 0.0
H283 H 0.77379 0.89364 0.4505 0.0
H284 H 0.87173 0.97394 0.46264 0.0
H285 H 0.83302 0.95596 0.46496 0.0
H286 H 0.81538 0.91233 0.57192 0.0
C287 C 0.74525 0.85672 0.53911 0.0
C288 C 0.78256 0.89797 0.47722 0.0
C289 C 0.72404 0.84372 0.53943 0.0
C290 C 0.86787 0.95757 0.48268 0.0
C291 C 0.84576 0.94709 0.48374 0.0
C292 C 0.8065 0.90823 0.54522 0.0
C293 C 0.74969 0.87829 0.5133 0.0
C294 C 0.77252 0.89144 0.51225 0.0
C295 C 0.84011 0.92568 0.50911 0.0
C296 C 0.81666 0.91441 0.51019 0.0
H297 H 0.69807 0.88075 0.4687 0.0
H298 H 0.73512 0.90356 0.46822 0.0
H299 H 0.77729 0.89256 0.57372 0.0
H300 H 0.89182 0.91674 0.55138 0.0
H301 H 0.85331 0.89821 0.55286 0.0
C302 C 0.79263 0.37283 0.02782 0.0
C303 C 0.79626 0.35179 0.00124 0.0
C304 C 0.77195 0.38658 0.02836 0.0
C305 C 0.72055 0.40003 0.96921 0.0
H306 H 0.69319 0.41582 0.06638 0.0
C307 C 0.62669 0.42873 0.98223 0.0
C308 C 0.62126 0.44992 0.00758 0.0
C309 C 0.64865 0.41848 0.98121 0.0
C310 C 0.70074 0.41186 0.03903 0.0
H311 H 0.78088 0.32836 0.95487 0.0
H312 H 0.74487 0.35211 0.95595 0.0
H313 H 0.73051 0.39485 0.06508 0.0
H314 H 0.63463 0.47691 0.05187 0.0
H315 H 0.67312 0.45905 0.04994 0.0
H316 H 0.6906 0.41661 0.9432 0.0
C317 C 0.75813 0.35848 0.97584 0.0
C318 C 0.72214 0.39988 0.03826 0.0
C319 C 0.77879 0.34483 0.97523 0.0
C320 C 0.63833 0.46071 0.03182 0.0
C321 C 0.6603 0.45033 0.03096 0.0
C322 C 0.69914 0.4119 0.96999 0.0
C323 C 0.75443 0.37951 0.00241 0.0
C324 C 0.7322 0.39356 0.00333 0.0
C325 C 0.66569 0.42909 0.00563 0.0
C326 C 0.6889 0.41771 0.00489 0.0
H327 H 0.80585 0.37886 0.04797 0.0
H328 H 0.76976 0.40291 0.04888 0.0
H329 H 0.72798 0.39595 0.9418 0.0
H330 H 0.61396 0.42018 0.96292 0.0
H331 H 0.65221 0.40192 0.96164 0.0
C332 C 0.09115 0.81564 0.20716 0.0
C333 C 0.07526 0.80045 0.18535 0.0
C334 C 0.08426 0.83123 0.23823 0.0
C335 C 0.0336 0.86476 0.27619 0.0
H336 H 0.07112 0.87308 0.36732 0.0
C337 C 0.00486 0.92633 0.40714 0.0
C338 C 0.02095 0.94457 0.42334 0.0
C339 C 0.0112 0.90727 0.37963 0.0
C340 C 0.06054 0.87108 0.34193 0.0
H341 H 0.03985 0.78872 0.17999 0.0
H342 H 0.02783 0.8156 0.23458 0.0
H343 H 0.08261 0.84166 0.31722 0.0
H344 H 0.05639 0.95688 0.42366 0.0
H345 H 0.06741 0.92362 0.37561 0.0
H346 H 0.01155 0.89421 0.30092 0.0
C347 C 0.04555 0.81599 0.22716 0.0
C348 C 0.06712 0.85311 0.3132 0.0
C349 C 0.05243 0.80053 0.19596 0.0
C350 C 0.04357 0.94314 0.41172 0.0
C351 C 0.04992 0.92396 0.38438 0.0
C352 C 0.02696 0.88261 0.30499 0.0
C353 C 0.06133 0.83187 0.24833 0.0
C354 C 0.05382 0.84989 0.27983 0.0
C355 C 0.03379 0.90592 0.3679 0.0
C356 C 0.04045 0.88614 0.33803 0.0
H357 H 0.10881 0.8163 0.19937 0.0
H358 H 0.09683 0.8435 0.25351 0.0
H359 H 0.02314 0.86319 0.25061 0.0
H360 H 0.98731 0.92685 0.41554 0.0
H361 H 0.99844 0.89344 0.36772 0.0
C362 C 0.58281 0.6963 0.7064 0.0
C363 C 0.56619 0.7094 0.68391 0.0
C364 C 0.57671 0.68011 0.73769 0.0
C365 C 0.5282 0.6408 0.77593 0.0
H366 H 0.56554 0.63828 0.86789 0.0
C367 C 0.50296 0.57734 0.90866 0.0
C368 C 0.5201 0.56133 0.92563 0.0
C369 C 0.50816 0.59681 0.88057 0.0
C370 C 0.55504 0.63865 0.84228 0.0
H371 H 0.5302 0.71663 0.6774 0.0
H372 H 0.51951 0.68864 0.73242 0.0
H373 H 0.57517 0.67052 0.81691 0.0
H374 H 0.55618 0.55345 0.92674 0.0
H375 H 0.56523 0.58746 0.87768 0.0
H376 H 0.50809 0.60892 0.80136 0.0
C377 C 0.53725 0.6904 0.72538 0.0
C378 C 0.56056 0.65709 0.81305 0.0
C379 C 0.54336 0.70649 0.69393 0.0
C380 C 0.54258 0.56543 0.91421 0.0
C381 C 0.54779 0.58503 0.88628 0.0
C382 C 0.52262 0.62248 0.80524 0.0
C383 C 0.55384 0.67673 0.74736 0.0
C384 C 0.54732 0.65821 0.77936 0.0
C385 C 0.53062 0.60082 0.86903 0.0
C386 C 0.53609 0.62104 0.83858 0.0
H387 H 0.60052 0.6978 0.69905 0.0
H388 H 0.5899 0.66954 0.75357 0.0
H389 H 0.51785 0.64076 0.75014 0.0
H390 H 0.48547 0.57474 0.91688 0.0
H391 H 0.49461 0.60887 0.86805 0.0
C392 C 0.92182 0.17066 0.17216 0.0
C393 C 0.92976 0.19786 0.16844 0.0
C394 C 0.92814 0.15472 0.20368 0.0
C395 C 0.95434 0.15856 0.30104 0.0
H396 H 0.96351 0.08061 0.2835 0.0
C397 C 0.99595 0.08295 0.41038 0.0
C398 C 0.98335 0.05871 0.41717 0.0
C399 C 0.98954 0.10099 0.38101 0.0
C400 C 0.96092 0.10233 0.28879 0.0
H401 H 0.95024 0.23003 0.19469 0.0
H402 H 0.96211 0.20188 0.2494 0.0
H403 H 0.95242 0.11028 0.23046 0.0
H404 H 0.95424 0.03433 0.39854 0.0
H405 H 0.94345 0.06552 0.34666 0.0
H406 H 0.96365 0.15034 0.35942 0.0
C407 C 0.95052 0.19297 0.22848 0.0
C408 C 0.9544 0.11936 0.25849 0.0
C409 C 0.94384 0.2091 0.19714 0.0
C410 C 0.96427 0.05285 0.39402 0.0
C411 C 0.95813 0.07061 0.36428 0.0
C412 C 0.96125 0.14152 0.33128 0.0
C413 C 0.94295 0.16544 0.23193 0.0
C414 C 0.9507 0.14765 0.26425 0.0
C415 C 0.9707 0.09482 0.35751 0.0
C416 C 0.96432 0.11321 0.32545 0.0
H417 H 0.91068 0.1617 0.15058 0.0
H418 H 0.92139 0.13394 0.2058 0.0
H419 H 0.95142 0.18013 0.30673 0.0
H420 H 0.01068 0.08805 0.42789 0.0
H421 H -0.00045 0.1195 0.37618 0.0
C422 C 0.45053 0.32818 0.66783 0.0
C423 C 0.44202 0.30126 0.67303 0.0
C424 C 0.45666 0.34444 0.69915 0.0
C425 C 0.4461 0.35316 0.80125 0.0
H426 H 0.50047 0.39864 0.79848 0.0
C427 C 0.4643 0.44152 0.90799 0.0
C428 C 0.48661 0.44441 0.92207 0.0
C429 C 0.45915 0.4228 0.87882 0.0
C430 C 0.48533 0.3859 0.79984 0.0
H431 H 0.43365 0.2702 0.71538 0.0
H432 H 0.44424 0.29878 0.7702 0.0
H433 H 0.49152 0.36773 0.74554 0.0
H434 H 0.52096 0.42965 0.91687 0.0
H435 H 0.51193 0.397 0.86609 0.0
H436 H 0.43996 0.37131 0.85565 0.0
C437 C 0.44595 0.30731 0.74177 0.0
C438 C 0.48009 0.3684 0.76936 0.0
C439 C 0.43989 0.29096 0.71038 0.0
C440 C 0.50361 0.42803 0.90656 0.0
C441 C 0.49847 0.4094 0.87734 0.0
C442 C 0.45129 0.37077 0.83169 0.0
C443 C 0.45436 0.33425 0.73647 0.0
C444 C 0.46036 0.35195 0.76962 0.0
C445 C 0.47621 0.40665 0.86304 0.0
C446 C 0.47091 0.38742 0.83123 0.0
H447 H 0.45195 0.337 0.63953 0.0
H448 H 0.46273 0.36528 0.69414 0.0
H449 H 0.43067 0.34091 0.80212 0.0
H450 H 0.4508 0.45382 0.91933 0.0
H451 H 0.44187 0.42136 0.86812 0.0
C452 C 0.54461 0.70419 0.32632 0.0
C453 C 0.56735 0.70821 0.33758 0.0
C454 C 0.539 0.68738 0.29519 0.0
C455 C 0.56094 0.6292 0.24124 0.0
H456 H 0.51501 0.64875 0.16593 0.0
C457 C 0.54355 0.56266 0.10812 0.0
C458 C 0.52089 0.55885 0.09634 0.0
C459 C 0.54927 0.58175 0.13648 0.0
C460 C 0.52769 0.64285 0.18698 0.0
H461 H 0.60204 0.69802 0.32475 0.0
H462 H 0.59227 0.66892 0.27025 0.0
H463 H 0.52487 0.681 0.21703 0.0
H464 H 0.48643 0.57213 0.10511 0.0
H465 H 0.49635 0.60502 0.15518 0.0
H466 H 0.56358 0.59092 0.21181 0.0
C467 C 0.57877 0.67864 0.28562 0.0
C468 C 0.53336 0.66136 0.21617 0.0
C469 C 0.58438 0.69555 0.31656 0.0
C470 C 0.50406 0.57461 0.11349 0.0
C471 C 0.50977 0.59361 0.14202 0.0
C472 C 0.5552 0.61065 0.21224 0.0
C473 C 0.55602 0.67409 0.27489 0.0
C474 C 0.55008 0.65473 0.24356 0.0
C475 C 0.53244 0.59737 0.15392 0.0
C476 C 0.53853 0.61725 0.1847 0.0
H477 H 0.53113 0.71385 0.3418 0.0
H478 H 0.52131 0.68414 0.28771 0.0
H479 H 0.57361 0.6233 0.26234 0.0
H480 H 0.55695 0.55099 0.09528 0.0
H481 H 0.56694 0.58443 0.14449 0.0
C482 C 0.95393 0.20799 0.81232 0.0
C483 C 0.93116 0.21051 0.82264 0.0
C484 C 0.95979 0.19185 0.78115 0.0
C485 C 0.93903 0.13249 0.72618 0.0
H486 H 0.98523 0.154 0.6543 0.0
C487 C 0.95981 0.06485 0.5971 0.0
C488 C 0.98272 0.0623 0.58771 0.0
C489 C 0.95318 0.08417 0.62401 0.0
C490 C 0.97247 0.14757 0.67439 0.0
H491 H 0.89665 0.19859 0.80784 0.0
H492 H 0.90686 0.17061 0.75321 0.0
H493 H 0.97418 0.18617 0.70386 0.0
H494 H 0.01664 0.07812 0.59911 0.0
H495 H 0.00513 0.11142 0.64669 0.0
H496 H 0.93756 0.09374 0.69746 0.0
C497 C 0.92019 0.18098 0.7694 0.0
C498 C 0.9661 0.16603 0.70268 0.0
C499 C 0.91432 0.19724 0.80042 0.0
C500 C 0.99885 0.0796 0.60567 0.0
C501 C 0.99222 0.09884 0.63276 0.0
C502 C 0.94546 0.11399 0.69808 0.0
C503 C 0.943 0.17775 0.75981 0.0
C504 C 0.94933 0.15866 0.7289 0.0
C505 C 0.96931 0.1013 0.64235 0.0
C506 C 0.96228 0.12126 0.67186 0.0
H507 H 0.96726 0.21817 0.82873 0.0
H508 H 0.97752 0.18965 0.77458 0.0
H509 H 0.92634 0.12602 0.74641 0.0
H510 H 0.94693 0.05198 0.58357 0.0
H511 H 0.93536 0.08581 0.63022 0.0
C512 C 0.42244 0.30386 0.30717 0.0
C513 C 0.43886 0.28978 0.32891 0.0
C514 C 0.42872 0.32003 0.27595 0.0
C515 C 0.47797 0.35792 0.23815 0.0
H516 H 0.44004 0.36426 0.14726 0.0
C517 C 0.50369 0.4244 0.10849 0.0
C518 C 0.48676 0.44123 0.09253 0.0
C519 C 0.49828 0.40434 0.13567 0.0
C520 C 0.45072 0.36282 0.17259 0.0
H521 H 0.4746 0.28057 0.33391 0.0
H522 H 0.48557 0.30855 0.27906 0.0
H523 H 0.42995 0.33108 0.19684 0.0
H524 H 0.45082 0.45001 0.09237 0.0
H525 H 0.44143 0.41506 0.13992 0.0
H526 H 0.49867 0.38974 0.21395 0.0
C527 C 0.46789 0.30758 0.28665 0.0
C528 C 0.44495 0.34383 0.20099 0.0
C529 C 0.46161 0.29149 0.31799 0.0
C530 C 0.46427 0.43741 0.10413 0.0
C531 C 0.45886 0.41726 0.13117 0.0
C532 C 0.48379 0.37681 0.20968 0.0
C533 C 0.45156 0.32241 0.26564 0.0
C534 C 0.45839 0.34133 0.23429 0.0
C535 C 0.47581 0.40057 0.14732 0.0
C536 C 0.47011 0.37966 0.17676 0.0
H537 H 0.40482 0.30328 0.31519 0.0
H538 H 0.41574 0.33147 0.26078 0.0
H539 H 0.48849 0.3569 0.26369 0.0
H540 H 0.52117 0.42674 0.10008 0.0
H541 H 0.51167 0.39161 0.14734 0.0
C542 C 0.09013 0.81806 0.8169 0.0
C543 C 0.07378 0.80447 0.83902 0.0
C544 C 0.08362 0.83433 0.78575 0.0
C545 C 0.03685 0.8478 0.71765 0.0
H546 H 0.06515 0.92006 0.70956 0.0
C547 C 0.00442 0.93104 0.61213 0.0
C548 C 0.02069 0.94765 0.594 0.0
C549 C 0.01083 0.91284 0.64129 0.0
C550 C 0.05729 0.89982 0.71102 0.0
H551 H 0.03783 0.79653 0.84504 0.0
H552 H 0.02643 0.8251 0.79057 0.0
H553 H 0.07662 0.88906 0.76093 0.0
H554 H 0.05651 0.9578 0.59178 0.0
H555 H 0.06771 0.92575 0.64202 0.0
H556 H 0.01762 0.85849 0.66756 0.0
C557 C 0.04429 0.82309 0.79735 0.0
C558 C 0.06386 0.88206 0.74052 0.0
C559 C 0.0508 0.80694 0.8287 0.0
C560 C 0.04352 0.94546 0.60538 0.0
C561 C 0.04993 0.92717 0.63435 0.0
C562 C 0.03036 0.86552 0.68795 0.0
C563 C 0.06063 0.83728 0.7759 0.0
C564 C 0.05372 0.85587 0.74417 0.0
C565 C 0.03366 0.91074 0.65283 0.0
C566 C 0.04051 0.89176 0.68429 0.0
H567 H 0.10796 0.81678 0.82433 0.0
H568 H 0.09661 0.84478 0.76949 0.0
H569 H 0.0289 0.82763 0.71955 0.0
H570 H 0.98668 0.93228 0.60408 0.0
H571 H 0.99782 0.90076 0.65522 0.0
loop_
_geom_bond_atom_site_label_1
_geom_bond_atom_site_label_2
_geom_bond_distance
_geom_bond_site_symmetry_2
_ccdc_geom_bond_type
C0 C1 1.384 . S
C0 H13 0.947 . S
C0 C35 1.382 . S
C1 C0 1.384 . S
C1 C2 1.378 . S
C2 C1 1.378 . S
C2 C3 1.378 . S
C2 H14 0.952 . S
C3 C2 1.378 . S
C3 H15 0.950 . S
C3 C34 1.383 . S
H4 C23 0.947 . S
H5 C24 0.946 . S
H6 C26 0.953 . S
H7 C27 0.945 . S
H8 C29 0.952 . S
H9 C30 0.949 . S
H10 C32 0.950 . S
H11 C33 0.948 . S
H12 C35 0.951 . S
H13 C0 0.947 . S
H14 C2 0.952 . S
H15 C3 0.950 . S
N16 C19 1.382 . S
N16 C21 1.363 . S
N17 C19 1.371 1_556 S
N17 C20 1.372 . S
N18 C20 1.361 1_554 S
N18 C21 1.377 . S
C19 N16 1.382 . S
C19 N17 1.371 1_554 S
C19 C22 1.480 . S
C20 N17 1.372 . S
C20 N18 1.361 1_556 S
C20 C28 1.457 . S
C21 N16 1.363 . S
C21 N18 1.377 . S
C21 C34 1.479 . S
C22 C19 1.480 . S
C22 C23 1.383 . S
C22 C27 1.385 1_554 S
C23 H4 0.947 . S
C23 C22 1.383 . S
C23 C24 1.388 . S
C24 H5 0.946 . S
C24 C23 1.388 . S
C24 C25 1.384 . S
C25 C24 1.384 . S
C25 C26 1.377 1_554 S
C26 H6 0.953 . S
C26 C25 1.377 1_556 S
C26 C27 1.369 . S
C27 H7 0.945 . S
C27 C22 1.385 1_556 S
C27 C26 1.369 . S
C28 C20 1.457 . S
C28 C29 1.372 . S
C28 C33 1.364 . S
C29 H8 0.952 . S
C29 C28 1.372 . S
C29 C30 1.389 . S
C30 H9 0.949 . S
C30 C29 1.389 . S
C30 C31 1.387 . S
C31 C30 1.387 . S
C31 C32 1.372 . S
C32 H10 0.950 . S
C32 C31 1.372 . S
C32 C33 1.379 . S
C33 H11 0.948 . S
C33 C28 1.364 . S
C33 C32 1.379 . S
C34 C3 1.383 . S
C34 C21 1.479 . S
C34 C35 1.398 . S
C35 C0 1.382 . S
C35 H12 0.951 . S
C35 C34 1.398 . S
C36 C37 1.384 . S
C36 H49 0.947 . S
C36 C71 1.382 . S
C37 C36 1.384 . S
C37 C38 1.378 . S
C38 C37 1.378 . S
C38 C39 1.378 . S
C38 H50 0.952 . S
C39 C38 1.378 . S
C39 H51 0.950 . S
C39 C70 1.383 . S
H40 C59 0.947 . S
H41 C60 0.946 . S
H42 C62 0.953 . S
H43 C63 0.945 . S
H44 C65 0.952 . S
H45 C66 0.949 . S
H46 C68 0.950 . S
H47 C69 0.948 . S
H48 C71 0.951 . S
H49 C36 0.947 . S
H50 C38 0.952 . S
H51 C39 0.950 . S
N52 C55 1.382 . S
N52 C57 1.363 . S
N53 C55 1.371 . S
N53 C56 1.372 . S
N54 C56 1.361 . S
N54 C57 1.377 . S
C55 N52 1.382 . S
C55 N53 1.371 . S
C55 C58 1.480 . S
C56 N53 1.372 . S
C56 N54 1.361 . S
C56 C64 1.457 . S
C57 N52 1.363 . S
C57 N54 1.377 . S
C57 C70 1.479 . S
C58 C55 1.480 . S
C58 C59 1.383 . S
C58 C63 1.385 . S
C59 H40 0.947 . S
C59 C58 1.383 . S
C59 C60 1.388 . S
C60 H41 0.946 . S
C60 C59 1.388 . S
C60 C61 1.384 . S
C61 C60 1.384 . S
C61 C62 1.377 . S
C62 H42 0.953 . S
C62 C61 1.377 . S
C62 C63 1.369 . S
C63 H43 0.945 . S
C63 C58 1.385 . S
C63 C62 1.369 . S
C64 C56 1.457 . S
C64 C65 1.372 . S
C64 C69 1.364 . S
C65 H44 0.952 . S
C65 C64 1.372 . S
C65 C66 1.389 . S
C66 H45 0.949 . S
C66 C65 1.389 . S
C66 C67 1.387 . S
C67 C66 1.387 . S
C67 C68 1.372 . S
C68 H46 0.950 . S
C68 C67 1.372 . S
C68 C69 1.379 . S
C69 H47 0.948 . S
C69 C64 1.364 . S
C69 C68 1.379 . S
C70 C39 1.383 . S
C70 C57 1.479 . S
C70 C71 1.398 . S
C71 C36 1.382 . S
C71 H48 0.951 . S
C71 C70 1.398 . S
C72 C73 1.384 . S
C72 H85 0.947 . S
C72 C107 1.382 . S
C73 C72 1.384 . S
C73 C74 1.378 . S
C74 C73 1.378 . S
C74 C75 1.378 . S
C74 H86 0.952 . S
C75 C74 1.378 . S
C75 H87 0.950 . S
C75 C106 1.383 . S
H76 C95 0.947 . S
H77 C96 0.946 . S
H78 C98 0.953 . S
H79 C99 0.945 . S
H80 C101 0.952 . S
H81 C102 0.949 . S
H82 C104 0.950 . S
H83 C105 0.948 . S
H84 C107 0.951 . S
H85 C72 0.947 . S
H86 C74 0.952 . S
H87 C75 0.950 . S
N88 C91 1.382 1_556 S
N88 C93 1.363 . S
N89 C91 1.371 . S
N89 C92 1.372 . S
N90 C92 1.361 . S
N90 C93 1.377 1_554 S
C91 N88 1.382 1_554 S
C91 N89 1.371 . S
C91 C94 1.480 . S
C92 N89 1.372 . S
C92 N90 1.361 . S
C92 C100 1.457 . S
C93 N88 1.363 . S
C93 N90 1.377 1_556 S
C93 C106 1.479 . S
C94 C91 1.480 . S
C94 C95 1.383 1_554 S
C94 C99 1.385 . S
C95 H76 0.947 . S
C95 C94 1.383 1_556 S
C95 C96 1.388 . S
C96 H77 0.946 . S
C96 C95 1.388 . S
C96 C97 1.384 1_556 S
C97 C96 1.384 1_554 S
C97 C98 1.377 . S
C98 H78 0.953 . S
C98 C97 1.377 . S
C98 C99 1.369 . S
C99 H79 0.945 . S
C99 C94 1.385 . S
C99 C98 1.369 . S
C100 C92 1.457 . S
C100 C101 1.372 . S
C100 C105 1.364 . S
C101 H80 0.952 . S
C101 C100 1.372 . S
C101 C102 1.389 . S
C102 H81 0.949 . S
C102 C101 1.389 . S
C102 C103 1.387 . S
C103 C102 1.387 . S
C103 C104 1.372 . S
C104 H82 0.950 . S
C104 C103 1.372 . S
C104 C105 1.379 . S
C105 H83 0.948 . S
C105 C100 1.364 . S
C105 C104 1.379 . S
C106 C75 1.383 . S
C106 C93 1.479 . S
C106 C107 1.398 . S
C107 C72 1.382 . S
C107 H84 0.951 . S
C107 C106 1.398 . S
C108 C109 1.384 . S
C108 H121 0.947 . S
C108 C143 1.382 . S
C109 C108 1.384 . S
C109 C110 1.378 . S
C110 C109 1.378 . S
C110 C111 1.378 . S
C110 H122 0.952 . S
C111 C110 1.378 . S
C111 H123 0.950 . S
C111 C142 1.383 . S
H112 C131 0.947 . S
H113 C132 0.946 . S
H114 C134 0.953 . S
H115 C135 0.945 . S
H116 C137 0.952 . S
H117 C138 0.949 . S
H118 C140 0.950 . S
H119 C141 0.948 . S
H120 C143 0.951 . S
H121 C108 0.947 . S
H122 C110 0.952 . S
H123 C111 0.950 . S
N124 C127 1.382 . S
N124 C129 1.363 . S
N125 C127 1.371 . S
N125 C128 1.372 . S
N126 C128 1.361 . S
N126 C129 1.377 . S
C127 N124 1.382 . S
C127 N125 1.371 . S
C127 C130 1.480 . S
C128 N125 1.372 . S
C128 N126 1.361 . S
C128 C136 1.457 . S
C129 N124 1.363 . S
C129 N126 1.377 . S
C129 C142 1.479 . S
C130 C127 1.480 . S
C130 C131 1.383 . S
C130 C135 1.385 . S
C131 H112 0.947 . S
C131 C130 1.383 . S
C131 C132 1.388 . S
C132 H113 0.946 . S
C132 C131 1.388 . S
C132 C133 1.384 . S
C133 C132 1.384 . S
C133 C134 1.377 . S
C134 H114 0.953 . S
C134 C133 1.377 . S
C134 C135 1.369 . S
C135 H115 0.945 . S
C135 C130 1.385 . S
C135 C134 1.369 . S
C136 C128 1.457 . S
C136 C137 1.372 . S
C136 C141 1.364 . S
C137 H116 0.952 . S
C137 C136 1.372 . S
C137 C138 1.389 . S
C138 H117 0.949 . S
C138 C137 1.389 . S
C138 C139 1.387 . S
C139 C138 1.387 . S
C139 C140 1.372 . S
C140 H118 0.950 . S
C140 C139 1.372 . S
C140 C141 1.379 . S
C141 H119 0.948 . S
C141 C136 1.364 . S
C141 C140 1.379 . S
C142 C111 1.383 . S
C142 C129 1.479 . S
C142 C143 1.398 . S
C143 C108 1.382 . S
C143 H120 0.951 . S
C143 C142 1.398 . S
C144 O160 1.251 . S
C144 O162 1.254 1_455 S
N145 C146 1.333 . S
N145 C150 1.307 . S
N145 Zn151 2.020 . S
C146 N145 1.333 . S
C146 C147 1.379 . S
C146 H164 0.952 . S
C147 C146 1.379 . S
C147 C148 1.390 . S
C147 H174 0.949 . S
C148 C147 1.390 . S
C148 C149 1.357 . S
C149 C148 1.357 . S
C149 C150 1.370 . S
C149 H175 0.950 . S
C150 N145 1.307 . S
C150 C149 1.370 . S
C150 H168 0.948 . S
Zn151 N145 2.020 . S
Zn151 O160 2.039 1_545 S
Zn151 O166 2.034 1_545 S
Zn151 O170 2.025 . S
Zn151 O172 2.024 . S
C152 O171 1.246 . S
C152 O172 1.249 1_655 S
N153 C154 1.307 . S
N153 C155 1.333 . S
N153 Zn159 2.020 . S
C154 N153 1.307 . S
C154 C158 1.370 . S
C154 H165 0.948 . S
C155 N153 1.333 . S
C155 C156 1.379 . S
C155 H163 0.952 1_565 S
C156 C155 1.379 . S
C156 C157 1.390 . S
C156 H176 0.949 . S
C157 C156 1.390 . S
C157 C158 1.357 . S
C158 C154 1.370 . S
C158 C157 1.357 . S
C158 H177 0.950 . S
Zn159 N153 2.020 . S
Zn159 O162 2.025 . S
Zn159 O167 2.024 . S
Zn159 O169 2.039 1_565 S
Zn159 O171 2.034 1_565 S
O160 C144 1.251 . S
O160 Zn151 2.039 1_565 S
C161 O166 1.246 . S
C161 O167 1.249 1_455 S
O162 C144 1.254 1_655 S
O162 Zn159 2.025 . S
H163 C155 0.952 1_545 S
H164 C146 0.952 . S
H165 C154 0.948 . S
O166 Zn151 2.034 1_565 S
O166 C161 1.246 . S
O167 Zn159 2.024 . S
O167 C161 1.249 1_655 S
H168 C150 0.948 . S
O169 Zn159 2.039 1_545 S
O169 C173 1.251 . S
O170 Zn151 2.025 . S
O170 C173 1.254 1_455 S
O171 C152 1.246 . S
O171 Zn159 2.034 1_545 S
O172 Zn151 2.024 . S
O172 C152 1.249 1_455 S
C173 O169 1.251 . S
C173 O170 1.254 1_655 S
H174 C147 0.949 . S
H175 C149 0.950 . S
H176 C156 0.949 . S
H177 C158 0.950 . S
C178 O194 1.251 . S
C178 O196 1.254 . S
N179 C180 1.333 1_554 S
N179 C184 1.307 . S
N179 Zn185 2.020 . S
C180 N179 1.333 1_556 S
C180 C181 1.379 . S
C180 H198 0.952 . S
C181 C180 1.379 . S
C181 C182 1.390 1_556 S
C181 H208 0.949 . S
C182 C181 1.390 1_554 S
C182 C183 1.357 . S
C183 C182 1.357 . S
C183 C184 1.370 . S
C183 H209 0.950 . S
C184 N179 1.307 . S
C184 C183 1.370 . S
C184 H202 0.948 . S
Zn185 N179 2.020 . S
Zn185 O194 2.039 1_554 S
Zn185 O200 2.034 . S
Zn185 O204 2.025 . S
Zn185 O206 2.024 1_554 S
C186 O205 1.246 . S
C186 O206 1.249 . S
N187 C188 1.307 1_554 S
N187 C189 1.333 . S
N187 Zn193 2.020 . S
C188 N187 1.307 1_556 S
C188 C192 1.370 . S
C188 H199 0.948 . S
C189 N187 1.333 . S
C189 C190 1.379 . S
C189 H197 0.952 . S
C190 C189 1.379 . S
C190 C191 1.390 . S
C190 H210 0.949 . S
C191 C190 1.390 . S
C191 C192 1.357 1_554 S
C192 C188 1.370 . S
C192 C191 1.357 1_556 S
C192 H211 0.950 . S
Zn193 N187 2.020 . S
Zn193 O196 2.025 1_554 S
Zn193 O201 2.024 . S
Zn193 O203 2.039 . S
Zn193 O205 2.034 1_554 S
O194 C178 1.251 . S
O194 Zn185 2.039 1_556 S
C195 O200 1.246 . S
C195 O201 1.249 . S
O196 C178 1.254 . S
O196 Zn193 2.025 1_556 S
H197 C189 0.952 . S
H198 C180 0.952 . S
H199 C188 0.948 . S
O200 Zn185 2.034 . S
O200 C195 1.246 . S
O201 Zn193 2.024 . S
O201 C195 1.249 . S
H202 C184 0.948 . S
O203 Zn193 2.039 . S
O203 C207 1.251 . S
O204 Zn185 2.025 . S
O204 C207 1.254 . S
O205 C186 1.246 . S
O205 Zn193 2.034 1_556 S
O206 Zn185 2.024 1_556 S
O206 C186 1.249 . S
C207 O203 1.251 . S
C207 O204 1.254 . S
H208 C181 0.949 . S
H209 C183 0.950 . S
H210 C190 0.949 . S
H211 C192 0.950 . S
C212 C213 1.349 . S
C212 C214 1.327 . S
C212 H237 0.950 . S
C213 C212 1.349 . S
C213 C229 1.349 . S
C214 C212 1.327 . S
C214 C233 1.429 . S
C214 H238 0.950 . S
C215 C232 1.574 . S
C215 C234 1.368 . S
C215 H239 0.949 . S
H216 C220 0.949 . S
C217 C218 1.349 . S
C217 C219 1.327 . S
C217 H240 0.950 . S
C218 C217 1.349 . S
C218 C230 1.349 . S
C219 C217 1.327 . S
C219 C235 1.429 . S
C219 H241 0.950 . S
C220 H216 0.949 . S
C220 C228 1.574 . S
C220 C236 1.368 . S
H221 C229 0.950 . S
H222 C227 0.950 . S
H223 C228 0.949 . S
H224 C230 0.950 . S
H225 C231 0.950 . S
H226 C232 0.949 . S
C227 H222 0.950 . S
C227 C229 1.327 . S
C227 C233 1.429 . S
C228 C220 1.574 . S
C228 H223 0.949 . S
C228 C234 1.368 . S
C229 C213 1.349 . S
C229 H221 0.950 . S
C229 C227 1.327 . S
C230 C218 1.349 . S
C230 H224 0.950 . S
C230 C231 1.327 . S
C231 H225 0.950 . S
C231 C230 1.327 . S
C231 C235 1.429 . S
C232 C215 1.574 . S
C232 H226 0.949 . S
C232 C236 1.368 . S
C233 C214 1.429 . S
C233 C227 1.429 . S
C233 C234 1.523 . S
C234 C215 1.368 . S
C234 C228 1.368 . S
C234 C233 1.523 . S
C235 C219 1.429 . S
C235 C231 1.429 . S
C235 C236 1.523 . S
C236 C220 1.368 . S
C236 C232 1.368 . S
C236 C235 1.523 . S
H237 C212 0.950 . S
H238 C214 0.950 . S
H239 C215 0.949 . S
H240 C217 0.950 . S
H241 C219 0.950 . S
C242 C243 1.349 1_556 S
C242 C244 1.327 . S
C242 H267 0.950 . S
C243 C242 1.349 1_554 S
C243 C259 1.349 . S
C244 C242 1.327 . S
C244 C263 1.429 1_556 S
C244 H268 0.950 . S
C245 C262 1.574 . S
C245 C264 1.368 . S
C245 H269 0.949 . S
H246 C250 0.949 . S
C247 C248 1.349 . S
C247 C249 1.327 . S
C247 H270 0.950 . S
C248 C247 1.349 . S
C248 C260 1.349 1_554 S
C249 C247 1.327 . S
C249 C265 1.429 . S
C249 H271 0.950 . S
C250 H246 0.949 . S
C250 C258 1.574 . S
C250 C266 1.368 1_556 S
H251 C259 0.950 . S
H252 C257 0.950 . S
H253 C258 0.949 . S
H254 C260 0.950 . S
H255 C261 0.950 . S
H256 C262 0.949 . S
C257 H252 0.950 . S
C257 C259 1.327 . S
C257 C263 1.429 . S
C258 C250 1.574 . S
C258 H253 0.949 . S
C258 C264 1.368 1_556 S
C259 C243 1.349 . S
C259 H251 0.950 . S
C259 C257 1.327 . S
C260 C248 1.349 1_556 S
C260 H254 0.950 . S
C260 C261 1.327 . S
C261 H255 0.950 . S
C261 C260 1.327 . S
C261 C265 1.429 1_556 S
C262 C245 1.574 . S
C262 H256 0.949 . S
C262 C266 1.368 . S
C263 C244 1.429 1_554 S
C263 C257 1.429 . S
C263 C264 1.523 . S
C264 C245 1.368 . S
C264 C258 1.368 1_554 S
C264 C263 1.523 . S
C265 C249 1.429 . S
C265 C261 1.429 1_554 S
C265 C266 1.523 . S
C266 C250 1.368 1_554 S
C266 C262 1.368 . S
C266 C265 1.523 . S
H267 C242 0.950 . S
H268 C244 0.950 . S
H269 C245 0.949 . S
H270 C247 0.950 . S
H271 C249 0.950 . S
C272 C273 1.349 . S
C272 C274 1.327 . S
C272 H297 0.950 . S
C273 C272 1.349 . S
C273 C289 1.349 . S
C274 C272 1.327 . S
C274 C293 1.429 . S
C274 H298 0.950 . S
C275 C292 1.574 . S
C275 C294 1.368 . S
C275 H299 0.949 . S
H276 C280 0.949 . S
C277 C278 1.349 . S
C277 C279 1.327 . S
C277 H300 0.950 . S
C278 C277 1.349 . S
C278 C290 1.349 . S
C279 C277 1.327 . S
C279 C295 1.429 . S
C279 H301 0.950 . S
C280 H276 0.949 . S
C280 C288 1.574 . S
C280 C296 1.368 . S
H281 C289 0.950 . S
H282 C287 0.950 . S
H283 C288 0.949 . S
H284 C290 0.950 . S
H285 C291 0.950 . S
H286 C292 0.949 . S
C287 H282 0.950 . S
C287 C289 1.327 . S
C287 C293 1.429 . S
C288 C280 1.574 . S
C288 H283 0.949 . S
C288 C294 1.368 . S
C289 C273 1.349 . S
C289 H281 0.950 . S
C289 C287 1.327 . S
C290 C278 1.349 . S
C290 H284 0.950 . S
C290 C291 1.327 . S
C291 H285 0.950 . S
C291 C290 1.327 . S
C291 C295 1.429 . S
C292 C275 1.574 . S
C292 H286 0.949 . S
C292 C296 1.368 . S
C293 C274 1.429 . S
C293 C287 1.429 . S
C293 C294 1.523 . S
C294 C275 1.368 . S
C294 C288 1.368 . S
C294 C293 1.523 . S
C295 C279 1.429 . S
C295 C291 1.429 . S
C295 C296 1.523 . S
C296 C280 1.368 . S
C296 C292 1.368 . S
C296 C295 1.523 . S
H297 C272 0.950 . S
H298 C274 0.950 . S
H299 C275 0.949 . S
H300 C277 0.950 . S
H301 C279 0.950 . S
C302 C303 1.349 . S
C302 C304 1.327 . S
C302 H327 0.950 . S
C303 C302 1.349 . S
C303 C319 1.349 1_554 S
C304 C302 1.327 . S
C304 C323 1.429 . S
C304 H328 0.950 . S
C305 C322 1.574 . S
C305 C324 1.368 1_556 S
C305 H329 0.949 . S
H306 C310 0.949 . S
C307 C308 1.349 1_556 S
C307 C309 1.327 . S
C307 H330 0.950 . S
C308 C307 1.349 1_554 S
C308 C320 1.349 . S
C309 C307 1.327 . S
C309 C325 1.429 1_556 S
C309 H331 0.950 . S
C310 H306 0.949 . S
C310 C318 1.574 . S
C310 C326 1.368 . S
H311 C319 0.950 . S
H312 C317 0.950 . S
H313 C318 0.949 . S
H314 C320 0.950 . S
H315 C321 0.950 . S
H316 C322 0.949 . S
C317 H312 0.950 . S
C317 C319 1.327 . S
C317 C323 1.429 1_556 S
C318 C310 1.574 . S
C318 H313 0.949 . S
C318 C324 1.368 . S
C319 C303 1.349 1_556 S
C319 H311 0.950 . S
C319 C317 1.327 . S
C320 C308 1.349 . S
C320 H314 0.950 . S
C320 C321 1.327 . S
C321 H315 0.950 . S
C321 C320 1.327 . S
C321 C325 1.429 . S
C322 C305 1.574 . S
C322 H316 0.949 . S
C322 C326 1.368 1_556 S
C323 C304 1.429 . S
C323 C317 1.429 1_554 S
C323 C324 1.523 . S
C324 C305 1.368 1_554 S
C324 C318 1.368 . S
C324 C323 1.523 . S
C325 C309 1.429 1_554 S
C325 C321 1.429 . S
C325 C326 1.523 . S
C326 C310 1.368 . S
C326 C322 1.368 1_554 S
C326 C325 1.523 . S
H327 C302 0.950 . S
H328 C304 0.950 . S
H329 C305 0.949 . S
H330 C307 0.950 . S
H331 C309 0.950 . S
C332 C333 1.349 . S
C332 C334 1.327 . S
C332 H357 0.950 . S
C333 C332 1.349 . S
C333 C349 1.349 . S
C334 C332 1.327 . S
C334 C353 1.429 . S
C334 H358 0.950 . S
C335 C352 1.574 . S
C335 C354 1.368 . S
C335 H359 0.949 . S
H336 C340 0.949 . S
C337 C338 1.349 . S
C337 C339 1.327 . S
C337 H360 0.950 1_455 S
C338 C337 1.349 . S
C338 C350 1.349 . S
C339 C337 1.327 . S
C339 C355 1.429 . S
C339 H361 0.950 . S
C340 H336 0.949 . S
C340 C348 1.574 . S
C340 C356 1.368 . S
H341 C349 0.950 . S
H342 C347 0.950 . S
H343 C348 0.949 . S
H344 C350 0.950 . S
H345 C351 0.950 . S
H346 C352 0.949 . S
C347 H342 0.950 . S
C347 C349 1.327 . S
C347 C353 1.429 . S
C348 C340 1.574 . S
C348 H343 0.949 . S
C348 C354 1.368 . S
C349 C333 1.349 . S
C349 H341 0.950 . S
C349 C347 1.327 . S
C350 C338 1.349 . S
C350 H344 0.950 . S
C350 C351 1.327 . S
C351 H345 0.950 . S
C351 C350 1.327 . S
C351 C355 1.429 . S
C352 C335 1.574 . S
C352 H346 0.949 . S
C352 C356 1.368 . S
C353 C334 1.429 . S
C353 C347 1.429 . S
C353 C354 1.523 . S
C354 C335 1.368 . S
C354 C348 1.368 . S
C354 C353 1.523 . S
C355 C339 1.429 . S
C355 C351 1.429 . S
C355 C356 1.523 . S
C356 C340 1.368 . S
C356 C352 1.368 . S
C356 C355 1.523 . S
H357 C332 0.950 . S
H358 C334 0.950 . S
H359 C335 0.949 . S
H360 C337 0.950 1_655 S
H361 C339 0.950 . S
C362 C363 1.349 . S
C362 C364 1.327 . S
C362 H387 0.950 . S
C363 C362 1.349 . S
C363 C379 1.349 . S
C364 C362 1.327 . S
C364 C383 1.429 . S
C364 H388 0.950 . S
C365 C382 1.574 . S
C365 C384 1.368 . S
C365 H389 0.949 . S
H366 C370 0.949 . S
C367 C368 1.349 . S
C367 C369 1.327 . S
C367 H390 0.950 . S
C368 C367 1.349 . S
C368 C380 1.349 . S
C369 C367 1.327 . S
C369 C385 1.429 . S
C369 H391 0.950 . S
C370 H366 0.949 . S
C370 C378 1.574 . S
C370 C386 1.368 . S
H371 C379 0.950 . S
H372 C377 0.950 . S
H373 C378 0.949 . S
H374 C380 0.950 . S
H375 C381 0.950 . S
H376 C382 0.949 . S
C377 H372 0.950 . S
C377 C379 1.327 . S
C377 C383 1.429 . S
C378 C370 1.574 . S
C378 H373 0.949 . S
C378 C384 1.368 . S
C379 C363 1.349 . S
C379 H371 0.950 . S
C379 C377 1.327 . S
C380 C368 1.349 . S
C380 H374 0.950 . S
C380 C381 1.327 . S
C381 H375 0.950 . S
C381 C380 1.327 . S
C381 C385 1.429 . S
C382 C365 1.574 . S
C382 H376 0.949 . S
C382 C386 1.368 . S
C383 C364 1.429 . S
C383 C377 1.429 . S
C383 C384 1.523 . S
C384 C365 1.368 . S
C384 C378 1.368 . S
C384 C383 1.523 . S
C385 C369 1.429 . S
C385 C381 1.429 . S
C385 C386 1.523 . S
C386 C370 1.368 . S
C386 C382 1.368 . S
C386 C385 1.523 . S
H387 C362 0.950 . S
H388 C364 0.950 . S
H389 C365 0.949 . S
H390 C367 0.950 . S
H391 C369 0.950 . S
C392 C393 1.349 . S
C392 C394 1.327 . S
C392 H417 0.950 . S
C393 C392 1.349 . S
C393 C409 1.349 . S
C394 C392 1.327 . S
C394 C413 1.429 . S
C394 H418 0.950 . S
C395 C412 1.574 . S
C395 C414 1.368 . S
C395 H419 0.949 . S
H396 C400 0.949 . S
C397 C398 1.349 . S
C397 C399 1.327 . S
C397 H420 0.950 . S
C398 C397 1.349 . S
C398 C410 1.349 . S
C399 C397 1.327 . S
C399 C415 1.429 . S
C399 H421 0.950 . S
C400 H396 0.949 . S
C400 C408 1.574 . S
C400 C416 1.368 . S
H401 C409 0.950 . S
H402 C407 0.950 . S
H403 C408 0.949 . S
H404 C410 0.950 . S
H405 C411 0.950 . S
H406 C412 0.949 . S
C407 H402 0.950 . S
C407 C409 1.327 . S
C407 C413 1.429 . S
C408 C400 1.574 . S
C408 H403 0.949 . S
C408 C414 1.368 . S
C409 C393 1.349 . S
C409 H401 0.950 . S
C409 C407 1.327 . S
C410 C398 1.349 . S
C410 H404 0.950 . S
C410 C411 1.327 . S
C411 H405 0.950 . S
C411 C410 1.327 . S
C411 C415 1.429 . S
C412 C395 1.574 . S
C412 H406 0.949 . S
C412 C416 1.368 . S
C413 C394 1.429 . S
C413 C407 1.429 . S
C413 C414 1.523 . S
C414 C395 1.368 . S
C414 C408 1.368 . S
C414 C413 1.523 . S
C415 C399 1.429 . S
C415 C411 1.429 . S
C415 C416 1.523 . S
C416 C400 1.368 . S
C416 C412 1.368 . S
C416 C415 1.523 . S
H417 C392 0.950 . S
H418 C394 0.950 . S
H419 C395 0.949 . S
H420 C397 0.950 . S
H421 C399 0.950 . S
C422 C423 1.349 . S
C422 C424 1.327 . S
C422 H447 0.950 . S
C423 C422 1.349 . S
C423 C439 1.349 . S
C424 C422 1.327 . S
C424 C443 1.429 . S
C424 H448 0.950 . S
C425 C442 1.574 . S
C425 C444 1.368 . S
C425 H449 0.949 . S
H426 C430 0.949 . S
C427 C428 1.349 . S
C427 C429 1.327 . S
C427 H450 0.950 . S
C428 C427 1.349 . S
C428 C440 1.349 . S
C429 C427 1.327 . S
C429 C445 1.429 . S
C429 H451 0.950 . S
C430 H426 0.949 . S
C430 C438 1.574 . S
C430 C446 1.368 . S
H431 C439 0.950 . S
H432 C437 0.950 . S
H433 C438 0.949 . S
H434 C440 0.950 . S
H435 C441 0.950 . S
H436 C442 0.949 . S
C437 H432 0.950 . S
C437 C439 1.327 . S
C437 C443 1.429 . S
C438 C430 1.574 . S
C438 H433 0.949 . S
C438 C444 1.368 . S
C439 C423 1.349 . S
C439 H431 0.950 . S
C439 C437 1.327 . S
C440 C428 1.349 . S
C440 H434 0.950 . S
C440 C441 1.327 . S
C441 H435 0.950 . S
C441 C440 1.327 . S
C441 C445 1.429 . S
C442 C425 1.574 . S
C442 H436 0.949 . S
C442 C446 1.368 . S
C443 C424 1.429 . S
C443 C437 1.429 . S
C443 C444 1.523 . S
C444 C425 1.368 . S
C444 C438 1.368 . S
C444 C443 1.523 . S
C445 C429 1.429 . S
C445 C441 1.429 . S
C445 C446 1.523 . S
C446 C430 1.368 . S
C446 C442 1.368 . S
C446 C445 1.523 . S
H447 C422 0.950 . S
H448 C424 0.950 . S
H449 C425 0.949 . S
H450 C427 0.950 . S
H451 C429 0.950 . S
C452 C453 1.349 . S
C452 C454 1.327 . S
C452 H477 0.950 . S
C453 C452 1.349 . S
C453 C469 1.349 . S
C454 C452 1.327 . S
C454 C473 1.429 . S
C454 H478 0.950 . S
C455 C472 1.574 . S
C455 C474 1.368 . S
C455 H479 0.949 . S
H456 C460 0.949 . S
C457 C458 1.349 . S
C457 C459 1.327 . S
C457 H480 0.950 . S
C458 C457 1.349 . S
C458 C470 1.349 . S
C459 C457 1.327 . S
C459 C475 1.429 . S
C459 H481 0.950 . S
C460 H456 0.949 . S
C460 C468 1.574 . S
C460 C476 1.368 . S
H461 C469 0.950 . S
H462 C467 0.950 . S
H463 C468 0.949 . S
H464 C470 0.950 . S
H465 C471 0.950 . S
H466 C472 0.949 . S
C467 H462 0.950 . S
C467 C469 1.327 . S
C467 C473 1.429 . S
C468 C460 1.574 . S
C468 H463 0.949 . S
C468 C474 1.368 . S
C469 C453 1.349 . S
C469 H461 0.950 . S
C469 C467 1.327 . S
C470 C458 1.349 . S
C470 H464 0.950 . S
C470 C471 1.327 . S
C471 H465 0.950 . S
C471 C470 1.327 . S
C471 C475 1.429 . S
C472 C455 1.574 . S
C472 H466 0.949 . S
C472 C476 1.368 . S
C473 C454 1.429 . S
C473 C467 1.429 . S
C473 C474 1.523 . S
C474 C455 1.368 . S
C474 C468 1.368 . S
C474 C473 1.523 . S
C475 C459 1.429 . S
C475 C471 1.429 . S
C475 C476 1.523 . S
C476 C460 1.368 . S
C476 C472 1.368 . S
C476 C475 1.523 . S
H477 C452 0.950 . S
H478 C454 0.950 . S
H479 C455 0.949 . S
H480 C457 0.950 . S
H481 C459 0.950 . S
C482 C483 1.349 . S
C482 C484 1.327 . S
C482 H507 0.950 . S
C483 C482 1.349 . S
C483 C499 1.349 . S
C484 C482 1.327 . S
C484 C503 1.429 . S
C484 H508 0.950 . S
C485 C502 1.574 . S
C485 C504 1.368 . S
C485 H509 0.949 . S
H486 C490 0.949 . S
C487 C488 1.349 . S
C487 C489 1.327 . S
C487 H510 0.950 . S
C488 C487 1.349 . S
C488 C500 1.349 . S
C489 C487 1.327 . S
C489 C505 1.429 . S
C489 H511 0.950 . S
C490 H486 0.949 . S
C490 C498 1.574 . S
C490 C506 1.368 . S
H491 C499 0.950 . S
H492 C497 0.950 . S
H493 C498 0.949 . S
H494 C500 0.942 1_455 S
H495 C501 0.950 . S
H496 C502 0.949 . S
C497 H492 0.950 . S
C497 C499 1.327 . S
C497 C503 1.429 . S
C498 C490 1.574 . S
C498 H493 0.949 . S
C498 C504 1.368 . S
C499 C483 1.349 . S
C499 H491 0.950 . S
C499 C497 1.327 . S
C500 C488 1.349 . S
C500 H494 0.942 1_655 S
C500 C501 1.327 . S
C501 H495 0.950 . S
C501 C500 1.327 . S
C501 C505 1.429 . S
C502 C485 1.574 . S
C502 H496 0.949 . S
C502 C506 1.368 . S
C503 C484 1.429 . S
C503 C497 1.429 . S
C503 C504 1.523 . S
C504 C485 1.368 . S
C504 C498 1.368 . S
C504 C503 1.523 . S
C505 C489 1.429 . S
C505 C501 1.429 . S
C505 C506 1.523 . S
C506 C490 1.368 . S
C506 C502 1.368 . S
C506 C505 1.523 . S
H507 C482 0.950 . S
H508 C484 0.950 . S
H509 C485 0.949 . S
H510 C487 0.950 . S
H511 C489 0.950 . S
C512 C513 1.349 . S
C512 C514 1.327 . S
C512 H537 0.950 . S
C513 C512 1.349 . S
C513 C529 1.349 . S
C514 C512 1.327 . S
C514 C533 1.429 . S
C514 H538 0.950 . S
C515 C532 1.574 . S
C515 C534 1.368 . S
C515 H539 0.949 . S
H516 C520 0.949 . S
C517 C518 1.349 . S
C517 C519 1.327 . S
C517 H540 0.950 . S
C518 C517 1.349 . S
C518 C530 1.349 . S
C519 C517 1.327 . S
C519 C535 1.429 . S
C519 H541 0.950 . S
C520 H516 0.949 . S
C520 C528 1.574 . S
C520 C536 1.368 . S
H521 C529 0.950 . S
H522 C527 0.950 . S
H523 C528 0.949 . S
H524 C530 0.950 . S
H525 C531 0.950 . S
H526 C532 0.949 . S
C527 H522 0.950 . S
C527 C529 1.327 . S
C527 C533 1.429 . S
C528 C520 1.574 . S
C528 H523 0.949 . S
C528 C534 1.368 . S
C529 C513 1.349 . S
C529 H521 0.950 . S
C529 C527 1.327 . S
C530 C518 1.349 . S
C530 H524 0.950 . S
C530 C531 1.327 . S
C531 H525 0.950 . S
C531 C530 1.327 . S
C531 C535 1.429 . S
C532 C515 1.574 . S
C532 H526 0.949 . S
C532 C536 1.368 . S
C533 C514 1.429 . S
C533 C527 1.429 . S
C533 C534 1.523 . S
C534 C515 1.368 . S
C534 C528 1.368 . S
C534 C533 1.523 . S
C535 C519 1.429 . S
C535 C531 1.429 . S
C535 C536 1.523 . S
C536 C520 1.368 . S
C536 C532 1.368 . S
C536 C535 1.523 . S
H537 C512 0.950 . S
H538 C514 0.950 . S
H539 C515 0.949 . S
H540 C517 0.950 . S
H541 C519 0.950 . S
C542 C543 1.349 . S
C542 C544 1.327 . S
C542 H567 0.950 . S
C543 C542 1.349 . S
C543 C559 1.349 . S
C544 C542 1.327 . S
C544 C563 1.429 . S
C544 H568 0.950 . S
C545 C562 1.574 . S
C545 C564 1.368 . S
C545 H569 0.949 . S
H546 C550 0.949 . S
C547 C548 1.349 . S
C547 C549 1.327 . S
C547 H570 0.949 1_455 S
C548 C547 1.349 . S
C548 C560 1.349 . S
C549 C547 1.327 . S
C549 C565 1.429 . S
C549 H571 0.950 . S
C550 H546 0.949 . S
C550 C558 1.574 . S
C550 C566 1.368 . S
H551 C559 0.950 . S
H552 C557 0.950 . S
H553 C558 0.949 . S
H554 C560 0.950 . S
H555 C561 0.950 . S
H556 C562 0.949 . S
C557 H552 0.950 . S
C557 C559 1.327 . S
C557 C563 1.429 . S
C558 C550 1.574 . S
C558 H553 0.949 . S
C558 C564 1.368 . S
C559 C543 1.349 . S
C559 H551 0.950 . S
C559 C557 1.327 . S
C560 C548 1.349 . S
C560 H554 0.950 . S
C560 C561 1.327 . S
C561 H555 0.950 . S
C561 C560 1.327 . S
C561 C565 1.429 . S
C562 C545 1.574 . S
C562 H556 0.949 . S
C562 C566 1.368 . S
C563 C544 1.429 . S
C563 C557 1.429 . S
C563 C564 1.523 . S
C564 C545 1.368 . S
C564 C558 1.368 . S
C564 C563 1.523 . S
C565 C549 1.429 . S
C565 C561 1.429 . S
C565 C566 1.523 . S
C566 C550 1.368 . S
C566 C562 1.368 . S
C566 C565 1.523 . S
H567 C542 0.950 . S
H568 C544 0.950 . S
H569 C545 0.949 . S
H570 C547 0.949 1_655 S
H571 C549 0.950 . S
C218 C148 1.641 . S
C213 C133 1.634 . S
C243 C25 1.530 . S
C248 C191 1.561 . S
C273 C61 1.595 . S
C278 C157 1.641 . S
C303 C97 1.562 . S
C308 C182 1.561 . S
C338 C144 1.615 . S
C333 C1 1.578 . S
C368 C186 1.708 . S
C363 C67 1.645 . S
C393 C103 1.597 . S
C398 C152 1.605 . S
C423 C109 1.687 . S
C428 C178 1.703 . S
C458 C207 1.703 . S
C453 C37 1.652 . S
C488 C173 1.615 . S
C483 C73 1.606 . S
C518 C195 1.708 . S
C513 C139 1.690 . S
C543 C31 1.562 . S
C548 C161 1.605 . S
