# Generated by pormake.
# Topology pth, (4,4)-cn, num edge types: 1
# Building blocks:
#     Node 0, Type 0, BuildingBlock: NAHDIM_clean_sbu_0, # of connection points: 4
#     Node 1, Type 0, BuildingBlock: NAHDIM_clean_sbu_0, # of connection points: 4
#     Node 2, Type 0, BuildingBlock: NAHDIM_clean_sbu_0, # of connection points: 4
#     Node 3, Type 1, BuildingBlock: AZAVOO_clean_linker_0, # of connection points: 4
#     Node 4, Type 1, BuildingBlock: AZAVOO_clean_linker_0, # of connection points: 4
#     Node 5, Type 1, BuildingBlock: AZAVOO_clean_linker_0, # of connection points: 4
#     Edge 6, Type (0, 1), BuildingBlock: ZUJKAS_clean_linker_0, # of connection points: 2
#     Edge 7, Type (0, 1), BuildingBlock: ZUJKAS_clean_linker_0, # of connection points: 2
#     Edge 8, Type (0, 1), BuildingBlock: ZUJKAS_clean_linker_0, # of connection points: 2
#     Edge 9, Type (0, 1), BuildingBlock: ZUJKAS_clean_linker_0, # of connection points: 2
#     Edge 10, Type (0, 1), BuildingBlock: ZUJKAS_clean_linker_0, # of connection points: 2
#     Edge 11, Type (0, 1), BuildingBlock: ZUJKAS_clean_linker_0, # of connection points: 2
#     Edge 12, Type (0, 1), BuildingBlock: ZUJKAS_clean_linker_0, # of connection points: 2
#     Edge 13, Type (0, 1), BuildingBlock: ZUJKAS_clean_linker_0, # of connection points: 2
#     Edge 14, Type (0, 1), BuildingBlock: ZUJKAS_clean_linker_0, # of connection points: 2
#     Edge 15, Type (0, 1), BuildingBlock: ZUJKAS_clean_linker_0, # of connection points: 2
#     Edge 16, Type (0, 1), BuildingBlock: ZUJKAS_clean_linker_0, # of connection points: 2
#     Edge 17, Type (0, 1), BuildingBlock: ZUJKAS_clean_linker_0, # of connection points: 2
# Relax obj value: 0.147
# Max RMSD: 0.228
# Mean RMSD: 0.208
data_MOF--net-pth--node1-NAHDIM_clean_sbu_0--node2-AZAVOO_clean_linker_0--edge1-ZUJKAS_clean_linker_0
_symmetry_space_group_name_H-M    P1
_symmetry_Int_Tables_number       1
_symmetry_cell_setting            triclinic
loop_
_symmetry_equiv_pos_as_xyz
'x, y, z'
_cell_length_a     32.78402
_cell_length_b     33.092817
_cell_length_c     87.356461
_cell_angle_alpha  93.895915
_cell_angle_beta   89.050034
_cell_angle_gamma 120.52092
loop_
_atom_site_label
_atom_site_type_symbol
_atom_site_fract_x
_atom_site_fract_y
_atom_site_fract_z
_atom_type_partial_charge
C0 C 0.06631 0.99086 0.08706 0.0
O1 O 0.02217 0.97514 0.08286 0.0
O2 O 0.05252 0.09874 0.09648 0.0
Zn3 Zn 0.0745 0.07534 0.07819 0.0
O4 O 0.02154 0.03891 0.06272 0.0
C5 C 0.16491 0.16137 0.07421 0.0
O6 O 0.17312 0.15979 0.08876 0.0
O7 O 0.09689 0.03383 0.08569 0.0
C8 C -0.00131 0.05651 0.05734 0.0
O9 O 0.00889 0.09899 0.06238 0.0
C10 C 0.05665 0.13913 0.09753 0.0
O11 O 0.07476 0.16649 0.08611 0.0
O12 O 0.12649 0.12926 0.0678 0.0
C13 C 0.06199 0.14215 0.38352 0.0
O14 O 0.04021 0.09696 0.37945 0.0
O15 O 0.07296 0.05159 0.39816 0.0
Zn16 Zn 0.09244 0.11391 0.40948 0.0
O17 O 0.05069 0.10368 0.42751 0.0
C18 C 0.18475 0.1251 0.414 0.0
O19 O 0.16897 0.08981 0.40353 0.0
O20 O 0.08696 0.15752 0.39582 0.0
C21 C 0.05395 0.0832 0.43882 0.0
O22 O 0.08447 0.06855 0.43838 0.0
C23 C 0.03253 0.01486 0.39913 0.0
O24 O 0.00021 0.0168 0.40771 0.0
O25 O 0.15898 0.14251 0.41778 0.0
C26 C 0.14286 0.04483 0.72328 0.0
O27 O 0.13771 0.08073 0.72079 0.0
O28 O 0.02904 0.03557 0.72556 0.0
Zn29 Zn 0.06884 0.03155 0.74192 0.0
O30 O 0.10812 0.09466 0.75323 0.0
C31 C 0.98651 0.94999 0.75189 0.0
O32 O 0.97539 0.94389 0.7372 0.0
O33 O 0.11444 0.01459 0.73221 0.0
C34 C 0.14109 0.09982 0.76204 0.0
O35 O 0.14628 0.06355 0.76381 0.0
C36 C 0.01288 0.06318 0.72748 0.0
O37 O 0.02355 0.09037 0.74022 0.0
O38 O 0.02612 0.9847 0.75662 0.0
H39 H 0.02604 0.48417 0.14433 0.0
H40 H 0.0938 0.86959 0.26429 0.0
H41 H 0.95264 0.4569 0.22473 0.0
H42 H 0.94795 0.38448 0.21411 0.0
H43 H 0.08383 0.42829 0.23523 0.0
H44 H 0.08859 0.50142 0.24554 0.0
H45 H 0.97697 0.54014 0.20354 0.0
H46 H 0.98531 0.51561 0.17717 0.0
H47 H 0.11743 0.52648 0.19019 0.0
H48 H 0.10895 0.55159 0.21646 0.0
H49 H 0.98352 0.63174 0.2186 0.0
H50 H 0.00108 0.68307 0.19756 0.0
H51 H 0.14217 0.70363 0.19515 0.0
H52 H 0.12458 0.65315 0.21648 0.0
H53 H 0.96396 0.63555 0.25468 0.0
H54 H 0.96925 0.71105 0.26148 0.0
H55 H 0.11958 0.78286 0.253 0.0
H56 H 0.11388 0.70705 0.24644 0.0
H57 H 0.945 0.55177 0.27435 0.0
H58 H 0.93063 0.58393 0.29859 0.0
H59 H 0.07859 0.69228 0.30155 0.0
H60 H 0.09267 0.65907 0.27764 0.0
H61 H 0.94746 0.45987 0.26089 0.0
H62 H 0.94343 0.40743 0.28014 0.0
H63 H 0.08506 0.51171 0.29609 0.0
H64 H 0.08854 0.56375 0.27693 0.0
O65 O 0.02356 0.49414 0.15481 0.0
O66 O 0.09109 0.49992 0.16212 0.0
O67 O 0.01335 0.80062 0.26595 0.0
O68 O 0.09065 0.83928 0.26157 0.0
C69 C 0.02719 0.53137 0.2397 0.0
C70 C 0.03692 0.56206 0.22792 0.0
C71 C 0.04158 0.60649 0.23138 0.0
C72 C 0.03542 0.61982 0.24653 0.0
C73 C 0.0265 0.58935 0.25836 0.0
C74 C 0.0231 0.54544 0.25498 0.0
C75 C 0.02106 0.48435 0.23578 0.0
C76 C 0.98086 0.4503 0.22733 0.0
C77 C 0.97815 0.40884 0.22137 0.0
C78 C 0.01566 0.40078 0.22378 0.0
C79 C 0.05464 0.4338 0.23306 0.0
C80 C 0.0573 0.47535 0.23903 0.0
C81 C 0.04233 0.54758 0.21188 0.0
C82 C 0.00778 0.5374 0.20064 0.0
C83 C 0.01259 0.52329 0.18561 0.0
C84 C 0.05201 0.51902 0.18157 0.0
C85 C 0.08661 0.52936 0.1929 0.0
C86 C 0.08183 0.54362 0.20792 0.0
C87 C 0.05281 0.63889 0.21903 0.0
C88 C 0.01829 0.64768 0.21359 0.0
C89 C 0.02827 0.6766 0.2015 0.0
C90 C 0.07293 0.69711 0.19465 0.0
C91 C 0.10761 0.68863 0.20028 0.0
C92 C 0.09759 0.6597 0.21238 0.0
C93 C 0.03852 0.66587 0.25007 0.0
C94 C -0.00202 0.66764 0.2543 0.0
C95 C 0.00111 0.71081 0.25816 0.0
C96 C 0.04488 0.75302 0.2578 0.0
C97 C 0.08535 0.75105 0.25341 0.0
C98 C 0.08218 0.70783 0.2496 0.0
C99 C 0.01975 0.60343 0.27423 0.0
C100 C 0.97445 0.58165 0.2805 0.0
C101 C 0.96628 0.60026 0.29425 0.0
C102 C 0.00336 0.6409 0.30191 0.0
C103 C 0.04934 0.66066 0.29605 0.0
C104 C 0.05745 0.64198 0.28234 0.0
C105 C 0.01833 0.51546 0.26752 0.0
C106 C 0.97733 0.47144 0.26867 0.0
C107 C 0.9752 0.44155 0.2796 0.0
C108 C 0.014 0.4554 0.28959 0.0
C109 C 0.05436 0.50025 0.28871 0.0
C110 C 0.05649 0.52998 0.27775 0.0
C111 C 0.0569 0.50381 0.16561 0.0
C112 C 0.04847 0.79895 0.26202 0.0
H113 H 0.62087 0.04963 0.47288 0.0
H114 H 0.38161 0.18688 0.60004 0.0
H115 H 0.60635 -0.00048 0.55404 0.0
H116 H 0.66722 0.9849 0.54307 0.0
H117 H 0.7757 0.1227 0.56126 0.0
H118 H 0.71446 0.13653 0.57241 0.0
H119 H 0.54265 0.02418 0.53448 0.0
H120 H 0.56302 0.02278 0.50745 0.0
H121 H 0.69619 0.15209 0.51681 0.0
H122 H 0.67507 0.15332 0.54378 0.0
H123 H 0.47082 0.04215 0.54974 0.0
H124 H 0.43205 0.05861 0.52929 0.0
H125 H 0.55528 0.19728 0.52719 0.0
H126 H 0.59378 0.18045 0.54765 0.0
H127 H 0.45785 0.03557 0.5862 0.0
H128 H 0.39505 0.05099 0.5945 0.0
H129 H 0.4869 0.19822 0.58695 0.0
H130 H 0.54954 0.18233 0.57885 0.0
H131 H 0.51968 0.01098 0.60391 0.0
H132 H 0.48313 0.00521 0.62886 0.0
H133 H 0.55373 0.157 0.63452 0.0
H134 H 0.58836 0.16204 0.6092 0.0
H135 H 0.61124 0.00256 0.58976 0.0
H136 H 0.66277 0.99628 0.60828 0.0
H137 H 0.71813 0.14172 0.62424 0.0
H138 H 0.6679 0.14801 0.60533 0.0
O139 O 0.61343 0.05099 0.4836 0.0
O140 O 0.68157 0.11731 0.48903 0.0
O141 O 0.36001 0.10377 0.60051 0.0
O142 O 0.40574 0.17976 0.59675 0.0
C143 C 0.61907 0.08 0.56869 0.0
C144 C 0.59498 0.08932 0.55746 0.0
C145 C 0.55924 0.09926 0.56186 0.0
C146 C 0.54663 0.09861 0.57739 0.0
C147 C 0.57089 0.08941 0.5886 0.0
C148 C 0.60772 0.08101 0.5843 0.0
C149 C 0.65616 0.06914 0.5639 0.0
C150 C 0.64333 0.02612 0.55586 0.0
C151 C 0.67808 0.01797 0.54957 0.0
C152 C 0.72622 0.05283 0.55119 0.0
C153 C 0.73897 0.09498 0.55996 0.0
C154 C 0.70413 0.10306 0.56627 0.0
C155 C 0.60737 0.08886 0.54105 0.0
C156 C 0.57608 0.05227 0.53064 0.0
C157 C 0.58788 0.05151 0.51522 0.0
C158 C 0.63127 0.08731 0.50996 0.0
C159 C 0.66251 0.12397 0.52047 0.0
C160 C 0.65059 0.12474 0.53588 0.0
C161 C 0.53495 0.11015 0.55011 0.0
C162 C 0.48921 0.07614 0.54491 0.0
C163 C 0.46736 0.08547 0.5332 0.0
C164 C 0.49085 0.12914 0.52664 0.0
C165 C 0.53634 0.16348 0.53212 0.0
C166 C 0.55835 0.15393 0.54373 0.0
C167 C 0.50816 0.10785 0.58195 0.0
C168 C 0.46429 0.07111 0.58636 0.0
C169 C 0.42851 0.08002 0.59108 0.0
C170 C 0.43598 0.12588 0.5914 0.0
C171 C 0.47997 0.16253 0.58685 0.0
C172 C 0.51576 0.15356 0.58217 0.0
C173 C 0.55618 0.08686 0.60476 0.0
C174 C 0.5279 0.04293 0.61071 0.0
C175 C 0.50728 0.03978 0.62502 0.0
C176 C 0.51506 0.08066 0.63365 0.0
C177 C 0.5462 0.12481 0.62804 0.0
C178 C 0.56631 0.12784 0.61365 0.0
C179 C 0.63601 0.07576 0.59621 0.0
C180 C 0.63447 0.03293 0.5973 0.0
C181 C 0.66368 0.02938 0.60794 0.0
C182 C 0.69474 0.0686 0.61767 0.0
C183 C 0.69523 0.1111 0.61674 0.0
C184 C 0.66623 0.11465 0.60607 0.0
C185 C 0.64378 0.08629 0.49359 0.0
C186 C 0.39819 0.1356 0.5965 0.0
H187 H 0.63075 0.76213 0.00426 0.0
H188 H 0.2929 0.30396 0.89102 0.0
H189 H 0.57705 0.72859 0.91569 0.0
H190 H 0.64081 0.80255 0.92791 0.0
H191 H 0.7172 0.73255 0.93809 0.0
H192 H 0.65351 0.65916 0.92593 0.0
H193 H 0.53462 0.6888 0.94443 0.0
H194 H 0.56865 0.72771 0.96964 0.0
H195 H 0.61799 0.63048 0.97499 0.0
H196 H 0.58451 0.59245 0.94963 0.0
H197 H 0.44637 0.58711 0.94796 0.0
H198 H 0.40875 0.54134 0.97021 0.0
H199 H 0.46366 0.45001 0.95694 0.0
H200 H 0.5004 0.49549 0.9347 0.0
H201 H 0.39368 0.52917 0.91709 0.0
H202 H 0.32236 0.45202 0.91213 0.0
H203 H 0.40887 0.39597 0.89434 0.0
H204 H 0.47988 0.47307 0.89956 0.0
H205 H 0.43374 0.56664 0.88389 0.0
H206 H 0.39938 0.52108 0.85961 0.0
H207 H 0.51927 0.50086 0.85396 0.0
H208 H 0.55243 0.54507 0.87861 0.0
H209 H 0.53759 0.66641 0.87891 0.0
H210 H 0.59096 0.70752 0.85807 0.0
H211 H 0.69236 0.67359 0.87501 0.0
H212 H 0.63899 0.63268 0.89565 0.0
O213 O 0.61639 0.74539 0.99452 0.0
O214 O 0.63846 0.69279 -0.00284 0.0
O215 O 0.27768 0.36509 0.90267 0.0
O216 O 0.32053 0.33473 0.89322 0.0
C217 C 0.5675 0.64247 0.91682 0.0
C218 C 0.54075 0.61756 0.9293 0.0
C219 C 0.50017 0.57275 0.9266 0.0
C220 C 0.48498 0.55382 0.91141 0.0
C221 C 0.51148 0.57922 0.89891 0.0
C222 C 0.55354 0.62299 0.90166 0.0
C223 C 0.61083 0.68876 0.92 0.0
C224 C 0.60846 0.72986 0.92004 0.0
C225 C 0.6446 0.77182 0.92711 0.0
C226 C 0.68367 0.7731 0.93405 0.0
C227 C 0.68778 0.73275 0.93271 0.0
C228 C 0.65149 0.69081 0.92577 0.0
C229 C 0.55709 0.63784 0.94524 0.0
C230 C 0.55249 0.67577 0.95113 0.0
C231 C 0.57205 0.69798 0.96551 0.0
C232 C 0.59622 0.68233 0.97431 0.0
C233 C 0.59967 0.64346 0.9685 0.0
C234 C 0.58035 0.62149 0.95407 0.0
C235 C 0.47574 0.54431 0.93972 0.0
C236 C 0.44998 0.55706 0.94988 0.0
C237 C 0.42887 0.53113 0.9626 0.0
C238 C 0.43325 0.49206 0.96532 0.0
C239 C 0.45905 0.47946 0.95505 0.0
C240 C 0.48009 0.50537 0.94236 0.0
C241 C 0.44187 0.50673 0.90862 0.0
C242 C 0.39712 0.5001 0.91219 0.0
C243 C 0.35647 0.45605 0.90931 0.0
C244 C 0.35991 0.41783 0.9028 0.0
C245 C 0.40492 0.42462 0.89933 0.0
C246 C 0.44554 0.46865 0.90226 0.0
C247 C 0.49537 0.55889 0.88302 0.0
C248 C 0.45295 0.55307 0.87725 0.0
C249 C 0.43356 0.52729 0.86332 0.0
C250 C 0.45646 0.50707 0.85489 0.0
C251 C 0.50047 0.51544 0.86029 0.0
C252 C 0.5197 0.54103 0.87428 0.0
C253 C 0.58475 0.64709 0.88884 0.0
C254 C 0.5713 0.66784 0.87805 0.0
C255 C 0.60166 0.69108 0.86616 0.0
C256 C 0.64595 0.69404 0.86501 0.0
C257 C 0.65885 0.67258 0.87576 0.0
C258 C 0.62844 0.6492 0.88753 0.0
C259 C 0.61826 0.70695 0.98936 0.0
C260 C 0.31681 0.37106 0.89959 0.0
H261 H 0.02372 0.09367 0.12394 0.0
H262 H 0.00614 0.12374 0.14798 0.0
H263 H 0.04339 0.25289 0.12757 0.0
H264 H 0.06065 0.22312 0.10349 0.0
H265 H 0.06947 0.20442 0.16588 0.0
H266 H 0.91535 0.21557 0.14697 0.0
H267 H 0.93609 0.18121 0.13617 0.0
H268 H 0.9649 0.2437 0.13457 0.0
C269 C 0.02768 0.12828 0.12451 0.0
C270 C 0.04353 0.15603 0.1118 0.0
C271 C 0.01765 0.14536 0.13825 0.0
C272 C 0.02285 0.1902 0.13945 0.0
C273 C 0.03822 0.21777 0.12676 0.0
H274 H 0.08997 0.40294 0.20869 0.0
H275 H 0.08812 0.34259 0.19066 0.0
C276 C 0.04834 0.20081 0.11303 0.0
C277 C 0.01509 0.20966 0.15421 0.0
H278 H 0.95663 0.26258 0.16988 0.0
C279 C 0.04422 0.21642 0.16687 0.0
C280 C 0.98155 0.22444 0.15555 0.0
C281 C 0.94734 0.21543 0.14263 0.0
C282 C 0.04277 0.24038 0.18056 0.0
C283 C 0.01187 0.25847 0.18145 0.0
C284 C 0.98061 0.24901 0.16913 0.0
C285 C 0.01457 0.29131 0.1943 0.0
C286 C 0.07503 0.24696 0.19379 0.0
C287 C 0.97389 0.28243 0.20243 0.0
C288 C 0.97483 0.31701 0.21278 0.0
C289 C 0.01642 0.36114 0.21507 0.0
C290 C 0.05765 0.36904 0.20743 0.0
C291 C 0.05666 0.33451 0.1971 0.0
H292 H 0.08363 0.21848 0.19338 0.0
H293 H 0.10877 0.28082 0.19306 0.0
H294 H 0.05882 0.24772 0.20499 0.0
H295 H 0.941 0.24937 0.20035 0.0
H296 H 0.94262 0.30984 0.21859 0.0
H297 H 0.05221 0.0416 0.46509 0.0
H298 H 0.00263 0.03134 0.48748 0.0
H299 H 0.93842 0.09865 0.4654 0.0
H300 H 0.98785 0.10944 0.4431 0.0
H301 H 0.97015 0.13288 0.49638 0.0
H302 H 0.85756 0.93769 0.48937 0.0
H303 H 0.92075 0.96244 0.4896 0.0
H304 H 0.89269 0.97228 0.47399 0.0
C305 C 0.02744 0.05411 0.46499 0.0
C306 C 0.02388 0.07627 0.45231 0.0
C307 C -0.00091 0.04806 0.47776 0.0
C308 C 0.96673 0.06393 0.47799 0.0
C309 C 0.96325 0.08616 0.4654 0.0
H310 H 0.71934 0.01789 0.52163 0.0
H311 H 0.78144 0.01688 0.5062 0.0
C312 C 0.99146 0.09221 0.45266 0.0
C313 C 0.93647 0.05811 0.49135 0.0
H314 H 0.83913 0.97642 0.50944 0.0
C315 C 0.9419 0.0987 0.49943 0.0
C316 C 0.89969 0.01339 0.49517 0.0
C317 C 0.89186 0.96882 0.48656 0.0
C318 C 0.91022 0.09591 0.51085 0.0
C319 C 0.87263 0.05123 0.5144 0.0
C320 C 0.86829 0.01052 0.50674 0.0
C321 C 0.83419 0.04654 0.52456 0.0
C322 C 0.91561 0.14084 0.51838 0.0
C323 C 0.84302 0.06236 0.54012 0.0
C324 C 0.80743 0.0629 0.54902 0.0
C325 C 0.76248 0.0473 0.54249 0.0
C326 C 0.75332 0.0295 0.52708 0.0
C327 C 0.78882 0.02905 0.51822 0.0
H328 H 0.94189 0.17232 0.51254 0.0
H329 H 0.88113 0.13964 0.51842 0.0
H330 H 0.92766 0.14501 0.53048 0.0
H331 H 0.87771 0.07538 0.54525 0.0
H332 H 0.8153 0.07627 0.56092 0.0
H333 H 0.89483 0.88009 0.74604 0.0
H334 H 0.83511 0.8351 0.76475 0.0
H335 H 0.93925 0.90578 0.80137 0.0
H336 H -0.001 0.95152 0.78282 0.0
H337 H 0.83167 0.77485 0.78617 0.0
H338 H 0.83361 0.93085 0.81471 0.0
H339 H 0.86073 0.9325 0.79643 0.0
H340 H 0.89086 0.93613 0.81394 0.0
C341 C 0.90512 0.88591 0.75807 0.0
C342 C 0.95154 0.91972 0.76297 0.0
C343 C 0.87094 0.86018 0.76873 0.0
C344 C 0.88258 0.86788 0.78444 0.0
C345 C 0.92932 0.90018 0.78932 0.0
H346 H 0.74075 0.75615 0.86804 0.0
H347 H 0.79633 0.79696 0.84782 0.0
C348 C 0.96347 0.92606 0.77869 0.0
C349 C 0.84575 0.8425 0.79578 0.0
H350 H 0.79111 0.85936 0.82709 0.0
C351 C 0.82249 0.79322 0.79506 0.0
C352 C 0.83374 0.86668 0.80727 0.0
C353 C 0.85568 0.91943 0.80809 0.0
C354 C 0.78848 0.7675 0.80587 0.0
C355 C 0.77728 0.7918 0.81754 0.0
C356 C 0.80001 0.84098 0.81812 0.0
C357 C 0.74319 0.76696 0.82959 0.0
C358 C 0.76573 0.71469 0.80502 0.0
C359 C 0.69487 0.73713 0.826 0.0
C360 C 0.663 0.71375 0.83753 0.0
C361 C 0.67911 0.71982 0.85279 0.0
C362 C 0.72747 0.75027 0.85634 0.0
C363 C 0.75918 0.77375 0.84484 0.0
H364 H 0.78445 0.70216 0.79708 0.0
H365 H 0.76515 0.70231 0.81656 0.0
H366 H 0.72853 0.69841 0.80083 0.0
H367 H 0.68187 0.73201 0.81429 0.0
H368 H 0.62596 0.69033 0.83447 0.0
H369 H 0.00873 0.8983 0.09219 0.0
H370 H 0.02604 0.85088 0.10815 0.0
H371 H 0.16911 0.96637 0.1157 0.0
H372 H 0.15203 0.01451 0.09985 0.0
H373 H 0.09786 0.82486 0.10725 0.0
H374 H 0.11189 0.9396 0.15907 0.0
H375 H 0.08687 0.9416 0.14109 0.0
H376 H 0.14982 0.96793 0.1434 0.0
C377 C 0.04408 0.91353 0.09708 0.0
C378 C 0.07881 0.96039 0.09494 0.0
C379 C 0.05393 0.8863 0.10614 0.0
C380 C 0.09859 0.90545 0.11325 0.0
C381 C 0.13422 0.95129 0.11046 0.0
H382 H 0.15331 0.78079 0.18991 0.0
H383 H 0.16818 0.83179 0.16893 0.0
C384 C 0.12441 0.97864 0.10138 0.0
C385 C 0.10612 0.87835 0.12448 0.0
H386 H 0.11583 0.87238 0.16296 0.0
C387 C 0.10244 0.83546 0.11942 0.0
C388 C 0.11221 0.89248 0.14032 0.0
C389 C 0.11515 0.93773 0.14639 0.0
C390 C 0.10332 0.80555 0.12987 0.0
C391 C 0.10704 0.81863 0.14577 0.0
C392 C 0.11297 0.86251 0.15076 0.0
C393 C 0.10042 0.78575 0.1575 0.0
C394 C 0.09959 0.75997 0.12383 0.0
C395 C 0.05739 0.74311 0.15801 0.0
C396 C 0.04887 0.71395 0.16992 0.0
C397 C 0.08308 0.7271 0.18162 0.0
C398 C 0.12649 0.76951 0.18097 0.0
C399 C 0.13498 0.79871 0.16903 0.0
H400 H 0.11277 0.76233 0.11193 0.0
H401 H 0.11985 0.75003 0.13123 0.0
H402 H 0.06185 0.73157 0.12359 0.0
H403 H 0.0298 0.73297 0.14943 0.0
H404 H 0.01531 0.68126 0.17003 0.0
H405 H 0.23501 0.08004 0.41425 0.0
H406 H 0.29788 0.09534 0.43238 0.0
H407 H 0.29621 0.21741 0.45226 0.0
H408 H 0.23207 0.20146 0.43446 0.0
H409 H 0.38697 0.16813 0.43993 0.0
H410 H 0.26538 0.13791 0.48863 0.0
H411 H 0.24505 0.12557 0.4689 0.0
H412 H 0.27507 0.18504 0.47724 0.0
C413 C 0.24842 0.11054 0.42233 0.0
C414 C 0.22804 0.13909 0.4231 0.0
C415 C 0.28441 0.11926 0.43268 0.0
C416 C 0.30085 0.15682 0.4439 0.0
C417 C 0.28308 0.18748 0.44396 0.0
H418 H 0.48348 0.20687 0.52374 0.0
H419 H 0.44295 0.22057 0.50308 0.0
C420 C 0.24665 0.17847 0.43372 0.0
C421 C 0.33399 0.16149 0.45613 0.0
H422 H 0.34222 0.15467 0.49468 0.0
C423 C 0.3774 0.16562 0.45192 0.0
C424 C 0.32123 0.15794 0.47177 0.0
C425 C 0.27401 0.15095 0.47694 0.0
C426 C 0.40802 0.16542 0.4629 0.0
C427 C 0.39472 0.16087 0.47842 0.0
C428 C 0.35222 0.15841 0.48274 0.0
C429 C 0.42235 0.15461 0.49022 0.0
C430 C 0.45402 0.16933 0.45784 0.0
C431 C 0.42374 0.1129 0.48978 0.0
C432 C 0.44637 0.10484 0.50157 0.0
C433 C 0.46809 0.13846 0.51396 0.0
C434 C 0.4673 0.18059 0.51425 0.0
C435 C 0.44421 0.18842 0.50251 0.0
H436 H 0.46418 0.18346 0.44634 0.0
H437 H 0.48307 0.19234 0.46622 0.0
H438 H 0.4501 0.13391 0.45723 0.0
H439 H 0.4064 0.08614 0.48048 0.0
H440 H 0.44684 0.07228 0.50102 0.0
H441 H 0.21388 0.12157 0.78187 0.0
H442 H 0.27006 0.19855 0.79416 0.0
H443 H 0.20141 0.26054 0.77145 0.0
H444 H 0.14445 0.1834 0.75923 0.0
H445 H 0.33311 0.28237 0.78023 0.0
H446 H 0.203 0.30217 0.81695 0.0
H447 H 0.18973 0.24651 0.80748 0.0
H448 H 0.1892 0.29061 0.79673 0.0
C449 C 0.21052 0.15148 0.77953 0.0
C450 C 0.1745 0.14632 0.76966 0.0
C451 C 0.24277 0.19546 0.78651 0.0
C452 C 0.23957 0.23505 0.78381 0.0
C453 C 0.20397 0.23022 0.77386 0.0
H454 H 0.40416 0.51377 0.832 0.0
H455 H 0.35483 0.45257 0.81216 0.0
C456 C 0.17156 0.18616 0.76688 0.0
C457 C 0.27363 0.28119 0.79152 0.0
H458 H 0.28231 0.3635 0.81907 0.0
C459 C 0.32203 0.30038 0.78863 0.0
C460 C 0.25894 0.30466 0.80238 0.0
C461 C 0.20746 0.28493 0.80621 0.0
C462 C 0.35634 0.34191 0.79663 0.0
C463 C 0.34176 0.36431 0.80793 0.0
C464 C 0.29328 0.34622 0.81036 0.0
C465 C 0.37601 0.40365 0.81844 0.0
C466 C 0.40788 0.36114 0.79304 0.0
C467 C 0.40445 0.39645 0.82841 0.0
C468 C 0.43227 0.43103 0.83979 0.0
C469 C 0.43205 0.47349 0.84146 0.0
C470 C 0.40477 0.48128 0.83109 0.0
C471 C 0.37678 0.44652 0.81972 0.0
H472 H 0.41223 0.34935 0.78123 0.0
H473 H 0.42805 0.40018 0.79425 0.0
H474 H 0.42347 0.34807 0.80117 0.0
H475 H 0.40344 0.36315 0.82787 0.0
H476 H 0.45201 0.42341 0.84777 0.0
H477 H 0.97889 0.12324 0.72656 0.0
H478 H 0.9242 0.12169 0.70752 0.0
H479 H 0.91883 0.00114 0.6832 0.0
H480 H 0.9743 0.00303 0.70197 0.0
H481 H 0.92909 0.06689 0.66396 0.0
H482 H 0.78278 0.02886 0.70401 0.0
H483 H 0.83767 0.08049 0.71003 0.0
H484 H 0.83312 0.02385 0.70905 0.0
C485 C 0.96606 0.09638 0.71717 0.0
C486 C 0.98073 0.06312 0.71581 0.0
C487 C 0.93457 0.09537 0.70636 0.0
C488 C 0.91676 0.06073 0.69413 0.0
C489 C 0.93196 0.02798 0.69261 0.0
H490 H 0.67565 0.99657 0.63568 0.0
H491 H 0.7298 0.99228 0.65358 0.0
C492 C 0.96367 0.02914 0.70335 0.0
C493 C 0.88287 0.05906 0.68277 0.0
H494 H 0.7751 0.05028 0.67919 0.0
C495 C 0.8953 0.06301 0.66726 0.0
C496 C 0.83849 0.05319 0.68709 0.0
C497 C 0.82193 0.04587 0.70343 0.0
C498 C 0.86498 0.06237 0.65599 0.0
C499 C 0.82158 0.05867 0.66042 0.0
C500 C 0.80864 0.05358 0.67586 0.0
C501 C 0.78935 0.06069 0.64924 0.0
C502 C 0.87949 0.06511 0.63943 0.0
C503 C 0.80485 0.1007 0.64098 0.0
C504 C 0.77422 0.10307 0.63067 0.0
C505 C 0.72728 0.06566 0.62854 0.0
C506 C 0.71176 0.02569 0.63691 0.0
C507 C 0.74252 0.02331 0.6472 0.0
H508 H 0.90599 0.05391 0.63749 0.0
H509 H 0.84843 0.04283 0.63166 0.0
H510 H 0.89583 0.10203 0.63628 0.0
H511 H 0.84058 0.13031 0.64261 0.0
H512 H 0.78745 0.13412 0.62428 0.0
H513 H 0.97598 0.9722 0.04252 0.0
H514 H 0.92018 0.93112 0.02104 0.0
H515 H 0.88438 0.04 0.02258 0.0
H516 H 0.94086 0.08194 0.04397 0.0
H517 H 0.82318 0.89693 0.01949 0.0
H518 H 0.92036 0.03248 0.97765 0.0
H519 H 0.947 0.03212 0.99553 0.0
H520 H 0.90608 0.05304 0.99535 0.0
C521 C 0.95623 0.98745 0.03833 0.0
C522 C 0.96308 0.03051 0.04488 0.0
C523 C 0.92437 0.96391 0.02606 0.0
C524 C 0.89879 0.98294 0.0201 0.0
C525 C 0.90458 0.02529 0.02683 0.0
H526 H 0.66002 0.81851 0.95635 0.0
H527 H 0.7117 0.87498 0.97679 0.0
C528 C 0.93664 0.04902 0.03909 0.0
C529 C 0.86593 0.95796 0.00688 0.0
H530 H 0.84759 0.96608 0.96911 0.0
C531 C 0.82827 0.91212 0.0085 0.0
C532 C 0.8731 0.97788 0.99254 0.0
C533 C 0.91401 0.02643 0.99004 0.0
C534 C 0.79774 0.88537 0.99611 0.0
C535 C 0.80483 0.90533 0.98181 0.0
C536 C 0.8422 0.95126 0.98017 0.0
C537 C 0.77524 0.87761 0.96824 0.0
C538 C 0.75902 0.83543 -0.00174 0.0
C539 C 0.79447 0.8622 0.95637 0.0
C540 C 0.76513 0.83017 0.94463 0.0
C541 C 0.71625 0.81348 0.94456 0.0
C542 C 0.69767 0.8313 0.95598 0.0
C543 C 0.727 0.86317 0.96773 0.0
H544 H 0.76356 0.82272 0.0092 0.0
H545 H 0.72423 0.83352 -0.00161 0.0
H546 H 0.75815 0.81134 0.98861 0.0
H547 H 0.83173 0.87315 0.9566 0.0
H548 H 0.7803 0.81708 0.93593 0.0
H549 H 0.94977 0.92965 0.39807 0.0
H550 H 0.93333 0.85694 0.38337 0.0
H551 H 0.07552 0.92729 0.36628 0.0
H552 H 0.09218 -0.0001 0.38073 0.0
H553 H 0.00335 0.87762 0.34352 0.0
H554 H 0.98472 0.76841 0.39185 0.0
H555 H 0.94972 0.7963 0.39255 0.0
H556 H 0.01303 0.83169 0.39423 0.0
C557 C 0.97758 0.92955 0.39123 0.0
C558 C 0.02227 0.97055 0.39055 0.0
C559 C 0.96819 0.88795 0.38292 0.0
C560 C 0.00339 0.88677 0.37389 0.0
C561 C 0.04796 0.92755 0.37324 0.0
H562 H 0.05633 0.68367 0.32828 0.0
H563 H 0.0484 0.73807 0.34679 0.0
C564 C 0.05738 0.96901 0.3815 0.0
C565 C 0.9938 0.84382 0.36455 0.0
H566 H 0.97518 0.73308 0.36677 0.0
C567 C -0.00329 0.84581 0.34857 0.0
C568 C 0.98549 0.80265 0.37125 0.0
C569 C 0.98332 0.7994 0.38842 0.0
C570 C 0.99269 0.80809 0.33907 0.0
C571 C 0.98469 0.76697 0.34575 0.0
C572 C 0.98085 0.76455 0.36172 0.0
C573 C 0.98426 0.72798 0.33631 0.0
C574 C -0.0009 0.81338 0.32201 0.0
C575 C 0.9497 0.70296 0.32472 0.0
C576 C 0.95442 0.67232 0.31404 0.0
C577 C 0.99363 0.66599 0.31486 0.0
C578 C 0.02619 0.68843 0.3272 0.0
C579 C 0.02152 0.7192 0.33785 0.0
H580 H 0.01424 0.85047 0.31914 0.0
H581 H 0.0227 0.80059 0.31749 0.0
H582 H 0.96419 0.79201 0.31602 0.0
H583 H 0.92039 0.70894 0.32349 0.0
H584 H 0.9289 0.6559 0.30462 0.0
H585 H 0.20689 0.10282 0.70328 0.0
H586 H 0.27565 0.10117 0.69306 0.0
H587 H 0.24016 0.98013 0.71821 0.0
H588 H 0.17046 0.98113 0.72845 0.0
H589 H 0.35249 0.10769 0.71045 0.0
H590 H 0.25622 0.94097 0.67336 0.0
H591 H 0.22743 0.97227 0.68073 0.0
H592 H 0.24093 0.93973 0.69327 0.0
C593 C 0.2134 0.07561 0.7066 0.0
C594 C 0.18313 0.042 0.71663 0.0
C595 C 0.25284 0.07486 0.70079 0.0
C596 C 0.26282 0.04048 0.70486 0.0
C597 C 0.23269 0.00664 0.71482 0.0
H598 H 0.4885 0.01776 0.65611 0.0
H599 H 0.43252 0.00565 0.67674 0.0
C600 C 0.19298 0.00731 0.72065 0.0
C601 C 0.30505 0.0409 0.6985 0.0
H602 H 0.33853 0.98622 0.6709 0.0
C603 C 0.34963 0.08071 0.70202 0.0
C604 C 0.30116 0.0054 0.68764 0.0
C605 C 0.25394 0.96218 0.6834 0.0
C606 C 0.39007 0.08732 0.69425 0.0
C607 C 0.38556 0.05352 0.68257 0.0
C608 C 0.3417 0.01206 0.67986 0.0
C609 C 0.42363 0.06371 0.67152 0.0
C610 C 0.43696 0.13129 0.69815 0.0
C611 C 0.43707 0.10036 0.66185 0.0
C612 C 0.46827 0.10693 0.64997 0.0
C613 C 0.48683 0.07698 0.64752 0.0
C614 C 0.47452 0.04117 0.65759 0.0
C615 C 0.44283 0.03436 0.66943 0.0
H616 H 0.43795 0.14528 0.71015 0.0
H617 H 0.46678 0.12462 0.69661 0.0
H618 H 0.4422 0.15875 0.69042 0.0
H619 H 0.42167 0.12263 0.66304 0.0
H620 H 0.47587 0.13407 0.64226 0.0
H621 H 0.15455 0.17605 0.04462 0.0
H622 H 0.20872 0.24189 0.02992 0.0
H623 H 0.30539 0.30325 0.06881 0.0
H624 H 0.25112 0.23693 0.08377 0.0
H625 H 0.24408 0.34151 0.03832 0.0
H626 H 0.38491 0.29474 0.03158 0.0
H627 H 0.32519 0.25228 0.03661 0.0
H628 H 0.36379 0.29766 0.05056 0.0
C629 C 0.18734 0.20336 0.0501 0.0
C630 C 0.19861 0.20116 0.06537 0.0
C631 C 0.21816 0.24104 0.04168 0.0
C632 C 0.26096 0.27717 0.04829 0.0
C633 C 0.27257 0.27537 0.06351 0.0
H634 H 0.43026 0.52459 0.99479 0.0
H635 H 0.39274 0.4779 0.01687 0.0
C636 C 0.24155 0.23756 0.07202 0.0
C637 C 0.29294 0.31632 0.03896 0.0
H638 H 0.39309 0.357 0.01787 0.0
C639 C 0.27715 0.34563 0.03404 0.0
C640 C 0.33577 0.32109 0.0334 0.0
C641 C 0.35362 0.28976 0.03819 0.0
C642 C 0.30214 0.37843 0.02315 0.0
C643 C 0.34409 0.38203 0.01717 0.0
C644 C 0.36093 0.35409 0.02257 0.0
C645 C 0.36811 0.41088 0.00416 0.0
C646 C 0.2822 0.4071 0.01748 0.0
C647 C 0.36694 0.38852 0.98983 0.0
C648 C 0.38797 0.41491 0.97723 0.0
C649 C 0.41083 0.46425 0.97877 0.0
C650 C 0.41229 0.48661 0.99321 0.0
C651 C 0.39112 0.46009 0.00583 0.0
H652 H 0.24605 0.39542 0.02177 0.0
H653 H 0.30562 0.44459 0.02144 0.0
H654 H 0.28087 0.40475 0.00474 0.0
H655 H 0.34906 0.35051 0.98834 0.0
H656 H 0.38567 0.39661 0.96623 0.0
H657 H 0.09395 0.23554 0.39024 0.0
H658 H 0.08227 0.28835 0.37503 0.0
H659 H 0.0064 0.17538 0.34035 0.0
H660 H 0.01707 0.12207 0.35561 0.0
H661 H 0.11129 0.31432 0.34576 0.0
H662 H 0.91537 0.22348 0.3486 0.0
H663 H 0.95067 0.21108 0.36097 0.0
H664 H 0.93719 0.18595 0.34151 0.0
C665 C 0.07467 0.22187 0.37939 0.0
C666 C 0.05617 0.17453 0.37417 0.0
C667 C 0.06801 0.25209 0.37073 0.0
C668 C 0.04271 0.23552 0.35672 0.0
C669 C 0.02499 0.18854 0.35133 0.0
H670 H 0.98202 0.36174 0.28385 0.0
H671 H 0.98768 0.30882 0.3008 0.0
C672 C 0.03141 0.15822 0.36001 0.0
C673 C 0.0361 0.26778 0.34753 0.0
H674 H 0.95193 0.28369 0.33111 0.0
C675 C 0.07648 0.30786 0.34264 0.0
C676 C 0.99059 0.25915 0.34351 0.0
C677 C 0.94596 0.21783 0.34903 0.0
C678 C 0.07259 0.33905 0.33352 0.0
C679 C 0.0271 0.33017 0.32939 0.0
C680 C 0.98671 0.29027 0.33433 0.0
C681 C 0.02087 0.36151 0.31965 0.0
C682 C 0.11714 0.3806 0.32806 0.0
C683 C 0.03652 0.40823 0.32484 0.0
C684 C 0.0331 0.43848 0.31524 0.0
C685 C 0.01376 0.42239 0.3003 0.0
C686 C 0.99661 0.37506 0.29535 0.0
C687 C 5e-05 0.34486 0.30497 0.0
H688 H 0.14857 0.37665 0.32938 0.0
H689 H 0.11329 0.38543 0.31581 0.0
H690 H 0.12385 0.41295 0.33491 0.0
H691 H 0.05186 0.42141 0.33626 0.0
H692 H 0.04592 0.47455 0.31945 0.0
loop_
_geom_bond_atom_site_label_1
_geom_bond_atom_site_label_2
_geom_bond_distance
_geom_bond_site_symmetry_2
_ccdc_geom_bond_type
C0 O1 1.160 . S
C0 O7 1.185 . S
O1 C0 1.160 . S
O2 Zn3 1.899 . S
O2 C10 1.284 . S
Zn3 O2 1.899 . S
Zn3 O4 2.032 . S
Zn3 O7 2.086 . S
Zn3 O12 1.977 . S
O4 Zn3 2.032 . S
O4 C8 1.278 . S
C5 O6 1.203 . S
C5 O12 1.267 . S
O6 C5 1.203 . S
O7 C0 1.185 . S
O7 Zn3 2.086 . S
C8 O4 1.278 . S
C8 O9 1.211 . S
O9 C8 1.211 . S
C10 O2 1.284 . S
C10 O11 1.273 . S
O11 C10 1.273 . S
O12 Zn3 1.977 . S
O12 C5 1.267 . S
C13 O14 1.160 . S
C13 O20 1.185 . S
O14 C13 1.160 . S
O15 Zn16 1.899 . S
O15 C23 1.284 . S
Zn16 O15 1.899 . S
Zn16 O17 2.032 . S
Zn16 O20 2.086 . S
Zn16 O25 1.977 . S
O17 Zn16 2.032 . S
O17 C21 1.278 . S
C18 O19 1.203 . S
C18 O25 1.267 . S
O19 C18 1.203 . S
O20 C13 1.185 . S
O20 Zn16 2.086 . S
C21 O17 1.278 . S
C21 O22 1.211 . S
O22 C21 1.211 . S
C23 O15 1.284 . S
C23 O24 1.273 1_545 S
O24 C23 1.273 1_565 S
O25 Zn16 1.977 . S
O25 C18 1.267 . S
C26 O27 1.160 . S
C26 O33 1.185 . S
O27 C26 1.160 . S
O28 Zn29 1.899 . S
O28 C36 1.284 . S
Zn29 O28 1.899 . S
Zn29 O30 2.032 . S
Zn29 O33 2.086 . S
Zn29 O38 1.977 . S
O30 Zn29 2.032 . S
O30 C34 1.278 . S
C31 O32 1.203 . S
C31 O38 1.267 . S
O32 C31 1.203 . S
O33 C26 1.185 . S
O33 Zn29 2.086 . S
C34 O30 1.278 . S
C34 O35 1.211 . S
O35 C34 1.211 . S
C36 O28 1.284 . S
C36 O37 1.273 . S
O37 C36 1.273 . S
O38 Zn29 1.977 . S
O38 C31 1.267 . S
H39 O65 0.856 . S
H40 O68 0.854 . S
H41 C76 0.930 . S
H42 C77 0.930 . S
H43 C79 0.930 . S
H44 C80 0.930 . S
H45 C82 0.931 1_655 S
H46 C83 0.930 1_655 S
H47 C85 0.930 . S
H48 C86 0.929 . S
H49 C88 0.930 1_655 S
H50 C89 0.931 1_655 S
H51 C91 0.930 . S
H52 C92 0.929 . S
H53 C94 0.931 1_655 S
H54 C95 0.930 1_655 S
H55 C97 0.930 . S
H56 C98 0.932 . S
H57 C100 0.938 . S
H58 C101 0.929 . S
H59 C103 0.931 . S
H60 C104 0.930 . S
H61 C106 0.929 1_655 S
H62 C107 0.931 1_655 S
H63 C109 0.930 . S
H64 C110 0.929 . S
O65 H39 0.856 . S
O65 C111 1.300 . S
O66 C111 1.209 . S
O67 C112 1.199 . S
O68 H40 0.854 . S
O68 C112 1.297 . S
C69 C70 1.404 . S
C69 C74 1.397 . S
C69 C75 1.492 . S
C70 C69 1.404 . S
C70 C71 1.396 . S
C70 C81 1.492 . S
C71 C70 1.396 . S
C71 C72 1.397 . S
C71 C87 1.509 . S
C72 C71 1.397 . S
C72 C73 1.412 . S
C72 C93 1.485 . S
C73 C72 1.412 . S
C73 C74 1.388 . S
C73 C99 1.490 . S
C74 C69 1.397 . S
C74 C73 1.388 . S
C74 C105 1.519 . S
C75 C69 1.492 . S
C75 C76 1.363 1_455 S
C75 C80 1.390 . S
C76 H41 0.930 . S
C76 C75 1.363 1_655 S
C76 C77 1.372 . S
C77 H42 0.930 . S
C77 C76 1.372 . S
C77 C78 1.383 1_655 S
C78 C77 1.383 1_455 S
C78 C79 1.395 . S
C79 H43 0.930 . S
C79 C78 1.395 . S
C79 C80 1.362 . S
C80 H44 0.930 . S
C80 C75 1.390 . S
C80 C79 1.362 . S
C81 C70 1.492 . S
C81 C82 1.377 . S
C81 C86 1.397 . S
C82 H45 0.931 1_455 S
C82 C81 1.377 . S
C82 C83 1.376 . S
C83 H46 0.930 1_455 S
C83 C82 1.376 . S
C83 C84 1.376 . S
C84 C83 1.376 . S
C84 C85 1.378 . S
C84 C111 1.486 . S
C85 H47 0.930 . S
C85 C84 1.378 . S
C85 C86 1.376 . S
C86 H48 0.929 . S
C86 C81 1.397 . S
C86 C85 1.376 . S
C87 C71 1.509 . S
C87 C88 1.391 . S
C87 C92 1.386 . S
C88 H49 0.930 1_455 S
C88 C87 1.391 . S
C88 C89 1.375 . S
C89 H50 0.931 1_455 S
C89 C88 1.375 . S
C89 C90 1.375 . S
C90 C89 1.375 . S
C90 C91 1.361 . S
C91 H51 0.930 . S
C91 C90 1.361 . S
C91 C92 1.399 . S
C92 H52 0.929 . S
C92 C87 1.386 . S
C92 C91 1.399 . S
C93 C72 1.485 . S
C93 C94 1.394 . S
C93 C98 1.360 . S
C94 H53 0.931 1_455 S
C94 C93 1.394 . S
C94 C95 1.372 . S
C95 H54 0.930 1_455 S
C95 C94 1.372 . S
C95 C96 1.397 . S
C96 C95 1.397 . S
C96 C97 1.390 . S
C96 C112 1.476 . S
C97 H55 0.930 . S
C97 C96 1.390 . S
C97 C98 1.366 . S
C98 H56 0.932 . S
C98 C93 1.360 . S
C98 C97 1.366 . S
C99 C73 1.490 . S
C99 C100 1.368 1_455 S
C99 C104 1.386 . S
C100 H57 0.938 . S
C100 C99 1.368 1_655 S
C100 C101 1.386 . S
C101 H58 0.929 . S
C101 C100 1.386 . S
C101 C102 1.371 1_655 S
C102 C101 1.371 1_455 S
C102 C103 1.380 . S
C103 H59 0.931 . S
C103 C102 1.380 . S
C103 C104 1.387 . S
C104 H60 0.930 . S
C104 C99 1.386 . S
C104 C103 1.387 . S
C105 C74 1.519 . S
C105 C106 1.377 . S
C105 C110 1.361 . S
C106 H61 0.929 1_455 S
C106 C105 1.377 . S
C106 C107 1.386 . S
C107 H62 0.931 1_455 S
C107 C106 1.386 . S
C107 C108 1.363 . S
C108 C107 1.363 . S
C108 C109 1.385 . S
C109 H63 0.930 . S
C109 C108 1.385 . S
C109 C110 1.396 . S
C110 H64 0.929 . S
C110 C105 1.361 . S
C110 C109 1.396 . S
C111 O65 1.300 . S
C111 O66 1.209 . S
C111 C84 1.486 . S
C112 O67 1.199 . S
C112 O68 1.297 . S
C112 C96 1.476 . S
H113 O139 0.856 . S
H114 O142 0.854 . S
H115 C150 0.930 . S
H116 C151 0.930 . S
H117 C153 0.930 . S
H118 C154 0.930 . S
H119 C156 0.931 . S
H120 C157 0.930 . S
H121 C159 0.930 . S
H122 C160 0.929 . S
H123 C162 0.930 . S
H124 C163 0.931 . S
H125 C165 0.930 . S
H126 C166 0.929 . S
H127 C168 0.931 . S
H128 C169 0.930 . S
H129 C171 0.930 . S
H130 C172 0.932 . S
H131 C174 0.930 . S
H132 C175 0.929 . S
H133 C177 0.931 . S
H134 C178 0.930 . S
H135 C180 0.929 . S
H136 C181 0.931 . S
H137 C183 0.930 . S
H138 C184 0.929 . S
O139 H113 0.856 . S
O139 C185 1.300 . S
O140 C185 1.209 . S
O141 C186 1.199 . S
O142 H114 0.854 . S
O142 C186 1.297 . S
C143 C144 1.404 . S
C143 C148 1.397 . S
C143 C149 1.492 . S
C144 C143 1.404 . S
C144 C145 1.396 . S
C144 C155 1.492 . S
C145 C144 1.396 . S
C145 C146 1.397 . S
C145 C161 1.509 . S
C146 C145 1.397 . S
C146 C147 1.412 . S
C146 C167 1.485 . S
C147 C146 1.412 . S
C147 C148 1.388 . S
C147 C173 1.490 . S
C148 C143 1.397 . S
C148 C147 1.388 . S
C148 C179 1.519 . S
C149 C143 1.492 . S
C149 C150 1.363 . S
C149 C154 1.390 . S
C150 H115 0.930 . S
C150 C149 1.363 . S
C150 C151 1.372 . S
C151 H116 0.930 . S
C151 C150 1.372 . S
C151 C152 1.383 . S
C152 C151 1.383 . S
C152 C153 1.395 . S
C153 H117 0.930 . S
C153 C152 1.395 . S
C153 C154 1.362 . S
C154 H118 0.930 . S
C154 C149 1.390 . S
C154 C153 1.362 . S
C155 C144 1.492 . S
C155 C156 1.377 . S
C155 C160 1.397 . S
C156 H119 0.931 . S
C156 C155 1.377 . S
C156 C157 1.376 . S
C157 H120 0.930 . S
C157 C156 1.376 . S
C157 C158 1.376 . S
C158 C157 1.376 . S
C158 C159 1.378 . S
C158 C185 1.486 . S
C159 H121 0.930 . S
C159 C158 1.378 . S
C159 C160 1.376 . S
C160 H122 0.929 . S
C160 C155 1.397 . S
C160 C159 1.376 . S
C161 C145 1.509 . S
C161 C162 1.391 . S
C161 C166 1.386 . S
C162 H123 0.930 . S
C162 C161 1.391 . S
C162 C163 1.375 . S
C163 H124 0.931 . S
C163 C162 1.375 . S
C163 C164 1.375 . S
C164 C163 1.375 . S
C164 C165 1.361 . S
C165 H125 0.930 . S
C165 C164 1.361 . S
C165 C166 1.399 . S
C166 H126 0.929 . S
C166 C161 1.386 . S
C166 C165 1.399 . S
C167 C146 1.485 . S
C167 C168 1.394 . S
C167 C172 1.360 . S
C168 H127 0.931 . S
C168 C167 1.394 . S
C168 C169 1.372 . S
C169 H128 0.930 . S
C169 C168 1.372 . S
C169 C170 1.397 . S
C170 C169 1.397 . S
C170 C171 1.390 . S
C170 C186 1.476 . S
C171 H129 0.930 . S
C171 C170 1.390 . S
C171 C172 1.366 . S
C172 H130 0.932 . S
C172 C167 1.360 . S
C172 C171 1.366 . S
C173 C147 1.490 . S
C173 C174 1.380 . S
C173 C178 1.386 . S
C174 H131 0.930 . S
C174 C173 1.380 . S
C174 C175 1.381 . S
C175 H132 0.929 . S
C175 C174 1.381 . S
C175 C176 1.371 . S
C176 C175 1.371 . S
C176 C177 1.380 . S
C177 H133 0.931 . S
C177 C176 1.380 . S
C177 C178 1.387 . S
C178 H134 0.930 . S
C178 C173 1.386 . S
C178 C177 1.387 . S
C179 C148 1.519 . S
C179 C180 1.377 . S
C179 C184 1.361 . S
C180 H135 0.929 . S
C180 C179 1.377 . S
C180 C181 1.386 . S
C181 H136 0.931 . S
C181 C180 1.386 . S
C181 C182 1.363 . S
C182 C181 1.363 . S
C182 C183 1.385 . S
C183 H137 0.930 . S
C183 C182 1.385 . S
C183 C184 1.396 . S
C184 H138 0.929 . S
C184 C179 1.361 . S
C184 C183 1.396 . S
C185 O139 1.300 . S
C185 O140 1.209 . S
C185 C158 1.486 . S
C186 O141 1.199 . S
C186 O142 1.297 . S
C186 C170 1.476 . S
H187 O213 0.856 . S
H188 O216 0.854 . S
H189 C224 0.930 . S
H190 C225 0.930 . S
H191 C227 0.930 . S
H192 C228 0.930 . S
H193 C230 0.931 . S
H194 C231 0.930 . S
H195 C233 0.930 . S
H196 C234 0.929 . S
H197 C236 0.930 . S
H198 C237 0.931 . S
H199 C239 0.930 . S
H200 C240 0.929 . S
H201 C242 0.931 . S
H202 C243 0.930 . S
H203 C245 0.930 . S
H204 C246 0.932 . S
H205 C248 0.930 . S
H206 C249 0.929 . S
H207 C251 0.931 . S
H208 C252 0.930 . S
H209 C254 0.929 . S
H210 C255 0.931 . S
H211 C257 0.930 . S
H212 C258 0.929 . S
O213 H187 0.856 . S
O213 C259 1.300 . S
O214 C259 1.209 . S
O215 C260 1.199 . S
O216 H188 0.854 . S
O216 C260 1.297 . S
C217 C218 1.404 . S
C217 C222 1.397 . S
C217 C223 1.492 . S
C218 C217 1.404 . S
C218 C219 1.396 . S
C218 C229 1.492 . S
C219 C218 1.396 . S
C219 C220 1.397 . S
C219 C235 1.509 . S
C220 C219 1.397 . S
C220 C221 1.412 . S
C220 C241 1.485 . S
C221 C220 1.412 . S
C221 C222 1.388 . S
C221 C247 1.490 . S
C222 C217 1.397 . S
C222 C221 1.388 . S
C222 C253 1.519 . S
C223 C217 1.492 . S
C223 C224 1.363 . S
C223 C228 1.390 . S
C224 H189 0.930 . S
C224 C223 1.363 . S
C224 C225 1.372 . S
C225 H190 0.930 . S
C225 C224 1.372 . S
C225 C226 1.383 . S
C226 C225 1.383 . S
C226 C227 1.395 . S
C227 H191 0.930 . S
C227 C226 1.395 . S
C227 C228 1.362 . S
C228 H192 0.930 . S
C228 C223 1.390 . S
C228 C227 1.362 . S
C229 C218 1.492 . S
C229 C230 1.377 . S
C229 C234 1.397 . S
C230 H193 0.931 . S
C230 C229 1.377 . S
C230 C231 1.376 . S
C231 H194 0.930 . S
C231 C230 1.376 . S
C231 C232 1.376 . S
C232 C231 1.376 . S
C232 C233 1.378 . S
C232 C259 1.486 1_556 S
C233 H195 0.930 . S
C233 C232 1.378 . S
C233 C234 1.376 . S
C234 H196 0.929 . S
C234 C229 1.397 . S
C234 C233 1.376 . S
C235 C219 1.509 . S
C235 C236 1.391 . S
C235 C240 1.386 . S
C236 H197 0.930 . S
C236 C235 1.391 . S
C236 C237 1.375 . S
C237 H198 0.931 . S
C237 C236 1.375 . S
C237 C238 1.375 . S
C238 C237 1.375 . S
C238 C239 1.361 . S
C239 H199 0.930 . S
C239 C238 1.361 . S
C239 C240 1.399 . S
C240 H200 0.929 . S
C240 C235 1.386 . S
C240 C239 1.399 . S
C241 C220 1.485 . S
C241 C242 1.394 . S
C241 C246 1.360 . S
C242 H201 0.931 . S
C242 C241 1.394 . S
C242 C243 1.372 . S
C243 H202 0.930 . S
C243 C242 1.372 . S
C243 C244 1.397 . S
C244 C243 1.397 . S
C244 C245 1.390 . S
C244 C260 1.476 . S
C245 H203 0.930 . S
C245 C244 1.390 . S
C245 C246 1.366 . S
C246 H204 0.932 . S
C246 C241 1.360 . S
C246 C245 1.366 . S
C247 C221 1.490 . S
C247 C248 1.380 . S
C247 C252 1.386 . S
C248 H205 0.930 . S
C248 C247 1.380 . S
C248 C249 1.381 . S
C249 H206 0.929 . S
C249 C248 1.381 . S
C249 C250 1.371 . S
C250 C249 1.371 . S
C250 C251 1.380 . S
C251 H207 0.931 . S
C251 C250 1.380 . S
C251 C252 1.387 . S
C252 H208 0.930 . S
C252 C247 1.386 . S
C252 C251 1.387 . S
C253 C222 1.519 . S
C253 C254 1.377 . S
C253 C258 1.361 . S
C254 H209 0.929 . S
C254 C253 1.377 . S
C254 C255 1.386 . S
C255 H210 0.931 . S
C255 C254 1.386 . S
C255 C256 1.363 . S
C256 C255 1.363 . S
C256 C257 1.385 . S
C257 H211 0.930 . S
C257 C256 1.385 . S
C257 C258 1.396 . S
C258 H212 0.929 . S
C258 C253 1.361 . S
C258 C257 1.396 . S
C259 O213 1.300 . S
C259 O214 1.209 . S
C259 C232 1.486 1_554 S
C260 O215 1.199 . S
C260 O216 1.297 . S
C260 C244 1.476 . S
H261 C269 0.929 . S
H262 C271 0.930 . S
H263 C273 0.930 . S
H264 C276 0.929 . S
H265 C279 0.930 . S
H266 C281 0.960 . S
H267 C281 0.960 . S
H268 C281 0.960 . S
C269 H261 0.929 . S
C269 C270 1.377 . S
C269 C271 1.384 . S
C270 C269 1.377 . S
C270 C276 1.390 . S
C271 H262 0.930 . S
C271 C269 1.384 . S
C271 C272 1.372 . S
C272 C271 1.372 . S
C272 C273 1.400 . S
C272 C277 1.490 . S
C273 H263 0.930 . S
C273 C272 1.400 . S
C273 C276 1.386 . S
H274 C290 0.930 . S
H275 C291 0.931 . S
C276 H264 0.929 . S
C276 C270 1.390 . S
C276 C273 1.386 . S
C277 C272 1.490 . S
C277 C279 1.395 . S
C277 C280 1.403 . S
H278 C284 0.930 1_655 S
C279 H265 0.930 . S
C279 C277 1.395 . S
C279 C282 1.403 . S
C280 C277 1.403 . S
C280 C281 1.524 1_455 S
C280 C284 1.400 . S
C281 H266 0.960 . S
C281 H267 0.960 . S
C281 H268 0.960 . S
C281 C280 1.524 1_655 S
C282 C279 1.403 . S
C282 C283 1.392 . S
C282 C286 1.495 . S
C283 C282 1.392 . S
C283 C284 1.385 . S
C283 C285 1.478 . S
C284 H278 0.930 1_455 S
C284 C280 1.400 . S
C284 C283 1.385 . S
C285 C283 1.478 . S
C285 C287 1.381 . S
C285 C291 1.383 . S
C286 C282 1.495 . S
C286 H292 0.959 . S
C286 H293 0.961 . S
C286 H294 0.960 . S
C287 C285 1.381 . S
C287 C288 1.394 . S
C287 H295 0.930 . S
C288 C287 1.394 . S
C288 C289 1.383 . S
C288 H296 0.929 . S
C289 C288 1.383 . S
C289 C290 1.377 . S
C290 H274 0.930 . S
C290 C289 1.377 . S
C290 C291 1.379 . S
C291 H275 0.931 . S
C291 C285 1.383 . S
C291 C290 1.379 . S
H292 C286 0.959 . S
H293 C286 0.961 . S
H294 C286 0.960 . S
H295 C287 0.930 . S
H296 C288 0.929 . S
H297 C305 0.929 1_455 S
H298 C307 0.930 . S
H299 C309 0.930 . S
H300 C312 0.929 . S
H301 C315 0.930 . S
H302 C317 0.960 . S
H303 C317 0.960 . S
H304 C317 0.960 . S
C305 H297 0.929 1_655 S
C305 C306 1.377 . S
C305 C307 1.384 . S
C306 C305 1.377 . S
C306 C312 1.390 . S
C307 H298 0.930 . S
C307 C305 1.384 . S
C307 C308 1.372 . S
C308 C307 1.372 . S
C308 C309 1.400 . S
C308 C313 1.490 . S
C309 H299 0.930 . S
C309 C308 1.400 . S
C309 C312 1.386 . S
H310 C326 0.930 . S
H311 C327 0.931 . S
C312 H300 0.929 . S
C312 C306 1.390 . S
C312 C309 1.386 . S
C313 C308 1.490 . S
C313 C315 1.395 . S
C313 C316 1.403 . S
H314 C320 0.930 . S
C315 H301 0.930 . S
C315 C313 1.395 . S
C315 C318 1.403 . S
C316 C313 1.403 . S
C316 C317 1.524 1_545 S
C316 C320 1.400 . S
C317 H302 0.960 . S
C317 H303 0.960 . S
C317 H304 0.960 . S
C317 C316 1.524 1_565 S
C318 C315 1.403 . S
C318 C319 1.392 . S
C318 C322 1.495 . S
C319 C318 1.392 . S
C319 C320 1.385 . S
C319 C321 1.478 . S
C320 H314 0.930 . S
C320 C316 1.400 . S
C320 C319 1.385 . S
C321 C319 1.478 . S
C321 C323 1.381 . S
C321 C327 1.383 . S
C322 C318 1.495 . S
C322 H328 0.959 . S
C322 H329 0.961 . S
C322 H330 0.960 . S
C323 C321 1.381 . S
C323 C324 1.394 . S
C323 H331 0.930 . S
C324 C323 1.394 . S
C324 C325 1.383 . S
C324 H332 0.929 . S
C325 C324 1.383 . S
C325 C326 1.377 . S
C326 H310 0.930 . S
C326 C325 1.377 . S
C326 C327 1.379 . S
C327 H311 0.931 . S
C327 C321 1.383 . S
C327 C326 1.379 . S
H328 C322 0.959 . S
H329 C322 0.961 . S
H330 C322 0.960 . S
H331 C323 0.930 . S
H332 C324 0.929 . S
H333 C341 0.929 . S
H334 C343 0.930 . S
H335 C345 0.930 . S
H336 C348 0.929 1_455 S
H337 C351 0.930 . S
H338 C353 0.960 . S
H339 C353 0.960 . S
H340 C353 0.960 . S
C341 H333 0.929 . S
C341 C342 1.377 . S
C341 C343 1.384 . S
C342 C341 1.377 . S
C342 C348 1.390 . S
C343 H334 0.930 . S
C343 C341 1.384 . S
C343 C344 1.372 . S
C344 C343 1.372 . S
C344 C345 1.400 . S
C344 C349 1.490 . S
C345 H335 0.930 . S
C345 C344 1.400 . S
C345 C348 1.386 . S
H346 C362 0.930 . S
H347 C363 0.931 . S
C348 H336 0.929 1_655 S
C348 C342 1.390 . S
C348 C345 1.386 . S
C349 C344 1.490 . S
C349 C351 1.395 . S
C349 C352 1.403 . S
H350 C356 0.930 . S
C351 H337 0.930 . S
C351 C349 1.395 . S
C351 C354 1.403 . S
C352 C349 1.403 . S
C352 C353 1.524 . S
C352 C356 1.400 . S
C353 H338 0.960 . S
C353 H339 0.960 . S
C353 H340 0.960 . S
C353 C352 1.524 . S
C354 C351 1.403 . S
C354 C355 1.392 . S
C354 C358 1.495 . S
C355 C354 1.392 . S
C355 C356 1.385 . S
C355 C357 1.478 . S
C356 H350 0.930 . S
C356 C352 1.400 . S
C356 C355 1.385 . S
C357 C355 1.478 . S
C357 C359 1.381 . S
C357 C363 1.383 . S
C358 C354 1.495 . S
C358 H364 0.959 . S
C358 H365 0.961 . S
C358 H366 0.960 . S
C359 C357 1.381 . S
C359 C360 1.394 . S
C359 H367 0.930 . S
C360 C359 1.394 . S
C360 C361 1.383 . S
C360 H368 0.929 . S
C361 C360 1.383 . S
C361 C362 1.377 . S
C362 H346 0.930 . S
C362 C361 1.377 . S
C362 C363 1.379 . S
C363 H347 0.931 . S
C363 C357 1.383 . S
C363 C362 1.379 . S
H364 C358 0.959 . S
H365 C358 0.961 . S
H366 C358 0.960 . S
H367 C359 0.930 . S
H368 C360 0.929 . S
H369 C377 0.929 . S
H370 C379 0.930 . S
H371 C381 0.930 . S
H372 C384 0.929 . S
H373 C387 0.930 . S
H374 C389 0.960 . S
H375 C389 0.960 . S
H376 C389 0.960 . S
C377 H369 0.929 . S
C377 C378 1.377 1_565 S
C377 C379 1.384 . S
C378 C377 1.377 1_545 S
C378 C384 1.390 . S
C379 H370 0.930 . S
C379 C377 1.384 . S
C379 C380 1.372 . S
C380 C379 1.372 . S
C380 C381 1.400 . S
C380 C385 1.490 . S
C381 H371 0.930 . S
C381 C380 1.400 . S
C381 C384 1.386 1_565 S
H382 C398 0.930 . S
H383 C399 0.931 . S
C384 H372 0.929 . S
C384 C378 1.390 . S
C384 C381 1.386 1_545 S
C385 C380 1.490 . S
C385 C387 1.395 . S
C385 C388 1.403 . S
H386 C392 0.930 . S
C387 H373 0.930 . S
C387 C385 1.395 . S
C387 C390 1.403 . S
C388 C385 1.403 . S
C388 C389 1.524 . S
C388 C392 1.400 . S
C389 H374 0.960 . S
C389 H375 0.960 . S
C389 H376 0.960 . S
C389 C388 1.524 . S
C390 C387 1.403 . S
C390 C391 1.392 . S
C390 C394 1.495 . S
C391 C390 1.392 . S
C391 C392 1.385 . S
C391 C393 1.478 . S
C392 H386 0.930 . S
C392 C388 1.400 . S
C392 C391 1.385 . S
C393 C391 1.478 . S
C393 C395 1.381 . S
C393 C399 1.383 . S
C394 C390 1.495 . S
C394 H400 0.959 . S
C394 H401 0.961 . S
C394 H402 0.960 . S
C395 C393 1.381 . S
C395 C396 1.394 . S
C395 H403 0.930 . S
C396 C395 1.394 . S
C396 C397 1.383 . S
C396 H404 0.929 . S
C397 C396 1.383 . S
C397 C398 1.377 . S
C398 H382 0.930 . S
C398 C397 1.377 . S
C398 C399 1.379 . S
C399 H383 0.931 . S
C399 C393 1.383 . S
C399 C398 1.379 . S
H400 C394 0.959 . S
H401 C394 0.961 . S
H402 C394 0.960 . S
H403 C395 0.930 . S
H404 C396 0.929 . S
H405 C413 0.929 . S
H406 C415 0.930 . S
H407 C417 0.930 . S
H408 C420 0.929 . S
H409 C423 0.930 . S
H410 C425 0.960 . S
H411 C425 0.960 . S
H412 C425 0.960 . S
C413 H405 0.929 . S
C413 C414 1.377 . S
C413 C415 1.384 . S
C414 C413 1.377 . S
C414 C420 1.390 . S
C415 H406 0.930 . S
C415 C413 1.384 . S
C415 C416 1.372 . S
C416 C415 1.372 . S
C416 C417 1.400 . S
C416 C421 1.490 . S
C417 H407 0.930 . S
C417 C416 1.400 . S
C417 C420 1.386 . S
H418 C434 0.930 . S
H419 C435 0.931 . S
C420 H408 0.929 . S
C420 C414 1.390 . S
C420 C417 1.386 . S
C421 C416 1.490 . S
C421 C423 1.395 . S
C421 C424 1.403 . S
H422 C428 0.930 . S
C423 H409 0.930 . S
C423 C421 1.395 . S
C423 C426 1.403 . S
C424 C421 1.403 . S
C424 C425 1.524 . S
C424 C428 1.400 . S
C425 H410 0.960 . S
C425 H411 0.960 . S
C425 H412 0.960 . S
C425 C424 1.524 . S
C426 C423 1.403 . S
C426 C427 1.392 . S
C426 C430 1.495 . S
C427 C426 1.392 . S
C427 C428 1.385 . S
C427 C429 1.478 . S
C428 H422 0.930 . S
C428 C424 1.400 . S
C428 C427 1.385 . S
C429 C427 1.478 . S
C429 C431 1.381 . S
C429 C435 1.383 . S
C430 C426 1.495 . S
C430 H436 0.959 . S
C430 H437 0.961 . S
C430 H438 0.960 . S
C431 C429 1.381 . S
C431 C432 1.394 . S
C431 H439 0.930 . S
C432 C431 1.394 . S
C432 C433 1.383 . S
C432 H440 0.929 . S
C433 C432 1.383 . S
C433 C434 1.377 . S
C434 H418 0.930 . S
C434 C433 1.377 . S
C434 C435 1.379 . S
C435 H419 0.931 . S
C435 C429 1.383 . S
C435 C434 1.379 . S
H436 C430 0.959 . S
H437 C430 0.961 . S
H438 C430 0.960 . S
H439 C431 0.930 . S
H440 C432 0.929 . S
H441 C449 0.929 . S
H442 C451 0.930 . S
H443 C453 0.930 . S
H444 C456 0.929 . S
H445 C459 0.930 . S
H446 C461 0.960 . S
H447 C461 0.960 . S
H448 C461 0.960 . S
C449 H441 0.929 . S
C449 C450 1.377 . S
C449 C451 1.384 . S
C450 C449 1.377 . S
C450 C456 1.390 . S
C451 H442 0.930 . S
C451 C449 1.384 . S
C451 C452 1.372 . S
C452 C451 1.372 . S
C452 C453 1.400 . S
C452 C457 1.490 . S
C453 H443 0.930 . S
C453 C452 1.400 . S
C453 C456 1.386 . S
H454 C470 0.930 . S
H455 C471 0.931 . S
C456 H444 0.929 . S
C456 C450 1.390 . S
C456 C453 1.386 . S
C457 C452 1.490 . S
C457 C459 1.395 . S
C457 C460 1.403 . S
H458 C464 0.930 . S
C459 H445 0.930 . S
C459 C457 1.395 . S
C459 C462 1.403 . S
C460 C457 1.403 . S
C460 C461 1.524 . S
C460 C464 1.400 . S
C461 H446 0.960 . S
C461 H447 0.960 . S
C461 H448 0.960 . S
C461 C460 1.524 . S
C462 C459 1.403 . S
C462 C463 1.392 . S
C462 C466 1.495 . S
C463 C462 1.392 . S
C463 C464 1.385 . S
C463 C465 1.478 . S
C464 H458 0.930 . S
C464 C460 1.400 . S
C464 C463 1.385 . S
C465 C463 1.478 . S
C465 C467 1.381 . S
C465 C471 1.383 . S
C466 C462 1.495 . S
C466 H472 0.959 . S
C466 H473 0.961 . S
C466 H474 0.960 . S
C467 C465 1.381 . S
C467 C468 1.394 . S
C467 H475 0.930 . S
C468 C467 1.394 . S
C468 C469 1.383 . S
C468 H476 0.929 . S
C469 C468 1.383 . S
C469 C470 1.377 . S
C470 H454 0.930 . S
C470 C469 1.377 . S
C470 C471 1.379 . S
C471 H455 0.931 . S
C471 C465 1.383 . S
C471 C470 1.379 . S
H472 C466 0.959 . S
H473 C466 0.961 . S
H474 C466 0.960 . S
H475 C467 0.930 . S
H476 C468 0.929 . S
H477 C485 0.929 . S
H478 C487 0.930 . S
H479 C489 0.930 . S
H480 C492 0.929 . S
H481 C495 0.930 . S
H482 C497 0.960 . S
H483 C497 0.960 . S
H484 C497 0.960 . S
C485 H477 0.929 . S
C485 C486 1.377 1_455 S
C485 C487 1.384 1_455 S
C486 C485 1.377 1_655 S
C486 C492 1.393 . S
C487 H478 0.930 . S
C487 C485 1.384 1_655 S
C487 C488 1.372 . S
C488 C487 1.372 . S
C488 C489 1.400 . S
C488 C493 1.490 . S
C489 H479 0.930 . S
C489 C488 1.400 . S
C489 C492 1.386 . S
H490 C506 0.930 . S
H491 C507 0.931 . S
C492 H480 0.929 . S
C492 C486 1.393 . S
C492 C489 1.386 . S
C493 C488 1.490 . S
C493 C495 1.395 . S
C493 C496 1.403 . S
H494 C500 0.930 . S
C495 H481 0.930 . S
C495 C493 1.395 . S
C495 C498 1.403 . S
C496 C493 1.403 . S
C496 C497 1.524 . S
C496 C500 1.400 . S
C497 H482 0.960 . S
C497 H483 0.960 . S
C497 H484 0.960 . S
C497 C496 1.524 . S
C498 C495 1.403 . S
C498 C499 1.392 . S
C498 C502 1.495 . S
C499 C498 1.392 . S
C499 C500 1.385 . S
C499 C501 1.478 . S
C500 H494 0.930 . S
C500 C496 1.400 . S
C500 C499 1.385 . S
C501 C499 1.478 . S
C501 C503 1.381 . S
C501 C507 1.383 . S
C502 C498 1.495 . S
C502 H508 0.959 . S
C502 H509 0.961 . S
C502 H510 0.960 . S
C503 C501 1.381 . S
C503 C504 1.394 . S
C503 H511 0.930 . S
C504 C503 1.394 . S
C504 C505 1.383 . S
C504 H512 0.929 . S
C505 C504 1.383 . S
C505 C506 1.377 . S
C506 H490 0.930 . S
C506 C505 1.377 . S
C506 C507 1.379 . S
C507 H491 0.931 . S
C507 C501 1.383 . S
C507 C506 1.379 . S
H508 C502 0.959 . S
H509 C502 0.961 . S
H510 C502 0.960 . S
H511 C503 0.930 . S
H512 C504 0.929 . S
H513 C521 0.929 1_455 S
H514 C523 0.930 . S
H515 C525 0.930 . S
H516 C528 0.929 1_545 S
H517 C531 0.930 . S
H518 C533 0.937 1_556 S
H519 C533 0.960 1_545 S
H520 C533 0.960 . S
C521 H513 0.929 1_655 S
C521 C522 1.377 1_565 S
C521 C523 1.384 . S
C522 C521 1.377 1_545 S
C522 C528 1.390 1_545 S
C523 H514 0.930 . S
C523 C521 1.384 . S
C523 C524 1.372 . S
C524 C523 1.372 . S
C524 C525 1.400 . S
C524 C529 1.490 . S
C525 H515 0.930 . S
C525 C524 1.400 . S
C525 C528 1.386 . S
H526 C542 0.930 . S
H527 C543 0.931 . S
C528 H516 0.929 1_565 S
C528 C522 1.390 1_565 S
C528 C525 1.386 . S
C529 C524 1.490 . S
C529 C531 1.395 . S
C529 C532 1.403 . S
H530 C536 0.930 . S
C531 H517 0.930 . S
C531 C529 1.395 . S
C531 C534 1.403 . S
C532 C529 1.403 . S
C532 C533 1.524 . S
C532 C536 1.400 1_554 S
C533 H518 0.937 1_554 S
C533 H519 0.960 1_565 S
C533 H520 0.960 . S
C533 C532 1.524 . S
C534 C531 1.403 . S
C534 C535 1.392 1_554 S
C534 C538 1.495 . S
C535 C534 1.392 1_556 S
C535 C536 1.385 . S
C535 C537 1.478 . S
C536 H530 0.930 . S
C536 C532 1.400 1_556 S
C536 C535 1.385 . S
C537 C535 1.478 . S
C537 C539 1.381 . S
C537 C543 1.383 . S
C538 C534 1.495 . S
C538 H544 0.958 . S
C538 H545 0.961 . S
C538 H546 0.961 1_554 S
C539 C537 1.381 . S
C539 C540 1.394 . S
C539 H547 0.930 . S
C540 C539 1.394 . S
C540 C541 1.383 . S
C540 H548 0.929 . S
C541 C540 1.383 . S
C541 C542 1.377 . S
C542 H526 0.930 . S
C542 C541 1.377 . S
C542 C543 1.379 . S
C543 H527 0.931 . S
C543 C537 1.383 . S
C543 C542 1.379 . S
H544 C538 0.958 . S
H545 C538 0.961 . S
H546 C538 0.961 1_556 S
H547 C539 0.930 . S
H548 C540 0.929 . S
H549 C557 0.929 1_655 S
H550 C559 0.930 1_655 S
H551 C561 0.930 . S
H552 C564 0.929 . S
H553 C567 0.930 . S
H554 C569 0.960 . S
H555 C569 0.960 . S
H556 C569 0.960 . S
C557 H549 0.929 1_455 S
C557 C558 1.377 . S
C557 C559 1.384 . S
C558 C557 1.377 . S
C558 C564 1.390 . S
C559 H550 0.930 1_455 S
C559 C557 1.384 . S
C559 C560 1.372 . S
C560 C559 1.372 . S
C560 C561 1.400 . S
C560 C565 1.490 . S
C561 H551 0.930 . S
C561 C560 1.400 . S
C561 C564 1.386 . S
H562 C578 0.930 . S
H563 C579 0.931 . S
C564 H552 0.929 . S
C564 C558 1.390 . S
C564 C561 1.386 . S
C565 C560 1.490 . S
C565 C567 1.395 . S
C565 C568 1.403 . S
H566 C572 0.930 . S
C567 H553 0.930 . S
C567 C565 1.395 . S
C567 C570 1.403 . S
C568 C565 1.403 . S
C568 C569 1.524 . S
C568 C572 1.400 . S
C569 H554 0.960 . S
C569 H555 0.960 . S
C569 H556 0.960 . S
C569 C568 1.524 . S
C570 C567 1.403 . S
C570 C571 1.392 . S
C570 C574 1.495 . S
C571 C570 1.392 . S
C571 C572 1.385 . S
C571 C573 1.478 . S
C572 H566 0.930 . S
C572 C568 1.400 . S
C572 C571 1.385 . S
C573 C571 1.478 . S
C573 C575 1.381 1_455 S
C573 C579 1.383 . S
C574 C570 1.495 . S
C574 H580 0.959 . S
C574 H581 0.961 . S
C574 H582 0.960 . S
C575 C573 1.381 1_655 S
C575 C576 1.394 . S
C575 H583 0.930 . S
C576 C575 1.394 . S
C576 C577 1.383 1_655 S
C576 H584 0.929 . S
C577 C576 1.383 1_455 S
C577 C578 1.377 . S
C578 H562 0.930 . S
C578 C577 1.377 . S
C578 C579 1.379 . S
C579 H563 0.931 . S
C579 C573 1.383 . S
C579 C578 1.379 . S
H580 C574 0.959 . S
H581 C574 0.961 . S
H582 C574 0.960 . S
H583 C575 0.930 . S
H584 C576 0.929 . S
H585 C593 0.929 . S
H586 C595 0.930 . S
H587 C597 0.930 1_565 S
H588 C600 0.929 1_565 S
H589 C603 0.930 . S
H590 C605 0.960 . S
H591 C605 0.960 . S
H592 C605 0.960 . S
C593 H585 0.929 . S
C593 C594 1.377 . S
C593 C595 1.384 . S
C594 C593 1.377 . S
C594 C600 1.390 . S
C595 H586 0.930 . S
C595 C593 1.384 . S
C595 C596 1.372 . S
C596 C595 1.372 . S
C596 C597 1.400 . S
C596 C601 1.490 . S
C597 H587 0.930 1_545 S
C597 C596 1.400 . S
C597 C600 1.386 . S
H598 C614 0.930 . S
H599 C615 0.931 . S
C600 H588 0.929 1_545 S
C600 C594 1.390 . S
C600 C597 1.386 . S
C601 C596 1.490 . S
C601 C603 1.395 . S
C601 C604 1.403 . S
H602 C608 0.930 . S
C603 H589 0.930 . S
C603 C601 1.395 . S
C603 C606 1.403 . S
C604 C601 1.403 . S
C604 C605 1.524 1_545 S
C604 C608 1.400 . S
C605 H590 0.960 . S
C605 H591 0.960 . S
C605 H592 0.960 . S
C605 C604 1.524 1_565 S
C606 C603 1.403 . S
C606 C607 1.392 . S
C606 C610 1.495 . S
C607 C606 1.392 . S
C607 C608 1.385 . S
C607 C609 1.478 . S
C608 H602 0.930 . S
C608 C604 1.400 . S
C608 C607 1.385 . S
C609 C607 1.478 . S
C609 C611 1.381 . S
C609 C615 1.383 . S
C610 C606 1.495 . S
C610 H616 0.959 . S
C610 H617 0.961 . S
C610 H618 0.960 . S
C611 C609 1.381 . S
C611 C612 1.394 . S
C611 H619 0.930 . S
C612 C611 1.394 . S
C612 C613 1.383 . S
C612 H620 0.929 . S
C613 C612 1.383 . S
C613 C614 1.377 . S
C614 H598 0.930 . S
C614 C613 1.377 . S
C614 C615 1.379 . S
C615 H599 0.931 . S
C615 C609 1.383 . S
C615 C614 1.379 . S
H616 C610 0.959 . S
H617 C610 0.961 . S
H618 C610 0.960 . S
H619 C611 0.930 . S
H620 C612 0.929 . S
H621 C629 0.929 . S
H622 C631 0.930 . S
H623 C633 0.930 . S
H624 C636 0.929 . S
H625 C639 0.930 . S
H626 C641 0.960 . S
H627 C641 0.960 . S
H628 C641 0.960 . S
C629 H621 0.929 . S
C629 C630 1.377 . S
C629 C631 1.384 . S
C630 C629 1.377 . S
C630 C636 1.390 . S
C631 H622 0.930 . S
C631 C629 1.384 . S
C631 C632 1.372 . S
C632 C631 1.372 . S
C632 C633 1.400 . S
C632 C637 1.490 . S
C633 H623 0.930 . S
C633 C632 1.400 . S
C633 C636 1.386 . S
H634 C650 0.930 . S
H635 C651 0.931 . S
C636 H624 0.929 . S
C636 C630 1.390 . S
C636 C633 1.386 . S
C637 C632 1.490 . S
C637 C639 1.395 . S
C637 C640 1.403 . S
H638 C644 0.930 . S
C639 H625 0.930 . S
C639 C637 1.395 . S
C639 C642 1.403 . S
C640 C637 1.403 . S
C640 C641 1.524 . S
C640 C644 1.400 . S
C641 H626 0.960 . S
C641 H627 0.960 . S
C641 H628 0.960 . S
C641 C640 1.524 . S
C642 C639 1.403 . S
C642 C643 1.392 . S
C642 C646 1.495 1_554 S
C643 C642 1.392 . S
C643 C644 1.385 . S
C643 C645 1.478 1_554 S
C644 H638 0.930 . S
C644 C640 1.400 . S
C644 C643 1.385 . S
C645 C643 1.478 1_556 S
C645 C647 1.381 . S
C645 C651 1.383 1_556 S
C646 C642 1.495 1_556 S
C646 H652 0.959 . S
C646 H653 0.961 . S
C646 H654 0.960 . S
C647 C645 1.381 . S
C647 C648 1.394 . S
C647 H655 0.930 . S
C648 C647 1.394 . S
C648 C649 1.383 . S
C648 H656 0.929 . S
C649 C648 1.383 . S
C649 C650 1.377 . S
C650 H634 0.930 . S
C650 C649 1.377 . S
C650 C651 1.379 1_556 S
C651 H635 0.931 . S
C651 C645 1.383 1_554 S
C651 C650 1.379 1_554 S
H652 C646 0.959 . S
H653 C646 0.961 . S
H654 C646 0.960 . S
H655 C647 0.930 . S
H656 C648 0.929 . S
H657 C665 0.929 . S
H658 C667 0.930 . S
H659 C669 0.930 . S
H660 C672 0.929 . S
H661 C675 0.930 . S
H662 C677 0.960 . S
H663 C677 0.960 . S
H664 C677 0.960 . S
C665 H657 0.929 . S
C665 C666 1.377 . S
C665 C667 1.384 . S
C666 C665 1.377 . S
C666 C672 1.390 . S
C667 H658 0.930 . S
C667 C665 1.384 . S
C667 C668 1.372 . S
C668 C667 1.372 . S
C668 C669 1.400 . S
C668 C673 1.490 . S
C669 H659 0.930 . S
C669 C668 1.400 . S
C669 C672 1.386 . S
H670 C686 0.930 . S
H671 C687 0.931 . S
C672 H660 0.929 . S
C672 C666 1.390 . S
C672 C669 1.386 . S
C673 C668 1.490 . S
C673 C675 1.395 . S
C673 C676 1.403 . S
H674 C680 0.930 . S
C675 H661 0.930 . S
C675 C673 1.395 . S
C675 C678 1.403 . S
C676 C673 1.403 . S
C676 C677 1.524 1_455 S
C676 C680 1.400 . S
C677 H662 0.960 . S
C677 H663 0.960 . S
C677 H664 0.960 . S
C677 C676 1.524 1_655 S
C678 C675 1.403 . S
C678 C679 1.392 . S
C678 C682 1.495 . S
C679 C678 1.392 . S
C679 C680 1.385 . S
C679 C681 1.478 . S
C680 H674 0.930 . S
C680 C676 1.400 . S
C680 C679 1.385 . S
C681 C679 1.478 . S
C681 C683 1.381 . S
C681 C687 1.383 . S
C682 C678 1.495 . S
C682 H688 0.959 . S
C682 H689 0.961 . S
C682 H690 0.960 . S
C683 C681 1.381 . S
C683 C684 1.394 . S
C683 H691 0.930 . S
C684 C683 1.394 . S
C684 C685 1.383 . S
C684 H692 0.929 . S
C685 C684 1.383 . S
C685 C686 1.377 . S
C686 H670 0.930 . S
C686 C685 1.377 . S
C686 C687 1.379 . S
C687 H671 0.931 . S
C687 C681 1.383 . S
C687 C686 1.379 . S
H688 C682 0.959 . S
H689 C682 0.961 . S
H690 C682 0.960 . S
H691 C683 0.930 . S
H692 C684 0.929 . S
C289 C78 1.273 . S
C270 C10 1.325 . S
C306 C21 1.271 1_655 S
C325 C152 1.272 . S
C342 C31 2.039 1_665 S
C361 C256 2.120 . S
C378 C0 0.618 . S
C397 C90 0.614 . S
C433 C164 0.592 . S
C414 C18 0.589 . S
C450 C34 1.369 . S
C469 C250 1.302 . S
C505 C182 2.127 . S
C486 C36 2.131 1_655 S
C522 C8 1.298 1_655 S
C541 C226 1.260 . S
C577 C102 1.266 . S
C558 C23 1.386 1_565 S
C613 C176 1.191 . S
C594 C26 1.216 . S
C649 C238 0.613 . S
C630 C5 0.657 . S
C666 C13 2.074 . S
C685 C108 2.141 . S
