# Generated by pormake.
# Topology zzz, (3,6)-cn, num edge types: 1
# Building blocks:
#     Node 0, Type 0, BuildingBlock: PAMTOO_clean_linker_0, # of connection points: 3
#     Node 1, Type 0, BuildingBlock: PAMTOO_clean_linker_0, # of connection points: 3
#     Node 2, Type 0, BuildingBlock: PAMTOO_clean_linker_0, # of connection points: 3
#     Node 3, Type 0, BuildingBlock: PAMTOO_clean_linker_0, # of connection points: 3
#     Node 4, Type 0, BuildingBlock: PAMTOO_clean_linker_0, # of connection points: 3
#     Node 5, Type 0, BuildingBlock: PAMTOO_clean_linker_0, # of connection points: 3
#     Node 6, Type 0, BuildingBlock: PAMTOO_clean_linker_0, # of connection points: 3
#     Node 7, Type 0, BuildingBlock: PAMTOO_clean_linker_0, # of connection points: 3
#     Node 8, Type 1, BuildingBlock: KUMBOL_clean_sbu_0, # of connection points: 6
#     Node 9, Type 1, BuildingBlock: KUMBOL_clean_sbu_0, # of connection points: 6
#     Node 10, Type 1, BuildingBlock: KUMBOL_clean_sbu_0, # of connection points: 6
#     Node 11, Type 1, BuildingBlock: KUMBOL_clean_sbu_0, # of connection points: 6
#     Edge 12, Type (0, 1), BuildingBlock: XIVTED_clean_linker_0, # of connection points: 2
#     Edge 13, Type (0, 1), BuildingBlock: XIVTED_clean_linker_0, # of connection points: 2
#     Edge 14, Type (0, 1), BuildingBlock: XIVTED_clean_linker_0, # of connection points: 2
#     Edge 15, Type (0, 1), BuildingBlock: XIVTED_clean_linker_0, # of connection points: 2
#     Edge 16, Type (0, 1), BuildingBlock: XIVTED_clean_linker_0, # of connection points: 2
#     Edge 17, Type (0, 1), BuildingBlock: XIVTED_clean_linker_0, # of connection points: 2
#     Edge 18, Type (0, 1), BuildingBlock: XIVTED_clean_linker_0, # of connection points: 2
#     Edge 19, Type (0, 1), BuildingBlock: XIVTED_clean_linker_0, # of connection points: 2
#     Edge 20, Type (0, 1), BuildingBlock: XIVTED_clean_linker_0, # of connection points: 2
#     Edge 21, Type (0, 1), BuildingBlock: XIVTED_clean_linker_0, # of connection points: 2
#     Edge 22, Type (0, 1), BuildingBlock: XIVTED_clean_linker_0, # of connection points: 2
#     Edge 23, Type (0, 1), BuildingBlock: XIVTED_clean_linker_0, # of connection points: 2
#     Edge 24, Type (0, 1), BuildingBlock: XIVTED_clean_linker_0, # of connection points: 2
#     Edge 25, Type (0, 1), BuildingBlock: XIVTED_clean_linker_0, # of connection points: 2
#     Edge 26, Type (0, 1), BuildingBlock: XIVTED_clean_linker_0, # of connection points: 2
#     Edge 27, Type (0, 1), BuildingBlock: XIVTED_clean_linker_0, # of connection points: 2
#     Edge 28, Type (0, 1), BuildingBlock: XIVTED_clean_linker_0, # of connection points: 2
#     Edge 29, Type (0, 1), BuildingBlock: XIVTED_clean_linker_0, # of connection points: 2
#     Edge 30, Type (0, 1), BuildingBlock: XIVTED_clean_linker_0, # of connection points: 2
#     Edge 31, Type (0, 1), BuildingBlock: XIVTED_clean_linker_0, # of connection points: 2
#     Edge 32, Type (0, 1), BuildingBlock: XIVTED_clean_linker_0, # of connection points: 2
#     Edge 33, Type (0, 1), BuildingBlock: XIVTED_clean_linker_0, # of connection points: 2
#     Edge 34, Type (0, 1), BuildingBlock: XIVTED_clean_linker_0, # of connection points: 2
#     Edge 35, Type (0, 1), BuildingBlock: XIVTED_clean_linker_0, # of connection points: 2
# Relax obj value: 0.173
# Max RMSD: 0.163
# Mean RMSD: 0.115
data_MOF--net-zzz--node1-KUMBOL_clean_sbu_0--node2-PAMTOO_clean_linker_0--edge1-XIVTED_clean_linker_0
_symmetry_space_group_name_H-M    P1
_symmetry_Int_Tables_number       1
_symmetry_cell_setting            triclinic
loop_
_symmetry_equiv_pos_as_xyz
'x, y, z'
_cell_length_a     50.245443
_cell_length_b     50.308163
_cell_length_c     14.64969
_cell_angle_alpha  91.693155
_cell_angle_beta   89.773444
_cell_angle_gamma 89.918241
loop_
_atom_site_label
_atom_site_type_symbol
_atom_site_fract_x
_atom_site_fract_y
_atom_site_fract_z
_atom_type_partial_charge
H0 H 0.8267 0.58155 0.22694 0.0
H1 H 0.75178 0.57344 0.08875 0.0
H2 H 0.76602 0.53084 0.33501 0.0
H3 H 0.7236 0.50193 0.1818 0.0
C4 C 0.7237 0.52068 0.14357 0.0
O5 O 0.73042 0.5415 0.20362 0.0
H6 H 0.73904 0.51812 0.08886 0.0
C7 C 0.80659 0.57376 0.22463 0.0
C8 C 0.79846 0.55622 0.29198 0.0
C9 C 0.79017 0.57975 0.15064 0.0
C10 C 0.76455 0.56896 0.14574 0.0
C11 C 0.75561 0.55138 0.21151 0.0
C12 C 0.77278 0.54457 0.28436 0.0
H13 H 0.97101 0.83534 0.21595 0.0
H14 H 0.97991 0.75812 0.08616 0.0
H15 H 0.02186 0.77685 0.33506 0.0
H16 H 0.97916 0.71838 0.2216 0.0
C17 C 1.00114 0.71573 0.21666 0.0
O18 O 1.01356 0.7399 0.20053 0.0
H19 H 1.00771 0.70874 0.28422 0.0
C20 C 0.97847 0.81514 0.21755 0.0
C21 C 0.99606 0.8084 0.28765 0.0
C22 C 0.97266 0.79741 0.14424 0.0
C23 C 0.98389 0.77189 0.14271 0.0
C24 C 1.00131 0.7641 0.21108 0.0
C25 C 1.00764 0.78248 0.28373 0.0
H26 H 0.71153 0.98163 0.19543 0.0
H27 H 0.79413 0.97688 0.11729 0.0
H28 H 0.77218 1.00842 0.3829 0.0
H29 H 0.83283 0.03238 0.29333 0.0
C30 C 0.82589 0.02026 0.23344 0.0
O31 O 0.81269 0.99804 0.26544 0.0
H32 H 0.81201 0.03327 0.19581 0.0
C33 C 0.73242 0.98382 0.21211 0.0
C34 C 0.73923 0.99418 0.29901 0.0
C35 C 0.75193 0.9784 0.14476 0.0
C36 C 0.77881 0.98179 0.16717 0.0
C37 C 0.78631 0.99323 0.25102 0.0
C38 C 0.76646 0.99964 0.31753 0.0
H39 H 0.58483 0.72467 0.23174 0.0
H40 H 0.58132 0.80471 0.13879 0.0
H41 H 0.5342 0.78204 0.3704 0.0
H42 H 0.50991 0.83567 0.25909 0.0
C43 C 0.52667 0.83076 0.21177 0.0
O44 O 0.54802 0.82204 0.26286 0.0
H45 H 0.51927 0.81465 0.16458 0.0
C46 C 0.57765 0.74493 0.24073 0.0
C47 C 0.55874 0.75066 0.30922 0.0
C48 C 0.58567 0.76404 0.17849 0.0
C49 C 0.57573 0.78996 0.18775 0.0
C50 C 0.55752 0.79671 0.25734 0.0
C51 C 0.54893 0.77703 0.31852 0.0
H52 H 0.21911 0.46973 0.11738 0.0
H53 H 0.29507 0.47607 0.25041 0.0
H54 H 0.2803 0.51894 1.00528 0.0
H55 H 0.30785 0.53169 0.24986 0.0
C56 C 0.3232 0.52876 0.19535 0.0
O57 O 0.31616 0.508 0.13549 0.0
H58 H 0.3237 0.54746 0.15687 0.0
C59 C 0.23941 0.47701 0.11868 0.0
C60 C 0.24762 0.49419 0.05036 0.0
C61 C 0.25607 0.47067 0.19183 0.0
C62 C 0.28197 0.48088 0.19465 0.0
C63 C 0.29086 0.49836 0.12852 0.0
C64 C 0.27352 0.50539 0.05647 0.0
H65 H 0.0738 0.21374 0.14128 0.0
H66 H 0.06531 0.29179 0.26692 0.0
H67 H 0.02561 0.27274 1.01405 0.0
H68 H 0.03976 0.34101 0.06519 0.0
C69 C 0.04598 0.33386 0.13292 0.0
O70 O 0.03302 0.30995 0.14852 0.0
H71 H 0.06792 0.33078 0.12864 0.0
C72 C 0.06676 0.23408 0.13901 0.0
C73 C 0.05027 0.24103 0.0662 0.0
C74 C 0.07209 0.2519 0.21267 0.0
C75 C 0.0615 0.2777 0.21117 0.0
C76 C 0.04493 0.28553 0.1404 0.0
C77 C 0.03907 0.26707 0.06764 0.0
H78 H 0.33736 0.08355 0.12116 0.0
H79 H 0.25916 0.08022 0.24092 0.0
H80 H 0.27516 0.03969 0.98434 0.0
H81 H 0.20879 0.05717 0.03143 0.0
C82 C 0.21556 0.06256 0.10167 0.0
O83 O 0.239 0.04874 0.11794 0.0
H84 H 0.21915 0.08441 0.10407 0.0
C85 C 0.31656 0.07803 0.1168 0.0
C86 C 0.30834 0.06231 0.04127 0.0
C87 C 0.29932 0.08424 0.19045 0.0
C88 C 0.27282 0.07555 0.18556 0.0
C89 C 0.26386 0.05956 0.11229 0.0
C90 C 0.28173 0.05275 0.03982 0.0
H91 H 0.45723 0.32317 0.08572 0.0
H92 H 0.46558 0.24691 0.20677 0.0
H93 H 0.51063 0.26503 0.96592 0.0
H94 H 0.49966 0.19592 1.00326 0.0
C95 C 0.48903 0.20402 0.0646 0.0
O96 O 0.50028 0.22836 0.08974 0.0
H97 H 0.46774 0.20659 0.04561 0.0
C98 C 0.46498 0.30302 0.08269 0.0
C99 C 0.48425 0.29639 0.0164 0.0
C100 C 0.45824 0.28557 0.15208 0.0
C101 C 0.46971 0.26017 0.15149 0.0
C102 C 0.48778 0.25222 0.08275 0.0
C103 C 0.49522 0.27044 0.01497 0.0
Gd104 Gd 0.99771 0.03 0.58874 0.0
Gd105 Gd 0.04857 0.0201 0.7607 0.0
C106 C 0.08311 0.08577 0.95035 0.0
C107 C 0.12967 0.08567 0.90553 0.0
C108 C 0.09848 0.05507 0.8313 0.0
C109 C 0.07799 0.06521 0.88487 0.0
C110 C 0.12467 0.06482 0.84223 0.0
C111 C 0.10891 0.09619 0.9593 0.0
C112 C 0.0623 0.09496 1.00631 0.0
C113 C 0.03733 0.08325 0.998 0.0
N114 N 0.0533 0.05447 0.87511 0.0
C115 C 0.03323 0.06281 0.93288 0.0
H116 H 1.01351 0.05487 0.92806 0.0
C117 C 0.1133 0.02239 0.72364 0.0
N118 N 0.09308 0.03485 0.77123 0.0
C119 C 0.13952 0.03135 0.73204 0.0
C120 C 0.1452 0.05286 0.79088 0.0
H121 H 0.10905 1.00574 0.67769 0.0
H122 H 0.11311 0.11202 1.0089 0.0
H123 H 0.03335 0.9975 0.41817 0.0
H124 H 0.06538 0.11079 0.05694 0.0
H125 H 0.02108 0.09007 0.04148 0.0
H126 H 0.14961 0.09348 0.91457 0.0
H127 H 0.93643 0.0431 0.66776 0.0
H128 H 0.98444 0.93741 0.29763 0.0
H129 H 0.02731 0.96119 0.30752 0.0
H130 H 0.90008 0.95072 0.44378 0.0
H131 H 0.15529 0.02167 0.69298 0.0
H132 H 0.16554 0.05975 0.79752 0.0
H133 H 0.93722 0.93344 0.34965 0.0
H134 H 0.89092 0.02491 0.65446 0.0
N135 N 0.99418 0.99523 0.47546 0.0
C136 C 0.98686 0.95366 0.34709 0.0
C137 C 1.01102 0.96708 0.3523 0.0
C138 C 0.96588 0.96183 0.40415 0.0
C139 C 0.97012 0.98303 0.46796 0.0
C140 C 1.01425 0.98806 0.41599 0.0
N141 N 0.95376 1.01354 0.57899 0.0
C142 C 0.94929 0.99248 0.52141 0.0
C143 C 0.90716 1.01549 0.617 0.0
C144 C 0.90254 0.99294 0.56171 0.0
C145 C 0.93293 0.02573 0.6242 0.0
C146 C 0.92361 0.98137 0.51199 0.0
H147 H 0.88254 0.98502 0.55612 0.0
O148 O 0.96949 0.05798 0.53453 0.0
O149 O 0.02457 0.05035 0.69059 0.0
O150 O 1.00725 0.02017 0.82745 0.0
O151 O 0.97765 1.01054 0.70945 0.0
O152 O 0.98575 0.06316 0.68958 0.0
O153 O 1.00913 0.05539 0.4775 0.0
O154 O 0.07573 0.9909 0.81381 0.0
O155 O 0.02182 0.9997 0.65819 0.0
O156 O 0.03921 0.03125 0.52338 0.0
O157 O 0.06861 0.04062 0.64231 0.0
O158 O 0.06092 0.98779 0.65747 0.0
O159 O 0.03599 0.99431 0.86938 0.0
C160 C 1.00877 0.06755 0.72515 0.0
C161 C 0.91959 0.95966 0.4513 0.0
C162 C 0.94071 0.94985 0.39764 0.0
C163 C 0.9875 0.06961 0.48625 0.0
C164 C 0.99056 0.09827 0.50717 0.0
C165 C 0.96774 0.11422 0.51697 0.0
C166 C 1.0157 0.10939 0.52617 0.0
C167 C 0.01818 0.13642 0.55201 0.0
C168 C 0.96991 0.14074 0.54581 0.0
C169 C 0.99486 0.15185 0.56289 0.0
C170 C 0.98331 1.01293 0.79762 0.0
C171 C 0.03793 0.98298 0.62243 0.0
C172 C 0.05705 0.97931 0.85931 0.0
C173 C 0.05281 0.95099 0.83405 0.0
C174 C 0.07474 0.93491 0.80991 0.0
C175 C 0.02697 0.94047 0.82543 0.0
C176 C 0.02299 0.91389 0.79583 0.0
C177 C 0.07097 0.90895 0.77703 0.0
C178 C 0.04539 0.89842 0.77036 0.0
C179 C 0.06303 0.03868 0.55397 0.0
H180 H 0.94815 0.10598 0.50396 0.0
H181 H 0.03335 0.09705 0.52057 0.0
H182 H 0.95219 0.15289 0.55345 0.0
H183 H 0.99579 0.17286 0.58051 0.0
H184 H 0.09483 0.94261 0.8148 0.0
H185 H 1.00994 0.95294 0.84198 0.0
H186 H 0.088 0.89674 0.75815 0.0
H187 H 0.04343 0.87774 0.74908 0.0
Gd188 Gd 0.51622 0.99873 0.58416 0.0
Gd189 Gd 0.53009 0.05066 0.75602 0.0
C190 C 0.46328 0.08605 0.93871 0.0
C191 C 0.46307 0.13216 0.8947 0.0
C192 C 0.49483 0.10083 0.82593 0.0
C193 C 0.4844 0.08057 0.87669 0.0
C194 C 0.48479 0.12701 0.8364 0.0
C195 C 0.45232 0.11171 0.94571 0.0
C196 C 0.45405 0.06576 0.99341 0.0
C197 C 0.46619 0.04094 0.98731 0.0
N198 N 0.4955 0.05588 0.86832 0.0
C199 C 0.487 0.03638 0.92521 0.0
H200 H 0.49491 1.01665 0.9219 0.0
C201 C 0.52949 0.11564 0.73098 0.0
N202 N 0.51595 0.09538 0.77079 0.0
C203 C 0.5202 0.14179 0.73862 0.0
C204 C 0.49746 0.14746 0.79042 0.0
H205 H 0.54736 0.11141 0.69195 0.0
H206 H 0.43596 0.1161 0.99221 0.0
H207 H 0.54317 0.03675 0.41534 0.0
H208 H 0.43786 0.06916 0.04146 0.0
H209 H 0.45933 0.02509 0.02988 0.0
H210 H 0.45494 0.15206 0.90276 0.0
H211 H 0.50958 0.93674 0.65886 0.0
H212 H 0.60366 0.99173 0.2788 0.0
H213 H 0.57756 0.03309 0.29901 0.0
H214 H 0.59923 0.90675 0.4151 0.0
H215 H 0.53067 0.15756 0.70496 0.0
H216 H 0.49037 0.16778 0.79693 0.0
H217 H 0.61181 0.94488 0.32322 0.0
H218 H 0.5308 0.89272 0.63713 0.0
N219 N 0.54883 0.99755 0.46555 0.0
C220 C 0.58825 0.99305 0.33071 0.0
C221 C 0.57353 1.01637 0.34179 0.0
C222 C 0.58255 0.97151 0.38545 0.0
C223 C 0.56238 0.97431 0.45269 0.0
C224 C 0.55368 0.01822 0.4088 0.0
N225 N 0.53576 0.95605 0.56735 0.0
C226 C 0.55566 0.95297 0.50527 0.0
C227 C 0.53812 0.9095 0.59994 0.0
C228 C 0.55965 0.90641 0.54024 0.0
C229 C 0.52614 0.93446 0.61184 0.0
C230 C 0.56844 0.92814 0.49098 0.0
H231 H 0.56891 0.88705 0.53101 0.0
O232 O 0.48673 0.9689 0.54902 0.0
O233 O 0.49785 0.02802 0.68465 0.0
O234 O 0.52874 1.01024 0.82288 0.0
O235 O 0.53728 0.97992 0.70339 0.0
O236 O 0.4842 0.98941 0.68757 0.0
O237 O 0.49082 1.0036 0.46603 0.0
O238 O 0.55435 0.07759 0.84003 0.0
O239 O 0.54798 0.02289 0.65079 0.0
O240 O 0.50917 0.03882 0.51919 0.0
O241 O 0.51599 0.07217 0.631 0.0
O242 O 0.56035 0.0619 0.64864 0.0
O243 O 0.56434 0.03611 0.83011 0.0
C244 C 0.48051 1.01319 0.72011 0.0
C245 C 0.58904 0.92557 0.42633 0.0
C246 C 0.59614 0.94724 0.37389 0.0
C247 C 0.47598 0.98336 0.48712 0.0
C248 C 0.44738 0.98822 0.50093 0.0
C249 C 0.43012 0.96645 0.50549 0.0
C250 C 0.43755 1.01405 0.51885 0.0
C251 C 0.41041 0.01826 0.53813 0.0
C252 C 0.40338 0.97034 0.52752 0.0
C253 C 0.39351 0.996 0.54334 0.0
C254 C 0.53547 0.98607 0.7918 0.0
C255 C 0.56427 0.03843 0.61329 0.0
C256 C 0.57299 0.05997 0.8488 0.0
C257 C 0.59943 0.06631 0.81007 0.0
C258 C 0.60402 0.09054 0.76712 0.0
C259 C 0.61894 0.04638 0.80363 0.0
C260 C 0.64223 0.04977 0.75136 0.0
C261 C 0.62699 0.0941 0.7151 0.0
C262 C 0.64584 0.07379 0.70618 0.0
C263 C 0.50985 0.06417 0.54673 0.0
H264 H 0.43746 0.94637 0.4936 0.0
H265 H 0.45098 0.03086 0.51765 0.0
H266 H 0.39014 0.95344 0.53098 0.0
H267 H 0.37237 0.99831 0.55577 0.0
H268 H 0.58948 0.10642 0.77091 0.0
H269 H 0.61575 0.02814 0.8396 0.0
H270 H 0.63004 0.11259 0.68056 0.0
H271 H 0.66327 0.07699 0.66425 0.0
Gd272 Gd 0.49887 0.53552 0.74856 0.0
Gd273 Gd 0.54946 0.51105 0.58377 0.0
C274 C 0.63508 0.50253 0.69036 0.0
C275 C 0.65847 0.53648 0.6075 0.0
C276 C 0.61133 0.52845 0.58076 0.0
C277 C 0.61126 0.5091 0.64513 0.0
C278 C 0.63515 0.54175 0.55875 0.0
C279 C 0.65843 0.51689 0.67336 0.0
C280 C 0.63493 0.48125 0.74942 0.0
C281 C 0.61175 0.46649 0.75943 0.0
N282 N 0.58827 0.49568 0.65978 0.0
C283 C 0.58865 0.47376 0.71329 0.0
H284 H 0.57132 0.46177 0.72354 0.0
C285 C 0.58911 0.54785 0.45802 0.0
N286 N 0.5886 0.53272 0.53427 0.0
C287 C 0.61207 0.5617 0.43399 0.0
C288 C 0.63509 0.55907 0.48581 0.0
H289 H 0.57148 0.54965 0.41674 0.0
H290 H 0.67674 0.51241 0.70861 0.0
H291 H 0.47255 0.58181 0.60526 0.0
H292 H 0.65274 0.47564 0.78562 0.0
H293 H 0.61155 0.44956 0.80333 0.0
H294 H 0.67685 0.54676 0.59255 0.0
H295 H 0.48224 0.49926 0.9274 0.0
H296 H 0.39024 0.56551 0.56944 0.0
H297 H 0.43026 0.59181 0.53455 0.0
H298 H 0.37247 0.49818 0.7851 0.0
H299 H 0.61201 0.57426 0.37525 0.0
H300 H 0.65296 0.56963 0.46672 0.0
H301 H 0.36897 0.53012 0.66168 0.0
H302 H 0.44335 0.47517 0.98665 0.0
N303 N 0.45801 0.54888 0.68058 0.0
C304 C 0.409 0.56085 0.60156 0.0
C305 C 0.43152 0.57576 0.58193 0.0
C306 C 0.41077 0.54077 0.66502 0.0
C307 C 0.43576 0.53543 0.70457 0.0
C308 C 0.4558 0.56979 0.62303 0.0
N309 N 0.46154 0.51451 0.81383 0.0
C310 C 0.43764 0.51751 0.77329 0.0
C311 C 0.44146 0.48682 0.92605 0.0
C312 C 0.41707 0.48839 0.88136 0.0
C313 C 0.46344 0.50045 0.89218 0.0
C314 C 0.41476 0.50436 0.8052 0.0
H315 H 0.39999 0.47798 0.908 0.0
O316 O 0.49543 0.54759 0.89169 0.0
O317 O 0.5425 0.52889 0.7227 0.0
O318 O 0.53265 0.47602 0.66103 0.0
O319 O 0.49616 0.49046 0.74877 0.0
O320 O 0.52731 0.51659 0.84586 0.0
O321 O 0.50277 0.57709 0.79116 0.0
O322 O 0.55539 0.50193 0.43946 0.0
O323 O 0.50588 0.51734 0.61007 0.0
O324 O 0.51271 0.56984 0.66199 0.0
O325 O 0.55083 0.55619 0.58182 0.0
O326 O 0.52051 0.52856 0.48479 0.0
O327 O 0.5486 0.47012 0.53226 0.0
C328 C 0.54877 0.51922 0.79876 0.0
C329 C 0.39019 0.50836 0.76242 0.0
C330 C 0.3882 0.52655 0.69227 0.0
C331 C 0.50384 0.57149 0.87726 0.0
C332 C 0.52812 0.58002 0.92707 0.0
C333 C 0.53791 0.56523 0.99973 0.0
C334 C 0.54258 0.6022 0.89863 0.0
C335 C 0.56625 0.61012 0.94282 0.0
C336 C 0.5617 0.57241 0.04233 0.0
C337 C 0.57572 0.59472 0.01472 0.0
C338 C 0.51238 0.47154 0.71674 0.0
C339 C 0.49925 0.52628 0.53324 0.0
C340 C 0.54879 0.47717 0.44735 0.0
C341 C 0.52657 0.46777 0.38887 0.0
C342 C 0.5231 0.47824 0.30189 0.0
C343 C 0.50818 0.44905 0.42031 0.0
C344 C 0.48714 0.4399 0.36465 0.0
C345 C 0.50172 0.47013 0.24753 0.0
C346 C 0.48399 0.45098 0.27806 0.0
C347 C 0.53342 0.57464 0.60874 0.0
H348 H 0.52742 0.54789 0.02305 0.0
H349 H 0.53527 0.61328 0.84187 0.0
H350 H 0.56914 0.56084 0.09795 0.0
H351 H 0.59343 0.60031 0.05231 0.0
H352 H 0.53684 0.49282 0.27605 0.0
H353 H 0.5104 0.44138 0.48791 0.0
H354 H 0.49922 0.47828 0.18052 0.0
H355 H 0.46851 0.44417 0.23189 0.0
Gd356 Gd 1.01572 0.49854 0.75118 0.0
Gd357 Gd 0.0299 0.55158 0.59407 0.0
C358 C 0.02279 0.64035 0.6705 0.0
C359 C 0.98493 0.65369 0.57983 0.0
C360 C 1.00113 0.60809 0.57036 0.0
C361 C 0.02047 0.61415 0.63405 0.0
C362 C 0.98351 0.6279 0.54078 0.0
C363 C 1.00453 0.65989 0.64471 0.0
C364 C 0.04381 0.6463 0.72981 0.0
C365 C 0.0624 0.62665 0.74865 0.0
N366 N 0.03788 0.59479 0.65682 0.0
C367 C 0.05935 0.60103 0.7104 0.0
H368 H 0.07404 0.5864 0.72617 0.0
C369 C 0.98378 0.57699 0.46237 0.0
N370 N 1.00045 0.58309 0.53371 0.0
C371 C 0.96587 0.5959 0.43087 0.0
C372 C 0.96548 0.6214 0.47109 0.0
H373 H 0.98373 0.5572 0.43168 0.0
H374 H 1.00584 0.68002 0.67274 0.0
H375 H 0.97115 0.46381 0.62073 0.0
H376 H 0.04624 0.66613 0.75951 0.0
H377 H 0.07909 0.63117 0.79292 0.0
H378 H 0.97141 0.66911 0.55871 0.0
H379 H 0.06223 0.49265 0.91243 0.0
H380 H 0.99933 0.38432 0.58325 0.0
H381 H 0.96609 0.41918 0.55275 0.0
H382 H 0.07484 0.38116 0.78097 0.0
H383 H 0.95231 0.59076 0.37592 0.0
H384 H 0.95162 0.63605 0.4465 0.0
H385 H 0.04012 0.3704 0.66781 0.0
H386 H 0.09394 0.45904 0.9662 0.0
N387 N 1.0077 0.45545 0.68764 0.0
C388 C 1.00176 0.40408 0.61345 0.0
C389 C 0.98295 0.42368 0.59625 0.0
C390 C 0.02298 0.40999 0.67196 0.0
C391 C 0.02529 0.43611 0.7091 0.0
C392 C 0.98602 0.44922 0.63513 0.0
N393 N 0.04549 0.46701 0.80975 0.0
C394 C 0.04481 0.4421 0.77228 0.0
C395 C 0.0803 0.45401 0.91137 0.0
C396 C 0.08075 0.42865 0.87012 0.0
C397 C 0.06223 0.47295 0.88102 0.0
C398 C 0.0626 0.42227 0.80067 0.0
H399 H 0.09473 0.41398 0.89382 0.0
O400 O 1.00783 0.49343 0.89497 0.0
O401 O 1.01613 0.54254 0.7333 0.0
O402 O 0.06654 0.54231 0.68219 0.0
O403 O 0.06011 0.49842 0.72163 0.0
O404 O 0.03147 0.52953 0.85366 0.0
O405 O 0.97509 0.49363 0.79915 0.0
O406 O 0.03824 0.55587 0.45011 0.0
O407 O 0.02935 0.50758 0.61187 0.0
O408 O 0.97894 0.508 0.66378 0.0
O409 O 0.98551 0.5518 0.62316 0.0
O410 O 1.01385 0.5207 0.49192 0.0
O411 O 0.07066 0.55624 0.54711 0.0
C412 C 0.0257 0.55039 0.80913 0.0
C413 C 0.06119 0.39659 0.7608 0.0
C414 C 0.04142 0.39047 0.69641 0.0
C415 C 0.9823 0.49629 0.88452 0.0
C416 C 0.97036 0.51837 0.93919 0.0
C417 C 0.97827 0.52256 0.03025 0.0
C418 C 0.95293 0.53663 0.89952 0.0
C419 C 0.94274 0.55844 0.95097 0.0
C420 C 0.96908 0.54462 0.08073 0.0
C421 C 0.95137 0.56236 0.04187 0.0
C422 C 0.07568 0.51943 0.71316 0.0
C423 C 0.01962 0.49979 0.53617 0.0
C424 C 0.06369 0.55275 0.46178 0.0
C425 C 0.07553 0.52989 0.41057 0.0
C426 C 0.06619 0.52315 0.32268 0.0
C427 C 0.09429 0.51325 0.45159 0.0
C428 C 0.10429 0.49054 0.40462 0.0
C429 C 0.07522 0.50018 0.27696 0.0
C430 C 0.09418 0.48404 0.31713 0.0
C431 C 0.96989 0.53084 0.63216 0.0
H432 H 0.99194 0.50897 0.06193 0.0
H433 H 0.94715 0.53381 0.82879 0.0
H434 H 0.97532 0.54774 0.15087 0.0
H435 H 0.94362 0.57846 0.08485 0.0
H436 H 0.05151 0.53542 0.28994 0.0
H437 H 0.10122 0.51804 0.51998 0.0
H438 H 0.06782 0.4951 0.20937 0.0
H439 H 0.10168 0.46713 0.27749 0.0
H440 H 0.21726 0.06583 0.29147 0.0
H441 H 0.06243 0.03081 0.36619 0.0
H442 H 0.16336 0.04759 0.07057 0.0
H443 H 0.11374 0.05865 0.58383 0.0
H444 H 0.09926 0.03546 0.25829 0.0
H445 H 0.18043 0.06095 0.40034 0.0
C446 C 0.19781 0.06041 0.2658 0.0
C447 C 0.1937 0.05664 0.1714 0.0
C448 C 0.10256 0.0404 0.32978 0.0
C449 C 0.15095 0.05148 0.29633 0.0
C450 C 0.08142 0.03772 0.39194 0.0
C451 C 0.08491 0.0435 0.48578 0.0
C452 C 0.12767 0.04901 0.36081 0.0
C453 C 0.11011 0.053 0.51328 0.0
C454 C 0.17666 0.0578 0.32812 0.0
C455 C 0.16771 0.05021 0.14259 0.0
N456 N 0.13042 0.05526 0.45162 0.0
N457 N 0.14748 0.04781 0.20442 0.0
H458 H 0.46044 0.15819 0.08212 0.0
H459 H 0.53117 0.11418 0.54401 0.0
H460 H 0.5227 0.20301 0.21662 0.0
H461 H 0.4798 0.06165 0.38846 0.0
H462 H 0.52525 0.14809 0.43097 0.0
H463 H 0.46462 0.12388 0.19714 0.0
C464 C 0.47485 0.16091 0.13629 0.0
C465 C 0.49089 0.1838 0.1401 0.0
C466 C 0.51508 0.12926 0.42146 0.0
C467 C 0.49588 0.14448 0.2727 0.0
C468 C 0.51817 0.10989 0.48714 0.0
C469 C 0.50553 0.08507 0.4776 0.0
C470 C 0.49914 0.12404 0.34452 0.0
C471 C 0.48985 0.0805 0.3993 0.0
C472 C 0.47726 0.14128 0.2019 0.0
C473 C 0.50952 0.18605 0.21132 0.0
N474 N 0.48701 0.09979 0.33612 0.0
N475 N 0.51135 0.1668 0.27474 0.0
H476 H 0.33505 0.4986 0.3456 0.0
H477 H 0.48369 0.55591 0.39287 0.0
H478 H 0.37239 0.54905 0.15041 0.0
H479 H 0.45487 0.4944 0.56589 0.0
H480 H 0.44208 0.55406 0.30783 0.0
H481 H 0.37746 0.49651 0.42948 0.0
C482 C 0.35227 0.50891 0.31966 0.0
C483 C 0.35007 0.52412 0.24089 0.0
C484 C 0.44461 0.54098 0.36453 0.0
C485 C 0.39868 0.52211 0.33728 0.0
C486 C 0.46841 0.54213 0.41358 0.0
C487 C 0.47257 0.52584 0.48839 0.0
C488 C 0.42448 0.52318 0.38925 0.0
C489 C 0.45221 0.50792 0.51051 0.0
C490 C 0.37645 0.50781 0.36782 0.0
C491 C 0.37305 0.53715 0.21073 0.0
N492 N 0.42899 0.50719 0.46162 0.0
N493 N 0.39615 0.53603 0.25912 0.0
H494 H 0.07482 0.34813 0.28824 0.0
H495 H 0.98719 0.47918 0.40508 0.0
H496 H 1.0037 0.36916 0.14414 0.0
H497 H 0.05795 0.46016 0.55465 0.0
H498 H 0.99198 0.43759 0.31574 0.0
H499 H 0.06788 0.38673 0.3932 0.0
C500 C 0.05752 0.36065 0.27941 0.0
C501 C 0.0399 0.35537 0.20659 0.0
C502 C 1.0064 0.44222 0.36855 0.0
C503 C 0.03189 0.39999 0.32663 0.0
C504 C 1.00363 0.46604 0.41989 0.0
C505 C 0.02181 0.473 0.48913 0.0
C506 C 0.02789 0.42505 0.38466 0.0
C507 C 0.04304 0.45533 0.50371 0.0
C508 C 0.05365 0.38282 0.33917 0.0
C509 C 0.01784 0.37239 0.19887 0.0
N510 N 0.04551 0.43227 0.45199 0.0
N511 N 1.01462 0.39388 0.25726 0.0
H512 H 0.8261 1.00647 0.04903 0.0
H513 H 0.98361 0.02331 0.98442 0.0
H514 H 0.87966 0.01891 0.27495 0.0
H515 H 0.93263 0.99265 0.77029 0.0
H516 H 0.9462 0.02147 0.09141 0.0
H517 H 0.86454 1.00094 0.94609 0.0
C518 C 0.84594 1.00749 0.07735 0.0
C519 C 0.84952 1.01304 0.17113 0.0
C520 C 0.94313 1.01522 0.02089 0.0
C521 C 0.89397 1.00748 0.05266 0.0
C522 C 0.96459 1.01633 0.95921 0.0
C523 C 0.96129 1.00917 0.86626 0.0
C524 C 0.9179 1.00689 0.99016 0.0
C525 C 0.93606 0.99958 0.83968 0.0
C526 C 0.86796 1.00454 0.01833 0.0
C527 C 0.87586 1.01464 0.20333 0.0
N528 N 0.9154 0.99903 0.9006 0.0
N529 N 0.89694 1.01219 0.14437 0.0
H530 H 0.52166 0.88399 0.26094 0.0
H531 H 0.55819 0.93655 0.76245 0.0
H532 H 0.54747 0.83266 0.03729 0.0
H533 H 0.52377 0.98614 0.97692 0.0
H534 H 0.55937 0.89951 0.86674 0.0
H535 H 0.5276 0.9226 0.16398 0.0
C536 C 0.52888 0.8809 0.19167 0.0
C537 C 0.53375 0.85502 0.1568 0.0
C538 C 0.55145 0.91848 0.891 0.0
C539 C 0.54053 0.89918 0.04478 0.0
C540 C 0.55048 0.93966 0.83089 0.0
C541 C 0.5396 0.96439 0.85871 0.0
C542 C 0.54185 0.92196 0.98085 0.0
C543 C 0.53152 0.9674 0.95063 0.0
C544 C 0.53216 0.90293 0.13611 0.0
C545 C 0.54328 0.85222 0.0667 0.0
N546 N 0.53257 0.94648 1.0078 0.0
N547 N 0.54612 0.87392 1.01373 0.0
H548 H 0.71095 0.55181 0.99663 0.0
H549 H 0.56461 0.48957 0.93901 0.0
H550 H 0.67516 0.4984 0.18565 0.0
H551 H 0.59177 0.55336 0.7728 0.0
H552 H 0.6057 0.49256 0.02691 0.0
H553 H 0.66856 0.55325 0.91243 0.0
C554 C 0.69406 0.54072 0.02122 0.0
C555 C 0.69671 0.52488 0.09831 0.0
C556 C 0.60292 0.50589 0.97104 0.0
C557 C 0.64813 0.52614 1.00148 0.0
C558 C 0.57943 0.50408 0.92036 0.0
C559 C 0.57505 0.52059 0.84625 0.0
C560 C 0.62248 0.52458 0.94872 0.0
C561 C 0.5947 0.53957 0.82721 0.0
C562 C 0.66989 0.54145 0.97286 0.0
C563 C 0.67414 0.51082 0.12668 0.0
N564 N 0.61764 0.5409 0.87751 0.0
N565 N 0.65105 0.51161 0.0781 0.0
H566 H 0.04477 0.68228 0.20213 0.0
H567 H 0.98723 0.58959 0.7881 0.0
H568 H 0.97151 0.69974 0.06479 0.0
H569 H 0.05758 0.57158 0.94145 0.0
H570 H 0.98243 0.63154 0.87854 0.0
H571 H 0.0516 0.64395 0.09687 0.0
C572 C 0.03029 0.67827 0.14894 0.0
C573 C 1.00747 0.69428 0.14299 0.0
C574 C 0.99908 0.61856 0.8918 0.0
C575 C 1.01494 0.64987 0.02167 0.0
C576 C 1.00193 0.59467 0.83959 0.0
C577 C 0.0232 0.57723 0.85573 0.0
C578 C 0.01759 0.62512 0.96112 0.0
C579 C 0.04109 0.58452 0.92566 0.0
C580 C 0.03408 0.65622 0.08898 0.0
C581 C 0.98936 0.68796 0.07233 0.0
N582 N 0.03796 0.60775 0.97508 0.0
N583 N 0.99335 0.66625 0.0152 0.0
H584 H 0.06061 0.26627 0.39169 0.0
H585 H 0.06235 0.12428 0.44664 0.0
H586 H 0.11204 0.21436 0.23027 0.0
H587 H 0.03561 0.17877 0.6612 0.0
H588 H 0.09614 0.15574 0.40518 0.0
H589 H 0.06745 0.23872 0.52128 0.0
C590 C 0.07411 0.2496 0.38356 0.0
C591 C 0.08438 0.24177 0.29747 0.0
C592 C 0.08345 0.16068 0.46318 0.0
C593 C 0.09107 0.2091 0.44604 0.0
C594 C 0.06399 0.14247 0.48749 0.0
C595 C 0.04469 0.14965 0.55342 0.0
C596 C 0.08279 0.1865 0.50241 0.0
C597 C 0.04879 0.17324 0.60515 0.0
C598 C 0.07794 0.23362 0.45844 0.0
C599 C 0.10219 0.22018 0.29359 0.0
N600 N 0.06668 0.19138 0.5761 0.0
N601 N 0.10411 0.20394 0.36571 0.0
H602 H 0.28378 0.07318 0.36632 0.0
H603 H 0.42603 0.06102 0.438 0.0
H604 H 0.34058 0.12016 0.2188 0.0
H605 H 0.3684 0.03861 0.64102 0.0
H606 H 0.39743 0.09722 0.3959 0.0
H607 H 0.31182 0.07628 0.49893 0.0
C608 C 0.30171 0.08496 0.36186 0.0
C609 C 0.31053 0.09496 0.27835 0.0
C610 C 0.39123 0.08495 0.45164 0.0
C611 C 0.34368 0.09721 0.43053 0.0
C612 C 0.40776 0.06412 0.47626 0.0
C613 C 0.39882 0.04551 0.53911 0.0
C614 C 0.36529 0.08649 0.48765 0.0
C615 C 0.37524 0.05135 0.58752 0.0
C616 C 0.31797 0.08659 0.43854 0.0
C617 C 0.3338 0.11047 0.27961 0.0
N618 N 0.35875 0.07071 0.55835 0.0
N619 N 0.35016 0.11018 0.35319 0.0
H620 H 0.41186 0.31446 0.16399 0.0
H621 H 0.50186 0.39752 0.46884 0.0
H622 H 0.47537 0.28412 0.32802 0.0
H623 H 0.43453 0.42862 0.32324 0.0
H624 H 0.48001 0.35491 0.47368 0.0
H625 H 0.40623 0.35144 0.27376 0.0
C626 C 0.42374 0.31487 0.2256 0.0
C627 C 0.44501 0.29705 0.23475 0.0
C628 C 0.46965 0.37115 0.44228 0.0
C629 C 0.43942 0.33965 0.35845 0.0
C630 C 0.48215 0.39582 0.43983 0.0
C631 C 0.47073 0.41663 0.3912 0.0
C632 C 0.44606 0.36689 0.39292 0.0
C633 C 0.44492 0.41277 0.35657 0.0
C634 C 0.42071 0.33617 0.28803 0.0
C635 C 0.45932 0.29801 0.31671 0.0
N636 N 0.43385 0.38813 0.3553 0.0
N637 N 0.457 0.31963 0.37382 0.0
H638 H 0.2623 0.48356 0.37383 0.0
H639 H 0.14569 0.5103 0.50881 0.0
H640 H 0.22304 0.42711 0.193 0.0
H641 H 0.11701 0.43709 0.38347 0.0
H642 H 0.18943 0.49158 0.51574 0.0
H643 H 0.22936 0.47478 0.49104 0.0
C644 C 0.24716 0.46872 0.35945 0.0
C645 C 0.24437 0.45727 0.27146 0.0
C646 C 0.17372 0.479 0.48897 0.0
C647 C 0.20538 0.44883 0.40264 0.0
C648 C 0.14826 0.48987 0.48521 0.0
C649 C 0.12776 0.47593 0.43987 0.0
C650 C 0.17892 0.45435 0.44442 0.0
C651 C 0.13263 0.4493 0.41323 0.0
C652 C 0.22793 0.46409 0.42613 0.0
C653 C 0.22496 0.43754 0.25835 0.0
N654 N 0.15792 0.43972 0.41262 0.0
N655 N 0.20557 0.43465 0.32198 0.0
H656 H 0.92965 0.83152 0.134 0.0
H657 H 0.98332 0.92555 0.9211 0.0
H658 H 0.9854 0.787 0.9645 0.0
H659 H 1.00096 0.87286 0.69051 0.0
H660 H 0.95008 0.89502 0.97088 0.0
H661 H 0.92192 0.86123 1.00764 0.0
C662 C 0.93976 0.82756 0.06956 0.0
C663 C 0.95946 0.80774 0.06178 0.0
C664 C 0.96032 0.89032 0.90732 0.0
C665 C 0.95127 0.84192 0.91858 0.0
C666 C 0.97965 0.90803 0.87842 0.0
C667 C 0.9964 0.90107 0.80443 0.0
C668 C 0.95839 0.86511 0.86387 0.0
C669 C 0.98987 0.87819 0.75184 0.0
C670 C 0.93538 0.84458 0.99753 0.0
C671 C 0.97078 0.80259 0.97529 0.0
N672 N 0.97217 0.86043 0.78474 0.0
N673 N 0.96715 0.82011 0.90791 0.0
H674 H 0.77609 0.99786 0.9925 0.0
H675 H 0.63735 0.99504 0.75565 0.0
H676 H 0.70952 0.94958 0.0739 0.0
H677 H 0.69633 0.05735 0.74824 0.0
H678 H 0.67133 0.96486 0.81163 0.0
H679 H 0.75541 1.00342 0.8453 0.0
C680 C 0.75757 0.98755 0.97879 0.0
C681 C 0.74399 0.97412 0.04772 0.0
C682 C 0.67692 0.98491 0.79473 0.0
C683 C 0.71982 0.98138 0.87942 0.0
C684 C 0.6575 1.00229 0.76377 0.0
C685 C 0.66358 0.02929 0.75244 0.0
C686 C 0.70254 0.99461 0.81327 0.0
C687 C 0.69036 0.03701 0.75848 0.0
C688 C 0.74568 0.99093 0.89432 0.0
C689 C 0.72011 0.96118 0.02443 0.0
N690 N 0.7087 0.01993 0.7907 0.0
N691 N 0.70833 0.96582 0.94309 0.0
H692 H 0.56949 0.76968 1.0034 0.0
H693 H 0.61963 0.62377 0.95496 0.0
H694 H 0.63208 0.7354 0.16214 0.0
H695 H 0.54318 0.65577 0.87912 0.0
H696 H 0.6374 0.66898 0.96185 0.0
H697 H 0.57614 0.73484 0.88637 0.0
C698 C 0.58567 0.75569 1.01137 0.0
C699 C 0.59942 0.75454 0.09424 0.0
C700 C 0.61698 0.66584 0.94068 0.0
C701 C 0.60638 0.71425 0.96288 0.0
C702 C 0.60663 0.64007 0.93815 0.0
C703 C 0.57939 0.6358 0.92111 0.0
C704 C 0.60005 0.68743 0.92516 0.0
C705 C 0.56411 0.65769 0.89451 0.0
C706 C 0.58928 0.73558 0.94486 0.0
C707 C 0.6204 0.73625 0.10031 0.0
N708 N 0.57451 0.68253 0.89929 0.0
N709 N 0.62259 0.71608 0.0371 0.0
H710 H 0.81872 0.62622 0.15052 0.0
H711 H 0.90264 0.54282 0.83299 0.0
H712 H 0.78966 0.56331 0.97178 0.0
H713 H 0.93135 0.61167 0.98559 0.0
H714 H 0.85929 0.56337 0.82487 0.0
H715 H 0.85389 0.63514 0.04047 0.0
C716 C 0.81913 0.615 0.08624 0.0
C717 C 0.80214 0.59319 0.07192 0.0
C718 C 0.87517 0.57438 0.85841 0.0
C719 C 0.8428 0.60249 0.94763 0.0
C720 C 0.90024 0.56263 0.86274 0.0
C721 C 0.92039 0.57469 0.91578 0.0
C722 C 0.86998 0.59775 0.91038 0.0
C723 C 0.91587 0.60072 0.94975 0.0
C724 C 0.83928 0.62002 0.02332 0.0
C725 C 0.80294 0.57979 0.98672 0.0
N726 N 0.89084 0.61097 0.94974 0.0
N727 N 0.82362 0.58399 0.92905 0.0
H728 H 0.08507 0.20991 0.96499 0.0
H729 H 0.97531 0.10098 0.81922 0.0
H730 H 1.00113 0.22126 1.01185 0.0
H731 H 0.05683 0.0955 0.72894 0.0
H732 H 0.98456 0.14481 0.889 0.0
H733 H 0.07545 0.16887 0.87661 0.0
C734 C 0.06451 0.2041 0.95496 0.0
C735 C 0.04389 0.21945 0.99561 0.0
C736 C 1.00053 0.1341 0.85432 0.0
C737 C 0.03267 0.17152 0.89567 0.0
C738 C 0.99528 0.10892 0.81458 0.0
C739 C 1.01546 0.094 0.77008 0.0
C740 C 0.02627 0.14493 0.84989 0.0
C741 C 0.04081 0.10578 0.76484 0.0
C742 C 0.05905 0.18047 0.90483 0.0
C743 C 0.01769 0.21049 0.98094 0.0
N744 N 0.04552 0.13031 0.80483 0.0
N745 N 1.0129 0.18712 0.93337 0.0
H746 H 0.32404 1.01198 0.98252 0.0
H747 H 0.45458 0.06202 0.71339 0.0
H748 H 0.34179 0.09473 0.94648 0.0
H749 H 0.44499 0.98259 0.81016 0.0
H750 H 0.41059 0.07375 0.77825 0.0
H751 H 0.36473 1.00004 0.89643 0.0
C752 C 0.33604 0.02762 0.95432 0.0
C753 C 0.32925 0.05441 0.97153 0.0
C754 C 0.41813 0.05375 0.78546 0.0
C755 C 0.37644 0.04092 0.87411 0.0
C756 C 0.44337 0.04713 0.74901 0.0
C757 C 0.45397 0.0215 0.7589 0.0
C758 C 0.40299 0.03446 0.83043 0.0
C759 C 0.43793 1.00273 0.80244 0.0
C760 C 0.35953 0.02083 0.90614 0.0
C761 C 0.34611 0.07382 0.93473 0.0
N762 N 0.41348 1.00957 0.83667 0.0
N763 N 0.36882 0.06674 0.88846 0.0
H764 H 0.50824 0.34085 0.08307 0.0
H765 H 0.52003 0.42275 0.62697 0.0
H766 H 0.48336 0.30401 0.82838 0.0
H767 H 0.49946 0.4575 0.88987 0.0
H768 H 0.51583 0.37814 0.69143 0.0
H769 H 0.51617 0.38234 1.00516 0.0
C770 C 0.50506 0.34132 1.01 0.0
C771 C 0.4951 0.31883 0.96236 0.0
C772 C 0.51198 0.3956 0.73447 0.0
C773 C 0.50395 0.36678 0.87218 0.0
C774 C 0.51427 0.42109 0.69772 0.0
C775 C 0.50919 0.4441 0.75216 0.0
C776 C 0.50563 0.39314 0.8274 0.0
C777 C 0.50257 0.44056 0.8442 0.0
C778 C 0.50934 0.36514 0.96573 0.0
C779 C 0.49123 0.32075 0.86766 0.0
N780 N 0.50123 0.41577 0.8788 0.0
N781 N 0.49554 0.34438 0.82557 0.0
H782 H 0.22331 0.45862 0.93443 0.0
H783 H 0.10988 0.55969 0.77104 0.0
H784 H 0.22503 0.54235 1.00376 0.0
H785 H 0.1063 0.47455 0.73175 0.0
H786 H 0.15427 0.55515 0.83856 0.0
H787 H 0.18372 0.46557 0.84153 0.0
C788 C 0.21573 0.47866 0.92817 0.0
C789 C 0.22782 0.49995 0.97661 0.0
C790 C 0.14386 0.53747 0.81459 0.0
C791 C 0.18149 0.50808 0.87131 0.0
C792 C 0.11845 0.54006 0.77541 0.0
C793 C 0.10394 0.51747 0.74598 0.0
C794 C 0.15519 0.51209 0.82399 0.0
C795 C 0.11637 0.49257 0.75433 0.0
C796 C 0.19287 0.48259 0.87567 0.0
C797 C 0.21672 0.5254 0.9667 0.0
N798 N 0.14102 0.49058 0.79255 0.0
N799 N 0.1941 0.52871 0.91608 0.0
H800 H 0.04597 0.82326 0.35184 0.0
H801 H 0.07165 0.95142 0.52305 0.0
H802 H 0.96311 0.84425 0.37941 0.0
H803 H 0.99106 0.95288 0.62378 0.0
H804 H 0.06386 0.90761 0.45334 0.0
H805 H 0.05762 0.86373 0.43972 0.0
C806 C 0.03016 0.83614 0.37735 0.0
C807 C 1.00349 0.83015 0.35676 0.0
C808 C 0.0478 0.91706 0.49139 0.0
C809 C 1.01676 0.87792 0.45512 0.0
C810 C 0.0522 0.94244 0.53061 0.0
C811 C 0.03186 0.95633 0.57786 0.0
C812 C 0.02277 0.90479 0.49979 0.0
C813 C 1.00718 0.94336 0.586 0.0
C814 C 0.03684 0.85976 0.42629 0.0
C815 C 0.984 0.84803 0.39202 0.0
N816 N 1.00328 0.91855 0.54677 0.0
N817 N 0.99098 0.87095 0.43842 0.0
H818 H 0.70451 0.95917 0.37486 0.0
H819 H 0.59736 0.07026 0.51806 0.0
H820 H 0.7216 0.04288 0.36711 0.0
H821 H 0.59245 0.99075 0.61774 0.0
H822 H 0.64153 0.05998 0.45465 0.0
H823 H 0.66287 0.96939 0.45745 0.0
C824 C 0.69981 0.97971 0.39258 0.0
C825 C 0.71693 1.00016 0.36532 0.0
C826 C 0.63081 0.04468 0.48992 0.0
C827 C 0.66849 1.01214 0.45724 0.0
C828 C 0.60546 0.05049 0.52581 0.0
C829 C 0.59069 0.03113 0.57117 0.0
C830 C 0.64179 0.01918 0.49872 0.0
C831 C 0.60264 1.00607 0.58087 0.0
C832 C 0.67591 0.98553 0.43929 0.0
C833 C 0.70937 0.02645 0.38823 0.0
N834 N 0.62726 1.00072 0.54411 0.0
N835 N 0.68567 0.03166 0.43166 0.0
H836 H 0.55597 0.7444 0.49765 0.0
H837 H 0.54635 0.58701 0.43415 0.0
H838 H 0.5392 0.70386 0.24112 0.0
H839 H 0.52402 0.62407 0.69174 0.0
H840 H 0.54941 0.63073 0.36766 0.0
H841 H 0.54795 0.7022 0.57635 0.0
C842 C 0.55003 0.72688 0.45816 0.0
C843 C 0.54848 0.7277 0.3624 0.0
C844 C 0.54404 0.62944 0.43906 0.0
C845 C 0.54014 0.67933 0.45137 0.0
C846 C 0.54274 0.60436 0.47756 0.0
C847 C 0.53578 0.6017 0.56963 0.0
C848 C 0.53859 0.65244 0.4928 0.0
C849 C 0.52993 0.62514 0.62096 0.0
C850 C 0.54568 0.70276 0.50297 0.0
C851 C 0.54097 0.70419 0.31479 0.0
N852 N 0.53176 0.64954 0.58231 0.0
N853 N 0.53754 0.6811 0.35927 0.0
H854 H 0.82268 0.59179 0.40829 0.0
H855 H 0.93557 0.49059 0.57491 0.0
H856 H 0.82091 0.50804 0.33919 0.0
H857 H 0.9395 0.57579 0.61185 0.0
H858 H 0.89129 0.49517 0.50653 0.0
H859 H 0.86214 0.5848 0.50177 0.0
C860 C 0.83023 0.57174 0.41466 0.0
C861 C 0.81817 0.55046 0.36605 0.0
C862 C 0.90175 0.51285 0.53021 0.0
C863 C 0.86433 0.54229 0.47218 0.0
C864 C 0.9271 0.51024 0.5699 0.0
C865 C 0.94166 0.53283 0.59899 0.0
C866 C 0.89055 0.53825 0.51995 0.0
C867 C 0.92937 0.55776 0.58969 0.0
C868 C 0.85301 0.56779 0.46753 0.0
C869 C 0.82921 0.52499 0.37629 0.0
N870 N 0.90478 0.55976 0.55102 0.0
N871 N 0.85174 0.52165 0.42731 0.0
loop_
_geom_bond_atom_site_label_1
_geom_bond_atom_site_label_2
_geom_bond_distance
_geom_bond_site_symmetry_2
_ccdc_geom_bond_type
H0 C7 0.929 . S
H1 C10 0.930 . S
H2 C12 0.929 . S
H3 C4 0.969 . S
C4 H3 0.969 . S
C4 O5 1.550 . S
C4 H6 0.973 . S
O5 C4 1.550 . S
O5 C11 1.412 . S
H6 C4 0.973 . S
C7 H0 0.929 . S
C7 C8 1.400 . S
C7 C9 1.364 . S
C8 C7 1.400 . S
C8 C12 1.377 . S
C9 C7 1.364 . S
C9 C10 1.374 . S
C10 H1 0.930 . S
C10 C9 1.374 . S
C10 C11 1.383 . S
C11 O5 1.412 . S
C11 C10 1.383 . S
C11 C12 1.394 . S
C12 H2 0.929 . S
C12 C8 1.377 . S
C12 C11 1.394 . S
H13 C20 0.929 . S
H14 C23 0.930 . S
H15 C25 0.929 . S
H16 C17 0.969 . S
C17 H16 0.969 . S
C17 O18 1.550 . S
C17 H19 0.973 . S
O18 C17 1.550 . S
O18 C24 1.412 . S
H19 C17 0.973 . S
C20 H13 0.929 . S
C20 C21 1.400 . S
C20 C22 1.364 . S
C21 C20 1.400 . S
C21 C25 1.377 . S
C22 C20 1.364 . S
C22 C23 1.374 . S
C23 H14 0.930 . S
C23 C22 1.374 . S
C23 C24 1.383 . S
C24 O18 1.412 . S
C24 C23 1.383 . S
C24 C25 1.394 . S
C25 H15 0.929 . S
C25 C21 1.377 . S
C25 C24 1.394 . S
H26 C33 0.929 . S
H27 C36 0.930 . S
H28 C38 0.929 . S
H29 C30 0.969 . S
C30 H29 0.969 . S
C30 O31 1.550 . S
C30 H32 0.973 . S
O31 C30 1.550 . S
O31 C37 1.412 . S
H32 C30 0.973 . S
C33 H26 0.929 . S
C33 C34 1.400 . S
C33 C35 1.364 . S
C34 C33 1.400 . S
C34 C38 1.377 . S
C35 C33 1.364 . S
C35 C36 1.374 . S
C36 H27 0.930 . S
C36 C35 1.374 . S
C36 C37 1.383 . S
C37 O31 1.412 . S
C37 C36 1.383 . S
C37 C38 1.394 . S
C38 H28 0.929 . S
C38 C34 1.377 . S
C38 C37 1.394 . S
H39 C46 0.929 . S
H40 C49 0.930 . S
H41 C51 0.929 . S
H42 C43 0.969 . S
C43 H42 0.969 . S
C43 O44 1.550 . S
C43 H45 0.973 . S
O44 C43 1.550 . S
O44 C50 1.412 . S
H45 C43 0.973 . S
C46 H39 0.929 . S
C46 C47 1.400 . S
C46 C48 1.364 . S
C47 C46 1.400 . S
C47 C51 1.377 . S
C48 C46 1.364 . S
C48 C49 1.374 . S
C49 H40 0.930 . S
C49 C48 1.374 . S
C49 C50 1.383 . S
C50 O44 1.412 . S
C50 C49 1.383 . S
C50 C51 1.394 . S
C51 H41 0.929 . S
C51 C47 1.377 . S
C51 C50 1.394 . S
H52 C59 0.929 . S
H53 C62 0.930 . S
H54 C64 0.929 . S
H55 C56 0.969 . S
C56 H55 0.969 . S
C56 O57 1.550 . S
C56 H58 0.973 . S
O57 C56 1.550 . S
O57 C63 1.412 . S
H58 C56 0.973 . S
C59 H52 0.929 . S
C59 C60 1.400 . S
C59 C61 1.364 1_556 S
C60 C59 1.400 . S
C60 C64 1.377 . S
C61 C59 1.364 1_554 S
C61 C62 1.374 . S
C62 H53 0.930 . S
C62 C61 1.374 . S
C62 C63 1.383 . S
C63 O57 1.412 . S
C63 C62 1.383 . S
C63 C64 1.394 1_554 S
C64 H54 0.929 . S
C64 C60 1.377 . S
C64 C63 1.394 1_556 S
H65 C72 0.929 . S
H66 C75 0.930 . S
H67 C77 0.929 . S
H68 C69 0.969 . S
C69 H68 0.969 . S
C69 O70 1.555 . S
C69 H71 0.973 . S
O70 C69 1.555 . S
O70 C76 1.412 . S
H71 C69 0.973 . S
C72 H65 0.929 . S
C72 C73 1.400 . S
C72 C74 1.364 1_556 S
C73 C72 1.400 . S
C73 C77 1.377 . S
C74 C72 1.364 1_554 S
C74 C75 1.374 . S
C75 H66 0.930 . S
C75 C74 1.374 . S
C75 C76 1.386 . S
C76 O70 1.412 . S
C76 C75 1.386 . S
C76 C77 1.392 1_554 S
C77 H67 0.929 . S
C77 C73 1.377 . S
C77 C76 1.392 1_556 S
H78 C85 0.929 . S
H79 C88 0.930 . S
H80 C90 0.929 . S
H81 C82 0.969 . S
C82 H81 0.969 . S
C82 O83 1.550 1_554 S
C82 H84 0.973 . S
O83 C82 1.550 1_556 S
O83 C89 1.412 . S
H84 C82 0.973 . S
C85 H78 0.929 . S
C85 C86 1.400 . S
C85 C87 1.364 1_556 S
C86 C85 1.400 . S
C86 C90 1.377 . S
C87 C85 1.364 1_554 S
C87 C88 1.374 . S
C88 H79 0.930 . S
C88 C87 1.374 . S
C88 C89 1.383 1_554 S
C89 O83 1.412 . S
C89 C88 1.383 1_556 S
C89 C90 1.394 . S
C90 H80 0.929 . S
C90 C86 1.377 . S
C90 C89 1.394 . S
H91 C98 0.929 . S
H92 C101 0.930 . S
H93 C103 0.929 . S
H94 C95 0.969 . S
C95 H94 0.969 . S
C95 O96 1.550 . S
C95 H97 0.973 . S
O96 C95 1.550 . S
O96 C102 1.412 . S
H97 C95 0.973 . S
C98 H91 0.929 . S
C98 C99 1.400 . S
C98 C100 1.364 1_556 S
C99 C98 1.400 . S
C99 C103 1.377 . S
C100 C98 1.364 1_554 S
C100 C101 1.374 . S
C101 H92 0.930 . S
C101 C100 1.374 . S
C101 C102 1.383 . S
C102 O96 1.412 . S
C102 C101 1.383 . S
C102 C103 1.394 1_554 S
C103 H93 0.929 . S
C103 C99 1.377 . S
C103 C102 1.394 1_556 S
Gd104 N135 2.642 1_545 S
Gd104 N141 2.601 . S
Gd104 O148 2.545 . S
Gd104 O149 2.606 1_655 S
Gd104 O151 2.429 . S
Gd104 O152 2.545 1_655 S
Gd104 O153 2.412 . S
Gd104 O155 2.362 1_545 S
Gd104 O156 2.324 1_655 S
Gd104 C163 2.828 . S
Gd105 N114 2.661 1_565 S
Gd105 N118 2.601 1_565 S
Gd105 O149 2.362 1_565 S
Gd105 O150 2.324 1_455 S
Gd105 O154 2.545 . S
Gd105 O155 2.606 1_455 S
Gd105 O157 2.429 . S
Gd105 O158 2.545 . S
Gd105 O159 2.412 . S
Gd105 C172 2.828 . S
C106 C109 1.417 1_554 S
C106 C111 1.431 . S
C106 C112 1.412 . S
C107 C110 1.437 1_554 S
C107 C111 1.317 . S
C107 H126 0.929 . S
C108 C109 1.426 . S
C108 C110 1.413 . S
C108 N118 1.359 . S
C109 C106 1.417 1_556 S
C109 C108 1.426 . S
C109 N114 1.350 . S
C110 C107 1.437 1_556 S
C110 C108 1.413 . S
C110 C120 1.391 . S
C111 C106 1.431 . S
C111 C107 1.317 . S
C111 H122 0.930 . S
C112 C106 1.412 . S
C112 C113 1.355 . S
C112 H124 0.930 . S
C113 C112 1.355 . S
C113 C115 1.402 1_554 S
C113 H125 0.930 1_455 S
N114 Gd105 2.661 1_545 S
N114 C109 1.350 . S
N114 C115 1.307 . S
C115 C113 1.402 1_556 S
C115 N114 1.307 . S
C115 H116 0.930 1_455 S
H116 C115 0.930 1_655 S
C117 N118 1.334 1_565 S
C117 C119 1.394 . S
C117 H121 0.930 . S
N118 Gd105 2.601 1_545 S
N118 C108 1.359 . S
N118 C117 1.334 1_545 S
C119 C117 1.394 . S
C119 C120 1.359 1_565 S
C119 H131 0.930 . S
C120 C110 1.391 . S
C120 C119 1.359 1_545 S
C120 H132 0.929 . S
H121 C117 0.930 . S
H122 C111 0.930 . S
H123 C140 0.930 . S
H124 C112 0.930 . S
H125 C113 0.930 1_655 S
H126 C107 0.929 . S
H127 C145 0.930 . S
H128 C136 0.930 . S
H129 C137 0.930 . S
H130 C161 0.929 . S
H131 C119 0.930 . S
H132 C120 0.929 . S
H133 C162 0.930 . S
H134 C143 0.930 . S
N135 Gd104 2.642 1_565 S
N135 C139 1.358 . S
N135 C140 1.321 1_655 S
C136 H128 0.930 . S
C136 C137 1.355 1_655 S
C136 C138 1.412 . S
C137 H129 0.930 . S
C137 C136 1.355 1_455 S
C137 C140 1.402 . S
C138 C136 1.412 . S
C138 C139 1.417 . S
C138 C162 1.431 . S
C139 N135 1.358 . S
C139 C138 1.417 . S
C139 C142 1.426 1_565 S
C140 H123 0.930 . S
C140 N135 1.321 1_455 S
C140 C137 1.402 . S
N141 Gd104 2.601 . S
N141 C142 1.359 . S
N141 C145 1.334 . S
C142 C139 1.426 1_545 S
C142 N141 1.359 . S
C142 C146 1.409 1_545 S
C143 H134 0.930 . S
C143 C144 1.359 . S
C143 C145 1.394 . S
C144 C143 1.359 . S
C144 C146 1.379 1_545 S
C144 H147 0.929 . S
C145 H127 0.930 . S
C145 N141 1.334 . S
C145 C143 1.394 . S
C146 C142 1.409 1_565 S
C146 C144 1.379 1_565 S
C146 C161 1.453 . S
H147 C144 0.929 . S
O148 Gd104 2.545 . S
O148 C163 1.258 . S
O149 Gd104 2.606 1_455 S
O149 Gd105 2.362 1_545 S
O149 C160 1.284 . S
O150 Gd105 2.324 1_655 S
O150 C170 1.254 1_565 S
O151 Gd104 2.429 . S
O151 C170 1.268 . S
O152 Gd104 2.545 1_455 S
O152 C160 1.250 . S
O153 Gd104 2.412 . S
O153 C163 1.252 . S
O154 Gd105 2.545 . S
O154 C172 1.258 . S
O155 Gd104 2.362 1_565 S
O155 Gd105 2.606 1_655 S
O155 C171 1.284 . S
O156 Gd104 2.324 1_455 S
O156 C179 1.254 . S
O157 Gd105 2.429 . S
O157 C179 1.268 1_565 S
O158 Gd105 2.545 . S
O158 C171 1.250 1_455 S
O159 Gd105 2.412 . S
O159 C172 1.252 . S
C160 O149 1.284 . S
C160 O152 1.250 . S
C161 H130 0.929 . S
C161 C146 1.453 . S
C161 C162 1.317 . S
C162 H133 0.930 . S
C162 C138 1.431 . S
C162 C161 1.317 . S
C163 Gd104 2.828 . S
C163 O148 1.258 . S
C163 O153 1.252 . S
C163 C164 1.497 . S
C164 C163 1.497 . S
C164 C165 1.395 . S
C164 C166 1.380 . S
C165 C164 1.395 . S
C165 C168 1.398 . S
C165 H180 0.930 . S
C166 C164 1.380 . S
C166 C167 1.391 . S
C166 H181 0.930 1_655 S
C167 C166 1.391 . S
C167 C169 1.387 . S
C168 C165 1.398 . S
C168 C169 1.380 . S
C168 H182 0.930 . S
C169 C167 1.387 . S
C169 C168 1.380 . S
C169 H183 0.930 . S
C170 O150 1.254 1_545 S
C170 O151 1.268 . S
C171 O155 1.284 . S
C171 O158 1.250 1_655 S
C172 Gd105 2.828 . S
C172 O154 1.258 . S
C172 O159 1.252 . S
C172 C173 1.497 . S
C173 C172 1.497 . S
C173 C174 1.395 . S
C173 C175 1.380 . S
C174 C173 1.395 . S
C174 C177 1.398 . S
C174 H184 0.930 . S
C175 C173 1.380 . S
C175 C176 1.391 . S
C175 H185 0.946 . S
C176 C175 1.391 . S
C176 C178 1.385 1_556 S
C177 C174 1.398 . S
C177 C178 1.376 1_556 S
C177 H186 0.930 . S
C178 C176 1.385 1_554 S
C178 C177 1.376 1_554 S
C178 H187 0.938 . S
C179 O156 1.254 . S
C179 O157 1.268 1_545 S
H180 C165 0.930 . S
H181 C166 0.930 1_455 S
H182 C168 0.930 . S
H183 C169 0.930 . S
H184 C174 0.930 . S
H185 C175 0.946 . S
H186 C177 0.930 . S
H187 C178 0.938 . S
Gd188 N219 2.661 . S
Gd188 N225 2.601 . S
Gd188 O232 2.545 . S
Gd188 O233 2.606 1_565 S
Gd188 O235 2.429 . S
Gd188 O236 2.545 1_565 S
Gd188 O237 2.412 . S
Gd188 O239 2.362 . S
Gd188 O240 2.324 1_565 S
Gd188 C247 2.828 . S
Gd189 N198 2.661 . S
Gd189 N202 2.601 . S
Gd189 O233 2.362 . S
Gd189 O234 2.324 1_545 S
Gd189 O238 2.545 . S
Gd189 O239 2.606 1_545 S
Gd189 O241 2.429 . S
Gd189 O242 2.545 . S
Gd189 O243 2.412 . S
Gd189 C256 2.828 . S
C190 C193 1.417 1_554 S
C190 C195 1.431 . S
C190 C196 1.412 . S
C191 C194 1.437 1_554 S
C191 C195 1.317 . S
C191 H210 0.929 . S
C192 C193 1.426 . S
C192 C194 1.413 . S
C192 N202 1.359 . S
C193 C190 1.417 1_556 S
C193 C192 1.426 . S
C193 N198 1.350 . S
C194 C191 1.437 1_556 S
C194 C192 1.413 . S
C194 C204 1.391 . S
C195 C190 1.431 . S
C195 C191 1.317 . S
C195 H206 0.930 . S
C196 C190 1.412 . S
C196 C197 1.355 . S
C196 H208 0.930 . S
C197 C196 1.355 . S
C197 C199 1.402 1_554 S
C197 H209 0.930 1_545 S
N198 Gd189 2.661 . S
N198 C193 1.350 . S
N198 C199 1.307 . S
C199 C197 1.402 1_556 S
C199 N198 1.307 . S
C199 H200 0.930 1_545 S
H200 C199 0.930 1_565 S
C201 N202 1.334 . S
C201 C203 1.394 . S
C201 H205 0.930 . S
N202 Gd189 2.601 . S
N202 C192 1.359 . S
N202 C201 1.334 . S
C203 C201 1.394 . S
C203 C204 1.359 . S
C203 H215 0.930 . S
C204 C194 1.391 . S
C204 C203 1.359 . S
C204 H216 0.929 . S
H205 C201 0.930 . S
H206 C195 0.930 . S
H207 C224 0.930 . S
H208 C196 0.930 . S
H209 C197 0.930 1_565 S
H210 C191 0.929 . S
H211 C229 0.930 . S
H212 C220 0.930 . S
H213 C221 0.930 . S
H214 C245 0.929 . S
H215 C203 0.930 . S
H216 C204 0.929 . S
H217 C246 0.930 . S
H218 C227 0.930 . S
N219 Gd188 2.661 . S
N219 C223 1.350 . S
N219 C224 1.307 1_565 S
C220 H212 0.930 . S
C220 C221 1.355 1_565 S
C220 C222 1.412 . S
C221 H213 0.930 . S
C221 C220 1.355 1_545 S
C221 C224 1.402 . S
C222 C220 1.412 . S
C222 C223 1.417 . S
C222 C246 1.431 . S
C223 N219 1.350 . S
C223 C222 1.417 . S
C223 C226 1.426 . S
C224 H207 0.930 . S
C224 N219 1.307 1_545 S
C224 C221 1.402 . S
N225 Gd188 2.601 . S
N225 C226 1.359 . S
N225 C229 1.334 . S
C226 C223 1.426 . S
C226 N225 1.359 . S
C226 C230 1.413 . S
C227 H218 0.930 . S
C227 C228 1.359 . S
C227 C229 1.394 . S
C228 C227 1.359 . S
C228 C230 1.391 . S
C228 H231 0.929 . S
C229 H211 0.930 . S
C229 N225 1.334 . S
C229 C227 1.394 . S
C230 C226 1.413 . S
C230 C228 1.391 . S
C230 C245 1.437 . S
H231 C228 0.929 . S
O232 Gd188 2.545 . S
O232 C247 1.258 . S
O233 Gd188 2.606 1_545 S
O233 Gd189 2.362 . S
O233 C244 1.284 . S
O234 Gd189 2.324 1_565 S
O234 C254 1.254 . S
O235 Gd188 2.429 . S
O235 C254 1.268 . S
O236 Gd188 2.545 1_545 S
O236 C244 1.250 . S
O237 Gd188 2.412 . S
O237 C247 1.252 . S
O238 Gd189 2.545 . S
O238 C256 1.258 . S
O239 Gd188 2.362 . S
O239 Gd189 2.606 1_565 S
O239 C255 1.284 . S
O240 Gd188 2.324 1_545 S
O240 C263 1.254 . S
O241 Gd189 2.429 . S
O241 C263 1.268 . S
O242 Gd189 2.545 . S
O242 C255 1.250 1_545 S
O243 Gd189 2.412 . S
O243 C256 1.252 . S
C244 O233 1.284 . S
C244 O236 1.250 . S
C245 H214 0.929 . S
C245 C230 1.437 . S
C245 C246 1.317 . S
C246 H217 0.930 . S
C246 C222 1.431 . S
C246 C245 1.317 . S
C247 Gd188 2.828 . S
C247 O232 1.258 . S
C247 O237 1.252 . S
C247 C248 1.497 . S
C248 C247 1.497 . S
C248 C249 1.395 . S
C248 C250 1.380 . S
C249 C248 1.395 . S
C249 C252 1.398 . S
C249 H264 0.930 . S
C250 C248 1.380 . S
C250 C251 1.391 . S
C250 H265 0.930 1_565 S
C251 C250 1.391 . S
C251 C253 1.387 . S
C252 C249 1.398 . S
C252 C253 1.380 . S
C252 H266 0.930 . S
C253 C251 1.387 . S
C253 C252 1.380 . S
C253 H267 0.930 . S
C254 O234 1.254 . S
C254 O235 1.268 . S
C255 O239 1.284 . S
C255 O242 1.250 1_565 S
C256 Gd189 2.828 . S
C256 O238 1.258 . S
C256 O243 1.252 . S
C256 C257 1.497 . S
C257 C256 1.497 . S
C257 C258 1.395 . S
C257 C259 1.380 . S
C258 C257 1.395 . S
C258 C261 1.398 . S
C258 H268 0.930 . S
C259 C257 1.380 . S
C259 C260 1.391 . S
C259 H269 0.930 . S
C260 C259 1.391 . S
C260 C262 1.387 1_556 S
C261 C258 1.398 . S
C261 C262 1.380 1_556 S
C261 H270 0.930 . S
C262 C260 1.387 1_554 S
C262 C261 1.380 1_554 S
C262 H271 0.930 . S
C263 O240 1.254 . S
C263 O241 1.268 . S
H264 C249 0.930 . S
H265 C250 0.930 1_545 S
H266 C252 0.930 . S
H267 C253 0.930 . S
H268 C258 0.930 . S
H269 C259 0.930 . S
H270 C261 0.930 . S
H271 C262 0.930 . S
Gd272 N303 2.661 . S
Gd272 N309 2.601 . S
Gd272 O316 2.545 . S
Gd272 O317 2.606 . S
Gd272 O319 2.429 . S
Gd272 O320 2.545 . S
Gd272 O321 2.412 . S
Gd272 O323 2.362 . S
Gd272 O324 2.324 . S
Gd272 C331 2.828 . S
Gd273 N282 2.661 . S
Gd273 N286 2.601 . S
Gd273 O317 2.362 . S
Gd273 O318 2.324 . S
Gd273 O322 2.545 . S
Gd273 O323 2.606 . S
Gd273 O325 2.429 . S
Gd273 O326 2.545 . S
Gd273 O327 2.412 . S
Gd273 C340 2.828 . S
C274 C277 1.417 . S
C274 C279 1.431 . S
C274 C280 1.412 . S
C275 C278 1.437 . S
C275 C279 1.317 . S
C275 H294 0.929 . S
C276 C277 1.426 . S
C276 C278 1.413 . S
C276 N286 1.359 . S
C277 C274 1.417 . S
C277 C276 1.426 . S
C277 N282 1.350 . S
C278 C275 1.437 . S
C278 C276 1.413 . S
C278 C288 1.391 . S
C279 C274 1.431 . S
C279 C275 1.317 . S
C279 H290 0.930 . S
C280 C274 1.412 . S
C280 C281 1.355 . S
C280 H292 0.930 . S
C281 C280 1.355 . S
C281 C283 1.402 . S
C281 H293 0.930 . S
N282 Gd273 2.661 . S
N282 C277 1.350 . S
N282 C283 1.307 . S
C283 C281 1.402 . S
C283 N282 1.307 . S
C283 H284 0.930 . S
H284 C283 0.930 . S
C285 N286 1.334 . S
C285 C287 1.394 . S
C285 H289 0.930 . S
N286 Gd273 2.601 . S
N286 C276 1.359 . S
N286 C285 1.334 . S
C287 C285 1.394 . S
C287 C288 1.359 . S
C287 H299 0.930 . S
C288 C278 1.391 . S
C288 C287 1.359 . S
C288 H300 0.929 . S
H289 C285 0.930 . S
H290 C279 0.930 . S
H291 C308 0.930 . S
H292 C280 0.930 . S
H293 C281 0.930 . S
H294 C275 0.929 . S
H295 C313 0.930 . S
H296 C304 0.930 . S
H297 C305 0.930 . S
H298 C329 0.929 . S
H299 C287 0.930 . S
H300 C288 0.929 . S
H301 C330 0.930 . S
H302 C311 0.930 . S
N303 Gd272 2.661 . S
N303 C307 1.350 . S
N303 C308 1.307 . S
C304 H296 0.930 . S
C304 C305 1.355 . S
C304 C306 1.412 . S
C305 H297 0.930 . S
C305 C304 1.355 . S
C305 C308 1.402 . S
C306 C304 1.412 . S
C306 C307 1.417 . S
C306 C330 1.431 . S
C307 N303 1.350 . S
C307 C306 1.417 . S
C307 C310 1.426 . S
C308 H291 0.930 . S
C308 N303 1.307 . S
C308 C305 1.402 . S
N309 Gd272 2.601 . S
N309 C310 1.359 . S
N309 C313 1.334 . S
C310 C307 1.426 . S
C310 N309 1.359 . S
C310 C314 1.413 . S
C311 H302 0.930 . S
C311 C312 1.359 . S
C311 C313 1.394 . S
C312 C311 1.359 . S
C312 C314 1.391 . S
C312 H315 0.929 . S
C313 H295 0.930 . S
C313 N309 1.334 . S
C313 C311 1.394 . S
C314 C310 1.413 . S
C314 C312 1.391 . S
C314 C329 1.437 . S
H315 C312 0.929 . S
O316 Gd272 2.545 . S
O316 C331 1.258 . S
O317 Gd272 2.606 . S
O317 Gd273 2.362 . S
O317 C328 1.284 . S
O318 Gd273 2.324 . S
O318 C338 1.254 . S
O319 Gd272 2.429 . S
O319 C338 1.268 . S
O320 Gd272 2.545 . S
O320 C328 1.250 . S
O321 Gd272 2.412 . S
O321 C331 1.252 . S
O322 Gd273 2.545 . S
O322 C340 1.258 . S
O323 Gd272 2.362 . S
O323 Gd273 2.606 . S
O323 C339 1.284 . S
O324 Gd272 2.324 . S
O324 C347 1.254 . S
O325 Gd273 2.429 . S
O325 C347 1.268 . S
O326 Gd273 2.545 . S
O326 C339 1.250 . S
O327 Gd273 2.412 . S
O327 C340 1.252 . S
C328 O317 1.284 . S
C328 O320 1.250 . S
C329 H298 0.929 . S
C329 C314 1.437 . S
C329 C330 1.317 . S
C330 H301 0.930 . S
C330 C306 1.431 . S
C330 C329 1.317 . S
C331 Gd272 2.828 . S
C331 O316 1.258 . S
C331 O321 1.252 . S
C331 C332 1.497 . S
C332 C331 1.497 . S
C332 C333 1.395 1_556 S
C332 C334 1.380 . S
C333 C332 1.395 1_554 S
C333 C336 1.398 . S
C333 H348 0.930 . S
C334 C332 1.380 . S
C334 C335 1.391 1_556 S
C334 H349 0.930 . S
C335 C334 1.391 1_554 S
C335 C337 1.387 . S
C336 C333 1.398 . S
C336 C337 1.380 . S
C336 H350 0.930 . S
C337 C335 1.387 . S
C337 C336 1.380 . S
C337 H351 0.930 . S
C338 O318 1.254 . S
C338 O319 1.268 . S
C339 O323 1.284 . S
C339 O326 1.250 . S
C340 Gd273 2.828 . S
C340 O322 1.258 . S
C340 O327 1.252 . S
C340 C341 1.497 . S
C341 C340 1.497 . S
C341 C342 1.395 . S
C341 C343 1.380 . S
C342 C341 1.395 . S
C342 C345 1.398 . S
C342 H352 0.930 . S
C343 C341 1.380 . S
C343 C344 1.391 . S
C343 H353 0.930 . S
C344 C343 1.391 . S
C344 C346 1.387 . S
C345 C342 1.398 . S
C345 C346 1.380 . S
C345 H354 0.930 . S
C346 C344 1.387 . S
C346 C345 1.380 . S
C346 H355 0.930 . S
C347 O324 1.254 . S
C347 O325 1.268 . S
H348 C333 0.930 . S
H349 C334 0.930 . S
H350 C336 0.930 . S
H351 C337 0.930 . S
H352 C342 0.930 . S
H353 C343 0.930 . S
H354 C345 0.930 . S
H355 C346 0.930 . S
Gd356 N387 2.661 . S
Gd356 N393 2.601 . S
Gd356 O400 2.545 . S
Gd356 O401 2.606 1_655 S
Gd356 O403 2.429 1_655 S
Gd356 O404 2.545 . S
Gd356 O405 2.412 . S
Gd356 O407 2.362 1_655 S
Gd356 O408 2.324 . S
Gd356 C415 2.828 . S
Gd357 N366 2.661 . S
Gd357 N370 2.601 . S
Gd357 O401 2.362 . S
Gd357 O402 2.324 . S
Gd357 O406 2.545 . S
Gd357 O407 2.606 . S
Gd357 O409 2.429 1_455 S
Gd357 O410 2.545 . S
Gd357 O411 2.412 . S
Gd357 C424 2.828 . S
C358 C361 1.417 . S
C358 C363 1.431 . S
C358 C364 1.412 . S
C359 C362 1.437 . S
C359 C363 1.317 . S
C359 H378 0.929 . S
C360 C361 1.426 . S
C360 C362 1.413 . S
C360 N370 1.359 . S
C361 C358 1.417 . S
C361 C360 1.426 . S
C361 N366 1.350 . S
C362 C359 1.437 . S
C362 C360 1.413 . S
C362 C372 1.391 . S
C363 C358 1.431 . S
C363 C359 1.317 . S
C363 H374 0.930 . S
C364 C358 1.412 . S
C364 C365 1.355 . S
C364 H376 0.930 . S
C365 C364 1.355 . S
C365 C367 1.402 . S
C365 H377 0.930 . S
N366 Gd357 2.661 . S
N366 C361 1.350 . S
N366 C367 1.307 . S
C367 C365 1.402 . S
C367 N366 1.307 . S
C367 H368 0.930 . S
H368 C367 0.930 . S
C369 N370 1.342 . S
C369 C371 1.393 1_455 S
C369 H373 0.923 1_455 S
N370 Gd357 2.601 . S
N370 C360 1.359 . S
N370 C369 1.342 . S
C371 C369 1.393 1_655 S
C371 C372 1.359 1_655 S
C371 H383 0.930 . S
C372 C362 1.391 . S
C372 C371 1.359 1_455 S
C372 H384 0.929 . S
H373 C369 0.923 1_655 S
H374 C363 0.930 . S
H375 C392 0.930 . S
H376 C364 0.930 . S
H377 C365 0.930 . S
H378 C359 0.929 . S
H379 C397 0.930 . S
H380 C388 0.930 . S
H381 C389 0.930 . S
H382 C413 0.929 . S
H383 C371 0.930 . S
H384 C372 0.929 . S
H385 C414 0.930 . S
H386 C395 0.930 . S
N387 Gd356 2.661 . S
N387 C391 1.350 . S
N387 C392 1.307 . S
C388 H380 0.930 . S
C388 C389 1.355 . S
C388 C390 1.412 . S
C389 H381 0.930 . S
C389 C388 1.355 . S
C389 C392 1.402 . S
C390 C388 1.412 . S
C390 C391 1.417 . S
C390 C414 1.431 . S
C391 N387 1.350 . S
C391 C390 1.417 . S
C391 C394 1.426 . S
C392 H375 0.930 . S
C392 N387 1.307 . S
C392 C389 1.402 . S
N393 Gd356 2.601 . S
N393 C394 1.359 . S
N393 C397 1.334 1_655 S
C394 C391 1.426 . S
C394 N393 1.359 . S
C394 C398 1.413 . S
C395 H386 0.930 . S
C395 C396 1.359 . S
C395 C397 1.394 . S
C396 C395 1.359 . S
C396 C398 1.391 1_455 S
C396 H399 0.929 . S
C397 H379 0.930 . S
C397 N393 1.334 1_455 S
C397 C395 1.394 . S
C398 C394 1.413 . S
C398 C396 1.391 1_655 S
C398 C413 1.437 . S
H399 C396 0.929 . S
O400 Gd356 2.545 . S
O400 C415 1.258 . S
O401 Gd356 2.606 1_455 S
O401 Gd357 2.362 . S
O401 C412 1.284 1_455 S
O402 Gd357 2.324 . S
O402 C422 1.254 . S
O403 Gd356 2.429 1_455 S
O403 C422 1.268 . S
O404 Gd356 2.545 . S
O404 C412 1.250 . S
O405 Gd356 2.412 . S
O405 C415 1.252 . S
O406 Gd357 2.545 . S
O406 C424 1.258 . S
O407 Gd356 2.362 1_455 S
O407 Gd357 2.606 . S
O407 C423 1.284 . S
O408 Gd356 2.324 . S
O408 C431 1.254 . S
O409 Gd357 2.429 1_655 S
O409 C431 1.268 . S
O410 Gd357 2.545 . S
O410 C423 1.250 . S
O411 Gd357 2.412 . S
O411 C424 1.252 . S
C412 O401 1.284 1_655 S
C412 O404 1.250 . S
C413 H382 0.929 . S
C413 C398 1.437 . S
C413 C414 1.317 . S
C414 H385 0.930 . S
C414 C390 1.431 . S
C414 C413 1.317 . S
C415 Gd356 2.828 . S
C415 O400 1.258 . S
C415 O405 1.252 . S
C415 C416 1.497 . S
C416 C415 1.497 . S
C416 C417 1.395 1_556 S
C416 C418 1.380 . S
C417 C416 1.395 1_554 S
C417 C420 1.398 . S
C417 H432 0.930 . S
C418 C416 1.380 . S
C418 C419 1.391 1_556 S
C418 H433 0.930 . S
C419 C418 1.391 1_554 S
C419 C421 1.387 . S
C420 C417 1.398 . S
C420 C421 1.380 . S
C420 H434 0.930 . S
C421 C419 1.387 . S
C421 C420 1.380 . S
C421 H435 0.930 . S
C422 O402 1.254 . S
C422 O403 1.268 . S
C423 O407 1.284 . S
C423 O410 1.250 . S
C424 Gd357 2.828 . S
C424 O406 1.258 . S
C424 O411 1.252 . S
C424 C425 1.497 . S
C425 C424 1.497 . S
C425 C426 1.395 . S
C425 C427 1.380 . S
C426 C425 1.395 . S
C426 C429 1.398 . S
C426 H436 0.930 . S
C427 C425 1.380 . S
C427 C428 1.391 . S
C427 H437 0.930 . S
C428 C427 1.391 . S
C428 C430 1.387 . S
C429 C426 1.398 . S
C429 C430 1.380 . S
C429 H438 0.930 . S
C430 C428 1.387 . S
C430 C429 1.380 . S
C430 H439 0.930 . S
C431 O408 1.254 . S
C431 O409 1.268 . S
H432 C417 0.930 . S
H433 C418 0.930 . S
H434 C420 0.930 . S
H435 C421 0.930 . S
H436 C426 0.930 . S
H437 C427 0.930 . S
H438 C429 0.930 . S
H439 C430 0.930 . S
H440 C446 0.930 . S
H441 C450 0.930 . S
H442 C455 0.929 . S
H443 C453 0.929 1_565 S
H444 C448 0.929 . S
H445 C454 0.929 . S
C446 H440 0.930 . S
C446 C447 1.367 . S
C446 C454 1.378 . S
C447 C446 1.367 . S
C447 C455 1.433 . S
C448 H444 0.929 . S
C448 C450 1.378 . S
C448 C452 1.350 . S
C449 C452 1.463 . S
C449 C454 1.350 . S
C449 N457 1.427 . S
C450 H441 0.930 . S
C450 C448 1.378 . S
C450 C451 1.367 . S
C451 C450 1.367 . S
C451 C453 1.433 . S
C452 C448 1.350 . S
C452 C449 1.463 . S
C452 N456 1.427 . S
C453 H443 0.929 1_545 S
C453 C451 1.433 . S
C453 N456 1.384 . S
C454 H445 0.929 . S
C454 C446 1.378 . S
C454 C449 1.350 . S
C455 H442 0.929 . S
C455 C447 1.433 . S
C455 N457 1.384 . S
N456 C452 1.427 . S
N456 C453 1.384 . S
N457 C449 1.427 . S
N457 C455 1.384 . S
H458 C464 0.930 . S
H459 C468 0.930 . S
H460 C473 0.929 . S
H461 C471 0.929 . S
H462 C466 0.929 . S
H463 C472 0.929 . S
C464 H458 0.930 . S
C464 C465 1.367 . S
C464 C472 1.378 . S
C465 C464 1.367 . S
C465 C473 1.433 . S
C466 H462 0.929 . S
C466 C468 1.378 . S
C466 C470 1.350 . S
C467 C470 1.463 . S
C467 C472 1.350 . S
C467 N475 1.427 . S
C468 H459 0.930 . S
C468 C466 1.378 . S
C468 C469 1.367 . S
C469 C468 1.367 . S
C469 C471 1.433 . S
C470 C466 1.350 . S
C470 C467 1.463 . S
C470 N474 1.427 . S
C471 H461 0.929 . S
C471 C469 1.433 . S
C471 N474 1.384 . S
C472 H463 0.929 . S
C472 C464 1.378 . S
C472 C467 1.350 . S
C473 H460 0.929 . S
C473 C465 1.433 . S
C473 N475 1.384 . S
N474 C470 1.427 . S
N474 C471 1.384 . S
N475 C467 1.427 . S
N475 C473 1.384 . S
H476 C482 0.930 . S
H477 C486 0.930 . S
H478 C491 0.929 . S
H479 C489 0.929 . S
H480 C484 0.929 . S
H481 C490 0.929 . S
C482 H476 0.930 . S
C482 C483 1.367 . S
C482 C490 1.378 . S
C483 C482 1.367 . S
C483 C491 1.433 . S
C484 H480 0.929 . S
C484 C486 1.378 . S
C484 C488 1.350 . S
C485 C488 1.463 . S
C485 C490 1.350 . S
C485 N493 1.427 . S
C486 H477 0.930 . S
C486 C484 1.378 . S
C486 C487 1.367 . S
C487 C486 1.367 . S
C487 C489 1.433 . S
C488 C484 1.350 . S
C488 C485 1.463 . S
C488 N492 1.427 . S
C489 H479 0.929 . S
C489 C487 1.433 . S
C489 N492 1.384 . S
C490 H481 0.929 . S
C490 C482 1.378 . S
C490 C485 1.350 . S
C491 H478 0.929 . S
C491 C483 1.433 . S
C491 N493 1.384 . S
N492 C488 1.427 . S
N492 C489 1.384 . S
N493 C485 1.427 . S
N493 C491 1.384 . S
H494 C500 0.930 . S
H495 C504 0.942 . S
H496 C509 0.929 . S
H497 C507 0.929 . S
H498 C502 0.929 . S
H499 C508 0.929 . S
C500 H494 0.930 . S
C500 C501 1.367 . S
C500 C508 1.378 . S
C501 C500 1.367 . S
C501 C509 1.433 . S
C502 H498 0.929 . S
C502 C504 1.378 . S
C502 C506 1.350 . S
C503 C506 1.463 . S
C503 C508 1.350 . S
C503 N511 1.427 . S
C504 H495 0.942 . S
C504 C502 1.378 . S
C504 C505 1.367 . S
C505 C504 1.367 . S
C505 C507 1.433 . S
C506 C502 1.350 . S
C506 C503 1.463 . S
C506 N510 1.427 . S
C507 H497 0.929 . S
C507 C505 1.433 . S
C507 N510 1.384 . S
C508 H499 0.929 . S
C508 C500 1.378 . S
C508 C503 1.350 . S
C509 H496 0.929 . S
C509 C501 1.433 . S
C509 N511 1.384 . S
N510 C506 1.427 . S
N510 C507 1.384 . S
N511 C503 1.427 . S
N511 C509 1.384 . S
H512 C518 0.934 1_545 S
H513 C522 0.930 . S
H514 C527 0.929 . S
H515 C525 0.929 . S
H516 C520 0.929 . S
H517 C526 0.929 1_545 S
C518 H512 0.934 1_565 S
C518 C519 1.367 . S
C518 C526 1.378 . S
C519 C518 1.367 . S
C519 C527 1.433 . S
C520 H516 0.929 . S
C520 C522 1.378 . S
C520 C524 1.350 . S
C521 C524 1.463 1_554 S
C521 C526 1.350 . S
C521 N529 1.427 . S
C522 H513 0.930 . S
C522 C520 1.378 . S
C522 C523 1.367 . S
C523 C522 1.367 . S
C523 C525 1.433 1_565 S
C524 C520 1.350 . S
C524 C521 1.463 1_556 S
C524 N528 1.427 1_565 S
C525 H515 0.929 . S
C525 C523 1.433 1_545 S
C525 N528 1.384 . S
C526 H517 0.929 1_565 S
C526 C518 1.378 . S
C526 C521 1.350 . S
C527 H514 0.929 . S
C527 C519 1.433 . S
C527 N529 1.384 . S
N528 C524 1.427 1_545 S
N528 C525 1.384 . S
N529 C521 1.427 . S
N529 C527 1.384 . S
H530 C536 0.930 . S
H531 C540 0.930 . S
H532 C545 0.929 . S
H533 C543 0.929 . S
H534 C538 0.929 . S
H535 C544 0.929 . S
C536 H530 0.930 . S
C536 C537 1.367 . S
C536 C544 1.378 . S
C537 C536 1.367 . S
C537 C545 1.433 . S
C538 H534 0.929 . S
C538 C540 1.378 . S
C538 C542 1.350 . S
C539 C542 1.463 1_554 S
C539 C544 1.350 . S
C539 N547 1.427 . S
C540 H531 0.930 . S
C540 C538 1.378 . S
C540 C541 1.367 . S
C541 C540 1.367 . S
C541 C543 1.433 . S
C542 C538 1.350 . S
C542 C539 1.463 1_556 S
C542 N546 1.427 . S
C543 H533 0.929 . S
C543 C541 1.433 . S
C543 N546 1.384 . S
C544 H535 0.929 . S
C544 C536 1.378 . S
C544 C539 1.350 . S
C545 H532 0.929 . S
C545 C537 1.433 . S
C545 N547 1.384 . S
N546 C542 1.427 . S
N546 C543 1.384 . S
N547 C539 1.427 . S
N547 C545 1.384 . S
H548 C554 0.930 . S
H549 C558 0.930 . S
H550 C563 0.929 . S
H551 C561 0.929 . S
H552 C556 0.929 1_554 S
H553 C562 0.929 1_556 S
C554 H548 0.930 . S
C554 C555 1.367 . S
C554 C562 1.378 . S
C555 C554 1.367 . S
C555 C563 1.433 . S
C556 H552 0.929 1_556 S
C556 C558 1.378 . S
C556 C560 1.350 . S
C557 C560 1.463 1_554 S
C557 C562 1.350 . S
C557 N565 1.427 . S
C558 H549 0.930 . S
C558 C556 1.378 . S
C558 C559 1.367 . S
C559 C558 1.367 . S
C559 C561 1.433 . S
C560 C556 1.350 . S
C560 C557 1.463 1_556 S
C560 N564 1.427 . S
C561 H551 0.929 . S
C561 C559 1.433 . S
C561 N564 1.384 . S
C562 H553 0.929 1_554 S
C562 C554 1.378 . S
C562 C557 1.350 . S
C563 H550 0.929 . S
C563 C555 1.433 . S
C563 N565 1.384 . S
N564 C560 1.427 . S
N564 C561 1.384 . S
N565 C557 1.427 . S
N565 C563 1.384 . S
H566 C572 0.930 . S
H567 C576 0.930 . S
H568 C581 0.929 . S
H569 C579 0.929 . S
H570 C574 0.929 1_455 S
H571 C580 0.929 . S
C572 H566 0.930 . S
C572 C573 1.367 . S
C572 C580 1.378 . S
C573 C572 1.367 . S
C573 C581 1.433 . S
C574 H570 0.929 1_655 S
C574 C576 1.378 1_655 S
C574 C578 1.350 . S
C575 C578 1.463 1_554 S
C575 C580 1.350 . S
C575 N583 1.427 . S
C576 H567 0.930 . S
C576 C574 1.378 1_455 S
C576 C577 1.367 1_455 S
C577 C576 1.367 1_655 S
C577 C579 1.433 . S
C578 C574 1.350 . S
C578 C575 1.463 1_556 S
C578 N582 1.427 . S
C579 H569 0.929 . S
C579 C577 1.433 . S
C579 N582 1.384 . S
C580 H571 0.929 . S
C580 C572 1.378 . S
C580 C575 1.350 . S
C581 H568 0.929 . S
C581 C573 1.433 . S
C581 N583 1.384 . S
N582 C578 1.427 . S
N582 C579 1.384 . S
N583 C575 1.427 . S
N583 C581 1.384 . S
H584 C590 0.930 . S
H585 C594 0.930 . S
H586 C599 0.929 . S
H587 C597 0.929 1_655 S
H588 C592 0.929 . S
H589 C598 0.929 . S
C590 H584 0.930 . S
C590 C591 1.367 . S
C590 C598 1.378 . S
C591 C590 1.367 . S
C591 C599 1.433 . S
C592 H588 0.929 . S
C592 C594 1.378 . S
C592 C596 1.350 . S
C593 C596 1.463 . S
C593 C598 1.350 . S
C593 N601 1.427 . S
C594 H585 0.930 . S
C594 C592 1.378 . S
C594 C595 1.367 . S
C595 C594 1.367 . S
C595 C597 1.433 . S
C596 C592 1.350 . S
C596 C593 1.463 . S
C596 N600 1.427 . S
C597 H587 0.929 1_455 S
C597 C595 1.433 . S
C597 N600 1.384 . S
C598 H589 0.929 . S
C598 C590 1.378 . S
C598 C593 1.350 . S
C599 H586 0.929 . S
C599 C591 1.433 . S
C599 N601 1.384 . S
N600 C596 1.427 . S
N600 C597 1.384 . S
N601 C593 1.427 . S
N601 C599 1.384 . S
H602 C608 0.930 . S
H603 C612 0.930 . S
H604 C617 0.929 . S
H605 C615 0.929 . S
H606 C610 0.929 . S
H607 C616 0.929 . S
C608 H602 0.930 . S
C608 C609 1.367 . S
C608 C616 1.378 . S
C609 C608 1.367 . S
C609 C617 1.433 . S
C610 H606 0.929 . S
C610 C612 1.378 . S
C610 C614 1.350 . S
C611 C614 1.463 . S
C611 C616 1.350 . S
C611 N619 1.427 . S
C612 H603 0.930 . S
C612 C610 1.378 . S
C612 C613 1.367 . S
C613 C612 1.367 . S
C613 C615 1.433 1_545 S
C614 C610 1.350 . S
C614 C611 1.463 . S
C614 N618 1.427 . S
C615 H605 0.929 . S
C615 C613 1.433 1_565 S
C615 N618 1.384 1_565 S
C616 H607 0.929 . S
C616 C608 1.378 . S
C616 C611 1.350 . S
C617 H604 0.929 . S
C617 C609 1.433 . S
C617 N619 1.384 . S
N618 C614 1.427 . S
N618 C615 1.384 1_545 S
N619 C611 1.427 . S
N619 C617 1.384 . S
H620 C626 0.930 . S
H621 C630 0.930 . S
H622 C635 0.929 . S
H623 C633 0.929 . S
H624 C628 0.929 . S
H625 C634 0.929 . S
C626 H620 0.930 . S
C626 C627 1.367 . S
C626 C634 1.378 . S
C627 C626 1.367 . S
C627 C635 1.433 . S
C628 H624 0.929 . S
C628 C630 1.378 . S
C628 C632 1.350 . S
C629 C632 1.463 . S
C629 C634 1.350 . S
C629 N637 1.427 . S
C630 H621 0.930 . S
C630 C628 1.378 . S
C630 C631 1.367 . S
C631 C630 1.367 . S
C631 C633 1.433 . S
C632 C628 1.350 . S
C632 C629 1.463 . S
C632 N636 1.427 . S
C633 H623 0.929 . S
C633 C631 1.433 . S
C633 N636 1.384 . S
C634 H625 0.929 . S
C634 C626 1.378 . S
C634 C629 1.350 . S
C635 H622 0.929 . S
C635 C627 1.433 . S
C635 N637 1.384 . S
N636 C632 1.427 . S
N636 C633 1.384 . S
N637 C629 1.427 . S
N637 C635 1.384 . S
H638 C644 0.930 1_556 S
H639 C648 0.930 . S
H640 C653 0.929 . S
H641 C651 0.929 . S
H642 C646 0.929 . S
H643 C652 0.929 . S
C644 H638 0.930 1_554 S
C644 C645 1.367 . S
C644 C652 1.378 . S
C645 C644 1.367 . S
C645 C653 1.433 . S
C646 H642 0.929 . S
C646 C648 1.378 . S
C646 C650 1.350 . S
C647 C650 1.463 . S
C647 C652 1.350 . S
C647 N655 1.427 . S
C648 H639 0.930 . S
C648 C646 1.378 . S
C648 C649 1.367 . S
C649 C648 1.367 . S
C649 C651 1.433 . S
C650 C646 1.350 . S
C650 C647 1.463 . S
C650 N654 1.427 . S
C651 H641 0.929 . S
C651 C649 1.433 . S
C651 N654 1.384 . S
C652 H643 0.929 . S
C652 C644 1.378 . S
C652 C647 1.350 . S
C653 H640 0.929 . S
C653 C645 1.433 . S
C653 N655 1.384 . S
N654 C650 1.427 . S
N654 C651 1.384 . S
N655 C647 1.427 . S
N655 C653 1.384 . S
H656 C662 0.930 . S
H657 C666 0.930 . S
H658 C671 0.929 . S
H659 C669 0.935 . S
H660 C664 0.929 . S
H661 C670 0.929 . S
C662 H656 0.930 . S
C662 C663 1.367 . S
C662 C670 1.378 . S
C663 C662 1.367 . S
C663 C671 1.433 . S
C664 H660 0.929 . S
C664 C666 1.378 1_655 S
C664 C668 1.350 . S
C665 C668 1.463 . S
C665 C670 1.350 . S
C665 N673 1.427 . S
C666 H657 0.930 . S
C666 C664 1.378 1_455 S
C666 C667 1.367 1_554 S
C667 C666 1.367 1_556 S
C667 C669 1.442 . S
C668 C664 1.350 . S
C668 C665 1.463 . S
C668 N672 1.427 1_554 S
C669 H659 0.935 . S
C669 C667 1.442 . S
C669 N672 1.370 1_455 S
C670 H661 0.929 . S
C670 C662 1.378 . S
C670 C665 1.350 . S
C671 H658 0.929 . S
C671 C663 1.433 . S
C671 N673 1.384 . S
N672 C668 1.427 1_556 S
N672 C669 1.370 1_655 S
N673 C665 1.427 . S
N673 C671 1.384 . S
H674 C680 0.930 . S
H675 C684 0.930 . S
H676 C689 0.929 . S
H677 C687 0.929 . S
H678 C682 0.929 1_556 S
H679 C688 0.929 1_545 S
C680 H674 0.930 . S
C680 C681 1.367 . S
C680 C688 1.378 . S
C681 C680 1.367 . S
C681 C689 1.433 . S
C682 H678 0.929 1_554 S
C682 C684 1.378 1_554 S
C682 C686 1.350 . S
C683 C686 1.463 . S
C683 C688 1.350 . S
C683 N691 1.427 . S
C684 H675 0.930 . S
C684 C682 1.378 1_556 S
C684 C685 1.367 1_565 S
C685 C684 1.367 1_545 S
C685 C687 1.433 1_556 S
C686 C682 1.350 . S
C686 C683 1.463 . S
C686 N690 1.427 1_565 S
C687 H677 0.929 . S
C687 C685 1.433 1_554 S
C687 N690 1.384 . S
C688 H679 0.929 1_565 S
C688 C680 1.378 . S
C688 C683 1.350 . S
C689 H676 0.929 . S
C689 C681 1.433 . S
C689 N691 1.384 . S
N690 C686 1.427 1_545 S
N690 C687 1.384 . S
N691 C683 1.427 . S
N691 C689 1.384 . S
H692 C698 0.930 . S
H693 C702 0.930 . S
H694 C707 0.929 . S
H695 C705 0.929 . S
H696 C700 0.929 . S
H697 C706 0.929 . S
C698 H692 0.930 . S
C698 C699 1.367 . S
C698 C706 1.378 . S
C699 C698 1.367 . S
C699 C707 1.433 . S
C700 H696 0.929 . S
C700 C702 1.378 . S
C700 C704 1.350 . S
C701 C704 1.463 . S
C701 C706 1.350 . S
C701 N709 1.427 . S
C702 H693 0.930 . S
C702 C700 1.378 . S
C702 C703 1.367 . S
C703 C702 1.367 . S
C703 C705 1.433 1_554 S
C704 C700 1.350 . S
C704 C701 1.463 . S
C704 N708 1.427 . S
C705 H695 0.929 . S
C705 C703 1.433 1_556 S
C705 N708 1.384 1_556 S
C706 H697 0.929 . S
C706 C698 1.378 . S
C706 C701 1.350 . S
C707 H694 0.929 . S
C707 C699 1.433 . S
C707 N709 1.384 . S
N708 C704 1.427 . S
N708 C705 1.384 1_554 S
N709 C701 1.427 . S
N709 C707 1.384 . S
H710 C716 0.930 . S
H711 C720 0.930 . S
H712 C725 0.929 . S
H713 C723 0.929 . S
H714 C718 0.929 . S
H715 C724 0.929 . S
C716 H710 0.930 . S
C716 C717 1.367 . S
C716 C724 1.378 . S
C717 C716 1.367 . S
C717 C725 1.433 . S
C718 H714 0.929 . S
C718 C720 1.378 . S
C718 C722 1.350 . S
C719 C722 1.463 . S
C719 C724 1.350 . S
C719 N727 1.427 . S
C720 H711 0.930 . S
C720 C718 1.378 . S
C720 C721 1.367 . S
C721 C720 1.367 . S
C721 C723 1.433 1_554 S
C722 C718 1.350 . S
C722 C719 1.463 . S
C722 N726 1.427 . S
C723 H713 0.929 . S
C723 C721 1.433 1_556 S
C723 N726 1.384 1_556 S
C724 H715 0.929 . S
C724 C716 1.378 . S
C724 C719 1.350 . S
C725 H712 0.929 . S
C725 C717 1.433 . S
C725 N727 1.384 . S
N726 C722 1.427 . S
N726 C723 1.384 1_554 S
N727 C719 1.427 . S
N727 C725 1.384 . S
H728 C734 0.930 . S
H729 C738 0.930 . S
H730 C743 0.929 . S
H731 C741 0.929 . S
H732 C736 0.929 . S
H733 C742 0.929 . S
C734 H728 0.930 . S
C734 C735 1.367 . S
C734 C742 1.378 . S
C735 C734 1.367 . S
C735 C743 1.433 . S
C736 H732 0.929 . S
C736 C738 1.378 . S
C736 C740 1.350 . S
C737 C740 1.463 . S
C737 C742 1.350 . S
C737 N745 1.427 . S
C738 H729 0.930 . S
C738 C736 1.378 . S
C738 C739 1.367 . S
C739 C738 1.367 . S
C739 C741 1.433 . S
C740 C736 1.350 . S
C740 C737 1.463 . S
C740 N744 1.427 . S
C741 H731 0.929 . S
C741 C739 1.433 . S
C741 N744 1.384 . S
C742 H733 0.929 . S
C742 C734 1.378 . S
C742 C737 1.350 . S
C743 H730 0.929 . S
C743 C735 1.433 . S
C743 N745 1.384 . S
N744 C740 1.427 . S
N744 C741 1.384 . S
N745 C737 1.427 . S
N745 C743 1.384 . S
H746 C752 0.930 . S
H747 C756 0.930 . S
H748 C761 0.929 . S
H749 C759 0.929 . S
H750 C754 0.929 . S
H751 C760 0.929 . S
C752 H746 0.930 . S
C752 C753 1.367 . S
C752 C760 1.378 . S
C753 C752 1.367 . S
C753 C761 1.433 . S
C754 H750 0.929 . S
C754 C756 1.378 . S
C754 C758 1.350 . S
C755 C758 1.463 . S
C755 C760 1.350 . S
C755 N763 1.427 . S
C756 H747 0.930 . S
C756 C754 1.378 . S
C756 C757 1.367 . S
C757 C756 1.367 . S
C757 C759 1.433 . S
C758 C754 1.350 . S
C758 C755 1.463 . S
C758 N762 1.427 . S
C759 H749 0.929 . S
C759 C757 1.433 . S
C759 N762 1.384 . S
C760 H751 0.929 . S
C760 C752 1.378 . S
C760 C755 1.350 . S
C761 H748 0.929 . S
C761 C753 1.433 . S
C761 N763 1.384 . S
N762 C758 1.427 . S
N762 C759 1.384 . S
N763 C755 1.427 . S
N763 C761 1.384 . S
H764 C770 0.930 . S
H765 C774 0.930 . S
H766 C779 0.929 . S
H767 C777 0.929 . S
H768 C772 0.929 . S
H769 C778 0.929 . S
C770 H764 0.930 . S
C770 C771 1.367 . S
C770 C778 1.378 . S
C771 C770 1.367 . S
C771 C779 1.433 . S
C772 H768 0.929 . S
C772 C774 1.378 . S
C772 C776 1.350 . S
C773 C776 1.463 . S
C773 C778 1.350 . S
C773 N781 1.427 . S
C774 H765 0.930 . S
C774 C772 1.378 . S
C774 C775 1.367 . S
C775 C774 1.367 . S
C775 C777 1.433 . S
C776 C772 1.350 . S
C776 C773 1.463 . S
C776 N780 1.427 . S
C777 H767 0.929 . S
C777 C775 1.433 . S
C777 N780 1.384 . S
C778 H769 0.929 . S
C778 C770 1.378 . S
C778 C773 1.350 . S
C779 H766 0.929 . S
C779 C771 1.433 . S
C779 N781 1.384 . S
N780 C776 1.427 . S
N780 C777 1.384 . S
N781 C773 1.427 . S
N781 C779 1.384 . S
H782 C788 0.930 . S
H783 C792 0.930 . S
H784 C797 0.929 . S
H785 C795 0.929 . S
H786 C790 0.929 . S
H787 C796 0.929 . S
C788 H782 0.930 . S
C788 C789 1.367 . S
C788 C796 1.378 . S
C789 C788 1.367 . S
C789 C797 1.433 . S
C790 H786 0.929 . S
C790 C792 1.378 . S
C790 C794 1.350 . S
C791 C794 1.463 . S
C791 C796 1.350 . S
C791 N799 1.427 . S
C792 H783 0.930 . S
C792 C790 1.378 . S
C792 C793 1.367 . S
C793 C792 1.367 . S
C793 C795 1.433 . S
C794 C790 1.350 . S
C794 C791 1.463 . S
C794 N798 1.427 . S
C795 H785 0.929 . S
C795 C793 1.433 . S
C795 N798 1.384 . S
C796 H787 0.929 . S
C796 C788 1.378 . S
C796 C791 1.350 . S
C797 H784 0.929 . S
C797 C789 1.433 . S
C797 N799 1.384 . S
N798 C794 1.427 . S
N798 C795 1.384 . S
N799 C791 1.427 . S
N799 C797 1.384 . S
H800 C806 0.930 . S
H801 C810 0.930 . S
H802 C815 0.929 . S
H803 C813 0.929 . S
H804 C808 0.929 . S
H805 C814 0.929 . S
C806 H800 0.930 . S
C806 C807 1.367 . S
C806 C814 1.378 . S
C807 C806 1.367 . S
C807 C815 1.433 . S
C808 H804 0.929 . S
C808 C810 1.378 . S
C808 C812 1.350 . S
C809 C812 1.463 . S
C809 C814 1.350 . S
C809 N817 1.427 . S
C810 H801 0.930 . S
C810 C808 1.378 . S
C810 C811 1.367 . S
C811 C810 1.367 . S
C811 C813 1.433 . S
C812 C808 1.350 . S
C812 C809 1.463 . S
C812 N816 1.427 . S
C813 H803 0.929 . S
C813 C811 1.433 . S
C813 N816 1.384 . S
C814 H805 0.929 . S
C814 C806 1.378 . S
C814 C809 1.350 . S
C815 H802 0.929 . S
C815 C807 1.433 . S
C815 N817 1.384 . S
N816 C812 1.427 . S
N816 C813 1.384 . S
N817 C809 1.427 . S
N817 C815 1.384 . S
H818 C824 0.930 . S
H819 C828 0.930 . S
H820 C833 0.929 . S
H821 C831 0.929 . S
H822 C826 0.901 1_545 S
H823 C832 0.929 . S
C824 H818 0.930 . S
C824 C825 1.367 . S
C824 C832 1.378 . S
C825 C824 1.367 . S
C825 C833 1.433 . S
C826 H822 0.901 1_565 S
C826 C828 1.372 1_565 S
C826 C830 1.385 . S
C827 C830 1.463 . S
C827 C832 1.350 . S
C827 N835 1.427 . S
C828 H819 0.930 . S
C828 C826 1.372 1_545 S
C828 C829 1.367 1_545 S
C829 C828 1.367 1_565 S
C829 C831 1.433 . S
C830 C826 1.385 . S
C830 C827 1.463 . S
C830 N834 1.427 . S
C831 H821 0.929 . S
C831 C829 1.433 . S
C831 N834 1.384 . S
C832 H823 0.929 . S
C832 C824 1.378 . S
C832 C827 1.350 . S
C833 H820 0.929 . S
C833 C825 1.433 . S
C833 N835 1.384 . S
N834 C830 1.427 . S
N834 C831 1.384 . S
N835 C827 1.427 . S
N835 C833 1.384 . S
H836 C842 0.930 . S
H837 C846 0.930 . S
H838 C851 0.929 . S
H839 C849 0.929 . S
H840 C844 0.929 . S
H841 C850 0.929 . S
C842 H836 0.930 . S
C842 C843 1.367 . S
C842 C850 1.378 . S
C843 C842 1.367 . S
C843 C851 1.433 . S
C844 H840 0.929 . S
C844 C846 1.378 . S
C844 C848 1.350 . S
C845 C848 1.463 . S
C845 C850 1.350 . S
C845 N853 1.427 . S
C846 H837 0.930 . S
C846 C844 1.378 . S
C846 C847 1.367 . S
C847 C846 1.367 . S
C847 C849 1.433 . S
C848 C844 1.350 . S
C848 C845 1.463 . S
C848 N852 1.427 . S
C849 H839 0.929 . S
C849 C847 1.433 . S
C849 N852 1.384 . S
C850 H841 0.929 . S
C850 C842 1.378 . S
C850 C845 1.350 . S
C851 H838 0.929 . S
C851 C843 1.433 . S
C851 N853 1.384 . S
N852 C848 1.427 . S
N852 C849 1.384 . S
N853 C845 1.427 . S
N853 C851 1.384 . S
H854 C860 0.930 . S
H855 C864 0.930 . S
H856 C869 0.929 . S
H857 C867 0.929 . S
H858 C862 0.929 . S
H859 C868 0.929 . S
C860 H854 0.930 . S
C860 C861 1.367 . S
C860 C868 1.378 . S
C861 C860 1.367 . S
C861 C869 1.433 . S
C862 H858 0.929 . S
C862 C864 1.378 . S
C862 C866 1.350 . S
C863 C866 1.463 . S
C863 C868 1.350 . S
C863 N871 1.427 . S
C864 H855 0.930 . S
C864 C862 1.378 . S
C864 C865 1.367 . S
C865 C864 1.367 . S
C865 C867 1.433 . S
C866 C862 1.350 . S
C866 C863 1.463 . S
C866 N870 1.427 . S
C867 H857 0.929 . S
C867 C865 1.433 . S
C867 N870 1.384 . S
C868 H859 0.929 . S
C868 C860 1.378 . S
C868 C863 1.350 . S
C869 H856 0.929 . S
C869 C861 1.433 . S
C869 N871 1.384 . S
N870 C866 1.427 . S
N870 C867 1.384 . S
N871 C863 1.427 . S
N871 C869 1.384 . S
C447 C82 1.750 . S
C451 C179 1.935 . S
C469 C263 1.948 . S
C465 C95 1.772 . S
C487 C339 1.916 . S
C483 C56 1.854 . S
C505 C423 1.898 . S
C501 C69 1.832 . S
C523 C170 1.932 1_565 S
C519 C30 1.677 . S
C537 C43 1.712 . S
C541 C254 1.953 . S
C555 C4 1.783 . S
C559 C328 1.914 . S
C573 C17 1.784 . S
C577 C412 1.911 . S
C595 C167 0.657 1_455 S
C591 C74 0.664 . S
C613 C251 0.639 1_545 S
C609 C87 0.625 . S
C631 C344 0.609 . S
C627 C100 0.598 . S
C645 C61 0.611 . S
C649 C428 0.644 . S
C663 C22 0.670 . S
C667 C176 0.651 . S
C685 C260 0.643 . S
C681 C35 0.612 . S
C703 C335 0.594 . S
C699 C48 0.609 . S
C717 C9 0.650 . S
C721 C419 0.611 . S
C735 C73 2.013 . S
C739 C160 2.063 . S
C753 C86 1.987 . S
C757 C244 2.043 . S
C775 C338 2.067 . S
C771 C99 1.882 . S
C793 C422 2.087 . S
C789 C60 1.916 . S
C807 C21 1.993 . S
C811 C171 2.057 . S
C829 C255 2.029 . S
C825 C34 1.971 . S
C847 C347 2.063 . S
C843 C47 1.894 . S
C861 C8 1.904 . S
C865 C431 2.089 . S
