# Generated by pormake.
# Topology pyr, (3,6)-cn, num edge types: 1
# Building blocks:
#     Node 0, Type 0, BuildingBlock: ESEHIV_clean_linker_0, # of connection points: 3
#     Node 1, Type 0, BuildingBlock: ESEHIV_clean_linker_0, # of connection points: 3
#     Node 2, Type 0, BuildingBlock: ESEHIV_clean_linker_0, # of connection points: 3
#     Node 3, Type 0, BuildingBlock: ESEHIV_clean_linker_0, # of connection points: 3
#     Node 4, Type 0, BuildingBlock: ESEHIV_clean_linker_0, # of connection points: 3
#     Node 5, Type 0, BuildingBlock: ESEHIV_clean_linker_0, # of connection points: 3
#     Node 6, Type 0, BuildingBlock: ESEHIV_clean_linker_0, # of connection points: 3
#     Node 7, Type 0, BuildingBlock: ESEHIV_clean_linker_0, # of connection points: 3
#     Node 8, Type 1, BuildingBlock: CIFDUS_clean_sbu_1, # of connection points: 6
#     Node 9, Type 1, BuildingBlock: CIFDUS_clean_sbu_1, # of connection points: 6
#     Node 10, Type 1, BuildingBlock: CIFDUS_clean_sbu_1, # of connection points: 6
#     Node 11, Type 1, BuildingBlock: CIFDUS_clean_sbu_1, # of connection points: 6
#     Edge 12, Type (0, 1), BuildingBlock: EZIPEK_clean_linker_0, # of connection points: 2
#     Edge 13, Type (0, 1), BuildingBlock: EZIPEK_clean_linker_0, # of connection points: 2
#     Edge 14, Type (0, 1), BuildingBlock: EZIPEK_clean_linker_0, # of connection points: 2
#     Edge 15, Type (0, 1), BuildingBlock: EZIPEK_clean_linker_0, # of connection points: 2
#     Edge 16, Type (0, 1), BuildingBlock: EZIPEK_clean_linker_0, # of connection points: 2
#     Edge 17, Type (0, 1), BuildingBlock: EZIPEK_clean_linker_0, # of connection points: 2
#     Edge 18, Type (0, 1), BuildingBlock: EZIPEK_clean_linker_0, # of connection points: 2
#     Edge 19, Type (0, 1), BuildingBlock: EZIPEK_clean_linker_0, # of connection points: 2
#     Edge 20, Type (0, 1), BuildingBlock: EZIPEK_clean_linker_0, # of connection points: 2
#     Edge 21, Type (0, 1), BuildingBlock: EZIPEK_clean_linker_0, # of connection points: 2
#     Edge 22, Type (0, 1), BuildingBlock: EZIPEK_clean_linker_0, # of connection points: 2
#     Edge 23, Type (0, 1), BuildingBlock: EZIPEK_clean_linker_0, # of connection points: 2
#     Edge 24, Type (0, 1), BuildingBlock: EZIPEK_clean_linker_0, # of connection points: 2
#     Edge 25, Type (0, 1), BuildingBlock: EZIPEK_clean_linker_0, # of connection points: 2
#     Edge 26, Type (0, 1), BuildingBlock: EZIPEK_clean_linker_0, # of connection points: 2
#     Edge 27, Type (0, 1), BuildingBlock: EZIPEK_clean_linker_0, # of connection points: 2
#     Edge 28, Type (0, 1), BuildingBlock: EZIPEK_clean_linker_0, # of connection points: 2
#     Edge 29, Type (0, 1), BuildingBlock: EZIPEK_clean_linker_0, # of connection points: 2
#     Edge 30, Type (0, 1), BuildingBlock: EZIPEK_clean_linker_0, # of connection points: 2
#     Edge 31, Type (0, 1), BuildingBlock: EZIPEK_clean_linker_0, # of connection points: 2
#     Edge 32, Type (0, 1), BuildingBlock: EZIPEK_clean_linker_0, # of connection points: 2
#     Edge 33, Type (0, 1), BuildingBlock: EZIPEK_clean_linker_0, # of connection points: 2
#     Edge 34, Type (0, 1), BuildingBlock: EZIPEK_clean_linker_0, # of connection points: 2
#     Edge 35, Type (0, 1), BuildingBlock: EZIPEK_clean_linker_0, # of connection points: 2
# Relax obj value: 0.035
# Max RMSD: 0.110
# Mean RMSD: 0.045
data_MOF--net-pry--node1-CIFDUS_clean_sbu_1--node2-ESEHIV_clean_linker_0--edge1-EZIPEK_clean_linker_0
_symmetry_space_group_name_H-M    P1
_symmetry_Int_Tables_number       1
_symmetry_cell_setting            triclinic
loop_
_symmetry_equiv_pos_as_xyz
'x, y, z'
_cell_length_a     25.310159
_cell_length_b     24.354595
_cell_length_c     24.03065
_cell_angle_alpha  92.763492
_cell_angle_beta   91.283237
_cell_angle_gamma 93.457356
loop_
_atom_site_label
_atom_site_type_symbol
_atom_site_fract_x
_atom_site_fract_y
_atom_site_fract_z
_atom_type_partial_charge
H0 H 0.07637 0.19186 0.17868 0.0
H1 H 0.20099 0.08456 0.19515 0.0
H2 H 0.19565 0.1831 0.05426 0.0
C3 C 0.10987 0.17334 0.15991 0.0
C4 C 0.1272 0.18864 0.10647 0.0
C5 C 0.1356 0.13453 0.19075 0.0
C6 C 0.18041 0.11099 0.16855 0.0
C7 C 0.19785 0.12133 0.11424 0.0
C8 C 0.17463 0.16559 0.08791 0.0
H9 H 0.31221 0.96621 0.66258 0.0
H10 H 0.45543 0.88017 0.65986 0.0
H11 H 0.32063 0.82131 0.55554 0.0
C12 C 0.33537 0.934 0.64481 0.0
C13 C 0.31273 0.89739 0.60265 0.0
C14 C 0.3857 0.92599 0.66788 0.0
C15 C 0.41575 0.88475 0.64357 0.0
C16 C 0.39259 0.84516 0.60377 0.0
C17 C 0.34042 0.85192 0.58429 0.0
H18 H 0.68334 0.3054 0.92795 0.0
H19 H 0.71133 0.43982 0.8205 0.0
H20 H 0.58948 0.31282 0.77748 0.0
C21 C 0.67419 0.32556 0.88994 0.0
C22 C 0.6332 0.30309 0.85388 0.0
C23 C 0.70429 0.37324 0.87681 0.0
C24 C 0.69068 0.40093 0.82893 0.0
C25 C 0.64861 0.37972 0.79353 0.0
C26 C 0.62194 0.32931 0.80474 0.0
H27 H 0.84293 0.68438 0.48665 0.0
H28 H 0.94089 0.68683 0.3464 0.0
H29 H 0.81705 0.56072 0.35394 0.0
C30 C 0.85589 0.66339 0.45056 0.0
C31 C 0.8261 0.61634 0.42804 0.0
C32 C 0.90142 0.68567 0.42533 0.0
C33 C 0.90994 0.6671 0.37011 0.0
C34 C 0.88112 0.62108 0.34483 0.0
C35 C 0.83912 0.59605 0.37383 0.0
H36 H 0.81877 0.93943 0.83397 0.0
H37 H 0.93734 0.82101 0.83923 0.0
H38 H 0.83952 0.84727 0.9787 0.0
C39 C 0.84353 0.91345 0.85708 0.0
C40 C 0.82627 0.89907 0.90997 0.0
C41 C 0.89005 0.89319 0.83345 0.0
C42 C 0.9107 0.84753 0.86004 0.0
C43 C 0.8935 0.83151 0.91279 0.0
C44 C 0.8536 0.86007 0.93876 0.0
H45 H 0.5663 0.17146 0.34839 0.0
H46 H 0.69209 0.0619 0.36171 0.0
H47 H 0.67084 0.18493 0.49294 0.0
C48 C 0.59781 0.15543 0.37295 0.0
C49 C 0.6141 0.18255 0.42416 0.0
C50 C 0.62524 0.11116 0.35072 0.0
C51 C 0.66938 0.09419 0.38008 0.0
C52 C 0.68606 0.12031 0.43156 0.0
C53 C 0.65716 0.1634 0.45427 0.0
H54 H 0.32291 0.72636 0.09096 0.0
H55 H 0.28494 0.6155 0.21976 0.0
H56 H 0.43181 0.7159 0.22845 0.0
C57 C 0.33251 0.70971 0.13076 0.0
C58 C 0.37856 0.72916 0.16034 0.0
C59 C 0.2996 0.66776 0.15137 0.0
C60 C 0.31174 0.64675 0.2033 0.0
C61 C 0.36061 0.66174 0.23098 0.0
C62 C 0.39368 0.70362 0.20882 0.0
H63 H 0.07269 0.32136 0.68089 0.0
H64 H 0.17428 0.34474 0.5447 0.0
H65 H 0.19458 0.45207 0.69015 0.0
C66 C 0.10036 0.34904 0.66111 0.0
C67 C 0.1215 0.399 0.68857 0.0
C68 C 0.11815 0.33071 0.60879 0.0
C69 C 0.15966 0.35988 0.58433 0.0
C70 C 0.18755 0.40311 0.61418 0.0
C71 C 0.16941 0.42163 0.66644 0.0
O72 O 0.92902 0.04744 0.49782 0.0
Mn73 Mn 0.00164 0.0083 0.50589 0.0
O74 O 0.88345 0.00555 0.42493 0.0
Mn75 Mn 0.94082 0.97165 0.39708 0.0
O76 O 0.0725 0.96827 0.51888 0.0
O77 O 0.03081 0.07393 0.55499 0.0
Mn78 Mn 0.05017 0.04751 0.6188 0.0
O79 O 0.96632 0.96739 0.5746 0.0
O80 O 0.10479 0.00277 0.60255 0.0
O81 O 0.03728 0.04672 0.43572 0.0
O82 O 0.98974 0.0141 0.35969 0.0
O83 O 0.06479 0.12086 0.62905 0.0
O84 O 0.9932 0.0158 0.65261 0.0
C85 C 0.95957 0.89652 0.43133 0.0
C86 C 0.88589 0.03763 0.4683 0.0
C87 C 0.10806 0.97173 0.55862 0.0
C88 C 0.05022 0.12097 0.57692 0.0
C89 C 0.96425 0.97776 0.6278 0.0
C90 C 0.02871 0.0432 0.38209 0.0
O91 O 0.9733 0.94443 0.45472 0.0
O92 O 0.93484 0.89696 0.38365 0.0
O93 O 0.48481 0.01471 0.92202 0.0
Mn94 Mn 0.51175 0.01647 0.00733 0.0
O95 O 0.47724 0.92722 0.89058 0.0
Mn96 Mn 0.51639 0.90749 0.94979 0.0
O97 O 0.53899 0.02276 0.09235 0.0
O98 O 0.52617 0.09954 0.99845 0.0
Mn99 Mn 0.49967 0.13172 0.05874 0.0
O100 O 0.43167 0.0299 0.02937 0.0
O101 O 0.53567 0.11187 0.12051 0.0
O102 O 0.59308 0.00113 0.98834 0.0
O103 O 0.58814 0.91778 0.94506 0.0
O104 O 0.52629 0.18871 0.02059 0.0
O105 O 0.42744 0.11848 0.05836 0.0
C106 C 0.48372 0.87913 0.02158 0.0
C107 C 0.47073 0.97731 0.88396 0.0
C108 C 0.54805 0.06322 0.12892 0.0
C109 C 0.53747 0.15011 0.98448 0.0
C110 C 0.40535 0.07118 0.04657 0.0
C111 C 0.61561 0.95886 0.9668 0.0
O112 O 0.49454 0.93236 0.01619 0.0
O113 O 0.49318 0.84559 0.97993 0.0
O114 O 0.58483 0.53959 0.5021 0.0
Mn115 Mn 0.50469 0.51588 0.50959 0.0
O116 O 0.60358 0.51627 0.41318 0.0
Mn117 Mn 0.53624 0.48789 0.39125 0.0
O118 O 0.42312 0.49043 0.51655 0.0
O119 O 0.51758 0.50131 0.59335 0.0
Mn120 Mn 0.46422 0.5391 0.62066 0.0
O121 O 0.48967 0.60094 0.52116 0.0
O122 O 0.40716 0.491 0.60844 0.0
O123 O 0.52526 0.43192 0.49516 0.0
O124 O 0.51894 0.41503 0.40349 0.0
O125 O 0.51396 0.54635 0.67503 0.0
O126 O 0.44925 0.60768 0.60128 0.0
C127 C 0.47579 0.54012 0.37683 0.0
C128 C 0.61722 0.53609 0.46173 0.0
C129 C 0.39297 0.47966 0.55796 0.0
C130 C 0.54003 0.51471 0.64234 0.0
C131 C 0.46574 0.6291 0.55819 0.0
C132 C 0.52749 0.39856 0.45179 0.0
O133 O 0.49062 0.52766 0.42682 0.0
O134 O 0.50127 0.51893 0.33572 0.0
O135 O 0.92787 0.47289 0.00781 0.0
Mn136 Mn 0.00514 0.50877 0.01811 0.0
O137 O 0.90215 0.49727 0.92304 0.0
Mn138 Mn 0.96611 0.5322 0.90632 0.0
O139 O 0.08234 0.54613 0.027 0.0
O140 O 0.99083 0.5202 0.10527 0.0
Mn141 Mn 0.04888 0.48395 0.12255 0.0
O142 O 0.03183 0.42572 0.02043 0.0
O143 O 0.11007 0.52551 0.11172 0.0
O144 O 0.97526 0.59069 0.01194 0.0
O145 O 0.97487 0.60603 0.92177 0.0
O146 O 0.02221 0.49308 0.18812 0.0
O147 O 0.05115 0.41072 0.10791 0.0
C148 C 0.02837 0.48953 0.87905 0.0
C149 C 0.89321 0.47337 0.96798 0.0
C150 C 0.11719 0.54966 0.06684 0.0
C151 C 0.98873 0.52043 0.16077 0.0
C152 C 0.04578 0.39325 0.05834 0.0
C153 C 0.96974 0.62344 0.97136 0.0
O154 O 0.0197 0.49674 0.93291 0.0
O155 O 0.99597 0.50961 0.84391 0.0
C156 C 0.10987 0.1459 0.29362 0.0
C157 C 0.11221 0.11251 0.24339 0.0
C158 C 0.07922 0.03282 0.29428 0.0
C159 C 0.067 0.06746 0.34099 0.0
N160 N 0.07027 0.15884 0.38452 0.0
N161 N 0.08823 0.02523 0.19448 0.0
C162 C 0.08275 0.12458 0.34085 0.0
C163 C 0.09407 0.0562 0.24347 0.0
N164 N 0.13454 0.19739 0.29668 0.0
N165 N 0.07729 0.97702 0.29876 0.0
H166 H 0.09596 0.04102 0.15572 0.0
H167 H 0.0701 0.98558 0.19184 0.0
H168 H 0.06898 0.95853 0.33615 0.0
H169 H 0.09002 0.95002 0.26756 0.0
H170 H 0.139 0.22172 0.33352 0.0
H171 H 0.15452 0.21385 0.26319 0.0
H172 H 0.0755 0.20158 0.38447 0.0
H173 H 0.05197 0.14445 0.4198 0.0
C174 C 0.37365 0.94069 0.7717 0.0
C175 C 0.40285 0.95323 0.7234 0.0
C176 C 0.47195 0.00287 0.78375 0.0
C177 C 0.44265 0.98913 0.83123 0.0
N178 N 0.35856 0.9638 0.86918 0.0
N179 N 0.47332 0.0075 0.6827 0.0
C180 C 0.39062 0.96533 0.82428 0.0
C181 C 0.4499 0.98835 0.72919 0.0
N182 N 0.33281 0.90121 0.7687 0.0
N183 N 0.52176 0.02723 0.79113 0.0
H184 H 0.45779 0.99749 0.64264 0.0
H185 H 0.50527 0.03657 0.684 0.0
H186 H 0.53718 0.04018 0.83059 0.0
H187 H 0.54797 0.03301 0.75885 0.0
H188 H 0.31399 0.88676 0.80371 0.0
H189 H 0.3215 0.87828 0.73228 0.0
H190 H 0.31859 0.95068 0.86617 0.0
H191 H 0.37109 0.98133 0.90817 0.0
C192 C 0.57412 0.43416 0.7649 0.0
C193 C 0.62415 0.41489 0.75244 0.0
C194 C 0.62023 0.45869 0.66227 0.0
C195 C 0.56776 0.47272 0.67342 0.0
N196 N 0.48905 0.45101 0.72579 0.0
N197 N 0.69216 0.40099 0.68554 0.0
C198 C 0.54287 0.453 0.72167 0.0
C199 C 0.64658 0.42468 0.69981 0.0
N200 N 0.55682 0.43612 0.81837 0.0
N201 N 0.64506 0.47869 0.61706 0.0
H202 H 0.71236 0.37684 0.71263 0.0
H203 H 0.7077 0.40222 0.64582 0.0
H204 H 0.62606 0.50274 0.58905 0.0
H205 H 0.68488 0.47399 0.60923 0.0
H206 H 0.52198 0.45417 0.82952 0.0
H207 H 0.58012 0.42563 0.85216 0.0
H208 H 0.46947 0.43364 0.75905 0.0
H209 H 0.46412 0.46016 0.69283 0.0
C210 C 0.95779 0.58353 0.29652 0.0
C211 C 0.9037 0.59447 0.29352 0.0
C212 C 0.90252 0.56259 0.19393 0.0
C213 C 0.95827 0.55827 0.19739 0.0
N214 N 0.03906 0.59071 0.24732 0.0
N215 N 0.82605 0.60377 0.23529 0.0
C216 C 0.98573 0.57824 0.24706 0.0
C217 C 0.87618 0.58688 0.24086 0.0
N218 N 0.98242 0.57629 0.34656 0.0
N219 N 0.87485 0.54279 0.14719 0.0
H220 H 0.80635 0.62159 0.2686 0.0
H221 H 0.80596 0.60382 0.19697 0.0
H222 H 0.8935 0.52671 0.11231 0.0
H223 H 0.83364 0.54028 0.14424 0.0
H224 H 0.02134 0.56462 0.34956 0.0
H225 H 0.96209 0.57557 0.38388 0.0
H226 H 0.05992 0.60768 0.28263 0.0
H227 H 0.06059 0.58967 0.21073 0.0
C228 C 0.27164 0.05079 0.11563 0.0
C229 C 0.24314 0.0902 0.08725 0.0
C230 C 0.31242 0.0905 0.01661 0.0
C231 C 0.34684 0.06587 0.05431 0.0
N232 N 0.35785 0.02034 0.14044 0.0
N233 N 0.22134 0.10537 0.99137 0.0
C234 C 0.32593 0.04474 0.10374 0.0
C235 C 0.25891 0.09831 0.03154 0.0
N236 N 0.24515 0.01245 0.14573 0.0
N237 N 0.33114 0.10765 0.96711 0.0
H238 H 0.18102 0.10149 0.99968 0.0
H239 H 0.22946 0.10697 0.94915 0.0
H240 H 0.36888 0.0994 0.95352 0.0
H241 H 0.30999 0.13182 0.94097 0.0
H242 H 0.26363 0.98012 0.16344 0.0
H243 H 0.20383 0.00811 0.14477 0.0
H244 H 0.34511 0.00906 0.1795 0.0
H245 H 0.39756 0.01419 0.13284 0.0
C246 C 0.24766 0.93089 0.53238 0.0
C247 C 0.25732 0.90373 0.58232 0.0
C248 C 0.16334 0.90455 0.60461 0.0
C249 C 0.1545 0.9367 0.55775 0.0
N250 N 0.18353 0.96779 0.46923 0.0
N251 N 0.2233 0.85075 0.65694 0.0
C252 C 0.1951 0.94523 0.51869 0.0
C253 C 0.21461 0.88594 0.61548 0.0
N254 N 0.28927 0.94506 0.49957 0.0
N255 N 0.12265 0.89359 0.6397 0.0
H256 H 0.26019 0.83537 0.66461 0.0
H257 H 0.19364 0.83295 0.6807 0.0
H258 H 0.08384 0.90272 0.63023 0.0
H259 H 0.12709 0.87706 0.67852 0.0
H260 H 0.28666 0.96961 0.46552 0.0
H261 H 0.32766 0.93364 0.50765 0.0
H262 H 0.20984 0.97124 0.43678 0.0
H263 H 0.14581 0.9793 0.45854 0.0
C264 C 0.79575 0.36369 0.91777 0.0
C265 C 0.74984 0.39445 0.91381 0.0
C266 C 0.79503 0.4707 0.97018 0.0
C267 C 0.84172 0.44158 0.96975 0.0
N268 N 0.88168 0.35495 0.96266 0.0
N269 N 0.70067 0.47021 0.94842 0.0
C270 C 0.84004 0.38587 0.95063 0.0
C271 C 0.74777 0.44582 0.94421 0.0
N272 N 0.79874 0.31544 0.8868 0.0
N273 N 0.79696 0.52277 0.99417 0.0
H274 H 0.6654 0.45232 0.93058 0.0
H275 H 0.6955 0.50588 0.97277 0.0
H276 H 0.83015 0.53903 0.01739 0.0
H277 H 0.76682 0.54971 0.99063 0.0
H278 H 0.83315 0.29427 0.88361 0.0
H279 H 0.76821 0.29855 0.86035 0.0
H280 H 0.88127 0.31259 0.95421 0.0
H281 H 0.91445 0.37101 0.98657 0.0
C282 C 0.76555 0.53238 0.45021 0.0
C283 C 0.78042 0.58936 0.45931 0.0
C284 C 0.69115 0.60715 0.48822 0.0
C285 C 0.67403 0.5526 0.47114 0.0
N286 N 0.69778 0.45856 0.46114 0.0
N287 N 0.76528 0.65467 0.53564 0.0
C288 C 0.71226 0.51337 0.45986 0.0
C289 C 0.74605 0.62105 0.49205 0.0
N290 N 0.80278 0.49678 0.43476 0.0
N291 N 0.65603 0.64567 0.50168 0.0
H292 H 0.80334 0.65105 0.55211 0.0
H293 H 0.74063 0.67616 0.562 0.0
H294 H 0.61511 0.63739 0.49981 0.0
H295 H 0.66843 0.68676 0.51132 0.0
H296 H 0.79401 0.45587 0.42149 0.0
H297 H 0.84305 0.50907 0.43536 0.0
H298 H 0.7237 0.42731 0.45557 0.0
H299 H 0.66029 0.44482 0.47379 0.0
C300 C 0.04349 0.24113 0.086 0.0
C301 C 0.09683 0.23078 0.07361 0.0
C302 C 0.10274 0.31705 0.02345 0.0
C303 C 0.0555 0.33348 0.04822 0.0
N304 N 0.97676 0.30808 0.09767 0.0
N305 N 0.14773 0.23806 0.99017 0.0
C306 C 0.02415 0.29401 0.0769 0.0
C307 C 0.11933 0.26268 0.03072 0.0
N308 N 0.00987 0.19859 0.10055 0.0
N309 N 0.13261 0.35337 0.99399 0.0
H310 H 0.14675 0.19526 0.98477 0.0
H311 H 0.16233 0.25872 0.9562 0.0
H312 H 0.12056 0.39247 0.98583 0.0
H313 H 0.17019 0.34502 0.9801 0.0
H314 H 0.96941 0.20189 0.10564 0.0
H315 H 0.02167 0.15823 0.1005 0.0
H316 H 0.95543 0.28443 0.12548 0.0
H317 H 0.95995 0.34482 0.0885 0.0
C318 C 0.54745 0.25304 0.88128 0.0
C319 C 0.60217 0.25227 0.86907 0.0
C320 C 0.60661 0.16385 0.91253 0.0
C321 C 0.55367 0.1673 0.92872 0.0
N322 N 0.46851 0.20021 0.90843 0.0
N323 N 0.67737 0.1978 0.85425 0.0
C324 C 0.52224 0.20637 0.90486 0.0
C325 C 0.62948 0.20418 0.87804 0.0
N326 N 0.52071 0.29956 0.8756 0.0
N327 N 0.63587 0.12432 0.93324 0.0
H328 H 0.6942 0.22659 0.828 0.0
H329 H 0.6976 0.16192 0.85596 0.0
H330 H 0.61838 0.0935 0.95634 0.0
H331 H 0.67662 0.12367 0.92885 0.0
H332 H 0.48249 0.30374 0.88977 0.0
H333 H 0.53793 0.33572 0.86105 0.0
H334 H 0.44275 0.22524 0.88858 0.0
H335 H 0.45019 0.16622 0.92678 0.0
C336 C 0.92 0.76615 0.49753 0.0
C337 C 0.93737 0.73167 0.45348 0.0
C338 C 0.99942 0.80636 0.42838 0.0
C339 C 0.96675 0.84354 0.45618 0.0
N340 N 0.89895 0.85882 0.52345 0.0
N341 N 0.01905 0.71049 0.41095 0.0
C342 C 0.929 0.82363 0.49411 0.0
C343 C 0.98583 0.74896 0.42956 0.0
N344 N 0.9019 0.74436 0.54513 0.0
N345 N 0.0405 0.8263 0.3979 0.0
H346 H 0.01013 0.66864 0.41604 0.0
H347 H 0.05657 0.72006 0.39589 0.0
H348 H 0.05164 0.86834 0.3986 0.0
H349 H 0.06232 0.80167 0.37156 0.0
H350 H 0.89254 0.76871 0.58001 0.0
H351 H 0.90365 0.70238 0.55156 0.0
H352 H 0.86757 0.84506 0.54764 0.0
H353 H 0.90379 0.90135 0.52073 0.0
C354 C 0.4156 0.77057 0.53094 0.0
C355 C 0.42036 0.79383 0.58666 0.0
C356 C 0.47801 0.72001 0.60797 0.0
C357 C 0.4615 0.6899 0.55808 0.0
N358 N 0.40341 0.68412 0.47693 0.0
N359 N 0.44367 0.7752 0.68246 0.0
C360 C 0.42765 0.71463 0.52022 0.0
C361 C 0.44895 0.76497 0.62654 0.0
N362 N 0.40019 0.80145 0.48833 0.0
N363 N 0.51857 0.70289 0.63983 0.0
H364 H 0.41559 0.8005 0.69899 0.0
H365 H 0.46151 0.75201 0.71218 0.0
H366 H 0.5403 0.66959 0.62706 0.0
H367 H 0.53343 0.72532 0.67546 0.0
H368 H 0.39823 0.7863 0.447 0.0
H369 H 0.39538 0.8436 0.49376 0.0
H370 H 0.37435 0.69949 0.45155 0.0
H371 H 0.40913 0.64232 0.47001 0.0
C372 C 0.89115 0.96363 0.75581 0.0
C373 C 0.91102 0.91535 0.7782 0.0
C374 C 0.95494 0.89856 0.68852 0.0
C375 C 0.9314 0.94382 0.66572 0.0
N376 N 0.86689 0.01132 0.67359 0.0
N377 N 0.99248 0.86865 0.77348 0.0
C378 C 0.89525 0.97268 0.69795 0.0
C379 C 0.95089 0.88981 0.74663 0.0
N380 N 0.87846 0.00627 0.79096 0.0
N381 N 0.98382 0.8656 0.65517 0.0
H382 H 1.00001 0.87723 0.81598 0.0
H383 H 0.02447 0.85298 0.75272 0.0
H384 H 0.98739 0.87179 0.61268 0.0
H385 H 0.99925 0.82966 0.66876 0.0
H386 H 0.86812 0.0442 0.77716 0.0
H387 H 0.88663 0.00658 0.83373 0.0
H388 H 0.83694 0.03123 0.69397 0.0
H389 H 0.8702 0.0188 0.63129 0.0
C390 C 0.57863 0.04121 0.28165 0.0
C391 C 0.6133 0.08891 0.29238 0.0
C392 C 0.62247 0.09747 0.19184 0.0
C393 C 0.57924 0.05817 0.18163 0.0
N394 N 0.51792 0.98918 0.2157 0.0
N395 N 0.66919 0.16269 0.25749 0.0
C396 C 0.55853 0.02805 0.22611 0.0
C397 C 0.6361 0.11665 0.24733 0.0
N398 N 0.565 0.00881 0.32453 0.0
N399 N 0.64997 0.11676 0.14775 0.0
H400 H 0.68241 0.17652 0.29739 0.0
H401 H 0.68118 0.189 0.22665 0.0
H402 H 0.64097 0.10241 0.10676 0.0
H403 H 0.68442 0.14237 0.15201 0.0
H404 H 0.54407 0.97074 0.31893 0.0
H405 H 0.57845 0.01809 0.36546 0.0
H406 H 0.49694 0.96985 0.24679 0.0
H407 H 0.50402 0.97758 0.17541 0.0
C408 C 0.40863 0.66119 0.32503 0.0
C409 C 0.3793 0.63172 0.28055 0.0
C410 C 0.39067 0.54742 0.33003 0.0
C411 C 0.43181 0.57443 0.36314 0.0
N412 N 0.48367 0.65813 0.38901 0.0
N413 N 0.35587 0.54098 0.23632 0.0
C414 C 0.44155 0.63193 0.36036 0.0
C415 C 0.37255 0.57313 0.28222 0.0
N416 N 0.40505 0.71658 0.33366 0.0
N417 N 0.37325 0.49507 0.34097 0.0
H418 H 0.35185 0.55617 0.1969 0.0
H419 H 0.35403 0.49806 0.23569 0.0
H420 H 0.38781 0.47544 0.37535 0.0
H421 H 0.34117 0.47435 0.31943 0.0
H422 H 0.42503 0.73926 0.36633 0.0
H423 H 0.37784 0.73834 0.31168 0.0
H424 H 0.49586 0.69915 0.3836 0.0
H425 H 0.50743 0.63774 0.41634 0.0
C426 C 0.11914 0.47394 0.76951 0.0
C427 C 0.09865 0.42281 0.74314 0.0
C428 C 0.04843 0.4058 0.82804 0.0
C429 C 0.06922 0.45578 0.85376 0.0
N430 N 0.13557 0.52952 0.85575 0.0
N431 N 0.01425 0.37039 0.73925 0.0
C432 C 0.10947 0.48614 0.82697 0.0
C433 C 0.05561 0.39524 0.77014 0.0
N434 N 0.1375 0.51557 0.73768 0.0
N435 N 0.01621 0.37172 0.85749 0.0
H436 H 0.0099 0.37631 0.69669 0.0
H437 H 0.98022 0.35325 0.75699 0.0
H438 H 0.00899 0.38067 0.89952 0.0
H439 H 0.00128 0.33324 0.84123 0.0
H440 H 0.14916 0.55495 0.75403 0.0
H441 H 0.13242 0.51342 0.69441 0.0
H442 H 0.16818 0.55146 0.84016 0.0
H443 H 0.1271 0.53936 0.89731 0.0
C444 C 0.76689 0.97535 0.94452 0.0
C445 C 0.77486 0.91837 0.93181 0.0
C446 C 0.68873 0.89499 0.96989 0.0
C447 C 0.67473 0.95033 0.9693 0.0
N448 N 0.70989 0.0431 0.98596 0.0
N449 N 0.73604 0.82483 0.92344 0.0
C450 C 0.71635 0.99129 0.96454 0.0
C451 C 0.73388 0.87842 0.94236 0.0
N452 N 0.80738 0.01381 0.93746 0.0
N453 N 0.65999 0.85877 1.00023 0.0
H454 H 0.76607 0.8111 0.89841 0.0
H455 H 0.70452 0.79569 0.92709 0.0
H456 H 0.63137 0.8731 0.02667 0.0
H457 H 0.67025 0.81847 1.00556 0.0
H458 H 0.80313 0.05607 0.93982 0.0
H459 H 0.84546 0.00313 0.92765 0.0
H460 H 0.73931 0.07488 0.98757 0.0
H461 H 0.67683 0.05195 0.009 0.0
C462 C 0.78201 0.13916 0.46526 0.0
C463 C 0.73559 0.10301 0.45926 0.0
C464 C 0.78816 0.02562 0.48308 0.0
C465 C 0.83477 0.06126 0.48421 0.0
N466 N 0.87007 0.15311 0.50697 0.0
N467 N 0.69191 0.01634 0.4809 0.0
C468 C 0.82986 0.11857 0.48522 0.0
C469 C 0.73786 0.04758 0.47454 0.0
N470 N 0.78182 0.19196 0.44874 0.0
N471 N 0.79253 0.97055 0.4888 0.0
H472 H 0.6547 0.03201 0.47586 0.0
H473 H 0.69044 0.97692 0.49591 0.0
H474 H 0.82839 0.95454 0.49988 0.0
H475 H 0.76143 0.94096 0.48143 0.0
H476 H 0.81623 0.21752 0.44689 0.0
H477 H 0.74836 0.20885 0.43264 0.0
H478 H 0.86724 0.19555 0.51235 0.0
H479 H 0.90213 0.13781 0.52777 0.0
C480 C 0.20928 0.66903 0.10498 0.0
C481 C 0.25586 0.64124 0.1155 0.0
C482 C 0.21533 0.5566 0.06975 0.0
C483 C 0.16755 0.58317 0.06351 0.0
N484 N 0.1257 0.66783 0.05327 0.0
N485 N 0.30985 0.56623 0.08954 0.0
C486 C 0.16692 0.64072 0.07359 0.0
C487 C 0.26111 0.58735 0.09178 0.0
N488 N 0.20442 0.72111 0.12729 0.0
N489 N 0.21593 0.50143 0.05673 0.0
H490 H 0.34436 0.58877 0.1036 0.0
H491 H 0.3168 0.52883 0.06901 0.0
H492 H 0.1835 0.47907 0.03736 0.0
H493 H 0.24742 0.47781 0.06677 0.0
H494 H 0.16926 0.74116 0.12575 0.0
H495 H 0.23459 0.74304 0.15072 0.0
H496 H 0.12461 0.71056 0.0555 0.0
H497 H 0.09591 0.64741 0.02811 0.0
C498 C 0.24607 0.47675 0.57122 0.0
C499 C 0.23948 0.42354 0.59267 0.0
C500 C 0.32722 0.40239 0.55995 0.0
C501 C 0.33773 0.4581 0.54929 0.0
N502 N 0.30834 0.54967 0.5433 0.0
N503 N 0.27851 0.33954 0.61688 0.0
C504 C 0.29709 0.4956 0.55355 0.0
C505 C 0.28112 0.38697 0.58888 0.0
N506 N 0.20381 0.50883 0.56743 0.0
N507 N 0.36271 0.36495 0.54439 0.0
H508 H 0.24869 0.33103 0.64478 0.0
H509 H 0.30922 0.313 0.6185 0.0
H510 H 0.39643 0.37654 0.52252 0.0
H511 H 0.35565 0.32262 0.54753 0.0
H512 H 0.20514 0.54594 0.54758 0.0
H513 H 0.16619 0.49634 0.58069 0.0
H514 H 0.28276 0.58067 0.55216 0.0
H515 H 0.34468 0.56355 0.52769 0.0
C516 C 0.95096 0.7784 0.97817 0.0
C517 C 0.91 0.77863 0.93638 0.0
C518 C 0.89517 0.67849 0.94249 0.0
C519 C 0.94205 0.67663 0.97578 0.0
N520 N 0.0102 0.72455 0.03263 0.0
N521 N 0.8451 0.72746 0.87604 0.0
C522 C 0.96839 0.72677 0.99632 0.0
C523 C 0.88228 0.7283 0.91831 0.0
N524 N 0.97298 0.82747 1.00024 0.0
N525 N 0.86301 0.63169 0.93386 0.0
H526 H 0.83414 0.76273 0.85698 0.0
H527 H 0.82817 0.69132 0.85653 0.0
H528 H 0.87179 0.59506 0.95163 0.0
H529 H 0.82568 0.63058 0.91457 0.0
H530 H 1.00026 0.83112 0.03342 0.0
H531 H 0.96184 0.8653 0.98678 0.0
H532 H 0.03535 0.75827 0.04572 0.0
H533 H 0.01886 0.68769 0.05015 0.0
C534 C 0.39199 0.82705 0.13337 0.0
C535 C 0.41222 0.77423 0.13756 0.0
C536 C 0.49051 0.80588 0.0887 0.0
C537 C 0.46488 0.85339 0.07305 0.0
N538 N 0.38744 0.90626 0.07699 0.0
N539 N 0.4788 0.71094 0.11264 0.0
C540 C 0.41503 0.86407 0.09544 0.0
C541 C 0.46142 0.76308 0.11424 0.0
N542 N 0.35036 0.84135 0.16497 0.0
N543 N 0.5426 0.80128 0.07766 0.0
H544 H 0.45809 0.67762 0.12943 0.0
H545 H 0.51148 0.69969 0.09008 0.0
H546 H 0.56447 0.83304 0.06011 0.0
H547 H 0.56472 0.76965 0.09156 0.0
H548 H 0.33695 0.88102 0.16706 0.0
H549 H 0.33292 0.81497 0.19323 0.0
H550 H 0.34819 0.91168 0.08706 0.0
H551 H 0.40243 0.93314 0.04811 0.0
C552 C 0.1368 0.23253 0.58867 0.0
C553 C 0.10138 0.27516 0.58416 0.0
C554 C 0.03738 0.20976 0.53438 0.0
C555 C 0.0712 0.16764 0.54546 0.0
N556 N 0.16078 0.14304 0.55278 0.0
N557 N 0.02307 0.30815 0.54117 0.0
C558 C 0.1245 0.18178 0.55939 0.0
C559 C 0.05323 0.26524 0.55254 0.0
N560 N 0.17852 0.2381 0.62582 0.0
N561 N 0.9909 0.19572 0.50646 0.0
H562 H 0.03432 0.34868 0.55446 0.0
H563 H 0.98809 0.30415 0.51741 0.0
H564 H 0.98264 0.15528 0.49076 0.0
H565 H 0.96263 0.22333 0.49708 0.0
H566 H 0.20345 0.20653 0.63307 0.0
H567 H 0.18313 0.27118 0.65497 0.0
H568 H 0.20116 0.15154 0.56097 0.0
H569 H 0.14993 0.10411 0.53434 0.0
C570 C 0.62002 0.28421 0.41321 0.0
C571 C 0.59507 0.23851 0.43835 0.0
C572 C 0.53407 0.3005 0.48526 0.0
C573 C 0.55429 0.34484 0.45379 0.0
N574 N 0.61758 0.3776 0.38631 0.0
N575 N 0.52846 0.20142 0.4981 0.0
C576 C 0.59783 0.33627 0.41787 0.0
C577 C 0.55237 0.24626 0.47482 0.0
N578 N 0.66614 0.27827 0.38544 0.0
N579 N 0.49752 0.31019 0.5249 0.0
H580 H 0.54204 0.16197 0.49234 0.0
H581 H 0.49386 0.20245 0.52058 0.0
H582 H 0.4835 0.34899 0.53313 0.0
H583 H 0.48411 0.28122 0.55259 0.0
H584 H 0.69094 0.31129 0.37398 0.0
H585 H 0.68223 0.24048 0.37734 0.0
H586 H 0.64101 0.3711 0.35181 0.0
H587 H 0.60961 0.41855 0.39313 0.0
loop_
_geom_bond_atom_site_label_1
_geom_bond_atom_site_label_2
_geom_bond_distance
_geom_bond_site_symmetry_2
_ccdc_geom_bond_type
H0 C3 0.931 . S
H1 C6 0.928 . S
H2 C8 0.930 . S
C3 H0 0.931 . S
C3 C4 1.413 . S
C3 C5 1.360 . S
C4 C3 1.413 . S
C4 C8 1.429 . S
C5 C3 1.360 . S
C5 C6 1.372 . S
C6 H1 0.928 . S
C6 C5 1.372 . S
C6 C7 1.404 . S
C7 C6 1.404 . S
C7 C8 1.391 . S
C8 H2 0.930 . S
C8 C4 1.429 . S
C8 C7 1.391 . S
H9 C12 0.931 . S
H10 C15 0.928 . S
H11 C17 0.930 . S
C12 H9 0.931 . S
C12 C13 1.413 . S
C12 C14 1.360 . S
C13 C12 1.413 . S
C13 C17 1.429 . S
C14 C12 1.360 . S
C14 C15 1.372 . S
C15 H10 0.928 . S
C15 C14 1.372 . S
C15 C16 1.404 . S
C16 C15 1.404 . S
C16 C17 1.391 . S
C17 H11 0.930 . S
C17 C13 1.429 . S
C17 C16 1.391 . S
H18 C21 0.931 . S
H19 C24 0.928 . S
H20 C26 0.930 . S
C21 H18 0.931 . S
C21 C22 1.413 . S
C21 C23 1.360 . S
C22 C21 1.413 . S
C22 C26 1.429 . S
C23 C21 1.360 . S
C23 C24 1.372 . S
C24 H19 0.928 . S
C24 C23 1.372 . S
C24 C25 1.404 . S
C25 C24 1.404 . S
C25 C26 1.391 . S
C26 H20 0.930 . S
C26 C22 1.429 . S
C26 C25 1.391 . S
H27 C30 0.931 . S
H28 C33 0.928 . S
H29 C35 0.930 . S
C30 H27 0.931 . S
C30 C31 1.413 . S
C30 C32 1.360 . S
C31 C30 1.413 . S
C31 C35 1.429 . S
C32 C30 1.360 . S
C32 C33 1.372 . S
C33 H28 0.928 . S
C33 C32 1.372 . S
C33 C34 1.404 . S
C34 C33 1.404 . S
C34 C35 1.391 . S
C35 H29 0.930 . S
C35 C31 1.429 . S
C35 C34 1.391 . S
H36 C39 0.931 . S
H37 C42 0.928 . S
H38 C44 0.930 . S
C39 H36 0.931 . S
C39 C40 1.413 . S
C39 C41 1.360 . S
C40 C39 1.413 . S
C40 C44 1.429 . S
C41 C39 1.360 . S
C41 C42 1.372 . S
C42 H37 0.928 . S
C42 C41 1.372 . S
C42 C43 1.404 . S
C43 C42 1.404 . S
C43 C44 1.391 . S
C44 H38 0.930 . S
C44 C40 1.429 . S
C44 C43 1.391 . S
H45 C48 0.931 . S
H46 C51 0.928 . S
H47 C53 0.930 . S
C48 H45 0.931 . S
C48 C49 1.413 . S
C48 C50 1.360 . S
C49 C48 1.413 . S
C49 C53 1.429 . S
C50 C48 1.360 . S
C50 C51 1.372 . S
C51 H46 0.928 . S
C51 C50 1.372 . S
C51 C52 1.404 . S
C52 C51 1.404 . S
C52 C53 1.391 . S
C53 H47 0.930 . S
C53 C49 1.429 . S
C53 C52 1.391 . S
H54 C57 0.931 . S
H55 C60 0.928 . S
H56 C62 0.930 . S
C57 H54 0.931 . S
C57 C58 1.413 . S
C57 C59 1.360 . S
C58 C57 1.413 . S
C58 C62 1.429 . S
C59 C57 1.360 . S
C59 C60 1.372 . S
C60 H55 0.928 . S
C60 C59 1.372 . S
C60 C61 1.404 . S
C61 C60 1.404 . S
C61 C62 1.391 . S
C62 H56 0.930 . S
C62 C58 1.429 . S
C62 C61 1.391 . S
H63 C66 0.931 . S
H64 C69 0.928 . S
H65 C71 0.930 . S
C66 H63 0.931 . S
C66 C67 1.413 . S
C66 C68 1.360 . S
C67 C66 1.413 . S
C67 C71 1.429 . S
C68 C66 1.360 . S
C68 C69 1.372 . S
C69 H64 0.928 . S
C69 C68 1.372 . S
C69 C70 1.404 . S
C70 C69 1.404 . S
C70 C71 1.391 . S
C71 H65 0.930 . S
C71 C67 1.429 . S
C71 C70 1.391 . S
O72 Mn73 2.163 1_655 S
O72 C86 1.244 . S
Mn73 O72 2.163 1_455 S
Mn73 O76 2.160 1_545 S
Mn73 O77 2.221 . S
Mn73 O79 2.163 1_445 S
Mn73 O81 2.160 . S
Mn73 O91 2.221 1_445 S
O74 Mn75 2.087 1_545 S
O74 C86 1.256 . S
Mn75 O74 2.087 1_565 S
Mn75 O82 2.089 1_565 S
Mn75 O91 2.290 . S
Mn75 O92 2.251 . S
O76 Mn73 2.160 1_565 S
O76 C87 1.239 . S
O77 Mn73 2.221 . S
O77 Mn78 2.290 . S
O77 C88 1.278 . S
Mn78 O77 2.290 . S
Mn78 O80 2.089 1_545 S
Mn78 O83 2.251 . S
Mn78 O84 2.087 . S
O79 Mn73 2.163 1_665 S
O79 C89 1.244 . S
O80 Mn78 2.089 1_565 S
O80 C87 1.256 . S
O81 Mn73 2.160 . S
O81 C90 1.239 . S
O82 Mn75 2.089 1_545 S
O82 C90 1.256 1_655 S
O83 Mn78 2.251 . S
O83 C88 1.241 . S
O84 Mn78 2.087 . S
O84 C89 1.256 1_445 S
C85 O91 1.278 . S
C85 O92 1.241 . S
C86 O72 1.244 . S
C86 O74 1.256 . S
C87 O76 1.239 . S
C87 O80 1.256 . S
C88 O77 1.278 . S
C88 O83 1.241 . S
C89 O79 1.244 . S
C89 O84 1.256 1_665 S
C90 O81 1.239 . S
C90 O82 1.256 1_455 S
O91 Mn73 2.221 1_665 S
O91 Mn75 2.290 . S
O91 C85 1.278 . S
O92 Mn75 2.251 . S
O92 C85 1.241 . S
O93 Mn94 2.163 1_556 S
O93 C107 1.244 1_545 S
Mn94 O93 2.163 1_554 S
Mn94 O97 2.160 . S
Mn94 O98 2.221 1_554 S
Mn94 O100 2.163 . S
Mn94 O102 2.160 1_544 S
Mn94 O112 2.221 1_545 S
O95 Mn96 2.087 . S
O95 C107 1.256 . S
Mn96 O95 2.087 . S
Mn96 O103 2.089 . S
Mn96 O112 2.290 1_556 S
Mn96 O113 2.254 . S
O97 Mn94 2.160 . S
O97 C108 1.239 . S
O98 Mn94 2.221 1_556 S
O98 Mn99 2.290 1_556 S
O98 C109 1.278 . S
Mn99 O98 2.290 1_554 S
Mn99 O101 2.089 . S
Mn99 O104 2.251 1_554 S
Mn99 O105 2.087 . S
O100 Mn94 2.163 . S
O100 C110 1.244 . S
O101 Mn99 2.089 . S
O101 C108 1.256 . S
O102 Mn94 2.160 1_566 S
O102 C111 1.239 . S
O103 Mn96 2.089 . S
O103 C111 1.256 . S
O104 Mn99 2.251 1_556 S
O104 C109 1.241 . S
O105 Mn99 2.087 . S
O105 C110 1.256 . S
C106 O112 1.278 . S
C106 O113 1.238 1_554 S
C107 O93 1.244 1_565 S
C107 O95 1.256 . S
C108 O97 1.239 . S
C108 O101 1.256 . S
C109 O98 1.278 . S
C109 O104 1.241 . S
C110 O100 1.244 . S
C110 O105 1.256 . S
C111 O102 1.239 . S
C111 O103 1.256 . S
O112 Mn94 2.221 1_565 S
O112 Mn96 2.290 1_554 S
O112 C106 1.278 . S
O113 Mn96 2.254 . S
O113 C106 1.238 1_556 S
O114 Mn115 2.163 . S
O114 C128 1.244 . S
Mn115 O114 2.163 . S
Mn115 O118 2.160 . S
Mn115 O119 2.221 . S
Mn115 O121 2.163 . S
Mn115 O123 2.160 . S
Mn115 O133 2.221 . S
O116 Mn117 2.087 . S
O116 C128 1.256 . S
Mn117 O116 2.087 . S
Mn117 O124 2.089 . S
Mn117 O133 2.290 . S
Mn117 O134 2.251 . S
O118 Mn115 2.160 . S
O118 C129 1.239 . S
O119 Mn115 2.221 . S
O119 Mn120 2.290 . S
O119 C130 1.278 . S
Mn120 O119 2.290 . S
Mn120 O122 2.089 . S
Mn120 O125 2.251 . S
Mn120 O126 2.087 . S
O121 Mn115 2.163 . S
O121 C131 1.244 . S
O122 Mn120 2.089 . S
O122 C129 1.256 . S
O123 Mn115 2.160 . S
O123 C132 1.239 . S
O124 Mn117 2.089 . S
O124 C132 1.256 . S
O125 Mn120 2.251 . S
O125 C130 1.241 . S
O126 Mn120 2.087 . S
O126 C131 1.256 . S
C127 O133 1.278 . S
C127 O134 1.241 . S
C128 O114 1.244 . S
C128 O116 1.256 . S
C129 O118 1.239 . S
C129 O122 1.256 . S
C130 O119 1.278 . S
C130 O125 1.241 . S
C131 O121 1.244 . S
C131 O126 1.256 . S
C132 O123 1.239 . S
C132 O124 1.256 . S
O133 Mn115 2.221 . S
O133 Mn117 2.290 . S
O133 C127 1.278 . S
O134 Mn117 2.251 . S
O134 C127 1.241 . S
O135 Mn136 2.163 1_655 S
O135 C149 1.237 1_554 S
Mn136 O135 2.163 1_455 S
Mn136 O139 2.160 . S
Mn136 O140 2.221 1_455 S
Mn136 O142 2.163 . S
Mn136 O144 2.160 1_454 S
Mn136 O154 2.221 1_554 S
O137 Mn138 2.087 . S
O137 C149 1.256 . S
Mn138 O137 2.087 . S
Mn138 O145 2.089 . S
Mn138 O154 2.290 1_655 S
Mn138 O155 2.263 . S
O139 Mn136 2.160 . S
O139 C150 1.239 . S
O140 Mn136 2.221 1_655 S
O140 Mn141 2.290 1_655 S
O140 C151 1.278 . S
Mn141 O140 2.290 1_455 S
Mn141 O143 2.089 . S
Mn141 O146 2.251 1_455 S
Mn141 O147 2.087 . S
O142 Mn136 2.163 . S
O142 C152 1.244 . S
O143 Mn141 2.089 . S
O143 C150 1.256 . S
O144 Mn136 2.160 1_656 S
O144 C153 1.239 . S
O145 Mn138 2.089 . S
O145 C153 1.256 . S
O146 Mn141 2.251 1_655 S
O146 C151 1.241 . S
O147 Mn141 2.087 . S
O147 C152 1.256 . S
C148 O154 1.278 . S
C148 O155 1.228 1_455 S
C149 O135 1.237 1_556 S
C149 O137 1.256 . S
C150 O139 1.239 . S
C150 O143 1.256 . S
C151 O140 1.278 . S
C151 O146 1.241 . S
C152 O142 1.244 . S
C152 O147 1.256 . S
C153 O144 1.239 . S
C153 O145 1.256 . S
O154 Mn136 2.221 1_556 S
O154 Mn138 2.290 1_455 S
O154 C148 1.278 . S
O155 Mn138 2.263 . S
O155 C148 1.228 1_655 S
C156 C157 1.363 . S
C156 C162 1.379 . S
C156 N164 1.356 . S
C157 C156 1.363 . S
C157 C163 1.363 . S
C158 C159 1.363 . S
C158 C163 1.379 . S
C158 N165 1.356 . S
C159 C158 1.363 . S
C159 C162 1.363 . S
N160 C162 1.356 . S
N160 H172 0.984 . S
N160 H173 0.985 . S
N161 C163 1.356 . S
N161 H166 0.984 . S
N161 H167 0.985 . S
C162 C156 1.379 . S
C162 C159 1.363 . S
C162 N160 1.356 . S
C163 C157 1.363 . S
C163 C158 1.379 . S
C163 N161 1.356 . S
N164 C156 1.356 . S
N164 H170 0.984 . S
N164 H171 0.984 . S
N165 C158 1.356 . S
N165 H168 0.986 . S
N165 H169 0.985 1_445 S
H166 N161 0.984 . S
H167 N161 0.985 . S
H168 N165 0.986 . S
H169 N165 0.985 1_665 S
H170 N164 0.984 . S
H171 N164 0.984 . S
H172 N160 0.984 . S
H173 N160 0.985 . S
C174 C175 1.363 . S
C174 C180 1.379 . S
C174 N182 1.356 . S
C175 C174 1.363 . S
C175 C181 1.363 . S
C176 C177 1.363 . S
C176 C181 1.379 . S
C176 N183 1.356 1_565 S
C177 C176 1.363 . S
C177 C180 1.363 . S
N178 C180 1.356 . S
N178 H190 0.984 . S
N178 H191 0.985 . S
N179 C181 1.356 . S
N179 H184 0.984 . S
N179 H185 0.985 . S
C180 C174 1.379 . S
C180 C177 1.363 . S
C180 N178 1.356 . S
C181 C175 1.363 . S
C181 C176 1.379 . S
C181 N179 1.356 . S
N182 C174 1.356 . S
N182 H188 0.984 . S
N182 H189 0.984 . S
N183 C176 1.356 1_545 S
N183 H186 0.984 . S
N183 H187 0.985 . S
H184 N179 0.984 . S
H185 N179 0.985 . S
H186 N183 0.984 . S
H187 N183 0.985 . S
H188 N182 0.984 . S
H189 N182 0.984 . S
H190 N178 0.984 . S
H191 N178 0.985 . S
C192 C193 1.363 . S
C192 C198 1.379 . S
C192 N200 1.356 . S
C193 C192 1.363 . S
C193 C199 1.363 . S
C194 C195 1.363 . S
C194 C199 1.379 . S
C194 N201 1.356 . S
C195 C194 1.363 . S
C195 C198 1.363 . S
N196 C198 1.356 . S
N196 H208 0.984 . S
N196 H209 0.985 . S
N197 C199 1.356 . S
N197 H202 0.984 . S
N197 H203 0.985 . S
C198 C192 1.379 . S
C198 C195 1.363 . S
C198 N196 1.356 . S
C199 C193 1.363 . S
C199 C194 1.379 . S
C199 N197 1.356 . S
N200 C192 1.356 . S
N200 H206 0.984 . S
N200 H207 0.984 . S
N201 C194 1.356 . S
N201 H204 0.984 . S
N201 H205 0.985 . S
H202 N197 0.984 . S
H203 N197 0.985 . S
H204 N201 0.984 . S
H205 N201 0.985 . S
H206 N200 0.984 . S
H207 N200 0.984 . S
H208 N196 0.984 . S
H209 N196 0.985 . S
C210 C211 1.363 . S
C210 C216 1.379 . S
C210 N218 1.356 . S
C211 C210 1.363 . S
C211 C217 1.363 . S
C212 C213 1.363 . S
C212 C217 1.379 . S
C212 N219 1.356 . S
C213 C212 1.363 . S
C213 C216 1.363 . S
N214 C216 1.356 . S
N214 H226 0.984 1_655 S
N214 H227 0.985 . S
N215 C217 1.356 . S
N215 H220 0.984 . S
N215 H221 0.985 . S
C216 C210 1.379 . S
C216 C213 1.363 . S
C216 N214 1.356 . S
C217 C211 1.363 . S
C217 C212 1.379 . S
C217 N215 1.356 . S
N218 C210 1.356 . S
N218 H224 0.984 . S
N218 H225 0.984 . S
N219 C212 1.356 . S
N219 H222 0.984 . S
N219 H223 0.985 . S
H220 N215 0.984 . S
H221 N215 0.985 . S
H222 N219 0.984 . S
H223 N219 0.985 . S
H224 N218 0.984 . S
H225 N218 0.984 . S
H226 N214 0.984 1_455 S
H227 N214 0.985 . S
C228 C229 1.363 . S
C228 C234 1.379 . S
C228 N236 1.356 . S
C229 C228 1.363 . S
C229 C235 1.363 . S
C230 C231 1.363 . S
C230 C235 1.379 . S
C230 N237 1.356 1_554 S
C231 C230 1.363 . S
C231 C234 1.363 . S
N232 C234 1.356 . S
N232 H244 0.984 1_545 S
N232 H245 0.985 . S
N233 C235 1.356 . S
N233 H238 0.984 . S
N233 H239 0.985 1_554 S
C234 C228 1.379 . S
C234 C231 1.363 . S
C234 N232 1.356 . S
C235 C229 1.363 . S
C235 C230 1.379 . S
C235 N233 1.356 . S
N236 C228 1.356 . S
N236 H242 0.984 . S
N236 H243 0.984 . S
N237 C230 1.356 1_556 S
N237 H240 0.984 . S
N237 H241 0.985 . S
H238 N233 0.984 . S
H239 N233 0.985 1_556 S
H240 N237 0.984 . S
H241 N237 0.985 . S
H242 N236 0.984 . S
H243 N236 0.984 . S
H244 N232 0.984 1_565 S
H245 N232 0.985 . S
C246 C247 1.363 . S
C246 C252 1.379 . S
C246 N254 1.356 . S
C247 C246 1.363 . S
C247 C253 1.363 . S
C248 C249 1.363 . S
C248 C253 1.379 . S
C248 N255 1.356 . S
C249 C248 1.363 . S
C249 C252 1.363 . S
N250 C252 1.356 . S
N250 H262 0.984 . S
N250 H263 0.985 . S
N251 C253 1.356 . S
N251 H256 0.984 . S
N251 H257 0.985 . S
C252 C246 1.379 . S
C252 C249 1.363 . S
C252 N250 1.356 . S
C253 C247 1.363 . S
C253 C248 1.379 . S
C253 N251 1.356 . S
N254 C246 1.356 . S
N254 H260 0.984 . S
N254 H261 0.984 . S
N255 C248 1.356 . S
N255 H258 0.984 . S
N255 H259 0.985 . S
H256 N251 0.984 . S
H257 N251 0.985 . S
H258 N255 0.984 . S
H259 N255 0.985 . S
H260 N254 0.984 . S
H261 N254 0.984 . S
H262 N250 0.984 . S
H263 N250 0.985 . S
C264 C265 1.363 . S
C264 C270 1.379 . S
C264 N272 1.356 . S
C265 C264 1.363 . S
C265 C271 1.363 . S
C266 C267 1.363 . S
C266 C271 1.379 . S
C266 N273 1.356 . S
C267 C266 1.363 . S
C267 C270 1.363 . S
N268 C270 1.356 . S
N268 H280 0.984 . S
N268 H281 0.985 . S
N269 C271 1.356 . S
N269 H274 0.984 . S
N269 H275 0.985 . S
C270 C264 1.379 . S
C270 C267 1.363 . S
C270 N268 1.356 . S
C271 C265 1.363 . S
C271 C266 1.379 . S
C271 N269 1.356 . S
N272 C264 1.356 . S
N272 H278 0.984 . S
N272 H279 0.984 . S
N273 C266 1.356 . S
N273 H276 0.984 . S
N273 H277 0.985 . S
H274 N269 0.984 . S
H275 N269 0.985 . S
H276 N273 0.984 . S
H277 N273 0.985 . S
H278 N272 0.984 . S
H279 N272 0.984 . S
H280 N268 0.984 . S
H281 N268 0.985 . S
C282 C283 1.363 . S
C282 C288 1.379 . S
C282 N290 1.356 . S
C283 C282 1.363 . S
C283 C289 1.363 . S
C284 C285 1.363 . S
C284 C289 1.379 . S
C284 N291 1.356 . S
C285 C284 1.363 . S
C285 C288 1.363 . S
N286 C288 1.356 . S
N286 H298 0.984 . S
N286 H299 0.985 . S
N287 C289 1.356 . S
N287 H292 0.984 . S
N287 H293 0.985 . S
C288 C282 1.379 . S
C288 C285 1.363 . S
C288 N286 1.356 . S
C289 C283 1.363 . S
C289 C284 1.379 . S
C289 N287 1.356 . S
N290 C282 1.356 . S
N290 H296 0.984 . S
N290 H297 0.984 . S
N291 C284 1.356 . S
N291 H294 0.984 . S
N291 H295 0.985 . S
H292 N287 0.984 . S
H293 N287 0.985 . S
H294 N291 0.984 . S
H295 N291 0.985 . S
H296 N290 0.984 . S
H297 N290 0.984 . S
H298 N286 0.984 . S
H299 N286 0.985 . S
C300 C301 1.363 . S
C300 C306 1.379 . S
C300 N308 1.356 . S
C301 C300 1.363 . S
C301 C307 1.363 . S
C302 C303 1.363 . S
C302 C307 1.379 . S
C302 N309 1.356 1_554 S
C303 C302 1.363 . S
C303 C306 1.363 . S
N304 C306 1.356 . S
N304 H316 0.984 1_455 S
N304 H317 0.985 . S
N305 C307 1.356 . S
N305 H310 0.984 . S
N305 H311 0.985 . S
C306 C300 1.379 . S
C306 C303 1.363 . S
C306 N304 1.356 . S
C307 C301 1.363 . S
C307 C302 1.379 . S
C307 N305 1.356 . S
N308 C300 1.356 . S
N308 H314 0.984 . S
N308 H315 0.984 . S
N309 C302 1.356 1_556 S
N309 H312 0.984 . S
N309 H313 0.985 . S
H310 N305 0.984 . S
H311 N305 0.985 . S
H312 N309 0.984 . S
H313 N309 0.985 . S
H314 N308 0.984 . S
H315 N308 0.984 . S
H316 N304 0.984 1_655 S
H317 N304 0.985 . S
C318 C319 1.363 . S
C318 C324 1.379 . S
C318 N326 1.356 . S
C319 C318 1.363 . S
C319 C325 1.363 . S
C320 C321 1.363 . S
C320 C325 1.379 . S
C320 N327 1.356 . S
C321 C320 1.363 . S
C321 C324 1.363 . S
N322 C324 1.356 . S
N322 H334 0.984 . S
N322 H335 0.985 . S
N323 C325 1.356 . S
N323 H328 0.984 . S
N323 H329 0.985 . S
C324 C318 1.379 . S
C324 C321 1.363 . S
C324 N322 1.356 . S
C325 C319 1.363 . S
C325 C320 1.379 . S
C325 N323 1.356 . S
N326 C318 1.356 . S
N326 H332 0.984 . S
N326 H333 0.984 . S
N327 C320 1.356 . S
N327 H330 0.984 . S
N327 H331 0.985 . S
H328 N323 0.984 . S
H329 N323 0.985 . S
H330 N327 0.984 . S
H331 N327 0.985 . S
H332 N326 0.984 . S
H333 N326 0.984 . S
H334 N322 0.984 . S
H335 N322 0.985 . S
C336 C337 1.363 . S
C336 C342 1.379 . S
C336 N344 1.356 . S
C337 C336 1.363 . S
C337 C343 1.363 . S
C338 C339 1.363 . S
C338 C343 1.379 . S
C338 N345 1.356 1_655 S
C339 C338 1.363 . S
C339 C342 1.363 . S
N340 C342 1.356 . S
N340 H352 0.984 . S
N340 H353 0.985 . S
N341 C343 1.356 . S
N341 H346 0.984 . S
N341 H347 0.985 1_655 S
C342 C336 1.379 . S
C342 C339 1.363 . S
C342 N340 1.356 . S
C343 C337 1.363 . S
C343 C338 1.379 . S
C343 N341 1.356 . S
N344 C336 1.356 . S
N344 H350 0.984 . S
N344 H351 0.984 . S
N345 C338 1.356 1_455 S
N345 H348 0.984 . S
N345 H349 0.985 . S
H346 N341 0.984 . S
H347 N341 0.985 1_455 S
H348 N345 0.984 . S
H349 N345 0.985 . S
H350 N344 0.984 . S
H351 N344 0.984 . S
H352 N340 0.984 . S
H353 N340 0.985 . S
C354 C355 1.363 . S
C354 C360 1.379 . S
C354 N362 1.356 . S
C355 C354 1.363 . S
C355 C361 1.363 . S
C356 C357 1.363 . S
C356 C361 1.379 . S
C356 N363 1.356 . S
C357 C356 1.363 . S
C357 C360 1.363 . S
N358 C360 1.356 . S
N358 H370 0.984 . S
N358 H371 0.985 . S
N359 C361 1.356 . S
N359 H364 0.984 . S
N359 H365 0.985 . S
C360 C354 1.379 . S
C360 C357 1.363 . S
C360 N358 1.356 . S
C361 C355 1.363 . S
C361 C356 1.379 . S
C361 N359 1.356 . S
N362 C354 1.356 . S
N362 H368 0.984 . S
N362 H369 0.984 . S
N363 C356 1.356 . S
N363 H366 0.984 . S
N363 H367 0.985 . S
H364 N359 0.984 . S
H365 N359 0.985 . S
H366 N363 0.984 . S
H367 N363 0.985 . S
H368 N362 0.984 . S
H369 N362 0.984 . S
H370 N358 0.984 . S
H371 N358 0.985 . S
C372 C373 1.363 . S
C372 C378 1.379 . S
C372 N380 1.356 . S
C373 C372 1.363 . S
C373 C379 1.363 . S
C374 C375 1.363 . S
C374 C379 1.379 . S
C374 N381 1.356 1_655 S
C375 C374 1.363 . S
C375 C378 1.363 . S
N376 C378 1.356 1_545 S
N376 H388 0.984 . S
N376 H389 0.985 . S
N377 C379 1.356 . S
N377 H382 0.984 . S
N377 H383 0.985 . S
C378 C372 1.379 . S
C378 C375 1.363 . S
C378 N376 1.356 1_565 S
C379 C373 1.363 . S
C379 C374 1.379 . S
C379 N377 1.356 . S
N380 C372 1.356 . S
N380 H386 0.984 1_565 S
N380 H387 0.984 . S
N381 C374 1.356 1_455 S
N381 H384 0.984 . S
N381 H385 0.985 . S
H382 N377 0.984 . S
H383 N377 0.985 . S
H384 N381 0.984 . S
H385 N381 0.985 . S
H386 N380 0.984 1_545 S
H387 N380 0.984 . S
H388 N376 0.984 . S
H389 N376 0.985 . S
C390 C391 1.363 . S
C390 C396 1.379 . S
C390 N398 1.356 . S
C391 C390 1.363 . S
C391 C397 1.363 . S
C392 C393 1.363 . S
C392 C397 1.379 . S
C392 N399 1.356 . S
C393 C392 1.363 . S
C393 C396 1.363 . S
N394 C396 1.356 1_565 S
N394 H406 0.984 . S
N394 H407 0.985 . S
N395 C397 1.356 . S
N395 H400 0.984 . S
N395 H401 0.985 . S
C396 C390 1.379 . S
C396 C393 1.363 . S
C396 N394 1.356 1_545 S
C397 C391 1.363 . S
C397 C392 1.379 . S
C397 N395 1.356 . S
N398 C390 1.356 . S
N398 H404 0.984 1_545 S
N398 H405 0.984 . S
N399 C392 1.356 . S
N399 H402 0.984 . S
N399 H403 0.985 . S
H400 N395 0.984 . S
H401 N395 0.985 . S
H402 N399 0.984 . S
H403 N399 0.985 . S
H404 N398 0.984 1_565 S
H405 N398 0.984 . S
H406 N394 0.984 . S
H407 N394 0.985 . S
C408 C409 1.363 . S
C408 C414 1.379 . S
C408 N416 1.356 . S
C409 C408 1.363 . S
C409 C415 1.363 . S
C410 C411 1.363 . S
C410 C415 1.379 . S
C410 N417 1.356 . S
C411 C410 1.363 . S
C411 C414 1.363 . S
N412 C414 1.356 . S
N412 H424 0.984 . S
N412 H425 0.985 . S
N413 C415 1.356 . S
N413 H418 0.984 . S
N413 H419 0.985 . S
C414 C408 1.379 . S
C414 C411 1.363 . S
C414 N412 1.356 . S
C415 C409 1.363 . S
C415 C410 1.379 . S
C415 N413 1.356 . S
N416 C408 1.356 . S
N416 H422 0.984 . S
N416 H423 0.984 . S
N417 C410 1.356 . S
N417 H420 0.984 . S
N417 H421 0.985 . S
H418 N413 0.984 . S
H419 N413 0.985 . S
H420 N417 0.984 . S
H421 N417 0.985 . S
H422 N416 0.984 . S
H423 N416 0.984 . S
H424 N412 0.984 . S
H425 N412 0.985 . S
C426 C427 1.363 . S
C426 C432 1.379 . S
C426 N434 1.356 . S
C427 C426 1.363 . S
C427 C433 1.363 . S
C428 C429 1.363 . S
C428 C433 1.379 . S
C428 N435 1.356 . S
C429 C428 1.363 . S
C429 C432 1.363 . S
N430 C432 1.356 . S
N430 H442 0.984 . S
N430 H443 0.985 . S
N431 C433 1.356 . S
N431 H436 0.984 . S
N431 H437 0.985 . S
C432 C426 1.379 . S
C432 C429 1.363 . S
C432 N430 1.356 . S
C433 C427 1.363 . S
C433 C428 1.379 . S
C433 N431 1.356 . S
N434 C426 1.356 . S
N434 H440 0.984 . S
N434 H441 0.984 . S
N435 C428 1.356 . S
N435 H438 0.984 . S
N435 H439 0.985 1_455 S
H436 N431 0.984 . S
H437 N431 0.985 . S
H438 N435 0.984 . S
H439 N435 0.985 1_655 S
H440 N434 0.984 . S
H441 N434 0.984 . S
H442 N430 0.984 . S
H443 N430 0.985 . S
C444 C445 1.363 . S
C444 C450 1.379 . S
C444 N452 1.356 1_565 S
C445 C444 1.363 . S
C445 C451 1.363 . S
C446 C447 1.363 . S
C446 C451 1.379 . S
C446 N453 1.356 . S
C447 C446 1.363 . S
C447 C450 1.363 . S
N448 C450 1.356 1_545 S
N448 H460 0.984 . S
N448 H461 0.985 . S
N449 C451 1.356 . S
N449 H454 0.984 . S
N449 H455 0.985 . S
C450 C444 1.379 . S
C450 C447 1.363 . S
C450 N448 1.356 1_565 S
C451 C445 1.363 . S
C451 C446 1.379 . S
C451 N449 1.356 . S
N452 C444 1.356 1_545 S
N452 H458 0.984 . S
N452 H459 0.984 1_545 S
N453 C446 1.356 . S
N453 H456 0.984 . S
N453 H457 0.985 . S
H454 N449 0.984 . S
H455 N449 0.985 . S
H456 N453 0.984 . S
H457 N453 0.985 . S
H458 N452 0.984 . S
H459 N452 0.984 1_565 S
H460 N448 0.984 . S
H461 N448 0.985 . S
C462 C463 1.363 . S
C462 C468 1.379 . S
C462 N470 1.356 . S
C463 C462 1.363 . S
C463 C469 1.363 . S
C464 C465 1.363 . S
C464 C469 1.379 . S
C464 N471 1.356 1_545 S
C465 C464 1.363 . S
C465 C468 1.363 . S
N466 C468 1.356 . S
N466 H478 0.984 . S
N466 H479 0.985 . S
N467 C469 1.356 . S
N467 H472 0.984 . S
N467 H473 0.985 1_545 S
C468 C462 1.379 . S
C468 C465 1.363 . S
C468 N466 1.356 . S
C469 C463 1.363 . S
C469 C464 1.379 . S
C469 N467 1.356 . S
N470 C462 1.356 . S
N470 H476 0.984 . S
N470 H477 0.984 . S
N471 C464 1.356 1_565 S
N471 H474 0.984 . S
N471 H475 0.985 . S
H472 N467 0.984 . S
H473 N467 0.985 1_565 S
H474 N471 0.984 . S
H475 N471 0.985 . S
H476 N470 0.984 . S
H477 N470 0.984 . S
H478 N466 0.984 . S
H479 N466 0.985 . S
C480 C481 1.363 . S
C480 C486 1.379 . S
C480 N488 1.356 . S
C481 C480 1.363 . S
C481 C487 1.363 . S
C482 C483 1.363 . S
C482 C487 1.379 . S
C482 N489 1.356 . S
C483 C482 1.363 . S
C483 C486 1.363 . S
N484 C486 1.356 . S
N484 H496 0.984 . S
N484 H497 0.985 . S
N485 C487 1.356 . S
N485 H490 0.984 . S
N485 H491 0.985 . S
C486 C480 1.379 . S
C486 C483 1.363 . S
C486 N484 1.356 . S
C487 C481 1.363 . S
C487 C482 1.379 . S
C487 N485 1.356 . S
N488 C480 1.356 . S
N488 H494 0.984 . S
N488 H495 0.984 . S
N489 C482 1.356 . S
N489 H492 0.984 . S
N489 H493 0.985 . S
H490 N485 0.984 . S
H491 N485 0.985 . S
H492 N489 0.984 . S
H493 N489 0.985 . S
H494 N488 0.984 . S
H495 N488 0.984 . S
H496 N484 0.984 . S
H497 N484 0.985 . S
C498 C499 1.363 . S
C498 C504 1.379 . S
C498 N506 1.356 . S
C499 C498 1.363 . S
C499 C505 1.363 . S
C500 C501 1.363 . S
C500 C505 1.379 . S
C500 N507 1.356 . S
C501 C500 1.363 . S
C501 C504 1.363 . S
N502 C504 1.356 . S
N502 H514 0.984 . S
N502 H515 0.985 . S
N503 C505 1.356 . S
N503 H508 0.984 . S
N503 H509 0.985 . S
C504 C498 1.379 . S
C504 C501 1.363 . S
C504 N502 1.356 . S
C505 C499 1.363 . S
C505 C500 1.379 . S
C505 N503 1.356 . S
N506 C498 1.356 . S
N506 H512 0.984 . S
N506 H513 0.984 . S
N507 C500 1.356 . S
N507 H510 0.984 . S
N507 H511 0.985 . S
H508 N503 0.984 . S
H509 N503 0.985 . S
H510 N507 0.984 . S
H511 N507 0.985 . S
H512 N506 0.984 . S
H513 N506 0.984 . S
H514 N502 0.984 . S
H515 N502 0.985 . S
C516 C517 1.363 . S
C516 C522 1.379 . S
C516 N524 1.356 . S
C517 C516 1.363 . S
C517 C523 1.363 . S
C518 C519 1.363 . S
C518 C523 1.379 . S
C518 N525 1.356 . S
C519 C518 1.363 . S
C519 C522 1.363 . S
N520 C522 1.356 1_554 S
N520 H532 0.984 1_655 S
N520 H533 0.985 1_655 S
N521 C523 1.356 . S
N521 H526 0.984 . S
N521 H527 0.985 . S
C522 C516 1.379 . S
C522 C519 1.363 . S
C522 N520 1.356 1_556 S
C523 C517 1.363 . S
C523 C518 1.379 . S
C523 N521 1.356 . S
N524 C516 1.356 . S
N524 H530 0.984 1_556 S
N524 H531 0.984 . S
N525 C518 1.356 . S
N525 H528 0.984 . S
N525 H529 0.985 . S
H526 N521 0.984 . S
H527 N521 0.985 . S
H528 N525 0.984 . S
H529 N525 0.985 . S
H530 N524 0.984 1_554 S
H531 N524 0.984 . S
H532 N520 0.984 1_455 S
H533 N520 0.985 1_455 S
C534 C535 1.363 . S
C534 C540 1.379 . S
C534 N542 1.356 . S
C535 C534 1.363 . S
C535 C541 1.363 . S
C536 C537 1.363 . S
C536 C541 1.379 . S
C536 N543 1.356 . S
C537 C536 1.363 . S
C537 C540 1.363 . S
N538 C540 1.356 . S
N538 H550 0.984 . S
N538 H551 0.985 . S
N539 C541 1.356 . S
N539 H544 0.984 . S
N539 H545 0.985 . S
C540 C534 1.379 . S
C540 C537 1.363 . S
C540 N538 1.356 . S
C541 C535 1.363 . S
C541 C536 1.379 . S
C541 N539 1.356 . S
N542 C534 1.356 . S
N542 H548 0.984 . S
N542 H549 0.984 . S
N543 C536 1.356 . S
N543 H546 0.984 . S
N543 H547 0.985 1_554 S
H544 N539 0.984 . S
H545 N539 0.985 . S
H546 N543 0.984 . S
H547 N543 0.985 1_556 S
H548 N542 0.984 . S
H549 N542 0.984 . S
H550 N538 0.984 . S
H551 N538 0.985 . S
C552 C553 1.363 . S
C552 C558 1.379 . S
C552 N560 1.356 . S
C553 C552 1.363 . S
C553 C559 1.363 . S
C554 C555 1.363 . S
C554 C559 1.379 . S
C554 N561 1.356 1_455 S
C555 C554 1.363 . S
C555 C558 1.363 . S
N556 C558 1.356 . S
N556 H568 0.984 . S
N556 H569 0.985 . S
N557 C559 1.356 . S
N557 H562 0.984 . S
N557 H563 0.985 . S
C558 C552 1.379 . S
C558 C555 1.363 . S
C558 N556 1.356 . S
C559 C553 1.363 . S
C559 C554 1.379 . S
C559 N557 1.356 . S
N560 C552 1.356 . S
N560 H566 0.984 . S
N560 H567 0.984 . S
N561 C554 1.356 1_655 S
N561 H564 0.984 . S
N561 H565 0.985 . S
H562 N557 0.984 . S
H563 N557 0.985 . S
H564 N561 0.984 . S
H565 N561 0.985 . S
H566 N560 0.984 . S
H567 N560 0.984 . S
H568 N556 0.984 . S
H569 N556 0.985 . S
C570 C571 1.363 . S
C570 C576 1.379 . S
C570 N578 1.356 . S
C571 C570 1.363 . S
C571 C577 1.363 . S
C572 C573 1.363 . S
C572 C577 1.379 . S
C572 N579 1.356 . S
C573 C572 1.363 . S
C573 C576 1.363 . S
N574 C576 1.356 . S
N574 H586 0.984 . S
N574 H587 0.985 . S
N575 C577 1.356 . S
N575 H580 0.984 . S
N575 H581 0.985 . S
C576 C570 1.379 . S
C576 C573 1.363 . S
C576 N574 1.356 . S
C577 C571 1.363 . S
C577 C572 1.379 . S
C577 N575 1.356 . S
N578 C570 1.356 . S
N578 H584 0.984 . S
N578 H585 0.984 . S
N579 C572 1.356 . S
N579 H582 0.984 . S
N579 H583 0.985 . S
H580 N575 0.984 . S
H581 N575 0.985 . S
H582 N579 0.984 . S
H583 N579 0.985 . S
H584 N578 0.984 . S
H585 N578 0.984 . S
H586 N574 0.984 . S
H587 N574 0.985 . S
C157 C5 1.544 . S
C159 C90 1.507 . S
C175 C14 1.492 . S
C177 C107 1.427 . S
C195 C130 1.232 . S
C193 C25 1.486 . S
C211 C34 1.677 . S
C213 C151 1.358 . S
C231 C110 1.622 . S
C229 C7 1.664 . S
C249 C87 1.555 . S
C247 C13 1.605 . S
C267 C149 1.355 . S
C265 C23 1.434 . S
C285 C128 1.410 . S
C283 C31 1.463 . S
C301 C4 1.628 . S
C303 C152 1.580 . S
C321 C109 1.286 . S
C319 C22 1.587 . S
C337 C32 1.583 . S
C339 C85 1.404 . S
C355 C16 1.482 . S
C357 C131 1.468 . S
C375 C89 1.500 . S
C373 C41 1.556 . S
C391 C50 1.375 . S
C393 C108 1.330 . S
C409 C61 1.514 . S
C411 C127 1.276 . S
C427 C67 1.619 . S
C429 C148 1.301 . S
C445 C40 1.618 . S
C447 C111 1.587 . S
C465 C86 1.592 . S
C463 C52 1.652 . S
C483 C150 1.299 . S
C481 C59 1.368 . S
C501 C129 1.463 . S
C499 C70 1.520 . S
C517 C43 1.505 . S
C519 C153 1.468 . S
C537 C106 1.260 . S
C535 C58 1.513 . S
C555 C88 1.297 . S
C553 C68 1.473 . S
C571 C49 1.453 . S
C573 C132 1.430 . S
