# Generated by pormake.
# Topology ssa, (4,4)-cn, num edge types: 1
# Building blocks:
#     Node 0, Type 0, BuildingBlock: ESEHIV_clean_sbu_0, # of connection points: 4
#     Node 1, Type 0, BuildingBlock: ESEHIV_clean_sbu_0, # of connection points: 4
#     Node 2, Type 0, BuildingBlock: ESEHIV_clean_sbu_0, # of connection points: 4
#     Node 3, Type 0, BuildingBlock: ESEHIV_clean_sbu_0, # of connection points: 4
#     Node 4, Type 0, BuildingBlock: ESEHIV_clean_sbu_0, # of connection points: 4
#     Node 5, Type 0, BuildingBlock: ESEHIV_clean_sbu_0, # of connection points: 4
#     Node 6, Type 1, BuildingBlock: MUDLON_clean_linker_0, # of connection points: 4
#     Node 7, Type 1, BuildingBlock: MUDLON_clean_linker_0, # of connection points: 4
#     Node 8, Type 1, BuildingBlock: MUDLON_clean_linker_0, # of connection points: 4
#     Node 9, Type 1, BuildingBlock: MUDLON_clean_linker_0, # of connection points: 4
#     Node 10, Type 1, BuildingBlock: MUDLON_clean_linker_0, # of connection points: 4
#     Node 11, Type 1, BuildingBlock: MUDLON_clean_linker_0, # of connection points: 4
#     Edge 12, Type (0, 1), BuildingBlock: ZUJKAS_clean_linker_0, # of connection points: 2
#     Edge 13, Type (0, 1), BuildingBlock: ZUJKAS_clean_linker_0, # of connection points: 2
#     Edge 14, Type (0, 1), BuildingBlock: ZUJKAS_clean_linker_0, # of connection points: 2
#     Edge 15, Type (0, 1), BuildingBlock: ZUJKAS_clean_linker_0, # of connection points: 2
#     Edge 16, Type (0, 1), BuildingBlock: ZUJKAS_clean_linker_0, # of connection points: 2
#     Edge 17, Type (0, 1), BuildingBlock: ZUJKAS_clean_linker_0, # of connection points: 2
#     Edge 18, Type (0, 1), BuildingBlock: ZUJKAS_clean_linker_0, # of connection points: 2
#     Edge 19, Type (0, 1), BuildingBlock: ZUJKAS_clean_linker_0, # of connection points: 2
#     Edge 20, Type (0, 1), BuildingBlock: ZUJKAS_clean_linker_0, # of connection points: 2
#     Edge 21, Type (0, 1), BuildingBlock: ZUJKAS_clean_linker_0, # of connection points: 2
#     Edge 22, Type (0, 1), BuildingBlock: ZUJKAS_clean_linker_0, # of connection points: 2
#     Edge 23, Type (0, 1), BuildingBlock: ZUJKAS_clean_linker_0, # of connection points: 2
#     Edge 24, Type (0, 1), BuildingBlock: ZUJKAS_clean_linker_0, # of connection points: 2
#     Edge 25, Type (0, 1), BuildingBlock: ZUJKAS_clean_linker_0, # of connection points: 2
#     Edge 26, Type (0, 1), BuildingBlock: ZUJKAS_clean_linker_0, # of connection points: 2
#     Edge 27, Type (0, 1), BuildingBlock: ZUJKAS_clean_linker_0, # of connection points: 2
#     Edge 28, Type (0, 1), BuildingBlock: ZUJKAS_clean_linker_0, # of connection points: 2
#     Edge 29, Type (0, 1), BuildingBlock: ZUJKAS_clean_linker_0, # of connection points: 2
#     Edge 30, Type (0, 1), BuildingBlock: ZUJKAS_clean_linker_0, # of connection points: 2
#     Edge 31, Type (0, 1), BuildingBlock: ZUJKAS_clean_linker_0, # of connection points: 2
#     Edge 32, Type (0, 1), BuildingBlock: ZUJKAS_clean_linker_0, # of connection points: 2
#     Edge 33, Type (0, 1), BuildingBlock: ZUJKAS_clean_linker_0, # of connection points: 2
#     Edge 34, Type (0, 1), BuildingBlock: ZUJKAS_clean_linker_0, # of connection points: 2
#     Edge 35, Type (0, 1), BuildingBlock: ZUJKAS_clean_linker_0, # of connection points: 2
# Relax obj value: 0.006
# Max RMSD: 0.101
# Mean RMSD: 0.066
data_MOF--net-ssa--node1-ESEHIV_clean_sbu_0--node2-MUDLON_clean_linker_0--edge1-ZUJKAS_clean_linker_0
_symmetry_space_group_name_H-M    P1
_symmetry_Int_Tables_number       1
_symmetry_cell_setting            triclinic
loop_
_symmetry_equiv_pos_as_xyz
'x, y, z'
_cell_length_a     85.391662
_cell_length_b     89.096624
_cell_length_c     48.85953
_cell_angle_alpha  88.822039
_cell_angle_beta   90.606566
_cell_angle_gamma 121.39414
loop_
_atom_site_label
_atom_site_type_symbol
_atom_site_fract_x
_atom_site_fract_y
_atom_site_fract_z
_atom_type_partial_charge
Cu0 Cu 0.01199 0.50095 0.03689 0.0
N1 N 0.99432 0.47715 0.04178 0.0
N2 N 0.9728 0.44963 0.03129 0.0
C3 C 0.9821 0.46663 0.02297 0.0
C4 C 0.97932 0.44946 0.05651 0.0
C5 C 0.99257 0.4665 0.06297 0.0
O6 O 0.00405 0.51091 0.00823 0.0
C7 C 0.03888 0.4918 0.02645 0.0
O8 O 0.02492 0.47634 0.01978 0.0
H9 H 0.98076 0.4712 0.00293 0.0
H10 H 1.0009 0.47073 0.08129 0.0
N11 N 0.01412 0.51318 0.06837 0.0
N12 N 0.02686 0.53509 0.09814 0.0
C13 C 0.02935 0.52826 0.07539 0.0
C14 C 1.00144 0.51024 0.08726 0.0
C15 C 0.00928 0.5238 0.10572 0.0
C16 C 1.00203 0.50705 0.98302 0.0
O17 O 0.00713 0.49647 0.97387 0.0
H18 H 0.04182 0.53441 0.06337 0.0
H19 H 0.98744 0.49922 0.08729 0.0
O20 O 0.03613 0.50421 0.0315 0.0
H21 H 0.97519 0.43783 0.06907 0.0
H22 H 1.00255 0.52525 0.12322 0.0
Cu23 Cu 0.53742 0.01875 0.48885 0.0
N24 N 0.54969 0.01674 0.45898 0.0
N25 N 0.55998 0.00431 0.43092 0.0
C26 C 0.55343 0.00393 0.45608 0.0
C27 C 0.56054 0.01797 0.41752 0.0
C28 C 0.55427 0.0257 0.43496 0.0
O29 O 0.515 0.99606 0.49481 0.0
C30 C 0.56917 0.04091 0.51602 0.0
O31 O 0.57238 0.04874 0.49188 0.0
H32 H 0.55035 0.99389 0.47155 0.0
H33 H 0.55249 0.03662 0.43011 0.0
N34 N 0.5308 0.03545 0.48243 0.0
N35 N 0.52388 0.05584 0.49171 0.0
C36 C 0.53104 0.04634 0.50133 0.0
C37 C 0.52322 0.03806 0.45997 0.0
C38 C 0.51901 0.05068 0.46558 0.0
C39 C 0.50611 0.98826 0.47335 0.0
O40 O 0.51235 0.9959 0.44936 0.0
H41 H 0.53613 0.047 0.52191 0.0
H42 H 0.52041 0.0309 0.44116 0.0
O43 O 0.55398 0.02655 0.51989 0.0
H44 H 0.56477 0.02182 0.39645 0.0
H45 H 0.51221 0.05514 0.45179 0.0
Cu46 Cu 0.52757 0.50053 0.0267 0.0
N47 N 0.52158 0.47725 0.0311 0.0
N48 N 0.51569 0.45067 0.01928 0.0
C49 C 0.52167 0.46733 0.01079 0.0
C50 C 0.51182 0.45019 0.04615 0.0
C51 C 0.51541 0.46661 0.05336 0.0
O52 O 0.54588 0.51117 0.99797 0.0
C53 C 0.48971 0.48827 0.01686 0.0
O54 O 0.48769 0.47276 0.01365 0.0
H55 H 0.5259 0.47228 0.99011 0.0
H56 H 0.51325 0.4704 0.0732 0.0
N57 N 0.53775 0.51353 0.05828 0.0
N58 N 0.54771 0.53618 0.08646 0.0
C59 C 0.5396 0.52926 0.06231 0.0
C60 C 0.5449 0.51027 0.08065 0.0
C61 C 0.55112 0.52428 0.09809 0.0
C62 C 0.56103 0.51226 0.00355 0.0
O63 O 0.56291 0.50647 0.02758 0.0
H64 H 0.53539 0.53562 0.0474 0.0
H65 H 0.54569 0.49864 0.08393 0.0
O66 O 0.50576 0.50166 0.01972 0.0
H67 H 0.5062 0.43868 0.05945 0.0
H68 H 0.55752 0.52552 0.11783 0.0
Cu69 Cu 0.04441 0.51256 0.54654 0.0
N70 N 0.06206 0.50632 0.54985 0.0
N71 N 0.08227 0.49944 0.53541 0.0
C72 C 0.07044 0.50455 0.52812 0.0
C73 C 0.08133 0.49798 0.563 0.0
C74 C 0.06872 0.50214 0.57187 0.0
O75 O 0.05132 0.52818 0.51466 0.0
C76 C 0.01357 0.48355 0.56787 0.0
O77 O 0.023 0.49059 0.59028 0.0
H78 H 0.06793 0.50712 0.5073 0.0
H79 H 0.06455 0.50189 0.59278 0.0
N80 N 0.04411 0.5255 0.5759 0.0
N81 N 0.03337 0.53841 0.60206 0.0
C82 C 0.03128 0.52977 0.5787 0.0
C83 C 0.05488 0.53175 0.59818 0.0
C84 C 0.0482 0.53968 0.61449 0.0
C85 C 0.06696 0.54219 0.51743 0.0
O86 O 0.07603 0.54423 0.54032 0.0
H87 H 0.02019 0.52596 0.56425 0.0
H88 H 0.06658 0.53046 0.60243 0.0
O89 O 0.02037 0.49095 0.54481 0.0
H90 H 0.08888 0.49385 0.57579 0.0
H91 H 0.05377 0.5458 0.63397 0.0
Cu92 Cu 0.51238 0.9894 0.98873 0.0
N93 N 0.49973 0.99218 0.95966 0.0
N94 N 0.48997 0.00573 0.93151 0.0
C95 C 0.5013 0.00754 0.95238 0.0
C96 C 0.48092 0.98846 0.92549 0.0
C97 C 0.48694 0.98014 0.94293 0.0
O98 O 0.53583 0.01149 0.99141 0.0
C99 C 0.48264 0.96765 0.02079 0.0
O100 O 0.47913 0.95828 0.99866 0.0
H101 H 0.51023 0.0197 0.96284 0.0
H102 H 0.48206 0.96624 0.94362 0.0
N103 N 0.51699 0.97138 0.98292 0.0
N104 N 0.52604 0.95244 0.99245 0.0
C105 C 0.52447 0.96575 0.00172 0.0
C106 C 0.51377 0.96135 0.96086 0.0
C107 C 0.51926 0.94955 0.96676 0.0
C108 C 0.54761 0.01407 0.97325 0.0
O109 O 0.54336 0.0018 0.95519 0.0
H110 H 0.52838 0.97115 0.02202 0.0
H111 H 0.50798 0.96257 0.94178 0.0
O112 O 0.49719 0.98283 0.0214 0.0
H113 H 0.47065 0.98222 0.90967 0.0
H114 H 0.51853 0.93978 0.95313 0.0
Cu115 Cu 0.52464 0.49444 0.47899 0.0
N116 N 0.53582 0.50841 0.44794 0.0
N117 N 0.54464 0.53068 0.41791 0.0
C118 C 0.53216 0.52023 0.43697 0.0
C119 C 0.55655 0.52504 0.41667 0.0
C120 C 0.55114 0.5114 0.43533 0.0
O121 O 0.50078 0.4919 0.48279 0.0
C122 C 0.53928 0.50006 0.53359 0.0
O123 O 0.52326 0.48662 0.54106 0.0
H124 H 0.52131 0.52196 0.44424 0.0
H125 H 0.5585 0.50487 0.44051 0.0
N126 N 0.52104 0.47203 0.4752 0.0
N127 N 0.51366 0.44474 0.48704 0.0
C128 C 0.5123 0.45868 0.49341 0.0
C129 C 0.52789 0.46622 0.45626 0.0
C130 C 0.52344 0.44941 0.46359 0.0
C131 C 0.49817 0.50427 0.4887 0.0
O132 O 0.51215 0.5194 0.4966 0.0
H133 H 0.50577 0.45948 0.51169 0.0
H134 H 0.53601 0.47381 0.43879 0.0
O135 O 0.54164 0.5058 0.50902 0.0
H136 H 0.56875 0.5308 0.40409 0.0
H137 H 0.52744 0.44142 0.45284 0.0
H138 H 0.34531 0.50319 0.26694 0.0
N139 N 0.31722 0.47069 0.25231 0.0
H140 H 0.36556 0.50967 0.30643 0.0
H141 H 0.31254 0.44915 0.29392 0.0
H142 H 0.33209 0.45558 0.33425 0.0
H143 H 0.32357 0.44748 0.23001 0.0
H144 H 0.34281 0.45184 0.19034 0.0
H145 H 0.33404 0.50002 0.21904 0.0
H146 H 0.35274 0.50436 0.17885 0.0
H147 H 0.31443 0.49993 0.25182 0.0
H148 H 0.28325 0.44337 0.25049 0.0
H149 H 0.28617 0.50044 0.24699 0.0
H150 H 0.25482 0.44351 0.24783 0.0
H151 H 0.20301 0.49784 0.26506 0.0
H152 H 0.19176 0.50213 0.30814 0.0
H153 H 0.16985 0.4475 0.33009 0.0
H154 H 0.18082 0.44327 0.28645 0.0
H155 H 0.16609 0.4453 0.22283 0.0
H156 H 0.15128 0.45203 0.18559 0.0
H157 H 0.19864 0.50477 0.1795 0.0
H158 H 0.2132 0.49786 0.21729 0.0
H159 H 0.23037 0.49382 0.2674 0.0
H160 H 0.25967 0.49539 0.26844 0.0
H161 H 0.23646 0.44868 0.21932 0.0
N162 N 0.19796 0.46687 0.24646 0.0
H163 H 0.20681 0.4465 0.22035 0.0
C164 C 0.32757 0.47559 0.27738 0.0
C165 C 0.34226 0.4928 0.2817 0.0
C166 C 0.35378 0.49649 0.30444 0.0
C167 C 0.35067 0.48309 0.32342 0.0
C168 C 0.33523 0.46614 0.31977 0.0
C169 C 0.3239 0.46245 0.29692 0.0
C170 C 0.32729 0.47332 0.22743 0.0
C171 C 0.32977 0.45984 0.21868 0.0
C172 C 0.34068 0.46235 0.1959 0.0
C173 C 0.34935 0.47847 0.18129 0.0
C174 C 0.34647 0.49186 0.18977 0.0
C175 C 0.33561 0.48934 0.21268 0.0
C176 C 0.30088 0.47156 0.25093 0.0
C177 C 0.30147 0.48761 0.25045 0.0
C178 C 0.28521 0.48784 0.24805 0.0
C179 C 0.26804 0.47201 0.24665 0.0
C180 C 0.26767 0.45601 0.24794 0.0
C181 C 0.2839 0.45584 0.2498 0.0
C182 C 0.1926 0.47014 0.2725 0.0
C183 C 0.19584 0.4868 0.27915 0.0
C184 C 0.18953 0.48927 0.30394 0.0
C185 C 0.17984 0.47514 0.32257 0.0
C186 C 0.17702 0.4586 0.31606 0.0
C187 C 0.18336 0.45616 0.29127 0.0
C188 C 0.19066 0.47102 0.22274 0.0
C189 C 0.17333 0.45822 0.21316 0.0
C190 C 0.16496 0.4621 0.19178 0.0
C191 C 0.17377 0.47895 0.17943 0.0
C192 C 0.19139 0.49172 0.18871 0.0
C193 C 0.19979 0.48778 0.21017 0.0
C194 C 0.21617 0.46972 0.24432 0.0
C195 C 0.23152 0.48387 0.25692 0.0
C196 C 0.24845 0.48486 0.25725 0.0
C197 C 0.25052 0.47196 0.24443 0.0
C198 C 0.23537 0.45852 0.23029 0.0
C199 C 0.21841 0.45735 0.23051 0.0
H200 H 0.73329 0.14331 0.81553 0.0
N201 N 0.74139 0.17086 0.7839 0.0
H202 H 0.71228 0.13191 0.85427 0.0
H203 H 0.7273 0.18834 0.80947 0.0
H204 H 0.70642 0.17727 0.84888 0.0
H205 H 0.71351 0.17488 0.76495 0.0
H206 H 0.69145 0.15775 0.72936 0.0
H207 H 0.7422 0.14775 0.75129 0.0
H208 H 0.7199 0.13018 0.71588 0.0
H209 H 0.77351 0.18354 0.80859 0.0
H210 H 0.7447 0.19828 0.75162 0.0
H211 H 0.80124 0.2123 0.80213 0.0
H212 H 0.7726 0.22651 0.74352 0.0
H213 H 0.88904 0.29716 0.7826 0.0
H214 H 0.90164 0.31583 0.82281 0.0
H215 H 0.85281 0.31877 0.82743 0.0
H216 H 0.84056 0.30049 0.7872 0.0
H217 H 0.85044 0.31299 0.74137 0.0
H218 H 0.86494 0.33389 0.70356 0.0
H219 H 0.88988 0.30509 0.67678 0.0
H220 H 0.8762 0.28492 0.71595 0.0
H221 H 0.85313 0.256 0.76487 0.0
H222 H 0.82443 0.22792 0.77065 0.0
H223 H 0.79423 0.25434 0.75943 0.0
N224 N 0.85764 0.28746 0.75701 0.0
H225 H 0.82311 0.28212 0.75159 0.0
C226 C 0.73178 0.16655 0.80964 0.0
C227 C 0.72782 0.15098 0.8232 0.0
C228 C 0.71584 0.14455 0.84545 0.0
C229 C 0.70754 0.15363 0.85476 0.0
C230 C 0.71236 0.16982 0.84205 0.0
C231 C 0.72438 0.17624 0.81965 0.0
C232 C 0.72958 0.16261 0.76069 0.0
C233 C 0.71518 0.16535 0.75408 0.0
C234 C 0.70246 0.15542 0.73387 0.0
C235 C 0.70378 0.14245 0.71996 0.0
C236 C 0.71856 0.14016 0.726 0.0
C237 C 0.73131 0.15016 0.7462 0.0
C238 C 0.75703 0.1885 0.78048 0.0
C239 C 0.7732 0.19296 0.7946 0.0
C240 C 0.78912 0.20938 0.79055 0.0
C241 C 0.78941 0.22174 0.77179 0.0
C242 C 0.77299 0.21746 0.75822 0.0
C243 C 0.75692 0.20111 0.76271 0.0
C244 C 0.86391 0.29738 0.78186 0.0
C245 C 0.88103 0.30173 0.79252 0.0
C246 C 0.88814 0.31231 0.81553 0.0
C247 C 0.87824 0.31882 0.82829 0.0
C248 C 0.86088 0.31415 0.81788 0.0
C249 C 0.85379 0.30355 0.79491 0.0
C250 C 0.86261 0.2976 0.73183 0.0
C251 C 0.85885 0.31104 0.72722 0.0
C252 C 0.86708 0.32295 0.7053 0.0
C253 C 0.87896 0.32147 0.68724 0.0
C254 C 0.88131 0.30702 0.69065 0.0
C255 C 0.87332 0.29533 0.71283 0.0
C256 C 0.84028 0.27112 0.75823 0.0
C257 C 0.84026 0.25562 0.76336 0.0
C258 C 0.8238 0.23962 0.76704 0.0
C259 C 0.80687 0.23878 0.76619 0.0
C260 C 0.80692 0.25436 0.7602 0.0
C261 C 0.82346 0.27036 0.75599 0.0
H262 H 0.57087 0.84668 0.2602 0.0
N263 N 0.60476 0.85215 0.24812 0.0
H264 H 0.56468 0.86311 0.2928 0.0
H265 H 0.62669 0.8714 0.28864 0.0
H266 H 0.62029 0.88692 0.32322 0.0
H267 H 0.6232 0.88239 0.22052 0.0
H268 H 0.61317 0.89159 0.17998 0.0
H269 H 0.57403 0.83108 0.21778 0.0
H270 H 0.56414 0.83987 0.17656 0.0
H271 H 0.5773 0.8214 0.27187 0.0
H272 H 0.62863 0.84477 0.22845 0.0
H273 H 0.57604 0.79336 0.27459 0.0
H274 H 0.62703 0.81665 0.22948 0.0
H275 H 0.56544 0.71274 0.26581 0.0
H276 H 0.55516 0.68782 0.29722 0.0
H277 H 0.60975 0.71219 0.33155 0.0
H278 H 0.6201 0.73669 0.29883 0.0
H279 H 0.62523 0.72994 0.23825 0.0
H280 H 0.61937 0.70756 0.20493 0.0
H281 H 0.56745 0.70251 0.1848 0.0
H282 H 0.57331 0.72465 0.2185 0.0
H283 H 0.57115 0.74127 0.2524 0.0
H284 H 0.57144 0.76883 0.25015 0.0
H285 H 0.63053 0.79776 0.25859 0.0
N286 N 0.60133 0.73791 0.25612 0.0
H287 H 0.63005 0.77016 0.25891 0.0
C288 C 0.59945 0.85818 0.27149 0.0
C289 C 0.58169 0.8553 0.27404 0.0
C290 C 0.57812 0.86467 0.29304 0.0
C291 C 0.59209 0.87679 0.31045 0.0
C292 C 0.60933 0.87825 0.30958 0.0
C293 C 0.61299 0.86918 0.29011 0.0
C294 C 0.59947 0.85612 0.2221 0.0
C295 C 0.61046 0.87299 0.21068 0.0
C296 C 0.60471 0.87817 0.18742 0.0
C297 C 0.5878 0.86648 0.17496 0.0
C298 C 0.57711 0.84929 0.18583 0.0
C299 C 0.58284 0.84417 0.20925 0.0
C300 C 0.60334 0.83532 0.25041 0.0
C301 C 0.58833 0.82052 0.26294 0.0
C302 C 0.58752 0.80439 0.26417 0.0
C303 C 0.60152 0.80267 0.25248 0.0
C304 C 0.61624 0.81748 0.23942 0.0
C305 C 0.61715 0.83357 0.23861 0.0
C306 C 0.59368 0.72643 0.27968 0.0
C307 C 0.57507 0.71301 0.28062 0.0
C308 C 0.56918 0.69872 0.29875 0.0
C309 C 0.58175 0.69775 0.31646 0.0
C310 C 0.59983 0.71226 0.31763 0.0
C311 C 0.60574 0.7264 0.29924 0.0
C312 C 0.59976 0.72896 0.23106 0.0
C313 C 0.61291 0.72447 0.22588 0.0
C314 C 0.60949 0.71163 0.20683 0.0
C315 C 0.59278 0.703 0.19249 0.0
C316 C 0.5803 0.70865 0.19592 0.0
C317 C 0.58374 0.7215 0.21504 0.0
C318 C 0.6007 0.75373 0.25515 0.0
C319 C 0.58416 0.75355 0.25323 0.0
C320 C 0.58435 0.76938 0.25238 0.0
C321 C 0.60103 0.78566 0.25391 0.0
C322 C 0.61744 0.78561 0.25657 0.0
C323 C 0.61723 0.76985 0.25696 0.0
H324 H 0.88334 0.58272 0.81166 0.0
N325 N 0.85944 0.56363 0.77328 0.0
H326 H 0.89713 0.57251 0.8455 0.0
H327 H 0.84515 0.52922 0.78887 0.0
H328 H 0.85873 0.5188 0.82281 0.0
H329 H 0.85097 0.53571 0.74074 0.0
H330 H 0.87155 0.53441 0.70821 0.0
H331 H 0.89007 0.59073 0.75296 0.0
H332 H 0.91114 0.58945 0.72092 0.0
H333 H 0.85281 0.5891 0.78071 0.0
H334 H 0.8263 0.53455 0.75921 0.0
H335 H 0.82393 0.58816 0.77432 0.0
H336 H 0.79762 0.53366 0.75121 0.0
H337 H 0.74259 0.58666 0.78036 0.0
H338 H 0.72041 0.58163 0.81618 0.0
H339 H 0.69499 0.52554 0.80667 0.0
H340 H 0.7166 0.53067 0.77054 0.0
H341 H 0.72444 0.53061 0.72387 0.0
H342 H 0.70037 0.52141 0.68909 0.0
H343 H 0.71184 0.57467 0.6829 0.0
H344 H 0.73565 0.5836 0.71776 0.0
H345 H 0.77599 0.58772 0.73501 0.0
H346 H 0.80422 0.58726 0.73991 0.0
H347 H 0.77281 0.53389 0.77165 0.0
N348 N 0.74224 0.56269 0.74845 0.0
H349 H 0.74469 0.53423 0.76516 0.0
C350 C 0.8633 0.55682 0.79771 0.0
C351 C 0.87747 0.56871 0.81477 0.0
C352 C 0.88536 0.56283 0.83404 0.0
C353 C 0.87922 0.54483 0.8366 0.0
C354 C 0.864 0.53277 0.821 0.0
C355 C 0.85607 0.53871 0.80175 0.0
C356 C 0.86895 0.56341 0.74928 0.0
C357 C 0.8637 0.54768 0.73583 0.0
C358 C 0.87566 0.54689 0.71743 0.0
C359 C 0.89314 0.56175 0.71232 0.0
C360 C 0.89775 0.57778 0.72421 0.0
C361 C 0.88573 0.57857 0.74251 0.0
C362 C 0.84186 0.56205 0.77018 0.0
C363 C 0.84075 0.57694 0.77443 0.0
C364 C 0.82424 0.5764 0.77045 0.0
C365 C 0.80838 0.5609 0.76177 0.0
C366 C 0.80945 0.54582 0.75801 0.0
C367 C 0.826 0.54635 0.76233 0.0
C368 C 0.73145 0.55914 0.77288 0.0
C369 C 0.73249 0.5733 0.78655 0.0
C370 C 0.71979 0.57039 0.80697 0.0
C371 C 0.70577 0.55318 0.81404 0.0
C372 C 0.7054 0.53897 0.80135 0.0
C373 C 0.71802 0.54191 0.78089 0.0
C374 C 0.73172 0.55781 0.72352 0.0
C375 C 0.72206 0.54036 0.71453 0.0
C376 C 0.70823 0.53511 0.69477 0.0
C377 C 0.70403 0.54727 0.68348 0.0
C378 C 0.71478 0.56498 0.69099 0.0
C379 C 0.72843 0.57015 0.71086 0.0
C380 C 0.75825 0.56119 0.75002 0.0
C381 C 0.77524 0.57588 0.74275 0.0
C382 C 0.79138 0.57562 0.74588 0.0
C383 C 0.79094 0.56064 0.75671 0.0
C384 C 0.77376 0.54566 0.76316 0.0
C385 C 0.75756 0.54588 0.75967 0.0
H386 H 0.20373 0.71257 0.29715 0.0
N387 N 0.19014 0.73303 0.28004 0.0
H388 H 0.18885 0.68788 0.32966 0.0
H389 H 0.16349 0.72636 0.31465 0.0
H390 H 0.14844 0.70164 0.34723 0.0
H391 H 0.16055 0.72893 0.25494 0.0
H392 H 0.14236 0.70705 0.22053 0.0
H393 H 0.20258 0.71615 0.24854 0.0
H394 H 0.18494 0.69486 0.21363 0.0
H395 H 0.22454 0.73811 0.27222 0.0
H396 H 0.19554 0.76438 0.29023 0.0
H397 H 0.25353 0.76601 0.27311 0.0
H398 H 0.22462 0.79233 0.29308 0.0
H399 H 0.33415 0.83948 0.30677 0.0
H400 H 0.35436 0.84865 0.34639 0.0
H401 H 0.32776 0.87475 0.37803 0.0
H402 H 0.30704 0.86488 0.33855 0.0
H403 H 0.32034 0.88115 0.27728 0.0
H404 H 0.34271 0.89787 0.24112 0.0
H405 H 0.34593 0.85221 0.22354 0.0
H406 H 0.32317 0.8355 0.2593 0.0
H407 H 0.30353 0.81578 0.30584 0.0
H408 H 0.27498 0.78777 0.30168 0.0
H409 H 0.24882 0.81454 0.26791 0.0
N410 N 0.30877 0.84863 0.29467 0.0
H411 H 0.2773 0.84272 0.27391 0.0
C412 C 0.18467 0.72132 0.30347 0.0
C413 C 0.192 0.7106 0.3085 0.0
C414 C 0.18335 0.69636 0.32692 0.0
C415 C 0.16731 0.69266 0.34072 0.0
C416 C 0.16082 0.70418 0.33707 0.0
C417 C 0.16942 0.71834 0.31855 0.0
C418 C 0.18293 0.72429 0.25444 0.0
C419 C 0.16623 0.72199 0.24521 0.0
C420 C 0.15585 0.70944 0.22555 0.0
C421 C 0.16205 0.69896 0.21466 0.0
C422 C 0.1796 0.70246 0.22203 0.0
C423 C 0.18989 0.71492 0.24185 0.0
C424 C 0.20772 0.74917 0.28063 0.0
C425 C 0.22431 0.74985 0.27625 0.0
C426 C 0.24104 0.76591 0.27717 0.0
C427 C 0.24158 0.7816 0.28303 0.0
C428 C 0.22487 0.78072 0.2878 0.0
C429 C 0.2082 0.76472 0.28644 0.0
C430 C 0.31898 0.85146 0.31972 0.0
C431 C 0.33228 0.84675 0.32253 0.0
C432 C 0.34399 0.85217 0.34514 0.0
C433 C 0.34286 0.86264 0.36526 0.0
C434 C 0.32891 0.86656 0.3631 0.0
C435 C 0.3171 0.861 0.34053 0.0
C436 C 0.3201 0.85716 0.27095 0.0
C437 C 0.32566 0.87471 0.26524 0.0
C438 C 0.33858 0.88427 0.2448 0.0
C439 C 0.3463 0.87646 0.22964 0.0
C440 C 0.34019 0.8586 0.23469 0.0
C441 C 0.3272 0.84903 0.25518 0.0
C442 C 0.29252 0.83154 0.29071 0.0
C443 C 0.29171 0.81575 0.29771 0.0
C444 C 0.27528 0.79957 0.295 0.0
C445 C 0.25938 0.79875 0.2847 0.0
C446 C 0.26054 0.81457 0.27664 0.0
C447 C 0.27687 0.83072 0.2798 0.0
H448 H 0.43718 0.14175 0.70331 0.0
N449 N 0.45908 0.16721 0.73694 0.0
H450 H 0.44604 0.13172 0.66346 0.0
H451 H 0.49297 0.18443 0.7129 0.0
H452 H 0.5023 0.17399 0.67394 0.0
H453 H 0.49116 0.17117 0.75657 0.0
H454 H 0.49398 0.15243 0.79056 0.0
H455 H 0.4327 0.14327 0.76939 0.0
H456 H 0.43543 0.12468 0.80444 0.0
H457 H 0.4385 0.17856 0.71529 0.0
H458 H 0.4862 0.19506 0.76593 0.0
H459 H 0.44099 0.20676 0.72183 0.0
H460 H 0.4881 0.22282 0.7742 0.0
H461 H 0.44202 0.28835 0.7395 0.0
H462 H 0.44766 0.30726 0.69916 0.0
H463 H 0.5024 0.31627 0.69295 0.0
H464 H 0.4968 0.2979 0.73361 0.0
H465 H 0.50004 0.3054 0.78161 0.0
H466 H 0.50786 0.32475 0.82071 0.0
H467 H 0.45052 0.29805 0.84299 0.0
H468 H 0.44285 0.27917 0.80325 0.0
H469 H 0.43623 0.24931 0.76047 0.0
H470 H 0.43543 0.22181 0.7546 0.0
H471 H 0.49476 0.25028 0.7572 0.0
N472 N 0.46536 0.28136 0.76433 0.0
H473 H 0.49518 0.27746 0.76512 0.0
C474 C 0.46441 0.16364 0.71116 0.0
C475 C 0.45133 0.14905 0.69652 0.0
C476 C 0.45649 0.14324 0.67399 0.0
C477 C 0.47498 0.15178 0.66581 0.0
C478 C 0.48794 0.16708 0.67958 0.0
C479 C 0.48268 0.17302 0.702 0.0
C480 C 0.46162 0.15853 0.76028 0.0
C481 C 0.47895 0.16127 0.76716 0.0
C482 C 0.48056 0.15056 0.78683 0.0
C483 C 0.46491 0.13691 0.80012 0.0
C484 C 0.44773 0.13486 0.79427 0.0
C485 C 0.44614 0.14556 0.77448 0.0
C486 C 0.4619 0.1845 0.74034 0.0
C487 C 0.44946 0.18827 0.72795 0.0
C488 C 0.45081 0.20436 0.73204 0.0
C489 C 0.46452 0.21706 0.7491 0.0
C490 C 0.47739 0.21347 0.76087 0.0
C491 C 0.47622 0.19743 0.75632 0.0
C492 C 0.46888 0.29164 0.73953 0.0
C493 C 0.45516 0.29434 0.72923 0.0
C494 C 0.4584 0.30506 0.7061 0.0
C495 C 0.4755 0.31331 0.69276 0.0
C496 C 0.48916 0.31032 0.70291 0.0
C497 C 0.48591 0.29966 0.72612 0.0
C498 C 0.47079 0.29092 0.78947 0.0
C499 C 0.4892 0.30354 0.79514 0.0
C500 C 0.49366 0.31457 0.81762 0.0
C501 C 0.47979 0.31314 0.83483 0.0
C502 C 0.46151 0.29979 0.82986 0.0
C503 C 0.4571 0.28886 0.80737 0.0
C504 C 0.46568 0.26541 0.76279 0.0
C505 C 0.44901 0.24951 0.76005 0.0
C506 C 0.44865 0.23384 0.75633 0.0
C507 C 0.46506 0.23375 0.75476 0.0
C508 C 0.48183 0.24974 0.75833 0.0
C509 C 0.48212 0.2654 0.76256 0.0
H510 H 0.04848 0.46692 0.02411 0.0
H511 H 0.07542 0.46832 0.04476 0.0
H512 H 0.09657 0.52217 0.06677 0.0
H513 H 0.06961 0.52088 0.04646 0.0
H514 H 0.11466 0.49125 0.03833 0.0
H515 H 0.08973 0.49592 0.1407 0.0
H516 H 0.07545 0.48976 0.11055 0.0
H517 H 0.09273 0.5124 0.11591 0.0
C518 C 0.05901 0.47918 0.03287 0.0
C519 C 0.05673 0.49371 0.03393 0.0
C520 C 0.07441 0.47995 0.04467 0.0
C521 C 0.0878 0.49523 0.05778 0.0
C522 C 0.08623 0.51014 0.05718 0.0
H523 H 0.17294 0.50921 0.17332 0.0
H524 H 0.15445 0.51497 0.14117 0.0
C525 C 0.07083 0.5094 0.04541 0.0
C526 C 0.10253 0.49503 0.0739 0.0
H527 H 0.11741 0.49628 0.13943 0.0
C528 C 0.11535 0.49244 0.06042 0.0
C529 C 0.10337 0.49656 0.10273 0.0
C530 C 0.08953 0.49867 0.11845 0.0
C531 C 0.12904 0.49138 0.07503 0.0
C532 C 0.12966 0.49257 0.10393 0.0
C533 C 0.11701 0.49545 0.11729 0.0
C534 C 0.14261 0.48996 0.121 0.0
C535 C 0.14279 0.48913 0.05935 0.0
C536 C 0.14229 0.47406 0.1202 0.0
C537 C 0.15297 0.47079 0.13839 0.0
C538 C 0.16407 0.48327 0.15803 0.0
C539 C 0.16476 0.49939 0.15827 0.0
C540 C 0.15409 0.50267 0.14001 0.0
H541 H 0.14421 0.49408 0.0379 0.0
H542 H 0.15649 0.49613 0.06929 0.0
H543 H 0.13802 0.47494 0.05867 0.0
H544 H 0.13327 0.46388 0.10616 0.0
H545 H 0.15224 0.45831 0.13742 0.0
H546 H 0.60232 0.07135 0.51276 0.0
H547 H 0.6242 0.08652 0.54946 0.0
H548 H 0.58877 0.0454 0.60663 0.0
H549 H 0.56663 0.02993 0.56975 0.0
H550 H 0.61642 0.09837 0.59823 0.0
H551 H 0.64042 0.05189 0.61884 0.0
H552 H 0.62887 0.05163 0.58749 0.0
H553 H 0.616 0.04267 0.61854 0.0
C554 C 0.59917 0.0654 0.53306 0.0
C555 C 0.5827 0.04941 0.53833 0.0
C556 C 0.61171 0.07412 0.55402 0.0
C557 C 0.60815 0.06703 0.58067 0.0
C558 C 0.59186 0.05096 0.58608 0.0
H559 H 0.66665 0.12757 0.7244 0.0
H560 H 0.64297 0.10879 0.69159 0.0
C561 C 0.57922 0.04218 0.56503 0.0
C562 C 0.62127 0.07704 0.6028 0.0
H563 H 0.65265 0.07695 0.64661 0.0
C564 C 0.62427 0.09366 0.60894 0.0
C565 C 0.63159 0.07089 0.61647 0.0
C566 C 0.62923 0.05335 0.60998 0.0
C567 C 0.63743 0.10438 0.6283 0.0
C568 C 0.64771 0.09822 0.64209 0.0
C569 C 0.64467 0.08157 0.63605 0.0
C570 C 0.662 0.10914 0.66233 0.0
C571 C 0.64059 0.12242 0.63333 0.0
C572 C 0.6805 0.11529 0.65694 0.0
C573 C 0.69411 0.12613 0.67557 0.0
C574 C 0.68941 0.13094 0.70001 0.0
C575 C 0.67078 0.12446 0.70551 0.0
C576 C 0.65722 0.11365 0.68686 0.0
H577 H 0.63443 0.1266 0.61701 0.0
H578 H 0.63423 0.12223 0.65312 0.0
H579 H 0.65549 0.13235 0.63459 0.0
H580 H 0.68444 0.11194 0.63808 0.0
H581 H 0.70831 0.13098 0.67063 0.0
H582 H 0.57497 0.55677 0.12194 0.0
H583 H 0.58268 0.58557 0.13864 0.0
H584 H 0.53818 0.58254 0.0915 0.0
H585 H 0.53032 0.55378 0.07488 0.0
H586 H 0.57109 0.61484 0.08557 0.0
H587 H 0.5542 0.59561 0.19508 0.0
H588 H 0.57005 0.5904 0.18075 0.0
H589 H 0.54687 0.57967 0.16827 0.0
C590 C 0.56668 0.56212 0.11539 0.0
C591 C 0.55202 0.55293 0.09704 0.0
C592 C 0.57112 0.5786 0.12493 0.0
C593 C 0.5609 0.58612 0.11649 0.0
C594 C 0.54627 0.57699 0.09822 0.0
H595 H 0.55946 0.67234 0.19182 0.0
H596 H 0.55169 0.64462 0.17106 0.0
C597 C 0.54184 0.56056 0.08866 0.0
C598 C 0.56553 0.60361 0.12635 0.0
H599 H 0.56847 0.62596 0.18398 0.0
C600 C 0.57051 0.61729 0.10709 0.0
C601 C 0.56456 0.6067 0.15437 0.0
C602 C 0.55847 0.5923 0.17584 0.0
C603 C 0.57471 0.63404 0.11515 0.0
C604 C 0.57413 0.63723 0.14324 0.0
C605 C 0.56901 0.62351 0.16246 0.0
C606 C 0.5785 0.65461 0.15328 0.0
C607 C 0.57937 0.64807 0.0935 0.0
C608 C 0.5961 0.66955 0.1498 0.0
C609 C 0.60056 0.68554 0.16142 0.0
C610 C 0.58752 0.68685 0.17687 0.0
C611 C 0.56975 0.67195 0.17963 0.0
C612 C 0.56532 0.65601 0.16801 0.0
H613 H 0.57474 0.64237 0.07286 0.0
H614 H 0.57303 0.65588 0.09827 0.0
H615 H 0.59447 0.65716 0.09279 0.0
H616 H 0.60658 0.66871 0.13884 0.0
H617 H 0.61434 0.69676 0.15881 0.0
H618 H 0.02599 0.54098 0.65509 0.0
H619 H 1.00289 0.54706 0.67171 0.0
H620 H 0.99008 0.55393 0.58853 0.0
H621 H 0.01315 0.54797 0.57181 0.0
H622 H 0.99787 0.57615 0.66311 0.0
H623 H 0.94076 0.51417 0.62015 0.0
H624 H 0.96376 0.51838 0.62372 0.0
H625 H 0.9582 0.52833 0.59595 0.0
C626 C 0.01847 0.54406 0.64037 0.0
C627 C 0.02122 0.54375 0.61212 0.0
C628 C 0.00523 0.54746 0.64988 0.0
C629 C 0.99456 0.5506 0.6313 0.0
C630 C 0.9979 0.55115 0.60317 0.0
H631 H 0.91872 0.58489 0.67505 0.0
H632 H 0.94353 0.58293 0.65396 0.0
C633 C 0.01106 0.54772 0.59366 0.0
C634 C 0.97945 0.55262 0.64127 0.0
H635 H 0.93286 0.53328 0.64009 0.0
C636 C 0.98365 0.56683 0.65805 0.0
C637 C 0.96092 0.5403 0.63482 0.0
C638 C 0.95554 0.52434 0.61787 0.0
C639 C 0.96977 0.56909 0.66855 0.0
C640 C 0.95126 0.55691 0.66175 0.0
C641 C 0.94708 0.5427 0.64498 0.0
C642 C 0.9359 0.55797 0.67332 0.0
C643 C 0.97497 0.58417 0.68745 0.0
C644 C 0.9231 0.54434 0.69045 0.0
C645 C 0.90894 0.54539 0.7024 0.0
C646 C 0.90721 0.56006 0.69736 0.0
C647 C 0.91979 0.57351 0.67957 0.0
C648 C 0.93399 0.57244 0.66758 0.0
H649 H 0.98923 0.59006 0.69517 0.0
H650 H 0.97395 0.59457 0.67619 0.0
H651 H 0.96549 0.57977 0.70522 0.0
H652 H 0.92434 0.53306 0.69513 0.0
H653 H 0.89974 0.53495 0.71638 0.0
H654 H 0.48448 0.98281 0.07037 0.0
H655 H 0.46321 0.96924 0.10926 0.0
H656 H 0.43095 0.92194 0.06316 0.0
H657 H 0.45188 0.93518 0.02465 0.0
H658 H 0.42361 0.95433 0.10984 0.0
H659 H 0.44224 0.90472 0.13582 0.0
H660 H 0.45674 0.92414 0.1152 0.0
H661 H 0.4372 0.90538 0.10019 0.0
C662 C 0.47286 0.96952 0.0686 0.0
C663 C 0.46995 0.96007 0.04445 0.0
C664 C 0.46074 0.9618 0.09079 0.0
C665 C 0.4457 0.94448 0.0892 0.0
C666 C 0.44267 0.93519 0.065 0.0
H667 H 0.3512 0.86678 0.17894 0.0
H668 H 0.37601 0.88433 0.14628 0.0
C669 C 0.45464 0.94285 0.04293 0.0
C670 C 0.43278 0.93597 0.1124 0.0
H671 H 0.41408 0.89963 0.15443 0.0
C672 C 0.42167 0.94252 0.11994 0.0
C673 C 0.43029 0.92054 0.12542 0.0
C674 C 0.44236 0.91335 0.11897 0.0
C675 C 0.40756 0.93358 0.13932 0.0
C676 C 0.40471 0.91784 0.15172 0.0
C677 C 0.41619 0.91161 0.14474 0.0
C678 C 0.38963 0.9074 0.17153 0.0
C679 C 0.39533 0.94064 0.14554 0.0
C680 C 0.38918 0.91447 0.19667 0.0
C681 C 0.37508 0.90446 0.21541 0.0
C682 C 0.36115 0.88711 0.20943 0.0
C683 C 0.36175 0.88002 0.18428 0.0
C684 C 0.37587 0.89006 0.16556 0.0
H685 H 0.39665 0.95046 0.12988 0.0
H686 H 0.38074 0.92983 0.14669 0.0
H687 H 0.39923 0.94717 0.16567 0.0
H688 H 0.39989 0.92767 0.20198 0.0
H689 H 0.37528 0.91021 0.23482 0.0
H690 H 0.48466 0.42904 0.52159 0.0
H691 H 0.47717 0.40501 0.55419 0.0
H692 H 0.52235 0.40148 0.52381 0.0
H693 H 0.52991 0.42549 0.49111 0.0
H694 H 0.49056 0.36856 0.53396 0.0
H695 H 0.50862 0.41277 0.62246 0.0
H696 H 0.49154 0.41237 0.60023 0.0
H697 H 0.51444 0.42094 0.58768 0.0
C698 C 0.49297 0.42311 0.5218 0.0
C699 C 0.50801 0.42931 0.50398 0.0
C700 C 0.48868 0.4094 0.54043 0.0
C701 C 0.49944 0.40173 0.54178 0.0
C702 C 0.51392 0.40729 0.52316 0.0
H703 H 0.50709 0.34463 0.68153 0.0
H704 H 0.51302 0.36511 0.64348 0.0
C705 C 0.51818 0.42097 0.50441 0.0
C706 C 0.49607 0.38842 0.56332 0.0
H707 H 0.4952 0.38241 0.63263 0.0
C708 C 0.49158 0.37155 0.55555 0.0
C709 C 0.49772 0.39248 0.59144 0.0
C710 C 0.50351 0.41066 0.60104 0.0
C711 C 0.48844 0.35853 0.57521 0.0
C712 C 0.48953 0.36245 0.60334 0.0
C713 C 0.49423 0.37939 0.61106 0.0
C714 C 0.48615 0.34933 0.62526 0.0
C715 C 0.48433 0.34084 0.56568 0.0
C716 C 0.46907 0.33363 0.62764 0.0
C717 C 0.46569 0.32177 0.64924 0.0
C718 C 0.47929 0.32546 0.66902 0.0
C719 C 0.49641 0.3412 0.66644 0.0
C720 C 0.49979 0.353 0.64481 0.0
H721 H 0.48887 0.3415 0.54422 0.0
H722 H 0.49113 0.33565 0.57901 0.0
H723 H 0.46931 0.33139 0.56656 0.0
H724 H 0.45822 0.33068 0.6131 0.0
H725 H 0.45241 0.30972 0.65046 0.0
H726 H 0.55176 0.99081 0.38021 0.0
H727 H 0.55657 0.96809 0.36216 0.0
H728 H 0.58188 0.96679 0.43841 0.0
H729 H 0.57622 0.98892 0.45685 0.0
H730 H 0.58553 0.96751 0.35162 0.0
H731 H 0.54709 0.9157 0.4302 0.0
H732 H 0.5463 0.93552 0.42813 0.0
H733 H 0.5651 0.93547 0.44516 0.0
C734 C 0.55835 0.98565 0.39305 0.0
C735 C 0.56357 0.99154 0.41993 0.0
C736 C 0.56105 0.97263 0.38279 0.0
C737 C 0.56925 0.96539 0.39908 0.0
C738 C 0.57495 0.97166 0.42572 0.0
H739 H 0.61734 0.91102 0.32385 0.0
H740 H 0.6121 0.93172 0.34745 0.0
C741 C 0.57188 0.98441 0.43618 0.0
C742 C 0.57237 0.95176 0.38773 0.0
H743 H 0.5662 0.91115 0.40045 0.0
C744 C 0.58118 0.95514 0.36227 0.0
C745 C 0.56644 0.93545 0.4013 0.0
C746 C 0.55553 0.93023 0.42755 0.0
C747 C 0.58435 0.94283 0.35012 0.0
C748 C 0.57935 0.92693 0.36439 0.0
C749 C 0.57034 0.92343 0.3897 0.0
C750 C 0.58295 0.91363 0.35303 0.0
C751 C 0.59253 0.94684 0.32172 0.0
C752 C 0.56861 0.89611 0.35009 0.0
C753 C 0.57171 0.8839 0.33755 0.0
C754 C 0.5892 0.88898 0.32732 0.0
C755 C 0.60369 0.90639 0.33153 0.0
C756 C 0.60065 0.91845 0.34459 0.0
H757 H 0.58994 0.95631 0.31051 0.0
H758 H 0.60761 0.95291 0.3233 0.0
H759 H 0.58685 0.93473 0.30947 0.0
H760 H 0.55486 0.89196 0.35683 0.0
H761 H 0.56027 0.87055 0.33547 0.0
H762 H 0.59532 0.51835 0.01217 0.0
H763 H 0.61971 0.52726 0.97879 0.0
H764 H 0.58551 0.52994 0.91569 0.0
H765 H 0.56085 0.5211 0.94926 0.0
H766 H 0.61631 0.50815 0.9319 0.0
H767 H 0.63547 0.57678 0.90616 0.0
H768 H 0.62263 0.56525 0.93658 0.0
H769 H 0.61147 0.56031 0.90384 0.0
C770 C 0.59297 0.52098 0.99127 0.0
C771 C 0.57609 0.51895 0.98334 0.0
C772 C 0.60696 0.52609 0.97222 0.0
C773 C 0.60446 0.52935 0.94484 0.0
C774 C 0.5878 0.52773 0.93684 0.0
H775 H 0.66909 0.52934 0.80906 0.0
H776 H 0.64449 0.52387 0.84036 0.0
C777 C 0.57371 0.52261 0.956 0.0
C778 C 0.61896 0.53329 0.92462 0.0
H779 H 0.65023 0.56511 0.88113 0.0
C780 C 0.62371 0.52059 0.92075 0.0
C781 C 0.62866 0.54959 0.91035 0.0
C782 C 0.62447 0.56387 0.91449 0.0
C783 C 0.63791 0.52373 0.90295 0.0
C784 C 0.64746 0.53992 0.88839 0.0
C785 C 0.64279 0.55268 0.89229 0.0
C786 C 0.66237 0.54375 0.86907 0.0
C787 C 0.64282 0.50982 0.90024 0.0
C788 C 0.68053 0.55697 0.87465 0.0
C789 C 0.6947 0.56006 0.85689 0.0
C790 C 0.69089 0.55 0.83319 0.0
C791 C 0.67258 0.53701 0.82747 0.0
C792 C 0.65847 0.53393 0.84523 0.0
H793 H 0.63701 0.49991 0.9172 0.0
H794 H 0.63725 0.50288 0.88067 0.0
H795 H 0.65794 0.51585 0.89994 0.0
H796 H 0.68377 0.56468 0.893 0.0
H797 H 0.70865 0.57011 0.86193 0.0
H798 H 0.05391 0.54259 0.46555 0.0
H799 H 0.06913 0.5659 0.43021 0.0
H800 H 0.11389 0.59631 0.48569 0.0
H801 H 0.09912 0.57337 0.52057 0.0
H802 H 0.08056 0.60219 0.43231 0.0
H803 H 0.13973 0.59391 0.41719 0.0
H804 H 0.11888 0.5774 0.43402 0.0
H805 H 0.13606 0.5961 0.45261 0.0
C806 C 0.06701 0.55424 0.47011 0.0
C807 C 0.07536 0.55604 0.49579 0.0
C808 C 0.07567 0.56752 0.44995 0.0
C809 C 0.09281 0.58265 0.45519 0.0
C810 C 0.10089 0.58456 0.48098 0.0
H811 H 0.15076 0.68808 0.39054 0.0
H812 H 0.13151 0.66043 0.41579 0.0
C813 C 0.09233 0.57141 0.50097 0.0
C814 C 0.10239 0.59683 0.43428 0.0
H815 H 0.14387 0.62168 0.40262 0.0
C816 C 0.09428 0.60631 0.42543 0.0
C817 C 0.12019 0.60203 0.42503 0.0
C818 C 0.12915 0.59171 0.43247 0.0
C819 C 0.10392 0.62143 0.40868 0.0
C820 C 0.12224 0.62737 0.40112 0.0
C821 C 0.12994 0.61732 0.40879 0.0
C822 C 0.13384 0.64415 0.38577 0.0
C823 C 0.0944 0.63093 0.39938 0.0
C824 C 0.14213 0.64429 0.36104 0.0
C825 C 0.15332 0.66009 0.34677 0.0
C826 C 0.15648 0.6761 0.35699 0.0
C827 C 0.14841 0.67595 0.382 0.0
C828 C 0.1373 0.66014 0.39634 0.0
H829 H 0.07925 0.622 0.39945 0.0
H830 H 0.09786 0.64177 0.41363 0.0
H831 H 0.09883 0.63665 0.37846 0.0
H832 H 0.13976 0.63213 0.3526 0.0
H833 H 0.15912 0.65972 0.32737 0.0
H834 H 0.46026 1.00147 0.90348 0.0
H835 H 0.45632 0.02453 0.88303 0.0
H836 H 0.50984 0.06395 0.91216 0.0
H837 H 0.51427 0.04101 0.93158 0.0
H838 H 0.45616 0.05185 0.90794 0.0
H839 H 0.51263 0.07755 0.83195 0.0
H840 H 0.50424 0.0569 0.85008 0.0
H841 H 0.51984 0.07729 0.8665 0.0
C842 C 0.47134 0.015 0.90519 0.0
C843 C 0.48763 0.0193 0.91914 0.0
C844 C 0.46899 0.02819 0.89367 0.0
C845 C 0.48288 0.04594 0.89576 0.0
C846 C 0.49907 0.05032 0.90984 0.0
H847 H 0.49194 0.14327 0.83741 0.0
H848 H 0.49594 0.12153 0.86287 0.0
C849 C 0.50148 0.03715 0.92125 0.0
C850 C 0.48026 0.05988 0.88364 0.0
H851 H 0.49821 0.09397 0.83722 0.0
C852 C 0.46532 0.06104 0.89243 0.0
C853 C 0.49226 0.07187 0.86344 0.0
C854 C 0.50804 0.07079 0.85222 0.0
C855 C 0.46214 0.07395 0.88168 0.0
C856 C 0.47411 0.08589 0.86148 0.0
C857 C 0.48914 0.08485 0.85287 0.0
C858 C 0.47088 0.09907 0.84802 0.0
C859 C 0.4461 0.07485 0.89219 0.0
C860 C 0.45542 0.09361 0.83137 0.0
C861 C 0.45317 0.10595 0.81661 0.0
C862 C 0.46638 0.12403 0.81816 0.0
C863 C 0.48162 0.12946 0.83549 0.0
C864 C 0.48389 0.11708 0.85015 0.0
H865 H 0.44104 0.06778 0.91215 0.0
H866 H 0.4499 0.08872 0.89461 0.0
H867 H 0.43468 0.06864 0.87723 0.0
H868 H 0.44541 0.07975 0.82903 0.0
H869 H 0.44147 0.10124 0.80308 0.0
H870 H 0.46724 0.47532 0.46942 0.0
H871 H 0.4407 0.47419 0.44817 0.0
H872 H 0.46244 0.52847 0.46818 0.0
H873 H 0.48938 0.52987 0.48902 0.0
H874 H 0.41378 0.48024 0.46519 0.0
H875 H 0.45785 0.52921 0.3852 0.0
H876 H 0.46636 0.51913 0.40849 0.0
H877 H 0.46337 0.53653 0.41987 0.0
C878 C 0.46631 0.48699 0.46969 0.0
C879 C 0.4806 0.50277 0.48063 0.0
C880 C 0.45109 0.48631 0.45751 0.0
C881 C 0.44977 0.50136 0.456 0.0
C882 C 0.46338 0.51681 0.46852 0.0
H883 H 0.3703 0.51272 0.35474 0.0
H884 H 0.39352 0.51832 0.38961 0.0
C885 C 0.4787 0.51754 0.48066 0.0
C886 C 0.43469 0.50093 0.43988 0.0
H887 H 0.42606 0.51713 0.38138 0.0
C888 C 0.41646 0.48844 0.44702 0.0
C889 C 0.43819 0.51162 0.41613 0.0
C890 C 0.45748 0.52479 0.40674 0.0
C891 C 0.4017 0.48608 0.43076 0.0
C892 C 0.40526 0.49635 0.40657 0.0
C893 C 0.42339 0.50932 0.39999 0.0
C894 C 0.39055 0.49278 0.38657 0.0
C895 C 0.38242 0.47244 0.4394 0.0
C896 C 0.38135 0.47666 0.37311 0.0
C897 C 0.36829 0.47349 0.35299 0.0
C898 C 0.36406 0.48638 0.34584 0.0
C899 C 0.37327 0.50253 0.35952 0.0
C900 C 0.38646 0.50573 0.37958 0.0
H901 H 0.38162 0.46939 0.46168 0.0
H902 H 0.37274 0.47691 0.43443 0.0
H903 H 0.37791 0.46012 0.42824 0.0
H904 H 0.38463 0.46665 0.37767 0.0
H905 H 0.3619 0.46108 0.34249 0.0
H906 H 0.9502 0.44884 0.99143 0.0
H907 H 0.932 0.4249 0.95987 0.0
H908 H 0.94948 0.39299 0.00166 0.0
H909 H 0.96769 0.4169 0.03334 0.0
H910 H 0.94649 0.41129 0.92522 0.0
H911 H 0.89443 0.35863 0.99344 0.0
H912 H 0.90797 0.38131 0.00358 0.0
H913 H 0.91772 0.36765 0.00455 0.0
C914 C 0.95003 0.43667 0.99406 0.0
C915 C 0.96044 0.4348 0.01483 0.0
C916 C 0.93957 0.42298 0.97608 0.0
C917 C 0.93925 0.4071 0.97854 0.0
C918 C 0.9492 0.40498 0.99974 0.0
H919 H 0.89735 0.31675 0.87222 0.0
H920 H 0.91203 0.33793 0.90915 0.0
C921 C 0.95962 0.41867 0.01783 0.0
C922 C 0.92976 0.39344 0.95752 0.0
H923 H 0.8961 0.35057 0.94793 0.0
C924 C 0.9354 0.39804 0.93018 0.0
C925 C 0.91541 0.37613 0.96408 0.0
C926 C 0.90838 0.37062 0.99296 0.0
C927 C 0.92718 0.3858 0.90922 0.0
C928 C 0.91273 0.36854 0.91571 0.0
C929 C 0.90717 0.36384 0.94307 0.0
C930 C 0.90314 0.35532 0.89419 0.0
C931 C 0.93421 0.39134 0.88031 0.0
C932 C 0.89304 0.35796 0.8739 0.0
C933 C 0.88473 0.34597 0.85277 0.0
C934 C 0.88631 0.33105 0.85159 0.0
C935 C 0.89609 0.32823 0.87236 0.0
C936 C 0.90437 0.34023 0.89355 0.0
H937 H 0.94805 0.40348 0.87978 0.0
H938 H 0.93487 0.38074 0.86983 0.0
H939 H 0.9247 0.39404 0.86862 0.0
H940 H 0.89176 0.36943 0.87423 0.0
H941 H 0.87746 0.34863 0.83698 0.0
H942 H 0.98806 0.49551 0.93167 0.0
H943 H 0.96772 0.5021 0.90522 0.0
H944 H 0.9713 0.53682 0.96843 0.0
H945 H 0.99168 0.53048 0.9948 0.0
H946 H 0.93341 0.49569 0.9234 0.0
H947 H 0.98065 0.56639 0.89839 0.0
H948 H 0.98873 0.55213 0.90951 0.0
H949 H 0.98023 0.56094 0.93407 0.0
C950 C 0.9848 0.5048 0.9397 0.0
C951 C 0.99154 0.51249 0.96534 0.0
C952 C 0.97311 0.50848 0.92462 0.0
C953 C 0.96813 0.52007 0.93474 0.0
C954 C 0.9752 0.52808 0.95999 0.0
H955 H 0.89498 0.55624 0.88716 0.0
H956 H 0.91574 0.54923 0.91129 0.0
C957 C 0.9868 0.52437 0.9751 0.0
C958 C 0.95468 0.523 0.91987 0.0
H959 H 0.94881 0.55502 0.89118 0.0
C960 C 0.9368 0.50863 0.91612 0.0
C961 C 0.95911 0.53991 0.91056 0.0
C962 C 0.97826 0.55571 0.91308 0.0
C963 C 0.92309 0.51078 0.90391 0.0
C964 C 0.92749 0.52772 0.8948 0.0
C965 C 0.94543 0.54206 0.89834 0.0
C966 C 0.91381 0.53088 0.88117 0.0
C967 C 0.90392 0.49498 0.90158 0.0
C968 C 0.90572 0.52279 0.85633 0.0
C969 C 0.89386 0.52676 0.8425 0.0
C970 C 0.88995 0.53902 0.85313 0.0
C971 C 0.89778 0.54683 0.87833 0.0
C972 C 0.90963 0.54282 0.89216 0.0
H973 H 0.90165 0.48421 0.91596 0.0
H974 H 0.8935 0.49854 0.90571 0.0
H975 H 0.90174 0.48989 0.88047 0.0
H976 H 0.90905 0.51384 0.84714 0.0
H977 H 0.88842 0.5208 0.82287 0.0
H978 H 0.47988 0.97473 0.51388 0.0
H979 H 0.44912 0.94796 0.51122 0.0
H980 H 0.46281 0.9368 0.43253 0.0
H981 H 0.49311 0.9633 0.43491 0.0
H982 H 0.42446 0.94328 0.46699 0.0
H983 H 0.43712 0.88851 0.47244 0.0
H984 H 0.453 0.90998 0.48609 0.0
H985 H 0.45307 0.90599 0.45012 0.0
C986 C 0.4764 0.96628 0.49639 0.0
C987 C 0.48879 0.97107 0.47454 0.0
C988 C 0.45887 0.95106 0.49488 0.0
C989 C 0.4538 0.94029 0.47185 0.0
C990 C 0.46654 0.94471 0.45073 0.0
H991 H 0.37963 0.87674 0.35908 0.0
H992 H 0.40383 0.89275 0.39242 0.0
C993 C 0.48381 0.95995 0.45201 0.0
C994 C 0.43467 0.92572 0.46754 0.0
H995 H 0.41084 0.88352 0.44514 0.0
C996 C 0.42119 0.93 0.4631 0.0
C997 C 0.4305 0.90845 0.46254 0.0
C998 C 0.44416 0.9029 0.46832 0.0
C999 C 0.40428 0.918 0.45105 0.0
C1000 C 0.40076 0.90121 0.44376 0.0
C1001 C 0.41361 0.89642 0.45057 0.0
C1002 C 0.38549 0.88975 0.42514 0.0
C1003 C 0.39103 0.92389 0.444 0.0
C1004 C 0.36705 0.88239 0.43264 0.0
C1005 C 0.35305 0.87309 0.41351 0.0
C1006 C 0.3573 0.87093 0.38665 0.0
C1007 C 0.37578 0.87784 0.37966 0.0
C1008 C 0.38968 0.88709 0.39869 0.0
H1009 H 0.39685 0.93805 0.44811 0.0
H1010 H 0.38711 0.92155 0.42206 0.0
H1011 H 0.37837 0.91615 0.45638 0.0
H1012 H 0.36351 0.88409 0.45309 0.0
H1013 H 0.33894 0.86776 0.41964 0.0
H1014 H 0.51009 0.44736 0.96435 0.0
H1015 H 0.50541 0.42306 0.9363 0.0
H1016 H 0.51028 0.3967 0.00792 0.0
H1017 H 0.51517 0.42114 0.03627 0.0
H1018 H 0.52836 0.40962 0.92873 0.0
H1019 H 0.46114 0.35941 0.97386 0.0
H1020 H 0.47126 0.38268 0.97909 0.0
H1021 H 0.47964 0.37071 0.99781 0.0
C1022 C 0.51037 0.43653 0.97422 0.0
C1023 C 0.51303 0.43628 0.00267 0.0
C1024 C 0.5076 0.42258 0.95811 0.0
C1025 C 0.50731 0.40799 0.97004 0.0
C1026 C 0.51013 0.4077 0.99835 0.0
H1027 H 0.50921 0.32772 0.87022 0.0
H1028 H 0.51674 0.35023 0.90453 0.0
C1029 C 0.51291 0.42168 0.01454 0.0
C1030 C 0.50404 0.39316 0.9526 0.0
H1031 H 0.47326 0.34988 0.93985 0.0
C1032 C 0.51639 0.39651 0.93126 0.0
C1033 C 0.48831 0.37614 0.95581 0.0
C1034 C 0.47421 0.37196 0.97771 0.0
C1035 C 0.51334 0.38335 0.91282 0.0
C1036 C 0.49762 0.36632 0.91605 0.0
C1037 C 0.48538 0.36291 0.93759 0.0
C1038 C 0.49294 0.35222 0.89613 0.0
C1039 C 0.52658 0.38796 0.88944 0.0
C1040 C 0.47688 0.34559 0.88049 0.0
C1041 C 0.47256 0.33279 0.86093 0.0
C1042 C 0.48415 0.3262 0.85666 0.0
C1043 C 0.50011 0.33265 0.87273 0.0
C1044 C 0.50443 0.34551 0.89234 0.0
H1045 H 0.5358 0.4024 0.88664 0.0
H1046 H 0.53522 0.38223 0.89367 0.0
H1047 H 0.51908 0.38241 0.87 0.0
H1048 H 0.46785 0.35062 0.88303 0.0
H1049 H 0.46034 0.32838 0.84866 0.0
H1050 H 0.07442 0.48901 0.48284 0.0
H1051 H 0.09372 0.48528 0.45075 0.0
H1052 H 0.13432 0.49835 0.51382 0.0
H1053 H 0.11504 0.50234 0.54624 0.0
H1054 H 0.13 0.51166 0.4355 0.0
H1055 H 0.12617 0.45204 0.48097 0.0
H1056 H 0.10989 0.4584 0.48931 0.0
H1057 H 0.13257 0.47004 0.50357 0.0
C1058 C 0.08747 0.49119 0.48997 0.0
C1059 C 0.09325 0.49615 0.5171 0.0
C1060 C 0.09844 0.48894 0.4716 0.0
C1061 C 0.1154 0.49148 0.47992 0.0
C1062 C 0.12115 0.49611 0.5071 0.0
H1063 H 0.19577 0.50298 0.35759 0.0
H1064 H 0.18187 0.50757 0.39768 0.0
C1065 C 0.11013 0.49837 0.52559 0.0
C1066 C 0.12717 0.48989 0.45957 0.0
H1067 H 0.14414 0.46429 0.44114 0.0
C1068 C 0.13325 0.50142 0.43682 0.0
C1069 C 0.13123 0.47641 0.46132 0.0
C1070 C 0.12456 0.46339 0.48497 0.0
C1071 C 0.143 0.49964 0.41547 0.0
C1072 C 0.14699 0.4861 0.41712 0.0
C1073 C 0.14117 0.47473 0.44007 0.0
C1074 C 0.15608 0.48286 0.39428 0.0
C1075 C 0.1483 0.51182 0.39082 0.0
C1076 C 0.14638 0.46723 0.37959 0.0
C1077 C 0.15425 0.46458 0.35668 0.0
C1078 C 0.17203 0.47749 0.34806 0.0
C1079 C 0.18193 0.49291 0.36339 0.0
C1080 C 0.17404 0.49554 0.38633 0.0
H1081 H 0.14101 0.51913 0.3903 0.0
H1082 H 0.16326 0.52156 0.39145 0.0
H1083 H 0.14528 0.50437 0.37158 0.0
H1084 H 0.13248 0.45729 0.38537 0.0
H1085 H 0.14615 0.45265 0.3452 0.0
H1086 H 0.57837 0.01924 0.94902 0.0
H1087 H 0.60592 0.04712 0.93704 0.0
H1088 H 0.58436 0.07511 0.97758 0.0
H1089 H 0.5566 0.04695 0.99015 0.0
H1090 H 0.60336 0.07169 0.90376 0.0
H1091 H 0.63925 0.10089 0.00179 0.0
H1092 H 0.62256 0.07769 0.99867 0.0
H1093 H 0.61513 0.09314 0.99988 0.0
C1094 C 0.5796 0.03129 0.95588 0.0
C1095 C 0.56528 0.03093 0.97037 0.0
C1096 C 0.59538 0.04722 0.94903 0.0
C1097 C 0.5972 0.06319 0.95638 0.0
C1098 C 0.58333 0.06293 0.97201 0.0
H1099 H 0.67543 0.15366 0.856 0.0
H1100 H 0.64849 0.13502 0.88434 0.0
C1101 C 0.56749 0.04686 0.97914 0.0
C1102 C 0.61274 0.0798 0.9449 0.0
H1103 H 0.65314 0.11708 0.96118 0.0
C1104 C 0.61416 0.08173 0.91631 0.0
C1105 C 0.62679 0.09279 0.96136 0.0
C1106 C 0.62605 0.0911 0.99215 0.0
C1107 C 0.62955 0.0959 0.90362 0.0
C1108 C 0.64378 0.10886 0.92001 0.0
C1109 C 0.64214 0.10723 0.94868 0.0
C1110 C 0.6611 0.12311 0.90749 0.0
C1111 C 0.63085 0.0963 0.87277 0.0
C1112 C 0.67755 0.12357 0.9125 0.0
C1113 C 0.69313 0.13451 0.89673 0.0
C1114 C 0.69253 0.14511 0.87547 0.0
C1115 C 0.67647 0.14572 0.87214 0.0
C1116 C 0.66095 0.13491 0.88815 0.0
H1117 H 0.62074 0.08343 0.86377 0.0
H1118 H 0.62804 0.1063 0.86425 0.0
H1119 H 0.6448 0.09987 0.86616 0.0
H1120 H 0.67804 0.11471 0.92752 0.0
H1121 H 0.7054 0.13403 0.90035 0.0
H1122 H 0.57573 0.55929 0.39786 0.0
H1123 H 0.57909 0.58664 0.38033 0.0
H1124 H 0.52131 0.56549 0.3924 0.0
H1125 H 0.51764 0.53783 0.40942 0.0
H1126 H 0.5591 0.59183 0.33507 0.0
H1127 H 0.54853 0.61251 0.43664 0.0
H1128 H 0.55461 0.59602 0.43325 0.0
H1129 H 0.5317 0.59072 0.4257 0.0
C1130 C 0.56363 0.56024 0.3964 0.0
C1131 C 0.54642 0.54631 0.40532 0.0
C1132 C 0.56563 0.57597 0.38653 0.0
C1133 C 0.55051 0.57814 0.38553 0.0
C1134 C 0.5332 0.56415 0.39352 0.0
H1135 H 0.549 0.67337 0.34109 0.0
H1136 H 0.54 0.64379 0.35784 0.0
C1137 C 0.53116 0.54836 0.40328 0.0
C1138 C 0.55303 0.59518 0.37632 0.0
H1139 H 0.55445 0.63184 0.3992 0.0
C1140 C 0.55799 0.60055 0.34902 0.0
C1141 C 0.55141 0.60641 0.39459 0.0
C1142 C 0.54638 0.60127 0.42425 0.0
C1143 C 0.56163 0.61702 0.3395 0.0
C1144 C 0.56072 0.62857 0.35801 0.0
C1145 C 0.55521 0.62298 0.38514 0.0
C1146 C 0.56635 0.64679 0.34977 0.0
C1147 C 0.56637 0.62188 0.30968 0.0
C1148 C 0.5843 0.65843 0.34064 0.0
C1149 C 0.58943 0.6752 0.33092 0.0
C1150 C 0.57678 0.68082 0.33042 0.0
C1151 C 0.55902 0.6694 0.34087 0.0
C1152 C 0.55387 0.65253 0.35053 0.0
H1153 H 0.56114 0.61002 0.29692 0.0
H1154 H 0.56066 0.62982 0.30171 0.0
H1155 H 0.58151 0.62981 0.30739 0.0
H1156 H 0.59426 0.65438 0.34043 0.0
H1157 H 0.60313 0.68344 0.32269 0.0
H1158 H 0.51857 0.08145 0.47092 0.0
H1159 H 0.51228 0.10103 0.49663 0.0
H1160 H 0.51605 0.07742 0.57233 0.0
H1161 H 0.52195 0.05763 0.54703 0.0
H1162 H 0.48276 0.09084 0.53345 0.0
H1163 H 0.55006 0.13067 0.58485 0.0
H1164 H 0.5469 0.11756 0.55523 0.0
H1165 H 0.54032 0.10737 0.58865 0.0
C1166 C 0.51804 0.08036 0.49302 0.0
C1167 C 0.52085 0.06791 0.50679 0.0
C1168 C 0.51455 0.09166 0.50768 0.0
C1169 C 0.514 0.09086 0.53639 0.0
C1170 C 0.51685 0.07854 0.5502 0.0
H1171 H 0.46206 0.11696 0.65764 0.0
H1172 H 0.47173 0.10394 0.62343 0.0
C1173 C 0.52025 0.06721 0.53561 0.0
C1174 C 0.50946 0.1022 0.55202 0.0
H1175 H 0.52505 0.13222 0.60319 0.0
C1176 C 0.49209 0.10007 0.54844 0.0
C1177 C 0.52173 0.11437 0.57135 0.0
C1178 C 0.54087 0.11779 0.57513 0.0
C1179 C 0.48633 0.10916 0.56461 0.0
C1180 C 0.49822 0.12057 0.58499 0.0
C1181 C 0.51592 0.12336 0.58768 0.0
C1182 C 0.49206 0.12876 0.60491 0.0
C1183 C 0.46746 0.10629 0.56009 0.0
C1184 C 0.50047 0.1471 0.60611 0.0
C1185 C 0.49482 0.15466 0.62556 0.0
C1186 C 0.48077 0.14399 0.64433 0.0
C1187 C 0.47255 0.12561 0.6431 0.0
C1188 C 0.47811 0.1181 0.62361 0.0
H1189 H 0.46208 0.10102 0.53943 0.0
H1190 H 0.45789 0.09662 0.57552 0.0
H1191 H 0.4676 0.11872 0.56248 0.0
H1192 H 0.51135 0.15555 0.59192 0.0
H1193 H 0.50139 0.16884 0.62579 0.0
H1194 H 0.48925 0.5177 0.0306 0.0
H1195 H 0.46392 0.5186 0.05165 0.0
H1196 H 0.42848 0.46277 0.04076 0.0
H1197 H 0.45366 0.4617 0.01946 0.0
H1198 H 0.41126 0.48401 0.03249 0.0
H1199 H 0.4497 0.49632 0.13038 0.0
H1200 H 0.46199 0.51128 0.10251 0.0
H1201 H 0.45529 0.4886 0.10033 0.0
C1202 C 0.47597 0.50566 0.03204 0.0
C1203 C 0.47358 0.48956 0.02373 0.0
C1204 C 0.46152 0.50621 0.04417 0.0
C1205 C 0.44447 0.4907 0.04821 0.0
C1206 C 0.44159 0.47487 0.03794 0.0
H1207 H 0.34571 0.45535 0.14177 0.0
H1208 H 0.3683 0.45948 0.10749 0.0
C1209 C 0.45602 0.47429 0.02578 0.0
C1210 C 0.43037 0.4906 0.06574 0.0
H1211 H 0.42152 0.49492 0.13211 0.0
C1212 C 0.41348 0.48649 0.05425 0.0
C1213 C 0.43333 0.49377 0.09412 0.0
C1214 C 0.45098 0.49761 0.10773 0.0
C1215 C 0.39948 0.48559 0.07045 0.0
C1216 C 0.40236 0.48849 0.09894 0.0
C1217 C 0.41935 0.49279 0.11027 0.0
C1218 C 0.38785 0.48652 0.11778 0.0
C1219 C 0.38185 0.48173 0.05686 0.0
C1220 C 0.39137 0.50025 0.13526 0.0
C1221 C 0.37864 0.49781 0.15529 0.0
C1222 C 0.36209 0.48155 0.15832 0.0
C1223 C 0.35838 0.46798 0.14024 0.0
C1224 C 0.37117 0.47041 0.12031 0.0
H1225 H 0.38392 0.48533 0.03472 0.0
H1226 H 0.37164 0.46743 0.05866 0.0
H1227 H 0.37609 0.48893 0.06672 0.0
H1228 H 0.40421 0.51275 0.13386 0.0
H1229 H 0.38212 0.50848 0.16907 0.0
H1230 H 1.00016 0.45331 0.5386 0.0
H1231 H 0.97386 0.42428 0.55164 0.0
H1232 H 0.96058 0.448 0.61645 0.0
H1233 H 0.98714 0.47666 0.60424 0.0
H1234 H 0.96542 0.42293 0.63577 0.0
H1235 H 0.9184 0.39717 0.54673 0.0
H1236 H 0.94175 0.40419 0.5388 0.0
H1237 H 0.93617 0.42006 0.54944 0.0
C1238 C 0.99121 0.45232 0.55501 0.0
C1239 C 0.9956 0.46712 0.57049 0.0
C1240 C 0.97617 0.43575 0.56244 0.0
C1241 C 0.96517 0.43392 0.58503 0.0
C1242 C 0.96886 0.44903 0.59903 0.0
H1243 H 0.86949 0.34217 0.65704 0.0
H1244 H 0.88997 0.36863 0.62992 0.0
C1245 C 0.984 0.46541 0.592 0.0
C1246 C 0.95161 0.41632 0.59677 0.0
H1247 H 0.9129 0.37674 0.58327 0.0
C1248 C 0.95389 0.4129 0.62425 0.0
C1249 C 0.93652 0.4032 0.58184 0.0
C1250 C 0.93291 0.40635 0.55264 0.0
C1251 C 0.94159 0.39687 0.63724 0.0
C1252 C 0.92681 0.38354 0.62215 0.0
C1253 C 0.92436 0.3869 0.5947 0.0
C1254 C 0.91375 0.3662 0.63504 0.0
C1255 C 0.94435 0.39454 0.66727 0.0
C1256 C 0.92014 0.35572 0.64608 0.0
C1257 C 0.90863 0.34083 0.66206 0.0
C1258 C 0.8903 0.33587 0.66699 0.0
C1259 C 0.8836 0.34576 0.65425 0.0
C1260 C 0.89523 0.3608 0.63846 0.0
H1261 H 0.95306 0.40738 0.67738 0.0
H1262 H 0.93102 0.38719 0.67824 0.0
H1263 H 0.95132 0.38699 0.66944 0.0
H1264 H 0.93431 0.35949 0.64333 0.0
H1265 H 0.91447 0.33378 0.67164 0.0
H1266 H 0.55289 0.96578 0.03052 0.0
H1267 H 0.56376 0.94977 0.05793 0.0
H1268 H 0.52594 0.90198 0.01616 0.0
H1269 H 0.51522 0.91808 0.98834 0.0
H1270 H 0.54402 0.9232 0.09326 0.0
H1271 H 0.5728 0.90109 0.01325 0.0
H1272 H 0.56704 0.91767 0.00673 0.0
H1273 H 0.54938 0.89475 0.00718 0.0
C1274 C 0.54696 0.95188 0.02709 0.0
C1275 C 0.53317 0.94316 0.00735 0.0
C1276 C 0.55322 0.94276 0.04268 0.0
C1277 C 0.54581 0.92471 0.03892 0.0
C1278 C 0.53218 0.91598 0.01898 0.0
H1279 H 0.55255 0.85852 0.16613 0.0
H1280 H 0.54172 0.87111 0.13144 0.0
C1281 C 0.52602 0.92517 0.00316 0.0
C1282 C 0.55157 0.91494 0.05717 0.0
H1283 H 0.56995 0.88883 0.058 0.0
C1284 C 0.54973 0.91571 0.08553 0.0
C1285 C 0.55918 0.90532 0.04708 0.0
C1286 C 0.5624 0.90476 0.01691 0.0
C1287 C 0.55524 0.90714 0.1041 0.0
C1288 C 0.56231 0.89707 0.09401 0.0
C1289 C 0.56428 0.89636 0.06565 0.0
C1290 C 0.56836 0.88777 0.11275 0.0
C1291 C 0.55387 0.90937 0.13437 0.0
C1292 C 0.58672 0.89223 0.11277 0.0
C1293 C 0.59291 0.88477 0.13224 0.0
C1294 C 0.58083 0.87272 0.1521 0.0
C1295 C 0.56223 0.86765 0.15109 0.0
C1296 C 0.55604 0.87501 0.13149 0.0
H1297 H 0.5529 0.92108 0.13852 0.0
H1298 H 0.54133 0.89762 0.14269 0.0
H1299 H 0.56592 0.91073 0.14556 0.0
H1300 H 0.59642 0.90192 0.0983 0.0
H1301 H 0.60723 0.88871 0.13205 0.0
H1302 H 0.57403 0.52809 0.52498 0.0
H1303 H 0.60152 0.53606 0.55185 0.0
H1304 H 0.56881 0.49465 0.61034 0.0
H1305 H 0.54118 0.48648 0.58353 0.0
H1306 H 0.61046 0.54543 0.6085 0.0
H1307 H 0.60756 0.48346 0.58316 0.0
H1308 H 0.59453 0.49107 0.56462 0.0
H1309 H 0.58708 0.4809 0.59786 0.0
C1310 C 0.57261 0.52079 0.54374 0.0
C1311 C 0.5554 0.50654 0.55197 0.0
C1312 C 0.58836 0.52537 0.55906 0.0
C1313 C 0.58724 0.51572 0.58277 0.0
C1314 C 0.56999 0.50205 0.59181 0.0
H1315 H 0.6698 0.51839 0.69154 0.0
H1316 H 0.6416 0.51069 0.66679 0.0
C1317 C 0.5542 0.49749 0.57656 0.0
C1318 C 0.60423 0.51964 0.59742 0.0
H1319 H 0.63109 0.50265 0.61317 0.0
C1320 C 0.615 0.5361 0.60954 0.0
C1321 C 0.61008 0.50742 0.59871 0.0
C1322 C 0.59933 0.48976 0.58524 0.0
C1323 C 0.63139 0.54061 0.62327 0.0
C1324 C 0.63738 0.52847 0.62429 0.0
C1325 C 0.62652 0.51196 0.61229 0.0
C1326 C 0.65475 0.53258 0.63802 0.0
C1327 C 0.64191 0.55818 0.63707 0.0
C1328 C 0.67162 0.5471 0.62947 0.0
C1329 C 0.68778 0.55152 0.64355 0.0
C1330 C 0.68741 0.54137 0.66626 0.0
C1331 C 0.67061 0.52637 0.67395 0.0
C1332 C 0.65445 0.52202 0.65995 0.0
H1333 H 0.63311 0.56372 0.64084 0.0
H1334 H 0.64774 0.55708 0.65689 0.0
H1335 H 0.6534 0.56761 0.62364 0.0
H1336 H 0.67226 0.55516 0.61211 0.0
H1337 H 0.70054 0.56302 0.63689 0.0
H1338 H 0.06382 0.55082 0.09696 0.0
H1339 H 0.08635 0.57935 0.11565 0.0
H1340 H 0.04267 0.58531 0.14589 0.0
H1341 H 0.01997 0.55673 0.12709 0.0
H1342 H 0.09094 0.61223 0.10308 0.0
H1343 H 0.07537 0.59457 0.21336 0.0
H1344 H 0.06742 0.57823 0.18707 0.0
H1345 H 0.05601 0.59011 0.19248 0.0
C1346 C 0.05898 0.5582 0.10751 0.0
C1347 C 0.04008 0.5515 0.11049 0.0
C1348 C 0.07188 0.57448 0.11824 0.0
C1349 C 0.06618 0.58438 0.1323 0.0
C1350 C 0.04735 0.57774 0.13549 0.0
H1351 H 0.13718 0.69519 0.17492 0.0
H1352 H 0.11382 0.66784 0.15349 0.0
C1353 C 0.0344 0.56139 0.12479 0.0
C1354 C 0.08006 0.60176 0.14321 0.0
H1355 H 0.097 0.62433 0.20248 0.0
C1356 C 0.09226 0.61492 0.1248 0.0
C1357 C 0.08182 0.60513 0.17156 0.0
C1358 C 0.06958 0.59125 0.19235 0.0
C1359 C 0.10624 0.63139 0.13403 0.0
C1360 C 0.10788 0.63481 0.16236 0.0
C1361 C 0.09563 0.62167 0.18074 0.0
C1362 C 0.12267 0.65165 0.17365 0.0
C1363 C 0.11944 0.64481 0.11351 0.0
C1364 C 0.13533 0.65159 0.19206 0.0
C1365 C 0.14855 0.6671 0.20446 0.0
C1366 C 0.14937 0.68305 0.19877 0.0
C1367 C 0.1369 0.68314 0.1798 0.0
C1368 C 0.12363 0.66756 0.16738 0.0
H1369 H 0.11882 0.63881 0.09351 0.0
H1370 H 0.1159 0.65505 0.10998 0.0
H1371 H 0.13374 0.65138 0.12131 0.0
H1372 H 0.13476 0.63943 0.19727 0.0
H1373 H 0.15763 0.66641 0.21939 0.0
loop_
_geom_bond_atom_site_label_1
_geom_bond_atom_site_label_2
_geom_bond_distance
_geom_bond_site_symmetry_2
_ccdc_geom_bond_type
Cu0 N1 1.999 . S
Cu0 O6 1.974 . S
Cu0 N11 1.985 1_655 S
Cu0 O20 1.959 1_655 S
N1 Cu0 1.999 . S
N1 C3 1.263 . S
N1 C5 1.389 . S
N2 C3 1.358 . S
N2 C4 1.400 . S
C3 N1 1.263 . S
C3 N2 1.358 . S
C3 H9 0.930 1_554 S
C4 N2 1.400 . S
C4 C5 1.351 . S
C4 H21 0.930 . S
C5 N1 1.389 . S
C5 C4 1.351 . S
C5 H10 0.930 . S
O6 Cu0 1.974 . S
O6 C16 1.282 . S
C7 O8 1.261 . S
C7 O20 1.251 . S
O8 C7 1.261 . S
H9 C3 0.930 1_556 S
H10 C5 0.930 . S
N11 Cu0 1.985 1_455 S
N11 C13 1.335 . S
N11 C14 1.390 . S
N12 C13 1.345 . S
N12 C15 1.336 . S
C13 N11 1.335 . S
C13 N12 1.345 . S
C13 H18 0.930 . S
C14 N11 1.390 . S
C14 C15 1.346 . S
C14 H19 0.930 . S
C15 N12 1.336 . S
C15 C14 1.346 . S
C15 H22 0.929 . S
C16 O6 1.282 . S
C16 O17 1.216 1_554 S
O17 C16 1.216 1_556 S
H18 C13 0.930 . S
H19 C14 0.930 . S
O20 Cu0 1.959 1_455 S
O20 C7 1.251 . S
H21 C4 0.930 . S
H22 C15 0.929 . S
Cu23 N24 1.999 . S
Cu23 O29 1.974 . S
Cu23 N34 1.985 1_565 S
Cu23 O43 1.959 1_565 S
N24 Cu23 1.999 . S
N24 C26 1.263 . S
N24 C28 1.389 . S
N25 C26 1.358 . S
N25 C27 1.400 . S
C26 N24 1.263 . S
C26 N25 1.358 . S
C26 H32 0.930 . S
C27 N25 1.400 . S
C27 C28 1.351 . S
C27 H44 0.930 . S
C28 N24 1.389 . S
C28 C27 1.351 . S
C28 H33 0.930 . S
O29 Cu23 1.974 . S
O29 C39 1.282 . S
C30 O31 1.261 . S
C30 O43 1.251 . S
O31 C30 1.261 . S
H32 C26 0.930 . S
H33 C28 0.930 . S
N34 Cu23 1.985 1_545 S
N34 C36 1.335 . S
N34 C37 1.390 . S
N35 C36 1.345 . S
N35 C38 1.336 . S
C36 N34 1.335 . S
C36 N35 1.345 . S
C36 H41 0.930 . S
C37 N34 1.390 . S
C37 C38 1.346 . S
C37 H42 0.930 . S
C38 N35 1.336 . S
C38 C37 1.346 . S
C38 H45 0.929 . S
C39 O29 1.282 . S
C39 O40 1.216 . S
O40 C39 1.216 . S
H41 C36 0.930 . S
H42 C37 0.930 . S
O43 Cu23 1.959 1_545 S
O43 C30 1.251 . S
H44 C27 0.930 . S
H45 C38 0.929 . S
Cu46 N47 1.999 . S
Cu46 O52 1.974 . S
Cu46 N57 1.985 1_556 S
Cu46 O66 1.959 1_556 S
N47 Cu46 1.999 . S
N47 C49 1.263 . S
N47 C51 1.389 . S
N48 C49 1.358 . S
N48 C50 1.400 . S
C49 N47 1.263 . S
C49 N48 1.358 . S
C49 H55 0.930 . S
C50 N48 1.400 . S
C50 C51 1.351 . S
C50 H67 0.930 . S
C51 N47 1.389 . S
C51 C50 1.351 . S
C51 H56 0.930 . S
O52 Cu46 1.974 . S
O52 C62 1.282 . S
C53 O54 1.261 . S
C53 O66 1.251 . S
O54 C53 1.261 . S
H55 C49 0.930 . S
H56 C51 0.930 . S
N57 Cu46 1.985 1_554 S
N57 C59 1.335 . S
N57 C60 1.390 . S
N58 C59 1.345 . S
N58 C61 1.336 . S
C59 N57 1.335 . S
C59 N58 1.345 . S
C59 H64 0.930 . S
C60 N57 1.390 . S
C60 C61 1.346 . S
C60 H65 0.930 . S
C61 N58 1.336 . S
C61 C60 1.346 . S
C61 H68 0.929 . S
C62 O52 1.282 . S
C62 O63 1.216 1_556 S
O63 C62 1.216 1_554 S
H64 C59 0.930 . S
H65 C60 0.930 . S
O66 Cu46 1.959 1_554 S
O66 C53 1.251 . S
H67 C50 0.930 . S
H68 C61 0.929 . S
Cu69 N70 1.999 . S
Cu69 O75 1.974 . S
Cu69 N80 1.985 . S
Cu69 O89 1.959 . S
N70 Cu69 1.999 . S
N70 C72 1.263 . S
N70 C74 1.389 . S
N71 C72 1.358 . S
N71 C73 1.400 . S
C72 N70 1.263 . S
C72 N71 1.358 . S
C72 H78 0.930 . S
C73 N71 1.400 . S
C73 C74 1.351 . S
C73 H90 0.930 . S
C74 N70 1.389 . S
C74 C73 1.351 . S
C74 H79 0.930 . S
O75 Cu69 1.974 . S
O75 C85 1.282 . S
C76 O77 1.261 . S
C76 O89 1.251 . S
O77 C76 1.261 . S
H78 C72 0.930 . S
H79 C74 0.930 . S
N80 Cu69 1.985 . S
N80 C82 1.335 . S
N80 C83 1.390 . S
N81 C82 1.345 . S
N81 C84 1.336 . S
C82 N80 1.335 . S
C82 N81 1.345 . S
C82 H87 0.930 . S
C83 N80 1.390 . S
C83 C84 1.346 . S
C83 H88 0.930 . S
C84 N81 1.336 . S
C84 C83 1.346 . S
C84 H91 0.929 . S
C85 O75 1.282 . S
C85 O86 1.216 . S
O86 C85 1.216 . S
H87 C82 0.930 . S
H88 C83 0.930 . S
O89 Cu69 1.959 . S
O89 C76 1.251 . S
H90 C73 0.930 . S
H91 C84 0.929 . S
Cu92 N93 1.999 . S
Cu92 O98 1.974 1_554 S
Cu92 N103 1.976 1_545 S
Cu92 O112 1.946 1_545 S
N93 Cu92 1.999 . S
N93 C95 1.263 1_554 S
N93 C97 1.389 . S
N94 C95 1.358 . S
N94 C96 1.400 1_556 S
C95 N93 1.263 1_556 S
C95 N94 1.358 . S
C95 H101 0.930 . S
C96 N94 1.400 1_554 S
C96 C97 1.351 . S
C96 H113 0.930 . S
C97 N93 1.389 . S
C97 C96 1.351 . S
C97 H102 0.930 . S
O98 Cu92 1.974 1_556 S
O98 C108 1.282 . S
C99 O100 1.288 . S
C99 O112 1.293 . S
O100 C99 1.288 . S
H101 C95 0.930 . S
H102 C97 0.930 . S
N103 Cu92 1.976 1_565 S
N103 C105 1.340 . S
N103 C106 1.378 . S
N104 C105 1.345 . S
N104 C107 1.336 . S
C105 N103 1.340 . S
C105 N104 1.345 . S
C105 H110 0.930 . S
C106 N103 1.378 . S
C106 C107 1.375 . S
C106 H111 0.903 1_564 S
C107 N104 1.336 . S
C107 C106 1.375 . S
C107 H114 0.929 . S
C108 O98 1.282 . S
C108 O109 1.216 . S
O109 C108 1.216 . S
H110 C105 0.930 . S
H111 C106 0.903 1_546 S
O112 Cu92 1.946 1_565 S
O112 C99 1.293 . S
H113 C96 0.930 . S
H114 C107 0.929 . S
Cu115 N116 1.999 . S
Cu115 O121 1.974 . S
Cu115 N126 1.985 . S
Cu115 O135 1.959 . S
N116 Cu115 1.999 . S
N116 C118 1.263 . S
N116 C120 1.389 . S
N117 C118 1.358 . S
N117 C119 1.400 . S
C118 N116 1.263 . S
C118 N117 1.358 . S
C118 H124 0.930 . S
C119 N117 1.400 . S
C119 C120 1.351 . S
C119 H136 0.930 . S
C120 N116 1.389 . S
C120 C119 1.351 . S
C120 H125 0.930 . S
O121 Cu115 1.974 . S
O121 C131 1.282 . S
C122 O123 1.261 . S
C122 O135 1.251 . S
O123 C122 1.261 . S
H124 C118 0.930 . S
H125 C120 0.930 . S
N126 Cu115 1.985 . S
N126 C128 1.335 . S
N126 C129 1.390 . S
N127 C128 1.345 . S
N127 C130 1.336 . S
C128 N126 1.335 . S
C128 N127 1.345 . S
C128 H133 0.930 . S
C129 N126 1.390 . S
C129 C130 1.346 . S
C129 H134 0.930 . S
C130 N127 1.336 . S
C130 C129 1.346 . S
C130 H137 0.929 . S
C131 O121 1.282 . S
C131 O132 1.216 . S
O132 C131 1.216 . S
H133 C128 0.930 . S
H134 C129 0.930 . S
O135 Cu115 1.959 . S
O135 C122 1.251 . S
H136 C119 0.930 . S
H137 C130 0.929 . S
H138 C165 0.929 . S
N139 C164 1.433 . S
N139 C170 1.435 . S
N139 C176 1.423 . S
H140 C166 0.930 . S
H141 C169 0.931 . S
H142 C168 0.929 . S
H143 C171 0.930 . S
H144 C172 0.932 . S
H145 C175 0.929 . S
H146 C174 0.931 . S
H147 C177 0.929 . S
H148 C181 0.932 . S
H149 C178 0.931 . S
H150 C180 0.929 . S
H151 C183 0.929 . S
H152 C184 0.930 . S
H153 C186 0.929 . S
H154 C187 0.931 . S
H155 C189 0.930 . S
H156 C190 0.932 . S
H157 C192 0.931 . S
H158 C193 0.929 . S
H159 C195 0.929 . S
H160 C196 0.931 . S
H161 C198 0.929 . S
N162 C182 1.433 . S
N162 C188 1.435 . S
N162 C194 1.423 . S
H163 C199 0.932 . S
C164 N139 1.433 . S
C164 C165 1.363 . S
C164 C169 1.370 . S
C165 H138 0.929 . S
C165 C164 1.363 . S
C165 C166 1.385 . S
C166 H140 0.930 . S
C166 C165 1.385 . S
C166 C167 1.357 . S
C167 C166 1.357 . S
C167 C168 1.406 . S
C168 H142 0.929 . S
C168 C167 1.406 . S
C168 C169 1.391 . S
C169 H141 0.931 . S
C169 C164 1.370 . S
C169 C168 1.391 . S
C170 N139 1.435 . S
C170 C171 1.358 . S
C170 C175 1.371 . S
C171 H143 0.930 . S
C171 C170 1.358 . S
C171 C172 1.405 . S
C172 H144 0.932 . S
C172 C171 1.405 . S
C172 C173 1.383 . S
C173 C172 1.383 . S
C173 C174 1.393 . S
C174 H146 0.931 . S
C174 C173 1.393 . S
C174 C175 1.382 . S
C175 H145 0.929 . S
C175 C170 1.371 . S
C175 C174 1.382 . S
C176 N139 1.423 . S
C176 C177 1.362 . S
C176 C181 1.388 . S
C177 H147 0.929 . S
C177 C176 1.362 . S
C177 C178 1.376 . S
C178 H149 0.931 . S
C178 C177 1.376 . S
C178 C179 1.396 . S
C179 C178 1.396 . S
C179 C180 1.348 . S
C179 C197 1.472 . S
C180 H150 0.929 . S
C180 C179 1.348 . S
C180 C181 1.443 . S
C181 H148 0.932 . S
C181 C176 1.388 . S
C181 C180 1.443 . S
C182 N162 1.433 . S
C182 C183 1.363 . S
C182 C187 1.370 . S
C183 H151 0.929 . S
C183 C182 1.363 . S
C183 C184 1.385 . S
C184 H152 0.930 . S
C184 C183 1.385 . S
C184 C185 1.357 . S
C185 C184 1.357 . S
C185 C186 1.406 . S
C186 H153 0.929 . S
C186 C185 1.406 . S
C186 C187 1.391 . S
C187 H154 0.931 . S
C187 C182 1.370 . S
C187 C186 1.391 . S
C188 N162 1.435 . S
C188 C189 1.358 . S
C188 C193 1.371 . S
C189 H155 0.930 . S
C189 C188 1.358 . S
C189 C190 1.405 . S
C190 H156 0.932 . S
C190 C189 1.405 . S
C190 C191 1.383 . S
C191 C190 1.383 . S
C191 C192 1.393 . S
C192 H157 0.931 . S
C192 C191 1.393 . S
C192 C193 1.382 . S
C193 H158 0.929 . S
C193 C188 1.371 . S
C193 C192 1.382 . S
C194 N162 1.423 . S
C194 C195 1.362 . S
C194 C199 1.388 . S
C195 H159 0.929 . S
C195 C194 1.362 . S
C195 C196 1.376 . S
C196 H160 0.931 . S
C196 C195 1.376 . S
C196 C197 1.396 . S
C197 C179 1.472 . S
C197 C196 1.396 . S
C197 C198 1.348 . S
C198 H161 0.929 . S
C198 C197 1.348 . S
C198 C199 1.443 . S
C199 H163 0.932 . S
C199 C194 1.388 . S
C199 C198 1.443 . S
H200 C227 0.929 . S
N201 C226 1.433 . S
N201 C232 1.435 . S
N201 C238 1.423 . S
H202 C228 0.930 . S
H203 C231 0.931 . S
H204 C230 0.929 . S
H205 C233 0.930 . S
H206 C234 0.932 . S
H207 C237 0.929 . S
H208 C236 0.931 . S
H209 C239 0.929 . S
H210 C243 0.932 . S
H211 C240 0.931 . S
H212 C242 0.929 . S
H213 C245 0.929 . S
H214 C246 0.930 . S
H215 C248 0.929 . S
H216 C249 0.931 . S
H217 C251 0.930 . S
H218 C252 0.932 . S
H219 C254 0.931 . S
H220 C255 0.929 . S
H221 C257 0.929 . S
H222 C258 0.931 . S
H223 C260 0.929 . S
N224 C244 1.433 . S
N224 C250 1.435 . S
N224 C256 1.423 . S
H225 C261 0.932 . S
C226 N201 1.433 . S
C226 C227 1.363 . S
C226 C231 1.370 . S
C227 H200 0.929 . S
C227 C226 1.363 . S
C227 C228 1.385 . S
C228 H202 0.930 . S
C228 C227 1.385 . S
C228 C229 1.357 . S
C229 C228 1.357 . S
C229 C230 1.406 . S
C230 H204 0.929 . S
C230 C229 1.406 . S
C230 C231 1.391 . S
C231 H203 0.931 . S
C231 C226 1.370 . S
C231 C230 1.391 . S
C232 N201 1.435 . S
C232 C233 1.358 . S
C232 C237 1.371 . S
C233 H205 0.930 . S
C233 C232 1.358 . S
C233 C234 1.405 . S
C234 H206 0.932 . S
C234 C233 1.405 . S
C234 C235 1.383 . S
C235 C234 1.383 . S
C235 C236 1.393 . S
C236 H208 0.931 . S
C236 C235 1.393 . S
C236 C237 1.382 . S
C237 H207 0.929 . S
C237 C232 1.371 . S
C237 C236 1.382 . S
C238 N201 1.423 . S
C238 C239 1.362 . S
C238 C243 1.388 . S
C239 H209 0.929 . S
C239 C238 1.362 . S
C239 C240 1.376 . S
C240 H211 0.931 . S
C240 C239 1.376 . S
C240 C241 1.396 . S
C241 C240 1.396 . S
C241 C242 1.348 . S
C241 C259 1.472 . S
C242 H212 0.929 . S
C242 C241 1.348 . S
C242 C243 1.443 . S
C243 H210 0.932 . S
C243 C238 1.388 . S
C243 C242 1.443 . S
C244 N224 1.433 . S
C244 C245 1.363 . S
C244 C249 1.370 . S
C245 H213 0.929 . S
C245 C244 1.363 . S
C245 C246 1.385 . S
C246 H214 0.930 . S
C246 C245 1.385 . S
C246 C247 1.357 . S
C247 C246 1.357 . S
C247 C248 1.406 . S
C248 H215 0.929 . S
C248 C247 1.406 . S
C248 C249 1.391 . S
C249 H216 0.931 . S
C249 C244 1.370 . S
C249 C248 1.391 . S
C250 N224 1.435 . S
C250 C251 1.358 . S
C250 C255 1.371 . S
C251 H217 0.930 . S
C251 C250 1.358 . S
C251 C252 1.405 . S
C252 H218 0.932 . S
C252 C251 1.405 . S
C252 C253 1.383 . S
C253 C252 1.383 . S
C253 C254 1.393 . S
C254 H219 0.931 . S
C254 C253 1.393 . S
C254 C255 1.382 . S
C255 H220 0.929 . S
C255 C250 1.371 . S
C255 C254 1.382 . S
C256 N224 1.423 . S
C256 C257 1.362 . S
C256 C261 1.388 . S
C257 H221 0.929 . S
C257 C256 1.362 . S
C257 C258 1.376 . S
C258 H222 0.931 . S
C258 C257 1.376 . S
C258 C259 1.396 . S
C259 C241 1.472 . S
C259 C258 1.396 . S
C259 C260 1.348 . S
C260 H223 0.929 . S
C260 C259 1.348 . S
C260 C261 1.443 . S
C261 H225 0.932 . S
C261 C256 1.388 . S
C261 C260 1.443 . S
H262 C289 0.929 . S
N263 C288 1.433 . S
N263 C294 1.435 . S
N263 C300 1.423 . S
H264 C290 0.930 . S
H265 C293 0.931 . S
H266 C292 0.929 . S
H267 C295 0.930 . S
H268 C296 0.932 . S
H269 C299 0.929 . S
H270 C298 0.931 . S
H271 C301 0.929 . S
H272 C305 0.932 . S
H273 C302 0.931 . S
H274 C304 0.929 . S
H275 C307 0.929 . S
H276 C308 0.930 . S
H277 C310 0.929 . S
H278 C311 0.931 . S
H279 C313 0.930 . S
H280 C314 0.932 . S
H281 C316 0.931 . S
H282 C317 0.929 . S
H283 C319 0.929 . S
H284 C320 0.931 . S
H285 C322 0.929 . S
N286 C306 1.433 . S
N286 C312 1.435 . S
N286 C318 1.423 . S
H287 C323 0.932 . S
C288 N263 1.433 . S
C288 C289 1.363 . S
C288 C293 1.370 . S
C289 H262 0.929 . S
C289 C288 1.363 . S
C289 C290 1.385 . S
C290 H264 0.930 . S
C290 C289 1.385 . S
C290 C291 1.357 . S
C291 C290 1.357 . S
C291 C292 1.406 . S
C292 H266 0.929 . S
C292 C291 1.406 . S
C292 C293 1.391 . S
C293 H265 0.931 . S
C293 C288 1.370 . S
C293 C292 1.391 . S
C294 N263 1.435 . S
C294 C295 1.358 . S
C294 C299 1.371 . S
C295 H267 0.930 . S
C295 C294 1.358 . S
C295 C296 1.405 . S
C296 H268 0.932 . S
C296 C295 1.405 . S
C296 C297 1.383 . S
C297 C296 1.383 . S
C297 C298 1.393 . S
C298 H270 0.931 . S
C298 C297 1.393 . S
C298 C299 1.382 . S
C299 H269 0.929 . S
C299 C294 1.371 . S
C299 C298 1.382 . S
C300 N263 1.423 . S
C300 C301 1.362 . S
C300 C305 1.388 . S
C301 H271 0.929 . S
C301 C300 1.362 . S
C301 C302 1.376 . S
C302 H273 0.931 . S
C302 C301 1.376 . S
C302 C303 1.396 . S
C303 C302 1.396 . S
C303 C304 1.348 . S
C303 C321 1.472 . S
C304 H274 0.929 . S
C304 C303 1.348 . S
C304 C305 1.443 . S
C305 H272 0.932 . S
C305 C300 1.388 . S
C305 C304 1.443 . S
C306 N286 1.433 . S
C306 C307 1.363 . S
C306 C311 1.370 . S
C307 H275 0.929 . S
C307 C306 1.363 . S
C307 C308 1.385 . S
C308 H276 0.930 . S
C308 C307 1.385 . S
C308 C309 1.357 . S
C309 C308 1.357 . S
C309 C310 1.406 . S
C310 H277 0.929 . S
C310 C309 1.406 . S
C310 C311 1.391 . S
C311 H278 0.931 . S
C311 C306 1.370 . S
C311 C310 1.391 . S
C312 N286 1.435 . S
C312 C313 1.358 . S
C312 C317 1.371 . S
C313 H279 0.930 . S
C313 C312 1.358 . S
C313 C314 1.405 . S
C314 H280 0.932 . S
C314 C313 1.405 . S
C314 C315 1.383 . S
C315 C314 1.383 . S
C315 C316 1.393 . S
C316 H281 0.931 . S
C316 C315 1.393 . S
C316 C317 1.382 . S
C317 H282 0.929 . S
C317 C312 1.371 . S
C317 C316 1.382 . S
C318 N286 1.423 . S
C318 C319 1.362 . S
C318 C323 1.388 . S
C319 H283 0.929 . S
C319 C318 1.362 . S
C319 C320 1.376 . S
C320 H284 0.931 . S
C320 C319 1.376 . S
C320 C321 1.396 . S
C321 C303 1.472 . S
C321 C320 1.396 . S
C321 C322 1.348 . S
C322 H285 0.929 . S
C322 C321 1.348 . S
C322 C323 1.443 . S
C323 H287 0.932 . S
C323 C318 1.388 . S
C323 C322 1.443 . S
H324 C351 0.929 . S
N325 C350 1.433 . S
N325 C356 1.435 . S
N325 C362 1.423 . S
H326 C352 0.930 . S
H327 C355 0.931 . S
H328 C354 0.929 . S
H329 C357 0.930 . S
H330 C358 0.932 . S
H331 C361 0.929 . S
H332 C360 0.931 . S
H333 C363 0.929 . S
H334 C367 0.932 . S
H335 C364 0.931 . S
H336 C366 0.929 . S
H337 C369 0.929 . S
H338 C370 0.930 . S
H339 C372 0.929 . S
H340 C373 0.931 . S
H341 C375 0.930 . S
H342 C376 0.932 . S
H343 C378 0.931 . S
H344 C379 0.929 . S
H345 C381 0.929 . S
H346 C382 0.931 . S
H347 C384 0.929 . S
N348 C368 1.433 . S
N348 C374 1.435 . S
N348 C380 1.423 . S
H349 C385 0.932 . S
C350 N325 1.433 . S
C350 C351 1.363 . S
C350 C355 1.370 . S
C351 H324 0.929 . S
C351 C350 1.363 . S
C351 C352 1.385 . S
C352 H326 0.930 . S
C352 C351 1.385 . S
C352 C353 1.357 . S
C353 C352 1.357 . S
C353 C354 1.406 . S
C354 H328 0.929 . S
C354 C353 1.406 . S
C354 C355 1.391 . S
C355 H327 0.931 . S
C355 C350 1.370 . S
C355 C354 1.391 . S
C356 N325 1.435 . S
C356 C357 1.358 . S
C356 C361 1.371 . S
C357 H329 0.930 . S
C357 C356 1.358 . S
C357 C358 1.405 . S
C358 H330 0.932 . S
C358 C357 1.405 . S
C358 C359 1.383 . S
C359 C358 1.383 . S
C359 C360 1.393 . S
C360 H332 0.931 . S
C360 C359 1.393 . S
C360 C361 1.382 . S
C361 H331 0.929 . S
C361 C356 1.371 . S
C361 C360 1.382 . S
C362 N325 1.423 . S
C362 C363 1.362 . S
C362 C367 1.388 . S
C363 H333 0.929 . S
C363 C362 1.362 . S
C363 C364 1.376 . S
C364 H335 0.931 . S
C364 C363 1.376 . S
C364 C365 1.396 . S
C365 C364 1.396 . S
C365 C366 1.348 . S
C365 C383 1.472 . S
C366 H336 0.929 . S
C366 C365 1.348 . S
C366 C367 1.443 . S
C367 H334 0.932 . S
C367 C362 1.388 . S
C367 C366 1.443 . S
C368 N348 1.433 . S
C368 C369 1.363 . S
C368 C373 1.370 . S
C369 H337 0.929 . S
C369 C368 1.363 . S
C369 C370 1.385 . S
C370 H338 0.930 . S
C370 C369 1.385 . S
C370 C371 1.357 . S
C371 C370 1.357 . S
C371 C372 1.406 . S
C372 H339 0.929 . S
C372 C371 1.406 . S
C372 C373 1.391 . S
C373 H340 0.931 . S
C373 C368 1.370 . S
C373 C372 1.391 . S
C374 N348 1.435 . S
C374 C375 1.358 . S
C374 C379 1.371 . S
C375 H341 0.930 . S
C375 C374 1.358 . S
C375 C376 1.405 . S
C376 H342 0.932 . S
C376 C375 1.405 . S
C376 C377 1.383 . S
C377 C376 1.383 . S
C377 C378 1.393 . S
C378 H343 0.931 . S
C378 C377 1.393 . S
C378 C379 1.382 . S
C379 H344 0.929 . S
C379 C374 1.371 . S
C379 C378 1.382 . S
C380 N348 1.423 . S
C380 C381 1.362 . S
C380 C385 1.388 . S
C381 H345 0.929 . S
C381 C380 1.362 . S
C381 C382 1.376 . S
C382 H346 0.931 . S
C382 C381 1.376 . S
C382 C383 1.396 . S
C383 C365 1.472 . S
C383 C382 1.396 . S
C383 C384 1.348 . S
C384 H347 0.929 . S
C384 C383 1.348 . S
C384 C385 1.443 . S
C385 H349 0.932 . S
C385 C380 1.388 . S
C385 C384 1.443 . S
H386 C413 0.929 . S
N387 C412 1.433 . S
N387 C418 1.435 . S
N387 C424 1.423 . S
H388 C414 0.930 . S
H389 C417 0.931 . S
H390 C416 0.929 . S
H391 C419 0.930 . S
H392 C420 0.932 . S
H393 C423 0.929 . S
H394 C422 0.931 . S
H395 C425 0.929 . S
H396 C429 0.932 . S
H397 C426 0.931 . S
H398 C428 0.929 . S
H399 C431 0.929 . S
H400 C432 0.930 . S
H401 C434 0.929 . S
H402 C435 0.931 . S
H403 C437 0.930 . S
H404 C438 0.932 . S
H405 C440 0.931 . S
H406 C441 0.929 . S
H407 C443 0.929 . S
H408 C444 0.931 . S
H409 C446 0.929 . S
N410 C430 1.433 . S
N410 C436 1.435 . S
N410 C442 1.423 . S
H411 C447 0.932 . S
C412 N387 1.433 . S
C412 C413 1.363 . S
C412 C417 1.370 . S
C413 H386 0.929 . S
C413 C412 1.363 . S
C413 C414 1.385 . S
C414 H388 0.930 . S
C414 C413 1.385 . S
C414 C415 1.357 . S
C415 C414 1.357 . S
C415 C416 1.406 . S
C416 H390 0.929 . S
C416 C415 1.406 . S
C416 C417 1.391 . S
C417 H389 0.931 . S
C417 C412 1.370 . S
C417 C416 1.391 . S
C418 N387 1.435 . S
C418 C419 1.358 . S
C418 C423 1.371 . S
C419 H391 0.930 . S
C419 C418 1.358 . S
C419 C420 1.405 . S
C420 H392 0.932 . S
C420 C419 1.405 . S
C420 C421 1.383 . S
C421 C420 1.383 . S
C421 C422 1.393 . S
C422 H394 0.931 . S
C422 C421 1.393 . S
C422 C423 1.382 . S
C423 H393 0.929 . S
C423 C418 1.371 . S
C423 C422 1.382 . S
C424 N387 1.423 . S
C424 C425 1.362 . S
C424 C429 1.388 . S
C425 H395 0.929 . S
C425 C424 1.362 . S
C425 C426 1.376 . S
C426 H397 0.931 . S
C426 C425 1.376 . S
C426 C427 1.396 . S
C427 C426 1.396 . S
C427 C428 1.348 . S
C427 C445 1.472 . S
C428 H398 0.929 . S
C428 C427 1.348 . S
C428 C429 1.443 . S
C429 H396 0.932 . S
C429 C424 1.388 . S
C429 C428 1.443 . S
C430 N410 1.433 . S
C430 C431 1.363 . S
C430 C435 1.370 . S
C431 H399 0.929 . S
C431 C430 1.363 . S
C431 C432 1.385 . S
C432 H400 0.930 . S
C432 C431 1.385 . S
C432 C433 1.357 . S
C433 C432 1.357 . S
C433 C434 1.406 . S
C434 H401 0.929 . S
C434 C433 1.406 . S
C434 C435 1.391 . S
C435 H402 0.931 . S
C435 C430 1.370 . S
C435 C434 1.391 . S
C436 N410 1.435 . S
C436 C437 1.358 . S
C436 C441 1.371 . S
C437 H403 0.930 . S
C437 C436 1.358 . S
C437 C438 1.405 . S
C438 H404 0.932 . S
C438 C437 1.405 . S
C438 C439 1.383 . S
C439 C438 1.383 . S
C439 C440 1.393 . S
C440 H405 0.931 . S
C440 C439 1.393 . S
C440 C441 1.382 . S
C441 H406 0.929 . S
C441 C436 1.371 . S
C441 C440 1.382 . S
C442 N410 1.423 . S
C442 C443 1.362 . S
C442 C447 1.388 . S
C443 H407 0.929 . S
C443 C442 1.362 . S
C443 C444 1.376 . S
C444 H408 0.931 . S
C444 C443 1.376 . S
C444 C445 1.396 . S
C445 C427 1.472 . S
C445 C444 1.396 . S
C445 C446 1.348 . S
C446 H409 0.929 . S
C446 C445 1.348 . S
C446 C447 1.443 . S
C447 H411 0.932 . S
C447 C442 1.388 . S
C447 C446 1.443 . S
H448 C475 0.929 . S
N449 C474 1.433 . S
N449 C480 1.435 . S
N449 C486 1.423 . S
H450 C476 0.930 . S
H451 C479 0.931 . S
H452 C478 0.929 . S
H453 C481 0.930 . S
H454 C482 0.932 . S
H455 C485 0.929 . S
H456 C484 0.931 . S
H457 C487 0.929 . S
H458 C491 0.932 . S
H459 C488 0.931 . S
H460 C490 0.929 . S
H461 C493 0.929 . S
H462 C494 0.930 . S
H463 C496 0.929 . S
H464 C497 0.931 . S
H465 C499 0.930 . S
H466 C500 0.932 . S
H467 C502 0.931 . S
H468 C503 0.929 . S
H469 C505 0.929 . S
H470 C506 0.931 . S
H471 C508 0.929 . S
N472 C492 1.433 . S
N472 C498 1.435 . S
N472 C504 1.423 . S
H473 C509 0.932 . S
C474 N449 1.433 . S
C474 C475 1.363 . S
C474 C479 1.370 . S
C475 H448 0.929 . S
C475 C474 1.363 . S
C475 C476 1.385 . S
C476 H450 0.930 . S
C476 C475 1.385 . S
C476 C477 1.357 . S
C477 C476 1.357 . S
C477 C478 1.406 . S
C478 H452 0.929 . S
C478 C477 1.406 . S
C478 C479 1.391 . S
C479 H451 0.931 . S
C479 C474 1.370 . S
C479 C478 1.391 . S
C480 N449 1.435 . S
C480 C481 1.358 . S
C480 C485 1.371 . S
C481 H453 0.930 . S
C481 C480 1.358 . S
C481 C482 1.405 . S
C482 H454 0.932 . S
C482 C481 1.405 . S
C482 C483 1.383 . S
C483 C482 1.383 . S
C483 C484 1.393 . S
C484 H456 0.931 . S
C484 C483 1.393 . S
C484 C485 1.382 . S
C485 H455 0.929 . S
C485 C480 1.371 . S
C485 C484 1.382 . S
C486 N449 1.423 . S
C486 C487 1.362 . S
C486 C491 1.388 . S
C487 H457 0.929 . S
C487 C486 1.362 . S
C487 C488 1.376 . S
C488 H459 0.931 . S
C488 C487 1.376 . S
C488 C489 1.396 . S
C489 C488 1.396 . S
C489 C490 1.348 . S
C489 C507 1.472 . S
C490 H460 0.929 . S
C490 C489 1.348 . S
C490 C491 1.443 . S
C491 H458 0.932 . S
C491 C486 1.388 . S
C491 C490 1.443 . S
C492 N472 1.433 . S
C492 C493 1.363 . S
C492 C497 1.370 . S
C493 H461 0.929 . S
C493 C492 1.363 . S
C493 C494 1.385 . S
C494 H462 0.930 . S
C494 C493 1.385 . S
C494 C495 1.357 . S
C495 C494 1.357 . S
C495 C496 1.406 . S
C496 H463 0.929 . S
C496 C495 1.406 . S
C496 C497 1.391 . S
C497 H464 0.931 . S
C497 C492 1.370 . S
C497 C496 1.391 . S
C498 N472 1.435 . S
C498 C499 1.358 . S
C498 C503 1.371 . S
C499 H465 0.930 . S
C499 C498 1.358 . S
C499 C500 1.405 . S
C500 H466 0.932 . S
C500 C499 1.405 . S
C500 C501 1.383 . S
C501 C500 1.383 . S
C501 C502 1.393 . S
C502 H467 0.931 . S
C502 C501 1.393 . S
C502 C503 1.382 . S
C503 H468 0.929 . S
C503 C498 1.371 . S
C503 C502 1.382 . S
C504 N472 1.423 . S
C504 C505 1.362 . S
C504 C509 1.388 . S
C505 H469 0.929 . S
C505 C504 1.362 . S
C505 C506 1.376 . S
C506 H470 0.931 . S
C506 C505 1.376 . S
C506 C507 1.396 . S
C507 C489 1.472 . S
C507 C506 1.396 . S
C507 C508 1.348 . S
C508 H471 0.929 . S
C508 C507 1.348 . S
C508 C509 1.443 . S
C509 H473 0.932 . S
C509 C504 1.388 . S
C509 C508 1.443 . S
H510 C518 0.929 . S
H511 C520 0.930 . S
H512 C522 0.930 . S
H513 C525 0.929 . S
H514 C528 0.930 . S
H515 C530 0.960 . S
H516 C530 0.960 . S
H517 C530 0.960 . S
C518 H510 0.929 . S
C518 C519 1.377 . S
C518 C520 1.384 . S
C519 C518 1.377 . S
C519 C525 1.390 . S
C520 H511 0.930 . S
C520 C518 1.384 . S
C520 C521 1.372 . S
C521 C520 1.372 . S
C521 C522 1.400 . S
C521 C526 1.490 . S
C522 H512 0.930 . S
C522 C521 1.400 . S
C522 C525 1.386 . S
H523 C539 0.930 . S
H524 C540 0.931 . S
C525 H513 0.929 . S
C525 C519 1.390 . S
C525 C522 1.386 . S
C526 C521 1.490 . S
C526 C528 1.395 . S
C526 C529 1.403 . S
H527 C533 0.930 . S
C528 H514 0.930 . S
C528 C526 1.395 . S
C528 C531 1.403 . S
C529 C526 1.403 . S
C529 C530 1.524 . S
C529 C533 1.400 . S
C530 H515 0.960 . S
C530 H516 0.960 . S
C530 H517 0.960 . S
C530 C529 1.524 . S
C531 C528 1.403 . S
C531 C532 1.392 . S
C531 C535 1.495 . S
C532 C531 1.392 . S
C532 C533 1.385 . S
C532 C534 1.478 . S
C533 H527 0.930 . S
C533 C529 1.400 . S
C533 C532 1.385 . S
C534 C532 1.478 . S
C534 C536 1.381 . S
C534 C540 1.383 . S
C535 C531 1.495 . S
C535 H541 0.959 . S
C535 H542 0.961 . S
C535 H543 0.960 . S
C536 C534 1.381 . S
C536 C537 1.394 . S
C536 H544 0.930 . S
C537 C536 1.394 . S
C537 C538 1.383 . S
C537 H545 0.929 . S
C538 C537 1.383 . S
C538 C539 1.377 . S
C539 H523 0.930 . S
C539 C538 1.377 . S
C539 C540 1.379 . S
C540 H524 0.931 . S
C540 C534 1.383 . S
C540 C539 1.379 . S
H541 C535 0.959 . S
H542 C535 0.961 . S
H543 C535 0.960 . S
H544 C536 0.930 . S
H545 C537 0.929 . S
H546 C554 0.929 . S
H547 C556 0.930 . S
H548 C558 0.930 . S
H549 C561 0.929 . S
H550 C564 0.930 . S
H551 C566 0.960 . S
H552 C566 0.960 . S
H553 C566 0.960 . S
C554 H546 0.929 . S
C554 C555 1.377 . S
C554 C556 1.384 . S
C555 C554 1.377 . S
C555 C561 1.390 . S
C556 H547 0.930 . S
C556 C554 1.384 . S
C556 C557 1.372 . S
C557 C556 1.372 . S
C557 C558 1.400 . S
C557 C562 1.490 . S
C558 H548 0.930 . S
C558 C557 1.400 . S
C558 C561 1.386 . S
H559 C575 0.930 . S
H560 C576 0.931 . S
C561 H549 0.929 . S
C561 C555 1.390 . S
C561 C558 1.386 . S
C562 C557 1.490 . S
C562 C564 1.395 . S
C562 C565 1.403 . S
H563 C569 0.930 . S
C564 H550 0.930 . S
C564 C562 1.395 . S
C564 C567 1.403 . S
C565 C562 1.403 . S
C565 C566 1.524 . S
C565 C569 1.400 . S
C566 H551 0.960 . S
C566 H552 0.960 . S
C566 H553 0.960 . S
C566 C565 1.524 . S
C567 C564 1.403 . S
C567 C568 1.392 . S
C567 C571 1.495 . S
C568 C567 1.392 . S
C568 C569 1.385 . S
C568 C570 1.478 . S
C569 H563 0.930 . S
C569 C565 1.400 . S
C569 C568 1.385 . S
C570 C568 1.478 . S
C570 C572 1.381 . S
C570 C576 1.383 . S
C571 C567 1.495 . S
C571 H577 0.959 . S
C571 H578 0.961 . S
C571 H579 0.960 . S
C572 C570 1.381 . S
C572 C573 1.394 . S
C572 H580 0.930 . S
C573 C572 1.394 . S
C573 C574 1.383 . S
C573 H581 0.929 . S
C574 C573 1.383 . S
C574 C575 1.377 . S
C575 H559 0.930 . S
C575 C574 1.377 . S
C575 C576 1.379 . S
C576 H560 0.931 . S
C576 C570 1.383 . S
C576 C575 1.379 . S
H577 C571 0.959 . S
H578 C571 0.961 . S
H579 C571 0.960 . S
H580 C572 0.930 . S
H581 C573 0.929 . S
H582 C590 0.929 . S
H583 C592 0.930 . S
H584 C594 0.930 . S
H585 C597 0.929 . S
H586 C600 0.930 . S
H587 C602 0.960 . S
H588 C602 0.960 . S
H589 C602 0.960 . S
C590 H582 0.929 . S
C590 C591 1.377 . S
C590 C592 1.384 . S
C591 C590 1.377 . S
C591 C597 1.390 . S
C592 H583 0.930 . S
C592 C590 1.384 . S
C592 C593 1.372 . S
C593 C592 1.372 . S
C593 C594 1.400 . S
C593 C598 1.490 . S
C594 H584 0.930 . S
C594 C593 1.400 . S
C594 C597 1.386 . S
H595 C611 0.930 . S
H596 C612 0.931 . S
C597 H585 0.929 . S
C597 C591 1.390 . S
C597 C594 1.386 . S
C598 C593 1.490 . S
C598 C600 1.395 . S
C598 C601 1.403 . S
H599 C605 0.930 . S
C600 H586 0.930 . S
C600 C598 1.395 . S
C600 C603 1.403 . S
C601 C598 1.403 . S
C601 C602 1.524 . S
C601 C605 1.400 . S
C602 H587 0.960 . S
C602 H588 0.960 . S
C602 H589 0.960 . S
C602 C601 1.524 . S
C603 C600 1.403 . S
C603 C604 1.392 . S
C603 C607 1.495 . S
C604 C603 1.392 . S
C604 C605 1.385 . S
C604 C606 1.478 . S
C605 H599 0.930 . S
C605 C601 1.400 . S
C605 C604 1.385 . S
C606 C604 1.478 . S
C606 C608 1.381 . S
C606 C612 1.383 . S
C607 C603 1.495 . S
C607 H613 0.959 . S
C607 H614 0.961 . S
C607 H615 0.960 . S
C608 C606 1.381 . S
C608 C609 1.394 . S
C608 H616 0.930 . S
C609 C608 1.394 . S
C609 C610 1.383 . S
C609 H617 0.929 . S
C610 C609 1.383 . S
C610 C611 1.377 . S
C611 H595 0.930 . S
C611 C610 1.377 . S
C611 C612 1.379 . S
C612 H596 0.931 . S
C612 C606 1.383 . S
C612 C611 1.379 . S
H613 C607 0.959 . S
H614 C607 0.961 . S
H615 C607 0.960 . S
H616 C608 0.930 . S
H617 C609 0.929 . S
H618 C626 0.897 1_455 S
H619 C628 0.930 . S
H620 C630 0.930 . S
H621 C633 0.929 . S
H622 C636 0.930 . S
H623 C638 0.960 . S
H624 C638 0.960 . S
H625 C638 0.960 . S
C626 H618 0.897 1_655 S
C626 C627 1.377 . S
C626 C628 1.417 . S
C627 C626 1.377 . S
C627 C633 1.390 . S
C628 H619 0.930 . S
C628 C626 1.417 . S
C628 C629 1.372 . S
C629 C628 1.372 . S
C629 C630 1.400 . S
C629 C634 1.490 . S
C630 H620 0.930 . S
C630 C629 1.400 . S
C630 C633 1.386 . S
H631 C647 0.930 . S
H632 C648 0.931 . S
C633 H621 0.929 . S
C633 C627 1.390 . S
C633 C630 1.386 . S
C634 C629 1.490 . S
C634 C636 1.395 . S
C634 C637 1.403 . S
H635 C641 0.930 . S
C636 H622 0.930 . S
C636 C634 1.395 . S
C636 C639 1.403 . S
C637 C634 1.403 . S
C637 C638 1.524 . S
C637 C641 1.400 . S
C638 H623 0.960 . S
C638 H624 0.960 . S
C638 H625 0.960 . S
C638 C637 1.524 . S
C639 C636 1.403 . S
C639 C640 1.392 . S
C639 C643 1.495 . S
C640 C639 1.392 . S
C640 C641 1.385 . S
C640 C642 1.478 . S
C641 H635 0.930 . S
C641 C637 1.400 . S
C641 C640 1.385 . S
C642 C640 1.478 . S
C642 C644 1.381 . S
C642 C648 1.383 . S
C643 C639 1.495 . S
C643 H649 0.959 . S
C643 H650 0.961 . S
C643 H651 0.960 . S
C644 C642 1.381 . S
C644 C645 1.394 . S
C644 H652 0.930 . S
C645 C644 1.394 . S
C645 C646 1.383 . S
C645 H653 0.929 . S
C646 C645 1.383 . S
C646 C647 1.377 . S
C647 H631 0.930 . S
C647 C646 1.377 . S
C647 C648 1.379 . S
C648 H632 0.931 . S
C648 C642 1.383 . S
C648 C647 1.379 . S
H649 C643 0.959 . S
H650 C643 0.961 . S
H651 C643 0.960 . S
H652 C644 0.930 . S
H653 C645 0.929 . S
H654 C662 0.929 . S
H655 C664 0.930 . S
H656 C666 0.930 . S
H657 C669 0.929 . S
H658 C672 0.930 . S
H659 C674 0.960 . S
H660 C674 0.960 . S
H661 C674 0.960 . S
C662 H654 0.929 . S
C662 C663 1.377 . S
C662 C664 1.384 . S
C663 C662 1.377 . S
C663 C669 1.390 . S
C664 H655 0.930 . S
C664 C662 1.384 . S
C664 C665 1.372 . S
C665 C664 1.372 . S
C665 C666 1.400 . S
C665 C670 1.490 . S
C666 H656 0.930 . S
C666 C665 1.400 . S
C666 C669 1.386 . S
H667 C683 0.930 . S
H668 C684 0.931 . S
C669 H657 0.929 . S
C669 C663 1.390 . S
C669 C666 1.386 . S
C670 C665 1.490 . S
C670 C672 1.395 . S
C670 C673 1.403 . S
H671 C677 0.930 . S
C672 H658 0.930 . S
C672 C670 1.395 . S
C672 C675 1.403 . S
C673 C670 1.403 . S
C673 C674 1.524 . S
C673 C677 1.400 . S
C674 H659 0.960 . S
C674 H660 0.960 . S
C674 H661 0.960 . S
C674 C673 1.524 . S
C675 C672 1.403 . S
C675 C676 1.392 . S
C675 C679 1.495 . S
C676 C675 1.392 . S
C676 C677 1.385 . S
C676 C678 1.478 . S
C677 H671 0.930 . S
C677 C673 1.400 . S
C677 C676 1.385 . S
C678 C676 1.478 . S
C678 C680 1.381 . S
C678 C684 1.383 . S
C679 C675 1.495 . S
C679 H685 0.959 . S
C679 H686 0.961 . S
C679 H687 0.960 . S
C680 C678 1.381 . S
C680 C681 1.394 . S
C680 H688 0.930 . S
C681 C680 1.394 . S
C681 C682 1.383 . S
C681 H689 0.929 . S
C682 C681 1.383 . S
C682 C683 1.377 . S
C683 H667 0.930 . S
C683 C682 1.377 . S
C683 C684 1.379 . S
C684 H668 0.931 . S
C684 C678 1.383 . S
C684 C683 1.379 . S
H685 C679 0.959 . S
H686 C679 0.961 . S
H687 C679 0.960 . S
H688 C680 0.930 . S
H689 C681 0.929 . S
H690 C698 0.929 . S
H691 C700 0.930 . S
H692 C702 0.930 . S
H693 C705 0.929 . S
H694 C708 0.930 . S
H695 C710 0.960 . S
H696 C710 0.960 . S
H697 C710 0.960 . S
C698 H690 0.929 . S
C698 C699 1.377 . S
C698 C700 1.384 . S
C699 C698 1.377 . S
C699 C705 1.390 . S
C700 H691 0.930 . S
C700 C698 1.384 . S
C700 C701 1.372 . S
C701 C700 1.372 . S
C701 C702 1.400 . S
C701 C706 1.490 . S
C702 H692 0.930 . S
C702 C701 1.400 . S
C702 C705 1.386 . S
H703 C719 0.930 . S
H704 C720 0.931 . S
C705 H693 0.929 . S
C705 C699 1.390 . S
C705 C702 1.386 . S
C706 C701 1.490 . S
C706 C708 1.395 . S
C706 C709 1.403 . S
H707 C713 0.930 . S
C708 H694 0.930 . S
C708 C706 1.395 . S
C708 C711 1.403 . S
C709 C706 1.403 . S
C709 C710 1.524 . S
C709 C713 1.400 . S
C710 H695 0.960 . S
C710 H696 0.960 . S
C710 H697 0.960 . S
C710 C709 1.524 . S
C711 C708 1.403 . S
C711 C712 1.392 . S
C711 C715 1.495 . S
C712 C711 1.392 . S
C712 C713 1.385 . S
C712 C714 1.478 . S
C713 H707 0.930 . S
C713 C709 1.400 . S
C713 C712 1.385 . S
C714 C712 1.478 . S
C714 C716 1.381 . S
C714 C720 1.383 . S
C715 C711 1.495 . S
C715 H721 0.959 . S
C715 H722 0.961 . S
C715 H723 0.960 . S
C716 C714 1.381 . S
C716 C717 1.394 . S
C716 H724 0.930 . S
C717 C716 1.394 . S
C717 C718 1.383 . S
C717 H725 0.929 . S
C718 C717 1.383 . S
C718 C719 1.377 . S
C719 H703 0.930 . S
C719 C718 1.377 . S
C719 C720 1.379 . S
C720 H704 0.931 . S
C720 C714 1.383 . S
C720 C719 1.379 . S
H721 C715 0.959 . S
H722 C715 0.961 . S
H723 C715 0.960 . S
H724 C716 0.930 . S
H725 C717 0.929 . S
H726 C734 0.929 . S
H727 C736 0.930 . S
H728 C738 0.930 . S
H729 C741 0.929 . S
H730 C744 0.930 . S
H731 C746 0.960 . S
H732 C746 0.960 . S
H733 C746 0.960 . S
C734 H726 0.929 . S
C734 C735 1.377 . S
C734 C736 1.384 . S
C735 C734 1.377 . S
C735 C741 1.390 . S
C736 H727 0.930 . S
C736 C734 1.384 . S
C736 C737 1.372 . S
C737 C736 1.372 . S
C737 C738 1.400 . S
C737 C742 1.490 . S
C738 H728 0.930 . S
C738 C737 1.400 . S
C738 C741 1.386 . S
H739 C755 0.930 . S
H740 C756 0.931 . S
C741 H729 0.929 . S
C741 C735 1.390 . S
C741 C738 1.386 . S
C742 C737 1.490 . S
C742 C744 1.395 . S
C742 C745 1.403 . S
H743 C749 0.930 . S
C744 H730 0.930 . S
C744 C742 1.395 . S
C744 C747 1.403 . S
C745 C742 1.403 . S
C745 C746 1.524 . S
C745 C749 1.400 . S
C746 H731 0.960 . S
C746 H732 0.960 . S
C746 H733 0.960 . S
C746 C745 1.524 . S
C747 C744 1.403 . S
C747 C748 1.392 . S
C747 C751 1.495 . S
C748 C747 1.392 . S
C748 C749 1.385 . S
C748 C750 1.478 . S
C749 H743 0.930 . S
C749 C745 1.400 . S
C749 C748 1.385 . S
C750 C748 1.478 . S
C750 C752 1.381 . S
C750 C756 1.383 . S
C751 C747 1.495 . S
C751 H757 0.959 . S
C751 H758 0.961 . S
C751 H759 0.960 . S
C752 C750 1.381 . S
C752 C753 1.394 . S
C752 H760 0.930 . S
C753 C752 1.394 . S
C753 C754 1.383 . S
C753 H761 0.929 . S
C754 C753 1.383 . S
C754 C755 1.377 . S
C755 H739 0.930 . S
C755 C754 1.377 . S
C755 C756 1.379 . S
C756 H740 0.931 . S
C756 C750 1.383 . S
C756 C755 1.379 . S
H757 C751 0.959 . S
H758 C751 0.961 . S
H759 C751 0.960 . S
H760 C752 0.930 . S
H761 C753 0.929 . S
H762 C770 0.929 . S
H763 C772 0.930 . S
H764 C774 0.930 . S
H765 C777 0.929 . S
H766 C780 0.930 . S
H767 C782 0.960 . S
H768 C782 0.960 . S
H769 C782 0.960 . S
C770 H762 0.929 . S
C770 C771 1.377 . S
C770 C772 1.384 . S
C771 C770 1.377 . S
C771 C777 1.390 . S
C772 H763 0.930 . S
C772 C770 1.384 . S
C772 C773 1.372 . S
C773 C772 1.372 . S
C773 C774 1.400 . S
C773 C778 1.490 . S
C774 H764 0.930 . S
C774 C773 1.400 . S
C774 C777 1.386 . S
H775 C791 0.930 . S
H776 C792 0.931 . S
C777 H765 0.929 . S
C777 C771 1.390 . S
C777 C774 1.386 . S
C778 C773 1.490 . S
C778 C780 1.395 . S
C778 C781 1.403 . S
H779 C785 0.930 . S
C780 H766 0.930 . S
C780 C778 1.395 . S
C780 C783 1.403 . S
C781 C778 1.403 . S
C781 C782 1.524 . S
C781 C785 1.400 . S
C782 H767 0.960 . S
C782 H768 0.960 . S
C782 H769 0.960 . S
C782 C781 1.524 . S
C783 C780 1.403 . S
C783 C784 1.392 . S
C783 C787 1.495 . S
C784 C783 1.392 . S
C784 C785 1.385 . S
C784 C786 1.478 . S
C785 H779 0.930 . S
C785 C781 1.400 . S
C785 C784 1.385 . S
C786 C784 1.478 . S
C786 C788 1.381 . S
C786 C792 1.383 . S
C787 C783 1.495 . S
C787 H793 0.959 . S
C787 H794 0.961 . S
C787 H795 0.960 . S
C788 C786 1.381 . S
C788 C789 1.394 . S
C788 H796 0.930 . S
C789 C788 1.394 . S
C789 C790 1.383 . S
C789 H797 0.929 . S
C790 C789 1.383 . S
C790 C791 1.377 . S
C791 H775 0.930 . S
C791 C790 1.377 . S
C791 C792 1.379 . S
C792 H776 0.931 . S
C792 C786 1.383 . S
C792 C791 1.379 . S
H793 C787 0.959 . S
H794 C787 0.961 . S
H795 C787 0.960 . S
H796 C788 0.930 . S
H797 C789 0.929 . S
H798 C806 0.929 . S
H799 C808 0.930 . S
H800 C810 0.930 . S
H801 C813 0.929 . S
H802 C816 0.930 . S
H803 C818 0.960 . S
H804 C818 0.960 . S
H805 C818 0.960 . S
C806 H798 0.929 . S
C806 C807 1.377 . S
C806 C808 1.384 . S
C807 C806 1.377 . S
C807 C813 1.390 . S
C808 H799 0.930 . S
C808 C806 1.384 . S
C808 C809 1.372 . S
C809 C808 1.372 . S
C809 C810 1.400 . S
C809 C814 1.490 . S
C810 H800 0.930 . S
C810 C809 1.400 . S
C810 C813 1.386 . S
H811 C827 0.930 . S
H812 C828 0.931 . S
C813 H801 0.929 . S
C813 C807 1.390 . S
C813 C810 1.386 . S
C814 C809 1.490 . S
C814 C816 1.395 . S
C814 C817 1.403 . S
H815 C821 0.930 . S
C816 H802 0.930 . S
C816 C814 1.395 . S
C816 C819 1.403 . S
C817 C814 1.403 . S
C817 C818 1.524 . S
C817 C821 1.400 . S
C818 H803 0.960 . S
C818 H804 0.960 . S
C818 H805 0.960 . S
C818 C817 1.524 . S
C819 C816 1.403 . S
C819 C820 1.392 . S
C819 C823 1.495 . S
C820 C819 1.392 . S
C820 C821 1.385 . S
C820 C822 1.478 . S
C821 H815 0.930 . S
C821 C817 1.400 . S
C821 C820 1.385 . S
C822 C820 1.478 . S
C822 C824 1.381 . S
C822 C828 1.383 . S
C823 C819 1.495 . S
C823 H829 0.959 . S
C823 H830 0.961 . S
C823 H831 0.960 . S
C824 C822 1.381 . S
C824 C825 1.394 . S
C824 H832 0.930 . S
C825 C824 1.394 . S
C825 C826 1.383 . S
C825 H833 0.929 . S
C826 C825 1.383 . S
C826 C827 1.377 . S
C827 H811 0.930 . S
C827 C826 1.377 . S
C827 C828 1.379 . S
C828 H812 0.931 . S
C828 C822 1.383 . S
C828 C827 1.379 . S
H829 C823 0.959 . S
H830 C823 0.961 . S
H831 C823 0.960 . S
H832 C824 0.930 . S
H833 C825 0.929 . S
H834 C842 0.929 . S
H835 C844 0.930 . S
H836 C846 0.930 . S
H837 C849 0.929 . S
H838 C852 0.930 . S
H839 C854 0.960 . S
H840 C854 0.960 . S
H841 C854 0.960 . S
C842 H834 0.929 . S
C842 C843 1.377 . S
C842 C844 1.384 . S
C843 C842 1.377 . S
C843 C849 1.390 . S
C844 H835 0.930 . S
C844 C842 1.384 . S
C844 C845 1.372 . S
C845 C844 1.372 . S
C845 C846 1.400 . S
C845 C850 1.490 . S
C846 H836 0.930 . S
C846 C845 1.400 . S
C846 C849 1.386 . S
H847 C863 0.930 . S
H848 C864 0.931 . S
C849 H837 0.929 . S
C849 C843 1.390 . S
C849 C846 1.386 . S
C850 C845 1.490 . S
C850 C852 1.395 . S
C850 C853 1.403 . S
H851 C857 0.930 . S
C852 H838 0.930 . S
C852 C850 1.395 . S
C852 C855 1.403 . S
C853 C850 1.403 . S
C853 C854 1.524 . S
C853 C857 1.400 . S
C854 H839 0.960 . S
C854 H840 0.960 . S
C854 H841 0.960 . S
C854 C853 1.524 . S
C855 C852 1.403 . S
C855 C856 1.392 . S
C855 C859 1.495 . S
C856 C855 1.392 . S
C856 C857 1.385 . S
C856 C858 1.478 . S
C857 H851 0.930 . S
C857 C853 1.400 . S
C857 C856 1.385 . S
C858 C856 1.478 . S
C858 C860 1.381 . S
C858 C864 1.383 . S
C859 C855 1.495 . S
C859 H865 0.959 . S
C859 H866 0.961 . S
C859 H867 0.960 . S
C860 C858 1.381 . S
C860 C861 1.394 . S
C860 H868 0.930 . S
C861 C860 1.394 . S
C861 C862 1.383 . S
C861 H869 0.929 . S
C862 C861 1.383 . S
C862 C863 1.377 . S
C863 H847 0.930 . S
C863 C862 1.377 . S
C863 C864 1.379 . S
C864 H848 0.931 . S
C864 C858 1.383 . S
C864 C863 1.379 . S
H865 C859 0.959 . S
H866 C859 0.961 . S
H867 C859 0.960 . S
H868 C860 0.930 . S
H869 C861 0.929 . S
H870 C878 0.929 . S
H871 C880 0.930 . S
H872 C882 0.930 . S
H873 C885 0.929 . S
H874 C888 0.930 . S
H875 C890 0.960 . S
H876 C890 0.960 . S
H877 C890 0.960 . S
C878 H870 0.929 . S
C878 C879 1.377 . S
C878 C880 1.384 . S
C879 C878 1.377 . S
C879 C885 1.390 . S
C880 H871 0.930 . S
C880 C878 1.384 . S
C880 C881 1.372 . S
C881 C880 1.372 . S
C881 C882 1.400 . S
C881 C886 1.490 . S
C882 H872 0.930 . S
C882 C881 1.400 . S
C882 C885 1.386 . S
H883 C899 0.930 . S
H884 C900 0.931 . S
C885 H873 0.929 . S
C885 C879 1.390 . S
C885 C882 1.386 . S
C886 C881 1.490 . S
C886 C888 1.395 . S
C886 C889 1.403 . S
H887 C893 0.930 . S
C888 H874 0.930 . S
C888 C886 1.395 . S
C888 C891 1.403 . S
C889 C886 1.403 . S
C889 C890 1.524 . S
C889 C893 1.400 . S
C890 H875 0.960 . S
C890 H876 0.960 . S
C890 H877 0.960 . S
C890 C889 1.524 . S
C891 C888 1.403 . S
C891 C892 1.392 . S
C891 C895 1.495 . S
C892 C891 1.392 . S
C892 C893 1.385 . S
C892 C894 1.478 . S
C893 H887 0.930 . S
C893 C889 1.400 . S
C893 C892 1.385 . S
C894 C892 1.478 . S
C894 C896 1.381 . S
C894 C900 1.383 . S
C895 C891 1.495 . S
C895 H901 0.959 . S
C895 H902 0.961 . S
C895 H903 0.960 . S
C896 C894 1.381 . S
C896 C897 1.394 . S
C896 H904 0.930 . S
C897 C896 1.394 . S
C897 C898 1.383 . S
C897 H905 0.929 . S
C898 C897 1.383 . S
C898 C899 1.377 . S
C899 H883 0.930 . S
C899 C898 1.377 . S
C899 C900 1.379 . S
C900 H884 0.931 . S
C900 C894 1.383 . S
C900 C899 1.379 . S
H901 C895 0.959 . S
H902 C895 0.961 . S
H903 C895 0.960 . S
H904 C896 0.930 . S
H905 C897 0.929 . S
H906 C914 0.929 . S
H907 C916 0.930 . S
H908 C918 0.930 . S
H909 C921 0.929 . S
H910 C924 0.930 . S
H911 C926 0.960 . S
H912 C926 0.960 . S
H913 C926 0.960 . S
C914 H906 0.929 . S
C914 C915 1.377 . S
C914 C916 1.384 . S
C915 C914 1.377 . S
C915 C921 1.390 . S
C916 H907 0.930 . S
C916 C914 1.384 . S
C916 C917 1.372 . S
C917 C916 1.372 . S
C917 C918 1.400 . S
C917 C922 1.490 . S
C918 H908 0.930 . S
C918 C917 1.400 . S
C918 C921 1.386 . S
H919 C935 0.930 . S
H920 C936 0.931 . S
C921 H909 0.929 . S
C921 C915 1.390 . S
C921 C918 1.386 . S
C922 C917 1.490 . S
C922 C924 1.395 . S
C922 C925 1.403 . S
H923 C929 0.930 . S
C924 H910 0.930 . S
C924 C922 1.395 . S
C924 C927 1.403 . S
C925 C922 1.403 . S
C925 C926 1.524 . S
C925 C929 1.400 . S
C926 H911 0.960 . S
C926 H912 0.960 . S
C926 H913 0.960 . S
C926 C925 1.524 . S
C927 C924 1.403 . S
C927 C928 1.392 . S
C927 C931 1.495 . S
C928 C927 1.392 . S
C928 C929 1.385 . S
C928 C930 1.478 . S
C929 H923 0.930 . S
C929 C925 1.400 . S
C929 C928 1.385 . S
C930 C928 1.478 . S
C930 C932 1.381 . S
C930 C936 1.383 . S
C931 C927 1.495 . S
C931 H937 0.959 . S
C931 H938 0.961 . S
C931 H939 0.960 . S
C932 C930 1.381 . S
C932 C933 1.394 . S
C932 H940 0.930 . S
C933 C932 1.394 . S
C933 C934 1.383 . S
C933 H941 0.929 . S
C934 C933 1.383 . S
C934 C935 1.377 . S
C935 H919 0.930 . S
C935 C934 1.377 . S
C935 C936 1.379 . S
C936 H920 0.931 . S
C936 C930 1.383 . S
C936 C935 1.379 . S
H937 C931 0.959 . S
H938 C931 0.961 . S
H939 C931 0.960 . S
H940 C932 0.930 . S
H941 C933 0.929 . S
H942 C950 0.929 . S
H943 C952 0.930 . S
H944 C954 0.930 . S
H945 C957 0.929 . S
H946 C960 0.930 . S
H947 C962 0.960 . S
H948 C962 0.960 . S
H949 C962 0.960 . S
C950 H942 0.929 . S
C950 C951 1.377 . S
C950 C952 1.384 . S
C951 C950 1.377 . S
C951 C957 1.390 . S
C952 H943 0.930 . S
C952 C950 1.384 . S
C952 C953 1.372 . S
C953 C952 1.372 . S
C953 C954 1.400 . S
C953 C958 1.490 . S
C954 H944 0.930 . S
C954 C953 1.400 . S
C954 C957 1.386 . S
H955 C971 0.930 . S
H956 C972 0.931 . S
C957 H945 0.929 . S
C957 C951 1.390 . S
C957 C954 1.386 . S
C958 C953 1.490 . S
C958 C960 1.395 . S
C958 C961 1.403 . S
H959 C965 0.930 . S
C960 H946 0.930 . S
C960 C958 1.395 . S
C960 C963 1.403 . S
C961 C958 1.403 . S
C961 C962 1.524 . S
C961 C965 1.400 . S
C962 H947 0.960 . S
C962 H948 0.960 . S
C962 H949 0.960 . S
C962 C961 1.524 . S
C963 C960 1.403 . S
C963 C964 1.392 . S
C963 C967 1.495 . S
C964 C963 1.392 . S
C964 C965 1.385 . S
C964 C966 1.478 . S
C965 H959 0.930 . S
C965 C961 1.400 . S
C965 C964 1.385 . S
C966 C964 1.478 . S
C966 C968 1.381 . S
C966 C972 1.383 . S
C967 C963 1.495 . S
C967 H973 0.959 . S
C967 H974 0.961 . S
C967 H975 0.960 . S
C968 C966 1.381 . S
C968 C969 1.394 . S
C968 H976 0.930 . S
C969 C968 1.394 . S
C969 C970 1.383 . S
C969 H977 0.929 . S
C970 C969 1.383 . S
C970 C971 1.377 . S
C971 H955 0.930 . S
C971 C970 1.377 . S
C971 C972 1.379 . S
C972 H956 0.931 . S
C972 C966 1.383 . S
C972 C971 1.379 . S
H973 C967 0.959 . S
H974 C967 0.961 . S
H975 C967 0.960 . S
H976 C968 0.930 . S
H977 C969 0.929 . S
H978 C986 0.929 . S
H979 C988 0.930 . S
H980 C990 0.930 . S
H981 C993 0.929 . S
H982 C996 0.930 . S
H983 C998 0.960 . S
H984 C998 0.960 . S
H985 C998 0.960 . S
C986 H978 0.929 . S
C986 C987 1.377 . S
C986 C988 1.384 . S
C987 C986 1.377 . S
C987 C993 1.390 . S
C988 H979 0.930 . S
C988 C986 1.384 . S
C988 C989 1.372 . S
C989 C988 1.372 . S
C989 C990 1.400 . S
C989 C994 1.490 . S
C990 H980 0.930 . S
C990 C989 1.400 . S
C990 C993 1.386 . S
H991 C1007 0.930 . S
H992 C1008 0.931 . S
C993 H981 0.929 . S
C993 C987 1.390 . S
C993 C990 1.386 . S
C994 C989 1.490 . S
C994 C996 1.395 . S
C994 C997 1.403 . S
H995 C1001 0.930 . S
C996 H982 0.930 . S
C996 C994 1.395 . S
C996 C999 1.403 . S
C997 C994 1.403 . S
C997 C998 1.524 . S
C997 C1001 1.400 . S
C998 H983 0.960 . S
C998 H984 0.960 . S
C998 H985 0.960 . S
C998 C997 1.524 . S
C999 C996 1.403 . S
C999 C1000 1.392 . S
C999 C1003 1.495 . S
C1000 C999 1.392 . S
C1000 C1001 1.385 . S
C1000 C1002 1.478 . S
C1001 H995 0.930 . S
C1001 C997 1.400 . S
C1001 C1000 1.385 . S
C1002 C1000 1.478 . S
C1002 C1004 1.381 . S
C1002 C1008 1.383 . S
C1003 C999 1.495 . S
C1003 H1009 0.959 . S
C1003 H1010 0.961 . S
C1003 H1011 0.960 . S
C1004 C1002 1.381 . S
C1004 C1005 1.394 . S
C1004 H1012 0.930 . S
C1005 C1004 1.394 . S
C1005 C1006 1.383 . S
C1005 H1013 0.929 . S
C1006 C1005 1.383 . S
C1006 C1007 1.377 . S
C1007 H991 0.930 . S
C1007 C1006 1.377 . S
C1007 C1008 1.379 . S
C1008 H992 0.931 . S
C1008 C1002 1.383 . S
C1008 C1007 1.379 . S
H1009 C1003 0.959 . S
H1010 C1003 0.961 . S
H1011 C1003 0.960 . S
H1012 C1004 0.930 . S
H1013 C1005 0.929 . S
H1014 C1022 0.929 . S
H1015 C1024 0.930 . S
H1016 C1026 0.930 . S
H1017 C1029 0.929 . S
H1018 C1032 0.930 . S
H1019 C1034 0.960 . S
H1020 C1034 0.960 . S
H1021 C1034 0.960 . S
C1022 H1014 0.929 . S
C1022 C1023 1.377 . S
C1022 C1024 1.384 . S
C1023 C1022 1.377 . S
C1023 C1029 1.390 . S
C1024 H1015 0.930 . S
C1024 C1022 1.384 . S
C1024 C1025 1.372 . S
C1025 C1024 1.372 . S
C1025 C1026 1.400 . S
C1025 C1030 1.490 . S
C1026 H1016 0.930 . S
C1026 C1025 1.400 . S
C1026 C1029 1.386 . S
H1027 C1043 0.930 . S
H1028 C1044 0.931 . S
C1029 H1017 0.929 . S
C1029 C1023 1.390 . S
C1029 C1026 1.386 . S
C1030 C1025 1.490 . S
C1030 C1032 1.395 . S
C1030 C1033 1.403 . S
H1031 C1037 0.930 . S
C1032 H1018 0.930 . S
C1032 C1030 1.395 . S
C1032 C1035 1.403 . S
C1033 C1030 1.403 . S
C1033 C1034 1.524 . S
C1033 C1037 1.400 . S
C1034 H1019 0.960 . S
C1034 H1020 0.960 . S
C1034 H1021 0.960 . S
C1034 C1033 1.524 . S
C1035 C1032 1.403 . S
C1035 C1036 1.392 . S
C1035 C1039 1.495 . S
C1036 C1035 1.392 . S
C1036 C1037 1.385 . S
C1036 C1038 1.478 . S
C1037 H1031 0.930 . S
C1037 C1033 1.400 . S
C1037 C1036 1.385 . S
C1038 C1036 1.478 . S
C1038 C1040 1.381 . S
C1038 C1044 1.383 . S
C1039 C1035 1.495 . S
C1039 H1045 0.959 . S
C1039 H1046 0.961 . S
C1039 H1047 0.960 . S
C1040 C1038 1.381 . S
C1040 C1041 1.394 . S
C1040 H1048 0.930 . S
C1041 C1040 1.394 . S
C1041 C1042 1.383 . S
C1041 H1049 0.929 . S
C1042 C1041 1.383 . S
C1042 C1043 1.377 . S
C1043 H1027 0.930 . S
C1043 C1042 1.377 . S
C1043 C1044 1.379 . S
C1044 H1028 0.931 . S
C1044 C1038 1.383 . S
C1044 C1043 1.379 . S
H1045 C1039 0.959 . S
H1046 C1039 0.961 . S
H1047 C1039 0.960 . S
H1048 C1040 0.930 . S
H1049 C1041 0.929 . S
H1050 C1058 0.929 . S
H1051 C1060 0.930 . S
H1052 C1062 0.930 . S
H1053 C1065 0.929 . S
H1054 C1068 0.930 . S
H1055 C1070 0.960 . S
H1056 C1070 0.960 . S
H1057 C1070 0.960 . S
C1058 H1050 0.929 . S
C1058 C1059 1.377 . S
C1058 C1060 1.384 . S
C1059 C1058 1.377 . S
C1059 C1065 1.390 . S
C1060 H1051 0.930 . S
C1060 C1058 1.384 . S
C1060 C1061 1.372 . S
C1061 C1060 1.372 . S
C1061 C1062 1.400 . S
C1061 C1066 1.490 . S
C1062 H1052 0.930 . S
C1062 C1061 1.400 . S
C1062 C1065 1.386 . S
H1063 C1079 0.930 . S
H1064 C1080 0.931 . S
C1065 H1053 0.929 . S
C1065 C1059 1.390 . S
C1065 C1062 1.386 . S
C1066 C1061 1.490 . S
C1066 C1068 1.395 . S
C1066 C1069 1.403 . S
H1067 C1073 0.930 . S
C1068 H1054 0.930 . S
C1068 C1066 1.395 . S
C1068 C1071 1.403 . S
C1069 C1066 1.403 . S
C1069 C1070 1.524 . S
C1069 C1073 1.400 . S
C1070 H1055 0.960 . S
C1070 H1056 0.960 . S
C1070 H1057 0.960 . S
C1070 C1069 1.524 . S
C1071 C1068 1.403 . S
C1071 C1072 1.392 . S
C1071 C1075 1.495 . S
C1072 C1071 1.392 . S
C1072 C1073 1.385 . S
C1072 C1074 1.478 . S
C1073 H1067 0.930 . S
C1073 C1069 1.400 . S
C1073 C1072 1.385 . S
C1074 C1072 1.478 . S
C1074 C1076 1.381 . S
C1074 C1080 1.383 . S
C1075 C1071 1.495 . S
C1075 H1081 0.959 . S
C1075 H1082 0.961 . S
C1075 H1083 0.960 . S
C1076 C1074 1.381 . S
C1076 C1077 1.394 . S
C1076 H1084 0.930 . S
C1077 C1076 1.394 . S
C1077 C1078 1.383 . S
C1077 H1085 0.929 . S
C1078 C1077 1.383 . S
C1078 C1079 1.377 . S
C1079 H1063 0.930 . S
C1079 C1078 1.377 . S
C1079 C1080 1.379 . S
C1080 H1064 0.931 . S
C1080 C1074 1.383 . S
C1080 C1079 1.379 . S
H1081 C1075 0.959 . S
H1082 C1075 0.961 . S
H1083 C1075 0.960 . S
H1084 C1076 0.930 . S
H1085 C1077 0.929 . S
H1086 C1094 0.929 . S
H1087 C1096 0.930 . S
H1088 C1098 0.930 . S
H1089 C1101 0.929 . S
H1090 C1104 0.930 . S
H1091 C1106 0.960 . S
H1092 C1106 0.960 . S
H1093 C1106 0.960 . S
C1094 H1086 0.929 . S
C1094 C1095 1.377 . S
C1094 C1096 1.384 . S
C1095 C1094 1.377 . S
C1095 C1101 1.390 . S
C1096 H1087 0.930 . S
C1096 C1094 1.384 . S
C1096 C1097 1.372 . S
C1097 C1096 1.372 . S
C1097 C1098 1.400 . S
C1097 C1102 1.490 . S
C1098 H1088 0.930 . S
C1098 C1097 1.400 . S
C1098 C1101 1.386 . S
H1099 C1115 0.930 . S
H1100 C1116 0.931 . S
C1101 H1089 0.929 . S
C1101 C1095 1.390 . S
C1101 C1098 1.386 . S
C1102 C1097 1.490 . S
C1102 C1104 1.395 . S
C1102 C1105 1.403 . S
H1103 C1109 0.930 . S
C1104 H1090 0.930 . S
C1104 C1102 1.395 . S
C1104 C1107 1.403 . S
C1105 C1102 1.403 . S
C1105 C1106 1.524 . S
C1105 C1109 1.400 . S
C1106 H1091 0.960 . S
C1106 H1092 0.960 . S
C1106 H1093 0.960 . S
C1106 C1105 1.524 . S
C1107 C1104 1.403 . S
C1107 C1108 1.392 . S
C1107 C1111 1.495 . S
C1108 C1107 1.392 . S
C1108 C1109 1.385 . S
C1108 C1110 1.478 . S
C1109 H1103 0.930 . S
C1109 C1105 1.400 . S
C1109 C1108 1.385 . S
C1110 C1108 1.478 . S
C1110 C1112 1.381 . S
C1110 C1116 1.383 . S
C1111 C1107 1.495 . S
C1111 H1117 0.959 . S
C1111 H1118 0.961 . S
C1111 H1119 0.960 . S
C1112 C1110 1.381 . S
C1112 C1113 1.394 . S
C1112 H1120 0.930 . S
C1113 C1112 1.394 . S
C1113 C1114 1.383 . S
C1113 H1121 0.929 . S
C1114 C1113 1.383 . S
C1114 C1115 1.377 . S
C1115 H1099 0.930 . S
C1115 C1114 1.377 . S
C1115 C1116 1.379 . S
C1116 H1100 0.931 . S
C1116 C1110 1.383 . S
C1116 C1115 1.379 . S
H1117 C1111 0.959 . S
H1118 C1111 0.961 . S
H1119 C1111 0.960 . S
H1120 C1112 0.930 . S
H1121 C1113 0.929 . S
H1122 C1130 0.929 . S
H1123 C1132 0.930 . S
H1124 C1134 0.930 . S
H1125 C1137 0.929 . S
H1126 C1140 0.930 . S
H1127 C1142 0.960 . S
H1128 C1142 0.960 . S
H1129 C1142 0.960 . S
C1130 H1122 0.929 . S
C1130 C1131 1.377 . S
C1130 C1132 1.384 . S
C1131 C1130 1.377 . S
C1131 C1137 1.390 . S
C1132 H1123 0.930 . S
C1132 C1130 1.384 . S
C1132 C1133 1.372 . S
C1133 C1132 1.372 . S
C1133 C1134 1.400 . S
C1133 C1138 1.490 . S
C1134 H1124 0.930 . S
C1134 C1133 1.400 . S
C1134 C1137 1.386 . S
H1135 C1151 0.930 . S
H1136 C1152 0.931 . S
C1137 H1125 0.929 . S
C1137 C1131 1.390 . S
C1137 C1134 1.386 . S
C1138 C1133 1.490 . S
C1138 C1140 1.395 . S
C1138 C1141 1.403 . S
H1139 C1145 0.930 . S
C1140 H1126 0.930 . S
C1140 C1138 1.395 . S
C1140 C1143 1.403 . S
C1141 C1138 1.403 . S
C1141 C1142 1.524 . S
C1141 C1145 1.400 . S
C1142 H1127 0.960 . S
C1142 H1128 0.960 . S
C1142 H1129 0.960 . S
C1142 C1141 1.524 . S
C1143 C1140 1.403 . S
C1143 C1144 1.392 . S
C1143 C1147 1.495 . S
C1144 C1143 1.392 . S
C1144 C1145 1.385 . S
C1144 C1146 1.478 . S
C1145 H1139 0.930 . S
C1145 C1141 1.400 . S
C1145 C1144 1.385 . S
C1146 C1144 1.478 . S
C1146 C1148 1.381 . S
C1146 C1152 1.383 . S
C1147 C1143 1.495 . S
C1147 H1153 0.959 . S
C1147 H1154 0.961 . S
C1147 H1155 0.960 . S
C1148 C1146 1.381 . S
C1148 C1149 1.394 . S
C1148 H1156 0.930 . S
C1149 C1148 1.394 . S
C1149 C1150 1.383 . S
C1149 H1157 0.929 . S
C1150 C1149 1.383 . S
C1150 C1151 1.377 . S
C1151 H1135 0.930 . S
C1151 C1150 1.377 . S
C1151 C1152 1.379 . S
C1152 H1136 0.931 . S
C1152 C1146 1.383 . S
C1152 C1151 1.379 . S
H1153 C1147 0.959 . S
H1154 C1147 0.961 . S
H1155 C1147 0.960 . S
H1156 C1148 0.930 . S
H1157 C1149 0.929 . S
H1158 C1166 0.929 . S
H1159 C1168 0.930 . S
H1160 C1170 0.930 . S
H1161 C1173 0.929 . S
H1162 C1176 0.930 . S
H1163 C1178 0.960 . S
H1164 C1178 0.960 . S
H1165 C1178 0.960 . S
C1166 H1158 0.929 . S
C1166 C1167 1.377 . S
C1166 C1168 1.384 . S
C1167 C1166 1.377 . S
C1167 C1173 1.390 . S
C1168 H1159 0.930 . S
C1168 C1166 1.384 . S
C1168 C1169 1.372 . S
C1169 C1168 1.372 . S
C1169 C1170 1.400 . S
C1169 C1174 1.490 . S
C1170 H1160 0.930 . S
C1170 C1169 1.400 . S
C1170 C1173 1.386 . S
H1171 C1187 0.930 . S
H1172 C1188 0.931 . S
C1173 H1161 0.929 . S
C1173 C1167 1.390 . S
C1173 C1170 1.386 . S
C1174 C1169 1.490 . S
C1174 C1176 1.395 . S
C1174 C1177 1.403 . S
H1175 C1181 0.930 . S
C1176 H1162 0.930 . S
C1176 C1174 1.395 . S
C1176 C1179 1.403 . S
C1177 C1174 1.403 . S
C1177 C1178 1.524 . S
C1177 C1181 1.400 . S
C1178 H1163 0.960 . S
C1178 H1164 0.960 . S
C1178 H1165 0.960 . S
C1178 C1177 1.524 . S
C1179 C1176 1.403 . S
C1179 C1180 1.392 . S
C1179 C1183 1.495 . S
C1180 C1179 1.392 . S
C1180 C1181 1.385 . S
C1180 C1182 1.478 . S
C1181 H1175 0.930 . S
C1181 C1177 1.400 . S
C1181 C1180 1.385 . S
C1182 C1180 1.478 . S
C1182 C1184 1.381 . S
C1182 C1188 1.383 . S
C1183 C1179 1.495 . S
C1183 H1189 0.959 . S
C1183 H1190 0.961 . S
C1183 H1191 0.960 . S
C1184 C1182 1.381 . S
C1184 C1185 1.394 . S
C1184 H1192 0.930 . S
C1185 C1184 1.394 . S
C1185 C1186 1.383 . S
C1185 H1193 0.929 . S
C1186 C1185 1.383 . S
C1186 C1187 1.377 . S
C1187 H1171 0.930 . S
C1187 C1186 1.377 . S
C1187 C1188 1.379 . S
C1188 H1172 0.931 . S
C1188 C1182 1.383 . S
C1188 C1187 1.379 . S
H1189 C1183 0.959 . S
H1190 C1183 0.961 . S
H1191 C1183 0.960 . S
H1192 C1184 0.930 . S
H1193 C1185 0.929 . S
H1194 C1202 0.929 . S
H1195 C1204 0.930 . S
H1196 C1206 0.930 . S
H1197 C1209 0.929 . S
H1198 C1212 0.930 . S
H1199 C1214 0.960 . S
H1200 C1214 0.960 . S
H1201 C1214 0.960 . S
C1202 H1194 0.929 . S
C1202 C1203 1.377 . S
C1202 C1204 1.384 . S
C1203 C1202 1.377 . S
C1203 C1209 1.390 . S
C1204 H1195 0.930 . S
C1204 C1202 1.384 . S
C1204 C1205 1.372 . S
C1205 C1204 1.372 . S
C1205 C1206 1.400 . S
C1205 C1210 1.490 . S
C1206 H1196 0.930 . S
C1206 C1205 1.400 . S
C1206 C1209 1.386 . S
H1207 C1223 0.930 . S
H1208 C1224 0.931 . S
C1209 H1197 0.929 . S
C1209 C1203 1.390 . S
C1209 C1206 1.386 . S
C1210 C1205 1.490 . S
C1210 C1212 1.395 . S
C1210 C1213 1.403 . S
H1211 C1217 0.930 . S
C1212 H1198 0.930 . S
C1212 C1210 1.395 . S
C1212 C1215 1.403 . S
C1213 C1210 1.403 . S
C1213 C1214 1.524 . S
C1213 C1217 1.400 . S
C1214 H1199 0.960 . S
C1214 H1200 0.960 . S
C1214 H1201 0.960 . S
C1214 C1213 1.524 . S
C1215 C1212 1.403 . S
C1215 C1216 1.392 . S
C1215 C1219 1.495 . S
C1216 C1215 1.392 . S
C1216 C1217 1.385 . S
C1216 C1218 1.478 . S
C1217 H1211 0.930 . S
C1217 C1213 1.400 . S
C1217 C1216 1.385 . S
C1218 C1216 1.478 . S
C1218 C1220 1.381 . S
C1218 C1224 1.383 . S
C1219 C1215 1.495 . S
C1219 H1225 0.959 . S
C1219 H1226 0.961 . S
C1219 H1227 0.960 . S
C1220 C1218 1.381 . S
C1220 C1221 1.394 . S
C1220 H1228 0.930 . S
C1221 C1220 1.394 . S
C1221 C1222 1.383 . S
C1221 H1229 0.929 . S
C1222 C1221 1.383 . S
C1222 C1223 1.377 . S
C1223 H1207 0.930 . S
C1223 C1222 1.377 . S
C1223 C1224 1.379 . S
C1224 H1208 0.931 . S
C1224 C1218 1.383 . S
C1224 C1223 1.379 . S
H1225 C1219 0.959 . S
H1226 C1219 0.961 . S
H1227 C1219 0.960 . S
H1228 C1220 0.930 . S
H1229 C1221 0.929 . S
H1230 C1238 0.929 . S
H1231 C1240 0.930 . S
H1232 C1242 0.930 . S
H1233 C1245 0.929 . S
H1234 C1248 0.930 . S
H1235 C1250 0.960 . S
H1236 C1250 0.960 . S
H1237 C1250 0.960 . S
C1238 H1230 0.929 . S
C1238 C1239 1.377 . S
C1238 C1240 1.384 . S
C1239 C1238 1.377 . S
C1239 C1245 1.390 1_455 S
C1240 H1231 0.930 . S
C1240 C1238 1.384 . S
C1240 C1241 1.372 1_455 S
C1241 C1240 1.372 1_655 S
C1241 C1242 1.400 . S
C1241 C1246 1.490 . S
C1242 H1232 0.930 . S
C1242 C1241 1.400 . S
C1242 C1245 1.386 . S
H1243 C1259 0.930 . S
H1244 C1260 0.931 . S
C1245 H1233 0.929 . S
C1245 C1239 1.390 1_655 S
C1245 C1242 1.386 . S
C1246 C1241 1.490 . S
C1246 C1248 1.395 . S
C1246 C1249 1.403 . S
H1247 C1253 0.930 . S
C1248 H1234 0.930 . S
C1248 C1246 1.395 . S
C1248 C1251 1.403 . S
C1249 C1246 1.403 . S
C1249 C1250 1.524 . S
C1249 C1253 1.400 . S
C1250 H1235 0.960 . S
C1250 H1236 0.960 . S
C1250 H1237 0.960 . S
C1250 C1249 1.524 . S
C1251 C1248 1.403 . S
C1251 C1252 1.392 . S
C1251 C1255 1.495 . S
C1252 C1251 1.392 . S
C1252 C1253 1.385 . S
C1252 C1254 1.478 . S
C1253 H1247 0.930 . S
C1253 C1249 1.400 . S
C1253 C1252 1.385 . S
C1254 C1252 1.478 . S
C1254 C1256 1.381 . S
C1254 C1260 1.383 . S
C1255 C1251 1.495 . S
C1255 H1261 0.959 . S
C1255 H1262 0.961 . S
C1255 H1263 0.960 . S
C1256 C1254 1.381 . S
C1256 C1257 1.394 . S
C1256 H1264 0.930 . S
C1257 C1256 1.394 . S
C1257 C1258 1.383 . S
C1257 H1265 0.929 . S
C1258 C1257 1.383 . S
C1258 C1259 1.377 . S
C1259 H1243 0.930 . S
C1259 C1258 1.377 . S
C1259 C1260 1.379 . S
C1260 H1244 0.931 . S
C1260 C1254 1.383 . S
C1260 C1259 1.379 . S
H1261 C1255 0.959 . S
H1262 C1255 0.961 . S
H1263 C1255 0.960 . S
H1264 C1256 0.930 . S
H1265 C1257 0.929 . S
H1266 C1274 0.929 . S
H1267 C1276 0.930 . S
H1268 C1278 0.930 . S
H1269 C1281 0.929 . S
H1270 C1284 0.930 . S
H1271 C1286 0.960 . S
H1272 C1286 0.960 . S
H1273 C1286 0.960 . S
C1274 H1266 0.929 . S
C1274 C1275 1.377 . S
C1274 C1276 1.384 . S
C1275 C1274 1.377 . S
C1275 C1281 1.390 . S
C1276 H1267 0.930 . S
C1276 C1274 1.384 . S
C1276 C1277 1.372 . S
C1277 C1276 1.372 . S
C1277 C1278 1.400 . S
C1277 C1282 1.490 . S
C1278 H1268 0.930 . S
C1278 C1277 1.400 . S
C1278 C1281 1.386 . S
H1279 C1295 0.930 . S
H1280 C1296 0.931 . S
C1281 H1269 0.929 . S
C1281 C1275 1.390 . S
C1281 C1278 1.386 . S
C1282 C1277 1.490 . S
C1282 C1284 1.395 . S
C1282 C1285 1.403 . S
H1283 C1289 0.930 . S
C1284 H1270 0.930 . S
C1284 C1282 1.395 . S
C1284 C1287 1.403 . S
C1285 C1282 1.403 . S
C1285 C1286 1.524 . S
C1285 C1289 1.400 . S
C1286 H1271 0.960 . S
C1286 H1272 0.960 . S
C1286 H1273 0.960 . S
C1286 C1285 1.524 . S
C1287 C1284 1.403 . S
C1287 C1288 1.392 . S
C1287 C1291 1.495 . S
C1288 C1287 1.392 . S
C1288 C1289 1.385 . S
C1288 C1290 1.478 . S
C1289 H1283 0.930 . S
C1289 C1285 1.400 . S
C1289 C1288 1.385 . S
C1290 C1288 1.478 . S
C1290 C1292 1.381 . S
C1290 C1296 1.383 . S
C1291 C1287 1.495 . S
C1291 H1297 0.959 . S
C1291 H1298 0.961 . S
C1291 H1299 0.960 . S
C1292 C1290 1.381 . S
C1292 C1293 1.394 . S
C1292 H1300 0.930 . S
C1293 C1292 1.394 . S
C1293 C1294 1.383 . S
C1293 H1301 0.929 . S
C1294 C1293 1.383 . S
C1294 C1295 1.377 . S
C1295 H1279 0.930 . S
C1295 C1294 1.377 . S
C1295 C1296 1.379 . S
C1296 H1280 0.931 . S
C1296 C1290 1.383 . S
C1296 C1295 1.379 . S
H1297 C1291 0.959 . S
H1298 C1291 0.961 . S
H1299 C1291 0.960 . S
H1300 C1292 0.930 . S
H1301 C1293 0.929 . S
H1302 C1310 0.929 . S
H1303 C1312 0.930 . S
H1304 C1314 0.930 . S
H1305 C1317 0.929 . S
H1306 C1320 0.930 . S
H1307 C1322 0.960 . S
H1308 C1322 0.960 . S
H1309 C1322 0.960 . S
C1310 H1302 0.929 . S
C1310 C1311 1.377 . S
C1310 C1312 1.384 . S
C1311 C1310 1.377 . S
C1311 C1317 1.390 . S
C1312 H1303 0.930 . S
C1312 C1310 1.384 . S
C1312 C1313 1.372 . S
C1313 C1312 1.372 . S
C1313 C1314 1.400 . S
C1313 C1318 1.490 . S
C1314 H1304 0.930 . S
C1314 C1313 1.400 . S
C1314 C1317 1.386 . S
H1315 C1331 0.930 . S
H1316 C1332 0.931 . S
C1317 H1305 0.929 . S
C1317 C1311 1.390 . S
C1317 C1314 1.386 . S
C1318 C1313 1.490 . S
C1318 C1320 1.395 . S
C1318 C1321 1.403 . S
H1319 C1325 0.930 . S
C1320 H1306 0.930 . S
C1320 C1318 1.395 . S
C1320 C1323 1.403 . S
C1321 C1318 1.403 . S
C1321 C1322 1.524 . S
C1321 C1325 1.400 . S
C1322 H1307 0.960 . S
C1322 H1308 0.960 . S
C1322 H1309 0.960 . S
C1322 C1321 1.524 . S
C1323 C1320 1.403 . S
C1323 C1324 1.392 . S
C1323 C1327 1.495 . S
C1324 C1323 1.392 . S
C1324 C1325 1.385 . S
C1324 C1326 1.478 . S
C1325 H1319 0.930 . S
C1325 C1321 1.400 . S
C1325 C1324 1.385 . S
C1326 C1324 1.478 . S
C1326 C1328 1.381 . S
C1326 C1332 1.383 . S
C1327 C1323 1.495 . S
C1327 H1333 0.959 . S
C1327 H1334 0.961 . S
C1327 H1335 0.960 . S
C1328 C1326 1.381 . S
C1328 C1329 1.394 . S
C1328 H1336 0.930 . S
C1329 C1328 1.394 . S
C1329 C1330 1.383 . S
C1329 H1337 0.929 . S
C1330 C1329 1.383 . S
C1330 C1331 1.377 . S
C1331 H1315 0.930 . S
C1331 C1330 1.377 . S
C1331 C1332 1.379 . S
C1332 H1316 0.931 . S
C1332 C1326 1.383 . S
C1332 C1331 1.379 . S
H1333 C1327 0.959 . S
H1334 C1327 0.961 . S
H1335 C1327 0.960 . S
H1336 C1328 0.930 . S
H1337 C1329 0.929 . S
H1338 C1346 0.929 . S
H1339 C1348 0.930 . S
H1340 C1350 0.930 . S
H1341 C1353 0.929 . S
H1342 C1356 0.930 . S
H1343 C1358 0.960 . S
H1344 C1358 0.960 . S
H1345 C1358 0.960 . S
C1346 H1338 0.929 . S
C1346 C1347 1.377 . S
C1346 C1348 1.384 . S
C1347 C1346 1.377 . S
C1347 C1353 1.390 . S
C1348 H1339 0.930 . S
C1348 C1346 1.384 . S
C1348 C1349 1.372 . S
C1349 C1348 1.372 . S
C1349 C1350 1.400 . S
C1349 C1354 1.490 . S
C1350 H1340 0.930 . S
C1350 C1349 1.400 . S
C1350 C1353 1.386 . S
H1351 C1367 0.930 . S
H1352 C1368 0.931 . S
C1353 H1341 0.929 . S
C1353 C1347 1.390 . S
C1353 C1350 1.386 . S
C1354 C1349 1.490 . S
C1354 C1356 1.395 . S
C1354 C1357 1.403 . S
H1355 C1361 0.930 . S
C1356 H1342 0.930 . S
C1356 C1354 1.395 . S
C1356 C1359 1.403 . S
C1357 C1354 1.403 . S
C1357 C1358 1.524 . S
C1357 C1361 1.400 . S
C1358 H1343 0.960 . S
C1358 H1344 0.960 . S
C1358 H1345 0.960 . S
C1358 C1357 1.524 . S
C1359 C1356 1.403 . S
C1359 C1360 1.392 . S
C1359 C1363 1.495 . S
C1360 C1359 1.392 . S
C1360 C1361 1.385 . S
C1360 C1362 1.478 . S
C1361 H1355 0.930 . S
C1361 C1357 1.400 . S
C1361 C1360 1.385 . S
C1362 C1360 1.478 . S
C1362 C1364 1.381 . S
C1362 C1368 1.383 . S
C1363 C1359 1.495 . S
C1363 H1369 0.959 . S
C1363 H1370 0.961 . S
C1363 H1371 0.960 . S
C1364 C1362 1.381 . S
C1364 C1365 1.394 . S
C1364 H1372 0.930 . S
C1365 C1364 1.394 . S
C1365 C1366 1.383 . S
C1365 H1373 0.929 . S
C1366 C1365 1.383 . S
C1366 C1367 1.377 . S
C1367 H1351 0.930 . S
C1367 C1366 1.377 . S
C1367 C1368 1.379 . S
C1368 H1352 0.931 . S
C1368 C1362 1.383 . S
C1368 C1367 1.379 . S
H1369 C1363 0.959 . S
H1370 C1363 0.961 . S
H1371 C1363 0.960 . S
H1372 C1364 0.930 . S
H1373 C1365 0.929 . S
C519 C7 1.786 . S
C538 C191 1.715 . S
C555 C30 1.685 . S
C574 C235 1.637 . S
C610 C315 1.596 . S
C591 N58 1.578 . S
C646 C359 1.398 . S
C627 N81 1.399 1_655 S
C682 C439 1.738 . S
C663 C99 1.783 . S
C718 C495 1.611 . S
C699 N127 1.661 . S
C735 N25 1.910 . S
C754 C291 1.748 . S
C771 C62 1.559 . S
C790 C371 1.502 . S
C826 C415 1.790 . S
C807 C85 1.952 . S
C862 C483 1.456 . S
C843 N94 1.434 . S
C879 C131 1.762 . S
C898 C167 1.669 . S
C934 C247 1.551 . S
C915 N2 1.612 1_556 S
C970 C353 1.807 . S
C951 C16 1.890 1_556 S
C987 C39 1.576 . S
C1006 C433 1.450 . S
C1042 C501 1.568 . S
C1023 N48 1.576 . S
C1059 N71 1.523 . S
C1078 C185 1.421 . S
C1095 C108 1.722 . S
C1114 C229 1.605 . S
C1131 N117 1.707 . S
C1150 C309 1.544 . S
C1167 N35 1.881 . S
C1186 C477 1.805 . S
C1222 C173 1.583 . S
C1203 C53 1.652 . S
C1239 C76 1.807 . S
C1258 C253 1.737 . S
C1275 N104 1.346 . S
C1294 C297 1.309 . S
C1311 C122 1.782 . S
C1330 C377 1.742 . S
C1347 N12 1.416 . S
C1366 C421 1.388 . S
