# Generated by pormake.
# Topology rtl, (3,6)-cn, num edge types: 1
# Building blocks:
#     Node 0, Type 0, BuildingBlock: BETDAH_clean_linker_0, # of connection points: 3
#     Node 1, Type 0, BuildingBlock: BETDAH_clean_linker_0, # of connection points: 3
#     Node 2, Type 0, BuildingBlock: BETDAH_clean_linker_0, # of connection points: 3
#     Node 3, Type 0, BuildingBlock: BETDAH_clean_linker_0, # of connection points: 3
#     Node 4, Type 1, BuildingBlock: KUMJIN_clean_sbu_1, # of connection points: 6
#     Node 5, Type 1, BuildingBlock: KUMJIN_clean_sbu_1, # of connection points: 6
#     Edge 6, Type (0, 1), BuildingBlock: EZIPEK_clean_linker_0, # of connection points: 2
#     Edge 7, Type (0, 1), BuildingBlock: EZIPEK_clean_linker_0, # of connection points: 2
#     Edge 8, Type (0, 1), BuildingBlock: EZIPEK_clean_linker_0, # of connection points: 2
#     Edge 9, Type (0, 1), BuildingBlock: EZIPEK_clean_linker_0, # of connection points: 2
#     Edge 10, Type (0, 1), BuildingBlock: EZIPEK_clean_linker_0, # of connection points: 2
#     Edge 11, Type (0, 1), BuildingBlock: EZIPEK_clean_linker_0, # of connection points: 2
#     Edge 12, Type (0, 1), BuildingBlock: EZIPEK_clean_linker_0, # of connection points: 2
#     Edge 13, Type (0, 1), BuildingBlock: EZIPEK_clean_linker_0, # of connection points: 2
#     Edge 14, Type (0, 1), BuildingBlock: EZIPEK_clean_linker_0, # of connection points: 2
#     Edge 15, Type (0, 1), BuildingBlock: EZIPEK_clean_linker_0, # of connection points: 2
#     Edge 16, Type (0, 1), BuildingBlock: EZIPEK_clean_linker_0, # of connection points: 2
#     Edge 17, Type (0, 1), BuildingBlock: EZIPEK_clean_linker_0, # of connection points: 2
# Relax obj value: 0.051
# Max RMSD: 0.239
# Mean RMSD: 0.169
data_MOF--net-rtl--node1-KUMJIN_clean_sbu_1--node2-BETDAH_clean_linker_0--edge1-EZIPEK_clean_linker_0
_symmetry_space_group_name_H-M    P1
_symmetry_Int_Tables_number       1
_symmetry_cell_setting            triclinic
loop_
_symmetry_equiv_pos_as_xyz
'x, y, z'
_cell_length_a     26.232795
_cell_length_b     26.533895
_cell_length_c     20.570501
_cell_angle_alpha  74.780112
_cell_angle_beta   100.96669
_cell_angle_gamma 91.645281
loop_
_atom_site_label
_atom_site_type_symbol
_atom_site_fract_x
_atom_site_fract_y
_atom_site_fract_z
_atom_type_partial_charge
H0 H 0.12203 0.89695 0.99919 0.0
H1 H 0.27109 0.83091 0.11176 0.0
H2 H 0.23672 0.86211 0.89206 0.0
C3 C 0.15949 0.88017 1.00027 0.0
C4 C 0.17471 0.88004 0.9384 0.0
C5 C 0.19376 0.86178 0.06323 0.0
C6 C 0.24345 0.84271 0.06384 0.0
C7 C 0.25864 0.84196 1.00214 0.0
C8 C 0.22398 0.86009 0.93982 0.0
N9 N 0.31141 0.83334 1.00099 0.0
C10 C 0.33355 0.78398 0.01344 0.0
H11 H 0.65853 0.59337 0.70842 0.0
H12 H 0.72986 0.72943 0.5995 0.0
H13 H 0.66035 0.73723 0.76925 0.0
C14 C 0.66928 0.63383 0.70239 0.0
C15 C 0.65712 0.66138 0.74792 0.0
C16 C 0.6929 0.65907 0.64664 0.0
C17 C 0.71044 0.71039 0.64119 0.0
C18 C 0.69991 0.73804 0.68687 0.0
C19 C 0.67078 0.71439 0.73692 0.0
N20 N 0.71583 0.79036 0.68265 0.0
C21 C 0.75582 0.81519 0.65113 0.0
H22 H 0.86779 0.09902 0.12962 0.0
H23 H 0.74605 0.17549 0.18436 0.0
H24 H 0.74227 0.17818 0.97304 0.0
C25 C 0.83146 0.1213 0.11488 0.0
C26 C 0.8078 0.13743 0.04587 0.0
C27 C 0.8093 0.13459 0.16492 0.0
C28 C 0.76308 0.16494 0.14563 0.0
C29 C 0.73863 0.18049 0.07607 0.0
C30 C 0.76089 0.16608 0.02663 0.0
N31 N 0.69058 0.2085 0.05441 0.0
C32 C 0.67934 0.25154 0.07625 0.0
H33 H 0.39034 0.41325 0.46017 0.0
H34 H 0.29045 0.28885 0.5359 0.0
H35 H 0.33193 0.30825 0.3379 0.0
C36 C 0.36681 0.3801 0.45316 0.0
C37 C 0.36345 0.36432 0.39283 0.0
C38 C 0.3407 0.35306 0.50496 0.0
C39 C 0.31015 0.3099 0.49569 0.0
C40 C 0.30702 0.29355 0.43507 0.0
C41 C 0.33389 0.32095 0.38429 0.0
N42 N 0.28016 0.24837 0.42381 0.0
C43 C 0.24104 0.22251 0.45606 0.0
Eu44 Eu 0.02881 0.95983 0.51608 0.0
C45 C 0.96268 0.19657 0.50512 0.0
N46 N 0.99716 0.16301 0.55386 0.0
C47 C 0.0562 0.23282 0.56192 0.0
C48 C 0.97429 0.24983 0.48209 0.0
C49 C 0.04282 0.18056 0.58373 0.0
C50 C 0.02197 0.26754 0.51053 0.0
C51 C 0.87801 0.2125 0.43004 0.0
C52 C 0.91506 0.17807 0.47923 0.0
C53 C 0.88988 0.26527 0.4063 0.0
C54 C 0.9379 0.28385 0.43214 0.0
Eu55 Eu 0.97268 0.0747 0.58408 0.0
N56 N 0.90504 0.12641 0.50165 0.0
C57 C 0.83 0.19295 0.40611 0.0
C58 C 0.85746 0.10767 0.47999 0.0
C59 C 0.81961 0.14037 0.43152 0.0
H60 H 0.06895 0.15427 0.62482 0.0
H61 H 0.78283 0.12472 0.41278 0.0
H62 H 0.95081 0.86127 0.48987 0.0
H63 H 0.22239 0.95331 0.67272 0.0
H64 H 0.85042 0.06669 0.49535 0.0
H65 H 0.80073 0.2181 0.36806 0.0
H66 H 0.14783 0.9928 0.5813 0.0
H67 H 0.09276 0.24634 0.58508 0.0
H68 H 0.86203 0.29214 0.36823 0.0
H69 H 0.94629 0.3248 0.41369 0.0
H70 H 0.94726 0.76555 0.53701 0.0
H71 H 0.03234 0.30811 0.494 0.0
H72 H 0.22094 0.86 0.73552 0.0
N73 N 0.02246 0.86823 0.55517 0.0
C74 C 0.06175 0.84328 0.60559 0.0
C75 C 0.97967 0.78695 0.55668 0.0
C76 C 0.06095 0.78894 0.63457 0.0
C77 C 0.98183 0.84103 0.53005 0.0
C78 C 0.01917 0.76084 0.60954 0.0
N79 N 0.10368 0.92417 0.59708 0.0
C80 C 0.14658 0.95271 0.61009 0.0
C81 C 0.14548 0.84736 0.67842 0.0
C82 C 0.10354 0.87204 0.62729 0.0
C83 C 0.18803 0.87743 0.6962 0.0
C84 C 0.18896 0.93015 0.661 0.0
H85 H 0.01717 0.71901 0.63041 0.0
H86 H 0.10182 0.72269 0.71028 0.0
H87 H 0.17574 0.77388 0.74877 0.0
O88 O 0.08143 0.97819 0.44245 0.0
O89 O 0.03948 0.9501 0.63311 0.0
O90 O 0.04662 0.03315 0.64512 0.0
O91 O 0.02645 0.91686 0.43798 0.0
O92 O 0.06417 0.04057 0.49047 0.0
O93 O 0.0582 0.07758 0.57796 0.0
O94 O 0.92465 0.04957 0.66194 0.0
O95 O 0.9529 0.08204 0.47088 0.0
O96 O 0.9561 1.00191 0.44684 0.0
O97 O 0.9654 0.12198 0.65442 0.0
O98 O 0.93439 0.99451 0.60666 0.0
O99 O 0.94418 0.94798 0.5281 0.0
C100 C 0.05202 0.98288 0.67194 0.0
C101 C 0.10525 0.90822 0.4015 0.0
C102 C 0.14804 0.87669 0.32325 0.0
C103 C 0.18082 0.84449 0.37999 0.0
C104 C 0.13876 0.87594 0.45729 0.0
C105 C 0.17618 0.84423 0.44655 0.0
C106 C 0.11007 0.9086 0.33417 0.0
C107 C 0.07778 0.07626 0.52404 0.0
C108 C 0.06513 0.94109 0.41322 0.0
C109 C 0.10197 0.76435 0.68699 0.0
C110 C 0.14406 0.79351 0.70897 0.0
C111 C 0.94205 0.05167 0.42947 0.0
C112 C 0.9507 0.07615 0.76323 0.0
C113 C 0.93145 0.08002 0.87259 0.0
C114 C 0.97834 0.05316 0.90648 0.0
C115 C 0.99723 0.04904 0.79742 0.0
C116 C 0.91764 0.09134 0.80095 0.0
C117 C 0.01106 0.03756 0.86881 0.0
C118 C 0.92049 0.95727 0.57535 0.0
C119 C 0.9362 0.0889 0.68837 0.0
H120 H 0.2102 0.81975 0.37262 0.0
H121 H 0.1361 0.8752 0.50916 0.0
H122 H 0.20177 0.81942 0.49003 0.0
H123 H 0.08454 0.93349 0.29057 0.0
H124 H 0.98935 0.04422 0.96184 0.0
H125 H 0.02258 0.037 0.76868 0.0
H126 H 0.88145 0.1122 0.77478 0.0
H127 H 0.04714 0.01663 0.89485 0.0
Eu128 Eu 0.45905 0.48305 0.02003 0.0
C129 C 0.67715 0.59865 0.11365 0.0
N130 N 0.65749 0.55008 0.12082 0.0
C131 C 0.73584 0.5187 0.09932 0.0
C132 C 0.72669 0.60956 0.09679 0.0
C133 C 0.68679 0.50976 0.11672 0.0
C134 C 0.7557 0.56898 0.08858 0.0
C135 C 0.66767 0.68803 0.11873 0.0
C136 C 0.64802 0.63728 0.12454 0.0
C137 C 0.71655 0.69937 0.10069 0.0
C138 C 0.74599 0.66022 0.08974 0.0
Eu139 Eu 0.57474 0.53743 0.15113 0.0
N140 N 0.60068 0.62522 0.14122 0.0
C141 C 0.63779 0.72581 0.13171 0.0
C142 C 0.57246 0.66144 0.15692 0.0
C143 C 0.59018 0.71229 0.1515 0.0
H144 H 0.67254 0.47057 0.12731 0.0
H145 H 0.56735 0.74085 0.16338 0.0
H146 H 0.35429 0.56668 0.98445 0.0
H147 H 0.47123 0.27357 0.13961 0.0
H148 H 0.53659 0.65108 0.17509 0.0
H149 H 0.65153 0.76521 0.12781 0.0
H150 H 0.49796 0.35788 0.07049 0.0
H151 H 0.75851 0.48672 0.09495 0.0
H152 H 0.73213 0.73818 0.09565 0.0
H153 H 0.78385 0.66939 0.07648 0.0
H154 H 0.2698 0.56768 0.01872 0.0
H155 H 0.79387 0.57579 0.07551 0.0
H156 H 0.39054 0.26959 0.18646 0.0
N157 N 0.37535 0.4893 0.04633 0.0
C158 C 0.35806 0.44441 0.08471 0.0
C159 C 0.29456 0.533 0.03848 0.0
C160 C 0.30915 0.44308 0.10418 0.0
C161 C 0.34324 0.53253 0.02033 0.0
C162 C 0.27777 0.48838 0.08144 0.0
N163 N 0.43504 0.40092 0.08243 0.0
C164 C 0.46327 0.35633 0.0919 0.0
C165 C 0.37148 0.35186 0.14198 0.0
C166 C 0.38857 0.39903 0.10302 0.0
C167 C 0.40232 0.30657 0.15661 0.0
C168 C 0.44795 0.30866 0.13039 0.0
H169 H 0.24001 0.48892 0.09537 0.0
H170 H 0.25575 0.39516 0.16133 0.0
H171 H 0.31046 0.31542 0.19473 0.0
O172 O 0.46521 0.44157 0.9422 0.0
O173 O 0.47951 0.44773 0.13519 0.0
O174 O 0.49588 0.51776 0.17873 0.0
O175 O 0.39574 0.48572 0.9334 0.0
O176 O 0.5412 0.45311 0.03312 0.0
O177 O 0.57896 0.45293 0.14472 0.0
O178 O 0.58515 0.55652 0.24975 0.0
O179 O 0.58622 0.5507 0.04024 0.0
O180 O 0.50452 0.55267 0.9699 0.0
O181 O 0.62224 0.48704 0.24376 0.0
O182 O 0.5037 0.59112 0.10781 0.0
O183 O 0.44512 0.56723 0.02032 0.0
C184 C 0.47299 0.47343 0.17924 0.0
C185 C 0.41567 0.47613 0.83051 0.0
C186 C 0.39357 0.45943 0.71739 0.0
C187 C 0.40285 0.51197 0.68726 0.0
C188 C 0.4243 0.52863 0.79947 0.0
C189 C 0.41814 0.5463 0.72817 0.0
C190 C 0.40012 0.4416 0.78926 0.0
C191 C 0.57478 0.43436 0.09032 0.0
C192 C 0.41981 0.45756 0.90533 0.0
C193 C 0.2928 0.39658 0.145 0.0
C194 C 0.32395 0.35115 0.16404 0.0
C195 C 0.55483 0.56245 0.97942 0.0
C196 C 0.66503 0.53234 0.32468 0.0
C197 C 0.70459 0.5677 0.42087 0.0
C198 C 0.75297 0.56698 0.40133 0.0
C199 C 0.71383 0.53194 0.30619 0.0
C200 C 0.66077 0.54978 0.3826 0.0
C201 C 0.7575 0.54892 0.34462 0.0
C202 C 0.46136 0.59891 0.05976 0.0
C203 C 0.61763 0.5182 0.28204 0.0
H204 H 0.39804 0.52637 0.63201 0.0
H205 H 0.43566 0.55591 0.83039 0.0
H206 H 0.42499 0.5868 0.70451 0.0
H207 H 0.39264 0.40116 0.8128 0.0
H208 H 0.78711 0.58086 0.42969 0.0
H209 H 0.71817 0.51916 0.26168 0.0
H210 H 0.62315 0.55083 0.39682 0.0
H211 H 0.79493 0.54873 0.32982 0.0
C212 C 0.16369 0.17345 0.41974 0.0
C213 C 0.19829 0.18815 0.47324 0.0
C214 C 0.1603 0.12326 0.55824 0.0
C215 C 0.1212 0.11252 0.50538 0.0
N216 N 0.08458 0.13148 0.38354 0.0
N217 N 0.22486 0.18295 0.59329 0.0
C218 C 0.12273 0.13854 0.43549 0.0
C219 C 0.19487 0.16512 0.54239 0.0
N220 N 0.17092 0.19153 0.35346 0.0
N221 N 0.16755 0.09069 0.6229 0.0
H222 H 0.25179 0.21229 0.58358 0.0
H223 H 0.21977 0.17182 0.6441 0.0
H224 H 0.14684 0.05667 0.63523 0.0
H225 H 0.19845 0.09348 0.66183 0.0
H226 H 0.15218 0.1765 0.31348 0.0
H227 H 0.19841 0.21924 0.3388 0.0
H228 H 0.07893 0.15587 0.33389 0.0
H229 H 0.05655 0.10319 0.38958 0.0
C230 C 0.38639 0.70922 0.09352 0.0
C231 C 0.36329 0.73585 0.02573 0.0
C232 C 0.41073 0.67844 0.9809 0.0
C233 C 0.42937 0.64745 0.04884 0.0
N234 N 0.42761 0.63034 0.17057 0.0
N235 N 0.34606 0.74125 0.90489 0.0
C236 C 0.41542 0.6621 0.10546 0.0
C237 C 0.37296 0.71883 0.96945 0.0
N238 N 0.3816 0.72953 0.14677 0.0
N239 N 0.43168 0.67184 0.92765 0.0
H240 H 0.31869 0.77148 0.89461 0.0
H241 H 0.34749 0.72674 0.86285 0.0
H242 H 0.46255 0.64598 0.93443 0.0
H243 H 0.42296 0.69641 0.87817 0.0
H244 H 0.40328 0.71591 0.19616 0.0
H245 H 0.35881 0.76267 0.14056 0.0
H246 H 0.41206 0.63566 0.21133 0.0
H247 H 0.44975 0.5962 0.18385 0.0
C248 C 0.78524 0.90354 0.59897 0.0
C249 C 0.79666 0.84955 0.62668 0.0
C250 C 0.88941 0.86631 0.62758 0.0
C251 C 0.87812 0.92068 0.59837 0.0
N252 N 0.81726 0.99074 0.58635 0.0
N253 N 0.85785 0.77767 0.65855 0.0
C254 C 0.8265 0.9394 0.59187 0.0
C255 C 0.8483 0.8304 0.63862 0.0
N256 N 0.73461 0.92074 0.57862 0.0
N257 N 0.93979 0.8498 0.65198 0.0
H258 H 0.82858 0.75065 0.66741 0.0
H259 H 0.8936 0.76064 0.66059 0.0
H260 H 0.9705 0.87525 0.64721 0.0
H261 H 0.95102 0.8124 0.68238 0.0
H262 H 0.72364 0.95886 0.55062 0.0
H263 H 0.70338 0.89565 0.58358 0.0
H264 H 0.78119 0.00593 0.58675 0.0
H265 H 0.84696 0.01642 0.59321 0.0
C266 C 0.66008 0.34664 0.03364 0.0
C267 C 0.66138 0.29974 0.08642 0.0
C268 C 0.6093 0.34149 0.14542 0.0
C269 C 0.60836 0.38906 0.09307 0.0
N270 N 0.64375 0.44018 0.99683 0.0
N271 N 0.64898 0.25544 0.20002 0.0
C272 C 0.63709 0.3926 0.03999 0.0
C273 C 0.64009 0.2983 0.145 0.0
N274 N 0.67943 0.34689 0.97633 0.0
N275 N 0.57775 0.33598 0.19242 0.0
H276 H 0.67067 0.22296 0.20045 0.0
H277 H 0.6391 0.25404 0.24715 0.0
H278 H 0.55226 0.3653 0.19212 0.0
H279 H 0.57256 0.30066 0.22708 0.0
H280 H 0.67355 0.37775 0.93211 0.0
H281 H 0.69902 0.31481 0.9714 0.0
H282 H 0.66863 0.44616 0.96179 0.0
H283 H 0.62841 0.47488 1.00047 0.0
C284 C 0.14824 0.82919 0.16355 0.0
C285 C 0.1793 0.86732 0.1279 0.0
C286 C 0.18725 0.91371 0.21827 0.0
C287 C 0.15476 0.87656 0.25278 0.0
N288 N 0.09697 0.8044 0.25339 0.0
N289 N 0.22037 0.95094 0.11377 0.0
C290 C 0.13296 0.83595 0.22376 0.0
C291 C 0.19639 0.91115 0.15306 0.0
N292 N 0.13478 0.78567 0.14097 0.0
N293 N 0.21089 0.95035 0.24905 0.0
H294 H 0.22844 0.95012 0.06631 0.0
H295 H 0.22864 0.98652 0.12541 0.0
H296 H 0.20383 0.95458 0.29559 0.0
H297 H 0.23994 0.97443 0.23089 0.0
H298 H 0.11716 0.75356 0.16846 0.0
H299 H 0.14445 0.77997 0.09647 0.0
H300 H 0.07558 0.7774 0.23142 0.0
H301 H 0.08529 0.80816 0.29766 0.0
C302 C 0.58734 0.60173 0.79808 0.0
C303 C 0.62988 0.6356 0.80663 0.0
C304 C 0.61244 0.63077 0.92112 0.0
C305 C 0.57817 0.58898 0.91801 0.0
N306 N 0.54494 0.52577 0.85562 0.0
N307 N 0.69208 0.66711 0.88989 0.0
C308 C 0.5689 0.57175 0.85703 0.0
C309 C 0.64528 0.64572 0.87222 0.0
N310 N 0.56241 0.59985 0.73423 0.0
N311 N 0.61168 0.65853 0.96792 0.0
H312 H 0.72016 0.67328 0.85909 0.0
H313 H 0.70507 0.67221 0.9389 0.0
H314 H 0.58392 0.65215 0.99924 0.0
H315 H 0.63381 0.69178 0.96845 0.0
H316 H 0.52937 0.57775 0.72652 0.0
H317 H 0.57046 0.62524 0.68947 0.0
H318 H 0.5413 0.50997 0.81359 0.0
H319 H 0.53433 0.501 0.89895 0.0
C320 C 0.82817 0.06741 0.27782 0.0
C321 C 0.83713 0.11763 0.23712 0.0
C322 C 0.91382 0.1263 0.32246 0.0
C323 C 0.90595 0.07468 0.3628 0.0
N324 N 0.8444 0.00612 0.38956 0.0
N325 N 0.88662 0.19588 0.21809 0.0
C326 C 0.86012 0.04783 0.34334 0.0
C327 C 0.87888 0.14776 0.25954 0.0
N328 N 0.78998 0.03754 0.25276 0.0
N329 N 0.95389 0.15551 0.34472 0.0
H330 H 0.86011 0.21383 0.17388 0.0
H331 H 0.91966 0.21784 0.22514 0.0
H332 H 0.98317 0.14132 0.3867 0.0
H333 H 0.95751 0.19532 0.32399 0.0
H334 H 0.78628 0.99793 0.27547 0.0
H335 H 0.76389 0.05149 0.20663 0.0
H336 H 0.80863 0.9886 0.38073 0.0
H337 H 0.86372 0.99297 0.44011 0.0
C338 C 0.39677 0.35836 0.61572 0.0
C339 C 0.34844 0.36998 0.56966 0.0
C340 C 0.32488 0.42872 0.63414 0.0
C341 C 0.37637 0.42376 0.67258 0.0
N342 N 0.46268 0.38577 0.69866 0.0
N343 N 0.26643 0.417 0.53271 0.0
C344 C 0.41253 0.38845 0.66381 0.0
C345 C 0.31207 0.40481 0.57885 0.0
N346 N 0.42753 0.3185 0.61309 0.0
N347 N 0.28824 0.45602 0.65102 0.0
H348 H 0.25515 0.39899 0.493 0.0
H349 H 0.24104 0.44687 0.53136 0.0
H350 H 0.29653 0.4739 0.69126 0.0
H351 H 0.2489 0.45712 0.62944 0.0
H352 H 0.46102 0.30467 0.6491 0.0
H353 H 0.41685 0.29594 0.57825 0.0
H354 H 0.49244 0.36555 0.68859 0.0
H355 H 0.47557 0.40668 0.73487 0.0
C356 C 0.72713 0.58928 0.60111 0.0
C357 C 0.69473 0.63385 0.58997 0.0
C358 C 0.67108 0.63671 0.46752 0.0
C359 C 0.6998 0.58952 0.47966 0.0
N360 N 0.74679 0.51524 0.56079 0.0
N361 N 0.62604 0.69205 0.51587 0.0
C362 C 0.72543 0.56413 0.54737 0.0
C363 C 0.66378 0.65521 0.5241 0.0
N364 N 0.76084 0.57202 0.66214 0.0
N365 N 0.65258 0.66524 0.40181 0.0
H366 H 0.61842 0.70581 0.5562 0.0
H367 H 0.59883 0.70497 0.47067 0.0
H368 H 0.65796 0.65389 0.3587 0.0
H369 H 0.6363 0.70266 0.39003 0.0
H370 H 0.78931 0.54322 0.67072 0.0
H371 H 0.76334 0.58961 0.70238 0.0
H372 H 0.76136 0.49259 0.61019 0.0
H373 H 0.74552 0.49529 0.52307 0.0
C374 C 0.82654 0.07691 0.97815 0.0
C375 C 0.83432 0.12572 0.99405 0.0
C376 C 0.9006 0.14739 0.92236 0.0
C377 C 0.89661 0.09644 0.91231 0.0
N378 N 0.85868 0.0112 0.93227 0.0
N379 N 0.88014 0.20653 0.98635 0.0
C380 C 0.86012 0.06081 0.94035 0.0
C381 C 0.87144 0.16099 0.96702 0.0
N382 N 0.78663 0.04639 0.99873 0.0
N383 N 0.93199 0.18282 0.88867 0.0
H384 H 0.85813 0.2188 0.01685 0.0
H385 H 0.91092 0.23093 0.97558 0.0
H386 H 0.95549 0.17363 0.85762 0.0
H387 H 0.9323 0.22226 0.88754 0.0
H388 H 0.77542 0.0127 0.98344 0.0
H389 H 0.76183 0.0569 0.02732 0.0
H390 H 0.83739 0.98136 0.95782 0.0
H391 H 0.8813 0.99869 0.90266 0.0
C392 C 0.3687 0.43835 0.28933 0.0
C393 C 0.39195 0.39315 0.33893 0.0
C394 C 0.47079 0.40505 0.28925 0.0
C395 C 0.44644 0.44821 0.23698 0.0
N396 N 0.3775 0.51319 0.19493 0.0
N397 N 0.46242 0.3298 0.38332 0.0
C398 C 0.39693 0.46708 0.23942 0.0
C399 C 0.44231 0.37551 0.33815 0.0
N400 N 0.31853 0.45207 0.28789 0.0
N401 N 0.52249 0.39494 0.29524 0.0
H402 H 0.4437 0.30821 0.42175 0.0
H403 H 0.49592 0.31128 0.38002 0.0
H404 H 0.54511 0.41831 0.26319 0.0
H405 H 0.54427 0.36726 0.33578 0.0
H406 H 0.29678 0.48063 0.24856 0.0
H407 H 0.29696 0.43236 0.32413 0.0
H408 H 0.34505 0.53296 0.19894 0.0
H409 H 0.3955 0.53332 0.15512 0.0
C410 C 0.15452 0.95918 0.83861 0.0
C411 C 0.14191 0.90771 0.87184 0.0
C412 C 0.06393 0.91255 0.78318 0.0
C413 C 0.0793 0.96158 0.74545 0.0
N414 N 0.12535 0.04086 0.75761 0.0
N415 N 0.08796 0.8327 0.87286 0.0
C416 C 0.12085 0.98781 0.77827 0.0
C417 C 0.0974 0.88372 0.84347 0.0
N418 N 0.19928 0.98082 0.86434 0.0
N419 N 0.01454 0.89652 0.76556 0.0
H420 H 0.11132 0.81056 0.91757 0.0
H421 H 0.05967 0.8112 0.84983 0.0
H422 H 0.98687 0.92082 0.72819 0.0
H423 H 0.99896 0.86329 0.79393 0.0
H424 H 0.21525 0.01405 0.8365 0.0
H425 H 0.22277 0.96377 0.9116 0.0
H426 H 0.15167 0.06185 0.78431 0.0
H427 H 0.09862 0.06604 0.72076 0.0
loop_
_geom_bond_atom_site_label_1
_geom_bond_atom_site_label_2
_geom_bond_distance
_geom_bond_site_symmetry_2
_ccdc_geom_bond_type
H0 C3 0.929 . S
H1 C6 0.929 . S
H2 C8 0.930 . S
C3 H0 0.929 . S
C3 C4 1.398 1_554 S
C3 C5 1.396 . S
C4 C3 1.398 1_556 S
C4 C8 1.407 . S
C5 C3 1.396 . S
C5 C6 1.394 . S
C6 H1 0.929 . S
C6 C5 1.394 . S
C6 C7 1.382 . S
C7 C6 1.382 . S
C7 C8 1.392 1_554 S
C7 N9 1.420 . S
C8 H2 0.930 . S
C8 C4 1.407 . S
C8 C7 1.392 1_556 S
N9 C7 1.420 . S
N9 C10 1.244 . S
C10 N9 1.244 . S
H11 C14 0.929 . S
H12 C17 0.929 . S
H13 C19 0.930 . S
C14 H11 0.929 . S
C14 C15 1.398 . S
C14 C16 1.396 . S
C15 C14 1.398 . S
C15 C19 1.407 . S
C16 C14 1.396 . S
C16 C17 1.394 . S
C17 H12 0.929 . S
C17 C16 1.394 . S
C17 C18 1.382 . S
C18 C17 1.382 . S
C18 C19 1.392 . S
C18 N20 1.420 . S
C19 H13 0.930 . S
C19 C15 1.407 . S
C19 C18 1.392 . S
N20 C18 1.420 . S
N20 C21 1.244 . S
C21 N20 1.244 . S
H22 C25 0.929 . S
H23 C28 0.929 . S
H24 C30 0.930 1_556 S
C25 H22 0.929 . S
C25 C26 1.398 . S
C25 C27 1.396 . S
C26 C25 1.398 . S
C26 C30 1.407 . S
C27 C25 1.396 . S
C27 C28 1.394 . S
C28 H23 0.929 . S
C28 C27 1.394 . S
C28 C29 1.382 . S
C29 C28 1.382 . S
C29 C30 1.392 . S
C29 N31 1.420 . S
C30 H24 0.930 1_554 S
C30 C26 1.407 . S
C30 C29 1.392 . S
N31 C29 1.420 . S
N31 C32 1.244 . S
C32 N31 1.244 . S
H33 C36 0.929 . S
H34 C39 0.929 . S
H35 C41 0.930 . S
C36 H33 0.929 . S
C36 C37 1.398 . S
C36 C38 1.396 . S
C37 C36 1.398 . S
C37 C41 1.407 . S
C38 C36 1.396 . S
C38 C39 1.394 . S
C39 H34 0.929 . S
C39 C38 1.394 . S
C39 C40 1.382 . S
C40 C39 1.382 . S
C40 C41 1.392 . S
C40 N42 1.420 . S
C41 H35 0.930 . S
C41 C37 1.407 . S
C41 C40 1.392 . S
N42 C40 1.420 . S
N42 C43 1.244 . S
C43 N42 1.244 . S
Eu44 N73 2.600 . S
Eu44 N79 2.562 . S
Eu44 O88 2.462 . S
Eu44 O89 2.373 . S
Eu44 O91 2.432 . S
Eu44 O92 2.291 1_565 S
Eu44 O96 2.335 1_465 S
Eu44 O99 2.372 1_455 S
Eu44 C108 2.787 . S
C45 N46 1.365 . S
C45 C48 1.405 . S
C45 C52 1.448 . S
N46 C45 1.365 . S
N46 C49 1.319 1_655 S
N46 Eu55 2.600 . S
C47 C49 1.397 . S
C47 C50 1.367 1_455 S
C47 H67 0.931 . S
C48 C45 1.405 . S
C48 C50 1.403 . S
C48 C54 1.439 . S
C49 N46 1.319 1_455 S
C49 C47 1.397 . S
C49 H60 0.930 . S
C50 C47 1.367 1_655 S
C50 C48 1.403 . S
C50 H71 0.929 . S
C51 C52 1.430 . S
C51 C53 1.387 . S
C51 C57 1.404 . S
C52 C45 1.448 . S
C52 C51 1.430 . S
C52 N56 1.351 . S
C53 C51 1.387 . S
C53 C54 1.374 . S
C53 H68 0.931 . S
C54 C48 1.439 . S
C54 C53 1.374 . S
C54 H69 0.931 . S
Eu55 N46 2.600 . S
Eu55 N56 2.562 . S
Eu55 O90 2.335 1_655 S
Eu55 O93 2.372 1_655 S
Eu55 O94 2.462 . S
Eu55 O95 2.373 . S
Eu55 O97 2.432 . S
Eu55 O98 2.291 1_545 S
Eu55 C119 2.787 . S
N56 C52 1.351 . S
N56 Eu55 2.562 . S
N56 C58 1.325 . S
C57 C51 1.404 . S
C57 C59 1.366 . S
C57 H65 0.930 . S
C58 N56 1.325 . S
C58 C59 1.416 . S
C58 H64 0.929 . S
C59 C57 1.366 . S
C59 C58 1.416 . S
C59 H61 0.930 . S
H60 C49 0.930 . S
H61 C59 0.930 . S
H62 C77 0.930 1_655 S
H63 C84 0.930 . S
H64 C58 0.929 . S
H65 C57 0.930 . S
H66 C80 0.929 . S
H67 C47 0.931 . S
H68 C53 0.931 . S
H69 C54 0.931 . S
H70 C75 0.931 1_655 S
H71 C50 0.929 . S
H72 C83 0.930 . S
N73 Eu44 2.600 . S
N73 C74 1.365 . S
N73 C77 1.319 . S
C74 N73 1.365 . S
C74 C76 1.405 . S
C74 C82 1.448 . S
C75 H70 0.931 1_455 S
C75 C77 1.397 . S
C75 C78 1.367 . S
C76 C74 1.405 . S
C76 C78 1.403 . S
C76 C109 1.439 . S
C77 H62 0.930 1_455 S
C77 N73 1.319 . S
C77 C75 1.397 . S
C78 C75 1.367 . S
C78 C76 1.403 . S
C78 H85 0.929 . S
N79 Eu44 2.562 . S
N79 C80 1.325 . S
N79 C82 1.351 . S
C80 H66 0.929 . S
C80 N79 1.325 . S
C80 C84 1.416 . S
C81 C82 1.430 . S
C81 C83 1.404 . S
C81 C110 1.387 . S
C82 C74 1.448 . S
C82 N79 1.351 . S
C82 C81 1.430 . S
C83 H72 0.930 . S
C83 C81 1.404 . S
C83 C84 1.366 . S
C84 H63 0.930 . S
C84 C80 1.416 . S
C84 C83 1.366 . S
H85 C78 0.929 . S
H86 C109 0.931 . S
H87 C110 0.931 . S
O88 Eu44 2.462 . S
O88 C108 1.252 . S
O89 Eu44 2.373 . S
O89 C100 1.249 . S
O90 Eu55 2.335 1_455 S
O90 C100 1.264 1_545 S
O91 Eu44 2.432 . S
O91 C108 1.268 . S
O92 Eu44 2.291 1_545 S
O92 C107 1.255 . S
O93 Eu55 2.372 1_455 S
O93 C107 1.257 . S
O94 Eu55 2.462 . S
O94 C119 1.252 . S
O95 Eu55 2.373 . S
O95 C111 1.249 . S
O96 Eu44 2.335 1_645 S
O96 C111 1.264 . S
O97 Eu55 2.432 . S
O97 C119 1.268 . S
O98 Eu55 2.291 1_565 S
O98 C118 1.255 . S
O99 Eu44 2.372 1_655 S
O99 C118 1.257 . S
C100 O89 1.249 . S
C100 O90 1.264 1_565 S
C101 C104 1.382 . S
C101 C106 1.390 . S
C101 C108 1.506 . S
C102 C103 1.398 . S
C102 C106 1.392 . S
C103 C102 1.398 . S
C103 C105 1.372 . S
C103 H120 0.931 . S
C104 C101 1.382 . S
C104 C105 1.390 . S
C104 H121 0.931 . S
C105 C103 1.372 . S
C105 C104 1.390 . S
C105 H122 0.929 . S
C106 C101 1.390 . S
C106 C102 1.392 . S
C106 H123 0.930 . S
C107 O92 1.255 . S
C107 O93 1.257 . S
C108 Eu44 2.787 . S
C108 O88 1.252 . S
C108 O91 1.268 . S
C108 C101 1.506 . S
C109 C76 1.439 . S
C109 H86 0.931 . S
C109 C110 1.374 . S
C110 C81 1.387 . S
C110 H87 0.931 . S
C110 C109 1.374 . S
C111 O95 1.249 . S
C111 O96 1.264 . S
C112 C115 1.382 . S
C112 C116 1.390 . S
C112 C119 1.506 . S
C113 C114 1.398 . S
C113 C116 1.392 . S
C114 C113 1.398 . S
C114 C117 1.372 . S
C114 H124 0.931 . S
C115 C112 1.382 . S
C115 C117 1.390 . S
C115 H125 0.931 . S
C116 C112 1.390 . S
C116 C113 1.392 . S
C116 H126 0.930 . S
C117 C114 1.372 . S
C117 C115 1.390 . S
C117 H127 0.929 . S
C118 O98 1.255 . S
C118 O99 1.257 . S
C119 Eu55 2.787 . S
C119 O94 1.252 . S
C119 O97 1.268 . S
C119 C112 1.506 . S
H120 C103 0.931 . S
H121 C104 0.931 . S
H122 C105 0.929 . S
H123 C106 0.930 . S
H124 C114 0.931 . S
H125 C115 0.931 . S
H126 C116 0.930 . S
H127 C117 0.929 . S
Eu128 N157 2.600 . S
Eu128 N163 2.562 . S
Eu128 O172 2.462 1_554 S
Eu128 O173 2.373 . S
Eu128 O175 2.432 1_554 S
Eu128 O176 2.291 . S
Eu128 O180 2.335 1_554 S
Eu128 O183 2.372 . S
Eu128 C192 2.787 1_554 S
C129 N130 1.365 . S
C129 C132 1.405 . S
C129 C136 1.448 . S
N130 C129 1.365 . S
N130 C133 1.319 . S
N130 Eu139 2.600 . S
C131 C133 1.397 . S
C131 C134 1.367 . S
C131 H151 0.931 . S
C132 C129 1.405 . S
C132 C134 1.403 . S
C132 C138 1.439 . S
C133 N130 1.319 . S
C133 C131 1.397 . S
C133 H144 0.930 . S
C134 C131 1.367 . S
C134 C132 1.403 . S
C134 H155 0.929 . S
C135 C136 1.430 . S
C135 C137 1.387 . S
C135 C141 1.404 . S
C136 C129 1.448 . S
C136 C135 1.430 . S
C136 N140 1.351 . S
C137 C135 1.387 . S
C137 C138 1.374 . S
C137 H152 0.931 . S
C138 C132 1.439 . S
C138 C137 1.374 . S
C138 H153 0.931 . S
Eu139 N130 2.600 . S
Eu139 N140 2.562 . S
Eu139 O174 2.335 . S
Eu139 O177 2.372 . S
Eu139 O178 2.462 . S
Eu139 O179 2.373 . S
Eu139 O181 2.432 . S
Eu139 O182 2.291 . S
Eu139 C203 2.787 . S
N140 C136 1.351 . S
N140 Eu139 2.562 . S
N140 C142 1.325 . S
C141 C135 1.404 . S
C141 C143 1.366 . S
C141 H149 0.930 . S
C142 N140 1.325 . S
C142 C143 1.416 . S
C142 H148 0.929 . S
C143 C141 1.366 . S
C143 C142 1.416 . S
C143 H145 0.930 . S
H144 C133 0.930 . S
H145 C143 0.930 . S
H146 C161 0.930 . S
H147 C168 0.930 . S
H148 C142 0.929 . S
H149 C141 0.930 . S
H150 C164 0.929 . S
H151 C131 0.931 . S
H152 C137 0.931 . S
H153 C138 0.931 . S
H154 C159 0.931 . S
H155 C134 0.929 . S
H156 C167 0.930 . S
N157 Eu128 2.600 . S
N157 C158 1.365 . S
N157 C161 1.319 1_554 S
C158 N157 1.365 . S
C158 C160 1.405 . S
C158 C166 1.448 . S
C159 H154 0.931 . S
C159 C161 1.397 . S
C159 C162 1.367 1_556 S
C160 C158 1.405 . S
C160 C162 1.403 . S
C160 C193 1.439 . S
C161 H146 0.930 . S
C161 N157 1.319 1_556 S
C161 C159 1.397 . S
C162 C159 1.367 1_554 S
C162 C160 1.403 . S
C162 H169 0.929 . S
N163 Eu128 2.562 . S
N163 C164 1.325 . S
N163 C166 1.351 . S
C164 H150 0.929 . S
C164 N163 1.325 . S
C164 C168 1.416 . S
C165 C166 1.430 . S
C165 C167 1.404 . S
C165 C194 1.387 . S
C166 C158 1.448 . S
C166 N163 1.351 . S
C166 C165 1.430 . S
C167 H156 0.930 . S
C167 C165 1.404 . S
C167 C168 1.366 . S
C168 H147 0.930 . S
C168 C164 1.416 . S
C168 C167 1.366 . S
H169 C162 0.929 . S
H170 C193 0.931 . S
H171 C194 0.931 . S
O172 Eu128 2.462 1_556 S
O172 C192 1.252 . S
O173 Eu128 2.373 . S
O173 C184 1.249 . S
O174 Eu139 2.335 . S
O174 C184 1.264 . S
O175 Eu128 2.432 1_556 S
O175 C192 1.268 . S
O176 Eu128 2.291 . S
O176 C191 1.255 . S
O177 Eu139 2.372 . S
O177 C191 1.257 . S
O178 Eu139 2.462 . S
O178 C203 1.252 . S
O179 Eu139 2.373 . S
O179 C195 1.249 1_554 S
O180 Eu128 2.335 1_556 S
O180 C195 1.264 . S
O181 Eu139 2.432 . S
O181 C203 1.268 . S
O182 Eu139 2.291 . S
O182 C202 1.255 . S
O183 Eu128 2.372 . S
O183 C202 1.257 . S
C184 O173 1.249 . S
C184 O174 1.264 . S
C185 C188 1.382 . S
C185 C190 1.390 . S
C185 C192 1.506 . S
C186 C187 1.398 . S
C186 C190 1.392 . S
C187 C186 1.398 . S
C187 C189 1.372 . S
C187 H204 0.931 . S
C188 C185 1.382 . S
C188 C189 1.390 . S
C188 H205 0.931 . S
C189 C187 1.372 . S
C189 C188 1.390 . S
C189 H206 0.929 . S
C190 C185 1.390 . S
C190 C186 1.392 . S
C190 H207 0.930 . S
C191 O176 1.255 . S
C191 O177 1.257 . S
C192 Eu128 2.787 1_556 S
C192 O172 1.252 . S
C192 O175 1.268 . S
C192 C185 1.506 . S
C193 C160 1.439 . S
C193 H170 0.931 . S
C193 C194 1.374 . S
C194 C165 1.387 . S
C194 H171 0.931 . S
C194 C193 1.374 . S
C195 O179 1.249 1_556 S
C195 O180 1.264 . S
C196 C199 1.382 . S
C196 C200 1.390 . S
C196 C203 1.506 . S
C197 C198 1.398 . S
C197 C200 1.392 . S
C198 C197 1.398 . S
C198 C201 1.372 . S
C198 H208 0.931 . S
C199 C196 1.382 . S
C199 C201 1.390 . S
C199 H209 0.931 . S
C200 C196 1.390 . S
C200 C197 1.392 . S
C200 H210 0.930 . S
C201 C198 1.372 . S
C201 C199 1.390 . S
C201 H211 0.929 . S
C202 O182 1.255 . S
C202 O183 1.257 . S
C203 Eu139 2.787 . S
C203 O178 1.252 . S
C203 O181 1.268 . S
C203 C196 1.506 . S
H204 C187 0.931 . S
H205 C188 0.931 . S
H206 C189 0.929 . S
H207 C190 0.930 . S
H208 C198 0.931 . S
H209 C199 0.931 . S
H210 C200 0.930 . S
H211 C201 0.929 . S
C212 C213 1.363 . S
C212 C218 1.379 . S
C212 N220 1.356 . S
C213 C212 1.363 . S
C213 C219 1.363 . S
C214 C215 1.363 . S
C214 C219 1.379 . S
C214 N221 1.356 . S
C215 C214 1.363 . S
C215 C218 1.363 . S
N216 C218 1.356 . S
N216 H228 0.984 . S
N216 H229 0.985 . S
N217 C219 1.356 . S
N217 H222 0.984 . S
N217 H223 0.985 . S
C218 C212 1.379 . S
C218 C215 1.363 . S
C218 N216 1.356 . S
C219 C213 1.363 . S
C219 C214 1.379 . S
C219 N217 1.356 . S
N220 C212 1.356 . S
N220 H226 0.984 . S
N220 H227 0.984 . S
N221 C214 1.356 . S
N221 H224 0.984 . S
N221 H225 0.985 . S
H222 N217 0.984 . S
H223 N217 0.985 . S
H224 N221 0.984 . S
H225 N221 0.985 . S
H226 N220 0.984 . S
H227 N220 0.984 . S
H228 N216 0.984 . S
H229 N216 0.985 . S
C230 C231 1.363 . S
C230 C236 1.379 . S
C230 N238 1.356 . S
C231 C230 1.363 . S
C231 C237 1.363 . S
C232 C233 1.363 . S
C232 C237 1.379 . S
C232 N239 1.356 1_554 S
C233 C232 1.363 . S
C233 C236 1.363 . S
N234 C236 1.356 . S
N234 H246 0.984 . S
N234 H247 0.985 . S
N235 C237 1.356 1_556 S
N235 H240 0.980 1_556 S
N235 H241 0.985 . S
C236 C230 1.379 . S
C236 C233 1.363 . S
C236 N234 1.356 . S
C237 C231 1.363 . S
C237 C232 1.379 . S
C237 N235 1.356 1_554 S
N238 C230 1.356 . S
N238 H244 0.984 . S
N238 H245 0.984 . S
N239 C232 1.356 1_556 S
N239 H242 0.984 . S
N239 H243 0.985 . S
H240 N235 0.980 1_554 S
H241 N235 0.985 . S
H242 N239 0.984 . S
H243 N239 0.985 . S
H244 N238 0.984 . S
H245 N238 0.984 . S
H246 N234 0.984 . S
H247 N234 0.985 . S
C248 C249 1.363 . S
C248 C254 1.379 . S
C248 N256 1.356 . S
C249 C248 1.363 . S
C249 C255 1.363 . S
C250 C251 1.363 . S
C250 C255 1.379 . S
C250 N257 1.356 . S
C251 C250 1.363 . S
C251 C254 1.363 . S
N252 C254 1.356 . S
N252 H264 0.984 . S
N252 H265 0.985 . S
N253 C255 1.356 . S
N253 H258 0.984 . S
N253 H259 0.985 . S
C254 C248 1.379 . S
C254 C251 1.363 . S
C254 N252 1.356 . S
C255 C249 1.363 . S
C255 C250 1.379 . S
C255 N253 1.356 . S
N256 C248 1.356 . S
N256 H262 0.984 . S
N256 H263 0.984 . S
N257 C250 1.356 . S
N257 H260 0.984 . S
N257 H261 0.985 . S
H258 N253 0.984 . S
H259 N253 0.985 . S
H260 N257 0.984 . S
H261 N257 0.985 . S
H262 N256 0.984 . S
H263 N256 0.984 . S
H264 N252 0.984 . S
H265 N252 0.985 . S
C266 C267 1.363 . S
C266 C272 1.379 . S
C266 N274 1.356 1_554 S
C267 C266 1.363 . S
C267 C273 1.363 . S
C268 C269 1.363 . S
C268 C273 1.379 . S
C268 N275 1.356 . S
C269 C268 1.363 . S
C269 C272 1.363 . S
N270 C272 1.356 1_556 S
N270 H282 0.984 . S
N270 H283 0.976 1_556 S
N271 C273 1.356 . S
N271 H276 0.984 . S
N271 H277 0.985 . S
C272 C266 1.379 . S
C272 C269 1.363 . S
C272 N270 1.356 1_554 S
C273 C267 1.363 . S
C273 C268 1.379 . S
C273 N271 1.356 . S
N274 C266 1.356 1_556 S
N274 H280 0.984 . S
N274 H281 0.984 1_556 S
N275 C268 1.356 . S
N275 H278 0.984 . S
N275 H279 0.985 . S
H276 N271 0.984 . S
H277 N271 0.985 . S
H278 N275 0.984 . S
H279 N275 0.985 . S
H280 N274 0.984 . S
H281 N274 0.984 1_554 S
H282 N270 0.984 . S
H283 N270 0.976 1_554 S
C284 C285 1.363 . S
C284 C290 1.379 . S
C284 N292 1.356 . S
C285 C284 1.363 . S
C285 C291 1.363 . S
C286 C287 1.363 . S
C286 C291 1.379 . S
C286 N293 1.356 . S
C287 C286 1.363 . S
C287 C290 1.363 . S
N288 C290 1.356 . S
N288 H300 0.984 . S
N288 H301 0.985 . S
N289 C291 1.356 . S
N289 H294 0.984 . S
N289 H295 0.985 . S
C290 C284 1.379 . S
C290 C287 1.363 . S
C290 N288 1.356 . S
C291 C285 1.363 . S
C291 C286 1.379 . S
C291 N289 1.356 . S
N292 C284 1.356 . S
N292 H298 0.984 . S
N292 H299 0.984 . S
N293 C286 1.356 . S
N293 H296 0.984 . S
N293 H297 0.985 . S
H294 N289 0.984 . S
H295 N289 0.985 . S
H296 N293 0.984 . S
H297 N293 0.985 . S
H298 N292 0.984 . S
H299 N292 0.984 . S
H300 N288 0.984 . S
H301 N288 0.985 . S
C302 C303 1.363 . S
C302 C308 1.379 . S
C302 N310 1.356 . S
C303 C302 1.363 . S
C303 C309 1.363 . S
C304 C305 1.363 . S
C304 C309 1.379 . S
C304 N311 1.356 . S
C305 C304 1.363 . S
C305 C308 1.363 . S
N306 C308 1.356 . S
N306 H318 0.984 . S
N306 H319 0.985 . S
N307 C309 1.356 . S
N307 H312 0.984 . S
N307 H313 0.985 . S
C308 C302 1.379 . S
C308 C305 1.363 . S
C308 N306 1.356 . S
C309 C303 1.363 . S
C309 C304 1.379 . S
C309 N307 1.356 . S
N310 C302 1.356 . S
N310 H316 0.984 . S
N310 H317 0.984 . S
N311 C304 1.356 . S
N311 H314 0.984 1_556 S
N311 H315 0.985 1_556 S
H312 N307 0.984 . S
H313 N307 0.985 . S
H314 N311 0.984 1_554 S
H315 N311 0.985 1_554 S
H316 N310 0.984 . S
H317 N310 0.984 . S
H318 N306 0.984 . S
H319 N306 0.985 . S
C320 C321 1.363 . S
C320 C326 1.379 . S
C320 N328 1.356 . S
C321 C320 1.363 . S
C321 C327 1.363 . S
C322 C323 1.363 . S
C322 C327 1.379 . S
C322 N329 1.356 . S
C323 C322 1.363 . S
C323 C326 1.363 . S
N324 C326 1.354 1_565 S
N324 H336 0.987 . S
N324 H337 0.984 . S
N325 C327 1.356 . S
N325 H330 0.984 . S
N325 H331 0.985 . S
C326 C320 1.379 . S
C326 C323 1.363 . S
C326 N324 1.354 1_545 S
C327 C321 1.363 . S
C327 C322 1.379 . S
C327 N325 1.356 . S
N328 C320 1.356 . S
N328 H334 0.984 . S
N328 H335 0.984 . S
N329 C322 1.356 . S
N329 H332 0.984 . S
N329 H333 0.985 . S
H330 N325 0.984 . S
H331 N325 0.985 . S
H332 N329 0.984 . S
H333 N329 0.985 . S
H334 N328 0.984 . S
H335 N328 0.984 . S
H336 N324 0.987 . S
H337 N324 0.984 . S
C338 C339 1.363 . S
C338 C344 1.379 . S
C338 N346 1.356 . S
C339 C338 1.363 . S
C339 C345 1.363 . S
C340 C341 1.363 . S
C340 C345 1.379 . S
C340 N347 1.356 . S
C341 C340 1.363 . S
C341 C344 1.363 . S
N342 C344 1.356 . S
N342 H354 0.984 . S
N342 H355 0.985 . S
N343 C345 1.356 . S
N343 H348 0.984 . S
N343 H349 0.985 . S
C344 C338 1.379 . S
C344 C341 1.363 . S
C344 N342 1.356 . S
C345 C339 1.363 . S
C345 C340 1.379 . S
C345 N343 1.356 . S
N346 C338 1.356 . S
N346 H352 0.984 . S
N346 H353 0.984 . S
N347 C340 1.356 . S
N347 H350 0.984 . S
N347 H351 0.985 . S
H348 N343 0.984 . S
H349 N343 0.985 . S
H350 N347 0.984 . S
H351 N347 0.985 . S
H352 N346 0.984 . S
H353 N346 0.984 . S
H354 N342 0.984 . S
H355 N342 0.985 . S
C356 C357 1.363 . S
C356 C362 1.379 . S
C356 N364 1.356 . S
C357 C356 1.363 . S
C357 C363 1.363 . S
C358 C359 1.363 . S
C358 C363 1.379 . S
C358 N365 1.356 . S
C359 C358 1.363 . S
C359 C362 1.363 . S
N360 C362 1.356 . S
N360 H372 0.984 . S
N360 H373 0.985 . S
N361 C363 1.356 . S
N361 H366 0.984 . S
N361 H367 0.985 . S
C362 C356 1.379 . S
C362 C359 1.363 . S
C362 N360 1.356 . S
C363 C357 1.363 . S
C363 C358 1.379 . S
C363 N361 1.356 . S
N364 C356 1.356 . S
N364 H370 0.984 . S
N364 H371 0.984 . S
N365 C358 1.356 . S
N365 H368 0.984 . S
N365 H369 0.985 . S
H366 N361 0.984 . S
H367 N361 0.985 . S
H368 N365 0.984 . S
H369 N365 0.985 . S
H370 N364 0.984 . S
H371 N364 0.984 . S
H372 N360 0.984 . S
H373 N360 0.985 . S
C374 C375 1.363 1_554 S
C374 C380 1.379 1_554 S
C374 N382 1.356 . S
C375 C374 1.363 1_556 S
C375 C381 1.363 . S
C376 C377 1.363 . S
C376 C381 1.379 . S
C376 N383 1.356 . S
C377 C376 1.363 . S
C377 C380 1.363 . S
N378 C380 1.356 1_565 S
N378 H390 0.984 1_556 S
N378 H391 0.985 . S
N379 C381 1.356 . S
N379 H384 0.984 . S
N379 H385 0.985 . S
C380 C374 1.379 1_556 S
C380 C377 1.363 . S
C380 N378 1.356 1_545 S
C381 C375 1.363 . S
C381 C376 1.379 . S
C381 N379 1.356 . S
N382 C374 1.356 . S
N382 H388 0.984 . S
N382 H389 0.984 . S
N383 C376 1.356 . S
N383 H386 0.984 . S
N383 H387 0.985 . S
H384 N379 0.984 . S
H385 N379 0.985 . S
H386 N383 0.984 . S
H387 N383 0.985 . S
H388 N382 0.984 . S
H389 N382 0.984 . S
H390 N378 0.984 1_554 S
H391 N378 0.985 . S
C392 C393 1.363 . S
C392 C398 1.379 . S
C392 N400 1.356 . S
C393 C392 1.363 . S
C393 C399 1.363 . S
C394 C395 1.363 . S
C394 C399 1.379 . S
C394 N401 1.356 . S
C395 C394 1.363 . S
C395 C398 1.363 . S
N396 C398 1.356 . S
N396 H408 0.984 . S
N396 H409 0.985 . S
N397 C399 1.356 . S
N397 H402 0.984 . S
N397 H403 0.985 . S
C398 C392 1.379 . S
C398 C395 1.363 . S
C398 N396 1.356 . S
C399 C393 1.363 . S
C399 C394 1.379 . S
C399 N397 1.356 . S
N400 C392 1.356 . S
N400 H406 0.984 . S
N400 H407 0.984 . S
N401 C394 1.356 . S
N401 H404 0.984 . S
N401 H405 0.985 . S
H402 N397 0.984 . S
H403 N397 0.985 . S
H404 N401 0.984 . S
H405 N401 0.985 . S
H406 N400 0.984 . S
H407 N400 0.984 . S
H408 N396 0.984 . S
H409 N396 0.985 . S
C410 C411 1.363 . S
C410 C416 1.379 . S
C410 N418 1.356 . S
C411 C410 1.363 . S
C411 C417 1.363 . S
C412 C413 1.363 . S
C412 C417 1.379 . S
C412 N419 1.356 . S
C413 C412 1.363 . S
C413 C416 1.363 . S
N414 C416 1.356 1_545 S
N414 H426 0.984 . S
N414 H427 0.985 . S
N415 C417 1.356 . S
N415 H420 0.984 . S
N415 H421 0.985 . S
C416 C410 1.379 . S
C416 C413 1.363 . S
C416 N414 1.356 1_565 S
C417 C411 1.363 . S
C417 C412 1.379 . S
C417 N415 1.356 . S
N418 C410 1.356 . S
N418 H424 0.984 1_565 S
N418 H425 0.984 . S
N419 C412 1.356 . S
N419 H422 0.984 . S
N419 H423 0.985 . S
H420 N415 0.984 . S
H421 N415 0.985 . S
H422 N419 0.984 . S
H423 N419 0.985 . S
H424 N418 0.984 1_545 S
H425 N418 0.984 . S
H426 N414 0.984 . S
H427 N414 0.985 . S
C215 C107 1.629 . S
C213 C43 1.639 . S
C231 C10 1.640 . S
C233 C202 1.637 . S
C249 C21 1.636 . S
C251 C118 1.651 . S
C267 C32 1.604 . S
C269 C191 1.607 . S
C287 C102 1.412 . S
C285 C5 1.586 . S
C305 C195 1.688 . S
C303 C15 1.682 . S
C321 C27 1.624 . S
C323 C111 1.650 . S
C339 C38 1.588 . S
C341 C186 1.426 . S
C359 C197 1.391 . S
C357 C16 1.554 . S
C377 C113 1.358 . S
C375 C26 1.543 1_556 S
C395 C184 1.618 . S
C393 C37 1.605 . S
C411 C4 1.568 . S
C413 C100 1.592 . S
