# Generated by pormake.
# Topology hwx, (6,3)-cn, num edge types: 1
# Building blocks:
#     Node 0, Type 0, BuildingBlock: OJICUG_clean_sbu_0, # of connection points: 6
#     Node 1, Type 0, BuildingBlock: OJICUG_clean_sbu_0, # of connection points: 6
#     Node 2, Type 0, BuildingBlock: OJICUG_clean_sbu_0, # of connection points: 6
#     Node 3, Type 0, BuildingBlock: OJICUG_clean_sbu_0, # of connection points: 6
#     Node 4, Type 1, BuildingBlock: PAMTOO_clean_linker_0, # of connection points: 3
#     Node 5, Type 1, BuildingBlock: PAMTOO_clean_linker_0, # of connection points: 3
#     Node 6, Type 1, BuildingBlock: PAMTOO_clean_linker_0, # of connection points: 3
#     Node 7, Type 1, BuildingBlock: PAMTOO_clean_linker_0, # of connection points: 3
#     Node 8, Type 1, BuildingBlock: PAMTOO_clean_linker_0, # of connection points: 3
#     Node 9, Type 1, BuildingBlock: PAMTOO_clean_linker_0, # of connection points: 3
#     Node 10, Type 1, BuildingBlock: PAMTOO_clean_linker_0, # of connection points: 3
#     Node 11, Type 1, BuildingBlock: PAMTOO_clean_linker_0, # of connection points: 3
#     Edge 12, Type (0, 1), BuildingBlock: XIVTED_clean_linker_0, # of connection points: 2
#     Edge 13, Type (0, 1), BuildingBlock: XIVTED_clean_linker_0, # of connection points: 2
#     Edge 14, Type (0, 1), BuildingBlock: XIVTED_clean_linker_0, # of connection points: 2
#     Edge 15, Type (0, 1), BuildingBlock: XIVTED_clean_linker_0, # of connection points: 2
#     Edge 16, Type (0, 1), BuildingBlock: XIVTED_clean_linker_0, # of connection points: 2
#     Edge 17, Type (0, 1), BuildingBlock: XIVTED_clean_linker_0, # of connection points: 2
#     Edge 18, Type (0, 1), BuildingBlock: XIVTED_clean_linker_0, # of connection points: 2
#     Edge 19, Type (0, 1), BuildingBlock: XIVTED_clean_linker_0, # of connection points: 2
#     Edge 20, Type (0, 1), BuildingBlock: XIVTED_clean_linker_0, # of connection points: 2
#     Edge 21, Type (0, 1), BuildingBlock: XIVTED_clean_linker_0, # of connection points: 2
#     Edge 22, Type (0, 1), BuildingBlock: XIVTED_clean_linker_0, # of connection points: 2
#     Edge 23, Type (0, 1), BuildingBlock: XIVTED_clean_linker_0, # of connection points: 2
#     Edge 24, Type (0, 1), BuildingBlock: XIVTED_clean_linker_0, # of connection points: 2
#     Edge 25, Type (0, 1), BuildingBlock: XIVTED_clean_linker_0, # of connection points: 2
#     Edge 26, Type (0, 1), BuildingBlock: XIVTED_clean_linker_0, # of connection points: 2
#     Edge 27, Type (0, 1), BuildingBlock: XIVTED_clean_linker_0, # of connection points: 2
#     Edge 28, Type (0, 1), BuildingBlock: XIVTED_clean_linker_0, # of connection points: 2
#     Edge 29, Type (0, 1), BuildingBlock: XIVTED_clean_linker_0, # of connection points: 2
#     Edge 30, Type (0, 1), BuildingBlock: XIVTED_clean_linker_0, # of connection points: 2
#     Edge 31, Type (0, 1), BuildingBlock: XIVTED_clean_linker_0, # of connection points: 2
#     Edge 32, Type (0, 1), BuildingBlock: XIVTED_clean_linker_0, # of connection points: 2
#     Edge 33, Type (0, 1), BuildingBlock: XIVTED_clean_linker_0, # of connection points: 2
#     Edge 34, Type (0, 1), BuildingBlock: XIVTED_clean_linker_0, # of connection points: 2
#     Edge 35, Type (0, 1), BuildingBlock: XIVTED_clean_linker_0, # of connection points: 2
# Relax obj value: 0.008
# Max RMSD: 0.047
# Mean RMSD: 0.043
data_MOF--net-hwx--node1-OJICUG_clean_sbu_0--node2-PAMTOO_clean_linker_0--edge1-XIVTED_clean_linker_0
_symmetry_space_group_name_H-M    P1
_symmetry_Int_Tables_number       1
_symmetry_cell_setting            triclinic
loop_
_symmetry_equiv_pos_as_xyz
'x, y, z'
_cell_length_a     53.203397
_cell_length_b     53.107318
_cell_length_c     20.416076
_cell_angle_alpha  88.168816
_cell_angle_beta   91.695296
_cell_angle_gamma 89.984099
loop_
_atom_site_label
_atom_site_type_symbol
_atom_site_fract_x
_atom_site_fract_y
_atom_site_fract_z
_atom_type_partial_charge
Sc0 Sc 0.22074 0.22272 0.09523 0.0
Sc1 Sc 0.18116 0.18151 0.00763 0.0
Sc2 Sc 0.22309 0.2214 0.92347 0.0
O3 O 0.20832 0.20854 0.00881 0.0
C4 C 0.21907 0.27207 0.00061 0.0
C5 C 0.16135 0.21959 0.11289 0.0
C6 C 0.16531 0.21465 0.88095 0.0
C7 C 0.21347 0.16454 0.13473 0.0
C8 C 0.27181 0.21895 0.01961 0.0
C9 C 0.21992 0.16215 0.9036 0.0
O10 O 0.22082 0.26074 0.05631 0.0
O11 O 0.15805 0.2016 0.07381 0.0
O12 O 0.18729 0.22312 0.87184 0.0
O13 O 0.22202 0.18642 0.1453 0.0
O14 O 0.26074 0.22104 0.96375 0.0
O15 O 0.20156 0.15866 0.94143 0.0
O16 O 0.26003 0.21813 0.07302 0.0
O17 O 0.19907 0.15969 0.08615 0.0
O18 O 0.22972 0.18367 0.89289 0.0
O19 O 0.18283 0.22924 0.12494 0.0
O20 O 0.21841 0.2605 0.94695 0.0
O21 O 0.15996 0.20002 0.92886 0.0
Sc22 Sc 0.27002 0.72514 0.4165 0.0
Sc23 Sc 0.31009 0.68165 0.50349 0.0
Sc24 Sc 0.27314 0.72422 0.5884 0.0
O25 O 0.2844 0.71029 0.50271 0.0
C26 C 0.27851 0.77441 0.49998 0.0
C27 C 0.32789 0.71688 0.3845 0.0
C28 C 0.33191 0.71582 0.61708 0.0
C29 C 0.27119 0.66619 0.3894 0.0
C30 C 0.22161 0.7252 0.5049 0.0
C31 C 0.27484 0.66505 0.6209 0.0
O32 O 0.2759 0.76352 0.44558 0.0
O33 O 0.33212 0.7001 0.42925 0.0
O34 O 0.31086 0.72599 0.62732 0.0
O35 O 0.2626 0.68835 0.37865 0.0
O36 O 0.23413 0.72458 0.55883 0.0
O37 O 0.29076 0.66006 0.5779 0.0
O38 O 0.23193 0.72541 0.44953 0.0
O39 O 0.28859 0.6611 0.43182 0.0
O40 O 0.2671 0.68724 0.63026 0.0
O41 O 0.30644 0.72698 0.37393 0.0
O42 O 0.27782 0.76261 0.55501 0.0
O43 O 0.33466 0.69902 0.57494 0.0
Sc44 Sc 0.7689 0.77266 0.91052 0.0
Sc45 Sc 0.81185 0.81137 -0.00412 0.0
Sc46 Sc 0.77267 0.76916 0.08253 0.0
O47 O 0.78449 0.78441 -0.0037 0.0
C48 C 0.72102 0.77503 0.00032 0.0
C49 C 0.77405 0.83189 0.88219 0.0
C50 C 0.77838 0.82747 0.11451 0.0
C51 C 0.82712 0.77727 0.87764 0.0
C52 C 0.77377 0.72091 0.99365 0.0
C53 C 0.83185 0.77319 0.10954 0.0
O54 O 0.73109 0.7753 0.94462 0.0
O55 O 0.79168 0.8351 0.92446 0.0
O56 O 0.76949 0.80553 0.12503 0.0
O57 O 0.80509 0.76865 0.8677 0.0
O58 O 0.77441 0.73117 0.04907 0.0
O59 O 0.83531 0.79086 0.06728 0.0
O60 O 0.7716 0.73349 0.9398 0.0
O61 O 0.83237 0.79308 0.92147 0.0
O62 O 0.81036 0.76381 0.12027 0.0
O63 O 0.76431 0.81049 0.87186 0.0
O64 O 0.73366 0.77269 0.05391 0.0
O65 O 0.79409 0.83241 0.07019 0.0
Sc66 Sc 0.72343 0.26921 0.59135 0.0
Sc67 Sc 0.68131 0.3104 0.50407 0.0
Sc68 Sc 0.72488 0.27485 0.41964 0.0
O69 O 0.70981 0.28478 0.50511 0.0
C70 C 0.77378 0.27801 0.5143 0.0
C71 C 0.71353 0.32622 0.62944 0.0
C72 C 0.7185 0.33413 0.39881 0.0
C73 C 0.66418 0.26909 0.61153 0.0
C74 C 0.72404 0.22219 0.49652 0.0
C75 C 0.66656 0.27929 0.3787 0.0
O76 O 0.76219 0.27705 0.568 0.0
O77 O 0.69891 0.33148 0.5807 0.0
O78 O 0.72962 0.31346 0.38916 0.0
O79 O 0.68607 0.25986 0.62232 0.0
O80 O 0.72211 0.23524 0.44332 0.0
O81 O 0.66049 0.29226 0.42694 0.0
O82 O 0.72574 0.232 0.55252 0.0
O83 O 0.65992 0.28788 0.57249 0.0
O84 O 0.68902 0.2726 0.36896 0.0
O85 O 0.7228 0.30442 0.64107 0.0
O86 O 0.76261 0.27614 0.45886 0.0
O87 O 0.69978 0.33576 0.43586 0.0
H88 H 0.22225 0.57062 0.00777 0.0
H89 H 0.22153 0.50032 0.90899 0.0
H90 H 0.22092 0.50055 0.11935 0.0
H91 H 0.25428 0.46262 0.06363 0.0
C92 C 0.24336 0.45896 0.01758 0.0
O93 O 0.2211 0.47226 0.01638 0.0
H94 H 0.25498 0.46515 0.97554 0.0
C95 C 0.22092 0.55023 0.00958 0.0
C96 C 0.22082 0.53735 0.07062 0.0
C97 C 0.22132 0.53715 0.95103 0.0
C98 C 0.22106 0.51076 0.95369 0.0
C99 C 0.22075 0.49766 0.01433 0.0
C100 C 0.22073 0.51089 0.07272 0.0
H101 H 0.92558 0.72708 0.50092 0.0
H102 H 0.99749 0.72815 0.41025 0.0
H103 H 0.9936 0.73032 0.61973 0.0
H104 H 0.03123 0.76394 0.56419 0.0
C105 C 0.03549 0.75363 0.51921 0.0
O106 O 0.02351 0.73064 0.52044 0.0
H107 H 0.02875 0.76532 0.47593 0.0
C108 C 0.94594 0.72661 0.50532 0.0
C109 C 0.95774 0.72806 0.56746 0.0
C110 C 0.96002 0.72668 0.44832 0.0
C111 C 0.98631 0.72774 0.45378 0.0
C112 C -0.00173 0.72888 0.51563 0.0
C113 C 0.98408 0.72901 0.57231 0.0
H114 H 0.75406 0.42733 0.03613 0.0
H115 H 0.76751 0.50215 0.10213 0.0
H116 H 0.75434 0.49011 0.89692 0.0
H117 H 0.79529 0.52683 0.92257 0.0
C118 C 0.78941 0.53286 0.97153 0.0
O119 O 0.7659 0.52335 0.9843 0.0
H120 H 0.80351 0.52554 0.00886 0.0
C121 C 0.756 0.4473 0.02484 0.0
C122 C 0.75294 0.4565 0.95987 0.0
C123 C 0.76087 0.46358 0.07626 0.0
C124 C 0.76377 0.48937 0.06269 0.0
C125 C 0.7622 0.49864 -0.00235 0.0
C126 C 0.75645 0.48238 0.94651 0.0
H127 H 0.06704 0.25976 0.46503 0.0
H128 H 0.00158 0.26042 0.58426 0.0
H129 H 0.99459 0.27736 0.37722 0.0
H130 H 0.9667 0.31217 0.46725 0.0
C131 C 0.96163 0.29762 0.50503 0.0
O132 O 0.97073 0.27444 0.48836 0.0
H133 H 0.97019 0.30316 0.55286 0.0
C134 C 0.04699 0.26243 0.47014 0.0
C135 C 0.03219 0.26874 0.41424 0.0
C136 C 0.03627 0.25879 0.53168 0.0
C137 C 0.01039 0.26301 0.53735 0.0
C138 C 0.99553 0.27024 0.48201 0.0
C139 C 0.0063 0.27255 0.42013 0.0
H140 H 0.72558 0.92517 0.49102 0.0
H141 H 0.72681 0.99738 0.5804 0.0
H142 H 0.72827 0.9931 0.37077 0.0
H143 H 0.76082 0.0316 0.42227 0.0
C144 C 0.75102 0.03582 0.46809 0.0
O145 O 0.72834 0.02335 0.46934 0.0
H146 H 0.76334 0.02941 0.51045 0.0
C147 C 0.72513 0.94557 0.48625 0.0
C148 C 0.72641 0.95728 0.4239 0.0
C149 C 0.72532 0.95978 0.54297 0.0
C150 C 0.72633 0.98612 0.53704 0.0
C151 C 0.72709 0.99802 0.47486 0.0
C152 C 0.72718 0.98367 0.41846 0.0
H153 H 0.5692 0.22814 0.96954 0.0
H154 H 0.5039 0.2344 0.08785 0.0
H155 H 0.49535 0.22003 0.8824 0.0
H156 H 0.45957 0.25637 0.93905 0.0
C157 C 0.45716 0.24675 0.98771 0.0
O158 O 0.47173 0.22528 0.99266 0.0
H159 H 0.46319 0.26004 0.02621 0.0
C160 C 0.54898 0.22762 0.97475 0.0
C161 C 0.53364 0.22343 0.91935 0.0
C162 C 0.53862 0.23237 0.03554 0.0
C163 C 0.51243 0.23088 0.0415 0.0
C164 C 0.49691 0.22612 0.98653 0.0
C165 C 0.50746 0.22287 0.92513 0.0
H166 H 0.25673 0.06676 0.55218 0.0
H167 H 0.25962 0.00127 0.43345 0.0
H168 H 0.277 0.99486 0.64033 0.0
H169 H 0.31215 0.96803 0.55357 0.0
C170 C 0.29818 0.96229 0.51521 0.0
O171 O 0.2746 0.97082 0.52981 0.0
H172 H 0.30397 0.9707 0.46733 0.0
C173 C 0.26011 0.04678 0.54723 0.0
C174 C 0.26711 0.0322 0.60308 0.0
C175 C 0.25676 0.03591 0.48587 0.0
C176 C 0.26193 0.01016 0.48027 0.0
C177 C 0.26965 0.99553 0.53572 0.0
C178 C 0.2717 0.0064 0.59741 0.0
H179 H 0.4276 0.75592 -0.00159 0.0
H180 H 0.49909 0.76478 0.90778 0.0
H181 H 0.49471 0.76566 0.11776 0.0
H182 H 0.5283 0.80422 0.06301 0.0
C183 C 0.53374 0.79474 0.01769 0.0
O184 O 0.52449 0.7705 0.01824 0.0
H185 H 0.52572 0.80582 0.97477 0.0
C186 C 0.44775 0.75895 0.00272 0.0
C187 C 0.45934 0.76068 0.06492 0.0
C188 C 0.46189 0.76024 0.94597 0.0
C189 C 0.48796 0.76349 0.95137 0.0
C190 C 0.49963 0.76589 0.01333 0.0
C191 C 0.48545 0.764 0.0701 0.0
H192 H 0.11275 0.20181 0.11153 0.0
H193 H 0.06933 0.29996 0.37327 0.0
H194 H 0.15925 0.26154 0.18722 0.0
H195 H 0.02414 0.23696 0.31372 0.0
H196 H 0.09846 0.29152 0.28627 0.0
H197 H 0.07706 0.21873 0.16896 0.0
C198 C 0.11548 0.21853 0.13992 0.0
C199 C 0.13922 0.23001 0.14532 0.0
C200 C 0.0819 0.27984 0.29106 0.0
C201 C 0.09832 0.24959 0.21061 0.0
C202 C 0.06515 0.28487 0.34018 0.0
C203 C 0.04442 0.26911 0.35034 0.0
C204 C 0.0781 0.25862 0.25261 0.0
C205 C 0.03988 0.2496 0.30692 0.0
C206 C 0.09504 0.22822 0.1725 0.0
C207 C 0.14147 0.25177 0.18234 0.0
N208 N 0.05688 0.24457 0.26058 0.0
N209 N 0.12136 0.26072 0.21381 0.0
H210 H 0.23403 0.66657 0.69858 0.0
H211 H 0.25504 0.52875 0.85539 0.0
H212 H 0.29117 0.61589 0.63435 0.0
H213 H 0.1952 0.57868 0.90601 0.0
H214 H 0.2656 0.55789 0.76489 0.0
H215 H 0.21728 0.63273 0.76712 0.0
C216 C 0.24311 0.64831 0.69889 0.0
C217 C 0.26429 0.6442 0.66124 0.0
C218 C 0.2499 0.56226 0.79513 0.0
C219 C 0.24503 0.60514 0.73991 0.0
C220 C 0.24374 0.54554 0.84637 0.0
C221 C 0.22443 0.55153 0.88856 0.0
C222 C 0.23666 0.58508 0.78641 0.0
C223 C 0.21049 0.5736 0.87517 0.0
C224 C 0.2334 0.62889 0.73785 0.0
C225 C 0.27493 0.61997 0.66295 0.0
N226 N 0.21708 0.58971 0.82579 0.0
N227 N 0.26533 0.60139 0.70221 0.0
H228 H 0.83406 0.72958 0.18385 0.0
H229 H 0.96795 0.76008 0.34634 0.0
H230 H 0.87943 0.79307 0.12285 0.0
H231 H 0.92124 0.69747 0.4051 0.0
H232 H 0.93955 0.76835 0.25142 0.0
H233 H 0.86898 0.71401 0.25312 0.0
C234 C 0.85141 0.74026 0.18491 0.0
C235 C 0.85364 0.76294 0.14833 0.0
C236 C 0.93577 0.75252 0.2844 0.0
C237 C 0.89387 0.7451 0.22789 0.0
C238 C 0.95208 0.74767 0.33819 0.0
C239 C 0.94667 0.72828 0.38384 0.0
C240 C 0.91397 0.73786 0.2766 0.0
C241 C 0.92581 0.71286 0.37145 0.0
C242 C 0.87143 0.73126 0.22431 0.0
C243 C 0.87678 0.77564 0.15075 0.0
N244 N 0.91003 0.71818 0.31948 0.0
N245 N 0.89592 0.76671 0.19058 0.0
H246 H 0.71885 0.37657 0.60121 0.0
H247 H 0.72083 0.41633 0.96873 0.0
H248 H 0.72213 0.32152 0.76138 0.0
H249 H 0.76753 0.45656 0.83091 0.0
H250 H 0.712 0.385 0.88683 0.0
H251 H 0.72834 0.40983 0.67939 0.0
C252 C 0.72152 0.37153 0.65279 0.0
C253 C 0.71972 0.34634 0.67516 0.0
C254 C 0.72417 0.40073 0.87471 0.0
C255 C 0.72997 0.38404 0.76391 0.0
C256 C 0.7294 0.41857 0.92146 0.0
C257 C 0.74557 0.43886 0.90752 0.0
C258 C 0.73454 0.40344 0.81275 0.0
C259 C 0.75503 0.44126 0.84403 0.0
C260 C 0.72703 0.39043 0.69701 0.0
C261 C 0.72349 0.34071 0.74224 0.0
N262 N 0.74936 0.4237 0.79877 0.0
N263 N 0.72814 0.35949 0.78447 0.0
H264 H 0.67237 0.27037 0.24976 0.0
H265 H 0.53595 0.22028 0.16805 0.0
H266 H 0.61611 0.27217 0.39769 0.0
H267 H 0.57924 0.26358 0.02859 0.0
H268 H 0.56608 0.23236 0.25534 0.0
H269 H 0.63978 0.25955 0.16897 0.0
C270 C 0.65316 0.26835 0.2653 0.0
C271 C 0.64688 0.27225 0.33037 0.0
C272 C 0.56876 0.23915 0.20546 0.0
C273 C 0.60961 0.25969 0.23834 0.0
C274 C 0.55162 0.23237 0.15575 0.0
C275 C 0.55537 0.24042 0.09052 0.0
C276 C 0.58983 0.25371 0.1893 0.0
C277 C 0.57603 0.25609 0.07755 0.0
C278 C 0.63459 0.26232 0.21915 0.0
C279 C 0.62164 0.2695 0.34778 0.0
N280 N 0.59261 0.26192 0.12624 0.0
N281 N 0.60384 0.26317 0.30196 0.0
H282 H 0.26328 0.1603 0.83515 0.0
H283 H 0.237 0.0226 0.70651 0.0
H284 H 0.20154 0.11376 0.89925 0.0
H285 H 0.29692 0.07084 0.64104 0.0
H286 H 0.2288 0.05189 0.79401 0.0
H287 H 0.28006 0.12467 0.77854 0.0
C288 C 0.25321 0.14259 0.83739 0.0
C289 C 0.23068 0.14021 0.87114 0.0
C290 C 0.24417 0.05575 0.76159 0.0
C291 C 0.24997 0.09911 0.8063 0.0
C292 C 0.24903 0.03889 0.71229 0.0
C293 C 0.26758 0.04449 0.6668 0.0
C294 C 0.25793 0.07832 0.76473 0.0
C295 C 0.28242 0.06598 0.67535 0.0
C296 C 0.26293 0.12215 0.80531 0.0
C297 C 0.2188 0.11657 0.87323 0.0
N298 N 0.27703 0.08232 0.72269 0.0
N299 N 0.22845 0.09701 0.84059 0.0
H300 H 0.32777 0.75602 0.2943 0.0
H301 H 0.46652 0.72964 0.17363 0.0
H302 H 0.37604 0.69797 0.38196 0.0
H303 H 0.41636 0.78618 0.08777 0.0
H304 H 0.43608 0.72103 0.25963 0.0
H305 H 0.36205 0.76998 0.22615 0.0
C306 C 0.34558 0.74614 0.29924 0.0
C307 C 0.34888 0.72557 0.34353 0.0
C308 C 0.43191 0.73555 0.22244 0.0
C309 C 0.38844 0.74162 0.26533 0.0
C310 C 0.44933 0.74058 0.17381 0.0
C311 C 0.44371 0.75842 0.12339 0.0
C312 C 0.40884 0.74852 0.22033 0.0
C313 C 0.42118 0.77201 0.12536 0.0
C314 C 0.36523 0.75423 0.2604 0.0
C315 C 0.37256 0.71379 0.34817 0.0
N316 N 0.40448 0.76661 0.17262 0.0
N317 N 0.3914 0.72188 0.30917 0.0
H318 H 0.79363 0.87981 0.87287 0.0
H319 H 0.69504 0.92223 0.58835 0.0
H320 H 0.73175 0.83429 0.80304 0.0
H321 H 0.75997 0.96633 0.64246 0.0
H322 H 0.70383 0.89379 0.68252 0.0
H323 H 0.77787 0.91497 0.80275 0.0
C324 C 0.77667 0.87723 0.84319 0.0
C325 C 0.76424 0.85389 0.84308 0.0
C326 C 0.71598 0.90989 0.67459 0.0
C327 C 0.74604 0.89408 0.76332 0.0
C328 C 0.71087 0.92616 0.62106 0.0
C329 C 0.72697 0.94641 0.60751 0.0
C330 C 0.73755 0.9137 0.71436 0.0
C331 C 0.74713 0.95087 0.65143 0.0
C332 C 0.76767 0.89733 0.8033 0.0
C333 C 0.74223 0.85175 0.80401 0.0
N334 N 0.75213 0.93435 0.70243 0.0
N335 N 0.73397 0.8715 0.7655 0.0
H336 H 0.82531 0.73877 0.79166 0.0
H337 H 0.96408 0.76162 0.6657 0.0
H338 H 0.87592 0.79404 0.87293 0.0
H339 H 0.91542 0.70192 0.60008 0.0
H340 H 0.93376 0.77149 0.74894 0.0
H341 H 0.85921 0.72352 0.72595 0.0
C342 C 0.84353 0.74776 0.79566 0.0
C343 C 0.84765 0.76792 0.83751 0.0
C344 C 0.92988 0.75601 0.71691 0.0
C345 C 0.88672 0.75037 0.76236 0.0
C346 C 0.94728 0.75022 0.66979 0.0
C347 C 0.94209 0.73111 0.62549 0.0
C348 C 0.90712 0.74264 0.71941 0.0
C349 C 0.91992 0.71711 0.63255 0.0
C350 C 0.86297 0.73892 0.75834 0.0
C351 C 0.87181 0.77856 0.84109 0.0
N352 N 0.90312 0.72335 0.67804 0.0
N353 N 0.89039 0.76977 0.80364 0.0
H354 H 0.76418 0.34066 0.34375 0.0
H355 H 0.72717 0.47203 0.17075 0.0
H356 H 0.69537 0.38031 0.3802 0.0
H357 H 0.7938 0.42964 0.13165 0.0
H358 H 0.71982 0.44398 0.26613 0.0
H359 H 0.77926 0.37754 0.28342 0.0
C360 C 0.7522 0.35716 0.3391 0.0
C361 C 0.7282 0.35717 0.36584 0.0
C362 C 0.73643 0.44123 0.2378 0.0
C363 C 0.74547 0.39967 0.29655 0.0
C364 C 0.74076 0.4574 0.18397 0.0
C365 C 0.76104 0.45293 0.14368 0.0
C366 C 0.75247 0.4205 0.25065 0.0
C367 C 0.77794 0.43356 0.16179 0.0
C368 C 0.76093 0.37832 0.30494 0.0
C369 C 0.71384 0.37936 0.3596 0.0
N370 N 0.77306 0.4178 0.2134 0.0
N371 N 0.72255 0.39962 0.32471 0.0
H372 H 0.17046 0.22376 0.75041 0.0
H373 H 0.03463 0.27297 0.66057 0.0
H374 H 0.11491 0.22055 0.90033 0.0
H375 H 0.07472 0.22464 0.53298 0.0
H376 H 0.06487 0.26133 0.74992 0.0
H377 H 0.13708 0.23322 0.66842 0.0
C378 C 0.15125 0.22525 0.76607 0.0
C379 C 0.14534 0.22131 0.83201 0.0
C380 C 0.06678 0.25328 0.70224 0.0
C381 C 0.10731 0.23234 0.7389 0.0
C382 C 0.04954 0.25978 0.65141 0.0
C383 C 0.05245 0.25023 0.58865 0.0
C384 C 0.08714 0.23757 0.68953 0.0
C385 C 0.07221 0.23323 0.5797 0.0
C386 C 0.13226 0.23046 0.71934 0.0
C387 C 0.12012 0.2233 0.84974 0.0
N388 N 0.08903 0.2278 0.6292 0.0
N389 N 0.10192 0.22893 0.80335 0.0
H390 H 0.23056 0.66774 0.30358 0.0
H391 H 0.25308 0.52932 0.17635 0.0
H392 H 0.28728 0.61705 0.38719 0.0
H393 H 0.19439 0.57926 0.10096 0.0
H394 H 0.26249 0.55883 0.2635 0.0
H395 H 0.21435 0.63378 0.23697 0.0
C396 C 0.23961 0.64946 0.3081 0.0
C397 C 0.26054 0.6454 0.35059 0.0
C398 C 0.2473 0.56315 0.22849 0.0
C399 C 0.24196 0.60628 0.27425 0.0
C400 C 0.24177 0.54619 0.17913 0.0
C401 C 0.22314 0.55204 0.131 0.0
C402 C 0.23412 0.58609 0.2294 0.0
C403 C 0.2092 0.57427 0.13654 0.0
C404 C 0.23024 0.63001 0.27018 0.0
C405 C 0.27123 0.62116 0.35479 0.0
N406 N 0.21518 0.59062 0.18426 0.0
N407 N 0.26196 0.60259 0.31667 0.0
H408 H 0.33635 0.75952 0.68225 0.0
H409 H 0.46853 0.72442 0.85473 0.0
H410 H 0.37813 0.69288 0.63695 0.0
H411 H 0.4247 0.79014 0.89444 0.0
H412 H 0.43957 0.71561 0.76216 0.0
H413 H 0.37187 0.77371 0.74841 0.0
C414 C 0.35303 0.7478 0.68633 0.0
C415 C 0.35408 0.72472 0.65496 0.0
C416 C 0.4366 0.73223 0.79032 0.0
C417 C 0.39509 0.74097 0.73108 0.0
C418 C 0.45321 0.73734 0.84262 0.0
C419 C 0.44872 0.7579 0.88203 0.0
C420 C 0.41553 0.74785 0.77797 0.0
C421 C 0.42858 0.774 0.86521 0.0
C422 C 0.37343 0.75602 0.72389 0.0
C423 C 0.37645 0.71067 0.66088 0.0
N424 N 0.41257 0.76849 0.8149 0.0
N425 N 0.39601 0.71887 0.69901 0.0
H426 H 0.79511 0.87643 0.11619 0.0
H427 H 0.69982 0.91526 0.39149 0.0
H428 H 0.74054 0.82617 0.20254 0.0
H429 H 0.76043 0.96295 0.32655 0.0
H430 H 0.7105 0.88494 0.30932 0.0
H431 H 0.77934 0.91041 0.18188 0.0
C432 C 0.77983 0.8725 0.14888 0.0
C433 C 0.76931 0.84828 0.15423 0.0
C434 C 0.72132 0.90215 0.31246 0.0
C435 C 0.75105 0.88718 0.22896 0.0
C436 C 0.71517 0.91948 0.3592 0.0
C437 C 0.72945 0.94147 0.36623 0.0
C438 C 0.74198 0.90678 0.2726 0.0
C439 C 0.74891 0.94623 0.32261 0.0
C440 C 0.77081 0.89194 0.18621 0.0
C441 C 0.74944 0.84441 0.19717 0.0
N442 N 0.75483 0.92884 0.2781 0.0
N443 N 0.74102 0.86362 0.23289 0.0
H444 H 0.6648 0.22814 0.69682 0.0
H445 H 0.56517 0.18741 0.87754 0.0
H446 H 0.61454 0.28369 0.6059 0.0
H447 H 0.53114 0.25856 0.81972 0.0
H448 H 0.59513 0.19291 0.79003 0.0
H449 H 0.63019 0.21116 0.7587 0.0
C450 C 0.64637 0.23658 0.68916 0.0
C451 C 0.64274 0.25758 0.6464 0.0
C452 C 0.5812 0.20741 0.79601 0.0
C453 C 0.60234 0.23761 0.71627 0.0
C454 C 0.56371 0.20392 0.84506 0.0
C455 C 0.54582 0.22259 0.85555 0.0
C456 C 0.58121 0.23015 0.75868 0.0
C457 C 0.54466 0.24371 0.81273 0.0
C458 C 0.62635 0.2266 0.72409 0.0
C459 C 0.61834 0.26762 0.63861 0.0
N460 N 0.56245 0.24715 0.76683 0.0
N461 N 0.59918 0.25772 0.67374 0.0
H462 H 0.22032 0.11452 0.11163 0.0
H463 H 0.22073 0.07255 0.48505 0.0
H464 H 0.22063 0.16802 0.26638 0.0
H465 H 0.27122 0.03548 0.35701 0.0
H466 H 0.20998 0.10283 0.3966 0.0
H467 H 0.22975 0.08063 0.194 0.0
C468 C 0.22235 0.11908 0.16286 0.0
C469 C 0.21978 0.14402 0.18253 0.0
C470 C 0.22331 0.08796 0.38794 0.0
C471 C 0.22981 0.10565 0.27585 0.0
C472 C 0.22958 0.07073 0.43833 0.0
C473 C 0.24752 0.05186 0.4291 0.0
C474 C 0.23452 0.08603 0.32721 0.0
C475 C 0.25745 0.04981 0.36644 0.0
C476 C 0.22778 0.09984 0.20944 0.0
C477 C 0.22265 0.14906 0.24926 0.0
N478 N 0.2509 0.06686 0.31764 0.0
N479 N 0.22723 0.12997 0.29368 0.0
H480 H 0.22369 0.30493 0.89439 0.0
H481 H 0.23116 0.42629 0.11759 0.0
H482 H 0.21441 0.30297 0.104 0.0
H483 H 0.24166 0.42961 0.90906 0.0
H484 H 0.22214 0.38121 0.11171 0.0
H485 H 0.22726 0.35088 0.89649 0.0
C486 C 0.22218 0.31412 0.94071 0.0
C487 C 0.21899 0.29998 -0.00082 0.0
C488 C 0.22644 0.39173 0.06713 0.0
C489 C 0.22317 0.35248 0.00193 0.0
C490 C 0.23164 0.41738 0.07064 0.0
C491 C 0.23771 0.43135 0.01402 0.0
C492 C 0.22717 0.38002 0.0064 0.0
C493 C 0.23754 0.41924 0.95397 0.0
C494 C 0.22429 0.34035 0.94189 0.0
C495 C 0.21713 0.31297 0.05773 0.0
N496 N 0.23254 0.39417 0.95174 0.0
N497 N 0.21939 0.33841 0.0576 0.0
H498 H 0.19243 0.72415 0.61322 0.0
H499 H 0.06361 0.74996 0.40979 0.0
H500 H 0.1875 0.73044 0.40167 0.0
H501 H 0.06958 0.74601 0.62079 0.0
H502 H 0.10876 0.74117 0.40519 0.0
H503 H 0.14712 0.73006 0.61643 0.0
C504 C 0.18184 0.72665 0.56734 0.0
C505 C 0.1939 0.72696 0.50704 0.0
C506 C 0.10025 0.74234 0.45253 0.0
C507 C 0.14186 0.73385 0.51054 0.0
C508 C 0.07459 0.74746 0.45507 0.0
C509 C 0.06322 0.7493 0.51574 0.0
C510 C 0.11448 0.73878 0.51116 0.0
C511 C 0.07791 0.74525 0.57314 0.0
C512 C 0.15592 0.73006 0.56927 0.0
C513 C 0.17907 0.73015 0.4493 0.0
N514 N 0.10285 0.74028 0.56948 0.0
N515 N 0.15384 0.7336 0.45251 0.0
H516 H 0.78068 0.68688 0.09675 0.0
H517 H 0.78219 0.56689 0.8689 0.0
H518 H 0.77231 0.69155 0.88553 0.0
H519 H 0.79305 0.56223 0.07891 0.0
H520 H 0.77847 0.61276 0.87402 0.0
H521 H 0.78507 0.64126 0.09146 0.0
C522 C 0.7797 0.67836 0.04925 0.0
C523 C 0.77607 0.69316 0.9915 0.0
C524 C 0.78184 0.60177 0.919 0.0
C525 C 0.78115 0.64086 0.98518 0.0
C526 C 0.78404 0.57566 0.91598 0.0
C527 C 0.78842 0.56102 0.97345 0.0
C528 C 0.78375 0.61321 0.98009 0.0
C529 C 0.7901 0.57306 0.03349 0.0
C530 C 0.78226 0.65228 0.04629 0.0
C531 C 0.77505 0.68098 0.93139 0.0
N532 N 0.7878 0.5985 0.03529 0.0
N533 N 0.77757 0.65556 0.92984 0.0
H534 H 0.80322 0.28698 0.40899 0.0
H535 H 0.93358 0.28834 0.61421 0.0
H536 H 0.80746 0.27782 0.62008 0.0
H537 H 0.92639 0.30237 0.40548 0.0
H538 H 0.88766 0.28429 0.61888 0.0
H539 H 0.84841 0.29254 0.40827 0.0
C540 C 0.81363 0.28608 0.45541 0.0
C541 C 0.8014 0.28177 0.51478 0.0
C542 C 0.89611 0.28843 0.57215 0.0
C543 C 0.85362 0.28823 0.51407 0.0
C544 C 0.92223 0.29079 0.56954 0.0
C545 C 0.93356 0.29614 0.50952 0.0
C546 C 0.88135 0.29115 0.51414 0.0
C547 C 0.91824 0.29863 0.45277 0.0
C548 C 0.83955 0.28934 0.45487 0.0
C549 C 0.81606 0.28105 0.57317 0.0
N550 N 0.89293 0.29614 0.45648 0.0
N551 N 0.84145 0.28417 0.57135 0.0
H552 H 0.72791 0.18737 0.59847 0.0
H553 H 0.74264 0.0699 0.36623 0.0
H554 H 0.72374 0.19355 0.38687 0.0
H555 H 0.74739 0.06406 0.5772 0.0
H556 H 0.73402 0.11509 0.37261 0.0
H557 H 0.73313 0.14194 0.59165 0.0
C558 C 0.72796 0.17921 0.55053 0.0
C559 C 0.72553 0.19442 0.49313 0.0
C560 C 0.73703 0.10398 0.41756 0.0
C561 C 0.73161 0.14228 0.48508 0.0
C562 C 0.74204 0.07828 0.41384 0.0
C563 C 0.74631 0.06357 0.47126 0.0
C564 C 0.73608 0.11491 0.47923 0.0
C565 C 0.7447 0.07501 0.53188 0.0
C566 C 0.73098 0.15322 0.54671 0.0
C567 C 0.72564 0.18265 0.43247 0.0
N568 N 0.73985 0.10006 0.53432 0.0
N569 N 0.72876 0.15732 0.43006 0.0
H570 H 0.30468 0.22771 0.12341 0.0
H571 H 0.42495 0.22742 0.89583 0.0
H572 H 0.30248 0.20956 0.91863 0.0
H573 H 0.4284 0.24935 0.09724 0.0
H574 H 0.38049 0.21685 0.9072 0.0
H575 H 0.35057 0.23158 0.11921 0.0
C576 C 0.31383 0.22425 0.07786 0.0
C577 C 0.29966 0.21861 0.02111 0.0
C578 C 0.3909 0.22396 0.94906 0.0
C579 C 0.352 0.22311 0.01589 0.0
C580 C 0.41621 0.23003 0.9424 0.0
C581 C 0.43002 0.23977 -0.00481 0.0
C582 C 0.37935 0.22758 0.00913 0.0
C583 C 0.41814 0.24232 0.05506 0.0
C584 C 0.34 0.22657 0.07541 0.0
C585 C 0.31254 0.21431 0.96342 0.0
N586 N 0.39338 0.23646 0.06032 0.0
N587 N 0.33788 0.2168 0.96225 0.0
H588 H 0.27796 0.80807 0.39457 0.0
H589 H 0.3045 0.92765 0.61621 0.0
H590 H 0.28844 0.80382 0.60532 0.0
H591 H 0.289 0.93346 0.40795 0.0
H592 H 0.30087 0.88176 0.61189 0.0
H593 H 0.28411 0.85367 0.39697 0.0
C594 C 0.28158 0.81666 0.44131 0.0
C595 C 0.28254 0.80202 0.49986 0.0
C596 C 0.29843 0.893 0.56696 0.0
C597 C 0.28964 0.85421 0.50286 0.0
C598 C 0.30061 0.91912 0.56949 0.0
C599 C 0.29751 0.93412 0.51218 0.0
C600 C 0.29286 0.88186 0.50671 0.0
C601 C 0.29192 0.92238 0.45297 0.0
C602 C 0.28507 0.84272 0.44262 0.0
C603 C 0.28736 0.81427 0.55892 0.0
N604 N 0.28981 0.89689 0.45169 0.0
N605 N 0.2907 0.8396 0.55886 0.0
H606 H 0.69244 0.7764 0.10958 0.0
H607 H 0.56205 0.79457 0.90799 0.0
H608 H 0.68661 0.78079 0.89794 0.0
H609 H 0.56848 0.791 0.11896 0.0
H610 H 0.6078 0.79009 0.90287 0.0
H611 H 0.64712 0.78208 0.11371 0.0
C612 C 0.68166 0.7785 0.06389 0.0
C613 C 0.69343 0.77805 0.00326 0.0
C614 C 0.59926 0.79048 0.95032 0.0
C615 C 0.64138 0.78465 0.0078 0.0
C616 C 0.57324 0.79314 0.95315 0.0
C617 C 0.56177 0.79367 0.01396 0.0
C618 C 0.61378 0.78804 0.0088 0.0
C619 C 0.57682 0.79112 0.07121 0.0
C620 C 0.65574 0.78179 0.06635 0.0
C621 C 0.6784 0.78096 0.9458 0.0
N622 N 0.6021 0.78845 0.06726 0.0
N623 N 0.65315 0.78412 0.94951 0.0
loop_
_geom_bond_atom_site_label_1
_geom_bond_atom_site_label_2
_geom_bond_distance
_geom_bond_site_symmetry_2
_ccdc_geom_bond_type
Sc0 O3 2.025 . S
Sc0 O10 2.105 . S
Sc0 O13 2.105 . S
Sc0 O16 2.105 . S
Sc0 O19 2.105 . S
Sc1 O3 2.025 . S
Sc1 O11 2.105 . S
Sc1 O15 2.105 1_554 S
Sc1 O17 2.105 . S
Sc1 O21 2.105 1_554 S
Sc2 O3 2.025 1_556 S
Sc2 O12 2.105 . S
Sc2 O14 2.105 . S
Sc2 O18 2.105 . S
Sc2 O20 2.105 . S
O3 Sc0 2.025 . S
O3 Sc1 2.025 . S
O3 Sc2 2.025 1_554 S
C4 O10 1.268 . S
C4 O20 1.268 1_554 S
C5 O11 1.268 . S
C5 O19 1.268 . S
C6 O12 1.268 . S
C6 O21 1.268 . S
C7 O13 1.268 . S
C7 O17 1.268 . S
C8 O14 1.268 1_554 S
C8 O16 1.268 . S
C9 O15 1.268 . S
C9 O18 1.268 . S
O10 Sc0 2.105 . S
O10 C4 1.268 . S
O11 Sc1 2.105 . S
O11 C5 1.268 . S
O12 Sc2 2.105 . S
O12 C6 1.268 . S
O13 Sc0 2.105 . S
O13 C7 1.268 . S
O14 Sc2 2.105 . S
O14 C8 1.268 1_556 S
O15 Sc1 2.105 1_556 S
O15 C9 1.268 . S
O16 Sc0 2.105 . S
O16 C8 1.268 . S
O17 Sc1 2.105 . S
O17 C7 1.268 . S
O18 Sc2 2.105 . S
O18 C9 1.268 . S
O19 Sc0 2.105 . S
O19 C5 1.268 . S
O20 Sc2 2.105 . S
O20 C4 1.268 1_556 S
O21 Sc1 2.105 1_556 S
O21 C6 1.268 . S
Sc22 O25 2.025 . S
Sc22 O32 2.105 . S
Sc22 O35 2.105 . S
Sc22 O38 2.105 . S
Sc22 O41 2.105 . S
Sc23 O25 2.025 . S
Sc23 O33 2.105 . S
Sc23 O37 2.105 . S
Sc23 O39 2.105 . S
Sc23 O43 2.105 . S
Sc24 O25 2.025 . S
Sc24 O34 2.105 . S
Sc24 O36 2.105 . S
Sc24 O40 2.105 . S
Sc24 O42 2.105 . S
O25 Sc22 2.025 . S
O25 Sc23 2.025 . S
O25 Sc24 2.025 . S
C26 O32 1.268 . S
C26 O42 1.268 . S
C27 O33 1.268 . S
C27 O41 1.268 . S
C28 O34 1.268 . S
C28 O43 1.268 . S
C29 O35 1.268 . S
C29 O39 1.268 . S
C30 O36 1.268 . S
C30 O38 1.268 . S
C31 O37 1.268 . S
C31 O40 1.268 . S
O32 Sc22 2.105 . S
O32 C26 1.268 . S
O33 Sc23 2.105 . S
O33 C27 1.268 . S
O34 Sc24 2.105 . S
O34 C28 1.268 . S
O35 Sc22 2.105 . S
O35 C29 1.268 . S
O36 Sc24 2.105 . S
O36 C30 1.268 . S
O37 Sc23 2.105 . S
O37 C31 1.268 . S
O38 Sc22 2.105 . S
O38 C30 1.268 . S
O39 Sc23 2.105 . S
O39 C29 1.268 . S
O40 Sc24 2.105 . S
O40 C31 1.268 . S
O41 Sc22 2.105 . S
O41 C27 1.268 . S
O42 Sc24 2.105 . S
O42 C26 1.268 . S
O43 Sc23 2.105 . S
O43 C28 1.268 . S
Sc44 O47 2.025 1_556 S
Sc44 O54 2.105 . S
Sc44 O57 2.105 . S
Sc44 O60 2.105 . S
Sc44 O63 2.105 . S
Sc45 O47 2.025 . S
Sc45 O55 2.105 1_554 S
Sc45 O59 2.105 . S
Sc45 O61 2.105 1_554 S
Sc45 O65 2.105 . S
Sc46 O47 2.025 . S
Sc46 O56 2.105 . S
Sc46 O58 2.105 . S
Sc46 O62 2.105 . S
Sc46 O64 2.105 . S
O47 Sc44 2.025 1_554 S
O47 Sc45 2.025 . S
O47 Sc46 2.025 . S
C48 O54 1.268 1_554 S
C48 O64 1.268 . S
C49 O55 1.268 . S
C49 O63 1.268 . S
C50 O56 1.268 . S
C50 O65 1.268 . S
C51 O57 1.268 . S
C51 O61 1.268 . S
C52 O58 1.268 . S
C52 O60 1.268 1_554 S
C53 O59 1.268 . S
C53 O62 1.268 . S
O54 Sc44 2.105 . S
O54 C48 1.268 1_556 S
O55 Sc45 2.105 1_556 S
O55 C49 1.268 . S
O56 Sc46 2.105 . S
O56 C50 1.268 . S
O57 Sc44 2.105 . S
O57 C51 1.268 . S
O58 Sc46 2.105 . S
O58 C52 1.268 . S
O59 Sc45 2.105 . S
O59 C53 1.268 . S
O60 Sc44 2.105 . S
O60 C52 1.268 1_556 S
O61 Sc45 2.105 1_556 S
O61 C51 1.268 . S
O62 Sc46 2.105 . S
O62 C53 1.268 . S
O63 Sc44 2.105 . S
O63 C49 1.268 . S
O64 Sc46 2.105 . S
O64 C48 1.268 . S
O65 Sc45 2.105 . S
O65 C50 1.268 . S
Sc66 O69 2.025 . S
Sc66 O76 2.105 . S
Sc66 O79 2.105 . S
Sc66 O82 2.105 . S
Sc66 O85 2.105 . S
Sc67 O69 2.025 . S
Sc67 O77 2.105 . S
Sc67 O81 2.105 . S
Sc67 O83 2.105 . S
Sc67 O87 2.105 . S
Sc68 O69 2.025 . S
Sc68 O78 2.105 . S
Sc68 O80 2.105 . S
Sc68 O84 2.105 . S
Sc68 O86 2.105 . S
O69 Sc66 2.025 . S
O69 Sc67 2.025 . S
O69 Sc68 2.025 . S
C70 O76 1.268 . S
C70 O86 1.268 . S
C71 O77 1.268 . S
C71 O85 1.268 . S
C72 O78 1.268 . S
C72 O87 1.268 . S
C73 O79 1.268 . S
C73 O83 1.268 . S
C74 O80 1.268 . S
C74 O82 1.268 . S
C75 O81 1.268 . S
C75 O84 1.268 . S
O76 Sc66 2.105 . S
O76 C70 1.268 . S
O77 Sc67 2.105 . S
O77 C71 1.268 . S
O78 Sc68 2.105 . S
O78 C72 1.268 . S
O79 Sc66 2.105 . S
O79 C73 1.268 . S
O80 Sc68 2.105 . S
O80 C74 1.268 . S
O81 Sc67 2.105 . S
O81 C75 1.268 . S
O82 Sc66 2.105 . S
O82 C74 1.268 . S
O83 Sc67 2.105 . S
O83 C73 1.268 . S
O84 Sc68 2.105 . S
O84 C75 1.268 . S
O85 Sc66 2.105 . S
O85 C71 1.268 . S
O86 Sc68 2.105 . S
O86 C70 1.268 . S
O87 Sc67 2.105 . S
O87 C72 1.268 . S
H88 C95 0.929 . S
H89 C98 0.930 . S
H90 C100 0.929 . S
H91 C92 0.969 . S
C92 H91 0.969 . S
C92 O93 1.550 1_556 S
C92 H94 0.973 . S
O93 C92 1.550 1_554 S
O93 C99 1.412 . S
H94 C92 0.973 . S
C95 H88 0.929 . S
C95 C96 1.400 . S
C95 C97 1.364 1_554 S
C96 C95 1.400 . S
C96 C100 1.377 . S
C97 C95 1.364 1_556 S
C97 C98 1.374 . S
C98 H89 0.930 . S
C98 C97 1.374 . S
C98 C99 1.383 1_556 S
C99 O93 1.412 . S
C99 C98 1.383 1_554 S
C99 C100 1.394 . S
C100 H90 0.929 . S
C100 C96 1.377 . S
C100 C99 1.394 . S
H101 C108 0.929 . S
H102 C111 0.930 . S
H103 C113 0.929 . S
H104 C105 0.969 . S
C105 H104 0.969 . S
C105 O106 1.550 . S
C105 H107 0.973 . S
O106 C105 1.550 . S
O106 C112 1.412 1_455 S
H107 C105 0.973 . S
C108 H101 0.929 . S
C108 C109 1.400 . S
C108 C110 1.364 . S
C109 C108 1.400 . S
C109 C113 1.377 . S
C110 C108 1.364 . S
C110 C111 1.374 . S
C111 H102 0.930 . S
C111 C110 1.374 . S
C111 C112 1.383 . S
C112 O106 1.412 1_655 S
C112 C111 1.383 . S
C112 C113 1.394 . S
C113 H103 0.929 . S
C113 C109 1.377 . S
C113 C112 1.394 . S
H114 C121 0.929 . S
H115 C124 0.930 . S
H116 C126 0.929 . S
H117 C118 0.969 . S
C118 H117 0.969 . S
C118 O119 1.550 1_554 S
C118 H120 0.973 . S
O119 C118 1.550 1_556 S
O119 C125 1.412 . S
H120 C118 0.973 . S
C121 H114 0.929 . S
C121 C122 1.399 1_554 S
C121 C123 1.365 . S
C122 C121 1.399 1_556 S
C122 C126 1.377 . S
C123 C121 1.365 . S
C123 C124 1.374 . S
C124 H115 0.930 . S
C124 C123 1.374 . S
C124 C125 1.383 1_554 S
C125 O119 1.412 . S
C125 C124 1.383 1_556 S
C125 C126 1.394 . S
C126 H116 0.929 . S
C126 C122 1.377 . S
C126 C125 1.394 . S
H127 C134 0.929 . S
H128 C137 0.930 . S
H129 C139 0.929 . S
H130 C131 0.969 . S
C131 H130 0.969 . S
C131 O132 1.550 . S
C131 H133 0.973 . S
O132 C131 1.550 . S
O132 C138 1.412 1_655 S
H133 C131 0.973 . S
C134 H127 0.929 . S
C134 C135 1.400 . S
C134 C136 1.364 . S
C135 C134 1.400 . S
C135 C139 1.377 . S
C136 C134 1.364 . S
C136 C137 1.374 . S
C137 H128 0.930 . S
C137 C136 1.374 . S
C137 C138 1.383 . S
C138 O132 1.412 1_455 S
C138 C137 1.383 . S
C138 C139 1.394 . S
C139 H129 0.929 . S
C139 C135 1.377 . S
C139 C138 1.394 . S
H140 C147 0.929 . S
H141 C150 0.930 . S
H142 C152 0.929 . S
H143 C144 0.969 . S
C144 H143 0.969 . S
C144 O145 1.550 . S
C144 H146 0.973 . S
O145 C144 1.550 . S
O145 C151 1.412 1_545 S
H146 C144 0.973 . S
C147 H140 0.929 . S
C147 C148 1.400 . S
C147 C149 1.364 . S
C148 C147 1.400 . S
C148 C152 1.377 . S
C149 C147 1.364 . S
C149 C150 1.374 . S
C150 H141 0.930 . S
C150 C149 1.374 . S
C150 C151 1.383 . S
C151 O145 1.412 1_565 S
C151 C150 1.383 . S
C151 C152 1.394 . S
C152 H142 0.929 . S
C152 C148 1.377 . S
C152 C151 1.394 . S
H153 C160 0.929 . S
H154 C163 0.930 . S
H155 C165 0.929 . S
H156 C157 0.969 . S
C157 H156 0.969 . S
C157 O158 1.550 1_554 S
C157 H159 0.973 . S
O158 C157 1.550 1_556 S
O158 C164 1.412 . S
H159 C157 0.973 . S
C160 H153 0.929 . S
C160 C161 1.399 1_554 S
C160 C162 1.364 . S
C161 C160 1.399 1_556 S
C161 C165 1.377 . S
C162 C160 1.364 . S
C162 C163 1.374 . S
C163 H154 0.930 . S
C163 C162 1.374 . S
C163 C164 1.383 1_554 S
C164 O158 1.412 . S
C164 C163 1.383 1_556 S
C164 C165 1.394 . S
C165 H155 0.929 . S
C165 C161 1.377 . S
C165 C164 1.394 . S
H166 C173 0.929 . S
H167 C176 0.930 . S
H168 C178 0.929 . S
H169 C170 0.969 . S
C170 H169 0.969 . S
C170 O171 1.550 . S
C170 H172 0.973 . S
O171 C170 1.550 . S
O171 C177 1.412 1_565 S
H172 C170 0.973 . S
C173 H166 0.929 . S
C173 C174 1.400 . S
C173 C175 1.364 . S
C174 C173 1.400 . S
C174 C178 1.377 . S
C175 C173 1.364 . S
C175 C176 1.374 . S
C176 H167 0.930 . S
C176 C175 1.374 . S
C176 C177 1.383 . S
C177 O171 1.412 1_545 S
C177 C176 1.383 . S
C177 C178 1.394 . S
C178 H168 0.929 . S
C178 C174 1.377 . S
C178 C177 1.394 . S
H179 C186 0.929 . S
H180 C189 0.930 . S
H181 C191 0.929 . S
H182 C183 0.969 . S
C183 H182 0.969 . S
C183 O184 1.550 1_556 S
C183 H185 0.973 . S
O184 C183 1.550 1_554 S
O184 C190 1.412 . S
H185 C183 0.973 . S
C186 H179 0.929 . S
C186 C187 1.400 . S
C186 C188 1.364 1_554 S
C187 C186 1.400 . S
C187 C191 1.377 . S
C188 C186 1.364 1_556 S
C188 C189 1.374 . S
C189 H180 0.930 . S
C189 C188 1.374 . S
C189 C190 1.383 1_556 S
C190 O184 1.412 . S
C190 C189 1.383 1_554 S
C190 C191 1.394 . S
C191 H181 0.929 . S
C191 C187 1.377 . S
C191 C190 1.394 . S
H192 C198 0.930 . S
H193 C202 0.930 . S
H194 C207 0.929 . S
H195 C205 0.929 . S
H196 C200 0.929 . S
H197 C206 0.929 . S
C198 H192 0.930 . S
C198 C199 1.367 . S
C198 C206 1.378 . S
C199 C198 1.367 . S
C199 C207 1.433 . S
C200 H196 0.929 . S
C200 C202 1.378 . S
C200 C204 1.350 . S
C201 C204 1.463 . S
C201 C206 1.350 . S
C201 N209 1.427 . S
C202 H193 0.930 . S
C202 C200 1.378 . S
C202 C203 1.367 . S
C203 C202 1.367 . S
C203 C205 1.433 . S
C204 C200 1.350 . S
C204 C201 1.463 . S
C204 N208 1.427 . S
C205 H195 0.929 . S
C205 C203 1.433 . S
C205 N208 1.384 . S
C206 H197 0.929 . S
C206 C198 1.378 . S
C206 C201 1.350 . S
C207 H194 0.929 . S
C207 C199 1.433 . S
C207 N209 1.384 . S
N208 C204 1.427 . S
N208 C205 1.384 . S
N209 C201 1.427 . S
N209 C207 1.384 . S
H210 C216 0.930 . S
H211 C220 0.930 . S
H212 C225 0.929 . S
H213 C223 0.929 . S
H214 C218 0.929 . S
H215 C224 0.929 . S
C216 H210 0.930 . S
C216 C217 1.367 . S
C216 C224 1.378 . S
C217 C216 1.367 . S
C217 C225 1.433 . S
C218 H214 0.929 . S
C218 C220 1.378 . S
C218 C222 1.350 . S
C219 C222 1.463 . S
C219 C224 1.350 . S
C219 N227 1.427 . S
C220 H211 0.930 . S
C220 C218 1.378 . S
C220 C221 1.367 . S
C221 C220 1.367 . S
C221 C223 1.433 . S
C222 C218 1.350 . S
C222 C219 1.463 . S
C222 N226 1.427 . S
C223 H213 0.929 . S
C223 C221 1.433 . S
C223 N226 1.384 . S
C224 H215 0.929 . S
C224 C216 1.378 . S
C224 C219 1.350 . S
C225 H212 0.929 . S
C225 C217 1.433 . S
C225 N227 1.384 . S
N226 C222 1.427 . S
N226 C223 1.384 . S
N227 C219 1.427 . S
N227 C225 1.384 . S
H228 C234 0.930 . S
H229 C238 0.930 . S
H230 C243 0.929 . S
H231 C241 0.929 . S
H232 C236 0.929 . S
H233 C242 0.929 . S
C234 H228 0.930 . S
C234 C235 1.367 . S
C234 C242 1.378 . S
C235 C234 1.367 . S
C235 C243 1.433 . S
C236 H232 0.929 . S
C236 C238 1.378 . S
C236 C240 1.350 . S
C237 C240 1.463 . S
C237 C242 1.350 . S
C237 N245 1.427 . S
C238 H229 0.930 . S
C238 C236 1.378 . S
C238 C239 1.367 . S
C239 C238 1.367 . S
C239 C241 1.433 . S
C240 C236 1.350 . S
C240 C237 1.463 . S
C240 N244 1.427 . S
C241 H231 0.929 . S
C241 C239 1.433 . S
C241 N244 1.384 . S
C242 H233 0.929 . S
C242 C234 1.378 . S
C242 C237 1.350 . S
C243 H230 0.929 . S
C243 C235 1.433 . S
C243 N245 1.384 . S
N244 C240 1.427 . S
N244 C241 1.384 . S
N245 C237 1.427 . S
N245 C243 1.384 . S
H246 C252 0.930 . S
H247 C256 0.930 . S
H248 C261 0.929 . S
H249 C259 0.929 . S
H250 C254 0.929 . S
H251 C260 0.929 . S
C252 H246 0.930 . S
C252 C253 1.367 . S
C252 C260 1.378 . S
C253 C252 1.367 . S
C253 C261 1.433 . S
C254 H250 0.929 . S
C254 C256 1.378 . S
C254 C258 1.350 . S
C255 C258 1.463 . S
C255 C260 1.350 . S
C255 N263 1.427 . S
C256 H247 0.930 . S
C256 C254 1.378 . S
C256 C257 1.367 . S
C257 C256 1.367 . S
C257 C259 1.433 . S
C258 C254 1.350 . S
C258 C255 1.463 . S
C258 N262 1.427 . S
C259 H249 0.929 . S
C259 C257 1.433 . S
C259 N262 1.384 . S
C260 H251 0.929 . S
C260 C252 1.378 . S
C260 C255 1.350 . S
C261 H248 0.929 . S
C261 C253 1.433 . S
C261 N263 1.384 . S
N262 C258 1.427 . S
N262 C259 1.384 . S
N263 C255 1.427 . S
N263 C261 1.384 . S
H264 C270 0.930 . S
H265 C274 0.930 . S
H266 C279 0.929 . S
H267 C277 0.929 . S
H268 C272 0.929 . S
H269 C278 0.929 . S
C270 H264 0.930 . S
C270 C271 1.367 . S
C270 C278 1.378 . S
C271 C270 1.367 . S
C271 C279 1.433 . S
C272 H268 0.929 . S
C272 C274 1.378 . S
C272 C276 1.350 . S
C273 C276 1.463 . S
C273 C278 1.350 . S
C273 N281 1.427 . S
C274 H265 0.930 . S
C274 C272 1.378 . S
C274 C275 1.367 . S
C275 C274 1.367 . S
C275 C277 1.433 . S
C276 C272 1.350 . S
C276 C273 1.463 . S
C276 N280 1.427 . S
C277 H267 0.929 . S
C277 C275 1.433 . S
C277 N280 1.384 . S
C278 H269 0.929 . S
C278 C270 1.378 . S
C278 C273 1.350 . S
C279 H266 0.929 . S
C279 C271 1.433 . S
C279 N281 1.384 . S
N280 C276 1.427 . S
N280 C277 1.384 . S
N281 C273 1.427 . S
N281 C279 1.384 . S
H282 C288 0.930 . S
H283 C292 0.930 . S
H284 C297 0.929 . S
H285 C295 0.929 . S
H286 C290 0.929 . S
H287 C296 0.929 . S
C288 H282 0.930 . S
C288 C289 1.367 . S
C288 C296 1.378 . S
C289 C288 1.367 . S
C289 C297 1.433 . S
C290 H286 0.929 . S
C290 C292 1.378 . S
C290 C294 1.350 . S
C291 C294 1.463 . S
C291 C296 1.350 . S
C291 N299 1.427 . S
C292 H283 0.930 . S
C292 C290 1.378 . S
C292 C293 1.367 . S
C293 C292 1.367 . S
C293 C295 1.433 . S
C294 C290 1.350 . S
C294 C291 1.463 . S
C294 N298 1.427 . S
C295 H285 0.929 . S
C295 C293 1.433 . S
C295 N298 1.384 . S
C296 H287 0.929 . S
C296 C288 1.378 . S
C296 C291 1.350 . S
C297 H284 0.929 . S
C297 C289 1.433 . S
C297 N299 1.384 . S
N298 C294 1.427 . S
N298 C295 1.384 . S
N299 C291 1.427 . S
N299 C297 1.384 . S
H300 C306 0.930 . S
H301 C310 0.930 . S
H302 C315 0.929 . S
H303 C313 0.929 . S
H304 C308 0.929 . S
H305 C314 0.929 . S
C306 H300 0.930 . S
C306 C307 1.367 . S
C306 C314 1.378 . S
C307 C306 1.367 . S
C307 C315 1.433 . S
C308 H304 0.929 . S
C308 C310 1.378 . S
C308 C312 1.350 . S
C309 C312 1.463 . S
C309 C314 1.350 . S
C309 N317 1.427 . S
C310 H301 0.930 . S
C310 C308 1.378 . S
C310 C311 1.367 . S
C311 C310 1.367 . S
C311 C313 1.433 . S
C312 C308 1.350 . S
C312 C309 1.463 . S
C312 N316 1.427 . S
C313 H303 0.929 . S
C313 C311 1.433 . S
C313 N316 1.384 . S
C314 H305 0.929 . S
C314 C306 1.378 . S
C314 C309 1.350 . S
C315 H302 0.929 . S
C315 C307 1.433 . S
C315 N317 1.384 . S
N316 C312 1.427 . S
N316 C313 1.384 . S
N317 C309 1.427 . S
N317 C315 1.384 . S
H318 C324 0.930 . S
H319 C328 0.930 . S
H320 C333 0.929 . S
H321 C331 0.929 . S
H322 C326 0.929 . S
H323 C332 0.929 . S
C324 H318 0.930 . S
C324 C325 1.367 . S
C324 C332 1.378 . S
C325 C324 1.367 . S
C325 C333 1.433 . S
C326 H322 0.929 . S
C326 C328 1.378 . S
C326 C330 1.350 . S
C327 C330 1.463 . S
C327 C332 1.350 . S
C327 N335 1.427 . S
C328 H319 0.930 . S
C328 C326 1.378 . S
C328 C329 1.367 . S
C329 C328 1.367 . S
C329 C331 1.433 . S
C330 C326 1.350 . S
C330 C327 1.463 . S
C330 N334 1.427 . S
C331 H321 0.929 . S
C331 C329 1.433 . S
C331 N334 1.384 . S
C332 H323 0.929 . S
C332 C324 1.378 . S
C332 C327 1.350 . S
C333 H320 0.929 . S
C333 C325 1.433 . S
C333 N335 1.384 . S
N334 C330 1.427 . S
N334 C331 1.384 . S
N335 C327 1.427 . S
N335 C333 1.384 . S
H336 C342 0.930 . S
H337 C346 0.930 . S
H338 C351 0.929 . S
H339 C349 0.929 . S
H340 C344 0.929 . S
H341 C350 0.929 . S
C342 H336 0.930 . S
C342 C343 1.367 . S
C342 C350 1.378 . S
C343 C342 1.367 . S
C343 C351 1.433 . S
C344 H340 0.929 . S
C344 C346 1.378 . S
C344 C348 1.350 . S
C345 C348 1.463 . S
C345 C350 1.350 . S
C345 N353 1.427 . S
C346 H337 0.930 . S
C346 C344 1.378 . S
C346 C347 1.367 . S
C347 C346 1.367 . S
C347 C349 1.433 . S
C348 C344 1.350 . S
C348 C345 1.463 . S
C348 N352 1.427 . S
C349 H339 0.929 . S
C349 C347 1.433 . S
C349 N352 1.384 . S
C350 H341 0.929 . S
C350 C342 1.378 . S
C350 C345 1.350 . S
C351 H338 0.929 . S
C351 C343 1.433 . S
C351 N353 1.384 . S
N352 C348 1.427 . S
N352 C349 1.384 . S
N353 C345 1.427 . S
N353 C351 1.384 . S
H354 C360 0.930 . S
H355 C364 0.930 . S
H356 C369 0.929 . S
H357 C367 0.929 . S
H358 C362 0.929 . S
H359 C368 0.929 . S
C360 H354 0.930 . S
C360 C361 1.367 . S
C360 C368 1.378 . S
C361 C360 1.367 . S
C361 C369 1.433 . S
C362 H358 0.929 . S
C362 C364 1.378 . S
C362 C366 1.350 . S
C363 C366 1.463 . S
C363 C368 1.350 . S
C363 N371 1.427 . S
C364 H355 0.930 . S
C364 C362 1.378 . S
C364 C365 1.367 . S
C365 C364 1.367 . S
C365 C367 1.433 . S
C366 C362 1.350 . S
C366 C363 1.463 . S
C366 N370 1.427 . S
C367 H357 0.929 . S
C367 C365 1.433 . S
C367 N370 1.384 . S
C368 H359 0.929 . S
C368 C360 1.378 . S
C368 C363 1.350 . S
C369 H356 0.929 . S
C369 C361 1.433 . S
C369 N371 1.384 . S
N370 C366 1.427 . S
N370 C367 1.384 . S
N371 C363 1.427 . S
N371 C369 1.384 . S
H372 C378 0.930 . S
H373 C382 0.930 . S
H374 C387 0.929 . S
H375 C385 0.929 . S
H376 C380 0.929 . S
H377 C386 0.929 . S
C378 H372 0.930 . S
C378 C379 1.367 . S
C378 C386 1.378 . S
C379 C378 1.367 . S
C379 C387 1.433 . S
C380 H376 0.929 . S
C380 C382 1.378 . S
C380 C384 1.350 . S
C381 C384 1.463 . S
C381 C386 1.350 . S
C381 N389 1.427 . S
C382 H373 0.930 . S
C382 C380 1.378 . S
C382 C383 1.367 . S
C383 C382 1.367 . S
C383 C385 1.433 . S
C384 C380 1.350 . S
C384 C381 1.463 . S
C384 N388 1.427 . S
C385 H375 0.929 . S
C385 C383 1.433 . S
C385 N388 1.384 . S
C386 H377 0.929 . S
C386 C378 1.378 . S
C386 C381 1.350 . S
C387 H374 0.929 . S
C387 C379 1.433 . S
C387 N389 1.384 . S
N388 C384 1.427 . S
N388 C385 1.384 . S
N389 C381 1.427 . S
N389 C387 1.384 . S
H390 C396 0.930 . S
H391 C400 0.930 . S
H392 C405 0.929 . S
H393 C403 0.929 . S
H394 C398 0.929 . S
H395 C404 0.929 . S
C396 H390 0.930 . S
C396 C397 1.367 . S
C396 C404 1.378 . S
C397 C396 1.367 . S
C397 C405 1.433 . S
C398 H394 0.929 . S
C398 C400 1.378 . S
C398 C402 1.350 . S
C399 C402 1.463 . S
C399 C404 1.350 . S
C399 N407 1.427 . S
C400 H391 0.930 . S
C400 C398 1.378 . S
C400 C401 1.367 . S
C401 C400 1.367 . S
C401 C403 1.433 . S
C402 C398 1.350 . S
C402 C399 1.463 . S
C402 N406 1.427 . S
C403 H393 0.929 . S
C403 C401 1.433 . S
C403 N406 1.384 . S
C404 H395 0.929 . S
C404 C396 1.378 . S
C404 C399 1.350 . S
C405 H392 0.929 . S
C405 C397 1.433 . S
C405 N407 1.384 . S
N406 C402 1.427 . S
N406 C403 1.384 . S
N407 C399 1.427 . S
N407 C405 1.384 . S
H408 C414 0.930 . S
H409 C418 0.930 . S
H410 C423 0.929 . S
H411 C421 0.929 . S
H412 C416 0.929 . S
H413 C422 0.929 . S
C414 H408 0.930 . S
C414 C415 1.367 . S
C414 C422 1.378 . S
C415 C414 1.367 . S
C415 C423 1.433 . S
C416 H412 0.929 . S
C416 C418 1.378 . S
C416 C420 1.350 . S
C417 C420 1.463 . S
C417 C422 1.350 . S
C417 N425 1.427 . S
C418 H409 0.930 . S
C418 C416 1.378 . S
C418 C419 1.367 . S
C419 C418 1.367 . S
C419 C421 1.433 . S
C420 C416 1.350 . S
C420 C417 1.463 . S
C420 N424 1.427 . S
C421 H411 0.929 . S
C421 C419 1.433 . S
C421 N424 1.384 . S
C422 H413 0.929 . S
C422 C414 1.378 . S
C422 C417 1.350 . S
C423 H410 0.929 . S
C423 C415 1.433 . S
C423 N425 1.384 . S
N424 C420 1.427 . S
N424 C421 1.384 . S
N425 C417 1.427 . S
N425 C423 1.384 . S
H426 C432 0.930 . S
H427 C436 0.930 . S
H428 C441 0.929 . S
H429 C439 0.929 . S
H430 C434 0.929 . S
H431 C440 0.929 . S
C432 H426 0.930 . S
C432 C433 1.367 . S
C432 C440 1.378 . S
C433 C432 1.367 . S
C433 C441 1.433 . S
C434 H430 0.929 . S
C434 C436 1.378 . S
C434 C438 1.350 . S
C435 C438 1.463 . S
C435 C440 1.350 . S
C435 N443 1.427 . S
C436 H427 0.930 . S
C436 C434 1.378 . S
C436 C437 1.367 . S
C437 C436 1.367 . S
C437 C439 1.433 . S
C438 C434 1.350 . S
C438 C435 1.463 . S
C438 N442 1.427 . S
C439 H429 0.929 . S
C439 C437 1.433 . S
C439 N442 1.384 . S
C440 H431 0.929 . S
C440 C432 1.378 . S
C440 C435 1.350 . S
C441 H428 0.929 . S
C441 C433 1.433 . S
C441 N443 1.384 . S
N442 C438 1.427 . S
N442 C439 1.384 . S
N443 C435 1.427 . S
N443 C441 1.384 . S
H444 C450 0.930 . S
H445 C454 0.930 . S
H446 C459 0.929 . S
H447 C457 0.929 . S
H448 C452 0.929 . S
H449 C458 0.929 . S
C450 H444 0.930 . S
C450 C451 1.367 . S
C450 C458 1.378 . S
C451 C450 1.367 . S
C451 C459 1.433 . S
C452 H448 0.929 . S
C452 C454 1.378 . S
C452 C456 1.350 . S
C453 C456 1.463 . S
C453 C458 1.350 . S
C453 N461 1.427 . S
C454 H445 0.930 . S
C454 C452 1.378 . S
C454 C455 1.367 . S
C455 C454 1.367 . S
C455 C457 1.433 . S
C456 C452 1.350 . S
C456 C453 1.463 . S
C456 N460 1.427 . S
C457 H447 0.929 . S
C457 C455 1.433 . S
C457 N460 1.384 . S
C458 H449 0.929 . S
C458 C450 1.378 . S
C458 C453 1.350 . S
C459 H446 0.929 . S
C459 C451 1.433 . S
C459 N461 1.384 . S
N460 C456 1.427 . S
N460 C457 1.384 . S
N461 C453 1.427 . S
N461 C459 1.384 . S
H462 C468 0.930 . S
H463 C472 0.930 . S
H464 C477 0.929 . S
H465 C475 0.929 . S
H466 C470 0.929 . S
H467 C476 0.929 . S
C468 H462 0.930 . S
C468 C469 1.367 . S
C468 C476 1.378 . S
C469 C468 1.367 . S
C469 C477 1.433 . S
C470 H466 0.929 . S
C470 C472 1.378 . S
C470 C474 1.350 . S
C471 C474 1.463 . S
C471 C476 1.350 . S
C471 N479 1.427 . S
C472 H463 0.930 . S
C472 C470 1.378 . S
C472 C473 1.367 . S
C473 C472 1.367 . S
C473 C475 1.433 . S
C474 C470 1.350 . S
C474 C471 1.463 . S
C474 N478 1.427 . S
C475 H465 0.929 . S
C475 C473 1.433 . S
C475 N478 1.384 . S
C476 H467 0.929 . S
C476 C468 1.378 . S
C476 C471 1.350 . S
C477 H464 0.929 . S
C477 C469 1.433 . S
C477 N479 1.384 . S
N478 C474 1.427 . S
N478 C475 1.384 . S
N479 C471 1.427 . S
N479 C477 1.384 . S
H480 C486 0.930 . S
H481 C490 0.930 . S
H482 C495 0.929 . S
H483 C493 0.929 . S
H484 C488 0.929 . S
H485 C494 0.929 . S
C486 H480 0.930 . S
C486 C487 1.367 1_556 S
C486 C494 1.378 . S
C487 C486 1.367 1_554 S
C487 C495 1.433 . S
C488 H484 0.929 . S
C488 C490 1.378 . S
C488 C492 1.350 . S
C489 C492 1.463 . S
C489 C494 1.350 1_554 S
C489 N497 1.427 . S
C490 H481 0.930 . S
C490 C488 1.378 . S
C490 C491 1.367 . S
C491 C490 1.367 . S
C491 C493 1.433 1_554 S
C492 C488 1.350 . S
C492 C489 1.463 . S
C492 N496 1.427 1_554 S
C493 H483 0.929 . S
C493 C491 1.433 1_556 S
C493 N496 1.384 . S
C494 H485 0.929 . S
C494 C486 1.378 . S
C494 C489 1.350 1_556 S
C495 H482 0.929 . S
C495 C487 1.433 . S
C495 N497 1.384 . S
N496 C492 1.427 1_556 S
N496 C493 1.384 . S
N497 C489 1.427 . S
N497 C495 1.384 . S
H498 C504 0.930 . S
H499 C508 0.930 . S
H500 C513 0.929 . S
H501 C511 0.929 . S
H502 C506 0.929 . S
H503 C512 0.929 . S
C504 H498 0.930 . S
C504 C505 1.367 . S
C504 C512 1.378 . S
C505 C504 1.367 . S
C505 C513 1.433 . S
C506 H502 0.929 . S
C506 C508 1.378 . S
C506 C510 1.350 . S
C507 C510 1.463 . S
C507 C512 1.350 . S
C507 N515 1.427 . S
C508 H499 0.930 . S
C508 C506 1.378 . S
C508 C509 1.367 . S
C509 C508 1.367 . S
C509 C511 1.433 . S
C510 C506 1.350 . S
C510 C507 1.463 . S
C510 N514 1.427 . S
C511 H501 0.929 . S
C511 C509 1.433 . S
C511 N514 1.384 . S
C512 H503 0.929 . S
C512 C504 1.378 . S
C512 C507 1.350 . S
C513 H500 0.929 . S
C513 C505 1.433 . S
C513 N515 1.384 . S
N514 C510 1.427 . S
N514 C511 1.384 . S
N515 C507 1.427 . S
N515 C513 1.384 . S
H516 C522 0.930 . S
H517 C526 0.930 . S
H518 C531 0.929 . S
H519 C529 0.929 . S
H520 C524 0.929 . S
H521 C530 0.929 . S
C522 H516 0.930 . S
C522 C523 1.367 . S
C522 C530 1.378 . S
C523 C522 1.367 . S
C523 C531 1.433 1_554 S
C524 H520 0.929 . S
C524 C526 1.378 . S
C524 C528 1.350 1_556 S
C525 C528 1.463 . S
C525 C530 1.350 . S
C525 N533 1.427 1_554 S
C526 H517 0.930 . S
C526 C524 1.378 . S
C526 C527 1.367 1_556 S
C527 C526 1.367 1_554 S
C527 C529 1.433 . S
C528 C524 1.350 1_554 S
C528 C525 1.463 . S
C528 N532 1.427 . S
C529 H519 0.929 . S
C529 C527 1.433 . S
C529 N532 1.384 . S
C530 H521 0.929 . S
C530 C522 1.378 . S
C530 C525 1.350 . S
C531 H518 0.929 . S
C531 C523 1.433 1_556 S
C531 N533 1.384 . S
N532 C528 1.427 . S
N532 C529 1.384 . S
N533 C525 1.427 1_556 S
N533 C531 1.384 . S
H534 C540 0.930 . S
H535 C544 0.930 . S
H536 C549 0.929 . S
H537 C547 0.929 . S
H538 C542 0.929 . S
H539 C548 0.929 . S
C540 H534 0.930 . S
C540 C541 1.367 . S
C540 C548 1.378 . S
C541 C540 1.367 . S
C541 C549 1.433 . S
C542 H538 0.929 . S
C542 C544 1.378 . S
C542 C546 1.350 . S
C543 C546 1.463 . S
C543 C548 1.350 . S
C543 N551 1.427 . S
C544 H535 0.930 . S
C544 C542 1.378 . S
C544 C545 1.367 . S
C545 C544 1.367 . S
C545 C547 1.433 . S
C546 C542 1.350 . S
C546 C543 1.463 . S
C546 N550 1.427 . S
C547 H537 0.929 . S
C547 C545 1.433 . S
C547 N550 1.384 . S
C548 H539 0.929 . S
C548 C540 1.378 . S
C548 C543 1.350 . S
C549 H536 0.929 . S
C549 C541 1.433 . S
C549 N551 1.384 . S
N550 C546 1.427 . S
N550 C547 1.384 . S
N551 C543 1.427 . S
N551 C549 1.384 . S
H552 C558 0.930 . S
H553 C562 0.930 . S
H554 C567 0.929 . S
H555 C565 0.929 . S
H556 C560 0.929 . S
H557 C566 0.929 . S
C558 H552 0.930 . S
C558 C559 1.367 . S
C558 C566 1.378 . S
C559 C558 1.367 . S
C559 C567 1.433 . S
C560 H556 0.929 . S
C560 C562 1.378 . S
C560 C564 1.350 . S
C561 C564 1.463 . S
C561 C566 1.350 . S
C561 N569 1.427 . S
C562 H553 0.930 . S
C562 C560 1.378 . S
C562 C563 1.367 . S
C563 C562 1.367 . S
C563 C565 1.433 . S
C564 C560 1.350 . S
C564 C561 1.463 . S
C564 N568 1.427 . S
C565 H555 0.929 . S
C565 C563 1.433 . S
C565 N568 1.384 . S
C566 H557 0.929 . S
C566 C558 1.378 . S
C566 C561 1.350 . S
C567 H554 0.929 . S
C567 C559 1.433 . S
C567 N569 1.384 . S
N568 C564 1.427 . S
N568 C565 1.384 . S
N569 C561 1.427 . S
N569 C567 1.384 . S
H570 C576 0.930 . S
H571 C580 0.930 . S
H572 C585 0.929 . S
H573 C583 0.929 . S
H574 C578 0.929 . S
H575 C584 0.929 . S
C576 H570 0.930 . S
C576 C577 1.367 . S
C576 C584 1.378 . S
C577 C576 1.367 . S
C577 C585 1.433 1_554 S
C578 H574 0.929 . S
C578 C580 1.378 . S
C578 C582 1.350 1_556 S
C579 C582 1.463 . S
C579 C584 1.350 . S
C579 N587 1.427 1_554 S
C580 H571 0.930 . S
C580 C578 1.378 . S
C580 C581 1.367 1_556 S
C581 C580 1.367 1_554 S
C581 C583 1.433 . S
C582 C578 1.350 1_554 S
C582 C579 1.463 . S
C582 N586 1.427 . S
C583 H573 0.929 . S
C583 C581 1.433 . S
C583 N586 1.384 . S
C584 H575 0.929 . S
C584 C576 1.378 . S
C584 C579 1.350 . S
C585 H572 0.929 . S
C585 C577 1.433 1_556 S
C585 N587 1.384 . S
N586 C582 1.427 . S
N586 C583 1.384 . S
N587 C579 1.427 1_556 S
N587 C585 1.384 . S
H588 C594 0.930 . S
H589 C598 0.930 . S
H590 C603 0.929 . S
H591 C601 0.929 . S
H592 C596 0.929 . S
H593 C602 0.929 . S
C594 H588 0.930 . S
C594 C595 1.367 . S
C594 C602 1.378 . S
C595 C594 1.367 . S
C595 C603 1.433 . S
C596 H592 0.929 . S
C596 C598 1.378 . S
C596 C600 1.350 . S
C597 C600 1.463 . S
C597 C602 1.350 . S
C597 N605 1.427 . S
C598 H589 0.930 . S
C598 C596 1.378 . S
C598 C599 1.367 . S
C599 C598 1.367 . S
C599 C601 1.433 . S
C600 C596 1.350 . S
C600 C597 1.463 . S
C600 N604 1.427 . S
C601 H591 0.929 . S
C601 C599 1.433 . S
C601 N604 1.384 . S
C602 H593 0.929 . S
C602 C594 1.378 . S
C602 C597 1.350 . S
C603 H590 0.929 . S
C603 C595 1.433 . S
C603 N605 1.384 . S
N604 C600 1.427 . S
N604 C601 1.384 . S
N605 C597 1.427 . S
N605 C603 1.384 . S
H606 C612 0.930 . S
H607 C616 0.930 . S
H608 C621 0.929 . S
H609 C619 0.929 . S
H610 C614 0.929 . S
H611 C620 0.929 . S
C612 H606 0.930 . S
C612 C613 1.367 . S
C612 C620 1.378 . S
C613 C612 1.367 . S
C613 C621 1.433 1_554 S
C614 H610 0.929 . S
C614 C616 1.378 . S
C614 C618 1.350 1_556 S
C615 C618 1.463 . S
C615 C620 1.350 . S
C615 N623 1.427 1_554 S
C616 H607 0.930 . S
C616 C614 1.378 . S
C616 C617 1.367 1_556 S
C617 C616 1.367 1_554 S
C617 C619 1.433 . S
C618 C614 1.350 1_554 S
C618 C615 1.463 . S
C618 N622 1.427 . S
C619 H609 0.929 . S
C619 C617 1.433 . S
C619 N622 1.384 . S
C620 H611 0.929 . S
C620 C612 1.378 . S
C620 C615 1.350 . S
C621 H608 0.929 . S
C621 C613 1.433 1_556 S
C621 N623 1.384 . S
N622 C618 1.427 . S
N622 C619 1.384 . S
N623 C615 1.427 1_556 S
N623 C621 1.384 . S
C199 C5 1.462 . S
C203 C135 1.470 . S
C217 C31 1.485 . S
C221 C97 1.479 . S
C239 C110 1.456 . S
C235 C53 1.475 . S
C253 C71 1.450 . S
C257 C122 1.454 . S
C275 C162 1.480 . S
C271 C75 1.483 . S
C293 C174 1.470 . S
C289 C9 1.463 . S
C311 C187 1.455 . S
C307 C27 1.449 . S
C329 C149 1.459 . S
C325 C49 1.471 . S
C343 C51 1.463 . S
C347 C109 1.467 . S
C361 C72 1.485 . S
C365 C123 1.480 . S
C379 C6 1.466 . S
C383 C136 1.468 . S
C401 C96 1.458 . S
C397 C29 1.441 . S
C415 C28 1.490 . S
C419 C188 1.475 . S
C437 C148 1.471 . S
C433 C50 1.458 . S
C455 C161 1.458 . S
C451 C73 1.440 . S
C469 C7 1.475 . S
C473 C175 1.457 . S
C491 C92 1.457 1_554 S
C487 C4 1.500 . S
C509 C105 1.448 . S
C505 C30 1.500 . S
C523 C52 1.499 . S
C527 C118 1.478 . S
C541 C70 1.499 . S
C545 C131 1.475 . S
C563 C144 1.456 . S
C559 C74 1.502 . S
C577 C8 1.506 . S
C581 C157 1.446 . S
C595 C26 1.501 . S
C599 C170 1.482 . S
C613 C48 1.506 . S
C617 C183 1.478 1_554 S
